# Generated by pormake.
# Topology umq, (4)-cn, num edge types: 1
# Building blocks:
#     Node 0, Type 0, BuildingBlock: TATPOV_clean_sbu_0, # of connection points: 4
#     Node 1, Type 0, BuildingBlock: TATPOV_clean_sbu_0, # of connection points: 4
#     Node 2, Type 0, BuildingBlock: TATPOV_clean_sbu_0, # of connection points: 4
#     Node 3, Type 0, BuildingBlock: TATPOV_clean_sbu_0, # of connection points: 4
#     Node 4, Type 0, BuildingBlock: TATPOV_clean_sbu_0, # of connection points: 4
#     Node 5, Type 0, BuildingBlock: TATPOV_clean_sbu_0, # of connection points: 4
#     Node 6, Type 0, BuildingBlock: TATPOV_clean_sbu_0, # of connection points: 4
#     Node 7, Type 0, BuildingBlock: TATPOV_clean_sbu_0, # of connection points: 4
#     Node 8, Type 0, BuildingBlock: TATPOV_clean_sbu_0, # of connection points: 4
#     Node 9, Type 0, BuildingBlock: TATPOV_clean_sbu_0, # of connection points: 4
#     Node 10, Type 0, BuildingBlock: TATPOV_clean_sbu_0, # of connection points: 4
#     Node 11, Type 0, BuildingBlock: TATPOV_clean_sbu_0, # of connection points: 4
#     Node 12, Type 0, BuildingBlock: TATPOV_clean_sbu_0, # of connection points: 4
#     Node 13, Type 0, BuildingBlock: TATPOV_clean_sbu_0, # of connection points: 4
#     Node 14, Type 0, BuildingBlock: TATPOV_clean_sbu_0, # of connection points: 4
#     Node 15, Type 0, BuildingBlock: TATPOV_clean_sbu_0, # of connection points: 4
#     Node 16, Type 0, BuildingBlock: TATPOV_clean_sbu_0, # of connection points: 4
#     Node 17, Type 0, BuildingBlock: TATPOV_clean_sbu_0, # of connection points: 4
#     Node 18, Type 0, BuildingBlock: TATPOV_clean_sbu_0, # of connection points: 4
#     Node 19, Type 0, BuildingBlock: TATPOV_clean_sbu_0, # of connection points: 4
#     Node 20, Type 0, BuildingBlock: TATPOV_clean_sbu_0, # of connection points: 4
#     Node 21, Type 0, BuildingBlock: TATPOV_clean_sbu_0, # of connection points: 4
#     Node 22, Type 0, BuildingBlock: TATPOV_clean_sbu_0, # of connection points: 4
#     Node 23, Type 0, BuildingBlock: TATPOV_clean_sbu_0, # of connection points: 4
#     Node 24, Type 0, BuildingBlock: TATPOV_clean_sbu_0, # of connection points: 4
#     Node 25, Type 0, BuildingBlock: TATPOV_clean_sbu_0, # of connection points: 4
#     Node 26, Type 0, BuildingBlock: TATPOV_clean_sbu_0, # of connection points: 4
#     Node 27, Type 0, BuildingBlock: TATPOV_clean_sbu_0, # of connection points: 4
#     Node 28, Type 0, BuildingBlock: TATPOV_clean_sbu_0, # of connection points: 4
#     Node 29, Type 0, BuildingBlock: TATPOV_clean_sbu_0, # of connection points: 4
#     Node 30, Type 0, BuildingBlock: TATPOV_clean_sbu_0, # of connection points: 4
#     Node 31, Type 0, BuildingBlock: TATPOV_clean_sbu_0, # of connection points: 4
#     Edge 32, Type (0, 0), BuildingBlock: UVAHIK_clean_linker_0, # of connection points: 2
#     Edge 33, Type (0, 0), BuildingBlock: UVAHIK_clean_linker_0, # of connection points: 2
#     Edge 34, Type (0, 0), BuildingBlock: UVAHIK_clean_linker_0, # of connection points: 2
#     Edge 35, Type (0, 0), BuildingBlock: UVAHIK_clean_linker_0, # of connection points: 2
#     Edge 36, Type (0, 0), BuildingBlock: UVAHIK_clean_linker_0, # of connection points: 2
#     Edge 37, Type (0, 0), BuildingBlock: UVAHIK_clean_linker_0, # of connection points: 2
#     Edge 38, Type (0, 0), BuildingBlock: UVAHIK_clean_linker_0, # of connection points: 2
#     Edge 39, Type (0, 0), BuildingBlock: UVAHIK_clean_linker_0, # of connection points: 2
#     Edge 40, Type (0, 0), BuildingBlock: UVAHIK_clean_linker_0, # of connection points: 2
#     Edge 41, Type (0, 0), BuildingBlock: UVAHIK_clean_linker_0, # of connection points: 2
#     Edge 42, Type (0, 0), BuildingBlock: UVAHIK_clean_linker_0, # of connection points: 2
#     Edge 43, Type (0, 0), BuildingBlock: UVAHIK_clean_linker_0, # of connection points: 2
#     Edge 44, Type (0, 0), BuildingBlock: UVAHIK_clean_linker_0, # of connection points: 2
#     Edge 45, Type (0, 0), BuildingBlock: UVAHIK_clean_linker_0, # of connection points: 2
#     Edge 46, Type (0, 0), BuildingBlock: UVAHIK_clean_linker_0, # of connection points: 2
#     Edge 47, Type (0, 0), BuildingBlock: UVAHIK_clean_linker_0, # of connection points: 2
#     Edge 48, Type (0, 0), BuildingBlock: UVAHIK_clean_linker_0, # of connection points: 2
#     Edge 49, Type (0, 0), BuildingBlock: UVAHIK_clean_linker_0, # of connection points: 2
#     Edge 50, Type (0, 0), BuildingBlock: UVAHIK_clean_linker_0, # of connection points: 2
#     Edge 51, Type (0, 0), BuildingBlock: UVAHIK_clean_linker_0, # of connection points: 2
#     Edge 52, Type (0, 0), BuildingBlock: UVAHIK_clean_linker_0, # of connection points: 2
#     Edge 53, Type (0, 0), BuildingBlock: UVAHIK_clean_linker_0, # of connection points: 2
#     Edge 54, Type (0, 0), BuildingBlock: UVAHIK_clean_linker_0, # of connection points: 2
#     Edge 55, Type (0, 0), BuildingBlock: UVAHIK_clean_linker_0, # of connection points: 2
#     Edge 56, Type (0, 0), BuildingBlock: UVAHIK_clean_linker_0, # of connection points: 2
#     Edge 57, Type (0, 0), BuildingBlock: UVAHIK_clean_linker_0, # of connection points: 2
#     Edge 58, Type (0, 0), BuildingBlock: UVAHIK_clean_linker_0, # of connection points: 2
#     Edge 59, Type (0, 0), BuildingBlock: UVAHIK_clean_linker_0, # of connection points: 2
#     Edge 60, Type (0, 0), BuildingBlock: UVAHIK_clean_linker_0, # of connection points: 2
#     Edge 61, Type (0, 0), BuildingBlock: UVAHIK_clean_linker_0, # of connection points: 2
#     Edge 62, Type (0, 0), BuildingBlock: UVAHIK_clean_linker_0, # of connection points: 2
#     Edge 63, Type (0, 0), BuildingBlock: UVAHIK_clean_linker_0, # of connection points: 2
#     Edge 64, Type (0, 0), BuildingBlock: UVAHIK_clean_linker_0, # of connection points: 2
#     Edge 65, Type (0, 0), BuildingBlock: UVAHIK_clean_linker_0, # of connection points: 2
#     Edge 66, Type (0, 0), BuildingBlock: UVAHIK_clean_linker_0, # of connection points: 2
#     Edge 67, Type (0, 0), BuildingBlock: UVAHIK_clean_linker_0, # of connection points: 2
#     Edge 68, Type (0, 0), BuildingBlock: UVAHIK_clean_linker_0, # of connection points: 2
#     Edge 69, Type (0, 0), BuildingBlock: UVAHIK_clean_linker_0, # of connection points: 2
#     Edge 70, Type (0, 0), BuildingBlock: UVAHIK_clean_linker_0, # of connection points: 2
#     Edge 71, Type (0, 0), BuildingBlock: UVAHIK_clean_linker_0, # of connection points: 2
#     Edge 72, Type (0, 0), BuildingBlock: UVAHIK_clean_linker_0, # of connection points: 2
#     Edge 73, Type (0, 0), BuildingBlock: UVAHIK_clean_linker_0, # of connection points: 2
#     Edge 74, Type (0, 0), BuildingBlock: UVAHIK_clean_linker_0, # of connection points: 2
#     Edge 75, Type (0, 0), BuildingBlock: UVAHIK_clean_linker_0, # of connection points: 2
#     Edge 76, Type (0, 0), BuildingBlock: UVAHIK_clean_linker_0, # of connection points: 2
#     Edge 77, Type (0, 0), BuildingBlock: UVAHIK_clean_linker_0, # of connection points: 2
#     Edge 78, Type (0, 0), BuildingBlock: UVAHIK_clean_linker_0, # of connection points: 2
#     Edge 79, Type (0, 0), BuildingBlock: UVAHIK_clean_linker_0, # of connection points: 2
#     Edge 80, Type (0, 0), BuildingBlock: UVAHIK_clean_linker_0, # of connection points: 2
#     Edge 81, Type (0, 0), BuildingBlock: UVAHIK_clean_linker_0, # of connection points: 2
#     Edge 82, Type (0, 0), BuildingBlock: UVAHIK_clean_linker_0, # of connection points: 2
#     Edge 83, Type (0, 0), BuildingBlock: UVAHIK_clean_linker_0, # of connection points: 2
#     Edge 84, Type (0, 0), BuildingBlock: UVAHIK_clean_linker_0, # of connection points: 2
#     Edge 85, Type (0, 0), BuildingBlock: UVAHIK_clean_linker_0, # of connection points: 2
#     Edge 86, Type (0, 0), BuildingBlock: UVAHIK_clean_linker_0, # of connection points: 2
#     Edge 87, Type (0, 0), BuildingBlock: UVAHIK_clean_linker_0, # of connection points: 2
#     Edge 88, Type (0, 0), BuildingBlock: UVAHIK_clean_linker_0, # of connection points: 2
#     Edge 89, Type (0, 0), BuildingBlock: UVAHIK_clean_linker_0, # of connection points: 2
#     Edge 90, Type (0, 0), BuildingBlock: UVAHIK_clean_linker_0, # of connection points: 2
#     Edge 91, Type (0, 0), BuildingBlock: UVAHIK_clean_linker_0, # of connection points: 2
#     Edge 92, Type (0, 0), BuildingBlock: UVAHIK_clean_linker_0, # of connection points: 2
#     Edge 93, Type (0, 0), BuildingBlock: UVAHIK_clean_linker_0, # of connection points: 2
#     Edge 94, Type (0, 0), BuildingBlock: UVAHIK_clean_linker_0, # of connection points: 2
#     Edge 95, Type (0, 0), BuildingBlock: UVAHIK_clean_linker_0, # of connection points: 2
# Relax obj value: 0.063
# Max RMSD: 0.082
# Mean RMSD: 0.082
data_MOF--net-umq--node1-TATPOV_clean_sbu_0--edge1-UVAHIK_clean_linker_0
_symmetry_space_group_name_H-M    P1
_symmetry_Int_Tables_number       1
_symmetry_cell_setting            triclinic
loop_
_symmetry_equiv_pos_as_xyz
'x, y, z'
_cell_length_a     85.202855
_cell_length_b     85.208538
_cell_length_c     57.075104
_cell_angle_alpha  89.993482
_cell_angle_beta   89.966914
_cell_angle_gamma 90.006343
loop_
_atom_site_label
_atom_site_type_symbol
_atom_site_fract_x
_atom_site_fract_y
_atom_site_fract_z
_atom_type_partial_charge
Zn0 Zn 0.2493 0.11936 0.13599 0.0
Zn1 Zn 0.25016 0.09383 0.16336 0.0
O2 O 0.24897 0.08479 0.12965 0.0
O3 O 0.24908 0.1059 0.10734 0.0
O4 O 0.25001 0.07419 0.1831 0.0
O5 O 0.22914 0.1263 0.15167 0.0
O6 O 0.23052 0.10567 0.17478 0.0
C7 C 0.24893 0.09112 0.10942 0.0
C8 C 0.27719 0.11762 0.16428 0.0
O9 O 0.27093 0.10506 0.17205 0.0
O10 O 0.27027 0.12574 0.14885 0.0
C11 C 0.26236 0.06638 0.18757 0.0
O12 O 0.27593 0.07135 0.17953 0.0
C13 C 0.22363 0.11825 0.16841 0.0
Zn14 Zn 0.87871 0.23205 0.13464 0.0
Zn15 Zn 0.90394 0.23847 0.16055 0.0
O16 O 0.91271 0.23688 0.12685 0.0
O17 O 0.89202 0.23058 0.10573 0.0
O18 O 0.92381 0.24213 0.17907 0.0
O19 O 0.87456 0.2126 0.15311 0.0
O20 O 0.89536 0.21764 0.17469 0.0
C21 C 0.90657 0.23335 0.10719 0.0
C22 C 0.87612 0.26133 0.15961 0.0
O23 O 0.8898 0.2578 0.16696 0.0
O24 O 0.86903 0.25234 0.14546 0.0
C25 C 0.92794 0.25497 0.18862 0.0
O26 O 0.91861 0.26721 0.18737 0.0
C27 C 0.88361 0.20893 0.1698 0.0
Zn28 Zn 0.76811 0.8778 0.12659 0.0
Zn29 Zn 0.76222 0.90062 0.15722 0.0
O30 O 0.7674 0.91242 0.12642 0.0
O31 O 0.77469 0.89353 0.10244 0.0
O32 O 0.75931 0.91867 0.17961 0.0
O33 O 0.78461 0.86865 0.14756 0.0
O34 O 0.7804 0.888 0.17234 0.0
C35 C 0.77269 0.90796 0.10662 0.0
C36 C 0.73616 0.8777 0.14414 0.0
O37 O 0.741 0.88897 0.15694 0.0
O38 O 0.74532 0.87133 0.12945 0.0
C39 C 0.74689 0.92694 0.18014 0.0
O40 O 0.7351 0.92321 0.1664 0.0
C41 C 0.7879 0.87563 0.1665 0.0
Zn42 Zn 0.11724 0.76822 0.12418 0.0
Zn43 Zn 0.09369 0.75858 0.15123 0.0
O44 O 0.08313 0.76426 0.11968 0.0
O45 O 0.10232 0.77433 0.09867 0.0
O46 O 0.0748 0.75279 0.17059 0.0
O47 O 0.12339 0.78445 0.14789 0.0
O48 O 0.10348 0.77701 0.16982 0.0
C49 C 0.08797 0.77082 0.10096 0.0
C50 C 0.11987 0.73568 0.13863 0.0
O51 O 0.10745 0.73865 0.15028 0.0
O52 O 0.12597 0.74618 0.12579 0.0
C53 C 0.07497 0.74477 0.18937 0.0
O54 O 0.08839 0.73941 0.19738 0.0
C55 C 0.11522 0.786 0.16625 0.0
Zn56 Zn 0.21947 0.8757 0.36912 0.0
Zn57 Zn 0.22916 0.89714 0.3386 0.0
O58 O 0.2261 0.90956 0.36949 0.0
O59 O 0.21706 0.89192 0.39421 0.0
O60 O 0.23449 0.91457 0.31614 0.0
O61 O 0.20085 0.8702 0.34945 0.0
O62 O 0.20929 0.88734 0.32347 0.0
C63 C 0.22097 0.90593 0.38976 0.0
C64 C 0.25055 0.86954 0.3498 0.0
O65 O 0.24828 0.88223 0.33845 0.0
O66 O 0.24015 0.86455 0.36385 0.0
C67 C 0.24783 0.92122 0.31535 0.0
O68 O 0.25917 0.9161 0.32894 0.0
C69 C 0.19933 0.87701 0.32989 0.0
Zn70 Zn 0.12339 0.22588 0.3579 0.0
Zn71 Zn 0.10234 0.23594 0.32705 0.0
O72 O 0.08936 0.2309 0.3569 0.0
O73 O 0.10664 0.22075 0.38122 0.0
O74 O 0.0852 0.24175 0.3044 0.0
O75 O 0.13065 0.20897 0.33612 0.0
O76 O 0.11342 0.21737 0.31024 0.0
C77 C 0.09266 0.2246 0.37654 0.0
C78 C 0.12786 0.25835 0.34341 0.0
O79 O 0.11613 0.2557 0.33013 0.0
O80 O 0.13293 0.24766 0.35689 0.0
C81 C 0.07617 0.25335 0.30819 0.0
O82 O 0.0787 0.26228 0.32656 0.0
C83 C 0.12428 0.20785 0.31618 0.0
Zn84 Zn 0.77111 0.12518 0.35409 0.0
Zn85 Zn 0.76553 0.09982 0.32834 0.0
O86 O 0.76541 0.09125 0.36228 0.0
O87 O 0.77086 0.1122 0.38336 0.0
O88 O 0.76267 0.08008 0.30937 0.0
O89 O 0.79149 0.12904 0.33794 0.0
O90 O 0.78696 0.10828 0.31606 0.0
C91 C 0.76801 0.09766 0.38207 0.0
C92 C 0.74302 0.12777 0.32614 0.0
O93 O 0.74657 0.11389 0.31969 0.0
O94 O 0.75157 0.13498 0.34074 0.0
C95 C 0.74941 0.07395 0.30479 0.0
O96 O 0.73656 0.08087 0.31221 0.0
C97 C 0.79566 0.1199 0.32163 0.0
Zn98 Zn 0.88395 0.77212 0.36878 0.0
Zn99 Zn 0.9051 0.76133 0.33825 0.0
O100 O 0.91803 0.76689 0.36783 0.0
O101 O 0.90089 0.77787 0.39158 0.0
O102 O 0.92209 0.75456 0.31587 0.0
O103 O 0.87653 0.78825 0.34569 0.0
O104 O 0.8942 0.7796 0.32067 0.0
C105 C 0.91482 0.77372 0.3871 0.0
C106 C 0.87939 0.73944 0.35568 0.0
O107 O 0.89103 0.7419 0.34214 0.0
O108 O 0.87447 0.75027 0.36904 0.0
C109 C 0.93247 0.74479 0.32249 0.0
O110 O 0.93143 0.73866 0.34356 0.0
C111 C 0.8831 0.78905 0.32583 0.0
Zn112 Zn 0.76831 0.87661 0.86848 0.0
Zn113 Zn 0.76135 0.89902 0.83824 0.0
O114 O 0.76685 0.91102 0.86866 0.0
O115 O 0.77596 0.89248 0.89179 0.0
O116 O 0.75772 0.91689 0.81579 0.0
O117 O 0.78351 0.86679 0.84603 0.0
O118 O 0.77945 0.88675 0.82232 0.0
C119 C 0.77314 0.90682 0.88791 0.0
C120 C 0.73597 0.87587 0.85331 0.0
O121 O 0.74037 0.88683 0.83958 0.0
O122 O 0.74553 0.87011 0.86799 0.0
C123 C 0.74502 0.92469 0.81481 0.0
O124 O 0.73319 0.92062 0.82826 0.0
C125 C 0.78661 0.87401 0.82722 0.0
Zn126 Zn 0.11806 0.77136 0.85753 0.0
Zn127 Zn 0.09501 0.76233 0.8289 0.0
O128 O 0.08391 0.76828 0.85994 0.0
O129 O 0.10267 0.77801 0.8821 0.0
O130 O 0.07627 0.75761 0.8085 0.0
O131 O 0.12556 0.78726 0.83418 0.0
O132 O 0.1063 0.78016 0.81075 0.0
C133 C 0.08835 0.77473 0.87896 0.0
C134 C 0.11975 0.73854 0.84356 0.0
O135 O 0.10787 0.7419 0.83095 0.0
O136 O 0.12587 0.7489 0.85662 0.0
C137 C 0.07158 0.74416 0.80184 0.0
O138 O 0.07971 0.73162 0.80748 0.0
C139 C 0.11818 0.78882 0.81508 0.0
Zn140 Zn 0.22265 0.12328 0.85862 0.0
Zn141 Zn 0.22894 0.09857 0.83161 0.0
O142 O 0.22746 0.08916 0.86492 0.0
O143 O 0.22145 0.10944 0.88705 0.0
O144 O 0.2325 0.07928 0.81194 0.0
O145 O 0.20316 0.128 0.84044 0.0
O146 O 0.2085 0.10793 0.81753 0.0
C147 C 0.22419 0.09491 0.88495 0.0
C148 C 0.25206 0.12594 0.83348 0.0
O149 O 0.24846 0.11238 0.82573 0.0
O150 O 0.24307 0.13292 0.84777 0.0
C151 C 0.24579 0.07256 0.81057 0.0
O152 O 0.25781 0.07858 0.82183 0.0
C153 C 0.19977 0.11955 0.82293 0.0
Zn154 Zn 0.87902 0.23335 0.85984 0.0
Zn155 Zn 0.90186 0.23975 0.83049 0.0
O156 O 0.91335 0.23629 0.86209 0.0
O157 O 0.89441 0.22747 0.8848 0.0
O158 O 0.91994 0.2433 0.80835 0.0
O159 O 0.87039 0.21662 0.83895 0.0
O160 O 0.89089 0.22019 0.81613 0.0
C161 C 0.90874 0.23071 0.88163 0.0
C162 C 0.87739 0.26482 0.84174 0.0
O163 O 0.88884 0.26027 0.82905 0.0
O164 O 0.87157 0.25568 0.85694 0.0
C165 C 0.92818 0.25574 0.80861 0.0
O166 O 0.92451 0.26705 0.82327 0.0
C167 C 0.87833 0.21273 0.82115 0.0
Zn168 Zn 0.76224 0.1239 0.64048 0.0
Zn169 Zn 0.7585 0.09782 0.66551 0.0
O170 O 0.75934 0.08967 0.63137 0.0
O171 O 0.76301 0.11128 0.61088 0.0
O172 O 0.75671 0.07773 0.68401 0.0
O173 O 0.78231 0.12884 0.65682 0.0
O174 O 0.77918 0.10764 0.67833 0.0
C175 C 0.76143 0.09653 0.61178 0.0
C176 C 0.73403 0.12408 0.66829 0.0
O177 O 0.73855 0.11039 0.67421 0.0
O178 O 0.74207 0.13217 0.65407 0.0
C179 C 0.74371 0.07091 0.68799 0.0
O180 O 0.73066 0.07722 0.68017 0.0
C181 C 0.78707 0.11988 0.67299 0.0
Zn182 Zn 0.88183 0.7718 0.6195 0.0
Zn183 Zn 0.90183 0.76232 0.6515 0.0
O184 O 0.9156 0.76675 0.62221 0.0
O185 O 0.89906 0.77738 0.59724 0.0
O186 O 0.91834 0.75688 0.67538 0.0
O187 O 0.873 0.78828 0.64059 0.0
O188 O 0.89047 0.78127 0.66694 0.0
C189 C 0.91286 0.77325 0.60253 0.0
C190 C 0.87648 0.73981 0.63471 0.0
O191 O 0.88767 0.74269 0.64892 0.0
O192 O 0.87236 0.7501 0.61991 0.0
C193 C 0.92654 0.74445 0.67413 0.0
O194 O 0.92362 0.73425 0.65743 0.0
C195 C 0.87912 0.79008 0.66059 0.0
Zn196 Zn 0.23917 0.87707 0.62825 0.0
Zn197 Zn 0.24282 0.90041 0.65871 0.0
O198 O 0.24098 0.91178 0.6267 0.0
O199 O 0.23892 0.89225 0.6016 0.0
O200 O 0.24407 0.91872 0.68095 0.0
O201 O 0.21921 0.8701 0.64405 0.0
O202 O 0.22315 0.88854 0.67039 0.0
C203 C 0.23989 0.9068 0.60571 0.0
C204 C 0.26862 0.87578 0.65307 0.0
O205 O 0.26366 0.88822 0.66305 0.0
O206 O 0.26019 0.86877 0.63811 0.0
C207 C 0.25662 0.92636 0.68482 0.0
O208 O 0.26973 0.92185 0.67474 0.0
C209 C 0.21508 0.87703 0.66267 0.0
Zn210 Zn 0.11855 0.23028 0.61929 0.0
Zn211 Zn 0.09525 0.23834 0.64753 0.0
O212 O 0.0843 0.23411 0.61579 0.0
O213 O 0.10326 0.22425 0.59411 0.0
O214 O 0.07661 0.24256 0.66843 0.0
O215 O 0.12613 0.2139 0.64178 0.0
O216 O 0.10548 0.21906 0.66363 0.0
C217 C 0.08898 0.2279 0.59672 0.0
C218 C 0.12078 0.26226 0.63581 0.0
O219 O 0.10885 0.2585 0.64811 0.0
O220 O 0.12662 0.25248 0.62156 0.0
C221 C 0.07174 0.25586 0.67547 0.0
O222 O 0.07948 0.2686 0.6696 0.0
C223 C 0.11781 0.21099 0.65962 0.0
Zn224 Zn 0.72492 0.61598 0.62506 0.0
Zn225 Zn 0.73642 0.59568 0.65579 0.0
O226 O 0.73215 0.58229 0.62603 0.0
O227 O 0.7209 0.59895 0.60181 0.0
O228 O 0.74321 0.57924 0.67904 0.0
O229 O 0.70756 0.62232 0.64664 0.0
O230 O 0.71717 0.60567 0.67241 0.0
C231 C 0.72558 0.58522 0.60645 0.0
C232 C 0.75691 0.62286 0.63978 0.0
O233 O 0.7552 0.61083 0.65283 0.0
O234 O 0.74588 0.6271 0.62629 0.0
C235 C 0.7531 0.56868 0.67363 0.0
O236 O 0.75969 0.56903 0.65282 0.0
C237 C 0.70695 0.61592 0.66661 0.0
Zn238 Zn 0.38108 0.73311 0.62996 0.0
Zn239 Zn 0.40367 0.73664 0.66127 0.0
O240 O 0.41547 0.7326 0.63007 0.0
O241 O 0.39655 0.72634 0.60553 0.0
O242 O 0.42163 0.73878 0.68393 0.0
O243 O 0.37071 0.71688 0.65014 0.0
O244 O 0.3905 0.71828 0.67481 0.0
C245 C 0.411 0.72802 0.6099 0.0
C246 C 0.38177 0.76402 0.6503 0.0
O247 O 0.39237 0.75798 0.66319 0.0
O248 O 0.37563 0.75605 0.63396 0.0
C249 C 0.43002 0.75112 0.68388 0.0
O250 O 0.42648 0.76258 0.66942 0.0
C251 C 0.37747 0.71217 0.66859 0.0
Zn252 Zn 0.26956 0.38235 0.62985 0.0
Zn253 Zn 0.25936 0.40432 0.65942 0.0
O254 O 0.26371 0.41656 0.6288 0.0
O255 O 0.27448 0.39883 0.60579 0.0
O256 O 0.25381 0.42177 0.68162 0.0
O257 O 0.28653 0.37564 0.65213 0.0
O258 O 0.27846 0.39423 0.67601 0.0
C259 C 0.27018 0.41283 0.60946 0.0
C260 C 0.23716 0.37809 0.64515 0.0
O261 O 0.23983 0.3901 0.65785 0.0
O262 O 0.24775 0.37287 0.6316 0.0
C263 C 0.24146 0.43005 0.67996 0.0
O264 O 0.23112 0.42674 0.66362 0.0
C265 C 0.28792 0.38308 0.6712 0.0
Zn266 Zn 0.62535 0.26034 0.64502 0.0
Zn267 Zn 0.59832 0.25805 0.66658 0.0
O268 O 0.59192 0.25645 0.63164 0.0
O269 O 0.61501 0.25547 0.61433 0.0
O270 O 0.57752 0.25706 0.68344 0.0
O271 O 0.62856 0.28245 0.65576 0.0
O272 O 0.60744 0.2795 0.67746 0.0
C273 C 0.60019 0.25488 0.61316 0.0
C274 C 0.62486 0.2348 0.67723 0.0
O275 O 0.61043 0.23859 0.67906 0.0
O276 O 0.63401 0.24284 0.66455 0.0
C277 C 0.57011 0.24422 0.68598 0.0
O278 O 0.57617 0.23124 0.67746 0.0
C279 C 0.61925 0.28771 0.67113 0.0
Zn280 Zn 0.72892 0.37852 0.86147 0.0
Zn281 Zn 0.73572 0.40203 0.83316 0.0
O282 O 0.73239 0.41272 0.86543 0.0
O283 O 0.72365 0.39343 0.8875 0.0
O284 O 0.74005 0.4204 0.8119 0.0
O285 O 0.71193 0.37098 0.83999 0.0
O286 O 0.71617 0.39168 0.81784 0.0
C287 C 0.72705 0.40778 0.88495 0.0
C288 C 0.76039 0.37689 0.84304 0.0
O289 O 0.756 0.38881 0.83123 0.0
O290 O 0.75115 0.37069 0.85777 0.0
C291 C 0.75058 0.43041 0.81696 0.0
O292 O 0.75889 0.42849 0.83614 0.0
C293 C 0.7084 0.37923 0.82233 0.0
Zn294 Zn 0.62163 0.72688 0.87112 0.0
Zn295 Zn 0.59831 0.73461 0.84198 0.0
O296 O 0.58712 0.72951 0.8732 0.0
O297 O 0.60607 0.72072 0.89588 0.0
O298 O 0.57979 0.73842 0.8208 0.0
O299 O 0.62942 0.71042 0.84875 0.0
O300 O 0.60965 0.71621 0.82552 0.0
C301 C 0.59169 0.72363 0.89256 0.0
C302 C 0.62285 0.75918 0.85467 0.0
O303 O 0.61102 0.7552 0.84237 0.0
O304 O 0.62908 0.74941 0.8686 0.0
C305 C 0.57424 0.7517 0.81498 0.0
O306 O 0.58117 0.76457 0.82231 0.0
C307 C 0.62176 0.70797 0.83012 0.0
Zn308 Zn 0.26459 0.62011 0.86852 0.0
Zn309 Zn 0.25772 0.59786 0.83776 0.0
O310 O 0.26338 0.58582 0.86808 0.0
O311 O 0.27214 0.6042 0.89179 0.0
O312 O 0.25389 0.57977 0.81567 0.0
O313 O 0.2799 0.62978 0.84612 0.0
O314 O 0.27577 0.61022 0.82172 0.0
C315 C 0.26951 0.58988 0.8875 0.0
C316 C 0.23241 0.62115 0.85303 0.0
O317 O 0.23687 0.6102 0.83933 0.0
O318 O 0.24187 0.62682 0.8679 0.0
C319 C 0.24056 0.57492 0.80873 0.0
O320 O 0.22782 0.58245 0.81514 0.0
C321 C 0.28296 0.62287 0.82705 0.0
Zn322 Zn 0.36876 0.26452 0.85265 0.0
Zn323 Zn 0.39426 0.2592 0.82865 0.0
O324 O 0.40202 0.25802 0.86306 0.0
O325 O 0.37975 0.25912 0.88255 0.0
O326 O 0.41433 0.25697 0.81019 0.0
O327 O 0.36708 0.28681 0.84168 0.0
O328 O 0.3859 0.28071 0.81694 0.0
C329 C 0.39449 0.2574 0.88233 0.0
C330 C 0.36579 0.23807 0.82184 0.0
O331 O 0.38043 0.24031 0.81863 0.0
O332 O 0.35797 0.24744 0.8345 0.0
C333 C 0.42117 0.24396 0.80636 0.0
O334 O 0.41488 0.23095 0.81439 0.0
C335 C 0.37561 0.29039 0.82435 0.0
Zn336 Zn 0.27251 0.38501 0.3681 0.0
Zn337 Zn 0.26178 0.4067 0.33857 0.0
O338 O 0.26585 0.41887 0.36949 0.0
O339 O 0.27628 0.40115 0.39286 0.0
O340 O 0.25513 0.4241 0.31683 0.0
O341 O 0.2902 0.3797 0.34639 0.0
O342 O 0.28124 0.39738 0.32163 0.0
C343 C 0.27196 0.41512 0.38909 0.0
C344 C 0.24068 0.37923 0.35192 0.0
O345 O 0.24287 0.39164 0.33986 0.0
O346 O 0.2514 0.37423 0.36539 0.0
C347 C 0.24505 0.43425 0.32317 0.0
O348 O 0.2383 0.43281 0.34376 0.0
C349 C 0.2913 0.38691 0.32709 0.0
Zn350 Zn 0.6306 0.26813 0.34902 0.0
Zn351 Zn 0.60469 0.26322 0.32529 0.0
O352 O 0.5972 0.26142 0.35969 0.0
O353 O 0.61959 0.26231 0.37889 0.0
O354 O 0.58457 0.261 0.30714 0.0
O355 O 0.63194 0.29061 0.33847 0.0
O356 O 0.61269 0.28497 0.31424 0.0
C357 C 0.60485 0.26054 0.37883 0.0
C358 C 0.63308 0.24211 0.31721 0.0
O359 O 0.61845 0.24459 0.31437 0.0
O360 O 0.64112 0.25117 0.33006 0.0
C361 C 0.57788 0.24791 0.30334 0.0
O362 O 0.58436 0.23496 0.31128 0.0
C363 C 0.62307 0.29452 0.32169 0.0
Zn364 Zn 0.72911 0.62103 0.37622 0.0
Zn365 Zn 0.73704 0.60098 0.34283 0.0
O366 O 0.73229 0.58691 0.37158 0.0
O367 O 0.72289 0.60346 0.39767 0.0
O368 O 0.74211 0.58481 0.31821 0.0
O369 O 0.71298 0.63094 0.35548 0.0
O370 O 0.71842 0.61339 0.32839 0.0
C371 C 0.72625 0.58958 0.39161 0.0
C372 C 0.76119 0.6246 0.36064 0.0
O373 O 0.75732 0.61401 0.34596 0.0
O374 O 0.7514 0.62917 0.37592 0.0
C375 C 0.75305 0.57499 0.322 0.0
O376 O 0.76121 0.57612 0.34147 0.0
C377 C 0.71041 0.62515 0.33543 0.0
Zn378 Zn 0.37867 0.72467 0.36823 0.0
Zn379 Zn 0.40013 0.73561 0.33894 0.0
O380 O 0.4123 0.73209 0.37002 0.0
O381 O 0.39469 0.72136 0.39327 0.0
O382 O 0.41772 0.74121 0.31682 0.0
O383 O 0.37308 0.70675 0.34727 0.0
O384 O 0.39066 0.71597 0.32263 0.0
C385 C 0.40859 0.72596 0.38963 0.0
C386 C 0.37215 0.75621 0.35082 0.0
O387 O 0.38486 0.75449 0.33926 0.0
O388 O 0.36748 0.7454 0.3644 0.0
C389 C 0.42465 0.75439 0.31557 0.0
O390 O 0.41982 0.76605 0.3288 0.0
C391 C 0.38021 0.70582 0.32789 0.0
Zn392 Zn 0.26989 0.61901 0.12493 0.0
Zn393 Zn 0.26135 0.5967 0.15489 0.0
O394 O 0.26652 0.58486 0.12413 0.0
O395 O 0.2756 0.60316 0.10053 0.0
O396 O 0.25637 0.57842 0.17598 0.0
O397 O 0.28666 0.62639 0.14682 0.0
O398 O 0.28002 0.60769 0.17155 0.0
C399 C 0.27246 0.58891 0.10456 0.0
C400 C 0.23765 0.62179 0.14081 0.0
O401 O 0.24109 0.60997 0.1535 0.0
O402 O 0.24777 0.62751 0.12695 0.0
C403 C 0.24695 0.57817 0.19325 0.0
O404 O 0.23938 0.59101 0.1991 0.0
C405 C 0.28878 0.61927 0.16601 0.0
Zn406 Zn 0.37113 0.26383 0.15004 0.0
Zn407 Zn 0.39891 0.26173 0.17051 0.0
O408 O 0.40465 0.26056 0.13541 0.0
O409 O 0.38134 0.25961 0.11885 0.0
O410 O 0.42002 0.26076 0.18629 0.0
O411 O 0.3681 0.28585 0.16184 0.0
O412 O 0.38975 0.2828 0.18231 0.0
C413 C 0.39615 0.25916 0.11718 0.0
C414 C 0.37313 0.23773 0.18155 0.0
O415 O 0.38742 0.24203 0.18289 0.0
O416 O 0.36347 0.24563 0.1695 0.0
C417 C 0.42756 0.24792 0.18781 0.0
O418 O 0.42138 0.23508 0.179 0.0
C419 C 0.37777 0.29098 0.17681 0.0
Zn420 Zn 0.73559 0.38022 0.14322 0.0
Zn421 Zn 0.74313 0.40546 0.16738 0.0
O422 O 0.74211 0.4138 0.1333 0.0
O423 O 0.7389 0.392 0.11315 0.0
O424 O 0.74742 0.42486 0.18656 0.0
O425 O 0.71429 0.37886 0.15831 0.0
O426 O 0.72217 0.39777 0.18172 0.0
C427 C 0.74104 0.40669 0.11372 0.0
C428 C 0.76389 0.37629 0.17003 0.0
O429 O 0.76204 0.39087 0.17432 0.0
O430 O 0.75377 0.36893 0.15808 0.0
C431 C 0.75645 0.43589 0.17994 0.0
O432 O 0.76381 0.43465 0.1598 0.0
C433 C 0.71192 0.38758 0.17591 0.0
Zn434 Zn 0.61826 0.73571 0.13256 0.0
Zn435 Zn 0.59539 0.74195 0.16207 0.0
O436 O 0.58409 0.73545 0.1314 0.0
O437 O 0.60329 0.72673 0.10914 0.0
O438 O 0.57687 0.74524 0.18364 0.0
O439 O 0.62866 0.72152 0.15574 0.0
O440 O 0.60826 0.7246 0.17896 0.0
C441 C 0.5888 0.72898 0.11254 0.0
C442 C 0.61762 0.76811 0.14656 0.0
O443 O 0.60689 0.76336 0.16044 0.0
O444 O 0.62372 0.75871 0.13198 0.0
C445 C 0.56993 0.75829 0.18674 0.0
O446 O 0.57534 0.77093 0.1763 0.0
C447 C 0.62147 0.71818 0.17448 0.0
C448 C 0.37816 0.21042 0.1963 0.0
C449 C 0.36775 0.22296 0.19249 0.0
C450 C 0.3724 0.19559 0.20258 0.0
C451 C 0.35444 0.16547 0.19133 0.0
H452 H 0.31612 0.15958 0.22696 0.0
C453 C 0.30248 0.13133 0.15797 0.0
C454 C 0.29241 0.12324 0.17321 0.0
C455 C 0.3157 0.13901 0.16653 0.0
C456 C 0.32704 0.16078 0.21741 0.0
H457 H 0.3434 0.23022 0.19429 0.0
H458 H 0.33341 0.2046 0.20527 0.0
H459 H 0.33216 0.18287 0.23362 0.0
H460 H 0.28863 0.11607 0.20917 0.0
H461 H 0.31173 0.13004 0.22446 0.0
H462 H 0.34878 0.14389 0.17407 0.0
C463 C 0.34599 0.20606 0.20344 0.0
C464 C 0.33616 0.1742 0.22107 0.0
C465 C 0.35169 0.22074 0.19689 0.0
C466 C 0.29627 0.12221 0.19708 0.0
C467 C 0.30942 0.13022 0.2058 0.0
C468 C 0.34531 0.15208 0.18764 0.0
C469 C 0.35618 0.19317 0.20554 0.0
C470 C 0.34945 0.17712 0.2071 0.0
C471 C 0.31905 0.13901 0.19063 0.0
C472 C 0.33106 0.15007 0.19968 0.0
H473 H 0.39061 0.21181 0.19306 0.0
H474 H 0.38054 0.18589 0.20417 0.0
H475 H 0.3646 0.16735 0.18026 0.0
H476 H 0.2998 0.13222 0.13946 0.0
H477 H 0.32271 0.14584 0.15441 0.0
C478 C 0.876 0.28895 0.17556 0.0
C479 C 0.86786 0.27543 0.16831 0.0
C480 C 0.8677 0.30236 0.18274 0.0
C481 C 0.82965 0.31495 0.20599 0.0
H482 H 0.83276 0.35193 0.16666 0.0
C483 C 0.77679 0.35132 0.18149 0.0
C484 C 0.7778 0.36764 0.17853 0.0
C485 C 0.79002 0.34255 0.18721 0.0
C486 C 0.83201 0.34191 0.17829 0.0
H487 H 0.84478 0.26512 0.16375 0.0
H488 H 0.83047 0.28818 0.17676 0.0
H489 H 0.85284 0.33143 0.164 0.0
H490 H 0.7934 0.3877 0.17999 0.0
H491 H 0.81688 0.37216 0.18962 0.0
H492 H 0.80843 0.3249 0.2194 0.0
C493 C 0.84318 0.28854 0.1767 0.0
C494 C 0.8435 0.33019 0.17674 0.0
C495 C 0.85139 0.27539 0.16906 0.0
C496 C 0.7923 0.37512 0.18222 0.0
C497 C 0.80571 0.36625 0.18763 0.0
C498 C 0.81827 0.32666 0.20765 0.0
C499 C 0.8512 0.30219 0.18343 0.0
C500 C 0.84195 0.31627 0.18973 0.0
C501 C 0.8047 0.34983 0.18992 0.0
C502 C 0.81886 0.33986 0.19291 0.0
H503 H 0.88871 0.28928 0.1751 0.0
H504 H 0.87411 0.31281 0.18775 0.0
H505 H 0.82831 0.30438 0.21636 0.0
H506 H 0.76577 0.34521 0.1789 0.0
H507 H 0.78886 0.32992 0.18845 0.0
C508 C 0.63193 0.79057 0.12864 0.0
C509 C 0.62383 0.7843 0.14792 0.0
C510 C 0.63975 0.80487 0.13043 0.0
C511 C 0.66036 0.82847 0.17344 0.0
H512 H 0.66545 0.85629 0.12018 0.0
C513 C 0.71116 0.87379 0.16698 0.0
C514 C 0.71992 0.87171 0.14631 0.0
C515 C 0.69634 0.86679 0.16935 0.0
C516 C 0.66406 0.84872 0.1353 0.0
H517 H 0.61694 0.78847 0.18394 0.0
H518 H 0.6309 0.81359 0.18722 0.0
H519 H 0.64397 0.83734 0.12057 0.0
H520 H 0.71972 0.86137 0.11158 0.0
H521 H 0.69398 0.84944 0.1156 0.0
H522 H 0.68094 0.83939 0.18762 0.0
C523 C 0.63113 0.80735 0.17069 0.0
C524 C 0.65178 0.83787 0.13552 0.0
C525 C 0.62308 0.79303 0.16879 0.0
C526 C 0.71332 0.86312 0.12778 0.0
C527 C 0.69848 0.85639 0.13 0.0
C528 C 0.67264 0.83939 0.17325 0.0
C529 C 0.63979 0.81325 0.15163 0.0
C530 C 0.65023 0.82714 0.15408 0.0
C531 C 0.68992 0.85793 0.15091 0.0
C532 C 0.67501 0.84913 0.15369 0.0
H533 H 0.63265 0.78416 0.11227 0.0
H534 H 0.64647 0.80893 0.1155 0.0
H535 H 0.65954 0.82031 0.18794 0.0
H536 H 0.71597 0.88034 0.18156 0.0
H537 H 0.68997 0.86815 0.18566 0.0
C538 C 0.21701 0.63906 0.12375 0.0
C539 C 0.22192 0.62915 0.142 0.0
C540 C 0.20266 0.64683 0.12497 0.0
C541 C 0.17493 0.66332 0.16642 0.0
H542 H 0.15016 0.66944 0.11015 0.0
C543 C 0.12531 0.71015 0.15938 0.0
C544 C 0.12755 0.72013 0.14003 0.0
C545 C 0.13378 0.69607 0.16118 0.0
C546 C 0.15687 0.66776 0.12607 0.0
H547 H 0.21545 0.61942 0.17575 0.0
H548 H 0.19024 0.63336 0.17807 0.0
H549 H 0.17079 0.64959 0.11064 0.0
H550 H 0.13987 0.72289 0.107 0.0
H551 H 0.15436 0.69846 0.11001 0.0
H552 H 0.16144 0.68206 0.18144 0.0
C553 C 0.19759 0.63497 0.16277 0.0
C554 C 0.16868 0.65642 0.12635 0.0
C555 C 0.21196 0.62696 0.1614 0.0
C556 C 0.13792 0.71551 0.12219 0.0
C557 C 0.14614 0.70142 0.12381 0.0
C558 C 0.16307 0.6747 0.16615 0.0
C559 C 0.19285 0.64503 0.14456 0.0
C560 C 0.17827 0.65453 0.14617 0.0
C561 C 0.14434 0.69163 0.14343 0.0
C562 C 0.15438 0.67747 0.14562 0.0
H563 H 0.22436 0.64097 0.10851 0.0
H564 H 0.19948 0.65469 0.11082 0.0
H565 H 0.18217 0.66217 0.18192 0.0
H566 H 0.11742 0.71344 0.17342 0.0
H567 H 0.13217 0.68873 0.17649 0.0
C568 C 0.26581 0.84493 0.35601 0.0
C569 C 0.26493 0.86002 0.34616 0.0
C570 C 0.27884 0.83543 0.35212 0.0
C571 C 0.32041 0.83478 0.33885 0.0
H572 H 0.31133 0.79122 0.3244 0.0
C573 C 0.36646 0.78286 0.33308 0.0
C574 C 0.36205 0.77025 0.34764 0.0
C575 C 0.35607 0.79541 0.3292 0.0
C576 C 0.31408 0.80337 0.32823 0.0
H577 H 0.27734 0.87711 0.3249 0.0
H578 H 0.30046 0.86035 0.31836 0.0
H579 H 0.29021 0.81049 0.32386 0.0
H580 H 0.34346 0.76127 0.37003 0.0
H581 H 0.32558 0.78283 0.36305 0.0
H582 H 0.34428 0.82733 0.34414 0.0
C583 C 0.29086 0.85597 0.32896 0.0
C584 C 0.302 0.81438 0.32796 0.0
C585 C 0.27764 0.86551 0.33266 0.0
C586 C 0.34728 0.77068 0.35861 0.0
C587 C 0.33695 0.78302 0.35454 0.0
C588 C 0.33259 0.82368 0.33909 0.0
C589 C 0.29143 0.84074 0.33839 0.0
C590 C 0.3049 0.83006 0.3342 0.0
C591 C 0.3411 0.79538 0.33955 0.0
C592 C 0.32935 0.80777 0.33468 0.0
H593 H 0.25631 0.84029 0.36656 0.0
H594 H 0.27907 0.82385 0.35997 0.0
H595 H 0.32294 0.8468 0.34372 0.0
H596 H 0.37777 0.7829 0.32443 0.0
H597 H 0.35954 0.80488 0.31763 0.0
C598 C 0.2222 0.35901 0.36735 0.0
C599 C 0.22577 0.37035 0.3503 0.0
C600 C 0.20861 0.34998 0.36564 0.0
C601 C 0.18122 0.33373 0.32326 0.0
H602 H 0.15802 0.32264 0.37937 0.0
C603 C 0.13344 0.28475 0.32523 0.0
C604 C 0.13582 0.27381 0.34336 0.0
C605 C 0.14173 0.29898 0.32501 0.0
C606 C 0.16434 0.32566 0.36352 0.0
H607 H 0.2177 0.38128 0.31817 0.0
H608 H 0.19386 0.36521 0.315 0.0
H609 H 0.17751 0.34357 0.38091 0.0
H610 H 0.14841 0.26946 0.37577 0.0
H611 H 0.16267 0.29408 0.37542 0.0
H612 H 0.16844 0.31532 0.30614 0.0
C613 C 0.20167 0.36342 0.32973 0.0
C614 C 0.17549 0.33764 0.3644 0.0
C615 C 0.21525 0.37264 0.3316 0.0
C616 C 0.14632 0.27757 0.36149 0.0
C617 C 0.15441 0.29177 0.36141 0.0
C618 C 0.17002 0.32169 0.32238 0.0
C619 C 0.19825 0.35197 0.34674 0.0
C620 C 0.18446 0.34141 0.34452 0.0
C621 C 0.15232 0.3026 0.34312 0.0
C622 C 0.1619 0.31716 0.34274 0.0
H623 H 0.23 0.35696 0.38202 0.0
H624 H 0.20646 0.3411 0.37883 0.0
H625 H 0.18799 0.33633 0.30768 0.0
H626 H 0.12544 0.28218 0.311 0.0
H627 H 0.13988 0.30713 0.31071 0.0
C628 C 0.71567 0.12818 0.3093 0.0
C629 C 0.72945 0.1361 0.31595 0.0
C630 C 0.7026 0.13667 0.30128 0.0
C631 C 0.69108 0.17479 0.27623 0.0
H632 H 0.6544 0.17312 0.31637 0.0
C633 C 0.65711 0.22886 0.30246 0.0
C634 C 0.64088 0.22834 0.30664 0.0
C635 C 0.6652 0.21542 0.29564 0.0
C636 C 0.66431 0.17348 0.30449 0.0
H637 H 0.74067 0.15888 0.31837 0.0
H638 H 0.71821 0.17352 0.30395 0.0
H639 H 0.6742 0.15242 0.31886 0.0
H640 H 0.62024 0.21349 0.30596 0.0
H641 H 0.63458 0.18968 0.29438 0.0
H642 H 0.68174 0.19629 0.26284 0.0
C643 C 0.71736 0.16085 0.30507 0.0
C644 C 0.67565 0.16162 0.30594 0.0
C645 C 0.73017 0.15248 0.31355 0.0
C646 C 0.63275 0.21421 0.30278 0.0
C647 C 0.64095 0.20061 0.29627 0.0
C648 C 0.67974 0.18656 0.27469 0.0
C649 C 0.70338 0.1531 0.29915 0.0
C650 C 0.68951 0.16265 0.29271 0.0
C651 C 0.65732 0.20104 0.29306 0.0
C652 C 0.66668 0.1865 0.28974 0.0
H653 H 0.71484 0.11555 0.31104 0.0
H654 H 0.6919 0.13047 0.29693 0.0
H655 H 0.7016 0.17574 0.26565 0.0
H656 H 0.66367 0.2396 0.30519 0.0
H657 H 0.67783 0.21615 0.29367 0.0
C658 C 0.78672 0.63034 0.34007 0.0
C659 C 0.77685 0.63214 0.35965 0.0
C660 C 0.8009 0.63864 0.33864 0.0
C661 C 0.82932 0.66132 0.37463 0.0
H662 H 0.83626 0.6854 0.31791 0.0
C663 C 0.86103 0.72029 0.37421 0.0
C664 C 0.8712 0.72412 0.35569 0.0
C665 C 0.85246 0.70636 0.37386 0.0
C666 C 0.8347 0.67852 0.3337 0.0
H667 H 0.77444 0.64355 0.39346 0.0
H668 H 0.79893 0.65792 0.39095 0.0
H669 H 0.81575 0.66537 0.31876 0.0
H670 H 0.88061 0.71613 0.32245 0.0
H671 H 0.86534 0.69172 0.32169 0.0
H672 H 0.84775 0.67497 0.38991 0.0
C673 C 0.79586 0.65008 0.37674 0.0
C674 C 0.82296 0.66703 0.33418 0.0
C675 C 0.78171 0.64192 0.37808 0.0
C676 C 0.87287 0.71349 0.33699 0.0
C677 C 0.8641 0.69958 0.3365 0.0
C678 C 0.84099 0.67281 0.37417 0.0
C679 C 0.80553 0.64872 0.3569 0.0
C680 C 0.81978 0.65871 0.35493 0.0
C681 C 0.85374 0.69593 0.35489 0.0
C682 C 0.84344 0.6819 0.35396 0.0
H683 H 0.7833 0.62288 0.32558 0.0
H684 H 0.80815 0.6373 0.32318 0.0
H685 H 0.82738 0.65487 0.39073 0.0
H686 H 0.8595 0.72818 0.38892 0.0
H687 H 0.84441 0.704 0.38813 0.0
C688 C 0.71407 0.86052 0.87089 0.0
C689 C 0.71996 0.8692 0.8519 0.0
C690 C 0.69975 0.85272 0.86918 0.0
C691 C 0.67481 0.83352 0.82636 0.0
H692 H 0.64782 0.82821 0.88054 0.0
C693 C 0.62751 0.78438 0.83267 0.0
C694 C 0.62963 0.77512 0.85282 0.0
C695 C 0.63516 0.7989 0.83056 0.0
C696 C 0.65515 0.82967 0.86517 0.0
H697 H 0.71518 0.87697 0.81645 0.0
H698 H 0.69003 0.86302 0.81333 0.0
H699 H 0.66742 0.84908 0.8803 0.0
H700 H 0.64081 0.7741 0.88693 0.0
H701 H 0.65385 0.79933 0.8834 0.0
H702 H 0.66294 0.8136 0.81173 0.0
C703 C 0.69658 0.86235 0.82956 0.0
C704 C 0.66638 0.8416 0.86504 0.0
C705 C 0.71091 0.87038 0.83138 0.0
C706 C 0.639 0.78091 0.87113 0.0
C707 C 0.64637 0.79544 0.86919 0.0
C708 C 0.6635 0.82159 0.82647 0.0
C709 C 0.69096 0.85327 0.84838 0.0
C710 C 0.6768 0.8432 0.84609 0.0
C711 C 0.64474 0.80451 0.84879 0.0
C712 C 0.65404 0.81914 0.84632 0.0
H713 H 0.72071 0.85944 0.88699 0.0
H714 H 0.69592 0.84565 0.88389 0.0
H715 H 0.68271 0.8344 0.81155 0.0
H716 H 0.62038 0.7802 0.81827 0.0
H717 H 0.63371 0.80567 0.81464 0.0
C718 C 0.13609 0.7177 0.86201 0.0
C719 C 0.12666 0.72261 0.84322 0.0
C720 C 0.14348 0.70312 0.86153 0.0
C721 C 0.16044 0.67501 0.82156 0.0
H722 H 0.16429 0.64996 0.87801 0.0
C723 C 0.2074 0.62618 0.83076 0.0
C724 C 0.21648 0.62796 0.85116 0.0
C725 C 0.19316 0.63428 0.82831 0.0
C726 C 0.16327 0.65676 0.86205 0.0
H727 H 0.11729 0.71594 0.80934 0.0
H728 H 0.13065 0.69038 0.80826 0.0
H729 H 0.14484 0.67093 0.87625 0.0
H730 H 0.21733 0.63891 0.88546 0.0
H731 H 0.19272 0.65288 0.88125 0.0
H732 H 0.17952 0.66144 0.80787 0.0
C733 C 0.13214 0.69787 0.82342 0.0
C734 C 0.15213 0.66874 0.86103 0.0
C735 C 0.12449 0.71245 0.82408 0.0
C736 C 0.21068 0.63734 0.86946 0.0
C737 C 0.19646 0.64526 0.86713 0.0
C738 C 0.17167 0.66304 0.82261 0.0
C739 C 0.14177 0.69313 0.84214 0.0
C740 C 0.15103 0.6784 0.84115 0.0
C741 C 0.18767 0.64409 0.84638 0.0
C742 C 0.17363 0.65423 0.84324 0.0
H743 H 0.13793 0.72521 0.87707 0.0
H744 H 0.151 0.6999 0.87606 0.0
H745 H 0.15989 0.68232 0.80605 0.0
H746 H 0.21157 0.61903 0.81635 0.0
H747 H 0.1866 0.6331 0.81216 0.0
C748 C 0.3653 0.20985 0.80883 0.0
C749 C 0.35763 0.22431 0.81187 0.0
C750 C 0.35664 0.19634 0.80316 0.0
C751 C 0.31711 0.18313 0.78306 0.0
H752 H 0.32226 0.14953 0.82825 0.0
C753 C 0.26644 0.15066 0.82491 0.0
C754 C 0.26623 0.13418 0.82496 0.0
C755 C 0.27957 0.1588 0.81695 0.0
C756 C 0.32091 0.1586 0.81511 0.0
H757 H 0.33523 0.23627 0.80975 0.0
H758 H 0.32029 0.21304 0.79978 0.0
H759 H 0.34264 0.16962 0.82442 0.0
H760 H 0.27964 0.11327 0.81678 0.0
H761 H 0.30313 0.12774 0.80364 0.0
H762 H 0.29477 0.17287 0.77527 0.0
C763 C 0.33289 0.21192 0.80171 0.0
C764 C 0.33258 0.17009 0.81285 0.0
C765 C 0.34144 0.22526 0.80765 0.0
C766 C 0.27951 0.12598 0.81688 0.0
C767 C 0.29289 0.1342 0.8094 0.0
C768 C 0.30543 0.17177 0.78548 0.0
C769 C 0.34027 0.19722 0.80001 0.0
C770 C 0.3304 0.18292 0.79765 0.0
C771 C 0.29293 0.15069 0.80925 0.0
C772 C 0.30692 0.15984 0.80227 0.0
H773 H 0.37778 0.2088 0.81207 0.0
H774 H 0.36265 0.18518 0.80191 0.0
H775 H 0.31524 0.19269 0.77086 0.0
H776 H 0.25637 0.15732 0.83086 0.0
H777 H 0.2794 0.17152 0.81728 0.0
C778 C 0.87129 0.28885 0.81765 0.0
C779 C 0.8705 0.28064 0.839 0.0
C780 C 0.86319 0.30309 0.81489 0.0
C781 C 0.84359 0.33479 0.84863 0.0
H782 H 0.81344 0.33583 0.79778 0.0
C783 C 0.78285 0.36122 0.85816 0.0
C784 C 0.77624 0.37012 0.83996 0.0
C785 C 0.79738 0.35398 0.85531 0.0
C786 C 0.82203 0.33595 0.81176 0.0
H787 H 0.86137 0.28126 0.87447 0.0
H788 H 0.84753 0.30591 0.86977 0.0
H789 H 0.83439 0.31618 0.79756 0.0
H790 H 0.7798 0.37863 0.80456 0.0
H791 H 0.80526 0.36546 0.79931 0.0
H792 H 0.83068 0.35386 0.86358 0.0
C793 C 0.85431 0.30148 0.85513 0.0
C794 C 0.83404 0.32471 0.81162 0.0
C795 C 0.86213 0.28725 0.85776 0.0
C796 C 0.78465 0.37186 0.8189 0.0
C797 C 0.79915 0.36432 0.81587 0.0
C798 C 0.83161 0.34594 0.84879 0.0
C799 C 0.8545 0.30945 0.83358 0.0
C800 C 0.84447 0.32357 0.83063 0.0
C801 C 0.80561 0.35527 0.83408 0.0
C802 C 0.82029 0.34617 0.83091 0.0
H803 H 0.87763 0.284 0.80289 0.0
H804 H 0.86353 0.30899 0.79809 0.0
H805 H 0.85165 0.33437 0.86328 0.0
H806 H 0.77671 0.35972 0.87464 0.0
H807 H 0.80194 0.3469 0.86953 0.0
C808 C 0.64694 0.22087 0.69627 0.0
C809 C 0.63123 0.22076 0.68895 0.0
C810 C 0.65422 0.20708 0.70351 0.0
C811 C 0.65362 0.16587 0.68962 0.0
H812 H 0.68868 0.166 0.73292 0.0
C813 C 0.70642 0.12233 0.68387 0.0
C814 C 0.71992 0.1312 0.67882 0.0
C815 C 0.69279 0.12976 0.69218 0.0
C816 C 0.67873 0.16559 0.72111 0.0
H817 H 0.61048 0.20637 0.68466 0.0
H818 H 0.62342 0.1819 0.69696 0.0
H819 H 0.66835 0.18606 0.73628 0.0
H820 H 0.7301 0.15451 0.67959 0.0
H821 H 0.70667 0.1673 0.69465 0.0
H822 H 0.66465 0.14595 0.67355 0.0
C823 C 0.63002 0.19276 0.69723 0.0
C824 C 0.66714 0.17709 0.72295 0.0
C825 C 0.62261 0.20673 0.69032 0.0
C826 C 0.71982 0.14741 0.68318 0.0
C827 C 0.70646 0.1547 0.692 0.0
C828 C 0.66519 0.15426 0.6879 0.0
C829 C 0.64603 0.19276 0.70334 0.0
C830 C 0.655 0.17794 0.70632 0.0
C831 C 0.69275 0.14604 0.69625 0.0
C832 C 0.6783 0.15461 0.70278 0.0
H833 H 0.65383 0.23154 0.69546 0.0
H834 H 0.6666 0.20751 0.70774 0.0
H835 H 0.64446 0.16622 0.67649 0.0
H836 H 0.70623 0.10981 0.6806 0.0
H837 H 0.68229 0.12289 0.69518 0.0
C838 C 0.77332 0.6449 0.62478 0.0
C839 C 0.77139 0.63249 0.64075 0.0
C840 C 0.7861 0.655 0.62651 0.0
C841 C 0.82583 0.66036 0.64977 0.0
H842 H 0.81512 0.70428 0.64178 0.0
C843 C 0.86909 0.71455 0.65512 0.0
C844 C 0.86728 0.72507 0.63628 0.0
C845 C 0.85876 0.70182 0.65778 0.0
C846 C 0.8183 0.69206 0.64405 0.0
H847 H 0.78183 0.62058 0.6705 0.0
H848 H 0.80437 0.63847 0.67353 0.0
H849 H 0.79437 0.68472 0.64301 0.0
H850 H 0.85389 0.72982 0.60468 0.0
H851 H 0.83605 0.70789 0.60944 0.0
H852 H 0.84993 0.66796 0.6505 0.0
C853 C 0.79586 0.64026 0.6597 0.0
C854 C 0.80644 0.68085 0.6447 0.0
C855 C 0.78296 0.63007 0.65798 0.0
C856 C 0.85553 0.72212 0.61958 0.0
C857 C 0.84525 0.70956 0.6223 0.0
C858 C 0.8378 0.67168 0.6492 0.0
C859 C 0.79733 0.65305 0.64428 0.0
C860 C 0.81006 0.66483 0.64679 0.0
C861 C 0.84645 0.69955 0.64174 0.0
C862 C 0.83411 0.68758 0.64559 0.0
H863 H 0.76479 0.64703 0.61108 0.0
H864 H 0.78711 0.66452 0.614 0.0
H865 H 0.82895 0.64809 0.65146 0.0
H866 H 0.87806 0.71647 0.66824 0.0
H867 H 0.85993 0.69421 0.67288 0.0
C868 C 0.29245 0.86194 0.63928 0.0
C869 C 0.28457 0.86971 0.65749 0.0
C870 C 0.3071 0.85522 0.64303 0.0
C871 C 0.32952 0.83541 0.68669 0.0
H872 H 0.36132 0.83659 0.63804 0.0
C873 C 0.37683 0.78692 0.67707 0.0
C874 C 0.37603 0.78012 0.65465 0.0
C875 C 0.36962 0.80142 0.68147 0.0
C876 C 0.35268 0.83626 0.65197 0.0
H877 H 0.28596 0.8769 0.69383 0.0
H878 H 0.3117 0.86447 0.70073 0.0
H879 H 0.34084 0.85661 0.63891 0.0
H880 H 0.36791 0.7835 0.61902 0.0
H881 H 0.35562 0.80871 0.62654 0.0
H882 H 0.34073 0.81437 0.6987 0.0
C883 C 0.30648 0.86388 0.68345 0.0
C884 C 0.341 0.84773 0.6525 0.0
C885 C 0.29183 0.87097 0.67952 0.0
C886 C 0.36865 0.78841 0.6365 0.0
C887 C 0.36172 0.80293 0.64077 0.0
C888 C 0.34124 0.8239 0.68615 0.0
C889 C 0.31419 0.85589 0.66519 0.0
C890 C 0.32884 0.84691 0.66908 0.0
C891 C 0.36183 0.80946 0.66337 0.0
C892 C 0.35242 0.82377 0.66801 0.0
H893 H 0.2872 0.86089 0.62206 0.0
H894 H 0.31262 0.84893 0.62873 0.0
H895 H 0.32024 0.83448 0.6996 0.0
H896 H 0.38243 0.78075 0.6914 0.0
H897 H 0.36985 0.80619 0.69905 0.0
C898 C 0.13838 0.28318 0.62037 0.0
C899 C 0.12827 0.27787 0.63813 0.0
C900 C 0.14654 0.29724 0.62281 0.0
C901 C 0.16347 0.32291 0.66689 0.0
H902 H 0.17151 0.34915 0.61266 0.0
C903 C 0.21143 0.37184 0.6649 0.0
C904 C 0.22176 0.37004 0.64585 0.0
C905 C 0.19729 0.3634 0.6657 0.0
C906 C 0.1693 0.34201 0.62802 0.0
H907 H 0.11847 0.2834 0.67221 0.0
H908 H 0.13306 0.30812 0.67664 0.0
H909 H 0.15093 0.3293 0.61097 0.0
H910 H 0.22513 0.35838 0.61242 0.0
H911 H 0.20059 0.34395 0.6137 0.0
H912 H 0.18236 0.33527 0.68356 0.0
C913 C 0.13456 0.30129 0.6608 0.0
C914 C 0.15753 0.33064 0.62705 0.0
C915 C 0.12618 0.28721 0.65821 0.0
C916 C 0.21749 0.36 0.6274 0.0
C917 C 0.20334 0.35182 0.62803 0.0
C918 C 0.17526 0.33436 0.66788 0.0
C919 C 0.14492 0.30638 0.64314 0.0
C920 C 0.15493 0.32052 0.64612 0.0
C921 C 0.19314 0.3533 0.64724 0.0
C922 C 0.1787 0.34357 0.6481 0.0
H923 H 0.14022 0.27632 0.60462 0.0
H924 H 0.1546 0.30067 0.60904 0.0
H925 H 0.16178 0.31525 0.68183 0.0
H926 H 0.21443 0.37947 0.6794 0.0
H927 H 0.18963 0.36475 0.68072 0.0
C928 C 0.23941 0.06802 0.08608 0.0
C929 C 0.24875 0.08155 0.08794 0.0
C930 C 0.23729 0.06079 0.06423 0.0
C931 C 0.22442 0.06123 0.01391 0.0
H932 H 0.25659 0.06197 0.96583 0.0
C933 C 0.21596 0.08997 0.92612 0.0
C934 C 0.22417 0.08496 0.90615 0.0
C935 C 0.2175 0.08198 0.94728 0.0
C936 C 0.24743 0.06122 0.97895 0.0
H937 H 0.26424 0.09732 0.06921 0.0
H938 H 0.26083 0.08469 0.03148 0.0
H939 H 0.26415 0.06075 0.00693 0.0
H940 H 0.23968 0.06707 0.89224 0.0
H941 H 0.24267 0.0532 0.92965 0.0
H942 H 0.20773 0.06277 0.98598 0.0
C943 C 0.25505 0.07961 0.0466 0.0
C944 C 0.25178 0.06064 0.00253 0.0
C945 C 0.25688 0.08697 0.06817 0.0
C946 C 0.23325 0.07121 0.90741 0.0
C947 C 0.23498 0.0633 0.92878 0.0
C948 C 0.22007 0.06181 0.99032 0.0
C949 C 0.24482 0.06678 0.04416 0.0
C950 C 0.24035 0.06168 0.02023 0.0
C951 C 0.22742 0.06886 0.94908 0.0
C952 C 0.23156 0.06285 0.9727 0.0
H953 H 0.233 0.06366 0.10114 0.0
H954 H 0.22932 0.05093 0.06282 0.0
H955 H 0.21532 0.06201 0.02713 0.0
H956 H 0.20875 0.10044 0.92563 0.0
H957 H 0.21169 0.08674 0.96259 0.0
C958 C 0.91693 0.21665 0.91758 0.0
C959 C 0.91963 0.22877 0.90146 0.0
C960 C 0.92482 0.2164 0.93892 0.0
C961 C 0.9382 0.24445 0.98123 0.0
H962 H 0.94438 0.20635 0.01722 0.0
C963 C 0.92891 0.24218 0.08159 0.0
C964 C 0.9163 0.23195 0.08594 0.0
C965 C 0.93683 0.24165 0.06004 0.0
C966 C 0.94306 0.21716 0.0074 0.0
H967 H 0.93344 0.24954 0.89413 0.0
H968 H 0.9471 0.24933 0.93204 0.0
H969 H 0.9459 0.20543 0.97452 0.0
H970 H 0.90272 0.21255 0.07209 0.0
H971 H 0.91669 0.21137 0.035 0.0
H972 H 0.9342 0.2559 0.0141 0.0
C973 C 0.93896 0.23995 0.92799 0.0
C974 C 0.94389 0.21663 0.98298 0.0
C975 C 0.93121 0.24005 0.90631 0.0
C976 C 0.91233 0.22065 0.0691 0.0
C977 C 0.92044 0.21986 0.04797 0.0
C978 C 0.93748 0.24499 0.0057 0.0
C979 C 0.93543 0.2284 0.94481 0.0
C980 C 0.94038 0.23005 0.96963 0.0
C981 C 0.93253 0.23056 0.04297 0.0
C982 C 0.93887 0.23113 0.01885 0.0
H983 H 0.9081 0.20779 0.91418 0.0
H984 H 0.92163 0.20744 0.95152 0.0
H985 H 0.93542 0.25499 0.97148 0.0
H986 H 0.93214 0.25101 0.09435 0.0
H987 H 0.94603 0.2501 0.05648 0.0
C988 C 0.78854 0.9154 0.9225 0.0
C989 C 0.77632 0.9183 0.90664 0.0
C990 C 0.78994 0.92429 0.94286 0.0
C991 C 0.79208 0.94555 0.98472 0.0
H992 H 0.75299 0.93933 0.01819 0.0
C993 C 0.76583 0.93201 0.08347 0.0
C994 C 0.77594 0.91931 0.08777 0.0
C995 C 0.76714 0.94058 0.06258 0.0
C996 C 0.76391 0.94171 0.00916 0.0
H997 H 0.75662 0.93346 0.89865 0.0
H998 H 0.7588 0.94885 0.93488 0.0
H999 H 0.75307 0.93903 0.97564 0.0
H1000 H 0.7962 0.90655 0.07505 0.0
H1001 H 0.79868 0.92151 0.03908 0.0
H1002 H 0.80311 0.94681 0.01838 0.0
C1003 C 0.76738 0.93978 0.93135 0.0
C1004 C 0.76397 0.94154 0.98468 0.0
C1005 C 0.76616 0.93101 0.91065 0.0
C1006 C 0.7882 0.91623 0.07204 0.0
C1007 C 0.7897 0.92494 0.05152 0.0
C1008 C 0.79203 0.94573 0.0092 0.0
C1009 C 0.77899 0.93614 0.94802 0.0
C1010 C 0.77821 0.94233 0.9723 0.0
C1011 C 0.7788 0.93676 0.04605 0.0
C1012 C 0.77811 0.94268 0.02162 0.0
H1013 H 0.79659 0.90574 0.91972 0.0
H1014 H 0.79889 0.92102 0.95542 0.0
H1015 H 0.8032 0.94651 0.9756 0.0
H1016 H 0.75626 0.93457 0.09538 0.0
H1017 H 0.75858 0.94963 0.0588 0.0
C1018 C 0.08027 0.78944 0.91452 0.0
C1019 C 0.07722 0.77744 0.89834 0.0
C1020 C 0.07181 0.79035 0.93535 0.0
C1021 C 0.0556 0.7634 0.9769 0.0
H1022 H 0.05033 0.80184 0.01239 0.0
C1023 C 0.06477 0.76364 0.07611 0.0
C1024 C 0.07723 0.77388 0.08125 0.0
C1025 C 0.05654 0.76511 0.05495 0.0
C1026 C 0.05145 0.79096 0.00271 0.0
H1027 H 0.06219 0.75764 0.89035 0.0
H1028 H 0.04753 0.75899 0.92734 0.0
H1029 H 0.05021 0.80275 0.96963 0.0
H1030 H 0.08994 0.79447 0.06956 0.0
H1031 H 0.07561 0.79717 0.03307 0.0
H1032 H 0.05818 0.75181 0.00989 0.0
C1033 C 0.05641 0.76776 0.92372 0.0
C1034 C 0.05138 0.79148 0.97825 0.0
C1035 C 0.06475 0.76702 0.90258 0.0
C1036 C 0.08047 0.78633 0.06592 0.0
C1037 C 0.07212 0.78797 0.04511 0.0
C1038 C 0.05566 0.76288 0.00137 0.0
C1039 C 0.06024 0.77913 0.94065 0.0
C1040 C 0.05453 0.77787 0.96516 0.0
C1041 C 0.06046 0.77705 0.03895 0.0
C1042 C 0.05466 0.77682 0.01445 0.0
H1043 H 0.08975 0.79769 0.91159 0.0
H1044 H 0.07521 0.79914 0.94809 0.0
H1045 H 0.05808 0.75271 0.96734 0.0
H1046 H 0.06205 0.75394 0.08769 0.0
H1047 H 0.04762 0.75654 0.05064 0.0
C1048 C 0.23049 0.93062 0.40924 0.0
C1049 C 0.22032 0.91764 0.40882 0.0
C1050 C 0.23184 0.93977 0.42956 0.0
C1051 C 0.21539 0.94455 0.4903 0.0
H1052 H 0.25911 0.94192 0.50844 0.0
C1053 C 0.24865 0.91293 0.5655 0.0
C1054 C 0.24053 0.91764 0.58566 0.0
C1055 C 0.24784 0.92178 0.54508 0.0
C1056 C 0.24686 0.94309 0.50364 0.0
H1057 H 0.20242 0.90507 0.42823 0.0
H1058 H 0.2048 0.92072 0.46334 0.0
H1059 H 0.25221 0.9418 0.46717 0.0
H1060 H 0.22589 0.93573 0.6009 0.0
H1061 H 0.22395 0.95115 0.56449 0.0
H1062 H 0.21001 0.94394 0.52689 0.0
C1063 C 0.21175 0.92404 0.44824 0.0
C1064 C 0.24288 0.94315 0.47991 0.0
C1065 C 0.21052 0.91487 0.42815 0.0
C1066 C 0.23224 0.93189 0.58548 0.0
C1067 C 0.23114 0.94067 0.56473 0.0
C1068 C 0.21937 0.94434 0.51406 0.0
C1069 C 0.22291 0.93617 0.44962 0.0
C1070 C 0.22705 0.9426 0.47306 0.0
C1071 C 0.23866 0.93547 0.54416 0.0
C1072 C 0.23509 0.94233 0.52086 0.0
H1073 H 0.23812 0.93308 0.39449 0.0
H1074 H 0.24046 0.94912 0.43 0.0
H1075 H 0.20309 0.94461 0.48553 0.0
H1076 H 0.25524 0.90205 0.56527 0.0
H1077 H 0.25355 0.91724 0.52953 0.0
C1078 C 0.08079 0.21304 0.5614 0.0
C1079 C 0.07814 0.22552 0.57693 0.0
C1080 C 0.0725 0.21205 0.54044 0.0
C1081 C 0.05818 0.23834 0.49684 0.0
H1082 H 0.05009 0.19916 0.4645 0.0
C1083 C 0.06901 0.23401 0.39859 0.0
C1084 C 0.08063 0.22259 0.39486 0.0
C1085 C 0.06007 0.23382 0.41923 0.0
C1086 C 0.05201 0.21027 0.47327 0.0
H1087 H 0.06407 0.24623 0.58353 0.0
H1088 H 0.0498 0.24478 0.54618 0.0
H1089 H 0.04981 0.19985 0.50727 0.0
H1090 H 0.09096 0.20119 0.40831 0.0
H1091 H 0.0754 0.20069 0.44387 0.0
H1092 H 0.06183 0.24846 0.46302 0.0
C1093 C 0.05817 0.23567 0.55049 0.0
C1094 C 0.05184 0.21066 0.49774 0.0
C1095 C 0.0663 0.23648 0.57182 0.0
C1096 C 0.08214 0.2102 0.41087 0.0
C1097 C 0.07309 0.20985 0.43118 0.0
C1098 C 0.0584 0.23794 0.47237 0.0
C1099 C 0.06153 0.22366 0.53432 0.0
C1100 C 0.05598 0.22446 0.50973 0.0
C1101 C 0.06245 0.22202 0.43613 0.0
C1102 C 0.0564 0.22365 0.46041 0.0
H1103 H 0.08979 0.20439 0.56502 0.0
H1104 H 0.07554 0.20278 0.52827 0.0
H1105 H 0.06143 0.24915 0.50557 0.0
H1106 H 0.06765 0.2437 0.38647 0.0
H1107 H 0.05192 0.24332 0.42255 0.0
C1108 C 0.77398 0.09226 0.57324 0.0
C1109 C 0.76287 0.08749 0.58991 0.0
C1110 C 0.77477 0.08492 0.55151 0.0
C1111 C 0.77794 0.06361 0.50966 0.0
H1112 H 0.74027 0.07199 0.4737 0.0
C1113 C 0.75749 0.07605 0.40768 0.0
C1114 C 0.76822 0.08831 0.40379 0.0
C1115 C 0.75677 0.06869 0.42966 0.0
C1116 C 0.75075 0.06904 0.48348 0.0
H1117 H 0.74412 0.07106 0.59737 0.0
H1118 H 0.74504 0.05852 0.55843 0.0
H1119 H 0.73904 0.07179 0.51649 0.0
H1120 H 0.78721 0.1018 0.41898 0.0
H1121 H 0.78623 0.08883 0.45681 0.0
H1122 H 0.78993 0.06223 0.47678 0.0
C1123 C 0.75334 0.06774 0.56259 0.0
C1124 C 0.75004 0.06892 0.50799 0.0
C1125 C 0.75282 0.07488 0.58475 0.0
C1126 C 0.77876 0.09245 0.42159 0.0
C1127 C 0.7783 0.0849 0.44318 0.0
C1128 C 0.77864 0.0637 0.48524 0.0
C1129 C 0.76427 0.07283 0.54574 0.0
C1130 C 0.76384 0.06723 0.52121 0.0
C1131 C 0.76709 0.0732 0.44766 0.0
C1132 C 0.76526 0.06745 0.47201 0.0
H1133 H 0.78191 0.1019 0.57687 0.0
H1134 H 0.78313 0.08927 0.53875 0.0
H1135 H 0.7887 0.0621 0.51951 0.0
H1136 H 0.74921 0.07271 0.39418 0.0
H1137 H 0.74795 0.05976 0.43277 0.0
C1138 C 0.93664 0.76355 0.58112 0.0
C1139 C 0.92533 0.77527 0.5849 0.0
C1140 C 0.94597 0.76387 0.56087 0.0
C1141 C 0.95555 0.78811 0.50803 0.0
H1142 H 0.94447 0.75035 0.474 0.0
C1143 C 0.92556 0.78837 0.42107 0.0
C1144 C 0.92688 0.7758 0.40534 0.0
C1145 C 0.93463 0.78878 0.44135 0.0
C1146 C 0.94821 0.76083 0.48318 0.0
H1147 H 0.91598 0.79728 0.57211 0.0
H1148 H 0.93223 0.79802 0.53724 0.0
H1149 H 0.94414 0.75017 0.5165 0.0
H1150 H 0.93955 0.75441 0.39741 0.0
H1151 H 0.95523 0.75488 0.43349 0.0
H1152 H 0.95816 0.79914 0.47453 0.0
C1153 C 0.934 0.78853 0.54958 0.0
C1154 C 0.94803 0.76073 0.50766 0.0
C1155 C 0.92455 0.78805 0.56947 0.0
C1156 C 0.93834 0.76424 0.4093 0.0
C1157 C 0.94727 0.76449 0.42993 0.0
C1158 C 0.95571 0.78822 0.48355 0.0
C1159 C 0.94429 0.77609 0.54445 0.0
C1160 C 0.95056 0.77468 0.52025 0.0
C1161 C 0.94506 0.77648 0.44656 0.0
C1162 C 0.95092 0.77489 0.47093 0.0
H1163 H 0.93743 0.75356 0.5928 0.0
H1164 H 0.95383 0.75416 0.55739 0.0
H1165 H 0.95789 0.79895 0.51731 0.0
H1166 H 0.91687 0.79748 0.41832 0.0
H1167 H 0.93247 0.79809 0.45386 0.0
C1168 C 0.71121 0.57371 0.57291 0.0
C1169 C 0.72405 0.57308 0.58821 0.0
C1170 C 0.71109 0.56481 0.55246 0.0
C1171 C 0.73949 0.55304 0.50969 0.0
H1172 H 0.70141 0.54295 0.47573 0.0
C1173 C 0.73584 0.56539 0.41195 0.0
C1174 C 0.72421 0.5769 0.40888 0.0
C1175 C 0.73571 0.55584 0.43196 0.0
C1176 C 0.71225 0.54538 0.48496 0.0
H1177 H 0.74629 0.56175 0.59529 0.0
H1178 H 0.74631 0.5463 0.55895 0.0
H1179 H 0.70154 0.54182 0.51848 0.0
H1180 H 0.70257 0.58643 0.42274 0.0
H1181 H 0.70212 0.56969 0.45717 0.0
H1182 H 0.74982 0.55788 0.47633 0.0
C1183 C 0.73627 0.55363 0.56292 0.0
C1184 C 0.71233 0.54476 0.50942 0.0
C1185 C 0.73624 0.56241 0.58371 0.0
C1186 C 0.7117 0.57768 0.42479 0.0
C1187 C 0.71139 0.56797 0.44442 0.0
C1188 C 0.73944 0.55359 0.48522 0.0
C1189 C 0.72396 0.55523 0.54664 0.0
C1190 C 0.7256 0.54974 0.52205 0.0
C1191 C 0.72377 0.55747 0.44881 0.0
C1192 C 0.72548 0.55089 0.47274 0.0
H1193 H 0.70161 0.58178 0.57609 0.0
H1194 H 0.7015 0.56652 0.54028 0.0
H1195 H 0.74993 0.55694 0.51882 0.0
H1196 H 0.74564 0.56462 0.39991 0.0
H1197 H 0.7454 0.54785 0.43492 0.0
C1198 C 0.43146 0.7361 0.41288 0.0
C1199 C 0.42012 0.72446 0.40874 0.0
C1200 C 0.44021 0.73594 0.4337 0.0
C1201 C 0.44871 0.71177 0.48693 0.0
H1202 H 0.43905 0.75002 0.52071 0.0
C1203 C 0.41967 0.71323 0.57487 0.0
C1204 C 0.42232 0.72544 0.59081 0.0
C1205 C 0.42815 0.71244 0.55404 0.0
C1206 C 0.44238 0.73939 0.51156 0.0
H1207 H 0.41002 0.70282 0.42178 0.0
H1208 H 0.42523 0.70241 0.45763 0.0
H1209 H 0.43841 0.74999 0.47813 0.0
H1210 H 0.43652 0.7459 0.5984 0.0
H1211 H 0.45112 0.74487 0.56125 0.0
H1212 H 0.45116 0.70083 0.52052 0.0
C1213 C 0.42748 0.7117 0.44511 0.0
C1214 C 0.44201 0.73937 0.48707 0.0
C1215 C 0.4186 0.71201 0.42466 0.0
C1216 C 0.43435 0.73631 0.58636 0.0
C1217 C 0.44265 0.73575 0.56514 0.0
C1218 C 0.44901 0.71177 0.5114 0.0
C1219 C 0.43795 0.72395 0.45035 0.0
C1220 C 0.4441 0.72529 0.4746 0.0
C1221 C 0.43926 0.72407 0.54848 0.0
C1222 C 0.44479 0.72533 0.52392 0.0
H1223 H 0.43283 0.74583 0.40083 0.0
H1224 H 0.44821 0.74553 0.43727 0.0
H1225 H 0.45071 0.70082 0.47775 0.0
H1226 H 0.41045 0.70471 0.57798 0.0
H1227 H 0.42509 0.70343 0.54147 0.0
C1228 C 0.28595 0.42516 0.42404 0.0
C1229 C 0.27344 0.42661 0.40824 0.0
C1230 C 0.28603 0.43366 0.44487 0.0
C1231 C 0.28505 0.45373 0.488 0.0
H1232 H 0.24697 0.44169 0.52055 0.0
C1233 C 0.26041 0.43578 0.58616 0.0
C1234 C 0.27199 0.42439 0.59043 0.0
C1235 C 0.26067 0.44449 0.56531 0.0
C1236 C 0.25753 0.44566 0.51179 0.0
H1237 H 0.25174 0.43888 0.40085 0.0
H1238 H 0.25163 0.45358 0.4379 0.0
H1239 H 0.24728 0.44233 0.47799 0.0
H1240 H 0.29362 0.41417 0.57761 0.0
H1241 H 0.29426 0.42943 0.5417 0.0
H1242 H 0.29567 0.45564 0.52187 0.0
C1243 C 0.26145 0.44595 0.43398 0.0
C1244 C 0.25771 0.44604 0.48731 0.0
C1245 C 0.26153 0.43759 0.4128 0.0
C1246 C 0.2845 0.42281 0.57464 0.0
C1247 C 0.28493 0.43168 0.55416 0.0
C1248 C 0.28488 0.45331 0.51247 0.0
C1249 C 0.27345 0.44363 0.45057 0.0
C1250 C 0.27177 0.44902 0.47519 0.0
C1251 C 0.27271 0.44216 0.54879 0.0
C1252 C 0.27142 0.44823 0.52451 0.0
H1253 H 0.29532 0.41683 0.42084 0.0
H1254 H 0.29535 0.4314 0.45731 0.0
H1255 H 0.29597 0.45639 0.47911 0.0
H1256 H 0.25062 0.43718 0.59809 0.0
H1257 H 0.2511 0.45248 0.5616 0.0
C1258 C 0.5783 0.25877 0.58412 0.0
C1259 C 0.59284 0.25209 0.59014 0.0
C1260 C 0.57254 0.25738 0.56117 0.0
C1261 C 0.57797 0.23509 0.50593 0.0
H1262 H 0.57366 0.27517 0.47441 0.0
C1263 C 0.60494 0.24822 0.41816 0.0
C1264 C 0.59687 0.25691 0.40112 0.0
C1265 C 0.59822 0.24549 0.44 0.0
C1266 C 0.57434 0.26384 0.48295 0.0
H1267 H 0.61223 0.23795 0.57754 0.0
H1268 H 0.60216 0.23531 0.53801 0.0
H1269 H 0.57269 0.27403 0.51721 0.0
H1270 H 0.57531 0.26931 0.39326 0.0
H1271 H 0.56369 0.26503 0.43232 0.0
H1272 H 0.58096 0.22509 0.47182 0.0
C1273 C 0.59519 0.24167 0.55074 0.0
C1274 C 0.57377 0.26318 0.50745 0.0
C1275 C 0.60105 0.24332 0.57334 0.0
C1276 C 0.58173 0.26254 0.40614 0.0
C1277 C 0.57511 0.26011 0.42838 0.0
C1278 C 0.57857 0.23576 0.48153 0.0
C1279 C 0.58106 0.24893 0.54422 0.0
C1280 C 0.57652 0.24892 0.51915 0.0
C1281 C 0.58338 0.25161 0.44551 0.0
C1282 C 0.57766 0.25026 0.46992 0.0
H1283 H 0.57177 0.26561 0.5968 0.0
H1284 H 0.56165 0.26314 0.55654 0.0
H1285 H 0.57986 0.22391 0.51452 0.0
H1286 H 0.61659 0.24367 0.4147 0.0
H1287 H 0.60497 0.23911 0.45298 0.0
C1288 C 0.73725 0.43021 0.90894 0.0
C1289 C 0.72621 0.41816 0.90563 0.0
C1290 C 0.73877 0.4374 0.93091 0.0
C1291 C 0.72105 0.43981 0.99076 0.0
H1292 H 0.76354 0.43176 0.01181 0.0
C1293 C 0.74894 0.40765 0.07193 0.0
C1294 C 0.74233 0.41527 0.09136 0.0
C1295 C 0.74881 0.41475 0.04996 0.0
C1296 C 0.75169 0.43442 0.00618 0.0
H1297 H 0.70706 0.40535 0.92169 0.0
H1298 H 0.70955 0.41791 0.95967 0.0
H1299 H 0.758 0.4331 0.97001 0.0
H1300 H 0.7309 0.4365 0.10337 0.0
H1301 H 0.73013 0.4488 0.06433 0.0
H1302 H 0.71458 0.43978 0.02704 0.0
C1303 C 0.7171 0.42184 0.94557 0.0
C1304 C 0.74852 0.4353 0.98222 0.0
C1305 C 0.71575 0.41452 0.92384 0.0
C1306 C 0.7361 0.43043 0.08861 0.0
C1307 C 0.73564 0.43743 0.06636 0.0
C1308 C 0.72425 0.43901 0.01476 0.0
C1309 C 0.72909 0.43283 0.9497 0.0
C1310 C 0.73301 0.43708 0.97425 0.0
C1311 C 0.74182 0.42952 0.04679 0.0
C1312 C 0.73944 0.43538 0.02261 0.0
H1313 H 0.74547 0.43323 0.89517 0.0
H1314 H 0.74806 0.4459 0.93356 0.0
H1315 H 0.70901 0.44139 0.98511 0.0
H1316 H 0.7539 0.396 0.0736 0.0
H1317 H 0.75345 0.40825 0.03517 0.0
C1318 C 0.58127 0.71235 0.07872 0.0
C1319 C 0.57774 0.72493 0.09364 0.0
C1320 C 0.57292 0.71019 0.05802 0.0
C1321 C 0.55621 0.73475 0.01385 0.0
H1322 H 0.55294 0.69474 0.98189 0.0
C1323 C 0.56756 0.73078 0.91542 0.0
C1324 C 0.58053 0.72086 0.91189 0.0
C1325 C 0.55886 0.72982 0.93622 0.0
C1326 C 0.55348 0.70603 0.99056 0.0
H1327 H 0.56198 0.74447 0.09964 0.0
H1328 H 0.5475 0.74094 0.06281 0.0
H1329 H 0.55208 0.69561 0.02463 0.0
H1330 H 0.59367 0.70128 0.92606 0.0
H1331 H 0.57851 0.69947 0.96195 0.0
H1332 H 0.55899 0.74503 0.97994 0.0
C1333 C 0.55667 0.73266 0.06733 0.0
C1334 C 0.55299 0.70654 0.01501 0.0
C1335 C 0.5649 0.73466 0.08839 0.0
C1336 C 0.58382 0.70916 0.92845 0.0
C1337 C 0.57499 0.70802 0.94892 0.0
C1338 C 0.55669 0.73424 0.98939 0.0
C1339 C 0.56098 0.72072 0.05156 0.0
C1340 C 0.55547 0.72077 0.0269 0.0
C1341 C 0.56281 0.71871 0.95348 0.0
C1342 C 0.55644 0.71976 0.97763 0.0
H1343 H 0.59106 0.70462 0.08248 0.0
H1344 H 0.57671 0.70099 0.0462 0.0
H1345 H 0.55817 0.7459 0.02246 0.0
H1346 H 0.5648 0.7399 0.90287 0.0
H1347 H 0.54952 0.7382 0.93929 0.0
C1348 C 0.28731 0.57987 0.06972 0.0
C1349 C 0.27512 0.57734 0.08579 0.0
C1350 C 0.28833 0.57091 0.04939 0.0
C1351 C 0.28954 0.54985 0.00735 0.0
H1352 H 0.25027 0.55729 0.97497 0.0
C1353 C 0.26266 0.56549 0.90982 0.0
C1354 C 0.27282 0.5782 0.90589 0.0
C1355 C 0.26406 0.55649 0.93027 0.0
C1356 C 0.26123 0.55457 0.98369 0.0
H1357 H 0.25509 0.56274 0.09422 0.0
H1358 H 0.25659 0.54722 0.05801 0.0
H1359 H 0.25076 0.55707 0.0175 0.0
H1360 H 0.29329 0.59055 0.91876 0.0
H1361 H 0.29593 0.57483 0.954 0.0
H1362 H 0.30022 0.54886 0.97342 0.0
C1363 C 0.26544 0.55606 0.06135 0.0
C1364 C 0.26151 0.55444 0.00816 0.0
C1365 C 0.2646 0.5649 0.08203 0.0
C1366 C 0.28523 0.58088 0.9215 0.0
C1367 C 0.28683 0.57174 0.94159 0.0
C1368 C 0.28926 0.55001 0.98289 0.0
C1369 C 0.27703 0.55935 0.04446 0.0
C1370 C 0.27586 0.55325 0.02018 0.0
C1371 C 0.27588 0.55989 0.94672 0.0
C1372 C 0.27529 0.55352 0.9709 0.0
H1373 H 0.29565 0.58931 0.07232 0.0
H1374 H 0.29728 0.57394 0.03667 0.0
H1375 H 0.30071 0.54857 0.01619 0.0
H1376 H 0.25297 0.56322 0.898 0.0
H1377 H 0.25546 0.54743 0.93382 0.0
C1378 C 0.39473 0.2454 0.92181 0.0
C1379 C 0.40255 0.25423 0.90467 0.0
C1380 C 0.40122 0.24349 0.94397 0.0
C1381 C 0.42364 0.26453 0.98634 0.0
H1382 H 0.41754 0.22603 0.02146 0.0
C1383 C 0.41817 0.26244 0.08813 0.0
C1384 C 0.40328 0.25645 0.09396 0.0
C1385 C 0.42414 0.26055 0.06538 0.0
C1386 C 0.41962 0.23681 0.01188 0.0
H1387 H 0.42352 0.26762 0.89688 0.0
H1388 H 0.43477 0.26472 0.93645 0.0
H1389 H 0.41772 0.22528 0.97871 0.0
H1390 H 0.38335 0.2432 0.08108 0.0
H1391 H 0.39385 0.23962 0.04187 0.0
H1392 H 0.42434 0.2762 0.01963 0.0
C1393 C 0.4237 0.25909 0.93239 0.0
C1394 C 0.41972 0.23638 0.98745 0.0
C1395 C 0.41731 0.26071 0.90985 0.0
C1396 C 0.3948 0.24804 0.07705 0.0
C1397 C 0.40088 0.24585 0.05466 0.0
C1398 C 0.42358 0.26495 0.01087 0.0
C1399 C 0.41559 0.25058 0.94971 0.0
C1400 C 0.42077 0.25036 0.97448 0.0
C1401 C 0.41549 0.25224 0.04847 0.0
C1402 C 0.42064 0.25121 0.02375 0.0
H1403 H 0.38336 0.24022 0.91822 0.0
H1404 H 0.39455 0.23709 0.95702 0.0
H1405 H 0.42442 0.27548 0.97677 0.0
H1406 H 0.42492 0.26899 0.10088 0.0
H1407 H 0.43539 0.26566 0.06093 0.0
C1408 C 0.27504 0.04379 0.20847 0.0
C1409 C 0.26137 0.05157 0.20109 0.0
C1410 C 0.27405 0.02968 0.22092 0.0
C1411 C 0.24618 0.00545 0.25565 0.0
H1412 H 0.27607 0.97213 0.24327 0.0
C1413 C 0.23715 0.94257 0.28979 0.0
C1414 C 0.25008 0.93542 0.30076 0.0
C1415 C 0.23898 0.95658 0.27739 0.0
C1416 C 0.26772 0.98138 0.24703 0.0
H1417 H 0.23592 0.05059 0.20088 0.0
H1418 H 0.2342 0.02588 0.22205 0.0
H1419 H 0.27834 0.99702 0.22232 0.0
H1420 H 0.27516 0.93716 0.30668 0.0
H1421 H 0.27836 0.96161 0.28472 0.0
H1422 H 0.23541 0.98968 0.28002 0.0
C1423 C 0.24571 0.0308 0.21872 0.0
C1424 C 0.26904 0.99567 0.2351 0.0
C1425 C 0.24669 0.04495 0.20644 0.0
C1426 C 0.26496 0.94238 0.29847 0.0
C1427 C 0.26682 0.95634 0.28584 0.0
C1428 C 0.24479 0.99114 0.26739 0.0
C1429 C 0.25937 0.02298 0.22615 0.0
C1430 C 0.25824 0.00787 0.23919 0.0
C1431 C 0.25379 0.96369 0.27547 0.0
C1432 C 0.2555 0.97893 0.26314 0.0
H1433 H 0.28653 0.04861 0.20471 0.0
H1434 H 0.28481 0.02412 0.22666 0.0
H1435 H 0.23785 0.01467 0.25965 0.0
H1436 H 0.22551 0.93753 0.29116 0.0
H1437 H 0.22876 0.96187 0.26931 0.0
C1438 C 0.94755 0.2697 0.213 0.0
C1439 C 0.94341 0.25617 0.20031 0.0
C1440 C 0.96228 0.27083 0.22373 0.0
C1441 C 0.0024 0.2549 0.22101 0.0
H1442 H 0.00546 0.26851 0.28565 0.0
C1443 C 0.0579 0.24462 0.27639 0.0
C1444 C 0.06208 0.25576 0.29344 0.0
C1445 C 0.04392 0.24614 0.26384 0.0
C1446 C 0.00488 0.26496 0.26746 0.0
H1447 H 0.9515 0.23325 0.18894 0.0
H1448 H 0.97713 0.23528 0.20758 0.0
H1449 H 0.97999 0.26845 0.26619 0.0
H1450 H 0.0551 0.27758 0.31002 0.0
H1451 H 0.03086 0.28043 0.28771 0.0
H1452 H 0.02724 0.25142 0.22216 0.0
C1453 C 0.96904 0.24503 0.20911 0.0
C1454 C 0.99026 0.26488 0.25634 0.0
C1455 C 0.9543 0.24383 0.19858 0.0
C1456 C 0.05219 0.26874 0.29711 0.0
C1457 C 0.03823 0.27031 0.28442 0.0
C1458 C 0.01703 0.25509 0.23204 0.0
C1459 C 0.9732 0.25854 0.22179 0.0
C1460 C 0.98883 0.25962 0.23312 0.0
C1461 C 0.0338 0.2589 0.26787 0.0
C1462 C 0.01843 0.25989 0.25553 0.0
H1463 H 0.93944 0.27941 0.21466 0.0
H1464 H 0.9652 0.28142 0.23329 0.0
H1465 H 0.00169 0.25104 0.20296 0.0
H1466 H 0.06522 0.23445 0.27318 0.0
H1467 H 0.04082 0.237 0.2515 0.0
C1468 C 0.76233 0.0504 0.28703 0.0
C1469 C 0.74858 0.05892 0.29181 0.0
C1470 C 0.76161 0.03609 0.27517 0.0
C1471 C 0.73424 0.00398 0.25896 0.0
H1472 H 0.76729 0.99349 0.21492 0.0
C1473 C 0.73234 0.95007 0.19657 0.0
C1474 C 0.74629 0.94135 0.1946 0.0
C1475 C 0.73209 0.96421 0.20903 0.0
C1476 C 0.75805 0.9962 0.22732 0.0
H1477 H 0.72328 0.05914 0.28769 0.0
H1478 H 0.72206 0.03432 0.26646 0.0
H1479 H 0.76774 0.01878 0.23473 0.0
H1480 H 0.77085 0.94051 0.20462 0.0
H1481 H 0.77041 0.96519 0.22619 0.0
H1482 H 0.72447 0.98139 0.25111 0.0
C1483 C 0.73338 0.03855 0.2723 0.0
C1484 C 0.75831 0.01069 0.23873 0.0
C1485 C 0.73409 0.05284 0.28435 0.0
C1486 C 0.75991 0.94693 0.20575 0.0
C1487 C 0.75969 0.96112 0.21798 0.0
C1488 C 0.73392 0.98952 0.24736 0.0
C1489 C 0.74714 0.02998 0.26758 0.0
C1490 C 0.7465 0.01473 0.25487 0.0
C1491 C 0.74583 0.96999 0.21955 0.0
C1492 C 0.7459 0.98543 0.23158 0.0
H1493 H 0.77368 0.05468 0.29268 0.0
H1494 H 0.77243 0.0297 0.27226 0.0
H1495 H 0.72506 0.00659 0.27149 0.0
H1496 H 0.72164 0.94608 0.18823 0.0
H1497 H 0.72126 0.97084 0.20987 0.0
C1498 C 0.05999 0.73335 0.22327 0.0
C1499 C 0.06015 0.74204 0.20233 0.0
C1500 C 0.046 0.7313 0.23579 0.0
C1501 C 0.00263 0.73423 0.23003 0.0
H1502 H 0.00378 0.73978 0.29743 0.0
C1503 C 0.94764 0.74831 0.28519 0.0
C1504 C 0.9463 0.7415 0.30754 0.0
C1505 C 0.96125 0.74623 0.27187 0.0
C1506 C 0.00328 0.73795 0.27866 0.0
H1507 H 0.04567 0.75521 0.17799 0.0
H1508 H 0.02146 0.75185 0.19991 0.0
H1509 H 0.02819 0.74005 0.27518 0.0
H1510 H 0.95803 0.72672 0.33307 0.0
H1511 H 0.98175 0.72307 0.30975 0.0
H1512 H 0.97766 0.73252 0.23351 0.0
C1513 C 0.03205 0.74639 0.20653 0.0
C1514 C 0.01728 0.73809 0.2659 0.0
C1515 C 0.04599 0.74842 0.19403 0.0
C1516 C 0.95869 0.73219 0.31596 0.0
C1517 C 0.97233 0.73016 0.30267 0.0
C1518 C 0.98863 0.73414 0.24279 0.0
C1519 C 0.03188 0.73789 0.22763 0.0
C1520 C 0.01711 0.73646 0.24139 0.0
C1521 C 0.97385 0.73733 0.28061 0.0
C1522 C 0.98877 0.73621 0.26722 0.0
H1523 H 0.07068 0.72822 0.2301 0.0
H1524 H 0.04625 0.72453 0.25184 0.0
H1525 H 0.0021 0.73265 0.21122 0.0
H1526 H 0.93831 0.75555 0.27817 0.0
H1527 H 0.9621 0.75205 0.25504 0.0
C1528 C 0.7299 0.94721 0.79761 0.0
C1529 C 0.7441 0.93896 0.80006 0.0
C1530 C 0.72935 0.96122 0.78483 0.0
C1531 C 0.75447 0.99383 0.76635 0.0
H1532 H 0.72163 0.00272 0.72126 0.0
C1533 C 0.75738 0.04787 0.70603 0.0
C1534 C 0.74336 0.05584 0.70092 0.0
C1535 C 0.7571 0.03356 0.71796 0.0
C1536 C 0.73076 0.00053 0.73404 0.0
H1537 H 0.76878 0.93881 0.79057 0.0
H1538 H 0.76779 0.96325 0.76846 0.0
H1539 H 0.72165 0.9777 0.74217 0.0
H1540 H 0.71803 0.05507 0.70451 0.0
H1541 H 0.71755 0.03029 0.72586 0.0
H1542 H 0.76348 0.01666 0.75869 0.0
C1543 C 0.75712 0.95892 0.77653 0.0
C1544 C 0.73078 0.98617 0.74594 0.0
C1545 C 0.75765 0.94487 0.78909 0.0
C1546 C 0.72904 0.0492 0.70809 0.0
C1547 C 0.72877 0.03493 0.72021 0.0
C1548 C 0.75437 0.00822 0.75464 0.0
C1549 C 0.74301 0.96733 0.77447 0.0
C1550 C 0.74271 0.98264 0.76208 0.0
C1551 C 0.7428 0.02692 0.72529 0.0
C1552 C 0.7426 0.01172 0.73819 0.0
H1553 H 0.71925 0.94296 0.80581 0.0
H1554 H 0.71832 0.96749 0.78362 0.0
H1555 H 0.76366 0.99154 0.779 0.0
H1556 H 0.76861 0.0526 0.7006 0.0
H1557 H 0.76812 0.02762 0.72115 0.0
C1558 C 0.94905 0.7284 0.68935 0.0
C1559 C 0.94017 0.7423 0.6899 0.0
C1560 C 0.9626 0.72691 0.70301 0.0
C1561 C 0.98393 0.74516 0.75313 0.0
H1562 H 0.02048 0.72606 0.72434 0.0
C1563 C 0.04656 0.75578 0.78684 0.0
C1564 C 0.05651 0.7427 0.78908 0.0
C1565 C 0.03204 0.7544 0.77571 0.0
C1566 C 0.01032 0.73126 0.73271 0.0
H1567 H 0.93842 0.76542 0.70561 0.0
H1568 H 0.96212 0.76299 0.72891 0.0
H1569 H 0.99544 0.72591 0.70362 0.0
H1570 H 0.05909 0.71796 0.78103 0.0
H1571 H 0.03372 0.71562 0.7612 0.0
H1572 H 0.99899 0.75096 0.78187 0.0
C1573 C 0.95851 0.75308 0.71833 0.0
C1574 C 0.99594 0.73113 0.72089 0.0
C1575 C 0.94493 0.75452 0.70482 0.0
C1576 C 0.0517 0.72825 0.7796 0.0
C1577 C 0.03721 0.72691 0.7682 0.0
C1578 C 0.99832 0.74541 0.76482 0.0
C1579 C 0.96763 0.73933 0.71744 0.0
C1580 C 0.9826 0.73829 0.73081 0.0
C1581 C 0.02718 0.73995 0.76635 0.0
C1582 C 0.01171 0.73866 0.75459 0.0
H1583 H 0.94565 0.71873 0.67813 0.0
H1584 H 0.96918 0.71606 0.70217 0.0
H1585 H 0.97385 0.75048 0.76155 0.0
H1586 H 0.04988 0.76709 0.79394 0.0
H1587 H 0.02466 0.7647 0.77424 0.0
C1588 C 0.24169 0.94717 0.70631 0.0
C1589 C 0.25615 0.94085 0.69913 0.0
C1590 C 0.2411 0.96136 0.71851 0.0
C1591 C 0.26418 0.98825 0.75503 0.0
H1592 H 0.23398 0.01928 0.73409 0.0
C1593 C 0.26238 0.0511 0.79347 0.0
C1594 C 0.24751 0.05779 0.79715 0.0
C1595 C 0.26392 0.03697 0.78119 0.0
C1596 C 0.24235 0.01069 0.74039 0.0
H1597 H 0.28138 0.94428 0.69971 0.0
H1598 H 0.28033 0.96906 0.72127 0.0
H1599 H 0.23568 0.99411 0.71405 0.0
H1600 H 0.22257 0.05485 0.79091 0.0
H1601 H 0.22518 0.03013 0.77004 0.0
H1602 H 0.27066 0.00469 0.78167 0.0
C1603 C 0.26946 0.963 0.71737 0.0
C1604 C 0.24333 0.99628 0.72885 0.0
C1605 C 0.27005 0.94885 0.70495 0.0
C1606 C 0.23421 0.05008 0.78825 0.0
C1607 C 0.23573 0.03592 0.77614 0.0
C1608 C 0.2631 0.00264 0.76673 0.0
C1609 C 0.25496 0.9695 0.72398 0.0
C1610 C 0.25419 0.98488 0.73611 0.0
C1611 C 0.25059 0.02917 0.77243 0.0
C1612 C 0.25211 0.01402 0.75963 0.0
H1613 H 0.23076 0.94131 0.70216 0.0
H1614 H 0.22977 0.96599 0.72366 0.0
H1615 H 0.27257 0.97963 0.76112 0.0
H1616 H 0.27287 0.05678 0.80002 0.0
H1617 H 0.27556 0.03225 0.77837 0.0
C1618 C 0.94738 0.2441 0.78028 0.0
C1619 C 0.94224 0.25705 0.79346 0.0
C1620 C 0.96103 0.24505 0.76679 0.0
C1621 C 0.99788 0.26774 0.76072 0.0
H1622 H 0.00039 0.24579 0.70133 0.0
C1623 C 0.0519 0.27127 0.69858 0.0
C1624 C 0.05702 0.25688 0.68922 0.0
C1625 C 0.03775 0.27217 0.711 0.0
C1626 C -0.00011 0.25191 0.71795 0.0
H1627 H 0.94727 0.28128 0.8024 0.0
H1628 H 0.97094 0.28303 0.77845 0.0
H1629 H 0.97573 0.24604 0.72293 0.0
H1630 H 0.05134 0.23215 0.68577 0.0
H1631 H 0.02674 0.23377 0.70731 0.0
H1632 H 0.0221 0.27363 0.75555 0.0
C1633 C 0.96457 0.27203 0.77891 0.0
C1634 C 0.98577 0.25202 0.73037 0.0
C1635 C 0.95094 0.27106 0.79254 0.0
C1636 C 0.04775 0.24343 0.69269 0.0
C1637 C 0.03359 0.24436 0.70491 0.0
C1638 C 0.012 0.26771 0.74818 0.0
C1639 C 0.96984 0.259 0.76599 0.0
C1640 C 0.98463 0.25975 0.75209 0.0
C1641 C 0.02838 0.25874 0.7141 0.0
C1642 C 0.0132 0.2596 0.72683 0.0
H1643 H 0.94101 0.2331 0.78069 0.0
H1644 H 0.96485 0.23468 0.75741 0.0
H1645 H 0.9975 0.27364 0.77751 0.0
H1646 H 0.05877 0.28185 0.69623 0.0
H1647 H 0.03399 0.28342 0.71781 0.0
C1648 C 0.76567 0.54279 0.68287 0.0
C1649 C 0.75591 0.55529 0.68967 0.0
C1650 C 0.76718 0.52951 0.69709 0.0
C1651 C 0.76025 0.51453 0.75727 0.0
H1652 H 0.75731 0.47416 0.72619 0.0
C1653 C 0.76407 0.4559 0.80809 0.0
C1654 C 0.75303 0.44436 0.8019 0.0
C1655 C 0.76596 0.46934 0.79431 0.0
C1656 C 0.7581 0.48534 0.73514 0.0
H1657 H 0.74053 0.56387 0.71715 0.0
H1658 H 0.74309 0.5407 0.74181 0.0
H1659 H 0.75795 0.49812 0.70288 0.0
H1660 H 0.73549 0.4378 0.77616 0.0
H1661 H 0.73871 0.46126 0.75227 0.0
H1662 H 0.75989 0.50176 0.78957 0.0
C1663 C 0.74968 0.54119 0.72559 0.0
C1664 C 0.75867 0.49907 0.72177 0.0
C1665 C 0.74814 0.55445 0.71137 0.0
C1666 C 0.74411 0.44644 0.78143 0.0
C1667 C 0.74602 0.45986 0.76764 0.0
C1668 C 0.75972 0.50079 0.77065 0.0
C1669 C 0.75901 0.52845 0.71844 0.0
C1670 C 0.75956 0.51384 0.73268 0.0
C1671 C 0.7569 0.47152 0.77399 0.0
C1672 C 0.75844 0.48605 0.75974 0.0
H1673 H 0.77188 0.54309 0.66631 0.0
H1674 H 0.77465 0.52 0.69124 0.0
H1675 H 0.7611 0.52571 0.7662 0.0
H1676 H 0.77117 0.45464 0.82371 0.0
H1677 H 0.77457 0.47802 0.79953 0.0
C1678 C 0.55379 0.76695 0.79292 0.0
C1679 C 0.55952 0.75252 0.80125 0.0
C1680 C 0.53958 0.76765 0.78067 0.0
C1681 C 0.5025 0.7463 0.77297 0.0
H1682 H 0.49906 0.76942 0.71469 0.0
C1683 C 0.44949 0.73904 0.71136 0.0
C1684 C 0.4441 0.75223 0.69896 0.0
C1685 C 0.46323 0.73986 0.72465 0.0
C1686 C 0.49972 0.76312 0.73114 0.0
H1687 H 0.55488 0.72749 0.80304 0.0
H1688 H 0.53014 0.72876 0.78182 0.0
H1689 H 0.5238 0.76956 0.7362 0.0
H1690 H 0.44869 0.77674 0.6913 0.0
H1691 H 0.47245 0.77828 0.71495 0.0
H1692 H 0.47845 0.73992 0.76814 0.0
C1693 C 0.53658 0.73953 0.78488 0.0
C1694 C 0.51392 0.76317 0.74341 0.0
C1695 C 0.55081 0.73881 0.7969 0.0
C1696 C 0.45258 0.76634 0.70053 0.0
C1697 C 0.46626 0.76719 0.71398 0.0
C1698 C 0.48827 0.74634 0.76083 0.0
C1699 C 0.53076 0.75395 0.77674 0.0
C1700 C 0.5155 0.7546 0.76429 0.0
C1701 C 0.47184 0.75392 0.72604 0.0
C1702 C 0.48675 0.75459 0.7396 0.0
H1703 H 0.56022 0.77772 0.79597 0.0
H1704 H 0.53533 0.77894 0.77466 0.0
H1705 H 0.50331 0.7398 0.78923 0.0
H1706 H 0.44328 0.72797 0.71042 0.0
H1707 H 0.46728 0.72934 0.73339 0.0
C1708 C 0.25181 0.44895 0.70969 0.0
C1709 C 0.23948 0.44403 0.69509 0.0
C1710 C 0.25049 0.46268 0.72286 0.0
C1711 C 0.22852 0.50011 0.72546 0.0
H1712 H 0.2485 0.50316 0.78632 0.0
C1713 C 0.22506 0.5553 0.78542 0.0
C1714 C 0.23944 0.56021 0.79503 0.0
C1715 C 0.22397 0.541 0.77345 0.0
C1716 C 0.24292 0.50249 0.7693 0.0
H1717 H 0.21589 0.44946 0.68342 0.0
H1718 H 0.21341 0.47328 0.70691 0.0
H1719 H 0.24805 0.47805 0.76595 0.0
H1720 H 0.26399 0.55401 0.79937 0.0
H1721 H 0.26202 0.52909 0.77868 0.0
H1722 H 0.22333 0.52462 0.72908 0.0
C1723 C 0.22425 0.46669 0.70776 0.0
C1724 C 0.24269 0.48812 0.75757 0.0
C1725 C 0.22563 0.45297 0.69441 0.0
C1726 C 0.25272 0.5506 0.7922 0.0
C1727 C 0.25159 0.53627 0.78049 0.0
C1728 C 0.22862 0.51447 0.73734 0.0
C1729 C 0.23674 0.4718 0.72198 0.0
C1730 C 0.23575 0.48679 0.7353 0.0
C1731 C 0.23719 0.53126 0.77114 0.0
C1732 C 0.23607 0.51586 0.75918 0.0
H1733 H 0.26269 0.44241 0.71055 0.0
H1734 H 0.26046 0.46636 0.73325 0.0
H1735 H 0.22323 0.49959 0.70823 0.0
H1736 H 0.21462 0.56244 0.78729 0.0
H1737 H 0.21271 0.5374 0.76646 0.0
C1738 C 0.44359 0.22928 0.78802 0.0
C1739 C 0.43629 0.24362 0.79352 0.0
C1740 C 0.45802 0.22904 0.77628 0.0
C1741 C 0.49285 0.25346 0.76463 0.0
H1742 H 0.50015 0.22447 0.71341 0.0
C1743 C 0.54765 0.25793 0.70567 0.0
C1744 C 0.55482 0.24391 0.69837 0.0
C1745 C 0.53322 0.25766 0.7173 0.0
C1746 C 0.49839 0.2325 0.72788 0.0
H1747 H 0.4384 0.26894 0.79084 0.0
H1748 H 0.4635 0.26849 0.77041 0.0
H1749 H 0.47493 0.22431 0.73369 0.0
H1750 H 0.55247 0.21856 0.69771 0.0
H1751 H 0.52743 0.21806 0.71837 0.0
H1752 H 0.5163 0.26158 0.75904 0.0
C1753 C 0.45815 0.25745 0.77534 0.0
C1754 C 0.48392 0.23242 0.73947 0.0
C1755 C 0.4437 0.25769 0.78693 0.0
C1756 C 0.54724 0.22959 0.70301 0.0
C1757 C 0.53282 0.22931 0.71474 0.0
C1758 C 0.50734 0.25349 0.75314 0.0
C1759 C 0.4655 0.24313 0.76994 0.0
C1760 C 0.48096 0.24296 0.75789 0.0
C1761 C 0.52562 0.24334 0.72204 0.0
C1762 C 0.51027 0.24308 0.73453 0.0
H1763 H 0.43821 0.21823 0.79285 0.0
H1764 H 0.46345 0.21783 0.77254 0.0
H1765 H 0.49103 0.26155 0.77902 0.0
H1766 H 0.55313 0.26918 0.70227 0.0
H1767 H 0.52791 0.2687 0.72232 0.0
C1768 C 0.23445 0.56269 0.22584 0.0
C1769 C 0.24455 0.56335 0.20636 0.0
C1770 C 0.23235 0.5486 0.2381 0.0
C1771 C 0.23736 0.50556 0.23225 0.0
H1772 H 0.23869 0.50598 0.30013 0.0
C1773 C 0.24988 0.45018 0.28697 0.0
C1774 C 0.24207 0.44827 0.30848 0.0
C1775 C 0.24809 0.46397 0.27399 0.0
C1776 C 0.23803 0.50567 0.28119 0.0
H1777 H 0.2603 0.54968 0.18449 0.0
H1778 H 0.25675 0.52531 0.20591 0.0
H1779 H 0.23944 0.5307 0.27863 0.0
H1780 H 0.22582 0.45917 0.33283 0.0
H1781 H 0.2226 0.48319 0.31004 0.0
H1782 H 0.23623 0.48053 0.23478 0.0
C1783 C 0.25028 0.53558 0.21156 0.0
C1784 C 0.23846 0.51985 0.26886 0.0
C1785 C 0.25241 0.54961 0.19938 0.0
C1786 C 0.23206 0.46028 0.31637 0.0
C1787 C 0.23029 0.47409 0.30339 0.0
C1788 C 0.23692 0.4914 0.24456 0.0
C1789 C 0.24024 0.53489 0.23107 0.0
C1790 C 0.23841 0.51994 0.24424 0.0
C1791 C 0.23844 0.47618 0.2822 0.0
C1792 C 0.23751 0.49127 0.26917 0.0
H1793 H 0.22819 0.57304 0.23164 0.0
H1794 H 0.22444 0.54842 0.25297 0.0
H1795 H 0.23699 0.50525 0.21328 0.0
H1796 H 0.25769 0.44118 0.28037 0.0
H1797 H 0.25469 0.46525 0.25788 0.0
C1798 C 0.55519 0.26136 0.28404 0.0
C1799 C 0.56279 0.24738 0.29052 0.0
C1800 C 0.54083 0.26095 0.27229 0.0
C1801 C 0.50675 0.2352 0.26061 0.0
H1802 H 0.4981 0.26571 0.21186 0.0
C1803 C 0.45089 0.23311 0.20291 0.0
C1804 C 0.44316 0.24747 0.19922 0.0
C1805 C 0.46563 0.23271 0.21364 0.0
C1806 C 0.5003 0.25719 0.22557 0.0
H1807 H 0.5613 0.22197 0.28952 0.0
H1808 H 0.53633 0.22125 0.26864 0.0
H1809 H 0.52368 0.26556 0.23094 0.0
H1810 H 0.44487 0.27269 0.20389 0.0
H1811 H 0.47059 0.27197 0.22257 0.0
H1812 H 0.48335 0.2268 0.25507 0.0
C1813 C 0.54136 0.23255 0.273 0.0
C1814 C 0.51495 0.25712 0.23654 0.0
C1815 C 0.55573 0.23296 0.28486 0.0
C1816 C 0.4505 0.26143 0.20645 0.0
C1817 C 0.46528 0.26103 0.21703 0.0
C1818 C 0.49212 0.23522 0.24953 0.0
C1819 C 0.53372 0.24655 0.26662 0.0
C1820 C 0.51832 0.24621 0.25434 0.0
C1821 C 0.47301 0.24667 0.22074 0.0
C1822 C 0.4887 0.24631 0.23203 0.0
H1823 H 0.56026 0.27268 0.28823 0.0
H1824 H 0.53516 0.27196 0.26801 0.0
H1825 H 0.50886 0.22678 0.27446 0.0
H1826 H 0.44555 0.22215 0.19754 0.0
H1827 H 0.47136 0.22148 0.21609 0.0
C1828 C 0.76723 0.55038 0.31066 0.0
C1829 C 0.75574 0.56174 0.3057 0.0
C1830 C 0.769 0.53723 0.29626 0.0
C1831 C 0.75923 0.52121 0.23767 0.0
H1832 H 0.76359 0.481 0.26885 0.0
C1833 C 0.76707 0.46302 0.18651 0.0
C1834 C 0.75808 0.45023 0.19441 0.0
C1835 C 0.76809 0.47676 0.19985 0.0
C1836 C 0.76233 0.49213 0.25988 0.0
H1837 H 0.73741 0.56841 0.28128 0.0
H1838 H 0.74042 0.54541 0.25628 0.0
H1839 H 0.76293 0.505 0.29203 0.0
H1840 H 0.74327 0.4418 0.22269 0.0
H1841 H 0.74498 0.46574 0.2458 0.0
H1842 H 0.75817 0.50826 0.20555 0.0
C1843 C 0.74816 0.54674 0.2712 0.0
C1844 C 0.76214 0.5059 0.27314 0.0
C1845 C 0.74638 0.55988 0.28561 0.0
C1846 C 0.75032 0.45141 0.21608 0.0
C1847 C 0.75137 0.46511 0.22942 0.0
C1848 C 0.75947 0.50741 0.22438 0.0
C1849 C 0.75934 0.53514 0.27655 0.0
C1850 C 0.76043 0.5206 0.26222 0.0
C1851 C 0.7602 0.47798 0.22141 0.0
C1852 C 0.76085 0.4927 0.23536 0.0
H1853 H 0.7747 0.55148 0.32592 0.0
H1854 H 0.77789 0.52863 0.30067 0.0
H1855 H 0.75805 0.53235 0.22871 0.0
H1856 H 0.77322 0.46249 0.16992 0.0
H1857 H 0.77512 0.48641 0.19332 0.0
C1858 C 0.44606 0.77075 0.29754 0.0
C1859 C 0.43877 0.75609 0.3006 0.0
C1860 C 0.45982 0.77207 0.28424 0.0
C1861 C 0.48412 0.75039 0.24052 0.0
H1862 H 0.5174 0.77781 0.26225 0.0
C1863 C 0.54765 0.74502 0.20741 0.0
C1864 C 0.55521 0.75895 0.20055 0.0
C1865 C 0.53329 0.74553 0.21919 0.0
C1866 C 0.50814 0.77022 0.25587 0.0
H1867 H 0.44021 0.73133 0.29198 0.0
H1868 H 0.46425 0.73353 0.26944 0.0
H1869 H 0.49236 0.77722 0.28313 0.0
H1870 H 0.55377 0.78437 0.20123 0.0
H1871 H 0.52871 0.78523 0.22218 0.0
H1872 H 0.5001 0.74307 0.2137 0.0
C1873 C 0.45922 0.74412 0.27677 0.0
C1874 C 0.49377 0.76991 0.26775 0.0
C1875 C 0.44544 0.74283 0.28987 0.0
C1876 C 0.54824 0.77342 0.20624 0.0
C1877 C 0.53393 0.77393 0.21829 0.0
C1878 C 0.49852 0.75058 0.22883 0.0
C1879 C 0.46664 0.75873 0.27382 0.0
C1880 C 0.48162 0.75986 0.26038 0.0
C1881 C 0.52622 0.75998 0.2246 0.0
C1882 C 0.51074 0.76037 0.23652 0.0
H1883 H 0.44119 0.78121 0.3055 0.0
H1884 H 0.46507 0.78355 0.28207 0.0
H1885 H 0.47494 0.74278 0.23396 0.0
H1886 H 0.55268 0.73367 0.20332 0.0
H1887 H 0.5277 0.73459 0.22411 0.0
C1888 C 0.2013 0.13713 0.17322 0.0
C1889 C 0.20981 0.12412 0.18153 0.0
C1890 C 0.18937 0.1438 0.18676 0.0
C1891 C 0.17893 0.14907 0.24797 0.0
H1892 H 0.13956 0.16517 0.22382 0.0
C1893 C 0.13711 0.1821 0.30865 0.0
C1894 C 0.13008 0.19576 0.29978 0.0
C1895 C 0.1444 0.17144 0.29366 0.0
C1896 C 0.15055 0.16085 0.2308 0.0
H1897 H 0.21192 0.10747 0.21011 0.0
H1898 H 0.19115 0.11922 0.23381 0.0
H1899 H 0.15677 0.14979 0.1983 0.0
H1900 H 0.12454 0.20867 0.26818 0.0
H1901 H 0.13785 0.19033 0.24189 0.0
H1902 H 0.17328 0.16059 0.28001 0.0
C1903 C 0.1938 0.12428 0.21685 0.0
C1904 C 0.16037 0.15199 0.21621 0.0
C1905 C 0.20565 0.11752 0.20323 0.0
C1906 C 0.12985 0.19821 0.27546 0.0
C1907 C 0.13744 0.18765 0.26042 0.0
C1908 C 0.16925 0.15803 0.26244 0.0
C1909 C 0.18577 0.13769 0.20897 0.0
C1910 C 0.1747 0.14608 0.22464 0.0
C1911 C 0.14517 0.17433 0.26943 0.0
C1912 C 0.15495 0.16411 0.25406 0.0
H1913 H 0.20415 0.14246 0.15652 0.0
H1914 H 0.18347 0.15419 0.18029 0.0
H1915 H 0.19005 0.14496 0.25484 0.0
H1916 H 0.13723 0.17978 0.32732 0.0
H1917 H 0.14978 0.16109 0.3012 0.0
C1918 C 0.8655 0.18706 0.1803 0.0
C1919 C 0.87977 0.19492 0.18409 0.0
C1920 C 0.86093 0.17467 0.19465 0.0
C1921 C 0.85416 0.14577 0.22242 0.0
H1922 H 0.86114 0.15207 0.28877 0.0
C1923 C 0.81547 0.11392 0.28999 0.0
C1924 C 0.81007 0.12364 0.30819 0.0
C1925 C 0.82816 0.11861 0.27598 0.0
C1926 C 0.85901 0.15014 0.2703 0.0
H1927 H 0.90084 0.19535 0.20534 0.0
H1928 H 0.89304 0.17329 0.23022 0.0
H1929 H 0.87532 0.16804 0.2607 0.0
H1930 H 0.81428 0.14556 0.32658 0.0
H1931 H 0.83562 0.15392 0.30192 0.0
H1932 H 0.8367 0.12902 0.232 0.0
C1933 C 0.88519 0.17701 0.21638 0.0
C1934 C 0.8674 0.15915 0.25411 0.0
C1935 C 0.88971 0.18962 0.20207 0.0
C1936 C 0.81806 0.13775 0.31271 0.0
C1937 C 0.83053 0.14249 0.29862 0.0
C1938 C 0.84552 0.13702 0.23861 0.0
C1939 C 0.87058 0.16955 0.2131 0.0
C1940 C 0.86453 0.15761 0.22996 0.0
C1941 C 0.83559 0.13318 0.27974 0.0
C1942 C 0.84728 0.13962 0.26279 0.0
H1943 H 0.85749 0.19081 0.16666 0.0
H1944 H 0.84944 0.16959 0.1918 0.0
H1945 H 0.85204 0.14383 0.20395 0.0
H1946 H 0.80966 0.10291 0.2862 0.0
H1947 H 0.83187 0.11097 0.26187 0.0
C1948 C 0.86699 0.81257 0.31559 0.0
C1949 C 0.87714 0.80046 0.30843 0.0
C1950 C 0.85996 0.82242 0.29913 0.0
C1951 C 0.84659 0.82192 0.23868 0.0
H1952 H 0.83996 0.86651 0.24815 0.0
C1953 C 0.81099 0.85809 0.17265 0.0
C1954 C 0.80035 0.86913 0.18173 0.0
C1955 C 0.82222 0.85113 0.18706 0.0
C1956 C 0.84159 0.85405 0.24536 0.0
H1957 H 0.88836 0.78962 0.27841 0.0
H1958 H 0.87591 0.80682 0.24953 0.0
H1959 H 0.85679 0.85192 0.27512 0.0
H1960 H 0.79342 0.88185 0.21295 0.0
H1961 H 0.81277 0.86932 0.23839 0.0
H1962 H 0.83099 0.82377 0.20958 0.0
C1963 C 0.8734 0.8086 0.26795 0.0
C1964 C 0.85129 0.84572 0.26073 0.0
C1965 C 0.88058 0.79881 0.28448 0.0
C1966 C 0.80147 0.87339 0.20544 0.0
C1967 C 0.81263 0.86626 0.21998 0.0
C1968 C 0.83681 0.83019 0.22345 0.0
C1969 C 0.86281 0.82032 0.27511 0.0
C1970 C 0.85377 0.82954 0.25766 0.0
C1971 C 0.823 0.85486 0.21101 0.0
C1972 C 0.83406 0.84634 0.22668 0.0
H1973 H 0.86416 0.81421 0.33393 0.0
H1974 H 0.85176 0.83125 0.30518 0.0
H1975 H 0.84803 0.80941 0.23611 0.0
H1976 H 0.8106 0.85472 0.15436 0.0
H1977 H 0.83024 0.8427 0.1794 0.0
C1978 C 0.18752 0.8745 0.2898 0.0
C1979 C 0.18655 0.87197 0.31407 0.0
C1980 C 0.17656 0.86764 0.27468 0.0
C1981 C 0.14998 0.83354 0.27298 0.0
H1982 H 0.13726 0.85136 0.21346 0.0
C1983 C 0.13091 0.80955 0.1776 0.0
C1984 C 0.1197 0.79812 0.18359 0.0
C1985 C 0.13609 0.82041 0.19415 0.0
C1986 C 0.1407 0.84625 0.23006 0.0
H1987 H 0.17264 0.86134 0.34169 0.0
H1988 H 0.15334 0.84979 0.31547 0.0
H1989 H 0.15169 0.86753 0.24148 0.0
H1990 H 0.10473 0.78947 0.21148 0.0
H1991 H 0.11393 0.80846 0.24061 0.0
H1992 H 0.13932 0.8122 0.26138 0.0
C1993 C 0.16282 0.85661 0.30798 0.0
C1994 C 0.149 0.85549 0.24607 0.0
C1995 C 0.17385 0.86331 0.32302 0.0
C1996 C 0.11341 0.7981 0.20636 0.0
C1997 C 0.11871 0.80893 0.22303 0.0
C1998 C 0.14162 0.82436 0.25704 0.0
C1999 C 0.16433 0.85825 0.28359 0.0
C2000 C 0.15402 0.84914 0.26753 0.0
C2001 C 0.13026 0.82006 0.21715 0.0
C2002 C 0.13719 0.8305 0.2352 0.0
H2003 H 0.19719 0.88109 0.28238 0.0
H2004 H 0.17816 0.86905 0.25598 0.0
H2005 H 0.15387 0.82815 0.28914 0.0
H2006 H 0.13594 0.80996 0.16018 0.0
H2007 H 0.14514 0.82869 0.18915 0.0
C2008 C 0.87872 0.80452 0.69913 0.0
C2009 C 0.87212 0.80162 0.67695 0.0
C2010 C 0.87099 0.81429 0.71519 0.0
C2011 C 0.83174 0.82454 0.73188 0.0
H2012 H 0.84879 0.86057 0.76475 0.0
C2013 C 0.80227 0.85125 0.81281 0.0
C2014 C 0.79808 0.86715 0.81068 0.0
C2015 C 0.81244 0.84433 0.79671 0.0
C2016 C 0.84394 0.85054 0.75561 0.0
H2017 H 0.85259 0.80727 0.65395 0.0
H2018 H 0.83911 0.8239 0.6821 0.0
H2019 H 0.86504 0.84661 0.73571 0.0
H2020 H 0.80172 0.8884 0.79047 0.0
H2021 H 0.81991 0.87622 0.76242 0.0
H2022 H 0.81084 0.82814 0.75198 0.0
C2023 C 0.85023 0.81868 0.68698 0.0
C2024 C 0.85321 0.84255 0.73919 0.0
C2025 C 0.858 0.80916 0.67089 0.0
C2026 C 0.80468 0.87611 0.79248 0.0
C2027 C 0.81513 0.8692 0.77655 0.0
C2028 C 0.82264 0.8323 0.74853 0.0
C2029 C 0.85649 0.82108 0.70939 0.0
C2030 C 0.84711 0.82955 0.72712 0.0
C2031 C 0.81886 0.8532 0.77837 0.0
C2032 C 0.82863 0.84536 0.76049 0.0
H2033 H 0.8896 0.79895 0.70429 0.0
H2034 H 0.87598 0.81596 0.73246 0.0
H2035 H 0.82682 0.81449 0.72287 0.0
H2036 H 0.79739 0.844 0.8266 0.0
H2037 H 0.8152 0.83197 0.79846 0.0
C2038 C 0.19077 0.86067 0.66538 0.0
C2039 C 0.20141 0.87108 0.67599 0.0
C2040 C 0.17872 0.85379 0.67842 0.0
C2041 C 0.15783 0.85552 0.73591 0.0
H2042 H 0.15151 0.8111 0.72443 0.0
C2043 C 0.13422 0.81235 0.80483 0.0
C2044 C 0.12387 0.80041 0.79774 0.0
C2045 C 0.14079 0.82256 0.78844 0.0
C2046 C 0.1529 0.82355 0.72759 0.0
H2047 H 0.20741 0.88287 0.70842 0.0
H2048 H 0.1867 0.87052 0.73139 0.0
H2049 H 0.16855 0.82611 0.69863 0.0
H2050 H 0.11187 0.79016 0.76796 0.0
H2051 H 0.12362 0.80795 0.73911 0.0
H2052 H 0.14271 0.85264 0.76564 0.0
C2053 C 0.18742 0.86789 0.71286 0.0
C2054 C 0.16268 0.8322 0.71277 0.0
C2055 C 0.19937 0.87492 0.69973 0.0
C2056 C 0.11982 0.79923 0.77394 0.0
C2057 C 0.12658 0.80936 0.75744 0.0
C2058 C 0.14816 0.84681 0.75087 0.0
C2059 C 0.17712 0.857 0.70247 0.0
C2060 C 0.16549 0.84824 0.71696 0.0
C2061 C 0.1373 0.82099 0.76453 0.0
C2062 C 0.14583 0.83068 0.74709 0.0
H2063 H 0.19189 0.85762 0.64703 0.0
H2064 H 0.1708 0.84576 0.66968 0.0
H2065 H 0.15947 0.8679 0.73942 0.0
H2066 H 0.13751 0.81363 0.82306 0.0
H2067 H 0.14913 0.83128 0.79441 0.0
C2068 C 0.13804 0.19228 0.67435 0.0
C2069 C 0.12274 0.19834 0.67581 0.0
C2070 C 0.14305 0.18059 0.68969 0.0
C2071 C 0.15011 0.15149 0.71717 0.0
H2072 H 0.13787 0.15479 0.78234 0.0
C2073 C 0.18245 0.11568 0.78763 0.0
C2074 C 0.18647 0.12428 0.80776 0.0
C2075 C 0.1712 0.12146 0.77195 0.0
C2076 C 0.14146 0.15371 0.76421 0.0
H2077 H 0.10055 0.1966 0.69421 0.0
H2078 H 0.10917 0.17578 0.72073 0.0
H2079 H 0.12542 0.17156 0.75343 0.0
H2080 H 0.1812 0.14531 0.82777 0.0
H2081 H 0.16226 0.15555 0.80037 0.0
H2082 H 0.16709 0.13464 0.72817 0.0
C2083 C 0.11742 0.18034 0.708 0.0
C2084 C 0.13412 0.16319 0.74752 0.0
C2085 C 0.11245 0.19224 0.69277 0.0
C2086 C 0.17845 0.13835 0.81243 0.0
C2087 C 0.16739 0.14418 0.79672 0.0
C2088 C 0.15765 0.14222 0.73391 0.0
C2089 C 0.13285 0.17443 0.70675 0.0
C2090 C 0.13874 0.16261 0.72388 0.0
C2091 C 0.16384 0.13603 0.77597 0.0
C2092 C 0.15381 0.1436 0.75779 0.0
H2093 H 0.14633 0.19679 0.66162 0.0
H2094 H 0.15513 0.17672 0.68852 0.0
H2095 H 0.15365 0.15035 0.69903 0.0
H2096 H 0.18832 0.10473 0.78361 0.0
H2097 H 0.16856 0.11469 0.75638 0.0
C2098 C 0.8575 0.19368 0.80965 0.0
C2099 C 0.87272 0.19962 0.80632 0.0
C2100 C 0.85182 0.18154 0.79569 0.0
C2101 C 0.84348 0.15172 0.77095 0.0
H2102 H 0.85196 0.1538 0.70436 0.0
C2103 C 0.80636 0.11581 0.70593 0.0
C2104 C 0.80122 0.12447 0.68644 0.0
C2105 C 0.81868 0.12143 0.71991 0.0
C2106 C 0.84944 0.15304 0.72292 0.0
H2107 H 0.89408 0.19718 0.78599 0.0
H2108 H 0.88424 0.17563 0.76177 0.0
H2109 H 0.86628 0.17083 0.73096 0.0
H2110 H 0.80556 0.14539 0.66566 0.0
H2111 H 0.82637 0.1553 0.69013 0.0
H2112 H 0.82571 0.13494 0.76277 0.0
C2113 C 0.8766 0.1806 0.77498 0.0
C2114 C 0.85784 0.16268 0.73826 0.0
C2115 C 0.88225 0.19293 0.78887 0.0
C2116 C 0.80913 0.13841 0.6806 0.0
C2117 C 0.82128 0.14404 0.69457 0.0
C2118 C 0.8349 0.14228 0.75559 0.0
C2119 C 0.86125 0.17481 0.77814 0.0
C2120 C 0.85452 0.16259 0.76239 0.0
C2121 C 0.82602 0.13584 0.71472 0.0
C2122 C 0.83733 0.14328 0.73127 0.0
H2123 H 0.84977 0.19861 0.82281 0.0
H2124 H 0.83981 0.17776 0.7983 0.0
H2125 H 0.84093 0.15097 0.78951 0.0
H2126 H 0.8006 0.10496 0.71081 0.0
H2127 H 0.82217 0.11466 0.73509 0.0
C2128 C 0.68153 0.62923 0.67522 0.0
C2129 C 0.69486 0.62122 0.68341 0.0
C2130 C 0.67102 0.63609 0.6909 0.0
C2131 C 0.65981 0.63867 0.75388 0.0
H2132 H 0.64715 0.68077 0.7362 0.0
C2133 C 0.62082 0.69454 0.79096 0.0
C2134 C 0.62726 0.69578 0.81355 0.0
C2135 C 0.62686 0.68368 0.77494 0.0
C2136 C 0.65033 0.66894 0.74125 0.0
H2137 H 0.70722 0.61344 0.71449 0.0
H2138 H 0.68906 0.62582 0.74198 0.0
H2139 H 0.66177 0.66475 0.70859 0.0
H2140 H 0.64466 0.68614 0.83732 0.0
H2141 H 0.65517 0.66731 0.80941 0.0
H2142 H 0.6488 0.64323 0.78696 0.0
C2143 C 0.68658 0.62658 0.72341 0.0
C2144 C 0.65872 0.65971 0.7254 0.0
C2145 C 0.69703 0.61953 0.70767 0.0
C2146 C 0.63947 0.68556 0.82002 0.0
C2147 C 0.64542 0.67466 0.80409 0.0
C2148 C 0.65148 0.64797 0.76981 0.0
C2149 C 0.67367 0.6353 0.71517 0.0
C2150 C 0.66372 0.64452 0.73159 0.0
C2151 C 0.63936 0.67376 0.78126 0.0
C2152 C 0.64683 0.66327 0.76375 0.0
H2153 H 0.6794 0.63052 0.65661 0.0
H2154 H 0.66099 0.64235 0.68394 0.0
H2155 H 0.66328 0.62696 0.75909 0.0
H2156 H 0.61137 0.70219 0.78546 0.0
H2157 H 0.62187 0.68315 0.7575 0.0
C2158 C 0.2994 0.64559 0.81452 0.0
C2159 C 0.29442 0.63005 0.81075 0.0
C2160 C 0.30951 0.65293 0.79877 0.0
C2161 C 0.33945 0.64744 0.75452 0.0
H2162 H 0.32426 0.68713 0.73006 0.0
C2163 C 0.37671 0.69419 0.70367 0.0
C2164 C 0.36957 0.70023 0.68335 0.0
C2165 C 0.36847 0.68388 0.71835 0.0
C2166 C 0.32863 0.67604 0.73669 0.0
H2167 H 0.29665 0.60985 0.78787 0.0
H2168 H 0.31468 0.62277 0.76032 0.0
H2169 H 0.30817 0.67235 0.7577 0.0
H2170 H 0.34842 0.69964 0.6621 0.0
H2171 H 0.33414 0.68197 0.68783 0.0
H2172 H 0.36012 0.65141 0.7337 0.0
C2173 C 0.31057 0.62918 0.77552 0.0
C2174 C 0.31947 0.66764 0.75255 0.0
C2175 C 0.30021 0.62185 0.79118 0.0
C2176 C 0.35428 0.69532 0.67765 0.0
C2177 C 0.34605 0.68521 0.69239 0.0
C2178 C 0.34879 0.65603 0.73887 0.0
C2179 C 0.31506 0.64487 0.77902 0.0
C2180 C 0.32478 0.65329 0.76163 0.0
C2181 C 0.35294 0.67962 0.71307 0.0
C2182 C 0.3434 0.67037 0.72977 0.0
H2183 H 0.29521 0.65227 0.82941 0.0
H2184 H 0.31289 0.665 0.80191 0.0
H2185 H 0.34379 0.63642 0.76142 0.0
H2186 H 0.38849 0.69769 0.70849 0.0
H2187 H 0.374 0.67975 0.73428 0.0
C2188 C 0.36347 0.31702 0.82196 0.0
C2189 C 0.37214 0.30496 0.81127 0.0
C2190 C 0.35755 0.32943 0.80867 0.0
C2191 C 0.35769 0.34758 0.74895 0.0
H2192 H 0.31403 0.35579 0.76378 0.0
C2193 C 0.31201 0.36772 0.68121 0.0
C2194 C 0.30024 0.37834 0.68807 0.0
C2195 C 0.32295 0.36218 0.69741 0.0
C2196 C 0.32629 0.35391 0.75962 0.0
H2197 H 0.3823 0.29698 0.77855 0.0
H2198 H 0.37159 0.31835 0.75518 0.0
H2199 H 0.32974 0.34003 0.79027 0.0
H2200 H 0.29112 0.39194 0.71717 0.0
H2201 H 0.3102 0.38209 0.74561 0.0
H2202 H 0.35384 0.36087 0.71757 0.0
C2203 C 0.36956 0.31844 0.77391 0.0
C2204 C 0.33536 0.34488 0.77487 0.0
C2205 C 0.37568 0.30612 0.7873 0.0
C2206 C 0.3 0.38373 0.71135 0.0
C2207 C 0.31089 0.37806 0.72764 0.0
C2208 C 0.34856 0.35654 0.73358 0.0
C2209 C 0.35994 0.32994 0.7843 0.0
C2210 C 0.35109 0.3413 0.76951 0.0
C2211 C 0.32232 0.36704 0.7209 0.0
C2212 C 0.33267 0.35951 0.73853 0.0
H2213 H 0.36074 0.31655 0.84049 0.0
H2214 H 0.35057 0.3383 0.81738 0.0
H2215 H 0.36983 0.3453 0.74445 0.0
H2216 H 0.3126 0.3634 0.66338 0.0
H2217 H 0.33149 0.35357 0.69172 0.0
C2218 C 0.61402 0.30831 0.70182 0.0
C2219 C 0.62325 0.30255 0.6833 0.0
C2220 C 0.61929 0.32093 0.71545 0.0
C2221 C 0.63908 0.33727 0.75206 0.0
H2222 H 0.66958 0.36737 0.72917 0.0
C2223 C 0.68888 0.35902 0.81005 0.0
C2224 C 0.69548 0.37398 0.80682 0.0
C2225 C 0.67712 0.35355 0.7952 0.0
C2226 C 0.66087 0.3593 0.73595 0.0
H2227 H 0.64476 0.30626 0.66364 0.0
H2228 H 0.65411 0.32761 0.68761 0.0
H2229 H 0.65322 0.35319 0.70148 0.0
H2230 H 0.69455 0.39512 0.78573 0.0
H2231 H 0.67366 0.38567 0.75993 0.0
H2232 H 0.64653 0.34356 0.78652 0.0
C2233 C 0.64267 0.32275 0.69154 0.0
C2234 C 0.65162 0.35097 0.72 0.0
C2235 C 0.63735 0.3103 0.67784 0.0
C2236 C 0.68977 0.3835 0.7886 0.0
C2237 C 0.67783 0.37805 0.77378 0.0
C2238 C 0.64813 0.34579 0.768 0.0
C2239 C 0.63396 0.32797 0.71097 0.0
C2240 C 0.64113 0.3393 0.72779 0.0
C2241 C 0.67144 0.36294 0.7768 0.0
C2242 C 0.65968 0.35636 0.76013 0.0
H2243 H 0.60302 0.3027 0.70635 0.0
H2244 H 0.61208 0.32484 0.72995 0.0
H2245 H 0.63118 0.32843 0.75887 0.0
H2246 H 0.69303 0.3513 0.8238 0.0
H2247 H 0.67285 0.34171 0.79779 0.0
C2248 C 0.36173 0.31533 0.18183 0.0
C2249 C 0.3741 0.30569 0.18949 0.0
C2250 C 0.35639 0.32772 0.19571 0.0
C2251 C 0.35293 0.33708 0.25742 0.0
H2252 H 0.33612 0.37666 0.23516 0.0
C2253 C 0.31796 0.37608 0.31966 0.0
C2254 C 0.30401 0.38249 0.31078 0.0
C2255 C 0.32926 0.3699 0.30459 0.0
C2256 C 0.34069 0.36563 0.24163 0.0
H2257 H 0.39135 0.30224 0.21695 0.0
H2258 H 0.38196 0.3239 0.24127 0.0
H2259 H 0.35158 0.36018 0.20871 0.0
H2260 H 0.29122 0.3882 0.27913 0.0
H2261 H 0.31068 0.3768 0.25266 0.0
H2262 H 0.34148 0.34191 0.28981 0.0
C2263 C 0.37631 0.32173 0.22459 0.0
C2264 C 0.3496 0.35624 0.22651 0.0
C2265 C 0.38173 0.30938 0.21061 0.0
C2266 C 0.3019 0.38334 0.28642 0.0
C2267 C 0.31311 0.37686 0.27128 0.0
C2268 C 0.34394 0.34636 0.27241 0.0
C2269 C 0.36326 0.3307 0.21762 0.0
C2270 C 0.35562 0.34175 0.23418 0.0
C2271 C 0.32673 0.36965 0.28025 0.0
C2272 C 0.3375 0.36066 0.26467 0.0
H2273 H 0.35567 0.31289 0.16555 0.0
H2274 H 0.34626 0.33434 0.1899 0.0
H2275 H 0.35711 0.32584 0.26373 0.0
H2276 H 0.32001 0.37552 0.33838 0.0
H2277 H 0.3398 0.36489 0.31211 0.0
C2278 C 0.63424 0.32161 0.3207 0.0
C2279 C 0.6261 0.30947 0.30934 0.0
C2280 C 0.63965 0.33458 0.3081 0.0
C2281 C 0.63925 0.35383 0.24899 0.0
H2282 H 0.68236 0.36352 0.26526 0.0
C2283 C 0.69739 0.39062 0.21389 0.0
C2284 C 0.69805 0.38465 0.19095 0.0
C2285 C 0.68571 0.38555 0.2294 0.0
C2286 C 0.67022 0.36127 0.26072 0.0
H2287 H 0.61634 0.30185 0.27619 0.0
H2288 H 0.62627 0.32414 0.25397 0.0
H2289 H 0.66695 0.34693 0.2909 0.0
H2290 H 0.68623 0.36971 0.16573 0.0
H2291 H 0.66595 0.36091 0.19271 0.0
H2292 H 0.64305 0.36752 0.21794 0.0
C2293 C 0.62823 0.3239 0.27271 0.0
C2294 C 0.66132 0.35173 0.27549 0.0
C2295 C 0.62257 0.31105 0.28543 0.0
C2296 C 0.68613 0.37444 0.18334 0.0
C2297 C 0.67441 0.36948 0.19877 0.0
C2298 C 0.64824 0.36329 0.23406 0.0
C2299 C 0.63733 0.33556 0.28374 0.0
C2300 C 0.64583 0.34756 0.26958 0.0
C2301 C 0.6744 0.37454 0.22219 0.0
C2302 C 0.66395 0.36679 0.23952 0.0
H2303 H 0.63693 0.32082 0.33922 0.0
H2304 H 0.64621 0.34353 0.31734 0.0
H2305 H 0.62729 0.35111 0.24407 0.0
H2306 H 0.70635 0.39856 0.22028 0.0
H2307 H 0.68588 0.38979 0.24729 0.0
C2308 C 0.69469 0.62638 0.29806 0.0
C2309 C 0.69873 0.63279 0.31996 0.0
C2310 C 0.68451 0.63446 0.28301 0.0
C2311 C 0.67369 0.67427 0.26837 0.0
H2312 H 0.6373 0.65688 0.23681 0.0
C2313 C 0.645 0.70391 0.18925 0.0
C2314 C 0.62889 0.70722 0.19127 0.0
C2315 C 0.6524 0.69404 0.20527 0.0
C2316 C 0.6474 0.66184 0.24564 0.0
H2317 H 0.69477 0.65246 0.3435 0.0
H2318 H 0.67736 0.66652 0.31714 0.0
H2319 H 0.65227 0.64056 0.26453 0.0
H2320 H 0.60781 0.70242 0.21135 0.0
H2321 H 0.62085 0.68476 0.23931 0.0
H2322 H 0.66915 0.69537 0.24921 0.0
C2323 C 0.68204 0.65528 0.31165 0.0
C2324 C 0.65599 0.65252 0.26128 0.0
C2325 C 0.692 0.64717 0.32674 0.0
C2326 C 0.62025 0.70014 0.20942 0.0
C2327 C 0.62766 0.68999 0.22529 0.0
C2328 C 0.66532 0.68345 0.2525 0.0
C2329 C 0.67839 0.64915 0.28952 0.0
C2330 C 0.66918 0.6587 0.27281 0.0
C2331 C 0.64384 0.68706 0.22348 0.0
C2332 C 0.65213 0.67733 0.24098 0.0
H2333 H 0.69962 0.61531 0.29237 0.0
H2334 H 0.6819 0.62954 0.26595 0.0
H2335 H 0.68388 0.67927 0.27691 0.0
H2336 H 0.65202 0.70917 0.17551 0.0
H2337 H 0.66487 0.69188 0.20346 0.0
C2338 C 0.30122 0.62119 0.20586 0.0
C2339 C 0.30135 0.6248 0.18185 0.0
C2340 C 0.31241 0.6278 0.2209 0.0
C2341 C 0.33858 0.66229 0.22411 0.0
H2342 H 0.35525 0.64135 0.27901 0.0
C2343 C 0.37996 0.69453 0.28725 0.0
C2344 C 0.37541 0.69362 0.31087 0.0
C2345 C 0.37358 0.68421 0.27073 0.0
C2346 C 0.35069 0.64733 0.26372 0.0
H2347 H 0.31391 0.6373 0.15452 0.0
H2348 H 0.33353 0.64842 0.18047 0.0
H2349 H 0.3388 0.62673 0.25153 0.0
H2350 H 0.36142 0.68051 0.33595 0.0
H2351 H 0.35031 0.66264 0.30722 0.0
H2352 H 0.35017 0.68294 0.23642 0.0
C2353 C 0.32455 0.64094 0.18792 0.0
C2354 C 0.34122 0.63898 0.24804 0.0
C2355 C 0.31331 0.6345 0.17301 0.0
C2356 C 0.36509 0.68161 0.31785 0.0
C2357 C 0.3588 0.67127 0.3014 0.0
C2358 C 0.34807 0.67059 0.23968 0.0
C2359 C 0.32401 0.63802 0.21213 0.0
C2360 C 0.33489 0.64643 0.22819 0.0
C2361 C 0.36262 0.67272 0.27757 0.0
C2362 C 0.35406 0.66328 0.25983 0.0
H2363 H 0.29214 0.61375 0.21317 0.0
H2364 H 0.31158 0.6254 0.23949 0.0
H2365 H 0.33367 0.66852 0.20928 0.0
H2366 H 0.38794 0.7036 0.28133 0.0
H2367 H 0.3769 0.68548 0.25251 0.0
loop_
_geom_bond_atom_site_label_1
_geom_bond_atom_site_label_2
_geom_bond_distance
_geom_bond_site_symmetry_2
_ccdc_geom_bond_type
Zn0 O3 2.031 . S
Zn0 O5 2.049 . S
Zn0 O10 2.067 . S
Zn1 O2 1.962 . S
Zn1 O4 1.986 . S
Zn1 O6 1.996 . S
Zn1 O9 1.943 . S
O2 Zn1 1.962 . S
O2 C7 1.254 . S
O3 Zn0 2.031 . S
O3 C7 1.269 . S
O4 Zn1 1.986 . S
O4 C11 1.262 . S
O5 Zn0 2.049 . S
O5 C13 1.260 . S
O6 Zn1 1.996 . S
O6 C13 1.257 . S
C7 O2 1.254 . S
C7 O3 1.269 . S
C8 O9 1.249 . S
C8 O10 1.270 . S
O9 Zn1 1.943 . S
O9 C8 1.249 . S
O10 Zn0 2.067 . S
O10 C8 1.270 . S
C11 O4 1.262 . S
C11 O12 1.232 . S
O12 C11 1.232 . S
C13 O5 1.260 . S
C13 O6 1.257 . S
Zn14 O17 2.031 . S
Zn14 O19 2.049 . S
Zn14 O24 2.067 . S
Zn15 O16 1.962 . S
Zn15 O18 1.986 . S
Zn15 O20 1.996 . S
Zn15 O23 1.943 . S
O16 Zn15 1.962 . S
O16 C21 1.254 . S
O17 Zn14 2.031 . S
O17 C21 1.269 . S
O18 Zn15 1.986 . S
O18 C25 1.262 . S
O19 Zn14 2.049 . S
O19 C27 1.260 . S
O20 Zn15 1.996 . S
O20 C27 1.257 . S
C21 O16 1.254 . S
C21 O17 1.269 . S
C22 O23 1.249 . S
C22 O24 1.270 . S
O23 Zn15 1.943 . S
O23 C22 1.249 . S
O24 Zn14 2.067 . S
O24 C22 1.270 . S
C25 O18 1.262 . S
C25 O26 1.232 . S
O26 C25 1.232 . S
C27 O19 1.260 . S
C27 O20 1.257 . S
Zn28 O31 2.031 . S
Zn28 O33 2.049 . S
Zn28 O38 2.067 . S
Zn29 O30 1.962 . S
Zn29 O32 1.986 . S
Zn29 O34 1.996 . S
Zn29 O37 1.943 . S
O30 Zn29 1.962 . S
O30 C35 1.254 . S
O31 Zn28 2.031 . S
O31 C35 1.269 . S
O32 Zn29 1.986 . S
O32 C39 1.262 . S
O33 Zn28 2.049 . S
O33 C41 1.260 . S
O34 Zn29 1.996 . S
O34 C41 1.257 . S
C35 O30 1.254 . S
C35 O31 1.269 . S
C36 O37 1.249 . S
C36 O38 1.270 . S
O37 Zn29 1.943 . S
O37 C36 1.249 . S
O38 Zn28 2.067 . S
O38 C36 1.270 . S
C39 O32 1.262 . S
C39 O40 1.232 . S
O40 C39 1.232 . S
C41 O33 1.260 . S
C41 O34 1.257 . S
Zn42 O45 2.031 . S
Zn42 O47 2.049 . S
Zn42 O52 2.067 . S
Zn43 O44 1.962 . S
Zn43 O46 1.986 . S
Zn43 O48 1.996 . S
Zn43 O51 1.943 . S
O44 Zn43 1.962 . S
O44 C49 1.254 . S
O45 Zn42 2.031 . S
O45 C49 1.269 . S
O46 Zn43 1.986 . S
O46 C53 1.262 . S
O47 Zn42 2.049 . S
O47 C55 1.260 . S
O48 Zn43 1.996 . S
O48 C55 1.257 . S
C49 O44 1.254 . S
C49 O45 1.269 . S
C50 O51 1.249 . S
C50 O52 1.270 . S
O51 Zn43 1.943 . S
O51 C50 1.249 . S
O52 Zn42 2.067 . S
O52 C50 1.270 . S
C53 O46 1.262 . S
C53 O54 1.232 . S
O54 C53 1.232 . S
C55 O47 1.260 . S
C55 O48 1.257 . S
Zn56 O59 2.031 . S
Zn56 O61 2.049 . S
Zn56 O66 2.067 . S
Zn57 O58 1.962 . S
Zn57 O60 1.986 . S
Zn57 O62 1.996 . S
Zn57 O65 1.943 . S
O58 Zn57 1.962 . S
O58 C63 1.254 . S
O59 Zn56 2.031 . S
O59 C63 1.269 . S
O60 Zn57 1.986 . S
O60 C67 1.262 . S
O61 Zn56 2.049 . S
O61 C69 1.260 . S
O62 Zn57 1.996 . S
O62 C69 1.257 . S
C63 O58 1.254 . S
C63 O59 1.269 . S
C64 O65 1.249 . S
C64 O66 1.270 . S
O65 Zn57 1.943 . S
O65 C64 1.249 . S
O66 Zn56 2.067 . S
O66 C64 1.270 . S
C67 O60 1.262 . S
C67 O68 1.232 . S
O68 C67 1.232 . S
C69 O61 1.260 . S
C69 O62 1.257 . S
Zn70 O73 2.031 . S
Zn70 O75 2.049 . S
Zn70 O80 2.067 . S
Zn71 O72 1.962 . S
Zn71 O74 1.986 . S
Zn71 O76 1.996 . S
Zn71 O79 1.943 . S
O72 Zn71 1.962 . S
O72 C77 1.254 . S
O73 Zn70 2.031 . S
O73 C77 1.269 . S
O74 Zn71 1.986 . S
O74 C81 1.262 . S
O75 Zn70 2.049 . S
O75 C83 1.260 . S
O76 Zn71 1.996 . S
O76 C83 1.257 . S
C77 O72 1.254 . S
C77 O73 1.269 . S
C78 O79 1.249 . S
C78 O80 1.270 . S
O79 Zn71 1.943 . S
O79 C78 1.249 . S
O80 Zn70 2.067 . S
O80 C78 1.270 . S
C81 O74 1.262 . S
C81 O82 1.232 . S
O82 C81 1.232 . S
C83 O75 1.260 . S
C83 O76 1.257 . S
Zn84 O87 2.031 . S
Zn84 O89 2.049 . S
Zn84 O94 2.067 . S
Zn85 O86 1.962 . S
Zn85 O88 1.986 . S
Zn85 O90 1.996 . S
Zn85 O93 1.943 . S
O86 Zn85 1.962 . S
O86 C91 1.254 . S
O87 Zn84 2.031 . S
O87 C91 1.269 . S
O88 Zn85 1.986 . S
O88 C95 1.262 . S
O89 Zn84 2.049 . S
O89 C97 1.260 . S
O90 Zn85 1.996 . S
O90 C97 1.257 . S
C91 O86 1.254 . S
C91 O87 1.269 . S
C92 O93 1.249 . S
C92 O94 1.270 . S
O93 Zn85 1.943 . S
O93 C92 1.249 . S
O94 Zn84 2.067 . S
O94 C92 1.270 . S
C95 O88 1.262 . S
C95 O96 1.232 . S
O96 C95 1.232 . S
C97 O89 1.260 . S
C97 O90 1.257 . S
Zn98 O101 2.031 . S
Zn98 O103 2.049 . S
Zn98 O108 2.067 . S
Zn99 O100 1.962 . S
Zn99 O102 1.986 . S
Zn99 O104 1.996 . S
Zn99 O107 1.943 . S
O100 Zn99 1.962 . S
O100 C105 1.254 . S
O101 Zn98 2.031 . S
O101 C105 1.269 . S
O102 Zn99 1.986 . S
O102 C109 1.262 . S
O103 Zn98 2.049 . S
O103 C111 1.260 . S
O104 Zn99 1.996 . S
O104 C111 1.257 . S
C105 O100 1.254 . S
C105 O101 1.269 . S
C106 O107 1.249 . S
C106 O108 1.270 . S
O107 Zn99 1.943 . S
O107 C106 1.249 . S
O108 Zn98 2.067 . S
O108 C106 1.270 . S
C109 O102 1.262 . S
C109 O110 1.232 . S
O110 C109 1.232 . S
C111 O103 1.260 . S
C111 O104 1.257 . S
Zn112 O115 2.031 . S
Zn112 O117 2.049 . S
Zn112 O122 2.067 . S
Zn113 O114 1.962 . S
Zn113 O116 1.986 . S
Zn113 O118 1.996 . S
Zn113 O121 1.943 . S
O114 Zn113 1.962 . S
O114 C119 1.254 . S
O115 Zn112 2.031 . S
O115 C119 1.269 . S
O116 Zn113 1.986 . S
O116 C123 1.262 . S
O117 Zn112 2.049 . S
O117 C125 1.260 . S
O118 Zn113 1.996 . S
O118 C125 1.257 . S
C119 O114 1.254 . S
C119 O115 1.269 . S
C120 O121 1.249 . S
C120 O122 1.270 . S
O121 Zn113 1.943 . S
O121 C120 1.249 . S
O122 Zn112 2.067 . S
O122 C120 1.270 . S
C123 O116 1.262 . S
C123 O124 1.232 . S
O124 C123 1.232 . S
C125 O117 1.260 . S
C125 O118 1.257 . S
Zn126 O129 2.031 . S
Zn126 O131 2.049 . S
Zn126 O136 2.067 . S
Zn127 O128 1.962 . S
Zn127 O130 1.986 . S
Zn127 O132 1.996 . S
Zn127 O135 1.943 . S
O128 Zn127 1.962 . S
O128 C133 1.254 . S
O129 Zn126 2.031 . S
O129 C133 1.269 . S
O130 Zn127 1.986 . S
O130 C137 1.262 . S
O131 Zn126 2.049 . S
O131 C139 1.260 . S
O132 Zn127 1.996 . S
O132 C139 1.257 . S
C133 O128 1.254 . S
C133 O129 1.269 . S
C134 O135 1.249 . S
C134 O136 1.270 . S
O135 Zn127 1.943 . S
O135 C134 1.249 . S
O136 Zn126 2.067 . S
O136 C134 1.270 . S
C137 O130 1.262 . S
C137 O138 1.232 . S
O138 C137 1.232 . S
C139 O131 1.260 . S
C139 O132 1.257 . S
Zn140 O143 2.031 . S
Zn140 O145 2.049 . S
Zn140 O150 2.067 . S
Zn141 O142 1.962 . S
Zn141 O144 1.986 . S
Zn141 O146 1.996 . S
Zn141 O149 1.943 . S
O142 Zn141 1.962 . S
O142 C147 1.254 . S
O143 Zn140 2.031 . S
O143 C147 1.269 . S
O144 Zn141 1.986 . S
O144 C151 1.262 . S
O145 Zn140 2.049 . S
O145 C153 1.260 . S
O146 Zn141 1.996 . S
O146 C153 1.257 . S
C147 O142 1.254 . S
C147 O143 1.269 . S
C148 O149 1.249 . S
C148 O150 1.270 . S
O149 Zn141 1.943 . S
O149 C148 1.249 . S
O150 Zn140 2.067 . S
O150 C148 1.270 . S
C151 O144 1.262 . S
C151 O152 1.232 . S
O152 C151 1.232 . S
C153 O145 1.260 . S
C153 O146 1.257 . S
Zn154 O157 2.031 . S
Zn154 O159 2.049 . S
Zn154 O164 2.067 . S
Zn155 O156 1.962 . S
Zn155 O158 1.986 . S
Zn155 O160 1.996 . S
Zn155 O163 1.943 . S
O156 Zn155 1.962 . S
O156 C161 1.254 . S
O157 Zn154 2.031 . S
O157 C161 1.269 . S
O158 Zn155 1.986 . S
O158 C165 1.262 . S
O159 Zn154 2.049 . S
O159 C167 1.260 . S
O160 Zn155 1.996 . S
O160 C167 1.257 . S
C161 O156 1.254 . S
C161 O157 1.269 . S
C162 O163 1.249 . S
C162 O164 1.270 . S
O163 Zn155 1.943 . S
O163 C162 1.249 . S
O164 Zn154 2.067 . S
O164 C162 1.270 . S
C165 O158 1.262 . S
C165 O166 1.232 . S
O166 C165 1.232 . S
C167 O159 1.260 . S
C167 O160 1.257 . S
Zn168 O171 2.031 . S
Zn168 O173 2.049 . S
Zn168 O178 2.067 . S
Zn169 O170 1.962 . S
Zn169 O172 1.986 . S
Zn169 O174 1.996 . S
Zn169 O177 1.943 . S
O170 Zn169 1.962 . S
O170 C175 1.254 . S
O171 Zn168 2.031 . S
O171 C175 1.269 . S
O172 Zn169 1.986 . S
O172 C179 1.262 . S
O173 Zn168 2.049 . S
O173 C181 1.260 . S
O174 Zn169 1.996 . S
O174 C181 1.257 . S
C175 O170 1.254 . S
C175 O171 1.269 . S
C176 O177 1.249 . S
C176 O178 1.270 . S
O177 Zn169 1.943 . S
O177 C176 1.249 . S
O178 Zn168 2.067 . S
O178 C176 1.270 . S
C179 O172 1.262 . S
C179 O180 1.232 . S
O180 C179 1.232 . S
C181 O173 1.260 . S
C181 O174 1.257 . S
Zn182 O185 2.031 . S
Zn182 O187 2.049 . S
Zn182 O192 2.067 . S
Zn183 O184 1.962 . S
Zn183 O186 1.986 . S
Zn183 O188 1.996 . S
Zn183 O191 1.943 . S
O184 Zn183 1.962 . S
O184 C189 1.254 . S
O185 Zn182 2.031 . S
O185 C189 1.269 . S
O186 Zn183 1.986 . S
O186 C193 1.262 . S
O187 Zn182 2.049 . S
O187 C195 1.260 . S
O188 Zn183 1.996 . S
O188 C195 1.257 . S
C189 O184 1.254 . S
C189 O185 1.269 . S
C190 O191 1.249 . S
C190 O192 1.270 . S
O191 Zn183 1.943 . S
O191 C190 1.249 . S
O192 Zn182 2.067 . S
O192 C190 1.270 . S
C193 O186 1.262 . S
C193 O194 1.232 . S
O194 C193 1.232 . S
C195 O187 1.260 . S
C195 O188 1.257 . S
Zn196 O199 2.031 . S
Zn196 O201 2.049 . S
Zn196 O206 2.067 . S
Zn197 O198 1.962 . S
Zn197 O200 1.986 . S
Zn197 O202 1.996 . S
Zn197 O205 1.943 . S
O198 Zn197 1.962 . S
O198 C203 1.254 . S
O199 Zn196 2.031 . S
O199 C203 1.269 . S
O200 Zn197 1.986 . S
O200 C207 1.262 . S
O201 Zn196 2.049 . S
O201 C209 1.260 . S
O202 Zn197 1.996 . S
O202 C209 1.257 . S
C203 O198 1.254 . S
C203 O199 1.269 . S
C204 O205 1.249 . S
C204 O206 1.270 . S
O205 Zn197 1.943 . S
O205 C204 1.249 . S
O206 Zn196 2.067 . S
O206 C204 1.270 . S
C207 O200 1.262 . S
C207 O208 1.232 . S
O208 C207 1.232 . S
C209 O201 1.260 . S
C209 O202 1.257 . S
Zn210 O213 2.031 . S
Zn210 O215 2.049 . S
Zn210 O220 2.067 . S
Zn211 O212 1.962 . S
Zn211 O214 1.986 . S
Zn211 O216 1.996 . S
Zn211 O219 1.943 . S
O212 Zn211 1.962 . S
O212 C217 1.254 . S
O213 Zn210 2.031 . S
O213 C217 1.269 . S
O214 Zn211 1.986 . S
O214 C221 1.262 . S
O215 Zn210 2.049 . S
O215 C223 1.260 . S
O216 Zn211 1.996 . S
O216 C223 1.257 . S
C217 O212 1.254 . S
C217 O213 1.269 . S
C218 O219 1.249 . S
C218 O220 1.270 . S
O219 Zn211 1.943 . S
O219 C218 1.249 . S
O220 Zn210 2.067 . S
O220 C218 1.270 . S
C221 O214 1.262 . S
C221 O222 1.232 . S
O222 C221 1.232 . S
C223 O215 1.260 . S
C223 O216 1.257 . S
Zn224 O227 2.031 . S
Zn224 O229 2.049 . S
Zn224 O234 2.067 . S
Zn225 O226 1.962 . S
Zn225 O228 1.986 . S
Zn225 O230 1.996 . S
Zn225 O233 1.943 . S
O226 Zn225 1.962 . S
O226 C231 1.254 . S
O227 Zn224 2.031 . S
O227 C231 1.269 . S
O228 Zn225 1.986 . S
O228 C235 1.262 . S
O229 Zn224 2.049 . S
O229 C237 1.260 . S
O230 Zn225 1.996 . S
O230 C237 1.257 . S
C231 O226 1.254 . S
C231 O227 1.269 . S
C232 O233 1.249 . S
C232 O234 1.270 . S
O233 Zn225 1.943 . S
O233 C232 1.249 . S
O234 Zn224 2.067 . S
O234 C232 1.270 . S
C235 O228 1.262 . S
C235 O236 1.232 . S
O236 C235 1.232 . S
C237 O229 1.260 . S
C237 O230 1.257 . S
Zn238 O241 2.031 . S
Zn238 O243 2.049 . S
Zn238 O248 2.067 . S
Zn239 O240 1.962 . S
Zn239 O242 1.986 . S
Zn239 O244 1.996 . S
Zn239 O247 1.943 . S
O240 Zn239 1.962 . S
O240 C245 1.254 . S
O241 Zn238 2.031 . S
O241 C245 1.269 . S
O242 Zn239 1.986 . S
O242 C249 1.262 . S
O243 Zn238 2.049 . S
O243 C251 1.260 . S
O244 Zn239 1.996 . S
O244 C251 1.257 . S
C245 O240 1.254 . S
C245 O241 1.269 . S
C246 O247 1.249 . S
C246 O248 1.270 . S
O247 Zn239 1.943 . S
O247 C246 1.249 . S
O248 Zn238 2.067 . S
O248 C246 1.270 . S
C249 O242 1.262 . S
C249 O250 1.232 . S
O250 C249 1.232 . S
C251 O243 1.260 . S
C251 O244 1.257 . S
Zn252 O255 2.031 . S
Zn252 O257 2.049 . S
Zn252 O262 2.067 . S
Zn253 O254 1.962 . S
Zn253 O256 1.986 . S
Zn253 O258 1.996 . S
Zn253 O261 1.943 . S
O254 Zn253 1.962 . S
O254 C259 1.254 . S
O255 Zn252 2.031 . S
O255 C259 1.269 . S
O256 Zn253 1.986 . S
O256 C263 1.262 . S
O257 Zn252 2.049 . S
O257 C265 1.260 . S
O258 Zn253 1.996 . S
O258 C265 1.257 . S
C259 O254 1.254 . S
C259 O255 1.269 . S
C260 O261 1.249 . S
C260 O262 1.270 . S
O261 Zn253 1.943 . S
O261 C260 1.249 . S
O262 Zn252 2.067 . S
O262 C260 1.270 . S
C263 O256 1.262 . S
C263 O264 1.232 . S
O264 C263 1.232 . S
C265 O257 1.260 . S
C265 O258 1.257 . S
Zn266 O269 2.031 . S
Zn266 O271 2.049 . S
Zn266 O276 2.067 . S
Zn267 O268 1.962 . S
Zn267 O270 1.986 . S
Zn267 O272 1.996 . S
Zn267 O275 1.943 . S
O268 Zn267 1.962 . S
O268 C273 1.254 . S
O269 Zn266 2.031 . S
O269 C273 1.269 . S
O270 Zn267 1.986 . S
O270 C277 1.262 . S
O271 Zn266 2.049 . S
O271 C279 1.260 . S
O272 Zn267 1.996 . S
O272 C279 1.257 . S
C273 O268 1.254 . S
C273 O269 1.269 . S
C274 O275 1.249 . S
C274 O276 1.270 . S
O275 Zn267 1.943 . S
O275 C274 1.249 . S
O276 Zn266 2.067 . S
O276 C274 1.270 . S
C277 O270 1.262 . S
C277 O278 1.232 . S
O278 C277 1.232 . S
C279 O271 1.260 . S
C279 O272 1.257 . S
Zn280 O283 2.031 . S
Zn280 O285 2.049 . S
Zn280 O290 2.067 . S
Zn281 O282 1.962 . S
Zn281 O284 1.986 . S
Zn281 O286 1.996 . S
Zn281 O289 1.943 . S
O282 Zn281 1.962 . S
O282 C287 1.254 . S
O283 Zn280 2.031 . S
O283 C287 1.269 . S
O284 Zn281 1.986 . S
O284 C291 1.262 . S
O285 Zn280 2.049 . S
O285 C293 1.260 . S
O286 Zn281 1.996 . S
O286 C293 1.257 . S
C287 O282 1.254 . S
C287 O283 1.269 . S
C288 O289 1.249 . S
C288 O290 1.270 . S
O289 Zn281 1.943 . S
O289 C288 1.249 . S
O290 Zn280 2.067 . S
O290 C288 1.270 . S
C291 O284 1.262 . S
C291 O292 1.232 . S
O292 C291 1.232 . S
C293 O285 1.260 . S
C293 O286 1.257 . S
Zn294 O297 2.031 . S
Zn294 O299 2.049 . S
Zn294 O304 2.067 . S
Zn295 O296 1.962 . S
Zn295 O298 1.986 . S
Zn295 O300 1.996 . S
Zn295 O303 1.943 . S
O296 Zn295 1.962 . S
O296 C301 1.254 . S
O297 Zn294 2.031 . S
O297 C301 1.269 . S
O298 Zn295 1.986 . S
O298 C305 1.262 . S
O299 Zn294 2.049 . S
O299 C307 1.260 . S
O300 Zn295 1.996 . S
O300 C307 1.257 . S
C301 O296 1.254 . S
C301 O297 1.269 . S
C302 O303 1.249 . S
C302 O304 1.270 . S
O303 Zn295 1.943 . S
O303 C302 1.249 . S
O304 Zn294 2.067 . S
O304 C302 1.270 . S
C305 O298 1.262 . S
C305 O306 1.232 . S
O306 C305 1.232 . S
C307 O299 1.260 . S
C307 O300 1.257 . S
Zn308 O311 2.031 . S
Zn308 O313 2.049 . S
Zn308 O318 2.067 . S
Zn309 O310 1.962 . S
Zn309 O312 1.986 . S
Zn309 O314 1.996 . S
Zn309 O317 1.943 . S
O310 Zn309 1.962 . S
O310 C315 1.254 . S
O311 Zn308 2.031 . S
O311 C315 1.269 . S
O312 Zn309 1.986 . S
O312 C319 1.262 . S
O313 Zn308 2.049 . S
O313 C321 1.260 . S
O314 Zn309 1.996 . S
O314 C321 1.257 . S
C315 O310 1.254 . S
C315 O311 1.269 . S
C316 O317 1.249 . S
C316 O318 1.270 . S
O317 Zn309 1.943 . S
O317 C316 1.249 . S
O318 Zn308 2.067 . S
O318 C316 1.270 . S
C319 O312 1.262 . S
C319 O320 1.232 . S
O320 C319 1.232 . S
C321 O313 1.260 . S
C321 O314 1.257 . S
Zn322 O325 2.031 . S
Zn322 O327 2.049 . S
Zn322 O332 2.067 . S
Zn323 O324 1.962 . S
Zn323 O326 1.986 . S
Zn323 O328 1.996 . S
Zn323 O331 1.943 . S
O324 Zn323 1.962 . S
O324 C329 1.254 . S
O325 Zn322 2.031 . S
O325 C329 1.269 . S
O326 Zn323 1.986 . S
O326 C333 1.262 . S
O327 Zn322 2.049 . S
O327 C335 1.260 . S
O328 Zn323 1.996 . S
O328 C335 1.257 . S
C329 O324 1.254 . S
C329 O325 1.269 . S
C330 O331 1.249 . S
C330 O332 1.270 . S
O331 Zn323 1.943 . S
O331 C330 1.249 . S
O332 Zn322 2.067 . S
O332 C330 1.270 . S
C333 O326 1.262 . S
C333 O334 1.232 . S
O334 C333 1.232 . S
C335 O327 1.260 . S
C335 O328 1.257 . S
Zn336 O339 2.031 . S
Zn336 O341 2.049 . S
Zn336 O346 2.067 . S
Zn337 O338 1.962 . S
Zn337 O340 1.986 . S
Zn337 O342 1.996 . S
Zn337 O345 1.943 . S
O338 Zn337 1.962 . S
O338 C343 1.254 . S
O339 Zn336 2.031 . S
O339 C343 1.269 . S
O340 Zn337 1.986 . S
O340 C347 1.262 . S
O341 Zn336 2.049 . S
O341 C349 1.260 . S
O342 Zn337 1.996 . S
O342 C349 1.257 . S
C343 O338 1.254 . S
C343 O339 1.269 . S
C344 O345 1.249 . S
C344 O346 1.270 . S
O345 Zn337 1.943 . S
O345 C344 1.249 . S
O346 Zn336 2.067 . S
O346 C344 1.270 . S
C347 O340 1.262 . S
C347 O348 1.232 . S
O348 C347 1.232 . S
C349 O341 1.260 . S
C349 O342 1.257 . S
Zn350 O353 2.031 . S
Zn350 O355 2.049 . S
Zn350 O360 2.067 . S
Zn351 O352 1.962 . S
Zn351 O354 1.986 . S
Zn351 O356 1.996 . S
Zn351 O359 1.943 . S
O352 Zn351 1.962 . S
O352 C357 1.254 . S
O353 Zn350 2.031 . S
O353 C357 1.269 . S
O354 Zn351 1.986 . S
O354 C361 1.262 . S
O355 Zn350 2.049 . S
O355 C363 1.260 . S
O356 Zn351 1.996 . S
O356 C363 1.257 . S
C357 O352 1.254 . S
C357 O353 1.269 . S
C358 O359 1.249 . S
C358 O360 1.270 . S
O359 Zn351 1.943 . S
O359 C358 1.249 . S
O360 Zn350 2.067 . S
O360 C358 1.270 . S
C361 O354 1.262 . S
C361 O362 1.232 . S
O362 C361 1.232 . S
C363 O355 1.260 . S
C363 O356 1.257 . S
Zn364 O367 2.031 . S
Zn364 O369 2.049 . S
Zn364 O374 2.067 . S
Zn365 O366 1.962 . S
Zn365 O368 1.986 . S
Zn365 O370 1.996 . S
Zn365 O373 1.943 . S
O366 Zn365 1.962 . S
O366 C371 1.254 . S
O367 Zn364 2.031 . S
O367 C371 1.269 . S
O368 Zn365 1.986 . S
O368 C375 1.262 . S
O369 Zn364 2.049 . S
O369 C377 1.260 . S
O370 Zn365 1.996 . S
O370 C377 1.257 . S
C371 O366 1.254 . S
C371 O367 1.269 . S
C372 O373 1.249 . S
C372 O374 1.270 . S
O373 Zn365 1.943 . S
O373 C372 1.249 . S
O374 Zn364 2.067 . S
O374 C372 1.270 . S
C375 O368 1.262 . S
C375 O376 1.232 . S
O376 C375 1.232 . S
C377 O369 1.260 . S
C377 O370 1.257 . S
Zn378 O381 2.031 . S
Zn378 O383 2.049 . S
Zn378 O388 2.067 . S
Zn379 O380 1.962 . S
Zn379 O382 1.986 . S
Zn379 O384 1.996 . S
Zn379 O387 1.943 . S
O380 Zn379 1.962 . S
O380 C385 1.254 . S
O381 Zn378 2.031 . S
O381 C385 1.269 . S
O382 Zn379 1.986 . S
O382 C389 1.262 . S
O383 Zn378 2.049 . S
O383 C391 1.260 . S
O384 Zn379 1.996 . S
O384 C391 1.257 . S
C385 O380 1.254 . S
C385 O381 1.269 . S
C386 O387 1.249 . S
C386 O388 1.270 . S
O387 Zn379 1.943 . S
O387 C386 1.249 . S
O388 Zn378 2.067 . S
O388 C386 1.270 . S
C389 O382 1.262 . S
C389 O390 1.232 . S
O390 C389 1.232 . S
C391 O383 1.260 . S
C391 O384 1.257 . S
Zn392 O395 2.031 . S
Zn392 O397 2.049 . S
Zn392 O402 2.067 . S
Zn393 O394 1.962 . S
Zn393 O396 1.986 . S
Zn393 O398 1.996 . S
Zn393 O401 1.943 . S
O394 Zn393 1.962 . S
O394 C399 1.254 . S
O395 Zn392 2.031 . S
O395 C399 1.269 . S
O396 Zn393 1.986 . S
O396 C403 1.262 . S
O397 Zn392 2.049 . S
O397 C405 1.260 . S
O398 Zn393 1.996 . S
O398 C405 1.257 . S
C399 O394 1.254 . S
C399 O395 1.269 . S
C400 O401 1.249 . S
C400 O402 1.270 . S
O401 Zn393 1.943 . S
O401 C400 1.249 . S
O402 Zn392 2.067 . S
O402 C400 1.270 . S
C403 O396 1.262 . S
C403 O404 1.232 . S
O404 C403 1.232 . S
C405 O397 1.260 . S
C405 O398 1.257 . S
Zn406 O409 2.031 . S
Zn406 O411 2.049 . S
Zn406 O416 2.067 . S
Zn407 O408 1.962 . S
Zn407 O410 1.986 . S
Zn407 O412 1.996 . S
Zn407 O415 1.943 . S
O408 Zn407 1.962 . S
O408 C413 1.254 . S
O409 Zn406 2.031 . S
O409 C413 1.269 . S
O410 Zn407 1.986 . S
O410 C417 1.262 . S
O411 Zn406 2.049 . S
O411 C419 1.260 . S
O412 Zn407 1.996 . S
O412 C419 1.257 . S
C413 O408 1.254 . S
C413 O409 1.269 . S
C414 O415 1.249 . S
C414 O416 1.270 . S
O415 Zn407 1.943 . S
O415 C414 1.249 . S
O416 Zn406 2.067 . S
O416 C414 1.270 . S
C417 O410 1.262 . S
C417 O418 1.232 . S
O418 C417 1.232 . S
C419 O411 1.260 . S
C419 O412 1.257 . S
Zn420 O423 2.031 . S
Zn420 O425 2.049 . S
Zn420 O430 2.067 . S
Zn421 O422 1.962 . S
Zn421 O424 1.986 . S
Zn421 O426 1.996 . S
Zn421 O429 1.943 . S
O422 Zn421 1.962 . S
O422 C427 1.254 . S
O423 Zn420 2.031 . S
O423 C427 1.269 . S
O424 Zn421 1.986 . S
O424 C431 1.262 . S
O425 Zn420 2.049 . S
O425 C433 1.260 . S
O426 Zn421 1.996 . S
O426 C433 1.257 . S
C427 O422 1.254 . S
C427 O423 1.269 . S
C428 O429 1.249 . S
C428 O430 1.270 . S
O429 Zn421 1.943 . S
O429 C428 1.249 . S
O430 Zn420 2.067 . S
O430 C428 1.270 . S
C431 O424 1.262 . S
C431 O432 1.232 . S
O432 C431 1.232 . S
C433 O425 1.260 . S
C433 O426 1.257 . S
Zn434 O437 2.031 . S
Zn434 O439 2.049 . S
Zn434 O444 2.067 . S
Zn435 O436 1.962 . S
Zn435 O438 1.986 . S
Zn435 O440 1.996 . S
Zn435 O443 1.943 . S
O436 Zn435 1.962 . S
O436 C441 1.254 . S
O437 Zn434 2.031 . S
O437 C441 1.269 . S
O438 Zn435 1.986 . S
O438 C445 1.262 . S
O439 Zn434 2.049 . S
O439 C447 1.260 . S
O440 Zn435 1.996 . S
O440 C447 1.257 . S
C441 O436 1.254 . S
C441 O437 1.269 . S
C442 O443 1.249 . S
C442 O444 1.270 . S
O443 Zn435 1.943 . S
O443 C442 1.249 . S
O444 Zn434 2.067 . S
O444 C442 1.270 . S
C445 O438 1.262 . S
C445 O446 1.232 . S
O446 C445 1.232 . S
C447 O439 1.260 . S
C447 O440 1.257 . S
C448 C449 1.349 . S
C448 C450 1.327 . S
C448 H473 0.950 . S
C449 C448 1.349 . S
C449 C465 1.349 . S
C450 C448 1.327 . S
C450 C469 1.429 . S
C450 H474 0.950 . S
C451 C468 1.574 . S
C451 C470 1.368 . S
C451 H475 0.949 . S
H452 C456 0.949 . S
C453 C454 1.349 . S
C453 C455 1.327 . S
C453 H476 0.950 . S
C454 C453 1.349 . S
C454 C466 1.349 . S
C455 C453 1.327 . S
C455 C471 1.429 . S
C455 H477 0.950 . S
C456 H452 0.949 . S
C456 C464 1.574 . S
C456 C472 1.368 . S
H457 C465 0.950 . S
H458 C463 0.950 . S
H459 C464 0.949 . S
H460 C466 0.950 . S
H461 C467 0.950 . S
H462 C468 0.949 . S
C463 H458 0.950 . S
C463 C465 1.327 . S
C463 C469 1.429 . S
C464 C456 1.574 . S
C464 H459 0.949 . S
C464 C470 1.368 . S
C465 C449 1.349 . S
C465 H457 0.950 . S
C465 C463 1.327 . S
C466 C454 1.349 . S
C466 H460 0.950 . S
C466 C467 1.327 . S
C467 H461 0.950 . S
C467 C466 1.327 . S
C467 C471 1.429 . S
C468 C451 1.574 . S
C468 H462 0.949 . S
C468 C472 1.368 . S
C469 C450 1.429 . S
C469 C463 1.429 . S
C469 C470 1.523 . S
C470 C451 1.368 . S
C470 C464 1.368 . S
C470 C469 1.523 . S
C471 C455 1.429 . S
C471 C467 1.429 . S
C471 C472 1.523 . S
C472 C456 1.368 . S
C472 C468 1.368 . S
C472 C471 1.523 . S
H473 C448 0.950 . S
H474 C450 0.950 . S
H475 C451 0.949 . S
H476 C453 0.950 . S
H477 C455 0.950 . S
C478 C479 1.349 . S
C478 C480 1.327 . S
C478 H503 0.950 . S
C479 C478 1.349 . S
C479 C495 1.349 . S
C480 C478 1.327 . S
C480 C499 1.429 . S
C480 H504 0.950 . S
C481 C498 1.574 . S
C481 C500 1.368 . S
C481 H505 0.949 . S
H482 C486 0.949 . S
C483 C484 1.349 . S
C483 C485 1.327 . S
C483 H506 0.950 . S
C484 C483 1.349 . S
C484 C496 1.349 . S
C485 C483 1.327 . S
C485 C501 1.429 . S
C485 H507 0.950 . S
C486 H482 0.949 . S
C486 C494 1.574 . S
C486 C502 1.368 . S
H487 C495 0.950 . S
H488 C493 0.950 . S
H489 C494 0.949 . S
H490 C496 0.950 . S
H491 C497 0.950 . S
H492 C498 0.949 . S
C493 H488 0.950 . S
C493 C495 1.327 . S
C493 C499 1.429 . S
C494 C486 1.574 . S
C494 H489 0.949 . S
C494 C500 1.368 . S
C495 C479 1.349 . S
C495 H487 0.950 . S
C495 C493 1.327 . S
C496 C484 1.349 . S
C496 H490 0.950 . S
C496 C497 1.327 . S
C497 H491 0.950 . S
C497 C496 1.327 . S
C497 C501 1.429 . S
C498 C481 1.574 . S
C498 H492 0.949 . S
C498 C502 1.368 . S
C499 C480 1.429 . S
C499 C493 1.429 . S
C499 C500 1.523 . S
C500 C481 1.368 . S
C500 C494 1.368 . S
C500 C499 1.523 . S
C501 C485 1.429 . S
C501 C497 1.429 . S
C501 C502 1.523 . S
C502 C486 1.368 . S
C502 C498 1.368 . S
C502 C501 1.523 . S
H503 C478 0.950 . S
H504 C480 0.950 . S
H505 C481 0.949 . S
H506 C483 0.950 . S
H507 C485 0.950 . S
C508 C509 1.349 . S
C508 C510 1.327 . S
C508 H533 0.950 . S
C509 C508 1.349 . S
C509 C525 1.349 . S
C510 C508 1.327 . S
C510 C529 1.429 . S
C510 H534 0.950 . S
C511 C528 1.574 . S
C511 C530 1.368 . S
C511 H535 0.949 . S
H512 C516 0.949 . S
C513 C514 1.349 . S
C513 C515 1.327 . S
C513 H536 0.950 . S
C514 C513 1.349 . S
C514 C526 1.349 . S
C515 C513 1.327 . S
C515 C531 1.429 . S
C515 H537 0.950 . S
C516 H512 0.949 . S
C516 C524 1.574 . S
C516 C532 1.368 . S
H517 C525 0.950 . S
H518 C523 0.950 . S
H519 C524 0.949 . S
H520 C526 0.950 . S
H521 C527 0.950 . S
H522 C528 0.949 . S
C523 H518 0.950 . S
C523 C525 1.327 . S
C523 C529 1.429 . S
C524 C516 1.574 . S
C524 H519 0.949 . S
C524 C530 1.368 . S
C525 C509 1.349 . S
C525 H517 0.950 . S
C525 C523 1.327 . S
C526 C514 1.349 . S
C526 H520 0.950 . S
C526 C527 1.327 . S
C527 H521 0.950 . S
C527 C526 1.327 . S
C527 C531 1.429 . S
C528 C511 1.574 . S
C528 H522 0.949 . S
C528 C532 1.368 . S
C529 C510 1.429 . S
C529 C523 1.429 . S
C529 C530 1.523 . S
C530 C511 1.368 . S
C530 C524 1.368 . S
C530 C529 1.523 . S
C531 C515 1.429 . S
C531 C527 1.429 . S
C531 C532 1.523 . S
C532 C516 1.368 . S
C532 C528 1.368 . S
C532 C531 1.523 . S
H533 C508 0.950 . S
H534 C510 0.950 . S
H535 C511 0.949 . S
H536 C513 0.950 . S
H537 C515 0.950 . S
C538 C539 1.349 . S
C538 C540 1.327 . S
C538 H563 0.950 . S
C539 C538 1.349 . S
C539 C555 1.349 . S
C540 C538 1.327 . S
C540 C559 1.429 . S
C540 H564 0.950 . S
C541 C558 1.574 . S
C541 C560 1.368 . S
C541 H565 0.949 . S
H542 C546 0.949 . S
C543 C544 1.349 . S
C543 C545 1.327 . S
C543 H566 0.950 . S
C544 C543 1.349 . S
C544 C556 1.349 . S
C545 C543 1.327 . S
C545 C561 1.429 . S
C545 H567 0.950 . S
C546 H542 0.949 . S
C546 C554 1.574 . S
C546 C562 1.368 . S
H547 C555 0.950 . S
H548 C553 0.950 . S
H549 C554 0.949 . S
H550 C556 0.950 . S
H551 C557 0.950 . S
H552 C558 0.949 . S
C553 H548 0.950 . S
C553 C555 1.327 . S
C553 C559 1.429 . S
C554 C546 1.574 . S
C554 H549 0.949 . S
C554 C560 1.368 . S
C555 C539 1.349 . S
C555 H547 0.950 . S
C555 C553 1.327 . S
C556 C544 1.349 . S
C556 H550 0.950 . S
C556 C557 1.327 . S
C557 H551 0.950 . S
C557 C556 1.327 . S
C557 C561 1.429 . S
C558 C541 1.574 . S
C558 H552 0.949 . S
C558 C562 1.368 . S
C559 C540 1.429 . S
C559 C553 1.429 . S
C559 C560 1.523 . S
C560 C541 1.368 . S
C560 C554 1.368 . S
C560 C559 1.523 . S
C561 C545 1.429 . S
C561 C557 1.429 . S
C561 C562 1.523 . S
C562 C546 1.368 . S
C562 C558 1.368 . S
C562 C561 1.523 . S
H563 C538 0.950 . S
H564 C540 0.950 . S
H565 C541 0.949 . S
H566 C543 0.950 . S
H567 C545 0.950 . S
C568 C569 1.349 . S
C568 C570 1.327 . S
C568 H593 0.950 . S
C569 C568 1.349 . S
C569 C585 1.349 . S
C570 C568 1.327 . S
C570 C589 1.429 . S
C570 H594 0.950 . S
C571 C588 1.574 . S
C571 C590 1.368 . S
C571 H595 0.949 . S
H572 C576 0.949 . S
C573 C574 1.349 . S
C573 C575 1.327 . S
C573 H596 0.950 . S
C574 C573 1.349 . S
C574 C586 1.349 . S
C575 C573 1.327 . S
C575 C591 1.429 . S
C575 H597 0.950 . S
C576 H572 0.949 . S
C576 C584 1.574 . S
C576 C592 1.368 . S
H577 C585 0.950 . S
H578 C583 0.950 . S
H579 C584 0.949 . S
H580 C586 0.950 . S
H581 C587 0.950 . S
H582 C588 0.949 . S
C583 H578 0.950 . S
C583 C585 1.327 . S
C583 C589 1.429 . S
C584 C576 1.574 . S
C584 H579 0.949 . S
C584 C590 1.368 . S
C585 C569 1.349 . S
C585 H577 0.950 . S
C585 C583 1.327 . S
C586 C574 1.349 . S
C586 H580 0.950 . S
C586 C587 1.327 . S
C587 H581 0.950 . S
C587 C586 1.327 . S
C587 C591 1.429 . S
C588 C571 1.574 . S
C588 H582 0.949 . S
C588 C592 1.368 . S
C589 C570 1.429 . S
C589 C583 1.429 . S
C589 C590 1.523 . S
C590 C571 1.368 . S
C590 C584 1.368 . S
C590 C589 1.523 . S
C591 C575 1.429 . S
C591 C587 1.429 . S
C591 C592 1.523 . S
C592 C576 1.368 . S
C592 C588 1.368 . S
C592 C591 1.523 . S
H593 C568 0.950 . S
H594 C570 0.950 . S
H595 C571 0.949 . S
H596 C573 0.950 . S
H597 C575 0.950 . S
C598 C599 1.349 . S
C598 C600 1.327 . S
C598 H623 0.950 . S
C599 C598 1.349 . S
C599 C615 1.349 . S
C600 C598 1.327 . S
C600 C619 1.429 . S
C600 H624 0.950 . S
C601 C618 1.574 . S
C601 C620 1.368 . S
C601 H625 0.949 . S
H602 C606 0.949 . S
C603 C604 1.349 . S
C603 C605 1.327 . S
C603 H626 0.950 . S
C604 C603 1.349 . S
C604 C616 1.349 . S
C605 C603 1.327 . S
C605 C621 1.429 . S
C605 H627 0.950 . S
C606 H602 0.949 . S
C606 C614 1.574 . S
C606 C622 1.368 . S
H607 C615 0.950 . S
H608 C613 0.950 . S
H609 C614 0.949 . S
H610 C616 0.950 . S
H611 C617 0.950 . S
H612 C618 0.949 . S
C613 H608 0.950 . S
C613 C615 1.327 . S
C613 C619 1.429 . S
C614 C606 1.574 . S
C614 H609 0.949 . S
C614 C620 1.368 . S
C615 C599 1.349 . S
C615 H607 0.950 . S
C615 C613 1.327 . S
C616 C604 1.349 . S
C616 H610 0.950 . S
C616 C617 1.327 . S
C617 H611 0.950 . S
C617 C616 1.327 . S
C617 C621 1.429 . S
C618 C601 1.574 . S
C618 H612 0.949 . S
C618 C622 1.368 . S
C619 C600 1.429 . S
C619 C613 1.429 . S
C619 C620 1.523 . S
C620 C601 1.368 . S
C620 C614 1.368 . S
C620 C619 1.523 . S
C621 C605 1.429 . S
C621 C617 1.429 . S
C621 C622 1.523 . S
C622 C606 1.368 . S
C622 C618 1.368 . S
C622 C621 1.523 . S
H623 C598 0.950 . S
H624 C600 0.950 . S
H625 C601 0.949 . S
H626 C603 0.950 . S
H627 C605 0.950 . S
C628 C629 1.349 . S
C628 C630 1.327 . S
C628 H653 0.950 . S
C629 C628 1.349 . S
C629 C645 1.349 . S
C630 C628 1.327 . S
C630 C649 1.429 . S
C630 H654 0.950 . S
C631 C648 1.574 . S
C631 C650 1.368 . S
C631 H655 0.949 . S
H632 C636 0.949 . S
C633 C634 1.349 . S
C633 C635 1.327 . S
C633 H656 0.950 . S
C634 C633 1.349 . S
C634 C646 1.349 . S
C635 C633 1.327 . S
C635 C651 1.429 . S
C635 H657 0.950 . S
C636 H632 0.949 . S
C636 C644 1.574 . S
C636 C652 1.368 . S
H637 C645 0.950 . S
H638 C643 0.950 . S
H639 C644 0.949 . S
H640 C646 0.950 . S
H641 C647 0.950 . S
H642 C648 0.949 . S
C643 H638 0.950 . S
C643 C645 1.327 . S
C643 C649 1.429 . S
C644 C636 1.574 . S
C644 H639 0.949 . S
C644 C650 1.368 . S
C645 C629 1.349 . S
C645 H637 0.950 . S
C645 C643 1.327 . S
C646 C634 1.349 . S
C646 H640 0.950 . S
C646 C647 1.327 . S
C647 H641 0.950 . S
C647 C646 1.327 . S
C647 C651 1.429 . S
C648 C631 1.574 . S
C648 H642 0.949 . S
C648 C652 1.368 . S
C649 C630 1.429 . S
C649 C643 1.429 . S
C649 C650 1.523 . S
C650 C631 1.368 . S
C650 C644 1.368 . S
C650 C649 1.523 . S
C651 C635 1.429 . S
C651 C647 1.429 . S
C651 C652 1.523 . S
C652 C636 1.368 . S
C652 C648 1.368 . S
C652 C651 1.523 . S
H653 C628 0.950 . S
H654 C630 0.950 . S
H655 C631 0.949 . S
H656 C633 0.950 . S
H657 C635 0.950 . S
C658 C659 1.349 . S
C658 C660 1.327 . S
C658 H683 0.950 . S
C659 C658 1.349 . S
C659 C675 1.349 . S
C660 C658 1.327 . S
C660 C679 1.429 . S
C660 H684 0.950 . S
C661 C678 1.574 . S
C661 C680 1.368 . S
C661 H685 0.949 . S
H662 C666 0.949 . S
C663 C664 1.349 . S
C663 C665 1.327 . S
C663 H686 0.950 . S
C664 C663 1.349 . S
C664 C676 1.349 . S
C665 C663 1.327 . S
C665 C681 1.429 . S
C665 H687 0.950 . S
C666 H662 0.949 . S
C666 C674 1.574 . S
C666 C682 1.368 . S
H667 C675 0.950 . S
H668 C673 0.950 . S
H669 C674 0.949 . S
H670 C676 0.950 . S
H671 C677 0.950 . S
H672 C678 0.949 . S
C673 H668 0.950 . S
C673 C675 1.327 . S
C673 C679 1.429 . S
C674 C666 1.574 . S
C674 H669 0.949 . S
C674 C680 1.368 . S
C675 C659 1.349 . S
C675 H667 0.950 . S
C675 C673 1.327 . S
C676 C664 1.349 . S
C676 H670 0.950 . S
C676 C677 1.327 . S
C677 H671 0.950 . S
C677 C676 1.327 . S
C677 C681 1.429 . S
C678 C661 1.574 . S
C678 H672 0.949 . S
C678 C682 1.368 . S
C679 C660 1.429 . S
C679 C673 1.429 . S
C679 C680 1.523 . S
C680 C661 1.368 . S
C680 C674 1.368 . S
C680 C679 1.523 . S
C681 C665 1.429 . S
C681 C677 1.429 . S
C681 C682 1.523 . S
C682 C666 1.368 . S
C682 C678 1.368 . S
C682 C681 1.523 . S
H683 C658 0.950 . S
H684 C660 0.950 . S
H685 C661 0.949 . S
H686 C663 0.950 . S
H687 C665 0.950 . S
C688 C689 1.349 . S
C688 C690 1.327 . S
C688 H713 0.950 . S
C689 C688 1.349 . S
C689 C705 1.349 . S
C690 C688 1.327 . S
C690 C709 1.429 . S
C690 H714 0.950 . S
C691 C708 1.574 . S
C691 C710 1.368 . S
C691 H715 0.949 . S
H692 C696 0.949 . S
C693 C694 1.349 . S
C693 C695 1.327 . S
C693 H716 0.950 . S
C694 C693 1.349 . S
C694 C706 1.349 . S
C695 C693 1.327 . S
C695 C711 1.429 . S
C695 H717 0.950 . S
C696 H692 0.949 . S
C696 C704 1.574 . S
C696 C712 1.368 . S
H697 C705 0.950 . S
H698 C703 0.950 . S
H699 C704 0.949 . S
H700 C706 0.950 . S
H701 C707 0.950 . S
H702 C708 0.949 . S
C703 H698 0.950 . S
C703 C705 1.327 . S
C703 C709 1.429 . S
C704 C696 1.574 . S
C704 H699 0.949 . S
C704 C710 1.368 . S
C705 C689 1.349 . S
C705 H697 0.950 . S
C705 C703 1.327 . S
C706 C694 1.349 . S
C706 H700 0.950 . S
C706 C707 1.327 . S
C707 H701 0.950 . S
C707 C706 1.327 . S
C707 C711 1.429 . S
C708 C691 1.574 . S
C708 H702 0.949 . S
C708 C712 1.368 . S
C709 C690 1.429 . S
C709 C703 1.429 . S
C709 C710 1.523 . S
C710 C691 1.368 . S
C710 C704 1.368 . S
C710 C709 1.523 . S
C711 C695 1.429 . S
C711 C707 1.429 . S
C711 C712 1.523 . S
C712 C696 1.368 . S
C712 C708 1.368 . S
C712 C711 1.523 . S
H713 C688 0.950 . S
H714 C690 0.950 . S
H715 C691 0.949 . S
H716 C693 0.950 . S
H717 C695 0.950 . S
C718 C719 1.349 . S
C718 C720 1.327 . S
C718 H743 0.950 . S
C719 C718 1.349 . S
C719 C735 1.349 . S
C720 C718 1.327 . S
C720 C739 1.429 . S
C720 H744 0.950 . S
C721 C738 1.574 . S
C721 C740 1.368 . S
C721 H745 0.949 . S
H722 C726 0.949 . S
C723 C724 1.349 . S
C723 C725 1.327 . S
C723 H746 0.950 . S
C724 C723 1.349 . S
C724 C736 1.349 . S
C725 C723 1.327 . S
C725 C741 1.429 . S
C725 H747 0.950 . S
C726 H722 0.949 . S
C726 C734 1.574 . S
C726 C742 1.368 . S
H727 C735 0.950 . S
H728 C733 0.950 . S
H729 C734 0.949 . S
H730 C736 0.950 . S
H731 C737 0.950 . S
H732 C738 0.949 . S
C733 H728 0.950 . S
C733 C735 1.327 . S
C733 C739 1.429 . S
C734 C726 1.574 . S
C734 H729 0.949 . S
C734 C740 1.368 . S
C735 C719 1.349 . S
C735 H727 0.950 . S
C735 C733 1.327 . S
C736 C724 1.349 . S
C736 H730 0.950 . S
C736 C737 1.327 . S
C737 H731 0.950 . S
C737 C736 1.327 . S
C737 C741 1.429 . S
C738 C721 1.574 . S
C738 H732 0.949 . S
C738 C742 1.368 . S
C739 C720 1.429 . S
C739 C733 1.429 . S
C739 C740 1.523 . S
C740 C721 1.368 . S
C740 C734 1.368 . S
C740 C739 1.523 . S
C741 C725 1.429 . S
C741 C737 1.429 . S
C741 C742 1.523 . S
C742 C726 1.368 . S
C742 C738 1.368 . S
C742 C741 1.523 . S
H743 C718 0.950 . S
H744 C720 0.950 . S
H745 C721 0.949 . S
H746 C723 0.950 . S
H747 C725 0.950 . S
C748 C749 1.349 . S
C748 C750 1.327 . S
C748 H773 0.950 . S
C749 C748 1.349 . S
C749 C765 1.349 . S
C750 C748 1.327 . S
C750 C769 1.429 . S
C750 H774 0.950 . S
C751 C768 1.574 . S
C751 C770 1.368 . S
C751 H775 0.949 . S
H752 C756 0.949 . S
C753 C754 1.349 . S
C753 C755 1.327 . S
C753 H776 0.950 . S
C754 C753 1.349 . S
C754 C766 1.349 . S
C755 C753 1.327 . S
C755 C771 1.429 . S
C755 H777 0.950 . S
C756 H752 0.949 . S
C756 C764 1.574 . S
C756 C772 1.368 . S
H757 C765 0.950 . S
H758 C763 0.950 . S
H759 C764 0.949 . S
H760 C766 0.950 . S
H761 C767 0.950 . S
H762 C768 0.949 . S
C763 H758 0.950 . S
C763 C765 1.327 . S
C763 C769 1.429 . S
C764 C756 1.574 . S
C764 H759 0.949 . S
C764 C770 1.368 . S
C765 C749 1.349 . S
C765 H757 0.950 . S
C765 C763 1.327 . S
C766 C754 1.349 . S
C766 H760 0.950 . S
C766 C767 1.327 . S
C767 H761 0.950 . S
C767 C766 1.327 . S
C767 C771 1.429 . S
C768 C751 1.574 . S
C768 H762 0.949 . S
C768 C772 1.368 . S
C769 C750 1.429 . S
C769 C763 1.429 . S
C769 C770 1.523 . S
C770 C751 1.368 . S
C770 C764 1.368 . S
C770 C769 1.523 . S
C771 C755 1.429 . S
C771 C767 1.429 . S
C771 C772 1.523 . S
C772 C756 1.368 . S
C772 C768 1.368 . S
C772 C771 1.523 . S
H773 C748 0.950 . S
H774 C750 0.950 . S
H775 C751 0.949 . S
H776 C753 0.950 . S
H777 C755 0.950 . S
C778 C779 1.349 . S
C778 C780 1.327 . S
C778 H803 0.950 . S
C779 C778 1.349 . S
C779 C795 1.349 . S
C780 C778 1.327 . S
C780 C799 1.429 . S
C780 H804 0.950 . S
C781 C798 1.574 . S
C781 C800 1.368 . S
C781 H805 0.949 . S
H782 C786 0.949 . S
C783 C784 1.349 . S
C783 C785 1.327 . S
C783 H806 0.950 . S
C784 C783 1.349 . S
C784 C796 1.349 . S
C785 C783 1.327 . S
C785 C801 1.429 . S
C785 H807 0.950 . S
C786 H782 0.949 . S
C786 C794 1.574 . S
C786 C802 1.368 . S
H787 C795 0.950 . S
H788 C793 0.950 . S
H789 C794 0.949 . S
H790 C796 0.950 . S
H791 C797 0.950 . S
H792 C798 0.949 . S
C793 H788 0.950 . S
C793 C795 1.327 . S
C793 C799 1.429 . S
C794 C786 1.574 . S
C794 H789 0.949 . S
C794 C800 1.368 . S
C795 C779 1.349 . S
C795 H787 0.950 . S
C795 C793 1.327 . S
C796 C784 1.349 . S
C796 H790 0.950 . S
C796 C797 1.327 . S
C797 H791 0.950 . S
C797 C796 1.327 . S
C797 C801 1.429 . S
C798 C781 1.574 . S
C798 H792 0.949 . S
C798 C802 1.368 . S
C799 C780 1.429 . S
C799 C793 1.429 . S
C799 C800 1.523 . S
C800 C781 1.368 . S
C800 C794 1.368 . S
C800 C799 1.523 . S
C801 C785 1.429 . S
C801 C797 1.429 . S
C801 C802 1.523 . S
C802 C786 1.368 . S
C802 C798 1.368 . S
C802 C801 1.523 . S
H803 C778 0.950 . S
H804 C780 0.950 . S
H805 C781 0.949 . S
H806 C783 0.950 . S
H807 C785 0.950 . S
C808 C809 1.349 . S
C808 C810 1.327 . S
C808 H833 0.950 . S
C809 C808 1.349 . S
C809 C825 1.349 . S
C810 C808 1.327 . S
C810 C829 1.429 . S
C810 H834 0.950 . S
C811 C828 1.574 . S
C811 C830 1.368 . S
C811 H835 0.949 . S
H812 C816 0.949 . S
C813 C814 1.349 . S
C813 C815 1.327 . S
C813 H836 0.950 . S
C814 C813 1.349 . S
C814 C826 1.349 . S
C815 C813 1.327 . S
C815 C831 1.429 . S
C815 H837 0.950 . S
C816 H812 0.949 . S
C816 C824 1.574 . S
C816 C832 1.368 . S
H817 C825 0.950 . S
H818 C823 0.950 . S
H819 C824 0.949 . S
H820 C826 0.950 . S
H821 C827 0.950 . S
H822 C828 0.949 . S
C823 H818 0.950 . S
C823 C825 1.327 . S
C823 C829 1.429 . S
C824 C816 1.574 . S
C824 H819 0.949 . S
C824 C830 1.368 . S
C825 C809 1.349 . S
C825 H817 0.950 . S
C825 C823 1.327 . S
C826 C814 1.349 . S
C826 H820 0.950 . S
C826 C827 1.327 . S
C827 H821 0.950 . S
C827 C826 1.327 . S
C827 C831 1.429 . S
C828 C811 1.574 . S
C828 H822 0.949 . S
C828 C832 1.368 . S
C829 C810 1.429 . S
C829 C823 1.429 . S
C829 C830 1.523 . S
C830 C811 1.368 . S
C830 C824 1.368 . S
C830 C829 1.523 . S
C831 C815 1.429 . S
C831 C827 1.429 . S
C831 C832 1.523 . S
C832 C816 1.368 . S
C832 C828 1.368 . S
C832 C831 1.523 . S
H833 C808 0.950 . S
H834 C810 0.950 . S
H835 C811 0.949 . S
H836 C813 0.950 . S
H837 C815 0.950 . S
C838 C839 1.349 . S
C838 C840 1.327 . S
C838 H863 0.950 . S
C839 C838 1.349 . S
C839 C855 1.349 . S
C840 C838 1.327 . S
C840 C859 1.429 . S
C840 H864 0.950 . S
C841 C858 1.574 . S
C841 C860 1.368 . S
C841 H865 0.949 . S
H842 C846 0.949 . S
C843 C844 1.349 . S
C843 C845 1.327 . S
C843 H866 0.950 . S
C844 C843 1.349 . S
C844 C856 1.349 . S
C845 C843 1.327 . S
C845 C861 1.429 . S
C845 H867 0.950 . S
C846 H842 0.949 . S
C846 C854 1.574 . S
C846 C862 1.368 . S
H847 C855 0.950 . S
H848 C853 0.950 . S
H849 C854 0.949 . S
H850 C856 0.950 . S
H851 C857 0.950 . S
H852 C858 0.949 . S
C853 H848 0.950 . S
C853 C855 1.327 . S
C853 C859 1.429 . S
C854 C846 1.574 . S
C854 H849 0.949 . S
C854 C860 1.368 . S
C855 C839 1.349 . S
C855 H847 0.950 . S
C855 C853 1.327 . S
C856 C844 1.349 . S
C856 H850 0.950 . S
C856 C857 1.327 . S
C857 H851 0.950 . S
C857 C856 1.327 . S
C857 C861 1.429 . S
C858 C841 1.574 . S
C858 H852 0.949 . S
C858 C862 1.368 . S
C859 C840 1.429 . S
C859 C853 1.429 . S
C859 C860 1.523 . S
C860 C841 1.368 . S
C860 C854 1.368 . S
C860 C859 1.523 . S
C861 C845 1.429 . S
C861 C857 1.429 . S
C861 C862 1.523 . S
C862 C846 1.368 . S
C862 C858 1.368 . S
C862 C861 1.523 . S
H863 C838 0.950 . S
H864 C840 0.950 . S
H865 C841 0.949 . S
H866 C843 0.950 . S
H867 C845 0.950 . S
C868 C869 1.349 . S
C868 C870 1.327 . S
C868 H893 0.950 . S
C869 C868 1.349 . S
C869 C885 1.349 . S
C870 C868 1.327 . S
C870 C889 1.429 . S
C870 H894 0.950 . S
C871 C888 1.574 . S
C871 C890 1.368 . S
C871 H895 0.949 . S
H872 C876 0.949 . S
C873 C874 1.349 . S
C873 C875 1.327 . S
C873 H896 0.950 . S
C874 C873 1.349 . S
C874 C886 1.349 . S
C875 C873 1.327 . S
C875 C891 1.429 . S
C875 H897 0.950 . S
C876 H872 0.949 . S
C876 C884 1.574 . S
C876 C892 1.368 . S
H877 C885 0.950 . S
H878 C883 0.950 . S
H879 C884 0.949 . S
H880 C886 0.950 . S
H881 C887 0.950 . S
H882 C888 0.949 . S
C883 H878 0.950 . S
C883 C885 1.327 . S
C883 C889 1.429 . S
C884 C876 1.574 . S
C884 H879 0.949 . S
C884 C890 1.368 . S
C885 C869 1.349 . S
C885 H877 0.950 . S
C885 C883 1.327 . S
C886 C874 1.349 . S
C886 H880 0.950 . S
C886 C887 1.327 . S
C887 H881 0.950 . S
C887 C886 1.327 . S
C887 C891 1.429 . S
C888 C871 1.574 . S
C888 H882 0.949 . S
C888 C892 1.368 . S
C889 C870 1.429 . S
C889 C883 1.429 . S
C889 C890 1.523 . S
C890 C871 1.368 . S
C890 C884 1.368 . S
C890 C889 1.523 . S
C891 C875 1.429 . S
C891 C887 1.429 . S
C891 C892 1.523 . S
C892 C876 1.368 . S
C892 C888 1.368 . S
C892 C891 1.523 . S
H893 C868 0.950 . S
H894 C870 0.950 . S
H895 C871 0.949 . S
H896 C873 0.950 . S
H897 C875 0.950 . S
C898 C899 1.349 . S
C898 C900 1.327 . S
C898 H923 0.950 . S
C899 C898 1.349 . S
C899 C915 1.349 . S
C900 C898 1.327 . S
C900 C919 1.429 . S
C900 H924 0.950 . S
C901 C918 1.574 . S
C901 C920 1.368 . S
C901 H925 0.949 . S
H902 C906 0.949 . S
C903 C904 1.349 . S
C903 C905 1.327 . S
C903 H926 0.950 . S
C904 C903 1.349 . S
C904 C916 1.349 . S
C905 C903 1.327 . S
C905 C921 1.429 . S
C905 H927 0.950 . S
C906 H902 0.949 . S
C906 C914 1.574 . S
C906 C922 1.368 . S
H907 C915 0.950 . S
H908 C913 0.950 . S
H909 C914 0.949 . S
H910 C916 0.950 . S
H911 C917 0.950 . S
H912 C918 0.949 . S
C913 H908 0.950 . S
C913 C915 1.327 . S
C913 C919 1.429 . S
C914 C906 1.574 . S
C914 H909 0.949 . S
C914 C920 1.368 . S
C915 C899 1.349 . S
C915 H907 0.950 . S
C915 C913 1.327 . S
C916 C904 1.349 . S
C916 H910 0.950 . S
C916 C917 1.327 . S
C917 H911 0.950 . S
C917 C916 1.327 . S
C917 C921 1.429 . S
C918 C901 1.574 . S
C918 H912 0.949 . S
C918 C922 1.368 . S
C919 C900 1.429 . S
C919 C913 1.429 . S
C919 C920 1.523 . S
C920 C901 1.368 . S
C920 C914 1.368 . S
C920 C919 1.523 . S
C921 C905 1.429 . S
C921 C917 1.429 . S
C921 C922 1.523 . S
C922 C906 1.368 . S
C922 C918 1.368 . S
C922 C921 1.523 . S
H923 C898 0.950 . S
H924 C900 0.950 . S
H925 C901 0.949 . S
H926 C903 0.950 . S
H927 C905 0.950 . S
C928 C929 1.349 . S
C928 C930 1.327 . S
C928 H953 0.950 . S
C929 C928 1.349 . S
C929 C945 1.349 . S
C930 C928 1.327 . S
C930 C949 1.429 . S
C930 H954 0.950 . S
C931 C948 1.574 1_554 S
C931 C950 1.368 . S
C931 H955 0.949 . S
H932 C936 0.949 . S
C933 C934 1.349 . S
C933 C935 1.327 . S
C933 H956 0.950 . S
C934 C933 1.349 . S
C934 C946 1.349 . S
C935 C933 1.327 . S
C935 C951 1.429 . S
C935 H957 0.950 . S
C936 H932 0.949 . S
C936 C944 1.574 1_556 S
C936 C952 1.368 . S
H937 C945 0.950 . S
H938 C943 0.950 . S
H939 C944 0.949 . S
H940 C946 0.950 . S
H941 C947 0.950 . S
H942 C948 0.949 . S
C943 H938 0.950 . S
C943 C945 1.327 . S
C943 C949 1.429 . S
C944 C936 1.574 1_554 S
C944 H939 0.949 . S
C944 C950 1.368 . S
C945 C929 1.349 . S
C945 H937 0.950 . S
C945 C943 1.327 . S
C946 C934 1.349 . S
C946 H940 0.950 . S
C946 C947 1.327 . S
C947 H941 0.950 . S
C947 C946 1.327 . S
C947 C951 1.429 . S
C948 C931 1.574 1_556 S
C948 H942 0.949 . S
C948 C952 1.368 . S
C949 C930 1.429 . S
C949 C943 1.429 . S
C949 C950 1.523 . S
C950 C931 1.368 . S
C950 C944 1.368 . S
C950 C949 1.523 . S
C951 C935 1.429 . S
C951 C947 1.429 . S
C951 C952 1.523 . S
C952 C936 1.368 . S
C952 C948 1.368 . S
C952 C951 1.523 . S
H953 C928 0.950 . S
H954 C930 0.950 . S
H955 C931 0.949 . S
H956 C933 0.950 . S
H957 C935 0.950 . S
C958 C959 1.349 . S
C958 C960 1.327 . S
C958 H983 0.950 . S
C959 C958 1.349 . S
C959 C975 1.349 . S
C960 C958 1.327 . S
C960 C979 1.429 . S
C960 H984 0.950 . S
C961 C978 1.574 1_556 S
C961 C980 1.368 . S
C961 H985 0.949 . S
H962 C966 0.949 . S
C963 C964 1.349 . S
C963 C965 1.327 . S
C963 H986 0.950 . S
C964 C963 1.349 . S
C964 C976 1.349 . S
C965 C963 1.327 . S
C965 C981 1.429 . S
C965 H987 0.950 . S
C966 H962 0.949 . S
C966 C974 1.574 1_554 S
C966 C982 1.368 . S
H967 C975 0.950 . S
H968 C973 0.950 . S
H969 C974 0.949 . S
H970 C976 0.950 . S
H971 C977 0.950 . S
H972 C978 0.949 . S
C973 H968 0.950 . S
C973 C975 1.327 . S
C973 C979 1.429 . S
C974 C966 1.574 1_556 S
C974 H969 0.949 . S
C974 C980 1.368 . S
C975 C959 1.349 . S
C975 H967 0.950 . S
C975 C973 1.327 . S
C976 C964 1.349 . S
C976 H970 0.950 . S
C976 C977 1.327 . S
C977 H971 0.950 . S
C977 C976 1.327 . S
C977 C981 1.429 . S
C978 C961 1.574 1_554 S
C978 H972 0.949 . S
C978 C982 1.368 . S
C979 C960 1.429 . S
C979 C973 1.429 . S
C979 C980 1.523 . S
C980 C961 1.368 . S
C980 C974 1.368 . S
C980 C979 1.523 . S
C981 C965 1.429 . S
C981 C977 1.429 . S
C981 C982 1.523 . S
C982 C966 1.368 . S
C982 C978 1.368 . S
C982 C981 1.523 . S
H983 C958 0.950 . S
H984 C960 0.950 . S
H985 C961 0.949 . S
H986 C963 0.950 . S
H987 C965 0.950 . S
C988 C989 1.349 . S
C988 C990 1.327 . S
C988 H1013 0.950 . S
C989 C988 1.349 . S
C989 C1005 1.349 . S
C990 C988 1.327 . S
C990 C1009 1.429 . S
C990 H1014 0.950 . S
C991 C1008 1.574 1_556 S
C991 C1010 1.368 . S
C991 H1015 0.949 . S
H992 C996 0.949 . S
C993 C994 1.349 . S
C993 C995 1.327 . S
C993 H1016 0.950 . S
C994 C993 1.349 . S
C994 C1006 1.349 . S
C995 C993 1.327 . S
C995 C1011 1.429 . S
C995 H1017 0.950 . S
C996 H992 0.949 . S
C996 C1004 1.574 1_554 S
C996 C1012 1.368 . S
H997 C1005 0.950 . S
H998 C1003 0.950 . S
H999 C1004 0.949 . S
H1000 C1006 0.950 . S
H1001 C1007 0.950 . S
H1002 C1008 0.949 . S
C1003 H998 0.950 . S
C1003 C1005 1.327 . S
C1003 C1009 1.429 . S
C1004 C996 1.574 1_556 S
C1004 H999 0.949 . S
C1004 C1010 1.368 . S
C1005 C989 1.349 . S
C1005 H997 0.950 . S
C1005 C1003 1.327 . S
C1006 C994 1.349 . S
C1006 H1000 0.950 . S
C1006 C1007 1.327 . S
C1007 H1001 0.950 . S
C1007 C1006 1.327 . S
C1007 C1011 1.429 . S
C1008 C991 1.574 1_554 S
C1008 H1002 0.949 . S
C1008 C1012 1.368 . S
C1009 C990 1.429 . S
C1009 C1003 1.429 . S
C1009 C1010 1.523 . S
C1010 C991 1.368 . S
C1010 C1004 1.368 . S
C1010 C1009 1.523 . S
C1011 C995 1.429 . S
C1011 C1007 1.429 . S
C1011 C1012 1.523 . S
C1012 C996 1.368 . S
C1012 C1008 1.368 . S
C1012 C1011 1.523 . S
H1013 C988 0.950 . S
H1014 C990 0.950 . S
H1015 C991 0.949 . S
H1016 C993 0.950 . S
H1017 C995 0.950 . S
C1018 C1019 1.349 . S
C1018 C1020 1.327 . S
C1018 H1043 0.950 . S
C1019 C1018 1.349 . S
C1019 C1035 1.349 . S
C1020 C1018 1.327 . S
C1020 C1039 1.429 . S
C1020 H1044 0.950 . S
C1021 C1038 1.574 1_556 S
C1021 C1040 1.368 . S
C1021 H1045 0.949 . S
H1022 C1026 0.949 . S
C1023 C1024 1.349 . S
C1023 C1025 1.327 . S
C1023 H1046 0.950 . S
C1024 C1023 1.349 . S
C1024 C1036 1.349 . S
C1025 C1023 1.327 . S
C1025 C1041 1.429 . S
C1025 H1047 0.950 . S
C1026 H1022 0.949 . S
C1026 C1034 1.574 1_554 S
C1026 C1042 1.368 . S
H1027 C1035 0.950 . S
H1028 C1033 0.950 . S
H1029 C1034 0.949 . S
H1030 C1036 0.950 . S
H1031 C1037 0.950 . S
H1032 C1038 0.949 . S
C1033 H1028 0.950 . S
C1033 C1035 1.327 . S
C1033 C1039 1.429 . S
C1034 C1026 1.574 1_556 S
C1034 H1029 0.949 . S
C1034 C1040 1.368 . S
C1035 C1019 1.349 . S
C1035 H1027 0.950 . S
C1035 C1033 1.327 . S
C1036 C1024 1.349 . S
C1036 H1030 0.950 . S
C1036 C1037 1.327 . S
C1037 H1031 0.950 . S
C1037 C1036 1.327 . S
C1037 C1041 1.429 . S
C1038 C1021 1.574 1_554 S
C1038 H1032 0.949 . S
C1038 C1042 1.368 . S
C1039 C1020 1.429 . S
C1039 C1033 1.429 . S
C1039 C1040 1.523 . S
C1040 C1021 1.368 . S
C1040 C1034 1.368 . S
C1040 C1039 1.523 . S
C1041 C1025 1.429 . S
C1041 C1037 1.429 . S
C1041 C1042 1.523 . S
C1042 C1026 1.368 . S
C1042 C1038 1.368 . S
C1042 C1041 1.523 . S
H1043 C1018 0.950 . S
H1044 C1020 0.950 . S
H1045 C1021 0.949 . S
H1046 C1023 0.950 . S
H1047 C1025 0.950 . S
C1048 C1049 1.349 . S
C1048 C1050 1.327 . S
C1048 H1073 0.950 . S
C1049 C1048 1.349 . S
C1049 C1065 1.349 . S
C1050 C1048 1.327 . S
C1050 C1069 1.429 . S
C1050 H1074 0.950 . S
C1051 C1068 1.574 . S
C1051 C1070 1.368 . S
C1051 H1075 0.949 . S
H1052 C1056 0.949 . S
C1053 C1054 1.349 . S
C1053 C1055 1.327 . S
C1053 H1076 0.950 . S
C1054 C1053 1.349 . S
C1054 C1066 1.349 . S
C1055 C1053 1.327 . S
C1055 C1071 1.429 . S
C1055 H1077 0.950 . S
C1056 H1052 0.949 . S
C1056 C1064 1.574 . S
C1056 C1072 1.368 . S
H1057 C1065 0.950 . S
H1058 C1063 0.950 . S
H1059 C1064 0.949 . S
H1060 C1066 0.950 . S
H1061 C1067 0.950 . S
H1062 C1068 0.949 . S
C1063 H1058 0.950 . S
C1063 C1065 1.327 . S
C1063 C1069 1.429 . S
C1064 C1056 1.574 . S
C1064 H1059 0.949 . S
C1064 C1070 1.368 . S
C1065 C1049 1.349 . S
C1065 H1057 0.950 . S
C1065 C1063 1.327 . S
C1066 C1054 1.349 . S
C1066 H1060 0.950 . S
C1066 C1067 1.327 . S
C1067 H1061 0.950 . S
C1067 C1066 1.327 . S
C1067 C1071 1.429 . S
C1068 C1051 1.574 . S
C1068 H1062 0.949 . S
C1068 C1072 1.368 . S
C1069 C1050 1.429 . S
C1069 C1063 1.429 . S
C1069 C1070 1.523 . S
C1070 C1051 1.368 . S
C1070 C1064 1.368 . S
C1070 C1069 1.523 . S
C1071 C1055 1.429 . S
C1071 C1067 1.429 . S
C1071 C1072 1.523 . S
C1072 C1056 1.368 . S
C1072 C1068 1.368 . S
C1072 C1071 1.523 . S
H1073 C1048 0.950 . S
H1074 C1050 0.950 . S
H1075 C1051 0.949 . S
H1076 C1053 0.950 . S
H1077 C1055 0.950 . S
C1078 C1079 1.349 . S
C1078 C1080 1.327 . S
C1078 H1103 0.950 . S
C1079 C1078 1.349 . S
C1079 C1095 1.349 . S
C1080 C1078 1.327 . S
C1080 C1099 1.429 . S
C1080 H1104 0.950 . S
C1081 C1098 1.574 . S
C1081 C1100 1.368 . S
C1081 H1105 0.949 . S
H1082 C1086 0.949 . S
C1083 C1084 1.349 . S
C1083 C1085 1.327 . S
C1083 H1106 0.950 . S
C1084 C1083 1.349 . S
C1084 C1096 1.349 . S
C1085 C1083 1.327 . S
C1085 C1101 1.429 . S
C1085 H1107 0.950 . S
C1086 H1082 0.949 . S
C1086 C1094 1.574 . S
C1086 C1102 1.368 . S
H1087 C1095 0.950 . S
H1088 C1093 0.950 . S
H1089 C1094 0.949 . S
H1090 C1096 0.950 . S
H1091 C1097 0.950 . S
H1092 C1098 0.949 . S
C1093 H1088 0.950 . S
C1093 C1095 1.327 . S
C1093 C1099 1.429 . S
C1094 C1086 1.574 . S
C1094 H1089 0.949 . S
C1094 C1100 1.368 . S
C1095 C1079 1.349 . S
C1095 H1087 0.950 . S
C1095 C1093 1.327 . S
C1096 C1084 1.349 . S
C1096 H1090 0.950 . S
C1096 C1097 1.327 . S
C1097 H1091 0.950 . S
C1097 C1096 1.327 . S
C1097 C1101 1.429 . S
C1098 C1081 1.574 . S
C1098 H1092 0.949 . S
C1098 C1102 1.368 . S
C1099 C1080 1.429 . S
C1099 C1093 1.429 . S
C1099 C1100 1.523 . S
C1100 C1081 1.368 . S
C1100 C1094 1.368 . S
C1100 C1099 1.523 . S
C1101 C1085 1.429 . S
C1101 C1097 1.429 . S
C1101 C1102 1.523 . S
C1102 C1086 1.368 . S
C1102 C1098 1.368 . S
C1102 C1101 1.523 . S
H1103 C1078 0.950 . S
H1104 C1080 0.950 . S
H1105 C1081 0.949 . S
H1106 C1083 0.950 . S
H1107 C1085 0.950 . S
C1108 C1109 1.349 . S
C1108 C1110 1.327 . S
C1108 H1133 0.950 . S
C1109 C1108 1.349 . S
C1109 C1125 1.349 . S
C1110 C1108 1.327 . S
C1110 C1129 1.429 . S
C1110 H1134 0.950 . S
C1111 C1128 1.574 . S
C1111 C1130 1.368 . S
C1111 H1135 0.949 . S
H1112 C1116 0.949 . S
C1113 C1114 1.349 . S
C1113 C1115 1.327 . S
C1113 H1136 0.950 . S
C1114 C1113 1.349 . S
C1114 C1126 1.349 . S
C1115 C1113 1.327 . S
C1115 C1131 1.429 . S
C1115 H1137 0.950 . S
C1116 H1112 0.949 . S
C1116 C1124 1.574 . S
C1116 C1132 1.368 . S
H1117 C1125 0.950 . S
H1118 C1123 0.950 . S
H1119 C1124 0.949 . S
H1120 C1126 0.950 . S
H1121 C1127 0.950 . S
H1122 C1128 0.949 . S
C1123 H1118 0.950 . S
C1123 C1125 1.327 . S
C1123 C1129 1.429 . S
C1124 C1116 1.574 . S
C1124 H1119 0.949 . S
C1124 C1130 1.368 . S
C1125 C1109 1.349 . S
C1125 H1117 0.950 . S
C1125 C1123 1.327 . S
C1126 C1114 1.349 . S
C1126 H1120 0.950 . S
C1126 C1127 1.327 . S
C1127 H1121 0.950 . S
C1127 C1126 1.327 . S
C1127 C1131 1.429 . S
C1128 C1111 1.574 . S
C1128 H1122 0.949 . S
C1128 C1132 1.368 . S
C1129 C1110 1.429 . S
C1129 C1123 1.429 . S
C1129 C1130 1.523 . S
C1130 C1111 1.368 . S
C1130 C1124 1.368 . S
C1130 C1129 1.523 . S
C1131 C1115 1.429 . S
C1131 C1127 1.429 . S
C1131 C1132 1.523 . S
C1132 C1116 1.368 . S
C1132 C1128 1.368 . S
C1132 C1131 1.523 . S
H1133 C1108 0.950 . S
H1134 C1110 0.950 . S
H1135 C1111 0.949 . S
H1136 C1113 0.950 . S
H1137 C1115 0.950 . S
C1138 C1139 1.349 . S
C1138 C1140 1.327 . S
C1138 H1163 0.950 . S
C1139 C1138 1.349 . S
C1139 C1155 1.349 . S
C1140 C1138 1.327 . S
C1140 C1159 1.429 . S
C1140 H1164 0.950 . S
C1141 C1158 1.574 . S
C1141 C1160 1.368 . S
C1141 H1165 0.949 . S
H1142 C1146 0.949 . S
C1143 C1144 1.349 . S
C1143 C1145 1.327 . S
C1143 H1166 0.950 . S
C1144 C1143 1.349 . S
C1144 C1156 1.349 . S
C1145 C1143 1.327 . S
C1145 C1161 1.429 . S
C1145 H1167 0.950 . S
C1146 H1142 0.949 . S
C1146 C1154 1.574 . S
C1146 C1162 1.368 . S
H1147 C1155 0.950 . S
H1148 C1153 0.950 . S
H1149 C1154 0.949 . S
H1150 C1156 0.950 . S
H1151 C1157 0.950 . S
H1152 C1158 0.949 . S
C1153 H1148 0.950 . S
C1153 C1155 1.327 . S
C1153 C1159 1.429 . S
C1154 C1146 1.574 . S
C1154 H1149 0.949 . S
C1154 C1160 1.368 . S
C1155 C1139 1.349 . S
C1155 H1147 0.950 . S
C1155 C1153 1.327 . S
C1156 C1144 1.349 . S
C1156 H1150 0.950 . S
C1156 C1157 1.327 . S
C1157 H1151 0.950 . S
C1157 C1156 1.327 . S
C1157 C1161 1.429 . S
C1158 C1141 1.574 . S
C1158 H1152 0.949 . S
C1158 C1162 1.368 . S
C1159 C1140 1.429 . S
C1159 C1153 1.429 . S
C1159 C1160 1.523 . S
C1160 C1141 1.368 . S
C1160 C1154 1.368 . S
C1160 C1159 1.523 . S
C1161 C1145 1.429 . S
C1161 C1157 1.429 . S
C1161 C1162 1.523 . S
C1162 C1146 1.368 . S
C1162 C1158 1.368 . S
C1162 C1161 1.523 . S
H1163 C1138 0.950 . S
H1164 C1140 0.950 . S
H1165 C1141 0.949 . S
H1166 C1143 0.950 . S
H1167 C1145 0.950 . S
C1168 C1169 1.349 . S
C1168 C1170 1.327 . S
C1168 H1193 0.950 . S
C1169 C1168 1.349 . S
C1169 C1185 1.349 . S
C1170 C1168 1.327 . S
C1170 C1189 1.429 . S
C1170 H1194 0.950 . S
C1171 C1188 1.574 . S
C1171 C1190 1.368 . S
C1171 H1195 0.949 . S
H1172 C1176 0.949 . S
C1173 C1174 1.349 . S
C1173 C1175 1.327 . S
C1173 H1196 0.950 . S
C1174 C1173 1.349 . S
C1174 C1186 1.349 . S
C1175 C1173 1.327 . S
C1175 C1191 1.429 . S
C1175 H1197 0.950 . S
C1176 H1172 0.949 . S
C1176 C1184 1.574 . S
C1176 C1192 1.368 . S
H1177 C1185 0.950 . S
H1178 C1183 0.950 . S
H1179 C1184 0.949 . S
H1180 C1186 0.950 . S
H1181 C1187 0.950 . S
H1182 C1188 0.949 . S
C1183 H1178 0.950 . S
C1183 C1185 1.327 . S
C1183 C1189 1.429 . S
C1184 C1176 1.574 . S
C1184 H1179 0.949 . S
C1184 C1190 1.368 . S
C1185 C1169 1.349 . S
C1185 H1177 0.950 . S
C1185 C1183 1.327 . S
C1186 C1174 1.349 . S
C1186 H1180 0.950 . S
C1186 C1187 1.327 . S
C1187 H1181 0.950 . S
C1187 C1186 1.327 . S
C1187 C1191 1.429 . S
C1188 C1171 1.574 . S
C1188 H1182 0.949 . S
C1188 C1192 1.368 . S
C1189 C1170 1.429 . S
C1189 C1183 1.429 . S
C1189 C1190 1.523 . S
C1190 C1171 1.368 . S
C1190 C1184 1.368 . S
C1190 C1189 1.523 . S
C1191 C1175 1.429 . S
C1191 C1187 1.429 . S
C1191 C1192 1.523 . S
C1192 C1176 1.368 . S
C1192 C1188 1.368 . S
C1192 C1191 1.523 . S
H1193 C1168 0.950 . S
H1194 C1170 0.950 . S
H1195 C1171 0.949 . S
H1196 C1173 0.950 . S
H1197 C1175 0.950 . S
C1198 C1199 1.349 . S
C1198 C1200 1.327 . S
C1198 H1223 0.950 . S
C1199 C1198 1.349 . S
C1199 C1215 1.349 . S
C1200 C1198 1.327 . S
C1200 C1219 1.429 . S
C1200 H1224 0.950 . S
C1201 C1218 1.574 . S
C1201 C1220 1.368 . S
C1201 H1225 0.949 . S
H1202 C1206 0.949 . S
C1203 C1204 1.349 . S
C1203 C1205 1.327 . S
C1203 H1226 0.950 . S
C1204 C1203 1.349 . S
C1204 C1216 1.349 . S
C1205 C1203 1.327 . S
C1205 C1221 1.429 . S
C1205 H1227 0.950 . S
C1206 H1202 0.949 . S
C1206 C1214 1.574 . S
C1206 C1222 1.368 . S
H1207 C1215 0.950 . S
H1208 C1213 0.950 . S
H1209 C1214 0.949 . S
H1210 C1216 0.950 . S
H1211 C1217 0.950 . S
H1212 C1218 0.949 . S
C1213 H1208 0.950 . S
C1213 C1215 1.327 . S
C1213 C1219 1.429 . S
C1214 C1206 1.574 . S
C1214 H1209 0.949 . S
C1214 C1220 1.368 . S
C1215 C1199 1.349 . S
C1215 H1207 0.950 . S
C1215 C1213 1.327 . S
C1216 C1204 1.349 . S
C1216 H1210 0.950 . S
C1216 C1217 1.327 . S
C1217 H1211 0.950 . S
C1217 C1216 1.327 . S
C1217 C1221 1.429 . S
C1218 C1201 1.574 . S
C1218 H1212 0.949 . S
C1218 C1222 1.368 . S
C1219 C1200 1.429 . S
C1219 C1213 1.429 . S
C1219 C1220 1.523 . S
C1220 C1201 1.368 . S
C1220 C1214 1.368 . S
C1220 C1219 1.523 . S
C1221 C1205 1.429 . S
C1221 C1217 1.429 . S
C1221 C1222 1.523 . S
C1222 C1206 1.368 . S
C1222 C1218 1.368 . S
C1222 C1221 1.523 . S
H1223 C1198 0.950 . S
H1224 C1200 0.950 . S
H1225 C1201 0.949 . S
H1226 C1203 0.950 . S
H1227 C1205 0.950 . S
C1228 C1229 1.349 . S
C1228 C1230 1.327 . S
C1228 H1253 0.950 . S
C1229 C1228 1.349 . S
C1229 C1245 1.349 . S
C1230 C1228 1.327 . S
C1230 C1249 1.429 . S
C1230 H1254 0.950 . S
C1231 C1248 1.574 . S
C1231 C1250 1.368 . S
C1231 H1255 0.949 . S
H1232 C1236 0.949 . S
C1233 C1234 1.349 . S
C1233 C1235 1.327 . S
C1233 H1256 0.950 . S
C1234 C1233 1.349 . S
C1234 C1246 1.349 . S
C1235 C1233 1.327 . S
C1235 C1251 1.429 . S
C1235 H1257 0.950 . S
C1236 H1232 0.949 . S
C1236 C1244 1.574 . S
C1236 C1252 1.368 . S
H1237 C1245 0.950 . S
H1238 C1243 0.950 . S
H1239 C1244 0.949 . S
H1240 C1246 0.950 . S
H1241 C1247 0.950 . S
H1242 C1248 0.949 . S
C1243 H1238 0.950 . S
C1243 C1245 1.327 . S
C1243 C1249 1.429 . S
C1244 C1236 1.574 . S
C1244 H1239 0.949 . S
C1244 C1250 1.368 . S
C1245 C1229 1.349 . S
C1245 H1237 0.950 . S
C1245 C1243 1.327 . S
C1246 C1234 1.349 . S
C1246 H1240 0.950 . S
C1246 C1247 1.327 . S
C1247 H1241 0.950 . S
C1247 C1246 1.327 . S
C1247 C1251 1.429 . S
C1248 C1231 1.574 . S
C1248 H1242 0.949 . S
C1248 C1252 1.368 . S
C1249 C1230 1.429 . S
C1249 C1243 1.429 . S
C1249 C1250 1.523 . S
C1250 C1231 1.368 . S
C1250 C1244 1.368 . S
C1250 C1249 1.523 . S
C1251 C1235 1.429 . S
C1251 C1247 1.429 . S
C1251 C1252 1.523 . S
C1252 C1236 1.368 . S
C1252 C1248 1.368 . S
C1252 C1251 1.523 . S
H1253 C1228 0.950 . S
H1254 C1230 0.950 . S
H1255 C1231 0.949 . S
H1256 C1233 0.950 . S
H1257 C1235 0.950 . S
C1258 C1259 1.349 . S
C1258 C1260 1.327 . S
C1258 H1283 0.950 . S
C1259 C1258 1.349 . S
C1259 C1275 1.349 . S
C1260 C1258 1.327 . S
C1260 C1279 1.429 . S
C1260 H1284 0.950 . S
C1261 C1278 1.574 . S
C1261 C1280 1.368 . S
C1261 H1285 0.949 . S
H1262 C1266 0.949 . S
C1263 C1264 1.349 . S
C1263 C1265 1.327 . S
C1263 H1286 0.950 . S
C1264 C1263 1.349 . S
C1264 C1276 1.349 . S
C1265 C1263 1.327 . S
C1265 C1281 1.429 . S
C1265 H1287 0.950 . S
C1266 H1262 0.949 . S
C1266 C1274 1.574 . S
C1266 C1282 1.368 . S
H1267 C1275 0.950 . S
H1268 C1273 0.950 . S
H1269 C1274 0.949 . S
H1270 C1276 0.950 . S
H1271 C1277 0.950 . S
H1272 C1278 0.949 . S
C1273 H1268 0.950 . S
C1273 C1275 1.327 . S
C1273 C1279 1.429 . S
C1274 C1266 1.574 . S
C1274 H1269 0.949 . S
C1274 C1280 1.368 . S
C1275 C1259 1.349 . S
C1275 H1267 0.950 . S
C1275 C1273 1.327 . S
C1276 C1264 1.349 . S
C1276 H1270 0.950 . S
C1276 C1277 1.327 . S
C1277 H1271 0.950 . S
C1277 C1276 1.327 . S
C1277 C1281 1.429 . S
C1278 C1261 1.574 . S
C1278 H1272 0.949 . S
C1278 C1282 1.368 . S
C1279 C1260 1.429 . S
C1279 C1273 1.429 . S
C1279 C1280 1.523 . S
C1280 C1261 1.368 . S
C1280 C1274 1.368 . S
C1280 C1279 1.523 . S
C1281 C1265 1.429 . S
C1281 C1277 1.429 . S
C1281 C1282 1.523 . S
C1282 C1266 1.368 . S
C1282 C1278 1.368 . S
C1282 C1281 1.523 . S
H1283 C1258 0.950 . S
H1284 C1260 0.950 . S
H1285 C1261 0.949 . S
H1286 C1263 0.950 . S
H1287 C1265 0.950 . S
C1288 C1289 1.349 . S
C1288 C1290 1.327 . S
C1288 H1313 0.950 . S
C1289 C1288 1.349 . S
C1289 C1305 1.349 . S
C1290 C1288 1.327 . S
C1290 C1309 1.429 . S
C1290 H1314 0.950 . S
C1291 C1308 1.574 1_556 S
C1291 C1310 1.368 . S
C1291 H1315 0.949 . S
H1292 C1296 0.949 . S
C1293 C1294 1.349 . S
C1293 C1295 1.327 . S
C1293 H1316 0.950 . S
C1294 C1293 1.349 . S
C1294 C1306 1.349 . S
C1295 C1293 1.327 . S
C1295 C1311 1.429 . S
C1295 H1317 0.950 . S
C1296 H1292 0.949 . S
C1296 C1304 1.574 1_554 S
C1296 C1312 1.368 . S
H1297 C1305 0.950 . S
H1298 C1303 0.950 . S
H1299 C1304 0.949 . S
H1300 C1306 0.950 . S
H1301 C1307 0.950 . S
H1302 C1308 0.949 . S
C1303 H1298 0.950 . S
C1303 C1305 1.327 . S
C1303 C1309 1.429 . S
C1304 C1296 1.574 1_556 S
C1304 H1299 0.949 . S
C1304 C1310 1.368 . S
C1305 C1289 1.349 . S
C1305 H1297 0.950 . S
C1305 C1303 1.327 . S
C1306 C1294 1.349 . S
C1306 H1300 0.950 . S
C1306 C1307 1.327 . S
C1307 H1301 0.950 . S
C1307 C1306 1.327 . S
C1307 C1311 1.429 . S
C1308 C1291 1.574 1_554 S
C1308 H1302 0.949 . S
C1308 C1312 1.368 . S
C1309 C1290 1.429 . S
C1309 C1303 1.429 . S
C1309 C1310 1.523 . S
C1310 C1291 1.368 . S
C1310 C1304 1.368 . S
C1310 C1309 1.523 . S
C1311 C1295 1.429 . S
C1311 C1307 1.429 . S
C1311 C1312 1.523 . S
C1312 C1296 1.368 . S
C1312 C1308 1.368 . S
C1312 C1311 1.523 . S
H1313 C1288 0.950 . S
H1314 C1290 0.950 . S
H1315 C1291 0.949 . S
H1316 C1293 0.950 . S
H1317 C1295 0.950 . S
C1318 C1319 1.349 . S
C1318 C1320 1.327 . S
C1318 H1343 0.950 . S
C1319 C1318 1.349 . S
C1319 C1335 1.349 . S
C1320 C1318 1.327 . S
C1320 C1339 1.429 . S
C1320 H1344 0.950 . S
C1321 C1338 1.574 1_554 S
C1321 C1340 1.368 . S
C1321 H1345 0.949 . S
H1322 C1326 0.949 . S
C1323 C1324 1.349 . S
C1323 C1325 1.327 . S
C1323 H1346 0.950 . S
C1324 C1323 1.349 . S
C1324 C1336 1.349 . S
C1325 C1323 1.327 . S
C1325 C1341 1.429 . S
C1325 H1347 0.950 . S
C1326 H1322 0.949 . S
C1326 C1334 1.574 1_556 S
C1326 C1342 1.368 . S
H1327 C1335 0.950 . S
H1328 C1333 0.950 . S
H1329 C1334 0.949 . S
H1330 C1336 0.950 . S
H1331 C1337 0.950 . S
H1332 C1338 0.949 . S
C1333 H1328 0.950 . S
C1333 C1335 1.327 . S
C1333 C1339 1.429 . S
C1334 C1326 1.574 1_554 S
C1334 H1329 0.949 . S
C1334 C1340 1.368 . S
C1335 C1319 1.349 . S
C1335 H1327 0.950 . S
C1335 C1333 1.327 . S
C1336 C1324 1.349 . S
C1336 H1330 0.950 . S
C1336 C1337 1.327 . S
C1337 H1331 0.950 . S
C1337 C1336 1.327 . S
C1337 C1341 1.429 . S
C1338 C1321 1.574 1_556 S
C1338 H1332 0.949 . S
C1338 C1342 1.368 . S
C1339 C1320 1.429 . S
C1339 C1333 1.429 . S
C1339 C1340 1.523 . S
C1340 C1321 1.368 . S
C1340 C1334 1.368 . S
C1340 C1339 1.523 . S
C1341 C1325 1.429 . S
C1341 C1337 1.429 . S
C1341 C1342 1.523 . S
C1342 C1326 1.368 . S
C1342 C1338 1.368 . S
C1342 C1341 1.523 . S
H1343 C1318 0.950 . S
H1344 C1320 0.950 . S
H1345 C1321 0.949 . S
H1346 C1323 0.950 . S
H1347 C1325 0.950 . S
C1348 C1349 1.349 . S
C1348 C1350 1.327 . S
C1348 H1373 0.950 . S
C1349 C1348 1.349 . S
C1349 C1365 1.349 . S
C1350 C1348 1.327 . S
C1350 C1369 1.429 . S
C1350 H1374 0.950 . S
C1351 C1368 1.574 1_554 S
C1351 C1370 1.368 . S
C1351 H1375 0.949 . S
H1352 C1356 0.949 . S
C1353 C1354 1.349 . S
C1353 C1355 1.327 . S
C1353 H1376 0.950 . S
C1354 C1353 1.349 . S
C1354 C1366 1.349 . S
C1355 C1353 1.327 . S
C1355 C1371 1.429 . S
C1355 H1377 0.950 . S
C1356 H1352 0.949 . S
C1356 C1364 1.574 1_556 S
C1356 C1372 1.368 . S
H1357 C1365 0.950 . S
H1358 C1363 0.950 . S
H1359 C1364 0.949 . S
H1360 C1366 0.950 . S
H1361 C1367 0.950 . S
H1362 C1368 0.949 . S
C1363 H1358 0.950 . S
C1363 C1365 1.327 . S
C1363 C1369 1.429 . S
C1364 C1356 1.574 1_554 S
C1364 H1359 0.949 . S
C1364 C1370 1.368 . S
C1365 C1349 1.349 . S
C1365 H1357 0.950 . S
C1365 C1363 1.327 . S
C1366 C1354 1.349 . S
C1366 H1360 0.950 . S
C1366 C1367 1.327 . S
C1367 H1361 0.950 . S
C1367 C1366 1.327 . S
C1367 C1371 1.429 . S
C1368 C1351 1.574 1_556 S
C1368 H1362 0.949 . S
C1368 C1372 1.368 . S
C1369 C1350 1.429 . S
C1369 C1363 1.429 . S
C1369 C1370 1.523 . S
C1370 C1351 1.368 . S
C1370 C1364 1.368 . S
C1370 C1369 1.523 . S
C1371 C1355 1.429 . S
C1371 C1367 1.429 . S
C1371 C1372 1.523 . S
C1372 C1356 1.368 . S
C1372 C1368 1.368 . S
C1372 C1371 1.523 . S
H1373 C1348 0.950 . S
H1374 C1350 0.950 . S
H1375 C1351 0.949 . S
H1376 C1353 0.950 . S
H1377 C1355 0.950 . S
C1378 C1379 1.349 . S
C1378 C1380 1.327 . S
C1378 H1403 0.950 . S
C1379 C1378 1.349 . S
C1379 C1395 1.349 . S
C1380 C1378 1.327 . S
C1380 C1399 1.429 . S
C1380 H1404 0.950 . S
C1381 C1398 1.574 1_556 S
C1381 C1400 1.368 . S
C1381 H1405 0.949 . S
H1382 C1386 0.949 . S
C1383 C1384 1.349 . S
C1383 C1385 1.327 . S
C1383 H1406 0.950 . S
C1384 C1383 1.349 . S
C1384 C1396 1.349 . S
C1385 C1383 1.327 . S
C1385 C1401 1.429 . S
C1385 H1407 0.950 . S
C1386 H1382 0.949 . S
C1386 C1394 1.574 1_554 S
C1386 C1402 1.368 . S
H1387 C1395 0.950 . S
H1388 C1393 0.950 . S
H1389 C1394 0.949 . S
H1390 C1396 0.950 . S
H1391 C1397 0.950 . S
H1392 C1398 0.949 . S
C1393 H1388 0.950 . S
C1393 C1395 1.327 . S
C1393 C1399 1.429 . S
C1394 C1386 1.574 1_556 S
C1394 H1389 0.949 . S
C1394 C1400 1.368 . S
C1395 C1379 1.349 . S
C1395 H1387 0.950 . S
C1395 C1393 1.327 . S
C1396 C1384 1.349 . S
C1396 H1390 0.950 . S
C1396 C1397 1.327 . S
C1397 H1391 0.950 . S
C1397 C1396 1.327 . S
C1397 C1401 1.429 . S
C1398 C1381 1.574 1_554 S
C1398 H1392 0.949 . S
C1398 C1402 1.368 . S
C1399 C1380 1.429 . S
C1399 C1393 1.429 . S
C1399 C1400 1.523 . S
C1400 C1381 1.368 . S
C1400 C1394 1.368 . S
C1400 C1399 1.523 . S
C1401 C1385 1.429 . S
C1401 C1397 1.429 . S
C1401 C1402 1.523 . S
C1402 C1386 1.368 . S
C1402 C1398 1.368 . S
C1402 C1401 1.523 . S
H1403 C1378 0.950 . S
H1404 C1380 0.950 . S
H1405 C1381 0.949 . S
H1406 C1383 0.950 . S
H1407 C1385 0.950 . S
C1408 C1409 1.349 . S
C1408 C1410 1.327 . S
C1408 H1433 0.950 . S
C1409 C1408 1.349 . S
C1409 C1425 1.349 . S
C1410 C1408 1.327 . S
C1410 C1429 1.429 . S
C1410 H1434 0.950 . S
C1411 C1428 1.574 1_545 S
C1411 C1430 1.368 . S
C1411 H1435 0.949 . S
H1412 C1416 0.949 . S
C1413 C1414 1.349 . S
C1413 C1415 1.327 . S
C1413 H1436 0.950 . S
C1414 C1413 1.349 . S
C1414 C1426 1.349 . S
C1415 C1413 1.327 . S
C1415 C1431 1.429 . S
C1415 H1437 0.950 . S
C1416 H1412 0.949 . S
C1416 C1424 1.574 1_565 S
C1416 C1432 1.368 . S
H1417 C1425 0.950 . S
H1418 C1423 0.950 . S
H1419 C1424 0.949 . S
H1420 C1426 0.950 . S
H1421 C1427 0.950 . S
H1422 C1428 0.949 . S
C1423 H1418 0.950 . S
C1423 C1425 1.327 . S
C1423 C1429 1.429 . S
C1424 C1416 1.574 1_545 S
C1424 H1419 0.949 . S
C1424 C1430 1.368 . S
C1425 C1409 1.349 . S
C1425 H1417 0.950 . S
C1425 C1423 1.327 . S
C1426 C1414 1.349 . S
C1426 H1420 0.950 . S
C1426 C1427 1.327 . S
C1427 H1421 0.950 . S
C1427 C1426 1.327 . S
C1427 C1431 1.429 . S
C1428 C1411 1.574 1_565 S
C1428 H1422 0.949 . S
C1428 C1432 1.368 . S
C1429 C1410 1.429 . S
C1429 C1423 1.429 . S
C1429 C1430 1.523 . S
C1430 C1411 1.368 . S
C1430 C1424 1.368 . S
C1430 C1429 1.523 . S
C1431 C1415 1.429 . S
C1431 C1427 1.429 . S
C1431 C1432 1.523 . S
C1432 C1416 1.368 . S
C1432 C1428 1.368 . S
C1432 C1431 1.523 . S
H1433 C1408 0.950 . S
H1434 C1410 0.950 . S
H1435 C1411 0.949 . S
H1436 C1413 0.950 . S
H1437 C1415 0.950 . S
C1438 C1439 1.349 . S
C1438 C1440 1.327 . S
C1438 H1463 0.950 . S
C1439 C1438 1.349 . S
C1439 C1455 1.349 . S
C1440 C1438 1.327 . S
C1440 C1459 1.429 . S
C1440 H1464 0.950 . S
C1441 C1458 1.574 1_655 S
C1441 C1460 1.368 . S
C1441 H1465 0.949 . S
H1442 C1446 0.949 . S
C1443 C1444 1.349 . S
C1443 C1445 1.327 . S
C1443 H1466 0.950 . S
C1444 C1443 1.349 . S
C1444 C1456 1.349 . S
C1445 C1443 1.327 . S
C1445 C1461 1.429 . S
C1445 H1467 0.950 . S
C1446 H1442 0.949 . S
C1446 C1454 1.574 1_455 S
C1446 C1462 1.368 . S
H1447 C1455 0.950 . S
H1448 C1453 0.950 . S
H1449 C1454 0.949 . S
H1450 C1456 0.950 . S
H1451 C1457 0.950 . S
H1452 C1458 0.949 . S
C1453 H1448 0.950 . S
C1453 C1455 1.327 . S
C1453 C1459 1.429 . S
C1454 C1446 1.574 1_655 S
C1454 H1449 0.949 . S
C1454 C1460 1.368 . S
C1455 C1439 1.349 . S
C1455 H1447 0.950 . S
C1455 C1453 1.327 . S
C1456 C1444 1.349 . S
C1456 H1450 0.950 . S
C1456 C1457 1.327 . S
C1457 H1451 0.950 . S
C1457 C1456 1.327 . S
C1457 C1461 1.429 . S
C1458 C1441 1.574 1_455 S
C1458 H1452 0.949 . S
C1458 C1462 1.368 . S
C1459 C1440 1.429 . S
C1459 C1453 1.429 . S
C1459 C1460 1.523 . S
C1460 C1441 1.368 . S
C1460 C1454 1.368 . S
C1460 C1459 1.523 . S
C1461 C1445 1.429 . S
C1461 C1457 1.429 . S
C1461 C1462 1.523 . S
C1462 C1446 1.368 . S
C1462 C1458 1.368 . S
C1462 C1461 1.523 . S
H1463 C1438 0.950 . S
H1464 C1440 0.950 . S
H1465 C1441 0.949 . S
H1466 C1443 0.950 . S
H1467 C1445 0.950 . S
C1468 C1469 1.349 . S
C1468 C1470 1.327 . S
C1468 H1493 0.950 . S
C1469 C1468 1.349 . S
C1469 C1485 1.349 . S
C1470 C1468 1.327 . S
C1470 C1489 1.429 . S
C1470 H1494 0.950 . S
C1471 C1488 1.574 1_545 S
C1471 C1490 1.368 . S
C1471 H1495 0.949 . S
H1472 C1476 0.949 . S
C1473 C1474 1.349 . S
C1473 C1475 1.327 . S
C1473 H1496 0.950 . S
C1474 C1473 1.349 . S
C1474 C1486 1.349 . S
C1475 C1473 1.327 . S
C1475 C1491 1.429 . S
C1475 H1497 0.950 . S
C1476 H1472 0.949 . S
C1476 C1484 1.574 1_565 S
C1476 C1492 1.368 . S
H1477 C1485 0.950 . S
H1478 C1483 0.950 . S
H1479 C1484 0.949 . S
H1480 C1486 0.950 . S
H1481 C1487 0.950 . S
H1482 C1488 0.949 . S
C1483 H1478 0.950 . S
C1483 C1485 1.327 . S
C1483 C1489 1.429 . S
C1484 C1476 1.574 1_545 S
C1484 H1479 0.949 . S
C1484 C1490 1.368 . S
C1485 C1469 1.349 . S
C1485 H1477 0.950 . S
C1485 C1483 1.327 . S
C1486 C1474 1.349 . S
C1486 H1480 0.950 . S
C1486 C1487 1.327 . S
C1487 H1481 0.950 . S
C1487 C1486 1.327 . S
C1487 C1491 1.429 . S
C1488 C1471 1.574 1_565 S
C1488 H1482 0.949 . S
C1488 C1492 1.368 . S
C1489 C1470 1.429 . S
C1489 C1483 1.429 . S
C1489 C1490 1.523 . S
C1490 C1471 1.368 . S
C1490 C1484 1.368 . S
C1490 C1489 1.523 . S
C1491 C1475 1.429 . S
C1491 C1487 1.429 . S
C1491 C1492 1.523 . S
C1492 C1476 1.368 . S
C1492 C1488 1.368 . S
C1492 C1491 1.523 . S
H1493 C1468 0.950 . S
H1494 C1470 0.950 . S
H1495 C1471 0.949 . S
H1496 C1473 0.950 . S
H1497 C1475 0.950 . S
C1498 C1499 1.349 . S
C1498 C1500 1.327 . S
C1498 H1523 0.950 . S
C1499 C1498 1.349 . S
C1499 C1515 1.349 . S
C1500 C1498 1.327 . S
C1500 C1519 1.429 . S
C1500 H1524 0.950 . S
C1501 C1518 1.574 1_455 S
C1501 C1520 1.368 . S
C1501 H1525 0.949 . S
H1502 C1506 0.949 . S
C1503 C1504 1.349 . S
C1503 C1505 1.327 . S
C1503 H1526 0.950 . S
C1504 C1503 1.349 . S
C1504 C1516 1.349 . S
C1505 C1503 1.327 . S
C1505 C1521 1.429 . S
C1505 H1527 0.950 . S
C1506 H1502 0.949 . S
C1506 C1514 1.574 1_655 S
C1506 C1522 1.368 . S
H1507 C1515 0.950 . S
H1508 C1513 0.950 . S
H1509 C1514 0.949 . S
H1510 C1516 0.950 . S
H1511 C1517 0.950 . S
H1512 C1518 0.949 . S
C1513 H1508 0.950 . S
C1513 C1515 1.327 . S
C1513 C1519 1.429 . S
C1514 C1506 1.574 1_455 S
C1514 H1509 0.949 . S
C1514 C1520 1.368 . S
C1515 C1499 1.349 . S
C1515 H1507 0.950 . S
C1515 C1513 1.327 . S
C1516 C1504 1.349 . S
C1516 H1510 0.950 . S
C1516 C1517 1.327 . S
C1517 H1511 0.950 . S
C1517 C1516 1.327 . S
C1517 C1521 1.429 . S
C1518 C1501 1.574 1_655 S
C1518 H1512 0.949 . S
C1518 C1522 1.368 . S
C1519 C1500 1.429 . S
C1519 C1513 1.429 . S
C1519 C1520 1.523 . S
C1520 C1501 1.368 . S
C1520 C1514 1.368 . S
C1520 C1519 1.523 . S
C1521 C1505 1.429 . S
C1521 C1517 1.429 . S
C1521 C1522 1.523 . S
C1522 C1506 1.368 . S
C1522 C1518 1.368 . S
C1522 C1521 1.523 . S
H1523 C1498 0.950 . S
H1524 C1500 0.950 . S
H1525 C1501 0.949 . S
H1526 C1503 0.950 . S
H1527 C1505 0.950 . S
C1528 C1529 1.349 . S
C1528 C1530 1.327 . S
C1528 H1553 0.950 . S
C1529 C1528 1.349 . S
C1529 C1545 1.349 . S
C1530 C1528 1.327 . S
C1530 C1549 1.429 . S
C1530 H1554 0.950 . S
C1531 C1548 1.574 1_565 S
C1531 C1550 1.368 . S
C1531 H1555 0.949 . S
H1532 C1536 0.949 . S
C1533 C1534 1.349 . S
C1533 C1535 1.327 . S
C1533 H1556 0.950 . S
C1534 C1533 1.349 . S
C1534 C1546 1.349 . S
C1535 C1533 1.327 . S
C1535 C1551 1.429 . S
C1535 H1557 0.950 . S
C1536 H1532 0.949 . S
C1536 C1544 1.574 1_545 S
C1536 C1552 1.368 . S
H1537 C1545 0.950 . S
H1538 C1543 0.950 . S
H1539 C1544 0.949 . S
H1540 C1546 0.950 . S
H1541 C1547 0.950 . S
H1542 C1548 0.949 . S
C1543 H1538 0.950 . S
C1543 C1545 1.327 . S
C1543 C1549 1.429 . S
C1544 C1536 1.574 1_565 S
C1544 H1539 0.949 . S
C1544 C1550 1.368 . S
C1545 C1529 1.349 . S
C1545 H1537 0.950 . S
C1545 C1543 1.327 . S
C1546 C1534 1.349 . S
C1546 H1540 0.950 . S
C1546 C1547 1.327 . S
C1547 H1541 0.950 . S
C1547 C1546 1.327 . S
C1547 C1551 1.429 . S
C1548 C1531 1.574 1_545 S
C1548 H1542 0.949 . S
C1548 C1552 1.368 . S
C1549 C1530 1.429 . S
C1549 C1543 1.429 . S
C1549 C1550 1.523 . S
C1550 C1531 1.368 . S
C1550 C1544 1.368 . S
C1550 C1549 1.523 . S
C1551 C1535 1.429 . S
C1551 C1547 1.429 . S
C1551 C1552 1.523 . S
C1552 C1536 1.368 . S
C1552 C1548 1.368 . S
C1552 C1551 1.523 . S
H1553 C1528 0.950 . S
H1554 C1530 0.950 . S
H1555 C1531 0.949 . S
H1556 C1533 0.950 . S
H1557 C1535 0.950 . S
C1558 C1559 1.349 . S
C1558 C1560 1.327 . S
C1558 H1583 0.950 . S
C1559 C1558 1.349 . S
C1559 C1575 1.349 . S
C1560 C1558 1.327 . S
C1560 C1579 1.429 . S
C1560 H1584 0.950 . S
C1561 C1578 1.574 1_655 S
C1561 C1580 1.368 . S
C1561 H1585 0.949 . S
H1562 C1566 0.949 . S
C1563 C1564 1.349 . S
C1563 C1565 1.327 . S
C1563 H1586 0.950 . S
C1564 C1563 1.349 . S
C1564 C1576 1.349 . S
C1565 C1563 1.327 . S
C1565 C1581 1.429 . S
C1565 H1587 0.950 . S
C1566 H1562 0.949 . S
C1566 C1574 1.574 1_455 S
C1566 C1582 1.368 . S
H1567 C1575 0.950 . S
H1568 C1573 0.950 . S
H1569 C1574 0.949 . S
H1570 C1576 0.950 . S
H1571 C1577 0.950 . S
H1572 C1578 0.949 . S
C1573 H1568 0.950 . S
C1573 C1575 1.327 . S
C1573 C1579 1.429 . S
C1574 C1566 1.574 1_655 S
C1574 H1569 0.949 . S
C1574 C1580 1.368 . S
C1575 C1559 1.349 . S
C1575 H1567 0.950 . S
C1575 C1573 1.327 . S
C1576 C1564 1.349 . S
C1576 H1570 0.950 . S
C1576 C1577 1.327 . S
C1577 H1571 0.950 . S
C1577 C1576 1.327 . S
C1577 C1581 1.429 . S
C1578 C1561 1.574 1_455 S
C1578 H1572 0.949 . S
C1578 C1582 1.368 . S
C1579 C1560 1.429 . S
C1579 C1573 1.429 . S
C1579 C1580 1.523 . S
C1580 C1561 1.368 . S
C1580 C1574 1.368 . S
C1580 C1579 1.523 . S
C1581 C1565 1.429 . S
C1581 C1577 1.429 . S
C1581 C1582 1.523 . S
C1582 C1566 1.368 . S
C1582 C1578 1.368 . S
C1582 C1581 1.523 . S
H1583 C1558 0.950 . S
H1584 C1560 0.950 . S
H1585 C1561 0.949 . S
H1586 C1563 0.950 . S
H1587 C1565 0.950 . S
C1588 C1589 1.349 . S
C1588 C1590 1.327 . S
C1588 H1613 0.950 . S
C1589 C1588 1.349 . S
C1589 C1605 1.349 . S
C1590 C1588 1.327 . S
C1590 C1609 1.429 . S
C1590 H1614 0.950 . S
C1591 C1608 1.574 1_565 S
C1591 C1610 1.368 . S
C1591 H1615 0.949 . S
H1592 C1596 0.949 . S
C1593 C1594 1.349 . S
C1593 C1595 1.327 . S
C1593 H1616 0.950 . S
C1594 C1593 1.349 . S
C1594 C1606 1.349 . S
C1595 C1593 1.327 . S
C1595 C1611 1.429 . S
C1595 H1617 0.950 . S
C1596 H1592 0.949 . S
C1596 C1604 1.574 1_545 S
C1596 C1612 1.368 . S
H1597 C1605 0.950 . S
H1598 C1603 0.950 . S
H1599 C1604 0.949 . S
H1600 C1606 0.950 . S
H1601 C1607 0.950 . S
H1602 C1608 0.949 . S
C1603 H1598 0.950 . S
C1603 C1605 1.327 . S
C1603 C1609 1.429 . S
C1604 C1596 1.574 1_565 S
C1604 H1599 0.949 . S
C1604 C1610 1.368 . S
C1605 C1589 1.349 . S
C1605 H1597 0.950 . S
C1605 C1603 1.327 . S
C1606 C1594 1.349 . S
C1606 H1600 0.950 . S
C1606 C1607 1.327 . S
C1607 H1601 0.950 . S
C1607 C1606 1.327 . S
C1607 C1611 1.429 . S
C1608 C1591 1.574 1_545 S
C1608 H1602 0.949 . S
C1608 C1612 1.368 . S
C1609 C1590 1.429 . S
C1609 C1603 1.429 . S
C1609 C1610 1.523 . S
C1610 C1591 1.368 . S
C1610 C1604 1.368 . S
C1610 C1609 1.523 . S
C1611 C1595 1.429 . S
C1611 C1607 1.429 . S
C1611 C1612 1.523 . S
C1612 C1596 1.368 . S
C1612 C1608 1.368 . S
C1612 C1611 1.523 . S
H1613 C1588 0.950 . S
H1614 C1590 0.950 . S
H1615 C1591 0.949 . S
H1616 C1593 0.950 . S
H1617 C1595 0.950 . S
C1618 C1619 1.349 . S
C1618 C1620 1.327 . S
C1618 H1643 0.950 . S
C1619 C1618 1.349 . S
C1619 C1635 1.349 . S
C1620 C1618 1.327 . S
C1620 C1639 1.429 . S
C1620 H1644 0.950 . S
C1621 C1638 1.574 1_655 S
C1621 C1640 1.368 . S
C1621 H1645 0.949 . S
H1622 C1626 0.949 . S
C1623 C1624 1.349 . S
C1623 C1625 1.327 . S
C1623 H1646 0.950 . S
C1624 C1623 1.349 . S
C1624 C1636 1.349 . S
C1625 C1623 1.327 . S
C1625 C1641 1.429 . S
C1625 H1647 0.950 . S
C1626 H1622 0.949 . S
C1626 C1634 1.574 1_455 S
C1626 C1642 1.368 . S
H1627 C1635 0.950 . S
H1628 C1633 0.950 . S
H1629 C1634 0.949 . S
H1630 C1636 0.950 . S
H1631 C1637 0.950 . S
H1632 C1638 0.949 . S
C1633 H1628 0.950 . S
C1633 C1635 1.327 . S
C1633 C1639 1.429 . S
C1634 C1626 1.574 1_655 S
C1634 H1629 0.949 . S
C1634 C1640 1.368 . S
C1635 C1619 1.349 . S
C1635 H1627 0.950 . S
C1635 C1633 1.327 . S
C1636 C1624 1.349 . S
C1636 H1630 0.950 . S
C1636 C1637 1.327 . S
C1637 H1631 0.950 . S
C1637 C1636 1.327 . S
C1637 C1641 1.429 . S
C1638 C1621 1.574 1_455 S
C1638 H1632 0.949 . S
C1638 C1642 1.368 . S
C1639 C1620 1.429 . S
C1639 C1633 1.429 . S
C1639 C1640 1.523 . S
C1640 C1621 1.368 . S
C1640 C1634 1.368 . S
C1640 C1639 1.523 . S
C1641 C1625 1.429 . S
C1641 C1637 1.429 . S
C1641 C1642 1.523 . S
C1642 C1626 1.368 . S
C1642 C1638 1.368 . S
C1642 C1641 1.523 . S
H1643 C1618 0.950 . S
H1644 C1620 0.950 . S
H1645 C1621 0.949 . S
H1646 C1623 0.950 . S
H1647 C1625 0.950 . S
C1648 C1649 1.349 . S
C1648 C1650 1.327 . S
C1648 H1673 0.950 . S
C1649 C1648 1.349 . S
C1649 C1665 1.349 . S
C1650 C1648 1.327 . S
C1650 C1669 1.429 . S
C1650 H1674 0.950 . S
C1651 C1668 1.574 . S
C1651 C1670 1.368 . S
C1651 H1675 0.949 . S
H1652 C1656 0.949 . S
C1653 C1654 1.349 . S
C1653 C1655 1.327 . S
C1653 H1676 0.950 . S
C1654 C1653 1.349 . S
C1654 C1666 1.349 . S
C1655 C1653 1.327 . S
C1655 C1671 1.429 . S
C1655 H1677 0.950 . S
C1656 H1652 0.949 . S
C1656 C1664 1.574 . S
C1656 C1672 1.368 . S
H1657 C1665 0.950 . S
H1658 C1663 0.950 . S
H1659 C1664 0.949 . S
H1660 C1666 0.950 . S
H1661 C1667 0.950 . S
H1662 C1668 0.949 . S
C1663 H1658 0.950 . S
C1663 C1665 1.327 . S
C1663 C1669 1.429 . S
C1664 C1656 1.574 . S
C1664 H1659 0.949 . S
C1664 C1670 1.368 . S
C1665 C1649 1.349 . S
C1665 H1657 0.950 . S
C1665 C1663 1.327 . S
C1666 C1654 1.349 . S
C1666 H1660 0.950 . S
C1666 C1667 1.327 . S
C1667 H1661 0.950 . S
C1667 C1666 1.327 . S
C1667 C1671 1.429 . S
C1668 C1651 1.574 . S
C1668 H1662 0.949 . S
C1668 C1672 1.368 . S
C1669 C1650 1.429 . S
C1669 C1663 1.429 . S
C1669 C1670 1.523 . S
C1670 C1651 1.368 . S
C1670 C1664 1.368 . S
C1670 C1669 1.523 . S
C1671 C1655 1.429 . S
C1671 C1667 1.429 . S
C1671 C1672 1.523 . S
C1672 C1656 1.368 . S
C1672 C1668 1.368 . S
C1672 C1671 1.523 . S
H1673 C1648 0.950 . S
H1674 C1650 0.950 . S
H1675 C1651 0.949 . S
H1676 C1653 0.950 . S
H1677 C1655 0.950 . S
C1678 C1679 1.349 . S
C1678 C1680 1.327 . S
C1678 H1703 0.950 . S
C1679 C1678 1.349 . S
C1679 C1695 1.349 . S
C1680 C1678 1.327 . S
C1680 C1699 1.429 . S
C1680 H1704 0.950 . S
C1681 C1698 1.574 . S
C1681 C1700 1.368 . S
C1681 H1705 0.949 . S
H1682 C1686 0.949 . S
C1683 C1684 1.349 . S
C1683 C1685 1.327 . S
C1683 H1706 0.950 . S
C1684 C1683 1.349 . S
C1684 C1696 1.349 . S
C1685 C1683 1.327 . S
C1685 C1701 1.429 . S
C1685 H1707 0.950 . S
C1686 H1682 0.949 . S
C1686 C1694 1.574 . S
C1686 C1702 1.368 . S
H1687 C1695 0.950 . S
H1688 C1693 0.950 . S
H1689 C1694 0.949 . S
H1690 C1696 0.950 . S
H1691 C1697 0.950 . S
H1692 C1698 0.949 . S
C1693 H1688 0.950 . S
C1693 C1695 1.327 . S
C1693 C1699 1.429 . S
C1694 C1686 1.574 . S
C1694 H1689 0.949 . S
C1694 C1700 1.368 . S
C1695 C1679 1.349 . S
C1695 H1687 0.950 . S
C1695 C1693 1.327 . S
C1696 C1684 1.349 . S
C1696 H1690 0.950 . S
C1696 C1697 1.327 . S
C1697 H1691 0.950 . S
C1697 C1696 1.327 . S
C1697 C1701 1.429 . S
C1698 C1681 1.574 . S
C1698 H1692 0.949 . S
C1698 C1702 1.368 . S
C1699 C1680 1.429 . S
C1699 C1693 1.429 . S
C1699 C1700 1.523 . S
C1700 C1681 1.368 . S
C1700 C1694 1.368 . S
C1700 C1699 1.523 . S
C1701 C1685 1.429 . S
C1701 C1697 1.429 . S
C1701 C1702 1.523 . S
C1702 C1686 1.368 . S
C1702 C1698 1.368 . S
C1702 C1701 1.523 . S
H1703 C1678 0.950 . S
H1704 C1680 0.950 . S
H1705 C1681 0.949 . S
H1706 C1683 0.950 . S
H1707 C1685 0.950 . S
C1708 C1709 1.349 . S
C1708 C1710 1.327 . S
C1708 H1733 0.950 . S
C1709 C1708 1.349 . S
C1709 C1725 1.349 . S
C1710 C1708 1.327 . S
C1710 C1729 1.429 . S
C1710 H1734 0.950 . S
C1711 C1728 1.574 . S
C1711 C1730 1.368 . S
C1711 H1735 0.949 . S
H1712 C1716 0.949 . S
C1713 C1714 1.349 . S
C1713 C1715 1.327 . S
C1713 H1736 0.950 . S
C1714 C1713 1.349 . S
C1714 C1726 1.349 . S
C1715 C1713 1.327 . S
C1715 C1731 1.429 . S
C1715 H1737 0.950 . S
C1716 H1712 0.949 . S
C1716 C1724 1.574 . S
C1716 C1732 1.368 . S
H1717 C1725 0.950 . S
H1718 C1723 0.950 . S
H1719 C1724 0.949 . S
H1720 C1726 0.950 . S
H1721 C1727 0.950 . S
H1722 C1728 0.949 . S
C1723 H1718 0.950 . S
C1723 C1725 1.327 . S
C1723 C1729 1.429 . S
C1724 C1716 1.574 . S
C1724 H1719 0.949 . S
C1724 C1730 1.368 . S
C1725 C1709 1.349 . S
C1725 H1717 0.950 . S
C1725 C1723 1.327 . S
C1726 C1714 1.349 . S
C1726 H1720 0.950 . S
C1726 C1727 1.327 . S
C1727 H1721 0.950 . S
C1727 C1726 1.327 . S
C1727 C1731 1.429 . S
C1728 C1711 1.574 . S
C1728 H1722 0.949 . S
C1728 C1732 1.368 . S
C1729 C1710 1.429 . S
C1729 C1723 1.429 . S
C1729 C1730 1.523 . S
C1730 C1711 1.368 . S
C1730 C1724 1.368 . S
C1730 C1729 1.523 . S
C1731 C1715 1.429 . S
C1731 C1727 1.429 . S
C1731 C1732 1.523 . S
C1732 C1716 1.368 . S
C1732 C1728 1.368 . S
C1732 C1731 1.523 . S
H1733 C1708 0.950 . S
H1734 C1710 0.950 . S
H1735 C1711 0.949 . S
H1736 C1713 0.950 . S
H1737 C1715 0.950 . S
C1738 C1739 1.349 . S
C1738 C1740 1.327 . S
C1738 H1763 0.950 . S
C1739 C1738 1.349 . S
C1739 C1755 1.349 . S
C1740 C1738 1.327 . S
C1740 C1759 1.429 . S
C1740 H1764 0.950 . S
C1741 C1758 1.574 . S
C1741 C1760 1.368 . S
C1741 H1765 0.949 . S
H1742 C1746 0.949 . S
C1743 C1744 1.349 . S
C1743 C1745 1.327 . S
C1743 H1766 0.950 . S
C1744 C1743 1.349 . S
C1744 C1756 1.349 . S
C1745 C1743 1.327 . S
C1745 C1761 1.429 . S
C1745 H1767 0.950 . S
C1746 H1742 0.949 . S
C1746 C1754 1.574 . S
C1746 C1762 1.368 . S
H1747 C1755 0.950 . S
H1748 C1753 0.950 . S
H1749 C1754 0.949 . S
H1750 C1756 0.950 . S
H1751 C1757 0.950 . S
H1752 C1758 0.949 . S
C1753 H1748 0.950 . S
C1753 C1755 1.327 . S
C1753 C1759 1.429 . S
C1754 C1746 1.574 . S
C1754 H1749 0.949 . S
C1754 C1760 1.368 . S
C1755 C1739 1.349 . S
C1755 H1747 0.950 . S
C1755 C1753 1.327 . S
C1756 C1744 1.349 . S
C1756 H1750 0.950 . S
C1756 C1757 1.327 . S
C1757 H1751 0.950 . S
C1757 C1756 1.327 . S
C1757 C1761 1.429 . S
C1758 C1741 1.574 . S
C1758 H1752 0.949 . S
C1758 C1762 1.368 . S
C1759 C1740 1.429 . S
C1759 C1753 1.429 . S
C1759 C1760 1.523 . S
C1760 C1741 1.368 . S
C1760 C1754 1.368 . S
C1760 C1759 1.523 . S
C1761 C1745 1.429 . S
C1761 C1757 1.429 . S
C1761 C1762 1.523 . S
C1762 C1746 1.368 . S
C1762 C1758 1.368 . S
C1762 C1761 1.523 . S
H1763 C1738 0.950 . S
H1764 C1740 0.950 . S
H1765 C1741 0.949 . S
H1766 C1743 0.950 . S
H1767 C1745 0.950 . S
C1768 C1769 1.349 . S
C1768 C1770 1.327 . S
C1768 H1793 0.950 . S
C1769 C1768 1.349 . S
C1769 C1785 1.349 . S
C1770 C1768 1.327 . S
C1770 C1789 1.429 . S
C1770 H1794 0.950 . S
C1771 C1788 1.574 . S
C1771 C1790 1.368 . S
C1771 H1795 0.949 . S
H1772 C1776 0.949 . S
C1773 C1774 1.349 . S
C1773 C1775 1.327 . S
C1773 H1796 0.950 . S
C1774 C1773 1.349 . S
C1774 C1786 1.349 . S
C1775 C1773 1.327 . S
C1775 C1791 1.429 . S
C1775 H1797 0.950 . S
C1776 H1772 0.949 . S
C1776 C1784 1.574 . S
C1776 C1792 1.368 . S
H1777 C1785 0.950 . S
H1778 C1783 0.950 . S
H1779 C1784 0.949 . S
H1780 C1786 0.950 . S
H1781 C1787 0.950 . S
H1782 C1788 0.949 . S
C1783 H1778 0.950 . S
C1783 C1785 1.327 . S
C1783 C1789 1.429 . S
C1784 C1776 1.574 . S
C1784 H1779 0.949 . S
C1784 C1790 1.368 . S
C1785 C1769 1.349 . S
C1785 H1777 0.950 . S
C1785 C1783 1.327 . S
C1786 C1774 1.349 . S
C1786 H1780 0.950 . S
C1786 C1787 1.327 . S
C1787 H1781 0.950 . S
C1787 C1786 1.327 . S
C1787 C1791 1.429 . S
C1788 C1771 1.574 . S
C1788 H1782 0.949 . S
C1788 C1792 1.368 . S
C1789 C1770 1.429 . S
C1789 C1783 1.429 . S
C1789 C1790 1.523 . S
C1790 C1771 1.368 . S
C1790 C1784 1.368 . S
C1790 C1789 1.523 . S
C1791 C1775 1.429 . S
C1791 C1787 1.429 . S
C1791 C1792 1.523 . S
C1792 C1776 1.368 . S
C1792 C1788 1.368 . S
C1792 C1791 1.523 . S
H1793 C1768 0.950 . S
H1794 C1770 0.950 . S
H1795 C1771 0.949 . S
H1796 C1773 0.950 . S
H1797 C1775 0.950 . S
C1798 C1799 1.349 . S
C1798 C1800 1.327 . S
C1798 H1823 0.950 . S
C1799 C1798 1.349 . S
C1799 C1815 1.349 . S
C1800 C1798 1.327 . S
C1800 C1819 1.429 . S
C1800 H1824 0.950 . S
C1801 C1818 1.574 . S
C1801 C1820 1.368 . S
C1801 H1825 0.949 . S
H1802 C1806 0.949 . S
C1803 C1804 1.349 . S
C1803 C1805 1.327 . S
C1803 H1826 0.950 . S
C1804 C1803 1.349 . S
C1804 C1816 1.349 . S
C1805 C1803 1.327 . S
C1805 C1821 1.429 . S
C1805 H1827 0.950 . S
C1806 H1802 0.949 . S
C1806 C1814 1.574 . S
C1806 C1822 1.368 . S
H1807 C1815 0.950 . S
H1808 C1813 0.950 . S
H1809 C1814 0.949 . S
H1810 C1816 0.950 . S
H1811 C1817 0.950 . S
H1812 C1818 0.949 . S
C1813 H1808 0.950 . S
C1813 C1815 1.327 . S
C1813 C1819 1.429 . S
C1814 C1806 1.574 . S
C1814 H1809 0.949 . S
C1814 C1820 1.368 . S
C1815 C1799 1.349 . S
C1815 H1807 0.950 . S
C1815 C1813 1.327 . S
C1816 C1804 1.349 . S
C1816 H1810 0.950 . S
C1816 C1817 1.327 . S
C1817 H1811 0.950 . S
C1817 C1816 1.327 . S
C1817 C1821 1.429 . S
C1818 C1801 1.574 . S
C1818 H1812 0.949 . S
C1818 C1822 1.368 . S
C1819 C1800 1.429 . S
C1819 C1813 1.429 . S
C1819 C1820 1.523 . S
C1820 C1801 1.368 . S
C1820 C1814 1.368 . S
C1820 C1819 1.523 . S
C1821 C1805 1.429 . S
C1821 C1817 1.429 . S
C1821 C1822 1.523 . S
C1822 C1806 1.368 . S
C1822 C1818 1.368 . S
C1822 C1821 1.523 . S
H1823 C1798 0.950 . S
H1824 C1800 0.950 . S
H1825 C1801 0.949 . S
H1826 C1803 0.950 . S
H1827 C1805 0.950 . S
C1828 C1829 1.349 . S
C1828 C1830 1.327 . S
C1828 H1853 0.950 . S
C1829 C1828 1.349 . S
C1829 C1845 1.349 . S
C1830 C1828 1.327 . S
C1830 C1849 1.429 . S
C1830 H1854 0.950 . S
C1831 C1848 1.574 . S
C1831 C1850 1.368 . S
C1831 H1855 0.949 . S
H1832 C1836 0.949 . S
C1833 C1834 1.349 . S
C1833 C1835 1.327 . S
C1833 H1856 0.950 . S
C1834 C1833 1.349 . S
C1834 C1846 1.349 . S
C1835 C1833 1.327 . S
C1835 C1851 1.429 . S
C1835 H1857 0.950 . S
C1836 H1832 0.949 . S
C1836 C1844 1.574 . S
C1836 C1852 1.368 . S
H1837 C1845 0.950 . S
H1838 C1843 0.950 . S
H1839 C1844 0.949 . S
H1840 C1846 0.950 . S
H1841 C1847 0.950 . S
H1842 C1848 0.949 . S
C1843 H1838 0.950 . S
C1843 C1845 1.327 . S
C1843 C1849 1.429 . S
C1844 C1836 1.574 . S
C1844 H1839 0.949 . S
C1844 C1850 1.368 . S
C1845 C1829 1.349 . S
C1845 H1837 0.950 . S
C1845 C1843 1.327 . S
C1846 C1834 1.349 . S
C1846 H1840 0.950 . S
C1846 C1847 1.327 . S
C1847 H1841 0.950 . S
C1847 C1846 1.327 . S
C1847 C1851 1.429 . S
C1848 C1831 1.574 . S
C1848 H1842 0.949 . S
C1848 C1852 1.368 . S
C1849 C1830 1.429 . S
C1849 C1843 1.429 . S
C1849 C1850 1.523 . S
C1850 C1831 1.368 . S
C1850 C1844 1.368 . S
C1850 C1849 1.523 . S
C1851 C1835 1.429 . S
C1851 C1847 1.429 . S
C1851 C1852 1.523 . S
C1852 C1836 1.368 . S
C1852 C1848 1.368 . S
C1852 C1851 1.523 . S
H1853 C1828 0.950 . S
H1854 C1830 0.950 . S
H1855 C1831 0.949 . S
H1856 C1833 0.950 . S
H1857 C1835 0.950 . S
C1858 C1859 1.349 . S
C1858 C1860 1.327 . S
C1858 H1883 0.950 . S
C1859 C1858 1.349 . S
C1859 C1875 1.349 . S
C1860 C1858 1.327 . S
C1860 C1879 1.429 . S
C1860 H1884 0.950 . S
C1861 C1878 1.574 . S
C1861 C1880 1.368 . S
C1861 H1885 0.949 . S
H1862 C1866 0.949 . S
C1863 C1864 1.349 . S
C1863 C1865 1.327 . S
C1863 H1886 0.950 . S
C1864 C1863 1.349 . S
C1864 C1876 1.349 . S
C1865 C1863 1.327 . S
C1865 C1881 1.429 . S
C1865 H1887 0.950 . S
C1866 H1862 0.949 . S
C1866 C1874 1.574 . S
C1866 C1882 1.368 . S
H1867 C1875 0.950 . S
H1868 C1873 0.950 . S
H1869 C1874 0.949 . S
H1870 C1876 0.950 . S
H1871 C1877 0.950 . S
H1872 C1878 0.949 . S
C1873 H1868 0.950 . S
C1873 C1875 1.327 . S
C1873 C1879 1.429 . S
C1874 C1866 1.574 . S
C1874 H1869 0.949 . S
C1874 C1880 1.368 . S
C1875 C1859 1.349 . S
C1875 H1867 0.950 . S
C1875 C1873 1.327 . S
C1876 C1864 1.349 . S
C1876 H1870 0.950 . S
C1876 C1877 1.327 . S
C1877 H1871 0.950 . S
C1877 C1876 1.327 . S
C1877 C1881 1.429 . S
C1878 C1861 1.574 . S
C1878 H1872 0.949 . S
C1878 C1882 1.368 . S
C1879 C1860 1.429 . S
C1879 C1873 1.429 . S
C1879 C1880 1.523 . S
C1880 C1861 1.368 . S
C1880 C1874 1.368 . S
C1880 C1879 1.523 . S
C1881 C1865 1.429 . S
C1881 C1877 1.429 . S
C1881 C1882 1.523 . S
C1882 C1866 1.368 . S
C1882 C1878 1.368 . S
C1882 C1881 1.523 . S
H1883 C1858 0.950 . S
H1884 C1860 0.950 . S
H1885 C1861 0.949 . S
H1886 C1863 0.950 . S
H1887 C1865 0.950 . S
C1888 C1889 1.349 . S
C1888 C1890 1.327 . S
C1888 H1913 0.950 . S
C1889 C1888 1.349 . S
C1889 C1905 1.349 . S
C1890 C1888 1.327 . S
C1890 C1909 1.429 . S
C1890 H1914 0.950 . S
C1891 C1908 1.574 . S
C1891 C1910 1.368 . S
C1891 H1915 0.949 . S
H1892 C1896 0.949 . S
C1893 C1894 1.349 . S
C1893 C1895 1.327 . S
C1893 H1916 0.950 . S
C1894 C1893 1.349 . S
C1894 C1906 1.349 . S
C1895 C1893 1.327 . S
C1895 C1911 1.429 . S
C1895 H1917 0.950 . S
C1896 H1892 0.949 . S
C1896 C1904 1.574 . S
C1896 C1912 1.368 . S
H1897 C1905 0.950 . S
H1898 C1903 0.950 . S
H1899 C1904 0.949 . S
H1900 C1906 0.950 . S
H1901 C1907 0.950 . S
H1902 C1908 0.949 . S
C1903 H1898 0.950 . S
C1903 C1905 1.327 . S
C1903 C1909 1.429 . S
C1904 C1896 1.574 . S
C1904 H1899 0.949 . S
C1904 C1910 1.368 . S
C1905 C1889 1.349 . S
C1905 H1897 0.950 . S
C1905 C1903 1.327 . S
C1906 C1894 1.349 . S
C1906 H1900 0.950 . S
C1906 C1907 1.327 . S
C1907 H1901 0.950 . S
C1907 C1906 1.327 . S
C1907 C1911 1.429 . S
C1908 C1891 1.574 . S
C1908 H1902 0.949 . S
C1908 C1912 1.368 . S
C1909 C1890 1.429 . S
C1909 C1903 1.429 . S
C1909 C1910 1.523 . S
C1910 C1891 1.368 . S
C1910 C1904 1.368 . S
C1910 C1909 1.523 . S
C1911 C1895 1.429 . S
C1911 C1907 1.429 . S
C1911 C1912 1.523 . S
C1912 C1896 1.368 . S
C1912 C1908 1.368 . S
C1912 C1911 1.523 . S
H1913 C1888 0.950 . S
H1914 C1890 0.950 . S
H1915 C1891 0.949 . S
H1916 C1893 0.950 . S
H1917 C1895 0.950 . S
C1918 C1919 1.349 . S
C1918 C1920 1.327 . S
C1918 H1943 0.950 . S
C1919 C1918 1.349 . S
C1919 C1935 1.349 . S
C1920 C1918 1.327 . S
C1920 C1939 1.429 . S
C1920 H1944 0.950 . S
C1921 C1938 1.574 . S
C1921 C1940 1.368 . S
C1921 H1945 0.949 . S
H1922 C1926 0.949 . S
C1923 C1924 1.349 . S
C1923 C1925 1.327 . S
C1923 H1946 0.950 . S
C1924 C1923 1.349 . S
C1924 C1936 1.349 . S
C1925 C1923 1.327 . S
C1925 C1941 1.429 . S
C1925 H1947 0.950 . S
C1926 H1922 0.949 . S
C1926 C1934 1.574 . S
C1926 C1942 1.368 . S
H1927 C1935 0.950 . S
H1928 C1933 0.950 . S
H1929 C1934 0.949 . S
H1930 C1936 0.950 . S
H1931 C1937 0.950 . S
H1932 C1938 0.949 . S
C1933 H1928 0.950 . S
C1933 C1935 1.327 . S
C1933 C1939 1.429 . S
C1934 C1926 1.574 . S
C1934 H1929 0.949 . S
C1934 C1940 1.368 . S
C1935 C1919 1.349 . S
C1935 H1927 0.950 . S
C1935 C1933 1.327 . S
C1936 C1924 1.349 . S
C1936 H1930 0.950 . S
C1936 C1937 1.327 . S
C1937 H1931 0.950 . S
C1937 C1936 1.327 . S
C1937 C1941 1.429 . S
C1938 C1921 1.574 . S
C1938 H1932 0.949 . S
C1938 C1942 1.368 . S
C1939 C1920 1.429 . S
C1939 C1933 1.429 . S
C1939 C1940 1.523 . S
C1940 C1921 1.368 . S
C1940 C1934 1.368 . S
C1940 C1939 1.523 . S
C1941 C1925 1.429 . S
C1941 C1937 1.429 . S
C1941 C1942 1.523 . S
C1942 C1926 1.368 . S
C1942 C1938 1.368 . S
C1942 C1941 1.523 . S
H1943 C1918 0.950 . S
H1944 C1920 0.950 . S
H1945 C1921 0.949 . S
H1946 C1923 0.950 . S
H1947 C1925 0.950 . S
C1948 C1949 1.349 . S
C1948 C1950 1.327 . S
C1948 H1973 0.950 . S
C1949 C1948 1.349 . S
C1949 C1965 1.349 . S
C1950 C1948 1.327 . S
C1950 C1969 1.429 . S
C1950 H1974 0.950 . S
C1951 C1968 1.574 . S
C1951 C1970 1.368 . S
C1951 H1975 0.949 . S
H1952 C1956 0.949 . S
C1953 C1954 1.349 . S
C1953 C1955 1.327 . S
C1953 H1976 0.950 . S
C1954 C1953 1.349 . S
C1954 C1966 1.349 . S
C1955 C1953 1.327 . S
C1955 C1971 1.429 . S
C1955 H1977 0.950 . S
C1956 H1952 0.949 . S
C1956 C1964 1.574 . S
C1956 C1972 1.368 . S
H1957 C1965 0.950 . S
H1958 C1963 0.950 . S
H1959 C1964 0.949 . S
H1960 C1966 0.950 . S
H1961 C1967 0.950 . S
H1962 C1968 0.949 . S
C1963 H1958 0.950 . S
C1963 C1965 1.327 . S
C1963 C1969 1.429 . S
C1964 C1956 1.574 . S
C1964 H1959 0.949 . S
C1964 C1970 1.368 . S
C1965 C1949 1.349 . S
C1965 H1957 0.950 . S
C1965 C1963 1.327 . S
C1966 C1954 1.349 . S
C1966 H1960 0.950 . S
C1966 C1967 1.327 . S
C1967 H1961 0.950 . S
C1967 C1966 1.327 . S
C1967 C1971 1.429 . S
C1968 C1951 1.574 . S
C1968 H1962 0.949 . S
C1968 C1972 1.368 . S
C1969 C1950 1.429 . S
C1969 C1963 1.429 . S
C1969 C1970 1.523 . S
C1970 C1951 1.368 . S
C1970 C1964 1.368 . S
C1970 C1969 1.523 . S
C1971 C1955 1.429 . S
C1971 C1967 1.429 . S
C1971 C1972 1.523 . S
C1972 C1956 1.368 . S
C1972 C1968 1.368 . S
C1972 C1971 1.523 . S
H1973 C1948 0.950 . S
H1974 C1950 0.950 . S
H1975 C1951 0.949 . S
H1976 C1953 0.950 . S
H1977 C1955 0.950 . S
C1978 C1979 1.349 . S
C1978 C1980 1.327 . S
C1978 H2003 0.950 . S
C1979 C1978 1.349 . S
C1979 C1995 1.349 . S
C1980 C1978 1.327 . S
C1980 C1999 1.429 . S
C1980 H2004 0.950 . S
C1981 C1998 1.574 . S
C1981 C2000 1.368 . S
C1981 H2005 0.949 . S
H1982 C1986 0.949 . S
C1983 C1984 1.349 . S
C1983 C1985 1.327 . S
C1983 H2006 0.950 . S
C1984 C1983 1.349 . S
C1984 C1996 1.349 . S
C1985 C1983 1.327 . S
C1985 C2001 1.429 . S
C1985 H2007 0.950 . S
C1986 H1982 0.949 . S
C1986 C1994 1.574 . S
C1986 C2002 1.368 . S
H1987 C1995 0.950 . S
H1988 C1993 0.950 . S
H1989 C1994 0.949 . S
H1990 C1996 0.950 . S
H1991 C1997 0.950 . S
H1992 C1998 0.949 . S
C1993 H1988 0.950 . S
C1993 C1995 1.327 . S
C1993 C1999 1.429 . S
C1994 C1986 1.574 . S
C1994 H1989 0.949 . S
C1994 C2000 1.368 . S
C1995 C1979 1.349 . S
C1995 H1987 0.950 . S
C1995 C1993 1.327 . S
C1996 C1984 1.349 . S
C1996 H1990 0.950 . S
C1996 C1997 1.327 . S
C1997 H1991 0.950 . S
C1997 C1996 1.327 . S
C1997 C2001 1.429 . S
C1998 C1981 1.574 . S
C1998 H1992 0.949 . S
C1998 C2002 1.368 . S
C1999 C1980 1.429 . S
C1999 C1993 1.429 . S
C1999 C2000 1.523 . S
C2000 C1981 1.368 . S
C2000 C1994 1.368 . S
C2000 C1999 1.523 . S
C2001 C1985 1.429 . S
C2001 C1997 1.429 . S
C2001 C2002 1.523 . S
C2002 C1986 1.368 . S
C2002 C1998 1.368 . S
C2002 C2001 1.523 . S
H2003 C1978 0.950 . S
H2004 C1980 0.950 . S
H2005 C1981 0.949 . S
H2006 C1983 0.950 . S
H2007 C1985 0.950 . S
C2008 C2009 1.349 . S
C2008 C2010 1.327 . S
C2008 H2033 0.950 . S
C2009 C2008 1.349 . S
C2009 C2025 1.349 . S
C2010 C2008 1.327 . S
C2010 C2029 1.429 . S
C2010 H2034 0.950 . S
C2011 C2028 1.574 . S
C2011 C2030 1.368 . S
C2011 H2035 0.949 . S
H2012 C2016 0.949 . S
C2013 C2014 1.349 . S
C2013 C2015 1.327 . S
C2013 H2036 0.950 . S
C2014 C2013 1.349 . S
C2014 C2026 1.349 . S
C2015 C2013 1.327 . S
C2015 C2031 1.429 . S
C2015 H2037 0.950 . S
C2016 H2012 0.949 . S
C2016 C2024 1.574 . S
C2016 C2032 1.368 . S
H2017 C2025 0.950 . S
H2018 C2023 0.950 . S
H2019 C2024 0.949 . S
H2020 C2026 0.950 . S
H2021 C2027 0.950 . S
H2022 C2028 0.949 . S
C2023 H2018 0.950 . S
C2023 C2025 1.327 . S
C2023 C2029 1.429 . S
C2024 C2016 1.574 . S
C2024 H2019 0.949 . S
C2024 C2030 1.368 . S
C2025 C2009 1.349 . S
C2025 H2017 0.950 . S
C2025 C2023 1.327 . S
C2026 C2014 1.349 . S
C2026 H2020 0.950 . S
C2026 C2027 1.327 . S
C2027 H2021 0.950 . S
C2027 C2026 1.327 . S
C2027 C2031 1.429 . S
C2028 C2011 1.574 . S
C2028 H2022 0.949 . S
C2028 C2032 1.368 . S
C2029 C2010 1.429 . S
C2029 C2023 1.429 . S
C2029 C2030 1.523 . S
C2030 C2011 1.368 . S
C2030 C2024 1.368 . S
C2030 C2029 1.523 . S
C2031 C2015 1.429 . S
C2031 C2027 1.429 . S
C2031 C2032 1.523 . S
C2032 C2016 1.368 . S
C2032 C2028 1.368 . S
C2032 C2031 1.523 . S
H2033 C2008 0.950 . S
H2034 C2010 0.950 . S
H2035 C2011 0.949 . S
H2036 C2013 0.950 . S
H2037 C2015 0.950 . S
C2038 C2039 1.349 . S
C2038 C2040 1.327 . S
C2038 H2063 0.950 . S
C2039 C2038 1.349 . S
C2039 C2055 1.349 . S
C2040 C2038 1.327 . S
C2040 C2059 1.429 . S
C2040 H2064 0.950 . S
C2041 C2058 1.574 . S
C2041 C2060 1.368 . S
C2041 H2065 0.949 . S
H2042 C2046 0.949 . S
C2043 C2044 1.349 . S
C2043 C2045 1.327 . S
C2043 H2066 0.950 . S
C2044 C2043 1.349 . S
C2044 C2056 1.349 . S
C2045 C2043 1.327 . S
C2045 C2061 1.429 . S
C2045 H2067 0.950 . S
C2046 H2042 0.949 . S
C2046 C2054 1.574 . S
C2046 C2062 1.368 . S
H2047 C2055 0.950 . S
H2048 C2053 0.950 . S
H2049 C2054 0.949 . S
H2050 C2056 0.950 . S
H2051 C2057 0.950 . S
H2052 C2058 0.949 . S
C2053 H2048 0.950 . S
C2053 C2055 1.327 . S
C2053 C2059 1.429 . S
C2054 C2046 1.574 . S
C2054 H2049 0.949 . S
C2054 C2060 1.368 . S
C2055 C2039 1.349 . S
C2055 H2047 0.950 . S
C2055 C2053 1.327 . S
C2056 C2044 1.349 . S
C2056 H2050 0.950 . S
C2056 C2057 1.327 . S
C2057 H2051 0.950 . S
C2057 C2056 1.327 . S
C2057 C2061 1.429 . S
C2058 C2041 1.574 . S
C2058 H2052 0.949 . S
C2058 C2062 1.368 . S
C2059 C2040 1.429 . S
C2059 C2053 1.429 . S
C2059 C2060 1.523 . S
C2060 C2041 1.368 . S
C2060 C2054 1.368 . S
C2060 C2059 1.523 . S
C2061 C2045 1.429 . S
C2061 C2057 1.429 . S
C2061 C2062 1.523 . S
C2062 C2046 1.368 . S
C2062 C2058 1.368 . S
C2062 C2061 1.523 . S
H2063 C2038 0.950 . S
H2064 C2040 0.950 . S
H2065 C2041 0.949 . S
H2066 C2043 0.950 . S
H2067 C2045 0.950 . S
C2068 C2069 1.349 . S
C2068 C2070 1.327 . S
C2068 H2093 0.950 . S
C2069 C2068 1.349 . S
C2069 C2085 1.349 . S
C2070 C2068 1.327 . S
C2070 C2089 1.429 . S
C2070 H2094 0.950 . S
C2071 C2088 1.574 . S
C2071 C2090 1.368 . S
C2071 H2095 0.949 . S
H2072 C2076 0.949 . S
C2073 C2074 1.349 . S
C2073 C2075 1.327 . S
C2073 H2096 0.950 . S
C2074 C2073 1.349 . S
C2074 C2086 1.349 . S
C2075 C2073 1.327 . S
C2075 C2091 1.429 . S
C2075 H2097 0.950 . S
C2076 H2072 0.949 . S
C2076 C2084 1.574 . S
C2076 C2092 1.368 . S
H2077 C2085 0.950 . S
H2078 C2083 0.950 . S
H2079 C2084 0.949 . S
H2080 C2086 0.950 . S
H2081 C2087 0.950 . S
H2082 C2088 0.949 . S
C2083 H2078 0.950 . S
C2083 C2085 1.327 . S
C2083 C2089 1.429 . S
C2084 C2076 1.574 . S
C2084 H2079 0.949 . S
C2084 C2090 1.368 . S
C2085 C2069 1.349 . S
C2085 H2077 0.950 . S
C2085 C2083 1.327 . S
C2086 C2074 1.349 . S
C2086 H2080 0.950 . S
C2086 C2087 1.327 . S
C2087 H2081 0.950 . S
C2087 C2086 1.327 . S
C2087 C2091 1.429 . S
C2088 C2071 1.574 . S
C2088 H2082 0.949 . S
C2088 C2092 1.368 . S
C2089 C2070 1.429 . S
C2089 C2083 1.429 . S
C2089 C2090 1.523 . S
C2090 C2071 1.368 . S
C2090 C2084 1.368 . S
C2090 C2089 1.523 . S
C2091 C2075 1.429 . S
C2091 C2087 1.429 . S
C2091 C2092 1.523 . S
C2092 C2076 1.368 . S
C2092 C2088 1.368 . S
C2092 C2091 1.523 . S
H2093 C2068 0.950 . S
H2094 C2070 0.950 . S
H2095 C2071 0.949 . S
H2096 C2073 0.950 . S
H2097 C2075 0.950 . S
C2098 C2099 1.349 . S
C2098 C2100 1.327 . S
C2098 H2123 0.950 . S
C2099 C2098 1.349 . S
C2099 C2115 1.349 . S
C2100 C2098 1.327 . S
C2100 C2119 1.429 . S
C2100 H2124 0.950 . S
C2101 C2118 1.574 . S
C2101 C2120 1.368 . S
C2101 H2125 0.949 . S
H2102 C2106 0.949 . S
C2103 C2104 1.349 . S
C2103 C2105 1.327 . S
C2103 H2126 0.950 . S
C2104 C2103 1.349 . S
C2104 C2116 1.349 . S
C2105 C2103 1.327 . S
C2105 C2121 1.429 . S
C2105 H2127 0.950 . S
C2106 H2102 0.949 . S
C2106 C2114 1.574 . S
C2106 C2122 1.368 . S
H2107 C2115 0.950 . S
H2108 C2113 0.950 . S
H2109 C2114 0.949 . S
H2110 C2116 0.950 . S
H2111 C2117 0.950 . S
H2112 C2118 0.949 . S
C2113 H2108 0.950 . S
C2113 C2115 1.327 . S
C2113 C2119 1.429 . S
C2114 C2106 1.574 . S
C2114 H2109 0.949 . S
C2114 C2120 1.368 . S
C2115 C2099 1.349 . S
C2115 H2107 0.950 . S
C2115 C2113 1.327 . S
C2116 C2104 1.349 . S
C2116 H2110 0.950 . S
C2116 C2117 1.327 . S
C2117 H2111 0.950 . S
C2117 C2116 1.327 . S
C2117 C2121 1.429 . S
C2118 C2101 1.574 . S
C2118 H2112 0.949 . S
C2118 C2122 1.368 . S
C2119 C2100 1.429 . S
C2119 C2113 1.429 . S
C2119 C2120 1.523 . S
C2120 C2101 1.368 . S
C2120 C2114 1.368 . S
C2120 C2119 1.523 . S
C2121 C2105 1.429 . S
C2121 C2117 1.429 . S
C2121 C2122 1.523 . S
C2122 C2106 1.368 . S
C2122 C2118 1.368 . S
C2122 C2121 1.523 . S
H2123 C2098 0.950 . S
H2124 C2100 0.950 . S
H2125 C2101 0.949 . S
H2126 C2103 0.950 . S
H2127 C2105 0.950 . S
C2128 C2129 1.349 . S
C2128 C2130 1.327 . S
C2128 H2153 0.950 . S
C2129 C2128 1.349 . S
C2129 C2145 1.349 . S
C2130 C2128 1.327 . S
C2130 C2149 1.429 . S
C2130 H2154 0.950 . S
C2131 C2148 1.574 . S
C2131 C2150 1.368 . S
C2131 H2155 0.949 . S
H2132 C2136 0.949 . S
C2133 C2134 1.349 . S
C2133 C2135 1.327 . S
C2133 H2156 0.950 . S
C2134 C2133 1.349 . S
C2134 C2146 1.349 . S
C2135 C2133 1.327 . S
C2135 C2151 1.429 . S
C2135 H2157 0.950 . S
C2136 H2132 0.949 . S
C2136 C2144 1.574 . S
C2136 C2152 1.368 . S
H2137 C2145 0.950 . S
H2138 C2143 0.950 . S
H2139 C2144 0.949 . S
H2140 C2146 0.950 . S
H2141 C2147 0.950 . S
H2142 C2148 0.949 . S
C2143 H2138 0.950 . S
C2143 C2145 1.327 . S
C2143 C2149 1.429 . S
C2144 C2136 1.574 . S
C2144 H2139 0.949 . S
C2144 C2150 1.368 . S
C2145 C2129 1.349 . S
C2145 H2137 0.950 . S
C2145 C2143 1.327 . S
C2146 C2134 1.349 . S
C2146 H2140 0.950 . S
C2146 C2147 1.327 . S
C2147 H2141 0.950 . S
C2147 C2146 1.327 . S
C2147 C2151 1.429 . S
C2148 C2131 1.574 . S
C2148 H2142 0.949 . S
C2148 C2152 1.368 . S
C2149 C2130 1.429 . S
C2149 C2143 1.429 . S
C2149 C2150 1.523 . S
C2150 C2131 1.368 . S
C2150 C2144 1.368 . S
C2150 C2149 1.523 . S
C2151 C2135 1.429 . S
C2151 C2147 1.429 . S
C2151 C2152 1.523 . S
C2152 C2136 1.368 . S
C2152 C2148 1.368 . S
C2152 C2151 1.523 . S
H2153 C2128 0.950 . S
H2154 C2130 0.950 . S
H2155 C2131 0.949 . S
H2156 C2133 0.950 . S
H2157 C2135 0.950 . S
C2158 C2159 1.349 . S
C2158 C2160 1.327 . S
C2158 H2183 0.950 . S
C2159 C2158 1.349 . S
C2159 C2175 1.349 . S
C2160 C2158 1.327 . S
C2160 C2179 1.429 . S
C2160 H2184 0.950 . S
C2161 C2178 1.574 . S
C2161 C2180 1.368 . S
C2161 H2185 0.949 . S
H2162 C2166 0.949 . S
C2163 C2164 1.349 . S
C2163 C2165 1.327 . S
C2163 H2186 0.950 . S
C2164 C2163 1.349 . S
C2164 C2176 1.349 . S
C2165 C2163 1.327 . S
C2165 C2181 1.429 . S
C2165 H2187 0.950 . S
C2166 H2162 0.949 . S
C2166 C2174 1.574 . S
C2166 C2182 1.368 . S
H2167 C2175 0.950 . S
H2168 C2173 0.950 . S
H2169 C2174 0.949 . S
H2170 C2176 0.950 . S
H2171 C2177 0.950 . S
H2172 C2178 0.949 . S
C2173 H2168 0.950 . S
C2173 C2175 1.327 . S
C2173 C2179 1.429 . S
C2174 C2166 1.574 . S
C2174 H2169 0.949 . S
C2174 C2180 1.368 . S
C2175 C2159 1.349 . S
C2175 H2167 0.950 . S
C2175 C2173 1.327 . S
C2176 C2164 1.349 . S
C2176 H2170 0.950 . S
C2176 C2177 1.327 . S
C2177 H2171 0.950 . S
C2177 C2176 1.327 . S
C2177 C2181 1.429 . S
C2178 C2161 1.574 . S
C2178 H2172 0.949 . S
C2178 C2182 1.368 . S
C2179 C2160 1.429 . S
C2179 C2173 1.429 . S
C2179 C2180 1.523 . S
C2180 C2161 1.368 . S
C2180 C2174 1.368 . S
C2180 C2179 1.523 . S
C2181 C2165 1.429 . S
C2181 C2177 1.429 . S
C2181 C2182 1.523 . S
C2182 C2166 1.368 . S
C2182 C2178 1.368 . S
C2182 C2181 1.523 . S
H2183 C2158 0.950 . S
H2184 C2160 0.950 . S
H2185 C2161 0.949 . S
H2186 C2163 0.950 . S
H2187 C2165 0.950 . S
C2188 C2189 1.349 . S
C2188 C2190 1.327 . S
C2188 H2213 0.950 . S
C2189 C2188 1.349 . S
C2189 C2205 1.349 . S
C2190 C2188 1.327 . S
C2190 C2209 1.429 . S
C2190 H2214 0.950 . S
C2191 C2208 1.574 . S
C2191 C2210 1.368 . S
C2191 H2215 0.949 . S
H2192 C2196 0.949 . S
C2193 C2194 1.349 . S
C2193 C2195 1.327 . S
C2193 H2216 0.950 . S
C2194 C2193 1.349 . S
C2194 C2206 1.349 . S
C2195 C2193 1.327 . S
C2195 C2211 1.429 . S
C2195 H2217 0.950 . S
C2196 H2192 0.949 . S
C2196 C2204 1.574 . S
C2196 C2212 1.368 . S
H2197 C2205 0.950 . S
H2198 C2203 0.950 . S
H2199 C2204 0.949 . S
H2200 C2206 0.950 . S
H2201 C2207 0.950 . S
H2202 C2208 0.949 . S
C2203 H2198 0.950 . S
C2203 C2205 1.327 . S
C2203 C2209 1.429 . S
C2204 C2196 1.574 . S
C2204 H2199 0.949 . S
C2204 C2210 1.368 . S
C2205 C2189 1.349 . S
C2205 H2197 0.950 . S
C2205 C2203 1.327 . S
C2206 C2194 1.349 . S
C2206 H2200 0.950 . S
C2206 C2207 1.327 . S
C2207 H2201 0.950 . S
C2207 C2206 1.327 . S
C2207 C2211 1.429 . S
C2208 C2191 1.574 . S
C2208 H2202 0.949 . S
C2208 C2212 1.368 . S
C2209 C2190 1.429 . S
C2209 C2203 1.429 . S
C2209 C2210 1.523 . S
C2210 C2191 1.368 . S
C2210 C2204 1.368 . S
C2210 C2209 1.523 . S
C2211 C2195 1.429 . S
C2211 C2207 1.429 . S
C2211 C2212 1.523 . S
C2212 C2196 1.368 . S
C2212 C2208 1.368 . S
C2212 C2211 1.523 . S
H2213 C2188 0.950 . S
H2214 C2190 0.950 . S
H2215 C2191 0.949 . S
H2216 C2193 0.950 . S
H2217 C2195 0.950 . S
C2218 C2219 1.349 . S
C2218 C2220 1.327 . S
C2218 H2243 0.950 . S
C2219 C2218 1.349 . S
C2219 C2235 1.349 . S
C2220 C2218 1.327 . S
C2220 C2239 1.429 . S
C2220 H2244 0.950 . S
C2221 C2238 1.574 . S
C2221 C2240 1.368 . S
C2221 H2245 0.949 . S
H2222 C2226 0.949 . S
C2223 C2224 1.349 . S
C2223 C2225 1.327 . S
C2223 H2246 0.950 . S
C2224 C2223 1.349 . S
C2224 C2236 1.349 . S
C2225 C2223 1.327 . S
C2225 C2241 1.429 . S
C2225 H2247 0.950 . S
C2226 H2222 0.949 . S
C2226 C2234 1.574 . S
C2226 C2242 1.368 . S
H2227 C2235 0.950 . S
H2228 C2233 0.950 . S
H2229 C2234 0.949 . S
H2230 C2236 0.950 . S
H2231 C2237 0.950 . S
H2232 C2238 0.949 . S
C2233 H2228 0.950 . S
C2233 C2235 1.327 . S
C2233 C2239 1.429 . S
C2234 C2226 1.574 . S
C2234 H2229 0.949 . S
C2234 C2240 1.368 . S
C2235 C2219 1.349 . S
C2235 H2227 0.950 . S
C2235 C2233 1.327 . S
C2236 C2224 1.349 . S
C2236 H2230 0.950 . S
C2236 C2237 1.327 . S
C2237 H2231 0.950 . S
C2237 C2236 1.327 . S
C2237 C2241 1.429 . S
C2238 C2221 1.574 . S
C2238 H2232 0.949 . S
C2238 C2242 1.368 . S
C2239 C2220 1.429 . S
C2239 C2233 1.429 . S
C2239 C2240 1.523 . S
C2240 C2221 1.368 . S
C2240 C2234 1.368 . S
C2240 C2239 1.523 . S
C2241 C2225 1.429 . S
C2241 C2237 1.429 . S
C2241 C2242 1.523 . S
C2242 C2226 1.368 . S
C2242 C2238 1.368 . S
C2242 C2241 1.523 . S
H2243 C2218 0.950 . S
H2244 C2220 0.950 . S
H2245 C2221 0.949 . S
H2246 C2223 0.950 . S
H2247 C2225 0.950 . S
C2248 C2249 1.349 . S
C2248 C2250 1.327 . S
C2248 H2273 0.950 . S
C2249 C2248 1.349 . S
C2249 C2265 1.349 . S
C2250 C2248 1.327 . S
C2250 C2269 1.429 . S
C2250 H2274 0.950 . S
C2251 C2268 1.574 . S
C2251 C2270 1.368 . S
C2251 H2275 0.949 . S
H2252 C2256 0.949 . S
C2253 C2254 1.349 . S
C2253 C2255 1.327 . S
C2253 H2276 0.950 . S
C2254 C2253 1.349 . S
C2254 C2266 1.349 . S
C2255 C2253 1.327 . S
C2255 C2271 1.429 . S
C2255 H2277 0.950 . S
C2256 H2252 0.949 . S
C2256 C2264 1.574 . S
C2256 C2272 1.368 . S
H2257 C2265 0.950 . S
H2258 C2263 0.950 . S
H2259 C2264 0.949 . S
H2260 C2266 0.950 . S
H2261 C2267 0.950 . S
H2262 C2268 0.949 . S
C2263 H2258 0.950 . S
C2263 C2265 1.327 . S
C2263 C2269 1.429 . S
C2264 C2256 1.574 . S
C2264 H2259 0.949 . S
C2264 C2270 1.368 . S
C2265 C2249 1.349 . S
C2265 H2257 0.950 . S
C2265 C2263 1.327 . S
C2266 C2254 1.349 . S
C2266 H2260 0.950 . S
C2266 C2267 1.327 . S
C2267 H2261 0.950 . S
C2267 C2266 1.327 . S
C2267 C2271 1.429 . S
C2268 C2251 1.574 . S
C2268 H2262 0.949 . S
C2268 C2272 1.368 . S
C2269 C2250 1.429 . S
C2269 C2263 1.429 . S
C2269 C2270 1.523 . S
C2270 C2251 1.368 . S
C2270 C2264 1.368 . S
C2270 C2269 1.523 . S
C2271 C2255 1.429 . S
C2271 C2267 1.429 . S
C2271 C2272 1.523 . S
C2272 C2256 1.368 . S
C2272 C2268 1.368 . S
C2272 C2271 1.523 . S
H2273 C2248 0.950 . S
H2274 C2250 0.950 . S
H2275 C2251 0.949 . S
H2276 C2253 0.950 . S
H2277 C2255 0.950 . S
C2278 C2279 1.349 . S
C2278 C2280 1.327 . S
C2278 H2303 0.950 . S
C2279 C2278 1.349 . S
C2279 C2295 1.349 . S
C2280 C2278 1.327 . S
C2280 C2299 1.429 . S
C2280 H2304 0.950 . S
C2281 C2298 1.574 . S
C2281 C2300 1.368 . S
C2281 H2305 0.949 . S
H2282 C2286 0.949 . S
C2283 C2284 1.349 . S
C2283 C2285 1.327 . S
C2283 H2306 0.950 . S
C2284 C2283 1.349 . S
C2284 C2296 1.349 . S
C2285 C2283 1.327 . S
C2285 C2301 1.429 . S
C2285 H2307 0.950 . S
C2286 H2282 0.949 . S
C2286 C2294 1.574 . S
C2286 C2302 1.368 . S
H2287 C2295 0.950 . S
H2288 C2293 0.950 . S
H2289 C2294 0.949 . S
H2290 C2296 0.950 . S
H2291 C2297 0.950 . S
H2292 C2298 0.949 . S
C2293 H2288 0.950 . S
C2293 C2295 1.327 . S
C2293 C2299 1.429 . S
C2294 C2286 1.574 . S
C2294 H2289 0.949 . S
C2294 C2300 1.368 . S
C2295 C2279 1.349 . S
C2295 H2287 0.950 . S
C2295 C2293 1.327 . S
C2296 C2284 1.349 . S
C2296 H2290 0.950 . S
C2296 C2297 1.327 . S
C2297 H2291 0.950 . S
C2297 C2296 1.327 . S
C2297 C2301 1.429 . S
C2298 C2281 1.574 . S
C2298 H2292 0.949 . S
C2298 C2302 1.368 . S
C2299 C2280 1.429 . S
C2299 C2293 1.429 . S
C2299 C2300 1.523 . S
C2300 C2281 1.368 . S
C2300 C2294 1.368 . S
C2300 C2299 1.523 . S
C2301 C2285 1.429 . S
C2301 C2297 1.429 . S
C2301 C2302 1.523 . S
C2302 C2286 1.368 . S
C2302 C2298 1.368 . S
C2302 C2301 1.523 . S
H2303 C2278 0.950 . S
H2304 C2280 0.950 . S
H2305 C2281 0.949 . S
H2306 C2283 0.950 . S
H2307 C2285 0.950 . S
C2308 C2309 1.349 . S
C2308 C2310 1.327 . S
C2308 H2333 0.950 . S
C2309 C2308 1.349 . S
C2309 C2325 1.349 . S
C2310 C2308 1.327 . S
C2310 C2329 1.429 . S
C2310 H2334 0.950 . S
C2311 C2328 1.574 . S
C2311 C2330 1.368 . S
C2311 H2335 0.949 . S
H2312 C2316 0.949 . S
C2313 C2314 1.349 . S
C2313 C2315 1.327 . S
C2313 H2336 0.950 . S
C2314 C2313 1.349 . S
C2314 C2326 1.349 . S
C2315 C2313 1.327 . S
C2315 C2331 1.429 . S
C2315 H2337 0.950 . S
C2316 H2312 0.949 . S
C2316 C2324 1.574 . S
C2316 C2332 1.368 . S
H2317 C2325 0.950 . S
H2318 C2323 0.950 . S
H2319 C2324 0.949 . S
H2320 C2326 0.950 . S
H2321 C2327 0.950 . S
H2322 C2328 0.949 . S
C2323 H2318 0.950 . S
C2323 C2325 1.327 . S
C2323 C2329 1.429 . S
C2324 C2316 1.574 . S
C2324 H2319 0.949 . S
C2324 C2330 1.368 . S
C2325 C2309 1.349 . S
C2325 H2317 0.950 . S
C2325 C2323 1.327 . S
C2326 C2314 1.349 . S
C2326 H2320 0.950 . S
C2326 C2327 1.327 . S
C2327 H2321 0.950 . S
C2327 C2326 1.327 . S
C2327 C2331 1.429 . S
C2328 C2311 1.574 . S
C2328 H2322 0.949 . S
C2328 C2332 1.368 . S
C2329 C2310 1.429 . S
C2329 C2323 1.429 . S
C2329 C2330 1.523 . S
C2330 C2311 1.368 . S
C2330 C2324 1.368 . S
C2330 C2329 1.523 . S
C2331 C2315 1.429 . S
C2331 C2327 1.429 . S
C2331 C2332 1.523 . S
C2332 C2316 1.368 . S
C2332 C2328 1.368 . S
C2332 C2331 1.523 . S
H2333 C2308 0.950 . S
H2334 C2310 0.950 . S
H2335 C2311 0.949 . S
H2336 C2313 0.950 . S
H2337 C2315 0.950 . S
C2338 C2339 1.349 . S
C2338 C2340 1.327 . S
C2338 H2363 0.950 . S
C2339 C2338 1.349 . S
C2339 C2355 1.349 . S
C2340 C2338 1.327 . S
C2340 C2359 1.429 . S
C2340 H2364 0.950 . S
C2341 C2358 1.574 . S
C2341 C2360 1.368 . S
C2341 H2365 0.949 . S
H2342 C2346 0.949 . S
C2343 C2344 1.349 . S
C2343 C2345 1.327 . S
C2343 H2366 0.950 . S
C2344 C2343 1.349 . S
C2344 C2356 1.349 . S
C2345 C2343 1.327 . S
C2345 C2361 1.429 . S
C2345 H2367 0.950 . S
C2346 H2342 0.949 . S
C2346 C2354 1.574 . S
C2346 C2362 1.368 . S
H2347 C2355 0.950 . S
H2348 C2353 0.950 . S
H2349 C2354 0.949 . S
H2350 C2356 0.950 . S
H2351 C2357 0.950 . S
H2352 C2358 0.949 . S
C2353 H2348 0.950 . S
C2353 C2355 1.327 . S
C2353 C2359 1.429 . S
C2354 C2346 1.574 . S
C2354 H2349 0.949 . S
C2354 C2360 1.368 . S
C2355 C2339 1.349 . S
C2355 H2347 0.950 . S
C2355 C2353 1.327 . S
C2356 C2344 1.349 . S
C2356 H2350 0.950 . S
C2356 C2357 1.327 . S
C2357 H2351 0.950 . S
C2357 C2356 1.327 . S
C2357 C2361 1.429 . S
C2358 C2341 1.574 . S
C2358 H2352 0.949 . S
C2358 C2362 1.368 . S
C2359 C2340 1.429 . S
C2359 C2353 1.429 . S
C2359 C2360 1.523 . S
C2360 C2341 1.368 . S
C2360 C2354 1.368 . S
C2360 C2359 1.523 . S
C2361 C2345 1.429 . S
C2361 C2357 1.429 . S
C2361 C2362 1.523 . S
C2362 C2346 1.368 . S
C2362 C2358 1.368 . S
C2362 C2361 1.523 . S
H2363 C2338 0.950 . S
H2364 C2340 0.950 . S
H2365 C2341 0.949 . S
H2366 C2343 0.950 . S
H2367 C2345 0.950 . S
C449 C414 1.231 . S
C454 C8 1.231 . S
C479 C22 1.231 . S
C484 C428 1.231 . S
C509 C442 1.231 . S
C514 C36 1.231 . S
C539 C400 1.231 . S
C544 C50 1.231 . S
C569 C64 1.231 . S
C574 C386 1.231 . S
C599 C344 1.231 . S
C604 C78 1.231 . S
C629 C92 1.231 . S
C634 C358 1.231 . S
C659 C372 1.231 . S
C664 C106 1.231 . S
C689 C120 1.231 . S
C694 C302 1.231 . S
C719 C134 1.231 . S
C724 C316 1.231 . S
C749 C330 1.231 . S
C754 C148 1.231 . S
C779 C162 1.231 . S
C784 C288 1.231 . S
C809 C274 1.231 . S
C814 C176 1.231 . S
C839 C232 1.231 . S
C844 C190 1.231 . S
C869 C204 1.231 . S
C874 C246 1.231 . S
C899 C218 1.231 . S
C904 C260 1.231 . S
C929 C7 1.407 . S
C934 C147 1.407 . S
C959 C161 1.407 . S
C964 C21 1.407 . S
C989 C119 1.407 . S
C994 C35 1.407 . S
C1019 C133 1.407 . S
C1024 C49 1.407 . S
C1049 C63 1.407 . S
C1054 C203 1.407 . S
C1079 C217 1.407 . S
C1084 C77 1.407 . S
C1109 C175 1.407 . S
C1114 C91 1.407 . S
C1139 C189 1.407 . S
C1144 C105 1.407 . S
C1169 C231 1.407 . S
C1174 C371 1.407 . S
C1199 C385 1.407 . S
C1204 C245 1.407 . S
C1229 C343 1.407 . S
C1234 C259 1.407 . S
C1259 C273 1.407 . S
C1264 C357 1.407 . S
C1289 C287 1.407 . S
C1294 C427 1.407 . S
C1319 C441 1.407 . S
C1324 C301 1.407 . S
C1349 C399 1.407 . S
C1354 C315 1.407 . S
C1379 C329 1.407 . S
C1384 C413 1.407 . S
C1409 C11 1.196 . S
C1414 C67 1.196 . S
C1439 C25 1.196 . S
C1444 C81 1.196 . S
C1469 C95 1.196 . S
C1474 C39 1.196 . S
C1499 C53 1.196 . S
C1504 C109 1.196 . S
C1529 C123 1.196 . S
C1534 C179 1.196 . S
C1559 C193 1.196 . S
C1564 C137 1.196 . S
C1589 C207 1.196 . S
C1594 C151 1.196 . S
C1619 C165 1.196 . S
C1624 C221 1.196 . S
C1649 C235 1.196 . S
C1654 C291 1.196 . S
C1679 C305 1.196 . S
C1684 C249 1.196 . S
C1709 C263 1.196 . S
C1714 C319 1.196 . S
C1739 C333 1.196 . S
C1744 C277 1.196 . S
C1769 C403 1.196 . S
C1774 C347 1.196 . S
C1799 C361 1.196 . S
C1804 C417 1.196 . S
C1829 C375 1.196 . S
C1834 C431 1.196 . S
C1859 C389 1.196 . S
C1864 C445 1.196 . S
C1889 C13 1.390 . S
C1894 C83 1.390 . S
C1919 C27 1.390 . S
C1924 C97 1.390 . S
C1949 C111 1.390 . S
C1954 C41 1.390 . S
C1979 C69 1.390 . S
C1984 C55 1.390 . S
C2009 C195 1.390 . S
C2014 C125 1.390 . S
C2039 C209 1.390 . S
C2044 C139 1.390 . S
C2069 C223 1.390 . S
C2074 C153 1.390 . S
C2099 C167 1.390 . S
C2104 C181 1.390 . S
C2129 C237 1.390 . S
C2134 C307 1.390 . S
C2159 C321 1.390 . S
C2164 C251 1.390 . S
C2189 C335 1.390 . S
C2194 C265 1.390 . S
C2219 C279 1.390 . S
C2224 C293 1.390 . S
C2249 C419 1.390 . S
C2254 C349 1.390 . S
C2279 C363 1.390 . S
C2284 C433 1.390 . S
C2309 C377 1.390 . S
C2314 C447 1.390 . S
C2339 C405 1.390 . S
C2344 C391 1.390 . S
