# Generated by pormake.
# Topology wlj, (5)-cn, num edge types: 1
# Building blocks:
#     Node 0, Type 0, BuildingBlock: XOMCOT_clean_sbu_0, # of connection points: 5
#     Node 1, Type 0, BuildingBlock: XOMCOT_clean_sbu_0, # of connection points: 5
#     Node 2, Type 0, BuildingBlock: XOMCOT_clean_sbu_0, # of connection points: 5
#     Node 3, Type 0, BuildingBlock: XOMCOT_clean_sbu_0, # of connection points: 5
#     Node 4, Type 0, BuildingBlock: XOMCOT_clean_sbu_0, # of connection points: 5
#     Node 5, Type 0, BuildingBlock: XOMCOT_clean_sbu_0, # of connection points: 5
#     Edge 6, Type (0, 0), BuildingBlock: XUDNAN_clean_linker_2, # of connection points: 2
#     Edge 7, Type (0, 0), BuildingBlock: XUDNAN_clean_linker_2, # of connection points: 2
#     Edge 8, Type (0, 0), BuildingBlock: XUDNAN_clean_linker_2, # of connection points: 2
#     Edge 9, Type (0, 0), BuildingBlock: XUDNAN_clean_linker_2, # of connection points: 2
#     Edge 10, Type (0, 0), BuildingBlock: XUDNAN_clean_linker_2, # of connection points: 2
#     Edge 11, Type (0, 0), BuildingBlock: XUDNAN_clean_linker_2, # of connection points: 2
#     Edge 12, Type (0, 0), BuildingBlock: XUDNAN_clean_linker_2, # of connection points: 2
#     Edge 13, Type (0, 0), BuildingBlock: XUDNAN_clean_linker_2, # of connection points: 2
#     Edge 14, Type (0, 0), BuildingBlock: XUDNAN_clean_linker_2, # of connection points: 2
#     Edge 15, Type (0, 0), BuildingBlock: XUDNAN_clean_linker_2, # of connection points: 2
#     Edge 16, Type (0, 0), BuildingBlock: XUDNAN_clean_linker_2, # of connection points: 2
#     Edge 17, Type (0, 0), BuildingBlock: XUDNAN_clean_linker_2, # of connection points: 2
#     Edge 18, Type (0, 0), BuildingBlock: XUDNAN_clean_linker_2, # of connection points: 2
#     Edge 19, Type (0, 0), BuildingBlock: XUDNAN_clean_linker_2, # of connection points: 2
#     Edge 20, Type (0, 0), BuildingBlock: XUDNAN_clean_linker_2, # of connection points: 2
# Relax obj value: 0.145
# Max RMSD: 0.205
# Mean RMSD: 0.205
data_MOF--net-wlj--node1-XOMCOT_clean_sbu_0--edge1-XUDNAN_clean_linker_2
_symmetry_space_group_name_H-M    P1
_symmetry_Int_Tables_number       1
_symmetry_cell_setting            triclinic
loop_
_symmetry_equiv_pos_as_xyz
'x, y, z'
_cell_length_a     25.517104
_cell_length_b     25.616201
_cell_length_c     54.775903
_cell_angle_alpha  90.01168
_cell_angle_beta   89.924252
_cell_angle_gamma 120.29011
loop_
_atom_site_label
_atom_site_type_symbol
_atom_site_fract_x
_atom_site_fract_y
_atom_site_fract_z
_atom_type_partial_charge
Co0 Co 0.54924 0.28666 0.26056 0.0
C1 C 0.51843 0.36447 0.23124 0.0
C2 C 0.44995 0.27064 0.22873 0.0
C3 C 0.4308 0.30394 0.21581 0.0
N4 N 0.50494 0.30857 0.23828 0.0
N5 N 0.47371 0.36291 0.21749 0.0
H6 H 0.55945 0.40536 0.23651 0.0
H7 H 0.42429 0.22235 0.23173 0.0
C8 C 0.53304 0.17425 0.2362 0.0
O9 O 0.59166 0.19552 0.23846 0.0
N10 N 0.59169 0.26278 0.28373 0.0
C11 C 0.64081 0.29886 0.29748 0.0
C12 C 0.65439 0.26362 0.31209 0.0
C13 C 0.57403 0.206 0.29153 0.0
N14 N 0.61248 0.20525 0.30828 0.0
C15 C 0.67095 0.36723 0.24468 0.0
C16 C 0.65778 0.329 0.1968 0.0
C17 C 0.71481 0.37551 0.20465 0.0
C18 C 0.72031 0.39513 0.22888 0.0
C19 C 0.60909 0.30249 0.21333 0.0
N20 N 0.61689 0.31943 0.23737 0.0
H21 H 0.67587 0.38644 0.26251 0.0
H22 H 0.56496 0.26882 0.20666 0.0
H23 H 0.66395 0.34752 0.29806 0.0
H24 H 0.5337 0.16584 0.28525 0.0
O25 O 0.57354 0.35993 0.27849 0.0
O26 O 0.48965 0.27262 0.28587 0.0
O27 O 0.50911 0.20371 0.24493 0.0
C28 C 0.52377 0.32999 0.29091 0.0
H29 H 0.38728 0.28627 0.20688 0.0
H30 H 0.69113 0.27977 0.32515 0.0
H31 H 0.65065 0.31327 0.17809 0.0
H32 H 0.76203 0.43334 0.23551 0.0
Co33 Co 0.73432 0.26231 0.92862 0.0
C34 C 0.65092 0.14312 0.90573 0.0
C35 C 0.73401 0.19213 0.88556 0.0
C36 C 0.69746 0.13825 0.87384 0.0
N37 N 0.70489 0.19548 0.90559 0.0
N38 N 0.64553 0.10755 0.88662 0.0
H39 H 0.61579 0.13109 0.91927 0.0
H40 H 0.77869 0.22621 0.87957 0.0
C41 C 0.85064 0.35769 0.90491 0.0
O42 O 0.83577 0.39875 0.90992 0.0
N43 N 0.76446 0.32906 0.95192 0.0
C44 C 0.73303 0.35231 0.96261 0.0
C45 C 0.77201 0.40159 0.97641 0.0
C46 C 0.82183 0.36306 0.96055 0.0
N47 N 0.82797 0.40876 0.97493 0.0
C48 C 0.64936 0.29864 0.91407 0.0
C49 C 0.69726 0.34281 0.86846 0.0
C50 C 0.64609 0.34545 0.87604 0.0
C51 C 0.62153 0.32155 0.89907 0.0
C52 C 0.72271 0.31799 0.88386 0.0
N53 N 0.70129 0.29977 0.90707 0.0
H54 H 0.62742 0.27801 0.93106 0.0
H55 H 0.75875 0.31241 0.87658 0.0
H56 H 0.6851 0.33524 0.96078 0.0
H57 H 0.859 0.35627 0.95553 0.0
O58 O 0.6636 0.21551 0.94892 0.0
O59 O 0.7497 0.21504 0.95224 0.0
O60 O 0.81583 0.30273 0.91146 0.0
C61 C 0.69383 0.19354 0.95948 0.0
H62 H 0.70865 0.12227 0.85745 0.0
H63 H 0.76013 0.4303 0.98666 0.0
H64 H 0.71758 0.35924 0.85071 0.0
H65 H 0.57994 0.31873 0.90534 0.0
Co66 Co 0.76794 0.48117 0.59432 0.0
C67 C 0.87343 0.50086 0.56381 0.0
C68 C 0.86402 0.57945 0.56678 0.0
C69 C 0.91613 0.59504 0.55399 0.0
N70 N 0.83734 0.52065 0.57297 0.0
N71 N 0.92209 0.54582 0.55217 0.0
H72 H 0.86564 0.4556 0.56643 0.0
H73 H 0.84766 0.60947 0.57196 0.0
C74 C 0.67552 0.50237 0.5694 0.0
O75 O 0.63414 0.44628 0.57453 0.0
N76 N 0.69832 0.44527 0.61636 0.0
C77 C 0.66297 0.38821 0.6246 0.0
C78 C 0.61543 0.38526 0.63789 0.0
C79 C 0.67282 0.47623 0.62554 0.0
N80 N 0.62126 0.44061 0.63814 0.0
C81 C 0.72803 0.35922 0.57991 0.0
C82 C 0.69263 0.3664 0.53302 0.0
C83 C 0.68431 0.3107 0.5412 0.0
C84 C 0.70425 0.30842 0.56486 0.0
C85 C 0.71825 0.41665 0.54855 0.0
N86 N 0.73174 0.41166 0.57228 0.0
H87 H 0.74442 0.35639 0.59772 0.0
H88 H 0.72787 0.45965 0.54119 0.0
H89 H 0.66947 0.35053 0.62104 0.0
H90 H 0.69088 0.52391 0.62218 0.0
O91 O 0.81212 0.45597 0.61523 0.0
O92 O 0.81346 0.54264 0.61874 0.0
O93 O 0.7306 0.52309 0.57603 0.0
C94 C 0.83367 0.5077 0.6262 0.0
H95 H 0.94768 0.63938 0.54674 0.0
H96 H 0.57811 0.34484 0.64579 0.0
H97 H 0.6796 0.37159 0.5148 0.0
H98 H 0.70277 0.26809 0.57173 0.0
Co99 Co 0.29645 0.54327 0.76001 0.0
C100 C 0.37952 0.50713 0.78283 0.0
C101 C 0.29668 0.47376 0.80307 0.0
C102 C 0.33298 0.45663 0.81494 0.0
N103 N 0.32579 0.50576 0.78292 0.0
N104 N 0.38483 0.47747 0.80217 0.0
H105 H 0.41447 0.52972 0.76915 0.0
H106 H 0.25216 0.46343 0.80908 0.0
C107 C 0.17937 0.52014 0.78314 0.0
O108 O 0.1946 0.57628 0.77819 0.0
N109 N 0.26634 0.58002 0.73682 0.0
C110 C 0.2978 0.63524 0.72645 0.0
C111 C 0.25905 0.64555 0.71261 0.0
C112 C 0.20923 0.55628 0.72788 0.0
N113 N 0.20326 0.59622 0.71371 0.0
C114 C 0.37937 0.66468 0.7754 0.0
C115 C 0.33001 0.65903 0.82083 0.0
C116 C 0.38081 0.71365 0.81347 0.0
C117 C 0.40616 0.71523 0.79056 0.0
C118 C 0.30554 0.6089 0.80525 0.0
N119 N 0.32767 0.613 0.7821 0.0
H120 H 0.40208 0.66706 0.75852 0.0
H121 H 0.26958 0.56676 0.81231 0.0
H122 H 0.34561 0.66652 0.72852 0.0
H123 H 0.17207 0.51188 0.73258 0.0
O124 O 0.36797 0.57065 0.74014 0.0
O125 O 0.28376 0.48217 0.73565 0.0
O126 O 0.21422 0.50008 0.77668 0.0
C127 C 0.33912 0.51975 0.72856 0.0
H128 H 0.32163 0.42981 0.83145 0.0
H129 H 0.2709 0.68658 0.70267 0.0
H130 H 0.30929 0.65447 0.83854 0.0
H131 H 0.44763 0.75462 0.78447 0.0
Co132 Co 0.48788 0.76353 0.42594 0.0
C133 C 0.5075 0.87556 0.45119 0.0
C134 C 0.54785 0.83244 0.47089 0.0
C135 C 0.56102 0.88471 0.4829 0.0
N136 N 0.51352 0.82593 0.45107 0.0
N137 N 0.53609 0.91193 0.4704 0.0
H138 H 0.48426 0.88607 0.43724 0.0
H139 H 0.5639 0.8024 0.47623 0.0
C140 C 0.50206 0.67128 0.45518 0.0
O141 O 0.4455 0.63021 0.45041 0.0
N142 N 0.46484 0.70236 0.40015 0.0
C143 C 0.43506 0.69867 0.37919 0.0
C144 C 0.43195 0.65311 0.36481 0.0
C145 C 0.48119 0.65981 0.39753 0.0
N146 N 0.46049 0.62848 0.37652 0.0
C147 C 0.35722 0.69411 0.42911 0.0
C148 C 0.35028 0.67905 0.47921 0.0
C149 C 0.29649 0.65404 0.46569 0.0
C150 C 0.30035 0.66177 0.44033 0.0
C151 C 0.40619 0.71011 0.46724 0.0
N152 N 0.40948 0.7164 0.44237 0.0
H153 H 0.35885 0.70241 0.40982 0.0
H154 H 0.44681 0.72828 0.47811 0.0
H155 H 0.41721 0.72756 0.37429 0.0
H156 H 0.51021 0.65325 0.40987 0.0
O157 O 0.46757 0.81104 0.40477 0.0
O158 O 0.55804 0.81895 0.40674 0.0
O159 O 0.52555 0.72409 0.44574 0.0
C160 C 0.52375 0.83816 0.39745 0.0
H161 H 0.58956 0.90305 0.49887 0.0
H162 H 0.41019 0.63898 0.34716 0.0
H163 H 0.34916 0.67437 0.49889 0.0
H164 H 0.25971 0.64471 0.42933 0.0
Co165 Co 0.27129 0.72511 0.0915 0.0
C166 C 0.14555 0.65196 0.11239 0.0
C167 C 0.21134 0.7086 0.13902 0.0
C168 C 0.1563 0.67482 0.15051 0.0
N169 N 0.20487 0.69455 0.11505 0.0
N170 N 0.11501 0.63919 0.13377 0.0
H171 H 0.12526 0.6286 0.09554 0.0
H172 H 0.25368 0.73984 0.14781 0.0
C173 C 0.36368 0.85125 0.11283 0.0
O174 O 0.40863 0.85915 0.09872 0.0
N175 N 0.33716 0.75469 0.06788 0.0
C176 C 0.3662 0.72524 0.06124 0.0
C177 C 0.41351 0.7618 0.04602 0.0
C178 C 0.36478 0.8073 0.05522 0.0
N179 N 0.4135 0.81396 0.0426 0.0
C180 C 0.27499 0.6301 0.11693 0.0
C181 C 0.39323 0.69527 0.13343 0.0
C182 C 0.35844 0.63386 0.13946 0.0
C183 C 0.29847 0.6012 0.131 0.0
C184 C 0.36789 0.72242 0.11936 0.0
N185 N 0.30925 0.69016 0.11145 0.0
H186 H 0.22884 0.60409 0.11042 0.0
H187 H 0.39657 0.76859 0.11426 0.0
H188 H 0.35527 0.68106 0.06782 0.0
H189 H 0.35284 0.84214 0.05696 0.0
O190 O 0.2246 0.6567 0.07037 0.0
O191 O 0.22388 0.7427 0.06873 0.0
O192 O 0.31112 0.8036 0.11118 0.0
C193 C 0.20326 0.68809 0.06031 0.0
H194 H 0.1475 0.6761 0.16977 0.0
H195 H 0.44697 0.75174 0.03883 0.0
H196 H 0.44025 0.72195 0.13898 0.0
H197 H 0.26963 0.55374 0.13532 0.0
H198 H 0.573 0.12361 0.2023 0.0
H199 H 0.40894 0.10381 0.23498 0.0
H200 H 0.34698 0.01784 0.2074 0.0
H201 H 0.51796 0.09509 0.1414 0.0
H202 H 0.55648 0.05501 0.13299 0.0
H203 H 0.58768 0.11208 0.15639 0.0
H204 H 0.58791 0.03454 0.18672 0.0
H205 H 0.55715 0.97732 0.16335 0.0
H206 H 0.51854 0.96424 0.19224 0.0
H207 H 0.30298 0.93396 0.17558 0.0
H208 H 0.28112 0.86152 0.14182 0.0
H209 H 0.4745 0.94057 0.12908 0.0
C210 C 0.52405 0.10062 0.20395 0.0
C211 C 0.49581 0.12001 0.22099 0.0
C212 C 0.43157 0.08951 0.22215 0.0
C213 C 0.39601 0.04065 0.20656 0.0
C214 C 0.42534 0.02319 0.18974 0.0
C215 C 0.48795 0.05242 0.18832 0.0
C216 C 0.50846 0.02676 0.16798 0.0
C217 C 0.54478 0.07512 0.14854 0.0
C218 C 0.54517 0.99906 0.17819 0.0
C219 C 0.44768 0.97848 0.15815 0.0
C220 C 0.4002 0.97672 0.17101 0.0
C221 C 0.33987 0.9351 0.16536 0.0
C222 C 0.32788 0.89415 0.14614 0.0
C223 C 0.37599 0.89552 0.13265 0.0
C224 C 0.43656 0.93857 0.13881 0.0
H225 H 0.10764 0.55554 0.80702 0.0
H226 H 0.13511 0.40266 0.7976 0.0
H227 H 0.05555 0.3453 0.82832 0.0
H228 H 0.08495 0.54138 0.87128 0.0
H229 H 0.02736 0.56242 0.87138 0.0
H230 H 0.08471 0.59082 0.84792 0.0
H231 H 1.00147 0.54721 0.81453 0.0
H232 H 0.94384 0.51931 0.83788 0.0
H233 H 0.94418 0.4682 0.81534 0.0
H234 H 0.9749 0.30561 0.86101 0.0
H235 H 0.89555 0.28459 0.8916 0.0
H236 H 0.92132 0.46373 0.87985 0.0
C237 C 0.09653 0.50975 0.81116 0.0
C238 C 0.12773 0.48366 0.79983 0.0
C239 C 0.11193 0.42371 0.80599 0.0
C240 C 0.06686 0.39077 0.82348 0.0
C241 C 0.03791 0.41833 0.83464 0.0
C242 C 0.05179 0.47629 0.8286 0.0
C243 C 1.0144 0.49572 0.84347 0.0
C244 C 0.05531 0.55085 0.85946 0.0
C245 C 0.97355 0.50833 0.82681 0.0
C246 C 0.97739 0.43968 0.85886 0.0
C247 C 0.99169 0.39559 0.85351 0.0
C248 C 0.96325 0.33977 0.8653 0.0
C249 C 0.91828 0.32832 0.88271 0.0
C250 C 0.90208 0.37246 0.88819 0.0
C251 C 0.93276 0.4291 0.87623 0.0
H252 H 0.46559 0.56592 0.48065 0.0
H253 H 0.62201 0.74365 0.4672 0.0
H254 H 0.68253 0.72078 0.49571 0.0
H255 H 0.49257 0.55956 0.54466 0.0
H256 H 0.46786 0.48008 0.54438 0.0
H257 H 0.43668 0.51017 0.52281 0.0
H258 H 0.46948 0.4667 0.48702 0.0
H259 H 0.50043 0.43617 0.50848 0.0
H260 H 0.5477 0.48599 0.48453 0.0
H261 H 0.72623 0.67858 0.52574 0.0
H262 H 0.75051 0.61909 0.5542 0.0
H263 H 0.56547 0.46914 0.54821 0.0
C264 C 0.51263 0.60001 0.4836 0.0
C265 C 0.53896 0.65662 0.47164 0.0
C266 C 0.60068 0.69996 0.47613 0.0
C267 C 0.63548 0.68745 0.49233 0.0
C268 C 0.60798 0.63141 0.50394 0.0
C269 C 0.54802 0.58832 0.49974 0.0
C270 C 0.52946 0.53154 0.51448 0.0
C271 C 0.47863 0.51967 0.53266 0.0
C272 C 0.51068 0.47688 0.49762 0.0
C273 C 0.58841 0.54934 0.52755 0.0
C274 C 0.6331 0.60717 0.52127 0.0
C275 C 0.69156 0.63326 0.53082 0.0
C276 C 0.70488 0.59909 0.54701 0.0
C277 C 0.65994 0.5394 0.5535 0.0
C278 C 0.60084 0.51466 0.54373 0.0
H279 H 0.34257 0.5206 0.1327 0.0
H280 H 0.43421 0.67901 0.17914 0.0
H281 H 0.47821 0.62878 0.20317 0.0
H282 H 0.30271 0.41137 0.18014 0.0
H283 H 0.31427 0.35998 0.16154 0.0
H284 H 0.29235 0.40966 0.14754 0.0
H285 H 0.38634 0.45211 0.11909 0.0
H286 H 0.40871 0.40271 0.13308 0.0
H287 H 0.46092 0.48308 0.13225 0.0
H288 H 0.50994 0.55937 0.22286 0.0
H289 H 0.52452 0.4759 0.23696 0.0
H290 H 0.41138 0.3637 0.1776 0.0
C291 C 0.37154 0.5447 0.14802 0.0
C292 C 0.38492 0.60381 0.15401 0.0
C293 C 0.42389 0.63399 0.17399 0.0
C294 C 0.44892 0.60575 0.18781 0.0
C295 C 0.43466 0.5474 0.18139 0.0
C296 C 0.39681 0.51725 0.16197 0.0
C297 C 0.38752 0.45442 0.15909 0.0
C298 C 0.32023 0.40601 0.16228 0.0
C299 C 0.41237 0.44772 0.13441 0.0
C300 C 0.4255 0.45358 0.18009 0.0
C301 C 0.45269 0.50769 0.19267 0.0
C302 C 0.48918 0.51696 0.21302 0.0
C303 C 0.4975 0.46941 0.22082 0.0
C304 C 0.46909 0.41322 0.20839 0.0
C305 C 0.43325 0.40584 0.18762 0.0
H306 H 0.44061 0.83354 0.79991 0.0
H307 H 0.3871 0.71774 0.864 0.0
H308 H 0.43953 0.80793 0.89018 0.0
H309 H 0.58929 0.93021 0.81978 0.0
H310 H 0.59513 0.99727 0.80644 0.0
H311 H 0.54524 0.92449 0.79315 0.0
H312 H 0.45489 0.94333 0.79738 0.0
H313 H 0.50457 0.01628 0.81075 0.0
H314 H 0.43724 0.96199 0.82684 0.0
H315 H 0.50392 0.9117 0.90937 0.0
H316 H 0.58111 0.0178 0.91912 0.0
H317 H 0.59963 0.06253 0.84217 0.0
C318 C 0.43965 0.82662 0.81943 0.0
C319 C 0.40914 0.76792 0.82971 0.0
C320 C 0.40872 0.76188 0.85549 0.0
C321 C 0.43875 0.81299 0.87059 0.0
C322 C 0.46944 0.86991 0.8597 0.0
C323 C 0.47039 0.87682 0.83466 0.0
C324 C 0.51134 0.94202 0.82719 0.0
C325 C 0.56332 0.94886 0.81068 0.0
C326 C 0.47481 0.96739 0.81481 0.0
C327 C 0.5345 0.97067 0.8519 0.0
C328 C 0.5088 0.92875 0.87052 0.0
C329 C 0.52414 0.94486 0.89492 0.0
C330 C 0.56775 1.00509 0.90031 0.0
C331 C 0.59625 0.04787 0.88134 0.0
C332 C 0.57866 0.03043 0.85693 0.0
H333 H 0.04024 0.6316 0.55487 0.0
H334 H 0.91615 0.45722 0.52318 0.0
H335 H 1.00091 0.4619 0.499 0.0
H336 H 0.12389 0.70006 0.50269 0.0
H337 H 0.19618 0.74182 0.51785 0.0
H338 H 0.12739 0.72141 0.53428 0.0
H339 H 0.15599 0.66745 0.5672 0.0
H340 H 0.22527 0.68816 0.55096 0.0
H341 H 0.17302 0.60996 0.55812 0.0
H342 H 0.09727 0.49318 0.47449 0.0
H343 H 0.19851 0.54335 0.45465 0.0
H344 H 0.25929 0.6951 0.50412 0.0
C345 C 0.03124 0.59401 0.54311 0.0
C346 C 0.97192 0.54411 0.54072 0.0
C347 C 0.96156 0.49551 0.52532 0.0
C348 C 1.00931 0.49801 0.51151 0.0
C349 C 0.06713 0.54891 0.51376 0.0
C350 C 0.07835 0.59549 0.52957 0.0
C351 C 0.14374 0.64615 0.52816 0.0
C352 C 0.148 0.70586 0.52027 0.0
C353 C 0.17643 0.65332 0.55256 0.0
C354 C 0.16736 0.62188 0.50851 0.0
C355 C 0.12263 0.56574 0.50039 0.0
C356 C 0.13288 0.53655 0.48105 0.0
C357 C 0.19026 0.56544 0.46981 0.0
C358 C 0.23668 0.62263 0.47809 0.0
C359 C 0.22498 0.65077 0.4978 0.0
H360 H 0.58439 0.40346 0.88968 0.0
H361 H 0.63973 0.34332 0.82551 0.0
H362 H 0.58823 0.38166 0.79932 0.0
H363 H 0.43599 0.35236 0.86881 0.0
H364 H 0.43048 0.4135 0.88242 0.0
H365 H 0.47908 0.38937 0.89583 0.0
H366 H 0.57042 0.49871 0.89259 0.0
H367 H 0.52206 0.52317 0.87905 0.0
H368 H 0.58985 0.53636 0.86339 0.0
H369 H 0.52579 0.42269 0.77998 0.0
H370 H 0.45038 0.4535 0.76999 0.0
H371 H 0.42873 0.47656 0.84691 0.0
C372 C 0.58585 0.398 0.87015 0.0
C373 C 0.61692 0.37052 0.85986 0.0
C374 C 0.61786 0.36544 0.83406 0.0
C375 C 0.58833 0.38683 0.81893 0.0
C376 C 0.5575 0.41277 0.82981 0.0
C377 C 0.55565 0.41784 0.85486 0.0
C378 C 0.51499 0.44234 0.86222 0.0
C379 C 0.462 0.39666 0.87825 0.0
C380 C 0.55153 0.5038 0.87507 0.0
C381 C 0.4932 0.44914 0.83741 0.0
C382 C 0.51921 0.43319 0.81886 0.0
C383 C 0.50527 0.43533 0.79438 0.0
C384 C 0.46267 0.45297 0.78884 0.0
C385 C 0.43369 0.46679 0.80769 0.0
C386 C 0.44999 0.46572 0.8322 0.0
H387 H 0.61705 0.19106 0.5552 0.0
H388 H 0.68971 0.30459 0.49075 0.0
H389 H 0.64694 0.21345 0.46502 0.0
H390 H 0.65965 0.08648 0.53658 0.0
H391 H 0.59454 0.02215 0.54997 0.0
H392 H 0.6226 0.09619 0.5628 0.0
H393 H 0.5162 0.08457 0.55775 0.0
H394 H 0.48788 1.01052 0.54472 0.0
H395 H 0.48074 0.06736 0.52811 0.0
H396 H 0.60089 0.10854 0.44629 0.0
H397 H 0.56589 1.00097 0.4372 0.0
H398 H 0.53321 0.95838 0.51418 0.0
C399 C 0.62441 0.19735 0.5357 0.0
C400 C 0.65677 0.2558 0.52522 0.0
C401 C 0.664 0.26086 0.49944 0.0
C402 C 0.64005 0.20913 0.48458 0.0
C403 C 0.60933 0.15246 0.49567 0.0
C404 C 0.60209 0.14642 0.5207 0.0
C405 C 0.57276 0.0809 0.52845 0.0
C406 C 0.61491 0.07087 0.54544 0.0
C407 C 0.51071 0.0596 0.54047 0.0
C408 C 0.56576 0.05097 0.50392 0.0
C409 C 0.58571 0.0927 0.48513 0.0
C410 C 0.58486 0.07551 0.46088 0.0
C411 C 0.56463 0.01442 0.45584 0.0
C412 C 0.54681 0.97177 0.47503 0.0
C413 C 0.54646 0.99028 0.49925 0.0
H414 H 0.06699 0.57437 0.17519 0.0
H415 H 0.02034 0.60404 0.10247 0.0
H416 H 0.91171 0.53252 0.1112 0.0
H417 H 0.9527 0.41363 0.17903 0.0
H418 H 0.93892 0.41826 0.21102 0.0
H419 H 1.01275 0.46831 0.19819 0.0
H420 H 1.00754 0.56084 0.21423 0.0
H421 H 0.93382 0.51115 0.22708 0.0
H422 H 0.94395 0.56944 0.20594 0.0
H423 H 0.80667 0.46402 0.12978 0.0
H424 H 0.71652 0.40444 0.15591 0.0
H425 H 0.8343 0.41706 0.21553 0.0
C426 C 0.03401 0.56578 0.16106 0.0
C427 C 0.0521 0.59507 0.1382 0.0
C428 C 1.00753 0.5818 0.12006 0.0
C429 C 0.94575 0.54136 0.12489 0.0
C430 C 0.92945 0.51394 0.14782 0.0
C431 C 0.97254 0.52529 0.1655 0.0
C432 C 0.94361 0.4917 0.1889 0.0
C433 C 0.96316 0.44521 0.19461 0.0
C434 C 0.95809 0.53593 0.21029 0.0
C435 C 0.87729 0.46095 0.18196 0.0
C436 C 0.86977 0.47388 0.15818 0.0
C437 C 0.81215 0.45291 0.14831 0.0
C438 C 0.76111 0.41874 0.16327 0.0
C439 C 0.76803 0.40594 0.18786 0.0
C440 C 0.82713 0.42643 0.19694 0.0
H441 H 0.46086 0.88559 0.37507 0.0
H442 H 0.64228 0.91379 0.38417 0.0
H443 H 0.68418 1.0093 0.3609 0.0
H444 H 0.48288 0.94746 0.31309 0.0
H445 H 0.43722 0.98169 0.31868 0.0
H446 H 0.42136 0.91392 0.3348 0.0
H447 H 0.43131 0.96777 0.37601 0.0
H448 H 0.44762 0.03583 0.36008 0.0
H449 H 0.49998 0.03779 0.38264 0.0
H450 H 0.70697 0.10557 0.33953 0.0
H451 H 0.70859 0.19271 0.31937 0.0
H452 H 0.51227 0.10093 0.32299 0.0
C453 C 0.50933 0.91133 0.37184 0.0
C454 C 0.54832 0.89202 0.38136 0.0
C455 C 0.61149 0.92738 0.37692 0.0
C456 C 0.63571 0.9818 0.36377 0.0
C457 C 0.59612 1.00002 0.35501 0.0
C458 C 0.53419 0.96555 0.35864 0.0
C459 C 0.50171 0.99611 0.34787 0.0
C460 C 0.45823 0.95749 0.32739 0.0
C461 C 0.46819 1.01021 0.36784 0.0
C462 C 0.55509 0.05352 0.33782 0.0
C463 C 0.60915 0.05494 0.34224 0.0
C464 C 0.66488 0.10461 0.33575 0.0
C465 C 0.6654 0.15402 0.32446 0.0
C466 C 0.61061 0.15343 0.31954 0.0
C467 C 0.55474 0.10218 0.32618 0.0
H468 H 0.92636 0.40687 0.99334 0.0
H469 H 0.85442 0.52479 0.97817 0.0
H470 H 0.94673 0.61123 0.99542 0.0
H471 H 0.9913 0.47257 0.05086 0.0
H472 H 0.05705 0.46443 0.04732 0.0
H473 H 0.98728 0.41276 0.03213 0.0
H474 H 0.04386 0.43933 0.99061 0.0
H475 H 0.11378 0.49137 1.00571 0.0
H476 H 0.08618 0.51716 0.98091 0.0
H477 H 0.04508 0.68441 0.01585 0.0
H478 H 0.13965 0.73732 0.03999 0.0
H479 H 0.14773 0.5722 0.04257 0.0
C480 C 0.93059 0.45109 0.99339 0.0
C481 C 0.88316 0.45909 0.98443 0.0
C482 C 0.88985 0.51748 0.98516 0.0
C483 C 0.94235 0.56698 0.99476 0.0
C484 C 0.988 0.55758 1.00369 0.0
C485 C 0.98261 0.50106 1.00322 0.0
C486 C 0.03681 0.50268 0.01536 0.0
C487 C 1.0169 0.46062 0.03774 0.0
C488 C 0.07225 0.48669 0.99705 0.0
C489 C 0.07311 0.56867 0.02286 0.0
C490 C 0.04444 0.59969 0.01574 0.0
C491 C 0.0682 0.66069 0.02137 0.0
C492 C 0.12208 0.69047 0.03503 0.0
C493 C 0.15146 0.6592 0.04304 0.0
C494 C 0.12686 0.5977 0.03649 0.0
H495 H 0.36344 0.4268 0.72588 0.0
H496 H 0.3901 0.58744 0.68852 0.0
H497 H 0.46002 0.57986 0.65943 0.0
H498 H 0.51262 0.46284 0.72401 0.0
H499 H 0.50128 0.38852 0.71828 0.0
H500 H 0.44363 0.39646 0.73382 0.0
H501 H 0.36264 0.33053 0.70239 0.0
H502 H 0.41812 0.31843 0.687 0.0
H503 H 0.37738 0.34741 0.67032 0.0
H504 H 0.53359 0.56132 0.63701 0.0
H505 H 0.60584 0.5322 0.62183 0.0
H506 H 0.53706 0.38562 0.67457 0.0
C507 C 0.38216 0.45867 0.71091 0.0
C508 C 0.37016 0.50669 0.70884 0.0
C509 C 0.39778 0.54962 0.68992 0.0
C510 C 0.43764 0.54575 0.6734 0.0
C511 C 0.44999 0.49896 0.67622 0.0
C512 C 0.42291 0.45584 0.69437 0.0
C513 C 0.44838 0.41343 0.69449 0.0
C514 C 0.47831 0.41555 0.71911 0.0
C515 C 0.39866 0.3486 0.68817 0.0
C516 C 0.49515 0.44071 0.67414 0.0
C517 C 0.49456 0.48946 0.66369 0.0
C518 C 0.53437 0.52308 0.645 0.0
C519 C 0.5759 0.50651 0.63668 0.0
C520 C 0.57805 0.45695 0.64713 0.0
C521 C 0.53657 0.42348 0.66606 0.0
H522 H 0.10668 0.49735 0.69329 0.0
H523 H 0.17553 0.68481 0.71279 0.0
H524 H 0.08378 0.67976 0.69557 0.0
H525 H 0.04572 0.50505 0.636 0.0
H526 H 0.98007 0.43024 0.63771 0.0
H527 H 0.04866 0.44691 0.65346 0.0
H528 H 0.98878 0.41047 0.6941 0.0
H529 H 0.91998 0.3939 0.67845 0.0
H530 H 0.94509 0.44377 0.70447 0.0
H531 H 0.98709 0.6563 0.6746 0.0
H532 H 0.89477 0.61741 0.64927 0.0
H533 H 0.88858 0.44557 0.64245 0.0
C534 C 0.10179 0.53689 0.69421 0.0
C535 C 0.14819 0.5915 0.70436 0.0
C536 C 0.1408 0.64274 0.70488 0.0
C537 C 0.08863 0.64017 0.69532 0.0
C538 C 0.04405 0.58601 0.68516 0.0
C539 C 0.05009 0.53531 0.68441 0.0
C540 C 0.99718 0.48405 0.67097 0.0
C541 C 0.01924 0.4655 0.64818 0.0
C542 C 0.96059 0.42984 0.68802 0.0
C543 C 0.96103 0.51414 0.66407 0.0
C544 C 0.98853 0.57274 0.67269 0.0
C545 C 0.96484 0.6103 0.66791 0.0
C546 C 0.91228 0.58778 0.65354 0.0
C547 C 0.88413 0.52837 0.64398 0.0
C548 C 0.90855 0.49097 0.6497 0.0
H549 H 0.52653 0.43461 0.28148 0.0
H550 H 0.47943 0.29929 0.33776 0.0
H551 H 0.45806 0.36174 0.36642 0.0
H552 H 0.5992 0.56466 0.31817 0.0
H553 H 0.56891 0.60521 0.30225 0.0
H554 H 0.57902 0.54938 0.28637 0.0
H555 H 0.46564 0.49218 0.27401 0.0
H556 H 0.4553 0.54834 0.28952 0.0
H557 H 0.40816 0.46956 0.29726 0.0
H558 H 0.45152 0.44518 0.38968 0.0
H559 H 0.44597 0.53428 0.4039 0.0
H560 H 0.48865 0.60941 0.33094 0.0
C561 C 0.51123 0.41798 0.29981 0.0
C562 C 0.50494 0.3626 0.30763 0.0
C563 C 0.48426 0.34164 0.33155 0.0
C564 C 0.47238 0.37695 0.34789 0.0
C565 C 0.48008 0.43212 0.3397 0.0
C566 C 0.49769 0.45169 0.316 0.0
C567 C 0.50119 0.51164 0.31135 0.0
C568 C 0.56593 0.5606 0.30412 0.0
C569 C 0.4548 0.50501 0.29189 0.0
C570 C 0.48417 0.52378 0.33631 0.0
C571 C 0.4728 0.4778 0.35253 0.0
C572 C 0.45943 0.48086 0.37702 0.0
C573 C 0.45677 0.53167 0.38498 0.0
C574 C 0.4664 0.57817 0.36844 0.0
C575 C 0.48026 0.57398 0.34383 0.0
H576 H 0.57257 0.128 0.97071 0.0
H577 H 0.74461 0.13766 0.98474 0.0
H578 H 0.69105 0.04266 1.00843 0.0
H579 H 0.50142 0.06435 0.02972 0.0
H580 H 0.42769 0.01629 0.01646 0.0
H581 H 0.48004 0.08708 1.00208 0.0
H582 H 0.47121 0.03056 0.9617 0.0
H583 H 0.41935 0.95951 0.97597 0.0
H584 H 0.48757 0.96984 0.96161 0.0
H585 H 0.61856 0.94393 0.02833 0.0
H586 H 0.53295 0.85019 0.04479 0.0
H587 H 0.40675 0.90338 0.01805 0.0
C588 C 0.59921 0.11085 0.97918 0.0
C589 C 0.66302 0.14068 0.97607 0.0
C590 C 0.69589 0.11597 0.98704 0.0
C591 C 0.6658 0.06193 1.00047 0.0
C592 C 0.60279 0.0331 1.00276 0.0
C593 C 0.56986 0.05685 0.99257 0.0
C594 C 0.50226 0.01563 0.99693 0.0
C595 C 0.47634 0.04777 0.01221 0.0
C596 C 0.4681 0.99252 0.97261 0.0
C597 C 0.50225 0.9649 0.01122 0.0
C598 C 0.56079 0.97592 0.01424 0.0
C599 C 0.5726 0.93497 0.02613 0.0
C600 C 0.52349 0.8815 0.03524 0.0
C601 C 0.46296 0.86906 0.03256 0.0
C602 C 0.45244 0.91175 0.02048 0.0
loop_
_geom_bond_atom_site_label_1
_geom_bond_atom_site_label_2
_geom_bond_distance
_geom_bond_site_symmetry_2
_ccdc_geom_bond_type
Co0 N4 2.148 . S
Co0 N10 2.128 . S
Co0 N20 2.194 . S
Co0 O25 2.351 . S
Co0 O26 2.155 . S
Co0 O27 2.096 . S
C1 N4 1.301 . S
C1 N5 1.328 . S
C1 H6 0.930 . S
C2 C3 1.333 . S
C2 N4 1.317 . S
C2 H7 0.930 . S
C3 C2 1.333 . S
C3 N5 1.350 . S
C3 H29 0.931 . S
N4 Co0 2.148 . S
N4 C1 1.301 . S
N4 C2 1.317 . S
N5 C1 1.328 . S
N5 C3 1.350 . S
H6 C1 0.930 . S
H7 C2 0.930 . S
C8 O9 1.224 . S
C8 O27 1.247 . S
O9 C8 1.224 . S
N10 Co0 2.128 . S
N10 C11 1.355 . S
N10 C13 1.311 . S
C11 N10 1.355 . S
C11 C12 1.363 . S
C11 H23 0.929 . S
C12 C11 1.363 . S
C12 N14 1.375 . S
C12 H30 0.931 . S
C13 N10 1.311 . S
C13 N14 1.347 . S
C13 H24 0.929 . S
N14 C12 1.375 . S
N14 C13 1.347 . S
C15 C18 1.365 . S
C15 N20 1.328 . S
C15 H21 0.929 . S
C16 C17 1.362 . S
C16 C19 1.378 . S
C16 H31 0.929 . S
C17 C16 1.362 . S
C17 C18 1.366 . S
C18 C15 1.365 . S
C18 C17 1.366 . S
C18 H32 0.930 . S
C19 C16 1.378 . S
C19 N20 1.315 . S
C19 H22 0.930 . S
N20 Co0 2.194 . S
N20 C15 1.328 . S
N20 C19 1.315 . S
H21 C15 0.929 . S
H22 C19 0.930 . S
H23 C11 0.929 . S
H24 C13 0.929 . S
O25 Co0 2.351 . S
O25 C28 1.244 . S
O26 Co0 2.155 . S
O26 C28 1.240 . S
O27 Co0 2.096 . S
O27 C8 1.247 . S
C28 O25 1.244 . S
C28 O26 1.240 . S
H29 C3 0.931 . S
H30 C12 0.931 . S
H31 C16 0.929 . S
H32 C18 0.930 . S
Co33 N37 2.148 . S
Co33 N43 2.128 . S
Co33 N53 2.194 . S
Co33 O58 2.351 . S
Co33 O59 2.155 . S
Co33 O60 2.096 . S
C34 N37 1.301 . S
C34 N38 1.328 . S
C34 H39 0.930 . S
C35 C36 1.333 . S
C35 N37 1.317 . S
C35 H40 0.930 . S
C36 C35 1.333 . S
C36 N38 1.350 . S
C36 H62 0.931 . S
N37 Co33 2.148 . S
N37 C34 1.301 . S
N37 C35 1.317 . S
N38 C34 1.328 . S
N38 C36 1.350 . S
H39 C34 0.930 . S
H40 C35 0.930 . S
C41 O42 1.224 . S
C41 O60 1.247 . S
O42 C41 1.224 . S
N43 Co33 2.128 . S
N43 C44 1.355 . S
N43 C46 1.311 . S
C44 N43 1.355 . S
C44 C45 1.363 . S
C44 H56 0.929 . S
C45 C44 1.363 . S
C45 N47 1.375 . S
C45 H63 0.931 . S
C46 N43 1.311 . S
C46 N47 1.347 . S
C46 H57 0.929 . S
N47 C45 1.375 . S
N47 C46 1.347 . S
C48 C51 1.365 . S
C48 N53 1.328 . S
C48 H54 0.929 . S
C49 C50 1.362 . S
C49 C52 1.378 . S
C49 H64 0.929 . S
C50 C49 1.362 . S
C50 C51 1.366 . S
C51 C48 1.365 . S
C51 C50 1.366 . S
C51 H65 0.930 . S
C52 C49 1.378 . S
C52 N53 1.315 . S
C52 H55 0.930 . S
N53 Co33 2.194 . S
N53 C48 1.328 . S
N53 C52 1.315 . S
H54 C48 0.929 . S
H55 C52 0.930 . S
H56 C44 0.929 . S
H57 C46 0.929 . S
O58 Co33 2.351 . S
O58 C61 1.244 . S
O59 Co33 2.155 . S
O59 C61 1.240 . S
O60 Co33 2.096 . S
O60 C41 1.247 . S
C61 O58 1.244 . S
C61 O59 1.240 . S
H62 C36 0.931 . S
H63 C45 0.931 . S
H64 C49 0.929 . S
H65 C51 0.930 . S
Co66 N70 2.148 . S
Co66 N76 2.128 . S
Co66 N86 2.194 . S
Co66 O91 2.351 . S
Co66 O92 2.155 . S
Co66 O93 2.096 . S
C67 N70 1.301 . S
C67 N71 1.328 . S
C67 H72 0.930 . S
C68 C69 1.333 . S
C68 N70 1.317 . S
C68 H73 0.930 . S
C69 C68 1.333 . S
C69 N71 1.350 . S
C69 H95 0.931 . S
N70 Co66 2.148 . S
N70 C67 1.301 . S
N70 C68 1.317 . S
N71 C67 1.328 . S
N71 C69 1.350 . S
H72 C67 0.930 . S
H73 C68 0.930 . S
C74 O75 1.224 . S
C74 O93 1.247 . S
O75 C74 1.224 . S
N76 Co66 2.128 . S
N76 C77 1.355 . S
N76 C79 1.311 . S
C77 N76 1.355 . S
C77 C78 1.363 . S
C77 H89 0.929 . S
C78 C77 1.363 . S
C78 N80 1.375 . S
C78 H96 0.931 . S
C79 N76 1.311 . S
C79 N80 1.347 . S
C79 H90 0.929 . S
N80 C78 1.375 . S
N80 C79 1.347 . S
C81 C84 1.365 . S
C81 N86 1.328 . S
C81 H87 0.929 . S
C82 C83 1.362 . S
C82 C85 1.378 . S
C82 H97 0.929 . S
C83 C82 1.362 . S
C83 C84 1.366 . S
C84 C81 1.365 . S
C84 C83 1.366 . S
C84 H98 0.930 . S
C85 C82 1.378 . S
C85 N86 1.315 . S
C85 H88 0.930 . S
N86 Co66 2.194 . S
N86 C81 1.328 . S
N86 C85 1.315 . S
H87 C81 0.929 . S
H88 C85 0.930 . S
H89 C77 0.929 . S
H90 C79 0.929 . S
O91 Co66 2.351 . S
O91 C94 1.244 . S
O92 Co66 2.155 . S
O92 C94 1.240 . S
O93 Co66 2.096 . S
O93 C74 1.247 . S
C94 O91 1.244 . S
C94 O92 1.240 . S
H95 C69 0.931 . S
H96 C78 0.931 . S
H97 C82 0.929 . S
H98 C84 0.930 . S
Co99 N103 2.148 . S
Co99 N109 2.128 . S
Co99 N119 2.194 . S
Co99 O124 2.351 . S
Co99 O125 2.155 . S
Co99 O126 2.096 . S
C100 N103 1.301 . S
C100 N104 1.328 . S
C100 H105 0.930 . S
C101 C102 1.333 . S
C101 N103 1.317 . S
C101 H106 0.930 . S
C102 C101 1.333 . S
C102 N104 1.350 . S
C102 H128 0.931 . S
N103 Co99 2.148 . S
N103 C100 1.301 . S
N103 C101 1.317 . S
N104 C100 1.328 . S
N104 C102 1.350 . S
H105 C100 0.930 . S
H106 C101 0.930 . S
C107 O108 1.224 . S
C107 O126 1.247 . S
O108 C107 1.224 . S
N109 Co99 2.128 . S
N109 C110 1.355 . S
N109 C112 1.311 . S
C110 N109 1.355 . S
C110 C111 1.363 . S
C110 H122 0.929 . S
C111 C110 1.363 . S
C111 N113 1.375 . S
C111 H129 0.931 . S
C112 N109 1.311 . S
C112 N113 1.347 . S
C112 H123 0.929 . S
N113 C111 1.375 . S
N113 C112 1.347 . S
C114 C117 1.365 . S
C114 N119 1.328 . S
C114 H120 0.929 . S
C115 C116 1.362 . S
C115 C118 1.378 . S
C115 H130 0.929 . S
C116 C115 1.362 . S
C116 C117 1.366 . S
C117 C114 1.365 . S
C117 C116 1.366 . S
C117 H131 0.930 . S
C118 C115 1.378 . S
C118 N119 1.315 . S
C118 H121 0.930 . S
N119 Co99 2.194 . S
N119 C114 1.328 . S
N119 C118 1.315 . S
H120 C114 0.929 . S
H121 C118 0.930 . S
H122 C110 0.929 . S
H123 C112 0.929 . S
O124 Co99 2.351 . S
O124 C127 1.244 . S
O125 Co99 2.155 . S
O125 C127 1.240 . S
O126 Co99 2.096 . S
O126 C107 1.247 . S
C127 O124 1.244 . S
C127 O125 1.240 . S
H128 C102 0.931 . S
H129 C111 0.931 . S
H130 C115 0.929 . S
H131 C117 0.930 . S
Co132 N136 2.148 . S
Co132 N142 2.128 . S
Co132 N152 2.194 . S
Co132 O157 2.351 . S
Co132 O158 2.155 . S
Co132 O159 2.096 . S
C133 N136 1.301 . S
C133 N137 1.328 . S
C133 H138 0.930 . S
C134 C135 1.333 . S
C134 N136 1.317 . S
C134 H139 0.930 . S
C135 C134 1.333 . S
C135 N137 1.350 . S
C135 H161 0.931 . S
N136 Co132 2.148 . S
N136 C133 1.301 . S
N136 C134 1.317 . S
N137 C133 1.328 . S
N137 C135 1.350 . S
H138 C133 0.930 . S
H139 C134 0.930 . S
C140 O141 1.224 . S
C140 O159 1.247 . S
O141 C140 1.224 . S
N142 Co132 2.128 . S
N142 C143 1.355 . S
N142 C145 1.311 . S
C143 N142 1.355 . S
C143 C144 1.363 . S
C143 H155 0.929 . S
C144 C143 1.363 . S
C144 N146 1.375 . S
C144 H162 0.931 . S
C145 N142 1.311 . S
C145 N146 1.347 . S
C145 H156 0.929 . S
N146 C144 1.375 . S
N146 C145 1.347 . S
C147 C150 1.365 . S
C147 N152 1.328 . S
C147 H153 0.929 . S
C148 C149 1.362 . S
C148 C151 1.378 . S
C148 H163 0.929 . S
C149 C148 1.362 . S
C149 C150 1.366 . S
C150 C147 1.365 . S
C150 C149 1.366 . S
C150 H164 0.930 . S
C151 C148 1.378 . S
C151 N152 1.315 . S
C151 H154 0.930 . S
N152 Co132 2.194 . S
N152 C147 1.328 . S
N152 C151 1.315 . S
H153 C147 0.929 . S
H154 C151 0.930 . S
H155 C143 0.929 . S
H156 C145 0.929 . S
O157 Co132 2.351 . S
O157 C160 1.244 . S
O158 Co132 2.155 . S
O158 C160 1.240 . S
O159 Co132 2.096 . S
O159 C140 1.247 . S
C160 O157 1.244 . S
C160 O158 1.240 . S
H161 C135 0.931 . S
H162 C144 0.931 . S
H163 C148 0.929 . S
H164 C150 0.930 . S
Co165 N169 2.148 . S
Co165 N175 2.128 . S
Co165 N185 2.194 . S
Co165 O190 2.351 . S
Co165 O191 2.155 . S
Co165 O192 2.096 . S
C166 N169 1.301 . S
C166 N170 1.328 . S
C166 H171 0.930 . S
C167 C168 1.333 . S
C167 N169 1.317 . S
C167 H172 0.930 . S
C168 C167 1.333 . S
C168 N170 1.350 . S
C168 H194 0.931 . S
N169 Co165 2.148 . S
N169 C166 1.301 . S
N169 C167 1.317 . S
N170 C166 1.328 . S
N170 C168 1.350 . S
H171 C166 0.930 . S
H172 C167 0.930 . S
C173 O174 1.224 . S
C173 O192 1.247 . S
O174 C173 1.224 . S
N175 Co165 2.128 . S
N175 C176 1.355 . S
N175 C178 1.311 . S
C176 N175 1.355 . S
C176 C177 1.363 . S
C176 H188 0.929 . S
C177 C176 1.363 . S
C177 N179 1.375 . S
C177 H195 0.931 . S
C178 N175 1.311 . S
C178 N179 1.347 . S
C178 H189 0.929 . S
N179 C177 1.375 . S
N179 C178 1.347 . S
C180 C183 1.365 . S
C180 N185 1.328 . S
C180 H186 0.929 . S
C181 C182 1.362 . S
C181 C184 1.378 . S
C181 H196 0.929 . S
C182 C181 1.362 . S
C182 C183 1.366 . S
C183 C180 1.365 . S
C183 C182 1.366 . S
C183 H197 0.930 . S
C184 C181 1.378 . S
C184 N185 1.315 . S
C184 H187 0.930 . S
N185 Co165 2.194 . S
N185 C180 1.328 . S
N185 C184 1.315 . S
H186 C180 0.929 . S
H187 C184 0.930 . S
H188 C176 0.929 . S
H189 C178 0.929 . S
O190 Co165 2.351 . S
O190 C193 1.244 . S
O191 Co165 2.155 . S
O191 C193 1.240 . S
O192 Co165 2.096 . S
O192 C173 1.247 . S
C193 O190 1.244 . S
C193 O191 1.240 . S
H194 C168 0.931 . S
H195 C177 0.931 . S
H196 C181 0.929 . S
H197 C183 0.930 . S
H198 C210 0.930 . S
H199 C212 0.930 . S
H200 C213 0.930 1_565 S
H201 C217 0.959 . S
H202 C217 0.959 . S
H203 C217 0.961 . S
H204 C218 0.960 . S
H205 C218 0.961 . S
H206 C218 0.959 . S
H207 C221 0.929 . S
H208 C222 0.931 . S
H209 C224 0.930 . S
C210 H198 0.930 . S
C210 C211 1.399 . S
C210 C215 1.399 . S
C211 C210 1.399 . S
C211 C212 1.376 . S
C212 H199 0.930 . S
C212 C211 1.376 . S
C212 C213 1.388 . S
C213 H200 0.930 1_545 S
C213 C212 1.388 . S
C213 C214 1.390 . S
C214 C213 1.390 . S
C214 C215 1.394 . S
C214 C220 1.465 1_545 S
C215 C210 1.399 . S
C215 C214 1.394 . S
C215 C216 1.516 . S
C216 C215 1.516 . S
C216 C217 1.502 . S
C216 C218 1.561 . S
C216 C219 1.526 1_545 S
C217 H201 0.959 . S
C217 H202 0.959 . S
C217 H203 0.961 . S
C217 C216 1.502 . S
C218 H204 0.960 . S
C218 H205 0.961 . S
C218 H206 0.959 . S
C218 C216 1.561 . S
C219 C216 1.526 1_565 S
C219 C220 1.396 . S
C219 C224 1.390 . S
C220 C214 1.465 1_565 S
C220 C219 1.396 . S
C220 C221 1.399 . S
C221 H207 0.929 . S
C221 C220 1.399 . S
C221 C222 1.385 . S
C222 H208 0.931 . S
C222 C221 1.385 . S
C222 C223 1.389 . S
C223 C222 1.389 . S
C223 C224 1.387 . S
C224 H209 0.930 . S
C224 C219 1.390 . S
C224 C223 1.387 . S
H225 C237 0.930 . S
H226 C239 0.930 . S
H227 C240 0.930 . S
H228 C244 0.959 . S
H229 C244 0.959 . S
H230 C244 0.961 . S
H231 C245 0.960 . S
H232 C245 0.961 . S
H233 C245 0.959 . S
H234 C248 0.929 1_455 S
H235 C249 0.931 . S
H236 C251 0.930 . S
C237 H225 0.930 . S
C237 C238 1.399 . S
C237 C242 1.399 . S
C238 C237 1.399 . S
C238 C239 1.376 . S
C239 H226 0.930 . S
C239 C238 1.376 . S
C239 C240 1.388 . S
C240 H227 0.930 . S
C240 C239 1.388 . S
C240 C241 1.390 . S
C241 C240 1.390 . S
C241 C242 1.394 . S
C241 C247 1.465 1_455 S
C242 C237 1.399 . S
C242 C241 1.394 . S
C242 C243 1.516 1_455 S
C243 C242 1.516 1_655 S
C243 C244 1.502 . S
C243 C245 1.561 . S
C243 C246 1.526 . S
C244 H228 0.959 . S
C244 H229 0.959 . S
C244 H230 0.961 . S
C244 C243 1.502 . S
C245 H231 0.960 . S
C245 H232 0.961 . S
C245 H233 0.959 . S
C245 C243 1.561 . S
C246 C243 1.526 . S
C246 C247 1.396 . S
C246 C251 1.390 . S
C247 C241 1.465 1_655 S
C247 C246 1.396 . S
C247 C248 1.399 . S
C248 H234 0.929 1_655 S
C248 C247 1.399 . S
C248 C249 1.385 . S
C249 H235 0.931 . S
C249 C248 1.385 . S
C249 C250 1.389 . S
C250 C249 1.389 . S
C250 C251 1.387 . S
C251 H236 0.930 . S
C251 C246 1.390 . S
C251 C250 1.387 . S
H252 C264 0.930 . S
H253 C266 0.930 . S
H254 C267 0.930 . S
H255 C271 0.959 . S
H256 C271 0.959 . S
H257 C271 0.961 . S
H258 C272 0.960 . S
H259 C272 0.961 . S
H260 C272 0.959 . S
H261 C275 0.929 . S
H262 C276 0.931 . S
H263 C278 0.930 . S
C264 H252 0.930 . S
C264 C265 1.399 . S
C264 C269 1.399 . S
C265 C264 1.399 . S
C265 C266 1.376 . S
C266 H253 0.930 . S
C266 C265 1.376 . S
C266 C267 1.388 . S
C267 H254 0.930 . S
C267 C266 1.388 . S
C267 C268 1.390 . S
C268 C267 1.390 . S
C268 C269 1.394 . S
C268 C274 1.465 . S
C269 C264 1.399 . S
C269 C268 1.394 . S
C269 C270 1.516 . S
C270 C269 1.516 . S
C270 C271 1.502 . S
C270 C272 1.561 . S
C270 C273 1.526 . S
C271 H255 0.959 . S
C271 H256 0.959 . S
C271 H257 0.961 . S
C271 C270 1.502 . S
C272 H258 0.960 . S
C272 H259 0.961 . S
C272 H260 0.959 . S
C272 C270 1.561 . S
C273 C270 1.526 . S
C273 C274 1.396 . S
C273 C278 1.390 . S
C274 C268 1.465 . S
C274 C273 1.396 . S
C274 C275 1.399 . S
C275 H261 0.929 . S
C275 C274 1.399 . S
C275 C276 1.385 . S
C276 H262 0.931 . S
C276 C275 1.385 . S
C276 C277 1.389 . S
C277 C276 1.389 . S
C277 C278 1.387 . S
C278 H263 0.930 . S
C278 C273 1.390 . S
C278 C277 1.387 . S
H279 C291 0.930 . S
H280 C293 0.930 . S
H281 C294 0.930 . S
H282 C298 0.959 . S
H283 C298 0.959 . S
H284 C298 0.961 . S
H285 C299 0.960 . S
H286 C299 0.961 . S
H287 C299 0.959 . S
H288 C302 0.929 . S
H289 C303 0.931 . S
H290 C305 0.930 . S
C291 H279 0.930 . S
C291 C292 1.399 . S
C291 C296 1.399 . S
C292 C291 1.399 . S
C292 C293 1.376 . S
C293 H280 0.930 . S
C293 C292 1.376 . S
C293 C294 1.388 . S
C294 H281 0.930 . S
C294 C293 1.388 . S
C294 C295 1.390 . S
C295 C294 1.390 . S
C295 C296 1.394 . S
C295 C301 1.465 . S
C296 C291 1.399 . S
C296 C295 1.394 . S
C296 C297 1.516 . S
C297 C296 1.516 . S
C297 C298 1.502 . S
C297 C299 1.561 . S
C297 C300 1.526 . S
C298 H282 0.959 . S
C298 H283 0.959 . S
C298 H284 0.961 . S
C298 C297 1.502 . S
C299 H285 0.960 . S
C299 H286 0.961 . S
C299 H287 0.959 . S
C299 C297 1.561 . S
C300 C297 1.526 . S
C300 C301 1.396 . S
C300 C305 1.390 . S
C301 C295 1.465 . S
C301 C300 1.396 . S
C301 C302 1.399 . S
C302 H288 0.929 . S
C302 C301 1.399 . S
C302 C303 1.385 . S
C303 H289 0.931 . S
C303 C302 1.385 . S
C303 C304 1.389 . S
C304 C303 1.389 . S
C304 C305 1.387 . S
C305 H290 0.930 . S
C305 C300 1.390 . S
C305 C304 1.387 . S
H306 C318 0.930 . S
H307 C320 0.930 . S
H308 C321 0.930 . S
H309 C325 0.959 . S
H310 C325 0.959 . S
H311 C325 0.961 . S
H312 C326 0.960 . S
H313 C326 0.961 . S
H314 C326 0.959 . S
H315 C329 0.929 . S
H316 C330 0.931 . S
H317 C332 0.930 . S
C318 H306 0.930 . S
C318 C319 1.399 . S
C318 C323 1.399 . S
C319 C318 1.399 . S
C319 C320 1.376 . S
C320 H307 0.930 . S
C320 C319 1.376 . S
C320 C321 1.388 . S
C321 H308 0.930 . S
C321 C320 1.388 . S
C321 C322 1.390 . S
C322 C321 1.390 . S
C322 C323 1.394 . S
C322 C328 1.465 . S
C323 C318 1.399 . S
C323 C322 1.394 . S
C323 C324 1.516 . S
C324 C323 1.516 . S
C324 C325 1.502 . S
C324 C326 1.561 . S
C324 C327 1.526 . S
C325 H309 0.959 . S
C325 H310 0.959 . S
C325 H311 0.961 . S
C325 C324 1.502 . S
C326 H312 0.960 . S
C326 H313 0.961 . S
C326 H314 0.959 . S
C326 C324 1.561 . S
C327 C324 1.526 . S
C327 C328 1.396 . S
C327 C332 1.390 1_565 S
C328 C322 1.465 . S
C328 C327 1.396 . S
C328 C329 1.399 . S
C329 H315 0.929 . S
C329 C328 1.399 . S
C329 C330 1.385 1_565 S
C330 H316 0.931 . S
C330 C329 1.385 1_545 S
C330 C331 1.389 . S
C331 C330 1.389 . S
C331 C332 1.387 . S
C332 H317 0.930 . S
C332 C327 1.390 1_545 S
C332 C331 1.387 . S
H333 C345 0.930 . S
H334 C347 0.930 . S
H335 C348 0.930 . S
H336 C352 0.959 . S
H337 C352 0.959 . S
H338 C352 0.961 . S
H339 C353 0.960 . S
H340 C353 0.961 . S
H341 C353 0.959 . S
H342 C356 0.929 . S
H343 C357 0.931 . S
H344 C359 0.930 . S
C345 H333 0.930 . S
C345 C346 1.399 1_455 S
C345 C350 1.399 . S
C346 C345 1.399 1_655 S
C346 C347 1.376 . S
C347 H334 0.930 . S
C347 C346 1.376 . S
C347 C348 1.388 1_655 S
C348 H335 0.930 . S
C348 C347 1.388 1_455 S
C348 C349 1.390 . S
C349 C348 1.390 . S
C349 C350 1.394 . S
C349 C355 1.465 . S
C350 C345 1.399 . S
C350 C349 1.394 . S
C350 C351 1.516 . S
C351 C350 1.516 . S
C351 C352 1.502 . S
C351 C353 1.561 . S
C351 C354 1.526 . S
C352 H336 0.959 . S
C352 H337 0.959 . S
C352 H338 0.961 . S
C352 C351 1.502 . S
C353 H339 0.960 . S
C353 H340 0.961 . S
C353 H341 0.959 . S
C353 C351 1.561 . S
C354 C351 1.526 . S
C354 C355 1.396 . S
C354 C359 1.390 . S
C355 C349 1.465 . S
C355 C354 1.396 . S
C355 C356 1.399 . S
C356 H342 0.929 . S
C356 C355 1.399 . S
C356 C357 1.385 . S
C357 H343 0.931 . S
C357 C356 1.385 . S
C357 C358 1.389 . S
C358 C357 1.389 . S
C358 C359 1.387 . S
C359 H344 0.930 . S
C359 C354 1.390 . S
C359 C358 1.387 . S
H360 C372 0.930 . S
H361 C374 0.930 . S
H362 C375 0.930 . S
H363 C379 0.959 . S
H364 C379 0.959 . S
H365 C379 0.961 . S
H366 C380 0.960 . S
H367 C380 0.961 . S
H368 C380 0.959 . S
H369 C383 0.929 . S
H370 C384 0.931 . S
H371 C386 0.930 . S
C372 H360 0.930 . S
C372 C373 1.399 . S
C372 C377 1.399 . S
C373 C372 1.399 . S
C373 C374 1.376 . S
C374 H361 0.930 . S
C374 C373 1.376 . S
C374 C375 1.388 . S
C375 H362 0.930 . S
C375 C374 1.388 . S
C375 C376 1.390 . S
C376 C375 1.390 . S
C376 C377 1.394 . S
C376 C382 1.465 . S
C377 C372 1.399 . S
C377 C376 1.394 . S
C377 C378 1.516 . S
C378 C377 1.516 . S
C378 C379 1.502 . S
C378 C380 1.561 . S
C378 C381 1.526 . S
C379 H363 0.959 . S
C379 H364 0.959 . S
C379 H365 0.961 . S
C379 C378 1.502 . S
C380 H366 0.960 . S
C380 H367 0.961 . S
C380 H368 0.959 . S
C380 C378 1.561 . S
C381 C378 1.526 . S
C381 C382 1.396 . S
C381 C386 1.390 . S
C382 C376 1.465 . S
C382 C381 1.396 . S
C382 C383 1.399 . S
C383 H369 0.929 . S
C383 C382 1.399 . S
C383 C384 1.385 . S
C384 H370 0.931 . S
C384 C383 1.385 . S
C384 C385 1.389 . S
C385 C384 1.389 . S
C385 C386 1.387 . S
C386 H371 0.930 . S
C386 C381 1.390 . S
C386 C385 1.387 . S
H387 C399 0.930 . S
H388 C401 0.930 . S
H389 C402 0.930 . S
H390 C406 0.959 . S
H391 C406 0.959 . S
H392 C406 0.961 . S
H393 C407 0.960 . S
H394 C407 0.961 . S
H395 C407 0.959 . S
H396 C410 0.929 . S
H397 C411 0.928 1_565 S
H398 C413 0.930 . S
C399 H387 0.930 . S
C399 C400 1.399 . S
C399 C404 1.399 . S
C400 C399 1.399 . S
C400 C401 1.376 . S
C401 H388 0.930 . S
C401 C400 1.376 . S
C401 C402 1.388 . S
C402 H389 0.930 . S
C402 C401 1.388 . S
C402 C403 1.390 . S
C403 C402 1.390 . S
C403 C404 1.394 . S
C403 C409 1.465 . S
C404 C399 1.399 . S
C404 C403 1.394 . S
C404 C405 1.516 . S
C405 C404 1.516 . S
C405 C406 1.502 . S
C405 C407 1.561 . S
C405 C408 1.526 . S
C406 H390 0.959 . S
C406 H391 0.959 . S
C406 H392 0.961 . S
C406 C405 1.502 . S
C407 H393 0.960 . S
C407 H394 0.961 . S
C407 H395 0.959 . S
C407 C405 1.561 . S
C408 C405 1.526 . S
C408 C409 1.396 . S
C408 C413 1.390 1_545 S
C409 C403 1.465 . S
C409 C408 1.396 . S
C409 C410 1.399 . S
C410 H396 0.929 . S
C410 C409 1.399 . S
C410 C411 1.398 . S
C411 H397 0.928 1_545 S
C411 C410 1.398 . S
C411 C412 1.379 1_545 S
C412 C411 1.379 1_565 S
C412 C413 1.387 . S
C413 H398 0.930 . S
C413 C408 1.390 1_565 S
C413 C412 1.387 . S
H414 C426 0.943 . S
H415 C428 0.930 . S
H416 C429 0.930 . S
H417 C433 0.959 . S
H418 C433 0.959 . S
H419 C433 0.961 . S
H420 C434 0.960 . S
H421 C434 0.961 . S
H422 C434 0.959 . S
H423 C437 0.929 . S
H424 C438 0.931 . S
H425 C440 0.930 . S
C426 H414 0.943 . S
C426 C427 1.403 . S
C426 C431 1.383 1_455 S
C427 C426 1.403 . S
C427 C428 1.376 . S
C428 H415 0.930 . S
C428 C427 1.376 . S
C428 C429 1.388 1_455 S
C429 H416 0.930 . S
C429 C428 1.388 1_655 S
C429 C430 1.390 . S
C430 C429 1.390 . S
C430 C431 1.394 . S
C430 C436 1.465 . S
C431 C426 1.383 1_655 S
C431 C430 1.394 . S
C431 C432 1.516 . S
C432 C431 1.516 . S
C432 C433 1.502 . S
C432 C434 1.561 . S
C432 C435 1.526 . S
C433 H417 0.959 . S
C433 H418 0.959 . S
C433 H419 0.961 . S
C433 C432 1.502 . S
C434 H420 0.960 . S
C434 H421 0.961 . S
C434 H422 0.959 . S
C434 C432 1.561 . S
C435 C432 1.526 . S
C435 C436 1.396 . S
C435 C440 1.390 . S
C436 C430 1.465 . S
C436 C435 1.396 . S
C436 C437 1.399 . S
C437 H423 0.929 . S
C437 C436 1.399 . S
C437 C438 1.385 . S
C438 H424 0.931 . S
C438 C437 1.385 . S
C438 C439 1.389 . S
C439 C438 1.389 . S
C439 C440 1.387 . S
C440 H425 0.930 . S
C440 C435 1.390 . S
C440 C439 1.387 . S
H441 C453 0.930 . S
H442 C455 0.930 . S
H443 C456 0.930 . S
H444 C460 0.959 1_565 S
H445 C460 0.959 . S
H446 C460 0.961 1_565 S
H447 C461 0.960 . S
H448 C461 0.961 . S
H449 C461 0.959 . S
H450 C464 0.929 . S
H451 C465 0.931 . S
H452 C467 0.930 . S
C453 H441 0.930 . S
C453 C454 1.399 . S
C453 C458 1.399 . S
C454 C453 1.399 . S
C454 C455 1.376 . S
C455 H442 0.930 . S
C455 C454 1.376 . S
C455 C456 1.388 . S
C456 H443 0.930 . S
C456 C455 1.388 . S
C456 C457 1.390 . S
C457 C456 1.390 . S
C457 C458 1.394 . S
C457 C463 1.465 1_565 S
C458 C453 1.399 . S
C458 C457 1.394 . S
C458 C459 1.516 1_565 S
C459 C458 1.516 1_545 S
C459 C460 1.502 . S
C459 C461 1.561 . S
C459 C462 1.526 . S
C460 H444 0.959 1_545 S
C460 H445 0.959 . S
C460 H446 0.961 1_545 S
C460 C459 1.502 . S
C461 H447 0.960 . S
C461 H448 0.961 . S
C461 H449 0.959 . S
C461 C459 1.561 . S
C462 C459 1.526 . S
C462 C463 1.396 . S
C462 C467 1.390 . S
C463 C457 1.465 1_545 S
C463 C462 1.396 . S
C463 C464 1.399 . S
C464 H450 0.929 . S
C464 C463 1.399 . S
C464 C465 1.385 . S
C465 H451 0.931 . S
C465 C464 1.385 . S
C465 C466 1.389 . S
C466 C465 1.389 . S
C466 C467 1.387 . S
C467 H452 0.930 . S
C467 C462 1.390 . S
C467 C466 1.387 . S
H468 C480 0.930 . S
H469 C482 0.930 . S
H470 C483 0.930 . S
H471 C487 0.959 . S
H472 C487 0.959 1_455 S
H473 C487 0.961 . S
H474 C488 0.960 . S
H475 C488 0.961 . S
H476 C488 0.959 . S
H477 C491 0.929 . S
H478 C492 0.931 . S
H479 C494 0.930 . S
C480 H468 0.930 . S
C480 C481 1.399 . S
C480 C485 1.399 . S
C481 C480 1.399 . S
C481 C482 1.376 . S
C482 H469 0.930 . S
C482 C481 1.376 . S
C482 C483 1.388 . S
C483 H470 0.930 . S
C483 C482 1.388 . S
C483 C484 1.390 . S
C484 C483 1.390 . S
C484 C485 1.394 . S
C484 C490 1.465 1_656 S
C485 C480 1.399 . S
C485 C484 1.394 . S
C485 C486 1.516 1_656 S
C486 C485 1.516 1_454 S
C486 C487 1.502 1_455 S
C486 C488 1.561 1_554 S
C486 C489 1.526 . S
C487 H471 0.959 . S
C487 H472 0.959 1_655 S
C487 H473 0.961 . S
C487 C486 1.502 1_655 S
C488 H474 0.960 . S
C488 H475 0.961 . S
C488 H476 0.959 . S
C488 C486 1.561 1_556 S
C489 C486 1.526 . S
C489 C490 1.396 . S
C489 C494 1.390 . S
C490 C484 1.465 1_454 S
C490 C489 1.396 . S
C490 C491 1.399 . S
C491 H477 0.929 . S
C491 C490 1.399 . S
C491 C492 1.385 . S
C492 H478 0.931 . S
C492 C491 1.385 . S
C492 C493 1.389 . S
C493 C492 1.389 . S
C493 C494 1.387 . S
C494 H479 0.930 . S
C494 C489 1.390 . S
C494 C493 1.387 . S
H495 C507 0.930 . S
H496 C509 0.930 . S
H497 C510 0.930 . S
H498 C514 0.959 . S
H499 C514 0.959 . S
H500 C514 0.961 . S
H501 C515 0.960 . S
H502 C515 0.961 . S
H503 C515 0.959 . S
H504 C518 0.929 . S
H505 C519 0.931 . S
H506 C521 0.930 . S
C507 H495 0.930 . S
C507 C508 1.399 . S
C507 C512 1.399 . S
C508 C507 1.399 . S
C508 C509 1.376 . S
C509 H496 0.930 . S
C509 C508 1.376 . S
C509 C510 1.388 . S
C510 H497 0.930 . S
C510 C509 1.388 . S
C510 C511 1.390 . S
C511 C510 1.390 . S
C511 C512 1.394 . S
C511 C517 1.465 . S
C512 C507 1.399 . S
C512 C511 1.394 . S
C512 C513 1.516 . S
C513 C512 1.516 . S
C513 C514 1.502 . S
C513 C515 1.561 . S
C513 C516 1.526 . S
C514 H498 0.959 . S
C514 H499 0.959 . S
C514 H500 0.961 . S
C514 C513 1.502 . S
C515 H501 0.960 . S
C515 H502 0.961 . S
C515 H503 0.959 . S
C515 C513 1.561 . S
C516 C513 1.526 . S
C516 C517 1.396 . S
C516 C521 1.390 . S
C517 C511 1.465 . S
C517 C516 1.396 . S
C517 C518 1.399 . S
C518 H504 0.929 . S
C518 C517 1.399 . S
C518 C519 1.385 . S
C519 H505 0.931 . S
C519 C518 1.385 . S
C519 C520 1.389 . S
C520 C519 1.389 . S
C520 C521 1.387 . S
C521 H506 0.930 . S
C521 C516 1.390 . S
C521 C520 1.387 . S
H522 C534 0.930 . S
H523 C536 0.930 . S
H524 C537 0.930 . S
H525 C541 0.959 . S
H526 C541 0.959 . S
H527 C541 0.961 . S
H528 C542 0.960 . S
H529 C542 0.961 . S
H530 C542 0.959 . S
H531 C545 0.929 . S
H532 C546 0.931 . S
H533 C548 0.930 . S
C534 H522 0.930 . S
C534 C535 1.399 . S
C534 C539 1.399 . S
C535 C534 1.399 . S
C535 C536 1.376 . S
C536 H523 0.930 . S
C536 C535 1.376 . S
C536 C537 1.388 . S
C537 H524 0.930 . S
C537 C536 1.388 . S
C537 C538 1.390 . S
C538 C537 1.390 . S
C538 C539 1.394 . S
C538 C544 1.465 . S
C539 C534 1.399 . S
C539 C538 1.394 . S
C539 C540 1.516 1_455 S
C540 C539 1.516 1_655 S
C540 C541 1.502 . S
C540 C542 1.561 . S
C540 C543 1.526 . S
C541 H525 0.959 . S
C541 H526 0.959 . S
C541 H527 0.961 . S
C541 C540 1.502 . S
C542 H528 0.960 . S
C542 H529 0.961 . S
C542 H530 0.959 . S
C542 C540 1.561 . S
C543 C540 1.526 . S
C543 C544 1.396 1_655 S
C543 C548 1.390 . S
C544 C538 1.465 . S
C544 C543 1.396 1_455 S
C544 C545 1.399 . S
C545 H531 0.929 . S
C545 C544 1.399 . S
C545 C546 1.385 1_455 S
C546 H532 0.931 . S
C546 C545 1.385 1_655 S
C546 C547 1.389 . S
C547 C546 1.389 . S
C547 C548 1.387 . S
C548 H533 0.930 . S
C548 C543 1.390 . S
C548 C547 1.387 . S
H549 C561 0.930 . S
H550 C563 0.930 . S
H551 C564 0.930 . S
H552 C568 0.959 . S
H553 C568 0.959 . S
H554 C568 0.961 . S
H555 C569 0.960 . S
H556 C569 0.961 . S
H557 C569 0.959 . S
H558 C572 0.929 . S
H559 C573 0.931 . S
H560 C575 0.930 . S
C561 H549 0.930 . S
C561 C562 1.399 . S
C561 C566 1.399 . S
C562 C561 1.399 . S
C562 C563 1.376 . S
C563 H550 0.930 . S
C563 C562 1.376 . S
C563 C564 1.388 . S
C564 H551 0.930 . S
C564 C563 1.388 . S
C564 C565 1.390 . S
C565 C564 1.390 . S
C565 C566 1.394 . S
C565 C571 1.465 . S
C566 C561 1.399 . S
C566 C565 1.394 . S
C566 C567 1.516 . S
C567 C566 1.516 . S
C567 C568 1.502 . S
C567 C569 1.561 . S
C567 C570 1.526 . S
C568 H552 0.959 . S
C568 H553 0.959 . S
C568 H554 0.961 . S
C568 C567 1.502 . S
C569 H555 0.960 . S
C569 H556 0.961 . S
C569 H557 0.959 . S
C569 C567 1.561 . S
C570 C567 1.526 . S
C570 C571 1.396 . S
C570 C575 1.390 . S
C571 C565 1.465 . S
C571 C570 1.396 . S
C571 C572 1.399 . S
C572 H558 0.929 . S
C572 C571 1.399 . S
C572 C573 1.385 . S
C573 H559 0.931 . S
C573 C572 1.385 . S
C573 C574 1.389 . S
C574 C573 1.389 . S
C574 C575 1.387 . S
C575 H560 0.930 . S
C575 C570 1.390 . S
C575 C574 1.387 . S
H576 C588 0.930 . S
H577 C590 0.930 . S
H578 C591 0.974 . S
H579 C595 0.959 . S
H580 C595 0.959 . S
H581 C595 0.961 . S
H582 C596 0.960 . S
H583 C596 0.961 . S
H584 C596 0.959 . S
H585 C599 0.929 . S
H586 C600 0.931 . S
H587 C602 0.930 . S
C588 H576 0.930 . S
C588 C589 1.399 . S
C588 C593 1.399 . S
C589 C588 1.399 . S
C589 C590 1.376 . S
C590 H577 0.930 . S
C590 C589 1.376 . S
C590 C591 1.351 1_556 S
C591 H578 0.974 . S
C591 C590 1.351 1_554 S
C591 C592 1.384 1_554 S
C592 C591 1.384 1_556 S
C592 C593 1.394 . S
C592 C598 1.465 1_546 S
C593 C588 1.399 . S
C593 C592 1.394 . S
C593 C594 1.516 1_545 S
C594 C593 1.516 1_565 S
C594 C595 1.502 . S
C594 C596 1.561 . S
C594 C597 1.526 1_556 S
C595 H579 0.959 . S
C595 H580 0.959 . S
C595 H581 0.961 . S
C595 C594 1.502 . S
C596 H582 0.960 . S
C596 H583 0.961 . S
C596 H584 0.959 . S
C596 C594 1.561 . S
C597 C594 1.526 1_554 S
C597 C598 1.396 . S
C597 C602 1.390 . S
C598 C592 1.465 1_564 S
C598 C597 1.396 . S
C598 C599 1.399 . S
C599 H585 0.929 . S
C599 C598 1.399 . S
C599 C600 1.385 . S
C600 H586 0.931 . S
C600 C599 1.385 . S
C600 C601 1.389 . S
C601 C600 1.389 . S
C601 C602 1.387 . S
C602 H587 0.930 . S
C602 C597 1.390 . S
C602 C601 1.387 . S
C211 C8 1.396 . S
C223 C173 1.368 . S
C238 C107 1.387 . S
C250 C41 1.421 . S
C265 C140 1.426 . S
C277 C74 1.398 . S
C292 C182 1.175 . S
C304 N5 1.175 . S
C319 C116 1.143 . S
C331 N38 1.101 . S
C346 N71 1.182 . S
C358 C149 1.180 . S
C373 C50 1.154 . S
C385 N104 1.135 . S
C400 C83 1.168 . S
C412 N137 1.163 . S
C427 N170 1.111 . S
C439 C17 1.152 . S
C454 C160 1.681 . S
C466 N14 1.667 . S
C481 N47 1.665 . S
C493 C193 1.681 . S
C508 C127 1.666 . S
C520 N80 1.657 . S
C535 N113 1.650 . S
C547 C94 1.678 . S
C562 C28 1.681 . S
C574 N146 1.664 . S
C589 C61 1.681 . S
C601 N179 1.671 . S
