# Generated by pormake.
# Topology fnu, (5)-cn, num edge types: 1
# Building blocks:
#     Node 0, Type 0, BuildingBlock: XOMCOT_clean_sbu_1, # of connection points: 5
#     Node 1, Type 0, BuildingBlock: XOMCOT_clean_sbu_1, # of connection points: 5
#     Node 2, Type 0, BuildingBlock: XOMCOT_clean_sbu_1, # of connection points: 5
#     Node 3, Type 0, BuildingBlock: XOMCOT_clean_sbu_1, # of connection points: 5
#     Node 4, Type 0, BuildingBlock: XOMCOT_clean_sbu_1, # of connection points: 5
#     Node 5, Type 0, BuildingBlock: XOMCOT_clean_sbu_1, # of connection points: 5
#     Edge 6, Type (0, 0), BuildingBlock: XUDNAN_clean_linker_2, # of connection points: 2
#     Edge 7, Type (0, 0), BuildingBlock: XUDNAN_clean_linker_2, # of connection points: 2
#     Edge 8, Type (0, 0), BuildingBlock: XUDNAN_clean_linker_2, # of connection points: 2
#     Edge 9, Type (0, 0), BuildingBlock: XUDNAN_clean_linker_2, # of connection points: 2
#     Edge 10, Type (0, 0), BuildingBlock: XUDNAN_clean_linker_2, # of connection points: 2
#     Edge 11, Type (0, 0), BuildingBlock: XUDNAN_clean_linker_2, # of connection points: 2
#     Edge 12, Type (0, 0), BuildingBlock: XUDNAN_clean_linker_2, # of connection points: 2
#     Edge 13, Type (0, 0), BuildingBlock: XUDNAN_clean_linker_2, # of connection points: 2
#     Edge 14, Type (0, 0), BuildingBlock: XUDNAN_clean_linker_2, # of connection points: 2
#     Edge 15, Type (0, 0), BuildingBlock: XUDNAN_clean_linker_2, # of connection points: 2
#     Edge 16, Type (0, 0), BuildingBlock: XUDNAN_clean_linker_2, # of connection points: 2
#     Edge 17, Type (0, 0), BuildingBlock: XUDNAN_clean_linker_2, # of connection points: 2
#     Edge 18, Type (0, 0), BuildingBlock: XUDNAN_clean_linker_2, # of connection points: 2
#     Edge 19, Type (0, 0), BuildingBlock: XUDNAN_clean_linker_2, # of connection points: 2
#     Edge 20, Type (0, 0), BuildingBlock: XUDNAN_clean_linker_2, # of connection points: 2
# Relax obj value: 0.195
# Max RMSD: 0.141
# Mean RMSD: 0.141
data_MOF--net-fnu--node1-XOMCOT_clean_sbu_1--edge1-XUDNAN_clean_linker_2
_symmetry_space_group_name_H-M    P1
_symmetry_Int_Tables_number       1
_symmetry_cell_setting            triclinic
loop_
_symmetry_equiv_pos_as_xyz
'x, y, z'
_cell_length_a     25.833674
_cell_length_b     27.605905
_cell_length_c     33.503038
_cell_angle_alpha  90.674795
_cell_angle_beta   95.083536
_cell_angle_gamma 121.06362
loop_
_atom_site_label
_atom_site_type_symbol
_atom_site_fract_x
_atom_site_fract_y
_atom_site_fract_z
_atom_type_partial_charge
C0 C 0.17784 0.10724 0.32417 0.0
C1 C 0.17324 0.10004 0.36479 0.0
N2 N 0.12238 0.09832 0.37352 0.0
N3 N 0.13036 0.11064 0.30759 0.0
C4 C 0.09833 0.10604 0.33849 0.0
H5 H 0.21038 0.10473 0.30741 0.0
Co6 Co 0.09691 0.10099 0.2542 0.0
C7 C 1.05463 0.16803 0.25998 0.0
O8 O 1.01212 0.11836 0.2702 0.0
N9 N 1.06092 0.09027 0.20233 0.0
C10 C 0.98917 0.06457 0.15143 0.0
C11 C 1.00116 0.05566 0.1905 0.0
C12 C 0.08444 0.11992 0.17036 0.0
N13 N 1.0417 0.10515 0.13883 0.0
O14 O 0.17737 0.12974 0.23421 0.0
H15 H 0.96813 1.02723 0.20957 0.0
H16 H 0.13191 0.15208 0.17047 0.0
O17 O 0.107 0.17521 0.25653 0.0
C18 C 0.22736 0.17787 0.23909 0.0
O19 O 0.23154 0.21818 0.26288 0.0
N20 N 0.0787 1.02596 0.25104 0.0
C21 C 1.01147 0.90884 0.2316 0.0
C22 C 0.99532 0.9335 0.26124 0.0
C23 C 1.02944 0.99183 0.27043 0.0
C24 C 0.09775 1.00313 0.22372 0.0
C25 C 1.06496 0.94442 0.21383 0.0
H26 H 1.01276 1.01049 0.29033 0.0
H27 H 0.13524 0.03027 0.2071 0.0
H28 H 1.05512 0.10358 0.33466 0.0
H29 H 0.20192 0.09151 0.38533 0.0
H30 H 0.94497 0.04348 0.13405 0.0
H31 H 0.95394 0.90891 0.27522 0.0
H32 H 0.07991 0.9276 0.19114 0.0
C33 C 0.94531 0.94439 0.69344 0.0
C34 C 0.93658 0.94121 0.65213 0.0
N35 N 0.98576 0.98552 0.63875 0.0
N36 N 0.99966 0.9907 0.70612 0.0
C37 C 1.02337 1.01465 0.67222 0.0
H38 H 0.91426 0.9144 0.7128 0.0
Co39 Co 1.03804 1.01712 0.75778 0.0
C40 C 0.07766 0.1289 0.75139 0.0
O41 O 0.12431 0.1273 0.74025 0.0
N42 N 0.07929 0.04656 0.8088 0.0
C43 C 0.15375 0.09549 0.85811 0.0
C44 C 0.13803 0.06507 0.82173 0.0
C45 C 1.06112 0.06772 0.83723 0.0
N46 N 0.10507 0.09687 0.86754 0.0
O47 O 0.95775 0.97541 0.77992 0.0
H48 H 0.16898 0.0599 0.80516 0.0
H49 H 1.01724 0.06419 0.83494 0.0
O50 O 1.02883 0.08192 0.75474 0.0
C51 C 0.93904 0.95154 0.8126 0.0
O52 O 0.97722 0.94822 0.83944 0.0
N53 N 1.05176 0.95598 0.7608 0.0
C54 C 0.09721 0.88463 0.77744 0.0
C55 C 0.13291 0.9372 0.76134 0.0
C56 C 0.10877 0.97147 0.75245 0.0
C57 C 1.01371 0.9023 0.77157 0.0
C58 C 1.03579 0.86622 0.78053 0.0
H59 H 0.13731 1.0127 0.74133 0.0
H60 H 0.96656 0.88711 0.77419 0.0
H61 H 1.06727 0.05309 0.67223 0.0
H62 H 0.89739 0.90814 0.63344 0.0
H63 H 0.19739 0.11504 0.87618 0.0
H64 H 0.1802 0.95352 0.75765 0.0
H65 H 1.00523 0.82475 0.79064 0.0
C66 C 0.81532 0.44925 0.64701 0.0
C67 C 0.80352 0.45385 0.68569 0.0
N68 N 0.79097 0.40598 0.70345 0.0
N69 N 0.80978 0.39848 0.6401 0.0
C70 C 0.79556 0.3733 0.67519 0.0
H71 H 0.82731 0.48105 0.62533 0.0
Co72 Co 0.81896 0.37034 0.59191 0.0
C73 C 0.73964 0.3953 0.53168 0.0
O74 O 0.71674 0.34764 0.50953 0.0
N75 N 0.8304 0.34265 0.54435 0.0
C76 C 0.85201 0.29565 0.50095 0.0
C77 C 0.84142 0.30015 0.53985 0.0
C78 C 0.83841 0.36545 0.50839 0.0
N79 N 0.84992 0.3368 0.48122 0.0
O80 O 0.89776 0.43843 0.58893 0.0
H81 H 0.84397 0.27496 0.5634 0.0
H82 H 0.8361 0.40264 0.50217 0.0
O83 O 0.77823 0.40613 0.56243 0.0
C84 C 0.94227 0.43279 0.60186 0.0
O85 O 0.93016 0.38767 0.62132 0.0
N86 N 0.74439 0.30081 0.59491 0.0
C87 C 0.65207 0.18841 0.57676 0.0
C88 C 0.63946 0.23207 0.57353 0.0
C89 C 0.68643 0.28845 0.58369 0.0
C90 C 0.75379 0.25831 0.60571 0.0
C91 C 0.70882 0.20173 0.59578 0.0
H92 H 0.67651 0.3217 0.58039 0.0
H93 H 0.79837 0.2686 0.61874 0.0
H94 H 0.78768 0.33137 0.67966 0.0
H95 H 0.80504 0.4901 0.69981 0.0
H96 H 0.86144 0.26508 0.48835 0.0
H97 H 0.59524 0.22329 0.56072 0.0
H98 H 0.7195 0.16899 0.60076 0.0
C99 C 0.64809 0.4089 0.02822 0.0
C100 C 0.64298 0.39908 0.98717 0.0
N101 N 0.68721 0.38975 0.97868 0.0
N102 N 0.69541 0.40583 0.04569 0.0
C103 C 0.71817 0.39412 0.01454 0.0
H104 H 0.62024 0.41944 0.0442 0.0
Co105 Co 0.72937 0.42613 0.09996 0.0
C106 C 0.75253 0.53268 0.08962 0.0
O107 O 0.7884 0.53158 0.06462 0.0
N108 N 0.76535 0.44859 0.15214 0.0
C109 C 0.83958 0.49447 0.20174 0.0
C110 C 0.81935 0.49646 0.16281 0.0
C111 C 0.75322 0.41841 0.18492 0.0
N112 N 0.79829 0.44486 0.21521 0.0
O113 O 0.64843 0.37352 0.11924 0.0
H114 H 0.84469 0.52858 0.14256 0.0
H115 H 0.71433 0.37608 0.18572 0.0
O116 O 0.71243 0.48579 0.10203 0.0
C117 C 0.60411 0.32524 0.10429 0.0
O118 O 0.61069 0.302 0.07217 0.0
N119 N 0.75436 0.37272 0.09994 0.0
C120 C 0.83196 0.33317 0.12476 0.0
C121 C 0.85085 0.37914 0.10042 0.0
C122 C 0.81201 0.39885 0.08927 0.0
C123 C 0.73287 0.32479 0.12059 0.0
C124 C 0.77104 0.30444 0.13334 0.0
H125 H 0.82988 0.43845 0.0749 0.0
H126 H 0.68896 0.3055 0.13151 0.0
H127 H 0.75865 0.39169 0.01748 0.0
H128 H 0.60995 0.39971 0.96527 0.0
H129 H 0.88355 0.52465 0.21759 0.0
H130 H 0.89657 0.40209 0.09185 0.0
H131 H 0.7541 0.26933 0.15252 0.0
C132 C 0.40986 0.75239 0.97624 0.0
C133 C 0.41064 0.757 0.01728 0.0
N134 N 0.42085 0.7178 0.0333 0.0
N135 N 0.41873 0.70989 0.96627 0.0
C136 C 0.42606 0.69008 1.00179 0.0
H137 H 0.40238 0.77801 0.95507 0.0
Co138 Co 0.41554 0.68143 0.91455 0.0
C139 C 0.362 0.73633 0.86455 0.0
O140 O 0.40619 0.75425 0.84151 0.0
N141 N 0.41198 0.65229 0.86337 0.0
C142 C 0.37773 0.60456 0.80376 0.0
C143 C 0.36167 0.62002 0.83738 0.0
C144 C 0.45809 0.6563 0.84469 0.0
N145 N 0.43828 0.62742 0.80852 0.0
O146 O 0.4863 0.75293 0.9035 0.0
H147 H 0.31623 0.60937 0.84203 0.0
H148 H 0.50536 0.68038 0.85691 0.0
O149 O 0.36076 0.70696 0.89406 0.0
C150 C 0.53906 0.76295 0.91683 0.0
O151 O 0.54286 0.72978 0.94323 0.0
N152 N 0.34992 0.60992 0.92462 0.0
C153 C 0.26421 0.49533 0.9066 0.0
C154 C 0.24576 0.535 0.90938 0.0
C155 C 0.28959 0.59253 0.91883 0.0
C156 C 0.36739 0.57116 0.92785 0.0
C157 C 0.32531 0.51361 0.91879 0.0
H158 H 0.2754 0.62308 0.91724 0.0
H159 H 0.4153 0.58564 0.93284 0.0
H160 H 0.43312 0.6548 1.00438 0.0
H161 H 0.40436 0.78697 0.03409 0.0
H162 H 0.34784 0.58111 0.77689 0.0
H163 H 0.19896 0.52271 0.9008 0.0
H164 H 0.34133 0.48429 0.91839 0.0
C165 C 0.33709 0.6474 0.37418 0.0
C166 C 0.33125 0.64426 0.33276 0.0
N167 N 0.38693 0.67608 0.32077 0.0
N168 N 0.39622 0.68215 0.38833 0.0
C169 C 0.42534 0.69827 0.35492 0.0
H170 H 0.30036 0.62399 0.39223 0.0
Co171 Co 0.43792 0.70451 0.44027 0.0
C172 C 0.4659 0.8149 0.43253 0.0
O173 O 0.50659 0.81571 0.41117 0.0
N174 N 0.48242 0.72792 0.49051 0.0
C175 C 0.56003 0.77445 0.53817 0.0
C176 C 0.53614 0.77659 0.5003 0.0
C177 C 0.47476 0.6968 0.52258 0.0
N178 N 0.5216 0.72383 0.55171 0.0
O179 O 0.36214 0.65619 0.46606 0.0
H180 H 0.55832 0.81029 0.4805 0.0
H181 H 0.43653 0.65429 0.52406 0.0
O182 O 0.42587 0.76763 0.4444 0.0
C183 C 0.31488 0.66004 0.46794 0.0
O184 O 0.30991 0.69853 0.44821 0.0
N185 N 0.45614 0.64693 0.43683 0.0
C186 C 0.51888 0.59053 0.45277 0.0
C187 C 0.54548 0.64161 0.43379 0.0
C188 C 0.51323 0.66891 0.42594 0.0
C189 C 0.42692 0.59468 0.452 0.0
C190 C 0.45778 0.56554 0.46017 0.0
H191 H 0.53604 0.71066 0.41458 0.0
H192 H 0.38185 0.57741 0.461 0.0
H193 H 0.47414 0.72551 0.35567 0.0
H194 H 0.28963 0.61876 0.31298 0.0
H195 H 0.60347 0.80636 0.55371 0.0
H196 H 0.59234 0.66213 0.42736 0.0
H197 H 0.43575 0.52621 0.47494 0.0
H198 H 0.3411 0.27617 0.24209 0.0
H199 H 0.23349 0.10589 0.18496 0.0
H200 H 0.31861 0.1248 0.14666 0.0
H201 H 0.41228 0.34478 0.15533 0.0
H202 H 0.48494 0.39384 0.18286 0.0
H203 H 0.41647 0.36676 0.20699 0.0
H204 H 0.4609 0.33074 0.26326 0.0
H205 H 0.52955 0.35772 0.23929 0.0
H206 H 0.48719 0.28415 0.25013 0.0
H207 H 0.41401 0.16254 0.11288 0.0
H208 H 0.51263 0.21572 0.08593 0.0
H209 H 0.56165 0.36279 0.16442 0.0
C210 C 0.33546 0.24265 0.22172 0.0
C211 C 0.28007 0.18919 0.21686 0.0
C212 C 0.27503 0.14693 0.18959 0.0
C213 C 0.32333 0.15736 0.16758 0.0
C214 C 0.37694 0.21035 0.17299 0.0
C215 C 0.38345 0.25236 0.19943 0.0
C216 C 0.44579 0.30595 0.19898 0.0
C217 C 0.43947 0.35578 0.18522 0.0
C218 C 0.48306 0.32049 0.24038 0.0
C219 C 0.47312 0.28763 0.16795 0.0
C220 C 0.4324 0.23222 0.15348 0.0
C221 C 0.44623 0.20585 0.12412 0.0
C222 C 0.50269 0.23669 0.10892 0.0
C223 C 0.54558 0.29373 0.12289 0.0
C224 C 0.53037 0.31927 0.15316 0.0
H225 H 0.94049 0.13694 0.22891 0.0
H226 H 0.12436 0.28255 0.24745 0.0
H227 H 0.08791 0.34145 0.21432 0.0
H228 H 0.90429 0.16811 0.13081 0.0
H229 H 0.82585 0.14135 0.13779 0.0
H230 H 0.86661 0.11249 0.1642 0.0
H231 H 0.84045 0.13578 0.23206 0.0
H232 H 0.7995 0.16461 0.20591 0.0
H233 H 0.8601 0.20732 0.24496 0.0
H234 H 1.02806 0.38412 0.18138 0.0
H235 H 0.95444 0.40621 0.14863 0.0
H236 H 0.81217 0.22864 0.14645 0.0
C237 C 0.97331 0.18144 0.22661 0.0
C238 C 1.03522 0.20555 0.24157 0.0
C239 C 0.07667 0.26347 0.23665 0.0
C240 C 1.05629 0.29706 0.21786 0.0
C241 C 0.99467 0.27163 0.20354 0.0
C242 C 0.9541 0.2149 0.20739 0.0
C243 C 0.8908 0.19664 0.18829 0.0
C244 C 0.87073 0.15202 0.15319 0.0
C245 C 0.84503 0.17482 0.21968 0.0
C246 C 0.90139 0.25225 0.17353 0.0
C247 C 0.96144 0.2951 0.18274 0.0
C248 C 0.98127 0.35059 0.17344 0.0
C249 C 0.93884 0.36253 0.1543 0.0
C250 C 0.87698 0.31909 0.14392 0.0
C251 C 0.85862 0.26316 0.15379 0.0
H252 H 0.83202 0.64127 0.0705 0.0
H253 H 0.72577 0.54513 0.16509 0.0
H254 H 0.78123 0.63063 0.21159 0.0
H255 H 0.97061 0.72178 0.12902 0.0
H256 H 0.99484 0.78699 0.10486 0.0
H257 H 0.9432 0.72009 0.07732 0.0
H258 H 0.86501 0.75098 0.06062 0.0
H259 H 0.91709 0.81864 0.0872 0.0
H260 H 0.84085 0.77607 0.10076 0.0
H261 H 0.85825 0.72259 0.25026 0.0
H262 H 0.93777 0.81935 0.27553 0.0
H263 H 0.98863 0.85889 0.15459 0.0
C264 C 0.81912 0.63861 0.10064 0.0
C265 C 0.77432 0.58634 0.11401 0.0
C266 C 0.75928 0.58463 0.15387 0.0
C267 C 0.79103 0.63293 0.18069 0.0
C268 C 0.83686 0.68302 0.16705 0.0
C269 C 0.84969 0.6867 0.12766 0.0
C270 C 0.90158 0.74557 0.12082 0.0
C271 C 0.95574 0.74344 0.1072 0.0
C272 C 0.87982 0.77453 0.09057 0.0
C273 C 0.91681 0.77401 0.16274 0.0
C274 C 0.87933 0.73696 0.18899 0.0
C275 C 0.88675 0.75244 0.22973 0.0
C276 C 0.93215 0.80781 0.24377 0.0
C277 C 0.96925 0.84788 0.21713 0.0
C278 C 0.96172 0.8299 0.17609 0.0
H279 H 0.1823 0.23273 0.75759 0.0
H280 H 0.9994 0.14535 0.79274 0.0
H281 H 1.02524 0.23047 0.83535 0.0
H282 H 0.25577 0.29688 0.85248 0.0
H283 H 0.31395 0.36188 0.83439 0.0
H284 H 0.27906 0.29686 0.80332 0.0
H285 H 0.24817 0.34249 0.7461 0.0
H286 H 0.28394 0.40808 0.77669 0.0
H287 H 0.20531 0.37516 0.75643 0.0
H288 H 0.07504 0.32554 0.87787 0.0
H289 H 0.14255 0.41982 0.91427 0.0
H290 H 0.29198 0.44108 0.85142 0.0
C291 C 0.14701 0.2317 0.77341 0.0
C292 C 0.08852 0.18233 0.77134 0.0
C293 C 1.04427 0.18283 0.79328 0.0
C294 C 1.05868 0.23095 0.81779 0.0
C295 C 0.11751 0.2783 0.82003 0.0
C296 C 0.16072 0.27896 0.79809 0.0
C297 C 0.2216 0.33339 0.80715 0.0
C298 C 0.27045 0.32151 0.82542 0.0
C299 C 0.24087 0.36675 0.76935 0.0
C300 C 0.2063 0.36339 0.8378 0.0
C301 C 0.14607 0.33136 0.84486 0.0
C302 C 0.1222 0.35089 0.87239 0.0
C303 C 0.16084 0.40449 0.89294 0.0
C304 C 0.22285 0.43767 0.88621 0.0
C305 C 0.24526 0.41644 0.85808 0.0
H306 H 0.65852 0.80326 0.94389 0.0
H307 H 0.54381 0.8077 0.84311 0.0
H308 H 0.6337 0.85903 0.8057 0.0
H309 H 0.79384 0.94411 0.93324 0.0
H310 H 0.84533 0.92018 0.94787 0.0
H311 H 0.77279 0.88853 0.9674 0.0
H312 H 0.74799 0.78938 0.94084 0.0
H313 H 0.82004 0.82093 0.92077 0.0
H314 H 0.75062 0.77688 0.88832 0.0
H315 H 0.7371 0.90421 0.77727 0.0
H316 H 0.84321 0.94251 0.7624 0.0
H317 H 0.88901 0.90824 0.88228 0.0
C318 C 0.65239 0.81609 0.91428 0.0
C319 C 0.59392 0.8018 0.89669 0.0
C320 C 0.58808 0.81889 0.85761 0.0
C321 C 0.63897 0.84778 0.83598 0.0
C322 C 0.69573 0.85999 0.85393 0.0
C323 C 0.7027 0.8453 0.89249 0.0
C324 C 0.76796 0.86157 0.9047 0.0
C325 C 0.79666 0.90625 0.94041 0.0
C326 C 0.77184 0.80906 0.9142 0.0
C327 C 0.79654 0.88656 0.86675 0.0
C328 C 0.7544 0.88562 0.83779 0.0
C329 C 0.77041 0.9055 0.79996 0.0
C330 C 0.83088 0.92711 0.79172 0.0
C331 C 0.87481 0.92845 0.82104 0.0
C332 C 0.85686 0.90784 0.85903 0.0
H333 H 0.18991 0.87516 0.74915 0.0
H334 H 0.0695 0.82045 0.84319 0.0
H335 H 0.12043 0.77289 0.87338 0.0
H336 H 0.20292 0.74986 0.74116 0.0
H337 H 0.28231 0.79033 0.73371 0.0
H338 H 0.23288 0.81592 0.71731 0.0
H339 H 0.3044 0.91039 0.75974 0.0
H340 H 0.35389 0.88504 0.77639 0.0
H341 H 0.323 0.90894 0.8127 0.0
H342 H 0.18879 0.73607 0.89622 0.0
H343 H 0.2681 0.71186 0.90902 0.0
H344 H 0.34644 0.7929 0.80162 0.0
C345 C 0.17389 0.85309 0.77601 0.0
C346 C 0.12496 0.85154 0.79341 0.0
C347 C 0.10567 0.82149 0.82847 0.0
C348 C 0.13477 0.79462 0.84618 0.0
C349 C 0.18338 0.79799 0.82866 0.0
C350 C 0.2027 0.82629 0.79427 0.0
C351 C 0.25767 0.82553 0.7824 0.0
C352 C 0.24305 0.79349 0.7412 0.0
C353 C 0.31301 0.88607 0.78285 0.0
C354 C 0.26678 0.7931 0.81581 0.0
C355 C 0.22318 0.7773 0.84205 0.0
C356 C 0.22288 0.74792 0.87569 0.0
C357 C 0.26822 0.73432 0.88271 0.0
C358 C 0.31361 0.7502 0.85632 0.0
C359 C 0.31247 0.77993 0.82239 0.0
H360 H 0.98097 0.51018 0.5424 0.0
H361 H 1.04523 0.43641 0.63291 0.0
H362 H 0.14599 0.48511 0.60833 0.0
H363 H 1.06009 0.49958 0.46417 0.0
H364 H 0.07851 0.56623 0.44405 0.0
H365 H 1.01175 0.52782 0.46985 0.0
H366 H 1.04971 0.61571 0.51883 0.0
H367 H 0.1164 0.6545 0.493 0.0
H368 H 0.12431 0.64799 0.54634 0.0
H369 H 0.23866 0.53657 0.57119 0.0
H370 H 0.31913 0.5949 0.52815 0.0
H371 H 0.19765 0.63858 0.46286 0.0
C372 C 1.01662 0.50529 0.55759 0.0
C373 C 1.00483 0.46945 0.58984 0.0
C374 C 1.05274 0.46353 0.60827 0.0
C375 C 0.11033 0.49096 0.59442 0.0
C376 C 0.12007 0.5247 0.56204 0.0
C377 C 0.07488 0.53266 0.54414 0.0
C378 C 0.09751 0.57082 0.50948 0.0
C379 C 1.05973 0.53922 0.46953 0.0
C380 C 0.09696 0.62551 0.5174 0.0
C381 C 0.16221 0.58284 0.51078 0.0
C382 C 0.17407 0.55537 0.54112 0.0
C383 C 0.23007 0.55873 0.54755 0.0
C384 C 0.27551 0.59177 0.52281 0.0
C385 C 0.26518 0.62171 0.4922 0.0
C386 C 0.2074 0.61666 0.48616 0.0
H387 H 0.63549 0.37212 0.48412 0.0
H388 H 0.78955 0.50527 0.56096 0.0
H389 H 0.74882 0.56815 0.54951 0.0
H390 H 0.62221 0.46262 0.41181 0.0
H391 H 0.54026 0.42206 0.40533 0.0
H392 H 0.58199 0.3877 0.41887 0.0
H393 H 0.52344 0.35069 0.48118 0.0
H394 H 0.4817 0.38513 0.46795 0.0
H395 H 0.5239 0.40031 0.5169 0.0
H396 H 0.69235 0.61705 0.52944 0.0
H397 H 0.62332 0.64873 0.50274 0.0
H398 H 0.50295 0.48364 0.44039 0.0
C399 C 0.66094 0.41465 0.49833 0.0
C400 C 0.71601 0.43374 0.52345 0.0
C401 C 0.74733 0.48952 0.54176 0.0
C402 C 0.72454 0.52562 0.53537 0.0
C403 C 0.67001 0.50534 0.51078 0.0
C404 C 0.63845 0.45114 0.49258 0.0
C405 C 0.58029 0.43968 0.46808 0.0
C406 C 0.58127 0.42729 0.42337 0.0
C407 C 0.52401 0.39107 0.48452 0.0
C408 C 0.5842 0.49601 0.47521 0.0
C409 C 0.63657 0.53325 0.49983 0.0
C410 C 0.65125 0.58823 0.5102 0.0
C411 C 0.61182 0.60589 0.4948 0.0
C412 C 0.55793 0.56877 0.46942 0.0
C413 C 0.54364 0.51279 0.4599 0.0
H414 H 0.57061 0.91825 0.43716 0.0
H415 H 0.38803 0.83327 0.47267 0.0
H416 H 0.41303 0.92149 0.51108 0.0
H417 H 0.64341 0.98871 0.53066 0.0
H418 H 0.7017 0.05194 0.5108 0.0
H419 H 0.66688 0.98495 0.48219 0.0
H420 H 0.63658 1.02674 0.42198 0.0
H421 H 0.67195 0.09415 0.45025 0.0
H422 H 0.59344 0.06004 0.42943 0.0
H423 H 0.46155 1.02043 0.54832 0.0
H424 H 0.52921 0.11668 0.58223 0.0
H425 H 0.68018 0.13139 0.52493 0.0
C426 C 0.53517 0.91837 0.45209 0.0
C427 C 0.47694 0.86897 0.45129 0.0
C428 C 0.43271 0.87078 0.47241 0.0
C429 C 0.44658 0.92071 0.49435 0.0
C430 C 0.50508 0.96831 0.49522 0.0
C431 C 0.54857 0.96724 0.4746 0.0
C432 C 0.60943 1.02194 0.48262 0.0
C433 C 0.6582 1.01122 0.50277 0.0
C434 C 0.62898 0.05252 0.44376 0.0
C435 C 0.59383 0.05405 0.51126 0.0
C436 C 0.53331 1.02305 0.51788 0.0
C437 C 0.50899 0.04486 0.54331 0.0
C438 C 0.54761 0.09946 0.56245 0.0
C439 C 0.61001 0.13101 0.55665 0.0
C440 C 0.63289 0.10782 0.53051 0.0
H441 H 0.09438 0.04549 0.60711 0.0
H442 H 0.89871 0.95627 0.57623 0.0
H443 H 0.91352 0.97672 0.50549 0.0
H444 H 0.13117 0.15691 0.53806 0.0
H445 H 0.19907 0.15983 0.52542 0.0
H446 H 0.17362 0.13891 0.57411 0.0
H447 H 0.17238 0.04543 0.56223 0.0
H448 H 0.19769 0.066 0.51349 0.0
H449 H 0.12888 0.99936 0.51812 0.0
H450 H 0.94823 1.00494 0.43841 0.0
H451 H 1.00061 0.03885 0.37814 0.0
H452 H 0.17516 0.11244 0.45076 0.0
C453 C 1.05467 0.03072 0.58557 0.0
C454 C 0.99522 0.99892 0.59743 0.0
C455 C 0.94458 0.97985 0.56801 0.0
C456 C 0.95254 0.9916 0.5277 0.0
C457 C 1.01149 1.02261 0.51705 0.0
C458 C 1.06179 0.04202 0.54499 0.0
C459 C 0.12013 0.07383 0.5251 0.0
C460 C 0.15824 0.13607 0.54166 0.0
C461 C 0.15693 0.04438 0.53003 0.0
C462 C 0.09457 0.06892 0.48162 0.0
C463 C 1.03178 0.03936 0.4779 0.0
C464 C 0.99741 1.02865 0.44097 0.0
C465 C 1.02784 0.04867 0.40682 0.0
C466 C 0.09231 0.07937 0.40953 0.0
C467 C 0.12596 0.08931 0.44762 0.0
H468 H 0.67335 0.43464 0.90942 0.0
H469 H 0.73608 0.32732 0.95933 0.0
H470 H 0.76625 0.31669 0.89327 0.0
H471 H 0.61423 0.36039 0.81002 0.0
H472 H 0.63933 0.42478 0.7846 0.0
H473 H 0.61968 0.4212 0.8352 0.0
H474 H 0.72588 0.5092 0.85781 0.0
H475 H 0.74592 0.51293 0.80735 0.0
H476 H 0.79307 0.50842 0.84833 0.0
H477 H 0.7914 0.31932 0.82159 0.0
H478 H 0.81316 0.33819 0.75116 0.0
H479 H 0.73543 0.44498 0.74843 0.0
C480 C 0.69251 0.40816 0.90627 0.0
C481 C 0.70208 0.38155 0.93955 0.0
C482 C 0.72863 0.34832 0.93435 0.0
C483 C 0.74562 0.34182 0.89689 0.0
C484 C 0.7361 0.36906 0.86481 0.0
C485 C 0.7103 0.40171 0.86916 0.0
C486 C 0.70747 0.42856 0.83043 0.0
C487 C 0.64124 0.40745 0.8141 0.0
C488 C 0.74535 0.49363 0.83635 0.0
C489 C 0.73607 0.40626 0.8037 0.0
C490 C 0.75177 0.37159 0.82395 0.0
C491 C 0.7791 0.34629 0.80544 0.0
C492 C 0.79106 0.35703 0.76533 0.0
C493 C 0.77624 0.39318 0.74415 0.0
C494 C 0.74804 0.41771 0.7638 0.0
H495 H 0.32763 0.69178 0.25605 0.0
H496 H 0.48078 0.67302 0.29348 0.0
H497 H 0.50486 0.6787 0.22302 0.0
H498 H 0.28137 0.61238 0.16057 0.0
H499 H 0.26307 0.65961 0.13498 0.0
H500 H 0.2571 0.65239 0.18801 0.0
H501 H 0.32956 0.76085 0.20183 0.0
H502 H 0.33551 0.76843 0.14884 0.0
H503 H 0.40322 0.79508 0.18362 0.0
H504 H 0.50879 0.68205 0.14726 0.0
H505 H 0.49972 0.69428 0.07418 0.0
H506 H 0.34889 0.71808 0.0874 0.0
C507 C 0.3661 0.68876 0.24925 0.0
C508 C 0.40223 0.68164 0.28003 0.0
C509 C 0.45282 0.67873 0.27027 0.0
C510 C 0.46653 0.68157 0.23035 0.0
C511 C 0.4298 0.68832 0.2006 0.0
C512 C 0.3812 0.69282 0.20971 0.0
C513 C 0.35057 0.70257 0.17257 0.0
C514 C 0.28409 0.65382 0.16351 0.0
C515 C 0.35501 0.76016 0.17699 0.0
C516 C 0.38914 0.7024 0.14106 0.0
C517 C 0.4341 0.69331 0.15766 0.0
C518 C 0.47408 0.68969 0.13407 0.0
C519 C 0.46847 0.69635 0.09262 0.0
C520 C 0.42401 0.70753 0.07532 0.0
C521 C 0.3838 0.71031 0.09998 0.0
H522 H 0.96972 0.05129 0.06967 0.0
H523 H 0.13653 0.20438 0.11769 0.0
H524 H 0.1625 0.22908 0.04904 0.0
H525 H 1.02648 1.01266 1.00105 0.0
H526 H 0.96416 0.98638 0.96175 0.0
H527 H 0.9503 0.98737 0.01315 0.0
H528 H 0.90139 0.04744 0.9976 0.0
H529 H 0.91397 0.04594 0.94564 0.0
H530 H 0.9427 0.11283 0.97345 0.0
H531 H 0.182 0.22478 0.97834 0.0
H532 H 0.18919 0.19432 0.91023 0.0
H533 H 1.00739 0.04803 0.90789 0.0
C534 C 1.01034 0.0913 0.06589 0.0
C535 C 1.05133 0.12539 0.0992 0.0
C536 C 0.10489 0.1768 0.09273 0.0
C537 C 0.11968 0.19167 0.05376 0.0
C538 C 0.07973 0.15546 0.02162 0.0
C539 C 1.02539 0.1069 0.02724 0.0
C540 C 0.99421 0.07118 0.98833 0.0
C541 C 0.98324 1.01091 0.99129 0.0
C542 C 0.93454 0.06929 0.9755 0.0
C543 C 1.04167 0.1051 0.96063 0.0
C544 C 0.09021 0.15415 0.98009 0.0
C545 C 0.14345 0.18762 0.9623 0.0
C546 C 0.14749 0.16986 0.92395 0.0
C547 C 0.09853 0.11935 0.90411 0.0
C548 C 1.04452 0.08776 0.92216 0.0
H549 H 0.8503 0.49791 0.28857 0.0
H550 H 0.76779 0.33581 0.22075 0.0
H551 H 0.78459 0.29294 0.28092 0.0
H552 H 0.96518 0.48369 0.35291 0.0
H553 H 0.9572 0.51742 0.39636 0.0
H554 H 0.94469 0.5367 0.34681 0.0
H555 H 0.83722 0.51317 0.36119 0.0
H556 H 0.84976 0.49398 0.41065 0.0
H557 H 0.78444 0.44397 0.37697 0.0
H558 H 0.80333 0.2663 0.34887 0.0
H559 H 0.81531 0.25572 0.42145 0.0
H560 H 0.88707 0.43538 0.44534 0.0
C561 C 0.83654 0.4536 0.28648 0.0
C562 C 0.80749 0.41998 0.25034 0.0
C563 C 0.78924 0.36196 0.24847 0.0
C564 C 0.79931 0.33748 0.28228 0.0
C565 C 0.82774 0.3717 0.31761 0.0
C566 C 0.84587 0.42844 0.32006 0.0
C567 C 0.8708 0.45459 0.36245 0.0
C568 C 0.9385 0.50083 0.36475 0.0
C569 C 0.8333 0.47775 0.37876 0.0
C570 C 0.86199 0.40321 0.38362 0.0
C571 C 0.83824 0.35614 0.3571 0.0
C572 C 0.82274 0.30299 0.36993 0.0
C573 C 0.83003 0.29745 0.41119 0.0
C574 C 0.85202 0.34471 0.439 0.0
C575 C 0.86979 0.39847 0.4248 0.0
H576 H 0.5712 0.78213 0.62363 0.0
H577 H 0.48781 0.6152 0.56324 0.0
H578 H 0.48467 0.57405 0.62843 0.0
H579 H 0.65559 0.75354 0.71459 0.0
H580 H 0.64037 0.79516 0.74806 0.0
H581 H 0.65448 0.81457 0.6972 0.0
H582 H 0.55226 0.8113 0.68539 0.0
H583 H 0.53839 0.7928 0.73601 0.0
H584 H 0.48307 0.74778 0.695 0.0
H585 H 0.46322 0.54834 0.69661 0.0
H586 H 0.42487 0.54066 0.76258 0.0
H587 H 0.52595 0.72305 0.78181 0.0
C588 C 0.555 0.73738 0.6243 0.0
C589 C 0.5295 0.70169 0.58875 0.0
C590 C 0.50685 0.64302 0.59036 0.0
C591 C 0.50577 0.61947 0.6272 0.0
C592 C 0.52829 0.65528 0.66211 0.0
C593 C 0.55344 0.71327 0.66103 0.0
C594 C 0.56435 0.74088 0.70274 0.0
C595 C 0.63276 0.77824 0.71645 0.0
C596 C 0.53255 0.7751 0.70487 0.0
C597 C 0.53527 0.68875 0.72663 0.0
C598 C 0.51694 0.63997 0.7029 0.0
C599 C 0.47944 0.58612 0.71601 0.0
C600 C 0.45773 0.58199 0.75336 0.0
C601 C 0.47387 0.6313 0.77708 0.0
C602 C 0.51542 0.68505 0.76456 0.0
loop_
_geom_bond_atom_site_label_1
_geom_bond_atom_site_label_2
_geom_bond_distance
_geom_bond_site_symmetry_2
_ccdc_geom_bond_type
C0 C1 1.351 . S
C0 N3 1.368 . S
C0 H5 0.931 . S
C1 C0 1.351 . S
C1 N2 1.373 . S
C1 H29 0.930 . S
N2 C1 1.373 . S
N2 C4 1.340 . S
N3 C0 1.368 . S
N3 C4 1.321 . S
N3 Co6 2.135 . S
C4 N2 1.340 . S
C4 N3 1.321 . S
C4 H28 0.930 . S
H5 C0 0.931 . S
Co6 N3 2.135 . S
Co6 N9 2.121 . S
Co6 O14 2.055 . S
Co6 O17 2.039 . S
Co6 N20 2.140 1_445 S
C7 O8 1.227 . S
C7 O17 1.265 1_655 S
O8 C7 1.227 . S
N9 Co6 2.121 . S
N9 C11 1.375 1_455 S
N9 C12 1.313 . S
C10 C11 1.338 . S
C10 N13 1.377 1_655 S
C10 H30 0.930 . S
C11 N9 1.375 1_655 S
C11 C10 1.338 . S
C11 H15 0.931 . S
C12 N9 1.313 . S
C12 N13 1.344 . S
C12 H16 0.930 . S
N13 C10 1.377 1_455 S
N13 C12 1.344 . S
O14 Co6 2.055 . S
O14 C18 1.253 . S
H15 C11 0.931 . S
H16 C12 0.930 . S
O17 Co6 2.039 . S
O17 C7 1.265 1_455 S
C18 O14 1.253 . S
C18 O19 1.227 . S
O19 C18 1.227 . S
N20 Co6 2.140 1_665 S
N20 C23 1.346 . S
N20 C24 1.345 . S
C21 C22 1.387 . S
C21 C25 1.391 . S
C22 C21 1.387 . S
C22 C23 1.369 . S
C22 H31 0.929 . S
C23 N20 1.346 . S
C23 C22 1.369 . S
C23 H26 0.928 . S
C24 N20 1.345 . S
C24 C25 1.371 . S
C24 H27 0.931 1_655 S
C25 C21 1.391 . S
C25 C24 1.371 . S
C25 H32 0.930 . S
H26 C23 0.928 . S
H27 C24 0.931 1_455 S
H28 C4 0.930 . S
H29 C1 0.930 . S
H30 C10 0.930 . S
H31 C22 0.929 . S
H32 C25 0.930 . S
C33 C34 1.351 . S
C33 N36 1.368 1_565 S
C33 H38 0.931 . S
C34 C33 1.351 . S
C34 N35 1.373 1_565 S
C34 H62 0.930 . S
N35 C34 1.373 1_545 S
N35 C37 1.340 1_655 S
N36 C33 1.368 1_545 S
N36 C37 1.321 1_655 S
N36 Co39 2.135 . S
C37 N35 1.340 1_455 S
C37 N36 1.321 1_455 S
C37 H61 0.930 . S
H38 C33 0.931 . S
Co39 N36 2.135 . S
Co39 N42 2.121 1_655 S
Co39 O47 2.055 1_545 S
Co39 O50 2.039 1_655 S
Co39 N53 2.140 1_645 S
C40 O41 1.227 . S
C40 O50 1.265 . S
O41 C40 1.227 . S
N42 Co39 2.121 1_455 S
N42 C44 1.375 . S
N42 C45 1.313 1_455 S
C43 C44 1.338 . S
C43 N46 1.377 . S
C43 H63 0.930 . S
C44 N42 1.375 . S
C44 C43 1.338 . S
C44 H48 0.931 . S
C45 N42 1.313 1_655 S
C45 N46 1.344 1_655 S
C45 H49 0.930 1_545 S
N46 C43 1.377 . S
N46 C45 1.344 1_455 S
O47 Co39 2.055 1_565 S
O47 C51 1.253 . S
H48 C44 0.931 . S
H49 C45 0.930 1_565 S
O50 Co39 2.039 1_455 S
O50 C40 1.265 . S
C51 O47 1.253 . S
C51 O52 1.227 . S
O52 C51 1.227 . S
N53 Co39 2.140 1_465 S
N53 C56 1.346 . S
N53 C57 1.345 . S
C54 C55 1.387 . S
C54 C58 1.391 . S
C55 C54 1.387 . S
C55 C56 1.369 . S
C55 H64 0.929 . S
C56 N53 1.346 . S
C56 C55 1.369 . S
C56 H59 0.928 1_565 S
C57 N53 1.345 . S
C57 C58 1.371 . S
C57 H60 0.931 . S
C58 C54 1.391 . S
C58 C57 1.371 . S
C58 H65 0.930 . S
H59 C56 0.928 1_545 S
H60 C57 0.931 . S
H61 C37 0.930 . S
H62 C34 0.930 . S
H63 C43 0.930 . S
H64 C55 0.929 . S
H65 C58 0.930 . S
C66 C67 1.351 . S
C66 N69 1.368 . S
C66 H71 0.931 . S
C67 C66 1.351 . S
C67 N68 1.373 . S
C67 H95 0.930 . S
N68 C67 1.373 . S
N68 C70 1.340 . S
N69 C66 1.368 . S
N69 C70 1.321 . S
N69 Co72 2.135 . S
C70 N68 1.340 . S
C70 N69 1.321 . S
C70 H94 0.930 . S
H71 C66 0.931 . S
Co72 N69 2.135 . S
Co72 N75 2.121 . S
Co72 O80 2.055 . S
Co72 O83 2.039 . S
Co72 N86 2.140 . S
C73 O74 1.227 . S
C73 O83 1.265 . S
O74 C73 1.227 . S
N75 Co72 2.121 . S
N75 C77 1.375 . S
N75 C78 1.313 . S
C76 C77 1.338 . S
C76 N79 1.377 . S
C76 H96 0.930 . S
C77 N75 1.375 . S
C77 C76 1.338 . S
C77 H81 0.931 . S
C78 N75 1.313 . S
C78 N79 1.344 . S
C78 H82 0.930 . S
N79 C76 1.377 . S
N79 C78 1.344 . S
O80 Co72 2.055 . S
O80 C84 1.253 . S
H81 C77 0.931 . S
H82 C78 0.930 . S
O83 Co72 2.039 . S
O83 C73 1.265 . S
C84 O80 1.253 . S
C84 O85 1.227 . S
O85 C84 1.227 . S
N86 Co72 2.140 . S
N86 C89 1.346 . S
N86 C90 1.345 . S
C87 C88 1.387 . S
C87 C91 1.391 . S
C88 C87 1.387 . S
C88 C89 1.369 . S
C88 H97 0.929 . S
C89 N86 1.346 . S
C89 C88 1.369 . S
C89 H92 0.928 . S
C90 N86 1.345 . S
C90 C91 1.371 . S
C90 H93 0.931 . S
C91 C87 1.391 . S
C91 C90 1.371 . S
C91 H98 0.930 . S
H92 C89 0.928 . S
H93 C90 0.931 . S
H94 C70 0.930 . S
H95 C67 0.930 . S
H96 C76 0.930 . S
H97 C88 0.929 . S
H98 C91 0.930 . S
C99 C100 1.351 1_554 S
C99 N102 1.368 . S
C99 H104 0.931 . S
C100 C99 1.351 1_556 S
C100 N101 1.373 . S
C100 H128 0.930 . S
N101 C100 1.373 . S
N101 C103 1.340 1_556 S
N102 C99 1.368 . S
N102 C103 1.321 . S
N102 Co105 2.135 . S
C103 N101 1.340 1_554 S
C103 N102 1.321 . S
C103 H127 0.930 . S
H104 C99 0.931 . S
Co105 N102 2.135 . S
Co105 N108 2.121 . S
Co105 O113 2.055 . S
Co105 O116 2.039 . S
Co105 N119 2.140 . S
C106 O107 1.227 . S
C106 O116 1.265 . S
O107 C106 1.227 . S
N108 Co105 2.121 . S
N108 C110 1.375 . S
N108 C111 1.313 . S
C109 C110 1.338 . S
C109 N112 1.377 . S
C109 H129 0.930 . S
C110 N108 1.375 . S
C110 C109 1.338 . S
C110 H114 0.931 . S
C111 N108 1.313 . S
C111 N112 1.344 . S
C111 H115 0.930 . S
N112 C109 1.377 . S
N112 C111 1.344 . S
O113 Co105 2.055 . S
O113 C117 1.253 . S
H114 C110 0.931 . S
H115 C111 0.930 . S
O116 Co105 2.039 . S
O116 C106 1.265 . S
C117 O113 1.253 . S
C117 O118 1.227 . S
O118 C117 1.227 . S
N119 Co105 2.140 . S
N119 C122 1.346 . S
N119 C123 1.345 . S
C120 C121 1.387 . S
C120 C124 1.391 . S
C121 C120 1.387 . S
C121 C122 1.369 . S
C121 H130 0.929 . S
C122 N119 1.346 . S
C122 C121 1.369 . S
C122 H125 0.928 . S
C123 N119 1.345 . S
C123 C124 1.371 . S
C123 H126 0.931 . S
C124 C120 1.391 . S
C124 C123 1.371 . S
C124 H131 0.930 . S
H125 C122 0.928 . S
H126 C123 0.931 . S
H127 C103 0.930 . S
H128 C100 0.930 . S
H129 C109 0.930 . S
H130 C121 0.929 . S
H131 C124 0.930 . S
C132 C133 1.351 1_556 S
C132 N135 1.368 . S
C132 H137 0.931 . S
C133 C132 1.351 1_554 S
C133 N134 1.373 . S
C133 H161 0.930 . S
N134 C133 1.373 . S
N134 C136 1.340 1_554 S
N135 C132 1.368 . S
N135 C136 1.321 . S
N135 Co138 2.135 . S
C136 N134 1.340 1_556 S
C136 N135 1.321 . S
C136 H160 0.930 . S
H137 C132 0.931 . S
Co138 N135 2.135 . S
Co138 N141 2.121 . S
Co138 O146 2.055 . S
Co138 O149 2.039 . S
Co138 N152 2.140 . S
C139 O140 1.227 . S
C139 O149 1.265 . S
O140 C139 1.227 . S
N141 Co138 2.121 . S
N141 C143 1.375 . S
N141 C144 1.313 . S
C142 C143 1.338 . S
C142 N145 1.377 . S
C142 H162 0.930 . S
C143 N141 1.375 . S
C143 C142 1.338 . S
C143 H147 0.931 . S
C144 N141 1.313 . S
C144 N145 1.344 . S
C144 H148 0.930 . S
N145 C142 1.377 . S
N145 C144 1.344 . S
O146 Co138 2.055 . S
O146 C150 1.253 . S
H147 C143 0.931 . S
H148 C144 0.930 . S
O149 Co138 2.039 . S
O149 C139 1.265 . S
C150 O146 1.253 . S
C150 O151 1.227 . S
O151 C150 1.227 . S
N152 Co138 2.140 . S
N152 C155 1.346 . S
N152 C156 1.345 . S
C153 C154 1.387 . S
C153 C157 1.391 . S
C154 C153 1.387 . S
C154 C155 1.369 . S
C154 H163 0.929 . S
C155 N152 1.346 . S
C155 C154 1.369 . S
C155 H158 0.928 . S
C156 N152 1.345 . S
C156 C157 1.371 . S
C156 H159 0.931 . S
C157 C153 1.391 . S
C157 C156 1.371 . S
C157 H164 0.930 . S
H158 C155 0.928 . S
H159 C156 0.931 . S
H160 C136 0.930 . S
H161 C133 0.930 . S
H162 C142 0.930 . S
H163 C154 0.929 . S
H164 C157 0.930 . S
C165 C166 1.351 . S
C165 N168 1.368 . S
C165 H170 0.931 . S
C166 C165 1.351 . S
C166 N167 1.373 . S
C166 H194 0.930 . S
N167 C166 1.373 . S
N167 C169 1.340 . S
N168 C165 1.368 . S
N168 C169 1.321 . S
N168 Co171 2.135 . S
C169 N167 1.340 . S
C169 N168 1.321 . S
C169 H193 0.930 . S
H170 C165 0.931 . S
Co171 N168 2.135 . S
Co171 N174 2.121 . S
Co171 O179 2.055 . S
Co171 O182 2.039 . S
Co171 N185 2.140 . S
C172 O173 1.227 . S
C172 O182 1.265 . S
O173 C172 1.227 . S
N174 Co171 2.121 . S
N174 C176 1.375 . S
N174 C177 1.313 . S
C175 C176 1.338 . S
C175 N178 1.377 . S
C175 H195 0.930 . S
C176 N174 1.375 . S
C176 C175 1.338 . S
C176 H180 0.931 . S
C177 N174 1.313 . S
C177 N178 1.344 . S
C177 H181 0.930 . S
N178 C175 1.377 . S
N178 C177 1.344 . S
O179 Co171 2.055 . S
O179 C183 1.253 . S
H180 C176 0.931 . S
H181 C177 0.930 . S
O182 Co171 2.039 . S
O182 C172 1.265 . S
C183 O179 1.253 . S
C183 O184 1.227 . S
O184 C183 1.227 . S
N185 Co171 2.140 . S
N185 C188 1.346 . S
N185 C189 1.345 . S
C186 C187 1.387 . S
C186 C190 1.391 . S
C187 C186 1.387 . S
C187 C188 1.369 . S
C187 H196 0.929 . S
C188 N185 1.346 . S
C188 C187 1.369 . S
C188 H191 0.928 . S
C189 N185 1.345 . S
C189 C190 1.371 . S
C189 H192 0.931 . S
C190 C186 1.391 . S
C190 C189 1.371 . S
C190 H197 0.930 . S
H191 C188 0.928 . S
H192 C189 0.931 . S
H193 C169 0.930 . S
H194 C166 0.930 . S
H195 C175 0.930 . S
H196 C187 0.929 . S
H197 C190 0.930 . S
H198 C210 0.930 . S
H199 C212 0.930 . S
H200 C213 0.930 . S
H201 C217 0.959 . S
H202 C217 0.959 . S
H203 C217 0.961 . S
H204 C218 0.960 . S
H205 C218 0.961 . S
H206 C218 0.959 . S
H207 C221 0.929 . S
H208 C222 0.931 . S
H209 C224 0.930 . S
C210 H198 0.930 . S
C210 C211 1.399 . S
C210 C215 1.399 . S
C211 C210 1.399 . S
C211 C212 1.376 . S
C212 H199 0.930 . S
C212 C211 1.376 . S
C212 C213 1.388 . S
C213 H200 0.930 . S
C213 C212 1.388 . S
C213 C214 1.390 . S
C214 C213 1.390 . S
C214 C215 1.394 . S
C214 C220 1.465 . S
C215 C210 1.399 . S
C215 C214 1.394 . S
C215 C216 1.516 . S
C216 C215 1.516 . S
C216 C217 1.502 . S
C216 C218 1.561 . S
C216 C219 1.526 . S
C217 H201 0.959 . S
C217 H202 0.959 . S
C217 H203 0.961 . S
C217 C216 1.502 . S
C218 H204 0.960 . S
C218 H205 0.961 . S
C218 H206 0.959 . S
C218 C216 1.561 . S
C219 C216 1.526 . S
C219 C220 1.396 . S
C219 C224 1.390 . S
C220 C214 1.465 . S
C220 C219 1.396 . S
C220 C221 1.399 . S
C221 H207 0.929 . S
C221 C220 1.399 . S
C221 C222 1.385 . S
C222 H208 0.931 . S
C222 C221 1.385 . S
C222 C223 1.389 . S
C223 C222 1.389 . S
C223 C224 1.387 . S
C224 H209 0.930 . S
C224 C219 1.390 . S
C224 C223 1.387 . S
H225 C237 0.930 . S
H226 C239 0.930 . S
H227 C240 0.930 . S
H228 C244 0.959 . S
H229 C244 0.959 . S
H230 C244 0.961 . S
H231 C245 0.960 . S
H232 C245 0.961 . S
H233 C245 0.959 . S
H234 C248 0.929 . S
H235 C249 0.931 . S
H236 C251 0.930 . S
C237 H225 0.930 . S
C237 C238 1.399 . S
C237 C242 1.399 . S
C238 C237 1.399 . S
C238 C239 1.376 . S
C239 H226 0.930 . S
C239 C238 1.376 . S
C239 C240 1.388 . S
C240 H227 0.930 . S
C240 C239 1.388 . S
C240 C241 1.390 . S
C241 C240 1.390 . S
C241 C242 1.394 . S
C241 C247 1.465 . S
C242 C237 1.399 . S
C242 C241 1.394 . S
C242 C243 1.516 . S
C243 C242 1.516 . S
C243 C244 1.502 . S
C243 C245 1.561 . S
C243 C246 1.526 . S
C244 H228 0.959 . S
C244 H229 0.959 . S
C244 H230 0.961 . S
C244 C243 1.502 . S
C245 H231 0.960 . S
C245 H232 0.961 . S
C245 H233 0.959 . S
C245 C243 1.561 . S
C246 C243 1.526 . S
C246 C247 1.396 . S
C246 C251 1.390 . S
C247 C241 1.465 . S
C247 C246 1.396 . S
C247 C248 1.399 . S
C248 H234 0.929 . S
C248 C247 1.399 . S
C248 C249 1.385 . S
C249 H235 0.931 . S
C249 C248 1.385 . S
C249 C250 1.389 . S
C250 C249 1.389 . S
C250 C251 1.387 . S
C251 H236 0.930 . S
C251 C246 1.390 . S
C251 C250 1.387 . S
H252 C264 0.930 . S
H253 C266 0.930 . S
H254 C267 0.930 . S
H255 C271 0.959 . S
H256 C271 0.959 . S
H257 C271 0.961 . S
H258 C272 0.960 . S
H259 C272 0.961 . S
H260 C272 0.959 . S
H261 C275 0.929 . S
H262 C276 0.931 . S
H263 C278 0.930 . S
C264 H252 0.930 . S
C264 C265 1.399 . S
C264 C269 1.399 . S
C265 C264 1.399 . S
C265 C266 1.376 . S
C266 H253 0.930 . S
C266 C265 1.376 . S
C266 C267 1.388 . S
C267 H254 0.930 . S
C267 C266 1.388 . S
C267 C268 1.390 . S
C268 C267 1.390 . S
C268 C269 1.394 . S
C268 C274 1.465 . S
C269 C264 1.399 . S
C269 C268 1.394 . S
C269 C270 1.516 . S
C270 C269 1.516 . S
C270 C271 1.502 . S
C270 C272 1.561 . S
C270 C273 1.526 . S
C271 H255 0.959 . S
C271 H256 0.959 . S
C271 H257 0.961 . S
C271 C270 1.502 . S
C272 H258 0.960 . S
C272 H259 0.961 . S
C272 H260 0.959 . S
C272 C270 1.561 . S
C273 C270 1.526 . S
C273 C274 1.396 . S
C273 C278 1.390 . S
C274 C268 1.465 . S
C274 C273 1.396 . S
C274 C275 1.399 . S
C275 H261 0.929 . S
C275 C274 1.399 . S
C275 C276 1.385 . S
C276 H262 0.931 . S
C276 C275 1.385 . S
C276 C277 1.389 . S
C277 C276 1.389 . S
C277 C278 1.387 . S
C278 H263 0.930 . S
C278 C273 1.390 . S
C278 C277 1.387 . S
H279 C291 0.930 . S
H280 C293 0.930 . S
H281 C294 0.930 . S
H282 C298 0.959 . S
H283 C298 0.959 . S
H284 C298 0.961 . S
H285 C299 0.960 . S
H286 C299 0.961 . S
H287 C299 0.959 . S
H288 C302 0.929 . S
H289 C303 0.931 . S
H290 C305 0.930 . S
C291 H279 0.930 . S
C291 C292 1.399 . S
C291 C296 1.399 . S
C292 C291 1.399 . S
C292 C293 1.376 . S
C293 H280 0.930 . S
C293 C292 1.376 . S
C293 C294 1.388 . S
C294 H281 0.930 . S
C294 C293 1.388 . S
C294 C295 1.390 . S
C295 C294 1.390 . S
C295 C296 1.394 . S
C295 C301 1.465 . S
C296 C291 1.399 . S
C296 C295 1.394 . S
C296 C297 1.516 . S
C297 C296 1.516 . S
C297 C298 1.502 . S
C297 C299 1.561 . S
C297 C300 1.526 . S
C298 H282 0.959 . S
C298 H283 0.959 . S
C298 H284 0.961 . S
C298 C297 1.502 . S
C299 H285 0.960 . S
C299 H286 0.961 . S
C299 H287 0.959 . S
C299 C297 1.561 . S
C300 C297 1.526 . S
C300 C301 1.396 . S
C300 C305 1.390 . S
C301 C295 1.465 . S
C301 C300 1.396 . S
C301 C302 1.399 . S
C302 H288 0.929 . S
C302 C301 1.399 . S
C302 C303 1.385 . S
C303 H289 0.931 . S
C303 C302 1.385 . S
C303 C304 1.389 . S
C304 C303 1.389 . S
C304 C305 1.387 . S
C305 H290 0.930 . S
C305 C300 1.390 . S
C305 C304 1.387 . S
H306 C318 0.930 . S
H307 C320 0.930 . S
H308 C321 0.930 . S
H309 C325 0.959 . S
H310 C325 0.959 . S
H311 C325 0.961 . S
H312 C326 0.960 . S
H313 C326 0.961 . S
H314 C326 0.959 . S
H315 C329 0.929 . S
H316 C330 0.931 . S
H317 C332 0.930 . S
C318 H306 0.930 . S
C318 C319 1.399 . S
C318 C323 1.399 . S
C319 C318 1.399 . S
C319 C320 1.376 . S
C320 H307 0.930 . S
C320 C319 1.376 . S
C320 C321 1.388 . S
C321 H308 0.930 . S
C321 C320 1.388 . S
C321 C322 1.390 . S
C322 C321 1.390 . S
C322 C323 1.394 . S
C322 C328 1.465 . S
C323 C318 1.399 . S
C323 C322 1.394 . S
C323 C324 1.516 . S
C324 C323 1.516 . S
C324 C325 1.502 . S
C324 C326 1.561 . S
C324 C327 1.526 . S
C325 H309 0.959 . S
C325 H310 0.959 . S
C325 H311 0.961 . S
C325 C324 1.502 . S
C326 H312 0.960 . S
C326 H313 0.961 . S
C326 H314 0.959 . S
C326 C324 1.561 . S
C327 C324 1.526 . S
C327 C328 1.396 . S
C327 C332 1.390 . S
C328 C322 1.465 . S
C328 C327 1.396 . S
C328 C329 1.399 . S
C329 H315 0.929 . S
C329 C328 1.399 . S
C329 C330 1.385 . S
C330 H316 0.931 . S
C330 C329 1.385 . S
C330 C331 1.389 . S
C331 C330 1.389 . S
C331 C332 1.387 . S
C332 H317 0.930 . S
C332 C327 1.390 . S
C332 C331 1.387 . S
H333 C345 0.930 . S
H334 C347 0.930 . S
H335 C348 0.930 . S
H336 C352 0.959 . S
H337 C352 0.959 . S
H338 C352 0.961 . S
H339 C353 0.960 . S
H340 C353 0.961 . S
H341 C353 0.959 . S
H342 C356 0.929 . S
H343 C357 0.931 . S
H344 C359 0.930 . S
C345 H333 0.930 . S
C345 C346 1.399 . S
C345 C350 1.399 . S
C346 C345 1.399 . S
C346 C347 1.376 . S
C347 H334 0.930 . S
C347 C346 1.376 . S
C347 C348 1.388 . S
C348 H335 0.930 . S
C348 C347 1.388 . S
C348 C349 1.390 . S
C349 C348 1.390 . S
C349 C350 1.394 . S
C349 C355 1.465 . S
C350 C345 1.399 . S
C350 C349 1.394 . S
C350 C351 1.516 . S
C351 C350 1.516 . S
C351 C352 1.502 . S
C351 C353 1.561 . S
C351 C354 1.526 . S
C352 H336 0.959 . S
C352 H337 0.959 . S
C352 H338 0.961 . S
C352 C351 1.502 . S
C353 H339 0.960 . S
C353 H340 0.961 . S
C353 H341 0.959 . S
C353 C351 1.561 . S
C354 C351 1.526 . S
C354 C355 1.396 . S
C354 C359 1.390 . S
C355 C349 1.465 . S
C355 C354 1.396 . S
C355 C356 1.399 . S
C356 H342 0.929 . S
C356 C355 1.399 . S
C356 C357 1.385 . S
C357 H343 0.931 . S
C357 C356 1.385 . S
C357 C358 1.389 . S
C358 C357 1.389 . S
C358 C359 1.387 . S
C359 H344 0.930 . S
C359 C354 1.390 . S
C359 C358 1.387 . S
H360 C372 0.930 . S
H361 C374 0.930 . S
H362 C375 0.930 . S
H363 C379 0.959 . S
H364 C379 0.959 1_455 S
H365 C379 0.961 . S
H366 C380 0.960 . S
H367 C380 0.961 . S
H368 C380 0.959 . S
H369 C383 0.929 . S
H370 C384 0.931 . S
H371 C386 0.930 . S
C372 H360 0.930 . S
C372 C373 1.399 . S
C372 C377 1.399 . S
C373 C372 1.399 . S
C373 C374 1.376 . S
C374 H361 0.930 . S
C374 C373 1.376 . S
C374 C375 1.388 . S
C375 H362 0.930 . S
C375 C374 1.388 . S
C375 C376 1.390 . S
C376 C375 1.390 . S
C376 C377 1.394 . S
C376 C382 1.465 1_655 S
C377 C372 1.399 . S
C377 C376 1.394 . S
C377 C378 1.516 1_655 S
C378 C377 1.516 1_455 S
C378 C379 1.502 1_455 S
C378 C380 1.561 . S
C378 C381 1.526 . S
C379 H363 0.959 . S
C379 H364 0.959 1_655 S
C379 H365 0.961 . S
C379 C378 1.502 1_655 S
C380 H366 0.960 . S
C380 H367 0.961 . S
C380 H368 0.959 . S
C380 C378 1.561 . S
C381 C378 1.526 . S
C381 C382 1.396 . S
C381 C386 1.390 . S
C382 C376 1.465 1_455 S
C382 C381 1.396 . S
C382 C383 1.399 . S
C383 H369 0.929 . S
C383 C382 1.399 . S
C383 C384 1.385 . S
C384 H370 0.931 . S
C384 C383 1.385 . S
C384 C385 1.389 . S
C385 C384 1.389 . S
C385 C386 1.387 . S
C386 H371 0.930 . S
C386 C381 1.390 . S
C386 C385 1.387 . S
H387 C399 0.930 . S
H388 C401 0.930 . S
H389 C402 0.930 . S
H390 C406 0.959 . S
H391 C406 0.959 . S
H392 C406 0.961 . S
H393 C407 0.960 . S
H394 C407 0.961 . S
H395 C407 0.959 . S
H396 C410 0.929 . S
H397 C411 0.931 . S
H398 C413 0.930 . S
C399 H387 0.930 . S
C399 C400 1.399 . S
C399 C404 1.399 . S
C400 C399 1.399 . S
C400 C401 1.376 . S
C401 H388 0.930 . S
C401 C400 1.376 . S
C401 C402 1.388 . S
C402 H389 0.930 . S
C402 C401 1.388 . S
C402 C403 1.390 . S
C403 C402 1.390 . S
C403 C404 1.394 . S
C403 C409 1.465 . S
C404 C399 1.399 . S
C404 C403 1.394 . S
C404 C405 1.516 . S
C405 C404 1.516 . S
C405 C406 1.502 . S
C405 C407 1.561 . S
C405 C408 1.526 . S
C406 H390 0.959 . S
C406 H391 0.959 . S
C406 H392 0.961 . S
C406 C405 1.502 . S
C407 H393 0.960 . S
C407 H394 0.961 . S
C407 H395 0.959 . S
C407 C405 1.561 . S
C408 C405 1.526 . S
C408 C409 1.396 . S
C408 C413 1.390 . S
C409 C403 1.465 . S
C409 C408 1.396 . S
C409 C410 1.399 . S
C410 H396 0.929 . S
C410 C409 1.399 . S
C410 C411 1.385 . S
C411 H397 0.931 . S
C411 C410 1.385 . S
C411 C412 1.389 . S
C412 C411 1.389 . S
C412 C413 1.387 . S
C413 H398 0.930 . S
C413 C408 1.390 . S
C413 C412 1.387 . S
H414 C426 0.930 . S
H415 C428 0.930 . S
H416 C429 0.930 . S
H417 C433 0.959 . S
H418 C433 0.959 . S
H419 C433 0.961 1_565 S
H420 C434 0.960 1_565 S
H421 C434 0.961 . S
H422 C434 0.959 . S
H423 C437 0.929 1_565 S
H424 C438 0.931 . S
H425 C440 0.930 . S
C426 H414 0.930 . S
C426 C427 1.399 . S
C426 C431 1.399 . S
C427 C426 1.399 . S
C427 C428 1.376 . S
C428 H415 0.930 . S
C428 C427 1.376 . S
C428 C429 1.388 . S
C429 H416 0.930 . S
C429 C428 1.388 . S
C429 C430 1.390 . S
C430 C429 1.390 . S
C430 C431 1.394 . S
C430 C436 1.474 . S
C431 C426 1.399 . S
C431 C430 1.394 . S
C431 C432 1.507 1_565 S
C432 C431 1.507 1_545 S
C432 C433 1.499 . S
C432 C434 1.567 . S
C432 C435 1.532 . S
C433 H417 0.959 . S
C433 H418 0.959 . S
C433 H419 0.961 1_545 S
C433 C432 1.499 . S
C434 H420 0.960 1_545 S
C434 H421 0.961 . S
C434 H422 0.959 . S
C434 C432 1.567 . S
C435 C432 1.532 . S
C435 C436 1.391 1_545 S
C435 C440 1.390 . S
C436 C430 1.474 . S
C436 C435 1.391 1_565 S
C436 C437 1.394 1_565 S
C437 H423 0.929 1_545 S
C437 C436 1.394 1_545 S
C437 C438 1.385 . S
C438 H424 0.931 . S
C438 C437 1.385 . S
C438 C439 1.389 . S
C439 C438 1.389 . S
C439 C440 1.387 . S
C440 H425 0.930 . S
C440 C435 1.390 . S
C440 C439 1.387 . S
H441 C453 0.930 . S
H442 C455 0.929 . S
H443 C456 0.930 . S
H444 C460 0.959 . S
H445 C460 0.959 1_455 S
H446 C460 0.961 . S
H447 C461 0.960 . S
H448 C461 0.961 . S
H449 C461 0.959 . S
H450 C464 0.929 . S
H451 C465 0.931 . S
H452 C467 0.930 . S
C453 H441 0.930 . S
C453 C454 1.399 . S
C453 C458 1.399 . S
C454 C453 1.399 . S
C454 C455 1.376 1_545 S
C455 H442 0.929 . S
C455 C454 1.376 1_565 S
C455 C456 1.388 . S
C456 H443 0.930 . S
C456 C455 1.388 . S
C456 C457 1.390 1_565 S
C457 C456 1.390 1_545 S
C457 C458 1.394 . S
C457 C463 1.465 . S
C458 C453 1.399 . S
C458 C457 1.394 . S
C458 C459 1.516 . S
C459 C458 1.516 . S
C459 C460 1.502 1_455 S
C459 C461 1.561 . S
C459 C462 1.526 . S
C460 H444 0.959 . S
C460 H445 0.959 1_655 S
C460 H446 0.961 . S
C460 C459 1.502 1_655 S
C461 H447 0.960 . S
C461 H448 0.961 . S
C461 H449 0.959 . S
C461 C459 1.561 . S
C462 C459 1.526 . S
C462 C463 1.396 . S
C462 C467 1.390 . S
C463 C457 1.465 . S
C463 C462 1.396 . S
C463 C464 1.399 1_545 S
C464 H450 0.929 . S
C464 C463 1.399 1_565 S
C464 C465 1.385 . S
C465 H451 0.931 . S
C465 C464 1.385 . S
C465 C466 1.389 1_565 S
C466 C465 1.389 1_545 S
C466 C467 1.387 . S
C467 H452 0.930 . S
C467 C462 1.390 . S
C467 C466 1.387 . S
H468 C480 0.930 . S
H469 C482 0.930 . S
H470 C483 0.930 . S
H471 C487 0.959 . S
H472 C487 0.959 . S
H473 C487 0.961 . S
H474 C488 0.960 . S
H475 C488 0.961 . S
H476 C488 0.959 . S
H477 C491 0.929 . S
H478 C492 0.931 . S
H479 C494 0.930 . S
C480 H468 0.930 . S
C480 C481 1.399 . S
C480 C485 1.399 . S
C481 C480 1.399 . S
C481 C482 1.376 . S
C482 H469 0.930 . S
C482 C481 1.376 . S
C482 C483 1.388 . S
C483 H470 0.930 . S
C483 C482 1.388 . S
C483 C484 1.390 . S
C484 C483 1.390 . S
C484 C485 1.394 . S
C484 C490 1.465 . S
C485 C480 1.399 . S
C485 C484 1.394 . S
C485 C486 1.516 . S
C486 C485 1.516 . S
C486 C487 1.502 . S
C486 C488 1.561 . S
C486 C489 1.526 . S
C487 H471 0.959 . S
C487 H472 0.959 . S
C487 H473 0.961 . S
C487 C486 1.502 . S
C488 H474 0.960 . S
C488 H475 0.961 . S
C488 H476 0.959 . S
C488 C486 1.561 . S
C489 C486 1.526 . S
C489 C490 1.396 . S
C489 C494 1.390 . S
C490 C484 1.465 . S
C490 C489 1.396 . S
C490 C491 1.399 . S
C491 H477 0.929 . S
C491 C490 1.399 . S
C491 C492 1.385 . S
C492 H478 0.931 . S
C492 C491 1.385 . S
C492 C493 1.389 . S
C493 C492 1.389 . S
C493 C494 1.387 . S
C494 H479 0.930 . S
C494 C489 1.390 . S
C494 C493 1.387 . S
H495 C507 0.930 . S
H496 C509 0.930 . S
H497 C510 0.930 . S
H498 C514 0.959 . S
H499 C514 0.959 . S
H500 C514 0.961 . S
H501 C515 0.960 . S
H502 C515 0.961 . S
H503 C515 0.959 . S
H504 C518 0.929 . S
H505 C519 0.931 . S
H506 C521 0.930 . S
C507 H495 0.930 . S
C507 C508 1.399 . S
C507 C512 1.399 . S
C508 C507 1.399 . S
C508 C509 1.376 . S
C509 H496 0.930 . S
C509 C508 1.376 . S
C509 C510 1.388 . S
C510 H497 0.930 . S
C510 C509 1.388 . S
C510 C511 1.390 . S
C511 C510 1.390 . S
C511 C512 1.394 . S
C511 C517 1.465 . S
C512 C507 1.399 . S
C512 C511 1.394 . S
C512 C513 1.516 . S
C513 C512 1.516 . S
C513 C514 1.502 . S
C513 C515 1.561 . S
C513 C516 1.526 . S
C514 H498 0.959 . S
C514 H499 0.959 . S
C514 H500 0.961 . S
C514 C513 1.502 . S
C515 H501 0.960 . S
C515 H502 0.961 . S
C515 H503 0.959 . S
C515 C513 1.561 . S
C516 C513 1.526 . S
C516 C517 1.396 . S
C516 C521 1.390 . S
C517 C511 1.465 . S
C517 C516 1.396 . S
C517 C518 1.399 . S
C518 H504 0.929 . S
C518 C517 1.399 . S
C518 C519 1.385 . S
C519 H505 0.931 . S
C519 C518 1.385 . S
C519 C520 1.389 . S
C520 C519 1.389 . S
C520 C521 1.387 . S
C521 H506 0.930 . S
C521 C516 1.390 . S
C521 C520 1.387 . S
H522 C534 0.930 . S
H523 C536 0.930 . S
H524 C537 0.930 . S
H525 C541 0.959 . S
H526 C541 0.959 . S
H527 C541 0.961 1_554 S
H528 C542 0.960 . S
H529 C542 0.961 1_556 S
H530 C542 0.959 . S
H531 C545 0.929 . S
H532 C546 0.931 . S
H533 C548 0.930 . S
C534 H522 0.930 . S
C534 C535 1.399 1_565 S
C534 C539 1.401 . S
C535 C534 1.399 1_545 S
C535 C536 1.376 . S
C536 H523 0.930 . S
C536 C535 1.376 . S
C536 C537 1.388 . S
C537 H524 0.930 . S
C537 C536 1.388 . S
C537 C538 1.390 . S
C538 C537 1.390 . S
C538 C539 1.386 1_545 S
C538 C544 1.465 1_554 S
C539 C534 1.401 . S
C539 C538 1.386 1_565 S
C539 C540 1.521 1_455 S
C540 C539 1.521 1_655 S
C540 C541 1.502 1_654 S
C540 C542 1.561 . S
C540 C543 1.526 1_554 S
C541 H525 0.959 . S
C541 H526 0.959 . S
C541 H527 0.961 1_556 S
C541 C540 1.502 1_456 S
C542 H528 0.960 . S
C542 H529 0.961 1_554 S
C542 H530 0.959 . S
C542 C540 1.561 . S
C543 C540 1.526 1_556 S
C543 C544 1.396 1_665 S
C543 C548 1.390 . S
C544 C538 1.465 1_556 S
C544 C543 1.396 1_445 S
C544 C545 1.399 . S
C545 H531 0.929 . S
C545 C544 1.399 . S
C545 C546 1.385 1_455 S
C546 H532 0.931 . S
C546 C545 1.385 1_655 S
C546 C547 1.389 . S
C547 C546 1.389 . S
C547 C548 1.387 1_545 S
C548 H533 0.930 . S
C548 C543 1.390 . S
C548 C547 1.387 1_565 S
H549 C561 0.930 . S
H550 C563 0.930 . S
H551 C564 0.930 . S
H552 C568 0.959 . S
H553 C568 0.959 . S
H554 C568 0.961 . S
H555 C569 0.960 . S
H556 C569 0.961 . S
H557 C569 0.959 . S
H558 C572 0.929 . S
H559 C573 0.931 . S
H560 C575 0.930 . S
C561 H549 0.930 . S
C561 C562 1.399 . S
C561 C566 1.399 . S
C562 C561 1.399 . S
C562 C563 1.376 . S
C563 H550 0.930 . S
C563 C562 1.376 . S
C563 C564 1.388 . S
C564 H551 0.930 . S
C564 C563 1.388 . S
C564 C565 1.390 . S
C565 C564 1.390 . S
C565 C566 1.394 . S
C565 C571 1.465 . S
C566 C561 1.399 . S
C566 C565 1.394 . S
C566 C567 1.516 . S
C567 C566 1.516 . S
C567 C568 1.502 . S
C567 C569 1.561 . S
C567 C570 1.526 . S
C568 H552 0.959 . S
C568 H553 0.959 . S
C568 H554 0.961 . S
C568 C567 1.502 . S
C569 H555 0.960 . S
C569 H556 0.961 . S
C569 H557 0.959 . S
C569 C567 1.561 . S
C570 C567 1.526 . S
C570 C571 1.396 . S
C570 C575 1.390 . S
C571 C565 1.465 . S
C571 C570 1.396 . S
C571 C572 1.399 . S
C572 H558 0.929 . S
C572 C571 1.399 . S
C572 C573 1.385 . S
C573 H559 0.931 . S
C573 C572 1.385 . S
C573 C574 1.389 . S
C574 C573 1.389 . S
C574 C575 1.387 . S
C575 H560 0.930 . S
C575 C570 1.390 . S
C575 C574 1.387 . S
H576 C588 0.930 . S
H577 C590 0.930 . S
H578 C591 0.930 . S
H579 C595 0.959 . S
H580 C595 0.959 . S
H581 C595 0.961 . S
H582 C596 0.960 . S
H583 C596 0.961 . S
H584 C596 0.959 . S
H585 C599 0.929 . S
H586 C600 0.931 . S
H587 C602 0.930 . S
C588 H576 0.930 . S
C588 C589 1.399 . S
C588 C593 1.399 . S
C589 C588 1.399 . S
C589 C590 1.376 . S
C590 H577 0.930 . S
C590 C589 1.376 . S
C590 C591 1.388 . S
C591 H578 0.930 . S
C591 C590 1.388 . S
C591 C592 1.390 . S
C592 C591 1.390 . S
C592 C593 1.394 . S
C592 C598 1.465 . S
C593 C588 1.399 . S
C593 C592 1.394 . S
C593 C594 1.516 . S
C594 C593 1.516 . S
C594 C595 1.502 . S
C594 C596 1.561 . S
C594 C597 1.526 . S
C595 H579 0.959 . S
C595 H580 0.959 . S
C595 H581 0.961 . S
C595 C594 1.502 . S
C596 H582 0.960 . S
C596 H583 0.961 . S
C596 H584 0.959 . S
C596 C594 1.561 . S
C597 C594 1.526 . S
C597 C598 1.396 . S
C597 C602 1.390 . S
C598 C592 1.465 . S
C598 C597 1.396 . S
C598 C599 1.399 . S
C599 H585 0.929 . S
C599 C598 1.399 . S
C599 C600 1.385 . S
C600 H586 0.931 . S
C600 C599 1.385 . S
C600 C601 1.389 . S
C601 C600 1.389 . S
C601 C602 1.387 . S
C602 H587 0.930 . S
C602 C597 1.390 . S
C602 C601 1.387 . S
C211 C18 1.999 . S
C223 C117 1.993 . S
C238 C7 1.577 . S
C250 C120 1.524 . S
C265 C106 1.547 . S
C277 C21 1.572 . S
C292 C40 1.549 . S
C304 C153 1.571 . S
C319 C150 1.994 . S
C331 C51 1.998 . S
C346 C54 1.527 . S
C358 C139 1.579 . S
C373 C84 2.003 . S
C385 C183 1.989 . S
C400 C73 1.572 . S
C412 C186 1.543 . S
C427 C172 1.546 . S
C439 C87 1.573 . S
C454 N35 2.196 1_455 S
C466 N2 2.191 . S
C481 N101 2.196 . S
C493 N68 2.191 . S
C508 N167 2.196 . S
C520 N134 2.191 . S
C535 N13 0.649 . S
C547 N46 0.665 1_655 S
C562 N112 0.792 . S
C574 N79 0.635 . S
C589 N178 0.792 . S
C601 N145 0.625 . S
