# Generated by pormake.
# Topology snk, (6)-cn, num edge types: 1
# Building blocks:
#     Node 0, Type 0, BuildingBlock: KUMJIN_clean_sbu_0, # of connection points: 6
#     Node 1, Type 0, BuildingBlock: KUMJIN_clean_sbu_0, # of connection points: 6
#     Node 2, Type 0, BuildingBlock: KUMJIN_clean_sbu_0, # of connection points: 6
#     Node 3, Type 0, BuildingBlock: KUMJIN_clean_sbu_0, # of connection points: 6
#     Node 4, Type 0, BuildingBlock: KUMJIN_clean_sbu_0, # of connection points: 6
#     Node 5, Type 0, BuildingBlock: KUMJIN_clean_sbu_0, # of connection points: 6
#     Node 6, Type 0, BuildingBlock: KUMJIN_clean_sbu_0, # of connection points: 6
#     Node 7, Type 0, BuildingBlock: KUMJIN_clean_sbu_0, # of connection points: 6
#     Edge 8, Type (0, 0), BuildingBlock: XUDNAN_clean_linker_2, # of connection points: 2
#     Edge 9, Type (0, 0), BuildingBlock: XUDNAN_clean_linker_2, # of connection points: 2
#     Edge 10, Type (0, 0), BuildingBlock: XUDNAN_clean_linker_2, # of connection points: 2
#     Edge 11, Type (0, 0), BuildingBlock: XUDNAN_clean_linker_2, # of connection points: 2
#     Edge 12, Type (0, 0), BuildingBlock: XUDNAN_clean_linker_2, # of connection points: 2
#     Edge 13, Type (0, 0), BuildingBlock: XUDNAN_clean_linker_2, # of connection points: 2
#     Edge 14, Type (0, 0), BuildingBlock: XUDNAN_clean_linker_2, # of connection points: 2
#     Edge 15, Type (0, 0), BuildingBlock: XUDNAN_clean_linker_2, # of connection points: 2
#     Edge 16, Type (0, 0), BuildingBlock: XUDNAN_clean_linker_2, # of connection points: 2
#     Edge 17, Type (0, 0), BuildingBlock: XUDNAN_clean_linker_2, # of connection points: 2
#     Edge 18, Type (0, 0), BuildingBlock: XUDNAN_clean_linker_2, # of connection points: 2
#     Edge 19, Type (0, 0), BuildingBlock: XUDNAN_clean_linker_2, # of connection points: 2
#     Edge 20, Type (0, 0), BuildingBlock: XUDNAN_clean_linker_2, # of connection points: 2
#     Edge 21, Type (0, 0), BuildingBlock: XUDNAN_clean_linker_2, # of connection points: 2
#     Edge 22, Type (0, 0), BuildingBlock: XUDNAN_clean_linker_2, # of connection points: 2
#     Edge 23, Type (0, 0), BuildingBlock: XUDNAN_clean_linker_2, # of connection points: 2
#     Edge 24, Type (0, 0), BuildingBlock: XUDNAN_clean_linker_2, # of connection points: 2
#     Edge 25, Type (0, 0), BuildingBlock: XUDNAN_clean_linker_2, # of connection points: 2
#     Edge 26, Type (0, 0), BuildingBlock: XUDNAN_clean_linker_2, # of connection points: 2
#     Edge 27, Type (0, 0), BuildingBlock: XUDNAN_clean_linker_2, # of connection points: 2
#     Edge 28, Type (0, 0), BuildingBlock: XUDNAN_clean_linker_2, # of connection points: 2
#     Edge 29, Type (0, 0), BuildingBlock: XUDNAN_clean_linker_2, # of connection points: 2
#     Edge 30, Type (0, 0), BuildingBlock: XUDNAN_clean_linker_2, # of connection points: 2
#     Edge 31, Type (0, 0), BuildingBlock: XUDNAN_clean_linker_2, # of connection points: 2
# Relax obj value: 0.006
# Max RMSD: 0.052
# Mean RMSD: 0.049
data_MOF--net-snk--node1-KUMJIN_clean_sbu_0--edge1-XUDNAN_clean_linker_2
_symmetry_space_group_name_H-M    P1
_symmetry_Int_Tables_number       1
_symmetry_cell_setting            triclinic
loop_
_symmetry_equiv_pos_as_xyz
'x, y, z'
_cell_length_a     37.745581
_cell_length_b     37.845616
_cell_length_c     24.426541
_cell_angle_alpha  88.068971
_cell_angle_beta   87.248769
_cell_angle_gamma 90.053201
loop_
_atom_site_label
_atom_site_type_symbol
_atom_site_fract_x
_atom_site_fract_y
_atom_site_fract_z
_atom_type_partial_charge
Eu0 Eu 0.00841 0.97878 0.47138 0.0
C1 C 0.01257 0.12156 0.59277 0.0
C2 C 0.07278 0.14314 0.5775 0.0
C3 C 0.02433 0.18481 0.59004 0.0
C4 C 0.04827 0.11492 0.58298 0.0
C5 C 1.00022 0.15655 0.59717 0.0
C6 C 0.06055 0.17811 0.5802 0.0
C7 C 0.94141 0.13302 0.61827 0.0
N8 N 0.98998 0.09369 0.59946 0.0
C9 C 0.95495 0.0988 0.61373 0.0
C10 C 0.96408 0.16205 0.60948 0.0
Eu11 Eu 0.01454 0.03664 0.5885 0.0
N12 N 0.05921 0.08083 0.58074 0.0
C13 C 0.09455 0.07306 0.5767 0.0
C14 C 0.10891 0.13533 0.57048 0.0
C15 C 0.11985 0.10012 0.57072 0.0
H16 H 0.93723 0.0765 0.62027 0.0
H17 H 0.14776 0.09377 0.56607 0.0
H18 H 0.07894 0.20014 0.57568 0.0
H19 H 0.91351 0.13697 0.62852 0.0
H20 H 0.10342 0.04601 0.57652 0.0
H21 H 0.87214 0.92928 0.49174 0.0
H22 H 0.12856 0.15624 0.56584 0.0
H23 H 0.08306 0.93394 0.44146 0.0
H24 H 0.9191 0.97439 0.47854 0.0
H25 H 0.10368 0.87187 0.44023 0.0
H26 H 0.01533 0.2119 0.59293 0.0
H27 H 0.88795 0.86601 0.50094 0.0
H28 H 0.93529 0.81931 0.4993 0.0
H29 H 0.95354 0.18854 0.61315 0.0
H30 H 0.9983 0.80367 0.48545 0.0
N31 N 0.96134 0.93725 0.48121 0.0
C32 C 0.92648 0.94692 0.48212 0.0
C33 C 0.90874 0.88571 0.49494 0.0
C34 C 0.94447 0.87584 0.49098 0.0
C35 C 0.89971 0.92139 0.48967 0.0
C36 C 0.9705 0.90257 0.48356 0.0
H37 H 0.0612 0.82306 0.46259 0.0
N38 N 0.02988 0.92014 0.46589 0.0
C39 C 0.07613 0.87766 0.45047 0.0
C40 C 1.00589 0.89374 0.47591 0.0
C41 C 0.06439 0.91269 0.45099 0.0
C42 C 0.05208 0.85018 0.4633 0.0
C43 C 0.01636 0.858 0.47532 0.0
O44 O 0.03257 0.97876 0.38823 0.0
O45 O 0.0305 0.02929 0.50028 0.0
O46 O 0.98586 0.06705 0.52325 0.0
O47 O 0.96398 0.0209 0.47358 0.0
O48 O 0.06398 1.00082 0.44995 0.0
O49 O 0.97618 0.98766 0.4002 0.0
O50 O 0.9914 0.03086 0.67211 0.0
O51 O 0.99273 0.98599 0.5594 0.0
O52 O 0.03917 0.94964 0.53678 0.0
O53 O 0.0608 0.99768 0.5819 0.0
O54 O 0.95879 0.01468 0.60844 0.0
O55 O 0.04842 0.02831 0.65779 0.0
C56 C 0.0609 0.02983 0.47594 0.0
C57 C 0.99597 0.96003 0.31901 0.0
C58 C 0.9875 0.95216 0.22151 0.0
C59 C 0.99465 0.97421 0.2651 0.0
C60 C 0.98235 0.91575 0.23265 0.0
C61 C 0.99065 0.92368 0.329 0.0
C62 C 0.98401 0.90168 0.28601 0.0
C63 C 0.96424 0.05462 0.48742 0.0
C64 C 1.00258 0.98328 0.36459 0.0
C65 C 0.99075 0.83129 0.48517 0.0
C66 C 0.95487 0.8402 0.493 0.0
C67 C 0.96211 0.98557 0.58286 0.0
C68 C 0.02647 0.04841 0.74395 0.0
C69 C 0.01625 0.03293 0.79538 0.0
C70 C 0.01984 0.05152 0.8439 0.0
C71 C 0.03418 0.0859 0.83988 0.0
C72 C 0.04047 0.08278 0.74082 0.0
C73 C 0.04436 0.10134 0.78867 0.0
C74 C 0.06161 0.96378 0.56985 0.0
C75 C 0.02202 0.02817 0.69434 0.0
H76 H 0.99845 1.00236 0.25732 0.0
H77 H 0.97727 0.89805 0.19996 0.0
H78 H 0.99155 0.91231 0.36997 0.0
H79 H 0.98003 0.87363 0.29408 0.0
H80 H 1.00577 0.00621 0.7975 0.0
H81 H 0.03694 0.10112 0.87618 0.0
H82 H 0.04838 0.09521 0.70156 0.0
H83 H 0.05513 0.12789 0.78606 0.0
Eu84 Eu 0.28147 0.74102 0.70346 0.0
C85 C 0.15465 0.78416 0.83903 0.0
C86 C 0.15281 0.84748 0.82157 0.0
C87 C 0.09783 0.81427 0.8353 0.0
C88 C 0.17215 0.8158 0.82756 0.0
C89 C 0.11728 0.78325 0.84499 0.0
C90 C 0.11559 0.84637 0.82379 0.0
C91 C 0.12135 0.72268 0.87841 0.0
N92 N 0.17426 0.75496 0.84972 0.0
C93 C 0.15832 0.72511 0.87276 0.0
C94 C 0.10068 0.75167 0.86338 0.0
Eu95 Eu 0.2369 0.76065 0.83584 0.0
N96 N 0.20812 0.81603 0.82643 0.0
C97 C 0.2263 0.84732 0.82357 0.0
C98 C 0.1714 0.87948 0.81588 0.0
C99 C 0.20828 0.87943 0.81803 0.0
H100 H 0.1743 0.70264 0.88451 0.0
H101 H 0.2229 0.90409 0.81481 0.0
H102 H 0.1003 0.87036 0.81851 0.0
H103 H 0.10885 0.69854 0.89463 0.0
H104 H 0.25478 0.84783 0.82474 0.0
H105 H 0.22578 0.6415 0.5749 0.0
H106 H 0.15752 0.90437 0.81129 0.0
H107 H 0.36343 0.74435 0.75119 0.0
H108 H 0.22995 0.69979 0.61731 0.0
H109 H 0.41452 0.70494 0.76353 0.0
H110 H 0.06911 0.814 0.83887 0.0
H111 H 0.27083 0.59562 0.5928 0.0
H112 H 0.32814 0.57873 0.63508 0.0
H113 H 0.07205 0.74989 0.86842 0.0
H114 H 0.37963 0.59612 0.68618 0.0
N115 N 0.27576 0.68608 0.66075 0.0
C116 C 0.24962 0.67976 0.62531 0.0
C117 C 0.27262 0.621 0.61173 0.0
C118 C 0.30087 0.62871 0.64452 0.0
C119 C 0.24717 0.64685 0.60142 0.0
C120 C 0.30193 0.66211 0.66828 0.0
H121 H 0.41233 0.64328 0.73347 0.0
N122 N 0.332 0.7052 0.71592 0.0
C123 C 0.39111 0.69526 0.74491 0.0
C124 C 0.33088 0.67194 0.69696 0.0
C125 C 0.36202 0.71755 0.73786 0.0
C126 C 0.38971 0.66043 0.72809 0.0
C127 C 0.35962 0.64854 0.70284 0.0
O128 O 0.32514 0.76098 0.64883 0.0
O129 O 0.24557 0.77927 0.74809 0.0
O130 O 0.20343 0.7234 0.78822 0.0
O131 O 0.24496 0.69591 0.73022 0.0
O132 O 0.22762 0.75862 0.6767 0.0
O133 O 0.27177 0.76285 0.62133 0.0
O134 O 0.23202 0.73889 0.92024 0.0
O135 O 0.28375 0.73469 0.79468 0.0
O136 O 0.31351 0.78447 0.73965 0.0
O137 O 0.28721 0.79311 0.8268 0.0
O138 O 0.25558 0.70473 0.85416 0.0
O139 O 0.25395 0.79091 0.9046 0.0
C140 C 0.22081 0.78072 0.71473 0.0
C141 C 0.3169 0.75073 0.55455 0.0
C142 C 0.31325 0.74858 0.45452 0.0
C143 C 0.30307 0.76359 0.50514 0.0
C144 C 0.33756 0.72037 0.45459 0.0
C145 C 0.34077 0.7223 0.55324 0.0
C146 C 0.351 0.70733 0.50354 0.0
C147 C 0.21367 0.69756 0.75617 0.0
C148 C 0.30524 0.76634 0.60719 0.0
C149 C 0.35794 0.61457 0.68164 0.0
C150 C 0.32861 0.60466 0.65256 0.0
C151 C 0.28336 0.70536 0.82124 0.0
C152 C 0.22363 0.7803 0.99012 0.0
C153 C 0.23834 0.7789 0.04211 0.0
C154 C 0.21997 0.79348 0.08761 0.0
C155 C 0.1865 0.8088 0.08052 0.0
C156 C 0.19017 0.7956 0.98415 0.0
C157 C 0.17168 0.80962 0.02921 0.0
C158 C 0.31202 0.79959 0.78772 0.0
C159 C 0.24394 0.7672 0.94195 0.0
H160 H 0.28395 0.78492 0.50649 0.0
H161 H 0.34668 0.70858 0.4167 0.0
H162 H 0.35154 0.71155 0.59056 0.0
H163 H 0.36957 0.68555 0.50293 0.0
H164 H 0.26438 0.76744 0.0468 0.0
H165 H 0.17174 0.82004 0.11484 0.0
H166 H 0.17851 0.79706 0.94461 0.0
H167 H 0.14589 0.82147 1.02424 0.0
Eu168 Eu 0.51017 0.98452 0.06199 0.0
C169 C 0.49027 0.13061 0.9434 0.0
C170 C 0.42706 0.14187 0.94793 0.0
C171 C 0.46864 0.19102 0.94728 0.0
C172 C 0.45578 0.11807 0.94605 0.0
C173 C 0.49712 0.16724 0.94332 0.0
C174 C 0.43368 0.17836 0.94927 0.0
C175 C 0.55965 0.15426 0.93105 0.0
N176 N 0.51715 0.10698 0.93853 0.0
C177 C 0.55149 0.11822 0.93063 0.0
C178 C 0.53238 0.17888 0.93791 0.0
Eu179 Eu 0.50123 0.04639 0.94153 0.0
N180 N 0.45032 0.08272 0.94381 0.0
C181 C 0.41695 0.06954 0.93959 0.0
C182 C 0.3926 0.12833 0.94686 0.0
C183 C 0.38756 0.09204 0.94187 0.0
H184 H 0.57267 0.09926 0.92563 0.0
H185 H 0.36106 0.08136 0.93995 0.0
H186 H 0.41195 0.19704 0.95109 0.0
H187 H 0.58695 0.16302 0.92604 0.0
H188 H 0.41283 0.0415 0.9359 0.0
H189 H 0.6506 0.95126 0.07182 0.0
H190 H 0.3698 0.14571 0.94853 0.0
H191 H 0.43966 0.93158 0.08579 0.0
H192 H 0.59871 0.99048 0.06887 0.0
H193 H 0.42584 0.86786 0.09547 0.0
H194 H 0.47335 0.21926 0.94761 0.0
H195 H 0.64257 0.88639 0.07211 0.0
H196 H 0.60094 0.83444 0.0766 0.0
H197 H 0.53876 0.2068 0.93787 0.0
H198 H 0.53974 0.81168 0.08253 0.0
N199 N 0.5615 0.9485 0.06459 0.0
C200 C 0.5947 0.96229 0.06842 0.0
C201 C 0.61964 0.90353 0.07034 0.0
C202 C 0.58536 0.88949 0.07022 0.0
C203 C 0.62427 0.9401 0.07031 0.0
C204 C 0.55645 0.91299 0.06742 0.0
H205 H 0.47427 0.82393 0.08996 0.0
N206 N 0.49518 0.92381 0.07281 0.0
C207 C 0.45307 0.87657 0.08864 0.0
C208 C 0.52216 0.90022 0.07157 0.0
C209 C 0.46101 0.91267 0.08316 0.0
C210 C 0.48045 0.85186 0.08528 0.0
C211 C 0.51558 0.86357 0.07774 0.0
O212 O 0.48219 0.98396 0.14261 0.0
O213 O 0.482 0.03126 0.02682 0.0
O214 O 0.51958 0.07618 1.01289 0.0
O215 O 0.54922 0.03095 0.05836 0.0
O216 O 0.45123 0.99603 0.07401 0.0
O217 O 0.53723 1.00012 0.13451 0.0
O218 O 0.52829 0.05102 0.86047 0.0
O219 O 0.52882 0.99924 0.97618 0.0
O220 O 0.48887 0.95323 0.99302 0.0
O221 O 0.4641 0.99905 0.94046 0.0
O222 O 0.55983 0.0334 0.92689 0.0
O223 O 0.47288 0.03587 0.86786 0.0
C224 C 0.45095 0.02563 0.04645 0.0
C225 C 0.51655 0.97537 0.22043 0.0
C226 C 0.51295 0.9744 0.32095 0.0
C227 C 0.50698 0.99152 0.26998 0.0
C228 C 0.52902 0.94083 0.32112 0.0
C229 C 0.53241 0.94192 0.22163 0.0
C230 C 0.53865 0.92482 0.27181 0.0
C231 C 0.54302 0.06489 0.04776 0.0
C232 C 0.50985 0.994 0.16809 0.0
C233 C 0.54423 0.83993 0.07811 0.0
C234 C 0.57907 0.85289 0.07476 0.0
C235 C 0.55966 1.00405 0.95518 0.0
C236 C 0.49263 0.06688 0.78658 0.0
C237 C 0.49113 0.05267 0.73415 0.0
C238 C 0.48306 0.07452 0.68851 0.0
C239 C 0.47707 0.11076 0.69614 0.0
C240 C 0.48657 0.10306 0.79307 0.0
C241 C 0.47893 0.12485 0.74801 0.0
C242 C 0.46891 0.96511 0.95313 0.0
C243 C 0.49994 0.04373 0.83436 0.0
H244 H 0.49518 0.01762 0.26864 0.0
H245 H 0.53359 0.92662 0.35934 0.0
H246 H 0.53994 0.92908 0.18389 0.0
H247 H 0.55083 0.89894 0.27253 0.0
H248 H 0.49549 0.02463 0.72915 0.0
H249 H 0.4712 0.1283 0.66182 0.0
H250 H 0.48769 0.11445 0.8329 0.0
H251 H 0.47433 0.15278 0.75333 0.0
Eu252 Eu 0.28599 0.25777 0.3219 0.0
C253 C 0.14071 0.26138 0.20999 0.0
C254 C 0.11759 0.20166 0.22006 0.0
C255 C 0.07694 0.25129 0.21543 0.0
C256 C 0.14653 0.22541 0.21529 0.0
C257 C 0.10584 0.27472 0.20928 0.0
C258 C 0.08281 0.21483 0.22086 0.0
C259 C 0.13061 0.33326 0.19376 0.0
N260 N 0.16925 0.28333 0.20423 0.0
C261 C 0.16467 0.31882 0.19457 0.0
C262 C 0.10105 0.31117 0.20162 0.0
Eu263 Eu 0.22619 0.25675 0.2084 0.0
N264 N 0.18046 0.21352 0.21433 0.0
C265 C 0.18725 0.17808 0.21479 0.0
C266 C 0.12449 0.16535 0.22305 0.0
C267 C 0.15949 0.15352 0.21987 0.0
H268 H 0.18718 0.3363 0.18855 0.0
H269 H 0.16514 0.12548 0.22164 0.0
H270 H 0.06027 0.19702 0.22482 0.0
H271 H 0.12718 0.36144 0.18706 0.0
H272 H 0.21409 0.16854 0.21296 0.0
H273 H 0.32902 0.39499 0.33247 0.0
H274 H 0.10302 0.14627 0.22702 0.0
H275 H 0.3333 0.18353 0.335 0.0
H276 H 0.28626 0.34651 0.32647 0.0
H277 H 0.39598 0.16529 0.3406 0.0
H278 H 0.04996 0.26106 0.2153 0.0
H279 H 0.39313 0.38215 0.33456 0.0
H280 H 0.44177 0.33713 0.33707 0.0
H281 H 0.0747 0.32245 0.20086 0.0
H282 H 0.46014 0.27481 0.3374 0.0
N283 N 0.32566 0.30637 0.32075 0.0
C284 C 0.31413 0.34036 0.32594 0.0
C285 C 0.37448 0.3607 0.33076 0.0
C286 C 0.38606 0.32565 0.3285 0.0
C287 C 0.33833 0.36804 0.32969 0.0
C288 C 0.36071 0.29869 0.32318 0.0
H289 H 0.44334 0.21062 0.33819 0.0
N290 N 0.34548 0.23832 0.32524 0.0
C291 C 0.38934 0.19302 0.33608 0.0
C292 C 0.37094 0.2636 0.32503 0.0
C293 C 0.35396 0.2034 0.33276 0.0
C294 C 0.41599 0.21867 0.33451 0.0
C295 C 0.40691 0.25448 0.33025 0.0
O296 O 0.29189 0.23177 0.40257 0.0
O297 O 0.23553 0.23627 0.29325 0.0
O298 O 0.1957 0.28051 0.27903 0.0
O299 O 0.24217 0.30079 0.32895 0.0
O300 O 0.26474 0.20151 0.33844 0.0
O301 O 0.26984 0.2845 0.39656 0.0
O302 O 0.23435 0.28202 0.12723 0.0
O303 O 0.27845 0.27806 0.23612 0.0
O304 O 0.31367 0.22751 0.2519 0.0
O305 O 0.26389 0.21007 0.20739 0.0
O306 O 0.24603 0.31309 0.19612 0.0
O307 O 0.22918 0.22515 0.13479 0.0
C308 C 0.23523 0.20525 0.31445 0.0
C309 C 0.29995 0.26969 0.47649 0.0
C310 C 0.30476 0.27079 0.57554 0.0
C311 C 0.28831 0.25817 0.5296 0.0
C312 C 0.33331 0.29449 0.56805 0.0
C313 C 0.32873 0.29319 0.46967 0.0
C314 C 0.34542 0.30536 0.51525 0.0
C315 C 0.20799 0.30013 0.31753 0.0
C316 C 0.28016 0.25899 0.42927 0.0
C317 C 0.43241 0.28128 0.33331 0.0
C318 C 0.42194 0.31676 0.33318 0.0
C319 C 0.27622 0.30983 0.21807 0.0
C320 C 0.21031 0.25351 0.05338 0.0
C321 C 0.2261 0.2479 1.00119 0.0
C322 C 0.20617 0.25182 0.95423 0.0
C323 C 0.17016 0.26089 0.96 0.0
C324 C 0.17417 0.26206 0.05856 0.0
C325 C 0.15421 0.26563 1.01202 0.0
C326 C 0.29788 0.20692 0.21748 0.0
C327 C 0.23241 0.25263 0.1013 0.0
H328 H 0.26581 0.24036 0.5353 0.0
H329 H 0.34618 0.30455 0.60307 0.0
H330 H 0.3379 0.3027 0.4294 0.0
H331 H 0.36745 0.32366 0.50963 0.0
H332 H 0.2541 0.24157 0.99694 0.0
H333 H 0.15437 0.26408 0.92427 0.0
H334 H 0.16153 0.2665 0.0983 0.0
H335 H 0.1264 0.27247 1.01625 0.0
Eu336 Eu 0.78865 0.24378 0.20929 0.0
C337 C 0.645 0.25328 0.34888 0.0
C338 C 0.62345 0.3135 0.34865 0.0
C339 C 0.58153 0.26458 0.35311 0.0
C340 C 0.65172 0.28917 0.34597 0.0
C341 C 0.60984 0.24051 0.35295 0.0
C342 C 0.58832 0.30103 0.35109 0.0
C343 C 0.63328 0.18119 0.35886 0.0
N344 N 0.673 0.2308 0.34864 0.0
C345 C 0.66767 0.19513 0.35497 0.0
C346 C 0.60422 0.20395 0.35742 0.0
Eu347 Eu 0.7305 0.25641 0.33704 0.0
N348 N 0.68595 0.30029 0.34344 0.0
C349 C 0.69375 0.33517 0.34871 0.0
C350 C 0.63135 0.34954 0.35056 0.0
C351 C 0.66666 0.36034 0.3518 0.0
H352 H 0.6899 0.17724 0.35523 0.0
H353 H 0.67307 0.38807 0.35479 0.0
H354 H 0.56625 0.31932 0.35259 0.0
H355 H 0.62921 0.15288 0.36274 0.0
H356 H 0.72095 0.34382 0.34984 0.0
H357 H 0.82801 0.10556 0.2316 0.0
H358 H 0.61043 0.36909 0.35274 0.0
H359 H 0.83896 0.31338 0.16733 0.0
H360 H 0.78634 0.15532 0.22073 0.0
H361 H 0.9027 0.3296 0.15792 0.0
H362 H 0.55431 0.2553 0.35584 0.0
H363 H 0.89241 0.11719 0.2347 0.0
H364 H 0.94264 0.16108 0.2269 0.0
H365 H 0.5776 0.19307 0.36047 0.0
H366 H 0.96302 0.2222 0.20697 0.0
N367 N 0.82672 0.19461 0.21839 0.0
C368 C 0.8144 0.16065 0.22163 0.0
C369 C 0.87425 0.13909 0.22978 0.0
C370 C 0.8868 0.17386 0.22345 0.0
C371 C 0.83793 0.13241 0.22787 0.0
C372 C 0.86204 0.20139 0.21712 0.0
H373 H 0.94835 0.28513 0.18017 0.0
N374 N 0.84888 0.26091 0.19624 0.0
C375 C 0.89485 0.30315 0.17174 0.0
C376 C 0.87349 0.23569 0.20586 0.0
C377 C 0.85892 0.29391 0.17684 0.0
C378 C 0.92053 0.278 0.18451 0.0
C379 C 0.91003 0.24356 0.20074 0.0
O380 O 0.79124 0.26329 0.12405 0.0
O381 O 0.74539 0.27327 0.25119 0.0
O382 O 0.69846 0.23718 0.26924 0.0
O383 O 0.74198 0.20505 0.22232 0.0
O384 O 0.76323 0.29476 0.17667 0.0
O385 O 0.77506 0.20911 0.14371 0.0
O386 O 0.7356 0.23336 0.41957 0.0
O387 O 0.7782 0.23087 0.29824 0.0
O388 O 0.81709 0.27932 0.26608 0.0
O389 O 0.76971 0.30187 0.32024 0.0
O390 O 0.75051 0.20036 0.35576 0.0
O391 O 0.74469 0.28944 0.40434 0.0
C392 C 0.73983 0.29771 0.2163 0.0
C393 C 0.80487 0.22092 0.05768 0.0
C394 C 0.81252 0.21073 0.95947 0.0
C395 C 0.79165 0.22241 1.00475 0.0
C396 C 0.8469 0.19798 0.96807 0.0
C397 C 0.83919 0.20813 0.06515 0.0
C398 C 0.86007 0.19677 1.02052 0.0
C399 C 0.70831 0.2133 0.23353 0.0
C400 C 0.78275 0.23281 0.10475 0.0
C401 C 0.93482 0.21661 0.21007 0.0
C402 C 0.92322 0.1818 0.2214 0.0
C403 C 0.77858 0.20143 0.32365 0.0
C404 C 0.7238 0.27063 0.49388 0.0
C405 C 0.73824 0.2578 0.54263 0.0
C406 C 0.7211 0.2638 0.59405 0.0
C407 C 0.68932 0.28322 0.59571 0.0
C408 C 0.69193 0.28964 0.49646 0.0
C409 C 0.67491 0.29598 0.54722 0.0
C410 C 0.80323 0.30217 0.30097 0.0
C411 C 0.7424 0.26356 0.44102 0.0
H412 H 0.76501 0.23209 0.99904 0.0
H413 H 0.8638 0.18927 0.93407 0.0
H414 H 0.84985 0.20692 0.10539 0.0
H415 H 0.88659 0.18701 0.0266 0.0
H416 H 0.76303 0.24335 0.54039 0.0
H417 H 0.6752 0.28798 0.63439 0.0
H418 H 0.68021 0.29954 0.45943 0.0
H419 H 0.6503 0.31066 0.54898 0.0
Eu420 Eu 0.79126 0.7628 0.84896 0.0
C421 C 0.64798 0.75846 0.73502 0.0
C422 C 0.62901 0.69746 0.74771 0.0
C423 C 0.58506 0.74417 0.74169 0.0
C424 C 0.65624 0.72307 0.74193 0.0
C425 C 0.61232 0.76937 0.73355 0.0
C426 C 0.5934 0.70828 0.74878 0.0
C427 C 0.63324 0.82874 0.71113 0.0
N428 N 0.67491 0.78203 0.72666 0.0
C429 C 0.66816 0.81656 0.71245 0.0
C430 C 0.60517 0.80512 0.7224 0.0
Eu431 Eu 0.73329 0.75988 0.73279 0.0
N432 N 0.6909 0.71352 0.74057 0.0
C433 C 0.70017 0.67863 0.74063 0.0
C434 C 0.6384 0.66172 0.75096 0.0
C435 C 0.67413 0.65226 0.74655 0.0
H436 H 0.68987 0.83489 0.70404 0.0
H437 H 0.68168 0.62468 0.74799 0.0
H438 H 0.57212 0.68902 0.75376 0.0
H439 H 0.628 0.8563 0.70148 0.0
H440 H 0.72766 0.6709 0.73767 0.0
H441 H 0.85496 0.89276 0.83074 0.0
H442 H 0.6183 0.64124 0.75566 0.0
H443 H 0.82781 0.68355 0.87583 0.0
H444 H 0.80503 0.85082 0.84106 0.0
H445 H 0.88734 0.65694 0.88011 0.0
H446 H 0.55749 0.75206 0.74123 0.0
H447 H 0.91661 0.87059 0.82614 0.0
H448 H 0.95825 0.81894 0.83108 0.0
H449 H 0.57813 0.81458 0.72111 0.0
H450 H 0.96707 0.75489 0.8449 0.0
N451 N 0.83774 0.80513 0.84098 0.0
C452 C 0.83168 0.8407 0.83942 0.0
C453 C 0.89473 0.852 0.83074 0.0
C454 C 0.90084 0.81559 0.83532 0.0
C455 C 0.85999 0.86462 0.83348 0.0
C456 C 0.8714 0.79252 0.84087 0.0
H457 H 0.94082 0.69437 0.86377 0.0
N458 N 0.84738 0.73542 0.8563 0.0
C459 C 0.88463 0.68499 0.87119 0.0
C460 C 0.87639 0.75658 0.84907 0.0
C461 C 0.85095 0.70017 0.8689 0.0
C462 C 0.91475 0.7062 0.86185 0.0
C463 C 0.9109 0.74253 0.85126 0.0
O464 O 0.78682 0.73991 0.93247 0.0
O465 O 0.73923 0.74333 0.82056 0.0
O466 O 0.70538 0.79334 0.79781 0.0
O467 O 0.75422 0.81048 0.84542 0.0
O468 O 0.76719 0.70803 0.86714 0.0
O469 O 0.78432 0.79665 0.91935 0.0
O470 O 0.73588 0.78524 0.65108 0.0
O471 O 0.78444 0.78011 0.76176 0.0
O472 O 0.82133 0.73512 0.7811 0.0
O473 O 0.77483 0.71473 0.7314 0.0
O474 O 0.75668 0.81485 0.71369 0.0
O475 O 0.74153 0.72842 0.65978 0.0
C476 C 0.738 0.71258 0.84268 0.0
C477 C 0.80888 0.77498 1.00128 0.0
C478 C 0.8195 0.76853 0.09905 0.0
C479 C 0.79675 0.76575 0.05528 0.0
C480 C 0.85429 0.78105 0.0881 0.0
C481 C 0.84363 0.78762 0.99147 0.0
C482 C 0.86615 0.79066 0.03469 0.0
C483 C 0.72081 0.81444 0.83181 0.0
C484 C 0.78546 0.7705 0.95545 0.0
C485 C 0.94033 0.76521 0.84371 0.0
C486 C 0.93531 0.80167 0.83577 0.0
C487 C 0.78573 0.81068 0.73883 0.0
C488 C 0.71902 0.75144 0.57706 0.0
C489 C 0.73681 0.74928 0.52547 0.0
C490 C 0.71779 0.74591 0.47762 0.0
C491 C 0.6805 0.74495 0.48248 0.0
C492 C 0.68188 0.75025 0.58106 0.0
C493 C 0.66276 0.74706 0.53388 0.0
C494 C 0.80874 0.71439 0.74413 0.0
C495 C 0.73983 0.75563 0.62578 0.0
H496 H 0.76999 0.75576 0.06304 0.0
H497 H 0.87224 0.78372 0.12102 0.0
H498 H 0.85342 0.79512 0.95051 0.0
H499 H 0.89293 0.80042 0.02673 0.0
H500 H 0.76554 0.75075 0.52263 0.0
H501 H 0.66504 0.74202 0.44669 0.0
H502 H 0.66773 0.75189 0.62045 0.0
H503 H 0.63407 0.74614 0.53717 0.0
Eu504 Eu 0.51206 0.48137 0.9753 0.0
C505 C 0.53475 0.61683 0.10043 0.0
C506 C 0.59897 0.61961 0.10009 0.0
C507 C 0.56483 0.67378 0.10315 0.0
C508 C 0.56726 0.59949 0.10004 0.0
C509 C 0.53337 0.65413 0.10293 0.0
C510 C 0.59751 0.6566 0.10156 0.0
C511 C 0.46955 0.65049 0.10742 0.0
N512 N 0.50447 0.59756 0.09886 0.0
C513 C 0.47208 0.61381 0.1048 0.0
C514 C 0.50033 0.6708 0.10583 0.0
Eu515 Eu 0.51079 0.53511 0.09647 0.0
N516 N 0.56817 0.56347 0.09778 0.0
C517 C 0.60051 0.54684 0.09318 0.0
C518 C 0.63152 0.60221 0.09761 0.0
C519 C 0.63225 0.56573 0.09382 0.0
H520 H 0.44781 0.59858 0.10601 0.0
H521 H 0.65739 0.55211 0.08969 0.0
H522 H 0.6216 0.67221 0.10143 0.0
H523 H 0.44382 0.66304 0.11067 0.0
H524 H 0.60311 0.51932 0.08501 0.0
H525 H 0.37805 0.42715 0.9815 0.0
H526 H 0.65627 0.61677 0.09721 0.0
H527 H 0.5889 0.43993 0.94806 0.0
H528 H 0.42372 0.4738 0.97925 0.0
H529 H 0.61193 0.37889 0.94206 0.0
H530 H 0.56417 0.70237 0.10469 0.0
H531 H 0.39573 0.36429 0.98229 0.0
H532 H 0.44454 0.3191 0.98096 0.0
H533 H 0.4983 0.6993 0.10781 0.0
H534 H 0.50834 0.3059 0.97218 0.0
N535 N 0.4669 0.43778 0.98152 0.0
C536 C 0.43183 0.44648 0.98036 0.0
C537 C 0.41591 0.38464 0.98253 0.0
C538 C 0.45194 0.37589 0.98196 0.0
C539 C 0.40583 0.4201 0.98162 0.0
C540 C 0.47715 0.40346 0.9812 0.0
H541 H 0.57099 0.32803 0.95726 0.0
N542 N 0.53604 0.42354 0.96988 0.0
C543 C 0.58406 0.38333 0.95184 0.0
C544 C 0.51292 0.39607 0.97564 0.0
C545 C 0.57098 0.41778 0.95529 0.0
C546 C 0.56088 0.3547 0.96066 0.0
C547 C 0.52469 0.36086 0.97131 0.0
O548 O 0.53982 0.48563 0.89424 0.0
O549 O 0.52933 0.53289 1.00854 0.0
O550 O 0.47823 0.56283 0.03242 0.0
O551 O 0.46729 0.52178 0.96656 0.0
O552 O 0.56716 0.50577 0.96335 0.0
O553 O 0.48288 0.48666 0.90035 0.0
O554 O 0.46257 0.541 0.14816 0.0
O555 O 0.48084 0.4933 0.05278 0.0
O556 O 0.54449 0.45208 0.04125 0.0
O557 O 0.55108 0.49277 0.11038 0.0
O558 O 0.49216 0.48157 0.13261 0.0
O559 O 0.51484 0.54388 0.18452 0.0
C560 C 0.56084 0.53467 0.98833 0.0
C561 C 0.50934 0.46408 0.81962 0.0
C562 C 0.50696 0.45856 0.72039 0.0
C563 C 0.51093 0.47952 0.76634 0.0
C564 C 0.50198 0.4219 0.72853 0.0
C565 C 0.50449 0.42745 0.82673 0.0
C566 C 0.50098 0.4065 0.78136 0.0
C567 C 0.46216 0.55295 0.98858 0.0
C568 C 0.51092 0.48666 0.86739 0.0
C569 C 0.49983 0.33314 0.97505 0.0
C570 C 0.4635 0.34066 0.97996 0.0
C571 C 0.47579 0.47029 0.09159 0.0
C572 C 0.46221 0.55065 0.24623 0.0
C573 C 0.47848 0.54141 0.29551 0.0
C574 C 0.45948 0.54397 0.34637 0.0
C575 C 0.42456 0.55689 0.34741 0.0
C576 C 0.42732 0.56358 0.2485 0.0
C577 C 0.40877 0.56687 0.29882 0.0
C578 C 0.55882 0.46253 0.0869 0.0
C579 C 0.48029 0.54482 0.19228 0.0
H580 H 0.51421 0.5079 0.76077 0.0
H581 H 0.49904 0.40513 0.69394 0.0
H582 H 0.50296 0.41512 0.86726 0.0
H583 H 0.49716 0.37824 0.78719 0.0
H584 H 0.50522 0.53094 0.29422 0.0
H585 H 0.40952 0.5594 0.38598 0.0
H586 H 0.41426 0.57093 0.21127 0.0
H587 H 0.38189 0.57684 0.30013 0.0
Eu588 Eu 0.99967 0.47033 0.59296 0.0
C589 C 0.0196 0.6187 0.47265 0.0
C590 C 0.96138 0.64544 0.47923 0.0
C591 C 0.01405 0.68261 0.47593 0.0
C592 C 0.98315 0.61522 0.4765 0.0
C593 C 0.0355 0.65246 0.47098 0.0
C594 C 0.97704 0.6791 0.48017 0.0
C595 C 0.09237 0.62421 0.45584 0.0
N596 N 0.03947 0.58906 0.46775 0.0
C597 C 0.07535 0.59133 0.45778 0.0
C598 C 0.07239 0.65492 0.46296 0.0
Eu599 Eu 0.0091 0.5342 0.4735 0.0
N600 N 0.96897 0.58235 0.47501 0.0
C601 C 0.93319 0.57802 0.47204 0.0
C602 C 0.92457 0.64097 0.47952 0.0
C603 C 0.91045 0.60714 0.47507 0.0
H604 H 0.09091 0.56764 0.45258 0.0
H605 H 0.88205 0.60343 0.47423 0.0
H606 H 0.96077 0.70261 0.48278 0.0
H607 H 0.12088 0.62586 0.449 0.0
H608 H 0.92188 0.55204 0.46896 0.0
H609 H 0.12615 0.4001 0.59546 0.0
H610 H 0.9069 0.66347 0.48187 0.0
H611 H 0.91733 0.43775 0.61112 0.0
H612 H 0.08679 0.45186 0.59891 0.0
H613 H 0.88687 0.37979 0.61457 0.0
H614 H 0.02578 0.70877 0.47532 0.0
H615 H 0.10081 0.34013 0.58943 0.0
H616 H 0.04666 0.3014 0.58876 0.0
H617 H 0.08563 0.68037 0.46132 0.0
H618 H 0.98159 0.29582 0.59461 0.0
N619 N 0.03944 0.42186 0.59331 0.0
C620 C 0.07523 0.42594 0.59647 0.0
C621 C 0.08334 0.36281 0.59095 0.0
C622 C 0.0465 0.35863 0.59094 0.0
C623 C 0.09772 0.3966 0.5945 0.0
C624 C 0.02498 0.38907 0.5926 0.0
H625 H 0.92183 0.32486 0.60539 0.0
N626 N 0.96881 0.41575 0.59925 0.0
C627 C 0.91547 0.38114 0.60919 0.0
C628 C 0.9885 0.38591 0.59584 0.0
C629 C 0.93278 0.41388 0.60739 0.0
C630 C 0.9353 0.35019 0.60388 0.0
C631 C 0.9723 0.35227 0.59753 0.0
O632 O 0.97196 0.47455 0.67333 0.0
O633 O 0.98612 0.52353 0.55829 0.0
O634 O 0.03814 0.55637 0.54354 0.0
O635 O 0.04967 0.50407 0.59276 0.0
O636 O 0.94639 0.49832 0.60483 0.0
O637 O 0.02933 0.47567 0.66686 0.0
O638 O 0.03653 0.52997 0.39305 0.0
O639 O 0.02293 0.48116 0.50825 0.0
O640 O 0.97204 0.44749 0.52225 0.0
O641 O 0.9595 0.49969 0.47362 0.0
O642 O 0.06246 0.50666 0.46131 0.0
O643 O 0.97928 0.53005 0.39931 0.0
C644 C 0.9548 0.52718 0.57779 0.0
C645 C 1.00233 0.45637 0.75226 0.0
C646 C 0.99899 0.45592 0.8529 0.0
C647 C 0.99764 0.47425 0.80169 0.0
C648 C 1.00541 0.41927 0.8534 0.0
C649 C 0.00855 0.41988 0.75384 0.0
C650 C 0.01013 0.4015 0.80425 0.0
C651 C 0.05496 0.53823 0.5816 0.0
C652 C 1.00109 0.4765 0.69971 0.0
C653 C 0.99353 0.3219 0.59388 0.0
C654 C 0.03058 0.32507 0.59052 0.0
C655 C 0.05434 0.47791 0.48884 0.0
C656 C 1.00679 0.55302 0.31675 0.0
C657 C 1.00131 0.53876 0.26516 0.0
C658 C 0.99956 0.56116 0.21796 0.0
C659 C 1.00406 0.59779 0.2232 0.0
C660 C 0.01109 0.58962 0.32075 0.0
C661 C 0.00987 0.61181 0.27415 0.0
C662 C 0.95489 0.46538 0.48437 0.0
C663 C 0.00746 0.52975 0.36629 0.0
H664 H 0.99335 0.50257 0.80006 0.0
H665 H 1.00616 0.40416 0.89177 0.0
H666 H 0.01224 0.4057 0.7162 0.0
H667 H 0.01488 0.37328 0.80527 0.0
H668 H 0.99763 0.5105 0.26202 0.0
H669 H 1.00323 0.61566 0.18769 0.0
H670 H 0.01532 0.60104 0.3599 0.0
H671 H 0.01329 0.64004 0.27755 0.0
H672 H 0.13102 0.03346 0.44137 0.0
H673 H 0.03762 0.09868 0.46347 0.0
H674 H 0.07106 0.15036 0.42322 0.0
H675 H 0.19521 0.10086 0.47342 0.0
H676 H 0.2281 0.08634 0.42318 0.0
H677 H 0.19671 0.05516 0.45495 0.0
H678 H 0.17739 0.03805 0.35886 0.0
H679 H 0.20846 0.06947 0.32689 0.0
H680 H 0.16219 0.07204 0.31213 0.0
H681 H 0.11546 0.19512 0.37633 0.0
H682 H 0.16672 0.22873 0.33479 0.0
H683 H 0.23147 0.13459 0.34331 0.0
C684 C 0.11772 0.05874 0.43826 0.0
C685 C 0.08171 0.06204 0.45667 0.0
C686 C 0.06524 0.09551 0.45095 0.0
C687 C 0.08406 0.12502 0.42761 0.0
C688 C 0.1195 0.1208 0.40967 0.0
C689 C 0.13623 0.08848 0.41524 0.0
C690 C 0.17452 0.09085 0.393 0.0
C691 C 0.20016 0.08283 0.43886 0.0
C692 C 0.18101 0.06612 0.34487 0.0
C693 C 0.17683 0.12941 0.37361 0.0
C694 C 0.14477 0.14626 0.38328 0.0
C695 C 0.14058 0.18199 0.36868 0.0
C696 C 0.16986 0.20094 0.34452 0.0
C697 C 0.20309 0.18435 0.33452 0.0
C698 C 0.20636 0.14803 0.3496 0.0
H699 H 0.06076 0.89143 0.58992 0.0
H700 H 0.12565 0.98515 0.60404 0.0
H701 H 0.17233 0.94867 0.64468 0.0
H702 H 0.08341 0.85116 0.7186 0.0
H703 H 0.08486 0.80632 0.69591 0.0
H704 H 0.05605 0.83819 0.66436 0.0
H705 H 0.08409 0.82741 0.5689 0.0
H706 H 0.11269 0.79439 0.59778 0.0
H707 H 0.13148 0.83093 0.55685 0.0
H708 H 0.21376 0.90192 0.67759 0.0
H709 H 0.24524 0.84823 0.70882 0.0
H710 H 0.15233 0.78494 0.68252 0.0
C711 C 0.08489 0.9042 0.60134 0.0
C712 C 0.08961 0.94121 0.59349 0.0
C713 C 0.12135 0.95695 0.60967 0.0
C714 C 0.14809 0.93642 0.63273 0.0
C715 C 0.1426 0.90014 0.64022 0.0
C716 C 0.11169 0.88412 0.62554 0.0
C717 C 0.1123 0.84469 0.63962 0.0
C718 C 0.08239 0.83447 0.68216 0.0
C719 C 0.11003 0.82309 0.58768 0.0
C720 C 0.14852 0.84109 0.66388 0.0
C721 C 0.16562 0.87342 0.66325 0.0
C722 C 0.20028 0.87663 0.67975 0.0
C723 C 0.21783 0.8461 0.69799 0.0
C724 C 0.20046 0.81294 0.70116 0.0
C725 C 0.16556 0.81034 0.68291 0.0
H726 H 0.33548 0.81226 0.88865 0.0
H727 H 0.35355 0.84074 0.71596 0.0
H728 H 0.39992 0.88327 0.73944 0.0
H729 H 0.34349 0.89624 0.94007 0.0
H730 H 0.36634 0.88221 1.00017 0.0
H731 H 0.33693 0.85217 0.96918 0.0
H732 H 0.38777 0.80641 0.95975 0.0
H733 H 0.41737 0.83643 0.99076 0.0
H734 H 0.42907 0.81921 0.92443 0.0
H735 H 0.43912 0.92682 0.78273 0.0
H736 H 0.47079 0.96642 0.84232 0.0
H737 H 0.42839 0.90765 0.98601 0.0
C738 C 0.34934 0.8273 0.8557 0.0
C739 C 0.34084 0.82362 0.80054 0.0
C740 C 0.35979 0.8433 0.75847 0.0
C741 C 0.38612 0.8674 0.77142 0.0
C742 C 0.3935 0.87076 0.82642 0.0
C743 C 0.37597 0.85091 0.86781 0.0
C744 C 0.38801 0.86022 0.92374 0.0
C745 C 0.35684 0.87351 0.96041 0.0
C746 C 0.40667 0.82869 0.95128 0.0
C747 C 0.41399 0.88955 0.90757 0.0
C748 C 0.41699 0.89504 0.85123 0.0
C749 C 0.43745 0.92238 0.82678 0.0
C750 C 0.45508 0.94484 0.86088 0.0
C751 C 0.45217 0.93967 0.91856 0.0
C752 C 0.43181 0.91144 0.94209 0.0
H753 H 0.46063 0.0935 0.08351 0.0
H754 H 0.38052 0.0168 0.04682 0.0
H755 H 0.33383 0.05597 0.08419 0.0
H756 H 0.42112 0.11533 0.21204 0.0
H757 H 0.43173 0.16181 0.20782 0.0
H758 H 0.45951 0.13085 0.17135 0.0
H759 H 0.45056 0.16492 0.07842 0.0
H760 H 0.42498 0.19685 0.11662 0.0
H761 H 0.40599 0.17566 0.06002 0.0
H762 H 0.29642 0.10008 0.12895 0.0
H763 H 0.26833 0.14812 0.17887 0.0
H764 H 0.37108 0.19776 0.19437 0.0
C765 C 0.43313 0.08568 0.08177 0.0
C766 C 0.42392 0.05259 0.06056 0.0
C767 C 0.38791 0.04233 0.06162 0.0
C768 C 0.36127 0.06437 0.08291 0.0
C769 C 0.37105 0.0964 0.10436 0.0
C770 C 0.40599 0.10727 0.10414 0.0
C771 C 0.40886 0.1419 0.1341 0.0
C772 C 0.43167 0.13717 0.18431 0.0
C773 C 0.42351 0.17159 0.09493 0.0
C774 C 0.37008 0.14847 0.15129 0.0
C775 C 0.34904 0.1218 0.13303 0.0
C776 C 0.31255 0.12126 0.14314 0.0
C777 C 0.2968 0.14893 0.17176 0.0
C778 C 0.31721 0.17716 0.19065 0.0
C779 C 0.35463 0.17662 0.18077 0.0
H780 H 0.89165 0.9815 0.61429 0.0
H781 H 0.98641 0.91738 0.60056 0.0
H782 H 0.95254 0.86565 0.64011 0.0
H783 H 0.85778 0.94391 0.74303 0.0
H784 H 0.81201 0.94594 0.72531 0.0
H785 H 0.84354 0.97736 0.6946 0.0
H786 H 0.82712 0.95921 0.59742 0.0
H787 H 0.79513 0.92823 0.62808 0.0
H788 H 0.8293 0.91328 0.58027 0.0
H789 H 0.9068 0.82025 0.68336 0.0
H790 H 0.85454 0.78659 0.72209 0.0
H791 H 0.79017 0.88081 0.70885 0.0
C792 C 0.90519 0.95646 0.61917 0.0
C793 C 0.94157 0.95338 0.60292 0.0
C794 C 0.95842 0.92028 0.61115 0.0
C795 C 0.93937 0.89076 0.63409 0.0
C796 C 0.90341 0.89466 0.64933 0.0
C797 C 0.88654 0.92677 0.64192 0.0
C798 C 0.8478 0.92429 0.66173 0.0
C799 C 0.83983 0.94937 0.70897 0.0
C800 C 0.8234 0.93169 0.61404 0.0
C801 C 0.84534 0.88588 0.68172 0.0
C802 C 0.87767 0.86912 0.67438 0.0
C803 C 0.88152 0.83337 0.6894 0.0
C804 C 0.85169 0.81441 0.71192 0.0
C805 C 0.81834 0.83113 0.71998 0.0
C806 C 0.81539 0.86735 0.7042 0.0
H807 H 0.89754 0.04434 0.44712 0.0
H808 H 0.97821 0.12422 0.46629 0.0
H809 H 0.94129 0.16865 0.42058 0.0
H810 H 0.86681 0.07658 0.3158 0.0
H811 H 0.82044 0.06882 0.33316 0.0
H812 H 0.8536 0.04147 0.3641 0.0
H813 H 0.82932 0.05648 0.46102 0.0
H814 H 0.7953 0.08318 0.43118 0.0
H815 H 0.82436 0.10211 0.47885 0.0
H816 H 0.89626 0.20486 0.37318 0.0
H817 H 0.8428 0.23217 0.33627 0.0
H818 H 0.78797 0.13141 0.35365 0.0
C819 C 0.9075 0.0711 0.44104 0.0
C820 C 0.94108 0.08061 0.45956 0.0
C821 C 0.9528 0.11613 0.45212 0.0
C822 C 0.93204 0.14163 0.42598 0.0
C823 C 0.89915 0.13154 0.40822 0.0
C824 C 0.88657 0.09733 0.41615 0.0
C825 C 0.84896 0.09449 0.39695 0.0
C826 C 0.84736 0.06882 0.34968 0.0
C827 C 0.82295 0.08341 0.44486 0.0
C828 C 0.8425 0.1324 0.37727 0.0
C829 C 0.87215 0.15308 0.38328 0.0
C830 C 0.8729 0.18892 0.36817 0.0
C831 C 0.84244 0.2042 0.3469 0.0
C832 C 0.81149 0.18379 0.34101 0.0
C833 C 0.81148 0.14747 0.35698 0.0
H834 H 0.70853 0.14718 0.19028 0.0
H835 H 0.6439 0.24086 0.21388 0.0
H836 H 0.59523 0.21317 0.16742 0.0
H837 H 0.67796 0.12527 0.05744 0.0
H838 H 0.67727 0.07828 0.07223 0.0
H839 H 0.7081 0.10604 0.10509 0.0
H840 H 0.68366 0.08228 0.20033 0.0
H841 H 0.65268 0.05454 0.16776 0.0
H842 H 0.63684 0.08545 0.21783 0.0
H843 H 0.55438 0.1768 0.11706 0.0
H844 H 0.5212 0.13117 0.07113 0.0
H845 H 0.60989 0.05896 0.08565 0.0
C846 C 0.68421 0.16183 0.18514 0.0
C847 C 0.67999 0.19617 0.20505 0.0
C848 C 0.64765 0.21449 0.19868 0.0
C849 C 0.61987 0.19907 0.1723 0.0
C850 C 0.62471 0.16514 0.15331 0.0
C851 C 0.6558 0.1465 0.15983 0.0
C852 C 0.65319 0.10974 0.13775 0.0
C853 C 0.68077 0.10454 0.0903 0.0
C854 C 0.6568 0.08133 0.18367 0.0
C855 C 0.61588 0.11086 0.11766 0.0
C856 C 0.60016 0.14325 0.12653 0.0
C857 C 0.5662 0.1512 0.11018 0.0
C858 C 0.54765 0.12519 0.08409 0.0
C859 C 0.56301 0.09161 0.07544 0.0
C860 C 0.59746 0.08431 0.09256 0.0
H861 H 0.64775 0.82521 0.8434 0.0
H862 H 0.7493 0.87415 0.87045 0.0
H863 H 0.71878 0.92576 0.90798 0.0
H864 H 0.60136 0.90594 0.80555 0.0
H865 H 0.56021 0.89313 0.84133 0.0
H866 H 0.5898 0.85984 0.81475 0.0
H867 H 0.58923 0.83022 0.90999 0.0
H868 H 0.56231 0.86418 0.9411 0.0
H869 H 0.60531 0.85368 0.96655 0.0
H870 H 0.67857 0.97405 0.93592 0.0
H871 H 0.62976 0.01492 0.96015 0.0
H872 H 0.55292 0.93441 0.92588 0.0
C873 C 0.6635 0.84689 0.857 0.0
C874 C 0.70112 0.84545 0.85368 0.0
C875 C 0.72063 0.87429 0.87254 0.0
C876 C 0.70349 0.90392 0.89394 0.0
C877 C 0.66662 0.90447 0.89704 0.0
C878 C 0.64669 0.87677 0.87946 0.0
C879 C 0.60726 0.88422 0.88899 0.0
C880 C 0.58856 0.88589 0.8344 0.0
C881 C 0.58993 0.85645 0.92906 0.0
C882 C 0.60838 0.92045 0.91431 0.0
C883 C 0.64304 0.93167 0.91765 0.0
C884 C 0.65132 0.96533 0.93472 0.0
C885 C 0.62349 0.98835 0.94844 0.0
C886 C 0.58778 0.97734 0.94691 0.0
C887 C 0.58007 0.94286 0.92975 0.0
H888 H 0.63134 0.5399 0.95825 0.0
H889 H 0.53695 0.60388 0.9787 0.0
H890 H 0.57103 0.65672 0.94322 0.0
H891 H 0.69412 0.6065 0.99792 0.0
H892 H 0.72811 0.5928 0.94881 0.0
H893 H 0.69601 0.56121 0.97746 0.0
H894 H 0.67939 0.54604 0.87928 0.0
H895 H 0.71077 0.57816 0.85015 0.0
H896 H 0.66485 0.58077 0.8333 0.0
H897 H 0.61697 0.70291 0.8998 0.0
H898 H 0.66928 0.73688 0.86118 0.0
H899 H 0.73317 0.64212 0.87065 0.0
C900 C 0.61788 0.56513 0.9558 0.0
C901 C 0.58147 0.56772 0.97223 0.0
C902 C 0.56489 0.60122 0.96757 0.0
C903 C 0.58409 0.63137 0.947 0.0
C904 C 0.61999 0.62778 0.93083 0.0
C905 C 0.63669 0.59539 0.93566 0.0
C906 C 0.67538 0.59812 0.91573 0.0
C907 C 0.69986 0.58913 0.96277 0.0
C908 C 0.68304 0.57436 0.86671 0.0
C909 C 0.67808 0.63697 0.89832 0.0
C910 C 0.64588 0.65379 0.90695 0.0
C911 C 0.64219 0.68978 0.89317 0.0
C912 C 0.67203 0.70891 0.87076 0.0
C913 C 0.70531 0.69214 0.86183 0.0
C914 C 0.70808 0.6557 0.87634 0.0
H915 H 0.67818 0.29173 0.16337 0.0
H916 H 0.73941 0.36357 0.25516 0.0
H917 H 0.6965 0.4111 0.23755 0.0
H918 H 0.66192 0.35445 0.05786 0.0
H919 H 0.61791 0.33931 0.04499 0.0
H920 H 0.64965 0.30893 0.07257 0.0
H921 H 0.60574 0.29357 0.15462 0.0
H922 H 0.57387 0.32402 0.12717 0.0
H923 H 0.58799 0.32849 0.19609 0.0
H924 H 0.64837 0.45028 0.21064 0.0
H925 H 0.60267 0.4835 0.16482 0.0
H926 H 0.57467 0.39023 0.07666 0.0
C927 C 0.68136 0.31707 0.18187 0.0
C928 C 0.71062 0.32343 0.21453 0.0
C929 C 0.71612 0.35771 0.23322 0.0
C930 C 0.69191 0.38486 0.22307 0.0
C931 C 0.66299 0.37768 0.19183 0.0
C932 C 0.65781 0.3449 0.17046 0.0
C933 C 0.62723 0.34607 0.13177 0.0
C934 C 0.63996 0.33664 0.07334 0.0
C935 C 0.5969 0.32158 0.15373 0.0
C936 C 0.61648 0.38481 0.13436 0.0
C937 C 0.6371 0.40195 0.17054 0.0
C938 C 0.63234 0.43733 0.18165 0.0
C939 C 0.60619 0.45609 0.15472 0.0
C940 C 0.58538 0.44007 0.11532 0.0
C941 C 0.5905 0.40361 0.10543 0.0
H942 H 0.94651 0.39355 0.47782 0.0
H943 H 0.90641 0.49428 0.41663 0.0
H944 H 0.8659 0.46293 0.3589 0.0
H945 H 0.94373 0.34872 0.34942 0.0
H946 H 0.93004 0.30699 0.38144 0.0
H947 H 0.95652 0.33718 0.4179 0.0
H948 H 0.90933 0.33599 0.49776 0.0
H949 H 0.88216 0.30621 0.46202 0.0
H950 H 0.86406 0.34753 0.485 0.0
H951 H 0.82895 0.4215 0.30975 0.0
H952 H 0.79614 0.37154 0.27387 0.0
H953 H 0.86013 0.29752 0.365 0.0
C954 C 0.92909 0.40903 0.45251 0.0
C955 C 0.92957 0.44639 0.45185 0.0
C956 C 0.90657 0.46566 0.4178 0.0
C957 C 0.88351 0.44811 0.38472 0.0
C958 C 0.88394 0.41135 0.38591 0.0
C959 C 0.90603 0.39195 0.41888 0.0
C960 C 0.90081 0.3526 0.41275 0.0
C961 C 0.9348 0.33537 0.38895 0.0
C962 C 0.88831 0.33454 0.46765 0.0
C963 C 0.87183 0.35301 0.37198 0.0
C964 C 0.86272 0.38723 0.35685 0.0
C965 C 0.83585 0.39458 0.32115 0.0
C966 C 0.81722 0.36617 0.30125 0.0
C967 C 0.82564 0.33111 0.31711 0.0
C968 C 0.85365 0.3243 0.35201 0.0
H969 H 0.79747 0.65109 0.69238 0.0
H970 H 0.87972 0.72561 0.72973 0.0
H971 H 0.92461 0.68861 0.68367 0.0
H972 H 0.84839 0.57419 0.71944 0.0
H973 H 0.83135 0.54888 0.66524 0.0
H974 H 0.80462 0.583 0.6959 0.0
H975 H 0.79789 0.61294 0.60005 0.0
H976 H 0.82491 0.57906 0.56901 0.0
H977 H 0.83701 0.62493 0.55829 0.0
H978 H 0.96154 0.64307 0.63638 0.0
H979 H 0.98836 0.58901 0.59911 0.0
H980 H 0.88408 0.54128 0.5957 0.0
C981 C 0.82485 0.6598 0.69009 0.0
C982 C 0.83485 0.69154 0.71441 0.0
C983 C 0.87116 0.70157 0.71147 0.0
C984 C 0.89699 0.68077 0.68504 0.0
C985 C 0.88643 0.64962 0.66185 0.0
C986 C 0.85133 0.63888 0.66448 0.0
C987 C 0.84781 0.60273 0.63986 0.0
C988 C 0.83212 0.5756 0.68267 0.0
C989 C 0.82558 0.60506 0.58877 0.0
C990 C 0.88641 0.59464 0.62438 0.0
C991 C 0.90809 0.62248 0.63628 0.0
C992 C 0.94479 0.62118 0.62654 0.0
C993 C 0.95983 0.5904 0.60498 0.0
C994 C 0.9383 0.5612 0.59343 0.0
C995 C 0.90109 0.56346 0.60335 0.0
H996 H 0.35103 0.30301 0.19662 0.0
H997 H 0.2654 0.37929 0.20703 0.0
H998 H 0.30609 0.42638 0.17229 0.0
H999 H 0.4231 0.36529 0.23614 0.0
H1000 H 0.45534 0.34682 0.18876 0.0
H1001 H 0.41996 0.31934 0.21815 0.0
H1002 H 0.40399 0.30401 0.12147 0.0
H1003 H 0.4377 0.33326 0.09128 0.0
H1004 H 0.392 0.33855 0.07361 0.0
H1005 H 0.35383 0.46546 0.13126 0.0
H1006 H 0.40889 0.49601 0.09744 0.0
H1007 H 0.46711 0.39803 0.11578 0.0
C1008 C 0.34118 0.32979 0.19286 0.0
C1009 C 0.30467 0.33728 0.20522 0.0
C1010 C 0.29297 0.37267 0.19821 0.0
C1011 C 0.31596 0.39977 0.17828 0.0
C1012 C 0.35124 0.39166 0.16524 0.0
C1013 C 0.36427 0.3578 0.17329 0.0
C1014 C 0.40364 0.35701 0.15476 0.0
C1015 C 0.42683 0.34648 0.20244 0.0
C1016 C 0.40971 0.33175 0.10736 0.0
C1017 C 0.41039 0.39559 0.13596 0.0
C1018 C 0.37943 0.41478 0.1417 0.0
C1019 C 0.3783 0.45073 0.12692 0.0
C1020 C 0.40971 0.46792 0.1074 0.0
C1021 C 0.44226 0.44952 0.10316 0.0
C1022 C 0.44252 0.41273 0.11777 0.0
H1023 H 0.40312 0.54372 0.92619 0.0
H1024 H 0.472 0.62378 0.98755 0.0
H1025 H 0.43587 0.67043 0.94619 0.0
H1026 H 0.38587 0.59079 0.79655 0.0
H1027 H 0.33978 0.57821 0.79658 0.0
H1028 H 0.37131 0.54946 0.82876 0.0
H1029 H 0.33443 0.54936 0.92039 0.0
H1030 H 0.30197 0.57718 0.88882 0.0
H1031 H 0.32212 0.5908 0.95017 0.0
H1032 H 0.39135 0.70884 0.90392 0.0
H1033 H 0.33973 0.73712 0.86249 0.0
H1034 H 0.2982 0.63412 0.82632 0.0
C1035 C 0.41067 0.57108 0.93033 0.0
C1036 C 0.44021 0.58004 0.96081 0.0
C1037 C 0.44914 0.61616 0.96554 0.0
C1038 C 0.42895 0.64296 0.94167 0.0
C1039 C 0.39977 0.63344 0.91278 0.0
C1040 C 0.39047 0.59848 0.90686 0.0
C1041 C 0.35669 0.59604 0.87558 0.0
C1042 C 0.36383 0.57753 0.82112 0.0
C1043 C 0.32705 0.57723 0.91086 0.0
C1044 C 0.34834 0.63502 0.86588 0.0
C1045 C 0.37387 0.656 0.88738 0.0
C1046 C 0.37149 0.69276 0.88608 0.0
C1047 C 0.34219 0.70861 0.86232 0.0
C1048 C 0.31578 0.68781 0.83968 0.0
C1049 C 0.3187 0.65053 0.8419 0.0
H1050 H 0.15845 0.70368 0.69059 0.0
H1051 H 0.21519 0.62956 0.79281 0.0
H1052 H 0.17861 0.58039 0.76153 0.0
H1053 H 0.0706 0.66078 0.70195 0.0
H1054 H 0.06253 0.66985 0.6307 0.0
H1055 H 0.08986 0.69939 0.66688 0.0
H1056 H 0.14111 0.6918 0.59333 0.0
H1057 H 0.11362 0.66242 0.55745 0.0
H1058 H 0.15652 0.64794 0.57824 0.0
H1059 H 0.13926 0.5396 0.71475 0.0
H1060 H 0.09871 0.5088 0.65654 0.0
H1061 H 0.069 0.60953 0.58119 0.0
C1062 C 0.16209 0.67719 0.70762 0.0
C1063 C 0.18847 0.67 0.74514 0.0
C1064 C 0.19422 0.63516 0.76502 0.0
C1065 C 0.17378 0.60727 0.74732 0.0
C1066 C 0.14831 0.61495 0.70922 0.0
C1067 C 0.14235 0.64902 0.68961 0.0
C1068 C 0.11572 0.64965 0.64523 0.0
C1069 C 0.08271 0.67119 0.66225 0.0
C1070 C 0.13279 0.66379 0.59033 0.0
C1071 C 0.10736 0.61063 0.64336 0.0
C1072 C 0.12648 0.59115 0.68058 0.0
C1073 C 0.12394 0.55453 0.68567 0.0
C1074 C 0.10086 0.5373 0.65225 0.0
C1075 C 0.08065 0.55672 0.61416 0.0
C1076 C 0.08418 0.59388 0.60961 0.0
H1077 H 0.21685 0.36236 0.3732 0.0
H1078 H 0.13784 0.28503 0.33347 0.0
H1079 H 0.09171 0.31854 0.38295 0.0
H1080 H 0.17665 0.38472 0.50994 0.0
H1081 H 0.18661 0.43115 0.50025 0.0
H1082 H 0.21506 0.39883 0.46809 0.0
H1083 H 0.2066 0.42948 0.37312 0.0
H1084 H 0.17836 0.46193 0.40501 0.0
H1085 H 0.16235 0.43642 0.35024 0.0
H1086 H 0.05285 0.36144 0.43229 0.0
H1087 H 0.02343 0.41437 0.46926 0.0
H1088 H 0.12546 0.46662 0.47342 0.0
C1089 C 0.18997 0.3522 0.37594 0.0
C1090 C 0.18126 0.32067 0.35 0.0
C1091 C 0.14549 0.30883 0.35328 0.0
C1092 C 0.11893 0.32764 0.38161 0.0
C1093 C 0.12819 0.35866 0.40635 0.0
C1094 C 0.16272 0.37117 0.40341 0.0
C1095 C 0.16458 0.40713 0.42902 0.0
C1096 C 0.18707 0.40534 0.47984 0.0
C1097 C 0.1788 0.43541 0.38682 0.0
C1098 C 0.12568 0.41316 0.44509 0.0
C1099 C 0.10532 0.38439 0.43295 0.0
C1100 C 0.06856 0.38401 0.44249 0.0
C1101 C 0.05204 0.41413 0.46387 0.0
C1102 C 0.07222 0.44429 0.47529 0.0
C1103 C 0.10952 0.44362 0.46598 0.0
H1104 H 0.0527 0.0548 0.94233 0.0
H1105 H 0.96035 0.01141 0.86884 0.0
H1106 H 0.94129 0.9833 0.95794 0.0
H1107 H 0.06995 0.98036 0.03007 0.0
H1108 H 0.08308 0.00609 0.0865 0.0
H1109 H 0.08914 0.02367 1.01726 0.0
H1110 H 0.05263 0.07904 0.04349 0.0
H1111 H 0.04643 0.0616 0.11286 0.0
H1112 H 0.00849 0.07362 0.07424 0.0
H1113 H 0.93293 0.95849 0.05384 0.0
H1114 H 0.93605 0.93818 0.15055 0.0
H1115 H 0.03301 0.99839 0.16338 0.0
C1116 C 0.02823 0.03977 0.94508 0.0
C1117 C 0.00813 0.03524 0.89828 0.0
C1118 C 0.97655 0.01485 0.90369 0.0
C1119 C 0.96532 0.99899 0.95429 0.0
C1120 C 0.98581 1.00385 0.99939 0.0
C1121 C 0.01656 0.02378 0.99541 0.0
C1122 C 0.03407 0.02413 0.05008 0.0
C1123 C 0.07125 0.00757 0.0457 0.0
C1124 C 0.03548 0.06185 0.07142 0.0
C1125 C 0.00849 1.00103 0.08524 0.0
C1126 C 0.98081 0.98972 0.0551 0.0
C1127 C 0.9544 0.96729 0.07791 0.0
C1128 C 0.95647 0.95578 0.13281 0.0
C1129 C 0.98475 0.96667 0.1645 0.0
C1130 C 0.01085 0.98998 0.1404 0.0
H1131 H 0.29676 0.71102 0.36369 0.0
H1132 H 0.29767 0.81752 0.42478 0.0
H1133 H 0.27477 0.84029 0.33764 0.0
H1134 H 0.32698 0.73558 0.22473 0.0
H1135 H 0.29968 0.70322 0.19423 0.0
H1136 H 0.31529 0.69498 0.26202 0.0
H1137 H 0.25063 0.68529 0.30002 0.0
H1138 H 0.23482 0.69341 0.23235 0.0
H1139 H 0.21806 0.71922 0.28858 0.0
H1140 H 0.25079 0.85156 0.24429 0.0
H1141 H 0.22817 0.85046 0.15102 0.0
H1142 H 0.24626 0.73742 0.14798 0.0
C1143 C 0.29258 0.73922 0.35878 0.0
C1144 C 0.29901 0.76236 0.40175 0.0
C1145 C 0.29241 0.799 0.39334 0.0
C1146 C 0.27967 0.81229 0.34364 0.0
C1147 C 0.27389 0.78875 0.30229 0.0
C1148 C 0.28024 0.753 0.30921 0.0
C1149 C 0.272 0.73338 0.25811 0.0
C1150 C 0.30549 0.71576 0.23331 0.0
C1151 C 0.2421 0.70622 0.27052 0.0
C1152 C 0.25987 0.76369 0.22138 0.0
C1153 C 0.26103 0.79538 0.24783 0.0
C1154 C 0.24998 0.82693 0.2231 0.0
C1155 C 0.23713 0.82606 0.17021 0.0
C1156 C 0.23566 0.79393 0.14227 0.0
C1157 C 0.24757 0.76242 0.1681 0.0
H1158 H 0.52942 0.03005 0.63356 0.0
H1159 H 0.43033 0.08661 0.61771 0.0
H1160 H 0.42665 0.06615 0.52326 0.0
H1161 H 0.56399 0.04952 0.49752 0.0
H1162 H 0.5846 0.00703 0.4886 0.0
H1163 H 0.57864 0.02435 0.55618 0.0
H1164 H 0.54429 0.96774 0.58952 0.0
H1165 H 0.55028 0.95017 0.52205 0.0
H1166 H 0.50632 0.95404 0.55345 0.0
H1167 H 0.43434 0.04112 0.42985 0.0
H1168 H 0.45271 0.01291 0.34359 0.0
H1169 H 0.54788 0.97377 0.41812 0.0
C1170 C 0.50671 0.03764 0.61043 0.0
C1171 C 0.48013 0.05995 0.63301 0.0
C1172 C 0.45111 0.06979 0.60111 0.0
C1173 C 0.44873 0.05819 0.5475 0.0
C1174 C 0.4756 0.03675 0.5261 0.0
C1175 C 0.50404 0.02649 0.55648 0.0
C1176 C 0.52991 1.00431 0.52281 0.0
C1177 C 0.56644 0.0224 0.51587 0.0
C1178 C 0.53286 0.96684 0.54849 0.0
C1179 C 0.51164 1.0039 0.4688 0.0
C1180 C 0.48029 0.02267 0.47174 0.0
C1181 C 0.45887 0.02638 0.42702 0.0
C1182 C 0.46973 0.01048 0.37795 0.0
C1183 C 0.50188 0.99118 0.37359 0.0
C1184 C 0.52297 0.98793 0.41999 0.0
H1185 H 0.21141 0.30086 0.86993 0.0
H1186 H 0.23927 0.19311 0.91513 0.0
H1187 H 0.26655 0.1854 0.82184 0.0
H1188 H 0.19087 0.28685 0.73034 0.0
H1189 H 0.21057 0.32783 0.7043 0.0
H1190 H 0.19246 0.32431 0.77384 0.0
H1191 H 0.25277 0.34396 0.80939 0.0
H1192 H 0.27103 0.34765 0.73995 0.0
H1193 H 0.29243 0.32002 0.78997 0.0
H1194 H 0.28866 0.18917 0.72217 0.0
H1195 H 0.30909 0.20593 0.62664 0.0
H1196 H 0.2705 0.3124 0.64953 0.0
C1197 C 0.22317 0.27564 0.8599 0.0
C1198 C 0.22308 0.2474 0.89909 0.0
C1199 C 0.23913 0.21493 0.88528 0.0
C1200 C 0.25453 0.21034 0.83252 0.0
C1201 C 0.25406 0.2387 0.79456 0.0
C1202 C 0.23923 0.27088 0.80788 0.0
C1203 C 0.24349 0.29762 0.76051 0.0
C1204 C 0.20718 0.30986 0.74111 0.0
C1205 C 0.26629 0.32917 0.77589 0.0
C1206 C 0.26275 0.27541 0.71822 0.0
C1207 C 0.26827 0.24137 0.73837 0.0
C1208 C 0.28473 0.2158 0.70614 0.0
C1209 C 0.29613 0.22543 0.6521 0.0
C1210 C 0.29142 0.26036 0.63146 0.0
C1211 C 0.27452 0.28557 0.66485 0.0
H1212 H 0.77624 0.26434 0.90732 0.0
H1213 H 0.81806 0.1588 0.88445 0.0
H1214 H 0.79856 0.16067 0.78942 0.0
H1215 H 0.69843 0.2544 0.82596 0.0
H1216 H 0.70096 0.29902 0.7978 0.0
H1217 H 0.71708 0.28895 0.86478 0.0
H1218 H 0.77833 0.31555 0.8336 0.0
H1219 H 0.76245 0.32557 0.7665 0.0
H1220 H 0.80168 0.29901 0.77367 0.0
H1221 H 0.77604 0.17437 0.69626 0.0
H1222 H 0.75119 0.19871 0.61142 0.0
H1223 H 0.7245 0.29578 0.69367 0.0
C1224 C 0.78082 0.24145 0.88253 0.0
C1225 C 0.79877 0.21143 0.90332 0.0
C1226 C 0.80473 0.18223 0.86926 0.0
C1227 C 0.79361 0.18297 0.81529 0.0
C1228 C 0.77649 0.2131 0.79581 0.0
C1229 C 0.77 0.2418 0.82834 0.0
C1230 C 0.75185 0.27126 0.79674 0.0
C1231 C 0.71489 0.27884 0.82288 0.0
C1232 C 0.77497 0.30483 0.79237 0.0
C1233 C 0.74929 0.25466 0.74139 0.0
C1234 C 0.76363 0.22109 0.74183 0.0
C1235 C 0.76475 0.20065 0.69541 0.0
C1236 C 0.7508 0.21483 0.64723 0.0
C1237 C 0.73596 0.24923 0.64559 0.0
C1238 C 0.73525 0.26927 0.69359 0.0
H1239 H 0.70061 0.77711 0.37856 0.0
H1240 H 0.77826 0.70844 0.45301 0.0
H1241 H 0.81107 0.70498 0.3636 0.0
H1242 H 0.70024 0.73304 0.24788 0.0
H1243 H 0.69574 0.77372 0.2083 0.0
H1244 H 0.67766 0.77017 0.2779 0.0
H1245 H 0.7139 0.82515 0.30229 0.0
H1246 H 0.73204 0.82888 0.2328 0.0
H1247 H 0.7613 0.82561 0.28893 0.0
H1248 H 0.83684 0.71073 0.26747 0.0
H1249 H 0.85382 0.72527 0.17039 0.0
H1250 H 0.75883 0.78875 0.15677 0.0
C1251 C 0.72424 0.76094 0.37595 0.0
C1252 C 0.73689 0.74314 0.42307 0.0
C1253 C 0.76828 0.72275 0.41785 0.0
C1254 C 0.78698 0.72039 0.36711 0.0
C1255 C 0.77392 0.73841 0.3217 0.0
C1256 C 0.74323 0.75822 0.32549 0.0
C1257 C 0.73549 0.77572 0.27052 0.0
C1258 C 0.70019 0.76235 0.24994 0.0
C1259 C 0.73571 0.81624 0.27386 0.0
C1260 C 0.76678 0.76285 0.23538 0.0
C1261 C 0.78858 0.74134 0.26581 0.0
C1262 C 0.81986 0.72734 0.24314 0.0
C1263 C 0.82934 0.73583 0.18807 0.0
C1264 C 0.80759 0.758 0.15612 0.0
C1265 C 0.77567 0.7713 0.18004 0.0
H1266 H 0.45833 0.44886 0.64281 0.0
H1267 H 0.55556 0.50494 0.67125 0.0
H1268 H 0.55611 0.53072 0.57649 0.0
H1269 H 0.47825 0.42909 0.50091 0.0
H1270 H 0.43338 0.43626 0.48104 0.0
H1271 H 0.44166 0.42126 0.55002 0.0
H1272 H 0.40641 0.47451 0.58833 0.0
H1273 H 0.39787 0.48957 0.51954 0.0
H1274 H 0.41878 0.51874 0.56515 0.0
H1275 H 0.54598 0.5496 0.47706 0.0
H1276 H 0.52288 0.56459 0.3857 0.0
H1277 H 0.43108 0.49804 0.42518 0.0
C1278 C 0.47988 0.46636 0.6289 0.0
C1279 C 0.50708 0.47473 0.66409 0.0
C1280 C 0.53446 0.49827 0.64487 0.0
C1281 C 0.53507 0.51283 0.59108 0.0
C1282 C 0.50791 0.50385 0.55726 0.0
C1283 C 0.48061 0.48145 0.57575 0.0
C1284 C 0.45364 0.47729 0.53248 0.0
C1285 C 0.45163 0.43868 0.51509 0.0
C1286 C 0.41702 0.49085 0.55258 0.0
C1287 C 0.46987 0.50094 0.48674 0.0
C1288 C 0.50144 0.51567 0.50136 0.0
C1289 C 0.52124 0.53828 0.46532 0.0
C1290 C 0.50807 0.54651 0.4135 0.0
C1291 C 0.4752 0.53259 0.39866 0.0
C1292 C 0.45619 0.50924 0.43567 0.0
H1293 H 0.03288 0.44567 0.95044 0.0
H1294 H 0.95132 0.50891 0.87495 0.0
H1295 H 0.94149 0.5407 0.96073 0.0
H1296 H 0.98832 0.4375 0.08616 0.0
H1297 H 0.02886 0.44051 0.12186 0.0
H1298 H 0.02941 0.42218 0.05468 0.0
H1299 H 0.07732 0.46772 1.02004 0.0
H1300 H 0.07697 0.48612 0.08709 0.0
H1301 H 0.06903 0.51423 0.0279 0.0
H1302 H 0.94124 0.56678 0.05349 0.0
H1303 H 0.95111 0.58597 0.1471 0.0
H1304 H 0.03162 0.50522 0.16483 0.0
C1305 C 0.01265 0.46592 0.95204 0.0
C1306 C 0.99301 0.47481 0.90542 0.0
C1307 C 0.9672 0.50192 0.90943 0.0
C1308 C 0.96117 0.51997 0.95825 0.0
C1309 C 0.981 0.5106 1.00316 0.0
C1310 C 1.00619 0.4842 1.00065 0.0
C1311 C 0.02428 0.47984 0.05477 0.0
C1312 C 0.01729 0.44281 0.0809 0.0
C1313 C 0.06427 0.48744 0.04696 0.0
C1314 C 1.00551 0.50814 0.08788 0.0
C1315 C 0.98059 0.52546 0.0572 0.0
C1316 C 0.96058 0.55332 0.07795 0.0
C1317 C 0.96645 0.56411 0.13113 0.0
C1318 C 0.99211 0.54714 0.16332 0.0
C1319 C 0.01153 0.51841 0.14149 0.0
loop_
_geom_bond_atom_site_label_1
_geom_bond_atom_site_label_2
_geom_bond_distance
_geom_bond_site_symmetry_2
_ccdc_geom_bond_type
Eu0 N31 2.647 1_455 S
Eu0 N38 2.609 1_455 S
Eu0 O44 2.564 . S
Eu0 O45 2.616 1_565 S
Eu0 O47 2.331 1_465 S
Eu0 O48 2.571 1_565 S
Eu0 O49 2.417 1_455 S
Eu0 O51 2.376 1_455 S
Eu0 O52 2.440 . S
Eu0 C64 2.849 . S
C1 C4 1.429 . S
C1 C5 1.411 . S
C1 N8 1.377 . S
C2 C4 1.420 . S
C2 C6 1.423 . S
C2 C14 1.392 . S
C3 C5 1.420 . S
C3 C6 1.351 . S
C3 H26 0.931 . S
C4 C1 1.429 . S
C4 C2 1.420 . S
C4 N12 1.362 . S
C5 C1 1.411 . S
C5 C3 1.420 . S
C5 C10 1.395 . S
C6 C2 1.423 . S
C6 C3 1.351 . S
C6 H18 0.930 . S
C7 C9 1.400 . S
C7 C10 1.386 1_655 S
C7 H19 0.930 . S
N8 C1 1.377 . S
N8 C9 1.321 1_455 S
N8 Eu11 2.609 1_455 S
C9 C7 1.400 . S
C9 N8 1.321 1_655 S
C9 H16 0.930 . S
C10 C5 1.395 . S
C10 C7 1.386 1_455 S
C10 H29 0.931 . S
Eu11 N8 2.609 1_655 S
Eu11 N12 2.654 1_655 S
Eu11 O45 2.379 1_655 S
Eu11 O46 2.434 . S
Eu11 O50 2.560 . S
Eu11 O51 2.613 1_545 S
Eu11 O53 2.336 1_645 S
Eu11 O54 2.566 1_545 S
Eu11 O55 2.418 1_655 S
Eu11 C75 2.848 . S
N12 C4 1.362 . S
N12 Eu11 2.654 1_455 S
N12 C13 1.334 . S
C13 N12 1.334 . S
C13 C15 1.413 . S
C13 H20 0.929 . S
C14 C2 1.392 . S
C14 C15 1.367 . S
C14 H22 0.930 . S
C15 C13 1.413 . S
C15 C14 1.367 . S
C15 H17 0.930 . S
H16 C9 0.930 . S
H17 C15 0.930 . S
H18 C6 0.930 . S
H19 C7 0.930 . S
H20 C13 0.929 . S
H21 C35 0.930 . S
H22 C14 0.930 . S
H23 C41 0.930 . S
H24 C32 0.929 . S
H25 C39 0.930 . S
H26 C3 0.931 . S
H27 C33 0.930 . S
H28 C66 0.930 . S
H29 C10 0.931 . S
H30 C65 0.931 . S
N31 Eu0 2.647 1_655 S
N31 C32 1.334 . S
N31 C36 1.362 . S
C32 H24 0.929 . S
C32 N31 1.334 . S
C32 C35 1.413 . S
C33 H27 0.930 . S
C33 C34 1.392 . S
C33 C35 1.367 . S
C34 C33 1.392 . S
C34 C36 1.420 . S
C34 C66 1.423 . S
C35 H21 0.930 . S
C35 C32 1.413 . S
C35 C33 1.367 . S
C36 N31 1.362 . S
C36 C34 1.420 . S
C36 C40 1.429 . S
H37 C42 0.930 . S
N38 Eu0 2.609 1_655 S
N38 C40 1.377 . S
N38 C41 1.321 1_655 S
C39 H25 0.930 . S
C39 C41 1.400 . S
C39 C42 1.386 1_455 S
C40 C36 1.429 . S
C40 N38 1.377 . S
C40 C43 1.411 . S
C41 H23 0.930 . S
C41 N38 1.321 1_455 S
C41 C39 1.400 . S
C42 H37 0.930 . S
C42 C39 1.386 1_655 S
C42 C43 1.395 . S
C43 C40 1.411 . S
C43 C42 1.395 . S
C43 C65 1.420 . S
O44 Eu0 2.564 . S
O44 C64 1.257 . S
O45 Eu0 2.616 1_545 S
O45 Eu11 2.379 1_455 S
O45 C56 1.276 . S
O46 Eu11 2.434 . S
O46 C63 1.264 . S
O47 Eu0 2.331 1_645 S
O47 C63 1.254 . S
O48 Eu0 2.571 1_545 S
O48 C56 1.235 . S
O49 Eu0 2.417 1_655 S
O49 C64 1.249 1_655 S
O50 Eu11 2.560 . S
O50 C75 1.257 . S
O51 Eu0 2.376 1_655 S
O51 Eu11 2.613 1_565 S
O51 C67 1.276 . S
O52 Eu0 2.440 . S
O52 C74 1.264 . S
O53 Eu11 2.336 1_465 S
O53 C74 1.254 . S
O54 Eu11 2.566 1_565 S
O54 C67 1.235 . S
O55 Eu11 2.418 1_455 S
O55 C75 1.249 1_455 S
C56 O45 1.276 . S
C56 O48 1.235 . S
C57 C59 1.393 . S
C57 C61 1.395 . S
C57 C64 1.492 . S
C58 C59 1.392 . S
C58 C60 1.386 . S
C59 C57 1.393 . S
C59 C58 1.392 . S
C59 H76 0.930 1_465 S
C60 C58 1.386 . S
C60 C62 1.395 . S
C60 H77 0.930 . S
C61 C57 1.395 . S
C61 C62 1.379 . S
C61 H78 0.930 . S
C62 C60 1.395 . S
C62 C61 1.379 . S
C62 H79 0.930 . S
C63 O46 1.264 . S
C63 O47 1.254 . S
C64 Eu0 2.849 . S
C64 O44 1.257 . S
C64 O49 1.249 1_455 S
C64 C57 1.492 . S
C65 H30 0.931 . S
C65 C43 1.420 . S
C65 C66 1.351 . S
C66 H28 0.930 . S
C66 C34 1.423 . S
C66 C65 1.351 . S
C67 O51 1.276 . S
C67 O54 1.235 . S
C68 C69 1.393 . S
C68 C72 1.395 . S
C68 C75 1.492 . S
C69 C68 1.393 . S
C69 C70 1.392 . S
C69 H80 0.930 1_645 S
C70 C69 1.392 . S
C70 C71 1.386 . S
C71 C70 1.386 . S
C71 C73 1.395 . S
C71 H81 0.930 . S
C72 C68 1.395 . S
C72 C73 1.379 . S
C72 H82 0.930 . S
C73 C71 1.395 . S
C73 C72 1.379 . S
C73 H83 0.930 . S
C74 O52 1.264 . S
C74 O53 1.254 . S
C75 Eu11 2.848 . S
C75 O50 1.257 . S
C75 O55 1.249 1_655 S
C75 C68 1.492 . S
H76 C59 0.930 1_645 S
H77 C60 0.930 . S
H78 C61 0.930 . S
H79 C62 0.930 . S
H80 C69 0.930 1_465 S
H81 C71 0.930 . S
H82 C72 0.930 . S
H83 C73 0.930 . S
Eu84 N115 2.657 . S
Eu84 N122 2.609 . S
Eu84 O128 2.558 . S
Eu84 O129 2.612 . S
Eu84 O131 2.339 . S
Eu84 O132 2.563 . S
Eu84 O133 2.419 . S
Eu84 O135 2.380 . S
Eu84 O136 2.432 . S
Eu84 C148 2.848 . S
C85 C88 1.429 . S
C85 C89 1.411 . S
C85 N92 1.377 . S
C86 C88 1.420 . S
C86 C90 1.423 . S
C86 C98 1.392 . S
C87 C89 1.420 . S
C87 C90 1.351 . S
C87 H110 0.931 . S
C88 C85 1.429 . S
C88 C86 1.420 . S
C88 N96 1.362 . S
C89 C85 1.411 . S
C89 C87 1.420 . S
C89 C94 1.395 . S
C90 C86 1.423 . S
C90 C87 1.351 . S
C90 H102 0.930 . S
C91 C93 1.400 . S
C91 C94 1.386 . S
C91 H103 0.930 . S
N92 C85 1.377 . S
N92 C93 1.321 . S
N92 Eu95 2.609 . S
C93 C91 1.400 . S
C93 N92 1.321 . S
C93 H100 0.930 . S
C94 C89 1.395 . S
C94 C91 1.386 . S
C94 H113 0.930 . S
Eu95 N92 2.609 . S
Eu95 N96 2.657 . S
Eu95 O129 2.380 . S
Eu95 O130 2.432 . S
Eu95 O134 2.558 . S
Eu95 O135 2.612 . S
Eu95 O137 2.339 . S
Eu95 O138 2.563 . S
Eu95 O139 2.419 . S
Eu95 C159 2.848 . S
N96 C88 1.362 . S
N96 Eu95 2.657 . S
N96 C97 1.334 . S
C97 N96 1.334 . S
C97 C99 1.413 . S
C97 H104 0.929 . S
C98 C86 1.392 . S
C98 C99 1.367 . S
C98 H106 0.930 . S
C99 C97 1.413 . S
C99 C98 1.367 . S
C99 H101 0.930 . S
H100 C93 0.930 . S
H101 C99 0.930 . S
H102 C90 0.930 . S
H103 C91 0.930 . S
H104 C97 0.929 . S
H105 C119 0.930 . S
H106 C98 0.930 . S
H107 C125 0.930 . S
H108 C116 0.929 . S
H109 C123 0.930 . S
H110 C87 0.931 . S
H111 C117 0.930 . S
H112 C150 0.930 . S
H113 C94 0.930 . S
H114 C149 0.931 . S
N115 Eu84 2.657 . S
N115 C116 1.334 . S
N115 C120 1.362 . S
C116 H108 0.929 . S
C116 N115 1.334 . S
C116 C119 1.413 . S
C117 H111 0.930 . S
C117 C118 1.392 . S
C117 C119 1.367 . S
C118 C117 1.392 . S
C118 C120 1.420 . S
C118 C150 1.423 . S
C119 H105 0.930 . S
C119 C116 1.413 . S
C119 C117 1.367 . S
C120 N115 1.362 . S
C120 C118 1.420 . S
C120 C124 1.429 . S
H121 C126 0.930 . S
N122 Eu84 2.609 . S
N122 C124 1.377 . S
N122 C125 1.321 . S
C123 H109 0.930 . S
C123 C125 1.400 . S
C123 C126 1.386 . S
C124 C120 1.429 . S
C124 N122 1.377 . S
C124 C127 1.411 . S
C125 H107 0.930 . S
C125 N122 1.321 . S
C125 C123 1.400 . S
C126 H121 0.930 . S
C126 C123 1.386 . S
C126 C127 1.395 . S
C127 C124 1.411 . S
C127 C126 1.395 . S
C127 C149 1.420 . S
O128 Eu84 2.558 . S
O128 C148 1.257 . S
O129 Eu84 2.612 . S
O129 Eu95 2.380 . S
O129 C140 1.276 . S
O130 Eu95 2.432 . S
O130 C147 1.264 . S
O131 Eu84 2.339 . S
O131 C147 1.254 . S
O132 Eu84 2.563 . S
O132 C140 1.235 . S
O133 Eu84 2.419 . S
O133 C148 1.249 . S
O134 Eu95 2.558 . S
O134 C159 1.257 . S
O135 Eu84 2.380 . S
O135 Eu95 2.612 . S
O135 C151 1.276 . S
O136 Eu84 2.432 . S
O136 C158 1.264 . S
O137 Eu95 2.339 . S
O137 C158 1.254 . S
O138 Eu95 2.563 . S
O138 C151 1.235 . S
O139 Eu95 2.419 . S
O139 C159 1.249 . S
C140 O129 1.276 . S
C140 O132 1.235 . S
C141 C143 1.393 . S
C141 C145 1.395 . S
C141 C148 1.492 . S
C142 C143 1.392 . S
C142 C144 1.386 . S
C143 C141 1.393 . S
C143 C142 1.392 . S
C143 H160 0.930 . S
C144 C142 1.386 . S
C144 C146 1.395 . S
C144 H161 0.930 . S
C145 C141 1.395 . S
C145 C146 1.379 . S
C145 H162 0.930 . S
C146 C144 1.395 . S
C146 C145 1.379 . S
C146 H163 0.930 . S
C147 O130 1.264 . S
C147 O131 1.254 . S
C148 Eu84 2.848 . S
C148 O128 1.257 . S
C148 O133 1.249 . S
C148 C141 1.492 . S
C149 H114 0.931 . S
C149 C127 1.420 . S
C149 C150 1.351 . S
C150 H112 0.930 . S
C150 C118 1.423 . S
C150 C149 1.351 . S
C151 O135 1.276 . S
C151 O138 1.235 . S
C152 C153 1.393 1_556 S
C152 C156 1.395 1_556 S
C152 C159 1.492 . S
C153 C152 1.393 1_554 S
C153 C154 1.392 . S
C153 H164 0.930 1_554 S
C154 C153 1.392 . S
C154 C155 1.386 . S
C155 C154 1.386 . S
C155 C157 1.395 . S
C155 H165 0.930 . S
C156 C152 1.395 1_554 S
C156 C157 1.379 . S
C156 H166 0.930 1_554 S
C157 C155 1.395 . S
C157 C156 1.379 . S
C157 H167 0.930 . S
C158 O136 1.264 . S
C158 O137 1.254 . S
C159 Eu95 2.848 . S
C159 O134 1.257 . S
C159 O139 1.249 . S
C159 C152 1.492 . S
H160 C143 0.930 . S
H161 C144 0.930 . S
H162 C145 0.930 . S
H163 C146 0.930 . S
H164 C153 0.930 1_556 S
H165 C155 0.930 . S
H166 C156 0.930 1_556 S
H167 C157 0.930 . S
Eu168 N199 2.657 . S
Eu168 N206 2.609 . S
Eu168 O212 2.558 . S
Eu168 O213 2.612 1_565 S
Eu168 O215 2.339 1_565 S
Eu168 O216 2.563 1_565 S
Eu168 O217 2.419 . S
Eu168 O219 2.380 1_554 S
Eu168 O220 2.432 . S
Eu168 C232 2.848 . S
C169 C172 1.429 . S
C169 C173 1.411 . S
C169 N176 1.377 . S
C170 C172 1.420 . S
C170 C174 1.423 . S
C170 C182 1.392 . S
C171 C173 1.420 . S
C171 C174 1.351 . S
C171 H194 0.931 . S
C172 C169 1.429 . S
C172 C170 1.420 . S
C172 N180 1.362 . S
C173 C169 1.411 . S
C173 C171 1.420 . S
C173 C178 1.395 . S
C174 C170 1.423 . S
C174 C171 1.351 . S
C174 H186 0.930 . S
C175 C177 1.400 . S
C175 C178 1.386 . S
C175 H187 0.930 . S
N176 C169 1.377 . S
N176 C177 1.321 . S
N176 Eu179 2.609 . S
C177 C175 1.400 . S
C177 N176 1.321 . S
C177 H184 0.930 . S
C178 C173 1.395 . S
C178 C175 1.386 . S
C178 H197 0.930 . S
Eu179 N176 2.609 . S
Eu179 N180 2.657 . S
Eu179 O213 2.380 1_556 S
Eu179 O214 2.432 . S
Eu179 O218 2.558 . S
Eu179 O219 2.612 1_545 S
Eu179 O221 2.339 1_545 S
Eu179 O222 2.563 1_545 S
Eu179 O223 2.419 . S
Eu179 C243 2.848 . S
N180 C172 1.362 . S
N180 Eu179 2.657 . S
N180 C181 1.334 . S
C181 N180 1.334 . S
C181 C183 1.413 . S
C181 H188 0.929 . S
C182 C170 1.392 . S
C182 C183 1.367 . S
C182 H190 0.930 . S
C183 C181 1.413 . S
C183 C182 1.367 . S
C183 H185 0.930 . S
H184 C177 0.930 . S
H185 C183 0.930 . S
H186 C174 0.930 . S
H187 C175 0.930 . S
H188 C181 0.929 . S
H189 C203 0.930 . S
H190 C182 0.930 . S
H191 C209 0.930 . S
H192 C200 0.929 . S
H193 C207 0.930 . S
H194 C171 0.931 . S
H195 C201 0.930 . S
H196 C234 0.930 . S
H197 C178 0.930 . S
H198 C233 0.931 . S
N199 Eu168 2.657 . S
N199 C200 1.334 . S
N199 C204 1.362 . S
C200 H192 0.929 . S
C200 N199 1.334 . S
C200 C203 1.413 . S
C201 H195 0.930 . S
C201 C202 1.392 . S
C201 C203 1.367 . S
C202 C201 1.392 . S
C202 C204 1.420 . S
C202 C234 1.423 . S
C203 H189 0.930 . S
C203 C200 1.413 . S
C203 C201 1.367 . S
C204 N199 1.362 . S
C204 C202 1.420 . S
C204 C208 1.429 . S
H205 C210 0.930 . S
N206 Eu168 2.609 . S
N206 C208 1.377 . S
N206 C209 1.321 . S
C207 H193 0.930 . S
C207 C209 1.400 . S
C207 C210 1.386 . S
C208 C204 1.429 . S
C208 N206 1.377 . S
C208 C211 1.411 . S
C209 H191 0.930 . S
C209 N206 1.321 . S
C209 C207 1.400 . S
C210 H205 0.930 . S
C210 C207 1.386 . S
C210 C211 1.395 . S
C211 C208 1.411 . S
C211 C210 1.395 . S
C211 C233 1.420 . S
O212 Eu168 2.558 . S
O212 C232 1.257 . S
O213 Eu168 2.612 1_545 S
O213 Eu179 2.380 1_554 S
O213 C224 1.276 . S
O214 Eu179 2.432 . S
O214 C231 1.264 1_556 S
O215 Eu168 2.339 1_545 S
O215 C231 1.254 . S
O216 Eu168 2.563 1_545 S
O216 C224 1.235 . S
O217 Eu168 2.419 . S
O217 C232 1.249 . S
O218 Eu179 2.558 . S
O218 C243 1.257 . S
O219 Eu168 2.380 1_556 S
O219 Eu179 2.612 1_565 S
O219 C235 1.276 . S
O220 Eu168 2.432 . S
O220 C242 1.264 1_554 S
O221 Eu179 2.339 1_565 S
O221 C242 1.254 . S
O222 Eu179 2.563 1_565 S
O222 C235 1.235 . S
O223 Eu179 2.419 . S
O223 C243 1.249 . S
C224 O213 1.276 . S
C224 O216 1.235 . S
C225 C227 1.393 . S
C225 C229 1.395 . S
C225 C232 1.492 . S
C226 C227 1.392 . S
C226 C228 1.386 . S
C227 C225 1.393 . S
C227 C226 1.392 . S
C227 H244 0.930 1_565 S
C228 C226 1.386 . S
C228 C230 1.395 . S
C228 H245 0.930 . S
C229 C225 1.395 . S
C229 C230 1.379 . S
C229 H246 0.930 . S
C230 C228 1.395 . S
C230 C229 1.379 . S
C230 H247 0.930 . S
C231 O214 1.264 1_554 S
C231 O215 1.254 . S
C232 Eu168 2.848 . S
C232 O212 1.257 . S
C232 O217 1.249 . S
C232 C225 1.492 . S
C233 H198 0.931 . S
C233 C211 1.420 . S
C233 C234 1.351 . S
C234 H196 0.930 . S
C234 C202 1.423 . S
C234 C233 1.351 . S
C235 O219 1.276 . S
C235 O222 1.235 . S
C236 C237 1.393 . S
C236 C240 1.395 . S
C236 C243 1.492 . S
C237 C236 1.393 . S
C237 C238 1.392 . S
C237 H248 0.930 1_545 S
C238 C237 1.392 . S
C238 C239 1.386 . S
C239 C238 1.386 . S
C239 C241 1.395 . S
C239 H249 0.930 . S
C240 C236 1.395 . S
C240 C241 1.379 . S
C240 H250 0.930 . S
C241 C239 1.395 . S
C241 C240 1.379 . S
C241 H251 0.930 . S
C242 O220 1.264 1_556 S
C242 O221 1.254 . S
C243 Eu179 2.848 . S
C243 O218 1.257 . S
C243 O223 1.249 . S
C243 C236 1.492 . S
H244 C227 0.930 1_545 S
H245 C228 0.930 . S
H246 C229 0.930 . S
H247 C230 0.930 . S
H248 C237 0.930 1_565 S
H249 C239 0.930 . S
H250 C240 0.930 . S
H251 C241 0.930 . S
Eu252 N283 2.657 . S
Eu252 N290 2.609 . S
Eu252 O296 2.558 . S
Eu252 O297 2.612 . S
Eu252 O299 2.339 . S
Eu252 O300 2.563 . S
Eu252 O301 2.419 . S
Eu252 O303 2.380 . S
Eu252 O304 2.432 . S
Eu252 C316 2.848 . S
C253 C256 1.429 . S
C253 C257 1.411 . S
C253 N260 1.377 . S
C254 C256 1.420 . S
C254 C258 1.423 . S
C254 C266 1.392 . S
C255 C257 1.420 . S
C255 C258 1.351 . S
C255 H278 0.931 . S
C256 C253 1.429 . S
C256 C254 1.420 . S
C256 N264 1.362 . S
C257 C253 1.411 . S
C257 C255 1.420 . S
C257 C262 1.395 . S
C258 C254 1.423 . S
C258 C255 1.351 . S
C258 H270 0.930 . S
C259 C261 1.400 . S
C259 C262 1.386 . S
C259 H271 0.930 . S
N260 C253 1.377 . S
N260 C261 1.321 . S
N260 Eu263 2.609 . S
C261 C259 1.400 . S
C261 N260 1.321 . S
C261 H268 0.930 . S
C262 C257 1.395 . S
C262 C259 1.386 . S
C262 H281 0.930 . S
Eu263 N260 2.609 . S
Eu263 N264 2.657 . S
Eu263 O297 2.380 . S
Eu263 O298 2.432 . S
Eu263 O302 2.558 . S
Eu263 O303 2.612 . S
Eu263 O305 2.339 . S
Eu263 O306 2.563 . S
Eu263 O307 2.419 . S
Eu263 C327 2.848 . S
N264 C256 1.362 . S
N264 Eu263 2.657 . S
N264 C265 1.334 . S
C265 N264 1.334 . S
C265 C267 1.413 . S
C265 H272 0.929 . S
C266 C254 1.392 . S
C266 C267 1.367 . S
C266 H274 0.930 . S
C267 C265 1.413 . S
C267 C266 1.367 . S
C267 H269 0.930 . S
H268 C261 0.930 . S
H269 C267 0.930 . S
H270 C258 0.930 . S
H271 C259 0.930 . S
H272 C265 0.929 . S
H273 C287 0.930 . S
H274 C266 0.930 . S
H275 C293 0.930 . S
H276 C284 0.929 . S
H277 C291 0.930 . S
H278 C255 0.931 . S
H279 C285 0.930 . S
H280 C318 0.930 . S
H281 C262 0.930 . S
H282 C317 0.931 . S
N283 Eu252 2.657 . S
N283 C284 1.334 . S
N283 C288 1.362 . S
C284 H276 0.929 . S
C284 N283 1.334 . S
C284 C287 1.413 . S
C285 H279 0.930 . S
C285 C286 1.392 . S
C285 C287 1.367 . S
C286 C285 1.392 . S
C286 C288 1.420 . S
C286 C318 1.423 . S
C287 H273 0.930 . S
C287 C284 1.413 . S
C287 C285 1.367 . S
C288 N283 1.362 . S
C288 C286 1.420 . S
C288 C292 1.429 . S
H289 C294 0.930 . S
N290 Eu252 2.609 . S
N290 C292 1.377 . S
N290 C293 1.321 . S
C291 H277 0.930 . S
C291 C293 1.400 . S
C291 C294 1.386 . S
C292 C288 1.429 . S
C292 N290 1.377 . S
C292 C295 1.411 . S
C293 H275 0.930 . S
C293 N290 1.321 . S
C293 C291 1.400 . S
C294 H289 0.930 . S
C294 C291 1.386 . S
C294 C295 1.395 . S
C295 C292 1.411 . S
C295 C294 1.395 . S
C295 C317 1.420 . S
O296 Eu252 2.558 . S
O296 C316 1.257 . S
O297 Eu252 2.612 . S
O297 Eu263 2.380 . S
O297 C308 1.276 . S
O298 Eu263 2.432 . S
O298 C315 1.264 . S
O299 Eu252 2.339 . S
O299 C315 1.254 . S
O300 Eu252 2.563 . S
O300 C308 1.235 . S
O301 Eu252 2.419 . S
O301 C316 1.249 . S
O302 Eu263 2.558 . S
O302 C327 1.257 . S
O303 Eu252 2.380 . S
O303 Eu263 2.612 . S
O303 C319 1.276 . S
O304 Eu252 2.432 . S
O304 C326 1.264 . S
O305 Eu263 2.339 . S
O305 C326 1.254 . S
O306 Eu263 2.563 . S
O306 C319 1.235 . S
O307 Eu263 2.419 . S
O307 C327 1.249 . S
C308 O297 1.276 . S
C308 O300 1.235 . S
C309 C311 1.393 . S
C309 C313 1.395 . S
C309 C316 1.492 . S
C310 C311 1.392 . S
C310 C312 1.386 . S
C311 C309 1.393 . S
C311 C310 1.392 . S
C311 H328 0.930 . S
C312 C310 1.386 . S
C312 C314 1.395 . S
C312 H329 0.930 . S
C313 C309 1.395 . S
C313 C314 1.379 . S
C313 H330 0.930 . S
C314 C312 1.395 . S
C314 C313 1.379 . S
C314 H331 0.930 . S
C315 O298 1.264 . S
C315 O299 1.254 . S
C316 Eu252 2.848 . S
C316 O296 1.257 . S
C316 O301 1.249 . S
C316 C309 1.492 . S
C317 H282 0.931 . S
C317 C295 1.420 . S
C317 C318 1.351 . S
C318 H280 0.930 . S
C318 C286 1.423 . S
C318 C317 1.351 . S
C319 O303 1.276 . S
C319 O306 1.235 . S
C320 C321 1.393 1_554 S
C320 C324 1.395 1_554 S
C320 C327 1.492 . S
C321 C320 1.393 1_556 S
C321 C322 1.392 . S
C321 H332 0.930 1_556 S
C322 C321 1.392 . S
C322 C323 1.386 . S
C323 C322 1.386 . S
C323 C325 1.395 . S
C323 H333 0.930 . S
C324 C320 1.395 1_556 S
C324 C325 1.379 . S
C324 H334 0.930 1_556 S
C325 C323 1.395 . S
C325 C324 1.379 . S
C325 H335 0.930 . S
C326 O304 1.264 . S
C326 O305 1.254 . S
C327 Eu263 2.848 . S
C327 O302 1.257 . S
C327 O307 1.249 . S
C327 C320 1.492 . S
H328 C311 0.930 . S
H329 C312 0.930 . S
H330 C313 0.930 . S
H331 C314 0.930 . S
H332 C321 0.930 1_554 S
H333 C323 0.930 . S
H334 C324 0.930 1_554 S
H335 C325 0.930 . S
Eu336 N367 2.657 . S
Eu336 N374 2.609 . S
Eu336 O380 2.558 . S
Eu336 O381 2.612 . S
Eu336 O383 2.339 . S
Eu336 O384 2.563 . S
Eu336 O385 2.419 . S
Eu336 O387 2.380 . S
Eu336 O388 2.432 . S
Eu336 C400 2.848 . S
C337 C340 1.429 . S
C337 C341 1.411 . S
C337 N344 1.377 . S
C338 C340 1.420 . S
C338 C342 1.423 . S
C338 C350 1.392 . S
C339 C341 1.420 . S
C339 C342 1.351 . S
C339 H362 0.931 . S
C340 C337 1.429 . S
C340 C338 1.420 . S
C340 N348 1.362 . S
C341 C337 1.411 . S
C341 C339 1.420 . S
C341 C346 1.395 . S
C342 C338 1.423 . S
C342 C339 1.351 . S
C342 H354 0.930 . S
C343 C345 1.400 . S
C343 C346 1.386 . S
C343 H355 0.930 . S
N344 C337 1.377 . S
N344 C345 1.321 . S
N344 Eu347 2.609 . S
C345 C343 1.400 . S
C345 N344 1.321 . S
C345 H352 0.930 . S
C346 C341 1.395 . S
C346 C343 1.386 . S
C346 H365 0.930 . S
Eu347 N344 2.609 . S
Eu347 N348 2.657 . S
Eu347 O381 2.380 . S
Eu347 O382 2.432 . S
Eu347 O386 2.558 . S
Eu347 O387 2.612 . S
Eu347 O389 2.339 . S
Eu347 O390 2.563 . S
Eu347 O391 2.419 . S
Eu347 C411 2.848 . S
N348 C340 1.362 . S
N348 Eu347 2.657 . S
N348 C349 1.334 . S
C349 N348 1.334 . S
C349 C351 1.413 . S
C349 H356 0.929 . S
C350 C338 1.392 . S
C350 C351 1.367 . S
C350 H358 0.930 . S
C351 C349 1.413 . S
C351 C350 1.367 . S
C351 H353 0.930 . S
H352 C345 0.930 . S
H353 C351 0.930 . S
H354 C342 0.930 . S
H355 C343 0.930 . S
H356 C349 0.929 . S
H357 C371 0.930 . S
H358 C350 0.930 . S
H359 C377 0.930 . S
H360 C368 0.929 . S
H361 C375 0.930 . S
H362 C339 0.931 . S
H363 C369 0.930 . S
H364 C402 0.930 . S
H365 C346 0.930 . S
H366 C401 0.931 . S
N367 Eu336 2.657 . S
N367 C368 1.334 . S
N367 C372 1.362 . S
C368 H360 0.929 . S
C368 N367 1.334 . S
C368 C371 1.413 . S
C369 H363 0.930 . S
C369 C370 1.392 . S
C369 C371 1.367 . S
C370 C369 1.392 . S
C370 C372 1.420 . S
C370 C402 1.423 . S
C371 H357 0.930 . S
C371 C368 1.413 . S
C371 C369 1.367 . S
C372 N367 1.362 . S
C372 C370 1.420 . S
C372 C376 1.429 . S
H373 C378 0.930 . S
N374 Eu336 2.609 . S
N374 C376 1.377 . S
N374 C377 1.321 . S
C375 H361 0.930 . S
C375 C377 1.400 . S
C375 C378 1.386 . S
C376 C372 1.429 . S
C376 N374 1.377 . S
C376 C379 1.411 . S
C377 H359 0.930 . S
C377 N374 1.321 . S
C377 C375 1.400 . S
C378 H373 0.930 . S
C378 C375 1.386 . S
C378 C379 1.395 . S
C379 C376 1.411 . S
C379 C378 1.395 . S
C379 C401 1.420 . S
O380 Eu336 2.558 . S
O380 C400 1.257 . S
O381 Eu336 2.612 . S
O381 Eu347 2.380 . S
O381 C392 1.276 . S
O382 Eu347 2.432 . S
O382 C399 1.264 . S
O383 Eu336 2.339 . S
O383 C399 1.254 . S
O384 Eu336 2.563 . S
O384 C392 1.235 . S
O385 Eu336 2.419 . S
O385 C400 1.249 . S
O386 Eu347 2.558 . S
O386 C411 1.257 . S
O387 Eu336 2.380 . S
O387 Eu347 2.612 . S
O387 C403 1.276 . S
O388 Eu336 2.432 . S
O388 C410 1.264 . S
O389 Eu347 2.339 . S
O389 C410 1.254 . S
O390 Eu347 2.563 . S
O390 C403 1.235 . S
O391 Eu347 2.419 . S
O391 C411 1.249 . S
C392 O381 1.276 . S
C392 O384 1.235 . S
C393 C395 1.393 1_554 S
C393 C397 1.395 1_554 S
C393 C400 1.492 . S
C394 C395 1.392 . S
C394 C396 1.386 . S
C395 C393 1.393 1_556 S
C395 C394 1.392 . S
C395 H412 0.930 1_556 S
C396 C394 1.386 . S
C396 C398 1.395 . S
C396 H413 0.930 . S
C397 C393 1.395 1_556 S
C397 C398 1.379 . S
C397 H414 0.930 1_556 S
C398 C396 1.395 . S
C398 C397 1.379 . S
C398 H415 0.930 . S
C399 O382 1.264 . S
C399 O383 1.254 . S
C400 Eu336 2.848 . S
C400 O380 1.257 . S
C400 O385 1.249 . S
C400 C393 1.492 . S
C401 H366 0.931 . S
C401 C379 1.420 . S
C401 C402 1.351 . S
C402 H364 0.930 . S
C402 C370 1.423 . S
C402 C401 1.351 . S
C403 O387 1.276 . S
C403 O390 1.235 . S
C404 C405 1.393 . S
C404 C408 1.395 . S
C404 C411 1.492 . S
C405 C404 1.393 . S
C405 C406 1.392 . S
C405 H416 0.930 . S
C406 C405 1.392 . S
C406 C407 1.386 . S
C407 C406 1.386 . S
C407 C409 1.395 . S
C407 H417 0.930 . S
C408 C404 1.395 . S
C408 C409 1.379 . S
C408 H418 0.930 . S
C409 C407 1.395 . S
C409 C408 1.379 . S
C409 H419 0.930 . S
C410 O388 1.264 . S
C410 O389 1.254 . S
C411 Eu347 2.848 . S
C411 O386 1.257 . S
C411 O391 1.249 . S
C411 C404 1.492 . S
H412 C395 0.930 1_554 S
H413 C396 0.930 . S
H414 C397 0.930 1_554 S
H415 C398 0.930 . S
H416 C405 0.930 . S
H417 C407 0.930 . S
H418 C408 0.930 . S
H419 C409 0.930 . S
Eu420 N451 2.657 . S
Eu420 N458 2.609 . S
Eu420 O464 2.558 . S
Eu420 O465 2.612 . S
Eu420 O467 2.339 . S
Eu420 O468 2.563 . S
Eu420 O469 2.419 . S
Eu420 O471 2.380 . S
Eu420 O472 2.432 . S
Eu420 C484 2.848 . S
C421 C424 1.429 . S
C421 C425 1.411 . S
C421 N428 1.377 . S
C422 C424 1.420 . S
C422 C426 1.423 . S
C422 C434 1.392 . S
C423 C425 1.420 . S
C423 C426 1.351 . S
C423 H446 0.931 . S
C424 C421 1.429 . S
C424 C422 1.420 . S
C424 N432 1.362 . S
C425 C421 1.411 . S
C425 C423 1.420 . S
C425 C430 1.395 . S
C426 C422 1.423 . S
C426 C423 1.351 . S
C426 H438 0.930 . S
C427 C429 1.400 . S
C427 C430 1.386 . S
C427 H439 0.930 . S
N428 C421 1.377 . S
N428 C429 1.321 . S
N428 Eu431 2.609 . S
C429 C427 1.400 . S
C429 N428 1.321 . S
C429 H436 0.930 . S
C430 C425 1.395 . S
C430 C427 1.386 . S
C430 H449 0.930 . S
Eu431 N428 2.609 . S
Eu431 N432 2.657 . S
Eu431 O465 2.380 . S
Eu431 O466 2.432 . S
Eu431 O470 2.558 . S
Eu431 O471 2.612 . S
Eu431 O473 2.339 . S
Eu431 O474 2.563 . S
Eu431 O475 2.419 . S
Eu431 C495 2.848 . S
N432 C424 1.362 . S
N432 Eu431 2.657 . S
N432 C433 1.334 . S
C433 N432 1.334 . S
C433 C435 1.413 . S
C433 H440 0.929 . S
C434 C422 1.392 . S
C434 C435 1.367 . S
C434 H442 0.930 . S
C435 C433 1.413 . S
C435 C434 1.367 . S
C435 H437 0.930 . S
H436 C429 0.930 . S
H437 C435 0.930 . S
H438 C426 0.930 . S
H439 C427 0.930 . S
H440 C433 0.929 . S
H441 C455 0.930 . S
H442 C434 0.930 . S
H443 C461 0.930 . S
H444 C452 0.929 . S
H445 C459 0.930 . S
H446 C423 0.931 . S
H447 C453 0.930 . S
H448 C486 0.930 . S
H449 C430 0.930 . S
H450 C485 0.931 . S
N451 Eu420 2.657 . S
N451 C452 1.334 . S
N451 C456 1.362 . S
C452 H444 0.929 . S
C452 N451 1.334 . S
C452 C455 1.413 . S
C453 H447 0.930 . S
C453 C454 1.392 . S
C453 C455 1.367 . S
C454 C453 1.392 . S
C454 C456 1.420 . S
C454 C486 1.423 . S
C455 H441 0.930 . S
C455 C452 1.413 . S
C455 C453 1.367 . S
C456 N451 1.362 . S
C456 C454 1.420 . S
C456 C460 1.429 . S
H457 C462 0.930 . S
N458 Eu420 2.609 . S
N458 C460 1.377 . S
N458 C461 1.321 . S
C459 H445 0.930 . S
C459 C461 1.400 . S
C459 C462 1.386 . S
C460 C456 1.429 . S
C460 N458 1.377 . S
C460 C463 1.411 . S
C461 H443 0.930 . S
C461 N458 1.321 . S
C461 C459 1.400 . S
C462 H457 0.930 . S
C462 C459 1.386 . S
C462 C463 1.395 . S
C463 C460 1.411 . S
C463 C462 1.395 . S
C463 C485 1.420 . S
O464 Eu420 2.558 . S
O464 C484 1.257 . S
O465 Eu420 2.612 . S
O465 Eu431 2.380 . S
O465 C476 1.276 . S
O466 Eu431 2.432 . S
O466 C483 1.264 . S
O467 Eu420 2.339 . S
O467 C483 1.254 . S
O468 Eu420 2.563 . S
O468 C476 1.235 . S
O469 Eu420 2.419 . S
O469 C484 1.249 . S
O470 Eu431 2.558 . S
O470 C495 1.257 . S
O471 Eu420 2.380 . S
O471 Eu431 2.612 . S
O471 C487 1.276 . S
O472 Eu420 2.432 . S
O472 C494 1.264 . S
O473 Eu431 2.339 . S
O473 C494 1.254 . S
O474 Eu431 2.563 . S
O474 C487 1.235 . S
O475 Eu431 2.419 . S
O475 C495 1.249 . S
C476 O465 1.276 . S
C476 O468 1.235 . S
C477 C479 1.393 1_556 S
C477 C481 1.395 1_556 S
C477 C484 1.492 . S
C478 C479 1.392 . S
C478 C480 1.386 . S
C479 C477 1.393 1_554 S
C479 C478 1.392 . S
C479 H496 0.930 1_554 S
C480 C478 1.386 . S
C480 C482 1.395 . S
C480 H497 0.930 . S
C481 C477 1.395 1_554 S
C481 C482 1.379 . S
C481 H498 0.930 1_554 S
C482 C480 1.395 . S
C482 C481 1.379 . S
C482 H499 0.930 . S
C483 O466 1.264 . S
C483 O467 1.254 . S
C484 Eu420 2.848 . S
C484 O464 1.257 . S
C484 O469 1.249 . S
C484 C477 1.492 . S
C485 H450 0.931 . S
C485 C463 1.420 . S
C485 C486 1.351 . S
C486 H448 0.930 . S
C486 C454 1.423 . S
C486 C485 1.351 . S
C487 O471 1.276 . S
C487 O474 1.235 . S
C488 C489 1.393 . S
C488 C492 1.395 . S
C488 C495 1.492 . S
C489 C488 1.393 . S
C489 C490 1.392 . S
C489 H500 0.930 . S
C490 C489 1.392 . S
C490 C491 1.386 . S
C491 C490 1.386 . S
C491 C493 1.395 . S
C491 H501 0.930 . S
C492 C488 1.395 . S
C492 C493 1.379 . S
C492 H502 0.930 . S
C493 C491 1.395 . S
C493 C492 1.379 . S
C493 H503 0.930 . S
C494 O472 1.264 . S
C494 O473 1.254 . S
C495 Eu431 2.848 . S
C495 O470 1.257 . S
C495 O475 1.249 . S
C495 C488 1.492 . S
H496 C479 0.930 1_556 S
H497 C480 0.930 . S
H498 C481 0.930 1_556 S
H499 C482 0.930 . S
H500 C489 0.930 . S
H501 C491 0.930 . S
H502 C492 0.930 . S
H503 C493 0.930 . S
Eu504 N535 2.657 . S
Eu504 N542 2.609 . S
Eu504 O548 2.558 . S
Eu504 O549 2.612 . S
Eu504 O551 2.339 . S
Eu504 O552 2.563 . S
Eu504 O553 2.419 . S
Eu504 O555 2.380 1_556 S
Eu504 O556 2.432 . S
Eu504 C568 2.848 . S
C505 C508 1.429 . S
C505 C509 1.411 . S
C505 N512 1.377 . S
C506 C508 1.420 . S
C506 C510 1.423 . S
C506 C518 1.392 . S
C507 C509 1.420 . S
C507 C510 1.351 . S
C507 H530 0.931 . S
C508 C505 1.429 . S
C508 C506 1.420 . S
C508 N516 1.362 . S
C509 C505 1.411 . S
C509 C507 1.420 . S
C509 C514 1.395 . S
C510 C506 1.423 . S
C510 C507 1.351 . S
C510 H522 0.930 . S
C511 C513 1.400 . S
C511 C514 1.386 . S
C511 H523 0.930 . S
N512 C505 1.377 . S
N512 C513 1.321 . S
N512 Eu515 2.609 . S
C513 C511 1.400 . S
C513 N512 1.321 . S
C513 H520 0.930 . S
C514 C509 1.395 . S
C514 C511 1.386 . S
C514 H533 0.930 . S
Eu515 N512 2.609 . S
Eu515 N516 2.657 . S
Eu515 O549 2.380 1_554 S
Eu515 O550 2.432 . S
Eu515 O554 2.558 . S
Eu515 O555 2.612 . S
Eu515 O557 2.339 . S
Eu515 O558 2.563 . S
Eu515 O559 2.419 . S
Eu515 C579 2.848 . S
N516 C508 1.362 . S
N516 Eu515 2.657 . S
N516 C517 1.334 . S
C517 N516 1.334 . S
C517 C519 1.413 . S
C517 H524 0.929 . S
C518 C506 1.392 . S
C518 C519 1.367 . S
C518 H526 0.930 . S
C519 C517 1.413 . S
C519 C518 1.367 . S
C519 H521 0.930 . S
H520 C513 0.930 . S
H521 C519 0.930 . S
H522 C510 0.930 . S
H523 C511 0.930 . S
H524 C517 0.929 . S
H525 C539 0.930 . S
H526 C518 0.930 . S
H527 C545 0.930 . S
H528 C536 0.929 . S
H529 C543 0.930 . S
H530 C507 0.931 . S
H531 C537 0.930 . S
H532 C570 0.930 . S
H533 C514 0.930 . S
H534 C569 0.931 . S
N535 Eu504 2.657 . S
N535 C536 1.334 . S
N535 C540 1.362 . S
C536 H528 0.929 . S
C536 N535 1.334 . S
C536 C539 1.413 . S
C537 H531 0.930 . S
C537 C538 1.392 . S
C537 C539 1.367 . S
C538 C537 1.392 . S
C538 C540 1.420 . S
C538 C570 1.423 . S
C539 H525 0.930 . S
C539 C536 1.413 . S
C539 C537 1.367 . S
C540 N535 1.362 . S
C540 C538 1.420 . S
C540 C544 1.429 . S
H541 C546 0.930 . S
N542 Eu504 2.609 . S
N542 C544 1.377 . S
N542 C545 1.321 . S
C543 H529 0.930 . S
C543 C545 1.400 . S
C543 C546 1.386 . S
C544 C540 1.429 . S
C544 N542 1.377 . S
C544 C547 1.411 . S
C545 H527 0.930 . S
C545 N542 1.321 . S
C545 C543 1.400 . S
C546 H541 0.930 . S
C546 C543 1.386 . S
C546 C547 1.395 . S
C547 C544 1.411 . S
C547 C546 1.395 . S
C547 C569 1.420 . S
O548 Eu504 2.558 . S
O548 C568 1.257 . S
O549 Eu504 2.612 . S
O549 Eu515 2.380 1_556 S
O549 C560 1.276 . S
O550 Eu515 2.432 . S
O550 C567 1.264 1_554 S
O551 Eu504 2.339 . S
O551 C567 1.254 . S
O552 Eu504 2.563 . S
O552 C560 1.235 . S
O553 Eu504 2.419 . S
O553 C568 1.249 . S
O554 Eu515 2.558 . S
O554 C579 1.257 . S
O555 Eu504 2.380 1_554 S
O555 Eu515 2.612 . S
O555 C571 1.276 . S
O556 Eu504 2.432 . S
O556 C578 1.264 1_556 S
O557 Eu515 2.339 . S
O557 C578 1.254 . S
O558 Eu515 2.563 . S
O558 C571 1.235 . S
O559 Eu515 2.419 . S
O559 C579 1.249 . S
C560 O549 1.276 . S
C560 O552 1.235 . S
C561 C563 1.393 . S
C561 C565 1.395 . S
C561 C568 1.492 . S
C562 C563 1.392 . S
C562 C564 1.386 . S
C563 C561 1.393 . S
C563 C562 1.392 . S
C563 H580 0.930 . S
C564 C562 1.386 . S
C564 C566 1.395 . S
C564 H581 0.930 . S
C565 C561 1.395 . S
C565 C566 1.379 . S
C565 H582 0.930 . S
C566 C564 1.395 . S
C566 C565 1.379 . S
C566 H583 0.930 . S
C567 O550 1.264 1_556 S
C567 O551 1.254 . S
C568 Eu504 2.848 . S
C568 O548 1.257 . S
C568 O553 1.249 . S
C568 C561 1.492 . S
C569 H534 0.931 . S
C569 C547 1.420 . S
C569 C570 1.351 . S
C570 H532 0.930 . S
C570 C538 1.423 . S
C570 C569 1.351 . S
C571 O555 1.276 . S
C571 O558 1.235 . S
C572 C573 1.393 . S
C572 C576 1.395 . S
C572 C579 1.492 . S
C573 C572 1.393 . S
C573 C574 1.392 . S
C573 H584 0.930 . S
C574 C573 1.392 . S
C574 C575 1.386 . S
C575 C574 1.386 . S
C575 C577 1.395 . S
C575 H585 0.930 . S
C576 C572 1.395 . S
C576 C577 1.379 . S
C576 H586 0.930 . S
C577 C575 1.395 . S
C577 C576 1.379 . S
C577 H587 0.930 . S
C578 O556 1.264 1_554 S
C578 O557 1.254 . S
C579 Eu515 2.848 . S
C579 O554 1.257 . S
C579 O559 1.249 . S
C579 C572 1.492 . S
H580 C563 0.930 . S
H581 C564 0.930 . S
H582 C565 0.930 . S
H583 C566 0.930 . S
H584 C573 0.930 . S
H585 C575 0.930 . S
H586 C576 0.930 . S
H587 C577 0.930 . S
Eu588 N619 2.654 1_655 S
Eu588 N626 2.609 1_655 S
Eu588 O632 2.560 . S
Eu588 O633 2.613 . S
Eu588 O635 2.336 1_655 S
Eu588 O636 2.566 . S
Eu588 O637 2.418 1_655 S
Eu588 O639 2.379 1_655 S
Eu588 O640 2.434 . S
Eu588 C652 2.848 . S
C589 C592 1.429 . S
C589 C593 1.411 . S
C589 N596 1.377 . S
C590 C592 1.420 . S
C590 C594 1.423 . S
C590 C602 1.392 . S
C591 C593 1.420 . S
C591 C594 1.351 . S
C591 H614 0.931 . S
C592 C589 1.429 . S
C592 C590 1.420 . S
C592 N600 1.362 . S
C593 C589 1.411 . S
C593 C591 1.420 . S
C593 C598 1.395 . S
C594 C590 1.423 . S
C594 C591 1.351 . S
C594 H606 0.930 . S
C595 C597 1.400 . S
C595 C598 1.386 1_455 S
C595 H607 0.930 . S
N596 C589 1.377 . S
N596 C597 1.321 1_655 S
N596 Eu599 2.609 1_655 S
C597 C595 1.400 . S
C597 N596 1.321 1_455 S
C597 H604 0.930 . S
C598 C593 1.395 . S
C598 C595 1.386 1_655 S
C598 H617 0.930 . S
Eu599 N596 2.609 1_455 S
Eu599 N600 2.647 1_455 S
Eu599 O633 2.376 1_455 S
Eu599 O634 2.440 . S
Eu599 O638 2.564 . S
Eu599 O639 2.616 . S
Eu599 O641 2.331 1_455 S
Eu599 O642 2.571 . S
Eu599 O643 2.417 1_455 S
Eu599 C663 2.849 . S
N600 C592 1.362 . S
N600 Eu599 2.647 1_655 S
N600 C601 1.334 . S
C601 N600 1.334 . S
C601 C603 1.413 . S
C601 H608 0.929 . S
C602 C590 1.392 . S
C602 C603 1.367 . S
C602 H610 0.930 . S
C603 C601 1.413 . S
C603 C602 1.367 . S
C603 H605 0.930 . S
H604 C597 0.930 . S
H605 C603 0.930 . S
H606 C594 0.930 . S
H607 C595 0.930 . S
H608 C601 0.929 . S
H609 C623 0.930 . S
H610 C602 0.930 . S
H611 C629 0.930 . S
H612 C620 0.929 . S
H613 C627 0.930 . S
H614 C591 0.931 . S
H615 C621 0.930 . S
H616 C654 0.930 . S
H617 C598 0.930 . S
H618 C653 0.931 . S
N619 Eu588 2.654 1_455 S
N619 C620 1.334 . S
N619 C624 1.362 . S
C620 H612 0.929 . S
C620 N619 1.334 . S
C620 C623 1.413 . S
C621 H615 0.930 . S
C621 C622 1.392 . S
C621 C623 1.367 . S
C622 C621 1.392 . S
C622 C624 1.420 . S
C622 C654 1.423 . S
C623 H609 0.930 . S
C623 C620 1.413 . S
C623 C621 1.367 . S
C624 N619 1.362 . S
C624 C622 1.420 . S
C624 C628 1.429 . S
H625 C630 0.931 . S
N626 Eu588 2.609 1_455 S
N626 C628 1.377 . S
N626 C629 1.321 1_455 S
C627 H613 0.930 . S
C627 C629 1.400 . S
C627 C630 1.386 1_655 S
C628 C624 1.429 . S
C628 N626 1.377 . S
C628 C631 1.411 . S
C629 H611 0.930 . S
C629 N626 1.321 1_655 S
C629 C627 1.400 . S
C630 H625 0.931 . S
C630 C627 1.386 1_455 S
C630 C631 1.395 . S
C631 C628 1.411 . S
C631 C630 1.395 . S
C631 C653 1.420 . S
O632 Eu588 2.560 . S
O632 C652 1.257 . S
O633 Eu588 2.613 . S
O633 Eu599 2.376 1_655 S
O633 C644 1.276 . S
O634 Eu599 2.440 . S
O634 C651 1.264 . S
O635 Eu588 2.336 1_455 S
O635 C651 1.254 . S
O636 Eu588 2.566 . S
O636 C644 1.235 . S
O637 Eu588 2.418 1_455 S
O637 C652 1.249 1_455 S
O638 Eu599 2.564 . S
O638 C663 1.257 . S
O639 Eu588 2.379 1_455 S
O639 Eu599 2.616 . S
O639 C655 1.276 . S
O640 Eu588 2.434 . S
O640 C662 1.264 . S
O641 Eu599 2.331 1_655 S
O641 C662 1.254 . S
O642 Eu599 2.571 . S
O642 C655 1.235 . S
O643 Eu599 2.417 1_655 S
O643 C663 1.249 1_655 S
C644 O633 1.276 . S
C644 O636 1.235 . S
C645 C647 1.393 . S
C645 C649 1.395 . S
C645 C652 1.492 . S
C646 C647 1.392 . S
C646 C648 1.386 . S
C647 C645 1.393 . S
C647 C646 1.392 . S
C647 H664 0.930 1_655 S
C648 C646 1.386 . S
C648 C650 1.395 . S
C648 H665 0.930 . S
C649 C645 1.395 . S
C649 C650 1.379 . S
C649 H666 0.930 . S
C650 C648 1.395 . S
C650 C649 1.379 . S
C650 H667 0.930 . S
C651 O634 1.264 . S
C651 O635 1.254 . S
C652 Eu588 2.848 . S
C652 O632 1.257 . S
C652 O637 1.249 1_655 S
C652 C645 1.492 . S
C653 H618 0.931 . S
C653 C631 1.420 . S
C653 C654 1.351 . S
C654 H616 0.930 . S
C654 C622 1.423 . S
C654 C653 1.351 . S
C655 O639 1.276 . S
C655 O642 1.235 . S
C656 C657 1.393 . S
C656 C660 1.395 . S
C656 C663 1.492 . S
C657 C656 1.393 . S
C657 C658 1.392 . S
C657 H668 0.930 1_455 S
C658 C657 1.392 . S
C658 C659 1.386 . S
C659 C658 1.386 . S
C659 C661 1.395 . S
C659 H669 0.930 . S
C660 C656 1.395 . S
C660 C661 1.379 . S
C660 H670 0.930 . S
C661 C659 1.395 . S
C661 C660 1.379 . S
C661 H671 0.930 . S
C662 O640 1.264 . S
C662 O641 1.254 . S
C663 Eu599 2.849 . S
C663 O638 1.257 . S
C663 O643 1.249 1_455 S
C663 C656 1.492 . S
H664 C647 0.930 1_455 S
H665 C648 0.930 . S
H666 C649 0.930 . S
H667 C650 0.930 . S
H668 C657 0.930 1_655 S
H669 C659 0.930 . S
H670 C660 0.930 . S
H671 C661 0.930 . S
H672 C684 0.930 . S
H673 C686 0.930 . S
H674 C687 0.930 . S
H675 C691 0.959 . S
H676 C691 0.959 . S
H677 C691 0.961 . S
H678 C692 0.960 . S
H679 C692 0.961 . S
H680 C692 0.959 . S
H681 C695 0.929 . S
H682 C696 0.931 . S
H683 C698 0.930 . S
C684 H672 0.930 . S
C684 C685 1.399 . S
C684 C689 1.399 . S
C685 C684 1.399 . S
C685 C686 1.376 . S
C686 H673 0.930 . S
C686 C685 1.376 . S
C686 C687 1.388 . S
C687 H674 0.930 . S
C687 C686 1.388 . S
C687 C688 1.390 . S
C688 C687 1.390 . S
C688 C689 1.394 . S
C688 C694 1.465 . S
C689 C684 1.399 . S
C689 C688 1.394 . S
C689 C690 1.516 . S
C690 C689 1.516 . S
C690 C691 1.502 . S
C690 C692 1.561 . S
C690 C693 1.526 . S
C691 H675 0.959 . S
C691 H676 0.959 . S
C691 H677 0.961 . S
C691 C690 1.502 . S
C692 H678 0.960 . S
C692 H679 0.961 . S
C692 H680 0.959 . S
C692 C690 1.561 . S
C693 C690 1.526 . S
C693 C694 1.396 . S
C693 C698 1.390 . S
C694 C688 1.465 . S
C694 C693 1.396 . S
C694 C695 1.399 . S
C695 H681 0.929 . S
C695 C694 1.399 . S
C695 C696 1.385 . S
C696 H682 0.931 . S
C696 C695 1.385 . S
C696 C697 1.389 . S
C697 C696 1.389 . S
C697 C698 1.387 . S
C698 H683 0.930 . S
C698 C693 1.390 . S
C698 C697 1.387 . S
H699 C711 0.930 . S
H700 C713 0.930 . S
H701 C714 0.930 . S
H702 C718 0.959 . S
H703 C718 0.959 . S
H704 C718 0.961 . S
H705 C719 0.960 . S
H706 C719 0.961 . S
H707 C719 0.959 . S
H708 C722 0.929 . S
H709 C723 0.931 . S
H710 C725 0.930 . S
C711 H699 0.930 . S
C711 C712 1.399 . S
C711 C716 1.399 . S
C712 C711 1.399 . S
C712 C713 1.376 . S
C713 H700 0.930 . S
C713 C712 1.376 . S
C713 C714 1.388 . S
C714 H701 0.930 . S
C714 C713 1.388 . S
C714 C715 1.390 . S
C715 C714 1.390 . S
C715 C716 1.394 . S
C715 C721 1.465 . S
C716 C711 1.399 . S
C716 C715 1.394 . S
C716 C717 1.516 . S
C717 C716 1.516 . S
C717 C718 1.502 . S
C717 C719 1.561 . S
C717 C720 1.526 . S
C718 H702 0.959 . S
C718 H703 0.959 . S
C718 H704 0.961 . S
C718 C717 1.502 . S
C719 H705 0.960 . S
C719 H706 0.961 . S
C719 H707 0.959 . S
C719 C717 1.561 . S
C720 C717 1.526 . S
C720 C721 1.396 . S
C720 C725 1.390 . S
C721 C715 1.465 . S
C721 C720 1.396 . S
C721 C722 1.399 . S
C722 H708 0.929 . S
C722 C721 1.399 . S
C722 C723 1.385 . S
C723 H709 0.931 . S
C723 C722 1.385 . S
C723 C724 1.389 . S
C724 C723 1.389 . S
C724 C725 1.387 . S
C725 H710 0.930 . S
C725 C720 1.390 . S
C725 C724 1.387 . S
H726 C738 0.930 . S
H727 C740 0.930 . S
H728 C741 0.930 . S
H729 C745 0.959 . S
H730 C745 0.959 1_554 S
H731 C745 0.961 . S
H732 C746 0.960 . S
H733 C746 0.961 . S
H734 C746 0.959 . S
H735 C749 0.929 . S
H736 C750 0.931 . S
H737 C752 0.930 . S
C738 H726 0.930 . S
C738 C739 1.399 . S
C738 C743 1.399 . S
C739 C738 1.399 . S
C739 C740 1.376 . S
C740 H727 0.930 . S
C740 C739 1.376 . S
C740 C741 1.388 . S
C741 H728 0.930 . S
C741 C740 1.388 . S
C741 C742 1.390 . S
C742 C741 1.390 . S
C742 C743 1.394 . S
C742 C748 1.465 . S
C743 C738 1.399 . S
C743 C742 1.394 . S
C743 C744 1.516 . S
C744 C743 1.516 . S
C744 C745 1.502 . S
C744 C746 1.561 . S
C744 C747 1.526 . S
C745 H729 0.959 . S
C745 H730 0.959 1_556 S
C745 H731 0.961 . S
C745 C744 1.502 . S
C746 H732 0.960 . S
C746 H733 0.961 . S
C746 H734 0.959 . S
C746 C744 1.561 . S
C747 C744 1.526 . S
C747 C748 1.396 . S
C747 C752 1.390 . S
C748 C742 1.465 . S
C748 C747 1.396 . S
C748 C749 1.399 . S
C749 H735 0.929 . S
C749 C748 1.399 . S
C749 C750 1.385 . S
C750 H736 0.931 . S
C750 C749 1.385 . S
C750 C751 1.389 . S
C751 C750 1.389 . S
C751 C752 1.387 . S
C752 H737 0.930 . S
C752 C747 1.390 . S
C752 C751 1.387 . S
H753 C765 0.930 . S
H754 C767 0.930 1_556 S
H755 C768 0.930 . S
H756 C772 0.959 . S
H757 C772 0.959 . S
H758 C772 0.961 . S
H759 C773 0.960 . S
H760 C773 0.961 . S
H761 C773 0.959 . S
H762 C776 0.929 . S
H763 C777 0.931 . S
H764 C779 0.930 . S
C765 H753 0.930 . S
C765 C766 1.399 . S
C765 C770 1.399 . S
C766 C765 1.399 . S
C766 C767 1.376 . S
C767 H754 0.930 1_554 S
C767 C766 1.376 . S
C767 C768 1.388 . S
C768 H755 0.930 . S
C768 C767 1.388 . S
C768 C769 1.390 . S
C769 C768 1.390 . S
C769 C770 1.394 . S
C769 C775 1.465 . S
C770 C765 1.399 . S
C770 C769 1.394 . S
C770 C771 1.516 . S
C771 C770 1.516 . S
C771 C772 1.502 . S
C771 C773 1.561 . S
C771 C774 1.526 . S
C772 H756 0.959 . S
C772 H757 0.959 . S
C772 H758 0.961 . S
C772 C771 1.502 . S
C773 H759 0.960 . S
C773 H760 0.961 . S
C773 H761 0.959 . S
C773 C771 1.561 . S
C774 C771 1.526 . S
C774 C775 1.396 . S
C774 C779 1.390 . S
C775 C769 1.465 . S
C775 C774 1.396 . S
C775 C776 1.399 . S
C776 H762 0.929 . S
C776 C775 1.399 . S
C776 C777 1.385 . S
C777 H763 0.931 . S
C777 C776 1.385 . S
C777 C778 1.389 . S
C778 C777 1.389 . S
C778 C779 1.387 . S
C779 H764 0.930 . S
C779 C774 1.390 . S
C779 C778 1.387 . S
H780 C792 0.930 . S
H781 C794 0.930 . S
H782 C795 0.930 . S
H783 C799 0.959 . S
H784 C799 0.959 . S
H785 C799 0.961 . S
H786 C800 0.960 . S
H787 C800 0.961 . S
H788 C800 0.959 . S
H789 C803 0.929 . S
H790 C804 0.931 . S
H791 C806 0.930 . S
C792 H780 0.930 . S
C792 C793 1.399 . S
C792 C797 1.399 . S
C793 C792 1.399 . S
C793 C794 1.376 . S
C794 H781 0.930 . S
C794 C793 1.376 . S
C794 C795 1.388 . S
C795 H782 0.930 . S
C795 C794 1.388 . S
C795 C796 1.390 . S
C796 C795 1.390 . S
C796 C797 1.394 . S
C796 C802 1.465 . S
C797 C792 1.399 . S
C797 C796 1.394 . S
C797 C798 1.516 . S
C798 C797 1.516 . S
C798 C799 1.502 . S
C798 C800 1.561 . S
C798 C801 1.526 . S
C799 H783 0.959 . S
C799 H784 0.959 . S
C799 H785 0.961 . S
C799 C798 1.502 . S
C800 H786 0.960 . S
C800 H787 0.961 . S
C800 H788 0.959 . S
C800 C798 1.561 . S
C801 C798 1.526 . S
C801 C802 1.396 . S
C801 C806 1.390 . S
C802 C796 1.465 . S
C802 C801 1.396 . S
C802 C803 1.399 . S
C803 H789 0.929 . S
C803 C802 1.399 . S
C803 C804 1.385 . S
C804 H790 0.931 . S
C804 C803 1.385 . S
C804 C805 1.389 . S
C805 C804 1.389 . S
C805 C806 1.387 . S
C806 H791 0.930 . S
C806 C801 1.390 . S
C806 C805 1.387 . S
H807 C819 0.930 . S
H808 C821 0.930 . S
H809 C822 0.930 . S
H810 C826 0.959 . S
H811 C826 0.959 . S
H812 C826 0.961 . S
H813 C827 0.960 . S
H814 C827 0.961 . S
H815 C827 0.959 . S
H816 C830 0.929 . S
H817 C831 0.931 . S
H818 C833 0.930 . S
C819 H807 0.930 . S
C819 C820 1.399 . S
C819 C824 1.399 . S
C820 C819 1.399 . S
C820 C821 1.376 . S
C821 H808 0.930 . S
C821 C820 1.376 . S
C821 C822 1.388 . S
C822 H809 0.930 . S
C822 C821 1.388 . S
C822 C823 1.390 . S
C823 C822 1.390 . S
C823 C824 1.394 . S
C823 C829 1.465 . S
C824 C819 1.399 . S
C824 C823 1.394 . S
C824 C825 1.516 . S
C825 C824 1.516 . S
C825 C826 1.502 . S
C825 C827 1.561 . S
C825 C828 1.526 . S
C826 H810 0.959 . S
C826 H811 0.959 . S
C826 H812 0.961 . S
C826 C825 1.502 . S
C827 H813 0.960 . S
C827 H814 0.961 . S
C827 H815 0.959 . S
C827 C825 1.561 . S
C828 C825 1.526 . S
C828 C829 1.396 . S
C828 C833 1.390 . S
C829 C823 1.465 . S
C829 C828 1.396 . S
C829 C830 1.399 . S
C830 H816 0.929 . S
C830 C829 1.399 . S
C830 C831 1.385 . S
C831 H817 0.931 . S
C831 C830 1.385 . S
C831 C832 1.389 . S
C832 C831 1.389 . S
C832 C833 1.387 . S
C833 H818 0.930 . S
C833 C828 1.390 . S
C833 C832 1.387 . S
H834 C846 0.930 . S
H835 C848 0.930 . S
H836 C849 0.930 . S
H837 C853 0.959 . S
H838 C853 0.959 . S
H839 C853 0.961 . S
H840 C854 0.960 . S
H841 C854 0.961 . S
H842 C854 0.959 . S
H843 C857 0.929 . S
H844 C858 0.931 . S
H845 C860 0.930 . S
C846 H834 0.930 . S
C846 C847 1.399 . S
C846 C851 1.399 . S
C847 C846 1.399 . S
C847 C848 1.376 . S
C848 H835 0.930 . S
C848 C847 1.376 . S
C848 C849 1.388 . S
C849 H836 0.930 . S
C849 C848 1.388 . S
C849 C850 1.390 . S
C850 C849 1.390 . S
C850 C851 1.394 . S
C850 C856 1.465 . S
C851 C846 1.399 . S
C851 C850 1.394 . S
C851 C852 1.516 . S
C852 C851 1.516 . S
C852 C853 1.502 . S
C852 C854 1.561 . S
C852 C855 1.526 . S
C853 H837 0.959 . S
C853 H838 0.959 . S
C853 H839 0.961 . S
C853 C852 1.502 . S
C854 H840 0.960 . S
C854 H841 0.961 . S
C854 H842 0.959 . S
C854 C852 1.561 . S
C855 C852 1.526 . S
C855 C856 1.396 . S
C855 C860 1.390 . S
C856 C850 1.465 . S
C856 C855 1.396 . S
C856 C857 1.399 . S
C857 H843 0.929 . S
C857 C856 1.399 . S
C857 C858 1.385 . S
C858 H844 0.931 . S
C858 C857 1.385 . S
C858 C859 1.389 . S
C859 C858 1.389 . S
C859 C860 1.387 . S
C860 H845 0.930 . S
C860 C855 1.390 . S
C860 C859 1.387 . S
H861 C873 0.930 . S
H862 C875 0.930 . S
H863 C876 0.930 . S
H864 C880 0.959 . S
H865 C880 0.959 . S
H866 C880 0.961 . S
H867 C881 0.960 . S
H868 C881 0.961 1_554 S
H869 C881 0.959 . S
H870 C884 0.929 . S
H871 C885 0.931 . S
H872 C887 0.930 . S
C873 H861 0.930 . S
C873 C874 1.399 . S
C873 C878 1.399 . S
C874 C873 1.399 . S
C874 C875 1.376 . S
C875 H862 0.930 . S
C875 C874 1.376 . S
C875 C876 1.388 . S
C876 H863 0.930 . S
C876 C875 1.388 . S
C876 C877 1.390 . S
C877 C876 1.390 . S
C877 C878 1.394 . S
C877 C883 1.465 . S
C878 C873 1.399 . S
C878 C877 1.394 . S
C878 C879 1.516 . S
C879 C878 1.516 . S
C879 C880 1.502 . S
C879 C881 1.561 . S
C879 C882 1.526 . S
C880 H864 0.959 . S
C880 H865 0.959 . S
C880 H866 0.961 . S
C880 C879 1.502 . S
C881 H867 0.960 . S
C881 H868 0.961 1_556 S
C881 H869 0.959 . S
C881 C879 1.561 . S
C882 C879 1.526 . S
C882 C883 1.396 . S
C882 C887 1.390 . S
C883 C877 1.465 . S
C883 C882 1.396 . S
C883 C884 1.399 . S
C884 H870 0.929 . S
C884 C883 1.399 . S
C884 C885 1.385 . S
C885 H871 0.931 . S
C885 C884 1.385 . S
C885 C886 1.389 . S
C886 C885 1.389 . S
C886 C887 1.387 . S
C887 H872 0.930 . S
C887 C882 1.390 . S
C887 C886 1.387 . S
H888 C900 0.930 . S
H889 C902 0.930 . S
H890 C903 0.930 . S
H891 C907 0.959 . S
H892 C907 0.959 . S
H893 C907 0.961 . S
H894 C908 0.960 . S
H895 C908 0.961 . S
H896 C908 0.959 . S
H897 C911 0.929 . S
H898 C912 0.931 . S
H899 C914 0.930 . S
C900 H888 0.930 . S
C900 C901 1.399 . S
C900 C905 1.399 . S
C901 C900 1.399 . S
C901 C902 1.376 . S
C902 H889 0.930 . S
C902 C901 1.376 . S
C902 C903 1.388 . S
C903 H890 0.930 . S
C903 C902 1.388 . S
C903 C904 1.390 . S
C904 C903 1.390 . S
C904 C905 1.394 . S
C904 C910 1.465 . S
C905 C900 1.399 . S
C905 C904 1.394 . S
C905 C906 1.516 . S
C906 C905 1.516 . S
C906 C907 1.502 . S
C906 C908 1.561 . S
C906 C909 1.526 . S
C907 H891 0.959 . S
C907 H892 0.959 . S
C907 H893 0.961 . S
C907 C906 1.502 . S
C908 H894 0.960 . S
C908 H895 0.961 . S
C908 H896 0.959 . S
C908 C906 1.561 . S
C909 C906 1.526 . S
C909 C910 1.396 . S
C909 C914 1.390 . S
C910 C904 1.465 . S
C910 C909 1.396 . S
C910 C911 1.399 . S
C911 H897 0.929 . S
C911 C910 1.399 . S
C911 C912 1.385 . S
C912 H898 0.931 . S
C912 C911 1.385 . S
C912 C913 1.389 . S
C913 C912 1.389 . S
C913 C914 1.387 . S
C914 H899 0.930 . S
C914 C909 1.390 . S
C914 C913 1.387 . S
H915 C927 0.930 . S
H916 C929 0.930 . S
H917 C930 0.930 . S
H918 C934 0.959 . S
H919 C934 0.959 1_556 S
H920 C934 0.961 . S
H921 C935 0.960 . S
H922 C935 0.961 . S
H923 C935 0.959 . S
H924 C938 0.929 . S
H925 C939 0.931 . S
H926 C941 0.930 . S
C927 H915 0.930 . S
C927 C928 1.399 . S
C927 C932 1.399 . S
C928 C927 1.399 . S
C928 C929 1.376 . S
C929 H916 0.930 . S
C929 C928 1.376 . S
C929 C930 1.388 . S
C930 H917 0.930 . S
C930 C929 1.388 . S
C930 C931 1.390 . S
C931 C930 1.390 . S
C931 C932 1.394 . S
C931 C937 1.465 . S
C932 C927 1.399 . S
C932 C931 1.394 . S
C932 C933 1.516 . S
C933 C932 1.516 . S
C933 C934 1.502 . S
C933 C935 1.561 . S
C933 C936 1.526 . S
C934 H918 0.959 . S
C934 H919 0.959 1_554 S
C934 H920 0.961 . S
C934 C933 1.502 . S
C935 H921 0.960 . S
C935 H922 0.961 . S
C935 H923 0.959 . S
C935 C933 1.561 . S
C936 C933 1.526 . S
C936 C937 1.396 . S
C936 C941 1.390 . S
C937 C931 1.465 . S
C937 C936 1.396 . S
C937 C938 1.399 . S
C938 H924 0.929 . S
C938 C937 1.399 . S
C938 C939 1.385 . S
C939 H925 0.931 . S
C939 C938 1.385 . S
C939 C940 1.389 . S
C940 C939 1.389 . S
C940 C941 1.387 . S
C941 H926 0.930 . S
C941 C936 1.390 . S
C941 C940 1.387 . S
H942 C954 0.930 . S
H943 C956 0.930 . S
H944 C957 0.930 . S
H945 C961 0.959 . S
H946 C961 0.959 . S
H947 C961 0.961 . S
H948 C962 0.960 . S
H949 C962 0.961 . S
H950 C962 0.959 . S
H951 C965 0.929 . S
H952 C966 0.931 . S
H953 C968 0.930 . S
C954 H942 0.930 . S
C954 C955 1.399 . S
C954 C959 1.399 . S
C955 C954 1.399 . S
C955 C956 1.376 . S
C956 H943 0.930 . S
C956 C955 1.376 . S
C956 C957 1.388 . S
C957 H944 0.930 . S
C957 C956 1.388 . S
C957 C958 1.390 . S
C958 C957 1.390 . S
C958 C959 1.394 . S
C958 C964 1.465 . S
C959 C954 1.399 . S
C959 C958 1.394 . S
C959 C960 1.516 . S
C960 C959 1.516 . S
C960 C961 1.502 . S
C960 C962 1.561 . S
C960 C963 1.526 . S
C961 H945 0.959 . S
C961 H946 0.959 . S
C961 H947 0.961 . S
C961 C960 1.502 . S
C962 H948 0.960 . S
C962 H949 0.961 . S
C962 H950 0.959 . S
C962 C960 1.561 . S
C963 C960 1.526 . S
C963 C964 1.396 . S
C963 C968 1.390 . S
C964 C958 1.465 . S
C964 C963 1.396 . S
C964 C965 1.399 . S
C965 H951 0.929 . S
C965 C964 1.399 . S
C965 C966 1.385 . S
C966 H952 0.931 . S
C966 C965 1.385 . S
C966 C967 1.389 . S
C967 C966 1.389 . S
C967 C968 1.387 . S
C968 H953 0.930 . S
C968 C963 1.390 . S
C968 C967 1.387 . S
H969 C981 0.930 . S
H970 C983 0.930 . S
H971 C984 0.930 . S
H972 C988 0.959 . S
H973 C988 0.959 . S
H974 C988 0.961 . S
H975 C989 0.960 . S
H976 C989 0.961 . S
H977 C989 0.959 . S
H978 C992 0.929 . S
H979 C993 0.931 . S
H980 C995 0.930 . S
C981 H969 0.930 . S
C981 C982 1.399 . S
C981 C986 1.399 . S
C982 C981 1.399 . S
C982 C983 1.376 . S
C983 H970 0.930 . S
C983 C982 1.376 . S
C983 C984 1.388 . S
C984 H971 0.930 . S
C984 C983 1.388 . S
C984 C985 1.390 . S
C985 C984 1.390 . S
C985 C986 1.394 . S
C985 C991 1.465 . S
C986 C981 1.399 . S
C986 C985 1.394 . S
C986 C987 1.516 . S
C987 C986 1.516 . S
C987 C988 1.502 . S
C987 C989 1.561 . S
C987 C990 1.526 . S
C988 H972 0.959 . S
C988 H973 0.959 . S
C988 H974 0.961 . S
C988 C987 1.502 . S
C989 H975 0.960 . S
C989 H976 0.961 . S
C989 H977 0.959 . S
C989 C987 1.561 . S
C990 C987 1.526 . S
C990 C991 1.396 . S
C990 C995 1.390 . S
C991 C985 1.465 . S
C991 C990 1.396 . S
C991 C992 1.399 . S
C992 H978 0.929 . S
C992 C991 1.399 . S
C992 C993 1.385 . S
C993 H979 0.931 . S
C993 C992 1.385 . S
C993 C994 1.389 . S
C994 C993 1.389 . S
C994 C995 1.387 . S
C995 H980 0.930 . S
C995 C990 1.390 . S
C995 C994 1.387 . S
H996 C1008 0.930 . S
H997 C1010 0.930 . S
H998 C1011 0.930 . S
H999 C1015 0.959 . S
H1000 C1015 0.959 . S
H1001 C1015 0.961 . S
H1002 C1016 0.960 . S
H1003 C1016 0.961 . S
H1004 C1016 0.959 . S
H1005 C1019 0.929 . S
H1006 C1020 0.931 . S
H1007 C1022 0.930 . S
C1008 H996 0.930 . S
C1008 C1009 1.399 . S
C1008 C1013 1.399 . S
C1009 C1008 1.399 . S
C1009 C1010 1.376 . S
C1010 H997 0.930 . S
C1010 C1009 1.376 . S
C1010 C1011 1.388 . S
C1011 H998 0.930 . S
C1011 C1010 1.388 . S
C1011 C1012 1.390 . S
C1012 C1011 1.390 . S
C1012 C1013 1.394 . S
C1012 C1018 1.465 . S
C1013 C1008 1.399 . S
C1013 C1012 1.394 . S
C1013 C1014 1.516 . S
C1014 C1013 1.516 . S
C1014 C1015 1.502 . S
C1014 C1016 1.561 . S
C1014 C1017 1.526 . S
C1015 H999 0.959 . S
C1015 H1000 0.959 . S
C1015 H1001 0.961 . S
C1015 C1014 1.502 . S
C1016 H1002 0.960 . S
C1016 H1003 0.961 . S
C1016 H1004 0.959 . S
C1016 C1014 1.561 . S
C1017 C1014 1.526 . S
C1017 C1018 1.396 . S
C1017 C1022 1.390 . S
C1018 C1012 1.465 . S
C1018 C1017 1.396 . S
C1018 C1019 1.399 . S
C1019 H1005 0.929 . S
C1019 C1018 1.399 . S
C1019 C1020 1.385 . S
C1020 H1006 0.931 . S
C1020 C1019 1.385 . S
C1020 C1021 1.389 . S
C1021 C1020 1.389 . S
C1021 C1022 1.387 . S
C1022 H1007 0.930 . S
C1022 C1017 1.390 . S
C1022 C1021 1.387 . S
H1023 C1035 0.930 . S
H1024 C1037 0.930 1_554 S
H1025 C1038 0.930 . S
H1026 C1042 0.959 . S
H1027 C1042 0.959 . S
H1028 C1042 0.961 . S
H1029 C1043 0.960 . S
H1030 C1043 0.961 . S
H1031 C1043 0.959 . S
H1032 C1046 0.929 . S
H1033 C1047 0.931 . S
H1034 C1049 0.930 . S
C1035 H1023 0.930 . S
C1035 C1036 1.399 . S
C1035 C1040 1.399 . S
C1036 C1035 1.399 . S
C1036 C1037 1.376 . S
C1037 H1024 0.930 1_556 S
C1037 C1036 1.376 . S
C1037 C1038 1.388 . S
C1038 H1025 0.930 . S
C1038 C1037 1.388 . S
C1038 C1039 1.390 . S
C1039 C1038 1.390 . S
C1039 C1040 1.394 . S
C1039 C1045 1.465 . S
C1040 C1035 1.399 . S
C1040 C1039 1.394 . S
C1040 C1041 1.516 . S
C1041 C1040 1.516 . S
C1041 C1042 1.502 . S
C1041 C1043 1.561 . S
C1041 C1044 1.526 . S
C1042 H1026 0.959 . S
C1042 H1027 0.959 . S
C1042 H1028 0.961 . S
C1042 C1041 1.502 . S
C1043 H1029 0.960 . S
C1043 H1030 0.961 . S
C1043 H1031 0.959 . S
C1043 C1041 1.561 . S
C1044 C1041 1.526 . S
C1044 C1045 1.396 . S
C1044 C1049 1.390 . S
C1045 C1039 1.465 . S
C1045 C1044 1.396 . S
C1045 C1046 1.399 . S
C1046 H1032 0.929 . S
C1046 C1045 1.399 . S
C1046 C1047 1.385 . S
C1047 H1033 0.931 . S
C1047 C1046 1.385 . S
C1047 C1048 1.389 . S
C1048 C1047 1.389 . S
C1048 C1049 1.387 . S
C1049 H1034 0.930 . S
C1049 C1044 1.390 . S
C1049 C1048 1.387 . S
H1050 C1062 0.930 . S
H1051 C1064 0.930 . S
H1052 C1065 0.930 . S
H1053 C1069 0.959 . S
H1054 C1069 0.959 . S
H1055 C1069 0.961 . S
H1056 C1070 0.960 . S
H1057 C1070 0.961 . S
H1058 C1070 0.959 . S
H1059 C1073 0.929 . S
H1060 C1074 0.931 . S
H1061 C1076 0.930 . S
C1062 H1050 0.930 . S
C1062 C1063 1.399 . S
C1062 C1067 1.399 . S
C1063 C1062 1.399 . S
C1063 C1064 1.376 . S
C1064 H1051 0.930 . S
C1064 C1063 1.376 . S
C1064 C1065 1.388 . S
C1065 H1052 0.930 . S
C1065 C1064 1.388 . S
C1065 C1066 1.390 . S
C1066 C1065 1.390 . S
C1066 C1067 1.394 . S
C1066 C1072 1.465 . S
C1067 C1062 1.399 . S
C1067 C1066 1.394 . S
C1067 C1068 1.516 . S
C1068 C1067 1.516 . S
C1068 C1069 1.502 . S
C1068 C1070 1.561 . S
C1068 C1071 1.526 . S
C1069 H1053 0.959 . S
C1069 H1054 0.959 . S
C1069 H1055 0.961 . S
C1069 C1068 1.502 . S
C1070 H1056 0.960 . S
C1070 H1057 0.961 . S
C1070 H1058 0.959 . S
C1070 C1068 1.561 . S
C1071 C1068 1.526 . S
C1071 C1072 1.396 . S
C1071 C1076 1.390 . S
C1072 C1066 1.465 . S
C1072 C1071 1.396 . S
C1072 C1073 1.399 . S
C1073 H1059 0.929 . S
C1073 C1072 1.399 . S
C1073 C1074 1.385 . S
C1074 H1060 0.931 . S
C1074 C1073 1.385 . S
C1074 C1075 1.389 . S
C1075 C1074 1.389 . S
C1075 C1076 1.387 . S
C1076 H1061 0.930 . S
C1076 C1071 1.390 . S
C1076 C1075 1.387 . S
H1077 C1089 0.930 . S
H1078 C1091 0.930 . S
H1079 C1092 0.930 . S
H1080 C1096 0.959 . S
H1081 C1096 0.959 . S
H1082 C1096 0.961 . S
H1083 C1097 0.960 . S
H1084 C1097 0.961 . S
H1085 C1097 0.959 . S
H1086 C1100 0.929 . S
H1087 C1101 0.931 . S
H1088 C1103 0.930 . S
C1089 H1077 0.930 . S
C1089 C1090 1.399 . S
C1089 C1094 1.399 . S
C1090 C1089 1.399 . S
C1090 C1091 1.376 . S
C1091 H1078 0.930 . S
C1091 C1090 1.376 . S
C1091 C1092 1.388 . S
C1092 H1079 0.930 . S
C1092 C1091 1.388 . S
C1092 C1093 1.390 . S
C1093 C1092 1.390 . S
C1093 C1094 1.394 . S
C1093 C1099 1.465 . S
C1094 C1089 1.399 . S
C1094 C1093 1.394 . S
C1094 C1095 1.516 . S
C1095 C1094 1.516 . S
C1095 C1096 1.502 . S
C1095 C1097 1.561 . S
C1095 C1098 1.526 . S
C1096 H1080 0.959 . S
C1096 H1081 0.959 . S
C1096 H1082 0.961 . S
C1096 C1095 1.502 . S
C1097 H1083 0.960 . S
C1097 H1084 0.961 . S
C1097 H1085 0.959 . S
C1097 C1095 1.561 . S
C1098 C1095 1.526 . S
C1098 C1099 1.396 . S
C1098 C1103 1.390 . S
C1099 C1093 1.465 . S
C1099 C1098 1.396 . S
C1099 C1100 1.399 . S
C1100 H1086 0.929 . S
C1100 C1099 1.399 . S
C1100 C1101 1.385 . S
C1101 H1087 0.931 . S
C1101 C1100 1.385 . S
C1101 C1102 1.389 . S
C1102 C1101 1.389 . S
C1102 C1103 1.387 . S
C1103 H1088 0.930 . S
C1103 C1098 1.390 . S
C1103 C1102 1.387 . S
H1104 C1116 0.930 . S
H1105 C1118 0.930 . S
H1106 C1119 0.930 . S
H1107 C1123 0.958 1_554 S
H1108 C1123 0.959 1_554 S
H1109 C1123 0.961 . S
H1110 C1124 0.959 . S
H1111 C1124 0.962 1_554 S
H1112 C1124 0.959 1_554 S
H1113 C1127 0.929 . S
H1114 C1128 0.931 . S
H1115 C1130 0.930 . S
C1116 H1104 0.930 . S
C1116 C1117 1.399 1_445 S
C1116 C1121 1.399 . S
C1117 C1116 1.399 1_665 S
C1117 C1118 1.376 . S
C1118 H1105 0.930 . S
C1118 C1117 1.376 . S
C1118 C1119 1.388 . S
C1119 H1106 0.930 . S
C1119 C1118 1.388 . S
C1119 C1120 1.390 . S
C1120 C1119 1.390 . S
C1120 C1121 1.394 1_665 S
C1120 C1126 1.465 1_556 S
C1121 C1116 1.399 . S
C1121 C1120 1.394 1_445 S
C1121 C1122 1.532 . S
C1122 C1121 1.532 . S
C1122 C1123 1.503 . S
C1122 C1124 1.561 1_455 S
C1122 C1125 1.509 1_556 S
C1123 H1107 0.958 1_556 S
C1123 H1108 0.959 1_556 S
C1123 H1109 0.961 . S
C1123 C1122 1.503 . S
C1124 H1110 0.959 . S
C1124 H1111 0.962 1_556 S
C1124 H1112 0.959 1_556 S
C1124 C1122 1.561 1_655 S
C1125 C1122 1.509 1_554 S
C1125 C1126 1.396 1_445 S
C1125 C1130 1.390 . S
C1126 C1120 1.465 1_554 S
C1126 C1125 1.396 1_665 S
C1126 C1127 1.399 . S
C1127 H1113 0.929 . S
C1127 C1126 1.399 . S
C1127 C1128 1.385 . S
C1128 H1114 0.931 . S
C1128 C1127 1.385 . S
C1128 C1129 1.389 1_655 S
C1129 C1128 1.389 1_455 S
C1129 C1130 1.387 1_565 S
C1130 H1115 0.930 . S
C1130 C1125 1.390 . S
C1130 C1129 1.387 1_545 S
H1131 C1143 0.930 . S
H1132 C1145 0.930 . S
H1133 C1146 0.930 . S
H1134 C1150 0.959 . S
H1135 C1150 0.959 . S
H1136 C1150 0.961 . S
H1137 C1151 0.960 . S
H1138 C1151 0.961 . S
H1139 C1151 0.959 . S
H1140 C1154 0.929 . S
H1141 C1155 0.931 . S
H1142 C1157 0.930 . S
C1143 H1131 0.930 . S
C1143 C1144 1.399 . S
C1143 C1148 1.399 . S
C1144 C1143 1.399 . S
C1144 C1145 1.376 . S
C1145 H1132 0.930 . S
C1145 C1144 1.376 . S
C1145 C1146 1.388 . S
C1146 H1133 0.930 . S
C1146 C1145 1.388 . S
C1146 C1147 1.390 . S
C1147 C1146 1.390 . S
C1147 C1148 1.394 . S
C1147 C1153 1.465 . S
C1148 C1143 1.399 . S
C1148 C1147 1.394 . S
C1148 C1149 1.516 . S
C1149 C1148 1.516 . S
C1149 C1150 1.502 . S
C1149 C1151 1.561 . S
C1149 C1152 1.526 . S
C1150 H1134 0.959 . S
C1150 H1135 0.959 . S
C1150 H1136 0.961 . S
C1150 C1149 1.502 . S
C1151 H1137 0.960 . S
C1151 H1138 0.961 . S
C1151 H1139 0.959 . S
C1151 C1149 1.561 . S
C1152 C1149 1.526 . S
C1152 C1153 1.396 . S
C1152 C1157 1.390 . S
C1153 C1147 1.465 . S
C1153 C1152 1.396 . S
C1153 C1154 1.399 . S
C1154 H1140 0.929 . S
C1154 C1153 1.399 . S
C1154 C1155 1.385 . S
C1155 H1141 0.931 . S
C1155 C1154 1.385 . S
C1155 C1156 1.389 . S
C1156 C1155 1.389 . S
C1156 C1157 1.387 . S
C1157 H1142 0.930 . S
C1157 C1152 1.390 . S
C1157 C1156 1.387 . S
H1158 C1170 0.930 . S
H1159 C1172 0.930 . S
H1160 C1173 0.930 . S
H1161 C1177 0.959 . S
H1162 C1177 0.959 . S
H1163 C1177 0.961 . S
H1164 C1178 0.960 . S
H1165 C1178 0.961 . S
H1166 C1178 0.959 . S
H1167 C1181 0.929 . S
H1168 C1182 0.931 . S
H1169 C1184 0.930 . S
C1170 H1158 0.930 . S
C1170 C1171 1.413 . S
C1170 C1175 1.399 . S
C1171 C1170 1.413 . S
C1171 C1172 1.358 1_565 S
C1172 H1159 0.930 . S
C1172 C1171 1.358 1_545 S
C1172 C1173 1.388 . S
C1173 H1160 0.930 . S
C1173 C1172 1.388 . S
C1173 C1174 1.390 . S
C1174 C1173 1.390 . S
C1174 C1175 1.394 1_545 S
C1174 C1180 1.465 . S
C1175 C1170 1.399 . S
C1175 C1174 1.394 1_565 S
C1175 C1176 1.516 . S
C1176 C1175 1.516 . S
C1176 C1177 1.502 . S
C1176 C1178 1.561 . S
C1176 C1179 1.526 . S
C1177 H1161 0.959 . S
C1177 H1162 0.959 . S
C1177 H1163 0.961 . S
C1177 C1176 1.502 . S
C1178 H1164 0.960 . S
C1178 H1165 0.961 . S
C1178 H1166 0.959 . S
C1178 C1176 1.561 . S
C1179 C1176 1.526 . S
C1179 C1180 1.396 1_565 S
C1179 C1184 1.390 . S
C1180 C1174 1.465 . S
C1180 C1179 1.396 1_545 S
C1180 C1181 1.399 . S
C1181 H1167 0.929 . S
C1181 C1180 1.399 . S
C1181 C1182 1.385 . S
C1182 H1168 0.931 . S
C1182 C1181 1.385 . S
C1182 C1183 1.389 . S
C1183 C1182 1.389 . S
C1183 C1184 1.387 1_545 S
C1184 H1169 0.930 . S
C1184 C1179 1.390 . S
C1184 C1183 1.387 1_565 S
H1185 C1197 0.930 . S
H1186 C1199 0.930 . S
H1187 C1200 0.930 . S
H1188 C1204 0.959 . S
H1189 C1204 0.959 . S
H1190 C1204 0.961 . S
H1191 C1205 0.960 . S
H1192 C1205 0.961 . S
H1193 C1205 0.959 . S
H1194 C1208 0.929 . S
H1195 C1209 0.931 . S
H1196 C1211 0.930 . S
C1197 H1185 0.930 . S
C1197 C1198 1.399 . S
C1197 C1202 1.399 . S
C1198 C1197 1.399 . S
C1198 C1199 1.376 . S
C1199 H1186 0.930 . S
C1199 C1198 1.376 . S
C1199 C1200 1.388 . S
C1200 H1187 0.930 . S
C1200 C1199 1.388 . S
C1200 C1201 1.390 . S
C1201 C1200 1.390 . S
C1201 C1202 1.394 . S
C1201 C1207 1.465 . S
C1202 C1197 1.399 . S
C1202 C1201 1.394 . S
C1202 C1203 1.516 . S
C1203 C1202 1.516 . S
C1203 C1204 1.502 . S
C1203 C1205 1.561 . S
C1203 C1206 1.526 . S
C1204 H1188 0.959 . S
C1204 H1189 0.959 . S
C1204 H1190 0.961 . S
C1204 C1203 1.502 . S
C1205 H1191 0.960 . S
C1205 H1192 0.961 . S
C1205 H1193 0.959 . S
C1205 C1203 1.561 . S
C1206 C1203 1.526 . S
C1206 C1207 1.396 . S
C1206 C1211 1.390 . S
C1207 C1201 1.465 . S
C1207 C1206 1.396 . S
C1207 C1208 1.399 . S
C1208 H1194 0.929 . S
C1208 C1207 1.399 . S
C1208 C1209 1.385 . S
C1209 H1195 0.931 . S
C1209 C1208 1.385 . S
C1209 C1210 1.389 . S
C1210 C1209 1.389 . S
C1210 C1211 1.387 . S
C1211 H1196 0.930 . S
C1211 C1206 1.390 . S
C1211 C1210 1.387 . S
H1212 C1224 0.930 . S
H1213 C1226 0.930 . S
H1214 C1227 0.930 . S
H1215 C1231 0.959 . S
H1216 C1231 0.959 . S
H1217 C1231 0.961 . S
H1218 C1232 0.960 . S
H1219 C1232 0.961 . S
H1220 C1232 0.959 . S
H1221 C1235 0.929 . S
H1222 C1236 0.931 . S
H1223 C1238 0.930 . S
C1224 H1212 0.930 . S
C1224 C1225 1.399 . S
C1224 C1229 1.399 . S
C1225 C1224 1.399 . S
C1225 C1226 1.376 . S
C1226 H1213 0.930 . S
C1226 C1225 1.376 . S
C1226 C1227 1.388 . S
C1227 H1214 0.930 . S
C1227 C1226 1.388 . S
C1227 C1228 1.390 . S
C1228 C1227 1.390 . S
C1228 C1229 1.394 . S
C1228 C1234 1.465 . S
C1229 C1224 1.399 . S
C1229 C1228 1.394 . S
C1229 C1230 1.516 . S
C1230 C1229 1.516 . S
C1230 C1231 1.502 . S
C1230 C1232 1.561 . S
C1230 C1233 1.526 . S
C1231 H1215 0.959 . S
C1231 H1216 0.959 . S
C1231 H1217 0.961 . S
C1231 C1230 1.502 . S
C1232 H1218 0.960 . S
C1232 H1219 0.961 . S
C1232 H1220 0.959 . S
C1232 C1230 1.561 . S
C1233 C1230 1.526 . S
C1233 C1234 1.396 . S
C1233 C1238 1.390 . S
C1234 C1228 1.465 . S
C1234 C1233 1.396 . S
C1234 C1235 1.399 . S
C1235 H1221 0.929 . S
C1235 C1234 1.399 . S
C1235 C1236 1.385 . S
C1236 H1222 0.931 . S
C1236 C1235 1.385 . S
C1236 C1237 1.389 . S
C1237 C1236 1.389 . S
C1237 C1238 1.387 . S
C1238 H1223 0.930 . S
C1238 C1233 1.390 . S
C1238 C1237 1.387 . S
H1239 C1251 0.930 . S
H1240 C1253 0.930 . S
H1241 C1254 0.930 . S
H1242 C1258 0.959 . S
H1243 C1258 0.959 . S
H1244 C1258 0.961 . S
H1245 C1259 0.960 . S
H1246 C1259 0.961 . S
H1247 C1259 0.959 . S
H1248 C1262 0.929 . S
H1249 C1263 0.931 . S
H1250 C1265 0.930 . S
C1251 H1239 0.930 . S
C1251 C1252 1.399 . S
C1251 C1256 1.399 . S
C1252 C1251 1.399 . S
C1252 C1253 1.376 . S
C1253 H1240 0.930 . S
C1253 C1252 1.376 . S
C1253 C1254 1.388 . S
C1254 H1241 0.930 . S
C1254 C1253 1.388 . S
C1254 C1255 1.390 . S
C1255 C1254 1.390 . S
C1255 C1256 1.394 . S
C1255 C1261 1.465 . S
C1256 C1251 1.399 . S
C1256 C1255 1.394 . S
C1256 C1257 1.516 . S
C1257 C1256 1.516 . S
C1257 C1258 1.502 . S
C1257 C1259 1.561 . S
C1257 C1260 1.526 . S
C1258 H1242 0.959 . S
C1258 H1243 0.959 . S
C1258 H1244 0.961 . S
C1258 C1257 1.502 . S
C1259 H1245 0.960 . S
C1259 H1246 0.961 . S
C1259 H1247 0.959 . S
C1259 C1257 1.561 . S
C1260 C1257 1.526 . S
C1260 C1261 1.396 . S
C1260 C1265 1.390 . S
C1261 C1255 1.465 . S
C1261 C1260 1.396 . S
C1261 C1262 1.399 . S
C1262 H1248 0.929 . S
C1262 C1261 1.399 . S
C1262 C1263 1.385 . S
C1263 H1249 0.931 . S
C1263 C1262 1.385 . S
C1263 C1264 1.389 . S
C1264 C1263 1.389 . S
C1264 C1265 1.387 . S
C1265 H1250 0.930 . S
C1265 C1260 1.390 . S
C1265 C1264 1.387 . S
H1266 C1278 0.930 . S
H1267 C1280 0.930 . S
H1268 C1281 0.930 . S
H1269 C1285 0.959 . S
H1270 C1285 0.959 . S
H1271 C1285 0.961 . S
H1272 C1286 0.960 . S
H1273 C1286 0.961 . S
H1274 C1286 0.959 . S
H1275 C1289 0.929 . S
H1276 C1290 0.931 . S
H1277 C1292 0.930 . S
C1278 H1266 0.930 . S
C1278 C1279 1.399 . S
C1278 C1283 1.399 . S
C1279 C1278 1.399 . S
C1279 C1280 1.376 . S
C1280 H1267 0.930 . S
C1280 C1279 1.376 . S
C1280 C1281 1.388 . S
C1281 H1268 0.930 . S
C1281 C1280 1.388 . S
C1281 C1282 1.390 . S
C1282 C1281 1.390 . S
C1282 C1283 1.394 . S
C1282 C1288 1.465 . S
C1283 C1278 1.399 . S
C1283 C1282 1.394 . S
C1283 C1284 1.516 . S
C1284 C1283 1.516 . S
C1284 C1285 1.502 . S
C1284 C1286 1.561 . S
C1284 C1287 1.526 . S
C1285 H1269 0.959 . S
C1285 H1270 0.959 . S
C1285 H1271 0.961 . S
C1285 C1284 1.502 . S
C1286 H1272 0.960 . S
C1286 H1273 0.961 . S
C1286 H1274 0.959 . S
C1286 C1284 1.561 . S
C1287 C1284 1.526 . S
C1287 C1288 1.396 . S
C1287 C1292 1.390 . S
C1288 C1282 1.465 . S
C1288 C1287 1.396 . S
C1288 C1289 1.399 . S
C1289 H1275 0.929 . S
C1289 C1288 1.399 . S
C1289 C1290 1.385 . S
C1290 H1276 0.931 . S
C1290 C1289 1.385 . S
C1290 C1291 1.389 . S
C1291 C1290 1.389 . S
C1291 C1292 1.387 . S
C1292 H1277 0.930 . S
C1292 C1287 1.390 . S
C1292 C1291 1.387 . S
H1293 C1305 0.930 . S
H1294 C1307 0.930 . S
H1295 C1308 0.930 . S
H1296 C1312 0.959 1_554 S
H1297 C1312 0.959 1_454 S
H1298 C1312 0.961 1_455 S
H1299 C1313 0.960 . S
H1300 C1313 0.961 1_554 S
H1301 C1313 0.959 . S
H1302 C1316 0.929 . S
H1303 C1317 0.931 . S
H1304 C1319 0.930 . S
C1305 H1293 0.930 . S
C1305 C1306 1.399 1_455 S
C1305 C1310 1.399 . S
C1306 C1305 1.399 1_655 S
C1306 C1307 1.376 . S
C1307 H1294 0.930 . S
C1307 C1306 1.376 . S
C1307 C1308 1.388 . S
C1308 H1295 0.930 . S
C1308 C1307 1.388 . S
C1308 C1309 1.390 . S
C1309 C1308 1.390 . S
C1309 C1310 1.394 1_655 S
C1309 C1315 1.465 1_556 S
C1310 C1305 1.399 . S
C1310 C1309 1.394 1_455 S
C1310 C1311 1.516 . S
C1311 C1310 1.516 . S
C1311 C1312 1.502 1_455 S
C1311 C1313 1.561 . S
C1311 C1314 1.526 1_556 S
C1312 H1296 0.959 1_556 S
C1312 H1297 0.959 1_656 S
C1312 H1298 0.961 1_655 S
C1312 C1311 1.502 1_655 S
C1313 H1299 0.960 . S
C1313 H1300 0.961 1_556 S
C1313 H1301 0.959 . S
C1313 C1311 1.561 . S
C1314 C1311 1.526 1_554 S
C1314 C1315 1.396 1_455 S
C1314 C1319 1.390 . S
C1315 C1309 1.465 1_554 S
C1315 C1314 1.396 1_655 S
C1315 C1316 1.399 . S
C1316 H1302 0.929 . S
C1316 C1315 1.399 . S
C1316 C1317 1.385 . S
C1317 H1303 0.931 . S
C1317 C1316 1.385 . S
C1317 C1318 1.389 1_655 S
C1318 C1317 1.389 1_455 S
C1318 C1319 1.387 . S
C1319 H1304 0.930 . S
C1319 C1314 1.390 . S
C1319 C1318 1.387 . S
C685 C56 1.613 . S
C697 C308 1.597 . S
C712 C74 1.450 . S
C724 C140 1.449 . S
C739 C158 1.305 . S
C751 C242 1.340 . S
C766 C224 1.474 . S
C778 C326 1.470 . S
C793 C67 1.623 . S
C805 C487 1.592 . S
C820 C63 1.495 . S
C832 C403 1.483 . S
C847 C399 1.307 . S
C859 C231 1.346 . S
C874 C483 1.431 . S
C886 C235 1.409 . S
C901 C560 1.613 . S
C913 C476 1.603 . S
C928 C392 1.481 . S
C940 C578 1.482 . S
C955 C662 1.283 . S
C967 C410 1.290 . S
C982 C494 1.495 . S
C994 C644 1.481 . S
C1009 C319 1.573 . S
C1021 C571 1.554 . S
C1036 C567 1.437 . S
C1048 C151 1.415 . S
C1063 C147 1.282 . S
C1075 C651 1.321 . S
C1090 C315 1.457 . S
C1102 C655 1.437 . S
C1117 C70 1.435 1_565 S
C1129 C58 1.371 . S
C1144 C142 1.434 . S
C1156 C154 1.394 . S
C1171 C238 1.364 1_565 S
C1183 C226 1.452 1_545 S
C1198 C322 1.469 . S
C1210 C310 1.365 . S
C1225 C394 1.366 . S
C1237 C406 1.424 . S
C1252 C490 1.469 . S
C1264 C478 1.364 . S
C1279 C562 1.468 . S
C1291 C574 1.348 . S
C1306 C646 1.469 . S
C1318 C658 1.345 . S
