# Generated by pormake.
# Topology wje, (4)-cn, num edge types: 1
# Building blocks:
#     Node 0, Type 0, BuildingBlock: TATPOV_clean_sbu_0, # of connection points: 4
#     Node 1, Type 0, BuildingBlock: TATPOV_clean_sbu_0, # of connection points: 4
#     Node 2, Type 0, BuildingBlock: TATPOV_clean_sbu_0, # of connection points: 4
#     Node 3, Type 0, BuildingBlock: TATPOV_clean_sbu_0, # of connection points: 4
#     Node 4, Type 0, BuildingBlock: TATPOV_clean_sbu_0, # of connection points: 4
#     Node 5, Type 0, BuildingBlock: TATPOV_clean_sbu_0, # of connection points: 4
#     Node 6, Type 0, BuildingBlock: TATPOV_clean_sbu_0, # of connection points: 4
#     Node 7, Type 0, BuildingBlock: TATPOV_clean_sbu_0, # of connection points: 4
#     Node 8, Type 0, BuildingBlock: TATPOV_clean_sbu_0, # of connection points: 4
#     Node 9, Type 0, BuildingBlock: TATPOV_clean_sbu_0, # of connection points: 4
#     Node 10, Type 0, BuildingBlock: TATPOV_clean_sbu_0, # of connection points: 4
#     Node 11, Type 0, BuildingBlock: TATPOV_clean_sbu_0, # of connection points: 4
#     Edge 12, Type (0, 0), BuildingBlock: AJUNOK_clean_linker_0, # of connection points: 2
#     Edge 13, Type (0, 0), BuildingBlock: AJUNOK_clean_linker_0, # of connection points: 2
#     Edge 14, Type (0, 0), BuildingBlock: AJUNOK_clean_linker_0, # of connection points: 2
#     Edge 15, Type (0, 0), BuildingBlock: AJUNOK_clean_linker_0, # of connection points: 2
#     Edge 16, Type (0, 0), BuildingBlock: AJUNOK_clean_linker_0, # of connection points: 2
#     Edge 17, Type (0, 0), BuildingBlock: AJUNOK_clean_linker_0, # of connection points: 2
#     Edge 18, Type (0, 0), BuildingBlock: AJUNOK_clean_linker_0, # of connection points: 2
#     Edge 19, Type (0, 0), BuildingBlock: AJUNOK_clean_linker_0, # of connection points: 2
#     Edge 20, Type (0, 0), BuildingBlock: AJUNOK_clean_linker_0, # of connection points: 2
#     Edge 21, Type (0, 0), BuildingBlock: AJUNOK_clean_linker_0, # of connection points: 2
#     Edge 22, Type (0, 0), BuildingBlock: AJUNOK_clean_linker_0, # of connection points: 2
#     Edge 23, Type (0, 0), BuildingBlock: AJUNOK_clean_linker_0, # of connection points: 2
#     Edge 24, Type (0, 0), BuildingBlock: AJUNOK_clean_linker_0, # of connection points: 2
#     Edge 25, Type (0, 0), BuildingBlock: AJUNOK_clean_linker_0, # of connection points: 2
#     Edge 26, Type (0, 0), BuildingBlock: AJUNOK_clean_linker_0, # of connection points: 2
#     Edge 27, Type (0, 0), BuildingBlock: AJUNOK_clean_linker_0, # of connection points: 2
#     Edge 28, Type (0, 0), BuildingBlock: AJUNOK_clean_linker_0, # of connection points: 2
#     Edge 29, Type (0, 0), BuildingBlock: AJUNOK_clean_linker_0, # of connection points: 2
#     Edge 30, Type (0, 0), BuildingBlock: AJUNOK_clean_linker_0, # of connection points: 2
#     Edge 31, Type (0, 0), BuildingBlock: AJUNOK_clean_linker_0, # of connection points: 2
#     Edge 32, Type (0, 0), BuildingBlock: AJUNOK_clean_linker_0, # of connection points: 2
#     Edge 33, Type (0, 0), BuildingBlock: AJUNOK_clean_linker_0, # of connection points: 2
#     Edge 34, Type (0, 0), BuildingBlock: AJUNOK_clean_linker_0, # of connection points: 2
#     Edge 35, Type (0, 0), BuildingBlock: AJUNOK_clean_linker_0, # of connection points: 2
# Relax obj value: 0.102
# Max RMSD: 0.101
# Mean RMSD: 0.101
data_MOF--net-wje--node1-TATPOV_clean_sbu_0--edge1-AJUNOK_clean_linker_0
_symmetry_space_group_name_H-M    P1
_symmetry_Int_Tables_number       1
_symmetry_cell_setting            triclinic
loop_
_symmetry_equiv_pos_as_xyz
'x, y, z'
_cell_length_a     32.365534
_cell_length_b     32.272322
_cell_length_c     24.755284
_cell_angle_alpha  90.727588
_cell_angle_beta   89.74211
_cell_angle_gamma 120.22797
loop_
_atom_site_label
_atom_site_type_symbol
_atom_site_fract_x
_atom_site_fract_y
_atom_site_fract_z
_atom_type_partial_charge
Zn0 Zn 0.29778 0.91722 0.28536 0.0
Zn1 Zn 0.31116 -0.00022 0.27877 0.0
O2 O 0.23858 0.94833 0.28998 0.0
O3 O 0.22918 0.87928 0.26311 0.0
O4 O 0.31343 0.05979 0.24781 0.0
O5 O 0.34923 0.91974 0.23916 0.0
O6 O 0.36455 -0.00606 0.23615 0.0
C7 C 0.21118 0.90358 0.28068 0.0
C8 C 0.32844 0.97801 0.38607 0.0
O9 O 0.33388 0.01231 0.35617 0.0
O10 O 0.31272 0.9363 0.36584 0.0
C11 C 0.29334 0.05555 0.20228 0.0
O12 O 0.27125 0.01297 0.17894 0.0
C13 C 0.3762 0.96244 0.2244 0.0
Zn14 Zn 0.38086 0.30383 0.59999 0.0
Zn15 Zn 0.31591 0.3227 0.60005 0.0
O16 O 0.29299 0.24948 0.60875 0.0
O17 O 0.34669 0.23575 0.57253 0.0
O18 O 0.25835 0.32621 0.57021 0.0
O19 O 0.43221 0.35791 0.55854 0.0
O20 O 0.37655 0.37753 0.561 0.0
C21 C 0.30667 0.21993 0.59548 0.0
C22 C 0.35394 0.33105 0.70569 0.0
O23 O 0.32761 0.3423 0.67865 0.0
O24 O 0.37659 0.3133 0.6821 0.0
C25 C 0.24006 0.30389 0.52595 0.0
O26 O 0.25842 0.2797 0.50337 0.0
C27 C 0.41906 0.38783 0.54852 0.0
Zn28 Zn 0.07619 0.40321 0.93341 0.0
Zn29 Zn -0.00244 0.33027 0.91812 0.0
O30 O 0.05349 0.31441 0.9171 0.0
O31 O 0.11931 0.38252 0.90223 0.0
O32 O 0.94096 0.27329 0.87852 0.0
O33 O 0.06877 0.45359 0.89809 0.0
O34 O -0.00228 0.39073 0.88503 0.0
C35 C 0.09859 0.33778 0.90893 0.0
C36 C 0.01858 0.35775 0.03136 0.0
O37 O 0.9849 0.33052 -0.00112 0.0
O38 O 0.0591 0.38887 0.01315 0.0
C39 C 0.90544 0.23627 0.89876 0.0
O40 O 0.90285 0.23176 0.95151 0.0
C41 C 0.0267 0.43585 0.88031 0.0
Zn42 Zn 0.65158 0.07314 0.29498 0.0
Zn43 Zn 0.65095 -0.00264 0.26996 0.0
O44 O 0.72237 0.05466 0.26722 0.0
O45 O 0.71644 0.11951 0.27079 0.0
O46 O 0.65172 0.94181 0.22841 0.0
O47 O 0.59602 0.06586 0.25458 0.0
O48 O 0.59139 -0.00268 0.2341 0.0
C49 C 0.74206 0.10035 0.26716 0.0
C50 C 0.63928 0.01149 0.3867 0.0
O51 O 0.63815 0.982 0.35093 0.0
O52 O 0.64465 0.05153 0.37253 0.0
C53 C 0.65592 0.90737 0.24679 0.0
O54 O 0.66089 0.90517 0.29913 0.0
C55 C 0.57444 0.02555 0.23102 0.0
Zn56 Zn 0.59806 0.66964 0.61625 0.0
Zn57 Zn 0.66583 0.65467 0.61269 0.0
O58 O 0.68681 0.72749 0.6205 0.0
O59 O 0.62923 0.73697 0.58894 0.0
O60 O 0.72438 0.654 0.5807 0.0
O61 O 0.54831 0.61481 0.57354 0.0
O62 O 0.60633 0.59856 0.57145 0.0
C63 C 0.67083 0.75515 0.60848 0.0
C64 C 0.62977 0.6472 0.7206 0.0
O65 O 0.65678 0.63732 0.69208 0.0
O66 O 0.6041 0.66149 0.69786 0.0
C67 C 0.73783 0.6729 0.53429 0.0
O68 O 0.71355 0.69062 0.51155 0.0
C69 C 0.56327 0.5869 0.55976 0.0
Zn70 Zn 0.9146 0.60191 0.9533 0.0
Zn71 Zn -0.00384 0.6734 0.94388 0.0
O72 O 0.94358 0.69302 0.95351 0.0
O73 O 0.87519 0.63034 0.93053 0.0
O74 O 0.05576 0.73193 0.91247 0.0
O75 O 0.91918 0.55337 0.90775 0.0
O76 O -0.00798 0.61444 0.90101 0.0
C77 C 0.89868 0.67377 0.94531 0.0
C78 C 0.97503 0.63615 0.05292 0.0
O79 O 0.00867 0.66505 0.02202 0.0
O80 O 0.93365 0.60831 0.03348 0.0
C81 C 0.05142 0.75539 0.874 0.0
O82 O 0.00822 0.74254 0.85673 0.0
C83 C 0.96145 0.57044 0.89076 0.0
Zn84 Zn 0.05602 0.66806 0.38939 0.0
Zn85 Zn 0.97331 0.65183 0.39617 0.0
O86 O 0.02398 0.72525 0.39026 0.0
O87 O 0.09374 0.73636 0.41463 0.0
O88 O 0.91343 0.64768 0.43125 0.0
O89 O 0.05506 0.61475 0.42982 0.0
O90 O 0.97975 0.59533 0.42978 0.0
C91 C 0.06842 0.75363 0.39926 0.0
C92 C -0.00219 0.64331 0.28686 0.0
O93 O 0.96225 0.63524 0.3166 0.0
O94 O 0.03839 0.65718 0.30834 0.0
C95 C 0.90045 0.67804 0.42086 0.0
O96 O 0.92546 0.71169 0.38567 0.0
C97 C 0.01196 0.58458 0.44011 0.0
Zn98 Zn 0.38063 0.06294 0.72127 0.0
Zn99 Zn 0.31221 0.98115 0.72736 0.0
O100 O 0.29242 0.03349 0.71564 0.0
O101 O 0.35192 0.1034 0.74075 0.0
O102 O 0.25477 0.92241 0.76216 0.0
O103 O 0.43092 0.06185 0.76591 0.0
O104 O 0.37346 0.98677 0.76539 0.0
C105 C 0.30973 0.07848 0.72297 0.0
C106 C 0.3481 0.00207 0.61959 0.0
O107 O 0.31892 0.96737 0.6491 0.0
O108 O 0.37544 0.04298 0.64099 0.0
C109 C 0.2126 0.91614 0.76398 0.0
O110 O 0.20446 0.94766 0.7406 0.0
C111 C 0.41648 0.01872 0.77752 0.0
Zn112 Zn 0.32631 0.4195 0.97146 0.0
Zn113 Zn 0.31912 0.30571 0.04328 0.0
O114 O 0.24586 0.28257 0.03147 0.0
O115 O 0.28655 0.35265 -0.00084 0.0
O116 O 0.32358 0.25794 0.09397 0.0
O117 O 0.37193 0.4476 0.03516 0.0
O118 O 0.36653 0.38004 0.06861 0.0
C119 C 0.24625 0.31524 0.00348 0.0
C120 C 0.34491 0.33254 0.9392 0.0
O121 O 0.34198 0.29852 0.96727 0.0
O122 O 0.33553 0.36141 0.96376 0.0
C123 C 0.29748 0.2135 0.08223 0.0
O124 O 0.27009 0.20169 0.03913 0.0
C125 C 0.38501 0.4263 0.06867 0.0
Zn126 Zn 0.89874 0.32787 0.30897 0.0
Zn127 Zn 0.00929 0.32367 0.37303 0.0
O128 O 0.95709 0.25 0.36793 0.0
O129 O 0.92924 0.29198 0.33667 0.0
O130 O 0.06482 0.33062 0.42043 0.0
O131 O 0.92029 0.37584 0.37096 0.0
O132 O 0.98474 0.37232 0.40004 0.0
C133 C 0.92361 0.2508 0.34284 0.0
C134 C 0.0008 0.34117 0.26514 0.0
O135 O 0.03298 0.34072 0.29399 0.0
O136 O 0.96396 0.33532 0.28981 0.0
C137 C 0.08141 0.30297 0.41 0.0
O138 O 0.06238 0.27222 0.36965 0.0
C139 C 0.95677 0.39033 0.40201 0.0
Zn140 Zn 0.59588 0.91809 0.71733 0.0
Zn141 Zn 0.665 -0.00062 0.72913 0.0
O142 O 0.68465 0.94664 0.71972 0.0
O143 O 0.62272 0.87738 0.74046 0.0
O144 O 0.72102 0.0551 0.77081 0.0
O145 O 0.54431 0.92011 0.75878 0.0
O146 O 0.60309 -0.00562 0.76535 0.0
C147 C 0.66604 0.90159 0.72663 0.0
C148 C 0.63384 0.97957 0.61854 0.0
O149 O 0.66162 0.01391 0.65027 0.0
O150 O 0.60541 0.93839 0.6376 0.0
C151 C 0.75747 0.0929 0.75334 0.0
O152 O 0.76232 0.10008 0.701 0.0
C153 C 0.55927 0.96285 0.7739 0.0
Zn154 Zn 0.66157 0.60193 0.05474 0.0
Zn155 Zn 0.65083 0.671 0.06565 0.0
O156 O 0.72286 0.68985 0.05526 0.0
O157 O 0.72971 0.62798 0.0764 0.0
O158 O 0.65255 0.72641 0.11023 0.0
O159 O 0.60819 0.54964 0.09553 0.0
O160 O 0.59209 0.60785 0.09739 0.0
C161 C 0.74906 0.67117 0.062 0.0
C162 C 0.63796 0.64064 0.95559 0.0
O163 O 0.63338 0.66976 0.98707 0.0
O164 O 0.64937 0.61143 0.97504 0.0
C165 C 0.64864 0.76184 0.0948 0.0
O166 O 0.64242 0.76588 0.04313 0.0
C167 C 0.57946 0.5641 0.10687 0.0
C168 C 0.26643 0.08886 0.12828 0.0
C169 C 0.29489 0.09727 0.17454 0.0
C170 C 0.26755 0.12657 0.09955 0.0
C171 C 0.29732 0.17487 0.11532 0.0
H172 H 0.24288 0.05261 0.11373 0.0
H173 H 0.2448 0.11746 0.06427 0.0
S174 S 0.37911 0.21702 0.23382 0.0
N175 N 0.35381 0.15802 0.23517 0.0
N176 N 0.35604 0.22901 0.181 0.0
C177 C 0.32588 0.18405 0.16179 0.0
C178 C 0.32461 0.14535 0.19137 0.0
C179 C 0.17681 0.27417 0.45417 0.0
C180 C 0.19909 0.30466 0.49899 0.0
C181 C 0.13908 0.27406 0.42641 0.0
C182 C 0.12156 0.30458 0.44174 0.0
H183 H 0.18854 0.24988 0.44003 0.0
H184 H 0.1237 0.24971 0.39227 0.0
S185 S 0.16701 0.3916 0.55657 0.0
N186 N 0.20047 0.36633 0.55776 0.0
N187 N 0.12958 0.36627 0.50543 0.0
C188 C 0.14326 0.33526 0.4867 0.0
C189 C 0.18185 0.33524 0.5153 0.0
C190 C 0.83395 0.17088 0.77171 0.0
C191 C 0.79448 0.12866 0.79161 0.0
C192 C 0.86937 0.20512 0.80643 0.0
C193 C 0.86718 0.19892 0.86287 0.0
H194 H 0.83768 0.17778 0.72875 0.0
H195 H 0.89873 0.23683 0.78863 0.0
S196 S 0.77158 0.09447 0.93616 0.0
N197 N 0.75569 0.08265 0.87205 0.0
N198 N 0.82189 0.14661 0.93695 0.0
C199 C 0.82794 0.1568 0.88341 0.0
C200 C 0.79181 0.1219 0.848 0.0
C201 C 0.64558 0.8368 0.11703 0.0
C202 C 0.65095 0.79839 0.13469 0.0
C203 C 0.64738 0.87162 0.15331 0.0
C204 C 0.65461 0.86985 0.20918 0.0
H205 H 0.63982 0.84015 0.07463 0.0
H206 H 0.64289 0.90016 0.13721 0.0
S207 S 0.67134 0.77706 0.27681 0.0
N208 N 0.66426 0.7611 0.2124 0.0
N209 N 0.6676 0.82617 0.28025 0.0
C210 C 0.66021 0.83171 0.22748 0.0
C211 C 0.65839 0.79619 0.19046 0.0
C212 C 0.83756 0.64728 0.49438 0.0
C213 C 0.85868 0.67665 0.44905 0.0
C214 C 0.79905 0.64657 0.52216 0.0
C215 C 0.77958 0.67481 0.5055 0.0
H216 H 0.85111 0.62485 0.50891 0.0
H217 H 0.78416 0.62334 0.55667 0.0
S218 S 0.82163 0.75808 0.38923 0.0
N219 N 0.85682 0.73483 0.38906 0.0
N220 N 0.78498 0.73338 0.44061 0.0
C221 C 0.80033 0.70425 0.46017 0.0
C222 C 0.83963 0.7052 0.43219 0.0
C223 C 0.12583 0.8663 0.7887 0.0
C224 C 0.1728 0.87451 0.79277 0.0
C225 C 0.08737 0.82809 0.81528 0.0
C226 C 0.09387 0.7963 0.8478 0.0
H227 H 0.1184 0.88951 0.76447 0.0
H228 H 0.05213 0.82365 0.81033 0.0
S229 S 0.20946 0.80133 0.87223 0.0
N230 N 0.22348 0.84703 0.83208 0.0
N231 N 0.15124 0.77551 0.88236 0.0
C232 C 0.14063 0.80405 0.85263 0.0
C233 C 0.17995 0.84291 0.82505 0.0
C234 C 0.44204 0.94419 0.20925 0.0
C235 C 0.4257 0.97727 0.20637 0.0
C236 C 0.49105 0.95962 0.21106 0.0
C237 C 0.52553 0.00867 0.20986 0.0
H238 H 0.417 0.9064 0.21508 0.0
H239 H 0.50164 0.93325 0.21852 0.0
S240 S 0.50198 0.1083 0.18574 0.0
N241 N 0.4483 0.06023 0.19013 0.0
N242 N 0.54026 0.08916 0.19322 0.0
C243 C 0.50981 0.04135 0.19929 0.0
C244 C 0.45992 0.02566 0.19754 0.0
C245 C 0.54024 0.50118 0.54197 0.0
C246 C 0.52824 0.53743 0.54032 0.0
C247 C 0.50485 0.45249 0.53897 0.0
C248 C 0.45592 0.43795 0.53448 0.0
H249 H 0.57675 0.51016 0.54974 0.0
H250 H 0.51584 0.42619 0.54452 0.0
S251 S 0.40691 0.51878 0.51443 0.0
N252 N 0.46486 0.55538 0.5231 0.0
N253 N 0.39854 0.46404 0.51818 0.0
C254 C 0.4441 0.47383 0.52644 0.0
C255 C 0.48018 0.52347 0.5292 0.0
C256 C 0.94451 0.48688 0.87136 0.0
C257 C 0.97699 0.53676 0.87029 0.0
C258 C 0.96036 0.45364 0.86879 0.0
C259 C 0.00932 0.46893 0.8649 0.0
H260 H 0.90683 0.47327 0.87862 0.0
H261 H 0.93436 0.41608 0.87452 0.0
S262 S 0.10746 0.59441 0.84524 0.0
N263 N 0.05928 0.59895 0.85384 0.0
N264 N 0.08904 0.5366 0.8486 0.0
C265 C 0.0414 0.51818 0.85669 0.0
C266 C 0.02525 0.55206 0.85944 0.0
C267 C 0.03312 0.51975 0.44377 0.0
C268 C -0.00144 0.53389 0.45072 0.0
C269 C 0.01969 0.47147 0.43475 0.0
C270 C 0.97123 0.43557 0.43257 0.0
H271 H 0.07065 0.54644 0.44013 0.0
H272 H 0.0472 0.46314 0.42396 0.0
S273 S 0.86788 0.45151 0.46468 0.0
N274 N 0.91454 0.50641 0.46691 0.0
N275 N 0.88941 0.4159 0.4503 0.0
C276 C 0.93694 0.44835 0.44722 0.0
C277 C 0.95056 0.49745 0.45624 0.0
C278 C 0.47447 0.9425 0.78936 0.0
C279 C 0.5237 0.97697 0.79104 0.0
C280 C 0.43944 0.95597 0.79044 0.0
C281 C 0.45206 0.00451 0.79344 0.0
H282 H 0.4627 0.90487 0.7832 0.0
H283 H 0.40246 0.92822 0.78479 0.0
S284 S 0.57519 0.10788 0.81278 0.0
N285 N 0.58262 0.06109 0.80598 0.0
N286 N 0.51698 0.08646 0.8086 0.0
C287 C 0.50079 0.03885 0.80169 0.0
C288 C 0.53653 0.0251 0.80035 0.0
C289 C 0.44523 0.50738 0.10433 0.0
C290 C 0.42984 0.45808 0.09935 0.0
C291 C 0.49344 0.54168 0.11337 0.0
C292 C 0.52832 0.52812 0.1179 0.0
H293 H 0.42064 0.52011 0.09633 0.0
H294 H 0.50383 0.57922 0.11175 0.0
S295 S 0.50449 0.4029 0.1243 0.0
N296 N 0.45172 0.39694 0.11158 0.0
N297 N 0.54219 0.46119 0.12932 0.0
C298 C 0.51227 0.4786 0.1211 0.0
C299 C 0.46303 0.44361 0.11174 0.0
C300 C 0.13294 0.83955 0.39763 0.0
C301 C 0.09347 0.80068 0.37229 0.0
C302 C 0.16805 0.87755 0.36726 0.0
C303 C 0.16573 0.87698 0.31039 0.0
H304 H 0.13881 0.83857 0.44054 0.0
H305 H 0.19994 0.90455 0.38797 0.0
S306 S 0.06691 0.78667 0.22525 0.0
N307 N 0.05095 0.76735 0.28758 0.0
N308 N 0.11868 0.8372 0.23057 0.0
C309 C 0.12457 0.84058 0.28507 0.0
C310 C 0.08792 0.8028 0.31608 0.0
C311 C 0.28814 0.1782 0.68326 0.0
C312 C 0.28853 0.17511 0.62639 0.0
C313 C 0.28996 0.14371 0.71567 0.0
C314 C 0.29006 0.10385 0.69239 0.0
H315 H 0.29178 0.2101 0.70282 0.0
H316 H 0.295 0.15018 0.75884 0.0
S317 S 0.28276 0.07493 0.54583 0.0
N318 N 0.28401 0.12673 0.54853 0.0
N319 N 0.28397 0.0601 0.60919 0.0
C320 C 0.2847 0.09754 0.63585 0.0
C321 C 0.2848 0.13364 0.60285 0.0
C322 C 0.15877 0.2896 -0.00259 0.0
C323 C 0.20431 0.31022 0.97365 0.0
C324 C 0.12167 0.29337 0.9726 0.0
C325 C 0.1291 0.31754 0.92322 0.0
H326 H 0.1528 0.27367 0.037 0.0
H327 H 0.08855 0.28114 -0.00548 0.0
S328 S 0.23814 0.3673 0.83905 0.0
N329 N 0.25187 0.34791 0.89369 0.0
N330 N 0.18257 0.35513 0.84779 0.0
C331 C 0.17282 0.33366 0.89678 0.0
C332 C 0.21037 0.33004 0.92188 0.0
C333 C 0.85794 0.21583 0.27534 0.0
C334 C 0.88185 0.2083 0.3181 0.0
C335 C 0.81512 0.17871 0.25428 0.0
C336 C 0.79404 0.13225 0.27516 0.0
H337 H 0.87126 0.25127 0.25926 0.0
H338 H 0.79659 0.18726 0.22396 0.0
S339 S 0.84473 0.09179 0.38275 0.0
N340 N 0.88391 0.14959 0.3768 0.0
N341 N 0.80232 0.07936 0.33777 0.0
C342 C 0.81932 0.12303 0.31493 0.0
C343 C 0.86346 0.16118 0.33638 0.0
C344 C 0.68669 0.79947 0.69505 0.0
C345 C 0.68913 0.80104 0.63818 0.0
C346 C 0.68465 0.8355 0.72526 0.0
C347 C 0.68693 0.87522 0.69977 0.0
H348 H 0.68088 0.76764 0.7159 0.0
H349 H 0.67728 0.83027 0.76815 0.0
S350 S 0.70199 0.9001 0.55283 0.0
N351 N 0.69885 0.84761 0.55824 0.0
N352 N 0.69832 0.91709 0.61505 0.0
C353 C 0.69513 0.87989 0.6436 0.0
C354 C 0.69534 0.84229 0.61271 0.0
C355 C 0.83468 0.69268 0.06005 0.0
C356 C 0.79555 0.69133 0.03404 0.0
C357 C 0.87255 0.69454 0.03011 0.0
C358 C 0.87151 0.69314 0.97316 0.0
H359 H 0.83416 0.68839 0.10343 0.0
H360 H 0.89996 0.69144 0.05159 0.0
S361 S 0.77944 0.69419 0.88609 0.0
N362 N 0.76084 0.69437 0.9483 0.0
N363 N 0.83041 0.69451 0.89225 0.0
C364 C 0.83451 0.69547 0.94691 0.0
C365 C 0.79689 0.69543 0.97737 0.0
C366 C 0.3158 0.94536 0.47949 0.0
C367 C 0.33731 0.98521 0.44505 0.0
C368 C 0.32053 0.95094 0.53573 0.0
C369 C 0.34748 -0.00344 0.55988 0.0
H370 H 0.29385 0.90948 0.46304 0.0
H371 H 0.3022 0.91924 0.56042 0.0
S372 S 0.41372 0.11239 0.48737 0.0
N373 N 0.38825 0.07165 0.43895 0.0
N374 N 0.39799 0.08243 0.54444 0.0
C375 C 0.37067 0.03666 0.52573 0.0
C376 C 0.36529 0.03094 0.46844 0.0
C377 C 0.35131 0.29685 0.85165 0.0
C378 C 0.35323 0.33573 0.88014 0.0
C379 C 0.35283 0.29638 0.79511 0.0
C380 C 0.35543 0.33434 0.76506 0.0
H381 H 0.34717 0.26588 0.87298 0.0
H382 H 0.35032 0.26528 0.77474 0.0
S383 S 0.36891 0.44772 0.81983 0.0
N384 N 0.3643 0.41607 0.87375 0.0
N385 N 0.36473 0.41371 0.76734 0.0
C386 C 0.35939 0.37424 0.79279 0.0
C387 C 0.35905 0.37535 0.8504 0.0
C388 C 0.04801 0.35905 0.17961 0.0
C389 C 0.00452 0.34603 0.20553 0.0
C390 C 0.052 0.36278 0.12328 0.0
C391 C 0.01242 0.35269 0.09054 0.0
H392 H 0.07933 0.36662 0.20296 0.0
H393 H 0.08634 0.3731 0.10516 0.0
S394 S 0.89059 0.31768 0.13794 0.0
N395 N 0.92112 0.32416 0.19373 0.0
N396 N 0.92861 0.32956 0.0878 0.0
C397 C 0.96868 0.33934 0.11566 0.0
C398 C 0.96477 0.33652 0.17315 0.0
C399 C 0.65568 0.04023 0.48259 0.0
C400 C 0.63722 0.00155 0.4453 0.0
C401 C 0.65486 0.0329 0.53832 0.0
C402 C 0.63484 0.98652 0.55926 0.0
H403 H 0.67145 0.07678 0.46867 0.0
H404 H 0.6696 0.06387 0.56515 0.0
S405 S 0.58205 0.87288 0.479 0.0
N406 N 0.59907 0.91521 0.43331 0.0
N407 N 0.59638 0.90099 0.53808 0.0
C408 C 0.61617 0.94738 0.52245 0.0
C409 C 0.61773 0.95499 0.46553 0.0
C410 C 0.64648 0.61457 0.86251 0.0
C411 C 0.63323 0.64176 0.89593 0.0
C412 C 0.6451 0.61633 0.80605 0.0
C413 C 0.62977 0.64481 0.78047 0.0
H414 H 0.65893 0.59219 0.87995 0.0
H415 H 0.65612 0.59513 0.78233 0.0
S416 S 0.59171 0.72342 0.84883 0.0
N417 N 0.60465 0.69846 0.89881 0.0
N418 N 0.60151 0.70147 0.79281 0.0
C419 C 0.61599 0.67193 0.81323 0.0
C420 C 0.61786 0.67049 0.87084 0.0
C421 C 0.94765 0.6168 0.20289 0.0
C422 C -0.00685 0.63952 0.22707 0.0
C423 C 0.94239 0.61502 0.14663 0.0
C424 C 0.9824 0.6364 0.1121 0.0
H425 H 0.91571 0.6005 0.22757 0.0
H426 H 0.90646 0.59757 0.13023 0.0
S427 S 0.10965 0.69976 0.15476 0.0
N428 N 0.07929 0.68311 0.2118 0.0
N429 N 0.06914 0.68021 0.10622 0.0
C430 C 0.02815 0.6588 0.13561 0.0
C431 C 0.03358 0.66017 0.19297 0.0
loop_
_geom_bond_atom_site_label_1
_geom_bond_atom_site_label_2
_geom_bond_distance
_geom_bond_site_symmetry_2
_ccdc_geom_bond_type
Zn0 O3 2.031 . S
Zn0 O5 2.049 . S
Zn0 O10 2.067 . S
Zn1 O2 1.962 1_545 S
Zn1 O4 1.986 . S
Zn1 O6 1.996 1_545 S
Zn1 O9 1.943 . S
O2 Zn1 1.962 1_565 S
O2 C7 1.254 . S
O3 Zn0 2.031 . S
O3 C7 1.269 . S
O4 Zn1 1.986 . S
O4 C11 1.262 . S
O5 Zn0 2.049 . S
O5 C13 1.260 . S
O6 Zn1 1.996 1_565 S
O6 C13 1.257 . S
C7 O2 1.254 . S
C7 O3 1.269 . S
C8 O9 1.249 . S
C8 O10 1.270 1_545 S
O9 Zn1 1.943 . S
O9 C8 1.249 . S
O10 Zn0 2.067 . S
O10 C8 1.270 1_565 S
C11 O4 1.262 . S
C11 O12 1.232 . S
O12 C11 1.232 . S
C13 O5 1.260 . S
C13 O6 1.257 . S
Zn14 O17 2.031 . S
Zn14 O19 2.049 . S
Zn14 O24 2.067 . S
Zn15 O16 1.962 . S
Zn15 O18 1.986 . S
Zn15 O20 1.996 . S
Zn15 O23 1.943 . S
O16 Zn15 1.962 . S
O16 C21 1.254 . S
O17 Zn14 2.031 . S
O17 C21 1.269 . S
O18 Zn15 1.986 . S
O18 C25 1.262 . S
O19 Zn14 2.049 . S
O19 C27 1.260 . S
O20 Zn15 1.996 . S
O20 C27 1.257 . S
C21 O16 1.254 . S
C21 O17 1.269 . S
C22 O23 1.249 . S
C22 O24 1.270 . S
O23 Zn15 1.943 . S
O23 C22 1.249 . S
O24 Zn14 2.067 . S
O24 C22 1.270 . S
C25 O18 1.262 . S
C25 O26 1.232 . S
O26 C25 1.232 . S
C27 O19 1.260 . S
C27 O20 1.257 . S
Zn28 O31 2.031 . S
Zn28 O33 2.049 1_554 S
Zn28 O38 2.067 . S
Zn29 O30 1.962 1_655 S
Zn29 O32 1.986 . S
Zn29 O34 1.996 1_655 S
Zn29 O37 1.943 1_556 S
O30 Zn29 1.962 1_455 S
O30 C35 1.254 . S
O31 Zn28 2.031 . S
O31 C35 1.269 1_554 S
O32 Zn29 1.986 . S
O32 C39 1.262 . S
O33 Zn28 2.049 1_556 S
O33 C41 1.260 . S
O34 Zn29 1.996 1_455 S
O34 C41 1.257 . S
C35 O30 1.254 . S
C35 O31 1.269 1_556 S
C36 O37 1.249 . S
C36 O38 1.270 1_655 S
O37 Zn29 1.943 1_554 S
O37 C36 1.249 . S
O38 Zn28 2.067 . S
O38 C36 1.270 1_455 S
C39 O32 1.262 . S
C39 O40 1.232 . S
O40 C39 1.232 . S
C41 O33 1.260 . S
C41 O34 1.257 . S
Zn42 O45 2.031 . S
Zn42 O47 2.049 . S
Zn42 O52 2.067 . S
Zn43 O44 1.962 1_565 S
Zn43 O46 1.986 . S
Zn43 O48 1.996 1_565 S
Zn43 O51 1.943 . S
O44 Zn43 1.962 1_545 S
O44 C49 1.254 . S
O45 Zn42 2.031 . S
O45 C49 1.269 . S
O46 Zn43 1.986 . S
O46 C53 1.262 . S
O47 Zn42 2.049 . S
O47 C55 1.260 . S
O48 Zn43 1.996 1_545 S
O48 C55 1.257 . S
C49 O44 1.254 . S
C49 O45 1.269 . S
C50 O51 1.249 . S
C50 O52 1.270 1_565 S
O51 Zn43 1.943 . S
O51 C50 1.249 . S
O52 Zn42 2.067 . S
O52 C50 1.270 1_545 S
C53 O46 1.262 . S
C53 O54 1.232 . S
O54 C53 1.232 . S
C55 O47 1.260 . S
C55 O48 1.257 . S
Zn56 O59 2.031 . S
Zn56 O61 2.049 . S
Zn56 O66 2.067 . S
Zn57 O58 1.962 . S
Zn57 O60 1.986 . S
Zn57 O62 1.996 . S
Zn57 O65 1.943 . S
O58 Zn57 1.962 . S
O58 C63 1.254 . S
O59 Zn56 2.031 . S
O59 C63 1.269 . S
O60 Zn57 1.986 . S
O60 C67 1.262 . S
O61 Zn56 2.049 . S
O61 C69 1.260 . S
O62 Zn57 1.996 . S
O62 C69 1.257 . S
C63 O58 1.254 . S
C63 O59 1.269 . S
C64 O65 1.249 . S
C64 O66 1.270 . S
O65 Zn57 1.943 . S
O65 C64 1.249 . S
O66 Zn56 2.067 . S
O66 C64 1.270 . S
C67 O60 1.262 . S
C67 O68 1.232 . S
O68 C67 1.232 . S
C69 O61 1.260 . S
C69 O62 1.257 . S
Zn70 O73 2.031 . S
Zn70 O75 2.049 1_554 S
Zn70 O80 2.067 . S
Zn71 O72 1.962 1_455 S
Zn71 O74 1.986 . S
Zn71 O76 1.996 1_455 S
Zn71 O79 1.943 1_556 S
O72 Zn71 1.962 1_655 S
O72 C77 1.254 . S
O73 Zn70 2.031 . S
O73 C77 1.269 1_554 S
O74 Zn71 1.986 . S
O74 C81 1.262 . S
O75 Zn70 2.049 1_556 S
O75 C83 1.260 . S
O76 Zn71 1.996 1_655 S
O76 C83 1.257 . S
C77 O72 1.254 . S
C77 O73 1.269 1_556 S
C78 O79 1.249 . S
C78 O80 1.270 1_455 S
O79 Zn71 1.943 1_554 S
O79 C78 1.249 . S
O80 Zn70 2.067 . S
O80 C78 1.270 1_655 S
C81 O74 1.262 . S
C81 O82 1.232 . S
O82 C81 1.232 . S
C83 O75 1.260 . S
C83 O76 1.257 . S
Zn84 O87 2.031 . S
Zn84 O89 2.049 . S
Zn84 O94 2.067 . S
Zn85 O86 1.962 1_655 S
Zn85 O88 1.986 . S
Zn85 O90 1.996 1_655 S
Zn85 O93 1.943 . S
O86 Zn85 1.962 1_455 S
O86 C91 1.254 . S
O87 Zn84 2.031 . S
O87 C91 1.269 . S
O88 Zn85 1.986 . S
O88 C95 1.262 . S
O89 Zn84 2.049 . S
O89 C97 1.260 . S
O90 Zn85 1.996 1_455 S
O90 C97 1.257 . S
C91 O86 1.254 . S
C91 O87 1.269 . S
C92 O93 1.249 . S
C92 O94 1.270 1_655 S
O93 Zn85 1.943 . S
O93 C92 1.249 . S
O94 Zn84 2.067 . S
O94 C92 1.270 1_455 S
C95 O88 1.262 . S
C95 O96 1.232 . S
O96 C95 1.232 . S
C97 O89 1.260 . S
C97 O90 1.257 . S
Zn98 O101 2.031 . S
Zn98 O103 2.049 . S
Zn98 O108 2.067 . S
Zn99 O100 1.962 1_565 S
Zn99 O102 1.986 . S
Zn99 O104 1.996 1_565 S
Zn99 O107 1.943 . S
O100 Zn99 1.962 1_545 S
O100 C105 1.254 . S
O101 Zn98 2.031 . S
O101 C105 1.269 . S
O102 Zn99 1.986 . S
O102 C109 1.262 . S
O103 Zn98 2.049 . S
O103 C111 1.260 . S
O104 Zn99 1.996 1_545 S
O104 C111 1.257 . S
C105 O100 1.254 . S
C105 O101 1.269 . S
C106 O107 1.249 . S
C106 O108 1.270 1_565 S
O107 Zn99 1.943 . S
O107 C106 1.249 . S
O108 Zn98 2.067 . S
O108 C106 1.270 1_545 S
C109 O102 1.262 . S
C109 O110 1.232 . S
O110 C109 1.232 . S
C111 O103 1.260 . S
C111 O104 1.257 . S
Zn112 O115 2.031 . S
Zn112 O117 2.049 1_556 S
Zn112 O122 2.067 . S
Zn113 O114 1.962 . S
Zn113 O116 1.986 . S
Zn113 O118 1.996 . S
Zn113 O121 1.943 1_554 S
O114 Zn113 1.962 . S
O114 C119 1.254 . S
O115 Zn112 2.031 . S
O115 C119 1.269 1_556 S
O116 Zn113 1.986 . S
O116 C123 1.262 . S
O117 Zn112 2.049 1_554 S
O117 C125 1.260 . S
O118 Zn113 1.996 . S
O118 C125 1.257 . S
C119 O114 1.254 . S
C119 O115 1.269 1_554 S
C120 O121 1.249 . S
C120 O122 1.270 . S
O121 Zn113 1.943 1_556 S
O121 C120 1.249 . S
O122 Zn112 2.067 . S
O122 C120 1.270 . S
C123 O116 1.262 . S
C123 O124 1.232 . S
O124 C123 1.232 . S
C125 O117 1.260 . S
C125 O118 1.257 . S
Zn126 O129 2.031 . S
Zn126 O131 2.049 . S
Zn126 O136 2.067 . S
Zn127 O128 1.962 1_455 S
Zn127 O130 1.986 . S
Zn127 O132 1.996 1_455 S
Zn127 O135 1.943 . S
O128 Zn127 1.962 1_655 S
O128 C133 1.254 . S
O129 Zn126 2.031 . S
O129 C133 1.269 . S
O130 Zn127 1.986 . S
O130 C137 1.262 . S
O131 Zn126 2.049 . S
O131 C139 1.260 . S
O132 Zn127 1.996 1_655 S
O132 C139 1.257 . S
C133 O128 1.254 . S
C133 O129 1.269 . S
C134 O135 1.249 . S
C134 O136 1.270 1_455 S
O135 Zn127 1.943 . S
O135 C134 1.249 . S
O136 Zn126 2.067 . S
O136 C134 1.270 1_655 S
C137 O130 1.262 . S
C137 O138 1.232 . S
O138 C137 1.232 . S
C139 O131 1.260 . S
C139 O132 1.257 . S
Zn140 O143 2.031 . S
Zn140 O145 2.049 . S
Zn140 O150 2.067 . S
Zn141 O142 1.962 1_545 S
Zn141 O144 1.986 . S
Zn141 O146 1.996 1_545 S
Zn141 O149 1.943 . S
O142 Zn141 1.962 1_565 S
O142 C147 1.254 . S
O143 Zn140 2.031 . S
O143 C147 1.269 . S
O144 Zn141 1.986 . S
O144 C151 1.262 . S
O145 Zn140 2.049 . S
O145 C153 1.260 . S
O146 Zn141 1.996 1_565 S
O146 C153 1.257 . S
C147 O142 1.254 . S
C147 O143 1.269 . S
C148 O149 1.249 . S
C148 O150 1.270 1_545 S
O149 Zn141 1.943 . S
O149 C148 1.249 . S
O150 Zn140 2.067 . S
O150 C148 1.270 1_565 S
C151 O144 1.262 . S
C151 O152 1.232 . S
O152 C151 1.232 . S
C153 O145 1.260 . S
C153 O146 1.257 . S
Zn154 O157 2.031 . S
Zn154 O159 2.049 1_556 S
Zn154 O164 2.067 . S
Zn155 O156 1.962 . S
Zn155 O158 1.986 . S
Zn155 O160 1.996 . S
Zn155 O163 1.943 1_554 S
O156 Zn155 1.962 . S
O156 C161 1.254 . S
O157 Zn154 2.031 . S
O157 C161 1.269 1_556 S
O158 Zn155 1.986 . S
O158 C165 1.262 . S
O159 Zn154 2.049 1_554 S
O159 C167 1.260 . S
O160 Zn155 1.996 . S
O160 C167 1.257 . S
C161 O156 1.254 . S
C161 O157 1.269 1_554 S
C162 O163 1.249 . S
C162 O164 1.270 . S
O163 Zn155 1.943 1_556 S
O163 C162 1.249 . S
O164 Zn154 2.067 . S
O164 C162 1.270 . S
C165 O158 1.262 . S
C165 O166 1.232 . S
O166 C165 1.232 . S
C167 O159 1.260 . S
C167 O160 1.257 . S
C168 C169 1.369 . S
C168 C170 1.419 . S
C168 H172 0.930 . S
C169 C168 1.369 . S
C169 C178 1.429 . S
C170 C168 1.419 . S
C170 C171 1.363 . S
C170 H173 0.929 . S
C171 C170 1.363 . S
C171 C177 1.428 . S
H172 C168 0.930 . S
H173 C170 0.929 . S
S174 N175 1.613 . S
S174 N176 1.610 . S
N175 S174 1.613 . S
N175 C178 1.350 . S
N176 S174 1.610 . S
N176 C177 1.351 . S
C177 C171 1.428 . S
C177 N176 1.351 . S
C177 C178 1.434 . S
C178 C169 1.429 . S
C178 N175 1.350 . S
C178 C177 1.434 . S
C179 C180 1.369 . S
C179 C181 1.419 . S
C179 H183 0.930 . S
C180 C179 1.369 . S
C180 C189 1.429 . S
C181 C179 1.419 . S
C181 C182 1.363 . S
C181 H184 0.929 . S
C182 C181 1.363 . S
C182 C188 1.428 . S
H183 C179 0.930 . S
H184 C181 0.929 . S
S185 N186 1.613 . S
S185 N187 1.610 . S
N186 S185 1.613 . S
N186 C189 1.350 . S
N187 S185 1.610 . S
N187 C188 1.351 . S
C188 C182 1.428 . S
C188 N187 1.351 . S
C188 C189 1.434 . S
C189 C180 1.429 . S
C189 N186 1.350 . S
C189 C188 1.434 . S
C190 C191 1.369 . S
C190 C192 1.419 . S
C190 H194 0.930 . S
C191 C190 1.369 . S
C191 C200 1.429 . S
C192 C190 1.419 . S
C192 C193 1.363 . S
C192 H195 0.929 . S
C193 C192 1.363 . S
C193 C199 1.428 . S
H194 C190 0.930 . S
H195 C192 0.929 . S
S196 N197 1.613 . S
S196 N198 1.610 . S
N197 S196 1.613 . S
N197 C200 1.350 . S
N198 S196 1.610 . S
N198 C199 1.351 . S
C199 C193 1.428 . S
C199 N198 1.351 . S
C199 C200 1.434 . S
C200 C191 1.429 . S
C200 N197 1.350 . S
C200 C199 1.434 . S
C201 C202 1.369 . S
C201 C203 1.419 . S
C201 H205 0.930 . S
C202 C201 1.369 . S
C202 C211 1.429 . S
C203 C201 1.419 . S
C203 C204 1.363 . S
C203 H206 0.929 . S
C204 C203 1.363 . S
C204 C210 1.428 . S
H205 C201 0.930 . S
H206 C203 0.929 . S
S207 N208 1.613 . S
S207 N209 1.610 . S
N208 S207 1.613 . S
N208 C211 1.350 . S
N209 S207 1.610 . S
N209 C210 1.351 . S
C210 C204 1.428 . S
C210 N209 1.351 . S
C210 C211 1.434 . S
C211 C202 1.429 . S
C211 N208 1.350 . S
C211 C210 1.434 . S
C212 C213 1.369 . S
C212 C214 1.419 . S
C212 H216 0.930 . S
C213 C212 1.369 . S
C213 C222 1.429 . S
C214 C212 1.419 . S
C214 C215 1.363 . S
C214 H217 0.929 . S
C215 C214 1.363 . S
C215 C221 1.428 . S
H216 C212 0.930 . S
H217 C214 0.929 . S
S218 N219 1.613 . S
S218 N220 1.610 . S
N219 S218 1.613 . S
N219 C222 1.350 . S
N220 S218 1.610 . S
N220 C221 1.351 . S
C221 C215 1.428 . S
C221 N220 1.351 . S
C221 C222 1.434 . S
C222 C213 1.429 . S
C222 N219 1.350 . S
C222 C221 1.434 . S
C223 C224 1.369 . S
C223 C225 1.419 . S
C223 H227 0.930 . S
C224 C223 1.369 . S
C224 C233 1.429 . S
C225 C223 1.419 . S
C225 C226 1.363 . S
C225 H228 0.929 . S
C226 C225 1.363 . S
C226 C232 1.428 . S
H227 C223 0.930 . S
H228 C225 0.929 . S
S229 N230 1.613 . S
S229 N231 1.610 . S
N230 S229 1.613 . S
N230 C233 1.350 . S
N231 S229 1.610 . S
N231 C232 1.351 . S
C232 C226 1.428 . S
C232 N231 1.351 . S
C232 C233 1.434 . S
C233 C224 1.429 . S
C233 N230 1.350 . S
C233 C232 1.434 . S
C234 C235 1.369 . S
C234 C236 1.419 . S
C234 H238 0.930 . S
C235 C234 1.369 . S
C235 C244 1.429 1_565 S
C236 C234 1.419 . S
C236 C237 1.363 1_565 S
C236 H239 0.929 . S
C237 C236 1.363 1_545 S
C237 C243 1.428 . S
H238 C234 0.930 . S
H239 C236 0.929 . S
S240 N241 1.613 . S
S240 N242 1.610 . S
N241 S240 1.613 . S
N241 C244 1.350 . S
N242 S240 1.610 . S
N242 C243 1.351 . S
C243 C237 1.428 . S
C243 N242 1.351 . S
C243 C244 1.434 . S
C244 C235 1.429 1_545 S
C244 N241 1.350 . S
C244 C243 1.434 . S
C245 C246 1.369 . S
C245 C247 1.419 . S
C245 H249 0.930 . S
C246 C245 1.369 . S
C246 C255 1.429 . S
C247 C245 1.419 . S
C247 C248 1.363 . S
C247 H250 0.929 . S
C248 C247 1.363 . S
C248 C254 1.428 . S
H249 C245 0.930 . S
H250 C247 0.929 . S
S251 N252 1.613 . S
S251 N253 1.610 . S
N252 S251 1.613 . S
N252 C255 1.350 . S
N253 S251 1.610 . S
N253 C254 1.351 . S
C254 C248 1.428 . S
C254 N253 1.351 . S
C254 C255 1.434 . S
C255 C246 1.429 . S
C255 N252 1.350 . S
C255 C254 1.434 . S
C256 C257 1.369 . S
C256 C258 1.419 . S
C256 H260 0.930 . S
C257 C256 1.369 . S
C257 C266 1.429 1_655 S
C258 C256 1.419 . S
C258 C259 1.363 1_655 S
C258 H261 0.929 . S
C259 C258 1.363 1_455 S
C259 C265 1.428 . S
H260 C256 0.930 . S
H261 C258 0.929 . S
S262 N263 1.613 . S
S262 N264 1.610 . S
N263 S262 1.613 . S
N263 C266 1.350 . S
N264 S262 1.610 . S
N264 C265 1.351 . S
C265 C259 1.428 . S
C265 N264 1.351 . S
C265 C266 1.434 . S
C266 C257 1.429 1_455 S
C266 N263 1.350 . S
C266 C265 1.434 . S
C267 C268 1.369 . S
C267 C269 1.419 . S
C267 H271 0.930 . S
C268 C267 1.369 . S
C268 C277 1.429 1_455 S
C269 C267 1.419 . S
C269 C270 1.363 1_455 S
C269 H272 0.929 . S
C270 C269 1.363 1_655 S
C270 C276 1.428 . S
H271 C267 0.930 . S
H272 C269 0.929 . S
S273 N274 1.613 . S
S273 N275 1.610 . S
N274 S273 1.613 . S
N274 C277 1.350 . S
N275 S273 1.610 . S
N275 C276 1.351 . S
C276 C270 1.428 . S
C276 N275 1.351 . S
C276 C277 1.434 . S
C277 C268 1.429 1_655 S
C277 N274 1.350 . S
C277 C276 1.434 . S
C278 C279 1.369 . S
C278 C280 1.419 . S
C278 H282 0.930 . S
C279 C278 1.369 . S
C279 C288 1.429 1_565 S
C280 C278 1.419 . S
C280 C281 1.363 1_565 S
C280 H283 0.929 . S
C281 C280 1.363 1_545 S
C281 C287 1.428 . S
H282 C278 0.930 . S
H283 C280 0.929 . S
S284 N285 1.613 . S
S284 N286 1.610 . S
N285 S284 1.613 . S
N285 C288 1.350 . S
N286 S284 1.610 . S
N286 C287 1.351 . S
C287 C281 1.428 . S
C287 N286 1.351 . S
C287 C288 1.434 . S
C288 C279 1.429 1_545 S
C288 N285 1.350 . S
C288 C287 1.434 . S
C289 C290 1.369 . S
C289 C291 1.419 . S
C289 H293 0.930 1_554 S
C290 C289 1.369 . S
C290 C299 1.429 . S
C291 C289 1.419 . S
C291 C292 1.363 . S
C291 H294 0.929 1_554 S
C292 C291 1.363 . S
C292 C298 1.428 . S
H293 C289 0.930 1_556 S
H294 C291 0.929 1_556 S
S295 N296 1.613 . S
S295 N297 1.610 . S
N296 S295 1.613 . S
N296 C299 1.350 . S
N297 S295 1.610 . S
N297 C298 1.351 . S
C298 C292 1.428 . S
C298 N297 1.351 . S
C298 C299 1.434 . S
C299 C290 1.429 . S
C299 N296 1.350 . S
C299 C298 1.434 . S
C300 C301 1.369 . S
C300 C302 1.419 . S
C300 H304 0.930 . S
C301 C300 1.369 . S
C301 C310 1.429 . S
C302 C300 1.419 . S
C302 C303 1.363 . S
C302 H305 0.929 . S
C303 C302 1.363 . S
C303 C309 1.428 . S
H304 C300 0.930 . S
H305 C302 0.929 . S
S306 N307 1.613 . S
S306 N308 1.610 . S
N307 S306 1.613 . S
N307 C310 1.350 . S
N308 S306 1.610 . S
N308 C309 1.351 . S
C309 C303 1.428 . S
C309 N308 1.351 . S
C309 C310 1.434 . S
C310 C301 1.429 . S
C310 N307 1.350 . S
C310 C309 1.434 . S
C311 C312 1.369 . S
C311 C313 1.419 . S
C311 H315 0.930 . S
C312 C311 1.369 . S
C312 C321 1.429 . S
C313 C311 1.419 . S
C313 C314 1.363 . S
C313 H316 0.929 . S
C314 C313 1.363 . S
C314 C320 1.428 . S
H315 C311 0.930 . S
H316 C313 0.929 . S
S317 N318 1.613 . S
S317 N319 1.610 . S
N318 S317 1.613 . S
N318 C321 1.350 . S
N319 S317 1.610 . S
N319 C320 1.351 . S
C320 C314 1.428 . S
C320 N319 1.351 . S
C320 C321 1.434 . S
C321 C312 1.429 . S
C321 N318 1.350 . S
C321 C320 1.434 . S
C322 C323 1.369 . S
C322 C324 1.419 . S
C322 H326 0.930 . S
C323 C322 1.369 . S
C323 C332 1.429 1_554 S
C324 C322 1.419 . S
C324 C325 1.363 1_554 S
C324 H327 0.929 . S
C325 C324 1.363 1_556 S
C325 C331 1.428 . S
H326 C322 0.930 . S
H327 C324 0.929 . S
S328 N329 1.613 . S
S328 N330 1.610 . S
N329 S328 1.613 . S
N329 C332 1.350 . S
N330 S328 1.610 . S
N330 C331 1.351 . S
C331 C325 1.428 . S
C331 N330 1.351 . S
C331 C332 1.434 . S
C332 C323 1.429 1_556 S
C332 N329 1.350 . S
C332 C331 1.434 . S
C333 C334 1.369 . S
C333 C335 1.419 . S
C333 H337 0.930 . S
C334 C333 1.369 . S
C334 C343 1.429 . S
C335 C333 1.419 . S
C335 C336 1.363 . S
C335 H338 0.929 . S
C336 C335 1.363 . S
C336 C342 1.428 . S
H337 C333 0.930 . S
H338 C335 0.929 . S
S339 N340 1.613 . S
S339 N341 1.610 . S
N340 S339 1.613 . S
N340 C343 1.350 . S
N341 S339 1.610 . S
N341 C342 1.351 . S
C342 C336 1.428 . S
C342 N341 1.351 . S
C342 C343 1.434 . S
C343 C334 1.429 . S
C343 N340 1.350 . S
C343 C342 1.434 . S
C344 C345 1.369 . S
C344 C346 1.419 . S
C344 H348 0.930 . S
C345 C344 1.369 . S
C345 C354 1.429 . S
C346 C344 1.419 . S
C346 C347 1.363 . S
C346 H349 0.929 . S
C347 C346 1.363 . S
C347 C353 1.428 . S
H348 C344 0.930 . S
H349 C346 0.929 . S
S350 N351 1.613 . S
S350 N352 1.610 . S
N351 S350 1.613 . S
N351 C354 1.350 . S
N352 S350 1.610 . S
N352 C353 1.351 . S
C353 C347 1.428 . S
C353 N352 1.351 . S
C353 C354 1.434 . S
C354 C345 1.429 . S
C354 N351 1.350 . S
C354 C353 1.434 . S
C355 C356 1.369 . S
C355 C357 1.419 . S
C355 H359 0.930 . S
C356 C355 1.369 . S
C356 C365 1.429 1_554 S
C357 C355 1.419 . S
C357 C358 1.363 1_554 S
C357 H360 0.929 . S
C358 C357 1.363 1_556 S
C358 C364 1.428 . S
H359 C355 0.930 . S
H360 C357 0.929 . S
S361 N362 1.613 . S
S361 N363 1.610 . S
N362 S361 1.613 . S
N362 C365 1.350 . S
N363 S361 1.610 . S
N363 C364 1.351 . S
C364 C358 1.428 . S
C364 N363 1.351 . S
C364 C365 1.434 . S
C365 C356 1.429 1_556 S
C365 N362 1.350 . S
C365 C364 1.434 . S
C366 C367 1.369 1_565 S
C366 C368 1.419 . S
C366 H370 0.930 . S
C367 C366 1.369 1_545 S
C367 C376 1.429 . S
C368 C366 1.419 . S
C368 C369 1.363 . S
C368 H371 0.929 . S
C369 C368 1.363 . S
C369 C375 1.428 1_565 S
H370 C366 0.930 . S
H371 C368 0.929 . S
S372 N373 1.613 . S
S372 N374 1.610 . S
N373 S372 1.613 . S
N373 C376 1.350 . S
N374 S372 1.610 . S
N374 C375 1.351 . S
C375 C369 1.428 1_545 S
C375 N374 1.351 . S
C375 C376 1.434 . S
C376 C367 1.429 . S
C376 N373 1.350 . S
C376 C375 1.434 . S
C377 C378 1.369 . S
C377 C379 1.419 . S
C377 H381 0.930 . S
C378 C377 1.369 . S
C378 C387 1.429 . S
C379 C377 1.419 . S
C379 C380 1.363 . S
C379 H382 0.929 . S
C380 C379 1.363 . S
C380 C386 1.428 . S
H381 C377 0.930 . S
H382 C379 0.929 . S
S383 N384 1.613 . S
S383 N385 1.610 . S
N384 S383 1.613 . S
N384 C387 1.350 . S
N385 S383 1.610 . S
N385 C386 1.351 . S
C386 C380 1.428 . S
C386 N385 1.351 . S
C386 C387 1.434 . S
C387 C378 1.429 . S
C387 N384 1.350 . S
C387 C386 1.434 . S
C388 C389 1.369 . S
C388 C390 1.419 . S
C388 H392 0.930 . S
C389 C388 1.369 . S
C389 C398 1.429 1_455 S
C390 C388 1.419 . S
C390 C391 1.363 1_455 S
C390 H393 0.929 . S
C391 C390 1.363 1_655 S
C391 C397 1.428 . S
H392 C388 0.930 . S
H393 C390 0.929 . S
S394 N395 1.613 . S
S394 N396 1.610 . S
N395 S394 1.613 . S
N395 C398 1.350 . S
N396 S394 1.610 . S
N396 C397 1.351 . S
C397 C391 1.428 . S
C397 N396 1.351 . S
C397 C398 1.434 . S
C398 C389 1.429 1_655 S
C398 N395 1.350 . S
C398 C397 1.434 . S
C399 C400 1.369 1_545 S
C399 C401 1.419 . S
C399 H403 0.930 . S
C400 C399 1.369 1_565 S
C400 C409 1.429 . S
C401 C399 1.419 . S
C401 C402 1.363 . S
C401 H404 0.929 . S
C402 C401 1.363 . S
C402 C408 1.428 1_545 S
H403 C399 0.930 . S
H404 C401 0.929 . S
S405 N406 1.613 . S
S405 N407 1.610 . S
N406 S405 1.613 . S
N406 C409 1.350 . S
N407 S405 1.610 . S
N407 C408 1.351 . S
C408 C402 1.428 1_565 S
C408 N407 1.351 . S
C408 C409 1.434 . S
C409 C400 1.429 . S
C409 N406 1.350 . S
C409 C408 1.434 . S
C410 C411 1.369 . S
C410 C412 1.419 . S
C410 H414 0.930 . S
C411 C410 1.369 . S
C411 C420 1.429 . S
C412 C410 1.419 . S
C412 C413 1.363 . S
C412 H415 0.929 . S
C413 C412 1.363 . S
C413 C419 1.428 . S
H414 C410 0.930 . S
H415 C412 0.929 . S
S416 N417 1.613 . S
S416 N418 1.610 . S
N417 S416 1.613 . S
N417 C420 1.350 . S
N418 S416 1.610 . S
N418 C419 1.351 . S
C419 C413 1.428 . S
C419 N418 1.351 . S
C419 C420 1.434 . S
C420 C411 1.429 . S
C420 N417 1.350 . S
C420 C419 1.434 . S
C421 C422 1.369 . S
C421 C423 1.419 . S
C421 H425 0.930 . S
C422 C421 1.369 . S
C422 C431 1.429 1_655 S
C423 C421 1.419 . S
C423 C424 1.363 1_655 S
C423 H426 0.929 . S
C424 C423 1.363 1_455 S
C424 C430 1.428 . S
H425 C421 0.930 . S
H426 C423 0.929 . S
S427 N428 1.613 . S
S427 N429 1.610 . S
N428 S427 1.613 . S
N428 C431 1.350 . S
N429 S427 1.610 . S
N429 C430 1.351 . S
C430 C424 1.428 . S
C430 N429 1.351 . S
C430 C431 1.434 . S
C431 C422 1.429 1_455 S
C431 N428 1.350 . S
C431 C430 1.434 . S
C169 C11 1.628 . S
C171 C123 1.626 . S
C180 C25 1.628 . S
C182 C137 1.625 . S
C191 C151 1.621 . S
C193 C39 1.618 . S
C202 C165 1.628 . S
C204 C53 1.624 . S
C213 C95 1.626 . S
C215 C67 1.624 . S
C224 C109 1.622 . S
C226 C81 1.620 . S
C235 C13 1.381 . S
C237 C55 1.376 . S
C246 C69 1.370 . S
C248 C27 1.371 . S
C257 C83 1.376 . S
C259 C41 1.365 . S
C268 C97 1.381 . S
C270 C139 1.374 . S
C279 C153 1.367 . S
C281 C111 1.359 . S
C290 C125 1.377 . S
C292 C167 1.379 . S
C301 C91 1.266 . S
C303 C7 1.280 . S
C312 C21 1.273 . S
C314 C105 1.267 . S
C323 C119 1.264 . S
C325 C35 1.270 . S
C334 C133 1.280 . S
C336 C49 1.271 . S
C345 C63 1.274 . S
C347 C147 1.265 . S
C356 C161 1.261 . S
C358 C77 1.275 . S
C367 C8 1.153 . S
C369 C106 1.146 . S
C378 C120 1.145 . S
C380 C22 1.150 . S
C389 C134 1.142 . S
C391 C36 1.148 . S
C400 C50 1.150 . S
C402 C148 1.144 . S
C411 C162 1.159 . S
C413 C64 1.155 . S
C422 C92 1.143 . S
C424 C78 1.152 . S
