# Generated by pormake.
# Topology lcy-e, (6)-cn, num edge types: 1
# Building blocks:
#     Node 0, Type 0, BuildingBlock: NUHQIS_clean_sbu_0, # of connection points: 6
#     Node 1, Type 0, BuildingBlock: NUHQIS_clean_sbu_0, # of connection points: 6
#     Node 2, Type 0, BuildingBlock: NUHQIS_clean_sbu_0, # of connection points: 6
#     Node 3, Type 0, BuildingBlock: NUHQIS_clean_sbu_0, # of connection points: 6
#     Node 4, Type 0, BuildingBlock: NUHQIS_clean_sbu_0, # of connection points: 6
#     Node 5, Type 0, BuildingBlock: NUHQIS_clean_sbu_0, # of connection points: 6
#     Node 6, Type 0, BuildingBlock: NUHQIS_clean_sbu_0, # of connection points: 6
#     Node 7, Type 0, BuildingBlock: NUHQIS_clean_sbu_0, # of connection points: 6
#     Node 8, Type 0, BuildingBlock: NUHQIS_clean_sbu_0, # of connection points: 6
#     Node 9, Type 0, BuildingBlock: NUHQIS_clean_sbu_0, # of connection points: 6
#     Node 10, Type 0, BuildingBlock: NUHQIS_clean_sbu_0, # of connection points: 6
#     Node 11, Type 0, BuildingBlock: NUHQIS_clean_sbu_0, # of connection points: 6
#     Edge 12, Type (0, 0), BuildingBlock: EZIPEK_clean_linker_0, # of connection points: 2
#     Edge 13, Type (0, 0), BuildingBlock: EZIPEK_clean_linker_0, # of connection points: 2
#     Edge 14, Type (0, 0), BuildingBlock: EZIPEK_clean_linker_0, # of connection points: 2
#     Edge 15, Type (0, 0), BuildingBlock: EZIPEK_clean_linker_0, # of connection points: 2
#     Edge 16, Type (0, 0), BuildingBlock: EZIPEK_clean_linker_0, # of connection points: 2
#     Edge 17, Type (0, 0), BuildingBlock: EZIPEK_clean_linker_0, # of connection points: 2
#     Edge 18, Type (0, 0), BuildingBlock: EZIPEK_clean_linker_0, # of connection points: 2
#     Edge 19, Type (0, 0), BuildingBlock: EZIPEK_clean_linker_0, # of connection points: 2
#     Edge 20, Type (0, 0), BuildingBlock: EZIPEK_clean_linker_0, # of connection points: 2
#     Edge 21, Type (0, 0), BuildingBlock: EZIPEK_clean_linker_0, # of connection points: 2
#     Edge 22, Type (0, 0), BuildingBlock: EZIPEK_clean_linker_0, # of connection points: 2
#     Edge 23, Type (0, 0), BuildingBlock: EZIPEK_clean_linker_0, # of connection points: 2
#     Edge 24, Type (0, 0), BuildingBlock: EZIPEK_clean_linker_0, # of connection points: 2
#     Edge 25, Type (0, 0), BuildingBlock: EZIPEK_clean_linker_0, # of connection points: 2
#     Edge 26, Type (0, 0), BuildingBlock: EZIPEK_clean_linker_0, # of connection points: 2
#     Edge 27, Type (0, 0), BuildingBlock: EZIPEK_clean_linker_0, # of connection points: 2
#     Edge 28, Type (0, 0), BuildingBlock: EZIPEK_clean_linker_0, # of connection points: 2
#     Edge 29, Type (0, 0), BuildingBlock: EZIPEK_clean_linker_0, # of connection points: 2
#     Edge 30, Type (0, 0), BuildingBlock: EZIPEK_clean_linker_0, # of connection points: 2
#     Edge 31, Type (0, 0), BuildingBlock: EZIPEK_clean_linker_0, # of connection points: 2
#     Edge 32, Type (0, 0), BuildingBlock: EZIPEK_clean_linker_0, # of connection points: 2
#     Edge 33, Type (0, 0), BuildingBlock: EZIPEK_clean_linker_0, # of connection points: 2
#     Edge 34, Type (0, 0), BuildingBlock: EZIPEK_clean_linker_0, # of connection points: 2
#     Edge 35, Type (0, 0), BuildingBlock: EZIPEK_clean_linker_0, # of connection points: 2
#     Edge 36, Type (0, 0), BuildingBlock: EZIPEK_clean_linker_0, # of connection points: 2
#     Edge 37, Type (0, 0), BuildingBlock: EZIPEK_clean_linker_0, # of connection points: 2
#     Edge 38, Type (0, 0), BuildingBlock: EZIPEK_clean_linker_0, # of connection points: 2
#     Edge 39, Type (0, 0), BuildingBlock: EZIPEK_clean_linker_0, # of connection points: 2
#     Edge 40, Type (0, 0), BuildingBlock: EZIPEK_clean_linker_0, # of connection points: 2
#     Edge 41, Type (0, 0), BuildingBlock: EZIPEK_clean_linker_0, # of connection points: 2
#     Edge 42, Type (0, 0), BuildingBlock: EZIPEK_clean_linker_0, # of connection points: 2
#     Edge 43, Type (0, 0), BuildingBlock: EZIPEK_clean_linker_0, # of connection points: 2
#     Edge 44, Type (0, 0), BuildingBlock: EZIPEK_clean_linker_0, # of connection points: 2
#     Edge 45, Type (0, 0), BuildingBlock: EZIPEK_clean_linker_0, # of connection points: 2
#     Edge 46, Type (0, 0), BuildingBlock: EZIPEK_clean_linker_0, # of connection points: 2
#     Edge 47, Type (0, 0), BuildingBlock: EZIPEK_clean_linker_0, # of connection points: 2
# Relax obj value: 0.184
# Max RMSD: 0.299
# Mean RMSD: 0.280
data_MOF--net-lcy-e--node1-NUHQIS_clean_sbu_0--edge1-EZIPEK_clean_linker_0
_symmetry_space_group_name_H-M    P1
_symmetry_Int_Tables_number       1
_symmetry_cell_setting            triclinic
loop_
_symmetry_equiv_pos_as_xyz
'x, y, z'
_cell_length_a     34.01229
_cell_length_b     35.887217
_cell_length_c     33.800605
_cell_angle_alpha  89.780413
_cell_angle_beta   89.531905
_cell_angle_gamma 89.204758
loop_
_atom_site_label
_atom_site_type_symbol
_atom_site_fract_x
_atom_site_fract_y
_atom_site_fract_z
_atom_type_partial_charge
Tb0 Tb 0.14372 0.2599 0.54483 0.0
Eu1 Eu 0.11033 0.31983 0.47672 0.0
C2 C 0.18227 0.26392 0.46188 0.0
C3 C 0.17812 0.34345 0.53692 0.0
C4 C 0.14646 0.17141 0.60323 0.0
C5 C 0.12017 0.11167 0.582 0.0
C6 C 0.13675 0.14643 0.57288 0.0
C7 C 0.13923 0.16088 0.64267 0.0
C8 C 0.1225 0.12636 0.65174 0.0
C9 C 0.11262 0.10148 0.62156 0.0
C10 C 0.16118 0.20952 0.5948 0.0
O11 O 0.11579 0.3047 0.57611 0.0
O12 O 0.06961 0.32396 0.53082 0.0
O13 O 0.08302 0.26495 0.46441 0.0
O14 O 0.08589 0.24038 0.52695 0.0
C15 C 0.08203 0.3202 0.56764 0.0
O16 O 0.09762 0.37597 0.45393 0.0
O17 O 0.08612 0.32797 0.41774 0.0
O18 O 0.17035 0.2986 0.45749 0.0
O19 O 0.16557 0.24177 0.48762 0.0
O20 O 0.18486 0.30794 0.54732 0.0
O21 O 0.14886 0.35366 0.51436 0.0
C22 C 0.07134 0.24116 0.49112 0.0
O23 O 0.18098 0.21516 0.5621 0.0
O24 O 0.13588 0.23632 0.60126 0.0
C25 C 0.11146 0.38108 0.38547 0.0
C26 C 0.15454 0.41455 0.32353 0.0
C27 C 0.12251 0.43347 0.34109 0.0
C28 C 0.10105 0.4168 0.37179 0.0
C29 C 0.14362 0.36219 0.36787 0.0
C30 C 0.16483 0.37872 0.33696 0.0
C31 C 0.0894 0.36408 0.41862 0.0
H32 H 0.11289 0.09288 0.55824 0.0
H33 H 0.14155 0.15391 0.54218 0.0
H34 H 0.14602 0.17969 0.66659 0.0
H35 H 0.11708 0.11909 0.68242 0.0
H36 H 0.1143 0.46122 0.33115 0.0
H37 H 0.07654 0.4319 0.38507 0.0
H38 H 0.15251 0.33474 0.37817 0.0
H39 H 0.18961 0.36385 0.32391 0.0
Tb40 Tb 0.99711 0.89879 0.71645 0.0
Eu41 Eu 0.06246 0.93244 0.77504 0.0
C42 C 0.07632 0.85671 0.72401 0.0
C43 C 1.00963 0.86784 0.80582 0.0
C44 C 0.93036 0.89687 0.63151 0.0
C45 C 0.89078 0.89576 0.57198 0.0
C46 C 0.908 0.87717 0.60413 0.0
C47 C 0.93568 0.93531 0.62613 0.0
C48 C 0.9185 0.9539 0.59404 0.0
C49 C 0.8958 0.93427 0.56681 0.0
C50 C 0.94915 0.87727 0.66491 0.0
O51 O 0.97 0.95013 0.73661 0.0
O52 O 1.00173 0.95451 0.79569 0.0
O53 O 0.0506 0.97772 0.73159 0.0
O54 O 0.03524 0.93749 0.68241 0.0
C55 C 0.97057 0.96105 0.77341 0.0
O56 O 0.0841 0.95002 0.83243 0.0
O57 O 0.12176 0.95411 0.78061 0.0
O58 O 0.09194 0.88856 0.73477 0.0
O59 O 0.0382 0.85288 0.72378 0.0
O60 O 0.98462 0.87522 0.77657 0.0
O61 O 0.04568 0.87971 0.80458 0.0
C62 C 0.04688 0.97063 0.69414 0.0
O63 O 0.98717 0.87307 0.66183 0.0
O64 O 0.93871 0.88845 0.7002 0.0
C65 C 0.15074 0.93471 0.84018 0.0
C66 C 0.20562 0.89422 0.88719 0.0
C67 C 0.20667 0.93367 0.88392 0.0
C68 C 0.17882 0.9536 0.86185 0.0
C69 C 0.15278 0.8958 0.83822 0.0
C70 C 0.18063 0.87593 0.86035 0.0
C71 C 0.11972 0.95534 0.81917 0.0
H72 H 0.8732 0.88023 0.55134 0.0
H73 H 0.90382 0.84747 0.60766 0.0
H74 H 0.9531 0.95088 0.64684 0.0
H75 H 0.92255 0.98364 0.59062 0.0
H76 H 0.22908 0.94991 0.89786 0.0
H77 H 0.17928 0.98378 0.86171 0.0
H78 H 0.13279 0.88073 0.8195 0.0
H79 H 0.18233 0.84632 0.85535 0.0
Tb80 Tb 0.373 0.82587 0.04801 0.0
Eu81 Eu 0.40526 0.76354 0.98357 0.0
C82 C 0.33148 0.81725 0.96894 0.0
C83 C 0.34181 0.74181 0.04604 0.0
C84 C 0.37027 0.91397 0.10537 0.0
C85 C 0.37844 0.98137 0.10316 0.0
C86 C 0.36007 0.94917 0.08977 0.0
C87 C 0.39945 0.91171 0.13465 0.0
C88 C 0.41764 0.94399 0.14821 0.0
C89 C 0.40712 0.97906 0.13271 0.0
C90 C 0.35058 0.88019 0.0904 0.0
O91 O 0.42888 0.80844 0.07197 0.0
O92 O 0.43194 0.75009 0.04423 0.0
O93 O 0.45437 0.80334 0.98954 0.0
O94 O 0.4147 0.85283 1.00696 0.0
C95 C 0.44075 0.77361 0.07295 0.0
O96 O 0.41569 0.70601 0.96509 0.0
O97 O 0.42808 0.75119 0.92436 0.0
O98 O 0.36457 0.8052 0.95304 0.0
O99 O 0.32604 0.81621 1.00715 0.0
O100 O 0.35116 0.77071 0.06836 0.0
O101 O 0.34898 0.74212 1.00802 0.0
C102 C 0.44826 0.83918 0.99303 0.0
O103 O 0.34582 0.87866 0.05226 0.0
O104 O 0.36171 0.84801 0.10468 0.0
C105 C 0.40287 0.69601 0.89721 0.0
C106 C 0.36234 0.6548 0.83841 0.0
C107 C 0.40317 0.66219 0.83518 0.0
C108 C 0.42321 0.68135 0.86467 0.0
C109 C 0.3618 0.69385 0.89815 0.0
C110 C 0.34177 0.67468 0.86854 0.0
C111 C 0.42447 0.71526 0.92869 0.0
H112 H 0.3698 1.0082 0.09099 0.0
H113 H 0.33772 0.95179 0.06722 0.0
H114 H 0.40815 0.88509 0.14726 0.0
H115 H 0.43959 0.9417 0.17117 0.0
H116 H 0.42034 0.6536 0.80973 0.0
H117 H 0.4547 0.68489 0.86185 0.0
H118 H 0.34512 0.70727 0.92166 0.0
H119 H 0.31018 0.67673 0.8696 0.0
Tb120 Tb 0.5282 0.17608 0.22542 0.0
Eu121 Eu 0.46601 0.14411 0.2916 0.0
C122 C 0.44755 0.21568 0.23524 0.0
C123 C 0.51727 0.21411 0.31124 0.0
C124 C 0.59612 0.17765 0.13766 0.0
C125 C 0.61415 0.17659 0.06784 0.0
C126 C 0.59244 0.192 0.09929 0.0
C127 C 0.61948 0.14567 0.14336 0.0
C128 C 0.64141 0.13053 0.11193 0.0
C129 C 0.64257 0.14796 0.07416 0.0
C130 C 0.57467 0.19588 0.17079 0.0
O131 O 0.55451 0.1251 0.24752 0.0
O132 O 0.52782 0.12516 0.30986 0.0
O133 O 0.47585 0.09824 0.24847 0.0
O134 O 0.48812 0.13711 0.19639 0.0
C135 C 0.55708 0.11721 0.28522 0.0
O136 O 0.44631 0.13438 0.35239 0.0
O137 O 0.40964 0.11795 0.30354 0.0
O138 O 0.4334 0.18486 0.25084 0.0
O139 O 0.48533 0.22054 0.23097 0.0
O140 O 0.54164 0.20424 0.28205 0.0
O141 O 0.48281 0.19905 0.31447 0.0
C142 C 0.47693 0.10463 0.21049 0.0
O143 O 0.53649 0.19741 0.16796 0.0
O144 O 0.58582 0.18765 0.20669 0.0
C145 C 0.37822 0.14582 0.35809 0.0
C146 C 0.31411 0.1878 0.38795 0.0
C147 C 0.31974 0.15048 0.39959 0.0
C148 C 0.35162 0.12958 0.38468 0.0
C149 C 0.37262 0.18318 0.34652 0.0
C150 C 0.34074 0.20399 0.36127 0.0
C151 C 0.41137 0.12402 0.34154 0.0
H152 H 0.6075 0.1873 0.03883 0.0
H153 H 0.57252 0.21518 0.09352 0.0
H154 H 0.6209 0.13226 0.1721 0.0
H155 H 0.65723 0.10485 0.11784 0.0
H156 H 0.29945 0.13759 0.42019 0.0
H157 H 0.35544 0.1008 0.39382 0.0
H158 H 0.39287 0.19618 0.32594 0.0
H159 H 0.33686 0.23273 0.352 0.0
Tb160 Tb 0.65693 0.31971 0.48147 0.0
Eu161 Eu 0.62652 0.25358 0.54082 0.0
C162 C 0.69784 0.30726 0.56128 0.0
C163 C 0.6919 0.23608 0.47902 0.0
C164 C 0.65763 0.41029 0.42693 0.0
C165 C 0.65056 0.47795 0.43026 0.0
C166 C 0.66838 0.44471 0.44312 0.0
C167 C 0.62829 0.40987 0.39778 0.0
C168 C 0.61066 0.4432 0.38474 0.0
C169 C 0.6219 0.4775 0.40063 0.0
C170 C 0.67753 0.37549 0.44063 0.0
O171 O 0.60166 0.30383 0.45604 0.0
O172 O 0.59967 0.24374 0.47976 0.0
O173 O 0.57651 0.2937 0.53657 0.0
O174 O 0.61459 0.34449 0.52445 0.0
C175 C 0.59041 0.26925 0.45276 0.0
O176 O 0.62404 0.19483 0.55835 0.0
O177 O 0.59646 0.23727 0.59511 0.0
O178 O 0.66506 0.29317 0.57526 0.0
O179 O 0.70395 0.30982 0.52313 0.0
O180 O 0.68089 0.26573 0.45812 0.0
O181 O 0.68437 0.23446 0.51684 0.0
C182 C 0.58152 0.32966 0.53726 0.0
O183 O 0.68284 0.37248 0.47861 0.0
O184 O 0.66641 0.34406 0.42544 0.0
C185 C 0.62939 0.18788 0.62771 0.0
C186 C 0.66905 0.15958 0.69454 0.0
C187 C 0.6462 0.13605 0.67114 0.0
C188 C 0.62644 0.15013 0.638 0.0
C189 C 0.65283 0.21128 0.65077 0.0
C190 C 0.67223 0.1973 0.6841 0.0
C191 C 0.60843 0.20263 0.59281 0.0
H192 H 0.65972 0.50415 0.44279 0.0
H193 H 0.69089 0.44594 0.46556 0.0
H194 H 0.61918 0.38389 0.38473 0.0
H195 H 0.58867 0.4423 0.36177 0.0
H196 H 0.64335 0.10687 0.67883 0.0
H197 H 0.60876 0.13161 0.6205 0.0
H198 H 0.65595 0.24045 0.64317 0.0
H199 H 0.68963 0.21587 0.70183 0.0
Tb200 Tb 0.97315 0.42633 0.74446 0.0
Eu201 Eu 0.03754 0.39873 0.81144 0.0
C202 C 0.97773 0.46932 0.82351 0.0
C203 C 0.05743 0.46551 0.75471 0.0
C204 C 0.88775 0.41816 0.67736 0.0
C205 C 0.81761 0.40491 0.67498 0.0
C206 C 0.84894 0.42492 0.6905 0.0
C207 C 0.89446 0.39056 0.64844 0.0
C208 C 0.86299 0.37071 0.63269 0.0
C209 C 0.82429 0.37796 0.64561 0.0
C210 C 0.92052 0.44015 0.694 0.0
O211 O 0.99634 0.37354 0.72517 0.0
O212 O 0.05764 0.37686 0.75114 0.0
O213 O 0.99544 0.35229 0.80507 0.0
O214 O 0.94322 0.38898 0.78627 0.0
C215 C 0.03405 0.36702 0.72235 0.0
O216 O 0.09751 0.38774 0.83103 0.0
O217 O 0.04864 0.3782 0.87125 0.0
O218 O 0.99507 0.44025 0.84021 0.0
O219 O 0.97363 0.47215 0.78518 0.0
O220 O 0.0303 0.45297 0.73014 0.0
O221 O 0.05818 0.4539 0.79131 0.0
C222 C 0.95767 0.35761 0.80077 0.0
O223 O 0.91737 0.44868 0.73136 0.0
O224 O 0.95646 0.43012 0.68466 0.0
C225 C 0.10651 0.40247 0.89815 0.0
C226 C 0.14993 0.44404 0.95412 0.0
C227 C 0.1467 0.40469 0.95687 0.0
C228 C 0.12646 0.38424 0.92862 0.0
C229 C 0.10439 0.44145 0.89815 0.0
C230 C 0.12474 0.46189 0.92646 0.0
C231 C 0.08673 0.3808 0.86746 0.0
H232 H 0.78796 0.41109 0.68518 0.0
H233 H 0.84271 0.44601 0.71262 0.0
H234 H 0.92392 0.38452 0.63763 0.0
H235 H 0.86873 0.35018 0.60988 0.0
H236 H 0.15943 0.38897 0.98097 0.0
H237 H 0.12629 0.3541 0.93072 0.0
H238 H 0.08674 0.45612 0.87638 0.0
H239 H 0.11944 0.49154 0.92642 0.0
Tb240 Tb 0.91315 0.81457 0.03858 0.0
Eu241 Eu 0.87852 0.75438 0.97588 0.0
C242 C 0.95402 0.73752 0.03195 0.0
C243 C 0.95324 0.80169 0.95245 0.0
C244 C 0.9085 0.87809 0.12515 0.0
C245 C 0.89591 0.88253 0.1962 0.0
C246 C 0.91641 0.86667 0.16419 0.0
C247 C 0.87939 0.90578 0.11891 0.0
C248 C 0.85908 0.92184 0.15101 0.0
C249 C 0.86733 0.91048 0.18993 0.0
C250 C 0.93069 0.86078 0.09162 0.0
O251 O 0.85909 0.8377 1.01513 0.0
O252 O 0.86073 0.81203 0.95357 0.0
O253 O 0.83152 0.76599 0.0208 0.0
O254 O 0.87445 0.77599 0.07055 0.0
C255 C 0.85236 0.84017 0.97716 0.0
O256 O 0.87088 0.73035 0.91708 0.0
O257 O 0.84244 0.70541 0.96801 0.0
O258 O 0.92147 0.72409 1.01694 0.0
O259 O 0.95981 0.77341 0.03448 0.0
O260 O 0.94377 0.82529 0.98142 0.0
O261 O 0.93663 0.76916 0.95051 0.0
C262 C 0.83969 0.76565 0.05841 0.0
O263 O 0.93738 0.82502 0.09437 0.0
O264 O 0.92069 0.87037 0.05574 0.0
C265 C 0.86895 0.66487 0.92012 0.0
C266 C 0.9045 0.59708 0.89751 0.0
C267 C 0.8783 0.61556 0.87197 0.0
C268 C 0.86054 0.64927 0.88327 0.0
C269 C 0.89477 0.64603 0.9459 0.0
C270 C 0.9123 0.61223 0.93472 0.0
C271 C 0.85229 0.70147 0.93091 0.0
H272 H 0.90285 0.8735 0.22598 0.0
H273 H 0.93866 0.84551 0.17002 0.0
H274 H 0.87243 0.91526 0.0893 0.0
H275 H 0.83727 0.94349 0.14555 0.0
H276 H 0.87231 0.60425 0.843 0.0
H277 H 0.84088 0.66351 0.86298 0.0
H278 H 0.90194 0.65778 0.97438 0.0
H279 H 0.93278 0.59844 0.95452 0.0
Tb280 Tb 0.56496 0.64737 0.24323 0.0
Eu281 Eu 0.49664 0.67541 0.30601 0.0
C282 C 0.55551 0.60755 0.32359 0.0
C283 C 0.47795 0.61426 0.24404 0.0
C284 C 0.65539 0.65059 0.18188 0.0
C285 C 0.72555 0.66121 0.17366 0.0
C286 C 0.69462 0.641 0.19032 0.0
C287 C 0.64764 0.68123 0.15683 0.0
C288 C 0.67863 0.70125 0.13989 0.0
C289 C 0.7178 0.69123 0.14798 0.0
C290 C 0.6232 0.62904 0.20038 0.0
O291 O 0.54478 0.69897 0.21727 0.0
O292 O 0.48292 0.70099 0.24534 0.0
O293 O 0.53582 0.72422 0.29931 0.0
O294 O 0.5906 0.68986 0.28222 0.0
C295 C 0.50787 0.70967 0.21643 0.0
O296 O 0.43499 0.67829 0.32516 0.0
O297 O 0.48048 0.70086 0.36232 0.0
O298 O 0.54082 0.63861 0.33832 0.0
O299 O 0.55766 0.60248 0.28537 0.0
O300 O 0.50812 0.62503 0.22193 0.0
O301 O 0.47715 0.62105 0.28193 0.0
C302 C 0.57391 0.72098 0.29524 0.0
O303 O 0.62332 0.62752 0.23889 0.0
O304 O 0.58782 0.63448 0.18682 0.0
C305 C 0.42824 0.66953 0.39438 0.0
C306 C 0.39791 0.62916 0.45936 0.0
C307 C 0.37276 0.65058 0.4353 0.0
C308 C 0.38783 0.67068 0.4031 0.0
C309 C 0.45331 0.64758 0.4182 0.0
C310 C 0.43829 0.62778 0.4506 0.0
C311 C 0.44382 0.69073 0.36019 0.0
H312 H 0.75559 0.65297 0.18009 0.0
H313 H 0.70135 0.61772 0.20974 0.0
H314 H 0.61772 0.68963 0.1501 0.0
H315 H 0.67209 0.72422 0.12001 0.0
H316 H 0.34151 0.65199 0.4417 0.0
H317 H 0.36795 0.68719 0.38503 0.0
H318 H 0.48456 0.64579 0.41188 0.0
H319 H 0.45811 0.61137 0.46882 0.0
Tb320 Tb 0.23693 0.57094 0.15749 0.0
Eu321 Eu 0.30337 0.5085 0.13195 0.0
C322 C 0.24006 0.49598 0.20212 0.0
C323 C 0.32254 0.56582 0.19858 0.0
C324 C 0.1481 0.63182 0.15055 0.0
C325 C 0.09692 0.67908 0.14181 0.0
C326 C 0.1292 0.66485 0.16278 0.0
C327 C 0.13427 0.61321 0.11699 0.0
C328 C 0.10211 0.62751 0.09591 0.0
C329 C 0.08319 0.66053 0.10823 0.0
C330 C 0.18167 0.61667 0.17323 0.0
O331 O 0.26222 0.59238 0.10336 0.0
O332 O 0.32298 0.56482 0.10729 0.0
O333 O 0.26531 0.51797 0.07967 0.0
O334 O 0.2101 0.532 0.11545 0.0
C335 C 0.29998 0.59254 0.09518 0.0
O336 O 0.3623 0.48294 0.13275 0.0
O337 O 0.31582 0.45745 0.09938 0.0
O338 O 0.25755 0.48077 0.17116 0.0
O339 O 0.23858 0.53218 0.20642 0.0
O340 O 0.29301 0.587 0.18563 0.0
O341 O 0.32422 0.53047 0.18939 0.0
C342 C 0.22714 0.51944 0.08292 0.0
O343 O 0.1806 0.58115 0.18111 0.0
O344 O 0.21658 0.6266 0.16145 0.0
C345 C 0.36041 0.41695 0.13163 0.0
C346 C 0.3787 0.34751 0.16668 0.0
C347 C 0.40748 0.36709 0.14544 0.0
C348 C 0.39837 0.40154 0.12795 0.0
C349 C 0.33154 0.39724 0.15284 0.0
C350 C 0.34058 0.36267 0.17007 0.0
C351 C 0.3512 0.45349 0.11348 0.0
H352 H 0.08271 0.70465 0.15166 0.0
H353 H 0.13933 0.67957 0.18861 0.0
H354 H 0.14819 0.5875 0.10729 0.0
H355 H 0.09194 0.61284 0.07006 0.0
H356 H 0.43711 0.35585 0.14277 0.0
H357 H 0.42102 0.41627 0.11179 0.0
H358 H 0.30206 0.40866 0.15628 0.0
H359 H 0.31813 0.34806 0.18664 0.0
Tb360 Tb 0.80008 0.07101 0.89762 0.0
Eu361 Eu 0.73237 1.01125 0.87486 0.0
C362 C 0.72424 0.06835 0.94737 0.0
C363 C 0.79885 0.98883 0.93518 0.0
C364 C 0.85867 0.15795 0.89403 0.0
C365 C 0.84984 0.22507 0.88571 0.0
C366 C 0.83823 0.19138 0.90273 0.0
C367 C 0.89077 0.15903 0.86754 0.0
C368 C 0.90244 0.19282 0.85061 0.0
C369 C 0.8823 0.22606 0.85996 0.0
C370 C 0.84712 0.1226 0.91358 0.0
O371 O 0.821 0.04854 0.8418 0.0
O372 O 0.78935 0.99284 0.84408 0.0
O373 O 0.73766 0.04964 0.82314 0.0
O374 O 0.75694 0.09944 0.85964 0.0
C375 C 0.81853 1.01356 0.83101 0.0
O376 O 0.71019 0.95457 0.8702 0.0
O377 O 0.67335 1.00142 0.85288 0.0
O378 O 0.70562 0.05405 0.9172 0.0
O379 O 0.76257 0.06596 0.94917 0.0
O380 O 0.81999 1.01698 0.922 0.0
O381 O 0.76083 0.98834 0.92916 0.0
C382 C 0.74149 0.08551 0.82747 0.0
O383 O 0.81109 0.12115 0.92676 0.0
O384 O 0.85789 0.09144 0.89668 0.0
C385 C 0.64185 0.94972 0.88139 0.0
C386 C 0.57743 0.91926 0.92248 0.0
C387 C 0.58767 0.9064 0.88455 0.0
C388 C 0.61967 0.92154 0.86415 0.0
C389 C 0.63167 0.96267 0.91935 0.0
C390 C 0.59956 0.94759 0.93974 0.0
C391 C 0.67518 0.9656 0.85937 0.0
H392 H 0.8342 0.25054 0.89346 0.0
H393 H 0.81357 0.19166 0.92321 0.0
H394 H 0.90727 0.13389 0.86037 0.0
H395 H 0.92778 0.19321 0.83098 0.0
H396 H 0.57094 0.88454 0.87083 0.0
H397 H 0.62709 0.91126 0.83489 0.0
H398 H 0.64852 0.98443 0.9331 0.0
H399 H 0.59206 0.95782 0.96899 0.0
Tb400 Tb 0.73367 1.00563 0.39136 0.0
Eu401 Eu 0.80079 0.06573 0.36587 0.0
C402 C 0.81147 1.00795 0.43861 0.0
C403 C 0.74032 0.08652 0.43233 0.0
C404 C 0.67042 0.92154 0.38959 0.0
C405 C 0.6268 0.86839 0.38962 0.0
C406 C 0.63927 0.90171 0.4066 0.0
C407 C 0.68898 0.90759 0.35531 0.0
C408 C 0.67644 0.87433 0.33822 0.0
C409 C 0.6453 0.85446 0.35535 0.0
C410 C 0.68459 0.95553 0.40896 0.0
O411 O 0.71252 0.02978 0.33665 0.0
O412 O 0.74196 0.08606 0.34163 0.0
O413 O 0.79518 1.02745 0.31443 0.0
O414 O 0.77525 0.97721 0.35078 0.0
C415 C 0.71299 0.06556 0.32861 0.0
O416 O 0.8212 0.12281 0.3589 0.0
O417 O 0.85954 0.07649 0.34278 0.0
O418 O 0.82888 1.02398 0.40819 0.0
O419 O 0.77312 1.00635 0.44101 0.0
O420 O 0.71731 0.06002 0.41862 0.0
O421 O 0.77787 0.08551 0.42393 0.0
C422 C 0.7913 0.9915 0.3186 0.0
O423 O 0.72143 0.95467 0.41904 0.0
O424 O 0.67496 0.98734 0.39275 0.0
C425 C 0.8884 0.128 0.3731 0.0
C426 C 0.94802 0.15879 0.41922 0.0
C427 C 0.93974 0.17343 0.38157 0.0
C428 C 0.91011 0.15806 0.3586 0.0
C429 C 0.89663 0.11336 0.41082 0.0
C430 C 0.92638 0.12862 0.43373 0.0
C431 C 0.85686 0.11227 0.34921 0.0
H432 H 0.60265 0.8535 0.40314 0.0
H433 H 0.62479 0.91185 0.4332 0.0
H434 H 0.71341 0.92222 0.34209 0.0
H435 H 0.69099 0.86405 0.31172 0.0
H436 H 0.95612 0.19685 0.37012 0.0
H437 H 0.904 0.16974 0.32965 0.0
H438 H 0.87992 0.09026 0.42255 0.0
H439 H 0.93231 0.11721 0.46283 0.0
Tb440 Tb 0.23821 0.56603 0.62972 0.0
Eu441 Eu 0.30131 0.50396 0.66462 0.0
C442 C 0.31812 0.55678 0.58938 0.0
C443 C 0.24613 0.48112 0.596 0.0
C444 C 0.17912 0.65448 0.62717 0.0
C445 C 0.13587 0.70931 0.62595 0.0
C446 C 0.14986 0.67612 0.60861 0.0
C447 C 0.19411 0.66663 0.66353 0.0
C448 C 0.18016 0.69987 0.68087 0.0
C449 C 0.15089 0.72157 0.66222 0.0
C450 C 0.19481 0.62025 0.60768 0.0
O451 O 0.2084 0.54598 0.68191 0.0
O452 O 0.23998 0.48931 0.68959 0.0
O453 O 0.28894 0.54302 0.71394 0.0
O454 O 0.27776 0.59246 0.67292 0.0
C455 C 0.20891 0.51152 0.69462 0.0
O456 O 0.3239 0.44792 0.6775 0.0
O457 O 0.35987 0.49578 0.68945 0.0
O458 O 0.33191 0.54502 0.62349 0.0
O459 O 0.28042 0.55731 0.58264 0.0
O460 O 0.22316 0.51089 0.60311 0.0
O461 O 0.28265 0.48004 0.60738 0.0
C462 C 0.28772 0.57884 0.7078 0.0
O463 O 0.23283 0.61865 0.60273 0.0
O464 O 0.18128 0.58842 0.62016 0.0
C465 C 0.39168 0.44238 0.66338 0.0
C466 C 0.45057 0.40399 0.61794 0.0
C467 C 0.44794 0.40023 0.65976 0.0
C468 C 0.41823 0.41811 0.68181 0.0
C469 C 0.39724 0.45078 0.62323 0.0
C470 C 0.42705 0.43288 0.60123 0.0
C471 C 0.35897 0.45959 0.68607 0.0
H472 H 0.11329 0.7255 0.61103 0.0
H473 H 0.13799 0.66747 0.58051 0.0
H474 H 0.21685 0.65057 0.67833 0.0
H475 H 0.19219 0.70868 0.70884 0.0
H476 H 0.46887 0.38367 0.67629 0.0
H477 H 0.41609 0.41298 0.71336 0.0
H478 H 0.37859 0.47141 0.60887 0.0
H479 H 0.43142 0.44286 0.57147 0.0
C480 C 0.20569 0.38143 0.59312 0.0
C481 C 0.20186 0.37527 0.55202 0.0
C482 C 0.22325 0.44015 0.53952 0.0
C483 C 0.22996 0.44509 0.58046 0.0
N484 N 0.23966 0.41432 0.64379 0.0
N485 N 0.21559 0.39635 0.48552 0.0
C486 C 0.2249 0.41392 0.60646 0.0
C487 C 0.21326 0.40402 0.52505 0.0
N488 N 0.18939 0.3575 0.61996 0.0
N489 N 0.22652 0.46985 0.51439 0.0
H490 H 0.20997 0.36997 0.47417 0.0
H491 H 0.22687 0.41478 0.46459 0.0
H492 H 0.23506 0.49615 0.52388 0.0
H493 H 0.21809 0.46912 0.48485 0.0
H494 H 0.18681 0.36373 0.64999 0.0
H495 H 0.17538 0.33306 0.61221 0.0
H496 H 0.23995 0.39104 0.66234 0.0
H497 H 0.25618 0.436 0.65427 0.0
C498 C 0.87699 1.0208 0.78465 0.0
C499 C 0.85322 0.99708 0.80853 0.0
C500 C 0.90784 0.95188 0.8122 0.0
C501 C 0.93254 0.97612 0.79015 0.0
N502 N 0.94149 0.03424 0.75608 0.0
N503 N 0.84137 0.93301 0.82689 0.0
C504 C 0.91714 1.0107 0.77624 0.0
C505 C 0.86712 0.96047 0.81698 0.0
N506 N 0.85994 0.05166 0.76785 0.0
N507 N 0.92348 0.92077 0.82946 0.0
H508 H 0.81108 0.93616 0.82432 0.0
H509 H 0.84967 0.90523 0.83088 0.0
H510 H 0.95341 0.91543 0.82928 0.0
H511 H 0.90786 0.90304 0.84806 0.0
H512 H 0.87417 0.06987 0.74872 0.0
H513 H 0.82976 0.057 0.7701 0.0
H514 H 0.93369 0.06104 0.74706 0.0
H515 H 0.97102 1.02771 0.75048 0.0
C516 C 0.29533 0.68799 0.04661 0.0
C517 C 0.32887 0.70508 0.06292 0.0
C518 C 0.35113 0.64378 0.08875 0.0
C519 C 0.31552 0.62757 0.07608 0.0
N520 N 0.26174 0.63068 0.0305 0.0
N521 N 0.38544 0.7003 0.10495 0.0
C522 C 0.28982 0.64882 0.05146 0.0
C523 C 0.35577 0.6832 0.0856 0.0
N524 N 0.268 0.70974 0.02766 0.0
N525 N 0.38142 0.62159 0.1017 0.0
H526 H 0.38635 0.72896 0.10775 0.0
H527 H 0.40645 0.68672 0.12202 0.0
H528 H 0.38151 0.59275 0.09946 0.0
H529 H 0.40908 0.63131 0.109 0.0
H530 H 0.24095 0.70016 1.01813 0.0
H531 H 0.27093 0.73853 0.02462 0.0
H532 H 0.24369 0.64338 1.00957 0.0
H533 H 0.25959 0.60168 0.03087 0.0
C534 C 0.61075 0.06853 0.28419 0.0
C535 C 0.59605 0.10289 0.29921 0.0
C536 C 0.66278 0.11889 0.32093 0.0
C537 C 0.67649 0.08259 0.31028 0.0
N538 N 0.66783 0.0301 0.26743 0.0
N539 N 0.6068 0.15932 0.3357 0.0
C540 C 0.65155 0.05937 0.28784 0.0
C541 C 0.62173 0.12755 0.31885 0.0
N542 N 0.58522 0.04408 0.26764 0.0
N543 N 0.68904 0.14601 0.32992 0.0
H544 H 0.57688 0.16544 0.33691 0.0
H545 H 0.62324 0.17802 0.35183 0.0
H546 H 0.71907 0.14311 0.3247 0.0
H547 H 0.68126 0.17351 0.33614 0.0
H548 H 0.59286 1.01697 0.25958 0.0
H549 H 0.55518 0.04987 0.26511 0.0
H550 H 0.65241 1.01347 0.24795 0.0
H551 H 0.69816 1.02528 0.26634 0.0
C552 C 0.67902 0.17656 0.44204 0.0
C553 C 0.70645 0.20033 0.46054 0.0
C554 C 0.75059 0.14632 0.47064 0.0
C555 C 0.72432 0.12268 0.44989 0.0
N556 N 0.65874 0.11419 0.42471 0.0
N557 N 0.77065 0.20921 0.48703 0.0
C558 C 0.68696 0.13745 0.43846 0.0
C559 C 0.7429 0.18545 0.4732 0.0
N560 N 0.64464 0.19164 0.4288 0.0
N561 N 0.78163 0.13083 0.49046 0.0
H562 H 0.76569 0.23794 0.48876 0.0
H563 H 0.79956 0.20123 0.49297 0.0
H564 H 0.78624 0.1022 0.49214 0.0
H565 H 0.79988 0.1456 0.50912 0.0
H566 H 0.61962 0.17679 0.42187 0.0
H567 H 0.64211 0.21998 0.42348 0.0
H568 H 0.63375 0.12284 0.40958 0.0
H569 H 0.65824 0.08599 0.43183 0.0
C570 C 0.1238 0.49624 0.76688 0.0
C571 C 0.09312 0.48651 0.74014 0.0
C572 C 0.13959 0.4911 0.68502 0.0
C573 C 0.17101 0.49762 0.71145 0.0
N574 N 0.19393 0.50508 0.7778 0.0
N575 N 0.06952 0.49574 0.67389 0.0
C576 C 0.1633 0.49998 0.75255 0.0
C577 C 0.10023 0.49046 0.69915 0.0
N578 N 0.1145 0.50539 0.80506 0.0
N579 N 0.14772 0.48308 0.6465 0.0
H580 H 0.04088 0.50051 0.68409 0.0
H581 H 0.07313 0.5013 0.64383 0.0
H582 H 0.17613 0.47629 0.63763 0.0
H583 H 0.12647 0.47715 0.62557 0.0
H584 H 0.13461 0.51478 0.82564 0.0
H585 H 0.08558 0.50839 0.81495 0.0
H586 H 0.19154 0.50332 0.80845 0.0
H587 H 0.22282 0.50823 0.76781 0.0
C588 C 0.85434 0.93955 0.9369 0.0
C589 C 0.81751 0.95355 0.95157 0.0
C590 C 0.8018 0.89089 0.97697 0.0
C591 C 0.83781 0.8768 0.96188 0.0
N592 N 0.89952 0.887 0.92873 0.0
N593 N 0.76455 0.94491 0.99828 0.0
C594 C 0.8642 0.90092 0.9418 0.0
C595 C 0.79366 0.92976 0.97522 0.0
N596 N 0.88018 0.9629 0.91854 0.0
N597 N 0.77488 0.86678 0.99238 0.0
H598 H 0.76048 0.97354 1.00041 0.0
H599 H 0.74829 0.92986 0.01894 0.0
H600 H 0.77991 0.83803 0.9936 0.0
H601 H 0.74627 0.8747 1.00015 0.0
H602 H 0.90381 0.95402 0.90118 0.0
H603 H 0.88016 0.9915 0.92296 0.0
H604 H 0.92335 0.90313 0.92032 0.0
H605 H 0.90505 0.85857 0.92631 0.0
C606 C 0.414 0.62582 0.20856 0.0
C607 C 0.44038 0.60008 0.22684 0.0
C608 C 0.38539 0.55735 0.23769 0.0
C609 C 0.35936 0.58185 0.21675 0.0
N610 N 0.34709 0.64425 0.19226 0.0
N611 N 0.45253 0.53954 0.25451 0.0
C612 C 0.37306 0.61774 0.20553 0.0
C613 C 0.42629 0.56534 0.24019 0.0
N614 N 0.42839 0.6586 0.19478 0.0
N615 N 0.37026 0.52763 0.25766 0.0
H616 H 0.48261 0.54471 0.25617 0.0
H617 H 0.44537 0.51209 0.26112 0.0
H618 H 0.3402 0.52305 0.25929 0.0
H619 H 0.38648 0.51036 0.27639 0.0
H620 H 0.41168 0.68251 0.18937 0.0
H621 H 0.45795 0.66092 0.18763 0.0
H622 H 0.35498 0.66879 0.17808 0.0
H623 H 0.31722 0.64357 0.1989 0.0
C624 C 0.50997 0.23816 0.38216 0.0
C625 C 0.53072 0.23788 0.34522 0.0
C626 C 0.5875 0.26508 0.37789 0.0
C627 C 0.56942 0.25891 0.41572 0.0
N628 N 0.51334 0.23868 0.45376 0.0
N629 N 0.57954 0.2694 0.30667 0.0
C630 C 0.53067 0.24509 0.41779 0.0
C631 C 0.5668 0.25671 0.34266 0.0
N632 N 0.46986 0.23623 0.38303 0.0
N633 N 0.62546 0.2768 0.37543 0.0
H634 H 0.56247 0.26737 0.28128 0.0
H635 H 0.60381 0.28642 0.30278 0.0
H636 H 0.64209 0.28303 0.40001 0.0
H637 H 0.64186 0.27695 0.34929 0.0
H638 H 0.45304 0.23878 0.40877 0.0
H639 H 0.45278 0.23872 0.35774 0.0
H640 H 0.48742 0.22383 0.45714 0.0
H641 H 0.52605 0.24609 0.48052 0.0
C642 C 0.03779 0.31199 0.62598 0.0
C643 C 0.06086 0.33598 0.60216 0.0
C644 C 0.07432 0.37472 0.65987 0.0
C645 C 0.04868 0.35263 0.68346 0.0
N646 N 1.00429 0.30084 0.6885 0.0
N647 N 0.09388 0.39395 0.59374 0.0
C648 C 0.02969 0.32155 0.66619 0.0
C649 C 0.07657 0.36864 0.61839 0.0
N650 N 0.02531 0.2791 0.61053 0.0
N651 N 0.09778 0.40065 0.67681 0.0
H652 H 0.09531 0.39018 0.56315 0.0
H653 H 0.10286 0.42009 0.60294 0.0
H654 H 0.09781 0.4066 0.70682 0.0
H655 H 0.12079 0.41321 0.66156 0.0
H656 H 1.01267 0.25795 0.62727 0.0
H657 H 0.02927 0.27238 0.58075 0.0
H658 H 0.98552 0.28119 0.67667 0.0
H659 H 1.00117 0.3041 0.71903 0.0
C660 C 1.00267 0.86813 0.88064 0.0
C661 C 0.99704 0.84939 0.84379 0.0
C662 C 0.97788 0.79339 0.88099 0.0
C663 C 0.97734 0.81418 0.91697 0.0
N664 N 1.00953 0.86294 0.95186 0.0
N665 N 0.97831 0.79396 0.80912 0.0
C666 C 0.99563 0.84923 0.91708 0.0
C667 C 0.98421 0.81199 0.84406 0.0
N668 N 1.01278 0.90482 0.88108 0.0
N669 N 0.97723 0.75534 0.88237 0.0
H670 H 0.98506 0.80561 0.78164 0.0
H671 H 0.96422 0.76845 0.80727 0.0
H672 H 0.98061 0.74045 0.90866 0.0
H673 H 0.98018 0.73844 0.85753 0.0
H674 H 1.01197 0.92115 0.90649 0.0
H675 H 0.0183 0.92017 0.85565 0.0
H676 H 0.02652 0.88676 0.95379 0.0
H677 H 1.00909 0.84741 0.97801 0.0
C678 C 0.50437 0.71462 0.14145 0.0
C679 C 0.49351 0.72853 0.17965 0.0
C680 C 0.44637 0.77054 0.148 0.0
C681 C 0.46065 0.75987 0.10969 0.0
N682 N 0.51197 0.72922 0.0719 0.0
N683 N 0.46215 0.77771 0.21717 0.0
C684 C 0.49258 0.73443 0.10702 0.0
C685 C 0.46726 0.75922 0.18224 0.0
N686 N 0.52292 0.68091 0.13744 0.0
N687 N 0.41096 0.78834 0.15237 0.0
H688 H 0.47792 0.77086 0.24259 0.0
H689 H 0.44563 0.80232 0.21944 0.0
H690 H 0.39166 0.79187 0.12905 0.0
H691 H 0.39824 0.79405 0.17989 0.0
H692 H 0.52844 0.66855 0.11006 0.0
H693 H 0.52749 0.66299 0.16114 0.0
H694 H 0.53763 0.71312 0.06951 0.0
H695 H 0.50507 0.74433 0.0464 0.0
C696 C 0.21192 0.4532 0.30223 0.0
C697 C 0.1781 0.43292 0.29183 0.0
C698 C 0.18794 0.44973 0.22179 0.0
C699 C 0.22016 0.4724 0.2326 0.0
N700 N 0.26026 0.49899 0.28365 0.0
N701 N 0.13203 0.41277 0.243 0.0
C702 C 0.23146 0.47493 0.27299 0.0
C703 C 0.1658 0.43116 0.25186 0.0
N704 N 0.22572 0.4512 0.34012 0.0
N705 N 0.17795 0.44658 0.18283 0.0
H706 H 0.11603 0.39774 0.26397 0.0
H707 H 0.1185 0.41369 0.21553 0.0
H708 H 0.19026 0.46271 0.16039 0.0
H709 H 0.1584 0.42705 0.17218 0.0
H710 H 0.25285 0.46138 0.34869 0.0
H711 H 0.21138 0.43686 0.36279 0.0
H712 H 0.26641 0.50599 0.31279 0.0
H713 H 0.27661 0.51406 0.26321 0.0
C714 C 0.88958 0.95089 0.49454 0.0
C715 C 0.87555 0.9544 0.53398 0.0
C716 C 0.82388 0.9976 0.51149 0.0
C717 C 0.83501 0.99085 0.47137 0.0
N718 N 0.8735 0.95397 0.425 0.0
N719 N 0.82525 0.97593 0.57942 0.0
C720 C 0.86675 0.96577 0.46289 0.0
C721 C 0.84158 0.97637 0.5423 0.0
N722 N 0.92498 0.93368 0.4873 0.0
N723 N 0.79722 1.02515 0.52052 0.0
H724 H 0.83732 0.96088 0.60294 0.0
H725 H 0.79786 0.98776 0.58606 0.0
H726 H 0.78321 0.04135 0.49921 0.0
H727 H 0.79163 0.03427 0.54927 0.0
H728 H 0.93873 0.93382 0.45964 0.0
H729 H 0.94227 0.92215 0.50971 0.0
H730 H 0.89368 0.93293 0.4178 0.0
H731 H 0.85606 0.96206 0.4012 0.0
C732 C 0.34723 0.59958 0.74333 0.0
C733 C 0.30592 0.60212 0.73874 0.0
C734 C 0.30027 0.62581 0.80662 0.0
C735 C 0.34189 0.62978 0.80827 0.0
N736 N 0.39838 0.59165 0.79134 0.0
N737 N 0.24256 0.61926 0.76567 0.0
C738 C 0.36413 0.60877 0.78016 0.0
C739 C 0.28231 0.61614 0.77015 0.0
N740 N 0.37053 0.58784 0.71264 0.0
N741 N 0.27909 0.62279 0.84087 0.0
H742 H 0.22851 0.61155 0.73967 0.0
H743 H 0.22436 0.63243 0.78646 0.0
H744 H 0.29296 0.6192 0.86808 0.0
H745 H 0.24917 0.61694 0.84169 0.0
H746 H 0.40115 0.58856 0.71362 0.0
H747 H 0.35918 0.58084 0.68515 0.0
H748 H 0.41397 0.57308 0.77325 0.0
H749 H 0.40771 0.59174 0.82069 0.0
C750 C 0.66862 0.14652 1.00161 0.0
C751 C 0.67031 0.13365 0.04142 0.0
C752 C 0.71209 0.08151 0.0195 0.0
C753 C 0.70314 0.08954 0.97933 0.0
N754 N 0.67342 0.13198 0.93195 0.0
N755 N 0.72089 0.10869 0.08369 0.0
C756 C 0.68114 0.12248 0.97028 0.0
C757 C 0.69988 0.10657 0.04957 0.0
N758 N 0.66379 0.1837 0.99429 0.0
N759 N 0.73161 0.04945 0.02936 0.0
H760 H 0.71723 0.13099 0.10319 0.0
H761 H 0.74536 0.09177 0.08948 0.0
H762 H 0.74019 0.02997 1.00826 0.0
H763 H 0.7356 0.04087 0.05859 0.0
H764 H 0.66566 0.19545 0.96612 0.0
H765 H 0.665 0.20322 1.01705 0.0
H766 H 0.65368 0.1533 0.92445 0.0
H767 H 0.68496 0.11756 0.90777 0.0
C768 C 0.66458 0.13374 0.76351 0.0
C769 C 0.68831 0.14481 0.73092 0.0
C770 C 0.74759 0.12655 0.76769 0.0
C771 C 0.72353 0.11019 0.79722 0.0
N772 N 0.65901 0.09608 0.82287 0.0
N773 N 0.75237 0.14893 0.70004 0.0
C774 C 0.68196 0.11335 0.79513 0.0
C775 C 0.72991 0.14087 0.73262 0.0
N776 N 0.62562 0.14365 0.76471 0.0
N777 N 0.78729 0.12829 0.77317 0.0
H778 H 0.74054 0.15907 0.67368 0.0
H779 H 0.78232 0.14281 0.69798 0.0
H780 H 0.80099 0.11783 0.79847 0.0
H781 H 0.8061 0.14296 0.75451 0.0
H782 H 0.60766 0.13971 0.78943 0.0
H783 H 0.61201 0.15908 0.74234 0.0
H784 H 0.62871 0.09334 0.82023 0.0
H785 H 0.67057 0.08246 0.84756 0.0
C786 C 0.2113 0.46231 0.04541 0.0
C787 C 0.20475 0.50098 0.05124 0.0
C788 C 0.17639 0.50514 0.98481 0.0
C789 C 0.17617 0.46549 0.98255 0.0
N790 N 0.22293 0.41599 0.99548 0.0
N791 N 0.1808 0.55993 0.02625 0.0
C792 C 0.20192 0.44622 1.00862 0.0
C793 C 0.18681 0.5226 0.02102 0.0
N794 N 0.22667 0.4407 0.07495 0.0
N795 N 0.17537 0.52575 0.95085 0.0
H796 H 0.18981 0.57383 0.05158 0.0
H797 H 0.16435 0.57627 1.0067 0.0
H798 H 0.17842 0.51323 0.92315 0.0
H799 H 0.17861 0.55457 0.95016 0.0
H800 H 0.22891 0.41175 0.07289 0.0
H801 H 0.23362 0.45135 0.10264 0.0
H802 H 0.24491 0.40297 1.01209 0.0
H803 H 0.22219 0.40765 0.96593 0.0
C804 C 0.78789 0.94501 0.26267 0.0
C805 C 0.81058 0.96715 0.28837 0.0
C806 C 0.86972 0.95353 0.24853 0.0
C807 C 0.8477 0.92936 0.22432 0.0
N808 N 0.78751 0.89658 0.21265 0.0
N809 N 0.87437 0.98565 0.31116 0.0
C810 C 0.80722 0.92341 0.23272 0.0
C811 C 0.85191 0.96928 0.28291 0.0
N812 N 0.7478 0.94597 0.26566 0.0
N813 N 0.90716 0.96285 0.23775 0.0
H814 H 0.86245 0.9971 0.33698 0.0
H815 H 0.90499 0.9846 0.31094 0.0
H816 H 0.92122 0.95242 0.21251 0.0
H817 H 0.92301 0.98355 0.25176 0.0
H818 H 0.72938 0.93366 0.24518 0.0
H819 H 0.73279 0.96159 0.28706 0.0
H820 H 0.75918 0.88826 0.22011 0.0
H821 H 0.80072 0.88033 0.19059 0.0
C822 C 0.35787 0.60995 0.56331 0.0
C823 C 0.34448 0.57292 0.55879 0.0
C824 C 0.37236 0.57074 0.49146 0.0
C825 C 0.38187 0.60903 0.49448 0.0
N826 N 0.38346 0.66585 0.53213 0.0
N827 N 0.33771 0.51778 0.51922 0.0
C828 C 0.3749 0.62875 0.53027 0.0
C829 C 0.35169 0.55313 0.52311 0.0
N830 N 0.35412 0.62714 0.59922 0.0
N831 N 0.38337 0.55125 0.45838 0.0
H832 H 0.32465 0.50329 0.54256 0.0
H833 H 0.33744 0.50324 0.49266 0.0
H834 H 0.39725 0.56356 0.43411 0.0
H835 H 0.38119 0.52248 0.45577 0.0
H836 H 0.36678 0.65252 0.60601 0.0
H837 H 0.34035 0.61487 0.62353 0.0
H838 H 0.37488 0.68322 0.55529 0.0
H839 H 0.3977 0.68007 0.5093 0.0
C840 C 0.2091 0.22077 0.40977 0.0
C841 C 0.21578 0.24886 0.43829 0.0
C842 C 0.28698 0.23749 0.43332 0.0
C843 C 0.28038 0.21007 0.40403 0.0
N844 N 0.23648 0.18082 0.35839 0.0
N845 N 0.26075 0.2891 0.47193 0.0
C846 C 0.24176 0.20326 0.39046 0.0
C847 C 0.25467 0.25903 0.44814 0.0
N848 N 0.17147 0.21039 0.40171 0.0
N849 N 0.32384 0.24159 0.44848 0.0
H850 H 0.2379 0.30472 0.48453 0.0
H851 H 0.28829 0.30047 0.47668 0.0
H852 H 0.34827 0.22634 0.4385 0.0
H853 H 0.32985 0.2579 0.47304 0.0
H854 H 0.16462 0.18699 0.38516 0.0
H855 H 0.1468 0.22424 0.4133 0.0
H856 H 0.20957 0.17766 0.34444 0.0
H857 H 0.25976 0.16761 0.34352 0.0
C858 C 0.05342 0.06127 0.63504 0.0
C859 C 0.09494 0.06462 0.63215 0.0
C860 C 0.10292 1.00068 0.65802 0.0
C861 C 0.06189 0.99938 0.66594 0.0
N862 N 0.99773 1.02818 0.66312 0.0
N863 N 0.1597 0.03797 0.64036 0.0
C864 C 0.03695 0.02942 0.65417 0.0
C865 C 0.1198 0.03418 0.64298 0.0
N866 N 0.02982 0.08868 0.61951 0.0
N867 N 0.12572 0.96979 0.66531 0.0
H868 H 0.17293 0.06135 0.62789 0.0
H869 H 0.17988 1.01894 0.65201 0.0
H870 H 0.11425 0.9454 0.67725 0.0
H871 H 0.15515 0.96715 0.65704 0.0
H872 H 0.99945 0.08659 0.61707 0.0
H873 H 0.04096 0.11261 0.60616 0.0
H874 H 0.9784 0.05069 0.65994 0.0
H875 H 0.98471 1.00476 0.67572 0.0
C876 C 0.23513 0.83313 0.91637 0.0
C877 C 0.23312 0.87279 0.915 0.0
C878 C 0.29521 0.87507 0.95068 0.0
C879 C 0.30078 0.83625 0.94531 0.0
N880 N 0.27627 0.77769 0.92209 0.0
N881 N 0.24555 0.92219 0.9611 0.0
C882 C 0.27089 0.81508 0.92759 0.0
C883 C 0.2588 0.8918 0.94059 0.0
N884 N 0.20132 0.81319 0.91516 0.0
N885 N 0.32464 0.89618 0.96557 0.0
H886 H 0.21609 0.93072 0.96027 0.0
H887 H 0.262 0.93504 0.98296 0.0
H888 H 0.35215 0.88498 0.97261 0.0
H889 H 0.32264 0.92518 0.96716 0.0
H890 H 0.20046 0.78444 0.91946 0.0
H891 H 0.17375 0.8263 0.9164 0.0
H892 H 0.25678 0.7616 0.90602 0.0
H893 H 0.30185 0.7636 0.93075 0.0
C894 C 0.48211 0.05288 0.16041 0.0
C895 C 0.45856 0.07659 0.18461 0.0
C896 C 0.40147 0.03685 0.17432 0.0
C897 C 0.42455 1.01359 0.14911 0.0
N898 N 0.48438 1.00309 0.11184 0.0
N899 N 0.39423 0.09675 0.20661 0.0
C900 C 0.46419 1.02277 0.14017 0.0
C901 C 0.41768 0.07031 0.18895 0.0
N902 N 0.52176 0.05826 0.15809 0.0
N903 N 0.36472 1.02608 0.18595 0.0
H904 H 0.40518 0.12176 0.21727 0.0
H905 H 0.36365 0.09566 0.20717 0.0
H906 H 0.35174 1.00164 0.17625 0.0
H907 H 0.34835 0.03968 0.20784 0.0
H908 H 0.54134 0.03948 0.14481 0.0
H909 H 0.53547 0.08071 0.17152 0.0
H910 H 0.51198 1.01054 0.10116 0.0
H911 H 0.47213 0.9809 0.09662 0.0
C912 C 0.78247 0.32122 0.63359 0.0
C913 C 0.79034 0.35949 0.62633 0.0
C914 C 0.73137 0.36421 0.58525 0.0
C915 C 0.72666 0.3251 0.58786 0.0
N916 N 0.7486 0.26543 0.61263 0.0
N917 N 0.77561 0.41612 0.59022 0.0
C918 C 0.75228 0.30329 0.6118 0.0
C919 C 0.76559 0.38068 0.60089 0.0
N920 N 0.80326 0.30232 0.66188 0.0
N921 N 0.7024 0.38583 0.56878 0.0
H922 H 0.80074 0.42919 0.60046 0.0
H923 H 0.76103 0.43131 0.56835 0.0
H924 H 0.67626 0.37473 0.55847 0.0
H925 H 0.70232 0.41485 0.56936 0.0
H926 H 0.79648 0.27553 0.67142 0.0
H927 H 0.82555 0.31457 0.67817 0.0
H928 H 0.7689 0.24748 0.62592 0.0
H929 H 0.72622 0.25169 0.59791 0.0
C930 C 0.93051 0.4957 0.87424 0.0
C931 C 0.96279 0.5009 0.84787 0.0
C932 C 0.96128 0.56811 0.86149 0.0
C933 C 0.92622 0.56346 0.88366 0.0
N934 N 0.87613 0.52408 0.911 0.0
N935 N 1.00716 0.54246 0.81372 0.0
C936 C 0.91071 0.52751 0.89045 0.0
C937 C 0.97787 0.5372 0.841 0.0
N938 N 0.91823 0.46048 0.88307 0.0
N939 N 0.97898 0.60213 0.86039 0.0
H940 H 0.02155 0.52066 0.79929 0.0
H941 H 0.01563 0.56853 0.80337 0.0
H942 H 0.96718 0.62574 0.87422 0.0
H943 H 1.00697 0.6064 0.8487 0.0
H944 H 0.89791 0.45446 0.90527 0.0
H945 H 0.92994 0.43666 0.86971 0.0
H946 H 0.86053 0.49943 0.91332 0.0
H947 H 0.86168 0.54668 0.92427 0.0
C948 C 0.80537 0.7078 0.07958 0.0
C949 C 0.81207 0.74628 0.08555 0.0
C950 C 0.76092 0.74738 0.13729 0.0
C951 C 0.75077 0.7103 0.12721 0.0
N952 N 0.75941 0.65718 0.08419 0.0
N953 N 0.79525 0.80384 0.11832 0.0
C954 C 0.77203 0.69098 0.0972 0.0
C955 C 0.78977 0.7664 0.11418 0.0
N956 N 0.83166 0.68698 0.05797 0.0
N957 N 0.74361 0.76401 0.16942 0.0
H958 H 0.81683 0.81825 0.10263 0.0
H959 H 0.77707 0.82101 0.13545 0.0
H960 H 0.7224 0.75087 0.18682 0.0
H961 H 0.75235 0.78951 0.18071 0.0
H962 H 0.83053 0.65806 0.05589 0.0
H963 H 0.85706 0.69818 0.04564 0.0
H964 H 0.77118 0.64386 0.05936 0.0
H965 H 0.73474 0.64395 0.0958 0.0
C966 C 0.62916 0.53608 0.36017 0.0
C967 C 0.60532 0.51314 0.38456 0.0
C968 C 0.54858 0.55496 0.37288 0.0
C969 C 0.57291 0.57827 0.34948 0.0
N970 N 0.63797 0.59676 0.3299 0.0
N971 N 0.5448 0.50444 0.42083 0.0
C972 C 0.61376 0.57058 0.34603 0.0
C973 C 0.56572 0.52378 0.39303 0.0
N974 N 0.6659 0.52412 0.34887 0.0
N975 N 0.50894 0.56167 0.37446 0.0
H976 H 0.55647 0.4815 0.43598 0.0
H977 H 0.51721 0.51287 0.43124 0.0
H978 H 0.49565 0.58469 0.36086 0.0
H979 H 0.48895 0.54341 0.38722 0.0
H980 H 0.68281 0.5377 0.32758 0.0
H981 H 0.67828 0.49885 0.35813 0.0
H982 H 0.66852 0.59438 0.3299 0.0
H983 H 0.62761 0.62275 0.3203 0.0
C984 C 0.38722 0.27756 0.16698 0.0
C985 C 0.38942 0.31208 0.18721 0.0
C986 C 0.42221 0.28126 0.24294 0.0
C987 C 0.4212 0.24681 0.22236 0.0
N988 N 0.3964 0.21017 0.1688 0.0
N989 N 0.40062 0.34588 0.2474 0.0
C990 C 0.4013 0.2443 0.18575 0.0
C991 C 0.40414 0.31355 0.22624 0.0
N992 N 0.3731 0.27698 0.12922 0.0
N993 N 0.44183 0.28334 0.27792 0.0
H994 H 0.38851 0.37038 0.23574 0.0
H995 H 0.40682 0.34788 0.2774 0.0
H996 H 0.45264 0.25983 0.29239 0.0
H997 H 0.44879 0.30819 0.29183 0.0
H998 H 0.37456 0.25378 0.11089 0.0
H999 H 0.36137 0.30058 0.11529 0.0
H1000 H 0.37925 0.20568 0.14397 0.0
H1001 H 0.40724 0.18556 0.18135 0.0
C1002 C 0.93357 0.31966 0.85735 0.0
C1003 C 0.93151 0.32837 0.81649 0.0
C1004 C 0.89017 0.27388 0.80579 0.0
C1005 C 0.89729 0.26236 0.84537 0.0
N1006 N 0.92883 0.27221 0.90815 0.0
N1007 N 0.90946 0.3137 0.75085 0.0
C1008 C 0.91951 0.28487 0.87112 0.0
C1009 C 0.90978 0.30575 0.79044 0.0
N1010 N 0.94853 0.34506 0.88304 0.0
N1011 N 0.86436 0.25456 0.78317 0.0
H1012 H 0.92255 0.33733 0.73882 0.0
H1013 H 0.89816 0.29596 0.72961 0.0
H1014 H 0.84993 0.23092 0.79349 0.0
H1015 H 0.85486 0.2635 0.75546 0.0
H1016 H 0.94731 0.34206 0.91367 0.0
H1017 H 0.95872 0.371 0.87382 0.0
H1018 H 0.94878 0.28533 0.92648 0.0
H1019 H 0.91908 0.2469 0.91957 0.0
C1020 C 0.05616 0.69839 0.05154 0.0
C1021 C 0.04927 0.67623 0.08568 0.0
C1022 C 0.97853 0.69074 0.08223 0.0
C1023 C 0.98533 0.71223 0.04752 0.0
N1024 N 0.02868 0.7296 0.99409 0.0
N1025 N 1.00372 0.64469 0.12877 0.0
C1026 C 0.02363 0.71386 0.03063 0.0
C1027 C 1.01031 0.67024 0.09944 0.0
N1028 N 0.09388 0.70582 0.03998 0.0
N1029 N 0.94234 0.69164 0.10014 0.0
H1030 H 0.02638 0.62964 0.14236 0.0
H1031 H 0.97579 0.63611 0.13731 0.0
H1032 H 0.91829 0.70615 0.08853 0.0
H1033 H 0.93675 0.68026 0.12796 0.0
H1034 H 0.10097 0.72533 1.01829 0.0
H1035 H 0.11847 0.69437 0.05399 0.0
H1036 H 0.05507 0.72854 0.97828 0.0
H1037 H 1.00534 0.74064 0.97785 0.0
C1038 C 0.64246 0.78435 0.3528 0.0
C1039 C 0.63109 0.81952 0.3369 0.0
C1040 C 0.59115 0.78826 0.28726 0.0
C1041 C 0.59795 0.75357 0.30662 0.0
N1042 N 0.62744 0.71875 0.36018 0.0
N1043 N 0.59185 0.85567 0.29128 0.0
C1044 C 0.62333 0.75151 0.33976 0.0
C1045 C 0.60487 0.82166 0.30455 0.0
N1046 N 0.67181 0.78237 0.38013 0.0
N1047 N 0.57237 0.78912 0.25169 0.0
H1048 H 0.60177 0.88082 0.30259 0.0
H1049 H 0.56908 0.85904 0.27112 0.0
H1050 H 0.56289 0.76511 0.23773 0.0
H1051 H 0.5698 0.81291 0.23412 0.0
H1052 H 0.68435 0.75738 0.38989 0.0
H1053 H 0.686 0.80591 0.39064 0.0
H1054 H 0.64173 0.71651 0.38722 0.0
H1055 H 0.61413 0.6941 0.35159 0.0
C1056 C 0.53943 0.34104 0.59656 0.0
C1057 C 0.55034 0.35203 0.55774 0.0
C1058 C 0.48775 0.38661 0.55252 0.0
C1059 C 0.48015 0.38051 0.59363 0.0
N1060 N 0.48375 0.32788 0.63802 0.0
N1061 N 0.53567 0.38755 0.49893 0.0
C1062 C 0.50178 0.35094 0.61155 0.0
C1063 C 0.52496 0.3759 0.53591 0.0
N1064 N 0.5651 0.32108 0.61945 0.0
N1065 N 0.45724 0.39456 0.52784 0.0
H1066 H 0.56209 0.37938 0.48545 0.0
H1067 H 0.51979 0.40777 0.48333 0.0
H1068 H 0.4281 0.39231 0.53739 0.0
H1069 H 0.46028 0.39647 0.4972 0.0
H1070 H 0.55923 0.31483 0.64907 0.0
H1071 H 0.5936 0.31435 0.61001 0.0
H1072 H 0.4972 0.30381 0.64923 0.0
H1073 H 0.45361 0.32993 0.64388 0.0
C1074 C 0.14486 0.79204 0.66361 0.0
C1075 C 0.1355 0.75697 0.68069 0.0
C1076 C 0.09647 0.78933 0.73204 0.0
C1077 C 0.1011 0.82377 0.71168 0.0
N1078 N 0.12598 0.85696 0.6548 0.0
N1079 N 0.09832 0.72183 0.72867 0.0
C1080 C 0.12468 0.82499 0.67679 0.0
C1081 C 0.11038 0.75552 0.71442 0.0
N1082 N 0.17352 0.79395 0.63514 0.0
N1083 N 0.07949 0.78905 0.76881 0.0
H1084 H 0.10772 0.69646 0.7167 0.0
H1085 H 0.07645 0.71901 0.75019 0.0
H1086 H 0.07004 0.81332 0.78299 0.0
H1087 H 0.07852 0.76549 0.78686 0.0
H1088 H 0.18459 0.81899 0.62443 0.0
H1089 H 0.18881 0.77048 0.62481 0.0
H1090 H 0.13893 0.85843 0.62682 0.0
H1091 H 0.11121 0.88137 0.66303 0.0
C1092 C 0.47318 0.88861 0.94621 0.0
C1093 C 0.47977 0.8643 0.97883 0.0
C1094 C 0.55049 0.87693 0.97545 0.0
C1095 C 0.54363 0.9025 0.94405 0.0
N1096 N 0.49787 0.93919 0.90564 0.0
N1097 N 0.52289 0.84207 0.03031 0.0
C1098 C 0.50471 0.91047 0.93146 0.0
C1099 C 0.51793 0.86061 0.99527 0.0
N1100 N 0.43763 0.8891 0.92763 0.0
N1101 N 0.58813 0.86691 0.98518 0.0
H1102 H 0.49958 0.83031 0.04595 0.0
H1103 H 0.54923 0.84153 0.04581 0.0
H1104 H 0.61283 0.87829 0.97153 0.0
H1105 H 0.59492 0.84518 1.00457 0.0
H1106 H 0.43255 0.90309 0.90107 0.0
H1107 H 0.41404 0.87288 0.93675 0.0
H1108 H 0.46978 0.94882 0.89847 0.0
H1109 H 0.52032 0.9557 0.89422 0.0
C1110 C 0.01801 0.16222 0.44221 0.0
C1111 C 0.97874 0.17612 0.44373 0.0
C1112 C 0.99955 0.2299 0.48227 0.0
C1113 C 0.03889 0.21628 0.4804 0.0
N1114 N 0.08501 0.16661 0.4662 0.0
N1115 N 0.9303 0.21776 0.47238 0.0
C1116 C 0.04787 0.18132 0.46296 0.0
C1117 C 0.96894 0.20822 0.46622 0.0
N1118 N 0.0269 0.13171 0.41955 0.0
N1119 N 0.99172 0.26434 0.49783 0.0
H1120 H 0.90717 0.20272 0.46054 0.0
H1121 H 0.92095 0.23857 0.4918 0.0
H1122 H 1.01316 0.28037 0.51113 0.0
H1123 H 0.96461 0.27798 0.49567 0.0
H1124 H 0.05545 0.12255 0.41342 0.0
H1125 H 1.00556 0.11648 0.40493 0.0
H1126 H 0.09286 0.13975 0.45741 0.0
H1127 H 0.10751 0.18038 0.48071 0.0
loop_
_geom_bond_atom_site_label_1
_geom_bond_atom_site_label_2
_geom_bond_distance
_geom_bond_site_symmetry_2
_ccdc_geom_bond_type
Tb0 C10 2.825 . S
Tb0 O11 2.347 . S
Tb0 O14 2.366 . S
Tb0 O19 2.418 . S
Tb0 O20 2.384 . S
Tb0 O23 2.479 . S
Tb0 O24 2.471 . S
Eu1 O12 2.418 . S
Eu1 O13 2.384 . S
Eu1 O16 2.479 . S
Eu1 O17 2.471 . S
Eu1 O18 2.347 . S
Eu1 O21 2.366 . S
Eu1 C31 2.825 . S
C2 O18 1.259 . S
C2 O19 1.265 . S
C3 O20 1.255 . S
C3 O21 1.265 . S
C4 C6 1.380 . S
C4 C7 1.374 . S
C4 C10 1.507 . S
C5 C6 1.384 . S
C5 C9 1.387 . S
C5 H32 0.930 . S
C6 C4 1.380 . S
C6 C5 1.384 . S
C6 H33 0.931 . S
C7 C4 1.374 . S
C7 C8 1.390 . S
C7 H34 0.930 . S
C8 C7 1.390 . S
C8 C9 1.391 . S
C8 H35 0.930 . S
C9 C5 1.387 . S
C9 C8 1.391 . S
C10 Tb0 2.825 . S
C10 C4 1.507 . S
C10 O23 1.238 . S
C10 O24 1.247 . S
O11 Tb0 2.347 . S
O11 C15 1.259 . S
O12 Eu1 2.418 . S
O12 C15 1.265 . S
O13 Eu1 2.384 . S
O13 C22 1.255 . S
O14 Tb0 2.366 . S
O14 C22 1.265 . S
C15 O11 1.259 . S
C15 O12 1.265 . S
O16 Eu1 2.479 . S
O16 C31 1.238 . S
O17 Eu1 2.471 . S
O17 C31 1.247 . S
O18 Eu1 2.347 . S
O18 C2 1.259 . S
O19 Tb0 2.418 . S
O19 C2 1.265 . S
O20 Tb0 2.384 . S
O20 C3 1.255 . S
O21 Eu1 2.366 . S
O21 C3 1.265 . S
C22 O13 1.255 . S
C22 O14 1.265 . S
O23 Tb0 2.479 . S
O23 C10 1.238 . S
O24 Tb0 2.471 . S
O24 C10 1.247 . S
C25 C28 1.380 . S
C25 C29 1.374 . S
C25 C31 1.507 . S
C26 C27 1.387 . S
C26 C30 1.391 . S
C27 C26 1.387 . S
C27 C28 1.384 . S
C27 H36 0.930 . S
C28 C25 1.380 . S
C28 C27 1.384 . S
C28 H37 0.931 . S
C29 C25 1.374 . S
C29 C30 1.390 . S
C29 H38 0.930 . S
C30 C26 1.391 . S
C30 C29 1.390 . S
C30 H39 0.930 . S
C31 Eu1 2.825 . S
C31 O16 1.238 . S
C31 O17 1.247 . S
C31 C25 1.507 . S
H32 C5 0.930 . S
H33 C6 0.931 . S
H34 C7 0.930 . S
H35 C8 0.930 . S
H36 C27 0.930 . S
H37 C28 0.931 . S
H38 C29 0.930 . S
H39 C30 0.930 . S
Tb40 C50 2.825 . S
Tb40 O51 2.347 . S
Tb40 O54 2.366 1_655 S
Tb40 O59 2.418 1_655 S
Tb40 O60 2.384 . S
Tb40 O63 2.479 . S
Tb40 O64 2.471 . S
Eu41 O52 2.418 1_455 S
Eu41 O53 2.384 . S
Eu41 O56 2.479 . S
Eu41 O57 2.471 . S
Eu41 O58 2.347 . S
Eu41 O61 2.366 . S
Eu41 C71 2.825 . S
C42 O58 1.259 . S
C42 O59 1.265 . S
C43 O60 1.255 . S
C43 O61 1.265 1_655 S
C44 C46 1.380 . S
C44 C47 1.374 . S
C44 C50 1.507 . S
C45 C46 1.384 . S
C45 C49 1.387 . S
C45 H72 0.930 . S
C46 C44 1.380 . S
C46 C45 1.384 . S
C46 H73 0.931 . S
C47 C44 1.374 . S
C47 C48 1.390 . S
C47 H74 0.930 . S
C48 C47 1.390 . S
C48 C49 1.391 . S
C48 H75 0.930 . S
C49 C45 1.387 . S
C49 C48 1.391 . S
C50 Tb40 2.825 . S
C50 C44 1.507 . S
C50 O63 1.238 . S
C50 O64 1.247 . S
O51 Tb40 2.347 . S
O51 C55 1.259 . S
O52 Eu41 2.418 1_655 S
O52 C55 1.265 . S
O53 Eu41 2.384 . S
O53 C62 1.255 . S
O54 Tb40 2.366 1_455 S
O54 C62 1.265 . S
C55 O51 1.259 . S
C55 O52 1.265 . S
O56 Eu41 2.479 . S
O56 C71 1.238 . S
O57 Eu41 2.471 . S
O57 C71 1.247 . S
O58 Eu41 2.347 . S
O58 C42 1.259 . S
O59 Tb40 2.418 1_455 S
O59 C42 1.265 . S
O60 Tb40 2.384 . S
O60 C43 1.255 . S
O61 Eu41 2.366 . S
O61 C43 1.265 1_455 S
C62 O53 1.255 . S
C62 O54 1.265 . S
O63 Tb40 2.479 . S
O63 C50 1.238 . S
O64 Tb40 2.471 . S
O64 C50 1.247 . S
C65 C68 1.380 . S
C65 C69 1.374 . S
C65 C71 1.507 . S
C66 C67 1.387 . S
C66 C70 1.391 . S
C67 C66 1.387 . S
C67 C68 1.384 . S
C67 H76 0.930 . S
C68 C65 1.380 . S
C68 C67 1.384 . S
C68 H77 0.931 . S
C69 C65 1.374 . S
C69 C70 1.390 . S
C69 H78 0.930 . S
C70 C66 1.391 . S
C70 C69 1.390 . S
C70 H79 0.930 . S
C71 Eu41 2.825 . S
C71 O56 1.238 . S
C71 O57 1.247 . S
C71 C65 1.507 . S
H72 C45 0.930 . S
H73 C46 0.931 . S
H74 C47 0.930 . S
H75 C48 0.930 . S
H76 C67 0.930 . S
H77 C68 0.931 . S
H78 C69 0.930 . S
H79 C70 0.930 . S
Tb80 C90 2.825 . S
Tb80 O91 2.347 . S
Tb80 O94 2.366 . S
Tb80 O99 2.418 1_554 S
Tb80 O100 2.384 . S
Tb80 O103 2.479 . S
Tb80 O104 2.471 . S
Eu81 O92 2.418 1_556 S
Eu81 O93 2.384 . S
Eu81 O96 2.479 . S
Eu81 O97 2.471 . S
Eu81 O98 2.347 . S
Eu81 O101 2.366 . S
Eu81 C111 2.825 . S
C82 O98 1.259 . S
C82 O99 1.265 . S
C83 O100 1.255 . S
C83 O101 1.265 1_554 S
C84 C86 1.380 . S
C84 C87 1.374 . S
C84 C90 1.507 . S
C85 C86 1.384 . S
C85 C89 1.387 . S
C85 H112 0.930 . S
C86 C84 1.380 . S
C86 C85 1.384 . S
C86 H113 0.931 . S
C87 C84 1.374 . S
C87 C88 1.390 . S
C87 H114 0.930 . S
C88 C87 1.390 . S
C88 C89 1.391 . S
C88 H115 0.930 . S
C89 C85 1.387 . S
C89 C88 1.391 . S
C90 Tb80 2.825 . S
C90 C84 1.507 . S
C90 O103 1.238 . S
C90 O104 1.247 . S
O91 Tb80 2.347 . S
O91 C95 1.259 . S
O92 Eu81 2.418 1_554 S
O92 C95 1.265 . S
O93 Eu81 2.384 . S
O93 C102 1.255 . S
O94 Tb80 2.366 . S
O94 C102 1.265 1_554 S
C95 O91 1.259 . S
C95 O92 1.265 . S
O96 Eu81 2.479 . S
O96 C111 1.238 . S
O97 Eu81 2.471 . S
O97 C111 1.247 . S
O98 Eu81 2.347 . S
O98 C82 1.259 . S
O99 Tb80 2.418 1_556 S
O99 C82 1.265 . S
O100 Tb80 2.384 . S
O100 C83 1.255 . S
O101 Eu81 2.366 . S
O101 C83 1.265 1_556 S
C102 O93 1.255 . S
C102 O94 1.265 1_556 S
O103 Tb80 2.479 . S
O103 C90 1.238 . S
O104 Tb80 2.471 . S
O104 C90 1.247 . S
C105 C108 1.380 . S
C105 C109 1.374 . S
C105 C111 1.507 . S
C106 C107 1.387 . S
C106 C110 1.391 . S
C107 C106 1.387 . S
C107 C108 1.384 . S
C107 H116 0.930 . S
C108 C105 1.380 . S
C108 C107 1.384 . S
C108 H117 0.931 . S
C109 C105 1.374 . S
C109 C110 1.390 . S
C109 H118 0.930 . S
C110 C106 1.391 . S
C110 C109 1.390 . S
C110 H119 0.930 . S
C111 Eu81 2.825 . S
C111 O96 1.238 . S
C111 O97 1.247 . S
C111 C105 1.507 . S
H112 C85 0.930 . S
H113 C86 0.931 . S
H114 C87 0.930 . S
H115 C88 0.930 . S
H116 C107 0.930 . S
H117 C108 0.931 . S
H118 C109 0.930 . S
H119 C110 0.930 . S
Tb120 C130 2.825 . S
Tb120 O131 2.347 . S
Tb120 O134 2.366 . S
Tb120 O139 2.418 . S
Tb120 O140 2.384 . S
Tb120 O143 2.479 . S
Tb120 O144 2.471 . S
Eu121 O132 2.418 . S
Eu121 O133 2.384 . S
Eu121 O136 2.479 . S
Eu121 O137 2.471 . S
Eu121 O138 2.347 . S
Eu121 O141 2.366 . S
Eu121 C151 2.825 . S
C122 O138 1.259 . S
C122 O139 1.265 . S
C123 O140 1.255 . S
C123 O141 1.265 . S
C124 C126 1.380 . S
C124 C127 1.374 . S
C124 C130 1.507 . S
C125 C126 1.384 . S
C125 C129 1.387 . S
C125 H152 0.930 . S
C126 C124 1.380 . S
C126 C125 1.384 . S
C126 H153 0.931 . S
C127 C124 1.374 . S
C127 C128 1.390 . S
C127 H154 0.930 . S
C128 C127 1.390 . S
C128 C129 1.391 . S
C128 H155 0.930 . S
C129 C125 1.387 . S
C129 C128 1.391 . S
C130 Tb120 2.825 . S
C130 C124 1.507 . S
C130 O143 1.238 . S
C130 O144 1.247 . S
O131 Tb120 2.347 . S
O131 C135 1.259 . S
O132 Eu121 2.418 . S
O132 C135 1.265 . S
O133 Eu121 2.384 . S
O133 C142 1.255 . S
O134 Tb120 2.366 . S
O134 C142 1.265 . S
C135 O131 1.259 . S
C135 O132 1.265 . S
O136 Eu121 2.479 . S
O136 C151 1.238 . S
O137 Eu121 2.471 . S
O137 C151 1.247 . S
O138 Eu121 2.347 . S
O138 C122 1.259 . S
O139 Tb120 2.418 . S
O139 C122 1.265 . S
O140 Tb120 2.384 . S
O140 C123 1.255 . S
O141 Eu121 2.366 . S
O141 C123 1.265 . S
C142 O133 1.255 . S
C142 O134 1.265 . S
O143 Tb120 2.479 . S
O143 C130 1.238 . S
O144 Tb120 2.471 . S
O144 C130 1.247 . S
C145 C148 1.380 . S
C145 C149 1.374 . S
C145 C151 1.507 . S
C146 C147 1.387 . S
C146 C150 1.391 . S
C147 C146 1.387 . S
C147 C148 1.384 . S
C147 H156 0.930 . S
C148 C145 1.380 . S
C148 C147 1.384 . S
C148 H157 0.931 . S
C149 C145 1.374 . S
C149 C150 1.390 . S
C149 H158 0.930 . S
C150 C146 1.391 . S
C150 C149 1.390 . S
C150 H159 0.930 . S
C151 Eu121 2.825 . S
C151 O136 1.238 . S
C151 O137 1.247 . S
C151 C145 1.507 . S
H152 C125 0.930 . S
H153 C126 0.931 . S
H154 C127 0.930 . S
H155 C128 0.930 . S
H156 C147 0.930 . S
H157 C148 0.931 . S
H158 C149 0.930 . S
H159 C150 0.930 . S
Tb160 C170 2.825 . S
Tb160 O171 2.347 . S
Tb160 O174 2.366 . S
Tb160 O179 2.418 . S
Tb160 O180 2.384 . S
Tb160 O183 2.479 . S
Tb160 O184 2.471 . S
Eu161 O172 2.418 . S
Eu161 O173 2.384 . S
Eu161 O176 2.479 . S
Eu161 O177 2.471 . S
Eu161 O178 2.347 . S
Eu161 O181 2.366 . S
Eu161 C191 2.825 . S
C162 O178 1.259 . S
C162 O179 1.265 . S
C163 O180 1.255 . S
C163 O181 1.265 . S
C164 C166 1.380 . S
C164 C167 1.374 . S
C164 C170 1.507 . S
C165 C166 1.384 . S
C165 C169 1.387 . S
C165 H192 0.930 . S
C166 C164 1.380 . S
C166 C165 1.384 . S
C166 H193 0.931 . S
C167 C164 1.374 . S
C167 C168 1.390 . S
C167 H194 0.930 . S
C168 C167 1.390 . S
C168 C169 1.391 . S
C168 H195 0.930 . S
C169 C165 1.387 . S
C169 C168 1.391 . S
C170 Tb160 2.825 . S
C170 C164 1.507 . S
C170 O183 1.238 . S
C170 O184 1.247 . S
O171 Tb160 2.347 . S
O171 C175 1.259 . S
O172 Eu161 2.418 . S
O172 C175 1.265 . S
O173 Eu161 2.384 . S
O173 C182 1.255 . S
O174 Tb160 2.366 . S
O174 C182 1.265 . S
C175 O171 1.259 . S
C175 O172 1.265 . S
O176 Eu161 2.479 . S
O176 C191 1.238 . S
O177 Eu161 2.471 . S
O177 C191 1.247 . S
O178 Eu161 2.347 . S
O178 C162 1.259 . S
O179 Tb160 2.418 . S
O179 C162 1.265 . S
O180 Tb160 2.384 . S
O180 C163 1.255 . S
O181 Eu161 2.366 . S
O181 C163 1.265 . S
C182 O173 1.255 . S
C182 O174 1.265 . S
O183 Tb160 2.479 . S
O183 C170 1.238 . S
O184 Tb160 2.471 . S
O184 C170 1.247 . S
C185 C188 1.380 . S
C185 C189 1.374 . S
C185 C191 1.507 . S
C186 C187 1.387 . S
C186 C190 1.391 . S
C187 C186 1.387 . S
C187 C188 1.384 . S
C187 H196 0.930 . S
C188 C185 1.380 . S
C188 C187 1.384 . S
C188 H197 0.931 . S
C189 C185 1.374 . S
C189 C190 1.390 . S
C189 H198 0.930 . S
C190 C186 1.391 . S
C190 C189 1.390 . S
C190 H199 0.930 . S
C191 Eu161 2.825 . S
C191 O176 1.238 . S
C191 O177 1.247 . S
C191 C185 1.507 . S
H192 C165 0.930 . S
H193 C166 0.931 . S
H194 C167 0.930 . S
H195 C168 0.930 . S
H196 C187 0.930 . S
H197 C188 0.931 . S
H198 C189 0.930 . S
H199 C190 0.930 . S
Tb200 C210 2.825 . S
Tb200 O211 2.347 . S
Tb200 O214 2.366 . S
Tb200 O219 2.418 . S
Tb200 O220 2.384 1_655 S
Tb200 O223 2.479 . S
Tb200 O224 2.471 . S
Eu201 O212 2.418 . S
Eu201 O213 2.384 1_455 S
Eu201 O216 2.479 . S
Eu201 O217 2.471 . S
Eu201 O218 2.347 1_455 S
Eu201 O221 2.366 . S
Eu201 C231 2.825 . S
C202 O218 1.259 . S
C202 O219 1.265 . S
C203 O220 1.255 . S
C203 O221 1.265 . S
C204 C206 1.380 . S
C204 C207 1.374 . S
C204 C210 1.507 . S
C205 C206 1.384 . S
C205 C209 1.387 . S
C205 H232 0.930 . S
C206 C204 1.380 . S
C206 C205 1.384 . S
C206 H233 0.931 . S
C207 C204 1.374 . S
C207 C208 1.390 . S
C207 H234 0.930 . S
C208 C207 1.390 . S
C208 C209 1.391 . S
C208 H235 0.930 . S
C209 C205 1.387 . S
C209 C208 1.391 . S
C210 Tb200 2.825 . S
C210 C204 1.507 . S
C210 O223 1.238 . S
C210 O224 1.247 . S
O211 Tb200 2.347 . S
O211 C215 1.259 1_655 S
O212 Eu201 2.418 . S
O212 C215 1.265 . S
O213 Eu201 2.384 1_655 S
O213 C222 1.255 . S
O214 Tb200 2.366 . S
O214 C222 1.265 . S
C215 O211 1.259 1_455 S
C215 O212 1.265 . S
O216 Eu201 2.479 . S
O216 C231 1.238 . S
O217 Eu201 2.471 . S
O217 C231 1.247 . S
O218 Eu201 2.347 1_655 S
O218 C202 1.259 . S
O219 Tb200 2.418 . S
O219 C202 1.265 . S
O220 Tb200 2.384 1_455 S
O220 C203 1.255 . S
O221 Eu201 2.366 . S
O221 C203 1.265 . S
C222 O213 1.255 . S
C222 O214 1.265 . S
O223 Tb200 2.479 . S
O223 C210 1.238 . S
O224 Tb200 2.471 . S
O224 C210 1.247 . S
C225 C228 1.380 . S
C225 C229 1.374 . S
C225 C231 1.507 . S
C226 C227 1.387 . S
C226 C230 1.391 . S
C227 C226 1.387 . S
C227 C228 1.384 . S
C227 H236 0.930 . S
C228 C225 1.380 . S
C228 C227 1.384 . S
C228 H237 0.931 . S
C229 C225 1.374 . S
C229 C230 1.390 . S
C229 H238 0.930 . S
C230 C226 1.391 . S
C230 C229 1.390 . S
C230 H239 0.930 . S
C231 Eu201 2.825 . S
C231 O216 1.238 . S
C231 O217 1.247 . S
C231 C225 1.507 . S
H232 C205 0.930 . S
H233 C206 0.931 . S
H234 C207 0.930 . S
H235 C208 0.930 . S
H236 C227 0.930 . S
H237 C228 0.931 . S
H238 C229 0.930 . S
H239 C230 0.930 . S
Tb240 C250 2.825 . S
Tb240 O251 2.347 1_554 S
Tb240 O254 2.366 . S
Tb240 O259 2.418 . S
Tb240 O260 2.384 1_554 S
Tb240 O263 2.479 . S
Tb240 O264 2.471 . S
Eu241 O252 2.418 . S
Eu241 O253 2.384 1_556 S
Eu241 O256 2.479 . S
Eu241 O257 2.471 . S
Eu241 O258 2.347 1_556 S
Eu241 O261 2.366 . S
Eu241 C271 2.825 . S
C242 O258 1.259 . S
C242 O259 1.265 . S
C243 O260 1.255 . S
C243 O261 1.265 . S
C244 C246 1.380 . S
C244 C247 1.374 . S
C244 C250 1.507 . S
C245 C246 1.384 . S
C245 C249 1.387 . S
C245 H272 0.930 . S
C246 C244 1.380 . S
C246 C245 1.384 . S
C246 H273 0.931 . S
C247 C244 1.374 . S
C247 C248 1.390 . S
C247 H274 0.930 . S
C248 C247 1.390 . S
C248 C249 1.391 . S
C248 H275 0.930 . S
C249 C245 1.387 . S
C249 C248 1.391 . S
C250 Tb240 2.825 . S
C250 C244 1.507 . S
C250 O263 1.238 . S
C250 O264 1.247 . S
O251 Tb240 2.347 1_556 S
O251 C255 1.259 . S
O252 Eu241 2.418 . S
O252 C255 1.265 . S
O253 Eu241 2.384 1_554 S
O253 C262 1.255 . S
O254 Tb240 2.366 . S
O254 C262 1.265 . S
C255 O251 1.259 . S
C255 O252 1.265 . S
O256 Eu241 2.479 . S
O256 C271 1.238 . S
O257 Eu241 2.471 . S
O257 C271 1.247 . S
O258 Eu241 2.347 1_554 S
O258 C242 1.259 . S
O259 Tb240 2.418 . S
O259 C242 1.265 . S
O260 Tb240 2.384 1_556 S
O260 C243 1.255 . S
O261 Eu241 2.366 . S
O261 C243 1.265 . S
C262 O253 1.255 . S
C262 O254 1.265 . S
O263 Tb240 2.479 . S
O263 C250 1.238 . S
O264 Tb240 2.471 . S
O264 C250 1.247 . S
C265 C268 1.380 . S
C265 C269 1.374 . S
C265 C271 1.507 . S
C266 C267 1.387 . S
C266 C270 1.391 . S
C267 C266 1.387 . S
C267 C268 1.384 . S
C267 H276 0.930 . S
C268 C265 1.380 . S
C268 C267 1.384 . S
C268 H277 0.931 . S
C269 C265 1.374 . S
C269 C270 1.390 . S
C269 H278 0.930 . S
C270 C266 1.391 . S
C270 C269 1.390 . S
C270 H279 0.930 . S
C271 Eu241 2.825 . S
C271 O256 1.238 . S
C271 O257 1.247 . S
C271 C265 1.507 . S
H272 C245 0.930 . S
H273 C246 0.931 . S
H274 C247 0.930 . S
H275 C248 0.930 . S
H276 C267 0.930 . S
H277 C268 0.931 . S
H278 C269 0.930 . S
H279 C270 0.930 . S
Tb280 C290 2.825 . S
Tb280 O291 2.347 . S
Tb280 O294 2.366 . S
Tb280 O299 2.418 . S
Tb280 O300 2.384 . S
Tb280 O303 2.479 . S
Tb280 O304 2.471 . S
Eu281 O292 2.418 . S
Eu281 O293 2.384 . S
Eu281 O296 2.479 . S
Eu281 O297 2.471 . S
Eu281 O298 2.347 . S
Eu281 O301 2.366 . S
Eu281 C311 2.825 . S
C282 O298 1.259 . S
C282 O299 1.265 . S
C283 O300 1.255 . S
C283 O301 1.265 . S
C284 C286 1.380 . S
C284 C287 1.374 . S
C284 C290 1.507 . S
C285 C286 1.384 . S
C285 C289 1.387 . S
C285 H312 0.930 . S
C286 C284 1.380 . S
C286 C285 1.384 . S
C286 H313 0.931 . S
C287 C284 1.374 . S
C287 C288 1.390 . S
C287 H314 0.930 . S
C288 C287 1.390 . S
C288 C289 1.391 . S
C288 H315 0.930 . S
C289 C285 1.387 . S
C289 C288 1.391 . S
C290 Tb280 2.825 . S
C290 C284 1.507 . S
C290 O303 1.238 . S
C290 O304 1.247 . S
O291 Tb280 2.347 . S
O291 C295 1.259 . S
O292 Eu281 2.418 . S
O292 C295 1.265 . S
O293 Eu281 2.384 . S
O293 C302 1.255 . S
O294 Tb280 2.366 . S
O294 C302 1.265 . S
C295 O291 1.259 . S
C295 O292 1.265 . S
O296 Eu281 2.479 . S
O296 C311 1.238 . S
O297 Eu281 2.471 . S
O297 C311 1.247 . S
O298 Eu281 2.347 . S
O298 C282 1.259 . S
O299 Tb280 2.418 . S
O299 C282 1.265 . S
O300 Tb280 2.384 . S
O300 C283 1.255 . S
O301 Eu281 2.366 . S
O301 C283 1.265 . S
C302 O293 1.255 . S
C302 O294 1.265 . S
O303 Tb280 2.479 . S
O303 C290 1.238 . S
O304 Tb280 2.471 . S
O304 C290 1.247 . S
C305 C308 1.380 . S
C305 C309 1.374 . S
C305 C311 1.507 . S
C306 C307 1.387 . S
C306 C310 1.391 . S
C307 C306 1.387 . S
C307 C308 1.384 . S
C307 H316 0.930 . S
C308 C305 1.380 . S
C308 C307 1.384 . S
C308 H317 0.931 . S
C309 C305 1.374 . S
C309 C310 1.390 . S
C309 H318 0.930 . S
C310 C306 1.391 . S
C310 C309 1.390 . S
C310 H319 0.930 . S
C311 Eu281 2.825 . S
C311 O296 1.238 . S
C311 O297 1.247 . S
C311 C305 1.507 . S
H312 C285 0.930 . S
H313 C286 0.931 . S
H314 C287 0.930 . S
H315 C288 0.930 . S
H316 C307 0.930 . S
H317 C308 0.931 . S
H318 C309 0.930 . S
H319 C310 0.930 . S
Tb320 C330 2.825 . S
Tb320 O331 2.347 . S
Tb320 O334 2.366 . S
Tb320 O339 2.418 . S
Tb320 O340 2.384 . S
Tb320 O343 2.479 . S
Tb320 O344 2.471 . S
Eu321 O332 2.418 . S
Eu321 O333 2.384 . S
Eu321 O336 2.479 . S
Eu321 O337 2.471 . S
Eu321 O338 2.347 . S
Eu321 O341 2.366 . S
Eu321 C351 2.825 . S
C322 O338 1.259 . S
C322 O339 1.265 . S
C323 O340 1.255 . S
C323 O341 1.265 . S
C324 C326 1.380 . S
C324 C327 1.374 . S
C324 C330 1.507 . S
C325 C326 1.384 . S
C325 C329 1.387 . S
C325 H352 0.930 . S
C326 C324 1.380 . S
C326 C325 1.384 . S
C326 H353 0.931 . S
C327 C324 1.374 . S
C327 C328 1.390 . S
C327 H354 0.930 . S
C328 C327 1.390 . S
C328 C329 1.391 . S
C328 H355 0.930 . S
C329 C325 1.387 . S
C329 C328 1.391 . S
C330 Tb320 2.825 . S
C330 C324 1.507 . S
C330 O343 1.238 . S
C330 O344 1.247 . S
O331 Tb320 2.347 . S
O331 C335 1.259 . S
O332 Eu321 2.418 . S
O332 C335 1.265 . S
O333 Eu321 2.384 . S
O333 C342 1.255 . S
O334 Tb320 2.366 . S
O334 C342 1.265 . S
C335 O331 1.259 . S
C335 O332 1.265 . S
O336 Eu321 2.479 . S
O336 C351 1.238 . S
O337 Eu321 2.471 . S
O337 C351 1.247 . S
O338 Eu321 2.347 . S
O338 C322 1.259 . S
O339 Tb320 2.418 . S
O339 C322 1.265 . S
O340 Tb320 2.384 . S
O340 C323 1.255 . S
O341 Eu321 2.366 . S
O341 C323 1.265 . S
C342 O333 1.255 . S
C342 O334 1.265 . S
O343 Tb320 2.479 . S
O343 C330 1.238 . S
O344 Tb320 2.471 . S
O344 C330 1.247 . S
C345 C348 1.380 . S
C345 C349 1.374 . S
C345 C351 1.507 . S
C346 C347 1.387 . S
C346 C350 1.391 . S
C347 C346 1.387 . S
C347 C348 1.384 . S
C347 H356 0.930 . S
C348 C345 1.380 . S
C348 C347 1.384 . S
C348 H357 0.931 . S
C349 C345 1.374 . S
C349 C350 1.390 . S
C349 H358 0.930 . S
C350 C346 1.391 . S
C350 C349 1.390 . S
C350 H359 0.930 . S
C351 Eu321 2.825 . S
C351 O336 1.238 . S
C351 O337 1.247 . S
C351 C345 1.507 . S
H352 C325 0.930 . S
H353 C326 0.931 . S
H354 C327 0.930 . S
H355 C328 0.930 . S
H356 C347 0.930 . S
H357 C348 0.931 . S
H358 C349 0.930 . S
H359 C350 0.930 . S
Tb360 C370 2.825 . S
Tb360 O371 2.347 1_545 S
Tb360 O374 2.366 . S
Tb360 O379 2.418 . S
Tb360 O380 2.384 1_545 S
Tb360 O383 2.479 . S
Tb360 O384 2.471 . S
Eu361 O372 2.418 . S
Eu361 O373 2.384 1_565 S
Eu361 O376 2.479 . S
Eu361 O377 2.471 . S
Eu361 O378 2.347 1_565 S
Eu361 O381 2.366 . S
Eu361 C391 2.825 . S
C362 O378 1.259 . S
C362 O379 1.265 . S
C363 O380 1.255 . S
C363 O381 1.265 . S
C364 C366 1.380 . S
C364 C367 1.374 . S
C364 C370 1.507 . S
C365 C366 1.384 . S
C365 C369 1.387 . S
C365 H392 0.930 . S
C366 C364 1.380 . S
C366 C365 1.384 . S
C366 H393 0.931 . S
C367 C364 1.374 . S
C367 C368 1.390 . S
C367 H394 0.930 . S
C368 C367 1.390 . S
C368 C369 1.391 . S
C368 H395 0.930 . S
C369 C365 1.387 . S
C369 C368 1.391 . S
C370 Tb360 2.825 . S
C370 C364 1.507 . S
C370 O383 1.238 . S
C370 O384 1.247 . S
O371 Tb360 2.347 1_565 S
O371 C375 1.259 . S
O372 Eu361 2.418 . S
O372 C375 1.265 . S
O373 Eu361 2.384 1_545 S
O373 C382 1.255 . S
O374 Tb360 2.366 . S
O374 C382 1.265 . S
C375 O371 1.259 . S
C375 O372 1.265 . S
O376 Eu361 2.479 . S
O376 C391 1.238 . S
O377 Eu361 2.471 . S
O377 C391 1.247 . S
O378 Eu361 2.347 1_545 S
O378 C362 1.259 . S
O379 Tb360 2.418 . S
O379 C362 1.265 . S
O380 Tb360 2.384 1_565 S
O380 C363 1.255 . S
O381 Eu361 2.366 . S
O381 C363 1.265 . S
C382 O373 1.255 . S
C382 O374 1.265 . S
O383 Tb360 2.479 . S
O383 C370 1.238 . S
O384 Tb360 2.471 . S
O384 C370 1.247 . S
C385 C388 1.380 . S
C385 C389 1.374 . S
C385 C391 1.507 . S
C386 C387 1.387 . S
C386 C390 1.391 . S
C387 C386 1.387 . S
C387 C388 1.384 . S
C387 H396 0.930 . S
C388 C385 1.380 . S
C388 C387 1.384 . S
C388 H397 0.931 . S
C389 C385 1.374 . S
C389 C390 1.390 . S
C389 H398 0.930 . S
C390 C386 1.391 . S
C390 C389 1.390 . S
C390 H399 0.930 . S
C391 Eu361 2.825 . S
C391 O376 1.238 . S
C391 O377 1.247 . S
C391 C385 1.507 . S
H392 C365 0.930 . S
H393 C366 0.931 . S
H394 C367 0.930 . S
H395 C368 0.930 . S
H396 C387 0.930 . S
H397 C388 0.931 . S
H398 C389 0.930 . S
H399 C390 0.930 . S
Tb400 C410 2.825 . S
Tb400 O411 2.347 1_565 S
Tb400 O414 2.366 . S
Tb400 O419 2.418 . S
Tb400 O420 2.384 1_565 S
Tb400 O423 2.479 . S
Tb400 O424 2.471 . S
Eu401 O412 2.418 . S
Eu401 O413 2.384 1_545 S
Eu401 O416 2.479 . S
Eu401 O417 2.471 . S
Eu401 O418 2.347 1_545 S
Eu401 O421 2.366 . S
Eu401 C431 2.825 . S
C402 O418 1.259 . S
C402 O419 1.265 . S
C403 O420 1.255 . S
C403 O421 1.265 . S
C404 C406 1.380 . S
C404 C407 1.374 . S
C404 C410 1.507 . S
C405 C406 1.384 . S
C405 C409 1.387 . S
C405 H432 0.930 . S
C406 C404 1.380 . S
C406 C405 1.384 . S
C406 H433 0.931 . S
C407 C404 1.374 . S
C407 C408 1.390 . S
C407 H434 0.930 . S
C408 C407 1.390 . S
C408 C409 1.391 . S
C408 H435 0.930 . S
C409 C405 1.387 . S
C409 C408 1.391 . S
C410 Tb400 2.825 . S
C410 C404 1.507 . S
C410 O423 1.238 . S
C410 O424 1.247 . S
O411 Tb400 2.347 1_545 S
O411 C415 1.259 . S
O412 Eu401 2.418 . S
O412 C415 1.265 . S
O413 Eu401 2.384 1_565 S
O413 C422 1.255 . S
O414 Tb400 2.366 . S
O414 C422 1.265 . S
C415 O411 1.259 . S
C415 O412 1.265 . S
O416 Eu401 2.479 . S
O416 C431 1.238 . S
O417 Eu401 2.471 . S
O417 C431 1.247 . S
O418 Eu401 2.347 1_565 S
O418 C402 1.259 . S
O419 Tb400 2.418 . S
O419 C402 1.265 . S
O420 Tb400 2.384 1_545 S
O420 C403 1.255 . S
O421 Eu401 2.366 . S
O421 C403 1.265 . S
C422 O413 1.255 . S
C422 O414 1.265 . S
O423 Tb400 2.479 . S
O423 C410 1.238 . S
O424 Tb400 2.471 . S
O424 C410 1.247 . S
C425 C428 1.380 . S
C425 C429 1.374 . S
C425 C431 1.507 . S
C426 C427 1.387 . S
C426 C430 1.391 . S
C427 C426 1.387 . S
C427 C428 1.384 . S
C427 H436 0.930 . S
C428 C425 1.380 . S
C428 C427 1.384 . S
C428 H437 0.931 . S
C429 C425 1.374 . S
C429 C430 1.390 . S
C429 H438 0.930 . S
C430 C426 1.391 . S
C430 C429 1.390 . S
C430 H439 0.930 . S
C431 Eu401 2.825 . S
C431 O416 1.238 . S
C431 O417 1.247 . S
C431 C425 1.507 . S
H432 C405 0.930 . S
H433 C406 0.931 . S
H434 C407 0.930 . S
H435 C408 0.930 . S
H436 C427 0.930 . S
H437 C428 0.931 . S
H438 C429 0.930 . S
H439 C430 0.930 . S
Tb440 C450 2.825 . S
Tb440 O451 2.347 . S
Tb440 O454 2.366 . S
Tb440 O459 2.418 . S
Tb440 O460 2.384 . S
Tb440 O463 2.479 . S
Tb440 O464 2.471 . S
Eu441 O452 2.418 . S
Eu441 O453 2.384 . S
Eu441 O456 2.479 . S
Eu441 O457 2.471 . S
Eu441 O458 2.347 . S
Eu441 O461 2.366 . S
Eu441 C471 2.825 . S
C442 O458 1.259 . S
C442 O459 1.265 . S
C443 O460 1.255 . S
C443 O461 1.265 . S
C444 C446 1.380 . S
C444 C447 1.374 . S
C444 C450 1.507 . S
C445 C446 1.384 . S
C445 C449 1.387 . S
C445 H472 0.930 . S
C446 C444 1.380 . S
C446 C445 1.384 . S
C446 H473 0.931 . S
C447 C444 1.374 . S
C447 C448 1.390 . S
C447 H474 0.930 . S
C448 C447 1.390 . S
C448 C449 1.391 . S
C448 H475 0.930 . S
C449 C445 1.387 . S
C449 C448 1.391 . S
C450 Tb440 2.825 . S
C450 C444 1.507 . S
C450 O463 1.238 . S
C450 O464 1.247 . S
O451 Tb440 2.347 . S
O451 C455 1.259 . S
O452 Eu441 2.418 . S
O452 C455 1.265 . S
O453 Eu441 2.384 . S
O453 C462 1.255 . S
O454 Tb440 2.366 . S
O454 C462 1.265 . S
C455 O451 1.259 . S
C455 O452 1.265 . S
O456 Eu441 2.479 . S
O456 C471 1.238 . S
O457 Eu441 2.471 . S
O457 C471 1.247 . S
O458 Eu441 2.347 . S
O458 C442 1.259 . S
O459 Tb440 2.418 . S
O459 C442 1.265 . S
O460 Tb440 2.384 . S
O460 C443 1.255 . S
O461 Eu441 2.366 . S
O461 C443 1.265 . S
C462 O453 1.255 . S
C462 O454 1.265 . S
O463 Tb440 2.479 . S
O463 C450 1.238 . S
O464 Tb440 2.471 . S
O464 C450 1.247 . S
C465 C468 1.380 . S
C465 C469 1.374 . S
C465 C471 1.507 . S
C466 C467 1.387 . S
C466 C470 1.391 . S
C467 C466 1.387 . S
C467 C468 1.384 . S
C467 H476 0.930 . S
C468 C465 1.380 . S
C468 C467 1.384 . S
C468 H477 0.931 . S
C469 C465 1.374 . S
C469 C470 1.390 . S
C469 H478 0.930 . S
C470 C466 1.391 . S
C470 C469 1.390 . S
C470 H479 0.930 . S
C471 Eu441 2.825 . S
C471 O456 1.238 . S
C471 O457 1.247 . S
C471 C465 1.507 . S
H472 C445 0.930 . S
H473 C446 0.931 . S
H474 C447 0.930 . S
H475 C448 0.930 . S
H476 C467 0.930 . S
H477 C468 0.931 . S
H478 C469 0.930 . S
H479 C470 0.930 . S
C480 C481 1.363 . S
C480 C486 1.379 . S
C480 N488 1.356 . S
C481 C480 1.363 . S
C481 C487 1.363 . S
C482 C483 1.363 . S
C482 C487 1.379 . S
C482 N489 1.356 . S
C483 C482 1.363 . S
C483 C486 1.363 . S
N484 C486 1.356 . S
N484 H496 0.984 . S
N484 H497 0.985 . S
N485 C487 1.356 . S
N485 H490 0.984 . S
N485 H491 0.985 . S
C486 C480 1.379 . S
C486 C483 1.363 . S
C486 N484 1.356 . S
C487 C481 1.363 . S
C487 C482 1.379 . S
C487 N485 1.356 . S
N488 C480 1.356 . S
N488 H494 0.984 . S
N488 H495 0.984 . S
N489 C482 1.356 . S
N489 H492 0.984 . S
N489 H493 0.985 . S
H490 N485 0.984 . S
H491 N485 0.985 . S
H492 N489 0.984 . S
H493 N489 0.985 . S
H494 N488 0.984 . S
H495 N488 0.984 . S
H496 N484 0.984 . S
H497 N484 0.985 . S
C498 C499 1.363 . S
C498 C504 1.379 . S
C498 N506 1.356 1_565 S
C499 C498 1.363 . S
C499 C505 1.363 . S
C500 C501 1.363 . S
C500 C505 1.379 . S
C500 N507 1.356 . S
C501 C500 1.363 . S
C501 C504 1.363 . S
N502 C504 1.356 . S
N502 H514 0.984 1_565 S
N502 H515 0.985 . S
N503 C505 1.356 . S
N503 H508 0.984 . S
N503 H509 0.985 . S
C504 C498 1.379 . S
C504 C501 1.363 . S
C504 N502 1.356 . S
C505 C499 1.363 . S
C505 C500 1.379 . S
C505 N503 1.356 . S
N506 C498 1.356 1_545 S
N506 H512 0.984 . S
N506 H513 0.986 . S
N507 C500 1.356 . S
N507 H510 0.984 . S
N507 H511 0.985 . S
H508 N503 0.984 . S
H509 N503 0.985 . S
H510 N507 0.984 . S
H511 N507 0.985 . S
H512 N506 0.984 . S
H513 N506 0.986 . S
H514 N502 0.984 1_545 S
H515 N502 0.985 . S
C516 C517 1.363 . S
C516 C522 1.379 . S
C516 N524 1.356 1_554 S
C517 C516 1.363 . S
C517 C523 1.363 . S
C518 C519 1.363 . S
C518 C523 1.379 . S
C518 N525 1.356 . S
C519 C518 1.363 . S
C519 C522 1.363 . S
N520 C522 1.355 . S
N520 H532 0.987 1_554 S
N520 H533 0.983 . S
N521 C523 1.356 . S
N521 H526 0.984 . S
N521 H527 0.985 . S
C522 C516 1.379 . S
C522 C519 1.363 . S
C522 N520 1.355 . S
C523 C517 1.363 . S
C523 C518 1.379 . S
C523 N521 1.356 . S
N524 C516 1.356 1_556 S
N524 H530 0.984 . S
N524 H531 0.984 . S
N525 C518 1.356 . S
N525 H528 0.984 . S
N525 H529 0.985 . S
H526 N521 0.984 . S
H527 N521 0.985 . S
H528 N525 0.984 . S
H529 N525 0.985 . S
H530 N524 0.984 . S
H531 N524 0.984 . S
H532 N520 0.987 1_556 S
H533 N520 0.983 . S
C534 C535 1.363 . S
C534 C540 1.379 . S
C534 N542 1.356 . S
C535 C534 1.363 . S
C535 C541 1.363 . S
C536 C537 1.363 . S
C536 C541 1.379 . S
C536 N543 1.356 . S
C537 C536 1.363 . S
C537 C540 1.363 . S
N538 C540 1.356 . S
N538 H550 0.984 . S
N538 H551 0.985 . S
N539 C541 1.356 . S
N539 H544 0.984 . S
N539 H545 0.985 . S
C540 C534 1.379 . S
C540 C537 1.363 . S
C540 N538 1.356 . S
C541 C535 1.363 . S
C541 C536 1.379 . S
C541 N539 1.356 . S
N542 C534 1.356 . S
N542 H548 0.984 . S
N542 H549 0.984 . S
N543 C536 1.356 . S
N543 H546 0.984 . S
N543 H547 0.985 . S
H544 N539 0.984 . S
H545 N539 0.985 . S
H546 N543 0.984 . S
H547 N543 0.985 . S
H548 N542 0.984 . S
H549 N542 0.984 . S
H550 N538 0.984 . S
H551 N538 0.985 . S
C552 C553 1.363 . S
C552 C558 1.379 . S
C552 N560 1.356 . S
C553 C552 1.363 . S
C553 C559 1.363 . S
C554 C555 1.363 . S
C554 C559 1.379 . S
C554 N561 1.356 . S
C555 C554 1.363 . S
C555 C558 1.363 . S
N556 C558 1.356 . S
N556 H568 0.984 . S
N556 H569 0.985 . S
N557 C559 1.356 . S
N557 H562 0.984 . S
N557 H563 0.985 . S
C558 C552 1.379 . S
C558 C555 1.363 . S
C558 N556 1.356 . S
C559 C553 1.363 . S
C559 C554 1.379 . S
C559 N557 1.356 . S
N560 C552 1.356 . S
N560 H566 0.984 . S
N560 H567 0.984 . S
N561 C554 1.356 . S
N561 H564 0.984 . S
N561 H565 0.985 . S
H562 N557 0.984 . S
H563 N557 0.985 . S
H564 N561 0.984 . S
H565 N561 0.985 . S
H566 N560 0.984 . S
H567 N560 0.984 . S
H568 N556 0.984 . S
H569 N556 0.985 . S
C570 C571 1.363 . S
C570 C576 1.379 . S
C570 N578 1.356 . S
C571 C570 1.363 . S
C571 C577 1.363 . S
C572 C573 1.363 . S
C572 C577 1.379 . S
C572 N579 1.356 . S
C573 C572 1.363 . S
C573 C576 1.363 . S
N574 C576 1.356 . S
N574 H586 0.984 . S
N574 H587 0.985 . S
N575 C577 1.356 . S
N575 H580 0.984 . S
N575 H581 0.985 . S
C576 C570 1.379 . S
C576 C573 1.363 . S
C576 N574 1.356 . S
C577 C571 1.363 . S
C577 C572 1.379 . S
C577 N575 1.356 . S
N578 C570 1.356 . S
N578 H584 0.984 . S
N578 H585 0.984 . S
N579 C572 1.356 . S
N579 H582 0.984 . S
N579 H583 0.985 . S
H580 N575 0.984 . S
H581 N575 0.985 . S
H582 N579 0.984 . S
H583 N579 0.985 . S
H584 N578 0.984 . S
H585 N578 0.984 . S
H586 N574 0.984 . S
H587 N574 0.985 . S
C588 C589 1.363 . S
C588 C594 1.379 . S
C588 N596 1.356 . S
C589 C588 1.363 . S
C589 C595 1.363 . S
C590 C591 1.363 . S
C590 C595 1.379 . S
C590 N597 1.356 . S
C591 C590 1.363 . S
C591 C594 1.363 . S
N592 C594 1.356 . S
N592 H604 0.984 . S
N592 H605 0.985 . S
N593 C595 1.356 . S
N593 H598 0.984 . S
N593 H599 0.985 . S
C594 C588 1.379 . S
C594 C591 1.363 . S
C594 N592 1.356 . S
C595 C589 1.363 . S
C595 C590 1.379 . S
C595 N593 1.356 . S
N596 C588 1.356 . S
N596 H602 0.984 . S
N596 H603 0.984 . S
N597 C590 1.356 . S
N597 H600 0.984 . S
N597 H601 0.985 . S
H598 N593 0.984 . S
H599 N593 0.985 . S
H600 N597 0.984 . S
H601 N597 0.985 . S
H602 N596 0.984 . S
H603 N596 0.984 . S
H604 N592 0.984 . S
H605 N592 0.985 . S
C606 C607 1.363 . S
C606 C612 1.379 . S
C606 N614 1.356 . S
C607 C606 1.363 . S
C607 C613 1.363 . S
C608 C609 1.363 . S
C608 C613 1.379 . S
C608 N615 1.356 . S
C609 C608 1.363 . S
C609 C612 1.363 . S
N610 C612 1.356 . S
N610 H622 0.984 . S
N610 H623 0.985 . S
N611 C613 1.356 . S
N611 H616 0.984 . S
N611 H617 0.985 . S
C612 C606 1.379 . S
C612 C609 1.363 . S
C612 N610 1.356 . S
C613 C607 1.363 . S
C613 C608 1.379 . S
C613 N611 1.356 . S
N614 C606 1.356 . S
N614 H620 0.984 . S
N614 H621 0.984 . S
N615 C608 1.356 . S
N615 H618 0.984 . S
N615 H619 0.985 . S
H616 N611 0.984 . S
H617 N611 0.985 . S
H618 N615 0.984 . S
H619 N615 0.985 . S
H620 N614 0.984 . S
H621 N614 0.984 . S
H622 N610 0.984 . S
H623 N610 0.985 . S
C624 C625 1.363 . S
C624 C630 1.379 . S
C624 N632 1.356 . S
C625 C624 1.363 . S
C625 C631 1.363 . S
C626 C627 1.363 . S
C626 C631 1.379 . S
C626 N633 1.356 . S
C627 C626 1.363 . S
C627 C630 1.363 . S
N628 C630 1.356 . S
N628 H640 0.984 . S
N628 H641 0.985 . S
N629 C631 1.356 . S
N629 H634 0.984 . S
N629 H635 0.985 . S
C630 C624 1.379 . S
C630 C627 1.363 . S
C630 N628 1.356 . S
C631 C625 1.363 . S
C631 C626 1.379 . S
C631 N629 1.356 . S
N632 C624 1.356 . S
N632 H638 0.984 . S
N632 H639 0.984 . S
N633 C626 1.356 . S
N633 H636 0.984 . S
N633 H637 0.985 . S
H634 N629 0.984 . S
H635 N629 0.985 . S
H636 N633 0.984 . S
H637 N633 0.985 . S
H638 N632 0.984 . S
H639 N632 0.984 . S
H640 N628 0.984 . S
H641 N628 0.985 . S
C642 C643 1.363 . S
C642 C648 1.379 . S
C642 N650 1.356 . S
C643 C642 1.363 . S
C643 C649 1.363 . S
C644 C645 1.363 . S
C644 C649 1.379 . S
C644 N651 1.356 . S
C645 C644 1.363 . S
C645 C648 1.363 . S
N646 C648 1.356 . S
N646 H658 0.984 1_455 S
N646 H659 0.985 . S
N647 C649 1.356 . S
N647 H652 0.984 . S
N647 H653 0.985 . S
C648 C642 1.379 . S
C648 C645 1.363 . S
C648 N646 1.356 . S
C649 C643 1.363 . S
C649 C644 1.379 . S
C649 N647 1.356 . S
N650 C642 1.356 . S
N650 H656 0.984 . S
N650 H657 0.984 . S
N651 C644 1.356 . S
N651 H654 0.984 . S
N651 H655 0.985 . S
H652 N647 0.984 . S
H653 N647 0.985 . S
H654 N651 0.984 . S
H655 N651 0.985 . S
H656 N650 0.984 . S
H657 N650 0.984 . S
H658 N646 0.984 1_655 S
H659 N646 0.985 . S
C660 C661 1.363 . S
C660 C666 1.379 . S
C660 N668 1.356 1_655 S
C661 C660 1.363 . S
C661 C667 1.363 . S
C662 C663 1.363 . S
C662 C667 1.379 . S
C662 N669 1.356 . S
C663 C662 1.363 . S
C663 C666 1.363 . S
N664 C666 1.356 . S
N664 H676 0.984 . S
N664 H677 0.985 . S
N665 C667 1.356 . S
N665 H670 0.984 . S
N665 H671 0.985 . S
C666 C660 1.379 . S
C666 C663 1.363 . S
C666 N664 1.356 . S
C667 C661 1.363 . S
C667 C662 1.379 . S
C667 N665 1.356 . S
N668 C660 1.356 1_455 S
N668 H674 0.984 . S
N668 H675 0.984 . S
N669 C662 1.356 . S
N669 H672 0.984 . S
N669 H673 0.985 . S
H670 N665 0.984 . S
H671 N665 0.985 . S
H672 N669 0.984 . S
H673 N669 0.985 . S
H674 N668 0.984 . S
H675 N668 0.984 . S
H676 N664 0.984 . S
H677 N664 0.985 . S
C678 C679 1.363 . S
C678 C684 1.379 . S
C678 N686 1.356 . S
C679 C678 1.363 . S
C679 C685 1.363 . S
C680 C681 1.363 . S
C680 C685 1.379 . S
C680 N687 1.356 . S
C681 C680 1.363 . S
C681 C684 1.363 . S
N682 C684 1.356 . S
N682 H694 0.984 . S
N682 H695 0.985 . S
N683 C685 1.356 . S
N683 H688 0.984 . S
N683 H689 0.985 . S
C684 C678 1.379 . S
C684 C681 1.363 . S
C684 N682 1.356 . S
C685 C679 1.363 . S
C685 C680 1.379 . S
C685 N683 1.356 . S
N686 C678 1.356 . S
N686 H692 0.984 . S
N686 H693 0.984 . S
N687 C680 1.356 . S
N687 H690 0.984 . S
N687 H691 0.985 . S
H688 N683 0.984 . S
H689 N683 0.985 . S
H690 N687 0.984 . S
H691 N687 0.985 . S
H692 N686 0.984 . S
H693 N686 0.984 . S
H694 N682 0.984 . S
H695 N682 0.985 . S
C696 C697 1.363 . S
C696 C702 1.379 . S
C696 N704 1.356 . S
C697 C696 1.363 . S
C697 C703 1.363 . S
C698 C699 1.363 . S
C698 C703 1.379 . S
C698 N705 1.356 . S
C699 C698 1.363 . S
C699 C702 1.363 . S
N700 C702 1.356 . S
N700 H712 0.984 . S
N700 H713 0.985 . S
N701 C703 1.356 . S
N701 H706 0.984 . S
N701 H707 0.985 . S
C702 C696 1.379 . S
C702 C699 1.363 . S
C702 N700 1.356 . S
C703 C697 1.363 . S
C703 C698 1.379 . S
C703 N701 1.356 . S
N704 C696 1.356 . S
N704 H710 0.984 . S
N704 H711 0.984 . S
N705 C698 1.356 . S
N705 H708 0.984 . S
N705 H709 0.985 . S
H706 N701 0.984 . S
H707 N701 0.985 . S
H708 N705 0.984 . S
H709 N705 0.985 . S
H710 N704 0.984 . S
H711 N704 0.984 . S
H712 N700 0.984 . S
H713 N700 0.985 . S
C714 C715 1.363 . S
C714 C720 1.379 . S
C714 N722 1.356 . S
C715 C714 1.363 . S
C715 C721 1.363 . S
C716 C717 1.363 . S
C716 C721 1.379 . S
C716 N723 1.356 1_565 S
C717 C716 1.363 . S
C717 C720 1.363 . S
N718 C720 1.356 . S
N718 H730 0.984 . S
N718 H731 0.985 . S
N719 C721 1.356 . S
N719 H724 0.984 . S
N719 H725 0.985 1_565 S
C720 C714 1.379 . S
C720 C717 1.363 . S
C720 N718 1.356 . S
C721 C715 1.363 . S
C721 C716 1.379 . S
C721 N719 1.356 . S
N722 C714 1.356 . S
N722 H728 0.984 . S
N722 H729 0.984 . S
N723 C716 1.356 1_545 S
N723 H726 0.984 . S
N723 H727 0.985 . S
H724 N719 0.984 . S
H725 N719 0.985 1_545 S
H726 N723 0.984 . S
H727 N723 0.985 . S
H728 N722 0.984 . S
H729 N722 0.984 . S
H730 N718 0.984 . S
H731 N718 0.985 . S
C732 C733 1.363 . S
C732 C738 1.379 . S
C732 N740 1.356 . S
C733 C732 1.363 . S
C733 C739 1.363 . S
C734 C735 1.363 . S
C734 C739 1.379 . S
C734 N741 1.356 . S
C735 C734 1.363 . S
C735 C738 1.363 . S
N736 C738 1.356 . S
N736 H748 0.984 . S
N736 H749 0.985 . S
N737 C739 1.356 . S
N737 H742 0.984 . S
N737 H743 0.985 . S
C738 C732 1.379 . S
C738 C735 1.363 . S
C738 N736 1.356 . S
C739 C733 1.363 . S
C739 C734 1.379 . S
C739 N737 1.356 . S
N740 C732 1.356 . S
N740 H746 0.984 . S
N740 H747 0.984 . S
N741 C734 1.356 . S
N741 H744 0.984 . S
N741 H745 0.985 . S
H742 N737 0.984 . S
H743 N737 0.985 . S
H744 N741 0.984 . S
H745 N741 0.985 . S
H746 N740 0.984 . S
H747 N740 0.984 . S
H748 N736 0.984 . S
H749 N736 0.985 . S
C750 C751 1.363 1_556 S
C750 C756 1.379 . S
C750 N758 1.356 1_556 S
C751 C750 1.363 1_554 S
C751 C757 1.363 . S
C752 C753 1.363 . S
C752 C757 1.379 1_556 S
C752 N759 1.356 1_545 S
C753 C752 1.363 . S
C753 C756 1.363 . S
N754 C756 1.356 . S
N754 H766 0.984 . S
N754 H767 0.985 . S
N755 C757 1.356 . S
N755 H760 0.984 . S
N755 H761 0.985 1_545 S
C756 C750 1.379 . S
C756 C753 1.363 . S
C756 N754 1.356 . S
C757 C751 1.363 . S
C757 C752 1.379 1_554 S
C757 N755 1.356 . S
N758 C750 1.356 1_554 S
N758 H764 0.984 1_554 S
N758 H765 0.984 . S
N759 C752 1.356 1_565 S
N759 H762 0.984 . S
N759 H763 0.985 . S
H760 N755 0.984 . S
H761 N755 0.985 1_565 S
H762 N759 0.984 . S
H763 N759 0.985 . S
H764 N758 0.984 1_556 S
H765 N758 0.984 . S
H766 N754 0.984 . S
H767 N754 0.985 . S
C768 C769 1.363 . S
C768 C774 1.379 . S
C768 N776 1.356 . S
C769 C768 1.363 . S
C769 C775 1.363 . S
C770 C771 1.363 . S
C770 C775 1.379 . S
C770 N777 1.356 . S
C771 C770 1.363 . S
C771 C774 1.363 . S
N772 C774 1.356 . S
N772 H784 0.984 . S
N772 H785 0.985 . S
N773 C775 1.356 . S
N773 H778 0.984 . S
N773 H779 0.985 . S
C774 C768 1.379 . S
C774 C771 1.363 . S
C774 N772 1.356 . S
C775 C769 1.363 . S
C775 C770 1.379 . S
C775 N773 1.356 . S
N776 C768 1.356 . S
N776 H782 0.984 . S
N776 H783 0.984 . S
N777 C770 1.356 . S
N777 H780 0.984 . S
N777 H781 0.985 . S
H778 N773 0.984 . S
H779 N773 0.985 . S
H780 N777 0.984 . S
H781 N777 0.985 . S
H782 N776 0.984 . S
H783 N776 0.984 . S
H784 N772 0.984 . S
H785 N772 0.985 . S
C786 C787 1.363 . S
C786 C792 1.379 . S
C786 N794 1.356 1_556 S
C787 C786 1.363 . S
C787 C793 1.363 . S
C788 C789 1.363 . S
C788 C793 1.379 . S
C788 N795 1.356 . S
C789 C788 1.363 . S
C789 C792 1.363 . S
N790 C792 1.356 . S
N790 H802 0.984 . S
N790 H803 0.985 . S
N791 C793 1.371 . S
N791 H796 0.963 1_556 S
N791 H797 0.992 . S
C792 C786 1.379 . S
C792 C789 1.363 . S
C792 N790 1.356 . S
C793 C787 1.363 . S
C793 C788 1.379 . S
C793 N791 1.371 . S
N794 C786 1.356 1_554 S
N794 H800 0.984 . S
N794 H801 0.984 . S
N795 C788 1.356 . S
N795 H798 0.984 . S
N795 H799 0.985 . S
H796 N791 0.963 1_554 S
H797 N791 0.992 . S
H798 N795 0.984 . S
H799 N795 0.985 . S
H800 N794 0.984 . S
H801 N794 0.984 . S
H802 N790 0.984 . S
H803 N790 0.985 . S
C804 C805 1.363 . S
C804 C810 1.379 . S
C804 N812 1.356 . S
C805 C804 1.363 . S
C805 C811 1.363 . S
C806 C807 1.363 . S
C806 C811 1.379 . S
C806 N813 1.356 . S
C807 C806 1.363 . S
C807 C810 1.363 . S
N808 C810 1.356 . S
N808 H820 0.984 . S
N808 H821 0.985 . S
N809 C811 1.356 . S
N809 H814 0.984 . S
N809 H815 0.985 . S
C810 C804 1.379 . S
C810 C807 1.363 . S
C810 N808 1.356 . S
C811 C805 1.363 . S
C811 C806 1.379 . S
C811 N809 1.356 . S
N812 C804 1.356 . S
N812 H818 0.984 . S
N812 H819 0.984 . S
N813 C806 1.356 . S
N813 H816 0.984 . S
N813 H817 0.985 . S
H814 N809 0.984 . S
H815 N809 0.985 . S
H816 N813 0.984 . S
H817 N813 0.985 . S
H818 N812 0.984 . S
H819 N812 0.984 . S
H820 N808 0.984 . S
H821 N808 0.985 . S
C822 C823 1.363 . S
C822 C828 1.379 . S
C822 N830 1.356 . S
C823 C822 1.363 . S
C823 C829 1.363 . S
C824 C825 1.363 . S
C824 C829 1.379 . S
C824 N831 1.356 . S
C825 C824 1.363 . S
C825 C828 1.363 . S
N826 C828 1.356 . S
N826 H838 0.984 . S
N826 H839 0.985 . S
N827 C829 1.356 . S
N827 H832 0.984 . S
N827 H833 0.985 . S
C828 C822 1.379 . S
C828 C825 1.363 . S
C828 N826 1.356 . S
C829 C823 1.363 . S
C829 C824 1.379 . S
C829 N827 1.356 . S
N830 C822 1.356 . S
N830 H836 0.984 . S
N830 H837 0.984 . S
N831 C824 1.356 . S
N831 H834 0.984 . S
N831 H835 0.985 . S
H832 N827 0.984 . S
H833 N827 0.985 . S
H834 N831 0.984 . S
H835 N831 0.985 . S
H836 N830 0.984 . S
H837 N830 0.984 . S
H838 N826 0.984 . S
H839 N826 0.985 . S
C840 C841 1.363 . S
C840 C846 1.379 . S
C840 N848 1.356 . S
C841 C840 1.363 . S
C841 C847 1.363 . S
C842 C843 1.363 . S
C842 C847 1.379 . S
C842 N849 1.356 . S
C843 C842 1.363 . S
C843 C846 1.363 . S
N844 C846 1.356 . S
N844 H856 0.984 . S
N844 H857 0.985 . S
N845 C847 1.356 . S
N845 H850 0.984 . S
N845 H851 0.985 . S
C846 C840 1.379 . S
C846 C843 1.363 . S
C846 N844 1.356 . S
C847 C841 1.363 . S
C847 C842 1.379 . S
C847 N845 1.356 . S
N848 C840 1.356 . S
N848 H854 0.984 . S
N848 H855 0.984 . S
N849 C842 1.356 . S
N849 H852 0.984 . S
N849 H853 0.985 . S
H850 N845 0.984 . S
H851 N845 0.985 . S
H852 N849 0.984 . S
H853 N849 0.985 . S
H854 N848 0.984 . S
H855 N848 0.984 . S
H856 N844 0.984 . S
H857 N844 0.985 . S
C858 C859 1.363 . S
C858 C864 1.379 1_545 S
C858 N866 1.356 . S
C859 C858 1.363 . S
C859 C865 1.363 . S
C860 C861 1.363 . S
C860 C865 1.379 1_565 S
C860 N867 1.356 . S
C861 C860 1.363 . S
C861 C864 1.363 . S
N862 C864 1.356 . S
N862 H874 0.984 1_455 S
N862 H875 0.985 . S
N863 C865 1.356 . S
N863 H868 0.984 . S
N863 H869 0.985 . S
C864 C858 1.379 1_565 S
C864 C861 1.363 . S
C864 N862 1.356 . S
C865 C859 1.363 . S
C865 C860 1.379 1_545 S
C865 N863 1.356 . S
N866 C858 1.356 . S
N866 H872 0.984 . S
N866 H873 0.984 . S
N867 C860 1.356 . S
N867 H870 0.984 . S
N867 H871 0.985 . S
H868 N863 0.984 . S
H869 N863 0.985 . S
H870 N867 0.984 . S
H871 N867 0.985 . S
H872 N866 0.984 . S
H873 N866 0.984 . S
H874 N862 0.984 1_655 S
H875 N862 0.985 . S
C876 C877 1.363 . S
C876 C882 1.379 . S
C876 N884 1.356 . S
C877 C876 1.363 . S
C877 C883 1.363 . S
C878 C879 1.363 . S
C878 C883 1.379 . S
C878 N885 1.356 . S
C879 C878 1.363 . S
C879 C882 1.363 . S
N880 C882 1.356 . S
N880 H892 0.984 . S
N880 H893 0.985 . S
N881 C883 1.356 1_554 S
N881 H886 0.981 1_554 S
N881 H887 0.985 . S
C882 C876 1.379 . S
C882 C879 1.363 . S
C882 N880 1.356 . S
C883 C877 1.363 . S
C883 C878 1.379 . S
C883 N881 1.356 1_556 S
N884 C876 1.356 . S
N884 H890 0.984 . S
N884 H891 0.984 . S
N885 C878 1.356 . S
N885 H888 0.984 . S
N885 H889 0.985 1_556 S
H886 N881 0.981 1_556 S
H887 N881 0.985 . S
H888 N885 0.984 . S
H889 N885 0.985 1_554 S
H890 N884 0.984 . S
H891 N884 0.984 . S
H892 N880 0.984 . S
H893 N880 0.985 . S
C894 C895 1.363 . S
C894 C900 1.379 1_545 S
C894 N902 1.356 . S
C895 C894 1.363 . S
C895 C901 1.363 . S
C896 C897 1.363 1_545 S
C896 C901 1.379 . S
C896 N903 1.356 1_545 S
C897 C896 1.363 1_565 S
C897 C900 1.363 . S
N898 C900 1.356 . S
N898 H910 0.984 . S
N898 H911 0.985 . S
N899 C901 1.356 . S
N899 H904 0.984 . S
N899 H905 0.985 . S
C900 C894 1.379 1_565 S
C900 C897 1.363 . S
C900 N898 1.356 . S
C901 C895 1.363 . S
C901 C896 1.379 . S
C901 N899 1.356 . S
N902 C894 1.356 . S
N902 H908 0.984 . S
N902 H909 0.984 . S
N903 C896 1.356 1_565 S
N903 H906 0.984 . S
N903 H907 0.993 . S
H904 N899 0.984 . S
H905 N899 0.985 . S
H906 N903 0.984 . S
H907 N903 0.993 . S
H908 N902 0.984 . S
H909 N902 0.984 . S
H910 N898 0.984 . S
H911 N898 0.985 . S
C912 C913 1.363 . S
C912 C918 1.379 . S
C912 N920 1.356 . S
C913 C912 1.363 . S
C913 C919 1.363 . S
C914 C915 1.363 . S
C914 C919 1.379 . S
C914 N921 1.356 . S
C915 C914 1.363 . S
C915 C918 1.363 . S
N916 C918 1.356 . S
N916 H928 0.984 . S
N916 H929 0.985 . S
N917 C919 1.356 . S
N917 H922 0.984 . S
N917 H923 0.985 . S
C918 C912 1.379 . S
C918 C915 1.363 . S
C918 N916 1.356 . S
C919 C913 1.363 . S
C919 C914 1.379 . S
C919 N917 1.356 . S
N920 C912 1.356 . S
N920 H926 0.984 . S
N920 H927 0.984 . S
N921 C914 1.356 . S
N921 H924 0.984 . S
N921 H925 0.985 . S
H922 N917 0.984 . S
H923 N917 0.985 . S
H924 N921 0.984 . S
H925 N921 0.985 . S
H926 N920 0.984 . S
H927 N920 0.984 . S
H928 N916 0.984 . S
H929 N916 0.985 . S
C930 C931 1.363 . S
C930 C936 1.379 . S
C930 N938 1.356 . S
C931 C930 1.363 . S
C931 C937 1.363 . S
C932 C933 1.363 . S
C932 C937 1.379 . S
C932 N939 1.356 . S
C933 C932 1.363 . S
C933 C936 1.363 . S
N934 C936 1.356 . S
N934 H946 0.984 . S
N934 H947 0.985 . S
N935 C937 1.356 . S
N935 H940 0.984 . S
N935 H941 0.985 . S
C936 C930 1.379 . S
C936 C933 1.363 . S
C936 N934 1.356 . S
C937 C931 1.363 . S
C937 C932 1.379 . S
C937 N935 1.356 . S
N938 C930 1.356 . S
N938 H944 0.984 . S
N938 H945 0.984 . S
N939 C932 1.356 . S
N939 H942 0.984 . S
N939 H943 0.985 . S
H940 N935 0.984 . S
H941 N935 0.985 . S
H942 N939 0.984 . S
H943 N939 0.985 . S
H944 N938 0.984 . S
H945 N938 0.984 . S
H946 N934 0.984 . S
H947 N934 0.985 . S
C948 C949 1.363 . S
C948 C954 1.379 . S
C948 N956 1.356 . S
C949 C948 1.363 . S
C949 C955 1.363 . S
C950 C951 1.363 . S
C950 C955 1.379 . S
C950 N957 1.356 . S
C951 C950 1.363 . S
C951 C954 1.363 . S
N952 C954 1.356 . S
N952 H964 0.984 . S
N952 H965 0.985 . S
N953 C955 1.356 . S
N953 H958 0.984 . S
N953 H959 0.985 . S
C954 C948 1.379 . S
C954 C951 1.363 . S
C954 N952 1.356 . S
C955 C949 1.363 . S
C955 C950 1.379 . S
C955 N953 1.356 . S
N956 C948 1.356 . S
N956 H962 0.984 . S
N956 H963 0.984 . S
N957 C950 1.356 . S
N957 H960 0.984 . S
N957 H961 0.985 . S
H958 N953 0.984 . S
H959 N953 0.985 . S
H960 N957 0.984 . S
H961 N957 0.985 . S
H962 N956 0.984 . S
H963 N956 0.984 . S
H964 N952 0.984 . S
H965 N952 0.985 . S
C966 C967 1.363 . S
C966 C972 1.379 . S
C966 N974 1.356 . S
C967 C966 1.363 . S
C967 C973 1.363 . S
C968 C969 1.363 . S
C968 C973 1.379 . S
C968 N975 1.356 . S
C969 C968 1.363 . S
C969 C972 1.363 . S
N970 C972 1.356 . S
N970 H982 0.984 . S
N970 H983 0.985 . S
N971 C973 1.356 . S
N971 H976 0.984 . S
N971 H977 0.985 . S
C972 C966 1.379 . S
C972 C969 1.363 . S
C972 N970 1.356 . S
C973 C967 1.363 . S
C973 C968 1.379 . S
C973 N971 1.356 . S
N974 C966 1.356 . S
N974 H980 0.984 . S
N974 H981 0.984 . S
N975 C968 1.356 . S
N975 H978 0.984 . S
N975 H979 0.985 . S
H976 N971 0.984 . S
H977 N971 0.985 . S
H978 N975 0.984 . S
H979 N975 0.985 . S
H980 N974 0.984 . S
H981 N974 0.984 . S
H982 N970 0.984 . S
H983 N970 0.985 . S
C984 C985 1.363 . S
C984 C990 1.379 . S
C984 N992 1.356 . S
C985 C984 1.363 . S
C985 C991 1.363 . S
C986 C987 1.363 . S
C986 C991 1.379 . S
C986 N993 1.356 . S
C987 C986 1.363 . S
C987 C990 1.363 . S
N988 C990 1.356 . S
N988 H1000 0.984 . S
N988 H1001 0.985 . S
N989 C991 1.356 . S
N989 H994 0.984 . S
N989 H995 0.985 . S
C990 C984 1.379 . S
C990 C987 1.363 . S
C990 N988 1.356 . S
C991 C985 1.363 . S
C991 C986 1.379 . S
C991 N989 1.356 . S
N992 C984 1.356 . S
N992 H998 0.984 . S
N992 H999 0.984 . S
N993 C986 1.356 . S
N993 H996 0.984 . S
N993 H997 0.985 . S
H994 N989 0.984 . S
H995 N989 0.985 . S
H996 N993 0.984 . S
H997 N993 0.985 . S
H998 N992 0.984 . S
H999 N992 0.984 . S
H1000 N988 0.984 . S
H1001 N988 0.985 . S
C1002 C1003 1.363 . S
C1002 C1008 1.379 . S
C1002 N1010 1.356 . S
C1003 C1002 1.363 . S
C1003 C1009 1.363 . S
C1004 C1005 1.363 . S
C1004 C1009 1.379 . S
C1004 N1011 1.356 . S
C1005 C1004 1.363 . S
C1005 C1008 1.363 . S
N1006 C1008 1.356 . S
N1006 H1018 0.984 . S
N1006 H1019 0.985 . S
N1007 C1009 1.356 . S
N1007 H1012 0.984 . S
N1007 H1013 0.985 . S
C1008 C1002 1.379 . S
C1008 C1005 1.363 . S
C1008 N1006 1.356 . S
C1009 C1003 1.363 . S
C1009 C1004 1.379 . S
C1009 N1007 1.356 . S
N1010 C1002 1.356 . S
N1010 H1016 0.984 . S
N1010 H1017 0.984 . S
N1011 C1004 1.356 . S
N1011 H1014 0.984 . S
N1011 H1015 0.985 . S
H1012 N1007 0.984 . S
H1013 N1007 0.985 . S
H1014 N1011 0.984 . S
H1015 N1011 0.985 . S
H1016 N1010 0.984 . S
H1017 N1010 0.984 . S
H1018 N1006 0.984 . S
H1019 N1006 0.985 . S
C1020 C1021 1.363 . S
C1020 C1026 1.379 1_455 S
C1020 N1028 1.356 1_554 S
C1021 C1020 1.363 . S
C1021 C1027 1.363 1_455 S
C1022 C1023 1.363 . S
C1022 C1027 1.379 . S
C1022 N1029 1.356 . S
C1023 C1022 1.363 . S
C1023 C1026 1.363 . S
N1024 C1026 1.356 1_556 S
N1024 H1036 0.984 . S
N1024 H1037 0.985 . S
N1025 C1027 1.356 1_455 S
N1025 H1030 0.984 . S
N1025 H1031 0.985 . S
C1026 C1020 1.379 1_655 S
C1026 C1023 1.363 . S
C1026 N1024 1.356 1_554 S
C1027 C1021 1.363 1_655 S
C1027 C1022 1.379 . S
C1027 N1025 1.356 1_655 S
N1028 C1020 1.356 1_556 S
N1028 H1034 0.984 . S
N1028 H1035 0.984 1_556 S
N1029 C1022 1.356 . S
N1029 H1032 0.984 . S
N1029 H1033 0.985 . S
H1030 N1025 0.984 . S
H1031 N1025 0.985 . S
H1032 N1029 0.984 . S
H1033 N1029 0.985 . S
H1034 N1028 0.984 . S
H1035 N1028 0.984 1_554 S
H1036 N1024 0.984 . S
H1037 N1024 0.985 . S
C1038 C1039 1.363 . S
C1038 C1044 1.379 . S
C1038 N1046 1.356 . S
C1039 C1038 1.363 . S
C1039 C1045 1.363 . S
C1040 C1041 1.363 . S
C1040 C1045 1.379 . S
C1040 N1047 1.356 . S
C1041 C1040 1.363 . S
C1041 C1044 1.363 . S
N1042 C1044 1.356 . S
N1042 H1054 0.984 . S
N1042 H1055 0.985 . S
N1043 C1045 1.356 . S
N1043 H1048 0.984 . S
N1043 H1049 0.985 . S
C1044 C1038 1.379 . S
C1044 C1041 1.363 . S
C1044 N1042 1.356 . S
C1045 C1039 1.363 . S
C1045 C1040 1.379 . S
C1045 N1043 1.356 . S
N1046 C1038 1.356 . S
N1046 H1052 0.984 . S
N1046 H1053 0.984 . S
N1047 C1040 1.356 . S
N1047 H1050 0.984 . S
N1047 H1051 0.985 . S
H1048 N1043 0.984 . S
H1049 N1043 0.985 . S
H1050 N1047 0.984 . S
H1051 N1047 0.985 . S
H1052 N1046 0.984 . S
H1053 N1046 0.984 . S
H1054 N1042 0.984 . S
H1055 N1042 0.985 . S
C1056 C1057 1.363 . S
C1056 C1062 1.379 . S
C1056 N1064 1.356 . S
C1057 C1056 1.363 . S
C1057 C1063 1.363 . S
C1058 C1059 1.363 . S
C1058 C1063 1.379 . S
C1058 N1065 1.356 . S
C1059 C1058 1.363 . S
C1059 C1062 1.363 . S
N1060 C1062 1.356 . S
N1060 H1072 0.984 . S
N1060 H1073 0.985 . S
N1061 C1063 1.356 . S
N1061 H1066 0.984 . S
N1061 H1067 0.985 . S
C1062 C1056 1.379 . S
C1062 C1059 1.363 . S
C1062 N1060 1.356 . S
C1063 C1057 1.363 . S
C1063 C1058 1.379 . S
C1063 N1061 1.356 . S
N1064 C1056 1.356 . S
N1064 H1070 0.984 . S
N1064 H1071 0.984 . S
N1065 C1058 1.356 . S
N1065 H1068 0.984 . S
N1065 H1069 0.985 . S
H1066 N1061 0.984 . S
H1067 N1061 0.985 . S
H1068 N1065 0.984 . S
H1069 N1065 0.985 . S
H1070 N1064 0.984 . S
H1071 N1064 0.984 . S
H1072 N1060 0.984 . S
H1073 N1060 0.985 . S
C1074 C1075 1.363 . S
C1074 C1080 1.379 . S
C1074 N1082 1.356 . S
C1075 C1074 1.363 . S
C1075 C1081 1.363 . S
C1076 C1077 1.363 . S
C1076 C1081 1.379 . S
C1076 N1083 1.356 . S
C1077 C1076 1.363 . S
C1077 C1080 1.363 . S
N1078 C1080 1.356 . S
N1078 H1090 0.984 . S
N1078 H1091 0.985 . S
N1079 C1081 1.356 . S
N1079 H1084 0.984 . S
N1079 H1085 0.985 . S
C1080 C1074 1.379 . S
C1080 C1077 1.363 . S
C1080 N1078 1.356 . S
C1081 C1075 1.363 . S
C1081 C1076 1.379 . S
C1081 N1079 1.356 . S
N1082 C1074 1.356 . S
N1082 H1088 0.984 . S
N1082 H1089 0.984 . S
N1083 C1076 1.356 . S
N1083 H1086 0.984 . S
N1083 H1087 0.985 . S
H1084 N1079 0.984 . S
H1085 N1079 0.985 . S
H1086 N1083 0.984 . S
H1087 N1083 0.985 . S
H1088 N1082 0.984 . S
H1089 N1082 0.984 . S
H1090 N1078 0.984 . S
H1091 N1078 0.985 . S
C1092 C1093 1.363 . S
C1092 C1098 1.379 . S
C1092 N1100 1.356 . S
C1093 C1092 1.363 . S
C1093 C1099 1.363 . S
C1094 C1095 1.363 . S
C1094 C1099 1.379 . S
C1094 N1101 1.356 . S
C1095 C1094 1.363 . S
C1095 C1098 1.363 . S
N1096 C1098 1.356 . S
N1096 H1108 0.984 . S
N1096 H1109 0.985 . S
N1097 C1099 1.356 1_554 S
N1097 H1102 0.984 . S
N1097 H1103 0.985 . S
C1098 C1092 1.379 . S
C1098 C1095 1.363 . S
C1098 N1096 1.356 . S
C1099 C1093 1.363 . S
C1099 C1094 1.379 . S
C1099 N1097 1.356 1_556 S
N1100 C1092 1.356 . S
N1100 H1106 0.984 . S
N1100 H1107 0.984 . S
N1101 C1094 1.356 . S
N1101 H1104 0.984 . S
N1101 H1105 0.962 1_556 S
H1102 N1097 0.984 . S
H1103 N1097 0.985 . S
H1104 N1101 0.984 . S
H1105 N1101 0.962 1_554 S
H1106 N1100 0.984 . S
H1107 N1100 0.984 . S
H1108 N1096 0.984 . S
H1109 N1096 0.985 . S
C1110 C1111 1.363 . S
C1110 C1116 1.379 1_655 S
C1110 N1118 1.356 . S
C1111 C1110 1.363 . S
C1111 C1117 1.363 . S
C1112 C1113 1.363 1_655 S
C1112 C1117 1.379 . S
C1112 N1119 1.356 1_655 S
C1113 C1112 1.363 1_455 S
C1113 C1116 1.363 . S
N1114 C1116 1.356 . S
N1114 H1126 0.984 . S
N1114 H1127 0.985 . S
N1115 C1117 1.356 . S
N1115 H1120 0.984 . S
N1115 H1121 0.985 . S
C1116 C1110 1.379 1_455 S
C1116 C1113 1.363 . S
C1116 N1114 1.356 . S
C1117 C1111 1.363 . S
C1117 C1112 1.379 . S
C1117 N1115 1.356 . S
N1118 C1110 1.356 . S
N1118 H1124 0.984 . S
N1118 H1125 0.984 . S
N1119 C1112 1.356 1_455 S
N1119 H1122 0.984 . S
N1119 H1123 0.985 . S
H1120 N1115 0.984 . S
H1121 N1115 0.985 . S
H1122 N1119 0.984 . S
H1123 N1119 0.985 . S
H1124 N1118 0.984 . S
H1125 N1118 0.984 . S
H1126 N1114 0.984 . S
H1127 N1114 0.985 . S
C481 C3 1.658 . S
C483 C443 1.640 . S
C499 C375 1.869 . S
C501 C55 1.887 . S
C517 C83 1.744 . S
C519 C335 1.809 . S
C535 C135 1.859 . S
C537 C415 1.838 . S
C553 C163 1.968 . S
C555 C403 1.959 . S
C571 C203 1.572 . S
C573 C455 1.641 . S
C589 C363 2.111 . S
C591 C255 2.143 . S
C607 C283 1.610 . S
C609 C323 1.609 . S
C625 C123 1.568 . S
C627 C175 1.608 . S
C643 C15 1.668 . S
C645 C215 1.691 . S
C661 C43 1.861 . S
C663 C243 1.851 . S
C679 C295 2.000 . S
C681 C95 2.004 . S
C697 C26 1.946 . S
C699 C322 1.908 . S
C715 C49 1.072 . S
C717 C402 1.042 . S
C733 C462 2.465 . S
C735 C106 2.368 . S
C751 C129 1.508 . S
C753 C362 1.407 . S
C769 C186 1.740 . S
C771 C382 1.798 . S
C787 C342 2.263 1_556 S
C789 C226 2.148 . S
C805 C422 1.510 . S
C807 C249 1.512 . S
C823 C442 1.449 . S
C825 C306 1.463 . S
C841 C2 2.192 . S
C843 C146 2.174 . S
C859 C9 2.003 . S
C861 C62 1.957 . S
C877 C66 1.869 . S
C879 C82 1.864 . S
C895 C142 2.004 . S
C897 C89 2.063 . S
C913 C209 1.162 . S
C915 C162 1.086 . S
C931 C202 1.696 . S
C933 C266 1.703 . S
C949 C262 1.116 . S
C951 C289 1.119 . S
C967 C169 1.592 . S
C969 C282 1.480 . S
C985 C346 2.213 . S
C987 C122 2.227 . S
C1003 C222 2.178 . S
C1005 C369 2.233 . S
C1021 C329 1.489 . S
C1023 C242 1.408 . S
C1039 C409 1.595 . S
C1041 C302 1.560 . S
C1057 C182 2.205 . S
C1059 C466 2.099 . S
C1075 C449 1.371 . S
C1077 C42 1.270 . S
C1093 C102 2.091 . S
C1095 C386 2.022 . S
C1111 C426 1.822 . S
C1113 C22 1.873 . S
