# Generated by pormake.
# Topology uml, (4)-cn, num edge types: 1
# Building blocks:
#     Node 0, Type 0, BuildingBlock: QUQFOY_clean_sbu_1, # of connection points: 4
#     Node 1, Type 0, BuildingBlock: QUQFOY_clean_sbu_1, # of connection points: 4
#     Node 2, Type 0, BuildingBlock: QUQFOY_clean_sbu_1, # of connection points: 4
#     Node 3, Type 0, BuildingBlock: QUQFOY_clean_sbu_1, # of connection points: 4
#     Node 4, Type 0, BuildingBlock: QUQFOY_clean_sbu_1, # of connection points: 4
#     Node 5, Type 0, BuildingBlock: QUQFOY_clean_sbu_1, # of connection points: 4
#     Node 6, Type 0, BuildingBlock: QUQFOY_clean_sbu_1, # of connection points: 4
#     Node 7, Type 0, BuildingBlock: QUQFOY_clean_sbu_1, # of connection points: 4
#     Node 8, Type 0, BuildingBlock: QUQFOY_clean_sbu_1, # of connection points: 4
#     Node 9, Type 0, BuildingBlock: QUQFOY_clean_sbu_1, # of connection points: 4
#     Node 10, Type 0, BuildingBlock: QUQFOY_clean_sbu_1, # of connection points: 4
#     Node 11, Type 0, BuildingBlock: QUQFOY_clean_sbu_1, # of connection points: 4
#     Node 12, Type 0, BuildingBlock: QUQFOY_clean_sbu_1, # of connection points: 4
#     Node 13, Type 0, BuildingBlock: QUQFOY_clean_sbu_1, # of connection points: 4
#     Node 14, Type 0, BuildingBlock: QUQFOY_clean_sbu_1, # of connection points: 4
#     Node 15, Type 0, BuildingBlock: QUQFOY_clean_sbu_1, # of connection points: 4
#     Node 16, Type 0, BuildingBlock: QUQFOY_clean_sbu_1, # of connection points: 4
#     Node 17, Type 0, BuildingBlock: QUQFOY_clean_sbu_1, # of connection points: 4
#     Node 18, Type 0, BuildingBlock: QUQFOY_clean_sbu_1, # of connection points: 4
#     Node 19, Type 0, BuildingBlock: QUQFOY_clean_sbu_1, # of connection points: 4
#     Node 20, Type 0, BuildingBlock: QUQFOY_clean_sbu_1, # of connection points: 4
#     Node 21, Type 0, BuildingBlock: QUQFOY_clean_sbu_1, # of connection points: 4
#     Node 22, Type 0, BuildingBlock: QUQFOY_clean_sbu_1, # of connection points: 4
#     Node 23, Type 0, BuildingBlock: QUQFOY_clean_sbu_1, # of connection points: 4
#     Node 24, Type 0, BuildingBlock: QUQFOY_clean_sbu_1, # of connection points: 4
#     Node 25, Type 0, BuildingBlock: QUQFOY_clean_sbu_1, # of connection points: 4
#     Node 26, Type 0, BuildingBlock: QUQFOY_clean_sbu_1, # of connection points: 4
#     Node 27, Type 0, BuildingBlock: QUQFOY_clean_sbu_1, # of connection points: 4
#     Node 28, Type 0, BuildingBlock: QUQFOY_clean_sbu_1, # of connection points: 4
#     Node 29, Type 0, BuildingBlock: QUQFOY_clean_sbu_1, # of connection points: 4
#     Node 30, Type 0, BuildingBlock: QUQFOY_clean_sbu_1, # of connection points: 4
#     Node 31, Type 0, BuildingBlock: QUQFOY_clean_sbu_1, # of connection points: 4
#     Node 32, Type 0, BuildingBlock: QUQFOY_clean_sbu_1, # of connection points: 4
#     Node 33, Type 0, BuildingBlock: QUQFOY_clean_sbu_1, # of connection points: 4
#     Node 34, Type 0, BuildingBlock: QUQFOY_clean_sbu_1, # of connection points: 4
#     Node 35, Type 0, BuildingBlock: QUQFOY_clean_sbu_1, # of connection points: 4
#     Edge 36, Type (0, 0), BuildingBlock: AJUNOK_clean_linker_0, # of connection points: 2
#     Edge 37, Type (0, 0), BuildingBlock: AJUNOK_clean_linker_0, # of connection points: 2
#     Edge 38, Type (0, 0), BuildingBlock: AJUNOK_clean_linker_0, # of connection points: 2
#     Edge 39, Type (0, 0), BuildingBlock: AJUNOK_clean_linker_0, # of connection points: 2
#     Edge 40, Type (0, 0), BuildingBlock: AJUNOK_clean_linker_0, # of connection points: 2
#     Edge 41, Type (0, 0), BuildingBlock: AJUNOK_clean_linker_0, # of connection points: 2
#     Edge 42, Type (0, 0), BuildingBlock: AJUNOK_clean_linker_0, # of connection points: 2
#     Edge 43, Type (0, 0), BuildingBlock: AJUNOK_clean_linker_0, # of connection points: 2
#     Edge 44, Type (0, 0), BuildingBlock: AJUNOK_clean_linker_0, # of connection points: 2
#     Edge 45, Type (0, 0), BuildingBlock: AJUNOK_clean_linker_0, # of connection points: 2
#     Edge 46, Type (0, 0), BuildingBlock: AJUNOK_clean_linker_0, # of connection points: 2
#     Edge 47, Type (0, 0), BuildingBlock: AJUNOK_clean_linker_0, # of connection points: 2
#     Edge 48, Type (0, 0), BuildingBlock: AJUNOK_clean_linker_0, # of connection points: 2
#     Edge 49, Type (0, 0), BuildingBlock: AJUNOK_clean_linker_0, # of connection points: 2
#     Edge 50, Type (0, 0), BuildingBlock: AJUNOK_clean_linker_0, # of connection points: 2
#     Edge 51, Type (0, 0), BuildingBlock: AJUNOK_clean_linker_0, # of connection points: 2
#     Edge 52, Type (0, 0), BuildingBlock: AJUNOK_clean_linker_0, # of connection points: 2
#     Edge 53, Type (0, 0), BuildingBlock: AJUNOK_clean_linker_0, # of connection points: 2
#     Edge 54, Type (0, 0), BuildingBlock: AJUNOK_clean_linker_0, # of connection points: 2
#     Edge 55, Type (0, 0), BuildingBlock: AJUNOK_clean_linker_0, # of connection points: 2
#     Edge 56, Type (0, 0), BuildingBlock: AJUNOK_clean_linker_0, # of connection points: 2
#     Edge 57, Type (0, 0), BuildingBlock: AJUNOK_clean_linker_0, # of connection points: 2
#     Edge 58, Type (0, 0), BuildingBlock: AJUNOK_clean_linker_0, # of connection points: 2
#     Edge 59, Type (0, 0), BuildingBlock: AJUNOK_clean_linker_0, # of connection points: 2
#     Edge 60, Type (0, 0), BuildingBlock: AJUNOK_clean_linker_0, # of connection points: 2
#     Edge 61, Type (0, 0), BuildingBlock: AJUNOK_clean_linker_0, # of connection points: 2
#     Edge 62, Type (0, 0), BuildingBlock: AJUNOK_clean_linker_0, # of connection points: 2
#     Edge 63, Type (0, 0), BuildingBlock: AJUNOK_clean_linker_0, # of connection points: 2
#     Edge 64, Type (0, 0), BuildingBlock: AJUNOK_clean_linker_0, # of connection points: 2
#     Edge 65, Type (0, 0), BuildingBlock: AJUNOK_clean_linker_0, # of connection points: 2
#     Edge 66, Type (0, 0), BuildingBlock: AJUNOK_clean_linker_0, # of connection points: 2
#     Edge 67, Type (0, 0), BuildingBlock: AJUNOK_clean_linker_0, # of connection points: 2
#     Edge 68, Type (0, 0), BuildingBlock: AJUNOK_clean_linker_0, # of connection points: 2
#     Edge 69, Type (0, 0), BuildingBlock: AJUNOK_clean_linker_0, # of connection points: 2
#     Edge 70, Type (0, 0), BuildingBlock: AJUNOK_clean_linker_0, # of connection points: 2
#     Edge 71, Type (0, 0), BuildingBlock: AJUNOK_clean_linker_0, # of connection points: 2
#     Edge 72, Type (0, 0), BuildingBlock: AJUNOK_clean_linker_0, # of connection points: 2
#     Edge 73, Type (0, 0), BuildingBlock: AJUNOK_clean_linker_0, # of connection points: 2
#     Edge 74, Type (0, 0), BuildingBlock: AJUNOK_clean_linker_0, # of connection points: 2
#     Edge 75, Type (0, 0), BuildingBlock: AJUNOK_clean_linker_0, # of connection points: 2
#     Edge 76, Type (0, 0), BuildingBlock: AJUNOK_clean_linker_0, # of connection points: 2
#     Edge 77, Type (0, 0), BuildingBlock: AJUNOK_clean_linker_0, # of connection points: 2
#     Edge 78, Type (0, 0), BuildingBlock: AJUNOK_clean_linker_0, # of connection points: 2
#     Edge 79, Type (0, 0), BuildingBlock: AJUNOK_clean_linker_0, # of connection points: 2
#     Edge 80, Type (0, 0), BuildingBlock: AJUNOK_clean_linker_0, # of connection points: 2
#     Edge 81, Type (0, 0), BuildingBlock: AJUNOK_clean_linker_0, # of connection points: 2
#     Edge 82, Type (0, 0), BuildingBlock: AJUNOK_clean_linker_0, # of connection points: 2
#     Edge 83, Type (0, 0), BuildingBlock: AJUNOK_clean_linker_0, # of connection points: 2
#     Edge 84, Type (0, 0), BuildingBlock: AJUNOK_clean_linker_0, # of connection points: 2
#     Edge 85, Type (0, 0), BuildingBlock: AJUNOK_clean_linker_0, # of connection points: 2
#     Edge 86, Type (0, 0), BuildingBlock: AJUNOK_clean_linker_0, # of connection points: 2
#     Edge 87, Type (0, 0), BuildingBlock: AJUNOK_clean_linker_0, # of connection points: 2
#     Edge 88, Type (0, 0), BuildingBlock: AJUNOK_clean_linker_0, # of connection points: 2
#     Edge 89, Type (0, 0), BuildingBlock: AJUNOK_clean_linker_0, # of connection points: 2
#     Edge 90, Type (0, 0), BuildingBlock: AJUNOK_clean_linker_0, # of connection points: 2
#     Edge 91, Type (0, 0), BuildingBlock: AJUNOK_clean_linker_0, # of connection points: 2
#     Edge 92, Type (0, 0), BuildingBlock: AJUNOK_clean_linker_0, # of connection points: 2
#     Edge 93, Type (0, 0), BuildingBlock: AJUNOK_clean_linker_0, # of connection points: 2
#     Edge 94, Type (0, 0), BuildingBlock: AJUNOK_clean_linker_0, # of connection points: 2
#     Edge 95, Type (0, 0), BuildingBlock: AJUNOK_clean_linker_0, # of connection points: 2
#     Edge 96, Type (0, 0), BuildingBlock: AJUNOK_clean_linker_0, # of connection points: 2
#     Edge 97, Type (0, 0), BuildingBlock: AJUNOK_clean_linker_0, # of connection points: 2
#     Edge 98, Type (0, 0), BuildingBlock: AJUNOK_clean_linker_0, # of connection points: 2
#     Edge 99, Type (0, 0), BuildingBlock: AJUNOK_clean_linker_0, # of connection points: 2
#     Edge 100, Type (0, 0), BuildingBlock: AJUNOK_clean_linker_0, # of connection points: 2
#     Edge 101, Type (0, 0), BuildingBlock: AJUNOK_clean_linker_0, # of connection points: 2
#     Edge 102, Type (0, 0), BuildingBlock: AJUNOK_clean_linker_0, # of connection points: 2
#     Edge 103, Type (0, 0), BuildingBlock: AJUNOK_clean_linker_0, # of connection points: 2
#     Edge 104, Type (0, 0), BuildingBlock: AJUNOK_clean_linker_0, # of connection points: 2
#     Edge 105, Type (0, 0), BuildingBlock: AJUNOK_clean_linker_0, # of connection points: 2
#     Edge 106, Type (0, 0), BuildingBlock: AJUNOK_clean_linker_0, # of connection points: 2
#     Edge 107, Type (0, 0), BuildingBlock: AJUNOK_clean_linker_0, # of connection points: 2
# Relax obj value: 0.060
# Max RMSD: 0.199
# Mean RMSD: 0.181
data_MOF--net-uml--node1-QUQFOY_clean_sbu_1--edge1-AJUNOK_clean_linker_0
_symmetry_space_group_name_H-M    P1
_symmetry_Int_Tables_number       1
_symmetry_cell_setting            triclinic
loop_
_symmetry_equiv_pos_as_xyz
'x, y, z'
_cell_length_a     74.330227
_cell_length_b     74.293811
_cell_length_c     21.234102
_cell_angle_alpha  89.998548
_cell_angle_beta   90.096049
_cell_angle_gamma 119.9752
loop_
_atom_site_label
_atom_site_type_symbol
_atom_site_fract_x
_atom_site_fract_y
_atom_site_fract_z
_atom_type_partial_charge
O0 O 0.36036 0.13449 0.18912 0.0
Cd1 Cd 0.36638 0.11031 0.19748 0.0
Cd2 Cd 0.40103 0.13813 0.14112 0.0
O3 O 0.39255 0.15974 0.17491 0.0
O4 O 0.34772 0.09213 0.26674 0.0
O5 O 0.38185 0.11042 0.27561 0.0
C6 C 0.36406 0.09847 0.30156 0.0
C7 C 0.4273 0.12976 0.14589 0.0
C8 C 0.37335 0.1538 0.18471 0.0
C9 C 0.37147 0.10327 0.0639 0.0
O10 O 0.38445 0.12259 0.06439 0.0
O11 O 0.36322 0.09367 0.11495 0.0
O12 O 0.4304 0.14632 0.11631 0.0
O13 O 0.41112 0.12058 0.18188 0.0
O14 O 0.90612 0.23387 0.18466 0.0
Cd15 Cd 0.93114 0.26364 0.19276 0.0
Cd16 Cd 0.90453 0.27263 0.13877 0.0
O17 O 0.88217 0.2428 0.17222 0.0
O18 O 0.949 0.26257 0.26222 0.0
O19 O 0.93169 0.27946 0.27041 0.0
C20 C 0.94318 0.27307 0.2967 0.0
C21 C 0.9128 0.30738 0.14307 0.0
C22 C 0.88706 0.22868 0.18075 0.0
C23 C 0.93811 0.27592 0.05923 0.0
O24 O 0.91912 0.27089 0.06082 0.0
O25 O 0.94771 0.27667 0.10988 0.0
O26 O 0.89611 0.29373 0.11447 0.0
O27 O 0.92256 0.30063 0.17765 0.0
O28 O 0.80676 0.68205 0.19894 0.0
Cd29 Cd 0.77698 0.67736 0.207 0.0
Cd30 Cd 0.76899 0.64197 0.14588 0.0
O31 O 0.79967 0.65031 0.17426 0.0
O32 O 0.77907 0.69673 0.27601 0.0
O33 O 0.76094 0.66262 0.28532 0.0
C34 C 0.7681 0.68072 0.311 0.0
C35 C 0.73634 0.61155 0.13855 0.0
C36 C 0.81295 0.66913 0.18906 0.0
C37 C 0.7646 0.67432 0.07453 0.0
O38 O 0.7687 0.65971 0.07397 0.0
O39 O 0.76481 0.68321 0.12602 0.0
O40 O 0.75184 0.61399 0.10467 0.0
O41 O 0.7403 0.62465 0.184 0.0
O42 O 0.14038 0.35119 0.35009 0.0
Cd43 Cd 0.1163 0.35734 0.34121 0.0
Cd44 Cd 0.14408 0.39199 0.39701 0.0
O45 O 0.16564 0.38346 0.36289 0.0
O46 O 0.09791 0.33802 0.27342 0.0
O47 O 0.11605 0.37207 0.26168 0.0
C48 C 0.10409 0.35398 0.23714 0.0
C49 C 0.13652 0.41891 0.39405 0.0
C50 C 0.15969 0.36421 0.35387 0.0
C51 C 0.10945 0.36267 0.47452 0.0
O52 O 0.12879 0.37552 0.47393 0.0
O53 O 0.09974 0.35443 0.42351 0.0
O54 O 0.15308 0.42151 0.42258 0.0
O55 O 0.12664 0.40267 0.35842 0.0
O56 O 0.69184 0.79942 0.35403 0.0
Cd57 Cd 0.6857 0.76917 0.34626 0.0
Cd58 Cd 0.65089 0.7622 0.40046 0.0
O59 O 0.65949 0.79226 0.36578 0.0
O60 O 0.70427 0.76936 0.27717 0.0
O61 O 0.67015 0.75382 0.26831 0.0
C62 C 0.68791 0.75947 0.24238 0.0
C63 C 0.62411 0.72765 0.39494 0.0
C64 C 0.67872 0.80562 0.35699 0.0
C65 C 0.68015 0.75717 0.48003 0.0
O66 O 0.66703 0.76333 0.4785 0.0
O67 O 0.68848 0.75567 0.42932 0.0
O68 O 0.62118 0.74138 0.42345 0.0
O69 O 0.64071 0.73428 0.36104 0.0
O70 O 0.24263 0.90015 0.33733 0.0
Cd71 Cd 0.27239 0.92517 0.32784 0.0
Cd72 Cd 0.28059 0.89806 0.39055 0.0
O73 O 0.24971 0.87564 0.364 0.0
O74 O 0.2701 0.94216 0.25828 0.0
O75 O 0.28829 0.92623 0.24939 0.0
C76 C 0.28107 0.93708 0.22345 0.0
C77 C 0.31336 0.90045 0.39471 0.0
C78 C 0.2364 0.88113 0.34882 0.0
C79 C 0.28554 0.93541 0.45952 0.0
O80 O 0.28151 0.91673 0.46128 0.0
O81 O 0.28476 0.94365 0.40777 0.0
O82 O 0.29837 0.88776 0.43083 0.0
O83 O 0.30877 0.90918 0.34954 0.0
O84 O 0.68962 0.8982 0.85463 0.0
Cd85 Cd 0.68443 0.92298 0.84612 0.0
Cd86 Cd 0.64895 0.89592 0.89957 0.0
O87 O 0.65683 0.87388 0.86556 0.0
O88 O 0.70323 0.941 0.77679 0.0
O89 O 0.66908 0.92308 0.76803 0.0
C90 C 0.68691 0.93484 0.74201 0.0
C91 C 0.62294 0.90476 0.89475 0.0
C92 C 0.67593 0.87905 0.8577 0.0
C93 C 0.67867 0.92978 0.97947 0.0
O94 O 0.6652 0.91061 0.97769 0.0
O95 O 0.68735 0.9395 0.92892 0.0
O96 O 0.61954 0.88797 0.92348 0.0
O97 O 0.63933 0.91403 0.85965 0.0
O98 O 0.14482 0.79835 0.8559 0.0
Cd99 Cd 0.11994 0.76836 0.84788 0.0
Cd100 Cd 0.14757 0.76012 0.90057 0.0
O101 O 0.16946 0.79037 0.86888 0.0
O102 O 0.10176 0.76977 0.78017 0.0
O103 O 0.11908 0.75303 0.76838 0.0
C104 C 0.10747 0.7596 0.74388 0.0
C105 C 0.14344 0.72667 0.89795 0.0
C106 C 0.16403 0.80407 0.85971 0.0
C107 C 0.11292 0.7552 0.98067 0.0
O108 O 0.13191 0.76036 0.9782 0.0
O109 O 0.10327 0.75482 0.93053 0.0
O110 O 0.15787 0.74124 0.93167 0.0
O111 O 0.13363 0.73196 0.85834 0.0
O112 O 0.2422 0.35281 0.85028 0.0
Cd113 Cd 0.27195 0.35752 0.84144 0.0
Cd114 Cd 0.28098 0.39315 0.89638 0.0
O115 O 0.25098 0.38563 0.86359 0.0
O116 O 0.2703 0.33798 0.7733 0.0
O117 O 0.28728 0.37208 0.76226 0.0
C118 C 0.28061 0.35394 0.73741 0.0
C119 C 0.3159 0.41905 0.89168 0.0
C120 C 0.23691 0.36661 0.85473 0.0
C121 C 0.28482 0.36287 0.97458 0.0
O122 O 0.27957 0.37668 0.97367 0.0
O123 O 0.28525 0.35393 0.92383 0.0
O124 O 0.30264 0.42242 0.92131 0.0
O125 O 0.30859 0.4028 0.85567 0.0
O126 O 0.90505 0.67833 0.68117 0.0
Cd127 Cd 0.92997 0.67329 0.68987 0.0
Cd128 Cd 0.90212 0.6371 0.63567 0.0
O129 O 0.88033 0.64589 0.66526 0.0
O130 O 0.9479 0.6928 0.75813 0.0
O131 O 0.9307 0.65873 0.7694 0.0
C132 C 0.94218 0.67688 0.79423 0.0
C133 C 0.90472 0.60686 0.63664 0.0
C134 C 0.88584 0.66498 0.67559 0.0
C135 C 0.93776 0.66711 0.55774 0.0
O136 O 0.91883 0.65313 0.55954 0.0
O137 O 0.94705 0.67678 0.60783 0.0
O138 O 0.89122 0.60818 0.60141 0.0
O139 O 0.91437 0.62128 0.67836 0.0
O140 O 0.35975 0.2347 0.68315 0.0
Cd141 Cd 0.36597 0.26497 0.69132 0.0
Cd142 Cd 0.40081 0.27172 0.63741 0.0
O143 O 0.39209 0.24168 0.67256 0.0
O144 O 0.34733 0.26477 0.76034 0.0
O145 O 0.38141 0.28005 0.76971 0.0
C146 C 0.36365 0.27446 0.79544 0.0
C147 C 0.42689 0.30651 0.64276 0.0
C148 C 0.3728 0.22839 0.68082 0.0
C149 C 0.37188 0.27708 0.55763 0.0
O150 O 0.38462 0.27045 0.55939 0.0
O151 O 0.36367 0.27885 0.60826 0.0
O152 O 0.43034 0.29311 0.61421 0.0
O153 O 0.41042 0.2994 0.67749 0.0
O154 O 0.8065 0.13324 0.67921 0.0
Cd155 Cd 0.77623 0.1093 0.68762 0.0
Cd156 Cd 0.76935 0.1374 0.63382 0.0
O157 O 0.79959 0.15866 0.66858 0.0
O158 O 0.77639 0.09082 0.75676 0.0
O159 O 0.76131 0.10981 0.76601 0.0
C160 C 0.7668 0.09754 0.79178 0.0
C161 C 0.73445 0.12842 0.64007 0.0
C162 C 0.81286 0.1526 0.6767 0.0
C163 C 0.76384 0.10309 0.55401 0.0
O164 O 0.77044 0.12246 0.55569 0.0
O165 O 0.7622 0.09314 0.60464 0.0
O166 O 0.74766 0.14532 0.61147 0.0
O167 O 0.74182 0.11914 0.6743 0.0
O168 O 0.02622 0.46811 0.52145 0.0
Cd169 Cd 0.03174 0.44353 0.52758 0.0
Cd170 Cd 0.06721 0.47099 0.47727 0.0
O171 O 0.0591 0.49252 0.51468 0.0
O172 O 1.01257 0.42467 0.59459 0.0
O173 O 0.04663 0.44291 0.60607 0.0
C174 C 0.02862 0.43075 0.63051 0.0
C175 C 0.09341 0.4623 0.48118 0.0
C176 C 0.03994 0.48728 0.5215 0.0
C177 C 0.03826 0.43823 0.39383 0.0
O178 O 0.05149 0.45744 0.39731 0.0
O179 O 0.02953 0.42794 0.44353 0.0
O180 O 0.09691 0.47953 0.45516 0.0
O181 O 0.07655 0.45214 0.51384 0.0
O182 O 0.57372 0.56697 0.50945 0.0
Cd183 Cd 0.59849 0.59691 0.51746 0.0
Cd184 Cd 0.57124 0.60551 0.4674 0.0
O185 O 0.54954 0.57579 0.50321 0.0
O186 O 0.61709 0.59592 0.58472 0.0
O187 O 0.599 0.61186 0.59721 0.0
C188 C 0.61098 0.60569 0.62136 0.0
C189 C 0.58007 0.64037 0.47428 0.0
C190 C 0.55459 0.56171 0.50924 0.0
C191 C 0.60408 0.60978 0.38392 0.0
O192 O 0.58487 0.60382 0.38707 0.0
O193 O 0.6142 0.61091 0.43381 0.0
O194 O 0.5629 0.62697 0.44717 0.0
O195 O 0.59007 0.6333 0.50624 0.0
O196 O 0.47293 1.01325 0.52486 0.0
Cd197 Cd 0.44341 1.00921 0.53452 0.0
Cd198 Cd 0.43377 0.97316 0.47635 0.0
O199 O 0.4643 0.98081 0.50392 0.0
O200 O 0.44554 0.02797 0.60568 0.0
O201 O 0.42731 0.99376 0.6118 0.0
C202 C 0.43453 1.01159 0.63932 0.0
C203 C 0.40068 0.94321 0.47059 0.0
C204 C 0.47828 0.99963 0.51601 0.0
C205 C 0.43028 1.00556 0.40268 0.0
O206 O 0.43387 0.99061 0.40303 0.0
O207 O 0.43097 1.0149 0.45373 0.0
O208 O 0.41596 0.94499 0.4369 0.0
O209 O 0.40506 0.95669 0.51514 0.0
O210 O 0.80778 0.6839 0.69423 0.0
Cd211 Cd 0.78426 0.69093 0.68769 0.0
Cd212 Cd 0.81324 0.72578 0.73922 0.0
O213 O 0.83358 0.71617 0.70087 0.0
O214 O 0.76508 0.67257 0.61919 0.0
O215 O 0.78503 0.70655 0.60948 0.0
C216 C 0.77222 0.6889 0.584 0.0
C217 C 0.80459 0.75195 0.73443 0.0
C218 C 0.82719 0.69674 0.69351 0.0
C219 C 0.77957 0.69843 0.8216 0.0
O220 O 0.79909 0.71028 0.81882 0.0
O221 O 0.76911 0.69009 0.77166 0.0
O222 O 0.82184 0.75562 0.76077 0.0
O223 O 0.79464 0.73513 0.70134 0.0
O224 O 0.35653 0.1329 0.6857 0.0
Cd225 Cd 0.35161 0.10304 0.67791 0.0
Cd226 Cd 0.3159 0.09428 0.73053 0.0
O227 O 0.32369 0.12421 0.69682 0.0
O228 O 0.37121 0.10437 0.61067 0.0
O229 O 0.33716 0.08759 0.59865 0.0
C230 C 0.35532 0.09409 0.57439 0.0
C231 C 0.28933 0.0596 0.72399 0.0
C232 C 0.34274 0.13823 0.68875 0.0
C233 C 0.34581 0.09055 0.81142 0.0
O234 O 0.33188 0.09563 0.80928 0.0
O235 O 0.35479 0.08986 0.76111 0.0
O236 O 0.28624 0.07316 0.75298 0.0
O237 O 0.30601 0.06648 0.69032 0.0
O238 O 0.90855 0.23156 0.68138 0.0
Cd239 Cd 0.93847 0.25632 0.67335 0.0
Cd240 Cd 0.94707 0.22939 0.72727 0.0
O241 O 0.91712 0.20731 0.69299 0.0
O242 O 0.93734 0.27459 0.60559 0.0
O243 O 0.95383 0.257 0.59438 0.0
C244 C 0.9475 0.26877 0.56969 0.0
C245 C 0.98183 0.2377 0.72382 0.0
C246 C 0.90314 0.21241 0.68466 0.0
C247 C 0.9511 0.26317 0.80677 0.0
O248 O 0.94548 0.24402 0.80534 0.0
O249 O 0.95187 0.2728 0.75625 0.0
O250 O 0.96811 0.2209 0.75169 0.0
O251 O 0.97514 0.24752 0.6892 0.0
O252 O 0.35663 0.23273 0.1817 0.0
Cd253 Cd 0.35173 0.25769 0.17245 0.0
Cd254 Cd 0.3164 0.23097 0.22895 0.0
O255 O 0.324 0.20859 0.19709 0.0
O256 O 0.37117 0.27551 0.10427 0.0
O257 O 0.33708 0.25847 0.09324 0.0
C258 C 0.35519 0.26994 0.06842 0.0
C259 C 0.28977 0.23882 0.22491 0.0
C260 C 0.34297 0.21364 0.18742 0.0
C261 C 0.34681 0.26576 0.30538 0.0
O262 O 0.33307 0.24667 0.30537 0.0
O263 O 0.35558 0.27489 0.25425 0.0
O264 O 0.28713 0.22255 0.25519 0.0
O265 O 0.30572 0.24802 0.18798 0.0
O266 O 0.80745 0.13233 0.17831 0.0
Cd267 Cd 0.78317 0.10217 0.16906 0.0
Cd268 Cd 0.81069 0.09512 0.22718 0.0
O269 O 0.83256 0.12527 0.19463 0.0
O270 O 0.76507 0.10336 0.10081 0.0
O271 O 0.7828 0.08703 0.08966 0.0
C272 C 0.77102 0.09333 0.06484 0.0
C273 C 0.80295 0.06064 0.22344 0.0
C274 C 0.82672 0.13859 0.18406 0.0
C275 C 0.77537 0.08972 0.3022 0.0
O276 O 0.79465 0.09593 0.30278 0.0
O277 O 0.76606 0.08861 0.25064 0.0
O278 O 0.81915 0.07431 0.25403 0.0
O279 O 0.79385 0.0674 0.18595 0.0
O280 O 0.90848 0.68553 0.18168 0.0
Cd281 Cd 0.93785 0.68911 0.1724 0.0
Cd282 Cd 0.94785 0.72564 0.23205 0.0
O283 O 0.91713 0.71777 0.20639 0.0
O284 O 0.9353 0.66993 0.10176 0.0
O285 O 0.95406 0.70407 0.09462 0.0
C286 C 0.94654 0.68612 0.06765 0.0
C287 C 0.98063 0.75608 0.2352 0.0
C288 C 0.90317 0.69909 0.19251 0.0
C289 C 0.95158 0.69297 0.30455 0.0
O290 O 0.94857 0.7083 0.30445 0.0
O291 O 0.95015 0.68328 0.25355 0.0
O292 O 0.96575 0.7538 0.27169 0.0
O293 O 0.97599 0.74265 0.19036 0.0
O294 O 0.57491 1.0152 0.0241 0.0
Cd295 Cd 0.59903 1.00908 0.03232 0.0
Cd296 Cd 0.57119 0.97452 0.97577 0.0
O297 O 0.54961 0.983 1.01015 0.0
O298 O 0.61746 0.02831 0.10019 0.0
O299 O 0.59937 0.99426 0.11152 0.0
C300 C 0.61135 1.01231 0.13621 0.0
C301 C 0.57948 0.94817 0.97982 0.0
C302 C 0.55559 1.00222 0.02001 0.0
C303 C 0.60601 1.00405 0.89881 0.0
O304 O 0.58668 0.99114 0.89914 0.0
O305 O 0.61565 1.01223 0.94996 0.0
O306 O 0.56289 0.94513 0.95047 0.0
O307 O 0.58876 0.96434 1.01602 0.0
O308 O 0.02796 0.56927 0.02355 0.0
Cd309 Cd 0.03309 0.59919 0.03377 0.0
Cd310 Cd 0.0685 0.60669 0.9738 0.0
O311 O 0.05971 0.57593 1.00155 0.0
O312 O 1.0131 0.59671 0.10155 0.0
O313 O 0.04706 0.6142 0.11456 0.0
C314 C 0.02875 0.60701 0.13856 0.0
C315 C 0.09905 0.63914 0.96911 0.0
C316 C 0.0407 0.56281 1.01441 0.0
C317 C 0.03731 0.61231 0.90108 0.0
O318 O 0.05136 0.60742 0.90074 0.0
O319 O 0.02855 0.61242 0.95256 0.0
O320 O 0.09675 0.62375 0.93479 0.0
O321 O 0.08567 0.63512 1.01361 0.0
O322 O 0.47456 0.46635 0.02146 0.0
Cd323 Cd 0.44425 0.44232 0.0294 0.0
Cd324 Cd 0.43743 0.47017 0.97339 0.0
O325 O 0.46763 0.49165 1.0076 0.0
O326 O 0.44479 0.42375 0.0972 0.0
O327 O 0.42912 0.44213 0.10838 0.0
C328 C 0.43496 0.42997 0.13307 0.0
C329 C 0.40282 0.46213 0.97698 0.0
C330 C 0.4809 0.48568 1.01741 0.0
C331 C 0.43191 0.43538 0.89587 0.0
O332 O 0.43841 0.45474 0.89636 0.0
O333 O 0.43056 0.42575 0.9469 0.0
O334 O 0.41651 0.47875 0.94825 0.0
O335 O 0.40953 0.4526 1.0128 0.0
O336 O 0.69371 0.80003 0.85668 0.0
Cd337 Cd 0.69987 0.77595 0.86559 0.0
Cd338 Cd 0.73468 0.80391 0.81019 0.0
O339 O 0.72587 0.82542 0.84319 0.0
O340 O 0.68049 0.75747 0.933 0.0
O341 O 0.71449 0.77563 0.94534 0.0
C342 C 0.69641 0.7636 0.9695 0.0
C343 C 0.76096 0.7955 0.81703 0.0
C344 C 0.7066 0.81937 0.85236 0.0
C345 C 0.70542 0.76899 0.73233 0.0
O346 O 0.71843 0.7883 0.73305 0.0
O347 O 0.69699 0.75937 0.7832 0.0
O348 O 0.76416 0.81198 0.78672 0.0
O349 O 0.74465 0.78647 0.85257 0.0
O350 O 0.24243 0.90084 0.83926 0.0
Cd351 Cd 0.2658 0.9314 0.8463 0.0
Cd352 Cd 0.23692 0.93738 0.79634 0.0
O353 O 0.21671 0.90746 0.83508 0.0
O354 O 0.285 0.93241 0.91512 0.0
O355 O 0.26459 0.94593 0.92463 0.0
C356 C 0.27753 0.94132 0.95028 0.0
C357 C 0.24551 0.97221 0.80257 0.0
C358 C 0.22305 0.89434 0.84112 0.0
C359 C 0.27012 0.94358 0.71241 0.0
O360 O 0.2506 0.93594 0.71584 0.0
O361 O 0.28073 0.94595 0.76221 0.0
O362 O 0.2281 0.95861 0.77706 0.0
O363 O 0.25588 0.96537 0.83354 0.0
O364 O 0.14038 0.34957 0.85224 0.0
Cd365 Cd 0.11008 0.34325 0.86021 0.0
Cd366 Cd 0.1032 0.3085 0.80533 0.0
O367 O 0.13339 0.31728 0.8399 0.0
O368 O 0.11025 0.36181 0.92941 0.0
O369 O 0.09481 0.32768 0.93809 0.0
C370 C 0.10041 0.34544 0.9641 0.0
C371 C 0.06862 0.28161 0.80914 0.0
C372 C 0.1467 0.33654 0.84886 0.0
C373 C 0.09799 0.33771 0.7265 0.0
O374 O 0.10436 0.32476 0.7277 0.0
O375 O 0.0964 0.34593 0.77737 0.0
O376 O 0.08249 0.27882 0.78104 0.0
O377 O 0.07509 0.29808 0.84373 0.0
O378 O 0.47658 0.01887 0.02556 0.0
Cd379 Cd 0.45176 0.02401 1.0168 0.0
Cd380 Cd 0.47908 0.0598 0.06943 0.0
O381 O 0.50093 0.05171 0.03563 0.0
O382 O 0.43335 1.0044 0.9493 0.0
O383 O 0.45119 0.03842 0.93692 0.0
C384 C 0.43931 0.02027 0.91273 0.0
C385 C 0.47041 0.08585 0.06282 0.0
C386 C 0.49574 0.03258 0.02813 0.0
C387 C 0.44524 0.03096 0.14999 0.0
O388 O 0.46448 0.04412 0.14828 0.0
O389 O 0.43552 0.02189 0.09967 0.0
O390 O 0.48724 0.08937 0.09169 0.0
O391 O 0.46103 0.06925 0.02839 0.0
O392 O 1.02392 0.46714 1.01379 0.0
Cd393 Cd 1.01889 0.43724 1.00667 0.0
Cd394 Cd 0.98346 0.42865 0.06152 0.0
O395 O 0.9912 0.45856 0.0278 0.0
O396 O 0.03742 0.4378 0.93709 0.0
O397 O 1.0032 0.4211 0.92994 0.0
C398 C 1.02094 0.42721 0.90326 0.0
C399 C 0.95657 0.39411 0.05858 0.0
C400 C 1.01019 0.47252 1.01822 0.0
C401 C 1.01379 0.42493 0.14008 0.0
O402 O 0.99994 0.43012 0.13893 0.0
O403 O 1.02272 0.42439 0.0895 0.0
O404 O 0.95398 0.40805 0.08709 0.0
O405 O 0.97283 0.40047 0.02327 0.0
O406 O 0.57656 0.56446 1.00977 0.0
Cd407 Cd 0.60601 0.58998 0.99957 0.0
Cd408 Cd 0.61583 0.56383 0.05967 0.0
O409 O 0.58516 0.54081 0.03378 0.0
O410 O 0.60377 0.60643 0.92806 0.0
O411 O 0.62224 0.59069 0.92253 0.0
C412 C 0.61496 0.6012 0.89475 0.0
C413 C 0.64905 0.56722 0.06241 0.0
C414 C 0.5712 0.54558 0.0205 0.0
C415 C 0.6196 0.60025 0.13096 0.0
O416 O 0.61623 0.58178 0.13175 0.0
O417 O 0.61831 0.60844 0.07971 0.0
O418 O 0.63428 0.55406 0.0983 0.0
O419 O 0.64403 0.57589 1.01812 0.0
O420 O 1.02182 0.56612 0.52648 0.0
Cd421 Cd 1.01592 0.59041 0.51682 0.0
Cd422 Cd 0.98049 0.56212 0.57326 0.0
O423 O 0.98996 0.54067 0.54474 0.0
O424 O 0.03479 0.60805 0.44705 0.0
O425 O 1.00066 0.59035 0.43794 0.0
C426 C 1.01856 0.60186 0.41187 0.0
C427 C 0.9499 0.5641 0.57209 0.0
C428 C 1.00914 0.54681 0.53365 0.0
C429 C 1.01051 0.59868 0.6491 0.0
O430 O 0.99669 0.57965 0.64837 0.0
O431 O 1.01974 0.60779 0.5984 0.0
O432 O 0.95143 0.55063 0.60681 0.0
O433 O 0.96428 0.57391 0.5305 0.0
O434 O 0.4749 0.46543 0.51796 0.0
Cd435 Cd 0.45075 0.43521 0.50999 0.0
Cd436 Cd 0.47876 0.42834 0.56452 0.0
O437 O 0.50017 0.45834 0.52934 0.0
O438 O 0.43238 0.43553 0.44079 0.0
O439 O 0.45088 0.41989 0.43198 0.0
C440 C 0.43881 0.42562 0.40601 0.0
C441 C 0.47022 0.39358 0.55959 0.0
C442 C 0.49423 0.47167 0.5207 0.0
C443 C 0.4444 0.42327 0.64359 0.0
O444 O 0.46372 0.42964 0.6421 0.0
O445 O 0.43448 0.42161 0.59286 0.0
O446 O 0.48697 0.40703 0.5885 0.0
O447 O 0.46087 0.40063 0.52438 0.0
O448 O 0.57481 1.01669 0.51995 0.0
Cd449 Cd 0.60509 0.02289 0.5127 0.0
Cd450 Cd 0.61203 0.05793 0.56675 0.0
O451 O 0.58184 0.04903 0.53168 0.0
O452 O 0.60506 1.00426 0.44383 0.0
O453 O 0.62041 0.03837 0.43485 0.0
C454 C 0.61492 0.0206 0.40907 0.0
C455 C 0.64686 0.08409 0.56077 0.0
C456 C 0.56854 0.02976 0.52269 0.0
C457 C 0.61726 0.02885 0.64654 0.0
O458 O 0.61093 0.04184 0.64482 0.0
O459 O 0.61878 0.02045 0.59595 0.0
O460 O 0.63353 0.08757 0.58954 0.0
O461 O 0.63965 0.06751 0.52636 0.0
O462 O 0.23891 0.34793 0.35185 0.0
Cd463 Cd 0.2638 0.34291 0.3603 0.0
Cd464 Cd 0.23689 0.30749 0.30603 0.0
O465 O 0.21474 0.31509 0.34014 0.0
O466 O 0.28179 0.36174 0.42982 0.0
O467 O 0.26405 0.32756 0.43815 0.0
C468 C 0.27576 0.3454 0.46436 0.0
C469 C 0.24587 0.28162 0.31058 0.0
C470 C 0.21979 0.33415 0.34841 0.0
C471 C 0.27069 0.33735 0.22683 0.0
O472 O 0.25154 0.32385 0.22821 0.0
O473 O 0.28036 0.34597 0.27761 0.0
O474 O 0.22906 0.27814 0.2817 0.0
O475 O 0.25507 0.29798 0.34598 0.0
O476 O 0.69447 0.90093 0.35604 0.0
Cd477 Cd 0.69911 0.93068 0.36499 0.0
Cd478 Cd 0.73453 0.93956 0.30932 0.0
O479 O 0.72726 0.90976 0.34237 0.0
O480 O 0.67958 0.92896 0.43302 0.0
O481 O 0.71366 0.94612 0.44426 0.0
C482 C 0.69552 0.93937 0.469 0.0
C483 C 0.7608 0.97425 0.31203 0.0
C484 C 0.7083 0.89568 0.35142 0.0
C485 C 0.7041 0.94337 0.23187 0.0
O486 O 0.71779 0.93797 0.2324 0.0
O487 O 0.69536 0.94394 0.28284 0.0
O488 O 0.76373 0.9606 0.28295 0.0
O489 O 0.74475 0.96751 0.34852 0.0
O490 O 0.14103 0.80169 0.35673 0.0
Cd491 Cd 0.1117 0.77594 0.36591 0.0
Cd492 Cd 0.10141 0.80228 0.30687 0.0
O493 O 0.13213 0.82516 0.33318 0.0
O494 O 0.11415 0.7593 0.43659 0.0
O495 O 0.09544 0.77475 0.44345 0.0
C496 C 0.10292 0.7643 0.47056 0.0
C497 C 0.06844 0.7996 0.30421 0.0
C498 C 0.14621 0.82055 0.34654 0.0
C499 C 0.09782 0.76607 0.2339 0.0
O500 O 0.10074 0.78438 0.23389 0.0
O501 O 0.09954 0.75791 0.28472 0.0
O502 O 0.08344 0.81279 0.26911 0.0
O503 O 0.07313 0.79051 0.34804 0.0
C504 C 0.34039 0.08374 0.46542 0.0
C505 C 0.35785 0.09197 0.50546 0.0
C506 C 0.34251 0.0848 0.39955 0.0
C507 C 0.36219 0.09417 0.37067 0.0
H508 H 0.32492 0.07724 0.48492 0.0
H509 H 0.32857 0.07907 0.37122 0.0
S510 S 0.41278 0.11539 0.45383 0.0
N511 N 0.39546 0.1078 0.51094 0.0
N512 N 0.39941 0.10981 0.38754 0.0
C513 C 0.37971 0.1012 0.41004 0.0
C514 C 0.37756 0.1001 0.47721 0.0
C515 C 0.95751 0.26371 0.46089 0.0
C516 C 0.94968 0.27336 0.5007 0.0
C517 C 0.95647 0.26476 0.39499 0.0
C518 C 0.94753 0.27548 0.36584 0.0
H519 H 0.96367 0.25444 0.4806 0.0
H520 H 0.96186 0.25624 0.36685 0.0
S521 S 0.92753 0.30601 0.44836 0.0
N522 N 0.93474 0.29595 0.50569 0.0
N523 N 0.93277 0.29787 0.38224 0.0
C524 C 0.94093 0.28638 0.40499 0.0
C525 C 0.94201 0.28533 0.47219 0.0
C526 C 0.75838 0.66748 0.48551 0.0
C527 C 0.76788 0.68712 0.5149 0.0
C528 C 0.75742 0.66549 0.41954 0.0
C529 C 0.76589 0.68306 0.38001 0.0
H530 H 0.75252 0.65348 0.51353 0.0
H531 H 0.75084 0.65005 0.39957 0.0
S532 S 0.78965 0.73795 0.43312 0.0
N533 N 0.78385 0.72442 0.49903 0.0
N534 N 0.78202 0.72073 0.37557 0.0
C535 C 0.77413 0.70273 0.4088 0.0
C536 C 0.77513 0.70475 0.47599 0.0
C537 C 0.10818 0.36695 0.06236 0.0
C538 C 0.09786 0.34728 0.03315 0.0
C539 C 0.10908 0.36902 0.12826 0.0
C540 C 0.09966 0.35153 0.16802 0.0
H541 H 0.1165 0.3809 0.03429 0.0
H542 H 0.11804 0.38447 0.14806 0.0
S543 S 0.06813 0.29663 0.11538 0.0
N544 N 0.07613 0.31005 0.04934 0.0
N545 N 0.07775 0.3139 0.17279 0.0
C546 C 0.08809 0.33184 0.1394 0.0
C547 C 0.08722 0.32973 0.0722 0.0
C548 C 0.70938 0.76728 0.14425 0.0
C549 C 0.68973 0.75698 0.17329 0.0
C550 C 0.71144 0.7683 0.07837 0.0
C551 C 0.69394 0.75903 0.03847 0.0
H552 H 0.72334 0.7755 0.17247 0.0
H553 H 0.72689 0.77724 0.05874 0.0
S554 S 0.63906 0.72757 0.09054 0.0
N555 N 0.65249 0.7354 0.15672 0.0
N556 N 0.65633 0.73725 0.0333 0.0
C557 C 0.67426 0.74746 0.06688 0.0
C558 C 0.67217 0.74646 0.13406 0.0
C559 C 0.29204 0.93267 0.11515 0.0
C560 C 0.28333 0.9416 0.15443 0.0
C561 C 0.29124 0.93376 0.04915 0.0
C562 C 0.28167 0.94379 0.01949 0.0
H563 H 0.29871 0.92393 0.13534 0.0
H564 H 0.2973 0.92577 0.0213 0.0
S565 S 0.2592 0.97233 0.1006 0.0
N566 N 0.26684 0.96282 0.15837 0.0
N567 N 0.26531 0.96479 0.03488 0.0
C568 C 0.27414 0.95397 0.05818 0.0
C569 C 0.27498 0.9529 0.12539 0.0
C570 C 0.70845 0.94839 0.64389 0.0
C571 C 0.68879 0.93916 0.67288 0.0
C572 C 0.71054 0.94948 0.578 0.0
C573 C 0.69307 0.94142 0.53804 0.0
H574 H 0.72239 0.95399 0.67215 0.0
H575 H 0.72598 0.95588 0.55839 0.0
S576 S 0.6382 0.9184 0.58996 0.0
N577 N 0.65159 0.92382 0.65618 0.0
N578 N 0.65548 0.92589 0.53278 0.0
C579 C 0.67339 0.93342 0.56641 0.0
C580 C 0.67127 0.93229 0.63359 0.0
C581 C 0.11142 0.75105 0.56867 0.0
C582 C 0.10073 0.76008 0.53984 0.0
C583 C 0.1125 0.74987 0.63454 0.0
C584 C 0.10294 0.75767 0.67476 0.0
H585 H 0.11983 0.74559 0.54027 0.0
H586 H 0.1217 0.74359 0.65393 0.0
S587 S 0.07063 0.78033 0.62348 0.0
N588 N 0.07862 0.77511 0.55707 0.0
N589 N 0.0806 0.77289 0.68044 0.0
C590 C 0.09108 0.76555 0.64658 0.0
C591 C 0.08998 0.76675 0.57939 0.0
C592 C 0.28938 0.36694 0.56267 0.0
C593 C 0.28017 0.34727 0.53345 0.0
C594 C 0.29056 0.369 0.62858 0.0
C595 C 0.2826 0.35151 0.66833 0.0
H596 H 0.2949 0.38088 0.53459 0.0
H597 H 0.29693 0.38444 0.64837 0.0
S598 S 0.25973 0.29666 0.61574 0.0
N599 N 0.26501 0.31007 0.54968 0.0
N600 N 0.26723 0.31393 0.67314 0.0
C601 C 0.27464 0.33184 0.63972 0.0
C602 C 0.27343 0.32974 0.57252 0.0
C603 C 0.93673 0.66207 0.90364 0.0
C604 C 0.9466 0.67941 0.86343 0.0
C605 C 0.93776 0.66433 0.96952 0.0
C606 C 0.94872 0.68404 0.99838 0.0
H607 H 0.92732 0.64663 0.88421 0.0
H608 H 0.92911 0.6505 0.99789 0.0
S609 S 0.97971 0.73426 0.91483 0.0
N610 N 0.96952 0.71687 0.85783 0.0
N611 N 0.97142 0.72108 0.98121 0.0
C612 C 0.95976 0.7014 0.95886 0.0
C613 C 0.95871 0.6991 0.89166 0.0
C614 C 0.34008 0.2652 0.95957 0.0
C615 C 0.35759 0.27454 0.99944 0.0
C616 C 0.34213 0.26632 0.89366 0.0
C617 C 0.36178 0.27681 0.8646 0.0
H618 H 0.32465 0.25611 0.97924 0.0
H619 H 0.32819 0.25803 0.86543 0.0
S620 S 0.41241 0.30651 0.94733 0.0
N621 N 0.39517 0.29661 1.00458 0.0
N622 N 0.39898 0.29866 0.88116 0.0
C623 C 0.37932 0.28739 0.90384 0.0
C624 C 0.37724 0.28628 0.97102 0.0
C625 C 0.77482 0.08404 0.89016 0.0
C626 C 0.7644 0.09329 0.8609 0.0
C627 C 0.77587 0.08305 0.95608 0.0
C628 C 0.76651 0.09121 0.99578 0.0
H629 H 0.78311 0.07837 0.86207 0.0
H630 H 0.7849 0.07664 0.97592 0.0
S631 S 0.73476 0.11433 0.94305 0.0
N632 N 0.74264 0.10876 0.87704 0.0
N633 N 0.74455 0.10686 1.00049 0.0
C634 C 0.75485 0.09922 0.96713 0.0
C635 C 0.75382 0.10027 0.89994 0.0
C636 C 0.04214 0.43476 0.80471 0.0
C637 C 1.02257 0.42441 0.83427 0.0
C638 C 0.044 0.43561 0.73881 0.0
C639 C 0.02639 0.42612 0.69941 0.0
H640 H 0.05617 0.44319 0.8325 0.0
H641 H 0.05938 0.44465 0.71875 0.0
S642 S 0.97172 0.39429 0.753 0.0
N643 N 0.98533 0.40242 0.8188 0.0
N644 N 0.98881 0.40396 0.69527 0.0
C645 C 1.00682 0.41443 0.72835 0.0
C646 C 1.00492 0.41359 0.79558 0.0
C647 C 0.60607 0.61574 0.73025 0.0
C648 C 0.61545 0.60763 0.69049 0.0
C649 C 0.607 0.61461 0.79613 0.0
C650 C 0.61735 0.60531 0.82546 0.0
H651 H 0.59713 0.62226 0.71048 0.0
H652 H 0.59875 0.62034 0.82413 0.0
S653 S 0.64687 0.58414 0.74323 0.0
N654 N 0.63725 0.59179 0.68578 0.0
N655 N 0.63897 0.58967 0.80928 0.0
C656 C 0.62793 0.59832 0.78642 0.0
C657 C 0.62699 0.59947 0.71915 0.0
C658 C 0.444 0.03516 0.80376 0.0
C659 C 0.4347 0.0177 0.84367 0.0
C660 C 0.44285 0.03306 0.73788 0.0
C661 C 0.43235 1.01338 0.7087 0.0
H662 H 0.45305 0.05063 0.82339 0.0
H663 H 0.45106 0.04701 0.70973 0.0
S664 S 0.40294 0.96278 0.79145 0.0
N665 N 0.4128 0.98009 0.84874 0.0
N666 N 0.41068 0.97616 0.72526 0.0
C667 C 0.42185 0.99585 0.74794 0.0
C668 C 0.42302 0.998 0.81519 0.0
C669 C 0.60719 0.99913 0.31077 0.0
C670 C 0.61757 0.01877 0.34011 0.0
C671 C 0.60631 0.99712 0.24486 0.0
C672 C 0.61582 1.01466 0.20527 0.0
H673 H 0.59877 0.98517 0.33874 0.0
H674 H 0.59728 0.9817 0.22493 0.0
S675 S 0.64763 0.06947 0.25835 0.0
N676 N 0.63952 0.056 0.32426 0.0
N677 N 0.63794 0.05226 0.20079 0.0
C678 C 0.62749 0.0343 0.23404 0.0
C679 C 0.62834 0.03635 0.30123 0.0
C680 C 0.04054 0.61568 0.31446 0.0
C681 C 1.0207 0.60598 0.3425 0.0
C682 C 0.04302 0.61693 0.24864 0.0
C683 C 0.02578 0.60855 0.20768 0.0
H684 H 0.05435 0.62165 0.34346 0.0
H685 H 0.05861 0.62379 0.22988 0.0
S686 S 0.97047 0.58381 0.25672 0.0
N687 N 0.98351 0.58954 0.32367 0.0
N688 N 0.98812 0.5919 0.20049 0.0
C689 C 1.00588 0.59991 0.23506 0.0
C690 C 1.00336 0.59862 0.30218 0.0
C691 C 0.42471 0.43498 0.24158 0.0
C692 C 0.43263 0.42536 0.20202 0.0
C693 C 0.42561 0.4339 0.3075 0.0
C694 C 0.43452 0.42319 0.33689 0.0
H695 H 0.41859 0.44426 0.22166 0.0
H696 H 0.42017 0.44241 0.33549 0.0
S697 S 0.45471 0.39272 0.25507 0.0
N698 N 0.44759 0.40278 0.19752 0.0
N699 N 0.44934 0.40083 0.32101 0.0
C700 C 0.44121 0.41232 0.29798 0.0
C701 C 0.44025 0.41338 0.23077 0.0
C702 C 0.37088 0.20406 0.17137 0.0
C703 C 0.34998 0.19781 0.18583 0.0
C704 C 0.37841 0.19 0.17217 0.0
C705 C 0.36544 0.16892 0.18752 0.0
H706 H 0.38169 0.22007 0.15924 0.0
H707 H 0.39452 0.19572 0.16003 0.0
S708 S 0.30951 0.14445 0.23093 0.0
N709 N 0.31655 0.16895 0.21707 0.0
N710 N 0.33046 0.1426 0.21888 0.0
C711 C 0.34449 0.16245 0.2025 0.0
C712 C 0.33684 0.17681 0.20151 0.0
C713 C 0.863 0.16957 0.1967 0.0
C714 C 0.84191 0.16161 0.18161 0.0
C715 C 0.87718 0.19112 0.19732 0.0
C716 C 0.87106 0.20591 0.18299 0.0
H717 H 0.86865 0.15908 0.2086 0.0
H718 H 0.8932 0.1962 0.20912 0.0
S719 S 0.81772 0.19346 0.13895 0.0
N720 N 0.81571 0.17058 0.15093 0.0
N721 N 0.8423 0.21077 0.15241 0.0
C722 C 0.85004 0.1982 0.16777 0.0
C723 C 0.83556 0.17623 0.16693 0.0
C724 C 0.86575 0.67202 0.16977 0.0
C725 C 0.88034 0.69222 0.19111 0.0
C726 C 0.84416 0.66453 0.17021 0.0
C727 C 0.83596 0.67684 0.19209 0.0
H728 H 0.87101 0.66173 0.15233 0.0
H729 H 0.83385 0.64901 0.1526 0.0
S730 S 0.8672 0.73067 0.2554 0.0
N731 N 0.88471 0.72419 0.23611 0.0
N732 N 0.84449 0.71038 0.23735 0.0
C733 C 0.85038 0.69706 0.21408 0.0
C734 C 0.87238 0.70467 0.21343 0.0
C735 C 0.19611 0.3696 0.36271 0.0
C736 C 0.17482 0.35631 0.35088 0.0
C737 C 0.21027 0.36219 0.36273 0.0
C738 C 0.20391 0.34107 0.351 0.0
H739 H 0.20196 0.3859 0.37248 0.0
H740 H 0.22645 0.37326 0.37198 0.0
S741 S 0.14991 0.29963 0.3163 0.0
N742 N 0.14813 0.32071 0.32629 0.0
N743 N 0.17466 0.30704 0.3266 0.0
C744 C 0.18267 0.32759 0.33905 0.0
C745 C 0.16822 0.33512 0.33886 0.0
C746 C 0.67323 0.83656 0.36687 0.0
C747 C 0.68647 0.82861 0.35354 0.0
C748 C 0.68055 0.85811 0.36695 0.0
C749 C 0.70152 0.8729 0.35371 0.0
H750 H 0.65705 0.82608 0.37797 0.0
H751 H 0.66952 0.86318 0.37752 0.0
S752 S 0.7427 0.86045 0.31407 0.0
N753 N 0.7218 0.83757 0.32546 0.0
N754 N 0.73532 0.87776 0.32585 0.0
C755 C 0.71493 0.86519 0.34004 0.0
C756 C 0.70749 0.84323 0.33983 0.0
C757 C 0.20536 0.84502 0.36514 0.0
C758 C 0.21335 0.86585 0.34683 0.0
C759 C 0.1838 0.8308 0.36567 0.0
C760 C 0.16901 0.83661 0.34801 0.0
H761 H 0.21582 0.83959 0.37956 0.0
H762 H 0.17873 0.81499 0.38007 0.0
S763 S 0.18151 0.88924 0.29543 0.0
N764 N 0.20436 0.89149 0.30995 0.0
N765 N 0.16421 0.86485 0.31127 0.0
C766 C 0.17675 0.85738 0.32965 0.0
C767 C 0.19873 0.87189 0.32893 0.0
C768 C 0.70418 0.86979 0.84413 0.0
C769 C 0.683 0.86326 0.85505 0.0
C770 C 0.71173 0.85573 0.84411 0.0
C771 C 0.69853 0.83438 0.85509 0.0
H772 H 0.7152 0.88603 0.83559 0.0
H773 H 0.72809 0.86172 0.83504 0.0
S774 S 0.64169 0.80901 0.88702 0.0
N775 N 0.64898 0.83377 0.87756 0.0
N776 N 0.6629 0.80743 0.87778 0.0
C777 C 0.67726 0.8276 0.86621 0.0
C778 C 0.6696 0.84195 0.86606 0.0
C779 C 0.18667 0.86299 0.84135 0.0
C780 C 0.20824 0.87133 0.84783 0.0
C781 C 0.17275 0.8414 0.8448 0.0
C782 C 0.17961 0.82695 0.855 0.0
H783 H 0.18042 0.87318 0.83293 0.0
H784 H 0.15635 0.83603 0.83932 0.0
S785 S 0.23453 0.8405 0.87671 0.0
N786 N 0.23576 0.8631 0.86619 0.0
N787 N 0.20965 0.82286 0.87248 0.0
C788 C 0.20112 0.83506 0.86199 0.0
C789 C 0.21535 0.85706 0.85851 0.0
C790 C 0.17777 0.3312 0.84008 0.0
C791 C 0.16974 0.34445 0.85218 0.0
C792 C 0.19934 0.33862 0.84016 0.0
C793 C 0.21409 0.35971 0.85231 0.0
H794 H 0.16734 0.31492 0.82993 0.0
H795 H 0.20445 0.32756 0.8306 0.0
S796 S 0.20145 0.40105 0.88803 0.0
N797 N 0.17861 0.37999 0.8776 0.0
N798 N 0.21881 0.39367 0.87752 0.0
C799 C 0.2063 0.37315 0.86463 0.0
C800 C 0.18432 0.36561 0.86468 0.0
C801 C 0.86345 0.70144 0.69561 0.0
C802 C 0.84194 0.68846 0.68667 0.0
C803 C 0.87727 0.69364 0.69233 0.0
C804 C 0.87036 0.67243 0.67985 0.0
H805 H 0.86972 0.71778 0.70594 0.0
H806 H 0.89362 0.70448 0.69984 0.0
S807 S 0.81561 0.63178 0.65084 0.0
N808 N 0.81446 0.65311 0.66326 0.0
N809 N 0.84036 0.63871 0.65734 0.0
C810 C 0.84892 0.6593 0.67029 0.0
C811 C 0.8348 0.66722 0.67359 0.0
C812 C 0.37812 0.19729 0.67254 0.0
C813 C 0.36491 0.20537 0.68462 0.0
C814 C 0.37069 0.17572 0.67308 0.0
C815 C 0.34964 0.16103 0.68569 0.0
H816 H 0.39436 0.20769 0.66204 0.0
H817 H 0.3817 0.17056 0.66351 0.0
S818 S 0.30847 0.17382 0.72188 0.0
N819 N 0.32949 0.19663 0.71074 0.0
N820 N 0.31579 0.15641 0.71148 0.0
C821 C 0.33625 0.16887 0.69802 0.0
C822 C 0.3438 0.19086 0.69762 0.0
C823 C 0.84404 0.18902 0.6696 0.0
C824 C 0.83592 0.16765 0.68032 0.0
C825 C 0.86563 0.2031 0.67021 0.0
C826 C 0.8803 0.19659 0.68155 0.0
H827 H 0.83367 0.19499 0.66017 0.0
H828 H 0.87082 0.21934 0.66176 0.0
S829 S 0.86742 0.14233 0.71349 0.0
N830 N 0.84463 0.14073 0.7035 0.0
N831 N 0.88486 0.16711 0.70442 0.0
C832 C 0.87242 0.17528 0.69245 0.0
C833 C 0.85042 0.1609 0.69195 0.0
C834 C 1.01161 0.49635 0.53664 0.0
C835 C 0.03287 0.50303 0.52668 0.0
C836 C 1.00406 0.5104 0.53866 0.0
C837 C 1.01735 0.53191 0.53064 0.0
H838 H 1.00051 0.48 0.54268 0.0
H839 H 0.98762 0.50428 0.54645 0.0
S840 S 0.07449 0.55774 0.50368 0.0
N841 N 0.0671 0.53284 0.50921 0.0
N842 N 0.0532 0.55919 0.51279 0.0
C843 C 0.03872 0.53884 0.52099 0.0
C844 C 0.04638 0.52449 0.51912 0.0
C845 C 0.53084 0.5026 0.52495 0.0
C846 C 0.50939 0.49468 0.51655 0.0
C847 C 0.54509 0.52414 0.52334 0.0
C848 C 0.53867 0.53894 0.51339 0.0
H849 H 0.53674 0.4921 0.53314 0.0
H850 H 0.56138 0.52918 0.52994 0.0
S851 S 0.48427 0.52662 0.48808 0.0
N852 N 0.48249 0.50373 0.49732 0.0
N853 N 0.5092 0.54387 0.4946 0.0
C854 C 0.51729 0.53127 0.50498 0.0
C855 C 0.50274 0.50932 0.50641 0.0
C856 C 0.53742 0.03504 0.53157 0.0
C857 C 0.54551 0.02189 0.51859 0.0
C858 C 0.51585 0.0276 0.5312 0.0
C859 C 0.50113 1.00658 0.51777 0.0
H860 H 0.54781 0.05124 0.54282 0.0
H861 H 0.51071 0.03858 0.54166 0.0
S862 S 0.51394 0.96557 0.47894 0.0
N863 N 0.53674 0.98657 0.49064 0.0
N864 N 0.49653 0.97284 0.49012 0.0
C865 C 0.50898 0.99327 0.50428 0.0
C866 C 0.53098 1.00083 0.50461 0.0
C867 C 0.50513 1.00451 1.01196 0.0
C868 C 0.51154 0.02556 0.02504 0.0
C869 C 0.51922 0.99702 1.01128 0.0
C870 C 0.5405 1.01017 0.02376 0.0
H871 H 0.48896 0.99356 1.00209 0.0
H872 H 0.51335 0.98078 1.00041 0.0
S873 S 0.56549 0.06659 0.06233 0.0
N874 N 0.5408 0.05935 0.05167 0.0
N875 N 0.56721 0.04553 0.05075 0.0
C876 C 0.54714 0.03128 0.03725 0.0
C877 C 0.53275 0.03889 0.03773 0.0
C878 C 0.04545 0.53152 0.99968 0.0
C879 C 0.03266 0.53973 1.01635 0.0
C880 C 0.03789 0.50992 0.99931 0.0
C881 C 1.01712 0.49533 1.01544 0.0
H882 H 0.06147 0.54184 0.98651 0.0
H883 H 0.04859 0.50465 0.98636 0.0
S884 S 0.97705 0.50843 0.06364 0.0
N885 N 0.9979 0.53117 0.05015 0.0
N886 N 0.98397 0.49091 0.04911 0.0
C887 C 1.00413 0.50328 0.03205 0.0
C888 C 1.01181 0.52529 0.03266 0.0
C889 C 0.51206 0.52189 1.00561 0.0
C890 C 0.50394 0.5008 0.02073 0.0
C891 C 0.53364 0.53596 1.00505 0.0
C892 C 0.54833 0.52972 0.01968 0.0
H893 H 0.50167 0.52764 0.99332 0.0
H894 H 0.5388 0.55195 0.99295 0.0
S895 S 0.53543 0.47629 0.06428 0.0
N896 N 0.51264 0.47446 0.05203 0.0
N897 N 0.55288 0.50081 0.05084 0.0
C898 C 0.54045 0.50871 0.03533 0.0
C899 C 0.51844 0.49433 0.03594 0.0
C900 C 0.47064 0.11911 0.0933 0.0
C901 C 0.45963 0.0976 0.08031 0.0
C902 C 0.46033 0.12963 0.11493 0.0
C903 C 0.43881 0.11884 0.12746 0.0
H904 H 0.48728 0.12789 0.08621 0.0
H905 H 0.46928 0.14625 0.12261 0.0
S906 S 0.40298 0.06235 0.10289 0.0
N907 N 0.42593 0.06602 0.08185 0.0
N908 N 0.40696 0.0854 0.12448 0.0
C909 C 0.42779 0.09731 0.11545 0.0
C910 C 0.43807 0.08681 0.09152 0.0
C911 C 0.94467 0.34063 0.1144 0.0
C912 C 0.92309 0.32984 0.12524 0.0
C913 C 0.95495 0.36097 0.0903 0.0
C914 C 0.94427 0.37177 0.07736 0.0
H915 H 0.9537 0.33308 0.12294 0.0
H916 H 0.97158 0.36849 0.08318 0.0
S917 S 0.88777 0.35091 0.09894 0.0
N918 N 0.89131 0.33151 0.12041 0.0
N919 N 0.91088 0.37026 0.07886 0.0
C920 C 0.92276 0.36139 0.08915 0.0
C921 C 0.91212 0.34031 0.11187 0.0
C922 C 0.69824 0.58754 0.16235 0.0
C923 C 0.71442 0.59704 0.11812 0.0
C924 C 0.67721 0.57652 0.14332 0.0
C925 C 0.67137 0.57513 0.07933 0.0
H926 H 0.70182 0.58911 0.21221 0.0
H927 H 0.66539 0.57013 0.17952 0.0
S928 S 0.70767 0.59731 0.94467 0.0
N929 N 0.72302 0.60375 1.00694 0.0
N930 N 0.68371 0.58399 0.97187 0.0
C931 C 0.68741 0.58422 0.03463 0.0
C932 C 0.70882 0.5949 0.05381 0.0
C933 C 0.09475 0.43064 0.44892 0.0
C934 C 0.10557 0.45208 0.46237 0.0
C935 C 0.10487 0.42051 0.42419 0.0
C936 C 0.12644 0.43116 0.41315 0.0
H937 H 0.07811 0.42162 0.45598 0.0
H938 H 0.09572 0.40396 0.41519 0.0
S939 S 0.1622 0.48735 0.44164 0.0
N940 N 0.13916 0.48375 0.46191 0.0
N941 N 0.15842 0.4644 0.4191 0.0
C942 C 0.13759 0.45254 0.42743 0.0
C943 C 0.12711 0.46306 0.45082 0.0
C944 C 0.62226 0.69412 0.42292 0.0
C945 C 0.6117 0.70516 0.41213 0.0
C946 C 0.61194 0.67363 0.44579 0.0
C947 C 0.59041 0.66292 0.4575 0.0
H948 H 0.63886 0.70156 0.41516 0.0
H949 H 0.6209 0.66592 0.45275 0.0
S950 S 0.55532 0.68453 0.43616 0.0
N951 N 0.57843 0.70388 0.41613 0.0
N952 N 0.55877 0.66489 0.45544 0.0
C953 C 0.57953 0.67361 0.44607 0.0
C954 C 0.59023 0.69482 0.42458 0.0
C955 C 0.34136 0.90996 0.47631 0.0
C956 C 0.33555 0.90786 0.41215 0.0
C957 C 0.36241 0.9206 0.49522 0.0
C958 C 0.37861 0.92898 0.45078 0.0
H959 H 0.32955 0.90445 0.51255 0.0
H960 H 0.36601 0.92278 0.54506 0.0
S961 S 0.37188 0.92695 0.27691 0.0
N962 N 0.3479 0.91478 0.30435 0.0
N963 N 0.38721 0.93381 0.33928 0.0
C964 C 0.37299 0.92608 0.38644 0.0
C965 C 0.35158 0.91581 0.36731 0.0
C966 C 0.57945 0.91502 0.94875 0.0
C967 C 0.5903 0.93659 0.96085 0.0
C968 C 0.58985 0.90464 0.92668 0.0
C969 C 0.61128 0.91561 0.9128 0.0
H970 H 0.56288 0.90609 0.95713 0.0
H971 H 0.58104 0.88797 0.91995 0.0
S972 S 0.64659 0.97238 0.93369 0.0
N973 N 0.62368 0.96846 0.95635 0.0
N974 N 0.64283 0.94935 0.91285 0.0
C975 C 0.62211 0.93722 0.92349 0.0
C976 C 0.61174 0.94758 0.94787 0.0
C977 C 0.13471 0.69812 0.97655 0.0
C978 C 0.13557 0.70427 0.91314 0.0
C979 C 0.12365 0.677 0.99451 0.0
C980 C 0.11365 0.66108 0.94959 0.0
H981 H 0.14152 0.70977 1.01323 0.0
H982 H 0.12245 0.67315 0.0441 0.0
S983 S 0.112 0.66872 0.77713 0.0
N984 N 0.12572 0.69255 0.80544 0.0
N985 N 0.10597 0.65304 0.83836 0.0
C986 C 0.1153 0.667 0.88572 0.0
C987 C 0.12597 0.6885 0.86773 0.0
C988 C 0.36932 0.46205 0.95049 0.0
C989 C 0.38052 0.45144 0.95704 0.0
C990 C 0.34852 0.45174 0.92836 0.0
C991 C 0.33851 0.43075 0.90893 0.0
H992 H 0.37653 0.47829 0.96351 0.0
H993 H 0.34025 0.46029 0.92624 0.0
S994 S 0.36161 0.39645 0.91331 0.0
N995 N 0.38012 0.4189 0.9409 0.0
N996 N 0.34187 0.39999 0.89718 0.0
C997 C 0.34988 0.42026 0.91372 0.0
C998 C 0.37062 0.43048 0.93817 0.0
C999 C 0.91778 0.59112 0.55733 0.0
C1000 C 0.91229 0.59224 0.62019 0.0
C1001 C 0.92898 0.58106 0.54133 0.0
C1002 C 0.93454 0.57099 0.58717 0.0
H1003 H 0.91453 0.59922 0.52063 0.0
H1004 H 0.93393 0.58179 0.49299 0.0
S1005 S 0.92145 0.56713 0.75747 0.0
N1006 N 0.91203 0.58126 0.72771 0.0
N1007 N 0.9319 0.56133 0.69783 0.0
C1008 C 0.9278 0.57075 0.64958 0.0
C1009 C 0.91703 0.58164 0.66605 0.0
C1010 C 0.4704 0.36054 0.59086 0.0
C1011 C 0.45944 0.37109 0.57765 0.0
C1012 C 0.46002 0.3397 0.6124 0.0
C1013 C 0.43848 0.32899 0.62461 0.0
H1014 H 0.48704 0.36837 0.58389 0.0
H1015 H 0.46894 0.33199 0.62019 0.0
S1016 S 0.40278 0.3498 0.59964 0.0
N1017 N 0.42577 0.36905 0.57884 0.0
N1018 N 0.40667 0.33069 0.62131 0.0
C1019 C 0.42752 0.33956 0.61252 0.0
C1020 C 0.43787 0.36035 0.58868 0.0
C1021 C 0.67996 0.11747 0.59085 0.0
C1022 C 0.66947 0.09595 0.57781 0.0
C1023 C 0.70094 0.12809 0.61136 0.0
C1024 C 0.71188 0.1174 0.62268 0.0
H1025 H 0.67199 0.12619 0.58456 0.0
H1026 H 0.70857 0.1447 0.6191 0.0
S1027 S 0.69134 0.06093 0.5976 0.0
N1028 N 0.67184 0.06449 0.57809 0.0
N1029 N 0.71045 0.08402 0.61864 0.0
C1030 C 0.70138 0.09586 0.61069 0.0
C1031 C 0.68043 0.08527 0.5879 0.0
C1032 C 0.79365 0.79581 0.77924 0.0
C1033 C 0.77294 0.78476 0.80107 0.0
C1034 C 0.80408 0.78537 0.75782 0.0
C1035 C 0.79386 0.76351 0.75452 0.0
H1036 H 0.80185 0.81263 0.77871 0.0
H1037 H 0.82008 0.79446 0.74261 0.0
S1038 S 0.73981 0.72723 0.80593 0.0
N1039 N 0.74295 0.75053 0.81892 0.0
N1040 N 0.76206 0.73125 0.77661 0.0
C1041 C 0.77322 0.75237 0.77606 0.0
C1042 C 0.7629 0.76288 0.79972 0.0
C1043 C 0.277 1.00507 0.76934 0.0
C1044 C 0.25573 0.99466 0.78476 0.0
C1045 C 0.28723 0.02559 0.74677 0.0
C1046 C 0.27686 0.03699 0.73997 0.0
H1047 H 0.28583 0.99712 0.77346 0.0
H1048 H 0.30365 0.03279 0.73635 0.0
S1049 S 0.22109 0.01712 0.77394 0.0
N1050 N 0.22445 0.99721 0.78995 0.0
N1051 N 0.24397 0.03626 0.75113 0.0
C1052 C 0.2556 0.02689 0.75571 0.0
C1053 C 0.24497 1.00564 0.77692 0.0
C1054 C 0.03521 0.2798 0.77918 0.0
C1055 C 0.0462 0.26922 0.79073 0.0
C1056 C 1.01487 0.26952 0.75493 0.0
C1057 C 1.00424 0.24801 0.74252 0.0
H1058 H 0.0426 0.29639 0.78736 0.0
H1059 H 1.0072 0.27849 0.74736 0.0
S1060 S 0.02567 0.21285 0.76578 0.0
N1061 N 0.04491 0.23593 0.78694 0.0
N1062 N 1.00617 0.21634 0.74511 0.0
C1063 C 1.01484 0.2371 0.75489 0.0
C1064 C 0.03592 0.24775 0.77777 0.0
C1065 C 0.25655 0.23843 0.25643 0.0
C1066 C 0.27805 0.24948 0.24365 0.0
C1067 C 0.24605 0.24867 0.27872 0.0
C1068 C 0.25685 0.27015 0.29218 0.0
H1069 H 0.24777 0.22181 0.24848 0.0
H1070 H 0.22943 0.2397 0.28603 0.0
S1071 S 0.31338 0.30599 0.26935 0.0
N1072 N 0.30967 0.28311 0.24695 0.0
N1073 N 0.29035 0.30198 0.29089 0.0
C1074 C 0.2784 0.2812 0.28074 0.0
C1075 C 0.28887 0.27098 0.25611 0.0
C1076 C 0.79379 1.00811 0.28604 0.0
C1077 C 0.77198 0.99643 0.29123 0.0
C1078 C 0.80388 0.02877 0.263 0.0
C1079 C 0.79251 0.03812 0.24129 0.0
H1080 H 0.8031 1.00138 0.30084 0.0
H1081 H 0.8207 0.03746 0.26202 0.0
S1082 S 0.73497 1.01352 0.24143 0.0
N1083 N 0.73942 0.99561 0.2714 0.0
N1084 N 0.75805 0.03361 0.2259 0.0
C1085 C 0.77067 0.02625 0.24468 0.0
C1086 C 0.76052 1.00565 0.27006 0.0
C1087 C 0.03037 0.78209 0.33283 0.0
C1088 C 0.04617 0.79227 0.28769 0.0
C1089 C 1.00917 0.77181 0.3158 0.0
C1090 C 1.0028 0.77068 0.25258 0.0
H1091 H 0.03442 0.78145 0.38148 0.0
H1092 H 0.99772 0.76357 0.35207 0.0
S1093 S 0.03759 0.79577 0.11651 0.0
N1094 N 0.05358 0.80174 0.17704 0.0
N1095 N 1.01394 0.7816 0.14531 0.0
C1096 C 1.01831 0.78132 0.20732 0.0
C1097 C 0.03989 0.79234 0.2248 0.0
C1098 C 0.34375 0.08268 0.98642 0.0
C1099 C 0.36488 0.09314 1.00215 0.0
C1100 C 0.33754 0.07993 0.9232 0.0
C1101 C 0.35228 0.08735 0.87413 0.0
H1102 H 0.33209 0.07857 0.02268 0.0
H1103 H 0.32117 0.07344 0.91276 0.0
S1104 S 0.40925 0.11136 0.89205 0.0
N1105 N 0.40035 0.10766 0.96491 0.0
N1106 N 0.38863 0.10225 0.84582 0.0
C1107 C 0.37326 0.09536 0.88949 0.0
C1108 C 0.37958 0.09835 0.95383 0.0
C1109 C 0.94071 0.28666 0.94757 0.0
C1110 C 0.94782 0.27904 0.99679 0.0
C1111 C 0.94408 0.2838 0.88443 0.0
C1112 C 0.95445 0.27303 0.86894 0.0
H1113 H 0.93105 0.29341 0.95783 0.0
H1114 H 0.93673 0.28814 0.84805 0.0
S1115 S 0.98008 0.25423 0.97967 0.0
N1116 N 0.9688 0.26362 0.02561 0.0
N1117 N 0.975 0.25803 0.90668 0.0
C1118 C 0.96377 0.26759 0.91747 0.0
C1119 C 0.96052 0.2707 0.98172 0.0
C1120 C 0.75223 0.66702 0.96422 0.0
C1121 C 0.76194 0.68174 1.01283 0.0
C1122 C 0.75604 0.67286 0.90077 0.0
C1123 C 0.76987 0.69354 0.88433 0.0
H1124 H 0.74312 0.65062 0.97533 0.0
H1125 H 0.74983 0.66084 0.865 0.0
S1126 S 0.79527 0.73857 0.99307 0.0
N1127 N 0.78285 0.71826 0.03993 0.0
N1128 N 0.79012 0.72931 0.9205 0.0
C1129 C 0.77754 0.70872 0.93216 0.0
C1130 C 0.7735 0.70279 0.9967 0.0
C1131 C 0.08662 0.32903 0.61552 0.0
C1132 C 0.09416 0.3439 0.66433 0.0
C1133 C 0.08909 0.33508 0.55224 0.0
C1134 C 0.09941 0.35619 0.53628 0.0
H1135 H 0.08033 0.3127 0.62619 0.0
H1136 H 0.08494 0.32335 0.5161 0.0
S1137 S 0.11789 0.40082 0.64594 0.0
N1138 N 0.109 0.38029 0.69238 0.0
N1139 N 0.11393 0.39176 0.57316 0.0
C1140 C 0.10471 0.37101 0.58445 0.0
C1141 C 0.10198 0.36483 0.64883 0.0
C1142 C 0.67774 0.74866 0.65452 0.0
C1143 C 0.69886 0.75893 0.67048 0.0
C1144 C 0.67162 0.74611 0.59126 0.0
C1145 C 0.68642 0.75352 0.54239 0.0
H1146 H 0.66607 0.74458 0.69068 0.0
H1147 H 0.65529 0.73984 0.58063 0.0
S1148 S 0.74331 0.77707 0.56071 0.0
N1149 N 0.73435 0.77327 0.63351 0.0
N1150 N 0.72275 0.7682 0.51431 0.0
C1151 C 0.70735 0.76131 0.55788 0.0
C1152 C 0.7136 0.76412 0.62226 0.0
C1153 C 0.27 0.95368 0.60095 0.0
C1154 C 0.27962 0.94843 0.64922 0.0
C1155 C 0.27432 0.95249 0.53741 0.0
C1156 C 0.28825 0.94581 0.52046 0.0
H1157 H 0.25784 0.95716 0.61216 0.0
H1158 H 0.26505 0.95454 0.50176 0.0
S1159 S 0.3208 0.93475 0.62835 0.0
N1160 N 0.30633 0.93993 0.67566 0.0
N1161 N 0.31427 0.9374 0.55598 0.0
C1162 C 0.29982 0.94305 0.56814 0.0
C1163 C 0.29556 0.94444 0.63283 0.0
C1164 C 0.6762 0.93547 0.15424 0.0
C1165 C 0.6973 0.94668 0.17013 0.0
C1166 C 0.67006 0.9319 0.09099 0.0
C1167 C 0.68484 0.93961 0.04203 0.0
H1168 H 0.66458 0.92761 0.1904 0.0
H1169 H 0.65377 0.92161 0.08043 0.0
S1170 S 0.74157 0.97419 0.06033 0.0
N1171 N 0.73265 0.96867 0.13313 0.0
N1172 N 0.72104 0.9621 1.01394 0.0
C1173 C 0.70569 0.95315 0.05752 0.0
C1174 C 0.71195 0.95662 0.1219 0.0
C1175 C 0.10787 0.74762 0.15645 0.0
C1176 C 0.09531 0.75609 0.172 0.0
C1177 C 0.11186 0.74544 0.09328 0.0
C1178 C 0.10331 0.75149 0.04378 0.0
H1179 H 0.1163 0.74468 0.19285 0.0
H1180 H 0.123 0.74045 0.08326 0.0
S1181 S 0.06542 0.76969 0.06073 0.0
N1182 N 0.07135 0.76695 0.13378 0.0
N1183 N 0.07879 0.76268 1.01492 0.0
C1184 C 0.08864 0.7574 0.05888 0.0
C1185 C 0.08468 0.75977 0.12319 0.0
C1186 C 0.27308 0.32881 0.11539 0.0
C1187 C 0.2806 0.34359 0.16452 0.0
C1188 C 0.2768 0.33497 0.05222 0.0
C1189 C 0.28797 0.3561 0.03657 0.0
H1190 H 0.26285 0.3125 0.12571 0.0
H1191 H 0.2691 0.32334 1.01588 0.0
S1192 S 0.31492 0.40039 0.1471 0.0
N1193 N 0.30281 0.37983 0.19317 0.0
N1194 N 0.30968 0.39148 0.07416 0.0
C1195 C 0.2977 0.37076 0.08507 0.0
C1196 C 0.29407 0.36447 0.14937 0.0
C1197 C 0.95978 0.69417 0.47938 0.0
C1198 C 0.94758 0.67312 0.49504 0.0
C1199 C 0.96309 0.7004 0.41614 0.0
C1200 C 0.95442 0.68577 0.36671 0.0
H1201 H 0.96504 0.70599 0.5157 0.0
H1202 H 0.97102 0.7169 0.40597 0.0
S1203 S 0.92573 0.62854 0.38389 0.0
N1204 N 0.93022 0.63746 0.45685 0.0
N1205 N 0.93644 0.64925 0.338 0.0
C1206 C 0.94459 0.66462 0.3819 0.0
C1207 C 0.94112 0.65827 0.44625 0.0
C1208 C 0.38082 0.28786 0.44633 0.0
C1209 C 0.36599 0.28108 0.49511 0.0
C1210 C 0.37477 0.28545 0.38301 0.0
C1211 C 0.3537 0.276 0.36689 0.0
H1212 H 0.39703 0.29347 0.4571 0.0
H1213 H 0.38637 0.28893 0.347 0.0
S1214 S 0.30946 0.26012 0.47621 0.0
N1215 N 0.32988 0.26812 0.52282 0.0
N1216 N 0.31843 0.26338 0.4035 0.0
C1217 C 0.33907 0.27161 0.41495 0.0
C1218 C 0.34525 0.27424 0.4794 0.0
C1219 C 0.75289 0.10113 0.44273 0.0
C1220 C 0.75982 0.09319 0.49154 0.0
C1221 C 0.75534 0.09756 0.37942 0.0
C1222 C 0.76498 0.08612 0.36338 0.0
H1223 H 0.74715 0.11163 0.45348 0.0
H1224 H 0.75177 0.10563 0.34338 0.0
S1225 S 0.78141 0.05813 0.47274 0.0
N1226 N 0.77318 0.07033 0.51931 0.0
N1227 N 0.77802 0.06378 0.40001 0.0
C1228 C 0.76954 0.07597 0.41144 0.0
C1229 C 0.76686 0.07944 0.47586 0.0
C1230 C 0.04155 0.43357 0.21874 0.0
C1231 C 1.02054 0.42185 0.20211 0.0
C1232 C 0.04742 0.43714 0.2822 0.0
C1233 C 0.03248 0.42889 0.3306 0.0
H1234 H 0.05323 0.44175 0.183 0.0
H1235 H 0.0636 0.44773 0.29337 0.0
S1236 S 0.97601 0.39322 0.31026 0.0
N1237 N 0.98518 0.3991 0.23779 0.0
N1238 N 0.9963 0.40561 0.35737 0.0
C1239 C 1.01178 0.41499 0.31435 0.0
C1240 C 1.00578 0.41155 0.24978 0.0
C1241 C 0.60904 0.61811 0.2085 0.0
C1242 C 0.62216 0.61036 0.19245 0.0
C1243 C 0.60477 0.61976 0.2718 0.0
C1244 C 0.61364 0.61388 0.32079 0.0
H1245 H 0.60034 0.62079 0.17234 0.0
H1246 H 0.59323 0.62417 0.28226 0.0
S1247 S 0.65277 0.59729 0.30239 0.0
N1248 N 0.6468 0.60026 0.22962 0.0
N1249 N 0.63889 0.60353 0.34877 0.0
C1250 C 0.62883 0.60871 0.30526 0.0
C1251 C 0.63305 0.6069 0.24084 0.0
C1252 C 0.41894 0.9981 0.29122 0.0
C1253 C 0.42763 1.01277 0.34046 0.0
C1254 C 0.42263 1.00423 0.228 0.0
C1255 C 0.43526 0.02523 0.2123 0.0
H1256 H 0.41075 0.98161 0.30165 0.0
H1257 H 0.41734 0.99237 0.19184 0.0
S1258 S 0.45727 0.06997 0.32263 0.0
N1259 N 0.44603 0.04934 0.36877 0.0
N1260 N 0.45301 0.06096 0.24976 0.0
C1261 C 0.44174 0.04018 0.26068 0.0
C1262 C 0.43786 0.03393 0.32503 0.0
C1263 C 0.62595 0.03176 0.82108 0.0
C1264 C 0.61612 1.01068 0.8372 0.0
C1265 C 0.62833 0.03776 0.75776 0.0
C1266 C 0.62116 0.02286 0.70901 0.0
H1267 H 0.62976 0.04346 0.85713 0.0
H1268 H 0.63425 0.05402 0.74699 0.0
S1269 S 0.59897 0.96613 0.72796 0.0
N1270 N 0.60259 0.97522 0.80066 0.0
N1271 N 0.60733 0.98657 0.68132 0.0
C1272 C 0.61389 1.00203 0.72472 0.0
C1273 C 0.61127 0.99591 0.78917 0.0
C1274 C 0.03821 0.62034 0.72635 0.0
C1275 C 1.01703 0.6088 0.71132 0.0
C1276 C 0.04472 0.62354 0.7894 0.0
C1277 C 0.03026 0.61552 0.8392 0.0
H1278 H 0.04982 0.62504 0.68967 0.0
H1279 H 0.06121 0.63082 0.79913 0.0
S1280 S 0.97307 0.58856 0.82395 0.0
N1281 N 0.9816 0.5926 0.75063 0.0
N1282 N 0.99396 0.5988 0.86913 0.0
C1283 C 1.00911 0.6064 0.82468 0.0
C1284 C 1.00246 0.60295 0.76056 0.0
C1285 C 0.44205 0.41208 0.75458 0.0
C1286 C 0.43456 0.41953 0.70595 0.0
C1287 C 0.43875 0.41476 0.81795 0.0
C1288 C 0.42809 0.42518 0.8342 0.0
H1289 H 0.452 0.40572 0.74365 0.0
H1290 H 0.44646 0.41068 0.85389 0.0
S1291 S 0.40144 0.44331 0.72526 0.0
N1292 N 0.41289 0.4343 0.6785 0.0
N1293 N 0.40688 0.43958 0.7979 0.0
C1294 C 0.41836 0.43034 0.78629 0.0
C1295 C 0.42153 0.42741 0.72181 0.0
loop_
_geom_bond_atom_site_label_1
_geom_bond_atom_site_label_2
_geom_bond_distance
_geom_bond_site_symmetry_2
_ccdc_geom_bond_type
O0 Cd1 2.223 . S
O0 C8 1.315 . S
Cd1 O0 2.223 . S
Cd1 O4 2.297 . S
Cd1 O5 2.439 . S
Cd1 O11 2.240 . S
Cd2 O3 2.240 . S
Cd2 O10 2.223 . S
Cd2 O12 2.297 . S
Cd2 O13 2.439 . S
O3 Cd2 2.240 . S
O3 C8 1.279 . S
O4 Cd1 2.297 . S
O4 C6 1.247 . S
O5 Cd1 2.439 . S
O5 C6 1.208 . S
C6 O4 1.247 . S
C6 O5 1.208 . S
C7 O12 1.247 . S
C7 O13 1.208 . S
C8 O0 1.315 . S
C8 O3 1.279 . S
C9 O10 1.315 . S
C9 O11 1.279 . S
O10 Cd2 2.223 . S
O10 C9 1.315 . S
O11 Cd1 2.240 . S
O11 C9 1.279 . S
O12 Cd2 2.297 . S
O12 C7 1.247 . S
O13 Cd2 2.439 . S
O13 C7 1.208 . S
O14 Cd15 2.223 . S
O14 C22 1.315 . S
Cd15 O14 2.223 . S
Cd15 O18 2.297 . S
Cd15 O19 2.439 . S
Cd15 O25 2.240 . S
Cd16 O17 2.240 . S
Cd16 O24 2.223 . S
Cd16 O26 2.297 . S
Cd16 O27 2.439 . S
O17 Cd16 2.240 . S
O17 C22 1.279 . S
O18 Cd15 2.297 . S
O18 C20 1.247 . S
O19 Cd15 2.439 . S
O19 C20 1.208 . S
C20 O18 1.247 . S
C20 O19 1.208 . S
C21 O26 1.247 . S
C21 O27 1.208 . S
C22 O14 1.315 . S
C22 O17 1.279 . S
C23 O24 1.315 . S
C23 O25 1.279 . S
O24 Cd16 2.223 . S
O24 C23 1.315 . S
O25 Cd15 2.240 . S
O25 C23 1.279 . S
O26 Cd16 2.297 . S
O26 C21 1.247 . S
O27 Cd16 2.439 . S
O27 C21 1.208 . S
O28 Cd29 2.223 . S
O28 C36 1.315 . S
Cd29 O28 2.223 . S
Cd29 O32 2.297 . S
Cd29 O33 2.439 . S
Cd29 O39 2.240 . S
Cd30 O31 2.240 . S
Cd30 O38 2.223 . S
Cd30 O40 2.297 . S
Cd30 O41 2.439 . S
O31 Cd30 2.240 . S
O31 C36 1.279 . S
O32 Cd29 2.297 . S
O32 C34 1.247 . S
O33 Cd29 2.439 . S
O33 C34 1.208 . S
C34 O32 1.247 . S
C34 O33 1.208 . S
C35 O40 1.247 . S
C35 O41 1.208 . S
C36 O28 1.315 . S
C36 O31 1.279 . S
C37 O38 1.315 . S
C37 O39 1.279 . S
O38 Cd30 2.223 . S
O38 C37 1.315 . S
O39 Cd29 2.240 . S
O39 C37 1.279 . S
O40 Cd30 2.297 . S
O40 C35 1.247 . S
O41 Cd30 2.439 . S
O41 C35 1.208 . S
O42 Cd43 2.223 . S
O42 C50 1.315 . S
Cd43 O42 2.223 . S
Cd43 O46 2.297 . S
Cd43 O47 2.439 . S
Cd43 O53 2.240 . S
Cd44 O45 2.240 . S
Cd44 O52 2.223 . S
Cd44 O54 2.297 . S
Cd44 O55 2.439 . S
O45 Cd44 2.240 . S
O45 C50 1.279 . S
O46 Cd43 2.297 . S
O46 C48 1.247 . S
O47 Cd43 2.439 . S
O47 C48 1.208 . S
C48 O46 1.247 . S
C48 O47 1.208 . S
C49 O54 1.247 . S
C49 O55 1.208 . S
C50 O42 1.315 . S
C50 O45 1.279 . S
C51 O52 1.315 . S
C51 O53 1.279 . S
O52 Cd44 2.223 . S
O52 C51 1.315 . S
O53 Cd43 2.240 . S
O53 C51 1.279 . S
O54 Cd44 2.297 . S
O54 C49 1.247 . S
O55 Cd44 2.439 . S
O55 C49 1.208 . S
O56 Cd57 2.223 . S
O56 C64 1.315 . S
Cd57 O56 2.223 . S
Cd57 O60 2.297 . S
Cd57 O61 2.439 . S
Cd57 O67 2.240 . S
Cd58 O59 2.240 . S
Cd58 O66 2.223 . S
Cd58 O68 2.297 . S
Cd58 O69 2.439 . S
O59 Cd58 2.240 . S
O59 C64 1.279 . S
O60 Cd57 2.297 . S
O60 C62 1.247 . S
O61 Cd57 2.439 . S
O61 C62 1.208 . S
C62 O60 1.247 . S
C62 O61 1.208 . S
C63 O68 1.247 . S
C63 O69 1.208 . S
C64 O56 1.315 . S
C64 O59 1.279 . S
C65 O66 1.315 . S
C65 O67 1.279 . S
O66 Cd58 2.223 . S
O66 C65 1.315 . S
O67 Cd57 2.240 . S
O67 C65 1.279 . S
O68 Cd58 2.297 . S
O68 C63 1.247 . S
O69 Cd58 2.439 . S
O69 C63 1.208 . S
O70 Cd71 2.223 . S
O70 C78 1.315 . S
Cd71 O70 2.223 . S
Cd71 O74 2.297 . S
Cd71 O75 2.439 . S
Cd71 O81 2.240 . S
Cd72 O73 2.240 . S
Cd72 O80 2.223 . S
Cd72 O82 2.297 . S
Cd72 O83 2.439 . S
O73 Cd72 2.240 . S
O73 C78 1.279 . S
O74 Cd71 2.297 . S
O74 C76 1.247 . S
O75 Cd71 2.439 . S
O75 C76 1.208 . S
C76 O74 1.247 . S
C76 O75 1.208 . S
C77 O82 1.247 . S
C77 O83 1.208 . S
C78 O70 1.315 . S
C78 O73 1.279 . S
C79 O80 1.315 . S
C79 O81 1.279 . S
O80 Cd72 2.223 . S
O80 C79 1.315 . S
O81 Cd71 2.240 . S
O81 C79 1.279 . S
O82 Cd72 2.297 . S
O82 C77 1.247 . S
O83 Cd72 2.439 . S
O83 C77 1.208 . S
O84 Cd85 2.223 . S
O84 C92 1.315 . S
Cd85 O84 2.223 . S
Cd85 O88 2.297 . S
Cd85 O89 2.439 . S
Cd85 O95 2.240 . S
Cd86 O87 2.240 . S
Cd86 O94 2.223 . S
Cd86 O96 2.297 . S
Cd86 O97 2.439 . S
O87 Cd86 2.240 . S
O87 C92 1.279 . S
O88 Cd85 2.297 . S
O88 C90 1.247 . S
O89 Cd85 2.439 . S
O89 C90 1.208 . S
C90 O88 1.247 . S
C90 O89 1.208 . S
C91 O96 1.247 . S
C91 O97 1.208 . S
C92 O84 1.315 . S
C92 O87 1.279 . S
C93 O94 1.315 . S
C93 O95 1.279 . S
O94 Cd86 2.223 . S
O94 C93 1.315 . S
O95 Cd85 2.240 . S
O95 C93 1.279 . S
O96 Cd86 2.297 . S
O96 C91 1.247 . S
O97 Cd86 2.439 . S
O97 C91 1.208 . S
O98 Cd99 2.223 . S
O98 C106 1.315 . S
Cd99 O98 2.223 . S
Cd99 O102 2.297 . S
Cd99 O103 2.439 . S
Cd99 O109 2.240 . S
Cd100 O101 2.240 . S
Cd100 O108 2.223 . S
Cd100 O110 2.297 . S
Cd100 O111 2.439 . S
O101 Cd100 2.240 . S
O101 C106 1.279 . S
O102 Cd99 2.297 . S
O102 C104 1.247 . S
O103 Cd99 2.439 . S
O103 C104 1.208 . S
C104 O102 1.247 . S
C104 O103 1.208 . S
C105 O110 1.247 . S
C105 O111 1.208 . S
C106 O98 1.315 . S
C106 O101 1.279 . S
C107 O108 1.315 . S
C107 O109 1.279 . S
O108 Cd100 2.223 . S
O108 C107 1.315 . S
O109 Cd99 2.240 . S
O109 C107 1.279 . S
O110 Cd100 2.297 . S
O110 C105 1.247 . S
O111 Cd100 2.439 . S
O111 C105 1.208 . S
O112 Cd113 2.223 . S
O112 C120 1.315 . S
Cd113 O112 2.223 . S
Cd113 O116 2.297 . S
Cd113 O117 2.439 . S
Cd113 O123 2.240 . S
Cd114 O115 2.240 . S
Cd114 O122 2.223 . S
Cd114 O124 2.297 . S
Cd114 O125 2.439 . S
O115 Cd114 2.240 . S
O115 C120 1.279 . S
O116 Cd113 2.297 . S
O116 C118 1.247 . S
O117 Cd113 2.439 . S
O117 C118 1.208 . S
C118 O116 1.247 . S
C118 O117 1.208 . S
C119 O124 1.247 . S
C119 O125 1.208 . S
C120 O112 1.315 . S
C120 O115 1.279 . S
C121 O122 1.315 . S
C121 O123 1.279 . S
O122 Cd114 2.223 . S
O122 C121 1.315 . S
O123 Cd113 2.240 . S
O123 C121 1.279 . S
O124 Cd114 2.297 . S
O124 C119 1.247 . S
O125 Cd114 2.439 . S
O125 C119 1.208 . S
O126 Cd127 2.223 . S
O126 C134 1.315 . S
Cd127 O126 2.223 . S
Cd127 O130 2.297 . S
Cd127 O131 2.439 . S
Cd127 O137 2.240 . S
Cd128 O129 2.240 . S
Cd128 O136 2.223 . S
Cd128 O138 2.297 . S
Cd128 O139 2.439 . S
O129 Cd128 2.240 . S
O129 C134 1.279 . S
O130 Cd127 2.297 . S
O130 C132 1.247 . S
O131 Cd127 2.439 . S
O131 C132 1.208 . S
C132 O130 1.247 . S
C132 O131 1.208 . S
C133 O138 1.247 . S
C133 O139 1.208 . S
C134 O126 1.315 . S
C134 O129 1.279 . S
C135 O136 1.315 . S
C135 O137 1.279 . S
O136 Cd128 2.223 . S
O136 C135 1.315 . S
O137 Cd127 2.240 . S
O137 C135 1.279 . S
O138 Cd128 2.297 . S
O138 C133 1.247 . S
O139 Cd128 2.439 . S
O139 C133 1.208 . S
O140 Cd141 2.223 . S
O140 C148 1.315 . S
Cd141 O140 2.223 . S
Cd141 O144 2.297 . S
Cd141 O145 2.439 . S
Cd141 O151 2.240 . S
Cd142 O143 2.240 . S
Cd142 O150 2.223 . S
Cd142 O152 2.297 . S
Cd142 O153 2.439 . S
O143 Cd142 2.240 . S
O143 C148 1.279 . S
O144 Cd141 2.297 . S
O144 C146 1.247 . S
O145 Cd141 2.439 . S
O145 C146 1.208 . S
C146 O144 1.247 . S
C146 O145 1.208 . S
C147 O152 1.247 . S
C147 O153 1.208 . S
C148 O140 1.315 . S
C148 O143 1.279 . S
C149 O150 1.315 . S
C149 O151 1.279 . S
O150 Cd142 2.223 . S
O150 C149 1.315 . S
O151 Cd141 2.240 . S
O151 C149 1.279 . S
O152 Cd142 2.297 . S
O152 C147 1.247 . S
O153 Cd142 2.439 . S
O153 C147 1.208 . S
O154 Cd155 2.223 . S
O154 C162 1.315 . S
Cd155 O154 2.223 . S
Cd155 O158 2.297 . S
Cd155 O159 2.439 . S
Cd155 O165 2.240 . S
Cd156 O157 2.240 . S
Cd156 O164 2.223 . S
Cd156 O166 2.297 . S
Cd156 O167 2.439 . S
O157 Cd156 2.240 . S
O157 C162 1.279 . S
O158 Cd155 2.297 . S
O158 C160 1.247 . S
O159 Cd155 2.439 . S
O159 C160 1.208 . S
C160 O158 1.247 . S
C160 O159 1.208 . S
C161 O166 1.247 . S
C161 O167 1.208 . S
C162 O154 1.315 . S
C162 O157 1.279 . S
C163 O164 1.315 . S
C163 O165 1.279 . S
O164 Cd156 2.223 . S
O164 C163 1.315 . S
O165 Cd155 2.240 . S
O165 C163 1.279 . S
O166 Cd156 2.297 . S
O166 C161 1.247 . S
O167 Cd156 2.439 . S
O167 C161 1.208 . S
O168 Cd169 2.223 . S
O168 C176 1.315 1_655 S
Cd169 O168 2.223 . S
Cd169 O172 2.297 . S
Cd169 O173 2.439 1_655 S
Cd169 O179 2.240 1_655 S
Cd170 O171 2.240 . S
Cd170 O178 2.223 . S
Cd170 O180 2.297 . S
Cd170 O181 2.439 . S
O171 Cd170 2.240 . S
O171 C176 1.279 . S
O172 Cd169 2.297 . S
O172 C174 1.305 . S
O173 Cd169 2.439 1_455 S
O173 C174 1.160 1_455 S
C174 O172 1.305 . S
C174 O173 1.160 1_655 S
C175 O180 1.247 . S
C175 O181 1.208 . S
C176 O168 1.315 1_455 S
C176 O171 1.279 . S
C177 O178 1.315 . S
C177 O179 1.279 . S
O178 Cd170 2.223 . S
O178 C177 1.315 . S
O179 Cd169 2.240 1_455 S
O179 C177 1.279 . S
O180 Cd170 2.297 . S
O180 C175 1.247 . S
O181 Cd170 2.439 . S
O181 C175 1.208 . S
O182 Cd183 2.223 . S
O182 C190 1.315 . S
Cd183 O182 2.223 . S
Cd183 O186 2.297 . S
Cd183 O187 2.439 . S
Cd183 O193 2.240 . S
Cd184 O185 2.240 . S
Cd184 O192 2.223 . S
Cd184 O194 2.297 . S
Cd184 O195 2.439 . S
O185 Cd184 2.240 . S
O185 C190 1.279 . S
O186 Cd183 2.297 . S
O186 C188 1.247 . S
O187 Cd183 2.439 . S
O187 C188 1.208 . S
C188 O186 1.247 . S
C188 O187 1.208 . S
C189 O194 1.247 . S
C189 O195 1.208 . S
C190 O182 1.315 . S
C190 O185 1.279 . S
C191 O192 1.315 . S
C191 O193 1.279 . S
O192 Cd184 2.223 . S
O192 C191 1.315 . S
O193 Cd183 2.240 . S
O193 C191 1.279 . S
O194 Cd184 2.297 . S
O194 C189 1.247 . S
O195 Cd184 2.439 . S
O195 C189 1.208 . S
O196 Cd197 2.223 . S
O196 C204 1.315 1_545 S
Cd197 O196 2.223 . S
Cd197 O200 2.297 . S
Cd197 O201 2.439 1_545 S
Cd197 O207 2.240 1_545 S
Cd198 O199 2.240 . S
Cd198 O206 2.223 . S
Cd198 O208 2.297 . S
Cd198 O209 2.439 . S
O199 Cd198 2.240 . S
O199 C204 1.279 . S
O200 Cd197 2.297 . S
O200 C202 1.266 . S
O201 Cd197 2.439 1_565 S
O201 C202 1.190 1_565 S
C202 O200 1.266 . S
C202 O201 1.190 1_545 S
C203 O208 1.247 . S
C203 O209 1.208 . S
C204 O196 1.315 1_565 S
C204 O199 1.279 . S
C205 O206 1.315 . S
C205 O207 1.279 . S
O206 Cd198 2.223 . S
O206 C205 1.315 . S
O207 Cd197 2.240 1_565 S
O207 C205 1.279 . S
O208 Cd198 2.297 . S
O208 C203 1.247 . S
O209 Cd198 2.439 . S
O209 C203 1.208 . S
O210 Cd211 2.223 . S
O210 C218 1.315 . S
Cd211 O210 2.223 . S
Cd211 O214 2.297 . S
Cd211 O215 2.439 . S
Cd211 O221 2.240 . S
Cd212 O213 2.240 . S
Cd212 O220 2.223 . S
Cd212 O222 2.297 . S
Cd212 O223 2.439 . S
O213 Cd212 2.240 . S
O213 C218 1.279 . S
O214 Cd211 2.297 . S
O214 C216 1.247 . S
O215 Cd211 2.439 . S
O215 C216 1.208 . S
C216 O214 1.247 . S
C216 O215 1.208 . S
C217 O222 1.247 . S
C217 O223 1.208 . S
C218 O210 1.315 . S
C218 O213 1.279 . S
C219 O220 1.315 . S
C219 O221 1.279 . S
O220 Cd212 2.223 . S
O220 C219 1.315 . S
O221 Cd211 2.240 . S
O221 C219 1.279 . S
O222 Cd212 2.297 . S
O222 C217 1.247 . S
O223 Cd212 2.439 . S
O223 C217 1.208 . S
O224 Cd225 2.223 . S
O224 C232 1.315 . S
Cd225 O224 2.223 . S
Cd225 O228 2.297 . S
Cd225 O229 2.439 . S
Cd225 O235 2.240 . S
Cd226 O227 2.240 . S
Cd226 O234 2.223 . S
Cd226 O236 2.297 . S
Cd226 O237 2.439 . S
O227 Cd226 2.240 . S
O227 C232 1.279 . S
O228 Cd225 2.297 . S
O228 C230 1.247 . S
O229 Cd225 2.439 . S
O229 C230 1.208 . S
C230 O228 1.247 . S
C230 O229 1.208 . S
C231 O236 1.247 . S
C231 O237 1.208 . S
C232 O224 1.315 . S
C232 O227 1.279 . S
C233 O234 1.315 . S
C233 O235 1.279 . S
O234 Cd226 2.223 . S
O234 C233 1.315 . S
O235 Cd225 2.240 . S
O235 C233 1.279 . S
O236 Cd226 2.297 . S
O236 C231 1.247 . S
O237 Cd226 2.439 . S
O237 C231 1.208 . S
O238 Cd239 2.223 . S
O238 C246 1.315 . S
Cd239 O238 2.223 . S
Cd239 O242 2.297 . S
Cd239 O243 2.439 . S
Cd239 O249 2.240 . S
Cd240 O241 2.240 . S
Cd240 O248 2.223 . S
Cd240 O250 2.297 . S
Cd240 O251 2.439 . S
O241 Cd240 2.240 . S
O241 C246 1.279 . S
O242 Cd239 2.297 . S
O242 C244 1.247 . S
O243 Cd239 2.439 . S
O243 C244 1.208 . S
C244 O242 1.247 . S
C244 O243 1.208 . S
C245 O250 1.247 . S
C245 O251 1.208 . S
C246 O238 1.315 . S
C246 O241 1.279 . S
C247 O248 1.315 . S
C247 O249 1.279 . S
O248 Cd240 2.223 . S
O248 C247 1.315 . S
O249 Cd239 2.240 . S
O249 C247 1.279 . S
O250 Cd240 2.297 . S
O250 C245 1.247 . S
O251 Cd240 2.439 . S
O251 C245 1.208 . S
O252 Cd253 2.223 . S
O252 C260 1.315 . S
Cd253 O252 2.223 . S
Cd253 O256 2.297 . S
Cd253 O257 2.439 . S
Cd253 O263 2.240 . S
Cd254 O255 2.240 . S
Cd254 O262 2.223 . S
Cd254 O264 2.297 . S
Cd254 O265 2.439 . S
O255 Cd254 2.240 . S
O255 C260 1.279 . S
O256 Cd253 2.297 . S
O256 C258 1.247 . S
O257 Cd253 2.439 . S
O257 C258 1.208 . S
C258 O256 1.247 . S
C258 O257 1.208 . S
C259 O264 1.247 . S
C259 O265 1.208 . S
C260 O252 1.315 . S
C260 O255 1.279 . S
C261 O262 1.315 . S
C261 O263 1.279 . S
O262 Cd254 2.223 . S
O262 C261 1.315 . S
O263 Cd253 2.240 . S
O263 C261 1.279 . S
O264 Cd254 2.297 . S
O264 C259 1.247 . S
O265 Cd254 2.439 . S
O265 C259 1.208 . S
O266 Cd267 2.223 . S
O266 C274 1.315 . S
Cd267 O266 2.223 . S
Cd267 O270 2.297 . S
Cd267 O271 2.439 . S
Cd267 O277 2.240 . S
Cd268 O269 2.240 . S
Cd268 O276 2.223 . S
Cd268 O278 2.297 . S
Cd268 O279 2.439 . S
O269 Cd268 2.240 . S
O269 C274 1.279 . S
O270 Cd267 2.297 . S
O270 C272 1.247 . S
O271 Cd267 2.439 . S
O271 C272 1.208 . S
C272 O270 1.247 . S
C272 O271 1.208 . S
C273 O278 1.247 . S
C273 O279 1.208 . S
C274 O266 1.315 . S
C274 O269 1.279 . S
C275 O276 1.315 . S
C275 O277 1.279 . S
O276 Cd268 2.223 . S
O276 C275 1.315 . S
O277 Cd267 2.240 . S
O277 C275 1.279 . S
O278 Cd268 2.297 . S
O278 C273 1.247 . S
O279 Cd268 2.439 . S
O279 C273 1.208 . S
O280 Cd281 2.223 . S
O280 C288 1.315 . S
Cd281 O280 2.223 . S
Cd281 O284 2.297 . S
Cd281 O285 2.439 . S
Cd281 O291 2.240 . S
Cd282 O283 2.240 . S
Cd282 O290 2.223 . S
Cd282 O292 2.297 . S
Cd282 O293 2.439 . S
O283 Cd282 2.240 . S
O283 C288 1.279 . S
O284 Cd281 2.297 . S
O284 C286 1.247 . S
O285 Cd281 2.439 . S
O285 C286 1.208 . S
C286 O284 1.247 . S
C286 O285 1.208 . S
C287 O292 1.247 . S
C287 O293 1.208 . S
C288 O280 1.315 . S
C288 O283 1.279 . S
C289 O290 1.315 . S
C289 O291 1.279 . S
O290 Cd282 2.223 . S
O290 C289 1.315 . S
O291 Cd281 2.240 . S
O291 C289 1.279 . S
O292 Cd282 2.297 . S
O292 C287 1.247 . S
O293 Cd282 2.439 . S
O293 C287 1.208 . S
O294 Cd295 2.225 . S
O294 C302 1.315 . S
Cd295 O294 2.225 . S
Cd295 O298 2.297 1_565 S
Cd295 O299 2.439 . S
Cd295 O305 2.240 1_554 S
Cd296 O297 2.240 1_556 S
Cd296 O304 2.223 . S
Cd296 O306 2.297 . S
Cd296 O307 2.439 1_556 S
O297 Cd296 2.240 1_554 S
O297 C302 1.279 . S
O298 Cd295 2.297 1_545 S
O298 C300 1.247 1_545 S
O299 Cd295 2.439 . S
O299 C300 1.208 . S
C300 O298 1.247 1_565 S
C300 O299 1.208 . S
C301 O306 1.247 . S
C301 O307 1.209 1_556 S
C302 O294 1.315 . S
C302 O297 1.279 . S
C303 O304 1.315 . S
C303 O305 1.279 . S
O304 Cd296 2.223 . S
O304 C303 1.315 . S
O305 Cd295 2.240 1_556 S
O305 C303 1.279 . S
O306 Cd296 2.297 . S
O306 C301 1.247 . S
O307 Cd296 2.439 1_554 S
O307 C301 1.209 1_554 S
O308 Cd309 2.225 . S
O308 C316 1.315 . S
Cd309 O308 2.225 . S
Cd309 O312 2.297 1_455 S
Cd309 O313 2.439 . S
Cd309 O319 2.240 1_554 S
Cd310 O311 2.240 1_556 S
Cd310 O318 2.223 . S
Cd310 O320 2.297 . S
Cd310 O321 2.439 1_556 S
O311 Cd310 2.240 1_554 S
O311 C316 1.279 . S
O312 Cd309 2.297 1_655 S
O312 C314 1.247 1_655 S
O313 Cd309 2.439 . S
O313 C314 1.208 . S
C314 O312 1.247 1_455 S
C314 O313 1.208 . S
C315 O320 1.247 . S
C315 O321 1.209 1_556 S
C316 O308 1.315 . S
C316 O311 1.279 . S
C317 O318 1.315 . S
C317 O319 1.279 . S
O318 Cd310 2.223 . S
O318 C317 1.315 . S
O319 Cd309 2.240 1_556 S
O319 C317 1.279 . S
O320 Cd310 2.297 . S
O320 C315 1.247 . S
O321 Cd310 2.439 1_554 S
O321 C315 1.209 1_554 S
O322 Cd323 2.225 . S
O322 C330 1.315 . S
Cd323 O322 2.225 . S
Cd323 O326 2.297 . S
Cd323 O327 2.439 . S
Cd323 O333 2.240 1_554 S
Cd324 O325 2.240 1_556 S
Cd324 O332 2.223 . S
Cd324 O334 2.297 . S
Cd324 O335 2.439 1_556 S
O325 Cd324 2.240 1_554 S
O325 C330 1.279 . S
O326 Cd323 2.297 . S
O326 C328 1.247 . S
O327 Cd323 2.439 . S
O327 C328 1.208 . S
C328 O326 1.247 . S
C328 O327 1.208 . S
C329 O334 1.247 . S
C329 O335 1.209 1_556 S
C330 O322 1.315 . S
C330 O325 1.279 . S
C331 O332 1.315 . S
C331 O333 1.279 . S
O332 Cd324 2.223 . S
O332 C331 1.315 . S
O333 Cd323 2.240 1_556 S
O333 C331 1.279 . S
O334 Cd324 2.297 . S
O334 C329 1.247 . S
O335 Cd324 2.439 1_554 S
O335 C329 1.209 1_554 S
O336 Cd337 2.223 . S
O336 C344 1.315 . S
Cd337 O336 2.223 . S
Cd337 O340 2.297 . S
Cd337 O341 2.439 . S
Cd337 O347 2.240 . S
Cd338 O339 2.240 . S
Cd338 O346 2.223 . S
Cd338 O348 2.297 . S
Cd338 O349 2.439 . S
O339 Cd338 2.240 . S
O339 C344 1.279 . S
O340 Cd337 2.297 . S
O340 C342 1.247 . S
O341 Cd337 2.439 . S
O341 C342 1.208 . S
C342 O340 1.247 . S
C342 O341 1.208 . S
C343 O348 1.247 . S
C343 O349 1.208 . S
C344 O336 1.315 . S
C344 O339 1.279 . S
C345 O346 1.315 . S
C345 O347 1.279 . S
O346 Cd338 2.223 . S
O346 C345 1.315 . S
O347 Cd337 2.240 . S
O347 C345 1.279 . S
O348 Cd338 2.297 . S
O348 C343 1.247 . S
O349 Cd338 2.439 . S
O349 C343 1.208 . S
O350 Cd351 2.223 . S
O350 C358 1.315 . S
Cd351 O350 2.223 . S
Cd351 O354 2.297 . S
Cd351 O355 2.439 . S
Cd351 O361 2.240 . S
Cd352 O353 2.240 . S
Cd352 O360 2.223 . S
Cd352 O362 2.297 . S
Cd352 O363 2.439 . S
O353 Cd352 2.240 . S
O353 C358 1.279 . S
O354 Cd351 2.297 . S
O354 C356 1.247 . S
O355 Cd351 2.439 . S
O355 C356 1.208 . S
C356 O354 1.247 . S
C356 O355 1.208 . S
C357 O362 1.247 . S
C357 O363 1.208 . S
C358 O350 1.315 . S
C358 O353 1.279 . S
C359 O360 1.315 . S
C359 O361 1.279 . S
O360 Cd352 2.223 . S
O360 C359 1.315 . S
O361 Cd351 2.240 . S
O361 C359 1.279 . S
O362 Cd352 2.297 . S
O362 C357 1.247 . S
O363 Cd352 2.439 . S
O363 C357 1.208 . S
O364 Cd365 2.223 . S
O364 C372 1.315 . S
Cd365 O364 2.223 . S
Cd365 O368 2.297 . S
Cd365 O369 2.439 . S
Cd365 O375 2.240 . S
Cd366 O367 2.240 . S
Cd366 O374 2.223 . S
Cd366 O376 2.297 . S
Cd366 O377 2.439 . S
O367 Cd366 2.240 . S
O367 C372 1.279 . S
O368 Cd365 2.297 . S
O368 C370 1.247 . S
O369 Cd365 2.439 . S
O369 C370 1.208 . S
C370 O368 1.247 . S
C370 O369 1.208 . S
C371 O376 1.247 . S
C371 O377 1.208 . S
C372 O364 1.315 . S
C372 O367 1.279 . S
C373 O374 1.315 . S
C373 O375 1.279 . S
O374 Cd366 2.223 . S
O374 C373 1.315 . S
O375 Cd365 2.240 . S
O375 C373 1.279 . S
O376 Cd366 2.297 . S
O376 C371 1.247 . S
O377 Cd366 2.439 . S
O377 C371 1.208 . S
O378 Cd379 2.225 . S
O378 C386 1.315 . S
Cd379 O378 2.225 . S
Cd379 O382 2.297 1_545 S
Cd379 O383 2.439 . S
Cd379 O389 2.240 1_556 S
Cd380 O381 2.240 1_554 S
Cd380 O388 2.223 . S
Cd380 O390 2.297 . S
Cd380 O391 2.439 1_554 S
O381 Cd380 2.240 1_556 S
O381 C386 1.279 . S
O382 Cd379 2.297 1_565 S
O382 C384 1.247 1_565 S
O383 Cd379 2.439 . S
O383 C384 1.208 . S
C384 O382 1.247 1_545 S
C384 O383 1.208 . S
C385 O390 1.247 . S
C385 O391 1.209 1_554 S
C386 O378 1.315 . S
C386 O381 1.279 . S
C387 O388 1.315 . S
C387 O389 1.279 . S
O388 Cd380 2.223 . S
O388 C387 1.315 . S
O389 Cd379 2.240 1_554 S
O389 C387 1.279 . S
O390 Cd380 2.297 . S
O390 C385 1.247 . S
O391 Cd380 2.439 1_556 S
O391 C385 1.209 1_556 S
O392 Cd393 2.225 . S
O392 C400 1.315 . S
Cd393 O392 2.225 . S
Cd393 O396 2.297 1_655 S
Cd393 O397 2.439 . S
Cd393 O403 2.240 1_556 S
Cd394 O395 2.240 1_554 S
Cd394 O402 2.223 . S
Cd394 O404 2.297 . S
Cd394 O405 2.439 1_554 S
O395 Cd394 2.240 1_556 S
O395 C400 1.279 . S
O396 Cd393 2.297 1_455 S
O396 C398 1.247 1_455 S
O397 Cd393 2.439 . S
O397 C398 1.208 . S
C398 O396 1.247 1_655 S
C398 O397 1.208 . S
C399 O404 1.247 . S
C399 O405 1.209 1_554 S
C400 O392 1.315 . S
C400 O395 1.279 . S
C401 O402 1.315 . S
C401 O403 1.279 . S
O402 Cd394 2.223 . S
O402 C401 1.315 . S
O403 Cd393 2.240 1_554 S
O403 C401 1.279 . S
O404 Cd394 2.297 . S
O404 C399 1.247 . S
O405 Cd394 2.439 1_556 S
O405 C399 1.209 1_556 S
O406 Cd407 2.225 . S
O406 C414 1.315 . S
Cd407 O406 2.225 . S
Cd407 O410 2.297 . S
Cd407 O411 2.439 . S
Cd407 O417 2.240 1_556 S
Cd408 O409 2.240 1_554 S
Cd408 O416 2.223 . S
Cd408 O418 2.297 . S
Cd408 O419 2.439 1_554 S
O409 Cd408 2.240 1_556 S
O409 C414 1.279 . S
O410 Cd407 2.297 . S
O410 C412 1.247 . S
O411 Cd407 2.439 . S
O411 C412 1.208 . S
C412 O410 1.247 . S
C412 O411 1.208 . S
C413 O418 1.247 . S
C413 O419 1.209 1_554 S
C414 O406 1.315 . S
C414 O409 1.279 . S
C415 O416 1.315 . S
C415 O417 1.279 . S
O416 Cd408 2.223 . S
O416 C415 1.315 . S
O417 Cd407 2.240 1_554 S
O417 C415 1.279 . S
O418 Cd408 2.297 . S
O418 C413 1.247 . S
O419 Cd408 2.439 1_556 S
O419 C413 1.209 1_556 S
O420 Cd421 2.223 . S
O420 C428 1.315 1_455 S
Cd421 O420 2.223 . S
Cd421 O424 2.297 . S
Cd421 O425 2.439 1_455 S
Cd421 O431 2.240 1_455 S
Cd422 O423 2.240 . S
Cd422 O430 2.223 . S
Cd422 O432 2.297 . S
Cd422 O433 2.439 . S
O423 Cd422 2.240 . S
O423 C428 1.279 . S
O424 Cd421 2.297 . S
O424 C426 1.305 . S
O425 Cd421 2.439 1_655 S
O425 C426 1.160 1_655 S
C426 O424 1.305 . S
C426 O425 1.160 1_455 S
C427 O432 1.247 . S
C427 O433 1.208 . S
C428 O420 1.315 1_655 S
C428 O423 1.279 . S
C429 O430 1.315 . S
C429 O431 1.279 . S
O430 Cd422 2.223 . S
O430 C429 1.315 . S
O431 Cd421 2.240 1_655 S
O431 C429 1.279 . S
O432 Cd422 2.297 . S
O432 C427 1.247 . S
O433 Cd422 2.439 . S
O433 C427 1.208 . S
O434 Cd435 2.223 . S
O434 C442 1.315 . S
Cd435 O434 2.223 . S
Cd435 O438 2.297 . S
Cd435 O439 2.439 . S
Cd435 O445 2.240 . S
Cd436 O437 2.240 . S
Cd436 O444 2.223 . S
Cd436 O446 2.297 . S
Cd436 O447 2.439 . S
O437 Cd436 2.240 . S
O437 C442 1.279 . S
O438 Cd435 2.297 . S
O438 C440 1.247 . S
O439 Cd435 2.439 . S
O439 C440 1.208 . S
C440 O438 1.247 . S
C440 O439 1.208 . S
C441 O446 1.247 . S
C441 O447 1.208 . S
C442 O434 1.315 . S
C442 O437 1.279 . S
C443 O444 1.315 . S
C443 O445 1.279 . S
O444 Cd436 2.223 . S
O444 C443 1.315 . S
O445 Cd435 2.240 . S
O445 C443 1.279 . S
O446 Cd436 2.297 . S
O446 C441 1.247 . S
O447 Cd436 2.439 . S
O447 C441 1.208 . S
O448 Cd449 2.223 . S
O448 C456 1.315 1_565 S
Cd449 O448 2.223 . S
Cd449 O452 2.297 . S
Cd449 O453 2.439 1_565 S
Cd449 O459 2.240 1_565 S
Cd450 O451 2.240 . S
Cd450 O458 2.223 . S
Cd450 O460 2.297 . S
Cd450 O461 2.439 . S
O451 Cd450 2.240 . S
O451 C456 1.279 . S
O452 Cd449 2.297 . S
O452 C454 1.266 . S
O453 Cd449 2.439 1_545 S
O453 C454 1.190 1_545 S
C454 O452 1.266 . S
C454 O453 1.190 1_565 S
C455 O460 1.247 . S
C455 O461 1.208 . S
C456 O448 1.315 1_545 S
C456 O451 1.279 . S
C457 O458 1.315 . S
C457 O459 1.279 . S
O458 Cd450 2.223 . S
O458 C457 1.315 . S
O459 Cd449 2.240 1_545 S
O459 C457 1.279 . S
O460 Cd450 2.297 . S
O460 C455 1.247 . S
O461 Cd450 2.439 . S
O461 C455 1.208 . S
O462 Cd463 2.223 . S
O462 C470 1.315 . S
Cd463 O462 2.223 . S
Cd463 O466 2.297 . S
Cd463 O467 2.439 . S
Cd463 O473 2.240 . S
Cd464 O465 2.240 . S
Cd464 O472 2.223 . S
Cd464 O474 2.297 . S
Cd464 O475 2.439 . S
O465 Cd464 2.240 . S
O465 C470 1.279 . S
O466 Cd463 2.297 . S
O466 C468 1.247 . S
O467 Cd463 2.439 . S
O467 C468 1.208 . S
C468 O466 1.247 . S
C468 O467 1.208 . S
C469 O474 1.247 . S
C469 O475 1.208 . S
C470 O462 1.315 . S
C470 O465 1.279 . S
C471 O472 1.315 . S
C471 O473 1.279 . S
O472 Cd464 2.223 . S
O472 C471 1.315 . S
O473 Cd463 2.240 . S
O473 C471 1.279 . S
O474 Cd464 2.297 . S
O474 C469 1.247 . S
O475 Cd464 2.439 . S
O475 C469 1.208 . S
O476 Cd477 2.223 . S
O476 C484 1.315 . S
Cd477 O476 2.223 . S
Cd477 O480 2.297 . S
Cd477 O481 2.439 . S
Cd477 O487 2.240 . S
Cd478 O479 2.240 . S
Cd478 O486 2.223 . S
Cd478 O488 2.297 . S
Cd478 O489 2.439 . S
O479 Cd478 2.240 . S
O479 C484 1.279 . S
O480 Cd477 2.297 . S
O480 C482 1.247 . S
O481 Cd477 2.439 . S
O481 C482 1.208 . S
C482 O480 1.247 . S
C482 O481 1.208 . S
C483 O488 1.247 . S
C483 O489 1.208 . S
C484 O476 1.315 . S
C484 O479 1.279 . S
C485 O486 1.315 . S
C485 O487 1.279 . S
O486 Cd478 2.223 . S
O486 C485 1.315 . S
O487 Cd477 2.240 . S
O487 C485 1.279 . S
O488 Cd478 2.297 . S
O488 C483 1.247 . S
O489 Cd478 2.439 . S
O489 C483 1.208 . S
O490 Cd491 2.223 . S
O490 C498 1.315 . S
Cd491 O490 2.223 . S
Cd491 O494 2.297 . S
Cd491 O495 2.439 . S
Cd491 O501 2.240 . S
Cd492 O493 2.240 . S
Cd492 O500 2.223 . S
Cd492 O502 2.297 . S
Cd492 O503 2.439 . S
O493 Cd492 2.240 . S
O493 C498 1.279 . S
O494 Cd491 2.297 . S
O494 C496 1.247 . S
O495 Cd491 2.439 . S
O495 C496 1.208 . S
C496 O494 1.247 . S
C496 O495 1.208 . S
C497 O502 1.247 . S
C497 O503 1.208 . S
C498 O490 1.315 . S
C498 O493 1.279 . S
C499 O500 1.315 . S
C499 O501 1.279 . S
O500 Cd492 2.223 . S
O500 C499 1.315 . S
O501 Cd491 2.240 . S
O501 C499 1.279 . S
O502 Cd492 2.297 . S
O502 C497 1.247 . S
O503 Cd492 2.439 . S
O503 C497 1.208 . S
C504 C505 1.369 . S
C504 C506 1.419 . S
C504 H508 0.930 . S
C505 C504 1.369 . S
C505 C514 1.429 . S
C506 C504 1.419 . S
C506 C507 1.363 . S
C506 H509 0.929 . S
C507 C506 1.363 . S
C507 C513 1.428 . S
H508 C504 0.930 . S
H509 C506 0.929 . S
S510 N511 1.613 . S
S510 N512 1.610 . S
N511 S510 1.613 . S
N511 C514 1.350 . S
N512 S510 1.610 . S
N512 C513 1.351 . S
C513 C507 1.428 . S
C513 N512 1.351 . S
C513 C514 1.434 . S
C514 C505 1.429 . S
C514 N511 1.350 . S
C514 C513 1.434 . S
C515 C516 1.369 . S
C515 C517 1.419 . S
C515 H519 0.930 . S
C516 C515 1.369 . S
C516 C525 1.429 . S
C517 C515 1.419 . S
C517 C518 1.363 . S
C517 H520 0.929 . S
C518 C517 1.363 . S
C518 C524 1.428 . S
H519 C515 0.930 . S
H520 C517 0.929 . S
S521 N522 1.613 . S
S521 N523 1.610 . S
N522 S521 1.613 . S
N522 C525 1.350 . S
N523 S521 1.610 . S
N523 C524 1.351 . S
C524 C518 1.428 . S
C524 N523 1.351 . S
C524 C525 1.434 . S
C525 C516 1.429 . S
C525 N522 1.350 . S
C525 C524 1.434 . S
C526 C527 1.369 . S
C526 C528 1.419 . S
C526 H530 0.930 . S
C527 C526 1.369 . S
C527 C536 1.429 . S
C528 C526 1.419 . S
C528 C529 1.363 . S
C528 H531 0.929 . S
C529 C528 1.363 . S
C529 C535 1.428 . S
H530 C526 0.930 . S
H531 C528 0.929 . S
S532 N533 1.613 . S
S532 N534 1.610 . S
N533 S532 1.613 . S
N533 C536 1.350 . S
N534 S532 1.610 . S
N534 C535 1.351 . S
C535 C529 1.428 . S
C535 N534 1.351 . S
C535 C536 1.434 . S
C536 C527 1.429 . S
C536 N533 1.350 . S
C536 C535 1.434 . S
C537 C538 1.369 . S
C537 C539 1.419 . S
C537 H541 0.930 . S
C538 C537 1.369 . S
C538 C547 1.429 . S
C539 C537 1.419 . S
C539 C540 1.363 . S
C539 H542 0.929 . S
C540 C539 1.363 . S
C540 C546 1.428 . S
H541 C537 0.930 . S
H542 C539 0.929 . S
S543 N544 1.613 . S
S543 N545 1.610 . S
N544 S543 1.613 . S
N544 C547 1.350 . S
N545 S543 1.610 . S
N545 C546 1.351 . S
C546 C540 1.428 . S
C546 N545 1.351 . S
C546 C547 1.434 . S
C547 C538 1.429 . S
C547 N544 1.350 . S
C547 C546 1.434 . S
C548 C549 1.369 . S
C548 C550 1.419 . S
C548 H552 0.930 . S
C549 C548 1.369 . S
C549 C558 1.429 . S
C550 C548 1.419 . S
C550 C551 1.363 . S
C550 H553 0.929 . S
C551 C550 1.363 . S
C551 C557 1.428 . S
H552 C548 0.930 . S
H553 C550 0.929 . S
S554 N555 1.613 . S
S554 N556 1.610 . S
N555 S554 1.613 . S
N555 C558 1.350 . S
N556 S554 1.610 . S
N556 C557 1.351 . S
C557 C551 1.428 . S
C557 N556 1.351 . S
C557 C558 1.434 . S
C558 C549 1.429 . S
C558 N555 1.350 . S
C558 C557 1.434 . S
C559 C560 1.369 . S
C559 C561 1.419 . S
C559 H563 0.930 . S
C560 C559 1.369 . S
C560 C569 1.429 . S
C561 C559 1.419 . S
C561 C562 1.363 . S
C561 H564 0.929 . S
C562 C561 1.363 . S
C562 C568 1.428 . S
H563 C559 0.930 . S
H564 C561 0.929 . S
S565 N566 1.613 . S
S565 N567 1.610 . S
N566 S565 1.613 . S
N566 C569 1.350 . S
N567 S565 1.610 . S
N567 C568 1.351 . S
C568 C562 1.428 . S
C568 N567 1.351 . S
C568 C569 1.434 . S
C569 C560 1.429 . S
C569 N566 1.350 . S
C569 C568 1.434 . S
C570 C571 1.369 . S
C570 C572 1.419 . S
C570 H574 0.930 . S
C571 C570 1.369 . S
C571 C580 1.429 . S
C572 C570 1.419 . S
C572 C573 1.363 . S
C572 H575 0.929 . S
C573 C572 1.363 . S
C573 C579 1.428 . S
H574 C570 0.930 . S
H575 C572 0.929 . S
S576 N577 1.613 . S
S576 N578 1.610 . S
N577 S576 1.613 . S
N577 C580 1.350 . S
N578 S576 1.610 . S
N578 C579 1.351 . S
C579 C573 1.428 . S
C579 N578 1.351 . S
C579 C580 1.434 . S
C580 C571 1.429 . S
C580 N577 1.350 . S
C580 C579 1.434 . S
C581 C582 1.369 . S
C581 C583 1.419 . S
C581 H585 0.930 . S
C582 C581 1.369 . S
C582 C591 1.429 . S
C583 C581 1.419 . S
C583 C584 1.363 . S
C583 H586 0.929 . S
C584 C583 1.363 . S
C584 C590 1.428 . S
H585 C581 0.930 . S
H586 C583 0.929 . S
S587 N588 1.613 . S
S587 N589 1.610 . S
N588 S587 1.613 . S
N588 C591 1.350 . S
N589 S587 1.610 . S
N589 C590 1.351 . S
C590 C584 1.428 . S
C590 N589 1.351 . S
C590 C591 1.434 . S
C591 C582 1.429 . S
C591 N588 1.350 . S
C591 C590 1.434 . S
C592 C593 1.369 . S
C592 C594 1.419 . S
C592 H596 0.930 . S
C593 C592 1.369 . S
C593 C602 1.429 . S
C594 C592 1.419 . S
C594 C595 1.363 . S
C594 H597 0.929 . S
C595 C594 1.363 . S
C595 C601 1.428 . S
H596 C592 0.930 . S
H597 C594 0.929 . S
S598 N599 1.613 . S
S598 N600 1.610 . S
N599 S598 1.613 . S
N599 C602 1.350 . S
N600 S598 1.610 . S
N600 C601 1.351 . S
C601 C595 1.428 . S
C601 N600 1.351 . S
C601 C602 1.434 . S
C602 C593 1.429 . S
C602 N599 1.350 . S
C602 C601 1.434 . S
C603 C604 1.369 . S
C603 C605 1.419 . S
C603 H607 0.930 . S
C604 C603 1.369 . S
C604 C613 1.429 . S
C605 C603 1.419 . S
C605 C606 1.363 . S
C605 H608 0.929 . S
C606 C605 1.363 . S
C606 C612 1.428 . S
H607 C603 0.930 . S
H608 C605 0.929 . S
S609 N610 1.613 . S
S609 N611 1.610 . S
N610 S609 1.613 . S
N610 C613 1.350 . S
N611 S609 1.610 . S
N611 C612 1.351 . S
C612 C606 1.428 . S
C612 N611 1.351 . S
C612 C613 1.434 . S
C613 C604 1.429 . S
C613 N610 1.350 . S
C613 C612 1.434 . S
C614 C615 1.369 . S
C614 C616 1.419 . S
C614 H618 0.930 . S
C615 C614 1.369 . S
C615 C624 1.429 . S
C616 C614 1.419 . S
C616 C617 1.363 . S
C616 H619 0.929 . S
C617 C616 1.363 . S
C617 C623 1.428 . S
H618 C614 0.930 . S
H619 C616 0.929 . S
S620 N621 1.613 . S
S620 N622 1.610 . S
N621 S620 1.613 . S
N621 C624 1.350 . S
N622 S620 1.610 . S
N622 C623 1.351 . S
C623 C617 1.428 . S
C623 N622 1.351 . S
C623 C624 1.434 . S
C624 C615 1.429 . S
C624 N621 1.350 . S
C624 C623 1.434 . S
C625 C626 1.369 . S
C625 C627 1.419 . S
C625 H629 0.930 . S
C626 C625 1.369 . S
C626 C635 1.429 . S
C627 C625 1.419 . S
C627 C628 1.363 . S
C627 H630 0.929 . S
C628 C627 1.363 . S
C628 C634 1.428 . S
H629 C625 0.930 . S
H630 C627 0.929 . S
S631 N632 1.613 . S
S631 N633 1.610 . S
N632 S631 1.613 . S
N632 C635 1.350 . S
N633 S631 1.610 . S
N633 C634 1.351 . S
C634 C628 1.428 . S
C634 N633 1.351 . S
C634 C635 1.434 . S
C635 C626 1.429 . S
C635 N632 1.350 . S
C635 C634 1.434 . S
C636 C637 1.369 1_455 S
C636 C638 1.419 . S
C636 H640 0.930 . S
C637 C636 1.369 1_655 S
C637 C646 1.429 . S
C638 C636 1.419 . S
C638 C639 1.363 1_455 S
C638 H641 0.929 . S
C639 C638 1.363 1_655 S
C639 C645 1.428 . S
H640 C636 0.930 . S
H641 C638 0.929 . S
S642 N643 1.613 . S
S642 N644 1.610 . S
N643 S642 1.613 . S
N643 C646 1.350 . S
N644 S642 1.610 . S
N644 C645 1.351 . S
C645 C639 1.428 . S
C645 N644 1.351 . S
C645 C646 1.434 . S
C646 C637 1.429 . S
C646 N643 1.350 . S
C646 C645 1.434 . S
C647 C648 1.369 . S
C647 C649 1.419 . S
C647 H651 0.930 . S
C648 C647 1.369 . S
C648 C657 1.429 . S
C649 C647 1.419 . S
C649 C650 1.363 . S
C649 H652 0.929 . S
C650 C649 1.363 . S
C650 C656 1.428 . S
H651 C647 0.930 . S
H652 C649 0.929 . S
S653 N654 1.613 . S
S653 N655 1.610 . S
N654 S653 1.613 . S
N654 C657 1.350 . S
N655 S653 1.610 . S
N655 C656 1.351 . S
C656 C650 1.428 . S
C656 N655 1.351 . S
C656 C657 1.434 . S
C657 C648 1.429 . S
C657 N654 1.350 . S
C657 C656 1.434 . S
C658 C659 1.369 . S
C658 C660 1.419 . S
C658 H662 0.930 . S
C659 C658 1.369 . S
C659 C668 1.429 1_545 S
C660 C658 1.419 . S
C660 C661 1.363 . S
C660 H663 0.929 . S
C661 C660 1.363 . S
C661 C667 1.428 1_545 S
H662 C658 0.930 . S
H663 C660 0.929 . S
S664 N665 1.613 . S
S664 N666 1.610 . S
N665 S664 1.613 . S
N665 C668 1.350 . S
N666 S664 1.610 . S
N666 C667 1.351 . S
C667 C661 1.428 1_565 S
C667 N666 1.351 . S
C667 C668 1.434 . S
C668 C659 1.429 1_565 S
C668 N665 1.350 . S
C668 C667 1.434 . S
C669 C670 1.369 . S
C669 C671 1.419 . S
C669 H673 0.930 . S
C670 C669 1.369 . S
C670 C679 1.429 1_565 S
C671 C669 1.419 . S
C671 C672 1.363 . S
C671 H674 0.929 . S
C672 C671 1.363 . S
C672 C678 1.428 . S
H673 C669 0.930 . S
H674 C671 0.929 . S
S675 N676 1.613 . S
S675 N677 1.636 . S
N676 S675 1.613 . S
N676 C679 1.350 . S
N677 S675 1.636 . S
N677 C678 1.325 1_545 S
C678 C672 1.428 . S
C678 N677 1.325 1_565 S
C678 C679 1.434 1_565 S
C679 C670 1.429 1_545 S
C679 N676 1.350 . S
C679 C678 1.434 1_545 S
C680 C681 1.369 . S
C680 C682 1.419 . S
C680 H684 0.930 . S
C681 C680 1.369 . S
C681 C690 1.429 1_455 S
C682 C680 1.419 . S
C682 C683 1.363 . S
C682 H685 0.929 . S
C683 C682 1.363 . S
C683 C689 1.428 1_455 S
H684 C680 0.930 . S
H685 C682 0.929 . S
S686 N687 1.613 . S
S686 N688 1.610 . S
N687 S686 1.613 . S
N687 C690 1.350 . S
N688 S686 1.610 . S
N688 C689 1.351 . S
C689 C683 1.428 1_655 S
C689 N688 1.351 . S
C689 C690 1.434 . S
C690 C681 1.429 1_655 S
C690 N687 1.350 . S
C690 C689 1.434 . S
C691 C692 1.369 . S
C691 C693 1.419 . S
C691 H695 0.930 . S
C692 C691 1.369 . S
C692 C701 1.429 . S
C693 C691 1.419 . S
C693 C694 1.363 . S
C693 H696 0.929 . S
C694 C693 1.363 . S
C694 C700 1.428 . S
H695 C691 0.930 . S
H696 C693 0.929 . S
S697 N698 1.613 . S
S697 N699 1.610 . S
N698 S697 1.613 . S
N698 C701 1.350 . S
N699 S697 1.610 . S
N699 C700 1.351 . S
C700 C694 1.428 . S
C700 N699 1.351 . S
C700 C701 1.434 . S
C701 C692 1.429 . S
C701 N698 1.350 . S
C701 C700 1.434 . S
C702 C703 1.369 . S
C702 C704 1.419 . S
C702 H706 0.930 . S
C703 C702 1.369 . S
C703 C712 1.429 . S
C704 C702 1.419 . S
C704 C705 1.363 . S
C704 H707 0.929 . S
C705 C704 1.363 . S
C705 C711 1.428 . S
H706 C702 0.930 . S
H707 C704 0.929 . S
S708 N709 1.613 . S
S708 N710 1.610 . S
N709 S708 1.613 . S
N709 C712 1.350 . S
N710 S708 1.610 . S
N710 C711 1.351 . S
C711 C705 1.428 . S
C711 N710 1.351 . S
C711 C712 1.434 . S
C712 C703 1.429 . S
C712 N709 1.350 . S
C712 C711 1.434 . S
C713 C714 1.369 . S
C713 C715 1.419 . S
C713 H717 0.930 . S
C714 C713 1.369 . S
C714 C723 1.429 . S
C715 C713 1.419 . S
C715 C716 1.363 . S
C715 H718 0.929 . S
C716 C715 1.363 . S
C716 C722 1.428 . S
H717 C713 0.930 . S
H718 C715 0.929 . S
S719 N720 1.613 . S
S719 N721 1.610 . S
N720 S719 1.613 . S
N720 C723 1.350 . S
N721 S719 1.610 . S
N721 C722 1.351 . S
C722 C716 1.428 . S
C722 N721 1.351 . S
C722 C723 1.434 . S
C723 C714 1.429 . S
C723 N720 1.350 . S
C723 C722 1.434 . S
C724 C725 1.369 . S
C724 C726 1.419 . S
C724 H728 0.930 . S
C725 C724 1.369 . S
C725 C734 1.429 . S
C726 C724 1.419 . S
C726 C727 1.363 . S
C726 H729 0.929 . S
C727 C726 1.363 . S
C727 C733 1.428 . S
H728 C724 0.930 . S
H729 C726 0.929 . S
S730 N731 1.613 . S
S730 N732 1.610 . S
N731 S730 1.613 . S
N731 C734 1.350 . S
N732 S730 1.610 . S
N732 C733 1.351 . S
C733 C727 1.428 . S
C733 N732 1.351 . S
C733 C734 1.434 . S
C734 C725 1.429 . S
C734 N731 1.350 . S
C734 C733 1.434 . S
C735 C736 1.369 . S
C735 C737 1.419 . S
C735 H739 0.930 . S
C736 C735 1.369 . S
C736 C745 1.429 . S
C737 C735 1.419 . S
C737 C738 1.363 . S
C737 H740 0.929 . S
C738 C737 1.363 . S
C738 C744 1.428 . S
H739 C735 0.930 . S
H740 C737 0.929 . S
S741 N742 1.613 . S
S741 N743 1.610 . S
N742 S741 1.613 . S
N742 C745 1.350 . S
N743 S741 1.610 . S
N743 C744 1.351 . S
C744 C738 1.428 . S
C744 N743 1.351 . S
C744 C745 1.434 . S
C745 C736 1.429 . S
C745 N742 1.350 . S
C745 C744 1.434 . S
C746 C747 1.369 . S
C746 C748 1.419 . S
C746 H750 0.930 . S
C747 C746 1.369 . S
C747 C756 1.429 . S
C748 C746 1.419 . S
C748 C749 1.363 . S
C748 H751 0.929 . S
C749 C748 1.363 . S
C749 C755 1.428 . S
H750 C746 0.930 . S
H751 C748 0.929 . S
S752 N753 1.613 . S
S752 N754 1.610 . S
N753 S752 1.613 . S
N753 C756 1.350 . S
N754 S752 1.610 . S
N754 C755 1.351 . S
C755 C749 1.428 . S
C755 N754 1.351 . S
C755 C756 1.434 . S
C756 C747 1.429 . S
C756 N753 1.350 . S
C756 C755 1.434 . S
C757 C758 1.369 . S
C757 C759 1.419 . S
C757 H761 0.930 . S
C758 C757 1.369 . S
C758 C767 1.429 . S
C759 C757 1.419 . S
C759 C760 1.363 . S
C759 H762 0.929 . S
C760 C759 1.363 . S
C760 C766 1.428 . S
H761 C757 0.930 . S
H762 C759 0.929 . S
S763 N764 1.613 . S
S763 N765 1.610 . S
N764 S763 1.613 . S
N764 C767 1.350 . S
N765 S763 1.610 . S
N765 C766 1.351 . S
C766 C760 1.428 . S
C766 N765 1.351 . S
C766 C767 1.434 . S
C767 C758 1.429 . S
C767 N764 1.350 . S
C767 C766 1.434 . S
C768 C769 1.369 . S
C768 C770 1.419 . S
C768 H772 0.930 . S
C769 C768 1.369 . S
C769 C778 1.429 . S
C770 C768 1.419 . S
C770 C771 1.363 . S
C770 H773 0.929 . S
C771 C770 1.363 . S
C771 C777 1.428 . S
H772 C768 0.930 . S
H773 C770 0.929 . S
S774 N775 1.613 . S
S774 N776 1.610 . S
N775 S774 1.613 . S
N775 C778 1.350 . S
N776 S774 1.610 . S
N776 C777 1.351 . S
C777 C771 1.428 . S
C777 N776 1.351 . S
C777 C778 1.434 . S
C778 C769 1.429 . S
C778 N775 1.350 . S
C778 C777 1.434 . S
C779 C780 1.369 . S
C779 C781 1.419 . S
C779 H783 0.930 . S
C780 C779 1.369 . S
C780 C789 1.429 . S
C781 C779 1.419 . S
C781 C782 1.363 . S
C781 H784 0.929 . S
C782 C781 1.363 . S
C782 C788 1.428 . S
H783 C779 0.930 . S
H784 C781 0.929 . S
S785 N786 1.613 . S
S785 N787 1.610 . S
N786 S785 1.613 . S
N786 C789 1.350 . S
N787 S785 1.610 . S
N787 C788 1.351 . S
C788 C782 1.428 . S
C788 N787 1.351 . S
C788 C789 1.434 . S
C789 C780 1.429 . S
C789 N786 1.350 . S
C789 C788 1.434 . S
C790 C791 1.369 . S
C790 C792 1.419 . S
C790 H794 0.930 . S
C791 C790 1.369 . S
C791 C800 1.429 . S
C792 C790 1.419 . S
C792 C793 1.363 . S
C792 H795 0.929 . S
C793 C792 1.363 . S
C793 C799 1.428 . S
H794 C790 0.930 . S
H795 C792 0.929 . S
S796 N797 1.613 . S
S796 N798 1.610 . S
N797 S796 1.613 . S
N797 C800 1.350 . S
N798 S796 1.610 . S
N798 C799 1.351 . S
C799 C793 1.428 . S
C799 N798 1.351 . S
C799 C800 1.434 . S
C800 C791 1.429 . S
C800 N797 1.350 . S
C800 C799 1.434 . S
C801 C802 1.369 . S
C801 C803 1.419 . S
C801 H805 0.930 . S
C802 C801 1.369 . S
C802 C811 1.429 . S
C803 C801 1.419 . S
C803 C804 1.363 . S
C803 H806 0.929 . S
C804 C803 1.363 . S
C804 C810 1.428 . S
H805 C801 0.930 . S
H806 C803 0.929 . S
S807 N808 1.613 . S
S807 N809 1.610 . S
N808 S807 1.613 . S
N808 C811 1.350 . S
N809 S807 1.610 . S
N809 C810 1.351 . S
C810 C804 1.428 . S
C810 N809 1.351 . S
C810 C811 1.434 . S
C811 C802 1.429 . S
C811 N808 1.350 . S
C811 C810 1.434 . S
C812 C813 1.369 . S
C812 C814 1.419 . S
C812 H816 0.930 . S
C813 C812 1.369 . S
C813 C822 1.429 . S
C814 C812 1.419 . S
C814 C815 1.363 . S
C814 H817 0.929 . S
C815 C814 1.363 . S
C815 C821 1.428 . S
H816 C812 0.930 . S
H817 C814 0.929 . S
S818 N819 1.613 . S
S818 N820 1.610 . S
N819 S818 1.613 . S
N819 C822 1.350 . S
N820 S818 1.610 . S
N820 C821 1.351 . S
C821 C815 1.428 . S
C821 N820 1.351 . S
C821 C822 1.434 . S
C822 C813 1.429 . S
C822 N819 1.350 . S
C822 C821 1.434 . S
C823 C824 1.369 . S
C823 C825 1.419 . S
C823 H827 0.930 . S
C824 C823 1.369 . S
C824 C833 1.429 . S
C825 C823 1.419 . S
C825 C826 1.363 . S
C825 H828 0.929 . S
C826 C825 1.363 . S
C826 C832 1.428 . S
H827 C823 0.930 . S
H828 C825 0.929 . S
S829 N830 1.613 . S
S829 N831 1.610 . S
N830 S829 1.613 . S
N830 C833 1.350 . S
N831 S829 1.610 . S
N831 C832 1.351 . S
C832 C826 1.428 . S
C832 N831 1.351 . S
C832 C833 1.434 . S
C833 C824 1.429 . S
C833 N830 1.350 . S
C833 C832 1.434 . S
C834 C835 1.369 1_655 S
C834 C836 1.419 . S
C834 H838 0.930 . S
C835 C834 1.369 1_455 S
C835 C844 1.429 . S
C836 C834 1.419 . S
C836 C837 1.363 . S
C836 H839 0.929 . S
C837 C836 1.363 . S
C837 C843 1.428 1_655 S
H838 C834 0.930 . S
H839 C836 0.929 . S
S840 N841 1.613 . S
S840 N842 1.610 . S
N841 S840 1.613 . S
N841 C844 1.350 . S
N842 S840 1.610 . S
N842 C843 1.351 . S
C843 C837 1.428 1_455 S
C843 N842 1.351 . S
C843 C844 1.434 . S
C844 C835 1.429 . S
C844 N841 1.350 . S
C844 C843 1.434 . S
C845 C846 1.369 . S
C845 C847 1.419 . S
C845 H849 0.930 . S
C846 C845 1.369 . S
C846 C855 1.429 . S
C847 C845 1.419 . S
C847 C848 1.363 . S
C847 H850 0.929 . S
C848 C847 1.363 . S
C848 C854 1.428 . S
H849 C845 0.930 . S
H850 C847 0.929 . S
S851 N852 1.613 . S
S851 N853 1.610 . S
N852 S851 1.613 . S
N852 C855 1.350 . S
N853 S851 1.610 . S
N853 C854 1.351 . S
C854 C848 1.428 . S
C854 N853 1.351 . S
C854 C855 1.434 . S
C855 C846 1.429 . S
C855 N852 1.350 . S
C855 C854 1.434 . S
C856 C857 1.369 . S
C856 C858 1.419 . S
C856 H860 0.930 . S
C857 C856 1.369 . S
C857 C866 1.429 1_545 S
C858 C856 1.419 . S
C858 C859 1.363 1_545 S
C858 H861 0.929 . S
C859 C858 1.363 1_565 S
C859 C865 1.428 . S
H860 C856 0.930 . S
H861 C858 0.929 . S
S862 N863 1.613 . S
S862 N864 1.610 . S
N863 S862 1.613 . S
N863 C866 1.350 . S
N864 S862 1.610 . S
N864 C865 1.351 . S
C865 C859 1.428 . S
C865 N864 1.351 . S
C865 C866 1.434 . S
C866 C857 1.429 1_565 S
C866 N863 1.350 . S
C866 C865 1.434 . S
C867 C868 1.369 1_565 S
C867 C869 1.418 1_554 S
C867 H871 0.930 . S
C868 C867 1.369 1_545 S
C868 C877 1.429 . S
C869 C867 1.418 1_556 S
C869 C870 1.363 . S
C869 H872 0.929 . S
C870 C869 1.363 . S
C870 C876 1.428 1_565 S
H871 C867 0.930 . S
H872 C869 0.929 . S
S873 N874 1.613 1_556 S
S873 N875 1.610 . S
N874 S873 1.613 1_554 S
N874 C877 1.350 . S
N875 S873 1.610 . S
N875 C876 1.351 . S
C876 C870 1.428 1_545 S
C876 N875 1.351 . S
C876 C877 1.434 1_556 S
C877 C868 1.429 . S
C877 N874 1.350 . S
C877 C876 1.434 1_554 S
C878 C879 1.369 . S
C878 C880 1.419 1_455 S
C878 H882 0.930 . S
C879 C878 1.369 . S
C879 C888 1.429 1_556 S
C880 C878 1.419 1_655 S
C880 C881 1.363 1_556 S
C880 H883 0.929 . S
C881 C880 1.363 1_554 S
C881 C887 1.428 . S
H882 C878 0.930 . S
H883 C880 0.929 . S
S884 N885 1.613 1_655 S
S884 N886 1.610 . S
N885 S884 1.613 1_455 S
N885 C888 1.350 . S
N886 S884 1.610 . S
N886 C887 1.351 . S
C887 C881 1.428 . S
C887 N886 1.351 . S
C887 C888 1.434 1_655 S
C888 C879 1.429 1_554 S
C888 N885 1.350 . S
C888 C887 1.434 1_455 S
C889 C890 1.369 1_554 S
C889 C891 1.419 . S
C889 H893 0.930 . S
C890 C889 1.369 1_556 S
C890 C899 1.429 . S
C891 C889 1.419 . S
C891 C892 1.363 . S
C891 H894 0.929 . S
C892 C891 1.363 . S
C892 C898 1.428 1_554 S
H893 C889 0.930 . S
H894 C891 0.929 . S
S895 N896 1.613 . S
S895 N897 1.610 . S
N896 S895 1.613 . S
N896 C899 1.350 . S
N897 S895 1.610 . S
N897 C898 1.351 . S
C898 C892 1.428 1_556 S
C898 N897 1.351 . S
C898 C899 1.434 . S
C899 C890 1.429 . S
C899 N896 1.350 . S
C899 C898 1.434 . S
C900 C901 1.369 . S
C900 C902 1.419 . S
C900 H904 0.941 . S
C901 C900 1.369 . S
C901 C910 1.429 . S
C902 C900 1.419 . S
C902 C903 1.363 . S
C902 H905 0.929 . S
C903 C902 1.363 . S
C903 C909 1.428 . S
H904 C900 0.941 . S
H905 C902 0.929 . S
S906 N907 1.613 . S
S906 N908 1.610 . S
N907 S906 1.613 . S
N907 C910 1.350 . S
N908 S906 1.610 . S
N908 C909 1.351 . S
C909 C903 1.428 . S
C909 N908 1.351 . S
C909 C910 1.434 . S
C910 C901 1.429 . S
C910 N907 1.350 . S
C910 C909 1.434 . S
C911 C912 1.369 . S
C911 C913 1.419 . S
C911 H915 0.930 . S
C912 C911 1.369 . S
C912 C921 1.429 . S
C913 C911 1.419 . S
C913 C914 1.363 . S
C913 H916 0.929 . S
C914 C913 1.363 . S
C914 C920 1.428 . S
H915 C911 0.930 . S
H916 C913 0.929 . S
S917 N918 1.613 . S
S917 N919 1.610 . S
N918 S917 1.613 . S
N918 C921 1.350 . S
N919 S917 1.610 . S
N919 C920 1.351 . S
C920 C914 1.428 . S
C920 N919 1.351 . S
C920 C921 1.434 . S
C921 C912 1.429 . S
C921 N918 1.350 . S
C921 C920 1.434 . S
C922 C923 1.369 . S
C922 C924 1.419 . S
C922 H926 0.930 . S
C923 C922 1.369 . S
C923 C932 1.429 . S
C924 C922 1.419 . S
C924 C925 1.363 . S
C924 H927 0.929 . S
C925 C924 1.363 . S
C925 C931 1.428 . S
H926 C922 0.930 . S
H927 C924 0.929 . S
S928 N929 1.613 1_556 S
S928 N930 1.610 . S
N929 S928 1.613 1_554 S
N929 C932 1.350 . S
N930 S928 1.610 . S
N930 C931 1.351 1_556 S
C931 C925 1.428 . S
C931 N930 1.351 1_554 S
C931 C932 1.434 . S
C932 C923 1.429 . S
C932 N929 1.350 . S
C932 C931 1.434 . S
C933 C934 1.369 . S
C933 C935 1.419 . S
C933 H937 0.930 . S
C934 C933 1.369 . S
C934 C943 1.429 . S
C935 C933 1.419 . S
C935 C936 1.363 . S
C935 H938 0.929 . S
C936 C935 1.363 . S
C936 C942 1.428 . S
H937 C933 0.930 . S
H938 C935 0.929 . S
S939 N940 1.613 . S
S939 N941 1.610 . S
N940 S939 1.613 . S
N940 C943 1.350 . S
N941 S939 1.610 . S
N941 C942 1.351 . S
C942 C936 1.428 . S
C942 N941 1.351 . S
C942 C943 1.434 . S
C943 C934 1.429 . S
C943 N940 1.350 . S
C943 C942 1.434 . S
C944 C945 1.369 . S
C944 C946 1.419 . S
C944 H948 0.930 . S
C945 C944 1.369 . S
C945 C954 1.429 . S
C946 C944 1.419 . S
C946 C947 1.363 . S
C946 H949 0.929 . S
C947 C946 1.363 . S
C947 C953 1.428 . S
H948 C944 0.930 . S
H949 C946 0.929 . S
S950 N951 1.613 . S
S950 N952 1.610 . S
N951 S950 1.613 . S
N951 C954 1.350 . S
N952 S950 1.610 . S
N952 C953 1.351 . S
C953 C947 1.428 . S
C953 N952 1.351 . S
C953 C954 1.434 . S
C954 C945 1.429 . S
C954 N951 1.350 . S
C954 C953 1.434 . S
C955 C956 1.369 . S
C955 C957 1.419 . S
C955 H959 0.930 . S
C956 C955 1.369 . S
C956 C965 1.429 . S
C957 C955 1.419 . S
C957 C958 1.363 . S
C957 H960 0.929 . S
C958 C957 1.363 . S
C958 C964 1.428 . S
H959 C955 0.930 . S
H960 C957 0.929 . S
S961 N962 1.613 . S
S961 N963 1.610 . S
N962 S961 1.613 . S
N962 C965 1.350 . S
N963 S961 1.610 . S
N963 C964 1.351 . S
C964 C958 1.428 . S
C964 N963 1.351 . S
C964 C965 1.434 . S
C965 C956 1.429 . S
C965 N962 1.350 . S
C965 C964 1.434 . S
C966 C967 1.369 . S
C966 C968 1.419 . S
C966 H970 0.930 . S
C967 C966 1.369 . S
C967 C976 1.429 . S
C968 C966 1.419 . S
C968 C969 1.363 . S
C968 H971 0.929 . S
C969 C968 1.363 . S
C969 C975 1.428 . S
H970 C966 0.930 . S
H971 C968 0.929 . S
S972 N973 1.613 1_554 S
S972 N974 1.610 1_554 S
N973 S972 1.613 1_556 S
N973 C976 1.350 . S
N974 S972 1.610 1_556 S
N974 C975 1.351 . S
C975 C969 1.428 . S
C975 N974 1.351 . S
C975 C976 1.434 . S
C976 C967 1.429 . S
C976 N973 1.350 . S
C976 C975 1.434 . S
C977 C978 1.369 . S
C977 C979 1.419 . S
C977 H981 0.930 . S
C978 C977 1.369 . S
C978 C987 1.429 . S
C979 C977 1.419 . S
C979 C980 1.363 . S
C979 H982 0.929 1_556 S
C980 C979 1.363 . S
C980 C986 1.428 . S
H981 C977 0.930 . S
H982 C979 0.929 1_554 S
S983 N984 1.613 . S
S983 N985 1.610 . S
N984 S983 1.613 . S
N984 C987 1.350 . S
N985 S983 1.610 . S
N985 C986 1.351 . S
C986 C980 1.428 . S
C986 N985 1.351 . S
C986 C987 1.434 . S
C987 C978 1.429 . S
C987 N984 1.350 . S
C987 C986 1.434 . S
C988 C989 1.369 . S
C988 C990 1.419 . S
C988 H992 0.930 . S
C989 C988 1.369 . S
C989 C998 1.429 . S
C990 C988 1.419 . S
C990 C991 1.363 . S
C990 H993 0.929 . S
C991 C990 1.363 . S
C991 C997 1.428 . S
H992 C988 0.930 . S
H993 C990 0.929 . S
S994 N995 1.613 . S
S994 N996 1.610 . S
N995 S994 1.613 . S
N995 C998 1.350 . S
N996 S994 1.610 . S
N996 C997 1.351 . S
C997 C991 1.428 . S
C997 N996 1.351 . S
C997 C998 1.434 . S
C998 C989 1.429 . S
C998 N995 1.350 . S
C998 C997 1.434 . S
C999 C1000 1.369 . S
C999 C1001 1.419 . S
C999 H1003 0.930 . S
C1000 C999 1.369 . S
C1000 C1009 1.429 . S
C1001 C999 1.419 . S
C1001 C1002 1.363 . S
C1001 H1004 0.929 . S
C1002 C1001 1.363 . S
C1002 C1008 1.428 . S
H1003 C999 0.930 . S
H1004 C1001 0.929 . S
S1005 N1006 1.613 . S
S1005 N1007 1.610 . S
N1006 S1005 1.613 . S
N1006 C1009 1.350 . S
N1007 S1005 1.610 . S
N1007 C1008 1.351 . S
C1008 C1002 1.428 . S
C1008 N1007 1.351 . S
C1008 C1009 1.434 . S
C1009 C1000 1.429 . S
C1009 N1006 1.350 . S
C1009 C1008 1.434 . S
C1010 C1011 1.369 . S
C1010 C1012 1.419 . S
C1010 H1014 0.930 . S
C1011 C1010 1.369 . S
C1011 C1020 1.429 . S
C1012 C1010 1.419 . S
C1012 C1013 1.363 . S
C1012 H1015 0.929 . S
C1013 C1012 1.363 . S
C1013 C1019 1.428 . S
H1014 C1010 0.930 . S
H1015 C1012 0.929 . S
S1016 N1017 1.613 . S
S1016 N1018 1.610 . S
N1017 S1016 1.613 . S
N1017 C1020 1.350 . S
N1018 S1016 1.610 . S
N1018 C1019 1.351 . S
C1019 C1013 1.428 . S
C1019 N1018 1.351 . S
C1019 C1020 1.434 . S
C1020 C1011 1.429 . S
C1020 N1017 1.350 . S
C1020 C1019 1.434 . S
C1021 C1022 1.369 . S
C1021 C1023 1.419 . S
C1021 H1025 0.930 . S
C1022 C1021 1.369 . S
C1022 C1031 1.429 . S
C1023 C1021 1.419 . S
C1023 C1024 1.363 . S
C1023 H1026 0.929 . S
C1024 C1023 1.363 . S
C1024 C1030 1.428 . S
H1025 C1021 0.930 . S
H1026 C1023 0.929 . S
S1027 N1028 1.613 . S
S1027 N1029 1.610 . S
N1028 S1027 1.613 . S
N1028 C1031 1.350 . S
N1029 S1027 1.610 . S
N1029 C1030 1.351 . S
C1030 C1024 1.428 . S
C1030 N1029 1.351 . S
C1030 C1031 1.434 . S
C1031 C1022 1.429 . S
C1031 N1028 1.350 . S
C1031 C1030 1.434 . S
C1032 C1033 1.369 . S
C1032 C1034 1.419 . S
C1032 H1036 0.930 . S
C1033 C1032 1.369 . S
C1033 C1042 1.429 . S
C1034 C1032 1.419 . S
C1034 C1035 1.363 . S
C1034 H1037 0.929 . S
C1035 C1034 1.363 . S
C1035 C1041 1.428 . S
H1036 C1032 0.930 . S
H1037 C1034 0.929 . S
S1038 N1039 1.613 . S
S1038 N1040 1.610 . S
N1039 S1038 1.613 . S
N1039 C1042 1.350 . S
N1040 S1038 1.610 . S
N1040 C1041 1.351 . S
C1041 C1035 1.428 . S
C1041 N1040 1.351 . S
C1041 C1042 1.434 . S
C1042 C1033 1.429 . S
C1042 N1039 1.350 . S
C1042 C1041 1.434 . S
C1043 C1044 1.369 . S
C1043 C1045 1.419 1_565 S
C1043 H1047 0.930 . S
C1044 C1043 1.369 . S
C1044 C1053 1.429 . S
C1045 C1043 1.419 1_545 S
C1045 C1046 1.363 . S
C1045 H1048 0.929 . S
C1046 C1045 1.363 . S
C1046 C1052 1.428 . S
H1047 C1043 0.930 . S
H1048 C1045 0.929 . S
S1049 N1050 1.613 . S
S1049 N1051 1.610 1_565 S
N1050 S1049 1.613 . S
N1050 C1053 1.350 . S
N1051 S1049 1.610 1_545 S
N1051 C1052 1.351 . S
C1052 C1046 1.428 . S
C1052 N1051 1.351 . S
C1052 C1053 1.434 1_545 S
C1053 C1044 1.429 . S
C1053 N1050 1.350 . S
C1053 C1052 1.434 1_565 S
C1054 C1055 1.369 . S
C1054 C1056 1.419 1_455 S
C1054 H1058 0.930 . S
C1055 C1054 1.369 . S
C1055 C1064 1.429 . S
C1056 C1054 1.419 1_655 S
C1056 C1057 1.363 . S
C1056 H1059 0.929 . S
C1057 C1056 1.363 . S
C1057 C1063 1.428 . S
H1058 C1054 0.930 . S
H1059 C1056 0.929 . S
S1060 N1061 1.599 1_655 S
S1060 N1062 1.654 . S
N1061 S1060 1.599 1_455 S
N1061 C1064 1.350 . S
N1062 S1060 1.654 . S
N1062 C1063 1.351 . S
C1063 C1057 1.428 . S
C1063 N1062 1.351 . S
C1063 C1064 1.434 1_655 S
C1064 C1055 1.429 . S
C1064 N1061 1.350 . S
C1064 C1063 1.434 1_455 S
C1065 C1066 1.369 . S
C1065 C1067 1.419 . S
C1065 H1069 0.930 . S
C1066 C1065 1.369 . S
C1066 C1075 1.429 . S
C1067 C1065 1.419 . S
C1067 C1068 1.363 . S
C1067 H1070 0.929 . S
C1068 C1067 1.363 . S
C1068 C1074 1.428 . S
H1069 C1065 0.930 . S
H1070 C1067 0.929 . S
S1071 N1072 1.613 . S
S1071 N1073 1.610 . S
N1072 S1071 1.613 . S
N1072 C1075 1.350 . S
N1073 S1071 1.610 . S
N1073 C1074 1.351 . S
C1074 C1068 1.428 . S
C1074 N1073 1.351 . S
C1074 C1075 1.434 . S
C1075 C1066 1.429 . S
C1075 N1072 1.350 . S
C1075 C1074 1.434 . S
C1076 C1077 1.369 . S
C1076 C1078 1.419 1_565 S
C1076 H1080 0.930 . S
C1077 C1076 1.369 . S
C1077 C1086 1.429 . S
C1078 C1076 1.419 1_545 S
C1078 C1079 1.363 . S
C1078 H1081 0.929 . S
C1079 C1078 1.363 . S
C1079 C1085 1.428 . S
H1080 C1076 0.930 . S
H1081 C1078 0.929 . S
S1082 N1083 1.613 . S
S1082 N1084 1.610 1_565 S
N1083 S1082 1.613 . S
N1083 C1086 1.350 . S
N1084 S1082 1.610 1_545 S
N1084 C1085 1.351 . S
C1085 C1079 1.428 . S
C1085 N1084 1.351 . S
C1085 C1086 1.434 1_545 S
C1086 C1077 1.429 . S
C1086 N1083 1.350 . S
C1086 C1085 1.434 1_565 S
C1087 C1088 1.369 . S
C1087 C1089 1.419 1_455 S
C1087 H1091 0.930 . S
C1088 C1087 1.369 . S
C1088 C1097 1.429 . S
C1089 C1087 1.419 1_655 S
C1089 C1090 1.363 . S
C1089 H1092 0.929 . S
C1090 C1089 1.363 . S
C1090 C1096 1.428 . S
H1091 C1087 0.930 . S
H1092 C1089 0.929 . S
S1093 N1094 1.613 . S
S1093 N1095 1.610 1_455 S
N1094 S1093 1.613 . S
N1094 C1097 1.350 . S
N1095 S1093 1.610 1_655 S
N1095 C1096 1.351 . S
C1096 C1090 1.428 . S
C1096 N1095 1.351 . S
C1096 C1097 1.434 1_655 S
C1097 C1088 1.429 . S
C1097 N1094 1.350 . S
C1097 C1096 1.434 1_455 S
C1098 C1099 1.369 . S
C1098 C1100 1.419 . S
C1098 H1102 0.930 . S
C1099 C1098 1.369 . S
C1099 C1108 1.429 . S
C1100 C1098 1.419 . S
C1100 C1101 1.363 . S
C1100 H1103 0.929 . S
C1101 C1100 1.363 . S
C1101 C1107 1.428 . S
H1102 C1098 0.930 . S
H1103 C1100 0.929 . S
S1104 N1105 1.613 . S
S1104 N1106 1.610 . S
N1105 S1104 1.613 . S
N1105 C1108 1.350 . S
N1106 S1104 1.610 . S
N1106 C1107 1.351 . S
C1107 C1101 1.428 . S
C1107 N1106 1.351 . S
C1107 C1108 1.434 . S
C1108 C1099 1.429 . S
C1108 N1105 1.350 . S
C1108 C1107 1.434 . S
C1109 C1110 1.369 . S
C1109 C1111 1.419 . S
C1109 H1113 0.930 . S
C1110 C1109 1.369 . S
C1110 C1119 1.429 . S
C1111 C1109 1.419 . S
C1111 C1112 1.363 . S
C1111 H1114 0.929 . S
C1112 C1111 1.363 . S
C1112 C1118 1.428 . S
H1113 C1109 0.930 . S
H1114 C1111 0.929 . S
S1115 N1116 1.613 . S
S1115 N1117 1.610 . S
N1116 S1115 1.613 . S
N1116 C1119 1.350 . S
N1117 S1115 1.610 . S
N1117 C1118 1.351 . S
C1118 C1112 1.428 . S
C1118 N1117 1.351 . S
C1118 C1119 1.434 . S
C1119 C1110 1.429 . S
C1119 N1116 1.350 . S
C1119 C1118 1.434 . S
C1120 C1121 1.369 . S
C1120 C1122 1.419 . S
C1120 H1124 0.930 . S
C1121 C1120 1.369 . S
C1121 C1130 1.429 . S
C1122 C1120 1.419 . S
C1122 C1123 1.363 . S
C1122 H1125 0.929 . S
C1123 C1122 1.363 . S
C1123 C1129 1.428 . S
H1124 C1120 0.930 . S
H1125 C1122 0.929 . S
S1126 N1127 1.613 . S
S1126 N1128 1.610 . S
N1127 S1126 1.613 . S
N1127 C1130 1.350 . S
N1128 S1126 1.610 . S
N1128 C1129 1.351 . S
C1129 C1123 1.428 . S
C1129 N1128 1.351 . S
C1129 C1130 1.434 . S
C1130 C1121 1.429 . S
C1130 N1127 1.350 . S
C1130 C1129 1.434 . S
C1131 C1132 1.369 . S
C1131 C1133 1.419 . S
C1131 H1135 0.930 . S
C1132 C1131 1.369 . S
C1132 C1141 1.429 . S
C1133 C1131 1.419 . S
C1133 C1134 1.363 . S
C1133 H1136 0.929 . S
C1134 C1133 1.363 . S
C1134 C1140 1.428 . S
H1135 C1131 0.930 . S
H1136 C1133 0.929 . S
S1137 N1138 1.613 . S
S1137 N1139 1.610 . S
N1138 S1137 1.613 . S
N1138 C1141 1.350 . S
N1139 S1137 1.610 . S
N1139 C1140 1.351 . S
C1140 C1134 1.428 . S
C1140 N1139 1.351 . S
C1140 C1141 1.434 . S
C1141 C1132 1.429 . S
C1141 N1138 1.350 . S
C1141 C1140 1.434 . S
C1142 C1143 1.369 . S
C1142 C1144 1.419 . S
C1142 H1146 0.930 . S
C1143 C1142 1.369 . S
C1143 C1152 1.429 . S
C1144 C1142 1.419 . S
C1144 C1145 1.363 . S
C1144 H1147 0.929 . S
C1145 C1144 1.363 . S
C1145 C1151 1.428 . S
H1146 C1142 0.930 . S
H1147 C1144 0.929 . S
S1148 N1149 1.613 . S
S1148 N1150 1.610 . S
N1149 S1148 1.613 . S
N1149 C1152 1.350 . S
N1150 S1148 1.610 . S
N1150 C1151 1.351 . S
C1151 C1145 1.428 . S
C1151 N1150 1.351 . S
C1151 C1152 1.434 . S
C1152 C1143 1.429 . S
C1152 N1149 1.350 . S
C1152 C1151 1.434 . S
C1153 C1154 1.369 . S
C1153 C1155 1.419 . S
C1153 H1157 0.930 . S
C1154 C1153 1.369 . S
C1154 C1163 1.429 . S
C1155 C1153 1.419 . S
C1155 C1156 1.363 . S
C1155 H1158 0.929 . S
C1156 C1155 1.363 . S
C1156 C1162 1.428 . S
H1157 C1153 0.930 . S
H1158 C1155 0.929 . S
S1159 N1160 1.613 . S
S1159 N1161 1.610 . S
N1160 S1159 1.613 . S
N1160 C1163 1.350 . S
N1161 S1159 1.610 . S
N1161 C1162 1.351 . S
C1162 C1156 1.428 . S
C1162 N1161 1.351 . S
C1162 C1163 1.434 . S
C1163 C1154 1.429 . S
C1163 N1160 1.350 . S
C1163 C1162 1.434 . S
C1164 C1165 1.369 . S
C1164 C1166 1.419 . S
C1164 H1168 0.930 . S
C1165 C1164 1.369 . S
C1165 C1174 1.429 . S
C1166 C1164 1.419 . S
C1166 C1167 1.363 . S
C1166 H1169 0.929 . S
C1167 C1166 1.363 . S
C1167 C1173 1.428 . S
H1168 C1164 0.930 . S
H1169 C1166 0.929 . S
S1170 N1171 1.613 . S
S1170 N1172 1.610 . S
N1171 S1170 1.613 . S
N1171 C1174 1.350 . S
N1172 S1170 1.610 . S
N1172 C1173 1.351 . S
C1173 C1167 1.428 . S
C1173 N1172 1.351 . S
C1173 C1174 1.434 . S
C1174 C1165 1.429 . S
C1174 N1171 1.350 . S
C1174 C1173 1.434 . S
C1175 C1176 1.369 . S
C1175 C1177 1.419 . S
C1175 H1179 0.930 . S
C1176 C1175 1.369 . S
C1176 C1185 1.429 . S
C1177 C1175 1.419 . S
C1177 C1178 1.363 . S
C1177 H1180 0.929 . S
C1178 C1177 1.363 . S
C1178 C1184 1.428 . S
H1179 C1175 0.930 . S
H1180 C1177 0.929 . S
S1181 N1182 1.613 . S
S1181 N1183 1.610 . S
N1182 S1181 1.613 . S
N1182 C1185 1.350 . S
N1183 S1181 1.610 . S
N1183 C1184 1.351 . S
C1184 C1178 1.428 . S
C1184 N1183 1.351 . S
C1184 C1185 1.434 . S
C1185 C1176 1.429 . S
C1185 N1182 1.350 . S
C1185 C1184 1.434 . S
C1186 C1187 1.369 . S
C1186 C1188 1.419 . S
C1186 H1190 0.930 . S
C1187 C1186 1.369 . S
C1187 C1196 1.429 . S
C1188 C1186 1.419 . S
C1188 C1189 1.363 . S
C1188 H1191 0.929 . S
C1189 C1188 1.363 . S
C1189 C1195 1.428 . S
H1190 C1186 0.930 . S
H1191 C1188 0.929 . S
S1192 N1193 1.613 . S
S1192 N1194 1.610 . S
N1193 S1192 1.613 . S
N1193 C1196 1.350 . S
N1194 S1192 1.610 . S
N1194 C1195 1.351 . S
C1195 C1189 1.428 . S
C1195 N1194 1.351 . S
C1195 C1196 1.434 . S
C1196 C1187 1.429 . S
C1196 N1193 1.350 . S
C1196 C1195 1.434 . S
C1197 C1198 1.369 . S
C1197 C1199 1.419 . S
C1197 H1201 0.930 . S
C1198 C1197 1.369 . S
C1198 C1207 1.429 . S
C1199 C1197 1.419 . S
C1199 C1200 1.363 . S
C1199 H1202 0.929 . S
C1200 C1199 1.363 . S
C1200 C1206 1.428 . S
H1201 C1197 0.930 . S
H1202 C1199 0.929 . S
S1203 N1204 1.613 . S
S1203 N1205 1.610 . S
N1204 S1203 1.613 . S
N1204 C1207 1.350 . S
N1205 S1203 1.610 . S
N1205 C1206 1.351 . S
C1206 C1200 1.428 . S
C1206 N1205 1.351 . S
C1206 C1207 1.434 . S
C1207 C1198 1.429 . S
C1207 N1204 1.350 . S
C1207 C1206 1.434 . S
C1208 C1209 1.369 . S
C1208 C1210 1.419 . S
C1208 H1212 0.930 . S
C1209 C1208 1.369 . S
C1209 C1218 1.429 . S
C1210 C1208 1.419 . S
C1210 C1211 1.363 . S
C1210 H1213 0.929 . S
C1211 C1210 1.363 . S
C1211 C1217 1.428 . S
H1212 C1208 0.930 . S
H1213 C1210 0.929 . S
S1214 N1215 1.613 . S
S1214 N1216 1.610 . S
N1215 S1214 1.613 . S
N1215 C1218 1.350 . S
N1216 S1214 1.610 . S
N1216 C1217 1.351 . S
C1217 C1211 1.428 . S
C1217 N1216 1.351 . S
C1217 C1218 1.434 . S
C1218 C1209 1.429 . S
C1218 N1215 1.350 . S
C1218 C1217 1.434 . S
C1219 C1220 1.369 . S
C1219 C1221 1.419 . S
C1219 H1223 0.930 . S
C1220 C1219 1.369 . S
C1220 C1229 1.429 . S
C1221 C1219 1.419 . S
C1221 C1222 1.363 . S
C1221 H1224 0.929 . S
C1222 C1221 1.363 . S
C1222 C1228 1.428 . S
H1223 C1219 0.930 . S
H1224 C1221 0.929 . S
S1225 N1226 1.613 . S
S1225 N1227 1.610 . S
N1226 S1225 1.613 . S
N1226 C1229 1.350 . S
N1227 S1225 1.610 . S
N1227 C1228 1.351 . S
C1228 C1222 1.428 . S
C1228 N1227 1.351 . S
C1228 C1229 1.434 . S
C1229 C1220 1.429 . S
C1229 N1226 1.350 . S
C1229 C1228 1.434 . S
C1230 C1231 1.369 1_455 S
C1230 C1232 1.419 . S
C1230 H1234 0.930 . S
C1231 C1230 1.369 1_655 S
C1231 C1240 1.429 . S
C1232 C1230 1.419 . S
C1232 C1233 1.351 1_455 S
C1232 H1235 0.929 . S
C1233 C1232 1.351 1_655 S
C1233 C1239 1.459 . S
H1234 C1230 0.930 . S
H1235 C1232 0.929 . S
S1236 N1237 1.613 . S
S1236 N1238 1.610 . S
N1237 S1236 1.613 . S
N1237 C1240 1.350 . S
N1238 S1236 1.610 . S
N1238 C1239 1.351 . S
C1239 C1233 1.459 . S
C1239 N1238 1.351 . S
C1239 C1240 1.434 . S
C1240 C1231 1.429 . S
C1240 N1237 1.350 . S
C1240 C1239 1.434 . S
C1241 C1242 1.369 . S
C1241 C1243 1.419 . S
C1241 H1245 0.930 . S
C1242 C1241 1.369 . S
C1242 C1251 1.429 . S
C1243 C1241 1.419 . S
C1243 C1244 1.363 . S
C1243 H1246 0.929 . S
C1244 C1243 1.363 . S
C1244 C1250 1.428 . S
H1245 C1241 0.930 . S
H1246 C1243 0.929 . S
S1247 N1248 1.613 . S
S1247 N1249 1.610 . S
N1248 S1247 1.613 . S
N1248 C1251 1.350 . S
N1249 S1247 1.610 . S
N1249 C1250 1.351 . S
C1250 C1244 1.428 . S
C1250 N1249 1.351 . S
C1250 C1251 1.434 . S
C1251 C1242 1.429 . S
C1251 N1248 1.350 . S
C1251 C1250 1.434 . S
C1252 C1253 1.349 1_565 S
C1252 C1254 1.419 1_565 S
C1252 H1256 0.930 . S
C1253 C1252 1.349 1_545 S
C1253 C1262 1.459 . S
C1254 C1252 1.419 1_545 S
C1254 C1255 1.363 . S
C1254 H1257 0.907 1_545 S
C1255 C1254 1.363 . S
C1255 C1261 1.428 . S
H1256 C1252 0.930 . S
H1257 C1254 0.907 1_565 S
S1258 N1259 1.613 . S
S1258 N1260 1.610 . S
N1259 S1258 1.613 . S
N1259 C1262 1.350 . S
N1260 S1258 1.610 . S
N1260 C1261 1.351 . S
C1261 C1255 1.428 . S
C1261 N1260 1.351 . S
C1261 C1262 1.434 . S
C1262 C1253 1.459 . S
C1262 N1259 1.350 . S
C1262 C1261 1.434 . S
C1263 C1264 1.369 1_545 S
C1263 C1265 1.419 . S
C1263 H1267 0.930 . S
C1264 C1263 1.369 1_565 S
C1264 C1273 1.429 . S
C1265 C1263 1.419 . S
C1265 C1266 1.328 1_545 S
C1265 H1268 0.929 . S
C1266 C1265 1.328 1_565 S
C1266 C1272 1.477 . S
H1267 C1263 0.930 . S
H1268 C1265 0.929 . S
S1269 N1270 1.613 . S
S1269 N1271 1.610 . S
N1270 S1269 1.613 . S
N1270 C1273 1.350 . S
N1271 S1269 1.610 . S
N1271 C1272 1.351 . S
C1272 C1266 1.477 . S
C1272 N1271 1.351 . S
C1272 C1273 1.434 . S
C1273 C1264 1.429 . S
C1273 N1270 1.350 . S
C1273 C1272 1.434 . S
C1274 C1275 1.376 . S
C1274 C1276 1.419 . S
C1274 H1278 0.930 . S
C1275 C1274 1.376 . S
C1275 C1284 1.429 1_455 S
C1276 C1274 1.419 . S
C1276 C1277 1.363 . S
C1276 H1279 0.929 . S
C1277 C1276 1.363 . S
C1277 C1283 1.428 1_455 S
H1278 C1274 0.930 . S
H1279 C1276 0.929 . S
S1280 N1281 1.613 . S
S1280 N1282 1.610 . S
N1281 S1280 1.613 . S
N1281 C1284 1.350 . S
N1282 S1280 1.610 . S
N1282 C1283 1.351 . S
C1283 C1277 1.428 1_655 S
C1283 N1282 1.351 . S
C1283 C1284 1.434 . S
C1284 C1275 1.429 1_655 S
C1284 N1281 1.350 . S
C1284 C1283 1.434 . S
C1285 C1286 1.369 . S
C1285 C1287 1.419 . S
C1285 H1289 0.930 . S
C1286 C1285 1.369 . S
C1286 C1295 1.429 . S
C1287 C1285 1.419 . S
C1287 C1288 1.363 . S
C1287 H1290 0.929 . S
C1288 C1287 1.363 . S
C1288 C1294 1.428 . S
H1289 C1285 0.930 . S
H1290 C1287 0.929 . S
S1291 N1292 1.613 . S
S1291 N1293 1.610 . S
N1292 S1291 1.613 . S
N1292 C1295 1.350 . S
N1293 S1291 1.610 . S
N1293 C1294 1.351 . S
C1294 C1288 1.428 . S
C1294 N1293 1.351 . S
C1294 C1295 1.434 . S
C1295 C1286 1.429 . S
C1295 N1292 1.350 . S
C1295 C1294 1.434 . S
C505 C230 1.289 . S
C507 C6 1.290 . S
C516 C244 1.292 . S
C518 C20 1.292 . S
C527 C216 1.293 . S
C529 C34 1.292 . S
C538 C370 1.272 1_554 S
C540 C48 1.271 . S
C549 C62 1.274 . S
C551 C342 1.269 1_554 S
C560 C76 1.269 . S
C562 C356 1.268 1_554 S
C571 C90 1.291 . S
C573 C482 1.290 . S
C582 C496 1.293 . S
C584 C104 1.288 . S
C593 C468 1.293 . S
C595 C118 1.288 . S
C604 C132 1.272 . S
C606 C286 1.271 1_556 S
C615 C258 1.270 1_556 S
C617 C146 1.273 . S
C626 C160 1.270 . S
C628 C272 1.267 1_556 S
C637 C398 1.225 . S
C639 C174 1.218 . S
C648 C188 1.214 . S
C650 C412 1.221 . S
C659 C384 1.220 . S
C661 C202 1.224 . S
C670 C454 1.221 . S
C672 C300 1.220 . S
C681 C426 1.220 . S
C683 C314 1.219 . S
C692 C328 1.220 . S
C694 C440 1.217 . S
C703 C260 1.337 . S
C705 C8 1.338 . S
C714 C274 1.332 . S
C716 C22 1.345 . S
C725 C288 1.333 . S
C727 C36 1.345 . S
C736 C50 1.328 . S
C738 C470 1.346 . S
C747 C64 1.329 . S
C749 C484 1.348 . S
C758 C78 1.333 . S
C760 C498 1.343 . S
C769 C92 1.349 . S
C771 C344 1.327 . S
C780 C358 1.337 . S
C782 C106 1.342 . S
C791 C372 1.335 . S
C793 C120 1.344 . S
C802 C218 1.332 . S
C804 C134 1.341 . S
C813 C148 1.332 . S
C815 C232 1.346 . S
C824 C162 1.327 . S
C826 C246 1.347 . S
C835 C176 1.281 . S
C837 C428 1.273 . S
C846 C442 1.270 . S
C848 C190 1.284 . S
C857 C456 1.269 . S
C859 C204 1.284 . S
C868 C386 1.450 1_554 S
C870 C302 1.438 1_556 S
C879 C316 1.442 1_556 S
C881 C400 1.449 1_554 S
C890 C330 1.439 1_556 S
C892 C414 1.448 1_554 S
C901 C385 1.487 . S
C903 C7 1.490 . S
C912 C21 1.486 . S
C914 C399 1.491 . S
C923 C35 1.488 . S
C925 C413 1.490 . S
C934 C175 1.451 . S
C936 C49 1.458 . S
C945 C63 1.459 . S
C947 C189 1.453 . S
C956 C77 1.459 . S
C958 C203 1.452 . S
C967 C301 1.488 . S
C969 C91 1.489 . S
C978 C105 1.491 . S
C980 C315 1.487 . S
C989 C329 1.487 . S
C991 C119 1.491 . S
C1000 C133 1.460 . S
C1002 C427 1.452 . S
C1011 C441 1.454 . S
C1013 C147 1.459 . S
C1022 C455 1.453 . S
C1024 C161 1.459 . S
C1033 C343 1.464 . S
C1035 C217 1.459 . S
C1044 C357 1.461 . S
C1046 C231 1.463 . S
C1055 C371 1.461 . S
C1057 C245 1.461 . S
C1066 C259 1.463 . S
C1068 C469 1.461 . S
C1077 C483 1.460 . S
C1079 C273 1.464 . S
C1088 C497 1.460 . S
C1090 C287 1.463 . S
C1099 C9 1.474 1_556 S
C1101 C233 1.480 . S
C1110 C23 1.476 1_556 S
C1112 C247 1.478 . S
C1121 C37 1.479 1_556 S
C1123 C219 1.476 . S
C1132 C373 1.509 . S
C1134 C51 1.506 . S
C1143 C345 1.504 . S
C1145 C65 1.511 . S
C1154 C359 1.507 . S
C1156 C79 1.508 . S
C1165 C485 1.475 . S
C1167 C93 1.479 1_554 S
C1176 C499 1.478 . S
C1178 C107 1.477 1_554 S
C1187 C471 1.481 . S
C1189 C121 1.474 1_554 S
C1198 C135 1.504 . S
C1200 C289 1.510 . S
C1209 C149 1.511 . S
C1211 C261 1.505 . S
C1220 C163 1.509 . S
C1222 C275 1.506 . S
C1231 C401 1.554 . S
C1233 C177 1.541 1_655 S
C1242 C415 1.555 . S
C1244 C191 1.566 . S
C1253 C205 1.546 1_545 S
C1255 C387 1.560 . S
C1264 C303 1.556 . S
C1266 C457 1.546 1_565 S
C1275 C429 1.545 1_455 S
C1277 C317 1.563 . S
C1286 C443 1.565 . S
C1288 C331 1.558 . S
