# Generated by pormake.
# Topology lta, (4)-cn, num edge types: 1
# Building blocks:
#     Node 0, Type 0, BuildingBlock: CEKHIL_clean_sbu_0, # of connection points: 4
#     Node 1, Type 0, BuildingBlock: CEKHIL_clean_sbu_0, # of connection points: 4
#     Node 2, Type 0, BuildingBlock: CEKHIL_clean_sbu_0, # of connection points: 4
#     Node 3, Type 0, BuildingBlock: CEKHIL_clean_sbu_0, # of connection points: 4
#     Node 4, Type 0, BuildingBlock: CEKHIL_clean_sbu_0, # of connection points: 4
#     Node 5, Type 0, BuildingBlock: CEKHIL_clean_sbu_0, # of connection points: 4
#     Node 6, Type 0, BuildingBlock: CEKHIL_clean_sbu_0, # of connection points: 4
#     Node 7, Type 0, BuildingBlock: CEKHIL_clean_sbu_0, # of connection points: 4
#     Node 8, Type 0, BuildingBlock: CEKHIL_clean_sbu_0, # of connection points: 4
#     Node 9, Type 0, BuildingBlock: CEKHIL_clean_sbu_0, # of connection points: 4
#     Node 10, Type 0, BuildingBlock: CEKHIL_clean_sbu_0, # of connection points: 4
#     Node 11, Type 0, BuildingBlock: CEKHIL_clean_sbu_0, # of connection points: 4
#     Node 12, Type 0, BuildingBlock: CEKHIL_clean_sbu_0, # of connection points: 4
#     Node 13, Type 0, BuildingBlock: CEKHIL_clean_sbu_0, # of connection points: 4
#     Node 14, Type 0, BuildingBlock: CEKHIL_clean_sbu_0, # of connection points: 4
#     Node 15, Type 0, BuildingBlock: CEKHIL_clean_sbu_0, # of connection points: 4
#     Node 16, Type 0, BuildingBlock: CEKHIL_clean_sbu_0, # of connection points: 4
#     Node 17, Type 0, BuildingBlock: CEKHIL_clean_sbu_0, # of connection points: 4
#     Node 18, Type 0, BuildingBlock: CEKHIL_clean_sbu_0, # of connection points: 4
#     Node 19, Type 0, BuildingBlock: CEKHIL_clean_sbu_0, # of connection points: 4
#     Node 20, Type 0, BuildingBlock: CEKHIL_clean_sbu_0, # of connection points: 4
#     Node 21, Type 0, BuildingBlock: CEKHIL_clean_sbu_0, # of connection points: 4
#     Node 22, Type 0, BuildingBlock: CEKHIL_clean_sbu_0, # of connection points: 4
#     Node 23, Type 0, BuildingBlock: CEKHIL_clean_sbu_0, # of connection points: 4
#     Edge 24, Type (0, 0), BuildingBlock: MIFKUJ_clean_linker_0, # of connection points: 2
#     Edge 25, Type (0, 0), BuildingBlock: MIFKUJ_clean_linker_0, # of connection points: 2
#     Edge 26, Type (0, 0), BuildingBlock: MIFKUJ_clean_linker_0, # of connection points: 2
#     Edge 27, Type (0, 0), BuildingBlock: MIFKUJ_clean_linker_0, # of connection points: 2
#     Edge 28, Type (0, 0), BuildingBlock: MIFKUJ_clean_linker_0, # of connection points: 2
#     Edge 29, Type (0, 0), BuildingBlock: MIFKUJ_clean_linker_0, # of connection points: 2
#     Edge 30, Type (0, 0), BuildingBlock: MIFKUJ_clean_linker_0, # of connection points: 2
#     Edge 31, Type (0, 0), BuildingBlock: MIFKUJ_clean_linker_0, # of connection points: 2
#     Edge 32, Type (0, 0), BuildingBlock: MIFKUJ_clean_linker_0, # of connection points: 2
#     Edge 33, Type (0, 0), BuildingBlock: MIFKUJ_clean_linker_0, # of connection points: 2
#     Edge 34, Type (0, 0), BuildingBlock: MIFKUJ_clean_linker_0, # of connection points: 2
#     Edge 35, Type (0, 0), BuildingBlock: MIFKUJ_clean_linker_0, # of connection points: 2
#     Edge 36, Type (0, 0), BuildingBlock: MIFKUJ_clean_linker_0, # of connection points: 2
#     Edge 37, Type (0, 0), BuildingBlock: MIFKUJ_clean_linker_0, # of connection points: 2
#     Edge 38, Type (0, 0), BuildingBlock: MIFKUJ_clean_linker_0, # of connection points: 2
#     Edge 39, Type (0, 0), BuildingBlock: MIFKUJ_clean_linker_0, # of connection points: 2
#     Edge 40, Type (0, 0), BuildingBlock: MIFKUJ_clean_linker_0, # of connection points: 2
#     Edge 41, Type (0, 0), BuildingBlock: MIFKUJ_clean_linker_0, # of connection points: 2
#     Edge 42, Type (0, 0), BuildingBlock: MIFKUJ_clean_linker_0, # of connection points: 2
#     Edge 43, Type (0, 0), BuildingBlock: MIFKUJ_clean_linker_0, # of connection points: 2
#     Edge 44, Type (0, 0), BuildingBlock: MIFKUJ_clean_linker_0, # of connection points: 2
#     Edge 45, Type (0, 0), BuildingBlock: MIFKUJ_clean_linker_0, # of connection points: 2
#     Edge 46, Type (0, 0), BuildingBlock: MIFKUJ_clean_linker_0, # of connection points: 2
#     Edge 47, Type (0, 0), BuildingBlock: MIFKUJ_clean_linker_0, # of connection points: 2
#     Edge 48, Type (0, 0), BuildingBlock: MIFKUJ_clean_linker_0, # of connection points: 2
#     Edge 49, Type (0, 0), BuildingBlock: MIFKUJ_clean_linker_0, # of connection points: 2
#     Edge 50, Type (0, 0), BuildingBlock: MIFKUJ_clean_linker_0, # of connection points: 2
#     Edge 51, Type (0, 0), BuildingBlock: MIFKUJ_clean_linker_0, # of connection points: 2
#     Edge 52, Type (0, 0), BuildingBlock: MIFKUJ_clean_linker_0, # of connection points: 2
#     Edge 53, Type (0, 0), BuildingBlock: MIFKUJ_clean_linker_0, # of connection points: 2
#     Edge 54, Type (0, 0), BuildingBlock: MIFKUJ_clean_linker_0, # of connection points: 2
#     Edge 55, Type (0, 0), BuildingBlock: MIFKUJ_clean_linker_0, # of connection points: 2
#     Edge 56, Type (0, 0), BuildingBlock: MIFKUJ_clean_linker_0, # of connection points: 2
#     Edge 57, Type (0, 0), BuildingBlock: MIFKUJ_clean_linker_0, # of connection points: 2
#     Edge 58, Type (0, 0), BuildingBlock: MIFKUJ_clean_linker_0, # of connection points: 2
#     Edge 59, Type (0, 0), BuildingBlock: MIFKUJ_clean_linker_0, # of connection points: 2
#     Edge 60, Type (0, 0), BuildingBlock: MIFKUJ_clean_linker_0, # of connection points: 2
#     Edge 61, Type (0, 0), BuildingBlock: MIFKUJ_clean_linker_0, # of connection points: 2
#     Edge 62, Type (0, 0), BuildingBlock: MIFKUJ_clean_linker_0, # of connection points: 2
#     Edge 63, Type (0, 0), BuildingBlock: MIFKUJ_clean_linker_0, # of connection points: 2
#     Edge 64, Type (0, 0), BuildingBlock: MIFKUJ_clean_linker_0, # of connection points: 2
#     Edge 65, Type (0, 0), BuildingBlock: MIFKUJ_clean_linker_0, # of connection points: 2
#     Edge 66, Type (0, 0), BuildingBlock: MIFKUJ_clean_linker_0, # of connection points: 2
#     Edge 67, Type (0, 0), BuildingBlock: MIFKUJ_clean_linker_0, # of connection points: 2
#     Edge 68, Type (0, 0), BuildingBlock: MIFKUJ_clean_linker_0, # of connection points: 2
#     Edge 69, Type (0, 0), BuildingBlock: MIFKUJ_clean_linker_0, # of connection points: 2
#     Edge 70, Type (0, 0), BuildingBlock: MIFKUJ_clean_linker_0, # of connection points: 2
#     Edge 71, Type (0, 0), BuildingBlock: MIFKUJ_clean_linker_0, # of connection points: 2
# Relax obj value: 0.296
# Max RMSD: 0.166
# Mean RMSD: 0.166
data_MOF--net-lta--node1-CEKHIL_clean_sbu_0--edge1-MIFKUJ_clean_linker_0
_symmetry_space_group_name_H-M    P1
_symmetry_Int_Tables_number       1
_symmetry_cell_setting            triclinic
loop_
_symmetry_equiv_pos_as_xyz
'x, y, z'
_cell_length_a     72.739764
_cell_length_b     72.738344
_cell_length_c     72.707174
_cell_angle_alpha  89.981962
_cell_angle_beta   89.99989
_cell_angle_gamma 89.998579
loop_
_atom_site_label
_atom_site_type_symbol
_atom_site_fract_x
_atom_site_fract_y
_atom_site_fract_z
_atom_type_partial_charge
Co0 Co 0.13891 0.31759 0.49043 0.0
O1 O 0.16417 0.30986 0.48936 0.0
O2 O 0.14097 0.29191 0.4974 0.0
C3 C 0.13895 0.33232 0.46299 0.0
O4 O 0.11102 0.32067 0.49255 0.0
Co5 Co 0.12947 0.35945 0.49082 0.0
O6 O 0.10366 0.35073 0.49073 0.0
C7 C 0.14577 0.34188 0.52342 0.0
C8 C 0.15853 0.29371 0.4944 0.0
C9 C 0.09916 0.33386 0.49231 0.0
O10 O 0.14227 0.32579 0.51687 0.0
O11 O 0.14385 0.35671 0.51414 0.0
O12 O 0.13667 0.31461 0.46359 0.0
O13 O 0.14257 0.34 0.47852 0.0
Co14 Co 0.68213 0.13692 0.48736 0.0
O15 O 0.69038 0.16204 0.48713 0.0
O16 O 0.70768 0.13827 0.49492 0.0
C17 C 0.66799 0.13778 0.45961 0.0
O18 O 0.67846 0.10911 0.48872 0.0
Co19 Co 0.64012 0.12825 0.48653 0.0
O20 O 0.64862 0.10246 0.4839 0.0
C21 C 0.65727 0.14248 0.52038 0.0
C22 C 0.70628 0.15593 0.49242 0.0
C23 C 0.66522 0.09749 0.48655 0.0
O24 O 0.67345 0.13968 0.51371 0.0
O25 O 0.64249 0.1408 0.51096 0.0
O26 O 0.68565 0.13518 0.46056 0.0
O27 O 0.66006 0.14133 0.47503 0.0
Co28 Co 0.86109 0.68304 0.49097 0.0
O29 O 0.83559 0.68943 0.49447 0.0
O30 O 0.8591 0.70821 0.4992 0.0
C31 C 0.85722 0.66953 0.4632 0.0
O32 O 0.88902 0.682 0.4884 0.0
Co33 Co 0.87497 0.64289 0.48605 0.0
O34 O 0.89736 0.65491 0.47616 0.0
C35 C 0.86657 0.65735 0.52348 0.0
C36 C 0.8414 0.70573 0.49887 0.0
C37 C 0.90103 0.67133 0.48097 0.0
O38 O 0.86277 0.67348 0.51714 0.0
O39 O 0.87077 0.64361 0.51327 0.0
O40 O 0.85866 0.68729 0.46439 0.0
O41 O 0.85693 0.66084 0.47865 0.0
Co42 Co 0.31516 0.861 0.49074 0.0
O43 O 0.30718 0.83598 0.4937 0.0
O44 O 0.28934 0.86038 0.49728 0.0
C45 C 0.33026 0.85607 0.46403 0.0
O46 O 0.31823 0.88882 0.48835 0.0
Co47 Co 0.35668 0.87127 0.48925 0.0
O48 O 0.34762 0.89585 0.48192 0.0
C49 C 0.33857 0.8644 0.5252 0.0
C50 C 0.291 0.84257 0.49726 0.0
C51 C 0.33089 0.90051 0.48422 0.0
O52 O 0.32276 0.86207 0.51755 0.0
O53 O 0.35348 0.86721 0.51628 0.0
O54 O 0.31265 0.85902 0.46391 0.0
O55 O 0.33781 0.85511 0.48003 0.0
Co56 Co 0.13397 0.67837 0.51001 0.0
O57 O 0.15919 0.68631 0.51053 0.0
O58 O 0.13578 0.70355 0.50154 0.0
C59 C 0.13453 0.66536 0.5383 0.0
O60 O 0.10613 0.67533 0.50814 0.0
Co61 Co 0.12339 0.637 0.51281 0.0
O62 O 0.09796 0.64644 0.51551 0.0
C63 C 0.13938 0.65192 0.47843 0.0
C64 C 0.15333 0.70212 0.50469 0.0
C65 C 0.09386 0.66298 0.5114 0.0
O66 O 0.13727 0.66855 0.48416 0.0
O67 O 0.1364 0.63777 0.4885 0.0
O68 O 0.13191 0.68296 0.53659 0.0
O69 O 0.13777 0.65667 0.52322 0.0
Co70 Co 0.31885 0.13229 0.51233 0.0
O71 O 0.31267 0.15803 0.51048 0.0
O72 O 0.29405 0.1351 0.50317 0.0
C73 C 0.33125 0.13394 0.54085 0.0
O74 O 0.31981 0.10416 0.51282 0.0
Co75 Co 0.35928 0.11882 0.51719 0.0
O76 O 0.34783 0.09458 0.52159 0.0
C77 C 0.34577 0.13 0.48032 0.0
C78 C 0.29659 0.15272 0.50482 0.0
C79 C 0.33119 0.09131 0.51726 0.0
O80 O 0.32932 0.13257 0.48645 0.0
O81 O 0.35941 0.1257 0.49058 0.0
O82 O 0.31354 0.13284 0.53886 0.0
O83 O 0.34056 0.13542 0.52586 0.0
Co84 Co 0.86498 0.31926 0.50918 0.0
O85 O 0.83963 0.31167 0.50847 0.0
O86 O 0.86322 0.29372 0.50168 0.0
C87 C 0.86279 0.33346 0.53684 0.0
O88 O 0.89297 0.32188 0.509 0.0
Co89 Co 0.87594 0.36057 0.51106 0.0
O90 O 0.9009 0.35088 0.51619 0.0
C91 C 0.86139 0.34463 0.47651 0.0
C92 C 0.84552 0.29555 0.50363 0.0
C93 C 0.90511 0.33419 0.51293 0.0
O94 O 0.86328 0.32815 0.48279 0.0
O95 O 0.86394 0.35905 0.48629 0.0
O96 O 0.86544 0.3158 0.53606 0.0
O97 O 0.86061 0.3415 0.52122 0.0
Co98 Co 0.67727 0.86412 0.51336 0.0
O99 O 0.68487 0.83885 0.5133 0.0
O100 O 0.70294 0.86227 0.50621 0.0
C101 C 0.66274 0.86253 0.54086 0.0
O102 O 0.67428 0.89205 0.51266 0.0
Co103 Co 0.63559 0.87375 0.51375 0.0
O104 O 0.64457 0.89924 0.51738 0.0
C105 C 0.6529 0.85984 0.47981 0.0
C106 C 0.70105 0.84462 0.50854 0.0
C107 C 0.66131 0.9039 0.51509 0.0
O108 O 0.66902 0.86207 0.48683 0.0
O109 O 0.63802 0.8618 0.48901 0.0
O110 O 0.6804 0.86514 0.54021 0.0
O111 O 0.65493 0.85973 0.52521 0.0
Co112 Co 0.49035 0.13968 0.31737 0.0
O113 O 0.49105 0.16466 0.30876 0.0
O114 O 0.49691 0.14029 0.29151 0.0
C115 C 0.46326 0.14216 0.33253 0.0
O116 O 0.49042 0.11186 0.32139 0.0
Co117 Co 0.4908 0.1316 0.35952 0.0
O118 O 0.48711 0.10579 0.35158 0.0
C119 C 0.52438 0.14437 0.34088 0.0
C120 C 0.49528 0.15807 0.29273 0.0
C121 C 0.4886 0.10052 0.33491 0.0
O122 O 0.51712 0.14126 0.32501 0.0
O123 O 0.51538 0.14348 0.35599 0.0
O124 O 0.46338 0.13934 0.31488 0.0
O125 O 0.47914 0.14495 0.33984 0.0
Co126 Co 0.86489 0.48994 0.32175 0.0
O127 O 0.83953 0.4934 0.31484 0.0
O128 O 0.8634 0.49982 0.2971 0.0
C129 C 0.86067 0.4613 0.33327 0.0
O130 O 0.89278 0.48777 0.32333 0.0
Co131 Co 0.87752 0.48242 0.36188 0.0
O132 O 0.90189 0.47727 0.35088 0.0
C133 C 0.86773 0.52043 0.35005 0.0
C134 C 0.84565 0.49894 0.299 0.0
C135 C 0.90538 0.48216 0.33442 0.0
O136 O 0.86587 0.51542 0.33311 0.0
O137 O 0.8708 0.50907 0.36317 0.0
O138 O 0.86305 0.46363 0.31571 0.0
O139 O 0.86009 0.4761 0.34295 0.0
Co140 Co 0.51337 0.86659 0.32042 0.0
O141 O 0.51304 0.84123 0.31287 0.0
O142 O 0.50432 0.86458 0.29542 0.0
C143 C 0.54187 0.86588 0.33291 0.0
O144 O 0.51238 0.89455 0.32319 0.0
Co145 Co 0.51693 0.87703 0.36189 0.0
O146 O 0.51962 0.90237 0.35225 0.0
C147 C 0.48231 0.86151 0.34757 0.0
C148 C 0.50695 0.84696 0.2971 0.0
C149 C 0.51579 0.90668 0.33568 0.0
O150 O 0.4876 0.86411 0.33084 0.0
O151 O 0.4928 0.86382 0.36151 0.0
O152 O 0.53993 0.86793 0.31525 0.0
O153 O 0.52692 0.86287 0.34188 0.0
Co154 Co 0.13595 0.51062 0.31724 0.0
O155 O 0.16154 0.50806 0.31085 0.0
O156 O 0.1383 0.50289 0.29189 0.0
C157 C 0.13945 0.53821 0.33117 0.0
O158 O 0.10795 0.51227 0.31829 0.0
Co159 Co 0.12215 0.51436 0.35747 0.0
O160 O 0.09854 0.52168 0.34613 0.0
C161 C 0.13125 0.47751 0.34219 0.0
C162 C 0.15598 0.50374 0.29445 0.0
C163 C 0.09526 0.51762 0.32942 0.0
O164 O 0.13509 0.48429 0.32626 0.0
O165 O 0.1267 0.48723 0.35615 0.0
O166 O 0.13758 0.53728 0.31343 0.0
O167 O 0.14 0.52266 0.33968 0.0
Co168 Co 0.48556 0.8644 0.68391 0.0
O169 O 0.48418 0.83899 0.6912 0.0
O170 O 0.49422 0.8616 0.70892 0.0
C171 C 0.45732 0.86565 0.67102 0.0
O172 O 0.48835 0.89226 0.68155 0.0
Co173 Co 0.48342 0.87554 0.64247 0.0
O174 O 0.48455 0.901 0.65206 0.0
C175 C 0.51681 0.85788 0.65719 0.0
C176 C 0.4905 0.8442 0.70706 0.0
C177 C 0.48748 0.90469 0.66895 0.0
O178 O 0.51127 0.86047 0.67384 0.0
O179 O 0.50673 0.86096 0.64309 0.0
O180 O 0.45905 0.86727 0.68874 0.0
O181 O 0.47217 0.86187 0.66219 0.0
Co182 Co 0.13612 0.49027 0.68229 0.0
O183 O 0.1614 0.49303 0.68967 0.0
O184 O 0.13741 0.49727 0.70792 0.0
C185 C 0.14031 0.46321 0.66752 0.0
O186 O 0.10819 0.48823 0.68009 0.0
Co187 Co 0.1241 0.48788 0.64131 0.0
O188 O 0.10039 0.4793 0.65158 0.0
C189 C 0.13207 0.52423 0.65829 0.0
C190 C 0.15518 0.49692 0.70594 0.0
C191 C 0.09623 0.48276 0.66824 0.0
O192 O 0.1352 0.5169 0.67413 0.0
O193 O 0.1283 0.51498 0.64378 0.0
O194 O 0.13794 0.46348 0.68523 0.0
O195 O 0.14111 0.47907 0.65965 0.0
Co196 Co 0.5119 0.13577 0.67818 0.0
O197 O 0.50886 0.1615 0.68382 0.0
O198 O 0.50387 0.13867 0.70333 0.0
C199 C 0.53961 0.13877 0.66432 0.0
O200 O 0.5141 0.10778 0.67804 0.0
Co201 Co 0.51579 0.12086 0.63828 0.0
O202 O 0.52381 0.09788 0.65046 0.0
C203 C 0.47885 0.13018 0.65314 0.0
C204 C 0.50446 0.15628 0.70033 0.0
C205 C 0.5199 0.09497 0.66729 0.0
O206 O 0.4856 0.13416 0.66905 0.0
O207 O 0.48869 0.12563 0.63925 0.0
O208 O 0.5385 0.13796 0.68213 0.0
O209 O 0.52411 0.13905 0.6557 0.0
Co210 Co 0.86326 0.51242 0.68109 0.0
O211 O 0.83745 0.51128 0.68722 0.0
O212 O 0.86015 0.50298 0.70573 0.0
C213 C 0.86252 0.54113 0.66908 0.0
O214 O 0.89131 0.51205 0.68028 0.0
Co215 Co 0.8773 0.51741 0.64091 0.0
O216 O 0.90132 0.52232 0.65287 0.0
C217 C 0.86228 0.48153 0.65316 0.0
C218 C 0.8426 0.50526 0.70324 0.0
C219 C 0.90425 0.51732 0.6694 0.0
O220 O 0.86221 0.48681 0.67011 0.0
O221 O 0.86614 0.49223 0.6397 0.0
O222 O 0.86348 0.53887 0.68678 0.0
O223 O 0.8607 0.52631 0.65956 0.0
Co224 Co 0.31937 0.48936 0.13683 0.0
O225 O 0.31253 0.49283 0.16214 0.0
O226 O 0.29464 0.49924 0.13839 0.0
C227 C 0.33084 0.46086 0.14136 0.0
O228 O 0.32125 0.487 0.10888 0.0
Co229 Co 0.35979 0.48211 0.12508 0.0
O230 O 0.34898 0.47607 0.10086 0.0
C231 C 0.34751 0.52009 0.13408 0.0
C232 C 0.29669 0.49842 0.15615 0.0
C233 C 0.33266 0.48093 0.09676 0.0
O234 O 0.33064 0.51487 0.13591 0.0
O235 O 0.3608 0.5089 0.13117 0.0
O236 O 0.31333 0.46305 0.13865 0.0
O237 O 0.34049 0.47567 0.14203 0.0
Co238 Co 0.31812 0.51112 0.86486 0.0
O239 O 0.31089 0.51067 0.83943 0.0
O240 O 0.29255 0.5039 0.86275 0.0
C241 C 0.33266 0.53858 0.86339 0.0
O242 O 0.32055 0.51064 0.89284 0.0
Co243 Co 0.35967 0.5117 0.87545 0.0
O244 O 0.35019 0.51451 0.90086 0.0
C245 C 0.3427 0.47773 0.86139 0.0
C246 C 0.29465 0.50596 0.84509 0.0
C247 C 0.33328 0.51246 0.90504 0.0
O248 O 0.3265 0.4846 0.86338 0.0
O249 O 0.35751 0.48702 0.86338 0.0
O250 O 0.31491 0.53799 0.86536 0.0
O251 O 0.34055 0.52293 0.86095 0.0
Co252 Co 0.48983 0.32024 0.85853 0.0
O253 O 0.4912 0.31301 0.83315 0.0
O254 O 0.49763 0.29481 0.85669 0.0
C255 C 0.4621 0.33414 0.85648 0.0
O256 O 0.48931 0.32281 0.88649 0.0
Co257 Co 0.48794 0.36179 0.86898 0.0
O258 O 0.482 0.35198 0.89376 0.0
C259 C 0.52295 0.34549 0.85647 0.0
C260 C 0.49609 0.29688 0.83897 0.0
C261 C 0.48505 0.33532 0.89831 0.0
O262 O 0.51619 0.32917 0.8578 0.0
O263 O 0.51338 0.36014 0.85844 0.0
O264 O 0.46308 0.31641 0.85844 0.0
O265 O 0.47761 0.34238 0.85422 0.0
Co266 Co 0.68102 0.48826 0.86432 0.0
O267 O 0.68769 0.48802 0.83873 0.0
O268 O 0.70613 0.49677 0.86127 0.0
C269 C 0.66805 0.45998 0.86449 0.0
O270 O 0.67898 0.4897 0.89237 0.0
Co271 Co 0.63968 0.48578 0.87557 0.0
O272 O 0.64997 0.48275 0.90062 0.0
C273 C 0.65452 0.52015 0.85994 0.0
C274 C 0.70375 0.49388 0.84376 0.0
C275 C 0.66663 0.48642 0.90469 0.0
O276 O 0.67112 0.5142 0.86176 0.0
O277 O 0.6403 0.51017 0.86281 0.0
O278 O 0.68577 0.46166 0.86599 0.0
O279 O 0.65925 0.47502 0.86139 0.0
Co280 Co 0.51205 0.68114 0.8657 0.0
O281 O 0.5116 0.68871 0.84037 0.0
O282 O 0.50457 0.70669 0.86389 0.0
C283 C 0.53966 0.66693 0.86348 0.0
O284 O 0.51161 0.67844 0.89373 0.0
Co285 Co 0.51385 0.63979 0.87656 0.0
O286 O 0.51778 0.64923 0.90173 0.0
C287 C 0.47818 0.65666 0.86614 0.0
C288 C 0.50675 0.70484 0.84622 0.0
C289 C 0.51458 0.66593 0.90594 0.0
O290 O 0.48558 0.67263 0.86415 0.0
O291 O 0.4872 0.64208 0.87011 0.0
O292 O 0.53884 0.68455 0.86628 0.0
O293 O 0.52408 0.65882 0.86122 0.0
Co294 Co 0.68418 0.51014 0.13819 0.0
O295 O 0.6922 0.51048 0.16334 0.0
O296 O 0.71009 0.50377 0.13967 0.0
C297 C 0.66883 0.53718 0.13951 0.0
O298 O 0.68068 0.50904 0.11031 0.0
Co299 Co 0.64217 0.50922 0.12953 0.0
O300 O 0.65058 0.51229 0.10377 0.0
C301 C 0.66082 0.47599 0.14327 0.0
C302 C 0.70838 0.50603 0.15736 0.0
C303 C 0.66731 0.51062 0.09876 0.0
O304 O 0.67671 0.48339 0.14069 0.0
O305 O 0.64562 0.48466 0.1415 0.0
O306 O 0.68647 0.53707 0.13669 0.0
O307 O 0.6616 0.52136 0.1428 0.0
Co308 Co 0.4904 0.68362 0.13857 0.0
O309 O 0.49154 0.69141 0.16382 0.0
O310 O 0.49762 0.70926 0.13992 0.0
C311 C 0.46295 0.66912 0.14106 0.0
O312 O 0.49013 0.6806 0.11064 0.0
Co313 Co 0.48909 0.64191 0.12865 0.0
O314 O 0.48457 0.65106 0.10335 0.0
C315 C 0.52347 0.65881 0.14213 0.0
C316 C 0.49609 0.70752 0.15767 0.0
C317 C 0.48703 0.66781 0.09877 0.0
O318 O 0.51692 0.67511 0.13975 0.0
O319 O 0.51386 0.64415 0.14047 0.0
O320 O 0.46349 0.68681 0.13852 0.0
O321 O 0.47867 0.66133 0.1433 0.0
Co322 Co 0.51208 0.319 0.13216 0.0
O323 O 0.51236 0.31085 0.15732 0.0
O324 O 0.50353 0.29378 0.13373 0.0
C325 C 0.54031 0.33201 0.13254 0.0
O326 O 0.51046 0.32267 0.10432 0.0
Co327 Co 0.51432 0.36111 0.12363 0.0
O328 O 0.51432 0.35272 0.09771 0.0
C329 C 0.48053 0.34515 0.13915 0.0
C330 C 0.50637 0.29515 0.15135 0.0
C331 C 0.51171 0.33609 0.09279 0.0
O332 O 0.48616 0.32877 0.1354 0.0
O333 O 0.49069 0.35944 0.13766 0.0
O334 O 0.53873 0.31438 0.13018 0.0
O335 O 0.52528 0.34058 0.13621 0.0
H336 H 0.10527 0.45697 0.35868 0.0
H337 H 0.10859 0.42571 0.3704 0.0
H338 H 0.16209 0.42183 0.34514 0.0
H339 H 0.15864 0.45328 0.33304 0.0
H340 H 0.11827 0.38872 0.35744 0.0
H341 H 0.18768 0.41198 0.37658 0.0
H342 H 0.20569 0.44044 0.38119 0.0
H343 H 0.15851 0.46671 0.4051 0.0
H344 H 0.14029 0.43841 0.40053 0.0
H345 H 0.14183 0.32036 0.42721 0.0
H346 H 0.14298 0.3396 0.39938 0.0
H347 H 0.13451 0.38796 0.43272 0.0
H348 H 0.134 0.36908 0.46025 0.0
H349 H 0.16137 0.39399 0.41006 0.0
H350 H 0.09979 0.36706 0.40528 0.0
H351 H 0.07817 0.34107 0.40229 0.0
H352 H 0.10485 0.32427 0.35235 0.0
H353 H 0.12673 0.35007 0.35516 0.0
C354 C 0.11747 0.4492 0.35509 0.0
C355 C 0.13177 0.45748 0.34509 0.0
C356 C 0.11929 0.43131 0.36167 0.0
C357 C 0.13558 0.42148 0.35867 0.0
C358 C 0.14937 0.42919 0.3475 0.0
C359 C 0.1474 0.4471 0.3406 0.0
C360 C 0.13925 0.40517 0.37029 0.0
C361 C 0.12802 0.38955 0.36869 0.0
C362 C 0.15171 0.40643 0.38511 0.0
C363 C 0.16272 0.42319 0.38826 0.0
C364 C 0.18124 0.42383 0.3829 0.0
C365 C 0.19144 0.43992 0.38545 0.0
C366 C 0.18325 0.45537 0.39344 0.0
C367 C 0.16484 0.45475 0.3989 0.0
C368 C 0.15457 0.43871 0.39633 0.0
C369 C 0.14006 0.33509 0.42848 0.0
C370 C 0.1379 0.34324 0.44589 0.0
C371 C 0.14073 0.34606 0.4126 0.0
C372 C 0.13892 0.36527 0.41394 0.0
C373 C 0.1362 0.37323 0.43131 0.0
C374 C 0.1358 0.36238 0.44708 0.0
C375 C 0.14007 0.37751 0.39759 0.0
C376 C 0.15219 0.39252 0.39839 0.0
C377 C 0.1282 0.37572 0.38223 0.0
C378 C 0.115 0.36033 0.38054 0.0
C379 C 0.1011 0.35774 0.39373 0.0
C380 C 0.0888 0.34307 0.39206 0.0
C381 C 0.09017 0.331 0.37717 0.0
C382 C 0.10382 0.33361 0.36389 0.0
C383 C 0.11616 0.34826 0.36551 0.0
H384 H 0.08064 0.31964 0.3759 0.0
H385 H 0.19117 0.46781 0.3954 0.0
H386 H 0.68078 0.1333 0.42421 0.0
H387 H 0.66233 0.13224 0.39583 0.0
H388 H 0.61282 0.13809 0.42797 0.0
H389 H 0.63094 0.13913 0.45603 0.0
H390 H 0.60884 0.11198 0.4017 0.0
H391 H 0.63267 0.1749 0.40683 0.0
H392 H 0.65772 0.19775 0.40799 0.0
H393 H 0.67748 0.17919 0.35553 0.0
H394 H 0.65265 0.15608 0.35418 0.0
H395 H 0.54183 0.16857 0.36301 0.0
H396 H 0.57365 0.16646 0.37345 0.0
H397 H 0.58375 0.12308 0.33435 0.0
H398 H 0.55177 0.12532 0.32363 0.0
H399 H 0.61309 0.16306 0.3566 0.0
H400 H 0.59113 0.09383 0.35766 0.0
H401 H 0.56346 0.07409 0.3574 0.0
H402 H 0.53847 0.10819 0.39865 0.0
H403 H 0.566 0.12811 0.39902 0.0
C404 C 0.66595 0.13422 0.42516 0.0
C405 C 0.65731 0.13632 0.44235 0.0
C406 C 0.65545 0.13365 0.40897 0.0
C407 C 0.63619 0.13509 0.4098 0.0
C408 C 0.62764 0.13682 0.42699 0.0
C409 C 0.63805 0.13749 0.44305 0.0
C410 C 0.6246 0.13555 0.39299 0.0
C411 C 0.61014 0.12285 0.39156 0.0
C412 C 0.62617 0.14972 0.3797 0.0
C413 C 0.64098 0.16364 0.38051 0.0
C414 C 0.64245 0.17561 0.39562 0.0
C415 C 0.65658 0.18862 0.3963 0.0
C416 C 0.66922 0.18988 0.38187 0.0
C417 C 0.66771 0.17817 0.36671 0.0
C418 C 0.65361 0.16512 0.36598 0.0
C419 C 0.55106 0.15915 0.35607 0.0
C420 C 0.54438 0.14705 0.3426 0.0
C421 C 0.56925 0.15801 0.36199 0.0
C422 C 0.58099 0.14457 0.35472 0.0
C423 C 0.57489 0.13362 0.34003 0.0
C424 C 0.55667 0.13494 0.33389 0.0
C425 C 0.59751 0.13952 0.36547 0.0
C426 C 0.61258 0.15152 0.36605 0.0
C427 C 0.59663 0.12471 0.37799 0.0
C428 C 0.58055 0.1123 0.37844 0.0
C429 C 0.57976 0.09697 0.36675 0.0
C430 C 0.5641 0.08582 0.36653 0.0
C431 C 0.54923 0.08987 0.37802 0.0
C432 C 0.55001 0.10505 0.38978 0.0
C433 C 0.56563 0.11625 0.39002 0.0
H434 H 0.53709 0.08125 0.37779 0.0
H435 H 0.68015 0.19996 0.38242 0.0
H436 H 0.85883 0.63261 0.45882 0.0
H437 H 0.86202 0.61529 0.43045 0.0
H438 H 0.86078 0.66555 0.39906 0.0
H439 H 0.85793 0.68335 0.42783 0.0
H440 H 0.83593 0.62877 0.38861 0.0
H441 H 0.89697 0.65338 0.39539 0.0
H442 H 0.92404 0.66269 0.41357 0.0
H443 H 0.93113 0.60711 0.43211 0.0
H444 H 0.9039 0.59752 0.41435 0.0
H445 H 0.85774 0.55065 0.32885 0.0
H446 H 0.85751 0.58315 0.3386 0.0
H447 H 0.87661 0.56698 0.3924 0.0
H448 H 0.87698 0.5352 0.38303 0.0
H449 H 0.89535 0.59644 0.38003 0.0
H450 H 0.83119 0.57509 0.38388 0.0
H451 H 0.8023 0.56375 0.37016 0.0
H452 H 0.80018 0.61104 0.33484 0.0
H453 H 0.82919 0.62254 0.34824 0.0
C454 C 0.85921 0.6401 0.44596 0.0
C455 C 0.85827 0.65939 0.4456 0.0
C456 C 0.86099 0.63014 0.42974 0.0
C457 C 0.86169 0.63916 0.41275 0.0
C458 C 0.86026 0.6584 0.41212 0.0
C459 C 0.85869 0.6685 0.42851 0.0
C460 C 0.86455 0.62791 0.39607 0.0
C461 C 0.84907 0.62216 0.38611 0.0
C462 C 0.88164 0.61914 0.39315 0.0
C463 C 0.89834 0.62474 0.40352 0.0
C464 C 0.90424 0.64316 0.40342 0.0
C465 C 0.91962 0.64849 0.41365 0.0
C466 C 0.92931 0.6355 0.42399 0.0
C467 C 0.92364 0.61715 0.42408 0.0
C468 C 0.90824 0.61176 0.4139 0.0
C469 C 0.86193 0.55411 0.34271 0.0
C470 C 0.86727 0.54023 0.35514 0.0
C471 C 0.86182 0.57265 0.34825 0.0
C472 C 0.86718 0.5775 0.36621 0.0
C473 C 0.87263 0.56365 0.37842 0.0
C474 C 0.87265 0.54535 0.37302 0.0
C475 C 0.86652 0.59666 0.37322 0.0
C476 C 0.88244 0.60376 0.38155 0.0
C477 C 0.84979 0.60645 0.37489 0.0
C478 C 0.83244 0.59952 0.36684 0.0
C479 C 0.82462 0.58298 0.37307 0.0
C480 C 0.80823 0.57654 0.36538 0.0
C481 C 0.79945 0.58663 0.35158 0.0
C482 C 0.80703 0.60321 0.34548 0.0
C483 C 0.82344 0.60969 0.35312 0.0
H484 H 0.78675 0.58163 0.34565 0.0
H485 H 0.9412 0.63965 0.43192 0.0
H486 H 0.36136 0.8365 0.45988 0.0
H487 H 0.38263 0.83695 0.43402 0.0
H488 H 0.3466 0.87384 0.40467 0.0
H489 H 0.32468 0.8728 0.43054 0.0
H490 H 0.36488 0.84894 0.38106 0.0
H491 H 0.38069 0.89216 0.4275 0.0
H492 H 0.38572 0.90281 0.4593 0.0
H493 H 0.42968 0.86392 0.46571 0.0
H494 H 0.42469 0.8528 0.43405 0.0
H495 H 0.45103 0.87692 0.33314 0.0
H496 H 0.4202 0.87548 0.34711 0.0
H497 H 0.43975 0.835 0.3858 0.0
H498 H 0.47032 0.83656 0.37215 0.0
H499 H 0.42709 0.86791 0.40163 0.0
H500 H 0.40854 0.82343 0.35492 0.0
H501 H 0.40268 0.81367 0.32297 0.0
H502 H 0.36389 0.85767 0.31629 0.0
H503 H 0.36971 0.86785 0.34813 0.0
C504 C 0.3578 0.84447 0.4478 0.0
C505 C 0.34154 0.85481 0.44725 0.0
C506 C 0.36995 0.84471 0.43303 0.0
C507 C 0.3664 0.85576 0.41761 0.0
C508 C 0.34962 0.86529 0.41649 0.0
C509 C 0.33717 0.86473 0.43124 0.0
C510 C 0.38121 0.85854 0.40385 0.0
C511 C 0.37842 0.85339 0.38543 0.0
C512 C 0.39883 0.86457 0.40951 0.0
C513 C 0.40226 0.8716 0.4284 0.0
C514 C 0.39139 0.88583 0.43571 0.0
C515 C 0.39423 0.89194 0.45371 0.0
C516 C 0.408 0.88404 0.46452 0.0
C517 C 0.41902 0.87004 0.45731 0.0
C518 C 0.41621 0.86384 0.43933 0.0
C519 C 0.44847 0.86721 0.34414 0.0
C520 C 0.463 0.85693 0.35169 0.0
C521 C 0.43091 0.86646 0.35215 0.0
C522 C 0.42779 0.85528 0.36762 0.0
C523 C 0.44192 0.8438 0.37396 0.0
C524 C 0.45935 0.84465 0.36612 0.0
C525 C 0.41107 0.85733 0.37909 0.0
C526 C 0.41351 0.86368 0.39713 0.0
C527 C 0.39321 0.85272 0.37292 0.0
C528 C 0.38973 0.84654 0.35383 0.0
C529 C 0.3989 0.83114 0.34658 0.0
C530 C 0.39555 0.8255 0.3285 0.0
C531 C 0.38297 0.83508 0.31759 0.0
C532 C 0.37366 0.85028 0.32474 0.0
C533 C 0.37697 0.85598 0.34281 0.0
H534 H 0.38039 0.83069 0.3036 0.0
H535 H 0.41016 0.88876 0.47847 0.0
H536 H 0.15841 0.54877 0.66966 0.0
H537 H 0.1613 0.58097 0.65946 0.0
H538 H 0.10918 0.57657 0.63142 0.0
H539 H 0.10643 0.54476 0.64137 0.0
H540 H 0.16451 0.58965 0.62409 0.0
H541 H 0.08811 0.61614 0.62679 0.0
H542 H 0.06266 0.61679 0.64915 0.0
H543 H 0.10103 0.61068 0.6936 0.0
H544 H 0.12676 0.61028 0.67156 0.0
H545 H 0.13624 0.62857 0.54369 0.0
H546 H 0.13851 0.61202 0.5726 0.0
H547 H 0.13552 0.66313 0.60252 0.0
H548 H 0.13295 0.68001 0.57324 0.0
H549 H 0.11473 0.636 0.61868 0.0
H550 H 0.17639 0.64251 0.59989 0.0
H551 H 0.20252 0.64271 0.5783 0.0
H552 H 0.19549 0.58488 0.56877 0.0
H553 H 0.16915 0.58437 0.59008 0.0
C554 C 0.14735 0.55498 0.66185 0.0
C555 C 0.13225 0.54437 0.65619 0.0
C556 C 0.14902 0.5733 0.656 0.0
C557 C 0.1354 0.58126 0.64478 0.0
C558 C 0.11972 0.57094 0.64033 0.0
C559 C 0.11821 0.55269 0.6459 0.0
C560 C 0.13857 0.5989 0.63496 0.0
C561 C 0.15381 0.6 0.6232 0.0
C562 C 0.1249 0.61275 0.63414 0.0
C563 C 0.10941 0.61316 0.64747 0.0
C564 C 0.09116 0.61509 0.64134 0.0
C565 C 0.07667 0.61537 0.65396 0.0
C566 C 0.08022 0.61376 0.67278 0.0
C567 C 0.09829 0.61188 0.67901 0.0
C568 C 0.11283 0.6116 0.66646 0.0
C569 C 0.13598 0.63638 0.55637 0.0
C570 C 0.13453 0.65563 0.55617 0.0
C571 C 0.13741 0.62687 0.57292 0.0
C572 C 0.13764 0.63636 0.58971 0.0
C573 C 0.13556 0.65557 0.58969 0.0
C574 C 0.13406 0.66517 0.57299 0.0
C575 C 0.13991 0.62577 0.60702 0.0
C576 C 0.12572 0.62602 0.62008 0.0
C577 C 0.15471 0.61331 0.60926 0.0
C578 C 0.17077 0.61342 0.59662 0.0
C579 C 0.18037 0.62985 0.59315 0.0
C580 C 0.19523 0.63001 0.58095 0.0
C581 C 0.20067 0.61382 0.57217 0.0
C582 C 0.19129 0.59741 0.57561 0.0
C583 C 0.17641 0.59717 0.58779 0.0
H584 H 0.21216 0.61398 0.56272 0.0
H585 H 0.06897 0.61397 0.68252 0.0
H586 H 0.32017 0.14827 0.57393 0.0
H587 H 0.33808 0.14895 0.60278 0.0
H588 H 0.38075 0.11698 0.57689 0.0
H589 H 0.36351 0.11694 0.54817 0.0
H590 H 0.36731 0.10684 0.61687 0.0
H591 H 0.39091 0.15624 0.57504 0.0
H592 H 0.38545 0.18453 0.55711 0.0
H593 H 0.36418 0.21124 0.60529 0.0
H594 H 0.36933 0.18298 0.62343 0.0
H595 H 0.45968 0.10694 0.63158 0.0
H596 H 0.42744 0.10849 0.62315 0.0
H597 H 0.4199 0.15485 0.65941 0.0
H598 H 0.45269 0.15329 0.66803 0.0
H599 H 0.40683 0.16184 0.62513 0.0
H600 H 0.39636 0.11576 0.66866 0.0
H601 H 0.40117 0.08763 0.68693 0.0
H602 H 0.39569 0.05469 0.63827 0.0
H603 H 0.39114 0.0826 0.61961 0.0
C604 C 0.33326 0.14119 0.57457 0.0
C605 C 0.34052 0.1326 0.55884 0.0
C606 C 0.34343 0.1416 0.59098 0.0
C607 C 0.36066 0.13294 0.5919 0.0
C608 C 0.36742 0.12364 0.57645 0.0
C609 C 0.35759 0.1237 0.56002 0.0
C610 C 0.37269 0.13456 0.60821 0.0
C611 C 0.37584 0.11889 0.61896 0.0
C612 C 0.38323 0.15055 0.61134 0.0
C613 C 0.38028 0.1675 0.6005 0.0
C614 C 0.38492 0.16811 0.58175 0.0
C615 C 0.38192 0.18413 0.57156 0.0
C616 C 0.37441 0.19966 0.58004 0.0
C617 C 0.36995 0.1992 0.59873 0.0
C618 C 0.3729 0.18319 0.60897 0.0
C619 C 0.45114 0.11732 0.63801 0.0
C620 C 0.45872 0.1301 0.65034 0.0
C621 C 0.43262 0.11807 0.63332 0.0
C622 C 0.42114 0.13165 0.64079 0.0
C623 C 0.42848 0.14416 0.6536 0.0
C624 C 0.44715 0.14324 0.65853 0.0
C625 C 0.40225 0.13367 0.63325 0.0
C626 C 0.39783 0.15 0.62393 0.0
C627 C 0.39039 0.11829 0.63166 0.0
C628 C 0.39336 0.10135 0.64272 0.0
C629 C 0.39629 0.10253 0.66181 0.0
C630 C 0.39895 0.08661 0.67225 0.0
C631 C 0.39865 0.06938 0.66378 0.0
C632 C 0.39582 0.06804 0.64482 0.0
C633 C 0.39316 0.08392 0.63431 0.0
H634 H 0.40067 0.05707 0.67189 0.0
H635 H 0.3721 0.21206 0.57214 0.0
H636 H 0.84576 0.46904 0.62235 0.0
H637 H 0.84338 0.43749 0.61168 0.0
H638 H 0.86817 0.41826 0.66205 0.0
H639 H 0.87059 0.45028 0.67295 0.0
H640 H 0.88498 0.40394 0.63063 0.0
H641 H 0.82481 0.40621 0.65437 0.0
H642 H 0.7944 0.41944 0.66135 0.0
H643 H 0.78193 0.42205 0.60369 0.0
H644 H 0.81236 0.40911 0.59631 0.0
H645 H 0.87224 0.32259 0.57202 0.0
H646 H 0.87012 0.34121 0.60032 0.0
H647 H 0.84855 0.38651 0.5687 0.0
H648 H 0.85081 0.36837 0.54076 0.0
H649 H 0.82859 0.37909 0.60138 0.0
H650 H 0.89245 0.38585 0.57944 0.0
H651 H 0.92299 0.37299 0.57217 0.0
H652 H 0.92791 0.35275 0.62745 0.0
H653 H 0.89726 0.36529 0.63494 0.0
C654 C 0.85042 0.45811 0.63135 0.0
C655 C 0.85838 0.46213 0.64847 0.0
C656 C 0.84897 0.44003 0.62526 0.0
C657 C 0.85546 0.42546 0.63611 0.0
C658 C 0.86298 0.4293 0.65351 0.0
C659 C 0.86423 0.44754 0.65976 0.0
C660 C 0.85556 0.40665 0.62816 0.0
C661 C 0.87256 0.39813 0.62475 0.0
C662 C 0.83938 0.39901 0.6205 0.0
C663 C 0.82092 0.40666 0.62479 0.0
C664 C 0.81562 0.40967 0.64316 0.0
C665 C 0.79837 0.41712 0.64719 0.0
C666 C 0.78624 0.42157 0.63297 0.0
C667 C 0.79133 0.41856 0.61469 0.0
C668 C 0.80857 0.41112 0.61058 0.0
C669 C 0.86703 0.33651 0.57121 0.0
C670 C 0.86174 0.34404 0.55418 0.0
C671 C 0.86581 0.34709 0.58733 0.0
C672 C 0.85906 0.36519 0.58659 0.0
C673 C 0.85364 0.37253 0.56962 0.0
C674 C 0.85507 0.36215 0.55361 0.0
C675 C 0.85806 0.37718 0.60305 0.0
C676 C 0.84087 0.38441 0.60798 0.0
C677 C 0.87402 0.38355 0.61215 0.0
C678 C 0.8925 0.37628 0.60768 0.0
C679 C 0.9 0.37854 0.58999 0.0
C680 C 0.91733 0.37133 0.58584 0.0
C681 C 0.92736 0.362 0.59932 0.0
C682 C 0.92011 0.35994 0.61701 0.0
C683 C 0.90276 0.36709 0.62121 0.0
H684 H 0.94077 0.35641 0.59608 0.0
H685 H 0.77289 0.42735 0.63612 0.0
H686 H 0.54773 0.86552 0.6777 0.0
H687 H 0.57977 0.8627 0.66721 0.0
H688 H 0.56099 0.83636 0.61744 0.0
H689 H 0.52942 0.83877 0.62792 0.0
H690 H 0.59276 0.82227 0.62706 0.0
H691 H 0.56662 0.88444 0.62094 0.0
H692 H 0.55348 0.9129 0.63394 0.0
H693 H 0.60156 0.92014 0.66743 0.0
H694 H 0.61491 0.8916 0.65471 0.0
H695 H 0.62686 0.85338 0.5447 0.0
H696 H 0.60938 0.84985 0.573 0.0
H697 H 0.65675 0.86602 0.60476 0.0
H698 H 0.67467 0.8694 0.57617 0.0
H699 H 0.61997 0.88348 0.61407 0.0
H700 H 0.64882 0.82472 0.60863 0.0
H701 H 0.65959 0.79733 0.59182 0.0
H702 H 0.604 0.78419 0.57696 0.0
H703 H 0.5929 0.81165 0.59344 0.0
C704 C 0.55057 0.8586 0.66482 0.0
C705 C 0.53609 0.8526 0.65349 0.0
C706 C 0.56884 0.85711 0.65878 0.0
C707 C 0.57278 0.84962 0.64137 0.0
C708 C 0.55837 0.84222 0.63089 0.0
C709 C 0.54027 0.84371 0.63686 0.0
C710 C 0.59119 0.8513 0.63266 0.0
C711 C 0.5989 0.83561 0.62446 0.0
C712 C 0.59951 0.86865 0.62957 0.0
C713 C 0.59164 0.88584 0.63706 0.0
C714 C 0.57434 0.89209 0.63113 0.0
C715 C 0.56687 0.90821 0.63844 0.0
C716 C 0.57666 0.91828 0.65153 0.0
C717 C 0.59398 0.91229 0.65731 0.0
C718 C 0.60151 0.89615 0.65007 0.0
C719 C 0.63363 0.85627 0.55765 0.0
C720 C 0.65218 0.8616 0.5582 0.0
C721 C 0.62361 0.85418 0.57382 0.0
C722 C 0.63185 0.85746 0.59094 0.0
C723 C 0.65022 0.86333 0.59164 0.0
C724 C 0.6604 0.86525 0.57535 0.0
C725 C 0.6208 0.85458 0.60779 0.0
C726 C 0.61446 0.87002 0.61742 0.0
C727 C 0.61348 0.83705 0.61192 0.0
C728 C 0.62004 0.82027 0.6023 0.0
C729 C 0.63889 0.81603 0.60173 0.0
C730 C 0.64506 0.80049 0.59225 0.0
C731 C 0.63249 0.78902 0.58333 0.0
C732 C 0.61372 0.79306 0.5839 0.0
C733 C 0.60748 0.80859 0.59335 0.0
H734 H 0.63729 0.77701 0.57598 0.0
H735 H 0.57084 0.93075 0.65713 0.0
H736 H 0.37023 0.11 0.46097 0.0
H737 H 0.38128 0.11558 0.4299 0.0
H738 H 0.34175 0.15924 0.42334 0.0
H739 H 0.33044 0.15368 0.45487 0.0
H740 H 0.35839 0.12353 0.39054 0.0
H741 H 0.36774 0.18341 0.42376 0.0
H742 H 0.3738 0.19968 0.45295 0.0
H743 H 0.42197 0.16665 0.46166 0.0
H744 H 0.41603 0.15008 0.43263 0.0
H745 H 0.4274 0.14678 0.3214 0.0
H746 H 0.40002 0.1485 0.34122 0.0
H747 H 0.43401 0.13792 0.38874 0.0
H748 H 0.4611 0.13703 0.36932 0.0
H749 H 0.41244 0.16471 0.39623 0.0
H750 H 0.40466 0.10462 0.36674 0.0
H751 H 0.40018 0.08426 0.33996 0.0
H752 H 0.35094 0.1135 0.32559 0.0
H753 H 0.35525 0.13415 0.35219 0.0
C754 C 0.3636 0.12058 0.45284 0.0
C755 C 0.34968 0.13162 0.46043 0.0
C756 C 0.36983 0.12363 0.43502 0.0
C757 C 0.36237 0.13783 0.4244 0.0
C758 C 0.3476 0.14815 0.43137 0.0
C759 C 0.34119 0.14499 0.44933 0.0
C760 C 0.37238 0.14326 0.40756 0.0
C761 C 0.36985 0.13304 0.39141 0.0
C762 C 0.38757 0.15524 0.40897 0.0
C763 C 0.3914 0.1655 0.42613 0.0
C764 C 0.37957 0.17961 0.43196 0.0
C765 C 0.38299 0.18887 0.44846 0.0
C766 C 0.39825 0.18419 0.45916 0.0
C767 C 0.41016 0.17027 0.45336 0.0
C768 C 0.40679 0.16096 0.43689 0.0
C769 C 0.42891 0.14475 0.33608 0.0
C770 C 0.44639 0.14185 0.34383 0.0
C771 C 0.41328 0.14571 0.34738 0.0
C772 C 0.41491 0.14339 0.36653 0.0
C773 C 0.43236 0.14002 0.37408 0.0
C774 C 0.44789 0.1394 0.36291 0.0
C775 C 0.39884 0.14462 0.37914 0.0
C776 C 0.40046 0.15594 0.39471 0.0
C777 C 0.38297 0.13348 0.37718 0.0
C778 C 0.3804 0.12104 0.36128 0.0
C779 C 0.39295 0.10677 0.35778 0.0
C780 C 0.39043 0.09517 0.34266 0.0
C781 C 0.37532 0.09763 0.33104 0.0
C782 C 0.36266 0.11164 0.33457 0.0
C783 C 0.36513 0.12329 0.34966 0.0
H784 H 0.37339 0.08864 0.31934 0.0
H785 H 0.40086 0.19136 0.47194 0.0
H786 H 0.87227 0.3247 0.44616 0.0
H787 H 0.8694 0.33438 0.4138 0.0
H788 H 0.83778 0.38158 0.43091 0.0
H789 H 0.84049 0.372 0.4628 0.0
H790 H 0.82505 0.36858 0.39884 0.0
H791 H 0.88539 0.38307 0.42651 0.0
H792 H 0.91512 0.37404 0.44014 0.0
H793 H 0.9276 0.34187 0.39222 0.0
H794 H 0.89782 0.35059 0.37841 0.0
H795 H 0.84647 0.45438 0.36681 0.0
H796 H 0.84406 0.42507 0.38268 0.0
H797 H 0.86872 0.39756 0.3363 0.0
H798 H 0.87092 0.42725 0.31995 0.0
H799 H 0.88459 0.38959 0.37301 0.0
H800 H 0.82738 0.38679 0.34216 0.0
H801 H 0.79818 0.39881 0.32985 0.0
H802 H 0.77972 0.41088 0.38462 0.0
H803 H 0.80892 0.39922 0.39726 0.0
C804 C 0.86427 0.33682 0.44287 0.0
C805 C 0.85677 0.34773 0.45696 0.0
C806 C 0.86273 0.34239 0.42442 0.0
C807 C 0.85355 0.35884 0.41994 0.0
C808 C 0.8449 0.36885 0.43396 0.0
C809 C 0.84655 0.36341 0.45224 0.0
C810 C 0.85451 0.36719 0.4013 0.0
C811 C 0.83806 0.37293 0.39298 0.0
C812 C 0.87148 0.37243 0.3933 0.0
C813 C 0.88934 0.36726 0.40156 0.0
C814 C 0.89444 0.37398 0.41895 0.0
C815 C 0.9113 0.36893 0.4267 0.0
C816 C 0.92322 0.35733 0.41708 0.0
C817 C 0.91833 0.35081 0.39967 0.0
C818 C 0.90147 0.35579 0.39189 0.0
C819 C 0.8513 0.44212 0.35986 0.0
C820 C 0.8589 0.44311 0.34214 0.0
C821 C 0.84981 0.42535 0.36893 0.0
C822 C 0.85603 0.40913 0.3606 0.0
C823 C 0.86372 0.40994 0.34288 0.0
C824 C 0.86494 0.42684 0.33359 0.0
C825 C 0.85513 0.3918 0.37129 0.0
C826 C 0.87157 0.38446 0.37818 0.0
C827 C 0.83814 0.38526 0.37812 0.0
C828 C 0.82039 0.39209 0.37066 0.0
C829 C 0.81714 0.39208 0.35158 0.0
C830 C 0.80057 0.39883 0.34455 0.0
C831 C 0.7871 0.40559 0.35645 0.0
C832 C 0.79016 0.4056 0.37542 0.0
C833 C 0.8067 0.39887 0.38253 0.0
H834 H 0.77429 0.41083 0.35097 0.0
H835 H 0.93626 0.35344 0.42309 0.0
H836 H 0.54742 0.87467 0.36863 0.0
H837 H 0.57609 0.87423 0.38577 0.0
H838 H 0.60553 0.8588 0.33666 0.0
H839 H 0.57651 0.85961 0.31909 0.0
H840 H 0.61197 0.83586 0.3692 0.0
H841 H 0.61588 0.89819 0.3511 0.0
H842 H 0.60424 0.9294 0.34485 0.0
H843 H 0.59068 0.93611 0.40192 0.0
H844 H 0.60196 0.90483 0.40849 0.0
H845 H 0.67349 0.87404 0.45164 0.0
H846 H 0.6652 0.87405 0.41884 0.0
H847 H 0.61911 0.83862 0.43061 0.0
H848 H 0.62716 0.83875 0.46313 0.0
H849 H 0.63264 0.88853 0.40731 0.0
H850 H 0.6082 0.81293 0.39463 0.0
H851 H 0.6191 0.78155 0.40131 0.0
H852 H 0.67457 0.80129 0.40534 0.0
H853 H 0.66409 0.83276 0.39839 0.0
C854 C 0.55997 0.87142 0.36134 0.0
C855 C 0.55972 0.86717 0.34251 0.0
C856 C 0.57639 0.87123 0.37117 0.0
C857 C 0.59293 0.86658 0.36246 0.0
C858 C 0.59288 0.86252 0.34357 0.0
C859 C 0.57637 0.86306 0.33358 0.0
C860 C 0.60977 0.86499 0.37382 0.0
C861 C 0.61684 0.84739 0.37732 0.0
C862 C 0.61635 0.88015 0.38405 0.0
C863 C 0.60979 0.89912 0.38028 0.0
C864 C 0.61034 0.90628 0.36231 0.0
C865 C 0.60381 0.924 0.35871 0.0
C866 C 0.59673 0.93473 0.37298 0.0
C867 C 0.5962 0.92779 0.39089 0.0
C868 C 0.60271 0.91007 0.39457 0.0
C869 C 0.66198 0.86577 0.44707 0.0
C870 C 0.6509 0.85646 0.45989 0.0
C871 C 0.65721 0.86585 0.42838 0.0
C872 C 0.64159 0.85627 0.42225 0.0
C873 C 0.63137 0.84589 0.43492 0.0
C874 C 0.63593 0.84605 0.45354 0.0
C875 C 0.63401 0.85919 0.40351 0.0
C876 C 0.62849 0.87706 0.39873 0.0
C877 C 0.62889 0.84426 0.39212 0.0
C878 C 0.63533 0.82526 0.39599 0.0
C879 C 0.62275 0.81058 0.39677 0.0
C880 C 0.62885 0.79277 0.40065 0.0
C881 C 0.64751 0.78943 0.40376 0.0
C882 C 0.66012 0.8039 0.40296 0.0
C883 C 0.6541 0.82173 0.39907 0.0
H884 H 0.6522 0.77564 0.40678 0.0
H885 H 0.59165 0.94843 0.37016 0.0
H886 H 0.13147 0.67269 0.44776 0.0
H887 H 0.13502 0.66302 0.41551 0.0
H888 H 0.16182 0.61326 0.43358 0.0
H889 H 0.15848 0.62282 0.4654 0.0
H890 H 0.17707 0.62551 0.40227 0.0
H891 H 0.11462 0.61563 0.42697 0.0
H892 H 0.08511 0.62683 0.43943 0.0
H893 H 0.0773 0.66041 0.39147 0.0
H894 H 0.10689 0.64953 0.37883 0.0
H895 H 0.15079 0.5425 0.3663 0.0
H896 H 0.15396 0.57089 0.38369 0.0
H897 H 0.13486 0.60204 0.33698 0.0
H898 H 0.13191 0.57335 0.31912 0.0
H899 H 0.11732 0.60989 0.37329 0.0
H900 H 0.17606 0.609 0.34517 0.0
H901 H 0.20477 0.59497 0.33389 0.0
H902 H 0.21943 0.57985 0.38906 0.0
H903 H 0.19067 0.59351 0.40066 0.0
C904 C 0.13856 0.65995 0.44475 0.0
C905 C 0.14449 0.64838 0.45907 0.0
C906 C 0.1405 0.65441 0.42635 0.0
C907 C 0.14848 0.6373 0.42214 0.0
C908 C 0.15562 0.6265 0.43644 0.0
C909 C 0.15359 0.63193 0.45467 0.0
C910 C 0.14773 0.62924 0.4034 0.0
C911 C 0.16404 0.62233 0.39574 0.0
C912 C 0.13078 0.62553 0.39454 0.0
C913 C 0.11302 0.63198 0.40209 0.0
C914 C 0.10664 0.62549 0.41916 0.0
C915 C 0.08991 0.63176 0.42624 0.0
C916 C 0.07937 0.64437 0.41628 0.0
C917 C 0.08551 0.65068 0.39919 0.0
C918 C 0.10226 0.64448 0.39207 0.0
C919 C 0.14728 0.55535 0.35964 0.0
C920 C 0.1411 0.55571 0.34134 0.0
C921 C 0.14919 0.57158 0.36958 0.0
C922 C 0.14483 0.58855 0.36154 0.0
C923 C 0.13841 0.58905 0.34334 0.0
C924 C 0.13675 0.57271 0.3332 0.0
C925 C 0.14656 0.60537 0.37286 0.0
C926 C 0.13044 0.61384 0.37918 0.0
C927 C 0.16367 0.61036 0.38061 0.0
C928 C 0.18117 0.6023 0.37378 0.0
C929 C 0.18536 0.60261 0.3549 0.0
C930 C 0.20165 0.59472 0.34844 0.0
C931 C 0.21392 0.58653 0.36075 0.0
C932 C 0.20993 0.58623 0.37954 0.0
C933 C 0.19365 0.59409 0.38607 0.0
H934 H 0.22653 0.58042 0.35572 0.0
H935 H 0.06642 0.64921 0.42178 0.0
H936 H 0.35112 0.89253 0.54542 0.0
H937 H 0.36289 0.89085 0.5768 0.0
H938 H 0.3429 0.83526 0.5815 0.0
H939 H 0.33085 0.83698 0.54985 0.0
H940 H 0.34732 0.87049 0.61727 0.0
H941 H 0.37688 0.82368 0.57489 0.0
H942 H 0.38631 0.8157 0.54325 0.0
H943 H 0.41599 0.86656 0.53897 0.0
H944 H 0.40655 0.87487 0.57053 0.0
H945 H 0.42349 0.85228 0.68077 0.0
H946 H 0.39617 0.85052 0.66086 0.0
H947 H 0.42464 0.8821 0.61939 0.0
H948 H 0.45191 0.88305 0.63876 0.0
H949 H 0.41199 0.85281 0.60465 0.0
H950 H 0.38698 0.89865 0.64628 0.0
H951 H 0.3772 0.91049 0.67652 0.0
H952 H 0.33895 0.86586 0.68199 0.0
H953 H 0.34867 0.85363 0.65186 0.0
C954 C 0.3485 0.88025 0.55345 0.0
C955 C 0.34014 0.86488 0.54534 0.0
C956 C 0.35513 0.87934 0.57139 0.0
C957 C 0.35374 0.86296 0.58143 0.0
C958 C 0.34387 0.8481 0.574 0.0
C959 C 0.33703 0.84907 0.55597 0.0
C960 C 0.36642 0.86034 0.59709 0.0
C961 C 0.36136 0.86614 0.61477 0.0
C962 C 0.38479 0.85518 0.59362 0.0
C963 C 0.39097 0.84989 0.57495 0.0
C964 C 0.38539 0.83314 0.56716 0.0
C965 C 0.39072 0.82857 0.54926 0.0
C966 C 0.40172 0.84062 0.5391 0.0
C967 C 0.40748 0.85724 0.54685 0.0
C968 C 0.40216 0.86187 0.56474 0.0
C969 C 0.42365 0.85916 0.66756 0.0
C970 C 0.43976 0.86769 0.66118 0.0
C971 C 0.40807 0.85815 0.65619 0.0
C972 C 0.40836 0.86606 0.63852 0.0
C973 C 0.42413 0.87565 0.63282 0.0
C974 C 0.4397 0.87627 0.64393 0.0
C975 C 0.39316 0.86322 0.62512 0.0
C976 C 0.39785 0.85653 0.60762 0.0
C977 C 0.37456 0.86771 0.62888 0.0
C978 C 0.3687 0.87511 0.64693 0.0
C979 C 0.37659 0.89128 0.654 0.0
C980 C 0.37103 0.89808 0.67111 0.0
C981 C 0.3575 0.8889 0.6812 0.0
C982 C 0.34945 0.87294 0.67417 0.0
C983 C 0.35497 0.86607 0.65708 0.0
H984 H 0.35322 0.89418 0.69444 0.0
H985 H 0.40581 0.83708 0.52523 0.0
H986 H 0.13088 0.42794 0.67781 0.0
H987 H 0.13115 0.40032 0.65823 0.0
H988 H 0.15246 0.43265 0.61323 0.0
H989 H 0.15169 0.46001 0.63233 0.0
H990 H 0.12512 0.41278 0.60174 0.0
H991 H 0.17929 0.40203 0.63996 0.0
H992 H 0.19518 0.39694 0.66951 0.0
H993 H 0.16161 0.34947 0.67975 0.0
H994 H 0.14538 0.35442 0.65034 0.0
H995 H 0.17111 0.36468 0.53804 0.0
H996 H 0.17054 0.37711 0.56917 0.0
H997 H 0.12852 0.33814 0.58421 0.0
H998 H 0.12917 0.32543 0.55288 0.0
H999 H 0.16054 0.35579 0.61427 0.0
H1000 H 0.10681 0.36735 0.57406 0.0
H1001 H 0.09425 0.37246 0.54293 0.0
H1002 H 0.12952 0.41932 0.5361 0.0
H1003 H 0.1425 0.41424 0.56707 0.0
C1004 C 0.13568 0.42904 0.66375 0.0
C1005 C 0.14115 0.44613 0.65655 0.0
C1006 C 0.13588 0.41327 0.65261 0.0
C1007 C 0.14182 0.41439 0.63423 0.0
C1008 C 0.14764 0.43143 0.62728 0.0
C1009 C 0.14723 0.44709 0.63825 0.0
C1010 C 0.14161 0.39826 0.62168 0.0
C1011 C 0.13271 0.40027 0.60466 0.0
C1012 C 0.15117 0.38169 0.62549 0.0
C1013 C 0.16099 0.37872 0.64309 0.0
C1014 C 0.17521 0.39059 0.64859 0.0
C1015 C 0.18429 0.38772 0.66529 0.0
C1016 C 0.17937 0.37293 0.67653 0.0
C1017 C 0.16538 0.36094 0.67105 0.0
C1018 C 0.15625 0.36377 0.65437 0.0
C1019 C 0.1624 0.35815 0.54822 0.0
C1020 C 0.15007 0.34423 0.54308 0.0
C1021 C 0.16214 0.36522 0.56602 0.0
C1022 C 0.1494 0.35862 0.57889 0.0
C1023 C 0.13856 0.34327 0.57448 0.0
C1024 C 0.13894 0.33603 0.55659 0.0
C1025 C 0.14445 0.37074 0.59444 0.0
C1026 C 0.1524 0.36804 0.6118 0.0
C1027 C 0.13405 0.38679 0.59104 0.0
C1028 C 0.12567 0.39036 0.5728 0.0
C1029 C 0.11191 0.37869 0.56587 0.0
C1030 C 0.10473 0.38157 0.54827 0.0
C1031 C 0.1111 0.39619 0.53754 0.0
C1032 C 0.1246 0.408 0.54443 0.0
C1033 C 0.13186 0.40514 0.562 0.0
H1034 H 0.10556 0.39838 0.52389 0.0
H1035 H 0.18641 0.37073 0.68945 0.0
H1036 H 0.54451 0.13301 0.62777 0.0
H1037 H 0.57319 0.13288 0.61056 0.0
H1038 H 0.60349 0.14371 0.66036 0.0
H1039 H 0.57454 0.1436 0.67795 0.0
H1040 H 0.61303 0.16685 0.62969 0.0
H1041 H 0.60866 0.10354 0.64401 0.0
H1042 H 0.59323 0.07361 0.64779 0.0
H1043 H 0.58202 0.07171 0.58985 0.0
H1044 H 0.59706 0.1018 0.58574 0.0
H1045 H 0.67462 0.12537 0.54897 0.0
H1046 H 0.66432 0.12516 0.58118 0.0
H1047 H 0.62374 0.16647 0.56834 0.0
H1048 H 0.63373 0.16646 0.53632 0.0
H1049 H 0.62934 0.11426 0.5894 0.0
H1050 H 0.61379 0.19159 0.60559 0.0
H1051 H 0.62904 0.22161 0.60178 0.0
H1052 H 0.68168 0.195 0.59966 0.0
H1053 H 0.6668 0.16483 0.60376 0.0
C1054 C 0.55724 0.13523 0.63516 0.0
C1055 C 0.55726 0.13825 0.65425 0.0
C1056 C 0.57364 0.1351 0.62529 0.0
C1057 C 0.59046 0.13812 0.63421 0.0
C1058 C 0.59063 0.14126 0.65326 0.0
C1059 C 0.57413 0.14115 0.66327 0.0
C1060 C 0.60756 0.13853 0.62313 0.0
C1061 C 0.61686 0.1553 0.62106 0.0
C1062 C 0.61283 0.12327 0.61228 0.0
C1063 C 0.60398 0.10499 0.61458 0.0
C1064 C 0.60282 0.0968 0.63208 0.0
C1065 C 0.59413 0.0798 0.63428 0.0
C1066 C 0.58664 0.07077 0.61908 0.0
C1067 C 0.58785 0.07871 0.60162 0.0
C1068 C 0.59648 0.09574 0.59934 0.0
C1069 C 0.664 0.13489 0.55324 0.0
C1070 C 0.65493 0.14593 0.54022 0.0
C1071 C 0.65806 0.13469 0.57159 0.0
C1072 C 0.6433 0.14584 0.57718 0.0
C1073 C 0.63531 0.15794 0.56444 0.0
C1074 C 0.64099 0.15789 0.54612 0.0
C1075 C 0.63406 0.14292 0.59515 0.0
C1076 C 0.62607 0.12566 0.59844 0.0
C1077 C 0.63009 0.15772 0.60715 0.0
C1078 C 0.63914 0.1759 0.60494 0.0
C1079 C 0.62863 0.19213 0.60446 0.0
C1080 C 0.63721 0.20918 0.60221 0.0
C1081 C 0.65631 0.21021 0.60046 0.0
C1082 C 0.66688 0.19418 0.60098 0.0
C1083 C 0.65837 0.17709 0.60324 0.0
H1084 H 0.66292 0.22342 0.59871 0.0
H1085 H 0.57991 0.05761 0.62082 0.0
H1086 H 0.84873 0.57427 0.68059 0.0
H1087 H 0.84823 0.60328 0.66294 0.0
H1088 H 0.87968 0.57748 0.61983 0.0
H1089 H 0.8795 0.54859 0.63681 0.0
H1090 H 0.88998 0.6177 0.63404 0.0
H1091 H 0.84144 0.57597 0.60867 0.0
H1092 H 0.81342 0.5574 0.61329 0.0
H1093 H 0.78574 0.60436 0.63598 0.0
H1094 H 0.81374 0.62312 0.63169 0.0
H1095 H 0.89003 0.63542 0.54191 0.0
H1096 H 0.88846 0.62573 0.57381 0.0
H1097 H 0.84184 0.66135 0.58261 0.0
H1098 H 0.84342 0.67125 0.55017 0.0
H1099 H 0.83518 0.6263 0.59429 0.0
H1100 H 0.88081 0.67007 0.60636 0.0
H1101 H 0.90879 0.68857 0.60159 0.0
H1102 H 0.94202 0.63996 0.60558 0.0
H1103 H 0.91425 0.62109 0.61009 0.0
C1104 C 0.85575 0.57497 0.66747 0.0
C1105 C 0.86412 0.55922 0.66002 0.0
C1106 C 0.85544 0.59147 0.65744 0.0
C1107 C 0.86399 0.59245 0.64015 0.0
C1108 C 0.87311 0.57698 0.6332 0.0
C1109 C 0.87294 0.56046 0.6429 0.0
C1110 C 0.86239 0.60888 0.62827 0.0
C1111 C 0.87797 0.61986 0.62547 0.0
C1112 C 0.84646 0.61203 0.61762 0.0
C1113 C 0.82968 0.60084 0.62009 0.0
C1114 C 0.82942 0.58226 0.61479 0.0
C1115 C 0.81355 0.57173 0.61732 0.0
C1116 C 0.79783 0.57968 0.62498 0.0
C1117 C 0.79794 0.59821 0.63009 0.0
C1118 C 0.8138 0.6088 0.62762 0.0
C1119 C 0.87961 0.64147 0.55068 0.0
C1120 C 0.86677 0.654 0.54354 0.0
C1121 C 0.87883 0.63603 0.569 0.0
C1122 C 0.86516 0.64294 0.58072 0.0
C1123 C 0.8526 0.65596 0.57384 0.0
C1124 C 0.85354 0.66164 0.55538 0.0
C1125 C 0.86318 0.63469 0.59933 0.0
C1126 C 0.84696 0.62501 0.60335 0.0
C1127 C 0.87851 0.63292 0.61123 0.0
C1128 C 0.89538 0.64414 0.60857 0.0
C1129 C 0.89407 0.66329 0.60612 0.0
C1130 C 0.90991 0.67385 0.60347 0.0
C1131 C 0.92717 0.66544 0.60328 0.0
C1132 C 0.92864 0.64645 0.60576 0.0
C1133 C 0.91284 0.63582 0.60841 0.0
H1134 H 0.93941 0.67365 0.60122 0.0
H1135 H 0.78555 0.57151 0.62692 0.0
H1136 H 0.35638 0.45233 0.16646 0.0
H1137 H 0.37621 0.42534 0.16698 0.0
H1138 H 0.34634 0.40227 0.12122 0.0
H1139 H 0.32582 0.42933 0.12111 0.0
H1140 H 0.36184 0.37504 0.14872 0.0
H1141 H 0.38019 0.42445 0.10895 0.0
H1142 H 0.38491 0.45711 0.10118 0.0
H1143 H 0.42394 0.46222 0.14519 0.0
H1144 H 0.41923 0.42964 0.1534 0.0
H1145 H 0.4499 0.33055 0.12279 0.0
H1146 H 0.41875 0.34369 0.12422 0.0
H1147 H 0.4366 0.38101 0.16671 0.0
H1148 H 0.46755 0.36824 0.16508 0.0
H1149 H 0.42456 0.39831 0.13525 0.0
H1150 H 0.40492 0.34876 0.17558 0.0
H1151 H 0.39943 0.31626 0.18349 0.0
H1152 H 0.36307 0.31085 0.13728 0.0
H1153 H 0.36855 0.34328 0.12894 0.0
C1154 C 0.35367 0.44125 0.15688 0.0
C1155 C 0.33976 0.44288 0.14365 0.0
C1156 C 0.36495 0.42582 0.15723 0.0
C1157 C 0.36289 0.41196 0.14398 0.0
C1158 C 0.34808 0.41282 0.13159 0.0
C1159 C 0.33645 0.42824 0.13149 0.0
C1160 C 0.37812 0.39868 0.14146 0.0
C1161 C 0.37552 0.37997 0.14544 0.0
C1162 C 0.39593 0.40517 0.13713 0.0
C1163 C 0.39929 0.42462 0.13184 0.0
C1164 C 0.38972 0.43256 0.11702 0.0
C1165 C 0.39239 0.45106 0.11254 0.0
C1166 C 0.40469 0.46174 0.12271 0.0
C1167 C 0.41441 0.45392 0.13732 0.0
C1168 C 0.41178 0.43543 0.14188 0.0
C1169 C 0.44691 0.34104 0.13292 0.0
C1170 C 0.46108 0.34852 0.14373 0.0
C1171 C 0.42915 0.34857 0.13368 0.0
C1172 C 0.42545 0.36347 0.14542 0.0
C1173 C 0.43921 0.36963 0.15746 0.0
C1174 C 0.45686 0.36229 0.15657 0.0
C1175 C 0.40856 0.37471 0.14334 0.0
C1176 C 0.41088 0.39317 0.13828 0.0
C1177 C 0.39062 0.36784 0.14645 0.0
C1178 C 0.38732 0.34838 0.15151 0.0
C1179 C 0.3959 0.3406 0.16699 0.0
C1180 C 0.39275 0.3222 0.17158 0.0
C1181 C 0.38095 0.31148 0.16086 0.0
C1182 C 0.37223 0.31916 0.14556 0.0
C1183 C 0.37534 0.33755 0.1409 0.0
H1184 H 0.37853 0.29724 0.16444 0.0
H1185 H 0.4067 0.47608 0.11925 0.0
H1186 H 0.45604 0.6422 0.89185 0.0
H1187 H 0.42454 0.63147 0.88769 0.0
H1188 H 0.4238 0.65448 0.83302 0.0
H1189 H 0.45555 0.66557 0.83731 0.0
H1190 H 0.38789 0.6463 0.87428 0.0
H1191 H 0.41733 0.62386 0.81098 0.0
H1192 H 0.44684 0.61689 0.7956 0.0
H1193 H 0.46549 0.58836 0.84385 0.0
H1194 H 0.43612 0.59527 0.85946 0.0
H1195 H 0.32075 0.57363 0.85572 0.0
H1196 H 0.33996 0.60129 0.85238 0.0
H1197 H 0.38773 0.56974 0.86804 0.0
H1198 H 0.36891 0.54229 0.87067 0.0
H1199 H 0.39529 0.58855 0.83877 0.0
H1200 H 0.36435 0.60164 0.89738 0.0
H1201 H 0.33701 0.60767 0.91655 0.0
H1202 H 0.32268 0.65351 0.88217 0.0
H1203 H 0.34986 0.64761 0.8627 0.0
C1204 C 0.44891 0.64556 0.8792 0.0
C1205 C 0.45812 0.6546 0.86486 0.0
C1206 C 0.43089 0.63953 0.87688 0.0
C1207 C 0.42187 0.64217 0.86006 0.0
C1208 C 0.43053 0.65244 0.84615 0.0
C1209 C 0.4486 0.65875 0.84859 0.0
C1210 C 0.40545 0.6308 0.85621 0.0
C1211 C 0.38916 0.63393 0.86606 0.0
C1212 C 0.40729 0.61455 0.84579 0.0
C1213 C 0.42464 0.61002 0.83628 0.0
C1214 C 0.42774 0.61604 0.81822 0.0
C1215 C 0.44443 0.61214 0.8095 0.0
C1216 C 0.45803 0.60217 0.81874 0.0
C1217 C 0.45496 0.59606 0.83671 0.0
C1218 C 0.43831 0.59996 0.84548 0.0
C1219 C 0.33533 0.57274 0.85861 0.0
C1220 C 0.34338 0.55581 0.86336 0.0
C1221 C 0.34628 0.58852 0.85669 0.0
C1222 C 0.36534 0.5876 0.85984 0.0
C1223 C 0.37313 0.57079 0.86525 0.0
C1224 C 0.36233 0.55508 0.86686 0.0
C1225 C 0.37765 0.60371 0.85721 0.0
C1226 C 0.39336 0.60133 0.84623 0.0
C1227 C 0.37521 0.62054 0.86673 0.0
C1228 C 0.35897 0.62406 0.87848 0.0
C1229 C 0.35529 0.61292 0.89385 0.0
C1230 C 0.33984 0.61633 0.90478 0.0
C1231 C 0.32808 0.63092 0.90054 0.0
C1232 C 0.33178 0.64218 0.88541 0.0
C1233 C 0.3472 0.63882 0.87444 0.0
H1234 H 0.31613 0.63354 0.90901 0.0
H1235 H 0.47094 0.59919 0.81198 0.0
H1236 H 0.45816 0.37121 0.85714 0.0
H1237 H 0.42991 0.3889 0.85976 0.0
H1238 H 0.39827 0.3388 0.86143 0.0
H1239 H 0.42682 0.32075 0.85896 0.0
H1240 H 0.38435 0.36735 0.8368 0.0
H1241 H 0.40154 0.35922 0.89949 0.0
H1242 H 0.42358 0.35832 0.92525 0.0
H1243 H 0.43462 0.41587 0.9182 0.0
H1244 H 0.41294 0.41706 0.89217 0.0
H1245 H 0.32897 0.44993 0.8823 0.0
H1246 H 0.34034 0.41808 0.88276 0.0
H1247 H 0.37367 0.42941 0.83501 0.0
H1248 H 0.36279 0.46121 0.83489 0.0
H1249 H 0.37828 0.41231 0.88779 0.0
H1250 H 0.37859 0.3897 0.81072 0.0
H1251 H 0.35779 0.39098 0.78399 0.0
H1252 H 0.31119 0.39468 0.82004 0.0
H1253 H 0.33167 0.39314 0.847 0.0
C1254 C 0.44525 0.36387 0.85812 0.0
C1255 C 0.44473 0.34456 0.85796 0.0
C1256 C 0.4291 0.37403 0.85963 0.0
C1257 C 0.41205 0.36515 0.86096 0.0
C1258 C 0.41135 0.34587 0.86049 0.0
C1259 C 0.42762 0.33561 0.85914 0.0
C1260 C 0.3952 0.37641 0.8628 0.0
C1261 C 0.38277 0.377 0.84807 0.0
C1262 C 0.393 0.38868 0.87773 0.0
C1263 C 0.40559 0.38821 0.89383 0.0
C1264 C 0.4087 0.37168 0.90339 0.0
C1265 C 0.42115 0.37111 0.91804 0.0
C1266 C 0.43049 0.38703 0.92336 0.0
C1267 C 0.42735 0.40356 0.91408 0.0
C1268 C 0.41496 0.40419 0.89939 0.0
C1269 C 0.33815 0.44534 0.8715 0.0
C1270 C 0.34496 0.45786 0.85847 0.0
C1271 C 0.34471 0.42722 0.87184 0.0
C1272 C 0.35778 0.42138 0.85887 0.0
C1273 C 0.36341 0.43355 0.84499 0.0
C1274 C 0.3572 0.45169 0.8449 0.0
C1275 C 0.36793 0.40389 0.86133 0.0
C1276 C 0.37932 0.40223 0.87683 0.0
C1277 C 0.36913 0.39068 0.84711 0.0
C1278 C 0.35671 0.39137 0.83091 0.0
C1279 C 0.3639 0.39065 0.81297 0.0
C1280 C 0.35216 0.39146 0.79776 0.0
C1281 C 0.33318 0.39294 0.80031 0.0
C1282 C 0.3259 0.39358 0.81808 0.0
C1283 C 0.33757 0.39278 0.83333 0.0
H1284 H 0.32412 0.39357 0.78852 0.0
H1285 H 0.44016 0.38655 0.93467 0.0
H1286 H 0.63192 0.45495 0.87205 0.0
H1287 H 0.61479 0.42625 0.87256 0.0
H1288 H 0.66445 0.39606 0.86081 0.0
H1289 H 0.68196 0.42508 0.8606 0.0
H1290 H 0.63395 0.38779 0.8372 0.0
H1291 H 0.64749 0.38891 0.90074 0.0
H1292 H 0.65128 0.40275 0.93146 0.0
H1293 H 0.59363 0.4153 0.93326 0.0
H1294 H 0.58953 0.40184 0.90243 0.0
H1295 H 0.55069 0.32647 0.87325 0.0
H1296 H 0.58314 0.33587 0.87498 0.0
H1297 H 0.57231 0.3799 0.83672 0.0
H1298 H 0.54005 0.37083 0.83528 0.0
H1299 H 0.5924 0.37024 0.8884 0.0
H1300 H 0.61009 0.38929 0.81225 0.0
H1301 H 0.60613 0.37587 0.78139 0.0
H1302 H 0.60201 0.32193 0.80501 0.0
H1303 H 0.60623 0.33496 0.83601 0.0
C1304 C 0.63931 0.44224 0.86982 0.0
C1305 C 0.65829 0.44226 0.86628 0.0
C1306 C 0.6295 0.42581 0.87019 0.0
C1307 C 0.63838 0.40903 0.86686 0.0
C1308 C 0.65739 0.40889 0.86352 0.0
C1309 C 0.66735 0.42542 0.86346 0.0
C1310 C 0.62715 0.39207 0.86568 0.0
C1311 C 0.62507 0.38365 0.84845 0.0
C1312 C 0.61593 0.38642 0.88053 0.0
C1313 C 0.61822 0.39435 0.89922 0.0
C1314 C 0.63563 0.3947 0.90764 0.0
C1315 C 0.63783 0.40248 0.92508 0.0
C1316 C 0.62271 0.4099 0.9343 0.0
C1317 C 0.60534 0.40953 0.92611 0.0
C1318 C 0.60306 0.40178 0.90866 0.0
C1319 C 0.55544 0.33775 0.86476 0.0
C1320 C 0.54293 0.34797 0.85415 0.0
C1321 C 0.57392 0.34315 0.86582 0.0
C1322 C 0.58015 0.35852 0.85591 0.0
C1323 C 0.56789 0.36785 0.84429 0.0
C1324 C 0.54944 0.36271 0.84351 0.0
C1325 C 0.59842 0.36681 0.8596 0.0
C1326 C 0.60172 0.37376 0.8773 0.0
C1327 C 0.61077 0.37107 0.84519 0.0
C1328 C 0.60845 0.36313 0.82651 0.0
C1329 C 0.60849 0.37454 0.81088 0.0
C1330 C 0.60615 0.36701 0.79335 0.0
C1331 C 0.6038 0.34806 0.79124 0.0
C1332 C 0.60379 0.33661 0.80666 0.0
C1333 C 0.60613 0.34407 0.82423 0.0
H1334 H 0.60198 0.34226 0.77765 0.0
H1335 H 0.62444 0.41593 0.9478 0.0
H1336 H 0.6265 0.53385 0.83979 0.0
H1337 H 0.61675 0.56571 0.83754 0.0
H1338 H 0.66443 0.58274 0.86849 0.0
H1339 H 0.67432 0.55044 0.87081 0.0
H1340 H 0.63288 0.59593 0.88337 0.0
H1341 H 0.65968 0.59826 0.82473 0.0
H1342 H 0.66856 0.58777 0.79375 0.0
H1343 H 0.6118 0.58631 0.77761 0.0
H1344 H 0.60253 0.59651 0.80856 0.0
H1345 H 0.57446 0.67759 0.87407 0.0
H1346 H 0.60302 0.6595 0.87125 0.0
H1347 H 0.57242 0.61532 0.84621 0.0
H1348 H 0.54415 0.63292 0.84925 0.0
H1349 H 0.60615 0.62479 0.82762 0.0
H1350 H 0.58135 0.6125 0.88966 0.0
H1351 H 0.57238 0.62269 0.92076 0.0
H1352 H 0.6268 0.6437 0.92986 0.0
H1353 H 0.63599 0.63384 0.89869 0.0
C1354 C 0.63518 0.5444 0.84573 0.0
C1355 C 0.65113 0.53968 0.85552 0.0
C1356 C 0.62966 0.56267 0.84434 0.0
C1357 C 0.63992 0.57669 0.85273 0.0
C1358 C 0.65637 0.57215 0.86182 0.0
C1359 C 0.66206 0.55374 0.86303 0.0
C1360 C 0.6319 0.59545 0.85372 0.0
C1361 C 0.62759 0.60264 0.87113 0.0
C1362 C 0.62499 0.60425 0.83779 0.0
C1363 C 0.63041 0.59818 0.81903 0.0
C1364 C 0.64907 0.59562 0.81461 0.0
C1365 C 0.65418 0.58973 0.79704 0.0
C1366 C 0.64075 0.58638 0.78372 0.0
C1367 C 0.62219 0.58894 0.78794 0.0
C1368 C 0.617 0.59483 0.80549 0.0
C1369 C 0.57392 0.66403 0.86795 0.0
C1370 C 0.55709 0.65661 0.86196 0.0
C1371 C 0.59019 0.65377 0.86631 0.0
C1372 C 0.5898 0.63615 0.8584 0.0
C1373 C 0.57304 0.62895 0.8522 0.0
C1374 C 0.55686 0.63899 0.85409 0.0
C1375 C 0.60639 0.62442 0.8572 0.0
C1376 C 0.61221 0.61858 0.83976 0.0
C1377 C 0.61477 0.61694 0.87305 0.0
C1378 C 0.60928 0.62267 0.8918 0.0
C1379 C 0.59134 0.61943 0.89825 0.0
C1380 C 0.58623 0.62511 0.91589 0.0
C1381 C 0.59899 0.6339 0.92725 0.0
C1382 C 0.61691 0.63694 0.92102 0.0
C1383 C 0.62208 0.63131 0.90338 0.0
H1384 H 0.59501 0.6383 0.9409 0.0
H1385 H 0.64473 0.58181 0.77013 0.0
H1386 H 0.67777 0.57145 0.12596 0.0
H1387 H 0.65763 0.59862 0.12448 0.0
H1388 H 0.61441 0.56775 0.15098 0.0
H1389 H 0.63402 0.54076 0.15189 0.0
H1390 H 0.60103 0.58491 0.12291 0.0
H1391 H 0.64228 0.60129 0.17339 0.0
H1392 H 0.67266 0.60824 0.18679 0.0
H1393 H 0.67992 0.65233 0.14816 0.0
H1394 H 0.64965 0.64549 0.13441 0.0
H1395 H 0.53884 0.63656 0.16744 0.0
H1396 H 0.56966 0.62346 0.16595 0.0
H1397 H 0.58337 0.66028 0.12156 0.0
H1398 H 0.55234 0.67369 0.12317 0.0
H1399 H 0.61463 0.64514 0.15199 0.0
H1400 H 0.57094 0.6288 0.10308 0.0
H1401 H 0.53935 0.6219 0.09283 0.0
H1402 H 0.53651 0.5769 0.13097 0.0
H1403 H 0.56798 0.58377 0.14167 0.0
C1404 C 0.66397 0.57057 0.13147 0.0
C1405 C 0.65741 0.55398 0.13894 0.0
C1406 C 0.65251 0.58609 0.13069 0.0
C1407 C 0.63448 0.58527 0.13765 0.0
C1408 C 0.62817 0.56874 0.14536 0.0
C1409 C 0.63944 0.55329 0.14591 0.0
C1410 C 0.62165 0.60117 0.1367 0.0
C1411 C 0.60416 0.5981 0.12914 0.0
C1412 C 0.62573 0.61861 0.1444 0.0
C1413 C 0.64383 0.62274 0.15274 0.0
C1414 C 0.65042 0.61238 0.16768 0.0
C1415 C 0.6676 0.61631 0.17535 0.0
C1416 C 0.67824 0.63068 0.16829 0.0
C1417 C 0.67168 0.64118 0.15359 0.0
C1418 C 0.65452 0.63729 0.14586 0.0
C1419 C 0.5487 0.64248 0.15797 0.0
C1420 C 0.54326 0.65604 0.14537 0.0
C1421 C 0.56631 0.63501 0.15715 0.0
C1422 C 0.57869 0.64082 0.14355 0.0
C1423 C 0.57402 0.65576 0.13224 0.0
C1424 C 0.55633 0.66341 0.13318 0.0
C1425 C 0.5941 0.62845 0.13876 0.0
C1426 C 0.61188 0.63214 0.14523 0.0
C1427 C 0.59037 0.61145 0.13014 0.0
C1428 C 0.57174 0.60687 0.12323 0.0
C1429 C 0.56353 0.6175 0.10933 0.0
C1430 C 0.54566 0.61359 0.10344 0.0
C1431 C 0.53592 0.59899 0.11126 0.0
C1432 C 0.54407 0.58821 0.12493 0.0
C1433 C 0.56193 0.59209 0.13089 0.0
H1434 H 0.52207 0.59601 0.10671 0.0
H1435 H 0.69154 0.6337 0.17424 0.0
H1436 H 0.37937 0.53579 0.12271 0.0
H1437 H 0.38914 0.56745 0.12586 0.0
H1438 H 0.33696 0.58166 0.15004 0.0
H1439 H 0.32683 0.54939 0.1471 0.0
H1440 H 0.36436 0.60551 0.11498 0.0
H1441 H 0.35402 0.58898 0.18023 0.0
H1442 H 0.35411 0.56597 0.2052 0.0
H1443 H 0.41102 0.55434 0.19465 0.0
H1444 H 0.41117 0.57711 0.16947 0.0
H1445 H 0.42715 0.68106 0.13684 0.0
H1446 H 0.39911 0.66206 0.13785 0.0
H1447 H 0.43241 0.61369 0.14633 0.0
H1448 H 0.46003 0.63233 0.14554 0.0
H1449 H 0.40406 0.61422 0.16975 0.0
H1450 H 0.41466 0.62465 0.10407 0.0
H1451 H 0.41748 0.64428 0.07652 0.0
H1452 H 0.36297 0.66512 0.08546 0.0
H1453 H 0.35993 0.64575 0.11319 0.0
C1454 C 0.36979 0.54552 0.12866 0.0
C1455 C 0.35236 0.53991 0.13493 0.0
C1456 C 0.37541 0.56371 0.13028 0.0
C1457 C 0.3638 0.57683 0.13818 0.0
C1458 C 0.34608 0.57165 0.14386 0.0
C1459 C 0.34035 0.55325 0.14222 0.0
C1460 C 0.37156 0.59526 0.14181 0.0
C1461 C 0.37246 0.60793 0.12727 0.0
C1462 C 0.38251 0.59806 0.1576 0.0
C1463 C 0.38256 0.58466 0.17295 0.0
C1464 C 0.36651 0.58143 0.18319 0.0
C1465 C 0.36652 0.56845 0.19738 0.0
C1466 C 0.38255 0.55869 0.2015 0.0
C1467 C 0.39862 0.56192 0.19146 0.0
C1468 C 0.39866 0.57487 0.17725 0.0
C1469 C 0.4284 0.66637 0.13891 0.0
C1470 C 0.44579 0.6582 0.14112 0.0
C1471 C 0.41241 0.65555 0.13949 0.0
C1472 C 0.41367 0.63646 0.14227 0.0
C1473 C 0.43105 0.6284 0.14438 0.0
C1474 C 0.44689 0.63911 0.14381 0.0
C1475 C 0.39723 0.62435 0.14274 0.0
C1476 C 0.39506 0.61265 0.15795 0.0
C1477 C 0.38532 0.62239 0.12747 0.0
C1478 C 0.38716 0.63397 0.11081 0.0
C1479 C 0.40334 0.63354 0.10023 0.0
C1480 C 0.40497 0.64458 0.08457 0.0
C1481 C 0.39044 0.65599 0.07928 0.0
C1482 C 0.37423 0.65632 0.0896 0.0
C1483 C 0.37254 0.64531 0.10528 0.0
H1484 H 0.39172 0.66453 0.06715 0.0
H1485 H 0.38253 0.54863 0.21247 0.0
H1486 H 0.65046 0.459 0.17471 0.0
H1487 H 0.6376 0.42798 0.17684 0.0
H1488 H 0.65208 0.41831 0.12005 0.0
H1489 H 0.6658 0.44893 0.11838 0.0
H1490 H 0.60887 0.42062 0.15986 0.0
H1491 H 0.649 0.37391 0.10784 0.0
H1492 H 0.68116 0.3664 0.1002 0.0
H1493 H 0.69826 0.38333 0.15411 0.0
H1494 H 0.66619 0.39069 0.16219 0.0
H1495 H 0.54633 0.36544 0.11757 0.0
H1496 H 0.57353 0.38469 0.1211 0.0
H1497 H 0.60089 0.34093 0.15037 0.0
H1498 H 0.57374 0.32117 0.14601 0.0
H1499 H 0.62557 0.36124 0.13078 0.0
H1500 H 0.57832 0.37345 0.17446 0.0
H1501 H 0.54659 0.37954 0.18475 0.0
H1502 H 0.54577 0.42964 0.15351 0.0
H1503 H 0.5774 0.42372 0.14282 0.0
C1504 C 0.65177 0.44981 0.16306 0.0
C1505 C 0.65928 0.45613 0.14647 0.0
C1506 C 0.64426 0.43216 0.16418 0.0
C1507 C 0.64369 0.42074 0.14857 0.0
C1508 C 0.65259 0.42659 0.13242 0.0
C1509 C 0.66045 0.44412 0.13143 0.0
C1510 C 0.63095 0.40469 0.14807 0.0
C1511 C 0.61272 0.40758 0.15373 0.0
C1512 C 0.63583 0.38748 0.14031 0.0
C1513 C 0.65516 0.38298 0.13557 0.0
C1514 C 0.6596 0.37595 0.11811 0.0
C1515 C 0.67782 0.37174 0.11369 0.0
C1516 C 0.69175 0.37443 0.12664 0.0
C1517 C 0.68747 0.38131 0.14406 0.0
C1518 C 0.66927 0.38554 0.14856 0.0
C1519 C 0.55829 0.35977 0.12438 0.0
C1520 C 0.55793 0.34194 0.13171 0.0
C1521 C 0.57382 0.37078 0.12644 0.0
C1522 C 0.58904 0.36445 0.13649 0.0
C1523 C 0.58925 0.34614 0.14269 0.0
C1524 C 0.57377 0.33488 0.1402 0.0
C1525 C 0.60364 0.37765 0.14196 0.0
C1526 C 0.62204 0.37421 0.13721 0.0
C1527 C 0.59912 0.39425 0.15106 0.0
C1528 C 0.58021 0.39809 0.15778 0.0
C1529 C 0.57135 0.38574 0.16974 0.0
C1530 C 0.55338 0.38916 0.17564 0.0
C1531 C 0.54417 0.40496 0.16977 0.0
C1532 C 0.55293 0.41741 0.15805 0.0
C1533 C 0.57089 0.41404 0.15209 0.0
H1534 H 0.53024 0.40757 0.17433 0.0
H1535 H 0.70585 0.37116 0.12319 0.0
H1536 H 0.08022 0.30243 0.48292 0.0
H1537 H 0.04713 0.2965 0.48712 0.0
H1538 H 0.04083 0.34968 0.51253 0.0
H1539 H 0.07348 0.35584 0.50805 0.0
H1540 H 0.02334 0.31942 0.53184 0.0
H1541 H 0.02894 0.34687 0.47103 0.0
H1542 H 0.04076 0.34818 0.43927 0.0
H1543 H 0.01714 0.29527 0.42798 0.0
H1544 H 0.00542 0.29352 0.45981 0.0
H1545 H 0.93367 0.3534 0.52782 0.0
H1546 H 0.96642 0.34691 0.52525 0.0
H1547 H 0.95453 0.2975 0.49472 0.0
H1548 H 0.92149 0.30395 0.49718 0.0
H1549 H 0.9813 0.31837 0.47809 0.0
H1550 H 0.97086 0.29337 0.53725 0.0
H1551 H 0.95871 0.29214 0.56888 0.0
H1552 H 0.99117 0.33921 0.58352 0.0
H1553 H 0.00333 0.3409 0.5519 0.0
C1554 C 0.07174 0.3128 0.48942 0.0
C1555 C 0.07941 0.32966 0.49501 0.0
C1556 C 0.05289 0.30941 0.4918 0.0
C1557 C 0.04157 0.32266 0.50015 0.0
C1558 C 0.04932 0.33926 0.5061 0.0
C1559 C 0.06797 0.3428 0.5034 0.0
C1560 C 0.0215 0.31977 0.5023 0.0
C1561 C 0.01411 0.31915 0.52012 0.0
C1562 C 0.00956 0.31888 0.48698 0.0
C1563 C 0.01655 0.31994 0.46786 0.0
C1564 C 0.02644 0.33542 0.46183 0.0
C1565 C 0.03308 0.33627 0.44381 0.0
C1566 C 0.02977 0.32179 0.43164 0.0
C1567 C 0.01975 0.30645 0.43745 0.0
C1568 C 0.0131 0.30553 0.45548 0.0
C1569 C 0.93795 0.34105 0.52068 0.0
C1570 C 0.92491 0.32921 0.51268 0.0
C1571 C 0.95671 0.33731 0.5193 0.0
C1572 C 0.96295 0.32164 0.50991 0.0
C1573 C 0.95002 0.30964 0.50208 0.0
C1574 C 0.93114 0.3133 0.50358 0.0
C1575 C 0.98303 0.31854 0.50768 0.0
C1576 C 0.99047 0.3181 0.48985 0.0
C1577 C 0.99503 0.31835 0.52302 0.0
C1578 C 0.98793 0.31732 0.54215 0.0
C1579 C 0.97533 0.30354 0.54718 0.0
C1580 C 0.96845 0.30274 0.56511 0.0
C1581 C 0.97414 0.31561 0.57819 0.0
C1582 C 0.98677 0.32926 0.57337 0.0
C1583 C 0.99369 0.33012 0.55545 0.0
H1584 H 0.96878 0.31498 0.59207 0.0
H1585 H 0.03492 0.32247 0.41769 0.0
H1586 H 0.64029 0.06946 0.48583 0.0
H1587 H 0.64551 0.03709 0.49229 0.0
H1588 H 0.70355 0.04724 0.49843 0.0
H1589 H 0.6985 0.08006 0.4921 0.0
H1590 H 0.6929 0.01366 0.47733 0.0
H1591 H 0.68322 0.04275 0.53555 0.0
H1592 H 0.66756 0.0635 0.55731 0.0
H1593 H 0.61777 0.0323 0.5517 0.0
H1594 H 0.63304 0.01154 0.52966 0.0
H1595 H 0.6952 0.92077 0.51203 0.0
H1596 H 0.70144 0.95379 0.50915 0.0
H1597 H 0.6433 0.96504 0.51265 0.0
H1598 H 0.63703 0.93247 0.51603 0.0
H1599 H 0.66098 0.98893 0.53235 0.0
H1600 H 0.66826 0.96369 0.47077 0.0
H1601 H 0.68239 0.94349 0.44747 0.0
H1602 H 0.73524 0.96745 0.45833 0.0
H1603 H 0.72144 0.98765 0.48185 0.0
C1604 C 0.65424 0.06492 0.48837 0.0
C1605 C 0.66897 0.0775 0.48858 0.0
C1606 C 0.65717 0.04636 0.4921 0.0
C1607 C 0.67486 0.03983 0.49604 0.0
C1608 C 0.68978 0.05206 0.49547 0.0
C1609 C 0.68684 0.07079 0.49187 0.0
C1610 C 0.67726 0.02035 0.50154 0.0
C1611 C 0.68631 0.00824 0.48957 0.0
C1612 C 0.66845 0.01334 0.51739 0.0
C1613 C 0.65927 0.02565 0.53086 0.0
C1614 C 0.6689 0.04039 0.53886 0.0
C1615 C 0.66009 0.05214 0.55126 0.0
C1616 C 0.64167 0.04924 0.55587 0.0
C1617 C 0.63203 0.03454 0.54812 0.0
C1618 C 0.64077 0.02276 0.53569 0.0
C1619 C 0.68377 0.9303 0.51232 0.0
C1620 C 0.6656 0.92388 0.51423 0.0
C1621 C 0.68736 0.94918 0.51058 0.0
C1622 C 0.67283 0.96194 0.51049 0.0
C1623 C 0.65478 0.95553 0.51273 0.0
C1624 C 0.6512 0.9368 0.51462 0.0
C1625 C 0.67599 0.98199 0.50776 0.0
C1626 C 0.66797 0.99429 0.52031 0.0
C1627 C 0.6856 0.98911 0.49235 0.0
C1628 C 0.69387 0.977 0.47822 0.0
C1629 C 0.68292 0.96455 0.46828 0.0
C1630 C 0.69086 0.95312 0.45502 0.0
C1631 C 0.70972 0.95414 0.45147 0.0
C1632 C 0.72065 0.96664 0.46113 0.0
C1633 C 0.71278 0.97808 0.47442 0.0
H1634 H 0.71584 0.94529 0.4412 0.0
H1635 H 0.63488 0.05836 0.56547 0.0
H1636 H 0.92625 0.66564 0.45385 0.0
H1637 H 0.95959 0.66981 0.45611 0.0
H1638 H 0.95296 0.69219 0.51073 0.0
H1639 H 0.91962 0.68928 0.50785 0.0
H1640 H 0.98127 0.7072 0.4968 0.0
H1641 H 0.96078 0.64384 0.50125 0.0
H1642 H 0.94473 0.61623 0.48979 0.0
H1643 H 0.97962 0.61536 0.44216 0.0
H1644 H 0.99578 0.64306 0.45329 0.0
H1645 H 0.06411 0.64386 0.52399 0.0
H1646 H 0.03175 0.64962 0.51751 0.0
H1647 H 0.04644 0.69775 0.48606 0.0
H1648 H 0.07893 0.69233 0.49294 0.0
H1649 H 0.01472 0.64868 0.48645 0.0
H1650 H 0.01014 0.72809 0.48591 0.0
H1651 H 0.02471 0.7548 0.50093 0.0
H1652 H 0.03852 0.72138 0.54763 0.0
H1653 H 0.02383 0.69456 0.53299 0.0
C1654 C 0.93196 0.67192 0.46609 0.0
C1655 C 0.92047 0.677 0.48073 0.0
C1656 C 0.951 0.67418 0.46746 0.0
C1657 C 0.95891 0.68072 0.48387 0.0
C1658 C 0.94728 0.68701 0.49796 0.0
C1659 C 0.92821 0.68533 0.49633 0.0
C1660 C 0.97908 0.67925 0.4872 0.0
C1661 C 0.98861 0.69444 0.49442 0.0
C1662 C 0.98869 0.66252 0.48444 0.0
C1663 C 0.97938 0.64556 0.47803 0.0
C1664 C 0.96501 0.63775 0.48833 0.0
C1665 C 0.95589 0.62211 0.48189 0.0
C1666 C 0.96114 0.61407 0.46524 0.0
C1667 C 0.97558 0.6216 0.45505 0.0
C1668 C 0.98474 0.63726 0.46142 0.0
C1669 C 0.06048 0.65581 0.51587 0.0
C1670 C 0.07414 0.66761 0.50896 0.0
C1671 C 0.04194 0.65905 0.51211 0.0
C1672 C 0.03659 0.6741 0.50126 0.0
C1673 C 0.05016 0.68617 0.49465 0.0
C1674 C 0.06875 0.68305 0.49859 0.0
C1675 C 0.01688 0.67654 0.49632 0.0
C1676 C 0.00746 0.66151 0.48869 0.0
C1677 C 0.00729 0.69322 0.49927 0.0
C1678 C 0.01608 0.70928 0.50824 0.0
C1679 C 0.01626 0.72646 0.49939 0.0
C1680 C 0.02454 0.74162 0.50784 0.0
C1681 C 0.0326 0.73977 0.52519 0.0
C1682 C 0.03234 0.72277 0.53416 0.0
C1683 C 0.02407 0.70759 0.52578 0.0
H1684 H 0.03901 0.75151 0.5317 0.0
H1685 H 0.95404 0.60198 0.46026 0.0
H1686 H 0.29774 0.07717 0.50608 0.0
H1687 H 0.29082 0.04492 0.49859 0.0
H1688 H 0.34532 0.02922 0.51564 0.0
H1689 H 0.35228 0.06093 0.5235 0.0
H1690 H 0.33092 0.02058 0.47567 0.0
H1691 H 0.31835 0.01647 0.54241 0.0
H1692 H 0.30073 0.0253 0.57002 0.0
H1693 H 0.25057 0.00877 0.54362 0.0
H1694 H 0.26791 1.00009 0.51575 0.0
H1695 H 0.3549 0.92921 0.48234 0.0
H1696 H 0.34832 0.96171 0.4853 0.0
H1697 H 0.29022 0.95005 0.48817 0.0
H1698 H 0.29681 0.91705 0.48595 0.0
H1699 H 0.2982 0.974 0.51325 0.0
H1700 H 0.31007 0.97174 0.44959 0.0
H1701 H 0.32588 0.96324 0.42083 0.0
H1702 H 0.37403 0.99262 0.43823 0.0
H1703 H 0.35863 0.00107 0.46722 0.0
C1704 C 0.30812 0.06679 0.50859 0.0
C1705 C 0.32563 0.07174 0.51526 0.0
C1706 C 0.30414 0.04841 0.50426 0.0
C1707 C 0.31764 0.03481 0.50646 0.0
C1708 C 0.33477 0.03958 0.5138 0.0
C1709 C 0.33868 0.05777 0.51831 0.0
C1710 C 0.31478 0.01577 0.49996 0.0
C1711 C 0.32374 0.01033 0.4838 0.0
C1712 C 0.30471 0.00271 0.51018 0.0
C1713 C 0.29438 0.0079 0.52693 0.0
C1714 C 0.30355 0.01493 0.54242 0.0
C1715 C 0.29362 0.01985 0.55814 0.0
C1716 C 0.27453 0.01766 0.55855 0.0
C1717 C 0.26535 0.0105 0.54326 0.0
C1718 C 0.27522 0.00557 0.52752 0.0
C1719 C 0.34066 0.93345 0.48333 0.0
C1720 C 0.32639 0.92042 0.48385 0.0
C1721 C 0.33689 0.95216 0.48492 0.0
C1722 C 0.31872 0.95847 0.48661 0.0
C1723 C 0.30435 0.94556 0.48679 0.0
C1724 C 0.30814 0.9267 0.48544 0.0
C1725 C 0.31519 0.97846 0.48931 0.0
C1726 C 0.305 0.98417 0.50473 0.0
C1727 C 0.32385 0.99189 0.47815 0.0
C1728 C 0.33318 0.987 0.46064 0.0
C1729 C 0.32407 0.97632 0.44734 0.0
C1730 C 0.33296 0.97151 0.43098 0.0
C1731 C 0.35095 0.97738 0.42771 0.0
C1732 C 0.36008 0.9881 0.44078 0.0
C1733 C 0.35126 0.99293 0.45716 0.0
H1734 H 0.35781 0.97363 0.41505 0.0
H1735 H 0.26687 0.02147 0.57072 0.0
H1736 H 0.52091 0.93578 0.35882 0.0
H1737 H 0.51454 0.96806 0.35297 0.0
H1738 H 0.50004 0.9555 0.2969 0.0
H1739 H 0.50624 0.92278 0.30262 0.0
H1740 H 0.52312 0.98949 0.30343 0.0
H1741 H 0.46623 0.96129 0.3214 0.0
H1742 H 0.44673 0.94126 0.34058 0.0
H1743 H 0.45923 0.97401 0.38808 0.0
H1744 H 0.47906 0.99407 0.36923 0.0
H1745 H 0.488 0.08231 0.30159 0.0
H1746 H 0.49051 0.04906 0.29641 0.0
H1747 H 0.49406 0.04025 0.35499 0.0
H1748 H 0.49107 0.07303 0.36028 0.0
H1749 H 0.47247 0.01571 0.34087 0.0
H1750 H 0.53258 0.04042 0.32521 0.0
H1751 H 0.55397 0.06001 0.30762 0.0
H1752 H 0.53699 0.034 0.25739 0.0
H1753 H 0.51533 0.0144 0.27469 0.0
C1754 C 0.51654 0.93976 0.34514 0.0
C1755 C 0.51391 0.92655 0.33124 0.0
C1756 C 0.51291 0.95828 0.34185 0.0
C1757 C 0.50664 0.96411 0.32459 0.0
C1758 C 0.50484 0.95122 0.31034 0.0
C1759 C 0.50836 0.93254 0.31366 0.0
C1760 C 0.501 0.98354 0.32214 0.0
C1761 C 0.51179 0.99523 0.31125 0.0
C1762 C 0.48638 0.99098 0.33257 0.0
C1763 C 0.47421 0.97913 0.34391 0.0
C1764 C 0.46492 0.96415 0.33595 0.0
C1765 C 0.45379 0.9528 0.34677 0.0
C1766 C 0.45176 0.95635 0.36554 0.0
C1767 C 0.46081 0.97128 0.37353 0.0
C1768 C 0.47198 0.98267 0.36278 0.0
C1769 C 0.48919 0.07325 0.31336 0.0
C1770 C 0.4893 0.08041 0.33135 0.0
C1771 C 0.49072 0.05425 0.31037 0.0
C1772 C 0.49264 0.04211 0.32531 0.0
C1773 C 0.4925 0.04926 0.34323 0.0
C1774 C 0.49081 0.06811 0.34622 0.0
C1775 C 0.49502 0.02195 0.32268 0.0
C1776 C 0.48356 0.01004 0.33266 0.0
C1777 C 0.50915 0.01439 0.31156 0.0
C1778 C 0.52219 0.02612 0.3012 0.0
C1779 C 0.53331 0.03898 0.3104 0.0
C1780 C 0.5455 0.05006 0.30049 0.0
C1781 C 0.54679 0.04829 0.28139 0.0
C1782 C 0.53594 0.03539 0.27218 0.0
C1783 C 0.52372 0.02429 0.28202 0.0
H1784 H 0.55623 0.05689 0.27374 0.0
H1785 H 0.44315 0.94753 0.37389 0.0
H1786 H 0.91914 0.496 0.30211 0.0
H1787 H 0.95141 0.50111 0.29417 0.0
H1788 H 0.96801 0.47646 0.34551 0.0
H1789 H 0.93592 0.47108 0.35347 0.0
H1790 H 0.97538 0.52258 0.31176 0.0
H1791 H 0.00927 0.45643 0.34138 0.0
H1792 H 0.00219 0.4234 0.34434 0.0
H1793 H 0.96604 0.42667 0.29776 0.0
H1794 H 0.97309 0.45965 0.29436 0.0
H1795 H 0.06543 0.53334 0.34598 0.0
H1796 H 0.03307 0.52756 0.33931 0.0
H1797 H 0.04843 0.4937 0.29311 0.0
H1798 H 0.08094 0.49941 0.29969 0.0
H1799 H 0.02503 0.47602 0.31617 0.0
H1800 H 0.02668 0.53331 0.28515 0.0
H1801 H 0.03371 0.56616 0.28066 0.0
H1802 H 0.99884 0.58015 0.32621 0.0
H1803 H 0.99181 0.54736 0.33115 0.0
C1804 C 0.92965 0.49136 0.31159 0.0
C1805 C 0.92488 0.48317 0.32848 0.0
C1806 C 0.9481 0.49437 0.30704 0.0
C1807 C 0.96213 0.48911 0.31919 0.0
C1808 C 0.95744 0.48041 0.33578 0.0
C1809 C 0.93903 0.47741 0.34035 0.0
C1810 C 0.98161 0.49383 0.31528 0.0
C1811 C 0.98623 0.51238 0.31255 0.0
C1812 C 0.99574 0.48048 0.31592 0.0
C1813 C 0.99164 0.46056 0.31769 0.0
C1814 C 0.9999 0.45008 0.3317 0.0
C1815 C 0.99587 0.43137 0.33347 0.0
C1816 C 0.98364 0.42295 0.32127 0.0
C1817 C 0.97546 0.43322 0.30724 0.0
C1818 C 0.97945 0.45193 0.3054 0.0
C1819 C 0.06195 0.52495 0.33417 0.0
C1820 C 0.07579 0.51676 0.32344 0.0
C1821 C 0.04343 0.52171 0.33034 0.0
C1822 C 0.03834 0.51021 0.31571 0.0
C1823 C 0.05207 0.50263 0.30447 0.0
C1824 C 0.07064 0.506 0.3082 0.0
C1825 C 0.0188 0.50484 0.31336 0.0
C1826 C 0.01416 0.48618 0.31501 0.0
C1827 C 0.00466 0.51806 0.3115 0.0
C1828 C 0.0088 0.53783 0.30858 0.0
C1829 C 0.02061 0.54337 0.2943 0.0
C1830 C 0.02458 0.56199 0.29166 0.0
C1831 C 0.01674 0.57523 0.30316 0.0
C1832 C 0.0049 0.56988 0.31731 0.0
C1833 C 0.00089 0.55127 0.32002 0.0
H1834 H 0.01983 0.58964 0.30109 0.0
H1835 H 0.98053 0.40847 0.32268 0.0
H1836 H 0.50223 0.93099 0.64699 0.0
H1837 H 0.509 0.96294 0.65465 0.0
H1838 H 0.48764 0.95466 0.70932 0.0
H1839 H 0.48127 0.9222 0.70192 0.0
H1840 H 0.47458 0.98849 0.68305 0.0
H1841 H 0.52515 0.95938 0.71382 0.0
H1842 H 0.55107 0.93778 0.71689 0.0
H1843 H 0.57857 0.96389 0.67163 0.0
H1844 H 0.55257 0.98533 0.66794 0.0
H1845 H 0.50285 0.08081 0.69781 0.0
H1846 H 0.49885 0.0483 0.70557 0.0
H1847 H 0.5328 0.03305 0.6594 0.0
H1848 H 0.53694 0.06541 0.65159 0.0
H1849 H 0.53883 0.01067 0.68919 0.0
H1850 H 0.48756 0.03456 0.65426 0.0
H1851 H 0.46225 0.05641 0.64861 0.0
H1852 H 0.43652 0.04012 0.6992 0.0
H1853 H 0.46187 0.01835 0.7053 0.0
C1854 C 0.49892 0.93591 0.66066 0.0
C1855 C 0.49114 0.9241 0.67384 0.0
C1856 C 0.50288 0.95415 0.66502 0.0
C1857 C 0.49887 0.96106 0.68254 0.0
C1858 C 0.49087 0.94947 0.69574 0.0
C1859 C 0.48728 0.931 0.69151 0.0
C1860 C 0.50289 0.98058 0.68652 0.0
C1861 C 0.48855 0.99337 0.68499 0.0
C1862 C 0.52118 0.98685 0.68846 0.0
C1863 C 0.53678 0.97384 0.69048 0.0
C1864 C 0.53659 0.96035 0.70434 0.0
C1865 C 0.55133 0.94816 0.70622 0.0
C1866 C 0.56644 0.94943 0.69443 0.0
C1867 C 0.56685 0.96291 0.68074 0.0
C1868 C 0.5521 0.97506 0.67873 0.0
C1869 C 0.5098 0.07056 0.68954 0.0
C1870 C 0.52003 0.0757 0.67393 0.0
C1871 C 0.50744 0.05199 0.69397 0.0
C1872 C 0.51533 0.03827 0.68291 0.0
C1873 C 0.52656 0.04341 0.6681 0.0
C1874 C 0.52883 0.06193 0.6636 0.0
C1875 C 0.51056 0.0186 0.68552 0.0
C1876 C 0.52478 0.00581 0.68798 0.0
C1877 C 0.49218 0.01231 0.68418 0.0
C1878 C 0.47672 0.02503 0.68036 0.0
C1879 C 0.47656 0.03573 0.66424 0.0
C1880 C 0.46221 0.04808 0.66095 0.0
C1881 C 0.44784 0.04971 0.67358 0.0
C1882 C 0.44771 0.03888 0.68946 0.0
C1883 C 0.46206 0.02653 0.69285 0.0
H1884 H 0.43682 0.05936 0.67105 0.0
H1885 H 0.57784 0.93998 0.69591 0.0
H1886 H 0.93267 0.54056 0.66222 0.0
H1887 H 0.96539 0.53478 0.66744 0.0
H1888 H 0.95209 0.48321 0.69368 0.0
H1889 H 0.9193 0.48962 0.68958 0.0
H1890 H 0.98162 0.49568 0.70872 0.0
H1891 H 0.9624 0.48695 0.64596 0.0
H1892 H 0.9483 0.49609 0.61648 0.0
H1893 H 0.98745 0.53993 0.61097 0.0
H1894 H 0.00164 0.53118 0.64054 0.0
H1895 H 0.06823 0.46493 0.65076 0.0
H1896 H 0.03532 0.46897 0.6557 0.0
H1897 H 0.04648 0.50517 0.70136 0.0
H1898 H 0.07949 0.50078 0.6968 0.0
H1899 H 0.01777 0.4992 0.65098 0.0
H1900 H 0.00898 0.50682 0.73012 0.0
H1901 H 0.02205 0.49387 0.75864 0.0
H1902 H 0.03776 0.44495 0.72957 0.0
H1903 H 0.02456 0.45748 0.70097 0.0
C1904 C 0.93676 0.52823 0.66951 0.0
C1905 C 0.92354 0.51545 0.67536 0.0
C1906 C 0.95545 0.52485 0.67239 0.0
C1907 C 0.96128 0.50825 0.6804 0.0
C1908 C 0.948 0.49606 0.68736 0.0
C1909 C 0.92925 0.49972 0.68499 0.0
C1910 C 0.98102 0.50283 0.67996 0.0
C1911 C 0.98955 0.4965 0.69612 0.0
C1912 C 0.99133 0.50339 0.66342 0.0
C1913 C 0.98297 0.50851 0.64552 0.0
C1914 C 0.96795 0.49858 0.63849 0.0
C1915 C 0.95994 0.50369 0.62177 0.0
C1916 C 0.96695 0.5186 0.61188 0.0
C1917 C 0.98202 0.5284 0.61866 0.0
C1918 C 0.99006 0.52336 0.63538 0.0
C1919 C 0.0637 0.47345 0.66211 0.0
C1920 C 0.07649 0.48265 0.6733 0.0
C1921 C 0.04486 0.47579 0.66489 0.0
C1922 C 0.03836 0.48746 0.67883 0.0
C1923 C 0.0511 0.49593 0.69064 0.0
C1924 C 0.07 0.49342 0.68799 0.0
C1925 C 0.01847 0.4921 0.67975 0.0
C1926 C 0.0099 0.49837 0.66363 0.0
C1927 C 0.00808 0.4909 0.69618 0.0
C1928 C 0.01596 0.4832 0.71335 0.0
C1929 C 0.01518 0.49328 0.72983 0.0
C1930 C 0.02262 0.48601 0.74601 0.0
C1931 C 0.03079 0.46863 0.7459 0.0
C1932 C 0.0315 0.45845 0.72962 0.0
C1933 C 0.02407 0.46564 0.71342 0.0
H1934 H 0.03654 0.46303 0.75844 0.0
H1935 H 0.96072 0.52255 0.59895 0.0
H1936 H 0.35696 0.50782 0.93374 0.0
H1937 H 0.34958 0.50133 0.96572 0.0
H1938 H 0.29176 0.50601 0.95373 0.0
H1939 H 0.29897 0.51223 0.92125 0.0
H1940 H 0.30879 0.52518 0.98914 0.0
H1941 H 0.30012 0.46741 0.95818 0.0
H1942 H 0.30862 0.44308 0.93615 0.0
H1943 H 0.35899 0.43372 0.9655 0.0
H1944 H 0.35093 0.45823 0.98753 0.0
H1945 H 0.2998 0.49172 0.08125 0.0
H1946 H 0.29293 0.49536 0.04846 0.0
H1947 H 0.34702 0.47513 0.03489 0.0
H1948 H 0.35376 0.47094 0.06733 0.0
H1949 H 0.32361 0.46232 0.01118 0.0
H1950 H 0.33602 0.52237 0.03782 0.0
H1951 H 0.3304 0.5481 0.05919 0.0
H1952 H 0.27569 0.55425 0.03787 0.0
H1953 H 0.28093 0.52839 0.01651 0.0
C1954 C 0.34264 0.5077 0.93781 0.0
C1955 C 0.32855 0.51049 0.92483 0.0
C1956 C 0.33847 0.50394 0.95613 0.0
C1957 C 0.32015 0.50309 0.962 0.0
C1958 C 0.30599 0.5066 0.94938 0.0
C1959 C 0.31014 0.51012 0.93086 0.0
C1960 C 0.31624 0.49769 0.98123 0.0
C1961 C 0.3115 0.51133 0.99398 0.0
C1962 C 0.32018 0.47971 0.98747 0.0
C1963 C 0.32496 0.46475 0.97443 0.0
C1964 C 0.31307 0.46027 0.95985 0.0
C1965 C 0.3178 0.44643 0.94738 0.0
C1966 C 0.33435 0.43688 0.94941 0.0
C1967 C 0.34617 0.44113 0.96395 0.0
C1968 C 0.34152 0.45498 0.97644 0.0
C1969 C 0.31013 0.48778 0.07127 0.0
C1970 C 0.32741 0.4812 0.077 0.0
C1971 C 0.30621 0.48997 0.05251 0.0
C1972 C 0.31957 0.48582 0.03917 0.0
C1973 C 0.33647 0.47846 0.04487 0.0
C1974 C 0.34033 0.47613 0.06352 0.0
C1975 C 0.31665 0.48994 0.01933 0.0
C1976 C 0.32026 0.47605 0.00641 0.0
C1977 C 0.31189 0.50777 0.01298 0.0
C1978 C 0.30878 0.52332 0.02576 0.0
C1979 C 0.32275 0.52913 0.03779 0.0
C1980 C 0.31964 0.54375 0.04988 0.0
C1981 C 0.30268 0.55276 0.04993 0.0
C1982 C 0.28881 0.54722 0.03785 0.0
C1983 C 0.29183 0.53259 0.02575 0.0
H1984 H 0.3003 0.56408 0.0593 0.0
H1985 H 0.33799 0.42618 0.93973 0.0
H1986 H 0.47076 0.35564 0.92642 0.0
H1987 H 0.47527 0.35102 0.9593 0.0
H1988 H 0.50433 0.3005 0.94854 0.0
H1989 H 0.49982 0.30496 0.91538 0.0
H1990 H 0.48093 0.29951 0.98081 0.0
H1991 H 0.52945 0.33616 0.95472 0.0
H1992 H 0.54198 0.36148 0.93595 0.0
H1993 H 0.5139 0.40086 0.9698 0.0
H1994 H 0.50099 0.37575 0.98862 0.0
H1995 H 0.51839 0.30435 0.07313 0.0
H1996 H 0.51446 0.2998 0.03984 0.0
H1997 H 0.49385 0.35524 0.03484 0.0
H1998 H 0.49851 0.36004 0.06754 0.0
H1999 H 0.51699 0.34991 0.00929 0.0
H2000 H 0.466 0.31408 0.03352 0.0
H2001 H 0.45205 0.28926 0.05197 0.0
H2002 H 0.48328 0.24907 0.02206 0.0
H2003 H 0.49758 0.27368 0.00357 0.0
C2004 C 0.47791 0.34339 0.93098 0.0
C2005 C 0.48521 0.33082 0.91822 0.0
C2006 C 0.48044 0.34076 0.94981 0.0
C2007 C 0.49041 0.32559 0.95632 0.0
C2008 C 0.49665 0.31233 0.94376 0.0
C2009 C 0.49408 0.31493 0.92483 0.0
C2010 C 0.49567 0.32471 0.97601 0.0
C2011 C 0.48903 0.31035 0.98706 0.0
C2012 C 0.50616 0.33892 0.98412 0.0
C2013 C 0.51418 0.35406 0.97301 0.0
C2014 C 0.52587 0.35021 0.9581 0.0
C2015 C 0.53305 0.36453 0.94746 0.0
C2016 C 0.52872 0.38276 0.95167 0.0
C2017 C 0.51725 0.38673 0.96656 0.0
C2018 C 0.51002 0.37246 0.97723 0.0
C2019 C 0.51302 0.3155 0.06485 0.0
C2020 C 0.50895 0.3326 0.07291 0.0
C2021 C 0.51067 0.31287 0.04586 0.0
C2022 C 0.50377 0.32716 0.03475 0.0
C2023 C 0.49937 0.34405 0.04298 0.0
C2024 C 0.50205 0.34678 0.06174 0.0
C2025 C 0.50154 0.32514 0.01448 0.0
C2026 C 0.50897 0.33892 0.00317 0.0
C2027 C 0.49164 0.31049 0.00626 0.0
C2028 C 0.48301 0.29572 0.01732 0.0
C2029 C 0.46999 0.29995 0.03097 0.0
C2030 C 0.462 0.28592 0.04142 0.0
C2031 C 0.46682 0.2676 0.03823 0.0
C2032 C 0.47959 0.26327 0.02454 0.0
C2033 C 0.48763 0.27725 0.01407 0.0
H2034 H 0.46062 0.25676 0.04633 0.0
H2035 H 0.53428 0.39382 0.9434 0.0
H2036 H 0.69947 0.49715 0.9206 0.0
H2037 H 0.70526 0.50305 0.95341 0.0
H2038 H 0.64997 0.48604 0.96624 0.0
H2039 H 0.6441 0.47996 0.93395 0.0
H2040 H 0.65989 0.52127 0.98004 0.0
H2041 H 0.684 0.45855 0.97617 0.0
H2042 H 0.70546 0.43515 0.96428 0.0
H2043 H 0.75129 0.46682 0.98383 0.0
H2044 H 0.73008 0.49054 0.99562 0.0
H2045 H 0.64261 0.50444 0.07137 0.0
H2046 H 0.64813 0.50245 0.03855 0.0
H2047 H 0.70589 0.51265 0.04727 0.0
H2048 H 0.70052 0.51412 0.08064 0.0
H2049 H 0.70131 0.48656 0.02169 0.0
H2050 H 0.678 0.54673 0.0299 0.0
H2051 H 0.65744 0.57094 0.04173 0.0
H2052 H 0.6118 0.54646 0.01341 0.0
H2053 H 0.63202 0.52194 0.00163 0.0
C2054 C 0.68864 0.49444 0.93045 0.0
C2055 C 0.67126 0.48823 0.92454 0.0
C2056 C 0.69198 0.49783 0.94917 0.0
C2057 C 0.67797 0.49512 0.9622 0.0
C2058 C 0.6609 0.48837 0.95639 0.0
C2059 C 0.65761 0.48487 0.93785 0.0
C2060 C 0.68039 0.50003 0.98185 0.0
C2061 C 0.66894 0.5137 0.98917 0.0
C2062 C 0.6928 0.49072 0.99357 0.0
C2063 C 0.70548 0.47642 0.98656 0.0
C2064 C 0.69866 0.46061 0.97777 0.0
C2065 C 0.71078 0.44727 0.97109 0.0
C2066 C 0.72973 0.44953 0.97324 0.0
C2067 C 0.73661 0.4651 0.98214 0.0
C2068 C 0.72455 0.47849 0.98883 0.0
C2069 C 0.65652 0.50639 0.06642 0.0
C2070 C 0.67109 0.50968 0.0787 0.0
C2071 C 0.65964 0.5053 0.04756 0.0
C2072 C 0.67735 0.50785 0.04034 0.0
C2073 C 0.69208 0.51079 0.05251 0.0
C2074 C 0.68898 0.51168 0.07156 0.0
C2075 C 0.68009 0.50721 0.02005 0.0
C2076 C 0.69255 0.49447 0.01257 0.0
C2077 C 0.66877 0.51758 0.00806 0.0
C2078 C 0.65655 0.53245 0.01493 0.0
C2079 C 0.66356 0.54645 0.02626 0.0
C2080 C 0.65196 0.56024 0.03296 0.0
C2081 C 0.63332 0.56023 0.02833 0.0
C2082 C 0.62625 0.54646 0.01697 0.0
C2083 C 0.63778 0.53263 0.01025 0.0
H2084 H 0.62436 0.57091 0.03354 0.0
H2085 H 0.73909 0.43918 0.96806 0.0
H2086 H 0.51389 0.70004 0.92259 0.0
H2087 H 0.50783 0.7067 0.95524 0.0
H2088 H 0.5033 0.64866 0.96628 0.0
H2089 H 0.50969 0.64186 0.93417 0.0
H2090 H 0.47271 0.67247 0.97935 0.0
H2091 H 0.53982 0.66637 0.9788 0.0
H2092 H 0.5708 0.6755 0.96847 0.0
H2093 H 0.56151 0.73036 0.98822 0.0
H2094 H 0.53034 0.72158 0.99842 0.0
H2095 H 0.4799 0.64474 0.07003 0.0
H2096 H 0.4828 0.651 0.03738 0.0
H2097 H 0.4978 0.70716 0.04909 0.0
H2098 H 0.4953 0.70089 0.08216 0.0
H2099 H 0.52036 0.69276 0.02376 0.0
H2100 H 0.45601 0.69756 0.03026 0.0
H2101 H 0.42502 0.68901 0.04098 0.0
H2102 H 0.42773 0.63892 0.00989 0.0
H2103 H 0.45888 0.64699 0.99921 0.0
C2104 C 0.51178 0.68872 0.93203 0.0
C2105 C 0.51234 0.67042 0.92574 0.0
C2106 C 0.50829 0.69255 0.95063 0.0
C2107 C 0.50499 0.67815 0.96308 0.0
C2108 C 0.5057 0.65996 0.95685 0.0
C2109 C 0.5095 0.65611 0.93847 0.0
C2110 C 0.50062 0.68166 0.98266 0.0
C2111 C 0.48307 0.67696 0.9891 0.0
C2112 C 0.51396 0.68818 0.99519 0.0
C2113 C 0.53268 0.6934 0.98913 0.0
C2114 C 0.54431 0.68042 0.98076 0.0
C2115 C 0.56192 0.68552 0.97497 0.0
C2116 C 0.56809 0.70352 0.97763 0.0
C2117 C 0.55669 0.71644 0.98613 0.0
C2118 C 0.53906 0.71141 0.99192 0.0
C2119 C 0.48367 0.65851 0.06578 0.0
C2120 C 0.48735 0.67231 0.07883 0.0
C2121 C 0.48522 0.66209 0.04701 0.0
C2122 C 0.49027 0.67962 0.04072 0.0
C2123 C 0.4938 0.69355 0.05363 0.0
C2124 C 0.49228 0.68995 0.07252 0.0
C2125 C 0.49259 0.68283 0.02064 0.0
C2126 C 0.50975 0.68879 0.01405 0.0
C2127 C 0.47878 0.67768 0.00791 0.0
C2128 C 0.45986 0.67287 0.01399 0.0
C2129 C 0.45005 0.68467 0.02577 0.0
C2130 C 0.43245 0.67991 0.03185 0.0
C2131 C 0.42443 0.66342 0.02615 0.0
C2132 C 0.43397 0.65169 0.0143 0.0
C2133 C 0.45159 0.65637 0.0082 0.0
H2134 H 0.41081 0.65974 0.0309 0.0
H2135 H 0.58173 0.70744 0.97315 0.0
H2136 H 0.19579 0.2951 0.49167 0.0
H2137 H 0.21752 0.26964 0.49247 0.0
H2138 H 0.17288 0.23153 0.50098 0.0
H2139 H 0.15093 0.25719 0.50055 0.0
H2140 H 0.20165 0.22283 0.52236 0.0
H2141 H 0.19308 0.23567 0.45874 0.0
H2142 H 0.19121 0.25477 0.43078 0.0
H2143 H 0.24782 0.27022 0.43716 0.0
H2144 H 0.24997 0.25142 0.46532 0.0
H2145 H 0.25975 0.14584 0.50167 0.0
H2146 H 0.23484 0.16841 0.49891 0.0
H2147 H 0.27465 0.21232 0.4979 0.0
H2148 H 0.29957 0.1899 0.50089 0.0
H2149 H 0.24633 0.21588 0.47122 0.0
H2150 H 0.25362 0.20435 0.53625 0.0
H2151 H 0.25511 0.18483 0.56394 0.0
H2152 H 0.20005 0.16602 0.554 0.0
H2153 H 0.19833 0.18525 0.52607 0.0
C2154 C 0.19054 0.28132 0.49378 0.0
C2155 C 0.1716 0.27816 0.49593 0.0
C2156 C 0.20301 0.26674 0.49413 0.0
C2157 C 0.19683 0.2486 0.4964 0.0
C2158 C 0.17796 0.2454 0.49909 0.0
C2159 C 0.16543 0.26006 0.49883 0.0
C2160 C 0.2102 0.23312 0.49591 0.0
C2161 C 0.21118 0.22111 0.51101 0.0
C2162 C 0.22283 0.23097 0.48122 0.0
C2163 C 0.22164 0.24224 0.46423 0.0
C2164 C 0.2051 0.24325 0.45426 0.0
C2165 C 0.20399 0.25401 0.43836 0.0
C2166 C 0.21937 0.26373 0.43222 0.0
C2167 C 0.23591 0.26269 0.44194 0.0
C2168 C 0.23709 0.25197 0.45786 0.0
C2169 C 0.2632 0.16029 0.50068 0.0
C2170 C 0.28161 0.16611 0.50155 0.0
C2171 C 0.24895 0.17316 0.49919 0.0
C2172 C 0.25291 0.19204 0.49834 0.0
C2173 C 0.27131 0.19782 0.49855 0.0
C2174 C 0.28552 0.185 0.5003 0.0
C2175 C 0.2379 0.20586 0.49775 0.0
C2176 C 0.23664 0.21752 0.48245 0.0
C2177 C 0.22494 0.20759 0.51217 0.0
C2178 C 0.22593 0.19606 0.52895 0.0
C2179 C 0.2419 0.19592 0.53987 0.0
C2180 C 0.24277 0.18493 0.55563 0.0
C2181 C 0.22771 0.17414 0.56069 0.0
C2182 C 0.21172 0.17435 0.55003 0.0
C2183 C 0.21079 0.1853 0.53425 0.0
H2184 H 0.2284 0.16565 0.5729 0.0
H2185 H 0.21849 0.27206 0.41991 0.0
H2186 H 0.74284 0.14749 0.49694 0.0
H2187 H 0.76864 0.16914 0.49987 0.0
H2188 H 0.73081 0.21466 0.49648 0.0
H2189 H 0.70515 0.19328 0.49347 0.0
H2190 H 0.77987 0.19726 0.47521 0.0
H2191 H 0.74529 0.24798 0.52589 0.0
H2192 H 0.72298 0.24731 0.55143 0.0
H2193 H 0.73733 0.19122 0.56294 0.0
H2194 H 0.75991 0.19163 0.53766 0.0
H2195 H 0.80814 0.29693 0.50358 0.0
H2196 H 0.78654 0.27136 0.50196 0.0
H2197 H 0.83178 0.23321 0.49781 0.0
H2198 H 0.85356 0.25893 0.49901 0.0
H2199 H 0.78134 0.24408 0.52478 0.0
H2200 H 0.81742 0.19466 0.47418 0.0
H2201 H 0.83848 0.19583 0.44759 0.0
H2202 H 0.81961 0.25026 0.43464 0.0
H2203 H 0.79829 0.24931 0.461 0.0
C2204 C 0.74005 0.16211 0.49693 0.0
C2205 C 0.72196 0.16867 0.49501 0.0
C2206 C 0.75479 0.17445 0.49852 0.0
C2207 C 0.75162 0.1935 0.49852 0.0
C2208 C 0.73356 0.20002 0.49671 0.0
C2209 C 0.71891 0.18776 0.49494 0.0
C2210 C 0.76706 0.20678 0.50013 0.0
C2211 C 0.78044 0.20728 0.48624 0.0
C2212 C 0.76753 0.2201 0.5143 0.0
C2213 C 0.75419 0.2198 0.52977 0.0
C2214 C 0.74376 0.23553 0.53393 0.0
C2215 C 0.73105 0.23519 0.54836 0.0
C2216 C 0.7287 0.21921 0.55877 0.0
C2217 C 0.73911 0.20356 0.55482 0.0
C2218 C 0.75185 0.20384 0.54043 0.0
C2219 C 0.81353 0.28312 0.50215 0.0
C2220 C 0.83258 0.27996 0.5014 0.0
C2221 C 0.80114 0.26848 0.50131 0.0
C2222 C 0.80747 0.25032 0.49974 0.0
C2223 C 0.82652 0.24711 0.49878 0.0
C2224 C 0.83896 0.26181 0.4995 0.0
C2225 C 0.79401 0.23488 0.49961 0.0
C2226 C 0.78096 0.23395 0.51384 0.0
C2227 C 0.79377 0.22129 0.48565 0.0
C2228 C 0.80645 0.22198 0.4697 0.0
C2229 C 0.81775 0.20685 0.46563 0.0
C2230 C 0.82973 0.20748 0.4506 0.0
C2231 C 0.83044 0.22314 0.43948 0.0
C2232 C 0.81911 0.23817 0.44332 0.0
C2233 C 0.8071 0.23761 0.45832 0.0
H2234 H 0.83972 0.2236 0.42786 0.0
H2235 H 0.71883 0.21897 0.56992 0.0
H2236 H 0.84783 0.74239 0.49431 0.0
H2237 H 0.82534 0.76734 0.49536 0.0
H2238 H 0.78325 0.72867 0.51143 0.0
H2239 H 0.80551 0.70358 0.50933 0.0
H2240 H 0.77019 0.74907 0.48641 0.0
H2241 H 0.80453 0.76252 0.54172 0.0
H2242 H 0.83247 0.76919 0.55976 0.0
H2243 H 0.84261 0.81717 0.52686 0.0
H2244 H 0.81485 0.81066 0.50849 0.0
H2245 H 0.70086 0.8083 0.51711 0.0
H2246 H 0.72604 0.78642 0.51499 0.0
H2247 H 0.76146 0.82889 0.49353 0.0
H2248 H 0.7362 0.85121 0.49611 0.0
H2249 H 0.77904 0.80834 0.51893 0.0
H2250 H 0.74311 0.79557 0.46511 0.0
H2251 H 0.71468 0.78889 0.44787 0.0
H2252 H 0.70714 0.73925 0.47894 0.0
H2253 H 0.7354 0.74574 0.49653 0.0
C2254 C 0.83383 0.73928 0.49832 0.0
C2255 C 0.8284 0.72107 0.50178 0.0
C2256 C 0.82097 0.75358 0.49898 0.0
C2257 C 0.80255 0.75002 0.50368 0.0
C2258 C 0.79732 0.73184 0.50769 0.0
C2259 C 0.81006 0.7175 0.50659 0.0
C2260 C 0.78848 0.76492 0.50352 0.0
C2261 C 0.77208 0.76191 0.49376 0.0
C2262 C 0.7911 0.78203 0.51249 0.0
C2263 C 0.80772 0.78601 0.52362 0.0
C2264 C 0.81279 0.77443 0.53826 0.0
C2265 C 0.82858 0.77819 0.54856 0.0
C2266 C 0.83934 0.79356 0.54443 0.0
C2267 C 0.83429 0.80525 0.53003 0.0
C2268 C 0.81851 0.80155 0.51969 0.0
C2269 C 0.71396 0.81304 0.51184 0.0
C2270 C 0.71649 0.83149 0.50664 0.0
C2271 C 0.72835 0.80046 0.51058 0.0
C2272 C 0.74557 0.80589 0.50378 0.0
C2273 C 0.74825 0.82436 0.49873 0.0
C2274 C 0.73382 0.83708 0.50014 0.0
C2275 C 0.76067 0.7922 0.50226 0.0
C2276 C 0.77725 0.79549 0.51157 0.0
C2277 C 0.7582 0.77527 0.49297 0.0
C2278 C 0.74133 0.77121 0.48221 0.0
C2279 C 0.73534 0.78327 0.46833 0.0
C2280 C 0.71926 0.77952 0.45849 0.0
C2281 C 0.7091 0.76367 0.46233 0.0
C2282 C 0.71503 0.75152 0.47598 0.0
C2283 C 0.73109 0.75522 0.48587 0.0
H2284 H 0.69664 0.7608 0.45471 0.0
H2285 H 0.85156 0.79645 0.55241 0.0
H2286 H 0.19041 0.7021 0.50968 0.0
H2287 H 0.21125 0.72832 0.50917 0.0
H2288 H 0.1661 0.76425 0.49547 0.0
H2289 H 0.14504 0.73786 0.49574 0.0
H2290 H 0.19702 0.77261 0.47576 0.0
H2291 H 0.18179 0.76337 0.53879 0.0
H2292 H 0.17731 0.74578 0.56743 0.0
H2293 H 0.23464 0.73172 0.56813 0.0
H2294 H 0.23942 0.749 0.53933 0.0
H2295 H 0.25425 0.85085 0.49567 0.0
H2296 H 0.22837 0.82925 0.49786 0.0
H2297 H 0.26631 0.78474 0.50759 0.0
H2298 H 0.29211 0.80609 0.50527 0.0
H2299 H 0.23574 0.78389 0.53083 0.0
H2300 H 0.24982 0.79041 0.46608 0.0
H2301 H 0.25423 0.80783 0.43732 0.0
H2302 H 0.19861 0.82738 0.44027 0.0
H2303 H 0.19395 0.81026 0.46922 0.0
C2304 C 0.18488 0.71554 0.50643 0.0
C2305 C 0.16603 0.71792 0.50287 0.0
C2306 C 0.19681 0.73055 0.50624 0.0
C2307 C 0.19017 0.7483 0.50264 0.0
C2308 C 0.17148 0.75068 0.4984 0.0
C2309 C 0.15948 0.7356 0.49857 0.0
C2310 C 0.20285 0.76428 0.50359 0.0
C2311 C 0.20521 0.77532 0.48793 0.0
C2312 C 0.2137 0.7677 0.51941 0.0
C2313 C 0.21093 0.75738 0.53681 0.0
C2314 C 0.19342 0.75642 0.54497 0.0
C2315 C 0.19083 0.74652 0.56125 0.0
C2316 C 0.20567 0.73761 0.56958 0.0
C2317 C 0.22315 0.73862 0.56166 0.0
C2318 C 0.22581 0.74848 0.54537 0.0
C2319 C 0.25702 0.83649 0.49848 0.0
C2320 C 0.27519 0.83014 0.50023 0.0
C2321 C 0.24225 0.82418 0.49964 0.0
C2322 C 0.24546 0.80539 0.50276 0.0
C2323 C 0.26355 0.79918 0.50518 0.0
C2324 C 0.27827 0.8114 0.50379 0.0
C2325 C 0.23015 0.79192 0.5029 0.0
C2326 C 0.22731 0.78136 0.51878 0.0
C2327 C 0.21884 0.789 0.48733 0.0
C2328 C 0.22161 0.79926 0.46993 0.0
C2329 C 0.23859 0.79857 0.46069 0.0
C2330 C 0.24112 0.80835 0.44434 0.0
C2331 C 0.22673 0.81876 0.437 0.0
C2332 C 0.20976 0.81935 0.44599 0.0
C2333 C 0.20716 0.80961 0.46237 0.0
H2334 H 0.22872 0.82631 0.42433 0.0
H2335 H 0.20364 0.72995 0.58218 0.0
H2336 H 0.49805 0.19532 0.29303 0.0
H2337 H 0.49894 0.21614 0.2668 0.0
H2338 H 0.49736 0.16988 0.22971 0.0
H2339 H 0.49695 0.14879 0.25612 0.0
H2340 H 0.52051 0.19572 0.21716 0.0
H2341 H 0.45849 0.19516 0.23813 0.0
H2342 H 0.4333 0.19694 0.26074 0.0
H2343 H 0.44841 0.25252 0.27366 0.0
H2344 H 0.47387 0.25099 0.25131 0.0
H2345 H 0.50011 0.2588 0.1431 0.0
H2346 H 0.49698 0.23313 0.16488 0.0
H2347 H 0.50309 0.27085 0.21023 0.0
H2348 H 0.50624 0.29638 0.18871 0.0
H2349 H 0.47479 0.24634 0.21558 0.0
H2350 H 0.53871 0.24519 0.19659 0.0
H2351 H 0.56381 0.2431 0.17388 0.0
H2352 H 0.54416 0.19018 0.15659 0.0
H2353 H 0.51878 0.19208 0.17905 0.0
C2354 C 0.498 0.18952 0.2793 0.0
C2355 C 0.49727 0.1704 0.27664 0.0
C2356 C 0.49841 0.20147 0.2643 0.0
C2357 C 0.49776 0.19462 0.24626 0.0
C2358 C 0.49773 0.17549 0.24351 0.0
C2359 C 0.49749 0.16346 0.25859 0.0
C2360 C 0.49684 0.20759 0.23045 0.0
C2361 C 0.51029 0.20657 0.21662 0.0
C2362 C 0.48359 0.22186 0.22976 0.0
C2363 C 0.46817 0.22291 0.24311 0.0
C2364 C 0.45651 0.20772 0.24587 0.0
C2365 C 0.44218 0.20869 0.25863 0.0
C2366 C 0.43927 0.22482 0.26865 0.0
C2367 C 0.45068 0.24003 0.26589 0.0
C2368 C 0.46505 0.23913 0.25316 0.0
C2369 C 0.50066 0.26159 0.15772 0.0
C2370 C 0.50347 0.2796 0.16419 0.0
C2371 C 0.49896 0.24693 0.17013 0.0
C2372 C 0.49992 0.25008 0.18918 0.0
C2373 C 0.50229 0.2681 0.1956 0.0
C2374 C 0.50415 0.28268 0.18326 0.0
C2375 C 0.49872 0.23474 0.20262 0.0
C2376 C 0.48483 0.23531 0.21598 0.0
C2377 C 0.51147 0.22003 0.20279 0.0
C2378 C 0.52673 0.21888 0.18933 0.0
C2379 C 0.53965 0.23318 0.18783 0.0
C2380 C 0.55394 0.23202 0.17503 0.0
C2381 C 0.55554 0.21655 0.16376 0.0
C2382 C 0.54288 0.20218 0.1653 0.0
C2383 C 0.52855 0.20329 0.17807 0.0
H2384 H 0.56662 0.21567 0.15386 0.0
H2385 H 0.42817 0.22554 0.27854 0.0
H2386 H 0.80837 0.50252 0.30026 0.0
H2387 H 0.78707 0.50391 0.27436 0.0
H2388 H 0.83274 0.50328 0.23651 0.0
H2389 H 0.85421 0.50243 0.26248 0.0
H2390 H 0.80647 0.52557 0.22405 0.0
H2391 H 0.80864 0.46381 0.24607 0.0
H2392 H 0.80743 0.43905 0.26921 0.0
H2393 H 0.7515 0.45311 0.28181 0.0
H2394 H 0.75245 0.47814 0.25892 0.0
H2395 H 0.7452 0.50175 0.14956 0.0
H2396 H 0.7707 0.50015 0.17172 0.0
H2397 H 0.73207 0.50465 0.2165 0.0
H2398 H 0.70675 0.50616 0.19466 0.0
H2399 H 0.75745 0.47814 0.22291 0.0
H2400 H 0.75676 0.54159 0.20214 0.0
H2401 H 0.75844 0.56606 0.17871 0.0
H2402 H 0.81229 0.54769 0.16294 0.0
H2403 H 0.81082 0.52295 0.18613 0.0
C2404 C 0.81391 0.50292 0.28644 0.0
C2405 C 0.83297 0.50221 0.28341 0.0
C2406 C 0.8017 0.5036 0.27162 0.0
C2407 C 0.80827 0.50322 0.25345 0.0
C2408 C 0.82734 0.50345 0.25039 0.0
C2409 C 0.83959 0.50298 0.26525 0.0
C2410 C 0.79518 0.50186 0.23778 0.0
C2411 C 0.79594 0.51501 0.22365 0.0
C2412 C 0.78137 0.48813 0.23722 0.0
C2413 C 0.78067 0.47295 0.25087 0.0
C2414 C 0.79612 0.4617 0.25385 0.0
C2415 C 0.79547 0.44761 0.26692 0.0
C2416 C 0.77941 0.44454 0.277 0.0
C2417 C 0.76394 0.45552 0.27399 0.0
C2418 C 0.76451 0.46965 0.26096 0.0
C2419 C 0.74218 0.50228 0.16413 0.0
C2420 C 0.72397 0.50413 0.17035 0.0
C2421 C 0.75675 0.50146 0.17677 0.0
C2422 C 0.75329 0.50242 0.19577 0.0
C2423 C 0.73508 0.50387 0.20192 0.0
C2424 C 0.72061 0.50479 0.18938 0.0
C2425 C 0.76844 0.50212 0.20949 0.0
C2426 C 0.7681 0.48858 0.22322 0.0
C2427 C 0.78268 0.51539 0.20958 0.0
C2428 C 0.78359 0.5303 0.19571 0.0
C2429 C 0.7689 0.54268 0.19357 0.0
C2430 C 0.76982 0.55662 0.18035 0.0
C2431 C 0.78544 0.5584 0.1693 0.0
C2432 C 0.80019 0.54628 0.17148 0.0
C2433 C 0.79932 0.5323 0.18467 0.0
H2434 H 0.78613 0.56919 0.15908 0.0
H2435 H 0.77895 0.43363 0.28712 0.0
H2436 H 0.50132 0.70596 0.19464 0.0
H2437 H 0.50244 0.73145 0.21636 0.0
H2438 H 0.49646 0.77002 0.17166 0.0
H2439 H 0.49598 0.74441 0.14966 0.0
H2440 H 0.51988 0.78315 0.19624 0.0
H2441 H 0.45942 0.75799 0.19929 0.0
H2442 H 0.43604 0.73361 0.20219 0.0
H2443 H 0.45595 0.72047 0.25621 0.0
H2444 H 0.47963 0.74461 0.25354 0.0
H2445 H 0.49861 0.85484 0.26109 0.0
H2446 H 0.49557 0.83299 0.23553 0.0
H2447 H 0.50584 0.788 0.27281 0.0
H2448 H 0.50878 0.80961 0.29828 0.0
H2449 H 0.47752 0.78055 0.24968 0.0
H2450 H 0.53958 0.80447 0.24494 0.0
H2451 H 0.56269 0.82907 0.24164 0.0
H2452 H 0.5386 0.84523 0.19019 0.0
H2453 H 0.5152 0.82086 0.19332 0.0
C2454 C 0.50039 0.71987 0.18939 0.0
C2455 C 0.4984 0.72318 0.17045 0.0
C2456 C 0.50091 0.73445 0.20185 0.0
C2457 C 0.49903 0.75267 0.19573 0.0
C2458 C 0.49778 0.75608 0.17674 0.0
C2459 C 0.49752 0.74145 0.16418 0.0
C2460 C 0.49804 0.76797 0.20929 0.0
C2461 C 0.51038 0.78274 0.20774 0.0
C2462 C 0.48574 0.76744 0.22441 0.0
C2463 C 0.47138 0.75304 0.22616 0.0
C2464 C 0.45888 0.74983 0.21175 0.0
C2465 C 0.44557 0.73606 0.21335 0.0
C2466 C 0.44453 0.72548 0.22936 0.0
C2467 C 0.45678 0.72868 0.24382 0.0
C2468 C 0.47013 0.74242 0.24228 0.0
C2469 C 0.50009 0.84028 0.26383 0.0
C2470 C 0.50399 0.83396 0.2817 0.0
C2471 C 0.49844 0.82782 0.24921 0.0
C2472 C 0.50065 0.80886 0.25223 0.0
C2473 C 0.50409 0.80255 0.27014 0.0
C2474 C 0.50581 0.81495 0.28469 0.0
C2475 C 0.49964 0.79543 0.23685 0.0
C2476 C 0.48686 0.78105 0.23805 0.0
C2477 C 0.51142 0.79641 0.22137 0.0
C2478 C 0.52552 0.811 0.21947 0.0
C2479 C 0.53913 0.81337 0.233 0.0
C2480 C 0.55229 0.82725 0.23115 0.0
C2481 C 0.55208 0.83874 0.21575 0.0
C2482 C 0.53873 0.83634 0.20214 0.0
C2483 C 0.52552 0.8225 0.20393 0.0
H2484 H 0.56229 0.84948 0.21434 0.0
H2485 H 0.43422 0.71482 0.23057 0.0
H2486 H 0.193 0.49868 0.29691 0.0
H2487 H 0.21537 0.49862 0.27188 0.0
H2488 H 0.17149 0.50483 0.23243 0.0
H2489 H 0.14894 0.50424 0.25746 0.0
H2490 H 0.19673 0.48248 0.21916 0.0
H2491 H 0.19788 0.5421 0.24691 0.0
H2492 H 0.20004 0.56428 0.27247 0.0
H2493 H 0.25441 0.545 0.28502 0.0
H2494 H 0.25248 0.52253 0.25969 0.0
H2495 H 0.26061 0.50645 0.14826 0.0
H2496 H 0.23508 0.5091 0.17018 0.0
H2497 H 0.27279 0.50055 0.21517 0.0
H2498 H 0.29823 0.49824 0.19352 0.0
H2499 H 0.24858 0.52657 0.22365 0.0
H2500 H 0.24607 0.46531 0.19737 0.0
H2501 H 0.24366 0.44303 0.17191 0.0
H2502 H 0.19154 0.46598 0.15635 0.0
H2503 H 0.19375 0.48855 0.18159 0.0
C2504 C 0.18809 0.49982 0.28289 0.0
C2505 C 0.16922 0.5016 0.27916 0.0
C2506 C 0.20091 0.49992 0.26859 0.0
C2507 C 0.19518 0.50223 0.25028 0.0
C2508 C 0.17627 0.50318 0.24644 0.0
C2509 C 0.16339 0.50282 0.26076 0.0
C2510 C 0.20898 0.5041 0.23527 0.0
C2511 C 0.20789 0.49233 0.22 0.0
C2512 C 0.22367 0.51685 0.23639 0.0
C2513 C 0.22498 0.53054 0.25147 0.0
C2514 C 0.21026 0.54253 0.25518 0.0
C2515 C 0.21145 0.55516 0.26962 0.0
C2516 C 0.22734 0.55603 0.28038 0.0
C2517 C 0.2421 0.54431 0.27668 0.0
C2518 C 0.24098 0.53164 0.26227 0.0
C2519 C 0.26346 0.50539 0.16284 0.0
C2520 C 0.28143 0.50205 0.16914 0.0
C2521 C 0.24885 0.50678 0.17534 0.0
C2522 C 0.25197 0.50474 0.19432 0.0
C2523 C 0.27001 0.50214 0.20061 0.0
C2524 C 0.28456 0.50078 0.18818 0.0
C2525 C 0.23655 0.50469 0.20776 0.0
C2526 C 0.23731 0.51685 0.22273 0.0
C2527 C 0.22154 0.49236 0.20632 0.0
C2528 C 0.22017 0.47873 0.19123 0.0
C2529 C 0.23416 0.46568 0.18844 0.0
C2530 C 0.23282 0.45299 0.17406 0.0
C2531 C 0.21748 0.45313 0.16248 0.0
C2532 C 0.20342 0.46591 0.1653 0.0
C2533 C 0.20471 0.47865 0.17964 0.0
H2534 H 0.21647 0.44329 0.15136 0.0
H2535 H 0.22822 0.5658 0.29157 0.0
H2536 H 0.4894 0.73796 0.85174 0.0
H2537 H 0.48647 0.76342 0.82962 0.0
H2538 H 0.51717 0.73226 0.78961 0.0
H2539 H 0.51981 0.70679 0.81132 0.0
H2540 H 0.52894 0.76969 0.79369 0.0
H2541 H 0.47423 0.73309 0.7841 0.0
H2542 H 0.4456 0.7177 0.79375 0.0
H2543 H 0.4233 0.76951 0.81119 0.0
H2544 H 0.45195 0.78516 0.80189 0.0
H2545 H 0.48043 0.80814 0.70753 0.0
H2546 H 0.4832 0.78627 0.73284 0.0
H2547 H 0.508 0.8282 0.76664 0.0
H2548 H 0.50528 0.85028 0.74126 0.0
H2549 H 0.46837 0.78692 0.76744 0.0
H2550 H 0.54029 0.80585 0.79428 0.0
H2551 H 0.56922 0.81963 0.78311 0.0
H2552 H 0.55751 0.80065 0.72843 0.0
H2553 H 0.52865 0.78656 0.73933 0.0
C2554 C 0.49549 0.73658 0.83822 0.0
C2555 C 0.50475 0.72037 0.83323 0.0
C2556 C 0.49382 0.7511 0.82563 0.0
C2557 C 0.50166 0.7497 0.80802 0.0
C2558 C 0.51111 0.73363 0.80316 0.0
C2559 C 0.51249 0.71905 0.81555 0.0
C2560 C 0.49976 0.7647 0.79436 0.0
C2561 C 0.51568 0.77362 0.78808 0.0
C2562 C 0.4825 0.76963 0.78691 0.0
C2563 C 0.46531 0.76025 0.79253 0.0
C2564 C 0.4633 0.74116 0.79018 0.0
C2565 C 0.44706 0.7324 0.79554 0.0
C2566 C 0.43267 0.74261 0.80314 0.0
C2567 C 0.43448 0.76161 0.80535 0.0
C2568 C 0.45071 0.77043 0.80003 0.0
C2569 C 0.48652 0.81274 0.72032 0.0
C2570 C 0.49268 0.83095 0.72237 0.0
C2571 C 0.48799 0.80023 0.73481 0.0
C2572 C 0.49581 0.80558 0.75161 0.0
C2573 C 0.50202 0.82375 0.75374 0.0
C2574 C 0.50045 0.83634 0.73924 0.0
C2575 C 0.49756 0.79198 0.76674 0.0
C2576 C 0.4816 0.78329 0.77329 0.0
C2577 C 0.51482 0.78712 0.7743 0.0
C2578 C 0.53222 0.79536 0.7676 0.0
C2579 C 0.54393 0.80459 0.77989 0.0
C2580 C 0.5603 0.81245 0.7736 0.0
C2581 C 0.56516 0.81108 0.75506 0.0
C2582 C 0.55369 0.80177 0.74277 0.0
C2583 C 0.53731 0.79387 0.749 0.0
H2584 H 0.57784 0.81718 0.75022 0.0
H2585 H 0.42009 0.73581 0.80727 0.0
H2586 H 0.25864 0.49717 0.8524 0.0
H2587 H 0.23304 0.49606 0.83043 0.0
H2588 H 0.27029 0.50948 0.78626 0.0
H2589 H 0.29576 0.51072 0.808 0.0
H2590 H 0.23999 0.53044 0.78478 0.0
H2591 H 0.25405 0.46627 0.79145 0.0
H2592 H 0.259 0.43725 0.80827 0.0
H2593 H 0.20361 0.43923 0.82861 0.0
H2594 H 0.19841 0.46843 0.8121 0.0
H2595 H 0.19196 0.50369 0.70444 0.0
H2596 H 0.21345 0.5063 0.73015 0.0
H2597 H 0.16887 0.49864 0.76849 0.0
H2598 H 0.14715 0.49622 0.74274 0.0
H2599 H 0.20017 0.4759 0.77525 0.0
H2600 H 0.18587 0.53935 0.7657 0.0
H2601 H 0.1816 0.56773 0.74765 0.0
H2602 H 0.23839 0.56645 0.73159 0.0
H2603 H 0.24294 0.53789 0.74932 0.0
C2604 C 0.26136 0.49975 0.83798 0.0
C2605 C 0.27922 0.50405 0.83195 0.0
C2606 C 0.24674 0.49909 0.82545 0.0
C2607 C 0.24975 0.50268 0.80669 0.0
C2608 C 0.26761 0.50675 0.80066 0.0
C2609 C 0.28219 0.50737 0.81313 0.0
C2610 C 0.23436 0.50262 0.79326 0.0
C2611 C 0.23138 0.51846 0.78262 0.0
C2612 C 0.22281 0.48716 0.79074 0.0
C2613 C 0.22592 0.46966 0.80073 0.0
C2614 C 0.24298 0.46062 0.79966 0.0
C2615 C 0.24582 0.44412 0.8091 0.0
C2616 C 0.23165 0.43644 0.81955 0.0
C2617 C 0.21459 0.44522 0.82054 0.0
C2618 C 0.21169 0.46174 0.81114 0.0
C2619 C 0.18668 0.50273 0.71834 0.0
C2620 C 0.16786 0.49979 0.72158 0.0
C2621 C 0.19898 0.50424 0.73302 0.0
C2622 C 0.19273 0.5027 0.75121 0.0
C2623 C 0.17394 0.49987 0.75453 0.0
C2624 C 0.16156 0.4986 0.73983 0.0
C2625 C 0.20605 0.50361 0.76663 0.0
C2626 C 0.20864 0.48794 0.77761 0.0
C2627 C 0.21736 0.51917 0.76938 0.0
C2628 C 0.2147 0.53638 0.75872 0.0
C2629 C 0.19741 0.54503 0.75819 0.0
C2630 C 0.19495 0.56117 0.74804 0.0
C2631 C 0.2097 0.56887 0.73845 0.0
C2632 C 0.22696 0.56046 0.73902 0.0
C2633 C 0.2295 0.54431 0.74913 0.0
H2634 H 0.20776 0.58137 0.7306 0.0
H2635 H 0.23387 0.42365 0.82684 0.0
H2636 H 0.50084 0.1935 0.69727 0.0
H2637 H 0.49965 0.21606 0.72211 0.0
H2638 H 0.5018 0.17232 0.76215 0.0
H2639 H 0.5024 0.14962 0.7373 0.0
H2640 H 0.47903 0.19808 0.77353 0.0
H2641 H 0.54059 0.19757 0.7505 0.0
H2642 H 0.56491 0.19913 0.72692 0.0
H2643 H 0.54827 0.25401 0.7129 0.0
H2644 H 0.52368 0.25269 0.73622 0.0
H2645 H 0.50194 0.26032 0.84656 0.0
H2646 H 0.50421 0.23499 0.82436 0.0
H2647 H 0.49828 0.27356 0.77968 0.0
H2648 H 0.49619 0.2988 0.80162 0.0
H2649 H 0.52479 0.24866 0.77251 0.0
H2650 H 0.46198 0.24796 0.79465 0.0
H2651 H 0.43798 0.2461 0.81854 0.0
H2652 H 0.4579 0.19298 0.83488 0.0
H2653 H 0.48218 0.19463 0.81123 0.0
C2654 C 0.50086 0.18867 0.71136 0.0
C2655 C 0.50184 0.16979 0.71532 0.0
C2656 C 0.50031 0.20159 0.72557 0.0
C2657 C 0.50109 0.19593 0.74404 0.0
C2658 C 0.5013 0.17704 0.74803 0.0
C2659 C 0.50164 0.16408 0.73381 0.0
C2660 C 0.50212 0.20975 0.75909 0.0
C2661 C 0.48922 0.20897 0.77344 0.0
C2662 C 0.51532 0.22408 0.75897 0.0
C2663 C 0.5302 0.22497 0.74501 0.0
C2664 C 0.54204 0.20993 0.74231 0.0
C2665 C 0.55589 0.21077 0.72899 0.0
C2666 C 0.55811 0.22664 0.71839 0.0
C2667 C 0.54652 0.24172 0.72111 0.0
C2668 C 0.53264 0.24094 0.73439 0.0
C2669 C 0.50129 0.26338 0.832 0.0
C2670 C 0.49881 0.28155 0.82585 0.0
C2671 C 0.50249 0.2489 0.81934 0.0
C2672 C 0.50121 0.25236 0.80036 0.0
C2673 C 0.49928 0.27055 0.79424 0.0
C2674 C 0.49804 0.28497 0.80683 0.0
C2675 C 0.5015 0.23717 0.78671 0.0
C2676 C 0.5147 0.23767 0.77265 0.0
C2677 C 0.48866 0.22255 0.78718 0.0
C2678 C 0.47401 0.22151 0.80132 0.0
C2679 C 0.46133 0.23595 0.80343 0.0
C2680 C 0.44766 0.23492 0.81691 0.0
C2681 C 0.44645 0.21946 0.82826 0.0
C2682 C 0.45887 0.20496 0.82611 0.0
C2683 C 0.47258 0.20593 0.81266 0.0
H2684 H 0.43586 0.21869 0.83868 0.0
H2685 H 0.56883 0.22727 0.70809 0.0
H2686 H 0.74017 0.50194 0.84991 0.0
H2687 H 0.76487 0.50361 0.82699 0.0
H2688 H 0.72562 0.49286 0.78382 0.0
H2689 H 0.70108 0.49086 0.80656 0.0
H2690 H 0.75468 0.47212 0.77908 0.0
H2691 H 0.74406 0.536 0.79096 0.0
H2692 H 0.74093 0.564 0.8098 0.0
H2693 H 0.79674 0.55824 0.82818 0.0
H2694 H 0.80012 0.53003 0.80962 0.0
H2695 H 0.80529 0.50215 0.70045 0.0
H2696 H 0.78297 0.4994 0.72553 0.0
H2697 H 0.82712 0.49979 0.7651 0.0
H2698 H 0.84958 0.50221 0.74005 0.0
H2699 H 0.79731 0.52499 0.7728 0.0
H2700 H 0.80758 0.46132 0.75868 0.0
H2701 H 0.80988 0.43431 0.73834 0.0
H2702 H 0.75338 0.44095 0.72259 0.0
H2703 H 0.75081 0.46819 0.74265 0.0
C2704 C 0.73681 0.50008 0.83551 0.0
C2705 C 0.71867 0.49625 0.83006 0.0
C2706 C 0.75093 0.50107 0.82242 0.0
C2707 C 0.74712 0.49842 0.80363 0.0
C2708 C 0.72895 0.49486 0.79821 0.0
C2709 C 0.7149 0.4938 0.81125 0.0
C2710 C 0.762 0.49886 0.78957 0.0
C2711 C 0.76387 0.48378 0.77763 0.0
C2712 C 0.77427 0.51388 0.78784 0.0
C2713 C 0.77227 0.53078 0.79908 0.0
C2714 C 0.75561 0.5406 0.79915 0.0
C2715 C 0.7538 0.55653 0.80975 0.0
C2716 C 0.76861 0.56286 0.82023 0.0
C2717 C 0.78527 0.55329 0.82009 0.0
C2718 C 0.78714 0.53734 0.80952 0.0
C2719 C 0.81026 0.50148 0.71448 0.0
C2720 C 0.82919 0.50234 0.71828 0.0
C2721 C 0.7975 0.49991 0.72878 0.0
C2722 C 0.80341 0.49939 0.74716 0.0
C2723 C 0.82229 0.50018 0.75101 0.0
C2724 C 0.83509 0.50145 0.73668 0.0
C2725 C 0.78978 0.49836 0.76231 0.0
C2726 C 0.78817 0.5133 0.77441 0.0
C2727 C 0.77759 0.48333 0.76405 0.0
C2728 C 0.77906 0.46691 0.75204 0.0
C2729 C 0.79569 0.45712 0.75076 0.0
C2730 C 0.79703 0.44175 0.7393 0.0
C2731 C 0.7818 0.43595 0.72914 0.0
C2732 C 0.76517 0.44548 0.73045 0.0
C2733 C 0.76376 0.46087 0.74188 0.0
H2734 H 0.78287 0.42404 0.72028 0.0
H2735 H 0.76719 0.5752 0.82842 0.0
loop_
_geom_bond_atom_site_label_1
_geom_bond_atom_site_label_2
_geom_bond_distance
_geom_bond_site_symmetry_2
_ccdc_geom_bond_type
Co0 O1 2.216 . S
Co0 O2 2.091 . S
Co0 O4 2.004 . S
Co0 O10 2.021 . S
Co0 O12 2.137 . S
Co0 O13 2.244 . S
O1 Co0 2.216 . S
O1 C8 1.247 . S
O2 Co0 2.091 . S
O2 C8 1.261 . S
C3 O12 1.247 . S
C3 O13 1.272 . S
O4 Co0 2.004 . S
O4 C9 1.259 . S
Co5 O6 2.061 . S
Co5 O11 2.052 . S
Co5 O13 2.135 . S
O6 Co5 2.061 . S
O6 C9 1.235 . S
C7 O10 1.238 . S
C7 O11 1.241 . S
C8 O1 1.247 . S
C8 O2 1.261 . S
C9 O4 1.259 . S
C9 O6 1.235 . S
O10 Co0 2.021 . S
O10 C7 1.238 . S
O11 Co5 2.052 . S
O11 C7 1.241 . S
O12 Co0 2.137 . S
O12 C3 1.247 . S
O13 Co0 2.244 . S
O13 C3 1.272 . S
O13 Co5 2.135 . S
Co14 O15 2.216 . S
Co14 O16 2.091 . S
Co14 O18 2.004 . S
Co14 O24 2.021 . S
Co14 O26 2.137 . S
Co14 O27 2.244 . S
O15 Co14 2.216 . S
O15 C22 1.247 . S
O16 Co14 2.091 . S
O16 C22 1.261 . S
C17 O26 1.247 . S
C17 O27 1.272 . S
O18 Co14 2.004 . S
O18 C23 1.259 . S
Co19 O20 2.061 . S
Co19 O25 2.052 . S
Co19 O27 2.135 . S
O20 Co19 2.061 . S
O20 C23 1.235 . S
C21 O24 1.238 . S
C21 O25 1.241 . S
C22 O15 1.247 . S
C22 O16 1.261 . S
C23 O18 1.259 . S
C23 O20 1.235 . S
O24 Co14 2.021 . S
O24 C21 1.238 . S
O25 Co19 2.052 . S
O25 C21 1.241 . S
O26 Co14 2.137 . S
O26 C17 1.247 . S
O27 Co14 2.244 . S
O27 C17 1.272 . S
O27 Co19 2.135 . S
Co28 O29 2.216 . S
Co28 O30 2.091 . S
Co28 O32 2.004 . S
Co28 O38 2.021 . S
Co28 O40 2.137 . S
Co28 O41 2.244 . S
O29 Co28 2.216 . S
O29 C36 1.247 . S
O30 Co28 2.091 . S
O30 C36 1.261 . S
C31 O40 1.247 . S
C31 O41 1.272 . S
O32 Co28 2.004 . S
O32 C37 1.259 . S
Co33 O34 2.061 . S
Co33 O39 2.052 . S
Co33 O41 2.135 . S
O34 Co33 2.061 . S
O34 C37 1.235 . S
C35 O38 1.238 . S
C35 O39 1.241 . S
C36 O29 1.247 . S
C36 O30 1.261 . S
C37 O32 1.259 . S
C37 O34 1.235 . S
O38 Co28 2.021 . S
O38 C35 1.238 . S
O39 Co33 2.052 . S
O39 C35 1.241 . S
O40 Co28 2.137 . S
O40 C31 1.247 . S
O41 Co28 2.244 . S
O41 C31 1.272 . S
O41 Co33 2.135 . S
Co42 O43 2.216 . S
Co42 O44 2.091 . S
Co42 O46 2.004 . S
Co42 O52 2.021 . S
Co42 O54 2.137 . S
Co42 O55 2.244 . S
O43 Co42 2.216 . S
O43 C50 1.247 . S
O44 Co42 2.091 . S
O44 C50 1.261 . S
C45 O54 1.247 . S
C45 O55 1.272 . S
O46 Co42 2.004 . S
O46 C51 1.259 . S
Co47 O48 2.061 . S
Co47 O53 2.052 . S
Co47 O55 2.135 . S
O48 Co47 2.061 . S
O48 C51 1.235 . S
C49 O52 1.238 . S
C49 O53 1.241 . S
C50 O43 1.247 . S
C50 O44 1.261 . S
C51 O46 1.259 . S
C51 O48 1.235 . S
O52 Co42 2.021 . S
O52 C49 1.238 . S
O53 Co47 2.052 . S
O53 C49 1.241 . S
O54 Co42 2.137 . S
O54 C45 1.247 . S
O55 Co42 2.244 . S
O55 C45 1.272 . S
O55 Co47 2.135 . S
Co56 O57 2.216 . S
Co56 O58 2.091 . S
Co56 O60 2.004 . S
Co56 O66 2.021 . S
Co56 O68 2.137 . S
Co56 O69 2.244 . S
O57 Co56 2.216 . S
O57 C64 1.247 . S
O58 Co56 2.091 . S
O58 C64 1.261 . S
C59 O68 1.247 . S
C59 O69 1.272 . S
O60 Co56 2.004 . S
O60 C65 1.259 . S
Co61 O62 2.061 . S
Co61 O67 2.052 . S
Co61 O69 2.135 . S
O62 Co61 2.061 . S
O62 C65 1.235 . S
C63 O66 1.238 . S
C63 O67 1.241 . S
C64 O57 1.247 . S
C64 O58 1.261 . S
C65 O60 1.259 . S
C65 O62 1.235 . S
O66 Co56 2.021 . S
O66 C63 1.238 . S
O67 Co61 2.052 . S
O67 C63 1.241 . S
O68 Co56 2.137 . S
O68 C59 1.247 . S
O69 Co56 2.244 . S
O69 C59 1.272 . S
O69 Co61 2.135 . S
Co70 O71 2.216 . S
Co70 O72 2.091 . S
Co70 O74 2.004 . S
Co70 O80 2.021 . S
Co70 O82 2.137 . S
Co70 O83 2.244 . S
O71 Co70 2.216 . S
O71 C78 1.247 . S
O72 Co70 2.091 . S
O72 C78 1.261 . S
C73 O82 1.247 . S
C73 O83 1.272 . S
O74 Co70 2.004 . S
O74 C79 1.259 . S
Co75 O76 2.061 . S
Co75 O81 2.052 . S
Co75 O83 2.135 . S
O76 Co75 2.061 . S
O76 C79 1.235 . S
C77 O80 1.238 . S
C77 O81 1.241 . S
C78 O71 1.247 . S
C78 O72 1.261 . S
C79 O74 1.259 . S
C79 O76 1.235 . S
O80 Co70 2.021 . S
O80 C77 1.238 . S
O81 Co75 2.052 . S
O81 C77 1.241 . S
O82 Co70 2.137 . S
O82 C73 1.247 . S
O83 Co70 2.244 . S
O83 C73 1.272 . S
O83 Co75 2.135 . S
Co84 O85 2.216 . S
Co84 O86 2.091 . S
Co84 O88 2.004 . S
Co84 O94 2.021 . S
Co84 O96 2.137 . S
Co84 O97 2.244 . S
O85 Co84 2.216 . S
O85 C92 1.247 . S
O86 Co84 2.091 . S
O86 C92 1.261 . S
C87 O96 1.247 . S
C87 O97 1.272 . S
O88 Co84 2.004 . S
O88 C93 1.259 . S
Co89 O90 2.061 . S
Co89 O95 2.052 . S
Co89 O97 2.135 . S
O90 Co89 2.061 . S
O90 C93 1.235 . S
C91 O94 1.238 . S
C91 O95 1.241 . S
C92 O85 1.247 . S
C92 O86 1.261 . S
C93 O88 1.259 . S
C93 O90 1.235 . S
O94 Co84 2.021 . S
O94 C91 1.238 . S
O95 Co89 2.052 . S
O95 C91 1.241 . S
O96 Co84 2.137 . S
O96 C87 1.247 . S
O97 Co84 2.244 . S
O97 C87 1.272 . S
O97 Co89 2.135 . S
Co98 O99 2.216 . S
Co98 O100 2.091 . S
Co98 O102 2.004 . S
Co98 O108 2.021 . S
Co98 O110 2.137 . S
Co98 O111 2.244 . S
O99 Co98 2.216 . S
O99 C106 1.247 . S
O100 Co98 2.091 . S
O100 C106 1.261 . S
C101 O110 1.247 . S
C101 O111 1.272 . S
O102 Co98 2.004 . S
O102 C107 1.259 . S
Co103 O104 2.061 . S
Co103 O109 2.052 . S
Co103 O111 2.135 . S
O104 Co103 2.061 . S
O104 C107 1.235 . S
C105 O108 1.238 . S
C105 O109 1.241 . S
C106 O99 1.247 . S
C106 O100 1.261 . S
C107 O102 1.259 . S
C107 O104 1.235 . S
O108 Co98 2.021 . S
O108 C105 1.238 . S
O109 Co103 2.052 . S
O109 C105 1.241 . S
O110 Co98 2.137 . S
O110 C101 1.247 . S
O111 Co98 2.244 . S
O111 C101 1.272 . S
O111 Co103 2.135 . S
Co112 O113 2.216 . S
Co112 O114 2.091 . S
Co112 O116 2.004 . S
Co112 O122 2.021 . S
Co112 O124 2.137 . S
Co112 O125 2.244 . S
O113 Co112 2.216 . S
O113 C120 1.247 . S
O114 Co112 2.091 . S
O114 C120 1.261 . S
C115 O124 1.247 . S
C115 O125 1.272 . S
O116 Co112 2.004 . S
O116 C121 1.259 . S
Co117 O118 2.061 . S
Co117 O123 2.052 . S
Co117 O125 2.135 . S
O118 Co117 2.061 . S
O118 C121 1.235 . S
C119 O122 1.238 . S
C119 O123 1.241 . S
C120 O113 1.247 . S
C120 O114 1.261 . S
C121 O116 1.259 . S
C121 O118 1.235 . S
O122 Co112 2.021 . S
O122 C119 1.238 . S
O123 Co117 2.052 . S
O123 C119 1.241 . S
O124 Co112 2.137 . S
O124 C115 1.247 . S
O125 Co112 2.244 . S
O125 C115 1.272 . S
O125 Co117 2.135 . S
Co126 O127 2.216 . S
Co126 O128 2.091 . S
Co126 O130 2.004 . S
Co126 O136 2.021 . S
Co126 O138 2.137 . S
Co126 O139 2.244 . S
O127 Co126 2.216 . S
O127 C134 1.247 . S
O128 Co126 2.091 . S
O128 C134 1.261 . S
C129 O138 1.247 . S
C129 O139 1.272 . S
O130 Co126 2.004 . S
O130 C135 1.259 . S
Co131 O132 2.061 . S
Co131 O137 2.052 . S
Co131 O139 2.135 . S
O132 Co131 2.061 . S
O132 C135 1.235 . S
C133 O136 1.238 . S
C133 O137 1.241 . S
C134 O127 1.247 . S
C134 O128 1.261 . S
C135 O130 1.259 . S
C135 O132 1.235 . S
O136 Co126 2.021 . S
O136 C133 1.238 . S
O137 Co131 2.052 . S
O137 C133 1.241 . S
O138 Co126 2.137 . S
O138 C129 1.247 . S
O139 Co126 2.244 . S
O139 C129 1.272 . S
O139 Co131 2.135 . S
Co140 O141 2.216 . S
Co140 O142 2.091 . S
Co140 O144 2.004 . S
Co140 O150 2.021 . S
Co140 O152 2.137 . S
Co140 O153 2.244 . S
O141 Co140 2.216 . S
O141 C148 1.247 . S
O142 Co140 2.091 . S
O142 C148 1.261 . S
C143 O152 1.247 . S
C143 O153 1.272 . S
O144 Co140 2.004 . S
O144 C149 1.259 . S
Co145 O146 2.061 . S
Co145 O151 2.052 . S
Co145 O153 2.135 . S
O146 Co145 2.061 . S
O146 C149 1.235 . S
C147 O150 1.238 . S
C147 O151 1.241 . S
C148 O141 1.247 . S
C148 O142 1.261 . S
C149 O144 1.259 . S
C149 O146 1.235 . S
O150 Co140 2.021 . S
O150 C147 1.238 . S
O151 Co145 2.052 . S
O151 C147 1.241 . S
O152 Co140 2.137 . S
O152 C143 1.247 . S
O153 Co140 2.244 . S
O153 C143 1.272 . S
O153 Co145 2.135 . S
Co154 O155 2.216 . S
Co154 O156 2.091 . S
Co154 O158 2.004 . S
Co154 O164 2.021 . S
Co154 O166 2.137 . S
Co154 O167 2.244 . S
O155 Co154 2.216 . S
O155 C162 1.247 . S
O156 Co154 2.091 . S
O156 C162 1.261 . S
C157 O166 1.247 . S
C157 O167 1.272 . S
O158 Co154 2.004 . S
O158 C163 1.259 . S
Co159 O160 2.061 . S
Co159 O165 2.052 . S
Co159 O167 2.135 . S
O160 Co159 2.061 . S
O160 C163 1.235 . S
C161 O164 1.238 . S
C161 O165 1.241 . S
C162 O155 1.247 . S
C162 O156 1.261 . S
C163 O158 1.259 . S
C163 O160 1.235 . S
O164 Co154 2.021 . S
O164 C161 1.238 . S
O165 Co159 2.052 . S
O165 C161 1.241 . S
O166 Co154 2.137 . S
O166 C157 1.247 . S
O167 Co154 2.244 . S
O167 C157 1.272 . S
O167 Co159 2.135 . S
Co168 O169 2.216 . S
Co168 O170 2.091 . S
Co168 O172 2.004 . S
Co168 O178 2.021 . S
Co168 O180 2.137 . S
Co168 O181 2.244 . S
O169 Co168 2.216 . S
O169 C176 1.247 . S
O170 Co168 2.091 . S
O170 C176 1.261 . S
C171 O180 1.247 . S
C171 O181 1.272 . S
O172 Co168 2.004 . S
O172 C177 1.259 . S
Co173 O174 2.061 . S
Co173 O179 2.052 . S
Co173 O181 2.135 . S
O174 Co173 2.061 . S
O174 C177 1.235 . S
C175 O178 1.238 . S
C175 O179 1.241 . S
C176 O169 1.247 . S
C176 O170 1.261 . S
C177 O172 1.259 . S
C177 O174 1.235 . S
O178 Co168 2.021 . S
O178 C175 1.238 . S
O179 Co173 2.052 . S
O179 C175 1.241 . S
O180 Co168 2.137 . S
O180 C171 1.247 . S
O181 Co168 2.244 . S
O181 C171 1.272 . S
O181 Co173 2.135 . S
Co182 O183 2.216 . S
Co182 O184 2.091 . S
Co182 O186 2.004 . S
Co182 O192 2.021 . S
Co182 O194 2.137 . S
Co182 O195 2.244 . S
O183 Co182 2.216 . S
O183 C190 1.247 . S
O184 Co182 2.091 . S
O184 C190 1.261 . S
C185 O194 1.247 . S
C185 O195 1.272 . S
O186 Co182 2.004 . S
O186 C191 1.259 . S
Co187 O188 2.061 . S
Co187 O193 2.052 . S
Co187 O195 2.135 . S
O188 Co187 2.061 . S
O188 C191 1.235 . S
C189 O192 1.238 . S
C189 O193 1.241 . S
C190 O183 1.247 . S
C190 O184 1.261 . S
C191 O186 1.259 . S
C191 O188 1.235 . S
O192 Co182 2.021 . S
O192 C189 1.238 . S
O193 Co187 2.052 . S
O193 C189 1.241 . S
O194 Co182 2.137 . S
O194 C185 1.247 . S
O195 Co182 2.244 . S
O195 C185 1.272 . S
O195 Co187 2.135 . S
Co196 O197 2.216 . S
Co196 O198 2.091 . S
Co196 O200 2.004 . S
Co196 O206 2.021 . S
Co196 O208 2.137 . S
Co196 O209 2.244 . S
O197 Co196 2.216 . S
O197 C204 1.247 . S
O198 Co196 2.091 . S
O198 C204 1.261 . S
C199 O208 1.247 . S
C199 O209 1.272 . S
O200 Co196 2.004 . S
O200 C205 1.259 . S
Co201 O202 2.061 . S
Co201 O207 2.052 . S
Co201 O209 2.135 . S
O202 Co201 2.061 . S
O202 C205 1.235 . S
C203 O206 1.238 . S
C203 O207 1.241 . S
C204 O197 1.247 . S
C204 O198 1.261 . S
C205 O200 1.259 . S
C205 O202 1.235 . S
O206 Co196 2.021 . S
O206 C203 1.238 . S
O207 Co201 2.052 . S
O207 C203 1.241 . S
O208 Co196 2.137 . S
O208 C199 1.247 . S
O209 Co196 2.244 . S
O209 C199 1.272 . S
O209 Co201 2.135 . S
Co210 O211 2.216 . S
Co210 O212 2.091 . S
Co210 O214 2.004 . S
Co210 O220 2.021 . S
Co210 O222 2.137 . S
Co210 O223 2.244 . S
O211 Co210 2.216 . S
O211 C218 1.247 . S
O212 Co210 2.091 . S
O212 C218 1.261 . S
C213 O222 1.247 . S
C213 O223 1.272 . S
O214 Co210 2.004 . S
O214 C219 1.259 . S
Co215 O216 2.061 . S
Co215 O221 2.052 . S
Co215 O223 2.135 . S
O216 Co215 2.061 . S
O216 C219 1.235 . S
C217 O220 1.238 . S
C217 O221 1.241 . S
C218 O211 1.247 . S
C218 O212 1.261 . S
C219 O214 1.259 . S
C219 O216 1.235 . S
O220 Co210 2.021 . S
O220 C217 1.238 . S
O221 Co215 2.052 . S
O221 C217 1.241 . S
O222 Co210 2.137 . S
O222 C213 1.247 . S
O223 Co210 2.244 . S
O223 C213 1.272 . S
O223 Co215 2.135 . S
Co224 O225 2.216 . S
Co224 O226 2.091 . S
Co224 O228 2.004 . S
Co224 O234 2.021 . S
Co224 O236 2.137 . S
Co224 O237 2.244 . S
O225 Co224 2.216 . S
O225 C232 1.247 . S
O226 Co224 2.091 . S
O226 C232 1.261 . S
C227 O236 1.247 . S
C227 O237 1.272 . S
O228 Co224 2.004 . S
O228 C233 1.259 . S
Co229 O230 2.061 . S
Co229 O235 2.052 . S
Co229 O237 2.135 . S
O230 Co229 2.061 . S
O230 C233 1.235 . S
C231 O234 1.238 . S
C231 O235 1.241 . S
C232 O225 1.247 . S
C232 O226 1.261 . S
C233 O228 1.259 . S
C233 O230 1.235 . S
O234 Co224 2.021 . S
O234 C231 1.238 . S
O235 Co229 2.052 . S
O235 C231 1.241 . S
O236 Co224 2.137 . S
O236 C227 1.247 . S
O237 Co224 2.244 . S
O237 C227 1.272 . S
O237 Co229 2.135 . S
Co238 O239 2.216 . S
Co238 O240 2.091 . S
Co238 O242 2.004 . S
Co238 O248 2.021 . S
Co238 O250 2.137 . S
Co238 O251 2.244 . S
O239 Co238 2.216 . S
O239 C246 1.247 . S
O240 Co238 2.091 . S
O240 C246 1.261 . S
C241 O250 1.247 . S
C241 O251 1.272 . S
O242 Co238 2.004 . S
O242 C247 1.259 . S
Co243 O244 2.061 . S
Co243 O249 2.052 . S
Co243 O251 2.135 . S
O244 Co243 2.061 . S
O244 C247 1.235 . S
C245 O248 1.238 . S
C245 O249 1.241 . S
C246 O239 1.247 . S
C246 O240 1.261 . S
C247 O242 1.259 . S
C247 O244 1.235 . S
O248 Co238 2.021 . S
O248 C245 1.238 . S
O249 Co243 2.052 . S
O249 C245 1.241 . S
O250 Co238 2.137 . S
O250 C241 1.247 . S
O251 Co238 2.244 . S
O251 C241 1.272 . S
O251 Co243 2.135 . S
Co252 O253 2.216 . S
Co252 O254 2.091 . S
Co252 O256 2.004 . S
Co252 O262 2.021 . S
Co252 O264 2.137 . S
Co252 O265 2.244 . S
O253 Co252 2.216 . S
O253 C260 1.247 . S
O254 Co252 2.091 . S
O254 C260 1.261 . S
C255 O264 1.247 . S
C255 O265 1.272 . S
O256 Co252 2.004 . S
O256 C261 1.259 . S
Co257 O258 2.061 . S
Co257 O263 2.052 . S
Co257 O265 2.135 . S
O258 Co257 2.061 . S
O258 C261 1.235 . S
C259 O262 1.238 . S
C259 O263 1.241 . S
C260 O253 1.247 . S
C260 O254 1.261 . S
C261 O256 1.259 . S
C261 O258 1.235 . S
O262 Co252 2.021 . S
O262 C259 1.238 . S
O263 Co257 2.052 . S
O263 C259 1.241 . S
O264 Co252 2.137 . S
O264 C255 1.247 . S
O265 Co252 2.244 . S
O265 C255 1.272 . S
O265 Co257 2.135 . S
Co266 O267 2.216 . S
Co266 O268 2.091 . S
Co266 O270 2.004 . S
Co266 O276 2.021 . S
Co266 O278 2.137 . S
Co266 O279 2.244 . S
O267 Co266 2.216 . S
O267 C274 1.247 . S
O268 Co266 2.091 . S
O268 C274 1.261 . S
C269 O278 1.247 . S
C269 O279 1.272 . S
O270 Co266 2.004 . S
O270 C275 1.259 . S
Co271 O272 2.061 . S
Co271 O277 2.052 . S
Co271 O279 2.135 . S
O272 Co271 2.061 . S
O272 C275 1.235 . S
C273 O276 1.238 . S
C273 O277 1.241 . S
C274 O267 1.247 . S
C274 O268 1.261 . S
C275 O270 1.259 . S
C275 O272 1.235 . S
O276 Co266 2.021 . S
O276 C273 1.238 . S
O277 Co271 2.052 . S
O277 C273 1.241 . S
O278 Co266 2.137 . S
O278 C269 1.247 . S
O279 Co266 2.244 . S
O279 C269 1.272 . S
O279 Co271 2.135 . S
Co280 O281 2.216 . S
Co280 O282 2.091 . S
Co280 O284 2.004 . S
Co280 O290 2.021 . S
Co280 O292 2.137 . S
Co280 O293 2.244 . S
O281 Co280 2.216 . S
O281 C288 1.247 . S
O282 Co280 2.091 . S
O282 C288 1.261 . S
C283 O292 1.247 . S
C283 O293 1.272 . S
O284 Co280 2.004 . S
O284 C289 1.259 . S
Co285 O286 2.061 . S
Co285 O291 2.052 . S
Co285 O293 2.135 . S
O286 Co285 2.061 . S
O286 C289 1.235 . S
C287 O290 1.238 . S
C287 O291 1.241 . S
C288 O281 1.247 . S
C288 O282 1.261 . S
C289 O284 1.259 . S
C289 O286 1.235 . S
O290 Co280 2.021 . S
O290 C287 1.238 . S
O291 Co285 2.052 . S
O291 C287 1.241 . S
O292 Co280 2.137 . S
O292 C283 1.247 . S
O293 Co280 2.244 . S
O293 C283 1.272 . S
O293 Co285 2.135 . S
Co294 O295 2.216 . S
Co294 O296 2.091 . S
Co294 O298 2.004 . S
Co294 O304 2.021 . S
Co294 O306 2.137 . S
Co294 O307 2.244 . S
O295 Co294 2.216 . S
O295 C302 1.247 . S
O296 Co294 2.091 . S
O296 C302 1.261 . S
C297 O306 1.247 . S
C297 O307 1.272 . S
O298 Co294 2.004 . S
O298 C303 1.259 . S
Co299 O300 2.061 . S
Co299 O305 2.052 . S
Co299 O307 2.135 . S
O300 Co299 2.061 . S
O300 C303 1.235 . S
C301 O304 1.238 . S
C301 O305 1.241 . S
C302 O295 1.247 . S
C302 O296 1.261 . S
C303 O298 1.259 . S
C303 O300 1.235 . S
O304 Co294 2.021 . S
O304 C301 1.238 . S
O305 Co299 2.052 . S
O305 C301 1.241 . S
O306 Co294 2.137 . S
O306 C297 1.247 . S
O307 Co294 2.244 . S
O307 C297 1.272 . S
O307 Co299 2.135 . S
Co308 O309 2.216 . S
Co308 O310 2.091 . S
Co308 O312 2.004 . S
Co308 O318 2.021 . S
Co308 O320 2.137 . S
Co308 O321 2.244 . S
O309 Co308 2.216 . S
O309 C316 1.247 . S
O310 Co308 2.091 . S
O310 C316 1.261 . S
C311 O320 1.247 . S
C311 O321 1.272 . S
O312 Co308 2.004 . S
O312 C317 1.259 . S
Co313 O314 2.061 . S
Co313 O319 2.052 . S
Co313 O321 2.135 . S
O314 Co313 2.061 . S
O314 C317 1.235 . S
C315 O318 1.238 . S
C315 O319 1.241 . S
C316 O309 1.247 . S
C316 O310 1.261 . S
C317 O312 1.259 . S
C317 O314 1.235 . S
O318 Co308 2.021 . S
O318 C315 1.238 . S
O319 Co313 2.052 . S
O319 C315 1.241 . S
O320 Co308 2.137 . S
O320 C311 1.247 . S
O321 Co308 2.244 . S
O321 C311 1.272 . S
O321 Co313 2.135 . S
Co322 O323 2.216 . S
Co322 O324 2.091 . S
Co322 O326 2.004 . S
Co322 O332 2.021 . S
Co322 O334 2.137 . S
Co322 O335 2.244 . S
O323 Co322 2.216 . S
O323 C330 1.247 . S
O324 Co322 2.091 . S
O324 C330 1.261 . S
C325 O334 1.247 . S
C325 O335 1.272 . S
O326 Co322 2.004 . S
O326 C331 1.259 . S
Co327 O328 2.061 . S
Co327 O333 2.052 . S
Co327 O335 2.135 . S
O328 Co327 2.061 . S
O328 C331 1.235 . S
C329 O332 1.238 . S
C329 O333 1.241 . S
C330 O323 1.247 . S
C330 O324 1.261 . S
C331 O326 1.259 . S
C331 O328 1.235 . S
O332 Co322 2.021 . S
O332 C329 1.238 . S
O333 Co327 2.052 . S
O333 C329 1.241 . S
O334 Co322 2.137 . S
O334 C325 1.247 . S
O335 Co322 2.244 . S
O335 C325 1.272 . S
O335 Co327 2.135 . S
H336 C354 0.951 . S
H337 C356 0.951 . S
H338 C358 0.950 . S
H339 C359 0.950 . S
H340 C361 0.950 . S
H341 C364 0.950 . S
H342 C365 0.950 . S
H343 C367 0.950 . S
H344 C368 0.950 . S
H345 C369 0.951 . S
H346 C371 0.951 . S
H347 C373 0.950 . S
H348 C374 0.950 . S
H349 C376 0.950 . S
H350 C379 0.950 . S
H351 C380 0.950 . S
H352 C382 0.950 . S
H353 C383 0.950 . S
C354 H336 0.951 . S
C354 C355 1.366 . S
C354 C356 1.388 . S
C355 C354 1.366 . S
C355 C359 1.385 . S
C356 H337 0.951 . S
C356 C354 1.388 . S
C356 C357 1.366 . S
C357 C356 1.366 . S
C357 C358 1.414 . S
C357 C360 1.499 . S
C358 H338 0.950 . S
C358 C357 1.414 . S
C358 C359 1.374 . S
C359 H339 0.950 . S
C359 C355 1.385 . S
C359 C358 1.374 . S
C360 C357 1.499 . S
C360 C361 1.373 . S
C360 C362 1.389 . S
C361 H340 0.950 . S
C361 C360 1.373 . S
C361 C377 1.377 . S
C362 C360 1.389 . S
C362 C363 1.524 . S
C362 C376 1.377 . S
C363 C362 1.524 . S
C363 C364 1.397 . S
C363 C368 1.363 . S
C364 H341 0.950 . S
C364 C363 1.397 . S
C364 C365 1.334 . S
C365 H342 0.950 . S
C365 C364 1.334 . S
C365 C366 1.287 . S
C366 C365 1.287 . S
C366 C367 1.524 . S
C366 H385 0.913 . S
C367 H343 0.950 . S
C367 C366 1.524 . S
C367 C368 1.415 . S
C368 H344 0.950 . S
C368 C363 1.363 . S
C368 C367 1.415 . S
C369 H345 0.951 . S
C369 C370 1.366 . S
C369 C371 1.388 . S
C370 C369 1.366 . S
C370 C374 1.385 . S
C371 H346 0.951 . S
C371 C369 1.388 . S
C371 C372 1.366 . S
C372 C371 1.366 . S
C372 C373 1.414 . S
C372 C375 1.499 . S
C373 H347 0.950 . S
C373 C372 1.414 . S
C373 C374 1.374 . S
C374 H348 0.950 . S
C374 C370 1.385 . S
C374 C373 1.374 . S
C375 C372 1.499 . S
C375 C376 1.373 . S
C375 C377 1.389 . S
C376 H349 0.950 . S
C376 C362 1.377 . S
C376 C375 1.373 . S
C377 C361 1.377 . S
C377 C375 1.389 . S
C377 C378 1.524 . S
C378 C377 1.524 . S
C378 C379 1.397 . S
C378 C383 1.363 . S
C379 H350 0.950 . S
C379 C378 1.397 . S
C379 C380 1.334 . S
C380 H351 0.950 . S
C380 C379 1.334 . S
C380 C381 1.287 . S
C381 C380 1.287 . S
C381 C382 1.524 . S
C381 H384 0.999 . S
C382 H352 0.950 . S
C382 C381 1.524 . S
C382 C383 1.415 . S
C383 H353 0.950 . S
C383 C378 1.363 . S
C383 C382 1.415 . S
H384 C381 0.999 . S
H385 C366 0.913 . S
H386 C404 0.951 . S
H387 C406 0.951 . S
H388 C408 0.950 . S
H389 C409 0.950 . S
H390 C411 0.950 . S
H391 C414 0.950 . S
H392 C415 0.950 . S
H393 C417 0.950 . S
H394 C418 0.950 . S
H395 C419 0.951 . S
H396 C421 0.951 . S
H397 C423 0.950 . S
H398 C424 0.950 . S
H399 C426 0.950 . S
H400 C429 0.950 . S
H401 C430 0.950 . S
H402 C432 0.950 . S
H403 C433 0.950 . S
C404 H386 0.951 . S
C404 C405 1.366 . S
C404 C406 1.388 . S
C405 C404 1.366 . S
C405 C409 1.385 . S
C406 H387 0.951 . S
C406 C404 1.388 . S
C406 C407 1.366 . S
C407 C406 1.366 . S
C407 C408 1.414 . S
C407 C410 1.499 . S
C408 H388 0.950 . S
C408 C407 1.414 . S
C408 C409 1.374 . S
C409 H389 0.950 . S
C409 C405 1.385 . S
C409 C408 1.374 . S
C410 C407 1.499 . S
C410 C411 1.373 . S
C410 C412 1.389 . S
C411 H390 0.950 . S
C411 C410 1.373 . S
C411 C427 1.377 . S
C412 C410 1.389 . S
C412 C413 1.524 . S
C412 C426 1.377 . S
C413 C412 1.524 . S
C413 C414 1.397 . S
C413 C418 1.363 . S
C414 H391 0.950 . S
C414 C413 1.397 . S
C414 C415 1.334 . S
C415 H392 0.950 . S
C415 C414 1.334 . S
C415 C416 1.287 . S
C416 C415 1.287 . S
C416 C417 1.524 . S
C416 H435 0.913 . S
C417 H393 0.950 . S
C417 C416 1.524 . S
C417 C418 1.415 . S
C418 H394 0.950 . S
C418 C413 1.363 . S
C418 C417 1.415 . S
C419 H395 0.951 . S
C419 C420 1.366 . S
C419 C421 1.388 . S
C420 C419 1.366 . S
C420 C424 1.385 . S
C421 H396 0.951 . S
C421 C419 1.388 . S
C421 C422 1.366 . S
C422 C421 1.366 . S
C422 C423 1.414 . S
C422 C425 1.499 . S
C423 H397 0.950 . S
C423 C422 1.414 . S
C423 C424 1.374 . S
C424 H398 0.950 . S
C424 C420 1.385 . S
C424 C423 1.374 . S
C425 C422 1.499 . S
C425 C426 1.373 . S
C425 C427 1.389 . S
C426 H399 0.950 . S
C426 C412 1.377 . S
C426 C425 1.373 . S
C427 C411 1.377 . S
C427 C425 1.389 . S
C427 C428 1.524 . S
C428 C427 1.524 . S
C428 C429 1.397 . S
C428 C433 1.363 . S
C429 H400 0.950 . S
C429 C428 1.397 . S
C429 C430 1.334 . S
C430 H401 0.950 . S
C430 C429 1.334 . S
C430 C431 1.287 . S
C431 C430 1.287 . S
C431 C432 1.524 . S
C431 H434 0.999 . S
C432 H402 0.950 . S
C432 C431 1.524 . S
C432 C433 1.415 . S
C433 H403 0.950 . S
C433 C428 1.363 . S
C433 C432 1.415 . S
H434 C431 0.999 . S
H435 C416 0.913 . S
H436 C454 0.951 . S
H437 C456 0.951 . S
H438 C458 0.950 . S
H439 C459 0.950 . S
H440 C461 0.950 . S
H441 C464 0.950 . S
H442 C465 0.950 . S
H443 C467 0.950 . S
H444 C468 0.950 . S
H445 C469 0.951 . S
H446 C471 0.951 . S
H447 C473 0.950 . S
H448 C474 0.950 . S
H449 C476 0.950 . S
H450 C479 0.950 . S
H451 C480 0.950 . S
H452 C482 0.950 . S
H453 C483 0.950 . S
C454 H436 0.951 . S
C454 C455 1.366 . S
C454 C456 1.388 . S
C455 C454 1.366 . S
C455 C459 1.385 . S
C456 H437 0.951 . S
C456 C454 1.388 . S
C456 C457 1.366 . S
C457 C456 1.366 . S
C457 C458 1.414 . S
C457 C460 1.499 . S
C458 H438 0.950 . S
C458 C457 1.414 . S
C458 C459 1.374 . S
C459 H439 0.950 . S
C459 C455 1.385 . S
C459 C458 1.374 . S
C460 C457 1.499 . S
C460 C461 1.373 . S
C460 C462 1.389 . S
C461 H440 0.950 . S
C461 C460 1.373 . S
C461 C477 1.377 . S
C462 C460 1.389 . S
C462 C463 1.524 . S
C462 C476 1.377 . S
C463 C462 1.524 . S
C463 C464 1.397 . S
C463 C468 1.363 . S
C464 H441 0.950 . S
C464 C463 1.397 . S
C464 C465 1.334 . S
C465 H442 0.950 . S
C465 C464 1.334 . S
C465 C466 1.287 . S
C466 C465 1.287 . S
C466 C467 1.524 . S
C466 H485 0.913 . S
C467 H443 0.950 . S
C467 C466 1.524 . S
C467 C468 1.415 . S
C468 H444 0.950 . S
C468 C463 1.363 . S
C468 C467 1.415 . S
C469 H445 0.951 . S
C469 C470 1.366 . S
C469 C471 1.388 . S
C470 C469 1.366 . S
C470 C474 1.385 . S
C471 H446 0.951 . S
C471 C469 1.388 . S
C471 C472 1.366 . S
C472 C471 1.366 . S
C472 C473 1.414 . S
C472 C475 1.499 . S
C473 H447 0.950 . S
C473 C472 1.414 . S
C473 C474 1.374 . S
C474 H448 0.950 . S
C474 C470 1.385 . S
C474 C473 1.374 . S
C475 C472 1.499 . S
C475 C476 1.373 . S
C475 C477 1.389 . S
C476 H449 0.950 . S
C476 C462 1.377 . S
C476 C475 1.373 . S
C477 C461 1.377 . S
C477 C475 1.389 . S
C477 C478 1.524 . S
C478 C477 1.524 . S
C478 C479 1.397 . S
C478 C483 1.363 . S
C479 H450 0.950 . S
C479 C478 1.397 . S
C479 C480 1.334 . S
C480 H451 0.950 . S
C480 C479 1.334 . S
C480 C481 1.287 . S
C481 C480 1.287 . S
C481 C482 1.524 . S
C481 H484 0.999 . S
C482 H452 0.950 . S
C482 C481 1.524 . S
C482 C483 1.415 . S
C483 H453 0.950 . S
C483 C478 1.363 . S
C483 C482 1.415 . S
H484 C481 0.999 . S
H485 C466 0.913 . S
H486 C504 0.951 . S
H487 C506 0.951 . S
H488 C508 0.950 . S
H489 C509 0.950 . S
H490 C511 0.950 . S
H491 C514 0.950 . S
H492 C515 0.950 . S
H493 C517 0.950 . S
H494 C518 0.950 . S
H495 C519 0.951 . S
H496 C521 0.951 . S
H497 C523 0.950 . S
H498 C524 0.950 . S
H499 C526 0.950 . S
H500 C529 0.950 . S
H501 C530 0.950 . S
H502 C532 0.950 . S
H503 C533 0.950 . S
C504 H486 0.951 . S
C504 C505 1.366 . S
C504 C506 1.388 . S
C505 C504 1.366 . S
C505 C509 1.385 . S
C506 H487 0.951 . S
C506 C504 1.388 . S
C506 C507 1.366 . S
C507 C506 1.366 . S
C507 C508 1.414 . S
C507 C510 1.499 . S
C508 H488 0.950 . S
C508 C507 1.414 . S
C508 C509 1.374 . S
C509 H489 0.950 . S
C509 C505 1.385 . S
C509 C508 1.374 . S
C510 C507 1.499 . S
C510 C511 1.373 . S
C510 C512 1.389 . S
C511 H490 0.950 . S
C511 C510 1.373 . S
C511 C527 1.377 . S
C512 C510 1.389 . S
C512 C513 1.524 . S
C512 C526 1.377 . S
C513 C512 1.524 . S
C513 C514 1.397 . S
C513 C518 1.363 . S
C514 H491 0.950 . S
C514 C513 1.397 . S
C514 C515 1.334 . S
C515 H492 0.950 . S
C515 C514 1.334 . S
C515 C516 1.287 . S
C516 C515 1.287 . S
C516 C517 1.524 . S
C516 H535 0.913 . S
C517 H493 0.950 . S
C517 C516 1.524 . S
C517 C518 1.415 . S
C518 H494 0.950 . S
C518 C513 1.363 . S
C518 C517 1.415 . S
C519 H495 0.951 . S
C519 C520 1.366 . S
C519 C521 1.388 . S
C520 C519 1.366 . S
C520 C524 1.385 . S
C521 H496 0.951 . S
C521 C519 1.388 . S
C521 C522 1.366 . S
C522 C521 1.366 . S
C522 C523 1.414 . S
C522 C525 1.499 . S
C523 H497 0.950 . S
C523 C522 1.414 . S
C523 C524 1.374 . S
C524 H498 0.950 . S
C524 C520 1.385 . S
C524 C523 1.374 . S
C525 C522 1.499 . S
C525 C526 1.373 . S
C525 C527 1.389 . S
C526 H499 0.950 . S
C526 C512 1.377 . S
C526 C525 1.373 . S
C527 C511 1.377 . S
C527 C525 1.389 . S
C527 C528 1.524 . S
C528 C527 1.524 . S
C528 C529 1.397 . S
C528 C533 1.363 . S
C529 H500 0.950 . S
C529 C528 1.397 . S
C529 C530 1.334 . S
C530 H501 0.950 . S
C530 C529 1.334 . S
C530 C531 1.287 . S
C531 C530 1.287 . S
C531 C532 1.524 . S
C531 H534 0.999 . S
C532 H502 0.950 . S
C532 C531 1.524 . S
C532 C533 1.415 . S
C533 H503 0.950 . S
C533 C528 1.363 . S
C533 C532 1.415 . S
H534 C531 0.999 . S
H535 C516 0.913 . S
H536 C554 0.951 . S
H537 C556 0.951 . S
H538 C558 0.950 . S
H539 C559 0.950 . S
H540 C561 0.950 . S
H541 C564 0.950 . S
H542 C565 0.950 . S
H543 C567 0.950 . S
H544 C568 0.950 . S
H545 C569 0.951 . S
H546 C571 0.951 . S
H547 C573 0.950 . S
H548 C574 0.950 . S
H549 C576 0.950 . S
H550 C579 0.950 . S
H551 C580 0.950 . S
H552 C582 0.950 . S
H553 C583 0.950 . S
C554 H536 0.951 . S
C554 C555 1.366 . S
C554 C556 1.388 . S
C555 C554 1.366 . S
C555 C559 1.385 . S
C556 H537 0.951 . S
C556 C554 1.388 . S
C556 C557 1.366 . S
C557 C556 1.366 . S
C557 C558 1.414 . S
C557 C560 1.499 . S
C558 H538 0.950 . S
C558 C557 1.414 . S
C558 C559 1.374 . S
C559 H539 0.950 . S
C559 C555 1.385 . S
C559 C558 1.374 . S
C560 C557 1.499 . S
C560 C561 1.373 . S
C560 C562 1.389 . S
C561 H540 0.950 . S
C561 C560 1.373 . S
C561 C577 1.377 . S
C562 C560 1.389 . S
C562 C563 1.524 . S
C562 C576 1.377 . S
C563 C562 1.524 . S
C563 C564 1.397 . S
C563 C568 1.363 . S
C564 H541 0.950 . S
C564 C563 1.397 . S
C564 C565 1.334 . S
C565 H542 0.950 . S
C565 C564 1.334 . S
C565 C566 1.287 . S
C566 C565 1.287 . S
C566 C567 1.524 . S
C566 H585 0.913 . S
C567 H543 0.950 . S
C567 C566 1.524 . S
C567 C568 1.415 . S
C568 H544 0.950 . S
C568 C563 1.363 . S
C568 C567 1.415 . S
C569 H545 0.951 . S
C569 C570 1.366 . S
C569 C571 1.388 . S
C570 C569 1.366 . S
C570 C574 1.385 . S
C571 H546 0.951 . S
C571 C569 1.388 . S
C571 C572 1.366 . S
C572 C571 1.366 . S
C572 C573 1.414 . S
C572 C575 1.499 . S
C573 H547 0.950 . S
C573 C572 1.414 . S
C573 C574 1.374 . S
C574 H548 0.950 . S
C574 C570 1.385 . S
C574 C573 1.374 . S
C575 C572 1.499 . S
C575 C576 1.373 . S
C575 C577 1.389 . S
C576 H549 0.950 . S
C576 C562 1.377 . S
C576 C575 1.373 . S
C577 C561 1.377 . S
C577 C575 1.389 . S
C577 C578 1.524 . S
C578 C577 1.524 . S
C578 C579 1.397 . S
C578 C583 1.363 . S
C579 H550 0.950 . S
C579 C578 1.397 . S
C579 C580 1.334 . S
C580 H551 0.950 . S
C580 C579 1.334 . S
C580 C581 1.287 . S
C581 C580 1.287 . S
C581 C582 1.524 . S
C581 H584 0.999 . S
C582 H552 0.950 . S
C582 C581 1.524 . S
C582 C583 1.415 . S
C583 H553 0.950 . S
C583 C578 1.363 . S
C583 C582 1.415 . S
H584 C581 0.999 . S
H585 C566 0.913 . S
H586 C604 0.951 . S
H587 C606 0.951 . S
H588 C608 0.950 . S
H589 C609 0.950 . S
H590 C611 0.950 . S
H591 C614 0.950 . S
H592 C615 0.950 . S
H593 C617 0.950 . S
H594 C618 0.950 . S
H595 C619 0.951 . S
H596 C621 0.951 . S
H597 C623 0.950 . S
H598 C624 0.950 . S
H599 C626 0.950 . S
H600 C629 0.950 . S
H601 C630 0.950 . S
H602 C632 0.950 . S
H603 C633 0.950 . S
C604 H586 0.951 . S
C604 C605 1.366 . S
C604 C606 1.388 . S
C605 C604 1.366 . S
C605 C609 1.385 . S
C606 H587 0.951 . S
C606 C604 1.388 . S
C606 C607 1.366 . S
C607 C606 1.366 . S
C607 C608 1.414 . S
C607 C610 1.499 . S
C608 H588 0.950 . S
C608 C607 1.414 . S
C608 C609 1.374 . S
C609 H589 0.950 . S
C609 C605 1.385 . S
C609 C608 1.374 . S
C610 C607 1.499 . S
C610 C611 1.373 . S
C610 C612 1.389 . S
C611 H590 0.950 . S
C611 C610 1.373 . S
C611 C627 1.377 . S
C612 C610 1.389 . S
C612 C613 1.524 . S
C612 C626 1.377 . S
C613 C612 1.524 . S
C613 C614 1.397 . S
C613 C618 1.363 . S
C614 H591 0.950 . S
C614 C613 1.397 . S
C614 C615 1.334 . S
C615 H592 0.950 . S
C615 C614 1.334 . S
C615 C616 1.287 . S
C616 C615 1.287 . S
C616 C617 1.524 . S
C616 H635 0.913 . S
C617 H593 0.950 . S
C617 C616 1.524 . S
C617 C618 1.415 . S
C618 H594 0.950 . S
C618 C613 1.363 . S
C618 C617 1.415 . S
C619 H595 0.951 . S
C619 C620 1.366 . S
C619 C621 1.388 . S
C620 C619 1.366 . S
C620 C624 1.385 . S
C621 H596 0.951 . S
C621 C619 1.388 . S
C621 C622 1.366 . S
C622 C621 1.366 . S
C622 C623 1.414 . S
C622 C625 1.499 . S
C623 H597 0.950 . S
C623 C622 1.414 . S
C623 C624 1.374 . S
C624 H598 0.950 . S
C624 C620 1.385 . S
C624 C623 1.374 . S
C625 C622 1.499 . S
C625 C626 1.373 . S
C625 C627 1.389 . S
C626 H599 0.950 . S
C626 C612 1.377 . S
C626 C625 1.373 . S
C627 C611 1.377 . S
C627 C625 1.389 . S
C627 C628 1.524 . S
C628 C627 1.524 . S
C628 C629 1.397 . S
C628 C633 1.363 . S
C629 H600 0.950 . S
C629 C628 1.397 . S
C629 C630 1.334 . S
C630 H601 0.950 . S
C630 C629 1.334 . S
C630 C631 1.287 . S
C631 C630 1.287 . S
C631 C632 1.524 . S
C631 H634 0.999 . S
C632 H602 0.950 . S
C632 C631 1.524 . S
C632 C633 1.415 . S
C633 H603 0.950 . S
C633 C628 1.363 . S
C633 C632 1.415 . S
H634 C631 0.999 . S
H635 C616 0.913 . S
H636 C654 0.951 . S
H637 C656 0.951 . S
H638 C658 0.950 . S
H639 C659 0.950 . S
H640 C661 0.950 . S
H641 C664 0.950 . S
H642 C665 0.950 . S
H643 C667 0.950 . S
H644 C668 0.950 . S
H645 C669 0.951 . S
H646 C671 0.951 . S
H647 C673 0.950 . S
H648 C674 0.950 . S
H649 C676 0.950 . S
H650 C679 0.950 . S
H651 C680 0.950 . S
H652 C682 0.950 . S
H653 C683 0.950 . S
C654 H636 0.951 . S
C654 C655 1.366 . S
C654 C656 1.388 . S
C655 C654 1.366 . S
C655 C659 1.385 . S
C656 H637 0.951 . S
C656 C654 1.388 . S
C656 C657 1.366 . S
C657 C656 1.366 . S
C657 C658 1.414 . S
C657 C660 1.499 . S
C658 H638 0.950 . S
C658 C657 1.414 . S
C658 C659 1.374 . S
C659 H639 0.950 . S
C659 C655 1.385 . S
C659 C658 1.374 . S
C660 C657 1.499 . S
C660 C661 1.373 . S
C660 C662 1.389 . S
C661 H640 0.950 . S
C661 C660 1.373 . S
C661 C677 1.377 . S
C662 C660 1.389 . S
C662 C663 1.524 . S
C662 C676 1.377 . S
C663 C662 1.524 . S
C663 C664 1.397 . S
C663 C668 1.363 . S
C664 H641 0.950 . S
C664 C663 1.397 . S
C664 C665 1.334 . S
C665 H642 0.950 . S
C665 C664 1.334 . S
C665 C666 1.287 . S
C666 C665 1.287 . S
C666 C667 1.524 . S
C666 H685 0.913 . S
C667 H643 0.950 . S
C667 C666 1.524 . S
C667 C668 1.415 . S
C668 H644 0.950 . S
C668 C663 1.363 . S
C668 C667 1.415 . S
C669 H645 0.951 . S
C669 C670 1.366 . S
C669 C671 1.388 . S
C670 C669 1.366 . S
C670 C674 1.385 . S
C671 H646 0.951 . S
C671 C669 1.388 . S
C671 C672 1.366 . S
C672 C671 1.366 . S
C672 C673 1.414 . S
C672 C675 1.499 . S
C673 H647 0.950 . S
C673 C672 1.414 . S
C673 C674 1.374 . S
C674 H648 0.950 . S
C674 C670 1.385 . S
C674 C673 1.374 . S
C675 C672 1.499 . S
C675 C676 1.373 . S
C675 C677 1.389 . S
C676 H649 0.950 . S
C676 C662 1.377 . S
C676 C675 1.373 . S
C677 C661 1.377 . S
C677 C675 1.389 . S
C677 C678 1.524 . S
C678 C677 1.524 . S
C678 C679 1.397 . S
C678 C683 1.363 . S
C679 H650 0.950 . S
C679 C678 1.397 . S
C679 C680 1.334 . S
C680 H651 0.950 . S
C680 C679 1.334 . S
C680 C681 1.287 . S
C681 C680 1.287 . S
C681 C682 1.524 . S
C681 H684 0.999 . S
C682 H652 0.950 . S
C682 C681 1.524 . S
C682 C683 1.415 . S
C683 H653 0.950 . S
C683 C678 1.363 . S
C683 C682 1.415 . S
H684 C681 0.999 . S
H685 C666 0.913 . S
H686 C704 0.951 . S
H687 C706 0.951 . S
H688 C708 0.950 . S
H689 C709 0.950 . S
H690 C711 0.950 . S
H691 C714 0.950 . S
H692 C715 0.950 . S
H693 C717 0.950 . S
H694 C718 0.950 . S
H695 C719 0.951 . S
H696 C721 0.951 . S
H697 C723 0.950 . S
H698 C724 0.950 . S
H699 C726 0.950 . S
H700 C729 0.950 . S
H701 C730 0.950 . S
H702 C732 0.950 . S
H703 C733 0.950 . S
C704 H686 0.951 . S
C704 C705 1.366 . S
C704 C706 1.388 . S
C705 C704 1.366 . S
C705 C709 1.385 . S
C706 H687 0.951 . S
C706 C704 1.388 . S
C706 C707 1.366 . S
C707 C706 1.366 . S
C707 C708 1.414 . S
C707 C710 1.499 . S
C708 H688 0.950 . S
C708 C707 1.414 . S
C708 C709 1.374 . S
C709 H689 0.950 . S
C709 C705 1.385 . S
C709 C708 1.374 . S
C710 C707 1.499 . S
C710 C711 1.373 . S
C710 C712 1.389 . S
C711 H690 0.950 . S
C711 C710 1.373 . S
C711 C727 1.377 . S
C712 C710 1.389 . S
C712 C713 1.524 . S
C712 C726 1.377 . S
C713 C712 1.524 . S
C713 C714 1.397 . S
C713 C718 1.363 . S
C714 H691 0.950 . S
C714 C713 1.397 . S
C714 C715 1.334 . S
C715 H692 0.950 . S
C715 C714 1.334 . S
C715 C716 1.287 . S
C716 C715 1.287 . S
C716 C717 1.524 . S
C716 H735 0.913 . S
C717 H693 0.950 . S
C717 C716 1.524 . S
C717 C718 1.415 . S
C718 H694 0.950 . S
C718 C713 1.363 . S
C718 C717 1.415 . S
C719 H695 0.951 . S
C719 C720 1.366 . S
C719 C721 1.388 . S
C720 C719 1.366 . S
C720 C724 1.385 . S
C721 H696 0.951 . S
C721 C719 1.388 . S
C721 C722 1.366 . S
C722 C721 1.366 . S
C722 C723 1.414 . S
C722 C725 1.499 . S
C723 H697 0.950 . S
C723 C722 1.414 . S
C723 C724 1.374 . S
C724 H698 0.950 . S
C724 C720 1.385 . S
C724 C723 1.374 . S
C725 C722 1.499 . S
C725 C726 1.373 . S
C725 C727 1.389 . S
C726 H699 0.950 . S
C726 C712 1.377 . S
C726 C725 1.373 . S
C727 C711 1.377 . S
C727 C725 1.389 . S
C727 C728 1.524 . S
C728 C727 1.524 . S
C728 C729 1.397 . S
C728 C733 1.363 . S
C729 H700 0.950 . S
C729 C728 1.397 . S
C729 C730 1.334 . S
C730 H701 0.950 . S
C730 C729 1.334 . S
C730 C731 1.287 . S
C731 C730 1.287 . S
C731 C732 1.524 . S
C731 H734 0.999 . S
C732 H702 0.950 . S
C732 C731 1.524 . S
C732 C733 1.415 . S
C733 H703 0.950 . S
C733 C728 1.363 . S
C733 C732 1.415 . S
H734 C731 0.999 . S
H735 C716 0.913 . S
H736 C754 0.951 . S
H737 C756 0.951 . S
H738 C758 0.950 . S
H739 C759 0.950 . S
H740 C761 0.950 . S
H741 C764 0.950 . S
H742 C765 0.950 . S
H743 C767 0.950 . S
H744 C768 0.950 . S
H745 C769 0.951 . S
H746 C771 0.951 . S
H747 C773 0.950 . S
H748 C774 0.950 . S
H749 C776 0.950 . S
H750 C779 0.950 . S
H751 C780 0.950 . S
H752 C782 0.950 . S
H753 C783 0.950 . S
C754 H736 0.951 . S
C754 C755 1.366 . S
C754 C756 1.388 . S
C755 C754 1.366 . S
C755 C759 1.385 . S
C756 H737 0.951 . S
C756 C754 1.388 . S
C756 C757 1.366 . S
C757 C756 1.366 . S
C757 C758 1.414 . S
C757 C760 1.499 . S
C758 H738 0.950 . S
C758 C757 1.414 . S
C758 C759 1.374 . S
C759 H739 0.950 . S
C759 C755 1.385 . S
C759 C758 1.374 . S
C760 C757 1.499 . S
C760 C761 1.373 . S
C760 C762 1.389 . S
C761 H740 0.950 . S
C761 C760 1.373 . S
C761 C777 1.377 . S
C762 C760 1.389 . S
C762 C763 1.524 . S
C762 C776 1.377 . S
C763 C762 1.524 . S
C763 C764 1.397 . S
C763 C768 1.363 . S
C764 H741 0.950 . S
C764 C763 1.397 . S
C764 C765 1.334 . S
C765 H742 0.950 . S
C765 C764 1.334 . S
C765 C766 1.287 . S
C766 C765 1.287 . S
C766 C767 1.524 . S
C766 H785 0.913 . S
C767 H743 0.950 . S
C767 C766 1.524 . S
C767 C768 1.415 . S
C768 H744 0.950 . S
C768 C763 1.363 . S
C768 C767 1.415 . S
C769 H745 0.951 . S
C769 C770 1.366 . S
C769 C771 1.388 . S
C770 C769 1.366 . S
C770 C774 1.385 . S
C771 H746 0.951 . S
C771 C769 1.388 . S
C771 C772 1.366 . S
C772 C771 1.366 . S
C772 C773 1.414 . S
C772 C775 1.499 . S
C773 H747 0.950 . S
C773 C772 1.414 . S
C773 C774 1.374 . S
C774 H748 0.950 . S
C774 C770 1.385 . S
C774 C773 1.374 . S
C775 C772 1.499 . S
C775 C776 1.373 . S
C775 C777 1.389 . S
C776 H749 0.950 . S
C776 C762 1.377 . S
C776 C775 1.373 . S
C777 C761 1.377 . S
C777 C775 1.389 . S
C777 C778 1.524 . S
C778 C777 1.524 . S
C778 C779 1.397 . S
C778 C783 1.363 . S
C779 H750 0.950 . S
C779 C778 1.397 . S
C779 C780 1.334 . S
C780 H751 0.950 . S
C780 C779 1.334 . S
C780 C781 1.287 . S
C781 C780 1.287 . S
C781 C782 1.524 . S
C781 H784 0.999 . S
C782 H752 0.950 . S
C782 C781 1.524 . S
C782 C783 1.415 . S
C783 H753 0.950 . S
C783 C778 1.363 . S
C783 C782 1.415 . S
H784 C781 0.999 . S
H785 C766 0.913 . S
H786 C804 0.951 . S
H787 C806 0.951 . S
H788 C808 0.950 . S
H789 C809 0.950 . S
H790 C811 0.950 . S
H791 C814 0.950 . S
H792 C815 0.950 . S
H793 C817 0.950 . S
H794 C818 0.950 . S
H795 C819 0.951 . S
H796 C821 0.951 . S
H797 C823 0.950 . S
H798 C824 0.950 . S
H799 C826 0.950 . S
H800 C829 0.950 . S
H801 C830 0.950 . S
H802 C832 0.950 . S
H803 C833 0.950 . S
C804 H786 0.951 . S
C804 C805 1.366 . S
C804 C806 1.388 . S
C805 C804 1.366 . S
C805 C809 1.385 . S
C806 H787 0.951 . S
C806 C804 1.388 . S
C806 C807 1.366 . S
C807 C806 1.366 . S
C807 C808 1.414 . S
C807 C810 1.499 . S
C808 H788 0.950 . S
C808 C807 1.414 . S
C808 C809 1.374 . S
C809 H789 0.950 . S
C809 C805 1.385 . S
C809 C808 1.374 . S
C810 C807 1.499 . S
C810 C811 1.373 . S
C810 C812 1.389 . S
C811 H790 0.950 . S
C811 C810 1.373 . S
C811 C827 1.377 . S
C812 C810 1.389 . S
C812 C813 1.524 . S
C812 C826 1.377 . S
C813 C812 1.524 . S
C813 C814 1.397 . S
C813 C818 1.363 . S
C814 H791 0.950 . S
C814 C813 1.397 . S
C814 C815 1.334 . S
C815 H792 0.950 . S
C815 C814 1.334 . S
C815 C816 1.287 . S
C816 C815 1.287 . S
C816 C817 1.524 . S
C816 H835 0.913 . S
C817 H793 0.950 . S
C817 C816 1.524 . S
C817 C818 1.415 . S
C818 H794 0.950 . S
C818 C813 1.363 . S
C818 C817 1.415 . S
C819 H795 0.951 . S
C819 C820 1.366 . S
C819 C821 1.388 . S
C820 C819 1.366 . S
C820 C824 1.385 . S
C821 H796 0.951 . S
C821 C819 1.388 . S
C821 C822 1.366 . S
C822 C821 1.366 . S
C822 C823 1.414 . S
C822 C825 1.499 . S
C823 H797 0.950 . S
C823 C822 1.414 . S
C823 C824 1.374 . S
C824 H798 0.950 . S
C824 C820 1.385 . S
C824 C823 1.374 . S
C825 C822 1.499 . S
C825 C826 1.373 . S
C825 C827 1.389 . S
C826 H799 0.950 . S
C826 C812 1.377 . S
C826 C825 1.373 . S
C827 C811 1.377 . S
C827 C825 1.389 . S
C827 C828 1.524 . S
C828 C827 1.524 . S
C828 C829 1.397 . S
C828 C833 1.363 . S
C829 H800 0.950 . S
C829 C828 1.397 . S
C829 C830 1.334 . S
C830 H801 0.950 . S
C830 C829 1.334 . S
C830 C831 1.287 . S
C831 C830 1.287 . S
C831 C832 1.524 . S
C831 H834 0.999 . S
C832 H802 0.950 . S
C832 C831 1.524 . S
C832 C833 1.415 . S
C833 H803 0.950 . S
C833 C828 1.363 . S
C833 C832 1.415 . S
H834 C831 0.999 . S
H835 C816 0.913 . S
H836 C854 0.951 . S
H837 C856 0.951 . S
H838 C858 0.950 . S
H839 C859 0.950 . S
H840 C861 0.950 . S
H841 C864 0.950 . S
H842 C865 0.950 . S
H843 C867 0.950 . S
H844 C868 0.950 . S
H845 C869 0.951 . S
H846 C871 0.951 . S
H847 C873 0.950 . S
H848 C874 0.950 . S
H849 C876 0.950 . S
H850 C879 0.950 . S
H851 C880 0.950 . S
H852 C882 0.950 . S
H853 C883 0.950 . S
C854 H836 0.951 . S
C854 C855 1.366 . S
C854 C856 1.388 . S
C855 C854 1.366 . S
C855 C859 1.385 . S
C856 H837 0.951 . S
C856 C854 1.388 . S
C856 C857 1.366 . S
C857 C856 1.366 . S
C857 C858 1.414 . S
C857 C860 1.499 . S
C858 H838 0.950 . S
C858 C857 1.414 . S
C858 C859 1.374 . S
C859 H839 0.950 . S
C859 C855 1.385 . S
C859 C858 1.374 . S
C860 C857 1.499 . S
C860 C861 1.373 . S
C860 C862 1.389 . S
C861 H840 0.950 . S
C861 C860 1.373 . S
C861 C877 1.377 . S
C862 C860 1.389 . S
C862 C863 1.524 . S
C862 C876 1.377 . S
C863 C862 1.524 . S
C863 C864 1.397 . S
C863 C868 1.363 . S
C864 H841 0.950 . S
C864 C863 1.397 . S
C864 C865 1.334 . S
C865 H842 0.950 . S
C865 C864 1.334 . S
C865 C866 1.287 . S
C866 C865 1.287 . S
C866 C867 1.524 . S
C866 H885 0.913 . S
C867 H843 0.950 . S
C867 C866 1.524 . S
C867 C868 1.415 . S
C868 H844 0.950 . S
C868 C863 1.363 . S
C868 C867 1.415 . S
C869 H845 0.951 . S
C869 C870 1.366 . S
C869 C871 1.388 . S
C870 C869 1.366 . S
C870 C874 1.385 . S
C871 H846 0.951 . S
C871 C869 1.388 . S
C871 C872 1.366 . S
C872 C871 1.366 . S
C872 C873 1.414 . S
C872 C875 1.499 . S
C873 H847 0.950 . S
C873 C872 1.414 . S
C873 C874 1.374 . S
C874 H848 0.950 . S
C874 C870 1.385 . S
C874 C873 1.374 . S
C875 C872 1.499 . S
C875 C876 1.373 . S
C875 C877 1.389 . S
C876 H849 0.950 . S
C876 C862 1.377 . S
C876 C875 1.373 . S
C877 C861 1.377 . S
C877 C875 1.389 . S
C877 C878 1.524 . S
C878 C877 1.524 . S
C878 C879 1.397 . S
C878 C883 1.363 . S
C879 H850 0.950 . S
C879 C878 1.397 . S
C879 C880 1.334 . S
C880 H851 0.950 . S
C880 C879 1.334 . S
C880 C881 1.287 . S
C881 C880 1.287 . S
C881 C882 1.524 . S
C881 H884 0.999 . S
C882 H852 0.950 . S
C882 C881 1.524 . S
C882 C883 1.415 . S
C883 H853 0.950 . S
C883 C878 1.363 . S
C883 C882 1.415 . S
H884 C881 0.999 . S
H885 C866 0.913 . S
H886 C904 0.951 . S
H887 C906 0.951 . S
H888 C908 0.950 . S
H889 C909 0.950 . S
H890 C911 0.950 . S
H891 C914 0.950 . S
H892 C915 0.950 . S
H893 C917 0.950 . S
H894 C918 0.950 . S
H895 C919 0.951 . S
H896 C921 0.951 . S
H897 C923 0.950 . S
H898 C924 0.950 . S
H899 C926 0.950 . S
H900 C929 0.950 . S
H901 C930 0.950 . S
H902 C932 0.950 . S
H903 C933 0.950 . S
C904 H886 0.951 . S
C904 C905 1.366 . S
C904 C906 1.388 . S
C905 C904 1.366 . S
C905 C909 1.385 . S
C906 H887 0.951 . S
C906 C904 1.388 . S
C906 C907 1.366 . S
C907 C906 1.366 . S
C907 C908 1.414 . S
C907 C910 1.499 . S
C908 H888 0.950 . S
C908 C907 1.414 . S
C908 C909 1.374 . S
C909 H889 0.950 . S
C909 C905 1.385 . S
C909 C908 1.374 . S
C910 C907 1.499 . S
C910 C911 1.373 . S
C910 C912 1.389 . S
C911 H890 0.950 . S
C911 C910 1.373 . S
C911 C927 1.377 . S
C912 C910 1.389 . S
C912 C913 1.524 . S
C912 C926 1.377 . S
C913 C912 1.524 . S
C913 C914 1.397 . S
C913 C918 1.363 . S
C914 H891 0.950 . S
C914 C913 1.397 . S
C914 C915 1.334 . S
C915 H892 0.950 . S
C915 C914 1.334 . S
C915 C916 1.287 . S
C916 C915 1.287 . S
C916 C917 1.524 . S
C916 H935 0.913 . S
C917 H893 0.950 . S
C917 C916 1.524 . S
C917 C918 1.415 . S
C918 H894 0.950 . S
C918 C913 1.363 . S
C918 C917 1.415 . S
C919 H895 0.951 . S
C919 C920 1.366 . S
C919 C921 1.388 . S
C920 C919 1.366 . S
C920 C924 1.385 . S
C921 H896 0.951 . S
C921 C919 1.388 . S
C921 C922 1.366 . S
C922 C921 1.366 . S
C922 C923 1.414 . S
C922 C925 1.499 . S
C923 H897 0.950 . S
C923 C922 1.414 . S
C923 C924 1.374 . S
C924 H898 0.950 . S
C924 C920 1.385 . S
C924 C923 1.374 . S
C925 C922 1.499 . S
C925 C926 1.373 . S
C925 C927 1.389 . S
C926 H899 0.950 . S
C926 C912 1.377 . S
C926 C925 1.373 . S
C927 C911 1.377 . S
C927 C925 1.389 . S
C927 C928 1.524 . S
C928 C927 1.524 . S
C928 C929 1.397 . S
C928 C933 1.363 . S
C929 H900 0.950 . S
C929 C928 1.397 . S
C929 C930 1.334 . S
C930 H901 0.950 . S
C930 C929 1.334 . S
C930 C931 1.287 . S
C931 C930 1.287 . S
C931 C932 1.524 . S
C931 H934 0.999 . S
C932 H902 0.950 . S
C932 C931 1.524 . S
C932 C933 1.415 . S
C933 H903 0.950 . S
C933 C928 1.363 . S
C933 C932 1.415 . S
H934 C931 0.999 . S
H935 C916 0.913 . S
H936 C954 0.951 . S
H937 C956 0.951 . S
H938 C958 0.950 . S
H939 C959 0.950 . S
H940 C961 0.950 . S
H941 C964 0.950 . S
H942 C965 0.950 . S
H943 C967 0.950 . S
H944 C968 0.950 . S
H945 C969 0.951 . S
H946 C971 0.951 . S
H947 C973 0.950 . S
H948 C974 0.950 . S
H949 C976 0.950 . S
H950 C979 0.950 . S
H951 C980 0.950 . S
H952 C982 0.950 . S
H953 C983 0.950 . S
C954 H936 0.951 . S
C954 C955 1.366 . S
C954 C956 1.388 . S
C955 C954 1.366 . S
C955 C959 1.385 . S
C956 H937 0.951 . S
C956 C954 1.388 . S
C956 C957 1.366 . S
C957 C956 1.366 . S
C957 C958 1.414 . S
C957 C960 1.499 . S
C958 H938 0.950 . S
C958 C957 1.414 . S
C958 C959 1.374 . S
C959 H939 0.950 . S
C959 C955 1.385 . S
C959 C958 1.374 . S
C960 C957 1.499 . S
C960 C961 1.373 . S
C960 C962 1.389 . S
C961 H940 0.950 . S
C961 C960 1.373 . S
C961 C977 1.377 . S
C962 C960 1.389 . S
C962 C963 1.524 . S
C962 C976 1.377 . S
C963 C962 1.524 . S
C963 C964 1.397 . S
C963 C968 1.363 . S
C964 H941 0.950 . S
C964 C963 1.397 . S
C964 C965 1.334 . S
C965 H942 0.950 . S
C965 C964 1.334 . S
C965 C966 1.287 . S
C966 C965 1.287 . S
C966 C967 1.524 . S
C966 H985 0.913 . S
C967 H943 0.950 . S
C967 C966 1.524 . S
C967 C968 1.415 . S
C968 H944 0.950 . S
C968 C963 1.363 . S
C968 C967 1.415 . S
C969 H945 0.951 . S
C969 C970 1.366 . S
C969 C971 1.388 . S
C970 C969 1.366 . S
C970 C974 1.385 . S
C971 H946 0.951 . S
C971 C969 1.388 . S
C971 C972 1.366 . S
C972 C971 1.366 . S
C972 C973 1.414 . S
C972 C975 1.499 . S
C973 H947 0.950 . S
C973 C972 1.414 . S
C973 C974 1.374 . S
C974 H948 0.950 . S
C974 C970 1.385 . S
C974 C973 1.374 . S
C975 C972 1.499 . S
C975 C976 1.373 . S
C975 C977 1.389 . S
C976 H949 0.950 . S
C976 C962 1.377 . S
C976 C975 1.373 . S
C977 C961 1.377 . S
C977 C975 1.389 . S
C977 C978 1.524 . S
C978 C977 1.524 . S
C978 C979 1.397 . S
C978 C983 1.363 . S
C979 H950 0.950 . S
C979 C978 1.397 . S
C979 C980 1.334 . S
C980 H951 0.950 . S
C980 C979 1.334 . S
C980 C981 1.287 . S
C981 C980 1.287 . S
C981 C982 1.524 . S
C981 H984 0.999 . S
C982 H952 0.950 . S
C982 C981 1.524 . S
C982 C983 1.415 . S
C983 H953 0.950 . S
C983 C978 1.363 . S
C983 C982 1.415 . S
H984 C981 0.999 . S
H985 C966 0.913 . S
H986 C1004 0.951 . S
H987 C1006 0.951 . S
H988 C1008 0.950 . S
H989 C1009 0.950 . S
H990 C1011 0.950 . S
H991 C1014 0.950 . S
H992 C1015 0.950 . S
H993 C1017 0.950 . S
H994 C1018 0.950 . S
H995 C1019 0.951 . S
H996 C1021 0.951 . S
H997 C1023 0.950 . S
H998 C1024 0.950 . S
H999 C1026 0.950 . S
H1000 C1029 0.950 . S
H1001 C1030 0.950 . S
H1002 C1032 0.950 . S
H1003 C1033 0.950 . S
C1004 H986 0.951 . S
C1004 C1005 1.366 . S
C1004 C1006 1.388 . S
C1005 C1004 1.366 . S
C1005 C1009 1.385 . S
C1006 H987 0.951 . S
C1006 C1004 1.388 . S
C1006 C1007 1.366 . S
C1007 C1006 1.366 . S
C1007 C1008 1.414 . S
C1007 C1010 1.499 . S
C1008 H988 0.950 . S
C1008 C1007 1.414 . S
C1008 C1009 1.374 . S
C1009 H989 0.950 . S
C1009 C1005 1.385 . S
C1009 C1008 1.374 . S
C1010 C1007 1.499 . S
C1010 C1011 1.373 . S
C1010 C1012 1.389 . S
C1011 H990 0.950 . S
C1011 C1010 1.373 . S
C1011 C1027 1.377 . S
C1012 C1010 1.389 . S
C1012 C1013 1.524 . S
C1012 C1026 1.377 . S
C1013 C1012 1.524 . S
C1013 C1014 1.397 . S
C1013 C1018 1.363 . S
C1014 H991 0.950 . S
C1014 C1013 1.397 . S
C1014 C1015 1.334 . S
C1015 H992 0.950 . S
C1015 C1014 1.334 . S
C1015 C1016 1.287 . S
C1016 C1015 1.287 . S
C1016 C1017 1.524 . S
C1016 H1035 0.913 . S
C1017 H993 0.950 . S
C1017 C1016 1.524 . S
C1017 C1018 1.415 . S
C1018 H994 0.950 . S
C1018 C1013 1.363 . S
C1018 C1017 1.415 . S
C1019 H995 0.951 . S
C1019 C1020 1.366 . S
C1019 C1021 1.388 . S
C1020 C1019 1.366 . S
C1020 C1024 1.385 . S
C1021 H996 0.951 . S
C1021 C1019 1.388 . S
C1021 C1022 1.366 . S
C1022 C1021 1.366 . S
C1022 C1023 1.414 . S
C1022 C1025 1.499 . S
C1023 H997 0.950 . S
C1023 C1022 1.414 . S
C1023 C1024 1.374 . S
C1024 H998 0.950 . S
C1024 C1020 1.385 . S
C1024 C1023 1.374 . S
C1025 C1022 1.499 . S
C1025 C1026 1.373 . S
C1025 C1027 1.389 . S
C1026 H999 0.950 . S
C1026 C1012 1.377 . S
C1026 C1025 1.373 . S
C1027 C1011 1.377 . S
C1027 C1025 1.389 . S
C1027 C1028 1.524 . S
C1028 C1027 1.524 . S
C1028 C1029 1.397 . S
C1028 C1033 1.363 . S
C1029 H1000 0.950 . S
C1029 C1028 1.397 . S
C1029 C1030 1.334 . S
C1030 H1001 0.950 . S
C1030 C1029 1.334 . S
C1030 C1031 1.287 . S
C1031 C1030 1.287 . S
C1031 C1032 1.524 . S
C1031 H1034 0.999 . S
C1032 H1002 0.950 . S
C1032 C1031 1.524 . S
C1032 C1033 1.415 . S
C1033 H1003 0.950 . S
C1033 C1028 1.363 . S
C1033 C1032 1.415 . S
H1034 C1031 0.999 . S
H1035 C1016 0.913 . S
H1036 C1054 0.951 . S
H1037 C1056 0.951 . S
H1038 C1058 0.950 . S
H1039 C1059 0.950 . S
H1040 C1061 0.950 . S
H1041 C1064 0.950 . S
H1042 C1065 0.950 . S
H1043 C1067 0.950 . S
H1044 C1068 0.950 . S
H1045 C1069 0.951 . S
H1046 C1071 0.951 . S
H1047 C1073 0.950 . S
H1048 C1074 0.950 . S
H1049 C1076 0.950 . S
H1050 C1079 0.950 . S
H1051 C1080 0.950 . S
H1052 C1082 0.950 . S
H1053 C1083 0.950 . S
C1054 H1036 0.951 . S
C1054 C1055 1.366 . S
C1054 C1056 1.388 . S
C1055 C1054 1.366 . S
C1055 C1059 1.385 . S
C1056 H1037 0.951 . S
C1056 C1054 1.388 . S
C1056 C1057 1.366 . S
C1057 C1056 1.366 . S
C1057 C1058 1.414 . S
C1057 C1060 1.499 . S
C1058 H1038 0.950 . S
C1058 C1057 1.414 . S
C1058 C1059 1.374 . S
C1059 H1039 0.950 . S
C1059 C1055 1.385 . S
C1059 C1058 1.374 . S
C1060 C1057 1.499 . S
C1060 C1061 1.373 . S
C1060 C1062 1.389 . S
C1061 H1040 0.950 . S
C1061 C1060 1.373 . S
C1061 C1077 1.377 . S
C1062 C1060 1.389 . S
C1062 C1063 1.524 . S
C1062 C1076 1.377 . S
C1063 C1062 1.524 . S
C1063 C1064 1.397 . S
C1063 C1068 1.363 . S
C1064 H1041 0.950 . S
C1064 C1063 1.397 . S
C1064 C1065 1.334 . S
C1065 H1042 0.950 . S
C1065 C1064 1.334 . S
C1065 C1066 1.287 . S
C1066 C1065 1.287 . S
C1066 C1067 1.524 . S
C1066 H1085 0.913 . S
C1067 H1043 0.950 . S
C1067 C1066 1.524 . S
C1067 C1068 1.415 . S
C1068 H1044 0.950 . S
C1068 C1063 1.363 . S
C1068 C1067 1.415 . S
C1069 H1045 0.951 . S
C1069 C1070 1.366 . S
C1069 C1071 1.388 . S
C1070 C1069 1.366 . S
C1070 C1074 1.385 . S
C1071 H1046 0.951 . S
C1071 C1069 1.388 . S
C1071 C1072 1.366 . S
C1072 C1071 1.366 . S
C1072 C1073 1.414 . S
C1072 C1075 1.499 . S
C1073 H1047 0.950 . S
C1073 C1072 1.414 . S
C1073 C1074 1.374 . S
C1074 H1048 0.950 . S
C1074 C1070 1.385 . S
C1074 C1073 1.374 . S
C1075 C1072 1.499 . S
C1075 C1076 1.373 . S
C1075 C1077 1.389 . S
C1076 H1049 0.950 . S
C1076 C1062 1.377 . S
C1076 C1075 1.373 . S
C1077 C1061 1.377 . S
C1077 C1075 1.389 . S
C1077 C1078 1.524 . S
C1078 C1077 1.524 . S
C1078 C1079 1.397 . S
C1078 C1083 1.363 . S
C1079 H1050 0.950 . S
C1079 C1078 1.397 . S
C1079 C1080 1.334 . S
C1080 H1051 0.950 . S
C1080 C1079 1.334 . S
C1080 C1081 1.287 . S
C1081 C1080 1.287 . S
C1081 C1082 1.524 . S
C1081 H1084 0.999 . S
C1082 H1052 0.950 . S
C1082 C1081 1.524 . S
C1082 C1083 1.415 . S
C1083 H1053 0.950 . S
C1083 C1078 1.363 . S
C1083 C1082 1.415 . S
H1084 C1081 0.999 . S
H1085 C1066 0.913 . S
H1086 C1104 0.951 . S
H1087 C1106 0.951 . S
H1088 C1108 0.950 . S
H1089 C1109 0.950 . S
H1090 C1111 0.950 . S
H1091 C1114 0.950 . S
H1092 C1115 0.950 . S
H1093 C1117 0.950 . S
H1094 C1118 0.950 . S
H1095 C1119 0.951 . S
H1096 C1121 0.951 . S
H1097 C1123 0.950 . S
H1098 C1124 0.950 . S
H1099 C1126 0.950 . S
H1100 C1129 0.950 . S
H1101 C1130 0.950 . S
H1102 C1132 0.950 . S
H1103 C1133 0.950 . S
C1104 H1086 0.951 . S
C1104 C1105 1.366 . S
C1104 C1106 1.388 . S
C1105 C1104 1.366 . S
C1105 C1109 1.385 . S
C1106 H1087 0.951 . S
C1106 C1104 1.388 . S
C1106 C1107 1.366 . S
C1107 C1106 1.366 . S
C1107 C1108 1.414 . S
C1107 C1110 1.499 . S
C1108 H1088 0.950 . S
C1108 C1107 1.414 . S
C1108 C1109 1.374 . S
C1109 H1089 0.950 . S
C1109 C1105 1.385 . S
C1109 C1108 1.374 . S
C1110 C1107 1.499 . S
C1110 C1111 1.373 . S
C1110 C1112 1.389 . S
C1111 H1090 0.950 . S
C1111 C1110 1.373 . S
C1111 C1127 1.377 . S
C1112 C1110 1.389 . S
C1112 C1113 1.524 . S
C1112 C1126 1.377 . S
C1113 C1112 1.524 . S
C1113 C1114 1.397 . S
C1113 C1118 1.363 . S
C1114 H1091 0.950 . S
C1114 C1113 1.397 . S
C1114 C1115 1.334 . S
C1115 H1092 0.950 . S
C1115 C1114 1.334 . S
C1115 C1116 1.287 . S
C1116 C1115 1.287 . S
C1116 C1117 1.524 . S
C1116 H1135 0.913 . S
C1117 H1093 0.950 . S
C1117 C1116 1.524 . S
C1117 C1118 1.415 . S
C1118 H1094 0.950 . S
C1118 C1113 1.363 . S
C1118 C1117 1.415 . S
C1119 H1095 0.951 . S
C1119 C1120 1.366 . S
C1119 C1121 1.388 . S
C1120 C1119 1.366 . S
C1120 C1124 1.385 . S
C1121 H1096 0.951 . S
C1121 C1119 1.388 . S
C1121 C1122 1.366 . S
C1122 C1121 1.366 . S
C1122 C1123 1.414 . S
C1122 C1125 1.499 . S
C1123 H1097 0.950 . S
C1123 C1122 1.414 . S
C1123 C1124 1.374 . S
C1124 H1098 0.950 . S
C1124 C1120 1.385 . S
C1124 C1123 1.374 . S
C1125 C1122 1.499 . S
C1125 C1126 1.373 . S
C1125 C1127 1.389 . S
C1126 H1099 0.950 . S
C1126 C1112 1.377 . S
C1126 C1125 1.373 . S
C1127 C1111 1.377 . S
C1127 C1125 1.389 . S
C1127 C1128 1.524 . S
C1128 C1127 1.524 . S
C1128 C1129 1.397 . S
C1128 C1133 1.363 . S
C1129 H1100 0.950 . S
C1129 C1128 1.397 . S
C1129 C1130 1.334 . S
C1130 H1101 0.950 . S
C1130 C1129 1.334 . S
C1130 C1131 1.287 . S
C1131 C1130 1.287 . S
C1131 C1132 1.524 . S
C1131 H1134 0.999 . S
C1132 H1102 0.950 . S
C1132 C1131 1.524 . S
C1132 C1133 1.415 . S
C1133 H1103 0.950 . S
C1133 C1128 1.363 . S
C1133 C1132 1.415 . S
H1134 C1131 0.999 . S
H1135 C1116 0.913 . S
H1136 C1154 0.951 . S
H1137 C1156 0.951 . S
H1138 C1158 0.950 . S
H1139 C1159 0.950 . S
H1140 C1161 0.950 . S
H1141 C1164 0.950 . S
H1142 C1165 0.950 . S
H1143 C1167 0.950 . S
H1144 C1168 0.950 . S
H1145 C1169 0.951 . S
H1146 C1171 0.951 . S
H1147 C1173 0.950 . S
H1148 C1174 0.950 . S
H1149 C1176 0.950 . S
H1150 C1179 0.950 . S
H1151 C1180 0.950 . S
H1152 C1182 0.950 . S
H1153 C1183 0.950 . S
C1154 H1136 0.951 . S
C1154 C1155 1.366 . S
C1154 C1156 1.388 . S
C1155 C1154 1.366 . S
C1155 C1159 1.385 . S
C1156 H1137 0.951 . S
C1156 C1154 1.388 . S
C1156 C1157 1.366 . S
C1157 C1156 1.366 . S
C1157 C1158 1.414 . S
C1157 C1160 1.499 . S
C1158 H1138 0.950 . S
C1158 C1157 1.414 . S
C1158 C1159 1.374 . S
C1159 H1139 0.950 . S
C1159 C1155 1.385 . S
C1159 C1158 1.374 . S
C1160 C1157 1.499 . S
C1160 C1161 1.373 . S
C1160 C1162 1.389 . S
C1161 H1140 0.950 . S
C1161 C1160 1.373 . S
C1161 C1177 1.377 . S
C1162 C1160 1.389 . S
C1162 C1163 1.524 . S
C1162 C1176 1.377 . S
C1163 C1162 1.524 . S
C1163 C1164 1.397 . S
C1163 C1168 1.363 . S
C1164 H1141 0.950 . S
C1164 C1163 1.397 . S
C1164 C1165 1.334 . S
C1165 H1142 0.950 . S
C1165 C1164 1.334 . S
C1165 C1166 1.287 . S
C1166 C1165 1.287 . S
C1166 C1167 1.524 . S
C1166 H1185 0.913 . S
C1167 H1143 0.950 . S
C1167 C1166 1.524 . S
C1167 C1168 1.415 . S
C1168 H1144 0.950 . S
C1168 C1163 1.363 . S
C1168 C1167 1.415 . S
C1169 H1145 0.951 . S
C1169 C1170 1.366 . S
C1169 C1171 1.388 . S
C1170 C1169 1.366 . S
C1170 C1174 1.385 . S
C1171 H1146 0.951 . S
C1171 C1169 1.388 . S
C1171 C1172 1.366 . S
C1172 C1171 1.366 . S
C1172 C1173 1.414 . S
C1172 C1175 1.499 . S
C1173 H1147 0.950 . S
C1173 C1172 1.414 . S
C1173 C1174 1.374 . S
C1174 H1148 0.950 . S
C1174 C1170 1.385 . S
C1174 C1173 1.374 . S
C1175 C1172 1.499 . S
C1175 C1176 1.373 . S
C1175 C1177 1.389 . S
C1176 H1149 0.950 . S
C1176 C1162 1.377 . S
C1176 C1175 1.373 . S
C1177 C1161 1.377 . S
C1177 C1175 1.389 . S
C1177 C1178 1.524 . S
C1178 C1177 1.524 . S
C1178 C1179 1.397 . S
C1178 C1183 1.363 . S
C1179 H1150 0.950 . S
C1179 C1178 1.397 . S
C1179 C1180 1.334 . S
C1180 H1151 0.950 . S
C1180 C1179 1.334 . S
C1180 C1181 1.287 . S
C1181 C1180 1.287 . S
C1181 C1182 1.524 . S
C1181 H1184 0.999 . S
C1182 H1152 0.950 . S
C1182 C1181 1.524 . S
C1182 C1183 1.415 . S
C1183 H1153 0.950 . S
C1183 C1178 1.363 . S
C1183 C1182 1.415 . S
H1184 C1181 0.999 . S
H1185 C1166 0.913 . S
H1186 C1204 0.951 . S
H1187 C1206 0.951 . S
H1188 C1208 0.950 . S
H1189 C1209 0.950 . S
H1190 C1211 0.950 . S
H1191 C1214 0.950 . S
H1192 C1215 0.950 . S
H1193 C1217 0.950 . S
H1194 C1218 0.950 . S
H1195 C1219 0.951 . S
H1196 C1221 0.951 . S
H1197 C1223 0.950 . S
H1198 C1224 0.950 . S
H1199 C1226 0.950 . S
H1200 C1229 0.950 . S
H1201 C1230 0.950 . S
H1202 C1232 0.950 . S
H1203 C1233 0.950 . S
C1204 H1186 0.951 . S
C1204 C1205 1.366 . S
C1204 C1206 1.388 . S
C1205 C1204 1.366 . S
C1205 C1209 1.385 . S
C1206 H1187 0.951 . S
C1206 C1204 1.388 . S
C1206 C1207 1.366 . S
C1207 C1206 1.366 . S
C1207 C1208 1.414 . S
C1207 C1210 1.499 . S
C1208 H1188 0.950 . S
C1208 C1207 1.414 . S
C1208 C1209 1.374 . S
C1209 H1189 0.950 . S
C1209 C1205 1.385 . S
C1209 C1208 1.374 . S
C1210 C1207 1.499 . S
C1210 C1211 1.373 . S
C1210 C1212 1.389 . S
C1211 H1190 0.950 . S
C1211 C1210 1.373 . S
C1211 C1227 1.377 . S
C1212 C1210 1.389 . S
C1212 C1213 1.524 . S
C1212 C1226 1.377 . S
C1213 C1212 1.524 . S
C1213 C1214 1.397 . S
C1213 C1218 1.363 . S
C1214 H1191 0.950 . S
C1214 C1213 1.397 . S
C1214 C1215 1.334 . S
C1215 H1192 0.950 . S
C1215 C1214 1.334 . S
C1215 C1216 1.287 . S
C1216 C1215 1.287 . S
C1216 C1217 1.524 . S
C1216 H1235 0.913 . S
C1217 H1193 0.950 . S
C1217 C1216 1.524 . S
C1217 C1218 1.415 . S
C1218 H1194 0.950 . S
C1218 C1213 1.363 . S
C1218 C1217 1.415 . S
C1219 H1195 0.951 . S
C1219 C1220 1.366 . S
C1219 C1221 1.388 . S
C1220 C1219 1.366 . S
C1220 C1224 1.385 . S
C1221 H1196 0.951 . S
C1221 C1219 1.388 . S
C1221 C1222 1.366 . S
C1222 C1221 1.366 . S
C1222 C1223 1.414 . S
C1222 C1225 1.499 . S
C1223 H1197 0.950 . S
C1223 C1222 1.414 . S
C1223 C1224 1.374 . S
C1224 H1198 0.950 . S
C1224 C1220 1.385 . S
C1224 C1223 1.374 . S
C1225 C1222 1.499 . S
C1225 C1226 1.373 . S
C1225 C1227 1.389 . S
C1226 H1199 0.950 . S
C1226 C1212 1.377 . S
C1226 C1225 1.373 . S
C1227 C1211 1.377 . S
C1227 C1225 1.389 . S
C1227 C1228 1.524 . S
C1228 C1227 1.524 . S
C1228 C1229 1.397 . S
C1228 C1233 1.363 . S
C1229 H1200 0.950 . S
C1229 C1228 1.397 . S
C1229 C1230 1.334 . S
C1230 H1201 0.950 . S
C1230 C1229 1.334 . S
C1230 C1231 1.287 . S
C1231 C1230 1.287 . S
C1231 C1232 1.524 . S
C1231 H1234 0.999 . S
C1232 H1202 0.950 . S
C1232 C1231 1.524 . S
C1232 C1233 1.415 . S
C1233 H1203 0.950 . S
C1233 C1228 1.363 . S
C1233 C1232 1.415 . S
H1234 C1231 0.999 . S
H1235 C1216 0.913 . S
H1236 C1254 0.951 . S
H1237 C1256 0.951 . S
H1238 C1258 0.950 . S
H1239 C1259 0.950 . S
H1240 C1261 0.950 . S
H1241 C1264 0.950 . S
H1242 C1265 0.950 . S
H1243 C1267 0.950 . S
H1244 C1268 0.950 . S
H1245 C1269 0.951 . S
H1246 C1271 0.951 . S
H1247 C1273 0.950 . S
H1248 C1274 0.950 . S
H1249 C1276 0.950 . S
H1250 C1279 0.950 . S
H1251 C1280 0.950 . S
H1252 C1282 0.950 . S
H1253 C1283 0.950 . S
C1254 H1236 0.951 . S
C1254 C1255 1.366 . S
C1254 C1256 1.388 . S
C1255 C1254 1.366 . S
C1255 C1259 1.385 . S
C1256 H1237 0.951 . S
C1256 C1254 1.388 . S
C1256 C1257 1.366 . S
C1257 C1256 1.366 . S
C1257 C1258 1.414 . S
C1257 C1260 1.499 . S
C1258 H1238 0.950 . S
C1258 C1257 1.414 . S
C1258 C1259 1.374 . S
C1259 H1239 0.950 . S
C1259 C1255 1.385 . S
C1259 C1258 1.374 . S
C1260 C1257 1.499 . S
C1260 C1261 1.373 . S
C1260 C1262 1.389 . S
C1261 H1240 0.950 . S
C1261 C1260 1.373 . S
C1261 C1277 1.377 . S
C1262 C1260 1.389 . S
C1262 C1263 1.524 . S
C1262 C1276 1.377 . S
C1263 C1262 1.524 . S
C1263 C1264 1.397 . S
C1263 C1268 1.363 . S
C1264 H1241 0.950 . S
C1264 C1263 1.397 . S
C1264 C1265 1.334 . S
C1265 H1242 0.950 . S
C1265 C1264 1.334 . S
C1265 C1266 1.287 . S
C1266 C1265 1.287 . S
C1266 C1267 1.524 . S
C1266 H1285 0.913 . S
C1267 H1243 0.950 . S
C1267 C1266 1.524 . S
C1267 C1268 1.415 . S
C1268 H1244 0.950 . S
C1268 C1263 1.363 . S
C1268 C1267 1.415 . S
C1269 H1245 0.951 . S
C1269 C1270 1.366 . S
C1269 C1271 1.388 . S
C1270 C1269 1.366 . S
C1270 C1274 1.385 . S
C1271 H1246 0.951 . S
C1271 C1269 1.388 . S
C1271 C1272 1.366 . S
C1272 C1271 1.366 . S
C1272 C1273 1.414 . S
C1272 C1275 1.499 . S
C1273 H1247 0.950 . S
C1273 C1272 1.414 . S
C1273 C1274 1.374 . S
C1274 H1248 0.950 . S
C1274 C1270 1.385 . S
C1274 C1273 1.374 . S
C1275 C1272 1.499 . S
C1275 C1276 1.373 . S
C1275 C1277 1.389 . S
C1276 H1249 0.950 . S
C1276 C1262 1.377 . S
C1276 C1275 1.373 . S
C1277 C1261 1.377 . S
C1277 C1275 1.389 . S
C1277 C1278 1.524 . S
C1278 C1277 1.524 . S
C1278 C1279 1.397 . S
C1278 C1283 1.363 . S
C1279 H1250 0.950 . S
C1279 C1278 1.397 . S
C1279 C1280 1.334 . S
C1280 H1251 0.950 . S
C1280 C1279 1.334 . S
C1280 C1281 1.287 . S
C1281 C1280 1.287 . S
C1281 C1282 1.524 . S
C1281 H1284 0.999 . S
C1282 H1252 0.950 . S
C1282 C1281 1.524 . S
C1282 C1283 1.415 . S
C1283 H1253 0.950 . S
C1283 C1278 1.363 . S
C1283 C1282 1.415 . S
H1284 C1281 0.999 . S
H1285 C1266 0.913 . S
H1286 C1304 0.951 . S
H1287 C1306 0.951 . S
H1288 C1308 0.950 . S
H1289 C1309 0.950 . S
H1290 C1311 0.950 . S
H1291 C1314 0.950 . S
H1292 C1315 0.950 . S
H1293 C1317 0.950 . S
H1294 C1318 0.950 . S
H1295 C1319 0.951 . S
H1296 C1321 0.951 . S
H1297 C1323 0.950 . S
H1298 C1324 0.950 . S
H1299 C1326 0.950 . S
H1300 C1329 0.950 . S
H1301 C1330 0.950 . S
H1302 C1332 0.950 . S
H1303 C1333 0.950 . S
C1304 H1286 0.951 . S
C1304 C1305 1.366 . S
C1304 C1306 1.388 . S
C1305 C1304 1.366 . S
C1305 C1309 1.385 . S
C1306 H1287 0.951 . S
C1306 C1304 1.388 . S
C1306 C1307 1.366 . S
C1307 C1306 1.366 . S
C1307 C1308 1.414 . S
C1307 C1310 1.499 . S
C1308 H1288 0.950 . S
C1308 C1307 1.414 . S
C1308 C1309 1.374 . S
C1309 H1289 0.950 . S
C1309 C1305 1.385 . S
C1309 C1308 1.374 . S
C1310 C1307 1.499 . S
C1310 C1311 1.373 . S
C1310 C1312 1.389 . S
C1311 H1290 0.950 . S
C1311 C1310 1.373 . S
C1311 C1327 1.377 . S
C1312 C1310 1.389 . S
C1312 C1313 1.524 . S
C1312 C1326 1.377 . S
C1313 C1312 1.524 . S
C1313 C1314 1.397 . S
C1313 C1318 1.363 . S
C1314 H1291 0.950 . S
C1314 C1313 1.397 . S
C1314 C1315 1.334 . S
C1315 H1292 0.950 . S
C1315 C1314 1.334 . S
C1315 C1316 1.287 . S
C1316 C1315 1.287 . S
C1316 C1317 1.524 . S
C1316 H1335 0.913 . S
C1317 H1293 0.950 . S
C1317 C1316 1.524 . S
C1317 C1318 1.415 . S
C1318 H1294 0.950 . S
C1318 C1313 1.363 . S
C1318 C1317 1.415 . S
C1319 H1295 0.951 . S
C1319 C1320 1.366 . S
C1319 C1321 1.388 . S
C1320 C1319 1.366 . S
C1320 C1324 1.385 . S
C1321 H1296 0.951 . S
C1321 C1319 1.388 . S
C1321 C1322 1.366 . S
C1322 C1321 1.366 . S
C1322 C1323 1.414 . S
C1322 C1325 1.499 . S
C1323 H1297 0.950 . S
C1323 C1322 1.414 . S
C1323 C1324 1.374 . S
C1324 H1298 0.950 . S
C1324 C1320 1.385 . S
C1324 C1323 1.374 . S
C1325 C1322 1.499 . S
C1325 C1326 1.373 . S
C1325 C1327 1.389 . S
C1326 H1299 0.950 . S
C1326 C1312 1.377 . S
C1326 C1325 1.373 . S
C1327 C1311 1.377 . S
C1327 C1325 1.389 . S
C1327 C1328 1.524 . S
C1328 C1327 1.524 . S
C1328 C1329 1.397 . S
C1328 C1333 1.363 . S
C1329 H1300 0.950 . S
C1329 C1328 1.397 . S
C1329 C1330 1.334 . S
C1330 H1301 0.950 . S
C1330 C1329 1.334 . S
C1330 C1331 1.287 . S
C1331 C1330 1.287 . S
C1331 C1332 1.524 . S
C1331 H1334 0.999 . S
C1332 H1302 0.950 . S
C1332 C1331 1.524 . S
C1332 C1333 1.415 . S
C1333 H1303 0.950 . S
C1333 C1328 1.363 . S
C1333 C1332 1.415 . S
H1334 C1331 0.999 . S
H1335 C1316 0.913 . S
H1336 C1354 0.951 . S
H1337 C1356 0.951 . S
H1338 C1358 0.950 . S
H1339 C1359 0.950 . S
H1340 C1361 0.950 . S
H1341 C1364 0.950 . S
H1342 C1365 0.950 . S
H1343 C1367 0.950 . S
H1344 C1368 0.950 . S
H1345 C1369 0.951 . S
H1346 C1371 0.951 . S
H1347 C1373 0.950 . S
H1348 C1374 0.950 . S
H1349 C1376 0.950 . S
H1350 C1379 0.950 . S
H1351 C1380 0.950 . S
H1352 C1382 0.950 . S
H1353 C1383 0.950 . S
C1354 H1336 0.951 . S
C1354 C1355 1.366 . S
C1354 C1356 1.388 . S
C1355 C1354 1.366 . S
C1355 C1359 1.385 . S
C1356 H1337 0.951 . S
C1356 C1354 1.388 . S
C1356 C1357 1.366 . S
C1357 C1356 1.366 . S
C1357 C1358 1.414 . S
C1357 C1360 1.499 . S
C1358 H1338 0.950 . S
C1358 C1357 1.414 . S
C1358 C1359 1.374 . S
C1359 H1339 0.950 . S
C1359 C1355 1.385 . S
C1359 C1358 1.374 . S
C1360 C1357 1.499 . S
C1360 C1361 1.373 . S
C1360 C1362 1.389 . S
C1361 H1340 0.950 . S
C1361 C1360 1.373 . S
C1361 C1377 1.377 . S
C1362 C1360 1.389 . S
C1362 C1363 1.524 . S
C1362 C1376 1.377 . S
C1363 C1362 1.524 . S
C1363 C1364 1.397 . S
C1363 C1368 1.363 . S
C1364 H1341 0.950 . S
C1364 C1363 1.397 . S
C1364 C1365 1.334 . S
C1365 H1342 0.950 . S
C1365 C1364 1.334 . S
C1365 C1366 1.287 . S
C1366 C1365 1.287 . S
C1366 C1367 1.524 . S
C1366 H1385 0.913 . S
C1367 H1343 0.950 . S
C1367 C1366 1.524 . S
C1367 C1368 1.415 . S
C1368 H1344 0.950 . S
C1368 C1363 1.363 . S
C1368 C1367 1.415 . S
C1369 H1345 0.951 . S
C1369 C1370 1.366 . S
C1369 C1371 1.388 . S
C1370 C1369 1.366 . S
C1370 C1374 1.385 . S
C1371 H1346 0.951 . S
C1371 C1369 1.388 . S
C1371 C1372 1.366 . S
C1372 C1371 1.366 . S
C1372 C1373 1.414 . S
C1372 C1375 1.499 . S
C1373 H1347 0.950 . S
C1373 C1372 1.414 . S
C1373 C1374 1.374 . S
C1374 H1348 0.950 . S
C1374 C1370 1.385 . S
C1374 C1373 1.374 . S
C1375 C1372 1.499 . S
C1375 C1376 1.373 . S
C1375 C1377 1.389 . S
C1376 H1349 0.950 . S
C1376 C1362 1.377 . S
C1376 C1375 1.373 . S
C1377 C1361 1.377 . S
C1377 C1375 1.389 . S
C1377 C1378 1.524 . S
C1378 C1377 1.524 . S
C1378 C1379 1.397 . S
C1378 C1383 1.363 . S
C1379 H1350 0.950 . S
C1379 C1378 1.397 . S
C1379 C1380 1.334 . S
C1380 H1351 0.950 . S
C1380 C1379 1.334 . S
C1380 C1381 1.287 . S
C1381 C1380 1.287 . S
C1381 C1382 1.524 . S
C1381 H1384 0.999 . S
C1382 H1352 0.950 . S
C1382 C1381 1.524 . S
C1382 C1383 1.415 . S
C1383 H1353 0.950 . S
C1383 C1378 1.363 . S
C1383 C1382 1.415 . S
H1384 C1381 0.999 . S
H1385 C1366 0.913 . S
H1386 C1404 0.951 . S
H1387 C1406 0.951 . S
H1388 C1408 0.950 . S
H1389 C1409 0.950 . S
H1390 C1411 0.950 . S
H1391 C1414 0.950 . S
H1392 C1415 0.950 . S
H1393 C1417 0.950 . S
H1394 C1418 0.950 . S
H1395 C1419 0.951 . S
H1396 C1421 0.951 . S
H1397 C1423 0.950 . S
H1398 C1424 0.950 . S
H1399 C1426 0.950 . S
H1400 C1429 0.950 . S
H1401 C1430 0.950 . S
H1402 C1432 0.950 . S
H1403 C1433 0.950 . S
C1404 H1386 0.951 . S
C1404 C1405 1.366 . S
C1404 C1406 1.388 . S
C1405 C1404 1.366 . S
C1405 C1409 1.385 . S
C1406 H1387 0.951 . S
C1406 C1404 1.388 . S
C1406 C1407 1.366 . S
C1407 C1406 1.366 . S
C1407 C1408 1.414 . S
C1407 C1410 1.499 . S
C1408 H1388 0.950 . S
C1408 C1407 1.414 . S
C1408 C1409 1.374 . S
C1409 H1389 0.950 . S
C1409 C1405 1.385 . S
C1409 C1408 1.374 . S
C1410 C1407 1.499 . S
C1410 C1411 1.373 . S
C1410 C1412 1.389 . S
C1411 H1390 0.950 . S
C1411 C1410 1.373 . S
C1411 C1427 1.377 . S
C1412 C1410 1.389 . S
C1412 C1413 1.524 . S
C1412 C1426 1.377 . S
C1413 C1412 1.524 . S
C1413 C1414 1.397 . S
C1413 C1418 1.363 . S
C1414 H1391 0.950 . S
C1414 C1413 1.397 . S
C1414 C1415 1.334 . S
C1415 H1392 0.950 . S
C1415 C1414 1.334 . S
C1415 C1416 1.287 . S
C1416 C1415 1.287 . S
C1416 C1417 1.524 . S
C1416 H1435 0.913 . S
C1417 H1393 0.950 . S
C1417 C1416 1.524 . S
C1417 C1418 1.415 . S
C1418 H1394 0.950 . S
C1418 C1413 1.363 . S
C1418 C1417 1.415 . S
C1419 H1395 0.951 . S
C1419 C1420 1.366 . S
C1419 C1421 1.388 . S
C1420 C1419 1.366 . S
C1420 C1424 1.385 . S
C1421 H1396 0.951 . S
C1421 C1419 1.388 . S
C1421 C1422 1.366 . S
C1422 C1421 1.366 . S
C1422 C1423 1.414 . S
C1422 C1425 1.499 . S
C1423 H1397 0.950 . S
C1423 C1422 1.414 . S
C1423 C1424 1.374 . S
C1424 H1398 0.950 . S
C1424 C1420 1.385 . S
C1424 C1423 1.374 . S
C1425 C1422 1.499 . S
C1425 C1426 1.373 . S
C1425 C1427 1.389 . S
C1426 H1399 0.950 . S
C1426 C1412 1.377 . S
C1426 C1425 1.373 . S
C1427 C1411 1.377 . S
C1427 C1425 1.389 . S
C1427 C1428 1.524 . S
C1428 C1427 1.524 . S
C1428 C1429 1.397 . S
C1428 C1433 1.363 . S
C1429 H1400 0.950 . S
C1429 C1428 1.397 . S
C1429 C1430 1.334 . S
C1430 H1401 0.950 . S
C1430 C1429 1.334 . S
C1430 C1431 1.287 . S
C1431 C1430 1.287 . S
C1431 C1432 1.524 . S
C1431 H1434 0.999 . S
C1432 H1402 0.950 . S
C1432 C1431 1.524 . S
C1432 C1433 1.415 . S
C1433 H1403 0.950 . S
C1433 C1428 1.363 . S
C1433 C1432 1.415 . S
H1434 C1431 0.999 . S
H1435 C1416 0.913 . S
H1436 C1454 0.951 . S
H1437 C1456 0.951 . S
H1438 C1458 0.950 . S
H1439 C1459 0.950 . S
H1440 C1461 0.950 . S
H1441 C1464 0.950 . S
H1442 C1465 0.950 . S
H1443 C1467 0.950 . S
H1444 C1468 0.950 . S
H1445 C1469 0.951 . S
H1446 C1471 0.951 . S
H1447 C1473 0.950 . S
H1448 C1474 0.950 . S
H1449 C1476 0.950 . S
H1450 C1479 0.950 . S
H1451 C1480 0.950 . S
H1452 C1482 0.950 . S
H1453 C1483 0.950 . S
C1454 H1436 0.951 . S
C1454 C1455 1.366 . S
C1454 C1456 1.388 . S
C1455 C1454 1.366 . S
C1455 C1459 1.385 . S
C1456 H1437 0.951 . S
C1456 C1454 1.388 . S
C1456 C1457 1.366 . S
C1457 C1456 1.366 . S
C1457 C1458 1.414 . S
C1457 C1460 1.499 . S
C1458 H1438 0.950 . S
C1458 C1457 1.414 . S
C1458 C1459 1.374 . S
C1459 H1439 0.950 . S
C1459 C1455 1.385 . S
C1459 C1458 1.374 . S
C1460 C1457 1.499 . S
C1460 C1461 1.373 . S
C1460 C1462 1.389 . S
C1461 H1440 0.950 . S
C1461 C1460 1.373 . S
C1461 C1477 1.377 . S
C1462 C1460 1.389 . S
C1462 C1463 1.524 . S
C1462 C1476 1.377 . S
C1463 C1462 1.524 . S
C1463 C1464 1.397 . S
C1463 C1468 1.363 . S
C1464 H1441 0.950 . S
C1464 C1463 1.397 . S
C1464 C1465 1.334 . S
C1465 H1442 0.950 . S
C1465 C1464 1.334 . S
C1465 C1466 1.287 . S
C1466 C1465 1.287 . S
C1466 C1467 1.524 . S
C1466 H1485 0.913 . S
C1467 H1443 0.950 . S
C1467 C1466 1.524 . S
C1467 C1468 1.415 . S
C1468 H1444 0.950 . S
C1468 C1463 1.363 . S
C1468 C1467 1.415 . S
C1469 H1445 0.951 . S
C1469 C1470 1.366 . S
C1469 C1471 1.388 . S
C1470 C1469 1.366 . S
C1470 C1474 1.385 . S
C1471 H1446 0.951 . S
C1471 C1469 1.388 . S
C1471 C1472 1.366 . S
C1472 C1471 1.366 . S
C1472 C1473 1.414 . S
C1472 C1475 1.499 . S
C1473 H1447 0.950 . S
C1473 C1472 1.414 . S
C1473 C1474 1.374 . S
C1474 H1448 0.950 . S
C1474 C1470 1.385 . S
C1474 C1473 1.374 . S
C1475 C1472 1.499 . S
C1475 C1476 1.373 . S
C1475 C1477 1.389 . S
C1476 H1449 0.950 . S
C1476 C1462 1.377 . S
C1476 C1475 1.373 . S
C1477 C1461 1.377 . S
C1477 C1475 1.389 . S
C1477 C1478 1.524 . S
C1478 C1477 1.524 . S
C1478 C1479 1.397 . S
C1478 C1483 1.363 . S
C1479 H1450 0.950 . S
C1479 C1478 1.397 . S
C1479 C1480 1.334 . S
C1480 H1451 0.950 . S
C1480 C1479 1.334 . S
C1480 C1481 1.287 . S
C1481 C1480 1.287 . S
C1481 C1482 1.524 . S
C1481 H1484 0.999 . S
C1482 H1452 0.950 . S
C1482 C1481 1.524 . S
C1482 C1483 1.415 . S
C1483 H1453 0.950 . S
C1483 C1478 1.363 . S
C1483 C1482 1.415 . S
H1484 C1481 0.999 . S
H1485 C1466 0.913 . S
H1486 C1504 0.951 . S
H1487 C1506 0.951 . S
H1488 C1508 0.950 . S
H1489 C1509 0.950 . S
H1490 C1511 0.950 . S
H1491 C1514 0.950 . S
H1492 C1515 0.950 . S
H1493 C1517 0.950 . S
H1494 C1518 0.950 . S
H1495 C1519 0.951 . S
H1496 C1521 0.951 . S
H1497 C1523 0.950 . S
H1498 C1524 0.950 . S
H1499 C1526 0.950 . S
H1500 C1529 0.950 . S
H1501 C1530 0.950 . S
H1502 C1532 0.950 . S
H1503 C1533 0.950 . S
C1504 H1486 0.951 . S
C1504 C1505 1.366 . S
C1504 C1506 1.388 . S
C1505 C1504 1.366 . S
C1505 C1509 1.385 . S
C1506 H1487 0.951 . S
C1506 C1504 1.388 . S
C1506 C1507 1.366 . S
C1507 C1506 1.366 . S
C1507 C1508 1.414 . S
C1507 C1510 1.499 . S
C1508 H1488 0.950 . S
C1508 C1507 1.414 . S
C1508 C1509 1.374 . S
C1509 H1489 0.950 . S
C1509 C1505 1.385 . S
C1509 C1508 1.374 . S
C1510 C1507 1.499 . S
C1510 C1511 1.373 . S
C1510 C1512 1.389 . S
C1511 H1490 0.950 . S
C1511 C1510 1.373 . S
C1511 C1527 1.377 . S
C1512 C1510 1.389 . S
C1512 C1513 1.524 . S
C1512 C1526 1.377 . S
C1513 C1512 1.524 . S
C1513 C1514 1.397 . S
C1513 C1518 1.363 . S
C1514 H1491 0.950 . S
C1514 C1513 1.397 . S
C1514 C1515 1.334 . S
C1515 H1492 0.950 . S
C1515 C1514 1.334 . S
C1515 C1516 1.287 . S
C1516 C1515 1.287 . S
C1516 C1517 1.524 . S
C1516 H1535 0.913 . S
C1517 H1493 0.950 . S
C1517 C1516 1.524 . S
C1517 C1518 1.415 . S
C1518 H1494 0.950 . S
C1518 C1513 1.363 . S
C1518 C1517 1.415 . S
C1519 H1495 0.951 . S
C1519 C1520 1.366 . S
C1519 C1521 1.388 . S
C1520 C1519 1.366 . S
C1520 C1524 1.385 . S
C1521 H1496 0.951 . S
C1521 C1519 1.388 . S
C1521 C1522 1.366 . S
C1522 C1521 1.366 . S
C1522 C1523 1.414 . S
C1522 C1525 1.499 . S
C1523 H1497 0.950 . S
C1523 C1522 1.414 . S
C1523 C1524 1.374 . S
C1524 H1498 0.950 . S
C1524 C1520 1.385 . S
C1524 C1523 1.374 . S
C1525 C1522 1.499 . S
C1525 C1526 1.373 . S
C1525 C1527 1.389 . S
C1526 H1499 0.950 . S
C1526 C1512 1.377 . S
C1526 C1525 1.373 . S
C1527 C1511 1.377 . S
C1527 C1525 1.389 . S
C1527 C1528 1.524 . S
C1528 C1527 1.524 . S
C1528 C1529 1.397 . S
C1528 C1533 1.363 . S
C1529 H1500 0.950 . S
C1529 C1528 1.397 . S
C1529 C1530 1.334 . S
C1530 H1501 0.950 . S
C1530 C1529 1.334 . S
C1530 C1531 1.287 . S
C1531 C1530 1.287 . S
C1531 C1532 1.524 . S
C1531 H1534 0.999 . S
C1532 H1502 0.950 . S
C1532 C1531 1.524 . S
C1532 C1533 1.415 . S
C1533 H1503 0.950 . S
C1533 C1528 1.363 . S
C1533 C1532 1.415 . S
H1534 C1531 0.999 . S
H1535 C1516 0.913 . S
H1536 C1554 0.951 . S
H1537 C1556 0.951 . S
H1538 C1558 0.950 . S
H1539 C1559 0.950 . S
H1540 C1561 0.950 . S
H1541 C1564 0.950 . S
H1542 C1565 0.950 . S
H1543 C1567 0.950 . S
H1544 C1568 0.950 . S
H1545 C1569 0.951 . S
H1546 C1571 0.951 . S
H1547 C1573 0.950 . S
H1548 C1574 0.950 . S
H1549 C1576 0.950 . S
H1550 C1579 0.950 . S
H1551 C1580 0.950 . S
H1552 C1582 0.950 . S
H1553 C1583 0.950 . S
C1554 H1536 0.951 . S
C1554 C1555 1.366 . S
C1554 C1556 1.388 . S
C1555 C1554 1.366 . S
C1555 C1559 1.385 . S
C1556 H1537 0.951 . S
C1556 C1554 1.388 . S
C1556 C1557 1.366 . S
C1557 C1556 1.366 . S
C1557 C1558 1.414 . S
C1557 C1560 1.499 . S
C1558 H1538 0.950 . S
C1558 C1557 1.414 . S
C1558 C1559 1.374 . S
C1559 H1539 0.950 . S
C1559 C1555 1.385 . S
C1559 C1558 1.374 . S
C1560 C1557 1.499 . S
C1560 C1561 1.373 . S
C1560 C1562 1.389 . S
C1561 H1540 0.950 . S
C1561 C1560 1.373 . S
C1561 C1577 1.377 1_455 S
C1562 C1560 1.389 . S
C1562 C1563 1.524 . S
C1562 C1576 1.377 1_455 S
C1563 C1562 1.524 . S
C1563 C1564 1.397 . S
C1563 C1568 1.363 . S
C1564 H1541 0.950 . S
C1564 C1563 1.397 . S
C1564 C1565 1.334 . S
C1565 H1542 0.950 . S
C1565 C1564 1.334 . S
C1565 C1566 1.287 . S
C1566 C1565 1.287 . S
C1566 C1567 1.524 . S
C1566 H1585 0.913 . S
C1567 H1543 0.950 . S
C1567 C1566 1.524 . S
C1567 C1568 1.415 . S
C1568 H1544 0.950 . S
C1568 C1563 1.363 . S
C1568 C1567 1.415 . S
C1569 H1545 0.951 . S
C1569 C1570 1.366 . S
C1569 C1571 1.388 . S
C1570 C1569 1.366 . S
C1570 C1574 1.385 . S
C1571 H1546 0.951 . S
C1571 C1569 1.388 . S
C1571 C1572 1.366 . S
C1572 C1571 1.366 . S
C1572 C1573 1.414 . S
C1572 C1575 1.499 . S
C1573 H1547 0.950 . S
C1573 C1572 1.414 . S
C1573 C1574 1.374 . S
C1574 H1548 0.950 . S
C1574 C1570 1.385 . S
C1574 C1573 1.374 . S
C1575 C1572 1.499 . S
C1575 C1576 1.373 . S
C1575 C1577 1.389 . S
C1576 H1549 0.950 . S
C1576 C1562 1.377 1_655 S
C1576 C1575 1.373 . S
C1577 C1561 1.377 1_655 S
C1577 C1575 1.389 . S
C1577 C1578 1.524 . S
C1578 C1577 1.524 . S
C1578 C1579 1.397 . S
C1578 C1583 1.363 . S
C1579 H1550 0.950 . S
C1579 C1578 1.397 . S
C1579 C1580 1.334 . S
C1580 H1551 0.950 . S
C1580 C1579 1.334 . S
C1580 C1581 1.287 . S
C1581 C1580 1.287 . S
C1581 C1582 1.524 . S
C1581 H1584 0.999 . S
C1582 H1552 0.950 . S
C1582 C1581 1.524 . S
C1582 C1583 1.415 . S
C1583 H1553 0.950 . S
C1583 C1578 1.363 . S
C1583 C1582 1.415 . S
H1584 C1581 0.999 . S
H1585 C1566 0.913 . S
H1586 C1604 0.951 . S
H1587 C1606 0.951 . S
H1588 C1608 0.950 . S
H1589 C1609 0.950 . S
H1590 C1611 0.950 . S
H1591 C1614 0.950 . S
H1592 C1615 0.950 . S
H1593 C1617 0.950 . S
H1594 C1618 0.950 . S
H1595 C1619 0.951 . S
H1596 C1621 0.951 . S
H1597 C1623 0.950 . S
H1598 C1624 0.950 . S
H1599 C1626 0.950 . S
H1600 C1629 0.950 . S
H1601 C1630 0.950 . S
H1602 C1632 0.950 . S
H1603 C1633 0.950 . S
C1604 H1586 0.951 . S
C1604 C1605 1.366 . S
C1604 C1606 1.388 . S
C1605 C1604 1.366 . S
C1605 C1609 1.385 . S
C1606 H1587 0.951 . S
C1606 C1604 1.388 . S
C1606 C1607 1.366 . S
C1607 C1606 1.366 . S
C1607 C1608 1.414 . S
C1607 C1610 1.499 . S
C1608 H1588 0.950 . S
C1608 C1607 1.414 . S
C1608 C1609 1.374 . S
C1609 H1589 0.950 . S
C1609 C1605 1.385 . S
C1609 C1608 1.374 . S
C1610 C1607 1.499 . S
C1610 C1611 1.373 . S
C1610 C1612 1.389 . S
C1611 H1590 0.950 . S
C1611 C1610 1.373 . S
C1611 C1627 1.377 1_545 S
C1612 C1610 1.389 . S
C1612 C1613 1.524 . S
C1612 C1626 1.377 1_545 S
C1613 C1612 1.524 . S
C1613 C1614 1.397 . S
C1613 C1618 1.363 . S
C1614 H1591 0.950 . S
C1614 C1613 1.397 . S
C1614 C1615 1.334 . S
C1615 H1592 0.950 . S
C1615 C1614 1.334 . S
C1615 C1616 1.287 . S
C1616 C1615 1.287 . S
C1616 C1617 1.524 . S
C1616 H1635 0.913 . S
C1617 H1593 0.950 . S
C1617 C1616 1.524 . S
C1617 C1618 1.415 . S
C1618 H1594 0.950 . S
C1618 C1613 1.363 . S
C1618 C1617 1.415 . S
C1619 H1595 0.951 . S
C1619 C1620 1.366 . S
C1619 C1621 1.388 . S
C1620 C1619 1.366 . S
C1620 C1624 1.385 . S
C1621 H1596 0.951 . S
C1621 C1619 1.388 . S
C1621 C1622 1.366 . S
C1622 C1621 1.366 . S
C1622 C1623 1.414 . S
C1622 C1625 1.499 . S
C1623 H1597 0.950 . S
C1623 C1622 1.414 . S
C1623 C1624 1.374 . S
C1624 H1598 0.950 . S
C1624 C1620 1.385 . S
C1624 C1623 1.374 . S
C1625 C1622 1.499 . S
C1625 C1626 1.373 . S
C1625 C1627 1.389 . S
C1626 H1599 0.950 . S
C1626 C1612 1.377 1_565 S
C1626 C1625 1.373 . S
C1627 C1611 1.377 1_565 S
C1627 C1625 1.389 . S
C1627 C1628 1.524 . S
C1628 C1627 1.524 . S
C1628 C1629 1.397 . S
C1628 C1633 1.363 . S
C1629 H1600 0.950 . S
C1629 C1628 1.397 . S
C1629 C1630 1.334 . S
C1630 H1601 0.950 . S
C1630 C1629 1.334 . S
C1630 C1631 1.287 . S
C1631 C1630 1.287 . S
C1631 C1632 1.524 . S
C1631 H1634 0.999 . S
C1632 H1602 0.950 . S
C1632 C1631 1.524 . S
C1632 C1633 1.415 . S
C1633 H1603 0.950 . S
C1633 C1628 1.363 . S
C1633 C1632 1.415 . S
H1634 C1631 0.999 . S
H1635 C1616 0.913 . S
H1636 C1654 0.951 . S
H1637 C1656 0.951 . S
H1638 C1658 0.950 . S
H1639 C1659 0.950 . S
H1640 C1661 0.950 . S
H1641 C1664 0.950 . S
H1642 C1665 0.950 . S
H1643 C1667 0.950 . S
H1644 C1668 0.950 . S
H1645 C1669 0.951 . S
H1646 C1671 0.951 . S
H1647 C1673 0.950 . S
H1648 C1674 0.950 . S
H1649 C1676 0.950 . S
H1650 C1679 0.950 . S
H1651 C1680 0.950 . S
H1652 C1682 0.950 . S
H1653 C1683 0.950 . S
C1654 H1636 0.951 . S
C1654 C1655 1.366 . S
C1654 C1656 1.388 . S
C1655 C1654 1.366 . S
C1655 C1659 1.385 . S
C1656 H1637 0.951 . S
C1656 C1654 1.388 . S
C1656 C1657 1.366 . S
C1657 C1656 1.366 . S
C1657 C1658 1.414 . S
C1657 C1660 1.499 . S
C1658 H1638 0.950 . S
C1658 C1657 1.414 . S
C1658 C1659 1.374 . S
C1659 H1639 0.950 . S
C1659 C1655 1.385 . S
C1659 C1658 1.374 . S
C1660 C1657 1.499 . S
C1660 C1661 1.373 . S
C1660 C1662 1.389 . S
C1661 H1640 0.950 . S
C1661 C1660 1.373 . S
C1661 C1677 1.377 1_655 S
C1662 C1660 1.389 . S
C1662 C1663 1.524 . S
C1662 C1676 1.377 1_655 S
C1663 C1662 1.524 . S
C1663 C1664 1.397 . S
C1663 C1668 1.363 . S
C1664 H1641 0.950 . S
C1664 C1663 1.397 . S
C1664 C1665 1.334 . S
C1665 H1642 0.950 . S
C1665 C1664 1.334 . S
C1665 C1666 1.287 . S
C1666 C1665 1.287 . S
C1666 C1667 1.524 . S
C1666 H1685 0.913 . S
C1667 H1643 0.950 . S
C1667 C1666 1.524 . S
C1667 C1668 1.415 . S
C1668 H1644 0.950 . S
C1668 C1663 1.363 . S
C1668 C1667 1.415 . S
C1669 H1645 0.951 . S
C1669 C1670 1.366 . S
C1669 C1671 1.388 . S
C1670 C1669 1.366 . S
C1670 C1674 1.385 . S
C1671 H1646 0.951 . S
C1671 C1669 1.388 . S
C1671 C1672 1.366 . S
C1672 C1671 1.366 . S
C1672 C1673 1.414 . S
C1672 C1675 1.499 . S
C1673 H1647 0.950 . S
C1673 C1672 1.414 . S
C1673 C1674 1.374 . S
C1674 H1648 0.950 . S
C1674 C1670 1.385 . S
C1674 C1673 1.374 . S
C1675 C1672 1.499 . S
C1675 C1676 1.373 . S
C1675 C1677 1.389 . S
C1676 H1649 0.950 . S
C1676 C1662 1.377 1_455 S
C1676 C1675 1.373 . S
C1677 C1661 1.377 1_455 S
C1677 C1675 1.389 . S
C1677 C1678 1.524 . S
C1678 C1677 1.524 . S
C1678 C1679 1.397 . S
C1678 C1683 1.363 . S
C1679 H1650 0.950 . S
C1679 C1678 1.397 . S
C1679 C1680 1.334 . S
C1680 H1651 0.950 . S
C1680 C1679 1.334 . S
C1680 C1681 1.287 . S
C1681 C1680 1.287 . S
C1681 C1682 1.524 . S
C1681 H1684 0.999 . S
C1682 H1652 0.950 . S
C1682 C1681 1.524 . S
C1682 C1683 1.415 . S
C1683 H1653 0.950 . S
C1683 C1678 1.363 . S
C1683 C1682 1.415 . S
H1684 C1681 0.999 . S
H1685 C1666 0.913 . S
H1686 C1704 0.951 . S
H1687 C1706 0.951 . S
H1688 C1708 0.950 . S
H1689 C1709 0.950 . S
H1690 C1711 0.950 . S
H1691 C1714 0.950 . S
H1692 C1715 0.950 . S
H1693 C1717 0.950 . S
H1694 C1718 0.950 . S
H1695 C1719 0.951 . S
H1696 C1721 0.951 . S
H1697 C1723 0.950 . S
H1698 C1724 0.950 . S
H1699 C1726 0.950 . S
H1700 C1729 0.950 . S
H1701 C1730 0.950 . S
H1702 C1732 0.950 . S
H1703 C1733 0.950 . S
C1704 H1686 0.951 . S
C1704 C1705 1.366 . S
C1704 C1706 1.388 . S
C1705 C1704 1.366 . S
C1705 C1709 1.385 . S
C1706 H1687 0.951 . S
C1706 C1704 1.388 . S
C1706 C1707 1.366 . S
C1707 C1706 1.366 . S
C1707 C1708 1.414 . S
C1707 C1710 1.499 . S
C1708 H1688 0.950 . S
C1708 C1707 1.414 . S
C1708 C1709 1.374 . S
C1709 H1689 0.950 . S
C1709 C1705 1.385 . S
C1709 C1708 1.374 . S
C1710 C1707 1.499 . S
C1710 C1711 1.373 . S
C1710 C1712 1.389 . S
C1711 H1690 0.950 . S
C1711 C1710 1.373 . S
C1711 C1727 1.377 1_545 S
C1712 C1710 1.389 . S
C1712 C1713 1.524 . S
C1712 C1726 1.377 1_545 S
C1713 C1712 1.524 . S
C1713 C1714 1.397 . S
C1713 C1718 1.363 . S
C1714 H1691 0.950 . S
C1714 C1713 1.397 . S
C1714 C1715 1.334 . S
C1715 H1692 0.950 . S
C1715 C1714 1.334 . S
C1715 C1716 1.287 . S
C1716 C1715 1.287 . S
C1716 C1717 1.524 . S
C1716 H1735 0.913 . S
C1717 H1693 0.950 . S
C1717 C1716 1.524 . S
C1717 C1718 1.415 . S
C1718 H1694 0.950 . S
C1718 C1713 1.363 . S
C1718 C1717 1.415 . S
C1719 H1695 0.951 . S
C1719 C1720 1.366 . S
C1719 C1721 1.388 . S
C1720 C1719 1.366 . S
C1720 C1724 1.385 . S
C1721 H1696 0.951 . S
C1721 C1719 1.388 . S
C1721 C1722 1.366 . S
C1722 C1721 1.366 . S
C1722 C1723 1.414 . S
C1722 C1725 1.499 . S
C1723 H1697 0.950 . S
C1723 C1722 1.414 . S
C1723 C1724 1.374 . S
C1724 H1698 0.950 . S
C1724 C1720 1.385 . S
C1724 C1723 1.374 . S
C1725 C1722 1.499 . S
C1725 C1726 1.373 . S
C1725 C1727 1.389 . S
C1726 H1699 0.950 . S
C1726 C1712 1.377 1_565 S
C1726 C1725 1.373 . S
C1727 C1711 1.377 1_565 S
C1727 C1725 1.389 . S
C1727 C1728 1.524 . S
C1728 C1727 1.524 . S
C1728 C1729 1.397 . S
C1728 C1733 1.363 . S
C1729 H1700 0.950 . S
C1729 C1728 1.397 . S
C1729 C1730 1.334 . S
C1730 H1701 0.950 . S
C1730 C1729 1.334 . S
C1730 C1731 1.287 . S
C1731 C1730 1.287 . S
C1731 C1732 1.524 . S
C1731 H1734 0.999 . S
C1732 H1702 0.950 . S
C1732 C1731 1.524 . S
C1732 C1733 1.415 . S
C1733 H1703 0.950 . S
C1733 C1728 1.363 . S
C1733 C1732 1.415 . S
H1734 C1731 0.999 . S
H1735 C1716 0.913 . S
H1736 C1754 0.951 . S
H1737 C1756 0.951 . S
H1738 C1758 0.950 . S
H1739 C1759 0.950 . S
H1740 C1761 0.950 . S
H1741 C1764 0.950 . S
H1742 C1765 0.950 . S
H1743 C1767 0.950 . S
H1744 C1768 0.950 . S
H1745 C1769 0.951 . S
H1746 C1771 0.951 . S
H1747 C1773 0.950 . S
H1748 C1774 0.950 . S
H1749 C1776 0.950 . S
H1750 C1779 0.950 . S
H1751 C1780 0.950 . S
H1752 C1782 0.950 . S
H1753 C1783 0.950 . S
C1754 H1736 0.951 . S
C1754 C1755 1.366 . S
C1754 C1756 1.388 . S
C1755 C1754 1.366 . S
C1755 C1759 1.385 . S
C1756 H1737 0.951 . S
C1756 C1754 1.388 . S
C1756 C1757 1.366 . S
C1757 C1756 1.366 . S
C1757 C1758 1.414 . S
C1757 C1760 1.499 . S
C1758 H1738 0.950 . S
C1758 C1757 1.414 . S
C1758 C1759 1.374 . S
C1759 H1739 0.950 . S
C1759 C1755 1.385 . S
C1759 C1758 1.374 . S
C1760 C1757 1.499 . S
C1760 C1761 1.373 . S
C1760 C1762 1.389 . S
C1761 H1740 0.950 . S
C1761 C1760 1.373 . S
C1761 C1777 1.377 1_565 S
C1762 C1760 1.389 . S
C1762 C1763 1.524 . S
C1762 C1776 1.377 1_565 S
C1763 C1762 1.524 . S
C1763 C1764 1.397 . S
C1763 C1768 1.363 . S
C1764 H1741 0.950 . S
C1764 C1763 1.397 . S
C1764 C1765 1.334 . S
C1765 H1742 0.950 . S
C1765 C1764 1.334 . S
C1765 C1766 1.287 . S
C1766 C1765 1.287 . S
C1766 C1767 1.524 . S
C1766 H1785 0.913 . S
C1767 H1743 0.950 . S
C1767 C1766 1.524 . S
C1767 C1768 1.415 . S
C1768 H1744 0.950 . S
C1768 C1763 1.363 . S
C1768 C1767 1.415 . S
C1769 H1745 0.951 . S
C1769 C1770 1.366 . S
C1769 C1771 1.388 . S
C1770 C1769 1.366 . S
C1770 C1774 1.385 . S
C1771 H1746 0.951 . S
C1771 C1769 1.388 . S
C1771 C1772 1.366 . S
C1772 C1771 1.366 . S
C1772 C1773 1.414 . S
C1772 C1775 1.499 . S
C1773 H1747 0.950 . S
C1773 C1772 1.414 . S
C1773 C1774 1.374 . S
C1774 H1748 0.950 . S
C1774 C1770 1.385 . S
C1774 C1773 1.374 . S
C1775 C1772 1.499 . S
C1775 C1776 1.373 . S
C1775 C1777 1.389 . S
C1776 H1749 0.950 . S
C1776 C1762 1.377 1_545 S
C1776 C1775 1.373 . S
C1777 C1761 1.377 1_545 S
C1777 C1775 1.389 . S
C1777 C1778 1.524 . S
C1778 C1777 1.524 . S
C1778 C1779 1.397 . S
C1778 C1783 1.363 . S
C1779 H1750 0.950 . S
C1779 C1778 1.397 . S
C1779 C1780 1.334 . S
C1780 H1751 0.950 . S
C1780 C1779 1.334 . S
C1780 C1781 1.287 . S
C1781 C1780 1.287 . S
C1781 C1782 1.524 . S
C1781 H1784 0.999 . S
C1782 H1752 0.950 . S
C1782 C1781 1.524 . S
C1782 C1783 1.415 . S
C1783 H1753 0.950 . S
C1783 C1778 1.363 . S
C1783 C1782 1.415 . S
H1784 C1781 0.999 . S
H1785 C1766 0.913 . S
H1786 C1804 0.951 . S
H1787 C1806 0.951 . S
H1788 C1808 0.950 . S
H1789 C1809 0.950 . S
H1790 C1811 0.950 . S
H1791 C1814 0.950 . S
H1792 C1815 0.950 . S
H1793 C1817 0.950 . S
H1794 C1818 0.950 . S
H1795 C1819 0.951 . S
H1796 C1821 0.951 . S
H1797 C1823 0.950 . S
H1798 C1824 0.950 . S
H1799 C1826 0.950 . S
H1800 C1829 0.950 . S
H1801 C1830 0.950 . S
H1802 C1832 0.950 . S
H1803 C1833 0.950 . S
C1804 H1786 0.951 . S
C1804 C1805 1.366 . S
C1804 C1806 1.388 . S
C1805 C1804 1.366 . S
C1805 C1809 1.385 . S
C1806 H1787 0.951 . S
C1806 C1804 1.388 . S
C1806 C1807 1.366 . S
C1807 C1806 1.366 . S
C1807 C1808 1.414 . S
C1807 C1810 1.499 . S
C1808 H1788 0.950 . S
C1808 C1807 1.414 . S
C1808 C1809 1.374 . S
C1809 H1789 0.950 . S
C1809 C1805 1.385 . S
C1809 C1808 1.374 . S
C1810 C1807 1.499 . S
C1810 C1811 1.373 . S
C1810 C1812 1.389 . S
C1811 H1790 0.950 . S
C1811 C1810 1.373 . S
C1811 C1827 1.377 1_655 S
C1812 C1810 1.389 . S
C1812 C1813 1.524 . S
C1812 C1826 1.377 1_655 S
C1813 C1812 1.524 . S
C1813 C1814 1.397 . S
C1813 C1818 1.363 . S
C1814 H1791 0.950 . S
C1814 C1813 1.397 . S
C1814 C1815 1.334 . S
C1815 H1792 0.950 . S
C1815 C1814 1.334 . S
C1815 C1816 1.287 . S
C1816 C1815 1.287 . S
C1816 C1817 1.524 . S
C1816 H1835 0.913 . S
C1817 H1793 0.950 . S
C1817 C1816 1.524 . S
C1817 C1818 1.415 . S
C1818 H1794 0.950 . S
C1818 C1813 1.363 . S
C1818 C1817 1.415 . S
C1819 H1795 0.951 . S
C1819 C1820 1.366 . S
C1819 C1821 1.388 . S
C1820 C1819 1.366 . S
C1820 C1824 1.385 . S
C1821 H1796 0.951 . S
C1821 C1819 1.388 . S
C1821 C1822 1.366 . S
C1822 C1821 1.366 . S
C1822 C1823 1.414 . S
C1822 C1825 1.499 . S
C1823 H1797 0.950 . S
C1823 C1822 1.414 . S
C1823 C1824 1.374 . S
C1824 H1798 0.950 . S
C1824 C1820 1.385 . S
C1824 C1823 1.374 . S
C1825 C1822 1.499 . S
C1825 C1826 1.373 . S
C1825 C1827 1.389 . S
C1826 H1799 0.950 . S
C1826 C1812 1.377 1_455 S
C1826 C1825 1.373 . S
C1827 C1811 1.377 1_455 S
C1827 C1825 1.389 . S
C1827 C1828 1.524 . S
C1828 C1827 1.524 . S
C1828 C1829 1.397 . S
C1828 C1833 1.363 . S
C1829 H1800 0.950 . S
C1829 C1828 1.397 . S
C1829 C1830 1.334 . S
C1830 H1801 0.950 . S
C1830 C1829 1.334 . S
C1830 C1831 1.287 . S
C1831 C1830 1.287 . S
C1831 C1832 1.524 . S
C1831 H1834 0.999 . S
C1832 H1802 0.950 . S
C1832 C1831 1.524 . S
C1832 C1833 1.415 . S
C1833 H1803 0.950 . S
C1833 C1828 1.363 . S
C1833 C1832 1.415 . S
H1834 C1831 0.999 . S
H1835 C1816 0.913 . S
H1836 C1854 0.951 . S
H1837 C1856 0.951 . S
H1838 C1858 0.950 . S
H1839 C1859 0.950 . S
H1840 C1861 0.950 . S
H1841 C1864 0.950 . S
H1842 C1865 0.950 . S
H1843 C1867 0.950 . S
H1844 C1868 0.950 . S
H1845 C1869 0.951 . S
H1846 C1871 0.951 . S
H1847 C1873 0.950 . S
H1848 C1874 0.950 . S
H1849 C1876 0.950 . S
H1850 C1879 0.950 . S
H1851 C1880 0.950 . S
H1852 C1882 0.950 . S
H1853 C1883 0.950 . S
C1854 H1836 0.951 . S
C1854 C1855 1.366 . S
C1854 C1856 1.388 . S
C1855 C1854 1.366 . S
C1855 C1859 1.385 . S
C1856 H1837 0.951 . S
C1856 C1854 1.388 . S
C1856 C1857 1.366 . S
C1857 C1856 1.366 . S
C1857 C1858 1.414 . S
C1857 C1860 1.499 . S
C1858 H1838 0.950 . S
C1858 C1857 1.414 . S
C1858 C1859 1.374 . S
C1859 H1839 0.950 . S
C1859 C1855 1.385 . S
C1859 C1858 1.374 . S
C1860 C1857 1.499 . S
C1860 C1861 1.373 . S
C1860 C1862 1.389 . S
C1861 H1840 0.950 . S
C1861 C1860 1.373 . S
C1861 C1877 1.377 1_565 S
C1862 C1860 1.389 . S
C1862 C1863 1.524 . S
C1862 C1876 1.377 1_565 S
C1863 C1862 1.524 . S
C1863 C1864 1.397 . S
C1863 C1868 1.363 . S
C1864 H1841 0.950 . S
C1864 C1863 1.397 . S
C1864 C1865 1.334 . S
C1865 H1842 0.950 . S
C1865 C1864 1.334 . S
C1865 C1866 1.287 . S
C1866 C1865 1.287 . S
C1866 C1867 1.524 . S
C1866 H1885 0.913 . S
C1867 H1843 0.950 . S
C1867 C1866 1.524 . S
C1867 C1868 1.415 . S
C1868 H1844 0.950 . S
C1868 C1863 1.363 . S
C1868 C1867 1.415 . S
C1869 H1845 0.951 . S
C1869 C1870 1.366 . S
C1869 C1871 1.388 . S
C1870 C1869 1.366 . S
C1870 C1874 1.385 . S
C1871 H1846 0.951 . S
C1871 C1869 1.388 . S
C1871 C1872 1.366 . S
C1872 C1871 1.366 . S
C1872 C1873 1.414 . S
C1872 C1875 1.499 . S
C1873 H1847 0.950 . S
C1873 C1872 1.414 . S
C1873 C1874 1.374 . S
C1874 H1848 0.950 . S
C1874 C1870 1.385 . S
C1874 C1873 1.374 . S
C1875 C1872 1.499 . S
C1875 C1876 1.373 . S
C1875 C1877 1.389 . S
C1876 H1849 0.950 . S
C1876 C1862 1.377 1_545 S
C1876 C1875 1.373 . S
C1877 C1861 1.377 1_545 S
C1877 C1875 1.389 . S
C1877 C1878 1.524 . S
C1878 C1877 1.524 . S
C1878 C1879 1.397 . S
C1878 C1883 1.363 . S
C1879 H1850 0.950 . S
C1879 C1878 1.397 . S
C1879 C1880 1.334 . S
C1880 H1851 0.950 . S
C1880 C1879 1.334 . S
C1880 C1881 1.287 . S
C1881 C1880 1.287 . S
C1881 C1882 1.524 . S
C1881 H1884 0.999 . S
C1882 H1852 0.950 . S
C1882 C1881 1.524 . S
C1882 C1883 1.415 . S
C1883 H1853 0.950 . S
C1883 C1878 1.363 . S
C1883 C1882 1.415 . S
H1884 C1881 0.999 . S
H1885 C1866 0.913 . S
H1886 C1904 0.951 . S
H1887 C1906 0.951 . S
H1888 C1908 0.950 . S
H1889 C1909 0.950 . S
H1890 C1911 0.950 . S
H1891 C1914 0.950 . S
H1892 C1915 0.950 . S
H1893 C1917 0.950 . S
H1894 C1918 0.950 . S
H1895 C1919 0.951 . S
H1896 C1921 0.951 . S
H1897 C1923 0.950 . S
H1898 C1924 0.950 . S
H1899 C1926 0.950 . S
H1900 C1929 0.950 . S
H1901 C1930 0.950 . S
H1902 C1932 0.950 . S
H1903 C1933 0.950 . S
C1904 H1886 0.951 . S
C1904 C1905 1.366 . S
C1904 C1906 1.388 . S
C1905 C1904 1.366 . S
C1905 C1909 1.385 . S
C1906 H1887 0.951 . S
C1906 C1904 1.388 . S
C1906 C1907 1.366 . S
C1907 C1906 1.366 . S
C1907 C1908 1.414 . S
C1907 C1910 1.499 . S
C1908 H1888 0.950 . S
C1908 C1907 1.414 . S
C1908 C1909 1.374 . S
C1909 H1889 0.950 . S
C1909 C1905 1.385 . S
C1909 C1908 1.374 . S
C1910 C1907 1.499 . S
C1910 C1911 1.373 . S
C1910 C1912 1.389 . S
C1911 H1890 0.950 . S
C1911 C1910 1.373 . S
C1911 C1927 1.377 1_655 S
C1912 C1910 1.389 . S
C1912 C1913 1.524 . S
C1912 C1926 1.377 1_655 S
C1913 C1912 1.524 . S
C1913 C1914 1.397 . S
C1913 C1918 1.363 . S
C1914 H1891 0.950 . S
C1914 C1913 1.397 . S
C1914 C1915 1.334 . S
C1915 H1892 0.950 . S
C1915 C1914 1.334 . S
C1915 C1916 1.287 . S
C1916 C1915 1.287 . S
C1916 C1917 1.524 . S
C1916 H1935 0.913 . S
C1917 H1893 0.950 . S
C1917 C1916 1.524 . S
C1917 C1918 1.415 . S
C1918 H1894 0.950 . S
C1918 C1913 1.363 . S
C1918 C1917 1.415 . S
C1919 H1895 0.951 . S
C1919 C1920 1.366 . S
C1919 C1921 1.388 . S
C1920 C1919 1.366 . S
C1920 C1924 1.385 . S
C1921 H1896 0.951 . S
C1921 C1919 1.388 . S
C1921 C1922 1.366 . S
C1922 C1921 1.366 . S
C1922 C1923 1.414 . S
C1922 C1925 1.499 . S
C1923 H1897 0.950 . S
C1923 C1922 1.414 . S
C1923 C1924 1.374 . S
C1924 H1898 0.950 . S
C1924 C1920 1.385 . S
C1924 C1923 1.374 . S
C1925 C1922 1.499 . S
C1925 C1926 1.373 . S
C1925 C1927 1.389 . S
C1926 H1899 0.950 . S
C1926 C1912 1.377 1_455 S
C1926 C1925 1.373 . S
C1927 C1911 1.377 1_455 S
C1927 C1925 1.389 . S
C1927 C1928 1.524 . S
C1928 C1927 1.524 . S
C1928 C1929 1.397 . S
C1928 C1933 1.363 . S
C1929 H1900 0.950 . S
C1929 C1928 1.397 . S
C1929 C1930 1.334 . S
C1930 H1901 0.950 . S
C1930 C1929 1.334 . S
C1930 C1931 1.287 . S
C1931 C1930 1.287 . S
C1931 C1932 1.524 . S
C1931 H1934 0.999 . S
C1932 H1902 0.950 . S
C1932 C1931 1.524 . S
C1932 C1933 1.415 . S
C1933 H1903 0.950 . S
C1933 C1928 1.363 . S
C1933 C1932 1.415 . S
H1934 C1931 0.999 . S
H1935 C1916 0.913 . S
H1936 C1954 0.951 . S
H1937 C1956 0.951 . S
H1938 C1958 0.950 . S
H1939 C1959 0.950 . S
H1940 C1961 0.950 . S
H1941 C1964 0.950 . S
H1942 C1965 0.950 . S
H1943 C1967 0.950 . S
H1944 C1968 0.950 . S
H1945 C1969 0.951 . S
H1946 C1971 0.951 . S
H1947 C1973 0.950 . S
H1948 C1974 0.950 . S
H1949 C1976 0.950 . S
H1950 C1979 0.950 . S
H1951 C1980 0.950 . S
H1952 C1982 0.950 . S
H1953 C1983 0.950 . S
C1954 H1936 0.951 . S
C1954 C1955 1.366 . S
C1954 C1956 1.388 . S
C1955 C1954 1.366 . S
C1955 C1959 1.385 . S
C1956 H1937 0.951 . S
C1956 C1954 1.388 . S
C1956 C1957 1.366 . S
C1957 C1956 1.366 . S
C1957 C1958 1.414 . S
C1957 C1960 1.499 . S
C1958 H1938 0.950 . S
C1958 C1957 1.414 . S
C1958 C1959 1.374 . S
C1959 H1939 0.950 . S
C1959 C1955 1.385 . S
C1959 C1958 1.374 . S
C1960 C1957 1.499 . S
C1960 C1961 1.373 . S
C1960 C1962 1.389 . S
C1961 H1940 0.950 . S
C1961 C1960 1.373 . S
C1961 C1977 1.377 1_556 S
C1962 C1960 1.389 . S
C1962 C1963 1.524 . S
C1962 C1976 1.377 1_556 S
C1963 C1962 1.524 . S
C1963 C1964 1.397 . S
C1963 C1968 1.363 . S
C1964 H1941 0.950 . S
C1964 C1963 1.397 . S
C1964 C1965 1.334 . S
C1965 H1942 0.950 . S
C1965 C1964 1.334 . S
C1965 C1966 1.287 . S
C1966 C1965 1.287 . S
C1966 C1967 1.524 . S
C1966 H1985 0.913 . S
C1967 H1943 0.950 . S
C1967 C1966 1.524 . S
C1967 C1968 1.415 . S
C1968 H1944 0.950 . S
C1968 C1963 1.363 . S
C1968 C1967 1.415 . S
C1969 H1945 0.951 . S
C1969 C1970 1.366 . S
C1969 C1971 1.388 . S
C1970 C1969 1.366 . S
C1970 C1974 1.385 . S
C1971 H1946 0.951 . S
C1971 C1969 1.388 . S
C1971 C1972 1.366 . S
C1972 C1971 1.366 . S
C1972 C1973 1.414 . S
C1972 C1975 1.499 . S
C1973 H1947 0.950 . S
C1973 C1972 1.414 . S
C1973 C1974 1.374 . S
C1974 H1948 0.950 . S
C1974 C1970 1.385 . S
C1974 C1973 1.374 . S
C1975 C1972 1.499 . S
C1975 C1976 1.373 . S
C1975 C1977 1.389 . S
C1976 H1949 0.950 . S
C1976 C1962 1.377 1_554 S
C1976 C1975 1.373 . S
C1977 C1961 1.377 1_554 S
C1977 C1975 1.389 . S
C1977 C1978 1.524 . S
C1978 C1977 1.524 . S
C1978 C1979 1.397 . S
C1978 C1983 1.363 . S
C1979 H1950 0.950 . S
C1979 C1978 1.397 . S
C1979 C1980 1.334 . S
C1980 H1951 0.950 . S
C1980 C1979 1.334 . S
C1980 C1981 1.287 . S
C1981 C1980 1.287 . S
C1981 C1982 1.524 . S
C1981 H1984 0.999 . S
C1982 H1952 0.950 . S
C1982 C1981 1.524 . S
C1982 C1983 1.415 . S
C1983 H1953 0.950 . S
C1983 C1978 1.363 . S
C1983 C1982 1.415 . S
H1984 C1981 0.999 . S
H1985 C1966 0.913 . S
H1986 C2004 0.951 . S
H1987 C2006 0.951 . S
H1988 C2008 0.950 . S
H1989 C2009 0.950 . S
H1990 C2011 0.950 . S
H1991 C2014 0.950 . S
H1992 C2015 0.950 . S
H1993 C2017 0.950 . S
H1994 C2018 0.950 . S
H1995 C2019 0.951 . S
H1996 C2021 0.951 . S
H1997 C2023 0.950 . S
H1998 C2024 0.950 . S
H1999 C2026 0.950 . S
H2000 C2029 0.950 . S
H2001 C2030 0.950 . S
H2002 C2032 0.950 . S
H2003 C2033 0.950 . S
C2004 H1986 0.951 . S
C2004 C2005 1.366 . S
C2004 C2006 1.388 . S
C2005 C2004 1.366 . S
C2005 C2009 1.385 . S
C2006 H1987 0.951 . S
C2006 C2004 1.388 . S
C2006 C2007 1.366 . S
C2007 C2006 1.366 . S
C2007 C2008 1.414 . S
C2007 C2010 1.499 . S
C2008 H1988 0.950 . S
C2008 C2007 1.414 . S
C2008 C2009 1.374 . S
C2009 H1989 0.950 . S
C2009 C2005 1.385 . S
C2009 C2008 1.374 . S
C2010 C2007 1.499 . S
C2010 C2011 1.373 . S
C2010 C2012 1.389 . S
C2011 H1990 0.950 . S
C2011 C2010 1.373 . S
C2011 C2027 1.377 1_556 S
C2012 C2010 1.389 . S
C2012 C2013 1.524 . S
C2012 C2026 1.377 1_556 S
C2013 C2012 1.524 . S
C2013 C2014 1.397 . S
C2013 C2018 1.363 . S
C2014 H1991 0.950 . S
C2014 C2013 1.397 . S
C2014 C2015 1.334 . S
C2015 H1992 0.950 . S
C2015 C2014 1.334 . S
C2015 C2016 1.287 . S
C2016 C2015 1.287 . S
C2016 C2017 1.524 . S
C2016 H2035 0.913 . S
C2017 H1993 0.950 . S
C2017 C2016 1.524 . S
C2017 C2018 1.415 . S
C2018 H1994 0.950 . S
C2018 C2013 1.363 . S
C2018 C2017 1.415 . S
C2019 H1995 0.951 . S
C2019 C2020 1.366 . S
C2019 C2021 1.388 . S
C2020 C2019 1.366 . S
C2020 C2024 1.385 . S
C2021 H1996 0.951 . S
C2021 C2019 1.388 . S
C2021 C2022 1.366 . S
C2022 C2021 1.366 . S
C2022 C2023 1.414 . S
C2022 C2025 1.499 . S
C2023 H1997 0.950 . S
C2023 C2022 1.414 . S
C2023 C2024 1.374 . S
C2024 H1998 0.950 . S
C2024 C2020 1.385 . S
C2024 C2023 1.374 . S
C2025 C2022 1.499 . S
C2025 C2026 1.373 . S
C2025 C2027 1.389 . S
C2026 H1999 0.950 . S
C2026 C2012 1.377 1_554 S
C2026 C2025 1.373 . S
C2027 C2011 1.377 1_554 S
C2027 C2025 1.389 . S
C2027 C2028 1.524 . S
C2028 C2027 1.524 . S
C2028 C2029 1.397 . S
C2028 C2033 1.363 . S
C2029 H2000 0.950 . S
C2029 C2028 1.397 . S
C2029 C2030 1.334 . S
C2030 H2001 0.950 . S
C2030 C2029 1.334 . S
C2030 C2031 1.287 . S
C2031 C2030 1.287 . S
C2031 C2032 1.524 . S
C2031 H2034 0.999 . S
C2032 H2002 0.950 . S
C2032 C2031 1.524 . S
C2032 C2033 1.415 . S
C2033 H2003 0.950 . S
C2033 C2028 1.363 . S
C2033 C2032 1.415 . S
H2034 C2031 0.999 . S
H2035 C2016 0.913 . S
H2036 C2054 0.951 . S
H2037 C2056 0.951 . S
H2038 C2058 0.950 . S
H2039 C2059 0.950 . S
H2040 C2061 0.950 . S
H2041 C2064 0.950 . S
H2042 C2065 0.950 . S
H2043 C2067 0.950 . S
H2044 C2068 0.950 . S
H2045 C2069 0.951 . S
H2046 C2071 0.951 . S
H2047 C2073 0.950 . S
H2048 C2074 0.950 . S
H2049 C2076 0.950 . S
H2050 C2079 0.950 . S
H2051 C2080 0.950 . S
H2052 C2082 0.950 . S
H2053 C2083 0.950 . S
C2054 H2036 0.951 . S
C2054 C2055 1.366 . S
C2054 C2056 1.388 . S
C2055 C2054 1.366 . S
C2055 C2059 1.385 . S
C2056 H2037 0.951 . S
C2056 C2054 1.388 . S
C2056 C2057 1.366 . S
C2057 C2056 1.366 . S
C2057 C2058 1.414 . S
C2057 C2060 1.499 . S
C2058 H2038 0.950 . S
C2058 C2057 1.414 . S
C2058 C2059 1.374 . S
C2059 H2039 0.950 . S
C2059 C2055 1.385 . S
C2059 C2058 1.374 . S
C2060 C2057 1.499 . S
C2060 C2061 1.373 . S
C2060 C2062 1.389 . S
C2061 H2040 0.950 . S
C2061 C2060 1.373 . S
C2061 C2077 1.377 1_556 S
C2062 C2060 1.389 . S
C2062 C2063 1.524 . S
C2062 C2076 1.377 1_556 S
C2063 C2062 1.524 . S
C2063 C2064 1.397 . S
C2063 C2068 1.363 . S
C2064 H2041 0.950 . S
C2064 C2063 1.397 . S
C2064 C2065 1.334 . S
C2065 H2042 0.950 . S
C2065 C2064 1.334 . S
C2065 C2066 1.287 . S
C2066 C2065 1.287 . S
C2066 C2067 1.524 . S
C2066 H2085 0.913 . S
C2067 H2043 0.950 . S
C2067 C2066 1.524 . S
C2067 C2068 1.415 . S
C2068 H2044 0.950 . S
C2068 C2063 1.363 . S
C2068 C2067 1.415 . S
C2069 H2045 0.951 . S
C2069 C2070 1.366 . S
C2069 C2071 1.388 . S
C2070 C2069 1.366 . S
C2070 C2074 1.385 . S
C2071 H2046 0.951 . S
C2071 C2069 1.388 . S
C2071 C2072 1.366 . S
C2072 C2071 1.366 . S
C2072 C2073 1.414 . S
C2072 C2075 1.499 . S
C2073 H2047 0.950 . S
C2073 C2072 1.414 . S
C2073 C2074 1.374 . S
C2074 H2048 0.950 . S
C2074 C2070 1.385 . S
C2074 C2073 1.374 . S
C2075 C2072 1.499 . S
C2075 C2076 1.373 . S
C2075 C2077 1.389 . S
C2076 H2049 0.950 . S
C2076 C2062 1.377 1_554 S
C2076 C2075 1.373 . S
C2077 C2061 1.377 1_554 S
C2077 C2075 1.389 . S
C2077 C2078 1.524 . S
C2078 C2077 1.524 . S
C2078 C2079 1.397 . S
C2078 C2083 1.363 . S
C2079 H2050 0.950 . S
C2079 C2078 1.397 . S
C2079 C2080 1.334 . S
C2080 H2051 0.950 . S
C2080 C2079 1.334 . S
C2080 C2081 1.287 . S
C2081 C2080 1.287 . S
C2081 C2082 1.524 . S
C2081 H2084 0.999 . S
C2082 H2052 0.950 . S
C2082 C2081 1.524 . S
C2082 C2083 1.415 . S
C2083 H2053 0.950 . S
C2083 C2078 1.363 . S
C2083 C2082 1.415 . S
H2084 C2081 0.999 . S
H2085 C2066 0.913 . S
H2086 C2104 0.951 . S
H2087 C2106 0.951 . S
H2088 C2108 0.950 . S
H2089 C2109 0.950 . S
H2090 C2111 0.950 . S
H2091 C2114 0.950 . S
H2092 C2115 0.950 . S
H2093 C2117 0.950 . S
H2094 C2118 0.950 . S
H2095 C2119 0.951 . S
H2096 C2121 0.951 . S
H2097 C2123 0.950 . S
H2098 C2124 0.950 . S
H2099 C2126 0.950 . S
H2100 C2129 0.950 . S
H2101 C2130 0.950 . S
H2102 C2132 0.950 . S
H2103 C2133 0.950 . S
C2104 H2086 0.951 . S
C2104 C2105 1.366 . S
C2104 C2106 1.388 . S
C2105 C2104 1.366 . S
C2105 C2109 1.385 . S
C2106 H2087 0.951 . S
C2106 C2104 1.388 . S
C2106 C2107 1.366 . S
C2107 C2106 1.366 . S
C2107 C2108 1.414 . S
C2107 C2110 1.499 . S
C2108 H2088 0.950 . S
C2108 C2107 1.414 . S
C2108 C2109 1.374 . S
C2109 H2089 0.950 . S
C2109 C2105 1.385 . S
C2109 C2108 1.374 . S
C2110 C2107 1.499 . S
C2110 C2111 1.373 . S
C2110 C2112 1.389 . S
C2111 H2090 0.950 . S
C2111 C2110 1.373 . S
C2111 C2127 1.377 1_556 S
C2112 C2110 1.389 . S
C2112 C2113 1.524 . S
C2112 C2126 1.377 1_556 S
C2113 C2112 1.524 . S
C2113 C2114 1.397 . S
C2113 C2118 1.363 . S
C2114 H2091 0.950 . S
C2114 C2113 1.397 . S
C2114 C2115 1.334 . S
C2115 H2092 0.950 . S
C2115 C2114 1.334 . S
C2115 C2116 1.287 . S
C2116 C2115 1.287 . S
C2116 C2117 1.524 . S
C2116 H2135 0.913 . S
C2117 H2093 0.950 . S
C2117 C2116 1.524 . S
C2117 C2118 1.415 . S
C2118 H2094 0.950 . S
C2118 C2113 1.363 . S
C2118 C2117 1.415 . S
C2119 H2095 0.951 . S
C2119 C2120 1.366 . S
C2119 C2121 1.388 . S
C2120 C2119 1.366 . S
C2120 C2124 1.385 . S
C2121 H2096 0.951 . S
C2121 C2119 1.388 . S
C2121 C2122 1.366 . S
C2122 C2121 1.366 . S
C2122 C2123 1.414 . S
C2122 C2125 1.499 . S
C2123 H2097 0.950 . S
C2123 C2122 1.414 . S
C2123 C2124 1.374 . S
C2124 H2098 0.950 . S
C2124 C2120 1.385 . S
C2124 C2123 1.374 . S
C2125 C2122 1.499 . S
C2125 C2126 1.373 . S
C2125 C2127 1.389 . S
C2126 H2099 0.950 . S
C2126 C2112 1.377 1_554 S
C2126 C2125 1.373 . S
C2127 C2111 1.377 1_554 S
C2127 C2125 1.389 . S
C2127 C2128 1.524 . S
C2128 C2127 1.524 . S
C2128 C2129 1.397 . S
C2128 C2133 1.363 . S
C2129 H2100 0.950 . S
C2129 C2128 1.397 . S
C2129 C2130 1.334 . S
C2130 H2101 0.950 . S
C2130 C2129 1.334 . S
C2130 C2131 1.287 . S
C2131 C2130 1.287 . S
C2131 C2132 1.524 . S
C2131 H2134 0.999 . S
C2132 H2102 0.950 . S
C2132 C2131 1.524 . S
C2132 C2133 1.415 . S
C2133 H2103 0.950 . S
C2133 C2128 1.363 . S
C2133 C2132 1.415 . S
H2134 C2131 0.999 . S
H2135 C2116 0.913 . S
H2136 C2154 0.951 . S
H2137 C2156 0.951 . S
H2138 C2158 0.950 . S
H2139 C2159 0.950 . S
H2140 C2161 0.950 . S
H2141 C2164 0.950 . S
H2142 C2165 0.950 . S
H2143 C2167 0.950 . S
H2144 C2168 0.950 . S
H2145 C2169 0.951 . S
H2146 C2171 0.951 . S
H2147 C2173 0.950 . S
H2148 C2174 0.950 . S
H2149 C2176 0.950 . S
H2150 C2179 0.950 . S
H2151 C2180 0.950 . S
H2152 C2182 0.950 . S
H2153 C2183 0.950 . S
C2154 H2136 0.951 . S
C2154 C2155 1.366 . S
C2154 C2156 1.388 . S
C2155 C2154 1.366 . S
C2155 C2159 1.385 . S
C2156 H2137 0.951 . S
C2156 C2154 1.388 . S
C2156 C2157 1.366 . S
C2157 C2156 1.366 . S
C2157 C2158 1.414 . S
C2157 C2160 1.499 . S
C2158 H2138 0.950 . S
C2158 C2157 1.414 . S
C2158 C2159 1.374 . S
C2159 H2139 0.950 . S
C2159 C2155 1.385 . S
C2159 C2158 1.374 . S
C2160 C2157 1.499 . S
C2160 C2161 1.373 . S
C2160 C2162 1.389 . S
C2161 H2140 0.950 . S
C2161 C2160 1.373 . S
C2161 C2177 1.377 . S
C2162 C2160 1.389 . S
C2162 C2163 1.524 . S
C2162 C2176 1.377 . S
C2163 C2162 1.524 . S
C2163 C2164 1.397 . S
C2163 C2168 1.363 . S
C2164 H2141 0.950 . S
C2164 C2163 1.397 . S
C2164 C2165 1.334 . S
C2165 H2142 0.950 . S
C2165 C2164 1.334 . S
C2165 C2166 1.287 . S
C2166 C2165 1.287 . S
C2166 C2167 1.524 . S
C2166 H2185 0.913 . S
C2167 H2143 0.950 . S
C2167 C2166 1.524 . S
C2167 C2168 1.415 . S
C2168 H2144 0.950 . S
C2168 C2163 1.363 . S
C2168 C2167 1.415 . S
C2169 H2145 0.951 . S
C2169 C2170 1.366 . S
C2169 C2171 1.388 . S
C2170 C2169 1.366 . S
C2170 C2174 1.385 . S
C2171 H2146 0.951 . S
C2171 C2169 1.388 . S
C2171 C2172 1.366 . S
C2172 C2171 1.366 . S
C2172 C2173 1.414 . S
C2172 C2175 1.499 . S
C2173 H2147 0.950 . S
C2173 C2172 1.414 . S
C2173 C2174 1.374 . S
C2174 H2148 0.950 . S
C2174 C2170 1.385 . S
C2174 C2173 1.374 . S
C2175 C2172 1.499 . S
C2175 C2176 1.373 . S
C2175 C2177 1.389 . S
C2176 H2149 0.950 . S
C2176 C2162 1.377 . S
C2176 C2175 1.373 . S
C2177 C2161 1.377 . S
C2177 C2175 1.389 . S
C2177 C2178 1.524 . S
C2178 C2177 1.524 . S
C2178 C2179 1.397 . S
C2178 C2183 1.363 . S
C2179 H2150 0.950 . S
C2179 C2178 1.397 . S
C2179 C2180 1.334 . S
C2180 H2151 0.950 . S
C2180 C2179 1.334 . S
C2180 C2181 1.287 . S
C2181 C2180 1.287 . S
C2181 C2182 1.524 . S
C2181 H2184 0.999 . S
C2182 H2152 0.950 . S
C2182 C2181 1.524 . S
C2182 C2183 1.415 . S
C2183 H2153 0.950 . S
C2183 C2178 1.363 . S
C2183 C2182 1.415 . S
H2184 C2181 0.999 . S
H2185 C2166 0.913 . S
H2186 C2204 0.951 . S
H2187 C2206 0.951 . S
H2188 C2208 0.950 . S
H2189 C2209 0.950 . S
H2190 C2211 0.950 . S
H2191 C2214 0.950 . S
H2192 C2215 0.950 . S
H2193 C2217 0.950 . S
H2194 C2218 0.950 . S
H2195 C2219 0.951 . S
H2196 C2221 0.951 . S
H2197 C2223 0.950 . S
H2198 C2224 0.950 . S
H2199 C2226 0.950 . S
H2200 C2229 0.950 . S
H2201 C2230 0.950 . S
H2202 C2232 0.950 . S
H2203 C2233 0.950 . S
C2204 H2186 0.951 . S
C2204 C2205 1.366 . S
C2204 C2206 1.388 . S
C2205 C2204 1.366 . S
C2205 C2209 1.385 . S
C2206 H2187 0.951 . S
C2206 C2204 1.388 . S
C2206 C2207 1.366 . S
C2207 C2206 1.366 . S
C2207 C2208 1.414 . S
C2207 C2210 1.499 . S
C2208 H2188 0.950 . S
C2208 C2207 1.414 . S
C2208 C2209 1.374 . S
C2209 H2189 0.950 . S
C2209 C2205 1.385 . S
C2209 C2208 1.374 . S
C2210 C2207 1.499 . S
C2210 C2211 1.373 . S
C2210 C2212 1.389 . S
C2211 H2190 0.950 . S
C2211 C2210 1.373 . S
C2211 C2227 1.377 . S
C2212 C2210 1.389 . S
C2212 C2213 1.524 . S
C2212 C2226 1.377 . S
C2213 C2212 1.524 . S
C2213 C2214 1.397 . S
C2213 C2218 1.363 . S
C2214 H2191 0.950 . S
C2214 C2213 1.397 . S
C2214 C2215 1.334 . S
C2215 H2192 0.950 . S
C2215 C2214 1.334 . S
C2215 C2216 1.287 . S
C2216 C2215 1.287 . S
C2216 C2217 1.524 . S
C2216 H2235 0.913 . S
C2217 H2193 0.950 . S
C2217 C2216 1.524 . S
C2217 C2218 1.415 . S
C2218 H2194 0.950 . S
C2218 C2213 1.363 . S
C2218 C2217 1.415 . S
C2219 H2195 0.951 . S
C2219 C2220 1.366 . S
C2219 C2221 1.388 . S
C2220 C2219 1.366 . S
C2220 C2224 1.385 . S
C2221 H2196 0.951 . S
C2221 C2219 1.388 . S
C2221 C2222 1.366 . S
C2222 C2221 1.366 . S
C2222 C2223 1.414 . S
C2222 C2225 1.499 . S
C2223 H2197 0.950 . S
C2223 C2222 1.414 . S
C2223 C2224 1.374 . S
C2224 H2198 0.950 . S
C2224 C2220 1.385 . S
C2224 C2223 1.374 . S
C2225 C2222 1.499 . S
C2225 C2226 1.373 . S
C2225 C2227 1.389 . S
C2226 H2199 0.950 . S
C2226 C2212 1.377 . S
C2226 C2225 1.373 . S
C2227 C2211 1.377 . S
C2227 C2225 1.389 . S
C2227 C2228 1.524 . S
C2228 C2227 1.524 . S
C2228 C2229 1.397 . S
C2228 C2233 1.363 . S
C2229 H2200 0.950 . S
C2229 C2228 1.397 . S
C2229 C2230 1.334 . S
C2230 H2201 0.950 . S
C2230 C2229 1.334 . S
C2230 C2231 1.287 . S
C2231 C2230 1.287 . S
C2231 C2232 1.524 . S
C2231 H2234 0.999 . S
C2232 H2202 0.950 . S
C2232 C2231 1.524 . S
C2232 C2233 1.415 . S
C2233 H2203 0.950 . S
C2233 C2228 1.363 . S
C2233 C2232 1.415 . S
H2234 C2231 0.999 . S
H2235 C2216 0.913 . S
H2236 C2254 0.951 . S
H2237 C2256 0.951 . S
H2238 C2258 0.950 . S
H2239 C2259 0.950 . S
H2240 C2261 0.950 . S
H2241 C2264 0.950 . S
H2242 C2265 0.950 . S
H2243 C2267 0.950 . S
H2244 C2268 0.950 . S
H2245 C2269 0.951 . S
H2246 C2271 0.951 . S
H2247 C2273 0.950 . S
H2248 C2274 0.950 . S
H2249 C2276 0.950 . S
H2250 C2279 0.950 . S
H2251 C2280 0.950 . S
H2252 C2282 0.950 . S
H2253 C2283 0.950 . S
C2254 H2236 0.951 . S
C2254 C2255 1.366 . S
C2254 C2256 1.388 . S
C2255 C2254 1.366 . S
C2255 C2259 1.385 . S
C2256 H2237 0.951 . S
C2256 C2254 1.388 . S
C2256 C2257 1.366 . S
C2257 C2256 1.366 . S
C2257 C2258 1.414 . S
C2257 C2260 1.499 . S
C2258 H2238 0.950 . S
C2258 C2257 1.414 . S
C2258 C2259 1.374 . S
C2259 H2239 0.950 . S
C2259 C2255 1.385 . S
C2259 C2258 1.374 . S
C2260 C2257 1.499 . S
C2260 C2261 1.373 . S
C2260 C2262 1.389 . S
C2261 H2240 0.950 . S
C2261 C2260 1.373 . S
C2261 C2277 1.377 . S
C2262 C2260 1.389 . S
C2262 C2263 1.524 . S
C2262 C2276 1.377 . S
C2263 C2262 1.524 . S
C2263 C2264 1.397 . S
C2263 C2268 1.363 . S
C2264 H2241 0.950 . S
C2264 C2263 1.397 . S
C2264 C2265 1.334 . S
C2265 H2242 0.950 . S
C2265 C2264 1.334 . S
C2265 C2266 1.287 . S
C2266 C2265 1.287 . S
C2266 C2267 1.524 . S
C2266 H2285 0.913 . S
C2267 H2243 0.950 . S
C2267 C2266 1.524 . S
C2267 C2268 1.415 . S
C2268 H2244 0.950 . S
C2268 C2263 1.363 . S
C2268 C2267 1.415 . S
C2269 H2245 0.951 . S
C2269 C2270 1.366 . S
C2269 C2271 1.388 . S
C2270 C2269 1.366 . S
C2270 C2274 1.385 . S
C2271 H2246 0.951 . S
C2271 C2269 1.388 . S
C2271 C2272 1.366 . S
C2272 C2271 1.366 . S
C2272 C2273 1.414 . S
C2272 C2275 1.499 . S
C2273 H2247 0.950 . S
C2273 C2272 1.414 . S
C2273 C2274 1.374 . S
C2274 H2248 0.950 . S
C2274 C2270 1.385 . S
C2274 C2273 1.374 . S
C2275 C2272 1.499 . S
C2275 C2276 1.373 . S
C2275 C2277 1.389 . S
C2276 H2249 0.950 . S
C2276 C2262 1.377 . S
C2276 C2275 1.373 . S
C2277 C2261 1.377 . S
C2277 C2275 1.389 . S
C2277 C2278 1.524 . S
C2278 C2277 1.524 . S
C2278 C2279 1.397 . S
C2278 C2283 1.363 . S
C2279 H2250 0.950 . S
C2279 C2278 1.397 . S
C2279 C2280 1.334 . S
C2280 H2251 0.950 . S
C2280 C2279 1.334 . S
C2280 C2281 1.287 . S
C2281 C2280 1.287 . S
C2281 C2282 1.524 . S
C2281 H2284 0.999 . S
C2282 H2252 0.950 . S
C2282 C2281 1.524 . S
C2282 C2283 1.415 . S
C2283 H2253 0.950 . S
C2283 C2278 1.363 . S
C2283 C2282 1.415 . S
H2284 C2281 0.999 . S
H2285 C2266 0.913 . S
H2286 C2304 0.951 . S
H2287 C2306 0.951 . S
H2288 C2308 0.950 . S
H2289 C2309 0.950 . S
H2290 C2311 0.950 . S
H2291 C2314 0.950 . S
H2292 C2315 0.950 . S
H2293 C2317 0.950 . S
H2294 C2318 0.950 . S
H2295 C2319 0.951 . S
H2296 C2321 0.951 . S
H2297 C2323 0.950 . S
H2298 C2324 0.950 . S
H2299 C2326 0.950 . S
H2300 C2329 0.950 . S
H2301 C2330 0.950 . S
H2302 C2332 0.950 . S
H2303 C2333 0.950 . S
C2304 H2286 0.951 . S
C2304 C2305 1.366 . S
C2304 C2306 1.388 . S
C2305 C2304 1.366 . S
C2305 C2309 1.385 . S
C2306 H2287 0.951 . S
C2306 C2304 1.388 . S
C2306 C2307 1.366 . S
C2307 C2306 1.366 . S
C2307 C2308 1.414 . S
C2307 C2310 1.499 . S
C2308 H2288 0.950 . S
C2308 C2307 1.414 . S
C2308 C2309 1.374 . S
C2309 H2289 0.950 . S
C2309 C2305 1.385 . S
C2309 C2308 1.374 . S
C2310 C2307 1.499 . S
C2310 C2311 1.373 . S
C2310 C2312 1.389 . S
C2311 H2290 0.950 . S
C2311 C2310 1.373 . S
C2311 C2327 1.377 . S
C2312 C2310 1.389 . S
C2312 C2313 1.524 . S
C2312 C2326 1.377 . S
C2313 C2312 1.524 . S
C2313 C2314 1.397 . S
C2313 C2318 1.363 . S
C2314 H2291 0.950 . S
C2314 C2313 1.397 . S
C2314 C2315 1.334 . S
C2315 H2292 0.950 . S
C2315 C2314 1.334 . S
C2315 C2316 1.287 . S
C2316 C2315 1.287 . S
C2316 C2317 1.524 . S
C2316 H2335 0.913 . S
C2317 H2293 0.950 . S
C2317 C2316 1.524 . S
C2317 C2318 1.415 . S
C2318 H2294 0.950 . S
C2318 C2313 1.363 . S
C2318 C2317 1.415 . S
C2319 H2295 0.951 . S
C2319 C2320 1.366 . S
C2319 C2321 1.388 . S
C2320 C2319 1.366 . S
C2320 C2324 1.385 . S
C2321 H2296 0.951 . S
C2321 C2319 1.388 . S
C2321 C2322 1.366 . S
C2322 C2321 1.366 . S
C2322 C2323 1.414 . S
C2322 C2325 1.499 . S
C2323 H2297 0.950 . S
C2323 C2322 1.414 . S
C2323 C2324 1.374 . S
C2324 H2298 0.950 . S
C2324 C2320 1.385 . S
C2324 C2323 1.374 . S
C2325 C2322 1.499 . S
C2325 C2326 1.373 . S
C2325 C2327 1.389 . S
C2326 H2299 0.950 . S
C2326 C2312 1.377 . S
C2326 C2325 1.373 . S
C2327 C2311 1.377 . S
C2327 C2325 1.389 . S
C2327 C2328 1.524 . S
C2328 C2327 1.524 . S
C2328 C2329 1.397 . S
C2328 C2333 1.363 . S
C2329 H2300 0.950 . S
C2329 C2328 1.397 . S
C2329 C2330 1.334 . S
C2330 H2301 0.950 . S
C2330 C2329 1.334 . S
C2330 C2331 1.287 . S
C2331 C2330 1.287 . S
C2331 C2332 1.524 . S
C2331 H2334 0.999 . S
C2332 H2302 0.950 . S
C2332 C2331 1.524 . S
C2332 C2333 1.415 . S
C2333 H2303 0.950 . S
C2333 C2328 1.363 . S
C2333 C2332 1.415 . S
H2334 C2331 0.999 . S
H2335 C2316 0.913 . S
H2336 C2354 0.951 . S
H2337 C2356 0.951 . S
H2338 C2358 0.950 . S
H2339 C2359 0.950 . S
H2340 C2361 0.950 . S
H2341 C2364 0.950 . S
H2342 C2365 0.950 . S
H2343 C2367 0.950 . S
H2344 C2368 0.950 . S
H2345 C2369 0.951 . S
H2346 C2371 0.951 . S
H2347 C2373 0.950 . S
H2348 C2374 0.950 . S
H2349 C2376 0.950 . S
H2350 C2379 0.950 . S
H2351 C2380 0.950 . S
H2352 C2382 0.950 . S
H2353 C2383 0.950 . S
C2354 H2336 0.951 . S
C2354 C2355 1.366 . S
C2354 C2356 1.388 . S
C2355 C2354 1.366 . S
C2355 C2359 1.385 . S
C2356 H2337 0.951 . S
C2356 C2354 1.388 . S
C2356 C2357 1.366 . S
C2357 C2356 1.366 . S
C2357 C2358 1.414 . S
C2357 C2360 1.499 . S
C2358 H2338 0.950 . S
C2358 C2357 1.414 . S
C2358 C2359 1.374 . S
C2359 H2339 0.950 . S
C2359 C2355 1.385 . S
C2359 C2358 1.374 . S
C2360 C2357 1.499 . S
C2360 C2361 1.373 . S
C2360 C2362 1.389 . S
C2361 H2340 0.950 . S
C2361 C2360 1.373 . S
C2361 C2377 1.377 . S
C2362 C2360 1.389 . S
C2362 C2363 1.524 . S
C2362 C2376 1.377 . S
C2363 C2362 1.524 . S
C2363 C2364 1.397 . S
C2363 C2368 1.363 . S
C2364 H2341 0.950 . S
C2364 C2363 1.397 . S
C2364 C2365 1.334 . S
C2365 H2342 0.950 . S
C2365 C2364 1.334 . S
C2365 C2366 1.287 . S
C2366 C2365 1.287 . S
C2366 C2367 1.524 . S
C2366 H2385 0.913 . S
C2367 H2343 0.950 . S
C2367 C2366 1.524 . S
C2367 C2368 1.415 . S
C2368 H2344 0.950 . S
C2368 C2363 1.363 . S
C2368 C2367 1.415 . S
C2369 H2345 0.951 . S
C2369 C2370 1.366 . S
C2369 C2371 1.388 . S
C2370 C2369 1.366 . S
C2370 C2374 1.385 . S
C2371 H2346 0.951 . S
C2371 C2369 1.388 . S
C2371 C2372 1.366 . S
C2372 C2371 1.366 . S
C2372 C2373 1.414 . S
C2372 C2375 1.499 . S
C2373 H2347 0.950 . S
C2373 C2372 1.414 . S
C2373 C2374 1.374 . S
C2374 H2348 0.950 . S
C2374 C2370 1.385 . S
C2374 C2373 1.374 . S
C2375 C2372 1.499 . S
C2375 C2376 1.373 . S
C2375 C2377 1.389 . S
C2376 H2349 0.950 . S
C2376 C2362 1.377 . S
C2376 C2375 1.373 . S
C2377 C2361 1.377 . S
C2377 C2375 1.389 . S
C2377 C2378 1.524 . S
C2378 C2377 1.524 . S
C2378 C2379 1.397 . S
C2378 C2383 1.363 . S
C2379 H2350 0.950 . S
C2379 C2378 1.397 . S
C2379 C2380 1.334 . S
C2380 H2351 0.950 . S
C2380 C2379 1.334 . S
C2380 C2381 1.287 . S
C2381 C2380 1.287 . S
C2381 C2382 1.524 . S
C2381 H2384 0.999 . S
C2382 H2352 0.950 . S
C2382 C2381 1.524 . S
C2382 C2383 1.415 . S
C2383 H2353 0.950 . S
C2383 C2378 1.363 . S
C2383 C2382 1.415 . S
H2384 C2381 0.999 . S
H2385 C2366 0.913 . S
H2386 C2404 0.951 . S
H2387 C2406 0.951 . S
H2388 C2408 0.950 . S
H2389 C2409 0.950 . S
H2390 C2411 0.950 . S
H2391 C2414 0.950 . S
H2392 C2415 0.950 . S
H2393 C2417 0.950 . S
H2394 C2418 0.950 . S
H2395 C2419 0.951 . S
H2396 C2421 0.951 . S
H2397 C2423 0.950 . S
H2398 C2424 0.950 . S
H2399 C2426 0.950 . S
H2400 C2429 0.950 . S
H2401 C2430 0.950 . S
H2402 C2432 0.950 . S
H2403 C2433 0.950 . S
C2404 H2386 0.951 . S
C2404 C2405 1.366 . S
C2404 C2406 1.388 . S
C2405 C2404 1.366 . S
C2405 C2409 1.385 . S
C2406 H2387 0.951 . S
C2406 C2404 1.388 . S
C2406 C2407 1.366 . S
C2407 C2406 1.366 . S
C2407 C2408 1.414 . S
C2407 C2410 1.499 . S
C2408 H2388 0.950 . S
C2408 C2407 1.414 . S
C2408 C2409 1.374 . S
C2409 H2389 0.950 . S
C2409 C2405 1.385 . S
C2409 C2408 1.374 . S
C2410 C2407 1.499 . S
C2410 C2411 1.373 . S
C2410 C2412 1.389 . S
C2411 H2390 0.950 . S
C2411 C2410 1.373 . S
C2411 C2427 1.377 . S
C2412 C2410 1.389 . S
C2412 C2413 1.524 . S
C2412 C2426 1.377 . S
C2413 C2412 1.524 . S
C2413 C2414 1.397 . S
C2413 C2418 1.363 . S
C2414 H2391 0.950 . S
C2414 C2413 1.397 . S
C2414 C2415 1.334 . S
C2415 H2392 0.950 . S
C2415 C2414 1.334 . S
C2415 C2416 1.287 . S
C2416 C2415 1.287 . S
C2416 C2417 1.524 . S
C2416 H2435 0.913 . S
C2417 H2393 0.950 . S
C2417 C2416 1.524 . S
C2417 C2418 1.415 . S
C2418 H2394 0.950 . S
C2418 C2413 1.363 . S
C2418 C2417 1.415 . S
C2419 H2395 0.951 . S
C2419 C2420 1.366 . S
C2419 C2421 1.388 . S
C2420 C2419 1.366 . S
C2420 C2424 1.385 . S
C2421 H2396 0.951 . S
C2421 C2419 1.388 . S
C2421 C2422 1.366 . S
C2422 C2421 1.366 . S
C2422 C2423 1.414 . S
C2422 C2425 1.499 . S
C2423 H2397 0.950 . S
C2423 C2422 1.414 . S
C2423 C2424 1.374 . S
C2424 H2398 0.950 . S
C2424 C2420 1.385 . S
C2424 C2423 1.374 . S
C2425 C2422 1.499 . S
C2425 C2426 1.373 . S
C2425 C2427 1.389 . S
C2426 H2399 0.950 . S
C2426 C2412 1.377 . S
C2426 C2425 1.373 . S
C2427 C2411 1.377 . S
C2427 C2425 1.389 . S
C2427 C2428 1.524 . S
C2428 C2427 1.524 . S
C2428 C2429 1.397 . S
C2428 C2433 1.363 . S
C2429 H2400 0.950 . S
C2429 C2428 1.397 . S
C2429 C2430 1.334 . S
C2430 H2401 0.950 . S
C2430 C2429 1.334 . S
C2430 C2431 1.287 . S
C2431 C2430 1.287 . S
C2431 C2432 1.524 . S
C2431 H2434 0.999 . S
C2432 H2402 0.950 . S
C2432 C2431 1.524 . S
C2432 C2433 1.415 . S
C2433 H2403 0.950 . S
C2433 C2428 1.363 . S
C2433 C2432 1.415 . S
H2434 C2431 0.999 . S
H2435 C2416 0.913 . S
H2436 C2454 0.951 . S
H2437 C2456 0.951 . S
H2438 C2458 0.950 . S
H2439 C2459 0.950 . S
H2440 C2461 0.950 . S
H2441 C2464 0.950 . S
H2442 C2465 0.950 . S
H2443 C2467 0.950 . S
H2444 C2468 0.950 . S
H2445 C2469 0.951 . S
H2446 C2471 0.951 . S
H2447 C2473 0.950 . S
H2448 C2474 0.950 . S
H2449 C2476 0.950 . S
H2450 C2479 0.950 . S
H2451 C2480 0.950 . S
H2452 C2482 0.950 . S
H2453 C2483 0.950 . S
C2454 H2436 0.951 . S
C2454 C2455 1.366 . S
C2454 C2456 1.388 . S
C2455 C2454 1.366 . S
C2455 C2459 1.385 . S
C2456 H2437 0.951 . S
C2456 C2454 1.388 . S
C2456 C2457 1.366 . S
C2457 C2456 1.366 . S
C2457 C2458 1.414 . S
C2457 C2460 1.499 . S
C2458 H2438 0.950 . S
C2458 C2457 1.414 . S
C2458 C2459 1.374 . S
C2459 H2439 0.950 . S
C2459 C2455 1.385 . S
C2459 C2458 1.374 . S
C2460 C2457 1.499 . S
C2460 C2461 1.373 . S
C2460 C2462 1.389 . S
C2461 H2440 0.950 . S
C2461 C2460 1.373 . S
C2461 C2477 1.377 . S
C2462 C2460 1.389 . S
C2462 C2463 1.524 . S
C2462 C2476 1.377 . S
C2463 C2462 1.524 . S
C2463 C2464 1.397 . S
C2463 C2468 1.363 . S
C2464 H2441 0.950 . S
C2464 C2463 1.397 . S
C2464 C2465 1.334 . S
C2465 H2442 0.950 . S
C2465 C2464 1.334 . S
C2465 C2466 1.287 . S
C2466 C2465 1.287 . S
C2466 C2467 1.524 . S
C2466 H2485 0.913 . S
C2467 H2443 0.950 . S
C2467 C2466 1.524 . S
C2467 C2468 1.415 . S
C2468 H2444 0.950 . S
C2468 C2463 1.363 . S
C2468 C2467 1.415 . S
C2469 H2445 0.951 . S
C2469 C2470 1.366 . S
C2469 C2471 1.388 . S
C2470 C2469 1.366 . S
C2470 C2474 1.385 . S
C2471 H2446 0.951 . S
C2471 C2469 1.388 . S
C2471 C2472 1.366 . S
C2472 C2471 1.366 . S
C2472 C2473 1.414 . S
C2472 C2475 1.499 . S
C2473 H2447 0.950 . S
C2473 C2472 1.414 . S
C2473 C2474 1.374 . S
C2474 H2448 0.950 . S
C2474 C2470 1.385 . S
C2474 C2473 1.374 . S
C2475 C2472 1.499 . S
C2475 C2476 1.373 . S
C2475 C2477 1.389 . S
C2476 H2449 0.950 . S
C2476 C2462 1.377 . S
C2476 C2475 1.373 . S
C2477 C2461 1.377 . S
C2477 C2475 1.389 . S
C2477 C2478 1.524 . S
C2478 C2477 1.524 . S
C2478 C2479 1.397 . S
C2478 C2483 1.363 . S
C2479 H2450 0.950 . S
C2479 C2478 1.397 . S
C2479 C2480 1.334 . S
C2480 H2451 0.950 . S
C2480 C2479 1.334 . S
C2480 C2481 1.287 . S
C2481 C2480 1.287 . S
C2481 C2482 1.524 . S
C2481 H2484 0.999 . S
C2482 H2452 0.950 . S
C2482 C2481 1.524 . S
C2482 C2483 1.415 . S
C2483 H2453 0.950 . S
C2483 C2478 1.363 . S
C2483 C2482 1.415 . S
H2484 C2481 0.999 . S
H2485 C2466 0.913 . S
H2486 C2504 0.951 . S
H2487 C2506 0.951 . S
H2488 C2508 0.950 . S
H2489 C2509 0.950 . S
H2490 C2511 0.950 . S
H2491 C2514 0.950 . S
H2492 C2515 0.950 . S
H2493 C2517 0.950 . S
H2494 C2518 0.950 . S
H2495 C2519 0.951 . S
H2496 C2521 0.951 . S
H2497 C2523 0.950 . S
H2498 C2524 0.950 . S
H2499 C2526 0.950 . S
H2500 C2529 0.950 . S
H2501 C2530 0.950 . S
H2502 C2532 0.950 . S
H2503 C2533 0.950 . S
C2504 H2486 0.951 . S
C2504 C2505 1.366 . S
C2504 C2506 1.388 . S
C2505 C2504 1.366 . S
C2505 C2509 1.385 . S
C2506 H2487 0.951 . S
C2506 C2504 1.388 . S
C2506 C2507 1.366 . S
C2507 C2506 1.366 . S
C2507 C2508 1.414 . S
C2507 C2510 1.499 . S
C2508 H2488 0.950 . S
C2508 C2507 1.414 . S
C2508 C2509 1.374 . S
C2509 H2489 0.950 . S
C2509 C2505 1.385 . S
C2509 C2508 1.374 . S
C2510 C2507 1.499 . S
C2510 C2511 1.373 . S
C2510 C2512 1.389 . S
C2511 H2490 0.950 . S
C2511 C2510 1.373 . S
C2511 C2527 1.377 . S
C2512 C2510 1.389 . S
C2512 C2513 1.524 . S
C2512 C2526 1.377 . S
C2513 C2512 1.524 . S
C2513 C2514 1.397 . S
C2513 C2518 1.363 . S
C2514 H2491 0.950 . S
C2514 C2513 1.397 . S
C2514 C2515 1.334 . S
C2515 H2492 0.950 . S
C2515 C2514 1.334 . S
C2515 C2516 1.287 . S
C2516 C2515 1.287 . S
C2516 C2517 1.524 . S
C2516 H2535 0.913 . S
C2517 H2493 0.950 . S
C2517 C2516 1.524 . S
C2517 C2518 1.415 . S
C2518 H2494 0.950 . S
C2518 C2513 1.363 . S
C2518 C2517 1.415 . S
C2519 H2495 0.951 . S
C2519 C2520 1.366 . S
C2519 C2521 1.388 . S
C2520 C2519 1.366 . S
C2520 C2524 1.385 . S
C2521 H2496 0.951 . S
C2521 C2519 1.388 . S
C2521 C2522 1.366 . S
C2522 C2521 1.366 . S
C2522 C2523 1.414 . S
C2522 C2525 1.499 . S
C2523 H2497 0.950 . S
C2523 C2522 1.414 . S
C2523 C2524 1.374 . S
C2524 H2498 0.950 . S
C2524 C2520 1.385 . S
C2524 C2523 1.374 . S
C2525 C2522 1.499 . S
C2525 C2526 1.373 . S
C2525 C2527 1.389 . S
C2526 H2499 0.950 . S
C2526 C2512 1.377 . S
C2526 C2525 1.373 . S
C2527 C2511 1.377 . S
C2527 C2525 1.389 . S
C2527 C2528 1.524 . S
C2528 C2527 1.524 . S
C2528 C2529 1.397 . S
C2528 C2533 1.363 . S
C2529 H2500 0.950 . S
C2529 C2528 1.397 . S
C2529 C2530 1.334 . S
C2530 H2501 0.950 . S
C2530 C2529 1.334 . S
C2530 C2531 1.287 . S
C2531 C2530 1.287 . S
C2531 C2532 1.524 . S
C2531 H2534 0.999 . S
C2532 H2502 0.950 . S
C2532 C2531 1.524 . S
C2532 C2533 1.415 . S
C2533 H2503 0.950 . S
C2533 C2528 1.363 . S
C2533 C2532 1.415 . S
H2534 C2531 0.999 . S
H2535 C2516 0.913 . S
H2536 C2554 0.951 . S
H2537 C2556 0.951 . S
H2538 C2558 0.950 . S
H2539 C2559 0.950 . S
H2540 C2561 0.950 . S
H2541 C2564 0.950 . S
H2542 C2565 0.950 . S
H2543 C2567 0.950 . S
H2544 C2568 0.950 . S
H2545 C2569 0.951 . S
H2546 C2571 0.951 . S
H2547 C2573 0.950 . S
H2548 C2574 0.950 . S
H2549 C2576 0.950 . S
H2550 C2579 0.950 . S
H2551 C2580 0.950 . S
H2552 C2582 0.950 . S
H2553 C2583 0.950 . S
C2554 H2536 0.951 . S
C2554 C2555 1.366 . S
C2554 C2556 1.388 . S
C2555 C2554 1.366 . S
C2555 C2559 1.385 . S
C2556 H2537 0.951 . S
C2556 C2554 1.388 . S
C2556 C2557 1.366 . S
C2557 C2556 1.366 . S
C2557 C2558 1.414 . S
C2557 C2560 1.499 . S
C2558 H2538 0.950 . S
C2558 C2557 1.414 . S
C2558 C2559 1.374 . S
C2559 H2539 0.950 . S
C2559 C2555 1.385 . S
C2559 C2558 1.374 . S
C2560 C2557 1.499 . S
C2560 C2561 1.373 . S
C2560 C2562 1.389 . S
C2561 H2540 0.950 . S
C2561 C2560 1.373 . S
C2561 C2577 1.377 . S
C2562 C2560 1.389 . S
C2562 C2563 1.524 . S
C2562 C2576 1.377 . S
C2563 C2562 1.524 . S
C2563 C2564 1.397 . S
C2563 C2568 1.363 . S
C2564 H2541 0.950 . S
C2564 C2563 1.397 . S
C2564 C2565 1.334 . S
C2565 H2542 0.950 . S
C2565 C2564 1.334 . S
C2565 C2566 1.287 . S
C2566 C2565 1.287 . S
C2566 C2567 1.524 . S
C2566 H2585 0.913 . S
C2567 H2543 0.950 . S
C2567 C2566 1.524 . S
C2567 C2568 1.415 . S
C2568 H2544 0.950 . S
C2568 C2563 1.363 . S
C2568 C2567 1.415 . S
C2569 H2545 0.951 . S
C2569 C2570 1.366 . S
C2569 C2571 1.388 . S
C2570 C2569 1.366 . S
C2570 C2574 1.385 . S
C2571 H2546 0.951 . S
C2571 C2569 1.388 . S
C2571 C2572 1.366 . S
C2572 C2571 1.366 . S
C2572 C2573 1.414 . S
C2572 C2575 1.499 . S
C2573 H2547 0.950 . S
C2573 C2572 1.414 . S
C2573 C2574 1.374 . S
C2574 H2548 0.950 . S
C2574 C2570 1.385 . S
C2574 C2573 1.374 . S
C2575 C2572 1.499 . S
C2575 C2576 1.373 . S
C2575 C2577 1.389 . S
C2576 H2549 0.950 . S
C2576 C2562 1.377 . S
C2576 C2575 1.373 . S
C2577 C2561 1.377 . S
C2577 C2575 1.389 . S
C2577 C2578 1.524 . S
C2578 C2577 1.524 . S
C2578 C2579 1.397 . S
C2578 C2583 1.363 . S
C2579 H2550 0.950 . S
C2579 C2578 1.397 . S
C2579 C2580 1.334 . S
C2580 H2551 0.950 . S
C2580 C2579 1.334 . S
C2580 C2581 1.287 . S
C2581 C2580 1.287 . S
C2581 C2582 1.524 . S
C2581 H2584 0.999 . S
C2582 H2552 0.950 . S
C2582 C2581 1.524 . S
C2582 C2583 1.415 . S
C2583 H2553 0.950 . S
C2583 C2578 1.363 . S
C2583 C2582 1.415 . S
H2584 C2581 0.999 . S
H2585 C2566 0.913 . S
H2586 C2604 0.951 . S
H2587 C2606 0.951 . S
H2588 C2608 0.950 . S
H2589 C2609 0.950 . S
H2590 C2611 0.950 . S
H2591 C2614 0.950 . S
H2592 C2615 0.950 . S
H2593 C2617 0.950 . S
H2594 C2618 0.950 . S
H2595 C2619 0.951 . S
H2596 C2621 0.951 . S
H2597 C2623 0.950 . S
H2598 C2624 0.950 . S
H2599 C2626 0.950 . S
H2600 C2629 0.950 . S
H2601 C2630 0.950 . S
H2602 C2632 0.950 . S
H2603 C2633 0.950 . S
C2604 H2586 0.951 . S
C2604 C2605 1.366 . S
C2604 C2606 1.388 . S
C2605 C2604 1.366 . S
C2605 C2609 1.385 . S
C2606 H2587 0.951 . S
C2606 C2604 1.388 . S
C2606 C2607 1.366 . S
C2607 C2606 1.366 . S
C2607 C2608 1.414 . S
C2607 C2610 1.499 . S
C2608 H2588 0.950 . S
C2608 C2607 1.414 . S
C2608 C2609 1.374 . S
C2609 H2589 0.950 . S
C2609 C2605 1.385 . S
C2609 C2608 1.374 . S
C2610 C2607 1.499 . S
C2610 C2611 1.373 . S
C2610 C2612 1.389 . S
C2611 H2590 0.950 . S
C2611 C2610 1.373 . S
C2611 C2627 1.377 . S
C2612 C2610 1.389 . S
C2612 C2613 1.524 . S
C2612 C2626 1.377 . S
C2613 C2612 1.524 . S
C2613 C2614 1.397 . S
C2613 C2618 1.363 . S
C2614 H2591 0.950 . S
C2614 C2613 1.397 . S
C2614 C2615 1.334 . S
C2615 H2592 0.950 . S
C2615 C2614 1.334 . S
C2615 C2616 1.287 . S
C2616 C2615 1.287 . S
C2616 C2617 1.524 . S
C2616 H2635 0.913 . S
C2617 H2593 0.950 . S
C2617 C2616 1.524 . S
C2617 C2618 1.415 . S
C2618 H2594 0.950 . S
C2618 C2613 1.363 . S
C2618 C2617 1.415 . S
C2619 H2595 0.951 . S
C2619 C2620 1.366 . S
C2619 C2621 1.388 . S
C2620 C2619 1.366 . S
C2620 C2624 1.385 . S
C2621 H2596 0.951 . S
C2621 C2619 1.388 . S
C2621 C2622 1.366 . S
C2622 C2621 1.366 . S
C2622 C2623 1.414 . S
C2622 C2625 1.499 . S
C2623 H2597 0.950 . S
C2623 C2622 1.414 . S
C2623 C2624 1.374 . S
C2624 H2598 0.950 . S
C2624 C2620 1.385 . S
C2624 C2623 1.374 . S
C2625 C2622 1.499 . S
C2625 C2626 1.373 . S
C2625 C2627 1.389 . S
C2626 H2599 0.950 . S
C2626 C2612 1.377 . S
C2626 C2625 1.373 . S
C2627 C2611 1.377 . S
C2627 C2625 1.389 . S
C2627 C2628 1.524 . S
C2628 C2627 1.524 . S
C2628 C2629 1.397 . S
C2628 C2633 1.363 . S
C2629 H2600 0.950 . S
C2629 C2628 1.397 . S
C2629 C2630 1.334 . S
C2630 H2601 0.950 . S
C2630 C2629 1.334 . S
C2630 C2631 1.287 . S
C2631 C2630 1.287 . S
C2631 C2632 1.524 . S
C2631 H2634 0.999 . S
C2632 H2602 0.950 . S
C2632 C2631 1.524 . S
C2632 C2633 1.415 . S
C2633 H2603 0.950 . S
C2633 C2628 1.363 . S
C2633 C2632 1.415 . S
H2634 C2631 0.999 . S
H2635 C2616 0.913 . S
H2636 C2654 0.951 . S
H2637 C2656 0.951 . S
H2638 C2658 0.950 . S
H2639 C2659 0.950 . S
H2640 C2661 0.950 . S
H2641 C2664 0.950 . S
H2642 C2665 0.950 . S
H2643 C2667 0.950 . S
H2644 C2668 0.950 . S
H2645 C2669 0.951 . S
H2646 C2671 0.951 . S
H2647 C2673 0.950 . S
H2648 C2674 0.950 . S
H2649 C2676 0.950 . S
H2650 C2679 0.950 . S
H2651 C2680 0.950 . S
H2652 C2682 0.950 . S
H2653 C2683 0.950 . S
C2654 H2636 0.951 . S
C2654 C2655 1.366 . S
C2654 C2656 1.388 . S
C2655 C2654 1.366 . S
C2655 C2659 1.385 . S
C2656 H2637 0.951 . S
C2656 C2654 1.388 . S
C2656 C2657 1.366 . S
C2657 C2656 1.366 . S
C2657 C2658 1.414 . S
C2657 C2660 1.499 . S
C2658 H2638 0.950 . S
C2658 C2657 1.414 . S
C2658 C2659 1.374 . S
C2659 H2639 0.950 . S
C2659 C2655 1.385 . S
C2659 C2658 1.374 . S
C2660 C2657 1.499 . S
C2660 C2661 1.373 . S
C2660 C2662 1.389 . S
C2661 H2640 0.950 . S
C2661 C2660 1.373 . S
C2661 C2677 1.377 . S
C2662 C2660 1.389 . S
C2662 C2663 1.524 . S
C2662 C2676 1.377 . S
C2663 C2662 1.524 . S
C2663 C2664 1.397 . S
C2663 C2668 1.363 . S
C2664 H2641 0.950 . S
C2664 C2663 1.397 . S
C2664 C2665 1.334 . S
C2665 H2642 0.950 . S
C2665 C2664 1.334 . S
C2665 C2666 1.287 . S
C2666 C2665 1.287 . S
C2666 C2667 1.524 . S
C2666 H2685 0.913 . S
C2667 H2643 0.950 . S
C2667 C2666 1.524 . S
C2667 C2668 1.415 . S
C2668 H2644 0.950 . S
C2668 C2663 1.363 . S
C2668 C2667 1.415 . S
C2669 H2645 0.951 . S
C2669 C2670 1.366 . S
C2669 C2671 1.388 . S
C2670 C2669 1.366 . S
C2670 C2674 1.385 . S
C2671 H2646 0.951 . S
C2671 C2669 1.388 . S
C2671 C2672 1.366 . S
C2672 C2671 1.366 . S
C2672 C2673 1.414 . S
C2672 C2675 1.499 . S
C2673 H2647 0.950 . S
C2673 C2672 1.414 . S
C2673 C2674 1.374 . S
C2674 H2648 0.950 . S
C2674 C2670 1.385 . S
C2674 C2673 1.374 . S
C2675 C2672 1.499 . S
C2675 C2676 1.373 . S
C2675 C2677 1.389 . S
C2676 H2649 0.950 . S
C2676 C2662 1.377 . S
C2676 C2675 1.373 . S
C2677 C2661 1.377 . S
C2677 C2675 1.389 . S
C2677 C2678 1.524 . S
C2678 C2677 1.524 . S
C2678 C2679 1.397 . S
C2678 C2683 1.363 . S
C2679 H2650 0.950 . S
C2679 C2678 1.397 . S
C2679 C2680 1.334 . S
C2680 H2651 0.950 . S
C2680 C2679 1.334 . S
C2680 C2681 1.287 . S
C2681 C2680 1.287 . S
C2681 C2682 1.524 . S
C2681 H2684 0.999 . S
C2682 H2652 0.950 . S
C2682 C2681 1.524 . S
C2682 C2683 1.415 . S
C2683 H2653 0.950 . S
C2683 C2678 1.363 . S
C2683 C2682 1.415 . S
H2684 C2681 0.999 . S
H2685 C2666 0.913 . S
H2686 C2704 0.951 . S
H2687 C2706 0.951 . S
H2688 C2708 0.950 . S
H2689 C2709 0.950 . S
H2690 C2711 0.950 . S
H2691 C2714 0.950 . S
H2692 C2715 0.950 . S
H2693 C2717 0.950 . S
H2694 C2718 0.950 . S
H2695 C2719 0.951 . S
H2696 C2721 0.951 . S
H2697 C2723 0.950 . S
H2698 C2724 0.950 . S
H2699 C2726 0.950 . S
H2700 C2729 0.950 . S
H2701 C2730 0.950 . S
H2702 C2732 0.950 . S
H2703 C2733 0.950 . S
C2704 H2686 0.951 . S
C2704 C2705 1.366 . S
C2704 C2706 1.388 . S
C2705 C2704 1.366 . S
C2705 C2709 1.385 . S
C2706 H2687 0.951 . S
C2706 C2704 1.388 . S
C2706 C2707 1.366 . S
C2707 C2706 1.366 . S
C2707 C2708 1.414 . S
C2707 C2710 1.499 . S
C2708 H2688 0.950 . S
C2708 C2707 1.414 . S
C2708 C2709 1.374 . S
C2709 H2689 0.950 . S
C2709 C2705 1.385 . S
C2709 C2708 1.374 . S
C2710 C2707 1.499 . S
C2710 C2711 1.373 . S
C2710 C2712 1.389 . S
C2711 H2690 0.950 . S
C2711 C2710 1.373 . S
C2711 C2727 1.377 . S
C2712 C2710 1.389 . S
C2712 C2713 1.524 . S
C2712 C2726 1.377 . S
C2713 C2712 1.524 . S
C2713 C2714 1.397 . S
C2713 C2718 1.363 . S
C2714 H2691 0.950 . S
C2714 C2713 1.397 . S
C2714 C2715 1.334 . S
C2715 H2692 0.950 . S
C2715 C2714 1.334 . S
C2715 C2716 1.287 . S
C2716 C2715 1.287 . S
C2716 C2717 1.524 . S
C2716 H2735 0.913 . S
C2717 H2693 0.950 . S
C2717 C2716 1.524 . S
C2717 C2718 1.415 . S
C2718 H2694 0.950 . S
C2718 C2713 1.363 . S
C2718 C2717 1.415 . S
C2719 H2695 0.951 . S
C2719 C2720 1.366 . S
C2719 C2721 1.388 . S
C2720 C2719 1.366 . S
C2720 C2724 1.385 . S
C2721 H2696 0.951 . S
C2721 C2719 1.388 . S
C2721 C2722 1.366 . S
C2722 C2721 1.366 . S
C2722 C2723 1.414 . S
C2722 C2725 1.499 . S
C2723 H2697 0.950 . S
C2723 C2722 1.414 . S
C2723 C2724 1.374 . S
C2724 H2698 0.950 . S
C2724 C2720 1.385 . S
C2724 C2723 1.374 . S
C2725 C2722 1.499 . S
C2725 C2726 1.373 . S
C2725 C2727 1.389 . S
C2726 H2699 0.950 . S
C2726 C2712 1.377 . S
C2726 C2725 1.373 . S
C2727 C2711 1.377 . S
C2727 C2725 1.389 . S
C2727 C2728 1.524 . S
C2728 C2727 1.524 . S
C2728 C2729 1.397 . S
C2728 C2733 1.363 . S
C2729 H2700 0.950 . S
C2729 C2728 1.397 . S
C2729 C2730 1.334 . S
C2730 H2701 0.950 . S
C2730 C2729 1.334 . S
C2730 C2731 1.287 . S
C2731 C2730 1.287 . S
C2731 C2732 1.524 . S
C2731 H2734 0.999 . S
C2732 H2702 0.950 . S
C2732 C2731 1.524 . S
C2732 C2733 1.415 . S
C2733 H2703 0.950 . S
C2733 C2728 1.363 . S
C2733 C2732 1.415 . S
H2734 C2731 0.999 . S
H2735 C2716 0.913 . S
C355 C161 1.284 . S
C370 C3 1.366 . S
C405 C17 1.366 . S
C420 C119 1.284 . S
C455 C31 1.366 . S
C470 C133 1.283 . S
C505 C45 1.366 . S
C520 C147 1.282 . S
C555 C189 1.283 . S
C570 C59 1.366 . S
C605 C73 1.366 . S
C620 C203 1.283 . S
C655 C217 1.283 . S
C670 C87 1.366 . S
C705 C175 1.283 . S
C720 C101 1.366 . S
C755 C77 1.284 . S
C770 C115 1.366 . S
C805 C91 1.284 . S
C820 C129 1.366 . S
C855 C143 1.366 . S
C870 C105 1.283 . S
C905 C63 1.284 . S
C920 C157 1.366 . S
C955 C49 1.284 . S
C970 C171 1.366 . S
C1005 C185 1.366 . S
C1020 C7 1.284 . S
C1055 C199 1.366 . S
C1070 C21 1.283 . S
C1105 C213 1.366 . S
C1120 C35 1.283 . S
C1155 C227 1.366 . S
C1170 C329 1.282 . S
C1205 C287 1.284 . S
C1220 C241 1.366 . S
C1255 C255 1.366 . S
C1270 C245 1.282 . S
C1305 C269 1.366 . S
C1320 C259 1.283 . S
C1355 C273 1.283 . S
C1370 C283 1.366 . S
C1405 C297 1.366 . S
C1420 C315 1.284 . S
C1455 C231 1.283 . S
C1470 C311 1.366 . S
C1505 C301 1.283 . S
C1520 C325 1.366 . S
C1555 C9 1.525 . S
C1570 C93 1.525 . S
C1605 C23 1.525 . S
C1620 C107 1.525 . S
C1655 C37 1.525 . S
C1670 C65 1.525 . S
C1705 C79 1.525 . S
C1720 C51 1.525 . S
C1755 C149 1.525 . S
C1770 C121 1.525 . S
C1805 C135 1.525 . S
C1820 C163 1.525 . S
C1855 C177 1.525 . S
C1870 C205 1.525 . S
C1905 C219 1.525 . S
C1920 C191 1.525 . S
C1955 C247 1.525 . S
C1970 C233 1.525 . S
C2005 C261 1.525 . S
C2020 C331 1.524 . S
C2055 C275 1.525 . S
C2070 C303 1.525 . S
C2105 C289 1.525 . S
C2120 C317 1.525 . S
C2155 C8 0.886 . S
C2170 C78 0.886 . S
C2205 C22 0.886 . S
C2220 C92 0.886 . S
C2255 C36 0.886 . S
C2270 C106 0.886 . S
C2305 C64 0.886 . S
C2320 C50 0.886 . S
C2355 C120 0.886 . S
C2370 C330 0.886 . S
C2405 C134 0.886 . S
C2420 C302 0.886 . S
C2455 C316 0.886 . S
C2470 C148 0.886 . S
C2505 C162 0.886 . S
C2520 C232 0.886 . S
C2555 C288 0.886 . S
C2570 C176 0.886 . S
C2605 C246 0.886 . S
C2620 C190 0.886 . S
C2655 C204 0.886 . S
C2670 C260 0.886 . S
C2705 C274 0.886 . S
C2720 C218 0.886 . S
