# Generated by pormake.
# Topology why, (6)-cn, num edge types: 1
# Building blocks:
#     Node 0, Type 0, BuildingBlock: BETDIP_clean_sbu_0, # of connection points: 6
#     Node 1, Type 0, BuildingBlock: BETDIP_clean_sbu_0, # of connection points: 6
#     Node 2, Type 0, BuildingBlock: BETDIP_clean_sbu_0, # of connection points: 6
#     Node 3, Type 0, BuildingBlock: BETDIP_clean_sbu_0, # of connection points: 6
#     Node 4, Type 0, BuildingBlock: BETDIP_clean_sbu_0, # of connection points: 6
#     Node 5, Type 0, BuildingBlock: BETDIP_clean_sbu_0, # of connection points: 6
#     Node 6, Type 0, BuildingBlock: BETDIP_clean_sbu_0, # of connection points: 6
#     Node 7, Type 0, BuildingBlock: BETDIP_clean_sbu_0, # of connection points: 6
#     Node 8, Type 0, BuildingBlock: BETDIP_clean_sbu_0, # of connection points: 6
#     Node 9, Type 0, BuildingBlock: BETDIP_clean_sbu_0, # of connection points: 6
#     Node 10, Type 0, BuildingBlock: BETDIP_clean_sbu_0, # of connection points: 6
#     Node 11, Type 0, BuildingBlock: BETDIP_clean_sbu_0, # of connection points: 6
#     Node 12, Type 0, BuildingBlock: BETDIP_clean_sbu_0, # of connection points: 6
#     Node 13, Type 0, BuildingBlock: BETDIP_clean_sbu_0, # of connection points: 6
#     Node 14, Type 0, BuildingBlock: BETDIP_clean_sbu_0, # of connection points: 6
#     Node 15, Type 0, BuildingBlock: BETDIP_clean_sbu_0, # of connection points: 6
#     Edge 16, Type (0, 0), BuildingBlock: XIVTED_clean_linker_0, # of connection points: 2
#     Edge 17, Type (0, 0), BuildingBlock: XIVTED_clean_linker_0, # of connection points: 2
#     Edge 18, Type (0, 0), BuildingBlock: XIVTED_clean_linker_0, # of connection points: 2
#     Edge 19, Type (0, 0), BuildingBlock: XIVTED_clean_linker_0, # of connection points: 2
#     Edge 20, Type (0, 0), BuildingBlock: XIVTED_clean_linker_0, # of connection points: 2
#     Edge 21, Type (0, 0), BuildingBlock: XIVTED_clean_linker_0, # of connection points: 2
#     Edge 22, Type (0, 0), BuildingBlock: XIVTED_clean_linker_0, # of connection points: 2
#     Edge 23, Type (0, 0), BuildingBlock: XIVTED_clean_linker_0, # of connection points: 2
#     Edge 24, Type (0, 0), BuildingBlock: XIVTED_clean_linker_0, # of connection points: 2
#     Edge 25, Type (0, 0), BuildingBlock: XIVTED_clean_linker_0, # of connection points: 2
#     Edge 26, Type (0, 0), BuildingBlock: XIVTED_clean_linker_0, # of connection points: 2
#     Edge 27, Type (0, 0), BuildingBlock: XIVTED_clean_linker_0, # of connection points: 2
#     Edge 28, Type (0, 0), BuildingBlock: XIVTED_clean_linker_0, # of connection points: 2
#     Edge 29, Type (0, 0), BuildingBlock: XIVTED_clean_linker_0, # of connection points: 2
#     Edge 30, Type (0, 0), BuildingBlock: XIVTED_clean_linker_0, # of connection points: 2
#     Edge 31, Type (0, 0), BuildingBlock: XIVTED_clean_linker_0, # of connection points: 2
#     Edge 32, Type (0, 0), BuildingBlock: XIVTED_clean_linker_0, # of connection points: 2
#     Edge 33, Type (0, 0), BuildingBlock: XIVTED_clean_linker_0, # of connection points: 2
#     Edge 34, Type (0, 0), BuildingBlock: XIVTED_clean_linker_0, # of connection points: 2
#     Edge 35, Type (0, 0), BuildingBlock: XIVTED_clean_linker_0, # of connection points: 2
#     Edge 36, Type (0, 0), BuildingBlock: XIVTED_clean_linker_0, # of connection points: 2
#     Edge 37, Type (0, 0), BuildingBlock: XIVTED_clean_linker_0, # of connection points: 2
#     Edge 38, Type (0, 0), BuildingBlock: XIVTED_clean_linker_0, # of connection points: 2
#     Edge 39, Type (0, 0), BuildingBlock: XIVTED_clean_linker_0, # of connection points: 2
#     Edge 40, Type (0, 0), BuildingBlock: XIVTED_clean_linker_0, # of connection points: 2
#     Edge 41, Type (0, 0), BuildingBlock: XIVTED_clean_linker_0, # of connection points: 2
#     Edge 42, Type (0, 0), BuildingBlock: XIVTED_clean_linker_0, # of connection points: 2
#     Edge 43, Type (0, 0), BuildingBlock: XIVTED_clean_linker_0, # of connection points: 2
#     Edge 44, Type (0, 0), BuildingBlock: XIVTED_clean_linker_0, # of connection points: 2
#     Edge 45, Type (0, 0), BuildingBlock: XIVTED_clean_linker_0, # of connection points: 2
#     Edge 46, Type (0, 0), BuildingBlock: XIVTED_clean_linker_0, # of connection points: 2
#     Edge 47, Type (0, 0), BuildingBlock: XIVTED_clean_linker_0, # of connection points: 2
#     Edge 48, Type (0, 0), BuildingBlock: XIVTED_clean_linker_0, # of connection points: 2
#     Edge 49, Type (0, 0), BuildingBlock: XIVTED_clean_linker_0, # of connection points: 2
#     Edge 50, Type (0, 0), BuildingBlock: XIVTED_clean_linker_0, # of connection points: 2
#     Edge 51, Type (0, 0), BuildingBlock: XIVTED_clean_linker_0, # of connection points: 2
#     Edge 52, Type (0, 0), BuildingBlock: XIVTED_clean_linker_0, # of connection points: 2
#     Edge 53, Type (0, 0), BuildingBlock: XIVTED_clean_linker_0, # of connection points: 2
#     Edge 54, Type (0, 0), BuildingBlock: XIVTED_clean_linker_0, # of connection points: 2
#     Edge 55, Type (0, 0), BuildingBlock: XIVTED_clean_linker_0, # of connection points: 2
#     Edge 56, Type (0, 0), BuildingBlock: XIVTED_clean_linker_0, # of connection points: 2
#     Edge 57, Type (0, 0), BuildingBlock: XIVTED_clean_linker_0, # of connection points: 2
#     Edge 58, Type (0, 0), BuildingBlock: XIVTED_clean_linker_0, # of connection points: 2
#     Edge 59, Type (0, 0), BuildingBlock: XIVTED_clean_linker_0, # of connection points: 2
#     Edge 60, Type (0, 0), BuildingBlock: XIVTED_clean_linker_0, # of connection points: 2
#     Edge 61, Type (0, 0), BuildingBlock: XIVTED_clean_linker_0, # of connection points: 2
#     Edge 62, Type (0, 0), BuildingBlock: XIVTED_clean_linker_0, # of connection points: 2
#     Edge 63, Type (0, 0), BuildingBlock: XIVTED_clean_linker_0, # of connection points: 2
# Relax obj value: 0.441
# Max RMSD: 0.239
# Mean RMSD: 0.239
data_MOF--net-why--node1-BETDIP_clean_sbu_0--edge1-XIVTED_clean_linker_0
_symmetry_space_group_name_H-M    P1
_symmetry_Int_Tables_number       1
_symmetry_cell_setting            triclinic
loop_
_symmetry_equiv_pos_as_xyz
'x, y, z'
_cell_length_a     46.976719
_cell_length_b     46.472175
_cell_length_c     39.811703
_cell_angle_alpha  89.845122
_cell_angle_beta   89.939927
_cell_angle_gamma 90.675633
loop_
_atom_site_label
_atom_site_type_symbol
_atom_site_fract_x
_atom_site_fract_y
_atom_site_fract_z
_atom_type_partial_charge
Tb0 Tb 0.52166 0.25122 0.03751 0.0
Tb1 Tb 0.48811 0.28287 0.08332 0.0
C2 C 0.5554 0.2289 -0.00376 0.0
C3 C 0.57498 0.23769 0.96937 0.0
C4 C 0.58183 0.2173 0.94497 0.0
C5 C 0.59613 0.22565 0.91582 0.0
C6 C 0.60399 0.25456 0.91068 0.0
C7 C 0.59839 0.27486 0.93588 0.0
C8 C 0.58365 0.2665 0.96504 0.0
C9 C 0.50422 0.21919 0.09118 0.0
C10 C 0.55201 0.30617 0.07473 0.0
C11 C 0.45991 0.29495 0.13448 0.0
C12 C 0.42879 0.29643 0.13969 0.0
C13 C 0.41282 0.27136 0.14712 0.0
C14 C 0.38326 0.27244 0.15034 0.0
C15 C 0.36904 0.29861 0.14638 0.0
C16 C 0.38503 0.32366 0.13901 0.0
C17 C 0.41456 0.32258 0.13575 0.0
C18 C 0.48754 0.30686 0.02378 0.0
C19 C 0.4556 0.25211 0.02208 0.0
O20 O 0.52867 0.23406 -0.01004 0.0
O21 O 0.56241 0.23495 0.02727 0.0
O22 O 0.51373 0.2449 0.09117 0.0
O23 O 0.50393 0.21147 0.06022 0.0
O24 O 0.55408 0.28514 0.052 0.0
O25 O 0.52775 0.30881 0.09182 0.0
O26 O 0.46975 0.26921 0.12847 0.0
O27 O 0.47153 0.31464 0.11499 0.0
O28 O 0.50848 0.29473 0.0373 0.0
O29 O 0.46623 0.30746 0.04456 0.0
O30 O 0.45348 0.26021 0.05416 0.0
O31 O 0.48136 0.24972 0.00884 0.0
H32 H 0.57503 0.19505 0.9478 0.0
H33 H 0.60048 0.2096 0.89685 0.0
H34 H 0.60423 0.29728 0.93233 0.0
H35 H 0.57813 0.28259 0.98349 0.0
H36 H 0.42311 0.2508 0.15037 0.0
H37 H 0.37157 0.25282 0.15614 0.0
H38 H 0.37483 0.34435 0.13677 0.0
H39 H 0.42623 0.34228 0.13022 0.0
Tb40 Tb 0.76458 0.7787 0.28657 0.0
Tb41 Tb 0.73106 0.74628 0.33063 0.0
C42 C 0.78668 0.81436 0.2463 0.0
C43 C 0.77744 0.82857 0.21523 0.0
C44 C 0.79589 0.82884 0.18758 0.0
C45 C 0.78736 0.84081 0.15713 0.0
C46 C 0.76027 0.85297 0.15388 0.0
C47 C 0.74179 0.85293 0.18165 0.0
C48 C 0.75021 0.84056 0.21209 0.0
C49 C 0.79451 0.7626 0.34147 0.0
C50 C 0.71285 0.81022 0.32502 0.0
C51 C 0.7194 0.70885 0.37403 0.0
C52 C 0.71296 0.67812 0.37 0.0
C53 C 0.71777 0.65907 0.39655 0.0
C54 C 0.71081 0.62994 0.3931 0.0
C55 C 0.69896 0.61943 0.36295 0.0
C56 C 0.69547 0.63845 0.33583 0.0
C57 C 0.70243 0.66757 0.33933 0.0
C58 C 0.70162 0.76018 0.2771 0.0
C59 C 0.75937 0.71239 0.26725 0.0
O60 O 0.78981 0.78661 0.24405 0.0
O61 O 0.7741 0.82172 0.27421 0.0
O62 O 0.7691 0.77204 0.34108 0.0
O63 O 0.80288 0.76214 0.31077 0.0
O64 O 0.72923 0.80929 0.29775 0.0
O65 O 0.71442 0.78859 0.34687 0.0
O66 O 0.74546 0.71656 0.36639 0.0
O67 O 0.70057 0.7264 0.3616 0.0
O68 O 0.72751 0.75385 0.27804 0.0
O69 O 0.69018 0.75516 0.30622 0.0
O70 O 0.74664 0.71042 0.29715 0.0
O71 O 0.76616 0.73858 0.25607 0.0
H72 H 0.81688 0.81956 0.18948 0.0
H73 H 0.80213 0.84092 0.13621 0.0
H74 H 0.72077 0.8621 0.17966 0.0
H75 H 0.73542 0.84021 0.23298 0.0
H76 H 0.72619 0.66684 0.42022 0.0
H77 H 0.71328 0.616 0.41472 0.0
H78 H 0.68651 0.63099 0.31231 0.0
H79 H 0.69894 0.68196 0.31832 0.0
Tb80 Tb 0.24175 1.01834 0.53715 0.0
Tb81 Tb 0.27349 0.98383 0.58274 0.0
C82 C 0.20894 1.04155 0.49567 0.0
C83 C 0.1889 1.03103 0.47013 0.0
C84 C 0.19271 1.00402 0.45519 0.0
C85 C 0.17648 0.9959 0.42736 0.0
C86 C 0.15592 1.01456 0.41434 0.0
C87 C 0.15105 1.04091 0.43056 0.0
C88 C 0.16755 1.04914 0.45818 0.0
C89 C 0.25991 1.04854 0.59166 0.0
C90 C 0.20817 0.96433 0.57177 0.0
C91 C 0.29184 0.96167 0.63589 0.0
C92 C 0.27773 0.94615 0.6637 0.0
C93 C 0.28903 0.94777 0.69612 0.0
C94 C 0.27871 0.92947 0.72137 0.0
C95 C 0.25681 0.90929 0.71455 0.0
C96 C 0.24389 0.9096 0.68279 0.0
C97 C 0.25447 0.92759 0.65753 0.0
C98 C 0.27314 0.96198 0.52226 0.0
C99 C 0.30829 1.01618 0.52463 0.0
O100 O 0.23566 1.03587 0.48954 0.0
O101 O 0.20203 1.03711 0.52716 0.0
O102 O 0.24968 1.02307 0.59113 0.0
O103 O 0.26019 1.05703 0.56092 0.0
O104 O 0.20797 0.98494 0.54838 0.0
O105 O 0.23165 0.96109 0.58992 0.0
O106 O 0.29109 0.94847 0.60703 0.0
O107 O 0.2867 0.98921 0.633 0.0
O108 O 0.25275 0.97424 0.53661 0.0
O109 O 0.29471 0.96037 0.54246 0.0
O110 O 0.30949 1.00734 0.55669 0.0
O111 O 0.28296 1.01934 0.51047 0.0
H112 H 0.20906 0.98975 0.46419 0.0
H113 H 0.18046 0.97537 0.41554 0.0
H114 H 0.13548 1.0558 0.42087 0.0
H115 H 0.1644 1.07009 0.46937 0.0
H116 H 0.30694 0.96194 0.70142 0.0
H117 H 0.28951 0.92962 0.74538 0.0
H118 H 0.22686 0.89457 0.67676 0.0
H119 H 0.24552 0.92553 0.63269 0.0
Tb120 Tb 0.99996 0.49216 0.79016 0.0
Tb121 Tb 1.03384 0.52491 0.83405 0.0
C122 C 0.97691 0.45793 0.74926 0.0
C123 C 0.98554 0.44425 0.71775 0.0
C124 C 1.01346 0.4346 0.7127 0.0
C125 C 1.02121 0.42251 0.68194 0.0
C126 C 1.00129 0.42044 0.65573 0.0
C127 C 0.97349 0.43032 0.66088 0.0
C128 C 0.96567 0.44203 0.69168 0.0
C129 C 0.96977 0.50933 0.84443 0.0
C130 C 1.0522 0.45996 0.82755 0.0
C131 C 1.0503 0.55279 0.88425 0.0
C132 C 1.07031 0.54409 0.91052 0.0
C133 C 1.06797 0.55537 0.94289 0.0
C134 C 1.08612 0.54598 0.96831 0.0
C135 C 1.10678 0.52494 0.96178 0.0
C136 C 1.1086 0.51328 0.92936 0.0
C137 C 1.09056 0.5228 0.90396 0.0
C138 C 1.06316 0.50937 0.78088 0.0
C139 C 1.00517 0.55891 0.77223 0.0
O140 O 0.97428 0.48578 0.74778 0.0
O141 O 0.98979 0.44965 0.77664 0.0
O142 O 0.99515 0.49981 0.84419 0.0
O143 O 0.96146 0.50905 0.81372 0.0
O144 O 1.03339 0.45947 0.80255 0.0
O145 O 1.05361 0.48316 0.84692 0.0
O146 O 1.06113 0.5564 0.85426 0.0
O147 O 1.02655 0.53789 0.88369 0.0
O148 O 1.03743 0.51649 0.78154 0.0
O149 O 1.07433 0.51354 0.81031 0.0
O150 O 1.01509 0.56113 0.80358 0.0
O151 O 1.00082 0.53257 0.76002 0.0
H152 H 1.02927 0.43655 0.73238 0.0
H153 H 1.04281 0.41516 0.67844 0.0
H154 H 0.95766 0.42864 0.64119 0.0
H155 H 0.94411 0.44954 0.6951 0.0
H156 H 1.05224 0.57155 0.94845 0.0
H157 H 1.08454 0.55593 -0.00721 0.0
H158 H 1.12415 0.49701 0.92352 0.0
H159 H 1.09252 0.51359 0.87915 0.0
Tb160 Tb 0.77191 0.99001 0.88624 0.0
Tb161 Tb 0.74218 1.02382 0.93326 0.0
C162 C 0.79832 0.97572 0.83432 0.0
C163 C 0.78913 0.9596 0.80422 0.0
C164 C 0.77315 0.97276 0.77863 0.0
C165 C 0.76403 0.95689 0.75077 0.0
C166 C 0.77054 0.92757 0.74814 0.0
C167 C 0.78633 0.91448 0.77386 0.0
C168 C 0.79561 0.93033 0.80146 0.0
C169 C 0.75768 0.95956 0.93922 0.0
C170 C 0.80852 1.01763 0.94769 0.0
C171 C 0.70996 1.0461 0.97622 0.0
C172 C 0.69554 1.03618 0.00698 0.0
C173 C 0.69738 1.0533 0.03581 0.0
C174 C 0.68458 1.04427 0.06569 0.0
C175 C 0.66948 1.01803 0.06719 0.0
C176 C 0.66764 1.00081 0.0383 0.0
C177 C 0.6808 1.0097 0.00844 0.0
C178 C 0.75773 1.0546 0.87822 0.0
C179 C 0.7075 0.97246 0.89572 0.0
O180 O 0.79903 0.96104 0.86234 0.0
O181 O 0.78739 1.00124 0.83849 0.0
O182 O 0.76536 0.98558 0.93887 0.0
O183 O 0.76044 0.94862 0.90941 0.0
O184 O 0.8093 1.00709 0.91644 0.0
O185 O 0.78317 1.02318 0.96096 0.0
O186 O 0.73766 1.04718 0.97785 0.0
O187 O 0.70094 1.03551 0.94772 0.0
O188 O 0.74749 1.02909 0.87895 0.0
O189 O 0.7591 1.06287 0.90896 0.0
O190 O 0.70951 0.98949 0.92249 0.0
O191 O 0.72887 0.97252 0.87376 0.0
H192 H 0.76777 0.99533 0.78 0.0
H193 H 0.75213 0.96757 0.73117 0.0
H194 H 0.79247 0.89214 0.77212 0.0
H195 H 0.80803 0.91964 0.82062 0.0
H196 H 0.70878 1.07371 0.03521 0.0
H197 H 0.686 1.05811 0.0875 0.0
H198 H 0.65624 0.98041 0.03893 0.0
H199 H 0.67944 0.9959 -0.01339 0.0
Tb200 Tb 0.53013 0.52781 0.63552 0.0
Tb201 Tb 0.49503 0.4958 0.67839 0.0
C202 C 0.54556 0.557 0.58562 0.0
C203 C 0.55856 0.54811 0.55357 0.0
C204 C 0.543 0.53237 0.52942 0.0
C205 C 0.55628 0.52271 0.50015 0.0
C206 C 0.58535 0.52833 0.49475 0.0
C207 C 0.60077 0.54407 0.51891 0.0
C208 C 0.5875 0.55395 0.54788 0.0
C209 C 0.55882 0.51228 0.68881 0.0
C210 C 0.50132 0.56194 0.69791 0.0
C211 C 0.46859 0.46075 0.71581 0.0
C212 C 0.47351 0.44233 0.74516 0.0
C213 C 0.45181 0.43974 0.76909 0.0
C214 C 0.45534 0.42237 0.79729 0.0
C215 C 0.48063 0.40698 0.80204 0.0
C216 C 0.50259 0.40988 0.77812 0.0
C217 C 0.49909 0.42751 0.74988 0.0
C218 C 0.46685 0.51345 0.62281 0.0
C219 C 0.54702 0.46291 0.64246 0.0
O220 O 0.56136 0.55354 0.61225 0.0
O221 O 0.51914 0.54897 0.59085 0.0
O222 O 0.53299 0.51935 0.68823 0.0
O223 O 0.57022 0.51635 0.65943 0.0
O224 O 0.51349 0.56419 0.6676 0.0
O225 O 0.49446 0.53572 0.70896 0.0
O226 O 0.46996 0.48837 0.72119 0.0
O227 O 0.48077 0.45354 0.6876 0.0
O228 O 0.4918 0.50297 0.62413 0.0
O229 O 0.45807 0.51475 0.65332 0.0
O230 O 0.52957 0.46392 0.66879 0.0
O231 O 0.54711 0.48499 0.62113 0.0
H232 H 0.52064 0.5274 0.53311 0.0
H233 H 0.54386 0.51091 0.48174 0.0
H234 H 0.62302 0.54951 0.51499 0.0
H235 H 0.59995 0.5661 0.56597 0.0
H236 H 0.43205 0.45126 0.76599 0.0
H237 H 0.43827 0.42128 0.81558 0.0
H238 H 0.52229 0.39826 0.78098 0.0
H239 H 0.51621 0.42944 0.73174 0.0
Tb240 Tb 0.99058 0.28749 0.38585 0.0
Tb241 Tb 1.02058 0.25393 0.43247 0.0
C242 C 0.95569 0.29698 0.33979 0.0
C243 C 0.92429 0.29849 0.33997 0.0
C244 C 0.90728 0.27335 0.3387 0.0
C245 C 0.8776 0.2751 0.339 0.0
C246 C 0.86437 0.30199 0.34065 0.0
C247 C 0.88145 0.32701 0.34263 0.0
C248 C 0.91102 0.32528 0.34216 0.0
C249 C 1.00382 0.31818 0.43858 0.0
C250 C 0.95449 0.2602 0.44894 0.0
C251 C 1.05393 0.23183 0.47447 0.0
C252 C 1.06854 0.24118 0.50528 0.0
C253 C 1.06703 0.22338 0.53368 0.0
C254 C 1.08021 0.23165 0.56354 0.0
C255 C 1.09536 0.25783 0.56548 0.0
C256 C 1.0969 0.27574 0.53702 0.0
C257 C 1.08337 0.26759 0.50716 0.0
C258 C 1.00579 0.22347 0.37721 0.0
C259 C 1.05435 0.30561 0.39406 0.0
O260 O 0.96658 0.27165 0.34549 0.0
O261 O 0.9693 0.31745 0.35582 0.0
O262 O 0.99694 0.29191 0.43846 0.0
O263 O 1.00014 0.32917 0.40888 0.0
O264 O 0.95369 0.27244 0.41853 0.0
O265 O 0.97985 0.2532 0.46114 0.0
O266 O 1.02629 0.22995 0.47657 0.0
O267 O 1.06233 0.24335 0.44613 0.0
O268 O 1.01574 0.24911 0.37802 0.0
O269 O 1.00408 0.21497 0.40789 0.0
O270 O 1.05221 0.28915 0.42141 0.0
O271 O 1.0334 0.30446 0.37156 0.0
H272 H 0.91685 0.2523 0.33709 0.0
H273 H 0.86499 0.25549 0.33723 0.0
H274 H 0.872 0.34816 0.34295 0.0
H275 H 0.92349 0.34503 0.34303 0.0
H276 H 1.05563 0.20298 0.53274 0.0
H277 H 1.07902 0.21725 0.58496 0.0
H278 H 1.10834 0.29609 0.53797 0.0
H279 H 1.08454 0.28188 0.48565 0.0
Tb280 Tb 0.23109 0.75 0.1341 0.0
Tb281 Tb 0.26624 0.78147 0.17632 0.0
C282 C 0.21919 0.71288 0.09069 0.0
C283 C 0.21766 0.68114 0.09257 0.0
C284 C 0.24244 0.66445 0.09058 0.0
C285 C 0.24067 0.63443 0.09188 0.0
C286 C 0.21412 0.62053 0.09523 0.0
C287 C 0.18951 0.6373 0.0983 0.0
C288 C 0.19126 0.66723 0.09685 0.0
C289 C 0.20251 0.76441 0.18783 0.0
C290 C 0.26043 0.71551 0.19662 0.0
C291 C 0.29285 0.81722 0.21238 0.0
C292 C 0.28736 0.83741 0.23964 0.0
C293 C 0.31036 0.84688 0.25907 0.0
C294 C 0.30591 0.86465 0.28661 0.0
C295 C 0.27828 0.87349 0.29514 0.0
C296 C 0.2552 0.86423 0.27518 0.0
C297 C 0.2597 0.84619 0.24764 0.0
C298 C 0.29434 0.76386 0.12082 0.0
C299 C 0.21387 0.81418 0.14027 0.0
O300 O 0.2445 0.72454 0.0939 0.0
O301 O 0.19987 0.72685 0.10751 0.0
O302 O 0.22847 0.75776 0.1869 0.0
O303 O 0.19092 0.76022 0.15862 0.0
O304 O 0.24623 0.71396 0.16764 0.0
O305 O 0.2692 0.74134 0.20685 0.0
O306 O 0.28955 0.79011 0.21999 0.0
O307 O 0.28223 0.82343 0.18299 0.0
O308 O 0.26947 0.77461 0.12201 0.0
O309 O 0.30289 0.76202 0.15137 0.0
O310 O 0.23099 0.81282 0.16691 0.0
O311 O 0.21432 0.79248 0.11854 0.0
H312 H 0.2632 0.67451 0.08744 0.0
H313 H 0.25995 0.62208 0.08929 0.0
H314 H 0.16861 0.62731 0.09999 0.0
H315 H 0.1718 0.67945 0.0984 0.0
H316 H 0.33179 0.83999 0.25336 0.0
H317 H 0.32411 0.87069 0.30181 0.0
H318 H 0.2337 0.87078 0.28092 0.0
H319 H 0.24167 0.83881 0.23292 0.0
Tb320 Tb 1.0213 0.75011 0.53608 0.0
Tb321 Tb 0.99098 0.78348 0.58158 0.0
C322 C 1.05517 0.72787 0.49479 0.0
C323 C 1.06946 0.73702 0.46361 0.0
C324 C 1.08251 0.76427 0.46036 0.0
C325 C 1.09551 0.77235 0.43007 0.0
C326 C 1.09518 0.7535 0.40253 0.0
C327 C 1.08185 0.72642 0.40585 0.0
C328 C 1.06922 0.71824 0.43616 0.0
C329 C 1.00647 0.71959 0.59168 0.0
C330 C 1.05462 0.80182 0.57388 0.0
C331 C 0.95549 0.79402 0.62678 0.0
C332 C 0.92497 0.79989 0.62449 0.0
C333 C 0.90728 0.79464 0.65213 0.0
C334 C 0.87831 0.80078 0.65024 0.0
C335 C 0.86657 0.81219 0.62056 0.0
C336 C 0.88424 0.81622 0.59241 0.0
C337 C 0.91322 0.81016 0.59439 0.0
C338 C 1.00421 0.81423 0.52849 0.0
C339 C 0.9555 0.756 0.51838 0.0
O340 O 1.02757 0.72526 0.4929 0.0
O341 O 1.0633 0.74023 0.52267 0.0
O342 O 1.01621 0.7453 0.59074 0.0
O343 O 1.00479 0.7112 0.56101 0.0
O344 O 1.05261 0.78563 0.54646 0.0
O345 O 1.03371 0.80011 0.59642 0.0
O346 O 0.9627 0.76792 0.61837 0.0
O347 O 0.9724 0.81357 0.61366 0.0
O348 O 0.99752 0.78794 0.52889 0.0
O349 O 0.99997 0.82522 0.55797 0.0
O350 O 0.95445 0.76851 0.54851 0.0
O351 O 0.98098 0.74894 0.50664 0.0
H352 H 1.08261 0.77931 0.4811 0.0
H353 H 1.10551 0.79341 0.42803 0.0
H354 H 1.0816 0.71136 0.38513 0.0
H355 H 1.05916 0.6972 0.43815 0.0
H356 H 0.91599 0.78644 0.67542 0.0
H357 H 0.86545 0.79794 0.67262 0.0
H358 H 0.87583 0.82482 0.56918 0.0
H359 H 0.92655 0.81407 0.5726 0.0
Tb360 Tb 0.26511 0.27656 0.79009 0.0
Tb361 Tb 0.23113 0.24257 0.83257 0.0
C362 C 0.28768 0.31269 0.75077 0.0
C363 C 0.27914 0.32732 0.71957 0.0
C364 C 0.27076 0.31163 0.69103 0.0
C365 C 0.26464 0.32586 0.66105 0.0
C366 C 0.26657 0.356 0.65912 0.0
C367 C 0.27379 0.37174 0.68802 0.0
C368 C 0.28016 0.35748 0.71797 0.0
C369 C 0.29499 0.25842 0.84419 0.0
C370 C 0.21226 0.30753 0.82766 0.0
C371 C 0.21364 0.21402 0.88187 0.0
C372 C 0.1924 0.22273 0.90679 0.0
C373 C 0.19528 0.21441 0.94039 0.0
C374 C 0.17653 0.22482 0.96462 0.0
C375 C 0.15468 0.24388 0.95561 0.0
C376 C 0.15211 0.25241 0.92192 0.0
C377 C 0.17081 0.24195 0.89776 0.0
C378 C 0.20209 0.25933 0.7797 0.0
C379 C 0.26059 0.21022 0.77032 0.0
O380 O 0.29174 0.28501 0.74899 0.0
O381 O 0.27393 0.31982 0.77795 0.0
O382 O 0.26951 0.26766 0.84396 0.0
O383 O 0.30359 0.25955 0.81359 0.0
O384 O 0.23149 0.30879 0.80311 0.0
O385 O 0.21058 0.28376 0.84616 0.0
O386 O 0.20422 0.20995 0.85133 0.0
O387 O 0.23718 0.2293 0.88241 0.0
O388 O 0.22785 0.25229 0.78016 0.0
O389 O 0.19083 0.25445 0.80897 0.0
O390 O 0.25055 0.2072 0.80157 0.0
O391 O 0.26476 0.23689 0.75878 0.0
H392 H 0.2695 0.28835 0.69159 0.0
H393 H 0.25886 0.31328 0.63916 0.0
H394 H 0.27568 0.39498 0.68709 0.0
H395 H 0.28651 0.36998 0.7397 0.0
H396 H 0.21209 0.19998 0.94789 0.0
H397 H 0.1787 0.21734 -0.00974 0.0
H398 H 0.1356 0.2671 0.91422 0.0
H399 H 0.16847 0.24908 0.87202 0.0
Tb400 Tb 0.74077 0.51963 0.03566 0.0
Tb401 Tb 0.77152 0.48534 0.08196 0.0
C402 C 0.70836 0.54235 -0.00688 0.0
C403 C 0.69346 0.53301 0.96253 0.0
C404 C 0.67869 0.50656 0.96087 0.0
C405 C 0.66492 0.49836 0.9312 0.0
C406 C 0.66613 0.51627 0.90272 0.0
C407 C 0.68122 0.5425 0.90445 0.0
C408 C 0.69466 0.55082 0.93413 0.0
C409 C 0.75777 0.55031 0.08988 0.0
C410 C 0.70663 0.46768 0.07381 0.0
C411 C 0.79733 0.46932 0.13352 0.0
C412 C 0.78785 0.44906 0.15962 0.0
C413 C 0.79801 0.45184 0.19246 0.0
C414 C 0.78831 0.43306 0.21753 0.0
C415 C 0.76818 0.41127 0.21012 0.0
C416 C 0.75748 0.40911 0.1773 0.0
C417 C 0.76721 0.42788 0.15228 0.0
C418 C 0.75566 0.45547 0.02926 0.0
C419 C 0.8072 0.51335 0.02034 0.0
O420 O 0.73606 0.54315 -0.00894 0.0
O421 O 0.69949 0.53155 0.02167 0.0
O422 O 0.74766 0.52474 0.08968 0.0
O423 O 0.75808 0.55871 0.0591 0.0
O424 O 0.70724 0.48634 0.04832 0.0
O425 O 0.72919 0.46606 0.09383 0.0
O426 O 0.80175 0.45828 0.10381 0.0
O427 O 0.7828 0.49312 0.13209 0.0
O428 O 0.76364 0.48135 0.02959 0.0
O429 O 0.75924 0.44422 0.05884 0.0
O430 O 0.80845 0.50346 0.05188 0.0
O431 O 0.7816 0.51827 0.00726 0.0
H432 H 0.6778 0.49226 0.9824 0.0
H433 H 0.65354 0.47796 0.93039 0.0
H434 H 0.68218 0.55687 0.883 0.0
H435 H 0.70603 0.57123 0.93492 0.0
H436 H 0.81364 0.46832 0.19862 0.0
H437 H 0.79743 0.43494 0.24241 0.0
H438 H 0.74194 0.39264 0.17085 0.0
H439 H 0.75877 0.42565 0.12712 0.0
Tb440 Tb 0.49676 0.99233 0.29103 0.0
Tb441 Tb 0.53229 1.02415 0.33373 0.0
C442 C 0.46991 0.95722 0.25435 0.0
C443 C 0.4753 0.9379 0.22614 0.0
C444 C 0.50079 0.93949 0.20782 0.0
C445 C 0.50404 0.92307 0.1787 0.0
C446 C 0.48181 0.90486 0.16765 0.0
C447 C 0.45691 0.90242 0.18714 0.0
C448 C 0.45367 0.91888 0.21608 0.0
C449 C 0.46842 1.01102 0.34601 0.0
C450 C 0.54922 0.95906 0.326 0.0
C451 C 0.55031 1.05195 0.38326 0.0
C452 C 0.57025 1.04281 0.40941 0.0
C453 C 0.56784 1.05367 0.44199 0.0
C454 C 0.58618 1.04423 0.46719 0.0
C455 C 0.6072 1.02371 0.46016 0.0
C456 C 0.60906 1.01236 0.4276 0.0
C457 C 0.59066 1.02175 0.40247 0.0
C458 C 0.56046 1.00844 0.28007 0.0
C459 C 0.5025 1.05859 0.27229 0.0
O460 O 0.47255 0.98465 0.24786 0.0
O461 O 0.48123 0.95029 0.28314 0.0
O462 O 0.49326 1.00026 0.34509 0.0
O463 O 0.45984 1.0119 0.31541 0.0
O464 O 0.53106 0.95999 0.30036 0.0
O465 O 0.55023 0.98137 0.34679 0.0
O466 O 0.56094 1.05478 0.35308 0.0
O467 O 0.52597 1.03807 0.38325 0.0
O468 O 0.53474 1.01579 0.28106 0.0
O469 O 0.57208 1.01207 0.30935 0.0
O470 O 0.51378 1.06061 0.3031 0.0
O471 O 0.49654 1.03241 0.26058 0.0
H472 H 0.51774 0.95403 0.21547 0.0
H473 H 0.52341 0.92552 0.16416 0.0
H474 H 0.43965 0.88816 0.17967 0.0
H475 H 0.43393 0.91732 0.23012 0.0
H476 H 0.55195 1.06961 0.44787 0.0
H477 H 0.58458 1.05381 0.49188 0.0
H478 H 0.62498 0.99653 0.42148 0.0
H479 H 0.59254 1.01269 0.37755 0.0
Tb480 Tb 0.27273 0.49087 0.38474 0.0
Tb481 Tb 0.2395 0.5219 0.42924 0.0
C482 C 0.28898 0.47375 0.32831 0.0
C483 C 0.27736 0.45184 0.30557 0.0
C484 C 0.28359 0.45333 0.27129 0.0
C485 C 0.27371 0.43185 0.24968 0.0
C486 C 0.25727 0.40855 0.26205 0.0
C487 C 0.24974 0.40808 0.29622 0.0
C488 C 0.25985 0.42946 0.31784 0.0
C489 C 0.27032 0.46389 0.44209 0.0
C490 C 0.30724 0.51898 0.44356 0.0
C491 C 0.21554 0.54819 0.47661 0.0
C492 C 0.20156 0.53991 0.50833 0.0
C493 C 0.21338 0.51936 0.53004 0.0
C494 C 0.19913 0.51132 0.55954 0.0
C495 C 0.17282 0.52363 0.56773 0.0
C496 C 0.16121 0.54428 0.54596 0.0
C497 C 0.17546 0.55232 0.51657 0.0
C498 C 0.24723 0.5497 0.36973 0.0
C499 C 0.20669 0.46939 0.39492 0.0
O500 O 0.2993 0.46422 0.35666 0.0
O501 O 0.273 0.49632 0.33242 0.0
O502 O 0.25016 0.47767 0.42895 0.0
O503 O 0.29145 0.46198 0.4212 0.0
O504 O 0.30972 0.50969 0.41209 0.0
O505 O 0.28133 0.52373 0.4557 0.0
O506 O 0.24299 0.54451 0.47463 0.0
O507 O 0.20248 0.54002 0.44933 0.0
O508 O 0.26584 0.53682 0.38711 0.0
O509 O 0.22353 0.54624 0.38548 0.0
O510 O 0.20745 0.48666 0.4215 0.0
O511 O 0.2296 0.46967 0.37504 0.0
H512 H 0.29685 0.47062 0.2614 0.0
H513 H 0.28044 0.43269 0.22368 0.0
H514 H 0.23698 0.39061 0.30651 0.0
H515 H 0.25468 0.428 0.34429 0.0
H516 H 0.23352 0.50944 0.52419 0.0
H517 H 0.20852 0.49522 0.57569 0.0
H518 H 0.14123 0.55454 0.55184 0.0
H519 H 0.16603 0.56823 0.50018 0.0
Tb520 Tb 1.03276 1.02753 0.13757 0.0
Tb521 Tb 0.99749 0.99479 0.18044 0.0
C522 C 1.04525 1.06458 0.09411 0.0
C523 C 1.046 1.09633 0.09522 0.0
C524 C 1.02081 1.11248 0.09574 0.0
C525 C 1.02208 0.14256 0.09593 0.0
C526 C 1.04851 0.15698 0.09586 0.0
C527 C 1.07358 0.14071 0.09659 0.0
C528 C 1.07233 1.11077 0.09612 0.0
C529 C 1.05985 1.01284 0.19261 0.0
C530 C 1.00266 1.06132 0.19975 0.0
C531 C 0.97426 0.95929 0.22 0.0
C532 C 0.98278 0.94505 0.25129 0.0
C533 C 1.01071 0.93538 0.25628 0.0
C534 C 1.01844 0.92308 0.287 0.0
C535 C 0.9985 0.92085 0.31323 0.0
C536 C 0.97069 0.93071 0.30813 0.0
C537 C 0.96289 0.9426 0.27737 0.0
C538 C 0.96918 1.01172 0.12488 0.0
C539 C 1.05044 0.96336 0.14323 0.0
O540 O 1.02014 1.05222 0.09623 0.0
O541 O 1.06428 1.05147 0.11231 0.0
O542 O 1.03416 1.01954 0.19002 0.0
O543 O 1.07258 1.01733 0.16406 0.0
O544 O 1.0157 1.06346 0.17 0.0
O545 O 0.99587 1.03503 0.21077 0.0
O546 O 0.97128 0.98706 0.22217 0.0
O547 O 0.98747 0.95184 0.19253 0.0
O548 O 0.99455 1.00208 0.12603 0.0
O549 O 0.95993 1.01169 0.15523 0.0
O550 O 1.03286 0.96392 0.16955 0.0
O551 O 1.05027 0.98548 0.12196 0.0
H552 H 1.00011 1.10198 0.09534 0.0
H553 H 1.00244 0.15453 0.09515 0.0
H554 H 1.09434 0.15108 0.09563 0.0
H555 H 1.09205 1.0989 0.09573 0.0
H556 H 1.02656 0.93753 0.23662 0.0
H557 H 1.04004 0.91574 0.29046 0.0
H558 H 0.95486 0.92892 0.32787 0.0
H559 H 0.94133 0.95017 0.27403 0.0
Tb560 Tb 0.49043 0.78656 0.88256 0.0
Tb561 Tb 0.52251 0.75527 0.93077 0.0
C562 C 0.46299 0.79654 0.83031 0.0
C563 C 0.43198 0.79828 0.82494 0.0
C564 C 0.41744 0.77527 0.80947 0.0
C565 C 0.38779 0.77508 0.80725 0.0
C566 C 0.37203 0.79812 0.82003 0.0
C567 C 0.38668 0.82126 0.83523 0.0
C568 C 0.41628 0.82129 0.8378 0.0
C569 C 0.48866 0.81195 0.94112 0.0
C570 C 0.4566 0.75758 0.94491 0.0
C571 C 0.55584 0.73272 0.97229 0.0
C572 C 0.57525 0.74129 -0.00071 0.0
C573 C 0.58119 0.72097 0.02423 0.0
C574 C 0.59552 0.72919 0.0533 0.0
C575 C 0.60432 0.75788 0.05781 0.0
C576 C 0.59958 0.77807 0.03214 0.0
C577 C 0.5848 0.76985 0.00306 0.0
C578 C 0.50588 0.72307 0.87705 0.0
C579 C 0.55398 0.80971 0.8932 0.0
O580 O 0.47181 0.77085 0.83865 0.0
O581 O 0.4752 0.81699 0.84811 0.0
O582 O 0.50957 0.79877 0.92901 0.0
O583 O 0.46829 0.81315 0.91916 0.0
O584 O 0.45501 0.76532 0.91255 0.0
O585 O 0.48206 0.75482 0.95867 0.0
O586 O 0.52908 0.73793 0.9784 0.0
O587 O 0.56314 0.73889 0.94132 0.0
O588 O 0.516 0.74848 0.8771 0.0
O589 O 0.50444 0.7156 0.90811 0.0
O590 O 0.55417 0.79052 0.91835 0.0
O591 O 0.53121 0.81068 0.87321 0.0
H592 H 0.42902 0.75713 0.79956 0.0
H593 H 0.37726 0.75688 0.79548 0.0
H594 H 0.37539 0.83981 0.84447 0.0
H595 H 0.42678 0.83931 0.85 0.0
H596 H 0.57372 0.69891 0.02182 0.0
H597 H 0.59921 0.71323 0.07266 0.0
H598 H 0.60617 0.80032 0.03523 0.0
H599 H 0.57999 0.78589 0.98418 0.0
Tb600 Tb 0.72949 0.25029 0.63617 0.0
Tb601 Tb 0.76301 0.28285 0.68031 0.0
C602 C 0.71885 0.21363 0.5918 0.0
C603 C 0.71768 0.18185 0.59268 0.0
C604 C 0.74267 0.16543 0.5915 0.0
C605 C 0.74111 0.13536 0.59175 0.0
C606 C 0.71458 1.12119 0.59331 0.0
C607 C 0.68973 0.13771 0.59547 0.0
C608 C 0.69126 0.16764 0.59501 0.0
C609 C 0.70015 0.26393 0.68983 0.0
C610 C 0.75826 0.2163 0.69923 0.0
C611 C 0.78489 0.31841 0.7205 0.0
C612 C 0.77508 0.33258 0.75122 0.0
C613 C 0.79357 0.33418 0.77871 0.0
C614 C 0.78433 0.34565 0.80905 0.0
C615 C 0.75647 0.35592 0.81232 0.0
C616 C 0.73799 0.35466 0.78466 0.0
C617 C 0.74715 0.34279 0.75434 0.0
C618 C 0.7929 0.26685 0.6255 0.0
C619 C 0.7108 0.3142 0.6421 0.0
O620 O 0.74394 0.22562 0.59578 0.0
O621 O 0.69908 0.2269 0.60868 0.0
O622 O 0.7261 0.25774 0.68877 0.0
O623 O 0.68868 0.25934 0.66063 0.0
O624 O 0.74592 0.2143 0.6691 0.0
O625 O 0.76453 0.24252 0.7106 0.0
O626 O 0.78785 0.29065 0.72304 0.0
O627 O 0.77273 0.32582 0.69233 0.0
O628 O 0.76748 0.27631 0.62597 0.0
O629 O 0.80135 0.26642 0.65616 0.0
O630 O 0.72755 0.31339 0.66905 0.0
O631 O 0.71197 0.29246 0.62047 0.0
H632 H 0.76342 0.17573 0.58982 0.0
H633 H 0.76058 1.12321 0.58987 0.0
H634 H 0.66886 1.12754 0.59576 0.0
H635 H 0.67165 0.17967 0.59584 0.0
H636 H 0.81511 0.32622 0.77681 0.0
H637 H 0.79908 0.34676 0.82993 0.0
H638 H 0.71639 0.36238 0.7867 0.0
H639 H 0.73235 0.34131 0.73356 0.0
H640 H 0.61073 0.30218 0.06429 0.0
H641 H 0.6492 0.47071 0.05527 0.0
H642 H 0.54718 0.36464 0.08899 0.0
H643 H 0.70933 0.41107 0.09645 0.0
H644 H 0.61222 0.43237 0.05714 0.0
H645 H 0.64737 0.34079 0.0657 0.0
C646 C 0.60433 0.3239 0.07016 0.0
C647 C 0.5754 0.32957 0.07703 0.0
C648 C 0.63347 0.42766 0.06592 0.0
C649 C 0.6179 0.37491 0.07734 0.0
C650 C 0.65475 0.4497 0.06489 0.0
C651 C 0.68279 0.44476 0.07624 0.0
C652 C 0.64006 0.39964 0.07714 0.0
C653 C 0.6882 0.41651 0.08792 0.0
C654 C 0.62543 0.34609 0.07094 0.0
C655 C 0.56899 0.35868 0.08402 0.0
N656 N 0.66745 0.39527 0.08762 0.0
N657 N 0.5897 0.37997 0.08354 0.0
H658 H 0.68195 0.82995 0.38101 0.0
H659 H 0.56793 0.9229 0.27529 0.0
H660 H 0.68838 0.84244 0.27409 0.0
H661 H 0.58485 0.94204 0.37915 0.0
H662 H 0.60712 0.88825 0.27584 0.0
H663 H 0.64291 0.86528 0.38244 0.0
C664 C 0.6754 0.84007 0.35779 0.0
C665 C 0.68931 0.83298 0.32743 0.0
C666 C 0.60223 0.8998 0.29867 0.0
C667 C 0.64313 0.87354 0.32878 0.0
C668 C 0.57949 0.91965 0.29848 0.0
C669 C 0.57228 0.93574 0.32731 0.0
C670 C 0.61822 0.89494 0.32812 0.0
C671 C 0.58902 0.93033 0.35624 0.0
C672 C 0.65291 0.8604 0.35865 0.0
C673 C 0.67906 0.84711 0.29832 0.0
N674 N 0.6107 0.91049 0.35596 0.0
N675 N 0.65681 0.86612 0.29971 0.0
H676 H 0.16936 0.94802 0.5225 0.0
H677 H 1.07706 0.83167 0.6296 0.0
H678 H 0.19188 0.92734 0.62445 0.0
H679 H 1.08534 0.82723 0.52204 0.0
H680 H 1.1135 0.87062 0.63019 0.0
H681 H 0.13333 0.9091 0.52371 0.0
C682 C 0.16663 0.93565 0.54539 0.0
C683 C 0.18414 0.94158 0.57345 0.0
C684 C 1.10742 0.86108 0.60644 0.0
C685 C 0.1418 0.89614 0.57509 0.0
C686 C 1.08646 0.83866 0.60607 0.0
C687 C 1.07789 0.82535 0.57576 0.0
C688 C 1.11969 0.87137 0.57618 0.0
C689 C 1.09115 0.83611 0.54622 0.0
C690 C 0.14599 0.91309 0.54596 0.0
C691 C 0.17926 0.92398 0.60207 0.0
N692 N 1.11081 0.85829 0.54718 0.0
N693 N 0.15867 0.90254 0.60222 0.0
H694 H 1.10839 0.46602 0.84819 0.0
H695 H 0.15545 0.30063 0.84572 0.0
H696 H 1.05043 0.40108 0.81128 0.0
H697 H 0.2144 0.36692 0.81409 0.0
H698 H 1.11696 0.33628 0.84567 0.0
H699 H 0.1468 0.43031 0.84829 0.0
C700 C 1.10343 0.44419 0.84055 0.0
C701 C 1.0755 0.43699 0.82998 0.0
C702 C 0.13832 0.34316 0.83896 0.0
C703 C 1.12032 0.39502 0.83059 0.0
C704 C 0.16059 0.32273 0.83924 0.0
C705 C 0.18883 0.33035 0.83018 0.0
C706 C 0.14391 0.37221 0.83061 0.0
C707 C 0.19334 0.35963 0.82148 0.0
C708 C 0.12566 0.42372 0.84038 0.0
C709 C 1.07124 0.40805 0.81986 0.0
N710 N 0.17151 0.37926 0.82237 0.0
N711 N 1.09301 0.38834 0.82087 0.0
H712 H 0.67464 0.94969 0.94743 0.0
H713 H 0.57075 0.8455 0.83949 0.0
H714 H 0.68604 0.941 0.84064 0.0
H715 H 0.59075 0.82901 0.94321 0.0
H716 H 0.60728 0.88431 0.83885 0.0
H717 H 0.63886 0.91067 0.94603 0.0
C718 C 0.66946 0.93998 0.92347 0.0
C719 C 0.68372 0.94941 0.89406 0.0
C720 C 0.60378 0.87216 0.86174 0.0
C721 C 0.6416 0.90374 0.89229 0.0
C722 C 0.58276 0.84981 0.86216 0.0
C723 C 0.57736 0.83319 0.89136 0.0
C724 C 0.61939 0.87904 0.89104 0.0
C725 C 0.59395 0.84056 0.91985 0.0
C726 C 0.64897 0.91733 0.92277 0.0
C727 C 0.67586 0.935 0.86407 0.0
N728 N 0.61363 0.86276 0.91903 0.0
N729 N 0.6554 0.91339 0.86394 0.0
H730 H 0.56744 0.42808 0.69353 0.0
H731 H 0.6788 0.33315 0.58659 0.0
H732 H 0.58121 0.44483 0.58832 0.0
H733 H 0.68748 0.34734 0.6929 0.0
H734 H 0.63977 0.3685 0.5854 0.0
H735 H 0.60666 0.39354 0.6926 0.0
C736 C 0.57832 0.42434 0.66997 0.0
C737 C 0.57022 0.43974 0.64089 0.0
C738 C 0.65027 0.364 0.60899 0.0
C739 C 0.61623 0.39903 0.63965 0.0
C740 C 0.67276 0.34366 0.60971 0.0
C741 C 0.68729 0.33702 0.63983 0.0
C742 C 0.64114 0.37763 0.63878 0.0
C743 C 0.67767 0.35163 0.66884 0.0
C744 C 0.6011 0.40455 0.66957 0.0
C745 C 0.58612 0.4337 0.61148 0.0
N746 N 0.65542 0.37066 0.66762 0.0
N747 N 0.60786 0.41391 0.61158 0.0
H748 H 1.08585 0.32903 0.44605 0.0
H749 H 0.19137 0.43396 0.34044 0.0
H750 H 1.07656 0.33715 0.33888 0.0
H751 H 0.16908 0.44938 0.44371 0.0
H752 H 0.15504 0.39493 0.33863 0.0
H753 H 1.12136 0.36816 0.44513 0.0
C754 C 1.09141 0.33866 0.4221 0.0
C755 C 1.0778 0.32902 0.39246 0.0
C756 C 0.15799 0.40692 0.36166 0.0
C757 C 1.11972 0.3749 0.39125 0.0
C758 C 0.17888 0.4294 0.36274 0.0
C759 C 0.18357 0.44576 0.3922 0.0
C760 C 0.1418 0.39972 0.39051 0.0
C761 C 0.16645 0.43803 0.42019 0.0
C762 C 1.11178 0.36139 0.42168 0.0
C763 C 1.0862 0.34334 0.36249 0.0
N764 N 0.1469 0.41577 0.41872 0.0
N765 N 1.10655 0.36508 0.36264 0.0
H766 H 0.18129 0.83336 0.0855 0.0
H767 H 1.07152 0.92872 0.19411 0.0
H768 H 0.19164 0.84767 0.19158 0.0
H769 H 1.08417 0.94525 0.08867 0.0
H770 H 1.11074 0.89417 0.1927 0.0
H771 H 0.14243 0.86887 0.08502 0.0
C772 C 0.17566 0.84395 0.10873 0.0
C773 C 0.19059 0.83727 0.13855 0.0
C774 C 1.10494 0.90514 0.16973 0.0
C775 C 0.1446 0.87808 0.13835 0.0
C776 C 1.08217 0.92494 0.17041 0.0
C777 C 1.07375 0.9403 0.14141 0.0
C778 C 1.11974 0.89955 0.1396 0.0
C779 C 1.08934 0.93419 0.11179 0.0
C780 C 0.15326 0.86438 0.10841 0.0
C781 C 0.18148 0.85198 0.16773 0.0
N782 N 1.11107 0.91439 0.11162 0.0
N783 N 0.15928 0.8711 0.16691 0.0
H784 H 0.34983 0.24043 0.84081 0.0
H785 H 0.39815 0.26576 0.03433 0.0
H786 H 0.29022 0.27105 0.91435 0.0
H787 H 0.45306 0.23651 0.9551 0.0
H788 H 0.3582 0.26689 -0.00621 0.0
H789 H 0.38641 0.23803 0.88398 0.0
C790 C 0.3442 0.24665 0.86614 0.0
C791 C 0.31635 0.25604 0.87325 0.0
C792 C 0.37894 0.26003 0.98531 0.0
C793 C 0.35958 0.25331 0.92442 0.0
C794 C 0.40193 0.2592 0.00865 0.0
C795 C 0.42955 0.2507 -0.00124 0.0
C796 C 0.38316 0.25235 0.95133 0.0
C797 C 0.43254 0.24301 0.9646 0.0
C798 C 0.36543 0.24525 0.89107 0.0
C799 C 0.31109 0.26362 0.90714 0.0
N800 N 0.41004 0.24404 0.94263 0.0
N801 N 0.33233 0.26217 0.93119 0.0
H802 H 0.77864 0.60519 0.08738 0.0
H803 H 0.74106 0.65526 0.27711 0.0
H804 H 0.74065 0.54623 0.15848 0.0
H805 H 0.78035 0.70972 0.20219 0.0
H806 H 0.74112 0.61507 0.23657 0.0
H807 H 0.77983 0.64244 0.13039 0.0
C808 C 0.77056 0.59986 0.11215 0.0
C809 C 0.75949 0.57203 0.11871 0.0
C810 C 0.74987 0.63575 0.22901 0.0
C811 C 0.76071 0.61591 0.16948 0.0
C812 C 0.74993 0.6589 0.25233 0.0
C813 C 0.76084 0.68644 0.24361 0.0
C814 C 0.76077 0.63975 0.19622 0.0
C815 C 0.77177 0.68924 0.21066 0.0
C816 C 0.77126 0.62144 0.13695 0.0
C817 C 0.74948 0.56709 0.15181 0.0
N818 N 0.77138 0.66656 0.1886 0.0
N819 N 0.75023 0.58866 0.17568 0.0
H820 H 0.41481 1.03257 0.3444 0.0
H821 H 0.36505 0.99895 0.53612 0.0
H822 H 0.4726 0.99439 0.41506 0.0
H823 H 0.31225 1.03601 0.45937 0.0
H824 H 0.40504 0.99803 0.49543 0.0
H825 H 0.37855 1.03477 0.38807 0.0
C826 C 0.42011 1.02465 0.36921 0.0
C827 C 0.44733 1.01322 0.37537 0.0
C828 C 0.38476 1.00657 0.48757 0.0
C829 C 0.4045 1.01566 0.4271 0.0
C830 C 0.36178 1.0073 0.51103 0.0
C831 C 0.33472 1.01787 0.50184 0.0
C832 C 0.38107 1.01646 0.45423 0.0
C833 C 0.33232 1.0278 0.46835 0.0
C834 C 0.39907 1.02592 0.39443 0.0
C835 C 0.45221 1.00347 0.40861 0.0
N836 N 0.35476 1.02681 0.44629 0.0
N837 N 0.43117 1.00483 0.43295 0.0
H838 H 0.98733 0.66406 0.59007 0.0
H839 H 1.02108 0.61696 0.78229 0.0
H840 H 1.02276 0.72476 0.66052 0.0
H841 H 0.98659 0.56071 0.70637 0.0
H842 H 1.02113 0.65689 0.74096 0.0
H843 H 0.98627 0.62737 0.6339 0.0
C844 C 0.99491 0.66989 0.61485 0.0
C845 C 1.00522 0.69806 0.62094 0.0
C846 C 1.01341 0.63586 0.73338 0.0
C847 C 1.00407 0.65479 0.6728 0.0
C848 C 1.01325 0.61288 0.75716 0.0
C849 C 1.00366 0.58489 0.7484 0.0
C850 C 1.00392 0.63124 0.70011 0.0
C851 C 0.99412 0.58152 0.71495 0.0
C852 C 0.99428 0.64862 0.64016 0.0
C853 C 1.01456 0.70362 0.65414 0.0
N854 N 0.99455 0.60402 0.69252 0.0
N855 N 1.01384 0.68234 0.67855 0.0
H856 H 0.86448 0.99819 0.93651 0.0
H857 H 0.91661 1.03521 0.12593 0.0
H858 H 0.81328 1.03858 0.01234 0.0
H859 H 0.9729 0.99389 0.05614 0.0
H860 H 0.88018 1.03747 0.08265 0.0
H861 H 0.90476 0.99728 0.97664 0.0
C862 C 0.8616 1.00716 0.96133 0.0
C863 C 0.8349 1.01864 0.97046 0.0
C864 C 0.90041 1.02793 0.07637 0.0
C865 C 0.88163 1.01738 0.01735 0.0
C866 C 0.92155 1.02663 0.10137 0.0
C867 C 0.94839 1.01429 0.09535 0.0
C868 C 0.90531 1.01673 0.04409 0.0
C869 C 0.95284 1.00374 0.06243 0.0
C870 C 0.88477 1.00649 0.98443 0.0
C871 C 0.83304 1.02955 0.0035 0.0
N872 N 0.93165 1.00508 0.03831 0.0
N873 N 0.85566 1.0286 0.02525 0.0
H874 H 0.52114 0.72891 0.80859 0.0
H875 H 0.48052 0.56294 0.76286 0.0
H876 H 0.48719 0.6669 0.87891 0.0
H877 H 0.51977 0.61967 0.69021 0.0
H878 H 0.48119 0.60201 0.80387 0.0
H879 H 0.51941 0.69151 0.76426 0.0
C880 C 0.51321 0.70759 0.81484 0.0
C881 C 0.50435 0.70145 0.84807 0.0
C882 C 0.48959 0.60619 0.77898 0.0
C883 C 0.50225 0.6579 0.79673 0.0
C884 C 0.48913 0.58365 0.75519 0.0
C885 C 0.49998 0.58745 0.72234 0.0
C886 C 0.501 0.63351 0.77063 0.0
C887 C 0.51096 0.61528 0.71485 0.0
C888 C 0.51228 0.68608 0.78937 0.0
C889 C 0.49436 0.67307 0.85403 0.0
N890 N 0.51121 0.63696 0.73854 0.0
N891 N 0.49362 0.65277 0.82904 0.0
H892 H 0.84616 0.24477 0.62799 0.0
H893 H 0.89875 0.27979 0.43791 0.0
H894 H 0.78964 0.28357 0.55635 0.0
H895 H 0.94989 0.23963 0.51411 0.0
H896 H 0.85848 0.28096 0.47804 0.0
H897 H 0.88301 0.2424 0.58506 0.0
C898 C 0.84127 0.25279 0.60312 0.0
C899 C 0.81422 0.26445 0.59645 0.0
C900 C 0.87845 0.27175 0.48595 0.0
C901 C 0.85776 0.26184 0.54563 0.0
C902 C 0.90163 0.27096 0.46286 0.0
C903 C 0.9283 0.25944 0.47207 0.0
C904 C 0.88154 0.261 0.51898 0.0
C905 C 0.93014 0.24866 0.50523 0.0
C906 C 0.86264 0.25141 0.57833 0.0
C907 C 0.80986 0.2743 0.56316 0.0
N908 N 0.90749 0.24977 0.52701 0.0
N909 N 0.83126 0.27288 0.53928 0.0
H910 H 0.20881 0.56769 0.32254 0.0
H911 H 0.29451 0.70652 0.25306 0.0
H912 H 0.29499 0.58467 0.35389 0.0
H913 H 0.228 0.66493 0.1961 0.0
H914 H 0.29333 0.66589 0.29318 0.0
H915 H 0.21341 0.60594 0.28007 0.0
C916 C 0.22886 0.57932 0.32049 0.0
C917 C 0.25156 0.57234 0.34212 0.0
C918 C 0.2791 0.66551 0.27181 0.0
C919 C 0.2568 0.6177 0.29314 0.0
C920 C 0.27974 0.68886 0.24869 0.0
C921 C 0.26149 0.68956 0.22048 0.0
C922 C 0.25949 0.64254 0.26771 0.0
C923 C 0.24275 0.6657 0.21695 0.0
C924 C 0.23145 0.60135 0.29603 0.0
C925 C 0.27688 0.58875 0.33786 0.0
N926 N 0.24205 0.64369 0.24018 0.0
N927 N 0.27866 0.61065 0.3144 0.0
H928 H 0.84798 0.74098 0.33886 0.0
H929 H 0.89972 0.77541 0.52898 0.0
H930 H 0.79109 0.77903 0.41055 0.0
H931 H 0.95139 0.73562 0.45317 0.0
H932 H 0.85969 0.77662 0.4887 0.0
H933 H 0.88477 0.73862 0.3818 0.0
C934 C 0.84299 0.74884 0.36375 0.0
C935 C 0.81586 0.76027 0.37045 0.0
C936 C 0.87972 0.76748 0.4809 0.0
C937 C 0.85931 0.75767 0.42124 0.0
C938 C 0.90277 0.76668 0.50407 0.0
C939 C 0.92951 0.75524 0.49503 0.0
C940 C 0.883 0.75682 0.44793 0.0
C941 C 0.93157 0.74456 0.46192 0.0
C942 C 0.86434 0.74746 0.38853 0.0
C943 C 0.81138 0.76993 0.40373 0.0
N944 N 0.90902 0.74568 0.44002 0.0
N945 N 0.83274 0.76852 0.4276 0.0
H946 H 0.279 0.21012 0.70434 0.0
H947 H 0.24498 1.0422 0.66048 0.0
H948 H 0.24592 0.15156 0.77919 0.0
H949 H 0.27743 1.10493 0.59003 0.0
H950 H 0.24587 1.07976 0.70474 0.0
H951 H 0.27937 0.17079 0.66366 0.0
C952 C 0.27196 0.18897 0.71255 0.0
C953 C 0.26256 0.18473 0.74592 0.0
C954 C 0.25287 1.08529 0.67961 0.0
C955 C 0.26269 0.13834 0.69801 0.0
C956 C 0.25243 1.06368 0.65418 0.0
C957 C 0.26111 1.06998 0.62091 0.0
C958 C 0.26213 1.11373 0.67213 0.0
C959 C 0.27042 1.0986 0.61491 0.0
C960 C 0.27211 0.16626 0.68896 0.0
C961 C 0.25358 0.15631 0.75412 0.0
N962 N 0.27062 1.11897 0.6398 0.0
N963 N 0.25382 0.13451 0.73059 0.0
H964 H 0.86391 0.49676 0.03237 0.0
H965 H 0.91561 0.5292 0.8412 0.0
H966 H 0.81115 0.53186 0.95433 0.0
H967 H 0.97332 0.49388 0.91398 0.0
H968 H 0.87854 0.53093 0.88394 0.0
H969 H 0.90433 0.49621 -0.00762 0.0
C970 C 0.86069 0.50462 0.00705 0.0
C971 C 0.83351 0.51452 -0.00269 0.0
C972 C 0.89921 0.52282 0.89096 0.0
C973 C 0.88048 0.51369 0.95053 0.0
C974 C 0.92072 0.52181 0.86628 0.0
C975 C 0.94818 0.51131 0.87331 0.0
C976 C 0.90438 0.51321 0.92395 0.0
C977 C 0.95278 0.50223 0.90686 0.0
C978 C 0.88396 0.50417 0.98403 0.0
C979 C 0.83128 0.52408 0.96366 0.0
N980 N 0.93127 0.5033 0.93065 0.0
N981 N 0.85403 0.52337 0.94198 0.0
H982 H 0.51921 1.11657 0.28156 0.0
H983 H 0.4862 0.16306 0.08874 0.0
H984 H 0.48307 1.06033 0.2067 0.0
H985 H 0.51884 0.22437 0.16025 0.0
H986 H 0.48494 1.12627 0.13269 0.0
H987 H 0.51916 0.15627 0.23994 0.0
C988 C 0.51101 1.11243 0.25662 0.0
C989 C 0.50097 1.08451 0.24828 0.0
C990 C 0.49236 0.14769 0.13912 0.0
C991 C 0.50117 0.13061 0.19956 0.0
C992 C 0.49309 0.169 0.11376 0.0
C993 C 0.50267 0.19736 0.12016 0.0
C994 C 0.50137 0.15406 0.17207 0.0
C995 C 0.51122 0.20307 0.15363 0.0
C996 C 0.51109 0.13529 0.23265 0.0
C997 C 0.49095 1.0811 0.215 0.0
N998 N 0.51046 0.1818 0.17802 0.0
N999 N 0.49139 1.10346 0.19235 0.0
H1000 H 0.30887 0.53824 0.50915 0.0
H1001 H 0.47273 0.49778 0.55398 0.0
H1002 H 0.36446 0.50231 0.43453 0.0
H1003 H 0.41232 0.53318 0.62348 0.0
H1004 H 0.43584 0.49993 0.50933 0.0
H1005 H 0.34785 0.53738 0.54969 0.0
C1006 C 0.32932 0.53037 0.50093 0.0
C1007 C 0.33282 0.52057 0.46764 0.0
C1008 C 0.43069 0.50729 0.53435 0.0
C1009 C 0.37882 0.51916 0.5155 0.0
C1010 C 0.45192 0.50612 0.56001 0.0
C1011 C 0.44605 0.51525 0.59314 0.0
C1012 C 0.4031 0.51774 0.54149 0.0
C1013 C 0.41831 0.52576 0.59875 0.0
C1014 C 0.35183 0.52978 0.52446 0.0
C1015 C 0.36034 0.51042 0.45949 0.0
N1016 N 0.39832 0.52662 0.57368 0.0
N1017 N 0.38198 0.50992 0.483 0.0
H1018 H 1.02289 0.22903 0.30893 0.0
H1019 H 0.98103 1.06303 0.26433 0.0
H1020 H 0.98567 0.16812 0.37832 0.0
H1021 H 1.0213 1.11877 0.1914 0.0
H1022 H 0.98132 1.10264 0.30466 0.0
H1023 H 1.02145 0.19134 0.26479 0.0
C1024 C 1.01429 0.20794 0.31501 0.0
C1025 C 1.00445 0.20215 0.34793 0.0
C1026 C 0.99003 1.10648 0.27984 0.0
C1027 C 1.00272 0.15832 0.29693 0.0
C1028 C 0.98978 1.08363 0.25647 0.0
C1029 C 1.00102 1.08701 0.22379 0.0
C1030 C 1.00167 0.13366 0.27122 0.0
C1031 C 1.01219 1.11472 0.21597 0.0
C1032 C 1.01353 0.18626 0.28967 0.0
C1033 C 0.99364 0.17403 0.3537 0.0
N1034 N 1.01227 0.13669 0.23926 0.0
N1035 N 0.99312 0.15361 0.32891 0.0
H1036 H 0.28961 0.78078 0.05209 0.0
H1037 H 0.45343 0.73839 0.01033 0.0
H1038 H 0.34828 0.74281 0.12188 0.0
H1039 H 0.39956 0.77455 0.93401 0.0
H1040 H 0.41378 0.73955 0.04986 0.0
H1041 H 0.32703 0.77852 0.00794 0.0
C1042 C 0.31013 0.77184 0.05828 0.0
C1043 C 0.31536 0.76203 0.09135 0.0
C1044 C 0.41029 0.74713 0.02448 0.0
C1045 C 0.35891 0.75944 0.04032 0.0
C1046 C 0.43319 0.74639 0.00152 0.0
C1047 C 0.4304 0.75612 0.96807 0.0
C1048 C 0.38356 0.75791 0.0148 0.0
C1049 C 0.40311 0.76642 0.95913 0.0
C1050 C 0.33166 0.77061 0.03292 0.0
C1051 C 0.34277 0.75079 0.09719 0.0
N1052 N 0.38104 0.76712 0.98214 0.0
N1053 N 0.36304 0.7499 0.07243 0.0
H1054 H 0.74063 0.15888 0.6896 0.0
H1055 H 0.77783 1.10978 0.88009 0.0
H1056 H 0.77889 0.21384 0.76434 0.0
H1057 H 0.74058 1.05014 0.80968 0.0
H1058 H 0.77876 0.14683 0.83664 0.0
H1059 H 0.74087 1.11874 0.73055 0.0
C1060 C 0.74932 0.16263 0.71441 0.0
C1061 C 0.75989 0.19031 0.72297 0.0
C1062 C 0.77038 1.12573 0.83032 0.0
C1063 C 0.75997 0.1437 0.77081 0.0
C1064 C 0.76984 1.10426 0.85539 0.0
C1065 C 0.75904 1.0763 0.84918 0.0
C1066 C 0.75999 1.11997 0.79784 0.0
C1067 C 0.74915 1.07112 0.81613 0.0
C1068 C 0.74935 0.13953 0.73797 0.0
C1069 C 0.77058 0.19326 0.75597 0.0
N1070 N 0.74978 1.09259 0.79198 0.0
N1071 N 0.77027 0.17063 0.77823 0.0
H1072 H 0.65423 0.28357 0.89893 0.0
H1073 H 0.64258 0.2639 0.69942 0.0
H1074 H 0.58214 0.24497 0.84866 0.0
H1075 H 0.72233 0.27632 0.7513 0.0
H1076 H 0.61745 0.26816 0.75313 0.0
H1077 H 0.6768 0.29216 0.84391 0.0
C1078 C 0.64304 0.27734 0.87626 0.0
C1079 C 0.61656 0.26324 0.87812 0.0
C1080 C 0.64044 0.27017 0.75269 0.0
C1081 C 0.64191 0.27298 0.81561 0.0
C1082 C 0.65473 0.26776 0.7221 0.0
C1083 C 0.6845 0.26917 0.72119 0.0
C1084 C 0.65609 0.27426 0.78242 0.0
C1085 C 0.69932 0.27457 0.75115 0.0
C1086 C 0.6559 0.2821 0.845 0.0
C1087 C 0.60281 0.25554 0.84817 0.0
N1088 N 0.68496 0.27673 0.78066 0.0
N1089 N 0.61569 0.26038 0.81815 0.0
H1090 H 0.76429 0.83012 0.09109 0.0
H1091 H 0.74614 0.98104 0.00115 0.0
H1092 H 0.73799 0.90634 0.14366 0.0
H1093 H 0.75385 0.90129 0.94691 0.0
H1094 H 0.73955 0.95377 0.05324 0.0
H1095 H 0.75709 0.85501 0.03768 0.0
C1096 C 0.75669 0.85204 0.09128 0.0
C1097 C 0.75203 0.86638 0.12169 0.0
C1098 C 0.74242 0.94218 0.02994 0.0
C1099 C 0.74401 0.89509 0.06085 0.0
C1100 C 0.74631 0.95773 0.00027 0.0
C1101 C 0.7511 0.94328 0.96998 0.0
C1102 C 0.74374 0.91201 0.02928 0.0
C1103 C 0.75059 0.91316 0.96993 0.0
C1104 C 0.75249 0.86621 0.06084 0.0
C1105 C 0.74184 0.8946 0.12069 0.0
N1106 N 0.74742 0.89848 -0.00073 0.0
N1107 N 0.73859 0.90823 0.09072 0.0
H1108 H 1.03407 1.00533 0.25299 0.0
H1109 H 0.17947 0.99505 0.35606 0.0
H1110 H 1.11675 1.00644 0.20571 0.0
H1111 H 1.0992 1.01918 0.39986 0.0
H1112 H 0.15583 0.98899 0.3017 0.0
H1113 H 1.05687 1.00002 0.30764 0.0
C1114 C 1.05708 1.00438 0.25415 0.0
C1115 C 1.07367 1.00696 0.22498 0.0
C1116 C 0.14337 0.99533 0.32329 0.0
C1117 C 1.09984 1.00077 0.28737 0.0
C1118 C 0.15677 0.99859 0.35434 0.0
C1119 C 0.14124 1.00778 0.3824 0.0
C1120 C 1.11422 1.00107 0.32042 0.0
C1121 C 1.11197 1.01239 0.37873 0.0
C1122 C 1.07005 1.00133 0.28534 0.0
C1123 C 1.1033 1.00494 0.22776 0.0
N1124 N 1.09942 1.00908 0.34825 0.0
N1125 N 1.11553 1.0022 0.25855 0.0
H1126 H 1.00584 0.37652 0.44562 0.0
H1127 H 1.02778 0.36926 0.64477 0.0
H1128 H 1.01565 0.29725 0.50081 0.0
H1129 H 0.99183 0.44191 0.59299 0.0
H1130 H 1.03461 0.34536 0.59053 0.0
H1131 H 1.01168 0.40338 0.4981 0.0
C1132 C 1.00944 0.36484 0.46878 0.0
C1133 C 1.00969 0.33472 0.4692 0.0
C1134 C 1.02552 0.36666 0.59107 0.0
C1135 C 1.01662 0.3651 0.52894 0.0
C1136 C 1.02179 0.38033 0.62191 0.0
C1137 C 1.00893 0.40738 0.62322 0.0
C1138 C 1.01654 0.38032 0.56146 0.0
C1139 C 1.00142 0.42083 0.59298 0.0
C1140 C 1.01275 0.38012 0.49865 0.0
C1141 C 1.01479 0.32051 0.49967 0.0
N1142 N 1.00518 0.40709 0.56331 0.0
N1143 N 1.01788 0.33584 0.52845 0.0
H1144 H 0.69118 1.01777 0.13075 0.0
H1145 H 0.53923 1.00446 0.21662 0.0
H1146 H 0.61448 0.99943 0.07495 0.0
H1147 H 0.61768 1.00145 0.27265 0.0
H1148 H 0.56634 1.00035 0.16444 0.0
H1149 H 0.66497 1.00967 0.18309 0.0
C1150 C 0.66885 1.01175 0.1296 0.0
C1151 C 0.65485 1.00951 0.09862 0.0
C1152 C 0.57763 1.00028 0.18813 0.0
C1153 C 0.62469 1.00046 0.15823 0.0
C1154 C 0.56217 1.00268 0.21788 0.0
C1155 C 0.57635 1.00362 0.24882 0.0
C1156 C 0.60749 0.99924 0.1894 0.0
C1157 C 0.60603 1.00111 0.2492 0.0
C1158 C 0.65393 1.00703 0.15942 0.0
C1159 C 0.62602 1.00133 0.09838 0.0
N1160 N 0.62069 0.99939 0.21986 0.0
N1161 N 0.61176 0.99749 0.12779 0.0
H1162 H 0.52814 0.39918 0.84139 0.0
H1163 H 0.44132 0.32181 -0.01261 0.0
H1164 H 0.44029 0.37213 0.83135 0.0
H1165 H 0.53298 0.31888 0.98284 0.0
H1166 H 0.4407 0.34287 0.93114 0.0
H1167 H 0.53103 0.37164 0.89381 0.0
C1168 C 0.50958 0.3872 0.84992 0.0
C1169 C 0.4838 0.38835 0.83215 0.0
C1170 C 0.46097 0.33753 0.94233 0.0
C1171 C 0.48687 0.35734 0.89229 0.0
C1172 C 0.46132 0.3257 0.97447 0.0
C1173 C 0.48724 0.31896 -0.01031 0.0
C1174 C 0.48677 0.34306 0.92552 0.0
C1175 C 0.51257 0.32399 0.97185 0.0
C1176 C 0.51123 0.3716 0.8799 0.0
C1177 C 0.46039 0.37255 0.84462 0.0
N1178 N 0.51175 0.33608 0.94072 0.0
N1179 N 0.4624 0.35799 0.87406 0.0
H1180 H 0.14482 0.26636 0.77362 0.0
H1181 H 0.15026 0.27703 0.57297 0.0
H1182 H 0.22273 0.26651 0.7162 0.0
H1183 H 1.07442 0.25585 0.62945 0.0
H1184 H 0.17621 0.28352 0.62585 0.0
H1185 H 1.11794 0.27248 0.72147 0.0
C1186 C 0.15624 0.26787 0.75001 0.0
C1187 C 0.18591 0.26543 0.74897 0.0
C1188 C 0.15381 0.27775 0.62664 0.0
C1189 C 0.15548 0.27258 0.68947 0.0
C1190 C 0.13898 0.27424 0.59652 0.0
C1191 C 1.11029 0.26557 0.59695 0.0
C1192 C 0.13973 0.27273 0.65729 0.0
C1193 C 1.09668 0.26208 0.62809 0.0
C1194 C 0.14094 0.27137 0.7203 0.0
C1195 C 0.1998 0.26792 0.7179 0.0
N1196 N 1.11157 0.26549 0.65703 0.0
N1197 N 0.18443 0.27116 0.68928 0.0
H1198 H 0.31814 0.95601 0.48032 0.0
H1199 H 0.23454 0.86953 0.34098 0.0
H1200 H 0.22717 0.94366 0.48621 0.0
H1201 H 0.31202 0.91719 0.31962 0.0
H1202 H 0.23131 0.89423 0.39499 0.0
H1203 H 0.3172 0.93834 0.42248 0.0
C1204 C 0.29798 0.94956 0.46931 0.0
C1205 C 0.27268 0.9513 0.48769 0.0
C1206 C 0.24882 0.89944 0.37823 0.0
C1207 C 0.2714 0.93092 0.42203 0.0
C1208 C 0.25061 0.8855 0.3473 0.0
C1209 C 0.27384 0.89094 0.32586 0.0
C1210 C 0.27061 0.91857 0.38793 0.0
C1211 C 0.29417 0.91166 0.3357 0.0
C1212 C 0.2974 0.9397 0.43632 0.0
C1213 C 0.24706 0.94281 0.47249 0.0
N1214 N 0.2923 0.9244 0.36621 0.0
N1215 N 0.24706 0.93267 0.44051 0.0
H1216 H 1.07367 0.74876 0.33914 0.0
H1217 H 0.22377 0.77317 0.25068 0.0
H1218 H 0.14878 0.7758 0.39326 0.0
H1219 H 0.14489 0.76544 0.1959 0.0
H1220 H 0.1967 0.7761 0.30313 0.0
H1221 H 1.09908 0.75658 0.28625 0.0
C1222 C 1.09548 0.75657 0.3398 0.0
C1223 C 1.10927 0.76141 0.37052 0.0
C1224 C 0.18529 0.77402 0.27963 0.0
C1225 C 0.13856 0.77021 0.31021 0.0
C1226 C 0.20072 0.77224 0.24975 0.0
C1227 C 0.18646 0.7686 0.21913 0.0
C1228 C 0.15544 0.77184 0.27879 0.0
C1229 C 0.15665 0.76792 0.21911 0.0
C1230 C 1.10994 0.76114 0.30964 0.0
C1231 C 0.1374 0.77186 0.37006 0.0
N1232 N 0.1421 0.76916 0.24856 0.0
N1233 N 0.15128 0.77556 0.34035 0.0
H1234 H 0.23568 0.40423 0.6443 0.0
H1235 H 0.30823 0.4255 0.46613 0.0
H1236 H 0.29134 0.34163 0.59993 0.0
H1237 H 0.22757 0.46441 0.4889 0.0
H1238 H 0.3051 0.39811 0.51838 0.0
H1239 H 0.23461 0.43011 0.59035 0.0
C1240 C 0.24749 0.39588 0.62314 0.0
C1241 C 0.26359 0.37078 0.62642 0.0
C1242 C 0.288 0.41254 0.5119 0.0
C1243 C 0.26275 0.40025 0.5653 0.0
C1244 C 0.28982 0.42821 0.48217 0.0
C1245 C 0.26811 0.44715 0.47334 0.0
C1246 C 0.26453 0.41618 0.53323 0.0
C1247 C 0.24476 0.45 0.49501 0.0
C1248 C 0.24677 0.41054 0.59246 0.0
C1249 C 0.27844 0.36074 0.59833 0.0
N1250 N 0.24365 0.43479 0.52424 0.0
N1251 N 0.2779 0.37567 0.56904 0.0
H1252 H 0.61607 0.50555 0.69502 0.0
H1253 H 0.61119 0.49706 0.89578 0.0
H1254 H 0.53818 0.50583 0.7525 0.0
H1255 H 0.68674 0.51797 0.83863 0.0
H1256 H 0.58502 0.49012 0.84311 0.0
H1257 H 0.64301 0.5002 0.74719 0.0
C1258 C 0.60467 0.50432 0.71866 0.0
C1259 C 0.57499 0.50668 0.71967 0.0
C1260 C 0.60739 0.49594 0.84214 0.0
C1261 C 0.60551 0.50042 0.77924 0.0
C1262 C 0.62235 0.49971 0.87213 0.0
C1263 C 0.65103 0.5084 0.87143 0.0
C1264 C 0.62134 0.50071 0.81136 0.0
C1265 C 0.6645 0.51171 0.84018 0.0
C1266 C 0.62001 0.50127 0.74838 0.0
C1267 C 0.56113 0.50455 0.75081 0.0
N1268 N 0.64949 0.50802 0.81138 0.0
N1269 N 0.57655 0.50174 0.77946 0.0
H1270 H 0.44385 0.83815 0.97057 0.0
H1271 H 0.52761 0.87698 0.14001 0.0
H1272 H 0.53122 0.81481 -0.01213 0.0
H1273 H 0.4402 0.89914 0.12034 0.0
H1274 H 0.52975 0.85357 0.08495 0.0
H1275 H 0.44228 0.85987 0.02624 0.0
C1276 C 0.46275 0.83773 -0.01386 0.0
C1277 C 0.48776 0.82498 0.97467 0.0
C1278 C 0.51009 0.86348 0.09281 0.0
C1279 C 0.4862 0.84965 0.03843 0.0
C1280 C 0.5089 0.87693 0.12413 0.0
C1281 C 0.48364 0.88989 0.13488 0.0
C1282 C 0.48589 0.86315 0.07209 0.0
C1283 C 0.45997 0.88899 0.11341 0.0
C1284 C 0.46186 0.85005 0.01795 0.0
C1285 C 0.51158 0.82465 -0.00413 0.0
N1286 N 0.4617 0.87591 0.0831 0.0
N1287 N 0.51025 0.83691 0.02679 0.0
H1288 H 0.19519 0.51553 0.63066 0.0
H1289 H 1.04218 0.50229 0.71779 0.0
H1290 H 1.11578 0.51335 0.57625 0.0
H1291 H 1.12091 0.50676 0.77328 0.0
H1292 H 1.0693 0.50026 0.66549 0.0
H1293 H 0.16899 0.50633 0.6828 0.0
C1294 C 0.17229 0.51275 0.62962 0.0
C1295 C 0.15761 0.51556 0.59911 0.0
C1296 C 1.08071 0.50153 0.68907 0.0
C1297 C 0.12749 0.50533 0.65868 0.0
C1298 C 1.06523 0.50272 0.7189 0.0
C1299 C 1.07941 0.50524 0.74971 0.0
C1300 C 1.1106 0.50304 0.69008 0.0
C1301 C 1.10924 0.50519 0.74991 0.0
C1302 C 0.15733 0.50765 0.65942 0.0
C1303 C 0.1279 0.51195 0.5993 0.0
N1304 N 1.12389 0.50445 0.72047 0.0
N1305 N 1.11383 0.50723 0.62862 0.0
H1306 H 0.98955 0.94246 0.37584 0.0
H1307 H 1.01697 0.79345 0.46657 0.0
H1308 H 1.02438 0.86933 0.32433 0.0
H1309 H 1.00383 0.87253 0.52058 0.0
H1310 H 1.0219 0.82104 0.41441 0.0
H1311 H 0.99666 0.91783 0.42944 0.0
C1312 C 0.99896 0.92129 0.37595 0.0
C1313 C 1.00614 0.90772 0.34576 0.0
C1314 C 1.01819 0.83241 0.43769 0.0
C1315 C 1.01409 0.87931 0.40678 0.0
C1316 C 1.01524 0.81667 0.46738 0.0
C1317 C 1.00948 0.83081 0.49763 0.0
C1318 C 1.01495 0.86241 0.43832 0.0
C1319 C 1.00792 0.86087 0.4976 0.0
C1320 C 1.00311 0.90728 0.40649 0.0
C1321 C 1.01857 0.88047 0.34714 0.0
N1322 N 1.01024 0.87569 0.46826 0.0
N1323 N 1.02178 0.86693 0.37718 0.0
H1324 H 0.65589 0.78432 0.06897 0.0
H1325 H 0.64413 0.76288 0.26828 0.0
H1326 H 0.5817 0.7504 0.11989 0.0
H1327 H 0.72397 0.77279 0.21564 0.0
H1328 H 0.61888 0.76966 0.21509 0.0
H1329 H 0.679 0.79163 0.12379 0.0
C1330 C 0.64436 0.77892 0.09175 0.0
C1331 C 0.61712 0.76641 0.09016 0.0
C1332 C 0.64192 0.77055 0.21524 0.0
C1333 C 0.6431 0.77462 0.15241 0.0
C1334 C 0.65629 0.76667 0.24553 0.0
C1335 C 0.68607 0.76663 0.24604 0.0
C1336 C 0.65753 0.7746 0.18541 0.0
C1337 C 0.70092 0.77209 0.21606 0.0
C1338 C 0.65752 0.78293 0.1229 0.0
C1339 C 0.60293 0.75973 0.12022 0.0
N1340 N 0.68648 0.77564 0.18682 0.0
N1341 N 0.61615 0.76373 0.15012 0.0
H1342 H 0.74903 0.39746 0.02214 0.0
H1343 H 0.73122 0.40781 0.82273 0.0
H1344 H 0.74436 0.47752 0.96742 0.0
H1345 H 0.76136 0.33264 0.87486 0.0
H1346 H 0.72324 0.43121 0.87705 0.0
H1347 H 0.74106 0.37127 0.96956 0.0
C1348 C 0.74608 0.40947 -0.00094 0.0
C1349 C 0.74802 0.43954 -0.00125 0.0
C1350 C 0.73122 0.40944 0.87655 0.0
C1351 C 0.73868 0.40997 0.93895 0.0
C1352 C 0.73561 0.39607 0.84566 0.0
C1353 C 0.74735 0.36851 0.84451 0.0
C1354 C 0.73845 0.39496 0.90631 0.0
C1355 C 0.75275 0.35415 0.87481 0.0
C1356 C 0.74152 0.39457 0.96916 0.0
C1357 C 0.7436 0.45423 0.96844 0.0
N1358 N 0.74848 0.36764 0.90453 0.0
N1359 N 0.73937 0.43927 0.93961 0.0
H1360 H 0.33859 0.27198 0.19656 0.0
H1361 H 0.24372 0.40599 0.19474 0.0
H1362 H 0.32895 0.33017 0.1128 0.0
H1363 H 0.261 0.35192 0.28047 0.0
H1364 H 0.2557 0.36606 0.15781 0.0
H1365 H 0.29276 0.2872 0.2182 0.0
C1366 C 0.32645 0.2873 0.18208 0.0
C1367 C 0.33819 0.30082 0.15362 0.0
C1368 C 0.25594 0.36264 0.18473 0.0
C1369 C 0.28614 0.31901 0.17891 0.0
C1370 C 0.2492 0.38548 0.20583 0.0
C1371 C 0.25283 0.38277 0.24069 0.0
C1372 C 0.26673 0.33721 0.19873 0.0
C1373 C 0.25871 0.35538 0.25373 0.0
C1374 C 0.30024 0.29609 0.19457 0.0
C1375 C 0.32124 0.32022 0.13574 0.0
N1376 N 0.26635 0.3339 0.23271 0.0
N1377 N 0.29642 0.3294 0.14921 0.0
H1378 H 0.72063 0.56893 0.38779 0.0
H1379 H 0.56493 0.53606 0.4311 0.0
H1380 H 0.64738 0.60332 0.337 0.0
H1381 H 0.63767 0.50432 0.48509 0.0
H1382 H 0.59429 0.54099 0.38087 0.0
H1383 H 0.69185 0.52749 0.40541 0.0
C1384 C 0.69871 0.56733 0.37949 0.0
C1385 C 0.686 0.59022 0.36232 0.0
C1386 C 0.6037 0.53205 0.40337 0.0
C1387 C 0.65288 0.54333 0.38287 0.0
C1388 C 0.58684 0.5291 0.43207 0.0
C1389 C 0.59931 0.52105 0.46261 0.0
C1390 C 0.6332 0.52759 0.4057 0.0
C1391 C 0.62763 0.51185 0.46228 0.0
C1392 C 0.68228 0.54362 0.38947 0.0
C1393 C 0.65789 0.58656 0.35107 0.0
N1394 N 0.64391 0.51622 0.43454 0.0
N1395 N 0.64198 0.56402 0.36247 0.0
H1396 H 0.24867 0.85262 0.69793 0.0
H1397 H 0.33095 0.82008 0.86193 0.0
H1398 H 0.25492 0.90885 0.78383 0.0
H1399 H 0.34158 0.78003 0.76504 0.0
H1400 H 0.28424 0.83694 0.84411 0.0
H1401 H 0.26057 0.81214 0.73355 0.0
C1402 C 0.25136 0.85644 0.72456 0.0
C1403 C 0.25219 0.88451 0.73762 0.0
C1404 C 0.29644 0.82362 0.82724 0.0
C1405 C 0.26682 0.83818 0.77817 0.0
C1406 C 0.32324 0.81423 0.83722 0.0
C1407 C 0.34087 0.79992 0.81431 0.0
C1408 C 0.2874 0.81867 0.79416 0.0
C1409 C 0.32917 0.79165 0.78333 0.0
C1410 C 0.25836 0.83316 0.7449 0.0
C1411 C 0.25548 0.88774 0.77243 0.0
N1412 N 0.30346 0.80179 0.77384 0.0
N1413 N 0.26365 0.86496 0.79138 0.0
H1414 H 0.17972 0.58171 0.12877 0.0
H1415 H 0.16402 0.51675 0.9531 0.0
H1416 H 0.24106 0.58775 0.04831 0.0
H1417 H 1.09894 0.51716 0.02968 0.0
H1418 H 0.20015 0.52064 -0.00349 0.0
H1419 H 0.16047 0.53775 0.10366 0.0
C1420 C 0.18977 0.57323 0.10644 0.0
C1421 C 0.21098 0.58917 0.08959 0.0
C1422 C 0.17801 0.51905 0.00398 0.0
C1423 C 0.18885 0.5394 0.06052 0.0
C1424 C 0.15727 0.51671 0.97911 0.0
C1425 C 0.12832 0.51803 -0.0123 0.0
C1426 C 0.16967 0.52351 0.03744 0.0
C1427 C 1.12102 0.51757 0.02188 0.0
C1428 C 0.17881 0.5481 0.09212 0.0
C1429 C 0.22405 0.57667 0.06159 0.0
N1430 N 0.14154 0.52124 0.0455 0.0
N1431 N 0.21214 0.553 0.04725 0.0
H1432 H 0.77745 0.94545 0.68308 0.0
H1433 H 0.81823 0.78855 0.64897 0.0
H1434 H 0.7502 0.87226 0.74224 0.0
H1435 H 0.84828 0.86291 0.59368 0.0
H1436 H 0.77657 0.81564 0.66645 0.0
H1437 H 0.78449 0.91379 0.63523 0.0
C1438 C 0.77193 0.92285 0.68569 0.0
C1439 C 0.7645 0.91119 0.71706 0.0
C1440 C 0.79182 0.82576 0.64961 0.0
C1441 C 0.77351 0.87476 0.66284 0.0
C1442 C 0.81567 0.81031 0.63975 0.0
C1443 C 0.83737 0.82392 0.62113 0.0
C1444 C 0.79008 0.85511 0.64131 0.0
C1445 C 0.83246 0.85173 0.60876 0.0
C1446 C 0.77613 0.90469 0.65835 0.0
C1447 C 0.75722 0.88186 0.71879 0.0
N1448 N 0.80974 0.86671 0.61991 0.0
N1449 N 0.76277 0.86445 0.69236 0.0
H1450 H 0.75743 0.41791 0.27752 0.0
H1451 H 0.83101 0.27302 0.29536 0.0
H1452 H 0.76402 0.35313 0.20057 0.0
H1453 H 0.82692 0.33774 0.3726 0.0
H1454 H 0.7873 0.29142 0.27132 0.0
H1455 H 0.76276 0.38055 0.3202 0.0
C1456 C 0.75927 0.39572 0.26964 0.0
C1457 C 0.76161 0.38876 0.23549 0.0
C1458 C 0.79539 0.30111 0.29417 0.0
C1459 C 0.7681 0.34605 0.284 0.0
C1460 C 0.82035 0.29043 0.3081 0.0
C1461 C 0.83337 0.30488 0.335 0.0
C1462 C 0.78403 0.32678 0.30674 0.0
C1463 C 0.81826 0.32693 0.35077 0.0
C1464 C 0.76215 0.37434 0.29401 0.0
C1465 C 0.76283 0.35961 0.22662 0.0
N1466 N 0.79486 0.33791 0.33571 0.0
N1467 N 0.76693 0.3394 0.25073 0.0
H1468 H 0.16273 0.25993 0.02133 0.0
H1469 H 1.01806 0.18828 0.05041 0.0
H1470 H 1.097 0.24677 0.94714 0.0
H1471 H 1.08422 0.19708 0.12479 0.0
H1472 H 1.03633 0.23108 0.02217 0.0
H1473 H 0.12644 0.25862 0.06528 0.0
C1474 C 0.14058 0.25742 0.01424 0.0
C1475 C 0.13298 0.2521 0.98074 0.0
C1476 C 1.04635 0.22431 0.04532 0.0
C1477 C 1.09147 0.25028 0.03076 0.0
C1478 C 1.03573 0.19989 0.06169 0.0
C1479 C 1.05068 0.18825 0.08891 0.0
C1480 C 1.07243 0.23639 0.05583 0.0
C1481 C 1.07301 0.20461 0.10277 0.0
C1482 C 1.11983 0.2569 0.03931 0.0
C1483 C 1.10394 0.25021 0.97275 0.0
N1484 N 1.08394 0.22731 0.08535 0.0
N1485 N 1.0843 0.24845 -0.00231 0.0
H1486 H 0.7434 1.08899 0.5473 0.0
H1487 H 0.59985 1.01264 0.52741 0.0
H1488 H 0.67936 1.08184 0.62467 0.0
H1489 H 0.6647 1.02027 0.45102 0.0
H1490 H 0.63649 1.01809 0.57043 0.0
H1491 H 0.72514 1.0449 0.52218 0.0
C1492 C 0.72618 1.07756 0.55984 0.0
C1493 C 0.71188 1.08986 0.58712 0.0
C1494 C 0.64288 1.01769 0.54429 0.0
C1495 C 0.69014 1.0401 0.55764 0.0
C1496 C 0.62192 1.01472 0.51973 0.0
C1497 C 0.62915 1.01728 0.48566 0.0
C1498 C 0.67104 1.02405 0.53456 0.0
C1499 C 0.65808 1.01889 0.47703 0.0
C1500 C 0.71557 1.05239 0.54528 0.0
C1501 C 0.69007 1.07376 0.60259 0.0
N1502 N 0.67791 1.02313 0.50132 0.0
N1503 N 0.67915 1.0502 0.58696 0.0
loop_
_geom_bond_atom_site_label_1
_geom_bond_atom_site_label_2
_geom_bond_distance
_geom_bond_site_symmetry_2
_ccdc_geom_bond_type
Tb0 C2 2.809 . S
Tb0 O20 2.484 . S
Tb0 O21 2.440 . S
Tb0 O22 2.658 1_556 S
Tb0 O23 2.409 1_556 S
Tb0 O24 2.378 1_556 S
Tb0 O28 2.325 1_556 S
Tb0 O31 2.341 . S
Tb1 C11 2.809 . S
Tb1 O22 2.325 . S
Tb1 O25 2.341 . S
Tb1 O26 2.484 . S
Tb1 O27 2.440 . S
Tb1 O28 2.658 . S
Tb1 O29 2.409 . S
Tb1 O30 2.378 . S
C2 Tb0 2.809 . S
C2 C3 1.514 . S
C2 O20 1.248 . S
C2 O21 1.266 . S
C3 C2 1.514 . S
C3 C4 1.359 . S
C3 C8 1.348 . S
C4 C3 1.359 . S
C4 C5 1.380 . S
C4 H32 0.929 . S
C5 C4 1.380 . S
C5 C6 1.347 . S
C5 H33 0.931 . S
C6 C5 1.347 . S
C6 C7 1.369 . S
C7 C6 1.369 . S
C7 C8 1.408 . S
C7 H34 0.930 . S
C8 C3 1.348 . S
C8 C7 1.408 . S
C8 H35 0.930 . S
C9 O22 1.281 . S
C9 O23 1.254 . S
C10 O24 1.236 . S
C10 O25 1.266 . S
C11 Tb1 2.809 . S
C11 C12 1.514 . S
C11 O26 1.248 . S
C11 O27 1.266 . S
C12 C11 1.514 . S
C12 C13 1.359 . S
C12 C17 1.348 . S
C13 C12 1.359 . S
C13 C14 1.380 . S
C13 H36 0.929 . S
C14 C13 1.380 . S
C14 C15 1.347 . S
C14 H37 0.931 . S
C15 C14 1.347 . S
C15 C16 1.369 . S
C16 C15 1.369 . S
C16 C17 1.408 . S
C16 H38 0.930 . S
C17 C12 1.348 . S
C17 C16 1.408 . S
C17 H39 0.930 . S
C18 O28 1.281 1_556 S
C18 O29 1.254 1_556 S
C19 O30 1.236 . S
C19 O31 1.266 1_554 S
O20 Tb0 2.484 . S
O20 C2 1.248 . S
O21 Tb0 2.440 . S
O21 C2 1.266 . S
O22 Tb0 2.658 1_554 S
O22 Tb1 2.325 . S
O22 C9 1.281 . S
O23 Tb0 2.409 1_554 S
O23 C9 1.254 . S
O24 Tb0 2.378 1_554 S
O24 C10 1.236 . S
O25 Tb1 2.341 . S
O25 C10 1.266 . S
O26 Tb1 2.484 . S
O26 C11 1.248 . S
O27 Tb1 2.440 . S
O27 C11 1.266 . S
O28 Tb0 2.325 1_554 S
O28 Tb1 2.658 . S
O28 C18 1.281 1_554 S
O29 Tb1 2.409 . S
O29 C18 1.254 1_554 S
O30 Tb1 2.378 . S
O30 C19 1.236 . S
O31 Tb0 2.341 . S
O31 C19 1.266 1_556 S
H32 C4 0.929 . S
H33 C5 0.931 . S
H34 C7 0.930 . S
H35 C8 0.930 . S
H36 C13 0.929 . S
H37 C14 0.931 . S
H38 C16 0.930 . S
H39 C17 0.930 . S
Tb40 C42 2.809 . S
Tb40 O60 2.484 . S
Tb40 O61 2.440 . S
Tb40 O62 2.658 . S
Tb40 O63 2.409 . S
Tb40 O64 2.378 . S
Tb40 O68 2.325 . S
Tb40 O71 2.341 . S
Tb41 C51 2.809 . S
Tb41 O62 2.325 . S
Tb41 O65 2.341 . S
Tb41 O66 2.484 . S
Tb41 O67 2.440 . S
Tb41 O68 2.658 . S
Tb41 O69 2.409 . S
Tb41 O70 2.378 . S
C42 Tb40 2.809 . S
C42 C43 1.514 . S
C42 O60 1.248 . S
C42 O61 1.266 . S
C43 C42 1.514 . S
C43 C44 1.359 . S
C43 C48 1.348 . S
C44 C43 1.359 . S
C44 C45 1.380 . S
C44 H72 0.929 . S
C45 C44 1.380 . S
C45 C46 1.347 . S
C45 H73 0.931 . S
C46 C45 1.347 . S
C46 C47 1.369 . S
C47 C46 1.369 . S
C47 C48 1.408 . S
C47 H74 0.930 . S
C48 C43 1.348 . S
C48 C47 1.408 . S
C48 H75 0.930 . S
C49 O62 1.281 . S
C49 O63 1.254 . S
C50 O64 1.236 . S
C50 O65 1.266 . S
C51 Tb41 2.809 . S
C51 C52 1.514 . S
C51 O66 1.248 . S
C51 O67 1.266 . S
C52 C51 1.514 . S
C52 C53 1.359 . S
C52 C57 1.348 . S
C53 C52 1.359 . S
C53 C54 1.380 . S
C53 H76 0.929 . S
C54 C53 1.380 . S
C54 C55 1.347 . S
C54 H77 0.931 . S
C55 C54 1.347 . S
C55 C56 1.369 . S
C56 C55 1.369 . S
C56 C57 1.408 . S
C56 H78 0.930 . S
C57 C52 1.348 . S
C57 C56 1.408 . S
C57 H79 0.930 . S
C58 O68 1.281 . S
C58 O69 1.254 . S
C59 O70 1.236 . S
C59 O71 1.266 . S
O60 Tb40 2.484 . S
O60 C42 1.248 . S
O61 Tb40 2.440 . S
O61 C42 1.266 . S
O62 Tb40 2.658 . S
O62 Tb41 2.325 . S
O62 C49 1.281 . S
O63 Tb40 2.409 . S
O63 C49 1.254 . S
O64 Tb40 2.378 . S
O64 C50 1.236 . S
O65 Tb41 2.341 . S
O65 C50 1.266 . S
O66 Tb41 2.484 . S
O66 C51 1.248 . S
O67 Tb41 2.440 . S
O67 C51 1.266 . S
O68 Tb40 2.325 . S
O68 Tb41 2.658 . S
O68 C58 1.281 . S
O69 Tb41 2.409 . S
O69 C58 1.254 . S
O70 Tb41 2.378 . S
O70 C59 1.236 . S
O71 Tb40 2.341 . S
O71 C59 1.266 . S
H72 C44 0.929 . S
H73 C45 0.931 . S
H74 C47 0.930 . S
H75 C48 0.930 . S
H76 C53 0.929 . S
H77 C54 0.931 . S
H78 C56 0.930 . S
H79 C57 0.930 . S
Tb80 C82 2.809 . S
Tb80 O100 2.484 . S
Tb80 O101 2.440 . S
Tb80 O102 2.658 . S
Tb80 O103 2.409 . S
Tb80 O104 2.378 . S
Tb80 O108 2.325 . S
Tb80 O111 2.341 . S
Tb81 C91 2.809 . S
Tb81 O102 2.325 . S
Tb81 O105 2.341 . S
Tb81 O106 2.484 . S
Tb81 O107 2.440 . S
Tb81 O108 2.658 . S
Tb81 O109 2.409 . S
Tb81 O110 2.378 . S
C82 Tb80 2.809 . S
C82 C83 1.514 . S
C82 O100 1.248 . S
C82 O101 1.266 . S
C83 C82 1.514 . S
C83 C84 1.359 . S
C83 C88 1.348 . S
C84 C83 1.359 . S
C84 C85 1.380 . S
C84 H112 0.929 . S
C85 C84 1.380 . S
C85 C86 1.347 . S
C85 H113 0.931 . S
C86 C85 1.347 . S
C86 C87 1.369 . S
C87 C86 1.369 . S
C87 C88 1.408 . S
C87 H114 0.930 . S
C88 C83 1.348 . S
C88 C87 1.408 . S
C88 H115 0.930 . S
C89 O102 1.281 . S
C89 O103 1.254 . S
C90 O104 1.236 . S
C90 O105 1.266 . S
C91 Tb81 2.809 . S
C91 C92 1.514 . S
C91 O106 1.248 . S
C91 O107 1.266 . S
C92 C91 1.514 . S
C92 C93 1.359 . S
C92 C97 1.348 . S
C93 C92 1.359 . S
C93 C94 1.380 . S
C93 H116 0.929 . S
C94 C93 1.380 . S
C94 C95 1.347 . S
C94 H117 0.931 . S
C95 C94 1.347 . S
C95 C96 1.369 . S
C96 C95 1.369 . S
C96 C97 1.408 . S
C96 H118 0.930 . S
C97 C92 1.348 . S
C97 C96 1.408 . S
C97 H119 0.930 . S
C98 O108 1.281 . S
C98 O109 1.254 . S
C99 O110 1.236 . S
C99 O111 1.266 . S
O100 Tb80 2.484 . S
O100 C82 1.248 . S
O101 Tb80 2.440 . S
O101 C82 1.266 . S
O102 Tb80 2.658 . S
O102 Tb81 2.325 . S
O102 C89 1.281 . S
O103 Tb80 2.409 . S
O103 C89 1.254 . S
O104 Tb80 2.378 . S
O104 C90 1.236 . S
O105 Tb81 2.341 . S
O105 C90 1.266 . S
O106 Tb81 2.484 . S
O106 C91 1.248 . S
O107 Tb81 2.440 . S
O107 C91 1.266 . S
O108 Tb80 2.325 . S
O108 Tb81 2.658 . S
O108 C98 1.281 . S
O109 Tb81 2.409 . S
O109 C98 1.254 . S
O110 Tb81 2.378 . S
O110 C99 1.236 . S
O111 Tb80 2.341 . S
O111 C99 1.266 . S
H112 C84 0.929 . S
H113 C85 0.931 . S
H114 C87 0.930 . S
H115 C88 0.930 . S
H116 C93 0.929 . S
H117 C94 0.931 . S
H118 C96 0.930 . S
H119 C97 0.930 . S
Tb120 C122 2.809 . S
Tb120 O140 2.484 . S
Tb120 O141 2.440 . S
Tb120 O142 2.658 . S
Tb120 O143 2.409 . S
Tb120 O144 2.378 . S
Tb120 O148 2.325 . S
Tb120 O151 2.341 . S
Tb121 C131 2.809 . S
Tb121 O142 2.325 . S
Tb121 O145 2.341 . S
Tb121 O146 2.484 . S
Tb121 O147 2.440 . S
Tb121 O148 2.658 . S
Tb121 O149 2.409 . S
Tb121 O150 2.378 . S
C122 Tb120 2.809 . S
C122 C123 1.514 . S
C122 O140 1.248 . S
C122 O141 1.266 . S
C123 C122 1.514 . S
C123 C124 1.359 . S
C123 C128 1.348 . S
C124 C123 1.359 . S
C124 C125 1.380 . S
C124 H152 0.929 . S
C125 C124 1.380 . S
C125 C126 1.347 . S
C125 H153 0.931 . S
C126 C125 1.347 . S
C126 C127 1.369 . S
C127 C126 1.369 . S
C127 C128 1.408 . S
C127 H154 0.930 . S
C128 C123 1.348 . S
C128 C127 1.408 . S
C128 H155 0.930 . S
C129 O142 1.281 . S
C129 O143 1.254 . S
C130 O144 1.236 . S
C130 O145 1.266 . S
C131 Tb121 2.809 . S
C131 C132 1.514 . S
C131 O146 1.248 . S
C131 O147 1.266 . S
C132 C131 1.514 . S
C132 C133 1.359 . S
C132 C137 1.348 . S
C133 C132 1.359 . S
C133 C134 1.380 . S
C133 H156 0.929 . S
C134 C133 1.380 . S
C134 C135 1.347 . S
C134 H157 0.931 . S
C135 C134 1.347 . S
C135 C136 1.369 . S
C136 C135 1.369 . S
C136 C137 1.408 . S
C136 H158 0.930 . S
C137 C132 1.348 . S
C137 C136 1.408 . S
C137 H159 0.930 . S
C138 O148 1.281 . S
C138 O149 1.254 . S
C139 O150 1.236 . S
C139 O151 1.266 . S
O140 Tb120 2.484 . S
O140 C122 1.248 . S
O141 Tb120 2.440 . S
O141 C122 1.266 . S
O142 Tb120 2.658 . S
O142 Tb121 2.325 . S
O142 C129 1.281 . S
O143 Tb120 2.409 . S
O143 C129 1.254 . S
O144 Tb120 2.378 . S
O144 C130 1.236 . S
O145 Tb121 2.341 . S
O145 C130 1.266 . S
O146 Tb121 2.484 . S
O146 C131 1.248 . S
O147 Tb121 2.440 . S
O147 C131 1.266 . S
O148 Tb120 2.325 . S
O148 Tb121 2.658 . S
O148 C138 1.281 . S
O149 Tb121 2.409 . S
O149 C138 1.254 . S
O150 Tb121 2.378 . S
O150 C139 1.236 . S
O151 Tb120 2.341 . S
O151 C139 1.266 . S
H152 C124 0.929 . S
H153 C125 0.931 . S
H154 C127 0.930 . S
H155 C128 0.930 . S
H156 C133 0.929 . S
H157 C134 0.931 . S
H158 C136 0.930 . S
H159 C137 0.930 . S
Tb160 C162 2.809 . S
Tb160 O180 2.484 . S
Tb160 O181 2.440 . S
Tb160 O182 2.658 . S
Tb160 O183 2.409 . S
Tb160 O184 2.378 . S
Tb160 O188 2.325 . S
Tb160 O191 2.341 . S
Tb161 C171 2.809 . S
Tb161 O182 2.325 1_554 S
Tb161 O185 2.341 . S
Tb161 O186 2.484 . S
Tb161 O187 2.440 . S
Tb161 O188 2.658 1_554 S
Tb161 O189 2.409 1_554 S
Tb161 O190 2.378 1_554 S
C162 Tb160 2.809 . S
C162 C163 1.514 . S
C162 O180 1.248 . S
C162 O181 1.266 . S
C163 C162 1.514 . S
C163 C164 1.359 . S
C163 C168 1.348 . S
C164 C163 1.359 . S
C164 C165 1.380 . S
C164 H192 0.929 . S
C165 C164 1.380 . S
C165 C166 1.347 . S
C165 H193 0.931 . S
C166 C165 1.347 . S
C166 C167 1.369 . S
C167 C166 1.369 . S
C167 C168 1.408 . S
C167 H194 0.930 . S
C168 C163 1.348 . S
C168 C167 1.408 . S
C168 H195 0.930 . S
C169 O182 1.281 1_554 S
C169 O183 1.254 1_554 S
C170 O184 1.236 . S
C170 O185 1.266 1_556 S
C171 Tb161 2.809 . S
C171 C172 1.514 . S
C171 O186 1.248 . S
C171 O187 1.266 . S
C172 C171 1.514 . S
C172 C173 1.359 . S
C172 C177 1.348 . S
C173 C172 1.359 . S
C173 C174 1.380 . S
C173 H196 0.929 . S
C174 C173 1.380 . S
C174 C175 1.347 . S
C174 H197 0.931 . S
C175 C174 1.347 . S
C175 C176 1.369 . S
C176 C175 1.369 . S
C176 C177 1.408 . S
C176 H198 0.930 . S
C177 C172 1.348 . S
C177 C176 1.408 . S
C177 H199 0.930 . S
C178 O188 1.281 . S
C178 O189 1.254 . S
C179 O190 1.236 . S
C179 O191 1.266 . S
O180 Tb160 2.484 . S
O180 C162 1.248 . S
O181 Tb160 2.440 . S
O181 C162 1.266 . S
O182 Tb160 2.658 . S
O182 Tb161 2.325 1_556 S
O182 C169 1.281 1_556 S
O183 Tb160 2.409 . S
O183 C169 1.254 1_556 S
O184 Tb160 2.378 . S
O184 C170 1.236 . S
O185 Tb161 2.341 . S
O185 C170 1.266 1_554 S
O186 Tb161 2.484 . S
O186 C171 1.248 . S
O187 Tb161 2.440 . S
O187 C171 1.266 . S
O188 Tb160 2.325 . S
O188 Tb161 2.658 1_556 S
O188 C178 1.281 . S
O189 Tb161 2.409 1_556 S
O189 C178 1.254 . S
O190 Tb161 2.378 1_556 S
O190 C179 1.236 . S
O191 Tb160 2.341 . S
O191 C179 1.266 . S
H192 C164 0.929 . S
H193 C165 0.931 . S
H194 C167 0.930 . S
H195 C168 0.930 . S
H196 C173 0.929 . S
H197 C174 0.931 . S
H198 C176 0.930 . S
H199 C177 0.930 . S
Tb200 C202 2.809 . S
Tb200 O220 2.484 . S
Tb200 O221 2.440 . S
Tb200 O222 2.658 . S
Tb200 O223 2.409 . S
Tb200 O224 2.378 . S
Tb200 O228 2.325 . S
Tb200 O231 2.341 . S
Tb201 C211 2.809 . S
Tb201 O222 2.325 . S
Tb201 O225 2.341 . S
Tb201 O226 2.484 . S
Tb201 O227 2.440 . S
Tb201 O228 2.658 . S
Tb201 O229 2.409 . S
Tb201 O230 2.378 . S
C202 Tb200 2.809 . S
C202 C203 1.514 . S
C202 O220 1.248 . S
C202 O221 1.266 . S
C203 C202 1.514 . S
C203 C204 1.359 . S
C203 C208 1.348 . S
C204 C203 1.359 . S
C204 C205 1.380 . S
C204 H232 0.929 . S
C205 C204 1.380 . S
C205 C206 1.347 . S
C205 H233 0.931 . S
C206 C205 1.347 . S
C206 C207 1.369 . S
C207 C206 1.369 . S
C207 C208 1.408 . S
C207 H234 0.930 . S
C208 C203 1.348 . S
C208 C207 1.408 . S
C208 H235 0.930 . S
C209 O222 1.281 . S
C209 O223 1.254 . S
C210 O224 1.236 . S
C210 O225 1.266 . S
C211 Tb201 2.809 . S
C211 C212 1.514 . S
C211 O226 1.248 . S
C211 O227 1.266 . S
C212 C211 1.514 . S
C212 C213 1.359 . S
C212 C217 1.348 . S
C213 C212 1.359 . S
C213 C214 1.380 . S
C213 H236 0.929 . S
C214 C213 1.380 . S
C214 C215 1.347 . S
C214 H237 0.931 . S
C215 C214 1.347 . S
C215 C216 1.369 . S
C216 C215 1.369 . S
C216 C217 1.408 . S
C216 H238 0.930 . S
C217 C212 1.348 . S
C217 C216 1.408 . S
C217 H239 0.930 . S
C218 O228 1.281 . S
C218 O229 1.254 . S
C219 O230 1.236 . S
C219 O231 1.266 . S
O220 Tb200 2.484 . S
O220 C202 1.248 . S
O221 Tb200 2.440 . S
O221 C202 1.266 . S
O222 Tb200 2.658 . S
O222 Tb201 2.325 . S
O222 C209 1.281 . S
O223 Tb200 2.409 . S
O223 C209 1.254 . S
O224 Tb200 2.378 . S
O224 C210 1.236 . S
O225 Tb201 2.341 . S
O225 C210 1.266 . S
O226 Tb201 2.484 . S
O226 C211 1.248 . S
O227 Tb201 2.440 . S
O227 C211 1.266 . S
O228 Tb200 2.325 . S
O228 Tb201 2.658 . S
O228 C218 1.281 . S
O229 Tb201 2.409 . S
O229 C218 1.254 . S
O230 Tb201 2.378 . S
O230 C219 1.236 . S
O231 Tb200 2.341 . S
O231 C219 1.266 . S
H232 C204 0.929 . S
H233 C205 0.931 . S
H234 C207 0.930 . S
H235 C208 0.930 . S
H236 C213 0.929 . S
H237 C214 0.931 . S
H238 C216 0.930 . S
H239 C217 0.930 . S
Tb240 C242 2.809 . S
Tb240 O260 2.484 . S
Tb240 O261 2.440 . S
Tb240 O262 2.658 . S
Tb240 O263 2.409 . S
Tb240 O264 2.378 . S
Tb240 O268 2.325 . S
Tb240 O271 2.341 . S
Tb241 C251 2.809 . S
Tb241 O262 2.325 . S
Tb241 O265 2.341 . S
Tb241 O266 2.484 . S
Tb241 O267 2.440 . S
Tb241 O268 2.658 . S
Tb241 O269 2.409 . S
Tb241 O270 2.378 . S
C242 Tb240 2.809 . S
C242 C243 1.514 . S
C242 O260 1.248 . S
C242 O261 1.266 . S
C243 C242 1.514 . S
C243 C244 1.359 . S
C243 C248 1.348 . S
C244 C243 1.359 . S
C244 C245 1.380 . S
C244 H272 0.929 . S
C245 C244 1.380 . S
C245 C246 1.347 . S
C245 H273 0.931 . S
C246 C245 1.347 . S
C246 C247 1.369 . S
C247 C246 1.369 . S
C247 C248 1.408 . S
C247 H274 0.930 . S
C248 C243 1.348 . S
C248 C247 1.408 . S
C248 H275 0.930 . S
C249 O262 1.281 . S
C249 O263 1.254 . S
C250 O264 1.236 . S
C250 O265 1.266 . S
C251 Tb241 2.809 . S
C251 C252 1.514 . S
C251 O266 1.248 . S
C251 O267 1.266 . S
C252 C251 1.514 . S
C252 C253 1.359 . S
C252 C257 1.348 . S
C253 C252 1.359 . S
C253 C254 1.380 . S
C253 H276 0.929 . S
C254 C253 1.380 . S
C254 C255 1.347 . S
C254 H277 0.931 . S
C255 C254 1.347 . S
C255 C256 1.369 . S
C256 C255 1.369 . S
C256 C257 1.408 . S
C256 H278 0.930 . S
C257 C252 1.348 . S
C257 C256 1.408 . S
C257 H279 0.930 . S
C258 O268 1.281 . S
C258 O269 1.254 . S
C259 O270 1.236 . S
C259 O271 1.266 . S
O260 Tb240 2.484 . S
O260 C242 1.248 . S
O261 Tb240 2.440 . S
O261 C242 1.266 . S
O262 Tb240 2.658 . S
O262 Tb241 2.325 . S
O262 C249 1.281 . S
O263 Tb240 2.409 . S
O263 C249 1.254 . S
O264 Tb240 2.378 . S
O264 C250 1.236 . S
O265 Tb241 2.341 . S
O265 C250 1.266 . S
O266 Tb241 2.484 . S
O266 C251 1.248 . S
O267 Tb241 2.440 . S
O267 C251 1.266 . S
O268 Tb240 2.325 . S
O268 Tb241 2.658 . S
O268 C258 1.281 . S
O269 Tb241 2.409 . S
O269 C258 1.254 . S
O270 Tb241 2.378 . S
O270 C259 1.236 . S
O271 Tb240 2.341 . S
O271 C259 1.266 . S
H272 C244 0.929 . S
H273 C245 0.931 . S
H274 C247 0.930 . S
H275 C248 0.930 . S
H276 C253 0.929 . S
H277 C254 0.931 . S
H278 C256 0.930 . S
H279 C257 0.930 . S
Tb280 C282 2.809 . S
Tb280 O300 2.484 . S
Tb280 O301 2.440 . S
Tb280 O302 2.658 . S
Tb280 O303 2.409 . S
Tb280 O304 2.378 . S
Tb280 O308 2.325 . S
Tb280 O311 2.341 . S
Tb281 C291 2.809 . S
Tb281 O302 2.325 . S
Tb281 O305 2.341 . S
Tb281 O306 2.484 . S
Tb281 O307 2.440 . S
Tb281 O308 2.658 . S
Tb281 O309 2.409 . S
Tb281 O310 2.378 . S
C282 Tb280 2.809 . S
C282 C283 1.514 . S
C282 O300 1.248 . S
C282 O301 1.266 . S
C283 C282 1.514 . S
C283 C284 1.359 . S
C283 C288 1.348 . S
C284 C283 1.359 . S
C284 C285 1.380 . S
C284 H312 0.929 . S
C285 C284 1.380 . S
C285 C286 1.347 . S
C285 H313 0.931 . S
C286 C285 1.347 . S
C286 C287 1.369 . S
C287 C286 1.369 . S
C287 C288 1.408 . S
C287 H314 0.930 . S
C288 C283 1.348 . S
C288 C287 1.408 . S
C288 H315 0.930 . S
C289 O302 1.281 . S
C289 O303 1.254 . S
C290 O304 1.236 . S
C290 O305 1.266 . S
C291 Tb281 2.809 . S
C291 C292 1.514 . S
C291 O306 1.248 . S
C291 O307 1.266 . S
C292 C291 1.514 . S
C292 C293 1.359 . S
C292 C297 1.348 . S
C293 C292 1.359 . S
C293 C294 1.380 . S
C293 H316 0.929 . S
C294 C293 1.380 . S
C294 C295 1.347 . S
C294 H317 0.931 . S
C295 C294 1.347 . S
C295 C296 1.369 . S
C296 C295 1.369 . S
C296 C297 1.408 . S
C296 H318 0.930 . S
C297 C292 1.348 . S
C297 C296 1.408 . S
C297 H319 0.930 . S
C298 O308 1.281 . S
C298 O309 1.254 . S
C299 O310 1.236 . S
C299 O311 1.266 . S
O300 Tb280 2.484 . S
O300 C282 1.248 . S
O301 Tb280 2.440 . S
O301 C282 1.266 . S
O302 Tb280 2.658 . S
O302 Tb281 2.325 . S
O302 C289 1.281 . S
O303 Tb280 2.409 . S
O303 C289 1.254 . S
O304 Tb280 2.378 . S
O304 C290 1.236 . S
O305 Tb281 2.341 . S
O305 C290 1.266 . S
O306 Tb281 2.484 . S
O306 C291 1.248 . S
O307 Tb281 2.440 . S
O307 C291 1.266 . S
O308 Tb280 2.325 . S
O308 Tb281 2.658 . S
O308 C298 1.281 . S
O309 Tb281 2.409 . S
O309 C298 1.254 . S
O310 Tb281 2.378 . S
O310 C299 1.236 . S
O311 Tb280 2.341 . S
O311 C299 1.266 . S
H312 C284 0.929 . S
H313 C285 0.931 . S
H314 C287 0.930 . S
H315 C288 0.930 . S
H316 C293 0.929 . S
H317 C294 0.931 . S
H318 C296 0.930 . S
H319 C297 0.930 . S
Tb320 C322 2.809 . S
Tb320 O340 2.484 . S
Tb320 O341 2.440 . S
Tb320 O342 2.658 . S
Tb320 O343 2.409 . S
Tb320 O344 2.378 . S
Tb320 O348 2.325 . S
Tb320 O351 2.341 . S
Tb321 C331 2.809 . S
Tb321 O342 2.325 . S
Tb321 O345 2.341 . S
Tb321 O346 2.484 . S
Tb321 O347 2.440 . S
Tb321 O348 2.658 . S
Tb321 O349 2.409 . S
Tb321 O350 2.378 . S
C322 Tb320 2.809 . S
C322 C323 1.514 . S
C322 O340 1.248 . S
C322 O341 1.266 . S
C323 C322 1.514 . S
C323 C324 1.359 . S
C323 C328 1.348 . S
C324 C323 1.359 . S
C324 C325 1.380 . S
C324 H352 0.929 . S
C325 C324 1.380 . S
C325 C326 1.347 . S
C325 H353 0.931 . S
C326 C325 1.347 . S
C326 C327 1.369 . S
C327 C326 1.369 . S
C327 C328 1.408 . S
C327 H354 0.930 . S
C328 C323 1.348 . S
C328 C327 1.408 . S
C328 H355 0.930 . S
C329 O342 1.281 . S
C329 O343 1.254 . S
C330 O344 1.236 . S
C330 O345 1.266 . S
C331 Tb321 2.809 . S
C331 C332 1.514 . S
C331 O346 1.248 . S
C331 O347 1.266 . S
C332 C331 1.514 . S
C332 C333 1.359 . S
C332 C337 1.348 . S
C333 C332 1.359 . S
C333 C334 1.380 . S
C333 H356 0.929 . S
C334 C333 1.380 . S
C334 C335 1.347 . S
C334 H357 0.931 . S
C335 C334 1.347 . S
C335 C336 1.369 . S
C336 C335 1.369 . S
C336 C337 1.408 . S
C336 H358 0.930 . S
C337 C332 1.348 . S
C337 C336 1.408 . S
C337 H359 0.930 . S
C338 O348 1.281 . S
C338 O349 1.254 . S
C339 O350 1.236 . S
C339 O351 1.266 . S
O340 Tb320 2.484 . S
O340 C322 1.248 . S
O341 Tb320 2.440 . S
O341 C322 1.266 . S
O342 Tb320 2.658 . S
O342 Tb321 2.325 . S
O342 C329 1.281 . S
O343 Tb320 2.409 . S
O343 C329 1.254 . S
O344 Tb320 2.378 . S
O344 C330 1.236 . S
O345 Tb321 2.341 . S
O345 C330 1.266 . S
O346 Tb321 2.484 . S
O346 C331 1.248 . S
O347 Tb321 2.440 . S
O347 C331 1.266 . S
O348 Tb320 2.325 . S
O348 Tb321 2.658 . S
O348 C338 1.281 . S
O349 Tb321 2.409 . S
O349 C338 1.254 . S
O350 Tb321 2.378 . S
O350 C339 1.236 . S
O351 Tb320 2.341 . S
O351 C339 1.266 . S
H352 C324 0.929 . S
H353 C325 0.931 . S
H354 C327 0.930 . S
H355 C328 0.930 . S
H356 C333 0.929 . S
H357 C334 0.931 . S
H358 C336 0.930 . S
H359 C337 0.930 . S
Tb360 C362 2.809 . S
Tb360 O380 2.484 . S
Tb360 O381 2.440 . S
Tb360 O382 2.658 . S
Tb360 O383 2.409 . S
Tb360 O384 2.378 . S
Tb360 O388 2.325 . S
Tb360 O391 2.341 . S
Tb361 C371 2.809 . S
Tb361 O382 2.325 . S
Tb361 O385 2.341 . S
Tb361 O386 2.484 . S
Tb361 O387 2.440 . S
Tb361 O388 2.658 . S
Tb361 O389 2.409 . S
Tb361 O390 2.378 . S
C362 Tb360 2.809 . S
C362 C363 1.514 . S
C362 O380 1.248 . S
C362 O381 1.266 . S
C363 C362 1.514 . S
C363 C364 1.359 . S
C363 C368 1.348 . S
C364 C363 1.359 . S
C364 C365 1.380 . S
C364 H392 0.929 . S
C365 C364 1.380 . S
C365 C366 1.347 . S
C365 H393 0.931 . S
C366 C365 1.347 . S
C366 C367 1.369 . S
C367 C366 1.369 . S
C367 C368 1.408 . S
C367 H394 0.930 . S
C368 C363 1.348 . S
C368 C367 1.408 . S
C368 H395 0.930 . S
C369 O382 1.281 . S
C369 O383 1.254 . S
C370 O384 1.236 . S
C370 O385 1.266 . S
C371 Tb361 2.809 . S
C371 C372 1.514 . S
C371 O386 1.248 . S
C371 O387 1.266 . S
C372 C371 1.514 . S
C372 C373 1.359 . S
C372 C377 1.348 . S
C373 C372 1.359 . S
C373 C374 1.380 . S
C373 H396 0.929 . S
C374 C373 1.380 . S
C374 C375 1.347 . S
C374 H397 0.931 . S
C375 C374 1.347 . S
C375 C376 1.369 . S
C376 C375 1.369 . S
C376 C377 1.408 . S
C376 H398 0.930 . S
C377 C372 1.348 . S
C377 C376 1.408 . S
C377 H399 0.930 . S
C378 O388 1.281 . S
C378 O389 1.254 . S
C379 O390 1.236 . S
C379 O391 1.266 . S
O380 Tb360 2.484 . S
O380 C362 1.248 . S
O381 Tb360 2.440 . S
O381 C362 1.266 . S
O382 Tb360 2.658 . S
O382 Tb361 2.325 . S
O382 C369 1.281 . S
O383 Tb360 2.409 . S
O383 C369 1.254 . S
O384 Tb360 2.378 . S
O384 C370 1.236 . S
O385 Tb361 2.341 . S
O385 C370 1.266 . S
O386 Tb361 2.484 . S
O386 C371 1.248 . S
O387 Tb361 2.440 . S
O387 C371 1.266 . S
O388 Tb360 2.325 . S
O388 Tb361 2.658 . S
O388 C378 1.281 . S
O389 Tb361 2.409 . S
O389 C378 1.254 . S
O390 Tb361 2.378 . S
O390 C379 1.236 . S
O391 Tb360 2.341 . S
O391 C379 1.266 . S
H392 C364 0.929 . S
H393 C365 0.931 . S
H394 C367 0.930 . S
H395 C368 0.930 . S
H396 C373 0.929 . S
H397 C374 0.931 . S
H398 C376 0.930 . S
H399 C377 0.930 . S
Tb400 C402 2.809 . S
Tb400 O420 2.484 . S
Tb400 O421 2.440 . S
Tb400 O422 2.658 1_556 S
Tb400 O423 2.409 1_556 S
Tb400 O424 2.378 1_556 S
Tb400 O428 2.325 1_556 S
Tb400 O431 2.341 . S
Tb401 C411 2.809 . S
Tb401 O422 2.325 . S
Tb401 O425 2.341 . S
Tb401 O426 2.484 . S
Tb401 O427 2.440 . S
Tb401 O428 2.658 . S
Tb401 O429 2.409 . S
Tb401 O430 2.378 . S
C402 Tb400 2.809 . S
C402 C403 1.514 . S
C402 O420 1.248 . S
C402 O421 1.266 . S
C403 C402 1.514 . S
C403 C404 1.359 . S
C403 C408 1.348 . S
C404 C403 1.359 . S
C404 C405 1.380 . S
C404 H432 0.929 . S
C405 C404 1.380 . S
C405 C406 1.347 . S
C405 H433 0.931 . S
C406 C405 1.347 . S
C406 C407 1.369 . S
C407 C406 1.369 . S
C407 C408 1.408 . S
C407 H434 0.930 . S
C408 C403 1.348 . S
C408 C407 1.408 . S
C408 H435 0.930 . S
C409 O422 1.281 . S
C409 O423 1.254 . S
C410 O424 1.236 . S
C410 O425 1.266 . S
C411 Tb401 2.809 . S
C411 C412 1.514 . S
C411 O426 1.248 . S
C411 O427 1.266 . S
C412 C411 1.514 . S
C412 C413 1.359 . S
C412 C417 1.348 . S
C413 C412 1.359 . S
C413 C414 1.380 . S
C413 H436 0.929 . S
C414 C413 1.380 . S
C414 C415 1.347 . S
C414 H437 0.931 . S
C415 C414 1.347 . S
C415 C416 1.369 . S
C416 C415 1.369 . S
C416 C417 1.408 . S
C416 H438 0.930 . S
C417 C412 1.348 . S
C417 C416 1.408 . S
C417 H439 0.930 . S
C418 O428 1.281 1_556 S
C418 O429 1.254 1_556 S
C419 O430 1.236 . S
C419 O431 1.266 1_554 S
O420 Tb400 2.484 . S
O420 C402 1.248 . S
O421 Tb400 2.440 . S
O421 C402 1.266 . S
O422 Tb400 2.658 1_554 S
O422 Tb401 2.325 . S
O422 C409 1.281 . S
O423 Tb400 2.409 1_554 S
O423 C409 1.254 . S
O424 Tb400 2.378 1_554 S
O424 C410 1.236 . S
O425 Tb401 2.341 . S
O425 C410 1.266 . S
O426 Tb401 2.484 . S
O426 C411 1.248 . S
O427 Tb401 2.440 . S
O427 C411 1.266 . S
O428 Tb400 2.325 1_554 S
O428 Tb401 2.658 . S
O428 C418 1.281 1_554 S
O429 Tb401 2.409 . S
O429 C418 1.254 1_554 S
O430 Tb401 2.378 . S
O430 C419 1.236 . S
O431 Tb400 2.341 . S
O431 C419 1.266 1_556 S
H432 C404 0.929 . S
H433 C405 0.931 . S
H434 C407 0.930 . S
H435 C408 0.930 . S
H436 C413 0.929 . S
H437 C414 0.931 . S
H438 C416 0.930 . S
H439 C417 0.930 . S
Tb440 C442 2.809 . S
Tb440 O460 2.484 . S
Tb440 O461 2.440 . S
Tb440 O462 2.658 . S
Tb440 O463 2.409 . S
Tb440 O464 2.378 . S
Tb440 O468 2.325 . S
Tb440 O471 2.341 . S
Tb441 C451 2.809 . S
Tb441 O462 2.325 . S
Tb441 O465 2.341 . S
Tb441 O466 2.484 . S
Tb441 O467 2.440 . S
Tb441 O468 2.658 . S
Tb441 O469 2.409 . S
Tb441 O470 2.378 . S
C442 Tb440 2.809 . S
C442 C443 1.514 . S
C442 O460 1.248 . S
C442 O461 1.266 . S
C443 C442 1.514 . S
C443 C444 1.359 . S
C443 C448 1.348 . S
C444 C443 1.359 . S
C444 C445 1.380 . S
C444 H472 0.929 . S
C445 C444 1.380 . S
C445 C446 1.347 . S
C445 H473 0.931 . S
C446 C445 1.347 . S
C446 C447 1.369 . S
C447 C446 1.369 . S
C447 C448 1.408 . S
C447 H474 0.930 . S
C448 C443 1.348 . S
C448 C447 1.408 . S
C448 H475 0.930 . S
C449 O462 1.281 . S
C449 O463 1.254 . S
C450 O464 1.236 . S
C450 O465 1.266 . S
C451 Tb441 2.809 . S
C451 C452 1.514 . S
C451 O466 1.248 . S
C451 O467 1.266 . S
C452 C451 1.514 . S
C452 C453 1.359 . S
C452 C457 1.348 . S
C453 C452 1.359 . S
C453 C454 1.380 . S
C453 H476 0.929 . S
C454 C453 1.380 . S
C454 C455 1.347 . S
C454 H477 0.931 . S
C455 C454 1.347 . S
C455 C456 1.369 . S
C456 C455 1.369 . S
C456 C457 1.408 . S
C456 H478 0.930 . S
C457 C452 1.348 . S
C457 C456 1.408 . S
C457 H479 0.930 . S
C458 O468 1.281 . S
C458 O469 1.254 . S
C459 O470 1.236 . S
C459 O471 1.266 . S
O460 Tb440 2.484 . S
O460 C442 1.248 . S
O461 Tb440 2.440 . S
O461 C442 1.266 . S
O462 Tb440 2.658 . S
O462 Tb441 2.325 . S
O462 C449 1.281 . S
O463 Tb440 2.409 . S
O463 C449 1.254 . S
O464 Tb440 2.378 . S
O464 C450 1.236 . S
O465 Tb441 2.341 . S
O465 C450 1.266 . S
O466 Tb441 2.484 . S
O466 C451 1.248 . S
O467 Tb441 2.440 . S
O467 C451 1.266 . S
O468 Tb440 2.325 . S
O468 Tb441 2.658 . S
O468 C458 1.281 . S
O469 Tb441 2.409 . S
O469 C458 1.254 . S
O470 Tb441 2.378 . S
O470 C459 1.236 . S
O471 Tb440 2.341 . S
O471 C459 1.266 . S
H472 C444 0.929 . S
H473 C445 0.931 . S
H474 C447 0.930 . S
H475 C448 0.930 . S
H476 C453 0.929 . S
H477 C454 0.931 . S
H478 C456 0.930 . S
H479 C457 0.930 . S
Tb480 C482 2.809 . S
Tb480 O500 2.484 . S
Tb480 O501 2.440 . S
Tb480 O502 2.658 . S
Tb480 O503 2.409 . S
Tb480 O504 2.378 . S
Tb480 O508 2.325 . S
Tb480 O511 2.341 . S
Tb481 C491 2.809 . S
Tb481 O502 2.325 . S
Tb481 O505 2.341 . S
Tb481 O506 2.484 . S
Tb481 O507 2.440 . S
Tb481 O508 2.658 . S
Tb481 O509 2.409 . S
Tb481 O510 2.378 . S
C482 Tb480 2.809 . S
C482 C483 1.514 . S
C482 O500 1.248 . S
C482 O501 1.266 . S
C483 C482 1.514 . S
C483 C484 1.359 . S
C483 C488 1.348 . S
C484 C483 1.359 . S
C484 C485 1.380 . S
C484 H512 0.929 . S
C485 C484 1.380 . S
C485 C486 1.347 . S
C485 H513 0.931 . S
C486 C485 1.347 . S
C486 C487 1.369 . S
C487 C486 1.369 . S
C487 C488 1.408 . S
C487 H514 0.930 . S
C488 C483 1.348 . S
C488 C487 1.408 . S
C488 H515 0.930 . S
C489 O502 1.281 . S
C489 O503 1.254 . S
C490 O504 1.236 . S
C490 O505 1.266 . S
C491 Tb481 2.809 . S
C491 C492 1.514 . S
C491 O506 1.248 . S
C491 O507 1.266 . S
C492 C491 1.514 . S
C492 C493 1.359 . S
C492 C497 1.348 . S
C493 C492 1.359 . S
C493 C494 1.380 . S
C493 H516 0.929 . S
C494 C493 1.380 . S
C494 C495 1.347 . S
C494 H517 0.931 . S
C495 C494 1.347 . S
C495 C496 1.369 . S
C496 C495 1.369 . S
C496 C497 1.408 . S
C496 H518 0.930 . S
C497 C492 1.348 . S
C497 C496 1.408 . S
C497 H519 0.930 . S
C498 O508 1.281 . S
C498 O509 1.254 . S
C499 O510 1.236 . S
C499 O511 1.266 . S
O500 Tb480 2.484 . S
O500 C482 1.248 . S
O501 Tb480 2.440 . S
O501 C482 1.266 . S
O502 Tb480 2.658 . S
O502 Tb481 2.325 . S
O502 C489 1.281 . S
O503 Tb480 2.409 . S
O503 C489 1.254 . S
O504 Tb480 2.378 . S
O504 C490 1.236 . S
O505 Tb481 2.341 . S
O505 C490 1.266 . S
O506 Tb481 2.484 . S
O506 C491 1.248 . S
O507 Tb481 2.440 . S
O507 C491 1.266 . S
O508 Tb480 2.325 . S
O508 Tb481 2.658 . S
O508 C498 1.281 . S
O509 Tb481 2.409 . S
O509 C498 1.254 . S
O510 Tb481 2.378 . S
O510 C499 1.236 . S
O511 Tb480 2.341 . S
O511 C499 1.266 . S
H512 C484 0.929 . S
H513 C485 0.931 . S
H514 C487 0.930 . S
H515 C488 0.930 . S
H516 C493 0.929 . S
H517 C494 0.931 . S
H518 C496 0.930 . S
H519 C497 0.930 . S
Tb520 C522 2.809 . S
Tb520 O540 2.484 . S
Tb520 O541 2.440 . S
Tb520 O542 2.658 . S
Tb520 O543 2.409 . S
Tb520 O544 2.378 . S
Tb520 O548 2.325 . S
Tb520 O551 2.341 . S
Tb521 C531 2.809 . S
Tb521 O542 2.325 . S
Tb521 O545 2.341 . S
Tb521 O546 2.484 . S
Tb521 O547 2.440 . S
Tb521 O548 2.658 . S
Tb521 O549 2.409 . S
Tb521 O550 2.378 . S
C522 Tb520 2.809 . S
C522 C523 1.514 . S
C522 O540 1.248 . S
C522 O541 1.266 . S
C523 C522 1.514 . S
C523 C524 1.359 . S
C523 C528 1.348 . S
C524 C523 1.359 . S
C524 C525 1.380 . S
C524 H552 0.929 . S
C525 C524 1.380 . S
C525 C526 1.347 . S
C525 H553 0.931 . S
C526 C525 1.347 . S
C526 C527 1.369 . S
C527 C526 1.369 . S
C527 C528 1.408 . S
C527 H554 0.930 . S
C528 C523 1.348 . S
C528 C527 1.408 . S
C528 H555 0.930 . S
C529 O542 1.281 . S
C529 O543 1.254 . S
C530 O544 1.236 . S
C530 O545 1.266 . S
C531 Tb521 2.809 . S
C531 C532 1.514 . S
C531 O546 1.248 . S
C531 O547 1.266 . S
C532 C531 1.514 . S
C532 C533 1.359 . S
C532 C537 1.348 . S
C533 C532 1.359 . S
C533 C534 1.380 . S
C533 H556 0.929 . S
C534 C533 1.380 . S
C534 C535 1.347 . S
C534 H557 0.931 . S
C535 C534 1.347 . S
C535 C536 1.369 . S
C536 C535 1.369 . S
C536 C537 1.408 . S
C536 H558 0.930 . S
C537 C532 1.348 . S
C537 C536 1.408 . S
C537 H559 0.930 . S
C538 O548 1.281 . S
C538 O549 1.254 . S
C539 O550 1.236 . S
C539 O551 1.266 . S
O540 Tb520 2.484 . S
O540 C522 1.248 . S
O541 Tb520 2.440 . S
O541 C522 1.266 . S
O542 Tb520 2.658 . S
O542 Tb521 2.325 . S
O542 C529 1.281 . S
O543 Tb520 2.409 . S
O543 C529 1.254 . S
O544 Tb520 2.378 . S
O544 C530 1.236 . S
O545 Tb521 2.341 . S
O545 C530 1.266 . S
O546 Tb521 2.484 . S
O546 C531 1.248 . S
O547 Tb521 2.440 . S
O547 C531 1.266 . S
O548 Tb520 2.325 . S
O548 Tb521 2.658 . S
O548 C538 1.281 . S
O549 Tb521 2.409 . S
O549 C538 1.254 . S
O550 Tb521 2.378 . S
O550 C539 1.236 . S
O551 Tb520 2.341 . S
O551 C539 1.266 . S
H552 C524 0.929 . S
H553 C525 0.931 . S
H554 C527 0.930 . S
H555 C528 0.930 . S
H556 C533 0.929 . S
H557 C534 0.931 . S
H558 C536 0.930 . S
H559 C537 0.930 . S
Tb560 C562 2.809 . S
Tb560 O580 2.484 . S
Tb560 O581 2.440 . S
Tb560 O582 2.658 . S
Tb560 O583 2.409 . S
Tb560 O584 2.378 . S
Tb560 O588 2.325 . S
Tb560 O591 2.341 . S
Tb561 C571 2.809 . S
Tb561 O582 2.325 1_554 S
Tb561 O585 2.341 . S
Tb561 O586 2.484 . S
Tb561 O587 2.440 . S
Tb561 O588 2.658 1_554 S
Tb561 O589 2.409 1_554 S
Tb561 O590 2.378 1_554 S
C562 Tb560 2.809 . S
C562 C563 1.514 . S
C562 O580 1.248 . S
C562 O581 1.266 . S
C563 C562 1.514 . S
C563 C564 1.359 . S
C563 C568 1.348 . S
C564 C563 1.359 . S
C564 C565 1.380 . S
C564 H592 0.929 . S
C565 C564 1.380 . S
C565 C566 1.347 . S
C565 H593 0.931 . S
C566 C565 1.347 . S
C566 C567 1.369 . S
C567 C566 1.369 . S
C567 C568 1.408 . S
C567 H594 0.930 . S
C568 C563 1.348 . S
C568 C567 1.408 . S
C568 H595 0.930 . S
C569 O582 1.281 1_554 S
C569 O583 1.254 1_554 S
C570 O584 1.236 . S
C570 O585 1.266 1_556 S
C571 Tb561 2.809 . S
C571 C572 1.514 . S
C571 O586 1.248 . S
C571 O587 1.266 . S
C572 C571 1.514 . S
C572 C573 1.359 . S
C572 C577 1.348 . S
C573 C572 1.359 . S
C573 C574 1.380 . S
C573 H596 0.929 . S
C574 C573 1.380 . S
C574 C575 1.347 . S
C574 H597 0.931 . S
C575 C574 1.347 . S
C575 C576 1.369 . S
C576 C575 1.369 . S
C576 C577 1.408 . S
C576 H598 0.930 . S
C577 C572 1.348 . S
C577 C576 1.408 . S
C577 H599 0.930 . S
C578 O588 1.281 . S
C578 O589 1.254 . S
C579 O590 1.236 . S
C579 O591 1.266 . S
O580 Tb560 2.484 . S
O580 C562 1.248 . S
O581 Tb560 2.440 . S
O581 C562 1.266 . S
O582 Tb560 2.658 . S
O582 Tb561 2.325 1_556 S
O582 C569 1.281 1_556 S
O583 Tb560 2.409 . S
O583 C569 1.254 1_556 S
O584 Tb560 2.378 . S
O584 C570 1.236 . S
O585 Tb561 2.341 . S
O585 C570 1.266 1_554 S
O586 Tb561 2.484 . S
O586 C571 1.248 . S
O587 Tb561 2.440 . S
O587 C571 1.266 . S
O588 Tb560 2.325 . S
O588 Tb561 2.658 1_556 S
O588 C578 1.281 . S
O589 Tb561 2.409 1_556 S
O589 C578 1.254 . S
O590 Tb561 2.378 1_556 S
O590 C579 1.236 . S
O591 Tb560 2.341 . S
O591 C579 1.266 . S
H592 C564 0.929 . S
H593 C565 0.931 . S
H594 C567 0.930 . S
H595 C568 0.930 . S
H596 C573 0.929 . S
H597 C574 0.931 . S
H598 C576 0.930 . S
H599 C577 0.930 . S
Tb600 C602 2.809 . S
Tb600 O620 2.484 . S
Tb600 O621 2.440 . S
Tb600 O622 2.658 . S
Tb600 O623 2.409 . S
Tb600 O624 2.378 . S
Tb600 O628 2.325 . S
Tb600 O631 2.341 . S
Tb601 C611 2.809 . S
Tb601 O622 2.325 . S
Tb601 O625 2.341 . S
Tb601 O626 2.484 . S
Tb601 O627 2.440 . S
Tb601 O628 2.658 . S
Tb601 O629 2.409 . S
Tb601 O630 2.378 . S
C602 Tb600 2.809 . S
C602 C603 1.514 . S
C602 O620 1.248 . S
C602 O621 1.266 . S
C603 C602 1.514 . S
C603 C604 1.359 . S
C603 C608 1.348 . S
C604 C603 1.359 . S
C604 C605 1.380 . S
C604 H632 0.929 . S
C605 C604 1.380 . S
C605 C606 1.347 . S
C605 H633 0.931 . S
C606 C605 1.347 . S
C606 C607 1.369 . S
C607 C606 1.369 . S
C607 C608 1.408 . S
C607 H634 0.930 . S
C608 C603 1.348 . S
C608 C607 1.408 . S
C608 H635 0.930 . S
C609 O622 1.281 . S
C609 O623 1.254 . S
C610 O624 1.236 . S
C610 O625 1.266 . S
C611 Tb601 2.809 . S
C611 C612 1.514 . S
C611 O626 1.248 . S
C611 O627 1.266 . S
C612 C611 1.514 . S
C612 C613 1.359 . S
C612 C617 1.348 . S
C613 C612 1.359 . S
C613 C614 1.380 . S
C613 H636 0.929 . S
C614 C613 1.380 . S
C614 C615 1.347 . S
C614 H637 0.931 . S
C615 C614 1.347 . S
C615 C616 1.369 . S
C616 C615 1.369 . S
C616 C617 1.408 . S
C616 H638 0.930 . S
C617 C612 1.348 . S
C617 C616 1.408 . S
C617 H639 0.930 . S
C618 O628 1.281 . S
C618 O629 1.254 . S
C619 O630 1.236 . S
C619 O631 1.266 . S
O620 Tb600 2.484 . S
O620 C602 1.248 . S
O621 Tb600 2.440 . S
O621 C602 1.266 . S
O622 Tb600 2.658 . S
O622 Tb601 2.325 . S
O622 C609 1.281 . S
O623 Tb600 2.409 . S
O623 C609 1.254 . S
O624 Tb600 2.378 . S
O624 C610 1.236 . S
O625 Tb601 2.341 . S
O625 C610 1.266 . S
O626 Tb601 2.484 . S
O626 C611 1.248 . S
O627 Tb601 2.440 . S
O627 C611 1.266 . S
O628 Tb600 2.325 . S
O628 Tb601 2.658 . S
O628 C618 1.281 . S
O629 Tb601 2.409 . S
O629 C618 1.254 . S
O630 Tb601 2.378 . S
O630 C619 1.236 . S
O631 Tb600 2.341 . S
O631 C619 1.266 . S
H632 C604 0.929 . S
H633 C605 0.931 . S
H634 C607 0.930 . S
H635 C608 0.930 . S
H636 C613 0.929 . S
H637 C614 0.931 . S
H638 C616 0.930 . S
H639 C617 0.930 . S
H640 C646 0.930 . S
H641 C650 0.930 . S
H642 C655 0.929 . S
H643 C653 0.929 . S
H644 C648 0.929 . S
H645 C654 0.929 . S
C646 H640 0.930 . S
C646 C647 1.367 . S
C646 C654 1.378 . S
C647 C646 1.367 . S
C647 C655 1.433 . S
C648 H644 0.929 . S
C648 C650 1.378 . S
C648 C652 1.350 . S
C649 C652 1.463 . S
C649 C654 1.350 . S
C649 N657 1.427 . S
C650 H641 0.930 . S
C650 C648 1.378 . S
C650 C651 1.367 . S
C651 C650 1.367 . S
C651 C653 1.433 . S
C652 C648 1.350 . S
C652 C649 1.463 . S
C652 N656 1.427 . S
C653 H643 0.929 . S
C653 C651 1.433 . S
C653 N656 1.384 . S
C654 H645 0.929 . S
C654 C646 1.378 . S
C654 C649 1.350 . S
C655 H642 0.929 . S
C655 C647 1.433 . S
C655 N657 1.384 . S
N656 C652 1.427 . S
N656 C653 1.384 . S
N657 C649 1.427 . S
N657 C655 1.384 . S
H658 C664 0.930 . S
H659 C668 0.930 . S
H660 C673 0.929 . S
H661 C671 0.929 . S
H662 C666 0.929 . S
H663 C672 0.929 . S
C664 H658 0.930 . S
C664 C665 1.367 . S
C664 C672 1.378 . S
C665 C664 1.367 . S
C665 C673 1.433 . S
C666 H662 0.929 . S
C666 C668 1.378 . S
C666 C670 1.350 . S
C667 C670 1.463 . S
C667 C672 1.350 . S
C667 N675 1.427 . S
C668 H659 0.930 . S
C668 C666 1.378 . S
C668 C669 1.367 . S
C669 C668 1.367 . S
C669 C671 1.433 . S
C670 C666 1.350 . S
C670 C667 1.463 . S
C670 N674 1.427 . S
C671 H661 0.929 . S
C671 C669 1.433 . S
C671 N674 1.384 . S
C672 H663 0.929 . S
C672 C664 1.378 . S
C672 C667 1.350 . S
C673 H660 0.929 . S
C673 C665 1.433 . S
C673 N675 1.384 . S
N674 C670 1.427 . S
N674 C671 1.384 . S
N675 C667 1.427 . S
N675 C673 1.384 . S
H676 C682 0.930 . S
H677 C686 0.930 . S
H678 C691 0.929 . S
H679 C689 0.929 . S
H680 C684 0.929 . S
H681 C690 0.929 . S
C682 H676 0.930 . S
C682 C683 1.367 . S
C682 C690 1.378 . S
C683 C682 1.367 . S
C683 C691 1.433 . S
C684 H680 0.929 . S
C684 C686 1.378 . S
C684 C688 1.350 . S
C685 C688 1.463 1_455 S
C685 C690 1.350 . S
C685 N693 1.427 . S
C686 H677 0.930 . S
C686 C684 1.378 . S
C686 C687 1.367 . S
C687 C686 1.367 . S
C687 C689 1.433 . S
C688 C684 1.350 . S
C688 C685 1.463 1_655 S
C688 N692 1.427 . S
C689 H679 0.929 . S
C689 C687 1.433 . S
C689 N692 1.384 . S
C690 H681 0.929 . S
C690 C682 1.378 . S
C690 C685 1.350 . S
C691 H678 0.929 . S
C691 C683 1.433 . S
C691 N693 1.384 . S
N692 C688 1.427 . S
N692 C689 1.384 . S
N693 C685 1.427 . S
N693 C691 1.384 . S
H694 C700 0.930 . S
H695 C704 0.930 . S
H696 C709 0.929 . S
H697 C707 0.929 . S
H698 C702 0.929 1_655 S
H699 C708 0.929 1_455 S
C700 H694 0.930 . S
C700 C701 1.367 . S
C700 C708 1.378 . S
C701 C700 1.367 . S
C701 C709 1.433 . S
C702 H698 0.929 1_455 S
C702 C704 1.378 . S
C702 C706 1.350 . S
C703 C706 1.463 1_655 S
C703 C708 1.350 . S
C703 N711 1.427 . S
C704 H695 0.930 . S
C704 C702 1.378 . S
C704 C705 1.367 . S
C705 C704 1.367 . S
C705 C707 1.433 . S
C706 C702 1.350 . S
C706 C703 1.463 1_455 S
C706 N710 1.427 . S
C707 H697 0.929 . S
C707 C705 1.433 . S
C707 N710 1.384 . S
C708 H699 0.929 1_655 S
C708 C700 1.378 . S
C708 C703 1.350 . S
C709 H696 0.929 . S
C709 C701 1.433 . S
C709 N711 1.384 . S
N710 C706 1.427 . S
N710 C707 1.384 . S
N711 C703 1.427 . S
N711 C709 1.384 . S
H712 C718 0.930 . S
H713 C722 0.930 . S
H714 C727 0.929 . S
H715 C725 0.929 . S
H716 C720 0.929 . S
H717 C726 0.929 . S
C718 H712 0.930 . S
C718 C719 1.367 . S
C718 C726 1.378 . S
C719 C718 1.367 . S
C719 C727 1.433 . S
C720 H716 0.929 . S
C720 C722 1.378 . S
C720 C724 1.350 . S
C721 C724 1.463 . S
C721 C726 1.350 . S
C721 N729 1.427 . S
C722 H713 0.930 . S
C722 C720 1.378 . S
C722 C723 1.367 . S
C723 C722 1.367 . S
C723 C725 1.433 . S
C724 C720 1.350 . S
C724 C721 1.463 . S
C724 N728 1.427 . S
C725 H715 0.929 . S
C725 C723 1.433 . S
C725 N728 1.384 . S
C726 H717 0.929 . S
C726 C718 1.378 . S
C726 C721 1.350 . S
C727 H714 0.929 . S
C727 C719 1.433 . S
C727 N729 1.384 . S
N728 C724 1.427 . S
N728 C725 1.384 . S
N729 C721 1.427 . S
N729 C727 1.384 . S
H730 C736 0.930 . S
H731 C740 0.930 . S
H732 C745 0.929 . S
H733 C743 0.929 . S
H734 C738 0.929 . S
H735 C744 0.929 . S
C736 H730 0.930 . S
C736 C737 1.367 . S
C736 C744 1.378 . S
C737 C736 1.367 . S
C737 C745 1.433 . S
C738 H734 0.929 . S
C738 C740 1.378 . S
C738 C742 1.350 . S
C739 C742 1.463 . S
C739 C744 1.350 . S
C739 N747 1.427 . S
C740 H731 0.930 . S
C740 C738 1.378 . S
C740 C741 1.367 . S
C741 C740 1.367 . S
C741 C743 1.433 . S
C742 C738 1.350 . S
C742 C739 1.463 . S
C742 N746 1.427 . S
C743 H733 0.929 . S
C743 C741 1.433 . S
C743 N746 1.384 . S
C744 H735 0.929 . S
C744 C736 1.378 . S
C744 C739 1.350 . S
C745 H732 0.929 . S
C745 C737 1.433 . S
C745 N747 1.384 . S
N746 C742 1.427 . S
N746 C743 1.384 . S
N747 C739 1.427 . S
N747 C745 1.384 . S
H748 C754 0.930 . S
H749 C758 0.930 . S
H750 C763 0.929 . S
H751 C761 0.929 . S
H752 C756 0.929 . S
H753 C762 0.929 . S
C754 H748 0.930 . S
C754 C755 1.367 . S
C754 C762 1.378 . S
C755 C754 1.367 . S
C755 C763 1.433 . S
C756 H752 0.929 . S
C756 C758 1.378 . S
C756 C760 1.350 . S
C757 C760 1.463 1_655 S
C757 C762 1.350 . S
C757 N765 1.427 . S
C758 H749 0.930 . S
C758 C756 1.378 . S
C758 C759 1.367 . S
C759 C758 1.367 . S
C759 C761 1.433 . S
C760 C756 1.350 . S
C760 C757 1.463 1_455 S
C760 N764 1.427 . S
C761 H751 0.929 . S
C761 C759 1.433 . S
C761 N764 1.384 . S
C762 H753 0.929 . S
C762 C754 1.378 . S
C762 C757 1.350 . S
C763 H750 0.929 . S
C763 C755 1.433 . S
C763 N765 1.384 . S
N764 C760 1.427 . S
N764 C761 1.384 . S
N765 C757 1.427 . S
N765 C763 1.384 . S
H766 C772 0.930 . S
H767 C776 0.930 . S
H768 C781 0.929 . S
H769 C779 0.929 . S
H770 C774 0.929 . S
H771 C780 0.929 . S
C772 H766 0.930 . S
C772 C773 1.367 . S
C772 C780 1.378 . S
C773 C772 1.367 . S
C773 C781 1.433 . S
C774 H770 0.929 . S
C774 C776 1.378 . S
C774 C778 1.350 . S
C775 C778 1.463 1_455 S
C775 C780 1.350 . S
C775 N783 1.427 . S
C776 H767 0.930 . S
C776 C774 1.378 . S
C776 C777 1.367 . S
C777 C776 1.367 . S
C777 C779 1.433 . S
C778 C774 1.350 . S
C778 C775 1.463 1_655 S
C778 N782 1.427 . S
C779 H769 0.929 . S
C779 C777 1.433 . S
C779 N782 1.384 . S
C780 H771 0.929 . S
C780 C772 1.378 . S
C780 C775 1.350 . S
C781 H768 0.929 . S
C781 C773 1.433 . S
C781 N783 1.384 . S
N782 C778 1.427 . S
N782 C779 1.384 . S
N783 C775 1.427 . S
N783 C781 1.384 . S
H784 C790 0.930 . S
H785 C794 0.930 1_554 S
H786 C799 0.929 . S
H787 C797 0.929 . S
H788 C792 0.929 . S
H789 C798 0.929 . S
C790 H784 0.930 . S
C790 C791 1.367 . S
C790 C798 1.378 . S
C791 C790 1.367 . S
C791 C799 1.433 . S
C792 H788 0.929 . S
C792 C794 1.378 . S
C792 C796 1.350 . S
C793 C796 1.463 . S
C793 C798 1.350 . S
C793 N801 1.427 . S
C794 H785 0.930 1_556 S
C794 C792 1.378 . S
C794 C795 1.367 . S
C795 C794 1.367 . S
C795 C797 1.433 . S
C796 C792 1.350 . S
C796 C793 1.463 . S
C796 N800 1.427 . S
C797 H787 0.929 . S
C797 C795 1.433 . S
C797 N800 1.384 . S
C798 H789 0.929 . S
C798 C790 1.378 . S
C798 C793 1.350 . S
C799 H786 0.929 . S
C799 C791 1.433 . S
C799 N801 1.384 . S
N800 C796 1.427 . S
N800 C797 1.384 . S
N801 C793 1.427 . S
N801 C799 1.384 . S
H802 C808 0.930 . S
H803 C812 0.930 . S
H804 C817 0.929 . S
H805 C815 0.929 . S
H806 C810 0.929 . S
H807 C816 0.929 . S
C808 H802 0.930 . S
C808 C809 1.367 . S
C808 C816 1.378 . S
C809 C808 1.367 . S
C809 C817 1.433 . S
C810 H806 0.929 . S
C810 C812 1.378 . S
C810 C814 1.350 . S
C811 C814 1.463 . S
C811 C816 1.350 . S
C811 N819 1.427 . S
C812 H803 0.930 . S
C812 C810 1.378 . S
C812 C813 1.367 . S
C813 C812 1.367 . S
C813 C815 1.433 . S
C814 C810 1.350 . S
C814 C811 1.463 . S
C814 N818 1.427 . S
C815 H805 0.929 . S
C815 C813 1.433 . S
C815 N818 1.384 . S
C816 H807 0.929 . S
C816 C808 1.378 . S
C816 C811 1.350 . S
C817 H804 0.929 . S
C817 C809 1.433 . S
C817 N819 1.384 . S
N818 C814 1.427 . S
N818 C815 1.384 . S
N819 C811 1.427 . S
N819 C817 1.384 . S
H820 C826 0.930 . S
H821 C830 0.930 . S
H822 C835 0.929 . S
H823 C833 0.929 . S
H824 C828 0.929 . S
H825 C834 0.929 . S
C826 H820 0.930 . S
C826 C827 1.367 . S
C826 C834 1.378 . S
C827 C826 1.367 . S
C827 C835 1.433 . S
C828 H824 0.929 . S
C828 C830 1.378 . S
C828 C832 1.350 . S
C829 C832 1.463 . S
C829 C834 1.350 . S
C829 N837 1.427 . S
C830 H821 0.930 . S
C830 C828 1.378 . S
C830 C831 1.367 . S
C831 C830 1.367 . S
C831 C833 1.433 . S
C832 C828 1.350 . S
C832 C829 1.463 . S
C832 N836 1.427 . S
C833 H823 0.929 . S
C833 C831 1.433 . S
C833 N836 1.384 . S
C834 H825 0.929 . S
C834 C826 1.378 . S
C834 C829 1.350 . S
C835 H822 0.929 . S
C835 C827 1.433 . S
C835 N837 1.384 . S
N836 C832 1.427 . S
N836 C833 1.384 . S
N837 C829 1.427 . S
N837 C835 1.384 . S
H838 C844 0.930 . S
H839 C848 0.930 . S
H840 C853 0.929 . S
H841 C851 0.929 . S
H842 C846 0.929 . S
H843 C852 0.929 . S
C844 H838 0.930 . S
C844 C845 1.367 . S
C844 C852 1.378 . S
C845 C844 1.367 . S
C845 C853 1.433 . S
C846 H842 0.929 . S
C846 C848 1.378 . S
C846 C850 1.350 . S
C847 C850 1.463 . S
C847 C852 1.350 . S
C847 N855 1.427 . S
C848 H839 0.930 . S
C848 C846 1.378 . S
C848 C849 1.367 . S
C849 C848 1.367 . S
C849 C851 1.433 . S
C850 C846 1.350 . S
C850 C847 1.463 . S
C850 N854 1.427 . S
C851 H841 0.929 . S
C851 C849 1.433 . S
C851 N854 1.384 . S
C852 H843 0.929 . S
C852 C844 1.378 . S
C852 C847 1.350 . S
C853 H840 0.929 . S
C853 C845 1.433 . S
C853 N855 1.384 . S
N854 C850 1.427 . S
N854 C851 1.384 . S
N855 C847 1.427 . S
N855 C853 1.384 . S
H856 C862 0.930 1_556 S
H857 C866 0.930 . S
H858 C871 0.929 . S
H859 C869 0.929 . S
H860 C864 0.929 . S
H861 C870 0.929 . S
C862 H856 0.930 1_554 S
C862 C863 1.367 . S
C862 C870 1.378 . S
C863 C862 1.367 . S
C863 C871 1.433 . S
C864 H860 0.929 . S
C864 C866 1.378 . S
C864 C868 1.350 . S
C865 C868 1.463 . S
C865 C870 1.350 . S
C865 N873 1.427 . S
C866 H857 0.930 . S
C866 C864 1.378 . S
C866 C867 1.367 . S
C867 C866 1.367 . S
C867 C869 1.433 . S
C868 C864 1.350 . S
C868 C865 1.463 . S
C868 N872 1.427 . S
C869 H859 0.929 . S
C869 C867 1.433 . S
C869 N872 1.384 . S
C870 H861 0.929 . S
C870 C862 1.378 . S
C870 C865 1.350 . S
C871 H858 0.929 . S
C871 C863 1.433 . S
C871 N873 1.384 . S
N872 C868 1.427 . S
N872 C869 1.384 . S
N873 C865 1.427 . S
N873 C871 1.384 . S
H874 C880 0.930 . S
H875 C884 0.930 . S
H876 C889 0.929 . S
H877 C887 0.929 . S
H878 C882 0.929 . S
H879 C888 0.929 . S
C880 H874 0.930 . S
C880 C881 1.367 . S
C880 C888 1.378 . S
C881 C880 1.367 . S
C881 C889 1.433 . S
C882 H878 0.929 . S
C882 C884 1.378 . S
C882 C886 1.350 . S
C883 C886 1.463 . S
C883 C888 1.350 . S
C883 N891 1.427 . S
C884 H875 0.930 . S
C884 C882 1.378 . S
C884 C885 1.367 . S
C885 C884 1.367 . S
C885 C887 1.433 . S
C886 C882 1.350 . S
C886 C883 1.463 . S
C886 N890 1.427 . S
C887 H877 0.929 . S
C887 C885 1.433 . S
C887 N890 1.384 . S
C888 H879 0.929 . S
C888 C880 1.378 . S
C888 C883 1.350 . S
C889 H876 0.929 . S
C889 C881 1.433 . S
C889 N891 1.384 . S
N890 C886 1.427 . S
N890 C887 1.384 . S
N891 C883 1.427 . S
N891 C889 1.384 . S
H892 C898 0.930 . S
H893 C902 0.930 . S
H894 C907 0.929 . S
H895 C905 0.929 . S
H896 C900 0.929 . S
H897 C906 0.929 . S
C898 H892 0.930 . S
C898 C899 1.367 . S
C898 C906 1.378 . S
C899 C898 1.367 . S
C899 C907 1.433 . S
C900 H896 0.929 . S
C900 C902 1.378 . S
C900 C904 1.350 . S
C901 C904 1.463 . S
C901 C906 1.350 . S
C901 N909 1.427 . S
C902 H893 0.930 . S
C902 C900 1.378 . S
C902 C903 1.367 . S
C903 C902 1.367 . S
C903 C905 1.433 . S
C904 C900 1.350 . S
C904 C901 1.463 . S
C904 N908 1.427 . S
C905 H895 0.929 . S
C905 C903 1.433 . S
C905 N908 1.384 . S
C906 H897 0.929 . S
C906 C898 1.378 . S
C906 C901 1.350 . S
C907 H894 0.929 . S
C907 C899 1.433 . S
C907 N909 1.384 . S
N908 C904 1.427 . S
N908 C905 1.384 . S
N909 C901 1.427 . S
N909 C907 1.384 . S
H910 C916 0.930 . S
H911 C920 0.930 . S
H912 C925 0.929 . S
H913 C923 0.929 . S
H914 C918 0.929 . S
H915 C924 0.929 . S
C916 H910 0.930 . S
C916 C917 1.367 . S
C916 C924 1.378 . S
C917 C916 1.367 . S
C917 C925 1.433 . S
C918 H914 0.929 . S
C918 C920 1.378 . S
C918 C922 1.350 . S
C919 C922 1.463 . S
C919 C924 1.350 . S
C919 N927 1.427 . S
C920 H911 0.930 . S
C920 C918 1.378 . S
C920 C921 1.367 . S
C921 C920 1.367 . S
C921 C923 1.433 . S
C922 C918 1.350 . S
C922 C919 1.463 . S
C922 N926 1.427 . S
C923 H913 0.929 . S
C923 C921 1.433 . S
C923 N926 1.384 . S
C924 H915 0.929 . S
C924 C916 1.378 . S
C924 C919 1.350 . S
C925 H912 0.929 . S
C925 C917 1.433 . S
C925 N927 1.384 . S
N926 C922 1.427 . S
N926 C923 1.384 . S
N927 C919 1.427 . S
N927 C925 1.384 . S
H928 C934 0.930 . S
H929 C938 0.930 . S
H930 C943 0.929 . S
H931 C941 0.929 . S
H932 C936 0.929 . S
H933 C942 0.929 . S
C934 H928 0.930 . S
C934 C935 1.367 . S
C934 C942 1.378 . S
C935 C934 1.367 . S
C935 C943 1.433 . S
C936 H932 0.929 . S
C936 C938 1.378 . S
C936 C940 1.350 . S
C937 C940 1.463 . S
C937 C942 1.350 . S
C937 N945 1.427 . S
C938 H929 0.930 . S
C938 C936 1.378 . S
C938 C939 1.367 . S
C939 C938 1.367 . S
C939 C941 1.433 . S
C940 C936 1.350 . S
C940 C937 1.463 . S
C940 N944 1.427 . S
C941 H931 0.929 . S
C941 C939 1.433 . S
C941 N944 1.384 . S
C942 H933 0.929 . S
C942 C934 1.378 . S
C942 C937 1.350 . S
C943 H930 0.929 . S
C943 C935 1.433 . S
C943 N945 1.384 . S
N944 C940 1.427 . S
N944 C941 1.384 . S
N945 C937 1.427 . S
N945 C943 1.384 . S
H946 C952 0.930 . S
H947 C956 0.930 . S
H948 C961 0.929 . S
H949 C959 0.929 . S
H950 C954 0.929 . S
H951 C960 0.929 . S
C952 H946 0.930 . S
C952 C953 1.367 . S
C952 C960 1.378 . S
C953 C952 1.367 . S
C953 C961 1.433 . S
C954 H950 0.929 . S
C954 C956 1.378 . S
C954 C958 1.350 . S
C955 C958 1.463 . S
C955 C960 1.350 1_565 S
C955 N963 1.427 . S
C956 H947 0.930 . S
C956 C954 1.378 . S
C956 C957 1.367 . S
C957 C956 1.367 . S
C957 C959 1.433 . S
C958 C954 1.350 . S
C958 C955 1.463 . S
C958 N962 1.427 . S
C959 H949 0.929 . S
C959 C957 1.433 . S
C959 N962 1.384 . S
C960 H951 0.929 . S
C960 C952 1.378 . S
C960 C955 1.350 1_545 S
C961 H948 0.929 . S
C961 C953 1.433 . S
C961 N963 1.384 1_545 S
N962 C958 1.427 . S
N962 C959 1.384 . S
N963 C955 1.427 . S
N963 C961 1.384 1_565 S
H964 C970 0.930 . S
H965 C974 0.930 . S
H966 C979 0.929 . S
H967 C977 0.929 . S
H968 C972 0.929 . S
H969 C978 0.929 . S
C970 H964 0.930 . S
C970 C971 1.367 . S
C970 C978 1.378 . S
C971 C970 1.367 . S
C971 C979 1.433 . S
C972 H968 0.929 . S
C972 C974 1.378 . S
C972 C976 1.350 . S
C973 C976 1.463 . S
C973 C978 1.350 . S
C973 N981 1.427 . S
C974 H965 0.930 . S
C974 C972 1.378 . S
C974 C975 1.367 . S
C975 C974 1.367 . S
C975 C977 1.433 . S
C976 C972 1.350 . S
C976 C973 1.463 . S
C976 N980 1.427 . S
C977 H967 0.929 . S
C977 C975 1.433 . S
C977 N980 1.384 . S
C978 H969 0.929 . S
C978 C970 1.378 . S
C978 C973 1.350 . S
C979 H966 0.929 . S
C979 C971 1.433 . S
C979 N981 1.384 . S
N980 C976 1.427 . S
N980 C977 1.384 . S
N981 C973 1.427 . S
N981 C979 1.384 . S
H982 C988 0.930 . S
H983 C992 0.930 . S
H984 C997 0.929 . S
H985 C995 0.929 . S
H986 C990 0.929 . S
H987 C996 0.929 . S
C988 H982 0.930 . S
C988 C989 1.367 . S
C988 C996 1.378 1_565 S
C989 C988 1.367 . S
C989 C997 1.433 . S
C990 H986 0.929 . S
C990 C992 1.378 . S
C990 C994 1.350 . S
C991 C994 1.463 . S
C991 C996 1.350 . S
C991 N999 1.427 1_545 S
C992 H983 0.930 . S
C992 C990 1.378 . S
C992 C993 1.367 . S
C993 C992 1.367 . S
C993 C995 1.433 . S
C994 C990 1.350 . S
C994 C991 1.463 . S
C994 N998 1.427 . S
C995 H985 0.929 . S
C995 C993 1.433 . S
C995 N998 1.384 . S
C996 H987 0.929 . S
C996 C988 1.378 1_545 S
C996 C991 1.350 . S
C997 H984 0.929 . S
C997 C989 1.433 . S
C997 N999 1.384 . S
N998 C994 1.427 . S
N998 C995 1.384 . S
N999 C991 1.427 1_565 S
N999 C997 1.384 . S
H1000 C1006 0.930 . S
H1001 C1010 0.930 . S
H1002 C1015 0.929 . S
H1003 C1013 0.929 . S
H1004 C1008 0.929 . S
H1005 C1014 0.929 . S
C1006 H1000 0.930 . S
C1006 C1007 1.367 . S
C1006 C1014 1.378 . S
C1007 C1006 1.367 . S
C1007 C1015 1.433 . S
C1008 H1004 0.929 . S
C1008 C1010 1.378 . S
C1008 C1012 1.350 . S
C1009 C1012 1.463 . S
C1009 C1014 1.350 . S
C1009 N1017 1.427 . S
C1010 H1001 0.930 . S
C1010 C1008 1.378 . S
C1010 C1011 1.367 . S
C1011 C1010 1.367 . S
C1011 C1013 1.433 . S
C1012 C1008 1.350 . S
C1012 C1009 1.463 . S
C1012 N1016 1.427 . S
C1013 H1003 0.929 . S
C1013 C1011 1.433 . S
C1013 N1016 1.384 . S
C1014 H1005 0.929 . S
C1014 C1006 1.378 . S
C1014 C1009 1.350 . S
C1015 H1002 0.929 . S
C1015 C1007 1.433 . S
C1015 N1017 1.384 . S
N1016 C1012 1.427 . S
N1016 C1013 1.384 . S
N1017 C1009 1.427 . S
N1017 C1015 1.384 . S
H1018 C1024 0.930 . S
H1019 C1028 0.930 . S
H1020 C1033 0.929 . S
H1021 C1031 0.929 . S
H1022 C1026 0.929 . S
H1023 C1032 0.929 . S
C1024 H1018 0.930 . S
C1024 C1025 1.367 . S
C1024 C1032 1.378 . S
C1025 C1024 1.367 . S
C1025 C1033 1.433 . S
C1026 H1022 0.929 . S
C1026 C1028 1.378 . S
C1026 C1030 1.350 1_565 S
C1027 C1030 1.463 . S
C1027 C1032 1.350 . S
C1027 N1035 1.427 . S
C1028 H1019 0.930 . S
C1028 C1026 1.378 . S
C1028 C1029 1.367 . S
C1029 C1028 1.367 . S
C1029 C1031 1.433 . S
C1030 C1026 1.350 1_545 S
C1030 C1027 1.463 . S
C1030 N1034 1.427 . S
C1031 H1021 0.929 . S
C1031 C1029 1.433 . S
C1031 N1034 1.384 1_565 S
C1032 H1023 0.929 . S
C1032 C1024 1.378 . S
C1032 C1027 1.350 . S
C1033 H1020 0.929 . S
C1033 C1025 1.433 . S
C1033 N1035 1.384 . S
N1034 C1030 1.427 . S
N1034 C1031 1.384 1_545 S
N1035 C1027 1.427 . S
N1035 C1033 1.384 . S
H1036 C1042 0.930 . S
H1037 C1046 0.930 . S
H1038 C1051 0.929 . S
H1039 C1049 0.929 . S
H1040 C1044 0.929 . S
H1041 C1050 0.929 . S
C1042 H1036 0.930 . S
C1042 C1043 1.367 . S
C1042 C1050 1.378 . S
C1043 C1042 1.367 . S
C1043 C1051 1.433 . S
C1044 H1040 0.929 . S
C1044 C1046 1.378 . S
C1044 C1048 1.350 . S
C1045 C1048 1.463 . S
C1045 C1050 1.350 . S
C1045 N1053 1.427 . S
C1046 H1037 0.930 . S
C1046 C1044 1.378 . S
C1046 C1047 1.367 . S
C1047 C1046 1.367 . S
C1047 C1049 1.433 . S
C1048 C1044 1.350 . S
C1048 C1045 1.463 . S
C1048 N1052 1.427 . S
C1049 H1039 0.929 . S
C1049 C1047 1.433 . S
C1049 N1052 1.384 . S
C1050 H1041 0.929 . S
C1050 C1042 1.378 . S
C1050 C1045 1.350 . S
C1051 H1038 0.929 . S
C1051 C1043 1.433 . S
C1051 N1053 1.384 . S
N1052 C1048 1.427 . S
N1052 C1049 1.384 . S
N1053 C1045 1.427 . S
N1053 C1051 1.384 . S
H1054 C1060 0.930 . S
H1055 C1064 0.930 . S
H1056 C1069 0.929 . S
H1057 C1067 0.929 . S
H1058 C1062 0.929 . S
H1059 C1068 0.929 . S
C1060 H1054 0.930 . S
C1060 C1061 1.367 . S
C1060 C1068 1.378 1_545 S
C1061 C1060 1.367 . S
C1061 C1069 1.433 . S
C1062 H1058 0.929 . S
C1062 C1064 1.378 . S
C1062 C1066 1.350 . S
C1063 C1066 1.463 . S
C1063 C1068 1.350 . S
C1063 N1071 1.427 1_565 S
C1064 H1055 0.930 . S
C1064 C1062 1.378 . S
C1064 C1065 1.367 . S
C1065 C1064 1.367 . S
C1065 C1067 1.433 . S
C1066 C1062 1.350 . S
C1066 C1063 1.463 . S
C1066 N1070 1.427 . S
C1067 H1057 0.929 . S
C1067 C1065 1.433 . S
C1067 N1070 1.384 . S
C1068 H1059 0.929 . S
C1068 C1060 1.378 1_565 S
C1068 C1063 1.350 . S
C1069 H1056 0.929 . S
C1069 C1061 1.433 . S
C1069 N1071 1.384 . S
N1070 C1066 1.427 . S
N1070 C1067 1.384 . S
N1071 C1063 1.427 1_545 S
N1071 C1069 1.384 . S
H1072 C1078 0.930 . S
H1073 C1082 0.930 . S
H1074 C1087 0.929 . S
H1075 C1085 0.929 . S
H1076 C1080 0.929 . S
H1077 C1086 0.929 . S
C1078 H1072 0.930 . S
C1078 C1079 1.367 . S
C1078 C1086 1.378 . S
C1079 C1078 1.367 . S
C1079 C1087 1.433 . S
C1080 H1076 0.929 . S
C1080 C1082 1.378 . S
C1080 C1084 1.350 . S
C1081 C1084 1.463 . S
C1081 C1086 1.350 . S
C1081 N1089 1.427 . S
C1082 H1073 0.930 . S
C1082 C1080 1.378 . S
C1082 C1083 1.367 . S
C1083 C1082 1.367 . S
C1083 C1085 1.433 . S
C1084 C1080 1.350 . S
C1084 C1081 1.463 . S
C1084 N1088 1.427 . S
C1085 H1075 0.929 . S
C1085 C1083 1.433 . S
C1085 N1088 1.384 . S
C1086 H1077 0.929 . S
C1086 C1078 1.378 . S
C1086 C1081 1.350 . S
C1087 H1074 0.929 . S
C1087 C1079 1.433 . S
C1087 N1089 1.384 . S
N1088 C1084 1.427 . S
N1088 C1085 1.384 . S
N1089 C1081 1.427 . S
N1089 C1087 1.384 . S
H1090 C1096 0.930 . S
H1091 C1100 0.930 . S
H1092 C1105 0.929 . S
H1093 C1103 0.929 . S
H1094 C1098 0.929 . S
H1095 C1104 0.929 . S
C1096 H1090 0.930 . S
C1096 C1097 1.367 . S
C1096 C1104 1.378 . S
C1097 C1096 1.367 . S
C1097 C1105 1.433 . S
C1098 H1094 0.929 . S
C1098 C1100 1.378 . S
C1098 C1102 1.350 . S
C1099 C1102 1.463 . S
C1099 C1104 1.350 . S
C1099 N1107 1.427 . S
C1100 H1091 0.930 . S
C1100 C1098 1.378 . S
C1100 C1101 1.367 . S
C1101 C1100 1.367 . S
C1101 C1103 1.433 . S
C1102 C1098 1.350 . S
C1102 C1099 1.463 . S
C1102 N1106 1.427 . S
C1103 H1093 0.929 . S
C1103 C1101 1.433 . S
C1103 N1106 1.384 . S
C1104 H1095 0.929 . S
C1104 C1096 1.378 . S
C1104 C1099 1.350 . S
C1105 H1092 0.929 . S
C1105 C1097 1.433 . S
C1105 N1107 1.384 . S
N1106 C1102 1.427 . S
N1106 C1103 1.384 . S
N1107 C1099 1.427 . S
N1107 C1105 1.384 . S
H1108 C1114 0.930 . S
H1109 C1118 0.930 . S
H1110 C1123 0.929 . S
H1111 C1121 0.929 . S
H1112 C1116 0.934 . S
H1113 C1122 0.929 . S
C1114 H1108 0.930 . S
C1114 C1115 1.367 . S
C1114 C1122 1.378 . S
C1115 C1114 1.367 . S
C1115 C1123 1.433 . S
C1116 H1112 0.934 . S
C1116 C1118 1.378 1_655 S
C1116 C1120 1.350 . S
C1117 C1120 1.463 . S
C1117 C1122 1.350 . S
C1117 N1125 1.427 . S
C1118 H1109 0.930 . S
C1118 C1116 1.378 1_455 S
C1118 C1119 1.373 . S
C1119 C1118 1.373 . S
C1119 C1121 1.417 1_455 S
C1120 C1116 1.350 . S
C1120 C1117 1.463 . S
C1120 N1124 1.427 . S
C1121 H1111 0.929 . S
C1121 C1119 1.417 1_655 S
C1121 N1124 1.384 . S
C1122 H1113 0.929 . S
C1122 C1114 1.378 . S
C1122 C1117 1.350 . S
C1123 H1110 0.929 . S
C1123 C1115 1.433 . S
C1123 N1125 1.384 . S
N1124 C1120 1.427 . S
N1124 C1121 1.384 . S
N1125 C1117 1.427 . S
N1125 C1123 1.384 . S
H1126 C1132 0.930 . S
H1127 C1136 0.930 . S
H1128 C1141 0.929 . S
H1129 C1139 0.929 . S
H1130 C1134 0.929 . S
H1131 C1140 0.929 . S
C1132 H1126 0.930 . S
C1132 C1133 1.367 . S
C1132 C1140 1.378 . S
C1133 C1132 1.367 . S
C1133 C1141 1.433 . S
C1134 H1130 0.929 . S
C1134 C1136 1.378 . S
C1134 C1138 1.350 . S
C1135 C1138 1.463 . S
C1135 C1140 1.350 . S
C1135 N1143 1.427 . S
C1136 H1127 0.930 . S
C1136 C1134 1.378 . S
C1136 C1137 1.367 . S
C1137 C1136 1.367 . S
C1137 C1139 1.433 . S
C1138 C1134 1.350 . S
C1138 C1135 1.463 . S
C1138 N1142 1.427 . S
C1139 H1129 0.929 . S
C1139 C1137 1.433 . S
C1139 N1142 1.384 . S
C1140 H1131 0.929 . S
C1140 C1132 1.378 . S
C1140 C1135 1.350 . S
C1141 H1128 0.929 . S
C1141 C1133 1.433 . S
C1141 N1143 1.384 . S
N1142 C1138 1.427 . S
N1142 C1139 1.384 . S
N1143 C1135 1.427 . S
N1143 C1141 1.384 . S
H1144 C1150 0.930 . S
H1145 C1154 0.930 . S
H1146 C1159 0.929 . S
H1147 C1157 0.929 . S
H1148 C1152 0.929 . S
H1149 C1158 0.929 . S
C1150 H1144 0.930 . S
C1150 C1151 1.367 . S
C1150 C1158 1.378 . S
C1151 C1150 1.367 . S
C1151 C1159 1.433 . S
C1152 H1148 0.929 . S
C1152 C1154 1.378 . S
C1152 C1156 1.350 . S
C1153 C1156 1.463 . S
C1153 C1158 1.350 . S
C1153 N1161 1.427 . S
C1154 H1145 0.930 . S
C1154 C1152 1.378 . S
C1154 C1155 1.367 . S
C1155 C1154 1.367 . S
C1155 C1157 1.433 . S
C1156 C1152 1.350 . S
C1156 C1153 1.463 . S
C1156 N1160 1.427 . S
C1157 H1147 0.929 . S
C1157 C1155 1.433 . S
C1157 N1160 1.384 . S
C1158 H1149 0.929 . S
C1158 C1150 1.378 . S
C1158 C1153 1.350 . S
C1159 H1146 0.929 . S
C1159 C1151 1.433 . S
C1159 N1161 1.384 . S
N1160 C1156 1.427 . S
N1160 C1157 1.384 . S
N1161 C1153 1.427 . S
N1161 C1159 1.384 . S
H1162 C1168 0.930 . S
H1163 C1172 0.930 1_554 S
H1164 C1177 0.929 . S
H1165 C1175 0.929 . S
H1166 C1170 0.929 . S
H1167 C1176 0.929 . S
C1168 H1162 0.930 . S
C1168 C1169 1.367 . S
C1168 C1176 1.378 . S
C1169 C1168 1.367 . S
C1169 C1177 1.433 . S
C1170 H1166 0.929 . S
C1170 C1172 1.378 . S
C1170 C1174 1.350 . S
C1171 C1174 1.463 . S
C1171 C1176 1.350 . S
C1171 N1179 1.427 . S
C1172 H1163 0.930 1_556 S
C1172 C1170 1.378 . S
C1172 C1173 1.367 . S
C1173 C1172 1.367 . S
C1173 C1175 1.433 . S
C1174 C1170 1.350 . S
C1174 C1171 1.463 . S
C1174 N1178 1.427 . S
C1175 H1165 0.929 . S
C1175 C1173 1.433 . S
C1175 N1178 1.384 . S
C1176 H1167 0.929 . S
C1176 C1168 1.378 . S
C1176 C1171 1.350 . S
C1177 H1164 0.929 . S
C1177 C1169 1.433 . S
C1177 N1179 1.384 . S
N1178 C1174 1.427 . S
N1178 C1175 1.384 . S
N1179 C1171 1.427 . S
N1179 C1177 1.384 . S
H1180 C1186 0.930 . S
H1181 C1190 0.930 . S
H1182 C1195 0.929 . S
H1183 C1193 0.939 . S
H1184 C1188 0.929 . S
H1185 C1194 0.929 . S
C1186 H1180 0.930 . S
C1186 C1187 1.367 . S
C1186 C1194 1.378 . S
C1187 C1186 1.367 . S
C1187 C1195 1.433 . S
C1188 H1184 0.929 . S
C1188 C1190 1.378 . S
C1188 C1192 1.350 . S
C1189 C1192 1.463 . S
C1189 C1194 1.350 . S
C1189 N1197 1.427 . S
C1190 H1181 0.930 . S
C1190 C1188 1.378 . S
C1190 C1191 1.368 1_455 S
C1191 C1190 1.368 1_655 S
C1191 C1193 1.433 . S
C1192 C1188 1.350 . S
C1192 C1189 1.463 . S
C1192 N1196 1.427 . S
C1193 H1183 0.939 . S
C1193 C1191 1.433 . S
C1193 N1196 1.374 1_655 S
C1194 H1185 0.929 . S
C1194 C1186 1.378 . S
C1194 C1189 1.350 . S
C1195 H1182 0.929 . S
C1195 C1187 1.433 . S
C1195 N1197 1.384 . S
N1196 C1192 1.427 . S
N1196 C1193 1.374 1_455 S
N1197 C1189 1.427 . S
N1197 C1195 1.384 . S
H1198 C1204 0.930 . S
H1199 C1208 0.930 . S
H1200 C1213 0.929 . S
H1201 C1211 0.929 . S
H1202 C1206 0.929 . S
H1203 C1212 0.929 . S
C1204 H1198 0.930 . S
C1204 C1205 1.367 . S
C1204 C1212 1.378 . S
C1205 C1204 1.367 . S
C1205 C1213 1.433 . S
C1206 H1202 0.929 . S
C1206 C1208 1.378 . S
C1206 C1210 1.350 . S
C1207 C1210 1.463 . S
C1207 C1212 1.350 . S
C1207 N1215 1.427 . S
C1208 H1199 0.930 . S
C1208 C1206 1.378 . S
C1208 C1209 1.367 . S
C1209 C1208 1.367 . S
C1209 C1211 1.433 . S
C1210 C1206 1.350 . S
C1210 C1207 1.463 . S
C1210 N1214 1.427 . S
C1211 H1201 0.929 . S
C1211 C1209 1.433 . S
C1211 N1214 1.384 . S
C1212 H1203 0.929 . S
C1212 C1204 1.378 . S
C1212 C1207 1.350 . S
C1213 H1200 0.929 . S
C1213 C1205 1.433 . S
C1213 N1215 1.384 . S
N1214 C1210 1.427 . S
N1214 C1211 1.384 . S
N1215 C1207 1.427 . S
N1215 C1213 1.384 . S
H1216 C1222 0.930 . S
H1217 C1226 0.930 . S
H1218 C1231 0.929 . S
H1219 C1229 0.929 . S
H1220 C1224 0.929 . S
H1221 C1230 0.929 1_655 S
C1222 H1216 0.930 . S
C1222 C1223 1.375 . S
C1222 C1230 1.378 1_655 S
C1223 C1222 1.375 . S
C1223 C1231 1.413 1_655 S
C1224 H1220 0.929 . S
C1224 C1226 1.378 . S
C1224 C1228 1.350 . S
C1225 C1228 1.463 . S
C1225 C1230 1.350 . S
C1225 N1233 1.427 . S
C1226 H1217 0.930 . S
C1226 C1224 1.378 . S
C1226 C1227 1.367 . S
C1227 C1226 1.367 . S
C1227 C1229 1.433 . S
C1228 C1224 1.350 . S
C1228 C1225 1.463 . S
C1228 N1232 1.427 . S
C1229 H1219 0.929 . S
C1229 C1227 1.433 . S
C1229 N1232 1.384 . S
C1230 H1221 0.929 1_455 S
C1230 C1222 1.378 1_455 S
C1230 C1225 1.350 . S
C1231 H1218 0.929 . S
C1231 C1223 1.413 1_455 S
C1231 N1233 1.384 . S
N1232 C1228 1.427 . S
N1232 C1229 1.384 . S
N1233 C1225 1.427 . S
N1233 C1231 1.384 . S
H1234 C1240 0.930 . S
H1235 C1244 0.930 . S
H1236 C1249 0.929 . S
H1237 C1247 0.929 . S
H1238 C1242 0.929 . S
H1239 C1248 0.929 . S
C1240 H1234 0.930 . S
C1240 C1241 1.367 . S
C1240 C1248 1.378 . S
C1241 C1240 1.367 . S
C1241 C1249 1.433 . S
C1242 H1238 0.929 . S
C1242 C1244 1.378 . S
C1242 C1246 1.350 . S
C1243 C1246 1.463 . S
C1243 C1248 1.350 . S
C1243 N1251 1.427 . S
C1244 H1235 0.930 . S
C1244 C1242 1.378 . S
C1244 C1245 1.367 . S
C1245 C1244 1.367 . S
C1245 C1247 1.433 . S
C1246 C1242 1.350 . S
C1246 C1243 1.463 . S
C1246 N1250 1.427 . S
C1247 H1237 0.929 . S
C1247 C1245 1.433 . S
C1247 N1250 1.384 . S
C1248 H1239 0.929 . S
C1248 C1240 1.378 . S
C1248 C1243 1.350 . S
C1249 H1236 0.929 . S
C1249 C1241 1.433 . S
C1249 N1251 1.384 . S
N1250 C1246 1.427 . S
N1250 C1247 1.384 . S
N1251 C1243 1.427 . S
N1251 C1249 1.384 . S
H1252 C1258 0.930 . S
H1253 C1262 0.930 . S
H1254 C1267 0.929 . S
H1255 C1265 0.929 . S
H1256 C1260 0.929 . S
H1257 C1266 0.929 . S
C1258 H1252 0.930 . S
C1258 C1259 1.367 . S
C1258 C1266 1.378 . S
C1259 C1258 1.367 . S
C1259 C1267 1.433 . S
C1260 H1256 0.929 . S
C1260 C1262 1.378 . S
C1260 C1264 1.350 . S
C1261 C1264 1.463 . S
C1261 C1266 1.350 . S
C1261 N1269 1.427 . S
C1262 H1253 0.930 . S
C1262 C1260 1.378 . S
C1262 C1263 1.367 . S
C1263 C1262 1.367 . S
C1263 C1265 1.433 . S
C1264 C1260 1.350 . S
C1264 C1261 1.463 . S
C1264 N1268 1.427 . S
C1265 H1255 0.929 . S
C1265 C1263 1.433 . S
C1265 N1268 1.384 . S
C1266 H1257 0.929 . S
C1266 C1258 1.378 . S
C1266 C1261 1.350 . S
C1267 H1254 0.929 . S
C1267 C1259 1.433 . S
C1267 N1269 1.384 . S
N1268 C1264 1.427 . S
N1268 C1265 1.384 . S
N1269 C1261 1.427 . S
N1269 C1267 1.384 . S
H1270 C1276 0.930 1_556 S
H1271 C1280 0.930 . S
H1272 C1285 0.929 . S
H1273 C1283 0.929 . S
H1274 C1278 0.929 . S
H1275 C1284 0.929 . S
C1276 H1270 0.930 1_554 S
C1276 C1277 1.367 . S
C1276 C1284 1.378 . S
C1277 C1276 1.367 . S
C1277 C1285 1.433 . S
C1278 H1274 0.929 . S
C1278 C1280 1.378 . S
C1278 C1282 1.350 . S
C1279 C1282 1.463 . S
C1279 C1284 1.350 . S
C1279 N1287 1.427 . S
C1280 H1271 0.930 . S
C1280 C1278 1.378 . S
C1280 C1281 1.367 . S
C1281 C1280 1.367 . S
C1281 C1283 1.433 . S
C1282 C1278 1.350 . S
C1282 C1279 1.463 . S
C1282 N1286 1.427 . S
C1283 H1273 0.929 . S
C1283 C1281 1.433 . S
C1283 N1286 1.384 . S
C1284 H1275 0.929 . S
C1284 C1276 1.378 . S
C1284 C1279 1.350 . S
C1285 H1272 0.929 . S
C1285 C1277 1.433 . S
C1285 N1287 1.384 . S
N1286 C1282 1.427 . S
N1286 C1283 1.384 . S
N1287 C1279 1.427 . S
N1287 C1285 1.384 . S
H1288 C1294 0.930 . S
H1289 C1298 0.930 . S
H1290 C1303 0.929 . S
H1291 C1301 0.929 . S
H1292 C1296 0.929 . S
H1293 C1302 0.929 . S
C1294 H1288 0.930 . S
C1294 C1295 1.371 . S
C1294 C1302 1.378 1_455 S
C1295 C1294 1.371 . S
C1295 C1303 1.420 1_455 S
C1296 H1292 0.929 . S
C1296 C1298 1.378 . S
C1296 C1300 1.350 . S
C1297 C1300 1.463 . S
C1297 C1302 1.350 . S
C1297 N1305 1.427 . S
C1298 H1289 0.930 . S
C1298 C1296 1.378 . S
C1298 C1299 1.367 . S
C1299 C1298 1.367 . S
C1299 C1301 1.433 . S
C1300 C1296 1.350 . S
C1300 C1297 1.463 . S
C1300 N1304 1.427 . S
C1301 H1291 0.929 . S
C1301 C1299 1.433 . S
C1301 N1304 1.384 . S
C1302 H1293 0.929 . S
C1302 C1294 1.378 1_655 S
C1302 C1297 1.350 . S
C1303 H1290 0.929 . S
C1303 C1295 1.420 1_655 S
C1303 N1305 1.384 . S
N1304 C1300 1.427 . S
N1304 C1301 1.384 . S
N1305 C1297 1.427 . S
N1305 C1303 1.384 . S
H1306 C1312 0.930 . S
H1307 C1316 0.930 . S
H1308 C1321 0.929 . S
H1309 C1319 0.929 . S
H1310 C1314 0.929 . S
H1311 C1320 0.929 . S
C1312 H1306 0.930 . S
C1312 C1313 1.367 . S
C1312 C1320 1.378 . S
C1313 C1312 1.367 . S
C1313 C1321 1.433 . S
C1314 H1310 0.929 . S
C1314 C1316 1.378 . S
C1314 C1318 1.350 . S
C1315 C1318 1.463 . S
C1315 C1320 1.350 . S
C1315 N1323 1.427 . S
C1316 H1307 0.930 . S
C1316 C1314 1.378 . S
C1316 C1317 1.367 . S
C1317 C1316 1.367 . S
C1317 C1319 1.433 . S
C1318 C1314 1.350 . S
C1318 C1315 1.463 . S
C1318 N1322 1.427 . S
C1319 H1309 0.929 . S
C1319 C1317 1.433 . S
C1319 N1322 1.384 . S
C1320 H1311 0.929 . S
C1320 C1312 1.378 . S
C1320 C1315 1.350 . S
C1321 H1308 0.929 . S
C1321 C1313 1.433 . S
C1321 N1323 1.384 . S
N1322 C1318 1.427 . S
N1322 C1319 1.384 . S
N1323 C1315 1.427 . S
N1323 C1321 1.384 . S
H1324 C1330 0.930 . S
H1325 C1334 0.930 . S
H1326 C1339 0.929 . S
H1327 C1337 0.929 . S
H1328 C1332 0.929 . S
H1329 C1338 0.929 . S
C1330 H1324 0.930 . S
C1330 C1331 1.367 . S
C1330 C1338 1.378 . S
C1331 C1330 1.367 . S
C1331 C1339 1.433 . S
C1332 H1328 0.929 . S
C1332 C1334 1.378 . S
C1332 C1336 1.350 . S
C1333 C1336 1.463 . S
C1333 C1338 1.350 . S
C1333 N1341 1.427 . S
C1334 H1325 0.930 . S
C1334 C1332 1.378 . S
C1334 C1335 1.367 . S
C1335 C1334 1.367 . S
C1335 C1337 1.433 . S
C1336 C1332 1.350 . S
C1336 C1333 1.463 . S
C1336 N1340 1.427 . S
C1337 H1327 0.929 . S
C1337 C1335 1.433 . S
C1337 N1340 1.384 . S
C1338 H1329 0.929 . S
C1338 C1330 1.378 . S
C1338 C1333 1.350 . S
C1339 H1326 0.929 . S
C1339 C1331 1.433 . S
C1339 N1341 1.384 . S
N1340 C1336 1.427 . S
N1340 C1337 1.384 . S
N1341 C1333 1.427 . S
N1341 C1339 1.384 . S
H1342 C1348 0.930 . S
H1343 C1352 0.930 . S
H1344 C1357 0.929 . S
H1345 C1355 0.929 . S
H1346 C1350 0.929 . S
H1347 C1356 0.929 . S
C1348 H1342 0.930 . S
C1348 C1349 1.367 . S
C1348 C1356 1.378 . S
C1349 C1348 1.367 . S
C1349 C1357 1.433 . S
C1350 H1346 0.929 . S
C1350 C1352 1.378 . S
C1350 C1354 1.350 . S
C1351 C1354 1.463 . S
C1351 C1356 1.350 . S
C1351 N1359 1.427 . S
C1352 H1343 0.930 . S
C1352 C1350 1.378 . S
C1352 C1353 1.367 . S
C1353 C1352 1.367 . S
C1353 C1355 1.433 . S
C1354 C1350 1.350 . S
C1354 C1351 1.463 . S
C1354 N1358 1.427 . S
C1355 H1345 0.929 . S
C1355 C1353 1.433 . S
C1355 N1358 1.384 . S
C1356 H1347 0.929 . S
C1356 C1348 1.378 . S
C1356 C1351 1.350 . S
C1357 H1344 0.929 . S
C1357 C1349 1.433 . S
C1357 N1359 1.384 . S
N1358 C1354 1.427 . S
N1358 C1355 1.384 . S
N1359 C1351 1.427 . S
N1359 C1357 1.384 . S
H1360 C1366 0.930 . S
H1361 C1370 0.930 . S
H1362 C1375 0.929 . S
H1363 C1373 0.929 . S
H1364 C1368 0.929 . S
H1365 C1374 0.929 . S
C1366 H1360 0.930 . S
C1366 C1367 1.367 . S
C1366 C1374 1.378 . S
C1367 C1366 1.367 . S
C1367 C1375 1.433 . S
C1368 H1364 0.929 . S
C1368 C1370 1.378 . S
C1368 C1372 1.350 . S
C1369 C1372 1.463 . S
C1369 C1374 1.350 . S
C1369 N1377 1.427 . S
C1370 H1361 0.930 . S
C1370 C1368 1.378 . S
C1370 C1371 1.367 . S
C1371 C1370 1.367 . S
C1371 C1373 1.433 . S
C1372 C1368 1.350 . S
C1372 C1369 1.463 . S
C1372 N1376 1.427 . S
C1373 H1363 0.929 . S
C1373 C1371 1.433 . S
C1373 N1376 1.384 . S
C1374 H1365 0.929 . S
C1374 C1366 1.378 . S
C1374 C1369 1.350 . S
C1375 H1362 0.929 . S
C1375 C1367 1.433 . S
C1375 N1377 1.384 . S
N1376 C1372 1.427 . S
N1376 C1373 1.384 . S
N1377 C1369 1.427 . S
N1377 C1375 1.384 . S
H1378 C1384 0.930 . S
H1379 C1388 0.930 . S
H1380 C1393 0.929 . S
H1381 C1391 0.929 . S
H1382 C1386 0.929 . S
H1383 C1392 0.929 . S
C1384 H1378 0.930 . S
C1384 C1385 1.367 . S
C1384 C1392 1.378 . S
C1385 C1384 1.367 . S
C1385 C1393 1.433 . S
C1386 H1382 0.929 . S
C1386 C1388 1.378 . S
C1386 C1390 1.350 . S
C1387 C1390 1.463 . S
C1387 C1392 1.350 . S
C1387 N1395 1.427 . S
C1388 H1379 0.930 . S
C1388 C1386 1.378 . S
C1388 C1389 1.367 . S
C1389 C1388 1.367 . S
C1389 C1391 1.433 . S
C1390 C1386 1.350 . S
C1390 C1387 1.463 . S
C1390 N1394 1.427 . S
C1391 H1381 0.929 . S
C1391 C1389 1.433 . S
C1391 N1394 1.384 . S
C1392 H1383 0.929 . S
C1392 C1384 1.378 . S
C1392 C1387 1.350 . S
C1393 H1380 0.929 . S
C1393 C1385 1.433 . S
C1393 N1395 1.384 . S
N1394 C1390 1.427 . S
N1394 C1391 1.384 . S
N1395 C1387 1.427 . S
N1395 C1393 1.384 . S
H1396 C1402 0.930 . S
H1397 C1406 0.930 . S
H1398 C1411 0.929 . S
H1399 C1409 0.929 . S
H1400 C1404 0.929 . S
H1401 C1410 0.929 . S
C1402 H1396 0.930 . S
C1402 C1403 1.367 . S
C1402 C1410 1.378 . S
C1403 C1402 1.367 . S
C1403 C1411 1.433 . S
C1404 H1400 0.929 . S
C1404 C1406 1.378 . S
C1404 C1408 1.350 . S
C1405 C1408 1.463 . S
C1405 C1410 1.350 . S
C1405 N1413 1.427 . S
C1406 H1397 0.930 . S
C1406 C1404 1.378 . S
C1406 C1407 1.367 . S
C1407 C1406 1.367 . S
C1407 C1409 1.433 . S
C1408 C1404 1.350 . S
C1408 C1405 1.463 . S
C1408 N1412 1.427 . S
C1409 H1399 0.929 . S
C1409 C1407 1.433 . S
C1409 N1412 1.384 . S
C1410 H1401 0.929 . S
C1410 C1402 1.378 . S
C1410 C1405 1.350 . S
C1411 H1398 0.929 . S
C1411 C1403 1.433 . S
C1411 N1413 1.384 . S
N1412 C1408 1.427 . S
N1412 C1409 1.384 . S
N1413 C1405 1.427 . S
N1413 C1411 1.384 . S
H1414 C1420 0.930 . S
H1415 C1424 0.930 . S
H1416 C1429 0.929 . S
H1417 C1427 0.929 . S
H1418 C1422 0.929 . S
H1419 C1428 0.929 . S
C1420 H1414 0.930 . S
C1420 C1421 1.367 . S
C1420 C1428 1.378 . S
C1421 C1420 1.367 . S
C1421 C1429 1.433 . S
C1422 H1418 0.929 . S
C1422 C1424 1.378 . S
C1422 C1426 1.350 . S
C1423 C1426 1.463 1_454 S
C1423 C1428 1.350 . S
C1423 N1431 1.427 . S
C1424 H1415 0.930 . S
C1424 C1422 1.378 . S
C1424 C1425 1.367 . S
C1425 C1424 1.367 . S
C1425 C1427 1.433 . S
C1426 C1422 1.350 . S
C1426 C1423 1.463 1_656 S
C1426 N1430 1.427 . S
C1427 H1417 0.929 . S
C1427 C1425 1.433 . S
C1427 N1430 1.384 . S
C1428 H1419 0.929 . S
C1428 C1420 1.378 . S
C1428 C1423 1.350 . S
C1429 H1416 0.929 . S
C1429 C1421 1.433 . S
C1429 N1431 1.384 . S
N1430 C1426 1.427 . S
N1430 C1427 1.384 . S
N1431 C1423 1.427 . S
N1431 C1429 1.384 . S
H1432 C1438 0.930 . S
H1433 C1442 0.930 . S
H1434 C1447 0.929 . S
H1435 C1445 0.929 . S
H1436 C1440 0.929 . S
H1437 C1446 0.929 . S
C1438 H1432 0.930 . S
C1438 C1439 1.367 . S
C1438 C1446 1.378 . S
C1439 C1438 1.367 . S
C1439 C1447 1.433 . S
C1440 H1436 0.929 . S
C1440 C1442 1.378 . S
C1440 C1444 1.350 . S
C1441 C1444 1.463 . S
C1441 C1446 1.350 . S
C1441 N1449 1.427 . S
C1442 H1433 0.930 . S
C1442 C1440 1.378 . S
C1442 C1443 1.367 . S
C1443 C1442 1.367 . S
C1443 C1445 1.433 . S
C1444 C1440 1.350 . S
C1444 C1441 1.463 . S
C1444 N1448 1.427 . S
C1445 H1435 0.929 . S
C1445 C1443 1.433 . S
C1445 N1448 1.384 . S
C1446 H1437 0.929 . S
C1446 C1438 1.378 . S
C1446 C1441 1.350 . S
C1447 H1434 0.929 . S
C1447 C1439 1.433 . S
C1447 N1449 1.384 . S
N1448 C1444 1.427 . S
N1448 C1445 1.384 . S
N1449 C1441 1.427 . S
N1449 C1447 1.384 . S
H1450 C1456 0.930 . S
H1451 C1460 0.930 . S
H1452 C1465 0.929 . S
H1453 C1463 0.929 . S
H1454 C1458 0.929 . S
H1455 C1464 0.929 . S
C1456 H1450 0.930 . S
C1456 C1457 1.367 . S
C1456 C1464 1.378 . S
C1457 C1456 1.367 . S
C1457 C1465 1.433 . S
C1458 H1454 0.929 . S
C1458 C1460 1.378 . S
C1458 C1462 1.350 . S
C1459 C1462 1.463 . S
C1459 C1464 1.350 . S
C1459 N1467 1.427 . S
C1460 H1451 0.930 . S
C1460 C1458 1.378 . S
C1460 C1461 1.367 . S
C1461 C1460 1.367 . S
C1461 C1463 1.433 . S
C1462 C1458 1.350 . S
C1462 C1459 1.463 . S
C1462 N1466 1.427 . S
C1463 H1453 0.929 . S
C1463 C1461 1.433 . S
C1463 N1466 1.384 . S
C1464 H1455 0.929 . S
C1464 C1456 1.378 . S
C1464 C1459 1.350 . S
C1465 H1452 0.929 . S
C1465 C1457 1.433 . S
C1465 N1467 1.384 . S
N1466 C1462 1.427 . S
N1466 C1463 1.384 . S
N1467 C1459 1.427 . S
N1467 C1465 1.384 . S
H1468 C1474 0.930 . S
H1469 C1478 0.930 . S
H1470 C1483 0.929 . S
H1471 C1481 0.929 . S
H1472 C1476 0.929 1_556 S
H1473 C1482 0.929 1_554 S
C1474 H1468 0.930 . S
C1474 C1475 1.367 . S
C1474 C1482 1.378 . S
C1475 C1474 1.367 . S
C1475 C1483 1.433 1_545 S
C1476 H1472 0.929 1_554 S
C1476 C1478 1.378 . S
C1476 C1480 1.350 . S
C1477 C1480 1.463 1_446 S
C1477 C1482 1.350 . S
C1477 N1485 1.427 1_545 S
C1478 H1469 0.930 . S
C1478 C1476 1.378 . S
C1478 C1479 1.367 . S
C1479 C1478 1.367 . S
C1479 C1481 1.433 1_565 S
C1480 C1476 1.350 . S
C1480 C1477 1.463 1_664 S
C1480 N1484 1.427 1_565 S
C1481 H1471 0.929 . S
C1481 C1479 1.433 1_545 S
C1481 N1484 1.384 . S
C1482 H1473 0.929 1_556 S
C1482 C1474 1.378 . S
C1482 C1477 1.350 . S
C1483 H1470 0.929 . S
C1483 C1475 1.433 1_565 S
C1483 N1485 1.384 . S
N1484 C1480 1.427 1_545 S
N1484 C1481 1.384 . S
N1485 C1477 1.427 1_565 S
N1485 C1483 1.384 . S
H1486 C1492 0.930 . S
H1487 C1496 0.930 . S
H1488 C1501 0.929 . S
H1489 C1499 0.929 . S
H1490 C1494 0.929 . S
H1491 C1500 0.929 . S
C1492 H1486 0.930 . S
C1492 C1493 1.367 . S
C1492 C1500 1.378 . S
C1493 C1492 1.367 . S
C1493 C1501 1.433 1_545 S
C1494 H1490 0.929 . S
C1494 C1496 1.378 . S
C1494 C1498 1.350 . S
C1495 C1498 1.463 1_545 S
C1495 C1500 1.350 . S
C1495 N1503 1.427 1_545 S
C1496 H1487 0.930 . S
C1496 C1494 1.378 . S
C1496 C1497 1.367 . S
C1497 C1496 1.367 . S
C1497 C1499 1.433 1_565 S
C1498 C1494 1.350 . S
C1498 C1495 1.463 1_565 S
C1498 N1502 1.427 1_565 S
C1499 H1489 0.929 . S
C1499 C1497 1.433 1_545 S
C1499 N1502 1.384 . S
C1500 H1491 0.929 . S
C1500 C1492 1.378 . S
C1500 C1495 1.350 . S
C1501 H1488 0.929 . S
C1501 C1493 1.433 1_565 S
C1501 N1503 1.384 . S
N1502 C1498 1.427 1_545 S
N1502 C1499 1.384 . S
N1503 C1495 1.427 1_565 S
N1503 C1501 1.384 . S
C647 C10 3.254 . S
C651 C410 3.254 . S
C665 C50 3.252 . S
C669 C450 3.252 . S
C683 C90 3.249 . S
C687 C330 3.249 . S
C701 C130 3.248 . S
C705 C370 3.248 . S
C719 C179 3.253 . S
C723 C579 3.253 . S
C737 C219 3.253 . S
C741 C619 3.252 . S
C755 C259 3.252 . S
C759 C499 3.252 . S
C773 C299 3.250 . S
C777 C539 3.250 . S
C791 C369 3.732 . S
C795 C19 3.717 1_556 S
C809 C409 3.732 . S
C813 C59 3.718 . S
C827 C449 3.732 . S
C831 C99 3.718 . S
C845 C329 3.737 . S
C849 C139 3.712 . S
C863 C170 3.717 1_554 S
C867 C538 3.732 . S
C881 C578 3.737 . S
C885 C210 3.713 . S
C899 C618 3.733 . S
C903 C250 3.718 . S
C917 C498 3.736 . S
C921 C290 3.715 . S
C935 C49 3.732 . S
C939 C339 3.718 . S
C953 C379 3.713 . S
C957 C89 3.738 . S
C971 C419 3.712 1_556 S
C975 C129 3.736 . S
C989 C459 3.717 . S
C993 C9 3.732 . S
C1007 C490 3.712 . S
C1011 C218 3.738 . S
C1025 C258 3.737 . S
C1029 C530 3.714 . S
C1043 C298 3.734 . S
C1047 C570 3.718 1_554 S
C1061 C610 3.718 . S
C1065 C178 3.732 . S
C1079 C6 0.401 . S
C1083 C609 0.167 . S
C1097 C46 0.385 . S
C1101 C169 0.129 . S
C1115 C529 0.147 . S
C1119 C86 0.385 . S
C1133 C249 0.124 . S
C1137 C126 0.406 . S
C1151 C175 0.374 . S
C1155 C458 0.138 . S
C1169 C215 0.421 . S
C1173 C18 0.134 . S
C1187 C378 0.158 . S
C1191 C255 0.413 . S
C1205 C98 0.135 . S
C1209 C295 0.422 . S
C1223 C326 0.402 . S
C1227 C289 0.169 . S
C1241 C366 0.420 . S
C1245 C489 0.132 . S
C1259 C209 0.124 . S
C1263 C406 0.398 . S
C1277 C569 0.129 . S
C1281 C446 0.418 . S
C1295 C495 0.385 . S
C1299 C138 0.145 . S
C1313 C535 0.376 . S
C1317 C338 0.167 . S
C1331 C575 0.416 . S
C1335 C58 0.157 . S
C1349 C418 0.159 . S
C1353 C615 0.414 . S
C1367 C15 1.663 . S
C1371 C486 1.663 . S
C1385 C55 1.672 . S
C1389 C206 1.672 . S
C1403 C95 1.665 . S
C1407 C566 1.665 . S
C1421 C286 1.671 . S
C1425 C135 1.671 . S
C1439 C166 1.670 . S
C1443 C335 1.670 . S
C1457 C415 1.658 . S
C1461 C246 1.658 . S
C1475 C375 1.657 . S
C1479 C526 1.657 . S
C1493 C606 1.656 . S
C1497 C455 1.656 . S
