# Generated by pormake.
# Topology fnh, (5)-cn, num edge types: 1
# Building blocks:
#     Node 0, Type 0, BuildingBlock: XOMCOT_clean_sbu_0, # of connection points: 5
#     Node 1, Type 0, BuildingBlock: XOMCOT_clean_sbu_0, # of connection points: 5
#     Node 2, Type 0, BuildingBlock: XOMCOT_clean_sbu_0, # of connection points: 5
#     Node 3, Type 0, BuildingBlock: XOMCOT_clean_sbu_0, # of connection points: 5
#     Node 4, Type 0, BuildingBlock: XOMCOT_clean_sbu_0, # of connection points: 5
#     Node 5, Type 0, BuildingBlock: XOMCOT_clean_sbu_0, # of connection points: 5
#     Node 6, Type 0, BuildingBlock: XOMCOT_clean_sbu_0, # of connection points: 5
#     Node 7, Type 0, BuildingBlock: XOMCOT_clean_sbu_0, # of connection points: 5
#     Node 8, Type 0, BuildingBlock: XOMCOT_clean_sbu_0, # of connection points: 5
#     Node 9, Type 0, BuildingBlock: XOMCOT_clean_sbu_0, # of connection points: 5
#     Node 10, Type 0, BuildingBlock: XOMCOT_clean_sbu_0, # of connection points: 5
#     Node 11, Type 0, BuildingBlock: XOMCOT_clean_sbu_0, # of connection points: 5
#     Node 12, Type 0, BuildingBlock: XOMCOT_clean_sbu_0, # of connection points: 5
#     Node 13, Type 0, BuildingBlock: XOMCOT_clean_sbu_0, # of connection points: 5
#     Node 14, Type 0, BuildingBlock: XOMCOT_clean_sbu_0, # of connection points: 5
#     Node 15, Type 0, BuildingBlock: XOMCOT_clean_sbu_0, # of connection points: 5
#     Node 16, Type 0, BuildingBlock: XOMCOT_clean_sbu_0, # of connection points: 5
#     Node 17, Type 0, BuildingBlock: XOMCOT_clean_sbu_0, # of connection points: 5
#     Edge 18, Type (0, 0), BuildingBlock: CIFDUS_clean_linker_0, # of connection points: 2
#     Edge 19, Type (0, 0), BuildingBlock: CIFDUS_clean_linker_0, # of connection points: 2
#     Edge 20, Type (0, 0), BuildingBlock: CIFDUS_clean_linker_0, # of connection points: 2
#     Edge 21, Type (0, 0), BuildingBlock: CIFDUS_clean_linker_0, # of connection points: 2
#     Edge 22, Type (0, 0), BuildingBlock: CIFDUS_clean_linker_0, # of connection points: 2
#     Edge 23, Type (0, 0), BuildingBlock: CIFDUS_clean_linker_0, # of connection points: 2
#     Edge 24, Type (0, 0), BuildingBlock: CIFDUS_clean_linker_0, # of connection points: 2
#     Edge 25, Type (0, 0), BuildingBlock: CIFDUS_clean_linker_0, # of connection points: 2
#     Edge 26, Type (0, 0), BuildingBlock: CIFDUS_clean_linker_0, # of connection points: 2
#     Edge 27, Type (0, 0), BuildingBlock: CIFDUS_clean_linker_0, # of connection points: 2
#     Edge 28, Type (0, 0), BuildingBlock: CIFDUS_clean_linker_0, # of connection points: 2
#     Edge 29, Type (0, 0), BuildingBlock: CIFDUS_clean_linker_0, # of connection points: 2
#     Edge 30, Type (0, 0), BuildingBlock: CIFDUS_clean_linker_0, # of connection points: 2
#     Edge 31, Type (0, 0), BuildingBlock: CIFDUS_clean_linker_0, # of connection points: 2
#     Edge 32, Type (0, 0), BuildingBlock: CIFDUS_clean_linker_0, # of connection points: 2
#     Edge 33, Type (0, 0), BuildingBlock: CIFDUS_clean_linker_0, # of connection points: 2
#     Edge 34, Type (0, 0), BuildingBlock: CIFDUS_clean_linker_0, # of connection points: 2
#     Edge 35, Type (0, 0), BuildingBlock: CIFDUS_clean_linker_0, # of connection points: 2
#     Edge 36, Type (0, 0), BuildingBlock: CIFDUS_clean_linker_0, # of connection points: 2
#     Edge 37, Type (0, 0), BuildingBlock: CIFDUS_clean_linker_0, # of connection points: 2
#     Edge 38, Type (0, 0), BuildingBlock: CIFDUS_clean_linker_0, # of connection points: 2
#     Edge 39, Type (0, 0), BuildingBlock: CIFDUS_clean_linker_0, # of connection points: 2
#     Edge 40, Type (0, 0), BuildingBlock: CIFDUS_clean_linker_0, # of connection points: 2
#     Edge 41, Type (0, 0), BuildingBlock: CIFDUS_clean_linker_0, # of connection points: 2
#     Edge 42, Type (0, 0), BuildingBlock: CIFDUS_clean_linker_0, # of connection points: 2
#     Edge 43, Type (0, 0), BuildingBlock: CIFDUS_clean_linker_0, # of connection points: 2
#     Edge 44, Type (0, 0), BuildingBlock: CIFDUS_clean_linker_0, # of connection points: 2
#     Edge 45, Type (0, 0), BuildingBlock: CIFDUS_clean_linker_0, # of connection points: 2
#     Edge 46, Type (0, 0), BuildingBlock: CIFDUS_clean_linker_0, # of connection points: 2
#     Edge 47, Type (0, 0), BuildingBlock: CIFDUS_clean_linker_0, # of connection points: 2
#     Edge 48, Type (0, 0), BuildingBlock: CIFDUS_clean_linker_0, # of connection points: 2
#     Edge 49, Type (0, 0), BuildingBlock: CIFDUS_clean_linker_0, # of connection points: 2
#     Edge 50, Type (0, 0), BuildingBlock: CIFDUS_clean_linker_0, # of connection points: 2
#     Edge 51, Type (0, 0), BuildingBlock: CIFDUS_clean_linker_0, # of connection points: 2
#     Edge 52, Type (0, 0), BuildingBlock: CIFDUS_clean_linker_0, # of connection points: 2
#     Edge 53, Type (0, 0), BuildingBlock: CIFDUS_clean_linker_0, # of connection points: 2
#     Edge 54, Type (0, 0), BuildingBlock: CIFDUS_clean_linker_0, # of connection points: 2
#     Edge 55, Type (0, 0), BuildingBlock: CIFDUS_clean_linker_0, # of connection points: 2
#     Edge 56, Type (0, 0), BuildingBlock: CIFDUS_clean_linker_0, # of connection points: 2
#     Edge 57, Type (0, 0), BuildingBlock: CIFDUS_clean_linker_0, # of connection points: 2
#     Edge 58, Type (0, 0), BuildingBlock: CIFDUS_clean_linker_0, # of connection points: 2
#     Edge 59, Type (0, 0), BuildingBlock: CIFDUS_clean_linker_0, # of connection points: 2
#     Edge 60, Type (0, 0), BuildingBlock: CIFDUS_clean_linker_0, # of connection points: 2
#     Edge 61, Type (0, 0), BuildingBlock: CIFDUS_clean_linker_0, # of connection points: 2
#     Edge 62, Type (0, 0), BuildingBlock: CIFDUS_clean_linker_0, # of connection points: 2
# Relax obj value: 0.221
# Max RMSD: 0.208
# Mean RMSD: 0.208
data_MOF--net-fnh--node1-XOMCOT_clean_sbu_0--edge1-CIFDUS_clean_linker_0
_symmetry_space_group_name_H-M    P1
_symmetry_Int_Tables_number       1
_symmetry_cell_setting            triclinic
loop_
_symmetry_equiv_pos_as_xyz
'x, y, z'
_cell_length_a     59.827417
_cell_length_b     60.052298
_cell_length_c     20.568457
_cell_angle_alpha  90.054527
_cell_angle_beta   89.927592
_cell_angle_gamma 120.11493
loop_
_atom_site_label
_atom_site_type_symbol
_atom_site_fract_x
_atom_site_fract_y
_atom_site_fract_z
_atom_type_partial_charge
Co0 Co 0.11902 0.19248 0.32188 0.0
C1 C 0.09052 0.18936 0.43832 0.0
C2 C 0.07648 0.20046 0.35679 0.0
C3 C 0.07077 0.20952 0.41195 0.0
N4 N 0.09014 0.18891 0.3729 0.0
N5 N 0.08066 0.20339 0.46287 0.0
H6 H 0.10068 0.18235 0.46737 0.0
H7 H 0.07428 0.20584 0.30861 0.0
C8 C 0.08503 0.189 0.19626 0.0
O9 O 0.09 0.21288 0.19988 0.0
N10 N 0.14828 0.19739 0.27292 0.0
C11 C 0.17312 0.21101 0.29285 0.0
C12 C 0.18892 0.21333 0.24187 0.0
C13 C 0.14918 0.19188 0.21026 0.0
N14 N 0.17372 0.20156 0.19038 0.0
C15 C 0.13756 0.24281 0.3732 0.0
C16 C 0.15449 0.27136 0.26073 0.0
C17 C 0.15964 0.28472 0.32058 0.0
C18 C 0.15069 0.26966 0.37693 0.0
C19 C 0.1411 0.24407 0.25914 0.0
N20 N 0.13229 0.22997 0.31516 0.0
H21 H 0.13289 0.23238 0.41834 0.0
H22 H 0.13883 0.23444 0.21318 0.0
H23 H 0.17946 0.21975 0.34021 0.0
H24 H 0.13246 0.18161 0.17926 0.0
O25 O 0.1384 0.19362 0.40082 0.0
O26 O 0.11229 0.15793 0.34965 0.0
O27 O 0.09539 0.1806 0.23802 0.0
C28 C 0.12879 0.16889 0.39689 0.0
H29 H 0.06264 0.22205 0.41343 0.0
H30 H 0.20984 0.22373 0.24163 0.0
H31 H 0.16114 0.28182 0.21542 0.0
H32 H 0.15492 0.27843 0.42467 0.0
Co33 Co 0.87079 0.94131 0.31488 0.0
C34 C 0.85361 0.89252 0.38068 0.0
C35 C 0.89065 0.90653 0.33584 0.0
C36 C 0.88145 0.88151 0.35504 0.0
N37 N 0.87298 0.9132 0.35126 0.0
N38 N 0.85784 0.87249 0.38227 0.0
H39 H 0.83639 0.89198 0.39867 0.0
H40 H 0.9085 0.9187 0.31018 0.0
C41 C 0.87525 0.92576 0.16615 0.0
O42 O 0.85483 0.92605 0.14378 0.0
N43 N 0.86808 0.96963 0.27854 0.0
C44 C 0.86096 0.98457 0.3117 0.0
C45 C 0.86067 1.00226 0.27033 0.0
C46 C 0.87236 0.97881 0.21732 0.0
N47 N 0.86762 0.99842 0.21118 0.0
C48 C 0.81752 0.92323 0.34142 0.0
C49 C 0.79513 0.87864 0.26863 0.0
C50 C 0.77926 0.88327 0.31066 0.0
C51 C 0.79094 0.90608 0.34662 0.0
C52 C 0.82209 0.89618 0.26596 0.0
N53 N 0.83311 0.91831 0.30234 0.0
H54 H 0.82567 0.94002 0.37198 0.0
H55 H 0.83408 0.89111 0.2377 0.0
H56 H 0.85618 0.98299 0.36273 0.0
H57 H 0.87959 0.97214 0.17843 0.0
O58 O 0.86995 0.95377 0.40384 0.0
O59 O 0.90553 0.96666 0.34865 0.0
O60 O 0.882 0.9318 0.22646 0.0
C61 C 0.89481 0.96885 0.40176 0.0
H62 H 0.89178 0.8711 0.35032 0.0
H63 H 0.85547 1.01662 0.28246 0.0
H64 H 0.78695 0.86113 0.24012 0.0
H65 H 0.77957 0.91065 0.37924 0.0
Co66 Co 0.13142 0.95048 0.30634 0.0
C67 C 0.18068 0.99703 0.31799 0.0
C68 C 0.15193 1.00173 0.36878 0.0
C69 C 0.17555 1.02389 0.37509 0.0
N70 N 0.15549 0.98476 0.33415 0.0
N71 N 0.19364 1.02073 0.34357 0.0
H72 H 0.18985 0.98821 0.2914 0.0
H73 H 0.13389 0.99805 0.39016 0.0
C74 C 0.14211 0.98379 0.18668 0.0
O75 O 0.13166 0.99454 0.22156 0.0
N76 N 0.10793 0.91657 0.2765 0.0
C77 C 0.10346 0.89364 0.29936 0.0
C78 C 0.08427 0.87445 0.26198 0.0
C79 C 0.09148 0.91134 0.2275 0.0
N80 N 0.07671 0.88587 0.21773 0.0
C81 C 0.16799 0.94233 0.37592 0.0
C82 C 0.18009 0.91826 0.27893 0.0
C83 C 0.1898 0.91913 0.34204 0.0
C84 C 0.18368 0.93182 0.39027 0.0
C85 C 0.16443 0.92927 0.26637 0.0
N86 N 0.15823 0.94078 0.31502 0.0
H87 H 0.16299 0.95119 0.41474 0.0
H88 H 0.1564 0.92755 0.21832 0.0
H89 H 0.11356 0.8911 0.3397 0.0
H90 H 0.09076 0.92603 0.19862 0.0
O91 O 0.11658 0.94005 0.39425 0.0
O92 O 0.10126 0.9554 0.3216 0.0
O93 O 0.14257 0.96408 0.21119 0.0
C94 C 0.0988 0.94548 0.37963 0.0
H95 H 0.17955 0.04006 0.40611 0.0
H96 H 0.07653 0.85392 0.26671 0.0
H97 H 0.18431 0.90894 0.23961 0.0
H98 H 0.19009 0.93284 0.43992 0.0
Co99 Co 0.21753 0.11264 0.74703 0.0
C100 C 0.24325 0.09461 0.6625 0.0
C101 C 0.20615 0.06294 0.68876 0.0
C102 C 0.21722 0.05483 0.64245 0.0
N103 N 0.22288 0.08781 0.70189 0.0
N104 N 0.24052 0.07496 0.62582 0.0
H105 H 0.25852 0.11434 0.65558 0.0
H106 H 0.18667 0.05214 0.70764 0.0
C107 C 0.20421 0.06959 0.85453 0.0
O108 O 0.21579 0.05968 0.82109 0.0
N109 N 0.21295 0.13861 0.79013 0.0
C110 C 0.2101 0.15749 0.76246 0.0
C111 C 0.21088 0.17378 0.80975 0.0
C112 C 0.21565 0.14394 0.85406 0.0
N113 N 0.21434 0.16523 0.86706 0.0
C114 C 0.26798 0.15628 0.75717 0.0
C115 C 0.29472 0.13078 0.78087 0.0
C116 C 0.30855 0.15611 0.75625 0.0
C117 C 0.29478 0.16922 0.74923 0.0
C118 C 0.26767 0.11865 0.79052 0.0
N119 N 0.25428 0.13083 0.77401 0.0
H120 H 0.25811 0.16639 0.74318 0.0
H121 H 0.25744 0.09862 0.80374 0.0
H122 H 0.20874 0.16044 0.71138 0.0
H123 H 0.21852 0.13256 0.89026 0.0
O124 O 0.22293 0.13074 0.66459 0.0
O125 O 0.18459 0.10165 0.69794 0.0
O126 O 0.204 0.08976 0.83206 0.0
C127 C 0.19829 0.11865 0.65338 0.0
H128 H 0.2075 0.03655 0.61717 0.0
H129 H 0.2093 0.1908 0.80249 0.0
H130 H 0.30423 0.11969 0.78819 0.0
H131 H 0.30434 0.18911 0.73368 0.0
Co132 Co 0.95296 0.10637 0.77181 0.0
C133 C 1.00133 0.1537 0.76437 0.0
C134 C 1.00504 0.12386 0.71697 0.0
C135 C 1.0287 0.14619 0.71718 0.0
N136 N 0.98784 0.12895 0.7453 0.0
N137 N 1.02626 0.16498 0.747 0.0
H138 H 0.99293 0.16362 0.78932 0.0
H139 H 1.00081 0.10549 0.69704 0.0
C140 C 0.98496 0.11536 0.89364 0.0
O141 O 0.9924 0.10068 0.86456 0.0
N142 N 0.91837 0.08418 0.80159 0.0
C143 C 0.89611 0.07348 0.7674 0.0
C144 C 0.87626 0.05669 0.80763 0.0
C145 C 0.91195 0.07423 0.86141 0.0
N146 N 0.88648 0.05765 0.86652 0.0
C147 C 0.94848 0.14502 0.70119 0.0
C148 C 0.92301 0.15704 0.79472 0.0
C149 C 0.92618 0.16806 0.73237 0.0
C150 C 0.93953 0.16195 0.68591 0.0
C151 C 0.9326 0.14029 0.80838 0.0
N152 N 0.94492 0.13422 0.76151 0.0
H153 H 0.9578 0.13998 0.66358 0.0
H154 H 0.92932 0.13149 0.8559 0.0
H155 H 0.89452 0.07705 0.71656 0.0
H156 H 0.92573 0.0781 0.89992 0.0
O157 O 0.94263 0.0919 0.68366 0.0
O158 O 0.95604 0.07512 0.75735 0.0
O159 O 0.96698 0.11815 0.86625 0.0
C160 C 0.94688 0.07344 0.69858 0.0
H161 H 0.04592 0.14886 0.69274 0.0
H162 H 0.85612 0.04459 0.79473 0.0
H163 H 0.91305 0.16118 0.83262 0.0
H164 H 0.94227 0.16942 0.63687 0.0
Co165 Co 0.95933 0.86956 0.74915 0.0
C166 C 0.9163 0.84509 0.66014 0.0
C167 C 0.91732 0.87753 0.70709 0.0
C168 C 0.89416 0.86377 0.6751 0.0
N169 N 0.93096 0.86556 0.69806 0.0
N170 N 0.89335 0.84305 0.64668 0.0
H171 H 0.92186 0.83121 0.6458 0.0
H172 H 0.92333 0.89446 0.73679 0.0
C173 C 0.93547 0.87257 0.88614 0.0
O174 O 0.93665 0.85285 0.9097 0.0
N175 N 0.98806 0.87315 0.80032 0.0
C176 C 1.00614 0.86718 0.78184 0.0
C177 C 1.02117 0.86937 0.83444 0.0
C178 C 0.99333 0.88016 0.86295 0.0
N179 N 1.0128 0.87724 0.88541 0.0
C180 C 0.94921 0.81777 0.74284 0.0
C181 C 0.89907 0.79262 0.7884 0.0
C182 C 0.90878 0.77794 0.75937 0.0
C183 C 0.93436 0.79098 0.73767 0.0
C184 C 0.91456 0.81977 0.79149 0.0
N185 N 0.93944 0.8322 0.76838 0.0
H186 H 0.96811 0.82691 0.72131 0.0
H187 H 0.90582 0.83074 0.80795 0.0
H188 H 1.00817 0.8611 0.73385 0.0
H189 H 0.98315 0.88695 0.8923 0.0
O190 O 0.97672 0.86767 0.66917 0.0
O191 O 0.98285 0.90387 0.71008 0.0
O192 O 0.94394 0.88056 0.82762 0.0
C193 C 0.98887 0.89254 0.66472 0.0
H194 H 0.87931 0.86899 0.67218 0.0
H195 H 1.03676 0.86514 0.83535 0.0
H196 H 0.87927 0.78336 0.80531 0.0
H197 H 0.94273 0.78054 0.71507 0.0
Co198 Co 0.80197 0.53769 0.6519 0.0
C199 C 0.78288 0.55772 0.74884 0.0
C200 C 0.75259 0.53583 0.68082 0.0
C201 C 0.74492 0.54907 0.72133 0.0
N202 N 0.77635 0.54115 0.69904 0.0
N203 N 0.76422 0.56313 0.76388 0.0
H204 H 0.80154 0.56629 0.77212 0.0
H205 H 0.74182 0.52393 0.64013 0.0
C206 C 0.76262 0.50867 0.54366 0.0
O207 O 0.75675 0.48771 0.57661 0.0
N208 N 0.82895 0.53611 0.60474 0.0
C209 C 0.84791 0.53242 0.6283 0.0
C210 C 0.86548 0.53717 0.57965 0.0
C211 C 0.83545 0.54337 0.54255 0.0
N212 N 0.85762 0.54414 0.52603 0.0
C213 C 0.84263 0.58958 0.67178 0.0
C214 C 0.8193 0.61414 0.61346 0.0
C215 C 0.84162 0.62891 0.65102 0.0
C216 C 0.85348 0.61626 0.67934 0.0
C217 C 0.80859 0.58725 0.6085 0.0
N218 N 0.82001 0.57518 0.63865 0.0
H219 H 0.85181 0.58024 0.69563 0.0
H220 H 0.79044 0.57608 0.58335 0.0
H221 H 0.84961 0.52737 0.67765 0.0
H222 H 0.82469 0.54888 0.51062 0.0
O223 O 0.81802 0.53711 0.7355 0.0
O224 O 0.78924 0.50229 0.68585 0.0
O225 O 0.78061 0.53058 0.56607 0.0
C226 C 0.80454 0.5122 0.7359 0.0
H227 H 0.72625 0.54781 0.72006 0.0
H228 H 0.88254 0.53534 0.58323 0.0
H229 H 0.80959 0.62317 0.59039 0.0
H230 H 0.87095 0.62692 0.70777 0.0
Co231 Co 0.55291 0.27482 0.65759 0.0
C232 C 0.54436 0.22331 0.6778 0.0
C233 C 0.57781 0.25046 0.73137 0.0
C234 C 0.57195 0.22585 0.74743 0.0
N235 N 0.55994 0.24871 0.68893 0.0
N236 N 0.55038 0.20873 0.7151 0.0
H237 H 0.52692 0.21538 0.64896 0.0
H238 H 0.59262 0.26805 0.75344 0.0
C239 C 0.57528 0.26028 0.54374 0.0
O240 O 0.59359 0.26429 0.58523 0.0
N241 N 0.54511 0.30001 0.62549 0.0
C242 C 0.52628 0.30446 0.64613 0.0
C243 C 0.52673 0.32354 0.60807 0.0
C244 C 0.55713 0.31659 0.57679 0.0
N245 N 0.54632 0.33114 0.56553 0.0
C246 C 0.50603 0.24194 0.72351 0.0
C247 C 0.47185 0.22728 0.62084 0.0
C248 C 0.46183 0.21887 0.68403 0.0
C249 C 0.4796 0.22668 0.73528 0.0
C250 C 0.49887 0.24284 0.61097 0.0
N251 N 0.5156 0.24993 0.66232 0.0
H252 H 0.51899 0.24732 0.76447 0.0
H253 H 0.50624 0.24966 0.56262 0.0
H254 H 0.51284 0.29417 0.68502 0.0
H255 H 0.57287 0.31741 0.54878 0.0
O256 O 0.55611 0.28917 0.74539 0.0
O257 O 0.58855 0.30332 0.6775 0.0
O258 O 0.5569 0.26431 0.56295 0.0
C259 C 0.58003 0.30588 0.73412 0.0
H260 H 0.58062 0.22101 0.78714 0.0
H261 H 0.51356 0.33093 0.61046 0.0
H262 H 0.459 0.22193 0.57948 0.0
H263 H 0.47321 0.2214 0.78504 0.0
Co264 Co 0.80259 0.28855 0.65672 0.0
C265 C 0.83904 0.29994 0.76026 0.0
C266 C 0.84789 0.33493 0.71085 0.0
C267 C 0.86582 0.34048 0.75948 0.0
N268 N 0.83111 0.3095 0.7123 0.0
N269 N 0.86017 0.31835 0.79039 0.0
H270 H 0.82927 0.27976 0.77306 0.0
H271 H 0.84688 0.34845 0.67803 0.0
C272 C 0.83238 0.32322 0.53324 0.0
O273 O 0.84483 0.31087 0.52144 0.0
N274 N 0.7739 0.26707 0.60118 0.0
C275 C 0.74938 0.24934 0.61762 0.0
C276 C 0.73646 0.23641 0.56255 0.0
C277 C 0.77546 0.26469 0.53668 0.0
N278 N 0.75299 0.2462 0.51232 0.0
C279 C 0.80675 0.24374 0.6338 0.0
C280 C 0.85996 0.26732 0.63819 0.0
C281 C 0.84556 0.24052 0.64817 0.0
C282 C 0.81858 0.22881 0.64205 0.0
C283 C 0.84732 0.28163 0.62888 0.0
N284 N 0.82084 0.27002 0.6299 0.0
H285 H 0.78596 0.23401 0.63696 0.0
H286 H 0.85906 0.30237 0.62793 0.0
H287 H 0.74137 0.24521 0.66604 0.0
H288 H 0.79289 0.2753 0.50835 0.0
O289 O 0.78415 0.26653 0.73189 0.0
O290 O 0.78099 0.29993 0.70332 0.0
O291 O 0.81685 0.31661 0.58275 0.0
C292 C 0.77404 0.28086 0.74391 0.0
H293 H 0.88072 0.3596 0.77377 0.0
H294 H 0.71655 0.22102 0.55946 0.0
H295 H 0.88081 0.27756 0.64236 0.0
H296 H 0.80634 0.20818 0.6472 0.0
Co297 Co 0.88118 0.45196 0.10409 0.0
C298 C 0.88367 0.40546 0.08731 0.0
C299 C 0.84825 0.40019 0.04703 0.0
C300 C 0.84882 0.37765 0.04036 0.0
N301 N 0.87049 0.41774 0.07514 0.0
N302 N 0.87122 0.38114 0.06555 0.0
H303 H 0.90252 0.41429 0.10982 0.0
H304 H 0.83297 0.40352 1.03112 0.0
C305 C 0.85776 0.42065 0.2275 0.0
O306 O 0.83526 0.41371 0.20092 0.0
N307 N 0.89194 0.4859 0.13509 0.0
C308 C 0.91243 0.50847 0.11634 0.0
C309 C 0.91159 0.52812 0.14895 0.0
C310 C 0.87862 0.49194 0.17685 0.0
N311 N 0.89007 0.51751 0.18575 0.0
C312 C 0.92758 0.46318 0.03594 0.0
C313 C 0.96069 0.4794 0.14094 0.0
C314 C 0.9716 0.48314 0.07802 0.0
C315 C 0.95424 0.47417 1.02543 0.0
C316 C 0.93387 0.46885 0.14927 0.0
N317 N 0.91767 0.4613 0.09693 0.0
H318 H 0.91488 0.45699 0.9943 0.0
H319 H 0.92634 0.46772 0.19767 0.0
H320 H 0.92691 0.51054 0.08153 0.0
H321 H 0.8611 0.47784 0.20109 0.0
O322 O 0.87762 0.46294 1.01646 0.0
O323 O 0.84628 0.44748 0.08784 0.0
O324 O 0.87846 0.43771 0.19797 0.0
C325 C 0.85433 0.45754 1.03011 0.0
H326 H 0.83479 0.3607 1.01422 0.0
H327 H 0.9256 0.54848 0.1462 0.0
H328 H 0.97268 0.48503 0.18394 0.0
H329 H 0.96102 0.47651 0.97579 0.0
Co330 Co 0.63324 0.44076 0.10766 0.0
C331 C 0.67231 0.49088 0.05572 0.0
C332 C 0.68741 0.46535 0.06351 0.0
C333 C 0.70683 0.48903 0.04226 0.0
N334 N 0.66565 0.46653 0.07105 0.0
N335 N 0.6971 0.50497 0.03792 0.0
H336 H 0.65994 0.49899 0.05989 0.0
H337 H 0.68915 0.44858 0.07305 0.0
C338 C 0.66805 0.47274 0.22441 0.0
O339 O 0.67448 0.49393 0.19209 0.0
N340 N 0.60101 0.41554 0.14462 0.0
C341 C 0.5772 0.40768 0.12093 0.0
C342 C 0.5593 0.39275 0.16733 0.0
C343 C 0.59746 0.40529 0.20417 0.0
N344 N 0.57219 0.39159 0.21977 0.0
C345 C 0.61184 0.46909 0.04918 0.0
C346 C 0.60291 0.48988 0.15881 0.0
C347 C 0.59516 0.49475 0.09797 0.0
C348 C 0.59983 0.4838 0.04316 0.0
C349 C 0.61494 0.47472 0.16289 0.0
N350 N 0.61981 0.46492 0.10806 0.0
H351 H 0.61519 0.46147 1.00519 0.0
H352 H 0.6198 0.47051 0.21011 0.0
H353 H 0.57319 0.4134 0.07455 0.0
H354 H 0.6131 0.40828 0.23594 0.0
O355 O 0.62053 0.4258 1.02056 0.0
O356 O 0.64057 0.41277 0.08509 0.0
O357 O 0.65055 0.45083 0.2003 0.0
C358 C 0.62887 0.40992 1.02955 0.0
H359 H 0.72623 0.49383 1.02872 0.0
H360 H 0.53857 0.38449 0.16395 0.0
H361 H 0.59966 0.49759 0.2031 0.0
H362 H 0.5937 0.48595 0.99524 0.0
Co363 Co 0.62784 0.19126 0.09448 0.0
C364 C 0.5767 0.18071 0.05216 0.0
C365 C 0.60611 0.21716 1.0156 0.0
C366 C 0.58304 0.21057 0.98574 0.0
N367 N 0.60225 0.19792 0.05594 0.0
N368 N 0.56474 0.1871 1.00693 0.0
H369 H 0.56734 0.16206 0.07529 0.0
H370 H 0.62469 0.23351 1.00337 0.0
C371 C 0.612 0.21571 0.20253 0.0
O372 O 0.61352 0.23192 0.15762 0.0
N373 N 0.65239 0.18345 0.1313 0.0
C374 C 0.65669 0.16439 0.11233 0.0
C375 C 0.67569 0.16494 0.15089 0.0
C376 C 0.66903 0.19574 0.1796 0.0
N377 N 0.68344 0.1848 0.19229 0.0
C378 C 0.59711 0.14165 0.03773 0.0
C379 C 0.57697 0.11284 0.14903 0.0
C380 C 0.5713 0.09984 0.08861 0.0
C381 C 0.58176 0.11498 1.03285 0.0
C382 C 0.59278 0.13995 0.1519 0.0
N383 N 0.60259 0.15407 0.09633 0.0
H384 H 0.60486 0.15234 0.99342 0.0
H385 H 0.59753 0.14941 0.1987 0.0
H386 H 0.6466 0.15088 0.07352 0.0
H387 H 0.67007 0.21182 0.20614 0.0
O388 O 0.64276 0.19188 1.00943 0.0
O389 O 0.6571 0.2262 0.07001 0.0
O390 O 0.61741 0.19798 0.18671 0.0
C391 C 0.65992 0.21584 1.01687 0.0
H392 H 0.58099 0.2203 0.94379 0.0
H393 H 0.68308 0.15178 0.14929 0.0
H394 H 0.56945 0.10223 0.19385 0.0
H395 H 0.57891 0.10636 0.98514 0.0
Co396 Co 0.46166 0.85933 0.96906 0.0
C397 C 0.41418 0.86156 0.98769 0.0
C398 C 0.40691 0.82321 1.00156 0.0
C399 C 0.3839 0.82314 1.00676 0.0
N400 N 0.42601 0.84753 0.99073 0.0
N401 N 0.38859 0.84741 0.99761 0.0
H402 H 0.42385 0.88182 0.97713 0.0
H403 H 0.40937 0.80662 1.00543 0.0
C404 C 0.43606 0.85954 0.83724 0.0
O405 O 0.43255 0.87794 0.86012 0.0
N406 N 0.49698 0.87111 0.94693 0.0
C407 C 0.5182 0.89061 0.97493 0.0
C408 C 0.53975 0.89331 0.94343 0.0
C409 C 0.50566 0.86174 0.90045 0.0
N410 N 0.53166 0.87494 0.89744 0.0
C411 C 0.46929 0.90562 1.02855 0.0
C412 C 0.49349 0.93878 0.92602 0.0
C413 C 0.49271 0.94932 0.98671 0.0
C414 C 0.48002 0.93213 0.0379 0.0
C415 C 0.48253 0.91195 0.91869 0.0
N416 N 0.47034 0.8956 0.96955 0.0
H417 H 0.46028 0.89296 0.06952 0.0
H418 H 0.48496 0.90443 0.8731 0.0
H419 H 0.51798 0.90237 1.0145 0.0
H420 H 0.49324 0.84615 0.86813 0.0
O421 O 0.47027 0.85759 0.06096 0.0
O422 O 0.45795 0.82558 0.99283 0.0
O423 O 0.44961 0.8522 0.87109 0.0
C424 C 0.466 0.83445 0.05138 0.0
H425 H 0.36542 0.80666 1.01937 0.0
H426 H 0.55968 0.90769 0.95284 0.0
H427 H 0.50348 0.95121 0.88518 0.0
H428 H 0.47853 0.9391 0.08538 0.0
Co429 Co 0.21354 0.61762 0.96214 0.0
C430 C 0.1993 0.56872 1.02576 0.0
C431 C 0.23991 0.59032 1.00388 0.0
C432 C 0.23411 0.56668 1.02804 0.0
N433 N 0.21788 0.59116 1.00101 0.0
N434 N 0.20848 0.55305 0.04067 0.0
H435 H 0.1795 0.56392 1.03309 0.0
H436 H 0.25859 0.60544 0.98744 0.0
C437 C 0.22573 0.58988 0.84884 0.0
O438 O 0.21609 0.5691 0.88487 0.0
N439 N 0.2087 0.64428 0.92425 0.0
C440 C 0.20664 0.66309 0.95507 0.0
C441 C 0.19938 0.67535 0.91104 0.0
C442 C 0.20225 0.64519 0.86221 0.0
N443 N 0.19658 0.66404 0.8528 0.0
C444 C 0.16066 0.60075 0.98366 0.0
C445 C 0.13712 0.55368 0.92234 0.0
C446 C 0.12173 0.55999 0.96184 0.0
C447 C 0.13405 0.58456 0.98981 0.0
C448 C 0.16403 0.57103 0.91582 0.0
N449 N 0.17587 0.59382 0.94942 0.0
H450 H 0.16907 0.61893 1.00868 0.0
H451 H 0.175 0.56532 0.88612 0.0
H452 H 0.20944 0.66746 1.00626 0.0
H453 H 0.20222 0.63268 0.82432 0.0
O454 O 0.21048 0.62878 0.04916 0.0
O455 O 0.24756 0.64488 0.99973 0.0
O456 O 0.22516 0.61006 0.87059 0.0
C457 C 0.23492 0.64535 0.05122 0.0
H458 H 0.24784 0.56033 0.03741 0.0
H459 H 0.19683 0.69166 0.9208 0.0
H460 H 0.12875 0.5352 0.89822 0.0
H461 H 0.12335 0.59146 1.01753 0.0
Co462 Co 0.46321 0.60276 0.96441 0.0
C463 C 0.48285 0.65738 0.99201 0.0
C464 C 0.51165 0.64985 0.95402 0.0
C465 C 0.52039 0.67556 0.94723 0.0
N466 N 0.48797 0.63824 0.98187 0.0
N467 N 0.50219 0.68034 0.97055 0.0
H468 H 0.46496 0.65448 1.01275 0.0
H469 H 0.52102 0.64006 0.93354 0.0
C470 C 0.46625 0.63116 0.84163 0.0
O471 O 0.45215 0.63827 0.87493 0.0
N472 N 0.43924 0.5676 0.94335 0.0
C473 C 0.43763 0.54609 0.96848 0.0
C474 C 0.41907 0.52513 0.93444 0.0
C475 C 0.42144 0.55967 0.89634 0.0
N476 N 0.40887 0.53391 0.88999 0.0
C477 C 0.50215 0.59624 1.0277 0.0
C478 C 0.51196 0.57167 0.92755 0.0
C479 C 0.52292 0.57269 0.98904 0.0
C480 C 0.51809 0.5857 0.03893 0.0
C481 C 0.49591 0.58237 0.91838 0.0
N482 N 0.49079 0.59407 0.9686 0.0
H483 H 0.49821 0.60554 0.0675 0.0
H484 H 0.48656 0.5801 0.87193 0.0
H485 H 0.44977 0.54575 1.00694 0.0
H486 H 0.41865 0.5726 0.86517 0.0
O487 O 0.45185 0.59525 0.05617 0.0
O488 O 0.43312 0.60722 0.98432 0.0
O489 O 0.47044 0.61374 0.8667 0.0
C490 C 0.43308 0.5995 0.04373 0.0
H491 H 0.53868 0.68965 0.92617 0.0
H492 H 0.41393 0.50522 0.94051 0.0
H493 H 0.51489 0.56175 0.88735 0.0
H494 H 0.52641 0.5876 0.08675 0.0
Co495 Co 0.5384 0.77393 0.43259 0.0
C496 C 0.54239 0.74953 0.31907 0.0
C497 C 0.50719 0.72494 0.37041 0.0
C498 C 0.50433 0.71677 0.30714 0.0
N499 N 0.53092 0.74574 0.37722 0.0
N500 N 0.52626 0.73281 0.27498 0.0
H501 H 0.5601 0.76697 0.30649 0.0
H502 H 0.49183 0.71865 0.40588 0.0
C503 C 0.52535 0.7273 0.52654 0.0
O504 O 0.53068 0.71556 0.48042 0.0
N505 N 0.54615 0.80268 0.48802 0.0
C506 C 0.54638 0.82473 0.47402 0.0
C507 C 0.55275 0.83946 0.52952 0.0
C508 C 0.55294 0.80456 0.55087 0.0
N509 N 0.55671 0.82661 0.57774 0.0
C510 C 0.59124 0.80819 0.40417 0.0
C511 C 0.6132 0.78008 0.44713 0.0
C512 C 0.62905 0.8035 0.41441 0.0
C513 C 0.61756 0.81753 0.3935 0.0
C514 C 0.58644 0.77094 0.45536 0.0
N515 N 0.57561 0.78489 0.43321 0.0
H516 H 0.58336 0.81992 0.38796 0.0
H517 H 0.57475 0.75273 0.47898 0.0
H518 H 0.54173 0.82971 0.42751 0.0
H519 H 0.55469 0.7899 0.57698 0.0
O520 O 0.53938 0.79353 0.3544 0.0
O521 O 0.50414 0.77024 0.41033 0.0
O522 O 0.52849 0.75004 0.51543 0.0
C523 C 0.51486 0.7849 0.35958 0.0
H524 H 0.48657 0.70217 0.28492 0.0
H525 H 0.55293 0.85748 0.53487 0.0
H526 H 0.62131 0.76869 0.46501 0.0
H527 H 0.62898 0.83597 0.36965 0.0
Co528 Co 0.30376 0.78899 0.40842 0.0
C529 C 0.30889 0.82242 0.303 0.0
C530 C 0.34615 0.83544 0.34594 0.0
C531 C 0.34869 0.85147 0.29493 0.0
N532 N 0.32118 0.81711 0.34966 0.0
N533 N 0.32514 0.8431 0.26778 0.0
H534 H 0.28842 0.81062 0.29353 0.0
H535 H 0.3614 0.8365 0.37628 0.0
C536 C 0.34409 0.80092 0.51387 0.0
O537 O 0.34199 0.7788 0.49759 0.0
N538 N 0.28533 0.76061 0.46719 0.0
C539 C 0.281 0.73635 0.46144 0.0
C540 C 0.2641 0.72148 0.50916 0.0
C541 C 0.2716 0.76028 0.51932 0.0
N542 N 0.25803 0.73655 0.54476 0.0
C543 C 0.25701 0.79103 0.41814 0.0
C544 C 0.28039 0.84357 0.43755 0.0
C545 C 0.25454 0.83045 0.41579 0.0
C546 C 0.24265 0.80348 0.41003 0.0
C547 C 0.29398 0.83021 0.44684 0.0
N548 N 0.28268 0.80445 0.43349 0.0
H549 H 0.24787 0.7707 0.40732 0.0
H550 H 0.31439 0.84115 0.45789 0.0
H551 H 0.28917 0.72955 0.42507 0.0
H552 H 0.27096 0.77688 0.53731 0.0
O553 O 0.2818 0.76754 0.33689 0.0
O554 O 0.31847 0.76997 0.36185 0.0
O555 O 0.3307 0.80875 0.48171 0.0
C556 C 0.29819 0.76009 0.32378 0.0
H557 H 0.36683 0.86671 0.27589 0.0
H558 H 0.25707 0.70124 0.5175 0.0
H559 H 0.29076 0.86428 0.4431 0.0
H560 H 0.22254 0.79196 0.39628 0.0
Co561 Co 0.29761 0.52712 0.42282 0.0
C562 C 0.25758 0.5087 0.32583 0.0
C563 C 0.2582 0.53943 0.38075 0.0
C564 C 0.23656 0.52846 0.3421 0.0
N565 N 0.27118 0.52686 0.37051 0.0
N566 N 0.236 0.50883 0.30838 0.0
H567 H 0.26292 0.49499 0.30857 0.0
H568 H 0.26363 0.55506 0.4146 0.0
C569 C 0.28716 0.55719 0.52953 0.0
O570 O 0.30459 0.57839 0.50086 0.0
N571 N 0.32348 0.52629 0.47641 0.0
C572 C 0.34668 0.52927 0.46001 0.0
C573 C 0.35752 0.52525 0.51455 0.0
C574 C 0.32037 0.52012 0.53982 0.0
N575 N 0.34088 0.51956 0.56443 0.0
C576 C 0.28416 0.47427 0.41186 0.0
C577 C 0.2329 0.4522 0.44779 0.0
C578 C 0.24134 0.43609 0.42038 0.0
C579 C 0.26767 0.44764 0.40419 0.0
C580 C 0.25015 0.47886 0.45512 0.0
N581 N 0.27529 0.48974 0.43522 0.0
H582 H 0.304 0.48271 0.39601 0.0
H583 H 0.24281 0.49096 0.47258 0.0
H584 H 0.35525 0.53388 0.41213 0.0
H585 H 0.30326 0.51572 0.56746 0.0
O586 O 0.31529 0.52595 0.34281 0.0
O587 O 0.32359 0.56192 0.39005 0.0
O588 O 0.28213 0.53523 0.50507 0.0
C589 C 0.32864 0.55087 0.34189 0.0
H590 H 0.22276 0.53502 0.33779 0.0
H591 H 0.37644 0.52711 0.51771 0.0
H592 H 0.21284 0.44459 0.4609 0.0
H593 H 0.27558 0.43629 0.38469 0.0
H594 H 0.18628 0.18657 0.89845 0.0
H595 H 0.23987 0.16517 0.9753 0.0
H596 H 0.2341 0.17775 0.0847 0.0
H597 H 0.21034 0.19085 0.15852 0.0
H598 H 0.15488 0.20937 0.08036 0.0
H599 H 0.1652 0.20243 0.96986 0.0
C600 C 0.19718 0.18527 0.93885 0.0
C601 C 0.21339 0.175 0.92951 0.0
C602 C 0.19331 0.1919 1.00078 0.0
C603 C 0.22704 0.17281 0.98216 0.0
C604 C 0.22381 0.18003 0.04429 0.0
C605 C 0.201 0.19377 0.11687 0.0
C606 C 0.18186 0.20031 0.12633 0.0
C607 C 0.20648 0.18899 0.05423 0.0
C608 C 0.16945 0.20394 0.07312 0.0
C609 C 0.17536 0.20004 1.01044 0.0
H610 H 0.89054 0.07588 0.98534 0.0
H611 H 0.85669 1.00607 0.87308 0.0
H612 H 0.8464 0.98045 0.97322 0.0
H613 H 0.85227 0.97895 0.09184 0.0
H614 H 0.88677 0.04936 0.2026 0.0
H615 H 0.89187 0.07411 0.10391 0.0
C616 C 0.88028 0.055 0.98343 0.0
C617 C 0.87436 0.04266 0.923 0.0
C618 C 0.87517 0.04077 0.04054 0.0
C619 C 0.86109 1.01572 0.91974 0.0
C620 C 0.8556 1.00122 0.9767 0.0
C621 C 0.86082 0.99969 0.0939 0.0
C622 C 0.86954 1.01253 0.15355 0.0
C623 C 0.86346 1.01366 0.03715 0.0
C624 C 0.88007 0.03928 0.15677 0.0
C625 C 0.88295 0.05335 0.10059 0.0
H626 H 1.04467 0.90099 0.17593 0.0
H627 H 0.06986 0.84631 0.14113 0.0
H628 H 0.04977 0.83696 1.0331 0.0
H629 H 1.03105 0.84961 0.94388 0.0
H630 H 1.01111 0.90857 0.97679 0.0
H631 H 1.02361 0.9115 0.09033 0.0
C632 C 0.04529 0.8867 0.14487 0.0
C633 C 0.05898 0.87468 0.16511 0.0
C634 C 1.03534 0.88284 0.0822 0.0
C635 C 0.05932 0.85573 0.12598 0.0
C636 C 0.04827 0.85076 0.06407 0.0
C637 C 1.02967 0.86323 0.97583 0.0
C638 C 1.02054 0.87911 0.95192 0.0
C639 C 1.03739 0.86518 0.04068 0.0
C640 C 1.01806 0.89613 0.99416 0.0
C641 C 1.02518 0.89781 0.059 0.0
H642 H 0.87888 0.92666 1.03026 0.0
H643 H 0.90364 0.90286 0.19998 0.0
H644 H 0.92388 0.88486 0.13068 0.0
H645 H 0.93387 0.8743 1.02099 0.0
H646 H 0.91203 0.90059 0.8507 0.0
H647 H 0.89185 0.91891 0.91996 0.0
C648 C 0.88884 0.9177 0.05239 0.0
C649 C 0.88945 0.91638 0.12162 0.0
C650 C 0.9011 0.90758 1.01144 0.0
C651 C 0.90277 0.90464 0.1479 0.0
C652 C 0.91434 0.8941 0.1078 0.0
C653 C 0.92483 0.88413 0.99865 0.0
C654 C 0.92462 0.8857 0.92952 0.0
C655 C 0.91355 0.89524 0.0394 0.0
C656 C 0.91284 0.89892 0.90292 0.0
C657 C 0.90109 0.9094 0.94294 0.0
H658 H 0.20032 1.02576 0.91154 0.0
H659 H 0.17837 0.08318 0.94456 0.0
H660 H 0.1575 0.06188 0.04689 0.0
H661 H 0.14533 1.02696 0.12841 0.0
H662 H 0.16739 0.96961 0.09605 0.0
H663 H 0.18803 0.9907 0.99315 0.0
C664 C 0.19101 0.0338 0.94083 0.0
C665 C 0.19122 0.05648 0.91878 0.0
C666 C 0.17886 1.02126 1.00044 0.0
C667 C 0.1788 0.06605 0.95882 0.0
C668 C 0.16676 0.05373 1.01786 0.0
C669 C 0.15453 1.01883 0.09906 0.0
C670 C 0.15443 0.99624 0.12137 0.0
C671 C 0.16661 0.0313 0.03937 0.0
C672 C 0.1668 0.98662 0.08138 0.0
C673 C 0.17873 0.99884 1.02211 0.0
H674 H 1.01792 0.10743 0.97246 0.0
H675 H 0.98729 0.15844 0.95072 0.0
H676 H 1.01503 0.18521 0.03997 0.0
H677 H 0.04941 0.19531 0.12308 0.0
H678 H 0.07857 0.14315 0.14734 0.0
H679 H 0.05035 0.11612 0.05935 0.0
C680 C 1.01701 0.12426 0.98737 0.0
C681 C 1.00004 0.13055 0.95372 0.0
C682 C 1.03312 0.13968 0.03962 0.0
C683 C 0.99962 0.15265 0.97499 0.0
C684 C 1.01576 0.16817 1.0262 0.0
C685 C 0.04966 0.178 0.10944 0.0
C686 C 0.06666 0.17168 0.14286 0.0
C687 C 1.03283 0.16208 0.0587 0.0
C688 C 0.06605 0.14884 0.12369 0.0
C689 C 0.04979 0.13328 0.07285 0.0
H690 H 0.83266 0.53298 0.41237 0.0
H691 H 0.9084 0.56543 0.49792 0.0
H692 H 0.92684 0.56535 0.39182 0.0
H693 H 0.91962 0.54847 0.28017 0.0
H694 H 0.84314 0.51214 0.19884 0.0
H695 H 0.82664 0.52207 0.29706 0.0
C696 C 0.8533 0.54076 0.40739 0.0
C697 C 0.86912 0.54874 0.46272 0.0
C698 C 0.8635 0.53986 0.34696 0.0
C699 C 0.89582 0.55862 0.45592 0.0
C700 C 0.90635 0.55866 0.39538 0.0
C701 C 0.89961 0.54373 0.28346 0.0
C702 C 0.88246 0.52966 0.23339 0.0
C703 C 0.89016 0.54823 0.34125 0.0
C704 C 0.85645 0.52301 0.23756 0.0
C705 C 0.84707 0.52848 0.29365 0.0
H706 H 0.59581 0.40655 0.33543 0.0
H707 H 0.52466 0.35075 0.24348 0.0
H708 H 0.50839 0.32893 0.34775 0.0
H709 H 0.51672 0.32306 0.46226 0.0
H710 H 0.58972 0.37611 0.54935 0.0
H711 H 0.60336 0.40191 0.44946 0.0
C712 C 0.57683 0.3895 0.33788 0.0
C713 C 0.56168 0.37992 0.28157 0.0
C714 C 0.56806 0.3767 0.39711 0.0
C715 C 0.5367 0.35842 0.28619 0.0
C716 C 0.52747 0.34589 0.34564 0.0
C717 C 0.53529 0.34066 0.4592 0.0
C718 C 0.55225 0.34818 0.51207 0.0
C719 C 0.54325 0.35453 0.40098 0.0
C720 C 0.57653 0.37048 0.50859 0.0
C721 C 0.58427 0.38498 0.45171 0.0
H722 H 0.72864 0.19823 0.4675 0.0
H723 H 0.76583 0.27782 0.40996 0.0
H724 H 0.75066 0.26521 0.29815 0.0
H725 H 0.72098 0.23158 0.22302 0.0
H726 H 0.68357 0.15202 0.2805 0.0
H727 H 0.70515 0.16423 0.3864 0.0
C728 C 0.73362 0.21262 0.42988 0.0
C729 C 0.74762 0.23874 0.44599 0.0
C730 C 0.72485 0.20519 0.36643 0.0
C731 C 0.75478 0.25757 0.39769 0.0
C732 C 0.74609 0.25038 0.33424 0.0
C733 C 0.71825 0.21705 0.25845 0.0
C734 C 0.70069 0.19116 0.24558 0.0
C735 C 0.7303 0.22429 0.31888 0.0
C736 C 0.69717 0.1721 0.29037 0.0
C737 C 0.70924 0.17909 0.35077 0.0
H738 H 0.58377 0.2385 0.24086 0.0
H739 H 0.62378 0.20183 0.32077 0.0
H740 H 0.61562 0.21187 0.43104 0.0
H741 H 0.59884 0.23292 0.50572 0.0
H742 H 0.55641 0.26716 0.42649 0.0
H743 H 0.56359 0.25615 0.3162 0.0
C744 C 0.5906 0.23245 0.28229 0.0
C745 C 0.60466 0.21937 0.27127 0.0
C746 C 0.58539 0.23801 0.3463 0.0
C747 C 0.61293 0.2117 0.32656 0.0
C748 C 0.60832 0.21762 0.39003 0.0
C749 C 0.59092 0.23787 0.46448 0.0
C750 C 0.57709 0.25118 0.47559 0.0
C751 C 0.59483 0.23103 0.40068 0.0
C752 C 0.56695 0.25697 0.42063 0.0
C753 C 0.57122 0.25073 0.35714 0.0
H754 H 0.81983 0.39487 0.32095 0.0
H755 H 0.89686 0.41238 0.26993 0.0
H756 H 0.89605 0.38462 0.35848 0.0
H757 H 0.87264 0.35328 0.44831 0.0
H758 H 0.79676 0.33813 0.50373 0.0
H759 H 0.79806 0.36675 0.41701 0.0
C760 C 0.83665 0.39294 0.32948 0.0
C761 C 0.85848 0.4061 0.28767 0.0
C762 C 0.83619 0.37704 0.38179 0.0
C763 C 0.87989 0.40301 0.3007 0.0
C764 C 0.87934 0.38686 0.35149 0.0
C765 C 0.85641 0.35637 0.44204 0.0
C766 C 0.83451 0.34315 0.48363 0.0
C767 C 0.8575 0.37347 0.39209 0.0
C768 C 0.81394 0.34786 0.4738 0.0
C769 C 0.81464 0.36426 0.42355 0.0
H770 H 0.70835 0.51635 0.28097 0.0
H771 H 0.66129 0.4345 0.31194 0.0
H772 H 0.68591 0.43839 0.41091 0.0
H773 H 0.72138 0.46492 0.48919 0.0
H774 H 0.76833 0.54675 0.45771 0.0
H775 H 0.74341 0.54286 0.35948 0.0
C776 C 0.70323 0.49923 0.30923 0.0
C777 C 0.68252 0.475 0.28768 0.0
C778 C 0.71773 0.50162 0.3666 0.0
C779 C 0.67678 0.45336 0.32611 0.0
C780 C 0.69103 0.45562 0.38311 0.0
C781 C 0.72632 0.48204 0.46106 0.0
C782 C 0.74717 0.50627 0.48213 0.0
C783 C 0.71166 0.47963 0.40392 0.0
C784 C 0.75273 0.52791 0.4439 0.0
C785 C 0.73834 0.52564 0.38728 0.0
H786 H 0.57889 0.87344 0.63301 0.0
H787 H 0.53743 0.79211 0.67599 0.0
H788 H 0.53069 0.80093 0.78717 0.0
H789 H 0.52856 0.83091 0.86403 0.0
H790 H 0.56767 0.91188 0.82112 0.0
H791 H 0.58373 0.90434 0.71845 0.0
C792 C 0.56882 0.85776 0.66722 0.0
C793 C 0.55817 0.83222 0.64591 0.0
C794 C 0.56435 0.86293 0.73079 0.0
C795 C 0.54577 0.81198 0.69092 0.0
C796 C 0.54168 0.81697 0.75452 0.0
C797 C 0.54126 0.84685 0.83278 0.0
C798 C 0.54672 0.87173 0.84857 0.0
C799 C 0.5497 0.84222 0.77376 0.0
C800 C 0.56335 0.89256 0.8091 0.0
C801 C 0.57225 0.8882 0.75038 0.0
H802 H 0.2161 0.71367 0.82325 0.0
H803 H 0.17445 0.63702 0.74347 0.0
H804 H 0.18595 0.65452 0.63342 0.0
H805 H 0.21643 0.69031 0.56505 0.0
H806 H 0.26208 0.766 0.64843 0.0
H807 H 0.23981 0.75045 0.75196 0.0
C808 C 0.20865 0.70086 0.78175 0.0
C809 C 0.19521 0.67413 0.79098 0.0
C810 C 0.21653 0.71094 0.7195 0.0
C811 C 0.18547 0.65769 0.73697 0.0
C812 C 0.19214 0.66767 0.67434 0.0
C813 C 0.22121 0.70339 0.60579 0.0
C814 C 0.2414 0.72892 0.60023 0.0
C815 C 0.20919 0.69406 0.66568 0.0
C816 C 0.24681 0.74612 0.65205 0.0
C817 C 0.23418 0.73722 0.71129 0.0
H818 H 0.36819 0.49896 0.61275 0.0
H819 H 0.32366 0.53454 0.66715 0.0
H820 H 0.33685 0.53681 0.77985 0.0
H821 H 0.36725 0.53605 0.85786 0.0
H822 H 0.4135 0.50258 0.80437 0.0
H823 H 0.39313 0.49145 0.6967 0.0
C824 C 0.36118 0.50687 0.64962 0.0
C825 C 0.34543 0.517 0.63167 0.0
C826 C 0.36918 0.50849 0.71428 0.0
C827 C 0.33584 0.52665 0.67981 0.0
C828 C 0.34347 0.52808 0.74422 0.0
C829 C 0.37205 0.52549 0.82309 0.0
C830 C 0.39176 0.52025 0.83778 0.0
C831 C 0.36094 0.52005 0.76132 0.0
C832 C 0.39815 0.50658 0.79343 0.0
C833 C 0.3868 0.50059 0.73185 0.0
H834 H 0.2231 0.54746 0.78945 0.0
H835 H 0.25632 0.62918 0.76056 0.0
H836 H 0.2778 0.6263 0.66128 0.0
H837 H 0.28829 0.60056 0.58311 0.0
H838 H 0.25402 0.51876 0.61331 0.0
H839 H 0.23218 0.52186 0.71077 0.0
C840 C 0.23492 0.56484 0.7617 0.0
C841 C 0.23783 0.58868 0.78404 0.0
C842 C 0.24731 0.56299 0.70431 0.0
C843 C 0.25336 0.61058 0.74577 0.0
C844 C 0.26582 0.60889 0.6887 0.0
C845 C 0.27603 0.5833 0.61077 0.0
C846 C 0.27315 0.55929 0.58962 0.0
C847 C 0.26315 0.58522 0.66752 0.0
C848 C 0.25688 0.53743 0.6271 0.0
C849 C 0.24431 0.53924 0.68334 0.0
H850 H 0.52141 0.68144 0.56841 0.0
H851 H 0.50483 0.74024 0.6312 0.0
H852 H 0.48543 0.71592 0.73124 0.0
H853 H 0.47213 0.67751 0.8009 0.0
H854 H 0.48999 0.61933 0.74116 0.0
H855 H 0.50973 0.64372 0.64093 0.0
C856 C 0.51367 0.68914 0.60389 0.0
C857 C 0.51473 0.71302 0.59081 0.0
C858 C 0.50253 0.67493 0.66231 0.0
C859 C 0.50453 0.72224 0.63867 0.0
C860 C 0.49328 0.70816 0.69624 0.0
C861 C 0.48021 0.66992 0.76606 0.0
C862 C 0.47902 0.64602 0.77936 0.0
C863 C 0.49195 0.68439 0.70853 0.0
C864 C 0.49025 0.63728 0.73316 0.0
C865 C 0.50161 0.65136 0.67547 0.0
H866 H 0.40731 0.87251 0.75671 0.0
H867 H 0.43214 0.81662 0.77386 0.0
H868 H 0.40673 0.79434 0.67689 0.0
H869 H 0.3761 0.78969 0.58809 0.0
H870 H 0.35155 0.84584 0.57183 0.0
H871 H 0.37797 0.86869 0.66664 0.0
C872 C 0.40747 0.85555 0.73937 0.0
C873 C 0.42211 0.84656 0.77393 0.0
C874 C 0.39255 0.84263 0.68319 0.0
C875 C 0.42152 0.82436 0.74931 0.0
C876 C 0.40677 0.81148 0.69355 0.0
C877 C 0.3765 0.807 0.60482 0.0
C878 C 0.36141 0.81577 0.57146 0.0
C879 C 0.39199 0.82026 0.66017 0.0
C880 C 0.36264 0.83837 0.59522 0.0
C881 C 0.37786 0.85151 0.64996 0.0
H882 H 0.24186 0.40529 0.32042 0.0
H883 H 0.19886 0.40212 0.49243 0.0
H884 H 0.16922 0.35642 0.47384 0.0
H885 H 0.15581 0.3168 0.41107 0.0
H886 H 0.20033 0.31902 0.24322 0.0
H887 H 0.22847 0.36534 0.25766 0.0
C888 C 0.22621 0.39468 0.35448 0.0
C889 C 0.22297 0.40768 0.40814 0.0
C890 C 0.2092 0.36799 0.34403 0.0
C891 C 0.20198 0.3932 0.45029 0.0
C892 C 0.18497 0.36683 0.43989 0.0
C893 C 0.17177 0.32719 0.37767 0.0
C894 C 0.17569 0.31381 0.32609 0.0
C895 C 0.18845 0.35394 0.3872 0.0
C896 C 0.19627 0.32834 0.28285 0.0
C897 C 0.21268 0.35499 0.29152 0.0
H898 H 0.75191 0.86032 0.42161 0.0
H899 H 0.74224 0.86569 0.21581 0.0
H900 H 0.69512 0.84075 0.22885 0.0
H901 H 0.6564 0.81985 0.30028 0.0
H902 H 0.66606 0.81215 0.50503 0.0
H903 H 0.71313 0.83516 0.49106 0.0
C904 C 0.73946 0.85571 0.3795 0.0
C905 C 0.7507 0.86501 0.31768 0.0
C906 C 0.71228 0.84098 0.38735 0.0
C907 C 0.73423 0.85871 0.2637 0.0
C908 C 0.70723 0.84456 0.2713 0.0
C909 C 0.66882 0.82291 0.34171 0.0
C910 C 0.65756 0.81429 0.40384 0.0
C911 C 0.69599 0.83593 0.33304 0.0
C912 C 0.67404 0.81835 0.45676 0.0
C913 C 0.70103 0.83169 0.44877 0.0
H914 H 0.2603 0.87697 0.46015 0.0
H915 H 0.21738 0.81648 0.32055 0.0
H916 H 0.19426 0.83797 0.28586 0.0
H917 H 0.18528 0.87379 0.29478 0.0
H918 H 0.23027 0.93585 0.42844 0.0
H919 H 0.2533 0.91418 0.46409 0.0
C920 C 0.24609 0.86845 0.42175 0.0
C921 C 0.24056 0.84452 0.39462 0.0
C922 C 0.23299 0.88135 0.40028 0.0
C923 C 0.22178 0.83422 0.3448 0.0
C924 C 0.2086 0.84675 0.32395 0.0
C925 C 0.20035 0.88285 0.33105 0.0
C926 C 0.20552 0.9065 0.35908 0.0
C927 C 0.21392 0.8703 0.35137 0.0
C928 C 0.22516 0.9175 0.40659 0.0
C929 C 0.23857 0.90512 0.427 0.0
H930 H 0.42085 0.22135 0.62986 0.0
H931 H 0.43811 0.17933 0.77196 0.0
H932 H 0.39316 0.1566 0.80722 0.0
H933 H 0.34887 0.14989 0.80217 0.0
H934 H 0.33119 0.18975 0.65428 0.0
H935 H 0.37578 0.21171 0.61813 0.0
C936 C 0.41477 0.20694 0.6678 0.0
C937 C 0.43332 0.20262 0.69866 0.0
C938 C 0.38857 0.19361 0.68799 0.0
C939 C 0.42469 0.18375 0.74803 0.0
C940 C 0.39881 0.17056 0.76828 0.0
C941 C 0.35459 0.16318 0.76168 0.0
C942 C 0.33628 0.16846 0.73292 0.0
C943 C 0.38056 0.17559 0.73945 0.0
C944 C 0.3446 0.1858 0.67996 0.0
C945 C 0.37027 0.19829 0.65829 0.0
H946 H 0.87971 0.16393 0.76867 0.0
H947 H 0.94798 0.21115 0.6545 0.0
H948 H 0.92959 0.23722 0.61811 0.0
H949 H 0.89352 0.2464 0.61602 0.0
H950 H 0.82594 0.19981 0.73346 0.0
H951 H 0.84453 0.17416 0.77009 0.0
C952 C 0.89078 0.18011 0.7365 0.0
C953 C 0.91529 0.1852 0.71437 0.0
C954 C 0.88001 0.19522 0.71535 0.0
C955 C 0.92896 0.20625 0.67189 0.0
C956 C 0.91845 0.22135 0.65106 0.0
C957 C 0.88283 0.23076 0.64989 0.0
C958 C 0.85791 0.22507 0.67044 0.0
C959 C 0.89386 0.21595 0.67193 0.0
C960 C 0.84469 0.20449 0.71457 0.0
C961 C 0.85548 0.18981 0.73641 0.0
H962 H 0.89821 0.75123 0.64525 0.0
H963 H 0.88357 0.74036 0.85112 0.0
H964 H 0.86151 0.69347 0.83636 0.0
H965 H 0.84816 0.6553 0.76491 0.0
H966 H 0.86021 0.66637 0.55821 0.0
H967 H 0.88136 0.71314 0.57293 0.0
C968 C 0.88995 0.73856 0.68679 0.0
C969 C 0.89268 0.74937 0.74938 0.0
C970 C 0.87694 0.71156 0.67767 0.0
C971 C 0.88168 0.73264 0.80254 0.0
C972 C 0.86918 0.70579 0.79407 0.0
C973 C 0.85529 0.66801 0.72313 0.0
C974 C 0.85276 0.65732 0.66044 0.0
C975 C 0.86698 0.69499 0.73195 0.0
C976 C 0.86187 0.67403 0.60679 0.0
C977 C 0.87403 0.70081 0.61529 0.0
H978 H 0.09379 0.55645 0.07179 0.0
H979 H 0.08481 0.52144 0.88294 0.0
H980 H 1.03862 0.49354 0.90389 0.0
H981 H 1.00026 0.48021 0.97406 0.0
H982 H 1.00969 0.52002 0.15644 0.0
H983 H 0.05587 0.54456 0.1391 0.0
C984 C 0.08189 0.54316 1.03416 0.0
C985 C 0.0933 0.54169 0.97508 0.0
C986 C 0.05509 0.52772 0.04551 0.0
C987 C 0.0771 0.52324 0.929 0.0
C988 C 0.05046 0.5073 0.9408 0.0
C989 C 1.01214 0.4944 1.01004 0.0
C990 C 1.00065 0.49764 0.06716 0.0
C991 C 1.03912 0.50958 0.99863 0.0
C992 C 1.01724 0.51606 0.11292 0.0
C993 C 1.04396 0.53056 0.10268 0.0
H994 H 0.52361 0.54583 0.0974 0.0
H995 H 0.55889 0.57131 0.9086 0.0
H996 H 0.58488 0.55097 0.92699 0.0
H997 H 0.59767 0.52581 0.99579 0.0
H998 H 0.56114 0.4984 0.18271 0.0
H999 H 0.53661 0.52046 0.16681 0.0
C1000 C 0.53713 0.54717 0.06037 0.0
C1001 C 0.53904 0.56021 1.00136 0.0
C1002 C 0.55211 0.53523 0.07117 0.0
C1003 C 0.55655 0.56124 0.95399 0.0
C1004 C 0.57163 0.5497 0.9647 0.0
C1005 C 0.58417 0.52428 1.0331 0.0
C1006 C 0.5814 0.51001 0.09047 0.0
C1007 C 0.56949 0.53651 1.0229 0.0
C1008 C 0.56419 0.50928 0.13843 0.0
C1009 C 0.54986 0.52176 0.12904 0.0
H1010 H 0.53896 0.07053 0.989 0.0
H1011 H 0.56867 0.0631 0.17404 0.0
H1012 H 0.5466 1.01646 0.15992 0.0
H1013 H 0.52076 0.9777 0.09243 0.0
H1014 H 0.49318 0.98566 0.90503 0.0
H1015 H 0.51341 0.03211 0.92178 0.0
C1016 C 0.54098 0.05891 1.02624 0.0
C1017 C 0.55587 0.07085 0.08255 0.0
C1018 C 0.52885 0.03201 1.01692 0.0
C1019 C 0.55726 0.05487 0.13059 0.0
C1020 C 0.54481 1.02806 0.1222 0.0
C1021 C 0.51895 0.98952 0.05537 0.0
C1022 C 0.50534 0.97792 0.99733 0.0
C1023 C 0.5308 1.01641 0.06522 0.0
C1024 C 0.50369 0.99385 0.94973 0.0
C1025 C 0.51515 1.02048 0.95952 0.0
H1026 H 0.17703 0.18464 0.44464 0.0
H1027 H 0.09919 0.12084 0.45361 0.0
H1028 H 0.11266 0.0992 0.53312 0.0
H1029 H 0.14726 0.09897 0.60395 0.0
H1030 H 0.22559 0.16182 0.5819 0.0
H1031 H 0.21138 0.18257 0.50502 0.0
C1032 C 0.16295 0.16595 0.46378 0.0
C1033 C 0.13698 0.15466 0.44314 0.0
C1034 C 0.17105 0.15318 0.50792 0.0
C1035 C 0.11927 0.13016 0.46819 0.0
C1036 C 0.12703 0.11775 0.51403 0.0
C1037 C 0.16126 0.11704 0.58188 0.0
C1038 C 0.1877 0.12859 0.60034 0.0
C1039 C 0.15297 0.12908 0.53485 0.0
C1040 C 0.20523 0.15208 0.5699 0.0
C1041 C 0.1971 0.16425 0.52552 0.0
H1042 H 0.95362 0.07378 0.56541 0.0
H1043 H 0.92071 1.02169 0.72698 0.0
H1044 H 0.9016 0.98497 0.65165 0.0
H1045 H 0.89193 0.96735 0.53762 0.0
H1046 H 0.92931 1.01938 0.37784 0.0
H1047 H 0.94875 0.05581 0.45343 0.0
C1048 C 0.94265 0.05436 0.58438 0.0
C1049 C 0.93884 0.0508 0.65263 0.0
C1050 C 0.93223 0.03306 0.54039 0.0
C1051 C 0.92442 1.02529 0.6754 0.0
C1052 C 0.91324 1.00417 0.63194 0.0
C1053 C 0.90463 0.98661 0.51937 0.0
C1054 C 0.909 0.99031 0.4512 0.0
C1055 C 0.91667 1.00773 0.56403 0.0
C1056 C 0.92565 1.01562 0.4294 0.0
C1057 C 0.93673 0.03662 0.47291 0.0
H1058 H 0.09711 0.94297 0.51406 0.0
H1059 H 0.04846 0.93061 0.34797 0.0
H1060 H 1.01045 0.91365 0.41931 0.0
H1061 H 0.99013 0.89981 0.5301 0.0
H1062 H 1.03971 0.91603 0.69623 0.0
H1063 H 0.07762 0.9338 0.6249 0.0
C1064 C 0.07825 0.93691 0.49335 0.0
C1065 C 0.076 0.93822 0.42488 0.0
C1066 C 0.05632 0.92763 0.53531 0.0
C1067 C 0.05116 0.93019 0.39992 0.0
C1068 C 1.02925 0.92027 0.44101 0.0
C1069 C 1.00927 0.90766 0.5508 0.0
C1070 C 1.01181 0.90662 0.61929 0.0
C1071 C 1.03142 0.91857 0.50893 0.0
C1072 C 1.03695 0.91675 0.64438 0.0
C1073 C 0.05875 0.92684 0.60328 0.0
H1074 H 0.8436 0.83122 0.63721 0.0
H1075 H 0.89894 0.81354 0.5536 0.0
H1076 H 0.87924 0.80801 0.44776 0.0
H1077 H 0.86327 0.83027 0.37949 0.0
H1078 H 0.81654 0.85861 0.46488 0.0
H1079 H 0.81411 0.83683 0.56568 0.0
C1080 C 0.85075 0.82531 0.59608 0.0
C1081 C 0.87431 0.82566 0.60127 0.0
C1082 C 0.84102 0.82484 0.53414 0.0
C1083 C 0.8819 0.81536 0.54994 0.0
C1084 C 0.87068 0.81231 0.48888 0.0
C1085 C 0.85199 0.83112 0.41965 0.0
C1086 C 0.84321 0.84885 0.41813 0.0
C1087 C 0.85293 0.82072 0.47957 0.0
C1088 C 0.82585 0.84717 0.46687 0.0
C1089 C 0.82442 0.83466 0.52503 0.0
H1090 H 0.22651 0.0715 0.34843 0.0
H1091 H 0.22108 0.99827 0.38133 0.0
H1092 H 0.24829 1.01496 0.47665 0.0
H1093 H 0.25304 0.04228 0.57113 0.0
H1094 H 0.25516 0.11424 0.54067 0.0
H1095 H 0.25119 0.10703 0.42443 0.0
C1096 C 0.23289 0.05988 0.37404 0.0
C1097 C 0.22032 0.03341 0.36193 0.0
C1098 C 0.24728 0.06926 0.43115 0.0
C1099 C 0.22953 1.01856 0.39224 0.0
C1100 C 0.24484 1.028 0.44761 0.0
C1101 C 0.25423 0.057 0.53839 0.0
C1102 C 0.25268 0.07777 0.56397 0.0
C1103 C 0.25073 0.05214 0.47162 0.0
C1104 C 0.25535 0.09748 0.522 0.0
C1105 C 0.25284 0.09328 0.45523 0.0
H1106 H 0.07828 0.19235 0.74842 0.0
H1107 H 1.01171 0.20046 0.71946 0.0
H1108 H 1.02992 0.22418 0.61987 0.0
H1109 H 0.05248 0.22082 0.5235 0.0
H1110 H 0.11806 0.21016 0.54951 0.0
H1111 H 0.11276 0.20918 0.6666 0.0
C1112 C 0.06869 0.20091 0.72238 0.0
C1113 C 1.0426 0.19204 0.73537 0.0
C1114 C 0.07844 0.21257 0.66224 0.0
C1115 C 1.03112 0.20512 0.70648 0.0
C1116 C 1.04131 0.21833 0.64847 0.0
C1117 C 0.0663 0.21942 0.55467 0.0
C1118 C 0.08389 0.21293 0.52825 0.0
C1119 C 0.06304 0.21868 0.62205 0.0
C1120 C 0.10268 0.21268 0.56902 0.0
C1121 C 0.10003 0.21264 0.63616 0.0
H1122 H 0.80905 0.51748 0.8701 0.0
H1123 H 0.8132 0.4723 0.71282 0.0
H1124 H 0.82827 0.45105 0.78835 0.0
H1125 H 0.8433 0.44716 0.89911 0.0
H1126 H 0.83424 0.48846 0.05862 0.0
H1127 H 0.81802 0.50887 0.98358 0.0
C1128 C 0.8128 0.50264 0.85249 0.0
C1129 C 0.80987 0.49662 0.78511 0.0
C1130 C 0.82075 0.48973 0.89714 0.0
C1131 C 0.81491 0.47727 0.76393 0.0
C1132 C 0.82376 0.46517 0.80734 0.0
C1133 C 0.83724 0.4602 0.91773 0.0
C1134 C 0.83993 0.466 0.98519 0.0
C1135 C 0.82713 0.47144 0.87405 0.0
C1136 C 0.83208 0.48317 1.00767 0.0
C1137 C 0.82297 0.49509 0.96438 0.0
H1138 H 0.63193 0.4114 0.89486 0.0
H1139 H 0.6105 0.35901 0.05644 0.0
H1140 H 0.59424 0.32251 0.98095 0.0
H1141 H 0.58326 0.30482 0.86801 0.0
H1142 H 0.60917 0.35735 0.70615 0.0
H1143 H 0.62658 0.39399 0.78157 0.0
C1144 C 0.62409 0.39203 0.91361 0.0
C1145 C 0.62251 0.3882 0.98201 0.0
C1146 C 0.61544 0.37094 0.86933 0.0
C1147 C 0.61227 0.3628 1.00465 0.0
C1148 C 0.60278 0.3418 0.9612 0.0
C1149 C 0.59322 0.3243 0.84915 0.0
C1150 C 0.59492 0.32808 0.78076 0.0
C1151 C 0.6039 0.34551 0.89332 0.0
C1152 C 0.60783 0.35363 0.75794 0.0
C1153 C 0.61762 0.37468 0.80138 0.0
H1154 H 0.68491 0.2634 0.94923 0.0
H1155 H 0.68784 0.19408 0.98335 0.0
H1156 H 0.72319 0.20801 0.90604 0.0
H1157 H 0.75248 0.23859 0.82422 0.0
H1158 H 0.74955 0.30741 0.78366 0.0
H1159 H 0.71569 0.29519 0.86642 0.0
C1160 C 0.69356 0.25157 0.94044 0.0
C1161 C 0.68353 0.22762 0.97324 0.0
C1162 C 0.714 0.25954 0.89368 0.0
C1163 C 0.69493 0.21251 0.95954 0.0
C1164 C 0.71526 0.22047 0.9149 0.0
C1165 C 0.74464 0.25111 0.83354 0.0
C1166 C 0.75394 0.27406 0.79702 0.0
C1167 C 0.72482 0.24375 0.88093 0.0
C1168 C 0.74307 0.2897 0.81044 0.0
C1169 C 0.72355 0.28264 0.85808 0.0
H1170 H 0.52018 0.18334 0.96683 0.0
H1171 H 0.5682 0.14947 0.94542 0.0
H1172 H 0.55818 0.14224 0.83093 0.0
H1173 H 0.55389 0.16647 0.73937 0.0
H1174 H 0.50277 0.19665 0.75884 0.0
H1175 H 0.49439 0.18317 0.87149 0.0
C1176 C 0.52675 0.17256 0.93812 0.0
C1177 C 0.54626 0.16859 0.96274 0.0
C1178 C 0.52091 0.16855 0.87169 0.0
C1179 C 0.55394 0.15367 0.92645 0.0
C1180 C 0.54842 0.14976 0.86041 0.0
C1181 C 0.53926 0.16812 0.76664 0.0
C1182 C 0.53132 0.18509 0.74457 0.0
C1183 C 0.53465 0.16025 0.83171 0.0
C1184 C 0.51093 0.18553 0.77761 0.0
C1185 C 0.50628 0.17802 0.84255 0.0
H1186 H 0.84968 0.3299 0.06527 0.0
H1187 H 0.92044 0.40003 1.02356 0.0
H1188 H 0.92955 0.37942 0.93425 0.0
H1189 H 0.90663 0.34959 0.84449 0.0
H1190 H 0.83324 0.28145 0.88202 0.0
H1191 H 0.83663 0.29202 0.99611 0.0
C1192 C 0.86782 0.34005 0.03897 0.0
C1193 C 0.88332 0.36667 0.04718 0.0
C1194 C 0.87206 0.32849 0.98501 0.0
C1195 C 0.90751 0.37964 1.01589 0.0
C1196 C 0.91261 0.36793 0.96403 0.0
C1197 C 0.892 0.33652 0.87829 0.0
C1198 C 0.86874 0.31624 0.8542 0.0
C1199 C 0.89333 0.34354 0.94362 0.0
C1200 C 0.85076 0.29823 0.89848 0.0
C1201 C 0.85255 0.30431 0.96425 0.0
H1202 H 0.74743 0.54119 1.03422 0.0
H1203 H 0.67186 0.52469 0.97116 0.0
H1204 H 0.69078 0.55554 0.88401 0.0
H1205 H 0.72559 0.57133 0.80443 0.0
H1206 H 0.80058 0.58504 0.86214 0.0
H1207 H 0.78581 0.57328 0.97305 0.0
C1208 C 0.73528 0.54512 1.00278 0.0
C1209 C 0.70839 0.52955 1.00634 0.0
C1210 C 0.7462 0.56219 0.95071 0.0
C1211 C 0.6927 0.53572 0.96807 0.0
C1212 C 0.7035 0.5534 0.91771 0.0
C1213 C 0.73896 0.57252 0.84156 0.0
C1214 C 0.76267 0.57487 0.82369 0.0
C1215 C 0.72985 0.56437 0.9046 0.0
C1216 C 0.78094 0.57998 0.87324 0.0
C1217 C 0.77255 0.57328 0.93716 0.0
H1218 H 0.51403 0.78051 0.22631 0.0
H1219 H 0.48507 0.80719 0.3815 0.0
H1220 H 0.46748 0.82476 0.30157 0.0
H1221 H 0.46222 0.83476 0.1861 0.0
H1222 H 0.48673 0.80341 1.03142 0.0
H1223 H 0.50358 0.78531 0.11142 0.0
C1224 C 0.50342 0.78973 0.24269 0.0
C1225 C 0.50089 0.79235 0.31049 0.0
C1226 C 0.49256 0.79913 0.19596 0.0
C1227 C 0.48716 0.80455 0.3302 0.0
C1228 C 0.47721 0.81479 0.28418 0.0
C1229 C 0.47094 0.82368 0.16981 0.0
C1230 C 0.47315 0.82066 0.10194 0.0
C1231 C 0.48003 0.81253 0.21673 0.0
C1232 C 0.48447 0.80603 0.08264 0.0
C1233 C 0.49432 0.79576 0.12868 0.0
H1234 H 0.25089 0.72374 0.28023 0.0
H1235 H 0.33155 0.75017 0.24985 0.0
H1236 H 0.32028 0.71805 0.16252 0.0
H1237 H 0.28645 0.68192 0.09185 0.0
H1238 H 0.2061 0.65521 0.13397 0.0
H1239 H 0.21831 0.68738 0.21773 0.0
C1240 C 0.26615 0.72259 0.25472 0.0
C1241 C 0.29214 0.73978 0.27197 0.0
C1242 C 0.25947 0.70366 0.20561 0.0
C1243 C 0.31138 0.73739 0.23828 0.0
C1244 C 0.30487 0.71894 0.1879 0.0
C1245 C 0.27163 0.68306 0.11949 0.0
C1246 C 0.24512 0.66565 0.10495 0.0
C1247 C 0.27884 0.70185 0.17056 0.0
C1248 C 0.22655 0.66781 0.14269 0.0
C1249 C 0.2335 0.68647 0.19122 0.0
H1250 H 0.32778 0.54414 0.20842 0.0
H1251 H 0.37874 0.58907 0.36371 0.0
H1252 H 0.41531 0.60804 0.28749 0.0
H1253 H 0.43375 0.61033 0.17611 0.0
H1254 H 0.38161 0.56939 1.01888 0.0
H1255 H 0.34514 0.55082 0.09503 0.0
C1256 C 0.34682 0.55839 0.22552 0.0
C1257 C 0.35022 0.56503 0.29255 0.0
C1258 C 0.36783 0.56998 0.18045 0.0
C1259 C 0.37521 0.58363 0.31292 0.0
C1260 C 0.39629 0.59441 0.26908 0.0
C1261 C 0.41435 0.59767 0.15827 0.0
C1262 C 0.41072 0.59144 0.09094 0.0
C1263 C 0.39301 0.58757 0.20265 0.0
C1264 C 0.38523 0.57491 0.06962 0.0
C1265 C 0.36426 0.56408 0.11356 0.0
H1266 H 0.18761 0.49951 0.28857 0.0
H1267 H 0.24601 0.48608 0.20603 0.0
H1268 H 0.23166 0.48816 0.09745 0.0
H1269 H 0.21844 0.51433 0.03526 0.0
H1270 H 0.16771 0.53724 0.12325 0.0
H1271 H 0.16204 0.51058 0.21727 0.0
C1272 C 0.19652 0.49614 0.24665 0.0
C1273 C 0.21936 0.49531 0.25464 0.0
C1274 C 0.18986 0.49998 0.18437 0.0
C1275 C 0.22936 0.4885 0.2011 0.0
C1276 C 0.22129 0.48992 0.13856 0.0
C1277 C 0.20536 0.51258 0.07408 0.0
C1278 C 0.19522 0.52913 0.0752 0.0
C1279 C 0.20409 0.49908 0.13041 0.0
C1280 C 0.17683 0.5256 0.12283 0.0
C1281 C 0.17371 0.51045 0.17708 0.0
H1282 H 0.48984 0.72847 0.19223 0.0
H1283 H 0.56964 0.7485 0.20543 0.0
H1284 H 0.57216 0.74668 0.08712 0.0
H1285 H 0.54739 0.72387 0.99227 0.0
H1286 H 0.46543 0.6942 0.98699 0.0
H1287 H 0.46815 0.71776 0.08611 0.0
C1288 C 0.50779 0.73269 0.16883 0.0
C1289 C 0.52905 0.73686 0.20649 0.0
C1290 C 0.50862 0.73035 0.10169 0.0
C1291 C 0.5528 0.74414 0.17655 0.0
C1292 C 0.55425 0.74328 0.10918 0.0
C1293 C 0.53027 0.72342 1.01122 0.0
C1294 C 0.50582 0.70507 0.98788 0.0
C1295 C 0.53163 0.73405 0.07228 0.0
C1296 C 0.48425 0.70671 1.00809 0.0
C1297 C 0.48574 0.71975 0.06543 0.0
H1298 H 0.35123 0.88746 0.20112 0.0
H1299 H 0.28759 0.80981 0.18394 0.0
H1300 H 0.29813 0.80829 0.07136 0.0
H1301 H 0.33637 0.82135 1.00289 0.0
H1302 H 0.40251 0.89741 1.02691 0.0
H1303 H 0.37982 0.90756 0.10755 0.0
C1304 C 0.33896 0.87073 0.17164 0.0
C1305 C 0.32052 0.84802 0.20215 0.0
C1306 C 0.34621 0.86935 0.10782 0.0
C1307 C 0.30325 0.82713 0.16292 0.0
C1308 C 0.30938 0.82608 0.09811 0.0
C1309 C 0.34547 0.84044 1.0241 0.0
C1310 C 0.3719 0.85746 1.014 0.0
C1311 C 0.33277 0.84579 0.0735 0.0
C1312 C 0.38273 0.88297 0.03705 0.0
C1313 C 0.36973 0.88895 0.08373 0.0
loop_
_geom_bond_atom_site_label_1
_geom_bond_atom_site_label_2
_geom_bond_distance
_geom_bond_site_symmetry_2
_ccdc_geom_bond_type
Co0 N4 2.148 . S
Co0 N10 2.128 . S
Co0 N20 2.194 . S
Co0 O25 2.351 . S
Co0 O26 2.155 . S
Co0 O27 2.096 . S
C1 N4 1.301 . S
C1 N5 1.328 . S
C1 H6 0.930 . S
C2 C3 1.333 . S
C2 N4 1.317 . S
C2 H7 0.930 . S
C3 C2 1.333 . S
C3 N5 1.350 . S
C3 H29 0.931 . S
N4 Co0 2.148 . S
N4 C1 1.301 . S
N4 C2 1.317 . S
N5 C1 1.328 . S
N5 C3 1.350 . S
H6 C1 0.930 . S
H7 C2 0.930 . S
C8 O9 1.224 . S
C8 O27 1.247 . S
O9 C8 1.224 . S
N10 Co0 2.128 . S
N10 C11 1.355 . S
N10 C13 1.311 . S
C11 N10 1.355 . S
C11 C12 1.363 . S
C11 H23 0.929 . S
C12 C11 1.363 . S
C12 N14 1.375 . S
C12 H30 0.931 . S
C13 N10 1.311 . S
C13 N14 1.347 . S
C13 H24 0.929 . S
N14 C12 1.375 . S
N14 C13 1.347 . S
C15 C18 1.365 . S
C15 N20 1.328 . S
C15 H21 0.929 . S
C16 C17 1.362 . S
C16 C19 1.378 . S
C16 H31 0.929 . S
C17 C16 1.362 . S
C17 C18 1.366 . S
C18 C15 1.365 . S
C18 C17 1.366 . S
C18 H32 0.930 . S
C19 C16 1.378 . S
C19 N20 1.315 . S
C19 H22 0.930 . S
N20 Co0 2.194 . S
N20 C15 1.328 . S
N20 C19 1.315 . S
H21 C15 0.929 . S
H22 C19 0.930 . S
H23 C11 0.929 . S
H24 C13 0.929 . S
O25 Co0 2.351 . S
O25 C28 1.244 . S
O26 Co0 2.155 . S
O26 C28 1.240 . S
O27 Co0 2.096 . S
O27 C8 1.247 . S
C28 O25 1.244 . S
C28 O26 1.240 . S
H29 C3 0.931 . S
H30 C12 0.931 . S
H31 C16 0.929 . S
H32 C18 0.930 . S
Co33 N37 2.148 . S
Co33 N43 2.128 . S
Co33 N53 2.194 . S
Co33 O58 2.351 . S
Co33 O59 2.155 . S
Co33 O60 2.096 . S
C34 N37 1.301 . S
C34 N38 1.328 . S
C34 H39 0.930 . S
C35 C36 1.333 . S
C35 N37 1.317 . S
C35 H40 0.930 . S
C36 C35 1.333 . S
C36 N38 1.350 . S
C36 H62 0.931 . S
N37 Co33 2.148 . S
N37 C34 1.301 . S
N37 C35 1.317 . S
N38 C34 1.328 . S
N38 C36 1.350 . S
H39 C34 0.930 . S
H40 C35 0.930 . S
C41 O42 1.224 . S
C41 O60 1.247 . S
O42 C41 1.224 . S
N43 Co33 2.128 . S
N43 C44 1.355 . S
N43 C46 1.311 . S
C44 N43 1.355 . S
C44 C45 1.363 . S
C44 H56 0.929 . S
C45 C44 1.363 . S
C45 N47 1.375 . S
C45 H63 0.931 . S
C46 N43 1.311 . S
C46 N47 1.347 . S
C46 H57 0.929 . S
N47 C45 1.375 . S
N47 C46 1.347 . S
C48 C51 1.365 . S
C48 N53 1.328 . S
C48 H54 0.929 . S
C49 C50 1.362 . S
C49 C52 1.378 . S
C49 H64 0.929 . S
C50 C49 1.362 . S
C50 C51 1.366 . S
C51 C48 1.365 . S
C51 C50 1.366 . S
C51 H65 0.930 . S
C52 C49 1.378 . S
C52 N53 1.315 . S
C52 H55 0.930 . S
N53 Co33 2.194 . S
N53 C48 1.328 . S
N53 C52 1.315 . S
H54 C48 0.929 . S
H55 C52 0.930 . S
H56 C44 0.929 . S
H57 C46 0.929 . S
O58 Co33 2.351 . S
O58 C61 1.244 . S
O59 Co33 2.155 . S
O59 C61 1.240 . S
O60 Co33 2.096 . S
O60 C41 1.247 . S
C61 O58 1.244 . S
C61 O59 1.240 . S
H62 C36 0.931 . S
H63 C45 0.931 . S
H64 C49 0.929 . S
H65 C51 0.930 . S
Co66 N70 2.148 . S
Co66 N76 2.128 . S
Co66 N86 2.194 . S
Co66 O91 2.351 . S
Co66 O92 2.155 . S
Co66 O93 2.096 . S
C67 N70 1.301 . S
C67 N71 1.328 . S
C67 H72 0.930 . S
C68 C69 1.333 . S
C68 N70 1.317 . S
C68 H73 0.930 . S
C69 C68 1.333 . S
C69 N71 1.350 . S
C69 H95 0.931 . S
N70 Co66 2.148 . S
N70 C67 1.301 . S
N70 C68 1.317 . S
N71 C67 1.328 . S
N71 C69 1.350 . S
H72 C67 0.930 . S
H73 C68 0.930 . S
C74 O75 1.224 . S
C74 O93 1.247 . S
O75 C74 1.224 . S
N76 Co66 2.128 . S
N76 C77 1.355 . S
N76 C79 1.311 . S
C77 N76 1.355 . S
C77 C78 1.363 . S
C77 H89 0.929 . S
C78 C77 1.363 . S
C78 N80 1.375 . S
C78 H96 0.931 . S
C79 N76 1.311 . S
C79 N80 1.347 . S
C79 H90 0.929 . S
N80 C78 1.375 . S
N80 C79 1.347 . S
C81 C84 1.365 . S
C81 N86 1.328 . S
C81 H87 0.929 . S
C82 C83 1.362 . S
C82 C85 1.378 . S
C82 H97 0.929 . S
C83 C82 1.362 . S
C83 C84 1.366 . S
C84 C81 1.365 . S
C84 C83 1.366 . S
C84 H98 0.930 . S
C85 C82 1.378 . S
C85 N86 1.315 . S
C85 H88 0.930 . S
N86 Co66 2.194 . S
N86 C81 1.328 . S
N86 C85 1.315 . S
H87 C81 0.929 . S
H88 C85 0.930 . S
H89 C77 0.929 . S
H90 C79 0.929 . S
O91 Co66 2.351 . S
O91 C94 1.244 . S
O92 Co66 2.155 . S
O92 C94 1.240 . S
O93 Co66 2.096 . S
O93 C74 1.247 . S
C94 O91 1.244 . S
C94 O92 1.240 . S
H95 C69 0.931 . S
H96 C78 0.931 . S
H97 C82 0.929 . S
H98 C84 0.930 . S
Co99 N103 2.148 . S
Co99 N109 2.128 . S
Co99 N119 2.194 . S
Co99 O124 2.351 . S
Co99 O125 2.155 . S
Co99 O126 2.096 . S
C100 N103 1.301 . S
C100 N104 1.328 . S
C100 H105 0.930 . S
C101 C102 1.333 . S
C101 N103 1.317 . S
C101 H106 0.930 . S
C102 C101 1.333 . S
C102 N104 1.350 . S
C102 H128 0.931 . S
N103 Co99 2.148 . S
N103 C100 1.301 . S
N103 C101 1.317 . S
N104 C100 1.328 . S
N104 C102 1.350 . S
H105 C100 0.930 . S
H106 C101 0.930 . S
C107 O108 1.224 . S
C107 O126 1.247 . S
O108 C107 1.224 . S
N109 Co99 2.128 . S
N109 C110 1.355 . S
N109 C112 1.311 . S
C110 N109 1.355 . S
C110 C111 1.363 . S
C110 H122 0.929 . S
C111 C110 1.363 . S
C111 N113 1.375 . S
C111 H129 0.931 . S
C112 N109 1.311 . S
C112 N113 1.347 . S
C112 H123 0.929 . S
N113 C111 1.375 . S
N113 C112 1.347 . S
C114 C117 1.365 . S
C114 N119 1.328 . S
C114 H120 0.929 . S
C115 C116 1.362 . S
C115 C118 1.378 . S
C115 H130 0.929 . S
C116 C115 1.362 . S
C116 C117 1.366 . S
C117 C114 1.365 . S
C117 C116 1.366 . S
C117 H131 0.930 . S
C118 C115 1.378 . S
C118 N119 1.315 . S
C118 H121 0.930 . S
N119 Co99 2.194 . S
N119 C114 1.328 . S
N119 C118 1.315 . S
H120 C114 0.929 . S
H121 C118 0.930 . S
H122 C110 0.929 . S
H123 C112 0.929 . S
O124 Co99 2.351 . S
O124 C127 1.244 . S
O125 Co99 2.155 . S
O125 C127 1.240 . S
O126 Co99 2.096 . S
O126 C107 1.247 . S
C127 O124 1.244 . S
C127 O125 1.240 . S
H128 C102 0.931 . S
H129 C111 0.931 . S
H130 C115 0.929 . S
H131 C117 0.930 . S
Co132 N136 2.148 . S
Co132 N142 2.128 . S
Co132 N152 2.194 . S
Co132 O157 2.351 . S
Co132 O158 2.155 . S
Co132 O159 2.096 . S
C133 N136 1.301 . S
C133 N137 1.328 . S
C133 H138 0.930 . S
C134 C135 1.333 . S
C134 N136 1.317 . S
C134 H139 0.930 . S
C135 C134 1.333 . S
C135 N137 1.350 . S
C135 H161 0.931 . S
N136 Co132 2.148 . S
N136 C133 1.301 . S
N136 C134 1.317 . S
N137 C133 1.328 . S
N137 C135 1.350 . S
H138 C133 0.930 . S
H139 C134 0.930 . S
C140 O141 1.224 . S
C140 O159 1.247 . S
O141 C140 1.224 . S
N142 Co132 2.128 . S
N142 C143 1.355 . S
N142 C145 1.311 . S
C143 N142 1.355 . S
C143 C144 1.363 . S
C143 H155 0.929 . S
C144 C143 1.363 . S
C144 N146 1.375 . S
C144 H162 0.931 . S
C145 N142 1.311 . S
C145 N146 1.347 . S
C145 H156 0.929 . S
N146 C144 1.375 . S
N146 C145 1.347 . S
C147 C150 1.365 . S
C147 N152 1.328 . S
C147 H153 0.929 . S
C148 C149 1.362 . S
C148 C151 1.378 . S
C148 H163 0.929 . S
C149 C148 1.362 . S
C149 C150 1.366 . S
C150 C147 1.365 . S
C150 C149 1.366 . S
C150 H164 0.930 . S
C151 C148 1.378 . S
C151 N152 1.315 . S
C151 H154 0.930 . S
N152 Co132 2.194 . S
N152 C147 1.328 . S
N152 C151 1.315 . S
H153 C147 0.929 . S
H154 C151 0.930 . S
H155 C143 0.929 . S
H156 C145 0.929 . S
O157 Co132 2.351 . S
O157 C160 1.244 . S
O158 Co132 2.155 . S
O158 C160 1.240 . S
O159 Co132 2.096 . S
O159 C140 1.247 . S
C160 O157 1.244 . S
C160 O158 1.240 . S
H161 C135 0.931 . S
H162 C144 0.931 . S
H163 C148 0.929 . S
H164 C150 0.930 . S
Co165 N169 2.148 . S
Co165 N175 2.128 . S
Co165 N185 2.194 . S
Co165 O190 2.351 . S
Co165 O191 2.155 . S
Co165 O192 2.096 . S
C166 N169 1.301 . S
C166 N170 1.328 . S
C166 H171 0.930 . S
C167 C168 1.333 . S
C167 N169 1.317 . S
C167 H172 0.930 . S
C168 C167 1.333 . S
C168 N170 1.350 . S
C168 H194 0.931 . S
N169 Co165 2.148 . S
N169 C166 1.301 . S
N169 C167 1.317 . S
N170 C166 1.328 . S
N170 C168 1.350 . S
H171 C166 0.930 . S
H172 C167 0.930 . S
C173 O174 1.224 . S
C173 O192 1.247 . S
O174 C173 1.224 . S
N175 Co165 2.128 . S
N175 C176 1.355 . S
N175 C178 1.311 . S
C176 N175 1.355 . S
C176 C177 1.363 . S
C176 H188 0.929 . S
C177 C176 1.363 . S
C177 N179 1.375 . S
C177 H195 0.931 . S
C178 N175 1.311 . S
C178 N179 1.347 . S
C178 H189 0.929 . S
N179 C177 1.375 . S
N179 C178 1.347 . S
C180 C183 1.365 . S
C180 N185 1.328 . S
C180 H186 0.929 . S
C181 C182 1.362 . S
C181 C184 1.378 . S
C181 H196 0.929 . S
C182 C181 1.362 . S
C182 C183 1.366 . S
C183 C180 1.365 . S
C183 C182 1.366 . S
C183 H197 0.930 . S
C184 C181 1.378 . S
C184 N185 1.315 . S
C184 H187 0.930 . S
N185 Co165 2.194 . S
N185 C180 1.328 . S
N185 C184 1.315 . S
H186 C180 0.929 . S
H187 C184 0.930 . S
H188 C176 0.929 . S
H189 C178 0.929 . S
O190 Co165 2.351 . S
O190 C193 1.244 . S
O191 Co165 2.155 . S
O191 C193 1.240 . S
O192 Co165 2.096 . S
O192 C173 1.247 . S
C193 O190 1.244 . S
C193 O191 1.240 . S
H194 C168 0.931 . S
H195 C177 0.931 . S
H196 C181 0.929 . S
H197 C183 0.930 . S
Co198 N202 2.148 . S
Co198 N208 2.128 . S
Co198 N218 2.194 . S
Co198 O223 2.351 . S
Co198 O224 2.155 . S
Co198 O225 2.096 . S
C199 N202 1.301 . S
C199 N203 1.328 . S
C199 H204 0.930 . S
C200 C201 1.333 . S
C200 N202 1.317 . S
C200 H205 0.930 . S
C201 C200 1.333 . S
C201 N203 1.350 . S
C201 H227 0.931 . S
N202 Co198 2.148 . S
N202 C199 1.301 . S
N202 C200 1.317 . S
N203 C199 1.328 . S
N203 C201 1.350 . S
H204 C199 0.930 . S
H205 C200 0.930 . S
C206 O207 1.224 . S
C206 O225 1.247 . S
O207 C206 1.224 . S
N208 Co198 2.128 . S
N208 C209 1.355 . S
N208 C211 1.311 . S
C209 N208 1.355 . S
C209 C210 1.363 . S
C209 H221 0.929 . S
C210 C209 1.363 . S
C210 N212 1.375 . S
C210 H228 0.931 . S
C211 N208 1.311 . S
C211 N212 1.347 . S
C211 H222 0.929 . S
N212 C210 1.375 . S
N212 C211 1.347 . S
C213 C216 1.365 . S
C213 N218 1.328 . S
C213 H219 0.929 . S
C214 C215 1.362 . S
C214 C217 1.378 . S
C214 H229 0.929 . S
C215 C214 1.362 . S
C215 C216 1.366 . S
C216 C213 1.365 . S
C216 C215 1.366 . S
C216 H230 0.930 . S
C217 C214 1.378 . S
C217 N218 1.315 . S
C217 H220 0.930 . S
N218 Co198 2.194 . S
N218 C213 1.328 . S
N218 C217 1.315 . S
H219 C213 0.929 . S
H220 C217 0.930 . S
H221 C209 0.929 . S
H222 C211 0.929 . S
O223 Co198 2.351 . S
O223 C226 1.244 . S
O224 Co198 2.155 . S
O224 C226 1.240 . S
O225 Co198 2.096 . S
O225 C206 1.247 . S
C226 O223 1.244 . S
C226 O224 1.240 . S
H227 C201 0.931 . S
H228 C210 0.931 . S
H229 C214 0.929 . S
H230 C216 0.930 . S
Co231 N235 2.148 . S
Co231 N241 2.128 . S
Co231 N251 2.194 . S
Co231 O256 2.351 . S
Co231 O257 2.155 . S
Co231 O258 2.096 . S
C232 N235 1.301 . S
C232 N236 1.328 . S
C232 H237 0.930 . S
C233 C234 1.333 . S
C233 N235 1.317 . S
C233 H238 0.930 . S
C234 C233 1.333 . S
C234 N236 1.350 . S
C234 H260 0.931 . S
N235 Co231 2.148 . S
N235 C232 1.301 . S
N235 C233 1.317 . S
N236 C232 1.328 . S
N236 C234 1.350 . S
H237 C232 0.930 . S
H238 C233 0.930 . S
C239 O240 1.224 . S
C239 O258 1.247 . S
O240 C239 1.224 . S
N241 Co231 2.128 . S
N241 C242 1.355 . S
N241 C244 1.311 . S
C242 N241 1.355 . S
C242 C243 1.363 . S
C242 H254 0.929 . S
C243 C242 1.363 . S
C243 N245 1.375 . S
C243 H261 0.931 . S
C244 N241 1.311 . S
C244 N245 1.347 . S
C244 H255 0.929 . S
N245 C243 1.375 . S
N245 C244 1.347 . S
C246 C249 1.365 . S
C246 N251 1.328 . S
C246 H252 0.929 . S
C247 C248 1.362 . S
C247 C250 1.378 . S
C247 H262 0.929 . S
C248 C247 1.362 . S
C248 C249 1.366 . S
C249 C246 1.365 . S
C249 C248 1.366 . S
C249 H263 0.930 . S
C250 C247 1.378 . S
C250 N251 1.315 . S
C250 H253 0.930 . S
N251 Co231 2.194 . S
N251 C246 1.328 . S
N251 C250 1.315 . S
H252 C246 0.929 . S
H253 C250 0.930 . S
H254 C242 0.929 . S
H255 C244 0.929 . S
O256 Co231 2.351 . S
O256 C259 1.244 . S
O257 Co231 2.155 . S
O257 C259 1.240 . S
O258 Co231 2.096 . S
O258 C239 1.247 . S
C259 O256 1.244 . S
C259 O257 1.240 . S
H260 C234 0.931 . S
H261 C243 0.931 . S
H262 C247 0.929 . S
H263 C249 0.930 . S
Co264 N268 2.148 . S
Co264 N274 2.128 . S
Co264 N284 2.194 . S
Co264 O289 2.351 . S
Co264 O290 2.155 . S
Co264 O291 2.096 . S
C265 N268 1.301 . S
C265 N269 1.328 . S
C265 H270 0.930 . S
C266 C267 1.333 . S
C266 N268 1.317 . S
C266 H271 0.930 . S
C267 C266 1.333 . S
C267 N269 1.350 . S
C267 H293 0.931 . S
N268 Co264 2.148 . S
N268 C265 1.301 . S
N268 C266 1.317 . S
N269 C265 1.328 . S
N269 C267 1.350 . S
H270 C265 0.930 . S
H271 C266 0.930 . S
C272 O273 1.224 . S
C272 O291 1.247 . S
O273 C272 1.224 . S
N274 Co264 2.128 . S
N274 C275 1.355 . S
N274 C277 1.311 . S
C275 N274 1.355 . S
C275 C276 1.363 . S
C275 H287 0.929 . S
C276 C275 1.363 . S
C276 N278 1.375 . S
C276 H294 0.931 . S
C277 N274 1.311 . S
C277 N278 1.347 . S
C277 H288 0.929 . S
N278 C276 1.375 . S
N278 C277 1.347 . S
C279 C282 1.365 . S
C279 N284 1.328 . S
C279 H285 0.929 . S
C280 C281 1.362 . S
C280 C283 1.378 . S
C280 H295 0.929 . S
C281 C280 1.362 . S
C281 C282 1.366 . S
C282 C279 1.365 . S
C282 C281 1.366 . S
C282 H296 0.930 . S
C283 C280 1.378 . S
C283 N284 1.315 . S
C283 H286 0.930 . S
N284 Co264 2.194 . S
N284 C279 1.328 . S
N284 C283 1.315 . S
H285 C279 0.929 . S
H286 C283 0.930 . S
H287 C275 0.929 . S
H288 C277 0.929 . S
O289 Co264 2.351 . S
O289 C292 1.244 . S
O290 Co264 2.155 . S
O290 C292 1.240 . S
O291 Co264 2.096 . S
O291 C272 1.247 . S
C292 O289 1.244 . S
C292 O290 1.240 . S
H293 C267 0.931 . S
H294 C276 0.931 . S
H295 C280 0.929 . S
H296 C282 0.930 . S
Co297 N301 2.148 . S
Co297 N307 2.128 . S
Co297 N317 2.194 . S
Co297 O322 2.351 1_554 S
Co297 O323 2.155 . S
Co297 O324 2.096 . S
C298 N301 1.301 1_556 S
C298 N302 1.328 . S
C298 H303 0.930 . S
C299 C300 1.333 1_554 S
C299 N301 1.317 . S
C299 H304 0.930 . S
C300 C299 1.333 1_556 S
C300 N302 1.350 . S
C300 H326 0.931 . S
N301 Co297 2.148 . S
N301 C298 1.301 1_554 S
N301 C299 1.317 . S
N302 C298 1.328 . S
N302 C300 1.350 . S
H303 C298 0.930 . S
H304 C299 0.930 . S
C305 O306 1.224 . S
C305 O324 1.247 . S
O306 C305 1.224 . S
N307 Co297 2.128 . S
N307 C308 1.355 . S
N307 C310 1.311 . S
C308 N307 1.355 . S
C308 C309 1.363 . S
C308 H320 0.929 . S
C309 C308 1.363 . S
C309 N311 1.375 . S
C309 H327 0.931 . S
C310 N307 1.311 . S
C310 N311 1.347 . S
C310 H321 0.929 . S
N311 C309 1.375 . S
N311 C310 1.347 . S
C312 C315 1.365 . S
C312 N317 1.328 . S
C312 H318 0.929 1_554 S
C313 C314 1.362 . S
C313 C316 1.378 . S
C313 H328 0.929 . S
C314 C313 1.362 . S
C314 C315 1.366 . S
C315 C312 1.365 . S
C315 C314 1.366 . S
C315 H329 0.930 1_554 S
C316 C313 1.378 . S
C316 N317 1.315 . S
C316 H319 0.930 . S
N317 Co297 2.194 . S
N317 C312 1.328 . S
N317 C316 1.315 . S
H318 C312 0.929 1_556 S
H319 C316 0.930 . S
H320 C308 0.929 . S
H321 C310 0.929 . S
O322 Co297 2.351 1_556 S
O322 C325 1.244 . S
O323 Co297 2.155 . S
O323 C325 1.240 1_554 S
O324 Co297 2.096 . S
O324 C305 1.247 . S
C325 O322 1.244 . S
C325 O323 1.240 1_556 S
H326 C300 0.931 . S
H327 C309 0.931 . S
H328 C313 0.929 . S
H329 C315 0.930 1_556 S
Co330 N334 2.148 . S
Co330 N340 2.128 . S
Co330 N350 2.194 . S
Co330 O355 2.351 1_554 S
Co330 O356 2.155 . S
Co330 O357 2.096 . S
C331 N334 1.301 1_556 S
C331 N335 1.328 . S
C331 H336 0.930 . S
C332 C333 1.333 1_554 S
C332 N334 1.317 . S
C332 H337 0.930 . S
C333 C332 1.333 1_556 S
C333 N335 1.350 . S
C333 H359 0.931 . S
N334 Co330 2.148 . S
N334 C331 1.301 1_554 S
N334 C332 1.317 . S
N335 C331 1.328 . S
N335 C333 1.350 . S
H336 C331 0.930 . S
H337 C332 0.930 . S
C338 O339 1.224 . S
C338 O357 1.247 . S
O339 C338 1.224 . S
N340 Co330 2.128 . S
N340 C341 1.355 . S
N340 C343 1.311 . S
C341 N340 1.355 . S
C341 C342 1.363 . S
C341 H353 0.929 . S
C342 C341 1.363 . S
C342 N344 1.375 . S
C342 H360 0.931 . S
C343 N340 1.311 . S
C343 N344 1.347 . S
C343 H354 0.929 . S
N344 C342 1.375 . S
N344 C343 1.347 . S
C345 C348 1.365 . S
C345 N350 1.328 . S
C345 H351 0.929 1_554 S
C346 C347 1.362 . S
C346 C349 1.378 . S
C346 H361 0.929 . S
C347 C346 1.362 . S
C347 C348 1.366 . S
C348 C345 1.365 . S
C348 C347 1.366 . S
C348 H362 0.930 1_554 S
C349 C346 1.378 . S
C349 N350 1.315 . S
C349 H352 0.930 . S
N350 Co330 2.194 . S
N350 C345 1.328 . S
N350 C349 1.315 . S
H351 C345 0.929 1_556 S
H352 C349 0.930 . S
H353 C341 0.929 . S
H354 C343 0.929 . S
O355 Co330 2.351 1_556 S
O355 C358 1.244 . S
O356 Co330 2.155 . S
O356 C358 1.240 1_554 S
O357 Co330 2.096 . S
O357 C338 1.247 . S
C358 O355 1.244 . S
C358 O356 1.240 1_556 S
H359 C333 0.931 . S
H360 C342 0.931 . S
H361 C346 0.929 . S
H362 C348 0.930 1_556 S
Co363 N367 2.148 . S
Co363 N373 2.128 . S
Co363 N383 2.194 . S
Co363 O388 2.351 1_554 S
Co363 O389 2.155 . S
Co363 O390 2.096 . S
C364 N367 1.301 1_556 S
C364 N368 1.328 . S
C364 H369 0.930 . S
C365 C366 1.333 1_554 S
C365 N367 1.317 . S
C365 H370 0.930 . S
C366 C365 1.333 1_556 S
C366 N368 1.350 . S
C366 H392 0.931 . S
N367 Co363 2.148 . S
N367 C364 1.301 1_554 S
N367 C365 1.317 . S
N368 C364 1.328 . S
N368 C366 1.350 . S
H369 C364 0.930 . S
H370 C365 0.930 . S
C371 O372 1.224 . S
C371 O390 1.247 . S
O372 C371 1.224 . S
N373 Co363 2.128 . S
N373 C374 1.355 . S
N373 C376 1.311 . S
C374 N373 1.355 . S
C374 C375 1.363 . S
C374 H386 0.929 . S
C375 C374 1.363 . S
C375 N377 1.375 . S
C375 H393 0.931 . S
C376 N373 1.311 . S
C376 N377 1.347 . S
C376 H387 0.929 . S
N377 C375 1.375 . S
N377 C376 1.347 . S
C378 C381 1.365 . S
C378 N383 1.328 . S
C378 H384 0.929 1_554 S
C379 C380 1.362 . S
C379 C382 1.378 . S
C379 H394 0.929 . S
C380 C379 1.362 . S
C380 C381 1.366 . S
C381 C378 1.365 . S
C381 C380 1.366 . S
C381 H395 0.930 1_554 S
C382 C379 1.378 . S
C382 N383 1.315 . S
C382 H385 0.930 . S
N383 Co363 2.194 . S
N383 C378 1.328 . S
N383 C382 1.315 . S
H384 C378 0.929 1_556 S
H385 C382 0.930 . S
H386 C374 0.929 . S
H387 C376 0.929 . S
O388 Co363 2.351 1_556 S
O388 C391 1.244 . S
O389 Co363 2.155 . S
O389 C391 1.240 1_554 S
O390 Co363 2.096 . S
O390 C371 1.247 . S
C391 O388 1.244 . S
C391 O389 1.240 1_556 S
H392 C366 0.931 . S
H393 C375 0.931 . S
H394 C379 0.929 . S
H395 C381 0.930 1_556 S
Co396 N400 2.148 . S
Co396 N406 2.128 . S
Co396 N416 2.194 . S
Co396 O421 2.351 1_556 S
Co396 O422 2.155 . S
Co396 O423 2.096 . S
C397 N400 1.301 1_554 S
C397 N401 1.328 . S
C397 H402 0.930 . S
C398 C399 1.333 1_556 S
C398 N400 1.317 . S
C398 H403 0.930 . S
C399 C398 1.333 1_554 S
C399 N401 1.350 . S
C399 H425 0.931 . S
N400 Co396 2.148 . S
N400 C397 1.301 1_556 S
N400 C398 1.317 . S
N401 C397 1.328 . S
N401 C399 1.350 . S
H402 C397 0.930 . S
H403 C398 0.930 . S
C404 O405 1.224 . S
C404 O423 1.247 . S
O405 C404 1.224 . S
N406 Co396 2.128 . S
N406 C407 1.355 . S
N406 C409 1.311 . S
C407 N406 1.355 . S
C407 C408 1.363 . S
C407 H419 0.929 . S
C408 C407 1.363 . S
C408 N410 1.375 . S
C408 H426 0.931 . S
C409 N406 1.311 . S
C409 N410 1.347 . S
C409 H420 0.929 . S
N410 C408 1.375 . S
N410 C409 1.347 . S
C411 C414 1.365 . S
C411 N416 1.328 . S
C411 H417 0.929 1_556 S
C412 C413 1.362 . S
C412 C415 1.378 . S
C412 H427 0.929 . S
C413 C412 1.362 . S
C413 C414 1.366 . S
C414 C411 1.365 . S
C414 C413 1.366 . S
C414 H428 0.930 1_556 S
C415 C412 1.378 . S
C415 N416 1.315 . S
C415 H418 0.930 . S
N416 Co396 2.194 . S
N416 C411 1.328 . S
N416 C415 1.315 . S
H417 C411 0.929 1_554 S
H418 C415 0.930 . S
H419 C407 0.929 . S
H420 C409 0.929 . S
O421 Co396 2.351 1_554 S
O421 C424 1.244 . S
O422 Co396 2.155 . S
O422 C424 1.240 1_556 S
O423 Co396 2.096 . S
O423 C404 1.247 . S
C424 O421 1.244 . S
C424 O422 1.240 1_554 S
H425 C399 0.931 . S
H426 C408 0.931 . S
H427 C412 0.929 . S
H428 C414 0.930 1_554 S
Co429 N433 2.148 . S
Co429 N439 2.128 . S
Co429 N449 2.194 . S
Co429 O454 2.351 1_556 S
Co429 O455 2.155 . S
Co429 O456 2.096 . S
C430 N433 1.301 1_554 S
C430 N434 1.328 . S
C430 H435 0.930 . S
C431 C432 1.333 1_556 S
C431 N433 1.317 . S
C431 H436 0.930 . S
C432 C431 1.333 1_554 S
C432 N434 1.350 . S
C432 H458 0.931 . S
N433 Co429 2.148 . S
N433 C430 1.301 1_556 S
N433 C431 1.317 . S
N434 C430 1.328 . S
N434 C432 1.350 . S
H435 C430 0.930 . S
H436 C431 0.930 . S
C437 O438 1.224 . S
C437 O456 1.247 . S
O438 C437 1.224 . S
N439 Co429 2.128 . S
N439 C440 1.355 . S
N439 C442 1.311 . S
C440 N439 1.355 . S
C440 C441 1.363 . S
C440 H452 0.929 . S
C441 C440 1.363 . S
C441 N443 1.375 . S
C441 H459 0.931 . S
C442 N439 1.311 . S
C442 N443 1.347 . S
C442 H453 0.929 . S
N443 C441 1.375 . S
N443 C442 1.347 . S
C444 C447 1.365 . S
C444 N449 1.328 . S
C444 H450 0.929 1_556 S
C445 C446 1.362 . S
C445 C448 1.378 . S
C445 H460 0.929 . S
C446 C445 1.362 . S
C446 C447 1.366 . S
C447 C444 1.365 . S
C447 C446 1.366 . S
C447 H461 0.930 1_556 S
C448 C445 1.378 . S
C448 N449 1.315 . S
C448 H451 0.930 . S
N449 Co429 2.194 . S
N449 C444 1.328 . S
N449 C448 1.315 . S
H450 C444 0.929 1_554 S
H451 C448 0.930 . S
H452 C440 0.929 . S
H453 C442 0.929 . S
O454 Co429 2.351 1_554 S
O454 C457 1.244 . S
O455 Co429 2.155 . S
O455 C457 1.240 1_556 S
O456 Co429 2.096 . S
O456 C437 1.247 . S
C457 O454 1.244 . S
C457 O455 1.240 1_554 S
H458 C432 0.931 . S
H459 C441 0.931 . S
H460 C445 0.929 . S
H461 C447 0.930 1_554 S
Co462 N466 2.148 . S
Co462 N472 2.128 . S
Co462 N482 2.194 . S
Co462 O487 2.351 1_556 S
Co462 O488 2.155 . S
Co462 O489 2.096 . S
C463 N466 1.301 1_554 S
C463 N467 1.328 . S
C463 H468 0.930 . S
C464 C465 1.333 1_556 S
C464 N466 1.317 . S
C464 H469 0.930 . S
C465 C464 1.333 1_554 S
C465 N467 1.350 . S
C465 H491 0.931 . S
N466 Co462 2.148 . S
N466 C463 1.301 1_556 S
N466 C464 1.317 . S
N467 C463 1.328 . S
N467 C465 1.350 . S
H468 C463 0.930 . S
H469 C464 0.930 . S
C470 O471 1.224 . S
C470 O489 1.247 . S
O471 C470 1.224 . S
N472 Co462 2.128 . S
N472 C473 1.355 . S
N472 C475 1.311 . S
C473 N472 1.355 . S
C473 C474 1.363 . S
C473 H485 0.929 . S
C474 C473 1.363 . S
C474 N476 1.375 . S
C474 H492 0.931 . S
C475 N472 1.311 . S
C475 N476 1.347 . S
C475 H486 0.929 . S
N476 C474 1.375 . S
N476 C475 1.347 . S
C477 C480 1.365 . S
C477 N482 1.328 . S
C477 H483 0.929 1_556 S
C478 C479 1.362 . S
C478 C481 1.378 . S
C478 H493 0.929 . S
C479 C478 1.362 . S
C479 C480 1.366 . S
C480 C477 1.365 . S
C480 C479 1.366 . S
C480 H494 0.930 1_556 S
C481 C478 1.378 . S
C481 N482 1.315 . S
C481 H484 0.930 . S
N482 Co462 2.194 . S
N482 C477 1.328 . S
N482 C481 1.315 . S
H483 C477 0.929 1_554 S
H484 C481 0.930 . S
H485 C473 0.929 . S
H486 C475 0.929 . S
O487 Co462 2.351 1_554 S
O487 C490 1.244 . S
O488 Co462 2.155 . S
O488 C490 1.240 1_556 S
O489 Co462 2.096 . S
O489 C470 1.247 . S
C490 O487 1.244 . S
C490 O488 1.240 1_554 S
H491 C465 0.931 . S
H492 C474 0.931 . S
H493 C478 0.929 . S
H494 C480 0.930 1_554 S
Co495 N499 2.148 . S
Co495 N505 2.128 . S
Co495 N515 2.194 . S
Co495 O520 2.351 . S
Co495 O521 2.155 . S
Co495 O522 2.096 . S
C496 N499 1.301 . S
C496 N500 1.328 . S
C496 H501 0.930 . S
C497 C498 1.333 . S
C497 N499 1.317 . S
C497 H502 0.930 . S
C498 C497 1.333 . S
C498 N500 1.350 . S
C498 H524 0.931 . S
N499 Co495 2.148 . S
N499 C496 1.301 . S
N499 C497 1.317 . S
N500 C496 1.328 . S
N500 C498 1.350 . S
H501 C496 0.930 . S
H502 C497 0.930 . S
C503 O504 1.224 . S
C503 O522 1.247 . S
O504 C503 1.224 . S
N505 Co495 2.128 . S
N505 C506 1.355 . S
N505 C508 1.311 . S
C506 N505 1.355 . S
C506 C507 1.363 . S
C506 H518 0.929 . S
C507 C506 1.363 . S
C507 N509 1.375 . S
C507 H525 0.931 . S
C508 N505 1.311 . S
C508 N509 1.347 . S
C508 H519 0.929 . S
N509 C507 1.375 . S
N509 C508 1.347 . S
C510 C513 1.365 . S
C510 N515 1.328 . S
C510 H516 0.929 . S
C511 C512 1.362 . S
C511 C514 1.378 . S
C511 H526 0.929 . S
C512 C511 1.362 . S
C512 C513 1.366 . S
C513 C510 1.365 . S
C513 C512 1.366 . S
C513 H527 0.930 . S
C514 C511 1.378 . S
C514 N515 1.315 . S
C514 H517 0.930 . S
N515 Co495 2.194 . S
N515 C510 1.328 . S
N515 C514 1.315 . S
H516 C510 0.929 . S
H517 C514 0.930 . S
H518 C506 0.929 . S
H519 C508 0.929 . S
O520 Co495 2.351 . S
O520 C523 1.244 . S
O521 Co495 2.155 . S
O521 C523 1.240 . S
O522 Co495 2.096 . S
O522 C503 1.247 . S
C523 O520 1.244 . S
C523 O521 1.240 . S
H524 C498 0.931 . S
H525 C507 0.931 . S
H526 C511 0.929 . S
H527 C513 0.930 . S
Co528 N532 2.148 . S
Co528 N538 2.128 . S
Co528 N548 2.194 . S
Co528 O553 2.351 . S
Co528 O554 2.155 . S
Co528 O555 2.096 . S
C529 N532 1.301 . S
C529 N533 1.328 . S
C529 H534 0.930 . S
C530 C531 1.333 . S
C530 N532 1.317 . S
C530 H535 0.930 . S
C531 C530 1.333 . S
C531 N533 1.350 . S
C531 H557 0.931 . S
N532 Co528 2.148 . S
N532 C529 1.301 . S
N532 C530 1.317 . S
N533 C529 1.328 . S
N533 C531 1.350 . S
H534 C529 0.930 . S
H535 C530 0.930 . S
C536 O537 1.224 . S
C536 O555 1.247 . S
O537 C536 1.224 . S
N538 Co528 2.128 . S
N538 C539 1.355 . S
N538 C541 1.311 . S
C539 N538 1.355 . S
C539 C540 1.363 . S
C539 H551 0.929 . S
C540 C539 1.363 . S
C540 N542 1.375 . S
C540 H558 0.931 . S
C541 N538 1.311 . S
C541 N542 1.347 . S
C541 H552 0.929 . S
N542 C540 1.375 . S
N542 C541 1.347 . S
C543 C546 1.365 . S
C543 N548 1.328 . S
C543 H549 0.929 . S
C544 C545 1.362 . S
C544 C547 1.378 . S
C544 H559 0.929 . S
C545 C544 1.362 . S
C545 C546 1.366 . S
C546 C543 1.365 . S
C546 C545 1.366 . S
C546 H560 0.930 . S
C547 C544 1.378 . S
C547 N548 1.315 . S
C547 H550 0.930 . S
N548 Co528 2.194 . S
N548 C543 1.328 . S
N548 C547 1.315 . S
H549 C543 0.929 . S
H550 C547 0.930 . S
H551 C539 0.929 . S
H552 C541 0.929 . S
O553 Co528 2.351 . S
O553 C556 1.244 . S
O554 Co528 2.155 . S
O554 C556 1.240 . S
O555 Co528 2.096 . S
O555 C536 1.247 . S
C556 O553 1.244 . S
C556 O554 1.240 . S
H557 C531 0.931 . S
H558 C540 0.931 . S
H559 C544 0.929 . S
H560 C546 0.930 . S
Co561 N565 2.148 . S
Co561 N571 2.128 . S
Co561 N581 2.194 . S
Co561 O586 2.351 . S
Co561 O587 2.155 . S
Co561 O588 2.096 . S
C562 N565 1.301 . S
C562 N566 1.328 . S
C562 H567 0.930 . S
C563 C564 1.333 . S
C563 N565 1.317 . S
C563 H568 0.930 . S
C564 C563 1.333 . S
C564 N566 1.350 . S
C564 H590 0.931 . S
N565 Co561 2.148 . S
N565 C562 1.301 . S
N565 C563 1.317 . S
N566 C562 1.328 . S
N566 C564 1.350 . S
H567 C562 0.930 . S
H568 C563 0.930 . S
C569 O570 1.224 . S
C569 O588 1.247 . S
O570 C569 1.224 . S
N571 Co561 2.128 . S
N571 C572 1.355 . S
N571 C574 1.311 . S
C572 N571 1.355 . S
C572 C573 1.363 . S
C572 H584 0.929 . S
C573 C572 1.363 . S
C573 N575 1.375 . S
C573 H591 0.931 . S
C574 N571 1.311 . S
C574 N575 1.347 . S
C574 H585 0.929 . S
N575 C573 1.375 . S
N575 C574 1.347 . S
C576 C579 1.365 . S
C576 N581 1.328 . S
C576 H582 0.929 . S
C577 C578 1.362 . S
C577 C580 1.378 . S
C577 H592 0.929 . S
C578 C577 1.362 . S
C578 C579 1.366 . S
C579 C576 1.365 . S
C579 C578 1.366 . S
C579 H593 0.930 . S
C580 C577 1.378 . S
C580 N581 1.315 . S
C580 H583 0.930 . S
N581 Co561 2.194 . S
N581 C576 1.328 . S
N581 C580 1.315 . S
H582 C576 0.929 . S
H583 C580 0.930 . S
H584 C572 0.929 . S
H585 C574 0.929 . S
O586 Co561 2.351 . S
O586 C589 1.244 . S
O587 Co561 2.155 . S
O587 C589 1.240 . S
O588 Co561 2.096 . S
O588 C569 1.247 . S
C589 O586 1.244 . S
C589 O587 1.240 . S
H590 C564 0.931 . S
H591 C573 0.931 . S
H592 C577 0.929 . S
H593 C579 0.930 . S
H594 C600 0.930 . S
H595 C603 0.930 . S
H596 C604 0.930 . S
H597 C605 0.930 . S
H598 C608 0.930 . S
H599 C609 0.930 . S
C600 H594 0.930 . S
C600 C601 1.355 . S
C600 C602 1.415 . S
C601 C600 1.355 . S
C601 C603 1.419 . S
C602 C600 1.415 . S
C602 C607 1.425 1_556 S
C602 C609 1.409 . S
C603 H595 0.930 . S
C603 C601 1.419 . S
C603 C604 1.362 1_556 S
C604 H596 0.930 . S
C604 C603 1.362 1_554 S
C604 C607 1.409 . S
C605 H597 0.930 . S
C605 C606 1.355 . S
C605 C607 1.415 . S
C606 C605 1.355 . S
C606 C608 1.419 . S
C607 C602 1.425 1_554 S
C607 C604 1.409 . S
C607 C605 1.415 . S
C608 H598 0.930 . S
C608 C606 1.419 . S
C608 C609 1.362 1_554 S
C609 H599 0.930 . S
C609 C602 1.409 . S
C609 C608 1.362 1_556 S
H610 C616 0.930 1_554 S
H611 C619 0.930 . S
H612 C620 0.930 . S
H613 C621 0.930 1_556 S
H614 C624 0.930 . S
H615 C625 0.930 . S
C616 H610 0.930 1_556 S
C616 C617 1.355 . S
C616 C618 1.415 1_556 S
C617 C616 1.355 . S
C617 C619 1.419 . S
C618 C616 1.415 1_554 S
C618 C623 1.425 1_544 S
C618 C625 1.409 . S
C619 H611 0.930 . S
C619 C617 1.419 . S
C619 C620 1.362 1_545 S
C620 H612 0.930 . S
C620 C619 1.362 1_565 S
C620 C623 1.409 . S
C621 H613 0.930 1_554 S
C621 C622 1.355 . S
C621 C623 1.415 1_554 S
C622 C621 1.355 . S
C622 C624 1.419 . S
C623 C618 1.425 1_566 S
C623 C620 1.409 . S
C623 C621 1.415 1_556 S
C624 H614 0.930 . S
C624 C622 1.419 . S
C624 C625 1.362 1_565 S
C625 H615 0.930 . S
C625 C618 1.409 . S
C625 C624 1.362 1_545 S
H626 C632 0.930 . S
H627 C635 0.930 1_556 S
H628 C636 0.930 . S
H629 C637 0.930 . S
H630 C640 0.930 1_554 S
H631 C641 0.930 . S
C632 H626 0.930 . S
C632 C633 1.355 . S
C632 C634 1.415 1_455 S
C633 C632 1.355 . S
C633 C635 1.419 . S
C634 C632 1.415 1_655 S
C634 C639 1.425 1_654 S
C634 C641 1.409 . S
C635 H627 0.930 1_554 S
C635 C633 1.419 . S
C635 C636 1.362 1_554 S
C636 H628 0.930 . S
C636 C635 1.362 1_556 S
C636 C639 1.409 . S
C637 H629 0.930 . S
C637 C638 1.355 . S
C637 C639 1.415 1_655 S
C638 C637 1.355 . S
C638 C640 1.419 . S
C639 C634 1.425 1_456 S
C639 C636 1.409 . S
C639 C637 1.415 1_455 S
C640 H630 0.930 1_556 S
C640 C638 1.419 . S
C640 C641 1.362 1_556 S
C641 H631 0.930 . S
C641 C634 1.409 . S
C641 C640 1.362 1_554 S
H642 C648 0.930 . S
H643 C651 0.930 . S
H644 C652 0.930 . S
H645 C653 0.930 . S
H646 C656 0.930 . S
H647 C657 0.930 . S
C648 H642 0.930 . S
C648 C649 1.355 . S
C648 C650 1.415 1_554 S
C649 C648 1.355 . S
C649 C651 1.419 . S
C650 C648 1.415 1_556 S
C650 C655 1.425 1_556 S
C650 C657 1.409 . S
C651 H643 0.930 . S
C651 C649 1.419 . S
C651 C652 1.362 . S
C652 H644 0.930 . S
C652 C651 1.362 . S
C652 C655 1.409 . S
C653 H645 0.930 . S
C653 C654 1.355 . S
C653 C655 1.415 1_556 S
C654 C653 1.355 . S
C654 C656 1.419 . S
C655 C650 1.425 1_554 S
C655 C652 1.409 . S
C655 C653 1.415 1_554 S
C656 H646 0.930 . S
C656 C654 1.419 . S
C656 C657 1.362 . S
C657 H647 0.930 . S
C657 C650 1.409 . S
C657 C656 1.362 . S
H658 C664 0.916 1_565 S
H659 C667 0.930 . S
H660 C668 0.930 . S
H661 C669 0.916 1_545 S
H662 C672 0.930 . S
H663 C673 0.930 . S
C664 H658 0.916 1_545 S
C664 C665 1.355 . S
C664 C666 1.415 1_545 S
C665 C664 1.355 . S
C665 C667 1.419 . S
C666 C664 1.415 1_565 S
C666 C671 1.425 1_566 S
C666 C673 1.409 . S
C667 H659 0.930 . S
C667 C665 1.419 . S
C667 C668 1.362 1_556 S
C668 H660 0.930 . S
C668 C667 1.362 1_554 S
C668 C671 1.409 . S
C669 H661 0.916 1_565 S
C669 C670 1.355 . S
C669 C671 1.415 1_565 S
C670 C669 1.355 . S
C670 C672 1.419 . S
C671 C666 1.425 1_544 S
C671 C668 1.409 . S
C671 C669 1.415 1_545 S
C672 H662 0.930 . S
C672 C670 1.419 . S
C672 C673 1.362 1_554 S
C673 H663 0.930 . S
C673 C666 1.409 . S
C673 C672 1.362 1_556 S
H674 C680 0.930 . S
H675 C683 0.930 . S
H676 C684 0.936 1_455 S
H677 C685 0.930 . S
H678 C688 0.930 . S
H679 C689 0.936 1_655 S
C680 H674 0.930 . S
C680 C681 1.355 . S
C680 C682 1.415 . S
C681 C680 1.355 . S
C681 C683 1.419 . S
C682 C680 1.415 . S
C682 C687 1.425 1_656 S
C682 C689 1.382 1_656 S
C683 H675 0.930 . S
C683 C681 1.419 . S
C683 C684 1.386 . S
C684 H676 0.936 1_655 S
C684 C683 1.386 . S
C684 C687 1.382 1_656 S
C685 H677 0.930 . S
C685 C686 1.355 . S
C685 C687 1.415 . S
C686 C685 1.355 . S
C686 C688 1.419 . S
C687 C682 1.425 1_454 S
C687 C684 1.382 1_454 S
C687 C685 1.415 . S
C688 H678 0.930 . S
C688 C686 1.419 . S
C688 C689 1.386 . S
C689 H679 0.936 1_455 S
C689 C682 1.382 1_454 S
C689 C688 1.386 . S
H690 C696 0.930 . S
H691 C699 0.930 . S
H692 C700 0.930 . S
H693 C701 0.930 . S
H694 C704 0.930 . S
H695 C705 0.930 . S
C696 H690 0.930 . S
C696 C697 1.355 . S
C696 C698 1.415 . S
C697 C696 1.355 . S
C697 C699 1.419 . S
C698 C696 1.415 . S
C698 C703 1.425 . S
C698 C705 1.409 . S
C699 H691 0.930 . S
C699 C697 1.419 . S
C699 C700 1.362 . S
C700 H692 0.930 . S
C700 C699 1.362 . S
C700 C703 1.409 . S
C701 H693 0.930 . S
C701 C702 1.355 . S
C701 C703 1.415 . S
C702 C701 1.355 . S
C702 C704 1.419 . S
C703 C698 1.425 . S
C703 C700 1.409 . S
C703 C701 1.415 . S
C704 H694 0.930 . S
C704 C702 1.419 . S
C704 C705 1.362 . S
C705 H695 0.930 . S
C705 C698 1.409 . S
C705 C704 1.362 . S
H706 C712 0.930 . S
H707 C715 0.930 . S
H708 C716 0.930 . S
H709 C717 0.930 . S
H710 C720 0.930 . S
H711 C721 0.930 . S
C712 H706 0.930 . S
C712 C713 1.355 . S
C712 C714 1.415 . S
C713 C712 1.355 . S
C713 C715 1.419 . S
C714 C712 1.415 . S
C714 C719 1.425 . S
C714 C721 1.409 . S
C715 H707 0.930 . S
C715 C713 1.419 . S
C715 C716 1.362 . S
C716 H708 0.930 . S
C716 C715 1.362 . S
C716 C719 1.409 . S
C717 H709 0.930 . S
C717 C718 1.355 . S
C717 C719 1.415 . S
C718 C717 1.355 . S
C718 C720 1.419 . S
C719 C714 1.425 . S
C719 C716 1.409 . S
C719 C717 1.415 . S
C720 H710 0.930 . S
C720 C718 1.419 . S
C720 C721 1.362 . S
C721 H711 0.930 . S
C721 C714 1.409 . S
C721 C720 1.362 . S
H722 C728 0.930 . S
H723 C731 0.930 . S
H724 C732 0.930 . S
H725 C733 0.930 . S
H726 C736 0.930 . S
H727 C737 0.930 . S
C728 H722 0.930 . S
C728 C729 1.355 . S
C728 C730 1.415 . S
C729 C728 1.355 . S
C729 C731 1.419 . S
C730 C728 1.415 . S
C730 C735 1.425 . S
C730 C737 1.409 . S
C731 H723 0.930 . S
C731 C729 1.419 . S
C731 C732 1.362 . S
C732 H724 0.930 . S
C732 C731 1.362 . S
C732 C735 1.409 . S
C733 H725 0.930 . S
C733 C734 1.355 . S
C733 C735 1.415 . S
C734 C733 1.355 . S
C734 C736 1.419 . S
C735 C730 1.425 . S
C735 C732 1.409 . S
C735 C733 1.415 . S
C736 H726 0.930 . S
C736 C734 1.419 . S
C736 C737 1.362 . S
C737 H727 0.930 . S
C737 C730 1.409 . S
C737 C736 1.362 . S
H738 C744 0.930 . S
H739 C747 0.930 . S
H740 C748 0.930 . S
H741 C749 0.930 . S
H742 C752 0.930 . S
H743 C753 0.930 . S
C744 H738 0.930 . S
C744 C745 1.355 . S
C744 C746 1.415 . S
C745 C744 1.355 . S
C745 C747 1.419 . S
C746 C744 1.415 . S
C746 C751 1.425 . S
C746 C753 1.409 . S
C747 H739 0.930 . S
C747 C745 1.419 . S
C747 C748 1.362 . S
C748 H740 0.930 . S
C748 C747 1.362 . S
C748 C751 1.409 . S
C749 H741 0.930 . S
C749 C750 1.355 . S
C749 C751 1.415 . S
C750 C749 1.355 . S
C750 C752 1.419 . S
C751 C746 1.425 . S
C751 C748 1.409 . S
C751 C749 1.415 . S
C752 H742 0.930 . S
C752 C750 1.419 . S
C752 C753 1.362 . S
C753 H743 0.930 . S
C753 C746 1.409 . S
C753 C752 1.362 . S
H754 C760 0.930 . S
H755 C763 0.930 . S
H756 C764 0.930 . S
H757 C765 0.930 . S
H758 C768 0.930 . S
H759 C769 0.930 . S
C760 H754 0.930 . S
C760 C761 1.355 . S
C760 C762 1.415 . S
C761 C760 1.355 . S
C761 C763 1.419 . S
C762 C760 1.415 . S
C762 C767 1.425 . S
C762 C769 1.409 . S
C763 H755 0.930 . S
C763 C761 1.419 . S
C763 C764 1.362 . S
C764 H756 0.930 . S
C764 C763 1.362 . S
C764 C767 1.409 . S
C765 H757 0.930 . S
C765 C766 1.355 . S
C765 C767 1.415 . S
C766 C765 1.355 . S
C766 C768 1.419 . S
C767 C762 1.425 . S
C767 C764 1.409 . S
C767 C765 1.415 . S
C768 H758 0.930 . S
C768 C766 1.419 . S
C768 C769 1.362 . S
C769 H759 0.930 . S
C769 C762 1.409 . S
C769 C768 1.362 . S
H770 C776 0.930 . S
H771 C779 0.930 . S
H772 C780 0.930 . S
H773 C781 0.930 . S
H774 C784 0.930 . S
H775 C785 0.930 . S
C776 H770 0.930 . S
C776 C777 1.355 . S
C776 C778 1.415 . S
C777 C776 1.355 . S
C777 C779 1.419 . S
C778 C776 1.415 . S
C778 C783 1.425 . S
C778 C785 1.409 . S
C779 H771 0.930 . S
C779 C777 1.419 . S
C779 C780 1.362 . S
C780 H772 0.930 . S
C780 C779 1.362 . S
C780 C783 1.409 . S
C781 H773 0.930 . S
C781 C782 1.355 . S
C781 C783 1.415 . S
C782 C781 1.355 . S
C782 C784 1.419 . S
C783 C778 1.425 . S
C783 C780 1.409 . S
C783 C781 1.415 . S
C784 H774 0.930 . S
C784 C782 1.419 . S
C784 C785 1.362 . S
C785 H775 0.930 . S
C785 C778 1.409 . S
C785 C784 1.362 . S
H786 C792 0.930 . S
H787 C795 0.930 . S
H788 C796 0.930 . S
H789 C797 0.930 . S
H790 C800 0.930 . S
H791 C801 0.930 . S
C792 H786 0.930 . S
C792 C793 1.355 . S
C792 C794 1.415 . S
C793 C792 1.355 . S
C793 C795 1.419 . S
C794 C792 1.415 . S
C794 C799 1.425 . S
C794 C801 1.409 . S
C795 H787 0.930 . S
C795 C793 1.419 . S
C795 C796 1.362 . S
C796 H788 0.930 . S
C796 C795 1.362 . S
C796 C799 1.409 . S
C797 H789 0.930 . S
C797 C798 1.355 . S
C797 C799 1.415 . S
C798 C797 1.355 . S
C798 C800 1.419 . S
C799 C794 1.425 . S
C799 C796 1.409 . S
C799 C797 1.415 . S
C800 H790 0.930 . S
C800 C798 1.419 . S
C800 C801 1.362 . S
C801 H791 0.930 . S
C801 C794 1.409 . S
C801 C800 1.362 . S
H802 C808 0.930 . S
H803 C811 0.930 . S
H804 C812 0.930 . S
H805 C813 0.930 . S
H806 C816 0.930 . S
H807 C817 0.930 . S
C808 H802 0.930 . S
C808 C809 1.355 . S
C808 C810 1.415 . S
C809 C808 1.355 . S
C809 C811 1.419 . S
C810 C808 1.415 . S
C810 C815 1.425 . S
C810 C817 1.409 . S
C811 H803 0.930 . S
C811 C809 1.419 . S
C811 C812 1.362 . S
C812 H804 0.930 . S
C812 C811 1.362 . S
C812 C815 1.409 . S
C813 H805 0.930 . S
C813 C814 1.355 . S
C813 C815 1.415 . S
C814 C813 1.355 . S
C814 C816 1.419 . S
C815 C810 1.425 . S
C815 C812 1.409 . S
C815 C813 1.415 . S
C816 H806 0.930 . S
C816 C814 1.419 . S
C816 C817 1.362 . S
C817 H807 0.930 . S
C817 C810 1.409 . S
C817 C816 1.362 . S
H818 C824 0.930 . S
H819 C827 0.930 . S
H820 C828 0.930 . S
H821 C829 0.930 . S
H822 C832 0.930 . S
H823 C833 0.930 . S
C824 H818 0.930 . S
C824 C825 1.355 . S
C824 C826 1.415 . S
C825 C824 1.355 . S
C825 C827 1.419 . S
C826 C824 1.415 . S
C826 C831 1.425 . S
C826 C833 1.409 . S
C827 H819 0.930 . S
C827 C825 1.419 . S
C827 C828 1.362 . S
C828 H820 0.930 . S
C828 C827 1.362 . S
C828 C831 1.409 . S
C829 H821 0.930 . S
C829 C830 1.355 . S
C829 C831 1.415 . S
C830 C829 1.355 . S
C830 C832 1.419 . S
C831 C826 1.425 . S
C831 C828 1.409 . S
C831 C829 1.415 . S
C832 H822 0.930 . S
C832 C830 1.419 . S
C832 C833 1.362 . S
C833 H823 0.930 . S
C833 C826 1.409 . S
C833 C832 1.362 . S
H834 C840 0.930 . S
H835 C843 0.930 . S
H836 C844 0.930 . S
H837 C845 0.930 . S
H838 C848 0.930 . S
H839 C849 0.930 . S
C840 H834 0.930 . S
C840 C841 1.355 . S
C840 C842 1.415 . S
C841 C840 1.355 . S
C841 C843 1.419 . S
C842 C840 1.415 . S
C842 C847 1.425 . S
C842 C849 1.409 . S
C843 H835 0.930 . S
C843 C841 1.419 . S
C843 C844 1.362 . S
C844 H836 0.930 . S
C844 C843 1.362 . S
C844 C847 1.409 . S
C845 H837 0.930 . S
C845 C846 1.355 . S
C845 C847 1.415 . S
C846 C845 1.355 . S
C846 C848 1.419 . S
C847 C842 1.425 . S
C847 C844 1.409 . S
C847 C845 1.415 . S
C848 H838 0.930 . S
C848 C846 1.419 . S
C848 C849 1.362 . S
C849 H839 0.930 . S
C849 C842 1.409 . S
C849 C848 1.362 . S
H850 C856 0.930 . S
H851 C859 0.930 . S
H852 C860 0.930 . S
H853 C861 0.930 . S
H854 C864 0.930 . S
H855 C865 0.930 . S
C856 H850 0.930 . S
C856 C857 1.355 . S
C856 C858 1.415 . S
C857 C856 1.355 . S
C857 C859 1.419 . S
C858 C856 1.415 . S
C858 C863 1.425 . S
C858 C865 1.409 . S
C859 H851 0.930 . S
C859 C857 1.419 . S
C859 C860 1.362 . S
C860 H852 0.930 . S
C860 C859 1.362 . S
C860 C863 1.409 . S
C861 H853 0.930 . S
C861 C862 1.355 . S
C861 C863 1.415 . S
C862 C861 1.355 . S
C862 C864 1.419 . S
C863 C858 1.425 . S
C863 C860 1.409 . S
C863 C861 1.415 . S
C864 H854 0.930 . S
C864 C862 1.419 . S
C864 C865 1.362 . S
C865 H855 0.930 . S
C865 C858 1.409 . S
C865 C864 1.362 . S
H866 C872 0.930 . S
H867 C875 0.930 . S
H868 C876 0.930 . S
H869 C877 0.930 . S
H870 C880 0.930 . S
H871 C881 0.930 . S
C872 H866 0.930 . S
C872 C873 1.355 . S
C872 C874 1.415 . S
C873 C872 1.355 . S
C873 C875 1.419 . S
C874 C872 1.415 . S
C874 C879 1.425 . S
C874 C881 1.409 . S
C875 H867 0.930 . S
C875 C873 1.419 . S
C875 C876 1.362 . S
C876 H868 0.930 . S
C876 C875 1.362 . S
C876 C879 1.409 . S
C877 H869 0.930 . S
C877 C878 1.355 . S
C877 C879 1.415 . S
C878 C877 1.355 . S
C878 C880 1.419 . S
C879 C874 1.425 . S
C879 C876 1.409 . S
C879 C877 1.415 . S
C880 H870 0.930 . S
C880 C878 1.419 . S
C880 C881 1.362 . S
C881 H871 0.930 . S
C881 C874 1.409 . S
C881 C880 1.362 . S
H882 C888 0.930 . S
H883 C891 0.930 . S
H884 C892 0.930 . S
H885 C893 0.930 . S
H886 C896 0.930 . S
H887 C897 0.930 . S
C888 H882 0.930 . S
C888 C889 1.355 . S
C888 C890 1.415 . S
C889 C888 1.355 . S
C889 C891 1.419 . S
C890 C888 1.415 . S
C890 C895 1.425 . S
C890 C897 1.409 . S
C891 H883 0.930 . S
C891 C889 1.419 . S
C891 C892 1.362 . S
C892 H884 0.930 . S
C892 C891 1.362 . S
C892 C895 1.409 . S
C893 H885 0.930 . S
C893 C894 1.355 . S
C893 C895 1.415 . S
C894 C893 1.355 . S
C894 C896 1.419 . S
C895 C890 1.425 . S
C895 C892 1.409 . S
C895 C893 1.415 . S
C896 H886 0.930 . S
C896 C894 1.419 . S
C896 C897 1.362 . S
C897 H887 0.930 . S
C897 C890 1.409 . S
C897 C896 1.362 . S
H898 C904 0.930 . S
H899 C907 0.930 . S
H900 C908 0.930 . S
H901 C909 0.930 . S
H902 C912 0.930 . S
H903 C913 0.930 . S
C904 H898 0.930 . S
C904 C905 1.355 . S
C904 C906 1.415 . S
C905 C904 1.355 . S
C905 C907 1.419 . S
C906 C904 1.415 . S
C906 C911 1.425 . S
C906 C913 1.409 . S
C907 H899 0.930 . S
C907 C905 1.419 . S
C907 C908 1.362 . S
C908 H900 0.930 . S
C908 C907 1.362 . S
C908 C911 1.409 . S
C909 H901 0.930 . S
C909 C910 1.355 . S
C909 C911 1.415 . S
C910 C909 1.355 . S
C910 C912 1.419 . S
C911 C906 1.425 . S
C911 C908 1.409 . S
C911 C909 1.415 . S
C912 H902 0.930 . S
C912 C910 1.419 . S
C912 C913 1.362 . S
C913 H903 0.930 . S
C913 C906 1.409 . S
C913 C912 1.362 . S
H914 C920 0.930 . S
H915 C923 0.930 . S
H916 C924 0.930 . S
H917 C925 0.930 . S
H918 C928 0.930 . S
H919 C929 0.930 . S
C920 H914 0.930 . S
C920 C921 1.355 . S
C920 C922 1.415 . S
C921 C920 1.355 . S
C921 C923 1.419 . S
C922 C920 1.415 . S
C922 C927 1.425 . S
C922 C929 1.409 . S
C923 H915 0.930 . S
C923 C921 1.419 . S
C923 C924 1.362 . S
C924 H916 0.930 . S
C924 C923 1.362 . S
C924 C927 1.409 . S
C925 H917 0.930 . S
C925 C926 1.355 . S
C925 C927 1.415 . S
C926 C925 1.355 . S
C926 C928 1.419 . S
C927 C922 1.425 . S
C927 C924 1.409 . S
C927 C925 1.415 . S
C928 H918 0.930 . S
C928 C926 1.419 . S
C928 C929 1.362 . S
C929 H919 0.930 . S
C929 C922 1.409 . S
C929 C928 1.362 . S
H930 C936 0.930 . S
H931 C939 0.930 . S
H932 C940 0.930 . S
H933 C941 0.930 . S
H934 C944 0.930 . S
H935 C945 0.930 . S
C936 H930 0.930 . S
C936 C937 1.355 . S
C936 C938 1.415 . S
C937 C936 1.355 . S
C937 C939 1.419 . S
C938 C936 1.415 . S
C938 C943 1.425 . S
C938 C945 1.409 . S
C939 H931 0.930 . S
C939 C937 1.419 . S
C939 C940 1.362 . S
C940 H932 0.930 . S
C940 C939 1.362 . S
C940 C943 1.409 . S
C941 H933 0.930 . S
C941 C942 1.355 . S
C941 C943 1.415 . S
C942 C941 1.355 . S
C942 C944 1.419 . S
C943 C938 1.425 . S
C943 C940 1.409 . S
C943 C941 1.415 . S
C944 H934 0.930 . S
C944 C942 1.419 . S
C944 C945 1.362 . S
C945 H935 0.930 . S
C945 C938 1.409 . S
C945 C944 1.362 . S
H946 C952 0.930 . S
H947 C955 0.930 . S
H948 C956 0.930 . S
H949 C957 0.930 . S
H950 C960 0.930 . S
H951 C961 0.930 . S
C952 H946 0.930 . S
C952 C953 1.355 . S
C952 C954 1.415 . S
C953 C952 1.355 . S
C953 C955 1.419 . S
C954 C952 1.415 . S
C954 C959 1.425 . S
C954 C961 1.409 . S
C955 H947 0.930 . S
C955 C953 1.419 . S
C955 C956 1.362 . S
C956 H948 0.930 . S
C956 C955 1.362 . S
C956 C959 1.409 . S
C957 H949 0.930 . S
C957 C958 1.355 . S
C957 C959 1.415 . S
C958 C957 1.355 . S
C958 C960 1.419 . S
C959 C954 1.425 . S
C959 C956 1.409 . S
C959 C957 1.415 . S
C960 H950 0.930 . S
C960 C958 1.419 . S
C960 C961 1.362 . S
C961 H951 0.930 . S
C961 C954 1.409 . S
C961 C960 1.362 . S
H962 C968 0.930 . S
H963 C971 0.930 . S
H964 C972 0.930 . S
H965 C973 0.930 . S
H966 C976 0.930 . S
H967 C977 0.930 . S
C968 H962 0.930 . S
C968 C969 1.355 . S
C968 C970 1.415 . S
C969 C968 1.355 . S
C969 C971 1.419 . S
C970 C968 1.415 . S
C970 C975 1.425 . S
C970 C977 1.409 . S
C971 H963 0.930 . S
C971 C969 1.419 . S
C971 C972 1.362 . S
C972 H964 0.930 . S
C972 C971 1.362 . S
C972 C975 1.409 . S
C973 H965 0.930 . S
C973 C974 1.355 . S
C973 C975 1.415 . S
C974 C973 1.355 . S
C974 C976 1.419 . S
C975 C970 1.425 . S
C975 C972 1.409 . S
C975 C973 1.415 . S
C976 H966 0.930 . S
C976 C974 1.419 . S
C976 C977 1.362 . S
C977 H967 0.930 . S
C977 C970 1.409 . S
C977 C976 1.362 . S
H978 C984 0.930 . S
H979 C987 0.930 . S
H980 C988 0.930 . S
H981 C989 0.930 . S
H982 C992 0.930 . S
H983 C993 0.930 . S
C984 H978 0.930 . S
C984 C985 1.355 . S
C984 C986 1.415 . S
C985 C984 1.355 . S
C985 C987 1.419 . S
C986 C984 1.415 . S
C986 C991 1.425 1_456 S
C986 C993 1.409 1_455 S
C987 H979 0.930 . S
C987 C985 1.419 . S
C987 C988 1.362 1_556 S
C988 H980 0.930 . S
C988 C987 1.362 1_554 S
C988 C991 1.409 1_455 S
C989 H981 0.930 . S
C989 C990 1.355 . S
C989 C991 1.415 . S
C990 C989 1.355 . S
C990 C992 1.419 . S
C991 C986 1.425 1_654 S
C991 C988 1.409 1_655 S
C991 C989 1.415 . S
C992 H982 0.930 . S
C992 C990 1.419 . S
C992 C993 1.362 1_554 S
C993 H983 0.930 . S
C993 C986 1.409 1_655 S
C993 C992 1.362 1_556 S
H994 C1000 0.930 . S
H995 C1003 0.930 . S
H996 C1004 0.930 . S
H997 C1005 0.930 . S
H998 C1008 0.930 . S
H999 C1009 0.930 . S
C1000 H994 0.930 . S
C1000 C1001 1.355 1_554 S
C1000 C1002 1.415 . S
C1001 C1000 1.355 1_556 S
C1001 C1003 1.419 . S
C1002 C1000 1.415 . S
C1002 C1007 1.425 1_554 S
C1002 C1009 1.409 . S
C1003 H995 0.930 . S
C1003 C1001 1.419 . S
C1003 C1004 1.362 . S
C1004 H996 0.930 . S
C1004 C1003 1.362 . S
C1004 C1007 1.409 . S
C1005 H997 0.930 . S
C1005 C1006 1.355 1_556 S
C1005 C1007 1.415 . S
C1006 C1005 1.355 1_554 S
C1006 C1008 1.419 . S
C1007 C1002 1.425 1_556 S
C1007 C1004 1.409 . S
C1007 C1005 1.415 . S
C1008 H998 0.930 . S
C1008 C1006 1.419 . S
C1008 C1009 1.362 . S
C1009 H999 0.930 . S
C1009 C1002 1.409 . S
C1009 C1008 1.362 . S
H1010 C1016 0.930 . S
H1011 C1019 0.932 . S
H1012 C1020 0.930 . S
H1013 C1021 0.930 . S
H1014 C1024 0.932 . S
H1015 C1025 0.930 . S
C1016 H1010 0.930 . S
C1016 C1017 1.355 . S
C1016 C1018 1.415 . S
C1017 C1016 1.355 . S
C1017 C1019 1.411 1_554 S
C1018 C1016 1.415 . S
C1018 C1023 1.425 1_544 S
C1018 C1025 1.409 1_545 S
C1019 H1011 0.932 . S
C1019 C1017 1.411 1_556 S
C1019 C1020 1.368 . S
C1020 H1012 0.930 . S
C1020 C1019 1.368 . S
C1020 C1023 1.409 1_545 S
C1021 H1013 0.930 . S
C1021 C1022 1.355 . S
C1021 C1023 1.415 . S
C1022 C1021 1.355 . S
C1022 C1024 1.411 1_556 S
C1023 C1018 1.425 1_566 S
C1023 C1020 1.409 1_565 S
C1023 C1021 1.415 . S
C1024 H1014 0.932 . S
C1024 C1022 1.411 1_554 S
C1024 C1025 1.368 . S
C1025 H1015 0.930 . S
C1025 C1018 1.409 1_565 S
C1025 C1024 1.368 . S
H1026 C1032 0.930 . S
H1027 C1035 0.930 . S
H1028 C1036 0.930 . S
H1029 C1037 0.930 . S
H1030 C1040 0.930 . S
H1031 C1041 0.930 . S
C1032 H1026 0.930 . S
C1032 C1033 1.355 . S
C1032 C1034 1.415 . S
C1033 C1032 1.355 . S
C1033 C1035 1.419 . S
C1034 C1032 1.415 . S
C1034 C1039 1.425 . S
C1034 C1041 1.409 . S
C1035 H1027 0.930 . S
C1035 C1033 1.419 . S
C1035 C1036 1.362 . S
C1036 H1028 0.930 . S
C1036 C1035 1.362 . S
C1036 C1039 1.409 . S
C1037 H1029 0.930 . S
C1037 C1038 1.355 . S
C1037 C1039 1.415 . S
C1038 C1037 1.355 . S
C1038 C1040 1.419 . S
C1039 C1034 1.425 . S
C1039 C1036 1.409 . S
C1039 C1037 1.415 . S
C1040 H1030 0.930 . S
C1040 C1038 1.419 . S
C1040 C1041 1.362 . S
C1041 H1031 0.930 . S
C1041 C1034 1.409 . S
C1041 C1040 1.362 . S
H1042 C1048 0.930 . S
H1043 C1051 0.925 1_565 S
H1044 C1052 0.930 . S
H1045 C1053 0.930 . S
H1046 C1056 0.925 1_545 S
H1047 C1057 0.930 . S
C1048 H1042 0.930 . S
C1048 C1049 1.355 . S
C1048 C1050 1.415 . S
C1049 C1048 1.355 . S
C1049 C1051 1.419 . S
C1050 C1048 1.415 . S
C1050 C1055 1.425 1_545 S
C1050 C1057 1.409 . S
C1051 H1043 0.925 1_545 S
C1051 C1049 1.419 . S
C1051 C1052 1.362 1_545 S
C1052 H1044 0.930 . S
C1052 C1051 1.362 1_565 S
C1052 C1055 1.409 . S
C1053 H1045 0.930 . S
C1053 C1054 1.355 . S
C1053 C1055 1.415 . S
C1054 C1053 1.355 . S
C1054 C1056 1.419 . S
C1055 C1050 1.425 1_565 S
C1055 C1052 1.409 . S
C1055 C1053 1.415 . S
C1056 H1046 0.925 1_565 S
C1056 C1054 1.419 . S
C1056 C1057 1.362 1_565 S
C1057 H1047 0.930 . S
C1057 C1050 1.409 . S
C1057 C1056 1.362 1_545 S
H1058 C1064 0.930 . S
H1059 C1067 0.930 . S
H1060 C1068 0.930 . S
H1061 C1069 0.930 . S
H1062 C1072 0.930 . S
H1063 C1073 0.930 . S
C1064 H1058 0.930 . S
C1064 C1065 1.355 . S
C1064 C1066 1.415 . S
C1065 C1064 1.355 . S
C1065 C1067 1.419 . S
C1066 C1064 1.415 . S
C1066 C1071 1.425 1_455 S
C1066 C1073 1.409 . S
C1067 H1059 0.930 . S
C1067 C1065 1.419 . S
C1067 C1068 1.362 1_455 S
C1068 H1060 0.930 . S
C1068 C1067 1.362 1_655 S
C1068 C1071 1.409 . S
C1069 H1061 0.930 . S
C1069 C1070 1.355 . S
C1069 C1071 1.415 . S
C1070 C1069 1.355 . S
C1070 C1072 1.419 . S
C1071 C1066 1.425 1_655 S
C1071 C1068 1.409 . S
C1071 C1069 1.415 . S
C1072 H1062 0.930 . S
C1072 C1070 1.419 . S
C1072 C1073 1.362 1_655 S
C1073 H1063 0.930 . S
C1073 C1066 1.409 . S
C1073 C1072 1.362 1_455 S
H1074 C1080 0.930 . S
H1075 C1083 0.930 . S
H1076 C1084 0.930 . S
H1077 C1085 0.930 . S
H1078 C1088 0.930 . S
H1079 C1089 0.930 . S
C1080 H1074 0.930 . S
C1080 C1081 1.355 . S
C1080 C1082 1.415 . S
C1081 C1080 1.355 . S
C1081 C1083 1.419 . S
C1082 C1080 1.415 . S
C1082 C1087 1.425 . S
C1082 C1089 1.409 . S
C1083 H1075 0.930 . S
C1083 C1081 1.419 . S
C1083 C1084 1.362 . S
C1084 H1076 0.930 . S
C1084 C1083 1.362 . S
C1084 C1087 1.409 . S
C1085 H1077 0.930 . S
C1085 C1086 1.355 . S
C1085 C1087 1.415 . S
C1086 C1085 1.355 . S
C1086 C1088 1.419 . S
C1087 C1082 1.425 . S
C1087 C1084 1.409 . S
C1087 C1085 1.415 . S
C1088 H1078 0.930 . S
C1088 C1086 1.419 . S
C1088 C1089 1.362 . S
C1089 H1079 0.930 . S
C1089 C1082 1.409 . S
C1089 C1088 1.362 . S
H1090 C1096 0.930 . S
H1091 C1099 0.930 . S
H1092 C1100 0.930 . S
H1093 C1101 0.930 . S
H1094 C1104 0.930 . S
H1095 C1105 0.930 . S
C1096 H1090 0.930 . S
C1096 C1097 1.355 . S
C1096 C1098 1.415 1_565 S
C1097 C1096 1.355 . S
C1097 C1099 1.419 . S
C1098 C1096 1.415 1_545 S
C1098 C1103 1.425 1_545 S
C1098 C1105 1.409 . S
C1099 H1091 0.930 . S
C1099 C1097 1.419 . S
C1099 C1100 1.362 . S
C1100 H1092 0.930 . S
C1100 C1099 1.362 . S
C1100 C1103 1.409 . S
C1101 H1093 0.930 . S
C1101 C1102 1.355 . S
C1101 C1103 1.415 1_545 S
C1102 C1101 1.355 . S
C1102 C1104 1.419 . S
C1103 C1098 1.425 1_565 S
C1103 C1100 1.409 . S
C1103 C1101 1.415 1_565 S
C1104 H1094 0.930 . S
C1104 C1102 1.419 . S
C1104 C1105 1.362 . S
C1105 H1095 0.930 . S
C1105 C1098 1.409 . S
C1105 C1104 1.362 . S
H1106 C1112 0.930 . S
H1107 C1115 0.930 . S
H1108 C1116 0.930 . S
H1109 C1117 0.930 . S
H1110 C1120 0.930 . S
H1111 C1121 0.930 . S
C1112 H1106 0.930 . S
C1112 C1113 1.355 . S
C1112 C1114 1.415 . S
C1113 C1112 1.355 . S
C1113 C1115 1.419 . S
C1114 C1112 1.415 . S
C1114 C1119 1.425 1_655 S
C1114 C1121 1.409 1_655 S
C1115 H1107 0.930 . S
C1115 C1113 1.419 . S
C1115 C1116 1.362 . S
C1116 H1108 0.930 . S
C1116 C1115 1.362 . S
C1116 C1119 1.409 1_655 S
C1117 H1109 0.930 . S
C1117 C1118 1.355 . S
C1117 C1119 1.415 . S
C1118 C1117 1.355 . S
C1118 C1120 1.419 . S
C1119 C1114 1.425 1_455 S
C1119 C1116 1.409 1_455 S
C1119 C1117 1.415 . S
C1120 H1110 0.930 . S
C1120 C1118 1.419 . S
C1120 C1121 1.362 . S
C1121 H1111 0.930 . S
C1121 C1114 1.409 1_455 S
C1121 C1120 1.362 . S
H1122 C1128 0.930 . S
H1123 C1131 0.930 . S
H1124 C1132 0.930 . S
H1125 C1133 0.930 . S
H1126 C1136 0.930 . S
H1127 C1137 0.930 . S
C1128 H1122 0.930 . S
C1128 C1129 1.355 . S
C1128 C1130 1.415 . S
C1129 C1128 1.355 . S
C1129 C1131 1.419 . S
C1130 C1128 1.415 . S
C1130 C1135 1.425 . S
C1130 C1137 1.409 . S
C1131 H1123 0.930 . S
C1131 C1129 1.419 . S
C1131 C1132 1.362 . S
C1132 H1124 0.930 . S
C1132 C1131 1.362 . S
C1132 C1135 1.409 . S
C1133 H1125 0.930 . S
C1133 C1134 1.355 . S
C1133 C1135 1.415 . S
C1134 C1133 1.355 . S
C1134 C1136 1.419 . S
C1135 C1130 1.425 . S
C1135 C1132 1.409 . S
C1135 C1133 1.415 . S
C1136 H1126 0.930 . S
C1136 C1134 1.419 . S
C1136 C1137 1.362 . S
C1137 H1127 0.930 . S
C1137 C1130 1.409 . S
C1137 C1136 1.362 . S
H1138 C1144 0.930 . S
H1139 C1147 0.930 . S
H1140 C1148 0.930 . S
H1141 C1149 0.930 . S
H1142 C1152 0.930 . S
H1143 C1153 0.930 . S
C1144 H1138 0.930 . S
C1144 C1145 1.355 . S
C1144 C1146 1.415 . S
C1145 C1144 1.355 . S
C1145 C1147 1.419 . S
C1146 C1144 1.415 . S
C1146 C1151 1.425 . S
C1146 C1153 1.409 . S
C1147 H1139 0.930 . S
C1147 C1145 1.419 . S
C1147 C1148 1.362 . S
C1148 H1140 0.930 . S
C1148 C1147 1.362 . S
C1148 C1151 1.409 . S
C1149 H1141 0.930 . S
C1149 C1150 1.355 . S
C1149 C1151 1.415 . S
C1150 C1149 1.355 . S
C1150 C1152 1.419 . S
C1151 C1146 1.425 . S
C1151 C1148 1.409 . S
C1151 C1149 1.415 . S
C1152 H1142 0.930 . S
C1152 C1150 1.419 . S
C1152 C1153 1.362 . S
C1153 H1143 0.930 . S
C1153 C1146 1.409 . S
C1153 C1152 1.362 . S
H1154 C1160 0.930 . S
H1155 C1163 0.930 . S
H1156 C1164 0.930 . S
H1157 C1165 0.930 . S
H1158 C1168 0.930 . S
H1159 C1169 0.930 . S
C1160 H1154 0.930 . S
C1160 C1161 1.355 . S
C1160 C1162 1.415 . S
C1161 C1160 1.355 . S
C1161 C1163 1.419 . S
C1162 C1160 1.415 . S
C1162 C1167 1.425 . S
C1162 C1169 1.409 . S
C1163 H1155 0.930 . S
C1163 C1161 1.419 . S
C1163 C1164 1.362 . S
C1164 H1156 0.930 . S
C1164 C1163 1.362 . S
C1164 C1167 1.409 . S
C1165 H1157 0.930 . S
C1165 C1166 1.355 . S
C1165 C1167 1.415 . S
C1166 C1165 1.355 . S
C1166 C1168 1.419 . S
C1167 C1162 1.425 . S
C1167 C1164 1.409 . S
C1167 C1165 1.415 . S
C1168 H1158 0.930 . S
C1168 C1166 1.419 . S
C1168 C1169 1.362 . S
C1169 H1159 0.930 . S
C1169 C1162 1.409 . S
C1169 C1168 1.362 . S
H1170 C1176 0.930 . S
H1171 C1179 0.930 . S
H1172 C1180 0.930 . S
H1173 C1181 0.930 . S
H1174 C1184 0.930 . S
H1175 C1185 0.930 . S
C1176 H1170 0.930 . S
C1176 C1177 1.355 . S
C1176 C1178 1.415 . S
C1177 C1176 1.355 . S
C1177 C1179 1.419 . S
C1178 C1176 1.415 . S
C1178 C1183 1.425 . S
C1178 C1185 1.409 . S
C1179 H1171 0.930 . S
C1179 C1177 1.419 . S
C1179 C1180 1.362 . S
C1180 H1172 0.930 . S
C1180 C1179 1.362 . S
C1180 C1183 1.409 . S
C1181 H1173 0.930 . S
C1181 C1182 1.355 . S
C1181 C1183 1.415 . S
C1182 C1181 1.355 . S
C1182 C1184 1.419 . S
C1183 C1178 1.425 . S
C1183 C1180 1.409 . S
C1183 C1181 1.415 . S
C1184 H1174 0.930 . S
C1184 C1182 1.419 . S
C1184 C1185 1.362 . S
C1185 H1175 0.930 . S
C1185 C1178 1.409 . S
C1185 C1184 1.362 . S
H1186 C1192 0.930 . S
H1187 C1195 0.930 . S
H1188 C1196 0.930 . S
H1189 C1197 0.930 . S
H1190 C1200 0.930 . S
H1191 C1201 0.930 . S
C1192 H1186 0.930 . S
C1192 C1193 1.355 . S
C1192 C1194 1.415 . S
C1193 C1192 1.355 . S
C1193 C1195 1.419 . S
C1194 C1192 1.415 . S
C1194 C1199 1.425 . S
C1194 C1201 1.409 . S
C1195 H1187 0.930 . S
C1195 C1193 1.419 . S
C1195 C1196 1.362 . S
C1196 H1188 0.930 . S
C1196 C1195 1.362 . S
C1196 C1199 1.409 . S
C1197 H1189 0.930 . S
C1197 C1198 1.355 . S
C1197 C1199 1.415 . S
C1198 C1197 1.355 . S
C1198 C1200 1.419 . S
C1199 C1194 1.425 . S
C1199 C1196 1.409 . S
C1199 C1197 1.415 . S
C1200 H1190 0.930 . S
C1200 C1198 1.419 . S
C1200 C1201 1.362 . S
C1201 H1191 0.930 . S
C1201 C1194 1.409 . S
C1201 C1200 1.362 . S
H1202 C1208 0.930 . S
H1203 C1211 0.930 . S
H1204 C1212 0.930 . S
H1205 C1213 0.930 . S
H1206 C1216 0.930 . S
H1207 C1217 0.930 . S
C1208 H1202 0.930 . S
C1208 C1209 1.355 . S
C1208 C1210 1.415 . S
C1209 C1208 1.355 . S
C1209 C1211 1.419 . S
C1210 C1208 1.415 . S
C1210 C1215 1.425 . S
C1210 C1217 1.409 . S
C1211 H1203 0.930 . S
C1211 C1209 1.419 . S
C1211 C1212 1.362 . S
C1212 H1204 0.930 . S
C1212 C1211 1.362 . S
C1212 C1215 1.409 . S
C1213 H1205 0.930 . S
C1213 C1214 1.355 . S
C1213 C1215 1.415 . S
C1214 C1213 1.355 . S
C1214 C1216 1.419 . S
C1215 C1210 1.425 . S
C1215 C1212 1.409 . S
C1215 C1213 1.415 . S
C1216 H1206 0.930 . S
C1216 C1214 1.419 . S
C1216 C1217 1.362 . S
C1217 H1207 0.930 . S
C1217 C1210 1.409 . S
C1217 C1216 1.362 . S
H1218 C1224 0.930 . S
H1219 C1227 0.930 . S
H1220 C1228 0.930 . S
H1221 C1229 0.930 . S
H1222 C1232 0.930 . S
H1223 C1233 0.930 . S
C1224 H1218 0.930 . S
C1224 C1225 1.355 . S
C1224 C1226 1.415 . S
C1225 C1224 1.355 . S
C1225 C1227 1.419 . S
C1226 C1224 1.415 . S
C1226 C1231 1.425 . S
C1226 C1233 1.409 . S
C1227 H1219 0.930 . S
C1227 C1225 1.419 . S
C1227 C1228 1.362 . S
C1228 H1220 0.930 . S
C1228 C1227 1.362 . S
C1228 C1231 1.409 . S
C1229 H1221 0.930 . S
C1229 C1230 1.355 . S
C1229 C1231 1.415 . S
C1230 C1229 1.355 . S
C1230 C1232 1.419 . S
C1231 C1226 1.425 . S
C1231 C1228 1.409 . S
C1231 C1229 1.415 . S
C1232 H1222 0.930 . S
C1232 C1230 1.419 . S
C1232 C1233 1.362 . S
C1233 H1223 0.930 . S
C1233 C1226 1.409 . S
C1233 C1232 1.362 . S
H1234 C1240 0.930 . S
H1235 C1243 0.930 . S
H1236 C1244 0.930 . S
H1237 C1245 0.930 . S
H1238 C1248 0.930 . S
H1239 C1249 0.930 . S
C1240 H1234 0.930 . S
C1240 C1241 1.355 . S
C1240 C1242 1.415 . S
C1241 C1240 1.355 . S
C1241 C1243 1.419 . S
C1242 C1240 1.415 . S
C1242 C1247 1.425 . S
C1242 C1249 1.409 . S
C1243 H1235 0.930 . S
C1243 C1241 1.419 . S
C1243 C1244 1.362 . S
C1244 H1236 0.930 . S
C1244 C1243 1.362 . S
C1244 C1247 1.409 . S
C1245 H1237 0.930 . S
C1245 C1246 1.355 . S
C1245 C1247 1.415 . S
C1246 C1245 1.355 . S
C1246 C1248 1.419 . S
C1247 C1242 1.425 . S
C1247 C1244 1.409 . S
C1247 C1245 1.415 . S
C1248 H1238 0.930 . S
C1248 C1246 1.419 . S
C1248 C1249 1.362 . S
C1249 H1239 0.930 . S
C1249 C1242 1.409 . S
C1249 C1248 1.362 . S
H1250 C1256 0.930 . S
H1251 C1259 0.930 . S
H1252 C1260 0.930 . S
H1253 C1261 0.930 . S
H1254 C1264 0.930 . S
H1255 C1265 0.930 . S
C1256 H1250 0.930 . S
C1256 C1257 1.355 . S
C1256 C1258 1.415 . S
C1257 C1256 1.355 . S
C1257 C1259 1.419 . S
C1258 C1256 1.415 . S
C1258 C1263 1.425 . S
C1258 C1265 1.409 . S
C1259 H1251 0.930 . S
C1259 C1257 1.419 . S
C1259 C1260 1.362 . S
C1260 H1252 0.930 . S
C1260 C1259 1.362 . S
C1260 C1263 1.409 . S
C1261 H1253 0.930 . S
C1261 C1262 1.355 . S
C1261 C1263 1.415 . S
C1262 C1261 1.355 . S
C1262 C1264 1.419 . S
C1263 C1258 1.425 . S
C1263 C1260 1.409 . S
C1263 C1261 1.415 . S
C1264 H1254 0.930 . S
C1264 C1262 1.419 . S
C1264 C1265 1.362 . S
C1265 H1255 0.930 . S
C1265 C1258 1.409 . S
C1265 C1264 1.362 . S
H1266 C1272 0.930 . S
H1267 C1275 0.930 . S
H1268 C1276 0.930 . S
H1269 C1277 0.930 . S
H1270 C1280 0.930 . S
H1271 C1281 0.930 . S
C1272 H1266 0.930 . S
C1272 C1273 1.355 . S
C1272 C1274 1.415 . S
C1273 C1272 1.355 . S
C1273 C1275 1.419 . S
C1274 C1272 1.415 . S
C1274 C1279 1.425 . S
C1274 C1281 1.409 . S
C1275 H1267 0.930 . S
C1275 C1273 1.419 . S
C1275 C1276 1.362 . S
C1276 H1268 0.930 . S
C1276 C1275 1.362 . S
C1276 C1279 1.409 . S
C1277 H1269 0.930 . S
C1277 C1278 1.355 . S
C1277 C1279 1.415 . S
C1278 C1277 1.355 . S
C1278 C1280 1.419 . S
C1279 C1274 1.425 . S
C1279 C1276 1.409 . S
C1279 C1277 1.415 . S
C1280 H1270 0.930 . S
C1280 C1278 1.419 . S
C1280 C1281 1.362 . S
C1281 H1271 0.930 . S
C1281 C1274 1.409 . S
C1281 C1280 1.362 . S
H1282 C1288 0.930 . S
H1283 C1291 0.930 . S
H1284 C1292 0.930 . S
H1285 C1293 0.930 . S
H1286 C1296 0.930 . S
H1287 C1297 0.930 . S
C1288 H1282 0.930 . S
C1288 C1289 1.355 . S
C1288 C1290 1.415 . S
C1289 C1288 1.355 . S
C1289 C1291 1.419 . S
C1290 C1288 1.415 . S
C1290 C1295 1.425 . S
C1290 C1297 1.409 . S
C1291 H1283 0.930 . S
C1291 C1289 1.419 . S
C1291 C1292 1.362 . S
C1292 H1284 0.930 . S
C1292 C1291 1.362 . S
C1292 C1295 1.409 . S
C1293 H1285 0.930 . S
C1293 C1294 1.355 . S
C1293 C1295 1.415 . S
C1294 C1293 1.355 . S
C1294 C1296 1.419 . S
C1295 C1290 1.425 . S
C1295 C1292 1.409 . S
C1295 C1293 1.415 . S
C1296 H1286 0.930 . S
C1296 C1294 1.419 . S
C1296 C1297 1.362 . S
C1297 H1287 0.930 . S
C1297 C1290 1.409 . S
C1297 C1296 1.362 . S
H1298 C1304 0.930 . S
H1299 C1307 0.930 . S
H1300 C1308 0.930 . S
H1301 C1309 0.930 . S
H1302 C1312 0.930 . S
H1303 C1313 0.930 . S
C1304 H1298 0.930 . S
C1304 C1305 1.355 . S
C1304 C1306 1.415 . S
C1305 C1304 1.355 . S
C1305 C1307 1.419 . S
C1306 C1304 1.415 . S
C1306 C1311 1.425 . S
C1306 C1313 1.409 . S
C1307 H1299 0.930 . S
C1307 C1305 1.419 . S
C1307 C1308 1.362 . S
C1308 H1300 0.930 . S
C1308 C1307 1.362 . S
C1308 C1311 1.409 . S
C1309 H1301 0.930 . S
C1309 C1310 1.355 . S
C1309 C1311 1.415 . S
C1310 C1309 1.355 . S
C1310 C1312 1.419 . S
C1311 C1306 1.425 . S
C1311 C1308 1.409 . S
C1311 C1309 1.415 . S
C1312 H1302 0.930 . S
C1312 C1310 1.419 . S
C1312 C1313 1.362 . S
C1313 H1303 0.930 . S
C1313 C1306 1.409 . S
C1313 C1312 1.362 . S
C601 N113 1.232 . S
C606 N14 1.232 . S
C617 N146 1.160 . S
C622 N47 1.160 . S
C633 N80 1.234 . S
C638 N179 1.234 . S
C649 C41 2.233 . S
C654 C173 2.230 . S
C665 C107 2.228 . S
C670 C74 2.217 . S
C681 C140 2.219 . S
C686 C8 2.233 . S
C697 N212 1.178 . S
C702 N311 1.178 . S
C713 N344 1.153 . S
C718 N245 1.153 . S
C729 N278 1.240 . S
C734 N377 1.240 . S
C745 C371 2.232 . S
C750 C239 2.218 . S
C761 C305 2.228 . S
C766 C272 2.234 . S
C777 C338 2.235 . S
C782 C206 2.225 . S
C793 N509 1.199 . S
C798 N410 1.198 . S
C809 N443 1.239 . S
C814 N542 1.238 . S
C825 N575 1.241 . S
C830 N476 1.241 . S
C841 C437 2.235 . S
C846 C569 2.224 . S
C857 C503 2.231 . S
C862 C470 2.233 . S
C873 C404 2.228 . S
C878 C536 2.217 . S
C889 C578 1.467 . S
C894 C17 1.471 . S
C905 C50 1.506 . S
C910 C512 1.502 . S
C921 C545 1.469 . S
C926 C83 1.465 . S
C937 C248 1.461 . S
C942 C116 1.462 . S
C953 C149 1.460 . S
C958 C281 1.461 . S
C969 C182 1.464 . S
C974 C215 1.467 . S
C985 C446 1.467 . S
C990 C314 1.472 . S
C1001 C479 1.511 . S
C1006 C347 1.514 . S
C1017 C380 1.483 . S
C1022 C413 1.477 . S
C1033 C28 2.003 . S
C1038 C127 1.987 . S
C1049 C160 2.000 . S
C1054 C61 2.004 . S
C1065 C94 2.005 . S
C1070 C193 1.999 . S
C1081 N170 0.676 . S
C1086 N38 0.748 . S
C1097 N71 0.771 . S
C1102 N104 0.708 . S
C1113 N137 0.707 . S
C1118 N5 0.770 . S
C1129 C226 2.002 . S
C1134 C325 2.002 . S
C1145 C358 1.988 . S
C1150 C259 2.004 . S
C1161 C391 1.989 . S
C1166 C292 1.992 . S
C1177 N368 0.739 . S
C1182 N236 0.787 . S
C1193 N302 0.755 . S
C1198 N269 0.792 . S
C1209 N335 0.734 . S
C1214 N203 0.659 . S
C1225 C523 2.006 . S
C1230 C424 1.992 . S
C1241 C556 2.002 . S
C1246 C457 1.987 . S
C1257 C589 2.006 . S
C1262 C490 1.990 . S
C1273 N566 0.782 . S
C1278 N434 0.728 . S
C1289 N500 0.676 . S
C1294 N467 0.610 . S
C1305 N533 0.709 . S
C1310 N401 0.771 . S
