# Generated by pormake.
# Topology wgp, (5)-cn, num edge types: 1
# Building blocks:
#     Node 0, Type 0, BuildingBlock: XOMCOT_clean_sbu_1, # of connection points: 5
#     Node 1, Type 0, BuildingBlock: XOMCOT_clean_sbu_1, # of connection points: 5
#     Node 2, Type 0, BuildingBlock: XOMCOT_clean_sbu_1, # of connection points: 5
#     Node 3, Type 0, BuildingBlock: XOMCOT_clean_sbu_1, # of connection points: 5
#     Node 4, Type 0, BuildingBlock: XOMCOT_clean_sbu_1, # of connection points: 5
#     Node 5, Type 0, BuildingBlock: XOMCOT_clean_sbu_1, # of connection points: 5
#     Node 6, Type 0, BuildingBlock: XOMCOT_clean_sbu_1, # of connection points: 5
#     Node 7, Type 0, BuildingBlock: XOMCOT_clean_sbu_1, # of connection points: 5
#     Node 8, Type 0, BuildingBlock: XOMCOT_clean_sbu_1, # of connection points: 5
#     Node 9, Type 0, BuildingBlock: XOMCOT_clean_sbu_1, # of connection points: 5
#     Node 10, Type 0, BuildingBlock: XOMCOT_clean_sbu_1, # of connection points: 5
#     Node 11, Type 0, BuildingBlock: XOMCOT_clean_sbu_1, # of connection points: 5
#     Node 12, Type 0, BuildingBlock: XOMCOT_clean_sbu_1, # of connection points: 5
#     Node 13, Type 0, BuildingBlock: XOMCOT_clean_sbu_1, # of connection points: 5
#     Node 14, Type 0, BuildingBlock: XOMCOT_clean_sbu_1, # of connection points: 5
#     Node 15, Type 0, BuildingBlock: XOMCOT_clean_sbu_1, # of connection points: 5
#     Node 16, Type 0, BuildingBlock: XOMCOT_clean_sbu_1, # of connection points: 5
#     Node 17, Type 0, BuildingBlock: XOMCOT_clean_sbu_1, # of connection points: 5
#     Node 18, Type 0, BuildingBlock: XOMCOT_clean_sbu_1, # of connection points: 5
#     Node 19, Type 0, BuildingBlock: XOMCOT_clean_sbu_1, # of connection points: 5
#     Node 20, Type 0, BuildingBlock: XOMCOT_clean_sbu_1, # of connection points: 5
#     Node 21, Type 0, BuildingBlock: XOMCOT_clean_sbu_1, # of connection points: 5
#     Node 22, Type 0, BuildingBlock: XOMCOT_clean_sbu_1, # of connection points: 5
#     Node 23, Type 0, BuildingBlock: XOMCOT_clean_sbu_1, # of connection points: 5
#     Node 24, Type 0, BuildingBlock: XOMCOT_clean_sbu_1, # of connection points: 5
#     Node 25, Type 0, BuildingBlock: XOMCOT_clean_sbu_1, # of connection points: 5
#     Node 26, Type 0, BuildingBlock: XOMCOT_clean_sbu_1, # of connection points: 5
#     Node 27, Type 0, BuildingBlock: XOMCOT_clean_sbu_1, # of connection points: 5
#     Node 28, Type 0, BuildingBlock: XOMCOT_clean_sbu_1, # of connection points: 5
#     Node 29, Type 0, BuildingBlock: XOMCOT_clean_sbu_1, # of connection points: 5
#     Node 30, Type 0, BuildingBlock: XOMCOT_clean_sbu_1, # of connection points: 5
#     Node 31, Type 0, BuildingBlock: XOMCOT_clean_sbu_1, # of connection points: 5
#     Edge 32, Type (0, 0), None
#     Edge 33, Type (0, 0), None
#     Edge 34, Type (0, 0), None
#     Edge 35, Type (0, 0), None
#     Edge 36, Type (0, 0), None
#     Edge 37, Type (0, 0), None
#     Edge 38, Type (0, 0), None
#     Edge 39, Type (0, 0), None
#     Edge 40, Type (0, 0), None
#     Edge 41, Type (0, 0), None
#     Edge 42, Type (0, 0), None
#     Edge 43, Type (0, 0), None
#     Edge 44, Type (0, 0), None
#     Edge 45, Type (0, 0), None
#     Edge 46, Type (0, 0), None
#     Edge 47, Type (0, 0), None
#     Edge 48, Type (0, 0), None
#     Edge 49, Type (0, 0), None
#     Edge 50, Type (0, 0), None
#     Edge 51, Type (0, 0), None
#     Edge 52, Type (0, 0), None
#     Edge 53, Type (0, 0), None
#     Edge 54, Type (0, 0), None
#     Edge 55, Type (0, 0), None
#     Edge 56, Type (0, 0), None
#     Edge 57, Type (0, 0), None
#     Edge 58, Type (0, 0), None
#     Edge 59, Type (0, 0), None
#     Edge 60, Type (0, 0), None
#     Edge 61, Type (0, 0), None
#     Edge 62, Type (0, 0), None
#     Edge 63, Type (0, 0), None
#     Edge 64, Type (0, 0), None
#     Edge 65, Type (0, 0), None
#     Edge 66, Type (0, 0), None
#     Edge 67, Type (0, 0), None
#     Edge 68, Type (0, 0), None
#     Edge 69, Type (0, 0), None
#     Edge 70, Type (0, 0), None
#     Edge 71, Type (0, 0), None
#     Edge 72, Type (0, 0), None
#     Edge 73, Type (0, 0), None
#     Edge 74, Type (0, 0), None
#     Edge 75, Type (0, 0), None
#     Edge 76, Type (0, 0), None
#     Edge 77, Type (0, 0), None
#     Edge 78, Type (0, 0), None
#     Edge 79, Type (0, 0), None
#     Edge 80, Type (0, 0), None
#     Edge 81, Type (0, 0), None
#     Edge 82, Type (0, 0), None
#     Edge 83, Type (0, 0), None
#     Edge 84, Type (0, 0), None
#     Edge 85, Type (0, 0), None
#     Edge 86, Type (0, 0), None
#     Edge 87, Type (0, 0), None
#     Edge 88, Type (0, 0), None
#     Edge 89, Type (0, 0), None
#     Edge 90, Type (0, 0), None
#     Edge 91, Type (0, 0), None
#     Edge 92, Type (0, 0), None
#     Edge 93, Type (0, 0), None
#     Edge 94, Type (0, 0), None
#     Edge 95, Type (0, 0), None
#     Edge 96, Type (0, 0), None
#     Edge 97, Type (0, 0), None
#     Edge 98, Type (0, 0), None
#     Edge 99, Type (0, 0), None
#     Edge 100, Type (0, 0), None
#     Edge 101, Type (0, 0), None
#     Edge 102, Type (0, 0), None
#     Edge 103, Type (0, 0), None
#     Edge 104, Type (0, 0), None
#     Edge 105, Type (0, 0), None
#     Edge 106, Type (0, 0), None
#     Edge 107, Type (0, 0), None
#     Edge 108, Type (0, 0), None
#     Edge 109, Type (0, 0), None
#     Edge 110, Type (0, 0), None
#     Edge 111, Type (0, 0), None
# Relax obj value: 0.181
# Max RMSD: 0.162
# Mean RMSD: 0.162
data_MOF--net-wgp--node1-XOMCOT_clean_sbu_1--edge1-none
_symmetry_space_group_name_H-M    P1
_symmetry_Int_Tables_number       1
_symmetry_cell_setting            triclinic
loop_
_symmetry_equiv_pos_as_xyz
'x, y, z'
_cell_length_a     18.897097
_cell_length_b     18.897217
_cell_length_c     48.366426
_cell_angle_alpha  89.999999
_cell_angle_beta   90.0
_cell_angle_gamma 89.999995
loop_
_atom_site_label
_atom_site_type_symbol
_atom_site_fract_x
_atom_site_fract_y
_atom_site_fract_z
_atom_type_partial_charge
C0 C 0.32222 0.2377 0.08982 0.0
C1 C 0.30356 0.30776 0.08921 0.0
N2 N 0.24843 0.31494 0.07199 0.0
N3 N 0.28015 0.19936 0.0728 0.0
C4 C 0.23441 0.24856 0.06227 0.0
H5 H 0.36505 0.21593 0.10194 0.0
Co6 Co 0.30257 0.09977 0.06884 0.0
C7 C 0.27905 0.05857 0.01204 0.0
O8 O 0.34346 0.03267 0.01201 0.0
N9 N 0.32524 0.99877 0.06644 0.0
C10 C 0.37523 0.89076 0.0628 0.0
C11 C 0.3872 0.96327 0.06303 0.0
C12 C 0.27676 0.94553 0.06828 0.0
N13 N 0.30557 0.88004 0.06609 0.0
O14 O 0.22071 0.07608 0.08888 0.0
H15 H 0.4385 0.98762 0.06077 0.0
H16 H 0.22076 0.95424 0.07131 0.0
O17 O 0.25339 0.08971 0.0335 0.0
C18 C 0.22633 0.08558 0.11483 0.0
O19 O 0.2826 0.11746 0.1247 0.0
N20 N 0.38476 0.12773 0.05112 0.0
C21 C 0.48752 0.2286 0.04397 0.0
C22 C 0.4328 0.22395 0.02499 0.0
C23 C 0.38071 0.17396 0.02928 0.0
C24 C 0.44224 0.12732 0.06808 0.0
C25 C 0.49482 0.17804 0.06488 0.0
H26 H 0.33271 0.18094 0.01758 0.0
H27 H 0.44214 0.09484 0.0865 0.0
H28 H 0.19336 0.23649 0.04739 0.0
H29 H 0.32817 0.3501 0.10082 0.0
H30 H 0.41478 0.84948 0.06147 0.0
H31 H 0.42609 0.26358 0.00899 0.0
H32 H 0.53722 0.18161 0.0799 0.0
C33 C 0.03175 0.07223 0.33981 0.0
C34 C 0.96169 0.05357 0.33921 0.0
N35 N 0.95452 0.99843 0.32199 0.0
N36 N 0.0701 0.03016 0.3228 0.0
C37 C 0.02089 0.98441 0.31227 0.0
H38 H 0.05352 0.11507 0.35193 0.0
Co39 Co 0.16969 0.05257 0.31884 0.0
C40 C 0.21088 0.02904 0.26204 0.0
O41 O 0.23678 0.09346 0.26201 0.0
N42 N 0.27069 0.07524 0.31643 0.0
C43 C 0.3787 0.12522 0.31279 0.0
C44 C 0.30619 0.1372 0.31302 0.0
C45 C 0.32393 0.02675 0.31828 0.0
N46 N 0.38941 0.05556 0.31609 0.0
O47 O 0.19337 0.97072 0.33888 0.0
H48 H 0.28184 0.1885 0.31076 0.0
H49 H 0.31521 0.97076 0.32131 0.0
O50 O 0.17974 1.00339 0.2835 0.0
C51 C 0.18387 0.97634 0.36482 0.0
O52 O 0.15199 0.03261 0.3747 0.0
N53 N 0.14173 0.13477 0.30111 0.0
C54 C 0.04088 0.23754 0.29396 0.0
C55 C 0.04551 0.18281 0.27499 0.0
C56 C 0.09549 0.13072 0.27928 0.0
C57 C 0.14214 0.19224 0.31807 0.0
C58 C 0.09144 0.24483 0.31487 0.0
H59 H 0.08851 0.08272 0.26758 0.0
H60 H 0.17463 0.19214 0.33649 0.0
H61 H 0.03297 0.94336 0.2974 0.0
H62 H 0.91935 0.07817 0.35081 0.0
H63 H 0.41998 0.16477 0.31146 0.0
H64 H 1.00588 0.17611 0.25899 0.0
H65 H 0.08787 0.28724 0.3299 0.0
C66 C 0.19725 0.78176 0.58982 0.0
C67 C 0.2159 0.7117 0.58921 0.0
N68 N 0.27104 0.70452 0.57199 0.0
N69 N 0.23931 0.82011 0.5728 0.0
C70 C 0.28506 0.7709 0.56227 0.0
H71 H 0.15442 0.80353 0.60194 0.0
Co72 Co 0.2169 0.9197 0.56884 0.0
C73 C 0.24042 0.96089 0.51204 0.0
O74 O 0.17601 0.98679 0.51201 0.0
N75 N 0.19422 0.0207 0.56644 0.0
C76 C 0.14424 0.1287 0.5628 0.0
C77 C 0.13227 0.05619 0.56303 0.0
C78 C 0.24271 0.07393 0.56828 0.0
N79 N 0.2139 0.13942 0.56609 0.0
O80 O 0.29875 0.94338 0.58888 0.0
H81 H 0.08096 0.03184 0.56077 0.0
H82 H 0.29871 0.06522 0.57131 0.0
O83 O 0.26608 0.92975 0.5335 0.0
C84 C 0.29314 0.93389 0.61483 0.0
O85 O 0.23687 0.902 0.6247 0.0
N86 N 0.13471 0.89173 0.55112 0.0
C87 C 0.03195 0.79086 0.54397 0.0
C88 C 0.08667 0.79551 0.52499 0.0
C89 C 0.13876 0.8455 0.52928 0.0
C90 C 0.07723 0.89214 0.56808 0.0
C91 C 0.02465 0.84143 0.56488 0.0
H92 H 0.18676 0.83852 0.51758 0.0
H93 H 0.07733 0.92462 0.5865 0.0
H94 H 0.3261 0.78297 0.54739 0.0
H95 H 0.1913 0.66937 0.60082 0.0
H96 H 0.10468 0.16998 0.56147 0.0
H97 H 0.09338 0.75588 0.50899 0.0
H98 H 0.98225 0.83785 0.5799 0.0
C99 C 0.48772 0.94723 0.83981 0.0
C100 C 0.55778 0.96589 0.83921 0.0
N101 N 0.56495 0.02103 0.82199 0.0
N102 N 0.44937 0.9893 0.8228 0.0
C103 C 0.49857 0.03505 0.81227 0.0
H104 H 0.46595 0.9044 0.85193 0.0
Co105 Co 0.34978 0.96689 0.81884 0.0
C106 C 0.30859 0.99042 0.76204 0.0
O107 O 0.28269 0.92601 0.76201 0.0
N108 N 0.24878 0.94422 0.81643 0.0
C109 C 0.14077 0.89424 0.81279 0.0
C110 C 0.21328 0.88227 0.81302 0.0
C111 C 0.19554 0.99271 0.81828 0.0
N112 N 0.13006 0.9639 0.81609 0.0
O113 O 0.3261 0.04874 0.83888 0.0
H114 H 0.23763 0.83096 0.81076 0.0
H115 H 0.20425 0.0487 0.82131 0.0
O116 O 0.33973 0.01607 0.7835 0.0
C117 C 0.33559 0.04312 0.86482 0.0
O118 O 0.36748 0.98686 0.8747 0.0
N119 N 0.37774 0.88469 0.80111 0.0
C120 C 0.47859 0.78193 0.79396 0.0
C121 C 0.47396 0.83665 0.77499 0.0
C122 C 0.42398 0.88874 0.77928 0.0
C123 C 0.37733 0.82722 0.81807 0.0
C124 C 0.42803 0.77463 0.81487 0.0
H125 H 0.43096 0.93674 0.76758 0.0
H126 H 0.34484 0.82732 0.83649 0.0
H127 H 0.4865 0.0761 0.7974 0.0
H128 H 0.60012 0.94129 0.85081 0.0
H129 H 0.09949 0.85469 0.81146 0.0
H130 H 0.51359 0.84335 0.75899 0.0
H131 H 0.4316 0.73222 0.8299 0.0
C132 C 0.32228 0.78176 0.40854 0.0
C133 C 0.30362 0.7117 0.40914 0.0
N134 N 0.24847 0.70452 0.42635 0.0
N135 N 0.28019 0.8201 0.42555 0.0
C136 C 0.23443 0.7709 0.43607 0.0
H137 H 0.36513 0.80353 0.39643 0.0
Co138 Co 0.3026 0.9197 0.4295 0.0
C139 C 0.27902 0.96091 0.4863 0.0
O140 O 0.34344 0.98681 0.48634 0.0
N141 N 0.32527 0.0207 0.43191 0.0
C142 C 0.37526 0.1287 0.43555 0.0
C143 C 0.38722 0.05619 0.43533 0.0
C144 C 0.27679 0.07394 0.43005 0.0
N145 N 0.3056 0.13942 0.43224 0.0
O146 O 0.22076 0.94338 0.40946 0.0
H147 H 0.43852 0.03184 0.4376 0.0
H148 H 0.2208 0.06523 0.42701 0.0
O149 O 0.25339 0.92975 0.46484 0.0
C150 C 0.22636 0.93383 0.38351 0.0
O151 O 0.2826 0.90191 0.37363 0.0
N152 N 0.38478 0.89174 0.44724 0.0
C153 C 0.48752 0.79087 0.45441 0.0
C154 C 0.43279 0.79552 0.47338 0.0
C155 C 0.3807 0.84551 0.46908 0.0
C156 C 0.44227 0.89214 0.43029 0.0
C157 C 0.49485 0.84143 0.4335 0.0
H158 H 0.3327 0.83853 0.48078 0.0
H159 H 0.44219 0.92462 0.41187 0.0
H160 H 0.19337 0.78297 0.45094 0.0
H161 H 0.32824 0.66936 0.39754 0.0
H162 H 0.41481 0.16998 0.43689 0.0
H163 H 0.42606 0.75589 0.48938 0.0
H164 H 0.53727 0.83785 0.41848 0.0
C165 C 0.48772 0.07229 0.65854 0.0
C166 C 0.55779 0.05363 0.65915 0.0
N167 N 0.56496 0.99847 0.67635 0.0
N168 N 0.44938 0.0302 0.67555 0.0
C169 C 0.49857 0.98443 0.68607 0.0
H170 H 0.46596 0.11514 0.64643 0.0
Co171 Co 0.34978 0.0526 0.6795 0.0
C172 C 0.30857 0.02902 0.7363 0.0
O173 O 0.28267 0.09344 0.73634 0.0
N174 N 0.24878 0.07527 0.68191 0.0
C175 C 0.14077 0.12525 0.68556 0.0
C176 C 0.21328 0.13722 0.68533 0.0
C177 C 0.19554 0.02678 0.68005 0.0
N178 N 0.13005 0.05559 0.68225 0.0
O179 O 0.3261 0.97077 0.65946 0.0
H180 H 0.23763 0.18852 0.6876 0.0
H181 H 0.20425 0.97079 0.67701 0.0
O182 O 0.33973 1.00339 0.71484 0.0
C183 C 0.33565 0.97637 0.63351 0.0
O184 O 0.36758 0.0326 0.62363 0.0
N185 N 0.37774 0.13478 0.69724 0.0
C186 C 0.47859 0.23755 0.70441 0.0
C187 C 0.47395 0.1828 0.72338 0.0
C188 C 0.42397 0.13071 0.71908 0.0
C189 C 0.37732 0.19228 0.68029 0.0
C190 C 0.42802 0.24486 0.68351 0.0
H191 H 0.43095 0.0827 0.73078 0.0
H192 H 0.34484 0.19219 0.66187 0.0
H193 H 0.4865 0.94336 0.70093 0.0
H194 H 0.60012 0.07825 0.64755 0.0
H195 H 0.09949 0.1648 0.6869 0.0
H196 H 0.51358 0.17608 0.73938 0.0
H197 H 0.43159 0.28728 0.66848 0.0
C198 C 0.19719 0.2377 0.90854 0.0
C199 C 0.21584 0.30777 0.90914 0.0
N200 N 0.271 0.31494 0.92635 0.0
N201 N 0.23928 0.19936 0.92555 0.0
C202 C 0.28503 0.24856 0.93607 0.0
H203 H 0.15434 0.21593 0.89643 0.0
Co204 Co 0.21687 0.09977 0.9295 0.0
C205 C 0.24045 0.05855 0.9863 0.0
O206 O 0.17603 0.03266 0.98634 0.0
N207 N 0.1942 0.99876 0.93191 0.0
C208 C 0.14421 0.89076 0.93555 0.0
C209 C 0.13224 0.96327 0.93533 0.0
C210 C 0.24268 0.94553 0.93005 0.0
N211 N 0.21387 0.88004 0.93224 0.0
O212 O 0.29871 0.07608 0.90946 0.0
H213 H 0.08094 0.98762 0.9376 0.0
H214 H 0.29867 0.95424 0.92701 0.0
O215 O 0.26608 0.08971 0.96484 0.0
C216 C 0.29311 0.08564 0.88351 0.0
O217 O 0.23687 0.11756 0.87363 0.0
N218 N 0.13469 0.12773 0.94724 0.0
C219 C 0.03194 0.22859 0.95441 0.0
C220 C 0.08668 0.22395 0.97338 0.0
C221 C 0.13876 0.17395 0.96908 0.0
C222 C 0.0772 0.12732 0.93029 0.0
C223 C 0.02462 0.17803 0.9335 0.0
H224 H 0.18677 0.18093 0.98078 0.0
H225 H 0.07728 0.09484 0.91187 0.0
H226 H 0.3261 0.23649 0.95094 0.0
H227 H 0.19123 0.3501 0.89754 0.0
H228 H 0.10466 0.84948 0.93689 0.0
H229 H 0.09341 0.26358 0.98938 0.0
H230 H 0.9822 0.18161 0.91848 0.0
C231 C 0.03174 0.94717 0.15854 0.0
C232 C 0.96168 0.96583 0.15915 0.0
N233 N 0.95451 0.021 0.17635 0.0
N234 N 0.07009 0.98926 0.17555 0.0
C235 C 0.02089 0.03503 0.18607 0.0
H236 H 0.05351 0.90432 0.14643 0.0
Co237 Co 0.16969 0.96686 0.1795 0.0
C238 C 0.2109 0.99044 0.2363 0.0
O239 O 0.2368 0.92603 0.23634 0.0
N240 N 0.27069 0.94419 0.18191 0.0
C241 C 0.3787 0.89421 0.18556 0.0
C242 C 0.30619 0.88224 0.18533 0.0
C243 C 0.32393 0.99268 0.18005 0.0
N244 N 0.38941 0.96387 0.18225 0.0
O245 O 0.19337 0.0487 0.15946 0.0
H246 H 0.28184 0.83094 0.1876 0.0
H247 H 0.31522 0.04867 0.17701 0.0
O248 O 0.17974 0.01607 0.21484 0.0
C249 C 0.18382 0.04309 0.13351 0.0
O250 O 0.15189 0.98686 0.12363 0.0
N251 N 0.14173 0.88468 0.19724 0.0
C252 C 0.04088 0.78192 0.20441 0.0
C253 C 0.04552 0.83666 0.22338 0.0
C254 C 0.0955 0.88875 0.21908 0.0
C255 C 0.14215 0.82719 0.18029 0.0
C256 C 0.09145 0.7746 0.18351 0.0
H257 H 0.08852 0.93676 0.23078 0.0
H258 H 0.17463 0.82727 0.16187 0.0
H259 H 0.03297 0.0761 0.20093 0.0
H260 H 0.91934 0.94121 0.14755 0.0
H261 H 0.41998 0.85466 0.1869 0.0
H262 H 1.00589 0.84338 0.23938 0.0
H263 H 0.08788 0.73218 0.16848 0.0
C264 C 0.69728 0.78176 0.90852 0.0
C265 C 0.71593 0.7117 0.90913 0.0
N266 N 0.77106 0.70452 0.92635 0.0
N267 N 0.73934 0.8201 0.92554 0.0
C268 C 0.78508 0.7709 0.93607 0.0
H269 H 0.65445 0.80353 0.8964 0.0
Co270 Co 0.71693 0.91969 0.92949 0.0
C271 C 0.74043 0.96088 0.98629 0.0
O272 O 0.67601 0.98678 0.98632 0.0
N273 N 0.69425 0.0207 0.9319 0.0
C274 C 0.64426 0.1287 0.93554 0.0
C275 C 0.63229 0.05619 0.9353 0.0
C276 C 0.74274 0.07393 0.93005 0.0
N277 N 0.71393 0.13942 0.93224 0.0
O278 O 0.79879 0.94338 0.90946 0.0
H279 H 0.58099 0.03184 0.93756 0.0
H280 H 0.79873 0.06522 0.92702 0.0
O281 O 0.76609 0.92974 0.96484 0.0
C282 C 0.79319 0.93387 0.88351 0.0
O283 O 0.73694 0.90197 0.87364 0.0
N284 N 0.63472 0.89173 0.94721 0.0
C285 C 0.53196 0.79086 0.95435 0.0
C286 C 0.58667 0.7955 0.97333 0.0
C287 C 0.63876 0.8455 0.96905 0.0
C288 C 0.57725 0.89214 0.93024 0.0
C289 C 0.52467 0.84142 0.93344 0.0
H290 H 0.68675 0.83851 0.98075 0.0
H291 H 0.57736 0.92462 0.91183 0.0
H292 H 0.82612 0.78298 0.95094 0.0
H293 H 0.69133 0.66936 0.89752 0.0
H294 H 0.60471 0.16998 0.93687 0.0
H295 H 0.59337 0.75588 0.98933 0.0
H296 H 0.48227 0.83785 0.91841 0.0
C297 C 0.98777 0.94726 0.65854 0.0
C298 C 0.05783 0.96593 0.65917 0.0
N299 N 0.06496 0.02105 0.6764 0.0
N300 N 0.94939 0.9893 0.67556 0.0
C301 C 0.99857 0.03503 0.68611 0.0
H302 H 0.96602 0.90443 0.64641 0.0
Co303 Co 0.84979 0.96689 0.67949 0.0
C304 C 0.80858 0.99042 0.7363 0.0
O305 O 0.78269 0.926 0.73633 0.0
N306 N 0.74878 0.94422 0.68188 0.0
C307 C 0.64076 0.89426 0.68556 0.0
C308 C 0.71328 0.88229 0.68536 0.0
C309 C 0.69555 0.99269 0.67996 0.0
N310 N 0.63007 0.96388 0.68214 0.0
O311 O 0.82614 0.04876 0.65946 0.0
H312 H 0.73764 0.83102 0.68772 0.0
H313 H 0.70425 0.04867 0.67689 0.0
O314 O 0.83972 0.01606 0.71484 0.0
C315 C 0.83565 0.04314 0.63351 0.0
O316 O 0.86753 0.98687 0.62364 0.0
N317 N 0.87773 0.88469 0.69722 0.0
C318 C 0.97859 0.78193 0.70435 0.0
C319 C 0.97395 0.83663 0.72333 0.0
C320 C 0.92396 0.88872 0.71906 0.0
C321 C 0.87731 0.82723 0.68025 0.0
C322 C 0.92803 0.77464 0.68345 0.0
H323 H 0.93094 0.93671 0.73077 0.0
H324 H 0.84481 0.82733 0.66184 0.0
H325 H 0.98646 0.07604 0.70099 0.0
H326 H 0.10019 0.94134 0.64757 0.0
H327 H 0.59948 0.85473 0.68697 0.0
H328 H 0.01358 0.84332 0.73934 0.0
H329 H 0.93159 0.73225 0.66841 0.0
C330 C 0.82219 0.2377 0.40852 0.0
C331 C 0.80354 0.30777 0.40913 0.0
N332 N 0.7484 0.31494 0.42635 0.0
N333 N 0.78013 0.19936 0.42554 0.0
C334 C 0.73439 0.24856 0.43607 0.0
H335 H 0.86502 0.21594 0.3964 0.0
Co336 Co 0.80254 0.09977 0.42949 0.0
C337 C 0.77904 0.05858 0.48629 0.0
O338 O 0.84345 0.03268 0.48632 0.0
N339 N 0.82522 0.99877 0.4319 0.0
C340 C 0.87521 0.89076 0.43554 0.0
C341 C 0.88717 0.96327 0.4353 0.0
C342 C 0.77673 0.94553 0.43005 0.0
N343 N 0.80554 0.88004 0.43224 0.0
O344 O 0.72068 0.07608 0.40946 0.0
H345 H 0.93848 0.98762 0.43756 0.0
H346 H 0.72074 0.95424 0.42702 0.0
O347 O 0.75338 0.08972 0.46484 0.0
C348 C 0.72628 0.08559 0.38351 0.0
O349 O 0.78253 0.11749 0.37364 0.0
N350 N 0.88475 0.12773 0.44721 0.0
C351 C 0.98751 0.2286 0.45435 0.0
C352 C 0.9328 0.22396 0.47333 0.0
C353 C 0.88071 0.17397 0.46905 0.0
C354 C 0.94221 0.12733 0.43024 0.0
C355 C 0.9948 0.17804 0.43344 0.0
H356 H 0.83272 0.18095 0.48075 0.0
H357 H 0.94211 0.09484 0.41183 0.0
H358 H 0.69334 0.23649 0.45094 0.0
H359 H 0.82814 0.3501 0.39752 0.0
H360 H 0.91476 0.84948 0.43687 0.0
H361 H 0.9261 0.26359 0.48933 0.0
H362 H 0.0372 0.18161 0.41841 0.0
C363 C 0.5317 0.0722 0.15854 0.0
C364 C 0.46164 0.05353 0.15917 0.0
N365 N 0.45451 0.99841 0.1764 0.0
N366 N 0.57008 0.03016 0.17556 0.0
C367 C 0.5209 0.98443 0.18611 0.0
H368 H 0.55345 0.11503 0.14641 0.0
Co369 Co 0.66967 0.05257 0.17949 0.0
C370 C 0.71089 0.02905 0.2363 0.0
O371 O 0.73678 0.09346 0.23633 0.0
N372 N 0.77069 0.07524 0.18188 0.0
C373 C 0.87871 0.1252 0.18556 0.0
C374 C 0.80619 0.13717 0.18536 0.0
C375 C 0.82392 0.02677 0.17996 0.0
N376 N 0.8894 0.05558 0.18214 0.0
O377 O 0.69332 0.97071 0.15946 0.0
H378 H 0.78183 0.18844 0.18772 0.0
H379 H 0.81522 0.97079 0.17689 0.0
O380 O 0.67975 1.0034 0.21484 0.0
C381 C 0.68382 0.97632 0.13351 0.0
O382 O 0.65194 0.03259 0.12364 0.0
N383 N 0.64174 0.13477 0.19722 0.0
C384 C 0.54087 0.23753 0.20435 0.0
C385 C 0.54552 0.18283 0.22333 0.0
C386 C 0.59551 0.13074 0.21906 0.0
C387 C 0.64216 0.19224 0.18025 0.0
C388 C 0.59144 0.24482 0.18345 0.0
H389 H 0.58853 0.08275 0.23077 0.0
H390 H 0.67466 0.19213 0.16184 0.0
H391 H 0.53301 0.94342 0.20099 0.0
H392 H 0.41928 0.07812 0.14757 0.0
H393 H 0.91999 0.16474 0.18697 0.0
H394 H 0.50589 0.17614 0.23934 0.0
H395 H 0.58788 0.28722 0.16841 0.0
C396 C 0.69722 0.23771 0.5898 0.0
C397 C 0.71587 0.30777 0.5892 0.0
N398 N 0.77103 0.31494 0.57198 0.0
N399 N 0.7393 0.19936 0.57279 0.0
C400 C 0.78506 0.24856 0.56227 0.0
H401 H 0.65437 0.21594 0.60192 0.0
Co402 Co 0.71689 0.09977 0.56884 0.0
C403 C 0.74045 0.05856 0.51204 0.0
O404 O 0.67603 0.03267 0.512 0.0
N405 N 0.69422 0.99877 0.56643 0.0
C406 C 0.64424 0.89076 0.56279 0.0
C407 C 0.63227 0.96327 0.56302 0.0
C408 C 0.74271 0.94553 0.56829 0.0
N409 N 0.7139 0.88004 0.5661 0.0
O410 O 0.79874 0.07609 0.58888 0.0
H411 H 0.58097 0.98762 0.56075 0.0
H412 H 0.7987 0.95424 0.57133 0.0
O413 O 0.76609 0.08972 0.5335 0.0
C414 C 0.79316 0.08565 0.61483 0.0
O415 O 0.73694 0.11759 0.62471 0.0
N416 N 0.6347 0.12773 0.5511 0.0
C417 C 0.53195 0.2286 0.54395 0.0
C418 C 0.58668 0.22395 0.52498 0.0
C419 C 0.63876 0.17396 0.52927 0.0
C420 C 0.57722 0.12732 0.56806 0.0
C421 C 0.52464 0.17803 0.56485 0.0
H422 H 0.68677 0.18094 0.51757 0.0
H423 H 0.57731 0.09484 0.58648 0.0
H424 H 0.82612 0.23648 0.5474 0.0
H425 H 0.69126 0.35011 0.6008 0.0
H426 H 0.60469 0.84948 0.56145 0.0
H427 H 0.59339 0.26358 0.50898 0.0
H428 H 0.48223 0.18161 0.57988 0.0
C429 C 0.5317 0.9472 0.33978 0.0
C430 C 0.46164 0.96587 0.33916 0.0
N431 N 0.45451 0.02101 0.32193 0.0
N432 N 0.57008 0.98926 0.32277 0.0
C433 C 0.5209 0.03501 0.31223 0.0
H434 H 0.55344 0.90436 0.3519 0.0
Co435 Co 0.66967 0.96686 0.31884 0.0
C436 C 0.71091 0.99044 0.26204 0.0
O437 O 0.73679 0.92602 0.262 0.0
N438 N 0.77069 0.9442 0.31644 0.0
C439 C 0.87871 0.89423 0.31276 0.0
C440 C 0.80619 0.88227 0.31295 0.0
C441 C 0.82392 0.99266 0.31838 0.0
N442 N 0.88941 0.96385 0.3162 0.0
O443 O 0.69332 0.04871 0.33888 0.0
H444 H 0.78183 0.831 0.31059 0.0
H445 H 0.81522 0.04864 0.32146 0.0
O446 O 0.67976 0.01606 0.2835 0.0
C447 C 0.68376 0.04311 0.36483 0.0
O448 O 0.65184 0.98687 0.37471 0.0
N449 N 0.64175 0.88467 0.3011 0.0
C450 C 0.54088 0.78192 0.29394 0.0
C451 C 0.54553 0.83664 0.27497 0.0
C452 C 0.59552 0.88873 0.27926 0.0
C453 C 0.64216 0.82719 0.31805 0.0
C454 C 0.59145 0.77461 0.31485 0.0
H455 H 0.58855 0.93672 0.26756 0.0
H456 H 0.67467 0.82728 0.33647 0.0
H457 H 0.53301 0.07604 0.29735 0.0
H458 H 0.41927 0.94127 0.35074 0.0
H459 H 0.91999 0.8547 0.31135 0.0
H460 H 0.5059 0.84335 0.25897 0.0
H461 H 0.58788 0.7322 0.32988 0.0
C462 C 0.82225 0.78175 0.0898 0.0
C463 C 0.8036 0.71169 0.0892 0.0
N464 N 0.74844 0.70452 0.07198 0.0
N465 N 0.78017 0.8201 0.07279 0.0
C466 C 0.73441 0.7709 0.06227 0.0
H467 H 0.8651 0.80352 0.10192 0.0
Co468 Co 0.80257 0.91969 0.06884 0.0
C469 C 0.77902 0.9609 0.01204 0.0
O470 O 0.84343 0.98679 0.012 0.0
N471 N 0.82525 0.0207 0.06643 0.0
C472 C 0.87523 0.1287 0.06279 0.0
C473 C 0.8872 0.05619 0.06302 0.0
C474 C 0.77676 0.07394 0.06829 0.0
N475 N 0.80557 0.13942 0.0661 0.0
O476 O 0.72072 0.94337 0.08888 0.0
H477 H 0.9385 0.03184 0.06075 0.0
H478 H 0.72077 0.06523 0.07133 0.0
O479 O 0.75338 0.92975 0.0335 0.0
C480 C 0.72631 0.93381 0.11483 0.0
O481 O 0.78253 0.90187 0.12471 0.0
N482 N 0.88477 0.89173 0.0511 0.0
C483 C 0.98752 0.79087 0.04395 0.0
C484 C 0.93279 0.79551 0.02498 0.0
C485 C 0.8807 0.84551 0.02927 0.0
C486 C 0.94225 0.89214 0.06806 0.0
C487 C 0.99483 0.84143 0.06485 0.0
H488 H 0.8327 0.83853 0.01757 0.0
H489 H 0.94216 0.92463 0.08648 0.0
H490 H 0.69335 0.78298 0.0474 0.0
H491 H 0.82821 0.66935 0.1008 0.0
H492 H 0.91478 0.16998 0.06145 0.0
H493 H 0.92607 0.75588 0.00898 0.0
H494 H 0.03724 0.83786 0.07988 0.0
C495 C 0.98777 0.07226 0.83978 0.0
C496 C 0.05783 0.05359 0.83916 0.0
N497 N 0.06496 0.99845 0.82193 0.0
N498 N 0.94939 0.0302 0.82277 0.0
C499 C 0.99857 0.98445 0.81223 0.0
H500 H 0.96603 0.11511 0.8519 0.0
Co501 Co 0.84979 0.0526 0.81884 0.0
C502 C 0.80856 0.02903 0.76204 0.0
O503 O 0.78268 0.09344 0.762 0.0
N504 N 0.74878 0.07527 0.81644 0.0
C505 C 0.64076 0.12523 0.81276 0.0
C506 C 0.71328 0.13719 0.81295 0.0
C507 C 0.69554 0.0268 0.81838 0.0
N508 N 0.63006 0.05561 0.8162 0.0
O509 O 0.82615 0.97075 0.83888 0.0
H510 H 0.73764 0.18846 0.81059 0.0
H511 H 0.70425 0.97082 0.82146 0.0
O512 O 0.83971 1.0034 0.7835 0.0
C513 C 0.83571 0.97635 0.86483 0.0
O514 O 0.86763 0.03259 0.87471 0.0
N515 N 0.87772 0.13479 0.8011 0.0
C516 C 0.97859 0.23754 0.79394 0.0
C517 C 0.97394 0.18282 0.77497 0.0
C518 C 0.92395 0.13074 0.77926 0.0
C519 C 0.87731 0.19227 0.81805 0.0
C520 C 0.92802 0.24485 0.81485 0.0
H521 H 0.93092 0.08274 0.76756 0.0
H522 H 0.8448 0.19218 0.83647 0.0
H523 H 0.98646 0.94342 0.79735 0.0
H524 H 0.1002 0.0782 0.85074 0.0
H525 H 0.59948 0.16476 0.81135 0.0
H526 H 0.01357 0.17611 0.75897 0.0
H527 H 0.93159 0.28726 0.82988 0.0
C528 C 0.82223 0.73775 0.5898 0.0
C529 C 0.80356 0.80781 0.58917 0.0
N530 N 0.74844 0.81495 0.57194 0.0
N531 N 0.78018 0.69937 0.57278 0.0
C532 C 0.73444 0.74855 0.56223 0.0
H533 H 0.86506 0.716 0.60192 0.0
Co534 Co 0.80259 0.59978 0.56884 0.0
C535 C 0.77905 0.55856 0.51204 0.0
O536 O 0.84347 0.53268 0.512 0.0
N537 N 0.82526 0.49877 0.56645 0.0
C538 C 0.87523 0.39075 0.56277 0.0
C539 C 0.88719 0.46327 0.56297 0.0
C540 C 0.77679 0.44553 0.56838 0.0
N541 N 0.80561 0.38005 0.5662 0.0
O542 O 0.72073 0.57613 0.58888 0.0
H543 H 0.93846 0.48763 0.56061 0.0
H544 H 0.72081 0.45423 0.57145 0.0
O545 O 0.75341 0.5897 0.5335 0.0
C546 C 0.72634 0.58563 0.61483 0.0
O547 O 0.78261 0.61751 0.6247 0.0
N548 N 0.88479 0.62771 0.55111 0.0
C549 C 0.98757 0.72854 0.54396 0.0
C550 C 0.93285 0.72392 0.52499 0.0
C551 C 0.88075 0.67394 0.52927 0.0
C552 C 0.94226 0.62729 0.56808 0.0
C553 C 0.99485 0.67798 0.56487 0.0
H554 H 0.83275 0.68093 0.51757 0.0
H555 H 0.94216 0.59479 0.58649 0.0
H556 H 0.69343 0.73645 0.54735 0.0
H557 H 0.82816 0.85017 0.60076 0.0
H558 H 0.91476 0.34947 0.56136 0.0
H559 H 0.92615 0.76355 0.50899 0.0
H560 H 0.03726 0.68155 0.5799 0.0
C561 C 0.53178 0.57222 0.83981 0.0
C562 C 0.46171 0.55356 0.83921 0.0
N563 N 0.45454 0.49842 0.82199 0.0
N564 N 0.57012 0.53015 0.8228 0.0
C565 C 0.52092 0.4844 0.81227 0.0
H566 H 0.55355 0.61505 0.85194 0.0
Co567 Co 0.66971 0.55256 0.81885 0.0
C568 C 0.7109 0.52904 0.76204 0.0
O569 O 0.73679 0.59345 0.76201 0.0
N570 N 0.77071 0.57523 0.81644 0.0
C571 C 0.87872 0.62522 0.8128 0.0
C572 C 0.8062 0.63719 0.81303 0.0
C573 C 0.82395 0.52675 0.81828 0.0
N574 N 0.88943 0.55556 0.81609 0.0
O575 O 0.6934 0.4707 0.83888 0.0
H576 H 0.78185 0.68849 0.81076 0.0
H577 H 0.81524 0.47076 0.82132 0.0
O578 O 0.67976 0.50339 0.7835 0.0
C579 C 0.68389 0.47629 0.86482 0.0
O580 O 0.65198 0.53254 0.8747 0.0
N581 N 0.64174 0.63476 0.80112 0.0
C582 C 0.54091 0.73754 0.79396 0.0
C583 C 0.54554 0.68281 0.77499 0.0
C584 C 0.59551 0.63071 0.77928 0.0
C585 C 0.64216 0.69223 0.81808 0.0
C586 C 0.59147 0.74483 0.81487 0.0
H587 H 0.58852 0.58271 0.76758 0.0
H588 H 0.67464 0.69213 0.8365 0.0
H589 H 0.53299 0.44335 0.7974 0.0
H590 H 0.41938 0.57817 0.85081 0.0
H591 H 0.91999 0.66478 0.81146 0.0
H592 H 0.50591 0.67611 0.75899 0.0
H593 H 0.5879 0.78724 0.8299 0.0
C594 C 0.69724 0.28171 0.0898 0.0
C595 C 0.71591 0.21165 0.08917 0.0
N596 N 0.77103 0.20452 0.07194 0.0
N597 N 0.73929 0.32009 0.07278 0.0
C598 C 0.78502 0.27091 0.06223 0.0
H599 H 0.65441 0.30346 0.10192 0.0
Co600 Co 0.71688 0.41968 0.06884 0.0
C601 C 0.74042 0.4609 0.01204 0.0
O602 O 0.676 0.48678 0.012 0.0
N603 N 0.69421 0.52069 0.06645 0.0
C604 C 0.64424 0.62871 0.06277 0.0
C605 C 0.63228 0.55619 0.06297 0.0
C606 C 0.74268 0.57393 0.06838 0.0
N607 N 0.71386 0.63941 0.0662 0.0
O608 O 0.79874 0.44334 0.08888 0.0
H609 H 0.58101 0.53183 0.06061 0.0
H610 H 0.79866 0.56523 0.07145 0.0
O611 O 0.76606 0.42976 0.0335 0.0
C612 C 0.79313 0.43383 0.11483 0.0
O613 O 0.73686 0.40195 0.1247 0.0
N614 N 0.63468 0.39175 0.05111 0.0
C615 C 0.5319 0.29092 0.04396 0.0
C616 C 0.58662 0.29555 0.02499 0.0
C617 C 0.63872 0.34552 0.02927 0.0
C618 C 0.57721 0.39218 0.06808 0.0
C619 C 0.52462 0.34148 0.06487 0.0
H620 H 0.68672 0.33853 0.01757 0.0
H621 H 0.57731 0.42468 0.08649 0.0
H622 H 0.82604 0.28301 0.04735 0.0
H623 H 0.69131 0.16929 0.10076 0.0
H624 H 0.60471 0.66999 0.06136 0.0
H625 H 0.59332 0.25591 0.00899 0.0
H626 H 0.48221 0.33792 0.0799 0.0
C627 C 0.98769 0.44725 0.33981 0.0
C628 C 0.05776 0.4659 0.33921 0.0
N629 N 0.06493 0.52104 0.32199 0.0
N630 N 0.94935 0.48932 0.3228 0.0
C631 C 0.99855 0.53506 0.31227 0.0
H632 H 0.96592 0.40441 0.35194 0.0
Co633 Co 0.84976 0.46691 0.31885 0.0
C634 C 0.80857 0.49042 0.26204 0.0
O635 O 0.78267 0.42601 0.26201 0.0
N636 N 0.74876 0.44423 0.31644 0.0
C637 C 0.64075 0.39424 0.3128 0.0
C638 C 0.71327 0.38227 0.31303 0.0
C639 C 0.69552 0.49271 0.31828 0.0
N640 N 0.63004 0.4639 0.31609 0.0
O641 O 0.82607 0.54877 0.33888 0.0
H642 H 0.73762 0.33097 0.31076 0.0
H643 H 0.70423 0.54871 0.32132 0.0
O644 O 0.83971 0.51608 0.2835 0.0
C645 C 0.83558 0.54317 0.36482 0.0
O646 O 0.86749 0.48692 0.3747 0.0
N647 N 0.87772 0.38471 0.30112 0.0
C648 C 0.97856 0.28192 0.29396 0.0
C649 C 0.97393 0.33665 0.27499 0.0
C650 C 0.92396 0.38875 0.27928 0.0
C651 C 0.87731 0.32723 0.31808 0.0
C652 C 0.928 0.27464 0.31487 0.0
H653 H 0.93095 0.43675 0.26758 0.0
H654 H 0.84483 0.32733 0.3365 0.0
H655 H 0.98648 0.57611 0.2974 0.0
H656 H 0.10009 0.4413 0.35081 0.0
H657 H 0.59948 0.35469 0.31146 0.0
H658 H 0.01356 0.34335 0.25899 0.0
H659 H 0.93157 0.23223 0.3299 0.0
C660 C 0.82229 0.28171 0.90856 0.0
C661 C 0.80362 0.21165 0.90918 0.0
N662 N 0.74847 0.20451 0.9264 0.0
N663 N 0.78022 0.32009 0.92556 0.0
C664 C 0.73447 0.27091 0.93611 0.0
H665 H 0.86513 0.30346 0.89644 0.0
Co666 Co 0.80262 0.41968 0.9295 0.0
C667 C 0.77903 0.46092 0.9863 0.0
O668 O 0.84345 0.4868 0.98635 0.0
N669 N 0.82529 0.5207 0.9319 0.0
C670 C 0.87525 0.62871 0.93558 0.0
C671 C 0.88721 0.55619 0.93539 0.0
C672 C 0.77682 0.57393 0.92996 0.0
N673 N 0.80564 0.63941 0.93214 0.0
O674 O 0.72077 0.44333 0.90946 0.0
H675 H 0.93848 0.53184 0.93776 0.0
H676 H 0.72085 0.56523 0.92688 0.0
O677 O 0.75341 0.42976 0.96484 0.0
C678 C 0.72637 0.43377 0.88351 0.0
O679 O 0.78261 0.40185 0.87363 0.0
N680 N 0.8848 0.39175 0.94725 0.0
C681 C 0.98758 0.29093 0.95441 0.0
C682 C 0.93284 0.29555 0.97338 0.0
C683 C 0.88074 0.34553 0.96909 0.0
C684 C 0.94229 0.39218 0.93029 0.0
C685 C 0.99489 0.34149 0.9335 0.0
H686 H 0.83273 0.33854 0.98078 0.0
H687 H 0.94221 0.42468 0.91188 0.0
H688 H 0.69343 0.28301 0.95098 0.0
H689 H 0.82823 0.16929 0.8976 0.0
H690 H 0.91478 0.66999 0.937 0.0
H691 H 0.92612 0.25592 0.98938 0.0
H692 H 0.03731 0.33792 0.91848 0.0
C693 C 0.9877 0.57228 0.15854 0.0
C694 C 0.05776 0.55362 0.15914 0.0
N695 N 0.06493 0.49846 0.17635 0.0
N696 N 0.94935 0.53018 0.17555 0.0
C697 C 0.99855 0.48442 0.18607 0.0
H698 H 0.96593 0.61512 0.14643 0.0
Co699 Co 0.84976 0.55259 0.1795 0.0
C700 C 0.80855 0.52902 0.2363 0.0
O701 O 0.78266 0.59343 0.23634 0.0
N702 N 0.74876 0.57526 0.18191 0.0
C703 C 0.64075 0.62525 0.18556 0.0
C704 C 0.71326 0.63721 0.18533 0.0
C705 C 0.69552 0.52678 0.18005 0.0
N706 N 0.63003 0.55559 0.18224 0.0
O707 O 0.82608 0.47074 0.15946 0.0
H708 H 0.73762 0.68851 0.1876 0.0
H709 H 0.70422 0.47079 0.17701 0.0
O710 O 0.83971 0.50339 0.21484 0.0
C711 C 0.83564 0.47632 0.13351 0.0
O712 O 0.86758 0.53254 0.12363 0.0
N713 N 0.87772 0.63477 0.19724 0.0
C714 C 0.97855 0.73755 0.20441 0.0
C715 C 0.97392 0.6828 0.22337 0.0
C716 C 0.92395 0.6307 0.21908 0.0
C717 C 0.8773 0.69227 0.18029 0.0
C718 C 0.92799 0.74486 0.1835 0.0
H719 H 0.93094 0.58269 0.23077 0.0
H720 H 0.84482 0.69218 0.16187 0.0
H721 H 0.98648 0.44335 0.20093 0.0
H722 H 0.1001 0.57824 0.14754 0.0
H723 H 0.59948 0.6648 0.1869 0.0
H724 H 0.01356 0.67608 0.23937 0.0
H725 H 0.93156 0.78728 0.16848 0.0
C726 C 0.69718 0.73775 0.40856 0.0
C727 C 0.71585 0.80781 0.40918 0.0
N728 N 0.77099 0.81495 0.4264 0.0
N729 N 0.73925 0.69938 0.42556 0.0
C730 C 0.785 0.74855 0.43611 0.0
H731 H 0.65433 0.71601 0.39644 0.0
Co732 Co 0.71685 0.59978 0.4295 0.0
C733 C 0.74044 0.55854 0.4863 0.0
O734 O 0.67602 0.53266 0.48635 0.0
N735 N 0.69418 0.49877 0.4319 0.0
C736 C 0.64422 0.39075 0.43558 0.0
C737 C 0.63226 0.46327 0.43539 0.0
C738 C 0.74265 0.44553 0.42996 0.0
N739 N 0.71383 0.38005 0.43214 0.0
O740 O 0.79869 0.57613 0.40946 0.0
H741 H 0.58099 0.48763 0.43776 0.0
H742 H 0.79862 0.45423 0.42688 0.0
O743 O 0.76606 0.5897 0.46484 0.0
C744 C 0.7931 0.58569 0.38351 0.0
O745 O 0.73686 0.61761 0.37363 0.0
N746 N 0.63467 0.62771 0.44725 0.0
C747 C 0.53189 0.72854 0.45441 0.0
C748 C 0.58663 0.72391 0.47338 0.0
C749 C 0.63873 0.67393 0.46909 0.0
C750 C 0.57718 0.62728 0.43029 0.0
C751 C 0.52458 0.67798 0.4335 0.0
H752 H 0.68673 0.68092 0.48078 0.0
H753 H 0.57726 0.59478 0.41188 0.0
H754 H 0.82604 0.73645 0.45098 0.0
H755 H 0.69124 0.85018 0.3976 0.0
H756 H 0.60468 0.34947 0.437 0.0
H757 H 0.59334 0.76354 0.48938 0.0
H758 H 0.48216 0.68154 0.41848 0.0
C759 C 0.53177 0.44719 0.65854 0.0
C760 C 0.46171 0.46584 0.65914 0.0
N761 N 0.45454 0.521 0.67635 0.0
N762 N 0.57012 0.48928 0.67555 0.0
C763 C 0.52091 0.53504 0.68607 0.0
H764 H 0.55354 0.40434 0.64643 0.0
Co765 Co 0.66971 0.46687 0.6795 0.0
C766 C 0.71092 0.49044 0.7363 0.0
O767 O 0.73681 0.42603 0.73634 0.0
N768 N 0.77071 0.4442 0.68191 0.0
C769 C 0.87872 0.39422 0.68556 0.0
C770 C 0.8062 0.38225 0.68533 0.0
C771 C 0.82395 0.49268 0.68005 0.0
N772 N 0.88943 0.46387 0.68224 0.0
O773 O 0.69339 0.54872 0.65946 0.0
H774 H 0.78185 0.33095 0.6876 0.0
H775 H 0.81524 0.54867 0.67701 0.0
O776 O 0.67976 0.51608 0.71484 0.0
C777 C 0.68383 0.54314 0.63351 0.0
O778 O 0.65188 0.48692 0.62363 0.0
N779 N 0.64175 0.38469 0.69724 0.0
C780 C 0.54092 0.28191 0.70441 0.0
C781 C 0.54555 0.33666 0.72337 0.0
C782 C 0.59552 0.38876 0.71908 0.0
C783 C 0.64217 0.3272 0.68029 0.0
C784 C 0.59148 0.2746 0.6835 0.0
H785 H 0.58853 0.43677 0.73077 0.0
H786 H 0.67465 0.32728 0.66187 0.0
H787 H 0.53299 0.57611 0.70093 0.0
H788 H 0.41937 0.44122 0.64754 0.0
H789 H 0.91999 0.35466 0.6869 0.0
H790 H 0.50591 0.34338 0.73937 0.0
H791 H 0.58791 0.23218 0.66848 0.0
C792 C 0.19727 0.28171 0.40854 0.0
C793 C 0.21594 0.21165 0.40917 0.0
N794 N 0.27106 0.20452 0.4264 0.0
N795 N 0.23931 0.32009 0.42555 0.0
C796 C 0.28505 0.27091 0.43611 0.0
H797 H 0.15444 0.30345 0.39641 0.0
Co798 Co 0.21691 0.41968 0.42949 0.0
C799 C 0.24042 0.46089 0.48629 0.0
O800 O 0.176 0.48677 0.48633 0.0
N801 N 0.19424 0.52069 0.43188 0.0
C802 C 0.14427 0.62871 0.43557 0.0
C803 C 0.13231 0.55619 0.43537 0.0
C804 C 0.2427 0.57393 0.42996 0.0
N805 N 0.21389 0.63941 0.43214 0.0
O806 O 0.29878 0.44333 0.40946 0.0
H807 H 0.08103 0.53183 0.43772 0.0
H808 H 0.29868 0.56523 0.42689 0.0
O809 O 0.26607 0.42975 0.46484 0.0
C810 C 0.29318 0.43382 0.38351 0.0
O811 O 0.23693 0.40191 0.37364 0.0
N812 N 0.1347 0.39175 0.44721 0.0
C813 C 0.03191 0.29092 0.45435 0.0
C814 C 0.08662 0.29554 0.47333 0.0
C815 C 0.13872 0.34552 0.46905 0.0
C816 C 0.07723 0.39218 0.43025 0.0
C817 C 0.02463 0.34148 0.43344 0.0
H818 H 0.18671 0.33853 0.48076 0.0
H819 H 0.07734 0.42468 0.41183 0.0
H820 H 0.32606 0.28301 0.45099 0.0
H821 H 0.19134 0.16928 0.39757 0.0
H822 H 0.10473 0.66999 0.43697 0.0
H823 H 0.0933 0.25591 0.48933 0.0
H824 H 0.98223 0.33792 0.41841 0.0
C825 C 0.48774 0.44728 0.15854 0.0
C826 C 0.5578 0.46594 0.15916 0.0
N827 N 0.56494 0.52105 0.1764 0.0
N828 N 0.44937 0.48931 0.17555 0.0
C829 C 0.49854 0.53504 0.18611 0.0
H830 H 0.46599 0.40445 0.1464 0.0
Co831 Co 0.34977 0.46691 0.17949 0.0
C832 C 0.30856 0.49042 0.23629 0.0
O833 O 0.28268 0.426 0.23633 0.0
N834 N 0.24876 0.44423 0.18188 0.0
C835 C 0.14075 0.39426 0.18556 0.0
C836 C 0.21327 0.3823 0.18536 0.0
C837 C 0.19552 0.4927 0.17996 0.0
N838 N 0.13005 0.46388 0.18214 0.0
O839 O 0.32612 0.54878 0.15946 0.0
H840 H 0.23763 0.33103 0.18772 0.0
H841 H 0.20422 0.54868 0.17689 0.0
O842 O 0.3397 0.51607 0.21484 0.0
C843 C 0.33564 0.54318 0.13351 0.0
O844 O 0.36754 0.48693 0.12364 0.0
N845 N 0.37771 0.3847 0.19721 0.0
C846 C 0.47856 0.28193 0.20435 0.0
C847 C 0.47392 0.33663 0.22333 0.0
C848 C 0.42394 0.38873 0.21905 0.0
C849 C 0.37729 0.32724 0.18025 0.0
C850 C 0.428 0.27465 0.18344 0.0
H851 H 0.43092 0.43672 0.23076 0.0
H852 H 0.34479 0.32735 0.16183 0.0
H853 H 0.48645 0.57605 0.20099 0.0
H854 H 0.60016 0.44135 0.14757 0.0
H855 H 0.09947 0.35472 0.18696 0.0
H856 H 0.51355 0.34332 0.23934 0.0
H857 H 0.43156 0.23225 0.16841 0.0
C858 C 0.3222 0.73775 0.90854 0.0
C859 C 0.30353 0.80781 0.90917 0.0
N860 N 0.24841 0.81495 0.9264 0.0
N861 N 0.28016 0.69938 0.92555 0.0
C862 C 0.23442 0.74855 0.93611 0.0
H863 H 0.36503 0.71601 0.89641 0.0
Co864 Co 0.30256 0.59978 0.92949 0.0
C865 C 0.27905 0.55857 0.98629 0.0
O866 O 0.34347 0.53269 0.98633 0.0
N867 N 0.32523 0.49877 0.93188 0.0
C868 C 0.3752 0.39075 0.93557 0.0
C869 C 0.38716 0.46327 0.93537 0.0
C870 C 0.27677 0.44553 0.92996 0.0
N871 N 0.30558 0.38005 0.93214 0.0
O872 O 0.22069 0.57613 0.90946 0.0
H873 H 0.43844 0.48763 0.93772 0.0
H874 H 0.22079 0.45423 0.92689 0.0
O875 O 0.2534 0.58971 0.96484 0.0
C876 C 0.22629 0.58565 0.88351 0.0
O877 O 0.28254 0.61755 0.87364 0.0
N878 N 0.38477 0.62772 0.94721 0.0
C879 C 0.48756 0.72855 0.95435 0.0
C880 C 0.43285 0.72392 0.97333 0.0
C881 C 0.38075 0.67395 0.96905 0.0
C882 C 0.44224 0.62729 0.93025 0.0
C883 C 0.49483 0.67798 0.93344 0.0
H884 H 0.33276 0.68094 0.98076 0.0
H885 H 0.44212 0.59478 0.91183 0.0
H886 H 0.19341 0.73645 0.95099 0.0
H887 H 0.32813 0.85018 0.89757 0.0
H888 H 0.41474 0.34947 0.93697 0.0
H889 H 0.42617 0.76355 0.98933 0.0
H890 H 0.53723 0.68154 0.91841 0.0
C891 C 0.03173 0.57219 0.65854 0.0
C892 C 0.96167 0.55352 0.65916 0.0
N893 N 0.95453 0.49841 0.6764 0.0
N894 N 0.0701 0.53015 0.67555 0.0
C895 C 0.02092 0.48442 0.68611 0.0
H896 H 0.05348 0.61501 0.6464 0.0
Co897 Co 0.1697 0.55256 0.67949 0.0
C898 C 0.21091 0.52905 0.73629 0.0
O899 O 0.23679 0.59346 0.73633 0.0
N900 N 0.27071 0.57523 0.68188 0.0
C901 C 0.37872 0.6252 0.68556 0.0
C902 C 0.3062 0.63716 0.68536 0.0
C903 C 0.32395 0.52676 0.67996 0.0
N904 N 0.38942 0.55558 0.68214 0.0
O905 O 0.19335 0.47068 0.65946 0.0
H906 H 0.28184 0.68843 0.68772 0.0
H907 H 0.31524 0.47078 0.67689 0.0
O908 O 0.17977 0.50339 0.71484 0.0
C909 C 0.18383 0.47628 0.63351 0.0
O910 O 0.15193 0.53253 0.62364 0.0
N911 N 0.14176 0.63476 0.69721 0.0
C912 C 0.04091 0.73754 0.70435 0.0
C913 C 0.04555 0.68283 0.72333 0.0
C914 C 0.09553 0.63073 0.71905 0.0
C915 C 0.14218 0.69223 0.68025 0.0
C916 C 0.09147 0.74481 0.68344 0.0
H917 H 0.08855 0.58274 0.73076 0.0
H918 H 0.17468 0.69212 0.66183 0.0
H919 H 0.03302 0.44341 0.70099 0.0
H920 H 0.9193 0.57811 0.64757 0.0
H921 H 0.42 0.66474 0.68696 0.0
H922 H 1.00592 0.67614 0.73934 0.0
H923 H 0.0879 0.78721 0.66841 0.0
C924 C 0.19721 0.73776 0.08978 0.0
C925 C 0.21588 0.80782 0.08916 0.0
N926 N 0.27102 0.81495 0.07194 0.0
N927 N 0.23927 0.69938 0.07278 0.0
C928 C 0.28502 0.74855 0.06223 0.0
H929 H 0.15436 0.71601 0.1019 0.0
Co930 Co 0.21687 0.59978 0.06884 0.0
C931 C 0.24044 0.55855 0.01204 0.0
O932 O 0.17602 0.53267 0.012 0.0
N933 N 0.19421 0.49877 0.06645 0.0
C934 C 0.14424 0.39075 0.06276 0.0
C935 C 0.13228 0.46327 0.06295 0.0
C936 C 0.24267 0.44553 0.06838 0.0
N937 N 0.21386 0.38005 0.0662 0.0
O938 O 0.29873 0.57614 0.08888 0.0
H939 H 0.08101 0.48763 0.06058 0.0
H940 H 0.29865 0.45423 0.07146 0.0
O941 O 0.26607 0.58971 0.0335 0.0
C942 C 0.29315 0.58571 0.11483 0.0
O943 O 0.23693 0.61764 0.12471 0.0
N944 N 0.13468 0.62771 0.0511 0.0
C945 C 0.0319 0.72854 0.04394 0.0
C946 C 0.08663 0.72391 0.02497 0.0
C947 C 0.13873 0.67394 0.02926 0.0
C948 C 0.0772 0.62728 0.06806 0.0
C949 C 0.0246 0.67798 0.06485 0.0
H950 H 0.18673 0.68092 0.01756 0.0
H951 H 0.07729 0.59478 0.08647 0.0
H952 H 0.32606 0.73645 0.04735 0.0
H953 H 0.19127 0.85018 0.10074 0.0
H954 H 0.10471 0.34947 0.06134 0.0
H955 H 0.09333 0.76355 0.00897 0.0
H956 H 0.98219 0.68154 0.07988 0.0
C957 C 0.03172 0.44721 0.83978 0.0
C958 C 0.96166 0.46588 0.83916 0.0
N959 N 0.95453 0.52102 0.82194 0.0
N960 N 0.0701 0.48927 0.82278 0.0
C961 C 0.02092 0.53502 0.81223 0.0
H962 H 0.05347 0.40437 0.85191 0.0
Co963 Co 0.1697 0.46688 0.81884 0.0
C964 C 0.21093 0.49044 0.76204 0.0
O965 O 0.23681 0.42602 0.762 0.0
N966 N 0.27071 0.44421 0.81645 0.0
C967 C 0.37872 0.39423 0.81276 0.0
C968 C 0.3062 0.38228 0.81296 0.0
C969 C 0.32395 0.49267 0.81838 0.0
N970 N 0.38943 0.46385 0.8162 0.0
O971 O 0.19334 0.54873 0.83888 0.0
H972 H 0.28184 0.33101 0.81059 0.0
H973 H 0.31525 0.54864 0.82146 0.0
O974 O 0.17978 0.51607 0.7835 0.0
C975 C 0.18377 0.54316 0.86483 0.0
O976 O 0.15184 0.48693 0.87471 0.0
N977 N 0.14176 0.38468 0.8011 0.0
C978 C 0.04092 0.28192 0.79394 0.0
C979 C 0.04555 0.33664 0.77497 0.0
C980 C 0.09554 0.38873 0.77926 0.0
C981 C 0.14218 0.3272 0.81806 0.0
C982 C 0.09148 0.27462 0.81485 0.0
H983 H 0.08856 0.43673 0.76756 0.0
H984 H 0.17468 0.32729 0.83647 0.0
H985 H 0.03302 0.57605 0.79735 0.0
H986 H 0.9193 0.44127 0.85075 0.0
H987 H 0.42 0.3547 0.81135 0.0
H988 H 1.00592 0.34335 0.75897 0.0
H989 H 0.08791 0.2322 0.82988 0.0
C990 C 0.32226 0.2817 0.58978 0.0
C991 C 0.30359 0.21164 0.58916 0.0
N992 N 0.24845 0.20451 0.57194 0.0
N993 N 0.2802 0.32008 0.57278 0.0
C994 C 0.23445 0.27091 0.56223 0.0
H995 H 0.36511 0.30345 0.6019 0.0
Co996 Co 0.30259 0.41968 0.56884 0.0
C997 C 0.27903 0.46091 0.51204 0.0
O998 O 0.34345 0.48679 0.512 0.0
N999 N 0.32526 0.52069 0.56645 0.0
C1000 C 0.37523 0.62871 0.56276 0.0
C1001 C 0.38719 0.55619 0.56295 0.0
C1002 C 0.2768 0.57393 0.56838 0.0
N1003 N 0.30561 0.63941 0.5662 0.0
O1004 O 0.22074 0.44333 0.58888 0.0
H1005 H 0.43846 0.53183 0.56058 0.0
H1006 H 0.22082 0.56523 0.57146 0.0
O1007 O 0.2534 0.42976 0.5335 0.0
C1008 C 0.22632 0.43376 0.61483 0.0
O1009 O 0.28254 0.40182 0.62471 0.0
N1010 N 0.38479 0.39175 0.5511 0.0
C1011 C 0.48757 0.29092 0.54394 0.0
C1012 C 0.43284 0.29555 0.52497 0.0
C1013 C 0.38074 0.34553 0.52926 0.0
C1014 C 0.44227 0.39218 0.56806 0.0
C1015 C 0.49487 0.34149 0.56485 0.0
H1016 H 0.33274 0.33854 0.51756 0.0
H1017 H 0.44218 0.42468 0.58647 0.0
H1018 H 0.19341 0.28301 0.54735 0.0
H1019 H 0.3282 0.16928 0.60074 0.0
H1020 H 0.41476 0.66999 0.56134 0.0
H1021 H 0.42614 0.25592 0.50897 0.0
H1022 H 0.53728 0.33792 0.57988 0.0
C1023 C 0.48774 0.57225 0.33978 0.0
C1024 C 0.55781 0.55358 0.33916 0.0
N1025 N 0.56494 0.49844 0.32194 0.0
N1026 N 0.44937 0.53019 0.32278 0.0
C1027 C 0.49855 0.48444 0.31223 0.0
H1028 H 0.466 0.61509 0.35191 0.0
Co1029 Co 0.34977 0.55259 0.31884 0.0
C1030 C 0.30854 0.52902 0.26204 0.0
O1031 O 0.28266 0.59344 0.262 0.0
N1032 N 0.24876 0.57526 0.31645 0.0
C1033 C 0.14075 0.62523 0.31276 0.0
C1034 C 0.21327 0.63719 0.31296 0.0
C1035 C 0.19552 0.5268 0.31838 0.0
N1036 N 0.13004 0.55561 0.3162 0.0
O1037 O 0.32612 0.47073 0.33888 0.0
H1038 H 0.23763 0.68845 0.31059 0.0
H1039 H 0.20422 0.47082 0.32146 0.0
O1040 O 0.33969 0.50339 0.2835 0.0
C1041 C 0.3357 0.47631 0.36483 0.0
O1042 O 0.36763 0.53253 0.37471 0.0
N1043 N 0.3777 0.63478 0.3011 0.0
C1044 C 0.47855 0.73755 0.29394 0.0
C1045 C 0.47391 0.68282 0.27497 0.0
C1046 C 0.42393 0.63073 0.27926 0.0
C1047 C 0.37729 0.69226 0.31806 0.0
C1048 C 0.42799 0.74485 0.31485 0.0
H1049 H 0.43091 0.58273 0.26756 0.0
H1050 H 0.34479 0.69217 0.33647 0.0
H1051 H 0.48644 0.44341 0.29735 0.0
H1052 H 0.60017 0.57819 0.35075 0.0
H1053 H 0.09947 0.66476 0.31135 0.0
H1054 H 0.51354 0.67611 0.25897 0.0
H1055 H 0.43156 0.78726 0.32988 0.0
loop_
_geom_bond_atom_site_label_1
_geom_bond_atom_site_label_2
_geom_bond_distance
_geom_bond_site_symmetry_2
_ccdc_geom_bond_type
C0 C1 1.351 . S
C0 N3 1.368 . S
C0 H5 0.931 . S
C1 C0 1.351 . S
C1 N2 1.373 . S
C1 H29 0.930 . S
N2 C1 1.373 . S
N2 C4 1.340 . S
N3 C0 1.368 . S
N3 C4 1.321 . S
N3 Co6 2.135 . S
C4 N2 1.340 . S
C4 N3 1.321 . S
C4 H28 0.930 . S
H5 C0 0.931 . S
Co6 N3 2.135 . S
Co6 N9 2.121 . S
Co6 O14 2.055 . S
Co6 O17 2.039 . S
Co6 N20 2.140 . S
C7 O8 1.227 . S
C7 O17 1.265 . S
O8 C7 1.227 . S
N9 Co6 2.121 . S
N9 C11 1.375 . S
N9 C12 1.313 . S
C10 C11 1.331 1_565 S
C10 N13 1.379 . S
C10 H30 0.933 . S
C11 N9 1.375 . S
C11 C10 1.331 1_545 S
C11 H15 0.931 . S
C12 N9 1.313 . S
C12 N13 1.344 1_545 S
C12 H16 0.930 . S
N13 C10 1.379 . S
N13 C12 1.344 1_565 S
O14 Co6 2.055 . S
O14 C18 1.253 . S
H15 C11 0.931 . S
H16 C12 0.930 . S
O17 Co6 2.039 . S
O17 C7 1.265 . S
C18 O14 1.253 . S
C18 O19 1.227 . S
O19 C18 1.227 . S
N20 Co6 2.140 . S
N20 C23 1.346 . S
N20 C24 1.345 . S
C21 C22 1.387 . S
C21 C25 1.391 . S
C22 C21 1.387 . S
C22 C23 1.369 . S
C22 H31 0.929 . S
C23 N20 1.346 . S
C23 C22 1.369 . S
C23 H26 0.928 . S
C24 N20 1.345 . S
C24 C25 1.371 . S
C24 H27 0.931 . S
C25 C21 1.391 . S
C25 C24 1.371 . S
C25 H32 0.930 . S
H26 C23 0.928 . S
H27 C24 0.931 . S
H28 C4 0.930 . S
H29 C1 0.930 . S
H30 C10 0.933 . S
H31 C22 0.929 . S
H32 C25 0.930 . S
C33 C34 1.351 . S
C33 N36 1.368 . S
C33 H38 0.931 . S
C34 C33 1.351 . S
C34 N35 1.373 . S
C34 H62 0.930 . S
N35 C34 1.373 . S
N35 C37 1.340 . S
N36 C33 1.368 . S
N36 C37 1.321 . S
N36 Co39 2.135 1_655 S
C37 N35 1.340 . S
C37 N36 1.321 . S
C37 H61 0.930 . S
H38 C33 0.931 . S
Co39 N36 2.135 1_455 S
Co39 N42 2.121 . S
Co39 O47 2.055 . S
Co39 O50 2.039 . S
Co39 N53 2.140 1_565 S
C40 O41 1.230 1_565 S
C40 O50 1.265 . S
O41 C40 1.230 1_545 S
N42 Co39 2.121 . S
N42 C44 1.375 1_565 S
N42 C45 1.313 . S
C43 C44 1.338 . S
C43 N46 1.377 . S
C43 H63 0.930 . S
C44 N42 1.375 1_545 S
C44 C43 1.338 . S
C44 H48 0.931 . S
C45 N42 1.313 . S
C45 N46 1.344 1_565 S
C45 H49 0.930 . S
N46 C43 1.377 . S
N46 C45 1.344 1_545 S
O47 Co39 2.055 . S
O47 C51 1.253 . S
H48 C44 0.931 . S
H49 C45 0.930 . S
O50 Co39 2.039 . S
O50 C40 1.265 . S
C51 O47 1.253 . S
C51 O52 1.227 . S
O52 C51 1.227 . S
N53 Co39 2.140 1_545 S
N53 C56 1.346 1_455 S
N53 C57 1.345 . S
C54 C55 1.387 1_455 S
C54 C58 1.391 . S
C55 C54 1.387 1_655 S
C55 C56 1.369 . S
C55 H64 0.929 . S
C56 N53 1.346 1_655 S
C56 C55 1.369 . S
C56 H59 0.928 . S
C57 N53 1.345 . S
C57 C58 1.371 . S
C57 H60 0.931 . S
C58 C54 1.391 . S
C58 C57 1.371 . S
C58 H65 0.930 . S
H59 C56 0.928 . S
H60 C57 0.931 . S
H61 C37 0.930 . S
H62 C34 0.930 . S
H63 C43 0.930 . S
H64 C55 0.929 . S
H65 C58 0.930 . S
C66 C67 1.351 . S
C66 N69 1.368 . S
C66 H71 0.931 . S
C67 C66 1.351 . S
C67 N68 1.373 . S
C67 H95 0.930 . S
N68 C67 1.373 . S
N68 C70 1.340 . S
N69 C66 1.368 . S
N69 C70 1.321 . S
N69 Co72 2.135 . S
C70 N68 1.340 . S
C70 N69 1.321 . S
C70 H94 0.930 . S
H71 C66 0.931 . S
Co72 N69 2.135 . S
Co72 N75 2.121 . S
Co72 O80 2.055 . S
Co72 O83 2.039 . S
Co72 N86 2.140 . S
C73 O74 1.227 . S
C73 O83 1.265 . S
O74 C73 1.227 . S
N75 Co72 2.121 . S
N75 C77 1.375 . S
N75 C78 1.313 . S
C76 C77 1.331 1_545 S
C76 N79 1.379 . S
C76 H96 0.933 . S
C77 N75 1.375 . S
C77 C76 1.331 1_565 S
C77 H81 0.931 . S
C78 N75 1.313 . S
C78 N79 1.344 1_565 S
C78 H82 0.930 . S
N79 C76 1.379 . S
N79 C78 1.344 1_545 S
O80 Co72 2.055 . S
O80 C84 1.253 . S
H81 C77 0.931 . S
H82 C78 0.930 . S
O83 Co72 2.039 . S
O83 C73 1.265 . S
C84 O80 1.253 . S
C84 O85 1.227 . S
O85 C84 1.227 . S
N86 Co72 2.140 . S
N86 C89 1.346 . S
N86 C90 1.345 . S
C87 C88 1.387 . S
C87 C91 1.391 . S
C88 C87 1.387 . S
C88 C89 1.369 . S
C88 H97 0.929 . S
C89 N86 1.346 . S
C89 C88 1.369 . S
C89 H92 0.928 . S
C90 N86 1.345 . S
C90 C91 1.371 . S
C90 H93 0.931 . S
C91 C87 1.391 . S
C91 C90 1.371 . S
C91 H98 0.930 . S
H92 C89 0.928 . S
H93 C90 0.931 . S
H94 C70 0.930 . S
H95 C67 0.930 . S
H96 C76 0.933 . S
H97 C88 0.929 . S
H98 C91 0.930 . S
C99 C100 1.351 . S
C99 N102 1.368 . S
C99 H104 0.931 . S
C100 C99 1.351 . S
C100 N101 1.373 . S
C100 H128 0.930 . S
N101 C100 1.373 . S
N101 C103 1.340 . S
N102 C99 1.368 . S
N102 C103 1.321 . S
N102 Co105 2.135 . S
C103 N101 1.340 . S
C103 N102 1.321 . S
C103 H127 0.930 . S
H104 C99 0.931 . S
Co105 N102 2.135 . S
Co105 N108 2.121 . S
Co105 O113 2.055 . S
Co105 O116 2.039 . S
Co105 N119 2.140 1_545 S
C106 O107 1.227 1_545 S
C106 O116 1.265 . S
O107 C106 1.227 1_565 S
N108 Co105 2.121 . S
N108 C110 1.375 1_545 S
N108 C111 1.313 . S
C109 C110 1.338 . S
C109 N112 1.377 . S
C109 H129 0.930 . S
C110 N108 1.375 1_565 S
C110 C109 1.338 . S
C110 H114 0.931 . S
C111 N108 1.313 . S
C111 N112 1.344 1_545 S
C111 H115 0.930 . S
N112 C109 1.377 . S
N112 C111 1.344 1_565 S
O113 Co105 2.055 . S
O113 C117 1.253 . S
H114 C110 0.931 . S
H115 C111 0.930 . S
O116 Co105 2.039 . S
O116 C106 1.265 . S
C117 O113 1.253 . S
C117 O118 1.227 . S
O118 C117 1.227 . S
N119 Co105 2.140 1_565 S
N119 C122 1.346 . S
N119 C123 1.345 . S
C120 C121 1.387 . S
C120 C124 1.391 . S
C121 C120 1.387 . S
C121 C122 1.369 . S
C121 H130 0.929 . S
C122 N119 1.346 . S
C122 C121 1.369 . S
C122 H125 0.928 . S
C123 N119 1.345 . S
C123 C124 1.371 . S
C123 H126 0.931 . S
C124 C120 1.391 . S
C124 C123 1.371 . S
C124 H131 0.930 . S
H125 C122 0.928 . S
H126 C123 0.931 . S
H127 C103 0.930 . S
H128 C100 0.930 . S
H129 C109 0.930 . S
H130 C121 0.929 . S
H131 C124 0.930 . S
C132 C133 1.351 . S
C132 N135 1.368 . S
C132 H137 0.931 . S
C133 C132 1.351 . S
C133 N134 1.373 . S
C133 H161 0.930 . S
N134 C133 1.373 . S
N134 C136 1.340 . S
N135 C132 1.368 . S
N135 C136 1.321 . S
N135 Co138 2.135 . S
C136 N134 1.340 . S
C136 N135 1.321 . S
C136 H160 0.930 . S
H137 C132 0.931 . S
Co138 N135 2.135 . S
Co138 N141 2.121 . S
Co138 O146 2.055 . S
Co138 O149 2.039 . S
Co138 N152 2.140 . S
C139 O140 1.227 . S
C139 O149 1.265 . S
O140 C139 1.227 . S
N141 Co138 2.121 . S
N141 C143 1.375 . S
N141 C144 1.313 . S
C142 C143 1.331 1_545 S
C142 N145 1.379 . S
C142 H162 0.933 . S
C143 N141 1.375 . S
C143 C142 1.331 1_565 S
C143 H147 0.931 . S
C144 N141 1.313 . S
C144 N145 1.344 1_565 S
C144 H148 0.930 . S
N145 C142 1.379 . S
N145 C144 1.344 1_545 S
O146 Co138 2.055 . S
O146 C150 1.253 . S
H147 C143 0.931 . S
H148 C144 0.930 . S
O149 Co138 2.039 . S
O149 C139 1.265 . S
C150 O146 1.253 . S
C150 O151 1.227 . S
O151 C150 1.227 . S
N152 Co138 2.140 . S
N152 C155 1.346 . S
N152 C156 1.345 . S
C153 C154 1.387 . S
C153 C157 1.391 . S
C154 C153 1.387 . S
C154 C155 1.369 . S
C154 H163 0.929 . S
C155 N152 1.346 . S
C155 C154 1.369 . S
C155 H158 0.928 . S
C156 N152 1.345 . S
C156 C157 1.371 . S
C156 H159 0.931 . S
C157 C153 1.391 . S
C157 C156 1.371 . S
C157 H164 0.930 . S
H158 C155 0.928 . S
H159 C156 0.931 . S
H160 C136 0.930 . S
H161 C133 0.930 . S
H162 C142 0.933 . S
H163 C154 0.929 . S
H164 C157 0.930 . S
C165 C166 1.351 . S
C165 N168 1.368 . S
C165 H170 0.931 . S
C166 C165 1.351 . S
C166 N167 1.373 . S
C166 H194 0.930 . S
N167 C166 1.373 . S
N167 C169 1.340 . S
N168 C165 1.368 . S
N168 C169 1.321 . S
N168 Co171 2.135 . S
C169 N167 1.340 . S
C169 N168 1.321 . S
C169 H193 0.930 . S
H170 C165 0.931 . S
Co171 N168 2.135 . S
Co171 N174 2.121 . S
Co171 O179 2.055 . S
Co171 O182 2.039 . S
Co171 N185 2.140 1_565 S
C172 O173 1.227 1_565 S
C172 O182 1.265 . S
O173 C172 1.227 1_545 S
N174 Co171 2.121 . S
N174 C176 1.375 1_565 S
N174 C177 1.313 . S
C175 C176 1.338 . S
C175 N178 1.377 . S
C175 H195 0.930 . S
C176 N174 1.375 1_545 S
C176 C175 1.338 . S
C176 H180 0.931 . S
C177 N174 1.313 . S
C177 N178 1.344 1_565 S
C177 H181 0.930 . S
N178 C175 1.377 . S
N178 C177 1.344 1_545 S
O179 Co171 2.055 . S
O179 C183 1.253 . S
H180 C176 0.931 . S
H181 C177 0.930 . S
O182 Co171 2.039 . S
O182 C172 1.265 . S
C183 O179 1.253 . S
C183 O184 1.227 . S
O184 C183 1.227 . S
N185 Co171 2.140 1_545 S
N185 C188 1.346 . S
N185 C189 1.345 . S
C186 C187 1.387 . S
C186 C190 1.391 . S
C187 C186 1.387 . S
C187 C188 1.369 . S
C187 H196 0.929 . S
C188 N185 1.346 . S
C188 C187 1.369 . S
C188 H191 0.928 . S
C189 N185 1.345 . S
C189 C190 1.371 . S
C189 H192 0.931 . S
C190 C186 1.391 . S
C190 C189 1.371 . S
C190 H197 0.930 . S
H191 C188 0.928 . S
H192 C189 0.931 . S
H193 C169 0.930 . S
H194 C166 0.930 . S
H195 C175 0.930 . S
H196 C187 0.929 . S
H197 C190 0.930 . S
C198 C199 1.351 . S
C198 N201 1.368 . S
C198 H203 0.931 . S
C199 C198 1.351 . S
C199 N200 1.373 . S
C199 H227 0.930 . S
N200 C199 1.373 . S
N200 C202 1.340 . S
N201 C198 1.368 . S
N201 C202 1.321 . S
N201 Co204 2.135 . S
C202 N200 1.340 . S
C202 N201 1.321 . S
C202 H226 0.930 . S
H203 C198 0.931 . S
Co204 N201 2.135 . S
Co204 N207 2.121 . S
Co204 O212 2.055 . S
Co204 O215 2.039 . S
Co204 N218 2.140 . S
C205 O206 1.227 . S
C205 O215 1.265 . S
O206 C205 1.227 . S
N207 Co204 2.121 . S
N207 C209 1.375 . S
N207 C210 1.313 . S
C208 C209 1.331 1_565 S
C208 N211 1.379 . S
C208 H228 0.933 . S
C209 N207 1.375 . S
C209 C208 1.331 1_545 S
C209 H213 0.931 . S
C210 N207 1.313 . S
C210 N211 1.344 1_545 S
C210 H214 0.930 . S
N211 C208 1.379 . S
N211 C210 1.344 1_565 S
O212 Co204 2.055 . S
O212 C216 1.253 . S
H213 C209 0.931 . S
H214 C210 0.930 . S
O215 Co204 2.039 . S
O215 C205 1.265 . S
C216 O212 1.253 . S
C216 O217 1.227 . S
O217 C216 1.227 . S
N218 Co204 2.140 . S
N218 C221 1.346 . S
N218 C222 1.345 . S
C219 C220 1.387 . S
C219 C223 1.391 . S
C220 C219 1.387 . S
C220 C221 1.369 . S
C220 H229 0.929 . S
C221 N218 1.346 . S
C221 C220 1.369 . S
C221 H224 0.928 . S
C222 N218 1.345 . S
C222 C223 1.371 . S
C222 H225 0.931 . S
C223 C219 1.391 . S
C223 C222 1.371 . S
C223 H230 0.930 . S
H224 C221 0.928 . S
H225 C222 0.931 . S
H226 C202 0.930 . S
H227 C199 0.930 . S
H228 C208 0.933 . S
H229 C220 0.929 . S
H230 C223 0.930 . S
C231 C232 1.351 . S
C231 N234 1.368 . S
C231 H236 0.931 . S
C232 C231 1.351 . S
C232 N233 1.373 . S
C232 H260 0.930 . S
N233 C232 1.373 . S
N233 C235 1.340 . S
N234 C231 1.368 . S
N234 C235 1.321 . S
N234 Co237 2.135 1_655 S
C235 N233 1.340 . S
C235 N234 1.321 . S
C235 H259 0.930 . S
H236 C231 0.931 . S
Co237 N234 2.135 1_455 S
Co237 N240 2.121 . S
Co237 O245 2.055 . S
Co237 O248 2.039 . S
Co237 N251 2.140 1_545 S
C238 O239 1.230 1_545 S
C238 O248 1.265 . S
O239 C238 1.230 1_565 S
N240 Co237 2.121 . S
N240 C242 1.375 1_545 S
N240 C243 1.313 . S
C241 C242 1.338 . S
C241 N244 1.377 . S
C241 H261 0.930 . S
C242 N240 1.375 1_565 S
C242 C241 1.338 . S
C242 H246 0.931 . S
C243 N240 1.313 . S
C243 N244 1.344 1_545 S
C243 H247 0.930 . S
N244 C241 1.377 . S
N244 C243 1.344 1_565 S
O245 Co237 2.055 . S
O245 C249 1.253 . S
H246 C242 0.931 . S
H247 C243 0.930 . S
O248 Co237 2.039 . S
O248 C238 1.265 . S
C249 O245 1.253 . S
C249 O250 1.227 . S
O250 C249 1.227 . S
N251 Co237 2.140 1_565 S
N251 C254 1.346 1_455 S
N251 C255 1.345 . S
C252 C253 1.387 1_455 S
C252 C256 1.391 . S
C253 C252 1.387 1_655 S
C253 C254 1.369 . S
C253 H262 0.929 . S
C254 N251 1.346 1_655 S
C254 C253 1.369 . S
C254 H257 0.928 . S
C255 N251 1.345 . S
C255 C256 1.371 . S
C255 H258 0.931 . S
C256 C252 1.391 . S
C256 C255 1.371 . S
C256 H263 0.930 . S
H257 C254 0.928 . S
H258 C255 0.931 . S
H259 C235 0.930 . S
H260 C232 0.930 . S
H261 C241 0.930 . S
H262 C253 0.929 . S
H263 C256 0.930 . S
C264 C265 1.351 . S
C264 N267 1.368 . S
C264 H269 0.931 . S
C265 C264 1.351 . S
C265 N266 1.373 . S
C265 H293 0.930 . S
N266 C265 1.373 . S
N266 C268 1.340 . S
N267 C264 1.368 . S
N267 C268 1.321 . S
N267 Co270 2.135 . S
C268 N266 1.340 . S
C268 N267 1.321 . S
C268 H292 0.930 . S
H269 C264 0.931 . S
Co270 N267 2.135 . S
Co270 N273 2.121 . S
Co270 O278 2.055 . S
Co270 O281 2.039 . S
Co270 N284 2.140 . S
C271 O272 1.227 . S
C271 O281 1.265 . S
O272 C271 1.227 . S
N273 Co270 2.121 . S
N273 C275 1.375 . S
N273 C276 1.313 . S
C274 C275 1.331 1_545 S
C274 N277 1.379 . S
C274 H294 0.933 . S
C275 N273 1.375 . S
C275 C274 1.331 1_565 S
C275 H279 0.931 . S
C276 N273 1.313 . S
C276 N277 1.344 1_565 S
C276 H280 0.930 . S
N277 C274 1.379 . S
N277 C276 1.344 1_545 S
O278 Co270 2.055 . S
O278 C282 1.253 . S
H279 C275 0.931 . S
H280 C276 0.930 . S
O281 Co270 2.039 . S
O281 C271 1.265 . S
C282 O278 1.253 . S
C282 O283 1.227 . S
O283 C282 1.227 . S
N284 Co270 2.140 . S
N284 C287 1.346 . S
N284 C288 1.345 . S
C285 C286 1.387 . S
C285 C289 1.391 . S
C286 C285 1.387 . S
C286 C287 1.369 . S
C286 H295 0.929 . S
C287 N284 1.346 . S
C287 C286 1.369 . S
C287 H290 0.928 . S
C288 N284 1.345 . S
C288 C289 1.371 . S
C288 H291 0.931 . S
C289 C285 1.391 . S
C289 C288 1.371 . S
C289 H296 0.930 . S
H290 C287 0.928 . S
H291 C288 0.931 . S
H292 C268 0.930 . S
H293 C265 0.930 . S
H294 C274 0.933 . S
H295 C286 0.929 . S
H296 C289 0.930 . S
C297 C298 1.351 . S
C297 N300 1.368 . S
C297 H302 0.931 . S
C298 C297 1.351 . S
C298 N299 1.373 . S
C298 H326 0.930 . S
N299 C298 1.373 . S
N299 C301 1.340 . S
N300 C297 1.368 . S
N300 C301 1.321 . S
N300 Co303 2.135 1_455 S
C301 N299 1.340 . S
C301 N300 1.321 . S
C301 H325 0.930 . S
H302 C297 0.931 . S
Co303 N300 2.135 1_655 S
Co303 N306 2.121 . S
Co303 O311 2.055 . S
Co303 O314 2.039 . S
Co303 N317 2.140 1_545 S
C304 O305 1.230 1_545 S
C304 O314 1.265 . S
O305 C304 1.230 1_565 S
N306 Co303 2.121 . S
N306 C308 1.375 1_545 S
N306 C309 1.313 . S
C307 C308 1.338 . S
C307 N310 1.377 . S
C307 H327 0.930 . S
C308 N306 1.375 1_565 S
C308 C307 1.338 . S
C308 H312 0.931 . S
C309 N306 1.313 . S
C309 N310 1.344 1_545 S
C309 H313 0.930 . S
N310 C307 1.377 . S
N310 C309 1.344 1_565 S
O311 Co303 2.055 . S
O311 C315 1.253 . S
H312 C308 0.931 . S
H313 C309 0.930 . S
O314 Co303 2.039 . S
O314 C304 1.265 . S
C315 O311 1.253 . S
C315 O316 1.227 . S
O316 C315 1.227 . S
N317 Co303 2.140 1_565 S
N317 C320 1.346 1_655 S
N317 C321 1.345 . S
C318 C319 1.387 1_655 S
C318 C322 1.391 . S
C319 C318 1.387 1_455 S
C319 C320 1.369 . S
C319 H328 0.929 . S
C320 N317 1.346 1_455 S
C320 C319 1.369 . S
C320 H323 0.928 . S
C321 N317 1.345 . S
C321 C322 1.371 . S
C321 H324 0.931 . S
C322 C318 1.391 . S
C322 C321 1.371 . S
C322 H329 0.930 . S
H323 C320 0.928 . S
H324 C321 0.931 . S
H325 C301 0.930 . S
H326 C298 0.930 . S
H327 C307 0.930 . S
H328 C319 0.929 . S
H329 C322 0.930 . S
C330 C331 1.351 . S
C330 N333 1.368 . S
C330 H335 0.931 . S
C331 C330 1.351 . S
C331 N332 1.373 . S
C331 H359 0.930 . S
N332 C331 1.373 . S
N332 C334 1.340 . S
N333 C330 1.368 . S
N333 C334 1.321 . S
N333 Co336 2.135 . S
C334 N332 1.340 . S
C334 N333 1.321 . S
C334 H358 0.930 . S
H335 C330 0.931 . S
Co336 N333 2.135 . S
Co336 N339 2.121 . S
Co336 O344 2.055 . S
Co336 O347 2.039 . S
Co336 N350 2.140 . S
C337 O338 1.227 . S
C337 O347 1.265 . S
O338 C337 1.227 . S
N339 Co336 2.121 . S
N339 C341 1.375 . S
N339 C342 1.313 . S
C340 C341 1.331 1_565 S
C340 N343 1.379 . S
C340 H360 0.933 . S
C341 N339 1.375 . S
C341 C340 1.331 1_545 S
C341 H345 0.931 . S
C342 N339 1.313 . S
C342 N343 1.344 1_545 S
C342 H346 0.930 . S
N343 C340 1.379 . S
N343 C342 1.344 1_565 S
O344 Co336 2.055 . S
O344 C348 1.253 . S
H345 C341 0.931 . S
H346 C342 0.930 . S
O347 Co336 2.039 . S
O347 C337 1.265 . S
C348 O344 1.253 . S
C348 O349 1.227 . S
O349 C348 1.227 . S
N350 Co336 2.140 . S
N350 C353 1.346 . S
N350 C354 1.345 . S
C351 C352 1.387 . S
C351 C355 1.391 . S
C352 C351 1.387 . S
C352 C353 1.369 . S
C352 H361 0.929 . S
C353 N350 1.346 . S
C353 C352 1.369 . S
C353 H356 0.928 . S
C354 N350 1.345 . S
C354 C355 1.371 . S
C354 H357 0.931 . S
C355 C351 1.391 . S
C355 C354 1.371 . S
C355 H362 0.930 . S
H356 C353 0.928 . S
H357 C354 0.931 . S
H358 C334 0.930 . S
H359 C331 0.930 . S
H360 C340 0.933 . S
H361 C352 0.929 . S
H362 C355 0.930 . S
C363 C364 1.351 . S
C363 N366 1.368 . S
C363 H368 0.931 . S
C364 C363 1.351 . S
C364 N365 1.373 . S
C364 H392 0.930 . S
N365 C364 1.373 . S
N365 C367 1.340 . S
N366 C363 1.368 . S
N366 C367 1.321 . S
N366 Co369 2.135 . S
C367 N365 1.340 . S
C367 N366 1.321 . S
C367 H391 0.930 . S
H368 C363 0.931 . S
Co369 N366 2.135 . S
Co369 N372 2.121 . S
Co369 O377 2.055 . S
Co369 O380 2.039 . S
Co369 N383 2.140 1_565 S
C370 O371 1.227 1_565 S
C370 O380 1.265 . S
O371 C370 1.227 1_545 S
N372 Co369 2.121 . S
N372 C374 1.375 1_565 S
N372 C375 1.313 . S
C373 C374 1.338 . S
C373 N376 1.377 . S
C373 H393 0.930 . S
C374 N372 1.375 1_545 S
C374 C373 1.338 . S
C374 H378 0.931 . S
C375 N372 1.313 . S
C375 N376 1.344 1_565 S
C375 H379 0.930 . S
N376 C373 1.377 . S
N376 C375 1.344 1_545 S
O377 Co369 2.055 . S
O377 C381 1.253 . S
H378 C374 0.931 . S
H379 C375 0.930 . S
O380 Co369 2.039 . S
O380 C370 1.265 . S
C381 O377 1.253 . S
C381 O382 1.227 . S
O382 C381 1.227 . S
N383 Co369 2.140 1_545 S
N383 C386 1.346 . S
N383 C387 1.345 . S
C384 C385 1.387 . S
C384 C388 1.391 . S
C385 C384 1.387 . S
C385 C386 1.369 . S
C385 H394 0.929 . S
C386 N383 1.346 . S
C386 C385 1.369 . S
C386 H389 0.928 . S
C387 N383 1.345 . S
C387 C388 1.371 . S
C387 H390 0.931 . S
C388 C384 1.391 . S
C388 C387 1.371 . S
C388 H395 0.930 . S
H389 C386 0.928 . S
H390 C387 0.931 . S
H391 C367 0.930 . S
H392 C364 0.930 . S
H393 C373 0.930 . S
H394 C385 0.929 . S
H395 C388 0.930 . S
C396 C397 1.351 . S
C396 N399 1.368 . S
C396 H401 0.931 . S
C397 C396 1.351 . S
C397 N398 1.373 . S
C397 H425 0.930 . S
N398 C397 1.373 . S
N398 C400 1.340 . S
N399 C396 1.368 . S
N399 C400 1.321 . S
N399 Co402 2.135 . S
C400 N398 1.340 . S
C400 N399 1.321 . S
C400 H424 0.930 . S
H401 C396 0.931 . S
Co402 N399 2.135 . S
Co402 N405 2.121 . S
Co402 O410 2.055 . S
Co402 O413 2.039 . S
Co402 N416 2.140 . S
C403 O404 1.227 . S
C403 O413 1.265 . S
O404 C403 1.227 . S
N405 Co402 2.121 . S
N405 C407 1.375 . S
N405 C408 1.313 . S
C406 C407 1.331 1_565 S
C406 N409 1.379 . S
C406 H426 0.933 . S
C407 N405 1.375 . S
C407 C406 1.331 1_545 S
C407 H411 0.931 . S
C408 N405 1.313 . S
C408 N409 1.344 1_545 S
C408 H412 0.930 . S
N409 C406 1.379 . S
N409 C408 1.344 1_565 S
O410 Co402 2.055 . S
O410 C414 1.253 . S
H411 C407 0.931 . S
H412 C408 0.930 . S
O413 Co402 2.039 . S
O413 C403 1.265 . S
C414 O410 1.253 . S
C414 O415 1.227 . S
O415 C414 1.227 . S
N416 Co402 2.140 . S
N416 C419 1.346 . S
N416 C420 1.345 . S
C417 C418 1.387 . S
C417 C421 1.391 . S
C418 C417 1.387 . S
C418 C419 1.369 . S
C418 H427 0.929 . S
C419 N416 1.346 . S
C419 C418 1.369 . S
C419 H422 0.928 . S
C420 N416 1.345 . S
C420 C421 1.371 . S
C420 H423 0.931 . S
C421 C417 1.391 . S
C421 C420 1.371 . S
C421 H428 0.930 . S
H422 C419 0.928 . S
H423 C420 0.931 . S
H424 C400 0.930 . S
H425 C397 0.930 . S
H426 C406 0.933 . S
H427 C418 0.929 . S
H428 C421 0.930 . S
C429 C430 1.351 . S
C429 N432 1.368 . S
C429 H434 0.931 . S
C430 C429 1.351 . S
C430 N431 1.373 . S
C430 H458 0.930 . S
N431 C430 1.373 . S
N431 C433 1.340 . S
N432 C429 1.368 . S
N432 C433 1.321 . S
N432 Co435 2.135 . S
C433 N431 1.340 . S
C433 N432 1.321 . S
C433 H457 0.930 . S
H434 C429 0.931 . S
Co435 N432 2.135 . S
Co435 N438 2.121 . S
Co435 O443 2.055 . S
Co435 O446 2.039 . S
Co435 N449 2.140 1_545 S
C436 O437 1.227 1_545 S
C436 O446 1.265 . S
O437 C436 1.227 1_565 S
N438 Co435 2.121 . S
N438 C440 1.375 1_545 S
N438 C441 1.313 . S
C439 C440 1.338 . S
C439 N442 1.377 . S
C439 H459 0.930 . S
C440 N438 1.375 1_565 S
C440 C439 1.338 . S
C440 H444 0.931 . S
C441 N438 1.313 . S
C441 N442 1.344 1_545 S
C441 H445 0.930 . S
N442 C439 1.377 . S
N442 C441 1.344 1_565 S
O443 Co435 2.055 . S
O443 C447 1.253 . S
H444 C440 0.931 . S
H445 C441 0.930 . S
O446 Co435 2.039 . S
O446 C436 1.265 . S
C447 O443 1.253 . S
C447 O448 1.227 . S
O448 C447 1.227 . S
N449 Co435 2.140 1_565 S
N449 C452 1.346 . S
N449 C453 1.345 . S
C450 C451 1.387 . S
C450 C454 1.391 . S
C451 C450 1.387 . S
C451 C452 1.369 . S
C451 H460 0.929 . S
C452 N449 1.346 . S
C452 C451 1.369 . S
C452 H455 0.928 . S
C453 N449 1.345 . S
C453 C454 1.371 . S
C453 H456 0.931 . S
C454 C450 1.391 . S
C454 C453 1.371 . S
C454 H461 0.930 . S
H455 C452 0.928 . S
H456 C453 0.931 . S
H457 C433 0.930 . S
H458 C430 0.930 . S
H459 C439 0.930 . S
H460 C451 0.929 . S
H461 C454 0.930 . S
C462 C463 1.351 . S
C462 N465 1.368 . S
C462 H467 0.931 . S
C463 C462 1.351 . S
C463 N464 1.373 . S
C463 H491 0.930 . S
N464 C463 1.373 . S
N464 C466 1.340 . S
N465 C462 1.368 . S
N465 C466 1.321 . S
N465 Co468 2.135 . S
C466 N464 1.340 . S
C466 N465 1.321 . S
C466 H490 0.930 . S
H467 C462 0.931 . S
Co468 N465 2.135 . S
Co468 N471 2.121 . S
Co468 O476 2.055 . S
Co468 O479 2.039 . S
Co468 N482 2.140 . S
C469 O470 1.227 . S
C469 O479 1.265 . S
O470 C469 1.227 . S
N471 Co468 2.121 . S
N471 C473 1.375 . S
N471 C474 1.313 . S
C472 C473 1.331 1_545 S
C472 N475 1.379 . S
C472 H492 0.933 . S
C473 N471 1.375 . S
C473 C472 1.331 1_565 S
C473 H477 0.931 . S
C474 N471 1.313 . S
C474 N475 1.344 1_565 S
C474 H478 0.930 . S
N475 C472 1.379 . S
N475 C474 1.344 1_545 S
O476 Co468 2.055 . S
O476 C480 1.253 . S
H477 C473 0.931 . S
H478 C474 0.930 . S
O479 Co468 2.039 . S
O479 C469 1.265 . S
C480 O476 1.253 . S
C480 O481 1.227 . S
O481 C480 1.227 . S
N482 Co468 2.140 . S
N482 C485 1.346 . S
N482 C486 1.345 . S
C483 C484 1.387 . S
C483 C487 1.391 . S
C484 C483 1.387 . S
C484 C485 1.369 . S
C484 H493 0.929 . S
C485 N482 1.346 . S
C485 C484 1.369 . S
C485 H488 0.928 . S
C486 N482 1.345 . S
C486 C487 1.371 . S
C486 H489 0.931 . S
C487 C483 1.391 . S
C487 C486 1.371 . S
C487 H494 0.930 . S
H488 C485 0.928 . S
H489 C486 0.931 . S
H490 C466 0.930 . S
H491 C463 0.930 . S
H492 C472 0.933 . S
H493 C484 0.929 . S
H494 C487 0.930 . S
C495 C496 1.351 . S
C495 N498 1.368 . S
C495 H500 0.931 . S
C496 C495 1.351 . S
C496 N497 1.373 . S
C496 H524 0.930 . S
N497 C496 1.373 . S
N497 C499 1.340 . S
N498 C495 1.368 . S
N498 C499 1.321 . S
N498 Co501 2.135 1_455 S
C499 N497 1.340 . S
C499 N498 1.321 . S
C499 H523 0.930 . S
H500 C495 0.931 . S
Co501 N498 2.135 1_655 S
Co501 N504 2.121 . S
Co501 O509 2.055 . S
Co501 O512 2.039 . S
Co501 N515 2.140 1_565 S
C502 O503 1.230 1_565 S
C502 O512 1.265 . S
O503 C502 1.230 1_545 S
N504 Co501 2.121 . S
N504 C506 1.375 1_565 S
N504 C507 1.313 . S
C505 C506 1.338 . S
C505 N508 1.377 . S
C505 H525 0.930 . S
C506 N504 1.375 1_545 S
C506 C505 1.338 . S
C506 H510 0.931 . S
C507 N504 1.313 . S
C507 N508 1.344 1_565 S
C507 H511 0.930 . S
N508 C505 1.377 . S
N508 C507 1.344 1_545 S
O509 Co501 2.055 . S
O509 C513 1.253 . S
H510 C506 0.931 . S
H511 C507 0.930 . S
O512 Co501 2.039 . S
O512 C502 1.265 . S
C513 O509 1.253 . S
C513 O514 1.227 . S
O514 C513 1.227 . S
N515 Co501 2.140 1_545 S
N515 C518 1.346 1_655 S
N515 C519 1.345 . S
C516 C517 1.387 1_655 S
C516 C520 1.391 . S
C517 C516 1.387 1_455 S
C517 C518 1.369 . S
C517 H526 0.929 . S
C518 N515 1.346 1_455 S
C518 C517 1.369 . S
C518 H521 0.928 . S
C519 N515 1.345 . S
C519 C520 1.371 . S
C519 H522 0.931 . S
C520 C516 1.391 . S
C520 C519 1.371 . S
C520 H527 0.930 . S
H521 C518 0.928 . S
H522 C519 0.931 . S
H523 C499 0.930 . S
H524 C496 0.930 . S
H525 C505 0.930 . S
H526 C517 0.929 . S
H527 C520 0.930 . S
C528 C529 1.351 . S
C528 N531 1.368 . S
C528 H533 0.931 . S
C529 C528 1.351 . S
C529 N530 1.373 . S
C529 H557 0.930 . S
N530 C529 1.373 . S
N530 C532 1.340 . S
N531 C528 1.368 . S
N531 C532 1.321 . S
N531 Co534 2.135 . S
C532 N530 1.340 . S
C532 N531 1.321 . S
C532 H556 0.930 . S
H533 C528 0.931 . S
Co534 N531 2.135 . S
Co534 N537 2.121 . S
Co534 O542 2.055 . S
Co534 O545 2.039 . S
Co534 N548 2.140 . S
C535 O536 1.227 . S
C535 O545 1.265 . S
O536 C535 1.227 . S
N537 Co534 2.121 . S
N537 C539 1.375 . S
N537 C540 1.313 . S
C538 C539 1.338 . S
C538 N541 1.377 . S
C538 H558 0.930 . S
C539 N537 1.375 . S
C539 C538 1.338 . S
C539 H543 0.931 . S
C540 N537 1.313 . S
C540 N541 1.344 . S
C540 H544 0.930 . S
N541 C538 1.377 . S
N541 C540 1.344 . S
O542 Co534 2.055 . S
O542 C546 1.253 . S
H543 C539 0.931 . S
H544 C540 0.930 . S
O545 Co534 2.039 . S
O545 C535 1.265 . S
C546 O542 1.253 . S
C546 O547 1.227 . S
O547 C546 1.227 . S
N548 Co534 2.140 . S
N548 C551 1.346 . S
N548 C552 1.345 . S
C549 C550 1.387 . S
C549 C553 1.391 . S
C550 C549 1.387 . S
C550 C551 1.369 . S
C550 H559 0.929 . S
C551 N548 1.346 . S
C551 C550 1.369 . S
C551 H554 0.928 . S
C552 N548 1.345 . S
C552 C553 1.371 . S
C552 H555 0.931 . S
C553 C549 1.391 . S
C553 C552 1.371 . S
C553 H560 0.930 . S
H554 C551 0.928 . S
H555 C552 0.931 . S
H556 C532 0.930 . S
H557 C529 0.930 . S
H558 C538 0.930 . S
H559 C550 0.929 . S
H560 C553 0.930 . S
C561 C562 1.351 . S
C561 N564 1.368 . S
C561 H566 0.931 . S
C562 C561 1.351 . S
C562 N563 1.373 . S
C562 H590 0.930 . S
N563 C562 1.373 . S
N563 C565 1.340 . S
N564 C561 1.368 . S
N564 C565 1.321 . S
N564 Co567 2.135 . S
C565 N563 1.340 . S
C565 N564 1.321 . S
C565 H589 0.930 . S
H566 C561 0.931 . S
Co567 N564 2.135 . S
Co567 N570 2.121 . S
Co567 O575 2.055 . S
Co567 O578 2.039 . S
Co567 N581 2.140 . S
C568 O569 1.227 . S
C568 O578 1.265 . S
O569 C568 1.227 . S
N570 Co567 2.121 . S
N570 C572 1.375 . S
N570 C573 1.313 . S
C571 C572 1.338 . S
C571 N574 1.377 . S
C571 H591 0.930 . S
C572 N570 1.375 . S
C572 C571 1.338 . S
C572 H576 0.931 . S
C573 N570 1.313 . S
C573 N574 1.344 . S
C573 H577 0.930 . S
N574 C571 1.377 . S
N574 C573 1.344 . S
O575 Co567 2.055 . S
O575 C579 1.253 . S
H576 C572 0.931 . S
H577 C573 0.930 . S
O578 Co567 2.039 . S
O578 C568 1.265 . S
C579 O575 1.253 . S
C579 O580 1.227 . S
O580 C579 1.227 . S
N581 Co567 2.140 . S
N581 C584 1.346 . S
N581 C585 1.345 . S
C582 C583 1.387 . S
C582 C586 1.391 . S
C583 C582 1.387 . S
C583 C584 1.369 . S
C583 H592 0.929 . S
C584 N581 1.346 . S
C584 C583 1.369 . S
C584 H587 0.928 . S
C585 N581 1.345 . S
C585 C586 1.371 . S
C585 H588 0.931 . S
C586 C582 1.391 . S
C586 C585 1.371 . S
C586 H593 0.930 . S
H587 C584 0.928 . S
H588 C585 0.931 . S
H589 C565 0.930 . S
H590 C562 0.930 . S
H591 C571 0.930 . S
H592 C583 0.929 . S
H593 C586 0.930 . S
C594 C595 1.351 . S
C594 N597 1.368 . S
C594 H599 0.931 . S
C595 C594 1.351 . S
C595 N596 1.373 . S
C595 H623 0.930 . S
N596 C595 1.373 . S
N596 C598 1.340 . S
N597 C594 1.368 . S
N597 C598 1.321 . S
N597 Co600 2.135 . S
C598 N596 1.340 . S
C598 N597 1.321 . S
C598 H622 0.930 . S
H599 C594 0.931 . S
Co600 N597 2.135 . S
Co600 N603 2.121 . S
Co600 O608 2.055 . S
Co600 O611 2.039 . S
Co600 N614 2.140 . S
C601 O602 1.227 . S
C601 O611 1.265 . S
O602 C601 1.227 . S
N603 Co600 2.121 . S
N603 C605 1.375 . S
N603 C606 1.313 . S
C604 C605 1.338 . S
C604 N607 1.377 . S
C604 H624 0.930 . S
C605 N603 1.375 . S
C605 C604 1.338 . S
C605 H609 0.931 . S
C606 N603 1.313 . S
C606 N607 1.344 . S
C606 H610 0.930 . S
N607 C604 1.377 . S
N607 C606 1.344 . S
O608 Co600 2.055 . S
O608 C612 1.253 . S
H609 C605 0.931 . S
H610 C606 0.930 . S
O611 Co600 2.039 . S
O611 C601 1.265 . S
C612 O608 1.253 . S
C612 O613 1.227 . S
O613 C612 1.227 . S
N614 Co600 2.140 . S
N614 C617 1.346 . S
N614 C618 1.345 . S
C615 C616 1.387 . S
C615 C619 1.391 . S
C616 C615 1.387 . S
C616 C617 1.369 . S
C616 H625 0.929 . S
C617 N614 1.346 . S
C617 C616 1.369 . S
C617 H620 0.928 . S
C618 N614 1.345 . S
C618 C619 1.371 . S
C618 H621 0.931 . S
C619 C615 1.391 . S
C619 C618 1.371 . S
C619 H626 0.930 . S
H620 C617 0.928 . S
H621 C618 0.931 . S
H622 C598 0.930 . S
H623 C595 0.930 . S
H624 C604 0.930 . S
H625 C616 0.929 . S
H626 C619 0.930 . S
C627 C628 1.351 . S
C627 N630 1.368 . S
C627 H632 0.931 . S
C628 C627 1.351 . S
C628 N629 1.373 . S
C628 H656 0.930 . S
N629 C628 1.373 . S
N629 C631 1.340 . S
N630 C627 1.368 . S
N630 C631 1.321 . S
N630 Co633 2.135 1_455 S
C631 N629 1.340 . S
C631 N630 1.321 . S
C631 H655 0.930 . S
H632 C627 0.931 . S
Co633 N630 2.135 1_655 S
Co633 N636 2.121 . S
Co633 O641 2.055 . S
Co633 O644 2.039 . S
Co633 N647 2.140 . S
C634 O635 1.230 . S
C634 O644 1.265 . S
O635 C634 1.230 . S
N636 Co633 2.121 . S
N636 C638 1.375 . S
N636 C639 1.313 . S
C637 C638 1.338 . S
C637 N640 1.377 . S
C637 H657 0.930 . S
C638 N636 1.375 . S
C638 C637 1.338 . S
C638 H642 0.931 . S
C639 N636 1.313 . S
C639 N640 1.344 . S
C639 H643 0.930 . S
N640 C637 1.377 . S
N640 C639 1.344 . S
O641 Co633 2.055 . S
O641 C645 1.253 . S
H642 C638 0.931 . S
H643 C639 0.930 . S
O644 Co633 2.039 . S
O644 C634 1.265 . S
C645 O641 1.253 . S
C645 O646 1.227 . S
O646 C645 1.227 . S
N647 Co633 2.140 . S
N647 C650 1.346 1_655 S
N647 C651 1.345 . S
C648 C649 1.387 1_655 S
C648 C652 1.391 . S
C649 C648 1.387 1_455 S
C649 C650 1.369 . S
C649 H658 0.929 . S
C650 N647 1.346 1_455 S
C650 C649 1.369 . S
C650 H653 0.928 . S
C651 N647 1.345 . S
C651 C652 1.371 . S
C651 H654 0.931 . S
C652 C648 1.391 . S
C652 C651 1.371 . S
C652 H659 0.930 . S
H653 C650 0.928 . S
H654 C651 0.931 . S
H655 C631 0.930 . S
H656 C628 0.930 . S
H657 C637 0.930 . S
H658 C649 0.929 . S
H659 C652 0.930 . S
C660 C661 1.351 . S
C660 N663 1.368 . S
C660 H665 0.931 . S
C661 C660 1.351 . S
C661 N662 1.373 . S
C661 H689 0.930 . S
N662 C661 1.373 . S
N662 C664 1.340 . S
N663 C660 1.368 . S
N663 C664 1.321 . S
N663 Co666 2.135 . S
C664 N662 1.340 . S
C664 N663 1.321 . S
C664 H688 0.930 . S
H665 C660 0.931 . S
Co666 N663 2.135 . S
Co666 N669 2.121 . S
Co666 O674 2.055 . S
Co666 O677 2.039 . S
Co666 N680 2.140 . S
C667 O668 1.227 . S
C667 O677 1.265 . S
O668 C667 1.227 . S
N669 Co666 2.121 . S
N669 C671 1.375 . S
N669 C672 1.313 . S
C670 C671 1.338 . S
C670 N673 1.377 . S
C670 H690 0.930 . S
C671 N669 1.375 . S
C671 C670 1.338 . S
C671 H675 0.931 . S
C672 N669 1.313 . S
C672 N673 1.344 . S
C672 H676 0.930 . S
N673 C670 1.377 . S
N673 C672 1.344 . S
O674 Co666 2.055 . S
O674 C678 1.253 . S
H675 C671 0.931 . S
H676 C672 0.930 . S
O677 Co666 2.039 . S
O677 C667 1.265 . S
C678 O674 1.253 . S
C678 O679 1.227 . S
O679 C678 1.227 . S
N680 Co666 2.140 . S
N680 C683 1.346 . S
N680 C684 1.345 . S
C681 C682 1.387 . S
C681 C685 1.391 . S
C682 C681 1.387 . S
C682 C683 1.369 . S
C682 H691 0.929 . S
C683 N680 1.346 . S
C683 C682 1.369 . S
C683 H686 0.928 . S
C684 N680 1.345 . S
C684 C685 1.371 . S
C684 H687 0.931 . S
C685 C681 1.391 . S
C685 C684 1.371 . S
C685 H692 0.930 . S
H686 C683 0.928 . S
H687 C684 0.931 . S
H688 C664 0.930 . S
H689 C661 0.930 . S
H690 C670 0.930 . S
H691 C682 0.929 . S
H692 C685 0.930 . S
C693 C694 1.351 . S
C693 N696 1.368 . S
C693 H698 0.931 . S
C694 C693 1.351 . S
C694 N695 1.373 . S
C694 H722 0.930 . S
N695 C694 1.373 . S
N695 C697 1.340 . S
N696 C693 1.368 . S
N696 C697 1.321 . S
N696 Co699 2.135 1_455 S
C697 N695 1.340 . S
C697 N696 1.321 . S
C697 H721 0.930 . S
H698 C693 0.931 . S
Co699 N696 2.135 1_655 S
Co699 N702 2.121 . S
Co699 O707 2.055 . S
Co699 O710 2.039 . S
Co699 N713 2.140 . S
C700 O701 1.230 . S
C700 O710 1.265 . S
O701 C700 1.230 . S
N702 Co699 2.121 . S
N702 C704 1.375 . S
N702 C705 1.313 . S
C703 C704 1.338 . S
C703 N706 1.377 . S
C703 H723 0.930 . S
C704 N702 1.375 . S
C704 C703 1.338 . S
C704 H708 0.931 . S
C705 N702 1.313 . S
C705 N706 1.344 . S
C705 H709 0.930 . S
N706 C703 1.377 . S
N706 C705 1.344 . S
O707 Co699 2.055 . S
O707 C711 1.253 . S
H708 C704 0.931 . S
H709 C705 0.930 . S
O710 Co699 2.039 . S
O710 C700 1.265 . S
C711 O707 1.253 . S
C711 O712 1.227 . S
O712 C711 1.227 . S
N713 Co699 2.140 . S
N713 C716 1.346 1_655 S
N713 C717 1.345 . S
C714 C715 1.387 1_655 S
C714 C718 1.391 . S
C715 C714 1.387 1_455 S
C715 C716 1.369 . S
C715 H724 0.929 . S
C716 N713 1.346 1_455 S
C716 C715 1.369 . S
C716 H719 0.928 . S
C717 N713 1.345 . S
C717 C718 1.371 . S
C717 H720 0.931 . S
C718 C714 1.391 . S
C718 C717 1.371 . S
C718 H725 0.930 . S
H719 C716 0.928 . S
H720 C717 0.931 . S
H721 C697 0.930 . S
H722 C694 0.930 . S
H723 C703 0.930 . S
H724 C715 0.929 . S
H725 C718 0.930 . S
C726 C727 1.351 . S
C726 N729 1.368 . S
C726 H731 0.931 . S
C727 C726 1.351 . S
C727 N728 1.373 . S
C727 H755 0.930 . S
N728 C727 1.373 . S
N728 C730 1.340 . S
N729 C726 1.368 . S
N729 C730 1.321 . S
N729 Co732 2.135 . S
C730 N728 1.340 . S
C730 N729 1.321 . S
C730 H754 0.930 . S
H731 C726 0.931 . S
Co732 N729 2.135 . S
Co732 N735 2.121 . S
Co732 O740 2.055 . S
Co732 O743 2.039 . S
Co732 N746 2.140 . S
C733 O734 1.227 . S
C733 O743 1.265 . S
O734 C733 1.227 . S
N735 Co732 2.121 . S
N735 C737 1.375 . S
N735 C738 1.313 . S
C736 C737 1.338 . S
C736 N739 1.377 . S
C736 H756 0.930 . S
C737 N735 1.375 . S
C737 C736 1.338 . S
C737 H741 0.931 . S
C738 N735 1.313 . S
C738 N739 1.344 . S
C738 H742 0.930 . S
N739 C736 1.377 . S
N739 C738 1.344 . S
O740 Co732 2.055 . S
O740 C744 1.253 . S
H741 C737 0.931 . S
H742 C738 0.930 . S
O743 Co732 2.039 . S
O743 C733 1.265 . S
C744 O740 1.253 . S
C744 O745 1.227 . S
O745 C744 1.227 . S
N746 Co732 2.140 . S
N746 C749 1.346 . S
N746 C750 1.345 . S
C747 C748 1.387 . S
C747 C751 1.391 . S
C748 C747 1.387 . S
C748 C749 1.369 . S
C748 H757 0.929 . S
C749 N746 1.346 . S
C749 C748 1.369 . S
C749 H752 0.928 . S
C750 N746 1.345 . S
C750 C751 1.371 . S
C750 H753 0.931 . S
C751 C747 1.391 . S
C751 C750 1.371 . S
C751 H758 0.930 . S
H752 C749 0.928 . S
H753 C750 0.931 . S
H754 C730 0.930 . S
H755 C727 0.930 . S
H756 C736 0.930 . S
H757 C748 0.929 . S
H758 C751 0.930 . S
C759 C760 1.351 . S
C759 N762 1.368 . S
C759 H764 0.931 . S
C760 C759 1.351 . S
C760 N761 1.373 . S
C760 H788 0.930 . S
N761 C760 1.373 . S
N761 C763 1.340 . S
N762 C759 1.368 . S
N762 C763 1.321 . S
N762 Co765 2.135 . S
C763 N761 1.340 . S
C763 N762 1.321 . S
C763 H787 0.930 . S
H764 C759 0.931 . S
Co765 N762 2.135 . S
Co765 N768 2.121 . S
Co765 O773 2.055 . S
Co765 O776 2.039 . S
Co765 N779 2.140 . S
C766 O767 1.227 . S
C766 O776 1.265 . S
O767 C766 1.227 . S
N768 Co765 2.121 . S
N768 C770 1.375 . S
N768 C771 1.313 . S
C769 C770 1.338 . S
C769 N772 1.377 . S
C769 H789 0.930 . S
C770 N768 1.375 . S
C770 C769 1.338 . S
C770 H774 0.931 . S
C771 N768 1.313 . S
C771 N772 1.344 . S
C771 H775 0.930 . S
N772 C769 1.377 . S
N772 C771 1.344 . S
O773 Co765 2.055 . S
O773 C777 1.253 . S
H774 C770 0.931 . S
H775 C771 0.930 . S
O776 Co765 2.039 . S
O776 C766 1.265 . S
C777 O773 1.253 . S
C777 O778 1.227 . S
O778 C777 1.227 . S
N779 Co765 2.140 . S
N779 C782 1.346 . S
N779 C783 1.345 . S
C780 C781 1.387 . S
C780 C784 1.391 . S
C781 C780 1.387 . S
C781 C782 1.369 . S
C781 H790 0.929 . S
C782 N779 1.346 . S
C782 C781 1.369 . S
C782 H785 0.928 . S
C783 N779 1.345 . S
C783 C784 1.371 . S
C783 H786 0.931 . S
C784 C780 1.391 . S
C784 C783 1.371 . S
C784 H791 0.930 . S
H785 C782 0.928 . S
H786 C783 0.931 . S
H787 C763 0.930 . S
H788 C760 0.930 . S
H789 C769 0.930 . S
H790 C781 0.929 . S
H791 C784 0.930 . S
C792 C793 1.351 . S
C792 N795 1.368 . S
C792 H797 0.931 . S
C793 C792 1.351 . S
C793 N794 1.373 . S
C793 H821 0.930 . S
N794 C793 1.373 . S
N794 C796 1.340 . S
N795 C792 1.368 . S
N795 C796 1.321 . S
N795 Co798 2.135 . S
C796 N794 1.340 . S
C796 N795 1.321 . S
C796 H820 0.930 . S
H797 C792 0.931 . S
Co798 N795 2.135 . S
Co798 N801 2.121 . S
Co798 O806 2.055 . S
Co798 O809 2.039 . S
Co798 N812 2.140 . S
C799 O800 1.227 . S
C799 O809 1.265 . S
O800 C799 1.227 . S
N801 Co798 2.121 . S
N801 C803 1.375 . S
N801 C804 1.313 . S
C802 C803 1.338 . S
C802 N805 1.377 . S
C802 H822 0.930 . S
C803 N801 1.375 . S
C803 C802 1.338 . S
C803 H807 0.931 . S
C804 N801 1.313 . S
C804 N805 1.344 . S
C804 H808 0.930 . S
N805 C802 1.377 . S
N805 C804 1.344 . S
O806 Co798 2.055 . S
O806 C810 1.253 . S
H807 C803 0.931 . S
H808 C804 0.930 . S
O809 Co798 2.039 . S
O809 C799 1.265 . S
C810 O806 1.253 . S
C810 O811 1.227 . S
O811 C810 1.227 . S
N812 Co798 2.140 . S
N812 C815 1.346 . S
N812 C816 1.345 . S
C813 C814 1.387 . S
C813 C817 1.391 . S
C814 C813 1.387 . S
C814 C815 1.369 . S
C814 H823 0.929 . S
C815 N812 1.346 . S
C815 C814 1.369 . S
C815 H818 0.928 . S
C816 N812 1.345 . S
C816 C817 1.371 . S
C816 H819 0.931 . S
C817 C813 1.391 . S
C817 C816 1.371 . S
C817 H824 0.930 . S
H818 C815 0.928 . S
H819 C816 0.931 . S
H820 C796 0.930 . S
H821 C793 0.930 . S
H822 C802 0.930 . S
H823 C814 0.929 . S
H824 C817 0.930 . S
C825 C826 1.351 . S
C825 N828 1.368 . S
C825 H830 0.931 . S
C826 C825 1.351 . S
C826 N827 1.373 . S
C826 H854 0.930 . S
N827 C826 1.373 . S
N827 C829 1.340 . S
N828 C825 1.368 . S
N828 C829 1.321 . S
N828 Co831 2.135 . S
C829 N827 1.340 . S
C829 N828 1.321 . S
C829 H853 0.930 . S
H830 C825 0.931 . S
Co831 N828 2.135 . S
Co831 N834 2.121 . S
Co831 O839 2.055 . S
Co831 O842 2.039 . S
Co831 N845 2.140 . S
C832 O833 1.227 . S
C832 O842 1.265 . S
O833 C832 1.227 . S
N834 Co831 2.121 . S
N834 C836 1.375 . S
N834 C837 1.313 . S
C835 C836 1.338 . S
C835 N838 1.377 . S
C835 H855 0.930 . S
C836 N834 1.375 . S
C836 C835 1.338 . S
C836 H840 0.931 . S
C837 N834 1.313 . S
C837 N838 1.344 . S
C837 H841 0.930 . S
N838 C835 1.377 . S
N838 C837 1.344 . S
O839 Co831 2.055 . S
O839 C843 1.253 . S
H840 C836 0.931 . S
H841 C837 0.930 . S
O842 Co831 2.039 . S
O842 C832 1.265 . S
C843 O839 1.253 . S
C843 O844 1.227 . S
O844 C843 1.227 . S
N845 Co831 2.140 . S
N845 C848 1.346 . S
N845 C849 1.345 . S
C846 C847 1.387 . S
C846 C850 1.391 . S
C847 C846 1.387 . S
C847 C848 1.369 . S
C847 H856 0.929 . S
C848 N845 1.346 . S
C848 C847 1.369 . S
C848 H851 0.928 . S
C849 N845 1.345 . S
C849 C850 1.371 . S
C849 H852 0.931 . S
C850 C846 1.391 . S
C850 C849 1.371 . S
C850 H857 0.930 . S
H851 C848 0.928 . S
H852 C849 0.931 . S
H853 C829 0.930 . S
H854 C826 0.930 . S
H855 C835 0.930 . S
H856 C847 0.929 . S
H857 C850 0.930 . S
C858 C859 1.351 . S
C858 N861 1.368 . S
C858 H863 0.931 . S
C859 C858 1.351 . S
C859 N860 1.373 . S
C859 H887 0.930 . S
N860 C859 1.373 . S
N860 C862 1.340 . S
N861 C858 1.368 . S
N861 C862 1.321 . S
N861 Co864 2.135 . S
C862 N860 1.340 . S
C862 N861 1.321 . S
C862 H886 0.930 . S
H863 C858 0.931 . S
Co864 N861 2.135 . S
Co864 N867 2.121 . S
Co864 O872 2.055 . S
Co864 O875 2.039 . S
Co864 N878 2.140 . S
C865 O866 1.227 . S
C865 O875 1.265 . S
O866 C865 1.227 . S
N867 Co864 2.121 . S
N867 C869 1.375 . S
N867 C870 1.313 . S
C868 C869 1.338 . S
C868 N871 1.377 . S
C868 H888 0.930 . S
C869 N867 1.375 . S
C869 C868 1.338 . S
C869 H873 0.931 . S
C870 N867 1.313 . S
C870 N871 1.344 . S
C870 H874 0.930 . S
N871 C868 1.377 . S
N871 C870 1.344 . S
O872 Co864 2.055 . S
O872 C876 1.253 . S
H873 C869 0.931 . S
H874 C870 0.930 . S
O875 Co864 2.039 . S
O875 C865 1.265 . S
C876 O872 1.253 . S
C876 O877 1.227 . S
O877 C876 1.227 . S
N878 Co864 2.140 . S
N878 C881 1.346 . S
N878 C882 1.345 . S
C879 C880 1.387 . S
C879 C883 1.391 . S
C880 C879 1.387 . S
C880 C881 1.369 . S
C880 H889 0.929 . S
C881 N878 1.346 . S
C881 C880 1.369 . S
C881 H884 0.928 . S
C882 N878 1.345 . S
C882 C883 1.371 . S
C882 H885 0.931 . S
C883 C879 1.391 . S
C883 C882 1.371 . S
C883 H890 0.930 . S
H884 C881 0.928 . S
H885 C882 0.931 . S
H886 C862 0.930 . S
H887 C859 0.930 . S
H888 C868 0.930 . S
H889 C880 0.929 . S
H890 C883 0.930 . S
C891 C892 1.351 . S
C891 N894 1.368 . S
C891 H896 0.931 . S
C892 C891 1.351 . S
C892 N893 1.373 . S
C892 H920 0.930 . S
N893 C892 1.373 . S
N893 C895 1.340 . S
N894 C891 1.368 . S
N894 C895 1.321 . S
N894 Co897 2.135 1_655 S
C895 N893 1.340 . S
C895 N894 1.321 . S
C895 H919 0.930 . S
H896 C891 0.931 . S
Co897 N894 2.135 1_455 S
Co897 N900 2.121 . S
Co897 O905 2.055 . S
Co897 O908 2.039 . S
Co897 N911 2.140 . S
C898 O899 1.230 . S
C898 O908 1.265 . S
O899 C898 1.230 . S
N900 Co897 2.121 . S
N900 C902 1.375 . S
N900 C903 1.313 . S
C901 C902 1.338 . S
C901 N904 1.377 . S
C901 H921 0.930 . S
C902 N900 1.375 . S
C902 C901 1.338 . S
C902 H906 0.931 . S
C903 N900 1.313 . S
C903 N904 1.344 . S
C903 H907 0.930 . S
N904 C901 1.377 . S
N904 C903 1.344 . S
O905 Co897 2.055 . S
O905 C909 1.253 . S
H906 C902 0.931 . S
H907 C903 0.930 . S
O908 Co897 2.039 . S
O908 C898 1.265 . S
C909 O905 1.253 . S
C909 O910 1.227 . S
O910 C909 1.227 . S
N911 Co897 2.140 . S
N911 C914 1.346 1_455 S
N911 C915 1.345 . S
C912 C913 1.387 1_455 S
C912 C916 1.391 . S
C913 C912 1.387 1_655 S
C913 C914 1.369 . S
C913 H922 0.929 . S
C914 N911 1.346 1_655 S
C914 C913 1.369 . S
C914 H917 0.928 . S
C915 N911 1.345 . S
C915 C916 1.371 . S
C915 H918 0.931 . S
C916 C912 1.391 . S
C916 C915 1.371 . S
C916 H923 0.930 . S
H917 C914 0.928 . S
H918 C915 0.931 . S
H919 C895 0.930 . S
H920 C892 0.930 . S
H921 C901 0.930 . S
H922 C913 0.929 . S
H923 C916 0.930 . S
C924 C925 1.351 . S
C924 N927 1.368 . S
C924 H929 0.931 . S
C925 C924 1.351 . S
C925 N926 1.373 . S
C925 H953 0.930 . S
N926 C925 1.373 . S
N926 C928 1.340 . S
N927 C924 1.368 . S
N927 C928 1.321 . S
N927 Co930 2.135 . S
C928 N926 1.340 . S
C928 N927 1.321 . S
C928 H952 0.930 . S
H929 C924 0.931 . S
Co930 N927 2.135 . S
Co930 N933 2.121 . S
Co930 O938 2.055 . S
Co930 O941 2.039 . S
Co930 N944 2.140 . S
C931 O932 1.227 . S
C931 O941 1.265 . S
O932 C931 1.227 . S
N933 Co930 2.121 . S
N933 C935 1.375 . S
N933 C936 1.313 . S
C934 C935 1.338 . S
C934 N937 1.377 . S
C934 H954 0.930 . S
C935 N933 1.375 . S
C935 C934 1.338 . S
C935 H939 0.931 . S
C936 N933 1.313 . S
C936 N937 1.344 . S
C936 H940 0.930 . S
N937 C934 1.377 . S
N937 C936 1.344 . S
O938 Co930 2.055 . S
O938 C942 1.253 . S
H939 C935 0.931 . S
H940 C936 0.930 . S
O941 Co930 2.039 . S
O941 C931 1.265 . S
C942 O938 1.253 . S
C942 O943 1.227 . S
O943 C942 1.227 . S
N944 Co930 2.140 . S
N944 C947 1.346 . S
N944 C948 1.345 . S
C945 C946 1.387 . S
C945 C949 1.391 . S
C946 C945 1.387 . S
C946 C947 1.369 . S
C946 H955 0.929 . S
C947 N944 1.346 . S
C947 C946 1.369 . S
C947 H950 0.928 . S
C948 N944 1.345 . S
C948 C949 1.371 . S
C948 H951 0.931 . S
C949 C945 1.391 . S
C949 C948 1.371 . S
C949 H956 0.930 . S
H950 C947 0.928 . S
H951 C948 0.931 . S
H952 C928 0.930 . S
H953 C925 0.930 . S
H954 C934 0.930 . S
H955 C946 0.929 . S
H956 C949 0.930 . S
C957 C958 1.351 . S
C957 N960 1.368 . S
C957 H962 0.931 . S
C958 C957 1.351 . S
C958 N959 1.373 . S
C958 H986 0.930 . S
N959 C958 1.373 . S
N959 C961 1.340 . S
N960 C957 1.368 . S
N960 C961 1.321 . S
N960 Co963 2.135 1_655 S
C961 N959 1.340 . S
C961 N960 1.321 . S
C961 H985 0.930 . S
H962 C957 0.931 . S
Co963 N960 2.135 1_455 S
Co963 N966 2.121 . S
Co963 O971 2.055 . S
Co963 O974 2.039 . S
Co963 N977 2.140 . S
C964 O965 1.230 . S
C964 O974 1.265 . S
O965 C964 1.230 . S
N966 Co963 2.121 . S
N966 C968 1.375 . S
N966 C969 1.313 . S
C967 C968 1.338 . S
C967 N970 1.377 . S
C967 H987 0.930 . S
C968 N966 1.375 . S
C968 C967 1.338 . S
C968 H972 0.931 . S
C969 N966 1.313 . S
C969 N970 1.344 . S
C969 H973 0.930 . S
N970 C967 1.377 . S
N970 C969 1.344 . S
O971 Co963 2.055 . S
O971 C975 1.253 . S
H972 C968 0.931 . S
H973 C969 0.930 . S
O974 Co963 2.039 . S
O974 C964 1.265 . S
C975 O971 1.253 . S
C975 O976 1.227 . S
O976 C975 1.227 . S
N977 Co963 2.140 . S
N977 C980 1.346 1_455 S
N977 C981 1.345 . S
C978 C979 1.387 1_455 S
C978 C982 1.391 . S
C979 C978 1.387 1_655 S
C979 C980 1.369 . S
C979 H988 0.929 . S
C980 N977 1.346 1_655 S
C980 C979 1.369 . S
C980 H983 0.928 . S
C981 N977 1.345 . S
C981 C982 1.371 . S
C981 H984 0.931 . S
C982 C978 1.391 . S
C982 C981 1.371 . S
C982 H989 0.930 . S
H983 C980 0.928 . S
H984 C981 0.931 . S
H985 C961 0.930 . S
H986 C958 0.930 . S
H987 C967 0.930 . S
H988 C979 0.929 . S
H989 C982 0.930 . S
C990 C991 1.351 . S
C990 N993 1.368 . S
C990 H995 0.931 . S
C991 C990 1.351 . S
C991 N992 1.373 . S
C991 H1019 0.930 . S
N992 C991 1.373 . S
N992 C994 1.340 . S
N993 C990 1.368 . S
N993 C994 1.321 . S
N993 Co996 2.135 . S
C994 N992 1.340 . S
C994 N993 1.321 . S
C994 H1018 0.930 . S
H995 C990 0.931 . S
Co996 N993 2.135 . S
Co996 N999 2.121 . S
Co996 O1004 2.055 . S
Co996 O1007 2.039 . S
Co996 N1010 2.140 . S
C997 O998 1.227 . S
C997 O1007 1.265 . S
O998 C997 1.227 . S
N999 Co996 2.121 . S
N999 C1001 1.375 . S
N999 C1002 1.313 . S
C1000 C1001 1.338 . S
C1000 N1003 1.377 . S
C1000 H1020 0.930 . S
C1001 N999 1.375 . S
C1001 C1000 1.338 . S
C1001 H1005 0.931 . S
C1002 N999 1.313 . S
C1002 N1003 1.344 . S
C1002 H1006 0.930 . S
N1003 C1000 1.377 . S
N1003 C1002 1.344 . S
O1004 Co996 2.055 . S
O1004 C1008 1.253 . S
H1005 C1001 0.931 . S
H1006 C1002 0.930 . S
O1007 Co996 2.039 . S
O1007 C997 1.265 . S
C1008 O1004 1.253 . S
C1008 O1009 1.227 . S
O1009 C1008 1.227 . S
N1010 Co996 2.140 . S
N1010 C1013 1.346 . S
N1010 C1014 1.345 . S
C1011 C1012 1.387 . S
C1011 C1015 1.391 . S
C1012 C1011 1.387 . S
C1012 C1013 1.369 . S
C1012 H1021 0.929 . S
C1013 N1010 1.346 . S
C1013 C1012 1.369 . S
C1013 H1016 0.928 . S
C1014 N1010 1.345 . S
C1014 C1015 1.371 . S
C1014 H1017 0.931 . S
C1015 C1011 1.391 . S
C1015 C1014 1.371 . S
C1015 H1022 0.930 . S
H1016 C1013 0.928 . S
H1017 C1014 0.931 . S
H1018 C994 0.930 . S
H1019 C991 0.930 . S
H1020 C1000 0.930 . S
H1021 C1012 0.929 . S
H1022 C1015 0.930 . S
C1023 C1024 1.351 . S
C1023 N1026 1.368 . S
C1023 H1028 0.931 . S
C1024 C1023 1.351 . S
C1024 N1025 1.373 . S
C1024 H1052 0.930 . S
N1025 C1024 1.373 . S
N1025 C1027 1.340 . S
N1026 C1023 1.368 . S
N1026 C1027 1.321 . S
N1026 Co1029 2.135 . S
C1027 N1025 1.340 . S
C1027 N1026 1.321 . S
C1027 H1051 0.930 . S
H1028 C1023 0.931 . S
Co1029 N1026 2.135 . S
Co1029 N1032 2.121 . S
Co1029 O1037 2.055 . S
Co1029 O1040 2.039 . S
Co1029 N1043 2.140 . S
C1030 O1031 1.227 . S
C1030 O1040 1.265 . S
O1031 C1030 1.227 . S
N1032 Co1029 2.121 . S
N1032 C1034 1.375 . S
N1032 C1035 1.313 . S
C1033 C1034 1.338 . S
C1033 N1036 1.377 . S
C1033 H1053 0.930 . S
C1034 N1032 1.375 . S
C1034 C1033 1.338 . S
C1034 H1038 0.931 . S
C1035 N1032 1.313 . S
C1035 N1036 1.344 . S
C1035 H1039 0.930 . S
N1036 C1033 1.377 . S
N1036 C1035 1.344 . S
O1037 Co1029 2.055 . S
O1037 C1041 1.253 . S
H1038 C1034 0.931 . S
H1039 C1035 0.930 . S
O1040 Co1029 2.039 . S
O1040 C1030 1.265 . S
C1041 O1037 1.253 . S
C1041 O1042 1.227 . S
O1042 C1041 1.227 . S
N1043 Co1029 2.140 . S
N1043 C1046 1.346 . S
N1043 C1047 1.345 . S
C1044 C1045 1.387 . S
C1044 C1048 1.391 . S
C1045 C1044 1.387 . S
C1045 C1046 1.369 . S
C1045 H1054 0.929 . S
C1046 N1043 1.346 . S
C1046 C1045 1.369 . S
C1046 H1049 0.928 . S
C1047 N1043 1.345 . S
C1047 C1048 1.371 . S
C1047 H1050 0.931 . S
C1048 C1044 1.391 . S
C1048 C1047 1.371 . S
C1048 H1055 0.930 . S
H1049 C1046 0.928 . S
H1050 C1047 0.931 . S
H1051 C1027 0.930 . S
H1052 C1024 0.930 . S
H1053 C1033 0.930 . S
H1054 C1045 0.929 . S
H1055 C1048 0.930 . S
C18 C249 1.900 . S
C51 C150 1.900 . S
C84 C183 1.900 . S
C117 C216 1.900 . S
C513 C282 1.900 . S
C315 C414 1.900 . S
C447 C348 1.900 . S
C381 C480 1.900 . S
C546 C777 1.900 . S
C678 C579 1.900 . S
C612 C711 1.900 . S
C645 C744 1.900 . S
C810 C1041 1.900 . S
C843 C942 1.900 . S
C975 C876 1.900 . S
C1008 C909 1.900 . S
C205 C7 2.049 1_556 S
C40 C238 2.049 1_565 S
C73 C139 2.049 . S
C106 C172 2.049 1_545 S
C271 C469 2.049 1_556 S
C502 C304 2.049 1_565 S
C403 C337 2.049 . S
C436 C370 2.049 1_545 S
C535 C733 2.049 . S
C766 C568 2.049 . S
C667 C601 2.049 1_556 S
C634 C700 2.049 . S
C997 C799 2.049 . S
C832 C1030 2.049 . S
C931 C865 2.049 1_554 S
C964 C898 2.049 . S
N926 N13 1.638 . S
N431 N46 1.638 . S
N992 N79 1.638 . S
N112 N497 1.638 . S
N794 N145 1.638 . S
N299 N178 1.638 . S
N860 N211 1.638 . S
N244 N365 1.638 . S
N277 N662 1.638 . S
N310 N167 1.638 . S
N343 N728 1.638 . S
N233 N376 1.638 . S
N530 N409 1.638 . S
N442 N35 1.638 . S
N475 N596 1.638 . S
N508 N101 1.638 . S
N398 N541 1.638 . S
N574 N959 1.638 . S
N464 N607 1.638 . S
N640 N1025 1.638 . S
N673 N266 1.638 . S
N706 N827 1.638 . S
N332 N739 1.638 . S
N772 N893 1.638 . S
N134 N805 1.638 . S
N695 N838 1.638 . S
N200 N871 1.638 . S
N761 N904 1.638 . S
N2 N937 1.638 . S
N563 N970 1.638 . S
N1003 N68 1.638 . S
N629 N1036 1.638 . S
C615 C21 1.185 . S
C648 C54 1.185 1_655 S
C87 C549 1.185 1_455 S
C120 C582 1.185 . S
C747 C153 1.185 . S
C186 C780 1.185 . S
C681 C219 1.185 1_655 S
C714 C252 1.185 1_655 S
C879 C285 1.185 . S
C912 C318 1.185 1_455 S
C351 C813 1.185 1_655 S
C384 C846 1.185 . S
C417 C1011 1.185 . S
C450 C1044 1.185 . S
C945 C483 1.185 1_455 S
C978 C516 1.185 1_455 S
