# Generated by pormake.
# Topology zfk, (5)-cn, num edge types: 1
# Building blocks:
#     Node 0, Type 0, BuildingBlock: XOMCOT_clean_sbu_1, # of connection points: 5
#     Node 1, Type 0, BuildingBlock: XOMCOT_clean_sbu_1, # of connection points: 5
#     Node 2, Type 0, BuildingBlock: XOMCOT_clean_sbu_1, # of connection points: 5
#     Node 3, Type 0, BuildingBlock: XOMCOT_clean_sbu_1, # of connection points: 5
#     Node 4, Type 0, BuildingBlock: XOMCOT_clean_sbu_1, # of connection points: 5
#     Node 5, Type 0, BuildingBlock: XOMCOT_clean_sbu_1, # of connection points: 5
#     Node 6, Type 0, BuildingBlock: XOMCOT_clean_sbu_1, # of connection points: 5
#     Node 7, Type 0, BuildingBlock: XOMCOT_clean_sbu_1, # of connection points: 5
#     Node 8, Type 0, BuildingBlock: XOMCOT_clean_sbu_1, # of connection points: 5
#     Node 9, Type 0, BuildingBlock: XOMCOT_clean_sbu_1, # of connection points: 5
#     Node 10, Type 0, BuildingBlock: XOMCOT_clean_sbu_1, # of connection points: 5
#     Node 11, Type 0, BuildingBlock: XOMCOT_clean_sbu_1, # of connection points: 5
#     Node 12, Type 0, BuildingBlock: XOMCOT_clean_sbu_1, # of connection points: 5
#     Node 13, Type 0, BuildingBlock: XOMCOT_clean_sbu_1, # of connection points: 5
#     Node 14, Type 0, BuildingBlock: XOMCOT_clean_sbu_1, # of connection points: 5
#     Node 15, Type 0, BuildingBlock: XOMCOT_clean_sbu_1, # of connection points: 5
#     Edge 16, Type (0, 0), BuildingBlock: UVAHIK_clean_linker_0, # of connection points: 2
#     Edge 17, Type (0, 0), BuildingBlock: UVAHIK_clean_linker_0, # of connection points: 2
#     Edge 18, Type (0, 0), BuildingBlock: UVAHIK_clean_linker_0, # of connection points: 2
#     Edge 19, Type (0, 0), BuildingBlock: UVAHIK_clean_linker_0, # of connection points: 2
#     Edge 20, Type (0, 0), BuildingBlock: UVAHIK_clean_linker_0, # of connection points: 2
#     Edge 21, Type (0, 0), BuildingBlock: UVAHIK_clean_linker_0, # of connection points: 2
#     Edge 22, Type (0, 0), BuildingBlock: UVAHIK_clean_linker_0, # of connection points: 2
#     Edge 23, Type (0, 0), BuildingBlock: UVAHIK_clean_linker_0, # of connection points: 2
#     Edge 24, Type (0, 0), BuildingBlock: UVAHIK_clean_linker_0, # of connection points: 2
#     Edge 25, Type (0, 0), BuildingBlock: UVAHIK_clean_linker_0, # of connection points: 2
#     Edge 26, Type (0, 0), BuildingBlock: UVAHIK_clean_linker_0, # of connection points: 2
#     Edge 27, Type (0, 0), BuildingBlock: UVAHIK_clean_linker_0, # of connection points: 2
#     Edge 28, Type (0, 0), BuildingBlock: UVAHIK_clean_linker_0, # of connection points: 2
#     Edge 29, Type (0, 0), BuildingBlock: UVAHIK_clean_linker_0, # of connection points: 2
#     Edge 30, Type (0, 0), BuildingBlock: UVAHIK_clean_linker_0, # of connection points: 2
#     Edge 31, Type (0, 0), BuildingBlock: UVAHIK_clean_linker_0, # of connection points: 2
#     Edge 32, Type (0, 0), BuildingBlock: UVAHIK_clean_linker_0, # of connection points: 2
#     Edge 33, Type (0, 0), BuildingBlock: UVAHIK_clean_linker_0, # of connection points: 2
#     Edge 34, Type (0, 0), BuildingBlock: UVAHIK_clean_linker_0, # of connection points: 2
#     Edge 35, Type (0, 0), BuildingBlock: UVAHIK_clean_linker_0, # of connection points: 2
#     Edge 36, Type (0, 0), BuildingBlock: UVAHIK_clean_linker_0, # of connection points: 2
#     Edge 37, Type (0, 0), BuildingBlock: UVAHIK_clean_linker_0, # of connection points: 2
#     Edge 38, Type (0, 0), BuildingBlock: UVAHIK_clean_linker_0, # of connection points: 2
#     Edge 39, Type (0, 0), BuildingBlock: UVAHIK_clean_linker_0, # of connection points: 2
#     Edge 40, Type (0, 0), BuildingBlock: UVAHIK_clean_linker_0, # of connection points: 2
#     Edge 41, Type (0, 0), BuildingBlock: UVAHIK_clean_linker_0, # of connection points: 2
#     Edge 42, Type (0, 0), BuildingBlock: UVAHIK_clean_linker_0, # of connection points: 2
#     Edge 43, Type (0, 0), BuildingBlock: UVAHIK_clean_linker_0, # of connection points: 2
#     Edge 44, Type (0, 0), BuildingBlock: UVAHIK_clean_linker_0, # of connection points: 2
#     Edge 45, Type (0, 0), BuildingBlock: UVAHIK_clean_linker_0, # of connection points: 2
#     Edge 46, Type (0, 0), BuildingBlock: UVAHIK_clean_linker_0, # of connection points: 2
#     Edge 47, Type (0, 0), BuildingBlock: UVAHIK_clean_linker_0, # of connection points: 2
#     Edge 48, Type (0, 0), BuildingBlock: UVAHIK_clean_linker_0, # of connection points: 2
#     Edge 49, Type (0, 0), BuildingBlock: UVAHIK_clean_linker_0, # of connection points: 2
#     Edge 50, Type (0, 0), BuildingBlock: UVAHIK_clean_linker_0, # of connection points: 2
#     Edge 51, Type (0, 0), BuildingBlock: UVAHIK_clean_linker_0, # of connection points: 2
#     Edge 52, Type (0, 0), BuildingBlock: UVAHIK_clean_linker_0, # of connection points: 2
#     Edge 53, Type (0, 0), BuildingBlock: UVAHIK_clean_linker_0, # of connection points: 2
#     Edge 54, Type (0, 0), BuildingBlock: UVAHIK_clean_linker_0, # of connection points: 2
#     Edge 55, Type (0, 0), BuildingBlock: UVAHIK_clean_linker_0, # of connection points: 2
# Relax obj value: 0.294
# Max RMSD: 0.175
# Mean RMSD: 0.175
data_MOF--net-zfk--node1-XOMCOT_clean_sbu_1--edge1-UVAHIK_clean_linker_0
_symmetry_space_group_name_H-M    P1
_symmetry_Int_Tables_number       1
_symmetry_cell_setting            triclinic
loop_
_symmetry_equiv_pos_as_xyz
'x, y, z'
_cell_length_a     38.264874
_cell_length_b     38.32902
_cell_length_c     84.459974
_cell_angle_alpha  90.014857
_cell_angle_beta   89.999222
_cell_angle_gamma 90.207528
loop_
_atom_site_label
_atom_site_type_symbol
_atom_site_fract_x
_atom_site_fract_y
_atom_site_fract_z
_atom_type_partial_charge
C0 C 0.05717 0.38257 0.10528 0.0
C1 C 0.05502 0.37633 0.08928 0.0
N2 N 0.04525 0.3429 0.08712 0.0
N3 N 0.04854 0.35332 0.11324 0.0
C4 C 0.04134 0.32951 0.10183 0.0
H5 H 0.0653 0.40674 0.11077 0.0
Co6 Co 0.05007 0.35005 0.13534 0.0
C7 C 0.03519 0.27675 0.14366 0.0
O8 O 0.06027 0.28107 0.15411 0.0
N9 N 0.05056 0.34802 0.15783 0.0
C10 C 0.02732 0.34318 0.1819 0.0
C11 C 0.02096 0.34102 0.16599 0.0
C12 C 0.07457 0.35515 0.16923 0.0
N13 N 0.06103 0.35208 0.18398 0.0
O14 O 1.00776 0.37785 0.13646 0.0
H15 H 0.99598 0.33504 0.16062 0.0
H16 H 0.10129 0.36269 0.1669 0.0
O17 O 0.02625 0.3027 0.13479 0.0
C18 C 0.02004 0.40824 0.13981 0.0
O19 O 0.05378 0.4115 0.14224 0.0
N20 N 0.094 0.32954 0.13341 0.0
C21 C 0.15518 0.32723 0.11579 0.0
C22 C 0.13164 0.29917 0.11543 0.0
C23 C 0.10093 0.3009 0.12426 0.0
C24 C 0.11855 0.35503 0.13521 0.0
C25 C 0.14939 0.35437 0.12655 0.0
H26 H 0.08121 0.28155 0.1218 0.0
H27 H 0.11212 0.37871 0.14145 0.0
H28 H 0.03388 0.30279 0.10419 0.0
H29 H 0.06136 0.39465 0.07995 0.0
H30 H 1.00824 0.33964 0.19123 0.0
H31 H 0.13546 0.27746 0.10741 0.0
H32 H 0.16659 0.37685 0.12708 0.0
C33 C 0.14585 0.06433 0.60546 0.0
C34 C 0.15193 0.06365 0.58946 0.0
N35 N 0.18532 0.05424 0.58704 0.0
N36 N 0.17546 0.05657 0.61344 0.0
C37 C 0.19859 0.04899 0.6017 0.0
H38 H 0.1209 0.06974 0.61091 0.0
Co39 Co 0.17699 0.04996 0.63597 0.0
C40 C 0.2531 0.05517 0.63008 0.0
O41 O 0.24548 0.08493 0.62319 0.0
N42 N 0.1775 0.04123 0.65802 0.0
C43 C 0.19166 0.01851 0.68128 0.0
C44 C 0.19659 0.01643 0.66521 0.0
C45 C 0.16037 0.05749 0.66996 0.0
N46 N 0.16892 0.04448 0.68438 0.0
O47 O 0.15607 1.00458 0.63275 0.0
H48 H 0.2135 0.9982 0.65919 0.0
H49 H 0.14257 0.07893 0.66803 0.0
O50 O 0.22794 0.03527 0.63485 0.0
C51 C 0.12416 0.0136 0.63538 0.0
O52 O 0.11767 0.04609 0.63936 0.0
N53 N 0.18976 0.09701 0.63996 0.0
C54 C 0.17454 0.1571 0.65678 0.0
C55 C 0.15917 0.15102 0.64204 0.0
C56 C 0.16676 0.12061 0.63394 0.0
C57 C 0.21019 0.10604 0.65267 0.0
C58 C 0.20243 0.13593 0.66153 0.0
H59 H 0.15042 0.11452 0.62405 0.0
H60 H 0.22866 0.08761 0.65751 0.0
H61 H 0.22431 0.03858 0.60369 0.0
H62 H 0.13275 0.06867 0.58034 0.0
H63 H 0.20478 1.00247 0.68995 0.0
H64 H 0.13881 0.16789 0.63752 0.0
H65 H 0.21563 0.14034 0.6727 0.0
C66 C 0.45574 0.12241 0.10374 0.0
C67 C 0.45349 0.1307 0.08793 0.0
N68 N 0.46627 0.16319 0.08582 0.0
N69 N 0.46988 0.14943 0.11172 0.0
C70 C 0.47594 0.17392 0.10046 0.0
H71 H 0.44692 0.09835 0.1091 0.0
Co72 Co 0.47691 0.15046 0.13389 0.0
C73 C 0.53296 0.20932 0.13827 0.0
O74 O 0.54584 0.19785 0.15165 0.0
N75 N 0.4842 0.15015 0.15613 0.0
C76 C 0.51012 0.13715 0.17895 0.0
C77 C 0.51411 0.13897 0.1629 0.0
C78 C 0.46183 0.15387 0.16852 0.0
N79 N 0.47725 0.1465 0.1826 0.0
O80 O 0.51037 0.11246 0.13143 0.0
H81 H 0.53749 0.13165 0.15656 0.0
H82 H 0.4346 0.16081 0.1672 0.0
O83 O 0.51063 0.19057 0.13067 0.0
C84 C 0.49333 0.08474 0.1352 0.0
O85 O 0.46097 0.08811 0.14017 0.0
N86 N 0.44114 0.18336 0.13582 0.0
C87 C 0.40324 0.23204 0.11955 0.0
C88 C 0.42823 0.24304 0.13063 0.0
C89 C 0.44666 0.2178 0.13908 0.0
C90 C 0.41123 0.17303 0.12846 0.0
C91 C 0.39221 0.19712 0.11972 0.0
H92 H 0.46804 0.22585 0.14657 0.0
H93 H 0.40586 0.14551 0.1269 0.0
H94 H 0.48729 0.19908 0.1029 0.0
H95 H 0.4425 0.1142 0.0788 0.0
H96 H 0.5296 0.12799 0.18725 0.0
H97 H 0.43609 0.27015 0.13147 0.0
H98 H 0.37158 0.18802 0.11195 0.0
C99 C 0.36291 0.42077 0.60836 0.0
C100 C 0.35479 0.41786 0.5926 0.0
N101 N 0.33886 0.44743 0.58795 0.0
N102 N 0.35216 0.45196 0.61376 0.0
C103 C 0.33813 0.46807 0.60097 0.0
H104 H 0.37492 0.40091 0.61562 0.0
Co105 Co 0.3559 0.46292 0.6352 0.0
C106 C 0.29791 0.5116 0.6429 0.0
O107 O 0.29902 0.49675 0.6569 0.0
N108 N 0.36258 0.47375 0.65713 0.0
C109 C 0.37512 0.50608 0.67841 0.0
C110 C 0.36915 0.5065 0.66236 0.0
C111 C 0.36719 0.45371 0.67022 0.0
N112 N 0.37382 0.47278 0.68335 0.0
O113 O 0.39923 0.48876 0.6309 0.0
H114 H 0.36949 0.52944 0.65491 0.0
H115 H 0.36704 0.42569 0.67028 0.0
O116 O 0.32222 0.50427 0.63272 0.0
C117 C 0.42386 0.46725 0.63414 0.0
O118 O 0.41472 0.43553 0.63844 0.0
N119 N 0.3157 0.43464 0.63908 0.0
C120 C 0.25275 0.4071 0.64976 0.0
C121 C 0.25356 0.42943 0.63666 0.0
C122 C 0.2855 0.44124 0.631 0.0
C123 C 0.31619 0.40724 0.64929 0.0
C124 C 0.28484 0.39347 0.65511 0.0
H125 H 0.2854 0.45846 0.62098 0.0
H126 H 0.34064 0.3962 0.65304 0.0
H127 H 0.32587 0.49345 0.60139 0.0
H128 H 0.35966 0.39535 0.58519 0.0
H129 H 0.38094 0.52847 0.68577 0.0
H130 H 0.23012 0.43953 0.63123 0.0
H131 H 0.28592 0.37295 0.6639 0.0
C132 C 0.05351 0.13029 0.9178 0.0
C133 C 0.05418 0.13808 0.93362 0.0
N134 N 0.04692 0.17223 0.93547 0.0
N135 N 0.04541 0.1591 0.90948 0.0
C136 C 0.0414 0.18434 0.92059 0.0
H137 H 0.05952 0.1052 0.91268 0.0
Co138 Co 0.04577 0.15923 0.88729 0.0
C139 C 0.01641 0.22756 0.8763 0.0
O140 O 0.03721 0.22443 0.86402 0.0
N141 N 0.04601 0.15729 0.86491 0.0
C142 C 0.02368 0.15363 0.84064 0.0
C143 C 0.01607 0.15698 0.8564 0.0
C144 C 0.07157 0.15266 0.85399 0.0
N145 N 0.05851 0.15088 0.8391 0.0
O146 O 1.00678 0.12655 0.88738 0.0
H147 H 0.99015 0.15932 0.86139 0.0
H148 H 0.09904 0.15042 0.85683 0.0
O149 O 0.01565 0.20294 0.88677 0.0
C150 C 0.02043 0.09656 0.88474 0.0
O151 O 0.05417 0.09486 0.88198 0.0
N152 N 0.08677 0.18603 0.88813 0.0
C153 C 0.14309 0.20613 0.90675 0.0
C154 C 0.11711 0.23014 0.90281 0.0
C155 C 0.08901 0.21955 0.8936 0.0
C156 C 0.11437 0.16398 0.88992 0.0
C157 C 0.1428 0.17337 0.8994 0.0
H158 H 0.06754 0.2372 0.89327 0.0
H159 H 0.11203 0.13723 0.88598 0.0
H160 H 0.03596 0.21126 0.91777 0.0
H161 H 0.05984 0.11973 0.94299 0.0
H162 H 1.00498 0.15237 0.83103 0.0
H163 H 0.11608 0.25562 0.90834 0.0
H164 H 0.16279 0.15425 0.90196 0.0
C165 C 0.39572 0.03938 0.41758 0.0
C166 C 0.38826 0.03152 0.4331 0.0
N167 N 0.35333 0.03149 0.43496 0.0
N168 N 0.36569 0.04385 0.40946 0.0
C169 C 0.34032 0.03863 0.42044 0.0
H170 H 0.42153 0.04457 0.41301 0.0
Co171 Co 0.3614 0.06473 0.38924 0.0
C172 C 0.30013 0.01182 0.38754 0.0
O173 O 0.31528 0.98584 0.39496 0.0
N174 N 0.35622 0.08608 0.36887 0.0
C175 C 0.33049 0.11292 0.34853 0.0
C176 C 0.32797 0.10465 0.36427 0.0
C177 C 0.37561 0.08357 0.3554 0.0
N178 N 0.36039 0.09956 0.34289 0.0
O179 O 0.39211 0.02916 0.3804 0.0
H180 H 0.30589 0.11099 0.37161 0.0
H181 H 0.39958 0.069 0.35441 0.0
O182 O 0.31733 0.03987 0.38497 0.0
C183 C 0.42266 0.0432 0.38101 0.0
O184 O 0.42509 0.07605 0.38533 0.0
N185 N 0.33697 0.10087 0.39899 0.0
C186 C 0.31355 0.14167 0.42397 0.0
C187 C 0.2898 0.12259 0.41471 0.0
C188 C 0.30205 0.10207 0.40232 0.0
C189 C 0.35986 0.12204 0.40676 0.0
C190 C 0.34882 0.14236 0.41946 0.0
H191 H 0.28363 0.08556 0.39627 0.0
H192 H 0.38746 0.12034 0.40415 0.0
H193 H 0.3128 0.04202 0.41807 0.0
H194 H 0.4072 0.029 0.44254 0.0
H195 H 0.31144 0.1273 0.34168 0.0
H196 H 0.26212 0.12239 0.41738 0.0
H197 H 0.36813 0.15676 0.4262 0.0
C198 C 0.46056 0.39117 0.9204 0.0
C199 C 0.46081 0.38252 0.93616 0.0
N200 N 0.47312 0.34979 0.93767 0.0
N201 N 0.47275 0.36421 0.91182 0.0
C202 C 0.48024 0.33928 0.92269 0.0
H203 H 0.4507 0.41519 0.91546 0.0
Co204 Co 0.47211 0.36422 0.88958 0.0
C205 C 0.5027 0.2966 0.8787 0.0
O206 O 0.4806 0.29842 0.86684 0.0
N207 N 0.47177 0.36594 0.86718 0.0
C208 C 0.49464 0.36927 0.84301 0.0
C209 C 0.50189 0.36629 0.85881 0.0
C210 C 0.4464 0.37016 0.85612 0.0
N211 N 0.45985 0.37175 0.8413 0.0
O212 O 0.50973 0.39877 0.88948 0.0
H213 H 0.52771 0.36425 0.86393 0.0
H214 H 0.41884 0.37215 0.85881 0.0
O215 O 0.5036 0.32159 0.88898 0.0
C216 C 0.49357 0.4276 0.88697 0.0
O217 O 0.45955 0.4265 0.88495 0.0
N218 N 0.43203 0.33611 0.89052 0.0
C219 C 0.38083 0.31984 0.91252 0.0
C220 C 0.40519 0.29468 0.90791 0.0
C221 C 0.43081 0.30336 0.89694 0.0
C222 C 0.40459 0.35823 0.89257 0.0
C223 C 0.3789 0.35094 0.90384 0.0
H224 H 0.45172 0.28515 0.89574 0.0
H225 H 0.40587 0.38424 0.88767 0.0
H226 H 0.4898 0.31366 0.91966 0.0
H227 H 0.45114 0.39867 0.9457 0.0
H228 H 0.51353 0.3703 0.83347 0.0
H229 H 0.40649 0.26959 0.91378 0.0
H230 H 0.36013 0.37097 0.9068 0.0
C231 C 0.14165 0.45316 0.41687 0.0
C232 C 0.15094 0.45064 0.43252 0.0
N233 N 0.18159 0.46737 0.43455 0.0
N234 N 0.16638 0.47118 0.40895 0.0
C235 C 0.1903 0.47996 0.42011 0.0
H236 H 0.11917 0.44095 0.41142 0.0
Co237 Co 0.16607 0.47354 0.38682 0.0
C238 C 0.23357 0.50475 0.37643 0.0
O239 O 0.23098 0.48399 0.36411 0.0
N240 N 0.16382 0.47596 0.3645 0.0
C241 C 0.15944 0.50097 0.34083 0.0
C242 C 0.1622 0.50679 0.35676 0.0
C243 C 0.16103 0.45161 0.35291 0.0
N244 N 0.15876 0.46631 0.33837 0.0
O245 O 0.13233 0.51107 0.38801 0.0
H246 H 0.16326 0.5321 0.36241 0.0
H247 H 0.16087 0.42378 0.35498 0.0
O248 O 0.20879 0.50495 0.38681 0.0
C249 C 0.10285 0.49626 0.3852 0.0
O250 O 0.10246 0.46278 0.38188 0.0
N251 N 0.19414 0.43358 0.38659 0.0
C252 C 0.20835 0.37953 0.40733 0.0
C253 C 0.2335 0.40532 0.40444 0.0
C254 C 0.22601 0.43211 0.39391 0.0
C255 C 0.17234 0.4054 0.38706 0.0
C256 C 0.17879 0.37805 0.39754 0.0
H257 H 0.24355 0.45389 0.39417 0.0
H258 H 0.14682 0.40696 0.38163 0.0
H259 H 0.21467 0.49313 0.41757 0.0
H260 H 0.13678 0.43664 0.44163 0.0
H261 H 0.15742 0.52076 0.33174 0.0
H262 H 0.25682 0.40746 0.41165 0.0
H263 H 0.15915 0.35792 0.3991 0.0
C264 C 0.94428 0.62724 0.91667 0.0
C265 C 0.94453 0.63487 0.93258 0.0
N266 N 0.96177 0.66523 0.93472 0.0
N267 N 0.96132 0.65256 0.90871 0.0
C268 C 0.97181 0.67535 0.92005 0.0
H269 H 0.93148 0.60514 0.91119 0.0
Co270 Co 0.96463 0.65403 0.88653 0.0
C271 C 0.97996 0.72687 0.87807 0.0
O272 O 0.95701 0.72184 0.86672 0.0
N273 N 0.96917 0.65454 0.86399 0.0
C274 C 0.99777 0.6583 0.84106 0.0
C275 C 1.00071 0.65997 0.85721 0.0
C276 C 0.94739 0.64931 0.85149 0.0
N277 N 0.96421 0.65159 0.83742 0.0
O278 O 1.00712 0.62685 0.8878 0.0
H279 H 0.02462 0.66495 0.86366 0.0
H280 H 0.9197 0.64446 0.85246 0.0
O281 O 0.9876 0.70146 0.88744 0.0
C282 C 0.99465 0.59602 0.88568 0.0
O283 O 0.9611 0.59255 0.88283 0.0
N284 N 0.9203 0.67395 0.88611 0.0
C285 C 0.85681 0.67163 0.90177 0.0
C286 C 0.87944 0.69999 0.90403 0.0
C287 C 0.91114 0.70099 0.89584 0.0
C288 C 0.8967 0.64841 0.88258 0.0
C289 C 0.86448 0.64712 0.89006 0.0
H290 H 0.93013 0.72024 0.89949 0.0
H291 H 0.90481 0.62553 0.87616 0.0
H292 H 0.98598 0.6992 0.91759 0.0
H293 H 0.93181 0.61983 0.94177 0.0
H294 H 0.01895 0.6611 0.83265 0.0
H295 H 0.87414 0.7194 0.91303 0.0
H296 H 0.84782 0.62455 0.88821 0.0
C297 C 0.89722 0.96656 0.416 0.0
C298 C 0.89084 0.96585 0.43198 0.0
N299 N 0.85749 0.97561 0.43459 0.0
N300 N 0.86832 0.97703 0.4083 0.0
C301 C 0.84457 0.9828 0.41997 0.0
H302 H 0.92123 0.95866 0.41033 0.0
Co303 Co 0.86529 0.97611 0.38599 0.0
C304 C 0.79312 0.99638 0.3774 0.0
O305 O 0.79536 0.97127 0.36687 0.0
N306 N 0.86364 0.97592 0.36345 0.0
C307 C 0.86 0.99921 0.33934 0.0
C308 C 0.85779 1.00565 0.35526 0.0
C309 C 0.8706 0.95186 0.35208 0.0
N310 N 0.86815 0.96544 0.33733 0.0
O311 O 0.8965 0.01654 0.38493 0.0
H312 H 0.85253 0.03073 0.3606 0.0
H313 H 0.87768 0.9251 0.35441 0.0
O314 O 0.81956 1.00298 0.38648 0.0
C315 C 0.9259 1.00184 0.38177 0.0
O316 O 0.92626 0.96786 0.37983 0.0
N317 N 0.8416 0.93357 0.38768 0.0
C318 C 0.8393 0.87766 0.40839 0.0
C319 C 0.81118 0.90084 0.40754 0.0
C320 C 0.81266 0.92868 0.39695 0.0
C321 C 0.86627 0.90812 0.38667 0.0
C322 C 0.86575 0.87993 0.39701 0.0
H323 H 0.79333 0.94868 0.39837 0.0
H324 H 0.88983 0.91257 0.37997 0.0
H325 H 0.81784 0.99032 0.4177 0.0
H326 H 0.90952 0.95812 0.4409 0.0
H327 H 0.85703 0.01817 0.32994 0.0
H328 H 0.78975 0.89928 0.4159 0.0
H329 H 0.88794 0.86248 0.39723 0.0
C330 C 0.5557 0.89302 0.91893 0.0
C331 C 0.5549 0.88525 0.93485 0.0
N332 N 0.5509 0.8505 0.9365 0.0
N333 N 0.55182 0.86339 0.9105 0.0
C334 C 0.54918 0.83794 0.92157 0.0
H335 H 0.55954 0.91864 0.91389 0.0
Co336 Co 0.55194 0.85886 0.88824 0.0
C337 C 0.48972 0.80115 0.89114 0.0
O338 O 0.45721 0.81196 0.89107 0.0
N339 N 0.55107 0.85436 0.86609 0.0
C340 C 0.52904 0.84891 0.8419 0.0
C341 C 0.52162 0.84826 0.85776 0.0
C342 C 0.57615 0.85922 0.85495 0.0
N343 N 0.56333 0.85579 0.84005 0.0
O344 O 0.52009 0.89812 0.88681 0.0
H345 H 0.49591 0.84492 0.86284 0.0
H346 H 0.60303 0.86567 0.85771 0.0
O347 O 0.51431 0.82379 0.89 0.0
C348 C 0.53772 0.92496 0.88251 0.0
O349 O 0.57105 0.92102 0.87927 0.0
N350 N 0.58529 0.82417 0.88978 0.0
C351 C 0.62408 0.77452 0.90533 0.0
C352 C 0.59898 0.76434 0.89409 0.0
C353 C 0.57997 0.78997 0.88615 0.0
C354 C 0.61404 0.83437 0.89806 0.0
C355 C 0.63341 0.80989 0.90634 0.0
H356 H 0.5592 0.78242 0.87821 0.0
H357 H 0.61881 0.86185 0.90011 0.0
H358 H 0.54664 0.81067 0.91871 0.0
H359 H 0.55801 0.9037 0.94445 0.0
H360 H 0.51022 0.84601 0.83242 0.0
H361 H 0.59259 0.7371 0.89222 0.0
H362 H 0.65307 0.81905 0.91459 0.0
C363 C 0.63233 0.58471 0.41865 0.0
C364 C 0.63569 0.58126 0.43479 0.0
N365 N 0.65939 0.55629 0.43772 0.0
N366 N 0.65495 0.5632 0.41121 0.0
C367 C 0.66879 0.54433 0.42328 0.0
H368 H 0.61445 0.60223 0.41283 0.0
Co369 Co 0.66291 0.56044 0.38872 0.0
C370 C 0.7338 0.53991 0.40142 0.0
O371 O 0.73114 0.56538 0.41176 0.0
N372 N 0.66924 0.5569 0.36677 0.0
C373 C 0.68509 0.53751 0.34306 0.0
C374 C 0.68786 0.53232 0.35909 0.0
C375 C 0.65485 0.57642 0.35511 0.0
N376 N 0.66426 0.56519 0.34053 0.0
O377 O 0.63254 0.52039 0.38834 0.0
H378 H 0.70186 0.51123 0.36468 0.0
H379 H 0.63768 0.59828 0.35729 0.0
O380 O 0.70792 0.53319 0.39207 0.0
C381 C 0.60291 0.53473 0.38563 0.0
O382 O 0.60192 0.56861 0.38335 0.0
N383 N 0.68825 0.60248 0.38862 0.0
C384 C 0.72551 0.65533 0.40226 0.0
C385 C 0.74252 0.63187 0.39211 0.0
C386 C 0.72265 0.60604 0.38465 0.0
C387 C 0.67069 0.63062 0.39425 0.0
C388 C 0.68899 0.65723 0.40176 0.0
H389 H 0.73573 0.58613 0.37782 0.0
H390 H 0.64255 0.63055 0.39451 0.0
H391 H 0.68604 0.52239 0.42164 0.0
H392 H 0.62279 0.5971 0.44362 0.0
H393 H 0.69653 0.52133 0.33393 0.0
H394 H 0.77077 0.63115 0.39135 0.0
H395 H 0.67469 0.67636 0.4086 0.0
C396 C 0.93806 0.87656 0.1036 0.0
C397 C 0.93818 0.86992 0.08761 0.0
N398 N 0.95626 0.84047 0.08508 0.0
N399 N 0.95489 0.85083 0.11144 0.0
C400 C 0.96707 0.83016 0.09957 0.0
H401 H 0.92757 0.89984 0.10898 0.0
Co402 Co 0.96608 0.85152 0.13363 0.0
C403 C 0.97058 0.77598 0.12686 0.0
O404 O 0.93933 0.77944 0.1206 0.0
N405 N 0.97856 0.85364 0.15519 0.0
C406 C 1.0047 0.84358 0.17816 0.0
C407 C 1.00607 0.838 0.16209 0.0
C408 C 0.96135 0.86935 0.16723 0.0
N409 N 0.97638 0.86319 0.18148 0.0
O410 O 1.00809 0.87718 0.12848 0.0
H411 H 0.02543 0.8227 0.1559 0.0
H412 H 0.93764 0.88414 0.16551 0.0
O413 O 0.9868 0.80314 0.13216 0.0
C414 C 0.99659 0.90838 0.13048 0.0
O415 O 0.96394 0.91253 0.13489 0.0
N416 N 0.92242 0.83263 0.13971 0.0
C417 C 0.8673 0.8375 0.16087 0.0
C418 C 0.86732 0.85706 0.14692 0.0
C419 C 0.89531 0.85449 0.13659 0.0
C420 C 0.91982 0.80908 0.15189 0.0
C421 C 0.89236 0.81133 0.16278 0.0
H422 H 0.89718 0.87388 0.12752 0.0
H423 H 0.9416 0.79246 0.15487 0.0
H424 H 0.98522 0.80899 0.10124 0.0
H425 H 0.92616 0.88583 0.07855 0.0
H426 H 0.02272 0.83283 0.1867 0.0
H427 H 0.84759 0.8767 0.14476 0.0
H428 H 0.89286 0.7954 0.17337 0.0
C429 C 0.65172 0.95807 0.60597 0.0
C430 C 0.65823 0.96064 0.59 0.0
N431 N 0.69167 0.97073 0.58799 0.0
N432 N 0.68077 0.96676 0.61411 0.0
C433 C 0.70479 0.97436 0.60279 0.0
H434 H 0.62742 0.94973 0.61131 0.0
Co435 Co 0.68297 0.9651 0.63637 0.0
C436 C 0.75579 0.98125 0.64549 0.0
O437 O 0.75122 0.95644 0.65603 0.0
N438 N 0.6838 0.96449 0.65897 0.0
C439 C 0.68688 0.98836 0.68297 0.0
C440 C 0.68968 0.99436 0.66705 0.0
C441 C 0.67668 0.94061 0.67043 0.0
N442 N 0.67873 0.95455 0.68518 0.0
O443 O 0.65422 1.00683 0.63728 0.0
H444 H 0.69537 0.01931 0.66164 0.0
H445 H 0.66993 0.91369 0.66814 0.0
O446 O 0.73011 0.98965 0.63631 0.0
C447 C 0.62375 0.99423 0.64035 0.0
O448 O 0.62071 0.96049 0.64267 0.0
N449 N 0.70445 0.92168 0.63462 0.0
C450 C 0.70629 0.86344 0.61516 0.0
C451 C 0.73481 0.88642 0.61569 0.0
C452 C 0.73336 0.91564 0.62549 0.0
C453 C 0.67897 0.89695 0.63586 0.0
C454 C 0.67929 0.86762 0.62619 0.0
H455 H 0.75297 0.9354 0.62362 0.0
H456 H 0.65529 0.90262 0.64228 0.0
H457 H 0.73143 0.98206 0.60529 0.0
H458 H 0.64004 0.95451 0.58058 0.0
H459 H 0.68956 1.00777 0.6922 0.0
H460 H 0.75656 0.88366 0.60758 0.0
H461 H 0.65656 0.8507 0.62615 0.0
C462 C 0.5991 0.64742 0.10606 0.0
C463 C 0.60072 0.65602 0.09029 0.0
N464 N 0.57228 0.67499 0.0866 0.0
N465 N 0.56976 0.66075 0.1124 0.0
C466 C 0.5538 0.67738 0.10024 0.0
H467 H 0.61838 0.63277 0.11261 0.0
Co468 Co 0.55883 0.6549 0.13377 0.0
C469 C 0.50914 0.71198 0.14238 0.0
O470 O 0.52148 0.70866 0.1568 0.0
N471 N 0.54788 0.64658 0.15565 0.0
C472 C 0.51558 0.63066 0.1765 0.0
C473 C 0.51552 0.63697 0.16048 0.0
C474 C 0.56738 0.64433 0.16906 0.0
N475 N 0.5483 0.63535 0.18193 0.0
O476 O 0.5323 0.61241 0.12864 0.0
H477 H 0.49306 0.63481 0.15276 0.0
H478 H 0.59511 0.64846 0.16962 0.0
O479 O 0.51791 0.68907 0.13182 0.0
C480 C 0.55331 0.58733 0.13185 0.0
O481 O 0.58514 0.59571 0.13636 0.0
N482 N 0.58796 0.69346 0.1385 0.0
C483 C 0.61889 0.75092 0.1526 0.0
C484 C 0.59492 0.75529 0.14019 0.0
C485 C 0.58142 0.72595 0.13266 0.0
C486 C 0.61701 0.68873 0.14746 0.0
C487 C 0.63261 0.71722 0.15499 0.0
H488 H 0.56351 0.72952 0.123 0.0
H489 H 0.6269 0.66273 0.14945 0.0
H490 H 0.52921 0.69099 0.10133 0.0
H491 H 0.6218 0.64962 0.08226 0.0
H492 H 0.49336 0.62243 0.18351 0.0
H493 H 0.5849 0.78052 0.1368 0.0
H494 H 0.65416 0.71257 0.16301 0.0
C495 C 0.89244 0.55175 0.60179 0.0
C496 C 0.88369 0.55168 0.58597 0.0
N497 N 0.84931 0.54441 0.58463 0.0
N498 N 0.86381 0.54435 0.61047 0.0
C499 C 0.838 0.54012 0.59967 0.0
H500 H 0.91788 0.55782 0.60663 0.0
Co501 Co 0.86051 0.54382 0.63273 0.0
C502 C 0.8034 0.48197 0.63095 0.0
O503 O 0.81969 0.45232 0.6333 0.0
N504 N 0.85716 0.54244 0.65486 0.0
C505 C 0.85219 0.52004 0.67899 0.0
C506 C 0.8505 0.51306 0.66311 0.0
C507 C 0.86351 0.56701 0.66605 0.0
N508 N 0.8604 0.55395 0.68091 0.0
O509 O 0.8976 0.50914 0.63344 0.0
H510 H 0.84618 0.48765 0.65795 0.0
H511 H 0.87082 0.59366 0.66336 0.0
O512 O 0.82086 0.5105 0.63118 0.0
C513 C 0.92543 0.52642 0.63687 0.0
O514 O 0.9225 0.55992 0.63985 0.0
N515 N 0.82871 0.5803 0.6318 0.0
C516 C 0.78454 0.61996 0.61371 0.0
C517 C 0.77065 0.5965 0.62482 0.0
C518 C 0.7936 0.57699 0.63411 0.0
C519 C 0.84195 0.6084 0.62398 0.0
C520 C 0.82018 0.62837 0.61448 0.0
H521 H 0.7833 0.55652 0.64158 0.0
H522 H 0.86997 0.61165 0.62298 0.0
H523 H 0.81131 0.53453 0.60277 0.0
H524 H 0.90115 0.55768 0.57626 0.0
H525 H 0.84919 0.50113 0.68841 0.0
H526 H 0.74297 0.59054 0.62512 0.0
H527 H 0.83157 0.64779 0.6067 0.0
C528 C 0.02993 0.22376 0.95175 0.0
C529 C 0.0468 0.19131 0.9503 0.0
C530 C 0.02879 0.24111 0.96639 0.0
C531 C 0.03422 0.2239 1.00931 0.0
H532 H 0.05484 0.32255 1.01318 0.0
C533 C 0.05255 0.29023 0.07045 0.0
C534 C 0.04212 0.32514 0.07212 0.0
C535 C 0.05192 0.27403 0.05557 0.0
C536 C 0.0484 0.29509 1.01233 0.0
H537 H 0.07748 0.15303 0.96321 0.0
H538 H 0.07467 0.18264 0.98847 0.0
H539 H 0.0555 0.2951 0.98713 0.0
H540 H 0.02152 0.36993 0.0597 0.0
H541 H 0.01919 0.34156 0.03392 0.0
H542 H 0.02657 0.22373 0.03439 0.0
C543 C 0.06177 0.19437 0.97837 0.0
C544 C 0.0489 0.27937 0.99736 0.0
C545 C 0.06323 0.17729 0.9638 0.0
C546 C 0.03016 0.34315 0.05871 0.0
C547 C 0.02906 0.32688 0.0439 0.0
C548 C 0.03333 0.23966 0.02425 0.0
C549 C 0.04425 0.22626 0.97992 0.0
C550 C 0.04212 0.24353 0.99569 0.0
C551 C 0.04039 0.29223 0.04203 0.0
C552 C 0.04064 0.27546 0.02602 0.0
H553 H 0.01695 0.23545 0.9417 0.0
H554 H 0.01506 0.2657 0.96722 0.0
H555 H 0.02842 0.19629 1.00839 0.0
H556 H 0.06233 0.27587 0.08055 0.0
H557 H 0.06136 0.24752 0.05464 0.0
C558 C 0.30342 0.04914 0.45192 0.0
C559 C 0.33475 0.03057 0.44987 0.0
C560 C 0.28711 0.05059 0.46675 0.0
C561 C 0.30532 0.03854 0.50966 0.0
H562 H 0.20435 0.03665 0.5131 0.0
C563 C 0.23301 0.03027 0.57017 0.0
C564 C 0.20276 0.05077 0.57189 0.0
C565 C 0.24949 0.0271 0.5554 0.0
C566 C 0.23259 0.03756 0.51236 0.0
H567 H 0.37267 0.99792 0.46173 0.0
H568 H 0.34406 0.9999 0.48749 0.0
H569 H 0.23164 0.03227 0.48713 0.0
H570 H 0.16721 0.08502 0.55933 0.0
H571 H 0.19559 0.0793 0.5338 0.0
H572 H 0.30619 0.04384 0.53493 0.0
C573 C 0.33249 0.01411 0.47774 0.0
C574 C 0.24827 0.03507 0.49743 0.0
C575 C 0.34885 0.01282 0.46294 0.0
C576 C 0.18983 0.06828 0.55848 0.0
C577 C 0.20619 0.06505 0.54377 0.0
C578 C 0.28963 0.04097 0.52461 0.0
C579 C 0.3016 0.03332 0.47991 0.0
C580 C 0.28486 0.03562 0.49586 0.0
C581 C 0.23611 0.04428 0.54198 0.0
C582 C 0.25304 0.04068 0.52614 0.0
H583 H 0.29206 0.06352 0.44219 0.0
H584 H 0.26363 0.06605 0.46799 0.0
H585 H 0.33356 0.03963 0.50892 0.0
H586 H 0.24372 0.01617 0.58012 0.0
H587 H 0.27235 0.01066 0.55443 0.0
C588 C 0.46841 0.16422 0.05646 0.0
C589 C 0.46863 0.18218 0.071 0.0
C590 C 0.46979 0.18227 0.04209 0.0
C591 C 0.45463 0.26957 0.02427 0.0
H592 H 0.50694 0.23092 0.98909 0.0
C593 C 0.47841 0.34766 0.96686 0.0
C594 C 0.47544 0.33014 0.95228 0.0
C595 C 0.47822 0.32928 0.98115 0.0
C596 C 0.49188 0.2419 0.99872 0.0
H597 H 0.47073 0.23374 0.0816 0.0
H598 H 0.47379 0.26518 0.05654 0.0
H599 H 0.50604 0.20046 1.01442 0.0
H600 H 0.47062 0.27908 0.94142 0.0
H601 H 0.47033 0.24688 0.96643 0.0
H602 H 0.44066 0.31112 1.00858 0.0
C603 C 0.47206 0.23698 0.05628 0.0
C604 C 0.49134 0.22442 1.01329 0.0
C605 C 0.47071 0.21887 0.07071 0.0
C606 C 0.47325 0.29347 0.95239 0.0
C607 C 0.47302 0.275 0.96675 0.0
C608 C 0.45527 0.2871 1.00972 0.0
C609 C 0.47158 0.21891 0.04175 0.0
C610 C 0.47268 0.23797 0.02629 0.0
C611 C 0.47512 0.29275 0.98134 0.0
C612 C 0.47395 0.27355 0.99674 0.0
H613 H 0.46736 0.13604 0.05611 0.0
H614 H 0.46891 0.16737 0.0312 0.0
H615 H 0.43943 0.28054 0.03386 0.0
H616 H 0.48097 0.37576 0.96728 0.0
H617 H 0.48075 0.34381 0.9921 0.0
C618 C 0.22011 0.49791 0.45372 0.0
C619 C 0.20211 0.46773 0.44886 0.0
C620 C 0.23767 0.49866 0.46832 0.0
C621 C 0.27625 0.44101 0.49864 0.0
H622 H 0.25833 0.51626 0.52822 0.0
C623 C 0.30892 0.42501 0.56419 0.0
C624 C 0.32297 0.45329 0.57268 0.0
C625 C 0.29552 0.42955 0.54899 0.0
C626 C 0.26407 0.4953 0.52004 0.0
H627 H 0.18984 0.41424 0.45502 0.0
H628 H 0.22066 0.41528 0.48025 0.0
H629 H 0.23445 0.5191 0.50135 0.0
H630 H 0.33268 0.50893 0.57206 0.0
H631 H 0.30962 0.517 0.54516 0.0
H632 H 0.30583 0.41712 0.51708 0.0
C633 C 0.221 0.43853 0.47296 0.0
C634 C 0.25037 0.49695 0.50463 0.0
C635 C 0.2031 0.43799 0.45857 0.0
C636 C 0.3221 0.48665 0.56577 0.0
C637 C 0.30885 0.49122 0.55038 0.0
C638 C 0.29012 0.4395 0.51391 0.0
C639 C 0.23814 0.46897 0.47814 0.0
C640 C 0.25569 0.46942 0.49388 0.0
C641 C 0.296 0.46251 0.54167 0.0
C642 C 0.28354 0.46616 0.52498 0.0
H643 H 0.21969 0.52114 0.44644 0.0
H644 H 0.25089 0.52239 0.47193 0.0
H645 H 0.28137 0.41969 0.49055 0.0
H646 H 0.30822 0.39916 0.56934 0.0
H647 H 0.28474 0.40703 0.54295 0.0
C648 C 0.96309 0.84289 0.05594 0.0
C649 C 0.96221 0.82345 0.07004 0.0
C650 C 0.96627 0.8263 0.04125 0.0
C651 C 0.98997 0.74191 0.02207 0.0
H652 H 0.93498 0.77862 0.98733 0.0
C653 C 0.9669 0.66514 0.96394 0.0
C654 C 0.96619 0.68362 0.94956 0.0
C655 C 0.96902 0.68273 0.97842 0.0
C656 C 0.95091 0.76827 0.99682 0.0
H657 H 0.96446 0.77118 0.07972 0.0
H658 H 0.96953 0.74207 0.05411 0.0
H659 H 0.93371 0.80766 1.01295 0.0
H660 H 0.96764 0.73535 0.93921 0.0
H661 H 0.97179 0.76614 0.9645 0.0
H662 H 1.00667 0.70215 1.00594 0.0
C663 C 0.96837 0.77029 0.05438 0.0
C664 C 0.95021 0.78497 1.01156 0.0
C665 C 0.96544 0.78696 0.06911 0.0
C666 C 0.96838 0.72025 0.95003 0.0
C667 C 0.97036 0.73792 0.96456 0.0
C668 C 0.99056 0.72513 1.00733 0.0
C669 C 0.96839 0.78972 0.04022 0.0
C670 C 0.96968 0.77203 0.02443 0.0
C671 C 0.97044 0.71938 0.97896 0.0
C672 C 0.97095 0.73802 0.99451 0.0
H673 H 0.96131 0.87106 0.05624 0.0
H674 H 0.96705 0.84227 0.03069 0.0
H675 H 1.00573 0.73141 0.03158 0.0
H676 H 0.96566 0.63693 0.96403 0.0
H677 H 0.96868 0.66755 0.98923 0.0
C678 C 0.80737 0.993 0.45183 0.0
C679 C 0.83947 0.97566 0.44975 0.0
C680 C 0.79077 0.99349 0.46669 0.0
C681 C 0.80956 0.98411 0.5095 0.0
H682 H 0.7103 0.96642 0.51372 0.0
C683 C 0.74421 0.96407 0.57103 0.0
C684 C 0.70939 0.97474 0.57298 0.0
C685 C 0.76016 0.9653 0.55605 0.0
C686 C 0.73797 0.97204 0.51282 0.0
H687 H 0.87788 0.94362 0.46192 0.0
H688 H 0.84961 0.94534 0.4875 0.0
H689 H 0.7369 0.9671 0.48751 0.0
H690 H 0.66457 0.99647 0.56096 0.0
H691 H 0.69247 0.99997 0.53511 0.0
H692 H 0.81079 0.98967 0.53471 0.0
C693 C 0.83758 0.95909 0.47772 0.0
C694 C 0.75322 0.9723 0.49772 0.0
C695 C 0.85392 0.95827 0.46293 0.0
C696 C 0.69128 0.98763 0.55976 0.0
C697 C 0.7073 0.98936 0.54489 0.0
C698 C 0.79428 0.98426 0.52459 0.0
C699 C 0.80596 0.97692 0.47987 0.0
C700 C 0.78927 0.97808 0.49587 0.0
C701 C 0.74182 0.9777 0.54269 0.0
C702 C 0.75823 0.97805 0.52653 0.0
H703 H 0.79526 1.00672 0.44209 0.0
H704 H 0.7664 1.00752 0.46794 0.0
H705 H 0.83736 0.9891 0.5085 0.0
H706 H 0.75867 0.9536 0.58096 0.0
H707 H 0.78657 0.9556 0.55492 0.0
C708 C 0.53646 0.84673 0.96499 0.0
C709 C 0.54973 0.83114 0.95119 0.0
C710 C 0.5364 0.8288 0.97941 0.0
C711 C 0.54495 0.74029 0.99732 0.0
H712 H 0.5657 0.79334 0.0353 0.0
C713 C 0.57716 0.67503 0.0574 0.0
C714 C 0.56493 0.69069 0.0714 0.0
C715 C 0.57274 0.69131 0.04272 0.0
C716 C 0.55935 0.77817 0.02487 0.0
H717 H 0.57318 0.78413 0.94176 0.0
H718 H 0.57368 0.75291 0.96699 0.0
H719 H 0.56389 0.82278 1.00981 0.0
H720 H 0.53775 0.73559 0.08085 0.0
H721 H 0.52968 0.76402 0.05515 0.0
H722 H 0.541 0.69554 1.01244 0.0
C723 C 0.56269 0.77889 0.96663 0.0
C724 C 0.55831 0.79508 1.01018 0.0
C725 C 0.56247 0.7968 0.95213 0.0
C726 C 0.54729 0.72272 0.07029 0.0
C727 C 0.54303 0.73917 0.05557 0.0
C728 C 0.54613 0.72333 1.01202 0.0
C729 C 0.54991 0.79478 0.98052 0.0
C730 C 0.55107 0.77644 0.99617 0.0
C731 C 0.55604 0.72383 0.0416 0.0
C732 C 0.55339 0.74204 0.026 0.0
H733 H 0.52582 0.87284 0.96462 0.0
H734 H 0.52552 0.84165 0.98969 0.0
H735 H 0.53878 0.72507 0.98688 0.0
H736 H 0.59049 0.65019 0.0578 0.0
H737 H 0.58336 0.67881 0.03229 0.0
C738 C 0.71162 0.53913 0.45326 0.0
C739 C 0.67635 0.54945 0.45273 0.0
C740 C 0.7294 0.53679 0.46771 0.0
C741 C 0.71657 0.53091 0.51128 0.0
H742 H 0.81082 0.56818 0.51274 0.0
C743 C 0.79263 0.54932 0.57037 0.0
C744 C 0.82887 0.54305 0.57021 0.0
C745 C 0.77333 0.54949 0.55625 0.0
C746 C 0.7847 0.5572 0.51255 0.0
H747 H 0.63197 0.56406 0.46717 0.0
H748 H 0.66296 0.56009 0.49236 0.0
H749 H 0.77877 0.56841 0.48787 0.0
H750 H 0.87264 0.5302 0.55503 0.0
H751 H 0.83912 0.52973 0.5306 0.0
H752 H 0.72259 0.51962 0.53597 0.0
C753 C 0.67686 0.55372 0.48158 0.0
C754 C 0.76628 0.55734 0.49823 0.0
C755 C 0.65911 0.55622 0.46711 0.0
C756 C 0.84502 0.53597 0.55561 0.0
C757 C 0.82571 0.53578 0.54155 0.0
C758 C 0.73507 0.53065 0.52561 0.0
C759 C 0.71242 0.54454 0.48206 0.0
C760 C 0.732 0.5441 0.49737 0.0
C761 C 0.78966 0.54291 0.54161 0.0
C762 C 0.76949 0.54367 0.52644 0.0
H763 H 0.72597 0.53409 0.44247 0.0
H764 H 0.75663 0.52917 0.46762 0.0
H765 H 0.69035 0.52021 0.51104 0.0
H766 H 0.77922 0.55503 0.58134 0.0
H767 H 0.74572 0.55549 0.5568 0.0
C768 C 0.01776 0.22648 0.12569 0.0
C769 C 0.02348 0.24011 0.14094 0.0
C770 C 0.0152 0.19009 0.12332 0.0
C771 C 1.00431 0.10527 0.14549 0.0
H772 H 0.04997 0.06465 0.10895 0.0
C773 C 0.02821 0.9575 0.14285 0.0
C774 C 0.01748 0.94065 0.12889 0.0
C775 C 0.03241 0.99387 0.14331 0.0
C776 C 0.03701 0.07557 0.1192 0.0
H777 H 0.02956 0.22624 0.16564 0.0
H778 H 0.02533 0.16392 0.16163 0.0
H779 H 0.04625 0.12817 0.11146 0.0
H780 H 1.00379 0.94877 0.10435 0.0
H781 H 0.01241 0.01208 0.10491 0.0
H782 H 0.99551 0.05289 0.15336 0.0
C783 C 0.0223 0.18071 0.15142 0.0
C784 C 0.0346 0.1121 0.1206 0.0
C785 C 0.02482 0.21672 0.15375 0.0
C786 C 0.01356 0.96078 0.1151 0.0
C787 C 0.01796 0.99722 0.11551 0.0
C788 C 1.00702 0.06894 0.14417 0.0
C789 C 0.01816 0.16658 0.13615 0.0
C790 C 0.01849 0.12759 0.13387 0.0
C791 C 0.02581 0.01444 0.12981 0.0
C792 C 0.02369 0.05346 0.1311 0.0
H793 H 0.01722 0.24367 0.11553 0.0
H794 H 0.01159 0.18038 0.11139 0.0
H795 H 0.99089 0.11583 0.1557 0.0
H796 H 0.0301 0.94292 0.15381 0.0
H797 H 0.03896 1.00608 0.1545 0.0
C798 C 0.30423 0.01378 0.63548 0.0
C799 C 0.29099 0.04742 0.6326 0.0
C800 C 0.3407 1.00832 0.63667 0.0
C801 C 0.42542 0.05224 0.62577 0.0
H802 H 0.46749 0.98723 0.6551 0.0
C803 C 0.57505 0.0235 0.62602 0.0
C804 C 0.59081 0.01428 0.64042 0.0
C805 C 0.53876 0.02902 0.62514 0.0
C806 C 0.45627 1.00589 0.64695 0.0
H807 H 0.30598 0.10182 0.62985 0.0
H808 H 0.3679 0.09254 0.63225 0.0
H809 H 0.4039 0.99181 0.65369 0.0
H810 H 0.58108 1.00446 0.66524 0.0
H811 H 0.5185 0.016 0.664 0.0
H812 H 0.47744 0.06721 0.61934 0.0
C813 C 0.35083 0.07 0.63294 0.0
C814 C 0.41962 1.00807 0.64597 0.0
C815 C 0.31493 0.07533 0.63165 0.0
C816 C 0.56984 0.01263 0.65406 0.0
C817 C 0.53371 0.01834 0.65324 0.0
C818 C 0.46192 0.05021 0.6268 0.0
C819 C 0.36456 0.03642 0.63509 0.0
C820 C 0.40359 0.03166 0.6355 0.0
C821 C 0.5173 0.02532 0.63867 0.0
C822 C 0.47806 0.02726 0.6375 0.0
H823 H 0.28659 0.99172 0.63639 0.0
H824 H 0.3502 0.98203 0.63841 0.0
H825 H 0.4143 0.07023 0.61729 0.0
H826 H 0.59024 0.02345 0.61519 0.0
H827 H 0.52734 0.03398 0.61364 0.0
C828 C 0.56177 0.52759 0.14272 0.0
C829 C 0.54337 0.54954 0.1323 0.0
C830 C 0.55673 0.49149 0.14266 0.0
C831 C 0.52721 0.41733 0.11775 0.0
H832 H 0.53388 0.36745 0.15755 0.0
C833 C 0.51561 0.2644 0.1232 0.0
C834 C 0.53642 0.24775 0.13472 0.0
C835 C 0.51454 0.30107 0.122 0.0
C836 C 0.53239 0.38076 0.14627 0.0
H837 H 0.5044 0.5502 0.11374 0.0
H838 H 0.49533 0.48631 0.11361 0.0
H839 H 0.53252 0.43079 0.15752 0.0
H840 H 0.57395 0.25769 0.15345 0.0
H841 H 0.57272 0.32087 0.15115 0.0
H842 H 0.52721 0.36691 0.10654 0.0
C843 C 0.51396 0.49749 0.12183 0.0
C844 C 0.53148 0.41734 0.14625 0.0
C845 C 0.51885 0.53415 0.12199 0.0
C846 C 0.55741 0.26912 0.14445 0.0
C847 C 0.55638 0.30565 0.14325 0.0
C848 C 0.52804 0.38051 0.11777 0.0
C849 C 0.53306 0.47559 0.13215 0.0
C850 C 0.52965 0.43637 0.132 0.0
C851 C 0.53431 0.32236 0.13228 0.0
C852 C 0.5314 0.36163 0.13203 0.0
H853 H 0.58081 0.53833 0.15089 0.0
H854 H 0.57239 0.47589 0.15063 0.0
H855 H 0.526 0.43087 0.10651 0.0
H856 H 0.49877 0.24933 0.11555 0.0
H857 H 0.49707 0.31271 0.11343 0.0
C858 C 0.2397 0.53449 0.65077 0.0
C859 C 0.26237 0.52484 0.63837 0.0
C860 C 0.2034 0.53361 0.64887 0.0
C861 C 0.12909 0.52843 0.62067 0.0
H862 H 0.0837 0.48267 0.65614 0.0
C863 C 0.9778 0.50395 0.62214 0.0
C864 C 0.96137 0.51195 0.63658 0.0
C865 C 0.01455 0.50166 0.62117 0.0
C866 C 0.09572 0.49576 0.64616 0.0
H867 H 0.26388 0.51203 0.61338 0.0
H868 H 0.20005 0.5107 0.61001 0.0
H869 H 0.14686 0.48989 0.65606 0.0
H870 H 0.97056 0.5236 0.66126 0.0
H871 H 0.03386 0.51862 0.65981 0.0
H872 H 0.0776 0.5347 0.6109 0.0
C873 C 0.21074 0.51796 0.62141 0.0
C874 C 0.13215 0.49998 0.64612 0.0
C875 C 0.24747 0.51888 0.62333 0.0
C876 C 0.98234 0.51617 0.6501 0.0
C877 C 0.01882 0.51356 0.6492 0.0
C878 C 0.09243 0.52429 0.62073 0.0
C879 C 0.18824 0.5235 0.63443 0.0
C880 C 0.14942 0.51706 0.63356 0.0
C881 C 0.03571 0.50721 0.63465 0.0
C882 C 0.07507 0.50847 0.63364 0.0
H883 H 0.24997 0.53994 0.66247 0.0
H884 H 0.18713 0.5394 0.65903 0.0
H885 H 0.14136 0.54164 0.61079 0.0
H886 H 0.96247 0.50184 0.6114 0.0
H887 H 0.0264 0.49651 0.60978 0.0
C888 C 0.01655 0.54544 0.90099 0.0
C889 C 0.01484 0.56335 0.8865 0.0
C890 C 0.02013 0.50894 0.90137 0.0
C891 C 0.03673 0.43035 0.87561 0.0
H892 H 0.97795 0.3828 0.90625 0.0
C893 C 1.00002 0.28668 0.86679 0.0
C894 C 1.0045 0.26387 0.87969 0.0
C895 C 1.00039 0.32286 0.86888 0.0
C896 C 0.99473 0.39562 0.8977 0.0
H897 H 0.01621 0.55712 0.8611 0.0
H898 H 0.02304 0.49411 0.86159 0.0
H899 H 0.98488 0.44617 0.90758 0.0
H900 H 1.00984 0.26172 0.9052 0.0
H901 H 1.00985 0.32528 0.90894 0.0
H902 H 0.04579 0.37999 0.86548 0.0
C903 C 0.02247 0.50786 0.87278 0.0
C904 C 0.99894 0.43208 0.8985 0.0
C905 C 0.01899 0.54425 0.87245 0.0
C906 C 1.00606 0.27836 0.895 0.0
C907 C 1.00639 0.31488 0.89712 0.0
C908 C 0.03227 0.39409 0.87474 0.0
C909 C 0.0217 0.48939 0.88723 0.0
C910 C 0.01969 0.45013 0.88733 0.0
C911 C 1.00513 0.33758 0.88398 0.0
C912 C 0.0108 0.37619 0.88561 0.0
H913 H 0.01198 0.55927 0.91199 0.0
H914 H 0.01999 0.49595 0.91274 0.0
H915 H 0.05354 0.44288 0.86699 0.0
H916 H 0.99858 0.27653 0.85483 0.0
H917 H 0.99832 0.33939 0.85853 0.0
C918 C 0.98062 0.01092 0.36694 0.0
C919 C 0.96016 0.01974 0.38018 0.0
C920 C 0.01704 0.01417 0.36729 0.0
C921 C 0.09384 0.05267 0.387 0.0
H922 H 0.13913 0.9661 0.37505 0.0
C923 C 0.24461 0.04014 0.37755 0.0
C924 C 0.26125 0.01182 0.38506 0.0
C925 C 0.20799 0.04254 0.37702 0.0
C926 C 0.12698 0.99045 0.37846 0.0
H927 H 0.96209 0.04044 0.40398 0.0
H928 H 0.02612 0.04785 0.40436 0.0
H929 H 0.07546 0.97055 0.37396 0.0
H930 H 0.25158 0.9629 0.3972 0.0
H931 H 0.1878 0.96643 0.39569 0.0
H932 H 0.14561 0.07269 0.39124 0.0
C933 C 0.01368 0.03826 0.39368 0.0
C934 C 0.09044 0.99311 0.37774 0.0
C935 C 0.97693 0.03458 0.3934 0.0
C936 C 0.23996 0.98511 0.39131 0.0
C937 C 0.20329 0.98718 0.3905 0.0
C938 C 0.13056 0.05023 0.38742 0.0
C939 C 0.03425 0.02657 0.38087 0.0
C940 C 0.07331 0.02424 0.38196 0.0
C941 C 0.18677 0.01625 0.3836 0.0
C942 C 0.14764 0.01903 0.38318 0.0
H943 H 0.96859 0.99866 0.35673 0.0
H944 H 0.03193 1.00535 0.35715 0.0
H945 H 0.08154 0.077 0.39033 0.0
H946 H 0.25989 0.06098 0.37232 0.0
H947 H 0.19625 0.06497 0.37135 0.0
C948 C 0.51451 0.24528 0.89677 0.0
C949 C 0.51732 0.26126 0.88181 0.0
C950 C 0.51764 0.2088 0.89833 0.0
C951 C 0.54834 0.1289 0.87712 0.0
H952 H 0.47668 0.08045 0.9011 0.0
C953 C 0.52998 0.98167 0.86895 0.0
C954 C 0.52374 0.96095 0.88235 0.0
C955 C 0.52693 0.018 0.86968 0.0
C956 C 0.49712 0.09348 0.89447 0.0
H957 H 0.52759 0.25153 0.857 0.0
H958 H 0.5341 0.18881 0.85972 0.0
H959 H 0.47974 0.14429 0.90178 0.0
H960 H 0.50851 0.96198 0.907 0.0
H961 H 0.50347 0.02576 0.90844 0.0
H962 H 0.56595 0.07861 0.86981 0.0
C963 C 0.52934 0.20406 0.8703 0.0
C964 C 0.49896 0.13018 0.89491 0.0
C965 C 0.5258 0.24021 0.86873 0.0
C966 C 0.51262 0.97726 0.89637 0.0
C967 C 0.51002 0.0139 0.8972 0.0
C968 C 0.54661 0.09241 0.87673 0.0
C969 C 0.52427 0.18759 0.88501 0.0
C970 C 0.52428 0.14845 0.88601 0.0
C971 C 0.51841 0.03489 0.88398 0.0
C972 C 0.52058 0.07403 0.88513 0.0
H973 H 0.50739 0.2605 0.90705 0.0
H974 H 0.51394 0.1971 0.90988 0.0
H975 H 0.56863 0.14185 0.87035 0.0
H976 H 0.539 0.96982 0.85805 0.0
H977 H 0.53254 0.03292 0.8591 0.0
C978 C 0.54976 0.51555 0.37157 0.0
C979 C 0.56909 0.5162 0.38567 0.0
C980 C 0.51341 0.51135 0.37184 0.0
C981 C 0.43767 0.52732 0.39833 0.0
H982 H 0.38637 0.48365 0.36407 0.0
C983 C 0.28426 0.516 0.39502 0.0
C984 C 0.26941 0.51811 0.37981 0.0
C985 C 0.32083 0.51695 0.39698 0.0
C986 C 0.40024 0.49633 0.37366 0.0
H987 H 0.56563 0.51259 0.41117 0.0
H988 H 0.5021 0.50388 0.41172 0.0
H989 H 0.44954 0.47786 0.36524 0.0
H990 H 0.28119 0.52647 0.355 0.0
H991 H 0.34418 0.52928 0.35844 0.0
H992 H 0.38797 0.54571 0.40671 0.0
C993 C 0.51499 0.5067 0.40038 0.0
C994 C 0.43662 0.49292 0.37436 0.0
C995 C 0.55152 0.51082 0.40007 0.0
C996 C 0.29171 0.52459 0.36689 0.0
C997 C 0.32796 0.52564 0.36883 0.0
C998 C 0.4011 0.53059 0.39768 0.0
C999 C 0.49527 0.50809 0.38629 0.0
C1000 C 0.45604 0.50882 0.38654 0.0
C1001 C 0.34317 0.5202 0.38377 0.0
C1002 C 0.38195 0.51569 0.38515 0.0
H1003 H 0.56248 0.52109 0.36037 0.0
H1004 H 0.49938 0.51316 0.36074 0.0
H1005 H 0.45162 0.54036 0.4078 0.0
H1006 H 0.268 0.51069 0.40522 0.0
H1007 H 0.3316 0.51288 0.40869 0.0
C1008 C 0.99486 0.7855 0.86751 0.0
C1009 C 0.99144 0.76353 0.88075 0.0
C1010 C 0.99676 0.82171 0.86924 0.0
C1011 C 1.00998 0.89504 0.89756 0.0
H1012 H 0.95486 0.9452 0.86651 0.0
C1013 C 0.99583 0.0462 0.89977 0.0
C1014 C 1.00114 0.06315 0.88521 0.0
C1015 C 0.9903 0.0099 0.90034 0.0
C1016 C 0.97054 0.93175 0.87525 0.0
H1017 H 0.98883 0.76252 0.90634 0.0
H1018 H 0.9924 0.82628 0.90946 0.0
H1019 H 0.95726 0.88186 0.8656 0.0
H1020 H 1.00441 0.05563 0.85991 0.0
H1021 H 0.99384 0.99294 0.86075 0.0
H1022 H 0.02349 0.94529 0.90708 0.0
C1023 C 0.99384 0.81526 0.89767 0.0
C1024 C 0.97206 0.89526 0.8747 0.0
C1025 C 0.99208 0.77867 0.89592 0.0
C1026 C 0.99904 0.04346 0.87124 0.0
C1027 C 0.99332 1.00736 0.87177 0.0
C1028 C 1.00846 0.93172 0.89811 0.0
C1029 C 0.99493 0.83732 0.88429 0.0
C1030 C 0.99226 0.8763 0.88566 0.0
C1031 C 0.99009 0.9898 0.88635 0.0
C1032 C 0.98908 0.95064 0.88681 0.0
H1033 H 0.99444 0.7747 0.85565 0.0
H1034 H 0.99862 0.83759 0.85867 0.0
H1035 H 0.02592 0.88147 0.90616 0.0
H1036 H 0.99862 0.06053 0.91076 0.0
H1037 H 0.98756 0.99741 0.91177 0.0
C1038 C 0.73862 0.02168 0.36648 0.0
C1039 C 0.75761 0.01107 0.37986 0.0
C1040 C 0.70216 0.02482 0.36697 0.0
C1041 C 0.62345 0.02294 0.39394 0.0
H1042 H 0.57644 0.99697 0.35497 0.0
C1043 C 0.47211 1.0067 0.39065 0.0
C1044 C 0.456 0.02469 0.37812 0.0
C1045 C 0.50852 1.00159 0.39082 0.0
C1046 C 0.58906 1.00442 0.36595 0.0
H1047 H 0.75298 0.99641 0.4045 0.0
H1048 H 0.68924 1.00117 0.4054 0.0
H1049 H 0.6399 0.99777 0.35598 0.0
H1050 H 0.4655 0.05051 0.35577 0.0
H1051 H 0.52842 0.04005 0.35559 0.0
H1052 H 0.57212 0.0288 0.4039 0.0
C1053 C 0.70251 1.00795 0.39451 0.0
C1054 C 0.62572 1.00522 0.36653 0.0
C1055 C 0.73928 1.00544 0.39407 0.0
C1056 C 0.47686 0.03542 0.36531 0.0
C1057 C 0.5131 0.02981 0.36533 0.0
C1058 C 0.58668 0.02171 0.39339 0.0
C1059 C 0.68319 0.01648 0.38078 0.0
C1060 C 0.6437 0.01501 0.38046 0.0
C1061 C 0.5297 0.01403 0.37837 0.0
C1062 C 0.56892 0.01279 0.37933 0.0
H1063 H 0.7519 0.02573 0.35529 0.0
H1064 H 0.68881 0.03267 0.35625 0.0
H1065 H 0.63589 0.03089 0.40487 0.0
H1066 H 0.457 0.999 0.40091 0.0
H1067 H 0.52025 0.98901 0.40098 0.0
C1068 C 0.5239 0.47942 0.89907 0.0
C1069 C 0.51032 0.46239 0.88566 0.0
C1070 C 0.52731 0.51609 0.89931 0.0
C1071 C 0.48486 0.59267 0.88101 0.0
H1072 H 0.55969 0.64731 0.8996 0.0
C1073 C 0.4836 0.74355 0.87731 0.0
C1074 C 0.49659 0.76291 0.89015 0.0
C1075 C 0.48823 0.70725 0.87652 0.0
C1076 C 0.5383 0.63253 0.89451 0.0
H1077 H 0.49114 0.47016 0.86184 0.0
H1078 H 0.49789 0.53338 0.86206 0.0
H1079 H 0.5641 0.58359 0.8988 0.0
H1080 H 0.52366 0.75881 0.91256 0.0
H1081 H 0.53148 0.69575 0.91137 0.0
H1082 H 0.45848 0.64095 0.87707 0.0
C1083 C 0.50566 0.51884 0.87246 0.0
C1084 C 0.54095 0.59588 0.89403 0.0
C1085 C 0.50239 0.48247 0.87223 0.0
C1086 C 0.51415 0.74499 0.90228 0.0
C1087 C 0.51864 0.70861 0.90157 0.0
C1088 C 0.48207 0.6291 0.88162 0.0
C1089 C 0.51678 0.53637 0.88621 0.0
C1090 C 0.51439 0.57545 0.88711 0.0
C1091 C 0.50554 0.68901 0.88873 0.0
C1092 C 0.50882 0.6498 0.88825 0.0
H1093 H 0.52907 0.46477 0.90978 0.0
H1094 H 0.53587 0.52867 0.91013 0.0
H1095 H 0.46343 0.57788 0.87595 0.0
H1096 H 0.46981 0.75658 0.8678 0.0
H1097 H 0.47819 0.69352 0.86628 0.0
C1098 C 0.78341 0.52133 0.38358 0.0
C1099 C 0.76952 0.52582 0.39886 0.0
C1100 C 0.81971 0.51756 0.38138 0.0
C1101 C 0.90367 0.50124 0.40341 0.0
H1102 H 0.94584 0.55247 0.36873 0.0
C1103 C 0.05326 0.52138 0.40051 0.0
C1104 C 0.06871 0.51402 0.38582 0.0
C1105 C 0.01688 0.52566 0.40172 0.0
C1106 C 0.93451 0.5379 0.37845 0.0
H1107 H 0.78265 0.5282 0.42377 0.0
H1108 H 0.84504 0.52146 0.42005 0.0
H1109 H 0.88226 0.54972 0.37106 0.0
H1110 H 0.05858 0.50631 0.36088 0.0
H1111 H 0.99555 0.51484 0.36283 0.0
H1112 H 0.95585 0.48971 0.41089 0.0
C1113 C 0.82841 0.52051 0.40969 0.0
C1114 C 0.89793 0.53607 0.37973 0.0
C1115 C 0.79242 0.52437 0.41185 0.0
C1116 C 0.04744 0.5131 0.37227 0.0
C1117 C 0.01122 0.51768 0.37343 0.0
C1118 C 0.94016 0.50327 0.4022 0.0
C1119 C 0.84286 0.518 0.39441 0.0
C1120 C 0.88189 0.51788 0.3923 0.0
C1121 C 0.99523 0.52266 0.38825 0.0
C1122 C 0.95617 0.52178 0.38976 0.0
H1123 H 0.76661 0.52304 0.37329 0.0
H1124 H 0.8297 0.51523 0.36943 0.0
H1125 H 0.89255 0.48637 0.41308 0.0
H1126 H 0.06888 0.52104 0.41121 0.0
H1127 H 1.00556 0.52985 0.41331 0.0
C1128 C 0.99626 0.72592 0.14233 0.0
C1129 C 0.98461 0.73999 0.12791 0.0
C1130 C 1.00033 0.68956 0.14405 0.0
C1131 C 1.00554 0.60586 0.12104 0.0
H1132 H 0.96741 0.56417 0.15912 0.0
C1133 C 0.98907 0.45608 0.12563 0.0
C1134 C 0.99974 0.44097 0.13997 0.0
C1135 C 0.98396 0.49235 0.12452 0.0
C1136 C 0.97843 0.57526 0.14843 0.0
H1137 H 0.96955 0.72731 0.10389 0.0
H1138 H 0.97728 0.66473 0.1067 0.0
H1139 H 0.9703 0.62755 0.15671 0.0
H1140 H 0.01223 0.45176 0.16445 0.0
H1141 H 1.00275 0.51434 0.1627 0.0
H1142 H 0.01389 0.55376 0.11276 0.0
C1143 C 0.98345 0.68126 0.11672 0.0
C1144 C 0.98026 0.61178 0.14709 0.0
C1145 C 0.97904 0.71728 0.11508 0.0
C1146 C 1.00283 0.4625 0.15337 0.0
C1147 C 0.99772 0.4986 0.1523 0.0
C1148 C 1.00378 0.56941 0.12239 0.0
C1149 C 0.99317 0.66664 0.13134 0.0
C1150 C 0.99365 0.62767 0.13333 0.0
C1151 C 0.98962 0.51435 0.1377 0.0
C1152 C 0.99002 0.55344 0.13607 0.0
H1153 H 1.00002 0.74269 0.15252 0.0
H1154 H 1.00821 0.67934 0.15545 0.0
H1155 H 0.0165 0.61698 0.11034 0.0
H1156 H 0.98772 0.44038 0.11497 0.0
H1157 H 0.97716 0.5033 0.11312 0.0
C1158 C 0.81541 0.99275 0.65598 0.0
C1159 C 0.79262 0.99278 0.64291 0.0
C1160 C 0.85165 0.99444 0.65397 0.0
C1161 C 0.92134 0.97641 0.62418 0.0
H1162 H 0.98043 0.01798 0.65638 0.0
C1163 C 0.07377 0.9928 0.61967 0.0
C1164 C 0.09308 0.99094 0.63381 0.0
C1165 C 0.03719 0.98894 0.61976 0.0
C1166 C 0.9644 1.00574 0.64737 0.0
H1167 H 0.79042 0.99589 0.61735 0.0
H1168 H 0.85405 1.0 0.61374 0.0
H1169 H 0.91747 0.02462 0.65802 0.0
H1170 H 0.08916 0.98179 0.659 0.0
H1171 H 0.02587 0.9736 0.65915 0.0
H1172 H 0.96885 0.95821 0.61339 0.0
C1173 C 0.84371 0.9981 0.62564 0.0
C1174 C 0.92805 0.00964 0.64828 0.0
C1175 C 0.80711 0.99644 0.6277 0.0
C1176 C 0.07528 0.98209 0.64781 0.0
C1177 C 0.03879 0.97837 0.64794 0.0
C1178 C 0.9579 0.97278 0.62318 0.0
C1179 C 0.86661 0.9963 0.63876 0.0
C1180 C 0.90575 0.99463 0.63685 0.0
C1181 C 0.01903 0.98353 0.63407 0.0
C1182 C 0.97995 0.98695 0.63491 0.0
H1183 H 0.80522 0.98954 0.66787 0.0
H1184 H 0.86793 0.99244 0.66441 0.0
H1185 H 0.90528 0.96407 0.61522 0.0
H1186 H 0.08646 1.00107 0.60882 0.0
H1187 H 0.02297 0.99323 0.60886 0.0
C1188 C 0.48922 0.77118 0.15072 0.0
C1189 C 0.49739 0.74826 0.13819 0.0
C1190 C 0.48992 0.80738 0.14866 0.0
C1191 C 0.49091 0.88076 0.12001 0.0
H1192 H 0.54051 0.92765 0.15399 0.0
C1193 C 0.51325 0.03209 0.11992 0.0
C1194 C 0.50757 0.04881 0.1345 0.0
C1195 C 0.5158 0.99541 0.11909 0.0
C1196 C 0.5263 0.91522 0.14443 0.0
H1197 H 0.50796 0.74634 0.113 0.0
H1198 H 0.50879 0.80996 0.10934 0.0
H1199 H 0.53392 0.86457 0.1545 0.0
H1200 H 0.50041 0.04033 0.15958 0.0
H1201 H 0.50555 0.97719 0.15833 0.0
H1202 H 0.48273 0.93174 0.11011 0.0
C1203 C 0.50274 0.79951 0.12093 0.0
C1204 C 0.52248 0.87883 0.14473 0.0
C1205 C 0.50206 0.7629 0.12301 0.0
C1206 C 0.50591 0.02828 0.14825 0.0
C1207 C 0.50868 0.99189 0.14747 0.0
C1208 C 0.49457 0.91739 0.11975 0.0
C1209 C 0.49833 0.82223 0.13394 0.0
C1210 C 0.50413 0.86101 0.13271 0.0
C1211 C 0.51276 0.97464 0.13285 0.0
C1212 C 0.5118 0.93531 0.13212 0.0
H1213 H 0.48469 0.76121 0.16255 0.0
H1214 H 0.4851 0.82384 0.15886 0.0
H1215 H 0.47664 0.86804 0.11055 0.0
H1216 H 0.51339 0.04712 0.10906 0.0
H1217 H 0.5192 0.98329 0.10762 0.0
C1218 C 0.48467 0.45459 0.64301 0.0
C1219 C 0.46201 0.47619 0.6343 0.0
C1220 C 0.52083 0.4596 0.64275 0.0
C1221 C 0.59326 0.49773 0.61914 0.0
H1222 H 0.64644 0.47706 0.65706 0.0
C1223 C 0.74598 0.50816 0.62175 0.0
C1224 C 0.76416 0.48284 0.63055 0.0
C1225 C 0.7093 0.51008 0.62212 0.0
C1226 C 0.63216 0.48257 0.64629 0.0
H1227 H 0.46024 0.52077 0.6186 0.0
H1228 H 0.52417 0.52978 0.61813 0.0
H1229 H 0.58295 0.47794 0.65816 0.0
H1230 H 0.75726 0.43898 0.6464 0.0
H1231 H 0.69347 0.44191 0.64695 0.0
H1232 H 0.64276 0.50225 0.60728 0.0
C1233 C 0.51351 0.50863 0.62514 0.0
C1234 C 0.59552 0.48317 0.64691 0.0
C1235 C 0.47682 0.50371 0.62549 0.0
C1236 C 0.74434 0.4589 0.63947 0.0
C1237 C 0.70763 0.46086 0.63991 0.0
C1238 C 0.63007 0.49726 0.61852 0.0
C1239 C 0.53608 0.48647 0.63376 0.0
C1240 C 0.57534 0.49003 0.63329 0.0
C1241 C 0.68945 0.48665 0.63132 0.0
C1242 C 0.65013 0.48901 0.63203 0.0
H1243 H 0.47449 0.43317 0.65002 0.0
H1244 H 0.53694 0.44153 0.64934 0.0
H1245 H 0.57885 0.50286 0.60836 0.0
H1246 H 0.75997 0.52663 0.6145 0.0
H1247 H 0.69655 0.53043 0.61538 0.0
C1248 C 0.17057 0.46506 0.30976 0.0
C1249 C 0.15534 0.44961 0.32317 0.0
C1250 C 0.16424 0.45171 0.29467 0.0
C1251 C 0.13026 0.37496 0.27267 0.0
H1252 H 0.11297 0.44391 0.24 0.0
C1253 C 0.06624 0.34127 0.21265 0.0
C1254 C 0.07753 0.35902 0.19901 0.0
C1255 C 0.07919 0.35024 0.22756 0.0
C1256 C 0.11829 0.42428 0.24889 0.0
H1257 H 0.12256 0.40722 0.33139 0.0
H1258 H 0.11097 0.38383 0.30487 0.0
H1259 H 0.12833 0.46288 0.26658 0.0
H1260 H 0.1122 0.39942 0.19026 0.0
H1261 H 0.13536 0.41494 0.21637 0.0
H1262 H 0.11955 0.33637 0.25495 0.0
C1263 C 0.12817 0.40617 0.30606 0.0
C1264 C 0.12707 0.43515 0.26417 0.0
C1265 C 0.13478 0.41948 0.32125 0.0
C1266 C 0.10314 0.38515 0.20054 0.0
C1267 C 0.11607 0.39427 0.21551 0.0
C1268 C 0.12139 0.36407 0.25736 0.0
C1269 C 0.14226 0.42263 0.29256 0.0
C1270 C 0.13317 0.41066 0.27627 0.0
C1271 C 0.10382 0.37725 0.22923 0.0
C1272 C 0.1152 0.38861 0.24529 0.0
H1273 H 0.18709 0.4879 0.31094 0.0
H1274 H 0.17632 0.46449 0.28462 0.0
H1275 H 0.13516 0.35539 0.28163 0.0
H1276 H 0.04684 0.32073 0.21183 0.0
H1277 H 0.06892 0.33678 0.23784 0.0
C1278 C 0.14138 0.08897 0.70196 0.0
C1279 C 0.15795 0.0565 0.6999 0.0
C1280 C 0.13195 0.10068 0.71712 0.0
C1281 C 0.11958 0.06862 0.75873 0.0
H1282 H 0.12434 0.16704 0.76907 0.0
C1283 C 0.10136 0.11862 0.82284 0.0
C1284 C 0.07647 0.14522 0.82436 0.0
C1285 C 0.11413 0.1094 0.80784 0.0
C1286 C 0.1229 0.13946 0.76634 0.0
H1287 H 0.17681 0.01091 0.71257 0.0
H1288 H 0.16233 0.03187 0.73859 0.0
H1289 H 0.1394 0.14764 0.74241 0.0
H1290 H 0.04687 0.18424 0.8117 0.0
H1291 H 0.06962 0.16879 0.78561 0.0
H1292 H 0.10362 0.06053 0.78276 0.0
C1293 C 0.15566 0.04807 0.72854 0.0
C1294 C 0.13125 0.1283 0.751 0.0
C1295 C 0.16458 0.03619 0.71346 0.0
C1296 C 0.06605 0.16363 0.81079 0.0
C1297 C 0.07916 0.15485 0.79589 0.0
C1298 C 0.11175 0.07973 0.77409 0.0
C1299 C 0.13911 0.08042 0.73066 0.0
C1300 C 0.12968 0.09268 0.74695 0.0
C1301 C 0.10267 0.12706 0.79417 0.0
C1302 C 0.11321 0.11526 0.77808 0.0
H1303 H 0.13596 0.10566 0.69195 0.0
H1304 H 0.11883 0.12554 0.71817 0.0
H1305 H 0.11713 0.0411 0.75607 0.0
H1306 H 0.10949 0.10386 0.83312 0.0
H1307 H 0.13243 0.08801 0.80689 0.0
C1308 C 0.40763 0.10391 0.32284 0.0
C1309 C 0.37201 0.10084 0.32663 0.0
C1310 C 0.41827 0.10806 0.30704 0.0
C1311 C 0.38311 0.13403 0.26739 0.0
H1312 H 0.47109 0.097 0.25231 0.0
C1313 C 0.42722 0.13679 0.20099 0.0
C1314 C 0.4625 0.14549 0.19837 0.0
C1315 C 0.41471 0.13159 0.21648 0.0
C1316 C 0.4465 0.10769 0.25637 0.0
H1317 H 0.31988 0.09745 0.31675 0.0
H1318 H 0.33825 0.10355 0.28935 0.0
H1319 H 0.45298 0.08595 0.27951 0.0
H1320 H 0.51146 0.15797 0.21003 0.0
H1321 H 0.48991 0.14868 0.23674 0.0
H1322 H 0.3766 0.15536 0.24408 0.0
C1323 C 0.35804 0.10425 0.29851 0.0
C1324 C 0.43615 0.10147 0.27202 0.0
C1325 C 0.34746 0.10057 0.31425 0.0
C1326 C 0.4844 0.15042 0.21157 0.0
C1327 C 0.47206 0.14503 0.22692 0.0
C1328 C 0.39332 0.13995 0.25168 0.0
C1329 C 0.39354 0.10875 0.29464 0.0
C1330 C 0.4044 0.11474 0.27782 0.0
C1331 C 0.4373 0.13485 0.22959 0.0
C1332 C 0.42531 0.12716 0.24602 0.0
H1333 H 0.42711 0.10435 0.33214 0.0
H1334 H 0.44582 0.11174 0.30463 0.0
H1335 H 0.35878 0.14529 0.27142 0.0
H1336 H 0.40972 0.13264 0.1911 0.0
H1337 H 0.38773 0.1238 0.21815 0.0
C1338 C 0.41997 0.40486 0.82392 0.0
C1339 C 0.44237 0.37649 0.8264 0.0
C1340 C 0.40885 0.41331 0.80855 0.0
C1341 C 0.43608 0.39923 0.76665 0.0
H1342 H 0.34704 0.44191 0.75683 0.0
C1343 C 0.39348 0.42731 0.70224 0.0
C1344 C 0.37889 0.46031 0.69933 0.0
C1345 C 0.39897 0.41573 0.71777 0.0
C1346 C 0.3721 0.43016 0.75941 0.0
H1347 H 0.4689 0.33344 0.81517 0.0
H1348 H 0.44831 0.34681 0.78857 0.0
H1349 H 0.35942 0.42353 0.78395 0.0
H1350 H 0.35762 0.50648 0.71051 0.0
H1351 H 0.36736 0.48641 0.73757 0.0
H1352 H 0.44868 0.40569 0.74214 0.0
C1353 C 0.44026 0.36354 0.79823 0.0
C1354 C 0.37925 0.41969 0.77498 0.0
C1355 C 0.45172 0.35552 0.81348 0.0
C1356 C 0.36934 0.48115 0.71234 0.0
C1357 C 0.37455 0.46947 0.72785 0.0
C1358 C 0.42881 0.40939 0.75111 0.0
C1359 C 0.41967 0.39325 0.79542 0.0
C1360 C 0.41137 0.40405 0.77883 0.0
C1361 C 0.3897 0.43674 0.73077 0.0
C1362 C 0.39679 0.42507 0.74729 0.0
H1363 H 0.41289 0.42164 0.83371 0.0
H1364 H 0.39322 0.43651 0.8069 0.0
H1365 H 0.46149 0.38818 0.76915 0.0
H1366 H 0.40132 0.41068 0.69252 0.0
H1367 H 0.41043 0.39025 0.7196 0.0
C1368 C 0.96605 0.66331 0.80866 0.0
C1369 C 0.95017 0.64681 0.82169 0.0
C1370 C 0.95443 0.65687 0.79325 0.0
C1371 C 0.88004 0.62171 0.76997 0.0
H1372 H 0.9506 0.60862 0.73756 0.0
C1373 C 0.84896 0.55923 0.70953 0.0
C1374 C 0.86682 0.57074 0.69594 0.0
C1375 C 0.85759 0.57209 0.72448 0.0
C1376 C 0.9305 0.61279 0.74637 0.0
H1377 H 0.90899 0.61108 0.82869 0.0
H1378 H 0.88862 0.59969 0.80173 0.0
H1379 H 0.96827 0.62339 0.76444 0.0
H1380 H 0.90708 0.6058 0.68739 0.0
H1381 H 0.92193 0.62897 0.71362 0.0
H1382 H 0.84228 0.61076 0.75193 0.0
C1383 C 0.90996 0.61792 0.80348 0.0
C1384 C 0.94064 0.62119 0.76184 0.0
C1385 C 0.9216 0.62445 0.81894 0.0
C1386 C 0.89272 0.59657 0.69761 0.0
C1387 C 0.90147 0.60949 0.71267 0.0
C1388 C 0.86989 0.61336 0.7545 0.0
C1389 C 0.92657 0.63372 0.79041 0.0
C1390 C 0.91556 0.62555 0.77387 0.0
C1391 C 0.88431 0.597 0.72632 0.0
C1392 C 0.89499 0.60848 0.74252 0.0
H1393 H 0.98763 0.68125 0.81036 0.0
H1394 H 0.96732 0.67012 0.78354 0.0
H1395 H 0.85999 0.6254 0.77886 0.0
H1396 H 0.82861 0.53965 0.70862 0.0
H1397 H 0.84404 0.56152 0.73468 0.0
C1398 C 0.92936 0.88495 0.19936 0.0
C1399 C 0.9638 0.87298 0.19707 0.0
C1400 C 0.91711 0.89324 0.21455 0.0
C1401 C 0.93298 0.87553 0.25687 0.0
H1402 H 0.88438 0.96257 0.26405 0.0
C1403 C 0.90468 0.92817 0.32011 0.0
C1404 C 0.87504 0.94906 0.32231 0.0
C1405 C 0.91386 0.91663 0.3049 0.0
C1406 C 0.89728 0.93778 0.26229 0.0
H1407 H 0.01235 0.86142 0.20934 0.0
H1408 H 0.99076 0.87506 0.23559 0.0
H1409 H 0.90256 0.94703 0.23737 0.0
H1410 H 0.83065 0.97251 0.31069 0.0
H1411 H 0.84538 0.95114 0.28438 0.0
H1412 H 0.92731 0.86585 0.28169 0.0
C1413 C 0.97318 0.87769 0.22561 0.0
C1414 C 0.90784 0.929 0.24694 0.0
C1415 C 0.98555 0.86982 0.21046 0.0
C1416 C 0.85384 0.95672 0.30922 0.0
C1417 C 0.86258 0.94473 0.29412 0.0
C1418 C 0.922 0.88406 0.27221 0.0
C1419 C 0.93883 0.88941 0.22786 0.0
C1420 C 0.92608 0.89793 0.24407 0.0
C1421 C 0.89324 0.92531 0.29162 0.0
C1422 C 0.90415 0.91545 0.27519 0.0
H1423 H 0.91154 0.88747 0.18951 0.0
H1424 H 0.8904 0.90203 0.21591 0.0
H1425 H 0.94666 0.85118 0.255 0.0
H1426 H 0.92165 0.92229 0.33001 0.0
H1427 H 0.93786 0.90208 0.30352 0.0
C1428 C 0.5685 0.84268 0.81155 0.0
C1429 C 0.58072 0.8606 0.825 0.0
C1430 C 0.58191 0.84995 0.79654 0.0
C1431 C 0.65559 0.8908 0.77491 0.0
H1432 H 0.58721 0.89864 0.74119 0.0
C1433 C 0.68872 0.95112 0.71401 0.0
C1434 C 0.67195 0.93841 0.70034 0.0
C1435 C 0.67968 0.93876 0.72901 0.0
C1436 C 0.6068 0.89596 0.75036 0.0
H1437 H 0.61783 0.89935 0.83323 0.0
H1438 H 0.64159 0.91211 0.80685 0.0
H1439 H 0.56821 0.8835 0.76781 0.0
H1440 H 0.63335 0.90158 0.69175 0.0
H1441 H 0.61792 0.87922 0.71803 0.0
H1442 H 0.6942 0.90336 0.75744 0.0
C1443 C 0.62151 0.89229 0.808 0.0
C1444 C 0.59586 0.88738 0.76569 0.0
C1445 C 0.60799 0.88495 0.82313 0.0
C1446 C 0.64684 0.91182 0.70202 0.0
C1447 C 0.63773 0.89936 0.71711 0.0
C1448 C 0.66657 0.89927 0.75954 0.0
C1449 C 0.60803 0.87537 0.79447 0.0
C1450 C 0.62008 0.8847 0.77818 0.0
C1451 C 0.65366 0.91311 0.73085 0.0
C1452 C 0.64231 0.90211 0.74705 0.0
H1453 H 0.54807 0.82322 0.81261 0.0
H1454 H 0.57152 0.83574 0.78649 0.0
H1455 H 0.675 0.88857 0.78418 0.0
H1456 H 0.70855 0.97124 0.71313 0.0
H1457 H 0.69235 0.95028 0.73923 0.0
C1458 C 0.5954 0.62257 0.20132 0.0
C1459 C 0.56037 0.63104 0.19806 0.0
C1460 C 0.60678 0.6178 0.21692 0.0
C1461 C 0.58376 0.63628 0.25889 0.0
H1462 H 0.64628 0.55925 0.26742 0.0
C1463 C 0.6193 0.59058 0.32278 0.0
C1464 C 0.65332 0.57798 0.32524 0.0
C1465 C 0.60788 0.59928 0.30748 0.0
C1466 C 0.62922 0.58123 0.26527 0.0
H1467 H 0.5102 0.64207 0.20887 0.0
H1468 H 0.52986 0.63312 0.236 0.0
H1469 H 0.62709 0.57018 0.24046 0.0
H1470 H 0.70263 0.56674 0.3138 0.0
H1471 H 0.68325 0.58254 0.28735 0.0
H1472 H 0.58595 0.64726 0.28377 0.0
C1473 C 0.54861 0.63038 0.22648 0.0
C1474 C 0.61818 0.58748 0.24975 0.0
C1475 C 0.53721 0.63508 0.21087 0.0
C1476 C 0.67607 0.57573 0.31223 0.0
C1477 C 0.66485 0.58465 0.29703 0.0
C1478 C 0.59492 0.63008 0.27445 0.0
C1479 C 0.58349 0.62143 0.22972 0.0
C1480 C 0.59536 0.61512 0.24632 0.0
C1481 C 0.63037 0.59578 0.29435 0.0
C1482 C 0.61795 0.60253 0.27785 0.0
H1483 H 0.61399 0.61897 0.19181 0.0
H1484 H 0.63394 0.61134 0.21897 0.0
H1485 H 0.56645 0.65803 0.25667 0.0
H1486 H 0.60111 0.59233 0.33256 0.0
H1487 H 0.58109 0.60755 0.30588 0.0
C1488 C 0.38103 0.28931 0.10965 0.0
C1489 C 0.39205 0.25522 0.10658 0.0
C1490 C 0.36672 0.30933 0.09751 0.0
C1491 C 0.30988 0.28778 0.06605 0.0
H1492 H 0.28944 0.38459 0.07489 0.0
C1493 C 0.17733 0.32091 0.08795 0.0
C1494 C 0.18328 0.33044 0.10384 0.0
C1495 C 0.2039 0.32428 0.0767 0.0
C1496 C 0.29486 0.3578 0.07164 0.0
H1497 H 0.40173 0.217 0.08816 0.0
H1498 H 0.37658 0.25195 0.06692 0.0
H1499 H 0.34974 0.36471 0.07526 0.0
H1500 H 0.2212 0.35213 0.12021 0.0
H1501 H 0.26727 0.35783 0.1008 0.0
H1502 H 0.25489 0.27979 0.06457 0.0
C1503 C 0.37824 0.26301 0.07871 0.0
C1504 C 0.32945 0.34637 0.0719 0.0
C1505 C 0.39213 0.24286 0.0909 0.0
C1506 C 0.21569 0.34477 0.10808 0.0
C1507 C 0.24196 0.34853 0.09684 0.0
C1508 C 0.27537 0.29921 0.06579 0.0
C1509 C 0.3634 0.29563 0.08205 0.0
C1510 C 0.3364 0.31041 0.07143 0.0
C1511 C 0.23665 0.33771 0.0811 0.0
C1512 C 0.26762 0.33316 0.07087 0.0
H1513 H 0.38127 0.29959 0.1216 0.0
H1514 H 0.3553 0.33419 0.10065 0.0
H1515 H 0.31437 0.26 0.06496 0.0
H1516 H 0.15222 0.31068 0.08423 0.0
H1517 H 0.19928 0.31533 0.06471 0.0
C1518 C 0.21914 0.38883 0.67385 0.0
C1519 C 0.21917 0.39836 0.65781 0.0
C1520 C 0.18888 0.37631 0.68102 0.0
C1521 C 0.11197 0.32853 0.66602 0.0
H1522 H 0.13162 0.2873 0.70687 0.0
C1523 C 0.12213 0.18655 0.66806 0.0
C1524 C 0.15879 0.18339 0.66738 0.0
C1525 C 0.10682 0.21563 0.67505 0.0
C1526 C 0.12454 0.29884 0.69562 0.0
H1527 H 0.18503 0.40774 0.63759 0.0
H1528 H 0.13224 0.38927 0.65046 0.0
H1529 H 0.1412 0.34946 0.7029 0.0
H1530 H 0.20783 0.20518 0.67554 0.0
H1531 H 0.18114 0.25607 0.68787 0.0
H1532 H 0.09585 0.27784 0.65868 0.0
C1533 C 0.15621 0.38859 0.65724 0.0
C1534 C 0.13073 0.33436 0.69316 0.0
C1535 C 0.18687 0.39979 0.64983 0.0
C1536 C 0.17961 0.20723 0.67572 0.0
C1537 C 0.16421 0.23612 0.68294 0.0
C1538 C 0.10431 0.2935 0.66867 0.0
C1539 C 0.15729 0.3737 0.67248 0.0
C1540 C 0.13003 0.34796 0.67764 0.0
C1541 C 0.12791 0.2416 0.68177 0.0
C1542 C 0.11496 0.27765 0.68282 0.0
H1543 H 0.24285 0.38954 0.68083 0.0
H1544 H 0.1916 0.36611 0.69288 0.0
H1545 H 0.10867 0.33793 0.65406 0.0
H1546 H 0.10535 0.16771 0.66222 0.0
H1547 H 0.07886 0.21934 0.67397 0.0
C1548 C 0.18039 0.24772 0.92192 0.0
C1549 C 0.16677 0.21397 0.92013 0.0
C1550 C 0.19934 0.25655 0.93536 0.0
C1551 C 0.2629 0.22187 0.95952 0.0
H1552 H 0.26152 0.32009 0.97019 0.0
C1553 C 0.37471 0.29779 0.94033 0.0
C1554 C 0.35993 0.31458 0.92709 0.0
C1555 C 0.35404 0.2887 0.9533 0.0
C1556 C 0.26245 0.29221 0.96811 0.0
H1557 H 0.16189 0.163 0.93116 0.0
H1558 H 0.19743 0.17809 0.95439 0.0
H1559 H 0.20678 0.28848 0.9671 0.0
H1560 H 0.31293 0.33853 0.91788 0.0
H1561 H 0.27689 0.32274 0.94032 0.0
H1562 H 0.31823 0.22667 0.95822 0.0
C1563 C 0.1923 0.19781 0.94551 0.0
C1564 C 0.23102 0.27406 0.96631 0.0
C1565 C 0.17275 0.18906 0.93207 0.0
C1566 C 0.32505 0.3254 0.92781 0.0
C1567 C 0.3045 0.31669 0.94084 0.0
C1568 C 0.2943 0.23995 0.96142 0.0
C1569 C 0.20551 0.23176 0.94731 0.0
C1570 C 0.23138 0.24042 0.95967 0.0
C1571 C 0.31833 0.29667 0.95335 0.0
C1572 C 0.29372 0.27642 0.96325 0.0
H1573 H 0.17652 0.26735 0.91287 0.0
H1574 H 0.21046 0.28255 0.93606 0.0
H1575 H 0.26387 0.19547 0.95495 0.0
H1576 H 0.40194 0.2903 0.94038 0.0
H1577 H 0.36533 0.27329 0.96275 0.0
C1578 C 0.2431 0.34569 0.4271 0.0
C1579 C 0.21067 0.35808 0.42187 0.0
C1580 C 0.24553 0.32691 0.44115 0.0
C1581 C 0.19815 0.26173 0.46001 0.0
H1582 H 0.28782 0.258 0.48114 0.0
C1583 C 0.27464 0.14702 0.44782 0.0
C1584 C 0.30148 0.16069 0.43822 0.0
C1585 C 0.25959 0.1674 0.45969 0.0
C1586 C 0.26197 0.25853 0.47591 0.0
H1587 H 0.1556 0.3624 0.42783 0.0
H1588 H 0.15968 0.32736 0.45197 0.0
H1589 H 0.26209 0.31429 0.47489 0.0
H1590 H 0.336 0.20502 0.4347 0.0
H1591 H 0.30993 0.24038 0.455 0.0
H1592 H 0.20032 0.20643 0.45876 0.0
C1593 C 0.1832 0.33289 0.44527 0.0
C1594 C 0.24723 0.29083 0.47232 0.0
C1595 C 0.18082 0.35216 0.43127 0.0
C1596 C 0.31538 0.19362 0.44182 0.0
C1597 C 0.30051 0.21386 0.45369 0.0
C1598 C 0.21303 0.22949 0.46348 0.0
C1599 C 0.21554 0.31974 0.45024 0.0
C1600 C 0.21769 0.2923 0.46246 0.0
C1601 C 0.27106 0.20183 0.46213 0.0
C1602 C 0.24747 0.22809 0.46927 0.0
H1603 H 0.26654 0.3497 0.42014 0.0
H1604 H 0.2707 0.31616 0.44436 0.0
H1605 H 0.17467 0.26211 0.45284 0.0
H1606 H 0.26406 0.12123 0.44566 0.0
H1607 H 0.23718 0.15728 0.46607 0.0
C1608 C 0.79546 0.65448 0.90749 0.0
C1609 C 0.82853 0.664 0.91307 0.0
C1610 C 0.76923 0.64504 0.91805 0.0
C1611 C 0.74205 0.66929 0.95703 0.0
H1612 H 0.66051 0.63345 0.93535 0.0
C1613 C 0.61647 0.72371 0.92382 0.0
C1614 C 0.63816 0.74936 0.91695 0.0
C1615 C 0.62965 0.7009 0.93528 0.0
C1616 C 0.68242 0.64268 0.94233 0.0
H1617 H 0.86126 0.66882 0.93391 0.0
H1618 H 0.815 0.65277 0.95259 0.0
H1619 H 0.71585 0.60371 0.9326 0.0
H1620 H 0.69039 0.77147 0.9169 0.0
H1621 H 0.7132 0.73238 0.93662 0.0
H1622 H 0.70908 0.70977 0.9657 0.0
C1623 C 0.8092 0.65287 0.94004 0.0
C1624 C 0.71446 0.62582 0.94056 0.0
C1625 C 0.83546 0.66263 0.9294 0.0
C1626 C 0.67284 0.75239 0.92207 0.0
C1627 C 0.68577 0.73015 0.9336 0.0
C1628 C 0.70973 0.68528 0.95929 0.0
C1629 C 0.7755 0.64457 0.93453 0.0
C1630 C 0.74516 0.64298 0.9455 0.0
C1631 C 0.66453 0.70385 0.94024 0.0
C1632 C 0.68175 0.67584 0.94938 0.0
H1633 H 0.7897 0.65499 0.89492 0.0
H1634 H 0.74351 0.63996 0.91323 0.0
H1635 H 0.7649 0.68209 0.96191 0.0
H1636 H 0.58933 0.72132 0.92039 0.0
H1637 H 0.61297 0.68048 0.93996 0.0
C1638 C 0.73677 0.70669 0.41963 0.0
C1639 C 0.74436 0.67226 0.41541 0.0
C1640 C 0.75156 0.72127 0.43316 0.0
C1641 C 0.83132 0.71635 0.45515 0.0
H1642 H 0.78827 0.80371 0.46676 0.0
C1643 C 0.8353 0.86472 0.43744 0.0
C1644 C 0.84295 0.8536 0.42194 0.0
C1645 C 0.83697 0.84128 0.45009 0.0
C1646 C 0.80134 0.77925 0.46441 0.0
H1647 H 0.77188 0.6253 0.4224 0.0
H1648 H 0.79845 0.65113 0.44597 0.0
H1649 H 0.75253 0.7521 0.46405 0.0
H1650 H 0.86127 0.81039 0.40772 0.0
H1651 H 0.86347 0.76959 0.4293 0.0
H1652 H 0.87969 0.74414 0.45457 0.0
C1653 C 0.78116 0.66689 0.4388 0.0
C1654 C 0.78055 0.74954 0.46265 0.0
C1655 C 0.76648 0.65236 0.42515 0.0
C1656 C 0.85495 0.8196 0.41951 0.0
C1657 C 0.85672 0.7963 0.43207 0.0
C1658 C 0.85221 0.74581 0.45757 0.0
C1659 C 0.77409 0.70164 0.44292 0.0
C1660 C 0.79475 0.71992 0.45528 0.0
C1661 C 0.84622 0.8063 0.44744 0.0
C1662 C 0.83599 0.77856 0.45885 0.0
H1663 H 0.71959 0.72244 0.41239 0.0
H1664 H 0.74633 0.74851 0.43555 0.0
H1665 H 0.84359 0.69319 0.4504 0.0
H1666 H 0.82725 0.89133 0.43973 0.0
H1667 H 0.82901 0.84997 0.46175 0.0
C1668 C 0.82285 0.8221 0.18148 0.0
C1669 C 0.84316 0.8473 0.17375 0.0
C1670 C 0.79473 0.83246 0.19089 0.0
C1671 C 0.73178 0.89359 0.18292 0.0
H1672 H 0.68174 0.83743 0.21344 0.0
C1673 C 0.62648 0.8155 0.15824 0.0
C1674 C 0.62876 0.7805 0.16319 0.0
C1675 C 0.63822 0.8425 0.16801 0.0
C1676 C 0.69517 0.85318 0.20472 0.0
H1677 H 0.85421 0.90274 0.17186 0.0
H1678 H 0.80423 0.92073 0.18776 0.0
H1679 H 0.74358 0.84931 0.21738 0.0
H1680 H 0.63991 0.74764 0.18353 0.0
H1681 H 0.66427 0.79288 0.19939 0.0
H1682 H 0.68622 0.89331 0.1689 0.0
C1683 C 0.80985 0.89316 0.18659 0.0
C1684 C 0.73049 0.86067 0.20725 0.0
C1685 C 0.83798 0.88281 0.17726 0.0
C1686 C 0.63994 0.77381 0.17873 0.0
C1687 C 0.653 0.80052 0.1882 0.0
C1688 C 0.69702 0.88489 0.18007 0.0
C1689 C 0.78659 0.86811 0.19256 0.0
C1690 C 0.74979 0.87761 0.19542 0.0
C1691 C 0.65447 0.83518 0.18262 0.0
C1692 C 0.67987 0.86044 0.18987 0.0
H1693 H 0.82667 0.79459 0.17913 0.0
H1694 H 0.77706 0.81251 0.19525 0.0
H1695 H 0.74576 0.90779 0.17379 0.0
H1696 H 0.61721 0.82239 0.14657 0.0
H1697 H 0.63652 0.86883 0.16351 0.0
C1698 C 0.68692 0.80552 0.60478 0.0
C1699 C 0.70238 0.83816 0.60203 0.0
C1700 C 0.68223 0.78209 0.5924 0.0
C1701 C 0.73031 0.75287 0.56056 0.0
H1702 H 0.65974 0.68154 0.56669 0.0
C1703 C 0.77754 0.63246 0.58489 0.0
C1704 C 0.76337 0.63253 0.60027 0.0
C1705 C 0.75948 0.64768 0.57235 0.0
C1706 C 0.67953 0.70106 0.5642 0.0
H1707 H 0.72333 0.87261 0.58388 0.0
H1708 H 0.71721 0.83027 0.56234 0.0
H1709 H 0.64341 0.74273 0.56776 0.0
H1710 H 0.71775 0.64494 0.61427 0.0
H1711 H 0.68687 0.6731 0.59276 0.0
H1712 H 0.76732 0.71184 0.55935 0.0
C1713 C 0.70799 0.82342 0.57406 0.0
C1714 C 0.67012 0.73619 0.56476 0.0
C1715 C 0.71223 0.84721 0.58647 0.0
C1716 C 0.72945 0.64502 0.60259 0.0
C1717 C 0.71154 0.66063 0.5901 0.0
C1718 C 0.73972 0.7178 0.56003 0.0
C1719 C 0.69322 0.79049 0.57696 0.0
C1720 C 0.69642 0.76185 0.56536 0.0
C1721 C 0.72721 0.6639 0.57504 0.0
C1722 C 0.71512 0.69212 0.56436 0.0
H1723 H 0.67932 0.79762 0.6166 0.0
H1724 H 0.67195 0.75643 0.59517 0.0
H1725 H 0.75099 0.77225 0.56033 0.0
H1726 H 0.80325 0.62177 0.58267 0.0
H1727 H 0.77202 0.64928 0.56087 0.0
loop_
_geom_bond_atom_site_label_1
_geom_bond_atom_site_label_2
_geom_bond_distance
_geom_bond_site_symmetry_2
_ccdc_geom_bond_type
C0 C1 1.351 . S
C0 N3 1.368 . S
C0 H5 0.931 . S
C1 C0 1.351 . S
C1 N2 1.373 . S
C1 H29 0.930 . S
N2 C1 1.373 . S
N2 C4 1.340 . S
N3 C0 1.368 . S
N3 C4 1.321 . S
N3 Co6 2.135 . S
C4 N2 1.340 . S
C4 N3 1.321 . S
C4 H28 0.930 . S
H5 C0 0.931 . S
Co6 N3 2.135 . S
Co6 N9 2.121 . S
Co6 O14 2.055 1_455 S
Co6 O17 2.039 1_455 S
Co6 N20 2.140 . S
C7 O8 1.227 . S
C7 O17 1.265 1_455 S
O8 C7 1.227 . S
N9 Co6 2.121 . S
N9 C11 1.375 . S
N9 C12 1.313 . S
C10 C11 1.338 . S
C10 N13 1.377 . S
C10 H30 0.930 . S
C11 N9 1.375 . S
C11 C10 1.338 . S
C11 H15 0.931 . S
C12 N9 1.313 . S
C12 N13 1.344 . S
C12 H16 0.930 . S
N13 C10 1.377 . S
N13 C12 1.344 . S
O14 Co6 2.055 1_655 S
O14 C18 1.253 1_655 S
H15 C11 0.931 . S
H16 C12 0.930 . S
O17 Co6 2.039 1_655 S
O17 C7 1.265 1_655 S
C18 O14 1.253 1_455 S
C18 O19 1.227 . S
O19 C18 1.227 . S
N20 Co6 2.140 . S
N20 C23 1.346 . S
N20 C24 1.345 . S
C21 C22 1.387 . S
C21 C25 1.391 . S
C22 C21 1.387 . S
C22 C23 1.369 . S
C22 H31 0.929 . S
C23 N20 1.346 . S
C23 C22 1.369 . S
C23 H26 0.928 . S
C24 N20 1.345 . S
C24 C25 1.371 . S
C24 H27 0.931 . S
C25 C21 1.391 . S
C25 C24 1.371 . S
C25 H32 0.930 . S
H26 C23 0.928 . S
H27 C24 0.931 . S
H28 C4 0.930 . S
H29 C1 0.930 . S
H30 C10 0.930 . S
H31 C22 0.929 . S
H32 C25 0.930 . S
C33 C34 1.351 . S
C33 N36 1.368 . S
C33 H38 0.931 . S
C34 C33 1.351 . S
C34 N35 1.373 . S
C34 H62 0.930 . S
N35 C34 1.373 . S
N35 C37 1.340 . S
N36 C33 1.368 . S
N36 C37 1.321 . S
N36 Co39 2.135 . S
C37 N35 1.340 . S
C37 N36 1.321 . S
C37 H61 0.930 . S
H38 C33 0.931 . S
Co39 N36 2.135 . S
Co39 N42 2.121 . S
Co39 O47 2.055 1_545 S
Co39 O50 2.039 1_545 S
Co39 N53 2.140 . S
C40 O41 1.227 . S
C40 O50 1.265 1_545 S
O41 C40 1.227 . S
N42 Co39 2.121 . S
N42 C44 1.375 . S
N42 C45 1.313 . S
C43 C44 1.338 . S
C43 N46 1.377 . S
C43 H63 0.930 . S
C44 N42 1.375 . S
C44 C43 1.338 . S
C44 H48 0.931 . S
C45 N42 1.313 . S
C45 N46 1.344 . S
C45 H49 0.930 . S
N46 C43 1.377 . S
N46 C45 1.344 . S
O47 Co39 2.055 1_565 S
O47 C51 1.253 1_565 S
H48 C44 0.931 . S
H49 C45 0.930 . S
O50 Co39 2.039 1_565 S
O50 C40 1.265 1_565 S
C51 O47 1.253 1_545 S
C51 O52 1.227 . S
O52 C51 1.227 . S
N53 Co39 2.140 . S
N53 C56 1.346 . S
N53 C57 1.345 . S
C54 C55 1.387 . S
C54 C58 1.391 . S
C55 C54 1.387 . S
C55 C56 1.369 . S
C55 H64 0.929 . S
C56 N53 1.346 . S
C56 C55 1.369 . S
C56 H59 0.928 . S
C57 N53 1.345 . S
C57 C58 1.371 . S
C57 H60 0.931 . S
C58 C54 1.391 . S
C58 C57 1.371 . S
C58 H65 0.930 . S
H59 C56 0.928 . S
H60 C57 0.931 . S
H61 C37 0.930 . S
H62 C34 0.930 . S
H63 C43 0.930 . S
H64 C55 0.929 . S
H65 C58 0.930 . S
C66 C67 1.351 . S
C66 N69 1.368 . S
C66 H71 0.931 . S
C67 C66 1.351 . S
C67 N68 1.373 . S
C67 H95 0.930 . S
N68 C67 1.373 . S
N68 C70 1.340 . S
N69 C66 1.368 . S
N69 C70 1.321 . S
N69 Co72 2.135 . S
C70 N68 1.340 . S
C70 N69 1.321 . S
C70 H94 0.930 . S
H71 C66 0.931 . S
Co72 N69 2.135 . S
Co72 N75 2.121 . S
Co72 O80 2.055 . S
Co72 O83 2.039 . S
Co72 N86 2.140 . S
C73 O74 1.227 . S
C73 O83 1.265 . S
O74 C73 1.227 . S
N75 Co72 2.121 . S
N75 C77 1.375 . S
N75 C78 1.313 . S
C76 C77 1.338 . S
C76 N79 1.377 . S
C76 H96 0.930 . S
C77 N75 1.375 . S
C77 C76 1.338 . S
C77 H81 0.931 . S
C78 N75 1.313 . S
C78 N79 1.344 . S
C78 H82 0.930 . S
N79 C76 1.377 . S
N79 C78 1.344 . S
O80 Co72 2.055 . S
O80 C84 1.253 . S
H81 C77 0.931 . S
H82 C78 0.930 . S
O83 Co72 2.039 . S
O83 C73 1.265 . S
C84 O80 1.253 . S
C84 O85 1.227 . S
O85 C84 1.227 . S
N86 Co72 2.140 . S
N86 C89 1.346 . S
N86 C90 1.345 . S
C87 C88 1.387 . S
C87 C91 1.391 . S
C88 C87 1.387 . S
C88 C89 1.369 . S
C88 H97 0.929 . S
C89 N86 1.346 . S
C89 C88 1.369 . S
C89 H92 0.928 . S
C90 N86 1.345 . S
C90 C91 1.371 . S
C90 H93 0.931 . S
C91 C87 1.391 . S
C91 C90 1.371 . S
C91 H98 0.930 . S
H92 C89 0.928 . S
H93 C90 0.931 . S
H94 C70 0.930 . S
H95 C67 0.930 . S
H96 C76 0.930 . S
H97 C88 0.929 . S
H98 C91 0.930 . S
C99 C100 1.351 . S
C99 N102 1.368 . S
C99 H104 0.931 . S
C100 C99 1.351 . S
C100 N101 1.373 . S
C100 H128 0.930 . S
N101 C100 1.373 . S
N101 C103 1.340 . S
N102 C99 1.368 . S
N102 C103 1.321 . S
N102 Co105 2.135 . S
C103 N101 1.340 . S
C103 N102 1.321 . S
C103 H127 0.930 . S
H104 C99 0.931 . S
Co105 N102 2.135 . S
Co105 N108 2.121 . S
Co105 O113 2.055 . S
Co105 O116 2.039 . S
Co105 N119 2.140 . S
C106 O107 1.227 . S
C106 O116 1.265 . S
O107 C106 1.227 . S
N108 Co105 2.121 . S
N108 C110 1.375 . S
N108 C111 1.313 . S
C109 C110 1.338 . S
C109 N112 1.377 . S
C109 H129 0.930 . S
C110 N108 1.375 . S
C110 C109 1.338 . S
C110 H114 0.931 . S
C111 N108 1.313 . S
C111 N112 1.344 . S
C111 H115 0.930 . S
N112 C109 1.377 . S
N112 C111 1.344 . S
O113 Co105 2.055 . S
O113 C117 1.253 . S
H114 C110 0.931 . S
H115 C111 0.930 . S
O116 Co105 2.039 . S
O116 C106 1.265 . S
C117 O113 1.253 . S
C117 O118 1.227 . S
O118 C117 1.227 . S
N119 Co105 2.140 . S
N119 C122 1.346 . S
N119 C123 1.345 . S
C120 C121 1.387 . S
C120 C124 1.391 . S
C121 C120 1.387 . S
C121 C122 1.369 . S
C121 H130 0.929 . S
C122 N119 1.346 . S
C122 C121 1.369 . S
C122 H125 0.928 . S
C123 N119 1.345 . S
C123 C124 1.371 . S
C123 H126 0.931 . S
C124 C120 1.391 . S
C124 C123 1.371 . S
C124 H131 0.930 . S
H125 C122 0.928 . S
H126 C123 0.931 . S
H127 C103 0.930 . S
H128 C100 0.930 . S
H129 C109 0.930 . S
H130 C121 0.929 . S
H131 C124 0.930 . S
C132 C133 1.351 . S
C132 N135 1.368 . S
C132 H137 0.931 . S
C133 C132 1.351 . S
C133 N134 1.373 . S
C133 H161 0.930 . S
N134 C133 1.373 . S
N134 C136 1.340 . S
N135 C132 1.368 . S
N135 C136 1.321 . S
N135 Co138 2.135 . S
C136 N134 1.340 . S
C136 N135 1.321 . S
C136 H160 0.930 . S
H137 C132 0.931 . S
Co138 N135 2.135 . S
Co138 N141 2.121 . S
Co138 O146 2.055 1_455 S
Co138 O149 2.039 1_455 S
Co138 N152 2.140 . S
C139 O140 1.227 . S
C139 O149 1.265 1_455 S
O140 C139 1.227 . S
N141 Co138 2.121 . S
N141 C143 1.375 . S
N141 C144 1.313 . S
C142 C143 1.338 . S
C142 N145 1.377 . S
C142 H162 0.930 . S
C143 N141 1.375 . S
C143 C142 1.338 . S
C143 H147 0.931 . S
C144 N141 1.313 . S
C144 N145 1.344 . S
C144 H148 0.930 . S
N145 C142 1.377 . S
N145 C144 1.344 . S
O146 Co138 2.055 1_655 S
O146 C150 1.253 1_655 S
H147 C143 0.931 . S
H148 C144 0.930 . S
O149 Co138 2.039 1_655 S
O149 C139 1.265 1_655 S
C150 O146 1.253 1_455 S
C150 O151 1.227 . S
O151 C150 1.227 . S
N152 Co138 2.140 . S
N152 C155 1.346 . S
N152 C156 1.345 . S
C153 C154 1.387 . S
C153 C157 1.391 . S
C154 C153 1.387 . S
C154 C155 1.369 . S
C154 H163 0.929 . S
C155 N152 1.346 . S
C155 C154 1.369 . S
C155 H158 0.928 . S
C156 N152 1.345 . S
C156 C157 1.371 . S
C156 H159 0.931 . S
C157 C153 1.391 . S
C157 C156 1.371 . S
C157 H164 0.930 . S
H158 C155 0.928 . S
H159 C156 0.931 . S
H160 C136 0.930 . S
H161 C133 0.930 . S
H162 C142 0.930 . S
H163 C154 0.929 . S
H164 C157 0.930 . S
C165 C166 1.351 . S
C165 N168 1.368 . S
C165 H170 0.931 . S
C166 C165 1.351 . S
C166 N167 1.373 . S
C166 H194 0.930 . S
N167 C166 1.373 . S
N167 C169 1.340 . S
N168 C165 1.368 . S
N168 C169 1.321 . S
N168 Co171 2.135 . S
C169 N167 1.340 . S
C169 N168 1.321 . S
C169 H193 0.930 . S
H170 C165 0.931 . S
Co171 N168 2.135 . S
Co171 N174 2.121 . S
Co171 O179 2.055 1_545 S
Co171 O182 2.039 1_545 S
Co171 N185 2.140 . S
C172 O173 1.227 . S
C172 O182 1.265 1_545 S
O173 C172 1.227 . S
N174 Co171 2.121 . S
N174 C176 1.375 . S
N174 C177 1.313 . S
C175 C176 1.338 . S
C175 N178 1.377 . S
C175 H195 0.930 . S
C176 N174 1.375 . S
C176 C175 1.338 . S
C176 H180 0.931 . S
C177 N174 1.313 . S
C177 N178 1.344 . S
C177 H181 0.930 . S
N178 C175 1.377 . S
N178 C177 1.344 . S
O179 Co171 2.055 1_565 S
O179 C183 1.253 1_565 S
H180 C176 0.931 . S
H181 C177 0.930 . S
O182 Co171 2.039 1_565 S
O182 C172 1.265 1_565 S
C183 O179 1.253 1_545 S
C183 O184 1.227 . S
O184 C183 1.227 . S
N185 Co171 2.140 . S
N185 C188 1.346 . S
N185 C189 1.345 . S
C186 C187 1.387 . S
C186 C190 1.391 . S
C187 C186 1.387 . S
C187 C188 1.369 . S
C187 H196 0.929 . S
C188 N185 1.346 . S
C188 C187 1.369 . S
C188 H191 0.928 . S
C189 N185 1.345 . S
C189 C190 1.371 . S
C189 H192 0.931 . S
C190 C186 1.391 . S
C190 C189 1.371 . S
C190 H197 0.930 . S
H191 C188 0.928 . S
H192 C189 0.931 . S
H193 C169 0.930 . S
H194 C166 0.930 . S
H195 C175 0.930 . S
H196 C187 0.929 . S
H197 C190 0.930 . S
C198 C199 1.351 . S
C198 N201 1.368 . S
C198 H203 0.931 . S
C199 C198 1.351 . S
C199 N200 1.373 . S
C199 H227 0.930 . S
N200 C199 1.373 . S
N200 C202 1.340 . S
N201 C198 1.368 . S
N201 C202 1.321 . S
N201 Co204 2.135 . S
C202 N200 1.340 . S
C202 N201 1.321 . S
C202 H226 0.930 . S
H203 C198 0.931 . S
Co204 N201 2.135 . S
Co204 N207 2.121 . S
Co204 O212 2.055 . S
Co204 O215 2.039 . S
Co204 N218 2.140 . S
C205 O206 1.227 . S
C205 O215 1.265 . S
O206 C205 1.227 . S
N207 Co204 2.121 . S
N207 C209 1.375 . S
N207 C210 1.313 . S
C208 C209 1.338 . S
C208 N211 1.377 . S
C208 H228 0.930 . S
C209 N207 1.375 . S
C209 C208 1.338 . S
C209 H213 0.931 . S
C210 N207 1.313 . S
C210 N211 1.344 . S
C210 H214 0.930 . S
N211 C208 1.377 . S
N211 C210 1.344 . S
O212 Co204 2.055 . S
O212 C216 1.253 . S
H213 C209 0.931 . S
H214 C210 0.930 . S
O215 Co204 2.039 . S
O215 C205 1.265 . S
C216 O212 1.253 . S
C216 O217 1.227 . S
O217 C216 1.227 . S
N218 Co204 2.140 . S
N218 C221 1.346 . S
N218 C222 1.345 . S
C219 C220 1.387 . S
C219 C223 1.391 . S
C220 C219 1.387 . S
C220 C221 1.369 . S
C220 H229 0.929 . S
C221 N218 1.346 . S
C221 C220 1.369 . S
C221 H224 0.928 . S
C222 N218 1.345 . S
C222 C223 1.371 . S
C222 H225 0.931 . S
C223 C219 1.391 . S
C223 C222 1.371 . S
C223 H230 0.930 . S
H224 C221 0.928 . S
H225 C222 0.931 . S
H226 C202 0.930 . S
H227 C199 0.930 . S
H228 C208 0.930 . S
H229 C220 0.929 . S
H230 C223 0.930 . S
C231 C232 1.351 . S
C231 N234 1.368 . S
C231 H236 0.931 . S
C232 C231 1.351 . S
C232 N233 1.373 . S
C232 H260 0.930 . S
N233 C232 1.373 . S
N233 C235 1.340 . S
N234 C231 1.368 . S
N234 C235 1.321 . S
N234 Co237 2.135 . S
C235 N233 1.340 . S
C235 N234 1.321 . S
C235 H259 0.930 . S
H236 C231 0.931 . S
Co237 N234 2.135 . S
Co237 N240 2.121 . S
Co237 O245 2.055 . S
Co237 O248 2.039 . S
Co237 N251 2.140 . S
C238 O239 1.227 . S
C238 O248 1.265 . S
O239 C238 1.227 . S
N240 Co237 2.121 . S
N240 C242 1.375 . S
N240 C243 1.313 . S
C241 C242 1.338 . S
C241 N244 1.377 . S
C241 H261 0.930 . S
C242 N240 1.375 . S
C242 C241 1.338 . S
C242 H246 0.931 . S
C243 N240 1.313 . S
C243 N244 1.344 . S
C243 H247 0.930 . S
N244 C241 1.377 . S
N244 C243 1.344 . S
O245 Co237 2.055 . S
O245 C249 1.253 . S
H246 C242 0.931 . S
H247 C243 0.930 . S
O248 Co237 2.039 . S
O248 C238 1.265 . S
C249 O245 1.253 . S
C249 O250 1.227 . S
O250 C249 1.227 . S
N251 Co237 2.140 . S
N251 C254 1.346 . S
N251 C255 1.345 . S
C252 C253 1.387 . S
C252 C256 1.391 . S
C253 C252 1.387 . S
C253 C254 1.369 . S
C253 H262 0.929 . S
C254 N251 1.346 . S
C254 C253 1.369 . S
C254 H257 0.928 . S
C255 N251 1.345 . S
C255 C256 1.371 . S
C255 H258 0.931 . S
C256 C252 1.391 . S
C256 C255 1.371 . S
C256 H263 0.930 . S
H257 C254 0.928 . S
H258 C255 0.931 . S
H259 C235 0.930 . S
H260 C232 0.930 . S
H261 C241 0.930 . S
H262 C253 0.929 . S
H263 C256 0.930 . S
C264 C265 1.351 . S
C264 N267 1.368 . S
C264 H269 0.931 . S
C265 C264 1.351 . S
C265 N266 1.373 . S
C265 H293 0.930 . S
N266 C265 1.373 . S
N266 C268 1.340 . S
N267 C264 1.368 . S
N267 C268 1.321 . S
N267 Co270 2.135 . S
C268 N266 1.340 . S
C268 N267 1.321 . S
C268 H292 0.930 . S
H269 C264 0.931 . S
Co270 N267 2.135 . S
Co270 N273 2.121 . S
Co270 O278 2.055 1_655 S
Co270 O281 2.039 1_655 S
Co270 N284 2.140 . S
C271 O272 1.227 . S
C271 O281 1.265 1_655 S
O272 C271 1.227 . S
N273 Co270 2.121 . S
N273 C275 1.375 . S
N273 C276 1.313 . S
C274 C275 1.338 . S
C274 N277 1.377 . S
C274 H294 0.930 . S
C275 N273 1.375 . S
C275 C274 1.338 . S
C275 H279 0.931 . S
C276 N273 1.313 . S
C276 N277 1.344 . S
C276 H280 0.930 . S
N277 C274 1.377 . S
N277 C276 1.344 . S
O278 Co270 2.055 1_455 S
O278 C282 1.253 1_455 S
H279 C275 0.931 . S
H280 C276 0.930 . S
O281 Co270 2.039 1_455 S
O281 C271 1.265 1_455 S
C282 O278 1.253 1_655 S
C282 O283 1.227 . S
O283 C282 1.227 . S
N284 Co270 2.140 . S
N284 C287 1.346 . S
N284 C288 1.345 . S
C285 C286 1.387 . S
C285 C289 1.391 . S
C286 C285 1.387 . S
C286 C287 1.369 . S
C286 H295 0.929 . S
C287 N284 1.346 . S
C287 C286 1.369 . S
C287 H290 0.928 . S
C288 N284 1.345 . S
C288 C289 1.371 . S
C288 H291 0.931 . S
C289 C285 1.391 . S
C289 C288 1.371 . S
C289 H296 0.930 . S
H290 C287 0.928 . S
H291 C288 0.931 . S
H292 C268 0.930 . S
H293 C265 0.930 . S
H294 C274 0.930 . S
H295 C286 0.929 . S
H296 C289 0.930 . S
C297 C298 1.351 . S
C297 N300 1.368 . S
C297 H302 0.931 . S
C298 C297 1.351 . S
C298 N299 1.373 . S
C298 H326 0.930 . S
N299 C298 1.373 . S
N299 C301 1.340 . S
N300 C297 1.368 . S
N300 C301 1.321 . S
N300 Co303 2.135 . S
C301 N299 1.340 . S
C301 N300 1.321 . S
C301 H325 0.930 . S
H302 C297 0.931 . S
Co303 N300 2.135 . S
Co303 N306 2.121 . S
Co303 O311 2.055 1_565 S
Co303 O314 2.039 1_565 S
Co303 N317 2.140 . S
C304 O305 1.227 . S
C304 O314 1.265 1_565 S
O305 C304 1.227 . S
N306 Co303 2.121 . S
N306 C308 1.375 . S
N306 C309 1.313 . S
C307 C308 1.338 . S
C307 N310 1.377 . S
C307 H327 0.930 . S
C308 N306 1.375 . S
C308 C307 1.338 . S
C308 H312 0.931 . S
C309 N306 1.313 . S
C309 N310 1.344 . S
C309 H313 0.930 . S
N310 C307 1.377 . S
N310 C309 1.344 . S
O311 Co303 2.055 1_545 S
O311 C315 1.253 1_545 S
H312 C308 0.931 . S
H313 C309 0.930 . S
O314 Co303 2.039 1_545 S
O314 C304 1.265 1_545 S
C315 O311 1.253 1_565 S
C315 O316 1.227 . S
O316 C315 1.227 . S
N317 Co303 2.140 . S
N317 C320 1.346 . S
N317 C321 1.345 . S
C318 C319 1.387 . S
C318 C322 1.391 . S
C319 C318 1.387 . S
C319 C320 1.369 . S
C319 H328 0.929 . S
C320 N317 1.346 . S
C320 C319 1.369 . S
C320 H323 0.928 . S
C321 N317 1.345 . S
C321 C322 1.371 . S
C321 H324 0.931 . S
C322 C318 1.391 . S
C322 C321 1.371 . S
C322 H329 0.930 . S
H323 C320 0.928 . S
H324 C321 0.931 . S
H325 C301 0.930 . S
H326 C298 0.930 . S
H327 C307 0.930 . S
H328 C319 0.929 . S
H329 C322 0.930 . S
C330 C331 1.351 . S
C330 N333 1.368 . S
C330 H335 0.931 . S
C331 C330 1.351 . S
C331 N332 1.373 . S
C331 H359 0.930 . S
N332 C331 1.373 . S
N332 C334 1.340 . S
N333 C330 1.368 . S
N333 C334 1.321 . S
N333 Co336 2.135 . S
C334 N332 1.340 . S
C334 N333 1.321 . S
C334 H358 0.930 . S
H335 C330 0.931 . S
Co336 N333 2.135 . S
Co336 N339 2.121 . S
Co336 O344 2.055 . S
Co336 O347 2.039 . S
Co336 N350 2.140 . S
C337 O338 1.227 . S
C337 O347 1.265 . S
O338 C337 1.227 . S
N339 Co336 2.121 . S
N339 C341 1.375 . S
N339 C342 1.313 . S
C340 C341 1.338 . S
C340 N343 1.377 . S
C340 H360 0.930 . S
C341 N339 1.375 . S
C341 C340 1.338 . S
C341 H345 0.931 . S
C342 N339 1.313 . S
C342 N343 1.344 . S
C342 H346 0.930 . S
N343 C340 1.377 . S
N343 C342 1.344 . S
O344 Co336 2.055 . S
O344 C348 1.253 . S
H345 C341 0.931 . S
H346 C342 0.930 . S
O347 Co336 2.039 . S
O347 C337 1.265 . S
C348 O344 1.253 . S
C348 O349 1.227 . S
O349 C348 1.227 . S
N350 Co336 2.140 . S
N350 C353 1.346 . S
N350 C354 1.345 . S
C351 C352 1.387 . S
C351 C355 1.391 . S
C352 C351 1.387 . S
C352 C353 1.369 . S
C352 H361 0.929 . S
C353 N350 1.346 . S
C353 C352 1.369 . S
C353 H356 0.928 . S
C354 N350 1.345 . S
C354 C355 1.371 . S
C354 H357 0.931 . S
C355 C351 1.391 . S
C355 C354 1.371 . S
C355 H362 0.930 . S
H356 C353 0.928 . S
H357 C354 0.931 . S
H358 C334 0.930 . S
H359 C331 0.930 . S
H360 C340 0.930 . S
H361 C352 0.929 . S
H362 C355 0.930 . S
C363 C364 1.351 . S
C363 N366 1.368 . S
C363 H368 0.931 . S
C364 C363 1.351 . S
C364 N365 1.373 . S
C364 H392 0.930 . S
N365 C364 1.373 . S
N365 C367 1.340 . S
N366 C363 1.368 . S
N366 C367 1.321 . S
N366 Co369 2.135 . S
C367 N365 1.340 . S
C367 N366 1.321 . S
C367 H391 0.930 . S
H368 C363 0.931 . S
Co369 N366 2.135 . S
Co369 N372 2.121 . S
Co369 O377 2.055 . S
Co369 O380 2.039 . S
Co369 N383 2.140 . S
C370 O371 1.227 . S
C370 O380 1.265 . S
O371 C370 1.227 . S
N372 Co369 2.121 . S
N372 C374 1.375 . S
N372 C375 1.313 . S
C373 C374 1.338 . S
C373 N376 1.377 . S
C373 H393 0.930 . S
C374 N372 1.375 . S
C374 C373 1.338 . S
C374 H378 0.931 . S
C375 N372 1.313 . S
C375 N376 1.344 . S
C375 H379 0.930 . S
N376 C373 1.377 . S
N376 C375 1.344 . S
O377 Co369 2.055 . S
O377 C381 1.253 . S
H378 C374 0.931 . S
H379 C375 0.930 . S
O380 Co369 2.039 . S
O380 C370 1.265 . S
C381 O377 1.253 . S
C381 O382 1.227 . S
O382 C381 1.227 . S
N383 Co369 2.140 . S
N383 C386 1.346 . S
N383 C387 1.345 . S
C384 C385 1.387 . S
C384 C388 1.391 . S
C385 C384 1.387 . S
C385 C386 1.369 . S
C385 H394 0.929 . S
C386 N383 1.346 . S
C386 C385 1.369 . S
C386 H389 0.928 . S
C387 N383 1.345 . S
C387 C388 1.371 . S
C387 H390 0.931 . S
C388 C384 1.391 . S
C388 C387 1.371 . S
C388 H395 0.930 . S
H389 C386 0.928 . S
H390 C387 0.931 . S
H391 C367 0.930 . S
H392 C364 0.930 . S
H393 C373 0.930 . S
H394 C385 0.929 . S
H395 C388 0.930 . S
C396 C397 1.351 . S
C396 N399 1.368 . S
C396 H401 0.931 . S
C397 C396 1.351 . S
C397 N398 1.373 . S
C397 H425 0.930 . S
N398 C397 1.373 . S
N398 C400 1.340 . S
N399 C396 1.368 . S
N399 C400 1.321 . S
N399 Co402 2.135 . S
C400 N398 1.340 . S
C400 N399 1.321 . S
C400 H424 0.930 . S
H401 C396 0.931 . S
Co402 N399 2.135 . S
Co402 N405 2.121 . S
Co402 O410 2.055 1_655 S
Co402 O413 2.039 1_655 S
Co402 N416 2.140 . S
C403 O404 1.227 . S
C403 O413 1.265 1_655 S
O404 C403 1.227 . S
N405 Co402 2.121 . S
N405 C407 1.375 . S
N405 C408 1.313 . S
C406 C407 1.338 . S
C406 N409 1.377 . S
C406 H426 0.930 . S
C407 N405 1.375 . S
C407 C406 1.338 . S
C407 H411 0.931 . S
C408 N405 1.313 . S
C408 N409 1.344 . S
C408 H412 0.930 . S
N409 C406 1.377 . S
N409 C408 1.344 . S
O410 Co402 2.055 1_455 S
O410 C414 1.253 1_455 S
H411 C407 0.931 . S
H412 C408 0.930 . S
O413 Co402 2.039 1_455 S
O413 C403 1.265 1_455 S
C414 O410 1.253 1_655 S
C414 O415 1.227 . S
O415 C414 1.227 . S
N416 Co402 2.140 . S
N416 C419 1.346 . S
N416 C420 1.345 . S
C417 C418 1.387 . S
C417 C421 1.391 . S
C418 C417 1.387 . S
C418 C419 1.369 . S
C418 H427 0.929 . S
C419 N416 1.346 . S
C419 C418 1.369 . S
C419 H422 0.928 . S
C420 N416 1.345 . S
C420 C421 1.371 . S
C420 H423 0.931 . S
C421 C417 1.391 . S
C421 C420 1.371 . S
C421 H428 0.930 . S
H422 C419 0.928 . S
H423 C420 0.931 . S
H424 C400 0.930 . S
H425 C397 0.930 . S
H426 C406 0.930 . S
H427 C418 0.929 . S
H428 C421 0.930 . S
C429 C430 1.351 . S
C429 N432 1.368 . S
C429 H434 0.931 . S
C430 C429 1.351 . S
C430 N431 1.373 . S
C430 H458 0.930 . S
N431 C430 1.373 . S
N431 C433 1.340 . S
N432 C429 1.368 . S
N432 C433 1.321 . S
N432 Co435 2.135 . S
C433 N431 1.340 . S
C433 N432 1.321 . S
C433 H457 0.930 . S
H434 C429 0.931 . S
Co435 N432 2.135 . S
Co435 N438 2.121 . S
Co435 O443 2.055 1_565 S
Co435 O446 2.039 1_565 S
Co435 N449 2.140 . S
C436 O437 1.227 . S
C436 O446 1.265 1_565 S
O437 C436 1.227 . S
N438 Co435 2.121 . S
N438 C440 1.375 . S
N438 C441 1.313 . S
C439 C440 1.338 . S
C439 N442 1.377 . S
C439 H459 0.930 . S
C440 N438 1.375 . S
C440 C439 1.338 . S
C440 H444 0.931 . S
C441 N438 1.313 . S
C441 N442 1.344 . S
C441 H445 0.930 . S
N442 C439 1.377 . S
N442 C441 1.344 . S
O443 Co435 2.055 1_545 S
O443 C447 1.253 1_545 S
H444 C440 0.931 . S
H445 C441 0.930 . S
O446 Co435 2.039 1_545 S
O446 C436 1.265 1_545 S
C447 O443 1.253 1_565 S
C447 O448 1.227 . S
O448 C447 1.227 . S
N449 Co435 2.140 . S
N449 C452 1.346 . S
N449 C453 1.345 . S
C450 C451 1.387 . S
C450 C454 1.391 . S
C451 C450 1.387 . S
C451 C452 1.369 . S
C451 H460 0.929 . S
C452 N449 1.346 . S
C452 C451 1.369 . S
C452 H455 0.928 . S
C453 N449 1.345 . S
C453 C454 1.371 . S
C453 H456 0.931 . S
C454 C450 1.391 . S
C454 C453 1.371 . S
C454 H461 0.930 . S
H455 C452 0.928 . S
H456 C453 0.931 . S
H457 C433 0.930 . S
H458 C430 0.930 . S
H459 C439 0.930 . S
H460 C451 0.929 . S
H461 C454 0.930 . S
C462 C463 1.351 . S
C462 N465 1.368 . S
C462 H467 0.931 . S
C463 C462 1.351 . S
C463 N464 1.373 . S
C463 H491 0.930 . S
N464 C463 1.373 . S
N464 C466 1.340 . S
N465 C462 1.368 . S
N465 C466 1.321 . S
N465 Co468 2.135 . S
C466 N464 1.340 . S
C466 N465 1.321 . S
C466 H490 0.930 . S
H467 C462 0.931 . S
Co468 N465 2.135 . S
Co468 N471 2.121 . S
Co468 O476 2.055 . S
Co468 O479 2.039 . S
Co468 N482 2.140 . S
C469 O470 1.227 . S
C469 O479 1.265 . S
O470 C469 1.227 . S
N471 Co468 2.121 . S
N471 C473 1.375 . S
N471 C474 1.313 . S
C472 C473 1.338 . S
C472 N475 1.377 . S
C472 H492 0.930 . S
C473 N471 1.375 . S
C473 C472 1.338 . S
C473 H477 0.931 . S
C474 N471 1.313 . S
C474 N475 1.344 . S
C474 H478 0.930 . S
N475 C472 1.377 . S
N475 C474 1.344 . S
O476 Co468 2.055 . S
O476 C480 1.253 . S
H477 C473 0.931 . S
H478 C474 0.930 . S
O479 Co468 2.039 . S
O479 C469 1.265 . S
C480 O476 1.253 . S
C480 O481 1.227 . S
O481 C480 1.227 . S
N482 Co468 2.140 . S
N482 C485 1.346 . S
N482 C486 1.345 . S
C483 C484 1.387 . S
C483 C487 1.391 . S
C484 C483 1.387 . S
C484 C485 1.369 . S
C484 H493 0.929 . S
C485 N482 1.346 . S
C485 C484 1.369 . S
C485 H488 0.928 . S
C486 N482 1.345 . S
C486 C487 1.371 . S
C486 H489 0.931 . S
C487 C483 1.391 . S
C487 C486 1.371 . S
C487 H494 0.930 . S
H488 C485 0.928 . S
H489 C486 0.931 . S
H490 C466 0.930 . S
H491 C463 0.930 . S
H492 C472 0.930 . S
H493 C484 0.929 . S
H494 C487 0.930 . S
C495 C496 1.351 . S
C495 N498 1.368 . S
C495 H500 0.931 . S
C496 C495 1.351 . S
C496 N497 1.373 . S
C496 H524 0.930 . S
N497 C496 1.373 . S
N497 C499 1.340 . S
N498 C495 1.368 . S
N498 C499 1.321 . S
N498 Co501 2.135 . S
C499 N497 1.340 . S
C499 N498 1.321 . S
C499 H523 0.930 . S
H500 C495 0.931 . S
Co501 N498 2.135 . S
Co501 N504 2.121 . S
Co501 O509 2.055 . S
Co501 O512 2.039 . S
Co501 N515 2.140 . S
C502 O503 1.227 . S
C502 O512 1.265 . S
O503 C502 1.227 . S
N504 Co501 2.121 . S
N504 C506 1.375 . S
N504 C507 1.313 . S
C505 C506 1.338 . S
C505 N508 1.377 . S
C505 H525 0.930 . S
C506 N504 1.375 . S
C506 C505 1.338 . S
C506 H510 0.931 . S
C507 N504 1.313 . S
C507 N508 1.344 . S
C507 H511 0.930 . S
N508 C505 1.377 . S
N508 C507 1.344 . S
O509 Co501 2.055 . S
O509 C513 1.253 . S
H510 C506 0.931 . S
H511 C507 0.930 . S
O512 Co501 2.039 . S
O512 C502 1.265 . S
C513 O509 1.253 . S
C513 O514 1.227 . S
O514 C513 1.227 . S
N515 Co501 2.140 . S
N515 C518 1.346 . S
N515 C519 1.345 . S
C516 C517 1.387 . S
C516 C520 1.391 . S
C517 C516 1.387 . S
C517 C518 1.369 . S
C517 H526 0.929 . S
C518 N515 1.346 . S
C518 C517 1.369 . S
C518 H521 0.928 . S
C519 N515 1.345 . S
C519 C520 1.371 . S
C519 H522 0.931 . S
C520 C516 1.391 . S
C520 C519 1.371 . S
C520 H527 0.930 . S
H521 C518 0.928 . S
H522 C519 0.931 . S
H523 C499 0.930 . S
H524 C496 0.930 . S
H525 C505 0.930 . S
H526 C517 0.929 . S
H527 C520 0.930 . S
C528 C529 1.349 1_655 S
C528 C530 1.327 . S
C528 H553 0.950 . S
C529 C528 1.349 1_455 S
C529 C545 1.349 . S
C530 C528 1.327 . S
C530 C549 1.429 1_655 S
C530 H554 0.950 . S
C531 C548 1.574 1_556 S
C531 C550 1.368 . S
C531 H555 0.949 . S
H532 C536 0.949 . S
C533 C534 1.349 . S
C533 C535 1.327 . S
C533 H556 0.950 . S
C534 C533 1.349 . S
C534 C546 1.349 1_455 S
C535 C533 1.327 . S
C535 C551 1.429 . S
C535 H557 0.950 . S
C536 H532 0.949 . S
C536 C544 1.574 1_554 S
C536 C552 1.368 1_655 S
H537 C545 0.950 . S
H538 C543 0.950 . S
H539 C544 0.949 . S
H540 C546 0.950 . S
H541 C547 0.950 . S
H542 C548 0.949 . S
C543 H538 0.950 . S
C543 C545 1.327 . S
C543 C549 1.429 . S
C544 C536 1.574 1_556 S
C544 H539 0.949 . S
C544 C550 1.368 1_655 S
C545 C529 1.349 . S
C545 H537 0.950 . S
C545 C543 1.327 . S
C546 C534 1.349 1_655 S
C546 H540 0.950 . S
C546 C547 1.327 . S
C547 H541 0.950 . S
C547 C546 1.327 . S
C547 C551 1.429 1_655 S
C548 C531 1.574 1_554 S
C548 H542 0.949 . S
C548 C552 1.368 . S
C549 C530 1.429 1_455 S
C549 C543 1.429 . S
C549 C550 1.523 . S
C550 C531 1.368 . S
C550 C544 1.368 1_455 S
C550 C549 1.523 . S
C551 C535 1.429 . S
C551 C547 1.429 1_455 S
C551 C552 1.523 . S
C552 C536 1.368 1_455 S
C552 C548 1.368 . S
C552 C551 1.523 . S
H553 C528 0.950 . S
H554 C530 0.950 . S
H555 C531 0.949 . S
H556 C533 0.950 . S
H557 C535 0.950 . S
C558 C559 1.349 . S
C558 C560 1.327 . S
C558 H583 0.950 . S
C559 C558 1.349 . S
C559 C575 1.349 1_545 S
C560 C558 1.327 . S
C560 C579 1.429 . S
C560 H584 0.950 . S
C561 C578 1.574 . S
C561 C580 1.368 1_565 S
C561 H585 0.949 . S
H562 C566 0.949 . S
C563 C564 1.349 1_565 S
C563 C565 1.327 . S
C563 H586 0.950 . S
C564 C563 1.349 1_545 S
C564 C576 1.349 . S
C565 C563 1.327 . S
C565 C581 1.429 1_565 S
C565 H587 0.950 . S
C566 H562 0.949 . S
C566 C574 1.574 . S
C566 C582 1.368 . S
H567 C575 0.950 . S
H568 C573 0.950 . S
H569 C574 0.949 . S
H570 C576 0.950 . S
H571 C577 0.950 . S
H572 C578 0.949 . S
C573 H568 0.950 . S
C573 C575 1.327 . S
C573 C579 1.429 1_565 S
C574 C566 1.574 . S
C574 H569 0.949 . S
C574 C580 1.368 . S
C575 C559 1.349 1_565 S
C575 H567 0.950 . S
C575 C573 1.327 . S
C576 C564 1.349 . S
C576 H570 0.950 . S
C576 C577 1.327 . S
C577 H571 0.950 . S
C577 C576 1.327 . S
C577 C581 1.429 . S
C578 C561 1.574 . S
C578 H572 0.949 . S
C578 C582 1.368 1_565 S
C579 C560 1.429 . S
C579 C573 1.429 1_545 S
C579 C580 1.523 . S
C580 C561 1.368 1_545 S
C580 C574 1.368 . S
C580 C579 1.523 . S
C581 C565 1.429 1_545 S
C581 C577 1.429 . S
C581 C582 1.523 . S
C582 C566 1.368 . S
C582 C578 1.368 1_545 S
C582 C581 1.523 . S
H583 C558 0.950 . S
H584 C560 0.950 . S
H585 C561 0.949 . S
H586 C563 0.950 . S
H587 C565 0.950 . S
C588 C589 1.349 . S
C588 C590 1.327 . S
C588 H613 0.950 . S
C589 C588 1.349 . S
C589 C605 1.349 . S
C590 C588 1.327 . S
C590 C609 1.429 . S
C590 H614 0.950 . S
C591 C608 1.574 1_554 S
C591 C610 1.368 . S
C591 H615 0.949 . S
H592 C596 0.949 . S
C593 C594 1.349 . S
C593 C595 1.327 . S
C593 H616 0.950 . S
C594 C593 1.349 . S
C594 C606 1.349 . S
C595 C593 1.327 . S
C595 C611 1.429 . S
C595 H617 0.950 . S
C596 H592 0.949 . S
C596 C604 1.574 1_556 S
C596 C612 1.368 . S
H597 C605 0.950 . S
H598 C603 0.950 . S
H599 C604 0.949 . S
H600 C606 0.950 . S
H601 C607 0.950 . S
H602 C608 0.949 . S
C603 H598 0.950 . S
C603 C605 1.327 . S
C603 C609 1.429 . S
C604 C596 1.574 1_554 S
C604 H599 0.949 . S
C604 C610 1.368 . S
C605 C589 1.349 . S
C605 H597 0.950 . S
C605 C603 1.327 . S
C606 C594 1.349 . S
C606 H600 0.950 . S
C606 C607 1.327 . S
C607 H601 0.950 . S
C607 C606 1.327 . S
C607 C611 1.429 . S
C608 C591 1.574 1_556 S
C608 H602 0.949 . S
C608 C612 1.368 . S
C609 C590 1.429 . S
C609 C603 1.429 . S
C609 C610 1.523 . S
C610 C591 1.368 . S
C610 C604 1.368 . S
C610 C609 1.523 . S
C611 C595 1.429 . S
C611 C607 1.429 . S
C611 C612 1.523 . S
C612 C596 1.368 . S
C612 C608 1.368 . S
C612 C611 1.523 . S
H613 C588 0.950 . S
H614 C590 0.950 . S
H615 C591 0.949 . S
H616 C593 0.950 . S
H617 C595 0.950 . S
C618 C619 1.349 . S
C618 C620 1.327 . S
C618 H643 0.950 . S
C619 C618 1.349 . S
C619 C635 1.349 . S
C620 C618 1.327 . S
C620 C639 1.429 . S
C620 H644 0.950 . S
C621 C638 1.574 . S
C621 C640 1.368 . S
C621 H645 0.949 . S
H622 C626 0.949 . S
C623 C624 1.349 . S
C623 C625 1.327 . S
C623 H646 0.950 . S
C624 C623 1.349 . S
C624 C636 1.349 . S
C625 C623 1.327 . S
C625 C641 1.429 . S
C625 H647 0.950 . S
C626 H622 0.949 . S
C626 C634 1.574 . S
C626 C642 1.368 . S
H627 C635 0.950 . S
H628 C633 0.950 . S
H629 C634 0.949 . S
H630 C636 0.950 . S
H631 C637 0.950 . S
H632 C638 0.949 . S
C633 H628 0.950 . S
C633 C635 1.327 . S
C633 C639 1.429 . S
C634 C626 1.574 . S
C634 H629 0.949 . S
C634 C640 1.368 . S
C635 C619 1.349 . S
C635 H627 0.950 . S
C635 C633 1.327 . S
C636 C624 1.349 . S
C636 H630 0.950 . S
C636 C637 1.327 . S
C637 H631 0.950 . S
C637 C636 1.327 . S
C637 C641 1.429 . S
C638 C621 1.574 . S
C638 H632 0.949 . S
C638 C642 1.368 . S
C639 C620 1.429 . S
C639 C633 1.429 . S
C639 C640 1.523 . S
C640 C621 1.368 . S
C640 C634 1.368 . S
C640 C639 1.523 . S
C641 C625 1.429 . S
C641 C637 1.429 . S
C641 C642 1.523 . S
C642 C626 1.368 . S
C642 C638 1.368 . S
C642 C641 1.523 . S
H643 C618 0.950 . S
H644 C620 0.950 . S
H645 C621 0.949 . S
H646 C623 0.950 . S
H647 C625 0.950 . S
C648 C649 1.349 . S
C648 C650 1.327 . S
C648 H673 0.950 . S
C649 C648 1.349 . S
C649 C665 1.349 . S
C650 C648 1.327 . S
C650 C669 1.429 . S
C650 H674 0.950 . S
C651 C668 1.574 1_554 S
C651 C670 1.368 . S
C651 H675 0.949 . S
H652 C656 0.949 . S
C653 C654 1.349 . S
C653 C655 1.327 . S
C653 H676 0.950 . S
C654 C653 1.349 . S
C654 C666 1.349 . S
C655 C653 1.327 . S
C655 C671 1.429 . S
C655 H677 0.950 . S
C656 H652 0.949 . S
C656 C664 1.574 1_556 S
C656 C672 1.368 . S
H657 C665 0.950 . S
H658 C663 0.950 . S
H659 C664 0.949 . S
H660 C666 0.950 . S
H661 C667 0.950 . S
H662 C668 0.949 . S
C663 H658 0.950 . S
C663 C665 1.327 . S
C663 C669 1.429 . S
C664 C656 1.574 1_554 S
C664 H659 0.949 . S
C664 C670 1.368 . S
C665 C649 1.349 . S
C665 H657 0.950 . S
C665 C663 1.327 . S
C666 C654 1.349 . S
C666 H660 0.950 . S
C666 C667 1.327 . S
C667 H661 0.950 . S
C667 C666 1.327 . S
C667 C671 1.429 . S
C668 C651 1.574 1_556 S
C668 H662 0.949 . S
C668 C672 1.368 . S
C669 C650 1.429 . S
C669 C663 1.429 . S
C669 C670 1.523 . S
C670 C651 1.368 . S
C670 C664 1.368 . S
C670 C669 1.523 . S
C671 C655 1.429 . S
C671 C667 1.429 . S
C671 C672 1.523 . S
C672 C656 1.368 . S
C672 C668 1.368 . S
C672 C671 1.523 . S
H673 C648 0.950 . S
H674 C650 0.950 . S
H675 C651 0.949 . S
H676 C653 0.950 . S
H677 C655 0.950 . S
C678 C679 1.349 1_545 S
C678 C680 1.327 . S
C678 H703 0.950 . S
C679 C678 1.349 1_565 S
C679 C695 1.349 . S
C680 C678 1.327 . S
C680 C699 1.429 1_545 S
C680 H704 0.950 . S
C681 C698 1.574 . S
C681 C700 1.368 . S
C681 H705 0.949 . S
H682 C686 0.949 . S
C683 C684 1.349 . S
C683 C685 1.327 . S
C683 H706 0.950 . S
C684 C683 1.349 . S
C684 C696 1.349 1_565 S
C685 C683 1.327 . S
C685 C701 1.429 . S
C685 H707 0.950 . S
C686 H682 0.949 . S
C686 C694 1.574 . S
C686 C702 1.368 1_545 S
H687 C695 0.950 . S
H688 C693 0.950 . S
H689 C694 0.949 . S
H690 C696 0.950 . S
H691 C697 0.950 . S
H692 C698 0.949 . S
C693 H688 0.950 . S
C693 C695 1.327 . S
C693 C699 1.429 . S
C694 C686 1.574 . S
C694 H689 0.949 . S
C694 C700 1.368 1_545 S
C695 C679 1.349 . S
C695 H687 0.950 . S
C695 C693 1.327 . S
C696 C684 1.349 1_545 S
C696 H690 0.950 . S
C696 C697 1.327 . S
C697 H691 0.950 . S
C697 C696 1.327 . S
C697 C701 1.429 1_545 S
C698 C681 1.574 . S
C698 H692 0.949 . S
C698 C702 1.368 . S
C699 C680 1.429 1_565 S
C699 C693 1.429 . S
C699 C700 1.523 . S
C700 C681 1.368 . S
C700 C694 1.368 1_565 S
C700 C699 1.523 . S
C701 C685 1.429 . S
C701 C697 1.429 1_565 S
C701 C702 1.523 . S
C702 C686 1.368 1_565 S
C702 C698 1.368 . S
C702 C701 1.523 . S
H703 C678 0.950 . S
H704 C680 0.950 . S
H705 C681 0.949 . S
H706 C683 0.950 . S
H707 C685 0.950 . S
C708 C709 1.349 . S
C708 C710 1.327 . S
C708 H733 0.950 . S
C709 C708 1.349 . S
C709 C725 1.349 . S
C710 C708 1.327 . S
C710 C729 1.429 . S
C710 H734 0.950 . S
C711 C728 1.574 1_556 S
C711 C730 1.368 . S
C711 H735 0.949 . S
H712 C716 0.949 . S
C713 C714 1.349 . S
C713 C715 1.327 . S
C713 H736 0.950 . S
C714 C713 1.349 . S
C714 C726 1.349 . S
C715 C713 1.327 . S
C715 C731 1.429 . S
C715 H737 0.950 . S
C716 H712 0.949 . S
C716 C724 1.574 1_554 S
C716 C732 1.368 . S
H717 C725 0.950 . S
H718 C723 0.950 . S
H719 C724 0.949 . S
H720 C726 0.950 . S
H721 C727 0.950 . S
H722 C728 0.949 . S
C723 H718 0.950 . S
C723 C725 1.327 . S
C723 C729 1.429 . S
C724 C716 1.574 1_556 S
C724 H719 0.949 . S
C724 C730 1.368 . S
C725 C709 1.349 . S
C725 H717 0.950 . S
C725 C723 1.327 . S
C726 C714 1.349 . S
C726 H720 0.950 . S
C726 C727 1.327 . S
C727 H721 0.950 . S
C727 C726 1.327 . S
C727 C731 1.429 . S
C728 C711 1.574 1_554 S
C728 H722 0.949 . S
C728 C732 1.368 . S
C729 C710 1.429 . S
C729 C723 1.429 . S
C729 C730 1.523 . S
C730 C711 1.368 . S
C730 C724 1.368 . S
C730 C729 1.523 . S
C731 C715 1.429 . S
C731 C727 1.429 . S
C731 C732 1.523 . S
C732 C716 1.368 . S
C732 C728 1.368 . S
C732 C731 1.523 . S
H733 C708 0.950 . S
H734 C710 0.950 . S
H735 C711 0.949 . S
H736 C713 0.950 . S
H737 C715 0.950 . S
C738 C739 1.349 . S
C738 C740 1.327 . S
C738 H763 0.950 . S
C739 C738 1.349 . S
C739 C755 1.349 . S
C740 C738 1.327 . S
C740 C759 1.429 . S
C740 H764 0.950 . S
C741 C758 1.574 . S
C741 C760 1.368 . S
C741 H765 0.949 . S
H742 C746 0.949 . S
C743 C744 1.349 . S
C743 C745 1.327 . S
C743 H766 0.950 . S
C744 C743 1.349 . S
C744 C756 1.349 . S
C745 C743 1.327 . S
C745 C761 1.429 . S
C745 H767 0.950 . S
C746 H742 0.949 . S
C746 C754 1.574 . S
C746 C762 1.368 . S
H747 C755 0.950 . S
H748 C753 0.950 . S
H749 C754 0.949 . S
H750 C756 0.950 . S
H751 C757 0.950 . S
H752 C758 0.949 . S
C753 H748 0.950 . S
C753 C755 1.327 . S
C753 C759 1.429 . S
C754 C746 1.574 . S
C754 H749 0.949 . S
C754 C760 1.368 . S
C755 C739 1.349 . S
C755 H747 0.950 . S
C755 C753 1.327 . S
C756 C744 1.349 . S
C756 H750 0.950 . S
C756 C757 1.327 . S
C757 H751 0.950 . S
C757 C756 1.327 . S
C757 C761 1.429 . S
C758 C741 1.574 . S
C758 H752 0.949 . S
C758 C762 1.368 . S
C759 C740 1.429 . S
C759 C753 1.429 . S
C759 C760 1.523 . S
C760 C741 1.368 . S
C760 C754 1.368 . S
C760 C759 1.523 . S
C761 C745 1.429 . S
C761 C757 1.429 . S
C761 C762 1.523 . S
C762 C746 1.368 . S
C762 C758 1.368 . S
C762 C761 1.523 . S
H763 C738 0.950 . S
H764 C740 0.950 . S
H765 C741 0.949 . S
H766 C743 0.950 . S
H767 C745 0.950 . S
C768 C769 1.349 1_455 S
C768 C770 1.327 . S
C768 H793 0.950 . S
C769 C768 1.349 1_655 S
C769 C785 1.349 . S
C770 C768 1.327 . S
C770 C789 1.429 1_455 S
C770 H794 0.950 . S
C771 C788 1.574 . S
C771 C790 1.368 . S
C771 H795 0.949 . S
H772 C776 0.949 . S
C773 C774 1.349 . S
C773 C775 1.327 . S
C773 H796 0.950 . S
C774 C773 1.349 . S
C774 C786 1.349 1_655 S
C775 C773 1.327 . S
C775 C791 1.429 . S
C775 H797 0.950 . S
C776 H772 0.949 . S
C776 C784 1.574 . S
C776 C792 1.368 1_455 S
H777 C785 0.950 . S
H778 C783 0.950 . S
H779 C784 0.949 . S
H780 C786 0.950 . S
H781 C787 0.950 . S
H782 C788 0.949 . S
C783 H778 0.950 . S
C783 C785 1.327 . S
C783 C789 1.429 . S
C784 C776 1.574 . S
C784 H779 0.949 . S
C784 C790 1.368 1_455 S
C785 C769 1.349 . S
C785 H777 0.950 . S
C785 C783 1.327 . S
C786 C774 1.349 1_455 S
C786 H780 0.950 . S
C786 C787 1.327 . S
C787 H781 0.950 . S
C787 C786 1.327 . S
C787 C791 1.429 1_455 S
C788 C771 1.574 . S
C788 H782 0.949 . S
C788 C792 1.368 . S
C789 C770 1.429 1_655 S
C789 C783 1.429 . S
C789 C790 1.523 . S
C790 C771 1.368 . S
C790 C784 1.368 1_655 S
C790 C789 1.523 . S
C791 C775 1.429 . S
C791 C787 1.429 1_655 S
C791 C792 1.523 1_565 S
C792 C776 1.368 1_655 S
C792 C788 1.368 . S
C792 C791 1.523 1_545 S
H793 C768 0.950 . S
H794 C770 0.950 . S
H795 C771 0.949 . S
H796 C773 0.950 . S
H797 C775 0.950 . S
C798 C799 1.349 . S
C798 C800 1.327 . S
C798 H823 0.950 . S
C799 C798 1.349 . S
C799 C815 1.349 1_565 S
C800 C798 1.327 . S
C800 C819 1.429 . S
C800 H824 0.950 . S
C801 C818 1.574 . S
C801 C820 1.368 1_545 S
C801 H825 0.949 . S
H802 C806 0.949 . S
C803 C804 1.349 1_545 S
C803 C805 1.327 . S
C803 H826 0.950 . S
C804 C803 1.349 1_565 S
C804 C816 1.349 . S
C805 C803 1.327 . S
C805 C821 1.429 1_545 S
C805 H827 0.950 . S
C806 H802 0.949 . S
C806 C814 1.574 . S
C806 C822 1.368 . S
H807 C815 0.950 . S
H808 C813 0.950 . S
H809 C814 0.949 . S
H810 C816 0.950 . S
H811 C817 0.950 . S
H812 C818 0.949 . S
C813 H808 0.950 . S
C813 C815 1.327 . S
C813 C819 1.429 1_545 S
C814 C806 1.574 . S
C814 H809 0.949 . S
C814 C820 1.368 . S
C815 C799 1.349 1_545 S
C815 H807 0.950 . S
C815 C813 1.327 . S
C816 C804 1.349 . S
C816 H810 0.950 . S
C816 C817 1.327 . S
C817 H811 0.950 . S
C817 C816 1.327 . S
C817 C821 1.429 . S
C818 C801 1.574 . S
C818 H812 0.949 . S
C818 C822 1.368 1_545 S
C819 C800 1.429 . S
C819 C813 1.429 1_565 S
C819 C820 1.523 . S
C820 C801 1.368 1_565 S
C820 C814 1.368 . S
C820 C819 1.523 . S
C821 C805 1.429 1_565 S
C821 C817 1.429 . S
C821 C822 1.523 . S
C822 C806 1.368 . S
C822 C818 1.368 1_565 S
C822 C821 1.523 . S
H823 C798 0.950 . S
H824 C800 0.950 . S
H825 C801 0.949 . S
H826 C803 0.950 . S
H827 C805 0.950 . S
C828 C829 1.349 . S
C828 C830 1.327 . S
C828 H853 0.950 . S
C829 C828 1.349 . S
C829 C845 1.349 . S
C830 C828 1.327 . S
C830 C849 1.429 . S
C830 H854 0.950 . S
C831 C848 1.574 . S
C831 C850 1.368 . S
C831 H855 0.949 . S
H832 C836 0.949 . S
C833 C834 1.349 . S
C833 C835 1.327 . S
C833 H856 0.950 . S
C834 C833 1.349 . S
C834 C846 1.349 . S
C835 C833 1.327 . S
C835 C851 1.429 . S
C835 H857 0.950 . S
C836 H832 0.949 . S
C836 C844 1.574 . S
C836 C852 1.368 . S
H837 C845 0.950 . S
H838 C843 0.950 . S
H839 C844 0.949 . S
H840 C846 0.950 . S
H841 C847 0.950 . S
H842 C848 0.949 . S
C843 H838 0.950 . S
C843 C845 1.327 . S
C843 C849 1.429 . S
C844 C836 1.574 . S
C844 H839 0.949 . S
C844 C850 1.368 . S
C845 C829 1.349 . S
C845 H837 0.950 . S
C845 C843 1.327 . S
C846 C834 1.349 . S
C846 H840 0.950 . S
C846 C847 1.327 . S
C847 H841 0.950 . S
C847 C846 1.327 . S
C847 C851 1.429 . S
C848 C831 1.574 . S
C848 H842 0.949 . S
C848 C852 1.368 . S
C849 C830 1.429 . S
C849 C843 1.429 . S
C849 C850 1.523 . S
C850 C831 1.368 . S
C850 C844 1.368 . S
C850 C849 1.523 . S
C851 C835 1.429 . S
C851 C847 1.429 . S
C851 C852 1.523 . S
C852 C836 1.368 . S
C852 C848 1.368 . S
C852 C851 1.523 . S
H853 C828 0.950 . S
H854 C830 0.950 . S
H855 C831 0.949 . S
H856 C833 0.950 . S
H857 C835 0.950 . S
C858 C859 1.349 . S
C858 C860 1.327 . S
C858 H883 0.950 . S
C859 C858 1.349 . S
C859 C875 1.349 . S
C860 C858 1.327 . S
C860 C879 1.429 . S
C860 H884 0.950 . S
C861 C878 1.574 . S
C861 C880 1.368 . S
C861 H885 0.949 . S
H862 C866 0.949 . S
C863 C864 1.349 . S
C863 C865 1.327 . S
C863 H886 0.950 . S
C864 C863 1.349 . S
C864 C876 1.349 . S
C865 C863 1.327 . S
C865 C881 1.429 . S
C865 H887 0.950 . S
C866 H862 0.949 . S
C866 C874 1.574 . S
C866 C882 1.368 . S
H867 C875 0.950 . S
H868 C873 0.950 . S
H869 C874 0.949 . S
H870 C876 0.950 . S
H871 C877 0.950 . S
H872 C878 0.949 . S
C873 H868 0.950 . S
C873 C875 1.327 . S
C873 C879 1.429 . S
C874 C866 1.574 . S
C874 H869 0.949 . S
C874 C880 1.368 . S
C875 C859 1.349 . S
C875 H867 0.950 . S
C875 C873 1.327 . S
C876 C864 1.349 . S
C876 H870 0.950 . S
C876 C877 1.327 . S
C877 H871 0.950 . S
C877 C876 1.327 . S
C877 C881 1.429 . S
C878 C861 1.574 . S
C878 H872 0.949 . S
C878 C882 1.368 . S
C879 C860 1.429 . S
C879 C873 1.429 . S
C879 C880 1.523 . S
C880 C861 1.368 . S
C880 C874 1.368 . S
C880 C879 1.523 . S
C881 C865 1.429 . S
C881 C877 1.429 . S
C881 C882 1.523 1_655 S
C882 C866 1.368 . S
C882 C878 1.368 . S
C882 C881 1.523 1_455 S
H883 C858 0.950 . S
H884 C860 0.950 . S
H885 C861 0.949 . S
H886 C863 0.950 . S
H887 C865 0.950 . S
C888 C889 1.349 . S
C888 C890 1.327 . S
C888 H913 0.950 . S
C889 C888 1.349 . S
C889 C905 1.349 1_655 S
C890 C888 1.327 . S
C890 C909 1.429 . S
C890 H914 0.950 . S
C891 C908 1.574 . S
C891 C910 1.368 1_455 S
C891 H915 0.949 . S
H892 C896 0.949 . S
C893 C894 1.349 1_455 S
C893 C895 1.327 . S
C893 H916 0.950 . S
C894 C893 1.349 1_655 S
C894 C906 1.349 . S
C895 C893 1.327 . S
C895 C911 1.429 1_455 S
C895 H917 0.950 . S
C896 H892 0.949 . S
C896 C904 1.574 . S
C896 C912 1.368 . S
H897 C905 0.950 . S
H898 C903 0.950 . S
H899 C904 0.949 . S
H900 C906 0.950 . S
H901 C907 0.950 . S
H902 C908 0.949 . S
C903 H898 0.950 . S
C903 C905 1.327 . S
C903 C909 1.429 1_455 S
C904 C896 1.574 . S
C904 H899 0.949 . S
C904 C910 1.368 . S
C905 C889 1.349 1_455 S
C905 H897 0.950 . S
C905 C903 1.327 . S
C906 C894 1.349 . S
C906 H900 0.950 . S
C906 C907 1.327 . S
C907 H901 0.950 . S
C907 C906 1.327 . S
C907 C911 1.429 . S
C908 C891 1.574 . S
C908 H902 0.949 . S
C908 C912 1.368 1_455 S
C909 C890 1.429 . S
C909 C903 1.429 1_655 S
C909 C910 1.523 . S
C910 C891 1.368 1_655 S
C910 C904 1.368 . S
C910 C909 1.523 . S
C911 C895 1.429 1_655 S
C911 C907 1.429 . S
C911 C912 1.523 . S
C912 C896 1.368 . S
C912 C908 1.368 1_655 S
C912 C911 1.523 . S
H913 C888 0.950 . S
H914 C890 0.950 . S
H915 C891 0.949 . S
H916 C893 0.950 . S
H917 C895 0.950 . S
C918 C919 1.349 . S
C918 C920 1.327 . S
C918 H943 0.950 . S
C919 C918 1.349 . S
C919 C935 1.349 1_565 S
C920 C918 1.327 . S
C920 C939 1.429 . S
C920 H944 0.950 . S
C921 C938 1.574 . S
C921 C940 1.368 1_545 S
C921 H945 0.949 . S
H922 C926 0.949 . S
C923 C924 1.349 1_545 S
C923 C925 1.327 . S
C923 H946 0.950 . S
C924 C923 1.349 1_565 S
C924 C936 1.349 . S
C925 C923 1.327 . S
C925 C941 1.429 1_545 S
C925 H947 0.950 . S
C926 H922 0.949 . S
C926 C934 1.574 . S
C926 C942 1.368 . S
H927 C935 0.950 . S
H928 C933 0.950 . S
H929 C934 0.949 . S
H930 C936 0.950 . S
H931 C937 0.950 . S
H932 C938 0.949 . S
C933 H928 0.950 . S
C933 C935 1.327 . S
C933 C939 1.429 1_545 S
C934 C926 1.574 . S
C934 H929 0.949 . S
C934 C940 1.368 . S
C935 C919 1.349 1_545 S
C935 H927 0.950 . S
C935 C933 1.327 . S
C936 C924 1.349 . S
C936 H930 0.950 . S
C936 C937 1.327 . S
C937 H931 0.950 . S
C937 C936 1.327 . S
C937 C941 1.429 . S
C938 C921 1.574 . S
C938 H932 0.949 . S
C938 C942 1.368 1_545 S
C939 C920 1.429 . S
C939 C933 1.429 1_565 S
C939 C940 1.523 1_655 S
C940 C921 1.368 1_565 S
C940 C934 1.368 . S
C940 C939 1.523 1_455 S
C941 C925 1.429 1_565 S
C941 C937 1.429 . S
C941 C942 1.523 . S
C942 C926 1.368 . S
C942 C938 1.368 1_565 S
C942 C941 1.523 . S
H943 C918 0.950 . S
H944 C920 0.950 . S
H945 C921 0.949 . S
H946 C923 0.950 . S
H947 C925 0.950 . S
C948 C949 1.349 . S
C948 C950 1.327 . S
C948 H973 0.950 . S
C949 C948 1.349 . S
C949 C965 1.349 . S
C950 C948 1.327 . S
C950 C969 1.429 . S
C950 H974 0.950 . S
C951 C968 1.574 . S
C951 C970 1.368 . S
C951 H975 0.949 . S
H952 C956 0.949 . S
C953 C954 1.349 . S
C953 C955 1.327 . S
C953 H976 0.950 . S
C954 C953 1.349 . S
C954 C966 1.349 . S
C955 C953 1.327 . S
C955 C971 1.429 . S
C955 H977 0.950 . S
C956 H952 0.949 . S
C956 C964 1.574 . S
C956 C972 1.368 . S
H957 C965 0.950 . S
H958 C963 0.950 . S
H959 C964 0.949 . S
H960 C966 0.950 . S
H961 C967 0.950 . S
H962 C968 0.949 . S
C963 H958 0.950 . S
C963 C965 1.327 . S
C963 C969 1.429 . S
C964 C956 1.574 . S
C964 H959 0.949 . S
C964 C970 1.368 . S
C965 C949 1.349 . S
C965 H957 0.950 . S
C965 C963 1.327 . S
C966 C954 1.349 . S
C966 H960 0.950 . S
C966 C967 1.327 . S
C967 H961 0.950 . S
C967 C966 1.327 . S
C967 C971 1.429 . S
C968 C951 1.574 . S
C968 H962 0.949 . S
C968 C972 1.368 . S
C969 C950 1.429 . S
C969 C963 1.429 . S
C969 C970 1.523 . S
C970 C951 1.368 . S
C970 C964 1.368 . S
C970 C969 1.523 . S
C971 C955 1.429 . S
C971 C967 1.429 . S
C971 C972 1.523 1_565 S
C972 C956 1.368 . S
C972 C968 1.368 . S
C972 C971 1.523 1_545 S
H973 C948 0.950 . S
H974 C950 0.950 . S
H975 C951 0.949 . S
H976 C953 0.950 . S
H977 C955 0.950 . S
C978 C979 1.349 . S
C978 C980 1.327 . S
C978 H1003 0.950 . S
C979 C978 1.349 . S
C979 C995 1.349 . S
C980 C978 1.327 . S
C980 C999 1.429 . S
C980 H1004 0.950 . S
C981 C998 1.574 . S
C981 C1000 1.368 . S
C981 H1005 0.949 . S
H982 C986 0.949 . S
C983 C984 1.349 . S
C983 C985 1.327 . S
C983 H1006 0.950 . S
C984 C983 1.349 . S
C984 C996 1.349 . S
C985 C983 1.327 . S
C985 C1001 1.429 . S
C985 H1007 0.950 . S
C986 H982 0.949 . S
C986 C994 1.574 . S
C986 C1002 1.368 . S
H987 C995 0.950 . S
H988 C993 0.950 . S
H989 C994 0.949 . S
H990 C996 0.950 . S
H991 C997 0.950 . S
H992 C998 0.949 . S
C993 H988 0.950 . S
C993 C995 1.327 . S
C993 C999 1.429 . S
C994 C986 1.574 . S
C994 H989 0.949 . S
C994 C1000 1.368 . S
C995 C979 1.349 . S
C995 H987 0.950 . S
C995 C993 1.327 . S
C996 C984 1.349 . S
C996 H990 0.950 . S
C996 C997 1.327 . S
C997 H991 0.950 . S
C997 C996 1.327 . S
C997 C1001 1.429 . S
C998 C981 1.574 . S
C998 H992 0.949 . S
C998 C1002 1.368 . S
C999 C980 1.429 . S
C999 C993 1.429 . S
C999 C1000 1.523 . S
C1000 C981 1.368 . S
C1000 C994 1.368 . S
C1000 C999 1.523 . S
C1001 C985 1.429 . S
C1001 C997 1.429 . S
C1001 C1002 1.523 . S
C1002 C986 1.368 . S
C1002 C998 1.368 . S
C1002 C1001 1.523 . S
H1003 C978 0.950 . S
H1004 C980 0.950 . S
H1005 C981 0.949 . S
H1006 C983 0.950 . S
H1007 C985 0.950 . S
C1008 C1009 1.349 1_655 S
C1008 C1010 1.327 . S
C1008 H1033 0.950 . S
C1009 C1008 1.349 1_455 S
C1009 C1025 1.349 . S
C1010 C1008 1.327 . S
C1010 C1029 1.429 1_655 S
C1010 H1034 0.950 . S
C1011 C1028 1.574 . S
C1011 C1030 1.368 . S
C1011 H1035 0.949 . S
H1012 C1016 0.949 . S
C1013 C1014 1.349 . S
C1013 C1015 1.327 . S
C1013 H1036 0.950 . S
C1014 C1013 1.349 . S
C1014 C1026 1.349 1_455 S
C1015 C1013 1.327 . S
C1015 C1031 1.429 . S
C1015 H1037 0.950 . S
C1016 H1012 0.949 . S
C1016 C1024 1.574 . S
C1016 C1032 1.368 1_655 S
H1017 C1025 0.950 . S
H1018 C1023 0.950 . S
H1019 C1024 0.949 . S
H1020 C1026 0.950 . S
H1021 C1027 0.950 . S
H1022 C1028 0.949 . S
C1023 H1018 0.950 . S
C1023 C1025 1.327 . S
C1023 C1029 1.429 . S
C1024 C1016 1.574 . S
C1024 H1019 0.949 . S
C1024 C1030 1.368 1_655 S
C1025 C1009 1.349 . S
C1025 H1017 0.950 . S
C1025 C1023 1.327 . S
C1026 C1014 1.349 1_655 S
C1026 H1020 0.950 . S
C1026 C1027 1.327 . S
C1027 H1021 0.950 . S
C1027 C1026 1.327 . S
C1027 C1031 1.429 1_655 S
C1028 C1011 1.574 . S
C1028 H1022 0.949 . S
C1028 C1032 1.368 . S
C1029 C1010 1.429 1_455 S
C1029 C1023 1.429 . S
C1029 C1030 1.523 . S
C1030 C1011 1.368 . S
C1030 C1024 1.368 1_455 S
C1030 C1029 1.523 . S
C1031 C1015 1.429 . S
C1031 C1027 1.429 1_455 S
C1031 C1032 1.523 1_545 S
C1032 C1016 1.368 1_455 S
C1032 C1028 1.368 . S
C1032 C1031 1.523 1_565 S
H1033 C1008 0.950 . S
H1034 C1010 0.950 . S
H1035 C1011 0.949 . S
H1036 C1013 0.950 . S
H1037 C1015 0.950 . S
C1038 C1039 1.349 1_565 S
C1038 C1040 1.327 . S
C1038 H1063 0.950 . S
C1039 C1038 1.349 1_545 S
C1039 C1055 1.349 . S
C1040 C1038 1.327 . S
C1040 C1059 1.429 1_565 S
C1040 H1064 0.950 . S
C1041 C1058 1.574 . S
C1041 C1060 1.368 . S
C1041 H1065 0.949 . S
H1042 C1046 0.949 . S
C1043 C1044 1.349 . S
C1043 C1045 1.327 . S
C1043 H1066 0.950 . S
C1044 C1043 1.349 . S
C1044 C1056 1.349 1_545 S
C1045 C1043 1.327 . S
C1045 C1061 1.429 . S
C1045 H1067 0.950 . S
C1046 H1042 0.949 . S
C1046 C1054 1.574 . S
C1046 C1062 1.368 1_565 S
H1047 C1055 0.950 . S
H1048 C1053 0.950 . S
H1049 C1054 0.949 . S
H1050 C1056 0.950 . S
H1051 C1057 0.950 . S
H1052 C1058 0.949 . S
C1053 H1048 0.950 . S
C1053 C1055 1.327 . S
C1053 C1059 1.429 . S
C1054 C1046 1.574 . S
C1054 H1049 0.949 . S
C1054 C1060 1.368 1_565 S
C1055 C1039 1.349 . S
C1055 H1047 0.950 . S
C1055 C1053 1.327 . S
C1056 C1044 1.349 1_565 S
C1056 H1050 0.950 . S
C1056 C1057 1.327 . S
C1057 H1051 0.950 . S
C1057 C1056 1.327 . S
C1057 C1061 1.429 1_565 S
C1058 C1041 1.574 . S
C1058 H1052 0.949 . S
C1058 C1062 1.368 . S
C1059 C1040 1.429 1_545 S
C1059 C1053 1.429 . S
C1059 C1060 1.523 . S
C1060 C1041 1.368 . S
C1060 C1054 1.368 1_545 S
C1060 C1059 1.523 . S
C1061 C1045 1.429 . S
C1061 C1057 1.429 1_545 S
C1061 C1062 1.523 . S
C1062 C1046 1.368 1_545 S
C1062 C1058 1.368 . S
C1062 C1061 1.523 . S
H1063 C1038 0.950 . S
H1064 C1040 0.950 . S
H1065 C1041 0.949 . S
H1066 C1043 0.950 . S
H1067 C1045 0.950 . S
C1068 C1069 1.349 . S
C1068 C1070 1.327 . S
C1068 H1093 0.950 . S
C1069 C1068 1.349 . S
C1069 C1085 1.349 . S
C1070 C1068 1.327 . S
C1070 C1089 1.429 . S
C1070 H1094 0.950 . S
C1071 C1088 1.574 . S
C1071 C1090 1.368 . S
C1071 H1095 0.949 . S
H1072 C1076 0.949 . S
C1073 C1074 1.349 . S
C1073 C1075 1.327 . S
C1073 H1096 0.950 . S
C1074 C1073 1.349 . S
C1074 C1086 1.349 . S
C1075 C1073 1.327 . S
C1075 C1091 1.429 . S
C1075 H1097 0.950 . S
C1076 H1072 0.949 . S
C1076 C1084 1.574 . S
C1076 C1092 1.368 . S
H1077 C1085 0.950 . S
H1078 C1083 0.950 . S
H1079 C1084 0.949 . S
H1080 C1086 0.950 . S
H1081 C1087 0.950 . S
H1082 C1088 0.949 . S
C1083 H1078 0.950 . S
C1083 C1085 1.327 . S
C1083 C1089 1.429 . S
C1084 C1076 1.574 . S
C1084 H1079 0.949 . S
C1084 C1090 1.368 . S
C1085 C1069 1.349 . S
C1085 H1077 0.950 . S
C1085 C1083 1.327 . S
C1086 C1074 1.349 . S
C1086 H1080 0.950 . S
C1086 C1087 1.327 . S
C1087 H1081 0.950 . S
C1087 C1086 1.327 . S
C1087 C1091 1.429 . S
C1088 C1071 1.574 . S
C1088 H1082 0.949 . S
C1088 C1092 1.368 . S
C1089 C1070 1.429 . S
C1089 C1083 1.429 . S
C1089 C1090 1.523 . S
C1090 C1071 1.368 . S
C1090 C1084 1.368 . S
C1090 C1089 1.523 . S
C1091 C1075 1.429 . S
C1091 C1087 1.429 . S
C1091 C1092 1.523 . S
C1092 C1076 1.368 . S
C1092 C1088 1.368 . S
C1092 C1091 1.523 . S
H1093 C1068 0.950 . S
H1094 C1070 0.950 . S
H1095 C1071 0.949 . S
H1096 C1073 0.950 . S
H1097 C1075 0.950 . S
C1098 C1099 1.349 . S
C1098 C1100 1.327 . S
C1098 H1123 0.950 . S
C1099 C1098 1.349 . S
C1099 C1115 1.349 . S
C1100 C1098 1.327 . S
C1100 C1119 1.429 . S
C1100 H1124 0.950 . S
C1101 C1118 1.574 . S
C1101 C1120 1.368 . S
C1101 H1125 0.949 . S
H1102 C1106 0.949 . S
C1103 C1104 1.349 . S
C1103 C1105 1.327 . S
C1103 H1126 0.950 . S
C1104 C1103 1.349 . S
C1104 C1116 1.349 . S
C1105 C1103 1.327 . S
C1105 C1121 1.429 . S
C1105 H1127 0.950 . S
C1106 H1102 0.949 . S
C1106 C1114 1.574 . S
C1106 C1122 1.368 . S
H1107 C1115 0.950 . S
H1108 C1113 0.950 . S
H1109 C1114 0.949 . S
H1110 C1116 0.950 . S
H1111 C1117 0.950 . S
H1112 C1118 0.949 . S
C1113 H1108 0.950 . S
C1113 C1115 1.327 . S
C1113 C1119 1.429 . S
C1114 C1106 1.574 . S
C1114 H1109 0.949 . S
C1114 C1120 1.368 . S
C1115 C1099 1.349 . S
C1115 H1107 0.950 . S
C1115 C1113 1.327 . S
C1116 C1104 1.349 . S
C1116 H1110 0.950 . S
C1116 C1117 1.327 . S
C1117 H1111 0.950 . S
C1117 C1116 1.327 . S
C1117 C1121 1.429 . S
C1118 C1101 1.574 . S
C1118 H1112 0.949 . S
C1118 C1122 1.368 . S
C1119 C1100 1.429 . S
C1119 C1113 1.429 . S
C1119 C1120 1.523 . S
C1120 C1101 1.368 . S
C1120 C1114 1.368 . S
C1120 C1119 1.523 . S
C1121 C1105 1.429 . S
C1121 C1117 1.429 . S
C1121 C1122 1.523 1_455 S
C1122 C1106 1.368 . S
C1122 C1118 1.368 . S
C1122 C1121 1.523 1_655 S
H1123 C1098 0.950 . S
H1124 C1100 0.950 . S
H1125 C1101 0.949 . S
H1126 C1103 0.950 . S
H1127 C1105 0.950 . S
C1128 C1129 1.349 1_655 S
C1128 C1130 1.327 . S
C1128 H1153 0.950 . S
C1129 C1128 1.349 1_455 S
C1129 C1145 1.349 . S
C1130 C1128 1.327 . S
C1130 C1149 1.429 1_655 S
C1130 H1154 0.950 . S
C1131 C1148 1.574 . S
C1131 C1150 1.368 . S
C1131 H1155 0.949 . S
H1132 C1136 0.949 . S
C1133 C1134 1.349 . S
C1133 C1135 1.327 . S
C1133 H1156 0.950 . S
C1134 C1133 1.349 . S
C1134 C1146 1.349 1_455 S
C1135 C1133 1.327 . S
C1135 C1151 1.429 . S
C1135 H1157 0.950 . S
C1136 H1132 0.949 . S
C1136 C1144 1.574 . S
C1136 C1152 1.368 1_655 S
H1137 C1145 0.950 . S
H1138 C1143 0.950 . S
H1139 C1144 0.949 . S
H1140 C1146 0.950 . S
H1141 C1147 0.950 . S
H1142 C1148 0.949 . S
C1143 H1138 0.950 . S
C1143 C1145 1.327 . S
C1143 C1149 1.429 . S
C1144 C1136 1.574 . S
C1144 H1139 0.949 . S
C1144 C1150 1.368 1_655 S
C1145 C1129 1.349 . S
C1145 H1137 0.950 . S
C1145 C1143 1.327 . S
C1146 C1134 1.349 1_655 S
C1146 H1140 0.950 . S
C1146 C1147 1.327 . S
C1147 H1141 0.950 . S
C1147 C1146 1.327 . S
C1147 C1151 1.429 1_655 S
C1148 C1131 1.574 . S
C1148 H1142 0.949 . S
C1148 C1152 1.368 . S
C1149 C1130 1.429 1_455 S
C1149 C1143 1.429 . S
C1149 C1150 1.523 . S
C1150 C1131 1.368 . S
C1150 C1144 1.368 1_455 S
C1150 C1149 1.523 . S
C1151 C1135 1.429 . S
C1151 C1147 1.429 1_455 S
C1151 C1152 1.523 . S
C1152 C1136 1.368 1_455 S
C1152 C1148 1.368 . S
C1152 C1151 1.523 . S
H1153 C1128 0.950 . S
H1154 C1130 0.950 . S
H1155 C1131 0.949 . S
H1156 C1133 0.950 . S
H1157 C1135 0.950 . S
C1158 C1159 1.349 . S
C1158 C1160 1.327 . S
C1158 H1183 0.950 . S
C1159 C1158 1.349 . S
C1159 C1175 1.349 1_545 S
C1160 C1158 1.327 . S
C1160 C1179 1.429 . S
C1160 H1184 0.950 . S
C1161 C1178 1.574 . S
C1161 C1180 1.368 1_565 S
C1161 H1185 0.949 . S
H1162 C1166 0.949 . S
C1163 C1164 1.349 1_565 S
C1163 C1165 1.327 . S
C1163 H1186 0.950 . S
C1164 C1163 1.349 1_545 S
C1164 C1176 1.349 . S
C1165 C1163 1.327 . S
C1165 C1181 1.429 1_565 S
C1165 H1187 0.950 . S
C1166 H1162 0.949 . S
C1166 C1174 1.574 . S
C1166 C1182 1.368 . S
H1167 C1175 0.950 . S
H1168 C1173 0.950 . S
H1169 C1174 0.949 . S
H1170 C1176 0.950 . S
H1171 C1177 0.950 . S
H1172 C1178 0.949 . S
C1173 H1168 0.950 . S
C1173 C1175 1.327 . S
C1173 C1179 1.429 1_565 S
C1174 C1166 1.574 . S
C1174 H1169 0.949 . S
C1174 C1180 1.368 . S
C1175 C1159 1.349 1_565 S
C1175 H1167 0.950 . S
C1175 C1173 1.327 . S
C1176 C1164 1.349 . S
C1176 H1170 0.950 . S
C1176 C1177 1.327 . S
C1177 H1171 0.950 . S
C1177 C1176 1.327 . S
C1177 C1181 1.429 . S
C1178 C1161 1.574 . S
C1178 H1172 0.949 . S
C1178 C1182 1.368 1_565 S
C1179 C1160 1.429 . S
C1179 C1173 1.429 1_545 S
C1179 C1180 1.523 . S
C1180 C1161 1.368 1_545 S
C1180 C1174 1.368 . S
C1180 C1179 1.523 . S
C1181 C1165 1.429 1_545 S
C1181 C1177 1.429 . S
C1181 C1182 1.523 1_455 S
C1182 C1166 1.368 . S
C1182 C1178 1.368 1_545 S
C1182 C1181 1.523 1_655 S
H1183 C1158 0.950 . S
H1184 C1160 0.950 . S
H1185 C1161 0.949 . S
H1186 C1163 0.950 . S
H1187 C1165 0.950 . S
C1188 C1189 1.349 . S
C1188 C1190 1.327 . S
C1188 H1213 0.950 . S
C1189 C1188 1.349 . S
C1189 C1205 1.349 . S
C1190 C1188 1.327 . S
C1190 C1209 1.429 . S
C1190 H1214 0.950 . S
C1191 C1208 1.574 . S
C1191 C1210 1.368 . S
C1191 H1215 0.949 . S
H1192 C1196 0.949 . S
C1193 C1194 1.349 . S
C1193 C1195 1.327 . S
C1193 H1216 0.950 . S
C1194 C1193 1.349 . S
C1194 C1206 1.349 . S
C1195 C1193 1.327 . S
C1195 C1211 1.429 . S
C1195 H1217 0.950 . S
C1196 H1192 0.949 . S
C1196 C1204 1.574 . S
C1196 C1212 1.368 . S
H1197 C1205 0.950 . S
H1198 C1203 0.950 . S
H1199 C1204 0.949 . S
H1200 C1206 0.950 . S
H1201 C1207 0.950 . S
H1202 C1208 0.949 . S
C1203 H1198 0.950 . S
C1203 C1205 1.327 . S
C1203 C1209 1.429 . S
C1204 C1196 1.574 . S
C1204 H1199 0.949 . S
C1204 C1210 1.368 . S
C1205 C1189 1.349 . S
C1205 H1197 0.950 . S
C1205 C1203 1.327 . S
C1206 C1194 1.349 . S
C1206 H1200 0.950 . S
C1206 C1207 1.327 . S
C1207 H1201 0.950 . S
C1207 C1206 1.327 . S
C1207 C1211 1.429 . S
C1208 C1191 1.574 . S
C1208 H1202 0.949 . S
C1208 C1212 1.368 . S
C1209 C1190 1.429 . S
C1209 C1203 1.429 . S
C1209 C1210 1.523 . S
C1210 C1191 1.368 . S
C1210 C1204 1.368 . S
C1210 C1209 1.523 . S
C1211 C1195 1.429 . S
C1211 C1207 1.429 . S
C1211 C1212 1.523 1_545 S
C1212 C1196 1.368 . S
C1212 C1208 1.368 . S
C1212 C1211 1.523 1_565 S
H1213 C1188 0.950 . S
H1214 C1190 0.950 . S
H1215 C1191 0.949 . S
H1216 C1193 0.950 . S
H1217 C1195 0.950 . S
C1218 C1219 1.349 . S
C1218 C1220 1.327 . S
C1218 H1243 0.950 . S
C1219 C1218 1.349 . S
C1219 C1235 1.349 . S
C1220 C1218 1.327 . S
C1220 C1239 1.429 . S
C1220 H1244 0.950 . S
C1221 C1238 1.574 . S
C1221 C1240 1.368 . S
C1221 H1245 0.949 . S
H1222 C1226 0.949 . S
C1223 C1224 1.349 . S
C1223 C1225 1.327 . S
C1223 H1246 0.950 . S
C1224 C1223 1.349 . S
C1224 C1236 1.349 . S
C1225 C1223 1.327 . S
C1225 C1241 1.429 . S
C1225 H1247 0.950 . S
C1226 H1222 0.949 . S
C1226 C1234 1.574 . S
C1226 C1242 1.368 . S
H1227 C1235 0.950 . S
H1228 C1233 0.950 . S
H1229 C1234 0.949 . S
H1230 C1236 0.950 . S
H1231 C1237 0.950 . S
H1232 C1238 0.949 . S
C1233 H1228 0.950 . S
C1233 C1235 1.327 . S
C1233 C1239 1.429 . S
C1234 C1226 1.574 . S
C1234 H1229 0.949 . S
C1234 C1240 1.368 . S
C1235 C1219 1.349 . S
C1235 H1227 0.950 . S
C1235 C1233 1.327 . S
C1236 C1224 1.349 . S
C1236 H1230 0.950 . S
C1236 C1237 1.327 . S
C1237 H1231 0.950 . S
C1237 C1236 1.327 . S
C1237 C1241 1.429 . S
C1238 C1221 1.574 . S
C1238 H1232 0.949 . S
C1238 C1242 1.368 . S
C1239 C1220 1.429 . S
C1239 C1233 1.429 . S
C1239 C1240 1.523 . S
C1240 C1221 1.368 . S
C1240 C1234 1.368 . S
C1240 C1239 1.523 . S
C1241 C1225 1.429 . S
C1241 C1237 1.429 . S
C1241 C1242 1.523 . S
C1242 C1226 1.368 . S
C1242 C1238 1.368 . S
C1242 C1241 1.523 . S
H1243 C1218 0.950 . S
H1244 C1220 0.950 . S
H1245 C1221 0.949 . S
H1246 C1223 0.950 . S
H1247 C1225 0.950 . S
C1248 C1249 1.349 . S
C1248 C1250 1.327 . S
C1248 H1273 0.950 . S
C1249 C1248 1.349 . S
C1249 C1265 1.349 . S
C1250 C1248 1.327 . S
C1250 C1269 1.429 . S
C1250 H1274 0.950 . S
C1251 C1268 1.574 . S
C1251 C1270 1.368 . S
C1251 H1275 0.949 . S
H1252 C1256 0.949 . S
C1253 C1254 1.349 . S
C1253 C1255 1.327 . S
C1253 H1276 0.950 . S
C1254 C1253 1.349 . S
C1254 C1266 1.349 . S
C1255 C1253 1.327 . S
C1255 C1271 1.429 . S
C1255 H1277 0.950 . S
C1256 H1252 0.949 . S
C1256 C1264 1.574 . S
C1256 C1272 1.368 . S
H1257 C1265 0.950 . S
H1258 C1263 0.950 . S
H1259 C1264 0.949 . S
H1260 C1266 0.950 . S
H1261 C1267 0.950 . S
H1262 C1268 0.949 . S
C1263 H1258 0.950 . S
C1263 C1265 1.327 . S
C1263 C1269 1.429 . S
C1264 C1256 1.574 . S
C1264 H1259 0.949 . S
C1264 C1270 1.368 . S
C1265 C1249 1.349 . S
C1265 H1257 0.950 . S
C1265 C1263 1.327 . S
C1266 C1254 1.349 . S
C1266 H1260 0.950 . S
C1266 C1267 1.327 . S
C1267 H1261 0.950 . S
C1267 C1266 1.327 . S
C1267 C1271 1.429 . S
C1268 C1251 1.574 . S
C1268 H1262 0.949 . S
C1268 C1272 1.368 . S
C1269 C1250 1.429 . S
C1269 C1263 1.429 . S
C1269 C1270 1.523 . S
C1270 C1251 1.368 . S
C1270 C1264 1.368 . S
C1270 C1269 1.523 . S
C1271 C1255 1.429 . S
C1271 C1267 1.429 . S
C1271 C1272 1.523 . S
C1272 C1256 1.368 . S
C1272 C1268 1.368 . S
C1272 C1271 1.523 . S
H1273 C1248 0.950 . S
H1274 C1250 0.950 . S
H1275 C1251 0.949 . S
H1276 C1253 0.950 . S
H1277 C1255 0.950 . S
C1278 C1279 1.349 . S
C1278 C1280 1.327 . S
C1278 H1303 0.950 . S
C1279 C1278 1.349 . S
C1279 C1295 1.349 . S
C1280 C1278 1.327 . S
C1280 C1299 1.429 . S
C1280 H1304 0.950 . S
C1281 C1298 1.574 . S
C1281 C1300 1.368 . S
C1281 H1305 0.949 . S
H1282 C1286 0.949 . S
C1283 C1284 1.349 . S
C1283 C1285 1.327 . S
C1283 H1306 0.950 . S
C1284 C1283 1.349 . S
C1284 C1296 1.349 . S
C1285 C1283 1.327 . S
C1285 C1301 1.429 . S
C1285 H1307 0.950 . S
C1286 H1282 0.949 . S
C1286 C1294 1.574 . S
C1286 C1302 1.368 . S
H1287 C1295 0.952 . S
H1288 C1293 0.950 . S
H1289 C1294 0.949 . S
H1290 C1296 0.950 . S
H1291 C1297 0.950 . S
H1292 C1298 0.949 . S
C1293 H1288 0.950 . S
C1293 C1295 1.327 . S
C1293 C1299 1.429 . S
C1294 C1286 1.574 . S
C1294 H1289 0.949 . S
C1294 C1300 1.368 . S
C1295 C1279 1.349 . S
C1295 H1287 0.952 . S
C1295 C1293 1.327 . S
C1296 C1284 1.349 . S
C1296 H1290 0.950 . S
C1296 C1297 1.327 . S
C1297 H1291 0.950 . S
C1297 C1296 1.327 . S
C1297 C1301 1.429 . S
C1298 C1281 1.574 . S
C1298 H1292 0.949 . S
C1298 C1302 1.368 . S
C1299 C1280 1.429 . S
C1299 C1293 1.429 . S
C1299 C1300 1.523 . S
C1300 C1281 1.368 . S
C1300 C1294 1.368 . S
C1300 C1299 1.523 . S
C1301 C1285 1.429 . S
C1301 C1297 1.429 . S
C1301 C1302 1.523 . S
C1302 C1286 1.368 . S
C1302 C1298 1.368 . S
C1302 C1301 1.523 . S
H1303 C1278 0.950 . S
H1304 C1280 0.950 . S
H1305 C1281 0.949 . S
H1306 C1283 0.950 . S
H1307 C1285 0.950 . S
C1308 C1309 1.349 . S
C1308 C1310 1.327 . S
C1308 H1333 0.950 . S
C1309 C1308 1.349 . S
C1309 C1325 1.349 . S
C1310 C1308 1.327 . S
C1310 C1329 1.429 . S
C1310 H1334 0.950 . S
C1311 C1328 1.574 . S
C1311 C1330 1.368 . S
C1311 H1335 0.949 . S
H1312 C1316 0.949 . S
C1313 C1314 1.349 . S
C1313 C1315 1.327 . S
C1313 H1336 0.950 . S
C1314 C1313 1.349 . S
C1314 C1326 1.349 . S
C1315 C1313 1.327 . S
C1315 C1331 1.429 . S
C1315 H1337 0.950 . S
C1316 H1312 0.949 . S
C1316 C1324 1.574 . S
C1316 C1332 1.368 . S
H1317 C1325 0.950 . S
H1318 C1323 0.950 . S
H1319 C1324 0.949 . S
H1320 C1326 0.950 . S
H1321 C1327 0.950 . S
H1322 C1328 0.949 . S
C1323 H1318 0.950 . S
C1323 C1325 1.327 . S
C1323 C1329 1.429 . S
C1324 C1316 1.574 . S
C1324 H1319 0.949 . S
C1324 C1330 1.368 . S
C1325 C1309 1.349 . S
C1325 H1317 0.950 . S
C1325 C1323 1.327 . S
C1326 C1314 1.349 . S
C1326 H1320 0.950 . S
C1326 C1327 1.327 . S
C1327 H1321 0.950 . S
C1327 C1326 1.327 . S
C1327 C1331 1.429 . S
C1328 C1311 1.574 . S
C1328 H1322 0.949 . S
C1328 C1332 1.368 . S
C1329 C1310 1.429 . S
C1329 C1323 1.429 . S
C1329 C1330 1.523 . S
C1330 C1311 1.368 . S
C1330 C1324 1.368 . S
C1330 C1329 1.523 . S
C1331 C1315 1.429 . S
C1331 C1327 1.429 . S
C1331 C1332 1.523 . S
C1332 C1316 1.368 . S
C1332 C1328 1.368 . S
C1332 C1331 1.523 . S
H1333 C1308 0.950 . S
H1334 C1310 0.950 . S
H1335 C1311 0.949 . S
H1336 C1313 0.950 . S
H1337 C1315 0.950 . S
C1338 C1339 1.349 . S
C1338 C1340 1.327 . S
C1338 H1363 0.950 . S
C1339 C1338 1.349 . S
C1339 C1355 1.349 . S
C1340 C1338 1.327 . S
C1340 C1359 1.429 . S
C1340 H1364 0.950 . S
C1341 C1358 1.574 . S
C1341 C1360 1.368 . S
C1341 H1365 0.949 . S
H1342 C1346 0.949 . S
C1343 C1344 1.349 . S
C1343 C1345 1.327 . S
C1343 H1366 0.950 . S
C1344 C1343 1.349 . S
C1344 C1356 1.349 . S
C1345 C1343 1.327 . S
C1345 C1361 1.429 . S
C1345 H1367 0.950 . S
C1346 H1342 0.949 . S
C1346 C1354 1.574 . S
C1346 C1362 1.368 . S
H1347 C1355 0.950 . S
H1348 C1353 0.950 . S
H1349 C1354 0.949 . S
H1350 C1356 0.950 . S
H1351 C1357 0.950 . S
H1352 C1358 0.949 . S
C1353 H1348 0.950 . S
C1353 C1355 1.327 . S
C1353 C1359 1.429 . S
C1354 C1346 1.574 . S
C1354 H1349 0.949 . S
C1354 C1360 1.368 . S
C1355 C1339 1.349 . S
C1355 H1347 0.950 . S
C1355 C1353 1.327 . S
C1356 C1344 1.349 . S
C1356 H1350 0.950 . S
C1356 C1357 1.327 . S
C1357 H1351 0.950 . S
C1357 C1356 1.327 . S
C1357 C1361 1.429 . S
C1358 C1341 1.574 . S
C1358 H1352 0.949 . S
C1358 C1362 1.368 . S
C1359 C1340 1.429 . S
C1359 C1353 1.429 . S
C1359 C1360 1.523 . S
C1360 C1341 1.368 . S
C1360 C1354 1.368 . S
C1360 C1359 1.523 . S
C1361 C1345 1.429 . S
C1361 C1357 1.429 . S
C1361 C1362 1.523 . S
C1362 C1346 1.368 . S
C1362 C1358 1.368 . S
C1362 C1361 1.523 . S
H1363 C1338 0.950 . S
H1364 C1340 0.950 . S
H1365 C1341 0.949 . S
H1366 C1343 0.950 . S
H1367 C1345 0.950 . S
C1368 C1369 1.349 . S
C1368 C1370 1.327 . S
C1368 H1393 0.958 . S
C1369 C1368 1.349 . S
C1369 C1385 1.349 . S
C1370 C1368 1.327 . S
C1370 C1389 1.429 . S
C1370 H1394 0.950 . S
C1371 C1388 1.574 . S
C1371 C1390 1.368 . S
C1371 H1395 0.949 . S
H1372 C1376 0.949 . S
C1373 C1374 1.349 . S
C1373 C1375 1.327 . S
C1373 H1396 0.950 . S
C1374 C1373 1.349 . S
C1374 C1386 1.349 . S
C1375 C1373 1.327 . S
C1375 C1391 1.429 . S
C1375 H1397 0.950 . S
C1376 H1372 0.949 . S
C1376 C1384 1.574 . S
C1376 C1392 1.368 . S
H1377 C1385 0.950 . S
H1378 C1383 0.950 . S
H1379 C1384 0.949 . S
H1380 C1386 0.950 . S
H1381 C1387 0.950 . S
H1382 C1388 0.949 . S
C1383 H1378 0.950 . S
C1383 C1385 1.327 . S
C1383 C1389 1.429 . S
C1384 C1376 1.574 . S
C1384 H1379 0.949 . S
C1384 C1390 1.368 . S
C1385 C1369 1.349 . S
C1385 H1377 0.950 . S
C1385 C1383 1.327 . S
C1386 C1374 1.349 . S
C1386 H1380 0.950 . S
C1386 C1387 1.327 . S
C1387 H1381 0.950 . S
C1387 C1386 1.327 . S
C1387 C1391 1.429 . S
C1388 C1371 1.574 . S
C1388 H1382 0.949 . S
C1388 C1392 1.368 . S
C1389 C1370 1.429 . S
C1389 C1383 1.429 . S
C1389 C1390 1.523 . S
C1390 C1371 1.368 . S
C1390 C1384 1.368 . S
C1390 C1389 1.523 . S
C1391 C1375 1.429 . S
C1391 C1387 1.429 . S
C1391 C1392 1.523 . S
C1392 C1376 1.368 . S
C1392 C1388 1.368 . S
C1392 C1391 1.523 . S
H1393 C1368 0.958 . S
H1394 C1370 0.950 . S
H1395 C1371 0.949 . S
H1396 C1373 0.950 . S
H1397 C1375 0.950 . S
C1398 C1399 1.349 . S
C1398 C1400 1.327 . S
C1398 H1423 0.950 . S
C1399 C1398 1.349 . S
C1399 C1415 1.349 . S
C1400 C1398 1.327 . S
C1400 C1419 1.429 . S
C1400 H1424 0.950 . S
C1401 C1418 1.574 . S
C1401 C1420 1.368 . S
C1401 H1425 0.949 . S
H1402 C1406 0.949 . S
C1403 C1404 1.349 . S
C1403 C1405 1.327 . S
C1403 H1426 0.950 . S
C1404 C1403 1.349 . S
C1404 C1416 1.349 . S
C1405 C1403 1.327 . S
C1405 C1421 1.429 . S
C1405 H1427 0.950 . S
C1406 H1402 0.949 . S
C1406 C1414 1.574 . S
C1406 C1422 1.368 . S
H1407 C1415 0.950 . S
H1408 C1413 0.950 . S
H1409 C1414 0.949 . S
H1410 C1416 0.950 . S
H1411 C1417 0.950 . S
H1412 C1418 0.949 . S
C1413 H1408 0.950 . S
C1413 C1415 1.327 . S
C1413 C1419 1.429 . S
C1414 C1406 1.574 . S
C1414 H1409 0.949 . S
C1414 C1420 1.368 . S
C1415 C1399 1.349 . S
C1415 H1407 0.950 . S
C1415 C1413 1.327 . S
C1416 C1404 1.349 . S
C1416 H1410 0.950 . S
C1416 C1417 1.327 . S
C1417 H1411 0.950 . S
C1417 C1416 1.327 . S
C1417 C1421 1.429 . S
C1418 C1401 1.574 . S
C1418 H1412 0.949 . S
C1418 C1422 1.368 . S
C1419 C1400 1.429 . S
C1419 C1413 1.429 . S
C1419 C1420 1.523 . S
C1420 C1401 1.368 . S
C1420 C1414 1.368 . S
C1420 C1419 1.523 . S
C1421 C1405 1.429 . S
C1421 C1417 1.429 . S
C1421 C1422 1.523 . S
C1422 C1406 1.368 . S
C1422 C1418 1.368 . S
C1422 C1421 1.523 . S
H1423 C1398 0.950 . S
H1424 C1400 0.950 . S
H1425 C1401 0.949 . S
H1426 C1403 0.950 . S
H1427 C1405 0.950 . S
C1428 C1429 1.349 . S
C1428 C1430 1.327 . S
C1428 H1453 0.950 . S
C1429 C1428 1.349 . S
C1429 C1445 1.349 . S
C1430 C1428 1.327 . S
C1430 C1449 1.429 . S
C1430 H1454 0.950 . S
C1431 C1448 1.574 . S
C1431 C1450 1.368 . S
C1431 H1455 0.949 . S
H1432 C1436 0.949 . S
C1433 C1434 1.349 . S
C1433 C1435 1.327 . S
C1433 H1456 0.950 . S
C1434 C1433 1.349 . S
C1434 C1446 1.349 . S
C1435 C1433 1.327 . S
C1435 C1451 1.429 . S
C1435 H1457 0.950 . S
C1436 H1432 0.949 . S
C1436 C1444 1.574 . S
C1436 C1452 1.368 . S
H1437 C1445 0.950 . S
H1438 C1443 0.950 . S
H1439 C1444 0.949 . S
H1440 C1446 0.950 . S
H1441 C1447 0.950 . S
H1442 C1448 0.949 . S
C1443 H1438 0.950 . S
C1443 C1445 1.327 . S
C1443 C1449 1.429 . S
C1444 C1436 1.574 . S
C1444 H1439 0.949 . S
C1444 C1450 1.368 . S
C1445 C1429 1.349 . S
C1445 H1437 0.950 . S
C1445 C1443 1.327 . S
C1446 C1434 1.349 . S
C1446 H1440 0.950 . S
C1446 C1447 1.327 . S
C1447 H1441 0.950 . S
C1447 C1446 1.327 . S
C1447 C1451 1.429 . S
C1448 C1431 1.574 . S
C1448 H1442 0.949 . S
C1448 C1452 1.368 . S
C1449 C1430 1.429 . S
C1449 C1443 1.429 . S
C1449 C1450 1.523 . S
C1450 C1431 1.368 . S
C1450 C1444 1.368 . S
C1450 C1449 1.523 . S
C1451 C1435 1.429 . S
C1451 C1447 1.429 . S
C1451 C1452 1.523 . S
C1452 C1436 1.368 . S
C1452 C1448 1.368 . S
C1452 C1451 1.523 . S
H1453 C1428 0.950 . S
H1454 C1430 0.950 . S
H1455 C1431 0.949 . S
H1456 C1433 0.950 . S
H1457 C1435 0.950 . S
C1458 C1459 1.349 . S
C1458 C1460 1.327 . S
C1458 H1483 0.950 . S
C1459 C1458 1.349 . S
C1459 C1475 1.349 . S
C1460 C1458 1.327 . S
C1460 C1479 1.429 . S
C1460 H1484 0.950 . S
C1461 C1478 1.574 . S
C1461 C1480 1.368 . S
C1461 H1485 0.949 . S
H1462 C1466 0.949 . S
C1463 C1464 1.349 . S
C1463 C1465 1.327 . S
C1463 H1486 0.950 . S
C1464 C1463 1.349 . S
C1464 C1476 1.349 . S
C1465 C1463 1.327 . S
C1465 C1481 1.429 . S
C1465 H1487 0.950 . S
C1466 H1462 0.949 . S
C1466 C1474 1.574 . S
C1466 C1482 1.368 . S
H1467 C1475 0.950 . S
H1468 C1473 0.950 . S
H1469 C1474 0.949 . S
H1470 C1476 0.950 . S
H1471 C1477 0.950 . S
H1472 C1478 0.949 . S
C1473 H1468 0.950 . S
C1473 C1475 1.327 . S
C1473 C1479 1.429 . S
C1474 C1466 1.574 . S
C1474 H1469 0.949 . S
C1474 C1480 1.368 . S
C1475 C1459 1.349 . S
C1475 H1467 0.950 . S
C1475 C1473 1.327 . S
C1476 C1464 1.349 . S
C1476 H1470 0.950 . S
C1476 C1477 1.327 . S
C1477 H1471 0.950 . S
C1477 C1476 1.327 . S
C1477 C1481 1.429 . S
C1478 C1461 1.574 . S
C1478 H1472 0.949 . S
C1478 C1482 1.368 . S
C1479 C1460 1.429 . S
C1479 C1473 1.429 . S
C1479 C1480 1.523 . S
C1480 C1461 1.368 . S
C1480 C1474 1.368 . S
C1480 C1479 1.523 . S
C1481 C1465 1.429 . S
C1481 C1477 1.429 . S
C1481 C1482 1.523 . S
C1482 C1466 1.368 . S
C1482 C1478 1.368 . S
C1482 C1481 1.523 . S
H1483 C1458 0.950 . S
H1484 C1460 0.950 . S
H1485 C1461 0.949 . S
H1486 C1463 0.950 . S
H1487 C1465 0.950 . S
C1488 C1489 1.349 . S
C1488 C1490 1.327 . S
C1488 H1513 0.950 . S
C1489 C1488 1.349 . S
C1489 C1505 1.349 . S
C1490 C1488 1.327 . S
C1490 C1509 1.429 . S
C1490 H1514 0.950 . S
C1491 C1508 1.574 . S
C1491 C1510 1.368 . S
C1491 H1515 0.949 . S
H1492 C1496 0.949 . S
C1493 C1494 1.349 . S
C1493 C1495 1.327 . S
C1493 H1516 0.950 . S
C1494 C1493 1.349 . S
C1494 C1506 1.349 . S
C1495 C1493 1.327 . S
C1495 C1511 1.429 . S
C1495 H1517 0.950 . S
C1496 H1492 0.949 . S
C1496 C1504 1.574 . S
C1496 C1512 1.368 . S
H1497 C1505 0.950 . S
H1498 C1503 0.950 . S
H1499 C1504 0.949 . S
H1500 C1506 0.950 . S
H1501 C1507 0.950 . S
H1502 C1508 0.949 . S
C1503 H1498 0.950 . S
C1503 C1505 1.327 . S
C1503 C1509 1.429 . S
C1504 C1496 1.574 . S
C1504 H1499 0.949 . S
C1504 C1510 1.368 . S
C1505 C1489 1.349 . S
C1505 H1497 0.950 . S
C1505 C1503 1.327 . S
C1506 C1494 1.349 . S
C1506 H1500 0.950 . S
C1506 C1507 1.327 . S
C1507 H1501 0.950 . S
C1507 C1506 1.327 . S
C1507 C1511 1.429 . S
C1508 C1491 1.574 . S
C1508 H1502 0.949 . S
C1508 C1512 1.368 . S
C1509 C1490 1.429 . S
C1509 C1503 1.429 . S
C1509 C1510 1.523 . S
C1510 C1491 1.368 . S
C1510 C1504 1.368 . S
C1510 C1509 1.523 . S
C1511 C1495 1.429 . S
C1511 C1507 1.429 . S
C1511 C1512 1.523 . S
C1512 C1496 1.368 . S
C1512 C1508 1.368 . S
C1512 C1511 1.523 . S
H1513 C1488 0.950 . S
H1514 C1490 0.950 . S
H1515 C1491 0.949 . S
H1516 C1493 0.950 . S
H1517 C1495 0.950 . S
C1518 C1519 1.349 . S
C1518 C1520 1.327 . S
C1518 H1543 0.950 . S
C1519 C1518 1.349 . S
C1519 C1535 1.349 . S
C1520 C1518 1.327 . S
C1520 C1539 1.429 . S
C1520 H1544 0.950 . S
C1521 C1538 1.574 . S
C1521 C1540 1.368 . S
C1521 H1545 0.949 . S
H1522 C1526 0.949 . S
C1523 C1524 1.349 . S
C1523 C1525 1.327 . S
C1523 H1546 0.950 . S
C1524 C1523 1.349 . S
C1524 C1536 1.349 . S
C1525 C1523 1.327 . S
C1525 C1541 1.429 . S
C1525 H1547 0.950 . S
C1526 H1522 0.949 . S
C1526 C1534 1.574 . S
C1526 C1542 1.368 . S
H1527 C1535 0.950 . S
H1528 C1533 0.950 . S
H1529 C1534 0.949 . S
H1530 C1536 0.950 . S
H1531 C1537 0.950 . S
H1532 C1538 0.949 . S
C1533 H1528 0.950 . S
C1533 C1535 1.327 . S
C1533 C1539 1.429 . S
C1534 C1526 1.574 . S
C1534 H1529 0.949 . S
C1534 C1540 1.368 . S
C1535 C1519 1.349 . S
C1535 H1527 0.950 . S
C1535 C1533 1.327 . S
C1536 C1524 1.349 . S
C1536 H1530 0.950 . S
C1536 C1537 1.327 . S
C1537 H1531 0.950 . S
C1537 C1536 1.327 . S
C1537 C1541 1.429 . S
C1538 C1521 1.574 . S
C1538 H1532 0.949 . S
C1538 C1542 1.368 . S
C1539 C1520 1.429 . S
C1539 C1533 1.429 . S
C1539 C1540 1.523 . S
C1540 C1521 1.368 . S
C1540 C1534 1.368 . S
C1540 C1539 1.523 . S
C1541 C1525 1.429 . S
C1541 C1537 1.429 . S
C1541 C1542 1.523 . S
C1542 C1526 1.368 . S
C1542 C1538 1.368 . S
C1542 C1541 1.523 . S
H1543 C1518 0.950 . S
H1544 C1520 0.950 . S
H1545 C1521 0.949 . S
H1546 C1523 0.950 . S
H1547 C1525 0.950 . S
C1548 C1549 1.349 . S
C1548 C1550 1.327 . S
C1548 H1573 0.950 . S
C1549 C1548 1.349 . S
C1549 C1565 1.349 . S
C1550 C1548 1.327 . S
C1550 C1569 1.429 . S
C1550 H1574 0.950 . S
C1551 C1568 1.574 . S
C1551 C1570 1.368 . S
C1551 H1575 0.949 . S
H1552 C1556 0.949 . S
C1553 C1554 1.349 . S
C1553 C1555 1.327 . S
C1553 H1576 0.950 . S
C1554 C1553 1.349 . S
C1554 C1566 1.349 . S
C1555 C1553 1.327 . S
C1555 C1571 1.429 . S
C1555 H1577 0.950 . S
C1556 H1552 0.949 . S
C1556 C1564 1.574 . S
C1556 C1572 1.368 . S
H1557 C1565 0.950 . S
H1558 C1563 0.950 . S
H1559 C1564 0.949 . S
H1560 C1566 0.950 . S
H1561 C1567 0.950 . S
H1562 C1568 0.949 . S
C1563 H1558 0.950 . S
C1563 C1565 1.327 . S
C1563 C1569 1.429 . S
C1564 C1556 1.574 . S
C1564 H1559 0.949 . S
C1564 C1570 1.368 . S
C1565 C1549 1.349 . S
C1565 H1557 0.950 . S
C1565 C1563 1.327 . S
C1566 C1554 1.349 . S
C1566 H1560 0.950 . S
C1566 C1567 1.327 . S
C1567 H1561 0.950 . S
C1567 C1566 1.327 . S
C1567 C1571 1.429 . S
C1568 C1551 1.574 . S
C1568 H1562 0.949 . S
C1568 C1572 1.368 . S
C1569 C1550 1.429 . S
C1569 C1563 1.429 . S
C1569 C1570 1.523 . S
C1570 C1551 1.368 . S
C1570 C1564 1.368 . S
C1570 C1569 1.523 . S
C1571 C1555 1.429 . S
C1571 C1567 1.429 . S
C1571 C1572 1.523 . S
C1572 C1556 1.368 . S
C1572 C1568 1.368 . S
C1572 C1571 1.523 . S
H1573 C1548 0.950 . S
H1574 C1550 0.950 . S
H1575 C1551 0.949 . S
H1576 C1553 0.950 . S
H1577 C1555 0.950 . S
C1578 C1579 1.349 . S
C1578 C1580 1.327 . S
C1578 H1603 0.950 . S
C1579 C1578 1.349 . S
C1579 C1595 1.349 . S
C1580 C1578 1.327 . S
C1580 C1599 1.429 . S
C1580 H1604 0.950 . S
C1581 C1598 1.574 . S
C1581 C1600 1.368 . S
C1581 H1605 0.949 . S
H1582 C1586 0.949 . S
C1583 C1584 1.349 . S
C1583 C1585 1.327 . S
C1583 H1606 0.950 . S
C1584 C1583 1.349 . S
C1584 C1596 1.349 . S
C1585 C1583 1.327 . S
C1585 C1601 1.429 . S
C1585 H1607 0.950 . S
C1586 H1582 0.949 . S
C1586 C1594 1.574 . S
C1586 C1602 1.368 . S
H1587 C1595 0.950 . S
H1588 C1593 0.950 . S
H1589 C1594 0.949 . S
H1590 C1596 0.950 . S
H1591 C1597 0.950 . S
H1592 C1598 0.949 . S
C1593 H1588 0.950 . S
C1593 C1595 1.327 . S
C1593 C1599 1.429 . S
C1594 C1586 1.574 . S
C1594 H1589 0.949 . S
C1594 C1600 1.368 . S
C1595 C1579 1.349 . S
C1595 H1587 0.950 . S
C1595 C1593 1.327 . S
C1596 C1584 1.349 . S
C1596 H1590 0.950 . S
C1596 C1597 1.327 . S
C1597 H1591 0.950 . S
C1597 C1596 1.327 . S
C1597 C1601 1.429 . S
C1598 C1581 1.574 . S
C1598 H1592 0.949 . S
C1598 C1602 1.368 . S
C1599 C1580 1.429 . S
C1599 C1593 1.429 . S
C1599 C1600 1.523 . S
C1600 C1581 1.368 . S
C1600 C1594 1.368 . S
C1600 C1599 1.523 . S
C1601 C1585 1.429 . S
C1601 C1597 1.429 . S
C1601 C1602 1.523 . S
C1602 C1586 1.368 . S
C1602 C1598 1.368 . S
C1602 C1601 1.523 . S
H1603 C1578 0.950 . S
H1604 C1580 0.950 . S
H1605 C1581 0.949 . S
H1606 C1583 0.950 . S
H1607 C1585 0.950 . S
C1608 C1609 1.349 . S
C1608 C1610 1.327 . S
C1608 H1633 0.950 . S
C1609 C1608 1.349 . S
C1609 C1625 1.349 . S
C1610 C1608 1.327 . S
C1610 C1629 1.429 . S
C1610 H1634 0.950 . S
C1611 C1628 1.574 . S
C1611 C1630 1.368 . S
C1611 H1635 0.949 . S
H1612 C1616 0.949 . S
C1613 C1614 1.349 . S
C1613 C1615 1.327 . S
C1613 H1636 0.950 . S
C1614 C1613 1.349 . S
C1614 C1626 1.349 . S
C1615 C1613 1.327 . S
C1615 C1631 1.429 . S
C1615 H1637 0.950 . S
C1616 H1612 0.949 . S
C1616 C1624 1.574 . S
C1616 C1632 1.368 . S
H1617 C1625 0.950 . S
H1618 C1623 0.950 . S
H1619 C1624 0.949 . S
H1620 C1626 0.950 . S
H1621 C1627 0.950 . S
H1622 C1628 0.949 . S
C1623 H1618 0.950 . S
C1623 C1625 1.327 . S
C1623 C1629 1.429 . S
C1624 C1616 1.574 . S
C1624 H1619 0.949 . S
C1624 C1630 1.368 . S
C1625 C1609 1.349 . S
C1625 H1617 0.950 . S
C1625 C1623 1.327 . S
C1626 C1614 1.349 . S
C1626 H1620 0.950 . S
C1626 C1627 1.327 . S
C1627 H1621 0.950 . S
C1627 C1626 1.327 . S
C1627 C1631 1.429 . S
C1628 C1611 1.574 . S
C1628 H1622 0.949 . S
C1628 C1632 1.368 . S
C1629 C1610 1.429 . S
C1629 C1623 1.429 . S
C1629 C1630 1.523 . S
C1630 C1611 1.368 . S
C1630 C1624 1.368 . S
C1630 C1629 1.523 . S
C1631 C1615 1.429 . S
C1631 C1627 1.429 . S
C1631 C1632 1.523 . S
C1632 C1616 1.368 . S
C1632 C1628 1.368 . S
C1632 C1631 1.523 . S
H1633 C1608 0.950 . S
H1634 C1610 0.950 . S
H1635 C1611 0.949 . S
H1636 C1613 0.950 . S
H1637 C1615 0.950 . S
C1638 C1639 1.349 . S
C1638 C1640 1.327 . S
C1638 H1663 0.950 . S
C1639 C1638 1.349 . S
C1639 C1655 1.349 . S
C1640 C1638 1.327 . S
C1640 C1659 1.429 . S
C1640 H1664 0.950 . S
C1641 C1658 1.574 . S
C1641 C1660 1.368 . S
C1641 H1665 0.949 . S
H1642 C1646 0.949 . S
C1643 C1644 1.349 . S
C1643 C1645 1.327 . S
C1643 H1666 0.950 . S
C1644 C1643 1.349 . S
C1644 C1656 1.349 . S
C1645 C1643 1.327 . S
C1645 C1661 1.429 . S
C1645 H1667 0.950 . S
C1646 H1642 0.949 . S
C1646 C1654 1.574 . S
C1646 C1662 1.368 . S
H1647 C1655 0.950 . S
H1648 C1653 0.950 . S
H1649 C1654 0.949 . S
H1650 C1656 0.950 . S
H1651 C1657 0.950 . S
H1652 C1658 0.949 . S
C1653 H1648 0.950 . S
C1653 C1655 1.327 . S
C1653 C1659 1.429 . S
C1654 C1646 1.574 . S
C1654 H1649 0.949 . S
C1654 C1660 1.368 . S
C1655 C1639 1.349 . S
C1655 H1647 0.950 . S
C1655 C1653 1.327 . S
C1656 C1644 1.349 . S
C1656 H1650 0.950 . S
C1656 C1657 1.327 . S
C1657 H1651 0.950 . S
C1657 C1656 1.327 . S
C1657 C1661 1.429 . S
C1658 C1641 1.574 . S
C1658 H1652 0.949 . S
C1658 C1662 1.368 . S
C1659 C1640 1.429 . S
C1659 C1653 1.429 . S
C1659 C1660 1.523 . S
C1660 C1641 1.368 . S
C1660 C1654 1.368 . S
C1660 C1659 1.523 . S
C1661 C1645 1.429 . S
C1661 C1657 1.429 . S
C1661 C1662 1.523 . S
C1662 C1646 1.368 . S
C1662 C1658 1.368 . S
C1662 C1661 1.523 . S
H1663 C1638 0.950 . S
H1664 C1640 0.950 . S
H1665 C1641 0.949 . S
H1666 C1643 0.950 . S
H1667 C1645 0.950 . S
C1668 C1669 1.349 . S
C1668 C1670 1.327 . S
C1668 H1693 0.950 . S
C1669 C1668 1.349 . S
C1669 C1685 1.349 . S
C1670 C1668 1.327 . S
C1670 C1689 1.429 . S
C1670 H1694 0.950 . S
C1671 C1688 1.574 . S
C1671 C1690 1.368 . S
C1671 H1695 0.949 . S
H1672 C1676 0.949 . S
C1673 C1674 1.349 . S
C1673 C1675 1.327 . S
C1673 H1696 0.950 . S
C1674 C1673 1.349 . S
C1674 C1686 1.349 . S
C1675 C1673 1.327 . S
C1675 C1691 1.429 . S
C1675 H1697 0.950 . S
C1676 H1672 0.949 . S
C1676 C1684 1.574 . S
C1676 C1692 1.368 . S
H1677 C1685 0.950 . S
H1678 C1683 0.950 . S
H1679 C1684 0.949 . S
H1680 C1686 0.950 . S
H1681 C1687 0.950 . S
H1682 C1688 0.949 . S
C1683 H1678 0.950 . S
C1683 C1685 1.327 . S
C1683 C1689 1.429 . S
C1684 C1676 1.574 . S
C1684 H1679 0.949 . S
C1684 C1690 1.368 . S
C1685 C1669 1.349 . S
C1685 H1677 0.950 . S
C1685 C1683 1.327 . S
C1686 C1674 1.349 . S
C1686 H1680 0.950 . S
C1686 C1687 1.327 . S
C1687 H1681 0.950 . S
C1687 C1686 1.327 . S
C1687 C1691 1.429 . S
C1688 C1671 1.574 . S
C1688 H1682 0.949 . S
C1688 C1692 1.368 . S
C1689 C1670 1.429 . S
C1689 C1683 1.429 . S
C1689 C1690 1.523 . S
C1690 C1671 1.368 . S
C1690 C1684 1.368 . S
C1690 C1689 1.523 . S
C1691 C1675 1.429 . S
C1691 C1687 1.429 . S
C1691 C1692 1.523 . S
C1692 C1676 1.368 . S
C1692 C1688 1.368 . S
C1692 C1691 1.523 . S
H1693 C1668 0.950 . S
H1694 C1670 0.950 . S
H1695 C1671 0.949 . S
H1696 C1673 0.950 . S
H1697 C1675 0.950 . S
C1698 C1699 1.349 . S
C1698 C1700 1.327 . S
C1698 H1723 0.950 . S
C1699 C1698 1.349 . S
C1699 C1715 1.349 . S
C1700 C1698 1.327 . S
C1700 C1719 1.429 . S
C1700 H1724 0.950 . S
C1701 C1718 1.574 . S
C1701 C1720 1.368 . S
C1701 H1725 0.949 . S
H1702 C1706 0.949 . S
C1703 C1704 1.349 . S
C1703 C1705 1.327 . S
C1703 H1726 0.950 . S
C1704 C1703 1.349 . S
C1704 C1716 1.349 . S
C1705 C1703 1.327 . S
C1705 C1721 1.429 . S
C1705 H1727 0.950 . S
C1706 H1702 0.949 . S
C1706 C1714 1.574 . S
C1706 C1722 1.368 . S
H1707 C1715 0.950 . S
H1708 C1713 0.950 . S
H1709 C1714 0.949 . S
H1710 C1716 0.950 . S
H1711 C1717 0.950 . S
H1712 C1718 0.949 . S
C1713 H1708 0.950 . S
C1713 C1715 1.327 . S
C1713 C1719 1.429 . S
C1714 C1706 1.574 . S
C1714 H1709 0.949 . S
C1714 C1720 1.368 . S
C1715 C1699 1.349 . S
C1715 H1707 0.950 . S
C1715 C1713 1.327 . S
C1716 C1704 1.349 . S
C1716 H1710 0.950 . S
C1716 C1717 1.327 . S
C1717 H1711 0.950 . S
C1717 C1716 1.327 . S
C1717 C1721 1.429 . S
C1718 C1701 1.574 . S
C1718 H1712 0.949 . S
C1718 C1722 1.368 . S
C1719 C1700 1.429 . S
C1719 C1713 1.429 . S
C1719 C1720 1.523 . S
C1720 C1701 1.368 . S
C1720 C1714 1.368 . S
C1720 C1719 1.523 . S
C1721 C1705 1.429 . S
C1721 C1717 1.429 . S
C1721 C1722 1.523 . S
C1722 C1706 1.368 . S
C1722 C1718 1.368 . S
C1722 C1721 1.523 . S
H1723 C1698 0.950 . S
H1724 C1700 0.950 . S
H1725 C1701 0.949 . S
H1726 C1703 0.950 . S
H1727 C1705 0.950 . S
C529 N134 1.566 . S
C534 N2 1.566 . S
C559 N167 1.566 . S
C564 N35 1.566 . S
C589 N68 1.566 . S
C594 N200 1.566 . S
C619 N233 1.566 . S
C624 N101 1.566 . S
C649 N398 1.566 . S
C654 N266 1.566 . S
C679 N299 1.566 . S
C684 N431 1.566 . S
C709 N332 1.566 . S
C714 N464 1.566 . S
C739 N365 1.566 . S
C744 N497 1.566 . S
C769 C7 1.520 1_655 S
C774 C414 1.591 . S
C799 C40 1.520 1_565 S
C804 C447 1.592 . S
C829 C480 1.592 . S
C834 C73 1.520 . S
C859 C106 1.520 . S
C864 C513 1.591 . S
C889 C282 1.592 . S
C894 C139 1.520 1_655 S
C919 C315 1.591 . S
C924 C172 1.520 1_565 S
C949 C205 1.520 . S
C954 C348 1.591 . S
C979 C381 1.592 . S
C984 C238 1.520 . S
C1009 C271 1.520 1_455 S
C1014 C150 1.591 . S
C1039 C304 1.520 1_545 S
C1044 C183 1.592 . S
C1069 C216 1.592 . S
C1074 C337 1.520 . S
C1099 C370 1.520 . S
C1104 C249 1.591 . S
C1129 C403 1.520 1_455 S
C1134 C18 1.592 . S
C1159 C436 1.520 1_545 S
C1164 C51 1.591 . S
C1189 C469 1.520 . S
C1194 C84 1.591 . S
C1219 C117 1.592 . S
C1224 C502 1.520 . S
C1249 N244 1.794 . S
C1254 N13 1.794 . S
C1279 N46 1.794 . S
C1284 N145 1.794 . S
C1309 N178 1.794 . S
C1314 N79 1.794 . S
C1339 N211 1.794 . S
C1344 N112 1.794 . S
C1369 N277 1.794 . S
C1374 N508 1.794 . S
C1399 N409 1.794 . S
C1404 N310 1.794 . S
C1429 N343 1.794 . S
C1434 N442 1.794 . S
C1459 N475 1.794 . S
C1464 N376 1.794 . S
C1489 C87 1.332 . S
C1494 C21 1.332 . S
C1519 C120 1.332 . S
C1524 C54 1.332 . S
C1549 C153 1.332 . S
C1554 C219 1.332 . S
C1579 C252 1.332 . S
C1584 C186 1.332 . S
C1609 C285 1.332 . S
C1614 C351 1.332 . S
C1639 C384 1.332 . S
C1644 C318 1.332 . S
C1669 C417 1.332 . S
C1674 C483 1.332 . S
C1699 C450 1.332 . S
C1704 C516 1.332 . S
