# Generated by pormake.
# Topology smd, (6)-cn, num edge types: 1
# Building blocks:
#     Node 0, Type 0, BuildingBlock: GEDQOX_clean_sbu_0, # of connection points: 6
#     Node 1, Type 0, BuildingBlock: GEDQOX_clean_sbu_0, # of connection points: 6
#     Node 2, Type 0, BuildingBlock: GEDQOX_clean_sbu_0, # of connection points: 6
#     Node 3, Type 0, BuildingBlock: GEDQOX_clean_sbu_0, # of connection points: 6
#     Node 4, Type 0, BuildingBlock: GEDQOX_clean_sbu_0, # of connection points: 6
#     Node 5, Type 0, BuildingBlock: GEDQOX_clean_sbu_0, # of connection points: 6
#     Node 6, Type 0, BuildingBlock: GEDQOX_clean_sbu_0, # of connection points: 6
#     Node 7, Type 0, BuildingBlock: GEDQOX_clean_sbu_0, # of connection points: 6
#     Node 8, Type 0, BuildingBlock: GEDQOX_clean_sbu_0, # of connection points: 6
#     Node 9, Type 0, BuildingBlock: GEDQOX_clean_sbu_0, # of connection points: 6
#     Node 10, Type 0, BuildingBlock: GEDQOX_clean_sbu_0, # of connection points: 6
#     Node 11, Type 0, BuildingBlock: GEDQOX_clean_sbu_0, # of connection points: 6
#     Node 12, Type 0, BuildingBlock: GEDQOX_clean_sbu_0, # of connection points: 6
#     Node 13, Type 0, BuildingBlock: GEDQOX_clean_sbu_0, # of connection points: 6
#     Node 14, Type 0, BuildingBlock: GEDQOX_clean_sbu_0, # of connection points: 6
#     Node 15, Type 0, BuildingBlock: GEDQOX_clean_sbu_0, # of connection points: 6
#     Node 16, Type 0, BuildingBlock: GEDQOX_clean_sbu_0, # of connection points: 6
#     Node 17, Type 0, BuildingBlock: GEDQOX_clean_sbu_0, # of connection points: 6
#     Edge 18, Type (0, 0), BuildingBlock: OJICUG_clean_linker_0, # of connection points: 2
#     Edge 19, Type (0, 0), BuildingBlock: OJICUG_clean_linker_0, # of connection points: 2
#     Edge 20, Type (0, 0), BuildingBlock: OJICUG_clean_linker_0, # of connection points: 2
#     Edge 21, Type (0, 0), BuildingBlock: OJICUG_clean_linker_0, # of connection points: 2
#     Edge 22, Type (0, 0), BuildingBlock: OJICUG_clean_linker_0, # of connection points: 2
#     Edge 23, Type (0, 0), BuildingBlock: OJICUG_clean_linker_0, # of connection points: 2
#     Edge 24, Type (0, 0), BuildingBlock: OJICUG_clean_linker_0, # of connection points: 2
#     Edge 25, Type (0, 0), BuildingBlock: OJICUG_clean_linker_0, # of connection points: 2
#     Edge 26, Type (0, 0), BuildingBlock: OJICUG_clean_linker_0, # of connection points: 2
#     Edge 27, Type (0, 0), BuildingBlock: OJICUG_clean_linker_0, # of connection points: 2
#     Edge 28, Type (0, 0), BuildingBlock: OJICUG_clean_linker_0, # of connection points: 2
#     Edge 29, Type (0, 0), BuildingBlock: OJICUG_clean_linker_0, # of connection points: 2
#     Edge 30, Type (0, 0), BuildingBlock: OJICUG_clean_linker_0, # of connection points: 2
#     Edge 31, Type (0, 0), BuildingBlock: OJICUG_clean_linker_0, # of connection points: 2
#     Edge 32, Type (0, 0), BuildingBlock: OJICUG_clean_linker_0, # of connection points: 2
#     Edge 33, Type (0, 0), BuildingBlock: OJICUG_clean_linker_0, # of connection points: 2
#     Edge 34, Type (0, 0), BuildingBlock: OJICUG_clean_linker_0, # of connection points: 2
#     Edge 35, Type (0, 0), BuildingBlock: OJICUG_clean_linker_0, # of connection points: 2
#     Edge 36, Type (0, 0), BuildingBlock: OJICUG_clean_linker_0, # of connection points: 2
#     Edge 37, Type (0, 0), BuildingBlock: OJICUG_clean_linker_0, # of connection points: 2
#     Edge 38, Type (0, 0), BuildingBlock: OJICUG_clean_linker_0, # of connection points: 2
#     Edge 39, Type (0, 0), BuildingBlock: OJICUG_clean_linker_0, # of connection points: 2
#     Edge 40, Type (0, 0), BuildingBlock: OJICUG_clean_linker_0, # of connection points: 2
#     Edge 41, Type (0, 0), BuildingBlock: OJICUG_clean_linker_0, # of connection points: 2
#     Edge 42, Type (0, 0), BuildingBlock: OJICUG_clean_linker_0, # of connection points: 2
#     Edge 43, Type (0, 0), BuildingBlock: OJICUG_clean_linker_0, # of connection points: 2
#     Edge 44, Type (0, 0), BuildingBlock: OJICUG_clean_linker_0, # of connection points: 2
#     Edge 45, Type (0, 0), BuildingBlock: OJICUG_clean_linker_0, # of connection points: 2
#     Edge 46, Type (0, 0), BuildingBlock: OJICUG_clean_linker_0, # of connection points: 2
#     Edge 47, Type (0, 0), BuildingBlock: OJICUG_clean_linker_0, # of connection points: 2
#     Edge 48, Type (0, 0), BuildingBlock: OJICUG_clean_linker_0, # of connection points: 2
#     Edge 49, Type (0, 0), BuildingBlock: OJICUG_clean_linker_0, # of connection points: 2
#     Edge 50, Type (0, 0), BuildingBlock: OJICUG_clean_linker_0, # of connection points: 2
#     Edge 51, Type (0, 0), BuildingBlock: OJICUG_clean_linker_0, # of connection points: 2
#     Edge 52, Type (0, 0), BuildingBlock: OJICUG_clean_linker_0, # of connection points: 2
#     Edge 53, Type (0, 0), BuildingBlock: OJICUG_clean_linker_0, # of connection points: 2
#     Edge 54, Type (0, 0), BuildingBlock: OJICUG_clean_linker_0, # of connection points: 2
#     Edge 55, Type (0, 0), BuildingBlock: OJICUG_clean_linker_0, # of connection points: 2
#     Edge 56, Type (0, 0), BuildingBlock: OJICUG_clean_linker_0, # of connection points: 2
#     Edge 57, Type (0, 0), BuildingBlock: OJICUG_clean_linker_0, # of connection points: 2
#     Edge 58, Type (0, 0), BuildingBlock: OJICUG_clean_linker_0, # of connection points: 2
#     Edge 59, Type (0, 0), BuildingBlock: OJICUG_clean_linker_0, # of connection points: 2
#     Edge 60, Type (0, 0), BuildingBlock: OJICUG_clean_linker_0, # of connection points: 2
#     Edge 61, Type (0, 0), BuildingBlock: OJICUG_clean_linker_0, # of connection points: 2
#     Edge 62, Type (0, 0), BuildingBlock: OJICUG_clean_linker_0, # of connection points: 2
#     Edge 63, Type (0, 0), BuildingBlock: OJICUG_clean_linker_0, # of connection points: 2
#     Edge 64, Type (0, 0), BuildingBlock: OJICUG_clean_linker_0, # of connection points: 2
#     Edge 65, Type (0, 0), BuildingBlock: OJICUG_clean_linker_0, # of connection points: 2
#     Edge 66, Type (0, 0), BuildingBlock: OJICUG_clean_linker_0, # of connection points: 2
#     Edge 67, Type (0, 0), BuildingBlock: OJICUG_clean_linker_0, # of connection points: 2
#     Edge 68, Type (0, 0), BuildingBlock: OJICUG_clean_linker_0, # of connection points: 2
#     Edge 69, Type (0, 0), BuildingBlock: OJICUG_clean_linker_0, # of connection points: 2
#     Edge 70, Type (0, 0), BuildingBlock: OJICUG_clean_linker_0, # of connection points: 2
#     Edge 71, Type (0, 0), BuildingBlock: OJICUG_clean_linker_0, # of connection points: 2
# Relax obj value: 0.285
# Max RMSD: 0.261
# Mean RMSD: 0.260
data_MOF--net-smd--node1-GEDQOX_clean_sbu_0--edge1-OJICUG_clean_linker_0
_symmetry_space_group_name_H-M    P1
_symmetry_Int_Tables_number       1
_symmetry_cell_setting            triclinic
loop_
_symmetry_equiv_pos_as_xyz
'x, y, z'
_cell_length_a     75.572444
_cell_length_b     75.546153
_cell_length_c     11.488281
_cell_angle_alpha  89.871777
_cell_angle_beta   90.079334
_cell_angle_gamma 120.03875
loop_
_atom_site_label
_atom_site_type_symbol
_atom_site_fract_x
_atom_site_fract_y
_atom_site_fract_z
_atom_type_partial_charge
Nd0 Nd 0.05642 0.2455 0.55466 0.0
Nd1 Nd 1.01561 0.25246 0.55547 0.0
C2 C 0.09441 0.25232 0.56023 0.0
C3 C 0.11014 0.24655 0.53383 0.0
C4 C 0.12713 0.25976 0.46568 0.0
C5 C 0.14379 0.25658 0.45402 0.0
C6 C 0.14398 0.24013 0.51066 0.0
C7 C 0.12661 0.22646 0.57549 0.0
C8 C 0.10992 0.22967 0.58732 0.0
C9 C 0.01887 0.20927 0.53926 0.0
C10 C 0.03555 0.24828 0.30815 0.0
C11 C 0.97921 0.24908 0.57225 0.0
C12 C 0.97135 0.26089 0.63459 0.0
C13 C 0.9774 0.2675 0.74956 0.0
C14 C 0.97146 0.28024 0.80414 0.0
C15 C 0.95952 0.28692 0.74484 0.0
C16 C 0.95289 0.27967 0.63113 0.0
C17 C 0.95875 0.2668 0.57666 0.0
C18 C 0.05263 0.28901 0.56121 0.0
C19 C 0.03636 0.24993 0.80224 0.0
O20 O 0.08748 0.25897 0.47602 0.0
O21 O 0.08081 0.24224 0.64146 0.0
O22 O 0.0363 0.2096 0.53998 0.0
O23 O 0.02271 0.22738 0.54624 0.0
O24 O 0.05226 0.25094 0.36236 0.0
O25 O 0.01887 0.24549 0.36363 0.0
O26 O 0.98497 0.23847 0.63675 0.0
O27 O 0.99175 0.25855 0.48556 0.0
O28 O 0.03495 0.28795 0.56263 0.0
O29 O 0.04961 0.27107 0.56244 0.0
O30 O 0.01991 0.24778 0.74812 0.0
O31 O 0.05273 0.25206 0.74667 0.0
H32 H 0.12785 0.27301 0.42435 0.0
H33 H 0.15669 0.26724 0.40177 0.0
H34 H 0.12622 0.21371 0.62112 0.0
H35 H 0.09718 0.2193 0.64153 0.0
H36 H 0.98716 0.26326 0.79657 0.0
H37 H 0.97661 0.28523 0.89229 0.0
H38 H 0.9439 0.28466 0.58219 0.0
H39 H 0.95397 0.26198 0.48783 0.0
Nd40 Nd 0.83001 0.83821 0.57139 0.0
Nd41 Nd 0.82337 0.79221 0.57595 0.0
C42 C 0.82705 0.87143 0.60183 0.0
C43 C 0.82941 0.89131 0.56468 0.0
C44 C 0.81396 0.89565 0.59399 0.0
C45 C 0.81633 0.91496 0.57232 0.0
C46 C 0.83425 0.93054 0.51999 0.0
C47 C 0.84958 0.92599 0.48815 0.0
C48 C 0.84722 0.90661 0.5106 0.0
C49 C 0.86433 0.83479 0.53885 0.0
C50 C 0.82645 0.8156 0.32783 0.0
C51 C 0.82679 0.75908 0.58847 0.0
C52 C 0.81448 0.73896 0.64629 0.0
C53 C 0.80681 0.73761 0.75934 0.0
C54 C 0.79368 0.71855 0.80951 0.0
C55 C 0.78768 0.70034 0.7476 0.0
C56 C 0.79595 0.70171 0.63593 0.0
C57 C 0.8092 0.72084 0.58585 0.0
C58 C 0.78611 0.79095 0.56852 0.0
C59 C 0.82432 0.81369 0.82343 0.0
O60 O 0.81234 0.8545 0.55681 0.0
O61 O 0.84337 0.8704 0.629 0.0
O62 O 0.86185 0.84901 0.49011 0.0
O63 O 0.84966 0.82408 0.60668 0.0
O64 O 0.82244 0.8287 0.38159 0.0
O65 O 0.83109 0.80311 0.38483 0.0
O66 O 0.83682 0.77495 0.65656 0.0
O67 O 0.81804 0.76283 0.50082 0.0
O68 O 0.78789 0.77479 0.57612 0.0
O69 O 0.80369 0.80643 0.57157 0.0
O70 O 0.82373 0.7979 0.77062 0.0
O71 O 0.82559 0.82959 0.7666 0.0
H72 H 0.80019 0.88421 0.63715 0.0
H73 H 0.80431 0.91781 0.60028 0.0
H74 H 0.86347 0.93742 0.44618 0.0
H75 H 0.85941 0.9037 0.48735 0.0
H76 H 0.81054 0.75129 0.80818 0.0
H77 H 0.78789 0.71812 0.89628 0.0
H78 H 0.79151 0.68807 0.58508 0.0
H79 H 0.81485 0.72149 0.4984 0.0
Nd80 Nd 0.23648 0.01869 0.56776 0.0
Nd81 Nd 0.28442 0.05957 0.56893 0.0
C82 C 0.20557 0.98056 0.57579 0.0
C83 C 0.18467 0.96379 0.54757 0.0
C84 C 0.18193 0.94451 0.51954 0.0
C85 C 0.16232 0.92757 0.50574 0.0
C86 C 0.14479 0.92943 0.51915 0.0
C87 C 0.14761 0.94896 0.54468 0.0
C88 C 0.16732 0.96593 0.55913 0.0
C89 C 0.23802 0.05632 0.55106 0.0
C90 C 0.25995 0.0397 0.32127 0.0
C91 C 0.3176 0.09594 0.58429 0.0
C92 C 0.33755 0.1039 0.64428 0.0
C93 C 0.33858 0.09876 0.7608 0.0
C94 C 0.35747 0.10479 0.81339 0.0
C95 C 0.37583 0.11593 0.75061 0.0
C96 C 0.37478 0.1217 0.63525 0.0
C97 C 0.35584 0.11574 0.58278 0.0
C98 C 0.28374 0.02248 0.57547 0.0
C99 C 0.26094 0.03899 0.81548 0.0
O100 O 0.21994 0.987 0.49629 0.0
O101 O 0.20782 0.99482 0.6493 0.0
O102 O 0.22086 0.03891 0.55108 0.0
O103 O 0.25223 0.05242 0.55896 0.0
O104 O 0.24571 0.02303 0.37511 0.0
O105 O 0.27406 0.05626 0.37695 0.0
O106 O 0.30146 0.09016 0.65051 0.0
O107 O 0.31422 0.08342 0.49716 0.0
O108 O 0.30044 0.04012 0.57679 0.0
O109 O 0.2689 0.0256 0.57668 0.0
O110 O 0.27534 0.0554 0.76133 0.0
O111 O 0.24667 0.02261 0.76005 0.0
H112 H 0.19504 0.94237 0.51182 0.0
H113 H 0.16095 0.91286 0.48822 0.0
H114 H 0.13459 0.95115 0.55396 0.0
H115 H 0.16896 0.9806 0.58124 0.0
H116 H 0.32476 0.08962 0.81071 0.0
H117 H 0.35765 0.10032 0.90282 0.0
H118 H 0.38852 0.13005 0.58364 0.0
H119 H 0.35545 0.11985 0.49278 0.0
Nd120 Nd 0.06427 0.81549 0.44981 0.0
Nd121 Nd 0.02557 0.82298 0.45305 0.0
C122 C 0.1005 0.81806 0.4383 0.0
C123 C 0.10708 0.80371 0.39711 0.0
C124 C 0.12651 0.811 0.34766 0.0
C125 C 0.13197 0.79735 0.29894 0.0
C126 C 0.11795 0.77619 0.29774 0.0
C127 C 0.09874 0.769 0.35044 0.0
C128 C 0.09337 0.78257 0.39927 0.0
C129 C 0.02788 0.77845 0.45992 0.0
C130 C 0.04407 0.8172 0.20177 0.0
C131 C 0.98964 0.82073 0.42446 0.0
C132 C 0.97263 0.82392 0.46262 0.0
C133 C 0.95352 0.80686 0.48923 0.0
C134 C 0.93634 0.80898 0.50754 0.0
C135 C 0.93774 0.82824 0.49931 0.0
C136 C 0.95704 0.84542 0.476 0.0
C137 C 0.97424 0.84329 0.45753 0.0
C138 C 0.06376 0.85696 0.48485 0.0
C139 C 0.0445 0.81939 0.69723 0.0
O140 O 0.09356 0.82526 0.35763 0.0
O141 O 0.08938 0.81286 0.53319 0.0
O142 O 0.04571 0.78002 0.45317 0.0
O143 O 0.03023 0.79612 0.45509 0.0
O144 O 0.05944 0.81698 0.25513 0.0
O145 O 0.02919 0.81796 0.25829 0.0
O146 O 0.99176 0.80618 0.47308 0.0
O147 O 1.00701 0.83644 0.39088 0.0
O148 O 0.04722 0.85487 0.53324 0.0
O149 O 0.05938 0.84215 0.41765 0.0
O150 O 0.02745 0.81552 0.64322 0.0
O151 O 0.06154 0.82376 0.6403 0.0
H152 H 0.1373 0.82727 0.34449 0.0
H153 H 0.14687 0.80337 0.25897 0.0
H154 H 0.08771 0.75279 0.35325 0.0
H155 H 0.07832 0.7765 0.43699 0.0
H156 H 0.95164 0.79168 0.49154 0.0
H157 H 0.92177 0.79533 0.52359 0.0
H158 H 0.95884 0.86055 0.47069 0.0
H159 H 0.98866 0.85675 0.43611 0.0
Nd160 Nd 0.25948 0.27823 0.47684 0.0
Nd161 Nd 0.25278 0.23055 0.47871 0.0
C162 C 0.25595 0.31117 0.4593 0.0
C163 C 0.26781 0.33091 0.39717 0.0
C164 C 0.27463 0.33159 0.2826 0.0
C165 C 0.28746 0.35034 0.22837 0.0
C166 C 0.29402 0.3689 0.28766 0.0
C167 C 0.28656 0.36819 0.40089 0.0
C168 C 0.2736 0.34938 0.455 0.0
C169 C 0.29614 0.27805 0.47091 0.0
C170 C 0.25706 0.25498 0.23064 0.0
C171 C 0.25972 0.19945 0.4744 0.0
C172 C 0.25386 0.17793 0.50161 0.0
C173 C 0.26689 0.17409 0.57112 0.0
C174 C 0.2636 0.15421 0.58388 0.0
C175 C 0.24721 0.13758 0.527 0.0
C176 C 0.23373 0.14134 0.46065 0.0
C177 C 0.23705 0.16127 0.44775 0.0
C178 C 0.21644 0.23164 0.49302 0.0
C179 C 0.2554 0.25413 0.72472 0.0
O180 O 0.2455 0.29484 0.39456 0.0
O181 O 0.26531 0.30808 0.54657 0.0
O182 O 0.29495 0.29461 0.46924 0.0
O183 O 0.27826 0.26302 0.46996 0.0
O184 O 0.25474 0.26918 0.28445 0.0
O185 O 0.25936 0.24085 0.28656 0.0
O186 O 0.26627 0.21304 0.55838 0.0
O187 O 0.24974 0.20298 0.39256 0.0
O188 O 0.21684 0.21458 0.4924 0.0
O189 O 0.23452 0.24597 0.4868 0.0
O190 O 0.25815 0.24014 0.67084 0.0
O191 O 0.25253 0.26798 0.6689 0.0
H192 H 0.27048 0.31762 0.23567 0.0
H193 H 0.29261 0.35025 0.14057 0.0
H194 H 0.29145 0.38212 0.44979 0.0
H195 H 0.26862 0.34925 0.54354 0.0
H196 H 0.28008 0.1866 0.61277 0.0
H197 H 0.27411 0.15192 0.63728 0.0
H198 H 0.22104 0.129 0.41475 0.0
H199 H 0.22682 0.16368 0.39249 0.0
Nd200 Nd 0.79776 1.00823 0.45147 0.0
Nd201 Nd 0.84534 0.04936 0.45377 0.0
C202 C 0.76495 0.97148 0.43691 0.0
C203 C 0.74321 0.96356 0.40679 0.0
C204 C 0.73273 0.9462 0.33575 0.0
C205 C 0.71233 0.93907 0.30335 0.0
C206 C 0.702 0.9491 0.34227 0.0
C207 C 0.71266 0.96656 0.41288 0.0
C208 C 0.73299 0.97373 0.44443 0.0
C209 C 0.79766 0.04496 0.45174 0.0
C210 C 0.82163 0.02875 0.20618 0.0
C211 C 0.87647 0.08739 0.44578 0.0
C212 C 0.89777 0.10311 0.47699 0.0
C213 C 0.90113 0.11986 0.54588 0.0
C214 C 0.92089 0.13651 0.5618 0.0
C215 C 0.93789 0.13693 0.50871 0.0
C216 C 0.93459 0.11981 0.44303 0.0
C217 C 0.91479 0.10314 0.42703 0.0
C218 C 0.8441 0.01181 0.46796 0.0
C219 C 0.82225 0.02802 0.69972 0.0
O220 O 0.77804 0.97991 0.35143 0.0
O221 O 0.77149 0.9816 0.53511 0.0
O222 O 0.78115 0.02714 0.44936 0.0
O223 O 0.81275 0.04224 0.44841 0.0
O224 O 0.80801 0.01197 0.26091 0.0
O225 O 0.83504 0.0456 0.26166 0.0
O226 O 0.86215 0.08096 0.52569 0.0
O227 O 0.87358 0.0733 0.36925 0.0
O228 O 0.86114 0.02927 0.47425 0.0
O229 O 0.82998 0.01569 0.455 0.0
O230 O 0.83616 0.0449 0.6462 0.0
O231 O 0.80839 1.01138 0.64343 0.0
H232 H 0.74038 0.93822 0.3048 0.0
H233 H 0.70459 0.9256 0.24898 0.0
H234 H 0.70537 0.97497 0.44234 0.0
H235 H 0.74077 0.98736 0.49751 0.0
H236 H 0.88835 0.12042 0.58454 0.0
H237 H 0.9228 0.14921 0.61456 0.0
H238 H 0.94721 0.1196 0.39989 0.0
H239 H 0.91278 0.09062 0.37226 0.0
Nd240 Nd 0.72268 0.57813 0.89594 0.0
Nd241 Nd 0.68368 0.58509 0.89909 0.0
C242 C 0.75854 0.58017 0.92433 0.0
C243 C 0.77476 0.57561 0.88762 0.0
C244 C 0.79125 0.58954 0.81833 0.0
C245 C 0.80823 0.58704 0.79994 0.0
C246 C 0.80927 0.5706 0.85089 0.0
C247 C 0.79246 0.55632 0.91717 0.0
C248 C 0.7755 0.55883 0.93558 0.0
C249 C 0.68474 0.54386 0.86364 0.0
C250 C 0.70387 0.58203 0.65155 0.0
C251 C 0.64717 0.58173 0.91184 0.0
C252 C 0.63938 0.5938 0.97189 0.0
C253 C 0.6455 0.60081 0.08621 0.0
C254 C 0.63963 0.61377 0.13868 0.0
C255 C 0.62768 0.62026 0.07785 0.0
C256 C 0.62096 0.61262 0.96485 0.0
C257 C 0.62677 0.59954 0.91248 0.0
C258 C 0.71978 0.62236 0.89277 0.0
C259 C 0.70442 0.58464 0.14697 0.0
O260 O 0.75626 0.59395 0.86726 0.0
O261 O 0.74138 0.56544 0.96736 0.0
O262 O 0.70138 0.5462 0.81545 0.0
O263 O 0.68888 0.5586 0.93086 0.0
O264 O 0.72088 0.58587 0.70601 0.0
O265 O 0.68673 0.57743 0.70799 0.0
O266 O 0.65285 0.57133 0.97813 0.0
O267 O 0.65981 0.59088 0.82536 0.0
O268 O 0.70183 0.62054 0.89981 0.0
O269 O 0.71772 0.60478 0.89575 0.0
O270 O 0.68894 0.58468 0.09385 0.0
O271 O 0.71924 0.58375 0.0903 0.0
H272 H 0.79138 0.6028 0.78122 0.0
H273 H 0.82069 0.5982 0.74696 0.0
H274 H 0.79273 0.54362 0.95917 0.0
H275 H 0.7633 0.54801 0.99131 0.0
H276 H 0.65527 0.59671 0.13433 0.0
H277 H 0.64484 0.61906 0.22636 0.0
H278 H 0.61196 0.61745 0.91482 0.0
H279 H 0.62193 0.5944 0.82411 0.0
Nd280 Nd 0.49634 0.17174 0.8925 0.0
Nd281 Nd 0.48927 0.12393 0.89433 0.0
C282 C 0.48923 0.20269 0.90077 0.0
C283 C 0.49357 0.22372 0.87372 0.0
C284 C 0.47726 0.22655 0.84091 0.0
C285 C 0.48001 0.24622 0.82868 0.0
C286 C 0.49922 0.2637 0.84855 0.0
C287 C 0.5157 0.26081 0.87888 0.0
C288 C 0.5129 0.24105 0.8917 0.0
C289 C 0.53257 0.17044 0.87644 0.0
C290 C 0.49391 0.14834 0.64635 0.0
C291 C 0.49198 0.09054 0.9113 0.0
C292 C 0.47939 0.07085 0.97267 0.0
C293 C 0.47129 0.07034 0.08349 0.0
C294 C 0.45773 0.05167 0.13624 0.0
C295 C 0.45172 0.03303 0.07907 0.0
C296 C 0.46041 0.03358 0.96976 0.0
C297 C 0.47409 0.05231 0.91714 0.0
C298 C 0.45275 0.12442 0.90012 0.0
C299 C 0.49221 0.14733 0.14057 0.0
O300 O 0.48145 0.18851 0.82021 0.0
O301 O 0.50099 0.20019 0.9753 0.0
O302 O 0.53217 0.18751 0.87564 0.0
O303 O 0.51449 0.15611 0.88496 0.0
O304 O 0.49141 0.16252 0.69989 0.0
O305 O 0.49642 0.13428 0.70239 0.0
O306 O 0.50259 0.10672 0.97688 0.0
O307 O 0.48312 0.09408 0.8231 0.0
O308 O 0.4538 0.1078 0.9021 0.0
O309 O 0.47069 0.13935 0.90092 0.0
O310 O 0.49427 0.13299 0.08667 0.0
O311 O 0.49004 0.16155 0.08479 0.0
H312 H 0.46213 0.21346 0.82832 0.0
H313 H 0.46681 0.24763 0.80729 0.0
H314 H 0.5308 0.27382 0.89325 0.0
H315 H 0.52575 0.23935 0.9177 0.0
H316 H 0.47501 0.08438 0.12833 0.0
H317 H 0.45163 0.05188 0.22112 0.0
H318 H 0.45598 0.01959 0.92248 0.0
H319 H 0.48003 0.05233 0.83135 0.0
Nd320 Nd 0.9031 0.35155 0.90965 0.0
Nd321 Nd 0.94935 0.39053 0.91362 0.0
C322 C 0.86952 0.31542 0.93803 0.0
C323 C 0.84945 0.29816 0.89915 0.0
C324 C 0.84752 0.27896 0.87763 0.0
C325 C 0.82831 0.26164 0.85863 0.0
C326 C 0.81038 0.26298 0.86105 0.0
C327 C 0.8124 0.28237 0.87915 0.0
C328 C 0.83166 0.29971 0.89833 0.0
C329 C 0.90717 0.38968 0.87866 0.0
C330 C 0.9258 0.37056 0.66577 0.0
C331 C 0.98268 0.42696 0.92636 0.0
C332 C 1.00274 0.43477 0.98473 0.0
C333 C 1.00398 0.42902 0.09958 0.0
C334 C 0.02298 0.43498 0.15057 0.0
C335 C 0.04124 0.44665 0.08776 0.0
C336 C 0.03997 0.45298 0.97415 0.0
C337 C 0.02092 0.44709 0.92327 0.0
C338 C 0.95007 0.35425 0.90524 0.0
C339 C 0.92779 0.36997 0.16138 0.0
O340 O 0.88638 0.31767 0.89179 0.0
O341 O 0.87095 0.33277 0.96942 0.0
O342 O 0.89277 0.37317 0.82957 0.0
O343 O 0.91768 0.38532 0.94562 0.0
O344 O 0.91253 0.35353 0.71978 0.0
O345 O 0.93849 0.38762 0.72251 0.0
O346 O 0.96675 0.42123 0.99382 0.0
O347 O 0.97895 0.41442 0.83923 0.0
O348 O 0.96636 0.3721 0.91299 0.0
O349 O 0.93471 0.35653 0.90897 0.0
O350 O 0.94368 0.38508 0.10829 0.0
O351 O 0.91178 0.35546 0.10481 0.0
H352 H 0.86086 0.27714 0.87985 0.0
H353 H 0.82748 0.24704 0.84667 0.0
H354 H 0.79905 0.28416 0.87982 0.0
H355 H 0.83251 0.31421 0.91561 0.0
H356 H 0.99025 0.41949 0.14935 0.0
H357 H 0.02332 0.43006 0.23875 0.0
H358 H 0.05364 0.46175 0.92254 0.0
H359 H 0.02037 0.45166 0.83449 0.0
Nd360 Nd 0.7309 0.14806 0.78124 0.0
Nd361 Nd 0.69213 0.15543 0.78464 0.0
C362 C 0.76715 0.15061 0.76774 0.0
C363 C 0.77375 0.13654 0.72194 0.0
C364 C 0.79419 0.14371 0.69023 0.0
C365 C 0.79999 0.13041 0.63993 0.0
C366 C 0.78537 0.10975 0.61957 0.0
C367 C 0.76503 0.10266 0.65397 0.0
C368 C 0.75931 0.11588 0.70398 0.0
C369 C 0.69454 0.11093 0.78905 0.0
C370 C 0.71047 0.14945 0.53345 0.0
C371 C 0.65631 0.15362 0.75824 0.0
C372 C 0.6401 0.15815 0.79597 0.0
C373 C 0.62385 0.14437 0.86723 0.0
C374 C 0.60688 0.14685 0.88693 0.0
C375 C 0.60561 0.16312 0.83539 0.0
C376 C 0.62217 0.17723 0.76691 0.0
C377 C 0.63912 0.17474 0.7472 0.0
C378 C 0.73023 0.1895 0.8192 0.0
C379 C 0.71101 0.15157 0.02874 0.0
O380 O 0.76039 0.15845 0.68987 0.0
O381 O 0.75577 0.14461 0.86159 0.0
O382 O 0.71241 0.11262 0.78321 0.0
O383 O 0.69679 0.12857 0.78499 0.0
O384 O 0.72602 0.14959 0.58674 0.0
O385 O 0.69545 0.14994 0.5901 0.0
O386 O 0.65857 0.13971 0.8141 0.0
O387 O 0.67348 0.16837 0.71537 0.0
O388 O 0.71354 0.18724 0.86615 0.0
O389 O 0.72606 0.17484 0.75116 0.0
O390 O 0.69398 0.14766 0.97439 0.0
O391 O 0.72811 0.15607 0.97211 0.0
H392 H 0.80559 0.15963 0.7028 0.0
H393 H 0.81577 0.13639 0.61445 0.0
H394 H 0.75342 0.08679 0.64239 0.0
H395 H 0.74349 0.10992 0.72757 0.0
H396 H 0.6239 0.13125 0.90505 0.0
H397 H 0.59463 0.13583 0.94156 0.0
H398 H 0.62172 0.1898 0.72431 0.0
H399 H 0.65111 0.18543 0.68993 0.0
Nd400 Nd 0.92537 0.61036 0.79982 0.0
Nd401 Nd 0.91895 0.56274 0.8015 0.0
C402 C 0.92176 0.64327 0.78355 0.0
C403 C 0.93367 0.66314 0.72254 0.0
C404 C 0.94055 0.66403 0.60791 0.0
C405 C 0.95345 0.68288 0.55484 0.0
C406 C 0.96002 0.70133 0.61534 0.0
C407 C 0.95248 0.70042 0.72859 0.0
C408 C 0.93946 0.68151 0.78156 0.0
C409 C 0.96213 0.61037 0.79409 0.0
C410 C 0.92288 0.58712 0.55352 0.0
C411 C 0.9264 0.532 0.79386 0.0
C412 C 0.92194 0.51094 0.82124 0.0
C413 C 0.93818 0.50799 0.85363 0.0
C414 C 0.93529 0.48827 0.86648 0.0
C415 C 0.91598 0.47085 0.84767 0.0
C416 C 0.89955 0.47387 0.81773 0.0
C417 C 0.90251 0.49369 0.8043 0.0
C418 C 0.88251 0.56361 0.81698 0.0
C419 C 0.92115 0.58606 0.04769 0.0
O420 O 0.91142 0.62704 0.71797 0.0
O421 O 0.93103 0.64007 0.87086 0.0
O422 O 0.96086 0.62688 0.79256 0.0
O423 O 0.94427 0.5953 0.79262 0.0
O424 O 0.92059 0.60133 0.60737 0.0
O425 O 0.92525 0.57302 0.60931 0.0
O426 O 0.93387 0.54609 0.87506 0.0
O427 O 0.91483 0.53453 0.71811 0.0
O428 O 0.88306 0.54663 0.81716 0.0
O429 O 0.90054 0.57804 0.80948 0.0
O430 O 0.92388 0.57203 0.99406 0.0
O431 O 0.91839 0.59997 0.99173 0.0
H432 H 0.93641 0.65015 0.56006 0.0
H433 H 0.95866 0.68296 0.46698 0.0
H434 H 0.95736 0.71426 0.77839 0.0
H435 H 0.93442 0.68122 0.87016 0.0
H436 H 0.95338 0.52101 0.86549 0.0
H437 H 0.94843 0.48675 0.88754 0.0
H438 H 0.88439 0.46093 0.80418 0.0
H439 H 0.8897 0.49549 0.77869 0.0
Nd440 Nd 0.46502 0.34337 0.78595 0.0
Nd441 Nd 0.51103 0.38258 0.78938 0.0
C442 C 0.43201 0.30669 0.77419 0.0
C443 C 0.41192 0.29861 0.71577 0.0
C444 C 0.41061 0.30397 0.60014 0.0
C445 C 0.3916 0.2979 0.54922 0.0
C446 C 0.37339 0.2865 0.61288 0.0
C447 C 0.3747 0.28048 0.72718 0.0
C448 C 0.39378 0.28648 0.77801 0.0
C449 C 0.46379 0.3794 0.79391 0.0
C450 C 0.48622 0.36411 0.53803 0.0
C451 C 0.54458 0.41865 0.75952 0.0
C452 C 0.56496 0.43568 0.79573 0.0
C453 C 0.56721 0.45486 0.82199 0.0
C454 C 0.58661 0.47202 0.83862 0.0
C455 C 0.6044 0.47054 0.82901 0.0
C456 C 0.6021 0.45117 0.80595 0.0
C457 C 0.58265 0.43398 0.78919 0.0
C458 C 0.50729 0.34458 0.8204 0.0
C459 C 0.48847 0.36359 0.0336 0.0
O460 O 0.44797 0.31256 0.70678 0.0
O461 O 0.43558 0.31929 0.86084 0.0
O462 O 0.44765 0.36143 0.78637 0.0
O463 O 0.47932 0.37739 0.79011 0.0
O464 O 0.47055 0.34877 0.59114 0.0
O465 O 0.50207 0.37882 0.59467 0.0
O466 O 0.52809 0.41641 0.81087 0.0
O467 O 0.5428 0.40134 0.7241 0.0
O468 O 0.5216 0.36112 0.86965 0.0
O469 O 0.49676 0.3489 0.75347 0.0
O470 O 0.50163 0.38065 0.97939 0.0
O471 O 0.47592 0.34646 0.97699 0.0
H472 H 0.42431 0.31333 0.54973 0.0
H473 H 0.3912 0.30257 0.46052 0.0
H474 H 0.36106 0.27192 0.77934 0.0
H475 H 0.39439 0.28221 0.86738 0.0
H476 H 0.55395 0.4568 0.82539 0.0
H477 H 0.58766 0.48664 0.85453 0.0
H478 H 0.61536 0.44929 0.79962 0.0
H479 H 0.58154 0.4195 0.768 0.0
Nd480 Nd 0.38622 0.91236 0.2386 0.0
Nd481 Nd 0.34696 0.9189 0.24104 0.0
C482 C 0.42224 0.91496 0.26924 0.0
C483 C 0.43853 0.91037 0.23567 0.0
C484 C 0.45523 0.92425 0.16746 0.0
C485 C 0.47227 0.92176 0.15217 0.0
C486 C 0.47313 0.9054 0.20529 0.0
C487 C 0.45614 0.89118 0.27058 0.0
C488 C 0.43912 0.89367 0.28582 0.0
C489 C 0.34858 0.87786 0.20488 0.0
C490 C 0.36731 0.91606 0.99382 0.0
C491 C 0.31035 0.91525 0.25401 0.0
C492 C 0.30244 0.92715 0.31491 0.0
C493 C 0.30754 0.93299 0.43178 0.0
C494 C 0.30177 0.94595 0.48521 0.0
C495 C 0.29095 0.95359 0.42292 0.0
C496 C 0.28519 0.94708 0.30726 0.0
C497 C 0.29089 0.934 0.25391 0.0
C498 C 0.38304 0.95627 0.2337 0.0
C499 C 0.36778 0.9188 0.48921 0.0
O500 O 0.41975 0.92824 0.2082 0.0
O501 O 0.40519 0.9004 0.31444 0.0
O502 O 0.36539 0.88041 0.15797 0.0
O503 O 0.3524 0.89251 0.27233 0.0
O504 O 0.38436 0.92005 0.04844 0.0
O505 O 0.35012 0.91128 0.05013 0.0
O506 O 0.31607 0.90478 0.31945 0.0
O507 O 0.32299 0.92458 0.16778 0.0
O508 O 0.36508 0.95446 0.24007 0.0
O509 O 0.38089 0.93869 0.23792 0.0
O510 O 0.35223 0.91867 0.43598 0.0
O511 O 0.38267 0.91805 0.43262 0.0
H512 H 0.45545 0.93746 0.12888 0.0
H513 H 0.4849 0.93286 0.09992 0.0
H514 H 0.4563 0.87854 0.31422 0.0
H515 H 0.42676 0.8829 0.34085 0.0
H516 H 0.31648 0.92802 0.4813 0.0
H517 H 0.30621 0.95036 0.57484 0.0
H518 H 0.27708 0.95282 0.25608 0.0
H519 H 0.28684 0.92977 0.16364 0.0
Nd520 Nd 0.1618 0.50373 0.2253 0.0
Nd521 Nd 0.15575 0.45631 0.22689 0.0
C522 C 0.15407 0.53428 0.23317 0.0
C523 C 0.15852 0.55534 0.20623 0.0
C524 C 0.14228 0.55829 0.17369 0.0
C525 C 0.14516 0.578 0.16107 0.0
C526 C 0.16446 0.59541 0.18029 0.0
C527 C 0.18088 0.5924 0.21046 0.0
C528 C 0.17793 0.57259 0.22363 0.0
C529 C 0.19844 0.50322 0.20987 0.0
C530 C 0.15975 0.48051 0.97905 0.0
C531 C 0.15971 0.42361 0.24327 0.0
C532 C 0.14793 0.40376 0.30458 0.0
C533 C 0.14158 0.4029 0.42043 0.0
C534 C 0.12869 0.38408 0.47377 0.0
C535 C 0.12161 0.36563 0.41237 0.0
C536 C 0.12866 0.3665 0.2979 0.0
C537 C 0.14168 0.38538 0.24466 0.0
C538 C 0.11879 0.45593 0.23233 0.0
C539 C 0.15795 0.47939 0.47326 0.0
O540 O 0.14684 0.52031 0.1513 0.0
O541 O 0.16554 0.53173 0.30952 0.0
O542 O 0.1977 0.52011 0.20953 0.0
O543 O 0.18046 0.48869 0.21761 0.0
O544 O 0.15689 0.49445 0.03273 0.0
O545 O 0.16267 0.46671 0.03498 0.0
O546 O 0.17 0.4399 0.30855 0.0
O547 O 0.15034 0.42668 0.15596 0.0
O548 O 0.12025 0.43952 0.23423 0.0
O549 O 0.1366 0.47111 0.23335 0.0
O550 O 0.16038 0.46527 0.41942 0.0
O551 O 0.15548 0.49342 0.41742 0.0
H552 H 0.1271 0.54526 0.16149 0.0
H553 H 0.13203 0.57952 0.13983 0.0
H554 H 0.19602 0.60535 0.22435 0.0
H555 H 0.19074 0.57079 0.24937 0.0
H556 H 0.14609 0.41679 0.46908 0.0
H557 H 0.12385 0.38402 0.56253 0.0
H558 H 0.12338 0.35267 0.2474 0.0
H559 H 0.14631 0.38564 0.15516 0.0
Nd560 Nd 0.57131 0.68528 0.23371 0.0
Nd561 Nd 0.61747 0.72423 0.23771 0.0
C562 C 0.53756 0.64937 0.26353 0.0
C563 C 0.5172 0.63231 0.22703 0.0
C564 C 0.51496 0.6131 0.20151 0.0
C565 C 0.49556 0.59593 0.18478 0.0
C566 C 0.47777 0.59743 0.19356 0.0
C567 C 0.48007 0.61682 0.21583 0.0
C568 C 0.49951 0.63402 0.2327 0.0
C569 C 0.57549 0.7234 0.2008 0.0
C570 C 0.59407 0.70401 0.98978 0.0
C571 C 0.65052 0.76084 0.24966 0.0
C572 C 0.67041 0.76888 0.30997 0.0
C573 C 0.6714 0.7629 0.42463 0.0
C574 C 0.69028 0.76896 0.47722 0.0
C575 C 0.70867 0.78095 0.41613 0.0
C576 C 0.70765 0.78753 0.30279 0.0
C577 C 0.6887 0.78153 0.25032 0.0
C578 C 0.61831 0.68801 0.23093 0.0
C579 C 0.59609 0.70362 0.48539 0.0
O580 O 0.55411 0.65143 0.21396 0.0
O581 O 0.53937 0.66678 0.29714 0.0
O582 O 0.56117 0.70689 0.15135 0.0
O583 O 0.58584 0.71905 0.26897 0.0
O584 O 0.58078 0.68701 0.04403 0.0
O585 O 0.60672 0.72111 0.04632 0.0
O586 O 0.63441 0.75515 0.31557 0.0
O587 O 0.64713 0.7481 0.16408 0.0
O588 O 0.63457 0.7059 0.23847 0.0
O589 O 0.6029 0.69023 0.23393 0.0
O590 O 0.61191 0.71882 0.43241 0.0
O591 O 0.58012 0.68908 0.42869 0.0
H592 H 0.52821 0.61115 0.19881 0.0
H593 H 0.49451 0.5813 0.16949 0.0
H594 H 0.46681 0.61872 0.22149 0.0
H595 H 0.50061 0.64852 0.25331 0.0
H596 H 0.65756 0.75309 0.4729 0.0
H597 H 0.69045 0.76385 0.56516 0.0
H598 H 0.72144 0.79655 0.25256 0.0
H599 H 0.68832 0.78626 0.16167 0.0
Nd600 Nd 0.39805 0.48289 0.1226 0.0
Nd601 Nd 0.35917 0.49022 0.12596 0.0
C602 C 0.43437 0.48579 0.10957 0.0
C603 C 0.44199 0.47347 0.05055 0.0
C604 C 0.43556 0.46601 0.93724 0.0
C605 C 0.4414 0.45297 0.88564 0.0
C606 C 0.45365 0.44682 0.94634 0.0
C607 C 0.46062 0.45485 0.0584 0.0
C608 C 0.45483 0.46802 0.10989 0.0
C609 C 0.3617 0.44585 0.1296 0.0
C610 C 0.37741 0.4837 0.87479 0.0
C611 C 0.32335 0.48831 0.09803 0.0
C612 C 0.30696 0.49259 0.13542 0.0
C613 C 0.29059 0.47854 0.20504 0.0
C614 C 0.27348 0.4808 0.22401 0.0
C615 C 0.27217 0.49711 0.17335 0.0
C616 C 0.28886 0.5115 0.10671 0.0
C617 C 0.30595 0.50924 0.08771 0.0
C618 C 0.39729 0.52426 0.15888 0.0
C619 C 0.37797 0.48618 0.37018 0.0
O620 O 0.42876 0.49616 0.04245 0.0
O621 O 0.42179 0.47692 0.19666 0.0
O622 O 0.37955 0.44742 0.12259 0.0
O623 O 0.36402 0.46352 0.12598 0.0
O624 O 0.39277 0.48341 0.92791 0.0
O625 O 0.3627 0.48479 0.9314 0.0
O626 O 0.32555 0.47428 0.1528 0.0
O627 O 0.34059 0.50326 0.05714 0.0
O628 O 0.38069 0.52209 0.20672 0.0
O629 O 0.393 0.5095 0.09146 0.0
O630 O 0.36098 0.48246 0.31582 0.0
O631 O 0.39507 0.49063 0.3137 0.0
H632 H 0.4256 0.46988 0.88921 0.0
H633 H 0.43598 0.44737 0.79864 0.0
H634 H 0.46985 0.4503 0.10838 0.0
H635 H 0.45992 0.4735 0.19751 0.0
H636 H 0.29067 0.46538 0.24201 0.0
H637 H 0.26113 0.46956 0.27725 0.0
H638 H 0.28838 0.52412 0.06489 0.0
H639 H 0.31805 0.52014 0.03172 0.0
Nd640 Nd 0.59089 0.94255 0.17088 0.0
Nd641 Nd 0.58182 0.89572 0.16682 0.0
C642 C 0.59148 0.97774 0.14354 0.0
C643 C 0.603 0.99681 0.07532 0.0
C644 C 0.60961 0.99663 0.96142 0.0
C645 C 0.62193 0.01502 0.90207 0.0
C646 C 0.62808 0.03401 0.95566 0.0
C647 C 0.62082 0.03404 0.06842 0.0
C648 C 0.60843 0.01564 0.12744 0.0
C649 C 0.62403 0.93783 0.20862 0.0
C650 C 0.5882 0.92003 0.9185 0.0
C651 C 0.58361 0.86173 0.16953 0.0
C652 C 0.58343 0.84196 0.16908 0.0
C653 C 0.6005 0.84067 0.20557 0.0
C654 C 0.59993 0.82179 0.20633 0.0
C655 C 0.58218 0.80365 0.17195 0.0
C656 C 0.56513 0.80511 0.13569 0.0
C657 C 0.5658 0.82398 0.13367 0.0
C658 C 0.54592 0.8977 0.18535 0.0
C659 C 0.58335 0.91807 0.41385 0.0
O660 O 0.57902 0.96104 0.08677 0.0
O661 O 0.60181 0.9746 0.22428 0.0
O662 O 0.62198 0.95258 0.25087 0.0
O663 O 0.60984 0.92715 0.13705 0.0
O664 O 0.58972 0.93605 0.97448 0.0
O665 O 0.58682 0.90388 0.97261 0.0
O666 O 0.59571 0.87745 0.23499 0.0
O667 O 0.57119 0.86451 0.10224 0.0
O668 O 0.54605 0.88061 0.18196 0.0
O669 O 0.56408 0.91182 0.18046 0.0
O670 O 0.5874 0.90505 0.35935 0.0
O671 O 0.57957 0.93115 0.35683 0.0
H672 H 0.60566 0.98231 0.91917 0.0
H673 H 0.62696 0.01434 0.81482 0.0
H674 H 0.62543 0.04828 0.11333 0.0
H675 H 0.60355 0.01614 0.21543 0.0
H676 H 0.61433 0.85428 0.23295 0.0
H677 H 0.61352 0.8215 0.2331 0.0
H678 H 0.55101 0.7916 0.11097 0.0
H679 H 0.5523 0.82441 0.10617 0.0
Nd680 Nd 0.13089 0.67531 0.11448 0.0
Nd681 Nd 0.17696 0.71453 0.11844 0.0
C682 C 0.09777 0.63873 0.10205 0.0
C683 C 0.07773 0.63082 0.04331 0.0
C684 C 0.07654 0.63628 0.92773 0.0
C685 C 0.05758 0.63034 0.87644 0.0
C686 C 0.03931 0.61898 0.93966 0.0
C687 C 0.04052 0.61289 0.054 0.0
C688 C 0.05953 0.61876 0.10519 0.0
C689 C 0.12982 0.71141 0.12267 0.0
C690 C 0.1523 0.69595 0.86672 0.0
C691 C 0.21033 0.75075 0.08945 0.0
C692 C 0.23035 0.76807 0.12822 0.0
C693 C 0.23199 0.78704 0.15371 0.0
C694 C 0.25111 0.80448 0.17238 0.0
C695 C 0.26921 0.8035 0.16558 0.0
C696 C 0.2675 0.78435 0.14352 0.0
C697 C 0.24833 0.76689 0.12471 0.0
C698 C 0.17315 0.67651 0.14947 0.0
C699 C 0.15435 0.69545 0.36236 0.0
O700 O 0.11375 0.64454 0.0349 0.0
O701 O 0.10137 0.65129 0.18897 0.0
O702 O 0.11362 0.69349 0.11485 0.0
O703 O 0.14527 0.70929 0.11884 0.0
O704 O 0.13649 0.68075 0.91979 0.0
O705 O 0.16824 0.71055 0.92332 0.0
O706 O 0.19345 0.74839 0.13605 0.0
O707 O 0.20904 0.73347 0.05796 0.0
O708 O 0.18748 0.69304 0.19877 0.0
O709 O 0.16264 0.68085 0.08242 0.0
O710 O 0.16753 0.71252 0.30833 0.0
O711 O 0.14176 0.67835 0.30562 0.0
H712 H 0.09028 0.6456 0.87761 0.0
H713 H 0.05726 0.63506 0.78773 0.0
H714 H 0.02683 0.60436 0.10588 0.0
H715 H 0.06006 0.61442 0.19453 0.0
H716 H 0.21849 0.78859 0.15483 0.0
H717 H 0.25172 0.81891 0.1875 0.0
H718 H 0.28101 0.78287 0.13937 0.0
H719 H 0.2477 0.75259 0.1042 0.0
C720 C 0.10516 0.32732 0.4444 0.0
C721 C 0.10542 0.34589 0.46331 0.0
H722 H 0.08835 0.29455 0.46269 0.0
C723 C 0.08913 0.34538 0.52522 0.0
H724 H 0.11752 0.32715 0.39777 0.0
C725 C 0.07266 0.32685 0.56249 0.0
C726 C 0.07199 0.30828 0.53965 0.0
H727 H 0.08855 0.35923 0.54009 0.0
H728 H 0.06 0.32702 0.60557 0.0
C729 C 0.08861 0.30866 0.48276 0.0
C730 C 0.76563 0.80625 0.48832 0.0
C731 C 0.7665 0.79014 0.54412 0.0
H732 H 0.7466 0.8161 0.40413 0.0
C733 C 0.74824 0.77175 0.56446 0.0
H734 H 0.77951 0.82047 0.46999 0.0
C735 C 0.72954 0.76915 0.52646 0.0
C736 C 0.72856 0.78487 0.46642 0.0
H737 H 0.74845 0.75901 0.60658 0.0
H738 H 0.71596 0.75441 0.53971 0.0
C739 C 0.74681 0.80361 0.44938 0.0
C740 C 0.26744 0.98689 0.49227 0.0
C741 C 0.28349 1.00309 0.55299 0.0
H742 H 0.25706 0.95834 0.40365 0.0
C743 C 0.30111 1.00204 0.57839 0.0
H744 H 0.2539 0.98753 0.46949 0.0
C745 C 0.30307 0.98559 0.54015 0.0
C746 C 0.28748 0.96972 0.4747 0.0
H747 H 0.3138 0.01441 0.62423 0.0
H748 H 0.31731 0.98588 0.55711 0.0
C749 C 0.26943 0.97036 0.45312 0.0
C750 C 0.4142 0.13799 0.77937 0.0
C751 C 0.39567 0.11976 0.80154 0.0
H752 H 0.44699 0.15403 0.79492 0.0
C753 C 0.39632 0.10434 0.86693 0.0
H754 H 0.41428 0.15026 0.73001 0.0
C755 C 0.41492 0.10663 0.90448 0.0
C756 C 0.43344 0.12442 0.87846 0.0
H757 H 0.38252 0.08997 0.8844 0.0
H758 H 0.41485 0.09404 0.95028 0.0
C759 C 0.43293 0.14032 0.8179 0.0
C760 C 0.96896 0.33528 0.89874 0.0
C761 C 0.95067 0.33538 0.87925 0.0
H762 H 0.98613 0.32025 0.87133 0.0
C763 C 0.93452 0.31863 0.82233 0.0
H764 H 0.98174 0.34805 0.94167 0.0
C765 C 0.93704 0.3025 0.78135 0.0
C766 C 0.9557 0.30278 0.79741 0.0
H767 H 0.92037 0.31846 0.80465 0.0
H768 H 0.92453 0.29 0.73525 0.0
C769 C 0.97144 0.31924 0.85871 0.0
C770 C 0.77215 0.66209 0.77934 0.0
C771 C 0.77148 0.68026 0.79525 0.0
H772 H 0.75642 0.62934 0.7997 0.0
C773 C 0.75445 0.67905 0.85217 0.0
H774 H 0.78509 0.66246 0.73651 0.0
C775 C 0.73828 0.66025 0.8885 0.0
C776 C 0.73861 0.64207 0.86956 0.0
H777 H 0.75314 0.69256 0.86444 0.0
H778 H 0.72512 0.6599 0.92839 0.0
C779 C 0.75587 0.64315 0.81667 0.0
C780 C 0.99209 0.75828 0.54099 0.0
C781 C 1.00896 0.75895 0.48539 0.0
H782 H 0.96321 0.73948 0.6258 0.0
C783 C 1.00888 0.74058 0.4661 0.0
H784 H 0.99189 0.77225 0.55844 0.0
C785 C 0.9927 0.72197 0.50479 0.0
C786 C 0.97609 0.72117 0.56458 0.0
H787 H 0.02174 0.74063 0.42416 0.0
H788 H 0.99371 0.7083 0.49221 0.0
C789 C 0.97582 0.73954 0.58074 0.0
C790 C 0.33396 0.29617 0.46698 0.0
C791 C 0.31553 0.27817 0.49127 0.0
H792 H 0.36637 0.31293 0.4865 0.0
C793 C 0.3162 0.26204 0.54811 0.0
H794 H 0.33391 0.30892 0.42389 0.0
C795 C 0.33501 0.26435 0.58487 0.0
C796 C 0.35345 0.28276 0.56427 0.0
H797 H 0.3022 0.24811 0.56924 0.0
H798 H 0.33508 0.25191 0.63142 0.0
C799 C 0.35263 0.29843 0.50258 0.0
C800 C 0.77716 0.08086 0.48234 0.0
C801 C 0.79083 0.09539 0.56208 0.0
H802 H 0.76889 0.05376 0.3845 0.0
C803 C 0.80873 0.09493 0.59158 0.0
H804 H 0.76354 0.08104 0.45489 0.0
C805 C 0.81202 0.07938 0.54861 0.0
C806 C 0.79744 0.06406 0.47595 0.0
H807 H 0.81958 0.10586 0.65284 0.0
H808 H 0.82519 0.07855 0.57842 0.0
C809 C 0.78034 0.06533 0.44082 0.0
C810 C 0.64779 0.93912 0.35968 0.0
C811 C 0.64139 0.93521 0.24319 0.0
H812 H 0.67156 0.94593 0.48264 0.0
C813 C 0.65389 0.93299 0.1611 0.0
H814 H 0.63835 0.9408 0.42476 0.0
C815 C 0.67329 0.93634 0.19405 0.0
C816 C 0.68032 0.94189 0.30943 0.0
H817 H 0.64937 0.93023 0.07044 0.0
H818 H 0.68325 0.9359 0.12787 0.0
C819 C 0.66691 0.94227 0.39258 0.0
C820 C 0.10767 0.74561 0.17136 0.0
C821 C 0.12272 0.76145 0.23935 0.0
H822 H 0.09841 0.71772 0.07999 0.0
C823 C 0.14157 0.76217 0.25571 0.0
H824 H 0.09319 0.74484 0.15449 0.0
C825 C 0.14467 0.74658 0.2113 0.0
C826 C 0.12899 0.73012 0.14979 0.0
H827 H 0.15348 0.77417 0.30769 0.0
H828 H 0.1588 0.7468 0.23079 0.0
C829 C 0.11073 0.73015 0.1277 0.0
C830 C 0.32592 0.42571 0.21054 0.0
C831 C 0.34279 0.42635 0.1551 0.0
H832 H 0.2971 0.407 0.29595 0.0
C833 C 0.34273 0.40797 0.13645 0.0
H834 H 0.32571 0.43969 0.22739 0.0
C835 C 0.32659 0.3894 0.17588 0.0
C836 C 0.31001 0.38865 0.23572 0.0
H837 H 0.35559 0.40799 0.09461 0.0
H838 H 0.32762 0.37573 0.16394 0.0
C839 C 0.3097 0.40702 0.25097 0.0
C840 C 0.06219 0.4349 0.19807 0.0
C841 C 0.06122 0.45052 0.13669 0.0
H842 H 0.08109 0.42466 0.27731 0.0
C843 C 0.07957 0.46906 0.11696 0.0
H844 H 0.04854 0.4203 0.21352 0.0
C845 C 0.09843 0.47156 0.15427 0.0
C846 C 0.09926 0.45552 0.21105 0.0
H847 H 0.07939 0.48148 0.07072 0.0
H848 H 0.11234 0.48558 0.13359 0.0
C849 C 0.08092 0.43736 0.23438 0.0
C850 C 0.60523 0.63594 0.11191 0.0
C851 C 0.62393 0.63632 0.1281 0.0
H852 H 0.58853 0.65191 0.13363 0.0
C853 C 0.63976 0.653 0.18751 0.0
H854 H 0.59267 0.62328 0.0672 0.0
C855 C 0.63731 0.66915 0.22577 0.0
C856 C 0.61896 0.66913 0.20633 0.0
H857 H 0.65447 0.65408 0.20011 0.0
H858 H 0.65014 0.68207 0.26739 0.0
C859 C 0.60274 0.65219 0.15115 0.0
C860 C 0.41807 0.01266 0.1815 0.0
C861 C 0.4352 0.01335 0.12889 0.0
H862 H 0.38847 0.99418 0.25659 0.0
C863 C 0.4357 0.995 0.11933 0.0
H864 H 0.41688 0.02632 0.1888 0.0
C865 C 0.41922 0.97639 0.15866 0.0
C866 C 0.4019 0.9758 0.20751 0.0
H867 H 0.4487 0.99497 0.08001 0.0
H868 H 0.41969 0.96244 0.14657 0.0
C869 C 0.40167 0.99416 0.22001 0.0
C870 C 0.65873 0.09051 0.86948 0.0
C871 C 0.67574 0.09134 0.81487 0.0
H872 H 0.6301 0.07167 0.95621 0.0
C873 C 0.676 0.07307 0.79791 0.0
H874 H 0.65824 0.10439 0.88475 0.0
C875 C 0.66014 0.05448 0.83916 0.0
C876 C 0.6435 0.05359 0.89909 0.0
H877 H 0.68896 0.07323 0.75651 0.0
H878 H 0.6615 0.04096 0.82911 0.0
C879 C 0.64277 0.0718 0.91155 0.0
C880 C 0.01863 0.63085 0.82781 0.0
C881 C 0.01941 0.61524 0.89037 0.0
H882 H 0.99995 0.64125 0.74746 0.0
C883 C 1.00096 0.59685 0.91104 0.0
H884 H 0.03237 0.64534 0.81164 0.0
C885 C 0.98218 0.59451 0.8735 0.0
C886 C 0.98153 0.61056 0.81555 0.0
H887 H 1.00099 0.58444 0.95828 0.0
H888 H 0.96818 0.58063 0.89501 0.0
C889 C 0.99997 0.62855 0.79128 0.0
C890 C 0.47638 0.43143 0.91219 0.0
C891 C 0.45753 0.43078 0.89688 0.0
H892 H 0.49341 0.4158 0.88977 0.0
C893 C 0.44172 0.41389 0.8387 0.0
H894 H 0.48894 0.44426 0.95593 0.0
C895 C 0.44436 0.39784 0.80058 0.0
C896 C 0.46289 0.39816 0.81892 0.0
H897 H 0.4269 0.41259 0.8268 0.0
H898 H 0.43156 0.38478 0.75977 0.0
C899 C 0.47906 0.41528 0.8731 0.0
C900 C 0.18227 0.25509 0.51224 0.0
C901 C 0.16253 0.2378 0.50586 0.0
H902 H 0.2146 0.26662 0.51538 0.0
C903 C 0.16078 0.21839 0.49668 0.0
H904 H 0.1843 0.27025 0.5219 0.0
C905 C 0.17826 0.21638 0.49291 0.0
C906 C 0.19791 0.2337 0.49842 0.0
H907 H 0.14589 0.20475 0.49079 0.0
H908 H 0.17639 0.20125 0.48495 0.0
C909 C 0.1997 0.25304 0.5088 0.0
C910 C 0.85861 0.98876 0.50512 0.0
C911 C 0.84173 0.99114 0.47944 0.0
H912 H 0.86954 0.96801 0.53969 0.0
C913 C 0.82253 0.97356 0.46407 0.0
H914 H 0.8736 1.00204 0.5175 0.0
C915 C 0.82021 0.95402 0.4748 0.0
C916 C 0.83701 0.95149 0.50233 0.0
H917 H 0.80927 0.97489 0.4434 0.0
H918 H 0.80519 0.94088 0.46083 0.0
C919 C 0.85628 0.9692 0.51677 0.0
C920 C 0.08819 0.89109 0.57351 0.0
C921 C 0.0844 0.8754 0.49453 0.0
H922 H 0.11006 0.92016 0.64473 0.0
C923 C 0.10046 0.87767 0.42286 0.0
H924 H 0.07614 0.88978 0.63012 0.0
C925 C 0.11984 0.89522 0.42969 0.0
C926 C 0.1238 0.91098 0.50921 0.0
H927 H 0.098 0.86593 0.36036 0.0
H928 H 0.13167 0.89649 0.37142 0.0
C929 C 0.10764 0.90862 0.58102 0.0
C930 C 0.26192 0.11402 0.52938 0.0
C931 C 0.24472 0.11662 0.53336 0.0
H932 H 0.27324 0.09304 0.52976 0.0
C933 C 0.22523 0.09903 0.54172 0.0
H934 H 0.27715 0.1271 0.52046 0.0
C935 C 0.22305 0.07946 0.54697 0.0
C936 C 0.24028 0.07699 0.54385 0.0
H937 H 0.21164 0.10038 0.54585 0.0
H938 H 0.20786 0.06626 0.55426 0.0
C939 C 0.25971 0.09447 0.53437 0.0
C940 C 0.97635 0.15367 0.52929 0.0
C941 C 0.95875 0.15547 0.51788 0.0
H942 H 1.00905 0.1692 0.54536 0.0
C943 C 0.96128 0.17526 0.51293 0.0
H944 H 0.97505 0.13875 0.53434 0.0
C945 C 0.98077 0.19267 0.51954 0.0
C946 C 0.99825 0.1908 0.53158 0.0
H947 H 0.94821 0.17734 0.50171 0.0
H948 H 0.98216 0.2076 0.51383 0.0
C949 C 0.99585 0.17112 0.53606 0.0
C950 C 0.90351 0.81808 0.59101 0.0
C951 C 0.91902 0.8302 0.51086 0.0
H952 H 0.87425 0.81007 0.66281 0.0
C953 C 0.91622 0.84383 0.43971 0.0
H954 H 0.90516 0.80761 0.64848 0.0
C955 C 0.89845 0.84525 0.44839 0.0
C956 C 0.883 0.83307 0.52815 0.0
H957 H 0.9276 0.85318 0.3756 0.0
H958 H 0.89678 0.85585 0.39213 0.0
C959 C 0.88575 0.81949 0.59943 0.0
C960 C 0.86535 0.58465 0.83572 0.0
C961 C 0.86386 0.56544 0.82446 0.0
H962 H 0.84951 0.60137 0.85397 0.0
C963 C 0.84434 0.54793 0.82063 0.0
H964 H 0.88016 0.59839 0.84054 0.0
C965 C 0.82668 0.54958 0.82782 0.0
C966 C 0.82809 0.56882 0.83927 0.0
H967 H 0.84269 0.5329 0.81171 0.0
H968 H 0.81191 0.53576 0.82344 0.0
C969 C 0.84772 0.58633 0.84294 0.0
C970 C 0.51659 0.31989 0.91058 0.0
C971 C 0.50535 0.32402 0.82833 0.0
H972 H 0.52333 0.29774 0.98301 0.0
C973 C 0.49242 0.30839 0.7516 0.0
H974 H 0.52668 0.33163 0.97097 0.0
C975 C 0.4907 0.28905 0.75705 0.0
C976 C 0.50175 0.28471 0.84011 0.0
H977 H 0.48377 0.31115 0.68606 0.0
H978 H 0.48081 0.27757 0.69499 0.0
C979 C 0.51478 0.30047 0.91668 0.0
C980 C 0.76739 0.21039 0.76447 0.0
C981 C 0.75074 0.2081 0.83073 0.0
H982 H 0.79897 0.22948 0.71972 0.0
C983 C 0.75377 0.22396 0.90641 0.0
H984 H 0.76554 0.19851 0.70475 0.0
C985 C 0.77298 0.24173 0.91559 0.0
C986 C 0.78972 0.24415 0.84912 0.0
H987 H 0.74127 0.22265 0.95893 0.0
H988 H 0.77476 0.25344 0.97644 0.0
C989 C 0.78661 0.22817 0.77342 0.0
C990 C 0.92434 0.44542 0.93968 0.0
C991 C 0.91327 0.44978 0.85685 0.0
H992 H 0.93113 0.42325 1.01114 0.0
C993 C 0.90003 0.43395 0.78121 0.0
H994 H 0.93439 0.45696 1.00104 0.0
C995 C 0.89804 0.41446 0.788 0.0
C996 C 0.90931 0.41031 0.87002 0.0
H997 H 0.89146 0.43669 0.71507 0.0
H998 H 0.8878 0.40268 0.7283 0.0
C999 C 0.92244 0.42601 0.94581 0.0
C1000 C 0.64144 0.4919 0.76722 0.0
C1001 C 0.62518 0.48923 0.83919 0.0
H1002 H 0.67285 0.51121 0.71787 0.0
C1003 C 0.62885 0.50484 0.91899 0.0
H1004 H 0.63921 0.48044 0.70337 0.0
C1005 C 0.6481 0.52256 0.92625 0.0
C1006 C 0.66426 0.52519 0.85413 0.0
H1007 H 0.61689 0.5033 0.97714 0.0
H1008 H 0.65039 0.53412 0.98949 0.0
C1009 C 0.66073 0.50963 0.77475 0.0
C1010 C 0.5883 0.18424 0.85901 0.0
C1011 C 0.58682 0.16496 0.84905 0.0
H1012 H 0.57242 0.20104 0.87554 0.0
C1013 C 0.56716 0.14745 0.84895 0.0
H1014 H 0.60309 0.19807 0.86082 0.0
C1015 C 0.54957 0.1492 0.85797 0.0
C1016 C 0.55114 0.16847 0.86746 0.0
H1017 H 0.5653 0.13236 0.83934 0.0
H1018 H 0.53473 0.13546 0.85601 0.0
C1019 C 0.5707 0.18596 0.86797 0.0
C1020 C 0.52914 0.91916 0.19808 0.0
C1021 C 0.52748 0.89986 0.18916 0.0
H1022 H 0.51342 0.93609 0.21129 0.0
C1023 C 0.50793 0.88244 0.18343 0.0
H1024 H 0.54401 0.93284 0.2034 0.0
C1025 C 0.49037 0.88424 0.18699 0.0
C1026 C 0.49191 0.90354 0.19672 0.0
H1027 H 0.50617 0.86735 0.17593 0.0
H1028 H 0.47557 0.87048 0.18131 0.0
C1029 C 0.51157 0.921 0.20184 0.0
C1030 C 0.15804 0.64024 0.08172 0.0
C1031 C 0.17106 0.65591 0.15805 0.0
H1032 H 0.14621 0.60934 0.02611 0.0
C1033 C 0.18225 0.65174 0.24055 0.0
H1034 H 0.14944 0.64303 0.01598 0.0
C1035 C 0.18028 0.63226 0.24731 0.0
C1036 C 0.16716 0.61647 0.17117 0.0
H1037 H 0.1924 0.6635 0.30064 0.0
H1038 H 0.18879 0.62951 0.3138 0.0
C1039 C 0.15617 0.62085 0.08785 0.0
C1040 C 0.45331 0.56303 0.10438 0.0
C1041 C 0.45698 0.57874 0.1835 0.0
H1042 H 0.43173 0.5337 0.03437 0.0
C1043 C 0.44069 0.57617 0.2549 0.0
H1044 H 0.46529 0.56448 0.04672 0.0
C1045 C 0.42139 0.55847 0.24738 0.0
C1046 C 0.41784 0.54284 0.16855 0.0
H1047 H 0.44292 0.5877 0.31828 0.0
H1048 H 0.40925 0.557 0.30376 0.0
C1049 C 0.43402 0.54534 0.09711 0.0
C1050 C 0.56761 0.74841 0.10234 0.0
C1051 C 0.57785 0.74408 0.19003 0.0
H1052 H 0.56145 0.77056 0.02496 0.0
C1053 C 0.59002 0.75958 0.2695 0.0
H1054 H 0.55824 0.73683 0.03926 0.0
C1055 C 0.59159 0.77886 0.26306 0.0
C1056 C 0.58118 0.78327 0.17604 0.0
H1057 H 0.59799 0.75667 0.33872 0.0
H1058 H 0.60057 0.7901 0.32849 0.0
C1059 C 0.56936 0.76777 0.0949 0.0
C1060 C 0.31183 0.856 0.26466 0.0
C1061 C 0.3283 0.85898 0.19429 0.0
H1062 H 0.28057 0.83618 0.31304 0.0
C1063 C 0.32532 0.84353 0.11545 0.0
H1064 H 0.31369 0.86749 0.32736 0.0
C1065 C 0.30629 0.82555 0.10682 0.0
C1066 C 0.28971 0.82249 0.1771 0.0
H1067 H 0.3377 0.84538 0.05987 0.0
H1068 H 0.30449 0.81418 0.04342 0.0
C1069 C 0.2928 0.83801 0.25627 0.0
C1070 C 0.25441 0.5178 0.19725 0.0
C1071 C 0.25322 0.49866 0.18575 0.0
H1072 H 0.23814 0.5342 0.21399 0.0
C1073 C 0.23368 0.48102 0.18277 0.0
H1074 H 0.26911 0.53172 0.20116 0.0
C1075 C 0.21593 0.48249 0.19063 0.0
C1076 C 0.21721 0.5016 0.20186 0.0
H1077 H 0.23204 0.46604 0.17177 0.0
H1078 H 0.20118 0.46865 0.18628 0.0
C1079 C 0.23664 0.51924 0.20509 0.0
C1080 C 0.05288 0.25123 0.11642 0.0
C1081 C 0.03569 0.2486 0.17866 0.0
H1082 H 0.06666 0.25376 0.94995 0.0
C1083 C 0.0188 0.24659 0.11576 0.0
H1084 H 0.06621 0.25287 0.1616 0.0
C1085 C 0.0191 0.24716 0.99395 0.0
C1086 C 0.03628 0.24974 0.93172 0.0
H1087 H 1.00531 0.2446 0.16041 0.0
H1088 H 1.00577 0.24552 0.94876 0.0
C1089 C 0.05317 0.25178 0.99462 0.0
C1090 C 0.82369 0.82982 0.13536 0.0
C1091 C 0.82584 0.81505 0.19881 0.0
H1092 H 0.8215 0.84101 0.96778 0.0
C1093 C 0.82709 0.79962 0.1377 0.0
H1094 H 0.82265 0.84193 0.17947 0.0
C1095 C 0.82626 0.79901 0.01608 0.0
C1096 C 0.82432 0.8139 0.95255 0.0
H1097 H 0.82863 0.78794 0.18367 0.0
H1098 H 0.82738 0.78694 0.972 0.0
C1099 C 0.82301 0.8293 1.01371 0.0
C1100 C 0.27513 0.0565 0.1291 0.0
C1101 C 0.26013 0.03965 0.1918 0.0
H1102 H 0.28724 0.06951 0.96224 0.0
C1103 C 0.24547 0.02252 0.12938 0.0
H1104 H 0.28671 0.06994 0.17391 0.0
C1105 C 0.24578 0.02226 1.00763 0.0
C1106 C 0.26077 0.0391 0.94493 0.0
H1107 H 0.23369 1.00922 0.17438 0.0
H1108 H 0.23421 1.00881 0.96285 0.0
C1109 C 0.27545 0.05623 1.00731 0.0
C1110 C 0.02745 0.81658 0.88916 0.0
C1111 C 0.04445 0.81889 0.8263 0.0
H1112 H 1.01393 0.81421 0.05623 0.0
C1113 C 0.06118 0.82033 0.88807 0.0
H1114 H 1.01426 0.8154 0.84456 0.0
C1115 C 0.06092 0.8195 1.00971 0.0
C1116 C 0.04397 0.81733 0.07262 0.0
H1117 H 0.07449 0.82202 0.8426 0.0
H1118 H 0.07413 0.82075 0.05429 0.0
C1119 C 0.02724 0.81588 1.01081 0.0
C1120 C 0.25416 0.2694 0.03858 0.0
C1121 C 0.25686 0.25487 0.10116 0.0
H1122 H 0.25151 0.28057 0.87186 0.0
C1123 C 0.25902 0.24009 0.0386 0.0
H1124 H 0.25244 0.28104 0.08351 0.0
C1125 C 0.25846 0.23982 0.9168 0.0
C1126 C 0.25572 0.25432 0.85422 0.0
H1127 H 0.26109 0.22864 0.08354 0.0
H1128 H 0.2602 0.22819 0.87189 0.0
C1129 C 0.25359 0.26912 0.91678 0.0
C1130 C 0.80773 1.01103 1.01442 0.0
C1131 C 0.82183 0.02853 0.07658 0.0
H1132 H 0.79678 0.99705 0.84788 0.0
C1133 C 0.83615 0.04573 1.01345 0.0
H1134 H 0.79646 0.99746 0.0598 0.0
C1135 C 0.83635 0.04547 0.89163 0.0
C1136 C 0.82222 0.02799 0.82938 0.0
H1137 H 0.84727 0.05947 0.05796 0.0
H1138 H 0.84759 0.05907 0.84642 0.0
C1139 C 0.80792 1.01077 0.89249 0.0
C1140 C 0.72134 0.58606 0.33791 0.0
C1141 C 0.70464 0.58469 0.27617 0.0
H1142 H 0.73423 0.58629 0.50415 0.0
C1143 C 0.68771 0.58256 0.33919 0.0
H1144 H 0.73462 0.58769 0.29241 0.0
C1145 C 0.6874 0.58159 0.46079 0.0
C1146 C 0.70406 0.58285 0.52248 0.0
H1147 H 0.67452 0.5814 0.29471 0.0
H1148 H 0.67409 0.57989 0.50627 0.0
C1149 C 0.72109 0.58522 0.45959 0.0
C1150 C 0.49556 0.13319 0.45455 0.0
C1151 C 0.4937 0.14817 0.51688 0.0
H1152 H 0.49647 0.12107 0.28796 0.0
C1153 C 0.49123 0.16281 0.45409 0.0
H1154 H 0.49743 0.12162 0.49966 0.0
C1155 C 0.49065 0.1625 0.33234 0.0
C1156 C 0.49251 0.14752 0.27001 0.0
H1157 H 0.48969 0.17458 0.4988 0.0
H1158 H 0.48877 0.17406 0.28726 0.0
C1159 C 0.49497 0.13286 0.33275 0.0
C1160 C 0.91201 0.35329 0.35223 0.0
C1161 C 0.92758 0.36983 0.29053 0.0
H1162 H 0.89922 0.34053 0.51836 0.0
C1163 C 0.9426 0.38663 0.35351 0.0
H1164 H 0.90019 0.34011 0.30675 0.0
C1165 C 0.94196 0.38696 0.4751 0.0
C1166 C 0.92636 0.37044 0.53674 0.0
H1167 H 0.9548 0.3997 0.309 0.0
H1168 H 0.95375 0.40015 0.52063 0.0
C1169 C 0.91146 0.35356 0.47384 0.0
C1170 C 0.69378 0.14849 0.22049 0.0
C1171 C 0.71088 0.15099 0.15785 0.0
H1172 H 0.68017 0.14601 0.38745 0.0
C1173 C 0.72767 0.15263 0.21988 0.0
H1174 H 0.68054 0.14715 0.17568 0.0
C1175 C 0.72738 0.15183 0.34152 0.0
C1176 C 0.71035 0.14949 0.40425 0.0
H1177 H 0.74105 0.15447 0.17462 0.0
H1178 H 0.74066 0.15325 0.38625 0.0
C1179 C 0.69354 0.14781 0.34219 0.0
C1180 C 0.92415 0.57178 0.23998 0.0
C1181 C 0.9214 0.58626 0.17717 0.0
H1182 H 0.92682 0.56069 0.40683 0.0
C1183 C 0.91928 0.60109 0.23949 0.0
H1184 H 0.92588 0.56014 0.19527 0.0
C1185 C 0.91989 0.60143 0.36129 0.0
C1186 C 0.92261 0.58694 0.42407 0.0
H1187 H 0.9172 0.61252 0.19438 0.0
H1188 H 0.91818 0.61309 0.40606 0.0
C1189 C 0.92473 0.57211 0.36174 0.0
C1190 C 0.47234 0.34709 0.22415 0.0
C1191 C 0.48782 0.36374 0.16264 0.0
H1192 H 0.45953 0.33423 0.3901 0.0
C1193 C 0.50251 0.38074 0.22568 0.0
H1194 H 0.46071 0.3338 0.17853 0.0
C1195 C 0.50187 0.38099 0.34729 0.0
C1196 C 0.48644 0.36431 0.40886 0.0
H1197 H 0.51464 0.39386 0.18127 0.0
H1198 H 0.51354 0.39426 0.39289 0.0
C1199 C 0.47162 0.3474 0.34572 0.0
C1200 C 0.38483 0.92042 0.68003 0.0
C1201 C 0.36803 0.91887 0.61842 0.0
H1202 H 0.39781 0.92074 0.84615 0.0
C1203 C 0.35104 0.91654 0.6816 0.0
H1204 H 0.39817 0.92222 0.63441 0.0
C1205 C 0.35076 0.91551 0.80319 0.0
C1206 C 0.3675 0.91694 0.86475 0.0
H1207 H 0.33778 0.91522 0.63724 0.0
H1208 H 0.33739 0.91364 0.84878 0.0
C1209 C 0.3846 0.91954 0.80171 0.0
C1210 C 0.15658 0.49468 0.78678 0.0
C1211 C 0.15947 0.48029 0.84958 0.0
H1212 H 0.15377 0.50569 0.61991 0.0
C1213 C 0.1617 0.46553 0.78728 0.0
H1214 H 0.15475 0.50627 0.83148 0.0
C1215 C 0.16107 0.46516 0.66549 0.0
C1216 C 0.15821 0.47957 0.6027 0.0
H1217 H 0.16389 0.45416 0.83239 0.0
H1218 H 0.16288 0.45356 0.62073 0.0
C1219 C 0.15597 0.49432 0.66501 0.0
C1220 C 0.61023 0.72045 0.79926 0.0
C1221 C 0.59468 0.70387 0.86077 0.0
H1222 H 0.62303 0.7333 0.63332 0.0
C1223 C 0.57982 0.68698 0.79773 0.0
H1224 H 0.62199 0.73366 0.84489 0.0
C1225 C 0.58038 0.68677 0.67609 0.0
C1226 C 0.59589 0.70338 0.61454 0.0
H1227 H 0.56762 0.67391 0.84216 0.0
H1228 H 0.5686 0.67359 0.63046 0.0
C1229 C 0.61088 0.72018 0.67768 0.0
C1230 C 0.36058 0.48245 0.68379 0.0
C1231 C 0.37721 0.48366 0.74559 0.0
H1232 H 0.34775 0.48229 0.5175 0.0
C1233 C 0.39407 0.4856 0.68263 0.0
H1234 H 0.34735 0.48095 0.72924 0.0
C1235 C 0.39438 0.48654 0.56102 0.0
C1236 C 0.37779 0.48541 0.49926 0.0
H1237 H 0.4072 0.48665 0.72716 0.0
H1238 H 0.40763 0.48809 0.51557 0.0
C1239 C 0.36083 0.48324 0.56211 0.0
C1240 C 0.58768 0.90412 0.726 0.0
C1241 C 0.58742 0.91989 0.78919 0.0
H1242 H 0.58648 0.8911 0.55926 0.0
C1243 C 0.58548 0.93499 0.7277 0.0
H1244 H 0.58909 0.8922 0.7701 0.0
C1245 C 0.58378 0.93425 0.60608 0.0
C1246 C 0.58409 0.91848 0.54308 0.0
H1247 H 0.5851 0.94731 0.77343 0.0
H1248 H 0.58241 0.94616 0.56153 0.0
C1249 C 0.58611 0.90346 0.60467 0.0
C1250 C 0.16859 0.71249 0.55434 0.0
C1251 C 0.15377 0.69556 0.49138 0.0
H1252 H 0.17977 0.72595 0.72148 0.0
C1253 C 0.13824 0.67897 0.55295 0.0
H1254 H 0.18076 0.72557 0.50987 0.0
C1255 C 0.13758 0.67927 0.67454 0.0
C1256 C 0.15252 0.69612 0.73758 0.0
H1257 H 0.12651 0.66574 0.50736 0.0
H1258 H 0.12545 0.66615 0.71898 0.0
C1259 C 0.16801 0.71273 0.67595 0.0
loop_
_geom_bond_atom_site_label_1
_geom_bond_atom_site_label_2
_geom_bond_distance
_geom_bond_site_symmetry_2
_ccdc_geom_bond_type
Nd0 C2 2.836 . S
Nd0 O20 2.500 . S
Nd0 O21 2.492 . S
Nd0 O22 2.487 . S
Nd0 O23 2.682 . S
Nd0 O24 2.410 . S
Nd0 O29 2.414 . S
Nd0 O31 2.424 . S
Nd1 C11 2.836 1_455 S
Nd1 O23 2.414 . S
Nd1 O25 2.424 . S
Nd1 O26 2.500 1_455 S
Nd1 O27 2.492 1_455 S
Nd1 O28 2.487 . S
Nd1 O29 2.682 . S
Nd1 O30 2.410 . S
C2 Nd0 2.836 . S
C2 C3 1.498 . S
C2 O20 1.258 . S
C2 O21 1.239 . S
C3 C2 1.498 . S
C3 C4 1.366 . S
C3 C8 1.407 . S
C4 C3 1.366 . S
C4 C5 1.392 . S
C4 H32 0.930 . S
C5 C4 1.392 . S
C5 C6 1.398 . S
C5 H33 0.929 . S
C6 C5 1.398 . S
C6 C7 1.352 . S
C7 C6 1.352 . S
C7 C8 1.384 . S
C7 H34 0.930 . S
C8 C3 1.407 . S
C8 C7 1.384 . S
C8 H35 0.929 . S
C9 O22 1.245 . S
C9 O23 1.272 . S
C10 O24 1.251 . S
C10 O25 1.268 . S
C11 Nd1 2.836 1_655 S
C11 C12 1.498 . S
C11 O26 1.258 . S
C11 O27 1.239 . S
C12 C11 1.498 . S
C12 C13 1.366 . S
C12 C17 1.407 . S
C13 C12 1.366 . S
C13 C14 1.392 . S
C13 H36 0.930 . S
C14 C13 1.392 . S
C14 C15 1.398 . S
C14 H37 0.929 1_556 S
C15 C14 1.398 . S
C15 C16 1.352 . S
C16 C15 1.352 . S
C16 C17 1.384 . S
C16 H38 0.930 . S
C17 C12 1.407 . S
C17 C16 1.384 . S
C17 H39 0.929 . S
C18 O28 1.241 . S
C18 O29 1.273 . S
C19 O30 1.251 . S
C19 O31 1.268 . S
O20 Nd0 2.500 . S
O20 C2 1.258 . S
O21 Nd0 2.492 . S
O21 C2 1.239 . S
O22 Nd0 2.487 . S
O22 C9 1.245 . S
O23 Nd0 2.682 . S
O23 Nd1 2.414 . S
O23 C9 1.272 . S
O24 Nd0 2.410 . S
O24 C10 1.251 . S
O25 Nd1 2.424 . S
O25 C10 1.268 . S
O26 Nd1 2.500 1_655 S
O26 C11 1.258 . S
O27 Nd1 2.492 1_655 S
O27 C11 1.239 . S
O28 Nd1 2.487 . S
O28 C18 1.241 . S
O29 Nd0 2.414 . S
O29 Nd1 2.682 . S
O29 C18 1.273 . S
O30 Nd1 2.410 . S
O30 C19 1.251 . S
O31 Nd0 2.424 . S
O31 C19 1.268 . S
H32 C4 0.930 . S
H33 C5 0.929 . S
H34 C7 0.930 . S
H35 C8 0.929 . S
H36 C13 0.930 . S
H37 C14 0.929 1_554 S
H38 C16 0.930 . S
H39 C17 0.929 . S
Nd40 C42 2.836 . S
Nd40 O60 2.500 . S
Nd40 O61 2.492 . S
Nd40 O62 2.487 . S
Nd40 O63 2.682 . S
Nd40 O64 2.410 . S
Nd40 O69 2.414 . S
Nd40 O71 2.424 . S
Nd41 C51 2.836 . S
Nd41 O63 2.414 . S
Nd41 O65 2.424 . S
Nd41 O66 2.500 . S
Nd41 O67 2.492 . S
Nd41 O68 2.487 . S
Nd41 O69 2.682 . S
Nd41 O70 2.410 . S
C42 Nd40 2.836 . S
C42 C43 1.498 . S
C42 O60 1.258 . S
C42 O61 1.239 . S
C43 C42 1.498 . S
C43 C44 1.366 . S
C43 C48 1.407 . S
C44 C43 1.366 . S
C44 C45 1.392 . S
C44 H72 0.930 . S
C45 C44 1.392 . S
C45 C46 1.398 . S
C45 H73 0.929 . S
C46 C45 1.398 . S
C46 C47 1.352 . S
C47 C46 1.352 . S
C47 C48 1.384 . S
C47 H74 0.930 . S
C48 C43 1.407 . S
C48 C47 1.384 . S
C48 H75 0.929 . S
C49 O62 1.241 . S
C49 O63 1.273 . S
C50 O64 1.251 . S
C50 O65 1.268 . S
C51 Nd41 2.836 . S
C51 C52 1.498 . S
C51 O66 1.258 . S
C51 O67 1.239 . S
C52 C51 1.498 . S
C52 C53 1.366 . S
C52 C57 1.407 . S
C53 C52 1.366 . S
C53 C54 1.392 . S
C53 H76 0.930 . S
C54 C53 1.392 . S
C54 C55 1.398 . S
C54 H77 0.929 1_556 S
C55 C54 1.398 . S
C55 C56 1.352 . S
C56 C55 1.352 . S
C56 C57 1.384 . S
C56 H78 0.930 . S
C57 C52 1.407 . S
C57 C56 1.384 . S
C57 H79 0.929 . S
C58 O68 1.241 . S
C58 O69 1.273 . S
C59 O70 1.251 . S
C59 O71 1.268 . S
O60 Nd40 2.500 . S
O60 C42 1.258 . S
O61 Nd40 2.492 . S
O61 C42 1.239 . S
O62 Nd40 2.487 . S
O62 C49 1.241 . S
O63 Nd40 2.682 . S
O63 Nd41 2.414 . S
O63 C49 1.273 . S
O64 Nd40 2.410 . S
O64 C50 1.251 . S
O65 Nd41 2.424 . S
O65 C50 1.268 . S
O66 Nd41 2.500 . S
O66 C51 1.258 . S
O67 Nd41 2.492 . S
O67 C51 1.239 . S
O68 Nd41 2.487 . S
O68 C58 1.241 . S
O69 Nd40 2.414 . S
O69 Nd41 2.682 . S
O69 C58 1.273 . S
O70 Nd41 2.410 . S
O70 C59 1.251 . S
O71 Nd40 2.424 . S
O71 C59 1.268 . S
H72 C44 0.930 . S
H73 C45 0.929 . S
H74 C47 0.930 . S
H75 C48 0.929 . S
H76 C53 0.930 . S
H77 C54 0.929 1_554 S
H78 C56 0.930 . S
H79 C57 0.929 . S
Nd80 C82 2.836 1_545 S
Nd80 O100 2.500 1_545 S
Nd80 O101 2.492 1_545 S
Nd80 O102 2.487 . S
Nd80 O103 2.682 . S
Nd80 O104 2.410 . S
Nd80 O109 2.422 . S
Nd80 O111 2.424 . S
Nd81 C91 2.836 . S
Nd81 O103 2.414 . S
Nd81 O105 2.424 . S
Nd81 O106 2.500 . S
Nd81 O107 2.492 . S
Nd81 O108 2.487 . S
Nd81 O109 2.693 . S
Nd81 O110 2.410 . S
C82 Nd80 2.836 1_565 S
C82 C83 1.498 . S
C82 O100 1.258 . S
C82 O101 1.239 . S
C83 C82 1.498 . S
C83 C84 1.366 . S
C83 C88 1.407 . S
C84 C83 1.366 . S
C84 C85 1.392 . S
C84 H112 0.930 . S
C85 C84 1.392 . S
C85 C86 1.398 . S
C85 H113 0.929 . S
C86 C85 1.398 . S
C86 C87 1.352 . S
C87 C86 1.352 . S
C87 C88 1.384 . S
C87 H114 0.930 . S
C88 C83 1.407 . S
C88 C87 1.384 . S
C88 H115 0.929 . S
C89 O102 1.241 . S
C89 O103 1.273 . S
C90 O104 1.251 . S
C90 O105 1.268 . S
C91 Nd81 2.836 . S
C91 C92 1.498 . S
C91 O106 1.258 . S
C91 O107 1.239 . S
C92 C91 1.498 . S
C92 C93 1.366 . S
C92 C97 1.407 . S
C93 C92 1.366 . S
C93 C94 1.392 . S
C93 H116 0.930 . S
C94 C93 1.392 . S
C94 C95 1.398 . S
C94 H117 0.929 1_556 S
C95 C94 1.398 . S
C95 C96 1.352 . S
C96 C95 1.352 . S
C96 C97 1.384 . S
C96 H118 0.930 . S
C97 C92 1.407 . S
C97 C96 1.384 . S
C97 H119 0.929 . S
C98 O108 1.241 1_565 S
C98 O109 1.262 1_565 S
C99 O110 1.251 . S
C99 O111 1.268 . S
O100 Nd80 2.500 1_565 S
O100 C82 1.258 . S
O101 Nd80 2.492 1_565 S
O101 C82 1.239 . S
O102 Nd80 2.487 . S
O102 C89 1.241 . S
O103 Nd80 2.682 . S
O103 Nd81 2.414 . S
O103 C89 1.273 . S
O104 Nd80 2.410 . S
O104 C90 1.251 . S
O105 Nd81 2.424 . S
O105 C90 1.268 . S
O106 Nd81 2.500 . S
O106 C91 1.258 . S
O107 Nd81 2.492 . S
O107 C91 1.239 . S
O108 Nd81 2.487 . S
O108 C98 1.241 1_545 S
O109 Nd80 2.422 . S
O109 Nd81 2.693 . S
O109 C98 1.262 1_545 S
O110 Nd81 2.410 . S
O110 C99 1.251 . S
O111 Nd80 2.424 . S
O111 C99 1.268 . S
H112 C84 0.930 . S
H113 C85 0.929 . S
H114 C87 0.930 . S
H115 C88 0.929 . S
H116 C93 0.930 . S
H117 C94 0.929 1_554 S
H118 C96 0.930 . S
H119 C97 0.929 . S
Nd120 C122 2.836 . S
Nd120 O140 2.500 . S
Nd120 O141 2.492 . S
Nd120 O142 2.487 . S
Nd120 O143 2.682 . S
Nd120 O144 2.410 . S
Nd120 O149 2.414 . S
Nd120 O151 2.424 . S
Nd121 C131 2.836 1_455 S
Nd121 O143 2.414 . S
Nd121 O145 2.424 . S
Nd121 O146 2.500 1_455 S
Nd121 O147 2.492 1_455 S
Nd121 O148 2.487 . S
Nd121 O149 2.682 . S
Nd121 O150 2.410 . S
C122 Nd120 2.836 . S
C122 C123 1.498 . S
C122 O140 1.258 . S
C122 O141 1.239 . S
C123 C122 1.498 . S
C123 C124 1.366 . S
C123 C128 1.407 . S
C124 C123 1.366 . S
C124 C125 1.392 . S
C124 H152 0.930 . S
C125 C124 1.392 . S
C125 C126 1.398 . S
C125 H153 0.929 1_554 S
C126 C125 1.398 . S
C126 C127 1.352 . S
C127 C126 1.352 . S
C127 C128 1.384 . S
C127 H154 0.930 . S
C128 C123 1.407 . S
C128 C127 1.384 . S
C128 H155 0.929 . S
C129 O142 1.241 1_655 S
C129 O143 1.273 1_655 S
C130 O144 1.251 . S
C130 O145 1.268 . S
C131 Nd121 2.836 1_655 S
C131 C132 1.498 . S
C131 O146 1.258 . S
C131 O147 1.239 . S
C132 C131 1.498 . S
C132 C133 1.366 . S
C132 C137 1.407 . S
C133 C132 1.366 . S
C133 C134 1.392 . S
C133 H156 0.930 . S
C134 C133 1.392 . S
C134 C135 1.398 . S
C134 H157 0.929 . S
C135 C134 1.398 . S
C135 C136 1.352 . S
C136 C135 1.352 . S
C136 C137 1.384 . S
C136 H158 0.930 . S
C137 C132 1.407 . S
C137 C136 1.384 . S
C137 H159 0.929 . S
C138 O148 1.241 . S
C138 O149 1.273 . S
C139 O150 1.251 . S
C139 O151 1.268 . S
O140 Nd120 2.500 . S
O140 C122 1.258 . S
O141 Nd120 2.492 . S
O141 C122 1.239 . S
O142 Nd120 2.487 . S
O142 C129 1.241 1_455 S
O143 Nd120 2.682 . S
O143 Nd121 2.414 . S
O143 C129 1.273 1_455 S
O144 Nd120 2.410 . S
O144 C130 1.251 . S
O145 Nd121 2.424 . S
O145 C130 1.268 . S
O146 Nd121 2.500 1_655 S
O146 C131 1.258 . S
O147 Nd121 2.492 1_655 S
O147 C131 1.239 . S
O148 Nd121 2.487 . S
O148 C138 1.241 . S
O149 Nd120 2.414 . S
O149 Nd121 2.682 . S
O149 C138 1.273 . S
O150 Nd121 2.410 . S
O150 C139 1.251 . S
O151 Nd120 2.424 . S
O151 C139 1.268 . S
H152 C124 0.930 . S
H153 C125 0.929 1_556 S
H154 C127 0.930 . S
H155 C128 0.929 . S
H156 C133 0.930 . S
H157 C134 0.929 . S
H158 C136 0.930 . S
H159 C137 0.929 . S
Nd160 C162 2.836 . S
Nd160 O180 2.500 . S
Nd160 O181 2.492 . S
Nd160 O182 2.487 . S
Nd160 O183 2.682 . S
Nd160 O184 2.410 . S
Nd160 O189 2.414 . S
Nd160 O191 2.424 . S
Nd161 C171 2.836 . S
Nd161 O183 2.414 . S
Nd161 O185 2.424 . S
Nd161 O186 2.500 . S
Nd161 O187 2.492 . S
Nd161 O188 2.487 . S
Nd161 O189 2.682 . S
Nd161 O190 2.410 . S
C162 Nd160 2.836 . S
C162 C163 1.498 . S
C162 O180 1.258 . S
C162 O181 1.239 . S
C163 C162 1.498 . S
C163 C164 1.366 . S
C163 C168 1.407 . S
C164 C163 1.366 . S
C164 C165 1.392 . S
C164 H192 0.930 . S
C165 C164 1.392 . S
C165 C166 1.398 . S
C165 H193 0.929 1_554 S
C166 C165 1.398 . S
C166 C167 1.352 . S
C167 C166 1.352 . S
C167 C168 1.384 . S
C167 H194 0.930 . S
C168 C163 1.407 . S
C168 C167 1.384 . S
C168 H195 0.929 . S
C169 O182 1.241 . S
C169 O183 1.273 . S
C170 O184 1.251 . S
C170 O185 1.268 . S
C171 Nd161 2.836 . S
C171 C172 1.498 . S
C171 O186 1.258 . S
C171 O187 1.239 . S
C172 C171 1.498 . S
C172 C173 1.366 . S
C172 C177 1.407 . S
C173 C172 1.366 . S
C173 C174 1.392 . S
C173 H196 0.930 . S
C174 C173 1.392 . S
C174 C175 1.398 . S
C174 H197 0.929 . S
C175 C174 1.398 . S
C175 C176 1.352 . S
C176 C175 1.352 . S
C176 C177 1.384 . S
C176 H198 0.930 . S
C177 C172 1.407 . S
C177 C176 1.384 . S
C177 H199 0.929 . S
C178 O188 1.241 . S
C178 O189 1.273 . S
C179 O190 1.251 . S
C179 O191 1.268 . S
O180 Nd160 2.500 . S
O180 C162 1.258 . S
O181 Nd160 2.492 . S
O181 C162 1.239 . S
O182 Nd160 2.487 . S
O182 C169 1.241 . S
O183 Nd160 2.682 . S
O183 Nd161 2.414 . S
O183 C169 1.273 . S
O184 Nd160 2.410 . S
O184 C170 1.251 . S
O185 Nd161 2.424 . S
O185 C170 1.268 . S
O186 Nd161 2.500 . S
O186 C171 1.258 . S
O187 Nd161 2.492 . S
O187 C171 1.239 . S
O188 Nd161 2.487 . S
O188 C178 1.241 . S
O189 Nd160 2.414 . S
O189 Nd161 2.682 . S
O189 C178 1.273 . S
O190 Nd161 2.410 . S
O190 C179 1.251 . S
O191 Nd160 2.424 . S
O191 C179 1.268 . S
H192 C164 0.930 . S
H193 C165 0.929 1_556 S
H194 C167 0.930 . S
H195 C168 0.929 . S
H196 C173 0.930 . S
H197 C174 0.929 . S
H198 C176 0.930 . S
H199 C177 0.929 . S
Nd200 C202 2.836 1_545 S
Nd200 O220 2.500 1_545 S
Nd200 O221 2.492 1_545 S
Nd200 O222 2.487 . S
Nd200 O223 2.682 . S
Nd200 O224 2.410 . S
Nd200 O229 2.414 . S
Nd200 O231 2.424 . S
Nd201 C211 2.836 . S
Nd201 O223 2.414 . S
Nd201 O225 2.424 . S
Nd201 O226 2.500 . S
Nd201 O227 2.492 . S
Nd201 O228 2.487 . S
Nd201 O229 2.682 . S
Nd201 O230 2.410 . S
C202 Nd200 2.836 1_565 S
C202 C203 1.498 . S
C202 O220 1.258 . S
C202 O221 1.239 . S
C203 C202 1.498 . S
C203 C204 1.366 . S
C203 C208 1.407 . S
C204 C203 1.366 . S
C204 C205 1.392 . S
C204 H232 0.930 . S
C205 C204 1.392 . S
C205 C206 1.398 . S
C205 H233 0.929 1_554 S
C206 C205 1.398 . S
C206 C207 1.352 . S
C207 C206 1.352 . S
C207 C208 1.384 . S
C207 H234 0.930 . S
C208 C203 1.407 . S
C208 C207 1.384 . S
C208 H235 0.929 . S
C209 O222 1.241 . S
C209 O223 1.273 . S
C210 O224 1.251 . S
C210 O225 1.268 . S
C211 Nd201 2.836 . S
C211 C212 1.498 . S
C211 O226 1.258 . S
C211 O227 1.239 . S
C212 C211 1.498 . S
C212 C213 1.366 . S
C212 C217 1.407 . S
C213 C212 1.366 . S
C213 C214 1.392 . S
C213 H236 0.930 . S
C214 C213 1.392 . S
C214 C215 1.398 . S
C214 H237 0.929 . S
C215 C214 1.398 . S
C215 C216 1.352 . S
C216 C215 1.352 . S
C216 C217 1.384 . S
C216 H238 0.930 . S
C217 C212 1.407 . S
C217 C216 1.384 . S
C217 H239 0.929 . S
C218 O228 1.241 1_565 S
C218 O229 1.273 1_565 S
C219 O230 1.251 . S
C219 O231 1.268 . S
O220 Nd200 2.500 1_565 S
O220 C202 1.258 . S
O221 Nd200 2.492 1_565 S
O221 C202 1.239 . S
O222 Nd200 2.487 . S
O222 C209 1.241 . S
O223 Nd200 2.682 . S
O223 Nd201 2.414 . S
O223 C209 1.273 . S
O224 Nd200 2.410 . S
O224 C210 1.251 . S
O225 Nd201 2.424 . S
O225 C210 1.268 . S
O226 Nd201 2.500 . S
O226 C211 1.258 . S
O227 Nd201 2.492 . S
O227 C211 1.239 . S
O228 Nd201 2.487 . S
O228 C218 1.241 1_545 S
O229 Nd200 2.414 . S
O229 Nd201 2.682 . S
O229 C218 1.273 1_545 S
O230 Nd201 2.410 . S
O230 C219 1.251 . S
O231 Nd200 2.424 . S
O231 C219 1.268 . S
H232 C204 0.930 . S
H233 C205 0.929 1_556 S
H234 C207 0.930 . S
H235 C208 0.929 . S
H236 C213 0.930 . S
H237 C214 0.929 . S
H238 C216 0.930 . S
H239 C217 0.929 . S
Nd240 C242 2.836 1_554 S
Nd240 O260 2.500 1_554 S
Nd240 O261 2.492 1_554 S
Nd240 O262 2.487 . S
Nd240 O263 2.682 . S
Nd240 O264 2.410 1_554 S
Nd240 O269 2.414 1_554 S
Nd240 O271 2.424 . S
Nd241 C251 2.836 1_556 S
Nd241 O263 2.414 1_556 S
Nd241 O265 2.424 . S
Nd241 O266 2.500 1_556 S
Nd241 O267 2.492 1_556 S
Nd241 O268 2.487 . S
Nd241 O269 2.682 . S
Nd241 O270 2.410 1_556 S
C242 Nd240 2.836 1_556 S
C242 C243 1.498 . S
C242 O260 1.258 . S
C242 O261 1.239 . S
C243 C242 1.498 . S
C243 C244 1.366 . S
C243 C248 1.407 . S
C244 C243 1.366 . S
C244 C245 1.392 . S
C244 H272 0.930 . S
C245 C244 1.392 . S
C245 C246 1.398 . S
C245 H273 0.929 . S
C246 C245 1.398 . S
C246 C247 1.352 . S
C247 C246 1.352 . S
C247 C248 1.384 . S
C247 H274 0.930 . S
C248 C243 1.407 . S
C248 C247 1.384 . S
C248 H275 0.929 . S
C249 O262 1.241 . S
C249 O263 1.273 . S
C250 O264 1.251 . S
C250 O265 1.268 . S
C251 Nd241 2.836 1_554 S
C251 C252 1.498 . S
C251 O266 1.258 . S
C251 O267 1.239 . S
C252 C251 1.498 . S
C252 C253 1.366 . S
C252 C257 1.407 . S
C253 C252 1.366 . S
C253 C254 1.392 . S
C253 H276 0.930 . S
C254 C253 1.392 . S
C254 C255 1.398 . S
C254 H277 0.929 . S
C255 C254 1.398 . S
C255 C256 1.352 . S
C256 C255 1.352 . S
C256 C257 1.384 . S
C256 H278 0.930 . S
C257 C252 1.407 . S
C257 C256 1.384 . S
C257 H279 0.929 . S
C258 O268 1.241 . S
C258 O269 1.273 . S
C259 O270 1.251 . S
C259 O271 1.268 . S
O260 Nd240 2.500 1_556 S
O260 C242 1.258 . S
O261 Nd240 2.492 1_556 S
O261 C242 1.239 . S
O262 Nd240 2.487 . S
O262 C249 1.241 . S
O263 Nd240 2.682 . S
O263 Nd241 2.414 1_554 S
O263 C249 1.273 . S
O264 Nd240 2.410 1_556 S
O264 C250 1.251 . S
O265 Nd241 2.424 . S
O265 C250 1.268 . S
O266 Nd241 2.500 1_554 S
O266 C251 1.258 . S
O267 Nd241 2.492 1_554 S
O267 C251 1.239 . S
O268 Nd241 2.487 . S
O268 C258 1.241 . S
O269 Nd240 2.414 1_556 S
O269 Nd241 2.682 . S
O269 C258 1.273 . S
O270 Nd241 2.410 1_554 S
O270 C259 1.251 . S
O271 Nd240 2.424 . S
O271 C259 1.268 . S
H272 C244 0.930 . S
H273 C245 0.929 . S
H274 C247 0.930 . S
H275 C248 0.929 . S
H276 C253 0.930 . S
H277 C254 0.929 . S
H278 C256 0.930 . S
H279 C257 0.929 . S
Nd280 C282 2.836 1_554 S
Nd280 O300 2.500 1_554 S
Nd280 O301 2.492 1_554 S
Nd280 O302 2.487 . S
Nd280 O303 2.682 . S
Nd280 O304 2.410 1_554 S
Nd280 O309 2.414 1_554 S
Nd280 O311 2.424 . S
Nd281 C291 2.836 1_556 S
Nd281 O303 2.414 1_556 S
Nd281 O305 2.424 . S
Nd281 O306 2.500 1_556 S
Nd281 O307 2.492 1_556 S
Nd281 O308 2.487 . S
Nd281 O309 2.682 . S
Nd281 O310 2.410 1_556 S
C282 Nd280 2.836 1_556 S
C282 C283 1.498 . S
C282 O300 1.258 . S
C282 O301 1.239 . S
C283 C282 1.498 . S
C283 C284 1.366 . S
C283 C288 1.407 . S
C284 C283 1.366 . S
C284 C285 1.392 . S
C284 H312 0.930 . S
C285 C284 1.392 . S
C285 C286 1.398 . S
C285 H313 0.929 . S
C286 C285 1.398 . S
C286 C287 1.352 . S
C287 C286 1.352 . S
C287 C288 1.384 . S
C287 H314 0.930 . S
C288 C283 1.407 . S
C288 C287 1.384 . S
C288 H315 0.929 . S
C289 O302 1.241 . S
C289 O303 1.273 . S
C290 O304 1.251 . S
C290 O305 1.268 . S
C291 Nd281 2.836 1_554 S
C291 C292 1.498 . S
C291 O306 1.258 . S
C291 O307 1.239 . S
C292 C291 1.498 . S
C292 C293 1.366 . S
C292 C297 1.407 . S
C293 C292 1.366 . S
C293 C294 1.392 . S
C293 H316 0.930 . S
C294 C293 1.392 . S
C294 C295 1.398 . S
C294 H317 0.929 . S
C295 C294 1.398 . S
C295 C296 1.352 . S
C296 C295 1.352 . S
C296 C297 1.384 . S
C296 H318 0.930 . S
C297 C292 1.407 . S
C297 C296 1.384 . S
C297 H319 0.929 . S
C298 O308 1.241 . S
C298 O309 1.273 . S
C299 O310 1.251 . S
C299 O311 1.268 . S
O300 Nd280 2.500 1_556 S
O300 C282 1.258 . S
O301 Nd280 2.492 1_556 S
O301 C282 1.239 . S
O302 Nd280 2.487 . S
O302 C289 1.241 . S
O303 Nd280 2.682 . S
O303 Nd281 2.414 1_554 S
O303 C289 1.273 . S
O304 Nd280 2.410 1_556 S
O304 C290 1.251 . S
O305 Nd281 2.424 . S
O305 C290 1.268 . S
O306 Nd281 2.500 1_554 S
O306 C291 1.258 . S
O307 Nd281 2.492 1_554 S
O307 C291 1.239 . S
O308 Nd281 2.487 . S
O308 C298 1.241 . S
O309 Nd280 2.414 1_556 S
O309 Nd281 2.682 . S
O309 C298 1.273 . S
O310 Nd281 2.410 1_554 S
O310 C299 1.251 . S
O311 Nd280 2.424 . S
O311 C299 1.268 . S
H312 C284 0.930 . S
H313 C285 0.929 . S
H314 C287 0.930 . S
H315 C288 0.929 . S
H316 C293 0.930 . S
H317 C294 0.929 . S
H318 C296 0.930 . S
H319 C297 0.929 . S
Nd320 C322 2.836 1_554 S
Nd320 O340 2.500 1_554 S
Nd320 O341 2.492 1_554 S
Nd320 O342 2.487 . S
Nd320 O343 2.682 . S
Nd320 O344 2.410 1_554 S
Nd320 O349 2.414 1_554 S
Nd320 O351 2.424 . S
Nd321 C331 2.836 1_556 S
Nd321 O343 2.414 1_556 S
Nd321 O345 2.424 . S
Nd321 O346 2.500 1_556 S
Nd321 O347 2.492 1_556 S
Nd321 O348 2.487 . S
Nd321 O349 2.682 . S
Nd321 O350 2.410 1_556 S
C322 Nd320 2.836 1_556 S
C322 C323 1.498 . S
C322 O340 1.258 . S
C322 O341 1.239 . S
C323 C322 1.498 . S
C323 C324 1.366 . S
C323 C328 1.407 . S
C324 C323 1.366 . S
C324 C325 1.392 . S
C324 H352 0.930 . S
C325 C324 1.392 . S
C325 C326 1.398 . S
C325 H353 0.929 . S
C326 C325 1.398 . S
C326 C327 1.352 . S
C327 C326 1.352 . S
C327 C328 1.384 . S
C327 H354 0.930 . S
C328 C323 1.407 . S
C328 C327 1.384 . S
C328 H355 0.929 . S
C329 O342 1.241 . S
C329 O343 1.273 . S
C330 O344 1.251 . S
C330 O345 1.268 . S
C331 Nd321 2.836 1_554 S
C331 C332 1.498 . S
C331 O346 1.258 . S
C331 O347 1.239 . S
C332 C331 1.498 . S
C332 C333 1.366 . S
C332 C337 1.407 . S
C333 C332 1.366 . S
C333 C334 1.392 . S
C333 H356 0.930 . S
C334 C333 1.392 . S
C334 C335 1.398 1_655 S
C334 H357 0.929 . S
C335 C334 1.398 1_455 S
C335 C336 1.352 . S
C336 C335 1.352 . S
C336 C337 1.384 1_455 S
C336 H358 0.930 . S
C337 C332 1.407 . S
C337 C336 1.384 1_655 S
C337 H359 0.929 . S
C338 O348 1.241 . S
C338 O349 1.273 . S
C339 O350 1.251 . S
C339 O351 1.268 . S
O340 Nd320 2.500 1_556 S
O340 C322 1.258 . S
O341 Nd320 2.492 1_556 S
O341 C322 1.239 . S
O342 Nd320 2.487 . S
O342 C329 1.241 . S
O343 Nd320 2.682 . S
O343 Nd321 2.414 1_554 S
O343 C329 1.273 . S
O344 Nd320 2.410 1_556 S
O344 C330 1.251 . S
O345 Nd321 2.424 . S
O345 C330 1.268 . S
O346 Nd321 2.500 1_554 S
O346 C331 1.258 . S
O347 Nd321 2.492 1_554 S
O347 C331 1.239 . S
O348 Nd321 2.487 . S
O348 C338 1.241 . S
O349 Nd320 2.414 1_556 S
O349 Nd321 2.682 . S
O349 C338 1.273 . S
O350 Nd321 2.410 1_554 S
O350 C339 1.251 . S
O351 Nd320 2.424 . S
O351 C339 1.268 . S
H352 C324 0.930 . S
H353 C325 0.929 . S
H354 C327 0.930 . S
H355 C328 0.929 . S
H356 C333 0.930 . S
H357 C334 0.929 . S
H358 C336 0.930 . S
H359 C337 0.929 . S
Nd360 C362 2.836 . S
Nd360 O380 2.500 . S
Nd360 O381 2.492 . S
Nd360 O382 2.487 . S
Nd360 O383 2.682 . S
Nd360 O384 2.410 . S
Nd360 O389 2.414 . S
Nd360 O391 2.424 . S
Nd361 C371 2.836 . S
Nd361 O383 2.414 . S
Nd361 O385 2.424 . S
Nd361 O386 2.500 . S
Nd361 O387 2.492 . S
Nd361 O388 2.487 . S
Nd361 O389 2.682 . S
Nd361 O390 2.410 . S
C362 Nd360 2.836 . S
C362 C363 1.498 . S
C362 O380 1.258 . S
C362 O381 1.239 . S
C363 C362 1.498 . S
C363 C364 1.366 . S
C363 C368 1.407 . S
C364 C363 1.366 . S
C364 C365 1.392 . S
C364 H392 0.930 . S
C365 C364 1.392 . S
C365 C366 1.398 . S
C365 H393 0.929 . S
C366 C365 1.398 . S
C366 C367 1.352 . S
C367 C366 1.352 . S
C367 C368 1.384 . S
C367 H394 0.930 . S
C368 C363 1.407 . S
C368 C367 1.384 . S
C368 H395 0.929 . S
C369 O382 1.241 . S
C369 O383 1.273 . S
C370 O384 1.251 . S
C370 O385 1.268 . S
C371 Nd361 2.836 . S
C371 C372 1.498 . S
C371 O386 1.258 . S
C371 O387 1.239 . S
C372 C371 1.498 . S
C372 C373 1.366 . S
C372 C377 1.407 . S
C373 C372 1.366 . S
C373 C374 1.392 . S
C373 H396 0.930 . S
C374 C373 1.392 . S
C374 C375 1.398 . S
C374 H397 0.929 . S
C375 C374 1.398 . S
C375 C376 1.352 . S
C376 C375 1.352 . S
C376 C377 1.384 . S
C376 H398 0.930 . S
C377 C372 1.407 . S
C377 C376 1.384 . S
C377 H399 0.929 . S
C378 O388 1.241 . S
C378 O389 1.273 . S
C379 O390 1.251 . S
C379 O391 1.268 . S
O380 Nd360 2.500 . S
O380 C362 1.258 . S
O381 Nd360 2.492 . S
O381 C362 1.239 . S
O382 Nd360 2.487 . S
O382 C369 1.241 . S
O383 Nd360 2.682 . S
O383 Nd361 2.414 . S
O383 C369 1.273 . S
O384 Nd360 2.410 . S
O384 C370 1.251 . S
O385 Nd361 2.424 . S
O385 C370 1.268 . S
O386 Nd361 2.500 . S
O386 C371 1.258 . S
O387 Nd361 2.492 . S
O387 C371 1.239 . S
O388 Nd361 2.487 . S
O388 C378 1.241 . S
O389 Nd360 2.414 . S
O389 Nd361 2.682 . S
O389 C378 1.273 . S
O390 Nd361 2.410 . S
O390 C379 1.251 . S
O391 Nd360 2.424 . S
O391 C379 1.268 . S
H392 C364 0.930 . S
H393 C365 0.929 . S
H394 C367 0.930 . S
H395 C368 0.929 . S
H396 C373 0.930 . S
H397 C374 0.929 . S
H398 C376 0.930 . S
H399 C377 0.929 . S
Nd400 C402 2.836 . S
Nd400 O420 2.500 . S
Nd400 O421 2.492 . S
Nd400 O422 2.487 . S
Nd400 O423 2.682 . S
Nd400 O424 2.410 . S
Nd400 O429 2.414 . S
Nd400 O431 2.424 . S
Nd401 C411 2.836 . S
Nd401 O423 2.414 . S
Nd401 O425 2.424 . S
Nd401 O426 2.500 . S
Nd401 O427 2.492 . S
Nd401 O428 2.487 . S
Nd401 O429 2.682 . S
Nd401 O430 2.410 . S
C402 Nd400 2.836 . S
C402 C403 1.498 . S
C402 O420 1.258 . S
C402 O421 1.239 . S
C403 C402 1.498 . S
C403 C404 1.366 . S
C403 C408 1.407 . S
C404 C403 1.366 . S
C404 C405 1.392 . S
C404 H432 0.930 . S
C405 C404 1.392 . S
C405 C406 1.398 . S
C405 H433 0.929 . S
C406 C405 1.398 . S
C406 C407 1.352 . S
C407 C406 1.352 . S
C407 C408 1.384 . S
C407 H434 0.930 . S
C408 C403 1.407 . S
C408 C407 1.384 . S
C408 H435 0.929 . S
C409 O422 1.241 . S
C409 O423 1.273 . S
C410 O424 1.251 . S
C410 O425 1.268 . S
C411 Nd401 2.836 . S
C411 C412 1.498 . S
C411 O426 1.258 . S
C411 O427 1.239 . S
C412 C411 1.498 . S
C412 C413 1.366 . S
C412 C417 1.407 . S
C413 C412 1.366 . S
C413 C414 1.392 . S
C413 H436 0.930 . S
C414 C413 1.392 . S
C414 C415 1.398 . S
C414 H437 0.929 . S
C415 C414 1.398 . S
C415 C416 1.352 . S
C416 C415 1.352 . S
C416 C417 1.384 . S
C416 H438 0.930 . S
C417 C412 1.407 . S
C417 C416 1.384 . S
C417 H439 0.929 . S
C418 O428 1.241 . S
C418 O429 1.273 . S
C419 O430 1.251 . S
C419 O431 1.268 . S
O420 Nd400 2.500 . S
O420 C402 1.258 . S
O421 Nd400 2.492 . S
O421 C402 1.239 . S
O422 Nd400 2.487 . S
O422 C409 1.241 . S
O423 Nd400 2.682 . S
O423 Nd401 2.414 . S
O423 C409 1.273 . S
O424 Nd400 2.410 . S
O424 C410 1.251 . S
O425 Nd401 2.424 . S
O425 C410 1.268 . S
O426 Nd401 2.500 . S
O426 C411 1.258 . S
O427 Nd401 2.492 . S
O427 C411 1.239 . S
O428 Nd401 2.487 . S
O428 C418 1.241 . S
O429 Nd400 2.414 . S
O429 Nd401 2.682 . S
O429 C418 1.273 . S
O430 Nd401 2.410 . S
O430 C419 1.251 . S
O431 Nd400 2.424 . S
O431 C419 1.268 . S
H432 C404 0.930 . S
H433 C405 0.929 . S
H434 C407 0.930 . S
H435 C408 0.929 . S
H436 C413 0.930 . S
H437 C414 0.929 . S
H438 C416 0.930 . S
H439 C417 0.929 . S
Nd440 C442 2.836 . S
Nd440 O460 2.500 . S
Nd440 O461 2.492 . S
Nd440 O462 2.487 . S
Nd440 O463 2.682 . S
Nd440 O464 2.410 . S
Nd440 O469 2.414 . S
Nd440 O471 2.424 . S
Nd441 C451 2.836 . S
Nd441 O463 2.414 . S
Nd441 O465 2.424 . S
Nd441 O466 2.500 . S
Nd441 O467 2.492 . S
Nd441 O468 2.487 . S
Nd441 O469 2.682 . S
Nd441 O470 2.410 . S
C442 Nd440 2.836 . S
C442 C443 1.498 . S
C442 O460 1.258 . S
C442 O461 1.239 . S
C443 C442 1.498 . S
C443 C444 1.366 . S
C443 C448 1.407 . S
C444 C443 1.366 . S
C444 C445 1.392 . S
C444 H472 0.930 . S
C445 C444 1.392 . S
C445 C446 1.398 . S
C445 H473 0.929 . S
C446 C445 1.398 . S
C446 C447 1.352 . S
C447 C446 1.352 . S
C447 C448 1.384 . S
C447 H474 0.930 . S
C448 C443 1.407 . S
C448 C447 1.384 . S
C448 H475 0.929 . S
C449 O462 1.241 . S
C449 O463 1.273 . S
C450 O464 1.251 . S
C450 O465 1.268 . S
C451 Nd441 2.836 . S
C451 C452 1.498 . S
C451 O466 1.258 . S
C451 O467 1.239 . S
C452 C451 1.498 . S
C452 C453 1.366 . S
C452 C457 1.407 . S
C453 C452 1.366 . S
C453 C454 1.392 . S
C453 H476 0.930 . S
C454 C453 1.392 . S
C454 C455 1.398 . S
C454 H477 0.929 . S
C455 C454 1.398 . S
C455 C456 1.352 . S
C456 C455 1.352 . S
C456 C457 1.384 . S
C456 H478 0.930 . S
C457 C452 1.407 . S
C457 C456 1.384 . S
C457 H479 0.929 . S
C458 O468 1.241 . S
C458 O469 1.273 . S
C459 O470 1.251 . S
C459 O471 1.268 . S
O460 Nd440 2.500 . S
O460 C442 1.258 . S
O461 Nd440 2.492 . S
O461 C442 1.239 . S
O462 Nd440 2.487 . S
O462 C449 1.241 . S
O463 Nd440 2.682 . S
O463 Nd441 2.414 . S
O463 C449 1.273 . S
O464 Nd440 2.410 . S
O464 C450 1.251 . S
O465 Nd441 2.424 . S
O465 C450 1.268 . S
O466 Nd441 2.500 . S
O466 C451 1.258 . S
O467 Nd441 2.492 . S
O467 C451 1.239 . S
O468 Nd441 2.487 . S
O468 C458 1.241 . S
O469 Nd440 2.414 . S
O469 Nd441 2.682 . S
O469 C458 1.273 . S
O470 Nd441 2.410 . S
O470 C459 1.251 . S
O471 Nd440 2.424 . S
O471 C459 1.268 . S
H472 C444 0.930 . S
H473 C445 0.929 . S
H474 C447 0.930 . S
H475 C448 0.929 . S
H476 C453 0.930 . S
H477 C454 0.929 . S
H478 C456 0.930 . S
H479 C457 0.929 . S
Nd480 C482 2.836 . S
Nd480 O500 2.500 . S
Nd480 O501 2.492 . S
Nd480 O502 2.487 . S
Nd480 O503 2.682 . S
Nd480 O504 2.410 . S
Nd480 O509 2.414 . S
Nd480 O511 2.424 . S
Nd481 C491 2.836 . S
Nd481 O503 2.414 . S
Nd481 O505 2.424 . S
Nd481 O506 2.500 . S
Nd481 O507 2.492 . S
Nd481 O508 2.487 . S
Nd481 O509 2.682 . S
Nd481 O510 2.410 . S
C482 Nd480 2.836 . S
C482 C483 1.498 . S
C482 O500 1.258 . S
C482 O501 1.239 . S
C483 C482 1.498 . S
C483 C484 1.366 . S
C483 C488 1.407 . S
C484 C483 1.366 . S
C484 C485 1.392 . S
C484 H512 0.930 . S
C485 C484 1.392 . S
C485 C486 1.398 . S
C485 H513 0.929 . S
C486 C485 1.398 . S
C486 C487 1.352 . S
C487 C486 1.352 . S
C487 C488 1.384 . S
C487 H514 0.930 . S
C488 C483 1.407 . S
C488 C487 1.384 . S
C488 H515 0.929 . S
C489 O502 1.241 . S
C489 O503 1.273 . S
C490 O504 1.251 . S
C490 O505 1.268 . S
C491 Nd481 2.836 . S
C491 C492 1.498 . S
C491 O506 1.258 . S
C491 O507 1.239 . S
C492 C491 1.498 . S
C492 C493 1.366 . S
C492 C497 1.407 . S
C493 C492 1.366 . S
C493 C494 1.392 . S
C493 H516 0.930 . S
C494 C493 1.392 . S
C494 C495 1.398 . S
C494 H517 0.929 . S
C495 C494 1.398 . S
C495 C496 1.352 . S
C496 C495 1.352 . S
C496 C497 1.384 . S
C496 H518 0.930 . S
C497 C492 1.407 . S
C497 C496 1.384 . S
C497 H519 0.929 . S
C498 O508 1.241 . S
C498 O509 1.273 . S
C499 O510 1.251 . S
C499 O511 1.268 . S
O500 Nd480 2.500 . S
O500 C482 1.258 . S
O501 Nd480 2.492 . S
O501 C482 1.239 . S
O502 Nd480 2.487 . S
O502 C489 1.241 . S
O503 Nd480 2.682 . S
O503 Nd481 2.414 . S
O503 C489 1.273 . S
O504 Nd480 2.410 . S
O504 C490 1.251 . S
O505 Nd481 2.424 . S
O505 C490 1.268 . S
O506 Nd481 2.500 . S
O506 C491 1.258 . S
O507 Nd481 2.492 . S
O507 C491 1.239 . S
O508 Nd481 2.487 . S
O508 C498 1.241 . S
O509 Nd480 2.414 . S
O509 Nd481 2.682 . S
O509 C498 1.273 . S
O510 Nd481 2.410 . S
O510 C499 1.251 . S
O511 Nd480 2.424 . S
O511 C499 1.268 . S
H512 C484 0.930 . S
H513 C485 0.929 . S
H514 C487 0.930 . S
H515 C488 0.929 . S
H516 C493 0.930 . S
H517 C494 0.929 . S
H518 C496 0.930 . S
H519 C497 0.929 . S
Nd520 C522 2.836 . S
Nd520 O540 2.500 . S
Nd520 O541 2.492 . S
Nd520 O542 2.487 . S
Nd520 O543 2.682 . S
Nd520 O544 2.410 . S
Nd520 O549 2.414 . S
Nd520 O551 2.424 . S
Nd521 C531 2.836 . S
Nd521 O543 2.414 . S
Nd521 O545 2.424 . S
Nd521 O546 2.500 . S
Nd521 O547 2.492 . S
Nd521 O548 2.487 . S
Nd521 O549 2.682 . S
Nd521 O550 2.410 . S
C522 Nd520 2.836 . S
C522 C523 1.498 . S
C522 O540 1.258 . S
C522 O541 1.239 . S
C523 C522 1.498 . S
C523 C524 1.366 . S
C523 C528 1.407 . S
C524 C523 1.366 . S
C524 C525 1.392 . S
C524 H552 0.930 . S
C525 C524 1.392 . S
C525 C526 1.398 . S
C525 H553 0.929 . S
C526 C525 1.398 . S
C526 C527 1.352 . S
C527 C526 1.352 . S
C527 C528 1.384 . S
C527 H554 0.930 . S
C528 C523 1.407 . S
C528 C527 1.384 . S
C528 H555 0.929 . S
C529 O542 1.241 . S
C529 O543 1.273 . S
C530 O544 1.251 . S
C530 O545 1.268 . S
C531 Nd521 2.836 . S
C531 C532 1.498 . S
C531 O546 1.258 . S
C531 O547 1.239 . S
C532 C531 1.498 . S
C532 C533 1.366 . S
C532 C537 1.407 . S
C533 C532 1.366 . S
C533 C534 1.392 . S
C533 H556 0.930 . S
C534 C533 1.392 . S
C534 C535 1.398 . S
C534 H557 0.929 . S
C535 C534 1.398 . S
C535 C536 1.352 . S
C536 C535 1.352 . S
C536 C537 1.384 . S
C536 H558 0.930 . S
C537 C532 1.407 . S
C537 C536 1.384 . S
C537 H559 0.929 . S
C538 O548 1.241 . S
C538 O549 1.273 . S
C539 O550 1.251 . S
C539 O551 1.268 . S
O540 Nd520 2.500 . S
O540 C522 1.258 . S
O541 Nd520 2.492 . S
O541 C522 1.239 . S
O542 Nd520 2.487 . S
O542 C529 1.241 . S
O543 Nd520 2.682 . S
O543 Nd521 2.414 . S
O543 C529 1.273 . S
O544 Nd520 2.410 . S
O544 C530 1.251 . S
O545 Nd521 2.424 . S
O545 C530 1.268 . S
O546 Nd521 2.500 . S
O546 C531 1.258 . S
O547 Nd521 2.492 . S
O547 C531 1.239 . S
O548 Nd521 2.487 . S
O548 C538 1.241 . S
O549 Nd520 2.414 . S
O549 Nd521 2.682 . S
O549 C538 1.273 . S
O550 Nd521 2.410 . S
O550 C539 1.251 . S
O551 Nd520 2.424 . S
O551 C539 1.268 . S
H552 C524 0.930 . S
H553 C525 0.929 . S
H554 C527 0.930 . S
H555 C528 0.929 . S
H556 C533 0.930 . S
H557 C534 0.929 . S
H558 C536 0.930 . S
H559 C537 0.929 . S
Nd560 C562 2.836 . S
Nd560 O580 2.500 . S
Nd560 O581 2.492 . S
Nd560 O582 2.487 . S
Nd560 O583 2.682 . S
Nd560 O584 2.410 . S
Nd560 O589 2.414 . S
Nd560 O591 2.424 . S
Nd561 C571 2.836 . S
Nd561 O583 2.414 . S
Nd561 O585 2.424 . S
Nd561 O586 2.500 . S
Nd561 O587 2.492 . S
Nd561 O588 2.487 . S
Nd561 O589 2.682 . S
Nd561 O590 2.410 . S
C562 Nd560 2.836 . S
C562 C563 1.498 . S
C562 O580 1.258 . S
C562 O581 1.239 . S
C563 C562 1.498 . S
C563 C564 1.366 . S
C563 C568 1.407 . S
C564 C563 1.366 . S
C564 C565 1.392 . S
C564 H592 0.930 . S
C565 C564 1.392 . S
C565 C566 1.398 . S
C565 H593 0.929 . S
C566 C565 1.398 . S
C566 C567 1.352 . S
C567 C566 1.352 . S
C567 C568 1.384 . S
C567 H594 0.930 . S
C568 C563 1.407 . S
C568 C567 1.384 . S
C568 H595 0.929 . S
C569 O582 1.241 . S
C569 O583 1.273 . S
C570 O584 1.251 . S
C570 O585 1.268 . S
C571 Nd561 2.836 . S
C571 C572 1.498 . S
C571 O586 1.258 . S
C571 O587 1.239 . S
C572 C571 1.498 . S
C572 C573 1.366 . S
C572 C577 1.407 . S
C573 C572 1.366 . S
C573 C574 1.392 . S
C573 H596 0.930 . S
C574 C573 1.392 . S
C574 C575 1.398 . S
C574 H597 0.929 . S
C575 C574 1.398 . S
C575 C576 1.352 . S
C576 C575 1.352 . S
C576 C577 1.384 . S
C576 H598 0.930 . S
C577 C572 1.407 . S
C577 C576 1.384 . S
C577 H599 0.929 . S
C578 O588 1.241 . S
C578 O589 1.273 . S
C579 O590 1.251 . S
C579 O591 1.268 . S
O580 Nd560 2.500 . S
O580 C562 1.258 . S
O581 Nd560 2.492 . S
O581 C562 1.239 . S
O582 Nd560 2.487 . S
O582 C569 1.241 . S
O583 Nd560 2.682 . S
O583 Nd561 2.414 . S
O583 C569 1.273 . S
O584 Nd560 2.410 . S
O584 C570 1.251 . S
O585 Nd561 2.424 . S
O585 C570 1.268 . S
O586 Nd561 2.500 . S
O586 C571 1.258 . S
O587 Nd561 2.492 . S
O587 C571 1.239 . S
O588 Nd561 2.487 . S
O588 C578 1.241 . S
O589 Nd560 2.414 . S
O589 Nd561 2.682 . S
O589 C578 1.273 . S
O590 Nd561 2.410 . S
O590 C579 1.251 . S
O591 Nd560 2.424 . S
O591 C579 1.268 . S
H592 C564 0.930 . S
H593 C565 0.929 . S
H594 C567 0.930 . S
H595 C568 0.929 . S
H596 C573 0.930 . S
H597 C574 0.929 . S
H598 C576 0.930 . S
H599 C577 0.929 . S
Nd600 C602 2.836 1_554 S
Nd600 O620 2.500 1_554 S
Nd600 O621 2.492 1_554 S
Nd600 O622 2.487 . S
Nd600 O623 2.682 . S
Nd600 O624 2.410 1_554 S
Nd600 O629 2.414 1_554 S
Nd600 O631 2.424 . S
Nd601 C611 2.836 1_556 S
Nd601 O623 2.414 1_556 S
Nd601 O625 2.424 . S
Nd601 O626 2.500 1_556 S
Nd601 O627 2.492 1_556 S
Nd601 O628 2.487 . S
Nd601 O629 2.682 . S
Nd601 O630 2.410 1_556 S
C602 Nd600 2.836 1_556 S
C602 C603 1.498 . S
C602 O620 1.258 . S
C602 O621 1.239 . S
C603 C602 1.498 . S
C603 C604 1.366 . S
C603 C608 1.407 . S
C604 C603 1.366 . S
C604 C605 1.392 . S
C604 H632 0.930 . S
C605 C604 1.392 . S
C605 C606 1.398 . S
C605 H633 0.929 . S
C606 C605 1.398 . S
C606 C607 1.352 . S
C607 C606 1.352 . S
C607 C608 1.384 . S
C607 H634 0.930 . S
C608 C603 1.407 . S
C608 C607 1.384 . S
C608 H635 0.929 . S
C609 O622 1.241 . S
C609 O623 1.273 . S
C610 O624 1.251 . S
C610 O625 1.268 . S
C611 Nd601 2.836 1_554 S
C611 C612 1.498 . S
C611 O626 1.258 . S
C611 O627 1.239 . S
C612 C611 1.498 . S
C612 C613 1.366 . S
C612 C617 1.407 . S
C613 C612 1.366 . S
C613 C614 1.392 . S
C613 H636 0.930 . S
C614 C613 1.392 . S
C614 C615 1.398 . S
C614 H637 0.929 . S
C615 C614 1.398 . S
C615 C616 1.352 . S
C616 C615 1.352 . S
C616 C617 1.384 . S
C616 H638 0.930 . S
C617 C612 1.407 . S
C617 C616 1.384 . S
C617 H639 0.929 . S
C618 O628 1.241 . S
C618 O629 1.273 . S
C619 O630 1.251 . S
C619 O631 1.268 . S
O620 Nd600 2.500 1_556 S
O620 C602 1.258 . S
O621 Nd600 2.492 1_556 S
O621 C602 1.239 . S
O622 Nd600 2.487 . S
O622 C609 1.241 . S
O623 Nd600 2.682 . S
O623 Nd601 2.414 1_554 S
O623 C609 1.273 . S
O624 Nd600 2.410 1_556 S
O624 C610 1.251 . S
O625 Nd601 2.424 . S
O625 C610 1.268 . S
O626 Nd601 2.500 1_554 S
O626 C611 1.258 . S
O627 Nd601 2.492 1_554 S
O627 C611 1.239 . S
O628 Nd601 2.487 . S
O628 C618 1.241 . S
O629 Nd600 2.414 1_556 S
O629 Nd601 2.682 . S
O629 C618 1.273 . S
O630 Nd601 2.410 1_554 S
O630 C619 1.251 . S
O631 Nd600 2.424 . S
O631 C619 1.268 . S
H632 C604 0.930 . S
H633 C605 0.929 . S
H634 C607 0.930 . S
H635 C608 0.929 . S
H636 C613 0.930 . S
H637 C614 0.929 . S
H638 C616 0.930 . S
H639 C617 0.929 . S
Nd640 C642 2.836 1_554 S
Nd640 O660 2.500 1_554 S
Nd640 O661 2.492 1_554 S
Nd640 O662 2.487 . S
Nd640 O663 2.682 . S
Nd640 O664 2.410 1_554 S
Nd640 O669 2.414 1_554 S
Nd640 O671 2.424 . S
Nd641 C651 2.836 1_556 S
Nd641 O663 2.414 1_556 S
Nd641 O665 2.424 . S
Nd641 O666 2.500 1_556 S
Nd641 O667 2.492 1_556 S
Nd641 O668 2.487 . S
Nd641 O669 2.682 . S
Nd641 O670 2.410 1_556 S
C642 Nd640 2.836 1_556 S
C642 C643 1.498 . S
C642 O660 1.258 . S
C642 O661 1.239 . S
C643 C642 1.498 . S
C643 C644 1.366 . S
C643 C648 1.407 . S
C644 C643 1.366 . S
C644 C645 1.392 . S
C644 H672 0.930 . S
C645 C644 1.392 . S
C645 C646 1.398 1_565 S
C645 H673 0.929 . S
C646 C645 1.398 1_545 S
C646 C647 1.352 . S
C647 C646 1.352 . S
C647 C648 1.384 1_545 S
C647 H674 0.930 . S
C648 C643 1.407 . S
C648 C647 1.384 1_565 S
C648 H675 0.929 . S
C649 O662 1.241 . S
C649 O663 1.273 . S
C650 O664 1.251 . S
C650 O665 1.268 . S
C651 Nd641 2.836 1_554 S
C651 C652 1.498 . S
C651 O666 1.258 . S
C651 O667 1.239 . S
C652 C651 1.498 . S
C652 C653 1.366 . S
C652 C657 1.407 . S
C653 C652 1.366 . S
C653 C654 1.392 . S
C653 H676 0.930 . S
C654 C653 1.392 . S
C654 C655 1.398 . S
C654 H677 0.929 . S
C655 C654 1.398 . S
C655 C656 1.352 . S
C656 C655 1.352 . S
C656 C657 1.384 . S
C656 H678 0.930 . S
C657 C652 1.407 . S
C657 C656 1.384 . S
C657 H679 0.929 . S
C658 O668 1.241 . S
C658 O669 1.273 . S
C659 O670 1.251 . S
C659 O671 1.268 . S
O660 Nd640 2.500 1_556 S
O660 C642 1.258 . S
O661 Nd640 2.492 1_556 S
O661 C642 1.239 . S
O662 Nd640 2.487 . S
O662 C649 1.241 . S
O663 Nd640 2.682 . S
O663 Nd641 2.414 1_554 S
O663 C649 1.273 . S
O664 Nd640 2.410 1_556 S
O664 C650 1.251 . S
O665 Nd641 2.424 . S
O665 C650 1.268 . S
O666 Nd641 2.500 1_554 S
O666 C651 1.258 . S
O667 Nd641 2.492 1_554 S
O667 C651 1.239 . S
O668 Nd641 2.487 . S
O668 C658 1.241 . S
O669 Nd640 2.414 1_556 S
O669 Nd641 2.682 . S
O669 C658 1.273 . S
O670 Nd641 2.410 1_554 S
O670 C659 1.251 . S
O671 Nd640 2.424 . S
O671 C659 1.268 . S
H672 C644 0.930 . S
H673 C645 0.929 . S
H674 C647 0.930 . S
H675 C648 0.929 . S
H676 C653 0.930 . S
H677 C654 0.929 . S
H678 C656 0.930 . S
H679 C657 0.929 . S
Nd680 C682 2.836 1_554 S
Nd680 O700 2.500 1_554 S
Nd680 O701 2.492 1_554 S
Nd680 O702 2.487 . S
Nd680 O703 2.682 . S
Nd680 O704 2.410 1_554 S
Nd680 O709 2.414 1_554 S
Nd680 O711 2.424 . S
Nd681 C691 2.836 1_556 S
Nd681 O703 2.414 1_556 S
Nd681 O705 2.424 . S
Nd681 O706 2.500 1_556 S
Nd681 O707 2.492 1_556 S
Nd681 O708 2.487 . S
Nd681 O709 2.682 . S
Nd681 O710 2.410 1_556 S
C682 Nd680 2.836 1_556 S
C682 C683 1.498 . S
C682 O700 1.258 . S
C682 O701 1.239 . S
C683 C682 1.498 . S
C683 C684 1.366 . S
C683 C688 1.407 . S
C684 C683 1.366 . S
C684 C685 1.392 . S
C684 H712 0.930 . S
C685 C684 1.392 . S
C685 C686 1.398 . S
C685 H713 0.929 . S
C686 C685 1.398 . S
C686 C687 1.352 . S
C687 C686 1.352 . S
C687 C688 1.384 . S
C687 H714 0.930 . S
C688 C683 1.407 . S
C688 C687 1.384 . S
C688 H715 0.929 . S
C689 O702 1.241 . S
C689 O703 1.273 . S
C690 O704 1.251 . S
C690 O705 1.268 . S
C691 Nd681 2.836 1_554 S
C691 C692 1.498 . S
C691 O706 1.258 . S
C691 O707 1.239 . S
C692 C691 1.498 . S
C692 C693 1.366 . S
C692 C697 1.407 . S
C693 C692 1.366 . S
C693 C694 1.392 . S
C693 H716 0.930 . S
C694 C693 1.392 . S
C694 C695 1.398 . S
C694 H717 0.929 . S
C695 C694 1.398 . S
C695 C696 1.352 . S
C696 C695 1.352 . S
C696 C697 1.384 . S
C696 H718 0.930 . S
C697 C692 1.407 . S
C697 C696 1.384 . S
C697 H719 0.929 . S
C698 O708 1.241 . S
C698 O709 1.273 . S
C699 O710 1.251 . S
C699 O711 1.268 . S
O700 Nd680 2.500 1_556 S
O700 C682 1.258 . S
O701 Nd680 2.492 1_556 S
O701 C682 1.239 . S
O702 Nd680 2.487 . S
O702 C689 1.241 . S
O703 Nd680 2.682 . S
O703 Nd681 2.414 1_554 S
O703 C689 1.273 . S
O704 Nd680 2.410 1_556 S
O704 C690 1.251 . S
O705 Nd681 2.424 . S
O705 C690 1.268 . S
O706 Nd681 2.500 1_554 S
O706 C691 1.258 . S
O707 Nd681 2.492 1_554 S
O707 C691 1.239 . S
O708 Nd681 2.487 . S
O708 C698 1.241 . S
O709 Nd680 2.414 1_556 S
O709 Nd681 2.682 . S
O709 C698 1.273 . S
O710 Nd681 2.410 1_554 S
O710 C699 1.251 . S
O711 Nd680 2.424 . S
O711 C699 1.268 . S
H712 C684 0.930 . S
H713 C685 0.929 . S
H714 C687 0.930 . S
H715 C688 0.929 . S
H716 C693 0.930 . S
H717 C694 0.929 . S
H718 C696 0.930 . S
H719 C697 0.929 . S
C720 C721 1.387 . S
C720 H724 0.950 . S
C720 C729 1.390 . S
C721 C720 1.387 . S
C721 C723 1.387 . S
H722 C729 0.950 . S
C723 C721 1.387 . S
C723 C725 1.390 . S
C723 H727 0.950 . S
H724 C720 0.950 . S
C725 C723 1.390 . S
C725 C726 1.387 . S
C725 H728 0.950 . S
C726 C725 1.387 . S
C726 C729 1.387 . S
H727 C723 0.950 . S
H728 C725 0.950 . S
C729 C720 1.390 . S
C729 H722 0.950 . S
C729 C726 1.387 . S
C730 C731 1.387 . S
C730 H734 0.950 . S
C730 C739 1.390 . S
C731 C730 1.387 . S
C731 C733 1.387 . S
H732 C739 0.950 . S
C733 C731 1.387 . S
C733 C735 1.390 . S
C733 H737 0.950 . S
H734 C730 0.950 . S
C735 C733 1.390 . S
C735 C736 1.387 . S
C735 H738 0.950 . S
C736 C735 1.387 . S
C736 C739 1.387 . S
H737 C733 0.950 . S
H738 C735 0.950 . S
C739 C730 1.390 . S
C739 H732 0.950 . S
C739 C736 1.387 . S
C740 C741 1.387 . S
C740 H744 0.950 . S
C740 C749 1.390 . S
C741 C740 1.387 . S
C741 C743 1.387 . S
H742 C749 0.950 . S
C743 C741 1.387 . S
C743 C745 1.390 . S
C743 H747 0.950 . S
H744 C740 0.950 . S
C745 C743 1.390 . S
C745 C746 1.387 . S
C745 H748 0.950 . S
C746 C745 1.387 . S
C746 C749 1.387 . S
H747 C743 0.950 . S
H748 C745 0.950 . S
C749 C740 1.390 . S
C749 H742 0.950 . S
C749 C746 1.387 . S
C750 C751 1.387 1_556 S
C750 H754 0.950 . S
C750 C759 1.390 . S
C751 C750 1.387 1_554 S
C751 C753 1.387 . S
H752 C759 0.950 . S
C753 C751 1.387 . S
C753 C755 1.390 . S
C753 H757 0.950 . S
H754 C750 0.950 . S
C755 C753 1.390 . S
C755 C756 1.387 1_554 S
C755 H758 0.950 . S
C756 C755 1.387 1_556 S
C756 C759 1.387 . S
H757 C753 0.950 . S
H758 C755 0.950 . S
C759 C750 1.390 . S
C759 H752 0.950 . S
C759 C756 1.387 . S
C760 C761 1.387 1_554 S
C760 H764 0.950 . S
C760 C769 1.390 . S
C761 C760 1.387 1_556 S
C761 C763 1.387 . S
H762 C769 0.950 . S
C763 C761 1.387 . S
C763 C765 1.390 . S
C763 H767 0.950 . S
H764 C760 0.950 . S
C765 C763 1.390 . S
C765 C766 1.387 1_556 S
C765 H768 0.950 . S
C766 C765 1.387 1_554 S
C766 C769 1.387 . S
H767 C763 0.950 . S
H768 C765 0.950 . S
C769 C760 1.390 . S
C769 H762 0.950 . S
C769 C766 1.387 . S
C770 C771 1.387 1_556 S
C770 H774 0.950 . S
C770 C779 1.390 . S
C771 C770 1.387 1_554 S
C771 C773 1.387 . S
H772 C779 0.950 . S
C773 C771 1.387 . S
C773 C775 1.390 . S
C773 H777 0.950 . S
H774 C770 0.950 . S
C775 C773 1.390 . S
C775 C776 1.387 1_554 S
C775 H778 0.950 . S
C776 C775 1.387 1_556 S
C776 C779 1.387 . S
H777 C773 0.950 . S
H778 C775 0.950 . S
C779 C770 1.390 . S
C779 H772 0.950 . S
C779 C776 1.387 . S
C780 C781 1.387 . S
C780 H784 0.950 . S
C780 C789 1.390 . S
C781 C780 1.387 . S
C781 C783 1.387 . S
H782 C789 0.950 . S
C783 C781 1.387 . S
C783 C785 1.390 . S
C783 H787 0.950 . S
H784 C780 0.950 . S
C785 C783 1.390 . S
C785 C786 1.387 . S
C785 H788 0.950 . S
C786 C785 1.387 . S
C786 C789 1.387 . S
H787 C783 0.950 . S
H788 C785 0.950 . S
C789 C780 1.390 . S
C789 H782 0.950 . S
C789 C786 1.387 . S
C790 C791 1.387 . S
C790 H794 0.950 . S
C790 C799 1.390 . S
C791 C790 1.387 . S
C791 C793 1.387 . S
H792 C799 0.950 . S
C793 C791 1.387 . S
C793 C795 1.390 . S
C793 H797 0.950 . S
H794 C790 0.950 . S
C795 C793 1.390 . S
C795 C796 1.387 . S
C795 H798 0.950 . S
C796 C795 1.387 . S
C796 C799 1.387 . S
H797 C793 0.950 . S
H798 C795 0.950 . S
C799 C790 1.390 . S
C799 H792 0.950 . S
C799 C796 1.387 . S
C800 C801 1.387 . S
C800 H804 0.950 . S
C800 C809 1.390 . S
C801 C800 1.387 . S
C801 C803 1.387 . S
H802 C809 0.950 . S
C803 C801 1.387 . S
C803 C805 1.390 . S
C803 H807 0.950 . S
H804 C800 0.950 . S
C805 C803 1.390 . S
C805 C806 1.387 . S
C805 H808 0.950 . S
C806 C805 1.387 . S
C806 C809 1.387 . S
H807 C803 0.950 . S
H808 C805 0.950 . S
C809 C800 1.390 . S
C809 H802 0.950 . S
C809 C806 1.387 . S
C810 C811 1.387 . S
C810 H814 0.950 . S
C810 C819 1.390 . S
C811 C810 1.387 . S
C811 C813 1.387 1_554 S
H812 C819 0.950 . S
C813 C811 1.387 1_556 S
C813 C815 1.390 . S
C813 H817 0.950 . S
H814 C810 0.950 . S
C815 C813 1.390 . S
C815 C816 1.387 . S
C815 H818 0.950 . S
C816 C815 1.387 . S
C816 C819 1.387 1_556 S
H817 C813 0.950 . S
H818 C815 0.950 . S
C819 C810 1.390 . S
C819 H812 0.950 . S
C819 C816 1.387 1_554 S
C820 C821 1.387 . S
C820 H824 0.950 . S
C820 C829 1.390 . S
C821 C820 1.387 . S
C821 C823 1.387 1_556 S
H822 C829 0.950 . S
C823 C821 1.387 1_554 S
C823 C825 1.390 . S
C823 H827 0.950 . S
H824 C820 0.950 . S
C825 C823 1.390 . S
C825 C826 1.387 . S
C825 H828 0.950 . S
C826 C825 1.387 . S
C826 C829 1.387 1_554 S
H827 C823 0.950 . S
H828 C825 0.950 . S
C829 C820 1.390 . S
C829 H822 0.950 . S
C829 C826 1.387 1_556 S
C830 C831 1.387 . S
C830 H834 0.950 . S
C830 C839 1.390 . S
C831 C830 1.387 . S
C831 C833 1.387 1_554 S
H832 C839 0.950 . S
C833 C831 1.387 1_556 S
C833 C835 1.390 . S
C833 H837 0.950 . S
H834 C830 0.950 . S
C835 C833 1.390 . S
C835 C836 1.387 . S
C835 H838 0.950 . S
C836 C835 1.387 . S
C836 C839 1.387 1_556 S
H837 C833 0.950 . S
H838 C835 0.950 . S
C839 C830 1.390 . S
C839 H832 0.950 . S
C839 C836 1.387 1_554 S
C840 C841 1.387 . S
C840 H844 0.950 . S
C840 C849 1.390 . S
C841 C840 1.387 . S
C841 C843 1.387 . S
H842 C849 0.950 . S
C843 C841 1.387 . S
C843 C845 1.390 . S
C843 H847 0.950 . S
H844 C840 0.950 . S
C845 C843 1.390 . S
C845 C846 1.387 . S
C845 H848 0.950 . S
C846 C845 1.387 . S
C846 C849 1.387 . S
H847 C843 0.950 . S
H848 C845 0.950 . S
C849 C840 1.390 . S
C849 H842 0.950 . S
C849 C846 1.387 . S
C850 C851 1.387 . S
C850 H854 0.950 . S
C850 C859 1.390 . S
C851 C850 1.387 . S
C851 C853 1.387 . S
H852 C859 0.950 . S
C853 C851 1.387 . S
C853 C855 1.390 . S
C853 H857 0.950 . S
H854 C850 0.950 . S
C855 C853 1.390 . S
C855 C856 1.387 . S
C855 H858 0.950 . S
C856 C855 1.387 . S
C856 C859 1.387 . S
H857 C853 0.950 . S
H858 C855 0.950 . S
C859 C850 1.390 . S
C859 H852 0.950 . S
C859 C856 1.387 . S
C860 C861 1.387 1_565 S
C860 H864 0.950 1_565 S
C860 C869 1.390 . S
C861 C860 1.387 1_545 S
C861 C863 1.387 1_545 S
H862 C869 0.950 . S
C863 C861 1.387 1_565 S
C863 C865 1.390 . S
C863 H867 0.950 1_565 S
H864 C860 0.950 1_545 S
C865 C863 1.390 . S
C865 C866 1.387 . S
C865 H868 0.950 . S
C866 C865 1.387 . S
C866 C869 1.387 . S
H867 C863 0.950 1_545 S
H868 C865 0.950 . S
C869 C860 1.390 . S
C869 H862 0.950 . S
C869 C866 1.387 . S
C870 C871 1.387 . S
C870 H874 0.950 . S
C870 C879 1.390 . S
C871 C870 1.387 . S
C871 C873 1.387 . S
H872 C879 0.950 . S
C873 C871 1.387 . S
C873 C875 1.390 . S
C873 H877 0.950 . S
H874 C870 0.950 . S
C875 C873 1.390 . S
C875 C876 1.387 . S
C875 H878 0.950 . S
C876 C875 1.387 . S
C876 C879 1.387 . S
H877 C873 0.950 . S
H878 C875 0.950 . S
C879 C870 1.390 . S
C879 H872 0.950 . S
C879 C876 1.387 . S
C880 C881 1.387 1_655 S
C880 H884 0.950 1_655 S
C880 C889 1.390 . S
C881 C880 1.387 1_455 S
C881 C883 1.387 1_455 S
H882 C889 0.950 . S
C883 C881 1.387 1_655 S
C883 C885 1.390 . S
C883 H887 0.950 1_655 S
H884 C880 0.950 1_455 S
C885 C883 1.390 . S
C885 C886 1.387 . S
C885 H888 0.950 . S
C886 C885 1.387 . S
C886 C889 1.387 . S
H887 C883 0.950 1_455 S
H888 C885 0.950 . S
C889 C880 1.390 . S
C889 H882 0.950 . S
C889 C886 1.387 . S
C890 C891 1.387 . S
C890 H894 0.950 . S
C890 C899 1.390 . S
C891 C890 1.387 . S
C891 C893 1.387 . S
H892 C899 0.950 . S
C893 C891 1.387 . S
C893 C895 1.390 . S
C893 H897 0.950 . S
H894 C890 0.950 . S
C895 C893 1.390 . S
C895 C896 1.387 . S
C895 H898 0.950 . S
C896 C895 1.387 . S
C896 C899 1.387 . S
H897 C893 0.950 . S
H898 C895 0.950 . S
C899 C890 1.390 . S
C899 H892 0.950 . S
C899 C896 1.387 . S
C900 C901 1.387 . S
C900 H904 0.950 . S
C900 C909 1.390 . S
C901 C900 1.387 . S
C901 C903 1.387 . S
H902 C909 0.950 . S
C903 C901 1.387 . S
C903 C905 1.390 . S
C903 H907 0.950 . S
H904 C900 0.950 . S
C905 C903 1.390 . S
C905 C906 1.387 . S
C905 H908 0.950 . S
C906 C905 1.387 . S
C906 C909 1.387 . S
H907 C903 0.950 . S
H908 C905 0.950 . S
C909 C900 1.390 . S
C909 H902 0.950 . S
C909 C906 1.387 . S
C910 C911 1.387 . S
C910 H914 0.950 . S
C910 C919 1.390 . S
C911 C910 1.387 . S
C911 C913 1.387 . S
H912 C919 0.950 . S
C913 C911 1.387 . S
C913 C915 1.390 . S
C913 H917 0.950 . S
H914 C910 0.950 . S
C915 C913 1.390 . S
C915 C916 1.387 . S
C915 H918 0.950 . S
C916 C915 1.387 . S
C916 C919 1.387 . S
H917 C913 0.950 . S
H918 C915 0.950 . S
C919 C910 1.390 . S
C919 H912 0.950 . S
C919 C916 1.387 . S
C920 C921 1.387 . S
C920 H924 0.950 . S
C920 C929 1.390 . S
C921 C920 1.387 . S
C921 C923 1.387 . S
H922 C929 0.950 . S
C923 C921 1.387 . S
C923 C925 1.390 . S
C923 H927 0.950 . S
H924 C920 0.950 . S
C925 C923 1.390 . S
C925 C926 1.387 . S
C925 H928 0.950 . S
C926 C925 1.387 . S
C926 C929 1.387 . S
H927 C923 0.950 . S
H928 C925 0.950 . S
C929 C920 1.390 . S
C929 H922 0.950 . S
C929 C926 1.387 . S
C930 C931 1.387 . S
C930 H934 0.950 . S
C930 C939 1.390 . S
C931 C930 1.387 . S
C931 C933 1.387 . S
H932 C939 0.950 . S
C933 C931 1.387 . S
C933 C935 1.390 . S
C933 H937 0.950 . S
H934 C930 0.950 . S
C935 C933 1.390 . S
C935 C936 1.387 . S
C935 H938 0.950 . S
C936 C935 1.387 . S
C936 C939 1.387 . S
H937 C933 0.950 . S
H938 C935 0.950 . S
C939 C930 1.390 . S
C939 H932 0.950 . S
C939 C936 1.387 . S
C940 C941 1.387 . S
C940 H944 0.950 . S
C940 C949 1.390 . S
C941 C940 1.387 . S
C941 C943 1.387 . S
H942 C949 0.950 . S
C943 C941 1.387 . S
C943 C945 1.390 . S
C943 H947 0.950 . S
H944 C940 0.950 . S
C945 C943 1.390 . S
C945 C946 1.387 . S
C945 H948 0.950 . S
C946 C945 1.387 . S
C946 C949 1.387 . S
H947 C943 0.950 . S
H948 C945 0.950 . S
C949 C940 1.390 . S
C949 H942 0.950 . S
C949 C946 1.387 . S
C950 C951 1.387 . S
C950 H954 0.950 . S
C950 C959 1.390 . S
C951 C950 1.387 . S
C951 C953 1.387 . S
H952 C959 0.950 . S
C953 C951 1.387 . S
C953 C955 1.390 . S
C953 H957 0.950 . S
H954 C950 0.950 . S
C955 C953 1.390 . S
C955 C956 1.387 . S
C955 H958 0.950 . S
C956 C955 1.387 . S
C956 C959 1.387 . S
H957 C953 0.950 . S
H958 C955 0.950 . S
C959 C950 1.390 . S
C959 H952 0.950 . S
C959 C956 1.387 . S
C960 C961 1.387 . S
C960 H964 0.950 . S
C960 C969 1.390 . S
C961 C960 1.387 . S
C961 C963 1.387 . S
H962 C969 0.950 . S
C963 C961 1.387 . S
C963 C965 1.390 . S
C963 H967 0.950 . S
H964 C960 0.950 . S
C965 C963 1.390 . S
C965 C966 1.387 . S
C965 H968 0.950 . S
C966 C965 1.387 . S
C966 C969 1.387 . S
H967 C963 0.950 . S
H968 C965 0.950 . S
C969 C960 1.390 . S
C969 H962 0.950 . S
C969 C966 1.387 . S
C970 C971 1.387 . S
C970 H974 0.950 . S
C970 C979 1.390 . S
C971 C970 1.387 . S
C971 C973 1.387 . S
H972 C979 0.950 . S
C973 C971 1.387 . S
C973 C975 1.390 . S
C973 H977 0.950 . S
H974 C970 0.950 . S
C975 C973 1.390 . S
C975 C976 1.387 . S
C975 H978 0.950 . S
C976 C975 1.387 . S
C976 C979 1.387 . S
H977 C973 0.950 . S
H978 C975 0.950 . S
C979 C970 1.390 . S
C979 H972 0.950 . S
C979 C976 1.387 . S
C980 C981 1.387 . S
C980 H984 0.950 . S
C980 C989 1.390 . S
C981 C980 1.387 . S
C981 C983 1.387 . S
H982 C989 0.950 . S
C983 C981 1.387 . S
C983 C985 1.390 . S
C983 H987 0.950 . S
H984 C980 0.950 . S
C985 C983 1.390 . S
C985 C986 1.387 . S
C985 H988 0.950 . S
C986 C985 1.387 . S
C986 C989 1.387 . S
H987 C983 0.950 . S
H988 C985 0.950 . S
C989 C980 1.390 . S
C989 H982 0.950 . S
C989 C986 1.387 . S
C990 C991 1.387 1_554 S
C990 H994 0.950 . S
C990 C999 1.390 . S
C991 C990 1.387 1_556 S
C991 C993 1.387 . S
H992 C999 0.950 . S
C993 C991 1.387 . S
C993 C995 1.390 . S
C993 H997 0.950 . S
H994 C990 0.950 . S
C995 C993 1.390 . S
C995 C996 1.387 1_556 S
C995 H998 0.950 . S
C996 C995 1.387 1_554 S
C996 C999 1.387 . S
H997 C993 0.950 . S
H998 C995 0.950 . S
C999 C990 1.390 . S
C999 H992 0.950 . S
C999 C996 1.387 . S
C1000 C1001 1.387 . S
C1000 H1004 0.950 . S
C1000 C1009 1.390 . S
C1001 C1000 1.387 . S
C1001 C1003 1.387 1_556 S
H1002 C1009 0.950 . S
C1003 C1001 1.387 1_554 S
C1003 C1005 1.390 . S
C1003 H1007 0.950 . S
H1004 C1000 0.950 . S
C1005 C1003 1.390 . S
C1005 C1006 1.387 . S
C1005 H1008 0.950 . S
C1006 C1005 1.387 . S
C1006 C1009 1.387 1_554 S
H1007 C1003 0.950 . S
H1008 C1005 0.950 . S
C1009 C1000 1.390 . S
C1009 H1002 0.950 . S
C1009 C1006 1.387 1_556 S
C1010 C1011 1.387 1_554 S
C1010 H1014 0.950 . S
C1010 C1019 1.390 . S
C1011 C1010 1.387 1_556 S
C1011 C1013 1.387 . S
H1012 C1019 0.950 . S
C1013 C1011 1.387 . S
C1013 C1015 1.390 . S
C1013 H1017 0.950 . S
H1014 C1010 0.950 . S
C1015 C1013 1.390 . S
C1015 C1016 1.387 1_556 S
C1015 H1018 0.950 . S
C1016 C1015 1.387 1_554 S
C1016 C1019 1.387 . S
H1017 C1013 0.950 . S
H1018 C1015 0.950 . S
C1019 C1010 1.390 . S
C1019 H1012 0.950 . S
C1019 C1016 1.387 . S
C1020 C1021 1.387 1_554 S
C1020 H1024 0.950 . S
C1020 C1029 1.390 . S
C1021 C1020 1.387 1_556 S
C1021 C1023 1.387 . S
H1022 C1029 0.950 . S
C1023 C1021 1.387 . S
C1023 C1025 1.390 . S
C1023 H1027 0.950 . S
H1024 C1020 0.950 . S
C1025 C1023 1.390 . S
C1025 C1026 1.387 1_556 S
C1025 H1028 0.950 . S
C1026 C1025 1.387 1_554 S
C1026 C1029 1.387 . S
H1027 C1023 0.950 . S
H1028 C1025 0.950 . S
C1029 C1020 1.390 . S
C1029 H1022 0.950 . S
C1029 C1026 1.387 . S
C1030 C1031 1.387 . S
C1030 H1034 0.950 . S
C1030 C1039 1.390 . S
C1031 C1030 1.387 . S
C1031 C1033 1.387 1_556 S
H1032 C1039 0.950 . S
C1033 C1031 1.387 1_554 S
C1033 C1035 1.390 . S
C1033 H1037 0.950 . S
H1034 C1030 0.950 . S
C1035 C1033 1.390 . S
C1035 C1036 1.387 . S
C1035 H1038 0.950 . S
C1036 C1035 1.387 . S
C1036 C1039 1.387 1_554 S
H1037 C1033 0.950 . S
H1038 C1035 0.950 . S
C1039 C1030 1.390 . S
C1039 H1032 0.950 . S
C1039 C1036 1.387 1_556 S
C1040 C1041 1.387 1_556 S
C1040 H1044 0.950 . S
C1040 C1049 1.390 . S
C1041 C1040 1.387 1_554 S
C1041 C1043 1.387 . S
H1042 C1049 0.950 . S
C1043 C1041 1.387 . S
C1043 C1045 1.390 . S
C1043 H1047 0.950 . S
H1044 C1040 0.950 . S
C1045 C1043 1.390 . S
C1045 C1046 1.387 1_554 S
C1045 H1048 0.950 . S
C1046 C1045 1.387 1_556 S
C1046 C1049 1.387 . S
H1047 C1043 0.950 . S
H1048 C1045 0.950 . S
C1049 C1040 1.390 . S
C1049 H1042 0.950 . S
C1049 C1046 1.387 . S
C1050 C1051 1.387 . S
C1050 H1054 0.950 . S
C1050 C1059 1.390 . S
C1051 C1050 1.387 . S
C1051 C1053 1.387 . S
H1052 C1059 0.950 . S
C1053 C1051 1.387 . S
C1053 C1055 1.390 . S
C1053 H1057 0.950 . S
H1054 C1050 0.950 . S
C1055 C1053 1.390 . S
C1055 C1056 1.387 . S
C1055 H1058 0.950 . S
C1056 C1055 1.387 . S
C1056 C1059 1.387 . S
H1057 C1053 0.950 . S
H1058 C1055 0.950 . S
C1059 C1050 1.390 . S
C1059 H1052 0.950 . S
C1059 C1056 1.387 . S
C1060 C1061 1.387 . S
C1060 H1064 0.950 . S
C1060 C1069 1.390 . S
C1061 C1060 1.387 . S
C1061 C1063 1.387 . S
H1062 C1069 0.950 . S
C1063 C1061 1.387 . S
C1063 C1065 1.390 . S
C1063 H1067 0.950 . S
H1064 C1060 0.950 . S
C1065 C1063 1.390 . S
C1065 C1066 1.387 . S
C1065 H1068 0.950 . S
C1066 C1065 1.387 . S
C1066 C1069 1.387 . S
H1067 C1063 0.950 . S
H1068 C1065 0.950 . S
C1069 C1060 1.390 . S
C1069 H1062 0.950 . S
C1069 C1066 1.387 . S
C1070 C1071 1.387 . S
C1070 H1074 0.950 . S
C1070 C1079 1.390 . S
C1071 C1070 1.387 . S
C1071 C1073 1.387 . S
H1072 C1079 0.950 . S
C1073 C1071 1.387 . S
C1073 C1075 1.390 . S
C1073 H1077 0.950 . S
H1074 C1070 0.950 . S
C1075 C1073 1.390 . S
C1075 C1076 1.387 . S
C1075 H1078 0.950 . S
C1076 C1075 1.387 . S
C1076 C1079 1.387 . S
H1077 C1073 0.950 . S
H1078 C1075 0.950 . S
C1079 C1070 1.390 . S
C1079 H1072 0.950 . S
C1079 C1076 1.387 . S
C1080 C1081 1.387 . S
C1080 H1084 0.950 . S
C1080 C1089 1.390 . S
C1081 C1080 1.387 . S
C1081 C1083 1.387 . S
H1082 C1089 0.950 . S
C1083 C1081 1.387 . S
C1083 C1085 1.390 . S
C1083 H1087 0.950 . S
H1084 C1080 0.950 . S
C1085 C1083 1.390 . S
C1085 C1086 1.387 . S
C1085 H1088 0.950 . S
C1086 C1085 1.387 . S
C1086 C1089 1.387 . S
H1087 C1083 0.950 . S
H1088 C1085 0.950 . S
C1089 C1080 1.390 . S
C1089 H1082 0.950 . S
C1089 C1086 1.387 . S
C1090 C1091 1.387 . S
C1090 H1094 0.950 . S
C1090 C1099 1.390 . S
C1091 C1090 1.387 . S
C1091 C1093 1.387 . S
H1092 C1099 0.950 . S
C1093 C1091 1.387 . S
C1093 C1095 1.390 . S
C1093 H1097 0.950 . S
H1094 C1090 0.950 . S
C1095 C1093 1.390 . S
C1095 C1096 1.387 . S
C1095 H1098 0.950 . S
C1096 C1095 1.387 . S
C1096 C1099 1.387 . S
H1097 C1093 0.950 . S
H1098 C1095 0.950 . S
C1099 C1090 1.390 . S
C1099 H1092 0.950 . S
C1099 C1096 1.387 . S
C1100 C1101 1.387 . S
C1100 H1104 0.950 . S
C1100 C1109 1.390 . S
C1101 C1100 1.387 . S
C1101 C1103 1.397 . S
H1102 C1109 0.950 . S
C1103 C1101 1.397 . S
C1103 C1105 1.392 . S
C1103 H1107 0.938 1_545 S
H1104 C1100 0.950 . S
C1105 C1103 1.392 . S
C1105 C1106 1.387 . S
C1105 H1108 0.950 1_545 S
C1106 C1105 1.387 . S
C1106 C1109 1.387 . S
H1107 C1103 0.938 1_565 S
H1108 C1105 0.950 1_565 S
C1109 C1100 1.390 . S
C1109 H1102 0.950 . S
C1109 C1106 1.387 . S
C1110 C1111 1.387 . S
C1110 H1114 0.950 . S
C1110 C1119 1.390 . S
C1111 C1110 1.387 . S
C1111 C1113 1.387 . S
H1112 C1119 0.950 . S
C1113 C1111 1.387 . S
C1113 C1115 1.390 . S
C1113 H1117 0.950 . S
H1114 C1110 0.950 . S
C1115 C1113 1.390 . S
C1115 C1116 1.387 . S
C1115 H1118 0.950 . S
C1116 C1115 1.387 . S
C1116 C1119 1.387 . S
H1117 C1113 0.950 . S
H1118 C1115 0.950 . S
C1119 C1110 1.390 . S
C1119 H1112 0.950 . S
C1119 C1116 1.387 . S
C1120 C1121 1.387 . S
C1120 H1124 0.950 . S
C1120 C1129 1.390 . S
C1121 C1120 1.387 . S
C1121 C1123 1.387 . S
H1122 C1129 0.950 . S
C1123 C1121 1.387 . S
C1123 C1125 1.390 . S
C1123 H1127 0.950 . S
H1124 C1120 0.950 . S
C1125 C1123 1.390 . S
C1125 C1126 1.387 . S
C1125 H1128 0.950 . S
C1126 C1125 1.387 . S
C1126 C1129 1.387 . S
H1127 C1123 0.950 . S
H1128 C1125 0.950 . S
C1129 C1120 1.390 . S
C1129 H1122 0.950 . S
C1129 C1126 1.387 . S
C1130 C1131 1.387 . S
C1130 H1134 0.950 1_545 S
C1130 C1139 1.390 . S
C1131 C1130 1.387 . S
C1131 C1133 1.387 . S
H1132 C1139 0.950 . S
C1133 C1131 1.387 . S
C1133 C1135 1.390 . S
C1133 H1137 0.950 . S
H1134 C1130 0.950 1_565 S
C1135 C1133 1.390 . S
C1135 C1136 1.387 . S
C1135 H1138 0.950 . S
C1136 C1135 1.387 . S
C1136 C1139 1.387 . S
H1137 C1133 0.950 . S
H1138 C1135 0.950 . S
C1139 C1130 1.390 . S
C1139 H1132 0.950 . S
C1139 C1136 1.387 . S
C1140 C1141 1.387 . S
C1140 H1144 0.950 . S
C1140 C1149 1.390 . S
C1141 C1140 1.387 . S
C1141 C1143 1.387 . S
H1142 C1149 0.950 . S
C1143 C1141 1.387 . S
C1143 C1145 1.390 . S
C1143 H1147 0.950 . S
H1144 C1140 0.950 . S
C1145 C1143 1.390 . S
C1145 C1146 1.387 . S
C1145 H1148 0.950 . S
C1146 C1145 1.387 . S
C1146 C1149 1.387 . S
H1147 C1143 0.950 . S
H1148 C1145 0.950 . S
C1149 C1140 1.390 . S
C1149 H1142 0.950 . S
C1149 C1146 1.387 . S
C1150 C1151 1.387 . S
C1150 H1154 0.950 . S
C1150 C1159 1.390 . S
C1151 C1150 1.387 . S
C1151 C1153 1.387 . S
H1152 C1159 0.950 . S
C1153 C1151 1.387 . S
C1153 C1155 1.390 . S
C1153 H1157 0.950 . S
H1154 C1150 0.950 . S
C1155 C1153 1.390 . S
C1155 C1156 1.387 . S
C1155 H1158 0.950 . S
C1156 C1155 1.387 . S
C1156 C1159 1.387 . S
H1157 C1153 0.950 . S
H1158 C1155 0.950 . S
C1159 C1150 1.390 . S
C1159 H1152 0.950 . S
C1159 C1156 1.387 . S
C1160 C1161 1.387 . S
C1160 H1164 0.950 . S
C1160 C1169 1.390 . S
C1161 C1160 1.387 . S
C1161 C1163 1.387 . S
H1162 C1169 0.950 . S
C1163 C1161 1.387 . S
C1163 C1165 1.390 . S
C1163 H1167 0.950 . S
H1164 C1160 0.950 . S
C1165 C1163 1.390 . S
C1165 C1166 1.387 . S
C1165 H1168 0.950 . S
C1166 C1165 1.387 . S
C1166 C1169 1.387 . S
H1167 C1163 0.950 . S
H1168 C1165 0.950 . S
C1169 C1160 1.390 . S
C1169 H1162 0.950 . S
C1169 C1166 1.387 . S
C1170 C1171 1.387 . S
C1170 H1174 0.950 . S
C1170 C1179 1.390 . S
C1171 C1170 1.387 . S
C1171 C1173 1.387 . S
H1172 C1179 0.950 . S
C1173 C1171 1.387 . S
C1173 C1175 1.390 . S
C1173 H1177 0.950 . S
H1174 C1170 0.950 . S
C1175 C1173 1.390 . S
C1175 C1176 1.387 . S
C1175 H1178 0.950 . S
C1176 C1175 1.387 . S
C1176 C1179 1.387 . S
H1177 C1173 0.950 . S
H1178 C1175 0.950 . S
C1179 C1170 1.390 . S
C1179 H1172 0.950 . S
C1179 C1176 1.387 . S
C1180 C1181 1.387 . S
C1180 H1184 0.950 . S
C1180 C1189 1.390 . S
C1181 C1180 1.387 . S
C1181 C1183 1.387 . S
H1182 C1189 0.950 . S
C1183 C1181 1.387 . S
C1183 C1185 1.390 . S
C1183 H1187 0.950 . S
H1184 C1180 0.950 . S
C1185 C1183 1.390 . S
C1185 C1186 1.387 . S
C1185 H1188 0.950 . S
C1186 C1185 1.387 . S
C1186 C1189 1.387 . S
H1187 C1183 0.950 . S
H1188 C1185 0.950 . S
C1189 C1180 1.390 . S
C1189 H1182 0.950 . S
C1189 C1186 1.387 . S
C1190 C1191 1.387 . S
C1190 H1194 0.950 . S
C1190 C1199 1.390 . S
C1191 C1190 1.387 . S
C1191 C1193 1.387 . S
H1192 C1199 0.950 . S
C1193 C1191 1.387 . S
C1193 C1195 1.390 . S
C1193 H1197 0.950 . S
H1194 C1190 0.950 . S
C1195 C1193 1.390 . S
C1195 C1196 1.387 . S
C1195 H1198 0.950 . S
C1196 C1195 1.387 . S
C1196 C1199 1.387 . S
H1197 C1193 0.950 . S
H1198 C1195 0.950 . S
C1199 C1190 1.390 . S
C1199 H1192 0.950 . S
C1199 C1196 1.387 . S
C1200 C1201 1.387 . S
C1200 H1204 0.950 . S
C1200 C1209 1.390 . S
C1201 C1200 1.387 . S
C1201 C1203 1.387 . S
H1202 C1209 0.950 . S
C1203 C1201 1.387 . S
C1203 C1205 1.390 . S
C1203 H1207 0.950 . S
H1204 C1200 0.950 . S
C1205 C1203 1.390 . S
C1205 C1206 1.387 . S
C1205 H1208 0.950 . S
C1206 C1205 1.387 . S
C1206 C1209 1.387 . S
H1207 C1203 0.950 . S
H1208 C1205 0.950 . S
C1209 C1200 1.390 . S
C1209 H1202 0.950 . S
C1209 C1206 1.387 . S
C1210 C1211 1.387 . S
C1210 H1214 0.950 . S
C1210 C1219 1.390 . S
C1211 C1210 1.387 . S
C1211 C1213 1.387 . S
H1212 C1219 0.950 . S
C1213 C1211 1.387 . S
C1213 C1215 1.390 . S
C1213 H1217 0.950 . S
H1214 C1210 0.950 . S
C1215 C1213 1.390 . S
C1215 C1216 1.387 . S
C1215 H1218 0.950 . S
C1216 C1215 1.387 . S
C1216 C1219 1.387 . S
H1217 C1213 0.950 . S
H1218 C1215 0.950 . S
C1219 C1210 1.390 . S
C1219 H1212 0.950 . S
C1219 C1216 1.387 . S
C1220 C1221 1.387 . S
C1220 H1224 0.950 . S
C1220 C1229 1.390 . S
C1221 C1220 1.387 . S
C1221 C1223 1.387 . S
H1222 C1229 0.950 . S
C1223 C1221 1.387 . S
C1223 C1225 1.390 . S
C1223 H1227 0.950 . S
H1224 C1220 0.950 . S
C1225 C1223 1.390 . S
C1225 C1226 1.387 . S
C1225 H1228 0.950 . S
C1226 C1225 1.387 . S
C1226 C1229 1.387 . S
H1227 C1223 0.950 . S
H1228 C1225 0.950 . S
C1229 C1220 1.390 . S
C1229 H1222 0.950 . S
C1229 C1226 1.387 . S
C1230 C1231 1.387 . S
C1230 H1234 0.950 . S
C1230 C1239 1.390 . S
C1231 C1230 1.387 . S
C1231 C1233 1.387 . S
H1232 C1239 0.950 . S
C1233 C1231 1.387 . S
C1233 C1235 1.390 . S
C1233 H1237 0.950 . S
H1234 C1230 0.950 . S
C1235 C1233 1.390 . S
C1235 C1236 1.387 . S
C1235 H1238 0.950 . S
C1236 C1235 1.387 . S
C1236 C1239 1.387 . S
H1237 C1233 0.950 . S
H1238 C1235 0.950 . S
C1239 C1230 1.390 . S
C1239 H1232 0.950 . S
C1239 C1236 1.387 . S
C1240 C1241 1.387 . S
C1240 H1244 0.950 . S
C1240 C1249 1.390 . S
C1241 C1240 1.387 . S
C1241 C1243 1.387 . S
H1242 C1249 0.950 . S
C1243 C1241 1.387 . S
C1243 C1245 1.390 . S
C1243 H1247 0.950 . S
H1244 C1240 0.950 . S
C1245 C1243 1.390 . S
C1245 C1246 1.387 . S
C1245 H1248 0.950 . S
C1246 C1245 1.387 . S
C1246 C1249 1.387 . S
H1247 C1243 0.950 . S
H1248 C1245 0.950 . S
C1249 C1240 1.390 . S
C1249 H1242 0.950 . S
C1249 C1246 1.387 . S
C1250 C1251 1.387 . S
C1250 H1254 0.950 . S
C1250 C1259 1.390 . S
C1251 C1250 1.387 . S
C1251 C1253 1.387 . S
H1252 C1259 0.950 . S
C1253 C1251 1.387 . S
C1253 C1255 1.390 . S
C1253 H1257 0.950 . S
H1254 C1250 0.950 . S
C1255 C1253 1.390 . S
C1255 C1256 1.387 . S
C1255 H1258 0.950 . S
C1256 C1255 1.387 . S
C1256 C1259 1.387 . S
H1257 C1253 0.950 . S
H1258 C1255 0.950 . S
C1259 C1250 1.390 . S
C1259 H1252 0.950 . S
C1259 C1256 1.387 . S
C721 C535 1.762 . S
C726 C18 1.857 . S
C731 C58 1.857 . S
C736 C575 1.762 . S
C741 C98 1.858 . S
C746 C495 1.762 . S
C751 C95 1.776 1_554 S
C756 C298 1.888 . S
C761 C338 1.885 . S
C766 C15 1.778 1_554 S
C771 C55 1.775 1_554 S
C776 C258 1.887 . S
C781 C129 1.855 . S
C786 C406 1.764 . S
C791 C169 1.857 . S
C796 C446 1.762 . S
C801 C366 1.761 . S
C806 C209 1.857 . S
C811 C649 1.886 . S
C816 C206 1.777 1_556 S
C821 C126 1.775 1_556 S
C826 C689 1.887 . S
C831 C609 1.885 . S
C836 C166 1.777 1_556 S
C841 C335 1.779 . S
C846 C538 1.861 . S
C851 C255 1.777 . S
C856 C578 1.863 . S
C861 C295 1.780 . S
C866 C498 1.861 . S
C871 C369 1.861 . S
C876 C646 1.779 . S
C881 C686 1.777 . S
C886 C409 1.864 . S
C891 C606 1.779 . S
C896 C449 1.861 . S
C901 C6 1.845 . S
C906 C178 1.849 . S
C911 C218 1.850 . S
C916 C46 1.844 . S
C921 C138 1.849 . S
C926 C86 1.844 . S
C931 C175 1.845 . S
C936 C89 1.851 . S
C941 C215 1.845 . S
C946 C9 1.847 1_655 S
C951 C135 1.844 . S
C956 C49 1.849 . S
C961 C418 1.882 . S
C966 C246 1.863 . S
C971 C458 1.882 . S
C976 C286 1.862 . S
C981 C378 1.884 . S
C986 C326 1.864 . S
C991 C415 1.837 . S
C996 C329 1.854 . S
C1001 C455 1.839 . S
C1006 C249 1.856 . S
C1011 C375 1.837 . S
C1016 C289 1.854 . S
C1021 C658 1.854 . S
C1026 C486 1.837 . S
C1031 C698 1.856 . S
C1036 C526 1.838 . S
C1041 C566 1.839 . S
C1046 C618 1.856 . S
C1051 C569 1.884 . S
C1056 C655 1.864 . S
C1061 C489 1.882 . S
C1066 C695 1.862 . S
C1071 C615 1.863 . S
C1076 C529 1.882 . S
C1081 C10 1.867 . S
C1086 C19 1.867 1_554 S
C1091 C50 1.866 . S
C1096 C59 1.866 1_554 S
C1101 C90 1.866 . S
C1106 C99 1.866 1_554 S
C1111 C139 1.864 . S
C1116 C130 1.864 1_556 S
C1121 C170 1.865 1_556 S
C1126 C179 1.865 . S
C1131 C210 1.866 1_556 S
C1136 C219 1.866 . S
C1141 C259 1.859 . S
C1146 C250 1.859 . S
C1151 C290 1.856 . S
C1156 C299 1.856 . S
C1161 C339 1.857 . S
C1166 C330 1.857 . S
C1171 C379 1.863 1_554 S
C1176 C370 1.863 . S
C1181 C419 1.864 1_554 S
C1186 C410 1.864 . S
C1191 C459 1.864 1_554 S
C1196 C450 1.864 . S
C1201 C499 1.866 . S
C1206 C490 1.866 1_556 S
C1211 C530 1.866 1_556 S
C1216 C539 1.866 . S
C1221 C570 1.866 1_556 S
C1226 C579 1.866 . S
C1231 C610 1.856 . S
C1236 C619 1.856 . S
C1241 C650 1.857 . S
C1246 C659 1.857 . S
C1251 C699 1.858 . S
C1256 C690 1.858 . S
