# Generated by pormake.
# Topology rac, (4)-cn, num edge types: 1
# Building blocks:
#     Node 0, Type 0, BuildingBlock: KUFVIS_clean_sbu_0, # of connection points: 4
#     Node 1, Type 0, BuildingBlock: KUFVIS_clean_sbu_0, # of connection points: 4
#     Node 2, Type 0, BuildingBlock: KUFVIS_clean_sbu_0, # of connection points: 4
#     Node 3, Type 0, BuildingBlock: KUFVIS_clean_sbu_0, # of connection points: 4
#     Node 4, Type 0, BuildingBlock: KUFVIS_clean_sbu_0, # of connection points: 4
#     Node 5, Type 0, BuildingBlock: KUFVIS_clean_sbu_0, # of connection points: 4
#     Node 6, Type 0, BuildingBlock: KUFVIS_clean_sbu_0, # of connection points: 4
#     Node 7, Type 0, BuildingBlock: KUFVIS_clean_sbu_0, # of connection points: 4
#     Edge 8, Type (0, 0), BuildingBlock: UVAHIK_clean_linker_0, # of connection points: 2
#     Edge 9, Type (0, 0), BuildingBlock: UVAHIK_clean_linker_0, # of connection points: 2
#     Edge 10, Type (0, 0), BuildingBlock: UVAHIK_clean_linker_0, # of connection points: 2
#     Edge 11, Type (0, 0), BuildingBlock: UVAHIK_clean_linker_0, # of connection points: 2
#     Edge 12, Type (0, 0), BuildingBlock: UVAHIK_clean_linker_0, # of connection points: 2
#     Edge 13, Type (0, 0), BuildingBlock: UVAHIK_clean_linker_0, # of connection points: 2
#     Edge 14, Type (0, 0), BuildingBlock: UVAHIK_clean_linker_0, # of connection points: 2
#     Edge 15, Type (0, 0), BuildingBlock: UVAHIK_clean_linker_0, # of connection points: 2
#     Edge 16, Type (0, 0), BuildingBlock: UVAHIK_clean_linker_0, # of connection points: 2
#     Edge 17, Type (0, 0), BuildingBlock: UVAHIK_clean_linker_0, # of connection points: 2
#     Edge 18, Type (0, 0), BuildingBlock: UVAHIK_clean_linker_0, # of connection points: 2
#     Edge 19, Type (0, 0), BuildingBlock: UVAHIK_clean_linker_0, # of connection points: 2
#     Edge 20, Type (0, 0), BuildingBlock: UVAHIK_clean_linker_0, # of connection points: 2
#     Edge 21, Type (0, 0), BuildingBlock: UVAHIK_clean_linker_0, # of connection points: 2
#     Edge 22, Type (0, 0), BuildingBlock: UVAHIK_clean_linker_0, # of connection points: 2
#     Edge 23, Type (0, 0), BuildingBlock: UVAHIK_clean_linker_0, # of connection points: 2
# Relax obj value: 0.213
# Max RMSD: 0.070
# Mean RMSD: 0.070
data_MOF--net-rac--node1-KUFVIS_clean_sbu_0--edge1-UVAHIK_clean_linker_0
_symmetry_space_group_name_H-M    P1
_symmetry_Int_Tables_number       1
_symmetry_cell_setting            triclinic
loop_
_symmetry_equiv_pos_as_xyz
'x, y, z'
_cell_length_a     52.717927
_cell_length_b     27.560589
_cell_length_c     47.73234
_cell_angle_alpha  89.982392
_cell_angle_beta   89.979079
_cell_angle_gamma 89.979185
loop_
_atom_site_label
_atom_site_type_symbol
_atom_site_fract_x
_atom_site_fract_y
_atom_site_fract_z
_atom_type_partial_charge
Mn0 Mn 0.36475 0.28908 0.04516 0.0
Mn1 Mn 0.30493 0.29376 0.06976 0.0
C2 C 0.33299 0.32395 0.01856 0.0
C3 C 0.40383 0.32956 0.04231 0.0
C4 C 0.32876 0.20228 0.04615 0.0
O5 O 0.36929 0.27487 0.08691 0.0
O6 O 0.32889 0.28524 0.10137 0.0
C7 C 0.30787 0.38629 0.10088 0.0
N8 N 0.29695 0.35864 0.08058 0.0
C9 C 0.26675 0.42136 0.06977 0.0
C10 C 0.27759 0.45041 0.09073 0.0
C11 C 0.2983 0.4329 0.10623 0.0
C12 C 0.2772 0.37533 0.0653 0.0
H13 H 0.32372 0.37281 0.11292 0.0
C14 C 0.35241 0.27677 0.1061 0.0
O15 O 0.40235 0.28317 0.03736 0.0
O16 O 0.38313 0.35104 0.04962 0.0
N17 N 0.27986 0.30216 0.04119 0.0
C18 C 0.27221 0.27012 0.02116 0.0
C19 C 0.25205 0.28254 0.00333 0.0
C20 C 0.23978 0.32745 0.00649 0.0
C21 C 0.24786 0.35965 0.0274 0.0
C22 C 0.26807 0.34533 0.04452 0.0
H23 H 0.28142 0.23537 0.0188 0.0
O24 O 0.35381 0.30964 0.00674 0.0
O25 O 0.33166 0.31771 0.04543 0.0
O26 O 0.35017 0.22001 0.03846 0.0
O27 O 0.31145 0.22658 0.05851 0.0
C28 C 0.23667 0.40538 0.03192 0.0
C29 C 0.2461 0.43619 0.05306 0.0
H30 H 0.27033 0.48629 0.09508 0.0
H31 H 0.3068 0.45522 0.12234 0.0
H32 H 0.24592 0.25747 0.98726 0.0
H33 H 0.2242 0.33684 0.99273 0.0
H34 H 0.22083 0.41732 0.01921 0.0
H35 H 0.23723 0.47112 0.05623 0.0
Mn36 Mn 0.13434 0.71471 0.04064 0.0
Mn37 Mn 0.19459 0.71647 0.06419 0.0
C38 C 0.16649 0.68022 0.01448 0.0
C39 C 0.09597 0.67177 0.03898 0.0
C40 C 0.16884 0.80389 0.03834 0.0
O41 O 0.12989 0.73116 0.08206 0.0
O42 O 0.17083 0.72742 0.09583 0.0
C43 C 0.19313 0.62734 0.09865 0.0
N44 N 0.20351 0.65327 0.07725 0.0
C45 C 0.23414 0.59054 0.06802 0.0
C46 C 0.22385 0.56328 0.09011 0.0
C47 C 0.2032 0.58167 0.10538 0.0
C48 C 0.2232 0.63569 0.06219 0.0
H49 H 0.17729 0.64146 0.11048 0.0
C50 C 0.14715 0.73354 0.10079 0.0
O51 O 0.09667 0.71792 0.03315 0.0
O52 O 0.11705 0.6519 0.04653 0.0
N53 N 0.21947 0.70609 0.03562 0.0
C54 C 0.22654 0.73628 0.01439 0.0
C55 C 0.2466 0.72277 0.99667 0.0
C56 C 0.25934 0.67868 0.00113 0.0
C57 C 0.25185 0.64842 0.02326 0.0
C58 C 0.23174 0.66379 0.04024 0.0
H59 H 0.21695 0.77038 0.01099 0.0
O60 O 0.14537 0.6925 0.00259 0.0
O61 O 0.16797 0.68846 0.04117 0.0
O62 O 0.14743 0.78432 0.03238 0.0
O63 O 0.18705 0.7819 0.05051 0.0
C64 C 0.26354 0.6036 0.02912 0.0
C65 C 0.25469 0.5747 0.05145 0.0
H66 H 0.23148 0.52809 0.09549 0.0
H67 H 0.19512 0.56072 0.12236 0.0
H68 H 0.25227 0.74635 0.97965 0.0
H69 H 0.27482 0.66841 0.98743 0.0
H70 H 0.2793 0.59091 0.01654 0.0
H71 H 0.26392 0.54044 0.05561 0.0
Mn72 Mn 0.3702 0.22272 0.46097 0.0
Mn73 Mn 0.31181 0.22624 0.43206 0.0
C74 C 0.33653 0.18546 0.48294 0.0
C75 C 0.40859 0.18008 0.46456 0.0
C76 C 0.33458 0.31045 0.46424 0.0
O77 O 0.37761 0.24411 0.42092 0.0
O78 O 0.33782 0.24235 0.40341 0.0
C79 C 0.31723 0.14194 0.39406 0.0
N80 N 0.30484 0.16458 0.41541 0.0
C81 C 0.27477 0.09916 0.41914 0.0
C82 C 0.28712 0.07529 0.39707 0.0
C83 C 0.3085 0.0967 0.38455 0.0
C84 C 0.28442 0.14405 0.4278 0.0
H85 H 0.33365 0.1583 0.38436 0.0
C86 C 0.36176 0.24905 0.40093 0.0
O87 O 0.40719 0.22546 0.47199 0.0
O88 O 0.38828 0.16101 0.45429 0.0
N89 N 0.28475 0.21113 0.45736 0.0
C90 C 0.27515 0.23861 0.4786 0.0
C91 C 0.25388 0.22209 0.49351 0.0
C92 C 0.2425 0.17781 0.48622 0.0
C93 C 0.2525 0.15043 0.46407 0.0
C94 C 0.27367 0.16887 0.44988 0.0
H95 H 0.28361 0.27291 0.48408 0.0
O96 O 0.35675 0.19634 0.49697 0.0
O97 O 0.33683 0.19605 0.45645 0.0
O98 O 0.35582 0.29076 0.47086 0.0
O99 O 0.31744 0.28978 0.44957 0.0
C100 C 0.24226 0.10566 0.45546 0.0
C101 C 0.25336 0.08011 0.43299 0.0
H102 H 0.28042 0.04041 0.38967 0.0
H103 H 0.31819 0.0784 0.36758 0.0
H104 H 0.24622 0.24354 0.51051 0.0
H105 H 0.22603 0.16532 0.4977 0.0
H106 H 0.22588 0.0905 0.466 0.0
H107 H 0.24518 0.04595 0.42646 0.0
Mn108 Mn 0.13509 0.78433 0.45702 0.0
Mn109 Mn 0.19491 0.78357 0.43186 0.0
C110 C 0.16717 0.8227 0.48118 0.0
C111 C 0.09611 0.82532 0.45861 0.0
C112 C 0.17133 0.6978 0.46193 0.0
O113 O 0.13001 0.76353 0.41641 0.0
O114 O 0.17061 0.76733 0.4015 0.0
C115 C 0.19078 0.86861 0.39417 0.0
N116 N 0.20221 0.84585 0.41613 0.0
C117 C 0.23145 0.91208 0.42225 0.0
C118 C 0.2201 0.9361 0.39959 0.0
C119 C 0.19961 0.91433 0.38557 0.0
C120 C 0.22175 0.86671 0.42996 0.0
H121 H 0.17506 0.85197 0.38332 0.0
C122 C 0.14692 0.75972 0.39739 0.0
O123 O 0.09768 0.77983 0.46581 0.0
O124 O 0.11665 0.84546 0.44962 0.0
N125 N 0.22038 0.79899 0.45902 0.0
C126 C 0.22899 0.77141 0.48073 0.0
C127 C 0.24927 0.78824 0.49712 0.0
C128 C 0.2607 0.83294 0.49082 0.0
C129 C 0.25171 0.86046 0.4682 0.0
C130 C 0.2315 0.84173 0.45254 0.0
H131 H 0.22052 0.73679 0.48546 0.0
O132 O 0.14644 0.81063 0.49395 0.0
O133 O 0.16831 0.81236 0.4547 0.0
O134 O 0.14962 0.71662 0.46737 0.0
O135 O 0.18898 0.7194 0.44851 0.0
C136 C 0.26204 0.90568 0.46054 0.0
C137 C 0.25192 0.93146 0.4376 0.0
H138 H 0.22688 0.97133 0.39287 0.0
H139 H 0.19069 0.93273 0.36813 0.0
H140 H 0.25615 0.76669 0.51448 0.0
H141 H 0.2764 0.84567 0.50344 0.0
H142 H 0.27774 0.92103 0.47218 0.0
H143 H 0.26012 0.96606 0.43191 0.0
Mn144 Mn 0.63276 0.71687 0.95813 0.0
Mn145 Mn 0.69293 0.71914 0.93415 0.0
C146 C 0.66509 0.68233 0.98391 0.0
C147 C 0.59443 0.67378 0.96026 0.0
C148 C 0.66718 0.80619 0.96044 0.0
O149 O 0.6281 0.73364 0.91679 0.0
O150 O 0.669 0.73033 0.90267 0.0
C151 C 0.69185 0.63047 0.89922 0.0
N152 N 0.70203 0.65614 0.92082 0.0
C153 C 0.73308 0.5939 0.92955 0.0
C154 C 0.72303 0.56694 0.90724 0.0
C155 C 0.70225 0.5852 0.89212 0.0
C156 C 0.72185 0.63867 0.93572 0.0
H157 H 0.67596 0.64454 0.88746 0.0
C158 C 0.64527 0.73638 0.89796 0.0
O159 O 0.59516 0.71993 0.96604 0.0
O160 O 0.61544 0.65404 0.95234 0.0
N161 N 0.71792 0.70865 0.9626 0.0
C162 C 0.72489 0.73861 0.98395 0.0
C163 C 0.745 0.72508 0.0016 0.0
C164 C 0.75789 0.68123 0.9969 0.0
C165 C 0.75051 0.65123 0.97464 0.0
C166 C 0.73032 0.66657 0.95778 0.0
H167 H 0.71518 0.77252 0.98754 0.0
O168 O 0.64404 0.69447 0.99602 0.0
O169 O 0.66642 0.69073 0.95722 0.0
O170 O 0.64583 0.78646 0.96649 0.0
O171 O 0.68534 0.7844 0.94806 0.0
C172 C 0.76241 0.60672 0.96851 0.0
C173 C 0.75373 0.57814 0.94598 0.0
H174 H 0.73102 0.53213 0.90157 0.0
H175 H 0.69434 0.5645 0.87496 0.0
H176 H 0.75059 0.74847 0.01872 0.0
H177 H 0.77342 0.67096 0.01053 0.0
H178 H 0.77823 0.59406 0.98101 0.0
H179 H 0.76318 0.5442 0.94151 0.0
Mn180 Mn 0.86469 0.28909 0.95612 0.0
Mn181 Mn 0.80581 0.29493 0.92905 0.0
C182 C 0.83249 0.32537 0.98122 0.0
C183 C 0.90395 0.3286 0.95971 0.0
C184 C 0.82826 0.20319 0.95414 0.0
O185 O 0.87028 0.27325 0.91483 0.0
O186 O 0.83071 0.28582 0.89825 0.0
C187 C 0.80976 0.3874 0.89785 0.0
N188 N 0.7983 0.35992 0.91789 0.0
C189 C 0.76794 0.42294 0.92764 0.0
C190 C 0.77931 0.45181 0.90694 0.0
C191 C 0.80039 0.43405 0.8921 0.0
C192 C 0.77818 0.37684 0.93251 0.0
H193 H 0.82588 0.37372 0.88632 0.0
C194 C 0.85427 0.2758 0.89481 0.0
O195 O 0.90201 0.28245 0.96521 0.0
O196 O 0.8836 0.35035 0.95155 0.0
N197 N 0.77997 0.3037 0.95676 0.0
C198 C 0.77174 0.27185 0.97663 0.0
C199 C 0.75121 0.28459 0.99387 0.0
C200 C 0.73918 0.32965 0.99031 0.0
C201 C 0.74786 0.36164 0.96957 0.0
C202 C 0.76842 0.347 0.95303 0.0
H203 H 0.78077 0.23701 0.97933 0.0
O204 O 0.85287 0.31103 0.99389 0.0
O205 O 0.83188 0.31856 0.95434 0.0
O206 O 0.84934 0.22069 0.96302 0.0
O207 O 0.81175 0.22763 0.9406 0.0
C208 C 0.73694 0.40751 0.96469 0.0
C209 C 0.74694 0.43807 0.94373 0.0
H210 H 0.77213 0.48771 0.90231 0.0
H211 H 0.80931 0.45621 0.87618 0.0
H212 H 0.74462 0.25968 0.00981 0.0
H213 H 0.72333 0.33931 0.00362 0.0
H214 H 0.72088 0.41971 0.97697 0.0
H215 H 0.73825 0.47306 0.94022 0.0
Mn216 Mn 0.63368 0.77982 0.54073 0.0
Mn217 Mn 0.69442 0.77614 0.56251 0.0
C218 C 0.66548 0.81399 0.51383 0.0
C219 C 0.59563 0.82398 0.54035 0.0
C220 C 0.66742 0.68968 0.53722 0.0
O221 O 0.63011 0.76293 0.58221 0.0
O222 O 0.67136 0.76573 0.59485 0.0
C223 C 0.69444 0.86509 0.59708 0.0
N224 N 0.70414 0.83898 0.57537 0.0
C225 C 0.73477 0.90115 0.56509 0.0
C226 C 0.72519 0.92859 0.58749 0.0
C227 C 0.70489 0.91058 0.60345 0.0
C228 C 0.7235 0.85617 0.55968 0.0
H229 H 0.67885 0.8513 0.60941 0.0
C230 C 0.64776 0.76012 0.60048 0.0
O231 O 0.59582 0.77791 0.53429 0.0
O232 O 0.61704 0.84305 0.54739 0.0
N233 N 0.71862 0.78599 0.53317 0.0
C234 C 0.72486 0.75583 0.51162 0.0
C235 C 0.74444 0.76903 0.49319 0.0
C236 C 0.75756 0.81281 0.49726 0.0
C237 C 0.75093 0.84303 0.51972 0.0
C238 C 0.73126 0.82798 0.53741 0.0
H239 H 0.71497 0.722 0.5085 0.0
O240 O 0.64403 0.80236 0.50245 0.0
O241 O 0.66748 0.80512 0.5404 0.0
O242 O 0.64603 0.70992 0.53187 0.0
O243 O 0.68605 0.71105 0.54895 0.0
C244 C 0.76299 0.88758 0.5252 0.0
C245 C 0.75489 0.91664 0.54778 0.0
H246 H 0.73305 0.96368 0.59259 0.0
H247 H 0.69735 0.93169 0.62066 0.0
H248 H 0.74944 0.74548 0.47591 0.0
H249 H 0.77263 0.82291 0.48298 0.0
H250 H 0.77846 0.9 0.51209 0.0
H251 H 0.76433 0.95079 0.55149 0.0
Mn252 Mn 0.86438 0.20576 0.5437 0.0
Mn253 Mn 0.80583 0.19589 0.57086 0.0
C254 C 0.83229 0.17041 0.51767 0.0
C255 C 0.90387 0.16709 0.53943 0.0
C256 C 0.82766 0.29045 0.54855 0.0
O257 O 0.86994 0.21889 0.58547 0.0
O258 O 0.83095 0.20035 0.60158 0.0
C259 C 0.81025 0.09985 0.59793 0.0
N260 N 0.79843 0.1298 0.57939 0.0
C261 C 0.76782 0.06836 0.56778 0.0
C262 C 0.77953 0.03704 0.58703 0.0
C263 C 0.80091 0.05274 0.60202 0.0
C264 C 0.77806 0.11485 0.56454 0.0
H265 H 0.82667 0.11187 0.60954 0.0
C266 C 0.85431 0.21119 0.60547 0.0
O267 O 0.90174 0.2135 0.53481 0.0
O268 O 0.88357 0.14457 0.54699 0.0
N269 N 0.77978 0.19061 0.54311 0.0
C270 C 0.77147 0.22467 0.52455 0.0
C271 C 0.75071 0.2141 0.50717 0.0
C272 C 0.73853 0.16892 0.50928 0.0
C273 C 0.74732 0.13461 0.52868 0.0
C274 C 0.76814 0.1471 0.54537 0.0
H275 H 0.78057 0.25963 0.52301 0.0
O276 O 0.85262 0.18595 0.50536 0.0
O277 O 0.83176 0.17546 0.54464 0.0
O278 O 0.84851 0.27404 0.53838 0.0
O279 O 0.8117 0.26457 0.56205 0.0
C280 C 0.73628 0.08846 0.53208 0.0
C281 C 0.74653 0.05537 0.55155 0.0
H282 H 0.77247 0.00075 0.59047 0.0
H283 H 0.8101 0.02863 0.61675 0.0
H284 H 0.74404 0.24079 0.49226 0.0
H285 H 0.72251 0.16093 0.49586 0.0
H286 H 0.71995 0.07794 0.51974 0.0
H287 H 0.73781 0.0201 0.55376 0.0
C288 C 0.3123 0.12332 0.06179 0.0
C289 C 0.32166 0.15185 0.03972 0.0
C290 C 0.29564 0.08512 0.0565 0.0
C291 C 0.26807 1.00005 0.00774 0.0
H292 H 0.20538 0.02791 0.04727 0.0
C293 C 0.18467 0.86479 0.00439 0.0
C294 C 0.17434 0.85448 0.03083 0.0
C295 C 0.19979 0.90612 0.00044 0.0
C296 C 0.22272 0.0193 0.03617 0.0
H297 H 0.32248 0.16067 0.99468 0.0
H298 H 0.2938 0.09211 0.98526 0.0
H299 H 0.24093 0.08402 0.05068 0.0
H300 H 0.17059 0.87988 0.07343 0.0
H301 H 0.19643 0.95184 0.06677 0.0
H302 H 0.25044 0.93395 0.99444 0.0
C303 C 0.29941 0.09966 0.00665 0.0
C304 C 0.24307 0.05156 0.03809 0.0
C305 C 0.31607 0.13839 0.012 0.0
C306 C 0.17769 0.88791 0.05262 0.0
C307 C 0.19274 0.92907 0.04875 0.0
C308 C 0.24778 0.9672 0.00615 0.0
C309 C 0.28806 0.07448 0.029 0.0
C310 C 0.26612 0.04174 0.02445 0.0
C311 C 0.20496 0.93764 0.02297 0.0
C312 C 0.22501 0.97586 0.02092 0.0
H313 H 0.31597 0.13351 0.08334 0.0
H314 H 0.28734 0.06589 0.07406 0.0
H315 H 0.28565 0.99181 0.99698 0.0
H316 H 0.18296 0.83875 0.98749 0.0
H317 H 0.20853 0.91189 0.98018 0.0
C318 C 0.17999 0.61004 0.45582 0.0
C319 C 0.17855 0.65044 0.47364 0.0
C320 C 0.1959 0.57094 0.46246 0.0
C321 C 0.22747 0.48696 0.48994 0.0
H322 H 0.29686 0.53428 0.49143 0.0
C323 C 0.31273 0.35767 0.50084 0.0
C324 C 0.32709 0.35756 0.47605 0.0
C325 C 0.29614 0.39601 0.50669 0.0
C326 C 0.27758 0.52067 0.49143 0.0
H327 H 0.19157 0.68099 0.51281 0.0
H328 H 0.21979 0.61311 0.52416 0.0
H329 H 0.26144 0.59216 0.49123 0.0
H330 H 0.33668 0.39848 0.43888 0.0
H331 H 0.30887 0.4672 0.45001 0.0
H332 H 0.24362 0.41548 0.4899 0.0
C333 C 0.20827 0.61121 0.5054 0.0
C334 C 0.25735 0.55363 0.49142 0.0
C335 C 0.1919 0.64968 0.49909 0.0
C336 C 0.3264 0.39845 0.45854 0.0
C337 C 0.31027 0.43742 0.46475 0.0
C338 C 0.24768 0.45399 0.49068 0.0
C339 C 0.21112 0.57238 0.48662 0.0
C340 C 0.23213 0.53709 0.49015 0.0
C341 C 0.29408 0.43535 0.48813 0.0
C342 C 0.27292 0.47055 0.49091 0.0
H343 H 0.17049 0.61052 0.43569 0.0
H344 H 0.19791 0.54157 0.44754 0.0
H345 H 0.20822 0.47337 0.48879 0.0
H346 H 0.31246 0.32595 0.51426 0.0
H347 H 0.28386 0.39363 0.52484 0.0
C348 C 0.67623 0.89041 0.94662 0.0
C349 C 0.67272 0.85665 0.96823 0.0
C350 C 0.69124 0.93152 0.9508 0.0
C351 C 0.74604 0.969 0.99386 0.0
H352 H 0.73929 0.08662 0.94999 0.0
C353 C 0.81485 0.13974 0.98839 0.0
C354 C 0.82049 0.1531 0.96065 0.0
C355 C 0.79796 0.10135 0.99377 0.0
C356 C 0.74139 0.05396 0.96242 0.0
H357 H 0.68106 0.84023 0.01154 0.0
H358 H 0.70661 0.91323 0.01939 0.0
H359 H 0.70372 0.03047 0.95304 0.0
H360 H 0.81468 0.13484 0.91704 0.0
H361 H 0.78565 0.06787 0.92638 0.0
H362 H 0.78392 0.99337 0.00317 0.0
C363 C 0.69799 0.90779 0.99905 0.0
C364 C 0.72104 0.02167 0.96413 0.0
C365 C 0.68288 0.86654 0.99479 0.0
C366 C 0.81092 0.12479 0.93861 0.0
C367 C 0.79405 0.08694 0.94393 0.0
C368 C 0.76635 0.00185 0.99247 0.0
C369 C 0.70329 0.93969 0.97672 0.0
C370 C 0.7233 0.97792 0.9791 0.0
C371 C 0.78645 0.07641 0.97143 0.0
C372 C 0.76443 0.04384 0.976 0.0
H373 H 0.66926 0.88272 0.92572 0.0
H374 H 0.69504 0.95461 0.93294 0.0
H375 H 0.74867 0.93552 0.00537 0.0
H376 H 0.82144 0.16181 0.00569 0.0
H377 H 0.79235 0.09384 0.01516 0.0
C378 C 0.6746 0.605 0.55132 0.0
C379 C 0.67235 0.63894 0.5296 0.0
C380 C 0.6895 0.56348 0.5479 0.0
C381 C 0.74604 0.52546 0.50782 0.0
H382 H 0.73701 0.40754 0.5509 0.0
C383 C 0.81549 0.35673 0.51537 0.0
C384 C 0.81916 0.34054 0.543 0.0
C385 C 0.7986 0.39506 0.50981 0.0
C386 C 0.73979 0.44032 0.53874 0.0
H387 H 0.68266 0.65511 0.48677 0.0
H388 H 0.70797 0.58145 0.48021 0.0
H389 H 0.70182 0.46424 0.54623 0.0
H390 H 0.80996 0.35407 0.5865 0.0
H391 H 0.78099 0.42096 0.5769 0.0
H392 H 0.7842 0.50076 0.50043 0.0
C393 C 0.6985 0.58708 0.50008 0.0
C394 C 0.71963 0.47289 0.53609 0.0
C395 C 0.68354 0.62872 0.50358 0.0
C396 C 0.80761 0.3661 0.56504 0.0
C397 C 0.79078 0.40393 0.55952 0.0
C398 C 0.76617 0.49236 0.51019 0.0
C399 C 0.70266 0.5551 0.52265 0.0
C400 C 0.72266 0.51668 0.52133 0.0
C401 C 0.78515 0.41721 0.53183 0.0
C402 C 0.76343 0.45024 0.52641 0.0
H403 H 0.66684 0.61291 0.57185 0.0
H404 H 0.69238 0.54028 0.56592 0.0
H405 H 0.74927 0.55898 0.49655 0.0
H406 H 0.82371 0.33693 0.49799 0.0
H407 H 0.79461 0.40478 0.48827 0.0
C408 C 0.34178 0.25194 0.15474 0.0
C409 C 0.35979 0.26994 0.13572 0.0
C410 C 0.34687 0.25103 0.18333 0.0
C411 C 0.35318 0.28997 0.24116 0.0
H412 H 0.41614 0.25175 0.27682 0.0
C413 C 0.36082 0.30271 0.35938 0.0
C414 C 0.37097 0.26198 0.37288 0.0
C415 C 0.36491 0.30995 0.33082 0.0
C416 C 0.39843 0.26251 0.26715 0.0
H417 H 0.39785 0.29875 0.1316 0.0
H418 H 0.40667 0.29804 0.18216 0.0
H419 H 0.41232 0.24786 0.22565 0.0
H420 H 0.39424 0.19795 0.36787 0.0
H421 H 0.40061 0.20925 0.31746 0.0
H422 H 0.33866 0.30252 0.28208 0.0
C423 C 0.38866 0.28425 0.17472 0.0
C424 C 0.39634 0.26065 0.23785 0.0
C425 C 0.38363 0.28468 0.14583 0.0
C426 C 0.3865 0.22994 0.35781 0.0
C427 C 0.39015 0.23655 0.32897 0.0
C428 C 0.35521 0.29162 0.27021 0.0
C429 C 0.36997 0.26876 0.19381 0.0
C430 C 0.37347 0.27349 0.22461 0.0
C431 C 0.37852 0.27565 0.31492 0.0
C432 C 0.37774 0.27752 0.28371 0.0
H433 H 0.32341 0.23945 0.14755 0.0
H434 H 0.33236 0.23744 0.19736 0.0
H435 H 0.33546 0.3011 0.23165 0.0
H436 H 0.34883 0.3279 0.37073 0.0
H437 H 0.35631 0.34126 0.32093 0.0
C438 C 0.15444 0.71573 0.35287 0.0
C439 C 0.13931 0.74752 0.36856 0.0
C440 C 0.1505 0.71033 0.32417 0.0
C441 C 0.15422 0.7388 0.26413 0.0
H442 H 0.09068 0.74755 0.22355 0.0
C443 C 0.156 0.77136 0.14688 0.0
C444 C 0.14003 0.74277 0.13019 0.0
C445 C 0.15216 0.7744 0.17569 0.0
C446 C 0.10855 0.74478 0.23461 0.0
H447 H 0.10733 0.79671 0.3671 0.0
H448 H 0.10096 0.78885 0.31642 0.0
H449 H 0.09031 0.74211 0.27484 0.0
H450 H 0.10669 0.69692 0.13014 0.0
H451 H 0.10037 0.70083 0.18104 0.0
H452 H 0.17256 0.74006 0.22441 0.0
C453 C 0.11551 0.76716 0.32639 0.0
C454 C 0.10835 0.74205 0.26399 0.0
C455 C 0.11915 0.77176 0.35538 0.0
C456 C 0.11921 0.71934 0.14262 0.0
C457 C 0.11561 0.72167 0.17173 0.0
C458 C 0.15441 0.74123 0.23502 0.0
C459 C 0.1318 0.73771 0.3103 0.0
C460 C 0.13125 0.73901 0.27909 0.0
C461 C 0.13262 0.74793 0.18868 0.0
C462 C 0.13166 0.74479 0.21982 0.0
H463 H 0.16992 0.69619 0.36268 0.0
H464 H 0.16286 0.68608 0.31266 0.0
H465 H 0.17227 0.73756 0.27491 0.0
H466 H 0.17197 0.79037 0.13771 0.0
H467 H 0.16512 0.79628 0.18794 0.0
C468 C 0.61904 0.71982 0.85524 0.0
C469 C 0.63801 0.74675 0.86879 0.0
C470 C 0.6158 0.72376 0.82615 0.0
C471 C 0.65419 0.75779 0.76444 0.0
H472 H 0.59163 0.74034 0.72299 0.0
C473 C 0.61949 0.77194 0.64238 0.0
C474 C 0.64119 0.75125 0.63012 0.0
C475 C 0.61589 0.76963 0.67149 0.0
C476 C 0.60921 0.7456 0.73429 0.0
H477 H 0.66685 0.8018 0.86344 0.0
H478 H 0.66039 0.81073 0.81325 0.0
H479 H 0.59048 0.74525 0.77426 0.0
H480 H 0.67488 0.70843 0.63813 0.0
H481 H 0.66817 0.70268 0.68835 0.0
H482 H 0.67295 0.75961 0.72495 0.0
C483 C 0.64873 0.78493 0.82454 0.0
C484 C 0.60859 0.74798 0.76367 0.0
C485 C 0.65232 0.78021 0.85333 0.0
C486 C 0.65821 0.72543 0.6471 0.0
C487 C 0.65443 0.72245 0.67592 0.0
C488 C 0.65478 0.75574 0.73532 0.0
C489 C 0.63126 0.75522 0.81033 0.0
C490 C 0.63113 0.7541 0.7791 0.0
C491 C 0.63381 0.74612 0.68868 0.0
C492 C 0.6324 0.74906 0.7198 0.0
H493 H 0.60788 0.69358 0.8668 0.0
H494 H 0.60221 0.70023 0.81593 0.0
H495 H 0.67203 0.7615 0.77546 0.0
H496 H 0.60611 0.79216 0.62972 0.0
H497 H 0.59981 0.78829 0.68061 0.0
C498 C 0.88594 0.23669 0.6425 0.0
C499 C 0.8632 0.2134 0.63492 0.0
C500 C 0.89318 0.2397 0.67077 0.0
C501 C 0.88016 0.18391 0.74012 0.0
H502 H 0.89341 0.31141 0.77118 0.0
C503 C 0.84563 0.24377 0.84709 0.0
C504 C 0.86275 0.26503 0.86597 0.0
C505 C 0.85292 0.23388 0.81964 0.0
C506 C 0.89034 0.27541 0.76273 0.0
H507 H 0.83069 0.17383 0.65113 0.0
H508 H 0.84318 0.17908 0.69967 0.0
H509 H 0.89353 0.29998 0.7202 0.0
H510 H 0.90095 0.29282 0.87092 0.0
H511 H 0.9135 0.27686 0.82202 0.0
H512 H 0.87508 0.16016 0.78246 0.0
C513 C 0.85558 0.19481 0.68401 0.0
C514 C 0.89043 0.26882 0.73361 0.0
C515 C 0.84827 0.19227 0.65606 0.0
C516 C 0.88743 0.27622 0.85678 0.0
C517 C 0.89458 0.26727 0.82892 0.0
C518 C 0.87985 0.19058 0.76907 0.0
C519 C 0.87801 0.21869 0.69179 0.0
C520 C 0.88417 0.22345 0.72203 0.0
C521 C 0.87735 0.24576 0.81023 0.0
C522 C 0.88389 0.23677 0.78056 0.0
H523 H 0.89785 0.25335 0.6267 0.0
H524 H 0.91055 0.25842 0.6762 0.0
H525 H 0.87579 0.1483 0.73182 0.0
H526 H 0.82654 0.23448 0.85358 0.0
H527 H 0.83922 0.21772 0.80552 0.0
C528 C 0.44583 0.34488 0.01856 0.0
C529 C 0.42696 0.35904 0.03765 0.0
C530 C 0.4649 0.37772 0.01058 0.0
C531 C 0.49494 0.49587 0.02997 0.0
H532 H 0.50911 0.50518 0.95047 0.0
C533 C 0.55275 0.65589 0.98398 0.0
C534 C 0.57189 0.64269 0.96498 0.0
C535 C 0.53419 0.62205 0.992 0.0
C536 C 0.5055 0.5029 0.97277 0.0
H537 H 0.41412 0.41753 0.06456 0.0
H538 H 0.44707 0.47411 0.05087 0.0
H539 H 0.48106 0.44144 0.96772 0.0
H540 H 0.58575 0.58472 0.93832 0.0
H541 H 0.55358 0.52636 0.95205 0.0
H542 H 0.5193 0.55744 0.03501 0.0
C543 C 0.44739 0.43797 0.04197 0.0
C544 C 0.48953 0.4661 0.98269 0.0
C545 C 0.42838 0.40547 0.04975 0.0
C546 C 0.57126 0.59606 0.95304 0.0
C547 C 0.55272 0.56254 0.96085 0.0
C548 C 0.51087 0.5327 0.02005 0.0
C549 C 0.46555 0.42509 0.02176 0.0
C550 C 0.48397 0.46217 0.01142 0.0
C551 C 0.53431 0.57459 0.98096 0.0
C552 C 0.51634 0.53677 0.99131 0.0
H553 H 0.44513 0.30947 0.00876 0.0
H554 H 0.47882 0.36639 0.99522 0.0
H555 H 0.49135 0.49364 0.05227 0.0
H556 H 0.55282 0.69143 0.99366 0.0
H557 H 0.52005 0.63274 0.00726 0.0
C558 C 0.05418 0.65333 0.01573 0.0
C559 C 0.07331 0.64083 0.03488 0.0
C560 C 0.03552 0.61932 0.00831 0.0
C561 C 0.02541 0.48579 0.00701 0.0
H562 H 0.95577 0.5205 0.99072 0.0
C563 C 0.94528 0.34444 0.98472 0.0
C564 C 0.92715 0.35771 0.96457 0.0
C565 C 0.96418 0.37754 0.99286 0.0
C566 C 0.97524 0.51024 0.9949 0.0
H567 H 0.0869 0.58426 0.06269 0.0
H568 H 0.05417 0.52596 0.05049 0.0
H569 H 0.98514 0.58264 0.00699 0.0
H570 H 0.91571 0.41442 0.93569 0.0
H571 H 0.94869 0.47114 0.94932 0.0
H572 H 0.01541 0.4133 0.99497 0.0
C573 C 0.0539 0.56118 0.04043 0.0
C574 C 0.99209 0.54596 0.00425 0.0
C575 C 0.07254 0.59487 0.04765 0.0
C576 C 0.92924 0.40327 0.95152 0.0
C577 C 0.94802 0.43604 0.95952 0.0
C578 C 0.00853 0.45002 0.99773 0.0
C579 C 0.03559 0.57232 0.02004 0.0
C580 C 0.01742 0.53428 0.01039 0.0
C581 C 0.96522 0.42433 0.98093 0.0
C582 C 0.98326 0.46185 0.99138 0.0
H583 H 0.05443 0.68831 0.00538 0.0
H584 H 0.02176 0.62916 0.99246 0.0
H585 H 0.0449 0.47552 0.01105 0.0
H586 H 0.94401 0.30974 0.99528 0.0
H587 H 0.97717 0.36735 0.00942 0.0
C588 C 0.57295 0.90119 0.55039 0.0
C589 C 0.57317 0.85574 0.53702 0.0
C590 C 0.55461 0.93587 0.54376 0.0
C591 C 0.49287 0.95531 0.50797 0.0
H592 H 0.51792 0.08705 0.50012 0.0
C593 C 0.43227 0.10331 0.45639 0.0
C594 C 0.43095 0.14872 0.46974 0.0
C595 C 0.45036 0.06902 0.46433 0.0
C596 C 0.51055 0.0506 0.5025 0.0
H597 H 0.55359 0.81017 0.50712 0.0
H598 H 0.52145 0.87108 0.49523 0.0
H599 H 0.54658 0.02289 0.51548 0.0
H600 H 0.44845 0.19465 0.50104 0.0
H601 H 0.48037 0.13443 0.51502 0.0
H602 H 0.4569 0.98302 0.49472 0.0
C603 C 0.53541 0.87974 0.51109 0.0
C604 C 0.52696 0.01371 0.51137 0.0
C605 C 0.55376 0.84472 0.51792 0.0
C606 C 0.44911 0.16011 0.49024 0.0
C607 C 0.46731 0.12552 0.49829 0.0
C608 C 0.47649 0.99216 0.49902 0.0
C609 C 0.53607 0.92629 0.52338 0.0
C610 C 0.51835 0.96553 0.51422 0.0
C611 C 0.46764 0.07904 0.48594 0.0
C612 C 0.48514 0.04025 0.49603 0.0
H613 H 0.58754 0.91066 0.56541 0.0
H614 H 0.55533 0.97069 0.55425 0.0
H615 H 0.48545 0.91889 0.51031 0.0
H616 H 0.41872 0.0935 0.4403 0.0
H617 H 0.45047 0.03417 0.45385 0.0
C618 C 0.92987 0.09352 0.54796 0.0
C619 C 0.92726 0.1386 0.53448 0.0
C620 C 0.94869 0.06087 0.53986 0.0
C621 C 0.00833 0.04657 0.4998 0.0
H622 H 0.98553 0.91311 0.49336 0.0
C623 C 0.07157 0.9008 0.44938 0.0
C624 C 0.07323 0.85563 0.46296 0.0
C625 C 0.05292 0.93436 0.45682 0.0
C626 C 0.99231 0.95004 0.4953 0.0
H627 H 0.94321 0.1859 0.50287 0.0
H628 H 0.97641 0.12846 0.48848 0.0
H629 H 0.95627 0.97535 0.5098 0.0
H630 H 0.05583 0.80935 0.49417 0.0
H631 H 0.0231 0.86824 0.50739 0.0
H632 H 0.04442 0.02121 0.48541 0.0
C633 C 0.96384 0.11857 0.50549 0.0
C634 C 0.97553 0.98583 0.50476 0.0
C635 C 0.94492 0.15159 0.51377 0.0
C636 C 0.0549 0.84368 0.48317 0.0
C637 C 0.03621 0.87755 0.49077 0.0
C638 C 0.02514 0.01074 0.49037 0.0
C639 C 0.96538 0.07215 0.51787 0.0
C640 C 0.98335 0.03453 0.50729 0.0
C641 C 0.03546 0.92388 0.47821 0.0
C642 C 0.01736 0.96197 0.48801 0.0
H643 H 0.91669 0.08262 0.56421 0.0
H644 H 0.94976 0.02613 0.55042 0.0
H645 H 0.01507 0.08353 0.50177 0.0
H646 H 0.0853 0.91099 0.43353 0.0
H647 H 0.05254 0.96904 0.44614 0.0
C648 C 0.19443 0.65353 0.97505 0.0
C649 C 0.18277 0.64427 0.00092 0.0
C650 C 0.20985 0.6181 0.96268 0.0
C651 C 0.22438 0.48741 0.96394 0.0
H652 H 0.29523 0.52473 0.96482 0.0
C653 C 0.31501 0.40609 0.01521 0.0
C654 C 0.31691 0.35921 0.00415 0.0
C655 C 0.30026 0.44087 0.00184 0.0
C656 C 0.27552 0.51386 0.96362 0.0
H657 H 0.17589 0.59051 0.03309 0.0
H658 H 0.20254 0.52868 0.01159 0.0
H659 H 0.26248 0.58737 0.96367 0.0
H660 H 0.30657 0.31206 0.96978 0.0
H661 H 0.27939 0.373 0.9467 0.0
H662 H 0.23739 0.41398 0.96568 0.0
C663 C 0.20013 0.56306 0.00089 0.0
C664 C 0.25681 0.54964 0.9629 0.0
C665 C 0.18527 0.59859 0.01342 0.0
C666 C 0.30483 0.34796 0.97881 0.0
C667 C 0.28955 0.38269 0.9656 0.0
C668 C 0.24309 0.45161 0.96403 0.0
C669 C 0.21278 0.57262 0.9756 0.0
C670 C 0.23119 0.53662 0.96522 0.0
C671 C 0.28714 0.42938 0.97713 0.0
C672 C 0.26871 0.46475 0.96604 0.0
H673 H 0.19223 0.68847 0.96494 0.0
H674 H 0.21967 0.62629 0.94332 0.0
H675 H 0.20467 0.47664 0.96545 0.0
H676 H 0.32474 0.41566 0.03443 0.0
H677 H 0.29828 0.47624 0.01152 0.0
C678 C 0.306 0.15889 0.51973 0.0
C679 C 0.31888 0.15 0.49455 0.0
C680 C 0.28975 0.12364 0.53079 0.0
C681 C 0.2756 0.99367 0.5292 0.0
H682 H 0.20455 0.02937 0.5256 0.0
C683 C 0.1855 0.90464 0.4803 0.0
C684 C 0.18349 0.85959 0.49363 0.0
C685 C 0.20026 0.94111 0.49197 0.0
C686 C 0.22431 0.01906 0.5275 0.0
H687 H 0.32698 0.09705 0.46229 0.0
H688 H 0.29881 0.03532 0.48161 0.0
H689 H 0.23694 0.09275 0.52594 0.0
H690 H 0.19362 0.81749 0.53022 0.0
H691 H 0.22084 0.88136 0.55035 0.0
H692 H 0.26303 0.91993 0.5292 0.0
C693 C 0.30089 0.06944 0.49265 0.0
C694 C 0.24278 0.05523 0.52773 0.0
C695 C 0.31662 0.10485 0.48138 0.0
C696 C 0.19549 0.85192 0.51946 0.0
C697 C 0.21078 0.88829 0.53097 0.0
C698 C 0.25711 0.95753 0.52958 0.0
C699 C 0.28718 0.07866 0.51729 0.0
C700 C 0.26851 0.04258 0.52674 0.0
C701 C 0.21326 0.93311 0.51721 0.0
C702 C 0.23145 0.96999 0.52683 0.0
H703 H 0.30805 0.19337 0.53038 0.0
H704 H 0.27914 0.13146 0.5497 0.0
H705 H 0.29541 0.98328 0.52863 0.0
H706 H 0.17579 0.91146 0.46067 0.0
H707 H 0.20229 0.97501 0.48068 0.0
C708 C 0.69305 0.65535 0.02321 0.0
C709 C 0.68147 0.64639 0.99728 0.0
C710 C 0.7085 0.61985 0.03543 0.0
C711 C 0.75551 0.55149 0.03499 0.0
H712 H 0.736 0.41589 0.0319 0.0
C713 C 0.81441 0.4075 0.98377 0.0
C714 C 0.816 0.36068 0.99496 0.0
C715 C 0.79945 0.44242 0.99673 0.0
C716 C 0.74171 0.4535 0.03365 0.0
H717 H 0.67477 0.59309 0.96482 0.0
H718 H 0.7015 0.53114 0.98606 0.0
H719 H 0.70332 0.47863 0.03212 0.0
H720 H 0.80497 0.31375 0.02919 0.0
H721 H 0.77748 0.37492 0.05156 0.0
H722 H 0.79393 0.52649 0.03332 0.0
C723 C 0.699 0.56535 0.99692 0.0
C724 C 0.72304 0.48933 0.03374 0.0
C725 C 0.6841 0.60094 0.98454 0.0
C726 C 0.80342 0.3496 0.02004 0.0
C727 C 0.78798 0.38445 0.03284 0.0
C728 C 0.77419 0.51568 0.03436 0.0
C729 C 0.71154 0.57461 0.02229 0.0
C730 C 0.7299 0.53853 0.0326 0.0
C731 C 0.78587 0.4311 0.02118 0.0
C732 C 0.76736 0.4666 0.03188 0.0
H733 H 0.69074 0.69011 0.03349 0.0
H734 H 0.71824 0.62778 0.05487 0.0
H735 H 0.76121 0.58922 0.03427 0.0
H736 H 0.82456 0.41694 0.96478 0.0
H737 H 0.79772 0.47777 0.98697 0.0
C738 C 0.69269 0.84217 0.47406 0.0
C739 C 0.68144 0.85048 0.50025 0.0
C740 C 0.70784 0.87812 0.46178 0.0
C741 C 0.75464 0.94683 0.46141 0.0
H742 H 0.73527 0.08231 0.46683 0.0
C743 C 0.8149 0.08796 0.51326 0.0
C744 C 0.81591 0.13566 0.50328 0.0
C745 C 0.79977 0.05373 0.49993 0.0
C746 C 0.74095 0.04477 0.46447 0.0
H747 H 0.67503 0.90313 0.53314 0.0
H748 H 0.7012 0.9658 0.51181 0.0
H749 H 0.70258 0.01967 0.46671 0.0
H750 H 0.80359 0.18496 0.47074 0.0
H751 H 0.77586 0.12494 0.44774 0.0
H752 H 0.7931 0.97167 0.4624 0.0
C753 C 0.69868 0.93179 0.50077 0.0
C754 C 0.72226 0.00897 0.46444 0.0
C755 C 0.68408 0.89576 0.51319 0.0
C756 C 0.80256 0.14837 0.47896 0.0
C757 C 0.78695 0.11417 0.46579 0.0
C758 C 0.77336 0.98259 0.46207 0.0
C759 C 0.71093 0.92319 0.47513 0.0
C760 C 0.72909 0.9597 0.46476 0.0
C761 C 0.78539 0.0666 0.47631 0.0
C762 C 0.76663 0.03159 0.46547 0.0
H763 H 0.69039 0.80757 0.46362 0.0
H764 H 0.71735 0.87065 0.44213 0.0
H765 H 0.76034 0.90908 0.46138 0.0
H766 H 0.82558 0.07731 0.53166 0.0
H767 H 0.7985 0.01767 0.50888 0.0
loop_
_geom_bond_atom_site_label_1
_geom_bond_atom_site_label_2
_geom_bond_distance
_geom_bond_site_symmetry_2
_ccdc_geom_bond_type
Mn0 O5 2.095 . S
Mn0 O15 2.162 . S
Mn0 O16 2.297 . S
Mn0 O24 2.385 . S
Mn0 O25 2.209 . S
Mn0 O26 2.094 . S
Mn1 O6 2.121 . S
Mn1 N8 2.257 . S
Mn1 N17 2.282 . S
Mn1 O25 2.215 . S
Mn1 O27 2.117 . S
C2 O24 1.234 . S
C2 O25 1.283 . S
C3 O15 1.281 . S
C3 O16 1.236 . S
C4 O26 1.240 . S
C4 O27 1.264 . S
O5 Mn0 2.095 . S
O5 C14 1.250 . S
O6 Mn1 2.121 . S
O6 C14 1.258 . S
C7 N8 1.326 . S
C7 C11 1.460 . S
C7 H13 0.929 . S
N8 Mn1 2.257 . S
N8 C7 1.326 . S
N8 C12 1.362 . S
C9 C10 1.258 . S
C9 C12 1.431 . S
C9 C29 1.449 . S
C10 C9 1.258 . S
C10 C11 1.477 . S
C10 H30 0.931 . S
C11 C7 1.460 . S
C11 C10 1.477 . S
C11 H31 0.930 . S
C12 N8 1.362 . S
C12 C9 1.431 . S
C12 C22 1.476 . S
H13 C7 0.929 . S
C14 O5 1.250 . S
C14 O6 1.258 . S
O15 Mn0 2.162 . S
O15 C3 1.281 . S
O16 Mn0 2.297 . S
O16 C3 1.236 . S
N17 Mn1 2.282 . S
N17 C18 1.328 . S
N17 C22 1.318 . S
C18 N17 1.328 . S
C18 C19 1.457 . S
C18 H23 0.929 . S
C19 C18 1.457 . S
C19 C20 1.291 . S
C19 H32 0.922 1_554 S
C20 C19 1.291 . S
C20 C21 1.373 . S
C20 H33 0.929 . S
C21 C20 1.373 . S
C21 C22 1.396 . S
C21 C28 1.403 . S
C22 C12 1.476 . S
C22 N17 1.318 . S
C22 C21 1.396 . S
H23 C18 0.929 . S
O24 Mn0 2.385 . S
O24 C2 1.234 . S
O25 Mn0 2.209 . S
O25 Mn1 2.215 . S
O25 C2 1.283 . S
O26 Mn0 2.094 . S
O26 C4 1.240 . S
O27 Mn1 2.117 . S
O27 C4 1.264 . S
C28 C21 1.403 . S
C28 C29 1.399 . S
C28 H34 0.929 . S
C29 C9 1.449 . S
C29 C28 1.399 . S
C29 H35 0.930 . S
H30 C10 0.931 . S
H31 C11 0.930 . S
H32 C19 0.922 1_556 S
H33 C20 0.929 . S
H34 C28 0.929 . S
H35 C29 0.930 . S
Mn36 O41 2.095 . S
Mn36 O51 2.162 . S
Mn36 O52 2.297 . S
Mn36 O60 2.385 . S
Mn36 O61 2.209 . S
Mn36 O62 2.094 . S
Mn37 O42 2.121 . S
Mn37 N44 2.257 . S
Mn37 N53 2.282 . S
Mn37 O61 2.215 . S
Mn37 O63 2.117 . S
C38 O60 1.234 . S
C38 O61 1.283 . S
C39 O51 1.281 . S
C39 O52 1.236 . S
C40 O62 1.240 . S
C40 O63 1.264 . S
O41 Mn36 2.095 . S
O41 C50 1.250 . S
O42 Mn37 2.121 . S
O42 C50 1.258 . S
C43 N44 1.326 . S
C43 C47 1.460 . S
C43 H49 0.929 . S
N44 Mn37 2.257 . S
N44 C43 1.326 . S
N44 C48 1.362 . S
C45 C46 1.258 . S
C45 C48 1.431 . S
C45 C65 1.449 . S
C46 C45 1.258 . S
C46 C47 1.477 . S
C46 H66 0.931 . S
C47 C43 1.460 . S
C47 C46 1.477 . S
C47 H67 0.930 . S
C48 N44 1.362 . S
C48 C45 1.431 . S
C48 C58 1.476 . S
H49 C43 0.929 . S
C50 O41 1.250 . S
C50 O42 1.258 . S
O51 Mn36 2.162 . S
O51 C39 1.281 . S
O52 Mn36 2.297 . S
O52 C39 1.236 . S
N53 Mn37 2.282 . S
N53 C54 1.328 . S
N53 C58 1.318 . S
C54 N53 1.328 . S
C54 C55 1.457 . S
C54 H59 0.929 . S
C55 C54 1.457 . S
C55 C56 1.291 . S
C55 H68 0.922 1_554 S
C56 C55 1.291 . S
C56 C57 1.373 . S
C56 H69 0.929 . S
C57 C56 1.373 . S
C57 C58 1.396 . S
C57 C64 1.403 . S
C58 C48 1.476 . S
C58 N53 1.318 . S
C58 C57 1.396 . S
H59 C54 0.929 . S
O60 Mn36 2.385 . S
O60 C38 1.234 . S
O61 Mn36 2.209 . S
O61 Mn37 2.215 . S
O61 C38 1.283 . S
O62 Mn36 2.094 . S
O62 C40 1.240 . S
O63 Mn37 2.117 . S
O63 C40 1.264 . S
C64 C57 1.403 . S
C64 C65 1.399 . S
C64 H70 0.929 . S
C65 C45 1.449 . S
C65 C64 1.399 . S
C65 H71 0.930 . S
H66 C46 0.931 . S
H67 C47 0.930 . S
H68 C55 0.922 1_556 S
H69 C56 0.929 . S
H70 C64 0.929 . S
H71 C65 0.930 . S
Mn72 O77 2.095 . S
Mn72 O87 2.162 . S
Mn72 O88 2.297 . S
Mn72 O96 2.385 . S
Mn72 O97 2.209 . S
Mn72 O98 2.094 . S
Mn73 O78 2.121 . S
Mn73 N80 2.257 . S
Mn73 N89 2.282 . S
Mn73 O97 2.215 . S
Mn73 O99 2.117 . S
C74 O96 1.234 . S
C74 O97 1.283 . S
C75 O87 1.281 . S
C75 O88 1.236 . S
C76 O98 1.240 . S
C76 O99 1.264 . S
O77 Mn72 2.095 . S
O77 C86 1.250 . S
O78 Mn73 2.121 . S
O78 C86 1.258 . S
C79 N80 1.326 . S
C79 C83 1.460 . S
C79 H85 0.929 . S
N80 Mn73 2.257 . S
N80 C79 1.326 . S
N80 C84 1.362 . S
C81 C82 1.258 . S
C81 C84 1.431 . S
C81 C101 1.449 . S
C82 C81 1.258 . S
C82 C83 1.477 . S
C82 H102 0.931 . S
C83 C79 1.460 . S
C83 C82 1.477 . S
C83 H103 0.930 . S
C84 N80 1.362 . S
C84 C81 1.431 . S
C84 C94 1.476 . S
H85 C79 0.929 . S
C86 O77 1.250 . S
C86 O78 1.258 . S
O87 Mn72 2.162 . S
O87 C75 1.281 . S
O88 Mn72 2.297 . S
O88 C75 1.236 . S
N89 Mn73 2.282 . S
N89 C90 1.328 . S
N89 C94 1.318 . S
C90 N89 1.328 . S
C90 C91 1.457 . S
C90 H95 0.929 . S
C91 C90 1.457 . S
C91 C92 1.291 . S
C91 H104 0.931 . S
C92 C91 1.291 . S
C92 C93 1.373 . S
C92 H105 0.929 . S
C93 C92 1.373 . S
C93 C94 1.396 . S
C93 C100 1.403 . S
C94 C84 1.476 . S
C94 N89 1.318 . S
C94 C93 1.396 . S
H95 C90 0.929 . S
O96 Mn72 2.385 . S
O96 C74 1.234 . S
O97 Mn72 2.209 . S
O97 Mn73 2.215 . S
O97 C74 1.283 . S
O98 Mn72 2.094 . S
O98 C76 1.240 . S
O99 Mn73 2.117 . S
O99 C76 1.264 . S
C100 C93 1.403 . S
C100 C101 1.399 . S
C100 H106 0.929 . S
C101 C81 1.449 . S
C101 C100 1.399 . S
C101 H107 0.930 . S
H102 C82 0.931 . S
H103 C83 0.930 . S
H104 C91 0.931 . S
H105 C92 0.929 . S
H106 C100 0.929 . S
H107 C101 0.930 . S
Mn108 O113 2.095 . S
Mn108 O123 2.162 . S
Mn108 O124 2.297 . S
Mn108 O132 2.385 . S
Mn108 O133 2.209 . S
Mn108 O134 2.094 . S
Mn109 O114 2.121 . S
Mn109 N116 2.257 . S
Mn109 N125 2.282 . S
Mn109 O133 2.215 . S
Mn109 O135 2.117 . S
C110 O132 1.234 . S
C110 O133 1.283 . S
C111 O123 1.281 . S
C111 O124 1.236 . S
C112 O134 1.240 . S
C112 O135 1.264 . S
O113 Mn108 2.095 . S
O113 C122 1.250 . S
O114 Mn109 2.121 . S
O114 C122 1.258 . S
C115 N116 1.326 . S
C115 C119 1.460 . S
C115 H121 0.929 . S
N116 Mn109 2.257 . S
N116 C115 1.326 . S
N116 C120 1.362 . S
C117 C118 1.258 . S
C117 C120 1.431 . S
C117 C137 1.449 . S
C118 C117 1.258 . S
C118 C119 1.477 . S
C118 H138 0.931 . S
C119 C115 1.460 . S
C119 C118 1.477 . S
C119 H139 0.930 . S
C120 N116 1.362 . S
C120 C117 1.431 . S
C120 C130 1.476 . S
H121 C115 0.929 . S
C122 O113 1.250 . S
C122 O114 1.258 . S
O123 Mn108 2.162 . S
O123 C111 1.281 . S
O124 Mn108 2.297 . S
O124 C111 1.236 . S
N125 Mn109 2.282 . S
N125 C126 1.328 . S
N125 C130 1.318 . S
C126 N125 1.328 . S
C126 C127 1.457 . S
C126 H131 0.929 . S
C127 C126 1.457 . S
C127 C128 1.291 . S
C127 H140 0.931 . S
C128 C127 1.291 . S
C128 C129 1.373 . S
C128 H141 0.929 . S
C129 C128 1.373 . S
C129 C130 1.396 . S
C129 C136 1.403 . S
C130 C120 1.476 . S
C130 N125 1.318 . S
C130 C129 1.396 . S
H131 C126 0.929 . S
O132 Mn108 2.385 . S
O132 C110 1.234 . S
O133 Mn108 2.209 . S
O133 Mn109 2.215 . S
O133 C110 1.283 . S
O134 Mn108 2.094 . S
O134 C112 1.240 . S
O135 Mn109 2.117 . S
O135 C112 1.264 . S
C136 C129 1.403 . S
C136 C137 1.399 . S
C136 H142 0.929 . S
C137 C117 1.449 . S
C137 C136 1.399 . S
C137 H143 0.930 . S
H138 C118 0.931 . S
H139 C119 0.930 . S
H140 C127 0.931 . S
H141 C128 0.929 . S
H142 C136 0.929 . S
H143 C137 0.930 . S
Mn144 O149 2.095 . S
Mn144 O159 2.162 . S
Mn144 O160 2.297 . S
Mn144 O168 2.385 . S
Mn144 O169 2.209 . S
Mn144 O170 2.094 . S
Mn145 O150 2.121 . S
Mn145 N152 2.257 . S
Mn145 N161 2.282 . S
Mn145 O169 2.215 . S
Mn145 O171 2.117 . S
C146 O168 1.234 . S
C146 O169 1.283 . S
C147 O159 1.281 . S
C147 O160 1.236 . S
C148 O170 1.240 . S
C148 O171 1.264 . S
O149 Mn144 2.095 . S
O149 C158 1.250 . S
O150 Mn145 2.121 . S
O150 C158 1.258 . S
C151 N152 1.326 . S
C151 C155 1.460 . S
C151 H157 0.929 . S
N152 Mn145 2.257 . S
N152 C151 1.326 . S
N152 C156 1.362 . S
C153 C154 1.258 . S
C153 C156 1.431 . S
C153 C173 1.449 . S
C154 C153 1.258 . S
C154 C155 1.477 . S
C154 H174 0.931 . S
C155 C151 1.460 . S
C155 C154 1.477 . S
C155 H175 0.930 . S
C156 N152 1.362 . S
C156 C153 1.431 . S
C156 C166 1.476 . S
H157 C151 0.929 . S
C158 O149 1.250 . S
C158 O150 1.258 . S
O159 Mn144 2.162 . S
O159 C147 1.281 . S
O160 Mn144 2.297 . S
O160 C147 1.236 . S
N161 Mn145 2.282 . S
N161 C162 1.328 . S
N161 C166 1.318 . S
C162 N161 1.328 . S
C162 C163 1.457 . S
C162 H167 0.929 . S
C163 C162 1.457 . S
C163 C164 1.291 . S
C163 H176 0.922 1_556 S
C164 C163 1.291 . S
C164 C165 1.373 . S
C164 H177 0.929 . S
C165 C164 1.373 . S
C165 C166 1.396 . S
C165 C172 1.403 . S
C166 C156 1.476 . S
C166 N161 1.318 . S
C166 C165 1.396 . S
H167 C162 0.929 . S
O168 Mn144 2.385 . S
O168 C146 1.234 . S
O169 Mn144 2.209 . S
O169 Mn145 2.215 . S
O169 C146 1.283 . S
O170 Mn144 2.094 . S
O170 C148 1.240 . S
O171 Mn145 2.117 . S
O171 C148 1.264 . S
C172 C165 1.403 . S
C172 C173 1.399 . S
C172 H178 0.929 . S
C173 C153 1.449 . S
C173 C172 1.399 . S
C173 H179 0.930 . S
H174 C154 0.931 . S
H175 C155 0.930 . S
H176 C163 0.922 1_554 S
H177 C164 0.929 . S
H178 C172 0.929 . S
H179 C173 0.930 . S
Mn180 O185 2.095 . S
Mn180 O195 2.162 . S
Mn180 O196 2.297 . S
Mn180 O204 2.385 . S
Mn180 O205 2.209 . S
Mn180 O206 2.094 . S
Mn181 O186 2.121 . S
Mn181 N188 2.257 . S
Mn181 N197 2.282 . S
Mn181 O205 2.215 . S
Mn181 O207 2.117 . S
C182 O204 1.234 . S
C182 O205 1.283 . S
C183 O195 1.281 . S
C183 O196 1.236 . S
C184 O206 1.240 . S
C184 O207 1.264 . S
O185 Mn180 2.095 . S
O185 C194 1.250 . S
O186 Mn181 2.121 . S
O186 C194 1.258 . S
C187 N188 1.326 . S
C187 C191 1.460 . S
C187 H193 0.929 . S
N188 Mn181 2.257 . S
N188 C187 1.326 . S
N188 C192 1.362 . S
C189 C190 1.258 . S
C189 C192 1.431 . S
C189 C209 1.449 . S
C190 C189 1.258 . S
C190 C191 1.477 . S
C190 H210 0.931 . S
C191 C187 1.460 . S
C191 C190 1.477 . S
C191 H211 0.930 . S
C192 N188 1.362 . S
C192 C189 1.431 . S
C192 C202 1.476 . S
H193 C187 0.929 . S
C194 O185 1.250 . S
C194 O186 1.258 . S
O195 Mn180 2.162 . S
O195 C183 1.281 . S
O196 Mn180 2.297 . S
O196 C183 1.236 . S
N197 Mn181 2.282 . S
N197 C198 1.328 . S
N197 C202 1.318 . S
C198 N197 1.328 . S
C198 C199 1.457 . S
C198 H203 0.929 . S
C199 C198 1.457 . S
C199 C200 1.291 . S
C199 H212 0.922 1_556 S
C200 C199 1.291 . S
C200 C201 1.373 . S
C200 H213 0.929 . S
C201 C200 1.373 . S
C201 C202 1.396 . S
C201 C208 1.403 . S
C202 C192 1.476 . S
C202 N197 1.318 . S
C202 C201 1.396 . S
H203 C198 0.929 . S
O204 Mn180 2.385 . S
O204 C182 1.234 . S
O205 Mn180 2.209 . S
O205 Mn181 2.215 . S
O205 C182 1.283 . S
O206 Mn180 2.094 . S
O206 C184 1.240 . S
O207 Mn181 2.117 . S
O207 C184 1.264 . S
C208 C201 1.403 . S
C208 C209 1.399 . S
C208 H214 0.929 . S
C209 C189 1.449 . S
C209 C208 1.399 . S
C209 H215 0.930 . S
H210 C190 0.931 . S
H211 C191 0.930 . S
H212 C199 0.922 1_554 S
H213 C200 0.929 . S
H214 C208 0.929 . S
H215 C209 0.930 . S
Mn216 O221 2.095 . S
Mn216 O231 2.162 . S
Mn216 O232 2.297 . S
Mn216 O240 2.385 . S
Mn216 O241 2.209 . S
Mn216 O242 2.094 . S
Mn217 O222 2.121 . S
Mn217 N224 2.257 . S
Mn217 N233 2.282 . S
Mn217 O241 2.215 . S
Mn217 O243 2.117 . S
C218 O240 1.234 . S
C218 O241 1.283 . S
C219 O231 1.281 . S
C219 O232 1.236 . S
C220 O242 1.240 . S
C220 O243 1.264 . S
O221 Mn216 2.095 . S
O221 C230 1.250 . S
O222 Mn217 2.121 . S
O222 C230 1.258 . S
C223 N224 1.326 . S
C223 C227 1.460 . S
C223 H229 0.929 . S
N224 Mn217 2.257 . S
N224 C223 1.326 . S
N224 C228 1.362 . S
C225 C226 1.258 . S
C225 C228 1.431 . S
C225 C245 1.449 . S
C226 C225 1.258 . S
C226 C227 1.477 . S
C226 H246 0.931 . S
C227 C223 1.460 . S
C227 C226 1.477 . S
C227 H247 0.930 . S
C228 N224 1.362 . S
C228 C225 1.431 . S
C228 C238 1.476 . S
H229 C223 0.929 . S
C230 O221 1.250 . S
C230 O222 1.258 . S
O231 Mn216 2.162 . S
O231 C219 1.281 . S
O232 Mn216 2.297 . S
O232 C219 1.236 . S
N233 Mn217 2.282 . S
N233 C234 1.328 . S
N233 C238 1.318 . S
C234 N233 1.328 . S
C234 C235 1.457 . S
C234 H239 0.929 . S
C235 C234 1.457 . S
C235 C236 1.291 . S
C235 H248 0.931 . S
C236 C235 1.291 . S
C236 C237 1.373 . S
C236 H249 0.929 . S
C237 C236 1.373 . S
C237 C238 1.396 . S
C237 C244 1.403 . S
C238 C228 1.476 . S
C238 N233 1.318 . S
C238 C237 1.396 . S
H239 C234 0.929 . S
O240 Mn216 2.385 . S
O240 C218 1.234 . S
O241 Mn216 2.209 . S
O241 Mn217 2.215 . S
O241 C218 1.283 . S
O242 Mn216 2.094 . S
O242 C220 1.240 . S
O243 Mn217 2.117 . S
O243 C220 1.264 . S
C244 C237 1.403 . S
C244 C245 1.399 . S
C244 H250 0.929 . S
C245 C225 1.449 . S
C245 C244 1.399 . S
C245 H251 0.930 . S
H246 C226 0.931 . S
H247 C227 0.930 . S
H248 C235 0.931 . S
H249 C236 0.929 . S
H250 C244 0.929 . S
H251 C245 0.930 . S
Mn252 O257 2.095 . S
Mn252 O267 2.162 . S
Mn252 O268 2.297 . S
Mn252 O276 2.385 . S
Mn252 O277 2.209 . S
Mn252 O278 2.094 . S
Mn253 O258 2.121 . S
Mn253 N260 2.257 . S
Mn253 N269 2.282 . S
Mn253 O277 2.215 . S
Mn253 O279 2.117 . S
C254 O276 1.234 . S
C254 O277 1.283 . S
C255 O267 1.281 . S
C255 O268 1.236 . S
C256 O278 1.240 . S
C256 O279 1.264 . S
O257 Mn252 2.095 . S
O257 C266 1.250 . S
O258 Mn253 2.121 . S
O258 C266 1.258 . S
C259 N260 1.326 . S
C259 C263 1.460 . S
C259 H265 0.929 . S
N260 Mn253 2.257 . S
N260 C259 1.326 . S
N260 C264 1.362 . S
C261 C262 1.258 . S
C261 C264 1.431 . S
C261 C281 1.449 . S
C262 C261 1.258 . S
C262 C263 1.477 . S
C262 H282 0.931 . S
C263 C259 1.460 . S
C263 C262 1.477 . S
C263 H283 0.930 . S
C264 N260 1.362 . S
C264 C261 1.431 . S
C264 C274 1.476 . S
H265 C259 0.929 . S
C266 O257 1.250 . S
C266 O258 1.258 . S
O267 Mn252 2.162 . S
O267 C255 1.281 . S
O268 Mn252 2.297 . S
O268 C255 1.236 . S
N269 Mn253 2.282 . S
N269 C270 1.328 . S
N269 C274 1.318 . S
C270 N269 1.328 . S
C270 C271 1.457 . S
C270 H275 0.929 . S
C271 C270 1.457 . S
C271 C272 1.291 . S
C271 H284 0.931 . S
C272 C271 1.291 . S
C272 C273 1.373 . S
C272 H285 0.929 . S
C273 C272 1.373 . S
C273 C274 1.396 . S
C273 C280 1.403 . S
C274 C264 1.476 . S
C274 N269 1.318 . S
C274 C273 1.396 . S
H275 C270 0.929 . S
O276 Mn252 2.385 . S
O276 C254 1.234 . S
O277 Mn252 2.209 . S
O277 Mn253 2.215 . S
O277 C254 1.283 . S
O278 Mn252 2.094 . S
O278 C256 1.240 . S
O279 Mn253 2.117 . S
O279 C256 1.264 . S
C280 C273 1.403 . S
C280 C281 1.399 . S
C280 H286 0.929 . S
C281 C261 1.449 . S
C281 C280 1.399 . S
C281 H287 0.930 . S
H282 C262 0.931 . S
H283 C263 0.930 . S
H284 C271 0.931 . S
H285 C272 0.929 . S
H286 C280 0.929 . S
H287 C281 0.930 . S
C288 C289 1.349 . S
C288 C290 1.327 . S
C288 H313 0.950 . S
C289 C288 1.349 . S
C289 C305 1.349 . S
C290 C288 1.327 . S
C290 C309 1.429 . S
C290 H314 0.950 . S
C291 C308 1.574 1_545 S
C291 C310 1.368 . S
C291 H315 0.949 1_554 S
H292 C296 0.949 . S
C293 C294 1.349 . S
C293 C295 1.327 . S
C293 H316 0.950 1_554 S
C294 C293 1.349 . S
C294 C306 1.349 . S
C295 C293 1.327 . S
C295 C311 1.429 . S
C295 H317 0.950 1_554 S
C296 H292 0.949 . S
C296 C304 1.574 1_565 S
C296 C312 1.368 . S
H297 C305 0.950 1_556 S
H298 C303 0.950 1_556 S
H299 C304 0.949 . S
H300 C306 0.950 . S
H301 C307 0.950 . S
H302 C308 0.949 1_556 S
C303 H298 0.950 1_554 S
C303 C305 1.327 . S
C303 C309 1.429 . S
C304 C296 1.574 1_545 S
C304 H299 0.949 . S
C304 C310 1.368 . S
C305 C289 1.349 . S
C305 H297 0.950 1_554 S
C305 C303 1.327 . S
C306 C294 1.349 . S
C306 H300 0.950 . S
C306 C307 1.327 . S
C307 H301 0.950 . S
C307 C306 1.327 . S
C307 C311 1.429 . S
C308 C291 1.574 1_565 S
C308 H302 0.949 1_554 S
C308 C312 1.368 . S
C309 C290 1.429 . S
C309 C303 1.429 . S
C309 C310 1.523 . S
C310 C291 1.368 . S
C310 C304 1.368 . S
C310 C309 1.523 . S
C311 C295 1.429 . S
C311 C307 1.429 . S
C311 C312 1.523 . S
C312 C296 1.368 . S
C312 C308 1.368 . S
C312 C311 1.523 . S
H313 C288 0.950 . S
H314 C290 0.950 . S
H315 C291 0.949 1_556 S
H316 C293 0.950 1_556 S
H317 C295 0.950 1_556 S
C318 C319 1.349 . S
C318 C320 1.327 . S
C318 H343 0.950 . S
C319 C318 1.349 . S
C319 C335 1.349 . S
C320 C318 1.327 . S
C320 C339 1.429 . S
C320 H344 0.950 . S
C321 C338 1.574 . S
C321 C340 1.368 . S
C321 H345 0.949 . S
H322 C326 0.949 . S
C323 C324 1.349 . S
C323 C325 1.327 . S
C323 H346 0.950 . S
C324 C323 1.349 . S
C324 C336 1.349 . S
C325 C323 1.327 . S
C325 C341 1.429 . S
C325 H347 0.950 . S
C326 H322 0.949 . S
C326 C334 1.574 . S
C326 C342 1.368 . S
H327 C335 0.950 . S
H328 C333 0.950 . S
H329 C334 0.949 . S
H330 C336 0.950 . S
H331 C337 0.950 . S
H332 C338 0.949 . S
C333 H328 0.950 . S
C333 C335 1.327 . S
C333 C339 1.429 . S
C334 C326 1.574 . S
C334 H329 0.949 . S
C334 C340 1.368 . S
C335 C319 1.349 . S
C335 H327 0.950 . S
C335 C333 1.327 . S
C336 C324 1.349 . S
C336 H330 0.950 . S
C336 C337 1.327 . S
C337 H331 0.950 . S
C337 C336 1.327 . S
C337 C341 1.429 . S
C338 C321 1.574 . S
C338 H332 0.949 . S
C338 C342 1.368 . S
C339 C320 1.429 . S
C339 C333 1.429 . S
C339 C340 1.523 . S
C340 C321 1.368 . S
C340 C334 1.368 . S
C340 C339 1.523 . S
C341 C325 1.429 . S
C341 C337 1.429 . S
C341 C342 1.523 . S
C342 C326 1.368 . S
C342 C338 1.368 . S
C342 C341 1.523 . S
H343 C318 0.950 . S
H344 C320 0.950 . S
H345 C321 0.949 . S
H346 C323 0.950 . S
H347 C325 0.950 . S
C348 C349 1.349 . S
C348 C350 1.327 . S
C348 H373 0.950 . S
C349 C348 1.349 . S
C349 C365 1.349 . S
C350 C348 1.327 . S
C350 C369 1.429 . S
C350 H374 0.950 . S
C351 C368 1.574 1_565 S
C351 C370 1.368 . S
C351 H375 0.949 1_556 S
H352 C356 0.949 . S
C353 C354 1.349 . S
C353 C355 1.327 . S
C353 H376 0.950 1_556 S
C354 C353 1.349 . S
C354 C366 1.349 . S
C355 C353 1.327 . S
C355 C371 1.429 . S
C355 H377 0.950 1_556 S
C356 H352 0.949 . S
C356 C364 1.574 1_545 S
C356 C372 1.368 . S
H357 C365 0.950 1_554 S
H358 C363 0.950 1_554 S
H359 C364 0.949 . S
H360 C366 0.950 . S
H361 C367 0.950 . S
H362 C368 0.949 1_554 S
C363 H358 0.950 1_556 S
C363 C365 1.327 . S
C363 C369 1.429 . S
C364 C356 1.574 1_565 S
C364 H359 0.949 . S
C364 C370 1.368 . S
C365 C349 1.349 . S
C365 H357 0.950 1_556 S
C365 C363 1.327 . S
C366 C354 1.349 . S
C366 H360 0.950 . S
C366 C367 1.327 . S
C367 H361 0.950 . S
C367 C366 1.327 . S
C367 C371 1.429 . S
C368 C351 1.574 1_545 S
C368 H362 0.949 1_556 S
C368 C372 1.368 . S
C369 C350 1.429 . S
C369 C363 1.429 . S
C369 C370 1.523 . S
C370 C351 1.368 . S
C370 C364 1.368 . S
C370 C369 1.523 . S
C371 C355 1.429 . S
C371 C367 1.429 . S
C371 C372 1.523 . S
C372 C356 1.368 . S
C372 C368 1.368 . S
C372 C371 1.523 . S
H373 C348 0.950 . S
H374 C350 0.950 . S
H375 C351 0.949 1_554 S
H376 C353 0.950 1_554 S
H377 C355 0.950 1_554 S
C378 C379 1.349 . S
C378 C380 1.327 . S
C378 H403 0.950 . S
C379 C378 1.349 . S
C379 C395 1.349 . S
C380 C378 1.327 . S
C380 C399 1.429 . S
C380 H404 0.950 . S
C381 C398 1.574 . S
C381 C400 1.368 . S
C381 H405 0.949 . S
H382 C386 0.949 . S
C383 C384 1.349 . S
C383 C385 1.327 . S
C383 H406 0.950 . S
C384 C383 1.349 . S
C384 C396 1.349 . S
C385 C383 1.327 . S
C385 C401 1.429 . S
C385 H407 0.950 . S
C386 H382 0.949 . S
C386 C394 1.574 . S
C386 C402 1.368 . S
H387 C395 0.950 . S
H388 C393 0.950 . S
H389 C394 0.949 . S
H390 C396 0.950 . S
H391 C397 0.950 . S
H392 C398 0.949 . S
C393 H388 0.950 . S
C393 C395 1.327 . S
C393 C399 1.429 . S
C394 C386 1.574 . S
C394 H389 0.949 . S
C394 C400 1.368 . S
C395 C379 1.349 . S
C395 H387 0.950 . S
C395 C393 1.327 . S
C396 C384 1.349 . S
C396 H390 0.950 . S
C396 C397 1.327 . S
C397 H391 0.950 . S
C397 C396 1.327 . S
C397 C401 1.429 . S
C398 C381 1.574 . S
C398 H392 0.949 . S
C398 C402 1.368 . S
C399 C380 1.429 . S
C399 C393 1.429 . S
C399 C400 1.523 . S
C400 C381 1.368 . S
C400 C394 1.368 . S
C400 C399 1.523 . S
C401 C385 1.429 . S
C401 C397 1.429 . S
C401 C402 1.523 . S
C402 C386 1.368 . S
C402 C398 1.368 . S
C402 C401 1.523 . S
H403 C378 0.950 . S
H404 C380 0.950 . S
H405 C381 0.949 . S
H406 C383 0.950 . S
H407 C385 0.950 . S
C408 C409 1.349 . S
C408 C410 1.327 . S
C408 H433 0.950 . S
C409 C408 1.349 . S
C409 C425 1.349 . S
C410 C408 1.327 . S
C410 C429 1.429 . S
C410 H434 0.950 . S
C411 C428 1.574 . S
C411 C430 1.368 . S
C411 H435 0.949 . S
H412 C416 0.949 . S
C413 C414 1.349 . S
C413 C415 1.327 . S
C413 H436 0.950 . S
C414 C413 1.349 . S
C414 C426 1.349 . S
C415 C413 1.327 . S
C415 C431 1.429 . S
C415 H437 0.950 . S
C416 H412 0.949 . S
C416 C424 1.574 . S
C416 C432 1.368 . S
H417 C425 0.950 . S
H418 C423 0.950 . S
H419 C424 0.949 . S
H420 C426 0.950 . S
H421 C427 0.950 . S
H422 C428 0.949 . S
C423 H418 0.950 . S
C423 C425 1.327 . S
C423 C429 1.429 . S
C424 C416 1.574 . S
C424 H419 0.949 . S
C424 C430 1.368 . S
C425 C409 1.349 . S
C425 H417 0.950 . S
C425 C423 1.327 . S
C426 C414 1.349 . S
C426 H420 0.950 . S
C426 C427 1.327 . S
C427 H421 0.950 . S
C427 C426 1.327 . S
C427 C431 1.429 . S
C428 C411 1.574 . S
C428 H422 0.949 . S
C428 C432 1.368 . S
C429 C410 1.429 . S
C429 C423 1.429 . S
C429 C430 1.523 . S
C430 C411 1.368 . S
C430 C424 1.368 . S
C430 C429 1.523 . S
C431 C415 1.429 . S
C431 C427 1.429 . S
C431 C432 1.523 . S
C432 C416 1.368 . S
C432 C428 1.368 . S
C432 C431 1.523 . S
H433 C408 0.950 . S
H434 C410 0.950 . S
H435 C411 0.949 . S
H436 C413 0.950 . S
H437 C415 0.950 . S
C438 C439 1.349 . S
C438 C440 1.327 . S
C438 H463 0.950 . S
C439 C438 1.349 . S
C439 C455 1.349 . S
C440 C438 1.327 . S
C440 C459 1.429 . S
C440 H464 0.950 . S
C441 C458 1.574 . S
C441 C460 1.368 . S
C441 H465 0.949 . S
H442 C446 0.949 . S
C443 C444 1.349 . S
C443 C445 1.327 . S
C443 H466 0.950 . S
C444 C443 1.349 . S
C444 C456 1.349 . S
C445 C443 1.327 . S
C445 C461 1.429 . S
C445 H467 0.950 . S
C446 H442 0.949 . S
C446 C454 1.574 . S
C446 C462 1.368 . S
H447 C455 0.950 . S
H448 C453 0.950 . S
H449 C454 0.949 . S
H450 C456 0.950 . S
H451 C457 0.950 . S
H452 C458 0.949 . S
C453 H448 0.950 . S
C453 C455 1.327 . S
C453 C459 1.429 . S
C454 C446 1.574 . S
C454 H449 0.949 . S
C454 C460 1.368 . S
C455 C439 1.349 . S
C455 H447 0.950 . S
C455 C453 1.327 . S
C456 C444 1.349 . S
C456 H450 0.950 . S
C456 C457 1.327 . S
C457 H451 0.950 . S
C457 C456 1.327 . S
C457 C461 1.429 . S
C458 C441 1.574 . S
C458 H452 0.949 . S
C458 C462 1.368 . S
C459 C440 1.429 . S
C459 C453 1.429 . S
C459 C460 1.523 . S
C460 C441 1.368 . S
C460 C454 1.368 . S
C460 C459 1.523 . S
C461 C445 1.429 . S
C461 C457 1.429 . S
C461 C462 1.523 . S
C462 C446 1.368 . S
C462 C458 1.368 . S
C462 C461 1.523 . S
H463 C438 0.950 . S
H464 C440 0.950 . S
H465 C441 0.949 . S
H466 C443 0.950 . S
H467 C445 0.950 . S
C468 C469 1.349 . S
C468 C470 1.327 . S
C468 H493 0.950 . S
C469 C468 1.349 . S
C469 C485 1.349 . S
C470 C468 1.327 . S
C470 C489 1.429 . S
C470 H494 0.950 . S
C471 C488 1.574 . S
C471 C490 1.368 . S
C471 H495 0.949 . S
H472 C476 0.949 . S
C473 C474 1.349 . S
C473 C475 1.327 . S
C473 H496 0.950 . S
C474 C473 1.349 . S
C474 C486 1.349 . S
C475 C473 1.327 . S
C475 C491 1.429 . S
C475 H497 0.950 . S
C476 H472 0.949 . S
C476 C484 1.574 . S
C476 C492 1.368 . S
H477 C485 0.950 . S
H478 C483 0.950 . S
H479 C484 0.949 . S
H480 C486 0.950 . S
H481 C487 0.950 . S
H482 C488 0.949 . S
C483 H478 0.950 . S
C483 C485 1.327 . S
C483 C489 1.429 . S
C484 C476 1.574 . S
C484 H479 0.949 . S
C484 C490 1.368 . S
C485 C469 1.349 . S
C485 H477 0.950 . S
C485 C483 1.327 . S
C486 C474 1.349 . S
C486 H480 0.950 . S
C486 C487 1.327 . S
C487 H481 0.950 . S
C487 C486 1.327 . S
C487 C491 1.429 . S
C488 C471 1.574 . S
C488 H482 0.949 . S
C488 C492 1.368 . S
C489 C470 1.429 . S
C489 C483 1.429 . S
C489 C490 1.523 . S
C490 C471 1.368 . S
C490 C484 1.368 . S
C490 C489 1.523 . S
C491 C475 1.429 . S
C491 C487 1.429 . S
C491 C492 1.523 . S
C492 C476 1.368 . S
C492 C488 1.368 . S
C492 C491 1.523 . S
H493 C468 0.950 . S
H494 C470 0.950 . S
H495 C471 0.949 . S
H496 C473 0.950 . S
H497 C475 0.950 . S
C498 C499 1.349 . S
C498 C500 1.327 . S
C498 H523 0.950 . S
C499 C498 1.349 . S
C499 C515 1.349 . S
C500 C498 1.327 . S
C500 C519 1.429 . S
C500 H524 0.950 . S
C501 C518 1.574 . S
C501 C520 1.368 . S
C501 H525 0.949 . S
H502 C506 0.949 . S
C503 C504 1.349 . S
C503 C505 1.327 . S
C503 H526 0.950 . S
C504 C503 1.349 . S
C504 C516 1.349 . S
C505 C503 1.327 . S
C505 C521 1.429 . S
C505 H527 0.950 . S
C506 H502 0.949 . S
C506 C514 1.574 . S
C506 C522 1.368 . S
H507 C515 0.950 . S
H508 C513 0.950 . S
H509 C514 0.949 . S
H510 C516 0.950 . S
H511 C517 0.950 . S
H512 C518 0.949 . S
C513 H508 0.950 . S
C513 C515 1.327 . S
C513 C519 1.429 . S
C514 C506 1.574 . S
C514 H509 0.949 . S
C514 C520 1.368 . S
C515 C499 1.349 . S
C515 H507 0.950 . S
C515 C513 1.327 . S
C516 C504 1.349 . S
C516 H510 0.950 . S
C516 C517 1.327 . S
C517 H511 0.950 . S
C517 C516 1.327 . S
C517 C521 1.429 . S
C518 C501 1.574 . S
C518 H512 0.949 . S
C518 C522 1.368 . S
C519 C500 1.429 . S
C519 C513 1.429 . S
C519 C520 1.523 . S
C520 C501 1.368 . S
C520 C514 1.368 . S
C520 C519 1.523 . S
C521 C505 1.429 . S
C521 C517 1.429 . S
C521 C522 1.523 . S
C522 C506 1.368 . S
C522 C518 1.368 . S
C522 C521 1.523 . S
H523 C498 0.950 . S
H524 C500 0.950 . S
H525 C501 0.949 . S
H526 C503 0.950 . S
H527 C505 0.950 . S
C528 C529 1.349 . S
C528 C530 1.327 . S
C528 H553 0.950 . S
C529 C528 1.349 . S
C529 C545 1.349 . S
C530 C528 1.327 . S
C530 C549 1.429 . S
C530 H554 0.950 . S
C531 C548 1.574 . S
C531 C550 1.368 . S
C531 H555 0.949 . S
H532 C536 0.949 . S
C533 C534 1.349 . S
C533 C535 1.327 . S
C533 H556 0.950 . S
C534 C533 1.349 . S
C534 C546 1.349 . S
C535 C533 1.327 . S
C535 C551 1.429 . S
C535 H557 0.950 . S
C536 H532 0.949 . S
C536 C544 1.574 . S
C536 C552 1.368 . S
H537 C545 0.950 . S
H538 C543 0.950 . S
H539 C544 0.949 . S
H540 C546 0.950 . S
H541 C547 0.950 . S
H542 C548 0.949 . S
C543 H538 0.950 . S
C543 C545 1.327 . S
C543 C549 1.429 . S
C544 C536 1.574 . S
C544 H539 0.949 . S
C544 C550 1.368 1_556 S
C545 C529 1.349 . S
C545 H537 0.950 . S
C545 C543 1.327 . S
C546 C534 1.349 . S
C546 H540 0.950 . S
C546 C547 1.327 . S
C547 H541 0.950 . S
C547 C546 1.327 . S
C547 C551 1.429 . S
C548 C531 1.574 . S
C548 H542 0.949 . S
C548 C552 1.368 1_554 S
C549 C530 1.429 . S
C549 C543 1.429 . S
C549 C550 1.523 . S
C550 C531 1.368 . S
C550 C544 1.368 1_554 S
C550 C549 1.523 . S
C551 C535 1.429 . S
C551 C547 1.429 . S
C551 C552 1.523 . S
C552 C536 1.368 . S
C552 C548 1.368 1_556 S
C552 C551 1.523 . S
H553 C528 0.950 . S
H554 C530 0.950 . S
H555 C531 0.949 . S
H556 C533 0.950 . S
H557 C535 0.950 . S
C558 C559 1.349 1_556 S
C558 C560 1.327 . S
C558 H583 0.950 . S
C559 C558 1.349 1_554 S
C559 C575 1.349 . S
C560 C558 1.327 . S
C560 C579 1.429 1_556 S
C560 H584 0.950 . S
C561 C578 1.574 . S
C561 C580 1.368 1_655 S
C561 H585 0.949 . S
H562 C566 0.949 . S
C563 C564 1.349 1_554 S
C563 C565 1.327 . S
C563 H586 0.950 . S
C564 C563 1.349 1_556 S
C564 C576 1.349 . S
C565 C563 1.327 . S
C565 C581 1.429 1_554 S
C565 H587 0.950 . S
C566 H562 0.949 . S
C566 C574 1.574 . S
C566 C582 1.368 1_455 S
H567 C575 0.950 . S
H568 C573 0.950 . S
H569 C574 0.949 . S
H570 C576 0.950 . S
H571 C577 0.950 . S
H572 C578 0.949 . S
C573 H568 0.950 . S
C573 C575 1.327 . S
C573 C579 1.429 . S
C574 C566 1.574 . S
C574 H569 0.949 . S
C574 C580 1.368 1_556 S
C575 C559 1.349 . S
C575 H567 0.950 . S
C575 C573 1.327 . S
C576 C564 1.349 . S
C576 H570 0.950 . S
C576 C577 1.327 . S
C577 H571 0.950 . S
C577 C576 1.327 . S
C577 C581 1.429 . S
C578 C561 1.574 . S
C578 H572 0.949 . S
C578 C582 1.368 1_554 S
C579 C560 1.429 1_554 S
C579 C573 1.429 . S
C579 C580 1.523 . S
C580 C561 1.368 1_455 S
C580 C574 1.368 1_554 S
C580 C579 1.523 . S
C581 C565 1.429 1_556 S
C581 C577 1.429 . S
C581 C582 1.523 . S
C582 C566 1.368 1_655 S
C582 C578 1.368 1_556 S
C582 C581 1.523 . S
H583 C558 0.950 . S
H584 C560 0.950 . S
H585 C561 0.949 . S
H586 C563 0.950 . S
H587 C565 0.950 . S
C588 C589 1.349 . S
C588 C590 1.327 . S
C588 H613 0.950 . S
C589 C588 1.349 . S
C589 C605 1.349 . S
C590 C588 1.327 . S
C590 C609 1.429 . S
C590 H614 0.950 . S
C591 C608 1.574 1_565 S
C591 C610 1.368 . S
C591 H615 0.949 . S
H592 C596 0.949 . S
C593 C594 1.349 . S
C593 C595 1.327 . S
C593 H616 0.950 . S
C594 C593 1.349 . S
C594 C606 1.349 . S
C595 C593 1.327 . S
C595 C611 1.429 . S
C595 H617 0.950 . S
C596 H592 0.949 . S
C596 C604 1.574 1_545 S
C596 C612 1.368 . S
H597 C605 0.950 . S
H598 C603 0.950 . S
H599 C604 0.949 . S
H600 C606 0.950 . S
H601 C607 0.950 . S
H602 C608 0.949 . S
C603 H598 0.950 . S
C603 C605 1.327 . S
C603 C609 1.429 . S
C604 C596 1.574 1_565 S
C604 H599 0.949 . S
C604 C610 1.368 . S
C605 C589 1.349 . S
C605 H597 0.950 . S
C605 C603 1.327 . S
C606 C594 1.349 . S
C606 H600 0.950 . S
C606 C607 1.327 . S
C607 H601 0.950 . S
C607 C606 1.327 . S
C607 C611 1.429 . S
C608 C591 1.574 1_545 S
C608 H602 0.949 . S
C608 C612 1.368 . S
C609 C590 1.429 . S
C609 C603 1.429 . S
C609 C610 1.523 . S
C610 C591 1.368 . S
C610 C604 1.368 . S
C610 C609 1.523 . S
C611 C595 1.429 . S
C611 C607 1.429 . S
C611 C612 1.523 . S
C612 C596 1.368 . S
C612 C608 1.368 . S
C612 C611 1.523 . S
H613 C588 0.950 . S
H614 C590 0.950 . S
H615 C591 0.949 . S
H616 C593 0.950 . S
H617 C595 0.950 . S
C618 C619 1.349 . S
C618 C620 1.327 . S
C618 H643 0.950 . S
C619 C618 1.349 . S
C619 C635 1.349 . S
C620 C618 1.327 . S
C620 C639 1.429 . S
C620 H644 0.950 . S
C621 C638 1.574 . S
C621 C640 1.368 1_455 S
C621 H645 0.949 1_455 S
H622 C626 0.949 1_455 S
C623 C624 1.349 . S
C623 C625 1.327 . S
C623 H646 0.950 . S
C624 C623 1.349 . S
C624 C636 1.349 . S
C625 C623 1.327 . S
C625 C641 1.429 . S
C625 H647 0.950 . S
C626 H622 0.949 1_655 S
C626 C634 1.574 . S
C626 C642 1.368 1_655 S
H627 C635 0.950 . S
H628 C633 0.950 . S
H629 C634 0.949 . S
H630 C636 0.950 . S
H631 C637 0.950 . S
H632 C638 0.949 . S
C633 H628 0.950 . S
C633 C635 1.327 . S
C633 C639 1.429 . S
C634 C626 1.574 . S
C634 H629 0.949 . S
C634 C640 1.368 1_565 S
C635 C619 1.349 . S
C635 H627 0.950 . S
C635 C633 1.327 . S
C636 C624 1.349 . S
C636 H630 0.950 . S
C636 C637 1.327 . S
C637 H631 0.950 . S
C637 C636 1.327 . S
C637 C641 1.429 . S
C638 C621 1.574 . S
C638 H632 0.949 . S
C638 C642 1.368 1_545 S
C639 C620 1.429 . S
C639 C633 1.429 . S
C639 C640 1.523 . S
C640 C621 1.368 1_655 S
C640 C634 1.368 1_545 S
C640 C639 1.523 . S
C641 C625 1.429 . S
C641 C637 1.429 . S
C641 C642 1.523 . S
C642 C626 1.368 1_455 S
C642 C638 1.368 1_565 S
C642 C641 1.523 . S
H643 C618 0.950 . S
H644 C620 0.950 . S
H645 C621 0.949 1_655 S
H646 C623 0.950 . S
H647 C625 0.950 . S
C648 C649 1.349 . S
C648 C650 1.327 . S
C648 H673 0.950 1_554 S
C649 C648 1.349 . S
C649 C665 1.349 . S
C650 C648 1.327 . S
C650 C669 1.429 . S
C650 H674 0.950 1_554 S
C651 C668 1.574 . S
C651 C670 1.368 . S
C651 H675 0.949 . S
H652 C656 0.949 1_556 S
C653 C654 1.349 . S
C653 C655 1.327 . S
C653 H676 0.950 . S
C654 C653 1.349 . S
C654 C666 1.349 . S
C655 C653 1.327 . S
C655 C671 1.429 . S
C655 H677 0.950 . S
C656 H652 0.949 1_554 S
C656 C664 1.574 . S
C656 C672 1.368 . S
H657 C665 0.950 . S
H658 C663 0.950 . S
H659 C664 0.949 1_556 S
H660 C666 0.950 1_556 S
H661 C667 0.950 1_556 S
H662 C668 0.949 . S
C663 H658 0.950 . S
C663 C665 1.327 . S
C663 C669 1.429 . S
C664 C656 1.574 . S
C664 H659 0.949 1_554 S
C664 C670 1.368 . S
C665 C649 1.349 . S
C665 H657 0.950 . S
C665 C663 1.327 . S
C666 C654 1.349 . S
C666 H660 0.950 1_554 S
C666 C667 1.327 . S
C667 H661 0.950 1_554 S
C667 C666 1.327 . S
C667 C671 1.429 . S
C668 C651 1.574 . S
C668 H662 0.949 . S
C668 C672 1.368 . S
C669 C650 1.429 . S
C669 C663 1.429 . S
C669 C670 1.523 . S
C670 C651 1.368 . S
C670 C664 1.368 . S
C670 C669 1.523 . S
C671 C655 1.429 . S
C671 C667 1.429 . S
C671 C672 1.523 . S
C672 C656 1.368 . S
C672 C668 1.368 . S
C672 C671 1.523 . S
H673 C648 0.950 1_556 S
H674 C650 0.950 1_556 S
H675 C651 0.949 . S
H676 C653 0.950 . S
H677 C655 0.950 . S
C678 C679 1.349 . S
C678 C680 1.327 . S
C678 H703 0.950 . S
C679 C678 1.349 . S
C679 C695 1.349 . S
C680 C678 1.327 . S
C680 C699 1.429 . S
C680 H704 0.950 . S
C681 C698 1.574 1_545 S
C681 C700 1.368 . S
C681 H705 0.949 . S
H682 C686 0.949 . S
C683 C684 1.349 . S
C683 C685 1.327 . S
C683 H706 0.950 . S
C684 C683 1.349 . S
C684 C696 1.349 . S
C685 C683 1.327 . S
C685 C701 1.429 . S
C685 H707 0.950 . S
C686 H682 0.949 . S
C686 C694 1.574 1_565 S
C686 C702 1.368 . S
H687 C695 0.950 . S
H688 C693 0.950 . S
H689 C694 0.949 . S
H690 C696 0.950 . S
H691 C697 0.950 . S
H692 C698 0.949 . S
C693 H688 0.950 . S
C693 C695 1.327 . S
C693 C699 1.429 . S
C694 C686 1.574 1_545 S
C694 H689 0.949 . S
C694 C700 1.368 . S
C695 C679 1.349 . S
C695 H687 0.950 . S
C695 C693 1.327 . S
C696 C684 1.349 . S
C696 H690 0.950 . S
C696 C697 1.327 . S
C697 H691 0.950 . S
C697 C696 1.327 . S
C697 C701 1.429 . S
C698 C681 1.574 1_565 S
C698 H692 0.949 . S
C698 C702 1.368 . S
C699 C680 1.429 . S
C699 C693 1.429 . S
C699 C700 1.523 . S
C700 C681 1.368 . S
C700 C694 1.368 . S
C700 C699 1.523 . S
C701 C685 1.429 . S
C701 C697 1.429 . S
C701 C702 1.523 . S
C702 C686 1.368 . S
C702 C698 1.368 . S
C702 C701 1.523 . S
H703 C678 0.950 . S
H704 C680 0.950 . S
H705 C681 0.949 . S
H706 C683 0.950 . S
H707 C685 0.950 . S
C708 C709 1.349 . S
C708 C710 1.327 . S
C708 H733 0.950 1_556 S
C709 C708 1.349 . S
C709 C725 1.349 . S
C710 C708 1.327 . S
C710 C729 1.429 . S
C710 H734 0.950 1_556 S
C711 C728 1.574 . S
C711 C730 1.368 . S
C711 H735 0.949 . S
H712 C716 0.949 1_554 S
C713 C714 1.349 . S
C713 C715 1.327 . S
C713 H736 0.950 . S
C714 C713 1.349 . S
C714 C726 1.349 . S
C715 C713 1.327 . S
C715 C731 1.429 . S
C715 H737 0.950 . S
C716 H712 0.949 1_556 S
C716 C724 1.574 . S
C716 C732 1.368 . S
H717 C725 0.950 . S
H718 C723 0.950 . S
H719 C724 0.949 1_554 S
H720 C726 0.950 1_554 S
H721 C727 0.950 1_554 S
H722 C728 0.949 . S
C723 H718 0.950 . S
C723 C725 1.327 . S
C723 C729 1.429 . S
C724 C716 1.574 . S
C724 H719 0.949 1_556 S
C724 C730 1.368 . S
C725 C709 1.349 . S
C725 H717 0.950 . S
C725 C723 1.327 . S
C726 C714 1.349 . S
C726 H720 0.950 1_556 S
C726 C727 1.327 . S
C727 H721 0.950 1_556 S
C727 C726 1.327 . S
C727 C731 1.429 . S
C728 C711 1.574 . S
C728 H722 0.949 . S
C728 C732 1.368 . S
C729 C710 1.429 . S
C729 C723 1.429 . S
C729 C730 1.523 . S
C730 C711 1.368 . S
C730 C724 1.368 . S
C730 C729 1.523 . S
C731 C715 1.429 . S
C731 C727 1.429 . S
C731 C732 1.523 . S
C732 C716 1.368 . S
C732 C728 1.368 . S
C732 C731 1.523 . S
H733 C708 0.950 1_554 S
H734 C710 0.950 1_554 S
H735 C711 0.949 . S
H736 C713 0.950 . S
H737 C715 0.950 . S
C738 C739 1.349 . S
C738 C740 1.327 . S
C738 H763 0.950 . S
C739 C738 1.349 . S
C739 C755 1.349 . S
C740 C738 1.327 . S
C740 C759 1.429 . S
C740 H764 0.950 . S
C741 C758 1.574 1_565 S
C741 C760 1.368 . S
C741 H765 0.949 . S
H742 C746 0.949 . S
C743 C744 1.349 . S
C743 C745 1.327 . S
C743 H766 0.950 . S
C744 C743 1.349 . S
C744 C756 1.349 . S
C745 C743 1.327 . S
C745 C761 1.429 . S
C745 H767 0.950 . S
C746 H742 0.949 . S
C746 C754 1.574 1_545 S
C746 C762 1.368 . S
H747 C755 0.950 . S
H748 C753 0.950 . S
H749 C754 0.949 . S
H750 C756 0.950 . S
H751 C757 0.950 . S
H752 C758 0.949 . S
C753 H748 0.950 . S
C753 C755 1.327 . S
C753 C759 1.429 . S
C754 C746 1.574 1_565 S
C754 H749 0.949 . S
C754 C760 1.368 . S
C755 C739 1.349 . S
C755 H747 0.950 . S
C755 C753 1.327 . S
C756 C744 1.349 . S
C756 H750 0.950 . S
C756 C757 1.327 . S
C757 H751 0.950 . S
C757 C756 1.327 . S
C757 C761 1.429 . S
C758 C741 1.574 1_545 S
C758 H752 0.949 . S
C758 C762 1.368 . S
C759 C740 1.429 . S
C759 C753 1.429 . S
C759 C760 1.523 . S
C760 C741 1.368 . S
C760 C754 1.368 . S
C760 C759 1.523 . S
C761 C745 1.429 . S
C761 C757 1.429 . S
C761 C762 1.523 . S
C762 C746 1.368 . S
C762 C758 1.368 . S
C762 C761 1.523 . S
H763 C738 0.950 . S
H764 C740 0.950 . S
H765 C741 0.949 . S
H766 C743 0.950 . S
H767 C745 0.950 . S
C289 C4 1.418 . S
C294 C40 1.418 . S
C319 C112 1.418 . S
C324 C76 1.418 . S
C349 C148 1.418 . S
C354 C184 1.418 . S
C379 C220 1.418 . S
C384 C256 1.418 . S
C409 C14 1.506 . S
C414 C86 1.506 . S
C439 C122 1.506 . S
C444 C50 1.506 . S
C469 C158 1.506 . S
C474 C230 1.506 . S
C499 C266 1.506 . S
C504 C194 1.506 . S
C529 C3 1.349 . S
C534 C147 1.349 . S
C559 C39 1.349 . S
C564 C183 1.349 . S
C589 C219 1.349 . S
C594 C75 1.349 . S
C619 C255 1.349 . S
C624 C111 1.349 . S
C649 C38 0.818 . S
C654 C2 0.818 . S
C679 C74 0.818 . S
C684 C110 0.818 . S
C709 C146 0.818 . S
C714 C182 0.818 . S
C739 C218 0.818 . S
C744 C254 0.818 . S
