# Generated by pormake.
# Topology ukf, (4)-cn, num edge types: 1
# Building blocks:
#     Node 0, Type 0, BuildingBlock: NAHDIM_clean_sbu_0, # of connection points: 4
#     Node 1, Type 0, BuildingBlock: NAHDIM_clean_sbu_0, # of connection points: 4
#     Node 2, Type 0, BuildingBlock: NAHDIM_clean_sbu_0, # of connection points: 4
#     Node 3, Type 0, BuildingBlock: NAHDIM_clean_sbu_0, # of connection points: 4
#     Node 4, Type 0, BuildingBlock: NAHDIM_clean_sbu_0, # of connection points: 4
#     Node 5, Type 0, BuildingBlock: NAHDIM_clean_sbu_0, # of connection points: 4
#     Node 6, Type 0, BuildingBlock: NAHDIM_clean_sbu_0, # of connection points: 4
#     Node 7, Type 0, BuildingBlock: NAHDIM_clean_sbu_0, # of connection points: 4
#     Node 8, Type 0, BuildingBlock: NAHDIM_clean_sbu_0, # of connection points: 4
#     Node 9, Type 0, BuildingBlock: NAHDIM_clean_sbu_0, # of connection points: 4
#     Node 10, Type 0, BuildingBlock: NAHDIM_clean_sbu_0, # of connection points: 4
#     Node 11, Type 0, BuildingBlock: NAHDIM_clean_sbu_0, # of connection points: 4
#     Edge 12, Type (0, 0), BuildingBlock: EZIPEK_clean_linker_0, # of connection points: 2
#     Edge 13, Type (0, 0), BuildingBlock: EZIPEK_clean_linker_0, # of connection points: 2
#     Edge 14, Type (0, 0), BuildingBlock: EZIPEK_clean_linker_0, # of connection points: 2
#     Edge 15, Type (0, 0), BuildingBlock: EZIPEK_clean_linker_0, # of connection points: 2
#     Edge 16, Type (0, 0), BuildingBlock: EZIPEK_clean_linker_0, # of connection points: 2
#     Edge 17, Type (0, 0), BuildingBlock: EZIPEK_clean_linker_0, # of connection points: 2
#     Edge 18, Type (0, 0), BuildingBlock: EZIPEK_clean_linker_0, # of connection points: 2
#     Edge 19, Type (0, 0), BuildingBlock: EZIPEK_clean_linker_0, # of connection points: 2
#     Edge 20, Type (0, 0), BuildingBlock: EZIPEK_clean_linker_0, # of connection points: 2
#     Edge 21, Type (0, 0), BuildingBlock: EZIPEK_clean_linker_0, # of connection points: 2
#     Edge 22, Type (0, 0), BuildingBlock: EZIPEK_clean_linker_0, # of connection points: 2
#     Edge 23, Type (0, 0), BuildingBlock: EZIPEK_clean_linker_0, # of connection points: 2
#     Edge 24, Type (0, 0), BuildingBlock: EZIPEK_clean_linker_0, # of connection points: 2
#     Edge 25, Type (0, 0), BuildingBlock: EZIPEK_clean_linker_0, # of connection points: 2
#     Edge 26, Type (0, 0), BuildingBlock: EZIPEK_clean_linker_0, # of connection points: 2
#     Edge 27, Type (0, 0), BuildingBlock: EZIPEK_clean_linker_0, # of connection points: 2
#     Edge 28, Type (0, 0), BuildingBlock: EZIPEK_clean_linker_0, # of connection points: 2
#     Edge 29, Type (0, 0), BuildingBlock: EZIPEK_clean_linker_0, # of connection points: 2
#     Edge 30, Type (0, 0), BuildingBlock: EZIPEK_clean_linker_0, # of connection points: 2
#     Edge 31, Type (0, 0), BuildingBlock: EZIPEK_clean_linker_0, # of connection points: 2
#     Edge 32, Type (0, 0), BuildingBlock: EZIPEK_clean_linker_0, # of connection points: 2
#     Edge 33, Type (0, 0), BuildingBlock: EZIPEK_clean_linker_0, # of connection points: 2
#     Edge 34, Type (0, 0), BuildingBlock: EZIPEK_clean_linker_0, # of connection points: 2
#     Edge 35, Type (0, 0), BuildingBlock: EZIPEK_clean_linker_0, # of connection points: 2
# Relax obj value: 0.168
# Max RMSD: 0.178
# Mean RMSD: 0.169
data_MOF--net-ukf--node1-NAHDIM_clean_sbu_0--edge1-EZIPEK_clean_linker_0
_symmetry_space_group_name_H-M    P1
_symmetry_Int_Tables_number       1
_symmetry_cell_setting            triclinic
loop_
_symmetry_equiv_pos_as_xyz
'x, y, z'
_cell_length_a     24.453117
_cell_length_b     24.01392
_cell_length_c     44.914704
_cell_angle_alpha  90.137025
_cell_angle_beta   89.836593
_cell_angle_gamma 120.27209
loop_
_atom_site_label
_atom_site_type_symbol
_atom_site_fract_x
_atom_site_fract_y
_atom_site_fract_z
_atom_type_partial_charge
C0 C 0.44561 0.36369 0.02217 0.0
O1 O 0.46668 0.34396 -1e-05 0.0
O2 O 0.46825 0.23103 0.02334 0.0
Zn3 Zn 0.39817 0.23452 0.04552 0.0
O4 O 0.39997 0.21754 0.08928 0.0
C5 C 0.30725 0.11033 0.02885 0.0
O6 O 0.35296 0.10221 0.03909 0.0
O7 O 0.4127 0.32461 0.04267 0.0
C8 C 0.42323 0.18569 0.10066 0.0
O9 O 0.44793 0.15974 0.08351 0.0
C10 C 0.52475 0.26 0.03297 0.0
O11 O 0.53798 0.29152 0.05831 0.0
O12 O 0.31413 0.16643 0.02891 0.0
C13 C 0.06178 0.41847 0.34649 0.0
O14 O 0.11085 0.44862 0.32872 0.0
O15 O 0.20968 0.44046 0.35394 0.0
Zn16 Zn 0.13269 0.36239 0.37038 0.0
O17 O 0.14218 0.35988 0.41476 0.0
C18 C 0.17837 0.286 0.3465 0.0
O19 O 0.23047 0.34076 0.35163 0.0
O20 O 0.05798 0.37505 0.364 0.0
C21 C 0.19061 0.36466 0.42757 0.0
O22 O 0.23839 0.37044 0.41175 0.0
C23 C 0.23744 0.49368 0.3679 0.0
O24 O 0.21686 0.49854 0.39426 0.0
O25 O 0.12513 0.28111 0.35219 0.0
C26 C 0.88242 0.19659 0.69304 0.0
O27 O 0.88746 0.24432 0.70946 0.0
O28 O 0.77697 0.16879 0.75227 0.0
Zn29 Zn 0.76005 0.15957 0.70787 0.0
O30 O 0.76753 0.23978 0.68849 0.0
C31 C 0.62822 0.08135 0.7165 0.0
O32 O 0.64365 0.12003 0.73954 0.0
O33 O 0.82799 0.14731 0.68915 0.0
C34 C 0.72673 0.25771 0.69017 0.0
O35 O 0.67613 0.22544 0.70678 0.0
C36 C 0.76985 0.2072 0.76913 0.0
O37 O 0.75332 0.24672 0.7576 0.0
O38 O 0.6718 0.08494 0.6997 0.0
C39 C 0.51974 0.63065 0.04026 0.0
O40 O 0.47279 0.64145 0.04468 0.0
O41 O 0.51986 0.77044 0.03038 0.0
Zn42 Zn 0.58872 0.76437 0.05221 0.0
O43 O 0.578 0.76673 0.097 0.0
C44 C 0.67732 0.89143 0.03424 0.0
O45 O 0.63043 0.89888 0.04329 0.0
O46 O 0.5766 0.67702 0.0421 0.0
C47 C 0.60228 0.8173 0.11302 0.0
O48 O 0.63912 0.87376 0.10084 0.0
C49 C 0.4912 0.79883 0.03973 0.0
O50 O 0.50564 0.82802 0.06567 0.0
O51 O 0.67312 0.83668 0.03681 0.0
C52 C 0.89089 0.51515 0.36501 0.0
O53 O 0.84034 0.47647 0.38056 0.0
O54 O 0.74894 0.51654 0.35085 0.0
Zn55 Zn 0.83065 0.58861 0.36818 0.0
O56 O 0.82916 0.59349 0.41309 0.0
C57 C 0.79848 0.6803 0.3516 0.0
O58 O 0.74507 0.63458 0.36287 0.0
O59 O 0.89964 0.56972 0.35681 0.0
C60 C 0.78206 0.58364 0.42901 0.0
O61 O 0.72794 0.56862 0.41642 0.0
C62 C 0.71041 0.46482 0.36431 0.0
O63 O 0.72006 0.4566 0.39227 0.0
O64 O 0.84652 0.67316 0.35112 0.0
C65 C 0.11795 0.80613 0.68773 0.0
O66 O 0.10766 0.76188 0.70765 0.0
O67 O 0.21796 0.82562 0.74729 0.0
Zn68 Zn 0.23453 0.82899 0.70334 0.0
O69 O 0.21654 0.74214 0.6883 0.0
C70 C 0.35771 0.94807 0.70627 0.0
O71 O 0.32832 0.97344 0.72032 0.0
O72 O 0.17466 0.84918 0.68192 0.0
C73 C 0.26117 0.73335 0.67965 0.0
O74 O 0.32022 0.78011 0.68189 0.0
C75 C 0.25291 0.81644 0.76506 0.0
O76 O 0.29718 0.80629 0.75433 0.0
O77 O 0.32658 0.89124 0.69609 0.0
C78 C 0.62528 0.53683 0.62164 0.0
O79 O 0.63259 0.49835 0.60337 0.0
O80 O 0.76096 0.52263 0.63578 0.0
Zn81 Zn 0.75706 0.59776 0.61766 0.0
O82 O 0.75774 0.59436 0.57263 0.0
C83 C 0.88225 0.68 0.63596 0.0
O84 O 0.88257 0.62667 0.63015 0.0
O85 O 0.67379 0.58747 0.63118 0.0
C86 C 0.80292 0.597 0.55741 0.0
O87 O 0.8529 0.60234 0.57087 0.0
C88 C 0.74628 0.47088 0.62182 0.0
O89 O 0.72953 0.46496 0.59374 0.0
O90 O 0.83163 0.68165 0.6322 0.0
C91 C 0.1129 0.64889 0.95431 0.0
O92 O 0.1679 0.66359 0.94271 0.0
O93 O 0.25027 0.79405 0.97495 0.0
Zn94 Zn 0.17473 0.78129 0.95145 0.0
O95 O 0.1872 0.78097 0.9072 0.0
C96 C 0.15065 0.863 0.98899 0.0
O97 O 0.14687 0.82096 0.00878 0.0
O98 O 0.1021 0.69374 0.9614 0.0
C99 C 0.23299 0.82627 0.89313 0.0
O100 O 0.27583 0.87718 0.90764 0.0
C101 C 0.29491 0.78723 0.96461 0.0
O102 O 0.29527 0.77313 0.93641 0.0
O103 O 0.16004 0.85393 0.96205 0.0
C104 C 0.29736 0.16077 0.29927 0.0
O105 O 0.33282 0.20249 0.27879 0.0
O106 O 0.38358 0.1281 0.24412 0.0
Zn107 Zn 0.39141 0.13232 0.28904 0.0
O108 O 0.45829 0.22277 0.30125 0.0
C109 C 0.42322 0.03008 0.28989 0.0
O110 O 0.3954 0.01382 0.26384 0.0
O111 O 0.30994 0.11773 0.3073 0.0
C112 C 0.51315 0.23471 0.30901 0.0
O113 O 0.52788 0.18928 0.30715 0.0
C114 C 0.43249 0.16162 0.22824 0.0
O115 O 0.48764 0.19654 0.24116 0.0
O116 O 0.42143 0.07375 0.30504 0.0
C117 C 0.36208 0.44195 0.64581 0.0
O118 O 0.33809 0.46485 0.66519 0.0
O119 O 0.24179 0.47007 0.63299 0.0
Zn120 Zn 0.24103 0.39129 0.61663 0.0
O121 O 0.23442 0.38736 0.57166 0.0
C122 C 0.11764 0.31172 0.63797 0.0
O123 O 0.1146 0.36084 0.62732 0.0
O124 O 0.32759 0.40486 0.62508 0.0
C125 C 0.18479 0.367 0.55596 0.0
O126 O 0.12952 0.34564 0.56876 0.0
C127 C 0.2188 0.50128 0.62071 0.0
O128 O 0.19016 0.48252 0.59488 0.0
O129 O 0.16927 0.31123 0.63599 0.0
C130 C 0.91302 0.38366 0.95485 0.0
O131 O 0.86389 0.37279 0.93886 0.0
O132 O 0.76177 0.24674 0.97554 0.0
Zn133 Zn 0.83906 0.24983 0.9571 0.0
O134 O 0.83319 0.24131 0.91224 0.0
C135 C 0.79561 0.12345 0.97523 0.0
O136 O 0.74499 0.11931 0.96306 0.0
O137 O 0.91508 0.33646 0.96633 0.0
C138 C 0.78232 0.20808 0.89767 0.0
O139 O 0.72835 0.1744 0.91184 0.0
C140 C 0.72662 0.26541 0.96367 0.0
O141 O 0.738 0.28879 0.93654 0.0
O142 O 0.84716 0.17715 0.97486 0.0
C143 C 0.71076 0.8394 0.31017 0.0
O144 O 0.72373 0.88142 0.28875 0.0
O145 O 0.5864 0.80186 0.25822 0.0
Zn146 Zn 0.57926 0.80573 0.30278 0.0
O147 O 0.50404 0.72529 0.31766 0.0
C148 C 0.59047 0.93291 0.30411 0.0
O149 O 0.63218 0.94624 0.2828 0.0
O150 O 0.65505 0.80791 0.32072 0.0
C151 C 0.44831 0.71077 0.31033 0.0
O152 O 0.43981 0.74695 0.29118 0.0
C153 C 0.55901 0.8192 0.23953 0.0
O154 O 0.52212 0.84077 0.24882 0.0
O155 O 0.5647 0.87716 0.31558 0.0
C156 C 0.18751 0.9799 0.97828 0.0
C157 C 0.16353 0.92818 -0.00117 0.0
C158 C 0.21093 0.00453 0.03992 0.0
C159 C 0.24792 0.05322 0.01885 0.0
N160 N 0.26797 0.0906 0.968 0.0
N161 N 0.12279 0.89598 0.04833 0.0
C162 C 0.23392 0.04252 0.98802 0.0
C163 C 0.16569 0.94199 0.02957 0.0
N164 N 0.16403 0.96921 0.95 0.0
N165 N 0.22137 0.01758 0.06967 0.0
H166 H 0.08604 0.8522 0.0403 0.0
H167 H 0.11891 0.9036 0.07087 0.0
H168 H 0.25159 0.064 0.07777 0.0
H169 H 0.20179 0.98254 0.08619 0.0
H170 H 0.17651 0.00565 0.93438 0.0
H171 H 0.12579 0.92478 0.9436 0.0
H172 H 0.26544 0.08335 0.94506 0.0
H173 H 0.30124 0.13742 0.97444 0.0
C174 C 0.17556 0.21091 0.30697 0.0
C175 C 0.1845 0.23043 0.33714 0.0
C176 C 0.25278 0.18471 0.34504 0.0
C177 C 0.24802 0.16949 0.31419 0.0
N178 N 0.18997 0.14828 0.2684 0.0
N179 N 0.21084 0.21608 0.38682 0.0
C180 C 0.2039 0.17566 0.29607 0.0
C181 C 0.2157 0.20984 0.35684 0.0
N182 N 0.14357 0.22961 0.28846 0.0
N183 N 0.29639 0.18082 0.36253 0.0
H184 H 0.18355 0.23442 0.39567 0.0
H185 H 0.22804 0.1972 0.40267 0.0
H186 H 0.32479 0.16276 0.35515 0.0
H187 H 0.30741 0.19939 0.38406 0.0
H188 H 0.14185 0.22379 0.26544 0.0
H189 H 0.12055 0.25343 0.29624 0.0
H190 H 0.1548 0.14674 0.25482 0.0
H191 H 0.20983 0.12162 0.26027 0.0
C192 C 0.99437 0.22284 0.69689 0.0
C193 C 0.94016 0.20323 0.67881 0.0
C194 C 0.00594 0.2249 0.63438 0.0
C195 C 0.06045 0.2592 0.65224 0.0
N196 N 0.10868 0.28846 0.70068 0.0
N197 N 0.89375 0.18482 0.62961 0.0
C198 C 0.05548 0.25609 0.68364 0.0
C199 C 0.94528 0.20216 0.6473 0.0
N200 N 0.987 0.20993 0.72671 0.0
N201 N 0.01282 0.21546 0.60494 0.0
H202 H 0.84827 0.16794 0.63785 0.0
H203 H 0.89675 0.19104 0.60661 0.0
H204 H 0.0573 0.23115 0.5955 0.0
H205 H 0.97498 0.18649 0.59099 0.0
H206 H 0.02418 0.21846 0.74081 0.0
H207 H 0.9424 0.18466 0.73671 0.0
H208 H 0.10766 0.29492 0.72357 0.0
H209 H 0.15415 0.31136 0.69158 0.0
C210 C 0.7313 0.94773 0.98727 0.0
C211 C 0.73068 0.94593 0.01879 0.0
C212 C 0.79475 0.06347 0.02122 0.0
C213 C 0.7899 0.06556 0.9898 0.0
N214 N 0.77396 0.01247 0.94256 0.0
N215 N 0.77831 -0.00272 0.065 0.0
C216 C 0.76535 0.0083 0.97271 0.0
C217 C 0.76873 0.0025 0.03545 0.0
N218 N 0.6956 0.89228 0.97146 0.0
N219 N 0.81939 0.11893 0.0376 0.0
H220 H 0.7595 0.95248 0.07544 0.0
H221 H 0.80935 0.03606 0.07824 0.0
H222 H 0.84004 0.16459 0.02804 0.0
H223 H 0.81691 0.11972 0.06073 0.0
H224 H 0.68742 0.8913 0.94868 0.0
H225 H 0.67193 0.84698 0.98148 0.0
H226 H 0.76143 0.9728 0.92886 0.0
H227 H 0.79936 0.05677 0.93168 0.0
C228 C 0.77471 0.82334 0.34843 0.0
C229 C 0.75574 0.81791 0.31831 0.0
C230 C 0.79504 0.74369 0.30861 0.0
C231 C 0.80067 0.73863 0.33967 0.0
N232 N 0.80403 0.77759 0.38934 0.0
N233 N 0.7485 0.77421 0.26896 0.0
C234 C 0.79407 0.78066 0.35962 0.0
C235 C 0.76785 0.77998 0.29791 0.0
N236 N 0.77344 0.86905 0.36612 0.0
N237 N 0.81405 0.71233 0.28951 0.0
H238 H 0.72922 0.80043 0.25995 0.0
H239 H 0.74826 0.74077 0.2541 0.0
H240 H 0.83304 0.6845 0.2969 0.0
H241 H 0.81665 0.71865 0.26652 0.0
H242 H 0.79047 0.87894 0.38784 0.0
H243 H 0.7599 0.90102 0.358 0.0
H244 H 0.79314 0.80113 0.40575 0.0
H245 H 0.82226 0.74968 0.39763 0.0
C246 C 0.99524 0.75906 0.62733 0.0
C247 C 0.94173 0.73664 0.64608 0.0
C248 C 0.0109 0.79332 0.68811 0.0
C249 C 0.06311 0.80052 0.67122 0.0
N250 N 0.10663 0.79379 0.62378 0.0
N251 N 0.89668 0.73643 0.69386 0.0
C252 C 0.05634 0.7864 0.64027 0.0
C253 C 0.94886 0.75655 0.6762 0.0
N254 N 0.98689 0.75268 0.5972 0.0
N255 N 0.02115 0.82078 0.71571 0.0
H256 H 0.85067 0.7111 0.68554 0.0
H257 H 0.89882 0.74256 0.71687 0.0
H258 H 0.06666 0.84827 0.72451 0.0
H259 H 0.98594 0.8216 0.72845 0.0
H260 H 0.02408 0.77255 0.58194 0.0
H261 H 0.94209 0.73297 0.58755 0.0
H262 H 0.10235 0.77612 0.60221 0.0
H263 H 0.15257 0.81497 0.632 0.0
C264 C 0.62018 0.20374 0.98792 0.0
C265 C 0.67464 0.26376 0.98112 0.0
C266 C 0.6278 0.32105 0.00564 0.0
C267 C 0.57599 0.26101 0.01495 0.0
N268 N 0.52692 0.14525 0.01883 0.0
N269 N 0.73585 0.37914 0.98753 0.0
C270 C 0.57311 0.20225 0.00707 0.0
C271 C 0.68004 0.32237 0.99108 0.0
N272 N 0.61255 0.14836 0.97533 0.0
N273 N 0.62594 0.37659 0.00949 0.0
H274 H 0.77526 0.38217 0.97692 0.0
H275 H 0.745 0.42233 0.99735 0.0
H276 H 0.58809 0.37781 0.01955 0.0
H277 H 0.65907 0.42063 0.00022 0.0
H278 H 0.57076 0.10405 0.97672 0.0
H279 H 0.64622 0.14761 0.9613 0.0
H280 H 0.52661 0.10191 0.01665 0.0
H281 H 0.49152 0.14192 0.03293 0.0
C282 C 0.29098 0.60821 0.34998 0.0
C283 C 0.29192 0.55011 0.35398 0.0
C284 C 0.39045 0.59466 0.32551 0.0
C285 C 0.39351 0.6552 0.32463 0.0
N286 N 0.35374 0.72336 0.34249 0.0
N287 N 0.35051 0.49395 0.35192 0.0
C288 C 0.34573 0.66319 0.33864 0.0
C289 C 0.34394 0.54493 0.34355 0.0
N290 N 0.23725 0.61046 0.35587 0.0
N291 N 0.43032 0.5837 0.30834 0.0
H292 H 0.31925 0.45845 0.36656 0.0
H293 H 0.39068 0.49097 0.34711 0.0
H294 H 0.4635 0.61807 0.29384 0.0
H295 H 0.42578 0.53835 0.30611 0.0
H296 H 0.23237 0.64987 0.35037 0.0
H297 H 0.19539 0.57082 0.36345 0.0
H298 H 0.32298 0.73192 0.35518 0.0
H299 H 0.3944 0.76547 0.33583 0.0
C300 C 0.78983 0.37287 0.67265 0.0
C301 C 0.73343 0.31184 0.67166 0.0
C302 C 0.68435 0.35629 0.63933 0.0
C303 C 0.74258 0.41548 0.63802 0.0
N304 N 0.85482 0.47495 0.64777 0.0
N305 N 0.63318 0.24169 0.64776 0.0
C306 C 0.79661 0.42235 0.65306 0.0
C307 C 0.68241 0.30243 0.65319 0.0
N308 N 0.83576 0.38465 0.69309 0.0
N309 N 0.63009 0.35184 0.6285 0.0
H310 H 0.63115 0.20059 0.65646 0.0
H311 H 0.5981 0.23167 0.63205 0.0
H312 H 0.62875 0.39016 0.61846 0.0
H313 H 0.58532 0.31188 0.6321 0.0
H314 H 0.87479 0.43033 0.69674 0.0
H315 H 0.83197 0.35035 0.70843 0.0
H316 H 0.89673 0.47959 0.65598 0.0
H317 H 0.86181 0.51054 0.63248 0.0
C318 C 0.40922 0.83738 0.97819 0.0
C319 C 0.34497 0.79218 0.98462 0.0
C320 C 0.37678 0.75788 0.0295 0.0
C321 C 0.4411 0.79822 0.0213 0.0
N322 N 0.51932 0.87005 0.98586 0.0
N323 N 0.26746 0.70148 0.01337 0.0
C324 C 0.45759 0.83604 0.99501 0.0
C325 C 0.32853 0.75055 0.00961 0.0
N326 N 0.42396 0.8834 0.95685 0.0
N327 N 0.36175 0.72614 0.05617 0.0
H328 H 0.23081 0.69314 -0.00108 0.0
H329 H 0.25395 0.66527 0.02922 0.0
H330 H 0.39556 0.7273 0.07066 0.0
H331 H 0.31607 0.70228 0.06494 0.0
H332 H 0.46958 0.92192 0.95336 0.0
H333 H 0.38974 0.88679 0.94445 0.0
H334 H 0.5332 0.89223 0.96512 0.0
H335 H 0.55654 0.87227 -0.00197 0.0
C336 C 0.62171 0.33131 0.30756 0.0
C337 C 0.56059 0.29885 0.32065 0.0
C338 C 0.5952 0.38455 0.35805 0.0
C339 C 0.65834 0.41097 0.34778 0.0
N340 N 0.73355 0.40364 0.31527 0.0
N341 N 0.49059 0.2901 0.36085 0.0
C342 C 0.67217 0.38325 0.32301 0.0
C343 C 0.54732 0.32454 0.3464 0.0
N344 N 0.63133 0.31325 0.28005 0.0
N345 N 0.58082 0.41737 0.37857 0.0
H346 H 0.45445 0.24533 0.35359 0.0
H347 H 0.48131 0.30329 0.38153 0.0
H348 H 0.61474 0.46181 0.38732 0.0
H349 H 0.53461 0.40376 0.38467 0.0
H350 H 0.67334 0.33943 0.26811 0.0
H351 H 0.5952 0.27597 0.26784 0.0
H352 H 0.74616 0.37998 0.29962 0.0
H353 H 0.77236 0.44045 0.32633 0.0
C354 C 0.20142 0.55606 0.66431 0.0
C355 C 0.22644 0.56001 0.63529 0.0
C356 C 0.26507 0.67586 0.63405 0.0
C357 C 0.24671 0.67312 0.66424 0.0
N358 N 0.20478 0.61273 0.70964 0.0
N359 N 0.2919 0.62521 0.59453 0.0
C360 C 0.21659 0.61373 0.6798 0.0
C361 C 0.26073 0.62029 0.6206 0.0
N362 N 0.16161 0.49719 0.67669 0.0
N363 N 0.28475 0.731 0.61791 0.0
H364 H 0.29114 0.58595 0.58414 0.0
H365 H 0.3234 0.66916 0.58464 0.0
H366 H 0.28753 0.77252 0.62682 0.0
H367 H 0.29231 0.73358 0.595 0.0
H368 H 0.13651 0.49118 0.69634 0.0
H369 H 0.14912 0.45383 0.66602 0.0
H370 H 0.18957 0.572 0.7229 0.0
H371 H 0.21509 0.654 0.72175 0.0
C372 C 0.45361 0.23517 0.15146 0.0
C373 C 0.42373 0.17917 0.13333 0.0
C374 C 0.4019 0.11107 0.17732 0.0
C375 C 0.42692 0.16676 0.19567 0.0
N376 N 0.46239 0.28016 0.20063 0.0
N377 N 0.35731 0.06359 0.12943 0.0
C378 C 0.44869 0.22841 0.18287 0.0
C379 C 0.39433 0.11696 0.14637 0.0
N380 N 0.48902 0.29472 0.13881 0.0
N381 N 0.38801 0.05303 0.18911 0.0
H382 H 0.34967 0.06595 0.10675 0.0
H383 H 0.32932 0.01772 0.13841 0.0
H384 H 0.3939 0.047 0.21156 0.0
H385 H 0.37632 0.01242 0.17622 0.0
H386 H 0.51733 0.33631 0.15113 0.0
H387 H 0.49514 0.30194 0.11588 0.0
H388 H 0.47223 0.32471 0.19226 0.0
H389 H 0.4574 0.2769 0.22374 0.0
C390 C 0.15213 0.30663 0.47608 0.0
C391 C 0.1929 0.3642 0.4604 0.0
C392 C 0.22757 0.42417 0.50733 0.0
C393 C 0.18914 0.36596 0.52313 0.0
N394 N 0.12567 0.24983 0.5232 0.0
N395 N 0.27763 0.47518 0.4607 0.0
C396 C 0.15424 0.30657 0.50769 0.0
C397 C 0.23349 0.4221 0.47593 0.0
N398 N 0.11124 0.25202 0.46076 0.0
N399 N 0.2556 0.4819 0.52209 0.0
H400 H 0.28188 0.47664 0.43759 0.0
H401 H 0.31336 0.51625 0.47106 0.0
H402 H 0.25215 0.48582 0.54504 0.0
H403 H 0.27788 0.52643 0.51142 0.0
H404 H 0.07483 0.21102 0.47086 0.0
H405 H 0.11127 0.24875 0.43759 0.0
H406 H 0.1051 0.20463 0.51315 0.0
H407 H 0.12763 0.24764 0.54633 0.0
C408 C 0.75584 0.14828 0.84925 0.0
C409 C 0.78358 0.20784 0.8647 0.0
C410 C 0.81487 0.26542 0.81715 0.0
C411 C 0.778 0.20628 0.80183 0.0
N412 N 0.70465 0.09105 0.80421 0.0
N413 N 0.83013 0.3237 0.86313 0.0
C414 C 0.74637 0.14741 0.81805 0.0
C415 C 0.81095 0.26673 0.84863 0.0
N416 N 0.74022 0.09263 0.86417 0.0
N417 N 0.85515 0.32008 0.80175 0.0
H418 H 0.82541 0.32668 0.88602 0.0
H419 H 0.8445 0.36705 0.85208 0.0
H420 H 0.86128 0.32055 0.77874 0.0
H421 H 0.88752 0.36307 0.81215 0.0
H422 H 0.72588 0.04888 0.85344 0.0
H423 H 0.74801 0.09146 0.88693 0.0
H424 H 0.67509 0.04868 0.81577 0.0
H425 H 0.69492 0.0875 0.78156 0.0
C426 C 0.52761 0.78279 0.1569 0.0
C427 C 0.59048 0.81303 0.14556 0.0
C428 C 0.63233 0.85051 0.19567 0.0
C429 C 0.56986 0.81628 0.20729 0.0
N430 N 0.45937 0.73808 0.19999 0.0
N431 N 0.70242 0.86127 0.15517 0.0
C432 C 0.51781 0.77896 0.1882 0.0
C433 C 0.64282 0.84268 0.16526 0.0
N434 N 0.47724 0.76029 0.13792 0.0
N435 N 0.6814 0.89281 0.21327 0.0
H436 H 0.71184 0.85429 0.13324 0.0
H437 H 0.74135 0.87716 0.16921 0.0
H438 H 0.67564 0.90142 0.23549 0.0
H439 H 0.72666 0.92405 0.20507 0.0
H440 H 0.4312 0.74488 0.14503 0.0
H441 H 0.48181 0.76194 0.11485 0.0
H442 H 0.42126 0.70458 0.1873 0.0
H443 H 0.45046 0.73311 0.22284 0.0
C444 C 0.79263 0.64189 0.50883 0.0
C445 C 0.79922 0.59436 0.5245 0.0
C446 C 0.80007 0.5431 0.4773 0.0
C447 C 0.78783 0.58725 0.46185 0.0
N448 N 0.76638 0.67503 0.46269 0.0
N449 N 0.80124 0.49488 0.52442 0.0
C450 C 0.78193 0.63534 0.47759 0.0
C451 C 0.80133 0.54393 0.50894 0.0
N452 N 0.80013 0.69522 0.52359 0.0
N453 N 0.81032 0.5001 0.46177 0.0
H454 H 0.80298 0.49378 0.54755 0.0
H455 H 0.79459 0.45263 0.51458 0.0
H456 H 0.80444 0.49364 0.43882 0.0
H457 H 0.82821 0.47315 0.47136 0.0
H458 H 0.80283 0.73503 0.51299 0.0
H459 H 0.80967 0.70265 0.54633 0.0
H460 H 0.75346 0.70529 0.47329 0.0
H461 H 0.76255 0.67515 0.4396 0.0
C462 C 0.23801 0.87251 0.84258 0.0
C463 C 0.23607 0.8227 0.86028 0.0
C464 C 0.23374 0.76401 0.81507 0.0
C465 C 0.24444 0.81779 0.79766 0.0
N466 N 0.26521 0.9274 0.79517 0.0
N467 N 0.23988 0.72422 0.86359 0.0
C468 C 0.24868 0.87315 0.81146 0.0
C469 C 0.23581 0.76913 0.8466 0.0
N470 N 0.22666 0.9176 0.85523 0.0
N471 N 0.21892 0.70706 0.80149 0.0
H472 H 0.24112 0.72559 0.88674 0.0
H473 H 0.24742 0.68855 0.85469 0.0
H474 H 0.21531 0.70085 0.77845 0.0
H475 H 0.2039 0.66421 0.81308 0.0
H476 H 0.22061 0.95075 0.84287 0.0
H477 H 0.21671 0.91784 0.8778 0.0
H478 H 0.27671 0.97152 0.80475 0.0
H479 H 0.27267 0.93014 0.77227 0.0
C480 C 0.52079 0.53129 0.0561 0.0
C481 C 0.50564 0.56412 0.0344 0.0
C482 C 0.4496 0.465 0.00476 0.0
C483 C 0.46769 0.43315 0.02569 0.0
N484 N 0.53203 0.4392 0.06765 0.0
N485 N 0.46618 0.56682 0.98563 0.0
C486 C 0.50669 0.46725 0.05032 0.0
C487 C 0.47311 0.53228 0.00797 0.0
N488 N 0.54597 0.56012 0.08283 0.0
N489 N 0.40793 0.43046 0.98257 0.0
H490 H 0.48311 0.61624 0.98722 0.0
H491 H 0.44876 0.54798 0.96461 0.0
H492 H 0.38992 0.38117 0.97948 0.0
H493 H 0.38737 0.44936 0.96863 0.0
H494 H 0.55088 0.53576 0.10085 0.0
H495 H 0.55726 0.60709 0.088 0.0
H496 H 0.56636 0.46411 0.08381 0.0
H497 H 0.52327 0.39253 0.06409 0.0
C498 C 0.97488 0.49421 0.38356 0.0
C499 C 0.9389 0.49632 0.35937 0.0
C500 C 0.98112 0.44451 0.32688 0.0
C501 C 0.01909 0.44484 0.35079 0.0
N502 N 0.06351 0.48363 0.39964 0.0
N503 N 0.91434 0.48359 0.30698 0.0
C504 C 0.01907 0.47335 0.37856 0.0
C505 C 0.94433 0.47488 0.33063 0.0
N506 N 0.96647 0.51169 0.41147 0.0
N507 N 0.9782 0.41275 0.30109 0.0
H508 H 0.8859 0.50427 0.30908 0.0
H509 H 0.92137 0.47502 0.28497 0.0
H510 H 0.00435 0.38986 0.29768 0.0
H511 H 0.94645 0.40465 0.28396 0.0
H512 H 0.98473 0.50288 0.43065 0.0
H513 H 0.93811 0.53181 0.41578 0.0
H514 H 0.07058 0.51086 0.41882 0.0
H515 H 0.09757 0.47019 0.39683 0.0
C516 C 0.52216 0.00094 0.73538 0.0
C517 C 0.56011 0.03598 0.71078 0.0
C518 C 0.46406 0.0035 0.68137 0.0
C519 C 0.42734 0.97893 0.70765 0.0
N520 N 0.42115 0.95621 0.76037 0.0
N521 N 0.56778 0.07144 0.65975 0.0
C522 C 0.4563 0.97812 0.73487 0.0
C523 C 0.53135 0.03663 0.68337 0.0
N524 N 0.54922 0.9877 0.75887 0.0
N525 N 0.43462 0.99528 0.65453 0.0
H526 H 0.61693 0.0943 0.65952 0.0
H527 H 0.54951 0.08082 0.64074 0.0
H528 H 0.38566 0.97434 0.65244 0.0
H529 H 0.45809 0.00506 0.63416 0.0
H530 H 0.52343 0.95736 0.77639 0.0
H531 H 0.59701 0.00119 0.75904 0.0
H532 H 0.44098 0.96168 0.78142 0.0
H533 H 0.37231 0.93657 0.76089 0.0
C534 C 0.52595 0.46072 0.64857 0.0
C535 C 0.56091 0.51844 0.63198 0.0
C536 C 0.46834 0.53234 0.63044 0.0
C537 C 0.43143 0.47046 0.64362 0.0
N538 N 0.42277 0.37362 0.66393 0.0
N539 N 0.56576 0.60756 0.60509 0.0
C540 C 0.45965 0.43412 0.65245 0.0
C541 C 0.53254 0.55445 0.62274 0.0
N542 N 0.55673 0.43249 0.66129 0.0
N543 N 0.44181 0.56965 0.62495 0.0
H544 H 0.61308 0.62569 0.59928 0.0
H545 H 0.54561 0.63137 0.59449 0.0
H546 H 0.39409 0.554 0.62861 0.0
H547 H 0.46783 0.61788 0.61866 0.0
H548 H 0.5353 0.39359 0.67586 0.0
H549 H 0.60556 0.45179 0.65942 0.0
H550 H 0.4389 0.34151 0.66753 0.0
H551 H 0.37458 0.35394 0.66834 0.0
C552 C 0.03653 0.5499 0.98275 0.0
C553 C 0.06195 0.58084 0.95512 0.0
C554 C -0.00144 0.47886 0.92871 0.0
C555 C 0.96804 0.44955 0.95584 0.0
N556 N 0.95179 0.45764 0.00829 0.0
N557 N 0.05971 0.57823 0.90135 0.0
C558 C 0.9855 0.48503 0.98286 0.0
C559 C 0.04109 0.54624 0.92795 0.0
N560 N 0.06242 0.58182 0.00881 0.0
N561 N 0.98807 0.44186 0.90382 0.0
H562 H 0.08978 0.62799 0.89975 0.0
H563 H 0.04063 0.55653 0.88094 0.0
H564 H 0.9579 0.39196 0.90366 0.0
H565 H 0.01384 0.4595 0.88417 0.0
H566 H 0.05053 0.55966 0.02959 0.0
H567 H 0.09955 0.62951 0.00952 0.0
H568 H 0.95753 0.48333 0.02786 0.0
H569 H 0.91475 0.40994 0.00926 0.0
C570 C 0.50654 0.95134 0.32744 0.0
C571 C 0.56013 0.97324 0.30851 0.0
C572 C 0.53068 0.04353 0.28249 0.0
C573 C 0.47136 0.01253 0.29755 0.0
N574 N 0.40248 0.93857 0.335 0.0
N575 N 0.63876 0.06494 0.2813 0.0
C576 C 0.45956 0.96765 0.32061 0.0
C577 C 0.57712 0.02698 0.28989 0.0
N578 N 0.50318 0.919 0.35298 0.0
N579 N 0.54207 0.08752 0.26058 0.0
H580 H 0.67475 0.05826 0.28975 0.0
H581 H 0.65555 0.10781 0.26952 0.0
H582 H 0.51062 0.10327 0.25534 0.0
H583 H 0.58098 0.10555 0.24634 0.0
H584 H 0.46761 0.90529 0.36887 0.0
H585 H 0.54087 0.9137 0.36015 0.0
H586 H 0.38803 0.89988 0.34953 0.0
H587 H 0.36759 0.95042 0.3309 0.0
loop_
_geom_bond_atom_site_label_1
_geom_bond_atom_site_label_2
_geom_bond_distance
_geom_bond_site_symmetry_2
_ccdc_geom_bond_type
C0 O1 1.160 . S
C0 O7 1.185 . S
O1 C0 1.160 . S
O2 Zn3 1.899 . S
O2 C10 1.284 . S
Zn3 O2 1.899 . S
Zn3 O4 2.032 . S
Zn3 O7 2.086 . S
Zn3 O12 1.977 . S
O4 Zn3 2.032 . S
O4 C8 1.278 . S
C5 O6 1.203 . S
C5 O12 1.267 . S
O6 C5 1.203 . S
O7 C0 1.185 . S
O7 Zn3 2.086 . S
C8 O4 1.278 . S
C8 O9 1.211 . S
O9 C8 1.211 . S
C10 O2 1.284 . S
C10 O11 1.273 . S
O11 C10 1.273 . S
O12 Zn3 1.977 . S
O12 C5 1.267 . S
C13 O14 1.160 . S
C13 O20 1.185 . S
O14 C13 1.160 . S
O15 Zn16 1.899 . S
O15 C23 1.284 . S
Zn16 O15 1.899 . S
Zn16 O17 2.032 . S
Zn16 O20 2.086 . S
Zn16 O25 1.977 . S
O17 Zn16 2.032 . S
O17 C21 1.278 . S
C18 O19 1.203 . S
C18 O25 1.267 . S
O19 C18 1.203 . S
O20 C13 1.185 . S
O20 Zn16 2.086 . S
C21 O17 1.278 . S
C21 O22 1.211 . S
O22 C21 1.211 . S
C23 O15 1.284 . S
C23 O24 1.273 . S
O24 C23 1.273 . S
O25 Zn16 1.977 . S
O25 C18 1.267 . S
C26 O27 1.160 . S
C26 O33 1.185 . S
O27 C26 1.160 . S
O28 Zn29 1.899 . S
O28 C36 1.284 . S
Zn29 O28 1.899 . S
Zn29 O30 2.032 . S
Zn29 O33 2.086 . S
Zn29 O38 1.977 . S
O30 Zn29 2.032 . S
O30 C34 1.278 . S
C31 O32 1.203 . S
C31 O38 1.267 . S
O32 C31 1.203 . S
O33 C26 1.185 . S
O33 Zn29 2.086 . S
C34 O30 1.278 . S
C34 O35 1.211 . S
O35 C34 1.211 . S
C36 O28 1.284 . S
C36 O37 1.273 . S
O37 C36 1.273 . S
O38 Zn29 1.977 . S
O38 C31 1.267 . S
C39 O40 1.160 . S
C39 O46 1.185 . S
O40 C39 1.160 . S
O41 Zn42 1.899 . S
O41 C49 1.284 . S
Zn42 O41 1.899 . S
Zn42 O43 2.032 . S
Zn42 O46 2.086 . S
Zn42 O51 1.977 . S
O43 Zn42 2.032 . S
O43 C47 1.278 . S
C44 O45 1.203 . S
C44 O51 1.267 . S
O45 C44 1.203 . S
O46 C39 1.185 . S
O46 Zn42 2.086 . S
C47 O43 1.278 . S
C47 O48 1.211 . S
O48 C47 1.211 . S
C49 O41 1.284 . S
C49 O50 1.273 . S
O50 C49 1.273 . S
O51 Zn42 1.977 . S
O51 C44 1.267 . S
C52 O53 1.160 . S
C52 O59 1.185 . S
O53 C52 1.160 . S
O54 Zn55 1.899 . S
O54 C62 1.284 . S
Zn55 O54 1.899 . S
Zn55 O56 2.032 . S
Zn55 O59 2.086 . S
Zn55 O64 1.977 . S
O56 Zn55 2.032 . S
O56 C60 1.278 . S
C57 O58 1.203 . S
C57 O64 1.267 . S
O58 C57 1.203 . S
O59 C52 1.185 . S
O59 Zn55 2.086 . S
C60 O56 1.278 . S
C60 O61 1.211 . S
O61 C60 1.211 . S
C62 O54 1.284 . S
C62 O63 1.273 . S
O63 C62 1.273 . S
O64 Zn55 1.977 . S
O64 C57 1.267 . S
C65 O66 1.160 . S
C65 O72 1.185 . S
O66 C65 1.160 . S
O67 Zn68 1.899 . S
O67 C75 1.284 . S
Zn68 O67 1.899 . S
Zn68 O69 2.032 . S
Zn68 O72 2.086 . S
Zn68 O77 1.977 . S
O69 Zn68 2.032 . S
O69 C73 1.278 . S
C70 O71 1.203 . S
C70 O77 1.267 . S
O71 C70 1.203 . S
O72 C65 1.185 . S
O72 Zn68 2.086 . S
C73 O69 1.278 . S
C73 O74 1.211 . S
O74 C73 1.211 . S
C75 O67 1.284 . S
C75 O76 1.273 . S
O76 C75 1.273 . S
O77 Zn68 1.977 . S
O77 C70 1.267 . S
C78 O79 1.160 . S
C78 O85 1.185 . S
O79 C78 1.160 . S
O80 Zn81 1.899 . S
O80 C88 1.284 . S
Zn81 O80 1.899 . S
Zn81 O82 2.032 . S
Zn81 O85 2.086 . S
Zn81 O90 1.977 . S
O82 Zn81 2.032 . S
O82 C86 1.278 . S
C83 O84 1.203 . S
C83 O90 1.267 . S
O84 C83 1.203 . S
O85 C78 1.185 . S
O85 Zn81 2.086 . S
C86 O82 1.278 . S
C86 O87 1.211 . S
O87 C86 1.211 . S
C88 O80 1.284 . S
C88 O89 1.273 . S
O89 C88 1.273 . S
O90 Zn81 1.977 . S
O90 C83 1.267 . S
C91 O92 1.160 . S
C91 O98 1.185 . S
O92 C91 1.160 . S
O93 Zn94 1.899 . S
O93 C101 1.284 . S
Zn94 O93 1.899 . S
Zn94 O95 2.032 . S
Zn94 O98 2.086 . S
Zn94 O103 1.977 . S
O95 Zn94 2.032 . S
O95 C99 1.278 . S
C96 O97 1.203 . S
C96 O103 1.267 . S
O97 C96 1.203 . S
O98 C91 1.185 . S
O98 Zn94 2.086 . S
C99 O95 1.278 . S
C99 O100 1.211 . S
O100 C99 1.211 . S
C101 O93 1.284 . S
C101 O102 1.273 . S
O102 C101 1.273 . S
O103 Zn94 1.977 . S
O103 C96 1.267 . S
C104 O105 1.160 . S
C104 O111 1.185 . S
O105 C104 1.160 . S
O106 Zn107 1.899 . S
O106 C114 1.284 . S
Zn107 O106 1.899 . S
Zn107 O108 2.032 . S
Zn107 O111 2.086 . S
Zn107 O116 1.977 . S
O108 Zn107 2.032 . S
O108 C112 1.278 . S
C109 O110 1.203 . S
C109 O116 1.267 . S
O110 C109 1.203 . S
O111 C104 1.185 . S
O111 Zn107 2.086 . S
C112 O108 1.278 . S
C112 O113 1.211 . S
O113 C112 1.211 . S
C114 O106 1.284 . S
C114 O115 1.273 . S
O115 C114 1.273 . S
O116 Zn107 1.977 . S
O116 C109 1.267 . S
C117 O118 1.160 . S
C117 O124 1.185 . S
O118 C117 1.160 . S
O119 Zn120 1.899 . S
O119 C127 1.284 . S
Zn120 O119 1.899 . S
Zn120 O121 2.032 . S
Zn120 O124 2.086 . S
Zn120 O129 1.977 . S
O121 Zn120 2.032 . S
O121 C125 1.278 . S
C122 O123 1.203 . S
C122 O129 1.267 . S
O123 C122 1.203 . S
O124 C117 1.185 . S
O124 Zn120 2.086 . S
C125 O121 1.278 . S
C125 O126 1.211 . S
O126 C125 1.211 . S
C127 O119 1.284 . S
C127 O128 1.273 . S
O128 C127 1.273 . S
O129 Zn120 1.977 . S
O129 C122 1.267 . S
C130 O131 1.160 . S
C130 O137 1.185 . S
O131 C130 1.160 . S
O132 Zn133 1.899 . S
O132 C140 1.284 . S
Zn133 O132 1.899 . S
Zn133 O134 2.032 . S
Zn133 O137 2.086 . S
Zn133 O142 1.977 . S
O134 Zn133 2.032 . S
O134 C138 1.278 . S
C135 O136 1.203 . S
C135 O142 1.267 . S
O136 C135 1.203 . S
O137 C130 1.185 . S
O137 Zn133 2.086 . S
C138 O134 1.278 . S
C138 O139 1.211 . S
O139 C138 1.211 . S
C140 O132 1.284 . S
C140 O141 1.273 . S
O141 C140 1.273 . S
O142 Zn133 1.977 . S
O142 C135 1.267 . S
C143 O144 1.160 . S
C143 O150 1.185 . S
O144 C143 1.160 . S
O145 Zn146 1.899 . S
O145 C153 1.284 . S
Zn146 O145 1.899 . S
Zn146 O147 2.032 . S
Zn146 O150 2.086 . S
Zn146 O155 1.977 . S
O147 Zn146 2.032 . S
O147 C151 1.278 . S
C148 O149 1.203 . S
C148 O155 1.267 . S
O149 C148 1.203 . S
O150 C143 1.185 . S
O150 Zn146 2.086 . S
C151 O147 1.278 . S
C151 O152 1.211 . S
O152 C151 1.211 . S
C153 O145 1.284 . S
C153 O154 1.273 . S
O154 C153 1.273 . S
O155 Zn146 1.977 . S
O155 C148 1.267 . S
C156 C157 1.363 . S
C156 C162 1.379 1_565 S
C156 N164 1.356 . S
C157 C156 1.363 . S
C157 C163 1.363 1_556 S
C158 C159 1.363 . S
C158 C163 1.379 1_545 S
C158 N165 1.356 . S
C159 C158 1.363 . S
C159 C162 1.363 1_554 S
N160 C162 1.356 . S
N160 H172 0.984 . S
N160 H173 0.985 . S
N161 C163 1.356 . S
N161 H166 0.984 . S
N161 H167 0.985 . S
C162 C156 1.379 1_545 S
C162 C159 1.363 1_556 S
C162 N160 1.356 . S
C163 C157 1.363 1_554 S
C163 C158 1.379 1_565 S
C163 N161 1.356 . S
N164 C156 1.356 . S
N164 H170 0.984 . S
N164 H171 0.984 . S
N165 C158 1.356 . S
N165 H168 0.984 . S
N165 H169 0.985 . S
H166 N161 0.984 . S
H167 N161 0.985 . S
H168 N165 0.984 . S
H169 N165 0.985 . S
H170 N164 0.984 . S
H171 N164 0.984 . S
H172 N160 0.984 . S
H173 N160 0.985 . S
C174 C175 1.363 . S
C174 C180 1.379 . S
C174 N182 1.356 . S
C175 C174 1.363 . S
C175 C181 1.363 . S
C176 C177 1.363 . S
C176 C181 1.379 . S
C176 N183 1.356 . S
C177 C176 1.363 . S
C177 C180 1.363 . S
N178 C180 1.356 . S
N178 H190 0.984 . S
N178 H191 0.985 . S
N179 C181 1.356 . S
N179 H184 0.984 . S
N179 H185 0.985 . S
C180 C174 1.379 . S
C180 C177 1.363 . S
C180 N178 1.356 . S
C181 C175 1.363 . S
C181 C176 1.379 . S
C181 N179 1.356 . S
N182 C174 1.356 . S
N182 H188 0.984 . S
N182 H189 0.984 . S
N183 C176 1.356 . S
N183 H186 0.984 . S
N183 H187 0.985 . S
H184 N179 0.984 . S
H185 N179 0.985 . S
H186 N183 0.984 . S
H187 N183 0.985 . S
H188 N182 0.984 . S
H189 N182 0.984 . S
H190 N178 0.984 . S
H191 N178 0.985 . S
C192 C193 1.363 . S
C192 C198 1.379 1_655 S
C192 N200 1.356 . S
C193 C192 1.363 . S
C193 C199 1.363 . S
C194 C195 1.363 . S
C194 C199 1.379 1_455 S
C194 N201 1.356 . S
C195 C194 1.363 . S
C195 C198 1.363 . S
N196 C198 1.356 . S
N196 H208 0.984 . S
N196 H209 0.985 . S
N197 C199 1.356 . S
N197 H202 0.984 . S
N197 H203 0.985 . S
C198 C192 1.379 1_455 S
C198 C195 1.363 . S
C198 N196 1.356 . S
C199 C193 1.363 . S
C199 C194 1.379 1_655 S
C199 N197 1.356 . S
N200 C192 1.356 . S
N200 H206 0.984 . S
N200 H207 0.984 . S
N201 C194 1.356 . S
N201 H204 0.984 . S
N201 H205 0.985 . S
H202 N197 0.984 . S
H203 N197 0.985 . S
H204 N201 0.984 . S
H205 N201 0.985 . S
H206 N200 0.984 . S
H207 N200 0.984 . S
H208 N196 0.984 . S
H209 N196 0.985 . S
C210 C211 1.363 1_556 S
C210 C216 1.379 1_565 S
C210 N218 1.356 . S
C211 C210 1.363 1_554 S
C211 C217 1.363 . S
C212 C213 1.363 1_554 S
C212 C217 1.379 1_545 S
C212 N219 1.356 . S
C213 C212 1.363 1_556 S
C213 C216 1.363 . S
N214 C216 1.356 . S
N214 H226 0.984 . S
N214 H227 0.985 . S
N215 C217 1.356 . S
N215 H220 0.984 . S
N215 H221 0.985 . S
C216 C210 1.379 1_545 S
C216 C213 1.363 . S
C216 N214 1.356 . S
C217 C211 1.363 . S
C217 C212 1.379 1_565 S
C217 N215 1.356 . S
N218 C210 1.356 . S
N218 H224 0.984 . S
N218 H225 0.984 . S
N219 C212 1.356 . S
N219 H222 0.984 . S
N219 H223 0.985 . S
H220 N215 0.984 . S
H221 N215 0.985 . S
H222 N219 0.984 . S
H223 N219 0.985 . S
H224 N218 0.984 . S
H225 N218 0.984 . S
H226 N214 0.984 . S
H227 N214 0.985 . S
C228 C229 1.363 . S
C228 C234 1.379 . S
C228 N236 1.356 . S
C229 C228 1.363 . S
C229 C235 1.363 . S
C230 C231 1.363 . S
C230 C235 1.379 . S
C230 N237 1.356 . S
C231 C230 1.363 . S
C231 C234 1.363 . S
N232 C234 1.356 . S
N232 H244 0.984 . S
N232 H245 0.985 . S
N233 C235 1.356 . S
N233 H238 0.984 . S
N233 H239 0.985 . S
C234 C228 1.379 . S
C234 C231 1.363 . S
C234 N232 1.356 . S
C235 C229 1.363 . S
C235 C230 1.379 . S
C235 N233 1.356 . S
N236 C228 1.356 . S
N236 H242 0.984 . S
N236 H243 0.984 . S
N237 C230 1.356 . S
N237 H240 0.984 . S
N237 H241 0.985 . S
H238 N233 0.984 . S
H239 N233 0.985 . S
H240 N237 0.984 . S
H241 N237 0.985 . S
H242 N236 0.984 . S
H243 N236 0.984 . S
H244 N232 0.984 . S
H245 N232 0.985 . S
C246 C247 1.363 . S
C246 C252 1.379 1_655 S
C246 N254 1.356 . S
C247 C246 1.363 . S
C247 C253 1.363 . S
C248 C249 1.363 . S
C248 C253 1.379 1_455 S
C248 N255 1.356 . S
C249 C248 1.363 . S
C249 C252 1.363 . S
N250 C252 1.356 . S
N250 H262 0.984 . S
N250 H263 0.985 . S
N251 C253 1.356 . S
N251 H256 0.984 . S
N251 H257 0.985 . S
C252 C246 1.379 1_455 S
C252 C249 1.363 . S
C252 N250 1.356 . S
C253 C247 1.363 . S
C253 C248 1.379 1_655 S
C253 N251 1.356 . S
N254 C246 1.356 . S
N254 H260 0.984 . S
N254 H261 0.984 . S
N255 C248 1.356 . S
N255 H258 0.984 . S
N255 H259 0.985 . S
H256 N251 0.984 . S
H257 N251 0.985 . S
H258 N255 0.984 . S
H259 N255 0.985 . S
H260 N254 0.984 . S
H261 N254 0.984 . S
H262 N250 0.984 . S
H263 N250 0.985 . S
C264 C265 1.363 . S
C264 C270 1.379 . S
C264 N272 1.356 . S
C265 C264 1.363 . S
C265 C271 1.363 1_556 S
C266 C267 1.363 . S
C266 C271 1.379 . S
C266 N273 1.356 . S
C267 C266 1.363 . S
C267 C270 1.363 1_554 S
N268 C270 1.356 . S
N268 H280 0.984 . S
N268 H281 0.985 1_556 S
N269 C271 1.356 . S
N269 H274 0.984 1_554 S
N269 H275 0.985 . S
C270 C264 1.379 . S
C270 C267 1.363 1_556 S
C270 N268 1.356 . S
C271 C265 1.363 1_554 S
C271 C266 1.379 . S
C271 N269 1.356 . S
N272 C264 1.356 . S
N272 H278 0.984 . S
N272 H279 0.984 . S
N273 C266 1.356 . S
N273 H276 0.984 . S
N273 H277 0.985 . S
H274 N269 0.984 1_556 S
H275 N269 0.985 . S
H276 N273 0.984 . S
H277 N273 0.985 . S
H278 N272 0.984 . S
H279 N272 0.984 . S
H280 N268 0.984 . S
H281 N268 0.985 1_554 S
C282 C283 1.363 . S
C282 C288 1.379 . S
C282 N290 1.356 . S
C283 C282 1.363 . S
C283 C289 1.363 . S
C284 C285 1.363 . S
C284 C289 1.379 . S
C284 N291 1.356 . S
C285 C284 1.363 . S
C285 C288 1.363 . S
N286 C288 1.356 . S
N286 H298 0.984 . S
N286 H299 0.985 . S
N287 C289 1.356 . S
N287 H292 0.984 . S
N287 H293 0.985 . S
C288 C282 1.379 . S
C288 C285 1.363 . S
C288 N286 1.356 . S
C289 C283 1.363 . S
C289 C284 1.379 . S
C289 N287 1.356 . S
N290 C282 1.356 . S
N290 H296 0.984 . S
N290 H297 0.984 . S
N291 C284 1.356 . S
N291 H294 0.984 . S
N291 H295 0.985 . S
H292 N287 0.984 . S
H293 N287 0.985 . S
H294 N291 0.984 . S
H295 N291 0.985 . S
H296 N290 0.984 . S
H297 N290 0.984 . S
H298 N286 0.984 . S
H299 N286 0.985 . S
C300 C301 1.363 . S
C300 C306 1.379 . S
C300 N308 1.356 . S
C301 C300 1.363 . S
C301 C307 1.363 . S
C302 C303 1.363 . S
C302 C307 1.379 . S
C302 N309 1.356 . S
C303 C302 1.363 . S
C303 C306 1.363 . S
N304 C306 1.356 . S
N304 H316 0.984 . S
N304 H317 0.985 . S
N305 C307 1.356 . S
N305 H310 0.984 . S
N305 H311 0.985 . S
C306 C300 1.379 . S
C306 C303 1.363 . S
C306 N304 1.356 . S
C307 C301 1.363 . S
C307 C302 1.379 . S
C307 N305 1.356 . S
N308 C300 1.356 . S
N308 H314 0.984 . S
N308 H315 0.984 . S
N309 C302 1.356 . S
N309 H312 0.984 . S
N309 H313 0.985 . S
H310 N305 0.984 . S
H311 N305 0.985 . S
H312 N309 0.984 . S
H313 N309 0.985 . S
H314 N308 0.984 . S
H315 N308 0.984 . S
H316 N304 0.984 . S
H317 N304 0.985 . S
C318 C319 1.363 . S
C318 C324 1.379 . S
C318 N326 1.356 . S
C319 C318 1.363 . S
C319 C325 1.363 1_556 S
C320 C321 1.363 . S
C320 C325 1.379 . S
C320 N327 1.356 . S
C321 C320 1.363 . S
C321 C324 1.363 1_554 S
N322 C324 1.356 . S
N322 H334 0.984 . S
N322 H335 0.985 1_556 S
N323 C325 1.356 . S
N323 H328 0.984 1_554 S
N323 H329 0.985 . S
C324 C318 1.379 . S
C324 C321 1.363 1_556 S
C324 N322 1.356 . S
C325 C319 1.363 1_554 S
C325 C320 1.379 . S
C325 N323 1.356 . S
N326 C318 1.356 . S
N326 H332 0.984 . S
N326 H333 0.984 . S
N327 C320 1.356 . S
N327 H330 0.984 . S
N327 H331 0.985 . S
H328 N323 0.984 1_556 S
H329 N323 0.985 . S
H330 N327 0.984 . S
H331 N327 0.985 . S
H332 N326 0.984 . S
H333 N326 0.984 . S
H334 N322 0.984 . S
H335 N322 0.985 1_554 S
C336 C337 1.363 . S
C336 C342 1.379 . S
C336 N344 1.356 . S
C337 C336 1.363 . S
C337 C343 1.363 . S
C338 C339 1.363 . S
C338 C343 1.379 . S
C338 N345 1.356 . S
C339 C338 1.363 . S
C339 C342 1.363 . S
N340 C342 1.356 . S
N340 H352 0.984 . S
N340 H353 0.985 . S
N341 C343 1.356 . S
N341 H346 0.984 . S
N341 H347 0.985 . S
C342 C336 1.379 . S
C342 C339 1.363 . S
C342 N340 1.356 . S
C343 C337 1.363 . S
C343 C338 1.379 . S
C343 N341 1.356 . S
N344 C336 1.356 . S
N344 H350 0.984 . S
N344 H351 0.984 . S
N345 C338 1.356 . S
N345 H348 0.984 . S
N345 H349 0.985 . S
H346 N341 0.984 . S
H347 N341 0.985 . S
H348 N345 0.984 . S
H349 N345 0.985 . S
H350 N344 0.984 . S
H351 N344 0.984 . S
H352 N340 0.984 . S
H353 N340 0.985 . S
C354 C355 1.363 . S
C354 C360 1.379 . S
C354 N362 1.356 . S
C355 C354 1.363 . S
C355 C361 1.363 . S
C356 C357 1.363 . S
C356 C361 1.379 . S
C356 N363 1.356 . S
C357 C356 1.363 . S
C357 C360 1.363 . S
N358 C360 1.356 . S
N358 H370 0.984 . S
N358 H371 0.985 . S
N359 C361 1.356 . S
N359 H364 0.984 . S
N359 H365 0.985 . S
C360 C354 1.379 . S
C360 C357 1.363 . S
C360 N358 1.356 . S
C361 C355 1.363 . S
C361 C356 1.379 . S
C361 N359 1.356 . S
N362 C354 1.356 . S
N362 H368 0.984 . S
N362 H369 0.984 . S
N363 C356 1.356 . S
N363 H366 0.984 . S
N363 H367 0.985 . S
H364 N359 0.984 . S
H365 N359 0.985 . S
H366 N363 0.984 . S
H367 N363 0.985 . S
H368 N362 0.984 . S
H369 N362 0.984 . S
H370 N358 0.984 . S
H371 N358 0.985 . S
C372 C373 1.363 . S
C372 C378 1.379 . S
C372 N380 1.356 . S
C373 C372 1.363 . S
C373 C379 1.363 . S
C374 C375 1.363 . S
C374 C379 1.379 . S
C374 N381 1.356 . S
C375 C374 1.363 . S
C375 C378 1.363 . S
N376 C378 1.356 . S
N376 H388 0.984 . S
N376 H389 0.985 . S
N377 C379 1.356 . S
N377 H382 0.984 . S
N377 H383 0.985 . S
C378 C372 1.379 . S
C378 C375 1.363 . S
C378 N376 1.356 . S
C379 C373 1.363 . S
C379 C374 1.379 . S
C379 N377 1.356 . S
N380 C372 1.356 . S
N380 H386 0.984 . S
N380 H387 0.984 . S
N381 C374 1.356 . S
N381 H384 0.984 . S
N381 H385 0.985 . S
H382 N377 0.984 . S
H383 N377 0.985 . S
H384 N381 0.984 . S
H385 N381 0.985 . S
H386 N380 0.984 . S
H387 N380 0.984 . S
H388 N376 0.984 . S
H389 N376 0.985 . S
C390 C391 1.363 . S
C390 C396 1.379 . S
C390 N398 1.356 . S
C391 C390 1.363 . S
C391 C397 1.363 . S
C392 C393 1.363 . S
C392 C397 1.379 . S
C392 N399 1.356 . S
C393 C392 1.363 . S
C393 C396 1.363 . S
N394 C396 1.356 . S
N394 H406 0.984 . S
N394 H407 0.985 . S
N395 C397 1.356 . S
N395 H400 0.984 . S
N395 H401 0.985 . S
C396 C390 1.379 . S
C396 C393 1.363 . S
C396 N394 1.356 . S
C397 C391 1.363 . S
C397 C392 1.379 . S
C397 N395 1.356 . S
N398 C390 1.356 . S
N398 H404 0.984 . S
N398 H405 0.984 . S
N399 C392 1.356 . S
N399 H402 0.984 . S
N399 H403 0.985 . S
H400 N395 0.984 . S
H401 N395 0.985 . S
H402 N399 0.984 . S
H403 N399 0.985 . S
H404 N398 0.984 . S
H405 N398 0.984 . S
H406 N394 0.984 . S
H407 N394 0.985 . S
C408 C409 1.363 . S
C408 C414 1.379 . S
C408 N416 1.356 . S
C409 C408 1.363 . S
C409 C415 1.363 . S
C410 C411 1.363 . S
C410 C415 1.379 . S
C410 N417 1.356 . S
C411 C410 1.363 . S
C411 C414 1.363 . S
N412 C414 1.356 . S
N412 H424 0.984 . S
N412 H425 0.985 . S
N413 C415 1.356 . S
N413 H418 0.984 . S
N413 H419 0.985 . S
C414 C408 1.379 . S
C414 C411 1.363 . S
C414 N412 1.356 . S
C415 C409 1.363 . S
C415 C410 1.379 . S
C415 N413 1.356 . S
N416 C408 1.356 . S
N416 H422 0.984 . S
N416 H423 0.984 . S
N417 C410 1.356 . S
N417 H420 0.984 . S
N417 H421 0.985 . S
H418 N413 0.984 . S
H419 N413 0.985 . S
H420 N417 0.984 . S
H421 N417 0.985 . S
H422 N416 0.984 . S
H423 N416 0.984 . S
H424 N412 0.984 . S
H425 N412 0.985 . S
C426 C427 1.363 . S
C426 C432 1.379 . S
C426 N434 1.356 . S
C427 C426 1.363 . S
C427 C433 1.363 . S
C428 C429 1.363 . S
C428 C433 1.379 . S
C428 N435 1.356 . S
C429 C428 1.363 . S
C429 C432 1.363 . S
N430 C432 1.356 . S
N430 H442 0.984 . S
N430 H443 0.985 . S
N431 C433 1.356 . S
N431 H436 0.984 . S
N431 H437 0.985 . S
C432 C426 1.379 . S
C432 C429 1.363 . S
C432 N430 1.356 . S
C433 C427 1.363 . S
C433 C428 1.379 . S
C433 N431 1.356 . S
N434 C426 1.356 . S
N434 H440 0.984 . S
N434 H441 0.984 . S
N435 C428 1.356 . S
N435 H438 0.984 . S
N435 H439 0.985 . S
H436 N431 0.984 . S
H437 N431 0.985 . S
H438 N435 0.984 . S
H439 N435 0.985 . S
H440 N434 0.984 . S
H441 N434 0.984 . S
H442 N430 0.984 . S
H443 N430 0.985 . S
C444 C445 1.363 . S
C444 C450 1.379 . S
C444 N452 1.356 . S
C445 C444 1.363 . S
C445 C451 1.363 . S
C446 C447 1.363 . S
C446 C451 1.379 . S
C446 N453 1.356 . S
C447 C446 1.363 . S
C447 C450 1.363 . S
N448 C450 1.356 . S
N448 H460 0.984 . S
N448 H461 0.985 . S
N449 C451 1.356 . S
N449 H454 0.984 . S
N449 H455 0.985 . S
C450 C444 1.379 . S
C450 C447 1.363 . S
C450 N448 1.356 . S
C451 C445 1.363 . S
C451 C446 1.379 . S
C451 N449 1.356 . S
N452 C444 1.356 . S
N452 H458 0.984 . S
N452 H459 0.984 . S
N453 C446 1.356 . S
N453 H456 0.984 . S
N453 H457 0.985 . S
H454 N449 0.984 . S
H455 N449 0.985 . S
H456 N453 0.984 . S
H457 N453 0.985 . S
H458 N452 0.984 . S
H459 N452 0.984 . S
H460 N448 0.984 . S
H461 N448 0.985 . S
C462 C463 1.363 . S
C462 C468 1.379 . S
C462 N470 1.356 . S
C463 C462 1.363 . S
C463 C469 1.363 . S
C464 C465 1.363 . S
C464 C469 1.379 . S
C464 N471 1.356 . S
C465 C464 1.363 . S
C465 C468 1.363 . S
N466 C468 1.356 . S
N466 H478 0.984 . S
N466 H479 0.985 . S
N467 C469 1.356 . S
N467 H472 0.984 . S
N467 H473 0.985 . S
C468 C462 1.379 . S
C468 C465 1.363 . S
C468 N466 1.356 . S
C469 C463 1.363 . S
C469 C464 1.379 . S
C469 N467 1.356 . S
N470 C462 1.356 . S
N470 H476 0.984 . S
N470 H477 0.984 . S
N471 C464 1.356 . S
N471 H474 0.984 . S
N471 H475 0.985 . S
H472 N467 0.984 . S
H473 N467 0.985 . S
H474 N471 0.984 . S
H475 N471 0.985 . S
H476 N470 0.984 . S
H477 N470 0.984 . S
H478 N466 0.984 . S
H479 N466 0.985 . S
C480 C481 1.363 . S
C480 C486 1.379 . S
C480 N488 1.356 . S
C481 C480 1.363 . S
C481 C487 1.363 . S
C482 C483 1.363 . S
C482 C487 1.379 . S
C482 N489 1.356 1_554 S
C483 C482 1.363 . S
C483 C486 1.363 . S
N484 C486 1.356 . S
N484 H496 0.984 . S
N484 H497 0.985 . S
N485 C487 1.356 1_556 S
N485 H490 0.984 1_556 S
N485 H491 0.985 . S
C486 C480 1.379 . S
C486 C483 1.363 . S
C486 N484 1.356 . S
C487 C481 1.363 . S
C487 C482 1.379 . S
C487 N485 1.356 1_554 S
N488 C480 1.356 . S
N488 H494 0.984 . S
N488 H495 0.984 . S
N489 C482 1.356 1_556 S
N489 H492 0.984 1_556 S
N489 H493 0.985 . S
H490 N485 0.984 1_554 S
H491 N485 0.985 . S
H492 N489 0.984 1_554 S
H493 N489 0.985 . S
H494 N488 0.984 . S
H495 N488 0.984 . S
H496 N484 0.984 . S
H497 N484 0.985 . S
C498 C499 1.363 1_455 S
C498 C504 1.379 . S
C498 N506 1.356 . S
C499 C498 1.363 1_655 S
C499 C505 1.363 . S
C500 C501 1.363 1_655 S
C500 C505 1.379 . S
C500 N507 1.356 . S
C501 C500 1.363 1_455 S
C501 C504 1.363 . S
N502 C504 1.356 . S
N502 H514 0.984 . S
N502 H515 0.985 . S
N503 C505 1.356 . S
N503 H508 0.984 . S
N503 H509 0.985 . S
C504 C498 1.379 . S
C504 C501 1.363 . S
C504 N502 1.356 . S
C505 C499 1.363 . S
C505 C500 1.379 . S
C505 N503 1.356 . S
N506 C498 1.356 . S
N506 H512 0.984 . S
N506 H513 0.984 . S
N507 C500 1.356 . S
N507 H510 0.984 . S
N507 H511 0.985 . S
H508 N503 0.984 . S
H509 N503 0.985 . S
H510 N507 0.984 . S
H511 N507 0.985 . S
H512 N506 0.984 . S
H513 N506 0.984 . S
H514 N502 0.984 . S
H515 N502 0.985 . S
C516 C517 1.363 1_565 S
C516 C522 1.379 . S
C516 N524 1.356 . S
C517 C516 1.363 1_545 S
C517 C523 1.363 . S
C518 C519 1.363 1_545 S
C518 C523 1.379 . S
C518 N525 1.356 . S
C519 C518 1.363 1_565 S
C519 C522 1.363 . S
N520 C522 1.356 . S
N520 H532 0.984 . S
N520 H533 0.985 . S
N521 C523 1.356 . S
N521 H526 0.984 . S
N521 H527 0.985 . S
C522 C516 1.379 . S
C522 C519 1.363 . S
C522 N520 1.356 . S
C523 C517 1.363 . S
C523 C518 1.379 . S
C523 N521 1.356 . S
N524 C516 1.356 . S
N524 H530 0.984 . S
N524 H531 0.984 . S
N525 C518 1.356 . S
N525 H528 0.984 . S
N525 H529 0.985 . S
H526 N521 0.984 . S
H527 N521 0.985 . S
H528 N525 0.984 . S
H529 N525 0.985 . S
H530 N524 0.984 . S
H531 N524 0.984 . S
H532 N520 0.984 . S
H533 N520 0.985 . S
C534 C535 1.363 . S
C534 C540 1.379 . S
C534 N542 1.356 . S
C535 C534 1.363 . S
C535 C541 1.363 . S
C536 C537 1.363 . S
C536 C541 1.379 . S
C536 N543 1.356 . S
C537 C536 1.363 . S
C537 C540 1.363 . S
N538 C540 1.356 . S
N538 H550 0.984 . S
N538 H551 0.985 . S
N539 C541 1.356 . S
N539 H544 0.984 . S
N539 H545 0.985 . S
C540 C534 1.379 . S
C540 C537 1.363 . S
C540 N538 1.356 . S
C541 C535 1.363 . S
C541 C536 1.379 . S
C541 N539 1.356 . S
N542 C534 1.356 . S
N542 H548 0.984 . S
N542 H549 0.984 . S
N543 C536 1.356 . S
N543 H546 0.984 . S
N543 H547 0.985 . S
H544 N539 0.984 . S
H545 N539 0.985 . S
H546 N543 0.984 . S
H547 N543 0.985 . S
H548 N542 0.984 . S
H549 N542 0.984 . S
H550 N538 0.984 . S
H551 N538 0.985 . S
C552 C553 1.363 . S
C552 C558 1.379 . S
C552 N560 1.356 1_556 S
C553 C552 1.363 . S
C553 C559 1.363 1_455 S
C554 C555 1.363 . S
C554 C559 1.379 . S
C554 N561 1.356 . S
C555 C554 1.363 . S
C555 C558 1.363 1_655 S
N556 C558 1.356 1_554 S
N556 H568 0.984 . S
N556 H569 0.985 1_554 S
N557 C559 1.356 . S
N557 H562 0.984 . S
N557 H563 0.985 . S
C558 C552 1.379 . S
C558 C555 1.363 1_455 S
C558 N556 1.356 1_556 S
C559 C553 1.363 1_655 S
C559 C554 1.379 . S
C559 N557 1.356 . S
N560 C552 1.356 1_554 S
N560 H566 0.984 . S
N560 H567 0.984 1_554 S
N561 C554 1.356 . S
N561 H564 0.984 . S
N561 H565 0.985 . S
H562 N557 0.984 . S
H563 N557 0.985 . S
H564 N561 0.984 . S
H565 N561 0.985 . S
H566 N560 0.984 . S
H567 N560 0.984 1_556 S
H568 N556 0.984 . S
H569 N556 0.985 1_556 S
C570 C571 1.363 . S
C570 C576 1.379 . S
C570 N578 1.356 . S
C571 C570 1.363 . S
C571 C577 1.363 1_565 S
C572 C573 1.363 . S
C572 C577 1.379 . S
C572 N579 1.356 . S
C573 C572 1.363 . S
C573 C576 1.363 1_545 S
N574 C576 1.356 . S
N574 H586 0.984 . S
N574 H587 0.985 . S
N575 C577 1.356 . S
N575 H580 0.984 . S
N575 H581 0.985 . S
C576 C570 1.379 . S
C576 C573 1.363 1_565 S
C576 N574 1.356 . S
C577 C571 1.363 1_545 S
C577 C572 1.379 . S
C577 N575 1.356 . S
N578 C570 1.356 . S
N578 H584 0.984 . S
N578 H585 0.984 . S
N579 C572 1.356 . S
N579 H582 0.984 . S
N579 H583 0.985 . S
H580 N575 0.984 . S
H581 N575 0.985 . S
H582 N579 0.984 . S
H583 N579 0.985 . S
H584 N578 0.984 . S
H585 N578 0.984 . S
H586 N574 0.984 . S
H587 N574 0.985 . S
C157 C96 1.254 . S
C159 C5 1.254 . S
C175 C18 1.394 . S
C177 C104 1.385 . S
C193 C26 1.385 . S
C195 C122 1.394 . S
C211 C44 1.254 . S
C213 C135 1.254 . S
C229 C143 1.385 . S
C231 C57 1.394 . S
C247 C83 1.394 . S
C249 C65 1.385 . S
C265 C140 1.225 . S
C267 C10 1.225 . S
C283 C23 1.276 . S
C285 C151 1.269 . S
C301 C34 1.268 . S
C303 C88 1.276 . S
C319 C101 1.225 . S
C321 C49 1.225 . S
C337 C112 1.269 . S
C339 C62 1.276 . S
C355 C127 1.276 . S
C357 C73 1.268 . S
C373 C8 1.547 . S
C375 C114 1.552 . S
C391 C21 1.536 . S
C393 C125 1.536 . S
C409 C138 1.547 . S
C411 C36 1.552 . S
C427 C47 1.547 . S
C429 C153 1.552 . S
C445 C86 1.536 . S
C447 C60 1.536 . S
C463 C99 1.547 . S
C465 C75 1.552 . S
C481 C39 1.370 . S
C483 C0 1.370 . S
C499 C52 1.354 . S
C501 C13 1.354 . S
C517 C31 1.480 . S
C519 C70 1.480 . S
C535 C78 1.354 . S
C537 C117 1.354 . S
C553 C91 1.370 . S
C555 C130 1.370 . S
C571 C148 1.480 . S
C573 C109 1.480 . S
