# Generated by pormake.
# Topology lcy-e, (6)-cn, num edge types: 1
# Building blocks:
#     Node 0, Type 0, BuildingBlock: BETFAJ_clean_sbu_0, # of connection points: 6
#     Node 1, Type 0, BuildingBlock: BETFAJ_clean_sbu_0, # of connection points: 6
#     Node 2, Type 0, BuildingBlock: BETFAJ_clean_sbu_0, # of connection points: 6
#     Node 3, Type 0, BuildingBlock: BETFAJ_clean_sbu_0, # of connection points: 6
#     Node 4, Type 0, BuildingBlock: BETFAJ_clean_sbu_0, # of connection points: 6
#     Node 5, Type 0, BuildingBlock: BETFAJ_clean_sbu_0, # of connection points: 6
#     Node 6, Type 0, BuildingBlock: BETFAJ_clean_sbu_0, # of connection points: 6
#     Node 7, Type 0, BuildingBlock: BETFAJ_clean_sbu_0, # of connection points: 6
#     Node 8, Type 0, BuildingBlock: BETFAJ_clean_sbu_0, # of connection points: 6
#     Node 9, Type 0, BuildingBlock: BETFAJ_clean_sbu_0, # of connection points: 6
#     Node 10, Type 0, BuildingBlock: BETFAJ_clean_sbu_0, # of connection points: 6
#     Node 11, Type 0, BuildingBlock: BETFAJ_clean_sbu_0, # of connection points: 6
#     Edge 12, Type (0, 0), BuildingBlock: XIVTED_clean_linker_0, # of connection points: 2
#     Edge 13, Type (0, 0), BuildingBlock: XIVTED_clean_linker_0, # of connection points: 2
#     Edge 14, Type (0, 0), BuildingBlock: XIVTED_clean_linker_0, # of connection points: 2
#     Edge 15, Type (0, 0), BuildingBlock: XIVTED_clean_linker_0, # of connection points: 2
#     Edge 16, Type (0, 0), BuildingBlock: XIVTED_clean_linker_0, # of connection points: 2
#     Edge 17, Type (0, 0), BuildingBlock: XIVTED_clean_linker_0, # of connection points: 2
#     Edge 18, Type (0, 0), BuildingBlock: XIVTED_clean_linker_0, # of connection points: 2
#     Edge 19, Type (0, 0), BuildingBlock: XIVTED_clean_linker_0, # of connection points: 2
#     Edge 20, Type (0, 0), BuildingBlock: XIVTED_clean_linker_0, # of connection points: 2
#     Edge 21, Type (0, 0), BuildingBlock: XIVTED_clean_linker_0, # of connection points: 2
#     Edge 22, Type (0, 0), BuildingBlock: XIVTED_clean_linker_0, # of connection points: 2
#     Edge 23, Type (0, 0), BuildingBlock: XIVTED_clean_linker_0, # of connection points: 2
#     Edge 24, Type (0, 0), BuildingBlock: XIVTED_clean_linker_0, # of connection points: 2
#     Edge 25, Type (0, 0), BuildingBlock: XIVTED_clean_linker_0, # of connection points: 2
#     Edge 26, Type (0, 0), BuildingBlock: XIVTED_clean_linker_0, # of connection points: 2
#     Edge 27, Type (0, 0), BuildingBlock: XIVTED_clean_linker_0, # of connection points: 2
#     Edge 28, Type (0, 0), BuildingBlock: XIVTED_clean_linker_0, # of connection points: 2
#     Edge 29, Type (0, 0), BuildingBlock: XIVTED_clean_linker_0, # of connection points: 2
#     Edge 30, Type (0, 0), BuildingBlock: XIVTED_clean_linker_0, # of connection points: 2
#     Edge 31, Type (0, 0), BuildingBlock: XIVTED_clean_linker_0, # of connection points: 2
#     Edge 32, Type (0, 0), BuildingBlock: XIVTED_clean_linker_0, # of connection points: 2
#     Edge 33, Type (0, 0), BuildingBlock: XIVTED_clean_linker_0, # of connection points: 2
#     Edge 34, Type (0, 0), BuildingBlock: XIVTED_clean_linker_0, # of connection points: 2
#     Edge 35, Type (0, 0), BuildingBlock: XIVTED_clean_linker_0, # of connection points: 2
#     Edge 36, Type (0, 0), BuildingBlock: XIVTED_clean_linker_0, # of connection points: 2
#     Edge 37, Type (0, 0), BuildingBlock: XIVTED_clean_linker_0, # of connection points: 2
#     Edge 38, Type (0, 0), BuildingBlock: XIVTED_clean_linker_0, # of connection points: 2
#     Edge 39, Type (0, 0), BuildingBlock: XIVTED_clean_linker_0, # of connection points: 2
#     Edge 40, Type (0, 0), BuildingBlock: XIVTED_clean_linker_0, # of connection points: 2
#     Edge 41, Type (0, 0), BuildingBlock: XIVTED_clean_linker_0, # of connection points: 2
#     Edge 42, Type (0, 0), BuildingBlock: XIVTED_clean_linker_0, # of connection points: 2
#     Edge 43, Type (0, 0), BuildingBlock: XIVTED_clean_linker_0, # of connection points: 2
#     Edge 44, Type (0, 0), BuildingBlock: XIVTED_clean_linker_0, # of connection points: 2
#     Edge 45, Type (0, 0), BuildingBlock: XIVTED_clean_linker_0, # of connection points: 2
#     Edge 46, Type (0, 0), BuildingBlock: XIVTED_clean_linker_0, # of connection points: 2
#     Edge 47, Type (0, 0), BuildingBlock: XIVTED_clean_linker_0, # of connection points: 2
# Relax obj value: 0.202
# Max RMSD: 0.312
# Mean RMSD: 0.288
data_MOF--net-lcy-e--node1-BETFAJ_clean_sbu_0--edge1-XIVTED_clean_linker_0
_symmetry_space_group_name_H-M    P1
_symmetry_Int_Tables_number       1
_symmetry_cell_setting            triclinic
loop_
_symmetry_equiv_pos_as_xyz
'x, y, z'
_cell_length_a     45.922687
_cell_length_b     41.970142
_cell_length_c     45.891246
_cell_angle_alpha  89.412608
_cell_angle_beta   91.030315
_cell_angle_gamma 88.444212
loop_
_atom_site_label
_atom_site_type_symbol
_atom_site_fract_x
_atom_site_fract_y
_atom_site_fract_z
_atom_type_partial_charge
Sm0 Sm 0.14044 0.26586 0.47141 0.0
Sm1 Sm 0.16384 0.21588 0.51384 0.0
C2 C 0.12524 0.3145 0.4367 0.0
C3 C 0.13106 0.32052 0.40568 0.0
C4 C 0.15124 0.30087 0.3912 0.0
C5 C 0.16013 0.30876 0.36313 0.0
C6 C 0.14876 0.33627 0.34884 0.0
C7 C 0.12742 0.35503 0.36282 0.0
C8 C 0.11877 0.34731 0.39113 0.0
C9 C 0.11947 0.20546 0.46162 0.0
C10 C 0.1966 0.2227 0.45372 0.0
C11 C 0.17487 0.16713 0.54972 0.0
C12 C 0.15894 0.1446 0.56762 0.0
C13 C 0.12848 0.14663 0.56938 0.0
C14 C 0.11368 0.12419 0.58587 0.0
C15 C 0.12917 0.09942 0.6008 0.0
C16 C 0.15972 0.09768 0.59887 0.0
C17 C 0.17444 0.12009 0.58245 0.0
C18 C 0.1936 0.27254 0.51429 0.0
C19 C 0.10925 0.25954 0.53528 0.0
O20 O 0.14848 0.31393 0.4536 0.0
O21 O 0.10759 0.2914 0.44263 0.0
O22 O 0.1226 0.21837 0.48607 0.0
O23 O 0.12878 0.22411 0.44134 0.0
O24 O 0.18549 0.25203 0.45265 0.0
O25 O 0.18615 0.20151 0.47176 0.0
O26 O 0.17166 0.16414 0.52147 0.0
O27 O 0.1745 0.19684 0.55817 0.0
O28 O 0.16659 0.2695 0.51261 0.0
O29 O 0.20646 0.24482 0.51748 0.0
O30 O 0.12347 0.23201 0.53817 0.0
O31 O 0.11311 0.27856 0.51241 0.0
H32 H 0.16093 0.28001 0.40203 0.0
H33 H 0.17639 0.2937 0.35283 0.0
H34 H 0.11845 0.37651 0.35242 0.0
H35 H 0.10328 0.36282 0.402 0.0
H36 H 0.1162 0.16542 0.55791 0.0
H37 H 0.09019 0.12638 0.58711 0.0
H38 H 0.17229 0.07863 0.60962 0.0
H39 H 0.19795 0.11807 0.58108 0.0
Sm40 Sm 0.9881 0.87259 0.72816 0.0
Sm41 Sm 0.04075 0.87441 0.77187 0.0
C42 C 0.9392 0.87456 0.69652 0.0
C43 C 0.93067 0.88095 0.66572 0.0
C44 C 0.90899 0.9043 0.65932 0.0
C45 C 0.90133 0.91203 0.63042 0.0
C46 C 0.91506 0.89638 0.60723 0.0
C47 C 0.93667 0.87281 0.61366 0.0
C48 C 0.94454 0.86528 0.64262 0.0
C49 C 0.0361 0.8363 0.71344 0.0
C50 C 0.03753 0.92421 0.71495 0.0
C51 C 0.09396 0.87124 0.7955 0.0
C52 C 0.11645 0.85217 0.81201 0.0
C53 C 0.1441 0.84747 0.79991 0.0
C54 C 0.16725 0.83404 0.81656 0.0
C55 C 0.16329 0.82515 0.84583 0.0
C56 C 0.13516 0.82832 0.85742 0.0
C57 C 0.112 0.84173 0.84073 0.0
C58 C 0.99297 0.91134 0.78705 0.0
C59 C 0.98937 0.83004 0.78959 0.0
O60 O 0.94887 0.89902 0.71078 0.0
O61 O 0.95382 0.84801 0.70272 0.0
O62 O 0.02615 0.83857 0.73878 0.0
O63 O 0.01998 0.85239 0.69473 0.0
O64 O 0.01082 0.91546 0.70849 0.0
O65 O 0.05307 0.91086 0.73654 0.0
O66 O 0.0883 0.86347 0.76846 0.0
O67 O 0.071 0.88195 0.80928 0.0
O68 O 1.00229 0.90739 0.76164 0.0
O69 O 0.01099 0.89836 0.80617 0.0
O70 O 0.01806 0.83107 0.7898 0.0
O71 O 0.97313 0.84662 0.77028 0.0
H72 H 0.89804 0.91676 0.67675 0.0
H73 H 0.8843 0.92994 0.62625 0.0
H74 H 0.94777 0.86046 0.59628 0.0
H75 H 0.96159 0.84743 0.64689 0.0
H76 H 0.14818 0.85551 0.77787 0.0
H77 H 0.18859 0.83226 0.80696 0.0
H78 H 0.13118 0.82122 0.87972 0.0
H79 H 0.09093 0.84492 0.85069 0.0
Sm80 Sm 0.38128 0.77529 0.02083 0.0
Sm81 Sm 0.3941 0.73084 0.96592 0.0
C82 C 0.38247 0.80381 0.07198 0.0
C83 C 0.40229 0.82291 0.08974 0.0
C84 C 0.4287 0.83333 0.0786 0.0
C85 C 0.44479 0.85607 0.09362 0.0
C86 C 0.43465 0.86884 0.11996 0.0
C87 C 0.4087 0.85722 0.13147 0.0
C88 C 0.39274 0.8345 0.1165 0.0
C89 C 0.33736 0.78492 0.9789 0.0
C90 C 0.42934 0.79846 0.97293 0.0
C91 C 0.40123 0.70756 0.91295 0.0
C92 C 0.38745 0.69561 0.88603 0.0
C93 C 0.36727 0.67104 0.88622 0.0
C94 C 0.3568 0.65859 0.85989 0.0
C95 C 0.36647 0.67039 0.83299 0.0
C96 C 0.38594 0.69566 0.83304 0.0
C97 C 0.39631 0.70805 0.85924 0.0
C98 C 0.42675 0.71802 0.01614 0.0
C99 C 0.348 0.707 0.01204 0.0
O100 O 0.38875 0.77333 0.06904 0.0
O101 O 0.37312 0.81765 0.04777 0.0
O102 O 0.35924 0.76634 0.97726 0.0
O103 O 0.33858 0.79965 1.00349 0.0
O104 O 0.41781 0.80345 0.99881 0.0
O105 O 0.42262 0.77381 0.95669 0.0
O106 O 0.39809 0.73803 0.91818 0.0
O107 O 0.40147 0.68968 0.93655 0.0
O108 O 0.41917 0.74511 1.00625 0.0
O109 O 0.41925 0.69617 0.99781 0.0
O110 O 0.35299 0.70911 0.9838 0.0
O111 O 0.35967 0.72696 0.03107 0.0
H112 H 0.43629 0.82481 0.05779 0.0
H113 H 0.46483 0.86412 0.08429 0.0
H114 H 0.39988 0.86676 0.15139 0.0
H115 H 0.37218 0.82707 0.1252 0.0
H116 H 0.36008 0.66102 0.90663 0.0
H117 H 0.34194 0.63901 0.86062 0.0
H118 H 0.39345 0.7057 0.81277 0.0
H119 H 0.41184 0.72702 0.85856 0.0
Sm120 Sm 0.54364 0.12758 0.23327 0.0
Sm121 Sm 0.49801 0.1103 0.278 0.0
C122 C 0.58783 0.1287 0.19683 0.0
C123 C 0.59517 0.11759 0.16746 0.0
C124 C 0.61852 0.13108 0.15303 0.0
C125 C 0.62671 0.12005 0.12566 0.0
C126 C 0.61168 0.09524 0.1121 0.0
C127 C 0.58811 0.08186 0.12663 0.0
C128 C 0.57988 0.09301 0.15405 0.0
C129 C 0.49372 0.16419 0.22859 0.0
C130 C 0.50342 0.06352 0.223 0.0
C131 C 0.45334 0.1061 0.3136 0.0
C132 C 0.42985 0.12285 0.32914 0.0
C133 C 0.42248 0.15512 0.3239 0.0
C134 C 0.39853 0.1694 0.33784 0.0
C135 C 0.38162 0.15156 0.35714 0.0
C136 C 0.38938 0.11925 0.36214 0.0
C137 C 0.41323 0.10517 0.34839 0.0
C138 C 0.55228 0.07995 0.28562 0.0
C139 C 0.53898 0.16919 0.29196 0.0
O140 O 0.58479 0.10653 0.21668 0.0
O141 O 0.56833 0.15188 0.19851 0.0
O142 O 0.49417 0.13431 0.23335 0.0
O143 O 0.51961 0.17478 0.22444 0.0
O144 O 0.52527 0.08088 0.21416 0.0
O145 O 0.48829 0.07097 0.24611 0.0
O146 O 0.45084 0.10499 0.28521 0.0
O147 O 0.4802 0.10921 0.3229 0.0
O148 O 0.54701 0.10829 0.27838 0.0
O149 O 0.52806 0.06625 0.29171 0.0
O150 O 0.51154 0.16062 0.29152 0.0
O151 O 0.55791 0.15568 0.27404 0.0
H152 H 0.63069 0.14991 0.16313 0.0
H153 H 0.64525 0.13056 0.11538 0.0
H154 H 0.57591 0.06295 0.11672 0.0
H155 H 0.56175 0.0823 0.16486 0.0
H156 H 0.43502 0.16908 0.30889 0.0
H157 H 0.39334 0.19435 0.33359 0.0
H158 H 0.37659 0.10447 0.37622 0.0
H159 H 0.41835 0.08012 0.35238 0.0
Sm160 Sm 0.63157 0.23305 0.55227 0.0
Sm161 Sm 0.64469 0.29109 0.51622 0.0
C162 C 0.63229 0.18126 0.58595 0.0
C163 C 0.6439 0.17222 0.6152 0.0
C164 C 0.67133 0.18217 0.62503 0.0
C165 C 0.68203 0.17309 0.65273 0.0
C166 C 0.66542 0.15413 0.67127 0.0
C167 C 0.63774 0.14475 0.66152 0.0
C168 C 0.62714 0.15367 0.63375 0.0
C169 C 0.59039 0.28086 0.55757 0.0
C170 C 0.68059 0.2837 0.57603 0.0
C171 C 0.64706 0.34468 0.48499 0.0
C172 C 0.63024 0.36976 0.46896 0.0
C173 C 0.60094 0.36624 0.46074 0.0
C174 C 0.5858 0.39088 0.4455 0.0
C175 C 0.59971 0.41942 0.43835 0.0
C176 C 0.629 0.42271 0.447 0.0
C177 C 0.64404 0.39816 0.46213 0.0
C178 C 0.68124 0.23787 0.50858 0.0
C179 C 0.59924 0.2413 0.4898 0.0
O180 O 0.65132 0.18615 0.56562 0.0
O181 O 0.61066 0.20213 0.58512 0.0
O182 O 0.61761 0.28554 0.55717 0.0
O183 O 0.58488 0.25085 0.55542 0.0
O184 O 0.6711 0.25428 0.57702 0.0
O185 O 0.67072 0.30438 0.5564 0.0
O186 O 0.64443 0.34394 0.51326 0.0
O187 O 0.64891 0.31629 0.47359 0.0
O188 O 0.65424 0.23883 0.51059 0.0
O189 O 0.69098 0.26663 0.50931 0.0
O190 O 0.60327 0.27202 0.49383 0.0
O191 O 0.61184 0.21979 0.5076 0.0
H192 H 0.68457 0.19683 0.61128 0.0
H193 H 0.70329 0.18097 0.65967 0.0
H194 H 0.62455 0.12981 0.67507 0.0
H195 H 0.60589 0.14584 0.62666 0.0
H196 H 0.58987 0.34453 0.46604 0.0
H197 H 0.56319 0.38762 0.4394 0.0
H198 H 0.64062 0.44398 0.44146 0.0
H199 H 0.66666 0.4013 0.46835 0.0
Sm200 Sm 0.98673 0.37862 0.72955 0.0
Sm201 Sm 0.02918 0.36623 0.77993 0.0
C202 C 0.95594 0.38561 0.6805 0.0
C203 C 0.92604 0.37726 0.67158 0.0
C204 C 0.92198 0.35656 0.64811 0.0
C205 C 0.89425 0.34572 0.64105 0.0
C206 C 0.86993 0.35559 0.65717 0.0
C207 C 0.87389 0.37692 0.68024 0.0
C208 C 0.9017 0.38751 0.68751 0.0
C209 C 0.97237 0.41 0.77987 0.0
C210 C 0.97019 0.32262 0.77459 0.0
C211 C 0.05512 0.35846 0.83166 0.0
C212 C 0.06925 0.37512 0.85602 0.0
C213 C 0.0571 0.40313 0.86791 0.0
C214 C 0.06924 0.41606 0.89329 0.0
C215 C 0.09358 0.40109 0.9072 0.0
C216 C 0.10635 0.37392 0.89438 0.0
C217 C 0.09428 0.36108 0.86913 0.0
C218 C 0.0428 0.33407 0.72947 0.0
C219 C 0.04762 0.41822 0.73527 0.0
O220 O 0.97375 0.36136 0.68579 0.0
O221 O 0.95886 0.40856 0.69936 0.0
O222 O 0.99779 0.40745 0.76991 0.0
O223 O 0.95366 0.3963 0.76297 0.0
O224 O 0.96488 0.33448 0.74824 0.0
O225 O 0.99186 0.33272 0.79104 0.0
O226 O 0.02696 0.36287 0.82798 0.0
O227 O 0.06914 0.35624 0.80717 0.0
O228 O 0.01776 0.33811 0.73967 0.0
O229 O 0.06235 0.34476 0.74731 0.0
O230 O 0.0463 0.41331 0.76355 0.0
O231 O 0.02936 0.40413 0.71718 0.0
H232 H 0.94041 0.34824 0.63559 0.0
H233 H 0.89182 0.32965 0.6229 0.0
H234 H 0.8556 0.38478 0.69316 0.0
H235 H 0.90416 0.40317 0.70595 0.0
H236 H 0.03777 0.41445 0.85813 0.0
H237 H 0.05889 0.43697 0.90264 0.0
H238 H 0.12546 0.36219 0.90421 0.0
H239 H 0.10404 0.33955 0.86028 0.0
Sm240 Sm 0.88658 0.75945 0.04467 0.0
Sm241 Sm 0.8785 0.69661 0.01194 0.0
C242 C 0.88597 0.81186 0.07624 0.0
C243 C 0.86974 0.82737 0.09979 0.0
C244 C 0.87231 0.86019 0.1038 0.0
C245 C 0.86129 0.87466 0.12873 0.0
C246 C 0.84758 0.85648 0.1502 0.0
C247 C 0.84353 0.82385 0.14524 0.0
C248 C 0.85457 0.80939 0.12024 0.0
C249 C 0.93386 0.71777 0.0465 0.0
C250 C 0.84337 0.70553 0.07268 0.0
C251 C 0.88075 0.63705 0.99332 0.0
C252 C 0.88868 0.61684 0.96846 0.0
C253 C 0.91122 0.62486 0.94968 0.0
C254 C 0.92046 0.60347 0.92826 0.0
C255 C 0.90728 0.57374 0.92522 0.0
C256 C 0.88422 0.56629 0.94368 0.0
C257 C 0.87506 0.58763 0.96506 0.0
C258 C 0.84196 0.74688 0.99419 0.0
C259 C 0.91226 0.7528 0.97968 0.0
O260 O 0.8734 0.81059 0.05042 0.0
O261 O 0.9006 0.78572 0.08358 0.0
O262 O 0.90772 0.71011 0.04967 0.0
O263 O 0.93571 0.74816 0.04213 0.0
O264 O 0.85315 0.73488 0.0742 0.0
O265 O 0.85113 0.68592 0.05177 0.0
O266 O 0.90223 0.65053 1.00722 0.0
O267 O 0.85723 0.65532 0.99085 0.0
O268 O 0.84916 0.73944 0.01997 0.0
O269 O 0.85309 0.72628 0.9762 0.0
O270 O 0.91252 0.7217 0.98456 0.0
O271 O 0.89923 0.77302 0.99762 0.0
H272 H 0.88392 0.87444 0.08823 0.0
H273 H 0.86425 0.89995 0.1316 0.0
H274 H 0.8332 0.80914 0.16137 0.0
H275 H 0.85241 0.78395 0.11755 0.0
H276 H 0.92207 0.64733 0.95195 0.0
H277 H 0.93799 0.61016 0.91416 0.0
H278 H 0.8738 0.54351 0.94228 0.0
H279 H 0.85782 0.58089 0.97952 0.0
Sm280 Sm 0.53744 0.61517 0.23799 0.0
Sm281 Sm 0.49238 0.63971 0.2786 0.0
C282 C 0.57664 0.60879 0.19653 0.0
C283 C 0.60601 0.62015 0.18934 0.0
C284 C 0.61028 0.65177 0.18022 0.0
C285 C 0.63786 0.66152 0.17184 0.0
C286 C 0.66185 0.6399 0.17236 0.0
C287 C 0.65761 0.60848 0.18212 0.0
C288 C 0.63003 0.59871 0.19034 0.0
C289 C 0.53693 0.58 0.28835 0.0
C290 C 0.55301 0.67429 0.28259 0.0
C291 C 0.45112 0.6488 0.31775 0.0
C292 C 0.44154 0.63508 0.34571 0.0
C293 C 0.44063 0.6544 0.37045 0.0
C294 C 0.43019 0.64269 0.39678 0.0
C295 C 0.42012 0.61138 0.39896 0.0
C296 C 0.42167 0.59178 0.3743 0.0
C297 C 0.43228 0.60348 0.34795 0.0
C298 C 0.48985 0.66715 0.22284 0.0
C299 C 0.47806 0.57703 0.24274 0.0
O300 O 0.55487 0.62958 0.19518 0.0
O301 O 0.57491 0.58886 0.21849 0.0
O302 O 0.53427 0.61026 0.28758 0.0
O303 O 0.54135 0.56818 0.26274 0.0
O304 O 0.55876 0.66046 0.25746 0.0
O305 O 0.5302 0.66645 0.29757 0.0
O306 O 0.47564 0.66384 0.31818 0.0
O307 O 0.44763 0.6319 0.29427 0.0
O308 O 0.49401 0.63851 0.22956 0.0
O309 O 0.48528 0.68334 0.2463 0.0
O310 O 0.47802 0.58908 0.26909 0.0
O311 O 0.49717 0.58672 0.22348 0.0
H312 H 0.59224 0.66893 0.17903 0.0
H313 H 0.64014 0.68576 0.16411 0.0
H314 H 0.6756 0.59127 0.18329 0.0
H315 H 0.62743 0.57419 0.19719 0.0
H316 H 0.44769 0.67881 0.36934 0.0
H317 H 0.42988 0.6583 0.41542 0.0
H318 H 0.41387 0.56767 0.37506 0.0
H319 H 0.43274 0.58793 0.32927 0.0
Sm320 Sm 0.22635 0.50451 0.14317 0.0
Sm321 Sm 0.26078 0.44765 0.12073 0.0
C322 C 0.19306 0.55621 0.15072 0.0
C323 C 0.16604 0.57013 0.13738 0.0
C324 C 0.16211 0.57244 0.10697 0.0
C325 C 0.13613 0.58535 0.09489 0.0
C326 C 0.11345 0.59583 0.11296 0.0
C327 C 0.11736 0.59315 0.14335 0.0
C328 C 0.14343 0.58053 0.15542 0.0
C329 C 0.22444 0.45173 0.17852 0.0
C330 C 0.19934 0.46156 0.0893 0.0
C331 C 0.29045 0.39323 0.11288 0.0
C332 C 0.3082 0.36916 0.12917 0.0
C333 C 0.31685 0.37389 0.15824 0.0
C334 C 0.33326 0.35022 0.17339 0.0
C335 C 0.34117 0.32139 0.15974 0.0
C336 C 0.33216 0.31684 0.13065 0.0
C337 C 0.31584 0.34049 0.11556 0.0
C338 C 0.26686 0.50409 0.08957 0.0
C339 C 0.29051 0.49141 0.17084 0.0
O340 O 0.2165 0.55593 0.13487 0.0
O341 O 0.19022 0.52986 0.16569 0.0
O342 O 0.2221 0.45116 0.15096 0.0
O343 O 0.22723 0.4805 0.18796 0.0
O344 O 0.19974 0.48974 0.1019 0.0
O345 O 0.21897 0.43918 0.09568 0.0
O346 O 0.26282 0.39483 0.11908 0.0
O347 O 0.30159 0.42128 0.10908 0.0
O348 O 0.2662 0.50055 0.11662 0.0
O349 O 0.26574 0.47647 0.07705 0.0
O350 O 0.28769 0.46208 0.16115 0.0
O351 O 0.271 0.51428 0.16422 0.0
H352 H 0.17905 0.56419 0.09251 0.0
H353 H 0.13365 0.58683 0.07139 0.0
H354 H 0.10044 0.60134 0.15785 0.0
H355 H 0.14594 0.57887 0.17891 0.0
H356 H 0.31088 0.3958 0.16918 0.0
H357 H 0.3396 0.35442 0.19584 0.0
H358 H 0.33822 0.29524 0.11928 0.0
H359 H 0.30923 0.33641 0.09314 0.0
Sm360 Sm 0.7313 0.9734 0.87787 0.0
Sm361 Sm 0.77101 0.02534 0.89927 0.0
C362 C 0.69666 0.92396 0.87327 0.0
C363 C 0.66808 0.91462 0.88416 0.0
C364 C 0.65607 0.8861 0.8748 0.0
C365 C 0.62897 0.8768 0.88488 0.0
C366 C 0.61329 0.89588 0.9046 0.0
C367 C 0.62557 0.92444 0.91409 0.0
C368 C 0.65268 0.93376 0.9039 0.0
C369 C 0.7286 0.02666 0.84336 0.0
C370 C 0.7106 0.02122 0.93194 0.0
C371 C 0.80689 0.07346 0.90539 0.0
C372 C 0.82385 0.09605 0.888 0.0
C373 C 0.81052 0.11616 0.86665 0.0
C374 C 0.82658 0.13948 0.85256 0.0
C375 C 0.85628 0.14315 0.85948 0.0
C376 C 0.86973 0.12211 0.88003 0.0
C377 C 0.85366 0.09894 0.89418 0.0
C378 C 0.7771 0.96669 0.92788 0.0
C379 C 0.79297 0.98137 0.8466 0.0
O380 O 0.71772 0.9256 0.89274 0.0
O381 O 0.69653 0.94751 0.85438 0.0
O382 O 0.7296 0.02731 0.87102 0.0
O383 O 0.72751 0.99785 0.8335 0.0
O384 O 0.70731 0.99373 0.9185 0.0
O385 O 0.73233 0.03982 0.92623 0.0
O386 O 0.7785 0.07692 0.90447 0.0
O387 O 0.81577 0.0436 0.90599 0.0
O388 O 0.77391 0.97198 0.90122 0.0
O389 O 0.77853 0.99358 0.94159 0.0
O390 O 0.78986 0.01115 0.85512 0.0
O391 O 0.77464 0.95955 0.8555 0.0
H392 H 0.66768 0.87093 0.85969 0.0
H393 H 0.62047 0.85442 0.87746 0.0
H394 H 0.61403 0.93985 0.92902 0.0
H395 H 0.66156 0.95593 0.91135 0.0
H396 H 0.78755 0.11444 0.86133 0.0
H397 H 0.81544 0.15534 0.83702 0.0
H398 H 0.89268 0.12374 0.88548 0.0
H399 H 0.86445 0.08367 0.91046 0.0
Sm400 Sm 0.75556 0.97132 0.39781 0.0
Sm401 Sm 0.80938 0.01798 0.38351 0.0
C402 C 0.70508 0.94285 0.3933 0.0
C403 C 0.69419 0.91173 0.38355 0.0
C404 C 0.70069 0.8999 0.35576 0.0
C405 C 0.68801 0.87209 0.3456 0.0
C406 C 0.66867 0.85522 0.36304 0.0
C407 C 0.66314 0.86646 0.39133 0.0
C408 C 0.67563 0.89448 0.40137 0.0
C409 C 0.80645 0.9491 0.42525 0.0
C410 C 0.79827 0.95721 0.34161 0.0
C411 C 0.85842 0.04975 0.38078 0.0
C412 C 0.8855 0.0604 0.3954 0.0
C413 C 0.88557 0.0863 0.41461 0.0
C414 C 0.91199 0.09848 0.42486 0.0
C415 C 0.93883 0.08521 0.41586 0.0
C416 C 0.93859 0.05865 0.39748 0.0
C417 C 0.91231 0.04647 0.38736 0.0
C418 C 0.7563 0.0305 0.35544 0.0
C419 C 0.76837 0.03341 0.43939 0.0
O420 O 0.71549 0.9612 0.37291 0.0
O421 O 0.72007 0.94359 0.41795 0.0
O422 O 0.80319 0.97301 0.40865 0.0
O423 O 0.78178 0.93483 0.42697 0.0
O424 O 0.77263 0.95333 0.35367 0.0
O425 O 0.81749 0.97735 0.35174 0.0
O426 O 0.85662 0.01931 0.37522 0.0
O427 O 0.83326 0.06346 0.38689 0.0
O428 O 0.76077 0.0209 0.38103 0.0
O429 O 0.78101 0.03663 0.34341 0.0
O430 O 0.79513 0.03398 0.42903 0.0
O431 O 0.74846 0.01351 0.4294 0.0
H432 H 0.71501 0.91255 0.34144 0.0
H433 H 0.69263 0.86453 0.32364 0.0
H434 H 0.6489 0.85381 0.4057 0.0
H435 H 0.67035 0.903 0.4229 0.0
H436 H 0.86531 0.09778 0.42102 0.0
H437 H 0.91139 0.1191 0.43884 0.0
H438 H 0.9588 0.04753 0.39046 0.0
H439 H 0.91303 0.02668 0.37238 0.0
Sm440 Sm 0.30105 0.48988 0.63145 0.0
Sm441 Sm 0.25792 0.54088 0.61086 0.0
C442 C 0.33475 0.44031 0.64695 0.0
C443 C 0.36603 0.43209 0.645 0.0
C444 C 0.38255 0.44411 0.62208 0.0
C445 C 0.41101 0.43263 0.61781 0.0
C446 C 0.42353 0.40908 0.63651 0.0
C447 C 0.40757 0.3989 0.66069 0.0
C448 C 0.37902 0.41019 0.66478 0.0
C449 C 0.31111 0.54946 0.65435 0.0
C450 C 0.31841 0.53428 0.57758 0.0
C451 C 0.22303 0.59118 0.60141 0.0
C452 C 0.20649 0.61644 0.61645 0.0
C453 C 0.18723 0.60977 0.63902 0.0
C454 C 0.17082 0.63448 0.65163 0.0
C455 C 0.17347 0.66615 0.64184 0.0
C456 C 0.1935 0.67267 0.6199 0.0
C457 C 0.20972 0.64806 0.60729 0.0
C458 C 0.25726 0.48516 0.57871 0.0
C459 C 0.23707 0.49514 0.66263 0.0
O460 O 0.32059 0.4426 0.62198 0.0
O461 O 0.32724 0.46267 0.66526 0.0
O462 O 0.2866 0.53703 0.65143 0.0
O463 O 0.33123 0.53072 0.6441 0.0
O464 O 0.31951 0.50445 0.58694 0.0
O465 O 0.3001 0.55509 0.58903 0.0
O466 O 0.25145 0.59274 0.60289 0.0
O467 O 0.21363 0.562 0.60284 0.0
O468 O 0.25955 0.48746 0.60577 0.0
O469 O 0.25322 0.51322 0.56707 0.0
O470 O 0.23405 0.52392 0.6511 0.0
O471 O 0.2596 0.4761 0.65652 0.0
H472 H 0.373 0.4613 0.60666 0.0
H473 H 0.4225 0.44087 0.59888 0.0
H474 H 0.41677 0.38127 0.67587 0.0
H475 H 0.36673 0.40091 0.68277 0.0
H476 H 0.18451 0.58552 0.6466 0.0
H477 H 0.15547 0.62866 0.66837 0.0
H478 H 0.19651 0.69684 0.61226 0.0
H479 H 0.22461 0.65373 0.59005 0.0
H480 H 0.24827 0.28442 0.53624 0.0
H481 H 0.23105 0.47425 0.52542 0.0
H482 H 0.16953 0.33143 0.5034 0.0
H483 H 0.27165 0.42608 0.59963 0.0
H484 H 0.21882 0.42193 0.50526 0.0
H485 H 0.26781 0.33695 0.54796 0.0
C486 C 0.23536 0.30576 0.53098 0.0
C487 C 0.20727 0.30364 0.51879 0.0
C488 C 0.23089 0.42301 0.52571 0.0
C489 C 0.22959 0.36337 0.5315 0.0
C490 C 0.23793 0.45273 0.53713 0.0
C491 C 0.25248 0.45442 0.56417 0.0
C492 C 0.23916 0.395 0.54114 0.0
C493 C 0.26069 0.42583 0.57861 0.0
C494 C 0.24646 0.3356 0.53769 0.0
C495 C 0.19136 0.33202 0.51254 0.0
N496 N 0.25399 0.3973 0.56691 0.0
N497 N 0.20274 0.36072 0.51891 0.0
H498 H 0.80832 0.92429 0.82093 0.0
H499 H 0.97745 0.95417 0.82865 0.0
H500 H 0.84162 0.01667 0.84209 0.0
H501 H 0.94115 0.89421 0.76258 0.0
H502 H 0.92773 0.97245 0.84075 0.0
H503 H 0.85726 0.90778 0.80482 0.0
C504 C 0.82572 0.94118 0.82183 0.0
C505 C 0.82077 0.97191 0.83277 0.0
C506 C 0.93081 0.95547 0.82338 0.0
C507 C 0.87667 0.95291 0.81544 0.0
C508 C 0.95905 0.94506 0.81655 0.0
C509 C 0.9634 0.92327 0.79403 0.0
C510 C 0.90684 0.94311 0.80821 0.0
C511 C 0.93887 0.91179 0.77929 0.0
C512 C 0.85358 0.93175 0.81275 0.0
C513 C 0.84425 0.99278 0.83368 0.0
N514 N 0.9116 0.92156 0.78678 0.0
N515 N 0.87122 0.98275 0.82556 0.0
H516 H 0.33165 0.69345 0.06805 0.0
H517 H 0.27778 0.51769 0.03164 0.0
H518 H 0.32689 0.65709 0.98047 0.0
H519 H 0.27422 0.56039 0.11664 0.0
H520 H 0.29422 0.56873 0.0116 0.0
H521 H 0.30882 0.64519 0.08562 0.0
C522 C 0.32556 0.67551 0.05245 0.0
C523 C 0.33134 0.67945 0.02273 0.0
C524 C 0.28959 0.56691 0.0346 0.0
C525 C 0.30541 0.62366 0.0428 0.0
C526 C 0.28021 0.53781 0.04599 0.0
C527 C 0.27473 0.53474 0.07584 0.0
C528 C 0.29358 0.59294 0.05328 0.0
C529 C 0.27822 0.56158 0.09349 0.0
C530 C 0.31255 0.64784 0.0625 0.0
C531 C 0.32292 0.6552 1.00359 0.0
N532 N 0.28754 0.58935 0.08202 0.0
N533 N 0.31064 0.62828 0.01396 0.0
H534 H 0.56984 0.02751 0.31905 0.0
H535 H 0.74057 0.05145 0.30005 0.0
H536 H 0.60291 0.10638 0.26988 0.0
H537 H 0.70459 0.0221 0.38193 0.0
H538 H 0.69058 0.06011 0.28044 0.0
H539 H 0.62029 0.01273 0.33423 0.0
C540 C 0.58766 0.04128 0.31099 0.0
C541 C 0.5822 0.06803 0.29297 0.0
C542 C 0.69382 0.05138 0.30258 0.0
C543 C 0.63955 0.0511 0.30975 0.0
C544 C 0.72224 0.04651 0.31375 0.0
C545 C 0.72673 0.03563 0.3425 0.0
C546 C 0.6699 0.0447 0.32016 0.0
C547 C 0.70216 0.02987 0.35944 0.0
C548 C 0.61633 0.03296 0.31972 0.0
C549 C 0.60611 0.08529 0.28339 0.0
N550 N 0.67485 0.0342 0.34797 0.0
N551 N 0.6337 0.07649 0.29177 0.0
H552 H 0.74027 0.22735 0.49823 0.0
H553 H 0.71595 0.0422 0.46634 0.0
H554 H 0.6591 0.17907 0.50704 0.0
H555 H 0.7987 0.08661 0.45448 0.0
H556 H 0.69723 0.09123 0.48795 0.0
H557 H 0.76435 0.17556 0.48735 0.0
C558 C 0.72763 0.20595 0.49814 0.0
C559 C 0.69764 0.20758 0.50347 0.0
C560 C 0.71962 0.09021 0.48094 0.0
C561 C 0.7248 0.14859 0.4913 0.0
C562 C 0.73039 0.06203 0.46873 0.0
C563 C 0.75886 0.06021 0.45824 0.0
C564 C 0.73728 0.11707 0.48246 0.0
C565 C 0.77652 0.08685 0.4621 0.0
C566 C 0.74132 0.17643 0.49199 0.0
C567 C 0.68225 0.17911 0.5031 0.0
N568 N 0.76533 0.11431 0.47348 0.0
N569 N 0.69591 0.15102 0.49705 0.0
H570 H 0.07889 0.46573 0.76021 0.0
H571 H 0.21748 0.43433 0.66294 0.0
H572 H 0.07671 0.40409 0.68562 0.0
H573 H 0.19858 0.52811 0.6965 0.0
H574 H 0.17028 0.41688 0.68059 0.0
H575 H 0.1266 0.48444 0.7449 0.0
C576 C 0.08825 0.45654 0.74039 0.0
C577 C 0.0737 0.43366 0.72393 0.0
C578 C 0.17671 0.44116 0.68438 0.0
C579 C 0.12856 0.4538 0.70716 0.0
C580 C 0.20377 0.45098 0.67472 0.0
C581 C 0.21195 0.48266 0.6784 0.0
C582 C 0.15806 0.46298 0.69834 0.0
C583 C 0.19306 0.50346 0.6933 0.0
C584 C 0.11546 0.46706 0.7318 0.0
C585 C 0.08696 0.42215 0.69865 0.0
N586 N 0.16699 0.49324 0.70281 0.0
N587 N 0.11384 0.43201 0.69126 0.0
H588 H 0.78015 0.91241 0.8969 0.0
H589 H 0.82066 0.79387 0.02956 0.0
H590 H 0.79004 0.94658 0.98479 0.0
H591 H 0.83471 0.77193 0.93923 0.0
H592 H 0.80371 0.84785 0.01503 0.0
H593 H 0.79379 0.85907 0.91358 0.0
C594 C 0.7851 0.90872 0.91986 0.0
C595 C 0.78407 0.93419 0.93946 0.0
C596 C 0.81045 0.83119 0.99843 0.0
C597 C 0.7999 0.87243 0.95884 0.0
C598 C 0.82009 0.8004 1.00666 0.0
C599 C 0.8293 0.77848 0.98555 0.0
C600 C 0.80959 0.83991 0.96882 0.0
C601 C 0.82777 0.78801 0.95621 0.0
C602 C 0.79301 0.87809 0.92935 0.0
C603 C 0.79065 0.92766 0.96895 0.0
N604 N 0.81813 0.81796 0.94875 0.0
N605 N 0.79833 0.89732 0.9778 0.0
H606 H 0.46872 0.54467 0.19138 0.0
H607 H 0.30016 0.53888 0.21003 0.0
H608 H 0.4297 0.56571 0.27422 0.0
H609 H 0.34397 0.46333 0.16343 0.0
H610 H 0.34756 0.55526 0.2295 0.0
H611 H 0.42315 0.51954 0.17594 0.0
C612 C 0.45086 0.54362 0.20642 0.0
C613 C 0.45306 0.55744 0.23406 0.0
C614 C 0.34665 0.53489 0.21524 0.0
C615 C 0.40103 0.52979 0.21631 0.0
C616 C 0.3197 0.52559 0.20417 0.0
C617 C 0.31819 0.49962 0.18534 0.0
C618 C 0.37223 0.51874 0.20663 0.0
C619 C 0.3442 0.48329 0.17819 0.0
C620 C 0.42495 0.52936 0.19761 0.0
C621 C 0.42911 0.5555 0.25266 0.0
N622 N 0.37027 0.49344 0.18848 0.0
N623 N 0.40397 0.54251 0.24326 0.0
H624 H 0.59276 0.16424 0.31802 0.0
H625 H 0.56024 0.27416 0.4539 0.0
H626 H 0.50862 0.21135 0.32596 0.0
H627 H 0.61101 0.18628 0.46079 0.0
H628 H 0.54586 0.26002 0.40385 0.0
H629 H 0.60619 0.18273 0.36673 0.0
C630 C 0.57741 0.17924 0.32964 0.0
C631 C 0.54953 0.18632 0.31791 0.0
C632 C 0.55992 0.24381 0.41652 0.0
C633 C 0.56469 0.20718 0.3737 0.0
C634 C 0.568 0.25173 0.44504 0.0
C635 C 0.5866 0.2312 0.46161 0.0
C636 C 0.57129 0.2157 0.4043 0.0
C637 C 0.59631 0.2026 0.44898 0.0
C638 C 0.58495 0.18936 0.35758 0.0
C639 C 0.53034 0.20539 0.33424 0.0
N640 N 0.58887 0.19591 0.42095 0.0
N641 N 0.53826 0.21518 0.36137 0.0
H642 H 0.09177 0.22275 0.58057 0.0
H643 H 0.02878 0.36398 0.67758 0.0
H644 H 0.088 0.32 0.54876 0.0
H645 H 0.07139 0.27946 0.71368 0.0
H646 H 0.04043 0.34587 0.6285 0.0
H647 H 0.07306 0.24066 0.62702 0.0
C648 C 0.08659 0.2479 0.58311 0.0
C649 C 0.09189 0.26997 0.56067 0.0
C650 C 0.04705 0.33122 0.64715 0.0
C651 C 0.07035 0.29057 0.61427 0.0
C652 C 0.04024 0.34141 0.67519 0.0
C653 C 0.04887 0.32298 0.6997 0.0
C654 C 0.06218 0.30209 0.6436 0.0
C655 C 0.06425 0.29425 0.6953 0.0
C656 C 0.07605 0.25806 0.60981 0.0
C657 C 0.08432 0.30215 0.56538 0.0
N658 N 0.07025 0.28455 0.66777 0.0
N659 N 0.0741 0.31155 0.59179 0.0
H660 H 0.9356 0.84382 0.81178 0.0
H661 H 0.95422 0.72367 0.94731 0.0
H662 H 0.01197 0.783 0.82573 0.0
H663 H 0.89782 0.80753 0.94885 0.0
H664 H 0.97157 0.74037 0.89961 0.0
H665 H 0.9166 0.82504 0.85828 0.0
C666 C 0.94809 0.826 0.82429 0.0
C667 C 0.9754 0.81486 0.81481 0.0
C668 C 0.95552 0.75521 0.91044 0.0
C669 C 0.95392 0.79363 0.86813 0.0
C670 C 0.94564 0.74574 0.93768 0.0
C671 C 0.92471 0.76438 0.95216 0.0
C672 C 0.94403 0.78324 0.89726 0.0
C673 C 0.91426 0.79268 0.9386 0.0
C674 C 0.93738 0.81562 0.85099 0.0
C675 C 0.99083 0.7922 0.83219 0.0
N676 N 0.92387 0.80114 0.91178 0.0
N677 N 0.97988 0.78234 0.85799 0.0
H678 H 0.47306 0.72716 0.20137 0.0
H679 H 0.43585 0.66026 0.0428 0.0
H680 H 0.49133 0.63052 0.17468 0.0
H681 H 0.44482 0.76086 0.05732 0.0
H682 H 0.45287 0.6495 0.09273 0.0
H683 H 0.4595 0.74104 0.15035 0.0
C684 C 0.47437 0.70898 0.18484 0.0
C685 C 0.48319 0.67761 0.19236 0.0
C686 C 0.4512 0.67398 0.08507 0.0
C687 C 0.4675 0.69311 0.13433 0.0
C688 C 0.44148 0.68012 0.05651 0.0
C689 C 0.43859 0.71152 0.04598 0.0
C690 C 0.45792 0.69942 0.10352 0.0
C691 C 0.44629 0.73631 0.06476 0.0
C692 C 0.46667 0.71688 0.15578 0.0
C693 C 0.48453 0.65497 0.17004 0.0
N694 N 0.45535 0.72979 0.09273 0.0
N695 N 0.47659 0.66309 0.14226 0.0
H696 H 0.20603 0.3396 0.33473 0.0
H697 H 0.17831 0.4117 0.17417 0.0
H698 H 0.11948 0.35723 0.29903 0.0
H699 H 0.25164 0.43494 0.22906 0.0
H700 H 0.16009 0.37782 0.21379 0.0
H701 H 0.22634 0.3609 0.28987 0.0
C702 C 0.19129 0.34749 0.31725 0.0
C703 C 0.161 0.34677 0.32066 0.0
C704 C 0.18046 0.38987 0.21683 0.0
C705 C 0.18417 0.37108 0.26923 0.0
C706 C 0.19098 0.40883 0.19421 0.0
C707 C 0.21651 0.42589 0.19851 0.0
C708 C 0.19598 0.38764 0.2435 0.0
C709 C 0.23189 0.42203 0.22499 0.0
C710 C 0.20291 0.35976 0.29174 0.0
C711 C 0.14296 0.35766 0.29738 0.0
N712 N 0.2214 0.40334 0.2465 0.0
N713 N 0.15481 0.36942 0.27261 0.0
H714 H 0.90506 0.8549 0.56267 0.0
H715 H 0.84554 0.98986 0.44998 0.0
H716 H 0.90443 0.95531 0.58192 0.0
H717 H 0.82255 0.89107 0.44666 0.0
H718 H 0.87839 0.97711 0.49179 0.0
H719 H 0.88588 0.86763 0.51374 0.0
C720 C 0.90131 0.87966 0.55647 0.0
C721 C 0.90606 0.90404 0.57656 0.0
C722 C 0.86657 0.95816 0.48148 0.0
C723 C 0.88399 0.9188 0.52053 0.0
C724 C 0.84811 0.96537 0.45749 0.0
C725 C 0.83133 0.94144 0.44506 0.0
C726 C 0.86841 0.92679 0.49264 0.0
C727 C 0.83508 0.91018 0.45578 0.0
C728 C 0.89022 0.88691 0.52857 0.0
C729 C 0.90058 0.93573 0.5673 0.0
N730 N 0.85305 0.90378 0.47903 0.0
N731 N 0.88969 0.9422 0.54003 0.0
H732 H 0.27309 0.57818 0.69193 0.0
H733 H 0.4005 0.65665 0.78617 0.0
H734 H 0.36384 0.5737 0.66921 0.0
H735 H 0.31221 0.65015 0.81587 0.0
H736 H 0.38609 0.63183 0.74053 0.0
H737 H 0.2856 0.61054 0.73428 0.0
C738 C 0.29559 0.58441 0.69561 0.0
C739 C 0.31753 0.57303 0.67718 0.0
C740 C 0.36979 0.63593 0.75694 0.0
C741 C 0.332 0.6098 0.72567 0.0
C742 C 0.37797 0.65029 0.783 0.0
C743 C 0.35752 0.65561 0.80495 0.0
C744 C 0.34089 0.62673 0.75259 0.0
C745 C 0.32877 0.64625 0.79971 0.0
C746 C 0.30273 0.60271 0.71989 0.0
C747 C 0.34629 0.58182 0.68296 0.0
N748 N 0.3213 0.63226 0.77408 0.0
N749 N 0.3527 0.59949 0.70678 0.0
H750 H 0.61562 0.03319 0.09298 0.0
H751 H 0.69882 0.08185 0.94882 0.0
H752 H 0.62908 0.1301 0.06508 0.0
H753 H 0.6765 0.98466 0.96752 0.0
H754 H 0.67059 0.09943 0.9902 0.0
H755 H 0.63487 0.01442 0.04648 0.0
C756 C 0.62227 0.05055 0.07698 0.0
C757 C 0.62104 0.08331 0.08316 0.0
C758 C 0.67155 0.07425 0.98526 0.0
C759 C 0.64333 0.06193 0.03004 0.0
C760 C 0.68775 0.06416 0.96157 0.0
C761 C 0.69028 0.03168 0.95486 0.0
C762 C 0.65795 0.05173 1.00285 0.0
C763 C 0.67515 0.00994 0.97198 0.0
C764 C 0.63336 0.03979 0.05048 0.0
C765 C 0.63019 0.10463 0.06163 0.0
N766 N 0.65991 0.0203 0.99549 0.0
N767 N 0.64109 0.09357 0.03624 0.0
H768 H 0.63751 0.1506 0.72375 0.0
H769 H 0.75958 0.03745 0.79538 0.0
H770 H 0.72066 0.13146 0.6843 0.0
H771 H 0.68917 0.077 0.84544 0.0
H772 H 0.74733 0.07516 0.75593 0.0
H773 H 0.65657 0.1267 0.76943 0.0
C774 C 0.65983 0.14158 0.72475 0.0
C775 C 0.67741 0.14277 0.70002 0.0
C776 C 0.73484 0.07619 0.77571 0.0
C777 C 0.69936 0.11544 0.75226 0.0
C778 C 0.74194 0.05476 0.79826 0.0
C779 C 0.72543 0.05438 0.82359 0.0
C780 C 0.7104 0.09679 0.7781 0.0
C781 C 0.70258 0.07691 0.82627 0.0
C782 C 0.67076 0.12817 0.7509 0.0
C783 C 0.70631 0.13119 0.70276 0.0
N784 N 0.69532 0.09688 0.80348 0.0
N785 N 0.71622 0.11767 0.72822 0.0
H786 H 0.17923 0.40378 0.07462 0.0
H787 H 0.10267 0.46279 0.92506 0.0
H788 H 0.17079 0.50336 0.05089 0.0
H789 H 0.10975 0.36495 0.95471 0.0
H790 H 0.12373 0.47953 0.97196 0.0
H791 H 0.14962 0.39054 0.03234 0.0
C792 C 0.17086 0.42295 0.06057 0.0
C793 C 0.17771 0.45468 0.06612 0.0
C794 C 0.1205 0.45444 0.96818 0.0
C795 C 0.14395 0.43962 0.01704 0.0
C796 C 0.10845 0.44488 0.94148 0.0
C797 C 0.10489 0.41236 0.93576 0.0
C798 C 0.12886 0.43129 0.98929 0.0
C799 C 0.11274 0.3902 0.95781 0.0
C800 C 0.15393 0.41537 0.03633 0.0
C801 C 0.16599 0.47857 0.04735 0.0
N802 N 0.12443 0.40005 0.98341 0.0
N803 N 0.14996 0.47051 0.02333 0.0
H804 H 0.76427 0.91562 0.31077 0.0
H805 H 0.87934 0.89786 0.18247 0.0
H806 H 0.84849 0.95902 0.31058 0.0
H807 H 0.79854 0.84768 0.18296 0.0
H808 H 0.86742 0.92082 0.22935 0.0
H809 H 0.7758 0.89013 0.26441 0.0
C810 C 0.78523 0.91965 0.30115 0.0
C811 C 0.80538 0.93964 0.31465 0.0
C812 C 0.8522 0.90483 0.21927 0.0
C813 C 0.81858 0.91071 0.2615 0.0
C814 C 0.85889 0.89191 0.19229 0.0
C815 C 0.83979 0.87102 0.17854 0.0
C816 C 0.82615 0.89693 0.23282 0.0
C817 C 0.81396 0.86359 0.1928 0.0
C818 C 0.79176 0.90513 0.27464 0.0
C819 C 0.83218 0.94395 0.30107 0.0
N820 N 0.80784 0.87662 0.21914 0.0
N821 N 0.83789 0.92975 0.27528 0.0
H822 H 0.35542 0.49821 0.54352 0.0
H823 H 0.38468 0.64484 0.43576 0.0
H824 H 0.32246 0.59444 0.55538 0.0
H825 H 0.42486 0.55162 0.4248 0.0
H826 H 0.36258 0.6261 0.48025 0.0
H827 H 0.38198 0.51655 0.50073 0.0
C828 C 0.35393 0.52317 0.5373 0.0
C829 C 0.33653 0.54476 0.55302 0.0
C830 C 0.37632 0.60969 0.46825 0.0
C831 C 0.36666 0.5658 0.50411 0.0
C832 C 0.38916 0.62048 0.44284 0.0
C833 C 0.40689 0.5999 0.42646 0.0
C834 C 0.38096 0.57792 0.47752 0.0
C835 C 0.41115 0.5683 0.43653 0.0
C836 C 0.36903 0.5336 0.51286 0.0
C837 C 0.33541 0.57683 0.54394 0.0
N838 N 0.39826 0.55826 0.46138 0.0
N839 N 0.3501 0.58627 0.52011 0.0
H840 H 0.22232 0.25539 0.40867 0.0
H841 H 0.36357 0.14058 0.41282 0.0
H842 H 0.23165 0.16993 0.46158 0.0
H843 H 0.34043 0.19544 0.3353 0.0
H844 H 0.31857 0.15909 0.43498 0.0
H845 H 0.26831 0.24064 0.38461 0.0
C846 C 0.23389 0.23354 0.41513 0.0
C847 C 0.22304 0.21386 0.43717 0.0
C848 C 0.32332 0.16713 0.41312 0.0
C849 C 0.27565 0.19736 0.4103 0.0
C850 C 0.34903 0.15648 0.40035 0.0
C851 C 0.35568 0.16587 0.37182 0.0
C852 C 0.30402 0.18775 0.39755 0.0
C853 C 0.33629 0.18752 0.35731 0.0
C854 C 0.26006 0.22518 0.40141 0.0
C855 C 0.23896 0.18584 0.44467 0.0
N856 N 0.31123 0.19765 0.37028 0.0
N857 N 0.26446 0.17863 0.43148 0.0
H858 H 0.07773 0.07027 0.58739 0.0
H859 H 0.08954 0.95246 0.72541 0.0
H860 H 0.14545 0.07323 0.6537 0.0
H861 H 0.01505 0.95618 0.66653 0.0
H862 H 0.11059 0.99598 0.69831 0.0
H863 H 0.05428 0.02844 0.61538 0.0
C864 C 0.08754 0.06236 0.60794 0.0
C865 C 0.11374 0.07518 0.6181 0.0
C866 C 0.08961 0.98737 0.69129 0.0
C867 C 0.08724 0.02702 0.64999 0.0
C868 C 0.07756 0.96238 0.70675 0.0
C869 C 0.05043 0.95055 0.69827 0.0
C870 C 0.07457 1.00068 0.667 0.0
C871 C 0.036 0.96453 0.67389 0.0
C872 C 0.07423 0.03834 0.62381 0.0
C873 C 0.12561 0.06368 0.64471 0.0
N874 N 0.04828 0.98883 0.65905 0.0
N875 N 0.11235 0.04023 0.65962 0.0
H876 H 0.21127 0.78656 0.83309 0.0
H877 H 0.2911 0.82479 0.98457 0.0
H878 H 0.17408 0.84285 0.902 0.0
H879 H 0.32714 0.75527 0.9257 0.0
H880 H 0.24922 0.83249 0.95232 0.0
H881 H 0.25442 0.77518 0.86446 0.0
C882 C 0.21207 0.7964 0.8548 0.0
C883 C 0.18882 0.81563 0.86491 0.0
C884 C 0.26611 0.81546 0.94625 0.0
C885 C 0.23815 0.80279 0.90075 0.0
C886 C 0.29022 0.81108 0.96471 0.0
C887 C 0.31269 0.78931 0.95787 0.0
C888 C 0.26416 0.79804 0.9204 0.0
C889 C 0.31026 0.77233 0.93175 0.0
C890 C 0.23666 0.78979 0.87269 0.0
C891 C 0.19106 0.8275 0.89331 0.0
N892 N 0.28634 0.77707 0.91385 0.0
N893 N 0.21521 0.82103 0.91003 0.0
H894 H 0.47197 0.01443 0.24359 0.0
H895 H 0.46142 0.92006 0.09475 0.0
H896 H 0.51772 0.04487 0.16725 0.0
H897 H 0.44217 0.879 0.17865 0.0
H898 H 0.48127 0.9664 0.11943 0.0
H899 H 0.45887 0.96596 0.21866 0.0
C900 C 0.47924 0.011 0.22149 0.0
C901 C 0.49587 0.03396 0.20745 0.0
C902 C 0.47293 0.94708 0.13238 0.0
C903 C 0.4808 0.97803 0.17862 0.0
C904 C 0.46174 0.92046 0.11834 0.0
C905 C 0.44975 0.89556 0.13458 0.0
C906 C 0.47188 0.94899 0.16287 0.0
C907 C 0.45048 0.89782 0.16511 0.0
C908 C 0.47188 0.9831 0.20731 0.0
C909 C 0.50488 0.02784 0.1789 0.0
N910 N 0.46104 0.92412 0.17817 0.0
N911 N 0.497 1.00054 0.16528 0.0
H912 H 0.85486 0.29433 0.64496 0.0
H913 H 0.69411 0.34384 0.59205 0.0
H914 H 0.81819 0.3895 0.6529 0.0
H915 H 0.7231 0.24569 0.60261 0.0
H916 H 0.73873 0.3606 0.61626 0.0
H917 H 0.80669 0.27558 0.63063 0.0
C918 C 0.83664 0.31127 0.64371 0.0
C919 C 0.84058 0.34359 0.64989 0.0
C920 C 0.73523 0.33537 0.61369 0.0
C921 C 0.7854 0.32229 0.63363 0.0
C922 C 0.70972 0.32577 0.59986 0.0
C923 C 0.70499 0.29332 0.59513 0.0
C924 C 0.75649 0.31242 0.62246 0.0
C925 C 0.72588 0.27095 0.60586 0.0
C926 C 0.80913 0.30051 0.63576 0.0
C927 C 0.81614 0.36438 0.64842 0.0
N928 N 0.75098 0.28094 0.61864 0.0
N929 N 0.78969 0.35344 0.64016 0.0
H930 H 0.91764 0.42221 0.79913 0.0
H931 H 0.96381 0.5589 0.91018 0.0
H932 H 1.00683 0.44899 0.81285 0.0
H933 H 0.87491 0.53442 0.89078 0.0
H934 H 0.98049 0.51842 0.87575 0.0
H935 H 0.90223 0.46186 0.83451 0.0
C936 C 0.93402 0.43638 0.80973 0.0
C937 C 0.96353 0.43245 0.80292 0.0
C938 C 0.95734 0.52195 0.87903 0.0
C939 C 0.946 0.47819 0.84351 0.0
C940 C 0.94776 0.54524 0.89853 0.0
C941 C 0.91785 0.55013 0.90349 0.0
C942 C 0.93689 0.50335 0.86434 0.0
C943 C 0.89816 0.53127 0.88806 0.0
C944 C 0.92519 0.45912 0.82991 0.0
C945 C 0.98383 0.45138 0.81742 0.0
N946 N 0.90802 0.50879 0.86927 0.0
N947 N 0.97467 0.47354 0.83698 0.0
H948 H 0.8243 0.64515 0.08096 0.0
H949 H 0.68895 0.69746 0.17894 0.0
H950 H 0.80981 0.74174 0.1099 0.0
H951 H 0.70091 0.6046 0.14061 0.0
H952 H 0.73543 0.7132 0.15851 0.0
H953 H 0.78226 0.62884 0.10831 0.0
C954 C 0.81246 0.66295 0.09332 0.0
C955 C 0.82054 0.69498 0.09285 0.0
C956 C 0.72792 0.68933 0.15478 0.0
C957 C 0.77184 0.67636 0.12418 0.0
C958 C 0.70128 0.68035 0.16629 0.0
C959 C 0.69081 0.6496 0.16151 0.0
C960 C 0.74429 0.66743 0.13838 0.0
C961 C 0.70812 0.62837 0.14532 0.0
C962 C 0.78832 0.65359 0.10892 0.0
C963 C 0.8044 0.71681 0.10958 0.0
N964 N 0.73383 0.63771 0.13431 0.0
N965 N 0.78063 0.70716 0.12434 0.0
H966 H 0.60291 0.4846 0.44418 0.0
H967 H 0.52103 0.51904 0.29205 0.0
H968 H 0.56193 0.41298 0.39189 0.0
H969 H 0.55706 0.5939 0.34394 0.0
H970 H 0.5308 0.48134 0.33186 0.0
H971 H 0.58227 0.52588 0.41118 0.0
C972 C 0.58945 0.47752 0.42588 0.0
C973 C 0.58449 0.4451 0.42068 0.0
C974 C 0.53635 0.50602 0.33486 0.0
C975 C 0.56057 0.4924 0.38293 0.0
C976 C 0.53072 0.52759 0.31211 0.0
C977 C 0.53853 0.5595 0.31467 0.0
C978 C 0.55043 0.51618 0.36038 0.0
C979 C 0.55075 0.56943 0.34117 0.0
C980 C 0.57753 0.50116 0.40716 0.0
C981 C 0.56631 0.43753 0.39697 0.0
N982 N 0.5568 0.54767 0.36292 0.0
N983 N 0.55531 0.46091 0.3789 0.0
H984 H 0.33702 0.256 0.15835 0.0
H985 H 0.49077 0.22712 0.23866 0.0
H986 H 0.38809 0.33039 0.19619 0.0
H987 H 0.43774 0.14947 0.2109 0.0
H988 H 0.45079 0.26447 0.22694 0.0
H989 H 0.37101 0.21614 0.18017 0.0
C990 C 0.35528 0.26398 0.17135 0.0
C991 C 0.35981 0.29671 0.17517 0.0
C992 C 0.44759 0.23929 0.22362 0.0
C993 C 0.39868 0.25112 0.20037 0.0
C994 C 0.47046 0.21792 0.23032 0.0
C995 C 0.4676 0.18526 0.22543 0.0
C996 C 0.42164 0.2281 0.21137 0.0
C997 C 0.44076 0.17455 0.21491 0.0
C998 C 0.37455 0.24117 0.18395 0.0
C999 C 0.38353 0.30554 0.19272 0.0
N1000 N 0.41887 0.19603 0.20775 0.0
N1001 N 0.40214 0.28294 0.20439 0.0
H1002 H 0.92604 0.29058 0.74687 0.0
H1003 H 0.89678 0.18014 0.88635 0.0
H1004 H 0.97322 0.29537 0.82889 0.0
H1005 H 0.85345 0.1673 0.80319 0.0
H1006 H 0.92377 0.22355 0.86539 0.0
H1007 H 0.89775 0.24692 0.76692 0.0
C1008 C 0.93043 0.28256 0.76906 0.0
C1009 C 0.95214 0.2967 0.78616 0.0
C1010 C 0.90842 0.21125 0.85163 0.0
C1011 C 0.91987 0.2468 0.80919 0.0
C1012 C 0.8931 0.1862 0.86356 0.0
C1013 C 0.87291 0.16969 0.84651 0.0
C1014 C 0.90359 0.2202 0.82233 0.0
C1015 C 0.86862 0.17942 0.81727 0.0
C1016 C 0.91431 0.25759 0.78047 0.0
C1017 C 0.95683 0.28525 0.81478 0.0
N1018 N 0.88385 0.20399 0.8061 0.0
N1019 N 0.94089 0.26108 0.82532 0.0
H1020 H 0.0571 0.58476 0.12836 0.0
H1021 H 0.98991 0.72905 0.03295 0.0
H1022 H 0.10755 0.64003 0.0688 0.0
H1023 H 0.93632 0.65863 0.07286 0.0
H1024 H 0.03324 0.69671 0.0462 0.0
H1025 H 0.01259 0.6115 0.10911 0.0
C1026 C 0.05879 0.60247 0.11118 0.0
C1027 C 0.0861 0.6103 0.10027 0.0
C1028 C 0.01203 0.68811 0.05187 0.0
C1029 C 0.0353 0.641 0.07819 0.0
C1030 C 0.98729 0.7066 0.04435 0.0
C1031 C 0.95957 0.69656 0.05202 0.0
C1032 C 1.00911 0.65954 0.0676 0.0
C1033 C 0.95735 0.66721 0.06661 0.0
C1034 C 0.03338 0.61756 0.10009 0.0
C1035 C 0.08697 0.63311 0.07775 0.0
N1036 N 0.98187 0.64987 0.07427 0.0
N1037 N 0.062 0.64786 0.06767 0.0
H1038 H 0.68906 0.8087 0.32553 0.0
H1039 H 0.54234 0.71118 0.3298 0.0
H1040 H 0.61259 0.8375 0.37312 0.0
H1041 H 0.60581 0.69583 0.2627 0.0
H1042 H 0.57125 0.75372 0.34923 0.0
H1043 H 0.66205 0.76422 0.30523 0.0
C1044 C 0.66664 0.80582 0.33173 0.0
C1045 C 0.65322 0.82706 0.35127 0.0
C1046 C 0.57896 0.74115 0.33025 0.0
C1047 C 0.6224 0.77577 0.32835 0.0
C1048 C 0.56246 0.71663 0.31911 0.0
C1049 C 0.57156 0.69976 0.29444 0.0
C1050 C 0.60505 0.74906 0.3169 0.0
C1051 C 0.59791 0.70821 0.28169 0.0
C1052 C 0.6513 0.78031 0.32016 0.0
C1053 C 0.62423 0.82159 0.35872 0.0
N1054 N 0.6138 0.73228 0.29311 0.0
N1055 N 0.60992 0.79657 0.34733 0.0
H1056 H 0.59493 0.34465 0.5727 0.0
H1057 H 0.43656 0.3455 0.64114 0.0
H1058 H 0.53426 0.26805 0.56711 0.0
H1059 H 0.47352 0.43409 0.61333 0.0
H1060 H 0.47913 0.31691 0.62339 0.0
H1061 H 0.55608 0.3785 0.59434 0.0
C1062 C 0.57355 0.33506 0.57588 0.0
C1063 C 0.56788 0.30344 0.56833 0.0
C1064 C 0.47807 0.34264 0.62128 0.0
C1065 C 0.5241 0.34132 0.59335 0.0
C1066 C 0.45386 0.3591 0.6318 0.0
C1067 C 0.4513 0.39234 0.62874 0.0
C1068 C 0.5001 0.35933 0.60745 0.0
C1069 C 0.47441 0.40841 0.61581 0.0
C1070 C 0.55152 0.35426 0.58822 0.0
C1071 C 0.53981 0.29214 0.57278 0.0
N1072 N 0.49788 0.39172 0.60548 0.0
N1073 N 0.51921 0.3109 0.58517 0.0
H1074 H 0.14652 0.71487 0.61108 0.0
H1075 H 0.06668 0.79265 0.74791 0.0
H1076 H 0.15696 0.67681 0.6985 0.0
H1077 H 0.05729 0.82729 0.65931 0.0
H1078 H 0.10181 0.75173 0.73149 0.0
H1079 H 0.11564 0.75774 0.6295 0.0
C1080 C 0.14254 0.71568 0.63425 0.0
C1081 C 0.15455 0.69226 0.65328 0.0
C1082 C 0.09213 0.7684 0.71571 0.0
C1083 C 0.11859 0.74129 0.6746 0.0
C1084 C 0.07218 0.79175 0.72507 0.0
C1085 C 0.05896 0.81313 0.70485 0.0
C1086 C 0.09883 0.76661 0.68599 0.0
C1087 C 0.06684 0.81111 0.67558 0.0
C1088 C 0.12471 0.74013 0.64477 0.0
C1089 C 0.14798 0.69422 0.68302 0.0
N1090 N 0.08614 0.78819 0.66703 0.0
N1091 N 0.13042 0.71833 0.69279 0.0
H1092 H 0.44772 0.80515 0.91718 0.0
H1093 H 0.59079 0.90027 0.95983 0.0
H1094 H 0.46519 0.83777 1.00448 0.0
H1095 H 0.56934 0.86885 0.873 0.0
H1096 H 0.54373 0.88137 0.9764 0.0
H1097 H 0.4905 0.83237 0.90047 0.0
C1098 C 0.46042 0.81833 0.93285 0.0
C1099 C 0.4529 0.81893 0.96236 0.0
C1100 C 0.5493 0.87878 0.9537 0.0
C1101 C 0.50251 0.85007 0.94328 0.0
C1102 C 0.57613 0.88967 0.94418 0.0
C1103 C 0.58426 0.88591 0.91498 0.0
C1104 C 0.53039 0.86404 0.93389 0.0
C1105 C 0.56438 0.87173 0.89581 0.0
C1106 C 0.48496 0.83389 0.92326 0.0
C1107 C 0.47014 0.83668 0.98153 0.0
N1108 N 0.53855 0.86126 0.90561 0.0
N1109 N 0.49435 0.85127 0.97172 0.0
H1110 H 0.9562 0.10855 0.46919 0.0
H1111 H 0.10371 0.17991 0.40927 0.0
H1112 H 0.9856 0.0958 0.3812 0.0
H1113 H 0.08257 0.1784 0.50047 0.0
H1114 H 0.06113 0.14781 0.39888 0.0
H1115 H 1.00227 0.13395 0.48136 0.0
C1116 C 0.97232 0.11106 0.45244 0.0
C1117 C 0.96697 0.09994 0.42413 0.0
C1118 C 0.06593 0.1542 0.42122 0.0
C1119 C 0.01982 0.12894 0.43791 0.0
C1120 C 0.09032 0.17244 0.42716 0.0
C1121 C 0.0966 0.18201 0.45573 0.0
C1122 C 0.04745 0.1457 0.44397 0.0
C1123 C 0.07848 0.17164 0.47809 0.0
C1124 C 0.99871 0.12537 0.45945 0.0
C1125 C 0.98884 0.1036 0.4034 0.0
N1126 N 0.05456 0.15437 0.4717 0.0
N1127 N 0.01414 0.11791 0.41065 0.0
loop_
_geom_bond_atom_site_label_1
_geom_bond_atom_site_label_2
_geom_bond_distance
_geom_bond_site_symmetry_2
_ccdc_geom_bond_type
Sm0 C2 2.846 . S
Sm0 O20 2.543 . S
Sm0 O21 2.450 . S
Sm0 O22 2.681 . S
Sm0 O23 2.464 . S
Sm0 O24 2.396 . S
Sm0 O28 2.386 . S
Sm0 O31 2.408 . S
Sm1 C11 2.846 . S
Sm1 O22 2.386 . S
Sm1 O25 2.408 . S
Sm1 O26 2.543 . S
Sm1 O27 2.450 . S
Sm1 O28 2.681 . S
Sm1 O29 2.464 . S
Sm1 O30 2.396 . S
C2 Sm0 2.846 . S
C2 C3 1.506 . S
C2 O20 1.261 . S
C2 O21 1.242 . S
C3 C2 1.506 . S
C3 C4 1.358 . S
C3 C8 1.382 . S
C4 C3 1.358 . S
C4 C5 1.385 . S
C4 H32 0.930 . S
C5 C4 1.385 . S
C5 C6 1.395 . S
C5 H33 0.929 . S
C6 C5 1.395 . S
C6 C7 1.335 . S
C7 C6 1.335 . S
C7 C8 1.398 . S
C7 H34 0.930 . S
C8 C3 1.382 . S
C8 C7 1.398 . S
C8 H35 0.929 . S
C9 O22 1.271 . S
C9 O23 1.251 . S
C10 O24 1.252 . S
C10 O25 1.272 . S
C11 Sm1 2.846 . S
C11 C12 1.506 . S
C11 O26 1.261 . S
C11 O27 1.242 . S
C12 C11 1.506 . S
C12 C13 1.358 . S
C12 C17 1.382 . S
C13 C12 1.358 . S
C13 C14 1.385 . S
C13 H36 0.930 . S
C14 C13 1.385 . S
C14 C15 1.395 . S
C14 H37 0.929 . S
C15 C14 1.395 . S
C15 C16 1.335 . S
C16 C15 1.335 . S
C16 C17 1.398 . S
C16 H38 0.930 . S
C17 C12 1.382 . S
C17 C16 1.398 . S
C17 H39 0.929 . S
C18 O28 1.271 . S
C18 O29 1.251 . S
C19 O30 1.252 . S
C19 O31 1.272 . S
O20 Sm0 2.543 . S
O20 C2 1.261 . S
O21 Sm0 2.450 . S
O21 C2 1.242 . S
O22 Sm0 2.681 . S
O22 Sm1 2.386 . S
O22 C9 1.271 . S
O23 Sm0 2.464 . S
O23 C9 1.251 . S
O24 Sm0 2.396 . S
O24 C10 1.252 . S
O25 Sm1 2.408 . S
O25 C10 1.272 . S
O26 Sm1 2.543 . S
O26 C11 1.261 . S
O27 Sm1 2.450 . S
O27 C11 1.242 . S
O28 Sm0 2.386 . S
O28 Sm1 2.681 . S
O28 C18 1.271 . S
O29 Sm1 2.464 . S
O29 C18 1.251 . S
O30 Sm1 2.396 . S
O30 C19 1.252 . S
O31 Sm0 2.408 . S
O31 C19 1.272 . S
H32 C4 0.930 . S
H33 C5 0.929 . S
H34 C7 0.930 . S
H35 C8 0.929 . S
H36 C13 0.930 . S
H37 C14 0.929 . S
H38 C16 0.930 . S
H39 C17 0.929 . S
Sm40 C42 2.846 . S
Sm40 O60 2.543 . S
Sm40 O61 2.450 . S
Sm40 O62 2.681 1_655 S
Sm40 O63 2.464 1_655 S
Sm40 O64 2.396 1_655 S
Sm40 O68 2.386 . S
Sm40 O71 2.408 . S
Sm41 C51 2.846 . S
Sm41 O62 2.386 . S
Sm41 O65 2.408 . S
Sm41 O66 2.543 . S
Sm41 O67 2.450 . S
Sm41 O68 2.681 1_455 S
Sm41 O69 2.486 . S
Sm41 O70 2.396 . S
C42 Sm40 2.846 . S
C42 C43 1.506 . S
C42 O60 1.261 . S
C42 O61 1.242 . S
C43 C42 1.506 . S
C43 C44 1.358 . S
C43 C48 1.382 . S
C44 C43 1.358 . S
C44 C45 1.385 . S
C44 H72 0.930 . S
C45 C44 1.385 . S
C45 C46 1.395 . S
C45 H73 0.929 . S
C46 C45 1.395 . S
C46 C47 1.335 . S
C47 C46 1.335 . S
C47 C48 1.398 . S
C47 H74 0.930 . S
C48 C43 1.382 . S
C48 C47 1.398 . S
C48 H75 0.929 . S
C49 O62 1.271 . S
C49 O63 1.251 . S
C50 O64 1.252 . S
C50 O65 1.272 . S
C51 Sm41 2.846 . S
C51 C52 1.506 . S
C51 O66 1.261 . S
C51 O67 1.242 . S
C52 C51 1.506 . S
C52 C53 1.358 . S
C52 C57 1.382 . S
C53 C52 1.358 . S
C53 C54 1.385 . S
C53 H76 0.930 . S
C54 C53 1.385 . S
C54 C55 1.395 . S
C54 H77 0.929 . S
C55 C54 1.395 . S
C55 C56 1.335 . S
C56 C55 1.335 . S
C56 C57 1.398 . S
C56 H78 0.930 . S
C57 C52 1.382 . S
C57 C56 1.398 . S
C57 H79 0.929 . S
C58 O68 1.271 . S
C58 O69 1.229 1_655 S
C59 O70 1.252 1_655 S
C59 O71 1.272 . S
O60 Sm40 2.543 . S
O60 C42 1.261 . S
O61 Sm40 2.450 . S
O61 C42 1.242 . S
O62 Sm40 2.681 1_455 S
O62 Sm41 2.386 . S
O62 C49 1.271 . S
O63 Sm40 2.464 1_455 S
O63 C49 1.251 . S
O64 Sm40 2.396 1_455 S
O64 C50 1.252 . S
O65 Sm41 2.408 . S
O65 C50 1.272 . S
O66 Sm41 2.543 . S
O66 C51 1.261 . S
O67 Sm41 2.450 . S
O67 C51 1.242 . S
O68 Sm40 2.386 . S
O68 Sm41 2.681 1_655 S
O68 C58 1.271 . S
O69 Sm41 2.486 . S
O69 C58 1.229 1_455 S
O70 Sm41 2.396 . S
O70 C59 1.252 1_455 S
O71 Sm40 2.408 . S
O71 C59 1.272 . S
H72 C44 0.930 . S
H73 C45 0.929 . S
H74 C47 0.930 . S
H75 C48 0.929 . S
H76 C53 0.930 . S
H77 C54 0.929 . S
H78 C56 0.930 . S
H79 C57 0.929 . S
Sm80 C82 2.846 . S
Sm80 O100 2.543 . S
Sm80 O101 2.450 . S
Sm80 O102 2.681 1_554 S
Sm80 O103 2.464 1_554 S
Sm80 O104 2.396 1_554 S
Sm80 O108 2.386 . S
Sm80 O111 2.408 . S
Sm81 C91 2.846 . S
Sm81 O102 2.386 . S
Sm81 O105 2.408 . S
Sm81 O106 2.543 . S
Sm81 O107 2.450 . S
Sm81 O108 2.681 1_556 S
Sm81 O109 2.464 . S
Sm81 O110 2.396 . S
C82 Sm80 2.846 . S
C82 C83 1.506 . S
C82 O100 1.261 . S
C82 O101 1.242 . S
C83 C82 1.506 . S
C83 C84 1.358 . S
C83 C88 1.382 . S
C84 C83 1.358 . S
C84 C85 1.385 . S
C84 H112 0.930 . S
C85 C84 1.385 . S
C85 C86 1.395 . S
C85 H113 0.929 . S
C86 C85 1.395 . S
C86 C87 1.335 . S
C87 C86 1.335 . S
C87 C88 1.398 . S
C87 H114 0.930 . S
C88 C83 1.382 . S
C88 C87 1.398 . S
C88 H115 0.929 . S
C89 O102 1.271 . S
C89 O103 1.251 . S
C90 O104 1.252 . S
C90 O105 1.272 . S
C91 Sm81 2.846 . S
C91 C92 1.506 . S
C91 O106 1.261 . S
C91 O107 1.242 . S
C92 C91 1.506 . S
C92 C93 1.358 . S
C92 C97 1.382 . S
C93 C92 1.358 . S
C93 C94 1.385 . S
C93 H116 0.930 . S
C94 C93 1.385 . S
C94 C95 1.395 . S
C94 H117 0.929 . S
C95 C94 1.395 . S
C95 C96 1.335 . S
C96 C95 1.335 . S
C96 C97 1.398 . S
C96 H118 0.930 . S
C97 C92 1.382 . S
C97 C96 1.398 . S
C97 H119 0.929 . S
C98 O108 1.271 . S
C98 O109 1.251 1_554 S
C99 O110 1.252 1_554 S
C99 O111 1.272 . S
O100 Sm80 2.543 . S
O100 C82 1.261 . S
O101 Sm80 2.450 . S
O101 C82 1.242 . S
O102 Sm80 2.681 1_556 S
O102 Sm81 2.386 . S
O102 C89 1.271 . S
O103 Sm80 2.464 1_556 S
O103 C89 1.251 . S
O104 Sm80 2.396 1_556 S
O104 C90 1.252 . S
O105 Sm81 2.408 . S
O105 C90 1.272 . S
O106 Sm81 2.543 . S
O106 C91 1.261 . S
O107 Sm81 2.450 . S
O107 C91 1.242 . S
O108 Sm80 2.386 . S
O108 Sm81 2.681 1_554 S
O108 C98 1.271 . S
O109 Sm81 2.464 . S
O109 C98 1.251 1_556 S
O110 Sm81 2.396 . S
O110 C99 1.252 1_556 S
O111 Sm80 2.408 . S
O111 C99 1.272 . S
H112 C84 0.930 . S
H113 C85 0.929 . S
H114 C87 0.930 . S
H115 C88 0.929 . S
H116 C93 0.930 . S
H117 C94 0.929 . S
H118 C96 0.930 . S
H119 C97 0.929 . S
Sm120 C122 2.846 . S
Sm120 O140 2.543 . S
Sm120 O141 2.450 . S
Sm120 O142 2.681 . S
Sm120 O143 2.464 . S
Sm120 O144 2.396 . S
Sm120 O148 2.386 . S
Sm120 O151 2.408 . S
Sm121 C131 2.846 . S
Sm121 O142 2.386 . S
Sm121 O145 2.408 . S
Sm121 O146 2.543 . S
Sm121 O147 2.450 . S
Sm121 O148 2.681 . S
Sm121 O149 2.464 . S
Sm121 O150 2.396 . S
C122 Sm120 2.846 . S
C122 C123 1.506 . S
C122 O140 1.261 . S
C122 O141 1.242 . S
C123 C122 1.506 . S
C123 C124 1.358 . S
C123 C128 1.382 . S
C124 C123 1.358 . S
C124 C125 1.385 . S
C124 H152 0.930 . S
C125 C124 1.385 . S
C125 C126 1.395 . S
C125 H153 0.929 . S
C126 C125 1.395 . S
C126 C127 1.335 . S
C127 C126 1.335 . S
C127 C128 1.398 . S
C127 H154 0.930 . S
C128 C123 1.382 . S
C128 C127 1.398 . S
C128 H155 0.929 . S
C129 O142 1.271 . S
C129 O143 1.251 . S
C130 O144 1.252 . S
C130 O145 1.272 . S
C131 Sm121 2.846 . S
C131 C132 1.506 . S
C131 O146 1.261 . S
C131 O147 1.242 . S
C132 C131 1.506 . S
C132 C133 1.358 . S
C132 C137 1.382 . S
C133 C132 1.358 . S
C133 C134 1.385 . S
C133 H156 0.930 . S
C134 C133 1.385 . S
C134 C135 1.395 . S
C134 H157 0.929 . S
C135 C134 1.395 . S
C135 C136 1.335 . S
C136 C135 1.335 . S
C136 C137 1.398 . S
C136 H158 0.930 . S
C137 C132 1.382 . S
C137 C136 1.398 . S
C137 H159 0.929 . S
C138 O148 1.271 . S
C138 O149 1.251 . S
C139 O150 1.252 . S
C139 O151 1.272 . S
O140 Sm120 2.543 . S
O140 C122 1.261 . S
O141 Sm120 2.450 . S
O141 C122 1.242 . S
O142 Sm120 2.681 . S
O142 Sm121 2.386 . S
O142 C129 1.271 . S
O143 Sm120 2.464 . S
O143 C129 1.251 . S
O144 Sm120 2.396 . S
O144 C130 1.252 . S
O145 Sm121 2.408 . S
O145 C130 1.272 . S
O146 Sm121 2.543 . S
O146 C131 1.261 . S
O147 Sm121 2.450 . S
O147 C131 1.242 . S
O148 Sm120 2.386 . S
O148 Sm121 2.681 . S
O148 C138 1.271 . S
O149 Sm121 2.464 . S
O149 C138 1.251 . S
O150 Sm121 2.396 . S
O150 C139 1.252 . S
O151 Sm120 2.408 . S
O151 C139 1.272 . S
H152 C124 0.930 . S
H153 C125 0.929 . S
H154 C127 0.930 . S
H155 C128 0.929 . S
H156 C133 0.930 . S
H157 C134 0.929 . S
H158 C136 0.930 . S
H159 C137 0.929 . S
Sm160 C162 2.846 . S
Sm160 O180 2.543 . S
Sm160 O181 2.450 . S
Sm160 O182 2.681 . S
Sm160 O183 2.464 . S
Sm160 O184 2.396 . S
Sm160 O188 2.386 . S
Sm160 O191 2.408 . S
Sm161 C171 2.846 . S
Sm161 O182 2.386 . S
Sm161 O185 2.408 . S
Sm161 O186 2.543 . S
Sm161 O187 2.450 . S
Sm161 O188 2.681 . S
Sm161 O189 2.464 . S
Sm161 O190 2.396 . S
C162 Sm160 2.846 . S
C162 C163 1.506 . S
C162 O180 1.261 . S
C162 O181 1.242 . S
C163 C162 1.506 . S
C163 C164 1.358 . S
C163 C168 1.382 . S
C164 C163 1.358 . S
C164 C165 1.385 . S
C164 H192 0.930 . S
C165 C164 1.385 . S
C165 C166 1.395 . S
C165 H193 0.929 . S
C166 C165 1.395 . S
C166 C167 1.335 . S
C167 C166 1.335 . S
C167 C168 1.398 . S
C167 H194 0.930 . S
C168 C163 1.382 . S
C168 C167 1.398 . S
C168 H195 0.929 . S
C169 O182 1.271 . S
C169 O183 1.251 . S
C170 O184 1.252 . S
C170 O185 1.272 . S
C171 Sm161 2.846 . S
C171 C172 1.506 . S
C171 O186 1.261 . S
C171 O187 1.242 . S
C172 C171 1.506 . S
C172 C173 1.358 . S
C172 C177 1.382 . S
C173 C172 1.358 . S
C173 C174 1.385 . S
C173 H196 0.930 . S
C174 C173 1.385 . S
C174 C175 1.395 . S
C174 H197 0.929 . S
C175 C174 1.395 . S
C175 C176 1.335 . S
C176 C175 1.335 . S
C176 C177 1.398 . S
C176 H198 0.930 . S
C177 C172 1.382 . S
C177 C176 1.398 . S
C177 H199 0.929 . S
C178 O188 1.271 . S
C178 O189 1.251 . S
C179 O190 1.252 . S
C179 O191 1.272 . S
O180 Sm160 2.543 . S
O180 C162 1.261 . S
O181 Sm160 2.450 . S
O181 C162 1.242 . S
O182 Sm160 2.681 . S
O182 Sm161 2.386 . S
O182 C169 1.271 . S
O183 Sm160 2.464 . S
O183 C169 1.251 . S
O184 Sm160 2.396 . S
O184 C170 1.252 . S
O185 Sm161 2.408 . S
O185 C170 1.272 . S
O186 Sm161 2.543 . S
O186 C171 1.261 . S
O187 Sm161 2.450 . S
O187 C171 1.242 . S
O188 Sm160 2.386 . S
O188 Sm161 2.681 . S
O188 C178 1.271 . S
O189 Sm161 2.464 . S
O189 C178 1.251 . S
O190 Sm161 2.396 . S
O190 C179 1.252 . S
O191 Sm160 2.408 . S
O191 C179 1.272 . S
H192 C164 0.930 . S
H193 C165 0.929 . S
H194 C167 0.930 . S
H195 C168 0.929 . S
H196 C173 0.930 . S
H197 C174 0.929 . S
H198 C176 0.930 . S
H199 C177 0.929 . S
Sm200 C202 2.846 . S
Sm200 O220 2.543 . S
Sm200 O221 2.450 . S
Sm200 O222 2.681 . S
Sm200 O223 2.464 . S
Sm200 O224 2.396 . S
Sm200 O228 2.386 1_655 S
Sm200 O231 2.408 1_655 S
Sm201 C211 2.846 . S
Sm201 O222 2.386 1_455 S
Sm201 O225 2.408 1_455 S
Sm201 O226 2.543 . S
Sm201 O227 2.450 . S
Sm201 O228 2.681 . S
Sm201 O229 2.464 . S
Sm201 O230 2.396 . S
C202 Sm200 2.846 . S
C202 C203 1.506 . S
C202 O220 1.261 . S
C202 O221 1.242 . S
C203 C202 1.506 . S
C203 C204 1.358 . S
C203 C208 1.382 . S
C204 C203 1.358 . S
C204 C205 1.385 . S
C204 H232 0.930 . S
C205 C204 1.385 . S
C205 C206 1.395 . S
C205 H233 0.929 . S
C206 C205 1.395 . S
C206 C207 1.335 . S
C207 C206 1.335 . S
C207 C208 1.398 . S
C207 H234 0.930 . S
C208 C203 1.382 . S
C208 C207 1.398 . S
C208 H235 0.929 . S
C209 O222 1.271 . S
C209 O223 1.251 . S
C210 O224 1.252 . S
C210 O225 1.272 . S
C211 Sm201 2.846 . S
C211 C212 1.506 . S
C211 O226 1.261 . S
C211 O227 1.242 . S
C212 C211 1.506 . S
C212 C213 1.358 . S
C212 C217 1.382 . S
C213 C212 1.358 . S
C213 C214 1.385 . S
C213 H236 0.930 . S
C214 C213 1.385 . S
C214 C215 1.395 . S
C214 H237 0.929 . S
C215 C214 1.395 . S
C215 C216 1.335 . S
C216 C215 1.335 . S
C216 C217 1.398 . S
C216 H238 0.930 . S
C217 C212 1.382 . S
C217 C216 1.398 . S
C217 H239 0.929 . S
C218 O228 1.271 . S
C218 O229 1.251 . S
C219 O230 1.252 . S
C219 O231 1.272 . S
O220 Sm200 2.543 . S
O220 C202 1.261 . S
O221 Sm200 2.450 . S
O221 C202 1.242 . S
O222 Sm200 2.681 . S
O222 Sm201 2.386 1_655 S
O222 C209 1.271 . S
O223 Sm200 2.464 . S
O223 C209 1.251 . S
O224 Sm200 2.396 . S
O224 C210 1.252 . S
O225 Sm201 2.408 1_655 S
O225 C210 1.272 . S
O226 Sm201 2.543 . S
O226 C211 1.261 . S
O227 Sm201 2.450 . S
O227 C211 1.242 . S
O228 Sm200 2.386 1_455 S
O228 Sm201 2.681 . S
O228 C218 1.271 . S
O229 Sm201 2.464 . S
O229 C218 1.251 . S
O230 Sm201 2.396 . S
O230 C219 1.252 . S
O231 Sm200 2.408 1_455 S
O231 C219 1.272 . S
H232 C204 0.930 . S
H233 C205 0.929 . S
H234 C207 0.930 . S
H235 C208 0.929 . S
H236 C213 0.930 . S
H237 C214 0.929 . S
H238 C216 0.930 . S
H239 C217 0.929 . S
Sm240 C242 2.846 . S
Sm240 O260 2.543 . S
Sm240 O261 2.450 . S
Sm240 O262 2.681 . S
Sm240 O263 2.464 . S
Sm240 O264 2.396 . S
Sm240 O268 2.386 . S
Sm240 O271 2.408 1_554 S
Sm241 C251 2.846 . S
Sm241 O262 2.386 1_556 S
Sm241 O265 2.408 1_556 S
Sm241 O266 2.543 . S
Sm241 O267 2.450 . S
Sm241 O268 2.681 1_556 S
Sm241 O269 2.464 . S
Sm241 O270 2.396 . S
C242 Sm240 2.846 . S
C242 C243 1.506 . S
C242 O260 1.261 . S
C242 O261 1.242 . S
C243 C242 1.506 . S
C243 C244 1.358 . S
C243 C248 1.382 . S
C244 C243 1.358 . S
C244 C245 1.385 . S
C244 H272 0.930 . S
C245 C244 1.385 . S
C245 C246 1.395 . S
C245 H273 0.929 . S
C246 C245 1.395 . S
C246 C247 1.335 . S
C247 C246 1.335 . S
C247 C248 1.398 . S
C247 H274 0.930 . S
C248 C243 1.382 . S
C248 C247 1.398 . S
C248 H275 0.929 . S
C249 O262 1.271 . S
C249 O263 1.251 . S
C250 O264 1.252 . S
C250 O265 1.272 . S
C251 Sm241 2.846 . S
C251 C252 1.506 . S
C251 O266 1.261 . S
C251 O267 1.242 . S
C252 C251 1.506 . S
C252 C253 1.358 . S
C252 C257 1.382 . S
C253 C252 1.358 . S
C253 C254 1.385 . S
C253 H276 0.930 . S
C254 C253 1.385 . S
C254 C255 1.395 . S
C254 H277 0.929 . S
C255 C254 1.395 . S
C255 C256 1.335 . S
C256 C255 1.335 . S
C256 C257 1.398 . S
C256 H278 0.930 . S
C257 C252 1.382 . S
C257 C256 1.398 . S
C257 H279 0.929 . S
C258 O268 1.271 1_556 S
C258 O269 1.251 . S
C259 O270 1.252 . S
C259 O271 1.272 . S
O260 Sm240 2.543 . S
O260 C242 1.261 . S
O261 Sm240 2.450 . S
O261 C242 1.242 . S
O262 Sm240 2.681 . S
O262 Sm241 2.386 1_554 S
O262 C249 1.271 . S
O263 Sm240 2.464 . S
O263 C249 1.251 . S
O264 Sm240 2.396 . S
O264 C250 1.252 . S
O265 Sm241 2.408 1_554 S
O265 C250 1.272 . S
O266 Sm241 2.543 . S
O266 C251 1.261 . S
O267 Sm241 2.450 . S
O267 C251 1.242 . S
O268 Sm240 2.386 . S
O268 Sm241 2.681 1_554 S
O268 C258 1.271 1_554 S
O269 Sm241 2.464 . S
O269 C258 1.251 . S
O270 Sm241 2.396 . S
O270 C259 1.252 . S
O271 Sm240 2.408 1_556 S
O271 C259 1.272 . S
H272 C244 0.930 . S
H273 C245 0.929 . S
H274 C247 0.930 . S
H275 C248 0.929 . S
H276 C253 0.930 . S
H277 C254 0.929 . S
H278 C256 0.930 . S
H279 C257 0.929 . S
Sm280 C282 2.846 . S
Sm280 O300 2.543 . S
Sm280 O301 2.450 . S
Sm280 O302 2.681 . S
Sm280 O303 2.464 . S
Sm280 O304 2.396 . S
Sm280 O308 2.386 . S
Sm280 O311 2.408 . S
Sm281 C291 2.846 . S
Sm281 O302 2.386 . S
Sm281 O305 2.408 . S
Sm281 O306 2.543 . S
Sm281 O307 2.450 . S
Sm281 O308 2.681 . S
Sm281 O309 2.464 . S
Sm281 O310 2.396 . S
C282 Sm280 2.846 . S
C282 C283 1.506 . S
C282 O300 1.261 . S
C282 O301 1.242 . S
C283 C282 1.506 . S
C283 C284 1.358 . S
C283 C288 1.382 . S
C284 C283 1.358 . S
C284 C285 1.385 . S
C284 H312 0.930 . S
C285 C284 1.385 . S
C285 C286 1.395 . S
C285 H313 0.929 . S
C286 C285 1.395 . S
C286 C287 1.335 . S
C287 C286 1.335 . S
C287 C288 1.398 . S
C287 H314 0.930 . S
C288 C283 1.382 . S
C288 C287 1.398 . S
C288 H315 0.929 . S
C289 O302 1.271 . S
C289 O303 1.251 . S
C290 O304 1.252 . S
C290 O305 1.272 . S
C291 Sm281 2.846 . S
C291 C292 1.506 . S
C291 O306 1.261 . S
C291 O307 1.242 . S
C292 C291 1.506 . S
C292 C293 1.358 . S
C292 C297 1.382 . S
C293 C292 1.358 . S
C293 C294 1.385 . S
C293 H316 0.930 . S
C294 C293 1.385 . S
C294 C295 1.395 . S
C294 H317 0.929 . S
C295 C294 1.395 . S
C295 C296 1.335 . S
C296 C295 1.335 . S
C296 C297 1.398 . S
C296 H318 0.930 . S
C297 C292 1.382 . S
C297 C296 1.398 . S
C297 H319 0.929 . S
C298 O308 1.271 . S
C298 O309 1.251 . S
C299 O310 1.252 . S
C299 O311 1.272 . S
O300 Sm280 2.543 . S
O300 C282 1.261 . S
O301 Sm280 2.450 . S
O301 C282 1.242 . S
O302 Sm280 2.681 . S
O302 Sm281 2.386 . S
O302 C289 1.271 . S
O303 Sm280 2.464 . S
O303 C289 1.251 . S
O304 Sm280 2.396 . S
O304 C290 1.252 . S
O305 Sm281 2.408 . S
O305 C290 1.272 . S
O306 Sm281 2.543 . S
O306 C291 1.261 . S
O307 Sm281 2.450 . S
O307 C291 1.242 . S
O308 Sm280 2.386 . S
O308 Sm281 2.681 . S
O308 C298 1.271 . S
O309 Sm281 2.464 . S
O309 C298 1.251 . S
O310 Sm281 2.396 . S
O310 C299 1.252 . S
O311 Sm280 2.408 . S
O311 C299 1.272 . S
H312 C284 0.930 . S
H313 C285 0.929 . S
H314 C287 0.930 . S
H315 C288 0.929 . S
H316 C293 0.930 . S
H317 C294 0.929 . S
H318 C296 0.930 . S
H319 C297 0.929 . S
Sm320 C322 2.846 . S
Sm320 O340 2.543 . S
Sm320 O341 2.450 . S
Sm320 O342 2.681 . S
Sm320 O343 2.464 . S
Sm320 O344 2.396 . S
Sm320 O348 2.386 . S
Sm320 O351 2.408 . S
Sm321 C331 2.846 . S
Sm321 O342 2.386 . S
Sm321 O345 2.408 . S
Sm321 O346 2.543 . S
Sm321 O347 2.450 . S
Sm321 O348 2.681 . S
Sm321 O349 2.464 . S
Sm321 O350 2.396 . S
C322 Sm320 2.846 . S
C322 C323 1.506 . S
C322 O340 1.261 . S
C322 O341 1.242 . S
C323 C322 1.506 . S
C323 C324 1.358 . S
C323 C328 1.382 . S
C324 C323 1.358 . S
C324 C325 1.385 . S
C324 H352 0.930 . S
C325 C324 1.385 . S
C325 C326 1.395 . S
C325 H353 0.929 . S
C326 C325 1.395 . S
C326 C327 1.335 . S
C327 C326 1.335 . S
C327 C328 1.398 . S
C327 H354 0.930 . S
C328 C323 1.382 . S
C328 C327 1.398 . S
C328 H355 0.929 . S
C329 O342 1.271 . S
C329 O343 1.251 . S
C330 O344 1.252 . S
C330 O345 1.272 . S
C331 Sm321 2.846 . S
C331 C332 1.506 . S
C331 O346 1.261 . S
C331 O347 1.242 . S
C332 C331 1.506 . S
C332 C333 1.358 . S
C332 C337 1.382 . S
C333 C332 1.358 . S
C333 C334 1.385 . S
C333 H356 0.930 . S
C334 C333 1.385 . S
C334 C335 1.395 . S
C334 H357 0.929 . S
C335 C334 1.395 . S
C335 C336 1.335 . S
C336 C335 1.335 . S
C336 C337 1.398 . S
C336 H358 0.930 . S
C337 C332 1.382 . S
C337 C336 1.398 . S
C337 H359 0.929 . S
C338 O348 1.271 . S
C338 O349 1.251 . S
C339 O350 1.252 . S
C339 O351 1.272 . S
O340 Sm320 2.543 . S
O340 C322 1.261 . S
O341 Sm320 2.450 . S
O341 C322 1.242 . S
O342 Sm320 2.681 . S
O342 Sm321 2.386 . S
O342 C329 1.271 . S
O343 Sm320 2.464 . S
O343 C329 1.251 . S
O344 Sm320 2.396 . S
O344 C330 1.252 . S
O345 Sm321 2.408 . S
O345 C330 1.272 . S
O346 Sm321 2.543 . S
O346 C331 1.261 . S
O347 Sm321 2.450 . S
O347 C331 1.242 . S
O348 Sm320 2.386 . S
O348 Sm321 2.681 . S
O348 C338 1.271 . S
O349 Sm321 2.464 . S
O349 C338 1.251 . S
O350 Sm321 2.396 . S
O350 C339 1.252 . S
O351 Sm320 2.408 . S
O351 C339 1.272 . S
H352 C324 0.930 . S
H353 C325 0.929 . S
H354 C327 0.930 . S
H355 C328 0.929 . S
H356 C333 0.930 . S
H357 C334 0.929 . S
H358 C336 0.930 . S
H359 C337 0.929 . S
Sm360 C362 2.846 . S
Sm360 O380 2.543 . S
Sm360 O381 2.450 . S
Sm360 O382 2.681 1_565 S
Sm360 O383 2.464 1_565 S
Sm360 O384 2.396 1_565 S
Sm360 O388 2.386 . S
Sm360 O391 2.408 . S
Sm361 C371 2.846 . S
Sm361 O382 2.386 . S
Sm361 O385 2.408 . S
Sm361 O386 2.543 . S
Sm361 O387 2.450 . S
Sm361 O388 2.681 1_545 S
Sm361 O389 2.464 1_545 S
Sm361 O390 2.396 1_545 S
C362 Sm360 2.846 . S
C362 C363 1.506 . S
C362 O380 1.261 . S
C362 O381 1.242 . S
C363 C362 1.506 . S
C363 C364 1.358 . S
C363 C368 1.382 . S
C364 C363 1.358 . S
C364 C365 1.385 . S
C364 H392 0.930 . S
C365 C364 1.385 . S
C365 C366 1.395 . S
C365 H393 0.929 . S
C366 C365 1.395 . S
C366 C367 1.335 . S
C367 C366 1.335 . S
C367 C368 1.398 . S
C367 H394 0.930 . S
C368 C363 1.382 . S
C368 C367 1.398 . S
C368 H395 0.929 . S
C369 O382 1.271 . S
C369 O383 1.251 . S
C370 O384 1.252 . S
C370 O385 1.272 . S
C371 Sm361 2.846 . S
C371 C372 1.506 . S
C371 O386 1.261 . S
C371 O387 1.242 . S
C372 C371 1.506 . S
C372 C373 1.358 . S
C372 C377 1.382 . S
C373 C372 1.358 . S
C373 C374 1.385 . S
C373 H396 0.930 . S
C374 C373 1.385 . S
C374 C375 1.395 . S
C374 H397 0.929 . S
C375 C374 1.395 . S
C375 C376 1.335 . S
C376 C375 1.335 . S
C376 C377 1.398 . S
C376 H398 0.930 . S
C377 C372 1.382 . S
C377 C376 1.398 . S
C377 H399 0.929 . S
C378 O388 1.271 . S
C378 O389 1.251 . S
C379 O390 1.252 . S
C379 O391 1.272 . S
O380 Sm360 2.543 . S
O380 C362 1.261 . S
O381 Sm360 2.450 . S
O381 C362 1.242 . S
O382 Sm360 2.681 1_545 S
O382 Sm361 2.386 . S
O382 C369 1.271 . S
O383 Sm360 2.464 1_545 S
O383 C369 1.251 . S
O384 Sm360 2.396 1_545 S
O384 C370 1.252 . S
O385 Sm361 2.408 . S
O385 C370 1.272 . S
O386 Sm361 2.543 . S
O386 C371 1.261 . S
O387 Sm361 2.450 . S
O387 C371 1.242 . S
O388 Sm360 2.386 . S
O388 Sm361 2.681 1_565 S
O388 C378 1.271 . S
O389 Sm361 2.464 1_565 S
O389 C378 1.251 . S
O390 Sm361 2.396 1_565 S
O390 C379 1.252 . S
O391 Sm360 2.408 . S
O391 C379 1.272 . S
H392 C364 0.930 . S
H393 C365 0.929 . S
H394 C367 0.930 . S
H395 C368 0.929 . S
H396 C373 0.930 . S
H397 C374 0.929 . S
H398 C376 0.930 . S
H399 C377 0.929 . S
Sm400 C402 2.846 . S
Sm400 O420 2.543 . S
Sm400 O421 2.450 . S
Sm400 O422 2.681 . S
Sm400 O423 2.464 . S
Sm400 O424 2.396 . S
Sm400 O428 2.386 1_565 S
Sm400 O431 2.408 1_565 S
Sm401 C411 2.846 . S
Sm401 O422 2.386 1_545 S
Sm401 O425 2.408 1_545 S
Sm401 O426 2.543 . S
Sm401 O427 2.450 . S
Sm401 O428 2.681 . S
Sm401 O429 2.464 . S
Sm401 O430 2.396 . S
C402 Sm400 2.846 . S
C402 C403 1.506 . S
C402 O420 1.261 . S
C402 O421 1.242 . S
C403 C402 1.506 . S
C403 C404 1.358 . S
C403 C408 1.382 . S
C404 C403 1.358 . S
C404 C405 1.385 . S
C404 H432 0.930 . S
C405 C404 1.385 . S
C405 C406 1.395 . S
C405 H433 0.929 . S
C406 C405 1.395 . S
C406 C407 1.335 . S
C407 C406 1.335 . S
C407 C408 1.398 . S
C407 H434 0.930 . S
C408 C403 1.382 . S
C408 C407 1.398 . S
C408 H435 0.929 . S
C409 O422 1.271 . S
C409 O423 1.251 . S
C410 O424 1.252 . S
C410 O425 1.272 . S
C411 Sm401 2.846 . S
C411 C412 1.506 . S
C411 O426 1.261 . S
C411 O427 1.242 . S
C412 C411 1.506 . S
C412 C413 1.358 . S
C412 C417 1.382 . S
C413 C412 1.358 . S
C413 C414 1.385 . S
C413 H436 0.930 . S
C414 C413 1.385 . S
C414 C415 1.395 . S
C414 H437 0.929 . S
C415 C414 1.395 . S
C415 C416 1.335 . S
C416 C415 1.335 . S
C416 C417 1.398 . S
C416 H438 0.930 . S
C417 C412 1.382 . S
C417 C416 1.398 . S
C417 H439 0.929 . S
C418 O428 1.271 . S
C418 O429 1.251 . S
C419 O430 1.252 . S
C419 O431 1.272 . S
O420 Sm400 2.543 . S
O420 C402 1.261 . S
O421 Sm400 2.450 . S
O421 C402 1.242 . S
O422 Sm400 2.681 . S
O422 Sm401 2.386 1_565 S
O422 C409 1.271 . S
O423 Sm400 2.464 . S
O423 C409 1.251 . S
O424 Sm400 2.396 . S
O424 C410 1.252 . S
O425 Sm401 2.408 1_565 S
O425 C410 1.272 . S
O426 Sm401 2.543 . S
O426 C411 1.261 . S
O427 Sm401 2.450 . S
O427 C411 1.242 . S
O428 Sm400 2.386 1_545 S
O428 Sm401 2.681 . S
O428 C418 1.271 . S
O429 Sm401 2.464 . S
O429 C418 1.251 . S
O430 Sm401 2.396 . S
O430 C419 1.252 . S
O431 Sm400 2.408 1_545 S
O431 C419 1.272 . S
H432 C404 0.930 . S
H433 C405 0.929 . S
H434 C407 0.930 . S
H435 C408 0.929 . S
H436 C413 0.930 . S
H437 C414 0.929 . S
H438 C416 0.930 . S
H439 C417 0.929 . S
Sm440 C442 2.846 . S
Sm440 O460 2.543 . S
Sm440 O461 2.450 . S
Sm440 O462 2.681 . S
Sm440 O463 2.464 . S
Sm440 O464 2.396 . S
Sm440 O468 2.386 . S
Sm440 O471 2.408 . S
Sm441 C451 2.846 . S
Sm441 O462 2.386 . S
Sm441 O465 2.408 . S
Sm441 O466 2.543 . S
Sm441 O467 2.450 . S
Sm441 O468 2.681 . S
Sm441 O469 2.464 . S
Sm441 O470 2.396 . S
C442 Sm440 2.846 . S
C442 C443 1.506 . S
C442 O460 1.261 . S
C442 O461 1.242 . S
C443 C442 1.506 . S
C443 C444 1.358 . S
C443 C448 1.382 . S
C444 C443 1.358 . S
C444 C445 1.385 . S
C444 H472 0.930 . S
C445 C444 1.385 . S
C445 C446 1.395 . S
C445 H473 0.929 . S
C446 C445 1.395 . S
C446 C447 1.335 . S
C447 C446 1.335 . S
C447 C448 1.398 . S
C447 H474 0.930 . S
C448 C443 1.382 . S
C448 C447 1.398 . S
C448 H475 0.929 . S
C449 O462 1.271 . S
C449 O463 1.251 . S
C450 O464 1.252 . S
C450 O465 1.272 . S
C451 Sm441 2.846 . S
C451 C452 1.506 . S
C451 O466 1.261 . S
C451 O467 1.242 . S
C452 C451 1.506 . S
C452 C453 1.358 . S
C452 C457 1.382 . S
C453 C452 1.358 . S
C453 C454 1.385 . S
C453 H476 0.930 . S
C454 C453 1.385 . S
C454 C455 1.395 . S
C454 H477 0.929 . S
C455 C454 1.395 . S
C455 C456 1.335 . S
C456 C455 1.335 . S
C456 C457 1.398 . S
C456 H478 0.930 . S
C457 C452 1.382 . S
C457 C456 1.398 . S
C457 H479 0.929 . S
C458 O468 1.271 . S
C458 O469 1.251 . S
C459 O470 1.252 . S
C459 O471 1.272 . S
O460 Sm440 2.543 . S
O460 C442 1.261 . S
O461 Sm440 2.450 . S
O461 C442 1.242 . S
O462 Sm440 2.681 . S
O462 Sm441 2.386 . S
O462 C449 1.271 . S
O463 Sm440 2.464 . S
O463 C449 1.251 . S
O464 Sm440 2.396 . S
O464 C450 1.252 . S
O465 Sm441 2.408 . S
O465 C450 1.272 . S
O466 Sm441 2.543 . S
O466 C451 1.261 . S
O467 Sm441 2.450 . S
O467 C451 1.242 . S
O468 Sm440 2.386 . S
O468 Sm441 2.681 . S
O468 C458 1.271 . S
O469 Sm441 2.464 . S
O469 C458 1.251 . S
O470 Sm441 2.396 . S
O470 C459 1.252 . S
O471 Sm440 2.408 . S
O471 C459 1.272 . S
H472 C444 0.930 . S
H473 C445 0.929 . S
H474 C447 0.930 . S
H475 C448 0.929 . S
H476 C453 0.930 . S
H477 C454 0.929 . S
H478 C456 0.930 . S
H479 C457 0.929 . S
H480 C486 0.930 . S
H481 C490 0.930 . S
H482 C495 0.929 . S
H483 C493 0.929 . S
H484 C488 0.929 . S
H485 C494 0.929 . S
C486 H480 0.930 . S
C486 C487 1.367 . S
C486 C494 1.378 . S
C487 C486 1.367 . S
C487 C495 1.433 . S
C488 H484 0.929 . S
C488 C490 1.378 . S
C488 C492 1.350 . S
C489 C492 1.463 . S
C489 C494 1.350 . S
C489 N497 1.427 . S
C490 H481 0.930 . S
C490 C488 1.378 . S
C490 C491 1.367 . S
C491 C490 1.367 . S
C491 C493 1.433 . S
C492 C488 1.350 . S
C492 C489 1.463 . S
C492 N496 1.427 . S
C493 H483 0.929 . S
C493 C491 1.433 . S
C493 N496 1.384 . S
C494 H485 0.929 . S
C494 C486 1.378 . S
C494 C489 1.350 . S
C495 H482 0.929 . S
C495 C487 1.433 . S
C495 N497 1.384 . S
N496 C492 1.427 . S
N496 C493 1.384 . S
N497 C489 1.427 . S
N497 C495 1.384 . S
H498 C504 0.930 . S
H499 C508 0.930 . S
H500 C513 0.929 1_545 S
H501 C511 0.929 . S
H502 C506 0.929 . S
H503 C512 0.929 . S
C504 H498 0.930 . S
C504 C505 1.367 . S
C504 C512 1.378 . S
C505 C504 1.367 . S
C505 C513 1.433 . S
C506 H502 0.929 . S
C506 C508 1.378 . S
C506 C510 1.350 . S
C507 C510 1.463 . S
C507 C512 1.350 . S
C507 N515 1.427 . S
C508 H499 0.930 . S
C508 C506 1.378 . S
C508 C509 1.367 . S
C509 C508 1.367 . S
C509 C511 1.433 . S
C510 C506 1.350 . S
C510 C507 1.463 . S
C510 N514 1.427 . S
C511 H501 0.929 . S
C511 C509 1.433 . S
C511 N514 1.384 . S
C512 H503 0.929 . S
C512 C504 1.378 . S
C512 C507 1.350 . S
C513 H500 0.929 1_565 S
C513 C505 1.433 . S
C513 N515 1.384 . S
N514 C510 1.427 . S
N514 C511 1.384 . S
N515 C507 1.427 . S
N515 C513 1.384 . S
H516 C522 0.930 . S
H517 C526 0.930 . S
H518 C531 0.929 1_556 S
H519 C529 0.929 . S
H520 C524 0.929 . S
H521 C530 0.929 . S
C522 H516 0.930 . S
C522 C523 1.367 . S
C522 C530 1.378 . S
C523 C522 1.367 . S
C523 C531 1.433 . S
C524 H520 0.929 . S
C524 C526 1.378 . S
C524 C528 1.350 . S
C525 C528 1.463 . S
C525 C530 1.350 . S
C525 N533 1.427 . S
C526 H517 0.930 . S
C526 C524 1.378 . S
C526 C527 1.367 . S
C527 C526 1.367 . S
C527 C529 1.433 . S
C528 C524 1.350 . S
C528 C525 1.463 . S
C528 N532 1.427 . S
C529 H519 0.929 . S
C529 C527 1.433 . S
C529 N532 1.384 . S
C530 H521 0.929 . S
C530 C522 1.378 . S
C530 C525 1.350 . S
C531 H518 0.929 1_554 S
C531 C523 1.433 . S
C531 N533 1.384 . S
N532 C528 1.427 . S
N532 C529 1.384 . S
N533 C525 1.427 . S
N533 C531 1.384 . S
H534 C540 0.930 . S
H535 C544 0.930 . S
H536 C549 0.929 . S
H537 C547 0.929 . S
H538 C542 0.929 . S
H539 C548 0.929 . S
C540 H534 0.930 . S
C540 C541 1.367 . S
C540 C548 1.378 . S
C541 C540 1.367 . S
C541 C549 1.433 . S
C542 H538 0.929 . S
C542 C544 1.378 . S
C542 C546 1.350 . S
C543 C546 1.463 . S
C543 C548 1.350 . S
C543 N551 1.427 . S
C544 H535 0.930 . S
C544 C542 1.378 . S
C544 C545 1.367 . S
C545 C544 1.367 . S
C545 C547 1.433 . S
C546 C542 1.350 . S
C546 C543 1.463 . S
C546 N550 1.427 . S
C547 H537 0.929 . S
C547 C545 1.433 . S
C547 N550 1.384 . S
C548 H539 0.929 . S
C548 C540 1.378 . S
C548 C543 1.350 . S
C549 H536 0.929 . S
C549 C541 1.433 . S
C549 N551 1.384 . S
N550 C546 1.427 . S
N550 C547 1.384 . S
N551 C543 1.427 . S
N551 C549 1.384 . S
H552 C558 0.930 . S
H553 C562 0.930 . S
H554 C567 0.929 . S
H555 C565 0.929 . S
H556 C560 0.929 . S
H557 C566 0.929 . S
C558 H552 0.930 . S
C558 C559 1.367 . S
C558 C566 1.378 . S
C559 C558 1.367 . S
C559 C567 1.433 . S
C560 H556 0.929 . S
C560 C562 1.378 . S
C560 C564 1.350 . S
C561 C564 1.463 . S
C561 C566 1.350 . S
C561 N569 1.427 . S
C562 H553 0.930 . S
C562 C560 1.378 . S
C562 C563 1.367 . S
C563 C562 1.367 . S
C563 C565 1.433 . S
C564 C560 1.350 . S
C564 C561 1.463 . S
C564 N568 1.427 . S
C565 H555 0.929 . S
C565 C563 1.433 . S
C565 N568 1.384 . S
C566 H557 0.929 . S
C566 C558 1.378 . S
C566 C561 1.350 . S
C567 H554 0.929 . S
C567 C559 1.433 . S
C567 N569 1.384 . S
N568 C564 1.427 . S
N568 C565 1.384 . S
N569 C561 1.427 . S
N569 C567 1.384 . S
H570 C576 0.930 . S
H571 C580 0.930 . S
H572 C585 0.929 . S
H573 C583 0.929 . S
H574 C578 0.929 . S
H575 C584 0.929 . S
C576 H570 0.930 . S
C576 C577 1.367 . S
C576 C584 1.378 . S
C577 C576 1.367 . S
C577 C585 1.433 . S
C578 H574 0.929 . S
C578 C580 1.378 . S
C578 C582 1.350 . S
C579 C582 1.463 . S
C579 C584 1.350 . S
C579 N587 1.427 . S
C580 H571 0.930 . S
C580 C578 1.378 . S
C580 C581 1.367 . S
C581 C580 1.367 . S
C581 C583 1.433 . S
C582 C578 1.350 . S
C582 C579 1.463 . S
C582 N586 1.427 . S
C583 H573 0.929 . S
C583 C581 1.433 . S
C583 N586 1.384 . S
C584 H575 0.929 . S
C584 C576 1.378 . S
C584 C579 1.350 . S
C585 H572 0.929 . S
C585 C577 1.433 . S
C585 N587 1.384 . S
N586 C582 1.427 . S
N586 C583 1.384 . S
N587 C579 1.427 . S
N587 C585 1.384 . S
H588 C594 0.930 . S
H589 C598 0.930 1_554 S
H590 C603 0.929 . S
H591 C601 0.929 . S
H592 C596 0.929 . S
H593 C602 0.929 . S
C594 H588 0.930 . S
C594 C595 1.367 . S
C594 C602 1.378 . S
C595 C594 1.367 . S
C595 C603 1.433 . S
C596 H592 0.929 . S
C596 C598 1.378 . S
C596 C600 1.350 . S
C597 C600 1.463 . S
C597 C602 1.350 . S
C597 N605 1.427 . S
C598 H589 0.930 1_556 S
C598 C596 1.378 . S
C598 C599 1.367 . S
C599 C598 1.367 . S
C599 C601 1.433 . S
C600 C596 1.350 . S
C600 C597 1.463 . S
C600 N604 1.427 . S
C601 H591 0.929 . S
C601 C599 1.433 . S
C601 N604 1.384 . S
C602 H593 0.929 . S
C602 C594 1.378 . S
C602 C597 1.350 . S
C603 H590 0.929 . S
C603 C595 1.433 . S
C603 N605 1.384 . S
N604 C600 1.427 . S
N604 C601 1.384 . S
N605 C597 1.427 . S
N605 C603 1.384 . S
H606 C612 0.930 . S
H607 C616 0.930 . S
H608 C621 0.929 . S
H609 C619 0.929 . S
H610 C614 0.929 . S
H611 C620 0.929 . S
C612 H606 0.930 . S
C612 C613 1.367 . S
C612 C620 1.378 . S
C613 C612 1.367 . S
C613 C621 1.433 . S
C614 H610 0.929 . S
C614 C616 1.378 . S
C614 C618 1.350 . S
C615 C618 1.463 . S
C615 C620 1.350 . S
C615 N623 1.427 . S
C616 H607 0.930 . S
C616 C614 1.378 . S
C616 C617 1.367 . S
C617 C616 1.367 . S
C617 C619 1.433 . S
C618 C614 1.350 . S
C618 C615 1.463 . S
C618 N622 1.427 . S
C619 H609 0.929 . S
C619 C617 1.433 . S
C619 N622 1.384 . S
C620 H611 0.929 . S
C620 C612 1.378 . S
C620 C615 1.350 . S
C621 H608 0.929 . S
C621 C613 1.433 . S
C621 N623 1.384 . S
N622 C618 1.427 . S
N622 C619 1.384 . S
N623 C615 1.427 . S
N623 C621 1.384 . S
H624 C630 0.930 . S
H625 C634 0.930 . S
H626 C639 0.929 . S
H627 C637 0.929 . S
H628 C632 0.929 . S
H629 C638 0.929 . S
C630 H624 0.930 . S
C630 C631 1.367 . S
C630 C638 1.378 . S
C631 C630 1.367 . S
C631 C639 1.433 . S
C632 H628 0.929 . S
C632 C634 1.378 . S
C632 C636 1.350 . S
C633 C636 1.463 . S
C633 C638 1.350 . S
C633 N641 1.427 . S
C634 H625 0.930 . S
C634 C632 1.378 . S
C634 C635 1.367 . S
C635 C634 1.367 . S
C635 C637 1.433 . S
C636 C632 1.350 . S
C636 C633 1.463 . S
C636 N640 1.427 . S
C637 H627 0.929 . S
C637 C635 1.433 . S
C637 N640 1.384 . S
C638 H629 0.929 . S
C638 C630 1.378 . S
C638 C633 1.350 . S
C639 H626 0.929 . S
C639 C631 1.433 . S
C639 N641 1.384 . S
N640 C636 1.427 . S
N640 C637 1.384 . S
N641 C633 1.427 . S
N641 C639 1.384 . S
H642 C648 0.930 . S
H643 C652 0.930 . S
H644 C657 0.929 . S
H645 C655 0.929 . S
H646 C650 0.929 . S
H647 C656 0.929 . S
C648 H642 0.930 . S
C648 C649 1.367 . S
C648 C656 1.378 . S
C649 C648 1.367 . S
C649 C657 1.433 . S
C650 H646 0.929 . S
C650 C652 1.378 . S
C650 C654 1.350 . S
C651 C654 1.463 . S
C651 C656 1.350 . S
C651 N659 1.427 . S
C652 H643 0.930 . S
C652 C650 1.378 . S
C652 C653 1.367 . S
C653 C652 1.367 . S
C653 C655 1.433 . S
C654 C650 1.350 . S
C654 C651 1.463 . S
C654 N658 1.427 . S
C655 H645 0.929 . S
C655 C653 1.433 . S
C655 N658 1.384 . S
C656 H647 0.929 . S
C656 C648 1.378 . S
C656 C651 1.350 . S
C657 H644 0.929 . S
C657 C649 1.433 . S
C657 N659 1.384 . S
N658 C654 1.427 . S
N658 C655 1.384 . S
N659 C651 1.427 . S
N659 C657 1.384 . S
H660 C666 0.930 . S
H661 C670 0.930 . S
H662 C675 0.929 . S
H663 C673 0.929 . S
H664 C668 0.929 . S
H665 C674 0.929 . S
C666 H660 0.930 . S
C666 C667 1.367 . S
C666 C674 1.378 . S
C667 C666 1.367 . S
C667 C675 1.433 . S
C668 H664 0.929 . S
C668 C670 1.378 . S
C668 C672 1.350 . S
C669 C672 1.463 . S
C669 C674 1.350 . S
C669 N677 1.427 . S
C670 H661 0.930 . S
C670 C668 1.378 . S
C670 C671 1.367 . S
C671 C670 1.367 . S
C671 C673 1.433 . S
C672 C668 1.350 . S
C672 C669 1.463 . S
C672 N676 1.427 . S
C673 H663 0.929 . S
C673 C671 1.433 . S
C673 N676 1.384 . S
C674 H665 0.929 . S
C674 C666 1.378 . S
C674 C669 1.350 . S
C675 H662 0.929 . S
C675 C667 1.433 . S
C675 N677 1.384 . S
N676 C672 1.427 . S
N676 C673 1.384 . S
N677 C669 1.427 . S
N677 C675 1.384 . S
H678 C684 0.930 . S
H679 C688 0.930 . S
H680 C693 0.929 . S
H681 C691 0.929 . S
H682 C686 0.929 . S
H683 C692 0.929 . S
C684 H678 0.930 . S
C684 C685 1.367 . S
C684 C692 1.378 . S
C685 C684 1.367 . S
C685 C693 1.433 . S
C686 H682 0.929 . S
C686 C688 1.378 . S
C686 C690 1.350 . S
C687 C690 1.463 . S
C687 C692 1.350 . S
C687 N695 1.427 . S
C688 H679 0.930 . S
C688 C686 1.378 . S
C688 C689 1.367 . S
C689 C688 1.367 . S
C689 C691 1.433 . S
C690 C686 1.350 . S
C690 C687 1.463 . S
C690 N694 1.427 . S
C691 H681 0.929 . S
C691 C689 1.433 . S
C691 N694 1.384 . S
C692 H683 0.929 . S
C692 C684 1.378 . S
C692 C687 1.350 . S
C693 H680 0.929 . S
C693 C685 1.433 . S
C693 N695 1.384 . S
N694 C690 1.427 . S
N694 C691 1.384 . S
N695 C687 1.427 . S
N695 C693 1.384 . S
H696 C702 0.930 . S
H697 C706 0.930 . S
H698 C711 0.929 . S
H699 C709 0.929 . S
H700 C704 0.929 . S
H701 C710 0.929 . S
C702 H696 0.930 . S
C702 C703 1.367 . S
C702 C710 1.378 . S
C703 C702 1.367 . S
C703 C711 1.433 . S
C704 H700 0.929 . S
C704 C706 1.378 . S
C704 C708 1.350 . S
C705 C708 1.463 . S
C705 C710 1.350 . S
C705 N713 1.427 . S
C706 H697 0.930 . S
C706 C704 1.378 . S
C706 C707 1.367 . S
C707 C706 1.367 . S
C707 C709 1.433 . S
C708 C704 1.350 . S
C708 C705 1.463 . S
C708 N712 1.427 . S
C709 H699 0.929 . S
C709 C707 1.433 . S
C709 N712 1.384 . S
C710 H701 0.929 . S
C710 C702 1.378 . S
C710 C705 1.350 . S
C711 H698 0.929 . S
C711 C703 1.433 . S
C711 N713 1.384 . S
N712 C708 1.427 . S
N712 C709 1.384 . S
N713 C705 1.427 . S
N713 C711 1.384 . S
H714 C720 0.930 . S
H715 C724 0.940 . S
H716 C729 0.929 . S
H717 C727 0.929 . S
H718 C722 0.929 . S
H719 C728 0.929 . S
C720 H714 0.930 . S
C720 C721 1.367 . S
C720 C728 1.378 . S
C721 C720 1.367 . S
C721 C729 1.433 . S
C722 H718 0.929 . S
C722 C724 1.378 . S
C722 C726 1.350 . S
C723 C726 1.463 . S
C723 C728 1.350 . S
C723 N731 1.427 . S
C724 H715 0.940 . S
C724 C722 1.378 . S
C724 C725 1.367 . S
C725 C724 1.367 . S
C725 C727 1.433 . S
C726 C722 1.350 . S
C726 C723 1.463 . S
C726 N730 1.427 . S
C727 H717 0.929 . S
C727 C725 1.433 . S
C727 N730 1.384 . S
C728 H719 0.929 . S
C728 C720 1.378 . S
C728 C723 1.350 . S
C729 H716 0.929 . S
C729 C721 1.433 . S
C729 N731 1.384 . S
N730 C726 1.427 . S
N730 C727 1.384 . S
N731 C723 1.427 . S
N731 C729 1.384 . S
H732 C738 0.930 . S
H733 C742 0.930 . S
H734 C747 0.929 . S
H735 C745 0.929 . S
H736 C740 0.929 . S
H737 C746 0.929 . S
C738 H732 0.930 . S
C738 C739 1.367 . S
C738 C746 1.378 . S
C739 C738 1.367 . S
C739 C747 1.433 . S
C740 H736 0.929 . S
C740 C742 1.378 . S
C740 C744 1.350 . S
C741 C744 1.463 . S
C741 C746 1.350 . S
C741 N749 1.427 . S
C742 H733 0.930 . S
C742 C740 1.378 . S
C742 C743 1.367 . S
C743 C742 1.367 . S
C743 C745 1.433 . S
C744 C740 1.350 . S
C744 C741 1.463 . S
C744 N748 1.427 . S
C745 H735 0.929 . S
C745 C743 1.433 . S
C745 N748 1.384 . S
C746 H737 0.929 . S
C746 C738 1.378 . S
C746 C741 1.350 . S
C747 H734 0.929 . S
C747 C739 1.433 . S
C747 N749 1.384 . S
N748 C744 1.427 . S
N748 C745 1.384 . S
N749 C741 1.427 . S
N749 C747 1.384 . S
H750 C756 0.930 . S
H751 C760 0.930 . S
H752 C765 0.929 . S
H753 C763 0.929 . S
H754 C758 0.929 1_554 S
H755 C764 0.929 1_556 S
C756 H750 0.930 . S
C756 C757 1.367 . S
C756 C764 1.378 . S
C757 C756 1.367 . S
C757 C765 1.433 . S
C758 H754 0.929 1_556 S
C758 C760 1.378 . S
C758 C762 1.350 . S
C759 C762 1.463 1_554 S
C759 C764 1.350 . S
C759 N767 1.427 . S
C760 H751 0.930 . S
C760 C758 1.378 . S
C760 C761 1.367 . S
C761 C760 1.367 . S
C761 C763 1.433 . S
C762 C758 1.350 . S
C762 C759 1.463 1_556 S
C762 N766 1.427 . S
C763 H753 0.929 . S
C763 C761 1.433 . S
C763 N766 1.384 . S
C764 H755 0.929 1_554 S
C764 C756 1.378 . S
C764 C759 1.350 . S
C765 H752 0.929 . S
C765 C757 1.433 . S
C765 N767 1.384 . S
N766 C762 1.427 . S
N766 C763 1.384 . S
N767 C759 1.427 . S
N767 C765 1.384 . S
H768 C774 0.930 . S
H769 C778 0.930 . S
H770 C783 0.929 . S
H771 C781 0.929 . S
H772 C776 0.929 . S
H773 C782 0.929 . S
C774 H768 0.930 . S
C774 C775 1.367 . S
C774 C782 1.378 . S
C775 C774 1.367 . S
C775 C783 1.433 . S
C776 H772 0.929 . S
C776 C778 1.378 . S
C776 C780 1.350 . S
C777 C780 1.463 . S
C777 C782 1.350 . S
C777 N785 1.427 . S
C778 H769 0.930 . S
C778 C776 1.378 . S
C778 C779 1.367 . S
C779 C778 1.367 . S
C779 C781 1.433 . S
C780 C776 1.350 . S
C780 C777 1.463 . S
C780 N784 1.427 . S
C781 H771 0.929 . S
C781 C779 1.433 . S
C781 N784 1.384 . S
C782 H773 0.929 . S
C782 C774 1.378 . S
C782 C777 1.350 . S
C783 H770 0.929 . S
C783 C775 1.433 . S
C783 N785 1.384 . S
N784 C780 1.427 . S
N784 C781 1.384 . S
N785 C777 1.427 . S
N785 C783 1.384 . S
H786 C792 0.930 . S
H787 C796 0.930 . S
H788 C801 0.929 . S
H789 C799 0.929 . S
H790 C794 0.929 . S
H791 C800 0.929 1_556 S
C792 H786 0.930 . S
C792 C793 1.367 . S
C792 C800 1.378 . S
C793 C792 1.367 . S
C793 C801 1.433 . S
C794 H790 0.929 . S
C794 C796 1.378 . S
C794 C798 1.350 . S
C795 C798 1.463 . S
C795 C800 1.350 1_556 S
C795 N803 1.427 . S
C796 H787 0.930 . S
C796 C794 1.378 . S
C796 C797 1.367 . S
C797 C796 1.367 . S
C797 C799 1.433 . S
C798 C794 1.350 . S
C798 C795 1.463 . S
C798 N802 1.427 . S
C799 H789 0.929 . S
C799 C797 1.433 . S
C799 N802 1.384 . S
C800 H791 0.929 1_554 S
C800 C792 1.378 . S
C800 C795 1.350 1_554 S
C801 H788 0.929 . S
C801 C793 1.433 . S
C801 N803 1.384 1_554 S
N802 C798 1.427 . S
N802 C799 1.384 . S
N803 C795 1.427 . S
N803 C801 1.384 1_556 S
H804 C810 0.930 . S
H805 C814 0.930 . S
H806 C819 0.929 . S
H807 C817 0.929 . S
H808 C812 0.929 . S
H809 C818 0.929 . S
C810 H804 0.930 . S
C810 C811 1.367 . S
C810 C818 1.378 . S
C811 C810 1.367 . S
C811 C819 1.433 . S
C812 H808 0.929 . S
C812 C814 1.378 . S
C812 C816 1.350 . S
C813 C816 1.463 . S
C813 C818 1.350 . S
C813 N821 1.427 . S
C814 H805 0.930 . S
C814 C812 1.378 . S
C814 C815 1.367 . S
C815 C814 1.367 . S
C815 C817 1.433 . S
C816 C812 1.350 . S
C816 C813 1.463 . S
C816 N820 1.427 . S
C817 H807 0.929 . S
C817 C815 1.433 . S
C817 N820 1.384 . S
C818 H809 0.929 . S
C818 C810 1.378 . S
C818 C813 1.350 . S
C819 H806 0.929 . S
C819 C811 1.433 . S
C819 N821 1.384 . S
N820 C816 1.427 . S
N820 C817 1.384 . S
N821 C813 1.427 . S
N821 C819 1.384 . S
H822 C828 0.930 . S
H823 C832 0.930 . S
H824 C837 0.929 . S
H825 C835 0.929 . S
H826 C830 0.929 . S
H827 C836 0.929 . S
C828 H822 0.930 . S
C828 C829 1.367 . S
C828 C836 1.378 . S
C829 C828 1.367 . S
C829 C837 1.433 . S
C830 H826 0.929 . S
C830 C832 1.378 . S
C830 C834 1.350 . S
C831 C834 1.463 . S
C831 C836 1.350 . S
C831 N839 1.427 . S
C832 H823 0.930 . S
C832 C830 1.378 . S
C832 C833 1.367 . S
C833 C832 1.367 . S
C833 C835 1.433 . S
C834 C830 1.350 . S
C834 C831 1.463 . S
C834 N838 1.427 . S
C835 H825 0.929 . S
C835 C833 1.433 . S
C835 N838 1.384 . S
C836 H827 0.929 . S
C836 C828 1.378 . S
C836 C831 1.350 . S
C837 H824 0.929 . S
C837 C829 1.433 . S
C837 N839 1.384 . S
N838 C834 1.427 . S
N838 C835 1.384 . S
N839 C831 1.427 . S
N839 C837 1.384 . S
H840 C846 0.930 . S
H841 C850 0.930 . S
H842 C855 0.929 . S
H843 C853 0.929 . S
H844 C848 0.929 . S
H845 C854 0.929 . S
C846 H840 0.930 . S
C846 C847 1.367 . S
C846 C854 1.378 . S
C847 C846 1.367 . S
C847 C855 1.433 . S
C848 H844 0.929 . S
C848 C850 1.378 . S
C848 C852 1.350 . S
C849 C852 1.463 . S
C849 C854 1.350 . S
C849 N857 1.427 . S
C850 H841 0.930 . S
C850 C848 1.378 . S
C850 C851 1.367 . S
C851 C850 1.367 . S
C851 C853 1.433 . S
C852 C848 1.350 . S
C852 C849 1.463 . S
C852 N856 1.427 . S
C853 H843 0.929 . S
C853 C851 1.433 . S
C853 N856 1.384 . S
C854 H845 0.929 . S
C854 C846 1.378 . S
C854 C849 1.350 . S
C855 H842 0.929 . S
C855 C847 1.433 . S
C855 N857 1.384 . S
N856 C852 1.427 . S
N856 C853 1.384 . S
N857 C849 1.427 . S
N857 C855 1.384 . S
H858 C864 0.930 . S
H859 C868 0.930 . S
H860 C873 0.929 . S
H861 C871 0.929 . S
H862 C866 0.929 . S
H863 C872 0.929 . S
C864 H858 0.930 . S
C864 C865 1.367 . S
C864 C872 1.378 . S
C865 C864 1.367 . S
C865 C873 1.433 . S
C866 H862 0.929 . S
C866 C868 1.378 1_545 S
C866 C870 1.350 . S
C867 C870 1.463 . S
C867 C872 1.350 . S
C867 N875 1.427 . S
C868 H859 0.930 . S
C868 C866 1.378 1_565 S
C868 C869 1.367 . S
C869 C868 1.367 . S
C869 C871 1.433 . S
C870 C866 1.350 . S
C870 C867 1.463 . S
C870 N874 1.427 1_545 S
C871 H861 0.929 . S
C871 C869 1.433 . S
C871 N874 1.384 . S
C872 H863 0.929 . S
C872 C864 1.378 . S
C872 C867 1.350 . S
C873 H860 0.929 . S
C873 C865 1.433 . S
C873 N875 1.384 . S
N874 C870 1.427 1_565 S
N874 C871 1.384 . S
N875 C867 1.427 . S
N875 C873 1.384 . S
H876 C882 0.930 . S
H877 C886 0.930 . S
H878 C891 0.929 . S
H879 C889 0.929 . S
H880 C884 0.929 . S
H881 C890 0.929 . S
C882 H876 0.930 . S
C882 C883 1.367 . S
C882 C890 1.378 . S
C883 C882 1.367 . S
C883 C891 1.433 . S
C884 H880 0.929 . S
C884 C886 1.378 . S
C884 C888 1.350 . S
C885 C888 1.463 . S
C885 C890 1.350 . S
C885 N893 1.427 . S
C886 H877 0.930 . S
C886 C884 1.378 . S
C886 C887 1.367 . S
C887 C886 1.367 . S
C887 C889 1.433 . S
C888 C884 1.350 . S
C888 C885 1.463 . S
C888 N892 1.427 . S
C889 H879 0.929 . S
C889 C887 1.433 . S
C889 N892 1.384 . S
C890 H881 0.929 . S
C890 C882 1.378 . S
C890 C885 1.350 . S
C891 H878 0.929 . S
C891 C883 1.433 . S
C891 N893 1.384 . S
N892 C888 1.427 . S
N892 C889 1.384 . S
N893 C885 1.427 . S
N893 C891 1.384 . S
H894 C900 0.930 . S
H895 C904 0.930 . S
H896 C909 0.929 . S
H897 C907 0.929 . S
H898 C902 0.929 . S
H899 C908 0.929 . S
C900 H894 0.930 . S
C900 C901 1.367 . S
C900 C908 1.378 . S
C901 C900 1.367 . S
C901 C909 1.433 . S
C902 H898 0.929 . S
C902 C904 1.378 . S
C902 C906 1.350 . S
C903 C906 1.463 1_545 S
C903 C908 1.350 . S
C903 N911 1.427 . S
C904 H895 0.930 . S
C904 C902 1.378 . S
C904 C905 1.367 . S
C905 C904 1.367 . S
C905 C907 1.433 . S
C906 C902 1.350 . S
C906 C903 1.463 1_565 S
C906 N910 1.427 . S
C907 H897 0.929 . S
C907 C905 1.433 . S
C907 N910 1.384 . S
C908 H899 0.929 . S
C908 C900 1.378 . S
C908 C903 1.350 . S
C909 H896 0.929 . S
C909 C901 1.433 . S
C909 N911 1.384 . S
N910 C906 1.427 . S
N910 C907 1.384 . S
N911 C903 1.427 . S
N911 C909 1.384 . S
H912 C918 0.930 . S
H913 C922 0.930 . S
H914 C927 0.929 . S
H915 C925 0.929 . S
H916 C920 0.929 . S
H917 C926 0.929 . S
C918 H912 0.930 . S
C918 C919 1.367 . S
C918 C926 1.378 . S
C919 C918 1.367 . S
C919 C927 1.433 . S
C920 H916 0.929 . S
C920 C922 1.378 . S
C920 C924 1.350 . S
C921 C924 1.463 . S
C921 C926 1.350 . S
C921 N929 1.427 . S
C922 H913 0.930 . S
C922 C920 1.378 . S
C922 C923 1.367 . S
C923 C922 1.367 . S
C923 C925 1.433 . S
C924 C920 1.350 . S
C924 C921 1.463 . S
C924 N928 1.427 . S
C925 H915 0.929 . S
C925 C923 1.433 . S
C925 N928 1.384 . S
C926 H917 0.929 . S
C926 C918 1.378 . S
C926 C921 1.350 . S
C927 H914 0.929 . S
C927 C919 1.433 . S
C927 N929 1.384 . S
N928 C924 1.427 . S
N928 C925 1.384 . S
N929 C921 1.427 . S
N929 C927 1.384 . S
H930 C936 0.930 . S
H931 C940 0.930 . S
H932 C945 0.929 . S
H933 C943 0.929 . S
H934 C938 0.929 . S
H935 C944 0.929 . S
C936 H930 0.930 . S
C936 C937 1.367 . S
C936 C944 1.378 . S
C937 C936 1.367 . S
C937 C945 1.433 . S
C938 H934 0.929 . S
C938 C940 1.378 . S
C938 C942 1.350 . S
C939 C942 1.463 . S
C939 C944 1.350 . S
C939 N947 1.427 . S
C940 H931 0.930 . S
C940 C938 1.378 . S
C940 C941 1.367 . S
C941 C940 1.367 . S
C941 C943 1.433 . S
C942 C938 1.350 . S
C942 C939 1.463 . S
C942 N946 1.427 . S
C943 H933 0.929 . S
C943 C941 1.433 . S
C943 N946 1.384 . S
C944 H935 0.929 . S
C944 C936 1.378 . S
C944 C939 1.350 . S
C945 H932 0.929 . S
C945 C937 1.433 . S
C945 N947 1.384 . S
N946 C942 1.427 . S
N946 C943 1.384 . S
N947 C939 1.427 . S
N947 C945 1.384 . S
H948 C954 0.930 . S
H949 C958 0.930 . S
H950 C963 0.929 . S
H951 C961 0.929 . S
H952 C956 0.929 . S
H953 C962 0.929 . S
C954 H948 0.930 . S
C954 C955 1.367 . S
C954 C962 1.378 . S
C955 C954 1.367 . S
C955 C963 1.433 . S
C956 H952 0.929 . S
C956 C958 1.378 . S
C956 C960 1.350 . S
C957 C960 1.463 . S
C957 C962 1.350 . S
C957 N965 1.427 . S
C958 H949 0.930 . S
C958 C956 1.378 . S
C958 C959 1.367 . S
C959 C958 1.367 . S
C959 C961 1.433 . S
C960 C956 1.350 . S
C960 C957 1.463 . S
C960 N964 1.427 . S
C961 H951 0.929 . S
C961 C959 1.433 . S
C961 N964 1.384 . S
C962 H953 0.929 . S
C962 C954 1.378 . S
C962 C957 1.350 . S
C963 H950 0.929 . S
C963 C955 1.433 . S
C963 N965 1.384 . S
N964 C960 1.427 . S
N964 C961 1.384 . S
N965 C957 1.427 . S
N965 C963 1.384 . S
H966 C972 0.930 . S
H967 C976 0.930 . S
H968 C981 0.929 . S
H969 C979 0.929 . S
H970 C974 0.929 . S
H971 C980 0.929 . S
C972 H966 0.930 . S
C972 C973 1.367 . S
C972 C980 1.378 . S
C973 C972 1.367 . S
C973 C981 1.433 . S
C974 H970 0.929 . S
C974 C976 1.378 . S
C974 C978 1.350 . S
C975 C978 1.463 . S
C975 C980 1.350 . S
C975 N983 1.427 . S
C976 H967 0.930 . S
C976 C974 1.378 . S
C976 C977 1.367 . S
C977 C976 1.367 . S
C977 C979 1.433 . S
C978 C974 1.350 . S
C978 C975 1.463 . S
C978 N982 1.427 . S
C979 H969 0.929 . S
C979 C977 1.433 . S
C979 N982 1.384 . S
C980 H971 0.929 . S
C980 C972 1.378 . S
C980 C975 1.350 . S
C981 H968 0.929 . S
C981 C973 1.433 . S
C981 N983 1.384 . S
N982 C978 1.427 . S
N982 C979 1.384 . S
N983 C975 1.427 . S
N983 C981 1.384 . S
H984 C990 0.930 . S
H985 C994 0.930 . S
H986 C999 0.929 . S
H987 C997 0.929 . S
H988 C992 0.929 . S
H989 C998 0.929 . S
C990 H984 0.930 . S
C990 C991 1.367 . S
C990 C998 1.378 . S
C991 C990 1.367 . S
C991 C999 1.433 . S
C992 H988 0.929 . S
C992 C994 1.378 . S
C992 C996 1.350 . S
C993 C996 1.463 . S
C993 C998 1.350 . S
C993 N1001 1.427 . S
C994 H985 0.930 . S
C994 C992 1.378 . S
C994 C995 1.367 . S
C995 C994 1.367 . S
C995 C997 1.433 . S
C996 C992 1.350 . S
C996 C993 1.463 . S
C996 N1000 1.427 . S
C997 H987 0.929 . S
C997 C995 1.433 . S
C997 N1000 1.384 . S
C998 H989 0.929 . S
C998 C990 1.378 . S
C998 C993 1.350 . S
C999 H986 0.929 . S
C999 C991 1.433 . S
C999 N1001 1.384 . S
N1000 C996 1.427 . S
N1000 C997 1.384 . S
N1001 C993 1.427 . S
N1001 C999 1.384 . S
H1002 C1008 0.930 . S
H1003 C1012 0.930 . S
H1004 C1017 0.929 . S
H1005 C1015 0.929 . S
H1006 C1010 0.929 . S
H1007 C1016 0.929 . S
C1008 H1002 0.930 . S
C1008 C1009 1.367 . S
C1008 C1016 1.378 . S
C1009 C1008 1.367 . S
C1009 C1017 1.433 . S
C1010 H1006 0.929 . S
C1010 C1012 1.378 . S
C1010 C1014 1.350 . S
C1011 C1014 1.463 . S
C1011 C1016 1.350 . S
C1011 N1019 1.427 . S
C1012 H1003 0.930 . S
C1012 C1010 1.378 . S
C1012 C1013 1.367 . S
C1013 C1012 1.367 . S
C1013 C1015 1.433 . S
C1014 C1010 1.350 . S
C1014 C1011 1.463 . S
C1014 N1018 1.427 . S
C1015 H1005 0.929 . S
C1015 C1013 1.433 . S
C1015 N1018 1.384 . S
C1016 H1007 0.929 . S
C1016 C1008 1.378 . S
C1016 C1011 1.350 . S
C1017 H1004 0.929 . S
C1017 C1009 1.433 . S
C1017 N1019 1.384 . S
N1018 C1014 1.427 . S
N1018 C1015 1.384 . S
N1019 C1011 1.427 . S
N1019 C1017 1.384 . S
H1020 C1026 0.930 . S
H1021 C1030 0.930 . S
H1022 C1035 0.929 . S
H1023 C1033 0.929 . S
H1024 C1028 0.929 1_455 S
H1025 C1034 0.929 . S
C1026 H1020 0.930 . S
C1026 C1027 1.367 . S
C1026 C1034 1.378 . S
C1027 C1026 1.367 . S
C1027 C1035 1.433 . S
C1028 H1024 0.929 1_655 S
C1028 C1030 1.378 . S
C1028 C1032 1.350 . S
C1029 C1032 1.463 1_455 S
C1029 C1034 1.350 . S
C1029 N1037 1.427 . S
C1030 H1021 0.930 . S
C1030 C1028 1.378 . S
C1030 C1031 1.367 . S
C1031 C1030 1.367 . S
C1031 C1033 1.433 . S
C1032 C1028 1.350 . S
C1032 C1029 1.463 1_655 S
C1032 N1036 1.427 . S
C1033 H1023 0.929 . S
C1033 C1031 1.433 . S
C1033 N1036 1.384 . S
C1034 H1025 0.929 . S
C1034 C1026 1.378 . S
C1034 C1029 1.350 . S
C1035 H1022 0.929 . S
C1035 C1027 1.433 . S
C1035 N1037 1.384 . S
N1036 C1032 1.427 . S
N1036 C1033 1.384 . S
N1037 C1029 1.427 . S
N1037 C1035 1.384 . S
H1038 C1044 0.930 . S
H1039 C1048 0.930 . S
H1040 C1053 0.929 . S
H1041 C1051 0.929 . S
H1042 C1046 0.929 . S
H1043 C1052 0.929 . S
C1044 H1038 0.930 . S
C1044 C1045 1.367 . S
C1044 C1052 1.378 . S
C1045 C1044 1.367 . S
C1045 C1053 1.433 . S
C1046 H1042 0.929 . S
C1046 C1048 1.378 . S
C1046 C1050 1.350 . S
C1047 C1050 1.463 . S
C1047 C1052 1.350 . S
C1047 N1055 1.427 . S
C1048 H1039 0.930 . S
C1048 C1046 1.378 . S
C1048 C1049 1.367 . S
C1049 C1048 1.367 . S
C1049 C1051 1.433 . S
C1050 C1046 1.350 . S
C1050 C1047 1.463 . S
C1050 N1054 1.427 . S
C1051 H1041 0.929 . S
C1051 C1049 1.433 . S
C1051 N1054 1.384 . S
C1052 H1043 0.929 . S
C1052 C1044 1.378 . S
C1052 C1047 1.350 . S
C1053 H1040 0.929 . S
C1053 C1045 1.433 . S
C1053 N1055 1.384 . S
N1054 C1050 1.427 . S
N1054 C1051 1.384 . S
N1055 C1047 1.427 . S
N1055 C1053 1.384 . S
H1056 C1062 0.930 . S
H1057 C1066 0.930 . S
H1058 C1071 0.929 . S
H1059 C1069 0.929 . S
H1060 C1064 0.929 . S
H1061 C1070 0.929 . S
C1062 H1056 0.930 . S
C1062 C1063 1.367 . S
C1062 C1070 1.378 . S
C1063 C1062 1.367 . S
C1063 C1071 1.433 . S
C1064 H1060 0.929 . S
C1064 C1066 1.378 . S
C1064 C1068 1.350 . S
C1065 C1068 1.463 . S
C1065 C1070 1.350 . S
C1065 N1073 1.427 . S
C1066 H1057 0.930 . S
C1066 C1064 1.378 . S
C1066 C1067 1.367 . S
C1067 C1066 1.367 . S
C1067 C1069 1.433 . S
C1068 C1064 1.350 . S
C1068 C1065 1.463 . S
C1068 N1072 1.427 . S
C1069 H1059 0.929 . S
C1069 C1067 1.433 . S
C1069 N1072 1.384 . S
C1070 H1061 0.929 . S
C1070 C1062 1.378 . S
C1070 C1065 1.350 . S
C1071 H1058 0.929 . S
C1071 C1063 1.433 . S
C1071 N1073 1.384 . S
N1072 C1068 1.427 . S
N1072 C1069 1.384 . S
N1073 C1065 1.427 . S
N1073 C1071 1.384 . S
H1074 C1080 0.930 . S
H1075 C1084 0.930 . S
H1076 C1089 0.929 . S
H1077 C1087 0.929 . S
H1078 C1082 0.929 . S
H1079 C1088 0.929 . S
C1080 H1074 0.930 . S
C1080 C1081 1.367 . S
C1080 C1088 1.378 . S
C1081 C1080 1.367 . S
C1081 C1089 1.433 . S
C1082 H1078 0.929 . S
C1082 C1084 1.378 . S
C1082 C1086 1.350 . S
C1083 C1086 1.463 . S
C1083 C1088 1.350 . S
C1083 N1091 1.427 . S
C1084 H1075 0.930 . S
C1084 C1082 1.378 . S
C1084 C1085 1.367 . S
C1085 C1084 1.367 . S
C1085 C1087 1.433 . S
C1086 C1082 1.350 . S
C1086 C1083 1.463 . S
C1086 N1090 1.427 . S
C1087 H1077 0.929 . S
C1087 C1085 1.433 . S
C1087 N1090 1.384 . S
C1088 H1079 0.929 . S
C1088 C1080 1.378 . S
C1088 C1083 1.350 . S
C1089 H1076 0.929 . S
C1089 C1081 1.433 . S
C1089 N1091 1.384 . S
N1090 C1086 1.427 . S
N1090 C1087 1.384 . S
N1091 C1083 1.427 . S
N1091 C1089 1.384 . S
H1092 C1098 0.930 . S
H1093 C1102 0.930 . S
H1094 C1107 0.929 . S
H1095 C1105 0.929 . S
H1096 C1100 0.929 . S
H1097 C1106 0.929 . S
C1098 H1092 0.930 . S
C1098 C1099 1.367 . S
C1098 C1106 1.378 . S
C1099 C1098 1.367 . S
C1099 C1107 1.433 . S
C1100 H1096 0.929 . S
C1100 C1102 1.378 . S
C1100 C1104 1.350 . S
C1101 C1104 1.463 . S
C1101 C1106 1.350 . S
C1101 N1109 1.427 . S
C1102 H1093 0.930 . S
C1102 C1100 1.378 . S
C1102 C1103 1.367 . S
C1103 C1102 1.367 . S
C1103 C1105 1.433 . S
C1104 C1100 1.350 . S
C1104 C1101 1.463 . S
C1104 N1108 1.427 . S
C1105 H1095 0.929 . S
C1105 C1103 1.433 . S
C1105 N1108 1.384 . S
C1106 H1097 0.929 . S
C1106 C1098 1.378 . S
C1106 C1101 1.350 . S
C1107 H1094 0.929 . S
C1107 C1099 1.433 . S
C1107 N1109 1.384 . S
N1108 C1104 1.427 . S
N1108 C1105 1.384 . S
N1109 C1101 1.427 . S
N1109 C1107 1.384 . S
H1110 C1116 0.930 . S
H1111 C1120 0.930 . S
H1112 C1125 0.929 . S
H1113 C1123 0.929 . S
H1114 C1118 0.910 1_655 S
H1115 C1124 0.929 . S
C1116 H1110 0.930 . S
C1116 C1117 1.367 . S
C1116 C1124 1.378 . S
C1117 C1116 1.367 . S
C1117 C1125 1.433 . S
C1118 H1114 0.910 1_455 S
C1118 C1120 1.408 . S
C1118 C1122 1.339 1_455 S
C1119 C1122 1.463 . S
C1119 C1124 1.350 . S
C1119 N1127 1.427 . S
C1120 H1111 0.930 . S
C1120 C1118 1.408 . S
C1120 C1121 1.367 . S
C1121 C1120 1.367 . S
C1121 C1123 1.433 . S
C1122 C1118 1.339 1_655 S
C1122 C1119 1.463 . S
C1122 N1126 1.427 1_655 S
C1123 H1113 0.929 . S
C1123 C1121 1.433 . S
C1123 N1126 1.384 . S
C1124 H1115 0.929 . S
C1124 C1116 1.378 . S
C1124 C1119 1.350 . S
C1125 H1112 0.929 . S
C1125 C1117 1.433 . S
C1125 N1127 1.384 . S
N1126 C1122 1.427 1_455 S
N1126 C1123 1.384 . S
N1127 C1119 1.427 . S
N1127 C1125 1.384 . S
C487 C18 1.051 . S
C491 C458 1.058 . S
C505 C379 1.664 . S
C509 C58 1.749 . S
C523 C99 1.273 . S
C527 C338 1.326 . S
C541 C138 2.042 . S
C545 C418 2.038 . S
C559 C178 1.667 . S
C563 C419 1.616 . S
C577 C219 1.448 . S
C581 C459 1.467 . S
C595 C378 1.817 . S
C599 C258 1.819 . S
C613 C299 1.676 . S
C617 C339 1.729 . S
C631 C139 1.724 . S
C635 C179 1.777 . S
C649 C19 1.550 . S
C653 C218 1.637 . S
C667 C59 1.603 . S
C671 C259 1.617 . S
C685 C298 1.896 . S
C689 C98 1.896 . S
C703 C6 1.601 . S
C707 C329 1.492 . S
C721 C46 1.825 . S
C725 C409 1.739 . S
C739 C449 1.945 . S
C743 C95 1.971 . S
C757 C126 1.556 . S
C761 C370 1.524 . S
C775 C166 1.233 . S
C779 C369 1.181 . S
C793 C330 1.942 . S
C797 C215 1.860 . S
C811 C410 1.364 . S
C815 C246 1.370 . S
C829 C450 2.666 . S
C833 C295 2.567 . S
C847 C10 2.761 . S
C851 C135 2.658 . S
C865 C15 1.984 . S
C869 C50 2.056 . S
C883 C55 2.284 . S
C887 C89 2.254 . S
C901 C130 1.687 . S
C905 C86 1.725 . S
C919 C206 1.463 . S
C923 C170 1.441 . S
C937 C209 1.279 . S
C941 C255 1.328 . S
C955 C250 1.469 . S
C959 C286 1.493 . S
C973 C175 0.849 . S
C977 C289 0.841 . S
C991 C335 0.812 . S
C995 C129 0.809 . S
C1009 C210 1.670 . S
C1013 C375 1.614 . S
C1027 C326 1.371 . S
C1031 C249 1.301 . S
C1045 C406 1.824 . S
C1049 C290 1.802 . S
C1063 C169 1.263 . S
C1067 C446 1.331 . S
C1081 C455 1.696 . S
C1085 C49 1.649 . S
C1099 C90 1.512 . S
C1103 C366 1.536 . S
C1117 C415 1.763 . S
C1121 C9 1.730 . S
