# Generated by pormake.
# Topology umy, (4)-cn, num edge types: 1
# Building blocks:
#     Node 0, Type 0, BuildingBlock: QUQFOY_clean_sbu_1, # of connection points: 4
#     Node 1, Type 0, BuildingBlock: QUQFOY_clean_sbu_1, # of connection points: 4
#     Node 2, Type 0, BuildingBlock: QUQFOY_clean_sbu_1, # of connection points: 4
#     Node 3, Type 0, BuildingBlock: QUQFOY_clean_sbu_1, # of connection points: 4
#     Node 4, Type 0, BuildingBlock: QUQFOY_clean_sbu_1, # of connection points: 4
#     Node 5, Type 0, BuildingBlock: QUQFOY_clean_sbu_1, # of connection points: 4
#     Node 6, Type 0, BuildingBlock: QUQFOY_clean_sbu_1, # of connection points: 4
#     Node 7, Type 0, BuildingBlock: QUQFOY_clean_sbu_1, # of connection points: 4
#     Node 8, Type 0, BuildingBlock: QUQFOY_clean_sbu_1, # of connection points: 4
#     Node 9, Type 0, BuildingBlock: QUQFOY_clean_sbu_1, # of connection points: 4
#     Node 10, Type 0, BuildingBlock: QUQFOY_clean_sbu_1, # of connection points: 4
#     Node 11, Type 0, BuildingBlock: QUQFOY_clean_sbu_1, # of connection points: 4
#     Edge 12, Type (0, 0), BuildingBlock: UVAHIK_clean_linker_0, # of connection points: 2
#     Edge 13, Type (0, 0), BuildingBlock: UVAHIK_clean_linker_0, # of connection points: 2
#     Edge 14, Type (0, 0), BuildingBlock: UVAHIK_clean_linker_0, # of connection points: 2
#     Edge 15, Type (0, 0), BuildingBlock: UVAHIK_clean_linker_0, # of connection points: 2
#     Edge 16, Type (0, 0), BuildingBlock: UVAHIK_clean_linker_0, # of connection points: 2
#     Edge 17, Type (0, 0), BuildingBlock: UVAHIK_clean_linker_0, # of connection points: 2
#     Edge 18, Type (0, 0), BuildingBlock: UVAHIK_clean_linker_0, # of connection points: 2
#     Edge 19, Type (0, 0), BuildingBlock: UVAHIK_clean_linker_0, # of connection points: 2
#     Edge 20, Type (0, 0), BuildingBlock: UVAHIK_clean_linker_0, # of connection points: 2
#     Edge 21, Type (0, 0), BuildingBlock: UVAHIK_clean_linker_0, # of connection points: 2
#     Edge 22, Type (0, 0), BuildingBlock: UVAHIK_clean_linker_0, # of connection points: 2
#     Edge 23, Type (0, 0), BuildingBlock: UVAHIK_clean_linker_0, # of connection points: 2
#     Edge 24, Type (0, 0), BuildingBlock: UVAHIK_clean_linker_0, # of connection points: 2
#     Edge 25, Type (0, 0), BuildingBlock: UVAHIK_clean_linker_0, # of connection points: 2
#     Edge 26, Type (0, 0), BuildingBlock: UVAHIK_clean_linker_0, # of connection points: 2
#     Edge 27, Type (0, 0), BuildingBlock: UVAHIK_clean_linker_0, # of connection points: 2
#     Edge 28, Type (0, 0), BuildingBlock: UVAHIK_clean_linker_0, # of connection points: 2
#     Edge 29, Type (0, 0), BuildingBlock: UVAHIK_clean_linker_0, # of connection points: 2
#     Edge 30, Type (0, 0), BuildingBlock: UVAHIK_clean_linker_0, # of connection points: 2
#     Edge 31, Type (0, 0), BuildingBlock: UVAHIK_clean_linker_0, # of connection points: 2
#     Edge 32, Type (0, 0), BuildingBlock: UVAHIK_clean_linker_0, # of connection points: 2
#     Edge 33, Type (0, 0), BuildingBlock: UVAHIK_clean_linker_0, # of connection points: 2
#     Edge 34, Type (0, 0), BuildingBlock: UVAHIK_clean_linker_0, # of connection points: 2
#     Edge 35, Type (0, 0), BuildingBlock: UVAHIK_clean_linker_0, # of connection points: 2
# Relax obj value: 0.088
# Max RMSD: 0.117
# Mean RMSD: 0.117
data_MOF--net-umy--node1-QUQFOY_clean_sbu_1--edge1-UVAHIK_clean_linker_0
_symmetry_space_group_name_H-M    P1
_symmetry_Int_Tables_number       1
_symmetry_cell_setting            triclinic
loop_
_symmetry_equiv_pos_as_xyz
'x, y, z'
_cell_length_a     52.795409
_cell_length_b     52.844499
_cell_length_c     66.073943
_cell_angle_alpha  89.995352
_cell_angle_beta   89.997258
_cell_angle_gamma 119.95649
loop_
_atom_site_label
_atom_site_type_symbol
_atom_site_fract_x
_atom_site_fract_y
_atom_site_fract_z
_atom_type_partial_charge
O0 O 0.02285 0.33343 0.14447 0.0
Cd1 Cd 0.06358 0.36932 0.13916 0.0
Cd2 Cd 0.07387 0.32606 0.12482 0.0
O3 O 0.02972 0.29924 0.13085 0.0
O4 O 0.05697 0.40295 0.14335 0.0
O5 O 0.0723 0.39466 0.11431 0.0
C6 C 0.06487 0.41051 0.12486 0.0
C7 C 0.09449 0.32157 0.09463 0.0
C8 C 0.01325 0.3068 0.13986 0.0
C9 C 0.10845 0.36071 0.16119 0.0
O10 O 0.10182 0.33931 0.14935 0.0
O11 O 0.09641 0.37623 0.15921 0.0
O12 O 0.08508 0.30155 0.10833 0.0
O13 O 0.09126 0.34395 0.09767 0.0
O14 O 0.69888 0.01195 0.30827 0.0
Cd15 Cd 0.69898 0.05108 0.30662 0.0
Cd16 Cd 0.75602 0.07092 0.29294 0.0
O17 O 0.74413 0.02766 0.29798 0.0
O18 O 0.65704 0.04014 0.30861 0.0
O19 O 0.68466 0.0632 0.28217 0.0
C20 C 0.65958 0.05196 0.29112 0.0
C21 C 0.78562 0.09581 0.265 0.0
C22 C 0.71978 0.0072 0.30452 0.0
C23 C 0.74742 0.09741 0.33138 0.0
O24 O 0.7647 0.09684 0.31824 0.0
O25 O 0.71997 0.08067 0.32969 0.0
O26 O 0.79555 0.08838 0.28031 0.0
O27 O 0.75823 0.08807 0.26508 0.0
O28 O 0.68092 0.69379 0.47951 0.0
Cd29 Cd 0.64592 0.69948 0.47242 0.0
Cd30 Cd 0.69048 0.75202 0.45787 0.0
O31 O 0.71584 0.73329 0.4647 0.0
O32 O 0.61059 0.66047 0.47693 0.0
O33 O 0.62225 0.68196 0.44701 0.0
C34 C 0.60457 0.65991 0.45799 0.0
C35 C 0.69627 0.77658 0.42723 0.0
C36 C 0.70765 0.70983 0.47464 0.0
C37 C 0.65531 0.75426 0.49301 0.0
O38 O 0.67769 0.76823 0.48182 0.0
O39 O 0.63893 0.72684 0.49093 0.0
O40 O 0.71612 0.78697 0.44106 0.0
O41 O 0.67333 0.75143 0.43041 0.0
O42 O 0.99267 0.67695 0.64532 0.0
Cd43 Cd 0.95096 0.64223 0.64011 0.0
Cd44 Cd 0.94435 0.68743 0.62549 0.0
O45 O 0.98903 0.71201 0.62984 0.0
O46 O 0.95426 0.60666 0.64464 0.0
O47 O 0.94198 0.61709 0.61514 0.0
C48 C 0.94703 0.59973 0.62598 0.0
C49 C 0.9215 0.69252 0.59659 0.0
C50 C 1.00412 0.70344 0.63962 0.0
C51 C 0.91025 0.65567 0.66284 0.0
O52 O 0.91919 0.67769 0.65126 0.0
O53 O 0.91867 0.63722 0.66012 0.0
O54 O 0.93288 0.71266 0.61017 0.0
O55 O 0.92448 0.66984 0.59882 0.0
O56 O 0.31793 0.99313 0.81044 0.0
Cd57 Cd 0.3178 0.95408 0.80736 0.0
Cd58 Cd 0.2613 0.93571 0.79302 0.0
O59 O 0.27348 0.9788 0.79898 0.0
O60 O 0.35962 0.96483 0.80998 0.0
O61 O 0.33342 0.94425 0.78251 0.0
C62 C 0.35803 0.95469 0.79201 0.0
C63 C 0.23252 0.91212 0.76451 0.0
C64 C 0.29753 0.99853 0.80645 0.0
C65 C 0.26819 0.90625 0.83048 0.0
O66 O 0.25146 0.90846 0.81766 0.0
O67 O 0.29576 0.92243 0.82912 0.0
O68 O 0.22228 0.91926 0.77978 0.0
O69 O 0.25983 0.91955 0.76491 0.0
O70 O 0.32825 0.3147 0.97737 0.0
Cd71 Cd 0.36519 0.31092 0.97393 0.0
Cd72 Cd 0.32471 0.25613 0.95878 0.0
O73 O 0.29649 0.2719 0.9644 0.0
O74 O 0.3991 0.35099 0.97812 0.0
O75 O 0.3911 0.32695 0.9493 0.0
C76 C 0.40717 0.35016 0.95985 0.0
C77 C 0.31982 0.22994 0.92899 0.0
C78 C 0.30213 0.29596 0.97258 0.0
C79 C 0.35788 0.25799 0.99643 0.0
O80 O 0.33829 0.2424 0.98361 0.0
O81 O 0.37156 0.28567 0.99496 0.0
O82 O 0.30034 0.21958 0.94304 0.0
O83 O 0.34198 0.25582 0.93147 0.0
O84 O 0.69049 0.99628 0.6915 0.0
Cd85 Cd 0.65132 0.95731 0.69298 0.0
Cd86 Cd 0.68785 0.93717 0.70702 0.0
O87 O 0.71963 0.98038 0.70232 0.0
O88 O 0.62058 0.96855 0.69072 0.0
O89 O 0.62474 0.94551 0.71733 0.0
C90 C 0.61114 0.95691 0.70824 0.0
C91 C 0.69088 0.91177 0.73526 0.0
C92 C 0.716 1.00092 0.69559 0.0
C93 C 0.6536 0.91101 0.66829 0.0
O94 O 0.67131 0.91153 0.68154 0.0
O95 O 0.64281 0.92769 0.66993 0.0
O96 O 0.70896 0.91921 0.72038 0.0
O97 O 0.67147 0.91982 0.73459 0.0
O98 O 0.69307 0.67668 0.85717 0.0
Cd99 Cd 0.70127 0.64305 0.86376 0.0
Cd100 Cd 0.7521 0.68916 0.87768 0.0
O101 O 0.73073 0.71245 0.87297 0.0
O102 O 0.663 0.60659 0.85957 0.0
O103 O 0.68521 0.61907 0.88923 0.0
C104 C 0.66317 0.60077 0.87848 0.0
C105 C 0.77821 0.69384 0.9074 0.0
C106 C 0.70732 0.70326 0.86276 0.0
C107 C 0.75594 0.65732 0.84123 0.0
O108 O 0.76855 0.68021 0.85206 0.0
O109 O 0.72944 0.63818 0.84453 0.0
O110 O 0.78709 0.71483 0.89447 0.0
O111 O 0.75364 0.67033 0.9039 0.0
O112 O 0.02007 0.69877 0.02325 0.0
Cd113 Cd 0.05954 0.69979 0.02688 0.0
Cd114 Cd 0.07677 0.75576 0.041 0.0
O115 O 0.03375 0.74321 0.03428 0.0
O116 O 0.04964 0.65825 0.02443 0.0
O117 O 0.0695 0.68471 0.05193 0.0
C118 C 0.05968 0.66015 0.04248 0.0
C119 C 0.09818 0.78255 0.07061 0.0
C120 C 0.0143 0.719 0.02686 0.0
C121 C 0.10783 0.74988 0.00424 0.0
O122 O 0.10517 0.7665 0.01691 0.0
O123 O 0.09167 0.72232 0.0055 0.0
O124 O 0.09203 0.79378 0.05541 0.0
O125 O 0.09128 0.75546 0.06934 0.0
O126 O 0.33132 0.01582 0.19111 0.0
Cd127 Cd 0.36827 0.05626 0.19491 0.0
Cd128 Cd 0.32729 0.06927 0.21021 0.0
O129 O 0.29906 0.0251 0.20539 0.0
O130 O 0.40124 0.04857 0.19077 0.0
O131 O 0.3945 0.06608 0.21937 0.0
C132 C 0.40963 0.05759 0.20898 0.0
C133 C 0.32491 0.09154 0.24025 0.0
C134 C 0.30519 0.00747 0.1965 0.0
C135 C 0.36009 0.10095 0.17237 0.0
O136 O 0.33997 0.096 0.18501 0.0
O137 O 0.37481 0.08799 0.17401 0.0
O138 O 0.30449 0.08247 0.22685 0.0
O139 O 0.34652 0.08713 0.23694 0.0
O140 O 0.3195 0.32542 0.3572 0.0
Cd141 Cd 0.31662 0.36291 0.35995 0.0
Cd142 Cd 0.26022 0.32242 0.37334 0.0
O143 O 0.27508 0.29343 0.36779 0.0
O144 O 0.35736 0.39613 0.35699 0.0
O145 O 0.33136 0.38831 0.38488 0.0
C146 C 0.35543 0.40408 0.37509 0.0
C147 C 0.23098 0.31663 0.40169 0.0
C148 C 0.29992 0.29918 0.3609 0.0
C149 C 0.26602 0.358 0.33588 0.0
O150 O 0.24943 0.3385 0.34841 0.0
O151 O 0.29363 0.37068 0.33785 0.0
O152 O 0.22142 0.29872 0.38667 0.0
O153 O 0.25793 0.33735 0.40115 0.0
O154 O 0.99064 0.31452 0.52134 0.0
Cd155 Cd 0.94967 0.30833 0.52814 0.0
Cd156 Cd 0.94168 0.25571 0.54229 0.0
O157 O 0.98574 0.27444 0.53541 0.0
O158 O 0.9531 0.34736 0.52427 0.0
O159 O 0.94247 0.32465 0.55376 0.0
C160 C 0.94695 0.34707 0.54317 0.0
C161 C 0.92304 0.2311 0.57292 0.0
C162 C 1.0012 0.29824 0.52589 0.0
C163 C 0.90464 0.25386 0.50704 0.0
O164 O 0.91272 0.23971 0.51833 0.0
O165 O 0.91583 0.28129 0.50916 0.0
O166 O 0.93238 0.2207 0.55902 0.0
O167 O 0.92524 0.25627 0.5698 0.0
C168 C 0.07854 0.63858 0.06823 0.0
C169 C 0.06015 0.63488 0.05175 0.0
C170 C 0.0797 0.61464 0.07625 0.0
C171 C 0.03696 0.5354 0.08165 0.0
H172 H 0.11137 0.53835 0.08863 0.0
C173 C 0.04968 0.44831 0.12602 0.0
C174 C 0.065 0.43642 0.11621 0.0
C175 C 0.04946 0.47267 0.11805 0.0
C176 C 0.09046 0.53725 0.0867 0.0
H177 H 0.02821 0.60318 0.03102 0.0
H178 H 0.02972 0.5614 0.04537 0.0
H179 H 0.11018 0.58116 0.07542 0.0
H180 H 0.09243 0.44099 0.09047 0.0
H181 H 0.09254 0.48419 0.07671 0.0
H182 H 0.01723 0.4917 0.09316 0.0
C183 C 0.0434 0.5828 0.05194 0.0
C184 C 0.0898 0.56176 0.07932 0.0
C185 C 0.04263 0.60675 0.0437 0.0
C186 C 0.08037 0.44962 0.09832 0.0
C187 C 0.08056 0.47438 0.09052 0.0
C188 C 0.03765 0.51113 0.08936 0.0
C189 C 0.06208 0.58652 0.06819 0.0
C190 C 0.06302 0.56099 0.07663 0.0
C191 C 0.06493 0.486 0.10026 0.0
C192 C 0.06439 0.51176 0.09189 0.0
H193 H 0.09237 0.66002 0.07469 0.0
H194 H 0.09416 0.61803 0.08887 0.0
H195 H 0.01603 0.53427 0.07979 0.0
H196 H 0.03759 0.43863 0.13981 0.0
H197 H 0.0374 0.4813 0.12592 0.0
C198 C 0.60605 0.03457 0.28947 0.0
C199 C 0.6344 0.05274 0.28191 0.0
C200 C 0.58216 0.0355 0.28124 0.0
C201 C 0.56123 0.08267 0.25451 0.0
H202 H 0.49148 0.01026 0.23997 0.0
C203 C 0.44922 0.0735 0.23523 0.0
C204 C 0.43571 0.05784 0.2175 0.0
C205 C 0.47406 0.07372 0.24296 0.0
C206 C 0.51082 0.03065 0.24394 0.0
H207 H 0.65995 0.08631 0.25985 0.0
H208 H 0.61804 0.08829 0.24566 0.0
H209 H 0.53405 0.00903 0.25331 0.0
H210 H 0.43753 0.03 0.19408 0.0
H211 H 0.48037 0.02996 0.2078 0.0
H212 H 0.53775 0.10422 0.24533 0.0
C213 C 0.61444 0.07324 0.25791 0.0
C214 C 0.5351 0.02993 0.25166 0.0
C215 C 0.63835 0.07196 0.26594 0.0
C216 C 0.44742 0.04231 0.20776 0.0
C217 C 0.47189 0.04217 0.21565 0.0
C218 C 0.53672 0.08334 0.24708 0.0
C219 C 0.5861 0.05494 0.26546 0.0
C220 C 0.56058 0.05592 0.25697 0.0
C221 C 0.4855 0.05788 0.2333 0.0
C222 C 0.51133 0.05733 0.24164 0.0
H223 H 0.60226 0.01951 0.30175 0.0
H224 H 0.5606 0.02131 0.28745 0.0
H225 H 0.58052 0.103 0.25863 0.0
H226 H 0.44075 0.08573 0.24304 0.0
H227 H 0.48405 0.08589 0.25667 0.0
C228 C 0.57415 0.63071 0.42834 0.0
C229 C 0.57816 0.6346 0.44937 0.0
C230 C 0.54947 0.60621 0.42043 0.0
C231 C 0.49045 0.53161 0.435 0.0
H232 H 0.45416 0.53734 0.38552 0.0
C233 C 0.3805 0.43713 0.40471 0.0
C234 C 0.38008 0.43073 0.38403 0.0
C235 C 0.40409 0.46231 0.41296 0.0
C236 C 0.46417 0.5354 0.39931 0.0
H237 H 0.55903 0.61624 0.47857 0.0
H238 H 0.51578 0.57422 0.46487 0.0
H239 H 0.49627 0.58086 0.39928 0.0
H240 H 0.40392 0.44591 0.35575 0.0
H241 H 0.44477 0.48982 0.37009 0.0
H242 H 0.45797 0.48618 0.4351 0.0
C243 C 0.53199 0.5895 0.4544 0.0
C244 C 0.48841 0.56031 0.40716 0.0
C245 C 0.55676 0.61377 0.46228 0.0
C246 C 0.40357 0.45015 0.37176 0.0
C247 C 0.42691 0.47543 0.37993 0.0
C248 C 0.46603 0.50679 0.42725 0.0
C249 C 0.52809 0.58519 0.43337 0.0
C250 C 0.50199 0.55875 0.42507 0.0
C251 C 0.42751 0.48175 0.40063 0.0
C252 C 0.45274 0.50837 0.40927 0.0
H253 H 0.59031 0.64633 0.418 0.0
H254 H 0.54747 0.60349 0.40416 0.0
H255 H 0.50059 0.52934 0.44859 0.0
H256 H 0.36273 0.42261 0.41456 0.0
H257 H 0.40388 0.46673 0.42895 0.0
C258 C 0.94196 0.56731 0.59657 0.0
C259 C 0.94488 0.57277 0.6175 0.0
C260 C 0.9409 0.54216 0.58873 0.0
C261 C 0.95951 0.48492 0.60213 0.0
H262 H 0.91043 0.4444 0.55606 0.0
C263 C 0.94274 0.37398 0.5732 0.0
C264 C 0.94511 0.37179 0.55217 0.0
C265 C 0.94159 0.39778 0.5815 0.0
C266 C 0.92437 0.45559 0.56887 0.0
H267 H 0.94819 0.55572 0.64664 0.0
H268 H 0.94558 0.51173 0.6331 0.0
H269 H 0.91035 0.48722 0.56979 0.0
H270 H 0.94772 0.39267 0.52335 0.0
H271 H 0.94555 0.43394 0.53781 0.0
H272 H 0.97327 0.45305 0.60128 0.0
C273 C 0.9449 0.52713 0.62262 0.0
C274 C 0.92442 0.48022 0.5767 0.0
C275 C 0.9462 0.55233 0.63041 0.0
C276 C 0.94594 0.39369 0.53962 0.0
C277 C 0.9445 0.41727 0.54789 0.0
C278 C 0.95926 0.46016 0.5944 0.0
C279 C 0.94251 0.5218 0.60166 0.0
C280 C 0.9421 0.49531 0.5934 0.0
C281 C 0.94246 0.41969 0.56892 0.0
C282 C 0.94182 0.44531 0.57762 0.0
H283 H 0.94098 0.58268 0.58622 0.0
H284 H 0.93942 0.53901 0.57249 0.0
H285 H 0.97382 0.49623 0.61475 0.0
H286 H 0.94202 0.35746 0.58327 0.0
H287 H 0.9398 0.39895 0.59777 0.0
C288 C 0.57507 0.97442 0.7093 0.0
C289 C 0.58535 0.95659 0.71735 0.0
C290 C 0.55049 0.97401 0.71751 0.0
C291 C 0.48323 0.92854 0.74577 0.0
H292 H 0.4862 1.00187 0.75769 0.0
C293 C 0.38083 0.93788 0.76571 0.0
C294 C 0.38374 0.95491 0.78284 0.0
C295 C 0.40522 0.93758 0.75763 0.0
C296 C 0.48506 0.98123 0.75446 0.0
H297 H 0.57778 0.92419 0.74027 0.0
H298 H 0.53436 0.92316 0.75446 0.0
H299 H 0.52948 1.00219 0.74423 0.0
H300 H 0.41456 0.98525 0.80475 0.0
H301 H 0.45705 0.98512 0.79042 0.0
H302 H 0.43866 0.90761 0.75588 0.0
C303 C 0.54551 0.93752 0.74182 0.0
C304 C 0.50976 0.98142 0.74666 0.0
C305 C 0.57043 0.93824 0.73378 0.0
C306 C 0.41156 0.97188 0.79155 0.0
C307 C 0.43594 0.97191 0.78331 0.0
C308 C 0.45834 0.92836 0.7533 0.0
C309 C 0.53536 0.95548 0.73379 0.0
C310 C 0.50914 0.95509 0.7423 0.0
C311 C 0.43303 0.95468 0.76633 0.0
C312 C 0.45907 0.95472 0.7578 0.0
H313 H 0.58607 0.98882 0.69665 0.0
H314 H 0.54303 0.98792 0.71091 0.0
H315 H 0.48209 0.90794 0.74239 0.0
H316 H 0.35967 0.92451 0.75871 0.0
H317 H 0.40241 0.92425 0.74445 0.0
C318 C 0.44097 0.3767 0.93082 0.0
C319 C 0.4342 0.37509 0.95151 0.0
C320 C 0.46643 0.4006 0.92315 0.0
C321 C 0.52271 0.47716 0.93585 0.0
H322 H 0.56614 0.46665 0.89253 0.0
C323 C 0.63535 0.57015 0.90846 0.0
C324 C 0.63853 0.57407 0.88739 0.0
C325 C 0.61124 0.54538 0.91667 0.0
C326 C 0.55415 0.46993 0.90458 0.0
H327 H 0.44919 0.39701 0.98044 0.0
H328 H 0.49373 0.43805 0.96724 0.0
H329 H 0.52244 0.42438 0.90599 0.0
H330 H 0.61924 0.55472 0.85841 0.0
H331 H 0.57749 0.51153 0.87271 0.0
H332 H 0.5547 0.52269 0.93455 0.0
C333 C 0.47912 0.42137 0.95677 0.0
C334 C 0.529 0.44572 0.91224 0.0
C335 C 0.45359 0.39768 0.96438 0.0
C336 C 0.61743 0.55242 0.87471 0.0
C337 C 0.59357 0.52756 0.8829 0.0
C338 C 0.548 0.50129 0.92832 0.0
C339 C 0.48584 0.42331 0.93602 0.0
C340 C 0.51284 0.44901 0.92793 0.0
C341 C 0.59005 0.52386 0.90395 0.0
C342 C 0.56391 0.49798 0.91253 0.0
H343 H 0.42643 0.35968 0.92051 0.0
H344 H 0.47062 0.40147 0.90705 0.0
H345 H 0.51061 0.48072 0.94766 0.0
H346 H 0.65122 0.58643 0.91862 0.0
H347 H 0.60922 0.543 0.93296 0.0
C348 C 0.10483 0.29212 0.06997 0.0
C349 C 0.11038 0.31954 0.07684 0.0
C350 C 0.12237 0.28991 0.05505 0.0
C351 C 0.18289 0.33342 0.01799 0.0
H352 H 0.19819 0.26959 0.02608 0.0
C353 C 0.28326 0.32771 0.98659 0.0
C354 C 0.27772 0.30063 0.97877 0.0
C355 C 0.2607 0.33071 0.99528 0.0
C356 C 0.19388 0.28733 0.02345 0.0
H357 H 0.13805 0.36624 0.07304 0.0
H358 H 0.16963 0.36257 0.04766 0.0
H359 H 0.16299 0.27339 0.04753 0.0
H360 H 0.24372 0.25591 0.97305 0.0
H361 H 0.20462 0.26114 0.98848 0.0
H362 H 0.21536 0.34801 0.99449 0.0
C363 C 0.15121 0.34262 0.05328 0.0
C364 C 0.17349 0.28948 0.0357 0.0
C365 C 0.13316 0.34479 0.06791 0.0
C366 C 0.24884 0.27707 0.97894 0.0
C367 C 0.22642 0.27999 0.98786 0.0
C368 C 0.20375 0.33151 0.00593 0.0
C369 C 0.14651 0.3151 0.04699 0.0
C370 C 0.1676 0.31252 0.03319 0.0
C371 C 0.23225 0.30662 0.99656 0.0
C372 C 0.2094 0.30841 0.00855 0.0
H373 H 0.08719 0.27227 0.07643 0.0
H374 H 0.1173 0.26832 0.05018 0.0
H375 H 0.17878 0.35126 0.01534 0.0
H376 H 0.30523 0.34632 0.98666 0.0
H377 H 0.26582 0.35147 0.00194 0.0
C378 C 0.83608 0.12654 0.25129 0.0
C379 C 0.80574 0.1143 0.24874 0.0
C380 C 0.85561 0.14621 0.23714 0.0
C381 C 0.86556 0.17173 0.185 0.0
H382 H 0.92679 0.24437 0.20775 0.0
C383 C 0.97362 0.25432 0.14398 0.0
C384 C 0.98398 0.28424 0.14727 0.0
C385 C 0.94834 0.23308 0.15379 0.0
C386 C 0.90969 0.22434 0.20111 0.0
H387 H 0.77212 0.11227 0.22883 0.0
H388 H 0.80657 0.14647 0.20374 0.0
H389 H 0.88983 0.20763 0.22993 0.0
H390 H 0.97461 0.31512 0.16241 0.0
H391 H 0.93082 0.27815 0.17951 0.0
H392 H 0.88609 0.18836 0.15617 0.0
C393 C 0.81502 0.14084 0.21687 0.0
C394 C 0.88868 0.20321 0.21384 0.0
C395 C 0.79536 0.12136 0.23124 0.0
C396 C 0.96748 0.29234 0.15962 0.0
C397 C 0.94241 0.27115 0.16951 0.0
C398 C 0.88696 0.19279 0.17223 0.0
C399 C 0.84535 0.15391 0.21995 0.0
C400 C 0.86654 0.17661 0.20597 0.0
C401 C 0.93305 0.24133 0.16719 0.0
C402 C 0.90929 0.21929 0.1802 0.0
H403 H 0.84489 0.12159 0.26455 0.0
H404 H 0.87886 0.1557 0.23977 0.0
H405 H 0.84874 0.15135 0.17858 0.0
H406 H 0.98571 0.24727 0.13454 0.0
H407 H 0.94169 0.21025 0.15176 0.0
C408 C 0.7268 0.81647 0.40289 0.0
C409 C 0.6991 0.79429 0.40913 0.0
C410 C 0.72957 0.83603 0.38766 0.0
C411 C 0.68779 0.85179 0.34841 0.0
H412 H 0.74872 0.93166 0.35837 0.0
C413 C 0.68966 0.95522 0.31632 0.0
C414 C 0.71684 0.97865 0.3102 0.0
C415 C 0.68773 0.93004 0.3248 0.0
C416 C 0.73186 0.90942 0.35517 0.0
H417 H 0.65256 0.7745 0.40381 0.0
H418 H 0.65718 0.80933 0.37779 0.0
H419 H 0.74495 0.8929 0.38003 0.0
H420 H 0.76304 0.99314 0.30714 0.0
H421 H 0.75963 0.94934 0.3221 0.0
H422 H 0.67397 0.86908 0.32408 0.0
C423 C 0.67693 0.81128 0.38422 0.0
C424 C 0.72972 0.88704 0.36757 0.0
C425 C 0.67422 0.7913 0.39921 0.0
C426 C 0.74176 0.9756 0.31172 0.0
C427 C 0.73987 0.95057 0.32041 0.0
C428 C 0.68971 0.87435 0.33615 0.0
C429 C 0.70466 0.8344 0.37859 0.0
C430 C 0.7076 0.85786 0.36447 0.0
C431 C 0.71297 0.92786 0.32753 0.0
C432 C 0.71173 0.90342 0.33946 0.0
H433 H 0.7464 0.8191 0.41011 0.0
H434 H 0.75133 0.85288 0.38335 0.0
H435 H 0.67072 0.82963 0.34531 0.0
H436 H 0.67001 0.95678 0.31531 0.0
H437 H 0.66672 0.91295 0.33023 0.0
C438 C 0.75939 0.7196 0.47703 0.0
C439 C 0.72975 0.70278 0.48255 0.0
C440 C 0.7807 0.71553 0.48673 0.0
C441 C 0.7941 0.69426 0.53594 0.0
H442 H 0.85906 0.69158 0.51066 0.0
C443 C 0.89602 0.71661 0.58072 0.0
C444 C 0.9034 0.69446 0.58015 0.0
C445 C 0.87601 0.71671 0.56697 0.0
C446 C 0.84095 0.69221 0.51786 0.0
H447 H 0.69923 0.6674 0.50188 0.0
H448 H 0.73641 0.66068 0.51889 0.0
H449 H 0.82083 0.69179 0.48947 0.0
H450 H 0.89659 0.65586 0.56396 0.0
H451 H 0.86187 0.65649 0.5395 0.0
H452 H 0.81439 0.69547 0.56424 0.0
C453 C 0.74311 0.67704 0.5071 0.0
C454 C 0.81921 0.69246 0.50578 0.0
C455 C 0.72181 0.68084 0.49727 0.0
C456 C 0.89134 0.6732 0.56481 0.0
C457 C 0.87154 0.67357 0.55081 0.0
C458 C 0.81599 0.69455 0.54794 0.0
C459 C 0.77283 0.69481 0.50229 0.0
C460 C 0.79556 0.69347 0.51474 0.0
C461 C 0.86315 0.69491 0.55213 0.0
C462 C 0.8397 0.69366 0.53905 0.0
H463 H 0.76627 0.73663 0.46572 0.0
H464 H 0.80346 0.72961 0.48277 0.0
H465 H 0.77632 0.69537 0.54327 0.0
H466 H 0.90488 0.73337 0.59229 0.0
H467 H 0.87013 0.73358 0.56819 0.0
C468 C 0.04604 0.75501 0.64255 0.0
C469 C 0.03394 0.72504 0.64675 0.0
C470 C 0.07168 0.77576 0.65226 0.0
C471 C 0.10833 0.78451 0.70047 0.0
H472 H 0.17163 0.85562 0.67749 0.0
C473 C 0.18245 0.8828 0.74989 0.0
C474 C 0.21273 0.89405 0.74797 0.0
C475 C 0.16307 0.86318 0.73567 0.0
C476 C 0.15416 0.83575 0.68404 0.0
H477 H 0.04066 0.69339 0.66333 0.0
H478 H 0.08514 0.72953 0.68021 0.0
H479 H 0.13429 0.81852 0.65514 0.0
H480 H 0.24649 0.89448 0.72902 0.0
H481 H 0.21233 0.86033 0.7038 0.0
H482 H 0.12753 0.80184 0.72933 0.0
C483 C 0.07461 0.73697 0.6696 0.0
C484 C 0.13277 0.81464 0.6713 0.0
C485 C 0.04915 0.71626 0.65983 0.0
C486 C 0.22328 0.88617 0.73094 0.0
C487 C 0.20378 0.8667 0.7165 0.0
C488 C 0.12935 0.80568 0.71315 0.0
C489 C 0.08562 0.76697 0.66644 0.0
C490 C 0.10956 0.78884 0.67943 0.0
C491 C 0.17345 0.85451 0.71903 0.0
C492 C 0.15231 0.83164 0.70512 0.0
H493 H 0.03499 0.76257 0.63252 0.0
H494 H 0.0796 0.79873 0.64956 0.0
H495 H 0.09055 0.76506 0.70724 0.0
H496 H 0.17351 0.88843 0.76275 0.0
H497 H 0.13982 0.85441 0.73784 0.0
C498 C 0.27582 0.0302 0.81426 0.0
C499 C 0.30061 0.02693 0.81271 0.0
C500 C 0.27782 0.0551 0.82325 0.0
C501 C 0.32791 0.13096 0.83929 0.0
H502 H 0.27281 0.11225 0.88328 0.0
C503 C 0.34238 0.21487 0.9015 0.0
C504 C 0.31735 0.21162 0.91133 0.0
C505 C 0.34001 0.1946 0.88685 0.0
C506 C 0.288 0.11816 0.8708 0.0
H507 H 0.34733 0.04825 0.81819 0.0
H508 H 0.35082 0.09193 0.8336 0.0
H509 H 0.26923 0.07351 0.86168 0.0
H510 H 0.2701 0.18598 0.91255 0.0
H511 H 0.26572 0.15173 0.88635 0.0
H512 H 0.34658 0.17571 0.84828 0.0
C513 C 0.32983 0.07508 0.82797 0.0
C514 C 0.28598 0.09579 0.85844 0.0
C515 C 0.32778 0.04999 0.81921 0.0
C516 C 0.28982 0.18881 0.90539 0.0
C517 C 0.28738 0.16898 0.89048 0.0
C518 C 0.32968 0.15351 0.85148 0.0
C519 C 0.30471 0.07748 0.83064 0.0
C520 C 0.30603 0.10186 0.84268 0.0
C521 C 0.31247 0.17094 0.88146 0.0
C522 C 0.30988 0.1474 0.86755 0.0
H523 H 0.25456 0.01292 0.80941 0.0
H524 H 0.25815 0.05651 0.82493 0.0
H525 H 0.3436 0.13626 0.82717 0.0
H526 H 0.36391 0.23216 0.90588 0.0
H527 H 0.35989 0.19683 0.88045 0.0
C528 C 0.67541 0.71505 0.84128 0.0
C529 C 0.69874 0.72432 0.85502 0.0
C530 C 0.67056 0.7354 0.83104 0.0
C531 C 0.68875 0.8128 0.82889 0.0
H532 H 0.68349 0.79998 0.77087 0.0
C533 C 0.67256 0.8851 0.76845 0.0
C534 C 0.69145 0.89292 0.75169 0.0
C535 C 0.67179 0.86526 0.78292 0.0
C536 C 0.68487 0.80383 0.78704 0.0
H537 H 0.73387 0.76227 0.86987 0.0
H538 H 0.72527 0.79775 0.85201 0.0
H539 H 0.68327 0.76341 0.79341 0.0
H540 H 0.72491 0.88664 0.73734 0.0
H541 H 0.72325 0.85202 0.76229 0.0
H542 H 0.69078 0.85362 0.82226 0.0
C543 C 0.71079 0.7747 0.84915 0.0
C544 C 0.68446 0.78276 0.79998 0.0
C545 C 0.71577 0.75434 0.85934 0.0
C546 C 0.71002 0.88109 0.75 0.0
C547 C 0.70899 0.8611 0.76425 0.0
C548 C 0.68878 0.83381 0.81588 0.0
C549 C 0.68878 0.76549 0.83437 0.0
C550 C 0.68676 0.78711 0.82103 0.0
C551 C 0.68958 0.85262 0.78068 0.0
C552 C 0.68736 0.82972 0.7948 0.0
H553 H 0.66168 0.69212 0.83767 0.0
H554 H 0.65312 0.7276 0.81997 0.0
H555 H 0.69046 0.8167 0.84505 0.0
H556 H 0.658 0.89385 0.77019 0.0
H557 H 0.6566 0.85905 0.79545 0.0
C558 C 0.8189 0.72375 0.93142 0.0
C559 C 0.79699 0.69618 0.92477 0.0
C560 C 0.83929 0.72626 0.94593 0.0
C561 C 0.85767 0.68369 0.98273 0.0
H562 H 0.93664 0.74682 0.97299 0.0
C563 C 0.96312 0.6882 0.0136 0.0
C564 C 0.98572 0.71541 0.02043 0.0
C565 C 0.93772 0.6857 0.005 0.0
C566 C 0.91466 0.7293 0.97611 0.0
H567 H 0.77862 0.64955 0.9286 0.0
H568 H 0.81483 0.6538 0.95336 0.0
H569 H 0.8969 0.74276 0.95221 0.0
H570 H 0.9986 0.76105 0.02439 0.0
H571 H 0.95446 0.75667 0.00921 0.0
H572 H 0.87616 0.66964 0.00611 0.0
C573 C 0.81595 0.6736 0.9478 0.0
C574 C 0.89172 0.72699 0.96422 0.0
C575 C 0.79517 0.67111 0.93353 0.0
C576 C 0.98171 0.73977 0.01927 0.0
C577 C 0.95649 0.73732 0.01047 0.0
C578 C 0.88078 0.6858 0.99447 0.0
C579 C 0.83874 0.70125 0.95386 0.0
C580 C 0.86285 0.70414 0.9673 0.0
C581 C 0.93451 0.7104 0.00284 0.0
C582 C 0.90953 0.70863 0.99124 0.0
H583 H 0.82066 0.74349 0.9251 0.0
H584 H 0.85586 0.74793 0.9506 0.0
H585 H 0.83576 0.66602 0.98579 0.0
H586 H 0.96543 0.66897 0.01431 0.0
H587 H 0.92123 0.66469 0.99917 0.0
C588 C 0.25216 0.96837 0.19571 0.0
C589 C 0.28136 0.97812 0.19028 0.0
C590 C 0.22937 0.94273 0.18733 0.0
C591 C 0.21329 0.87716 0.15597 0.0
H592 H 0.14718 0.88419 0.13803 0.0
C593 C 0.12289 0.78977 0.10447 0.0
C594 C 0.11408 0.80093 0.08831 0.0
C595 C 0.13996 0.80812 0.12025 0.0
C596 C 0.1655 0.88184 0.14288 0.0
H597 H 0.3095 0.9676 0.17256 0.0
H598 H 0.27001 0.9236 0.15768 0.0
H599 H 0.18393 0.92165 0.15967 0.0
H600 H 0.11577 0.83998 0.07635 0.0
H601 H 0.1457 0.87181 0.10341 0.0
H602 H 0.19569 0.83824 0.13809 0.0
C603 C 0.26454 0.93534 0.16864 0.0
C604 C 0.18643 0.90318 0.15559 0.0
C605 C 0.28729 0.9608 0.17712 0.0
C606 C 0.12207 0.83059 0.08856 0.0
C607 C 0.13911 0.84887 0.10424 0.0
C608 C 0.19243 0.8559 0.14311 0.0
C609 C 0.2352 0.92633 0.17321 0.0
C610 C 0.21101 0.90153 0.16194 0.0
C611 C 0.14859 0.83802 0.1202 0.0
C612 C 0.16865 0.85837 0.13598 0.0
H613 H 0.24678 0.98102 0.20593 0.0
H614 H 0.20711 0.93617 0.19156 0.0
H615 H 0.23161 0.87483 0.16083 0.0
H616 H 0.11706 0.767 0.10474 0.0
H617 H 0.14658 0.79894 0.13241 0.0
C618 C 0.35003 0.12772 0.26826 0.0
C619 C 0.32417 0.10815 0.25807 0.0
C620 C 0.34965 0.14623 0.2833 0.0
C621 C 0.30194 0.15774 0.31838 0.0
H622 H 0.35471 0.24018 0.30881 0.0
C623 C 0.2814 0.24679 0.35173 0.0
C624 C 0.30509 0.27501 0.35507 0.0
C625 C 0.28583 0.22501 0.34331 0.0
C626 C 0.34023 0.21729 0.31213 0.0
H627 H 0.27746 0.09152 0.25641 0.0
H628 H 0.27673 0.12327 0.28293 0.0
H629 H 0.35887 0.20414 0.28841 0.0
H630 H 0.35226 0.30191 0.35346 0.0
H631 H 0.36018 0.26368 0.33963 0.0
H632 H 0.28325 0.17071 0.3421 0.0
C633 C 0.2973 0.12449 0.27921 0.0
C634 C 0.34261 0.19661 0.30032 0.0
C635 C 0.29775 0.10641 0.26395 0.0
C636 C 0.33349 0.28047 0.35088 0.0
C637 C 0.33799 0.25856 0.34277 0.0
C638 C 0.29983 0.17841 0.33042 0.0
C639 C 0.32332 0.14507 0.28872 0.0
C640 C 0.32308 0.16665 0.30301 0.0
C641 C 0.31415 0.23074 0.33829 0.0
C642 C 0.3185 0.20854 0.32715 0.0
H643 H 0.37073 0.12964 0.26401 0.0
H644 H 0.37001 0.16181 0.29046 0.0
H645 H 0.28677 0.13475 0.32091 0.0
H646 H 0.25921 0.24186 0.35465 0.0
H647 H 0.26682 0.20411 0.33989 0.0
C648 C 0.22062 0.3335 0.4348 0.0
C649 C 0.21074 0.31458 0.41802 0.0
C650 C 0.20064 0.33319 0.44896 0.0
C651 C 0.12536 0.31762 0.45157 0.0
H652 H 0.13064 0.31243 0.50983 0.0
C653 C 0.04523 0.32869 0.5043 0.0
C654 C 0.03042 0.30546 0.51801 0.0
C655 C 0.07035 0.33278 0.49432 0.0
C656 C 0.129 0.314 0.49359 0.0
H657 H 0.17219 0.27984 0.40339 0.0
H658 H 0.13763 0.27968 0.42781 0.0
H659 H 0.16847 0.31271 0.48795 0.0
H660 H 0.03169 0.26952 0.53294 0.0
H661 H 0.07578 0.27692 0.51557 0.0
H662 H 0.08601 0.31876 0.45698 0.0
C663 C 0.16075 0.29475 0.43001 0.0
C664 C 0.15067 0.3143 0.48112 0.0
C665 C 0.18062 0.29478 0.41608 0.0
C666 C 0.04245 0.28757 0.52242 0.0
C667 C 0.06779 0.29185 0.51254 0.0
C668 C 0.10405 0.31778 0.46399 0.0
C669 C 0.17045 0.31427 0.44639 0.0
C670 C 0.14877 0.31567 0.45996 0.0
C671 C 0.08145 0.31394 0.49792 0.0
C672 C 0.10543 0.31568 0.48511 0.0
H673 H 0.24367 0.349 0.43673 0.0
H674 H 0.20867 0.34849 0.46146 0.0
H675 H 0.12348 0.31894 0.43532 0.0
H676 H 0.03674 0.34301 0.50058 0.0
H677 H 0.08065 0.35023 0.48332 0.0
C678 C 0.88654 0.21648 0.60111 0.0
C679 C 0.90828 0.2134 0.59106 0.0
C680 C 0.86942 0.19655 0.61617 0.0
C681 C 0.84648 0.12079 0.63282 0.0
H682 H 0.80909 0.13897 0.67647 0.0
C683 C 0.76966 0.03226 0.68858 0.0
C684 C 0.74177 0.02942 0.69007 0.0
C685 C 0.79293 0.05726 0.67998 0.0
C686 C 0.81946 0.13364 0.66436 0.0
H687 H 0.93069 0.18851 0.58988 0.0
H688 H 0.90209 0.15482 0.61675 0.0
H689 H 0.84525 0.17834 0.65518 0.0
H690 H 0.7171 0.05161 0.68501 0.0
H691 H 0.75788 0.09538 0.67024 0.0
H692 H 0.82077 0.07619 0.64203 0.0
C693 C 0.89717 0.17169 0.61251 0.0
C694 C 0.84007 0.15615 0.65206 0.0
C695 C 0.91382 0.1912 0.59721 0.0
C696 C 0.73825 0.05301 0.68401 0.0
C697 C 0.76164 0.07816 0.67562 0.0
C698 C 0.82627 0.09846 0.64526 0.0
C699 C 0.87402 0.1734 0.62173 0.0
C700 C 0.85363 0.15 0.63593 0.0
C701 C 0.78896 0.08014 0.67291 0.0
C702 C 0.81227 0.10454 0.66101 0.0
H703 H 0.88167 0.2333 0.59659 0.0
H704 H 0.8517 0.19856 0.62271 0.0
H705 H 0.85571 0.11487 0.62031 0.0
H706 H 0.77321 0.01458 0.69311 0.0
H707 H 0.81386 0.05834 0.67828 0.0
C708 C 0.27052 0.38336 0.30278 0.0
C709 C 0.25291 0.36495 0.31844 0.0
C710 C 0.25781 0.38814 0.28569 0.0
C711 C 0.18868 0.38131 0.26649 0.0
H712 H 0.21719 0.3737 0.21404 0.0
C713 C 0.14285 0.34969 0.18029 0.0
C714 C 0.12942 0.36674 0.17793 0.0
C715 C 0.16106 0.35399 0.19682 0.0
C716 C 0.20899 0.3759 0.22858 0.0
H717 H 0.20814 0.33785 0.32866 0.0
H718 H 0.1861 0.34606 0.29893 0.0
H719 H 0.24264 0.37301 0.24469 0.0
H720 H 0.12545 0.4024 0.1908 0.0
H721 H 0.15737 0.40996 0.2196 0.0
H722 H 0.15438 0.38305 0.25046 0.0
C723 C 0.20972 0.357 0.29988 0.0
C724 C 0.22376 0.37583 0.24612 0.0
C725 C 0.22239 0.35213 0.31689 0.0
C726 C 0.13531 0.38877 0.19219 0.0
C727 C 0.1535 0.39302 0.20876 0.0
C728 C 0.17397 0.38146 0.24895 0.0
C729 C 0.22724 0.37475 0.28397 0.0
C730 C 0.21343 0.37796 0.26529 0.0
C731 C 0.16627 0.37543 0.2114 0.0
C732 C 0.18363 0.3782 0.22982 0.0
H733 H 0.29411 0.39364 0.30351 0.0
H734 H 0.27189 0.40217 0.27376 0.0
H735 H 0.18038 0.38334 0.28103 0.0
H736 H 0.13883 0.33255 0.16959 0.0
H737 H 0.17027 0.33982 0.19852 0.0
C738 C 0.87478 0.25409 0.47756 0.0
C739 C 0.88309 0.23854 0.49068 0.0
C740 C 0.85619 0.24008 0.4612 0.0
C741 C 0.83583 0.21025 0.4204 0.0
H742 H 0.77177 0.13037 0.4234 0.0
C743 C 0.78993 0.13653 0.35043 0.0
C744 C 0.75973 0.11675 0.34924 0.0
C745 C 0.80212 0.15326 0.36781 0.0
C746 C 0.78932 0.15282 0.42235 0.0
H747 H 0.87751 0.19581 0.49725 0.0
H748 H 0.8454 0.17152 0.46862 0.0
H749 H 0.79723 0.15558 0.45429 0.0
H750 H 0.71852 0.09972 0.36526 0.0
H751 H 0.7399 0.1291 0.39569 0.0
H752 H 0.82807 0.20745 0.38847 0.0
C753 C 0.85301 0.19448 0.47109 0.0
C754 C 0.80412 0.16715 0.44001 0.0
C755 C 0.8716 0.20847 0.48744 0.0
C756 C 0.74187 0.1147 0.36569 0.0
C757 C 0.75413 0.1314 0.38316 0.0
C758 C 0.82107 0.19591 0.40276 0.0
C759 C 0.84545 0.21021 0.45759 0.0
C760 C 0.82788 0.19585 0.43919 0.0
C761 C 0.78444 0.15062 0.38449 0.0
C762 C 0.79801 0.16685 0.40347 0.0
H763 H 0.88306 0.27724 0.47967 0.0
H764 H 0.85046 0.25274 0.45125 0.0
H765 H 0.85417 0.23226 0.41919 0.0
H766 H 0.80436 0.13873 0.33806 0.0
H767 H 0.82559 0.16757 0.36842 0.0
C768 C 0.65719 0.87196 0.6493 0.0
C769 C 0.6468 0.89178 0.65039 0.0
C770 C 0.65283 0.85529 0.63191 0.0
C771 C 0.62931 0.8127 0.59692 0.0
H772 H 0.64658 0.85314 0.5454 0.0
C773 C 0.62504 0.75437 0.52225 0.0
C774 C 0.64906 0.76974 0.50924 0.0
C775 C 0.62044 0.76849 0.53854 0.0
C776 C 0.64168 0.84154 0.55967 0.0
H777 H 0.62292 0.90898 0.63419 0.0
H778 H 0.61525 0.87972 0.60375 0.0
H779 H 0.64619 0.8784 0.57622 0.0
H780 H 0.68652 0.81231 0.50278 0.0
H781 H 0.67868 0.83681 0.53128 0.0
H782 H 0.62595 0.77625 0.58055 0.0
C783 C 0.627 0.87733 0.61636 0.0
C784 C 0.64113 0.85591 0.5773 0.0
C785 C 0.63125 0.89396 0.63384 0.0
C786 C 0.66781 0.79978 0.5125 0.0
C787 C 0.6632 0.81389 0.52878 0.0
C788 C 0.6298 0.79833 0.57931 0.0
C789 C 0.63802 0.85804 0.61513 0.0
C790 C 0.6355 0.84182 0.59617 0.0
C791 C 0.63974 0.79831 0.54218 0.0
C792 C 0.63651 0.81275 0.56052 0.0
H793 H 0.66924 0.86966 0.66176 0.0
H794 H 0.66193 0.84092 0.63138 0.0
H795 H 0.62456 0.80113 0.6112 0.0
H796 H 0.61003 0.73125 0.52012 0.0
H797 H 0.60193 0.75596 0.54841 0.0
C798 C 0.88931 0.67677 0.68695 0.0
C799 C 0.89123 0.65257 0.68023 0.0
C800 C 0.8728 0.67468 0.70399 0.0
C801 C 0.8389 0.62917 0.74981 0.0
H802 H 0.80263 0.67727 0.75339 0.0
C803 C 0.76179 0.62658 0.8147 0.0
C804 C 0.77156 0.65402 0.82375 0.0
C805 C 0.77549 0.62405 0.7973 0.0
C806 C 0.81267 0.66373 0.75254 0.0
H807 H 0.87667 0.60691 0.68585 0.0
H808 H 0.84677 0.60285 0.71521 0.0
H809 H 0.82624 0.67619 0.72199 0.0
H810 H 0.80349 0.70022 0.82177 0.0
H811 H 0.82677 0.69581 0.79109 0.0
H812 H 0.82432 0.61624 0.78039 0.0
C813 C 0.85876 0.62375 0.70765 0.0
C814 C 0.8264 0.66323 0.73463 0.0
C815 C 0.87573 0.62599 0.69073 0.0
C816 C 0.79552 0.67877 0.81523 0.0
C817 C 0.80876 0.67631 0.79763 0.0
C818 C 0.8246 0.62925 0.76763 0.0
C819 C 0.85726 0.64816 0.71462 0.0
C820 C 0.84031 0.64647 0.73313 0.0
C821 C 0.79871 0.64901 0.78844 0.0
C822 C 0.81192 0.647 0.76923 0.0
H823 H 0.90124 0.69767 0.67935 0.0
H824 H 0.87287 0.69418 0.70908 0.0
H825 H 0.84962 0.61626 0.74938 0.0
H826 H 0.74341 0.60712 0.82097 0.0
H827 H 0.76741 0.60278 0.7904 0.0
C828 C 0.22456 0.86808 0.84919 0.0
C829 C 0.2551 0.88549 0.84757 0.0
C830 C 0.21186 0.85003 0.86594 0.0
C831 C 0.18957 0.80432 0.89888 0.0
H832 H 0.22061 0.83833 0.95142 0.0
C833 C 0.13224 0.74533 0.97287 0.0
C834 C 0.12914 0.763 0.98745 0.0
C835 C 0.15099 0.75794 0.95633 0.0
C836 C 0.21166 0.8285 0.93686 0.0
H837 H 0.2963 0.89673 0.86205 0.0
H838 H 0.27403 0.8649 0.89129 0.0
H839 H 0.24647 0.86404 0.92087 0.0
H840 H 0.14405 0.80782 0.99634 0.0
H841 H 0.17618 0.82965 0.96747 0.0
H842 H 0.15394 0.76957 0.91482 0.0
C843 C 0.25994 0.86558 0.87967 0.0
C844 C 0.2267 0.84308 0.91934 0.0
C845 C 0.27269 0.88371 0.86286 0.0
C846 C 0.14586 0.79352 0.98542 0.0
C847 C 0.16452 0.80608 0.96891 0.0
C848 C 0.17448 0.78979 0.9164 0.0
C849 C 0.22934 0.84882 0.88153 0.0
C850 C 0.21545 0.83151 0.90012 0.0
C851 C 0.16705 0.78847 0.95401 0.0
C852 C 0.18498 0.80206 0.93559 0.0
H853 H 0.2103 0.86885 0.83772 0.0
H854 H 0.18823 0.8378 0.86699 0.0
H855 H 0.18054 0.79456 0.88432 0.0
H856 H 0.11982 0.72175 0.97403 0.0
H857 H 0.15272 0.74376 0.94527 0.0
C858 C 0.38568 0.12467 0.1399 0.0
C859 C 0.36546 0.12095 0.15511 0.0
C860 C 0.38922 0.14196 0.12294 0.0
C861 C 0.37581 0.16173 0.08305 0.0
H862 H 0.37344 0.23371 0.08728 0.0
C863 C 0.34893 0.21319 0.01543 0.0
C864 C 0.36381 0.2438 0.01371 0.0
C865 C 0.35297 0.19978 0.03237 0.0
C866 C 0.3745 0.21385 0.08583 0.0
H867 H 0.33372 0.13322 0.16465 0.0
H868 H 0.33977 0.16316 0.13506 0.0
H869 H 0.37425 0.20846 0.11796 0.0
H870 H 0.39532 0.28428 0.02824 0.0
H871 H 0.40244 0.2608 0.05777 0.0
H872 H 0.37595 0.16706 0.05092 0.0
C873 C 0.35308 0.15291 0.13631 0.0
C874 C 0.37464 0.19921 0.10341 0.0
C875 C 0.34948 0.13557 0.15323 0.0
C876 C 0.38341 0.26065 0.0291 0.0
C877 C 0.38739 0.24722 0.04608 0.0
C878 C 0.37559 0.17632 0.06547 0.0
C879 C 0.37271 0.15601 0.12084 0.0
C880 C 0.37489 0.17278 0.10223 0.0
C881 C 0.37196 0.21665 0.04802 0.0
C882 C 0.37453 0.20234 0.06665 0.0
H883 H 0.39844 0.11381 0.14089 0.0
H884 H 0.40478 0.14421 0.1114 0.0
H885 H 0.37577 0.1413 0.0816 0.0
H886 H 0.33367 0.19951 0.00387 0.0
H887 H 0.34049 0.17619 0.03349 0.0
loop_
_geom_bond_atom_site_label_1
_geom_bond_atom_site_label_2
_geom_bond_distance
_geom_bond_site_symmetry_2
_ccdc_geom_bond_type
O0 Cd1 2.223 . S
O0 C8 1.315 . S
Cd1 O0 2.223 . S
Cd1 O4 2.297 . S
Cd1 O5 2.439 . S
Cd1 O11 2.240 . S
Cd2 O3 2.240 . S
Cd2 O10 2.223 . S
Cd2 O12 2.297 . S
Cd2 O13 2.439 . S
O3 Cd2 2.240 . S
O3 C8 1.279 . S
O4 Cd1 2.297 . S
O4 C6 1.247 . S
O5 Cd1 2.439 . S
O5 C6 1.208 . S
C6 O4 1.247 . S
C6 O5 1.208 . S
C7 O12 1.247 . S
C7 O13 1.208 . S
C8 O0 1.315 . S
C8 O3 1.279 . S
C9 O10 1.315 . S
C9 O11 1.279 . S
O10 Cd2 2.223 . S
O10 C9 1.315 . S
O11 Cd1 2.240 . S
O11 C9 1.279 . S
O12 Cd2 2.297 . S
O12 C7 1.247 . S
O13 Cd2 2.439 . S
O13 C7 1.208 . S
O14 Cd15 2.223 . S
O14 C22 1.315 . S
Cd15 O14 2.223 . S
Cd15 O18 2.297 . S
Cd15 O19 2.439 . S
Cd15 O25 2.240 . S
Cd16 O17 2.240 . S
Cd16 O24 2.223 . S
Cd16 O26 2.297 . S
Cd16 O27 2.439 . S
O17 Cd16 2.240 . S
O17 C22 1.279 . S
O18 Cd15 2.297 . S
O18 C20 1.247 . S
O19 Cd15 2.439 . S
O19 C20 1.208 . S
C20 O18 1.247 . S
C20 O19 1.208 . S
C21 O26 1.247 . S
C21 O27 1.208 . S
C22 O14 1.315 . S
C22 O17 1.279 . S
C23 O24 1.315 . S
C23 O25 1.279 . S
O24 Cd16 2.223 . S
O24 C23 1.315 . S
O25 Cd15 2.240 . S
O25 C23 1.279 . S
O26 Cd16 2.297 . S
O26 C21 1.247 . S
O27 Cd16 2.439 . S
O27 C21 1.208 . S
O28 Cd29 2.223 . S
O28 C36 1.315 . S
Cd29 O28 2.223 . S
Cd29 O32 2.297 . S
Cd29 O33 2.439 . S
Cd29 O39 2.240 . S
Cd30 O31 2.240 . S
Cd30 O38 2.223 . S
Cd30 O40 2.297 . S
Cd30 O41 2.439 . S
O31 Cd30 2.240 . S
O31 C36 1.279 . S
O32 Cd29 2.297 . S
O32 C34 1.247 . S
O33 Cd29 2.439 . S
O33 C34 1.208 . S
C34 O32 1.247 . S
C34 O33 1.208 . S
C35 O40 1.247 . S
C35 O41 1.208 . S
C36 O28 1.315 . S
C36 O31 1.279 . S
C37 O38 1.315 . S
C37 O39 1.279 . S
O38 Cd30 2.223 . S
O38 C37 1.315 . S
O39 Cd29 2.240 . S
O39 C37 1.279 . S
O40 Cd30 2.297 . S
O40 C35 1.247 . S
O41 Cd30 2.439 . S
O41 C35 1.208 . S
O42 Cd43 2.223 . S
O42 C50 1.315 . S
Cd43 O42 2.223 . S
Cd43 O46 2.297 . S
Cd43 O47 2.439 . S
Cd43 O53 2.240 . S
Cd44 O45 2.240 . S
Cd44 O52 2.223 . S
Cd44 O54 2.297 . S
Cd44 O55 2.439 . S
O45 Cd44 2.240 . S
O45 C50 1.279 . S
O46 Cd43 2.297 . S
O46 C48 1.247 . S
O47 Cd43 2.439 . S
O47 C48 1.208 . S
C48 O46 1.247 . S
C48 O47 1.208 . S
C49 O54 1.247 . S
C49 O55 1.208 . S
C50 O42 1.315 . S
C50 O45 1.279 . S
C51 O52 1.315 . S
C51 O53 1.279 . S
O52 Cd44 2.223 . S
O52 C51 1.315 . S
O53 Cd43 2.240 . S
O53 C51 1.279 . S
O54 Cd44 2.297 . S
O54 C49 1.247 . S
O55 Cd44 2.439 . S
O55 C49 1.208 . S
O56 Cd57 2.223 . S
O56 C64 1.315 . S
Cd57 O56 2.223 . S
Cd57 O60 2.297 . S
Cd57 O61 2.439 . S
Cd57 O67 2.240 . S
Cd58 O59 2.240 . S
Cd58 O66 2.223 . S
Cd58 O68 2.297 . S
Cd58 O69 2.439 . S
O59 Cd58 2.240 . S
O59 C64 1.279 . S
O60 Cd57 2.297 . S
O60 C62 1.247 . S
O61 Cd57 2.439 . S
O61 C62 1.208 . S
C62 O60 1.247 . S
C62 O61 1.208 . S
C63 O68 1.247 . S
C63 O69 1.208 . S
C64 O56 1.315 . S
C64 O59 1.279 . S
C65 O66 1.315 . S
C65 O67 1.279 . S
O66 Cd58 2.223 . S
O66 C65 1.315 . S
O67 Cd57 2.240 . S
O67 C65 1.279 . S
O68 Cd58 2.297 . S
O68 C63 1.247 . S
O69 Cd58 2.439 . S
O69 C63 1.208 . S
O70 Cd71 2.223 . S
O70 C78 1.315 . S
Cd71 O70 2.223 . S
Cd71 O74 2.297 . S
Cd71 O75 2.439 . S
Cd71 O81 2.240 . S
Cd72 O73 2.240 . S
Cd72 O80 2.223 . S
Cd72 O82 2.297 . S
Cd72 O83 2.439 . S
O73 Cd72 2.240 . S
O73 C78 1.279 . S
O74 Cd71 2.297 . S
O74 C76 1.247 . S
O75 Cd71 2.439 . S
O75 C76 1.208 . S
C76 O74 1.247 . S
C76 O75 1.208 . S
C77 O82 1.247 . S
C77 O83 1.208 . S
C78 O70 1.315 . S
C78 O73 1.279 . S
C79 O80 1.315 . S
C79 O81 1.279 . S
O80 Cd72 2.223 . S
O80 C79 1.315 . S
O81 Cd71 2.240 . S
O81 C79 1.279 . S
O82 Cd72 2.297 . S
O82 C77 1.247 . S
O83 Cd72 2.439 . S
O83 C77 1.208 . S
O84 Cd85 2.223 . S
O84 C92 1.315 . S
Cd85 O84 2.223 . S
Cd85 O88 2.297 . S
Cd85 O89 2.439 . S
Cd85 O95 2.240 . S
Cd86 O87 2.240 . S
Cd86 O94 2.223 . S
Cd86 O96 2.297 . S
Cd86 O97 2.439 . S
O87 Cd86 2.240 . S
O87 C92 1.279 . S
O88 Cd85 2.297 . S
O88 C90 1.247 . S
O89 Cd85 2.439 . S
O89 C90 1.208 . S
C90 O88 1.247 . S
C90 O89 1.208 . S
C91 O96 1.247 . S
C91 O97 1.208 . S
C92 O84 1.315 . S
C92 O87 1.279 . S
C93 O94 1.315 . S
C93 O95 1.279 . S
O94 Cd86 2.223 . S
O94 C93 1.315 . S
O95 Cd85 2.240 . S
O95 C93 1.279 . S
O96 Cd86 2.297 . S
O96 C91 1.247 . S
O97 Cd86 2.439 . S
O97 C91 1.208 . S
O98 Cd99 2.223 . S
O98 C106 1.315 . S
Cd99 O98 2.223 . S
Cd99 O102 2.297 . S
Cd99 O103 2.439 . S
Cd99 O109 2.240 . S
Cd100 O101 2.240 . S
Cd100 O108 2.223 . S
Cd100 O110 2.297 . S
Cd100 O111 2.439 . S
O101 Cd100 2.240 . S
O101 C106 1.279 . S
O102 Cd99 2.297 . S
O102 C104 1.247 . S
O103 Cd99 2.439 . S
O103 C104 1.208 . S
C104 O102 1.247 . S
C104 O103 1.208 . S
C105 O110 1.247 . S
C105 O111 1.208 . S
C106 O98 1.315 . S
C106 O101 1.279 . S
C107 O108 1.315 . S
C107 O109 1.279 . S
O108 Cd100 2.223 . S
O108 C107 1.315 . S
O109 Cd99 2.240 . S
O109 C107 1.279 . S
O110 Cd100 2.297 . S
O110 C105 1.247 . S
O111 Cd100 2.439 . S
O111 C105 1.208 . S
O112 Cd113 2.223 . S
O112 C120 1.315 . S
Cd113 O112 2.223 . S
Cd113 O116 2.297 . S
Cd113 O117 2.439 . S
Cd113 O123 2.240 . S
Cd114 O115 2.240 . S
Cd114 O122 2.223 . S
Cd114 O124 2.297 . S
Cd114 O125 2.439 . S
O115 Cd114 2.240 . S
O115 C120 1.279 . S
O116 Cd113 2.297 . S
O116 C118 1.247 . S
O117 Cd113 2.439 . S
O117 C118 1.208 . S
C118 O116 1.247 . S
C118 O117 1.208 . S
C119 O124 1.247 . S
C119 O125 1.208 . S
C120 O112 1.315 . S
C120 O115 1.279 . S
C121 O122 1.315 . S
C121 O123 1.279 . S
O122 Cd114 2.223 . S
O122 C121 1.315 . S
O123 Cd113 2.240 . S
O123 C121 1.279 . S
O124 Cd114 2.297 . S
O124 C119 1.247 . S
O125 Cd114 2.439 . S
O125 C119 1.208 . S
O126 Cd127 2.223 . S
O126 C134 1.315 . S
Cd127 O126 2.223 . S
Cd127 O130 2.297 . S
Cd127 O131 2.439 . S
Cd127 O137 2.240 . S
Cd128 O129 2.240 . S
Cd128 O136 2.223 . S
Cd128 O138 2.297 . S
Cd128 O139 2.439 . S
O129 Cd128 2.240 . S
O129 C134 1.279 . S
O130 Cd127 2.297 . S
O130 C132 1.247 . S
O131 Cd127 2.439 . S
O131 C132 1.208 . S
C132 O130 1.247 . S
C132 O131 1.208 . S
C133 O138 1.247 . S
C133 O139 1.208 . S
C134 O126 1.315 . S
C134 O129 1.279 . S
C135 O136 1.315 . S
C135 O137 1.279 . S
O136 Cd128 2.223 . S
O136 C135 1.315 . S
O137 Cd127 2.240 . S
O137 C135 1.279 . S
O138 Cd128 2.297 . S
O138 C133 1.247 . S
O139 Cd128 2.439 . S
O139 C133 1.208 . S
O140 Cd141 2.223 . S
O140 C148 1.315 . S
Cd141 O140 2.223 . S
Cd141 O144 2.297 . S
Cd141 O145 2.439 . S
Cd141 O151 2.240 . S
Cd142 O143 2.240 . S
Cd142 O150 2.223 . S
Cd142 O152 2.297 . S
Cd142 O153 2.439 . S
O143 Cd142 2.240 . S
O143 C148 1.279 . S
O144 Cd141 2.297 . S
O144 C146 1.247 . S
O145 Cd141 2.439 . S
O145 C146 1.208 . S
C146 O144 1.247 . S
C146 O145 1.208 . S
C147 O152 1.247 . S
C147 O153 1.208 . S
C148 O140 1.315 . S
C148 O143 1.279 . S
C149 O150 1.315 . S
C149 O151 1.279 . S
O150 Cd142 2.223 . S
O150 C149 1.315 . S
O151 Cd141 2.240 . S
O151 C149 1.279 . S
O152 Cd142 2.297 . S
O152 C147 1.247 . S
O153 Cd142 2.439 . S
O153 C147 1.208 . S
O154 Cd155 2.223 . S
O154 C162 1.315 . S
Cd155 O154 2.223 . S
Cd155 O158 2.297 . S
Cd155 O159 2.439 . S
Cd155 O165 2.240 . S
Cd156 O157 2.240 . S
Cd156 O164 2.223 . S
Cd156 O166 2.297 . S
Cd156 O167 2.439 . S
O157 Cd156 2.240 . S
O157 C162 1.279 . S
O158 Cd155 2.297 . S
O158 C160 1.247 . S
O159 Cd155 2.439 . S
O159 C160 1.208 . S
C160 O158 1.247 . S
C160 O159 1.208 . S
C161 O166 1.247 . S
C161 O167 1.208 . S
C162 O154 1.315 . S
C162 O157 1.279 . S
C163 O164 1.315 . S
C163 O165 1.279 . S
O164 Cd156 2.223 . S
O164 C163 1.315 . S
O165 Cd155 2.240 . S
O165 C163 1.279 . S
O166 Cd156 2.297 . S
O166 C161 1.247 . S
O167 Cd156 2.439 . S
O167 C161 1.208 . S
C168 C169 1.349 . S
C168 C170 1.327 . S
C168 H193 0.950 . S
C169 C168 1.349 . S
C169 C185 1.349 . S
C170 C168 1.327 . S
C170 C189 1.429 . S
C170 H194 0.950 . S
C171 C188 1.574 . S
C171 C190 1.368 . S
C171 H195 0.949 . S
H172 C176 0.949 . S
C173 C174 1.349 . S
C173 C175 1.327 . S
C173 H196 0.950 . S
C174 C173 1.349 . S
C174 C186 1.349 . S
C175 C173 1.327 . S
C175 C191 1.429 . S
C175 H197 0.950 . S
C176 H172 0.949 . S
C176 C184 1.574 . S
C176 C192 1.368 . S
H177 C185 0.950 . S
H178 C183 0.950 . S
H179 C184 0.949 . S
H180 C186 0.950 . S
H181 C187 0.950 . S
H182 C188 0.949 . S
C183 H178 0.950 . S
C183 C185 1.327 . S
C183 C189 1.429 . S
C184 C176 1.574 . S
C184 H179 0.949 . S
C184 C190 1.368 . S
C185 C169 1.349 . S
C185 H177 0.950 . S
C185 C183 1.327 . S
C186 C174 1.349 . S
C186 H180 0.950 . S
C186 C187 1.327 . S
C187 H181 0.950 . S
C187 C186 1.327 . S
C187 C191 1.429 . S
C188 C171 1.574 . S
C188 H182 0.949 . S
C188 C192 1.368 . S
C189 C170 1.429 . S
C189 C183 1.429 . S
C189 C190 1.523 . S
C190 C171 1.368 . S
C190 C184 1.368 . S
C190 C189 1.523 . S
C191 C175 1.429 . S
C191 C187 1.429 . S
C191 C192 1.523 . S
C192 C176 1.368 . S
C192 C188 1.368 . S
C192 C191 1.523 . S
H193 C168 0.950 . S
H194 C170 0.950 . S
H195 C171 0.949 . S
H196 C173 0.950 . S
H197 C175 0.950 . S
C198 C199 1.349 . S
C198 C200 1.327 . S
C198 H223 0.950 . S
C199 C198 1.349 . S
C199 C215 1.349 . S
C200 C198 1.327 . S
C200 C219 1.429 . S
C200 H224 0.950 . S
C201 C218 1.574 . S
C201 C220 1.368 . S
C201 H225 0.949 . S
H202 C206 0.949 . S
C203 C204 1.349 . S
C203 C205 1.327 . S
C203 H226 0.950 . S
C204 C203 1.349 . S
C204 C216 1.349 . S
C205 C203 1.327 . S
C205 C221 1.429 . S
C205 H227 0.950 . S
C206 H202 0.949 . S
C206 C214 1.574 . S
C206 C222 1.368 . S
H207 C215 0.950 . S
H208 C213 0.950 . S
H209 C214 0.949 . S
H210 C216 0.950 . S
H211 C217 0.950 . S
H212 C218 0.949 . S
C213 H208 0.950 . S
C213 C215 1.327 . S
C213 C219 1.429 . S
C214 C206 1.574 . S
C214 H209 0.949 . S
C214 C220 1.368 . S
C215 C199 1.349 . S
C215 H207 0.950 . S
C215 C213 1.327 . S
C216 C204 1.349 . S
C216 H210 0.950 . S
C216 C217 1.327 . S
C217 H211 0.950 . S
C217 C216 1.327 . S
C217 C221 1.429 . S
C218 C201 1.574 . S
C218 H212 0.949 . S
C218 C222 1.368 . S
C219 C200 1.429 . S
C219 C213 1.429 . S
C219 C220 1.523 . S
C220 C201 1.368 . S
C220 C214 1.368 . S
C220 C219 1.523 . S
C221 C205 1.429 . S
C221 C217 1.429 . S
C221 C222 1.523 . S
C222 C206 1.368 . S
C222 C218 1.368 . S
C222 C221 1.523 . S
H223 C198 0.950 . S
H224 C200 0.950 . S
H225 C201 0.949 . S
H226 C203 0.950 . S
H227 C205 0.950 . S
C228 C229 1.349 . S
C228 C230 1.327 . S
C228 H253 0.950 . S
C229 C228 1.349 . S
C229 C245 1.349 . S
C230 C228 1.327 . S
C230 C249 1.429 . S
C230 H254 0.950 . S
C231 C248 1.574 . S
C231 C250 1.368 . S
C231 H255 0.949 . S
H232 C236 0.949 . S
C233 C234 1.349 . S
C233 C235 1.327 . S
C233 H256 0.950 . S
C234 C233 1.349 . S
C234 C246 1.349 . S
C235 C233 1.327 . S
C235 C251 1.429 . S
C235 H257 0.950 . S
C236 H232 0.949 . S
C236 C244 1.574 . S
C236 C252 1.368 . S
H237 C245 0.950 . S
H238 C243 0.950 . S
H239 C244 0.949 . S
H240 C246 0.950 . S
H241 C247 0.950 . S
H242 C248 0.949 . S
C243 H238 0.950 . S
C243 C245 1.327 . S
C243 C249 1.429 . S
C244 C236 1.574 . S
C244 H239 0.949 . S
C244 C250 1.368 . S
C245 C229 1.349 . S
C245 H237 0.950 . S
C245 C243 1.327 . S
C246 C234 1.349 . S
C246 H240 0.950 . S
C246 C247 1.327 . S
C247 H241 0.950 . S
C247 C246 1.327 . S
C247 C251 1.429 . S
C248 C231 1.574 . S
C248 H242 0.949 . S
C248 C252 1.368 . S
C249 C230 1.429 . S
C249 C243 1.429 . S
C249 C250 1.523 . S
C250 C231 1.368 . S
C250 C244 1.368 . S
C250 C249 1.523 . S
C251 C235 1.429 . S
C251 C247 1.429 . S
C251 C252 1.523 . S
C252 C236 1.368 . S
C252 C248 1.368 . S
C252 C251 1.523 . S
H253 C228 0.950 . S
H254 C230 0.950 . S
H255 C231 0.949 . S
H256 C233 0.950 . S
H257 C235 0.950 . S
C258 C259 1.349 . S
C258 C260 1.327 . S
C258 H283 0.950 . S
C259 C258 1.349 . S
C259 C275 1.349 . S
C260 C258 1.327 . S
C260 C279 1.429 . S
C260 H284 0.950 . S
C261 C278 1.574 . S
C261 C280 1.368 . S
C261 H285 0.949 . S
H262 C266 0.949 . S
C263 C264 1.349 . S
C263 C265 1.327 . S
C263 H286 0.950 . S
C264 C263 1.349 . S
C264 C276 1.349 . S
C265 C263 1.327 . S
C265 C281 1.429 . S
C265 H287 0.950 . S
C266 H262 0.949 . S
C266 C274 1.574 . S
C266 C282 1.368 . S
H267 C275 0.950 . S
H268 C273 0.950 . S
H269 C274 0.949 . S
H270 C276 0.950 . S
H271 C277 0.950 . S
H272 C278 0.949 . S
C273 H268 0.950 . S
C273 C275 1.327 . S
C273 C279 1.429 . S
C274 C266 1.574 . S
C274 H269 0.949 . S
C274 C280 1.368 . S
C275 C259 1.349 . S
C275 H267 0.950 . S
C275 C273 1.327 . S
C276 C264 1.349 . S
C276 H270 0.950 . S
C276 C277 1.327 . S
C277 H271 0.950 . S
C277 C276 1.327 . S
C277 C281 1.429 . S
C278 C261 1.574 . S
C278 H272 0.949 . S
C278 C282 1.368 . S
C279 C260 1.429 . S
C279 C273 1.429 . S
C279 C280 1.523 . S
C280 C261 1.368 . S
C280 C274 1.368 . S
C280 C279 1.523 . S
C281 C265 1.429 . S
C281 C277 1.429 . S
C281 C282 1.523 . S
C282 C266 1.368 . S
C282 C278 1.368 . S
C282 C281 1.523 . S
H283 C258 0.950 . S
H284 C260 0.950 . S
H285 C261 0.949 . S
H286 C263 0.950 . S
H287 C265 0.950 . S
C288 C289 1.349 . S
C288 C290 1.327 . S
C288 H313 0.950 . S
C289 C288 1.349 . S
C289 C305 1.349 . S
C290 C288 1.327 . S
C290 C309 1.429 . S
C290 H314 0.950 . S
C291 C308 1.574 . S
C291 C310 1.368 . S
C291 H315 0.949 . S
H292 C296 0.949 . S
C293 C294 1.349 . S
C293 C295 1.327 . S
C293 H316 0.950 . S
C294 C293 1.349 . S
C294 C306 1.349 . S
C295 C293 1.327 . S
C295 C311 1.429 . S
C295 H317 0.950 . S
C296 H292 0.949 . S
C296 C304 1.574 . S
C296 C312 1.368 . S
H297 C305 0.950 . S
H298 C303 0.950 . S
H299 C304 0.949 . S
H300 C306 0.950 . S
H301 C307 0.950 . S
H302 C308 0.949 . S
C303 H298 0.950 . S
C303 C305 1.327 . S
C303 C309 1.429 . S
C304 C296 1.574 . S
C304 H299 0.949 . S
C304 C310 1.368 . S
C305 C289 1.349 . S
C305 H297 0.950 . S
C305 C303 1.327 . S
C306 C294 1.349 . S
C306 H300 0.950 . S
C306 C307 1.327 . S
C307 H301 0.950 . S
C307 C306 1.327 . S
C307 C311 1.429 . S
C308 C291 1.574 . S
C308 H302 0.949 . S
C308 C312 1.368 . S
C309 C290 1.429 . S
C309 C303 1.429 . S
C309 C310 1.523 . S
C310 C291 1.368 . S
C310 C304 1.368 . S
C310 C309 1.523 . S
C311 C295 1.429 . S
C311 C307 1.429 . S
C311 C312 1.523 . S
C312 C296 1.368 . S
C312 C308 1.368 . S
C312 C311 1.523 . S
H313 C288 0.950 . S
H314 C290 0.950 . S
H315 C291 0.949 . S
H316 C293 0.950 . S
H317 C295 0.950 . S
C318 C319 1.349 . S
C318 C320 1.327 . S
C318 H343 0.950 . S
C319 C318 1.349 . S
C319 C335 1.349 . S
C320 C318 1.327 . S
C320 C339 1.429 . S
C320 H344 0.950 . S
C321 C338 1.574 . S
C321 C340 1.368 . S
C321 H345 0.949 . S
H322 C326 0.949 . S
C323 C324 1.349 . S
C323 C325 1.327 . S
C323 H346 0.950 . S
C324 C323 1.349 . S
C324 C336 1.349 . S
C325 C323 1.327 . S
C325 C341 1.429 . S
C325 H347 0.950 . S
C326 H322 0.949 . S
C326 C334 1.574 . S
C326 C342 1.368 . S
H327 C335 0.950 . S
H328 C333 0.950 . S
H329 C334 0.949 . S
H330 C336 0.950 . S
H331 C337 0.950 . S
H332 C338 0.949 . S
C333 H328 0.950 . S
C333 C335 1.327 . S
C333 C339 1.429 . S
C334 C326 1.574 . S
C334 H329 0.949 . S
C334 C340 1.368 . S
C335 C319 1.349 . S
C335 H327 0.950 . S
C335 C333 1.327 . S
C336 C324 1.349 . S
C336 H330 0.950 . S
C336 C337 1.327 . S
C337 H331 0.950 . S
C337 C336 1.327 . S
C337 C341 1.429 . S
C338 C321 1.574 . S
C338 H332 0.949 . S
C338 C342 1.368 . S
C339 C320 1.429 . S
C339 C333 1.429 . S
C339 C340 1.523 . S
C340 C321 1.368 . S
C340 C334 1.368 . S
C340 C339 1.523 . S
C341 C325 1.429 . S
C341 C337 1.429 . S
C341 C342 1.523 . S
C342 C326 1.368 . S
C342 C338 1.368 . S
C342 C341 1.523 . S
H343 C318 0.950 . S
H344 C320 0.950 . S
H345 C321 0.949 . S
H346 C323 0.950 . S
H347 C325 0.950 . S
C348 C349 1.349 . S
C348 C350 1.327 . S
C348 H373 0.950 . S
C349 C348 1.349 . S
C349 C365 1.349 . S
C350 C348 1.327 . S
C350 C369 1.429 . S
C350 H374 0.950 . S
C351 C368 1.574 . S
C351 C370 1.368 . S
C351 H375 0.949 . S
H352 C356 0.949 . S
C353 C354 1.349 . S
C353 C355 1.327 1_556 S
C353 H376 0.950 . S
C354 C353 1.349 . S
C354 C366 1.349 . S
C355 C353 1.327 1_554 S
C355 C371 1.429 . S
C355 H377 0.950 . S
C356 H352 0.949 . S
C356 C364 1.574 . S
C356 C372 1.368 . S
H357 C365 0.950 . S
H358 C363 0.950 . S
H359 C364 0.949 . S
H360 C366 0.950 . S
H361 C367 0.950 . S
H362 C368 0.949 . S
C363 H358 0.950 . S
C363 C365 1.327 . S
C363 C369 1.429 . S
C364 C356 1.574 . S
C364 H359 0.949 . S
C364 C370 1.368 . S
C365 C349 1.349 . S
C365 H357 0.950 . S
C365 C363 1.327 . S
C366 C354 1.349 . S
C366 H360 0.950 . S
C366 C367 1.327 1_556 S
C367 H361 0.950 . S
C367 C366 1.327 1_554 S
C367 C371 1.429 . S
C368 C351 1.574 . S
C368 H362 0.949 . S
C368 C372 1.368 . S
C369 C350 1.429 . S
C369 C363 1.429 . S
C369 C370 1.523 . S
C370 C351 1.368 . S
C370 C364 1.368 . S
C370 C369 1.523 . S
C371 C355 1.429 . S
C371 C367 1.429 . S
C371 C372 1.523 . S
C372 C356 1.368 . S
C372 C368 1.368 . S
C372 C371 1.523 . S
H373 C348 0.950 . S
H374 C350 0.950 . S
H375 C351 0.949 . S
H376 C353 0.950 . S
H377 C355 0.950 . S
C378 C379 1.349 . S
C378 C380 1.327 . S
C378 H403 0.950 . S
C379 C378 1.349 . S
C379 C395 1.349 . S
C380 C378 1.327 . S
C380 C399 1.429 . S
C380 H404 0.950 . S
C381 C398 1.574 . S
C381 C400 1.368 . S
C381 H405 0.949 . S
H382 C386 0.949 . S
C383 C384 1.349 1_655 S
C383 C385 1.327 . S
C383 H406 0.950 . S
C384 C383 1.349 1_455 S
C384 C396 1.349 . S
C385 C383 1.327 . S
C385 C401 1.429 . S
C385 H407 0.950 . S
C386 H382 0.949 . S
C386 C394 1.574 . S
C386 C402 1.368 . S
H387 C395 0.950 . S
H388 C393 0.950 . S
H389 C394 0.949 . S
H390 C396 0.950 . S
H391 C397 0.950 . S
H392 C398 0.949 . S
C393 H388 0.950 . S
C393 C395 1.327 . S
C393 C399 1.429 . S
C394 C386 1.574 . S
C394 H389 0.949 . S
C394 C400 1.368 . S
C395 C379 1.349 . S
C395 H387 0.950 . S
C395 C393 1.327 . S
C396 C384 1.349 . S
C396 H390 0.950 . S
C396 C397 1.327 1_455 S
C397 H391 0.950 . S
C397 C396 1.327 1_655 S
C397 C401 1.429 . S
C398 C381 1.574 . S
C398 H392 0.949 . S
C398 C402 1.368 . S
C399 C380 1.429 . S
C399 C393 1.429 . S
C399 C400 1.523 . S
C400 C381 1.368 . S
C400 C394 1.368 . S
C400 C399 1.523 . S
C401 C385 1.429 . S
C401 C397 1.429 . S
C401 C402 1.523 . S
C402 C386 1.368 . S
C402 C398 1.368 . S
C402 C401 1.523 . S
H403 C378 0.950 . S
H404 C380 0.950 . S
H405 C381 0.949 . S
H406 C383 0.950 . S
H407 C385 0.950 . S
C408 C409 1.349 . S
C408 C410 1.327 . S
C408 H433 0.950 . S
C409 C408 1.349 . S
C409 C425 1.349 . S
C410 C408 1.327 . S
C410 C429 1.429 . S
C410 H434 0.950 . S
C411 C428 1.574 . S
C411 C430 1.368 . S
C411 H435 0.949 . S
H412 C416 0.949 . S
C413 C414 1.349 1_565 S
C413 C415 1.327 . S
C413 H436 0.950 1_565 S
C414 C413 1.349 1_545 S
C414 C426 1.328 1_545 S
C415 C413 1.327 . S
C415 C431 1.429 . S
C415 H437 0.950 . S
C416 H412 0.949 . S
C416 C424 1.574 . S
C416 C432 1.368 . S
H417 C425 0.950 . S
H418 C423 0.950 . S
H419 C424 0.949 . S
H420 C426 0.948 1_545 S
H421 C427 0.950 . S
H422 C428 0.949 . S
C423 H418 0.950 . S
C423 C425 1.327 . S
C423 C429 1.429 . S
C424 C416 1.574 . S
C424 H419 0.949 . S
C424 C430 1.368 . S
C425 C409 1.349 . S
C425 H417 0.950 . S
C425 C423 1.327 . S
C426 C414 1.328 1_565 S
C426 H420 0.948 1_565 S
C426 C427 1.351 . S
C427 H421 0.950 . S
C427 C426 1.351 . S
C427 C431 1.429 . S
C428 C411 1.574 . S
C428 H422 0.949 . S
C428 C432 1.368 . S
C429 C410 1.429 . S
C429 C423 1.429 . S
C429 C430 1.523 . S
C430 C411 1.368 . S
C430 C424 1.368 . S
C430 C429 1.523 . S
C431 C415 1.429 . S
C431 C427 1.429 . S
C431 C432 1.523 . S
C432 C416 1.368 . S
C432 C428 1.368 . S
C432 C431 1.523 . S
H433 C408 0.950 . S
H434 C410 0.950 . S
H435 C411 0.949 . S
H436 C413 0.950 1_545 S
H437 C415 0.950 . S
C438 C439 1.349 . S
C438 C440 1.327 . S
C438 H463 0.950 . S
C439 C438 1.349 . S
C439 C455 1.349 . S
C440 C438 1.327 . S
C440 C459 1.429 . S
C440 H464 0.950 . S
C441 C458 1.574 . S
C441 C460 1.368 . S
C441 H465 0.949 . S
H442 C446 0.949 . S
C443 C444 1.349 . S
C443 C445 1.327 . S
C443 H466 0.950 . S
C444 C443 1.349 . S
C444 C456 1.349 . S
C445 C443 1.327 . S
C445 C461 1.429 . S
C445 H467 0.950 . S
C446 H442 0.949 . S
C446 C454 1.574 . S
C446 C462 1.368 . S
H447 C455 0.950 . S
H448 C453 0.950 . S
H449 C454 0.949 . S
H450 C456 0.950 . S
H451 C457 0.950 . S
H452 C458 0.949 . S
C453 H448 0.950 . S
C453 C455 1.327 . S
C453 C459 1.429 . S
C454 C446 1.574 . S
C454 H449 0.949 . S
C454 C460 1.368 . S
C455 C439 1.349 . S
C455 H447 0.950 . S
C455 C453 1.327 . S
C456 C444 1.349 . S
C456 H450 0.950 . S
C456 C457 1.327 . S
C457 H451 0.950 . S
C457 C456 1.327 . S
C457 C461 1.429 . S
C458 C441 1.574 . S
C458 H452 0.949 . S
C458 C462 1.368 . S
C459 C440 1.429 . S
C459 C453 1.429 . S
C459 C460 1.523 . S
C460 C441 1.368 . S
C460 C454 1.368 . S
C460 C459 1.523 . S
C461 C445 1.429 . S
C461 C457 1.429 . S
C461 C462 1.523 . S
C462 C446 1.368 . S
C462 C458 1.368 . S
C462 C461 1.523 . S
H463 C438 0.950 . S
H464 C440 0.950 . S
H465 C441 0.949 . S
H466 C443 0.950 . S
H467 C445 0.950 . S
C468 C469 1.349 1_455 S
C468 C470 1.327 . S
C468 H493 0.950 . S
C469 C468 1.349 1_655 S
C469 C485 1.349 . S
C470 C468 1.327 . S
C470 C489 1.429 . S
C470 H494 0.950 . S
C471 C488 1.574 . S
C471 C490 1.368 . S
C471 H495 0.949 . S
H472 C476 0.949 . S
C473 C474 1.349 . S
C473 C475 1.327 . S
C473 H496 0.950 . S
C474 C473 1.349 . S
C474 C486 1.349 . S
C475 C473 1.327 . S
C475 C491 1.429 . S
C475 H497 0.950 . S
C476 H472 0.949 . S
C476 C484 1.574 . S
C476 C492 1.368 . S
H477 C485 0.950 . S
H478 C483 0.950 . S
H479 C484 0.949 . S
H480 C486 0.950 . S
H481 C487 0.950 . S
H482 C488 0.949 . S
C483 H478 0.950 . S
C483 C485 1.327 1_455 S
C483 C489 1.429 . S
C484 C476 1.574 . S
C484 H479 0.949 . S
C484 C490 1.368 . S
C485 C469 1.349 . S
C485 H477 0.950 . S
C485 C483 1.327 1_655 S
C486 C474 1.349 . S
C486 H480 0.950 . S
C486 C487 1.327 . S
C487 H481 0.950 . S
C487 C486 1.327 . S
C487 C491 1.429 . S
C488 C471 1.574 . S
C488 H482 0.949 . S
C488 C492 1.368 . S
C489 C470 1.429 . S
C489 C483 1.429 . S
C489 C490 1.523 . S
C490 C471 1.368 . S
C490 C484 1.368 . S
C490 C489 1.523 . S
C491 C475 1.429 . S
C491 C487 1.429 . S
C491 C492 1.523 . S
C492 C476 1.368 . S
C492 C488 1.368 . S
C492 C491 1.523 . S
H493 C468 0.950 . S
H494 C470 0.950 . S
H495 C471 0.949 . S
H496 C473 0.950 . S
H497 C475 0.950 . S
C498 C499 1.349 . S
C498 C500 1.327 1_565 S
C498 H523 0.950 . S
C499 C498 1.349 . S
C499 C515 1.349 1_565 S
C500 C498 1.327 1_545 S
C500 C519 1.429 . S
C500 H524 0.950 . S
C501 C518 1.574 . S
C501 C520 1.368 . S
C501 H525 0.949 . S
H502 C506 0.949 . S
C503 C504 1.349 . S
C503 C505 1.327 . S
C503 H526 0.950 . S
C504 C503 1.349 . S
C504 C516 1.349 . S
C505 C503 1.327 . S
C505 C521 1.429 . S
C505 H527 0.950 . S
C506 H502 0.949 . S
C506 C514 1.574 . S
C506 C522 1.368 . S
H507 C515 0.950 . S
H508 C513 0.950 . S
H509 C514 0.949 . S
H510 C516 0.950 . S
H511 C517 0.950 . S
H512 C518 0.949 . S
C513 H508 0.950 . S
C513 C515 1.327 . S
C513 C519 1.429 . S
C514 C506 1.574 . S
C514 H509 0.949 . S
C514 C520 1.368 . S
C515 C499 1.349 1_545 S
C515 H507 0.950 . S
C515 C513 1.327 . S
C516 C504 1.349 . S
C516 H510 0.950 . S
C516 C517 1.327 . S
C517 H511 0.950 . S
C517 C516 1.327 . S
C517 C521 1.429 . S
C518 C501 1.574 . S
C518 H512 0.949 . S
C518 C522 1.368 . S
C519 C500 1.429 . S
C519 C513 1.429 . S
C519 C520 1.523 . S
C520 C501 1.368 . S
C520 C514 1.368 . S
C520 C519 1.523 . S
C521 C505 1.429 . S
C521 C517 1.429 . S
C521 C522 1.523 . S
C522 C506 1.368 . S
C522 C518 1.368 . S
C522 C521 1.523 . S
H523 C498 0.950 . S
H524 C500 0.950 . S
H525 C501 0.949 . S
H526 C503 0.950 . S
H527 C505 0.950 . S
C528 C529 1.349 . S
C528 C530 1.327 . S
C528 H553 0.950 . S
C529 C528 1.349 . S
C529 C545 1.349 . S
C530 C528 1.327 . S
C530 C549 1.429 . S
C530 H554 0.950 . S
C531 C548 1.574 . S
C531 C550 1.368 . S
C531 H555 0.949 . S
H532 C536 0.949 . S
C533 C534 1.349 . S
C533 C535 1.327 . S
C533 H556 0.950 . S
C534 C533 1.349 . S
C534 C546 1.349 . S
C535 C533 1.327 . S
C535 C551 1.429 . S
C535 H557 0.950 . S
C536 H532 0.949 . S
C536 C544 1.574 . S
C536 C552 1.368 . S
H537 C545 0.950 . S
H538 C543 0.950 . S
H539 C544 0.949 . S
H540 C546 0.950 . S
H541 C547 0.950 . S
H542 C548 0.949 . S
C543 H538 0.950 . S
C543 C545 1.327 . S
C543 C549 1.429 . S
C544 C536 1.574 . S
C544 H539 0.949 . S
C544 C550 1.368 . S
C545 C529 1.349 . S
C545 H537 0.950 . S
C545 C543 1.327 . S
C546 C534 1.349 . S
C546 H540 0.950 . S
C546 C547 1.327 . S
C547 H541 0.950 . S
C547 C546 1.327 . S
C547 C551 1.429 . S
C548 C531 1.574 . S
C548 H542 0.949 . S
C548 C552 1.368 . S
C549 C530 1.429 . S
C549 C543 1.429 . S
C549 C550 1.523 . S
C550 C531 1.368 . S
C550 C544 1.368 . S
C550 C549 1.523 . S
C551 C535 1.429 . S
C551 C547 1.429 . S
C551 C552 1.523 . S
C552 C536 1.368 . S
C552 C548 1.368 . S
C552 C551 1.523 . S
H553 C528 0.950 . S
H554 C530 0.950 . S
H555 C531 0.949 . S
H556 C533 0.950 . S
H557 C535 0.950 . S
C558 C559 1.349 . S
C558 C560 1.327 . S
C558 H583 0.950 . S
C559 C558 1.349 . S
C559 C575 1.349 . S
C560 C558 1.327 . S
C560 C579 1.429 . S
C560 H584 0.950 . S
C561 C578 1.574 . S
C561 C580 1.368 . S
C561 H585 0.949 . S
H562 C566 0.949 . S
C563 C564 1.349 1_655 S
C563 C565 1.327 1_554 S
C563 H586 0.950 . S
C564 C563 1.349 1_455 S
C564 C576 1.364 . S
C565 C563 1.327 1_556 S
C565 C581 1.429 . S
C565 H587 0.950 . S
C566 H562 0.949 . S
C566 C574 1.574 . S
C566 C582 1.368 . S
H567 C575 0.950 . S
H568 C573 0.950 . S
H569 C574 0.949 . S
H570 C576 0.952 . S
H571 C577 0.950 . S
H572 C578 0.949 . S
C573 H568 0.950 . S
C573 C575 1.327 . S
C573 C579 1.429 . S
C574 C566 1.574 . S
C574 H569 0.949 . S
C574 C580 1.368 . S
C575 C559 1.349 . S
C575 H567 0.950 . S
C575 C573 1.327 . S
C576 C564 1.364 . S
C576 H570 0.952 . S
C576 C577 1.311 1_454 S
C577 H571 0.950 . S
C577 C576 1.311 1_656 S
C577 C581 1.429 . S
C578 C561 1.574 . S
C578 H572 0.949 . S
C578 C582 1.368 . S
C579 C560 1.429 . S
C579 C573 1.429 . S
C579 C580 1.523 . S
C580 C561 1.368 . S
C580 C574 1.368 . S
C580 C579 1.523 . S
C581 C565 1.429 . S
C581 C577 1.429 . S
C581 C582 1.523 . S
C582 C566 1.368 . S
C582 C578 1.368 . S
C582 C581 1.523 . S
H583 C558 0.950 . S
H584 C560 0.950 . S
H585 C561 0.949 . S
H586 C563 0.950 . S
H587 C565 0.950 . S
C588 C589 1.349 1_565 S
C588 C590 1.327 . S
C588 H613 0.950 1_565 S
C589 C588 1.349 1_545 S
C589 C605 1.349 1_545 S
C590 C588 1.327 . S
C590 C609 1.429 . S
C590 H614 0.950 . S
C591 C608 1.574 . S
C591 C610 1.368 . S
C591 H615 0.949 . S
H592 C596 0.949 . S
C593 C594 1.349 . S
C593 C595 1.327 . S
C593 H616 0.950 . S
C594 C593 1.349 . S
C594 C606 1.349 . S
C595 C593 1.327 . S
C595 C611 1.429 . S
C595 H617 0.950 . S
C596 H592 0.949 . S
C596 C604 1.574 . S
C596 C612 1.368 . S
H597 C605 0.950 1_545 S
H598 C603 0.950 . S
H599 C604 0.949 . S
H600 C606 0.950 . S
H601 C607 0.950 . S
H602 C608 0.949 . S
C603 H598 0.950 . S
C603 C605 1.327 . S
C603 C609 1.429 . S
C604 C596 1.574 . S
C604 H599 0.949 . S
C604 C610 1.368 . S
C605 C589 1.349 1_565 S
C605 H597 0.950 1_565 S
C605 C603 1.327 . S
C606 C594 1.349 . S
C606 H600 0.950 . S
C606 C607 1.327 . S
C607 H601 0.950 . S
C607 C606 1.327 . S
C607 C611 1.429 . S
C608 C591 1.574 . S
C608 H602 0.949 . S
C608 C612 1.368 . S
C609 C590 1.429 . S
C609 C603 1.429 . S
C609 C610 1.523 . S
C610 C591 1.368 . S
C610 C604 1.368 . S
C610 C609 1.523 . S
C611 C595 1.429 . S
C611 C607 1.429 . S
C611 C612 1.523 . S
C612 C596 1.368 . S
C612 C608 1.368 . S
C612 C611 1.523 . S
H613 C588 0.950 1_545 S
H614 C590 0.950 . S
H615 C591 0.949 . S
H616 C593 0.950 . S
H617 C595 0.950 . S
C618 C619 1.349 . S
C618 C620 1.327 . S
C618 H643 0.950 . S
C619 C618 1.349 . S
C619 C635 1.349 . S
C620 C618 1.327 . S
C620 C639 1.429 . S
C620 H644 0.950 . S
C621 C638 1.574 . S
C621 C640 1.368 . S
C621 H645 0.949 . S
H622 C626 0.949 . S
C623 C624 1.349 . S
C623 C625 1.327 . S
C623 H646 0.950 . S
C624 C623 1.349 . S
C624 C636 1.349 . S
C625 C623 1.327 . S
C625 C641 1.429 . S
C625 H647 0.950 . S
C626 H622 0.949 . S
C626 C634 1.574 . S
C626 C642 1.368 . S
H627 C635 0.950 . S
H628 C633 0.950 . S
H629 C634 0.949 . S
H630 C636 0.950 . S
H631 C637 0.950 . S
H632 C638 0.949 . S
C633 H628 0.950 . S
C633 C635 1.327 . S
C633 C639 1.429 . S
C634 C626 1.574 . S
C634 H629 0.949 . S
C634 C640 1.368 . S
C635 C619 1.349 . S
C635 H627 0.950 . S
C635 C633 1.327 . S
C636 C624 1.349 . S
C636 H630 0.950 . S
C636 C637 1.327 . S
C637 H631 0.950 . S
C637 C636 1.327 . S
C637 C641 1.429 . S
C638 C621 1.574 . S
C638 H632 0.949 . S
C638 C642 1.368 . S
C639 C620 1.429 . S
C639 C633 1.429 . S
C639 C640 1.523 . S
C640 C621 1.368 . S
C640 C634 1.368 . S
C640 C639 1.523 . S
C641 C625 1.429 . S
C641 C637 1.429 . S
C641 C642 1.523 . S
C642 C626 1.368 . S
C642 C638 1.368 . S
C642 C641 1.523 . S
H643 C618 0.950 . S
H644 C620 0.950 . S
H645 C621 0.949 . S
H646 C623 0.950 . S
H647 C625 0.950 . S
C648 C649 1.349 . S
C648 C650 1.327 . S
C648 H673 0.950 . S
C649 C648 1.349 . S
C649 C665 1.349 . S
C650 C648 1.327 . S
C650 C669 1.429 . S
C650 H674 0.950 . S
C651 C668 1.574 . S
C651 C670 1.368 . S
C651 H675 0.949 . S
H652 C656 0.949 . S
C653 C654 1.349 . S
C653 C655 1.327 1_655 S
C653 H676 0.950 . S
C654 C653 1.349 . S
C654 C666 1.349 1_655 S
C655 C653 1.327 1_455 S
C655 C671 1.429 . S
C655 H677 0.950 . S
C656 H652 0.949 . S
C656 C664 1.574 . S
C656 C672 1.368 . S
H657 C665 0.950 . S
H658 C663 0.950 . S
H659 C664 0.949 . S
H660 C666 0.950 . S
H661 C667 0.950 . S
H662 C668 0.949 . S
C663 H658 0.950 . S
C663 C665 1.327 . S
C663 C669 1.429 . S
C664 C656 1.574 . S
C664 H659 0.949 . S
C664 C670 1.368 . S
C665 C649 1.349 . S
C665 H657 0.950 . S
C665 C663 1.327 . S
C666 C654 1.349 1_455 S
C666 H660 0.950 . S
C666 C667 1.327 . S
C667 H661 0.950 . S
C667 C666 1.327 . S
C667 C671 1.429 . S
C668 C651 1.574 . S
C668 H662 0.949 . S
C668 C672 1.368 . S
C669 C650 1.429 . S
C669 C663 1.429 . S
C669 C670 1.523 . S
C670 C651 1.368 . S
C670 C664 1.368 . S
C670 C669 1.523 . S
C671 C655 1.429 . S
C671 C667 1.429 . S
C671 C672 1.523 . S
C672 C656 1.368 . S
C672 C668 1.368 . S
C672 C671 1.523 . S
H673 C648 0.950 . S
H674 C650 0.950 . S
H675 C651 0.949 . S
H676 C653 0.950 . S
H677 C655 0.950 . S
C678 C679 1.349 . S
C678 C680 1.327 . S
C678 H703 0.950 . S
C679 C678 1.349 . S
C679 C695 1.349 . S
C680 C678 1.327 . S
C680 C699 1.429 . S
C680 H704 0.950 . S
C681 C698 1.574 . S
C681 C700 1.368 . S
C681 H705 0.949 . S
H682 C686 0.949 . S
C683 C684 1.339 . S
C683 C685 1.305 1_565 S
C683 H706 0.984 . S
C684 C683 1.339 . S
C684 C696 1.349 1_565 S
C685 C683 1.305 1_545 S
C685 C701 1.429 . S
C685 H707 0.950 . S
C686 H682 0.949 . S
C686 C694 1.574 . S
C686 C702 1.368 . S
H687 C695 0.950 . S
H688 C693 0.950 . S
H689 C694 0.949 . S
H690 C696 0.950 . S
H691 C697 0.950 . S
H692 C698 0.949 . S
C693 H688 0.950 . S
C693 C695 1.327 . S
C693 C699 1.429 . S
C694 C686 1.574 . S
C694 H689 0.949 . S
C694 C700 1.368 . S
C695 C679 1.349 . S
C695 H687 0.950 . S
C695 C693 1.327 . S
C696 C684 1.349 1_545 S
C696 H690 0.950 . S
C696 C697 1.327 . S
C697 H691 0.950 . S
C697 C696 1.327 . S
C697 C701 1.429 . S
C698 C681 1.574 . S
C698 H692 0.949 . S
C698 C702 1.368 . S
C699 C680 1.429 . S
C699 C693 1.429 . S
C699 C700 1.523 . S
C700 C681 1.368 . S
C700 C694 1.368 . S
C700 C699 1.523 . S
C701 C685 1.429 . S
C701 C697 1.429 . S
C701 C702 1.523 . S
C702 C686 1.368 . S
C702 C698 1.368 . S
C702 C701 1.523 . S
H703 C678 0.950 . S
H704 C680 0.950 . S
H705 C681 0.949 . S
H706 C683 0.984 . S
H707 C685 0.950 . S
C708 C709 1.349 . S
C708 C710 1.327 . S
C708 H733 0.950 . S
C709 C708 1.349 . S
C709 C725 1.349 . S
C710 C708 1.327 . S
C710 C729 1.429 . S
C710 H734 0.950 . S
C711 C728 1.574 . S
C711 C730 1.368 . S
C711 H735 0.949 . S
H712 C716 0.949 . S
C713 C714 1.349 . S
C713 C715 1.327 . S
C713 H736 0.950 . S
C714 C713 1.349 . S
C714 C726 1.349 . S
C715 C713 1.327 . S
C715 C731 1.429 . S
C715 H737 0.950 . S
C716 H712 0.949 . S
C716 C724 1.574 . S
C716 C732 1.368 . S
H717 C725 0.950 . S
H718 C723 0.950 . S
H719 C724 0.949 . S
H720 C726 0.950 . S
H721 C727 0.950 . S
H722 C728 0.949 . S
C723 H718 0.950 . S
C723 C725 1.327 . S
C723 C729 1.429 . S
C724 C716 1.574 . S
C724 H719 0.949 . S
C724 C730 1.368 . S
C725 C709 1.349 . S
C725 H717 0.950 . S
C725 C723 1.327 . S
C726 C714 1.349 . S
C726 H720 0.950 . S
C726 C727 1.327 . S
C727 H721 0.950 . S
C727 C726 1.327 . S
C727 C731 1.429 . S
C728 C711 1.574 . S
C728 H722 0.949 . S
C728 C732 1.368 . S
C729 C710 1.429 . S
C729 C723 1.429 . S
C729 C730 1.523 . S
C730 C711 1.368 . S
C730 C724 1.368 . S
C730 C729 1.523 . S
C731 C715 1.429 . S
C731 C727 1.429 . S
C731 C732 1.523 . S
C732 C716 1.368 . S
C732 C728 1.368 . S
C732 C731 1.523 . S
H733 C708 0.950 . S
H734 C710 0.950 . S
H735 C711 0.949 . S
H736 C713 0.950 . S
H737 C715 0.950 . S
C738 C739 1.349 . S
C738 C740 1.327 . S
C738 H763 0.950 . S
C739 C738 1.349 . S
C739 C755 1.349 . S
C740 C738 1.327 . S
C740 C759 1.429 . S
C740 H764 0.950 . S
C741 C758 1.574 . S
C741 C760 1.368 . S
C741 H765 0.949 . S
H742 C746 0.949 . S
C743 C744 1.349 . S
C743 C745 1.327 . S
C743 H766 0.950 . S
C744 C743 1.349 . S
C744 C756 1.349 . S
C745 C743 1.327 . S
C745 C761 1.429 . S
C745 H767 0.950 . S
C746 H742 0.949 . S
C746 C754 1.574 . S
C746 C762 1.368 . S
H747 C755 0.950 . S
H748 C753 0.950 . S
H749 C754 0.949 . S
H750 C756 0.950 . S
H751 C757 0.950 . S
H752 C758 0.949 . S
C753 H748 0.950 . S
C753 C755 1.327 . S
C753 C759 1.429 . S
C754 C746 1.574 . S
C754 H749 0.949 . S
C754 C760 1.368 . S
C755 C739 1.349 . S
C755 H747 0.950 . S
C755 C753 1.327 . S
C756 C744 1.349 . S
C756 H750 0.950 . S
C756 C757 1.327 . S
C757 H751 0.950 . S
C757 C756 1.327 . S
C757 C761 1.429 . S
C758 C741 1.574 . S
C758 H752 0.949 . S
C758 C762 1.368 . S
C759 C740 1.429 . S
C759 C753 1.429 . S
C759 C760 1.523 . S
C760 C741 1.368 . S
C760 C754 1.368 . S
C760 C759 1.523 . S
C761 C745 1.429 . S
C761 C757 1.429 . S
C761 C762 1.523 . S
C762 C746 1.368 . S
C762 C758 1.368 . S
C762 C761 1.523 . S
H763 C738 0.950 . S
H764 C740 0.950 . S
H765 C741 0.949 . S
H766 C743 0.950 . S
H767 C745 0.950 . S
C768 C769 1.349 . S
C768 C770 1.327 . S
C768 H793 0.950 . S
C769 C768 1.349 . S
C769 C785 1.349 . S
C770 C768 1.327 . S
C770 C789 1.429 . S
C770 H794 0.950 . S
C771 C788 1.574 . S
C771 C790 1.368 . S
C771 H795 0.949 . S
H772 C776 0.949 . S
C773 C774 1.349 . S
C773 C775 1.327 . S
C773 H796 0.950 . S
C774 C773 1.349 . S
C774 C786 1.349 . S
C775 C773 1.327 . S
C775 C791 1.429 . S
C775 H797 0.950 . S
C776 H772 0.949 . S
C776 C784 1.574 . S
C776 C792 1.368 . S
H777 C785 0.950 . S
H778 C783 0.950 . S
H779 C784 0.949 . S
H780 C786 0.950 . S
H781 C787 0.950 . S
H782 C788 0.949 . S
C783 H778 0.950 . S
C783 C785 1.327 . S
C783 C789 1.429 . S
C784 C776 1.574 . S
C784 H779 0.949 . S
C784 C790 1.368 . S
C785 C769 1.349 . S
C785 H777 0.950 . S
C785 C783 1.327 . S
C786 C774 1.349 . S
C786 H780 0.950 . S
C786 C787 1.327 . S
C787 H781 0.950 . S
C787 C786 1.327 . S
C787 C791 1.429 . S
C788 C771 1.574 . S
C788 H782 0.949 . S
C788 C792 1.368 . S
C789 C770 1.429 . S
C789 C783 1.429 . S
C789 C790 1.523 . S
C790 C771 1.368 . S
C790 C784 1.368 . S
C790 C789 1.523 . S
C791 C775 1.429 . S
C791 C787 1.429 . S
C791 C792 1.523 . S
C792 C776 1.368 . S
C792 C788 1.368 . S
C792 C791 1.523 . S
H793 C768 0.950 . S
H794 C770 0.950 . S
H795 C771 0.949 . S
H796 C773 0.950 . S
H797 C775 0.950 . S
C798 C799 1.349 . S
C798 C800 1.327 . S
C798 H823 0.950 . S
C799 C798 1.349 . S
C799 C815 1.349 . S
C800 C798 1.327 . S
C800 C819 1.429 . S
C800 H824 0.950 . S
C801 C818 1.574 . S
C801 C820 1.368 . S
C801 H825 0.949 . S
H802 C806 0.949 . S
C803 C804 1.349 . S
C803 C805 1.327 . S
C803 H826 0.950 . S
C804 C803 1.349 . S
C804 C816 1.349 . S
C805 C803 1.327 . S
C805 C821 1.429 . S
C805 H827 0.950 . S
C806 H802 0.949 . S
C806 C814 1.574 . S
C806 C822 1.368 . S
H807 C815 0.950 . S
H808 C813 0.950 . S
H809 C814 0.949 . S
H810 C816 0.950 . S
H811 C817 0.950 . S
H812 C818 0.949 . S
C813 H808 0.950 . S
C813 C815 1.327 . S
C813 C819 1.429 . S
C814 C806 1.574 . S
C814 H809 0.949 . S
C814 C820 1.368 . S
C815 C799 1.349 . S
C815 H807 0.950 . S
C815 C813 1.327 . S
C816 C804 1.349 . S
C816 H810 0.950 . S
C816 C817 1.327 . S
C817 H811 0.950 . S
C817 C816 1.327 . S
C817 C821 1.429 . S
C818 C801 1.574 . S
C818 H812 0.949 . S
C818 C822 1.368 . S
C819 C800 1.429 . S
C819 C813 1.429 . S
C819 C820 1.523 . S
C820 C801 1.368 . S
C820 C814 1.368 . S
C820 C819 1.523 . S
C821 C805 1.429 . S
C821 C817 1.429 . S
C821 C822 1.523 . S
C822 C806 1.368 . S
C822 C818 1.368 . S
C822 C821 1.523 . S
H823 C798 0.950 . S
H824 C800 0.950 . S
H825 C801 0.949 . S
H826 C803 0.950 . S
H827 C805 0.950 . S
C828 C829 1.349 . S
C828 C830 1.327 . S
C828 H853 0.950 . S
C829 C828 1.349 . S
C829 C845 1.349 . S
C830 C828 1.327 . S
C830 C849 1.429 . S
C830 H854 0.950 . S
C831 C848 1.574 . S
C831 C850 1.368 . S
C831 H855 0.949 . S
H832 C836 0.949 . S
C833 C834 1.349 . S
C833 C835 1.327 . S
C833 H856 0.950 . S
C834 C833 1.349 . S
C834 C846 1.349 . S
C835 C833 1.327 . S
C835 C851 1.429 . S
C835 H857 0.950 . S
C836 H832 0.949 . S
C836 C844 1.574 . S
C836 C852 1.368 . S
H837 C845 0.950 . S
H838 C843 0.950 . S
H839 C844 0.949 . S
H840 C846 0.950 . S
H841 C847 0.950 . S
H842 C848 0.949 . S
C843 H838 0.950 . S
C843 C845 1.327 . S
C843 C849 1.429 . S
C844 C836 1.574 . S
C844 H839 0.949 . S
C844 C850 1.368 . S
C845 C829 1.349 . S
C845 H837 0.950 . S
C845 C843 1.327 . S
C846 C834 1.349 . S
C846 H840 0.950 . S
C846 C847 1.327 . S
C847 H841 0.950 . S
C847 C846 1.327 . S
C847 C851 1.429 . S
C848 C831 1.574 . S
C848 H842 0.949 . S
C848 C852 1.368 . S
C849 C830 1.429 . S
C849 C843 1.429 . S
C849 C850 1.523 . S
C850 C831 1.368 . S
C850 C844 1.368 . S
C850 C849 1.523 . S
C851 C835 1.429 . S
C851 C847 1.429 . S
C851 C852 1.523 . S
C852 C836 1.368 . S
C852 C848 1.368 . S
C852 C851 1.523 . S
H853 C828 0.950 . S
H854 C830 0.950 . S
H855 C831 0.949 . S
H856 C833 0.950 . S
H857 C835 0.950 . S
C858 C859 1.349 . S
C858 C860 1.327 . S
C858 H883 0.950 . S
C859 C858 1.349 . S
C859 C875 1.349 . S
C860 C858 1.327 . S
C860 C879 1.429 . S
C860 H884 0.950 . S
C861 C878 1.574 . S
C861 C880 1.368 . S
C861 H885 0.949 . S
H862 C866 0.949 . S
C863 C864 1.349 . S
C863 C865 1.327 . S
C863 H886 0.950 . S
C864 C863 1.349 . S
C864 C876 1.349 . S
C865 C863 1.327 . S
C865 C881 1.429 . S
C865 H887 0.950 . S
C866 H862 0.949 . S
C866 C874 1.574 . S
C866 C882 1.368 . S
H867 C875 0.950 . S
H868 C873 0.950 . S
H869 C874 0.949 . S
H870 C876 0.950 . S
H871 C877 0.950 . S
H872 C878 0.949 . S
C873 H868 0.950 . S
C873 C875 1.327 . S
C873 C879 1.429 . S
C874 C866 1.574 . S
C874 H869 0.949 . S
C874 C880 1.368 . S
C875 C859 1.349 . S
C875 H867 0.950 . S
C875 C873 1.327 . S
C876 C864 1.349 . S
C876 H870 0.950 . S
C876 C877 1.327 . S
C877 H871 0.950 . S
C877 C876 1.327 . S
C877 C881 1.429 . S
C878 C861 1.574 . S
C878 H872 0.949 . S
C878 C882 1.368 . S
C879 C860 1.429 . S
C879 C873 1.429 . S
C879 C880 1.523 . S
C880 C861 1.368 . S
C880 C874 1.368 . S
C880 C879 1.523 . S
C881 C865 1.429 . S
C881 C877 1.429 . S
C881 C882 1.523 . S
C882 C866 1.368 . S
C882 C878 1.368 . S
C882 C881 1.523 . S
H883 C858 0.950 . S
H884 C860 0.950 . S
H885 C861 0.949 . S
H886 C863 0.950 . S
H887 C865 0.950 . S
C169 C118 1.487 . S
C174 C6 1.487 . S
C199 C20 1.487 . S
C204 C132 1.487 . S
C229 C34 1.487 . S
C234 C146 1.487 . S
C259 C48 1.487 . S
C264 C160 1.487 . S
C289 C90 1.487 . S
C294 C62 1.487 . S
C319 C76 1.487 . S
C324 C104 1.487 . S
C349 C7 1.608 . S
C354 C78 1.621 . S
C379 C21 1.608 . S
C384 C8 1.621 . S
C409 C35 1.608 . S
C414 C22 1.621 . S
C439 C36 1.621 . S
C444 C49 1.608 . S
C469 C50 1.621 . S
C474 C63 1.608 . S
C499 C64 1.621 . S
C504 C77 1.608 . S
C529 C106 1.621 . S
C534 C91 1.608 . S
C559 C105 1.608 . S
C564 C120 1.621 . S
C589 C134 1.621 . S
C594 C119 1.608 . S
C619 C133 1.608 . S
C624 C148 1.621 . S
C649 C147 1.608 . S
C654 C162 1.621 . S
C679 C161 1.608 . S
C684 C92 1.621 . S
C709 C149 1.453 . S
C714 C9 1.453 . S
C739 C163 1.453 . S
C744 C23 1.453 . S
C769 C93 1.453 . S
C774 C37 1.453 . S
C799 C51 1.453 . S
C804 C107 1.453 . S
C829 C65 1.453 . S
C834 C121 1.453 1_556 S
C859 C135 1.453 . S
C864 C79 1.453 1_554 S
