# Generated by pormake.
# Topology rhr, (4)-cn, num edge types: 1
# Building blocks:
#     Node 0, Type 0, BuildingBlock: MUDLON_clean_sbu_0, # of connection points: 4
#     Node 1, Type 0, BuildingBlock: MUDLON_clean_sbu_0, # of connection points: 4
#     Node 2, Type 0, BuildingBlock: MUDLON_clean_sbu_0, # of connection points: 4
#     Node 3, Type 0, BuildingBlock: MUDLON_clean_sbu_0, # of connection points: 4
#     Node 4, Type 0, BuildingBlock: MUDLON_clean_sbu_0, # of connection points: 4
#     Node 5, Type 0, BuildingBlock: MUDLON_clean_sbu_0, # of connection points: 4
#     Node 6, Type 0, BuildingBlock: MUDLON_clean_sbu_0, # of connection points: 4
#     Node 7, Type 0, BuildingBlock: MUDLON_clean_sbu_0, # of connection points: 4
#     Node 8, Type 0, BuildingBlock: MUDLON_clean_sbu_0, # of connection points: 4
#     Node 9, Type 0, BuildingBlock: MUDLON_clean_sbu_0, # of connection points: 4
#     Node 10, Type 0, BuildingBlock: MUDLON_clean_sbu_0, # of connection points: 4
#     Node 11, Type 0, BuildingBlock: MUDLON_clean_sbu_0, # of connection points: 4
#     Node 12, Type 0, BuildingBlock: MUDLON_clean_sbu_0, # of connection points: 4
#     Node 13, Type 0, BuildingBlock: MUDLON_clean_sbu_0, # of connection points: 4
#     Node 14, Type 0, BuildingBlock: MUDLON_clean_sbu_0, # of connection points: 4
#     Node 15, Type 0, BuildingBlock: MUDLON_clean_sbu_0, # of connection points: 4
#     Node 16, Type 0, BuildingBlock: MUDLON_clean_sbu_0, # of connection points: 4
#     Node 17, Type 0, BuildingBlock: MUDLON_clean_sbu_0, # of connection points: 4
#     Node 18, Type 0, BuildingBlock: MUDLON_clean_sbu_0, # of connection points: 4
#     Node 19, Type 0, BuildingBlock: MUDLON_clean_sbu_0, # of connection points: 4
#     Node 20, Type 0, BuildingBlock: MUDLON_clean_sbu_0, # of connection points: 4
#     Node 21, Type 0, BuildingBlock: MUDLON_clean_sbu_0, # of connection points: 4
#     Node 22, Type 0, BuildingBlock: MUDLON_clean_sbu_0, # of connection points: 4
#     Node 23, Type 0, BuildingBlock: MUDLON_clean_sbu_0, # of connection points: 4
#     Edge 24, Type (0, 0), BuildingBlock: MIFKUJ_clean_linker_0, # of connection points: 2
#     Edge 25, Type (0, 0), BuildingBlock: MIFKUJ_clean_linker_0, # of connection points: 2
#     Edge 26, Type (0, 0), BuildingBlock: MIFKUJ_clean_linker_0, # of connection points: 2
#     Edge 27, Type (0, 0), BuildingBlock: MIFKUJ_clean_linker_0, # of connection points: 2
#     Edge 28, Type (0, 0), BuildingBlock: MIFKUJ_clean_linker_0, # of connection points: 2
#     Edge 29, Type (0, 0), BuildingBlock: MIFKUJ_clean_linker_0, # of connection points: 2
#     Edge 30, Type (0, 0), BuildingBlock: MIFKUJ_clean_linker_0, # of connection points: 2
#     Edge 31, Type (0, 0), BuildingBlock: MIFKUJ_clean_linker_0, # of connection points: 2
#     Edge 32, Type (0, 0), BuildingBlock: MIFKUJ_clean_linker_0, # of connection points: 2
#     Edge 33, Type (0, 0), BuildingBlock: MIFKUJ_clean_linker_0, # of connection points: 2
#     Edge 34, Type (0, 0), BuildingBlock: MIFKUJ_clean_linker_0, # of connection points: 2
#     Edge 35, Type (0, 0), BuildingBlock: MIFKUJ_clean_linker_0, # of connection points: 2
#     Edge 36, Type (0, 0), BuildingBlock: MIFKUJ_clean_linker_0, # of connection points: 2
#     Edge 37, Type (0, 0), BuildingBlock: MIFKUJ_clean_linker_0, # of connection points: 2
#     Edge 38, Type (0, 0), BuildingBlock: MIFKUJ_clean_linker_0, # of connection points: 2
#     Edge 39, Type (0, 0), BuildingBlock: MIFKUJ_clean_linker_0, # of connection points: 2
#     Edge 40, Type (0, 0), BuildingBlock: MIFKUJ_clean_linker_0, # of connection points: 2
#     Edge 41, Type (0, 0), BuildingBlock: MIFKUJ_clean_linker_0, # of connection points: 2
#     Edge 42, Type (0, 0), BuildingBlock: MIFKUJ_clean_linker_0, # of connection points: 2
#     Edge 43, Type (0, 0), BuildingBlock: MIFKUJ_clean_linker_0, # of connection points: 2
#     Edge 44, Type (0, 0), BuildingBlock: MIFKUJ_clean_linker_0, # of connection points: 2
#     Edge 45, Type (0, 0), BuildingBlock: MIFKUJ_clean_linker_0, # of connection points: 2
#     Edge 46, Type (0, 0), BuildingBlock: MIFKUJ_clean_linker_0, # of connection points: 2
#     Edge 47, Type (0, 0), BuildingBlock: MIFKUJ_clean_linker_0, # of connection points: 2
#     Edge 48, Type (0, 0), BuildingBlock: MIFKUJ_clean_linker_0, # of connection points: 2
#     Edge 49, Type (0, 0), BuildingBlock: MIFKUJ_clean_linker_0, # of connection points: 2
#     Edge 50, Type (0, 0), BuildingBlock: MIFKUJ_clean_linker_0, # of connection points: 2
#     Edge 51, Type (0, 0), BuildingBlock: MIFKUJ_clean_linker_0, # of connection points: 2
#     Edge 52, Type (0, 0), BuildingBlock: MIFKUJ_clean_linker_0, # of connection points: 2
#     Edge 53, Type (0, 0), BuildingBlock: MIFKUJ_clean_linker_0, # of connection points: 2
#     Edge 54, Type (0, 0), BuildingBlock: MIFKUJ_clean_linker_0, # of connection points: 2
#     Edge 55, Type (0, 0), BuildingBlock: MIFKUJ_clean_linker_0, # of connection points: 2
#     Edge 56, Type (0, 0), BuildingBlock: MIFKUJ_clean_linker_0, # of connection points: 2
#     Edge 57, Type (0, 0), BuildingBlock: MIFKUJ_clean_linker_0, # of connection points: 2
#     Edge 58, Type (0, 0), BuildingBlock: MIFKUJ_clean_linker_0, # of connection points: 2
#     Edge 59, Type (0, 0), BuildingBlock: MIFKUJ_clean_linker_0, # of connection points: 2
#     Edge 60, Type (0, 0), BuildingBlock: MIFKUJ_clean_linker_0, # of connection points: 2
#     Edge 61, Type (0, 0), BuildingBlock: MIFKUJ_clean_linker_0, # of connection points: 2
#     Edge 62, Type (0, 0), BuildingBlock: MIFKUJ_clean_linker_0, # of connection points: 2
#     Edge 63, Type (0, 0), BuildingBlock: MIFKUJ_clean_linker_0, # of connection points: 2
#     Edge 64, Type (0, 0), BuildingBlock: MIFKUJ_clean_linker_0, # of connection points: 2
#     Edge 65, Type (0, 0), BuildingBlock: MIFKUJ_clean_linker_0, # of connection points: 2
#     Edge 66, Type (0, 0), BuildingBlock: MIFKUJ_clean_linker_0, # of connection points: 2
#     Edge 67, Type (0, 0), BuildingBlock: MIFKUJ_clean_linker_0, # of connection points: 2
#     Edge 68, Type (0, 0), BuildingBlock: MIFKUJ_clean_linker_0, # of connection points: 2
#     Edge 69, Type (0, 0), BuildingBlock: MIFKUJ_clean_linker_0, # of connection points: 2
#     Edge 70, Type (0, 0), BuildingBlock: MIFKUJ_clean_linker_0, # of connection points: 2
#     Edge 71, Type (0, 0), BuildingBlock: MIFKUJ_clean_linker_0, # of connection points: 2
# Relax obj value: 0.018
# Max RMSD: 0.032
# Mean RMSD: 0.030
data_MOF--net-rhr--node1-MUDLON_clean_sbu_0--edge1-MIFKUJ_clean_linker_0
_symmetry_space_group_name_H-M    P1
_symmetry_Int_Tables_number       1
_symmetry_cell_setting            triclinic
loop_
_symmetry_equiv_pos_as_xyz
'x, y, z'
_cell_length_a     67.933913
_cell_length_b     67.964519
_cell_length_c     67.865705
_cell_angle_alpha  90.175405
_cell_angle_beta   89.894324
_cell_angle_gamma 90.062205
loop_
_atom_site_label
_atom_site_type_symbol
_atom_site_fract_x
_atom_site_fract_y
_atom_site_fract_z
_atom_type_partial_charge
Mg0 Mg 0.31672 0.00832 0.31237 0.0
C1 C 0.32447 0.99269 0.2709 0.0
O2 O 0.32287 0.0114 0.26641 0.0
C3 C 0.29198 0.0405 0.32716 0.0
O4 O 0.30947 0.04418 0.33454 0.0
C5 C 0.33936 0.04237 0.29757 0.0
O6 O 0.32138 0.04603 0.29152 0.0
O7 O 0.34223 0.02746 0.3085 0.0
O8 O 0.32016 0.98719 0.28831 0.0
O9 O 0.31495 0.99159 0.33963 0.0
C10 C 0.29758 0.98493 0.34205 0.0
O11 O 0.28458 0.98783 0.32805 0.0
O12 O 0.2901 0.02626 0.31506 0.0
Mg13 Mg 0.00856 0.37131 0.35304 0.0
C14 C 0.98502 0.38859 0.32275 0.0
O15 O 0.99001 0.40257 0.33519 0.0
C16 C 0.04079 0.35061 0.37287 0.0
O17 O 0.04099 0.36846 0.38036 0.0
C18 C 0.04294 0.39393 0.33861 0.0
O19 O 0.04721 0.3756 0.33417 0.0
O20 O 0.02735 0.39739 0.34853 0.0
O21 O 0.99131 0.37121 0.32588 0.0
O22 O 0.98488 0.36982 0.37506 0.0
C23 C 0.986 0.36707 0.39358 0.0
O24 O 1.00323 0.36782 0.40229 0.0
O25 O 0.02819 0.34664 0.35954 0.0
Mg26 Mg 0.66259 0.02023 0.3632 0.0
C27 C 0.64901 0.05139 0.33187 0.0
O28 O 0.66177 0.04143 0.32124 0.0
C29 C 0.69511 0.98873 0.37165 0.0
O30 O 0.70376 0.99841 0.3573 0.0
C31 C 0.64956 0.99085 0.32995 0.0
O32 O 0.66752 0.99526 0.32424 0.0
O33 O 0.64283 0.99887 0.34554 0.0
O34 O 0.64624 0.04648 0.34973 0.0
O35 O 0.68312 0.04103 0.3809 0.0
C36 C 0.69182 0.05581 0.37335 0.0
O37 O 0.68869 0.06002 0.35475 0.0
O38 O 0.67805 0.99403 0.37723 0.0
Mg39 Mg 0.01666 0.68913 0.36019 0.0
C40 C 0.05362 0.71274 0.3722 0.0
O41 O 0.05278 0.7157 0.35311 0.0
C42 C 0.97565 0.67375 0.34005 0.0
O43 O 0.96652 0.68199 0.35502 0.0
C44 C 0.99627 0.72673 0.37765 0.0
O45 O 0.01224 0.73441 0.36988 0.0
O46 O 0.9931 0.70837 0.37542 0.0
O47 O 0.04019 0.70252 0.38034 0.0
O48 O 0.04061 0.67027 0.34599 0.0
C49 C 0.0473 0.6746 0.32905 0.0
O50 O 0.03974 0.68965 0.31961 0.0
O51 O 0.99432 0.67489 0.3389 0.0
Mg52 Mg 0.37949 0.02794 0.6467 0.0
C53 C 0.38574 0.06437 0.67371 0.0
O54 O 0.36835 0.05837 0.67968 0.0
C55 C 0.34898 0.99451 0.64189 0.0
O56 O 0.34203 0.00393 0.65734 0.0
C57 C 0.39251 0.99979 0.6811 0.0
O58 O 0.37455 0.00394 0.68698 0.0
O59 O 0.39896 0.0076 0.66533 0.0
O60 O 0.39449 0.05483 0.66016 0.0
O61 O 0.3602 0.04816 0.62764 0.0
C62 C 0.34395 0.05522 0.63378 0.0
O63 O 0.33775 0.05062 0.65152 0.0
O64 O 0.36446 1.00094 0.63358 0.0
Mg65 Mg 0.03254 0.3403 0.67882 0.0
C66 C 0.99976 0.32553 0.65604 0.0
O67 O 0.99871 0.31712 0.67343 0.0
C68 C 0.05446 0.37931 0.68471 0.0
O69 O 0.03655 0.38608 0.68742 0.0
C70 C 0.05194 0.30945 0.65746 0.0
O71 O 0.05002 0.3246 0.64564 0.0
O72 O 0.04641 0.31136 0.67534 0.0
O73 O 0.01273 0.33883 0.65342 0.0
O74 O 0.01482 0.34681 0.70521 0.0
C75 C 0.99987 0.35775 0.70236 0.0
O76 O 0.99568 0.36302 0.68424 0.0
O77 O 0.05674 0.36151 0.67929 0.0
Mg78 Mg 0.68573 0.03955 0.6924 0.0
C79 C 0.68037 0.00552 0.71911 0.0
O80 O 0.67942 0.99722 0.70164 0.0
C81 C 0.70001 0.07753 0.67597 0.0
O82 O 0.68193 0.07633 0.66923 0.0
C83 C 0.65707 0.06573 0.70884 0.0
O84 O 0.67429 0.07038 0.71633 0.0
O85 O 0.6564 0.05237 0.69563 0.0
O86 O 0.68572 0.02346 0.72023 0.0
O87 O 0.69275 0.0189 0.66825 0.0
C88 C 0.71035 0.02024 0.66175 0.0
O89 O 0.72202 0.03365 0.66934 0.0
O90 O 0.70597 0.06442 0.68796 0.0
Mg91 Mg 0.00837 0.67967 0.67587 0.0
C92 C 0.03014 0.66444 0.71419 0.0
O93 O 0.01403 0.67141 0.72235 0.0
C94 C 0.97539 0.70811 0.65977 0.0
O95 O 0.98024 0.71795 0.67573 0.0
C96 C 0.97264 0.66721 0.70165 0.0
O97 O 0.97314 0.68619 0.70534 0.0
O98 O 0.9855 0.65981 0.6902 0.0
O99 O 0.03247 0.66616 0.69564 0.0
O100 O 0.03063 0.69983 0.66072 0.0
C101 C 0.04359 0.71001 0.66959 0.0
O102 O 0.0452 0.70868 0.68883 0.0
O103 O 0.98432 0.69214 0.65582 0.0
Mg104 Mg 0.339 0.35706 0.02441 0.0
C105 C 0.3627 0.35143 0.98695 0.0
O106 O 0.34565 0.35629 0.97927 0.0
C107 C 0.34603 0.39147 0.05474 0.0
O108 O 0.36174 0.38196 0.06071 0.0
C109 C 0.33899 0.33539 0.06427 0.0
O110 O 0.33152 0.35192 0.07097 0.0
O111 O 0.34145 0.33322 0.04578 0.0
O112 O 0.36478 0.35246 0.00556 0.0
O113 O 0.3131 0.35717 0.00531 0.0
C114 C 0.29785 0.36683 0.01037 0.0
O115 O 0.29669 0.37367 0.02846 0.0
O116 O 0.33634 0.38495 0.04009 0.0
Mg117 Mg 0.69353 0.33602 0.00974 0.0
C118 C 0.65943 0.3225 0.03726 0.0
O119 O 0.65039 0.33567 0.02642 0.0
C120 C 0.70541 0.36903 0.97973 0.0
O121 O 0.69257 0.37911 0.99013 0.0
C122 C 0.65954 0.33314 0.9795 0.0
O123 O 0.65849 0.35171 0.98483 0.0
O124 O 0.67244 0.32221 0.98747 0.0
O125 O 0.67776 0.31971 0.03465 0.0
O126 O 0.7148 0.35081 0.03139 0.0
C127 C 0.70904 0.36603 0.04068 0.0
O128 O 0.69077 0.37192 0.03845 0.0
O129 O 0.70914 0.35135 0.98448 0.0
Mg130 Mg 0.69173 0.693 0.00824 0.0
C131 C 0.69588 0.66345 0.04351 0.0
O132 O 0.6798 0.65646 0.03535 0.0
C133 C 0.66378 0.70134 0.97229 0.0
O134 O 0.65588 0.68484 0.97853 0.0
C135 C 0.70798 0.656 0.98472 0.0
O136 O 0.69079 0.64892 0.9901 0.0
O137 O 0.71237 0.67361 0.98943 0.0
O138 O 0.70411 0.67849 0.03597 0.0
O139 O 0.67196 0.71315 0.02705 0.0
C140 C 0.65465 0.70825 0.03229 0.0
O141 O 0.648 0.69075 0.0274 0.0
O142 O 0.67914 0.70787 0.98081 0.0
Mg143 Mg 0.34765 0.69317 0.00444 0.0
C144 C 0.34098 0.65335 0.98478 0.0
O145 O 0.33455 0.64892 1.00249 0.0
C146 C 0.37794 0.68606 0.04039 0.0
O147 O 0.37203 0.66781 0.04275 0.0
C148 C 0.31832 0.68872 0.03839 0.0
O149 O 0.33319 0.696 0.04839 0.0
O150 O 0.31962 0.68775 0.01969 0.0
O151 O 0.34915 0.67 0.98204 0.0
O152 O 0.3523 0.7207 0.98812 0.0
C153 C 0.3705 0.72249 0.98373 0.0
O154 O 0.38246 0.7081 0.98853 0.0
O155 O 0.37072 0.69647 0.02665 0.0
Mg156 Mg 0.84671 0.50452 0.83661 0.0
C157 C 0.8735 0.47946 0.81504 0.0
O158 O 0.85894 0.48413 0.80323 0.0
C159 C 0.82324 0.52504 0.86664 0.0
O160 O 0.81048 0.51741 0.85427 0.0
C161 C 0.84707 0.54316 0.81435 0.0
O162 O 0.84352 0.55023 0.83203 0.0
O163 O 0.84756 0.52462 0.81186 0.0
O164 O 0.87334 0.48658 0.83246 0.0
O165 O 0.82191 0.48426 0.83576 0.0
C166 C 0.82451 0.46608 0.83924 0.0
O167 O 0.84254 0.4593 0.84056 0.0
O168 O 0.84154 0.52208 0.86352 0.0
Mg169 Mg 0.51845 0.86417 0.84655 0.0
C170 C 0.55504 0.88581 0.83614 0.0
O171 O 0.55855 0.86765 0.83048 0.0
C172 C 0.47961 0.86047 0.86891 0.0
O173 O 0.4726 0.86418 0.85129 0.0
C174 C 0.50846 0.87286 0.80362 0.0
O175 O 0.5277 0.87391 0.8022 0.0
O176 O 0.50082 0.86716 0.81978 0.0
O177 O 0.53887 0.88941 0.84504 0.0
O178 O 0.53644 0.83772 0.84998 0.0
C179 C 0.54891 0.83967 0.86384 0.0
O180 O 0.54973 0.85655 0.8733 0.0
O181 O 0.49815 0.86151 0.87165 0.0
Mg182 Mg 0.19587 0.51612 0.83597 0.0
C183 C 0.17302 0.54542 0.81518 0.0
O184 O 0.18794 0.54065 0.80377 0.0
C185 C 0.21104 0.48512 0.86071 0.0
O186 O 0.22403 0.48819 0.84667 0.0
C187 C 0.18985 0.48089 0.808 0.0
O188 O 0.19041 0.4709 0.8245 0.0
O189 O 0.19339 0.4993 0.80835 0.0
O190 O 0.17195 0.53748 0.83216 0.0
O191 O 0.2235 0.53184 0.842 0.0
C192 C 0.22503 0.5505 0.84281 0.0
O193 O 0.21017 0.56141 0.83709 0.0
O194 O 0.19526 0.49528 0.8606 0.0
Mg195 Mg 0.50565 0.20807 0.83511 0.0
C196 C 0.47309 0.19799 0.80721 0.0
O197 O 0.46474 0.19377 0.82416 0.0
C198 C 0.52464 0.24831 0.84212 0.0
O199 O 0.50629 0.25423 0.84333 0.0
C200 C 0.51624 0.16484 0.82854 0.0
O201 O 0.49739 0.16326 0.82458 0.0
O202 O 0.52272 0.1809 0.83574 0.0
O203 O 0.49014 0.20575 0.80717 0.0
O204 O 0.48572 0.21506 0.85954 0.0
C205 C 0.47209 0.22735 0.8558 0.0
O206 O 0.4698 0.2333 0.83754 0.0
O207 O 0.52822 0.23068 0.83689 0.0
Mg208 Mg 0.83553 0.52345 0.19125 0.0
C209 C 0.85616 0.55303 0.21312 0.0
O210 O 0.83881 0.55025 0.22128 0.0
C211 C 0.81474 0.50123 0.16175 0.0
O212 O 0.80194 0.50721 0.17499 0.0
C213 C 0.83778 0.48391 0.21241 0.0
O214 O 0.83205 0.47717 0.19521 0.0
O215 O 0.83796 0.50243 0.21539 0.0
O216 O 0.8604 0.54306 0.19773 0.0
O217 O 0.80995 0.54298 0.18971 0.0
C218 C 0.81309 0.55882 0.18022 0.0
O219 O 0.83115 0.56279 0.17451 0.0
O220 O 0.83275 0.50606 0.16404 0.0
Mg221 Mg 0.50469 0.84341 0.1842 0.0
C222 C 0.47297 0.81712 0.17203 0.0
O223 O 0.46912 0.83414 0.16378 0.0
C224 C 0.54082 0.85814 0.20475 0.0
O225 O 0.54549 0.86065 0.18614 0.0
C226 C 0.52797 0.82185 0.15555 0.0
O227 O 0.5239 0.80958 0.1699 0.0
O228 O 0.52204 0.8396 0.15706 0.0
O229 O 0.48729 0.8162 0.18408 0.0
O230 O 0.48298 0.86696 0.18741 0.0
C231 C 0.47464 0.87886 0.17565 0.0
O232 O 0.47936 0.87871 0.15687 0.0
O233 O 0.52472 0.8494 0.20884 0.0
Mg234 Mg 0.19361 0.53294 0.19213 0.0
C235 C 0.21255 0.56172 0.16683 0.0
O236 O 0.22328 0.56026 0.18285 0.0
C237 C 0.17002 0.50342 0.21235 0.0
O238 O 0.18813 0.50141 0.2188 0.0
C239 C 0.21517 0.49883 0.17732 0.0
O240 O 0.1975 0.49723 0.16962 0.0
O241 O 0.21835 0.51275 0.18947 0.0
O242 O 0.19697 0.55128 0.16561 0.0
O243 O 0.19371 0.55271 0.21738 0.0
C244 C 0.18479 0.56889 0.21446 0.0
O245 O 0.1788 0.57298 0.19655 0.0
O246 O 0.16689 0.51582 0.19863 0.0
Mg247 Mg 0.50415 0.19058 0.18675 0.0
C248 C 0.53779 0.2103 0.16901 0.0
O249 O 0.53566 0.21823 0.18657 0.0
C250 C 0.47 0.16243 0.18708 0.0
O251 O 0.46075 0.17913 0.18431 0.0
C252 C 0.47736 0.21507 0.16455 0.0
O253 O 0.48598 0.2032 0.15189 0.0
O254 O 0.48236 0.21395 0.18261 0.0
O255 O 0.52615 0.19647 0.16399 0.0
O256 O 0.52071 0.18833 0.21424 0.0
C257 C 0.53548 0.17703 0.2118 0.0
O258 O 0.53876 0.1698 0.19412 0.0
O259 O 0.48873 0.16233 0.1865 0.0
Mg260 Mg 0.83108 0.84663 0.52235 0.0
C261 C 0.82169 0.88794 0.53865 0.0
O262 O 0.82516 0.89356 0.52046 0.0
C263 C 0.87437 0.83781 0.51203 0.0
O264 O 0.87542 0.83247 0.53058 0.0
C265 C 0.81243 0.85505 0.48348 0.0
O266 O 0.83122 0.85591 0.47902 0.0
O267 O 0.8075 0.84959 0.50073 0.0
O268 O 0.82478 0.87013 0.54344 0.0
O269 O 0.83199 0.81982 0.53968 0.0
C270 C 0.83902 0.80392 0.5327 0.0
O271 O 0.84239 0.80268 0.51366 0.0
O272 O 0.85883 0.84624 0.50589 0.0
Mg273 Mg 0.20426 0.83539 0.52163 0.0
C274 C 0.20162 0.81157 0.48414 0.0
O275 O 0.20599 0.82878 0.47655 0.0
C276 C 0.22572 0.84967 0.55593 0.0
O277 O 0.20803 0.8573 0.5576 0.0
C278 C 0.18047 0.82082 0.55416 0.0
O279 O 0.19788 0.81277 0.55646 0.0
O280 O 0.17789 0.83265 0.53987 0.0
O281 O 0.20218 0.80953 0.50276 0.0
O282 O 0.20796 0.86148 0.50314 0.0
C283 C 0.22604 0.86447 0.49906 0.0
O284 O 0.23917 0.85211 0.50595 0.0
O285 O 0.22905 0.8377 0.54188 0.0
Mg286 Mg 0.17341 0.17566 0.49779 0.0
C287 C 0.15299 0.17329 0.53765 0.0
O288 O 0.17082 0.16823 0.54308 0.0
C289 C 0.18436 0.15711 0.46006 0.0
O290 O 0.19072 0.17533 0.4588 0.0
C291 C 0.15334 0.20056 0.46901 0.0
O292 O 0.14515 0.18313 0.46716 0.0
O293 O 0.16724 0.20268 0.48143 0.0
O294 O 0.14935 0.17521 0.51934 0.0
O295 O 0.20082 0.17427 0.51484 0.0
C296 C 0.2164 0.16637 0.50798 0.0
O297 O 0.21695 0.16131 0.48932 0.0
O298 O 0.17507 0.15204 0.47559 0.0
Mg299 Mg 0.84046 0.20834 0.5122 0.0
C300 C 0.81781 0.18813 0.48042 0.0
O301 O 0.80912 0.20536 0.48155 0.0
C302 C 0.88408 0.21673 0.51792 0.0
O303 O 0.88259 0.22231 0.49949 0.0
C304 C 0.82498 0.18824 0.54682 0.0
O305 O 0.84152 0.17925 0.54234 0.0
O306 O 0.8199 0.20302 0.5365 0.0
O307 O 0.83289 0.185 0.4911 0.0
O308 O 0.84069 0.23761 0.49862 0.0
C309 C 0.84608 0.23915 0.48069 0.0
O310 O 0.84799 0.22303 0.47013 0.0
O311 O 0.86956 0.20798 0.52594 0.0
H312 H 0.17248 0.1184 0.45537 0.0
H313 H 0.18331 0.09515 0.42971 0.0
H314 H 0.22032 0.14025 0.40457 0.0
H315 H 0.20911 0.16342 0.42933 0.0
H316 H 0.20413 0.12167 0.37626 0.0
H317 H 0.23759 0.10116 0.4365 0.0
H318 H 0.23895 0.08902 0.47071 0.0
H319 H 0.20546 0.03798 0.45413 0.0
H320 H 0.20373 0.04996 0.41987 0.0
H321 H 0.2903 0.07879 0.33798 0.0
H322 H 0.26439 0.09512 0.35696 0.0
H323 H 0.22965 0.04199 0.35558 0.0
H324 H 0.25552 0.02564 0.33602 0.0
H325 H 0.23656 0.05903 0.3946 0.0
H326 H 0.21139 0.07753 0.33192 0.0
H327 H 0.21302 0.09014 0.29793 0.0
H328 H 0.23346 0.14601 0.31943 0.0
H329 H 0.23224 0.13365 0.35354 0.0
C330 C 0.1828 0.12332 0.44425 0.0
C331 C 0.18992 0.14278 0.44445 0.0
C332 C 0.18908 0.11 0.42964 0.0
C333 C 0.20283 0.11583 0.41522 0.0
C334 C 0.20964 0.13533 0.41537 0.0
C335 C 0.20323 0.14861 0.42968 0.0
C336 C 0.21078 0.1019 0.40012 0.0
C337 C 0.21121 0.10798 0.38032 0.0
C338 C 0.21946 0.08364 0.40514 0.0
C339 C 0.22032 0.07656 0.42573 0.0
C340 C 0.23039 0.08743 0.44021 0.0
C341 C 0.23125 0.08057 0.45959 0.0
C342 C 0.22223 0.06278 0.46461 0.0
C343 C 0.21235 0.0518 0.45025 0.0
C344 C 0.21142 0.05862 0.43085 0.0
C345 C 0.27692 0.07075 0.34127 0.0
C346 C 0.2748 0.05105 0.33537 0.0
C347 C 0.26214 0.08007 0.35215 0.0
C348 C 0.24509 0.06978 0.35766 0.0
C349 C 0.24267 0.0502 0.35139 0.0
C350 C 0.25734 0.04096 0.34008 0.0
C351 C 0.23068 0.07937 0.37109 0.0
C352 C 0.22902 0.07247 0.39049 0.0
C353 C 0.22114 0.09705 0.3658 0.0
C354 C 0.2218 0.10461 0.3453 0.0
C355 C 0.21636 0.09246 0.3294 0.0
C356 C 0.21719 0.09958 0.31011 0.0
C357 C 0.22336 0.11885 0.30652 0.0
C358 C 0.22868 0.13108 0.32223 0.0
C359 C 0.22789 0.12403 0.34155 0.0
H360 H 0.22399 0.12433 0.29158 0.0
H361 H 0.22295 0.05747 0.47961 0.0
H362 H 0.9781 0.36882 0.43331 0.0
H363 H 0.95066 0.35334 0.45095 0.0
H364 H 0.92826 0.33072 0.39583 0.0
H365 H 0.95466 0.34733 0.37821 0.0
H366 H 0.899 0.33886 0.41573 0.0
H367 H 0.95823 0.30242 0.43323 0.0
H368 H 0.99138 0.29791 0.44717 0.0
H369 H 0.9715 0.3208 0.50281 0.0
H370 H 0.93814 0.32529 0.48918 0.0
H371 H 0.85415 0.24865 0.44253 0.0
H372 H 0.87387 0.27619 0.43057 0.0
H373 H 0.87816 0.29907 0.48975 0.0
H374 H 0.85839 0.27141 0.50187 0.0
H375 H 0.91403 0.29559 0.4724 0.0
H376 H 0.85242 0.32419 0.45493 0.0
H377 H 0.81929 0.32512 0.44017 0.0
H378 H 0.84411 0.31424 0.38294 0.0
H379 H 0.87737 0.31298 0.39738 0.0
C380 C 0.96712 0.36077 0.42498 0.0
C381 C 0.96858 0.35933 0.40436 0.0
C382 C 0.95152 0.3517 0.4351 0.0
C383 C 0.93748 0.34031 0.42489 0.0
C384 C 0.93873 0.33937 0.40421 0.0
C385 C 0.95393 0.3489 0.39409 0.0
C386 C 0.92176 0.32888 0.43543 0.0
C387 C 0.90241 0.3293 0.42802 0.0
C388 C 0.92576 0.31683 0.45199 0.0
C389 C 0.94582 0.31445 0.46011 0.0
C390 C 0.961 0.30663 0.44839 0.0
C391 C 0.97981 0.30405 0.45625 0.0
C392 C 0.98363 0.30924 0.47582 0.0
C393 C 0.96857 0.31688 0.48762 0.0
C394 C 0.94969 0.31939 0.47986 0.0
C395 C 0.85888 0.25977 0.45296 0.0
C396 C 0.85465 0.25781 0.47316 0.0
C397 C 0.87014 0.27558 0.44608 0.0
C398 C 0.87748 0.2898 0.45922 0.0
C399 C 0.87263 0.28832 0.47931 0.0
C400 C 0.8612 0.27256 0.4862 0.0
C401 C 0.89164 0.30502 0.45213 0.0
C402 C 0.91062 0.30537 0.46027 0.0
C403 C 0.88738 0.31749 0.43604 0.0
C404 C 0.8674 0.31839 0.42727 0.0
C405 C 0.85081 0.32187 0.43921 0.0
C406 C 0.832 0.32248 0.4309 0.0
C407 C 0.8296 0.31972 0.41064 0.0
C408 C 0.846 0.31639 0.39863 0.0
C409 C 0.86483 0.31576 0.40687 0.0
H410 H 0.81503 0.32018 0.40423 0.0
H411 H 0.99823 0.30725 0.48186 0.0
H412 H 0.77285 0.86129 0.48964 0.0
H413 H 0.75069 0.88106 0.46919 0.0
H414 H 0.79717 0.88927 0.42665 0.0
H415 H 0.81926 0.86953 0.44675 0.0
H416 H 0.78089 0.92428 0.43983 0.0
H417 H 0.75916 0.86157 0.41486 0.0
H418 H 0.74602 0.82785 0.4174 0.0
H419 H 0.69324 0.85005 0.4443 0.0
H420 H 0.70619 0.88392 0.44218 0.0
H421 H 0.73205 0.97459 0.36418 0.0
H422 H 0.74984 0.94919 0.38223 0.0
H423 H 0.69968 0.94087 0.42036 0.0
H424 H 0.68164 0.96613 0.40222 0.0
H425 H 0.71659 0.90578 0.41055 0.0
H426 H 0.73755 0.96792 0.43603 0.0
H427 H 0.75014 1.00191 0.43443 0.0
H428 H 0.80388 0.98113 0.40829 0.0
H429 H 0.79147 0.94702 0.40946 0.0
C430 C 0.77821 0.86694 0.47572 0.0
C431 C 0.79788 0.86395 0.46992 0.0
C432 C 0.76554 0.87825 0.46407 0.0
C433 C 0.77235 0.88673 0.44647 0.0
C434 C 0.79166 0.88296 0.44023 0.0
C435 C 0.80425 0.8716 0.45175 0.0
C436 C 0.76003 0.90081 0.4353 0.0
C437 C 0.76696 0.92015 0.4332 0.0
C438 C 0.74155 0.8956 0.42726 0.0
C439 C 0.73374 0.87526 0.42857 0.0
C440 C 0.74483 0.85925 0.4215 0.0
C441 C 0.7374 0.84011 0.42282 0.0
C442 C 0.71883 0.8368 0.43106 0.0
C443 C 0.70764 0.85263 0.43796 0.0
C444 C 0.71501 0.87181 0.43668 0.0
C445 C 0.72472 0.96729 0.37632 0.0
C446 C 0.70548 0.97253 0.38186 0.0
C447 C 0.73494 0.95279 0.38665 0.0
C448 C 0.72618 0.94332 0.40282 0.0
C449 C 0.70673 0.94801 0.40797 0.0
C450 C 0.69648 0.96252 0.39762 0.0
C451 C 0.73765 0.92914 0.41478 0.0
C452 C 0.73053 0.90987 0.41717 0.0
C453 C 0.75592 0.93444 0.42328 0.0
C454 C 0.76349 0.95493 0.42265 0.0
C455 C 0.75199 0.97061 0.4298 0.0
C456 C 0.7591 0.9899 0.42899 0.0
C457 C 0.77778 0.99369 0.42121 0.0
C458 C 0.7894 0.97818 0.41428 0.0
C459 C 0.78234 0.95886 0.41502 0.0
H460 H 0.78326 0.00863 0.4206 0.0
H461 H 0.7131 0.82197 0.43207 0.0
H462 H 0.18112 0.779 0.49629 0.0
H463 H 0.1586 0.75909 0.47653 0.0
H464 H 0.17633 0.79059 0.42432 0.0
H465 H 0.19858 0.81084 0.44404 0.0
H466 H 0.13782 0.79129 0.42812 0.0
H467 H 0.1871 0.74109 0.43119 0.0
H468 H 0.21077 0.71881 0.44719 0.0
H469 H 0.16374 0.69173 0.47967 0.0
H470 H 0.1398 0.71404 0.46406 0.0
H471 H 0.08353 0.73602 0.35897 0.0
H472 H 0.11073 0.74991 0.37787 0.0
H473 H 0.08857 0.72226 0.43055 0.0
H474 H 0.06121 0.70813 0.41166 0.0
H475 H 0.12937 0.71879 0.42659 0.0
H476 H 0.08046 0.76957 0.42419 0.0
H477 H 0.05673 0.79173 0.4081 0.0
H478 H 0.10349 0.81775 0.3744 0.0
H479 H 0.12747 0.79553 0.39007 0.0
C480 C 0.18063 0.78137 0.48052 0.0
C481 C 0.19153 0.79665 0.47177 0.0
C482 C 0.16773 0.76993 0.46921 0.0
C483 C 0.16569 0.77337 0.44892 0.0
C484 C 0.17754 0.78775 0.43997 0.0
C485 C 0.19033 0.79927 0.45127 0.0
C486 C 0.14986 0.7635 0.43744 0.0
C487 C 0.13623 0.77541 0.42751 0.0
C488 C 0.14733 0.74281 0.43717 0.0
C489 C 0.16168 0.72937 0.44659 0.0
C490 C 0.18182 0.7305 0.44187 0.0
C491 C 0.19528 0.71784 0.45084 0.0
C492 C 0.18877 0.7039 0.46447 0.0
C493 C 0.16876 0.70255 0.46912 0.0
C494 C 0.15524 0.71519 0.4602 0.0
C495 C 0.08439 0.73285 0.37457 0.0
C496 C 0.0701 0.72107 0.38383 0.0
C497 C 0.09997 0.74083 0.38536 0.0
C498 C 0.10158 0.73725 0.40564 0.0
C499 C 0.08758 0.72519 0.4149 0.0
C500 C 0.07191 0.71723 0.40411 0.0
C501 C 0.11761 0.74662 0.41717 0.0
C502 C 0.13113 0.73465 0.42716 0.0
C503 C 0.1201 0.76728 0.41753 0.0
C504 C 0.10573 0.78075 0.40817 0.0
C505 C 0.08566 0.77991 0.41323 0.0
C506 C 0.07217 0.7925 0.40421 0.0
C507 C 0.07859 0.80611 0.3902 0.0
C508 C 0.09853 0.80719 0.38523 0.0
C509 C 0.11208 0.79461 0.39419 0.0
H510 H 0.06812 0.81585 0.38323 0.0
H511 H 0.19921 0.69411 0.4714 0.0
H512 H 0.26506 0.85195 0.54701 0.0
H513 H 0.2895 0.87266 0.56376 0.0
H514 H 0.24677 0.88687 0.6087 0.0
H515 H 0.22234 0.86656 0.59193 0.0
H516 H 0.26073 0.91913 0.59111 0.0
H517 H 0.2881 0.86019 0.61912 0.0
H518 H 0.30243 0.82689 0.61827 0.0
H519 H 0.35067 0.84805 0.58325 0.0
H520 H 0.33647 0.88145 0.58365 0.0
H521 H 0.31496 0.97813 0.65561 0.0
H522 H 0.2973 0.94979 0.64232 0.0
H523 H 0.34202 0.94232 0.59775 0.0
H524 H 0.35996 0.97071 0.61105 0.0
H525 H 0.32891 0.90631 0.61371 0.0
H526 H 0.30197 0.96422 0.58473 0.0
H527 H 0.28818 0.99768 0.58444 0.0
H528 H 0.23927 0.97832 0.61962 0.0
H529 H 0.253 0.94472 0.62038 0.0
C530 C 0.26112 0.859 0.5608 0.0
C531 C 0.24177 0.85783 0.56809 0.0
C532 C 0.27508 0.87084 0.57034 0.0
C533 C 0.26989 0.88143 0.5874 0.0
C534 C 0.25103 0.87896 0.59548 0.0
C535 C 0.2371 0.86732 0.5859 0.0
C536 C 0.28297 0.89697 0.59546 0.0
C537 C 0.27552 0.91621 0.59635 0.0
C538 C 0.30256 0.89335 0.60149 0.0
C539 C 0.31111 0.87328 0.60124 0.0
C540 C 0.30167 0.85771 0.61108 0.0
C541 C 0.30979 0.83882 0.61072 0.0
C542 C 0.32742 0.83534 0.60067 0.0
C543 C 0.337 0.85076 0.591 0.0
C544 C 0.32893 0.86968 0.59131 0.0
C545 C 0.32115 0.97043 0.64305 0.0
C546 C 0.33877 0.97682 0.63426 0.0
C547 C 0.31103 0.95421 0.63549 0.0
C548 C 0.31828 0.94408 0.61896 0.0
C549 C 0.33621 0.94995 0.61054 0.0
C550 C 0.34635 0.96624 0.61808 0.0
C551 C 0.30637 0.92822 0.60983 0.0
C552 C 0.31408 0.90909 0.60854 0.0
C553 C 0.287 0.93187 0.60324 0.0
C554 C 0.27861 0.95201 0.60277 0.0
C555 C 0.28835 0.96713 0.59254 0.0
C556 C 0.28053 0.98613 0.59227 0.0
C557 C 0.26286 0.99017 0.60205 0.0
C558 C 0.25297 0.97518 0.61208 0.0
C559 C 0.26076 0.95615 0.61242 0.0
H560 H 0.2568 0.00488 0.60182 0.0
H561 H 0.33368 0.82071 0.6004 0.0
H562 H 0.07148 0.27911 0.67619 0.0
H563 H 0.0861 0.24979 0.66042 0.0
H564 H 0.06327 0.26842 0.60423 0.0
H565 H 0.04896 0.29742 0.61968 0.0
H566 H 0.05904 0.22839 0.60973 0.0
H567 H 0.10959 0.27894 0.61635 0.0
H568 H 0.13061 0.30171 0.63534 0.0
H569 H 0.15413 0.25316 0.66806 0.0
H570 H 0.13303 0.23013 0.64941 0.0
H571 H 0.11853 0.19343 0.53173 0.0
H572 H 0.09869 0.21041 0.55648 0.0
H573 H 0.13544 0.18688 0.60251 0.0
H574 H 0.15566 0.17025 0.57775 0.0
H575 H 0.13189 0.22433 0.60778 0.0
H576 H 0.08589 0.17299 0.59663 0.0
H577 H 0.06487 0.15016 0.57776 0.0
H578 H 0.03244 0.19891 0.55429 0.0
H579 H 0.05346 0.22208 0.57276 0.0
C580 C 0.06942 0.27674 0.66054 0.0
C581 C 0.05929 0.29066 0.64914 0.0
C582 C 0.07779 0.26005 0.65154 0.0
C583 C 0.07586 0.25697 0.6311 0.0
C584 C 0.06494 0.27043 0.61999 0.0
C585 C 0.05689 0.28711 0.62885 0.0
C586 C 0.08613 0.24062 0.62069 0.0
C587 C 0.07497 0.22743 0.60929 0.0
C588 C 0.10688 0.23904 0.62053 0.0
C589 C 0.11956 0.25286 0.63169 0.0
C590 C 0.11913 0.27315 0.62771 0.0
C591 C 0.13107 0.2861 0.63839 0.0
C592 C 0.14365 0.27889 0.65295 0.0
C593 C 0.14434 0.25872 0.65682 0.0
C594 C 0.1324 0.24572 0.6462 0.0
C595 C 0.12215 0.19148 0.54714 0.0
C596 C 0.13877 0.18052 0.55271 0.0
C597 C 0.11072 0.20118 0.56134 0.0
C598 C 0.11544 0.19991 0.58148 0.0
C599 C 0.13148 0.18818 0.58711 0.0
C600 C 0.143 0.17859 0.57291 0.0
C601 C 0.10484 0.21225 0.59632 0.0
C602 C 0.11595 0.2248 0.60852 0.0
C603 C 0.08401 0.21316 0.59725 0.0
C604 C 0.07137 0.19929 0.586 0.0
C605 C 0.07438 0.17887 0.58732 0.0
C606 C 0.06245 0.16586 0.57671 0.0
C607 C 0.04735 0.17308 0.56481 0.0
C608 C 0.04415 0.19334 0.56351 0.0
C609 C 0.05606 0.20642 0.57406 0.0
H610 H 0.03812 0.16298 0.55662 0.0
H611 H 0.15289 0.28894 0.66119 0.0
H612 H 0.83451 0.15967 0.57305 0.0
H613 H 0.81328 0.14357 0.59701 0.0
H614 H 0.76522 0.18144 0.58046 0.0
H615 H 0.78664 0.19794 0.55634 0.0
H616 H 0.76647 0.17538 0.62065 0.0
H617 H 0.76745 0.13592 0.56251 0.0
H618 H 0.78244 0.11764 0.53488 0.0
H619 H 0.81043 0.07845 0.5756 0.0
H620 H 0.79608 0.09682 0.60353 0.0
H621 H 0.69051 0.11145 0.65699 0.0
H622 H 0.71229 0.1328 0.63792 0.0
H623 H 0.76215 0.0976 0.65501 0.0
H624 H 0.74038 0.07616 0.6743 0.0
H625 H 0.75932 0.10294 0.6145 0.0
H626 H 0.75771 0.14312 0.67273 0.0
H627 H 0.74198 0.1616 0.69981 0.0
H628 H 0.71332 0.19908 0.65793 0.0
H629 H 0.72867 0.18064 0.63056 0.0
C630 C 0.81947 0.16475 0.57453 0.0
C631 C 0.81224 0.18001 0.5626 0.0
C632 C 0.80732 0.15545 0.58825 0.0
C633 C 0.78755 0.16102 0.59031 0.0
C634 C 0.78042 0.17682 0.57905 0.0
C635 C 0.79266 0.18623 0.56527 0.0
C636 C 0.77434 0.14973 0.6037 0.0
C637 C 0.76468 0.15958 0.61915 0.0
C638 C 0.77223 0.12904 0.60194 0.0
C639 C 0.78084 0.11789 0.58515 0.0
C640 C 0.77695 0.12352 0.5656 0.0
C641 C 0.7853 0.11313 0.54987 0.0
C642 C 0.79736 0.0969 0.55348 0.0
C643 C 0.8011 0.09104 0.57283 0.0
C644 C 0.79288 0.10145 0.58862 0.0
C645 C 0.70617 0.10845 0.65702 0.0
C646 C 0.71371 0.09209 0.66717 0.0
C647 C 0.71861 0.12071 0.64612 0.0
C648 C 0.73886 0.11683 0.64502 0.0
C649 C 0.74656 0.10088 0.65566 0.0
C650 C 0.73413 0.08872 0.66679 0.0
C651 C 0.75167 0.12853 0.63162 0.0
C652 C 0.76116 0.11873 0.61606 0.0
C653 C 0.75343 0.14925 0.63317 0.0
C654 C 0.74419 0.16037 0.64959 0.0
C655 C 0.74791 0.15519 0.66929 0.0
C656 C 0.73909 0.16568 0.68469 0.0
C657 C 0.72662 0.18147 0.68059 0.0
C658 C 0.72297 0.18683 0.66108 0.0
C659 C 0.73174 0.17638 0.64562 0.0
H660 H 0.71981 0.18958 0.69254 0.0
H661 H 0.80378 0.08885 0.54128 0.0
H662 H 0.96406 0.69336 0.62389 0.0
H663 H 0.93827 0.70585 0.60214 0.0
H664 H 0.92522 0.75189 0.64402 0.0
H665 H 0.95092 0.73949 0.66588 0.0
H666 H 0.89154 0.73431 0.62917 0.0
H667 H 0.95202 0.76247 0.60386 0.0
H668 H 0.98605 0.76087 0.59121 0.0
H669 H 0.96706 0.72375 0.54359 0.0
H670 H 0.93291 0.72504 0.55604 0.0
H671 H 0.843 0.80665 0.57272 0.0
H672 H 0.86324 0.78611 0.59387 0.0
H673 H 0.87571 0.74759 0.54478 0.0
H674 H 0.8558 0.76851 0.5233 0.0
H675 H 0.90866 0.7577 0.56212 0.0
H676 H 0.8474 0.73246 0.58491 0.0
H677 H 0.81335 0.73358 0.59749 0.0
H678 H 0.83309 0.76367 0.64956 0.0
H679 H 0.86724 0.76298 0.63717 0.0
C680 C 0.95569 0.70612 0.62851 0.0
C681 C 0.95963 0.71548 0.64661 0.0
C682 C 0.94097 0.71326 0.61603 0.0
C683 C 0.9299 0.72988 0.6214 0.0
C684 C 0.93357 0.73903 0.63959 0.0
C685 C 0.94834 0.73198 0.65203 0.0
C686 C 0.91478 0.73803 0.60791 0.0
C687 C 0.89526 0.73956 0.61455 0.0
C688 C 0.91953 0.74429 0.58862 0.0
C689 C 0.93998 0.74369 0.58098 0.0
C690 C 0.95513 0.75388 0.59075 0.0
C691 C 0.97443 0.75306 0.5836 0.0
C692 C 0.97872 0.74218 0.56663 0.0
C693 C 0.96371 0.73215 0.55674 0.0
C694 C 0.94438 0.73296 0.56381 0.0
C695 C 0.84967 0.79358 0.56646 0.0
C696 C 0.84789 0.78931 0.54624 0.0
C697 C 0.86125 0.78177 0.57863 0.0
C698 C 0.87104 0.76523 0.57097 0.0
C699 C 0.86843 0.76035 0.55101 0.0
C700 C 0.85697 0.77226 0.53877 0.0
C701 C 0.88529 0.75419 0.58338 0.0
C702 C 0.90474 0.75217 0.57658 0.0
C703 C 0.8804 0.74736 0.60248 0.0
C704 C 0.85988 0.74779 0.61003 0.0
C705 C 0.84447 0.73945 0.59897 0.0
C706 C 0.82515 0.73998 0.60608 0.0
C707 C 0.82106 0.74872 0.62429 0.0
C708 C 0.83628 0.75691 0.63545 0.0
C709 C 0.85563 0.75643 0.6284 0.0
H710 H 0.80609 0.74912 0.62977 0.0
H711 H 0.99367 0.74155 0.56112 0.0
H712 H 0.35703 0.30051 0.05531 0.0
H713 H 0.37631 0.27976 0.07721 0.0
H714 H 0.3612 0.31712 0.12644 0.0
H715 H 0.34204 0.33823 0.10449 0.0
H716 H 0.39979 0.31069 0.12559 0.0
H717 H 0.34305 0.26992 0.12314 0.0
H718 H 0.31561 0.25166 0.10791 0.0
H719 H 0.3567 0.2153 0.0764 0.0
H720 H 0.3844 0.23352 0.09121 0.0
H721 H 0.45563 0.24232 0.18573 0.0
H722 H 0.4283 0.26264 0.17348 0.0
H723 H 0.43529 0.23703 0.11568 0.0
H724 H 0.46228 0.21695 0.1276 0.0
H725 H 0.39678 0.2378 0.12703 0.0
H726 H 0.45279 0.28231 0.12567 0.0
H727 H 0.48027 0.30082 0.14057 0.0
H728 H 0.43992 0.33006 0.17963 0.0
H729 H 0.41222 0.31151 0.16511 0.0
C730 C 0.35747 0.30416 0.07085 0.0
C731 C 0.34798 0.32109 0.0781 0.0
C732 C 0.36848 0.2922 0.08341 0.0
C733 C 0.37015 0.29677 0.10355 0.0
C734 C 0.36014 0.31329 0.11098 0.0
C735 C 0.34909 0.32528 0.0984 0.0
C736 C 0.38348 0.28505 0.11637 0.0
C737 C 0.39883 0.29477 0.12628 0.0
C738 C 0.38243 0.26426 0.11715 0.0
C739 C 0.36582 0.25318 0.10822 0.0
C740 C 0.34624 0.25812 0.11286 0.0
C741 C 0.33063 0.24776 0.10431 0.0
C742 C 0.33441 0.23235 0.09117 0.0
C743 C 0.3538 0.22725 0.08658 0.0
C744 C 0.36946 0.23757 0.09507 0.0
C745 C 0.45134 0.2411 0.17041 0.0
C746 C 0.46118 0.22801 0.15767 0.0
C747 C 0.43574 0.2527 0.16344 0.0
C748 C 0.42972 0.25132 0.14365 0.0
C749 C 0.43956 0.23827 0.13101 0.0
C750 C 0.45511 0.22684 0.13788 0.0
C751 C 0.41335 0.26342 0.13568 0.0
C752 C 0.39743 0.25374 0.12668 0.0
C753 C 0.41386 0.28423 0.13577 0.0
C754 C 0.43049 0.29534 0.1445 0.0
C755 C 0.44981 0.29255 0.13756 0.0
C756 C 0.46541 0.30308 0.14591 0.0
C757 C 0.46185 0.31655 0.16109 0.0
C758 C 0.44266 0.31958 0.16791 0.0
C759 C 0.42701 0.30907 0.15962 0.0
H760 H 0.47395 0.3247 0.16753 0.0
H761 H 0.3223 0.22435 0.08457 0.0
H762 H 0.83641 0.47595 0.13801 0.0
H763 H 0.82309 0.45059 0.11558 0.0
H764 H 0.76419 0.47071 0.1281 0.0
H765 H 0.77716 0.49577 0.15009 0.0
H766 H 0.76874 0.43088 0.13413 0.0
H767 H 0.7846 0.48007 0.0848 0.0
H768 H 0.80694 0.50189 0.06629 0.0
H769 H 0.84089 0.45196 0.04751 0.0
H770 H 0.81888 0.42985 0.06615 0.0
H771 H 0.70014 0.39591 0.06605 0.0
H772 H 0.72278 0.4161 0.08532 0.0
H773 H 0.77201 0.38331 0.06218 0.0
H774 H 0.74933 0.36288 0.04275 0.0
H775 H 0.77819 0.42441 0.06191 0.0
H776 H 0.75956 0.37487 0.10767 0.0
H777 H 0.73684 0.35311 0.12575 0.0
H778 H 0.7084 0.40341 0.15149 0.0
H779 H 0.73077 0.42551 0.13333 0.0
C780 C 0.82067 0.47514 0.13564 0.0
C781 C 0.80784 0.48773 0.14599 0.0
C782 C 0.81308 0.46064 0.1229 0.0
C783 C 0.79261 0.45863 0.12037 0.0
C784 C 0.77999 0.47181 0.13 0.0
C785 C 0.78748 0.48618 0.14258 0.0
C786 C 0.78381 0.44233 0.10868 0.0
C787 C 0.7708 0.42949 0.11833 0.0
C788 C 0.78701 0.44006 0.08819 0.0
C789 C 0.80028 0.45335 0.0771 0.0
C790 C 0.79696 0.47377 0.0769 0.0
C791 C 0.80953 0.48618 0.06634 0.0
C792 C 0.82537 0.47833 0.05579 0.0
C793 C 0.82865 0.45803 0.05573 0.0
C794 C 0.81613 0.44555 0.06629 0.0
C795 C 0.71576 0.39289 0.06508 0.0
C796 C 0.7229 0.3777 0.05292 0.0
C797 C 0.7287 0.40444 0.07614 0.0
C798 C 0.74909 0.40113 0.07529 0.0
C799 C 0.75634 0.38609 0.06307 0.0
C800 C 0.74335 0.37437 0.05208 0.0
C801 C 0.76256 0.41353 0.0873 0.0
C802 C 0.77645 0.42555 0.07777 0.0
C803 C 0.76023 0.41508 0.10796 0.0
C804 C 0.74678 0.40185 0.11902 0.0
C805 C 0.74837 0.3813 0.11707 0.0
C806 C 0.73557 0.3689 0.12736 0.0
C807 C 0.72117 0.37687 0.13974 0.0
C808 C 0.71957 0.39726 0.14189 0.0
C809 C 0.73232 0.40973 0.13162 0.0
H810 H 0.71127 0.36724 0.14769 0.0
H811 H 0.83508 0.48796 0.04761 0.0
H812 H 0.66132 0.7474 0.03981 0.0
H813 H 0.63973 0.77057 0.05704 0.0
H814 H 0.59765 0.72404 0.06701 0.0
H815 H 0.61888 0.70098 0.04933 0.0
H816 H 0.57897 0.75569 0.05623 0.0
H817 H 0.62979 0.74196 0.10374 0.0
H818 H 0.66388 0.74001 0.11603 0.0
H819 H 0.67115 0.80212 0.10706 0.0
H820 H 0.63716 0.80438 0.09448 0.0
H821 H 0.52684 0.78497 0.14086 0.0
H822 H 0.54768 0.77047 0.11547 0.0
H823 H 0.57572 0.82665 0.10614 0.0
H824 H 0.55438 0.84148 0.13164 0.0
H825 H 0.60225 0.79526 0.11314 0.0
H826 H 0.54962 0.8089 0.06862 0.0
H827 H 0.51553 0.80998 0.05624 0.0
H828 H 0.51122 0.74716 0.06115 0.0
H829 H 0.54534 0.74569 0.07346 0.0
C830 C 0.6475 0.74209 0.04572 0.0
C831 C 0.64188 0.72229 0.04323 0.0
C832 C 0.63517 0.75536 0.05564 0.0
C833 C 0.61709 0.74907 0.06356 0.0
C834 C 0.61148 0.72932 0.06102 0.0
C835 C 0.62369 0.7161 0.05096 0.0
C836 C 0.60392 0.76294 0.07443 0.0
C837 C 0.58408 0.76422 0.06876 0.0
C838 C 0.61061 0.77464 0.09041 0.0
C839 C 0.63103 0.7733 0.09795 0.0
C840 C 0.63872 0.75517 0.10424 0.0
C841 C 0.658 0.75401 0.11128 0.0
C842 C 0.66969 0.77092 0.11226 0.0
C843 C 0.66209 0.78903 0.10625 0.0
C844 C 0.64282 0.79026 0.09917 0.0
C845 C 0.53723 0.79436 0.13322 0.0
C846 C 0.53903 0.81436 0.13827 0.0
C847 C 0.54906 0.78606 0.1186 0.0
C848 C 0.56322 0.79746 0.10882 0.0
C849 C 0.5648 0.81761 0.11345 0.0
C850 C 0.55259 0.82608 0.12792 0.0
C851 C 0.57729 0.78761 0.09518 0.0
C852 C 0.59727 0.787 0.10038 0.0
C853 C 0.57071 0.77637 0.07889 0.0
C854 C 0.55001 0.7772 0.07202 0.0
C855 C 0.54136 0.79533 0.06718 0.0
C856 C 0.52207 0.796 0.06006 0.0
C857 C 0.51124 0.77865 0.05785 0.0
C858 C 0.51966 0.76058 0.06279 0.0
C859 C 0.539 0.75981 0.06975 0.0
H860 H 0.49629 0.77921 0.05239 0.0
H861 H 0.68462 0.76999 0.11772 0.0
H862 H 0.20315 0.56159 0.12713 0.0
H863 H 0.216 0.58397 0.10159 0.0
H864 H 0.24917 0.61527 0.14584 0.0
H865 H 0.23667 0.59316 0.17107 0.0
H866 H 0.23024 0.6405 0.12131 0.0
H867 H 0.27295 0.58341 0.11559 0.0
H868 H 0.28235 0.54892 0.10918 0.0
H869 H 0.25437 0.55122 0.05256 0.0
H870 H 0.24491 0.5858 0.05861 0.0
H871 H 0.311 0.68891 0.07799 0.0
H872 H 0.28729 0.66894 0.09607 0.0
H873 H 0.26496 0.64553 0.04135 0.0
H874 H 0.28895 0.66537 0.02307 0.0
H875 H 0.2724 0.61658 0.06657 0.0
H876 H 0.23662 0.67648 0.07023 0.0
H877 H 0.23129 0.71189 0.07606 0.0
H878 H 0.24716 0.70488 0.13684 0.0
H879 H 0.25286 0.66946 0.13133 0.0
C880 C 0.21305 0.57336 0.13136 0.0
C881 C 0.21887 0.57559 0.15113 0.0
C882 C 0.22049 0.58605 0.11676 0.0
C883 C 0.23363 0.6013 0.12177 0.0
C884 C 0.23905 0.60369 0.14156 0.0
C885 C 0.2319 0.59095 0.156 0.0
C886 C 0.24202 0.61491 0.10673 0.0
C887 C 0.23947 0.63527 0.10933 0.0
C888 C 0.2536 0.60816 0.09072 0.0
C889 C 0.25801 0.58706 0.08766 0.0
C890 C 0.26859 0.57647 0.10189 0.0
C891 C 0.27406 0.55697 0.09825 0.0
C892 C 0.26899 0.54791 0.08046 0.0
C893 C 0.25831 0.55828 0.06632 0.0
C894 C 0.25292 0.57783 0.06982 0.0
C895 C 0.30083 0.67979 0.06972 0.0
C896 C 0.30192 0.67879 0.04903 0.0
C897 C 0.28718 0.66841 0.08012 0.0
C898 C 0.27415 0.65579 0.07012 0.0
C899 C 0.27479 0.65517 0.04942 0.0
C900 C 0.28846 0.66662 0.03897 0.0
C901 C 0.26108 0.64222 0.08146 0.0
C902 C 0.26276 0.62187 0.07819 0.0
C903 C 0.24875 0.649 0.0969 0.0
C904 C 0.24527 0.6703 0.10033 0.0
C905 C 0.23911 0.6825 0.08481 0.0
C906 C 0.236 0.70258 0.08806 0.0
C907 C 0.23891 0.71064 0.1068 0.0
C908 C 0.2449 0.69862 0.12233 0.0
C909 C 0.24804 0.67853 0.11916 0.0
H910 H 0.2365 0.72619 0.10928 0.0
H911 H 0.27333 0.53284 0.07762 0.0
H912 H 0.40895 0.73295 0.98165 0.0
H913 H 0.42371 0.76075 0.9647 0.0
H914 H 0.36623 0.78028 0.94642 0.0
H915 H 0.35111 0.75213 0.96363 0.0
H916 H 0.39398 0.77927 0.9157 0.0
H917 H 0.39012 0.80609 0.98077 0.0
H918 H 0.39431 0.80617 0.01685 0.0
H919 H 0.45686 0.80037 0.00981 0.0
H920 H 0.45303 0.79997 0.97368 0.0
H921 H 0.43937 0.86087 0.87007 0.0
H922 H 0.41775 0.84215 0.89191 0.0
H923 H 0.46841 0.82025 0.92317 0.0
H924 H 0.49005 0.83953 0.9018 0.0
H925 H 0.44002 0.82573 0.94835 0.0
H926 H 0.44447 0.79358 0.88524 0.0
H927 H 0.44187 0.79092 0.84908 0.0
H928 H 0.38014 0.8041 0.85238 0.0
H929 H 0.38244 0.80708 0.88857 0.0
C930 C 0.39932 0.74316 0.97414 0.0
C931 C 0.3788 0.74024 0.97397 0.0
C932 C 0.40784 0.75917 0.96454 0.0
C933 C 0.39611 0.77277 0.95444 0.0
C934 C 0.37556 0.77003 0.95422 0.0
C935 C 0.36694 0.75399 0.96408 0.0
C936 C 0.40572 0.78914 0.94344 0.0
C937 C 0.40366 0.78977 0.92288 0.0
C938 C 0.41887 0.80244 0.95273 0.0
C939 C 0.42126 0.80289 0.97448 0.0
C940 C 0.40476 0.8047 0.98691 0.0
C941 C 0.40707 0.80482 0.00738 0.0
C942 C 0.42583 0.80324 0.01562 0.0
C943 C 0.44233 0.80159 1.0034 0.0
C944 C 0.4401 0.80145 0.98292 0.0
C945 C 0.4459 0.85234 0.88181 0.0
C946 C 0.46648 0.85161 0.88407 0.0
C947 C 0.4335 0.8415 0.89423 0.0
C948 C 0.44139 0.82931 0.90894 0.0
C949 C 0.46189 0.82942 0.9119 0.0
C950 C 0.47429 0.84049 0.89965 0.0
C951 C 0.42851 0.8157 0.92052 0.0
C952 C 0.43004 0.81552 0.94117 0.0
C953 C 0.41509 0.80257 0.9113 0.0
C954 C 0.41368 0.80079 0.88957 0.0
C955 C 0.43038 0.79606 0.87823 0.0
C956 C 0.42895 0.79447 0.85774 0.0
C957 C 0.41087 0.7974 0.84843 0.0
C958 C 0.39415 0.80188 0.85961 0.0
C959 C 0.3955 0.80351 0.88011 0.0
H960 H 0.40979 0.79616 0.83257 0.0
H961 H 0.42759 0.80332 0.03147 0.0
H962 H 0.2997 0.36151 0.97032 0.0
H963 H 0.28055 0.37876 0.9453 0.0
H964 H 0.24556 0.40617 0.99074 0.0
H965 H 0.26456 0.3889 0.01592 0.0
H966 H 0.22343 0.39673 0.9566 0.0
H967 H 0.28319 0.4306 0.97418 0.0
H968 H 0.31895 0.43322 0.97983 0.0
H969 H 0.33001 0.41781 0.91941 0.0
H970 H 0.2943 0.4148 0.91348 0.0
H971 H 0.19454 0.48092 0.89775 0.0
H972 H 0.20523 0.4582 0.92378 0.0
H973 H 0.24787 0.43291 0.88392 0.0
H974 H 0.23767 0.45561 0.85831 0.0
H975 H 0.26497 0.44186 0.91696 0.0
H976 H 0.20531 0.40817 0.8989 0.0
H977 H 0.16963 0.40488 0.89317 0.0
H978 H 0.15816 0.41957 0.95369 0.0
H979 H 0.1938 0.42321 0.95972 0.0
C980 C 0.28764 0.37083 0.97503 0.0
C981 C 0.28386 0.374 0.99518 0.0
C982 C 0.27673 0.38073 0.96068 0.0
C983 C 0.26183 0.39401 0.96616 0.0
C984 C 0.25701 0.39605 0.98617 0.0
C985 C 0.26796 0.38619 1.00056 0.0
C986 C 0.25285 0.40724 0.95125 0.0
C987 C 0.23244 0.40674 0.94803 0.0
C988 C 0.26462 0.42022 0.93998 0.0
C989 C 0.28609 0.4223 0.94344 0.0
C990 C 0.29326 0.42764 0.96213 0.0
C991 C 0.31351 0.42921 0.96539 0.0
C992 C 0.32675 0.42563 0.95 0.0
C993 C 0.31974 0.42055 0.93132 0.0
C994 C 0.2995 0.41892 0.928 0.0
C995 C 0.206 0.47032 0.89452 0.0
C996 C 0.21537 0.4702 0.87603 0.0
C997 C 0.21208 0.4573 0.90938 0.0
C998 C 0.22743 0.44381 0.90586 0.0
C999 C 0.23616 0.44325 0.88712 0.0
C1000 C 0.23026 0.45627 0.87245 0.0
C1001 C 0.23549 0.43109 0.9218 0.0
C1002 C 0.25584 0.43183 0.9254 0.0
C1003 C 0.22362 0.41835 0.9333 0.0
C1004 C 0.20221 0.41618 0.9297 0.0
C1005 C 0.19517 0.41087 0.91094 0.0
C1006 C 0.17496 0.4089 0.90765 0.0
C1007 C 0.16163 0.41207 0.92304 0.0
C1008 C 0.1685 0.41715 0.94177 0.0
C1009 C 0.18871 0.41916 0.94514 0.0
H1010 H 0.14599 0.41053 0.92046 0.0
H1011 H 0.34243 0.42685 0.95255 0.0
H1012 H 0.56278 0.23749 0.84882 0.0
H1013 H 0.58662 0.2543 0.86983 0.0
H1014 H 0.54643 0.30279 0.87736 0.0
H1015 H 0.52225 0.28597 0.85651 0.0
H1016 H 0.58957 0.31271 0.8728 0.0
H1017 H 0.54403 0.27383 0.91098 0.0
H1018 H 0.52544 0.24367 0.91875 0.0
H1019 H 0.5796 0.21204 0.92626 0.0
H1020 H 0.5985 0.24201 0.9182 0.0
H1021 H 0.6293 0.35225 0.96127 0.0
H1022 H 0.60742 0.33951 0.93574 0.0
H1023 H 0.63774 0.28379 0.93716 0.0
H1024 H 0.65946 0.2963 0.96303 0.0
H1025 H 0.59921 0.27823 0.93645 0.0
H1026 H 0.64507 0.31719 0.89957 0.0
H1027 H 0.66388 0.34704 0.89106 0.0
H1028 H 0.61001 0.37826 0.88053 0.0
H1029 H 0.59086 0.34866 0.88925 0.0
C1030 C 0.55912 0.25193 0.85453 0.0
C1031 C 0.54049 0.26029 0.85115 0.0
C1032 C 0.57278 0.2615 0.86656 0.0
C1033 C 0.56816 0.27966 0.87525 0.0
C1034 C 0.55023 0.28877 0.87073 0.0
C1035 C 0.53643 0.27911 0.85885 0.0
C1036 C 0.58118 0.28795 0.89062 0.0
C1037 C 0.59155 0.30537 0.88683 0.0
C1038 C 0.58395 0.27809 0.90871 0.0
C1039 C 0.57266 0.2601 0.91378 0.0
C1040 C 0.55196 0.2604 0.91412 0.0
C1041 C 0.54137 0.24335 0.9186 0.0
C1042 C 0.55133 0.22592 0.92294 0.0
C1043 C 0.57191 0.22554 0.92286 0.0
C1044 C 0.58256 0.24256 0.91835 0.0
C1045 C 0.63134 0.33728 0.95617 0.0
C1046 C 0.64616 0.3253 0.96417 0.0
C1047 C 0.61887 0.33006 0.94147 0.0
C1048 C 0.62111 0.31079 0.93431 0.0
C1049 C 0.63577 0.29873 0.94241 0.0
C1050 C 0.6482 0.30591 0.95719 0.0
C1051 C 0.60787 0.30304 0.91871 0.0
C1052 C 0.59735 0.28567 0.92245 0.0
C1053 C 0.60505 0.31296 0.90058 0.0
C1054 C 0.61653 0.33076 0.89526 0.0
C1055 C 0.63723 0.33047 0.89559 0.0
C1056 C 0.64795 0.34733 0.89071 0.0
C1057 C 0.63815 0.36455 0.88531 0.0
C1058 C 0.61759 0.36492 0.88474 0.0
C1059 C 0.60679 0.3481 0.88964 0.0
H1060 H 0.64648 0.37759 0.88153 0.0
H1061 H 0.54312 0.21272 0.92641 0.0
H1062 H 0.74643 0.66422 0.97508 0.0
H1063 H 0.77005 0.64277 0.95822 0.0
H1064 H 0.72551 0.59778 0.95298 0.0
H1065 H 0.70203 0.6189 0.97019 0.0
H1066 H 0.75878 0.58168 0.96386 0.0
H1067 H 0.73997 0.62818 0.91358 0.0
H1068 H 0.73574 0.6612 0.89925 0.0
H1069 H 0.79779 0.67198 0.9047 0.0
H1070 H 0.80235 0.63908 0.9193 0.0
H1071 H 0.78729 0.52314 0.88362 0.0
H1072 H 0.77254 0.54593 0.90707 0.0
H1073 H 0.82682 0.57879 0.90966 0.0
H1074 H 0.84186 0.55571 0.8859 0.0
H1075 H 0.79396 0.60253 0.9033 0.0
H1076 H 0.8128 0.55332 0.94928 0.0
H1077 H 0.81624 0.51974 0.96245 0.0
H1078 H 0.75336 0.51351 0.96422 0.0
H1079 H 0.74952 0.54695 0.95079 0.0
C1080 C 0.74164 0.64978 0.97028 0.0
C1081 C 0.72228 0.64333 0.97395 0.0
C1082 C 0.75517 0.63753 0.96058 0.0
C1083 C 0.74957 0.61866 0.95412 0.0
C1084 C 0.73026 0.61222 0.95783 0.0
C1085 C 0.71679 0.62439 0.96762 0.0
C1086 C 0.76369 0.60548 0.94355 0.0
C1087 C 0.76636 0.58623 0.95055 0.0
C1088 C 0.77418 0.61153 0.92653 0.0
C1089 C 0.77146 0.63128 0.91775 0.0
C1090 C 0.75268 0.63765 0.91187 0.0
C1091 C 0.75023 0.65634 0.90367 0.0
C1092 C 0.76648 0.66871 0.90113 0.0
C1093 C 0.78522 0.6624 0.90672 0.0
C1094 C 0.78774 0.64374 0.91495 0.0
C1095 C 0.79625 0.53504 0.88937 0.0
C1096 C 0.81577 0.53761 0.88291 0.0
C1097 C 0.78779 0.54804 0.90286 0.0
C1098 C 0.79857 0.56404 0.91026 0.0
C1099 C 0.81825 0.5665 0.9042 0.0
C1100 C 0.82686 0.55325 0.89076 0.0
C1101 C 0.78858 0.57861 0.92333 0.0
C1102 C 0.78666 0.5981 0.91681 0.0
C1103 C 0.77866 0.57275 0.94073 0.0
C1104 C 0.78088 0.55264 0.94891 0.0
C1105 C 0.7997 0.54475 0.95234 0.0
C1106 C 0.80172 0.52574 0.95988 0.0
C1107 C 0.78503 0.51449 0.96414 0.0
C1108 C 0.76628 0.52224 0.96091 0.0
C1109 C 0.76417 0.54124 0.95337 0.0
H1110 H 0.78663 0.49977 0.96997 0.0
H1111 H 0.76455 0.68316 0.89477 0.0
H1112 H 0.0306 0.43016 0.32565 0.0
H1113 H 0.0494 0.45326 0.305 0.0
H1114 H 0.10062 0.41622 0.30996 0.0
H1115 H 0.08193 0.39309 0.3302 0.0
H1116 H 0.10918 0.4571 0.31269 0.0
H1117 H 0.07312 0.41102 0.27079 0.0
H1118 H 0.0422 0.39519 0.26019 0.0
H1119 H 0.01825 0.45161 0.24507 0.0
H1120 H 0.04902 0.46777 0.25577 0.0
H1121 H 0.1734 0.47108 0.23531 0.0
H1122 H 0.14881 0.45661 0.25696 0.0
H1123 H 0.10541 0.49757 0.23569 0.0
H1124 H 0.13024 0.51229 0.21367 0.0
H1125 H 0.08917 0.46091 0.24246 0.0
H1126 H 0.12746 0.50647 0.2784 0.0
H1127 H 0.15731 0.52318 0.29048 0.0
H1128 H 0.17606 0.46978 0.31841 0.0
H1129 H 0.14638 0.45272 0.30626 0.0
C1130 C 0.04601 0.42725 0.32273 0.0
C1131 C 0.05482 0.40985 0.32957 0.0
C1132 C 0.05668 0.44036 0.31081 0.0
C1133 C 0.07639 0.43639 0.3058 0.0
C1134 C 0.08547 0.41961 0.31362 0.0
C1135 C 0.07476 0.4064 0.32519 0.0
C1136 C 0.08737 0.44871 0.29134 0.0
C1137 C 0.10485 0.45792 0.29733 0.0
C1138 C 0.08139 0.45033 0.27142 0.0
C1139 C 0.06326 0.4406 0.26422 0.0
C1140 C 0.06124 0.42004 0.26524 0.0
C1141 C 0.04375 0.41101 0.25922 0.0
C1142 C 0.02825 0.42238 0.25202 0.0
C1143 C 0.03026 0.44281 0.25067 0.0
C1144 C 0.04773 0.45191 0.25667 0.0
C1145 C 0.15859 0.47694 0.235 0.0
C1146 C 0.15387 0.49299 0.22287 0.0
C1147 C 0.14452 0.46867 0.2475 0.0
C1148 C 0.12536 0.47633 0.24842 0.0
C1149 C 0.12016 0.49157 0.23544 0.0
C1150 C 0.13434 0.4999 0.22279 0.0
C1151 C 0.1114 0.46881 0.26369 0.0
C1152 C 0.09338 0.46047 0.25786 0.0
C1153 C 0.11679 0.46817 0.28388 0.0
C1154 C 0.13469 0.47832 0.29132 0.0
C1155 C 0.13798 0.49828 0.28703 0.0
C1156 C 0.15487 0.50781 0.2939 0.0
C1157 C 0.16859 0.49754 0.3052 0.0
C1158 C 0.16541 0.47772 0.30966 0.0
C1159 C 0.14853 0.46813 0.30281 0.0
H1160 H 0.18168 0.50493 0.31051 0.0
H1161 H 0.01471 0.41534 0.2475 0.0
H1162 H 0.13894 0.55864 0.83334 0.0
H1163 H 0.11396 0.58073 0.81936 0.0
H1164 H 0.1479 0.58496 0.76574 0.0
H1165 H 0.17279 0.56352 0.77958 0.0
H1166 H 0.13489 0.61981 0.77523 0.0
H1167 H 0.10653 0.55473 0.77035 0.0
H1168 H 0.09451 0.52298 0.78316 0.0
H1169 H 0.05246 0.55318 0.81961 0.0
H1170 H 0.06442 0.58513 0.80718 0.0
H1171 H 0.0662 0.65005 0.70291 0.0
H1172 H 0.08974 0.63166 0.72294 0.0
H1173 H 0.05088 0.63618 0.77306 0.0
H1174 H 0.02722 0.65446 0.75313 0.0
H1175 H 0.06516 0.59906 0.76897 0.0
H1176 H 0.09194 0.66424 0.77081 0.0
H1177 H 0.10379 0.69552 0.75678 0.0
H1178 H 0.14892 0.66464 0.72495 0.0
H1179 H 0.13717 0.63312 0.73857 0.0
C1180 C 0.14108 0.5644 0.81863 0.0
C1181 C 0.15788 0.55925 0.80761 0.0
C1182 C 0.12676 0.57695 0.8106 0.0
C1183 C 0.12893 0.58444 0.79138 0.0
C1184 C 0.14585 0.57949 0.78059 0.0
C1185 C 0.16009 0.5671 0.78856 0.0
C1186 C 0.11371 0.59722 0.7821 0.0
C1187 C 0.11967 0.61518 0.77378 0.0
C1188 C 0.09371 0.5915 0.78054 0.0
C1189 C 0.08654 0.57232 0.78803 0.0
C1190 C 0.09483 0.5546 0.78122 0.0
C1191 C 0.08801 0.53657 0.78839 0.0
C1192 C 0.07277 0.53607 0.80224 0.0
C1193 C 0.06429 0.55359 0.80891 0.0
C1194 C 0.07108 0.57166 0.80181 0.0
C1195 C 0.06268 0.64722 0.71821 0.0
C1196 C 0.04483 0.65382 0.7264 0.0
C1197 C 0.07619 0.63674 0.72968 0.0
C1198 C 0.07218 0.63267 0.74959 0.0
C1199 C 0.05433 0.63916 0.75777 0.0
C1200 C 0.04086 0.6497 0.74634 0.0
C1201 C 0.08649 0.62139 0.76175 0.0
C1202 C 0.08034 0.60377 0.77063 0.0
C1203 C 0.10636 0.62734 0.7637 0.0
C1204 C 0.11357 0.6463 0.7556 0.0
C1205 C 0.1043 0.6641 0.76071 0.0
C1206 C 0.11102 0.68187 0.75285 0.0
C1207 C 0.12707 0.68206 0.73995 0.0
C1208 C 0.13648 0.66447 0.73493 0.0
C1209 C 0.12981 0.64665 0.74274 0.0
H1210 H 0.13224 0.69584 0.73387 0.0
H1211 H 0.0675 0.52209 0.80777 0.0
H1212 H 0.36929 0.09023 0.6998 0.0
H1213 H 0.3854 0.11744 0.71698 0.0
H1214 H 0.43963 0.10479 0.68634 0.0
H1215 H 0.42361 0.07747 0.66905 0.0
H1216 H 0.44417 0.10727 0.72635 0.0
H1217 H 0.41483 0.14611 0.67567 0.0
H1218 H 0.38787 0.15787 0.65451 0.0
H1219 H 0.35656 0.17871 0.70546 0.0
H1220 H 0.3832 0.16681 0.72697 0.0
H1221 H 0.49224 0.18702 0.77351 0.0
H1222 H 0.47847 0.16822 0.74589 0.0
H1223 H 0.42073 0.17203 0.77214 0.0
H1224 H 0.43445 0.19048 0.79995 0.0
H1225 H 0.42041 0.17618 0.73053 0.0
H1226 H 0.44335 0.13271 0.78058 0.0
H1227 H 0.4657 0.1165 0.80402 0.0
H1228 H 0.5054 0.10228 0.75679 0.0
H1229 H 0.4833 0.11859 0.73303 0.0
C1230 C 0.38459 0.09333 0.69656 0.0
C1231 C 0.3952 0.08162 0.68314 0.0
C1232 C 0.39374 0.109 0.70628 0.0
C1233 C 0.41366 0.11326 0.70279 0.0
C1234 C 0.42421 0.10181 0.68915 0.0
C1235 C 0.41503 0.08621 0.6793 0.0
C1236 C 0.42382 0.1285 0.7147 0.0
C1237 C 0.43936 0.12249 0.72682 0.0
C1238 C 0.41699 0.14814 0.71586 0.0
C1239 C 0.40098 0.15544 0.70295 0.0
C1240 C 0.40213 0.15307 0.68239 0.0
C1241 C 0.38692 0.15978 0.67032 0.0
C1242 C 0.3705 0.169 0.67863 0.0
C1243 C 0.36928 0.17156 0.69903 0.0
C1244 C 0.38446 0.16486 0.71117 0.0
C1245 C 0.47654 0.18428 0.77313 0.0
C1246 C 0.4644 0.19016 0.78887 0.0
C1247 C 0.46872 0.17346 0.75741 0.0
C1248 C 0.44861 0.16866 0.75707 0.0
C1249 C 0.43627 0.17564 0.77212 0.0
C1250 C 0.44413 0.18612 0.788 0.0
C1251 C 0.44073 0.15487 0.74209 0.0
C1252 C 0.42558 0.16111 0.72956 0.0
C1253 C 0.44763 0.13529 0.74076 0.0
C1254 C 0.4618 0.12705 0.75509 0.0
C1255 C 0.45702 0.12645 0.77524 0.0
C1256 C 0.46956 0.11714 0.78855 0.0
C1257 C 0.48686 0.10825 0.78186 0.0
C1258 C 0.49192 0.10908 0.76191 0.0
C1259 C 0.4794 0.11837 0.74852 0.0
H1260 H 0.4962 0.10054 0.79213 0.0
H1261 H 0.35873 0.17419 0.66927 0.0
H1262 H 0.90767 0.46701 0.83359 0.0
H1263 H 0.93189 0.44309 0.8209 0.0
H1264 H 0.89744 0.43608 0.76803 0.0
H1265 H 0.87357 0.45959 0.78036 0.0
H1266 H 0.90855 0.40075 0.78286 0.0
H1267 H 0.93854 0.46435 0.76863 0.0
H1268 H 0.9526 0.49659 0.77775 0.0
H1269 H 0.99581 0.46801 0.81379 0.0
H1270 H 0.98182 0.4356 0.80506 0.0
H1271 H 0.96266 0.37198 0.70053 0.0
H1272 H 0.944 0.38878 0.72621 0.0
H1273 H 0.99157 0.37981 0.76718 0.0
H1274 H 0.01048 0.36269 0.74129 0.0
H1275 H 0.97742 0.41898 0.76668 0.0
H1276 H 0.95103 0.35491 0.77492 0.0
H1277 H 0.93712 0.32296 0.76472 0.0
H1278 H 0.88708 0.35223 0.73978 0.0
H1279 H 0.90083 0.3844 0.74956 0.0
C1280 C 0.90533 0.46034 0.81927 0.0
C1281 C 0.88866 0.46527 0.80802 0.0
C1282 C 0.91917 0.44671 0.81203 0.0
C1283 C 0.91647 0.43773 0.79349 0.0
C1284 C 0.89982 0.44266 0.7824 0.0
C1285 C 0.88618 0.45625 0.78949 0.0
C1286 C 0.93074 0.42328 0.78514 0.0
C1287 C 0.92363 0.40472 0.77937 0.0
C1288 C 0.95063 0.42814 0.78116 0.0
C1289 C 0.95897 0.4476 0.78643 0.0
C1290 C 0.95092 0.46496 0.77865 0.0
C1291 C 0.9589 0.48326 0.78371 0.0
C1292 C 0.97504 0.48435 0.7964 0.0
C1293 C 0.98327 0.46714 0.80401 0.0
C1294 C 0.97533 0.44881 0.79901 0.0
C1295 C 0.96912 0.37333 0.71505 0.0
C1296 C 0.98804 0.36595 0.71887 0.0
C1297 C 0.95838 0.38292 0.72977 0.0
C1298 C 0.9663 0.38549 0.74869 0.0
C1299 C 0.98514 0.37794 0.75271 0.0
C1300 C 0.99586 0.36806 0.73796 0.0
C1301 C 0.95493 0.39681 0.76369 0.0
C1302 C 0.96254 0.41475 0.77067 0.0
C1303 C 0.93544 0.39142 0.76878 0.0
C1304 C 0.92703 0.37209 0.76291 0.0
C1305 C 0.93713 0.35455 0.76714 0.0
C1306 C 0.92926 0.33639 0.76145 0.0
C1307 C 0.91124 0.33557 0.75159 0.0
C1308 C 0.90104 0.3529 0.74743 0.0
C1309 C 0.90885 0.3711 0.75307 0.0
H1310 H 0.90517 0.32149 0.7472 0.0
H1311 H 0.98121 0.49853 0.80029 0.0
H1312 H 0.66338 0.02224 0.75191 0.0
H1313 H 0.6418 0.00596 0.77572 0.0
H1314 H 0.65363 0.94999 0.74803 0.0
H1315 H 0.67479 0.96623 0.72398 0.0
H1316 H 0.6162 0.95381 0.75159 0.0
H1317 H 0.67096 0.96509 0.79662 0.0
H1318 H 0.69515 0.98595 0.81398 0.0
H1319 H 0.64821 0.01982 0.83953 0.0
H1320 H 0.62377 0.99923 0.82221 0.0
H1321 H 0.59036 0.88125 0.81798 0.0
H1322 H 0.61062 0.90627 0.80239 0.0
H1323 H 0.5713 0.95151 0.82323 0.0
H1324 H 0.55041 0.92624 0.83881 0.0
H1325 H 0.6177 0.95839 0.82455 0.0
H1326 H 0.56293 0.94439 0.78253 0.0
H1327 H 0.53898 0.92266 0.76597 0.0
H1328 H 0.58592 0.89421 0.73452 0.0
H1329 H 0.61021 0.91543 0.75127 0.0
C1330 C 0.66177 0.0064 0.75122 0.0
C1331 C 0.67082 0.99552 0.73603 0.0
C1332 C 0.6493 0.99709 0.76482 0.0
C1333 C 0.64584 0.9767 0.76368 0.0
C1334 C 0.65579 0.96575 0.74916 0.0
C1335 C 0.66804 0.97504 0.73547 0.0
C1336 C 0.63101 0.96673 0.77658 0.0
C1337 C 0.61669 0.95479 0.76754 0.0
C1338 C 0.6309 0.96857 0.79741 0.0
C1339 C 0.64557 0.98075 0.808 0.0
C1340 C 0.66582 0.97705 0.80588 0.0
C1341 C 0.67957 0.98881 0.81572 0.0
C1342 C 0.67322 0.00423 0.82781 0.0
C1343 C 0.65311 0.00788 0.83015 0.0
C1344 C 0.63931 0.99615 0.82035 0.0
C1345 C 0.58603 0.89651 0.81957 0.0
C1346 C 0.56859 0.90168 0.82953 0.0
C1347 C 0.59772 0.91082 0.81065 0.0
C1348 C 0.59242 0.9307 0.81156 0.0
C1349 C 0.57566 0.9362 0.82243 0.0
C1350 C 0.56374 0.92176 0.83129 0.0
C1351 C 0.60362 0.94506 0.79947 0.0
C1352 C 0.61713 0.95777 0.80859 0.0
C1353 C 0.603 0.94403 0.77867 0.0
C1354 C 0.58842 0.93142 0.76829 0.0
C1355 C 0.56817 0.93339 0.77221 0.0
C1356 C 0.55452 0.92118 0.76278 0.0
C1357 C 0.56092 0.90708 0.74921 0.0
C1358 C 0.58098 0.90515 0.74504 0.0
C1359 C 0.5947 0.91727 0.75451 0.0
H1360 H 0.55033 0.89765 0.74191 0.0
H1361 H 0.68389 0.01333 0.83541 0.0
H1362 H 0.93565 0.66973 0.33666 0.0
H1363 H 0.91744 0.64974 0.31287 0.0
H1364 H 0.97201 0.63158 0.28585 0.0
H1365 H 0.99033 0.65189 0.30932 0.0
H1366 H 0.94502 0.63828 0.25809 0.0
H1367 H 0.94732 0.60114 0.31777 0.0
H1368 H 0.94333 0.59513 0.35337 0.0
H1369 H 0.88131 0.60629 0.34879 0.0
H1370 H 0.88497 0.61263 0.3132 0.0
H1371 H 0.89648 0.55648 0.20799 0.0
H1372 H 0.91906 0.57738 0.22724 0.0
H1373 H 0.8696 0.60177 0.25887 0.0
H1374 H 0.84728 0.58104 0.24011 0.0
H1375 H 0.89702 0.58964 0.2838 0.0
H1376 H 0.8954 0.6282 0.22397 0.0
H1377 H 0.89981 0.63379 0.18835 0.0
H1378 H 0.96103 0.61893 0.1931 0.0
H1379 H 0.95692 0.61301 0.22873 0.0
C1380 C 0.9438 0.66157 0.32561 0.0
C1381 C 0.96448 0.66233 0.32504 0.0
C1382 C 0.93336 0.65007 0.31204 0.0
C1383 C 0.94335 0.63884 0.29773 0.0
C1384 C 0.96396 0.64003 0.29675 0.0
C1385 C 0.97442 0.65162 0.31026 0.0
C1386 C 0.93227 0.62552 0.2842 0.0
C1387 C 0.93472 0.62746 0.26372 0.0
C1388 C 0.91873 0.61142 0.29145 0.0
C1389 C 0.91646 0.60752 0.31284 0.0
C1390 C 0.93285 0.60244 0.32438 0.0
C1391 C 0.93065 0.59896 0.34455 0.0
C1392 C 0.91209 0.60037 0.35334 0.0
C1393 C 0.89568 0.60522 0.34197 0.0
C1394 C 0.89781 0.60874 0.32179 0.0
C1395 C 0.89047 0.56651 0.21887 0.0
C1396 C 0.8701 0.56695 0.22262 0.0
C1397 C 0.90337 0.57845 0.22986 0.0
C1398 C 0.89604 0.59111 0.24461 0.0
C1399 C 0.87566 0.59202 0.24775 0.0
C1400 C 0.86289 0.58013 0.23693 0.0
C1401 C 0.90931 0.60278 0.25767 0.0
C1402 C 0.90738 0.60041 0.27814 0.0
C1403 C 0.92333 0.61636 0.25036 0.0
C1404 C 0.9258 0.61994 0.22897 0.0
C1405 C 0.90976 0.62596 0.21739 0.0
C1406 C 0.91222 0.62922 0.1972 0.0
C1407 C 0.93068 0.62666 0.18846 0.0
C1408 C 0.94674 0.62088 0.19989 0.0
C1409 C 0.94436 0.61758 0.22008 0.0
H1410 H 0.93255 0.62919 0.17283 0.0
H1411 H 0.91041 0.59767 0.36897 0.0
H1412 H 0.34073 0.95699 0.27979 0.0
H1413 H 0.36467 0.93856 0.26021 0.0
H1414 H 0.35801 0.97969 0.2125 0.0
H1415 H 0.3342 0.99852 0.23214 0.0
H1416 H 0.36192 0.93709 0.20127 0.0
H1417 H 0.39381 0.98869 0.23774 0.0
H1418 H 0.40069 0.00833 0.26756 0.0
H1419 H 0.42233 0.95678 0.29681 0.0
H1420 H 0.41525 0.93676 0.26725 0.0
H1421 H 0.45253 0.90627 0.15556 0.0
H1422 H 0.42577 0.92674 0.16868 0.0
H1423 H 0.43385 0.9009 0.22607 0.0
H1424 H 0.46065 0.88088 0.2133 0.0
H1425 H 0.42909 0.93894 0.22986 0.0
H1426 H 0.39581 0.887 0.19413 0.0
H1427 H 0.38793 0.86696 0.16482 0.0
H1428 H 0.36858 0.91869 0.13431 0.0
H1429 H 0.37659 0.93908 0.16338 0.0
C1430 C 0.34396 0.96191 0.26497 0.0
C1431 C 0.33563 0.97935 0.2576 0.0
C1432 C 0.35771 0.95137 0.25382 0.0
C1433 C 0.36324 0.95788 0.235 0.0
C1434 C 0.35394 0.97444 0.227 0.0
C1435 C 0.34035 0.98518 0.23826 0.0
C1436 C 0.38005 0.94845 0.22464 0.0
C1437 C 0.37668 0.9377 0.2073 0.0
C1438 C 0.39924 0.94916 0.23264 0.0
C1439 C 0.40382 0.96119 0.25035 0.0
C1440 C 0.39988 0.98151 0.25059 0.0
C1441 C 0.40384 0.99272 0.26743 0.0
C1442 C 0.4119 0.98379 0.28408 0.0
C1443 C 0.41607 0.96366 0.2839 0.0
C1444 C 0.4121 0.95238 0.2671 0.0
C1445 C 0.44865 0.90503 0.17098 0.0
C1446 C 0.45877 0.89188 0.18333 0.0
C1447 C 0.43327 0.91667 0.17845 0.0
C1448 C 0.42761 0.91524 0.19836 0.0
C1449 C 0.4379 0.90233 0.21069 0.0
C1450 C 0.45325 0.89081 0.2033 0.0
C1451 C 0.41101 0.92706 0.2066 0.0
C1452 C 0.41441 0.93838 0.22362 0.0
C1453 C 0.39187 0.92683 0.19827 0.0
C1454 C 0.38701 0.91458 0.18083 0.0
C1455 C 0.39002 0.89412 0.18111 0.0
C1456 C 0.38551 0.8827 0.16456 0.0
C1457 C 0.37782 0.89156 0.14769 0.0
C1458 C 0.37458 0.91185 0.14737 0.0
C1459 C 0.37909 0.92335 0.16388 0.0
H1460 H 0.37433 0.88269 0.13489 0.0
H1461 H 0.41495 0.99249 0.29711 0.0
H1462 H 0.61909 0.07297 0.34848 0.0
H1463 H 0.59986 0.09924 0.33312 0.0
H1464 H 0.63418 0.09323 0.27992 0.0
H1465 H 0.65348 0.06711 0.29514 0.0
H1466 H 0.62817 0.13183 0.28957 0.0
H1467 H 0.58914 0.07228 0.28375 0.0
H1468 H 0.57143 0.04334 0.29663 0.0
H1469 H 0.53419 0.08104 0.33125 0.0
H1470 H 0.55188 0.11021 0.31875 0.0
H1471 H 0.57211 0.16167 0.20916 0.0
H1472 H 0.59124 0.14602 0.23493 0.0
H1473 H 0.54663 0.16114 0.27769 0.0
H1474 H 0.52709 0.17685 0.25159 0.0
H1475 H 0.55642 0.12256 0.27959 0.0
H1476 H 0.59193 0.18256 0.28034 0.0
H1477 H 0.60937 0.21125 0.26663 0.0
H1478 H 0.6531 0.17317 0.24136 0.0
H1479 H 0.63577 0.1442 0.25466 0.0
C1480 C 0.62261 0.07731 0.33355 0.0
C1481 C 0.63777 0.06784 0.323 0.0
C1482 C 0.61157 0.0923 0.32478 0.0
C1483 C 0.61548 0.09812 0.30531 0.0
C1484 C 0.63091 0.08902 0.29496 0.0
C1485 C 0.64188 0.074 0.30367 0.0
C1486 C 0.6032 0.11319 0.29534 0.0
C1487 C 0.61249 0.12981 0.28733 0.0
C1488 C 0.58261 0.1109 0.29303 0.0
C1489 C 0.57199 0.09339 0.30052 0.0
C1490 C 0.57729 0.07438 0.29424 0.0
C1491 C 0.56724 0.05794 0.30145 0.0
C1492 C 0.55174 0.06034 0.3148 0.0
C1493 C 0.54623 0.0792 0.32094 0.0
C1494 C 0.55626 0.09569 0.3138 0.0
C1495 C 0.56645 0.16199 0.22409 0.0
C1496 C 0.54804 0.17045 0.22832 0.0
C1497 C 0.5775 0.15312 0.23888 0.0
C1498 C 0.57049 0.15252 0.25832 0.0
C1499 C 0.55237 0.16151 0.2628 0.0
C1500 C 0.54129 0.17057 0.24792 0.0
C1501 C 0.58148 0.14095 0.27327 0.0
C1502 C 0.572 0.12492 0.28221 0.0
C1503 C 0.6019 0.14378 0.27643 0.0
C1504 C 0.61247 0.16118 0.26845 0.0
C1505 C 0.60519 0.18028 0.27175 0.0
C1506 C 0.61508 0.1966 0.26406 0.0
C1507 C 0.63232 0.19403 0.25311 0.0
C1508 C 0.63974 0.17514 0.24985 0.0
C1509 C 0.62991 0.15876 0.2575 0.0
H1510 H 0.63995 0.20669 0.24717 0.0
H1511 H 0.54397 0.0476 0.32036 0.0
H1512 H 0.74112 0.02694 0.63724 0.0
H1513 H 0.75775 0.00361 0.61552 0.0
H1514 H 0.71561 0.95879 0.63118 0.0
H1515 H 0.69863 0.98234 0.65302 0.0
H1516 H 0.75619 0.94729 0.63463 0.0
H1517 H 0.71347 0.97697 0.58658 0.0
H1518 H 0.69835 0.00487 0.56909 0.0
H1519 H 0.75541 0.02412 0.54977 0.0
H1520 H 0.7709 0.99647 0.56735 0.0
H1521 H 0.79572 0.87759 0.56744 0.0
H1522 H 0.77509 0.89919 0.5874 0.0
H1523 H 0.80311 0.94992 0.56132 0.0
H1524 H 0.82278 0.92818 0.54023 0.0
H1525 H 0.76744 0.95759 0.56318 0.0
H1526 H 0.81121 0.93181 0.61187 0.0
H1527 H 0.82873 0.90633 0.63077 0.0
H1528 H 0.77355 0.88268 0.65066 0.0
H1529 H 0.75569 0.90788 0.63168 0.0
C1530 C 0.73518 0.01219 0.63589 0.0
C1531 C 0.71854 0.00648 0.64685 0.0
C1532 C 0.7447 0.99888 0.62342 0.0
C1533 C 0.73792 0.97947 0.62168 0.0
C1534 C 0.72106 0.97373 0.63229 0.0
C1535 C 0.7113 0.98721 0.64464 0.0
C1536 C 0.74918 0.96511 0.60949 0.0
C1537 C 0.75838 0.94926 0.61892 0.0
C1538 C 0.75267 0.96821 0.58918 0.0
C1539 C 0.74335 0.98471 0.5784 0.0
C1540 C 0.7228 0.98722 0.5787 0.0
C1541 C 0.71417 1.00298 0.56875 0.0
C1542 C 0.72592 0.01628 0.55835 0.0
C1543 C 0.74633 0.01381 0.55783 0.0
C1544 C 0.75504 0.99808 0.56776 0.0
C1545 C 0.79768 0.89336 0.56615 0.0
C1546 C 0.81102 0.9012 0.55238 0.0
C1547 C 0.78589 0.90576 0.57768 0.0
C1548 C 0.78767 0.92633 0.57629 0.0
C1549 C 0.80133 0.93415 0.56276 0.0
C1550 C 0.81271 0.92173 0.55079 0.0
C1551 C 0.7748 0.93967 0.58829 0.0
C1552 C 0.76527 0.9554 0.57886 0.0
C1553 C 0.77142 0.93676 0.60874 0.0
C1554 C 0.78212 0.92161 0.62019 0.0
C1555 C 0.80282 0.92109 0.62017 0.0
C1556 C 0.8128 0.90671 0.63091 0.0
C1557 C 0.80226 0.89286 0.64186 0.0
C1558 C 0.7817 0.8934 0.64214 0.0
C1559 C 0.77164 0.90774 0.63142 0.0
H1560 H 0.81002 0.88174 0.65017 0.0
H1561 H 0.71921 0.02848 0.55067 0.0
H1562 H 0.14113 0.81739 0.54565 0.0
H1563 H 0.11597 0.80148 0.56615 0.0
H1564 H 0.15837 0.79497 0.61299 0.0
H1565 H 0.18357 0.81 0.59229 0.0
H1566 H 0.14205 0.76178 0.60704 0.0
H1567 H 0.11727 0.82731 0.61519 0.0
H1568 H 0.10513 0.85978 0.60463 0.0
H1569 H 0.05698 0.83218 0.57432 0.0
H1570 H 0.06898 0.79951 0.58449 0.0
H1571 H 0.07731 0.72826 0.682 0.0
H1572 H 0.09889 0.74994 0.66291 0.0
H1573 H 0.06048 0.74422 0.61271 0.0
H1574 H 0.03891 0.72239 0.6316 0.0
H1575 H 0.07366 0.78371 0.62021 0.0
H1576 H 0.09968 0.71812 0.61224 0.0
H1577 H 0.11191 0.6861 0.62401 0.0
H1578 H 0.15831 0.71519 0.65564 0.0
H1579 H 0.14618 0.74742 0.64426 0.0
C1580 C 0.14489 0.81293 0.56048 0.0
C1581 C 0.16428 0.8148 0.56737 0.0
C1582 C 0.13051 0.80385 0.57222 0.0
C1583 C 0.13523 0.79696 0.59117 0.0
C1584 C 0.15436 0.79995 0.59838 0.0
C1585 C 0.16875 0.80862 0.58657 0.0
C1586 C 0.12097 0.78514 0.60292 0.0
C1587 C 0.12722 0.76682 0.61015 0.0
C1588 C 0.10139 0.79133 0.6066 0.0
C1589 C 0.09415 0.81095 0.60044 0.0
C1590 C 0.10419 0.82815 0.60614 0.0
C1591 C 0.09731 0.8466 0.60025 0.0
C1592 C 0.08033 0.84804 0.58876 0.0
C1593 C 0.07015 0.83104 0.58319 0.0
C1594 C 0.07698 0.81255 0.58903 0.0
C1595 C 0.07341 0.73166 0.66693 0.0
C1596 C 0.05648 0.72348 0.65827 0.0
C1597 C 0.08575 0.74405 0.65605 0.0
C1598 C 0.08128 0.74862 0.63639 0.0
C1599 C 0.06414 0.7409 0.62787 0.0
C1600 C 0.05193 0.72832 0.63865 0.0
C1601 C 0.09499 0.76072 0.62447 0.0
C1602 C 0.08858 0.7789 0.61712 0.0
C1603 C 0.11451 0.75456 0.62082 0.0
C1604 C 0.1219 0.73519 0.62757 0.0
C1605 C 0.11239 0.7177 0.62184 0.0
C1606 C 0.11932 0.69951 0.62841 0.0
C1607 C 0.13584 0.69861 0.64061 0.0
C1608 C 0.1455 0.71591 0.64621 0.0
C1609 C 0.13862 0.73414 0.63969 0.0
H1610 H 0.14119 0.68452 0.64568 0.0
H1611 H 0.07503 0.86233 0.58423 0.0
H1612 H 0.21712 0.16753 0.54846 0.0
H1613 H 0.24093 0.15159 0.57019 0.0
H1614 H 0.27529 0.13392 0.51965 0.0
H1615 H 0.25147 0.14954 0.49786 0.0
H1616 H 0.26804 0.10335 0.54266 0.0
H1617 H 0.29186 0.16908 0.55264 0.0
H1618 H 0.28945 0.20435 0.56089 0.0
H1619 H 0.26886 0.18992 0.61894 0.0
H1620 H 0.27089 0.15454 0.61095 0.0
H1621 H 0.34915 0.06334 0.59457 0.0
H1622 H 0.32911 0.08475 0.57375 0.0
H1623 H 0.29207 0.09874 0.6235 0.0
H1624 H 0.31197 0.07731 0.64443 0.0
H1625 H 0.30137 0.13182 0.60117 0.0
H1626 H 0.27513 0.06726 0.59112 0.0
H1627 H 0.2761 0.03184 0.5836 0.0
H1628 H 0.30009 0.04408 0.52633 0.0
H1629 H 0.29937 0.07969 0.53361 0.0
C1630 C 0.22995 0.1606 0.54198 0.0
C1631 C 0.2323 0.15973 0.52139 0.0
C1632 C 0.24359 0.15151 0.55445 0.0
C1633 C 0.25995 0.14153 0.54658 0.0
C1634 C 0.26276 0.14144 0.52608 0.0
C1635 C 0.24914 0.15046 0.51363 0.0
C1636 C 0.27321 0.12982 0.55946 0.0
C1637 C 0.27561 0.10972 0.55522 0.0
C1638 C 0.28259 0.13789 0.57628 0.0
C1639 C 0.28135 0.15915 0.58112 0.0
C1640 C 0.28666 0.17342 0.56711 0.0
C1641 C 0.28539 0.19344 0.57175 0.0
C1642 C 0.27896 0.19937 0.59041 0.0
C1643 C 0.27382 0.1853 0.60448 0.0
C1644 C 0.27505 0.16526 0.59991 0.0
C1645 C 0.33678 0.071 0.60111 0.0
C1646 C 0.33211 0.06851 0.62115 0.0
C1647 C 0.32532 0.08322 0.58918 0.0
C1648 C 0.30902 0.09328 0.59704 0.0
C1649 C 0.30458 0.09116 0.61713 0.0
C1650 C 0.31592 0.0788 0.62904 0.0
C1651 C 0.29628 0.10551 0.58417 0.0
C1652 C 0.29391 0.12559 0.58847 0.0
C1653 C 0.28681 0.09746 0.56744 0.0
C1654 C 0.28741 0.0761 0.563 0.0
C1655 C 0.28078 0.06239 0.57699 0.0
C1656 C 0.28125 0.04227 0.57275 0.0
C1657 C 0.28824 0.03567 0.55453 0.0
C1658 C 0.29472 0.04921 0.54047 0.0
C1659 C 0.29425 0.06937 0.54463 0.0
H1660 H 0.28858 0.02007 0.55127 0.0
H1661 H 0.27799 0.21487 0.59398 0.0
H1662 H 0.91609 0.23817 0.506 0.0
H1663 H 0.93956 0.25584 0.52683 0.0
H1664 H 0.9116 0.23196 0.57865 0.0
H1665 H 0.88844 0.21392 0.55796 0.0
H1666 H 0.93255 0.28428 0.55153 0.0
H1667 H 0.94216 0.22944 0.61681 0.0
H1668 H 0.94531 0.19369 0.62203 0.0
H1669 H 0.96628 0.1864 0.56274 0.0
H1670 H 0.96349 0.22213 0.55723 0.0
H1671 H 0.9675 0.30221 0.65896 0.0
H1672 H 0.95094 0.2841 0.63279 0.0
H1673 H 0.98903 0.31101 0.58966 0.0
H1674 H 0.00576 0.32943 0.61602 0.0
H1675 H 0.9678 0.25688 0.60913 0.0
H1676 H 0.96224 0.31054 0.54426 0.0
H1677 H 0.9602 0.34617 0.53774 0.0
H1678 H 0.93334 0.35541 0.59434 0.0
H1679 H 0.93493 0.31982 0.60106 0.0
C1680 C 0.91522 0.23629 0.52182 0.0
C1681 C 0.90034 0.22459 0.53029 0.0
C1682 C 0.92859 0.24653 0.53372 0.0
C1683 C 0.92745 0.24525 0.55435 0.0
C1684 C 0.91307 0.23297 0.56279 0.0
C1685 C 0.89976 0.22266 0.55091 0.0
C1686 C 0.94023 0.25778 0.5671 0.0
C1687 C 0.94058 0.27822 0.5639 0.0
C1688 C 0.95065 0.24999 0.58334 0.0
C1689 C 0.95245 0.22847 0.58657 0.0
C1690 C 0.94751 0.22023 0.60491 0.0
C1691 C 0.94922 0.19996 0.60791 0.0
C1692 C 0.95594 0.18778 0.59271 0.0
C1693 C 0.96101 0.19584 0.57448 0.0
C1694 C 0.95933 0.2161 0.57139 0.0
C1695 C 0.97222 0.30455 0.64389 0.0
C1696 C 0.988 0.31725 0.63959 0.0
C1697 C 0.96277 0.29409 0.62893 0.0
C1698 C 0.96879 0.29606 0.60925 0.0
C1699 C 0.98404 0.30933 0.60472 0.0
C1700 C 0.99354 0.3199 0.61978 0.0
C1701 C 0.95955 0.28337 0.59391 0.0
C1702 C 0.95995 0.26288 0.59661 0.0
C1703 C 0.95007 0.29111 0.57708 0.0
C1704 C 0.949 0.31255 0.57327 0.0
C1705 C 0.9559 0.32018 0.55531 0.0
C1706 C 0.9548 0.34037 0.55157 0.0
C1707 C 0.94674 0.35306 0.56566 0.0
C1708 C 0.93968 0.34558 0.58348 0.0
C1709 C 0.9407 0.3254 0.58728 0.0
H1710 H 0.94591 0.36869 0.56275 0.0
H1711 H 0.95726 0.17209 0.59506 0.0
H1712 H 0.7059 0.09242 0.36477 0.0
H1713 H 0.7295 0.11209 0.38336 0.0
H1714 H 0.73387 0.06606 0.42678 0.0
H1715 H 0.70952 0.04658 0.40854 0.0
H1716 H 0.73403 0.09913 0.44509 0.0
H1717 H 0.77094 0.07487 0.39105 0.0
H1718 H 0.77895 0.06722 0.35642 0.0
H1719 H 0.77936 0.12885 0.34267 0.0
H1720 H 0.77108 0.13687 0.37718 0.0
H1721 H 0.81929 0.14813 0.4861 0.0
H1722 H 0.8004 0.12278 0.46833 0.0
H1723 H 0.77688 0.16724 0.42984 0.0
H1724 H 0.79526 0.19257 0.44772 0.0
H1725 H 0.78969 0.1313 0.41033 0.0
H1726 H 0.7498 0.15362 0.46591 0.0
H1727 H 0.74382 0.15935 0.50132 0.0
H1728 H 0.75224 0.09786 0.51288 0.0
H1729 H 0.75856 0.09182 0.47754 0.0
C1730 C 0.71185 0.08646 0.37828 0.0
C1731 C 0.70586 0.06787 0.3851 0.0
C1732 C 0.7255 0.09769 0.38887 0.0
C1733 C 0.73394 0.09045 0.40632 0.0
C1734 C 0.72772 0.072 0.41335 0.0
C1735 C 0.71379 0.06086 0.40289 0.0
C1736 C 0.74898 0.10232 0.41722 0.0
C1737 C 0.74638 0.10583 0.43749 0.0
C1738 C 0.76523 0.11117 0.40748 0.0
C1739 C 0.77023 0.10646 0.38669 0.0
C1740 C 0.7726 0.08679 0.38062 0.0
C1741 C 0.77721 0.08239 0.36101 0.0
C1742 C 0.77962 0.09754 0.34735 0.0
C1743 C 0.77747 0.11713 0.35327 0.0
C1744 C 0.77284 0.12161 0.37286 0.0
C1745 C 0.81034 0.15242 0.47364 0.0
C1746 C 0.80875 0.17234 0.4683 0.0
C1747 C 0.79948 0.13796 0.46359 0.0
C1748 C 0.78715 0.14315 0.44782 0.0
C1749 C 0.78629 0.1629 0.44194 0.0
C1750 C 0.79679 0.17736 0.45219 0.0
C1751 C 0.77437 0.12834 0.43791 0.0
C1752 C 0.77744 0.12432 0.41786 0.0
C1753 C 0.75885 0.11869 0.44794 0.0
C1754 C 0.75487 0.12231 0.46913 0.0
C1755 C 0.75054 0.14135 0.47603 0.0
C1756 C 0.74705 0.14465 0.49608 0.0
C1757 C 0.74769 0.12899 0.50935 0.0
C1758 C 0.75176 0.10998 0.50258 0.0
C1759 C 0.7553 0.10661 0.48255 0.0
H1760 H 0.745 0.13157 0.52487 0.0
H1761 H 0.78319 0.0941 0.33218 0.0
H1762 H 0.96083 0.71666 0.39447 0.0
H1763 H 0.94022 0.73686 0.4162 0.0
H1764 H 0.98195 0.78452 0.41156 0.0
H1765 H 1.00226 0.7647 0.3895 0.0
H1766 H 0.9463 0.75169 0.45109 0.0
H1767 H 0.95951 0.82848 0.41639 0.0
H1768 H 0.96597 0.843 0.38373 0.0
H1769 H 0.93774 0.79377 0.35577 0.0
H1770 H 0.93089 0.77908 0.38825 0.0
H1771 H 0.9107 0.82186 0.51932 0.0
H1772 H 0.9322 0.80474 0.49595 0.0
H1773 H 0.89153 0.81754 0.44893 0.0
H1774 H 0.87056 0.83542 0.47197 0.0
H1775 H 0.92584 0.81972 0.43464 0.0
H1776 H 0.89335 0.77064 0.47445 0.0
H1777 H 0.88359 0.7538 0.50511 0.0
H1778 H 0.94436 0.74502 0.51985 0.0
H1779 H 0.95448 0.76172 0.48926 0.0
C1780 C 0.96552 0.73151 0.39793 0.0
C1781 C 0.98316 0.73907 0.39014 0.0
C1782 C 0.95376 0.74303 0.41044 0.0
C1783 C 0.95938 0.76234 0.41542 0.0
C1784 C 0.97703 0.76986 0.40767 0.0
C1785 C 0.98869 0.75843 0.39507 0.0
C1786 C 0.94709 0.77445 0.42909 0.0
C1787 C 0.94182 0.76656 0.44746 0.0
C1788 C 0.94099 0.7938 0.42437 0.0
C1789 C 0.94488 0.8026 0.40476 0.0
C1790 C 0.95463 0.82079 0.40327 0.0
C1791 C 0.95837 0.82904 0.38479 0.0
C1792 C 0.95233 0.81928 0.36769 0.0
C1793 C 0.94248 0.80128 0.36903 0.0
C1794 C 0.93869 0.79297 0.38747 0.0
C1795 C 0.90653 0.82133 0.50393 0.0
C1796 C 0.88885 0.82998 0.49757 0.0
C1797 C 0.91873 0.81133 0.49059 0.0
C1798 C 0.9133 0.80933 0.47068 0.0
C1799 C 0.8961 0.81875 0.46417 0.0
C1800 C 0.88408 0.82903 0.47742 0.0
C1801 C 0.92508 0.79701 0.45671 0.0
C1802 C 0.93034 0.80487 0.4383 0.0
C1803 C 0.93072 0.77743 0.46118 0.0
C1804 C 0.92466 0.76758 0.47968 0.0
C1805 C 0.90462 0.76523 0.48432 0.0
C1806 C 0.89902 0.7557 0.50168 0.0
C1807 C 0.91334 0.74845 0.51451 0.0
C1808 C 0.93328 0.75067 0.50996 0.0
C1809 C 0.93895 0.76011 0.49258 0.0
H1810 H 0.90899 0.74102 0.5279 0.0
H1811 H 0.95525 0.82569 0.35339 0.0
H1812 H 0.26017 0.97853 0.35446 0.0
H1813 H 0.24915 0.96115 0.38379 0.0
H1814 H 0.30948 0.95096 0.40053 0.0
H1815 H 0.32077 0.96861 0.37097 0.0
H1816 H 0.28594 0.9172 0.4018 0.0
H1817 H 0.28413 0.9827 0.42626 0.0
H1818 H 0.27622 0.01806 0.42529 0.0
H1819 H 0.21448 0.00455 0.42504 0.0
H1820 H 0.22201 0.96902 0.42566 0.0
H1821 H 0.26346 0.87731 0.49378 0.0
H1822 H 0.27562 0.90071 0.46959 0.0
H1823 H 0.21627 0.91142 0.44995 0.0
H1824 H 0.20381 0.88785 0.47447 0.0
H1825 H 0.24031 0.94598 0.45132 0.0
H1826 H 0.24272 0.88029 0.42476 0.0
H1827 H 0.25113 0.84501 0.42499 0.0
H1828 H 0.31255 0.85942 0.42903 0.0
H1829 H 0.30447 0.89481 0.42914 0.0
C1830 C 0.27117 0.97267 0.36437 0.0
C1831 C 0.29138 0.97486 0.36034 0.0
C1832 C 0.26481 0.96284 0.38122 0.0
C1833 C 0.27848 0.9549 0.39441 0.0
C1834 C 0.2987 0.95707 0.39053 0.0
C1835 C 0.30512 0.96716 0.3737 0.0
C1836 C 0.2714 0.94357 0.41167 0.0
C1837 C 0.27628 0.92359 0.41284 0.0
C1838 C 0.25835 0.95182 0.42575 0.0
C1839 C 0.25365 0.97317 0.42581 0.0
C1840 C 0.26886 0.98724 0.42586 0.0
C1841 C 0.26445 0.00731 0.42538 0.0
C1842 C 0.24487 0.01353 0.42502 0.0
C1843 C 0.22964 0.99969 0.42527 0.0
C1844 C 0.23398 0.97957 0.42571 0.0
C1845 C 0.25289 0.88473 0.48448 0.0
C1846 C 0.23266 0.8805 0.48585 0.0
C1847 C 0.2599 0.89815 0.47066 0.0
C1848 C 0.2469 0.90756 0.45776 0.0
C1849 C 0.22656 0.90424 0.45975 0.0
C1850 C 0.21946 0.89077 0.47371 0.0
C1851 C 0.25486 0.91962 0.44138 0.0
C1852 C 0.25008 0.93967 0.44034 0.0
C1853 C 0.26806 0.91147 0.42738 0.0
C1854 C 0.27297 0.8902 0.42716 0.0
C1855 C 0.25801 0.87594 0.42586 0.0
C1856 C 0.26272 0.85592 0.4259 0.0
C1857 C 0.28236 0.84998 0.42707 0.0
C1858 C 0.29734 0.86404 0.42815 0.0
C1859 C 0.29271 0.88408 0.42815 0.0
H1860 H 0.28598 0.83447 0.4271 0.0
H1861 H 0.24153 0.02908 0.42454 0.0
H1862 H 0.1317 0.19838 0.43548 0.0
H1863 H 0.11593 0.22515 0.41765 0.0
H1864 H 0.14107 0.26719 0.45816 0.0
H1865 H 0.15712 0.24027 0.47615 0.0
H1866 H 0.10074 0.27189 0.45299 0.0
H1867 H 0.15775 0.26584 0.41233 0.0
H1868 H 0.18262 0.24867 0.39218 0.0
H1869 H 0.13767 0.22978 0.35193 0.0
H1870 H 0.11245 0.2466 0.37201 0.0
H1871 H 0.0683 0.35555 0.40157 0.0
H1872 H 0.08979 0.3309 0.41606 0.0
H1873 H 0.06626 0.28688 0.37672 0.0
H1874 H 0.04455 0.31167 0.36193 0.0
H1875 H 0.10709 0.28406 0.38118 0.0
H1876 H 0.05007 0.28924 0.42218 0.0
H1877 H 0.02512 0.30655 0.44203 0.0
H1878 H 0.06986 0.32635 0.48203 0.0
H1879 H 0.09525 0.30967 0.46203 0.0
C1880 C 0.13409 0.21333 0.4405 0.0
C1881 C 0.14563 0.21721 0.45727 0.0
C1882 C 0.12512 0.22864 0.43021 0.0
C1883 C 0.12737 0.24818 0.4365 0.0
C1884 C 0.13918 0.2522 0.45303 0.0
C1885 C 0.14841 0.23684 0.46323 0.0
C1886 C 0.11633 0.26413 0.42644 0.0
C1887 C 0.10241 0.27483 0.43737 0.0
C1888 C 0.11806 0.26751 0.40593 0.0
C1889 C 0.13317 0.25734 0.3938 0.0
C1890 C 0.15313 0.25788 0.39929 0.0
C1891 C 0.1673 0.24824 0.38785 0.0
C1892 C 0.16172 0.2381 0.37081 0.0
C1893 C 0.14196 0.23762 0.36515 0.0
C1894 C 0.12772 0.24723 0.37654 0.0
C1895 C 0.06769 0.34067 0.39585 0.0
C1896 C 0.05455 0.33556 0.38066 0.0
C1897 C 0.08002 0.32657 0.40421 0.0
C1898 C 0.07947 0.30699 0.39766 0.0
C1899 C 0.06688 0.30191 0.38203 0.0
C1900 C 0.05444 0.31606 0.37365 0.0
C1901 C 0.09154 0.29181 0.40775 0.0
C1902 C 0.10555 0.28122 0.39683 0.0
C1903 C 0.08986 0.28846 0.42828 0.0
C1904 C 0.07461 0.29838 0.44046 0.0
C1905 C 0.05464 0.29744 0.43509 0.0
C1906 C 0.0404 0.30712 0.4464 0.0
C1907 C 0.04587 0.31752 0.4633 0.0
C1908 C 0.06564 0.3183 0.46892 0.0
C1909 C 0.07997 0.30876 0.45758 0.0
H1910 H 0.0348 0.32497 0.47205 0.0
H1911 H 0.17272 0.23065 0.36197 0.0
H1912 H 0.63153 0.69136 0.95015 0.0
H1913 H 0.61273 0.71265 0.92804 0.0
H1914 H 0.65388 0.75987 0.93849 0.0
H1915 H 0.67277 0.73875 0.96053 0.0
H1916 H 0.61513 0.77053 0.94491 0.0
H1917 H 0.6531 0.73708 0.89477 0.0
H1918 H 0.66552 0.70798 0.87691 0.0
H1919 H 0.60636 0.69125 0.86222 0.0
H1920 H 0.59356 0.72012 0.88024 0.0
H1921 H 0.58465 0.84317 0.88095 0.0
H1922 H 0.60462 0.81733 0.89559 0.0
H1923 H 0.56254 0.77371 0.87647 0.0
H1924 H 0.54269 0.79972 0.86104 0.0
H1925 H 0.59955 0.75923 0.87436 0.0
H1926 H 0.56103 0.79143 0.92345 0.0
H1927 H 0.54717 0.81949 0.94193 0.0
H1928 H 0.60522 0.83687 0.9599 0.0
H1929 H 0.61947 0.80908 0.94128 0.0
C1930 C 0.63674 0.70619 0.94753 0.0
C1931 C 0.65362 0.71337 0.9572 0.0
C1932 C 0.626 0.71832 0.93483 0.0
C1933 C 0.63191 0.73785 0.93161 0.0
C1934 C 0.64905 0.74485 0.94079 0.0
C1935 C 0.65987 0.73272 0.95335 0.0
C1936 C 0.61953 0.75149 0.9199 0.0
C1937 C 0.61195 0.76819 0.92941 0.0
C1938 C 0.61467 0.74797 0.89992 0.0
C1939 C 0.62236 0.73065 0.88904 0.0
C1940 C 0.64272 0.7271 0.88789 0.0
C1941 C 0.64984 0.71067 0.8777 0.0
C1942 C 0.63673 0.69774 0.86848 0.0
C1943 C 0.61649 0.70126 0.86939 0.0
C1944 C 0.6093 0.71767 0.87957 0.0
C1945 C 0.57976 0.82805 0.87961 0.0
C1946 C 0.56199 0.82347 0.87007 0.0
C1947 C 0.59116 0.81328 0.88805 0.0
C1948 C 0.58482 0.79362 0.88764 0.0
C1949 C 0.56765 0.7888 0.87712 0.0
C1950 C 0.55633 0.80364 0.86831 0.0
C1951 C 0.59561 0.77856 0.89927 0.0
C1952 C 0.60273 0.76155 0.88985 0.0
C1953 C 0.59984 0.78158 0.9195 0.0
C1954 C 0.59133 0.79825 0.93084 0.0
C1955 C 0.57085 0.80131 0.93124 0.0
C1956 C 0.56293 0.81716 0.94175 0.0
C1957 C 0.57531 0.82997 0.95205 0.0
C1958 C 0.59565 0.82694 0.9519 0.0
C1959 C 0.60366 0.81113 0.94139 0.0
H1960 H 0.56914 0.84224 0.96018 0.0
H1961 H 0.64227 0.68502 0.8606 0.0
H1962 H 0.32912 0.61483 0.98491 0.0
H1963 H 0.31419 0.59634 0.95768 0.0
H1964 H 0.32316 0.64578 0.91907 0.0
H1965 H 0.33853 0.6642 0.94604 0.0
H1966 H 0.28274 0.63089 0.92254 0.0
H1967 H 0.34875 0.60841 0.90951 0.0
H1968 H 0.38054 0.5933 0.9182 0.0
H1969 H 0.35101 0.53964 0.93377 0.0
H1970 H 0.319 0.55454 0.92544 0.0
H1971 H 0.23867 0.58819 0.83944 0.0
H1972 H 0.26291 0.60475 0.86032 0.0
H1973 H 0.27211 0.55078 0.89235 0.0
H1974 H 0.24874 0.53393 0.87074 0.0
H1975 H 0.30493 0.56861 0.89139 0.0
H1976 H 0.23993 0.5895 0.90857 0.0
H1977 H 0.20676 0.60317 0.90316 0.0
H1978 H 0.23217 0.65783 0.88421 0.0
H1979 H 0.26551 0.64439 0.88927 0.0
C1980 C 0.32833 0.62161 0.97051 0.0
C1981 C 0.33502 0.641 0.96768 0.0
C1982 C 0.31979 0.61102 0.95497 0.0
C1983 C 0.31752 0.61971 0.93637 0.0
C1984 C 0.3248 0.6388 0.9333 0.0
C1985 C 0.33367 0.64926 0.94873 0.0
C1986 C 0.30604 0.60958 0.9207 0.0
C1987 C 0.28773 0.61746 0.91544 0.0
C1988 C 0.31222 0.59166 0.91206 0.0
C1989 C 0.33146 0.58267 0.91703 0.0
C1990 C 0.34901 0.59345 0.91496 0.0
C1991 C 0.36708 0.58491 0.91978 0.0
C1992 C 0.36779 0.56554 0.92658 0.0
C1993 C 0.35044 0.55466 0.92852 0.0
C1994 C 0.33233 0.56314 0.92373 0.0
C1995 C 0.24614 0.57978 0.85071 0.0
C1996 C 0.24169 0.55979 0.8535 0.0
C1997 C 0.25989 0.5893 0.86278 0.0
C1998 C 0.26898 0.57924 0.8784 0.0
C1999 C 0.26528 0.55899 0.88054 0.0
C2000 C 0.25189 0.54934 0.86814 0.0
C2001 C 0.2815 0.58995 0.89307 0.0
C2002 C 0.29994 0.58214 0.89829 0.0
C2003 C 0.27522 0.60772 0.90214 0.0
C2004 C 0.2552 0.61586 0.89909 0.0
C2005 C 0.23844 0.60439 0.90311 0.0
C2006 C 0.21961 0.6121 0.90013 0.0
C2007 C 0.21736 0.63134 0.89329 0.0
C2008 C 0.23394 0.64292 0.88947 0.0
C2009 C 0.2528 0.63527 0.8924 0.0
H2010 H 0.20278 0.63728 0.89099 0.0
H2011 H 0.38179 0.55895 0.9303 0.0
H2012 H 0.36223 0.34646 0.94703 0.0
H2013 H 0.38314 0.32487 0.92731 0.0
H2014 H 0.41756 0.31107 0.97874 0.0
H2015 H 0.39667 0.33282 0.99871 0.0
H2016 H 0.44058 0.31442 0.94389 0.0
H2017 H 0.38316 0.28011 0.96642 0.0
H2018 H 0.34762 0.27537 0.9721 0.0
H2019 H 0.33718 0.27724 0.90975 0.0
H2020 H 0.37265 0.28229 0.90371 0.0
H2021 H 0.48058 0.22921 0.8954 0.0
H2022 H 0.46378 0.2493 0.92044 0.0
H2023 H 0.42168 0.26812 0.87692 0.0
H2024 H 0.43821 0.24815 0.85202 0.0
H2025 H 0.40391 0.26001 0.91155 0.0
H2026 H 0.46038 0.29694 0.88902 0.0
H2027 H 0.4958 0.30195 0.88268 0.0
H2028 H 0.50803 0.29505 0.94432 0.0
H2029 H 0.47268 0.28973 0.951 0.0
C2030 C 0.37444 0.33914 0.95415 0.0
C2031 C 0.3776 0.34122 0.97453 0.0
C2032 C 0.38637 0.32674 0.94284 0.0
C2033 C 0.40168 0.31606 0.95162 0.0
C2034 C 0.40576 0.31909 0.97168 0.0
C2035 C 0.39379 0.33154 0.98306 0.0
C2036 C 0.41224 0.30067 0.9401 0.0
C2037 C 0.43264 0.30233 0.93708 0.0
C2038 C 0.40187 0.28497 0.93107 0.0
C2039 C 0.38055 0.28173 0.93463 0.0
C2040 C 0.37327 0.27964 0.95393 0.0
C2041 C 0.35314 0.27689 0.95721 0.0
C2042 C 0.34014 0.27605 0.94129 0.0
C2043 C 0.34726 0.27791 0.92206 0.0
C2044 C 0.36738 0.2807 0.9187 0.0
C2045 C 0.46754 0.23736 0.89129 0.0
C2046 C 0.46074 0.23713 0.87171 0.0
C2047 C 0.45805 0.24896 0.90556 0.0
C2048 C 0.44161 0.26041 0.90049 0.0
C2049 C 0.43435 0.25946 0.88118 0.0
C2050 C 0.44385 0.24804 0.86694 0.0
C2051 C 0.43216 0.27397 0.91493 0.0
C2052 C 0.41192 0.27195 0.91854 0.0
C2053 C 0.4427 0.28931 0.92441 0.0
C2054 C 0.46391 0.29275 0.92048 0.0
C2055 C 0.47064 0.29636 0.90121 0.0
C2056 C 0.49069 0.29927 0.89755 0.0
C2057 C 0.50415 0.29879 0.91308 0.0
C2058 C 0.49758 0.2954 0.9323 0.0
C2059 C 0.47754 0.29246 0.93604 0.0
H2060 H 0.51965 0.30114 0.91022 0.0
H2061 H 0.32456 0.27391 0.94386 0.0
H2062 H 0.73202 0.35175 0.95497 0.0
H2063 H 0.74904 0.36663 0.92705 0.0
H2064 H 0.71846 0.42126 0.93747 0.0
H2065 H 0.70112 0.40641 0.9654 0.0
H2066 H 0.72099 0.412 0.89768 0.0
H2067 H 0.76414 0.41652 0.9536 0.0
H2068 H 0.78261 0.40381 0.9821 0.0
H2069 H 0.8149 0.3649 0.94401 0.0
H2070 H 0.79642 0.37718 0.91531 0.0
H2071 H 0.78818 0.47846 0.85149 0.0
H2072 H 0.76451 0.45959 0.8708 0.0
H2073 H 0.79974 0.40735 0.86288 0.0
H2074 H 0.82378 0.42629 0.844 0.0
H2075 H 0.79393 0.41416 0.90029 0.0
H2076 H 0.75224 0.4118 0.84359 0.0
H2077 H 0.73382 0.42511 0.81535 0.0
H2078 H 0.69898 0.46057 0.85454 0.0
H2079 H 0.71736 0.44768 0.88302 0.0
C2080 C 0.72883 0.36692 0.95132 0.0
C2081 C 0.71535 0.37797 0.96254 0.0
C2082 C 0.73857 0.37538 0.93534 0.0
C2083 C 0.73514 0.39509 0.93033 0.0
C2084 C 0.72129 0.40602 0.94111 0.0
C2085 C 0.7115 0.39755 0.95713 0.0
C2086 C 0.74676 0.4045 0.91447 0.0
C2087 C 0.73693 0.41266 0.89826 0.0
C2088 C 0.76755 0.40497 0.91512 0.0
C2089 C 0.77875 0.39762 0.93235 0.0
C2090 C 0.77507 0.40514 0.95133 0.0
C2091 C 0.78556 0.39803 0.96751 0.0
C2092 C 0.79988 0.38352 0.96488 0.0
C2093 C 0.80378 0.37612 0.94604 0.0
C2094 C 0.79331 0.38315 0.92981 0.0
C2095 C 0.79061 0.46283 0.85335 0.0
C2096 C 0.80798 0.4539 0.84644 0.0
C2097 C 0.777 0.45202 0.86437 0.0
C2098 C 0.78037 0.43204 0.86836 0.0
C2099 C 0.79691 0.42278 0.86009 0.0
C2100 C 0.81062 0.43361 0.84927 0.0
C2101 C 0.76824 0.42158 0.88322 0.0
C2102 C 0.778 0.41332 0.89944 0.0
C2103 C 0.74742 0.42112 0.88253 0.0
C2104 C 0.7363 0.42888 0.86544 0.0
C2105 C 0.74075 0.42255 0.84619 0.0
C2106 C 0.7303 0.43 0.83013 0.0
C2107 C 0.71527 0.4437 0.83315 0.0
C2108 C 0.71063 0.44996 0.85223 0.0
C2109 C 0.72105 0.44256 0.86833 0.0
H2110 H 0.70719 0.44945 0.8207 0.0
H2111 H 0.80799 0.37804 0.97742 0.0
H2112 H 0.62 0.32402 0.045 0.0
H2113 H 0.60099 0.30313 0.0672 0.0
H2114 H 0.6539 0.27219 0.08346 0.0
H2115 H 0.67306 0.29291 0.06102 0.0
H2116 H 0.62369 0.24677 0.07746 0.0
H2117 H 0.63454 0.30605 0.11423 0.0
H2118 H 0.63443 0.34186 0.12018 0.0
H2119 H 0.57162 0.34307 0.11329 0.0
H2120 H 0.57139 0.30728 0.10703 0.0
H2121 H 0.56852 0.23408 0.1783 0.0
H2122 H 0.59106 0.25075 0.15596 0.0
H2123 H 0.56301 0.22261 0.10631 0.0
H2124 H 0.54047 0.20546 0.1288 0.0
H2125 H 0.58238 0.27707 0.12967 0.0
H2126 H 0.59659 0.21969 0.06804 0.0
H2127 H 0.59911 0.18368 0.06407 0.0
H2128 H 0.61612 0.17808 0.1247 0.0
H2129 H 0.61396 0.21406 0.12896 0.0
C2130 C 0.62765 0.31283 0.05333 0.0
C2131 C 0.64809 0.31023 0.05131 0.0
C2132 C 0.61674 0.30089 0.06603 0.0
C2133 C 0.62604 0.28618 0.07711 0.0
C2134 C 0.64642 0.28343 0.07503 0.0
C2135 C 0.65736 0.29537 0.06229 0.0
C2136 C 0.61448 0.27393 0.09106 0.0
C2137 C 0.61465 0.25337 0.08889 0.0
C2138 C 0.60291 0.28251 0.10615 0.0
C2139 C 0.60298 0.30402 0.10999 0.0
C2140 C 0.62072 0.31397 0.11384 0.0
C2141 C 0.62072 0.33426 0.11729 0.0
C2142 C 0.60304 0.34474 0.11707 0.0
C2143 C 0.58531 0.33494 0.11344 0.0
C2144 C 0.58524 0.31465 0.10996 0.0
C2145 C 0.56724 0.23122 0.16264 0.0
C2146 C 0.55262 0.21852 0.1553 0.0
C2147 C 0.58014 0.24082 0.14987 0.0
C2148 C 0.57874 0.23802 0.12944 0.0
C2149 C 0.56453 0.22487 0.12204 0.0
C2150 C 0.55164 0.21509 0.13489 0.0
C2151 C 0.59141 0.24983 0.11604 0.0
C2152 C 0.59139 0.27039 0.11826 0.0
C2153 C 0.60339 0.24119 0.10129 0.0
C2154 C 0.60489 0.21955 0.09886 0.0
C2155 C 0.60092 0.21077 0.08051 0.0
C2156 C 0.60228 0.19037 0.07821 0.0
C2157 C 0.60771 0.17859 0.09414 0.0
C2158 C 0.61184 0.1872 0.11239 0.0
C2159 C 0.61052 0.2076 0.11476 0.0
H2160 H 0.60874 0.1628 0.09233 0.0
H2161 H 0.60306 0.36045 0.11974 0.0
H2162 H 0.81507 0.59659 0.16751 0.0
H2163 H 0.79022 0.61467 0.1491 0.0
H2164 H 0.74946 0.5665 0.15631 0.0
H2165 H 0.77446 0.5482 0.17483 0.0
H2166 H 0.75357 0.57722 0.11789 0.0
H2167 H 0.74009 0.61017 0.17834 0.0
H2168 H 0.74771 0.62801 0.20908 0.0
H2169 H 0.77303 0.67532 0.17575 0.0
H2170 H 0.76582 0.65765 0.1448 0.0
H2171 H 0.68269 0.6304 0.06238 0.0
H2172 H 0.69824 0.61306 0.08975 0.0
H2173 H 0.7448 0.65624 0.09087 0.0
H2174 H 0.72923 0.67381 0.06367 0.0
H2175 H 0.73332 0.64666 0.12782 0.0
H2176 H 0.75123 0.61206 0.06834 0.0
H2177 H 0.74493 0.59429 0.03725 0.0
H2178 H 0.71249 0.55012 0.06872 0.0
H2179 H 0.71837 0.5678 0.09999 0.0
C2180 C 0.80067 0.59 0.16558 0.0
C2181 C 0.79673 0.57096 0.17259 0.0
C2182 C 0.78643 0.6004 0.1551 0.0
C2183 C 0.76793 0.59199 0.15137 0.0
C2184 C 0.76363 0.57329 0.15908 0.0
C2185 C 0.77786 0.56292 0.16976 0.0
C2186 C 0.75406 0.60199 0.13776 0.0
C2187 C 0.74872 0.59224 0.12031 0.0
C2188 C 0.74818 0.62177 0.14065 0.0
C2189 C 0.75252 0.6325 0.15923 0.0
C2190 C 0.74742 0.62431 0.17756 0.0
C2191 C 0.75164 0.63441 0.19502 0.0
C2192 C 0.76088 0.65277 0.19437 0.0
C2193 C 0.76588 0.6611 0.17623 0.0
C2194 C 0.7617 0.65105 0.15872 0.0
C2195 C 0.69618 0.63629 0.06851 0.0
C2196 C 0.70478 0.65344 0.06072 0.0
C2197 C 0.70507 0.62632 0.08415 0.0
C2198 C 0.7228 0.63322 0.09224 0.0
C2199 C 0.73112 0.65064 0.08487 0.0
C2200 C 0.72224 0.66062 0.06925 0.0
C2201 C 0.73312 0.62197 0.10788 0.0
C2202 C 0.73785 0.63151 0.12563 0.0
C2203 C 0.73857 0.60202 0.10524 0.0
C2204 C 0.73502 0.59138 0.08646 0.0
C2205 C 0.7426 0.59865 0.06861 0.0
C2206 C 0.73914 0.58858 0.05096 0.0
C2207 C 0.72826 0.57112 0.051 0.0
C2208 C 0.72087 0.56367 0.0687 0.0
C2209 C 0.72427 0.5737 0.08639 0.0
H2210 H 0.7256 0.56334 0.03732 0.0
H2211 H 0.76414 0.66056 0.20791 0.0
H2212 H 0.39935 0.66924 0.07056 0.0
H2213 H 0.41931 0.68632 0.09546 0.0
H2214 H 0.4049 0.74201 0.06872 0.0
H2215 H 0.38597 0.72517 0.04359 0.0
H2216 H 0.44048 0.7437 0.07846 0.0
H2217 H 0.38146 0.72195 0.11224 0.0
H2218 H 0.35762 0.6974 0.12442 0.0
H2219 H 0.40336 0.66903 0.15739 0.0
H2220 H 0.42752 0.6933 0.1452 0.0
H2221 H 0.43931 0.81566 0.15068 0.0
H2222 H 0.42652 0.78793 0.13182 0.0
H2223 H 0.47126 0.75031 0.15616 0.0
H2224 H 0.48449 0.77829 0.17512 0.0
H2225 H 0.42668 0.73462 0.14969 0.0
H2226 H 0.48438 0.76295 0.11735 0.0
H2227 H 0.50355 0.792 0.10701 0.0
H2228 H 0.45517 0.81163 0.0716 0.0
H2229 H 0.43556 0.7829 0.08198 0.0
C2230 C 0.40064 0.6851 0.06993 0.0
C2231 C 0.39101 0.69578 0.05506 0.0
C2232 C 0.41195 0.69489 0.08426 0.0
C2233 C 0.41348 0.71556 0.08422 0.0
C2234 C 0.40413 0.7261 0.06914 0.0
C2235 C 0.39318 0.71637 0.05473 0.0
C2236 C 0.42436 0.72663 0.09986 0.0
C2237 C 0.43747 0.74154 0.09401 0.0
C2238 C 0.42081 0.72382 0.12029 0.0
C2239 C 0.40632 0.70925 0.12761 0.0
C2240 C 0.38645 0.71038 0.12197 0.0
C2241 C 0.37288 0.69654 0.12889 0.0
C2242 C 0.37898 0.68162 0.14161 0.0
C2243 C 0.39866 0.68056 0.14749 0.0
C2244 C 0.41229 0.69435 0.14058 0.0
C2245 C 0.44625 0.80143 0.15241 0.0
C2246 C 0.46305 0.79925 0.16428 0.0
C2247 C 0.43886 0.78557 0.14163 0.0
C2248 C 0.44803 0.76715 0.14249 0.0
C2249 C 0.46395 0.76444 0.15537 0.0
C2250 C 0.47146 0.78042 0.1662 0.0
C2251 C 0.44219 0.75176 0.12807 0.0
C2252 C 0.43007 0.73621 0.13415 0.0
C2253 C 0.44622 0.75424 0.10778 0.0
C2254 C 0.45844 0.77086 0.1006 0.0
C2255 C 0.47779 0.77352 0.10745 0.0
C2256 C 0.48871 0.78996 0.10164 0.0
C2257 C 0.4805 0.80376 0.08886 0.0
C2258 C 0.46146 0.801 0.08161 0.0
C2259 C 0.45045 0.78462 0.08742 0.0
H2260 H 0.48895 0.81652 0.08445 0.0
H2261 H 0.36846 0.67092 0.14696 0.0
H2262 H 0.36121 0.40937 0.08788 0.0
H2263 H 0.34374 0.43103 0.11094 0.0
H2264 H 0.29236 0.42894 0.07366 0.0
H2265 H 0.30993 0.40839 0.05026 0.0
H2266 H 0.29372 0.4629 0.08837 0.0
H2267 H 0.30016 0.39774 0.11553 0.0
H2268 H 0.31831 0.36855 0.12704 0.0
H2269 H 0.34765 0.40375 0.1707 0.0
H2270 H 0.32987 0.43322 0.15923 0.0
H2271 H 0.21248 0.46938 0.15022 0.0
H2272 H 0.23931 0.45309 0.13281 0.0
H2273 H 0.28162 0.4839 0.16872 0.0
H2274 H 0.2547 0.50065 0.18625 0.0
H2275 H 0.28912 0.4397 0.15752 0.0
H2276 H 0.27389 0.50415 0.13115 0.0
H2277 H 0.24913 0.52832 0.12049 0.0
H2278 H 0.23137 0.48981 0.07351 0.0
H2279 H 0.2552 0.46487 0.08462 0.0
C2280 C 0.34633 0.41388 0.08442 0.0
C2281 C 0.33694 0.40693 0.06731 0.0
C2282 C 0.33628 0.42614 0.09771 0.0
C2283 C 0.3165 0.43128 0.09435 0.0
C2284 C 0.30755 0.42522 0.07671 0.0
C2285 C 0.31766 0.41333 0.06332 0.0
C2286 C 0.30453 0.44187 0.10949 0.0
C2287 C 0.29283 0.45781 0.10348 0.0
C2288 C 0.30332 0.43542 0.12934 0.0
C2289 C 0.31389 0.41771 0.13636 0.0
C2290 C 0.31058 0.39927 0.1275 0.0
C2291 C 0.32079 0.38267 0.13402 0.0
C2292 C 0.33417 0.3843 0.14956 0.0
C2293 C 0.33732 0.40252 0.15864 0.0
C2294 C 0.32718 0.41917 0.15213 0.0
C2295 C 0.22745 0.4725 0.15474 0.0
C2296 C 0.23144 0.48656 0.16945 0.0
C2297 C 0.24276 0.46309 0.14478 0.0
C2298 C 0.2624 0.46745 0.14937 0.0
C2299 C 0.26653 0.48036 0.16501 0.0
C2300 C 0.25114 0.48995 0.17494 0.0
C2301 C 0.27823 0.46027 0.13616 0.0
C2302 C 0.29052 0.44503 0.14253 0.0
C2303 C 0.27954 0.46692 0.11646 0.0
C2304 C 0.26624 0.48252 0.10888 0.0
C2305 C 0.26458 0.50073 0.11867 0.0
C2306 C 0.25063 0.51453 0.11261 0.0
C2307 C 0.23867 0.5106 0.09635 0.0
C2308 C 0.24062 0.49283 0.08613 0.0
C2309 C 0.25428 0.4788 0.09238 0.0
H2310 H 0.22798 0.52138 0.0916 0.0
H2311 H 0.34207 0.37144 0.15458 0.0
H2312 H 0.8487 0.58336 0.81475 0.0
H2313 H 0.86649 0.60448 0.79171 0.0
H2314 H 0.88038 0.55397 0.75568 0.0
H2315 H 0.86265 0.53272 0.77863 0.0
H2316 H 0.91306 0.57479 0.76677 0.0
H2317 H 0.8501 0.58863 0.73829 0.0
H2318 H 0.8152 0.59852 0.7384 0.0
H2319 H 0.83099 0.65519 0.76165 0.0
H2320 H 0.86598 0.64555 0.76194 0.0
H2321 H 0.96546 0.62822 0.69468 0.0
H2322 H 0.94095 0.60728 0.71062 0.0
H2323 H 0.9214 0.65653 0.7458 0.0
H2324 H 0.94557 0.67769 0.72959 0.0
H2325 H 0.89063 0.63557 0.73335 0.0
H2326 H 0.95229 0.62182 0.76459 0.0
H2327 H 0.98737 0.61266 0.76611 0.0
H2328 H 0.97418 0.55659 0.73993 0.0
H2329 H 0.93904 0.56555 0.73796 0.0
C2330 C 0.85515 0.57679 0.8017 0.0
C2331 C 0.85441 0.55633 0.79864 0.0
C2332 C 0.86527 0.5889 0.78851 0.0
C2333 C 0.87479 0.58077 0.77202 0.0
C2334 C 0.87316 0.56051 0.76835 0.0
C2335 C 0.86296 0.54841 0.78146 0.0
C2336 C 0.8881 0.59302 0.75985 0.0
C2337 C 0.90809 0.58787 0.75911 0.0
C2338 C 0.8817 0.61043 0.75049 0.0
C2339 C 0.86066 0.61629 0.7503 0.0
C2340 C 0.84612 0.60314 0.74359 0.0
C2341 C 0.82632 0.60872 0.74354 0.0
C2342 C 0.82087 0.62746 0.75007 0.0
C2343 C 0.83522 0.64068 0.75661 0.0
C2344 C 0.85505 0.63517 0.7567 0.0
C2345 C 0.95592 0.63462 0.70577 0.0
C2346 C 0.95756 0.65459 0.71098 0.0
C2347 C 0.94193 0.62262 0.71489 0.0
C2348 C 0.92952 0.63028 0.72958 0.0
C2349 C 0.93083 0.65031 0.7345 0.0
C2350 C 0.94472 0.66236 0.72529 0.0
C2351 C 0.91558 0.6173 0.74025 0.0
C2352 C 0.89554 0.62237 0.74081 0.0
C2353 C 0.92195 0.5999 0.7497 0.0
C2354 C 0.94307 0.59445 0.75092 0.0
C2355 C 0.95689 0.6076 0.759 0.0
C2356 C 0.97678 0.60243 0.75997 0.0
C2357 C 0.98301 0.58407 0.75307 0.0
C2358 C 0.96934 0.57082 0.74523 0.0
C2359 C 0.94944 0.57593 0.74419 0.0
H2360 H 0.99841 0.5801 0.75384 0.0
H2361 H 0.80553 0.63175 0.75002 0.0
H2362 H 0.83768 0.44361 0.21296 0.0
H2363 H 0.86091 0.42219 0.23036 0.0
H2364 H 0.88664 0.4729 0.2586 0.0
H2365 H 0.86332 0.49435 0.24172 0.0
H2366 H 0.91253 0.44594 0.2332 0.0
H2367 H 0.86463 0.44696 0.28691 0.0
H2368 H 0.83172 0.44109 0.30113 0.0
H2369 H 0.83567 0.37991 0.28566 0.0
H2370 H 0.86851 0.3855 0.27108 0.0
H2371 H 0.98019 0.42409 0.30588 0.0
H2372 H 0.95407 0.43453 0.28395 0.0
H2373 H 0.9319 0.37505 0.28138 0.0
H2374 H 0.95825 0.36446 0.3039 0.0
H2375 H 0.9027 0.40015 0.28914 0.0
H2376 H 0.95119 0.3966 0.23969 0.0
H2377 H 0.98316 0.40063 0.22293 0.0
H2378 H 0.97774 0.46344 0.227 0.0
H2379 H 0.94582 0.45982 0.24397 0.0
C2380 C 0.84794 0.45015 0.22328 0.0
C2381 C 0.8487 0.4707 0.22588 0.0
C2382 C 0.8612 0.43789 0.23317 0.0
C2383 C 0.87553 0.44603 0.2456 0.0
C2384 C 0.87567 0.46639 0.24901 0.0
C2385 C 0.86224 0.47861 0.23942 0.0
C2386 C 0.89161 0.43373 0.2536 0.0
C2387 C 0.91047 0.43601 0.24552 0.0
C2388 C 0.88861 0.42002 0.26891 0.0
C2389 C 0.86889 0.4167 0.27766 0.0
C2390 C 0.85838 0.43231 0.28633 0.0
C2391 C 0.83977 0.42902 0.29451 0.0
C2392 C 0.83158 0.41015 0.29423 0.0
C2393 C 0.84201 0.39452 0.28582 0.0
C2394 C 0.86062 0.39774 0.27761 0.0
C2395 C 0.96999 0.41311 0.3004 0.0
C2396 C 0.97122 0.39347 0.30666 0.0
C2397 C 0.95509 0.41909 0.28771 0.0
C2398 C 0.94104 0.40558 0.28084 0.0
C2399 C 0.94262 0.38573 0.28645 0.0
C2400 C 0.95773 0.37966 0.29917 0.0
C2401 C 0.92397 0.41295 0.2693 0.0
C2402 C 0.90484 0.40977 0.2766 0.0
C2403 C 0.92665 0.42559 0.25295 0.0
C2404 C 0.9461 0.42792 0.24317 0.0
C2405 C 0.95687 0.41128 0.23716 0.0
C2406 C 0.97495 0.41349 0.22755 0.0
C2407 C 0.98242 0.43228 0.22383 0.0
C2408 C 0.97188 0.4489 0.22982 0.0
C2409 C 0.95377 0.44677 0.2394 0.0
H2410 H 0.99641 0.43396 0.21636 0.0
H2411 H 0.81717 0.40763 0.30058 0.0
H2412 H 0.61336 0.97505 0.33917 0.0
H2413 H 0.59415 0.95125 0.31989 0.0
H2414 H 0.63949 0.95051 0.27535 0.0
H2415 H 0.65868 0.97421 0.29441 0.0
H2416 H 0.60319 0.95389 0.25922 0.0
H2417 H 0.6346 0.9128 0.3077 0.0
H2418 H 0.64303 0.90229 0.34138 0.0
H2419 H 0.58178 0.89356 0.35445 0.0
H2420 H 0.57296 0.90429 0.3209 0.0
H2421 H 0.57796 0.87287 0.2013 0.0
H2422 H 0.59559 0.89383 0.22457 0.0
H2423 H 0.54794 0.88816 0.26625 0.0
H2424 H 0.5303 0.8667 0.24306 0.0
H2425 H 0.58301 0.8887 0.28511 0.0
H2426 H 0.55132 0.92865 0.23691 0.0
H2427 H 0.54227 0.93945 0.20348 0.0
H2428 H 0.60301 0.95113 0.19035 0.0
H2429 H 0.61246 0.94013 0.22363 0.0
C2430 C 0.61924 0.96982 0.32527 0.0
C2431 C 0.6376 0.97656 0.31838 0.0
C2432 C 0.60827 0.95613 0.3143 0.0
C2433 C 0.61543 0.94894 0.29621 0.0
C2434 C 0.63365 0.95581 0.28925 0.0
C2435 C 0.64464 0.96936 0.30023 0.0
C2436 C 0.60392 0.93453 0.28424 0.0
C2437 C 0.59897 0.93956 0.26483 0.0
C2438 C 0.59783 0.91605 0.29172 0.0
C2439 C 0.60311 0.90956 0.31187 0.0
C2440 C 0.62292 0.9088 0.31781 0.0
C2441 C 0.62777 0.90277 0.33687 0.0
C2442 C 0.61294 0.89732 0.35007 0.0
C2443 C 0.59324 0.89783 0.34422 0.0
C2444 C 0.58831 0.90387 0.32518 0.0
C2445 C 0.57131 0.87581 0.21552 0.0
C2446 C 0.55261 0.86823 0.22022 0.0
C2447 C 0.58139 0.88792 0.2288 0.0
C2448 C 0.57291 0.89302 0.247 0.0
C2449 C 0.55474 0.88457 0.25225 0.0
C2450 C 0.54468 0.87227 0.23898 0.0
C2451 C 0.58263 0.90793 0.25995 0.0
C2452 C 0.58716 0.90305 0.27953 0.0
C2453 C 0.58824 0.92666 0.2527 0.0
C2454 C 0.58261 0.93341 0.23271 0.0
C2455 C 0.56276 0.9334 0.22685 0.0
C2456 C 0.55756 0.93957 0.20794 0.0
C2457 C 0.57206 0.94593 0.19479 0.0
C2458 C 0.5918 0.94618 0.20055 0.0
C2459 C 0.59708 0.94 0.21944 0.0
H2460 H 0.568 0.95071 0.18015 0.0
H2461 H 0.61673 0.89265 0.36482 0.0
H2462 H 0.18062 0.55848 0.25333 0.0
H2463 H 0.16203 0.57652 0.27859 0.0
H2464 H 0.15345 0.62442 0.23793 0.0
H2465 H 0.17206 0.60666 0.21284 0.0
H2466 H 0.15847 0.63807 0.27495 0.0
H2467 H 0.12023 0.58737 0.24202 0.0
H2468 H 0.11195 0.55344 0.23201 0.0
H2469 H 0.10815 0.53631 0.29275 0.0
H2470 H 0.11684 0.57004 0.30311 0.0
H2471 H 0.06704 0.68219 0.29481 0.0
H2472 H 0.0948 0.66412 0.28082 0.0
H2473 H 0.09328 0.6238 0.32975 0.0
H2474 H 0.06534 0.64176 0.34386 0.0
H2475 H 0.0965 0.60472 0.29463 0.0
H2476 H 0.12944 0.65727 0.32726 0.0
H2477 H 0.13594 0.69174 0.33662 0.0
H2478 H 0.14866 0.70589 0.27631 0.0
H2479 H 0.14193 0.67156 0.26652 0.0
C2480 C 0.17526 0.5731 0.25 0.0
C2481 C 0.17761 0.58109 0.23104 0.0
C2482 C 0.16452 0.58332 0.26439 0.0
C2483 C 0.15606 0.60166 0.26002 0.0
C2484 C 0.15977 0.61027 0.24163 0.0
C2485 C 0.17037 0.60007 0.22726 0.0
C2486 C 0.14175 0.61117 0.27358 0.0
C2487 C 0.14492 0.63079 0.27928 0.0
C2488 C 0.12425 0.60152 0.2796 0.0
C2489 C 0.11945 0.58115 0.27334 0.0
C2490 C 0.11787 0.57631 0.25324 0.0
C2491 C 0.11308 0.55712 0.2475 0.0
C2492 C 0.10956 0.54273 0.26173 0.0
C2493 C 0.11092 0.54746 0.28174 0.0
C2494 C 0.11582 0.5666 0.28755 0.0
C2495 C 0.07258 0.66949 0.30263 0.0
C2496 C 0.06397 0.66343 0.32046 0.0
C2497 C 0.08856 0.65925 0.29468 0.0
C2498 C 0.09629 0.64278 0.3044 0.0
C2499 C 0.0876 0.63654 0.32208 0.0
C2500 C 0.07165 0.64683 0.33011 0.0
C2501 C 0.11301 0.63176 0.2956 0.0
C2502 C 0.11024 0.61188 0.29075 0.0
C2503 C 0.13083 0.64119 0.29031 0.0
C2504 C 0.13505 0.66184 0.29614 0.0
C2505 C 0.13349 0.66776 0.31596 0.0
C2506 C 0.13723 0.68727 0.32135 0.0
C2507 C 0.14268 0.701 0.30706 0.0
C2508 C 0.14444 0.69524 0.28736 0.0
C2509 C 0.14068 0.67574 0.28189 0.0
H2510 H 0.14557 0.71611 0.31127 0.0
H2511 H 0.10567 0.52794 0.25727 0.0
H2512 H 0.48459 0.12894 0.20454 0.0
H2513 H 0.4659 0.10519 0.22435 0.0
H2514 H 0.41188 0.13446 0.20875 0.0
H2515 H 0.43026 0.15804 0.18896 0.0
H2516 H 0.41837 0.13181 0.24943 0.0
H2517 H 0.42113 0.09013 0.1912 0.0
H2518 H 0.43809 0.07131 0.16512 0.0
H2519 H 0.4671 0.03634 0.2089 0.0
H2520 H 0.45051 0.05515 0.23527 0.0
H2521 H 0.33711 0.07703 0.27801 0.0
H2522 H 0.36337 0.09459 0.26121 0.0
H2523 H 0.40552 0.05174 0.28141 0.0
H2524 H 0.37897 0.03369 0.29813 0.0
H2525 H 0.4107 0.05952 0.24273 0.0
H2526 H 0.40587 0.09793 0.30081 0.0
H2527 H 0.38974 0.1164 0.32765 0.0
H2528 H 0.36653 0.15749 0.28577 0.0
H2529 H 0.38229 0.13911 0.25863 0.0
C2530 C 0.46869 0.12998 0.2049 0.0
C2531 C 0.45893 0.14553 0.19534 0.0
C2532 C 0.45804 0.11643 0.21627 0.0
C2533 C 0.43754 0.11823 0.21819 0.0
C2534 C 0.42772 0.13294 0.20761 0.0
C2535 C 0.43827 0.14637 0.19624 0.0
C2536 C 0.42629 0.10617 0.23251 0.0
C2537 C 0.41658 0.11601 0.2479 0.0
C2538 C 0.42478 0.08546 0.23107 0.0
C2539 C 0.43478 0.07423 0.21521 0.0
C2540 C 0.43129 0.07858 0.19528 0.0
C2541 C 0.44079 0.06787 0.18044 0.0
C2542 C 0.45372 0.05269 0.18535 0.0
C2543 C 0.45712 0.04813 0.20511 0.0
C2544 C 0.44766 0.05881 0.22001 0.0
C2545 C 0.35198 0.0714 0.27913 0.0
C2546 C 0.35595 0.054 0.28951 0.0
C2547 C 0.36703 0.08153 0.26955 0.0
C2548 C 0.38649 0.07465 0.27023 0.0
C2549 C 0.39063 0.05738 0.28077 0.0
C2550 C 0.37548 0.04718 0.29045 0.0
C2551 C 0.40208 0.08531 0.25916 0.0
C2552 C 0.41271 0.07526 0.24448 0.0
C2553 C 0.40468 0.10587 0.26137 0.0
C2554 C 0.3952 0.11705 0.27766 0.0
C2555 C 0.39722 0.11083 0.2973 0.0
C2556 C 0.38816 0.1213 0.31257 0.0
C2557 C 0.3771 0.13809 0.30841 0.0
C2558 C 0.37511 0.14448 0.28897 0.0
C2559 C 0.38413 0.13405 0.27363 0.0
H2560 H 0.37009 0.14618 0.32026 0.0
H2561 H 0.46106 0.04441 0.17384 0.0
H2562 H 0.05613 0.41886 0.69253 0.0
H2563 H 0.0829 0.43693 0.70872 0.0
H2564 H 0.11796 0.38413 0.70965 0.0
H2565 H 0.09153 0.36607 0.69313 0.0
H2566 H 0.11118 0.40338 0.7475 0.0
H2567 H 0.13313 0.41803 0.68152 0.0
H2568 H 0.12918 0.43052 0.64769 0.0
H2569 H 0.11521 0.48788 0.67039 0.0
H2570 H 0.11879 0.47565 0.70439 0.0
H2571 H 0.19217 0.44242 0.79689 0.0
H2572 H 0.17307 0.42584 0.77124 0.0
H2573 H 0.14723 0.48138 0.75472 0.0
H2574 H 0.16727 0.49814 0.77958 0.0
H2575 H 0.14987 0.46043 0.72344 0.0
H2576 H 0.1243 0.44771 0.78775 0.0
H2577 H 0.12504 0.43713 0.82247 0.0
H2578 H 0.1413 0.37875 0.80444 0.0
H2579 H 0.14091 0.38905 0.7696 0.0
C2580 C 0.06971 0.4112 0.69579 0.0
C2581 C 0.07165 0.391 0.69157 0.0
C2582 C 0.08499 0.42155 0.70502 0.0
C2583 C 0.10239 0.41185 0.71041 0.0
C2584 C 0.10466 0.39189 0.70559 0.0
C2585 C 0.08954 0.38161 0.69606 0.0
C2586 C 0.1174 0.42199 0.72269 0.0
C2587 C 0.11992 0.41563 0.74215 0.0
C2588 C 0.12815 0.43849 0.71593 0.0
C2589 C 0.12604 0.44587 0.69551 0.0
C2590 C 0.12903 0.43326 0.67931 0.0
C2591 C 0.1269 0.44031 0.6601 0.0
C2592 C 0.12189 0.45997 0.65689 0.0
C2593 C 0.11906 0.47265 0.6729 0.0
C2594 C 0.12116 0.46567 0.69214 0.0
C2595 C 0.18277 0.45113 0.78745 0.0
C2596 C 0.18114 0.47154 0.7903 0.0
C2597 C 0.17168 0.44163 0.7729 0.0
C2598 C 0.15814 0.45221 0.76141 0.0
C2599 C 0.15742 0.4728 0.76343 0.0
C2600 C 0.16892 0.4824 0.77765 0.0
C2601 C 0.14387 0.4417 0.74834 0.0
C2602 C 0.14132 0.44807 0.7288 0.0
C2603 C 0.13261 0.42548 0.75517 0.0
C2604 C 0.13279 0.41921 0.77609 0.0
C2605 C 0.12816 0.43265 0.7912 0.0
C2606 C 0.1285 0.4267 0.8109 0.0
C2607 C 0.13327 0.4073 0.81566 0.0
C2608 C 0.13765 0.39378 0.80073 0.0
C2609 C 0.13736 0.39966 0.781 0.0
H2610 H 0.13352 0.40272 0.83092 0.0
H2611 H 0.12025 0.4654 0.64201 0.0
H2612 H 0.55554 0.16993 0.8214 0.0
H2613 H 0.57657 0.14952 0.80053 0.0
H2614 H 0.53008 0.10684 0.79471 0.0
H2615 H 0.50857 0.12745 0.81545 0.0
H2616 H 0.56804 0.08961 0.79682 0.0
H2617 H 0.53324 0.13691 0.75941 0.0
H2618 H 0.52011 0.16977 0.75168 0.0
H2619 H 0.57893 0.1924 0.74637 0.0
H2620 H 0.59243 0.15969 0.75435 0.0
H2621 H 0.61968 0.05016 0.71192 0.0
H2622 H 0.59219 0.0637 0.73143 0.0
H2623 H 0.62732 0.11476 0.74542 0.0
H2624 H 0.65451 0.10144 0.72615 0.0
H2625 H 0.58964 0.12474 0.73651 0.0
H2626 H 0.62323 0.07547 0.77722 0.0
H2627 H 0.63408 0.04188 0.78562 0.0
H2628 H 0.57428 0.02152 0.78305 0.0
H2629 H 0.5631 0.05496 0.77451 0.0
C2630 C 0.54984 0.15601 0.8161 0.0
C2631 C 0.53023 0.15045 0.81985 0.0
C2632 C 0.56188 0.14439 0.80407 0.0
C2633 C 0.55466 0.12689 0.79573 0.0
C2634 C 0.53573 0.12043 0.80082 0.0
C2635 C 0.52352 0.1322 0.81264 0.0
C2636 C 0.56623 0.11651 0.78029 0.0
C2637 C 0.57255 0.09714 0.78348 0.0
C2638 C 0.57183 0.12624 0.76275 0.0
C2639 C 0.56385 0.14589 0.75763 0.0
C2640 C 0.54338 0.14892 0.75673 0.0
C2641 C 0.53587 0.16752 0.75229 0.0
C2642 C 0.54868 0.18318 0.74859 0.0
C2643 C 0.56903 0.18026 0.74926 0.0
C2644 C 0.57662 0.16168 0.75371 0.0
C2645 C 0.6213 0.06446 0.71883 0.0
C2646 C 0.63922 0.07476 0.71752 0.0
C2647 C 0.60569 0.07208 0.73013 0.0
C2648 C 0.60779 0.09015 0.7401 0.0
C2649 C 0.62535 0.10079 0.73793 0.0
C2650 C 0.6409 0.09315 0.72689 0.0
C2651 C 0.59222 0.09806 0.75336 0.0
C2652 C 0.58498 0.11704 0.7497 0.0
C2653 C 0.58551 0.08777 0.77024 0.0
C2654 C 0.59237 0.06765 0.77499 0.0
C2655 C 0.61243 0.06378 0.77825 0.0
C2656 C 0.61862 0.04478 0.78309 0.0
C2657 C 0.60487 0.02956 0.78481 0.0
C2658 C 0.58491 0.03331 0.78169 0.0
C2659 C 0.57864 0.05227 0.77686 0.0
H2660 H 0.60962 0.01488 0.78865 0.0
H2661 H 0.54283 0.19758 0.74517 0.0
H2662 H 0.52022 0.88752 0.76801 0.0
H2663 H 0.5008 0.907 0.74495 0.0
H2664 H 0.44928 0.89875 0.78126 0.0
H2665 H 0.46856 0.87902 0.80428 0.0
H2666 H 0.43964 0.89716 0.74309 0.0
H2667 H 0.47722 0.94064 0.78451 0.0
H2668 H 0.5071 0.95442 0.79987 0.0
H2669 H 0.53063 0.96793 0.74272 0.0
H2670 H 0.50098 0.95397 0.727 0.0
H2671 H 0.38213 0.97892 0.71391 0.0
H2672 H 0.40212 0.95551 0.73234 0.0
H2673 H 0.45065 0.96525 0.69248 0.0
H2674 H 0.43077 0.98887 0.674 0.0
H2675 H 0.46266 0.96532 0.73058 0.0
H2676 H 0.4236 0.92347 0.68937 0.0
H2677 H 0.39295 0.91072 0.67466 0.0
H2678 H 0.37169 0.89467 0.73203 0.0
H2679 H 0.4021 0.9076 0.74712 0.0
C2680 C 0.50469 0.88958 0.77096 0.0
C2681 C 0.49601 0.88186 0.78812 0.0
C2682 C 0.49362 0.90083 0.7578 0.0
C2683 C 0.47365 0.90471 0.76157 0.0
C2684 C 0.46468 0.89606 0.77808 0.0
C2685 C 0.47574 0.88476 0.79124 0.0
C2686 C 0.46236 0.91851 0.74891 0.0
C2687 C 0.44459 0.91212 0.7405 0.0
C2688 C 0.46899 0.93793 0.74517 0.0
C2689 C 0.48695 0.9461 0.75457 0.0
C2690 C 0.48883 0.9464 0.77521 0.0
C2691 C 0.50571 0.95428 0.78398 0.0
C2692 C 0.52072 0.9621 0.77228 0.0
C2693 C 0.51895 0.96193 0.75177 0.0
C2694 C 0.50212 0.95403 0.74292 0.0
C2695 C 0.39705 0.97612 0.70903 0.0
C2696 C 0.40481 0.98577 0.69242 0.0
C2697 C 0.40844 0.96262 0.71954 0.0
C2698 C 0.42782 0.95841 0.71366 0.0
C2699 C 0.43571 0.96821 0.69726 0.0
C2700 C 0.42431 0.98169 0.68668 0.0
C2701 C 0.43989 0.94401 0.72485 0.0
C2702 C 0.45779 0.95031 0.73302 0.0
C2703 C 0.43333 0.92455 0.72843 0.0
C2704 C 0.41507 0.91667 0.71939 0.0
C2705 C 0.41233 0.91736 0.69886 0.0
C2706 C 0.39501 0.91008 0.69045 0.0
C2707 C 0.38037 0.90193 0.7024 0.0
C2708 C 0.38304 0.90101 0.72279 0.0
C2709 C 0.40032 0.90829 0.73128 0.0
H2710 H 0.36697 0.8963 0.69586 0.0
H2711 H 0.53374 0.96826 0.7791 0.0
loop_
_geom_bond_atom_site_label_1
_geom_bond_atom_site_label_2
_geom_bond_distance
_geom_bond_site_symmetry_2
_ccdc_geom_bond_type
Mg0 O7 2.141 . S
Mg0 O8 2.048 1_545 S
Mg0 O9 2.048 1_545 S
Mg0 O12 2.141 . S
C1 O2 1.313 . S
C1 O8 1.195 . S
O2 C1 1.313 . S
C3 O4 1.245 . S
C3 O12 1.289 . S
O4 C3 1.245 . S
C5 O6 1.245 . S
C5 O7 1.289 . S
O6 C5 1.245 . S
O7 Mg0 2.141 . S
O7 C5 1.289 . S
O8 Mg0 2.048 1_565 S
O8 C1 1.195 . S
O9 Mg0 2.048 1_565 S
O9 C10 1.195 . S
C10 O9 1.195 . S
C10 O11 1.313 . S
O11 C10 1.313 . S
O12 Mg0 2.141 . S
O12 C3 1.289 . S
Mg13 O20 2.141 . S
Mg13 O21 2.048 1_455 S
Mg13 O22 2.048 1_455 S
Mg13 O25 2.141 . S
C14 O15 1.313 . S
C14 O21 1.195 . S
O15 C14 1.313 . S
C16 O17 1.245 . S
C16 O25 1.289 . S
O17 C16 1.245 . S
C18 O19 1.245 . S
C18 O20 1.289 . S
O19 C18 1.245 . S
O20 Mg13 2.141 . S
O20 C18 1.289 . S
O21 Mg13 2.048 1_655 S
O21 C14 1.195 . S
O22 Mg13 2.048 1_655 S
O22 C23 1.195 . S
C23 O22 1.195 . S
C23 O24 1.313 . S
O24 C23 1.313 . S
O25 Mg13 2.141 . S
O25 C16 1.289 . S
Mg26 O33 2.141 1_545 S
Mg26 O34 2.048 . S
Mg26 O35 2.048 . S
Mg26 O38 2.141 1_545 S
C27 O28 1.313 . S
C27 O34 1.195 . S
O28 C27 1.313 . S
C29 O30 1.245 . S
C29 O38 1.289 . S
O30 C29 1.245 . S
C31 O32 1.245 . S
C31 O33 1.289 . S
O32 C31 1.245 . S
O33 Mg26 2.141 1_565 S
O33 C31 1.289 . S
O34 Mg26 2.048 . S
O34 C27 1.195 . S
O35 Mg26 2.048 . S
O35 C36 1.195 . S
C36 O35 1.195 . S
C36 O37 1.313 . S
O37 C36 1.313 . S
O38 Mg26 2.141 1_565 S
O38 C29 1.289 . S
Mg39 O46 2.141 1_455 S
Mg39 O47 2.048 . S
Mg39 O48 2.048 . S
Mg39 O51 2.141 1_455 S
C40 O41 1.313 . S
C40 O47 1.195 . S
O41 C40 1.313 . S
C42 O43 1.245 . S
C42 O51 1.289 . S
O43 C42 1.245 . S
C44 O45 1.245 . S
C44 O46 1.289 . S
O45 C44 1.245 . S
O46 Mg39 2.141 1_655 S
O46 C44 1.289 . S
O47 Mg39 2.048 . S
O47 C40 1.195 . S
O48 Mg39 2.048 . S
O48 C49 1.195 . S
C49 O48 1.195 . S
C49 O50 1.313 . S
O50 C49 1.313 . S
O51 Mg39 2.141 1_655 S
O51 C42 1.289 . S
Mg52 O59 2.141 1_545 S
Mg52 O60 2.048 . S
Mg52 O61 2.048 . S
Mg52 O64 2.141 1_545 S
C53 O54 1.313 . S
C53 O60 1.195 . S
O54 C53 1.313 . S
C55 O56 1.245 . S
C55 O64 1.289 . S
O56 C55 1.245 . S
C57 O58 1.245 . S
C57 O59 1.289 . S
O58 C57 1.245 . S
O59 Mg52 2.141 1_565 S
O59 C57 1.289 . S
O60 Mg52 2.048 . S
O60 C53 1.195 . S
O61 Mg52 2.048 . S
O61 C62 1.195 . S
C62 O61 1.195 . S
C62 O63 1.313 . S
O63 C62 1.313 . S
O64 Mg52 2.141 1_565 S
O64 C55 1.289 . S
Mg65 O72 2.141 . S
Mg65 O73 2.048 1_455 S
Mg65 O74 2.048 1_455 S
Mg65 O77 2.141 . S
C66 O67 1.313 . S
C66 O73 1.195 . S
O67 C66 1.313 . S
C68 O69 1.245 . S
C68 O77 1.289 . S
O69 C68 1.245 . S
C70 O71 1.245 . S
C70 O72 1.289 . S
O71 C70 1.245 . S
O72 Mg65 2.141 . S
O72 C70 1.289 . S
O73 Mg65 2.048 1_655 S
O73 C66 1.195 . S
O74 Mg65 2.048 1_655 S
O74 C75 1.195 . S
C75 O74 1.195 . S
C75 O76 1.313 . S
O76 C75 1.313 . S
O77 Mg65 2.141 . S
O77 C68 1.289 . S
Mg78 O85 2.141 . S
Mg78 O86 2.048 1_545 S
Mg78 O87 2.048 1_545 S
Mg78 O90 2.141 . S
C79 O80 1.313 . S
C79 O86 1.195 . S
O80 C79 1.313 . S
C81 O82 1.245 . S
C81 O90 1.289 . S
O82 C81 1.245 . S
C83 O84 1.245 . S
C83 O85 1.289 . S
O84 C83 1.245 . S
O85 Mg78 2.141 . S
O85 C83 1.289 . S
O86 Mg78 2.048 1_565 S
O86 C79 1.195 . S
O87 Mg78 2.048 1_565 S
O87 C88 1.195 . S
C88 O87 1.195 . S
C88 O89 1.313 . S
O89 C88 1.313 . S
O90 Mg78 2.141 . S
O90 C81 1.289 . S
Mg91 O98 2.141 1_455 S
Mg91 O99 2.048 . S
Mg91 O100 2.048 . S
Mg91 O103 2.141 1_455 S
C92 O93 1.313 . S
C92 O99 1.195 . S
O93 C92 1.313 . S
C94 O95 1.245 . S
C94 O103 1.289 . S
O95 C94 1.245 . S
C96 O97 1.245 . S
C96 O98 1.289 . S
O97 C96 1.245 . S
O98 Mg91 2.141 1_655 S
O98 C96 1.289 . S
O99 Mg91 2.048 . S
O99 C92 1.195 . S
O100 Mg91 2.048 . S
O100 C101 1.195 . S
C101 O100 1.195 . S
C101 O102 1.313 . S
O102 C101 1.313 . S
O103 Mg91 2.141 1_655 S
O103 C94 1.289 . S
Mg104 O111 2.141 . S
Mg104 O112 2.048 1_554 S
Mg104 O113 2.048 1_554 S
Mg104 O116 2.141 . S
C105 O106 1.313 . S
C105 O112 1.195 . S
O106 C105 1.313 . S
C107 O108 1.245 . S
C107 O116 1.289 . S
O108 C107 1.245 . S
C109 O110 1.245 . S
C109 O111 1.289 . S
O110 C109 1.245 . S
O111 Mg104 2.141 . S
O111 C109 1.289 . S
O112 Mg104 2.048 1_556 S
O112 C105 1.195 . S
O113 Mg104 2.048 1_556 S
O113 C114 1.195 . S
C114 O113 1.195 . S
C114 O115 1.313 . S
O115 C114 1.313 . S
O116 Mg104 2.141 . S
O116 C107 1.289 . S
Mg117 O124 2.141 1_554 S
Mg117 O125 2.048 . S
Mg117 O126 2.048 . S
Mg117 O129 2.141 1_554 S
C118 O119 1.313 . S
C118 O125 1.195 . S
O119 C118 1.313 . S
C120 O121 1.245 . S
C120 O129 1.289 . S
O121 C120 1.245 . S
C122 O123 1.245 . S
C122 O124 1.289 . S
O123 C122 1.245 . S
O124 Mg117 2.141 1_556 S
O124 C122 1.289 . S
O125 Mg117 2.048 . S
O125 C118 1.195 . S
O126 Mg117 2.048 . S
O126 C127 1.195 . S
C127 O126 1.195 . S
C127 O128 1.313 . S
O128 C127 1.313 . S
O129 Mg117 2.141 1_556 S
O129 C120 1.289 . S
Mg130 O137 2.141 1_554 S
Mg130 O138 2.048 . S
Mg130 O139 2.048 . S
Mg130 O142 2.141 1_554 S
C131 O132 1.313 . S
C131 O138 1.195 . S
O132 C131 1.313 . S
C133 O134 1.245 . S
C133 O142 1.289 . S
O134 C133 1.245 . S
C135 O136 1.245 . S
C135 O137 1.289 . S
O136 C135 1.245 . S
O137 Mg130 2.141 1_556 S
O137 C135 1.289 . S
O138 Mg130 2.048 . S
O138 C131 1.195 . S
O139 Mg130 2.048 . S
O139 C140 1.195 . S
C140 O139 1.195 . S
C140 O141 1.313 . S
O141 C140 1.313 . S
O142 Mg130 2.141 1_556 S
O142 C133 1.289 . S
Mg143 O150 2.141 . S
Mg143 O151 2.048 1_554 S
Mg143 O152 2.048 1_554 S
Mg143 O155 2.141 . S
C144 O145 1.313 . S
C144 O151 1.195 . S
O145 C144 1.313 . S
C146 O147 1.245 . S
C146 O155 1.289 . S
O147 C146 1.245 . S
C148 O149 1.245 . S
C148 O150 1.289 . S
O149 C148 1.245 . S
O150 Mg143 2.141 . S
O150 C148 1.289 . S
O151 Mg143 2.048 1_556 S
O151 C144 1.195 . S
O152 Mg143 2.048 1_556 S
O152 C153 1.195 . S
C153 O152 1.195 . S
C153 O154 1.313 . S
O154 C153 1.313 . S
O155 Mg143 2.141 . S
O155 C146 1.289 . S
Mg156 O163 2.141 . S
Mg156 O164 2.048 . S
Mg156 O165 2.048 . S
Mg156 O168 2.141 . S
C157 O158 1.313 . S
C157 O164 1.195 . S
O158 C157 1.313 . S
C159 O160 1.245 . S
C159 O168 1.289 . S
O160 C159 1.245 . S
C161 O162 1.245 . S
C161 O163 1.289 . S
O162 C161 1.245 . S
O163 Mg156 2.141 . S
O163 C161 1.289 . S
O164 Mg156 2.048 . S
O164 C157 1.195 . S
O165 Mg156 2.048 . S
O165 C166 1.195 . S
C166 O165 1.195 . S
C166 O167 1.313 . S
O167 C166 1.313 . S
O168 Mg156 2.141 . S
O168 C159 1.289 . S
Mg169 O176 2.141 . S
Mg169 O177 2.048 . S
Mg169 O178 2.048 . S
Mg169 O181 2.141 . S
C170 O171 1.313 . S
C170 O177 1.195 . S
O171 C170 1.313 . S
C172 O173 1.245 . S
C172 O181 1.289 . S
O173 C172 1.245 . S
C174 O175 1.245 . S
C174 O176 1.289 . S
O175 C174 1.245 . S
O176 Mg169 2.141 . S
O176 C174 1.289 . S
O177 Mg169 2.048 . S
O177 C170 1.195 . S
O178 Mg169 2.048 . S
O178 C179 1.195 . S
C179 O178 1.195 . S
C179 O180 1.313 . S
O180 C179 1.313 . S
O181 Mg169 2.141 . S
O181 C172 1.289 . S
Mg182 O189 2.141 . S
Mg182 O190 2.048 . S
Mg182 O191 2.048 . S
Mg182 O194 2.141 . S
C183 O184 1.313 . S
C183 O190 1.195 . S
O184 C183 1.313 . S
C185 O186 1.245 . S
C185 O194 1.289 . S
O186 C185 1.245 . S
C187 O188 1.245 . S
C187 O189 1.289 . S
O188 C187 1.245 . S
O189 Mg182 2.141 . S
O189 C187 1.289 . S
O190 Mg182 2.048 . S
O190 C183 1.195 . S
O191 Mg182 2.048 . S
O191 C192 1.195 . S
C192 O191 1.195 . S
C192 O193 1.313 . S
O193 C192 1.313 . S
O194 Mg182 2.141 . S
O194 C185 1.289 . S
Mg195 O202 2.141 . S
Mg195 O203 2.048 . S
Mg195 O204 2.048 . S
Mg195 O207 2.141 . S
C196 O197 1.313 . S
C196 O203 1.195 . S
O197 C196 1.313 . S
C198 O199 1.245 . S
C198 O207 1.289 . S
O199 C198 1.245 . S
C200 O201 1.245 . S
C200 O202 1.289 . S
O201 C200 1.245 . S
O202 Mg195 2.141 . S
O202 C200 1.289 . S
O203 Mg195 2.048 . S
O203 C196 1.195 . S
O204 Mg195 2.048 . S
O204 C205 1.195 . S
C205 O204 1.195 . S
C205 O206 1.313 . S
O206 C205 1.313 . S
O207 Mg195 2.141 . S
O207 C198 1.289 . S
Mg208 O215 2.141 . S
Mg208 O216 2.048 . S
Mg208 O217 2.048 . S
Mg208 O220 2.141 . S
C209 O210 1.313 . S
C209 O216 1.195 . S
O210 C209 1.313 . S
C211 O212 1.245 . S
C211 O220 1.289 . S
O212 C211 1.245 . S
C213 O214 1.245 . S
C213 O215 1.289 . S
O214 C213 1.245 . S
O215 Mg208 2.141 . S
O215 C213 1.289 . S
O216 Mg208 2.048 . S
O216 C209 1.195 . S
O217 Mg208 2.048 . S
O217 C218 1.195 . S
C218 O217 1.195 . S
C218 O219 1.313 . S
O219 C218 1.313 . S
O220 Mg208 2.141 . S
O220 C211 1.289 . S
Mg221 O228 2.141 . S
Mg221 O229 2.048 . S
Mg221 O230 2.048 . S
Mg221 O233 2.141 . S
C222 O223 1.313 . S
C222 O229 1.195 . S
O223 C222 1.313 . S
C224 O225 1.245 . S
C224 O233 1.289 . S
O225 C224 1.245 . S
C226 O227 1.245 . S
C226 O228 1.289 . S
O227 C226 1.245 . S
O228 Mg221 2.141 . S
O228 C226 1.289 . S
O229 Mg221 2.048 . S
O229 C222 1.195 . S
O230 Mg221 2.048 . S
O230 C231 1.195 . S
C231 O230 1.195 . S
C231 O232 1.313 . S
O232 C231 1.313 . S
O233 Mg221 2.141 . S
O233 C224 1.289 . S
Mg234 O241 2.141 . S
Mg234 O242 2.048 . S
Mg234 O243 2.048 . S
Mg234 O246 2.141 . S
C235 O236 1.313 . S
C235 O242 1.195 . S
O236 C235 1.313 . S
C237 O238 1.245 . S
C237 O246 1.289 . S
O238 C237 1.245 . S
C239 O240 1.245 . S
C239 O241 1.289 . S
O240 C239 1.245 . S
O241 Mg234 2.141 . S
O241 C239 1.289 . S
O242 Mg234 2.048 . S
O242 C235 1.195 . S
O243 Mg234 2.048 . S
O243 C244 1.195 . S
C244 O243 1.195 . S
C244 O245 1.313 . S
O245 C244 1.313 . S
O246 Mg234 2.141 . S
O246 C237 1.289 . S
Mg247 O254 2.141 . S
Mg247 O255 2.048 . S
Mg247 O256 2.048 . S
Mg247 O259 2.141 . S
C248 O249 1.313 . S
C248 O255 1.195 . S
O249 C248 1.313 . S
C250 O251 1.245 . S
C250 O259 1.289 . S
O251 C250 1.245 . S
C252 O253 1.245 . S
C252 O254 1.289 . S
O253 C252 1.245 . S
O254 Mg247 2.141 . S
O254 C252 1.289 . S
O255 Mg247 2.048 . S
O255 C248 1.195 . S
O256 Mg247 2.048 . S
O256 C257 1.195 . S
C257 O256 1.195 . S
C257 O258 1.313 . S
O258 C257 1.313 . S
O259 Mg247 2.141 . S
O259 C250 1.289 . S
Mg260 O267 2.141 . S
Mg260 O268 2.048 . S
Mg260 O269 2.048 . S
Mg260 O272 2.141 . S
C261 O262 1.313 . S
C261 O268 1.195 . S
O262 C261 1.313 . S
C263 O264 1.245 . S
C263 O272 1.289 . S
O264 C263 1.245 . S
C265 O266 1.245 . S
C265 O267 1.289 . S
O266 C265 1.245 . S
O267 Mg260 2.141 . S
O267 C265 1.289 . S
O268 Mg260 2.048 . S
O268 C261 1.195 . S
O269 Mg260 2.048 . S
O269 C270 1.195 . S
C270 O269 1.195 . S
C270 O271 1.313 . S
O271 C270 1.313 . S
O272 Mg260 2.141 . S
O272 C263 1.289 . S
Mg273 O280 2.141 . S
Mg273 O281 2.048 . S
Mg273 O282 2.048 . S
Mg273 O285 2.141 . S
C274 O275 1.313 . S
C274 O281 1.195 . S
O275 C274 1.313 . S
C276 O277 1.245 . S
C276 O285 1.289 . S
O277 C276 1.245 . S
C278 O279 1.245 . S
C278 O280 1.289 . S
O279 C278 1.245 . S
O280 Mg273 2.141 . S
O280 C278 1.289 . S
O281 Mg273 2.048 . S
O281 C274 1.195 . S
O282 Mg273 2.048 . S
O282 C283 1.195 . S
C283 O282 1.195 . S
C283 O284 1.313 . S
O284 C283 1.313 . S
O285 Mg273 2.141 . S
O285 C276 1.289 . S
Mg286 O293 2.141 . S
Mg286 O294 2.048 . S
Mg286 O295 2.048 . S
Mg286 O298 2.141 . S
C287 O288 1.313 . S
C287 O294 1.195 . S
O288 C287 1.313 . S
C289 O290 1.245 . S
C289 O298 1.289 . S
O290 C289 1.245 . S
C291 O292 1.245 . S
C291 O293 1.289 . S
O292 C291 1.245 . S
O293 Mg286 2.141 . S
O293 C291 1.289 . S
O294 Mg286 2.048 . S
O294 C287 1.195 . S
O295 Mg286 2.048 . S
O295 C296 1.195 . S
C296 O295 1.195 . S
C296 O297 1.313 . S
O297 C296 1.313 . S
O298 Mg286 2.141 . S
O298 C289 1.289 . S
Mg299 O306 2.141 . S
Mg299 O307 2.048 . S
Mg299 O308 2.048 . S
Mg299 O311 2.141 . S
C300 O301 1.313 . S
C300 O307 1.195 . S
O301 C300 1.313 . S
C302 O303 1.245 . S
C302 O311 1.289 . S
O303 C302 1.245 . S
C304 O305 1.245 . S
C304 O306 1.289 . S
O305 C304 1.245 . S
O306 Mg299 2.141 . S
O306 C304 1.289 . S
O307 Mg299 2.048 . S
O307 C300 1.195 . S
O308 Mg299 2.048 . S
O308 C309 1.195 . S
C309 O308 1.195 . S
C309 O310 1.313 . S
O310 C309 1.313 . S
O311 Mg299 2.141 . S
O311 C302 1.289 . S
H312 C330 0.951 . S
H313 C332 0.951 . S
H314 C334 0.950 . S
H315 C335 0.950 . S
H316 C337 0.950 . S
H317 C340 0.950 . S
H318 C341 0.950 . S
H319 C343 0.950 . S
H320 C344 0.950 . S
H321 C345 0.951 . S
H322 C347 0.951 . S
H323 C349 0.950 . S
H324 C350 0.950 . S
H325 C352 0.950 . S
H326 C355 0.950 . S
H327 C356 0.950 . S
H328 C358 0.950 . S
H329 C359 0.950 . S
C330 H312 0.951 . S
C330 C331 1.366 . S
C330 C332 1.388 . S
C331 C330 1.366 . S
C331 C335 1.385 . S
C332 H313 0.951 . S
C332 C330 1.388 . S
C332 C333 1.366 . S
C333 C332 1.366 . S
C333 C334 1.414 . S
C333 C336 1.499 . S
C334 H314 0.950 . S
C334 C333 1.414 . S
C334 C335 1.374 . S
C335 H315 0.950 . S
C335 C331 1.385 . S
C335 C334 1.374 . S
C336 C333 1.499 . S
C336 C337 1.373 . S
C336 C338 1.389 . S
C337 H316 0.950 . S
C337 C336 1.373 . S
C337 C353 1.377 . S
C338 C336 1.389 . S
C338 C339 1.524 . S
C338 C352 1.377 . S
C339 C338 1.524 . S
C339 C340 1.397 . S
C339 C344 1.363 . S
C340 H317 0.950 . S
C340 C339 1.397 . S
C340 C341 1.334 . S
C341 H318 0.950 . S
C341 C340 1.334 . S
C341 C342 1.287 . S
C342 C341 1.287 . S
C342 C343 1.524 . S
C342 H361 0.913 . S
C343 H319 0.950 . S
C343 C342 1.524 . S
C343 C344 1.415 . S
C344 H320 0.950 . S
C344 C339 1.363 . S
C344 C343 1.415 . S
C345 H321 0.951 . S
C345 C346 1.366 . S
C345 C347 1.388 . S
C346 C345 1.366 . S
C346 C350 1.385 . S
C347 H322 0.951 . S
C347 C345 1.388 . S
C347 C348 1.366 . S
C348 C347 1.366 . S
C348 C349 1.414 . S
C348 C351 1.499 . S
C349 H323 0.950 . S
C349 C348 1.414 . S
C349 C350 1.374 . S
C350 H324 0.950 . S
C350 C346 1.385 . S
C350 C349 1.374 . S
C351 C348 1.499 . S
C351 C352 1.373 . S
C351 C353 1.389 . S
C352 H325 0.950 . S
C352 C338 1.377 . S
C352 C351 1.373 . S
C353 C337 1.377 . S
C353 C351 1.389 . S
C353 C354 1.524 . S
C354 C353 1.524 . S
C354 C355 1.397 . S
C354 C359 1.363 . S
C355 H326 0.950 . S
C355 C354 1.397 . S
C355 C356 1.334 . S
C356 H327 0.950 . S
C356 C355 1.334 . S
C356 C357 1.287 . S
C357 C356 1.287 . S
C357 C358 1.524 . S
C357 H360 0.999 . S
C358 H328 0.950 . S
C358 C357 1.524 . S
C358 C359 1.415 . S
C359 H329 0.950 . S
C359 C354 1.363 . S
C359 C358 1.415 . S
H360 C357 0.999 . S
H361 C342 0.913 . S
H362 C380 0.951 . S
H363 C382 0.951 . S
H364 C384 0.950 . S
H365 C385 0.950 . S
H366 C387 0.950 . S
H367 C390 0.950 . S
H368 C391 0.950 . S
H369 C393 0.950 . S
H370 C394 0.950 . S
H371 C395 0.951 . S
H372 C397 0.951 . S
H373 C399 0.950 . S
H374 C400 0.950 . S
H375 C402 0.950 . S
H376 C405 0.950 . S
H377 C406 0.950 . S
H378 C408 0.950 . S
H379 C409 0.950 . S
C380 H362 0.951 . S
C380 C381 1.366 . S
C380 C382 1.388 . S
C381 C380 1.366 . S
C381 C385 1.385 . S
C382 H363 0.951 . S
C382 C380 1.388 . S
C382 C383 1.366 . S
C383 C382 1.366 . S
C383 C384 1.414 . S
C383 C386 1.499 . S
C384 H364 0.950 . S
C384 C383 1.414 . S
C384 C385 1.374 . S
C385 H365 0.950 . S
C385 C381 1.385 . S
C385 C384 1.374 . S
C386 C383 1.499 . S
C386 C387 1.373 . S
C386 C388 1.389 . S
C387 H366 0.950 . S
C387 C386 1.373 . S
C387 C403 1.377 . S
C388 C386 1.389 . S
C388 C389 1.524 . S
C388 C402 1.377 . S
C389 C388 1.524 . S
C389 C390 1.397 . S
C389 C394 1.363 . S
C390 H367 0.950 . S
C390 C389 1.397 . S
C390 C391 1.334 . S
C391 H368 0.950 . S
C391 C390 1.334 . S
C391 C392 1.287 . S
C392 C391 1.287 . S
C392 C393 1.524 . S
C392 H411 0.913 . S
C393 H369 0.950 . S
C393 C392 1.524 . S
C393 C394 1.415 . S
C394 H370 0.950 . S
C394 C389 1.363 . S
C394 C393 1.415 . S
C395 H371 0.951 . S
C395 C396 1.366 . S
C395 C397 1.388 . S
C396 C395 1.366 . S
C396 C400 1.385 . S
C397 H372 0.951 . S
C397 C395 1.388 . S
C397 C398 1.366 . S
C398 C397 1.366 . S
C398 C399 1.414 . S
C398 C401 1.499 . S
C399 H373 0.950 . S
C399 C398 1.414 . S
C399 C400 1.374 . S
C400 H374 0.950 . S
C400 C396 1.385 . S
C400 C399 1.374 . S
C401 C398 1.499 . S
C401 C402 1.373 . S
C401 C403 1.389 . S
C402 H375 0.950 . S
C402 C388 1.377 . S
C402 C401 1.373 . S
C403 C387 1.377 . S
C403 C401 1.389 . S
C403 C404 1.524 . S
C404 C403 1.524 . S
C404 C405 1.397 . S
C404 C409 1.363 . S
C405 H376 0.950 . S
C405 C404 1.397 . S
C405 C406 1.334 . S
C406 H377 0.950 . S
C406 C405 1.334 . S
C406 C407 1.287 . S
C407 C406 1.287 . S
C407 C408 1.524 . S
C407 H410 0.999 . S
C408 H378 0.950 . S
C408 C407 1.524 . S
C408 C409 1.415 . S
C409 H379 0.950 . S
C409 C404 1.363 . S
C409 C408 1.415 . S
H410 C407 0.999 . S
H411 C392 0.913 . S
H412 C430 0.951 . S
H413 C432 0.951 . S
H414 C434 0.950 . S
H415 C435 0.950 . S
H416 C437 0.950 . S
H417 C440 0.950 . S
H418 C441 0.950 . S
H419 C443 0.950 . S
H420 C444 0.950 . S
H421 C445 0.951 . S
H422 C447 0.951 . S
H423 C449 0.950 . S
H424 C450 0.950 . S
H425 C452 0.950 . S
H426 C455 0.950 . S
H427 C456 0.950 . S
H428 C458 0.950 . S
H429 C459 0.950 . S
C430 H412 0.951 . S
C430 C431 1.366 . S
C430 C432 1.388 . S
C431 C430 1.366 . S
C431 C435 1.385 . S
C432 H413 0.951 . S
C432 C430 1.388 . S
C432 C433 1.366 . S
C433 C432 1.366 . S
C433 C434 1.414 . S
C433 C436 1.499 . S
C434 H414 0.950 . S
C434 C433 1.414 . S
C434 C435 1.374 . S
C435 H415 0.950 . S
C435 C431 1.385 . S
C435 C434 1.374 . S
C436 C433 1.499 . S
C436 C437 1.373 . S
C436 C438 1.389 . S
C437 H416 0.950 . S
C437 C436 1.373 . S
C437 C453 1.377 . S
C438 C436 1.389 . S
C438 C439 1.524 . S
C438 C452 1.377 . S
C439 C438 1.524 . S
C439 C440 1.397 . S
C439 C444 1.363 . S
C440 H417 0.950 . S
C440 C439 1.397 . S
C440 C441 1.334 . S
C441 H418 0.950 . S
C441 C440 1.334 . S
C441 C442 1.287 . S
C442 C441 1.287 . S
C442 C443 1.524 . S
C442 H461 0.913 . S
C443 H419 0.950 . S
C443 C442 1.524 . S
C443 C444 1.415 . S
C444 H420 0.950 . S
C444 C439 1.363 . S
C444 C443 1.415 . S
C445 H421 0.951 . S
C445 C446 1.366 . S
C445 C447 1.388 . S
C446 C445 1.366 . S
C446 C450 1.385 . S
C447 H422 0.951 . S
C447 C445 1.388 . S
C447 C448 1.366 . S
C448 C447 1.366 . S
C448 C449 1.414 . S
C448 C451 1.499 . S
C449 H423 0.950 . S
C449 C448 1.414 . S
C449 C450 1.374 . S
C450 H424 0.950 . S
C450 C446 1.385 . S
C450 C449 1.374 . S
C451 C448 1.499 . S
C451 C452 1.373 . S
C451 C453 1.389 . S
C452 H425 0.950 . S
C452 C438 1.377 . S
C452 C451 1.373 . S
C453 C437 1.377 . S
C453 C451 1.389 . S
C453 C454 1.524 . S
C454 C453 1.524 . S
C454 C455 1.397 . S
C454 C459 1.363 . S
C455 H426 0.950 . S
C455 C454 1.397 . S
C455 C456 1.334 . S
C456 H427 0.950 . S
C456 C455 1.334 . S
C456 C457 1.287 . S
C457 C456 1.287 . S
C457 C458 1.524 . S
C457 H460 0.994 1_565 S
C458 H428 0.950 . S
C458 C457 1.524 . S
C458 C459 1.415 . S
C459 H429 0.950 . S
C459 C454 1.363 . S
C459 C458 1.415 . S
H460 C457 0.994 1_545 S
H461 C442 0.913 . S
H462 C480 0.951 . S
H463 C482 0.951 . S
H464 C484 0.950 . S
H465 C485 0.950 . S
H466 C487 0.950 . S
H467 C490 0.950 . S
H468 C491 0.950 . S
H469 C493 0.950 . S
H470 C494 0.950 . S
H471 C495 0.951 . S
H472 C497 0.951 . S
H473 C499 0.950 . S
H474 C500 0.950 . S
H475 C502 0.950 . S
H476 C505 0.950 . S
H477 C506 0.950 . S
H478 C508 0.950 . S
H479 C509 0.950 . S
C480 H462 0.951 . S
C480 C481 1.366 . S
C480 C482 1.388 . S
C481 C480 1.366 . S
C481 C485 1.385 . S
C482 H463 0.951 . S
C482 C480 1.388 . S
C482 C483 1.366 . S
C483 C482 1.366 . S
C483 C484 1.414 . S
C483 C486 1.499 . S
C484 H464 0.950 . S
C484 C483 1.414 . S
C484 C485 1.374 . S
C485 H465 0.950 . S
C485 C481 1.385 . S
C485 C484 1.374 . S
C486 C483 1.499 . S
C486 C487 1.373 . S
C486 C488 1.389 . S
C487 H466 0.950 . S
C487 C486 1.373 . S
C487 C503 1.377 . S
C488 C486 1.389 . S
C488 C489 1.524 . S
C488 C502 1.377 . S
C489 C488 1.524 . S
C489 C490 1.397 . S
C489 C494 1.363 . S
C490 H467 0.950 . S
C490 C489 1.397 . S
C490 C491 1.334 . S
C491 H468 0.950 . S
C491 C490 1.334 . S
C491 C492 1.287 . S
C492 C491 1.287 . S
C492 C493 1.524 . S
C492 H511 0.913 . S
C493 H469 0.950 . S
C493 C492 1.524 . S
C493 C494 1.415 . S
C494 H470 0.950 . S
C494 C489 1.363 . S
C494 C493 1.415 . S
C495 H471 0.951 . S
C495 C496 1.366 . S
C495 C497 1.388 . S
C496 C495 1.366 . S
C496 C500 1.385 . S
C497 H472 0.951 . S
C497 C495 1.388 . S
C497 C498 1.366 . S
C498 C497 1.366 . S
C498 C499 1.414 . S
C498 C501 1.499 . S
C499 H473 0.950 . S
C499 C498 1.414 . S
C499 C500 1.374 . S
C500 H474 0.950 . S
C500 C496 1.385 . S
C500 C499 1.374 . S
C501 C498 1.499 . S
C501 C502 1.373 . S
C501 C503 1.389 . S
C502 H475 0.950 . S
C502 C488 1.377 . S
C502 C501 1.373 . S
C503 C487 1.377 . S
C503 C501 1.389 . S
C503 C504 1.524 . S
C504 C503 1.524 . S
C504 C505 1.397 . S
C504 C509 1.363 . S
C505 H476 0.950 . S
C505 C504 1.397 . S
C505 C506 1.334 . S
C506 H477 0.950 . S
C506 C505 1.334 . S
C506 C507 1.287 . S
C507 C506 1.287 . S
C507 C508 1.524 . S
C507 H510 0.999 . S
C508 H478 0.950 . S
C508 C507 1.524 . S
C508 C509 1.415 . S
C509 H479 0.950 . S
C509 C504 1.363 . S
C509 C508 1.415 . S
H510 C507 0.999 . S
H511 C492 0.913 . S
H512 C530 0.951 . S
H513 C532 0.951 . S
H514 C534 0.950 . S
H515 C535 0.950 . S
H516 C537 0.950 . S
H517 C540 0.950 . S
H518 C541 0.950 . S
H519 C543 0.950 . S
H520 C544 0.950 . S
H521 C545 0.951 . S
H522 C547 0.951 . S
H523 C549 0.950 . S
H524 C550 0.950 . S
H525 C552 0.950 . S
H526 C555 0.950 . S
H527 C556 0.950 . S
H528 C558 0.950 . S
H529 C559 0.950 . S
C530 H512 0.951 . S
C530 C531 1.366 . S
C530 C532 1.388 . S
C531 C530 1.366 . S
C531 C535 1.385 . S
C532 H513 0.951 . S
C532 C530 1.388 . S
C532 C533 1.366 . S
C533 C532 1.366 . S
C533 C534 1.414 . S
C533 C536 1.499 . S
C534 H514 0.950 . S
C534 C533 1.414 . S
C534 C535 1.374 . S
C535 H515 0.950 . S
C535 C531 1.385 . S
C535 C534 1.374 . S
C536 C533 1.499 . S
C536 C537 1.373 . S
C536 C538 1.389 . S
C537 H516 0.950 . S
C537 C536 1.373 . S
C537 C553 1.377 . S
C538 C536 1.389 . S
C538 C539 1.524 . S
C538 C552 1.377 . S
C539 C538 1.524 . S
C539 C540 1.397 . S
C539 C544 1.363 . S
C540 H517 0.950 . S
C540 C539 1.397 . S
C540 C541 1.334 . S
C541 H518 0.950 . S
C541 C540 1.334 . S
C541 C542 1.287 . S
C542 C541 1.287 . S
C542 C543 1.524 . S
C542 H561 0.913 . S
C543 H519 0.950 . S
C543 C542 1.524 . S
C543 C544 1.415 . S
C544 H520 0.950 . S
C544 C539 1.363 . S
C544 C543 1.415 . S
C545 H521 0.951 . S
C545 C546 1.366 . S
C545 C547 1.388 . S
C546 C545 1.366 . S
C546 C550 1.385 . S
C547 H522 0.951 . S
C547 C545 1.388 . S
C547 C548 1.366 . S
C548 C547 1.366 . S
C548 C549 1.414 . S
C548 C551 1.499 . S
C549 H523 0.950 . S
C549 C548 1.414 . S
C549 C550 1.374 . S
C550 H524 0.950 . S
C550 C546 1.385 . S
C550 C549 1.374 . S
C551 C548 1.499 . S
C551 C552 1.373 . S
C551 C553 1.389 . S
C552 H525 0.950 . S
C552 C538 1.377 . S
C552 C551 1.373 . S
C553 C537 1.377 . S
C553 C551 1.389 . S
C553 C554 1.524 . S
C554 C553 1.524 . S
C554 C555 1.397 . S
C554 C559 1.363 . S
C555 H526 0.950 . S
C555 C554 1.397 . S
C555 C556 1.334 . S
C556 H527 0.950 . S
C556 C555 1.334 . S
C556 C557 1.287 . S
C557 C556 1.287 . S
C557 C558 1.524 . S
C557 H560 0.999 . S
C558 H528 0.950 . S
C558 C557 1.524 . S
C558 C559 1.415 . S
C559 H529 0.950 . S
C559 C554 1.363 . S
C559 C558 1.415 . S
H560 C557 0.999 . S
H561 C542 0.913 . S
H562 C580 0.951 . S
H563 C582 0.951 . S
H564 C584 0.950 . S
H565 C585 0.950 . S
H566 C587 0.950 . S
H567 C590 0.950 . S
H568 C591 0.950 . S
H569 C593 0.950 . S
H570 C594 0.950 . S
H571 C595 0.951 . S
H572 C597 0.951 . S
H573 C599 0.950 . S
H574 C600 0.950 . S
H575 C602 0.950 . S
H576 C605 0.950 . S
H577 C606 0.950 . S
H578 C608 0.950 . S
H579 C609 0.950 . S
C580 H562 0.951 . S
C580 C581 1.366 . S
C580 C582 1.388 . S
C581 C580 1.366 . S
C581 C585 1.385 . S
C582 H563 0.951 . S
C582 C580 1.388 . S
C582 C583 1.366 . S
C583 C582 1.366 . S
C583 C584 1.414 . S
C583 C586 1.499 . S
C584 H564 0.950 . S
C584 C583 1.414 . S
C584 C585 1.374 . S
C585 H565 0.950 . S
C585 C581 1.385 . S
C585 C584 1.374 . S
C586 C583 1.499 . S
C586 C587 1.373 . S
C586 C588 1.389 . S
C587 H566 0.950 . S
C587 C586 1.373 . S
C587 C603 1.377 . S
C588 C586 1.389 . S
C588 C589 1.524 . S
C588 C602 1.377 . S
C589 C588 1.524 . S
C589 C590 1.397 . S
C589 C594 1.363 . S
C590 H567 0.950 . S
C590 C589 1.397 . S
C590 C591 1.334 . S
C591 H568 0.950 . S
C591 C590 1.334 . S
C591 C592 1.287 . S
C592 C591 1.287 . S
C592 C593 1.524 . S
C592 H611 0.913 . S
C593 H569 0.950 . S
C593 C592 1.524 . S
C593 C594 1.415 . S
C594 H570 0.950 . S
C594 C589 1.363 . S
C594 C593 1.415 . S
C595 H571 0.951 . S
C595 C596 1.366 . S
C595 C597 1.388 . S
C596 C595 1.366 . S
C596 C600 1.385 . S
C597 H572 0.951 . S
C597 C595 1.388 . S
C597 C598 1.366 . S
C598 C597 1.366 . S
C598 C599 1.414 . S
C598 C601 1.499 . S
C599 H573 0.950 . S
C599 C598 1.414 . S
C599 C600 1.374 . S
C600 H574 0.950 . S
C600 C596 1.385 . S
C600 C599 1.374 . S
C601 C598 1.499 . S
C601 C602 1.373 . S
C601 C603 1.389 . S
C602 H575 0.950 . S
C602 C588 1.377 . S
C602 C601 1.373 . S
C603 C587 1.377 . S
C603 C601 1.389 . S
C603 C604 1.524 . S
C604 C603 1.524 . S
C604 C605 1.397 . S
C604 C609 1.363 . S
C605 H576 0.950 . S
C605 C604 1.397 . S
C605 C606 1.334 . S
C606 H577 0.950 . S
C606 C605 1.334 . S
C606 C607 1.287 . S
C607 C606 1.287 . S
C607 C608 1.524 . S
C607 H610 0.999 . S
C608 H578 0.950 . S
C608 C607 1.524 . S
C608 C609 1.415 . S
C609 H579 0.950 . S
C609 C604 1.363 . S
C609 C608 1.415 . S
H610 C607 0.999 . S
H611 C592 0.913 . S
H612 C630 0.951 . S
H613 C632 0.951 . S
H614 C634 0.950 . S
H615 C635 0.950 . S
H616 C637 0.950 . S
H617 C640 0.950 . S
H618 C641 0.950 . S
H619 C643 0.950 . S
H620 C644 0.950 . S
H621 C645 0.951 . S
H622 C647 0.951 . S
H623 C649 0.950 . S
H624 C650 0.950 . S
H625 C652 0.950 . S
H626 C655 0.950 . S
H627 C656 0.950 . S
H628 C658 0.950 . S
H629 C659 0.950 . S
C630 H612 0.951 . S
C630 C631 1.366 . S
C630 C632 1.388 . S
C631 C630 1.366 . S
C631 C635 1.385 . S
C632 H613 0.951 . S
C632 C630 1.388 . S
C632 C633 1.366 . S
C633 C632 1.366 . S
C633 C634 1.414 . S
C633 C636 1.499 . S
C634 H614 0.950 . S
C634 C633 1.414 . S
C634 C635 1.374 . S
C635 H615 0.950 . S
C635 C631 1.385 . S
C635 C634 1.374 . S
C636 C633 1.499 . S
C636 C637 1.373 . S
C636 C638 1.389 . S
C637 H616 0.950 . S
C637 C636 1.373 . S
C637 C653 1.377 . S
C638 C636 1.389 . S
C638 C639 1.524 . S
C638 C652 1.377 . S
C639 C638 1.524 . S
C639 C640 1.397 . S
C639 C644 1.363 . S
C640 H617 0.950 . S
C640 C639 1.397 . S
C640 C641 1.334 . S
C641 H618 0.950 . S
C641 C640 1.334 . S
C641 C642 1.287 . S
C642 C641 1.287 . S
C642 C643 1.524 . S
C642 H661 0.913 . S
C643 H619 0.950 . S
C643 C642 1.524 . S
C643 C644 1.415 . S
C644 H620 0.950 . S
C644 C639 1.363 . S
C644 C643 1.415 . S
C645 H621 0.951 . S
C645 C646 1.366 . S
C645 C647 1.388 . S
C646 C645 1.366 . S
C646 C650 1.385 . S
C647 H622 0.951 . S
C647 C645 1.388 . S
C647 C648 1.366 . S
C648 C647 1.366 . S
C648 C649 1.414 . S
C648 C651 1.499 . S
C649 H623 0.950 . S
C649 C648 1.414 . S
C649 C650 1.374 . S
C650 H624 0.950 . S
C650 C646 1.385 . S
C650 C649 1.374 . S
C651 C648 1.499 . S
C651 C652 1.373 . S
C651 C653 1.389 . S
C652 H625 0.950 . S
C652 C638 1.377 . S
C652 C651 1.373 . S
C653 C637 1.377 . S
C653 C651 1.389 . S
C653 C654 1.524 . S
C654 C653 1.524 . S
C654 C655 1.397 . S
C654 C659 1.363 . S
C655 H626 0.950 . S
C655 C654 1.397 . S
C655 C656 1.334 . S
C656 H627 0.950 . S
C656 C655 1.334 . S
C656 C657 1.287 . S
C657 C656 1.287 . S
C657 C658 1.524 . S
C657 H660 0.999 . S
C658 H628 0.950 . S
C658 C657 1.524 . S
C658 C659 1.415 . S
C659 H629 0.950 . S
C659 C654 1.363 . S
C659 C658 1.415 . S
H660 C657 0.999 . S
H661 C642 0.913 . S
H662 C680 0.951 . S
H663 C682 0.951 . S
H664 C684 0.950 . S
H665 C685 0.950 . S
H666 C687 0.950 . S
H667 C690 0.950 . S
H668 C691 0.950 . S
H669 C693 0.950 . S
H670 C694 0.950 . S
H671 C695 0.951 . S
H672 C697 0.951 . S
H673 C699 0.950 . S
H674 C700 0.950 . S
H675 C702 0.950 . S
H676 C705 0.950 . S
H677 C706 0.950 . S
H678 C708 0.950 . S
H679 C709 0.950 . S
C680 H662 0.951 . S
C680 C681 1.366 . S
C680 C682 1.388 . S
C681 C680 1.366 . S
C681 C685 1.385 . S
C682 H663 0.951 . S
C682 C680 1.388 . S
C682 C683 1.366 . S
C683 C682 1.366 . S
C683 C684 1.414 . S
C683 C686 1.499 . S
C684 H664 0.950 . S
C684 C683 1.414 . S
C684 C685 1.374 . S
C685 H665 0.950 . S
C685 C681 1.385 . S
C685 C684 1.374 . S
C686 C683 1.499 . S
C686 C687 1.373 . S
C686 C688 1.389 . S
C687 H666 0.950 . S
C687 C686 1.373 . S
C687 C703 1.377 . S
C688 C686 1.389 . S
C688 C689 1.524 . S
C688 C702 1.377 . S
C689 C688 1.524 . S
C689 C690 1.397 . S
C689 C694 1.363 . S
C690 H667 0.950 . S
C690 C689 1.397 . S
C690 C691 1.334 . S
C691 H668 0.950 . S
C691 C690 1.334 . S
C691 C692 1.287 . S
C692 C691 1.287 . S
C692 C693 1.524 . S
C692 H711 0.913 . S
C693 H669 0.950 . S
C693 C692 1.524 . S
C693 C694 1.415 . S
C694 H670 0.950 . S
C694 C689 1.363 . S
C694 C693 1.415 . S
C695 H671 0.951 . S
C695 C696 1.366 . S
C695 C697 1.388 . S
C696 C695 1.366 . S
C696 C700 1.385 . S
C697 H672 0.951 . S
C697 C695 1.388 . S
C697 C698 1.366 . S
C698 C697 1.366 . S
C698 C699 1.414 . S
C698 C701 1.499 . S
C699 H673 0.950 . S
C699 C698 1.414 . S
C699 C700 1.374 . S
C700 H674 0.950 . S
C700 C696 1.385 . S
C700 C699 1.374 . S
C701 C698 1.499 . S
C701 C702 1.373 . S
C701 C703 1.389 . S
C702 H675 0.950 . S
C702 C688 1.377 . S
C702 C701 1.373 . S
C703 C687 1.377 . S
C703 C701 1.389 . S
C703 C704 1.524 . S
C704 C703 1.524 . S
C704 C705 1.397 . S
C704 C709 1.363 . S
C705 H676 0.950 . S
C705 C704 1.397 . S
C705 C706 1.334 . S
C706 H677 0.950 . S
C706 C705 1.334 . S
C706 C707 1.287 . S
C707 C706 1.287 . S
C707 C708 1.524 . S
C707 H710 0.999 . S
C708 H678 0.950 . S
C708 C707 1.524 . S
C708 C709 1.415 . S
C709 H679 0.950 . S
C709 C704 1.363 . S
C709 C708 1.415 . S
H710 C707 0.999 . S
H711 C692 0.913 . S
H712 C730 0.951 . S
H713 C732 0.951 . S
H714 C734 0.950 . S
H715 C735 0.950 . S
H716 C737 0.950 . S
H717 C740 0.950 . S
H718 C741 0.950 . S
H719 C743 0.950 . S
H720 C744 0.950 . S
H721 C745 0.951 . S
H722 C747 0.951 . S
H723 C749 0.950 . S
H724 C750 0.950 . S
H725 C752 0.950 . S
H726 C755 0.950 . S
H727 C756 0.950 . S
H728 C758 0.950 . S
H729 C759 0.950 . S
C730 H712 0.951 . S
C730 C731 1.366 . S
C730 C732 1.388 . S
C731 C730 1.366 . S
C731 C735 1.385 . S
C732 H713 0.951 . S
C732 C730 1.388 . S
C732 C733 1.366 . S
C733 C732 1.366 . S
C733 C734 1.414 . S
C733 C736 1.499 . S
C734 H714 0.950 . S
C734 C733 1.414 . S
C734 C735 1.374 . S
C735 H715 0.950 . S
C735 C731 1.385 . S
C735 C734 1.374 . S
C736 C733 1.499 . S
C736 C737 1.373 . S
C736 C738 1.389 . S
C737 H716 0.950 . S
C737 C736 1.373 . S
C737 C753 1.377 . S
C738 C736 1.389 . S
C738 C739 1.524 . S
C738 C752 1.377 . S
C739 C738 1.524 . S
C739 C740 1.397 . S
C739 C744 1.363 . S
C740 H717 0.950 . S
C740 C739 1.397 . S
C740 C741 1.334 . S
C741 H718 0.950 . S
C741 C740 1.334 . S
C741 C742 1.287 . S
C742 C741 1.287 . S
C742 C743 1.524 . S
C742 H761 0.913 . S
C743 H719 0.950 . S
C743 C742 1.524 . S
C743 C744 1.415 . S
C744 H720 0.950 . S
C744 C739 1.363 . S
C744 C743 1.415 . S
C745 H721 0.951 . S
C745 C746 1.366 . S
C745 C747 1.388 . S
C746 C745 1.366 . S
C746 C750 1.385 . S
C747 H722 0.951 . S
C747 C745 1.388 . S
C747 C748 1.366 . S
C748 C747 1.366 . S
C748 C749 1.414 . S
C748 C751 1.499 . S
C749 H723 0.950 . S
C749 C748 1.414 . S
C749 C750 1.374 . S
C750 H724 0.950 . S
C750 C746 1.385 . S
C750 C749 1.374 . S
C751 C748 1.499 . S
C751 C752 1.373 . S
C751 C753 1.389 . S
C752 H725 0.950 . S
C752 C738 1.377 . S
C752 C751 1.373 . S
C753 C737 1.377 . S
C753 C751 1.389 . S
C753 C754 1.524 . S
C754 C753 1.524 . S
C754 C755 1.397 . S
C754 C759 1.363 . S
C755 H726 0.950 . S
C755 C754 1.397 . S
C755 C756 1.334 . S
C756 H727 0.950 . S
C756 C755 1.334 . S
C756 C757 1.287 . S
C757 C756 1.287 . S
C757 C758 1.524 . S
C757 H760 0.999 . S
C758 H728 0.950 . S
C758 C757 1.524 . S
C758 C759 1.415 . S
C759 H729 0.950 . S
C759 C754 1.363 . S
C759 C758 1.415 . S
H760 C757 0.999 . S
H761 C742 0.913 . S
H762 C780 0.951 . S
H763 C782 0.951 . S
H764 C784 0.950 . S
H765 C785 0.950 . S
H766 C787 0.950 . S
H767 C790 0.950 . S
H768 C791 0.950 . S
H769 C793 0.950 . S
H770 C794 0.950 . S
H771 C795 0.951 . S
H772 C797 0.951 . S
H773 C799 0.950 . S
H774 C800 0.950 . S
H775 C802 0.950 . S
H776 C805 0.950 . S
H777 C806 0.950 . S
H778 C808 0.950 . S
H779 C809 0.950 . S
C780 H762 0.951 . S
C780 C781 1.366 . S
C780 C782 1.388 . S
C781 C780 1.366 . S
C781 C785 1.385 . S
C782 H763 0.951 . S
C782 C780 1.388 . S
C782 C783 1.366 . S
C783 C782 1.366 . S
C783 C784 1.414 . S
C783 C786 1.499 . S
C784 H764 0.950 . S
C784 C783 1.414 . S
C784 C785 1.374 . S
C785 H765 0.950 . S
C785 C781 1.385 . S
C785 C784 1.374 . S
C786 C783 1.499 . S
C786 C787 1.373 . S
C786 C788 1.389 . S
C787 H766 0.950 . S
C787 C786 1.373 . S
C787 C803 1.377 . S
C788 C786 1.389 . S
C788 C789 1.524 . S
C788 C802 1.377 . S
C789 C788 1.524 . S
C789 C790 1.397 . S
C789 C794 1.363 . S
C790 H767 0.950 . S
C790 C789 1.397 . S
C790 C791 1.334 . S
C791 H768 0.950 . S
C791 C790 1.334 . S
C791 C792 1.287 . S
C792 C791 1.287 . S
C792 C793 1.524 . S
C792 H811 0.913 . S
C793 H769 0.950 . S
C793 C792 1.524 . S
C793 C794 1.415 . S
C794 H770 0.950 . S
C794 C789 1.363 . S
C794 C793 1.415 . S
C795 H771 0.951 . S
C795 C796 1.366 . S
C795 C797 1.388 . S
C796 C795 1.366 . S
C796 C800 1.385 . S
C797 H772 0.951 . S
C797 C795 1.388 . S
C797 C798 1.366 . S
C798 C797 1.366 . S
C798 C799 1.414 . S
C798 C801 1.499 . S
C799 H773 0.950 . S
C799 C798 1.414 . S
C799 C800 1.374 . S
C800 H774 0.950 . S
C800 C796 1.385 . S
C800 C799 1.374 . S
C801 C798 1.499 . S
C801 C802 1.373 . S
C801 C803 1.389 . S
C802 H775 0.950 . S
C802 C788 1.377 . S
C802 C801 1.373 . S
C803 C787 1.377 . S
C803 C801 1.389 . S
C803 C804 1.524 . S
C804 C803 1.524 . S
C804 C805 1.397 . S
C804 C809 1.363 . S
C805 H776 0.950 . S
C805 C804 1.397 . S
C805 C806 1.334 . S
C806 H777 0.950 . S
C806 C805 1.334 . S
C806 C807 1.287 . S
C807 C806 1.287 . S
C807 C808 1.524 . S
C807 H810 0.999 . S
C808 H778 0.950 . S
C808 C807 1.524 . S
C808 C809 1.415 . S
C809 H779 0.950 . S
C809 C804 1.363 . S
C809 C808 1.415 . S
H810 C807 0.999 . S
H811 C792 0.913 . S
H812 C830 0.951 . S
H813 C832 0.951 . S
H814 C834 0.950 . S
H815 C835 0.950 . S
H816 C837 0.950 . S
H817 C840 0.950 . S
H818 C841 0.950 . S
H819 C843 0.950 . S
H820 C844 0.950 . S
H821 C845 0.951 . S
H822 C847 0.951 . S
H823 C849 0.950 . S
H824 C850 0.950 . S
H825 C852 0.950 . S
H826 C855 0.950 . S
H827 C856 0.950 . S
H828 C858 0.950 . S
H829 C859 0.950 . S
C830 H812 0.951 . S
C830 C831 1.366 . S
C830 C832 1.388 . S
C831 C830 1.366 . S
C831 C835 1.385 . S
C832 H813 0.951 . S
C832 C830 1.388 . S
C832 C833 1.366 . S
C833 C832 1.366 . S
C833 C834 1.414 . S
C833 C836 1.499 . S
C834 H814 0.950 . S
C834 C833 1.414 . S
C834 C835 1.374 . S
C835 H815 0.950 . S
C835 C831 1.385 . S
C835 C834 1.374 . S
C836 C833 1.499 . S
C836 C837 1.373 . S
C836 C838 1.389 . S
C837 H816 0.950 . S
C837 C836 1.373 . S
C837 C853 1.377 . S
C838 C836 1.389 . S
C838 C839 1.524 . S
C838 C852 1.377 . S
C839 C838 1.524 . S
C839 C840 1.397 . S
C839 C844 1.363 . S
C840 H817 0.950 . S
C840 C839 1.397 . S
C840 C841 1.334 . S
C841 H818 0.950 . S
C841 C840 1.334 . S
C841 C842 1.287 . S
C842 C841 1.287 . S
C842 C843 1.524 . S
C842 H861 0.913 . S
C843 H819 0.950 . S
C843 C842 1.524 . S
C843 C844 1.415 . S
C844 H820 0.950 . S
C844 C839 1.363 . S
C844 C843 1.415 . S
C845 H821 0.951 . S
C845 C846 1.366 . S
C845 C847 1.388 . S
C846 C845 1.366 . S
C846 C850 1.385 . S
C847 H822 0.951 . S
C847 C845 1.388 . S
C847 C848 1.366 . S
C848 C847 1.366 . S
C848 C849 1.414 . S
C848 C851 1.499 . S
C849 H823 0.950 . S
C849 C848 1.414 . S
C849 C850 1.374 . S
C850 H824 0.950 . S
C850 C846 1.385 . S
C850 C849 1.374 . S
C851 C848 1.499 . S
C851 C852 1.373 . S
C851 C853 1.389 . S
C852 H825 0.950 . S
C852 C838 1.377 . S
C852 C851 1.373 . S
C853 C837 1.377 . S
C853 C851 1.389 . S
C853 C854 1.524 . S
C854 C853 1.524 . S
C854 C855 1.397 . S
C854 C859 1.363 . S
C855 H826 0.950 . S
C855 C854 1.397 . S
C855 C856 1.334 . S
C856 H827 0.950 . S
C856 C855 1.334 . S
C856 C857 1.287 . S
C857 C856 1.287 . S
C857 C858 1.524 . S
C857 H860 0.999 . S
C858 H828 0.950 . S
C858 C857 1.524 . S
C858 C859 1.415 . S
C859 H829 0.950 . S
C859 C854 1.363 . S
C859 C858 1.415 . S
H860 C857 0.999 . S
H861 C842 0.913 . S
H862 C880 0.951 . S
H863 C882 0.951 . S
H864 C884 0.950 . S
H865 C885 0.950 . S
H866 C887 0.950 . S
H867 C890 0.950 . S
H868 C891 0.950 . S
H869 C893 0.950 . S
H870 C894 0.950 . S
H871 C895 0.951 . S
H872 C897 0.951 . S
H873 C899 0.950 . S
H874 C900 0.950 . S
H875 C902 0.950 . S
H876 C905 0.950 . S
H877 C906 0.950 . S
H878 C908 0.950 . S
H879 C909 0.950 . S
C880 H862 0.951 . S
C880 C881 1.366 . S
C880 C882 1.388 . S
C881 C880 1.366 . S
C881 C885 1.385 . S
C882 H863 0.951 . S
C882 C880 1.388 . S
C882 C883 1.366 . S
C883 C882 1.366 . S
C883 C884 1.414 . S
C883 C886 1.499 . S
C884 H864 0.950 . S
C884 C883 1.414 . S
C884 C885 1.374 . S
C885 H865 0.950 . S
C885 C881 1.385 . S
C885 C884 1.374 . S
C886 C883 1.499 . S
C886 C887 1.373 . S
C886 C888 1.389 . S
C887 H866 0.950 . S
C887 C886 1.373 . S
C887 C903 1.377 . S
C888 C886 1.389 . S
C888 C889 1.524 . S
C888 C902 1.377 . S
C889 C888 1.524 . S
C889 C890 1.397 . S
C889 C894 1.363 . S
C890 H867 0.950 . S
C890 C889 1.397 . S
C890 C891 1.334 . S
C891 H868 0.950 . S
C891 C890 1.334 . S
C891 C892 1.287 . S
C892 C891 1.287 . S
C892 C893 1.524 . S
C892 H911 0.913 . S
C893 H869 0.950 . S
C893 C892 1.524 . S
C893 C894 1.415 . S
C894 H870 0.950 . S
C894 C889 1.363 . S
C894 C893 1.415 . S
C895 H871 0.951 . S
C895 C896 1.366 . S
C895 C897 1.388 . S
C896 C895 1.366 . S
C896 C900 1.385 . S
C897 H872 0.951 . S
C897 C895 1.388 . S
C897 C898 1.366 . S
C898 C897 1.366 . S
C898 C899 1.414 . S
C898 C901 1.499 . S
C899 H873 0.950 . S
C899 C898 1.414 . S
C899 C900 1.374 . S
C900 H874 0.950 . S
C900 C896 1.385 . S
C900 C899 1.374 . S
C901 C898 1.499 . S
C901 C902 1.373 . S
C901 C903 1.389 . S
C902 H875 0.950 . S
C902 C888 1.377 . S
C902 C901 1.373 . S
C903 C887 1.377 . S
C903 C901 1.389 . S
C903 C904 1.524 . S
C904 C903 1.524 . S
C904 C905 1.397 . S
C904 C909 1.363 . S
C905 H876 0.950 . S
C905 C904 1.397 . S
C905 C906 1.334 . S
C906 H877 0.950 . S
C906 C905 1.334 . S
C906 C907 1.287 . S
C907 C906 1.287 . S
C907 C908 1.524 . S
C907 H910 0.999 . S
C908 H878 0.950 . S
C908 C907 1.524 . S
C908 C909 1.415 . S
C909 H879 0.950 . S
C909 C904 1.363 . S
C909 C908 1.415 . S
H910 C907 0.999 . S
H911 C892 0.913 . S
H912 C930 0.951 . S
H913 C932 0.951 . S
H914 C934 0.950 . S
H915 C935 0.950 . S
H916 C937 0.950 . S
H917 C940 0.950 . S
H918 C941 0.950 . S
H919 C943 0.950 . S
H920 C944 0.950 . S
H921 C945 0.951 . S
H922 C947 0.951 . S
H923 C949 0.950 . S
H924 C950 0.950 . S
H925 C952 0.950 . S
H926 C955 0.950 . S
H927 C956 0.950 . S
H928 C958 0.950 . S
H929 C959 0.950 . S
C930 H912 0.951 . S
C930 C931 1.366 . S
C930 C932 1.388 . S
C931 C930 1.366 . S
C931 C935 1.385 . S
C932 H913 0.951 . S
C932 C930 1.388 . S
C932 C933 1.366 . S
C933 C932 1.366 . S
C933 C934 1.414 . S
C933 C936 1.499 . S
C934 H914 0.950 . S
C934 C933 1.414 . S
C934 C935 1.374 . S
C935 H915 0.950 . S
C935 C931 1.385 . S
C935 C934 1.374 . S
C936 C933 1.499 . S
C936 C937 1.373 . S
C936 C938 1.389 . S
C937 H916 0.950 . S
C937 C936 1.373 . S
C937 C953 1.377 . S
C938 C936 1.389 . S
C938 C939 1.524 . S
C938 C952 1.377 . S
C939 C938 1.524 . S
C939 C940 1.397 . S
C939 C944 1.363 . S
C940 H917 0.950 . S
C940 C939 1.397 . S
C940 C941 1.334 . S
C941 H918 0.950 . S
C941 C940 1.334 . S
C941 C942 1.287 . S
C942 C941 1.287 . S
C942 C943 1.524 . S
C942 H961 0.913 . S
C943 H919 0.950 . S
C943 C942 1.524 . S
C943 C944 1.415 . S
C944 H920 0.950 . S
C944 C939 1.363 . S
C944 C943 1.415 . S
C945 H921 0.951 . S
C945 C946 1.366 . S
C945 C947 1.388 . S
C946 C945 1.366 . S
C946 C950 1.385 . S
C947 H922 0.951 . S
C947 C945 1.388 . S
C947 C948 1.366 . S
C948 C947 1.366 . S
C948 C949 1.414 . S
C948 C951 1.499 . S
C949 H923 0.950 . S
C949 C948 1.414 . S
C949 C950 1.374 . S
C950 H924 0.950 . S
C950 C946 1.385 . S
C950 C949 1.374 . S
C951 C948 1.499 . S
C951 C952 1.373 . S
C951 C953 1.389 . S
C952 H925 0.950 . S
C952 C938 1.377 . S
C952 C951 1.373 . S
C953 C937 1.377 . S
C953 C951 1.389 . S
C953 C954 1.524 . S
C954 C953 1.524 . S
C954 C955 1.397 . S
C954 C959 1.363 . S
C955 H926 0.950 . S
C955 C954 1.397 . S
C955 C956 1.334 . S
C956 H927 0.950 . S
C956 C955 1.334 . S
C956 C957 1.287 . S
C957 C956 1.287 . S
C957 C958 1.524 . S
C957 H960 0.999 . S
C958 H928 0.950 . S
C958 C957 1.524 . S
C958 C959 1.415 . S
C959 H929 0.950 . S
C959 C954 1.363 . S
C959 C958 1.415 . S
H960 C957 0.999 . S
H961 C942 0.913 . S
H962 C980 0.951 . S
H963 C982 0.951 . S
H964 C984 0.950 . S
H965 C985 0.950 . S
H966 C987 0.950 . S
H967 C990 0.950 . S
H968 C991 0.950 . S
H969 C993 0.950 . S
H970 C994 0.950 . S
H971 C995 0.951 . S
H972 C997 0.951 . S
H973 C999 0.950 . S
H974 C1000 0.950 . S
H975 C1002 0.950 . S
H976 C1005 0.950 . S
H977 C1006 0.950 . S
H978 C1008 0.950 . S
H979 C1009 0.950 . S
C980 H962 0.951 . S
C980 C981 1.366 . S
C980 C982 1.388 . S
C981 C980 1.366 . S
C981 C985 1.385 . S
C982 H963 0.951 . S
C982 C980 1.388 . S
C982 C983 1.366 . S
C983 C982 1.366 . S
C983 C984 1.414 . S
C983 C986 1.499 . S
C984 H964 0.950 . S
C984 C983 1.414 . S
C984 C985 1.374 . S
C985 H965 0.950 . S
C985 C981 1.385 . S
C985 C984 1.374 . S
C986 C983 1.499 . S
C986 C987 1.373 . S
C986 C988 1.389 . S
C987 H966 0.950 . S
C987 C986 1.373 . S
C987 C1003 1.377 . S
C988 C986 1.389 . S
C988 C989 1.524 . S
C988 C1002 1.377 . S
C989 C988 1.524 . S
C989 C990 1.397 . S
C989 C994 1.363 . S
C990 H967 0.950 . S
C990 C989 1.397 . S
C990 C991 1.334 . S
C991 H968 0.950 . S
C991 C990 1.334 . S
C991 C992 1.287 . S
C992 C991 1.287 . S
C992 C993 1.524 . S
C992 H1011 0.913 . S
C993 H969 0.950 . S
C993 C992 1.524 . S
C993 C994 1.415 . S
C994 H970 0.950 . S
C994 C989 1.363 . S
C994 C993 1.415 . S
C995 H971 0.951 . S
C995 C996 1.366 . S
C995 C997 1.388 . S
C996 C995 1.366 . S
C996 C1000 1.385 . S
C997 H972 0.951 . S
C997 C995 1.388 . S
C997 C998 1.366 . S
C998 C997 1.366 . S
C998 C999 1.414 . S
C998 C1001 1.499 . S
C999 H973 0.950 . S
C999 C998 1.414 . S
C999 C1000 1.374 . S
C1000 H974 0.950 . S
C1000 C996 1.385 . S
C1000 C999 1.374 . S
C1001 C998 1.499 . S
C1001 C1002 1.373 . S
C1001 C1003 1.389 . S
C1002 H975 0.950 . S
C1002 C988 1.377 . S
C1002 C1001 1.373 . S
C1003 C987 1.377 . S
C1003 C1001 1.389 . S
C1003 C1004 1.524 . S
C1004 C1003 1.524 . S
C1004 C1005 1.397 . S
C1004 C1009 1.363 . S
C1005 H976 0.950 . S
C1005 C1004 1.397 . S
C1005 C1006 1.334 . S
C1006 H977 0.950 . S
C1006 C1005 1.334 . S
C1006 C1007 1.287 . S
C1007 C1006 1.287 . S
C1007 C1008 1.524 . S
C1007 H1010 0.999 . S
C1008 H978 0.950 . S
C1008 C1007 1.524 . S
C1008 C1009 1.415 . S
C1009 H979 0.950 . S
C1009 C1004 1.363 . S
C1009 C1008 1.415 . S
H1010 C1007 0.999 . S
H1011 C992 0.913 . S
H1012 C1030 0.951 . S
H1013 C1032 0.951 . S
H1014 C1034 0.950 . S
H1015 C1035 0.950 . S
H1016 C1037 0.950 . S
H1017 C1040 0.950 . S
H1018 C1041 0.950 . S
H1019 C1043 0.950 . S
H1020 C1044 0.950 . S
H1021 C1045 0.951 . S
H1022 C1047 0.951 . S
H1023 C1049 0.950 . S
H1024 C1050 0.950 . S
H1025 C1052 0.950 . S
H1026 C1055 0.950 . S
H1027 C1056 0.950 . S
H1028 C1058 0.950 . S
H1029 C1059 0.950 . S
C1030 H1012 0.951 . S
C1030 C1031 1.366 . S
C1030 C1032 1.388 . S
C1031 C1030 1.366 . S
C1031 C1035 1.385 . S
C1032 H1013 0.951 . S
C1032 C1030 1.388 . S
C1032 C1033 1.366 . S
C1033 C1032 1.366 . S
C1033 C1034 1.414 . S
C1033 C1036 1.499 . S
C1034 H1014 0.950 . S
C1034 C1033 1.414 . S
C1034 C1035 1.374 . S
C1035 H1015 0.950 . S
C1035 C1031 1.385 . S
C1035 C1034 1.374 . S
C1036 C1033 1.499 . S
C1036 C1037 1.373 . S
C1036 C1038 1.389 . S
C1037 H1016 0.950 . S
C1037 C1036 1.373 . S
C1037 C1053 1.377 . S
C1038 C1036 1.389 . S
C1038 C1039 1.524 . S
C1038 C1052 1.377 . S
C1039 C1038 1.524 . S
C1039 C1040 1.397 . S
C1039 C1044 1.363 . S
C1040 H1017 0.950 . S
C1040 C1039 1.397 . S
C1040 C1041 1.334 . S
C1041 H1018 0.950 . S
C1041 C1040 1.334 . S
C1041 C1042 1.287 . S
C1042 C1041 1.287 . S
C1042 C1043 1.524 . S
C1042 H1061 0.913 . S
C1043 H1019 0.950 . S
C1043 C1042 1.524 . S
C1043 C1044 1.415 . S
C1044 H1020 0.950 . S
C1044 C1039 1.363 . S
C1044 C1043 1.415 . S
C1045 H1021 0.951 . S
C1045 C1046 1.366 . S
C1045 C1047 1.388 . S
C1046 C1045 1.366 . S
C1046 C1050 1.385 . S
C1047 H1022 0.951 . S
C1047 C1045 1.388 . S
C1047 C1048 1.366 . S
C1048 C1047 1.366 . S
C1048 C1049 1.414 . S
C1048 C1051 1.499 . S
C1049 H1023 0.950 . S
C1049 C1048 1.414 . S
C1049 C1050 1.374 . S
C1050 H1024 0.950 . S
C1050 C1046 1.385 . S
C1050 C1049 1.374 . S
C1051 C1048 1.499 . S
C1051 C1052 1.373 . S
C1051 C1053 1.389 . S
C1052 H1025 0.950 . S
C1052 C1038 1.377 . S
C1052 C1051 1.373 . S
C1053 C1037 1.377 . S
C1053 C1051 1.389 . S
C1053 C1054 1.524 . S
C1054 C1053 1.524 . S
C1054 C1055 1.397 . S
C1054 C1059 1.363 . S
C1055 H1026 0.950 . S
C1055 C1054 1.397 . S
C1055 C1056 1.334 . S
C1056 H1027 0.950 . S
C1056 C1055 1.334 . S
C1056 C1057 1.287 . S
C1057 C1056 1.287 . S
C1057 C1058 1.524 . S
C1057 H1060 0.999 . S
C1058 H1028 0.950 . S
C1058 C1057 1.524 . S
C1058 C1059 1.415 . S
C1059 H1029 0.950 . S
C1059 C1054 1.363 . S
C1059 C1058 1.415 . S
H1060 C1057 0.999 . S
H1061 C1042 0.913 . S
H1062 C1080 0.951 . S
H1063 C1082 0.951 . S
H1064 C1084 0.950 . S
H1065 C1085 0.950 . S
H1066 C1087 0.950 . S
H1067 C1090 0.950 . S
H1068 C1091 0.950 . S
H1069 C1093 0.950 . S
H1070 C1094 0.950 . S
H1071 C1095 0.951 . S
H1072 C1097 0.951 . S
H1073 C1099 0.950 . S
H1074 C1100 0.950 . S
H1075 C1102 0.950 . S
H1076 C1105 0.950 . S
H1077 C1106 0.950 . S
H1078 C1108 0.950 . S
H1079 C1109 0.950 . S
C1080 H1062 0.951 . S
C1080 C1081 1.366 . S
C1080 C1082 1.388 . S
C1081 C1080 1.366 . S
C1081 C1085 1.385 . S
C1082 H1063 0.951 . S
C1082 C1080 1.388 . S
C1082 C1083 1.366 . S
C1083 C1082 1.366 . S
C1083 C1084 1.414 . S
C1083 C1086 1.499 . S
C1084 H1064 0.950 . S
C1084 C1083 1.414 . S
C1084 C1085 1.374 . S
C1085 H1065 0.950 . S
C1085 C1081 1.385 . S
C1085 C1084 1.374 . S
C1086 C1083 1.499 . S
C1086 C1087 1.373 . S
C1086 C1088 1.389 . S
C1087 H1066 0.950 . S
C1087 C1086 1.373 . S
C1087 C1103 1.377 . S
C1088 C1086 1.389 . S
C1088 C1089 1.524 . S
C1088 C1102 1.377 . S
C1089 C1088 1.524 . S
C1089 C1090 1.397 . S
C1089 C1094 1.363 . S
C1090 H1067 0.950 . S
C1090 C1089 1.397 . S
C1090 C1091 1.334 . S
C1091 H1068 0.950 . S
C1091 C1090 1.334 . S
C1091 C1092 1.287 . S
C1092 C1091 1.287 . S
C1092 C1093 1.524 . S
C1092 H1111 0.913 . S
C1093 H1069 0.950 . S
C1093 C1092 1.524 . S
C1093 C1094 1.415 . S
C1094 H1070 0.950 . S
C1094 C1089 1.363 . S
C1094 C1093 1.415 . S
C1095 H1071 0.951 . S
C1095 C1096 1.366 . S
C1095 C1097 1.388 . S
C1096 C1095 1.366 . S
C1096 C1100 1.385 . S
C1097 H1072 0.951 . S
C1097 C1095 1.388 . S
C1097 C1098 1.366 . S
C1098 C1097 1.366 . S
C1098 C1099 1.414 . S
C1098 C1101 1.499 . S
C1099 H1073 0.950 . S
C1099 C1098 1.414 . S
C1099 C1100 1.374 . S
C1100 H1074 0.950 . S
C1100 C1096 1.385 . S
C1100 C1099 1.374 . S
C1101 C1098 1.499 . S
C1101 C1102 1.373 . S
C1101 C1103 1.389 . S
C1102 H1075 0.950 . S
C1102 C1088 1.377 . S
C1102 C1101 1.373 . S
C1103 C1087 1.377 . S
C1103 C1101 1.389 . S
C1103 C1104 1.524 . S
C1104 C1103 1.524 . S
C1104 C1105 1.397 . S
C1104 C1109 1.363 . S
C1105 H1076 0.950 . S
C1105 C1104 1.397 . S
C1105 C1106 1.334 . S
C1106 H1077 0.950 . S
C1106 C1105 1.334 . S
C1106 C1107 1.287 . S
C1107 C1106 1.287 . S
C1107 C1108 1.524 . S
C1107 H1110 0.999 . S
C1108 H1078 0.950 . S
C1108 C1107 1.524 . S
C1108 C1109 1.415 . S
C1109 H1079 0.950 . S
C1109 C1104 1.363 . S
C1109 C1108 1.415 . S
H1110 C1107 0.999 . S
H1111 C1092 0.913 . S
H1112 C1130 0.951 . S
H1113 C1132 0.951 . S
H1114 C1134 0.950 . S
H1115 C1135 0.950 . S
H1116 C1137 0.950 . S
H1117 C1140 0.950 . S
H1118 C1141 0.950 . S
H1119 C1143 0.950 . S
H1120 C1144 0.950 . S
H1121 C1145 0.951 . S
H1122 C1147 0.951 . S
H1123 C1149 0.950 . S
H1124 C1150 0.950 . S
H1125 C1152 0.950 . S
H1126 C1155 0.950 . S
H1127 C1156 0.950 . S
H1128 C1158 0.950 . S
H1129 C1159 0.950 . S
C1130 H1112 0.951 . S
C1130 C1131 1.366 . S
C1130 C1132 1.388 . S
C1131 C1130 1.366 . S
C1131 C1135 1.385 . S
C1132 H1113 0.951 . S
C1132 C1130 1.388 . S
C1132 C1133 1.366 . S
C1133 C1132 1.366 . S
C1133 C1134 1.414 . S
C1133 C1136 1.499 . S
C1134 H1114 0.950 . S
C1134 C1133 1.414 . S
C1134 C1135 1.374 . S
C1135 H1115 0.950 . S
C1135 C1131 1.385 . S
C1135 C1134 1.374 . S
C1136 C1133 1.499 . S
C1136 C1137 1.373 . S
C1136 C1138 1.389 . S
C1137 H1116 0.950 . S
C1137 C1136 1.373 . S
C1137 C1153 1.377 . S
C1138 C1136 1.389 . S
C1138 C1139 1.524 . S
C1138 C1152 1.377 . S
C1139 C1138 1.524 . S
C1139 C1140 1.397 . S
C1139 C1144 1.363 . S
C1140 H1117 0.950 . S
C1140 C1139 1.397 . S
C1140 C1141 1.334 . S
C1141 H1118 0.950 . S
C1141 C1140 1.334 . S
C1141 C1142 1.287 . S
C1142 C1141 1.287 . S
C1142 C1143 1.524 . S
C1142 H1161 0.913 . S
C1143 H1119 0.950 . S
C1143 C1142 1.524 . S
C1143 C1144 1.415 . S
C1144 H1120 0.950 . S
C1144 C1139 1.363 . S
C1144 C1143 1.415 . S
C1145 H1121 0.951 . S
C1145 C1146 1.366 . S
C1145 C1147 1.388 . S
C1146 C1145 1.366 . S
C1146 C1150 1.385 . S
C1147 H1122 0.951 . S
C1147 C1145 1.388 . S
C1147 C1148 1.366 . S
C1148 C1147 1.366 . S
C1148 C1149 1.414 . S
C1148 C1151 1.499 . S
C1149 H1123 0.950 . S
C1149 C1148 1.414 . S
C1149 C1150 1.374 . S
C1150 H1124 0.950 . S
C1150 C1146 1.385 . S
C1150 C1149 1.374 . S
C1151 C1148 1.499 . S
C1151 C1152 1.373 . S
C1151 C1153 1.389 . S
C1152 H1125 0.950 . S
C1152 C1138 1.377 . S
C1152 C1151 1.373 . S
C1153 C1137 1.377 . S
C1153 C1151 1.389 . S
C1153 C1154 1.524 . S
C1154 C1153 1.524 . S
C1154 C1155 1.397 . S
C1154 C1159 1.363 . S
C1155 H1126 0.950 . S
C1155 C1154 1.397 . S
C1155 C1156 1.334 . S
C1156 H1127 0.950 . S
C1156 C1155 1.334 . S
C1156 C1157 1.287 . S
C1157 C1156 1.287 . S
C1157 C1158 1.524 . S
C1157 H1160 0.999 . S
C1158 H1128 0.950 . S
C1158 C1157 1.524 . S
C1158 C1159 1.415 . S
C1159 H1129 0.950 . S
C1159 C1154 1.363 . S
C1159 C1158 1.415 . S
H1160 C1157 0.999 . S
H1161 C1142 0.913 . S
H1162 C1180 0.951 . S
H1163 C1182 0.951 . S
H1164 C1184 0.950 . S
H1165 C1185 0.950 . S
H1166 C1187 0.950 . S
H1167 C1190 0.950 . S
H1168 C1191 0.950 . S
H1169 C1193 0.950 . S
H1170 C1194 0.950 . S
H1171 C1195 0.951 . S
H1172 C1197 0.951 . S
H1173 C1199 0.950 . S
H1174 C1200 0.950 . S
H1175 C1202 0.950 . S
H1176 C1205 0.950 . S
H1177 C1206 0.950 . S
H1178 C1208 0.950 . S
H1179 C1209 0.950 . S
C1180 H1162 0.951 . S
C1180 C1181 1.366 . S
C1180 C1182 1.388 . S
C1181 C1180 1.366 . S
C1181 C1185 1.385 . S
C1182 H1163 0.951 . S
C1182 C1180 1.388 . S
C1182 C1183 1.366 . S
C1183 C1182 1.366 . S
C1183 C1184 1.414 . S
C1183 C1186 1.499 . S
C1184 H1164 0.950 . S
C1184 C1183 1.414 . S
C1184 C1185 1.374 . S
C1185 H1165 0.950 . S
C1185 C1181 1.385 . S
C1185 C1184 1.374 . S
C1186 C1183 1.499 . S
C1186 C1187 1.373 . S
C1186 C1188 1.389 . S
C1187 H1166 0.950 . S
C1187 C1186 1.373 . S
C1187 C1203 1.377 . S
C1188 C1186 1.389 . S
C1188 C1189 1.524 . S
C1188 C1202 1.377 . S
C1189 C1188 1.524 . S
C1189 C1190 1.397 . S
C1189 C1194 1.363 . S
C1190 H1167 0.950 . S
C1190 C1189 1.397 . S
C1190 C1191 1.334 . S
C1191 H1168 0.950 . S
C1191 C1190 1.334 . S
C1191 C1192 1.287 . S
C1192 C1191 1.287 . S
C1192 C1193 1.524 . S
C1192 H1211 0.913 . S
C1193 H1169 0.950 . S
C1193 C1192 1.524 . S
C1193 C1194 1.415 . S
C1194 H1170 0.950 . S
C1194 C1189 1.363 . S
C1194 C1193 1.415 . S
C1195 H1171 0.951 . S
C1195 C1196 1.366 . S
C1195 C1197 1.388 . S
C1196 C1195 1.366 . S
C1196 C1200 1.385 . S
C1197 H1172 0.951 . S
C1197 C1195 1.388 . S
C1197 C1198 1.366 . S
C1198 C1197 1.366 . S
C1198 C1199 1.414 . S
C1198 C1201 1.499 . S
C1199 H1173 0.950 . S
C1199 C1198 1.414 . S
C1199 C1200 1.374 . S
C1200 H1174 0.950 . S
C1200 C1196 1.385 . S
C1200 C1199 1.374 . S
C1201 C1198 1.499 . S
C1201 C1202 1.373 . S
C1201 C1203 1.389 . S
C1202 H1175 0.950 . S
C1202 C1188 1.377 . S
C1202 C1201 1.373 . S
C1203 C1187 1.377 . S
C1203 C1201 1.389 . S
C1203 C1204 1.524 . S
C1204 C1203 1.524 . S
C1204 C1205 1.397 . S
C1204 C1209 1.363 . S
C1205 H1176 0.950 . S
C1205 C1204 1.397 . S
C1205 C1206 1.334 . S
C1206 H1177 0.950 . S
C1206 C1205 1.334 . S
C1206 C1207 1.287 . S
C1207 C1206 1.287 . S
C1207 C1208 1.524 . S
C1207 H1210 0.999 . S
C1208 H1178 0.950 . S
C1208 C1207 1.524 . S
C1208 C1209 1.415 . S
C1209 H1179 0.950 . S
C1209 C1204 1.363 . S
C1209 C1208 1.415 . S
H1210 C1207 0.999 . S
H1211 C1192 0.913 . S
H1212 C1230 0.951 . S
H1213 C1232 0.951 . S
H1214 C1234 0.950 . S
H1215 C1235 0.950 . S
H1216 C1237 0.950 . S
H1217 C1240 0.950 . S
H1218 C1241 0.950 . S
H1219 C1243 0.950 . S
H1220 C1244 0.950 . S
H1221 C1245 0.951 . S
H1222 C1247 0.951 . S
H1223 C1249 0.950 . S
H1224 C1250 0.950 . S
H1225 C1252 0.950 . S
H1226 C1255 0.950 . S
H1227 C1256 0.950 . S
H1228 C1258 0.950 . S
H1229 C1259 0.950 . S
C1230 H1212 0.951 . S
C1230 C1231 1.366 . S
C1230 C1232 1.388 . S
C1231 C1230 1.366 . S
C1231 C1235 1.385 . S
C1232 H1213 0.951 . S
C1232 C1230 1.388 . S
C1232 C1233 1.366 . S
C1233 C1232 1.366 . S
C1233 C1234 1.414 . S
C1233 C1236 1.499 . S
C1234 H1214 0.950 . S
C1234 C1233 1.414 . S
C1234 C1235 1.374 . S
C1235 H1215 0.950 . S
C1235 C1231 1.385 . S
C1235 C1234 1.374 . S
C1236 C1233 1.499 . S
C1236 C1237 1.373 . S
C1236 C1238 1.389 . S
C1237 H1216 0.950 . S
C1237 C1236 1.373 . S
C1237 C1253 1.377 . S
C1238 C1236 1.389 . S
C1238 C1239 1.524 . S
C1238 C1252 1.377 . S
C1239 C1238 1.524 . S
C1239 C1240 1.397 . S
C1239 C1244 1.363 . S
C1240 H1217 0.950 . S
C1240 C1239 1.397 . S
C1240 C1241 1.334 . S
C1241 H1218 0.950 . S
C1241 C1240 1.334 . S
C1241 C1242 1.287 . S
C1242 C1241 1.287 . S
C1242 C1243 1.524 . S
C1242 H1261 0.913 . S
C1243 H1219 0.950 . S
C1243 C1242 1.524 . S
C1243 C1244 1.415 . S
C1244 H1220 0.950 . S
C1244 C1239 1.363 . S
C1244 C1243 1.415 . S
C1245 H1221 0.951 . S
C1245 C1246 1.366 . S
C1245 C1247 1.388 . S
C1246 C1245 1.366 . S
C1246 C1250 1.385 . S
C1247 H1222 0.951 . S
C1247 C1245 1.388 . S
C1247 C1248 1.366 . S
C1248 C1247 1.366 . S
C1248 C1249 1.414 . S
C1248 C1251 1.499 . S
C1249 H1223 0.950 . S
C1249 C1248 1.414 . S
C1249 C1250 1.374 . S
C1250 H1224 0.950 . S
C1250 C1246 1.385 . S
C1250 C1249 1.374 . S
C1251 C1248 1.499 . S
C1251 C1252 1.373 . S
C1251 C1253 1.389 . S
C1252 H1225 0.950 . S
C1252 C1238 1.377 . S
C1252 C1251 1.373 . S
C1253 C1237 1.377 . S
C1253 C1251 1.389 . S
C1253 C1254 1.524 . S
C1254 C1253 1.524 . S
C1254 C1255 1.397 . S
C1254 C1259 1.363 . S
C1255 H1226 0.950 . S
C1255 C1254 1.397 . S
C1255 C1256 1.334 . S
C1256 H1227 0.950 . S
C1256 C1255 1.334 . S
C1256 C1257 1.287 . S
C1257 C1256 1.287 . S
C1257 C1258 1.524 . S
C1257 H1260 0.999 . S
C1258 H1228 0.950 . S
C1258 C1257 1.524 . S
C1258 C1259 1.415 . S
C1259 H1229 0.950 . S
C1259 C1254 1.363 . S
C1259 C1258 1.415 . S
H1260 C1257 0.999 . S
H1261 C1242 0.913 . S
H1262 C1280 0.951 . S
H1263 C1282 0.951 . S
H1264 C1284 0.950 . S
H1265 C1285 0.950 . S
H1266 C1287 0.950 . S
H1267 C1290 0.950 . S
H1268 C1291 0.950 . S
H1269 C1293 0.950 . S
H1270 C1294 0.950 . S
H1271 C1295 0.951 . S
H1272 C1297 0.951 . S
H1273 C1299 0.950 . S
H1274 C1300 0.950 . S
H1275 C1302 0.950 . S
H1276 C1305 0.950 . S
H1277 C1306 0.950 . S
H1278 C1308 0.950 . S
H1279 C1309 0.950 . S
C1280 H1262 0.951 . S
C1280 C1281 1.366 . S
C1280 C1282 1.388 . S
C1281 C1280 1.366 . S
C1281 C1285 1.385 . S
C1282 H1263 0.951 . S
C1282 C1280 1.388 . S
C1282 C1283 1.366 . S
C1283 C1282 1.366 . S
C1283 C1284 1.414 . S
C1283 C1286 1.499 . S
C1284 H1264 0.950 . S
C1284 C1283 1.414 . S
C1284 C1285 1.374 . S
C1285 H1265 0.950 . S
C1285 C1281 1.385 . S
C1285 C1284 1.374 . S
C1286 C1283 1.499 . S
C1286 C1287 1.373 . S
C1286 C1288 1.389 . S
C1287 H1266 0.950 . S
C1287 C1286 1.373 . S
C1287 C1303 1.377 . S
C1288 C1286 1.389 . S
C1288 C1289 1.524 . S
C1288 C1302 1.377 . S
C1289 C1288 1.524 . S
C1289 C1290 1.397 . S
C1289 C1294 1.363 . S
C1290 H1267 0.950 . S
C1290 C1289 1.397 . S
C1290 C1291 1.334 . S
C1291 H1268 0.950 . S
C1291 C1290 1.334 . S
C1291 C1292 1.287 . S
C1292 C1291 1.287 . S
C1292 C1293 1.524 . S
C1292 H1311 0.913 . S
C1293 H1269 0.950 . S
C1293 C1292 1.524 . S
C1293 C1294 1.415 . S
C1294 H1270 0.950 . S
C1294 C1289 1.363 . S
C1294 C1293 1.415 . S
C1295 H1271 0.951 . S
C1295 C1296 1.366 . S
C1295 C1297 1.388 . S
C1296 C1295 1.366 . S
C1296 C1300 1.385 . S
C1297 H1272 0.951 . S
C1297 C1295 1.388 . S
C1297 C1298 1.366 . S
C1298 C1297 1.366 . S
C1298 C1299 1.414 . S
C1298 C1301 1.499 . S
C1299 H1273 0.950 . S
C1299 C1298 1.414 . S
C1299 C1300 1.374 . S
C1300 H1274 0.950 . S
C1300 C1296 1.385 . S
C1300 C1299 1.374 . S
C1301 C1298 1.499 . S
C1301 C1302 1.373 . S
C1301 C1303 1.389 . S
C1302 H1275 0.950 . S
C1302 C1288 1.377 . S
C1302 C1301 1.373 . S
C1303 C1287 1.377 . S
C1303 C1301 1.389 . S
C1303 C1304 1.524 . S
C1304 C1303 1.524 . S
C1304 C1305 1.397 . S
C1304 C1309 1.363 . S
C1305 H1276 0.950 . S
C1305 C1304 1.397 . S
C1305 C1306 1.334 . S
C1306 H1277 0.950 . S
C1306 C1305 1.334 . S
C1306 C1307 1.287 . S
C1307 C1306 1.287 . S
C1307 C1308 1.524 . S
C1307 H1310 0.999 . S
C1308 H1278 0.950 . S
C1308 C1307 1.524 . S
C1308 C1309 1.415 . S
C1309 H1279 0.950 . S
C1309 C1304 1.363 . S
C1309 C1308 1.415 . S
H1310 C1307 0.999 . S
H1311 C1292 0.913 . S
H1312 C1330 0.951 . S
H1313 C1332 0.951 . S
H1314 C1334 0.950 . S
H1315 C1335 0.950 . S
H1316 C1337 0.950 . S
H1317 C1340 0.950 . S
H1318 C1341 0.950 . S
H1319 C1343 0.950 . S
H1320 C1344 0.950 . S
H1321 C1345 0.951 . S
H1322 C1347 0.951 . S
H1323 C1349 0.950 . S
H1324 C1350 0.950 . S
H1325 C1352 0.950 . S
H1326 C1355 0.950 . S
H1327 C1356 0.950 . S
H1328 C1358 0.950 . S
H1329 C1359 0.950 . S
C1330 H1312 0.951 . S
C1330 C1331 1.366 . S
C1330 C1332 1.388 . S
C1331 C1330 1.366 . S
C1331 C1335 1.385 . S
C1332 H1313 0.951 . S
C1332 C1330 1.388 . S
C1332 C1333 1.366 . S
C1333 C1332 1.366 . S
C1333 C1334 1.414 . S
C1333 C1336 1.499 . S
C1334 H1314 0.950 . S
C1334 C1333 1.414 . S
C1334 C1335 1.374 . S
C1335 H1315 0.950 . S
C1335 C1331 1.385 . S
C1335 C1334 1.374 . S
C1336 C1333 1.499 . S
C1336 C1337 1.373 . S
C1336 C1338 1.389 . S
C1337 H1316 0.950 . S
C1337 C1336 1.373 . S
C1337 C1353 1.377 . S
C1338 C1336 1.389 . S
C1338 C1339 1.524 . S
C1338 C1352 1.377 . S
C1339 C1338 1.524 . S
C1339 C1340 1.397 . S
C1339 C1344 1.363 . S
C1340 H1317 0.950 . S
C1340 C1339 1.397 . S
C1340 C1341 1.334 . S
C1341 H1318 0.950 . S
C1341 C1340 1.334 . S
C1341 C1342 1.287 . S
C1342 C1341 1.287 . S
C1342 C1343 1.524 . S
C1342 H1361 0.913 . S
C1343 H1319 0.950 . S
C1343 C1342 1.524 . S
C1343 C1344 1.415 . S
C1344 H1320 0.950 . S
C1344 C1339 1.363 . S
C1344 C1343 1.415 . S
C1345 H1321 0.951 . S
C1345 C1346 1.366 . S
C1345 C1347 1.388 . S
C1346 C1345 1.366 . S
C1346 C1350 1.385 . S
C1347 H1322 0.951 . S
C1347 C1345 1.388 . S
C1347 C1348 1.366 . S
C1348 C1347 1.366 . S
C1348 C1349 1.414 . S
C1348 C1351 1.499 . S
C1349 H1323 0.950 . S
C1349 C1348 1.414 . S
C1349 C1350 1.374 . S
C1350 H1324 0.950 . S
C1350 C1346 1.385 . S
C1350 C1349 1.374 . S
C1351 C1348 1.499 . S
C1351 C1352 1.373 . S
C1351 C1353 1.389 . S
C1352 H1325 0.950 . S
C1352 C1338 1.377 . S
C1352 C1351 1.373 . S
C1353 C1337 1.377 . S
C1353 C1351 1.389 . S
C1353 C1354 1.524 . S
C1354 C1353 1.524 . S
C1354 C1355 1.397 . S
C1354 C1359 1.363 . S
C1355 H1326 0.950 . S
C1355 C1354 1.397 . S
C1355 C1356 1.334 . S
C1356 H1327 0.950 . S
C1356 C1355 1.334 . S
C1356 C1357 1.287 . S
C1357 C1356 1.287 . S
C1357 C1358 1.524 . S
C1357 H1360 0.999 . S
C1358 H1328 0.950 . S
C1358 C1357 1.524 . S
C1358 C1359 1.415 . S
C1359 H1329 0.950 . S
C1359 C1354 1.363 . S
C1359 C1358 1.415 . S
H1360 C1357 0.999 . S
H1361 C1342 0.913 . S
H1362 C1380 0.951 . S
H1363 C1382 0.951 . S
H1364 C1384 0.950 . S
H1365 C1385 0.950 . S
H1366 C1387 0.950 . S
H1367 C1390 0.950 . S
H1368 C1391 0.950 . S
H1369 C1393 0.950 . S
H1370 C1394 0.950 . S
H1371 C1395 0.951 . S
H1372 C1397 0.951 . S
H1373 C1399 0.950 . S
H1374 C1400 0.950 . S
H1375 C1402 0.950 . S
H1376 C1405 0.950 . S
H1377 C1406 0.950 . S
H1378 C1408 0.950 . S
H1379 C1409 0.950 . S
C1380 H1362 0.951 . S
C1380 C1381 1.366 . S
C1380 C1382 1.388 . S
C1381 C1380 1.366 . S
C1381 C1385 1.385 . S
C1382 H1363 0.951 . S
C1382 C1380 1.388 . S
C1382 C1383 1.366 . S
C1383 C1382 1.366 . S
C1383 C1384 1.414 . S
C1383 C1386 1.499 . S
C1384 H1364 0.950 . S
C1384 C1383 1.414 . S
C1384 C1385 1.374 . S
C1385 H1365 0.950 . S
C1385 C1381 1.385 . S
C1385 C1384 1.374 . S
C1386 C1383 1.499 . S
C1386 C1387 1.373 . S
C1386 C1388 1.389 . S
C1387 H1366 0.950 . S
C1387 C1386 1.373 . S
C1387 C1403 1.377 . S
C1388 C1386 1.389 . S
C1388 C1389 1.524 . S
C1388 C1402 1.377 . S
C1389 C1388 1.524 . S
C1389 C1390 1.397 . S
C1389 C1394 1.363 . S
C1390 H1367 0.950 . S
C1390 C1389 1.397 . S
C1390 C1391 1.334 . S
C1391 H1368 0.950 . S
C1391 C1390 1.334 . S
C1391 C1392 1.287 . S
C1392 C1391 1.287 . S
C1392 C1393 1.524 . S
C1392 H1411 0.913 . S
C1393 H1369 0.950 . S
C1393 C1392 1.524 . S
C1393 C1394 1.415 . S
C1394 H1370 0.950 . S
C1394 C1389 1.363 . S
C1394 C1393 1.415 . S
C1395 H1371 0.951 . S
C1395 C1396 1.366 . S
C1395 C1397 1.388 . S
C1396 C1395 1.366 . S
C1396 C1400 1.385 . S
C1397 H1372 0.951 . S
C1397 C1395 1.388 . S
C1397 C1398 1.366 . S
C1398 C1397 1.366 . S
C1398 C1399 1.414 . S
C1398 C1401 1.499 . S
C1399 H1373 0.950 . S
C1399 C1398 1.414 . S
C1399 C1400 1.374 . S
C1400 H1374 0.950 . S
C1400 C1396 1.385 . S
C1400 C1399 1.374 . S
C1401 C1398 1.499 . S
C1401 C1402 1.373 . S
C1401 C1403 1.389 . S
C1402 H1375 0.950 . S
C1402 C1388 1.377 . S
C1402 C1401 1.373 . S
C1403 C1387 1.377 . S
C1403 C1401 1.389 . S
C1403 C1404 1.524 . S
C1404 C1403 1.524 . S
C1404 C1405 1.397 . S
C1404 C1409 1.363 . S
C1405 H1376 0.950 . S
C1405 C1404 1.397 . S
C1405 C1406 1.334 . S
C1406 H1377 0.950 . S
C1406 C1405 1.334 . S
C1406 C1407 1.287 . S
C1407 C1406 1.287 . S
C1407 C1408 1.524 . S
C1407 H1410 0.999 . S
C1408 H1378 0.950 . S
C1408 C1407 1.524 . S
C1408 C1409 1.415 . S
C1409 H1379 0.950 . S
C1409 C1404 1.363 . S
C1409 C1408 1.415 . S
H1410 C1407 0.999 . S
H1411 C1392 0.913 . S
H1412 C1430 0.951 . S
H1413 C1432 0.951 . S
H1414 C1434 0.950 . S
H1415 C1435 0.950 . S
H1416 C1437 0.950 . S
H1417 C1440 0.950 . S
H1418 C1441 0.950 . S
H1419 C1443 0.950 . S
H1420 C1444 0.950 . S
H1421 C1445 0.951 . S
H1422 C1447 0.951 . S
H1423 C1449 0.950 . S
H1424 C1450 0.950 . S
H1425 C1452 0.950 . S
H1426 C1455 0.950 . S
H1427 C1456 0.950 . S
H1428 C1458 0.950 . S
H1429 C1459 0.950 . S
C1430 H1412 0.951 . S
C1430 C1431 1.366 . S
C1430 C1432 1.388 . S
C1431 C1430 1.366 . S
C1431 C1435 1.385 . S
C1432 H1413 0.951 . S
C1432 C1430 1.388 . S
C1432 C1433 1.366 . S
C1433 C1432 1.366 . S
C1433 C1434 1.414 . S
C1433 C1436 1.499 . S
C1434 H1414 0.950 . S
C1434 C1433 1.414 . S
C1434 C1435 1.374 . S
C1435 H1415 0.950 . S
C1435 C1431 1.385 . S
C1435 C1434 1.374 . S
C1436 C1433 1.499 . S
C1436 C1437 1.373 . S
C1436 C1438 1.389 . S
C1437 H1416 0.950 . S
C1437 C1436 1.373 . S
C1437 C1453 1.377 . S
C1438 C1436 1.389 . S
C1438 C1439 1.524 . S
C1438 C1452 1.377 . S
C1439 C1438 1.524 . S
C1439 C1440 1.397 . S
C1439 C1444 1.363 . S
C1440 H1417 0.950 . S
C1440 C1439 1.397 . S
C1440 C1441 1.334 . S
C1441 H1418 0.950 . S
C1441 C1440 1.334 . S
C1441 C1442 1.287 . S
C1442 C1441 1.287 . S
C1442 C1443 1.524 . S
C1442 H1461 0.913 . S
C1443 H1419 0.950 . S
C1443 C1442 1.524 . S
C1443 C1444 1.415 . S
C1444 H1420 0.950 . S
C1444 C1439 1.363 . S
C1444 C1443 1.415 . S
C1445 H1421 0.951 . S
C1445 C1446 1.366 . S
C1445 C1447 1.388 . S
C1446 C1445 1.366 . S
C1446 C1450 1.385 . S
C1447 H1422 0.951 . S
C1447 C1445 1.388 . S
C1447 C1448 1.366 . S
C1448 C1447 1.366 . S
C1448 C1449 1.414 . S
C1448 C1451 1.499 . S
C1449 H1423 0.950 . S
C1449 C1448 1.414 . S
C1449 C1450 1.374 . S
C1450 H1424 0.950 . S
C1450 C1446 1.385 . S
C1450 C1449 1.374 . S
C1451 C1448 1.499 . S
C1451 C1452 1.373 . S
C1451 C1453 1.389 . S
C1452 H1425 0.950 . S
C1452 C1438 1.377 . S
C1452 C1451 1.373 . S
C1453 C1437 1.377 . S
C1453 C1451 1.389 . S
C1453 C1454 1.524 . S
C1454 C1453 1.524 . S
C1454 C1455 1.397 . S
C1454 C1459 1.363 . S
C1455 H1426 0.950 . S
C1455 C1454 1.397 . S
C1455 C1456 1.334 . S
C1456 H1427 0.950 . S
C1456 C1455 1.334 . S
C1456 C1457 1.287 . S
C1457 C1456 1.287 . S
C1457 C1458 1.524 . S
C1457 H1460 0.999 . S
C1458 H1428 0.950 . S
C1458 C1457 1.524 . S
C1458 C1459 1.415 . S
C1459 H1429 0.950 . S
C1459 C1454 1.363 . S
C1459 C1458 1.415 . S
H1460 C1457 0.999 . S
H1461 C1442 0.913 . S
H1462 C1480 0.951 . S
H1463 C1482 0.951 . S
H1464 C1484 0.950 . S
H1465 C1485 0.950 . S
H1466 C1487 0.950 . S
H1467 C1490 0.950 . S
H1468 C1491 0.950 . S
H1469 C1493 0.950 . S
H1470 C1494 0.950 . S
H1471 C1495 0.951 . S
H1472 C1497 0.951 . S
H1473 C1499 0.950 . S
H1474 C1500 0.950 . S
H1475 C1502 0.950 . S
H1476 C1505 0.950 . S
H1477 C1506 0.950 . S
H1478 C1508 0.950 . S
H1479 C1509 0.950 . S
C1480 H1462 0.951 . S
C1480 C1481 1.366 . S
C1480 C1482 1.388 . S
C1481 C1480 1.366 . S
C1481 C1485 1.385 . S
C1482 H1463 0.951 . S
C1482 C1480 1.388 . S
C1482 C1483 1.366 . S
C1483 C1482 1.366 . S
C1483 C1484 1.414 . S
C1483 C1486 1.499 . S
C1484 H1464 0.950 . S
C1484 C1483 1.414 . S
C1484 C1485 1.374 . S
C1485 H1465 0.950 . S
C1485 C1481 1.385 . S
C1485 C1484 1.374 . S
C1486 C1483 1.499 . S
C1486 C1487 1.373 . S
C1486 C1488 1.389 . S
C1487 H1466 0.950 . S
C1487 C1486 1.373 . S
C1487 C1503 1.377 . S
C1488 C1486 1.389 . S
C1488 C1489 1.524 . S
C1488 C1502 1.377 . S
C1489 C1488 1.524 . S
C1489 C1490 1.397 . S
C1489 C1494 1.363 . S
C1490 H1467 0.950 . S
C1490 C1489 1.397 . S
C1490 C1491 1.334 . S
C1491 H1468 0.950 . S
C1491 C1490 1.334 . S
C1491 C1492 1.287 . S
C1492 C1491 1.287 . S
C1492 C1493 1.524 . S
C1492 H1511 0.913 . S
C1493 H1469 0.950 . S
C1493 C1492 1.524 . S
C1493 C1494 1.415 . S
C1494 H1470 0.950 . S
C1494 C1489 1.363 . S
C1494 C1493 1.415 . S
C1495 H1471 0.951 . S
C1495 C1496 1.366 . S
C1495 C1497 1.388 . S
C1496 C1495 1.366 . S
C1496 C1500 1.385 . S
C1497 H1472 0.951 . S
C1497 C1495 1.388 . S
C1497 C1498 1.366 . S
C1498 C1497 1.366 . S
C1498 C1499 1.414 . S
C1498 C1501 1.499 . S
C1499 H1473 0.950 . S
C1499 C1498 1.414 . S
C1499 C1500 1.374 . S
C1500 H1474 0.950 . S
C1500 C1496 1.385 . S
C1500 C1499 1.374 . S
C1501 C1498 1.499 . S
C1501 C1502 1.373 . S
C1501 C1503 1.389 . S
C1502 H1475 0.950 . S
C1502 C1488 1.377 . S
C1502 C1501 1.373 . S
C1503 C1487 1.377 . S
C1503 C1501 1.389 . S
C1503 C1504 1.524 . S
C1504 C1503 1.524 . S
C1504 C1505 1.397 . S
C1504 C1509 1.363 . S
C1505 H1476 0.950 . S
C1505 C1504 1.397 . S
C1505 C1506 1.334 . S
C1506 H1477 0.950 . S
C1506 C1505 1.334 . S
C1506 C1507 1.287 . S
C1507 C1506 1.287 . S
C1507 C1508 1.524 . S
C1507 H1510 0.999 . S
C1508 H1478 0.950 . S
C1508 C1507 1.524 . S
C1508 C1509 1.415 . S
C1509 H1479 0.950 . S
C1509 C1504 1.363 . S
C1509 C1508 1.415 . S
H1510 C1507 0.999 . S
H1511 C1492 0.913 . S
H1512 C1530 0.951 . S
H1513 C1532 0.951 . S
H1514 C1534 0.950 . S
H1515 C1535 0.950 . S
H1516 C1537 0.950 . S
H1517 C1540 0.950 . S
H1518 C1541 0.950 . S
H1519 C1543 0.950 . S
H1520 C1544 0.950 . S
H1521 C1545 0.951 . S
H1522 C1547 0.951 . S
H1523 C1549 0.950 . S
H1524 C1550 0.950 . S
H1525 C1552 0.950 . S
H1526 C1555 0.950 . S
H1527 C1556 0.950 . S
H1528 C1558 0.950 . S
H1529 C1559 0.950 . S
C1530 H1512 0.951 . S
C1530 C1531 1.366 . S
C1530 C1532 1.388 . S
C1531 C1530 1.366 . S
C1531 C1535 1.385 . S
C1532 H1513 0.951 . S
C1532 C1530 1.388 . S
C1532 C1533 1.366 . S
C1533 C1532 1.366 . S
C1533 C1534 1.414 . S
C1533 C1536 1.499 . S
C1534 H1514 0.950 . S
C1534 C1533 1.414 . S
C1534 C1535 1.374 . S
C1535 H1515 0.950 . S
C1535 C1531 1.385 . S
C1535 C1534 1.374 . S
C1536 C1533 1.499 . S
C1536 C1537 1.373 . S
C1536 C1538 1.389 . S
C1537 H1516 0.950 . S
C1537 C1536 1.373 . S
C1537 C1553 1.377 . S
C1538 C1536 1.389 . S
C1538 C1539 1.524 . S
C1538 C1552 1.377 . S
C1539 C1538 1.524 . S
C1539 C1540 1.397 . S
C1539 C1544 1.363 . S
C1540 H1517 0.950 . S
C1540 C1539 1.397 . S
C1540 C1541 1.334 . S
C1541 H1518 0.950 . S
C1541 C1540 1.334 . S
C1541 C1542 1.287 . S
C1542 C1541 1.287 . S
C1542 C1543 1.524 . S
C1542 H1561 0.913 1_565 S
C1543 H1519 0.950 . S
C1543 C1542 1.524 . S
C1543 C1544 1.415 . S
C1544 H1520 0.950 . S
C1544 C1539 1.363 . S
C1544 C1543 1.415 . S
C1545 H1521 0.951 . S
C1545 C1546 1.366 . S
C1545 C1547 1.388 . S
C1546 C1545 1.366 . S
C1546 C1550 1.385 . S
C1547 H1522 0.951 . S
C1547 C1545 1.388 . S
C1547 C1548 1.366 . S
C1548 C1547 1.366 . S
C1548 C1549 1.414 . S
C1548 C1551 1.499 . S
C1549 H1523 0.950 . S
C1549 C1548 1.414 . S
C1549 C1550 1.374 . S
C1550 H1524 0.950 . S
C1550 C1546 1.385 . S
C1550 C1549 1.374 . S
C1551 C1548 1.499 . S
C1551 C1552 1.373 . S
C1551 C1553 1.389 . S
C1552 H1525 0.950 . S
C1552 C1538 1.377 . S
C1552 C1551 1.373 . S
C1553 C1537 1.377 . S
C1553 C1551 1.389 . S
C1553 C1554 1.524 . S
C1554 C1553 1.524 . S
C1554 C1555 1.397 . S
C1554 C1559 1.363 . S
C1555 H1526 0.950 . S
C1555 C1554 1.397 . S
C1555 C1556 1.334 . S
C1556 H1527 0.950 . S
C1556 C1555 1.334 . S
C1556 C1557 1.287 . S
C1557 C1556 1.287 . S
C1557 C1558 1.524 . S
C1557 H1560 0.999 . S
C1558 H1528 0.950 . S
C1558 C1557 1.524 . S
C1558 C1559 1.415 . S
C1559 H1529 0.950 . S
C1559 C1554 1.363 . S
C1559 C1558 1.415 . S
H1560 C1557 0.999 . S
H1561 C1542 0.913 1_545 S
H1562 C1580 0.951 . S
H1563 C1582 0.951 . S
H1564 C1584 0.950 . S
H1565 C1585 0.950 . S
H1566 C1587 0.950 . S
H1567 C1590 0.950 . S
H1568 C1591 0.950 . S
H1569 C1593 0.950 . S
H1570 C1594 0.950 . S
H1571 C1595 0.951 . S
H1572 C1597 0.951 . S
H1573 C1599 0.950 . S
H1574 C1600 0.950 . S
H1575 C1602 0.950 . S
H1576 C1605 0.950 . S
H1577 C1606 0.950 . S
H1578 C1608 0.950 . S
H1579 C1609 0.950 . S
C1580 H1562 0.951 . S
C1580 C1581 1.366 . S
C1580 C1582 1.388 . S
C1581 C1580 1.366 . S
C1581 C1585 1.385 . S
C1582 H1563 0.951 . S
C1582 C1580 1.388 . S
C1582 C1583 1.366 . S
C1583 C1582 1.366 . S
C1583 C1584 1.414 . S
C1583 C1586 1.499 . S
C1584 H1564 0.950 . S
C1584 C1583 1.414 . S
C1584 C1585 1.374 . S
C1585 H1565 0.950 . S
C1585 C1581 1.385 . S
C1585 C1584 1.374 . S
C1586 C1583 1.499 . S
C1586 C1587 1.373 . S
C1586 C1588 1.389 . S
C1587 H1566 0.950 . S
C1587 C1586 1.373 . S
C1587 C1603 1.377 . S
C1588 C1586 1.389 . S
C1588 C1589 1.524 . S
C1588 C1602 1.377 . S
C1589 C1588 1.524 . S
C1589 C1590 1.397 . S
C1589 C1594 1.363 . S
C1590 H1567 0.950 . S
C1590 C1589 1.397 . S
C1590 C1591 1.334 . S
C1591 H1568 0.950 . S
C1591 C1590 1.334 . S
C1591 C1592 1.287 . S
C1592 C1591 1.287 . S
C1592 C1593 1.524 . S
C1592 H1611 0.913 . S
C1593 H1569 0.950 . S
C1593 C1592 1.524 . S
C1593 C1594 1.415 . S
C1594 H1570 0.950 . S
C1594 C1589 1.363 . S
C1594 C1593 1.415 . S
C1595 H1571 0.951 . S
C1595 C1596 1.366 . S
C1595 C1597 1.388 . S
C1596 C1595 1.366 . S
C1596 C1600 1.385 . S
C1597 H1572 0.951 . S
C1597 C1595 1.388 . S
C1597 C1598 1.366 . S
C1598 C1597 1.366 . S
C1598 C1599 1.414 . S
C1598 C1601 1.499 . S
C1599 H1573 0.950 . S
C1599 C1598 1.414 . S
C1599 C1600 1.374 . S
C1600 H1574 0.950 . S
C1600 C1596 1.385 . S
C1600 C1599 1.374 . S
C1601 C1598 1.499 . S
C1601 C1602 1.373 . S
C1601 C1603 1.389 . S
C1602 H1575 0.950 . S
C1602 C1588 1.377 . S
C1602 C1601 1.373 . S
C1603 C1587 1.377 . S
C1603 C1601 1.389 . S
C1603 C1604 1.524 . S
C1604 C1603 1.524 . S
C1604 C1605 1.397 . S
C1604 C1609 1.363 . S
C1605 H1576 0.950 . S
C1605 C1604 1.397 . S
C1605 C1606 1.334 . S
C1606 H1577 0.950 . S
C1606 C1605 1.334 . S
C1606 C1607 1.287 . S
C1607 C1606 1.287 . S
C1607 C1608 1.524 . S
C1607 H1610 0.999 . S
C1608 H1578 0.950 . S
C1608 C1607 1.524 . S
C1608 C1609 1.415 . S
C1609 H1579 0.950 . S
C1609 C1604 1.363 . S
C1609 C1608 1.415 . S
H1610 C1607 0.999 . S
H1611 C1592 0.913 . S
H1612 C1630 0.951 . S
H1613 C1632 0.951 . S
H1614 C1634 0.950 . S
H1615 C1635 0.950 . S
H1616 C1637 0.950 . S
H1617 C1640 0.950 . S
H1618 C1641 0.950 . S
H1619 C1643 0.950 . S
H1620 C1644 0.950 . S
H1621 C1645 0.951 . S
H1622 C1647 0.951 . S
H1623 C1649 0.950 . S
H1624 C1650 0.950 . S
H1625 C1652 0.950 . S
H1626 C1655 0.950 . S
H1627 C1656 0.950 . S
H1628 C1658 0.950 . S
H1629 C1659 0.950 . S
C1630 H1612 0.951 . S
C1630 C1631 1.366 . S
C1630 C1632 1.388 . S
C1631 C1630 1.366 . S
C1631 C1635 1.385 . S
C1632 H1613 0.951 . S
C1632 C1630 1.388 . S
C1632 C1633 1.366 . S
C1633 C1632 1.366 . S
C1633 C1634 1.414 . S
C1633 C1636 1.499 . S
C1634 H1614 0.950 . S
C1634 C1633 1.414 . S
C1634 C1635 1.374 . S
C1635 H1615 0.950 . S
C1635 C1631 1.385 . S
C1635 C1634 1.374 . S
C1636 C1633 1.499 . S
C1636 C1637 1.373 . S
C1636 C1638 1.389 . S
C1637 H1616 0.950 . S
C1637 C1636 1.373 . S
C1637 C1653 1.377 . S
C1638 C1636 1.389 . S
C1638 C1639 1.524 . S
C1638 C1652 1.377 . S
C1639 C1638 1.524 . S
C1639 C1640 1.397 . S
C1639 C1644 1.363 . S
C1640 H1617 0.950 . S
C1640 C1639 1.397 . S
C1640 C1641 1.334 . S
C1641 H1618 0.950 . S
C1641 C1640 1.334 . S
C1641 C1642 1.287 . S
C1642 C1641 1.287 . S
C1642 C1643 1.524 . S
C1642 H1661 0.913 . S
C1643 H1619 0.950 . S
C1643 C1642 1.524 . S
C1643 C1644 1.415 . S
C1644 H1620 0.950 . S
C1644 C1639 1.363 . S
C1644 C1643 1.415 . S
C1645 H1621 0.951 . S
C1645 C1646 1.366 . S
C1645 C1647 1.388 . S
C1646 C1645 1.366 . S
C1646 C1650 1.385 . S
C1647 H1622 0.951 . S
C1647 C1645 1.388 . S
C1647 C1648 1.366 . S
C1648 C1647 1.366 . S
C1648 C1649 1.414 . S
C1648 C1651 1.499 . S
C1649 H1623 0.950 . S
C1649 C1648 1.414 . S
C1649 C1650 1.374 . S
C1650 H1624 0.950 . S
C1650 C1646 1.385 . S
C1650 C1649 1.374 . S
C1651 C1648 1.499 . S
C1651 C1652 1.373 . S
C1651 C1653 1.389 . S
C1652 H1625 0.950 . S
C1652 C1638 1.377 . S
C1652 C1651 1.373 . S
C1653 C1637 1.377 . S
C1653 C1651 1.389 . S
C1653 C1654 1.524 . S
C1654 C1653 1.524 . S
C1654 C1655 1.397 . S
C1654 C1659 1.363 . S
C1655 H1626 0.950 . S
C1655 C1654 1.397 . S
C1655 C1656 1.334 . S
C1656 H1627 0.950 . S
C1656 C1655 1.334 . S
C1656 C1657 1.287 . S
C1657 C1656 1.287 . S
C1657 C1658 1.524 . S
C1657 H1660 0.999 . S
C1658 H1628 0.950 . S
C1658 C1657 1.524 . S
C1658 C1659 1.415 . S
C1659 H1629 0.950 . S
C1659 C1654 1.363 . S
C1659 C1658 1.415 . S
H1660 C1657 0.999 . S
H1661 C1642 0.913 . S
H1662 C1680 0.951 . S
H1663 C1682 0.951 . S
H1664 C1684 0.950 . S
H1665 C1685 0.950 . S
H1666 C1687 0.950 . S
H1667 C1690 0.950 . S
H1668 C1691 0.950 . S
H1669 C1693 0.950 . S
H1670 C1694 0.950 . S
H1671 C1695 0.951 . S
H1672 C1697 0.951 . S
H1673 C1699 0.950 . S
H1674 C1700 0.950 . S
H1675 C1702 0.950 . S
H1676 C1705 0.950 . S
H1677 C1706 0.950 . S
H1678 C1708 0.950 . S
H1679 C1709 0.950 . S
C1680 H1662 0.951 . S
C1680 C1681 1.366 . S
C1680 C1682 1.388 . S
C1681 C1680 1.366 . S
C1681 C1685 1.385 . S
C1682 H1663 0.951 . S
C1682 C1680 1.388 . S
C1682 C1683 1.366 . S
C1683 C1682 1.366 . S
C1683 C1684 1.414 . S
C1683 C1686 1.499 . S
C1684 H1664 0.950 . S
C1684 C1683 1.414 . S
C1684 C1685 1.374 . S
C1685 H1665 0.950 . S
C1685 C1681 1.385 . S
C1685 C1684 1.374 . S
C1686 C1683 1.499 . S
C1686 C1687 1.373 . S
C1686 C1688 1.389 . S
C1687 H1666 0.950 . S
C1687 C1686 1.373 . S
C1687 C1703 1.377 . S
C1688 C1686 1.389 . S
C1688 C1689 1.524 . S
C1688 C1702 1.377 . S
C1689 C1688 1.524 . S
C1689 C1690 1.397 . S
C1689 C1694 1.363 . S
C1690 H1667 0.950 . S
C1690 C1689 1.397 . S
C1690 C1691 1.334 . S
C1691 H1668 0.950 . S
C1691 C1690 1.334 . S
C1691 C1692 1.287 . S
C1692 C1691 1.287 . S
C1692 C1693 1.524 . S
C1692 H1711 0.913 . S
C1693 H1669 0.950 . S
C1693 C1692 1.524 . S
C1693 C1694 1.415 . S
C1694 H1670 0.950 . S
C1694 C1689 1.363 . S
C1694 C1693 1.415 . S
C1695 H1671 0.951 . S
C1695 C1696 1.366 . S
C1695 C1697 1.388 . S
C1696 C1695 1.366 . S
C1696 C1700 1.385 . S
C1697 H1672 0.951 . S
C1697 C1695 1.388 . S
C1697 C1698 1.366 . S
C1698 C1697 1.366 . S
C1698 C1699 1.414 . S
C1698 C1701 1.499 . S
C1699 H1673 0.950 . S
C1699 C1698 1.414 . S
C1699 C1700 1.374 . S
C1700 H1674 0.950 . S
C1700 C1696 1.385 . S
C1700 C1699 1.374 . S
C1701 C1698 1.499 . S
C1701 C1702 1.373 . S
C1701 C1703 1.389 . S
C1702 H1675 0.950 . S
C1702 C1688 1.377 . S
C1702 C1701 1.373 . S
C1703 C1687 1.377 . S
C1703 C1701 1.389 . S
C1703 C1704 1.524 . S
C1704 C1703 1.524 . S
C1704 C1705 1.397 . S
C1704 C1709 1.363 . S
C1705 H1676 0.950 . S
C1705 C1704 1.397 . S
C1705 C1706 1.334 . S
C1706 H1677 0.950 . S
C1706 C1705 1.334 . S
C1706 C1707 1.287 . S
C1707 C1706 1.287 . S
C1707 C1708 1.524 . S
C1707 H1710 0.999 . S
C1708 H1678 0.950 . S
C1708 C1707 1.524 . S
C1708 C1709 1.415 . S
C1709 H1679 0.950 . S
C1709 C1704 1.363 . S
C1709 C1708 1.415 . S
H1710 C1707 0.999 . S
H1711 C1692 0.913 . S
H1712 C1730 0.951 . S
H1713 C1732 0.951 . S
H1714 C1734 0.950 . S
H1715 C1735 0.950 . S
H1716 C1737 0.950 . S
H1717 C1740 0.950 . S
H1718 C1741 0.950 . S
H1719 C1743 0.950 . S
H1720 C1744 0.950 . S
H1721 C1745 0.951 . S
H1722 C1747 0.951 . S
H1723 C1749 0.950 . S
H1724 C1750 0.950 . S
H1725 C1752 0.950 . S
H1726 C1755 0.950 . S
H1727 C1756 0.950 . S
H1728 C1758 0.950 . S
H1729 C1759 0.950 . S
C1730 H1712 0.951 . S
C1730 C1731 1.366 . S
C1730 C1732 1.388 . S
C1731 C1730 1.366 . S
C1731 C1735 1.385 . S
C1732 H1713 0.951 . S
C1732 C1730 1.388 . S
C1732 C1733 1.366 . S
C1733 C1732 1.366 . S
C1733 C1734 1.414 . S
C1733 C1736 1.499 . S
C1734 H1714 0.950 . S
C1734 C1733 1.414 . S
C1734 C1735 1.374 . S
C1735 H1715 0.950 . S
C1735 C1731 1.385 . S
C1735 C1734 1.374 . S
C1736 C1733 1.499 . S
C1736 C1737 1.373 . S
C1736 C1738 1.389 . S
C1737 H1716 0.950 . S
C1737 C1736 1.373 . S
C1737 C1753 1.377 . S
C1738 C1736 1.389 . S
C1738 C1739 1.524 . S
C1738 C1752 1.377 . S
C1739 C1738 1.524 . S
C1739 C1740 1.397 . S
C1739 C1744 1.363 . S
C1740 H1717 0.950 . S
C1740 C1739 1.397 . S
C1740 C1741 1.334 . S
C1741 H1718 0.950 . S
C1741 C1740 1.334 . S
C1741 C1742 1.287 . S
C1742 C1741 1.287 . S
C1742 C1743 1.524 . S
C1742 H1761 0.913 . S
C1743 H1719 0.950 . S
C1743 C1742 1.524 . S
C1743 C1744 1.415 . S
C1744 H1720 0.950 . S
C1744 C1739 1.363 . S
C1744 C1743 1.415 . S
C1745 H1721 0.951 . S
C1745 C1746 1.366 . S
C1745 C1747 1.388 . S
C1746 C1745 1.366 . S
C1746 C1750 1.385 . S
C1747 H1722 0.951 . S
C1747 C1745 1.388 . S
C1747 C1748 1.366 . S
C1748 C1747 1.366 . S
C1748 C1749 1.414 . S
C1748 C1751 1.499 . S
C1749 H1723 0.950 . S
C1749 C1748 1.414 . S
C1749 C1750 1.374 . S
C1750 H1724 0.950 . S
C1750 C1746 1.385 . S
C1750 C1749 1.374 . S
C1751 C1748 1.499 . S
C1751 C1752 1.373 . S
C1751 C1753 1.389 . S
C1752 H1725 0.950 . S
C1752 C1738 1.377 . S
C1752 C1751 1.373 . S
C1753 C1737 1.377 . S
C1753 C1751 1.389 . S
C1753 C1754 1.524 . S
C1754 C1753 1.524 . S
C1754 C1755 1.397 . S
C1754 C1759 1.363 . S
C1755 H1726 0.950 . S
C1755 C1754 1.397 . S
C1755 C1756 1.334 . S
C1756 H1727 0.950 . S
C1756 C1755 1.334 . S
C1756 C1757 1.287 . S
C1757 C1756 1.287 . S
C1757 C1758 1.524 . S
C1757 H1760 0.999 . S
C1758 H1728 0.950 . S
C1758 C1757 1.524 . S
C1758 C1759 1.415 . S
C1759 H1729 0.950 . S
C1759 C1754 1.363 . S
C1759 C1758 1.415 . S
H1760 C1757 0.999 . S
H1761 C1742 0.913 . S
H1762 C1780 0.951 . S
H1763 C1782 0.951 . S
H1764 C1784 0.950 . S
H1765 C1785 0.950 . S
H1766 C1787 0.950 . S
H1767 C1790 0.950 . S
H1768 C1791 0.950 . S
H1769 C1793 0.950 . S
H1770 C1794 0.950 . S
H1771 C1795 0.951 . S
H1772 C1797 0.951 . S
H1773 C1799 0.950 . S
H1774 C1800 0.950 . S
H1775 C1802 0.950 . S
H1776 C1805 0.950 . S
H1777 C1806 0.950 . S
H1778 C1808 0.950 . S
H1779 C1809 0.950 . S
C1780 H1762 0.951 . S
C1780 C1781 1.366 . S
C1780 C1782 1.388 . S
C1781 C1780 1.366 . S
C1781 C1785 1.385 . S
C1782 H1763 0.951 . S
C1782 C1780 1.388 . S
C1782 C1783 1.366 . S
C1783 C1782 1.366 . S
C1783 C1784 1.414 . S
C1783 C1786 1.499 . S
C1784 H1764 0.950 . S
C1784 C1783 1.414 . S
C1784 C1785 1.374 . S
C1785 H1765 0.950 . S
C1785 C1781 1.385 . S
C1785 C1784 1.374 . S
C1786 C1783 1.499 . S
C1786 C1787 1.373 . S
C1786 C1788 1.389 . S
C1787 H1766 0.950 . S
C1787 C1786 1.373 . S
C1787 C1803 1.377 . S
C1788 C1786 1.389 . S
C1788 C1789 1.524 . S
C1788 C1802 1.377 . S
C1789 C1788 1.524 . S
C1789 C1790 1.397 . S
C1789 C1794 1.363 . S
C1790 H1767 0.950 . S
C1790 C1789 1.397 . S
C1790 C1791 1.334 . S
C1791 H1768 0.950 . S
C1791 C1790 1.334 . S
C1791 C1792 1.287 . S
C1792 C1791 1.287 . S
C1792 C1793 1.524 . S
C1792 H1811 0.913 . S
C1793 H1769 0.950 . S
C1793 C1792 1.524 . S
C1793 C1794 1.415 . S
C1794 H1770 0.950 . S
C1794 C1789 1.363 . S
C1794 C1793 1.415 . S
C1795 H1771 0.951 . S
C1795 C1796 1.366 . S
C1795 C1797 1.388 . S
C1796 C1795 1.366 . S
C1796 C1800 1.385 . S
C1797 H1772 0.951 . S
C1797 C1795 1.388 . S
C1797 C1798 1.366 . S
C1798 C1797 1.366 . S
C1798 C1799 1.414 . S
C1798 C1801 1.499 . S
C1799 H1773 0.950 . S
C1799 C1798 1.414 . S
C1799 C1800 1.374 . S
C1800 H1774 0.950 . S
C1800 C1796 1.385 . S
C1800 C1799 1.374 . S
C1801 C1798 1.499 . S
C1801 C1802 1.373 . S
C1801 C1803 1.389 . S
C1802 H1775 0.950 . S
C1802 C1788 1.377 . S
C1802 C1801 1.373 . S
C1803 C1787 1.377 . S
C1803 C1801 1.389 . S
C1803 C1804 1.524 . S
C1804 C1803 1.524 . S
C1804 C1805 1.397 . S
C1804 C1809 1.363 . S
C1805 H1776 0.950 . S
C1805 C1804 1.397 . S
C1805 C1806 1.334 . S
C1806 H1777 0.950 . S
C1806 C1805 1.334 . S
C1806 C1807 1.287 . S
C1807 C1806 1.287 . S
C1807 C1808 1.524 . S
C1807 H1810 0.999 . S
C1808 H1778 0.950 . S
C1808 C1807 1.524 . S
C1808 C1809 1.415 . S
C1809 H1779 0.950 . S
C1809 C1804 1.363 . S
C1809 C1808 1.415 . S
H1810 C1807 0.999 . S
H1811 C1792 0.913 . S
H1812 C1830 0.951 . S
H1813 C1832 0.951 . S
H1814 C1834 0.950 . S
H1815 C1835 0.950 . S
H1816 C1837 0.950 . S
H1817 C1840 0.950 . S
H1818 C1841 0.950 . S
H1819 C1843 0.950 . S
H1820 C1844 0.950 . S
H1821 C1845 0.951 . S
H1822 C1847 0.951 . S
H1823 C1849 0.950 . S
H1824 C1850 0.950 . S
H1825 C1852 0.950 . S
H1826 C1855 0.950 . S
H1827 C1856 0.950 . S
H1828 C1858 0.950 . S
H1829 C1859 0.950 . S
C1830 H1812 0.951 . S
C1830 C1831 1.366 . S
C1830 C1832 1.388 . S
C1831 C1830 1.366 . S
C1831 C1835 1.385 . S
C1832 H1813 0.951 . S
C1832 C1830 1.388 . S
C1832 C1833 1.366 . S
C1833 C1832 1.366 . S
C1833 C1834 1.414 . S
C1833 C1836 1.499 . S
C1834 H1814 0.950 . S
C1834 C1833 1.414 . S
C1834 C1835 1.374 . S
C1835 H1815 0.950 . S
C1835 C1831 1.385 . S
C1835 C1834 1.374 . S
C1836 C1833 1.499 . S
C1836 C1837 1.373 . S
C1836 C1838 1.389 . S
C1837 H1816 0.950 . S
C1837 C1836 1.373 . S
C1837 C1853 1.377 . S
C1838 C1836 1.389 . S
C1838 C1839 1.524 . S
C1838 C1852 1.377 . S
C1839 C1838 1.524 . S
C1839 C1840 1.397 . S
C1839 C1844 1.363 . S
C1840 H1817 0.950 . S
C1840 C1839 1.397 . S
C1840 C1841 1.334 . S
C1841 H1818 0.950 . S
C1841 C1840 1.334 . S
C1841 C1842 1.287 . S
C1842 C1841 1.287 . S
C1842 C1843 1.524 . S
C1842 H1861 0.955 . S
C1843 H1819 0.950 . S
C1843 C1842 1.524 . S
C1843 C1844 1.415 . S
C1844 H1820 0.950 . S
C1844 C1839 1.363 . S
C1844 C1843 1.415 . S
C1845 H1821 0.951 . S
C1845 C1846 1.366 . S
C1845 C1847 1.388 . S
C1846 C1845 1.366 . S
C1846 C1850 1.385 . S
C1847 H1822 0.951 . S
C1847 C1845 1.388 . S
C1847 C1848 1.366 . S
C1848 C1847 1.366 . S
C1848 C1849 1.414 . S
C1848 C1851 1.499 . S
C1849 H1823 0.950 . S
C1849 C1848 1.414 . S
C1849 C1850 1.374 . S
C1850 H1824 0.950 . S
C1850 C1846 1.385 . S
C1850 C1849 1.374 . S
C1851 C1848 1.499 . S
C1851 C1852 1.373 . S
C1851 C1853 1.389 . S
C1852 H1825 0.950 . S
C1852 C1838 1.377 . S
C1852 C1851 1.373 . S
C1853 C1837 1.377 . S
C1853 C1851 1.389 . S
C1853 C1854 1.524 . S
C1854 C1853 1.524 . S
C1854 C1855 1.397 . S
C1854 C1859 1.363 . S
C1855 H1826 0.950 . S
C1855 C1854 1.397 . S
C1855 C1856 1.334 . S
C1856 H1827 0.950 . S
C1856 C1855 1.334 . S
C1856 C1857 1.287 . S
C1857 C1856 1.287 . S
C1857 C1858 1.524 . S
C1857 H1860 0.999 . S
C1858 H1828 0.950 . S
C1858 C1857 1.524 . S
C1858 C1859 1.415 . S
C1859 H1829 0.950 . S
C1859 C1854 1.363 . S
C1859 C1858 1.415 . S
H1860 C1857 0.999 . S
H1861 C1842 0.955 . S
H1862 C1880 0.951 . S
H1863 C1882 0.951 . S
H1864 C1884 0.950 . S
H1865 C1885 0.950 . S
H1866 C1887 0.950 . S
H1867 C1890 0.950 . S
H1868 C1891 0.950 . S
H1869 C1893 0.950 . S
H1870 C1894 0.950 . S
H1871 C1895 0.951 . S
H1872 C1897 0.951 . S
H1873 C1899 0.950 . S
H1874 C1900 0.950 . S
H1875 C1902 0.950 . S
H1876 C1905 0.950 . S
H1877 C1906 0.950 . S
H1878 C1908 0.950 . S
H1879 C1909 0.950 . S
C1880 H1862 0.951 . S
C1880 C1881 1.366 . S
C1880 C1882 1.388 . S
C1881 C1880 1.366 . S
C1881 C1885 1.385 . S
C1882 H1863 0.951 . S
C1882 C1880 1.388 . S
C1882 C1883 1.366 . S
C1883 C1882 1.366 . S
C1883 C1884 1.414 . S
C1883 C1886 1.499 . S
C1884 H1864 0.950 . S
C1884 C1883 1.414 . S
C1884 C1885 1.374 . S
C1885 H1865 0.950 . S
C1885 C1881 1.385 . S
C1885 C1884 1.374 . S
C1886 C1883 1.499 . S
C1886 C1887 1.373 . S
C1886 C1888 1.389 . S
C1887 H1866 0.950 . S
C1887 C1886 1.373 . S
C1887 C1903 1.377 . S
C1888 C1886 1.389 . S
C1888 C1889 1.524 . S
C1888 C1902 1.377 . S
C1889 C1888 1.524 . S
C1889 C1890 1.397 . S
C1889 C1894 1.363 . S
C1890 H1867 0.950 . S
C1890 C1889 1.397 . S
C1890 C1891 1.334 . S
C1891 H1868 0.950 . S
C1891 C1890 1.334 . S
C1891 C1892 1.287 . S
C1892 C1891 1.287 . S
C1892 C1893 1.524 . S
C1892 H1911 0.913 . S
C1893 H1869 0.950 . S
C1893 C1892 1.524 . S
C1893 C1894 1.415 . S
C1894 H1870 0.950 . S
C1894 C1889 1.363 . S
C1894 C1893 1.415 . S
C1895 H1871 0.951 . S
C1895 C1896 1.366 . S
C1895 C1897 1.388 . S
C1896 C1895 1.366 . S
C1896 C1900 1.385 . S
C1897 H1872 0.951 . S
C1897 C1895 1.388 . S
C1897 C1898 1.366 . S
C1898 C1897 1.366 . S
C1898 C1899 1.414 . S
C1898 C1901 1.499 . S
C1899 H1873 0.950 . S
C1899 C1898 1.414 . S
C1899 C1900 1.374 . S
C1900 H1874 0.950 . S
C1900 C1896 1.385 . S
C1900 C1899 1.374 . S
C1901 C1898 1.499 . S
C1901 C1902 1.373 . S
C1901 C1903 1.389 . S
C1902 H1875 0.950 . S
C1902 C1888 1.377 . S
C1902 C1901 1.373 . S
C1903 C1887 1.377 . S
C1903 C1901 1.389 . S
C1903 C1904 1.524 . S
C1904 C1903 1.524 . S
C1904 C1905 1.397 . S
C1904 C1909 1.363 . S
C1905 H1876 0.950 . S
C1905 C1904 1.397 . S
C1905 C1906 1.334 . S
C1906 H1877 0.950 . S
C1906 C1905 1.334 . S
C1906 C1907 1.287 . S
C1907 C1906 1.287 . S
C1907 C1908 1.524 . S
C1907 H1910 0.999 . S
C1908 H1878 0.950 . S
C1908 C1907 1.524 . S
C1908 C1909 1.415 . S
C1909 H1879 0.950 . S
C1909 C1904 1.363 . S
C1909 C1908 1.415 . S
H1910 C1907 0.999 . S
H1911 C1892 0.913 . S
H1912 C1930 0.951 . S
H1913 C1932 0.951 . S
H1914 C1934 0.950 . S
H1915 C1935 0.950 . S
H1916 C1937 0.950 . S
H1917 C1940 0.950 . S
H1918 C1941 0.950 . S
H1919 C1943 0.950 . S
H1920 C1944 0.950 . S
H1921 C1945 0.951 . S
H1922 C1947 0.951 . S
H1923 C1949 0.950 . S
H1924 C1950 0.950 . S
H1925 C1952 0.950 . S
H1926 C1955 0.950 . S
H1927 C1956 0.950 . S
H1928 C1958 0.950 . S
H1929 C1959 0.950 . S
C1930 H1912 0.951 . S
C1930 C1931 1.366 . S
C1930 C1932 1.388 . S
C1931 C1930 1.366 . S
C1931 C1935 1.385 . S
C1932 H1913 0.951 . S
C1932 C1930 1.388 . S
C1932 C1933 1.366 . S
C1933 C1932 1.366 . S
C1933 C1934 1.414 . S
C1933 C1936 1.499 . S
C1934 H1914 0.950 . S
C1934 C1933 1.414 . S
C1934 C1935 1.374 . S
C1935 H1915 0.950 . S
C1935 C1931 1.385 . S
C1935 C1934 1.374 . S
C1936 C1933 1.499 . S
C1936 C1937 1.373 . S
C1936 C1938 1.389 . S
C1937 H1916 0.950 . S
C1937 C1936 1.373 . S
C1937 C1953 1.377 . S
C1938 C1936 1.389 . S
C1938 C1939 1.524 . S
C1938 C1952 1.377 . S
C1939 C1938 1.524 . S
C1939 C1940 1.397 . S
C1939 C1944 1.363 . S
C1940 H1917 0.950 . S
C1940 C1939 1.397 . S
C1940 C1941 1.334 . S
C1941 H1918 0.950 . S
C1941 C1940 1.334 . S
C1941 C1942 1.287 . S
C1942 C1941 1.287 . S
C1942 C1943 1.524 . S
C1942 H1961 0.913 . S
C1943 H1919 0.950 . S
C1943 C1942 1.524 . S
C1943 C1944 1.415 . S
C1944 H1920 0.950 . S
C1944 C1939 1.363 . S
C1944 C1943 1.415 . S
C1945 H1921 0.951 . S
C1945 C1946 1.366 . S
C1945 C1947 1.388 . S
C1946 C1945 1.366 . S
C1946 C1950 1.385 . S
C1947 H1922 0.951 . S
C1947 C1945 1.388 . S
C1947 C1948 1.366 . S
C1948 C1947 1.366 . S
C1948 C1949 1.414 . S
C1948 C1951 1.499 . S
C1949 H1923 0.950 . S
C1949 C1948 1.414 . S
C1949 C1950 1.374 . S
C1950 H1924 0.950 . S
C1950 C1946 1.385 . S
C1950 C1949 1.374 . S
C1951 C1948 1.499 . S
C1951 C1952 1.373 . S
C1951 C1953 1.389 . S
C1952 H1925 0.950 . S
C1952 C1938 1.377 . S
C1952 C1951 1.373 . S
C1953 C1937 1.377 . S
C1953 C1951 1.389 . S
C1953 C1954 1.524 . S
C1954 C1953 1.524 . S
C1954 C1955 1.397 . S
C1954 C1959 1.363 . S
C1955 H1926 0.950 . S
C1955 C1954 1.397 . S
C1955 C1956 1.334 . S
C1956 H1927 0.950 . S
C1956 C1955 1.334 . S
C1956 C1957 1.287 . S
C1957 C1956 1.287 . S
C1957 C1958 1.524 . S
C1957 H1960 0.999 . S
C1958 H1928 0.950 . S
C1958 C1957 1.524 . S
C1958 C1959 1.415 . S
C1959 H1929 0.950 . S
C1959 C1954 1.363 . S
C1959 C1958 1.415 . S
H1960 C1957 0.999 . S
H1961 C1942 0.913 . S
H1962 C1980 0.951 . S
H1963 C1982 0.951 . S
H1964 C1984 0.950 . S
H1965 C1985 0.950 . S
H1966 C1987 0.950 . S
H1967 C1990 0.950 . S
H1968 C1991 0.950 . S
H1969 C1993 0.950 . S
H1970 C1994 0.950 . S
H1971 C1995 0.951 . S
H1972 C1997 0.951 . S
H1973 C1999 0.950 . S
H1974 C2000 0.950 . S
H1975 C2002 0.950 . S
H1976 C2005 0.950 . S
H1977 C2006 0.950 . S
H1978 C2008 0.950 . S
H1979 C2009 0.950 . S
C1980 H1962 0.951 . S
C1980 C1981 1.366 . S
C1980 C1982 1.388 . S
C1981 C1980 1.366 . S
C1981 C1985 1.385 . S
C1982 H1963 0.951 . S
C1982 C1980 1.388 . S
C1982 C1983 1.366 . S
C1983 C1982 1.366 . S
C1983 C1984 1.414 . S
C1983 C1986 1.499 . S
C1984 H1964 0.950 . S
C1984 C1983 1.414 . S
C1984 C1985 1.374 . S
C1985 H1965 0.950 . S
C1985 C1981 1.385 . S
C1985 C1984 1.374 . S
C1986 C1983 1.499 . S
C1986 C1987 1.373 . S
C1986 C1988 1.389 . S
C1987 H1966 0.950 . S
C1987 C1986 1.373 . S
C1987 C2003 1.377 . S
C1988 C1986 1.389 . S
C1988 C1989 1.524 . S
C1988 C2002 1.377 . S
C1989 C1988 1.524 . S
C1989 C1990 1.397 . S
C1989 C1994 1.363 . S
C1990 H1967 0.950 . S
C1990 C1989 1.397 . S
C1990 C1991 1.334 . S
C1991 H1968 0.950 . S
C1991 C1990 1.334 . S
C1991 C1992 1.287 . S
C1992 C1991 1.287 . S
C1992 C1993 1.524 . S
C1992 H2011 0.913 . S
C1993 H1969 0.950 . S
C1993 C1992 1.524 . S
C1993 C1994 1.415 . S
C1994 H1970 0.950 . S
C1994 C1989 1.363 . S
C1994 C1993 1.415 . S
C1995 H1971 0.951 . S
C1995 C1996 1.366 . S
C1995 C1997 1.388 . S
C1996 C1995 1.366 . S
C1996 C2000 1.385 . S
C1997 H1972 0.951 . S
C1997 C1995 1.388 . S
C1997 C1998 1.366 . S
C1998 C1997 1.366 . S
C1998 C1999 1.414 . S
C1998 C2001 1.499 . S
C1999 H1973 0.950 . S
C1999 C1998 1.414 . S
C1999 C2000 1.374 . S
C2000 H1974 0.950 . S
C2000 C1996 1.385 . S
C2000 C1999 1.374 . S
C2001 C1998 1.499 . S
C2001 C2002 1.373 . S
C2001 C2003 1.389 . S
C2002 H1975 0.950 . S
C2002 C1988 1.377 . S
C2002 C2001 1.373 . S
C2003 C1987 1.377 . S
C2003 C2001 1.389 . S
C2003 C2004 1.524 . S
C2004 C2003 1.524 . S
C2004 C2005 1.397 . S
C2004 C2009 1.363 . S
C2005 H1976 0.950 . S
C2005 C2004 1.397 . S
C2005 C2006 1.334 . S
C2006 H1977 0.950 . S
C2006 C2005 1.334 . S
C2006 C2007 1.287 . S
C2007 C2006 1.287 . S
C2007 C2008 1.524 . S
C2007 H2010 0.999 . S
C2008 H1978 0.950 . S
C2008 C2007 1.524 . S
C2008 C2009 1.415 . S
C2009 H1979 0.950 . S
C2009 C2004 1.363 . S
C2009 C2008 1.415 . S
H2010 C2007 0.999 . S
H2011 C1992 0.913 . S
H2012 C2030 0.951 . S
H2013 C2032 0.951 . S
H2014 C2034 0.950 . S
H2015 C2035 0.950 . S
H2016 C2037 0.950 . S
H2017 C2040 0.950 . S
H2018 C2041 0.950 . S
H2019 C2043 0.950 . S
H2020 C2044 0.950 . S
H2021 C2045 0.951 . S
H2022 C2047 0.951 . S
H2023 C2049 0.950 . S
H2024 C2050 0.950 . S
H2025 C2052 0.950 . S
H2026 C2055 0.950 . S
H2027 C2056 0.950 . S
H2028 C2058 0.950 . S
H2029 C2059 0.950 . S
C2030 H2012 0.951 . S
C2030 C2031 1.366 . S
C2030 C2032 1.388 . S
C2031 C2030 1.366 . S
C2031 C2035 1.385 . S
C2032 H2013 0.951 . S
C2032 C2030 1.388 . S
C2032 C2033 1.366 . S
C2033 C2032 1.366 . S
C2033 C2034 1.414 . S
C2033 C2036 1.499 . S
C2034 H2014 0.950 . S
C2034 C2033 1.414 . S
C2034 C2035 1.374 . S
C2035 H2015 0.950 . S
C2035 C2031 1.385 . S
C2035 C2034 1.374 . S
C2036 C2033 1.499 . S
C2036 C2037 1.373 . S
C2036 C2038 1.389 . S
C2037 H2016 0.950 . S
C2037 C2036 1.373 . S
C2037 C2053 1.377 . S
C2038 C2036 1.389 . S
C2038 C2039 1.524 . S
C2038 C2052 1.377 . S
C2039 C2038 1.524 . S
C2039 C2040 1.397 . S
C2039 C2044 1.363 . S
C2040 H2017 0.950 . S
C2040 C2039 1.397 . S
C2040 C2041 1.334 . S
C2041 H2018 0.950 . S
C2041 C2040 1.334 . S
C2041 C2042 1.287 . S
C2042 C2041 1.287 . S
C2042 C2043 1.524 . S
C2042 H2061 0.913 . S
C2043 H2019 0.950 . S
C2043 C2042 1.524 . S
C2043 C2044 1.415 . S
C2044 H2020 0.950 . S
C2044 C2039 1.363 . S
C2044 C2043 1.415 . S
C2045 H2021 0.951 . S
C2045 C2046 1.366 . S
C2045 C2047 1.388 . S
C2046 C2045 1.366 . S
C2046 C2050 1.385 . S
C2047 H2022 0.951 . S
C2047 C2045 1.388 . S
C2047 C2048 1.366 . S
C2048 C2047 1.366 . S
C2048 C2049 1.414 . S
C2048 C2051 1.499 . S
C2049 H2023 0.950 . S
C2049 C2048 1.414 . S
C2049 C2050 1.374 . S
C2050 H2024 0.950 . S
C2050 C2046 1.385 . S
C2050 C2049 1.374 . S
C2051 C2048 1.499 . S
C2051 C2052 1.373 . S
C2051 C2053 1.389 . S
C2052 H2025 0.950 . S
C2052 C2038 1.377 . S
C2052 C2051 1.373 . S
C2053 C2037 1.377 . S
C2053 C2051 1.389 . S
C2053 C2054 1.524 . S
C2054 C2053 1.524 . S
C2054 C2055 1.397 . S
C2054 C2059 1.363 . S
C2055 H2026 0.950 . S
C2055 C2054 1.397 . S
C2055 C2056 1.334 . S
C2056 H2027 0.950 . S
C2056 C2055 1.334 . S
C2056 C2057 1.287 . S
C2057 C2056 1.287 . S
C2057 C2058 1.524 . S
C2057 H2060 0.999 . S
C2058 H2028 0.950 . S
C2058 C2057 1.524 . S
C2058 C2059 1.415 . S
C2059 H2029 0.950 . S
C2059 C2054 1.363 . S
C2059 C2058 1.415 . S
H2060 C2057 0.999 . S
H2061 C2042 0.913 . S
H2062 C2080 0.951 . S
H2063 C2082 0.951 . S
H2064 C2084 0.950 . S
H2065 C2085 0.950 . S
H2066 C2087 0.950 . S
H2067 C2090 0.950 . S
H2068 C2091 0.950 . S
H2069 C2093 0.950 . S
H2070 C2094 0.950 . S
H2071 C2095 0.951 . S
H2072 C2097 0.951 . S
H2073 C2099 0.950 . S
H2074 C2100 0.950 . S
H2075 C2102 0.950 . S
H2076 C2105 0.950 . S
H2077 C2106 0.950 . S
H2078 C2108 0.950 . S
H2079 C2109 0.950 . S
C2080 H2062 0.951 . S
C2080 C2081 1.366 . S
C2080 C2082 1.388 . S
C2081 C2080 1.366 . S
C2081 C2085 1.385 . S
C2082 H2063 0.951 . S
C2082 C2080 1.388 . S
C2082 C2083 1.366 . S
C2083 C2082 1.366 . S
C2083 C2084 1.414 . S
C2083 C2086 1.499 . S
C2084 H2064 0.950 . S
C2084 C2083 1.414 . S
C2084 C2085 1.374 . S
C2085 H2065 0.950 . S
C2085 C2081 1.385 . S
C2085 C2084 1.374 . S
C2086 C2083 1.499 . S
C2086 C2087 1.373 . S
C2086 C2088 1.389 . S
C2087 H2066 0.950 . S
C2087 C2086 1.373 . S
C2087 C2103 1.377 . S
C2088 C2086 1.389 . S
C2088 C2089 1.524 . S
C2088 C2102 1.377 . S
C2089 C2088 1.524 . S
C2089 C2090 1.397 . S
C2089 C2094 1.363 . S
C2090 H2067 0.950 . S
C2090 C2089 1.397 . S
C2090 C2091 1.334 . S
C2091 H2068 0.950 . S
C2091 C2090 1.334 . S
C2091 C2092 1.287 . S
C2092 C2091 1.287 . S
C2092 C2093 1.524 . S
C2092 H2111 0.913 . S
C2093 H2069 0.950 . S
C2093 C2092 1.524 . S
C2093 C2094 1.415 . S
C2094 H2070 0.950 . S
C2094 C2089 1.363 . S
C2094 C2093 1.415 . S
C2095 H2071 0.951 . S
C2095 C2096 1.366 . S
C2095 C2097 1.388 . S
C2096 C2095 1.366 . S
C2096 C2100 1.385 . S
C2097 H2072 0.951 . S
C2097 C2095 1.388 . S
C2097 C2098 1.366 . S
C2098 C2097 1.366 . S
C2098 C2099 1.414 . S
C2098 C2101 1.499 . S
C2099 H2073 0.950 . S
C2099 C2098 1.414 . S
C2099 C2100 1.374 . S
C2100 H2074 0.950 . S
C2100 C2096 1.385 . S
C2100 C2099 1.374 . S
C2101 C2098 1.499 . S
C2101 C2102 1.373 . S
C2101 C2103 1.389 . S
C2102 H2075 0.950 . S
C2102 C2088 1.377 . S
C2102 C2101 1.373 . S
C2103 C2087 1.377 . S
C2103 C2101 1.389 . S
C2103 C2104 1.524 . S
C2104 C2103 1.524 . S
C2104 C2105 1.397 . S
C2104 C2109 1.363 . S
C2105 H2076 0.950 . S
C2105 C2104 1.397 . S
C2105 C2106 1.334 . S
C2106 H2077 0.950 . S
C2106 C2105 1.334 . S
C2106 C2107 1.287 . S
C2107 C2106 1.287 . S
C2107 C2108 1.524 . S
C2107 H2110 0.999 . S
C2108 H2078 0.950 . S
C2108 C2107 1.524 . S
C2108 C2109 1.415 . S
C2109 H2079 0.950 . S
C2109 C2104 1.363 . S
C2109 C2108 1.415 . S
H2110 C2107 0.999 . S
H2111 C2092 0.913 . S
H2112 C2130 0.951 . S
H2113 C2132 0.951 . S
H2114 C2134 0.950 . S
H2115 C2135 0.950 . S
H2116 C2137 0.950 . S
H2117 C2140 0.950 . S
H2118 C2141 0.950 . S
H2119 C2143 0.950 . S
H2120 C2144 0.950 . S
H2121 C2145 0.951 . S
H2122 C2147 0.951 . S
H2123 C2149 0.950 . S
H2124 C2150 0.950 . S
H2125 C2152 0.950 . S
H2126 C2155 0.950 . S
H2127 C2156 0.950 . S
H2128 C2158 0.950 . S
H2129 C2159 0.950 . S
C2130 H2112 0.951 . S
C2130 C2131 1.366 . S
C2130 C2132 1.388 . S
C2131 C2130 1.366 . S
C2131 C2135 1.385 . S
C2132 H2113 0.951 . S
C2132 C2130 1.388 . S
C2132 C2133 1.366 . S
C2133 C2132 1.366 . S
C2133 C2134 1.414 . S
C2133 C2136 1.499 . S
C2134 H2114 0.950 . S
C2134 C2133 1.414 . S
C2134 C2135 1.374 . S
C2135 H2115 0.950 . S
C2135 C2131 1.385 . S
C2135 C2134 1.374 . S
C2136 C2133 1.499 . S
C2136 C2137 1.373 . S
C2136 C2138 1.389 . S
C2137 H2116 0.950 . S
C2137 C2136 1.373 . S
C2137 C2153 1.377 . S
C2138 C2136 1.389 . S
C2138 C2139 1.524 . S
C2138 C2152 1.377 . S
C2139 C2138 1.524 . S
C2139 C2140 1.397 . S
C2139 C2144 1.363 . S
C2140 H2117 0.950 . S
C2140 C2139 1.397 . S
C2140 C2141 1.334 . S
C2141 H2118 0.950 . S
C2141 C2140 1.334 . S
C2141 C2142 1.287 . S
C2142 C2141 1.287 . S
C2142 C2143 1.524 . S
C2142 H2161 0.913 . S
C2143 H2119 0.950 . S
C2143 C2142 1.524 . S
C2143 C2144 1.415 . S
C2144 H2120 0.950 . S
C2144 C2139 1.363 . S
C2144 C2143 1.415 . S
C2145 H2121 0.951 . S
C2145 C2146 1.366 . S
C2145 C2147 1.388 . S
C2146 C2145 1.366 . S
C2146 C2150 1.385 . S
C2147 H2122 0.951 . S
C2147 C2145 1.388 . S
C2147 C2148 1.366 . S
C2148 C2147 1.366 . S
C2148 C2149 1.414 . S
C2148 C2151 1.499 . S
C2149 H2123 0.950 . S
C2149 C2148 1.414 . S
C2149 C2150 1.374 . S
C2150 H2124 0.950 . S
C2150 C2146 1.385 . S
C2150 C2149 1.374 . S
C2151 C2148 1.499 . S
C2151 C2152 1.373 . S
C2151 C2153 1.389 . S
C2152 H2125 0.950 . S
C2152 C2138 1.377 . S
C2152 C2151 1.373 . S
C2153 C2137 1.377 . S
C2153 C2151 1.389 . S
C2153 C2154 1.524 . S
C2154 C2153 1.524 . S
C2154 C2155 1.397 . S
C2154 C2159 1.363 . S
C2155 H2126 0.950 . S
C2155 C2154 1.397 . S
C2155 C2156 1.334 . S
C2156 H2127 0.950 . S
C2156 C2155 1.334 . S
C2156 C2157 1.287 . S
C2157 C2156 1.287 . S
C2157 C2158 1.524 . S
C2157 H2160 0.999 . S
C2158 H2128 0.950 . S
C2158 C2157 1.524 . S
C2158 C2159 1.415 . S
C2159 H2129 0.950 . S
C2159 C2154 1.363 . S
C2159 C2158 1.415 . S
H2160 C2157 0.999 . S
H2161 C2142 0.913 . S
H2162 C2180 0.951 . S
H2163 C2182 0.951 . S
H2164 C2184 0.950 . S
H2165 C2185 0.950 . S
H2166 C2187 0.950 . S
H2167 C2190 0.950 . S
H2168 C2191 0.950 . S
H2169 C2193 0.950 . S
H2170 C2194 0.950 . S
H2171 C2195 0.951 . S
H2172 C2197 0.951 . S
H2173 C2199 0.950 . S
H2174 C2200 0.950 . S
H2175 C2202 0.950 . S
H2176 C2205 0.950 . S
H2177 C2206 0.950 . S
H2178 C2208 0.950 . S
H2179 C2209 0.950 . S
C2180 H2162 0.951 . S
C2180 C2181 1.366 . S
C2180 C2182 1.388 . S
C2181 C2180 1.366 . S
C2181 C2185 1.385 . S
C2182 H2163 0.951 . S
C2182 C2180 1.388 . S
C2182 C2183 1.366 . S
C2183 C2182 1.366 . S
C2183 C2184 1.414 . S
C2183 C2186 1.499 . S
C2184 H2164 0.950 . S
C2184 C2183 1.414 . S
C2184 C2185 1.374 . S
C2185 H2165 0.950 . S
C2185 C2181 1.385 . S
C2185 C2184 1.374 . S
C2186 C2183 1.499 . S
C2186 C2187 1.373 . S
C2186 C2188 1.389 . S
C2187 H2166 0.950 . S
C2187 C2186 1.373 . S
C2187 C2203 1.377 . S
C2188 C2186 1.389 . S
C2188 C2189 1.524 . S
C2188 C2202 1.377 . S
C2189 C2188 1.524 . S
C2189 C2190 1.397 . S
C2189 C2194 1.363 . S
C2190 H2167 0.950 . S
C2190 C2189 1.397 . S
C2190 C2191 1.334 . S
C2191 H2168 0.950 . S
C2191 C2190 1.334 . S
C2191 C2192 1.287 . S
C2192 C2191 1.287 . S
C2192 C2193 1.524 . S
C2192 H2211 0.913 . S
C2193 H2169 0.950 . S
C2193 C2192 1.524 . S
C2193 C2194 1.415 . S
C2194 H2170 0.950 . S
C2194 C2189 1.363 . S
C2194 C2193 1.415 . S
C2195 H2171 0.951 . S
C2195 C2196 1.366 . S
C2195 C2197 1.388 . S
C2196 C2195 1.366 . S
C2196 C2200 1.385 . S
C2197 H2172 0.951 . S
C2197 C2195 1.388 . S
C2197 C2198 1.366 . S
C2198 C2197 1.366 . S
C2198 C2199 1.414 . S
C2198 C2201 1.499 . S
C2199 H2173 0.950 . S
C2199 C2198 1.414 . S
C2199 C2200 1.374 . S
C2200 H2174 0.950 . S
C2200 C2196 1.385 . S
C2200 C2199 1.374 . S
C2201 C2198 1.499 . S
C2201 C2202 1.373 . S
C2201 C2203 1.389 . S
C2202 H2175 0.950 . S
C2202 C2188 1.377 . S
C2202 C2201 1.373 . S
C2203 C2187 1.377 . S
C2203 C2201 1.389 . S
C2203 C2204 1.524 . S
C2204 C2203 1.524 . S
C2204 C2205 1.397 . S
C2204 C2209 1.363 . S
C2205 H2176 0.950 . S
C2205 C2204 1.397 . S
C2205 C2206 1.334 . S
C2206 H2177 0.950 . S
C2206 C2205 1.334 . S
C2206 C2207 1.287 . S
C2207 C2206 1.287 . S
C2207 C2208 1.524 . S
C2207 H2210 0.999 . S
C2208 H2178 0.950 . S
C2208 C2207 1.524 . S
C2208 C2209 1.415 . S
C2209 H2179 0.950 . S
C2209 C2204 1.363 . S
C2209 C2208 1.415 . S
H2210 C2207 0.999 . S
H2211 C2192 0.913 . S
H2212 C2230 0.951 . S
H2213 C2232 0.951 . S
H2214 C2234 0.950 . S
H2215 C2235 0.950 . S
H2216 C2237 0.950 . S
H2217 C2240 0.950 . S
H2218 C2241 0.950 . S
H2219 C2243 0.950 . S
H2220 C2244 0.950 . S
H2221 C2245 0.951 . S
H2222 C2247 0.951 . S
H2223 C2249 0.950 . S
H2224 C2250 0.950 . S
H2225 C2252 0.950 . S
H2226 C2255 0.950 . S
H2227 C2256 0.950 . S
H2228 C2258 0.950 . S
H2229 C2259 0.950 . S
C2230 H2212 0.951 . S
C2230 C2231 1.366 . S
C2230 C2232 1.388 . S
C2231 C2230 1.366 . S
C2231 C2235 1.385 . S
C2232 H2213 0.951 . S
C2232 C2230 1.388 . S
C2232 C2233 1.366 . S
C2233 C2232 1.366 . S
C2233 C2234 1.414 . S
C2233 C2236 1.499 . S
C2234 H2214 0.950 . S
C2234 C2233 1.414 . S
C2234 C2235 1.374 . S
C2235 H2215 0.950 . S
C2235 C2231 1.385 . S
C2235 C2234 1.374 . S
C2236 C2233 1.499 . S
C2236 C2237 1.373 . S
C2236 C2238 1.389 . S
C2237 H2216 0.950 . S
C2237 C2236 1.373 . S
C2237 C2253 1.377 . S
C2238 C2236 1.389 . S
C2238 C2239 1.524 . S
C2238 C2252 1.377 . S
C2239 C2238 1.524 . S
C2239 C2240 1.397 . S
C2239 C2244 1.363 . S
C2240 H2217 0.950 . S
C2240 C2239 1.397 . S
C2240 C2241 1.334 . S
C2241 H2218 0.950 . S
C2241 C2240 1.334 . S
C2241 C2242 1.287 . S
C2242 C2241 1.287 . S
C2242 C2243 1.524 . S
C2242 H2261 0.913 . S
C2243 H2219 0.950 . S
C2243 C2242 1.524 . S
C2243 C2244 1.415 . S
C2244 H2220 0.950 . S
C2244 C2239 1.363 . S
C2244 C2243 1.415 . S
C2245 H2221 0.951 . S
C2245 C2246 1.366 . S
C2245 C2247 1.388 . S
C2246 C2245 1.366 . S
C2246 C2250 1.385 . S
C2247 H2222 0.951 . S
C2247 C2245 1.388 . S
C2247 C2248 1.366 . S
C2248 C2247 1.366 . S
C2248 C2249 1.414 . S
C2248 C2251 1.499 . S
C2249 H2223 0.950 . S
C2249 C2248 1.414 . S
C2249 C2250 1.374 . S
C2250 H2224 0.950 . S
C2250 C2246 1.385 . S
C2250 C2249 1.374 . S
C2251 C2248 1.499 . S
C2251 C2252 1.373 . S
C2251 C2253 1.389 . S
C2252 H2225 0.950 . S
C2252 C2238 1.377 . S
C2252 C2251 1.373 . S
C2253 C2237 1.377 . S
C2253 C2251 1.389 . S
C2253 C2254 1.524 . S
C2254 C2253 1.524 . S
C2254 C2255 1.397 . S
C2254 C2259 1.363 . S
C2255 H2226 0.950 . S
C2255 C2254 1.397 . S
C2255 C2256 1.334 . S
C2256 H2227 0.950 . S
C2256 C2255 1.334 . S
C2256 C2257 1.287 . S
C2257 C2256 1.287 . S
C2257 C2258 1.524 . S
C2257 H2260 0.999 . S
C2258 H2228 0.950 . S
C2258 C2257 1.524 . S
C2258 C2259 1.415 . S
C2259 H2229 0.950 . S
C2259 C2254 1.363 . S
C2259 C2258 1.415 . S
H2260 C2257 0.999 . S
H2261 C2242 0.913 . S
H2262 C2280 0.951 . S
H2263 C2282 0.951 . S
H2264 C2284 0.950 . S
H2265 C2285 0.950 . S
H2266 C2287 0.950 . S
H2267 C2290 0.950 . S
H2268 C2291 0.950 . S
H2269 C2293 0.950 . S
H2270 C2294 0.950 . S
H2271 C2295 0.951 . S
H2272 C2297 0.951 . S
H2273 C2299 0.950 . S
H2274 C2300 0.950 . S
H2275 C2302 0.950 . S
H2276 C2305 0.950 . S
H2277 C2306 0.950 . S
H2278 C2308 0.950 . S
H2279 C2309 0.950 . S
C2280 H2262 0.951 . S
C2280 C2281 1.366 . S
C2280 C2282 1.388 . S
C2281 C2280 1.366 . S
C2281 C2285 1.385 . S
C2282 H2263 0.951 . S
C2282 C2280 1.388 . S
C2282 C2283 1.366 . S
C2283 C2282 1.366 . S
C2283 C2284 1.414 . S
C2283 C2286 1.499 . S
C2284 H2264 0.950 . S
C2284 C2283 1.414 . S
C2284 C2285 1.374 . S
C2285 H2265 0.950 . S
C2285 C2281 1.385 . S
C2285 C2284 1.374 . S
C2286 C2283 1.499 . S
C2286 C2287 1.373 . S
C2286 C2288 1.389 . S
C2287 H2266 0.950 . S
C2287 C2286 1.373 . S
C2287 C2303 1.377 . S
C2288 C2286 1.389 . S
C2288 C2289 1.524 . S
C2288 C2302 1.377 . S
C2289 C2288 1.524 . S
C2289 C2290 1.397 . S
C2289 C2294 1.363 . S
C2290 H2267 0.950 . S
C2290 C2289 1.397 . S
C2290 C2291 1.334 . S
C2291 H2268 0.950 . S
C2291 C2290 1.334 . S
C2291 C2292 1.287 . S
C2292 C2291 1.287 . S
C2292 C2293 1.524 . S
C2292 H2311 0.913 . S
C2293 H2269 0.950 . S
C2293 C2292 1.524 . S
C2293 C2294 1.415 . S
C2294 H2270 0.950 . S
C2294 C2289 1.363 . S
C2294 C2293 1.415 . S
C2295 H2271 0.951 . S
C2295 C2296 1.366 . S
C2295 C2297 1.388 . S
C2296 C2295 1.366 . S
C2296 C2300 1.385 . S
C2297 H2272 0.951 . S
C2297 C2295 1.388 . S
C2297 C2298 1.366 . S
C2298 C2297 1.366 . S
C2298 C2299 1.414 . S
C2298 C2301 1.499 . S
C2299 H2273 0.950 . S
C2299 C2298 1.414 . S
C2299 C2300 1.374 . S
C2300 H2274 0.950 . S
C2300 C2296 1.385 . S
C2300 C2299 1.374 . S
C2301 C2298 1.499 . S
C2301 C2302 1.373 . S
C2301 C2303 1.389 . S
C2302 H2275 0.950 . S
C2302 C2288 1.377 . S
C2302 C2301 1.373 . S
C2303 C2287 1.377 . S
C2303 C2301 1.389 . S
C2303 C2304 1.524 . S
C2304 C2303 1.524 . S
C2304 C2305 1.397 . S
C2304 C2309 1.363 . S
C2305 H2276 0.950 . S
C2305 C2304 1.397 . S
C2305 C2306 1.334 . S
C2306 H2277 0.950 . S
C2306 C2305 1.334 . S
C2306 C2307 1.287 . S
C2307 C2306 1.287 . S
C2307 C2308 1.524 . S
C2307 H2310 0.999 . S
C2308 H2278 0.950 . S
C2308 C2307 1.524 . S
C2308 C2309 1.415 . S
C2309 H2279 0.950 . S
C2309 C2304 1.363 . S
C2309 C2308 1.415 . S
H2310 C2307 0.999 . S
H2311 C2292 0.913 . S
H2312 C2330 0.951 . S
H2313 C2332 0.951 . S
H2314 C2334 0.950 . S
H2315 C2335 0.950 . S
H2316 C2337 0.950 . S
H2317 C2340 0.950 . S
H2318 C2341 0.950 . S
H2319 C2343 0.950 . S
H2320 C2344 0.950 . S
H2321 C2345 0.951 . S
H2322 C2347 0.951 . S
H2323 C2349 0.950 . S
H2324 C2350 0.950 . S
H2325 C2352 0.950 . S
H2326 C2355 0.950 . S
H2327 C2356 0.950 . S
H2328 C2358 0.950 . S
H2329 C2359 0.950 . S
C2330 H2312 0.951 . S
C2330 C2331 1.366 . S
C2330 C2332 1.388 . S
C2331 C2330 1.366 . S
C2331 C2335 1.385 . S
C2332 H2313 0.951 . S
C2332 C2330 1.388 . S
C2332 C2333 1.366 . S
C2333 C2332 1.366 . S
C2333 C2334 1.414 . S
C2333 C2336 1.499 . S
C2334 H2314 0.950 . S
C2334 C2333 1.414 . S
C2334 C2335 1.374 . S
C2335 H2315 0.950 . S
C2335 C2331 1.385 . S
C2335 C2334 1.374 . S
C2336 C2333 1.499 . S
C2336 C2337 1.373 . S
C2336 C2338 1.389 . S
C2337 H2316 0.950 . S
C2337 C2336 1.373 . S
C2337 C2353 1.377 . S
C2338 C2336 1.389 . S
C2338 C2339 1.524 . S
C2338 C2352 1.377 . S
C2339 C2338 1.524 . S
C2339 C2340 1.397 . S
C2339 C2344 1.363 . S
C2340 H2317 0.950 . S
C2340 C2339 1.397 . S
C2340 C2341 1.334 . S
C2341 H2318 0.950 . S
C2341 C2340 1.334 . S
C2341 C2342 1.287 . S
C2342 C2341 1.287 . S
C2342 C2343 1.524 . S
C2342 H2361 0.913 . S
C2343 H2319 0.950 . S
C2343 C2342 1.524 . S
C2343 C2344 1.415 . S
C2344 H2320 0.950 . S
C2344 C2339 1.363 . S
C2344 C2343 1.415 . S
C2345 H2321 0.951 . S
C2345 C2346 1.366 . S
C2345 C2347 1.388 . S
C2346 C2345 1.366 . S
C2346 C2350 1.385 . S
C2347 H2322 0.951 . S
C2347 C2345 1.388 . S
C2347 C2348 1.366 . S
C2348 C2347 1.366 . S
C2348 C2349 1.414 . S
C2348 C2351 1.499 . S
C2349 H2323 0.950 . S
C2349 C2348 1.414 . S
C2349 C2350 1.374 . S
C2350 H2324 0.950 . S
C2350 C2346 1.385 . S
C2350 C2349 1.374 . S
C2351 C2348 1.499 . S
C2351 C2352 1.373 . S
C2351 C2353 1.389 . S
C2352 H2325 0.950 . S
C2352 C2338 1.377 . S
C2352 C2351 1.373 . S
C2353 C2337 1.377 . S
C2353 C2351 1.389 . S
C2353 C2354 1.524 . S
C2354 C2353 1.524 . S
C2354 C2355 1.397 . S
C2354 C2359 1.363 . S
C2355 H2326 0.950 . S
C2355 C2354 1.397 . S
C2355 C2356 1.334 . S
C2356 H2327 0.950 . S
C2356 C2355 1.334 . S
C2356 C2357 1.287 . S
C2357 C2356 1.287 . S
C2357 C2358 1.524 . S
C2357 H2360 0.999 . S
C2358 H2328 0.950 . S
C2358 C2357 1.524 . S
C2358 C2359 1.415 . S
C2359 H2329 0.950 . S
C2359 C2354 1.363 . S
C2359 C2358 1.415 . S
H2360 C2357 0.999 . S
H2361 C2342 0.913 . S
H2362 C2380 0.951 . S
H2363 C2382 0.951 . S
H2364 C2384 0.950 . S
H2365 C2385 0.950 . S
H2366 C2387 0.950 . S
H2367 C2390 0.950 . S
H2368 C2391 0.950 . S
H2369 C2393 0.950 . S
H2370 C2394 0.950 . S
H2371 C2395 0.951 . S
H2372 C2397 0.951 . S
H2373 C2399 0.950 . S
H2374 C2400 0.950 . S
H2375 C2402 0.950 . S
H2376 C2405 0.950 . S
H2377 C2406 0.950 . S
H2378 C2408 0.950 . S
H2379 C2409 0.950 . S
C2380 H2362 0.951 . S
C2380 C2381 1.366 . S
C2380 C2382 1.388 . S
C2381 C2380 1.366 . S
C2381 C2385 1.385 . S
C2382 H2363 0.951 . S
C2382 C2380 1.388 . S
C2382 C2383 1.366 . S
C2383 C2382 1.366 . S
C2383 C2384 1.414 . S
C2383 C2386 1.499 . S
C2384 H2364 0.950 . S
C2384 C2383 1.414 . S
C2384 C2385 1.374 . S
C2385 H2365 0.950 . S
C2385 C2381 1.385 . S
C2385 C2384 1.374 . S
C2386 C2383 1.499 . S
C2386 C2387 1.373 . S
C2386 C2388 1.389 . S
C2387 H2366 0.950 . S
C2387 C2386 1.373 . S
C2387 C2403 1.377 . S
C2388 C2386 1.389 . S
C2388 C2389 1.524 . S
C2388 C2402 1.377 . S
C2389 C2388 1.524 . S
C2389 C2390 1.397 . S
C2389 C2394 1.363 . S
C2390 H2367 0.950 . S
C2390 C2389 1.397 . S
C2390 C2391 1.334 . S
C2391 H2368 0.950 . S
C2391 C2390 1.334 . S
C2391 C2392 1.287 . S
C2392 C2391 1.287 . S
C2392 C2393 1.524 . S
C2392 H2411 0.913 . S
C2393 H2369 0.950 . S
C2393 C2392 1.524 . S
C2393 C2394 1.415 . S
C2394 H2370 0.950 . S
C2394 C2389 1.363 . S
C2394 C2393 1.415 . S
C2395 H2371 0.951 . S
C2395 C2396 1.366 . S
C2395 C2397 1.388 . S
C2396 C2395 1.366 . S
C2396 C2400 1.385 . S
C2397 H2372 0.951 . S
C2397 C2395 1.388 . S
C2397 C2398 1.366 . S
C2398 C2397 1.366 . S
C2398 C2399 1.414 . S
C2398 C2401 1.499 . S
C2399 H2373 0.950 . S
C2399 C2398 1.414 . S
C2399 C2400 1.374 . S
C2400 H2374 0.950 . S
C2400 C2396 1.385 . S
C2400 C2399 1.374 . S
C2401 C2398 1.499 . S
C2401 C2402 1.373 . S
C2401 C2403 1.389 . S
C2402 H2375 0.950 . S
C2402 C2388 1.377 . S
C2402 C2401 1.373 . S
C2403 C2387 1.377 . S
C2403 C2401 1.389 . S
C2403 C2404 1.524 . S
C2404 C2403 1.524 . S
C2404 C2405 1.397 . S
C2404 C2409 1.363 . S
C2405 H2376 0.950 . S
C2405 C2404 1.397 . S
C2405 C2406 1.334 . S
C2406 H2377 0.950 . S
C2406 C2405 1.334 . S
C2406 C2407 1.287 . S
C2407 C2406 1.287 . S
C2407 C2408 1.524 . S
C2407 H2410 0.999 . S
C2408 H2378 0.950 . S
C2408 C2407 1.524 . S
C2408 C2409 1.415 . S
C2409 H2379 0.950 . S
C2409 C2404 1.363 . S
C2409 C2408 1.415 . S
H2410 C2407 0.999 . S
H2411 C2392 0.913 . S
H2412 C2430 0.951 . S
H2413 C2432 0.951 . S
H2414 C2434 0.950 . S
H2415 C2435 0.950 . S
H2416 C2437 0.950 . S
H2417 C2440 0.950 . S
H2418 C2441 0.950 . S
H2419 C2443 0.950 . S
H2420 C2444 0.950 . S
H2421 C2445 0.951 . S
H2422 C2447 0.951 . S
H2423 C2449 0.950 . S
H2424 C2450 0.950 . S
H2425 C2452 0.950 . S
H2426 C2455 0.950 . S
H2427 C2456 0.950 . S
H2428 C2458 0.950 . S
H2429 C2459 0.950 . S
C2430 H2412 0.951 . S
C2430 C2431 1.366 . S
C2430 C2432 1.388 . S
C2431 C2430 1.366 . S
C2431 C2435 1.385 . S
C2432 H2413 0.951 . S
C2432 C2430 1.388 . S
C2432 C2433 1.366 . S
C2433 C2432 1.366 . S
C2433 C2434 1.414 . S
C2433 C2436 1.499 . S
C2434 H2414 0.950 . S
C2434 C2433 1.414 . S
C2434 C2435 1.374 . S
C2435 H2415 0.950 . S
C2435 C2431 1.385 . S
C2435 C2434 1.374 . S
C2436 C2433 1.499 . S
C2436 C2437 1.373 . S
C2436 C2438 1.389 . S
C2437 H2416 0.950 . S
C2437 C2436 1.373 . S
C2437 C2453 1.377 . S
C2438 C2436 1.389 . S
C2438 C2439 1.524 . S
C2438 C2452 1.377 . S
C2439 C2438 1.524 . S
C2439 C2440 1.397 . S
C2439 C2444 1.363 . S
C2440 H2417 0.950 . S
C2440 C2439 1.397 . S
C2440 C2441 1.334 . S
C2441 H2418 0.950 . S
C2441 C2440 1.334 . S
C2441 C2442 1.287 . S
C2442 C2441 1.287 . S
C2442 C2443 1.524 . S
C2442 H2461 0.913 . S
C2443 H2419 0.950 . S
C2443 C2442 1.524 . S
C2443 C2444 1.415 . S
C2444 H2420 0.950 . S
C2444 C2439 1.363 . S
C2444 C2443 1.415 . S
C2445 H2421 0.951 . S
C2445 C2446 1.366 . S
C2445 C2447 1.388 . S
C2446 C2445 1.366 . S
C2446 C2450 1.385 . S
C2447 H2422 0.951 . S
C2447 C2445 1.388 . S
C2447 C2448 1.366 . S
C2448 C2447 1.366 . S
C2448 C2449 1.414 . S
C2448 C2451 1.499 . S
C2449 H2423 0.950 . S
C2449 C2448 1.414 . S
C2449 C2450 1.374 . S
C2450 H2424 0.950 . S
C2450 C2446 1.385 . S
C2450 C2449 1.374 . S
C2451 C2448 1.499 . S
C2451 C2452 1.373 . S
C2451 C2453 1.389 . S
C2452 H2425 0.950 . S
C2452 C2438 1.377 . S
C2452 C2451 1.373 . S
C2453 C2437 1.377 . S
C2453 C2451 1.389 . S
C2453 C2454 1.524 . S
C2454 C2453 1.524 . S
C2454 C2455 1.397 . S
C2454 C2459 1.363 . S
C2455 H2426 0.950 . S
C2455 C2454 1.397 . S
C2455 C2456 1.334 . S
C2456 H2427 0.950 . S
C2456 C2455 1.334 . S
C2456 C2457 1.287 . S
C2457 C2456 1.287 . S
C2457 C2458 1.524 . S
C2457 H2460 0.999 . S
C2458 H2428 0.950 . S
C2458 C2457 1.524 . S
C2458 C2459 1.415 . S
C2459 H2429 0.950 . S
C2459 C2454 1.363 . S
C2459 C2458 1.415 . S
H2460 C2457 0.999 . S
H2461 C2442 0.913 . S
H2462 C2480 0.951 . S
H2463 C2482 0.951 . S
H2464 C2484 0.950 . S
H2465 C2485 0.950 . S
H2466 C2487 0.950 . S
H2467 C2490 0.950 . S
H2468 C2491 0.950 . S
H2469 C2493 0.950 . S
H2470 C2494 0.950 . S
H2471 C2495 0.951 . S
H2472 C2497 0.951 . S
H2473 C2499 0.950 . S
H2474 C2500 0.950 . S
H2475 C2502 0.950 . S
H2476 C2505 0.950 . S
H2477 C2506 0.950 . S
H2478 C2508 0.950 . S
H2479 C2509 0.950 . S
C2480 H2462 0.951 . S
C2480 C2481 1.366 . S
C2480 C2482 1.388 . S
C2481 C2480 1.366 . S
C2481 C2485 1.385 . S
C2482 H2463 0.951 . S
C2482 C2480 1.388 . S
C2482 C2483 1.366 . S
C2483 C2482 1.366 . S
C2483 C2484 1.414 . S
C2483 C2486 1.499 . S
C2484 H2464 0.950 . S
C2484 C2483 1.414 . S
C2484 C2485 1.374 . S
C2485 H2465 0.950 . S
C2485 C2481 1.385 . S
C2485 C2484 1.374 . S
C2486 C2483 1.499 . S
C2486 C2487 1.373 . S
C2486 C2488 1.389 . S
C2487 H2466 0.950 . S
C2487 C2486 1.373 . S
C2487 C2503 1.377 . S
C2488 C2486 1.389 . S
C2488 C2489 1.524 . S
C2488 C2502 1.377 . S
C2489 C2488 1.524 . S
C2489 C2490 1.397 . S
C2489 C2494 1.363 . S
C2490 H2467 0.950 . S
C2490 C2489 1.397 . S
C2490 C2491 1.334 . S
C2491 H2468 0.950 . S
C2491 C2490 1.334 . S
C2491 C2492 1.287 . S
C2492 C2491 1.287 . S
C2492 C2493 1.524 . S
C2492 H2511 0.913 . S
C2493 H2469 0.950 . S
C2493 C2492 1.524 . S
C2493 C2494 1.415 . S
C2494 H2470 0.950 . S
C2494 C2489 1.363 . S
C2494 C2493 1.415 . S
C2495 H2471 0.951 . S
C2495 C2496 1.366 . S
C2495 C2497 1.388 . S
C2496 C2495 1.366 . S
C2496 C2500 1.385 . S
C2497 H2472 0.951 . S
C2497 C2495 1.388 . S
C2497 C2498 1.366 . S
C2498 C2497 1.366 . S
C2498 C2499 1.414 . S
C2498 C2501 1.499 . S
C2499 H2473 0.950 . S
C2499 C2498 1.414 . S
C2499 C2500 1.374 . S
C2500 H2474 0.950 . S
C2500 C2496 1.385 . S
C2500 C2499 1.374 . S
C2501 C2498 1.499 . S
C2501 C2502 1.373 . S
C2501 C2503 1.389 . S
C2502 H2475 0.950 . S
C2502 C2488 1.377 . S
C2502 C2501 1.373 . S
C2503 C2487 1.377 . S
C2503 C2501 1.389 . S
C2503 C2504 1.524 . S
C2504 C2503 1.524 . S
C2504 C2505 1.397 . S
C2504 C2509 1.363 . S
C2505 H2476 0.950 . S
C2505 C2504 1.397 . S
C2505 C2506 1.334 . S
C2506 H2477 0.950 . S
C2506 C2505 1.334 . S
C2506 C2507 1.287 . S
C2507 C2506 1.287 . S
C2507 C2508 1.524 . S
C2507 H2510 0.999 . S
C2508 H2478 0.950 . S
C2508 C2507 1.524 . S
C2508 C2509 1.415 . S
C2509 H2479 0.950 . S
C2509 C2504 1.363 . S
C2509 C2508 1.415 . S
H2510 C2507 0.999 . S
H2511 C2492 0.913 . S
H2512 C2530 0.951 . S
H2513 C2532 0.951 . S
H2514 C2534 0.950 . S
H2515 C2535 0.950 . S
H2516 C2537 0.950 . S
H2517 C2540 0.950 . S
H2518 C2541 0.950 . S
H2519 C2543 0.950 . S
H2520 C2544 0.950 . S
H2521 C2545 0.951 . S
H2522 C2547 0.951 . S
H2523 C2549 0.950 . S
H2524 C2550 0.950 . S
H2525 C2552 0.950 . S
H2526 C2555 0.950 . S
H2527 C2556 0.950 . S
H2528 C2558 0.950 . S
H2529 C2559 0.950 . S
C2530 H2512 0.951 . S
C2530 C2531 1.366 . S
C2530 C2532 1.388 . S
C2531 C2530 1.366 . S
C2531 C2535 1.385 . S
C2532 H2513 0.951 . S
C2532 C2530 1.388 . S
C2532 C2533 1.366 . S
C2533 C2532 1.366 . S
C2533 C2534 1.414 . S
C2533 C2536 1.499 . S
C2534 H2514 0.950 . S
C2534 C2533 1.414 . S
C2534 C2535 1.374 . S
C2535 H2515 0.950 . S
C2535 C2531 1.385 . S
C2535 C2534 1.374 . S
C2536 C2533 1.499 . S
C2536 C2537 1.373 . S
C2536 C2538 1.389 . S
C2537 H2516 0.950 . S
C2537 C2536 1.373 . S
C2537 C2553 1.377 . S
C2538 C2536 1.389 . S
C2538 C2539 1.524 . S
C2538 C2552 1.377 . S
C2539 C2538 1.524 . S
C2539 C2540 1.397 . S
C2539 C2544 1.363 . S
C2540 H2517 0.950 . S
C2540 C2539 1.397 . S
C2540 C2541 1.334 . S
C2541 H2518 0.950 . S
C2541 C2540 1.334 . S
C2541 C2542 1.287 . S
C2542 C2541 1.287 . S
C2542 C2543 1.524 . S
C2542 H2561 0.913 . S
C2543 H2519 0.950 . S
C2543 C2542 1.524 . S
C2543 C2544 1.415 . S
C2544 H2520 0.950 . S
C2544 C2539 1.363 . S
C2544 C2543 1.415 . S
C2545 H2521 0.951 . S
C2545 C2546 1.366 . S
C2545 C2547 1.388 . S
C2546 C2545 1.366 . S
C2546 C2550 1.385 . S
C2547 H2522 0.951 . S
C2547 C2545 1.388 . S
C2547 C2548 1.366 . S
C2548 C2547 1.366 . S
C2548 C2549 1.414 . S
C2548 C2551 1.499 . S
C2549 H2523 0.950 . S
C2549 C2548 1.414 . S
C2549 C2550 1.374 . S
C2550 H2524 0.950 . S
C2550 C2546 1.385 . S
C2550 C2549 1.374 . S
C2551 C2548 1.499 . S
C2551 C2552 1.373 . S
C2551 C2553 1.389 . S
C2552 H2525 0.950 . S
C2552 C2538 1.377 . S
C2552 C2551 1.373 . S
C2553 C2537 1.377 . S
C2553 C2551 1.389 . S
C2553 C2554 1.524 . S
C2554 C2553 1.524 . S
C2554 C2555 1.397 . S
C2554 C2559 1.363 . S
C2555 H2526 0.950 . S
C2555 C2554 1.397 . S
C2555 C2556 1.334 . S
C2556 H2527 0.950 . S
C2556 C2555 1.334 . S
C2556 C2557 1.287 . S
C2557 C2556 1.287 . S
C2557 C2558 1.524 . S
C2557 H2560 0.999 . S
C2558 H2528 0.950 . S
C2558 C2557 1.524 . S
C2558 C2559 1.415 . S
C2559 H2529 0.950 . S
C2559 C2554 1.363 . S
C2559 C2558 1.415 . S
H2560 C2557 0.999 . S
H2561 C2542 0.913 . S
H2562 C2580 0.951 . S
H2563 C2582 0.951 . S
H2564 C2584 0.950 . S
H2565 C2585 0.950 . S
H2566 C2587 0.950 . S
H2567 C2590 0.950 . S
H2568 C2591 0.950 . S
H2569 C2593 0.950 . S
H2570 C2594 0.950 . S
H2571 C2595 0.951 . S
H2572 C2597 0.951 . S
H2573 C2599 0.950 . S
H2574 C2600 0.950 . S
H2575 C2602 0.950 . S
H2576 C2605 0.950 . S
H2577 C2606 0.950 . S
H2578 C2608 0.950 . S
H2579 C2609 0.950 . S
C2580 H2562 0.951 . S
C2580 C2581 1.366 . S
C2580 C2582 1.388 . S
C2581 C2580 1.366 . S
C2581 C2585 1.385 . S
C2582 H2563 0.951 . S
C2582 C2580 1.388 . S
C2582 C2583 1.366 . S
C2583 C2582 1.366 . S
C2583 C2584 1.414 . S
C2583 C2586 1.499 . S
C2584 H2564 0.950 . S
C2584 C2583 1.414 . S
C2584 C2585 1.374 . S
C2585 H2565 0.950 . S
C2585 C2581 1.385 . S
C2585 C2584 1.374 . S
C2586 C2583 1.499 . S
C2586 C2587 1.373 . S
C2586 C2588 1.389 . S
C2587 H2566 0.950 . S
C2587 C2586 1.373 . S
C2587 C2603 1.377 . S
C2588 C2586 1.389 . S
C2588 C2589 1.524 . S
C2588 C2602 1.377 . S
C2589 C2588 1.524 . S
C2589 C2590 1.397 . S
C2589 C2594 1.363 . S
C2590 H2567 0.950 . S
C2590 C2589 1.397 . S
C2590 C2591 1.334 . S
C2591 H2568 0.950 . S
C2591 C2590 1.334 . S
C2591 C2592 1.287 . S
C2592 C2591 1.287 . S
C2592 C2593 1.524 . S
C2592 H2611 0.913 . S
C2593 H2569 0.950 . S
C2593 C2592 1.524 . S
C2593 C2594 1.415 . S
C2594 H2570 0.950 . S
C2594 C2589 1.363 . S
C2594 C2593 1.415 . S
C2595 H2571 0.951 . S
C2595 C2596 1.366 . S
C2595 C2597 1.388 . S
C2596 C2595 1.366 . S
C2596 C2600 1.385 . S
C2597 H2572 0.951 . S
C2597 C2595 1.388 . S
C2597 C2598 1.366 . S
C2598 C2597 1.366 . S
C2598 C2599 1.414 . S
C2598 C2601 1.499 . S
C2599 H2573 0.950 . S
C2599 C2598 1.414 . S
C2599 C2600 1.374 . S
C2600 H2574 0.950 . S
C2600 C2596 1.385 . S
C2600 C2599 1.374 . S
C2601 C2598 1.499 . S
C2601 C2602 1.373 . S
C2601 C2603 1.389 . S
C2602 H2575 0.950 . S
C2602 C2588 1.377 . S
C2602 C2601 1.373 . S
C2603 C2587 1.377 . S
C2603 C2601 1.389 . S
C2603 C2604 1.524 . S
C2604 C2603 1.524 . S
C2604 C2605 1.397 . S
C2604 C2609 1.363 . S
C2605 H2576 0.950 . S
C2605 C2604 1.397 . S
C2605 C2606 1.334 . S
C2606 H2577 0.950 . S
C2606 C2605 1.334 . S
C2606 C2607 1.287 . S
C2607 C2606 1.287 . S
C2607 C2608 1.524 . S
C2607 H2610 0.999 . S
C2608 H2578 0.950 . S
C2608 C2607 1.524 . S
C2608 C2609 1.415 . S
C2609 H2579 0.950 . S
C2609 C2604 1.363 . S
C2609 C2608 1.415 . S
H2610 C2607 0.999 . S
H2611 C2592 0.913 . S
H2612 C2630 0.951 . S
H2613 C2632 0.951 . S
H2614 C2634 0.950 . S
H2615 C2635 0.950 . S
H2616 C2637 0.950 . S
H2617 C2640 0.950 . S
H2618 C2641 0.950 . S
H2619 C2643 0.950 . S
H2620 C2644 0.950 . S
H2621 C2645 0.951 . S
H2622 C2647 0.951 . S
H2623 C2649 0.950 . S
H2624 C2650 0.950 . S
H2625 C2652 0.950 . S
H2626 C2655 0.950 . S
H2627 C2656 0.950 . S
H2628 C2658 0.950 . S
H2629 C2659 0.950 . S
C2630 H2612 0.951 . S
C2630 C2631 1.366 . S
C2630 C2632 1.388 . S
C2631 C2630 1.366 . S
C2631 C2635 1.385 . S
C2632 H2613 0.951 . S
C2632 C2630 1.388 . S
C2632 C2633 1.366 . S
C2633 C2632 1.366 . S
C2633 C2634 1.414 . S
C2633 C2636 1.499 . S
C2634 H2614 0.950 . S
C2634 C2633 1.414 . S
C2634 C2635 1.374 . S
C2635 H2615 0.950 . S
C2635 C2631 1.385 . S
C2635 C2634 1.374 . S
C2636 C2633 1.499 . S
C2636 C2637 1.373 . S
C2636 C2638 1.389 . S
C2637 H2616 0.950 . S
C2637 C2636 1.373 . S
C2637 C2653 1.377 . S
C2638 C2636 1.389 . S
C2638 C2639 1.524 . S
C2638 C2652 1.377 . S
C2639 C2638 1.524 . S
C2639 C2640 1.397 . S
C2639 C2644 1.363 . S
C2640 H2617 0.950 . S
C2640 C2639 1.397 . S
C2640 C2641 1.334 . S
C2641 H2618 0.950 . S
C2641 C2640 1.334 . S
C2641 C2642 1.287 . S
C2642 C2641 1.287 . S
C2642 C2643 1.524 . S
C2642 H2661 0.913 . S
C2643 H2619 0.950 . S
C2643 C2642 1.524 . S
C2643 C2644 1.415 . S
C2644 H2620 0.950 . S
C2644 C2639 1.363 . S
C2644 C2643 1.415 . S
C2645 H2621 0.951 . S
C2645 C2646 1.366 . S
C2645 C2647 1.388 . S
C2646 C2645 1.366 . S
C2646 C2650 1.385 . S
C2647 H2622 0.951 . S
C2647 C2645 1.388 . S
C2647 C2648 1.366 . S
C2648 C2647 1.366 . S
C2648 C2649 1.414 . S
C2648 C2651 1.499 . S
C2649 H2623 0.950 . S
C2649 C2648 1.414 . S
C2649 C2650 1.374 . S
C2650 H2624 0.950 . S
C2650 C2646 1.385 . S
C2650 C2649 1.374 . S
C2651 C2648 1.499 . S
C2651 C2652 1.373 . S
C2651 C2653 1.389 . S
C2652 H2625 0.950 . S
C2652 C2638 1.377 . S
C2652 C2651 1.373 . S
C2653 C2637 1.377 . S
C2653 C2651 1.389 . S
C2653 C2654 1.524 . S
C2654 C2653 1.524 . S
C2654 C2655 1.397 . S
C2654 C2659 1.363 . S
C2655 H2626 0.950 . S
C2655 C2654 1.397 . S
C2655 C2656 1.334 . S
C2656 H2627 0.950 . S
C2656 C2655 1.334 . S
C2656 C2657 1.287 . S
C2657 C2656 1.287 . S
C2657 C2658 1.524 . S
C2657 H2660 0.999 . S
C2658 H2628 0.950 . S
C2658 C2657 1.524 . S
C2658 C2659 1.415 . S
C2659 H2629 0.950 . S
C2659 C2654 1.363 . S
C2659 C2658 1.415 . S
H2660 C2657 0.999 . S
H2661 C2642 0.913 . S
H2662 C2680 0.951 . S
H2663 C2682 0.951 . S
H2664 C2684 0.950 . S
H2665 C2685 0.950 . S
H2666 C2687 0.950 . S
H2667 C2690 0.950 . S
H2668 C2691 0.950 . S
H2669 C2693 0.950 . S
H2670 C2694 0.950 . S
H2671 C2695 0.951 . S
H2672 C2697 0.951 . S
H2673 C2699 0.950 . S
H2674 C2700 0.950 . S
H2675 C2702 0.950 . S
H2676 C2705 0.950 . S
H2677 C2706 0.950 . S
H2678 C2708 0.950 . S
H2679 C2709 0.950 . S
C2680 H2662 0.951 . S
C2680 C2681 1.366 . S
C2680 C2682 1.388 . S
C2681 C2680 1.366 . S
C2681 C2685 1.385 . S
C2682 H2663 0.951 . S
C2682 C2680 1.388 . S
C2682 C2683 1.366 . S
C2683 C2682 1.366 . S
C2683 C2684 1.414 . S
C2683 C2686 1.499 . S
C2684 H2664 0.950 . S
C2684 C2683 1.414 . S
C2684 C2685 1.374 . S
C2685 H2665 0.950 . S
C2685 C2681 1.385 . S
C2685 C2684 1.374 . S
C2686 C2683 1.499 . S
C2686 C2687 1.373 . S
C2686 C2688 1.389 . S
C2687 H2666 0.950 . S
C2687 C2686 1.373 . S
C2687 C2703 1.377 . S
C2688 C2686 1.389 . S
C2688 C2689 1.524 . S
C2688 C2702 1.377 . S
C2689 C2688 1.524 . S
C2689 C2690 1.397 . S
C2689 C2694 1.363 . S
C2690 H2667 0.950 . S
C2690 C2689 1.397 . S
C2690 C2691 1.334 . S
C2691 H2668 0.950 . S
C2691 C2690 1.334 . S
C2691 C2692 1.287 . S
C2692 C2691 1.287 . S
C2692 C2693 1.524 . S
C2692 H2711 0.913 . S
C2693 H2669 0.950 . S
C2693 C2692 1.524 . S
C2693 C2694 1.415 . S
C2694 H2670 0.950 . S
C2694 C2689 1.363 . S
C2694 C2693 1.415 . S
C2695 H2671 0.951 . S
C2695 C2696 1.366 . S
C2695 C2697 1.388 . S
C2696 C2695 1.366 . S
C2696 C2700 1.385 . S
C2697 H2672 0.951 . S
C2697 C2695 1.388 . S
C2697 C2698 1.366 . S
C2698 C2697 1.366 . S
C2698 C2699 1.414 . S
C2698 C2701 1.499 . S
C2699 H2673 0.950 . S
C2699 C2698 1.414 . S
C2699 C2700 1.374 . S
C2700 H2674 0.950 . S
C2700 C2696 1.385 . S
C2700 C2699 1.374 . S
C2701 C2698 1.499 . S
C2701 C2702 1.373 . S
C2701 C2703 1.389 . S
C2702 H2675 0.950 . S
C2702 C2688 1.377 . S
C2702 C2701 1.373 . S
C2703 C2687 1.377 . S
C2703 C2701 1.389 . S
C2703 C2704 1.524 . S
C2704 C2703 1.524 . S
C2704 C2705 1.397 . S
C2704 C2709 1.363 . S
C2705 H2676 0.950 . S
C2705 C2704 1.397 . S
C2705 C2706 1.334 . S
C2706 H2677 0.950 . S
C2706 C2705 1.334 . S
C2706 C2707 1.287 . S
C2707 C2706 1.287 . S
C2707 C2708 1.524 . S
C2707 H2710 0.999 . S
C2708 H2678 0.950 . S
C2708 C2707 1.524 . S
C2708 C2709 1.415 . S
C2709 H2679 0.950 . S
C2709 C2704 1.363 . S
C2709 C2708 1.415 . S
H2710 C2707 0.999 . S
H2711 C2692 0.913 . S
C331 C289 1.731 . S
C346 C3 1.731 . S
C381 C23 1.739 . S
C396 C309 1.736 . S
C431 C265 1.653 . S
C446 C29 1.716 . S
C481 C274 1.853 . S
C496 C40 1.853 . S
C531 C276 1.767 . S
C546 C55 1.768 . S
C581 C70 1.681 . S
C596 C287 1.739 . S
C631 C304 1.689 . S
C646 C81 1.755 . S
C681 C94 1.770 . S
C696 C270 1.719 . S
C731 C109 1.660 . S
C746 C252 1.662 . S
C781 C211 1.777 . S
C796 C127 1.723 . S
C831 C140 1.711 . S
C846 C226 1.699 . S
C881 C235 1.742 . S
C896 C148 1.681 . S
C931 C153 1.729 . S
C946 C172 1.782 . S
C981 C114 1.713 . S
C996 C185 1.764 . S
C1031 C198 1.734 . S
C1046 C122 1.668 . S
C1081 C135 1.649 . S
C1096 C159 1.709 . S
C1131 C18 1.655 . S
C1146 C237 1.719 . S
C1181 C183 1.823 . S
C1196 C92 1.823 . S
C1231 C53 1.805 . S
C1246 C196 1.806 . S
C1281 C157 1.789 . S
C1296 C75 1.741 . S
C1331 C79 1.824 . S
C1346 C170 1.823 . S
C1381 C42 1.828 . S
C1396 C209 1.824 . S
C1431 C1 1.781 . S
C1446 C231 1.733 . S
C1481 C27 1.767 . S
C1496 C257 1.721 . S
C1531 C88 1.786 . S
C1546 C261 1.742 . S
C1581 C278 1.771 . S
C1596 C101 1.768 . S
C1631 C296 1.765 . S
C1646 C62 1.765 . S
C1681 C302 1.731 . S
C1696 C66 1.744 . S
C1731 C36 1.816 . S
C1746 C300 1.765 . S
C1781 C44 1.722 . S
C1796 C263 1.662 . S
C1831 C10 1.809 . S
C1846 C283 1.809 . S
C1881 C291 1.709 . S
C1896 C16 1.649 . S
C1931 C133 1.719 . S
C1946 C179 1.781 . S
C1981 C144 1.796 . S
C1996 C192 1.847 . S
C2031 C105 1.734 . S
C2046 C205 1.778 . S
C2081 C120 1.693 . S
C2096 C166 1.753 . S
C2131 C118 1.753 . S
C2146 C248 1.751 . S
C2181 C218 1.834 . S
C2196 C131 1.785 . S
C2231 C146 1.726 . S
C2246 C222 1.740 . S
C2281 C107 1.660 . S
C2296 C239 1.720 . S
C2331 C161 1.709 . S
C2346 C96 1.708 . S
C2381 C213 1.752 . S
C2396 C14 1.703 . S
C2431 C31 1.757 . S
C2446 C224 1.693 . S
C2481 C244 1.778 . S
C2496 C49 1.777 . S
C2531 C250 1.705 . S
C2546 C5 1.771 . S
C2581 C68 1.689 . S
C2596 C187 1.755 . S
C2631 C200 1.727 . S
C2646 C83 1.727 . S
C2681 C174 1.718 . S
C2696 C57 1.717 . S
