# Generated by pormake.
# Topology sme, (6)-cn, num edge types: 1
# Building blocks:
#     Node 0, Type 0, BuildingBlock: IZENUY_clean_sbu_0, # of connection points: 6
#     Node 1, Type 0, BuildingBlock: IZENUY_clean_sbu_0, # of connection points: 6
#     Node 2, Type 0, BuildingBlock: IZENUY_clean_sbu_0, # of connection points: 6
#     Node 3, Type 0, BuildingBlock: IZENUY_clean_sbu_0, # of connection points: 6
#     Node 4, Type 0, BuildingBlock: IZENUY_clean_sbu_0, # of connection points: 6
#     Node 5, Type 0, BuildingBlock: IZENUY_clean_sbu_0, # of connection points: 6
#     Node 6, Type 0, BuildingBlock: IZENUY_clean_sbu_0, # of connection points: 6
#     Node 7, Type 0, BuildingBlock: IZENUY_clean_sbu_0, # of connection points: 6
#     Node 8, Type 0, BuildingBlock: IZENUY_clean_sbu_0, # of connection points: 6
#     Node 9, Type 0, BuildingBlock: IZENUY_clean_sbu_0, # of connection points: 6
#     Node 10, Type 0, BuildingBlock: IZENUY_clean_sbu_0, # of connection points: 6
#     Node 11, Type 0, BuildingBlock: IZENUY_clean_sbu_0, # of connection points: 6
#     Node 12, Type 0, BuildingBlock: IZENUY_clean_sbu_0, # of connection points: 6
#     Node 13, Type 0, BuildingBlock: IZENUY_clean_sbu_0, # of connection points: 6
#     Node 14, Type 0, BuildingBlock: IZENUY_clean_sbu_0, # of connection points: 6
#     Node 15, Type 0, BuildingBlock: IZENUY_clean_sbu_0, # of connection points: 6
#     Node 16, Type 0, BuildingBlock: IZENUY_clean_sbu_0, # of connection points: 6
#     Node 17, Type 0, BuildingBlock: IZENUY_clean_sbu_0, # of connection points: 6
#     Edge 18, Type (0, 0), BuildingBlock: EZIPEK_clean_linker_0, # of connection points: 2
#     Edge 19, Type (0, 0), BuildingBlock: EZIPEK_clean_linker_0, # of connection points: 2
#     Edge 20, Type (0, 0), BuildingBlock: EZIPEK_clean_linker_0, # of connection points: 2
#     Edge 21, Type (0, 0), BuildingBlock: EZIPEK_clean_linker_0, # of connection points: 2
#     Edge 22, Type (0, 0), BuildingBlock: EZIPEK_clean_linker_0, # of connection points: 2
#     Edge 23, Type (0, 0), BuildingBlock: EZIPEK_clean_linker_0, # of connection points: 2
#     Edge 24, Type (0, 0), BuildingBlock: EZIPEK_clean_linker_0, # of connection points: 2
#     Edge 25, Type (0, 0), BuildingBlock: EZIPEK_clean_linker_0, # of connection points: 2
#     Edge 26, Type (0, 0), BuildingBlock: EZIPEK_clean_linker_0, # of connection points: 2
#     Edge 27, Type (0, 0), BuildingBlock: EZIPEK_clean_linker_0, # of connection points: 2
#     Edge 28, Type (0, 0), BuildingBlock: EZIPEK_clean_linker_0, # of connection points: 2
#     Edge 29, Type (0, 0), BuildingBlock: EZIPEK_clean_linker_0, # of connection points: 2
#     Edge 30, Type (0, 0), BuildingBlock: EZIPEK_clean_linker_0, # of connection points: 2
#     Edge 31, Type (0, 0), BuildingBlock: EZIPEK_clean_linker_0, # of connection points: 2
#     Edge 32, Type (0, 0), BuildingBlock: EZIPEK_clean_linker_0, # of connection points: 2
#     Edge 33, Type (0, 0), BuildingBlock: EZIPEK_clean_linker_0, # of connection points: 2
#     Edge 34, Type (0, 0), BuildingBlock: EZIPEK_clean_linker_0, # of connection points: 2
#     Edge 35, Type (0, 0), BuildingBlock: EZIPEK_clean_linker_0, # of connection points: 2
#     Edge 36, Type (0, 0), BuildingBlock: EZIPEK_clean_linker_0, # of connection points: 2
#     Edge 37, Type (0, 0), BuildingBlock: EZIPEK_clean_linker_0, # of connection points: 2
#     Edge 38, Type (0, 0), BuildingBlock: EZIPEK_clean_linker_0, # of connection points: 2
#     Edge 39, Type (0, 0), BuildingBlock: EZIPEK_clean_linker_0, # of connection points: 2
#     Edge 40, Type (0, 0), BuildingBlock: EZIPEK_clean_linker_0, # of connection points: 2
#     Edge 41, Type (0, 0), BuildingBlock: EZIPEK_clean_linker_0, # of connection points: 2
#     Edge 42, Type (0, 0), BuildingBlock: EZIPEK_clean_linker_0, # of connection points: 2
#     Edge 43, Type (0, 0), BuildingBlock: EZIPEK_clean_linker_0, # of connection points: 2
#     Edge 44, Type (0, 0), BuildingBlock: EZIPEK_clean_linker_0, # of connection points: 2
#     Edge 45, Type (0, 0), BuildingBlock: EZIPEK_clean_linker_0, # of connection points: 2
#     Edge 46, Type (0, 0), BuildingBlock: EZIPEK_clean_linker_0, # of connection points: 2
#     Edge 47, Type (0, 0), BuildingBlock: EZIPEK_clean_linker_0, # of connection points: 2
#     Edge 48, Type (0, 0), BuildingBlock: EZIPEK_clean_linker_0, # of connection points: 2
#     Edge 49, Type (0, 0), BuildingBlock: EZIPEK_clean_linker_0, # of connection points: 2
#     Edge 50, Type (0, 0), BuildingBlock: EZIPEK_clean_linker_0, # of connection points: 2
#     Edge 51, Type (0, 0), BuildingBlock: EZIPEK_clean_linker_0, # of connection points: 2
#     Edge 52, Type (0, 0), BuildingBlock: EZIPEK_clean_linker_0, # of connection points: 2
#     Edge 53, Type (0, 0), BuildingBlock: EZIPEK_clean_linker_0, # of connection points: 2
#     Edge 54, Type (0, 0), BuildingBlock: EZIPEK_clean_linker_0, # of connection points: 2
#     Edge 55, Type (0, 0), BuildingBlock: EZIPEK_clean_linker_0, # of connection points: 2
#     Edge 56, Type (0, 0), BuildingBlock: EZIPEK_clean_linker_0, # of connection points: 2
#     Edge 57, Type (0, 0), BuildingBlock: EZIPEK_clean_linker_0, # of connection points: 2
#     Edge 58, Type (0, 0), BuildingBlock: EZIPEK_clean_linker_0, # of connection points: 2
#     Edge 59, Type (0, 0), BuildingBlock: EZIPEK_clean_linker_0, # of connection points: 2
#     Edge 60, Type (0, 0), BuildingBlock: EZIPEK_clean_linker_0, # of connection points: 2
#     Edge 61, Type (0, 0), BuildingBlock: EZIPEK_clean_linker_0, # of connection points: 2
#     Edge 62, Type (0, 0), BuildingBlock: EZIPEK_clean_linker_0, # of connection points: 2
#     Edge 63, Type (0, 0), BuildingBlock: EZIPEK_clean_linker_0, # of connection points: 2
#     Edge 64, Type (0, 0), BuildingBlock: EZIPEK_clean_linker_0, # of connection points: 2
#     Edge 65, Type (0, 0), BuildingBlock: EZIPEK_clean_linker_0, # of connection points: 2
#     Edge 66, Type (0, 0), BuildingBlock: EZIPEK_clean_linker_0, # of connection points: 2
#     Edge 67, Type (0, 0), BuildingBlock: EZIPEK_clean_linker_0, # of connection points: 2
#     Edge 68, Type (0, 0), BuildingBlock: EZIPEK_clean_linker_0, # of connection points: 2
#     Edge 69, Type (0, 0), BuildingBlock: EZIPEK_clean_linker_0, # of connection points: 2
#     Edge 70, Type (0, 0), BuildingBlock: EZIPEK_clean_linker_0, # of connection points: 2
#     Edge 71, Type (0, 0), BuildingBlock: EZIPEK_clean_linker_0, # of connection points: 2
# Relax obj value: 0.119
# Max RMSD: 0.168
# Mean RMSD: 0.168
data_MOF--net-sme--node1-IZENUY_clean_sbu_0--edge1-EZIPEK_clean_linker_0
_symmetry_space_group_name_H-M    P1
_symmetry_Int_Tables_number       1
_symmetry_cell_setting            triclinic
loop_
_symmetry_equiv_pos_as_xyz
'x, y, z'
_cell_length_a     33.165061
_cell_length_b     33.078392
_cell_length_c     28.715232
_cell_angle_alpha  89.807328
_cell_angle_beta   90.122923
_cell_angle_gamma 119.83895
loop_
_atom_site_label
_atom_site_type_symbol
_atom_site_fract_x
_atom_site_fract_y
_atom_site_fract_z
_atom_type_partial_charge
Fe0 Fe 0.05537 0.33615 0.79097 0.0
Fe1 Fe 0.05497 0.25534 0.84444 0.0
O2 O 0.05406 0.28123 0.79049 0.0
Fe3 Fe 0.05235 0.25514 0.73621 0.0
O4 O 0.09749 0.30872 0.70867 0.0
O5 O 0.07143 0.35362 0.72978 0.0
O6 O 0.1153 0.3638 0.80707 0.0
C7 C 0.12988 0.34916 0.84039 0.0
C8 C 0.97955 0.27795 0.74119 0.0
O9 O 0.10403 0.31174 0.86335 0.0
C10 C 0.99488 0.17541 0.79228 0.0
O11 O 0.03951 0.33658 0.85233 0.0
O12 O 1.0102 0.26448 0.87168 0.0
O13 O 1.00346 0.26376 0.71846 0.0
O14 O 0.99547 0.30665 0.77471 0.0
C15 C 0.11256 0.23436 0.78765 0.0
O16 O 1.00788 0.19682 0.83061 0.0
O17 O 1.00928 0.19622 0.75382 0.0
C18 C 1.01341 0.30332 0.87838 0.0
O19 O 0.09765 0.23943 0.82631 0.0
O20 O 0.0995 0.24351 0.74959 0.0
C21 C 0.09617 0.34548 0.70286 0.0
Fe22 Fe 0.87615 0.89518 0.84476 0.0
Fe23 Fe 0.88304 0.89174 0.73875 0.0
O24 O 0.85148 0.86632 0.79103 0.0
Fe25 Fe 0.79717 0.81292 0.79076 0.0
O26 O 0.77115 0.83576 0.83199 0.0
O27 O 0.82894 0.9059 0.85269 0.0
O28 O 0.90903 0.95424 0.81946 0.0
C29 C 0.90224 0.97206 0.78328 0.0
C30 C 0.82753 0.80079 0.87694 0.0
O31 O 0.88356 0.94673 0.74807 0.0
C32 C 0.85459 0.7978 0.72953 0.0
O33 O 0.92524 0.88537 0.83791 0.0
O34 O 0.94061 0.91386 0.76664 0.0
O35 O 0.81443 0.78587 0.83641 0.0
O36 O 0.84795 0.84409 0.88402 0.0
C37 C 0.78829 0.84906 0.70526 0.0
O38 O 0.88552 0.83996 0.72558 0.0
O39 O 0.81633 0.7843 0.74996 0.0
C40 C 0.95343 0.90318 0.80433 0.0
O41 O 0.83195 0.87343 0.70081 0.0
O42 O 0.77124 0.82978 0.74386 0.0
C43 C 0.78636 0.87622 0.84913 0.0
Fe44 Fe 0.31285 0.07218 0.79531 0.0
Fe45 Fe 0.23048 0.06925 0.74427 0.0
O46 O 0.25873 0.07134 0.79761 0.0
Fe47 Fe 0.23516 0.07168 0.8532 0.0
O48 O 0.28947 0.12082 0.8761 0.0
O49 O 0.33324 0.09322 0.85435 0.0
O50 O 0.33995 0.13092 0.77424 0.0
C51 C 0.32438 0.14241 0.73923 0.0
C52 C 0.25897 1.00062 0.85276 0.0
O53 O 0.28564 0.11502 0.71956 0.0
C54 C 0.15457 1.00909 0.80281 0.0
O55 O 0.30962 0.05131 0.73562 0.0
O56 O 0.23675 0.02135 0.71957 0.0
O57 O 0.24909 0.02784 0.875 0.0
O58 O 0.28377 0.01333 0.81617 0.0
C59 C 0.2108 0.12874 0.79872 0.0
O60 O 0.17225 0.0247 0.76315 0.0
O61 O 0.17796 0.02357 0.83971 0.0
C62 C 0.27542 0.02456 0.71111 0.0
O63 O 0.21905 0.11565 0.76042 0.0
O64 O 0.2166 0.11377 0.83743 0.0
C65 C 0.32609 0.11867 0.88141 0.0
Fe66 Fe 0.05298 0.88427 0.22786 0.0
Fe67 Fe 0.06092 0.80989 0.28583 0.0
O68 O 0.05911 0.86293 0.28285 0.0
Fe69 Fe 0.06316 0.89271 0.33561 0.0
O70 O 0.02367 0.91439 0.31838 0.0
O71 O 1.00389 0.89031 0.24647 0.0
O72 O 1.00903 0.82511 0.20889 0.0
C73 C 0.98513 0.78841 0.23331 0.0
C74 C 0.11836 0.9675 0.2773 0.0
O75 O 1.00169 0.77796 0.26773 0.0
C76 C 0.13267 0.86811 0.33961 0.0
O77 O 0.10156 0.88072 0.2003 0.0
O78 O 0.08133 0.81129 0.22587 0.0
O79 O 0.11296 0.94604 0.31526 0.0
O80 O 0.09462 0.94658 0.24126 0.0
C81 C 1.0132 0.8036 0.3698 0.0
O82 O 0.12041 0.84171 0.30453 0.0
O83 O 0.105 0.87793 0.3606 0.0
C84 C 0.10313 0.84346 0.19649 0.0
O85 O 0.03987 0.79442 0.34637 0.0
O86 O 1.01323 0.84132 0.36199 0.0
C87 C 0.99988 0.90989 0.28225 0.0
Fe88 Fe 0.23751 0.24623 0.22553 0.0
Fe89 Fe 0.308 0.33032 0.28293 0.0
O90 O 0.25765 0.27359 0.28081 0.0
Fe91 Fe 0.23006 0.24668 0.33411 0.0
O92 O 0.2215 0.18931 0.31913 0.0
O93 O 0.23278 0.19096 0.24368 0.0
O94 O 0.29699 0.26425 0.20735 0.0
C95 C 0.33377 0.27916 0.23171 0.0
C96 C 0.1535 0.21984 0.27392 0.0
O97 O 0.3428 0.30565 0.26644 0.0
C98 C 0.24437 0.33952 0.33353 0.0
O99 O 0.23849 0.29744 0.19883 0.0
O100 O 0.30741 0.34787 0.22254 0.0
O101 O 0.17248 0.23008 0.31341 0.0
O102 O 0.17589 0.22386 0.23706 0.0
C103 C 0.31856 0.29685 0.37002 0.0
O104 O 0.27211 0.35407 0.29929 0.0
O105 O 0.23412 0.30168 0.35525 0.0
C106 C 0.27496 0.33627 0.1939 0.0
O107 O 0.32462 0.33001 0.34407 0.0
O108 O 0.28394 0.25736 0.36296 0.0
C109 C 0.22493 0.1701 0.28242 0.0
Fe110 Fe 0.87363 0.06463 0.33751 0.0
Fe111 Fe 0.796 0.07276 0.28742 0.0
O112 O 0.84766 0.06843 0.28457 0.0
Fe113 Fe 0.87137 0.06857 0.22877 0.0
O114 O 0.88075 0.01938 0.2405 0.0
O115 O 0.88676 0.02038 0.31698 0.0
O116 O 0.81662 0.01681 0.35686 0.0
C117 C 0.77674 0.99555 0.33695 0.0
C118 C 0.95233 0.12357 0.28361 0.0
O119 O 0.76388 0.01314 0.30499 0.0
C120 C 0.85626 0.14626 0.23417 0.0
O121 O 0.86853 0.11042 0.36858 0.0
O122 O 0.79869 0.09031 0.34829 0.0
O123 O 0.93089 0.1094 0.24551 0.0
O124 O 0.93202 0.11052 0.3225 0.0
C125 C 0.77958 0.02912 0.19967 0.0
O126 O 0.82949 0.13277 0.26944 0.0
O127 O 0.86619 0.11935 0.21105 0.0
C128 C 0.83205 0.11182 0.37554 0.0
O129 O 0.77514 0.0552 0.22812 0.0
O130 O 0.81573 0.02599 0.20223 0.0
C131 C 0.89093 1.00585 0.27772 0.0
Fe132 Fe 0.72257 0.67066 0.12631 0.0
Fe133 Fe 0.72447 0.59216 0.18208 0.0
O134 O 0.72195 0.61626 0.12747 0.0
Fe135 Fe 0.71816 0.58774 0.07404 0.0
O136 O 0.76813 0.63917 0.04798 0.0
O137 O 0.7436 0.68715 0.06584 0.0
O138 O 0.7817 0.69959 0.14566 0.0
C139 C 0.79469 0.68671 0.18135 0.0
C140 C 0.64997 0.61472 0.07197 0.0
O141 O 0.76782 0.64984 0.20409 0.0
C142 C 0.66113 0.51141 0.12996 0.0
O143 O 0.70158 0.66849 0.18644 0.0
O144 O 0.67519 0.59614 0.20604 0.0
O145 O 0.67624 0.60332 0.05043 0.0
O146 O 0.66339 0.64131 0.10693 0.0
C147 C 0.7793 0.56774 0.12861 0.0
O148 O 0.68305 0.53116 0.16684 0.0
O149 O 0.66809 0.53379 0.09249 0.0
C150 C 0.676 0.63427 0.21229 0.0
O151 O 0.77327 0.58473 0.16546 0.0
O152 O 0.75793 0.56614 0.09125 0.0
C153 C 0.76819 0.67686 0.04044 0.0
Fe154 Fe 0.4692 0.15126 0.12663 0.0
Fe155 Fe 0.54587 0.23342 0.18173 0.0
O156 O 0.5212 0.20615 0.12703 0.0
Fe157 Fe 0.54634 0.2317 0.07215 0.0
O158 O 0.49252 0.22213 0.04432 0.0
O159 O 0.45015 0.15124 0.06669 0.0
O160 O 0.43766 0.17916 0.1462 0.0
C161 C 0.45042 0.20742 0.1803 0.0
C162 C 0.52954 0.13853 0.07332 0.0
O163 O 0.48942 0.22349 0.20099 0.0
C164 C 0.6255 0.25387 0.12852 0.0
O165 O 0.47048 0.13242 0.18545 0.0
O166 O 0.53818 0.18049 0.21216 0.0
O167 O 0.54007 0.17608 0.05121 0.0
O168 O 0.50254 0.12522 0.10825 0.0
C169 C 0.55897 0.30996 0.12413 0.0
O170 O 0.60517 0.24722 0.16741 0.0
O171 O 0.60463 0.24798 0.0903 0.0
C172 C 0.5002 0.14283 0.21663 0.0
O173 O 0.55788 0.29124 0.16286 0.0
O174 O 0.55532 0.28879 0.08663 0.0
C175 C 0.45675 0.18338 0.03909 0.0
Fe176 Fe 0.90081 0.4054 0.17811 0.0
Fe177 Fe 0.90217 0.41104 0.07185 0.0
O178 O 0.92893 0.40832 0.12454 0.0
Fe179 Fe 0.98272 0.40879 0.12369 0.0
O180 O 0.9646 0.36387 0.16906 0.0
O181 O 0.89418 0.34921 0.19018 0.0
O182 O 0.84172 0.37378 0.15323 0.0
C183 C 0.8259 0.34713 0.11814 0.0
C184 C 0.99691 0.45703 0.20556 0.0
O185 O 0.85141 0.35398 0.08283 0.0
C186 C 0.9926 0.47895 0.06134 0.0
O187 O 0.90515 0.46223 0.16721 0.0
O188 O 0.87372 0.44162 0.09777 0.0
O189 O 1.01027 0.45675 0.16479 0.0
O190 O 0.95392 0.43405 0.21492 0.0
C191 C 0.94881 0.36212 0.04138 0.0
O192 O 0.95026 0.46707 0.05961 0.0
O193 O 1.00744 0.45347 0.0784 0.0
C194 C 0.88413 0.46803 0.13302 0.0
O195 O 0.92704 0.38385 1.03375 0.0
O196 O 0.96289 0.3614 0.08188 0.0
C197 C 0.92481 0.3375 0.1866 0.0
Fe198 Fe 0.71877 0.22251 0.67094 0.0
Fe199 Fe 0.72293 0.14033 0.6269 0.0
O200 O 0.71979 0.19245 0.62002 0.0
Fe201 Fe 0.71738 0.21205 0.56273 0.0
O202 O 0.75754 0.27454 0.57446 0.0
O203 O 0.76504 0.2788 0.65106 0.0
O204 O 0.76489 0.21476 0.69826 0.0
C205 C 0.79267 0.203 0.68025 0.0
C206 C 0.65581 0.23292 0.61026 0.0
O207 O 0.78113 0.17392 0.64755 0.0
C208 C 0.65172 0.11413 0.56636 0.0
O209 O 0.6711 0.17021 0.69857 0.0
O210 O 0.70109 0.12614 0.687 0.0
O211 O 0.66723 0.21868 0.57475 0.0
O212 O 0.67434 0.23575 0.64965 0.0
C213 C 0.76804 0.17048 0.53897 0.0
O214 O 0.66456 0.10686 0.60557 0.0
O215 O 0.67591 0.15232 0.5442 0.0
C216 C 0.67328 0.13439 0.70898 0.0
O217 O 0.74607 0.13983 0.56929 0.0
O218 O 0.76735 0.20818 0.54101 0.0
C219 C 0.77498 0.2979 0.61142 0.0
Fe220 Fe 0.89926 0.5805 0.6689 0.0
Fe221 Fe 0.97703 0.66228 0.6129 0.0
O222 O 0.9235 0.60788 0.61417 0.0
Fe223 Fe 0.89503 0.58198 0.56043 0.0
O224 O 0.83893 0.57478 0.57726 0.0
O225 O 0.83901 0.55896 0.65163 0.0
O226 O 0.90099 0.63383 0.68835 0.0
C227 C 0.91773 0.67462 0.67078 0.0
C228 C 0.87948 0.50246 0.61589 0.0
O229 O 0.94741 0.69041 0.63772 0.0
C230 C 0.98959 0.60331 0.55627 0.0
O231 O 0.95339 0.59435 0.69935 0.0
O232 O 1.00031 0.66124 0.66944 0.0
O233 O 0.87709 0.52212 0.57891 0.0
O234 O 0.89526 0.52519 0.65321 0.0
C235 C 0.94247 0.6734 0.52655 0.0
O236 O 1.00542 0.63319 0.58882 0.0
O237 O 0.94903 0.58663 0.53856 0.0
C238 C 0.99104 0.63206 0.70101 0.0
O239 O 0.97436 0.68339 0.5551 0.0
O240 O 0.90497 0.63588 0.53143 0.0
C241 C 0.81807 0.56022 0.61553 0.0
Fe242 Fe 0.46252 0.40216 0.61426 0.0
Fe243 Fe 0.54371 0.40051 0.56298 0.0
O244 O 0.51356 0.3968 0.61515 0.0
Fe245 Fe 0.53557 0.3873 0.66858 0.0
O246 O 0.48366 0.33286 0.67578 0.0
O247 O 0.43162 0.35335 0.65455 0.0
O248 O 0.43362 0.36065 0.56727 0.0
C249 C 0.4497 0.35818 0.52837 0.0
C250 C 0.49486 0.44109 0.70082 0.0
O251 O 0.49304 0.37559 0.52386 0.0
C252 C 0.61718 0.4504 0.62845 0.0
O253 O 0.48694 0.45099 0.57398 0.0
O254 O 0.55503 0.45909 0.55285 0.0
O255 O 0.51275 0.41562 0.70776 0.0
O256 O 0.48328 0.44551 0.66034 0.0
C257 C 0.55159 0.33108 0.60471 0.0
O258 O 0.60127 0.4274 0.59104 0.0
O259 O 0.59056 0.44227 0.66315 0.0
C260 C 0.52734 0.47459 0.55723 0.0
O261 O 0.53424 0.34156 0.57081 0.0
O262 O 0.56109 0.35439 0.64205 0.0
C263 C 0.4425 0.32447 0.6711 0.0
Fe264 Fe 0.38911 0.92336 0.51799 0.0
Fe265 Fe 0.38713 0.92317 0.40933 0.0
O266 O 0.3888 0.94944 0.46393 0.0
Fe267 Fe 0.38979 1.00417 0.4645 0.0
O268 O 0.4485 0.03177 0.48457 0.0
O269 O 0.4357 0.9797 0.54012 0.0
O270 O 0.4346 0.91024 0.50112 0.0
C271 C 0.44647 0.90114 0.46245 0.0
C272 C 0.34393 0.96847 0.55038 0.0
O273 O 0.43044 0.90641 0.42427 0.0
C274 C 0.31664 0.94868 0.41017 0.0
O275 O 0.34366 0.86484 0.50221 0.0
O276 O 0.34039 0.86538 0.42565 0.0
O277 O 0.36942 1.00239 0.52458 0.0
O278 O 0.34219 0.93024 0.54341 0.0
C279 C 0.43568 0.01441 0.37842 0.0
O280 O 0.34162 0.93539 0.3885 0.0
O281 O 0.33091 0.97567 0.44487 0.0
C282 C 0.32698 0.84415 0.46407 0.0
O283 O 0.4354 0.97658 0.38385 0.0
O284 O 0.41026 0.02279 0.40435 0.0
C285 C 0.4612 0.01957 0.52112 0.0
Fe286 Fe 0.19908 0.55892 0.50951 0.0
Fe287 Fe 0.21427 0.56614 0.40157 0.0
O288 O 0.18222 0.53583 0.45225 0.0
Fe289 Fe 0.13113 0.48089 0.44492 0.0
O290 O 0.0963 0.50553 0.46392 0.0
O291 O 0.13935 0.54072 0.52631 0.0
O292 O 0.20382 0.61419 0.49361 0.0
C293 C 0.22241 0.64059 0.4593 0.0
C294 C 0.15805 0.46682 0.5357 0.0
O295 O 0.23044 0.62512 0.42219 0.0
C296 C 0.19314 0.47235 0.39133 0.0
O297 O 0.26174 0.58156 0.49971 0.0
O298 O 0.26843 0.57248 0.42421 0.0
O299 O 0.12984 0.45759 0.50289 0.0
O300 O 0.19511 0.50587 0.53486 0.0
C301 C 0.12674 0.52532 0.36254 0.0
O302 O 0.2046 0.51191 0.37364 0.0
O303 O 0.16605 0.45659 0.42592 0.0
C304 C 0.28588 0.58341 0.46452 0.0
O305 O 0.16306 0.56331 0.37233 0.0
O306 O 0.11834 0.48911 0.38462 0.0
C307 C 0.10378 0.52872 0.50102 0.0
Fe308 Fe 0.64903 0.7395 0.45861 0.0
Fe309 Fe 0.56875 0.74126 0.40704 0.0
O310 O 0.59469 0.73862 0.46037 0.0
Fe311 Fe 0.56871 0.73551 0.51536 0.0
O312 O 0.62168 0.78507 0.53948 0.0
O313 O 0.6682 0.76018 0.51843 0.0
O314 O 0.67703 0.79869 0.43885 0.0
C315 C 0.66317 0.81117 0.40349 0.0
C316 C 0.5952 0.66617 0.51374 0.0
O317 O 0.62521 0.78433 0.38265 0.0
C318 C 0.48925 0.67952 0.46255 0.0
O319 O 0.64457 0.71851 0.39844 0.0
O320 O 0.57179 0.69185 0.38124 0.0
O321 O 0.58352 0.69172 0.53676 0.0
O322 O 0.62079 0.68051 0.47808 0.0
C323 C 0.54843 0.7979 0.46328 0.0
O324 O 0.50831 0.70008 0.42476 0.0
O325 O 0.51263 0.68636 0.49928 0.0
C326 C 0.60986 0.69303 0.37341 0.0
O327 O 0.5628 0.79071 0.42527 0.0
O328 O 0.54867 0.77706 0.50042 0.0
C329 C 0.65909 0.78456 0.54532 0.0
Fe330 Fe 0.38955 0.55167 0.8935 0.0
Fe331 Fe 0.39284 0.47376 0.94961 0.0
O332 O 0.39154 0.52743 0.94834 0.0
Fe333 Fe 0.39203 0.5542 1.00211 0.0
O334 O 0.34658 0.5674 0.98671 0.0
O335 O 0.34381 0.56428 0.90998 0.0
O336 O 0.34314 0.49427 0.87398 0.0
C337 C 0.31861 0.4564 0.89651 0.0
C338 C 0.44962 0.63295 0.94529 0.0
O339 O 0.33373 0.44353 0.93069 0.0
C340 C 0.4653 0.53303 1.00283 0.0
O341 O 0.43646 0.54506 0.86752 0.0
O342 O 0.4119 0.47418 0.88955 0.0
O343 O 0.4369 0.61254 0.98429 0.0
O344 O 0.43423 0.6112 0.90737 0.0
C345 C 0.34736 0.46386 1.03521 0.0
O346 O 0.4521 0.50513 0.96864 0.0
O347 O 0.43896 0.54501 1.02381 0.0
C348 C 0.43583 0.50715 0.86229 0.0
O349 O 0.37357 0.45605 1.01001 0.0
O350 O 0.34558 0.50041 1.02827 0.0
C351 C 0.33063 0.57217 0.9484 0.0
Fe352 Fe 0.57449 0.91819 0.89904 0.0
Fe353 Fe 0.64354 0.99638 0.96288 0.0
O354 O 0.5916 0.94202 0.95602 0.0
Fe355 Fe 0.55839 0.91288 1.0066 0.0
O356 O 0.54018 0.85347 0.98681 0.0
O357 O 0.56876 0.86249 0.91603 0.0
O358 O 0.63373 0.93545 0.88173 0.0
C359 C 0.66939 0.94712 0.90662 0.0
C360 C 0.4884 0.89792 0.94242 0.0
O361 O 0.67729 0.97042 0.9437 0.0
C362 C 0.58383 1.00787 1.01751 0.0
O363 O 0.57883 0.97121 0.87325 0.0
O364 O 0.64448 0.01964 0.9048 0.0
O365 O 0.50548 0.90871 0.98291 0.0
O366 O 0.51247 0.89681 0.9088 0.0
C367 C 0.64509 0.9518 0.04712 0.0
O368 O 0.61051 0.02273 0.98254 0.0
O369 O 0.56955 0.96737 1.03366 0.0
C370 C 0.61542 0.01061 0.87273 0.0
O371 O 0.65591 0.98758 1.02302 0.0
O372 O 0.60826 0.91415 1.03736 0.0
C373 C 0.54784 0.83689 0.95043 0.0
Fe374 Fe 0.21042 0.73541 0.89283 0.0
Fe375 Fe 0.20499 0.72838 1.00128 0.0
O376 O 0.18344 0.73433 0.94667 0.0
Fe377 Fe 0.13258 0.7397 0.94549 0.0
O378 O 0.11632 0.72258 0.88442 0.0
O379 O 0.15616 0.68917 0.86651 0.0
O380 O 0.22593 0.69107 0.90837 0.0
C381 C 0.22511 0.6708 0.9461 0.0
C382 C 0.19435 0.81142 0.89316 0.0
O383 O 0.20985 0.67847 0.98312 0.0
C384 C 0.1669 0.78025 1.0343 0.0
O385 O 0.26695 0.78049 0.91152 0.0
O386 O 0.26671 0.76911 0.98755 0.0
O387 O 0.16816 0.79943 0.9287 0.0
O388 O 0.20145 0.78245 0.87069 0.0
C389 C 0.1084 0.66278 0.99633 0.0
O390 O 0.20356 0.77828 1.02872 0.0
O391 O 0.13375 0.75773 1.00653 0.0
C392 C 0.28769 0.78868 0.95003 0.0
O393 O 0.14576 0.68539 1.02001 0.0
O394 O 0.09829 0.67988 0.96188 0.0
C395 C 0.12148 0.69441 0.85921 0.0
C396 C 0.20384 0.1996 0.82146 0.0
C397 C 0.18662 0.15689 0.79695 0.0
C398 C 0.12545 0.16879 0.76152 0.0
C399 C 0.14106 0.21054 0.78763 0.0
N400 N 0.19302 0.26381 0.84571 0.0
N401 N 0.12332 0.0953 0.75389 0.0
C402 C 0.17969 0.22535 0.81854 0.0
C403 C 0.14572 0.14035 0.76936 0.0
N404 N 0.24389 0.21616 0.84678 0.0
N405 N 0.08991 0.15467 0.73007 0.0
H406 H 0.13443 0.0718 0.76146 0.0
H407 H 0.09064 0.07913 0.73831 0.0
H408 H 0.06728 0.16773 0.72806 0.0
H409 H 0.08371 0.13034 0.70408 0.0
H410 H 0.26208 0.24972 0.86031 0.0
H411 H 0.26073 0.19714 0.85242 0.0
H412 H 0.21633 0.27315 0.8733 0.0
H413 H 0.17914 0.28574 0.84215 0.0
C414 C 0.99017 0.09832 0.80891 0.0
C415 C 0.96833 0.12311 0.79174 0.0
C416 C 0.90215 0.04827 0.76517 0.0
C417 C 0.92573 0.02444 0.78008 0.0
N418 N 1.00008 0.03181 0.79716 0.0
N419 N 0.90712 0.12208 0.74522 0.0
C420 C 0.97192 0.05092 0.79669 0.0
C421 C 0.92537 0.09816 0.76727 0.0
N422 N 0.02895 0.11963 0.83632 0.0
N423 N 0.85745 0.0235 0.74963 0.0
H424 H 0.92245 0.15817 0.74678 0.0
H425 H 0.87879 0.1066 0.72269 0.0
H426 H 0.84097 0.98784 0.74365 0.0
H427 H 0.83619 0.038 0.74448 0.0
H428 H 0.04264 0.10128 0.8534 0.0
H429 H 0.04521 0.15445 0.8458 0.0
H430 H 0.03546 0.05083 0.80461 0.0
H431 H 0.98965 0.99912 0.78318 0.0
C432 C 0.03009 0.91076 0.77958 0.0
C433 C 1.00446 0.92212 0.81154 0.0
C434 C 0.07713 0.98953 0.83793 0.0
C435 C 0.10316 0.9774 0.80727 0.0
N436 N 0.10495 0.91964 0.75791 0.0
N437 N 1.00625 0.96472 0.88094 0.0
C438 C 0.07977 0.93587 0.78076 0.0
C439 C 0.02886 0.95841 0.84435 0.0
N440 N 1.00693 0.87631 0.7476 0.0
N441 N 0.09731 0.03263 0.85813 0.0
H442 H 0.97075 0.94489 0.88688 0.0
H443 H 0.0238 0.98717 0.90845 0.0
H444 H 0.13147 0.05838 0.85231 0.0
H445 H 0.07863 0.04516 0.87629 0.0
H446 H 0.02324 0.87008 0.71982 0.0
H447 H 0.9709 0.85525 0.7477 0.0
H448 H 0.08998 0.88725 0.74169 0.0
H449 H 0.14118 0.93662 0.75907 0.0
C450 C 0.97853 0.96629 0.24491 0.0
C451 C 0.96985 0.93217 0.27984 0.0
C452 C 0.90378 0.94039 0.30765 0.0
C453 C 0.91544 0.97773 0.27573 0.0
N454 N 0.97343 0.0338 0.22283 0.0
N455 N 0.92769 0.89167 0.34907 0.0
C456 C 0.955 0.99237 0.24639 0.0
C457 C 0.93358 0.92079 0.31263 0.0
N458 N 1.01033 0.9753 0.21044 0.0
N459 N 0.86336 0.92255 0.33243 0.0
H460 H 0.94661 0.87446 0.35285 0.0
H461 H 0.90602 0.88682 0.37727 0.0
H462 H 0.841 0.93602 0.3303 0.0
H463 H 0.84992 0.89195 0.35191 0.0
H464 H 1.0122 0.99393 0.18039 0.0
H465 H 0.03319 0.96245 0.20994 0.0
H466 H 1.00593 0.04935 0.20685 0.0
H467 H 0.95956 0.05577 0.22324 0.0
C468 C 0.18389 0.04367 0.24225 0.0
C469 C 0.15029 0.01968 0.27781 0.0
C470 C 0.18617 0.09194 0.32334 0.0
C471 C 0.21031 0.11853 0.28377 0.0
N472 N 0.24114 0.11768 0.20791 0.0
N473 N 0.11423 0.02688 0.3485 0.0
C474 C 0.21176 0.09376 0.24367 0.0
C475 C 0.15008 0.04544 0.31738 0.0
N476 N 0.19102 0.01867 0.20874 0.0
N477 N 0.19872 0.11001 0.36706 0.0
H478 H 0.08432 0.99483 0.34369 0.0
H479 H 0.11171 0.04633 0.37573 0.0
H480 H 0.22926 0.14133 0.37341 0.0
H481 H 0.18313 0.09041 0.39694 0.0
H482 H 0.2177 0.0334 0.18434 0.0
H483 H 0.17268 0.98238 0.20777 0.0
H484 H 0.2391 0.10345 0.17512 0.0
H485 H 0.26838 0.15181 0.21162 0.0
C486 C 0.07786 0.21773 0.25627 0.0
C487 C 0.10204 0.19531 0.27263 0.0
C488 C 0.02932 0.1294 0.30083 0.0
C489 C 1.0041 0.15015 0.28199 0.0
N490 N 1.00402 0.20991 0.23315 0.0
N491 N 0.0993 0.12437 0.29724 0.0
C492 C 0.02825 0.19309 0.25701 0.0
C493 C 0.07734 0.14968 0.29124 0.0
N494 N 0.10225 0.26279 0.24094 0.0
N495 N 1.00784 0.08986 0.32744 0.0
H496 H 0.13395 0.13734 0.28849 0.0
H497 H 0.08203 0.08893 0.30521 0.0
H498 H 0.97229 0.07059 0.33293 0.0
H499 H 0.02604 0.07758 0.34699 0.0
H500 H 0.08694 0.283 0.23368 0.0
H501 H 0.13846 0.28112 0.23871 0.0
H502 H 0.01949 0.23831 0.21057 0.0
H503 H 0.96792 0.19327 0.23289 0.0
C504 C 0.8292 0.4908 0.17093 0.0
C505 C 0.863 0.49911 0.13621 0.0
C506 C 0.84563 0.55662 0.09902 0.0
C507 C 0.80876 0.54473 0.13102 0.0
N508 N 0.75933 0.49213 0.19119 0.0
N509 N 0.90125 0.53812 0.06492 0.0
C510 C 0.79933 0.51004 0.16564 0.0
C511 C 0.8706 0.53163 0.09972 0.0
N512 N 0.82436 0.46355 0.2088 0.0
N513 N 0.85773 0.59268 0.06854 0.0
H514 H 0.92293 0.52388 0.06592 0.0
H515 H 0.90379 0.55578 1.03402 0.0
H516 H 0.83934 0.61049 0.06539 0.0
H517 H 0.88797 0.6074 0.04866 0.0
H518 H 0.80547 0.46227 0.23826 0.0
H519 H 0.84153 0.44472 0.21296 0.0
H520 H 0.7472 0.46256 0.21211 0.0
H521 H 0.73524 0.50323 0.18784 0.0
C522 C 0.56993 0.38497 0.16226 0.0
C523 C 0.57288 0.36097 0.12236 0.0
C524 C 0.63217 0.43449 0.08935 0.0
C525 C 0.62987 0.45958 0.12843 0.0
N526 N 0.58705 0.45918 0.19648 0.0
N527 N 0.58589 0.37 0.03898 0.0
C528 C 0.59597 0.43498 0.16352 0.0
C529 C 0.59716 0.3878 0.08292 0.0
N530 N 0.54104 0.36022 0.19805 0.0
N531 N 0.6689 0.45386 0.05928 0.0
H532 H 0.55547 0.33896 1.03163 0.0
H533 H 0.60214 0.38995 1.00946 0.0
H534 H 0.69815 0.48631 0.06456 0.0
H535 H 0.6728 0.4348 1.03253 0.0
H536 H 0.54194 0.37441 0.23061 0.0
H537 H 0.5158 0.32519 0.19482 0.0
H538 H 0.56 0.4436 0.22042 0.0
H539 H 0.60404 0.49547 0.19732 0.0
C540 C 0.70236 0.31924 0.10244 0.0
C541 C 0.67701 0.27597 0.12623 0.0
C542 C 0.75015 0.27663 0.14183 0.0
C543 C 0.77455 0.31778 0.11444 0.0
N544 N 0.7711 0.37083 0.05865 0.0
N545 N 0.67564 0.209 0.16119 0.0
C546 C 0.74971 0.33649 0.09131 0.0
C547 C 0.70056 0.25324 0.14385 0.0
N548 N 0.68197 0.34544 0.09272 0.0
N549 N 0.7744 0.26043 0.16658 0.0
H550 H 0.63942 0.19113 0.16318 0.0
H551 H 0.69055 0.18877 0.17007 0.0
H552 H 0.81041 0.27578 0.16445 0.0
H553 H 0.75917 0.23365 0.19102 0.0
H554 H 0.70027 0.37949 0.08013 0.0
H555 H 0.64809 0.33539 0.10243 0.0
H556 H 0.75322 0.38258 0.03784 0.0
H557 H 0.80542 0.38379 0.04835 0.0
C558 C 0.58338 0.23654 0.63122 0.0
C559 C 0.62424 0.25293 0.60398 0.0
C560 C 0.60691 0.30971 0.56611 0.0
C561 C 0.57067 0.2987 0.59871 0.0
N562 N 0.52343 0.25078 0.66216 0.0
N563 N 0.67864 0.31075 0.55002 0.0
C564 C 0.55854 0.26165 0.6311 0.0
C565 C 0.63655 0.29044 0.57208 0.0
N566 N 0.5676 0.19617 0.65613 0.0
N567 N 0.61439 0.33957 0.52986 0.0
H568 H 0.70221 0.29899 0.55305 0.0
H569 H 0.69246 0.34236 0.53221 0.0
H570 H 0.59663 0.35772 0.52496 0.0
H571 H 0.63601 0.34349 0.50188 0.0
H572 H 0.53573 0.17964 0.67326 0.0
H573 H 0.58463 0.17681 0.65627 0.0
H574 H 0.51648 0.22852 0.69046 0.0
H575 H 0.50209 0.26553 0.66048 0.0
C576 C 0.84395 0.37551 0.58373 0.0
C577 C 0.80236 0.35049 0.61006 0.0
C578 C 0.81631 0.42428 0.6454 0.0
C579 C 0.85601 0.45005 0.61659 0.0
N580 N 0.90491 0.45025 0.55441 0.0
N581 N 0.74263 0.354 0.65476 0.0
C582 C 0.86891 0.4256 0.58447 0.0
C583 C 0.78704 0.37573 0.63794 0.0
N584 N 0.86038 0.35152 0.55904 0.0
N585 N 0.80541 0.44577 0.67975 0.0
H586 H 0.71866 0.31966 0.64718 0.0
H587 H 0.72755 0.37134 0.67098 0.0
H588 H 0.82245 0.48145 0.68524 0.0
H589 H 0.78116 0.42742 0.70574 0.0
H590 H 0.89316 0.36704 0.54376 0.0
H591 H 0.84223 0.31535 0.55619 0.0
H592 H 0.91286 0.4353 0.52663 0.0
H593 H 0.92556 0.48638 0.5557 0.0
C594 C 0.69266 0.52608 0.64768 0.0
C595 C 0.66914 0.47877 0.63295 0.0
C596 C 0.74174 0.48896 0.60013 0.0
C597 C 0.76632 0.53525 0.61709 0.0
N598 N 0.76673 0.59574 0.66395 0.0
N599 N 0.67718 0.41229 0.61413 0.0
C600 C 0.74222 0.55318 0.64313 0.0
C601 C 0.6955 0.45942 0.61474 0.0
N602 N 0.66794 0.54538 0.66524 0.0
N603 N 0.76218 0.4727 0.57002 0.0
H604 H 0.64558 0.38996 0.62995 0.0
H605 H 0.69609 0.39623 0.60446 0.0
H606 H 0.79543 0.49333 0.55676 0.0
H607 H 0.74399 0.44026 0.55392 0.0
H608 H 0.68204 0.58099 0.67081 0.0
H609 H 0.63272 0.52572 0.67293 0.0
H610 H 0.75218 0.60887 0.68734 0.0
H611 H 0.80253 0.61681 0.65984 0.0
C612 C 0.54032 0.86749 0.48959 0.0
C613 C 0.5242 0.82626 0.46244 0.0
C614 C 0.45585 0.83256 0.43964 0.0
C615 C 0.47435 0.87648 0.46215 0.0
N616 N 0.538 0.93899 0.50346 0.0
N617 N 0.46972 0.77509 0.40396 0.0
C618 C 0.51764 0.8948 0.48593 0.0
C619 C 0.48325 0.8108 0.43499 0.0
N620 N 0.57722 0.88063 0.51892 0.0
N621 N 0.41058 0.80945 0.42514 0.0
H622 H 0.48598 0.75554 0.40004 0.0
H623 H 0.44414 0.76729 0.37885 0.0
H624 H 0.38838 0.82289 0.42796 0.0
H625 H 0.39339 0.77458 0.41504 0.0
H626 H 0.58761 0.90729 0.54322 0.0
H627 H 0.59566 0.86277 0.52117 0.0
H628 H 0.57153 0.95634 0.5171 0.0
H629 H 0.52287 0.96001 0.5006 0.0
C630 C 0.30088 0.76445 0.49919 0.0
C631 C 0.29518 0.7919 0.46435 0.0
C632 C 0.23617 0.71863 0.42719 0.0
C633 C 0.23995 0.6922 0.46447 0.0
N634 N 0.26175 0.69561 0.54632 0.0
N635 N 0.24747 0.79336 0.40102 0.0
C636 C 0.26697 0.7168 0.50407 0.0
C637 C 0.2599 0.76852 0.42993 0.0
N638 N 0.34047 0.78215 0.52551 0.0
N639 N 0.20925 0.69622 0.38944 0.0
H640 H 0.26255 0.82939 0.4024 0.0
H641 H 0.21886 0.77789 0.37883 0.0
H642 H 0.1871 0.66024 0.38849 0.0
H643 H 0.21008 0.71328 0.35858 0.0
H644 H 0.34658 0.76209 0.54953 0.0
H645 H 0.3701 0.81399 0.51869 0.0
H646 H 0.27929 0.71428 0.57597 0.0
H647 H 0.23599 0.6619 0.55418 0.0
C648 C 0.36459 0.6517 0.48553 0.0
C649 C 0.33775 0.60544 0.46885 0.0
C650 C 0.41034 0.60833 0.44445 0.0
C651 C 0.4371 0.65249 0.46604 0.0
N652 N 0.43686 0.70936 0.51915 0.0
N653 N 0.33693 0.53558 0.44448 0.0
C654 C 0.41341 0.67188 0.49052 0.0
C655 C 0.3612 0.58247 0.4518 0.0
N656 N 0.34425 0.67797 0.49409 0.0
N657 N 0.43133 0.59135 0.41607 0.0
H658 H 0.3013 0.51564 0.45093 0.0
H659 H 0.35316 0.51629 0.43711 0.0
H660 H 0.46672 0.61015 0.40855 0.0
H661 H 0.41275 0.56099 0.3966 0.0
H662 H 0.36345 0.71378 0.49973 0.0
H663 H 0.30889 0.66522 0.49025 0.0
H664 H 0.42011 0.7218 0.54059 0.0
H665 H 0.47206 0.72448 0.52605 0.0
C666 C 0.23667 0.60429 0.91771 0.0
C667 C 0.24875 0.64222 0.94865 0.0
C668 C 0.31631 0.63644 0.97493 0.0
C669 C 0.30138 0.59518 0.94843 0.0
N670 N 0.24323 0.53628 0.89875 0.0
N671 N 0.29647 0.68791 1.01418 0.0
C672 C 0.26041 0.57814 0.92085 0.0
C673 C 0.2869 0.65579 0.97986 0.0
N674 N 0.20275 0.59324 0.88506 0.0
N675 N 0.36046 0.66002 0.99258 0.0
H676 H 0.27991 0.70715 1.01845 0.0
H677 H 0.31937 0.69305 0.04142 0.0
H678 H 0.38485 0.64944 0.98835 0.0
H679 H 0.37506 0.6935 1.0064 0.0
H680 H 0.19631 0.56991 0.858 0.0
H681 H 0.18269 0.60942 0.88321 0.0
H682 H 0.21074 0.51922 0.88277 0.0
H683 H 0.25984 0.51666 0.89961 0.0
C684 C 0.49188 0.76042 0.91221 0.0
C685 C 0.52698 0.78509 0.94615 0.0
C686 C 0.51731 0.71006 0.97402 0.0
C687 C 0.47806 0.68539 0.94429 0.0
N688 N 0.42098 0.68971 0.89465 0.0
N689 N 0.5704 0.78275 1.01258 0.0
C690 C 0.46369 0.71122 0.91566 0.0
C691 C 0.53881 0.75966 0.97808 0.0
N692 N 0.48428 0.78353 0.87679 0.0
N693 N 0.5351 0.68638 0.99732 0.0
H694 H 0.58878 0.81897 1.0152 0.0
H695 H 0.57636 0.76595 0.04025 0.0
H696 H 0.52052 0.65041 0.99527 0.0
H697 H 0.56656 0.70262 1.01527 0.0
H698 H 0.46335 0.76642 0.84818 0.0
H699 H 0.50149 0.81952 0.87328 0.0
H700 H 0.4068 0.70787 0.87815 0.0
H701 H 0.39684 0.65456 0.89844 0.0
C702 C 0.36205 0.86247 0.97212 0.0
C703 C 0.33931 0.819 0.94873 0.0
C704 C 0.41113 0.84113 0.90568 0.0
C705 C 0.43669 0.87866 0.9366 0.0
N706 N 0.43482 0.93141 0.99276 0.0
N707 N 0.34588 0.76369 0.89896 0.0
C708 C 0.41152 0.89116 0.96807 0.0
C709 C 0.36497 0.80743 0.91722 0.0
N710 N 0.33624 0.87718 0.99627 0.0
N711 N 0.42913 0.83895 0.86369 0.0
H712 H 0.31308 0.73698 0.90833 0.0
H713 H 0.36487 0.75281 0.87887 0.0
H714 H 0.45936 0.86668 0.85006 0.0
H715 H 0.41007 0.81321 0.83915 0.0
H716 H 0.3497 0.9104 1.01027 0.0
H717 H 0.30024 0.85699 0.99973 0.0
H718 H 0.42028 0.93941 1.02073 0.0
H719 H 0.46891 0.95668 0.98478 0.0
C720 C 0.16 0.41318 0.65615 0.0
C721 C 0.11483 0.37355 0.65871 0.0
C722 C 0.09641 0.39563 0.58341 0.0
C723 C 0.14371 0.43316 0.57742 0.0
N724 N 0.22304 0.46351 0.60475 0.0
N725 N 0.0478 0.31853 0.61538 0.0
C726 C 0.17636 0.43797 0.61287 0.0
C727 C 0.08585 0.36192 0.61919 0.0
N728 N 0.18755 0.4273 0.6948 0.0
N729 N 0.05994 0.39254 0.55811 0.0
H730 H 0.0396 0.29251 0.64012 0.0
H731 H 0.02788 0.30699 0.58506 0.0
H732 H 0.06124 0.417 0.5347 0.0
H733 H 0.02551 0.36789 0.5656 0.0
H734 H 0.21912 0.45849 0.69609 0.0
H735 H 0.17686 0.40966 0.72652 0.0
H736 H 0.24769 0.46526 0.62847 0.0
H737 H 0.23705 0.47694 0.57216 0.0
C738 C 0.74032 0.83175 0.57835 0.0
C739 C 0.6916 0.8087 0.58591 0.0
C740 C 0.70829 0.82623 0.66965 0.0
C741 C 0.75614 0.83948 0.66324 0.0
N742 N 0.8133 0.84313 0.60709 0.0
N743 N 0.62938 0.77711 0.64257 0.0
C744 C 0.7712 0.83949 0.61637 0.0
C745 C 0.67554 0.80425 0.63258 0.0
N746 N 0.75753 0.84672 0.53464 0.0
N747 N 0.69379 0.83581 0.71046 0.0
H748 H 0.60412 0.75888 0.61746 0.0
H749 H 0.6169 0.76899 0.67659 0.0
H750 H 0.71645 0.85473 0.73721 0.0
H751 H 0.66026 0.83034 0.71512 0.0
H752 H 0.79299 0.86735 0.52791 0.0
H753 H 0.73624 0.8435 0.50648 0.0
H754 H 0.8228 0.83875 0.5737 0.0
H755 H 0.83632 0.84404 0.63211 0.0
C756 C 0.27718 0.01333 0.62319 0.0
C757 C 0.28373 1.00195 0.66941 0.0
C758 C 0.3278 0.96597 0.63782 0.0
C759 C 0.31957 0.97557 0.59142 0.0
N760 N 0.27515 0.99681 0.54064 0.0
N761 N 0.30452 0.95648 0.71912 0.0
C762 C 0.29076 0.99568 0.58441 0.0
C763 C 0.30559 0.97472 0.67607 0.0
N764 N 0.26047 0.04316 0.61597 0.0
N765 N 0.35903 0.95122 0.64599 0.0
H766 H 0.28761 0.96123 0.74738 0.0
H767 H 0.3158 0.93268 0.72549 0.0
H768 H 0.37679 0.94506 0.61964 0.0
H769 H 0.37051 0.94908 0.67921 0.0
H770 H 0.26054 0.05728 0.58346 0.0
H771 H 0.24987 0.05681 0.64283 0.0
H772 H 0.25047 1.00678 0.53379 0.0
H773 H 0.28296 0.98281 0.51189 0.0
C774 C 0.40891 0.20045 0.97803 0.0
C775 C 0.42636 0.17173 0.99607 0.0
C776 C 0.37069 0.10809 0.94697 0.0
C777 C 0.35677 0.13737 0.92417 0.0
N778 N 0.36897 0.2151 0.91432 0.0
N779 N 0.43571 0.10529 0.98007 0.0
C780 C 0.37756 0.18471 0.93876 0.0
C781 C 0.41085 0.12776 0.97514 0.0
N782 N 0.42133 0.24217 0.99848 0.0
N783 N 0.34435 0.06086 0.94393 0.0
H784 H 0.46834 0.12101 0.99581 0.0
H785 H 0.42697 0.07432 0.96271 0.0
H786 H 0.31175 0.04474 0.92854 0.0
H787 H 0.35193 0.03834 0.96261 0.0
H788 H 0.40558 0.26185 0.9906 0.0
H789 H 0.44566 0.25591 1.02517 0.0
H790 H 0.38683 0.25093 0.92003 0.0
H791 H 0.34644 0.20488 0.88591 0.0
C792 C 0.94997 0.31057 0.92123 0.0
C793 C 0.99372 0.31245 0.9217 0.0
C794 C 1.00905 0.34861 0.99913 0.0
C795 C 0.96329 0.34259 1.00113 0.0
N796 N 0.88646 0.30603 0.96718 0.0
N797 N 0.05797 0.32023 0.96778 0.0
C798 C 0.93261 0.3201 0.96301 0.0
C799 C 0.02083 0.32703 0.96288 0.0
N800 N 0.92523 0.30052 0.88075 0.0
N801 N 0.04293 0.37786 1.02929 0.0
H802 H 0.06709 0.30368 0.94255 0.0
H803 H 0.07637 0.32642 0.9989 0.0
H804 H 0.03837 0.39824 0.05382 0.0
H805 H 0.07762 0.38657 1.02582 0.0
H806 H 0.89544 0.30329 0.87701 0.0
H807 H 0.9367 0.29307 0.84991 0.0
H808 H 0.86187 0.28597 0.94212 0.0
H809 H 0.87193 0.30974 0.99791 0.0
C810 C 0.7601 0.69219 0.95549 0.0
C811 C 0.78816 0.70447 0.9961 0.0
C812 C 0.84672 0.7752 0.95469 0.0
C813 C 0.81483 0.76685 0.91751 0.0
N814 N 0.73511 0.72107 0.89081 0.0
N815 N 0.85735 0.76079 1.03581 0.0
C816 C 0.76995 0.72615 0.91997 0.0
C817 C 0.83127 0.74697 0.9961 0.0
N818 N 0.72398 0.64784 0.95043 0.0
N819 N 0.8923 0.80871 0.94988 0.0
H820 H 0.84806 0.74018 0.06578 0.0
H821 H 0.88643 0.79374 0.0398 0.0
H822 H 0.90552 0.82817 0.91946 0.0
H823 H 0.91788 0.81359 0.97394 0.0
H824 H 0.7046 0.636 0.91985 0.0
H825 H 0.71732 0.62159 0.97444 0.0
H826 H 0.70085 0.6942 0.89444 0.0
H827 H 0.73863 0.7465 0.86711 0.0
C828 C 0.94457 0.69049 0.43907 0.0
C829 C 0.95158 0.70634 0.48603 0.0
C830 C 0.99565 0.78763 0.45696 0.0
C831 C 0.98674 0.77175 0.41007 0.0
N832 N 0.93983 0.70865 0.35805 0.0
N833 N 0.97223 0.77088 0.53798 0.0
C834 C 0.95708 0.72333 0.40173 0.0
C835 C 0.97344 0.75523 0.49434 0.0
N836 N 0.92883 0.6446 0.42952 0.0
N837 N 0.02733 0.83307 0.46634 0.0
H838 H 0.95505 0.74834 0.56565 0.0
H839 H 0.98364 0.80575 0.54537 0.0
H840 H 0.04467 0.85795 0.44051 0.0
H841 H 0.03925 0.84519 0.49984 0.0
H842 H 0.92831 0.6324 0.39598 0.0
H843 H 0.92043 0.61928 0.45511 0.0
H844 H 0.91486 0.67436 0.35045 0.0
H845 H 0.94615 0.73197 0.33086 0.0
C846 C 0.40016 0.32923 0.40186 0.0
C847 C 0.35162 0.30602 0.41016 0.0
C848 C 0.36858 0.30459 0.49365 0.0
C849 C 0.41699 0.33707 0.48657 0.0
N850 N 0.47589 0.38607 0.42897 0.0
N851 N 0.28984 0.27744 0.4669 0.0
C852 C 0.43213 0.35082 0.43934 0.0
C853 C 0.33584 0.29518 0.45688 0.0
N854 N 0.41622 0.32954 0.35808 0.0
N855 N 0.35356 0.28064 0.53462 0.0
H856 H 0.26477 0.27067 0.44153 0.0
H857 H 0.27746 0.27367 0.5009 0.0
H858 H 0.37606 0.28257 0.56087 0.0
H859 H 0.31943 0.25402 0.5398 0.0
H860 H 0.45123 0.34192 0.35075 0.0
H861 H 0.39402 0.31175 0.33059 0.0
H862 H 0.48528 0.40006 0.39554 0.0
H863 H 0.50179 0.40527 0.4529 0.0
C864 C 0.82735 0.19148 0.47174 0.0
C865 C 0.78794 0.15779 0.49747 0.0
C866 C 0.79216 0.09667 0.45287 0.0
C867 C 0.82373 0.12948 0.42086 0.0
N868 N 0.8698 0.20999 0.3985 0.0
N869 N 0.72426 0.0773 0.49768 0.0
C870 C 0.84095 0.17759 0.42989 0.0
C871 C 0.76799 0.11002 0.48411 0.0
N872 N 0.85321 0.23595 0.48791 0.0
N873 N 0.7856 0.05266 0.45433 0.0
H874 H 0.70132 0.08563 0.51376 0.0
H875 H 0.70834 0.04288 0.48611 0.0
H876 H 0.805 0.04269 0.43382 0.0
H877 H 0.76526 0.02857 0.47983 0.0
H878 H 0.88422 0.26057 0.47239 0.0
H879 H 0.84677 0.24671 0.51969 0.0
H880 H 0.87964 0.24517 0.40053 0.0
H881 H 0.88128 0.20066 0.36894 0.0
C882 C 0.71224 0.02217 0.14956 0.0
C883 C 0.74259 1.00464 0.162 0.0
C884 C 0.7025 0.94372 0.10136 0.0
C885 C 0.67069 0.95976 0.09279 0.0
N886 N 0.63451 1.00059 0.12514 0.0
N887 N 0.75465 0.93795 0.15675 0.0
C888 C 0.67206 0.99436 0.12245 0.0
C889 C 0.7344 0.96224 0.13992 0.0
N890 N 0.72239 0.06644 0.16046 0.0
N891 N 0.70253 0.91101 0.07269 0.0
H892 H 0.77502 0.9473 0.1866 0.0
H893 H 0.74659 0.90523 0.14427 0.0
H894 H 0.67729 0.89455 0.04708 0.0
H895 H 0.72847 0.90195 0.07331 0.0
H896 H 0.70251 0.08075 0.14831 0.0
H897 H 0.75337 0.09127 0.1754 0.0
H898 H 0.63261 0.02374 0.1484 0.0
H899 H 0.6031 0.97737 0.10945 0.0
C900 C 0.11835 0.76847 0.1058 0.0
C901 C 0.1573 0.7991 0.07878 0.0
C902 C 0.16629 0.86248 0.13206 0.0
C903 C 0.12222 0.83196 0.15307 0.0
N904 N 0.04988 0.76057 0.14166 0.0
N905 N 0.21718 0.87835 0.0646 0.0
C906 C 0.09652 0.78632 0.13466 0.0
C907 C 0.18115 0.84722 0.09148 0.0
N908 N 0.10298 0.72196 0.10602 0.0
N909 N 0.19448 0.90509 0.15129 0.0
H910 H 0.22901 0.86799 1.03586 0.0
H911 H 0.23312 0.91429 0.06915 0.0
H912 H 0.18502 0.91669 0.18077 0.0
H913 H 0.22847 0.92711 0.14023 0.0
H914 H 0.07667 0.69906 0.12842 0.0
H915 H 0.12094 0.70804 0.08904 0.0
H916 H 0.02954 0.72798 0.1263 0.0
H917 H 0.03147 0.7753 0.15618 0.0
C918 C 0.29519 0.38232 0.06743 0.0
C919 C 0.32183 0.43125 0.07526 0.0
C920 C 0.30281 0.41598 0.15884 0.0
C921 C 0.28387 0.36726 0.15196 0.0
N922 N 0.26868 0.30496 0.09837 0.0
N923 N 0.35662 0.49387 0.13131 0.0
C924 C 0.28139 0.35054 0.10583 0.0
C925 C 0.32676 0.44798 0.12173 0.0
N926 N 0.28182 0.36597 1.02324 0.0
N927 N 0.29742 0.43179 0.20095 0.0
H928 H 0.37634 0.51836 0.10596 0.0
H929 H 0.36533 0.50673 0.16511 0.0
H930 H 0.27884 0.4093 0.22821 0.0
H931 H 0.30668 0.4664 0.20693 0.0
H932 H 0.25875 0.33106 1.01582 0.0
H933 H 0.28939 0.38805 0.9947 0.0
H934 H 0.27181 0.29249 0.06608 0.0
H935 H 0.2589 0.28034 0.1249 0.0
C936 C 0.10935 0.50198 0.27842 0.0
C937 C 0.09859 0.51895 0.31902 0.0
C938 C 0.02594 0.50505 0.28055 0.0
C939 C 0.03283 0.48027 0.24383 0.0
N940 N 0.07818 0.44579 0.21628 0.0
N941 N 0.0418 0.52944 0.36124 0.0
C942 C 0.074 0.47655 0.24472 0.0
C943 C 0.05555 0.51863 0.32071 0.0
N944 N 0.15333 0.50947 0.27222 0.0
N945 N 0.99205 0.51686 0.27679 0.0
H946 H 0.0622 0.53874 0.39111 0.0
H947 H 1.0088 0.52525 0.3661 0.0
H948 H 0.97128 0.50962 0.24723 0.0
H949 H 0.9882 0.53834 0.30069 0.0
H950 H 0.16419 0.50113 0.24148 0.0
H951 H 0.18016 0.52909 0.29551 0.0
H952 H 0.10549 0.43884 0.21902 0.0
H953 H 0.05187 0.42265 0.19431 0.0
C954 C 0.6383 0.64164 0.33814 0.0
C955 C 0.61733 0.66974 0.33156 0.0
C956 C 0.62362 0.6625 0.24649 0.0
C957 C 0.65182 0.64168 0.25345 0.0
N958 N 0.69139 0.61765 0.30826 0.0
N959 N 0.59535 0.7118 0.27783 0.0
C960 C 0.66018 0.6324 0.29992 0.0
C961 C 0.61094 0.68109 0.28524 0.0
N962 N 0.63672 0.62305 0.38108 0.0
N963 N 0.60785 0.66358 0.2028 0.0
H964 H 0.58575 0.72643 0.30461 0.0
H965 H 0.59552 0.72572 0.24518 0.0
H966 H 0.61504 0.64897 0.17412 0.0
H967 H 0.5836 0.67414 0.19601 0.0
H968 H 0.64726 0.59864 0.38727 0.0
H969 H 0.61998 0.62806 0.40929 0.0
H970 H 0.70277 0.61561 0.34157 0.0
H971 H 0.7094 0.61167 0.28205 0.0
C972 C 0.43827 0.07789 0.26784 0.0
C973 C 0.4866 0.11026 0.25915 0.0
C974 C 0.50343 0.07875 0.331 0.0
C975 C 0.45593 0.0436 0.33489 0.0
N976 N 0.38421 0.9998 0.29318 0.0
N977 N 0.56575 0.1308 0.27914 0.0
C978 C 0.42546 0.03998 0.29884 0.0
C979 C 0.51955 0.10783 0.28987 0.0
N980 N 0.40363 0.08406 0.24948 0.0
N981 N 0.53327 0.08451 0.36639 0.0
H982 H 0.57905 0.14931 0.24834 0.0
H983 H 0.59029 0.12684 0.2983 0.0
H984 H 0.52297 0.06267 0.39552 0.0
H985 H 0.56705 0.11262 0.36789 0.0
H986 H 0.36876 0.06242 0.25821 0.0
H987 H 0.40908 0.11375 0.23175 0.0
H988 H 0.36228 0.99442 0.26491 0.0
H989 H 0.37528 0.97021 0.31315 0.0
C990 C 0.68233 0.11966 0.79307 0.0
C991 C 0.65309 0.10835 0.75389 0.0
C992 C 0.59367 0.04115 0.79855 0.0
C993 C 0.6276 0.04558 0.83241 0.0
N994 N 0.71154 0.08802 0.84996 0.0
N995 N 0.57998 0.05533 0.71831 0.0
C996 C 0.67395 0.08471 0.82675 0.0
C997 C 0.60847 0.06803 0.75622 0.0
N998 N 0.71861 0.16388 0.79827 0.0
N999 N 0.54729 0.0139 0.8074 0.0
H1000 H 0.58892 0.07549 0.68801 0.0
H1001 H 0.54908 0.02357 0.71638 0.0
H1002 H 0.53422 0.99879 0.83972 0.0
H1003 H 0.52172 0.01216 0.78497 0.0
H1004 H 0.73906 0.17482 0.82828 0.0
H1005 H 0.72419 0.19059 0.77525 0.0
H1006 H 0.74533 0.11481 0.84343 0.0
H1007 H 0.71168 0.06181 0.86964 0.0
C1008 C 0.0651 0.6283 0.8049 0.0
C1009 C 0.09218 0.67659 0.81558 0.0
C1010 C 0.04815 0.693 0.75695 0.0
C1011 C 0.02426 0.64559 0.742 0.0
N1012 N 0.01869 0.5699 0.74706 0.0
N1013 N 0.11954 0.75491 0.78795 0.0
C1014 C 0.03509 0.61358 0.76472 0.0
C1015 C 0.08671 0.70881 0.78738 0.0
N1016 N 0.06688 0.59629 0.83363 0.0
N1017 N 0.03331 0.72327 0.74407 0.0
H1018 H 0.15035 0.76737 0.80643 0.0
H1019 H 0.11911 0.77927 0.7651 0.0
H1020 H 1.00391 0.71399 0.72398 0.0
H1021 H 0.04712 0.75654 0.75829 0.0
H1022 H 0.04422 0.56055 0.83073 0.0
H1023 H 0.08886 0.6058 0.86243 0.0
H1024 H 0.02918 0.54692 0.75941 0.0
H1025 H 0.99828 0.55818 0.71719 0.0
C1026 C 0.51302 0.48279 0.7797 0.0
C1027 C 0.48224 0.46195 0.74131 0.0
C1028 C 0.42861 0.48413 0.77769 0.0
C1029 C 0.45537 0.4975 0.81915 0.0
N1030 N 0.52122 0.5043 0.8615 0.0
N1031 N 0.40378 0.43229 0.7119 0.0
C1032 C 0.49706 0.49522 0.82071 0.0
C1033 C 0.43824 0.46005 0.7423 0.0
N1034 N 0.55807 0.49257 0.77648 0.0
N1035 N 0.39359 0.49407 0.77186 0.0
H1036 H 0.40678 0.41039 0.68801 0.0
H1037 H 0.3699 0.42631 0.71457 0.0
H1038 H 0.38587 0.51226 0.79646 0.0
H1039 H 0.37577 0.48875 0.74049 0.0
H1040 H 0.5831 0.51148 0.80162 0.0
H1041 H 0.57169 0.48634 0.74643 0.0
H1042 H 0.54903 0.49841 0.86623 0.0
H1043 H 0.51122 0.51454 0.89159 0.0
C1044 C 0.21338 0.37925 0.82453 0.0
C1045 C 0.1782 0.37728 0.85417 0.0
C1046 C 0.23504 0.42432 0.91278 0.0
C1047 C 0.27038 0.42706 0.88291 0.0
N1048 N 0.29482 0.40249 0.81501 0.0
N1049 N 0.15464 0.40449 0.92078 0.0
C1050 C 0.26011 0.40358 0.83975 0.0
C1051 C 0.18863 0.40117 0.89703 0.0
N1052 N 0.20184 0.35783 0.782 0.0
N1053 N 0.24595 0.44401 0.9561 0.0
H1054 H 0.12044 0.38944 0.90897 0.0
H1055 H 0.16076 0.42553 0.9498 0.0
H1056 H 0.27992 0.46512 0.96749 0.0
H1057 H 0.22142 0.43777 0.98179 0.0
H1058 H 0.22576 0.36169 0.75657 0.0
H1059 H 0.16763 0.33722 0.77088 0.0
H1060 H 0.28971 0.38315 0.78491 0.0
H1061 H 0.32922 0.41866 0.82647 0.0
C1062 C 0.73139 0.87763 0.90651 0.0
C1063 C 0.75361 0.89108 0.8628 0.0
C1064 C 0.72435 0.94475 0.84997 0.0
C1065 C 0.70036 0.92987 0.8928 0.0
N1066 N 0.67166 0.8747 0.95653 0.0
N1067 N 0.76515 0.92996 0.78885 0.0
C1068 C 0.70131 0.8943 0.91979 0.0
C1069 C 0.74834 0.92251 0.83331 0.0
N1070 N 0.73997 0.85001 0.93571 0.0
N1071 N 0.7251 0.98082 0.82584 0.0
H1072 H 0.78395 0.91496 0.77573 0.0
H1073 H 0.75699 0.9475 0.7637 0.0
H1074 H 0.70641 0.99687 0.83621 0.0
H1075 H 0.74668 0.99703 0.7974 0.0
H1076 H 0.72908 0.8437 0.97029 0.0
H1077 H 0.76069 0.83581 0.92629 0.0
H1078 H 0.66687 0.84486 0.97374 0.0
H1079 H 0.64899 0.88596 0.96758 0.0
C1080 C 0.25903 0.88883 0.86763 0.0
C1081 C 0.2108 0.8582 0.8745 0.0
C1082 C 0.19605 0.92292 0.87854 0.0
C1083 C 0.24406 0.95387 0.87085 0.0
N1084 N 0.32277 0.96837 0.87035 0.0
N1085 N 0.13255 0.84433 0.86932 0.0
C1086 C 0.27607 0.93736 0.86889 0.0
C1087 C 0.17904 0.87482 0.87454 0.0
N1088 N 0.28798 0.87186 0.8571 0.0
N1089 N 0.16713 0.93879 0.89275 0.0
H1090 H 0.11931 0.80864 0.86475 0.0
H1091 H 0.10809 0.85492 0.86401 0.0
H1092 H 0.17896 0.9728 0.90346 0.0
H1093 H 0.13237 0.91684 0.90139 0.0
H1094 H 0.32291 0.89266 0.84861 0.0
H1095 H 0.27618 0.83695 0.85034 0.0
H1096 H 0.3481 0.95881 0.87438 0.0
H1097 H 0.33618 1.00428 0.87236 0.0
C1098 C 0.38522 0.27287 0.72906 0.0
C1099 C 0.40637 0.27853 0.68509 0.0
C1100 C 0.37417 0.19474 0.67659 0.0
C1101 C 0.35221 0.18896 0.72019 0.0
N1102 N 0.33098 0.21974 0.78591 0.0
N1103 N 0.41813 0.24728 0.61384 0.0
C1104 C 0.35595 0.22725 0.74585 0.0
C1105 C 0.39968 0.24007 0.6577 0.0
N1106 N 0.39512 0.3111 0.75551 0.0
N1107 N 0.37254 0.15724 0.65469 0.0
H1108 H 0.43854 0.28042 0.59956 0.0
H1109 H 0.41084 0.22076 0.59018 0.0
H1110 H 0.35408 0.12334 0.66775 0.0
H1111 H 0.39184 0.15967 0.62525 0.0
H1112 H 0.38569 0.30953 0.79027 0.0
H1113 H 0.41522 0.34521 0.74342 0.0
H1114 H 0.32859 0.24578 0.80372 0.0
H1115 H 0.31034 0.18673 0.80024 0.0
C1116 C 0.84907 0.20654 0.73902 0.0
C1117 C 0.84005 0.22381 0.69755 0.0
C1118 C 0.92255 0.27912 0.68652 0.0
C1119 C 0.93163 0.26112 0.72736 0.0
N1120 N 0.90522 0.2144 0.79738 0.0
N1121 N 0.86683 0.27042 0.62747 0.0
C1122 C 0.89534 0.22695 0.75527 0.0
C1123 C 0.87637 0.25862 0.67014 0.0
N1124 N 0.81393 0.1683 0.76059 0.0
N1125 N 0.95779 0.31731 0.66497 0.0
H1126 H 0.83321 0.2569 0.61452 0.0
H1127 H 0.89223 0.29084 0.60326 0.0
H1128 H 0.99201 0.33382 0.67696 0.0
H1129 H 0.95282 0.3353 0.63781 0.0
H1130 H 0.81891 0.15062 0.78801 0.0
H1131 H 0.77978 0.15148 0.74845 0.0
H1132 H 0.88014 0.19417 0.82194 0.0
H1133 H 0.93901 0.22639 0.8092 0.0
C1134 C 0.85325 0.74179 0.67176 0.0
C1135 C 0.86645 0.7627 0.71604 0.0
C1136 C 0.90512 0.71834 0.73421 0.0
C1137 C 0.89856 0.70333 0.6872 0.0
N1138 N 0.8655 0.69887 0.61081 0.0
N1139 N 0.9059 0.77351 0.78966 0.0
C1140 C 0.87246 0.71464 0.65572 0.0
C1141 C 0.89246 0.75156 0.74748 0.0
N1142 N 0.82114 0.74659 0.64602 0.0
N1143 N 0.92241 0.70031 0.76637 0.0
H1144 H 0.89541 0.79651 0.80176 0.0
H1145 H 0.9301 0.77159 0.81133 0.0
H1146 H 0.93258 0.67602 0.75845 0.0
H1147 H 0.92296 0.70624 0.80201 0.0
H1148 H 0.80671 0.72873 0.61517 0.0
H1149 H 0.80545 0.76522 0.65787 0.0
H1150 H 0.85233 0.71103 0.58475 0.0
H1151 H 0.87444 0.67466 0.59888 0.0
C1152 C 0.92067 0.72377 0.19059 0.0
C1153 C 0.93548 0.7591 0.22411 0.0
C1154 C 0.85553 0.74242 0.23503 0.0
C1155 C 0.84305 0.71339 0.19545 0.0
N1156 N 0.865 0.68179 0.13068 0.0
N1157 N 0.91768 0.79952 0.2831 0.0
C1158 C 0.87599 0.70576 0.17161 0.0
C1159 C 0.90303 0.76766 0.24798 0.0
N1160 N 0.94767 0.70471 0.17987 0.0
N1161 N 0.82203 0.74532 0.26013 0.0
H1162 H 0.95119 0.81471 0.29662 0.0
H1163 H 0.8971 0.81144 0.2982 0.0
H1164 H 0.78717 0.72866 0.25008 0.0
H1165 H 0.82796 0.76211 0.29207 0.0
H1166 H 0.93667 0.67606 0.15792 0.0
H1167 H 0.97799 0.71335 0.19839 0.0
H1168 H 0.89002 0.68043 0.10989 0.0
H1169 H 0.83223 0.66743 0.11543 0.0
C1170 C 0.37047 0.23246 0.25061 0.0
C1171 C 0.3661 0.26371 0.21999 0.0
C1172 C 0.41631 0.25723 0.16303 0.0
C1173 C 0.4214 0.22657 0.19414 0.0
N1174 N 0.41476 0.19563 0.27209 0.0
N1175 N 0.39038 0.3135 0.1524 0.0
C1176 C 0.40208 0.21742 0.23941 0.0
C1177 C 0.39058 0.27835 0.17758 0.0
N1178 N 0.34306 0.21564 0.28938 0.0
N1179 N 0.43673 0.2667 0.12007 0.0
H1180 H 0.37181 0.32982 0.16262 0.0
H1181 H 0.41128 0.32928 0.12349 0.0
H1182 H 0.4592 0.2551 0.10943 0.0
H1183 H 0.43022 0.28475 0.09416 0.0
H1184 H 0.34038 0.18802 0.30928 0.0
H1185 H 0.32012 0.22672 0.29982 0.0
H1186 H 0.40549 0.193 0.30707 0.0
H1187 H 0.43821 0.18407 0.26569 0.0
C1188 C 0.86699 0.20683 0.17561 0.0
C1189 C 0.87737 0.1953 0.21989 0.0
C1190 C 0.92164 0.27773 0.24151 0.0
C1191 C 0.91112 0.28915 0.19745 0.0
N1192 N 0.87871 0.26687 0.12019 0.0
N1193 N 0.92329 0.21889 0.29028 0.0
C1194 C 0.88543 0.25434 0.16371 0.0
C1195 C 0.90712 0.23052 0.25162 0.0
N1196 N 0.83786 0.17241 0.1458 0.0
N1197 N 0.94411 0.31181 0.27412 0.0
H1198 H 0.91375 0.1846 0.29871 0.0
H1199 H 0.94939 0.24323 0.31171 0.0
H1200 H 0.95662 0.34707 0.26718 0.0
H1201 H 0.94776 0.30503 0.30884 0.0
H1202 H 0.8232 0.17812 0.11621 0.0
H1203 H 0.82653 0.13729 0.15136 0.0
H1204 H 0.86649 0.24435 0.09187 0.0
H1205 H 0.88688 0.30067 0.11171 0.0
C1206 C 0.71467 0.94009 0.38906 0.0
C1207 C 0.7444 0.94797 0.35097 0.0
C1208 C 0.71774 0.86498 0.34425 0.0
C1209 C 0.69179 0.858 0.38553 0.0
N1210 N 0.66899 0.88803 0.45093 0.0
N1211 N 0.76652 0.91923 0.28444 0.0
C1212 C 0.69108 0.89526 0.409 0.0
C1213 C 0.74372 0.91072 0.3261 0.0
N1214 N 0.70668 0.97467 0.40398 0.0
N1215 N 0.71914 0.82826 0.32407 0.0
H1216 H 0.78628 0.95266 0.27064 0.0
H1217 H 0.76429 0.89346 0.26218 0.0
H1218 H 0.70027 0.79421 0.33669 0.0
H1219 H 0.74078 0.83139 0.29649 0.0
H1220 H 0.68155 0.96958 0.42858 0.0
H1221 H 0.72188 1.00741 0.38812 0.0
H1222 H 0.6721 0.91499 0.47201 0.0
H1223 H 0.65054 0.85534 0.46662 0.0
C1224 C 0.18668 0.87346 0.40207 0.0
C1225 C 0.17969 0.88756 0.35756 0.0
C1226 C 0.2608 0.94874 0.35331 0.0
C1227 C 0.26898 0.93114 0.39485 0.0
N1228 N 0.24173 0.87874 0.46077 0.0
N1229 N 0.20917 0.93581 0.28857 0.0
C1230 C 0.23237 0.89439 0.42022 0.0
C1231 C 0.21652 0.9243 0.33236 0.0
N1232 N 0.14963 0.84015 0.42669 0.0
N1233 N 0.29467 0.99026 0.33561 0.0
H1234 H 0.17668 0.92009 0.27251 0.0
H1235 H 0.23584 0.95878 0.26671 0.0
H1236 H 0.32674 0.01004 0.35203 0.0
H1237 H 0.28954 1.00744 0.30777 0.0
H1238 H 0.15125 0.83203 0.46142 0.0
H1239 H 0.11616 0.82145 0.4129 0.0
H1240 H 0.21786 0.84876 0.47833 0.0
H1241 H 0.27458 0.89449 0.47603 0.0
C1242 C 0.25243 0.45364 0.36117 0.0
C1243 C 0.20519 0.44042 0.36765 0.0
C1244 C 0.18193 0.3592 0.35105 0.0
C1245 C 0.22961 0.37174 0.35156 0.0
N1246 N 0.30963 0.42906 0.3666 0.0
N1247 N 0.12404 0.38266 0.36237 0.0
C1248 C 0.26467 0.41851 0.35933 0.0
C1249 C 0.16962 0.39367 0.36054 0.0
N1250 N 0.28552 0.49931 0.35528 0.0
N1251 N 0.14865 0.3149 0.33998 0.0
H1252 H 0.11411 0.40804 0.36224 0.0
H1253 H 0.09608 0.34885 0.36441 0.0
H1254 H 0.15591 0.28811 0.3365 0.0
H1255 H 0.11407 0.3046 0.33305 0.0
H1256 H 0.31961 0.50983 0.34558 0.0
H1257 H 0.27825 0.52644 0.35464 0.0
H1258 H 0.33618 0.46214 0.37572 0.0
H1259 H 0.31943 0.40364 0.36843 0.0
C1260 C 0.05216 0.53239 1.00518 0.0
C1261 C 0.02536 0.52559 0.04567 0.0
C1262 C 0.04431 0.60639 0.04532 0.0
C1263 C 0.07619 0.61495 1.00933 0.0
N1264 N 0.11191 0.58785 0.95386 0.0
N1265 N 1.00456 0.5575 0.11099 0.0
C1266 C 0.08067 0.57843 0.98886 0.0
C1267 C 0.02406 0.56306 0.06788 0.0
N1268 N 0.04874 0.49503 0.98142 0.0
N1269 N 0.03164 0.63863 0.05626 0.0
H1270 H 0.99074 0.52624 0.12952 0.0
H1271 H 1.00627 0.58515 0.12994 0.0
H1272 H 0.04437 0.67002 0.03808 0.0
H1273 H 1.00505 0.63197 0.0797 0.0
H1274 H 0.06365 0.49763 0.94889 0.0
H1275 H 0.02827 0.4607 0.99276 0.0
H1276 H 0.121 0.56386 0.94171 0.0
H1277 H 0.12984 0.62047 0.93799 0.0
C1278 C 0.54978 0.58516 0.99199 0.0
C1279 C 0.5126 0.55199 1.01984 0.0
C1280 C 0.56589 0.56066 0.08245 0.0
C1281 C 0.60251 0.59586 0.0557 0.0
N1282 N 0.62973 0.64794 0.98987 0.0
N1283 N 0.483 0.50988 0.09203 0.0
C1284 C 0.59469 0.60975 1.01163 0.0
C1285 C 0.51995 0.54031 0.06532 0.0
N1286 N 0.54198 0.59375 0.94718 0.0
N1287 N 0.57535 0.54536 0.12316 0.0
H1288 H 0.44912 0.49101 0.07926 0.0
H1289 H 0.48532 0.50471 0.12749 0.0
H1290 H 0.60842 0.56045 0.13784 0.0
H1291 H 0.55114 0.5159 0.1412 0.0
H1292 H 0.56844 0.61298 0.92344 0.0
H1293 H 0.50893 0.5798 0.93263 0.0
H1294 H 0.62518 0.66289 0.95982 0.0
H1295 H 0.66287 0.6675 1.00424 0.0
C1296 C 0.5117 0.05778 0.05851 0.0
C1297 C 0.5446 0.10614 0.05628 0.0
C1298 C 0.60678 0.08807 0.04277 0.0
C1299 C 0.57298 0.04027 0.04221 0.0
N1300 N 0.5001 0.98167 0.07585 0.0
N1301 N 0.62377 0.16782 0.0407 0.0
C1302 C 0.52739 0.02536 0.05799 0.0
C1303 C 0.59239 0.12165 0.04706 0.0
N1304 N 0.46506 0.0426 0.05918 0.0
N1305 N 0.65283 0.10071 0.04291 0.0
H1306 H 0.61552 0.19408 0.04228 0.0
H1307 H 0.65763 0.18023 1.02912 0.0
H1308 H 0.66377 0.07607 0.04354 0.0
H1309 H 0.67986 0.13457 0.04823 0.0
H1310 H 0.43964 1.0076 0.05765 0.0
H1311 H 0.45145 0.06489 0.05628 0.0
H1312 H 0.46846 0.97159 0.09222 0.0
H1313 H 0.51138 0.9578 0.08114 0.0
C1314 C 0.57252 0.04518 0.57809 0.0
C1315 C 0.60473 0.08087 0.5485 0.0
C1316 C 0.54227 0.08475 0.50867 0.0
C1317 C 0.50954 0.0491 0.53812 0.0
N1318 N 0.49625 0.01069 0.61268 0.0
N1319 N 0.61701 0.11499 0.472 0.0
C1320 C 0.52535 0.03343 0.57633 0.0
C1321 C 0.58857 0.09444 0.50931 0.0
N1322 N 0.58644 0.0205 0.60535 0.0
N1323 N 0.53035 0.11214 0.48318 0.0
H1324 H 0.64967 0.11764 0.46963 0.0
H1325 H 0.60575 0.12336 0.44147 0.0
H1326 H 0.49877 0.11133 0.48781 0.0
H1327 H 0.55437 0.1404 0.46342 0.0
H1328 H 0.56346 0.99166 0.62507 0.0
H1329 H 0.61973 0.02477 0.60277 0.0
H1330 H 0.50685 1.00086 0.64272 0.0
H1331 H 0.46355 1.00779 0.61546 0.0
C1332 C 0.0409 0.597 0.49816 0.0
C1333 C 0.01783 0.58357 0.54141 0.0
C1334 C 0.04695 0.53004 0.55586 0.0
C1335 C 0.07254 0.54577 0.51397 0.0
N1336 N 0.10364 0.60242 0.45151 0.0
N1337 N 1.00279 0.54271 0.61498 0.0
C1338 C 0.07209 0.58135 0.48657 0.0
C1339 C 0.02198 0.55165 0.5714 0.0
N1340 N 0.03314 0.62473 0.46829 0.0
N1341 N 0.04615 0.49414 0.58037 0.0
H1342 H 0.98256 0.55643 0.62717 0.0
H1343 H 1.00919 0.52404 0.64032 0.0
H1344 H 0.06658 0.47956 0.57161 0.0
H1345 H 0.02333 0.47691 0.6077 0.0
H1346 H 0.045 0.63104 0.43401 0.0
H1347 H 1.01207 0.63882 0.47663 0.0
H1348 H 0.10879 0.6325 0.43453 0.0
H1349 H 0.12693 0.59168 0.44134 0.0
C1350 C 0.58897 0.60531 0.56902 0.0
C1351 C 0.5761 0.61727 0.52648 0.0
C1352 C 0.53242 0.53543 0.50311 0.0
C1353 C 0.54387 0.52345 0.54638 0.0
N1354 N 0.57494 0.54448 0.6242 0.0
N1355 N 0.53085 0.59502 0.45557 0.0
C1356 C 0.56981 0.55766 0.58046 0.0
C1357 C 0.5466 0.58267 0.49408 0.0
N1358 N 0.6212 0.63934 0.59726 0.0
N1359 N 0.50803 0.50152 0.47086 0.0
H1360 H 0.53931 0.62922 0.44846 0.0
H1361 H 0.5069 0.57135 0.43213 0.0
H1362 H 0.49363 0.46617 0.47825 0.0
H1363 H 0.50362 0.50805 0.4363 0.0
H1364 H 0.63604 0.63246 0.62602 0.0
H1365 H 0.63597 0.67483 0.58998 0.0
H1366 H 0.58782 0.56737 0.65224 0.0
H1367 H 0.56334 0.50993 0.63333 0.0
loop_
_geom_bond_atom_site_label_1
_geom_bond_atom_site_label_2
_geom_bond_distance
_geom_bond_site_symmetry_2
_ccdc_geom_bond_type
Fe0 O2 1.918 . S
Fe0 O5 1.997 . S
Fe0 O6 2.002 . S
Fe0 O11 1.976 . S
Fe0 O14 1.996 1_455 S
Fe1 O2 1.918 . S
Fe1 O9 1.997 . S
Fe1 O12 1.996 . S
Fe1 O16 1.976 . S
Fe1 O19 2.002 . S
O2 Fe0 1.918 . S
O2 Fe1 1.918 . S
O2 Fe3 1.918 . S
Fe3 O2 1.918 . S
Fe3 O4 2.002 . S
Fe3 O13 1.976 1_455 S
Fe3 O17 1.996 1_455 S
Fe3 O20 1.997 . S
O4 Fe3 2.002 . S
O4 C21 1.295 . S
O5 Fe0 1.997 . S
O5 C21 1.235 . S
O6 Fe0 2.002 . S
O6 C7 1.295 . S
C7 O6 1.295 . S
C7 O9 1.235 . S
C8 O13 1.287 . S
C8 O14 1.255 . S
O9 Fe1 1.997 . S
O9 C7 1.235 . S
C10 O16 1.287 1_655 S
C10 O17 1.255 . S
O11 Fe0 1.976 . S
O11 C18 1.287 . S
O12 Fe1 1.996 . S
O12 C18 1.255 . S
O13 Fe3 1.976 1_655 S
O13 C8 1.287 . S
O14 Fe0 1.996 1_655 S
O14 C8 1.255 . S
C15 O19 1.295 . S
C15 O20 1.235 . S
O16 Fe1 1.976 . S
O16 C10 1.287 1_455 S
O17 Fe3 1.996 1_655 S
O17 C10 1.255 . S
C18 O11 1.287 . S
C18 O12 1.255 . S
O19 Fe1 2.002 . S
O19 C15 1.295 . S
O20 Fe3 1.997 . S
O20 C15 1.235 . S
C21 O4 1.295 . S
C21 O5 1.235 . S
Fe22 O24 1.918 . S
Fe22 O27 1.997 . S
Fe22 O28 2.002 . S
Fe22 O33 1.976 . S
Fe22 O36 1.996 . S
Fe23 O24 1.918 . S
Fe23 O31 1.997 . S
Fe23 O34 1.996 . S
Fe23 O38 1.976 . S
Fe23 O41 2.002 . S
O24 Fe22 1.918 . S
O24 Fe23 1.918 . S
O24 Fe25 1.918 . S
Fe25 O24 1.918 . S
Fe25 O26 2.002 . S
Fe25 O35 1.976 . S
Fe25 O39 1.996 . S
Fe25 O42 1.997 . S
O26 Fe25 2.002 . S
O26 C43 1.295 . S
O27 Fe22 1.997 . S
O27 C43 1.235 . S
O28 Fe22 2.002 . S
O28 C29 1.295 . S
C29 O28 1.295 . S
C29 O31 1.235 . S
C30 O35 1.287 . S
C30 O36 1.255 . S
O31 Fe23 1.997 . S
O31 C29 1.235 . S
C32 O38 1.287 . S
C32 O39 1.255 . S
O33 Fe22 1.976 . S
O33 C40 1.287 . S
O34 Fe23 1.996 . S
O34 C40 1.255 . S
O35 Fe25 1.976 . S
O35 C30 1.287 . S
O36 Fe22 1.996 . S
O36 C30 1.255 . S
C37 O41 1.295 . S
C37 O42 1.235 . S
O38 Fe23 1.976 . S
O38 C32 1.287 . S
O39 Fe25 1.996 . S
O39 C32 1.255 . S
C40 O33 1.287 . S
C40 O34 1.255 . S
O41 Fe23 2.002 . S
O41 C37 1.295 . S
O42 Fe25 1.997 . S
O42 C37 1.235 . S
C43 O26 1.295 . S
C43 O27 1.235 . S
Fe44 O46 1.918 . S
Fe44 O49 1.997 . S
Fe44 O50 2.002 . S
Fe44 O55 1.976 . S
Fe44 O58 1.996 . S
Fe45 O46 1.918 . S
Fe45 O53 1.997 . S
Fe45 O56 1.996 . S
Fe45 O60 1.976 . S
Fe45 O63 2.002 . S
O46 Fe44 1.918 . S
O46 Fe45 1.918 . S
O46 Fe47 1.918 . S
Fe47 O46 1.918 . S
Fe47 O48 2.002 . S
Fe47 O57 1.976 1_545 S
Fe47 O61 1.996 . S
Fe47 O64 1.997 . S
O48 Fe47 2.002 . S
O48 C65 1.295 . S
O49 Fe44 1.997 . S
O49 C65 1.235 . S
O50 Fe44 2.002 . S
O50 C51 1.295 . S
C51 O50 1.295 . S
C51 O53 1.235 . S
C52 O57 1.287 . S
C52 O58 1.255 1_565 S
O53 Fe45 1.997 . S
O53 C51 1.235 . S
C54 O60 1.287 . S
C54 O61 1.255 . S
O55 Fe44 1.976 . S
O55 C62 1.287 . S
O56 Fe45 1.996 . S
O56 C62 1.255 . S
O57 Fe47 1.976 1_565 S
O57 C52 1.287 . S
O58 Fe44 1.996 . S
O58 C52 1.255 1_545 S
C59 O63 1.295 . S
C59 O64 1.235 . S
O60 Fe45 1.976 . S
O60 C54 1.287 . S
O61 Fe47 1.996 . S
O61 C54 1.255 . S
C62 O55 1.287 . S
C62 O56 1.255 . S
O63 Fe45 2.002 . S
O63 C59 1.295 . S
O64 Fe47 1.997 . S
O64 C59 1.235 . S
C65 O48 1.295 . S
C65 O49 1.235 . S
Fe66 O68 1.918 . S
Fe66 O71 1.997 1_455 S
Fe66 O72 2.002 1_455 S
Fe66 O77 1.976 . S
Fe66 O80 1.996 . S
Fe67 O68 1.918 . S
Fe67 O75 1.997 1_455 S
Fe67 O78 1.996 . S
Fe67 O82 1.976 . S
Fe67 O85 2.002 . S
O68 Fe66 1.918 . S
O68 Fe67 1.918 . S
O68 Fe69 1.918 . S
Fe69 O68 1.918 . S
Fe69 O70 2.002 . S
Fe69 O79 1.976 . S
Fe69 O83 1.996 . S
Fe69 O86 1.997 . S
O70 Fe69 2.002 . S
O70 C87 1.295 1_455 S
O71 Fe66 1.997 1_655 S
O71 C87 1.235 . S
O72 Fe66 2.002 1_655 S
O72 C73 1.295 . S
C73 O72 1.295 . S
C73 O75 1.235 . S
C74 O79 1.287 . S
C74 O80 1.255 . S
O75 Fe67 1.997 1_655 S
O75 C73 1.235 . S
C76 O82 1.287 . S
C76 O83 1.255 . S
O77 Fe66 1.976 . S
O77 C84 1.287 . S
O78 Fe67 1.996 . S
O78 C84 1.255 . S
O79 Fe69 1.976 . S
O79 C74 1.287 . S
O80 Fe66 1.996 . S
O80 C74 1.255 . S
C81 O85 1.295 . S
C81 O86 1.235 . S
O82 Fe67 1.976 . S
O82 C76 1.287 . S
O83 Fe69 1.996 . S
O83 C76 1.255 . S
C84 O77 1.287 . S
C84 O78 1.255 . S
O85 Fe67 2.002 . S
O85 C81 1.295 . S
O86 Fe69 1.997 . S
O86 C81 1.235 . S
C87 O70 1.295 1_655 S
C87 O71 1.235 . S
Fe88 O90 1.918 . S
Fe88 O93 1.997 . S
Fe88 O94 2.002 . S
Fe88 O99 1.976 . S
Fe88 O102 1.996 . S
Fe89 O90 1.918 . S
Fe89 O97 1.997 . S
Fe89 O100 1.996 . S
Fe89 O104 1.976 . S
Fe89 O107 2.002 . S
O90 Fe88 1.918 . S
O90 Fe89 1.918 . S
O90 Fe91 1.918 . S
Fe91 O90 1.918 . S
Fe91 O92 2.002 . S
Fe91 O101 1.976 . S
Fe91 O105 1.996 . S
Fe91 O108 1.997 . S
O92 Fe91 2.002 . S
O92 C109 1.295 . S
O93 Fe88 1.997 . S
O93 C109 1.235 . S
O94 Fe88 2.002 . S
O94 C95 1.295 . S
C95 O94 1.295 . S
C95 O97 1.235 . S
C96 O101 1.287 . S
C96 O102 1.255 . S
O97 Fe89 1.997 . S
O97 C95 1.235 . S
C98 O104 1.287 . S
C98 O105 1.255 . S
O99 Fe88 1.976 . S
O99 C106 1.287 . S
O100 Fe89 1.996 . S
O100 C106 1.255 . S
O101 Fe91 1.976 . S
O101 C96 1.287 . S
O102 Fe88 1.996 . S
O102 C96 1.255 . S
C103 O107 1.295 . S
C103 O108 1.235 . S
O104 Fe89 1.976 . S
O104 C98 1.287 . S
O105 Fe91 1.996 . S
O105 C98 1.255 . S
C106 O99 1.287 . S
C106 O100 1.255 . S
O107 Fe89 2.002 . S
O107 C103 1.295 . S
O108 Fe91 1.997 . S
O108 C103 1.235 . S
C109 O92 1.295 . S
C109 O93 1.235 . S
Fe110 O112 1.918 . S
Fe110 O115 1.997 . S
Fe110 O116 2.002 1_545 S
Fe110 O121 1.976 . S
Fe110 O124 1.996 . S
Fe111 O112 1.918 . S
Fe111 O119 1.997 . S
Fe111 O122 1.996 . S
Fe111 O126 1.976 . S
Fe111 O129 2.002 . S
O112 Fe110 1.918 . S
O112 Fe111 1.918 . S
O112 Fe113 1.918 . S
Fe113 O112 1.918 . S
Fe113 O114 2.002 . S
Fe113 O123 1.976 . S
Fe113 O127 1.996 . S
Fe113 O130 1.997 . S
O114 Fe113 2.002 . S
O114 C131 1.295 . S
O115 Fe110 1.997 . S
O115 C131 1.235 . S
O116 Fe110 2.002 1_565 S
O116 C117 1.295 . S
C117 O116 1.295 . S
C117 O119 1.235 1_565 S
C118 O123 1.287 . S
C118 O124 1.255 . S
O119 Fe111 1.997 . S
O119 C117 1.235 1_545 S
C120 O126 1.287 . S
C120 O127 1.255 . S
O121 Fe110 1.976 . S
O121 C128 1.287 . S
O122 Fe111 1.996 . S
O122 C128 1.255 . S
O123 Fe113 1.976 . S
O123 C118 1.287 . S
O124 Fe110 1.996 . S
O124 C118 1.255 . S
C125 O129 1.295 . S
C125 O130 1.235 . S
O126 Fe111 1.976 . S
O126 C120 1.287 . S
O127 Fe113 1.996 . S
O127 C120 1.255 . S
C128 O121 1.287 . S
C128 O122 1.255 . S
O129 Fe111 2.002 . S
O129 C125 1.295 . S
O130 Fe113 1.997 . S
O130 C125 1.235 . S
C131 O114 1.295 . S
C131 O115 1.235 . S
Fe132 O134 1.918 . S
Fe132 O137 1.997 . S
Fe132 O138 2.002 . S
Fe132 O143 1.976 . S
Fe132 O146 1.996 . S
Fe133 O134 1.918 . S
Fe133 O141 1.997 . S
Fe133 O144 1.996 . S
Fe133 O148 1.976 . S
Fe133 O151 2.002 . S
O134 Fe132 1.918 . S
O134 Fe133 1.918 . S
O134 Fe135 1.918 . S
Fe135 O134 1.918 . S
Fe135 O136 2.002 1_554 S
Fe135 O145 1.976 . S
Fe135 O149 1.996 . S
Fe135 O152 1.997 . S
O136 Fe135 2.002 1_556 S
O136 C153 1.295 . S
O137 Fe132 1.997 . S
O137 C153 1.235 1_554 S
O138 Fe132 2.002 . S
O138 C139 1.295 . S
C139 O138 1.295 . S
C139 O141 1.235 . S
C140 O145 1.287 . S
C140 O146 1.255 . S
O141 Fe133 1.997 . S
O141 C139 1.235 . S
C142 O148 1.287 . S
C142 O149 1.255 . S
O143 Fe132 1.976 . S
O143 C150 1.287 . S
O144 Fe133 1.996 . S
O144 C150 1.255 . S
O145 Fe135 1.976 . S
O145 C140 1.287 . S
O146 Fe132 1.996 . S
O146 C140 1.255 . S
C147 O151 1.295 . S
C147 O152 1.235 . S
O148 Fe133 1.976 . S
O148 C142 1.287 . S
O149 Fe135 1.996 . S
O149 C142 1.255 . S
C150 O143 1.287 . S
C150 O144 1.255 . S
O151 Fe133 2.002 . S
O151 C147 1.295 . S
O152 Fe135 1.997 . S
O152 C147 1.235 . S
C153 O136 1.295 . S
C153 O137 1.235 1_556 S
Fe154 O156 1.918 . S
Fe154 O159 1.997 . S
Fe154 O160 2.002 . S
Fe154 O165 1.976 . S
Fe154 O168 1.996 . S
Fe155 O156 1.918 . S
Fe155 O163 1.997 . S
Fe155 O166 1.996 . S
Fe155 O170 1.976 . S
Fe155 O173 2.002 . S
O156 Fe154 1.918 . S
O156 Fe155 1.918 . S
O156 Fe157 1.918 . S
Fe157 O156 1.918 . S
Fe157 O158 2.002 1_554 S
Fe157 O167 1.976 . S
Fe157 O171 1.996 . S
Fe157 O174 1.997 . S
O158 Fe157 2.002 1_556 S
O158 C175 1.295 . S
O159 Fe154 1.997 . S
O159 C175 1.235 1_554 S
O160 Fe154 2.002 . S
O160 C161 1.295 . S
C161 O160 1.295 . S
C161 O163 1.235 . S
C162 O167 1.287 . S
C162 O168 1.255 . S
O163 Fe155 1.997 . S
O163 C161 1.235 . S
C164 O170 1.287 . S
C164 O171 1.255 . S
O165 Fe154 1.976 . S
O165 C172 1.287 . S
O166 Fe155 1.996 . S
O166 C172 1.255 . S
O167 Fe157 1.976 . S
O167 C162 1.287 . S
O168 Fe154 1.996 . S
O168 C162 1.255 . S
C169 O173 1.295 . S
C169 O174 1.235 . S
O170 Fe155 1.976 . S
O170 C164 1.287 . S
O171 Fe157 1.996 . S
O171 C164 1.255 . S
C172 O165 1.287 . S
C172 O166 1.255 . S
O173 Fe155 2.002 . S
O173 C169 1.295 . S
O174 Fe157 1.997 . S
O174 C169 1.235 . S
C175 O158 1.295 . S
C175 O159 1.235 1_556 S
Fe176 O178 1.918 . S
Fe176 O181 1.997 . S
Fe176 O182 2.002 . S
Fe176 O187 1.976 . S
Fe176 O190 1.996 . S
Fe177 O178 1.918 . S
Fe177 O185 1.997 . S
Fe177 O188 1.996 . S
Fe177 O192 1.976 . S
Fe177 O195 2.002 1_554 S
O178 Fe176 1.918 . S
O178 Fe177 1.918 . S
O178 Fe179 1.918 . S
Fe179 O178 1.918 . S
Fe179 O180 2.002 . S
Fe179 O189 1.976 . S
Fe179 O193 1.996 1_655 S
Fe179 O196 1.997 . S
O180 Fe179 2.002 . S
O180 C197 1.295 . S
O181 Fe176 1.997 . S
O181 C197 1.235 . S
O182 Fe176 2.002 . S
O182 C183 1.295 . S
C183 O182 1.295 . S
C183 O185 1.235 . S
C184 O189 1.287 . S
C184 O190 1.255 . S
O185 Fe177 1.997 . S
O185 C183 1.235 . S
C186 O192 1.287 . S
C186 O193 1.255 1_655 S
O187 Fe176 1.976 . S
O187 C194 1.287 . S
O188 Fe177 1.996 . S
O188 C194 1.255 . S
O189 Fe179 1.976 . S
O189 C184 1.287 . S
O190 Fe176 1.996 . S
O190 C184 1.255 . S
C191 O195 1.295 . S
C191 O196 1.235 1_556 S
O192 Fe177 1.976 . S
O192 C186 1.287 . S
O193 Fe179 1.996 1_455 S
O193 C186 1.255 1_455 S
C194 O187 1.287 . S
C194 O188 1.255 . S
O195 Fe177 2.002 1_556 S
O195 C191 1.295 . S
O196 Fe179 1.997 . S
O196 C191 1.235 1_554 S
C197 O180 1.295 . S
C197 O181 1.235 . S
Fe198 O200 1.918 . S
Fe198 O203 1.997 . S
Fe198 O204 2.002 . S
Fe198 O209 1.976 . S
Fe198 O212 1.996 . S
Fe199 O200 1.918 . S
Fe199 O207 1.997 . S
Fe199 O210 1.996 . S
Fe199 O214 1.976 . S
Fe199 O217 2.002 . S
O200 Fe198 1.918 . S
O200 Fe199 1.918 . S
O200 Fe201 1.918 . S
Fe201 O200 1.918 . S
Fe201 O202 2.002 . S
Fe201 O211 1.976 . S
Fe201 O215 1.996 . S
Fe201 O218 1.997 . S
O202 Fe201 2.002 . S
O202 C219 1.295 . S
O203 Fe198 1.997 . S
O203 C219 1.235 . S
O204 Fe198 2.002 . S
O204 C205 1.295 . S
C205 O204 1.295 . S
C205 O207 1.235 . S
C206 O211 1.287 . S
C206 O212 1.255 . S
O207 Fe199 1.997 . S
O207 C205 1.235 . S
C208 O214 1.287 . S
C208 O215 1.255 . S
O209 Fe198 1.976 . S
O209 C216 1.287 . S
O210 Fe199 1.996 . S
O210 C216 1.255 . S
O211 Fe201 1.976 . S
O211 C206 1.287 . S
O212 Fe198 1.996 . S
O212 C206 1.255 . S
C213 O217 1.295 . S
C213 O218 1.235 . S
O214 Fe199 1.976 . S
O214 C208 1.287 . S
O215 Fe201 1.996 . S
O215 C208 1.255 . S
C216 O209 1.287 . S
C216 O210 1.255 . S
O217 Fe199 2.002 . S
O217 C213 1.295 . S
O218 Fe201 1.997 . S
O218 C213 1.235 . S
C219 O202 1.295 . S
C219 O203 1.235 . S
Fe220 O222 1.918 . S
Fe220 O225 1.997 . S
Fe220 O226 2.002 . S
Fe220 O231 1.976 . S
Fe220 O234 1.996 . S
Fe221 O222 1.918 . S
Fe221 O229 1.997 . S
Fe221 O232 1.996 . S
Fe221 O236 1.976 1_655 S
Fe221 O239 2.002 . S
O222 Fe220 1.918 . S
O222 Fe221 1.918 . S
O222 Fe223 1.918 . S
Fe223 O222 1.918 . S
Fe223 O224 2.002 . S
Fe223 O233 1.976 . S
Fe223 O237 1.996 . S
Fe223 O240 1.997 . S
O224 Fe223 2.002 . S
O224 C241 1.295 . S
O225 Fe220 1.997 . S
O225 C241 1.235 . S
O226 Fe220 2.002 . S
O226 C227 1.295 . S
C227 O226 1.295 . S
C227 O229 1.235 . S
C228 O233 1.287 . S
C228 O234 1.255 . S
O229 Fe221 1.997 . S
O229 C227 1.235 . S
C230 O236 1.287 1_655 S
C230 O237 1.255 . S
O231 Fe220 1.976 . S
O231 C238 1.287 . S
O232 Fe221 1.996 . S
O232 C238 1.255 . S
O233 Fe223 1.976 . S
O233 C228 1.287 . S
O234 Fe220 1.996 . S
O234 C228 1.255 . S
C235 O239 1.295 . S
C235 O240 1.235 . S
O236 Fe221 1.976 1_455 S
O236 C230 1.287 1_455 S
O237 Fe223 1.996 . S
O237 C230 1.255 . S
C238 O231 1.287 . S
C238 O232 1.255 . S
O239 Fe221 2.002 . S
O239 C235 1.295 . S
O240 Fe223 1.997 . S
O240 C235 1.235 . S
C241 O224 1.295 . S
C241 O225 1.235 . S
Fe242 O244 1.918 . S
Fe242 O247 1.997 . S
Fe242 O248 2.002 . S
Fe242 O253 1.976 . S
Fe242 O256 1.996 . S
Fe243 O244 1.918 . S
Fe243 O251 1.997 . S
Fe243 O254 1.996 . S
Fe243 O258 1.976 . S
Fe243 O261 2.002 . S
O244 Fe242 1.918 . S
O244 Fe243 1.918 . S
O244 Fe245 1.918 . S
Fe245 O244 1.918 . S
Fe245 O246 2.002 . S
Fe245 O255 1.976 . S
Fe245 O259 1.996 . S
Fe245 O262 1.997 . S
O246 Fe245 2.002 . S
O246 C263 1.295 . S
O247 Fe242 1.997 . S
O247 C263 1.235 . S
O248 Fe242 2.002 . S
O248 C249 1.295 . S
C249 O248 1.295 . S
C249 O251 1.235 . S
C250 O255 1.287 . S
C250 O256 1.255 . S
O251 Fe243 1.997 . S
O251 C249 1.235 . S
C252 O258 1.287 . S
C252 O259 1.255 . S
O253 Fe242 1.976 . S
O253 C260 1.287 . S
O254 Fe243 1.996 . S
O254 C260 1.255 . S
O255 Fe245 1.976 . S
O255 C250 1.287 . S
O256 Fe242 1.996 . S
O256 C250 1.255 . S
C257 O261 1.295 . S
C257 O262 1.235 . S
O258 Fe243 1.976 . S
O258 C252 1.287 . S
O259 Fe245 1.996 . S
O259 C252 1.255 . S
C260 O253 1.287 . S
C260 O254 1.255 . S
O261 Fe243 2.002 . S
O261 C257 1.295 . S
O262 Fe245 1.997 . S
O262 C257 1.235 . S
C263 O246 1.295 . S
C263 O247 1.235 . S
Fe264 O266 1.918 . S
Fe264 O269 1.997 . S
Fe264 O270 2.002 . S
Fe264 O275 1.976 . S
Fe264 O278 1.996 . S
Fe265 O266 1.918 . S
Fe265 O273 1.997 . S
Fe265 O276 1.996 . S
Fe265 O280 1.976 . S
Fe265 O283 2.002 . S
O266 Fe264 1.918 . S
O266 Fe265 1.918 . S
O266 Fe267 1.918 . S
Fe267 O266 1.918 . S
Fe267 O268 2.002 1_565 S
Fe267 O277 1.976 . S
Fe267 O281 1.996 . S
Fe267 O284 1.997 1_565 S
O268 Fe267 2.002 1_545 S
O268 C285 1.295 . S
O269 Fe264 1.997 . S
O269 C285 1.235 1_565 S
O270 Fe264 2.002 . S
O270 C271 1.295 . S
C271 O270 1.295 . S
C271 O273 1.235 . S
C272 O277 1.287 . S
C272 O278 1.255 . S
O273 Fe265 1.997 . S
O273 C271 1.235 . S
C274 O280 1.287 . S
C274 O281 1.255 . S
O275 Fe264 1.976 . S
O275 C282 1.287 . S
O276 Fe265 1.996 . S
O276 C282 1.255 . S
O277 Fe267 1.976 . S
O277 C272 1.287 . S
O278 Fe264 1.996 . S
O278 C272 1.255 . S
C279 O283 1.295 . S
C279 O284 1.235 1_565 S
O280 Fe265 1.976 . S
O280 C274 1.287 . S
O281 Fe267 1.996 . S
O281 C274 1.255 . S
C282 O275 1.287 . S
C282 O276 1.255 . S
O283 Fe265 2.002 . S
O283 C279 1.295 . S
O284 Fe267 1.997 1_545 S
O284 C279 1.235 1_545 S
C285 O268 1.295 . S
C285 O269 1.235 1_545 S
Fe286 O288 1.918 . S
Fe286 O291 1.997 . S
Fe286 O292 2.002 . S
Fe286 O297 1.976 . S
Fe286 O300 1.996 . S
Fe287 O288 1.918 . S
Fe287 O295 1.997 . S
Fe287 O298 1.996 . S
Fe287 O302 1.976 . S
Fe287 O305 2.002 . S
O288 Fe286 1.918 . S
O288 Fe287 1.918 . S
O288 Fe289 1.918 . S
Fe289 O288 1.918 . S
Fe289 O290 2.002 . S
Fe289 O299 1.976 . S
Fe289 O303 1.996 . S
Fe289 O306 1.997 . S
O290 Fe289 2.002 . S
O290 C307 1.295 . S
O291 Fe286 1.997 . S
O291 C307 1.235 . S
O292 Fe286 2.002 . S
O292 C293 1.295 . S
C293 O292 1.295 . S
C293 O295 1.235 . S
C294 O299 1.287 . S
C294 O300 1.255 . S
O295 Fe287 1.997 . S
O295 C293 1.235 . S
C296 O302 1.287 . S
C296 O303 1.255 . S
O297 Fe286 1.976 . S
O297 C304 1.287 . S
O298 Fe287 1.996 . S
O298 C304 1.255 . S
O299 Fe289 1.976 . S
O299 C294 1.287 . S
O300 Fe286 1.996 . S
O300 C294 1.255 . S
C301 O305 1.295 . S
C301 O306 1.235 . S
O302 Fe287 1.976 . S
O302 C296 1.287 . S
O303 Fe289 1.996 . S
O303 C296 1.255 . S
C304 O297 1.287 . S
C304 O298 1.255 . S
O305 Fe287 2.002 . S
O305 C301 1.295 . S
O306 Fe289 1.997 . S
O306 C301 1.235 . S
C307 O290 1.295 . S
C307 O291 1.235 . S
Fe308 O310 1.918 . S
Fe308 O313 1.997 . S
Fe308 O314 2.002 . S
Fe308 O319 1.976 . S
Fe308 O322 1.996 . S
Fe309 O310 1.918 . S
Fe309 O317 1.997 . S
Fe309 O320 1.996 . S
Fe309 O324 1.976 . S
Fe309 O327 2.002 . S
O310 Fe308 1.918 . S
O310 Fe309 1.918 . S
O310 Fe311 1.918 . S
Fe311 O310 1.918 . S
Fe311 O312 2.002 . S
Fe311 O321 1.976 . S
Fe311 O325 1.996 . S
Fe311 O328 1.997 . S
O312 Fe311 2.002 . S
O312 C329 1.295 . S
O313 Fe308 1.997 . S
O313 C329 1.235 . S
O314 Fe308 2.002 . S
O314 C315 1.295 . S
C315 O314 1.295 . S
C315 O317 1.235 . S
C316 O321 1.287 . S
C316 O322 1.255 . S
O317 Fe309 1.997 . S
O317 C315 1.235 . S
C318 O324 1.287 . S
C318 O325 1.255 . S
O319 Fe308 1.976 . S
O319 C326 1.287 . S
O320 Fe309 1.996 . S
O320 C326 1.255 . S
O321 Fe311 1.976 . S
O321 C316 1.287 . S
O322 Fe308 1.996 . S
O322 C316 1.255 . S
C323 O327 1.295 . S
C323 O328 1.235 . S
O324 Fe309 1.976 . S
O324 C318 1.287 . S
O325 Fe311 1.996 . S
O325 C318 1.255 . S
C326 O319 1.287 . S
C326 O320 1.255 . S
O327 Fe309 2.002 . S
O327 C323 1.295 . S
O328 Fe311 1.997 . S
O328 C323 1.235 . S
C329 O312 1.295 . S
C329 O313 1.235 . S
Fe330 O332 1.918 . S
Fe330 O335 1.997 . S
Fe330 O336 2.002 . S
Fe330 O341 1.976 . S
Fe330 O344 1.996 . S
Fe331 O332 1.918 . S
Fe331 O339 1.997 . S
Fe331 O342 1.996 . S
Fe331 O346 1.976 . S
Fe331 O349 2.002 . S
O332 Fe330 1.918 . S
O332 Fe331 1.918 . S
O332 Fe333 1.918 . S
Fe333 O332 1.918 . S
Fe333 O334 2.002 . S
Fe333 O343 1.976 . S
Fe333 O347 1.996 . S
Fe333 O350 1.997 1_556 S
O334 Fe333 2.002 . S
O334 C351 1.295 . S
O335 Fe330 1.997 . S
O335 C351 1.235 . S
O336 Fe330 2.002 . S
O336 C337 1.295 . S
C337 O336 1.295 . S
C337 O339 1.235 . S
C338 O343 1.287 . S
C338 O344 1.255 . S
O339 Fe331 1.997 . S
O339 C337 1.235 . S
C340 O346 1.287 . S
C340 O347 1.255 . S
O341 Fe330 1.976 . S
O341 C348 1.287 . S
O342 Fe331 1.996 . S
O342 C348 1.255 . S
O343 Fe333 1.976 . S
O343 C338 1.287 . S
O344 Fe330 1.996 . S
O344 C338 1.255 . S
C345 O349 1.295 1_554 S
C345 O350 1.235 . S
O346 Fe331 1.976 . S
O346 C340 1.287 . S
O347 Fe333 1.996 . S
O347 C340 1.255 . S
C348 O341 1.287 . S
C348 O342 1.255 . S
O349 Fe331 2.002 . S
O349 C345 1.295 1_556 S
O350 Fe333 1.997 1_554 S
O350 C345 1.235 . S
C351 O334 1.295 . S
C351 O335 1.235 . S
Fe352 O354 1.918 . S
Fe352 O357 1.997 . S
Fe352 O358 2.002 . S
Fe352 O363 1.976 . S
Fe352 O366 1.996 . S
Fe353 O354 1.918 . S
Fe353 O361 1.997 . S
Fe353 O364 1.996 1_565 S
Fe353 O368 1.976 1_565 S
Fe353 O371 2.002 . S
O354 Fe352 1.918 . S
O354 Fe353 1.918 . S
O354 Fe355 1.918 . S
Fe355 O354 1.918 . S
Fe355 O356 2.002 . S
Fe355 O365 1.976 . S
Fe355 O369 1.996 . S
Fe355 O372 1.997 1_556 S
O356 Fe355 2.002 . S
O356 C373 1.295 . S
O357 Fe352 1.997 . S
O357 C373 1.235 . S
O358 Fe352 2.002 . S
O358 C359 1.295 . S
C359 O358 1.295 . S
C359 O361 1.235 . S
C360 O365 1.287 . S
C360 O366 1.255 . S
O361 Fe353 1.997 . S
O361 C359 1.235 . S
C362 O368 1.287 . S
C362 O369 1.255 1_545 S
O363 Fe352 1.976 . S
O363 C370 1.287 . S
O364 Fe353 1.996 1_545 S
O364 C370 1.255 1_545 S
O365 Fe355 1.976 . S
O365 C360 1.287 . S
O366 Fe352 1.996 . S
O366 C360 1.255 . S
C367 O371 1.295 1_554 S
C367 O372 1.235 . S
O368 Fe353 1.976 1_545 S
O368 C362 1.287 . S
O369 Fe355 1.996 . S
O369 C362 1.255 1_565 S
C370 O363 1.287 . S
C370 O364 1.255 1_565 S
O371 Fe353 2.002 . S
O371 C367 1.295 1_556 S
O372 Fe355 1.997 1_554 S
O372 C367 1.235 . S
C373 O356 1.295 . S
C373 O357 1.235 . S
Fe374 O376 1.918 . S
Fe374 O379 1.997 . S
Fe374 O380 2.002 . S
Fe374 O385 1.976 . S
Fe374 O388 1.996 . S
Fe375 O376 1.918 . S
Fe375 O383 1.997 . S
Fe375 O386 1.996 . S
Fe375 O390 1.976 1_556 S
Fe375 O393 2.002 . S
O376 Fe374 1.918 . S
O376 Fe375 1.918 . S
O376 Fe377 1.918 . S
Fe377 O376 1.918 . S
Fe377 O378 2.002 . S
Fe377 O387 1.976 . S
Fe377 O391 1.996 . S
Fe377 O394 1.997 . S
O378 Fe377 2.002 . S
O378 C395 1.295 . S
O379 Fe374 1.997 . S
O379 C395 1.235 . S
O380 Fe374 2.002 . S
O380 C381 1.295 . S
C381 O380 1.295 . S
C381 O383 1.235 . S
C382 O387 1.287 . S
C382 O388 1.255 . S
O383 Fe375 1.997 . S
O383 C381 1.235 . S
C384 O390 1.287 . S
C384 O391 1.255 1_554 S
O385 Fe374 1.976 . S
O385 C392 1.287 . S
O386 Fe375 1.996 . S
O386 C392 1.255 . S
O387 Fe377 1.976 . S
O387 C382 1.287 . S
O388 Fe374 1.996 . S
O388 C382 1.255 . S
C389 O393 1.295 . S
C389 O394 1.235 . S
O390 Fe375 1.976 1_554 S
O390 C384 1.287 . S
O391 Fe377 1.996 . S
O391 C384 1.255 1_556 S
C392 O385 1.287 . S
C392 O386 1.255 . S
O393 Fe375 2.002 . S
O393 C389 1.295 . S
O394 Fe377 1.997 . S
O394 C389 1.235 . S
C395 O378 1.295 . S
C395 O379 1.235 . S
C396 C397 1.363 . S
C396 C402 1.379 . S
C396 N404 1.356 . S
C397 C396 1.363 . S
C397 C403 1.363 . S
C398 C399 1.363 . S
C398 C403 1.379 . S
C398 N405 1.356 . S
C399 C398 1.363 . S
C399 C402 1.363 . S
N400 C402 1.356 . S
N400 H412 0.984 . S
N400 H413 0.985 . S
N401 C403 1.356 . S
N401 H406 0.984 . S
N401 H407 0.985 . S
C402 C396 1.379 . S
C402 C399 1.363 . S
C402 N400 1.356 . S
C403 C397 1.363 . S
C403 C398 1.379 . S
C403 N401 1.356 . S
N404 C396 1.356 . S
N404 H410 0.984 . S
N404 H411 0.984 . S
N405 C398 1.356 . S
N405 H408 0.984 . S
N405 H409 0.985 . S
H406 N401 0.984 . S
H407 N401 0.985 . S
H408 N405 0.984 . S
H409 N405 0.985 . S
H410 N404 0.984 . S
H411 N404 0.984 . S
H412 N400 0.984 . S
H413 N400 0.985 . S
C414 C415 1.363 . S
C414 C420 1.379 . S
C414 N422 1.356 . S
C415 C414 1.363 . S
C415 C421 1.363 . S
C416 C417 1.363 . S
C416 C421 1.379 . S
C416 N423 1.356 . S
C417 C416 1.363 . S
C417 C420 1.363 . S
N418 C420 1.356 1_565 S
N418 H430 0.984 . S
N418 H431 0.985 . S
N419 C421 1.356 . S
N419 H424 0.984 . S
N419 H425 0.985 . S
C420 C414 1.379 . S
C420 C417 1.363 . S
C420 N418 1.356 1_545 S
C421 C415 1.363 . S
C421 C416 1.379 . S
C421 N419 1.356 . S
N422 C414 1.356 . S
N422 H428 0.984 . S
N422 H429 0.984 . S
N423 C416 1.356 . S
N423 H426 0.984 1_545 S
N423 H427 0.985 . S
H424 N419 0.984 . S
H425 N419 0.985 . S
H426 N423 0.984 1_565 S
H427 N423 0.985 . S
H428 N422 0.984 . S
H429 N422 0.984 . S
H430 N418 0.984 . S
H431 N418 0.985 . S
C432 C433 1.363 1_455 S
C432 C438 1.379 . S
C432 N440 1.356 1_455 S
C433 C432 1.363 1_655 S
C433 C439 1.363 1_655 S
C434 C435 1.363 . S
C434 C439 1.379 . S
C434 N441 1.356 1_565 S
C435 C434 1.363 . S
C435 C438 1.363 . S
N436 C438 1.356 . S
N436 H448 0.984 . S
N436 H449 0.985 . S
N437 C439 1.356 . S
N437 H442 0.984 1_455 S
N437 H443 0.985 . S
C438 C432 1.379 . S
C438 C435 1.363 . S
C438 N436 1.356 . S
C439 C433 1.363 1_455 S
C439 C434 1.379 . S
C439 N437 1.356 . S
N440 C432 1.356 1_655 S
N440 H446 0.984 . S
N440 H447 0.984 . S
N441 C434 1.356 1_545 S
N441 H444 0.984 . S
N441 H445 0.985 . S
H442 N437 0.984 1_655 S
H443 N437 0.985 . S
H444 N441 0.984 . S
H445 N441 0.985 . S
H446 N440 0.984 . S
H447 N440 0.984 . S
H448 N436 0.984 . S
H449 N436 0.985 . S
C450 C451 1.363 . S
C450 C456 1.379 . S
C450 N458 1.356 . S
C451 C450 1.363 . S
C451 C457 1.363 . S
C452 C453 1.363 . S
C452 C457 1.379 . S
C452 N459 1.356 . S
C453 C452 1.363 . S
C453 C456 1.363 . S
N454 C456 1.356 . S
N454 H466 0.984 . S
N454 H467 0.985 . S
N455 C457 1.356 . S
N455 H460 0.984 . S
N455 H461 0.985 . S
C456 C450 1.379 . S
C456 C453 1.363 . S
C456 N454 1.356 . S
C457 C451 1.363 . S
C457 C452 1.379 . S
C457 N455 1.356 . S
N458 C450 1.356 . S
N458 H464 0.984 . S
N458 H465 0.984 . S
N459 C452 1.356 . S
N459 H462 0.984 . S
N459 H463 0.985 . S
H460 N455 0.984 . S
H461 N455 0.985 . S
H462 N459 0.984 . S
H463 N459 0.985 . S
H464 N458 0.984 . S
H465 N458 0.984 . S
H466 N454 0.984 . S
H467 N454 0.985 . S
C468 C469 1.363 . S
C468 C474 1.379 . S
C468 N476 1.356 . S
C469 C468 1.363 . S
C469 C475 1.363 . S
C470 C471 1.363 . S
C470 C475 1.379 . S
C470 N477 1.356 . S
C471 C470 1.363 . S
C471 C474 1.363 . S
N472 C474 1.356 . S
N472 H484 0.984 . S
N472 H485 0.985 . S
N473 C475 1.356 1_565 S
N473 H478 0.984 . S
N473 H479 0.985 . S
C474 C468 1.379 . S
C474 C471 1.363 . S
C474 N472 1.356 . S
C475 C469 1.363 . S
C475 C470 1.379 . S
C475 N473 1.356 1_545 S
N476 C468 1.356 . S
N476 H482 0.984 . S
N476 H483 0.984 1_545 S
N477 C470 1.356 . S
N477 H480 0.984 . S
N477 H481 0.985 . S
H478 N473 0.984 . S
H479 N473 0.985 . S
H480 N477 0.984 . S
H481 N477 0.985 . S
H482 N476 0.984 . S
H483 N476 0.984 1_565 S
H484 N472 0.984 . S
H485 N472 0.985 . S
C486 C487 1.363 . S
C486 C492 1.379 . S
C486 N494 1.356 . S
C487 C486 1.363 . S
C487 C493 1.363 . S
C488 C489 1.363 1_455 S
C488 C493 1.379 . S
C488 N495 1.356 1_455 S
C489 C488 1.363 1_655 S
C489 C492 1.363 1_655 S
N490 C492 1.356 1_655 S
N490 H502 0.984 . S
N490 H503 0.985 . S
N491 C493 1.356 . S
N491 H496 0.984 . S
N491 H497 0.985 . S
C492 C486 1.379 . S
C492 C489 1.363 1_455 S
C492 N490 1.356 1_455 S
C493 C487 1.363 . S
C493 C488 1.379 . S
C493 N491 1.356 . S
N494 C486 1.356 . S
N494 H500 0.984 . S
N494 H501 0.984 . S
N495 C488 1.356 1_655 S
N495 H498 0.984 . S
N495 H499 0.985 . S
H496 N491 0.984 . S
H497 N491 0.985 . S
H498 N495 0.984 . S
H499 N495 0.985 . S
H500 N494 0.984 . S
H501 N494 0.984 . S
H502 N490 0.984 . S
H503 N490 0.985 . S
C504 C505 1.363 . S
C504 C510 1.379 . S
C504 N512 1.356 . S
C505 C504 1.363 . S
C505 C511 1.363 . S
C506 C507 1.363 . S
C506 C511 1.379 . S
C506 N513 1.356 . S
C507 C506 1.363 . S
C507 C510 1.363 . S
N508 C510 1.356 . S
N508 H520 0.984 . S
N508 H521 0.985 . S
N509 C511 1.356 . S
N509 H514 0.984 . S
N509 H515 0.985 . S
C510 C504 1.379 . S
C510 C507 1.363 . S
C510 N508 1.356 . S
C511 C505 1.363 . S
C511 C506 1.379 . S
C511 N509 1.356 . S
N512 C504 1.356 . S
N512 H518 0.984 . S
N512 H519 0.984 . S
N513 C506 1.356 . S
N513 H516 0.984 . S
N513 H517 0.985 . S
H514 N509 0.984 . S
H515 N509 0.985 . S
H516 N513 0.984 . S
H517 N513 0.985 . S
H518 N512 0.984 . S
H519 N512 0.984 . S
H520 N508 0.984 . S
H521 N508 0.985 . S
C522 C523 1.363 . S
C522 C528 1.379 . S
C522 N530 1.356 . S
C523 C522 1.363 . S
C523 C529 1.363 . S
C524 C525 1.363 . S
C524 C529 1.379 . S
C524 N531 1.356 . S
C525 C524 1.363 . S
C525 C528 1.363 . S
N526 C528 1.356 . S
N526 H538 0.984 . S
N526 H539 0.985 . S
N527 C529 1.356 . S
N527 H532 0.984 . S
N527 H533 0.985 . S
C528 C522 1.379 . S
C528 C525 1.363 . S
C528 N526 1.356 . S
C529 C523 1.363 . S
C529 C524 1.379 . S
C529 N527 1.356 . S
N530 C522 1.356 . S
N530 H536 0.984 . S
N530 H537 0.984 . S
N531 C524 1.356 . S
N531 H534 0.984 . S
N531 H535 0.985 . S
H532 N527 0.984 . S
H533 N527 0.985 . S
H534 N531 0.984 . S
H535 N531 0.985 . S
H536 N530 0.984 . S
H537 N530 0.984 . S
H538 N526 0.984 . S
H539 N526 0.985 . S
C540 C541 1.363 . S
C540 C546 1.379 . S
C540 N548 1.356 . S
C541 C540 1.363 . S
C541 C547 1.363 . S
C542 C543 1.363 . S
C542 C547 1.379 . S
C542 N549 1.356 . S
C543 C542 1.363 . S
C543 C546 1.363 . S
N544 C546 1.356 . S
N544 H556 0.984 . S
N544 H557 0.985 . S
N545 C547 1.356 . S
N545 H550 0.984 . S
N545 H551 0.985 . S
C546 C540 1.379 . S
C546 C543 1.363 . S
C546 N544 1.356 . S
C547 C541 1.363 . S
C547 C542 1.379 . S
C547 N545 1.356 . S
N548 C540 1.356 . S
N548 H554 0.984 . S
N548 H555 0.984 . S
N549 C542 1.356 . S
N549 H552 0.984 . S
N549 H553 0.985 . S
H550 N545 0.984 . S
H551 N545 0.985 . S
H552 N549 0.984 . S
H553 N549 0.985 . S
H554 N548 0.984 . S
H555 N548 0.984 . S
H556 N544 0.984 . S
H557 N544 0.985 . S
C558 C559 1.363 . S
C558 C564 1.379 . S
C558 N566 1.356 . S
C559 C558 1.363 . S
C559 C565 1.363 . S
C560 C561 1.363 . S
C560 C565 1.379 . S
C560 N567 1.356 . S
C561 C560 1.363 . S
C561 C564 1.363 . S
N562 C564 1.356 . S
N562 H574 0.984 . S
N562 H575 0.985 . S
N563 C565 1.356 . S
N563 H568 0.984 . S
N563 H569 0.985 . S
C564 C558 1.379 . S
C564 C561 1.363 . S
C564 N562 1.356 . S
C565 C559 1.363 . S
C565 C560 1.379 . S
C565 N563 1.356 . S
N566 C558 1.356 . S
N566 H572 0.984 . S
N566 H573 0.984 . S
N567 C560 1.356 . S
N567 H570 0.984 . S
N567 H571 0.985 . S
H568 N563 0.984 . S
H569 N563 0.985 . S
H570 N567 0.984 . S
H571 N567 0.985 . S
H572 N566 0.984 . S
H573 N566 0.984 . S
H574 N562 0.984 . S
H575 N562 0.985 . S
C576 C577 1.363 . S
C576 C582 1.379 . S
C576 N584 1.356 . S
C577 C576 1.363 . S
C577 C583 1.363 . S
C578 C579 1.363 . S
C578 C583 1.379 . S
C578 N585 1.356 . S
C579 C578 1.363 . S
C579 C582 1.363 . S
N580 C582 1.356 . S
N580 H592 0.984 . S
N580 H593 0.985 . S
N581 C583 1.356 . S
N581 H586 0.984 . S
N581 H587 0.985 . S
C582 C576 1.379 . S
C582 C579 1.363 . S
C582 N580 1.356 . S
C583 C577 1.363 . S
C583 C578 1.379 . S
C583 N581 1.356 . S
N584 C576 1.356 . S
N584 H590 0.984 . S
N584 H591 0.984 . S
N585 C578 1.356 . S
N585 H588 0.984 . S
N585 H589 0.985 . S
H586 N581 0.984 . S
H587 N581 0.985 . S
H588 N585 0.984 . S
H589 N585 0.985 . S
H590 N584 0.984 . S
H591 N584 0.984 . S
H592 N580 0.984 . S
H593 N580 0.985 . S
C594 C595 1.363 . S
C594 C600 1.379 . S
C594 N602 1.356 . S
C595 C594 1.363 . S
C595 C601 1.363 . S
C596 C597 1.363 . S
C596 C601 1.379 . S
C596 N603 1.356 . S
C597 C596 1.363 . S
C597 C600 1.363 . S
N598 C600 1.356 . S
N598 H610 0.984 . S
N598 H611 0.985 . S
N599 C601 1.356 . S
N599 H604 0.984 . S
N599 H605 0.985 . S
C600 C594 1.379 . S
C600 C597 1.363 . S
C600 N598 1.356 . S
C601 C595 1.363 . S
C601 C596 1.379 . S
C601 N599 1.356 . S
N602 C594 1.356 . S
N602 H608 0.984 . S
N602 H609 0.984 . S
N603 C596 1.356 . S
N603 H606 0.984 . S
N603 H607 0.985 . S
H604 N599 0.984 . S
H605 N599 0.985 . S
H606 N603 0.984 . S
H607 N603 0.985 . S
H608 N602 0.984 . S
H609 N602 0.984 . S
H610 N598 0.984 . S
H611 N598 0.985 . S
C612 C613 1.363 . S
C612 C618 1.379 . S
C612 N620 1.356 . S
C613 C612 1.363 . S
C613 C619 1.363 . S
C614 C615 1.363 . S
C614 C619 1.379 . S
C614 N621 1.356 . S
C615 C614 1.363 . S
C615 C618 1.363 . S
N616 C618 1.356 . S
N616 H628 0.984 . S
N616 H629 0.985 . S
N617 C619 1.356 . S
N617 H622 0.984 . S
N617 H623 0.985 . S
C618 C612 1.379 . S
C618 C615 1.363 . S
C618 N616 1.356 . S
C619 C613 1.363 . S
C619 C614 1.379 . S
C619 N617 1.356 . S
N620 C612 1.356 . S
N620 H626 0.984 . S
N620 H627 0.984 . S
N621 C614 1.356 . S
N621 H624 0.984 . S
N621 H625 0.985 . S
H622 N617 0.984 . S
H623 N617 0.985 . S
H624 N621 0.984 . S
H625 N621 0.985 . S
H626 N620 0.984 . S
H627 N620 0.984 . S
H628 N616 0.984 . S
H629 N616 0.985 . S
C630 C631 1.363 . S
C630 C636 1.379 . S
C630 N638 1.356 . S
C631 C630 1.363 . S
C631 C637 1.363 . S
C632 C633 1.363 . S
C632 C637 1.379 . S
C632 N639 1.356 . S
C633 C632 1.363 . S
C633 C636 1.363 . S
N634 C636 1.356 . S
N634 H646 0.984 . S
N634 H647 0.985 . S
N635 C637 1.356 . S
N635 H640 0.984 . S
N635 H641 0.985 . S
C636 C630 1.379 . S
C636 C633 1.363 . S
C636 N634 1.356 . S
C637 C631 1.363 . S
C637 C632 1.379 . S
C637 N635 1.356 . S
N638 C630 1.356 . S
N638 H644 0.984 . S
N638 H645 0.984 . S
N639 C632 1.356 . S
N639 H642 0.984 . S
N639 H643 0.985 . S
H640 N635 0.984 . S
H641 N635 0.985 . S
H642 N639 0.984 . S
H643 N639 0.985 . S
H644 N638 0.984 . S
H645 N638 0.984 . S
H646 N634 0.984 . S
H647 N634 0.985 . S
C648 C649 1.363 . S
C648 C654 1.379 . S
C648 N656 1.356 . S
C649 C648 1.363 . S
C649 C655 1.363 . S
C650 C651 1.363 . S
C650 C655 1.379 . S
C650 N657 1.356 . S
C651 C650 1.363 . S
C651 C654 1.363 . S
N652 C654 1.356 . S
N652 H664 0.984 . S
N652 H665 0.985 . S
N653 C655 1.356 . S
N653 H658 0.984 . S
N653 H659 0.985 . S
C654 C648 1.379 . S
C654 C651 1.363 . S
C654 N652 1.356 . S
C655 C649 1.363 . S
C655 C650 1.379 . S
C655 N653 1.356 . S
N656 C648 1.356 . S
N656 H662 0.984 . S
N656 H663 0.984 . S
N657 C650 1.356 . S
N657 H660 0.984 . S
N657 H661 0.985 . S
H658 N653 0.984 . S
H659 N653 0.985 . S
H660 N657 0.984 . S
H661 N657 0.985 . S
H662 N656 0.984 . S
H663 N656 0.984 . S
H664 N652 0.984 . S
H665 N652 0.985 . S
C666 C667 1.363 . S
C666 C672 1.379 . S
C666 N674 1.356 . S
C667 C666 1.363 . S
C667 C673 1.363 . S
C668 C669 1.363 . S
C668 C673 1.379 . S
C668 N675 1.356 . S
C669 C668 1.363 . S
C669 C672 1.363 . S
N670 C672 1.356 . S
N670 H682 0.984 . S
N670 H683 0.985 . S
N671 C673 1.356 . S
N671 H676 0.984 . S
N671 H677 0.985 . S
C672 C666 1.379 . S
C672 C669 1.363 . S
C672 N670 1.356 . S
C673 C667 1.363 . S
C673 C668 1.379 . S
C673 N671 1.356 . S
N674 C666 1.356 . S
N674 H680 0.984 . S
N674 H681 0.984 . S
N675 C668 1.356 . S
N675 H678 0.984 . S
N675 H679 0.985 . S
H676 N671 0.984 . S
H677 N671 0.985 . S
H678 N675 0.984 . S
H679 N675 0.985 . S
H680 N674 0.984 . S
H681 N674 0.984 . S
H682 N670 0.984 . S
H683 N670 0.985 . S
C684 C685 1.363 . S
C684 C690 1.379 . S
C684 N692 1.356 . S
C685 C684 1.363 . S
C685 C691 1.363 . S
C686 C687 1.363 . S
C686 C691 1.379 . S
C686 N693 1.356 . S
C687 C686 1.363 . S
C687 C690 1.363 . S
N688 C690 1.356 . S
N688 H700 0.984 . S
N688 H701 0.985 . S
N689 C691 1.356 . S
N689 H694 0.984 . S
N689 H695 0.985 . S
C690 C684 1.379 . S
C690 C687 1.363 . S
C690 N688 1.356 . S
C691 C685 1.363 . S
C691 C686 1.379 . S
C691 N689 1.356 . S
N692 C684 1.356 . S
N692 H698 0.984 . S
N692 H699 0.984 . S
N693 C686 1.356 . S
N693 H696 0.984 . S
N693 H697 0.985 . S
H694 N689 0.984 . S
H695 N689 0.985 . S
H696 N693 0.984 . S
H697 N693 0.985 . S
H698 N692 0.984 . S
H699 N692 0.984 . S
H700 N688 0.984 . S
H701 N688 0.985 . S
C702 C703 1.363 . S
C702 C708 1.379 . S
C702 N710 1.356 . S
C703 C702 1.363 . S
C703 C709 1.363 . S
C704 C705 1.363 . S
C704 C709 1.379 . S
C704 N711 1.356 . S
C705 C704 1.363 . S
C705 C708 1.363 . S
N706 C708 1.356 . S
N706 H718 0.984 . S
N706 H719 0.985 . S
N707 C709 1.356 . S
N707 H712 0.984 . S
N707 H713 0.985 . S
C708 C702 1.379 . S
C708 C705 1.363 . S
C708 N706 1.356 . S
C709 C703 1.363 . S
C709 C704 1.379 . S
C709 N707 1.356 . S
N710 C702 1.356 . S
N710 H716 0.984 . S
N710 H717 0.984 . S
N711 C704 1.356 . S
N711 H714 0.984 . S
N711 H715 0.985 . S
H712 N707 0.984 . S
H713 N707 0.985 . S
H714 N711 0.984 . S
H715 N711 0.985 . S
H716 N710 0.984 . S
H717 N710 0.984 . S
H718 N706 0.984 . S
H719 N706 0.985 . S
C720 C721 1.363 . S
C720 C726 1.379 . S
C720 N728 1.356 . S
C721 C720 1.363 . S
C721 C727 1.363 . S
C722 C723 1.363 . S
C722 C727 1.379 . S
C722 N729 1.356 . S
C723 C722 1.363 . S
C723 C726 1.363 . S
N724 C726 1.356 . S
N724 H736 0.984 . S
N724 H737 0.985 . S
N725 C727 1.356 . S
N725 H730 0.984 . S
N725 H731 0.985 . S
C726 C720 1.379 . S
C726 C723 1.363 . S
C726 N724 1.356 . S
C727 C721 1.363 . S
C727 C722 1.379 . S
C727 N725 1.356 . S
N728 C720 1.356 . S
N728 H734 0.984 . S
N728 H735 0.984 . S
N729 C722 1.356 . S
N729 H732 0.984 . S
N729 H733 0.985 . S
H730 N725 0.984 . S
H731 N725 0.985 . S
H732 N729 0.984 . S
H733 N729 0.985 . S
H734 N728 0.984 . S
H735 N728 0.984 . S
H736 N724 0.984 . S
H737 N724 0.985 . S
C738 C739 1.363 . S
C738 C744 1.379 . S
C738 N746 1.356 . S
C739 C738 1.363 . S
C739 C745 1.363 . S
C740 C741 1.363 . S
C740 C745 1.379 . S
C740 N747 1.356 . S
C741 C740 1.363 . S
C741 C744 1.363 . S
N742 C744 1.356 . S
N742 H754 0.984 . S
N742 H755 0.985 . S
N743 C745 1.356 . S
N743 H748 0.984 . S
N743 H749 0.985 . S
C744 C738 1.379 . S
C744 C741 1.363 . S
C744 N742 1.356 . S
C745 C739 1.363 . S
C745 C740 1.379 . S
C745 N743 1.356 . S
N746 C738 1.356 . S
N746 H752 0.984 . S
N746 H753 0.984 . S
N747 C740 1.356 . S
N747 H750 0.984 . S
N747 H751 0.985 . S
H748 N743 0.984 . S
H749 N743 0.985 . S
H750 N747 0.984 . S
H751 N747 0.985 . S
H752 N746 0.984 . S
H753 N746 0.984 . S
H754 N742 0.984 . S
H755 N742 0.985 . S
C756 C757 1.366 . S
C756 C762 1.385 . S
C756 N764 1.356 . S
C757 C756 1.366 . S
C757 C763 1.355 1_545 S
C758 C759 1.363 . S
C758 C763 1.379 . S
C758 N765 1.356 . S
C759 C758 1.363 . S
C759 C762 1.353 1_565 S
N760 C762 1.357 . S
N760 H772 0.984 . S
N760 H773 0.985 1_545 S
N761 C763 1.356 . S
N761 H766 0.984 . S
N761 H767 0.985 . S
C762 C756 1.385 . S
C762 C759 1.353 1_545 S
C762 N760 1.357 . S
C763 C757 1.355 1_565 S
C763 C758 1.379 . S
C763 N761 1.356 . S
N764 C756 1.356 . S
N764 H770 0.984 . S
N764 H771 0.984 . S
N765 C758 1.356 . S
N765 H768 0.984 . S
N765 H769 0.985 . S
H766 N761 0.984 . S
H767 N761 0.985 . S
H768 N765 0.984 . S
H769 N765 0.985 . S
H770 N764 0.984 . S
H771 N764 0.984 . S
H772 N760 0.984 . S
H773 N760 0.985 1_565 S
C774 C775 1.363 . S
C774 C780 1.379 . S
C774 N782 1.356 . S
C775 C774 1.363 . S
C775 C781 1.363 . S
C776 C777 1.363 . S
C776 C781 1.379 . S
C776 N783 1.356 . S
C777 C776 1.363 . S
C777 C780 1.363 . S
N778 C780 1.356 . S
N778 H790 0.984 . S
N778 H791 0.985 . S
N779 C781 1.356 . S
N779 H784 0.984 . S
N779 H785 0.985 . S
C780 C774 1.379 . S
C780 C777 1.363 . S
C780 N778 1.356 . S
C781 C775 1.363 . S
C781 C776 1.379 . S
C781 N779 1.356 . S
N782 C774 1.356 . S
N782 H788 0.984 . S
N782 H789 0.984 . S
N783 C776 1.356 . S
N783 H786 0.984 . S
N783 H787 0.985 . S
H784 N779 0.984 . S
H785 N779 0.985 . S
H786 N783 0.984 . S
H787 N783 0.985 . S
H788 N782 0.984 . S
H789 N782 0.984 . S
H790 N778 0.984 . S
H791 N778 0.985 . S
C792 C793 1.363 . S
C792 C798 1.379 . S
C792 N800 1.356 . S
C793 C792 1.363 . S
C793 C799 1.363 1_655 S
C794 C795 1.363 . S
C794 C799 1.379 1_655 S
C794 N801 1.356 1_655 S
C795 C794 1.363 . S
C795 C798 1.363 . S
N796 C798 1.356 . S
N796 H808 0.984 . S
N796 H809 0.985 . S
N797 C799 1.356 . S
N797 H802 0.984 . S
N797 H803 0.985 . S
C798 C792 1.379 . S
C798 C795 1.363 . S
C798 N796 1.356 . S
C799 C793 1.363 1_455 S
C799 C794 1.379 1_455 S
C799 N797 1.356 . S
N800 C792 1.356 . S
N800 H806 0.984 . S
N800 H807 0.984 . S
N801 C794 1.356 1_455 S
N801 H804 0.984 1_456 S
N801 H805 0.985 . S
H802 N797 0.984 . S
H803 N797 0.985 . S
H804 N801 0.984 1_654 S
H805 N801 0.985 . S
H806 N800 0.984 . S
H807 N800 0.984 . S
H808 N796 0.984 . S
H809 N796 0.985 . S
C810 C811 1.363 . S
C810 C816 1.379 . S
C810 N818 1.356 . S
C811 C810 1.363 . S
C811 C817 1.363 . S
C812 C813 1.363 . S
C812 C817 1.379 . S
C812 N819 1.356 . S
C813 C812 1.363 . S
C813 C816 1.363 . S
N814 C816 1.356 . S
N814 H826 0.984 . S
N814 H827 0.985 . S
N815 C817 1.356 . S
N815 H820 0.984 1_556 S
N815 H821 0.985 1_556 S
C816 C810 1.379 . S
C816 C813 1.363 . S
C816 N814 1.356 . S
C817 C811 1.363 . S
C817 C812 1.379 . S
C817 N815 1.356 . S
N818 C810 1.356 . S
N818 H824 0.984 . S
N818 H825 0.984 . S
N819 C812 1.356 . S
N819 H822 0.984 . S
N819 H823 0.985 . S
H820 N815 0.984 1_554 S
H821 N815 0.985 1_554 S
H822 N819 0.984 . S
H823 N819 0.985 . S
H824 N818 0.984 . S
H825 N818 0.984 . S
H826 N814 0.984 . S
H827 N814 0.985 . S
C828 C829 1.363 . S
C828 C834 1.379 . S
C828 N836 1.356 . S
C829 C828 1.363 . S
C829 C835 1.363 . S
C830 C831 1.363 . S
C830 C835 1.379 . S
C830 N837 1.356 . S
C831 C830 1.363 . S
C831 C834 1.363 . S
N832 C834 1.356 . S
N832 H844 0.984 . S
N832 H845 0.985 . S
N833 C835 1.356 . S
N833 H838 0.984 . S
N833 H839 0.985 . S
C834 C828 1.379 . S
C834 C831 1.363 . S
C834 N832 1.356 . S
C835 C829 1.363 . S
C835 C830 1.379 . S
C835 N833 1.356 . S
N836 C828 1.356 . S
N836 H842 0.984 . S
N836 H843 0.984 . S
N837 C830 1.356 . S
N837 H840 0.984 . S
N837 H841 0.985 . S
H838 N833 0.984 . S
H839 N833 0.985 . S
H840 N837 0.984 . S
H841 N837 0.985 . S
H842 N836 0.984 . S
H843 N836 0.984 . S
H844 N832 0.984 . S
H845 N832 0.985 . S
C846 C847 1.363 . S
C846 C852 1.379 . S
C846 N854 1.356 . S
C847 C846 1.363 . S
C847 C853 1.363 . S
C848 C849 1.363 . S
C848 C853 1.379 . S
C848 N855 1.356 . S
C849 C848 1.363 . S
C849 C852 1.363 . S
N850 C852 1.356 . S
N850 H862 0.984 . S
N850 H863 0.985 . S
N851 C853 1.356 . S
N851 H856 0.984 . S
N851 H857 0.985 . S
C852 C846 1.379 . S
C852 C849 1.363 . S
C852 N850 1.356 . S
C853 C847 1.363 . S
C853 C848 1.379 . S
C853 N851 1.356 . S
N854 C846 1.356 . S
N854 H860 0.984 . S
N854 H861 0.984 . S
N855 C848 1.356 . S
N855 H858 0.984 . S
N855 H859 0.985 . S
H856 N851 0.984 . S
H857 N851 0.985 . S
H858 N855 0.984 . S
H859 N855 0.985 . S
H860 N854 0.984 . S
H861 N854 0.984 . S
H862 N850 0.984 . S
H863 N850 0.985 . S
C864 C865 1.363 . S
C864 C870 1.379 . S
C864 N872 1.356 . S
C865 C864 1.363 . S
C865 C871 1.363 . S
C866 C867 1.363 . S
C866 C871 1.379 . S
C866 N873 1.356 . S
C867 C866 1.363 . S
C867 C870 1.363 . S
N868 C870 1.356 . S
N868 H880 0.984 . S
N868 H881 0.985 . S
N869 C871 1.356 . S
N869 H874 0.984 . S
N869 H875 0.985 . S
C870 C864 1.379 . S
C870 C867 1.363 . S
C870 N868 1.356 . S
C871 C865 1.363 . S
C871 C866 1.379 . S
C871 N869 1.356 . S
N872 C864 1.356 . S
N872 H878 0.984 . S
N872 H879 0.984 . S
N873 C866 1.356 . S
N873 H876 0.984 . S
N873 H877 0.985 . S
H874 N869 0.984 . S
H875 N869 0.985 . S
H876 N873 0.984 . S
H877 N873 0.985 . S
H878 N872 0.984 . S
H879 N872 0.984 . S
H880 N868 0.984 . S
H881 N868 0.985 . S
C882 C883 1.366 . S
C882 C888 1.379 . S
C882 N890 1.354 1_565 S
C883 C882 1.366 . S
C883 C889 1.363 . S
C884 C885 1.363 . S
C884 C889 1.379 . S
C884 N891 1.356 . S
C885 C884 1.363 . S
C885 C888 1.363 . S
N886 C888 1.356 . S
N886 H898 0.984 . S
N886 H899 0.985 . S
N887 C889 1.356 . S
N887 H892 0.984 . S
N887 H893 0.985 . S
C888 C882 1.379 . S
C888 C885 1.363 . S
C888 N886 1.356 . S
C889 C883 1.363 . S
C889 C884 1.379 . S
C889 N887 1.356 . S
N890 C882 1.354 1_545 S
N890 H896 0.984 . S
N890 H897 0.984 . S
N891 C884 1.356 . S
N891 H894 0.984 1_554 S
N891 H895 0.985 . S
H892 N887 0.984 . S
H893 N887 0.985 . S
H894 N891 0.984 1_556 S
H895 N891 0.985 . S
H896 N890 0.984 . S
H897 N890 0.984 . S
H898 N886 0.984 . S
H899 N886 0.985 . S
C900 C901 1.363 . S
C900 C906 1.379 . S
C900 N908 1.356 . S
C901 C900 1.363 . S
C901 C907 1.363 . S
C902 C903 1.363 . S
C902 C907 1.379 . S
C902 N909 1.356 . S
C903 C902 1.363 . S
C903 C906 1.363 . S
N904 C906 1.356 . S
N904 H916 0.984 . S
N904 H917 0.985 . S
N905 C907 1.356 . S
N905 H910 0.984 . S
N905 H911 0.985 . S
C906 C900 1.379 . S
C906 C903 1.363 . S
C906 N904 1.356 . S
C907 C901 1.363 . S
C907 C902 1.379 . S
C907 N905 1.356 . S
N908 C900 1.356 . S
N908 H914 0.984 . S
N908 H915 0.984 . S
N909 C902 1.356 . S
N909 H912 0.984 . S
N909 H913 0.985 . S
H910 N905 0.984 . S
H911 N905 0.985 . S
H912 N909 0.984 . S
H913 N909 0.985 . S
H914 N908 0.984 . S
H915 N908 0.984 . S
H916 N904 0.984 . S
H917 N904 0.985 . S
C918 C919 1.363 . S
C918 C924 1.379 . S
C918 N926 1.356 1_554 S
C919 C918 1.363 . S
C919 C925 1.363 . S
C920 C921 1.363 . S
C920 C925 1.379 . S
C920 N927 1.356 . S
C921 C920 1.363 . S
C921 C924 1.363 . S
N922 C924 1.356 . S
N922 H934 0.984 . S
N922 H935 0.985 . S
N923 C925 1.356 . S
N923 H928 0.984 . S
N923 H929 0.985 . S
C924 C918 1.379 . S
C924 C921 1.363 . S
C924 N922 1.356 . S
C925 C919 1.363 . S
C925 C920 1.379 . S
C925 N923 1.356 . S
N926 C918 1.356 1_556 S
N926 H932 0.984 . S
N926 H933 0.984 . S
N927 C920 1.356 . S
N927 H930 0.984 . S
N927 H931 0.985 . S
H928 N923 0.984 . S
H929 N923 0.985 . S
H930 N927 0.984 . S
H931 N927 0.985 . S
H932 N926 0.984 . S
H933 N926 0.984 . S
H934 N922 0.984 . S
H935 N922 0.985 . S
C936 C937 1.363 . S
C936 C942 1.379 . S
C936 N944 1.356 . S
C937 C936 1.363 . S
C937 C943 1.363 . S
C938 C939 1.363 . S
C938 C943 1.379 . S
C938 N945 1.356 . S
C939 C938 1.363 . S
C939 C942 1.363 . S
N940 C942 1.356 1_655 S
N940 H952 0.995 . S
N940 H953 0.985 . S
N941 C943 1.356 . S
N941 H946 0.984 . S
N941 H947 0.985 . S
C942 C936 1.379 . S
C942 C939 1.363 . S
C942 N940 1.356 1_455 S
C943 C937 1.363 . S
C943 C938 1.379 . S
C943 N941 1.356 . S
N944 C936 1.356 . S
N944 H950 0.984 . S
N944 H951 0.984 . S
N945 C938 1.356 . S
N945 H948 0.984 1_455 S
N945 H949 0.985 . S
H946 N941 0.984 . S
H947 N941 0.985 . S
H948 N945 0.984 1_655 S
H949 N945 0.985 . S
H950 N944 0.984 . S
H951 N944 0.984 . S
H952 N940 0.995 . S
H953 N940 0.985 . S
C954 C955 1.363 . S
C954 C960 1.379 . S
C954 N962 1.356 . S
C955 C954 1.363 . S
C955 C961 1.363 . S
C956 C957 1.363 . S
C956 C961 1.379 . S
C956 N963 1.356 . S
C957 C956 1.363 . S
C957 C960 1.363 . S
N958 C960 1.356 . S
N958 H970 0.984 . S
N958 H971 0.985 . S
N959 C961 1.356 . S
N959 H964 0.984 . S
N959 H965 0.985 . S
C960 C954 1.379 . S
C960 C957 1.363 . S
C960 N958 1.356 . S
C961 C955 1.363 . S
C961 C956 1.379 . S
C961 N959 1.356 . S
N962 C954 1.356 . S
N962 H968 0.984 . S
N962 H969 0.984 . S
N963 C956 1.356 . S
N963 H966 0.984 . S
N963 H967 0.985 . S
H964 N959 0.984 . S
H965 N959 0.985 . S
H966 N963 0.984 . S
H967 N963 0.985 . S
H968 N962 0.984 . S
H969 N962 0.984 . S
H970 N958 0.984 . S
H971 N958 0.985 . S
C972 C973 1.363 . S
C972 C978 1.379 . S
C972 N980 1.356 . S
C973 C972 1.363 . S
C973 C979 1.363 . S
C974 C975 1.363 . S
C974 C979 1.379 . S
C974 N981 1.356 . S
C975 C974 1.363 . S
C975 C978 1.363 . S
N976 C978 1.356 1_565 S
N976 H988 0.984 . S
N976 H989 0.985 . S
N977 C979 1.356 . S
N977 H982 0.984 . S
N977 H983 0.985 . S
C978 C972 1.379 . S
C978 C975 1.363 . S
C978 N976 1.356 1_545 S
C979 C973 1.363 . S
C979 C974 1.379 . S
C979 N977 1.356 . S
N980 C972 1.356 . S
N980 H986 0.984 . S
N980 H987 0.984 . S
N981 C974 1.356 . S
N981 H984 0.984 . S
N981 H985 0.985 . S
H982 N977 0.984 . S
H983 N977 0.985 . S
H984 N981 0.984 . S
H985 N981 0.985 . S
H986 N980 0.984 . S
H987 N980 0.984 . S
H988 N976 0.984 . S
H989 N976 0.985 . S
C990 C991 1.363 . S
C990 C996 1.379 . S
C990 N998 1.356 . S
C991 C990 1.363 . S
C991 C997 1.363 . S
C992 C993 1.363 . S
C992 C997 1.379 . S
C992 N999 1.356 1_545 S
C993 C992 1.363 . S
C993 C996 1.363 . S
N994 C996 1.356 . S
N994 H1006 0.984 . S
N994 H1007 0.985 . S
N995 C997 1.356 . S
N995 H1000 0.984 . S
N995 H1001 0.985 . S
C996 C990 1.379 . S
C996 C993 1.363 . S
C996 N994 1.356 . S
C997 C991 1.363 . S
C997 C992 1.379 . S
C997 N995 1.356 . S
N998 C990 1.356 . S
N998 H1004 0.984 . S
N998 H1005 0.984 . S
N999 C992 1.356 1_565 S
N999 H1002 0.984 . S
N999 H1003 0.985 . S
H1000 N995 0.984 . S
H1001 N995 0.985 . S
H1002 N999 0.984 . S
H1003 N999 0.985 . S
H1004 N998 0.984 . S
H1005 N998 0.984 . S
H1006 N994 0.984 . S
H1007 N994 0.985 . S
C1008 C1009 1.363 . S
C1008 C1014 1.392 . S
C1008 N1016 1.356 . S
C1009 C1008 1.363 . S
C1009 C1015 1.363 . S
C1010 C1011 1.363 . S
C1010 C1015 1.379 . S
C1010 N1017 1.356 . S
C1011 C1010 1.363 . S
C1011 C1014 1.361 . S
N1012 C1014 1.342 1_655 S
N1012 H1024 0.984 . S
N1012 H1025 0.985 . S
N1013 C1015 1.356 . S
N1013 H1018 0.984 . S
N1013 H1019 0.985 . S
C1014 C1008 1.392 . S
C1014 C1011 1.361 . S
C1014 N1012 1.342 1_455 S
C1015 C1009 1.363 . S
C1015 C1010 1.379 . S
C1015 N1013 1.356 . S
N1016 C1008 1.356 . S
N1016 H1022 0.984 . S
N1016 H1023 0.984 . S
N1017 C1010 1.356 . S
N1017 H1020 0.984 . S
N1017 H1021 0.985 . S
H1018 N1013 0.984 . S
H1019 N1013 0.985 . S
H1020 N1017 0.984 . S
H1021 N1017 0.985 . S
H1022 N1016 0.984 . S
H1023 N1016 0.984 . S
H1024 N1012 0.984 . S
H1025 N1012 0.985 . S
C1026 C1027 1.363 . S
C1026 C1032 1.379 . S
C1026 N1034 1.356 . S
C1027 C1026 1.363 . S
C1027 C1033 1.363 . S
C1028 C1029 1.363 . S
C1028 C1033 1.379 . S
C1028 N1035 1.356 . S
C1029 C1028 1.363 . S
C1029 C1032 1.363 . S
N1030 C1032 1.356 . S
N1030 H1042 0.984 . S
N1030 H1043 0.985 . S
N1031 C1033 1.356 . S
N1031 H1036 0.984 . S
N1031 H1037 0.985 . S
C1032 C1026 1.379 . S
C1032 C1029 1.363 . S
C1032 N1030 1.356 . S
C1033 C1027 1.363 . S
C1033 C1028 1.379 . S
C1033 N1031 1.356 . S
N1034 C1026 1.356 . S
N1034 H1040 0.984 . S
N1034 H1041 0.984 . S
N1035 C1028 1.356 . S
N1035 H1038 0.984 . S
N1035 H1039 0.985 . S
H1036 N1031 0.984 . S
H1037 N1031 0.985 . S
H1038 N1035 0.984 . S
H1039 N1035 0.985 . S
H1040 N1034 0.984 . S
H1041 N1034 0.984 . S
H1042 N1030 0.984 . S
H1043 N1030 0.985 . S
C1044 C1045 1.363 . S
C1044 C1050 1.379 . S
C1044 N1052 1.356 . S
C1045 C1044 1.363 . S
C1045 C1051 1.363 . S
C1046 C1047 1.363 . S
C1046 C1051 1.379 . S
C1046 N1053 1.356 . S
C1047 C1046 1.363 . S
C1047 C1050 1.363 . S
N1048 C1050 1.356 . S
N1048 H1060 0.984 . S
N1048 H1061 0.985 . S
N1049 C1051 1.356 . S
N1049 H1054 0.984 . S
N1049 H1055 0.985 . S
C1050 C1044 1.379 . S
C1050 C1047 1.363 . S
C1050 N1048 1.356 . S
C1051 C1045 1.363 . S
C1051 C1046 1.379 . S
C1051 N1049 1.356 . S
N1052 C1044 1.356 . S
N1052 H1058 0.984 . S
N1052 H1059 0.984 . S
N1053 C1046 1.356 . S
N1053 H1056 0.984 . S
N1053 H1057 0.985 . S
H1054 N1049 0.984 . S
H1055 N1049 0.985 . S
H1056 N1053 0.984 . S
H1057 N1053 0.985 . S
H1058 N1052 0.984 . S
H1059 N1052 0.984 . S
H1060 N1048 0.984 . S
H1061 N1048 0.985 . S
C1062 C1063 1.363 . S
C1062 C1068 1.379 . S
C1062 N1070 1.356 . S
C1063 C1062 1.363 . S
C1063 C1069 1.363 . S
C1064 C1065 1.363 . S
C1064 C1069 1.379 . S
C1064 N1071 1.356 . S
C1065 C1064 1.363 . S
C1065 C1068 1.363 . S
N1066 C1068 1.356 . S
N1066 H1078 0.984 . S
N1066 H1079 0.985 . S
N1067 C1069 1.356 . S
N1067 H1072 0.984 . S
N1067 H1073 0.985 . S
C1068 C1062 1.379 . S
C1068 C1065 1.363 . S
C1068 N1066 1.356 . S
C1069 C1063 1.363 . S
C1069 C1064 1.379 . S
C1069 N1067 1.356 . S
N1070 C1062 1.356 . S
N1070 H1076 0.984 . S
N1070 H1077 0.984 . S
N1071 C1064 1.356 . S
N1071 H1074 0.984 . S
N1071 H1075 0.985 . S
H1072 N1067 0.984 . S
H1073 N1067 0.985 . S
H1074 N1071 0.984 . S
H1075 N1071 0.985 . S
H1076 N1070 0.984 . S
H1077 N1070 0.984 . S
H1078 N1066 0.984 . S
H1079 N1066 0.985 . S
C1080 C1081 1.363 . S
C1080 C1086 1.379 . S
C1080 N1088 1.356 . S
C1081 C1080 1.363 . S
C1081 C1087 1.363 . S
C1082 C1083 1.363 . S
C1082 C1087 1.379 . S
C1082 N1089 1.356 . S
C1083 C1082 1.363 . S
C1083 C1086 1.363 . S
N1084 C1086 1.356 . S
N1084 H1096 0.984 . S
N1084 H1097 0.985 . S
N1085 C1087 1.356 . S
N1085 H1090 0.984 . S
N1085 H1091 0.985 . S
C1086 C1080 1.379 . S
C1086 C1083 1.363 . S
C1086 N1084 1.356 . S
C1087 C1081 1.363 . S
C1087 C1082 1.379 . S
C1087 N1085 1.356 . S
N1088 C1080 1.356 . S
N1088 H1094 0.984 . S
N1088 H1095 0.984 . S
N1089 C1082 1.356 . S
N1089 H1092 0.984 . S
N1089 H1093 0.985 . S
H1090 N1085 0.984 . S
H1091 N1085 0.985 . S
H1092 N1089 0.984 . S
H1093 N1089 0.985 . S
H1094 N1088 0.984 . S
H1095 N1088 0.984 . S
H1096 N1084 0.984 . S
H1097 N1084 0.985 . S
C1098 C1099 1.363 . S
C1098 C1104 1.379 . S
C1098 N1106 1.356 . S
C1099 C1098 1.363 . S
C1099 C1105 1.363 . S
C1100 C1101 1.363 . S
C1100 C1105 1.379 . S
C1100 N1107 1.356 . S
C1101 C1100 1.363 . S
C1101 C1104 1.363 . S
N1102 C1104 1.356 . S
N1102 H1114 0.984 . S
N1102 H1115 0.985 . S
N1103 C1105 1.356 . S
N1103 H1108 0.984 . S
N1103 H1109 0.985 . S
C1104 C1098 1.379 . S
C1104 C1101 1.363 . S
C1104 N1102 1.356 . S
C1105 C1099 1.363 . S
C1105 C1100 1.379 . S
C1105 N1103 1.356 . S
N1106 C1098 1.356 . S
N1106 H1112 0.984 . S
N1106 H1113 0.984 . S
N1107 C1100 1.356 . S
N1107 H1110 0.984 . S
N1107 H1111 0.985 . S
H1108 N1103 0.984 . S
H1109 N1103 0.985 . S
H1110 N1107 0.984 . S
H1111 N1107 0.985 . S
H1112 N1106 0.984 . S
H1113 N1106 0.984 . S
H1114 N1102 0.984 . S
H1115 N1102 0.985 . S
C1116 C1117 1.363 . S
C1116 C1122 1.379 . S
C1116 N1124 1.356 . S
C1117 C1116 1.363 . S
C1117 C1123 1.363 . S
C1118 C1119 1.363 . S
C1118 C1123 1.379 . S
C1118 N1125 1.356 . S
C1119 C1118 1.363 . S
C1119 C1122 1.363 . S
N1120 C1122 1.356 . S
N1120 H1132 0.984 . S
N1120 H1133 0.985 . S
N1121 C1123 1.356 . S
N1121 H1126 0.984 . S
N1121 H1127 0.985 . S
C1122 C1116 1.379 . S
C1122 C1119 1.363 . S
C1122 N1120 1.356 . S
C1123 C1117 1.363 . S
C1123 C1118 1.379 . S
C1123 N1121 1.356 . S
N1124 C1116 1.356 . S
N1124 H1130 0.984 . S
N1124 H1131 0.984 . S
N1125 C1118 1.356 . S
N1125 H1128 0.984 . S
N1125 H1129 0.985 . S
H1126 N1121 0.984 . S
H1127 N1121 0.985 . S
H1128 N1125 0.984 . S
H1129 N1125 0.985 . S
H1130 N1124 0.984 . S
H1131 N1124 0.984 . S
H1132 N1120 0.984 . S
H1133 N1120 0.985 . S
C1134 C1135 1.363 . S
C1134 C1140 1.379 . S
C1134 N1142 1.356 . S
C1135 C1134 1.363 . S
C1135 C1141 1.363 . S
C1136 C1137 1.363 . S
C1136 C1141 1.379 . S
C1136 N1143 1.356 . S
C1137 C1136 1.363 . S
C1137 C1140 1.363 . S
N1138 C1140 1.356 . S
N1138 H1150 0.984 . S
N1138 H1151 0.985 . S
N1139 C1141 1.356 . S
N1139 H1144 0.984 . S
N1139 H1145 0.985 . S
C1140 C1134 1.379 . S
C1140 C1137 1.363 . S
C1140 N1138 1.356 . S
C1141 C1135 1.363 . S
C1141 C1136 1.379 . S
C1141 N1139 1.356 . S
N1142 C1134 1.356 . S
N1142 H1148 0.984 . S
N1142 H1149 0.984 . S
N1143 C1136 1.356 . S
N1143 H1146 0.984 . S
N1143 H1147 0.985 . S
H1144 N1139 0.984 . S
H1145 N1139 0.985 . S
H1146 N1143 0.984 . S
H1147 N1143 0.985 . S
H1148 N1142 0.984 . S
H1149 N1142 0.984 . S
H1150 N1138 0.984 . S
H1151 N1138 0.985 . S
C1152 C1153 1.363 . S
C1152 C1158 1.379 . S
C1152 N1160 1.356 . S
C1153 C1152 1.363 . S
C1153 C1159 1.363 . S
C1154 C1155 1.363 . S
C1154 C1159 1.379 . S
C1154 N1161 1.356 . S
C1155 C1154 1.363 . S
C1155 C1158 1.363 . S
N1156 C1158 1.356 . S
N1156 H1168 0.984 . S
N1156 H1169 0.985 . S
N1157 C1159 1.356 . S
N1157 H1162 0.984 . S
N1157 H1163 0.985 . S
C1158 C1152 1.379 . S
C1158 C1155 1.363 . S
C1158 N1156 1.356 . S
C1159 C1153 1.363 . S
C1159 C1154 1.379 . S
C1159 N1157 1.356 . S
N1160 C1152 1.356 . S
N1160 H1166 0.984 . S
N1160 H1167 0.984 . S
N1161 C1154 1.356 . S
N1161 H1164 0.984 . S
N1161 H1165 0.985 . S
H1162 N1157 0.984 . S
H1163 N1157 0.985 . S
H1164 N1161 0.984 . S
H1165 N1161 0.985 . S
H1166 N1160 0.984 . S
H1167 N1160 0.984 . S
H1168 N1156 0.984 . S
H1169 N1156 0.985 . S
C1170 C1171 1.363 . S
C1170 C1176 1.379 . S
C1170 N1178 1.356 . S
C1171 C1170 1.363 . S
C1171 C1177 1.363 . S
C1172 C1173 1.363 . S
C1172 C1177 1.379 . S
C1172 N1179 1.356 . S
C1173 C1172 1.363 . S
C1173 C1176 1.363 . S
N1174 C1176 1.356 . S
N1174 H1186 0.984 . S
N1174 H1187 0.985 . S
N1175 C1177 1.356 . S
N1175 H1180 0.984 . S
N1175 H1181 0.985 . S
C1176 C1170 1.379 . S
C1176 C1173 1.363 . S
C1176 N1174 1.356 . S
C1177 C1171 1.363 . S
C1177 C1172 1.379 . S
C1177 N1175 1.356 . S
N1178 C1170 1.356 . S
N1178 H1184 0.984 . S
N1178 H1185 0.984 . S
N1179 C1172 1.356 . S
N1179 H1182 0.984 . S
N1179 H1183 0.985 . S
H1180 N1175 0.984 . S
H1181 N1175 0.985 . S
H1182 N1179 0.984 . S
H1183 N1179 0.985 . S
H1184 N1178 0.984 . S
H1185 N1178 0.984 . S
H1186 N1174 0.984 . S
H1187 N1174 0.985 . S
C1188 C1189 1.363 . S
C1188 C1194 1.379 . S
C1188 N1196 1.356 . S
C1189 C1188 1.363 . S
C1189 C1195 1.363 . S
C1190 C1191 1.363 . S
C1190 C1195 1.379 . S
C1190 N1197 1.356 . S
C1191 C1190 1.363 . S
C1191 C1194 1.363 . S
N1192 C1194 1.356 . S
N1192 H1204 0.984 . S
N1192 H1205 0.985 . S
N1193 C1195 1.356 . S
N1193 H1198 0.984 . S
N1193 H1199 0.985 . S
C1194 C1188 1.379 . S
C1194 C1191 1.363 . S
C1194 N1192 1.356 . S
C1195 C1189 1.363 . S
C1195 C1190 1.379 . S
C1195 N1193 1.356 . S
N1196 C1188 1.356 . S
N1196 H1202 0.984 . S
N1196 H1203 0.984 . S
N1197 C1190 1.356 . S
N1197 H1200 0.984 . S
N1197 H1201 0.985 . S
H1198 N1193 0.984 . S
H1199 N1193 0.985 . S
H1200 N1197 0.984 . S
H1201 N1197 0.985 . S
H1202 N1196 0.984 . S
H1203 N1196 0.984 . S
H1204 N1192 0.984 . S
H1205 N1192 0.985 . S
C1206 C1207 1.363 . S
C1206 C1212 1.379 . S
C1206 N1214 1.356 . S
C1207 C1206 1.363 . S
C1207 C1213 1.363 . S
C1208 C1209 1.363 . S
C1208 C1213 1.379 . S
C1208 N1215 1.356 . S
C1209 C1208 1.363 . S
C1209 C1212 1.363 . S
N1210 C1212 1.356 . S
N1210 H1222 0.984 . S
N1210 H1223 0.985 . S
N1211 C1213 1.356 . S
N1211 H1216 0.984 . S
N1211 H1217 0.985 . S
C1212 C1206 1.379 . S
C1212 C1209 1.363 . S
C1212 N1210 1.356 . S
C1213 C1207 1.363 . S
C1213 C1208 1.379 . S
C1213 N1211 1.356 . S
N1214 C1206 1.356 . S
N1214 H1220 0.984 . S
N1214 H1221 0.984 . S
N1215 C1208 1.356 . S
N1215 H1218 0.984 . S
N1215 H1219 0.985 . S
H1216 N1211 0.984 . S
H1217 N1211 0.985 . S
H1218 N1215 0.984 . S
H1219 N1215 0.985 . S
H1220 N1214 0.984 . S
H1221 N1214 0.984 . S
H1222 N1210 0.984 . S
H1223 N1210 0.985 . S
C1224 C1225 1.363 . S
C1224 C1230 1.379 . S
C1224 N1232 1.356 . S
C1225 C1224 1.363 . S
C1225 C1231 1.363 . S
C1226 C1227 1.363 . S
C1226 C1231 1.379 . S
C1226 N1233 1.356 . S
C1227 C1226 1.363 . S
C1227 C1230 1.363 . S
N1228 C1230 1.356 . S
N1228 H1240 0.984 . S
N1228 H1241 0.985 . S
N1229 C1231 1.356 . S
N1229 H1234 0.984 . S
N1229 H1235 0.985 . S
C1230 C1224 1.379 . S
C1230 C1227 1.363 . S
C1230 N1228 1.356 . S
C1231 C1225 1.363 . S
C1231 C1226 1.379 . S
C1231 N1229 1.356 . S
N1232 C1224 1.356 . S
N1232 H1238 0.984 . S
N1232 H1239 0.984 . S
N1233 C1226 1.356 . S
N1233 H1236 0.984 . S
N1233 H1237 0.985 . S
H1234 N1229 0.984 . S
H1235 N1229 0.985 . S
H1236 N1233 0.984 . S
H1237 N1233 0.985 . S
H1238 N1232 0.984 . S
H1239 N1232 0.984 . S
H1240 N1228 0.984 . S
H1241 N1228 0.985 . S
C1242 C1243 1.363 . S
C1242 C1248 1.379 . S
C1242 N1250 1.356 . S
C1243 C1242 1.363 . S
C1243 C1249 1.363 . S
C1244 C1245 1.363 . S
C1244 C1249 1.379 . S
C1244 N1251 1.356 . S
C1245 C1244 1.363 . S
C1245 C1248 1.363 . S
N1246 C1248 1.356 . S
N1246 H1258 0.984 . S
N1246 H1259 0.985 . S
N1247 C1249 1.356 . S
N1247 H1252 0.984 . S
N1247 H1253 0.985 . S
C1248 C1242 1.379 . S
C1248 C1245 1.363 . S
C1248 N1246 1.356 . S
C1249 C1243 1.363 . S
C1249 C1244 1.379 . S
C1249 N1247 1.356 . S
N1250 C1242 1.356 . S
N1250 H1256 0.984 . S
N1250 H1257 0.984 . S
N1251 C1244 1.356 . S
N1251 H1254 0.984 . S
N1251 H1255 0.985 . S
H1252 N1247 0.984 . S
H1253 N1247 0.985 . S
H1254 N1251 0.984 . S
H1255 N1251 0.985 . S
H1256 N1250 0.984 . S
H1257 N1250 0.984 . S
H1258 N1246 0.984 . S
H1259 N1246 0.985 . S
C1260 C1261 1.363 1_556 S
C1260 C1266 1.379 . S
C1260 N1268 1.356 . S
C1261 C1260 1.363 1_554 S
C1261 C1267 1.363 . S
C1262 C1263 1.363 1_554 S
C1262 C1267 1.379 . S
C1262 N1269 1.356 . S
C1263 C1262 1.363 1_556 S
C1263 C1266 1.363 . S
N1264 C1266 1.356 . S
N1264 H1276 0.984 . S
N1264 H1277 0.985 . S
N1265 C1267 1.356 . S
N1265 H1270 0.984 1_455 S
N1265 H1271 0.985 . S
C1266 C1260 1.379 . S
C1266 C1263 1.363 . S
C1266 N1264 1.356 . S
C1267 C1261 1.363 . S
C1267 C1262 1.379 . S
C1267 N1265 1.356 . S
N1268 C1260 1.356 . S
N1268 H1274 0.984 . S
N1268 H1275 0.988 . S
N1269 C1262 1.356 . S
N1269 H1272 0.984 . S
N1269 H1273 0.985 . S
H1270 N1265 0.984 1_655 S
H1271 N1265 0.985 . S
H1272 N1269 0.984 . S
H1273 N1269 0.985 . S
H1274 N1268 0.984 . S
H1275 N1268 0.988 . S
H1276 N1264 0.984 . S
H1277 N1264 0.985 . S
C1278 C1279 1.363 . S
C1278 C1284 1.379 . S
C1278 N1286 1.356 . S
C1279 C1278 1.363 . S
C1279 C1285 1.363 1_556 S
C1280 C1281 1.363 . S
C1280 C1285 1.379 . S
C1280 N1287 1.356 . S
C1281 C1280 1.363 . S
C1281 C1284 1.363 1_554 S
N1282 C1284 1.356 . S
N1282 H1294 0.984 . S
N1282 H1295 0.982 1_556 S
N1283 C1285 1.356 . S
N1283 H1288 0.993 . S
N1283 H1289 0.985 . S
C1284 C1278 1.379 . S
C1284 C1281 1.363 1_556 S
C1284 N1282 1.356 . S
C1285 C1279 1.363 1_554 S
C1285 C1280 1.379 . S
C1285 N1283 1.356 . S
N1286 C1278 1.356 . S
N1286 H1292 0.984 . S
N1286 H1293 0.984 . S
N1287 C1280 1.356 . S
N1287 H1290 0.984 . S
N1287 H1291 0.985 . S
H1288 N1283 0.993 . S
H1289 N1283 0.985 . S
H1290 N1287 0.984 . S
H1291 N1287 0.985 . S
H1292 N1286 0.984 . S
H1293 N1286 0.984 . S
H1294 N1282 0.984 . S
H1295 N1282 0.982 1_554 S
C1296 C1297 1.352 1_556 S
C1296 C1302 1.388 . S
C1296 N1304 1.354 1_556 S
C1297 C1296 1.352 1_554 S
C1297 C1303 1.363 . S
C1298 C1299 1.363 1_554 S
C1298 C1303 1.379 . S
C1298 N1305 1.354 1_554 S
C1299 C1298 1.363 1_556 S
C1299 C1302 1.363 . S
N1300 C1302 1.356 1_565 S
N1300 H1312 0.984 . S
N1300 H1313 0.985 . S
N1301 C1303 1.356 . S
N1301 H1306 0.984 . S
N1301 H1307 0.985 . S
C1302 C1296 1.388 . S
C1302 C1299 1.363 . S
C1302 N1300 1.356 1_545 S
C1303 C1297 1.363 . S
C1303 C1298 1.379 . S
C1303 N1301 1.356 . S
N1304 C1296 1.354 1_554 S
N1304 H1310 0.984 1_554 S
N1304 H1311 0.984 . S
N1305 C1298 1.354 1_556 S
N1305 H1308 0.995 . S
N1305 H1309 0.976 1_556 S
H1306 N1301 0.984 . S
H1307 N1301 0.985 . S
H1308 N1305 0.995 . S
H1309 N1305 0.976 1_554 S
H1310 N1304 0.984 1_556 S
H1311 N1304 0.984 . S
H1312 N1300 0.984 . S
H1313 N1300 0.985 . S
C1314 C1315 1.363 . S
C1314 C1320 1.379 . S
C1314 N1322 1.356 . S
C1315 C1314 1.363 . S
C1315 C1321 1.363 . S
C1316 C1317 1.363 . S
C1316 C1321 1.379 . S
C1316 N1323 1.356 . S
C1317 C1316 1.363 . S
C1317 C1320 1.363 . S
N1318 C1320 1.356 1_565 S
N1318 H1330 0.984 . S
N1318 H1331 0.985 . S
N1319 C1321 1.356 . S
N1319 H1324 0.984 . S
N1319 H1325 0.985 . S
C1320 C1314 1.379 . S
C1320 C1317 1.363 . S
C1320 N1318 1.356 1_545 S
C1321 C1315 1.363 . S
C1321 C1316 1.379 . S
C1321 N1319 1.356 . S
N1322 C1314 1.356 . S
N1322 H1328 0.984 . S
N1322 H1329 0.984 . S
N1323 C1316 1.356 . S
N1323 H1326 0.984 . S
N1323 H1327 0.985 . S
H1324 N1319 0.984 . S
H1325 N1319 0.985 . S
H1326 N1323 0.984 . S
H1327 N1323 0.985 . S
H1328 N1322 0.984 . S
H1329 N1322 0.984 . S
H1330 N1318 0.984 . S
H1331 N1318 0.985 . S
C1332 C1333 1.363 . S
C1332 C1338 1.379 . S
C1332 N1340 1.356 . S
C1333 C1332 1.363 . S
C1333 C1339 1.363 . S
C1334 C1335 1.363 . S
C1334 C1339 1.379 . S
C1334 N1341 1.356 . S
C1335 C1334 1.363 . S
C1335 C1338 1.363 . S
N1336 C1338 1.356 . S
N1336 H1348 0.984 . S
N1336 H1349 0.985 . S
N1337 C1339 1.356 . S
N1337 H1342 0.984 . S
N1337 H1343 0.985 . S
C1338 C1332 1.379 . S
C1338 C1335 1.363 . S
C1338 N1336 1.356 . S
C1339 C1333 1.363 . S
C1339 C1334 1.379 . S
C1339 N1337 1.356 . S
N1340 C1332 1.356 . S
N1340 H1346 0.984 . S
N1340 H1347 0.984 1_455 S
N1341 C1334 1.356 . S
N1341 H1344 0.984 . S
N1341 H1345 0.985 . S
H1342 N1337 0.984 . S
H1343 N1337 0.985 . S
H1344 N1341 0.984 . S
H1345 N1341 0.985 . S
H1346 N1340 0.984 . S
H1347 N1340 0.984 1_655 S
H1348 N1336 0.984 . S
H1349 N1336 0.985 . S
C1350 C1351 1.363 . S
C1350 C1356 1.379 . S
C1350 N1358 1.356 . S
C1351 C1350 1.363 . S
C1351 C1357 1.363 . S
C1352 C1353 1.363 . S
C1352 C1357 1.379 . S
C1352 N1359 1.356 . S
C1353 C1352 1.363 . S
C1353 C1356 1.363 . S
N1354 C1356 1.356 . S
N1354 H1366 0.984 . S
N1354 H1367 0.985 . S
N1355 C1357 1.356 . S
N1355 H1360 0.984 . S
N1355 H1361 0.985 . S
C1356 C1350 1.379 . S
C1356 C1353 1.363 . S
C1356 N1354 1.356 . S
C1357 C1351 1.363 . S
C1357 C1352 1.379 . S
C1357 N1355 1.356 . S
N1358 C1350 1.356 . S
N1358 H1364 0.984 . S
N1358 H1365 0.984 . S
N1359 C1352 1.356 . S
N1359 H1362 0.984 . S
N1359 H1363 0.985 . S
H1360 N1355 0.984 . S
H1361 N1355 0.985 . S
H1362 N1359 0.984 . S
H1363 N1359 0.985 . S
H1364 N1358 0.984 . S
H1365 N1358 0.984 . S
H1366 N1354 0.984 . S
H1367 N1354 0.985 . S
C397 C59 1.452 . S
C399 C15 1.458 . S
C415 C10 1.438 . S
C417 C29 1.414 1_545 S
C433 C40 1.395 . S
C435 C54 1.398 1_565 S
C451 C87 1.464 . S
C453 C131 1.464 1_565 S
C469 C74 1.450 1_545 S
C471 C109 1.420 . S
C487 C96 1.407 . S
C489 C118 1.408 . S
C505 C194 1.425 . S
C507 C147 1.403 . S
C523 C169 1.408 . S
C525 C142 1.431 . S
C541 C164 1.435 . S
C543 C183 1.413 . S
C559 C206 1.439 . S
C561 C257 1.412 . S
C577 C219 1.418 . S
C579 C228 1.444 . S
C595 C252 1.450 . S
C597 C241 1.423 . S
C613 C323 1.440 . S
C615 C271 1.445 . S
C631 C282 1.424 . S
C633 C293 1.401 . S
C649 C304 1.383 . S
C651 C318 1.386 . S
C667 C381 1.454 . S
C669 C351 1.455 . S
C685 C373 1.412 . S
C687 C338 1.442 . S
C703 C392 1.398 . S
C705 C360 1.398 . S
C721 C21 1.844 . S
C723 C294 1.859 . S
C739 C329 1.872 . S
C741 C37 1.876 . S
C757 C62 1.835 . S
C759 C272 1.828 . S
C775 C175 1.889 . S
C777 C65 1.886 . S
C793 C18 1.866 1_655 S
C795 C191 1.848 . S
C811 C153 1.844 . S
C813 C30 1.861 . S
C829 C235 1.885 . S
C831 C81 1.882 1_655 S
C847 C103 1.878 . S
C849 C249 1.881 . S
C865 C213 1.839 . S
C867 C128 1.856 . S
C883 C125 1.871 1_565 S
C885 C367 1.868 . S
C901 C384 1.822 . S
C903 C84 1.824 . S
C919 C345 1.836 . S
C921 C106 1.857 . S
C937 C301 1.838 . S
C939 C184 1.855 1_455 S
C955 C326 1.817 . S
C957 C150 1.815 . S
C973 C172 1.859 . S
C975 C279 1.842 1_545 S
C991 C216 1.809 . S
C993 C370 1.811 1_545 S
C1009 C395 1.836 . S
C1011 C238 1.854 1_455 S
C1027 C250 1.813 . S
C1029 C348 1.815 . S
C1045 C7 1.246 . S
C1047 C337 1.242 . S
C1063 C43 1.254 . S
C1065 C359 1.249 . S
C1081 C382 1.209 . S
C1083 C52 1.215 . S
C1099 C263 1.242 . S
C1101 C51 1.247 . S
C1117 C205 1.228 . S
C1119 C8 1.230 . S
C1135 C32 1.246 . S
C1137 C227 1.245 . S
C1153 C73 1.238 . S
C1155 C139 1.243 . S
C1171 C95 1.255 . S
C1173 C161 1.260 . S
C1189 C120 1.237 . S
C1191 C197 1.248 . S
C1207 C117 1.225 . S
C1209 C315 1.230 . S
C1225 C76 1.183 . S
C1227 C274 1.189 . S
C1243 C296 1.197 . S
C1245 C98 1.191 . S
C1261 C186 1.197 1_455 S
C1263 C389 1.195 . S
C1279 C340 1.178 . S
C1281 C140 1.184 . S
C1297 C162 1.201 . S
C1299 C362 1.195 . S
C1315 C208 1.188 . S
C1317 C285 1.198 . S
C1333 C230 1.205 1_455 S
C1335 C307 1.215 . S
C1351 C316 1.199 . S
C1353 C260 1.193 . S
