# Generated by pormake.
# Topology lcy-a-x, (5)-cn, num edge types: 1
# Building blocks:
#     Node 0, Type 0, BuildingBlock: BEQFEK_clean_sbu_0, # of connection points: 5
#     Node 1, Type 0, BuildingBlock: BEQFEK_clean_sbu_0, # of connection points: 5
#     Node 2, Type 0, BuildingBlock: BEQFEK_clean_sbu_0, # of connection points: 5
#     Node 3, Type 0, BuildingBlock: BEQFEK_clean_sbu_0, # of connection points: 5
#     Node 4, Type 0, BuildingBlock: BEQFEK_clean_sbu_0, # of connection points: 5
#     Node 5, Type 0, BuildingBlock: BEQFEK_clean_sbu_0, # of connection points: 5
#     Node 6, Type 0, BuildingBlock: BEQFEK_clean_sbu_0, # of connection points: 5
#     Node 7, Type 0, BuildingBlock: BEQFEK_clean_sbu_0, # of connection points: 5
#     Node 8, Type 0, BuildingBlock: BEQFEK_clean_sbu_0, # of connection points: 5
#     Node 9, Type 0, BuildingBlock: BEQFEK_clean_sbu_0, # of connection points: 5
#     Node 10, Type 0, BuildingBlock: BEQFEK_clean_sbu_0, # of connection points: 5
#     Node 11, Type 0, BuildingBlock: BEQFEK_clean_sbu_0, # of connection points: 5
#     Node 12, Type 0, BuildingBlock: BEQFEK_clean_sbu_0, # of connection points: 5
#     Node 13, Type 0, BuildingBlock: BEQFEK_clean_sbu_0, # of connection points: 5
#     Node 14, Type 0, BuildingBlock: BEQFEK_clean_sbu_0, # of connection points: 5
#     Node 15, Type 0, BuildingBlock: BEQFEK_clean_sbu_0, # of connection points: 5
#     Node 16, Type 0, BuildingBlock: BEQFEK_clean_sbu_0, # of connection points: 5
#     Node 17, Type 0, BuildingBlock: BEQFEK_clean_sbu_0, # of connection points: 5
#     Node 18, Type 0, BuildingBlock: BEQFEK_clean_sbu_0, # of connection points: 5
#     Node 19, Type 0, BuildingBlock: BEQFEK_clean_sbu_0, # of connection points: 5
#     Node 20, Type 0, BuildingBlock: BEQFEK_clean_sbu_0, # of connection points: 5
#     Node 21, Type 0, BuildingBlock: BEQFEK_clean_sbu_0, # of connection points: 5
#     Node 22, Type 0, BuildingBlock: BEQFEK_clean_sbu_0, # of connection points: 5
#     Node 23, Type 0, BuildingBlock: BEQFEK_clean_sbu_0, # of connection points: 5
#     Edge 24, Type (0, 0), None
#     Edge 25, Type (0, 0), None
#     Edge 26, Type (0, 0), None
#     Edge 27, Type (0, 0), None
#     Edge 28, Type (0, 0), None
#     Edge 29, Type (0, 0), None
#     Edge 30, Type (0, 0), None
#     Edge 31, Type (0, 0), None
#     Edge 32, Type (0, 0), None
#     Edge 33, Type (0, 0), None
#     Edge 34, Type (0, 0), None
#     Edge 35, Type (0, 0), None
#     Edge 36, Type (0, 0), None
#     Edge 37, Type (0, 0), None
#     Edge 38, Type (0, 0), None
#     Edge 39, Type (0, 0), None
#     Edge 40, Type (0, 0), None
#     Edge 41, Type (0, 0), None
#     Edge 42, Type (0, 0), None
#     Edge 43, Type (0, 0), None
#     Edge 44, Type (0, 0), None
#     Edge 45, Type (0, 0), None
#     Edge 46, Type (0, 0), None
#     Edge 47, Type (0, 0), None
#     Edge 48, Type (0, 0), None
#     Edge 49, Type (0, 0), None
#     Edge 50, Type (0, 0), None
#     Edge 51, Type (0, 0), None
#     Edge 52, Type (0, 0), None
#     Edge 53, Type (0, 0), None
#     Edge 54, Type (0, 0), None
#     Edge 55, Type (0, 0), None
#     Edge 56, Type (0, 0), None
#     Edge 57, Type (0, 0), None
#     Edge 58, Type (0, 0), None
#     Edge 59, Type (0, 0), None
#     Edge 60, Type (0, 0), None
#     Edge 61, Type (0, 0), None
#     Edge 62, Type (0, 0), None
#     Edge 63, Type (0, 0), None
#     Edge 64, Type (0, 0), None
#     Edge 65, Type (0, 0), None
#     Edge 66, Type (0, 0), None
#     Edge 67, Type (0, 0), None
#     Edge 68, Type (0, 0), None
#     Edge 69, Type (0, 0), None
#     Edge 70, Type (0, 0), None
#     Edge 71, Type (0, 0), None
#     Edge 72, Type (0, 0), None
#     Edge 73, Type (0, 0), None
#     Edge 74, Type (0, 0), None
#     Edge 75, Type (0, 0), None
#     Edge 76, Type (0, 0), None
#     Edge 77, Type (0, 0), None
#     Edge 78, Type (0, 0), None
#     Edge 79, Type (0, 0), None
#     Edge 80, Type (0, 0), None
#     Edge 81, Type (0, 0), None
#     Edge 82, Type (0, 0), None
#     Edge 83, Type (0, 0), None
# Relax obj value: 1.357
# Max RMSD: 0.160
# Mean RMSD: 0.160
data_MOF--net-lcy-a-x--node1-BEQFEK_clean_sbu_0--edge1-none
_symmetry_space_group_name_H-M    P1
_symmetry_Int_Tables_number       1
_symmetry_cell_setting            triclinic
loop_
_symmetry_equiv_pos_as_xyz
'x, y, z'
_cell_length_a     26.90381
_cell_length_b     26.903851
_cell_length_c     26.692007
_cell_angle_alpha  90.002731
_cell_angle_beta   90.003076
_cell_angle_gamma 90.003797
loop_
_atom_site_label
_atom_site_type_symbol
_atom_site_fract_x
_atom_site_fract_y
_atom_site_fract_z
_atom_type_partial_charge
Co0 Co 0.00587 0.97757 0.77309 0.0
Co1 Co 0.08183 0.01695 0.68858 0.0
C2 C 0.98055 0.96426 0.6648 0.0
O3 O 0.96976 0.95769 0.71093 0.0
O4 O 0.01917 -0.0107 0.65181 0.0
C5 C 0.93269 0.95561 0.85585 0.0
O6 O 0.9251 0.93585 0.90007 0.0
C7 C 0.10425 0.07082 0.59992 0.0
C8 C 0.16037 0.12529 0.62033 0.0
C9 C 0.12368 0.11555 0.58508 0.0
N10 N 0.12341 0.05667 0.6435 0.0
N11 N 0.16034 0.08744 0.65364 0.0
C12 C 0.07291 0.03811 0.57082 0.0
H13 H 0.0795 -0.00055 0.58352 0.0
H14 H 0.03468 0.05053 0.57832 0.0
H15 H 0.08364 0.04021 0.53106 0.0
C16 C 0.01289 0.08547 0.8059 0.0
N17 N 0.02333 0.0469 0.77494 0.0
N18 N 0.06029 0.05989 0.74528 0.0
C19 C 0.07523 0.10643 0.75792 0.0
C20 C 0.04272 0.12629 0.79359 0.0
C21 C -0.01258 0.07898 0.8551 0.0
H22 H 0.98173 0.03947 0.86355 0.0
H23 H 0.95142 0.09908 0.85515 0.0
H24 H 0.01151 0.09282 0.88561 0.0
O25 O 0.07044 0.94573 0.76888 0.0
O26 O 0.11509 0.95213 0.70248 0.0
H27 H 0.13916 0.13852 0.79463 0.0
H28 H 0.13981 0.14186 0.72729 0.0
C29 C 0.12942 0.11848 0.75958 0.0
H30 H 0.15144 0.08362 0.75935 0.0
H31 H 0.1845 0.08384 0.68388 0.0
O32 O 0.97534 0.95078 0.83587 0.0
C33 C 0.08741 0.92529 0.72968 0.0
Co34 Co 0.31518 0.75603 0.02325 0.0
Co35 Co 0.2758 0.83191 0.93865 0.0
C36 C 0.32856 0.73064 0.91499 0.0
O37 O 0.33509 0.71989 0.96113 0.0
O38 O 0.30351 0.76924 0.90195 0.0
C39 C 0.33716 0.68294 0.1061 0.0
O40 O 0.35692 0.6754 0.15032 0.0
C41 C 0.22196 0.85421 0.84994 0.0
C42 C 0.16744 0.91029 0.87026 0.0
C43 C 0.17723 0.87358 0.83505 0.0
N44 N 0.23608 0.87341 0.89351 0.0
N45 N 0.20527 0.91032 0.90359 0.0
C46 C 0.25472 0.82287 0.82088 0.0
H47 H 0.29336 0.8295 0.8336 0.0
H48 H 0.24232 0.78464 0.8284 0.0
H49 H 0.25263 0.83357 0.78111 0.0
C50 C 0.20727 0.76301 0.05599 0.0
N51 N 0.24584 0.77346 0.02504 0.0
N52 N 0.23284 0.81038 -0.00466 0.0
C53 C 0.18628 0.82529 0.00794 0.0
C54 C 0.16643 0.7928 0.04362 0.0
C55 C 0.21375 0.7376 0.10522 0.0
H56 H 0.25325 0.73194 0.11369 0.0
H57 H 0.19367 0.70158 0.10529 0.0
H58 H 0.19987 0.7617 0.13569 0.0
O59 O 0.34701 0.82063 0.019 0.0
O60 O 0.34058 0.86523 0.95257 0.0
H61 H 0.15412 0.88923 0.04456 0.0
H62 H 0.15083 0.88982 0.97722 0.0
C63 C 0.17419 0.87948 0.00954 0.0
H64 H 0.20904 0.90152 0.00931 0.0
H65 H 0.20883 0.93451 0.93381 0.0
O66 O 0.34196 0.72557 0.08607 0.0
C67 C 0.36743 0.83758 0.97978 0.0
Co68 Co 0.53713 0.06543 0.27307 0.0
Co69 Co 0.46116 0.02605 0.18855 0.0
C70 C 0.56244 0.07876 0.16478 0.0
O71 O 0.57323 0.08532 0.21091 0.0
O72 O 0.52382 0.05371 0.15179 0.0
C73 C 0.6103 0.08742 0.35584 0.0
O74 O 0.61789 0.10719 0.40005 0.0
C75 C 0.43875 0.97217 0.09989 0.0
C76 C 0.38265 0.91769 0.1203 0.0
C77 C 0.41934 0.92743 0.08505 0.0
N78 N 0.41959 -0.01367 0.14346 0.0
N79 N 0.38267 0.95555 0.1536 0.0
C80 C 0.47009 0.00489 0.07079 0.0
H81 H 0.4635 0.04355 0.08349 0.0
H82 H 0.50832 -0.00752 0.07829 0.0
H83 H 0.45936 0.00278 0.03103 0.0
C84 C 0.53013 0.95753 0.30586 0.0
N85 N 0.51967 -0.0039 0.2749 0.0
N86 N 0.48271 -0.01689 0.24524 0.0
C87 C 0.46778 0.93656 0.25788 0.0
C88 C 0.5003 0.91671 0.29354 0.0
C89 C 0.55559 0.96403 0.35507 0.0
H90 H 0.56129 0.00353 0.36351 0.0
H91 H 0.59159 0.94392 0.35512 0.0
H92 H 0.5315 0.95018 0.38557 0.0
O93 O 0.47254 0.09726 0.26886 0.0
O94 O 0.4279 0.09086 0.20246 0.0
H95 H 0.40386 0.90446 0.29457 0.0
H96 H 0.4032 0.90113 0.22724 0.0
C97 C 0.41359 0.92451 0.25953 0.0
H98 H 0.39157 0.95936 0.25931 0.0
H99 H 0.35851 0.95914 0.18383 0.0
O100 O 0.56764 0.09223 0.33586 0.0
C101 C 0.45557 0.1177 0.22966 0.0
Co102 Co 0.22785 0.28698 0.52326 0.0
Co103 Co 0.26722 0.2111 0.43866 0.0
C104 C 0.21445 0.31236 0.41499 0.0
O105 O 0.20792 0.32311 0.46114 0.0
O106 O 0.2395 0.27376 0.40195 0.0
C107 C 0.20588 0.36008 0.60611 0.0
O108 O 0.18612 0.36762 0.65033 0.0
C109 C 0.32104 0.18878 0.34994 0.0
C110 C 0.37557 0.13271 0.37026 0.0
C111 C 0.36577 0.16941 0.33504 0.0
N112 N 0.30693 0.16959 0.39351 0.0
N113 N 0.33774 0.13268 0.40359 0.0
C114 C 0.28828 0.22012 0.32089 0.0
H115 H 0.24964 0.21349 0.33361 0.0
H116 H 0.30067 0.25836 0.3284 0.0
H117 H 0.29036 0.20942 0.28111 0.0
C118 C 0.33577 0.28001 0.55599 0.0
N119 N 0.29719 0.26956 0.52504 0.0
N120 N 0.31019 0.23264 0.49534 0.0
C121 C 0.35675 0.21773 0.50794 0.0
C122 C 0.3766 0.25023 0.54362 0.0
C123 C 0.32929 0.30543 0.60522 0.0
H124 H 0.28978 0.31108 0.6137 0.0
H125 H 0.34936 0.34145 0.60529 0.0
H126 H 0.34318 0.28133 0.63569 0.0
O127 O 0.19603 0.22238 0.51902 0.0
O128 O 0.20244 0.17777 0.45259 0.0
H129 H 0.38891 0.1538 0.54456 0.0
H130 H 0.39219 0.1532 0.47722 0.0
C131 C 0.36884 0.16355 0.50954 0.0
H132 H 0.33399 0.1415 0.50931 0.0
H133 H 0.33419 0.1085 0.43381 0.0
O134 O 0.20107 0.31744 0.58608 0.0
C135 C 0.1756 0.20542 0.47981 0.0
Co136 Co 0.50607 0.56545 0.27761 0.0
Co137 Co 0.58202 0.52613 0.36217 0.0
C138 C 0.48074 0.57885 0.38588 0.0
O139 O 0.46995 0.58536 0.33974 0.0
O140 O 0.51936 0.55383 0.3989 0.0
C141 C 0.43297 0.58738 0.19468 0.0
O142 O 0.42548 0.60719 0.15047 0.0
C143 C 0.60437 0.4723 0.45086 0.0
C144 C 0.66046 0.4178 0.4305 0.0
C145 C 0.62375 0.42757 0.46572 0.0
N146 N 0.62357 0.48644 0.40729 0.0
N147 N 0.66048 0.45565 0.39719 0.0
C148 C 0.57304 0.50505 0.47993 0.0
H149 H 0.57965 0.5437 0.46722 0.0
H150 H 0.5348 0.49264 0.47242 0.0
H151 H 0.58375 0.50296 0.5197 0.0
C152 C 0.51311 0.45754 0.24485 0.0
N153 N 0.52355 0.49611 0.27581 0.0
N154 N 0.56048 0.48314 0.3055 0.0
C155 C 0.57541 0.43659 0.2929 0.0
C156 C 0.54292 0.41671 0.25722 0.0
C157 C 0.48775 0.46402 0.1956 0.0
H158 H 0.48209 0.50353 0.18713 0.0
H159 H 0.45174 0.44393 0.19548 0.0
H160 H 0.51188 0.45015 0.16514 0.0
O161 O 0.57065 0.59732 0.28185 0.0
O162 O 0.61533 0.5909 0.34822 0.0
H163 H 0.63936 0.40446 0.25626 0.0
H164 H 0.63997 0.40117 0.3236 0.0
C165 C 0.6296 0.42453 0.29128 0.0
H166 H 0.65163 0.45938 0.2915 0.0
H167 H 0.68467 0.45922 0.36698 0.0
O168 O 0.47558 0.59221 0.21478 0.0
C169 C 0.58764 0.61774 0.32105 0.0
Co170 Co 0.72782 0.25621 0.52743 0.0
Co171 Co 0.76715 0.33207 0.61208 0.0
C172 C 0.71434 0.23079 0.63567 0.0
O173 O 0.70786 0.22003 0.58952 0.0
O174 O 0.73936 0.2694 0.64874 0.0
C175 C 0.70588 0.18319 0.44442 0.0
O176 O 0.68609 0.17576 0.40019 0.0
C177 C 0.82093 0.3543 0.70083 0.0
C178 C 0.8755 0.41036 0.68057 0.0
C179 C 0.86567 0.37364 0.71575 0.0
N180 N 0.80685 0.37354 0.65727 0.0
N181 N 0.83768 0.41044 0.64723 0.0
C182 C 0.78813 0.32297 0.72985 0.0
H183 H 0.7495 0.32963 0.71711 0.0
H184 H 0.80051 0.28473 0.72232 0.0
H185 H 0.7902 0.33365 0.76963 0.0
C186 C 0.83576 0.2632 0.49477 0.0
N187 N 0.79717 0.27364 0.5257 0.0
N188 N 0.81016 0.31054 0.55543 0.0
C189 C 0.85673 0.32544 0.54287 0.0
C190 C 0.8766 0.29297 0.50719 0.0
C191 C 0.82929 0.23787 0.44549 0.0
H192 H 0.78978 0.23225 0.43698 0.0
H193 H 0.84935 0.20185 0.44537 0.0
H194 H 0.8432 0.26201 0.41506 0.0
O195 O 0.69597 0.3208 0.53171 0.0
O196 O 0.70243 0.36545 0.5981 0.0
H197 H 0.88895 0.38939 0.50631 0.0
H198 H 0.89219 0.38995 0.57366 0.0
C199 C 0.86885 0.37963 0.54131 0.0
H200 H 0.83401 0.40168 0.54152 0.0
H201 H 0.83415 0.43465 0.61703 0.0
O202 O 0.70108 0.22578 0.46456 0.0
C203 C 0.67557 0.33777 0.57093 0.0
Co204 Co 0.03692 0.47755 0.77762 0.0
Co205 Co 0.96097 0.51688 0.86218 0.0
C206 C 0.06227 0.46417 0.88589 0.0
O207 O 0.07305 0.45766 0.83974 0.0
O208 O 0.02364 0.48918 0.8989 0.0
C209 C 0.11001 0.4556 0.69469 0.0
O210 O 0.1175 0.43577 0.65049 0.0
C211 C 0.93864 0.57072 0.95086 0.0
C212 C 0.88255 0.62522 0.93051 0.0
C213 C 0.91926 0.61545 0.96572 0.0
N214 N 0.91944 0.55658 0.9073 0.0
N215 N 0.88252 0.58737 0.8972 0.0
C216 C 0.96998 0.53797 0.97993 0.0
H217 H 0.96336 0.49932 0.96722 0.0
H218 H 0.00821 0.55038 0.97242 0.0
H219 H 0.95927 0.54007 0.0197 0.0
C220 C 0.02987 0.58546 0.74486 0.0
N221 N 0.01944 0.54688 0.77581 0.0
N222 N 0.98251 0.55986 0.80551 0.0
C223 C 0.96757 0.60641 0.7929 0.0
C224 C 6e-05 0.62628 0.75722 0.0
C225 C 0.05523 0.57897 0.6956 0.0
H226 H 0.06089 0.53946 0.68714 0.0
H227 H 0.09124 0.59906 0.69549 0.0
H228 H 0.0311 0.59283 0.66514 0.0
O229 O 0.97235 0.44567 0.78187 0.0
O230 O 0.92767 0.4521 0.84824 0.0
H231 H 0.90362 0.63853 0.75626 0.0
H232 H 0.90302 0.64183 0.8236 0.0
C233 C 0.91338 0.61847 0.79128 0.0
H234 H 0.89135 0.58362 0.79151 0.0
H235 H 0.85833 0.58379 0.86699 0.0
O236 O 0.06741 0.45078 0.71479 0.0
C237 C 0.95537 0.42526 0.82108 0.0
Co238 Co 0.8152 0.78683 0.02742 0.0
Co239 Co 0.77587 0.71096 0.11206 0.0
C240 C 0.82868 0.81225 0.13566 0.0
O241 O 0.83516 0.82301 0.08951 0.0
O242 O 0.80366 0.77364 0.14872 0.0
C243 C 0.83713 0.85984 0.94441 0.0
O244 O 0.85691 0.86727 0.90018 0.0
C245 C 0.7221 0.68872 0.20081 0.0
C246 C 0.66755 0.63264 0.18054 0.0
C247 C 0.67737 0.66937 0.21572 0.0
N248 N 0.73619 0.66948 0.15725 0.0
N249 N 0.70536 0.63257 0.1472 0.0
C250 C 0.75489 0.72006 0.22983 0.0
H251 H 0.79353 0.71341 0.21709 0.0
H252 H 0.74251 0.7583 0.2223 0.0
H253 H 0.75283 0.70938 0.26961 0.0
C254 C 0.70727 0.77981 -0.00526 0.0
N255 N 0.74586 0.76938 0.02568 0.0
N256 N 0.73287 0.73248 0.05541 0.0
C257 C 0.6863 0.71757 0.04284 0.0
C258 C 0.66643 0.75004 0.00715 0.0
C259 C 0.71374 0.80514 0.94546 0.0
H260 H 0.75324 0.81077 0.93696 0.0
H261 H 0.69368 0.84116 0.94534 0.0
H262 H 0.69983 0.781 0.91503 0.0
O263 O 0.84706 0.72224 0.03171 0.0
O264 O 0.8406 0.67759 0.0981 0.0
H265 H 0.6541 0.65361 0.00627 0.0
H266 H 0.65086 0.65306 0.07361 0.0
C267 C 0.6742 0.66338 0.04127 0.0
H268 H 0.70903 0.64133 0.04149 0.0
H269 H 0.7089 0.60836 0.11699 0.0
O270 O 0.84194 0.81726 0.96455 0.0
C271 C 0.86746 0.70527 0.07093 0.0
Co272 Co 0.75293 -0.01072 0.9714 0.0
Co273 Co 0.68061 0.07575 0.00994 0.0
C274 C 0.64661 0.98252 0.94694 0.0
O275 O 0.69058 0.96617 0.94178 0.0
O276 O 0.63751 0.0204 0.97495 0.0
C277 C 0.80382 0.8975 0.96549 0.0
O278 O 0.76657 0.88382 -0.00628 0.0
C279 C 0.60062 0.09231 0.07593 0.0
C280 C 0.63028 0.13967 0.13489 0.0
C281 C 0.59476 0.10325 0.12631 0.0
N282 N 0.64008 0.11556 0.05691 0.0
N283 N 0.65583 0.14676 0.09173 0.0
C284 C 0.56615 0.06641 0.04331 0.0
H285 H 0.57303 0.07781 0.00404 0.0
H286 H 0.57351 0.02655 0.04867 0.0
H287 H 0.5282 0.07838 0.05259 0.0
C288 C 0.76195 0.97955 0.08495 0.0
N289 N 0.74733 0.00086 0.04146 0.0
N290 N 0.73229 0.0465 0.05124 0.0
C291 C 0.74086 0.05667 0.10001 0.0
C292 C 0.75689 0.01402 0.123 0.0
C293 C 0.78006 0.92752 0.09107 0.0
H294 H 0.81305 0.92158 0.06697 0.0
H295 H 0.7499 0.90142 0.08074 0.0
H296 H 0.79044 0.91944 0.13032 0.0
O297 O 0.76572 0.0567 0.94569 0.0
O298 O 0.70557 0.11055 0.94926 0.0
H299 H 0.79264 0.10535 0.13655 0.0
H300 H 0.72945 0.11888 0.14912 0.0
C301 C 0.75522 0.10699 0.11907 0.0
H302 H 0.75719 0.13414 0.08793 0.0
H303 H 0.68519 0.17154 0.08695 0.0
O304 O 0.80706 0.94261 0.9519 0.0
C305 C 0.73268 0.08182 0.92296 0.0
Co306 Co 0.30364 0.50304 0.22171 0.0
Co307 Co 0.21724 0.43062 0.26024 0.0
C308 C 0.31043 0.39674 0.19714 0.0
O309 O 0.32676 0.44073 0.19202 0.0
O310 O 0.27257 0.3876 0.22516 0.0
C311 C 0.39537 0.55402 0.21577 0.0
O312 O 0.4091 0.51677 0.24397 0.0
C313 C 0.20078 0.35058 0.32618 0.0
C314 C 0.15346 0.38017 0.38519 0.0
C315 C 0.1899 0.34468 0.37656 0.0
N316 N 0.17748 0.39003 0.3072 0.0
N317 N 0.14631 0.40574 0.34205 0.0
C318 C 0.22667 0.31615 0.29351 0.0
H319 H 0.21523 0.32304 0.25425 0.0
H320 H 0.26653 0.32354 0.29885 0.0
H321 H 0.21473 0.27819 0.30277 0.0
C322 C 0.31346 0.51195 0.33526 0.0
N323 N 0.29213 0.49736 0.29177 0.0
N324 N 0.24651 0.48228 0.30157 0.0
C325 C 0.23636 0.4908 0.35035 0.0
C326 C 0.27902 0.50684 0.37333 0.0
C327 C 0.36549 0.53008 0.34137 0.0
H328 H 0.37139 0.56311 0.31731 0.0
H329 H 0.39159 0.49995 0.33097 0.0
H330 H 0.3736 0.54042 0.38063 0.0
O331 O 0.23618 0.51582 0.19608 0.0
O332 O 0.18236 0.45563 0.19961 0.0
H333 H 0.18769 0.54253 0.38695 0.0
H334 H 0.1742 0.47933 0.39949 0.0
C335 C 0.18605 0.50512 0.36946 0.0
H336 H 0.15887 0.50709 0.33833 0.0
H337 H 0.1215 0.43507 0.33731 0.0
O338 O 0.35024 0.55722 0.20222 0.0
C339 C 0.21107 0.48279 0.17333 0.0
Co340 Co 0.79007 0.05375 0.47141 0.0
Co341 Co 0.86238 0.96727 0.50995 0.0
C342 C 0.89639 0.0605 0.44696 0.0
O343 O 0.85242 0.07685 0.4418 0.0
O344 O 0.90548 0.02262 0.47496 0.0
C345 C 0.73919 0.14553 0.46549 0.0
O346 O 0.77643 0.1592 0.49373 0.0
C347 C 0.94236 0.9507 0.57595 0.0
C348 C 0.9127 0.90336 0.6349 0.0
C349 C 0.94822 0.93977 0.62632 0.0
N350 N 0.9029 0.92746 0.55692 0.0
N351 N 0.88714 0.89627 0.59173 0.0
C352 C 0.97684 0.9766 0.54333 0.0
H353 H 0.96995 0.9652 0.50406 0.0
H354 H 0.96948 0.01646 0.5487 0.0
H355 H 0.01478 0.96463 0.55261 0.0
C356 C 0.78105 0.06348 0.58495 0.0
N357 N 0.79566 0.04217 0.54146 0.0
N358 N 0.81069 -0.00347 0.55125 0.0
C359 C 0.80213 -0.01364 0.60001 0.0
C360 C 0.78611 0.02902 0.623 0.0
C361 C 0.76295 0.11552 0.59108 0.0
H362 H 0.72996 0.12147 0.56699 0.0
H363 H 0.79312 0.14161 0.58075 0.0
H364 H 0.75258 0.1236 0.63033 0.0
O365 O 0.77727 -0.01367 0.44569 0.0
O366 O 0.83742 0.93247 0.44926 0.0
H367 H 0.75034 0.93769 0.63654 0.0
H368 H 0.81353 0.92416 0.64912 0.0
C369 C 0.78776 0.93605 0.61907 0.0
H370 H 0.78579 0.90889 0.58792 0.0
H371 H 0.85779 0.87149 0.58695 0.0
O372 O 0.73594 0.10042 0.4519 0.0
C373 C 0.81031 0.96121 0.42296 0.0
Co374 Co 0.23935 0.53995 0.72171 0.0
Co375 Co 0.32576 0.61237 0.76024 0.0
C376 C 0.23255 0.64624 0.69714 0.0
O377 O 0.21623 0.60225 0.69202 0.0
O378 O 0.27041 0.65539 0.72516 0.0
C379 C 0.14762 0.48897 0.71577 0.0
O380 O 0.13389 0.52622 0.74396 0.0
C381 C 0.34222 0.69241 0.82618 0.0
C382 C 0.38954 0.66283 0.88519 0.0
C383 C 0.3531 0.69831 0.87656 0.0
N384 N 0.36552 0.65296 0.8072 0.0
N385 N 0.39669 0.63726 0.84205 0.0
C386 C 0.31633 0.72684 0.79351 0.0
H387 H 0.32776 0.71994 0.75425 0.0
H388 H 0.27646 0.71945 0.79884 0.0
H389 H 0.32827 0.7648 0.80277 0.0
C390 C 0.22954 0.53104 0.83526 0.0
N391 N 0.25087 0.54563 0.79177 0.0
N392 N 0.2965 0.5607 0.80157 0.0
C393 C 0.30664 0.55219 0.85035 0.0
C394 C 0.26398 0.53616 0.87333 0.0
C395 C 0.17751 0.51291 0.84136 0.0
H396 H 0.17161 0.47988 0.81731 0.0
H397 H 0.15141 0.54304 0.83097 0.0
H398 H 0.16941 0.50258 0.88063 0.0
O399 O 0.30681 0.52718 0.69606 0.0
O400 O 0.36063 0.58736 0.69962 0.0
H401 H 0.35532 0.50046 0.88695 0.0
H402 H 0.36881 0.56367 0.89949 0.0
C403 C 0.35695 0.53787 0.86946 0.0
H404 H 0.38413 0.53589 0.83833 0.0
H405 H 0.42149 0.60792 0.83731 0.0
O406 O 0.19275 0.48576 0.70222 0.0
C407 C 0.33192 0.56021 0.67333 0.0
Co408 Co 0.25285 0.55358 0.07902 0.0
Co409 Co 0.1805 0.46707 0.04062 0.0
C410 C 0.14656 0.56028 0.10366 0.0
O411 O 0.19054 0.57665 0.10875 0.0
O412 O 0.13744 0.52239 0.07566 0.0
C413 C 0.30384 0.64534 0.08492 0.0
O414 O 0.26663 0.65909 0.05668 0.0
C415 C 0.10046 0.4505 0.97472 0.0
C416 C 0.13011 0.40323 0.9157 0.0
C417 C 0.09459 0.43963 0.92433 0.0
N418 N 0.13992 0.42724 -0.00629 0.0
N419 N 0.15567 0.39609 0.95885 0.0
C420 C 0.066 0.47637 0.00738 0.0
H421 H 0.0729 0.46495 0.04664 0.0
H422 H 0.07336 0.51624 0.00203 0.0
H423 H 0.02804 0.46441 -0.0019 0.0
C424 C 0.26165 0.56332 0.96545 0.0
N425 N 0.24712 0.54201 0.00897 0.0
N426 N 0.23212 0.49635 -0.00077 0.0
C427 C 0.24062 0.48616 0.95046 0.0
C428 C 0.25656 0.52883 0.92742 0.0
C429 C 0.27968 0.61538 0.95928 0.0
H430 H 0.24954 0.64143 0.96976 0.0
H431 H 0.28989 0.62349 0.91999 0.0
H432 H 0.31276 0.62133 0.98325 0.0
O433 O 0.26576 0.48617 0.10468 0.0
O434 O 0.20558 0.4323 0.10127 0.0
H435 H 0.29247 0.43753 0.91395 0.0
H436 H 0.22929 0.42391 0.90138 0.0
C437 C 0.25504 0.43585 0.93142 0.0
H438 H 0.25705 0.40871 0.96258 0.0
H439 H 0.18503 0.37131 0.9636 0.0
O440 O 0.30701 0.60022 0.09848 0.0
C441 C 0.23278 0.46103 0.12747 0.0
Co442 Co 0.73956 0.00301 0.3287 0.0
Co443 Co 0.82599 0.93059 0.29031 0.0
C444 C 0.7328 0.89674 0.35342 0.0
O445 O 0.71646 0.94073 0.35848 0.0
O446 O 0.77067 0.88758 0.32542 0.0
C447 C 0.64785 0.05408 0.33463 0.0
O448 O 0.63405 0.01687 0.30641 0.0
C449 C 0.84246 0.85049 0.22446 0.0
C450 C 0.8897 0.88007 0.16539 0.0
C451 C 0.85327 0.84458 0.17407 0.0
N452 N 0.86576 0.88995 0.24341 0.0
N453 N 0.89689 0.90565 0.20852 0.0
C454 C 0.81659 0.81606 0.25716 0.0
H455 H 0.82804 0.82298 0.29641 0.0
H456 H 0.77672 0.82344 0.25184 0.0
H457 H 0.82851 0.7781 0.2479 0.0
C458 C 0.72977 0.01175 0.21513 0.0
N459 N 0.75109 -0.00277 0.25865 0.0
N460 N 0.79673 0.98219 0.2489 0.0
C461 C 0.80691 -0.00933 0.20013 0.0
C462 C 0.76424 0.00662 0.17709 0.0
C463 C 0.67772 0.0298 0.20898 0.0
H464 H 0.65165 -0.00032 0.21949 0.0
H465 H 0.66958 0.03998 0.16967 0.0
H466 H 0.6718 0.0629 0.23291 0.0
O467 O 0.807 0.01589 0.35431 0.0
O468 O 0.86083 0.95569 0.35093 0.0
H469 H 0.85556 0.04247 0.16358 0.0
H470 H 0.86913 0.97929 0.15103 0.0
C471 C 0.85722 0.00505 0.18107 0.0
H472 H 0.88437 0.00705 0.21221 0.0
H473 H 0.9217 0.935 0.21322 0.0
O474 O 0.69299 0.05722 0.34816 0.0
C475 C 0.83211 -0.01709 0.37712 0.0
Co476 Co 0.29017 0.48943 0.57901 0.0
Co477 Co 0.36251 0.57594 0.54062 0.0
C478 C 0.39647 0.48275 0.60366 0.0
O479 O 0.35249 0.46638 0.60875 0.0
O480 O 0.40559 0.52063 0.57566 0.0
C481 C 0.23919 0.39767 0.58492 0.0
O482 O 0.2764 0.38392 0.55668 0.0
C483 C 0.44255 0.59252 0.47471 0.0
C484 C 0.41289 0.63979 0.4157 0.0
C485 C 0.44842 0.60339 0.42433 0.0
N486 N 0.40309 0.61578 0.4937 0.0
N487 N 0.38733 0.64692 0.45885 0.0
C488 C 0.47702 0.56665 0.50737 0.0
H489 H 0.47012 0.57807 0.54663 0.0
H490 H 0.46965 0.52678 0.50203 0.0
H491 H 0.51497 0.57861 0.4981 0.0
C492 C 0.28137 0.47968 0.46545 0.0
N493 N 0.2959 0.50099 0.50897 0.0
N494 N 0.3109 0.54665 0.49923 0.0
C495 C 0.30238 0.55684 0.45046 0.0
C496 C 0.28645 0.51417 0.42742 0.0
C497 C 0.26334 0.42762 0.45928 0.0
H498 H 0.29348 0.40157 0.46976 0.0
H499 H 0.25313 0.4195 0.41998 0.0
H500 H 0.23026 0.42166 0.48324 0.0
O501 O 0.27725 0.55684 0.60466 0.0
O502 O 0.33744 0.61071 0.60128 0.0
H503 H 0.25053 0.60546 0.41395 0.0
H504 H 0.31371 0.61909 0.40138 0.0
C505 C 0.28796 0.60715 0.43142 0.0
H506 H 0.28596 0.63429 0.46258 0.0
H507 H 0.35797 0.6717 0.46359 0.0
O508 O 0.23602 0.4428 0.59847 0.0
C509 C 0.31022 0.58198 0.62747 0.0
Co510 Co 0.80343 0.04002 0.8287 0.0
Co511 Co 0.717 0.11246 0.79031 0.0
C512 C 0.8102 0.14629 0.85344 0.0
O513 O 0.82654 0.1023 0.8585 0.0
O514 O 0.77233 0.15546 0.82544 0.0
C515 C 0.89514 -0.01105 0.83465 0.0
O516 O 0.90895 0.02615 0.80643 0.0
C517 C 0.70055 0.19256 0.72447 0.0
C518 C 0.65331 0.16298 0.66538 0.0
C519 C 0.68974 0.19846 0.67407 0.0
N520 N 0.67724 0.1531 0.7434 0.0
N521 N 0.64611 0.1374 0.70851 0.0
C522 C 0.72643 0.22698 0.75717 0.0
H523 H 0.71497 0.22006 0.79642 0.0
H524 H 0.76629 0.21959 0.75186 0.0
H525 H 0.71451 0.26495 0.74792 0.0
C526 C 0.81323 0.03129 0.71514 0.0
N527 N 0.79191 0.0458 0.75866 0.0
N528 N 0.74627 0.06085 0.7489 0.0
C529 C 0.73609 0.05237 0.70012 0.0
C530 C 0.77876 0.03642 0.67709 0.0
C531 C 0.86528 0.01323 0.70899 0.0
H532 H 0.89135 0.04334 0.71951 0.0
H533 H 0.87341 0.00305 0.66969 0.0
H534 H 0.87119 0.98012 0.73292 0.0
O535 O 0.73599 0.02715 0.8543 0.0
O536 O 0.68216 0.08735 0.85092 0.0
H537 H 0.68744 0.00058 0.66357 0.0
H538 H 0.67388 0.06377 0.65102 0.0
C539 C 0.68578 0.038 0.68105 0.0
H540 H 0.65862 0.036 0.71219 0.0
H541 H 0.6213 0.10805 0.71321 0.0
O542 O 0.85 -0.01418 0.84817 0.0
C543 C 0.71088 0.06013 0.87711 0.0
Co544 Co 0.96426 0.76073 0.01172 0.0
Co545 Co -5e-05 0.68107 0.09449 0.0
C546 C 0.94346 0.6525 -0.00129 0.0
O547 O 0.93827 0.69752 -0.01333 0.0
O548 O 0.97032 0.64009 0.03622 0.0
C549 C -0.01288 0.78201 0.9217 0.0
O550 O 0.00583 0.73899 0.93513 0.0
C551 C 0.0579 0.59544 0.11526 0.0
C552 C 0.11288 0.62236 0.16842 0.0
C553 C 0.10633 0.58786 0.13036 0.0
N554 N 0.03842 0.63543 0.13771 0.0
N555 N 0.07032 0.64884 0.17282 0.0
C556 C 0.02847 0.56293 0.08335 0.0
H557 H -0.01153 0.56829 0.09182 0.0
H558 H 0.03739 0.574 0.04479 0.0
H559 H 0.03792 0.52379 0.09118 0.0
C560 C 0.07123 0.79166 0.02163 0.0
N561 N 0.03307 0.76064 0.03266 0.0
N562 N 0.04603 0.73239 0.07059 0.0
C563 C 0.09178 0.74688 0.08665 0.0
C564 C 0.11167 0.7813 0.05286 0.0
C565 C 0.06434 0.83893 -0.00689 0.0
H566 H 0.0249 0.84742 -0.01305 0.0
H567 H 0.08445 0.83705 0.95689 0.0
H568 H 0.07767 0.87055 0.01574 0.0
O569 O 0.92447 0.77215 0.07202 0.0
O570 O 0.93752 0.71016 0.12401 0.0
H571 H 0.12021 0.78852 0.14972 0.0
H572 H 0.126 0.72241 0.15519 0.0
C573 C 0.10172 0.75249 0.14155 0.0
H574 H 0.06615 0.75233 0.16254 0.0
H575 H 0.06444 0.6779 0.19791 0.0
O576 O 0.95828 0.80467 0.95184 0.0
C577 C 0.90776 0.73426 0.0955 0.0
Co578 Co 0.46426 0.78214 0.03907 0.0
Co579 Co 0.49995 0.86175 0.95628 0.0
C580 C 0.44349 0.89037 0.05205 0.0
O581 O 0.43828 0.84535 0.06409 0.0
O582 O 0.47036 0.90276 0.01454 0.0
C583 C 0.48717 0.76092 0.1291 0.0
O584 O 0.50587 0.80394 0.11563 0.0
C585 C 0.55793 0.94736 0.93544 0.0
C586 C 0.61286 0.9204 0.88225 0.0
C587 C 0.60634 0.95493 0.9203 0.0
N588 N 0.53842 0.90736 0.91303 0.0
N589 N 0.57028 0.89393 0.87789 0.0
C590 C 0.52853 0.97989 0.96735 0.0
H591 H 0.48852 0.97453 0.9589 0.0
H592 H 0.53746 0.96883 0.00592 0.0
H593 H 0.53799 0.01902 0.9595 0.0
C594 C 0.57123 0.75119 0.02916 0.0
N595 N 0.53307 0.7822 0.01812 0.0
N596 N 0.54603 0.81043 0.98017 0.0
C597 C 0.59177 0.79593 0.96411 0.0
C598 C 0.61167 0.76153 -0.00208 0.0
C599 C 0.56436 0.70393 0.05771 0.0
H600 H 0.52491 0.69545 0.06389 0.0
H601 H 0.58448 0.70584 0.09392 0.0
H602 H 0.57766 0.6723 0.0351 0.0
O603 O 0.42444 0.7707 0.97879 0.0
O604 O 0.43752 0.83266 0.92676 0.0
H605 H 0.62015 0.75424 0.90105 0.0
H606 H 0.62596 0.82035 0.89553 0.0
C607 C 0.60168 0.79029 0.90921 0.0
H608 H 0.56609 0.79044 0.88823 0.0
H609 H 0.56438 0.86485 0.85283 0.0
O610 O 0.45832 0.73823 0.09898 0.0
C611 C 0.40775 0.80857 0.95527 0.0
Co612 Co 0.511 0.21448 0.28901 0.0
Co613 Co 0.43131 0.25017 0.20629 0.0
C614 C 0.40279 0.1936 0.30203 0.0
O615 O 0.44782 0.18843 0.31405 0.0
O616 O 0.39036 0.22048 0.26454 0.0
C617 C 0.53226 0.23734 0.37904 0.0
O618 O 0.48921 0.25601 0.36562 0.0
C619 C 0.34564 0.3081 0.18555 0.0
C620 C 0.37252 0.36309 0.13238 0.0
C621 C 0.33803 0.35651 0.17045 0.0
N622 N 0.38563 0.28863 0.16309 0.0
N623 N 0.39902 0.32054 0.12797 0.0
C624 C 0.31316 0.27865 0.21747 0.0
H625 H 0.31853 0.23865 0.20898 0.0
H626 H 0.32425 0.28756 0.25603 0.0
H627 H 0.27402 0.28808 0.20966 0.0
C628 C 0.54186 0.32149 0.27916 0.0
N629 N 0.51087 0.28332 0.26811 0.0
N630 N 0.4826 0.29628 0.2302 0.0
C631 C 0.49705 0.34204 0.21416 0.0
C632 C 0.53146 0.36195 0.24796 0.0
C633 C 0.58913 0.31464 0.30769 0.0
H634 H 0.59766 0.27521 0.31384 0.0
H635 H 0.58724 0.33475 0.34391 0.0
H636 H 0.62075 0.32799 0.28506 0.0
O637 O 0.52244 0.17472 0.22868 0.0
O638 O 0.46045 0.18782 0.17668 0.0
H639 H 0.53868 0.3705 0.15109 0.0
H640 H 0.47256 0.37627 0.14562 0.0
C641 C 0.50265 0.352 0.15926 0.0
H642 H 0.50251 0.31642 0.13826 0.0
H643 H 0.42808 0.31468 0.10288 0.0
O644 O 0.55495 0.20854 0.34889 0.0
C645 C 0.48456 0.15803 0.20515 0.0
Co646 Co 0.07878 0.26085 0.53912 0.0
Co647 Co 0.04307 0.18125 0.45632 0.0
C648 C 0.09955 0.15261 0.55208 0.0
O649 O 0.10476 0.19763 0.56413 0.0
O650 O 0.07267 0.14023 0.51457 0.0
C651 C 0.05589 0.28205 0.62915 0.0
O652 O 0.03719 0.23903 0.61569 0.0
C653 C -0.01492 0.09565 0.43547 0.0
C654 C 0.93015 0.12261 0.38228 0.0
C655 C 0.93666 0.08809 0.42033 0.0
N656 N 0.00459 0.13564 0.41306 0.0
N657 N 0.97273 0.14908 0.37792 0.0
C658 C 0.01447 0.06311 0.46738 0.0
H659 H 0.05448 0.06846 0.45893 0.0
H660 H 0.00554 0.07417 0.50594 0.0
H661 H 0.005 0.02398 0.45952 0.0
C662 C 0.9718 0.2918 0.52921 0.0
N663 N 0.00996 0.26079 0.51817 0.0
N664 N -0.00301 0.23257 0.48022 0.0
C665 C 0.95126 0.24707 0.46415 0.0
C666 C 0.93136 0.28146 0.49797 0.0
C667 C 0.97867 0.33905 0.55779 0.0
H668 H 0.01811 0.34753 0.56399 0.0
H669 H 0.95853 0.33714 0.59399 0.0
H670 H 0.96538 0.37069 0.53518 0.0
O671 O 0.11858 0.27229 0.47884 0.0
O672 O 0.10549 0.21033 0.4268 0.0
H673 H 0.92289 0.28877 0.4011 0.0
H674 H 0.91706 0.22267 0.39557 0.0
C675 C 0.94135 0.25272 0.40925 0.0
H676 H 0.97694 0.25257 0.38828 0.0
H677 H 0.97863 0.17816 0.35286 0.0
O678 O 0.08473 0.30474 0.59904 0.0
C679 C 0.13527 0.23442 0.4553 0.0
Co680 Co 0.03199 0.82851 0.78901 0.0
Co681 Co 0.11167 0.79281 0.70629 0.0
C682 C 0.1402 0.84938 0.80204 0.0
O683 O 0.09517 0.85456 0.81405 0.0
O684 O 0.15263 0.8225 0.76455 0.0
C685 C 0.01075 0.80566 0.87903 0.0
O686 O 0.05379 0.78698 0.86562 0.0
C687 C 0.19734 0.73488 0.68555 0.0
C688 C 0.17045 0.67989 0.63239 0.0
C689 C 0.20495 0.68646 0.67045 0.0
N690 N 0.15734 0.75435 0.6631 0.0
N691 N 0.14395 0.72244 0.62798 0.0
C692 C 0.22983 0.76433 0.71747 0.0
H693 H 0.22445 0.80433 0.70898 0.0
H694 H 0.21874 0.75543 0.75603 0.0
H695 H 0.26897 0.7549 0.70965 0.0
C696 C 0.00113 0.7215 0.77916 0.0
N697 N 0.03212 0.75968 0.76811 0.0
N698 N 0.06038 0.74671 0.73019 0.0
C699 C 0.04593 0.70094 0.71416 0.0
C700 C 0.01152 0.68104 0.74796 0.0
C701 C 0.95385 0.72836 0.80768 0.0
H702 H 0.94533 0.76779 0.81384 0.0
H703 H 0.95575 0.70825 0.84391 0.0
H704 H 0.92223 0.71501 0.78506 0.0
O705 O 0.02055 0.86827 0.72868 0.0
O706 O 0.08254 0.85517 0.67669 0.0
H707 H 0.00429 0.67248 0.65109 0.0
H708 H 0.07041 0.66671 0.64562 0.0
C709 C 0.04032 0.69098 0.65926 0.0
H710 H 0.04046 0.72655 0.63825 0.0
H711 H 0.11489 0.72829 0.60289 0.0
O712 O -0.01195 0.83447 0.84889 0.0
C713 C 0.05842 0.88496 0.70516 0.0
Co714 Co 0.57877 0.2823 0.51171 0.0
Co715 Co 0.54309 0.36196 0.59448 0.0
C716 C 0.59956 0.39053 0.4987 0.0
O717 O 0.60475 0.34551 0.48666 0.0
O718 O 0.57271 0.40294 0.53622 0.0
C719 C 0.55589 0.261 0.42171 0.0
O720 O 0.53718 0.30403 0.43512 0.0
C721 C 0.48513 0.4476 0.61526 0.0
C722 C 0.43016 0.42068 0.66842 0.0
C723 C 0.43671 0.45518 0.63035 0.0
N724 N 0.50462 0.40761 0.6377 0.0
N725 N 0.47272 0.3942 0.67282 0.0
C726 C 0.51455 0.4801 0.58335 0.0
H727 H 0.55455 0.47474 0.59181 0.0
H728 H 0.50563 0.46903 0.54478 0.0
H729 H 0.5051 0.51924 0.59117 0.0
C730 C 0.4718 0.25136 0.52163 0.0
N731 N 0.50996 0.28239 0.53266 0.0
N732 N 0.497 0.31064 0.57059 0.0
C733 C 0.45126 0.29615 0.58665 0.0
C734 C 0.43136 0.26173 0.55286 0.0
C735 C 0.47869 0.20408 0.49312 0.0
H736 H 0.51813 0.19559 0.48697 0.0
H737 H 0.45858 0.20595 0.4569 0.0
H738 H 0.46536 0.17247 0.51575 0.0
O739 O 0.61856 0.27089 0.57201 0.0
O740 O 0.60551 0.33288 0.62401 0.0
H741 H 0.42284 0.25451 0.64973 0.0
H742 H 0.41704 0.32063 0.65519 0.0
C743 C 0.44132 0.29055 0.64155 0.0
H744 H 0.4769 0.29071 0.66254 0.0
H745 H 0.4786 0.36514 0.69791 0.0
O746 O 0.58473 0.23834 0.45184 0.0
C747 C 0.63527 0.30878 0.5955 0.0
Co748 Co 0.01087 0.32851 0.76183 0.0
Co749 Co 0.93111 0.29282 0.84451 0.0
C750 C 0.90267 0.34939 0.74874 0.0
O751 O 0.9477 0.35453 0.73673 0.0
O752 O 0.89021 0.32254 0.78624 0.0
C753 C 0.03221 0.30567 0.67182 0.0
O754 O -0.01084 0.28697 0.68518 0.0
C755 C 0.84541 0.23492 0.86516 0.0
C756 C 0.87224 0.17988 0.91829 0.0
C757 C 0.83778 0.18649 0.8802 0.0
N758 N 0.8854 0.25436 0.88766 0.0
N759 N 0.89875 0.22242 0.92276 0.0
C760 C 0.81295 0.26439 0.83324 0.0
H761 H 0.81835 0.30439 0.84175 0.0
H762 H 0.82405 0.2555 0.79468 0.0
H763 H 0.7738 0.25497 0.84103 0.0
C764 C 0.0417 0.22151 0.77169 0.0
N765 N 0.0107 0.25968 0.78272 0.0
N766 N 0.98241 0.24671 0.82062 0.0
C767 C -0.00316 0.20094 0.83665 0.0
C768 C 0.03127 0.18105 0.80287 0.0
C769 C 0.08901 0.22838 0.74323 0.0
H770 H 0.09754 0.26783 0.73713 0.0
H771 H 0.08715 0.20831 0.70698 0.0
H772 H 0.1206 0.21501 0.76588 0.0
O773 O 0.02226 0.36827 0.82217 0.0
O774 O 0.96025 0.35518 0.87412 0.0
H775 H 0.03841 0.17244 0.89974 0.0
H776 H 0.97229 0.1667 0.90515 0.0
C777 C 0.00239 0.19096 0.89155 0.0
H778 H 0.00225 0.22653 0.91257 0.0
H779 H 0.9278 0.22826 0.94788 0.0
O780 O 0.05487 0.33448 0.702 0.0
C781 C -0.01564 0.38496 0.84564 0.0
Co782 Co 0.53217 0.71448 0.26178 0.0
Co783 Co 0.61191 0.75019 0.34447 0.0
C784 C 0.64037 0.69361 0.24872 0.0
O785 O 0.59534 0.68845 0.23671 0.0
O786 O 0.65282 0.72047 0.28621 0.0
C787 C 0.51084 0.7373 0.17176 0.0
O788 O 0.55389 0.756 0.18513 0.0
C789 C 0.6976 0.80811 0.36514 0.0
C790 C 0.67075 0.86315 0.41826 0.0
C791 C 0.70522 0.85654 0.38018 0.0
N792 N 0.65762 0.78866 0.38763 0.0
N793 N 0.64426 0.8206 0.42273 0.0
C794 C 0.73006 0.77864 0.33322 0.0
H795 H 0.72468 0.73865 0.34173 0.0
H796 H 0.71896 0.78752 0.29466 0.0
H797 H 0.76921 0.78807 0.34101 0.0
C798 C 0.50133 0.82149 0.27163 0.0
N799 N 0.53233 0.78332 0.28267 0.0
N800 N 0.56061 0.79629 0.32057 0.0
C801 C 0.54618 0.84206 0.3366 0.0
C802 C 0.51175 0.86195 0.30282 0.0
C803 C 0.45403 0.81462 0.24314 0.0
H804 H 0.4455 0.77518 0.23702 0.0
H805 H 0.4559 0.83471 0.20691 0.0
H806 H 0.42244 0.82798 0.26579 0.0
O807 O 0.52076 0.67475 0.32212 0.0
O808 O 0.58277 0.68783 0.37409 0.0
H809 H 0.50459 0.87055 0.39968 0.0
H810 H 0.57071 0.87631 0.40511 0.0
C811 C 0.54061 0.85204 0.3915 0.0
H812 H 0.54076 0.81648 0.41252 0.0
H813 H 0.61521 0.81476 0.44784 0.0
O814 O 0.48817 0.7085 0.20194 0.0
C815 C 0.55865 0.65805 0.34561 0.0
loop_
_geom_bond_atom_site_label_1
_geom_bond_atom_site_label_2
_geom_bond_distance
_geom_bond_site_symmetry_2
_ccdc_geom_bond_type
Co0 O3 1.970 1_455 S
Co0 N17 1.989 1_565 S
Co0 O25 1.967 . S
Co0 O32 1.920 1_455 S
Co1 O4 1.966 1_545 S
Co1 N10 2.022 . S
Co1 N18 1.993 . S
Co1 O26 1.941 1_545 S
C2 O3 1.258 1_455 S
C2 O4 1.263 . S
O3 Co0 1.970 1_655 S
O3 C2 1.258 1_655 S
O4 Co1 1.966 1_565 S
O4 C2 1.263 . S
C5 O6 1.235 1_565 S
C5 O32 1.289 . S
O6 C5 1.235 1_545 S
C7 C9 1.400 . S
C7 N10 1.351 . S
C7 C12 1.501 . S
C8 C9 1.387 . S
C8 N11 1.341 . S
C9 C7 1.400 . S
C9 C8 1.387 . S
N10 Co1 2.022 . S
N10 C7 1.351 . S
N10 N11 1.365 . S
N11 C8 1.341 . S
N11 N10 1.365 . S
N11 H31 0.862 . S
C12 C7 1.501 . S
C12 H13 0.961 . S
C12 H14 0.961 . S
C12 H15 0.960 . S
H13 C12 0.961 . S
H14 C12 0.961 . S
H15 C12 0.960 . S
C16 N17 1.342 . S
C16 C20 1.401 . S
C16 C21 1.499 . S
N17 Co0 1.989 1_545 S
N17 C16 1.342 . S
N17 N18 1.388 . S
N18 Co1 1.993 . S
N18 N17 1.388 . S
N18 C19 1.346 . S
C19 N18 1.346 . S
C19 C20 1.396 . S
C19 C29 1.510 . S
C20 C16 1.401 . S
C20 C19 1.396 . S
C21 C16 1.499 . S
C21 H22 0.959 . S
C21 H23 0.960 . S
C21 H24 0.961 . S
H22 C21 0.959 . S
H23 C21 0.960 . S
H24 C21 0.961 . S
O25 Co0 1.967 . S
O25 C33 1.258 . S
O26 Co1 1.941 1_565 S
O26 C33 1.266 . S
H27 C29 0.959 . S
H28 C29 0.961 . S
C29 C19 1.510 . S
C29 H27 0.959 . S
C29 H28 0.961 . S
C29 H30 0.960 . S
H30 C29 0.960 . S
H31 N11 0.862 . S
O32 Co0 1.920 1_655 S
O32 C5 1.289 . S
C33 O25 1.258 . S
C33 O26 1.266 . S
Co34 O37 1.970 1_554 S
Co34 N51 1.989 . S
Co34 O59 1.967 . S
Co34 O66 1.920 . S
Co35 O38 1.966 . S
Co35 N44 2.022 . S
Co35 N52 1.993 1_556 S
Co35 O60 1.941 . S
C36 O37 1.258 . S
C36 O38 1.263 . S
O37 Co34 1.970 1_556 S
O37 C36 1.258 . S
O38 Co35 1.966 . S
O38 C36 1.263 . S
C39 O40 1.235 . S
C39 O66 1.289 . S
O40 C39 1.235 . S
C41 C43 1.400 . S
C41 N44 1.351 . S
C41 C46 1.501 . S
C42 C43 1.387 . S
C42 N45 1.341 . S
C43 C41 1.400 . S
C43 C42 1.387 . S
N44 Co35 2.022 . S
N44 C41 1.351 . S
N44 N45 1.365 . S
N45 C42 1.341 . S
N45 N44 1.365 . S
N45 H65 0.862 . S
C46 C41 1.501 . S
C46 H47 0.961 . S
C46 H48 0.961 . S
C46 H49 0.960 . S
H47 C46 0.961 . S
H48 C46 0.961 . S
H49 C46 0.960 . S
C50 N51 1.342 . S
C50 C54 1.401 . S
C50 C55 1.499 . S
N51 Co34 1.989 . S
N51 C50 1.342 . S
N51 N52 1.388 . S
N52 Co35 1.993 1_554 S
N52 N51 1.388 . S
N52 C53 1.346 . S
C53 N52 1.346 . S
C53 C54 1.396 . S
C53 C63 1.510 1_554 S
C54 C50 1.401 . S
C54 C53 1.396 . S
C55 C50 1.499 . S
C55 H56 0.959 . S
C55 H57 0.960 . S
C55 H58 0.961 . S
H56 C55 0.959 . S
H57 C55 0.960 . S
H58 C55 0.961 . S
O59 Co34 1.967 . S
O59 C67 1.258 . S
O60 Co35 1.941 . S
O60 C67 1.266 1_556 S
H61 C63 0.959 1_554 S
H62 C63 0.961 . S
C63 C53 1.510 1_556 S
C63 H61 0.959 1_556 S
C63 H62 0.961 . S
C63 H64 0.960 . S
H64 C63 0.960 . S
H65 N45 0.862 . S
O66 Co34 1.920 . S
O66 C39 1.289 . S
C67 O59 1.258 . S
C67 O60 1.266 1_554 S
Co68 O71 1.970 . S
Co68 N85 1.989 . S
Co68 O93 1.967 . S
Co68 O100 1.920 . S
Co69 O72 1.966 . S
Co69 N78 2.022 . S
Co69 N86 1.993 . S
Co69 O94 1.941 . S
C70 O71 1.258 . S
C70 O72 1.263 . S
O71 Co68 1.970 . S
O71 C70 1.258 . S
O72 Co69 1.966 . S
O72 C70 1.263 . S
C73 O74 1.235 . S
C73 O100 1.289 . S
O74 C73 1.235 . S
C75 C77 1.400 1_545 S
C75 N78 1.351 . S
C75 C80 1.501 . S
C76 C77 1.387 . S
C76 N79 1.341 1_565 S
C77 C75 1.400 1_565 S
C77 C76 1.387 . S
N78 Co69 2.022 . S
N78 C75 1.351 . S
N78 N79 1.365 . S
N79 C76 1.341 1_545 S
N79 N78 1.365 . S
N79 H99 0.862 . S
C80 C75 1.501 . S
C80 H81 0.961 . S
C80 H82 0.961 1_545 S
C80 H83 0.960 . S
H81 C80 0.961 . S
H82 C80 0.961 1_565 S
H83 C80 0.960 . S
C84 N85 1.342 1_565 S
C84 C88 1.401 . S
C84 C89 1.499 . S
N85 Co68 1.989 . S
N85 C84 1.342 1_545 S
N85 N86 1.388 . S
N86 Co69 1.993 . S
N86 N85 1.388 . S
N86 C87 1.346 1_545 S
C87 N86 1.346 1_565 S
C87 C88 1.396 . S
C87 C97 1.510 . S
C88 C84 1.401 . S
C88 C87 1.396 . S
C89 C84 1.499 . S
C89 H90 0.959 1_565 S
C89 H91 0.960 . S
C89 H92 0.961 . S
H90 C89 0.959 1_545 S
H91 C89 0.960 . S
H92 C89 0.961 . S
O93 Co68 1.967 . S
O93 C101 1.258 . S
O94 Co69 1.941 . S
O94 C101 1.266 . S
H95 C97 0.959 . S
H96 C97 0.961 . S
C97 C87 1.510 . S
C97 H95 0.959 . S
C97 H96 0.961 . S
C97 H98 0.960 . S
H98 C97 0.960 . S
H99 N79 0.862 . S
O100 Co68 1.920 . S
O100 C73 1.289 . S
C101 O93 1.258 . S
C101 O94 1.266 . S
Co102 O105 1.970 . S
Co102 N119 1.989 . S
Co102 O127 1.967 . S
Co102 O134 1.920 . S
Co103 O106 1.966 . S
Co103 N112 2.022 . S
Co103 N120 1.993 . S
Co103 O128 1.941 . S
C104 O105 1.258 . S
C104 O106 1.263 . S
O105 Co102 1.970 . S
O105 C104 1.258 . S
O106 Co103 1.966 . S
O106 C104 1.263 . S
C107 O108 1.235 . S
C107 O134 1.289 . S
O108 C107 1.235 . S
C109 C111 1.400 . S
C109 N112 1.351 . S
C109 C114 1.501 . S
C110 C111 1.387 . S
C110 N113 1.341 . S
C111 C109 1.400 . S
C111 C110 1.387 . S
N112 Co103 2.022 . S
N112 C109 1.351 . S
N112 N113 1.365 . S
N113 C110 1.341 . S
N113 N112 1.365 . S
N113 H133 0.862 . S
C114 C109 1.501 . S
C114 H115 0.961 . S
C114 H116 0.961 . S
C114 H117 0.960 . S
H115 C114 0.961 . S
H116 C114 0.961 . S
H117 C114 0.960 . S
C118 N119 1.342 . S
C118 C122 1.401 . S
C118 C123 1.499 . S
N119 Co102 1.989 . S
N119 C118 1.342 . S
N119 N120 1.388 . S
N120 Co103 1.993 . S
N120 N119 1.388 . S
N120 C121 1.346 . S
C121 N120 1.346 . S
C121 C122 1.396 . S
C121 C131 1.510 . S
C122 C118 1.401 . S
C122 C121 1.396 . S
C123 C118 1.499 . S
C123 H124 0.959 . S
C123 H125 0.960 . S
C123 H126 0.961 . S
H124 C123 0.959 . S
H125 C123 0.960 . S
H126 C123 0.961 . S
O127 Co102 1.967 . S
O127 C135 1.258 . S
O128 Co103 1.941 . S
O128 C135 1.266 . S
H129 C131 0.959 . S
H130 C131 0.961 . S
C131 C121 1.510 . S
C131 H129 0.959 . S
C131 H130 0.961 . S
C131 H132 0.960 . S
H132 C131 0.960 . S
H133 N113 0.862 . S
O134 Co102 1.920 . S
O134 C107 1.289 . S
C135 O127 1.258 . S
C135 O128 1.266 . S
Co136 O139 1.970 . S
Co136 N153 1.989 . S
Co136 O161 1.967 . S
Co136 O168 1.920 . S
Co137 O140 1.966 . S
Co137 N146 2.022 . S
Co137 N154 1.993 . S
Co137 O162 1.941 . S
C138 O139 1.258 . S
C138 O140 1.263 . S
O139 Co136 1.970 . S
O139 C138 1.258 . S
O140 Co137 1.966 . S
O140 C138 1.263 . S
C141 O142 1.235 . S
C141 O168 1.289 . S
O142 C141 1.235 . S
C143 C145 1.400 . S
C143 N146 1.351 . S
C143 C148 1.501 . S
C144 C145 1.387 . S
C144 N147 1.341 . S
C145 C143 1.400 . S
C145 C144 1.387 . S
N146 Co137 2.022 . S
N146 C143 1.351 . S
N146 N147 1.365 . S
N147 C144 1.341 . S
N147 N146 1.365 . S
N147 H167 0.862 . S
C148 C143 1.501 . S
C148 H149 0.961 . S
C148 H150 0.961 . S
C148 H151 0.960 . S
H149 C148 0.961 . S
H150 C148 0.961 . S
H151 C148 0.960 . S
C152 N153 1.342 . S
C152 C156 1.401 . S
C152 C157 1.499 . S
N153 Co136 1.989 . S
N153 C152 1.342 . S
N153 N154 1.388 . S
N154 Co137 1.993 . S
N154 N153 1.388 . S
N154 C155 1.346 . S
C155 N154 1.346 . S
C155 C156 1.396 . S
C155 C165 1.510 . S
C156 C152 1.401 . S
C156 C155 1.396 . S
C157 C152 1.499 . S
C157 H158 0.959 . S
C157 H159 0.960 . S
C157 H160 0.961 . S
H158 C157 0.959 . S
H159 C157 0.960 . S
H160 C157 0.961 . S
O161 Co136 1.967 . S
O161 C169 1.258 . S
O162 Co137 1.941 . S
O162 C169 1.266 . S
H163 C165 0.959 . S
H164 C165 0.961 . S
C165 C155 1.510 . S
C165 H163 0.959 . S
C165 H164 0.961 . S
C165 H166 0.960 . S
H166 C165 0.960 . S
H167 N147 0.862 . S
O168 Co136 1.920 . S
O168 C141 1.289 . S
C169 O161 1.258 . S
C169 O162 1.266 . S
Co170 O173 1.970 . S
Co170 N187 1.989 . S
Co170 O195 1.967 . S
Co170 O202 1.920 . S
Co171 O174 1.966 . S
Co171 N180 2.022 . S
Co171 N188 1.993 . S
Co171 O196 1.941 . S
C172 O173 1.258 . S
C172 O174 1.263 . S
O173 Co170 1.970 . S
O173 C172 1.258 . S
O174 Co171 1.966 . S
O174 C172 1.263 . S
C175 O176 1.235 . S
C175 O202 1.289 . S
O176 C175 1.235 . S
C177 C179 1.400 . S
C177 N180 1.351 . S
C177 C182 1.501 . S
C178 C179 1.387 . S
C178 N181 1.341 . S
C179 C177 1.400 . S
C179 C178 1.387 . S
N180 Co171 2.022 . S
N180 C177 1.351 . S
N180 N181 1.365 . S
N181 C178 1.341 . S
N181 N180 1.365 . S
N181 H201 0.862 . S
C182 C177 1.501 . S
C182 H183 0.961 . S
C182 H184 0.961 . S
C182 H185 0.960 . S
H183 C182 0.961 . S
H184 C182 0.961 . S
H185 C182 0.960 . S
C186 N187 1.342 . S
C186 C190 1.401 . S
C186 C191 1.499 . S
N187 Co170 1.989 . S
N187 C186 1.342 . S
N187 N188 1.388 . S
N188 Co171 1.993 . S
N188 N187 1.388 . S
N188 C189 1.346 . S
C189 N188 1.346 . S
C189 C190 1.396 . S
C189 C199 1.510 . S
C190 C186 1.401 . S
C190 C189 1.396 . S
C191 C186 1.499 . S
C191 H192 0.959 . S
C191 H193 0.960 . S
C191 H194 0.961 . S
H192 C191 0.959 . S
H193 C191 0.960 . S
H194 C191 0.961 . S
O195 Co170 1.967 . S
O195 C203 1.258 . S
O196 Co171 1.941 . S
O196 C203 1.266 . S
H197 C199 0.959 . S
H198 C199 0.961 . S
C199 C189 1.510 . S
C199 H197 0.959 . S
C199 H198 0.961 . S
C199 H200 0.960 . S
H200 C199 0.960 . S
H201 N181 0.862 . S
O202 Co170 1.920 . S
O202 C175 1.289 . S
C203 O195 1.258 . S
C203 O196 1.266 . S
Co204 O207 1.970 . S
Co204 N221 1.989 . S
Co204 O229 1.967 1_455 S
Co204 O236 1.920 . S
Co205 O208 1.966 1_655 S
Co205 N214 2.022 . S
Co205 N222 1.993 . S
Co205 O230 1.941 . S
C206 O207 1.258 . S
C206 O208 1.263 . S
O207 Co204 1.970 . S
O207 C206 1.258 . S
O208 Co205 1.966 1_455 S
O208 C206 1.263 . S
C209 O210 1.235 . S
C209 O236 1.289 . S
O210 C209 1.235 . S
C211 C213 1.400 . S
C211 N214 1.351 . S
C211 C216 1.501 . S
C212 C213 1.387 . S
C212 N215 1.341 . S
C213 C211 1.400 . S
C213 C212 1.387 . S
N214 Co205 2.022 . S
N214 C211 1.351 . S
N214 N215 1.365 . S
N215 C212 1.341 . S
N215 N214 1.365 . S
N215 H235 0.862 . S
C216 C211 1.501 . S
C216 H217 0.961 . S
C216 H218 0.961 . S
C216 H219 0.960 1_556 S
H217 C216 0.961 . S
H218 C216 0.961 . S
H219 C216 0.960 1_554 S
C220 N221 1.342 . S
C220 C224 1.401 1_455 S
C220 C225 1.499 . S
N221 Co204 1.989 . S
N221 C220 1.342 . S
N221 N222 1.388 1_455 S
N222 Co205 1.993 . S
N222 N221 1.388 1_655 S
N222 C223 1.346 . S
C223 N222 1.346 . S
C223 C224 1.396 . S
C223 C233 1.510 . S
C224 C220 1.401 1_655 S
C224 C223 1.396 . S
C225 C220 1.499 . S
C225 H226 0.959 . S
C225 H227 0.960 . S
C225 H228 0.961 . S
H226 C225 0.959 . S
H227 C225 0.960 . S
H228 C225 0.961 . S
O229 Co204 1.967 1_655 S
O229 C237 1.258 . S
O230 Co205 1.941 . S
O230 C237 1.266 . S
H231 C233 0.959 . S
H232 C233 0.961 . S
C233 C223 1.510 . S
C233 H231 0.959 . S
C233 H232 0.961 . S
C233 H234 0.960 . S
H234 C233 0.960 . S
H235 N215 0.862 . S
O236 Co204 1.920 . S
O236 C209 1.289 . S
C237 O229 1.258 . S
C237 O230 1.266 . S
Co238 O241 1.970 . S
Co238 N255 1.989 . S
Co238 O263 1.967 . S
Co238 O270 1.920 1_554 S
Co239 O242 1.966 . S
Co239 N248 2.022 . S
Co239 N256 1.993 . S
Co239 O264 1.941 . S
C240 O241 1.258 . S
C240 O242 1.263 . S
O241 Co238 1.970 . S
O241 C240 1.258 . S
O242 Co239 1.966 . S
O242 C240 1.263 . S
C243 O244 1.235 1_556 S
C243 O270 1.289 . S
O244 C243 1.235 1_554 S
C245 C247 1.400 . S
C245 N248 1.351 . S
C245 C250 1.501 . S
C246 C247 1.387 . S
C246 N249 1.341 . S
C247 C245 1.400 . S
C247 C246 1.387 . S
N248 Co239 2.022 . S
N248 C245 1.351 . S
N248 N249 1.365 . S
N249 C246 1.341 . S
N249 N248 1.365 . S
N249 H269 0.862 . S
C250 C245 1.501 . S
C250 H251 0.961 . S
C250 H252 0.961 . S
C250 H253 0.960 . S
H251 C250 0.961 . S
H252 C250 0.961 . S
H253 C250 0.960 . S
C254 N255 1.342 1_556 S
C254 C258 1.401 1_556 S
C254 C259 1.499 . S
N255 Co238 1.989 . S
N255 C254 1.342 1_554 S
N255 N256 1.388 . S
N256 Co239 1.993 . S
N256 N255 1.388 . S
N256 C257 1.346 . S
C257 N256 1.346 . S
C257 C258 1.396 . S
C257 C267 1.510 . S
C258 C254 1.401 1_554 S
C258 C257 1.396 . S
C259 C254 1.499 . S
C259 H260 0.959 . S
C259 H261 0.960 . S
C259 H262 0.961 . S
H260 C259 0.959 . S
H261 C259 0.960 . S
H262 C259 0.961 . S
O263 Co238 1.967 . S
O263 C271 1.258 . S
O264 Co239 1.941 . S
O264 C271 1.266 . S
H265 C267 0.959 . S
H266 C267 0.961 . S
C267 C257 1.510 . S
C267 H265 0.959 . S
C267 H266 0.961 . S
C267 H268 0.960 . S
H268 C267 0.960 . S
H269 N249 0.862 . S
O270 Co238 1.920 1_556 S
O270 C243 1.289 . S
C271 O263 1.258 . S
C271 O264 1.266 . S
Co272 O275 1.970 1_545 S
Co272 N289 1.989 1_556 S
Co272 O297 1.967 . S
Co272 O304 1.920 1_545 S
Co273 O276 1.966 1_554 S
Co273 N282 2.022 . S
Co273 N290 1.993 . S
Co273 O298 1.941 1_554 S
C274 O275 1.258 1_545 S
C274 O276 1.263 . S
O275 Co272 1.970 1_565 S
O275 C274 1.258 1_565 S
O276 Co273 1.966 1_556 S
O276 C274 1.263 . S
C277 O278 1.235 1_556 S
C277 O304 1.289 . S
O278 C277 1.235 1_554 S
C279 C281 1.400 . S
C279 N282 1.351 . S
C279 C284 1.501 . S
C280 C281 1.387 . S
C280 N283 1.341 . S
C281 C279 1.400 . S
C281 C280 1.387 . S
N282 Co273 2.022 . S
N282 C279 1.351 . S
N282 N283 1.365 . S
N283 C280 1.341 . S
N283 N282 1.365 . S
N283 H303 0.862 . S
C284 C279 1.501 . S
C284 H285 0.961 . S
C284 H286 0.961 . S
C284 H287 0.960 . S
H285 C284 0.961 . S
H286 C284 0.961 . S
H287 C284 0.960 . S
C288 N289 1.342 . S
C288 C292 1.401 . S
C288 C293 1.499 . S
N289 Co272 1.989 1_554 S
N289 C288 1.342 . S
N289 N290 1.388 . S
N290 Co273 1.993 . S
N290 N289 1.388 . S
N290 C291 1.346 . S
C291 N290 1.346 . S
C291 C292 1.396 . S
C291 C301 1.510 . S
C292 C288 1.401 . S
C292 C291 1.396 . S
C293 C288 1.499 . S
C293 H294 0.959 . S
C293 H295 0.960 . S
C293 H296 0.961 . S
H294 C293 0.959 . S
H295 C293 0.960 . S
H296 C293 0.961 . S
O297 Co272 1.967 . S
O297 C305 1.258 . S
O298 Co273 1.941 1_556 S
O298 C305 1.266 . S
H299 C301 0.959 . S
H300 C301 0.961 . S
C301 C291 1.510 . S
C301 H299 0.959 . S
C301 H300 0.961 . S
C301 H302 0.960 . S
H302 C301 0.960 . S
H303 N283 0.862 . S
O304 Co272 1.920 1_565 S
O304 C277 1.289 . S
C305 O297 1.258 . S
C305 O298 1.266 . S
Co306 O309 1.970 . S
Co306 N323 1.989 . S
Co306 O331 1.967 . S
Co306 O338 1.920 . S
Co307 O310 1.966 . S
Co307 N316 2.022 . S
Co307 N324 1.993 . S
Co307 O332 1.941 . S
C308 O309 1.258 . S
C308 O310 1.263 . S
O309 Co306 1.970 . S
O309 C308 1.258 . S
O310 Co307 1.966 . S
O310 C308 1.263 . S
C311 O312 1.235 . S
C311 O338 1.289 . S
O312 C311 1.235 . S
C313 C315 1.400 . S
C313 N316 1.351 . S
C313 C318 1.501 . S
C314 C315 1.387 . S
C314 N317 1.341 . S
C315 C313 1.400 . S
C315 C314 1.387 . S
N316 Co307 2.022 . S
N316 C313 1.351 . S
N316 N317 1.365 . S
N317 C314 1.341 . S
N317 N316 1.365 . S
N317 H337 0.862 . S
C318 C313 1.501 . S
C318 H319 0.961 . S
C318 H320 0.961 . S
C318 H321 0.960 . S
H319 C318 0.961 . S
H320 C318 0.961 . S
H321 C318 0.960 . S
C322 N323 1.342 . S
C322 C326 1.401 . S
C322 C327 1.499 . S
N323 Co306 1.989 . S
N323 C322 1.342 . S
N323 N324 1.388 . S
N324 Co307 1.993 . S
N324 N323 1.388 . S
N324 C325 1.346 . S
C325 N324 1.346 . S
C325 C326 1.396 . S
C325 C335 1.510 . S
C326 C322 1.401 . S
C326 C325 1.396 . S
C327 C322 1.499 . S
C327 H328 0.959 . S
C327 H329 0.960 . S
C327 H330 0.961 . S
H328 C327 0.959 . S
H329 C327 0.960 . S
H330 C327 0.961 . S
O331 Co306 1.967 . S
O331 C339 1.258 . S
O332 Co307 1.941 . S
O332 C339 1.266 . S
H333 C335 0.959 . S
H334 C335 0.961 . S
C335 C325 1.510 . S
C335 H333 0.959 . S
C335 H334 0.961 . S
C335 H336 0.960 . S
H336 C335 0.960 . S
H337 N317 0.862 . S
O338 Co306 1.920 . S
O338 C311 1.289 . S
C339 O331 1.258 . S
C339 O332 1.266 . S
Co340 O343 1.970 . S
Co340 N357 1.989 . S
Co340 O365 1.967 1_545 S
Co340 O372 1.920 . S
Co341 O344 1.966 1_565 S
Co341 N350 2.022 . S
Co341 N358 1.993 . S
Co341 O366 1.941 . S
C342 O343 1.258 . S
C342 O344 1.263 . S
O343 Co340 1.970 . S
O343 C342 1.258 . S
O344 Co341 1.966 1_545 S
O344 C342 1.263 . S
C345 O346 1.235 . S
C345 O372 1.289 . S
O346 C345 1.235 . S
C347 C349 1.400 . S
C347 N350 1.351 . S
C347 C352 1.501 . S
C348 C349 1.387 . S
C348 N351 1.341 . S
C349 C347 1.400 . S
C349 C348 1.387 . S
N350 Co341 2.022 . S
N350 C347 1.351 . S
N350 N351 1.365 . S
N351 C348 1.341 . S
N351 N350 1.365 . S
N351 H371 0.862 . S
C352 C347 1.501 . S
C352 H353 0.961 . S
C352 H354 0.961 . S
C352 H355 0.960 1_655 S
H353 C352 0.961 . S
H354 C352 0.961 . S
H355 C352 0.960 1_455 S
C356 N357 1.342 . S
C356 C360 1.401 1_545 S
C356 C361 1.499 . S
N357 Co340 1.989 . S
N357 C356 1.342 . S
N357 N358 1.388 1_545 S
N358 Co341 1.993 . S
N358 N357 1.388 1_565 S
N358 C359 1.346 . S
C359 N358 1.346 . S
C359 C360 1.396 . S
C359 C369 1.510 . S
C360 C356 1.401 1_565 S
C360 C359 1.396 . S
C361 C356 1.499 . S
C361 H362 0.959 . S
C361 H363 0.960 . S
C361 H364 0.961 . S
H362 C361 0.959 . S
H363 C361 0.960 . S
H364 C361 0.961 . S
O365 Co340 1.967 1_565 S
O365 C373 1.258 . S
O366 Co341 1.941 . S
O366 C373 1.266 . S
H367 C369 0.959 . S
H368 C369 0.961 . S
C369 C359 1.510 . S
C369 H367 0.959 . S
C369 H368 0.961 . S
C369 H370 0.960 . S
H370 C369 0.960 . S
H371 N351 0.862 . S
O372 Co340 1.920 . S
O372 C345 1.289 . S
C373 O365 1.258 . S
C373 O366 1.266 . S
Co374 O377 1.970 . S
Co374 N391 1.989 . S
Co374 O399 1.967 . S
Co374 O406 1.920 . S
Co375 O378 1.966 . S
Co375 N384 2.022 . S
Co375 N392 1.993 . S
Co375 O400 1.941 . S
C376 O377 1.258 . S
C376 O378 1.263 . S
O377 Co374 1.970 . S
O377 C376 1.258 . S
O378 Co375 1.966 . S
O378 C376 1.263 . S
C379 O380 1.235 . S
C379 O406 1.289 . S
O380 C379 1.235 . S
C381 C383 1.400 . S
C381 N384 1.351 . S
C381 C386 1.501 . S
C382 C383 1.387 . S
C382 N385 1.341 . S
C383 C381 1.400 . S
C383 C382 1.387 . S
N384 Co375 2.022 . S
N384 C381 1.351 . S
N384 N385 1.365 . S
N385 C382 1.341 . S
N385 N384 1.365 . S
N385 H405 0.862 . S
C386 C381 1.501 . S
C386 H387 0.961 . S
C386 H388 0.961 . S
C386 H389 0.960 . S
H387 C386 0.961 . S
H388 C386 0.961 . S
H389 C386 0.960 . S
C390 N391 1.342 . S
C390 C394 1.401 . S
C390 C395 1.499 . S
N391 Co374 1.989 . S
N391 C390 1.342 . S
N391 N392 1.388 . S
N392 Co375 1.993 . S
N392 N391 1.388 . S
N392 C393 1.346 . S
C393 N392 1.346 . S
C393 C394 1.396 . S
C393 C403 1.510 . S
C394 C390 1.401 . S
C394 C393 1.396 . S
C395 C390 1.499 . S
C395 H396 0.959 . S
C395 H397 0.960 . S
C395 H398 0.961 . S
H396 C395 0.959 . S
H397 C395 0.960 . S
H398 C395 0.961 . S
O399 Co374 1.967 . S
O399 C407 1.258 . S
O400 Co375 1.941 . S
O400 C407 1.266 . S
H401 C403 0.959 . S
H402 C403 0.961 . S
C403 C393 1.510 . S
C403 H401 0.959 . S
C403 H402 0.961 . S
C403 H404 0.960 . S
H404 C403 0.960 . S
H405 N385 0.862 . S
O406 Co374 1.920 . S
O406 C379 1.289 . S
C407 O399 1.258 . S
C407 O400 1.266 . S
Co408 O411 1.970 . S
Co408 N425 1.989 . S
Co408 O433 1.967 . S
Co408 O440 1.920 . S
Co409 O412 1.966 . S
Co409 N418 2.022 . S
Co409 N426 1.993 . S
Co409 O434 1.941 . S
C410 O411 1.258 . S
C410 O412 1.263 . S
O411 Co408 1.970 . S
O411 C410 1.258 . S
O412 Co409 1.966 . S
O412 C410 1.263 . S
C413 O414 1.235 . S
C413 O440 1.289 . S
O414 C413 1.235 . S
C415 C417 1.400 1_554 S
C415 N418 1.351 . S
C415 C420 1.501 . S
C416 C417 1.387 . S
C416 N419 1.341 1_556 S
C417 C415 1.400 1_556 S
C417 C416 1.387 . S
N418 Co409 2.022 . S
N418 C415 1.351 . S
N418 N419 1.365 . S
N419 C416 1.341 1_554 S
N419 N418 1.365 . S
N419 H439 0.862 . S
C420 C415 1.501 . S
C420 H421 0.961 . S
C420 H422 0.961 1_554 S
C420 H423 0.960 . S
H421 C420 0.961 . S
H422 C420 0.961 1_556 S
H423 C420 0.960 . S
C424 N425 1.342 1_556 S
C424 C428 1.401 . S
C424 C429 1.499 . S
N425 Co408 1.989 . S
N425 C424 1.342 1_554 S
N425 N426 1.388 . S
N426 Co409 1.993 . S
N426 N425 1.388 . S
N426 C427 1.346 1_554 S
C427 N426 1.346 1_556 S
C427 C428 1.396 . S
C427 C437 1.510 . S
C428 C424 1.401 . S
C428 C427 1.396 . S
C429 C424 1.499 . S
C429 H430 0.959 1_556 S
C429 H431 0.960 . S
C429 H432 0.961 . S
H430 C429 0.959 1_554 S
H431 C429 0.960 . S
H432 C429 0.961 . S
O433 Co408 1.967 . S
O433 C441 1.258 . S
O434 Co409 1.941 . S
O434 C441 1.266 . S
H435 C437 0.959 . S
H436 C437 0.961 . S
C437 C427 1.510 . S
C437 H435 0.959 . S
C437 H436 0.961 . S
C437 H438 0.960 . S
H438 C437 0.960 . S
H439 N419 0.862 . S
O440 Co408 1.920 . S
O440 C413 1.289 . S
C441 O433 1.258 . S
C441 O434 1.266 . S
Co442 O445 1.970 1_545 S
Co442 N459 1.989 . S
Co442 O467 1.967 . S
Co442 O474 1.920 . S
Co443 O446 1.966 . S
Co443 N452 2.022 . S
Co443 N460 1.993 1_565 S
Co443 O468 1.941 . S
C444 O445 1.258 . S
C444 O446 1.263 . S
O445 Co442 1.970 1_565 S
O445 C444 1.258 . S
O446 Co443 1.966 . S
O446 C444 1.263 . S
C447 O448 1.235 . S
C447 O474 1.289 . S
O448 C447 1.235 . S
C449 C451 1.400 . S
C449 N452 1.351 . S
C449 C454 1.501 . S
C450 C451 1.387 . S
C450 N453 1.341 . S
C451 C449 1.400 . S
C451 C450 1.387 . S
N452 Co443 2.022 . S
N452 C449 1.351 . S
N452 N453 1.365 . S
N453 C450 1.341 . S
N453 N452 1.365 . S
N453 H473 0.862 . S
C454 C449 1.501 . S
C454 H455 0.961 . S
C454 H456 0.961 . S
C454 H457 0.960 . S
H455 C454 0.961 . S
H456 C454 0.961 . S
H457 C454 0.960 . S
C458 N459 1.342 . S
C458 C462 1.401 . S
C458 C463 1.499 . S
N459 Co442 1.989 . S
N459 C458 1.342 . S
N459 N460 1.388 . S
N460 Co443 1.993 1_545 S
N460 N459 1.388 . S
N460 C461 1.346 . S
C461 N460 1.346 . S
C461 C462 1.396 . S
C461 C471 1.510 1_545 S
C462 C458 1.401 . S
C462 C461 1.396 . S
C463 C458 1.499 . S
C463 H464 0.959 . S
C463 H465 0.960 . S
C463 H466 0.961 . S
H464 C463 0.959 . S
H465 C463 0.960 . S
H466 C463 0.961 . S
O467 Co442 1.967 . S
O467 C475 1.258 . S
O468 Co443 1.941 . S
O468 C475 1.266 1_565 S
H469 C471 0.959 1_545 S
H470 C471 0.961 . S
C471 C461 1.510 1_565 S
C471 H469 0.959 1_565 S
C471 H470 0.961 . S
C471 H472 0.960 . S
H472 C471 0.960 . S
H473 N453 0.862 . S
O474 Co442 1.920 . S
O474 C447 1.289 . S
C475 O467 1.258 . S
C475 O468 1.266 1_545 S
Co476 O479 1.970 . S
Co476 N493 1.989 . S
Co476 O501 1.967 . S
Co476 O508 1.920 . S
Co477 O480 1.966 . S
Co477 N486 2.022 . S
Co477 N494 1.993 . S
Co477 O502 1.941 . S
C478 O479 1.258 . S
C478 O480 1.263 . S
O479 Co476 1.970 . S
O479 C478 1.258 . S
O480 Co477 1.966 . S
O480 C478 1.263 . S
C481 O482 1.235 . S
C481 O508 1.289 . S
O482 C481 1.235 . S
C483 C485 1.400 . S
C483 N486 1.351 . S
C483 C488 1.501 . S
C484 C485 1.387 . S
C484 N487 1.341 . S
C485 C483 1.400 . S
C485 C484 1.387 . S
N486 Co477 2.022 . S
N486 C483 1.351 . S
N486 N487 1.365 . S
N487 C484 1.341 . S
N487 N486 1.365 . S
N487 H507 0.862 . S
C488 C483 1.501 . S
C488 H489 0.961 . S
C488 H490 0.961 . S
C488 H491 0.960 . S
H489 C488 0.961 . S
H490 C488 0.961 . S
H491 C488 0.960 . S
C492 N493 1.342 . S
C492 C496 1.401 . S
C492 C497 1.499 . S
N493 Co476 1.989 . S
N493 C492 1.342 . S
N493 N494 1.388 . S
N494 Co477 1.993 . S
N494 N493 1.388 . S
N494 C495 1.346 . S
C495 N494 1.346 . S
C495 C496 1.396 . S
C495 C505 1.510 . S
C496 C492 1.401 . S
C496 C495 1.396 . S
C497 C492 1.499 . S
C497 H498 0.959 . S
C497 H499 0.960 . S
C497 H500 0.961 . S
H498 C497 0.959 . S
H499 C497 0.960 . S
H500 C497 0.961 . S
O501 Co476 1.967 . S
O501 C509 1.258 . S
O502 Co477 1.941 . S
O502 C509 1.266 . S
H503 C505 0.959 . S
H504 C505 0.961 . S
C505 C495 1.510 . S
C505 H503 0.959 . S
C505 H504 0.961 . S
C505 H506 0.960 . S
H506 C505 0.960 . S
H507 N487 0.862 . S
O508 Co476 1.920 . S
O508 C481 1.289 . S
C509 O501 1.258 . S
C509 O502 1.266 . S
Co510 O513 1.970 . S
Co510 N527 1.989 . S
Co510 O535 1.967 . S
Co510 O542 1.920 1_545 S
Co511 O514 1.966 . S
Co511 N520 2.022 . S
Co511 N528 1.993 . S
Co511 O536 1.941 . S
C512 O513 1.258 . S
C512 O514 1.263 . S
O513 Co510 1.970 . S
O513 C512 1.258 . S
O514 Co511 1.966 . S
O514 C512 1.263 . S
C515 O516 1.235 1_565 S
C515 O542 1.289 . S
O516 C515 1.235 1_545 S
C517 C519 1.400 . S
C517 N520 1.351 . S
C517 C522 1.501 . S
C518 C519 1.387 . S
C518 N521 1.341 . S
C519 C517 1.400 . S
C519 C518 1.387 . S
N520 Co511 2.022 . S
N520 C517 1.351 . S
N520 N521 1.365 . S
N521 C518 1.341 . S
N521 N520 1.365 . S
N521 H541 0.862 . S
C522 C517 1.501 . S
C522 H523 0.961 . S
C522 H524 0.961 . S
C522 H525 0.960 . S
H523 C522 0.961 . S
H524 C522 0.961 . S
H525 C522 0.960 . S
C526 N527 1.342 1_565 S
C526 C530 1.401 1_565 S
C526 C531 1.499 . S
N527 Co510 1.989 . S
N527 C526 1.342 1_545 S
N527 N528 1.388 . S
N528 Co511 1.993 . S
N528 N527 1.388 . S
N528 C529 1.346 . S
C529 N528 1.346 . S
C529 C530 1.396 . S
C529 C539 1.510 . S
C530 C526 1.401 1_545 S
C530 C529 1.396 . S
C531 C526 1.499 . S
C531 H532 0.959 . S
C531 H533 0.960 . S
C531 H534 0.961 . S
H532 C531 0.959 . S
H533 C531 0.960 . S
H534 C531 0.961 . S
O535 Co510 1.967 . S
O535 C543 1.258 . S
O536 Co511 1.941 . S
O536 C543 1.266 . S
H537 C539 0.959 . S
H538 C539 0.961 . S
C539 C529 1.510 . S
C539 H537 0.959 . S
C539 H538 0.961 . S
C539 H540 0.960 . S
H540 C539 0.960 . S
H541 N521 0.862 . S
O542 Co510 1.920 1_565 S
O542 C515 1.289 . S
C543 O535 1.258 . S
C543 O536 1.266 . S
Co544 O547 1.970 1_554 S
Co544 N561 1.989 1_655 S
Co544 O569 1.967 . S
Co544 O576 1.920 1_554 S
Co545 O548 1.966 1_455 S
Co545 N554 2.022 . S
Co545 N562 1.993 . S
Co545 O570 1.941 1_455 S
C546 O547 1.258 1_554 S
C546 O548 1.263 . S
O547 Co544 1.970 1_556 S
O547 C546 1.258 1_556 S
O548 Co545 1.966 1_655 S
O548 C546 1.263 . S
C549 O550 1.235 1_655 S
C549 O576 1.289 . S
O550 C549 1.235 1_455 S
C551 C553 1.400 . S
C551 N554 1.351 . S
C551 C556 1.501 . S
C552 C553 1.387 . S
C552 N555 1.341 . S
C553 C551 1.400 . S
C553 C552 1.387 . S
N554 Co545 2.022 . S
N554 C551 1.351 . S
N554 N555 1.365 . S
N555 C552 1.341 . S
N555 N554 1.365 . S
N555 H575 0.862 . S
C556 C551 1.501 . S
C556 H557 0.961 . S
C556 H558 0.961 . S
C556 H559 0.960 . S
H557 C556 0.961 . S
H558 C556 0.961 . S
H559 C556 0.960 . S
C560 N561 1.342 . S
C560 C564 1.401 . S
C560 C565 1.499 . S
N561 Co544 1.989 1_455 S
N561 C560 1.342 . S
N561 N562 1.388 . S
N562 Co545 1.993 . S
N562 N561 1.388 . S
N562 C563 1.346 . S
C563 N562 1.346 . S
C563 C564 1.396 . S
C563 C573 1.510 . S
C564 C560 1.401 . S
C564 C563 1.396 . S
C565 C560 1.499 . S
C565 H566 0.959 . S
C565 H567 0.960 . S
C565 H568 0.961 . S
H566 C565 0.959 . S
H567 C565 0.960 . S
H568 C565 0.961 . S
O569 Co544 1.967 . S
O569 C577 1.258 . S
O570 Co545 1.941 1_655 S
O570 C577 1.266 . S
H571 C573 0.959 . S
H572 C573 0.961 . S
C573 C563 1.510 . S
C573 H571 0.959 . S
C573 H572 0.961 . S
C573 H574 0.960 . S
H574 C573 0.960 . S
H575 N555 0.862 . S
O576 Co544 1.920 1_556 S
O576 C549 1.289 . S
C577 O569 1.258 . S
C577 O570 1.266 . S
Co578 O581 1.970 . S
Co578 N595 1.989 . S
Co578 O603 1.967 1_554 S
Co578 O610 1.920 . S
Co579 O582 1.966 1_556 S
Co579 N588 2.022 . S
Co579 N596 1.993 . S
Co579 O604 1.941 . S
C580 O581 1.258 . S
C580 O582 1.263 . S
O581 Co578 1.970 . S
O581 C580 1.258 . S
O582 Co579 1.966 1_554 S
O582 C580 1.263 . S
C583 O584 1.235 . S
C583 O610 1.289 . S
O584 C583 1.235 . S
C585 C587 1.400 . S
C585 N588 1.351 . S
C585 C590 1.501 . S
C586 C587 1.387 . S
C586 N589 1.341 . S
C587 C585 1.400 . S
C587 C586 1.387 . S
N588 Co579 2.022 . S
N588 C585 1.351 . S
N588 N589 1.365 . S
N589 C586 1.341 . S
N589 N588 1.365 . S
N589 H609 0.862 . S
C590 C585 1.501 . S
C590 H591 0.961 . S
C590 H592 0.961 . S
C590 H593 0.960 1_565 S
H591 C590 0.961 . S
H592 C590 0.961 . S
H593 C590 0.960 1_545 S
C594 N595 1.342 . S
C594 C598 1.401 1_554 S
C594 C599 1.499 . S
N595 Co578 1.989 . S
N595 C594 1.342 . S
N595 N596 1.388 1_554 S
N596 Co579 1.993 . S
N596 N595 1.388 1_556 S
N596 C597 1.346 . S
C597 N596 1.346 . S
C597 C598 1.396 . S
C597 C607 1.510 . S
C598 C594 1.401 1_556 S
C598 C597 1.396 . S
C599 C594 1.499 . S
C599 H600 0.959 . S
C599 H601 0.960 . S
C599 H602 0.961 . S
H600 C599 0.959 . S
H601 C599 0.960 . S
H602 C599 0.961 . S
O603 Co578 1.967 1_556 S
O603 C611 1.258 . S
O604 Co579 1.941 . S
O604 C611 1.266 . S
H605 C607 0.959 . S
H606 C607 0.961 . S
C607 C597 1.510 . S
C607 H605 0.959 . S
C607 H606 0.961 . S
C607 H608 0.960 . S
H608 C607 0.960 . S
H609 N589 0.862 . S
O610 Co578 1.920 . S
O610 C583 1.289 . S
C611 O603 1.258 . S
C611 O604 1.266 . S
Co612 O615 1.970 . S
Co612 N629 1.989 . S
Co612 O637 1.967 . S
Co612 O644 1.920 . S
Co613 O616 1.966 . S
Co613 N622 2.022 . S
Co613 N630 1.993 . S
Co613 O638 1.941 . S
C614 O615 1.258 . S
C614 O616 1.263 . S
O615 Co612 1.970 . S
O615 C614 1.258 . S
O616 Co613 1.966 . S
O616 C614 1.263 . S
C617 O618 1.235 . S
C617 O644 1.289 . S
O618 C617 1.235 . S
C619 C621 1.400 . S
C619 N622 1.351 . S
C619 C624 1.501 . S
C620 C621 1.387 . S
C620 N623 1.341 . S
C621 C619 1.400 . S
C621 C620 1.387 . S
N622 Co613 2.022 . S
N622 C619 1.351 . S
N622 N623 1.365 . S
N623 C620 1.341 . S
N623 N622 1.365 . S
N623 H643 0.862 . S
C624 C619 1.501 . S
C624 H625 0.961 . S
C624 H626 0.961 . S
C624 H627 0.960 . S
H625 C624 0.961 . S
H626 C624 0.961 . S
H627 C624 0.960 . S
C628 N629 1.342 . S
C628 C632 1.401 . S
C628 C633 1.499 . S
N629 Co612 1.989 . S
N629 C628 1.342 . S
N629 N630 1.388 . S
N630 Co613 1.993 . S
N630 N629 1.388 . S
N630 C631 1.346 . S
C631 N630 1.346 . S
C631 C632 1.396 . S
C631 C641 1.510 . S
C632 C628 1.401 . S
C632 C631 1.396 . S
C633 C628 1.499 . S
C633 H634 0.959 . S
C633 H635 0.960 . S
C633 H636 0.961 . S
H634 C633 0.959 . S
H635 C633 0.960 . S
H636 C633 0.961 . S
O637 Co612 1.967 . S
O637 C645 1.258 . S
O638 Co613 1.941 . S
O638 C645 1.266 . S
H639 C641 0.959 . S
H640 C641 0.961 . S
C641 C631 1.510 . S
C641 H639 0.959 . S
C641 H640 0.961 . S
C641 H642 0.960 . S
H642 C641 0.960 . S
H643 N623 0.862 . S
O644 Co612 1.920 . S
O644 C617 1.289 . S
C645 O637 1.258 . S
C645 O638 1.266 . S
Co646 O649 1.970 . S
Co646 N663 1.989 . S
Co646 O671 1.967 . S
Co646 O678 1.920 . S
Co647 O650 1.966 . S
Co647 N656 2.022 . S
Co647 N664 1.993 . S
Co647 O672 1.941 . S
C648 O649 1.258 . S
C648 O650 1.263 . S
O649 Co646 1.970 . S
O649 C648 1.258 . S
O650 Co647 1.966 . S
O650 C648 1.263 . S
C651 O652 1.235 . S
C651 O678 1.289 . S
O652 C651 1.235 . S
C653 C655 1.400 1_455 S
C653 N656 1.351 . S
C653 C658 1.501 . S
C654 C655 1.387 . S
C654 N657 1.341 1_655 S
C655 C653 1.400 1_655 S
C655 C654 1.387 . S
N656 Co647 2.022 . S
N656 C653 1.351 . S
N656 N657 1.365 . S
N657 C654 1.341 1_455 S
N657 N656 1.365 . S
N657 H677 0.862 . S
C658 C653 1.501 . S
C658 H659 0.961 . S
C658 H660 0.961 1_455 S
C658 H661 0.960 . S
H659 C658 0.961 . S
H660 C658 0.961 1_655 S
H661 C658 0.960 . S
C662 N663 1.342 1_655 S
C662 C666 1.401 . S
C662 C667 1.499 . S
N663 Co646 1.989 . S
N663 C662 1.342 1_455 S
N663 N664 1.388 . S
N664 Co647 1.993 . S
N664 N663 1.388 . S
N664 C665 1.346 1_455 S
C665 N664 1.346 1_655 S
C665 C666 1.396 . S
C665 C675 1.510 . S
C666 C662 1.401 . S
C666 C665 1.396 . S
C667 C662 1.499 . S
C667 H668 0.959 1_655 S
C667 H669 0.960 . S
C667 H670 0.961 . S
H668 C667 0.959 1_455 S
H669 C667 0.960 . S
H670 C667 0.961 . S
O671 Co646 1.967 . S
O671 C679 1.258 . S
O672 Co647 1.941 . S
O672 C679 1.266 . S
H673 C675 0.959 . S
H674 C675 0.961 . S
C675 C665 1.510 . S
C675 H673 0.959 . S
C675 H674 0.961 . S
C675 H676 0.960 . S
H676 C675 0.960 . S
H677 N657 0.862 . S
O678 Co646 1.920 . S
O678 C651 1.289 . S
C679 O671 1.258 . S
C679 O672 1.266 . S
Co680 O683 1.970 . S
Co680 N697 1.989 . S
Co680 O705 1.967 . S
Co680 O712 1.920 1_455 S
Co681 O684 1.966 . S
Co681 N690 2.022 . S
Co681 N698 1.993 . S
Co681 O706 1.941 . S
C682 O683 1.258 . S
C682 O684 1.263 . S
O683 Co680 1.970 . S
O683 C682 1.258 . S
O684 Co681 1.966 . S
O684 C682 1.263 . S
C685 O686 1.235 1_655 S
C685 O712 1.289 . S
O686 C685 1.235 1_455 S
C687 C689 1.400 . S
C687 N690 1.351 . S
C687 C692 1.501 . S
C688 C689 1.387 . S
C688 N691 1.341 . S
C689 C687 1.400 . S
C689 C688 1.387 . S
N690 Co681 2.022 . S
N690 C687 1.351 . S
N690 N691 1.365 . S
N691 C688 1.341 . S
N691 N690 1.365 . S
N691 H711 0.862 . S
C692 C687 1.501 . S
C692 H693 0.961 . S
C692 H694 0.961 . S
C692 H695 0.960 . S
H693 C692 0.961 . S
H694 C692 0.961 . S
H695 C692 0.960 . S
C696 N697 1.342 1_655 S
C696 C700 1.401 1_655 S
C696 C701 1.499 . S
N697 Co680 1.989 . S
N697 C696 1.342 1_455 S
N697 N698 1.388 . S
N698 Co681 1.993 . S
N698 N697 1.388 . S
N698 C699 1.346 . S
C699 N698 1.346 . S
C699 C700 1.396 . S
C699 C709 1.510 . S
C700 C696 1.401 1_455 S
C700 C699 1.396 . S
C701 C696 1.499 . S
C701 H702 0.959 . S
C701 H703 0.960 . S
C701 H704 0.961 . S
H702 C701 0.959 . S
H703 C701 0.960 . S
H704 C701 0.961 . S
O705 Co680 1.967 . S
O705 C713 1.258 . S
O706 Co681 1.941 . S
O706 C713 1.266 . S
H707 C709 0.959 . S
H708 C709 0.961 . S
C709 C699 1.510 . S
C709 H707 0.959 . S
C709 H708 0.961 . S
C709 H710 0.960 . S
H710 C709 0.960 . S
H711 N691 0.862 . S
O712 Co680 1.920 1_655 S
O712 C685 1.289 . S
C713 O705 1.258 . S
C713 O706 1.266 . S
Co714 O717 1.970 . S
Co714 N731 1.989 . S
Co714 O739 1.967 . S
Co714 O746 1.920 . S
Co715 O718 1.966 . S
Co715 N724 2.022 . S
Co715 N732 1.993 . S
Co715 O740 1.941 . S
C716 O717 1.258 . S
C716 O718 1.263 . S
O717 Co714 1.970 . S
O717 C716 1.258 . S
O718 Co715 1.966 . S
O718 C716 1.263 . S
C719 O720 1.235 . S
C719 O746 1.289 . S
O720 C719 1.235 . S
C721 C723 1.400 . S
C721 N724 1.351 . S
C721 C726 1.501 . S
C722 C723 1.387 . S
C722 N725 1.341 . S
C723 C721 1.400 . S
C723 C722 1.387 . S
N724 Co715 2.022 . S
N724 C721 1.351 . S
N724 N725 1.365 . S
N725 C722 1.341 . S
N725 N724 1.365 . S
N725 H745 0.862 . S
C726 C721 1.501 . S
C726 H727 0.961 . S
C726 H728 0.961 . S
C726 H729 0.960 . S
H727 C726 0.961 . S
H728 C726 0.961 . S
H729 C726 0.960 . S
C730 N731 1.342 . S
C730 C734 1.401 . S
C730 C735 1.499 . S
N731 Co714 1.989 . S
N731 C730 1.342 . S
N731 N732 1.388 . S
N732 Co715 1.993 . S
N732 N731 1.388 . S
N732 C733 1.346 . S
C733 N732 1.346 . S
C733 C734 1.396 . S
C733 C743 1.510 . S
C734 C730 1.401 . S
C734 C733 1.396 . S
C735 C730 1.499 . S
C735 H736 0.959 . S
C735 H737 0.960 . S
C735 H738 0.961 . S
H736 C735 0.959 . S
H737 C735 0.960 . S
H738 C735 0.961 . S
O739 Co714 1.967 . S
O739 C747 1.258 . S
O740 Co715 1.941 . S
O740 C747 1.266 . S
H741 C743 0.959 . S
H742 C743 0.961 . S
C743 C733 1.510 . S
C743 H741 0.959 . S
C743 H742 0.961 . S
C743 H744 0.960 . S
H744 C743 0.960 . S
H745 N725 0.862 . S
O746 Co714 1.920 . S
O746 C719 1.289 . S
C747 O739 1.258 . S
C747 O740 1.266 . S
Co748 O751 1.970 1_455 S
Co748 N765 1.989 . S
Co748 O773 1.967 . S
Co748 O780 1.920 . S
Co749 O752 1.966 . S
Co749 N758 2.022 . S
Co749 N766 1.993 1_655 S
Co749 O774 1.941 . S
C750 O751 1.258 . S
C750 O752 1.263 . S
O751 Co748 1.970 1_655 S
O751 C750 1.258 . S
O752 Co749 1.966 . S
O752 C750 1.263 . S
C753 O754 1.235 . S
C753 O780 1.289 . S
O754 C753 1.235 . S
C755 C757 1.400 . S
C755 N758 1.351 . S
C755 C760 1.501 . S
C756 C757 1.387 . S
C756 N759 1.341 . S
C757 C755 1.400 . S
C757 C756 1.387 . S
N758 Co749 2.022 . S
N758 C755 1.351 . S
N758 N759 1.365 . S
N759 C756 1.341 . S
N759 N758 1.365 . S
N759 H779 0.862 . S
C760 C755 1.501 . S
C760 H761 0.961 . S
C760 H762 0.961 . S
C760 H763 0.960 . S
H761 C760 0.961 . S
H762 C760 0.961 . S
H763 C760 0.960 . S
C764 N765 1.342 . S
C764 C768 1.401 . S
C764 C769 1.499 . S
N765 Co748 1.989 . S
N765 C764 1.342 . S
N765 N766 1.388 . S
N766 Co749 1.993 1_455 S
N766 N765 1.388 . S
N766 C767 1.346 . S
C767 N766 1.346 . S
C767 C768 1.396 . S
C767 C777 1.510 1_455 S
C768 C764 1.401 . S
C768 C767 1.396 . S
C769 C764 1.499 . S
C769 H770 0.959 . S
C769 H771 0.960 . S
C769 H772 0.961 . S
H770 C769 0.959 . S
H771 C769 0.960 . S
H772 C769 0.961 . S
O773 Co748 1.967 . S
O773 C781 1.258 . S
O774 Co749 1.941 . S
O774 C781 1.266 1_655 S
H775 C777 0.959 1_455 S
H776 C777 0.961 . S
C777 C767 1.510 1_655 S
C777 H775 0.959 1_655 S
C777 H776 0.961 . S
C777 H778 0.960 . S
H778 C777 0.960 . S
H779 N759 0.862 . S
O780 Co748 1.920 . S
O780 C753 1.289 . S
C781 O773 1.258 . S
C781 O774 1.266 1_455 S
Co782 O785 1.970 . S
Co782 N799 1.989 . S
Co782 O807 1.967 . S
Co782 O814 1.920 . S
Co783 O786 1.966 . S
Co783 N792 2.022 . S
Co783 N800 1.993 . S
Co783 O808 1.941 . S
C784 O785 1.258 . S
C784 O786 1.263 . S
O785 Co782 1.970 . S
O785 C784 1.258 . S
O786 Co783 1.966 . S
O786 C784 1.263 . S
C787 O788 1.235 . S
C787 O814 1.289 . S
O788 C787 1.235 . S
C789 C791 1.400 . S
C789 N792 1.351 . S
C789 C794 1.501 . S
C790 C791 1.387 . S
C790 N793 1.341 . S
C791 C789 1.400 . S
C791 C790 1.387 . S
N792 Co783 2.022 . S
N792 C789 1.351 . S
N792 N793 1.365 . S
N793 C790 1.341 . S
N793 N792 1.365 . S
N793 H813 0.862 . S
C794 C789 1.501 . S
C794 H795 0.961 . S
C794 H796 0.961 . S
C794 H797 0.960 . S
H795 C794 0.961 . S
H796 C794 0.961 . S
H797 C794 0.960 . S
C798 N799 1.342 . S
C798 C802 1.401 . S
C798 C803 1.499 . S
N799 Co782 1.989 . S
N799 C798 1.342 . S
N799 N800 1.388 . S
N800 Co783 1.993 . S
N800 N799 1.388 . S
N800 C801 1.346 . S
C801 N800 1.346 . S
C801 C802 1.396 . S
C801 C811 1.510 . S
C802 C798 1.401 . S
C802 C801 1.396 . S
C803 C798 1.499 . S
C803 H804 0.959 . S
C803 H805 0.960 . S
C803 H806 0.961 . S
H804 C803 0.959 . S
H805 C803 0.960 . S
H806 C803 0.961 . S
O807 Co782 1.967 . S
O807 C815 1.258 . S
O808 Co783 1.941 . S
O808 C815 1.266 . S
H809 C811 0.959 . S
H810 C811 0.961 . S
C811 C801 1.510 . S
C811 H809 0.959 . S
C811 H810 0.961 . S
C811 H812 0.960 . S
H812 C811 0.960 . S
H813 N793 0.862 . S
O814 Co782 1.920 . S
O814 C787 1.289 . S
C815 O807 1.258 . S
C815 O808 1.266 . S
C33 C713 2.410 . S
C611 C67 2.408 1_556 S
C645 C101 2.410 . S
C679 C135 2.410 . S
C169 C815 2.409 . S
C747 C203 2.409 . S
C781 C237 2.408 1_455 S
C577 C271 2.410 . S
C305 C543 2.410 . S
C441 C339 2.410 . S
C373 C475 2.408 1_565 S
C509 C407 2.409 . S
C648 C9 3.708 . S
C43 C682 3.708 . S
C580 C77 3.706 . S
C111 C614 3.708 . S
C716 C145 3.708 . S
C750 C179 3.707 . S
C546 C213 3.705 1_554 S
C247 C784 3.707 . S
C281 C70 3.708 . S
C315 C104 3.708 . S
C349 C2 3.705 1_655 S
C36 C383 3.707 . S
C417 C206 3.706 . S
C240 C451 3.708 . S
C138 C485 3.708 . S
C172 C519 3.707 . S
C410 C553 3.708 . S
C274 C587 3.705 1_545 S
C621 C308 3.708 . S
C655 C342 3.706 . S
C376 C689 3.707 . S
C723 C478 3.708 . S
C512 C757 3.708 . S
C791 C444 3.707 . S
C20 C768 2.062 . S
C564 C54 2.062 . S
C88 C802 2.062 . S
C734 C122 2.062 . S
C156 C632 2.062 . S
C666 C190 2.062 . S
C224 C700 2.061 1_655 S
C598 C258 2.061 1_556 S
C462 C292 2.062 . S
C496 C326 2.062 . S
C360 C530 2.061 1_565 S
C394 C428 2.062 . S
C515 C5 1.334 . S
C39 C413 1.334 . S
C447 C73 1.334 . S
C481 C107 1.334 . S
C141 C311 1.334 . S
C345 C175 1.331 . S
C209 C379 1.331 . S
C277 C243 1.334 . S
C685 C549 1.334 . S
C787 C583 1.331 . S
C719 C617 1.334 . S
C753 C651 1.334 . S
