# Generated by pormake.
# Topology etb, (3)-cn, num edge types: 1
# Building blocks:
#     Node 0, Type 0, BuildingBlock: WUSLED_clean_sbu_0, # of connection points: 3
#     Node 1, Type 0, BuildingBlock: WUSLED_clean_sbu_0, # of connection points: 3
#     Node 2, Type 0, BuildingBlock: WUSLED_clean_sbu_0, # of connection points: 3
#     Node 3, Type 0, BuildingBlock: WUSLED_clean_sbu_0, # of connection points: 3
#     Node 4, Type 0, BuildingBlock: WUSLED_clean_sbu_0, # of connection points: 3
#     Node 5, Type 0, BuildingBlock: WUSLED_clean_sbu_0, # of connection points: 3
#     Node 6, Type 0, BuildingBlock: WUSLED_clean_sbu_0, # of connection points: 3
#     Node 7, Type 0, BuildingBlock: WUSLED_clean_sbu_0, # of connection points: 3
#     Node 8, Type 0, BuildingBlock: WUSLED_clean_sbu_0, # of connection points: 3
#     Node 9, Type 0, BuildingBlock: WUSLED_clean_sbu_0, # of connection points: 3
#     Node 10, Type 0, BuildingBlock: WUSLED_clean_sbu_0, # of connection points: 3
#     Node 11, Type 0, BuildingBlock: WUSLED_clean_sbu_0, # of connection points: 3
#     Node 12, Type 0, BuildingBlock: WUSLED_clean_sbu_0, # of connection points: 3
#     Node 13, Type 0, BuildingBlock: WUSLED_clean_sbu_0, # of connection points: 3
#     Node 14, Type 0, BuildingBlock: WUSLED_clean_sbu_0, # of connection points: 3
#     Node 15, Type 0, BuildingBlock: WUSLED_clean_sbu_0, # of connection points: 3
#     Node 16, Type 0, BuildingBlock: WUSLED_clean_sbu_0, # of connection points: 3
#     Node 17, Type 0, BuildingBlock: WUSLED_clean_sbu_0, # of connection points: 3
#     Edge 18, Type (0, 0), BuildingBlock: XIVTED_clean_linker_0, # of connection points: 2
#     Edge 19, Type (0, 0), BuildingBlock: XIVTED_clean_linker_0, # of connection points: 2
#     Edge 20, Type (0, 0), BuildingBlock: XIVTED_clean_linker_0, # of connection points: 2
#     Edge 21, Type (0, 0), BuildingBlock: XIVTED_clean_linker_0, # of connection points: 2
#     Edge 22, Type (0, 0), BuildingBlock: XIVTED_clean_linker_0, # of connection points: 2
#     Edge 23, Type (0, 0), BuildingBlock: XIVTED_clean_linker_0, # of connection points: 2
#     Edge 24, Type (0, 0), BuildingBlock: XIVTED_clean_linker_0, # of connection points: 2
#     Edge 25, Type (0, 0), BuildingBlock: XIVTED_clean_linker_0, # of connection points: 2
#     Edge 26, Type (0, 0), BuildingBlock: XIVTED_clean_linker_0, # of connection points: 2
#     Edge 27, Type (0, 0), BuildingBlock: XIVTED_clean_linker_0, # of connection points: 2
#     Edge 28, Type (0, 0), BuildingBlock: XIVTED_clean_linker_0, # of connection points: 2
#     Edge 29, Type (0, 0), BuildingBlock: XIVTED_clean_linker_0, # of connection points: 2
#     Edge 30, Type (0, 0), BuildingBlock: XIVTED_clean_linker_0, # of connection points: 2
#     Edge 31, Type (0, 0), BuildingBlock: XIVTED_clean_linker_0, # of connection points: 2
#     Edge 32, Type (0, 0), BuildingBlock: XIVTED_clean_linker_0, # of connection points: 2
#     Edge 33, Type (0, 0), BuildingBlock: XIVTED_clean_linker_0, # of connection points: 2
#     Edge 34, Type (0, 0), BuildingBlock: XIVTED_clean_linker_0, # of connection points: 2
#     Edge 35, Type (0, 0), BuildingBlock: XIVTED_clean_linker_0, # of connection points: 2
#     Edge 36, Type (0, 0), BuildingBlock: XIVTED_clean_linker_0, # of connection points: 2
#     Edge 37, Type (0, 0), BuildingBlock: XIVTED_clean_linker_0, # of connection points: 2
#     Edge 38, Type (0, 0), BuildingBlock: XIVTED_clean_linker_0, # of connection points: 2
#     Edge 39, Type (0, 0), BuildingBlock: XIVTED_clean_linker_0, # of connection points: 2
#     Edge 40, Type (0, 0), BuildingBlock: XIVTED_clean_linker_0, # of connection points: 2
#     Edge 41, Type (0, 0), BuildingBlock: XIVTED_clean_linker_0, # of connection points: 2
#     Edge 42, Type (0, 0), BuildingBlock: XIVTED_clean_linker_0, # of connection points: 2
#     Edge 43, Type (0, 0), BuildingBlock: XIVTED_clean_linker_0, # of connection points: 2
#     Edge 44, Type (0, 0), BuildingBlock: XIVTED_clean_linker_0, # of connection points: 2
# Relax obj value: 0.000
# Max RMSD: 0.008
# Mean RMSD: 0.006
data_MOF--net-etb--node1-WUSLED_clean_sbu_0--edge1-XIVTED_clean_linker_0
_symmetry_space_group_name_H-M    P1
_symmetry_Int_Tables_number       1
_symmetry_cell_setting            triclinic
loop_
_symmetry_equiv_pos_as_xyz
'x, y, z'
_cell_length_a     117.97126
_cell_length_b     117.52875
_cell_length_c     55.821463
_cell_angle_alpha  90.089462
_cell_angle_beta   89.815975
_cell_angle_gamma 118.35461
loop_
_atom_site_label
_atom_site_type_symbol
_atom_site_fract_x
_atom_site_fract_y
_atom_site_fract_z
_atom_type_partial_charge
C0 C 0.46724 0.01201 0.09988 0.0
C1 C 0.4553 1.00076 0.09744 0.0
C2 C 0.44835 1.00431 0.13682 0.0
C3 C 0.44598 0.99697 0.11568 0.0
C4 C 0.46022 0.01566 0.13901 0.0
C5 C 0.46954 0.01942 0.12084 0.0
U6 U 0.48377 0.02413 0.0377 0.0
O7 O 0.50423 0.03742 0.02975 0.0
O8 O 0.49526 0.01745 0.01653 0.0
C9 C 0.50596 0.02845 0.01877 0.0
C10 C 0.47781 0.01559 0.082 0.0
C11 C 0.51795 0.02781 0.0245 0.0
C12 C 0.52935 0.01572 0.03452 0.0
C13 C 0.51779 0.01628 0.03175 0.0
C14 C 0.54144 0.03825 0.02339 0.0
C15 C 0.54134 0.02667 0.0301 0.0
C16 C 0.5299 0.03879 0.02058 0.0
C17 C 0.4661 0.03308 0.98799 0.0
C18 C 0.46962 0.05052 0.96023 0.0
C19 C 0.455 0.02838 0.94949 0.0
C20 C 0.45753 0.02418 0.97134 0.0
C21 C 0.46089 0.04162 0.94371 0.0
C22 C 0.47218 0.04631 0.98208 0.0
C23 C 0.46749 0.02854 1.01219 0.0
O24 O 0.47553 1.00795 0.06335 0.0
O25 O 0.48451 0.02791 0.07654 0.0
O26 O 0.47605 0.0371 0.02675 0.0
O27 O 0.46708 0.01717 1.01341 0.0
H28 H 0.4532 0.99475 0.08163 0.0
H29 H 0.43691 0.98825 0.1132 0.0
H30 H 0.46251 0.02147 0.15512 0.0
H31 H 0.4787 0.02801 0.12346 0.0
H32 H 0.52887 1.00667 0.04003 0.0
H33 H 0.50875 1.00762 0.03489 0.0
H34 H 0.55042 0.04684 0.0195 0.0
H35 H 0.53033 0.04777 0.0147 0.0
H36 H 0.47445 0.06078 0.95633 0.0
H37 H 0.44808 0.02124 0.93747 0.0
H38 H 0.45249 0.01395 0.97548 0.0
H39 H 0.47873 0.05348 0.99451 0.0
C40 C 0.06789 0.40684 0.97047 0.0
C41 C 0.07696 0.40508 0.95668 0.0
C42 C 0.05976 0.38766 0.93392 0.0
C43 C 0.07294 0.3956 0.93869 0.0
C44 C 0.05071 0.38933 0.94795 0.0
C45 C 0.05473 0.39881 0.96587 0.0
U46 U 0.08086 0.42375 0.03196 0.0
O47 O 0.09448 0.44422 0.03951 0.0
O48 O 0.07468 0.43564 0.05322 0.0
C49 C 0.08574 0.44624 0.05057 0.0
C50 C 0.07197 0.4177 0.98793 0.0
C51 C 0.08532 0.45837 0.04455 0.0
C52 C 0.07349 0.47025 0.03618 0.0
C53 C 0.07372 0.4585 0.03926 0.0
C54 C 0.09645 0.48196 0.04312 0.0
C55 C 0.08484 0.48216 0.03832 0.0
C56 C 0.09667 0.47024 0.04625 0.0
C57 C 0.08925 0.40527 0.08094 0.0
C58 C 0.10302 0.41355 0.11608 0.0
C59 C 0.0892 0.39053 0.1116 0.0
C60 C 0.08463 0.3927 0.08991 0.0
C61 C 0.09854 0.4009 0.12496 0.0
C62 C 0.09841 0.41572 0.09429 0.0
C63 C 0.08476 0.40698 0.05713 0.0
O64 O 0.06454 0.41573 1.00677 0.0
O65 O 0.08431 0.42423 0.99307 0.0
O66 O 0.09344 0.41559 0.04277 0.0
O67 O 0.07365 0.40703 0.05649 0.0
H68 H 0.08719 0.41115 0.95947 0.0
H69 H 0.0802 0.39453 0.92849 0.0
H70 H 0.04049 0.38357 0.94462 0.0
H71 H 0.04748 0.40004 0.9758 0.0
H72 H 0.06439 0.46998 0.03221 0.0
H73 H 0.06477 0.44954 0.0379 0.0
H74 H 0.10536 0.49089 0.04526 0.0
H75 H 0.10572 0.47047 0.05064 0.0
H76 H 0.11009 0.4218 0.12596 0.0
H77 H 0.08565 0.38065 0.11754 0.0
H78 H 0.07762 0.38449 0.07985 0.0
H79 H 0.10211 0.42553 0.08777 0.0
C80 C 0.68482 0.63778 0.09522 0.0
C81 C 0.69159 0.65105 0.08988 0.0
C82 C 0.69545 0.65631 0.13254 0.0
C83 C 0.69687 0.66022 0.10835 0.0
C84 C 0.68895 0.64298 0.13763 0.0
C85 C 0.6837 0.63386 0.11921 0.0
U86 U 0.68108 0.62233 0.03193 0.0
O87 O 0.67338 0.60172 0.02278 0.0
O88 O 0.66349 0.61232 1.01014 0.0
C89 C 0.66316 0.60101 1.01202 0.0
C90 C 0.67818 0.62782 0.07657 0.0
C91 C 0.65045 0.58962 0.01762 0.0
C92 C 0.6378 0.56699 0.02966 0.0
C93 C 0.64971 0.57818 0.02706 0.0
C94 C 0.627 0.57839 1.01372 0.0
C95 C 0.62627 0.56686 0.0227 0.0
C96 C 0.63891 0.58957 1.01113 0.0
C97 C 0.70795 0.6397 0.98361 0.0
C98 C 0.71781 0.6327 0.95237 0.0
C99 C 0.71933 0.65393 0.95012 0.0
C100 C 0.71223 0.65149 0.97143 0.0
C101 C 0.72239 0.64466 0.94045 0.0
C102 C 0.71067 0.63025 0.97369 0.0
C103 C 0.70178 0.63811 1.00752 0.0
O104 O 0.67359 0.63118 0.05802 0.0
O105 O 0.68349 0.62057 0.07073 0.0
O106 O 0.70122 0.62881 0.02138 0.0
O107 O 0.69132 0.6394 1.00858 0.0
H108 H 0.6926 0.65435 0.0715 0.0
H109 H 0.70173 0.67039 0.10371 0.0
H110 H 0.68787 0.63955 0.15592 0.0
H111 H 0.67854 0.62368 0.12379 0.0
H112 H 0.63769 0.5583 0.03633 0.0
H113 H 0.65838 0.57774 0.03186 0.0
H114 H 0.61836 0.57877 1.00847 0.0
H115 H 0.63907 0.59812 1.0035 0.0
H116 H 0.71981 0.62525 0.94533 0.0
H117 H 0.7228 0.6633 0.94172 0.0
H118 H 0.7104 0.659 0.97878 0.0
H119 H 0.70751 0.62105 0.98261 0.0
C120 C 0.69934 0.03903 0.96595 0.0
C121 C 0.71241 0.04675 0.97169 0.0
C122 C 0.71855 0.04709 0.92965 0.0
C123 C 0.7219 0.05076 0.95373 0.0
C124 C 0.70546 0.03916 0.92414 0.0
C125 C 0.696 0.03521 0.94205 0.0
U126 U 0.68347 0.02693 0.02845 0.0
O127 O 0.67204 0.03351 0.05006 0.0
O128 O 0.6631 0.01353 0.03694 0.0
C129 C 0.66137 0.02247 0.048 0.0
C130 C 0.68893 0.03538 0.98402 0.0
C131 C 0.64932 0.02304 0.04248 0.0
C132 C 0.63783 0.03503 0.03237 0.0
C133 C 0.64942 0.03451 0.03503 0.0
C134 C 0.62584 0.01255 0.04399 0.0
C135 C 0.62587 0.02409 0.03708 0.0
C136 C 0.63741 0.01206 0.0467 0.0
C137 C 0.70183 0.01836 0.07714 0.0
C138 C 0.69418 1.00294 0.11022 0.0
C139 C 0.71629 0.01998 0.10961 0.0
C140 C 0.71399 0.02457 0.08802 0.0
C141 C 0.70647 1.009 0.12091 0.0
C142 C 0.69187 1.00758 0.08859 0.0
C143 C 0.70016 0.02284 0.05322 0.0
O144 O 0.68245 0.02305 0.98959 0.0
O145 O 0.69136 0.04304 1.00267 0.0
O146 O 0.70037 0.03411 0.05233 0.0
O147 O 0.69146 0.01416 0.03902 0.0
H148 H 0.71529 0.04982 0.98999 0.0
H149 H 0.73188 0.05671 0.95875 0.0
H150 H 0.70245 0.03627 0.90584 0.0
H151 H 0.68599 0.02933 0.93712 0.0
H152 H 0.63826 0.04403 0.0267 0.0
H153 H 0.65843 0.04317 0.03164 0.0
H154 H 0.61689 1.00398 0.04809 0.0
H155 H 0.63704 1.00313 0.05272 0.0
H156 H 0.68633 0.99458 0.11853 0.0
H157 H 0.72591 0.02481 0.11703 0.0
H158 H 0.72184 0.03284 0.07947 0.0
H159 H 0.68238 1.00261 0.08066 0.0
C160 C 0.0701 0.62659 0.96881 0.0
C161 C 0.07424 0.63994 0.96947 0.0
C162 C 0.06287 0.6385 0.93202 0.0
C163 C 0.07068 0.64584 0.95125 0.0
C164 C 0.05865 0.6251 0.93173 0.0
C165 C 0.06222 0.61924 0.94989 0.0
U166 U 0.08429 0.6242 0.03017 0.0
O167 O 0.07829 0.60721 0.05354 0.0
O168 O 0.09764 0.6164 0.03767 0.0
C169 C 0.08904 0.60661 0.05014 0.0
C170 C 0.07415 0.62011 0.98697 0.0
C171 C 0.08793 0.5937 0.04494 0.0
C172 C 0.07525 0.57064 0.03631 0.0
C173 C 0.07611 0.58291 0.03912 0.0
C174 C 0.09802 0.57975 0.04458 0.0
C175 C 0.08618 0.56886 0.0392 0.0
C176 C 0.09886 0.59198 0.04746 0.0
C177 C 0.09551 0.65309 0.07527 0.0
C178 C 0.09618 0.65488 0.11891 0.0
C179 C 0.10894 0.67378 0.09467 0.0
C180 C 0.10436 0.6663 0.0739 0.0
C181 C 0.10476 0.66825 0.11748 0.0
C182 C 0.09157 0.64738 0.09802 0.0
C183 C 0.08989 0.64595 0.0527 0.0
O184 O 0.08659 0.62528 0.99096 0.0
O185 O 0.06722 0.61632 1.00668 0.0
O186 O 0.07857 0.63556 0.05399 0.0
O187 O 0.09784 0.64469 0.0377 0.0
H188 H 0.08031 0.64579 0.98395 0.0
H189 H 0.074 0.65614 0.95228 0.0
H190 H 0.05283 0.61914 0.91713 0.0
H191 H 0.05897 0.60894 0.94896 0.0
H192 H 0.066 0.56253 0.03188 0.0
H193 H 0.06749 0.58388 0.03704 0.0
H194 H 0.10661 0.57879 0.0473 0.0
H195 H 0.10806 0.60008 0.05219 0.0
H196 H 0.09269 0.65029 0.13612 0.0
H197 H 0.11572 0.68396 0.0928 0.0
H198 H 0.10754 0.67095 0.05661 0.0
H199 H 0.08473 0.63721 0.09967 0.0
C200 C 0.47052 0.42444 0.09622 0.0
C201 C 0.45756 0.41669 0.08981 0.0
C202 C 0.45121 0.41311 0.13208 0.0
C203 C 0.44801 0.4111 0.10755 0.0
C204 C 0.46426 0.4207 0.1383 0.0
C205 C 0.47376 0.42629 0.12059 0.0
U206 U 0.4867 0.42813 0.03389 0.0
O207 O 0.49682 0.44565 1.01172 0.0
O208 O 0.50732 0.43587 0.02539 0.0
C209 C 0.50808 0.44602 1.01407 0.0
C210 C 0.48077 0.4312 0.07813 0.0
C211 C 0.51941 0.45883 0.01938 0.0
C212 C 0.54211 0.4716 0.03026 0.0
C213 C 0.53095 0.45962 0.02814 0.0
C214 C 0.53048 0.48235 0.01524 0.0
C215 C 0.5421 0.48314 0.02347 0.0
C216 C 0.51932 0.47038 1.01314 0.0
C217 C 0.46994 0.40087 0.98606 0.0
C218 C 0.46735 0.40031 0.94264 0.0
C219 C 0.46468 0.38118 0.96353 0.0
C220 C 0.46736 0.38792 0.98529 0.0
C221 C 0.46444 0.38721 0.94191 0.0
C222 C 0.47007 0.40707 0.96444 0.0
C223 C 0.47126 0.40717 1.00975 0.0
O224 O 0.48807 0.42588 0.07288 0.0
O225 O 0.47764 0.43577 0.05923 0.0
O226 O 0.46991 0.41765 1.01047 0.0
O227 O 0.48046 0.40783 0.02385 0.0
H228 H 0.4548 0.41506 0.07112 0.0
H229 H 0.43811 0.40518 0.10203 0.0
H230 H 0.46712 0.42265 0.1569 0.0
H231 H 0.48368 0.43228 0.12597 0.0
H232 H 0.55088 0.47175 0.03637 0.0
H233 H 0.53148 0.45094 0.03271 0.0
H234 H 0.53001 0.491 1.01014 0.0
H235 H 0.5107 0.47018 1.00603 0.0
H236 H 0.46745 0.40535 0.92635 0.0
H237 H 0.46234 0.37109 0.96382 0.0
H238 H 0.46706 0.38286 1.00169 0.0
H239 H 0.47202 0.41705 0.96439 0.0
C240 C 0.14852 0.37084 0.30385 0.0
C241 C 0.13622 0.3697 0.30722 0.0
C242 C 0.1371 0.37875 0.26733 0.0
C243 C 0.13055 0.37361 0.28911 0.0
C244 C 0.14941 0.37981 0.26419 0.0
C245 C 0.15503 0.37591 0.28222 0.0
U246 U 0.1513 0.35749 0.36618 0.0
O247 O 0.15903 0.34411 0.3742 0.0
O248 O 0.1686 0.36384 0.38856 0.0
C249 C 0.16902 0.35293 0.38584 0.0
C250 C 0.15485 0.36679 0.32226 0.0
C251 C 0.18175 0.35379 0.38027 0.0
C252 C 0.20467 0.3662 0.37079 0.0
C253 C 0.19253 0.36551 0.37375 0.0
C254 C 0.19545 0.34345 0.38027 0.0
C255 C 0.20633 0.3552 0.37422 0.0
C256 C 0.18336 0.34278 0.38331 0.0
C257 C 0.12406 0.34771 0.41417 0.0
C258 C 0.10766 0.33032 0.43834 0.0
C259 C 0.11968 0.35172 0.45526 0.0
C260 C 0.12656 0.35613 0.43374 0.0
C261 C 0.11002 0.33878 0.45781 0.0
C262 C 0.11455 0.33473 0.41682 0.0
C263 C 0.13026 0.35267 0.39039 0.0
O264 O 0.15901 0.37411 0.34145 0.0
O265 O 0.14941 0.35437 0.32715 0.0
O266 O 0.13105 0.34433 0.37566 0.0
O267 O 0.14061 0.36407 0.38993 0.0
H268 H 0.13104 0.36581 0.32382 0.0
H269 H 0.12111 0.37274 0.29229 0.0
H270 H 0.15467 0.38347 0.2476 0.0
H271 H 0.1645 0.37681 0.2792 0.0
H272 H 0.21277 0.37537 0.36583 0.0
H273 H 0.19165 0.37419 0.37128 0.0
H274 H 0.19633 0.33482 0.38341 0.0
H275 H 0.17526 0.33367 0.38859 0.0
H276 H 0.10043 0.32026 0.43965 0.0
H277 H 0.12166 0.35859 0.46965 0.0
H278 H 0.13363 0.36624 0.43229 0.0
H279 H 0.11222 0.328 0.40205 0.0
C280 C 0.73639 0.74129 0.30329 0.0
C281 C 0.74526 0.73831 0.29163 0.0
C282 C 0.72813 0.72206 0.26687 0.0
C283 C 0.74118 0.72882 0.27367 0.0
C284 C 0.71927 0.72494 0.27881 0.0
C285 C 0.72336 0.73445 0.29668 0.0
U286 U 0.74963 0.75832 0.36462 0.0
O287 O 0.76323 0.77882 0.37193 0.0
O288 O 0.74347 0.77023 0.38584 0.0
C289 C 0.7545 0.78084 0.38305 0.0
C290 C 0.74061 0.75217 0.3207 0.0
C291 C 0.75402 0.79293 0.37696 0.0
C292 C 0.74209 0.80466 0.36821 0.0
C293 C 0.74241 0.79296 0.37134 0.0
C294 C 0.76499 0.81651 0.37571 0.0
C295 C 0.75336 0.81662 0.37061 0.0
C296 C 0.7653 0.80484 0.37889 0.0
C297 C 0.758 0.74 0.41414 0.0
C298 C 0.77461 0.7459 0.44473 0.0
C299 C 0.75443 0.7262 0.449 0.0
C300 C 0.75011 0.72888 0.42747 0.0
C301 C 0.76682 0.73456 0.45779 0.0
C302 C 0.77027 0.74858 0.42313 0.0
C303 C 0.75357 0.74168 0.39014 0.0
O304 O 0.73323 0.75025 0.33959 0.0
O305 O 0.75297 0.75865 0.32571 0.0
O306 O 0.76221 0.75017 0.37554 0.0
O307 O 0.74241 0.74164 0.38926 0.0
H308 H 0.7554 0.74344 0.29609 0.0
H309 H 0.74826 0.72678 0.2651 0.0
H310 H 0.70919 0.72012 0.27387 0.0
H311 H 0.71632 0.73665 0.30499 0.0
H312 H 0.73298 0.80433 0.364 0.0
H313 H 0.73351 0.78396 0.36977 0.0
H314 H 0.77384 0.82548 0.37805 0.0
H315 H 0.77435 0.80514 0.38352 0.0
H316 H 0.78424 0.75252 0.45079 0.0
H317 H 0.74804 0.71751 0.4587 0.0
H318 H 0.74063 0.72206 0.42095 0.0
H319 H 0.77663 0.75721 0.41325 0.0
C320 C 0.34838 0.97073 0.43175 0.0
C321 C 0.36178 0.97722 0.43529 0.0
C322 C 0.35938 0.98941 0.46877 0.0
C323 C 0.36722 0.98647 0.4536 0.0
C324 C 0.346 0.98304 0.46473 0.0
C325 C 0.34059 0.97383 0.4465 0.0
U326 U 0.34559 0.95432 0.36978 0.0
O327 O 0.33826 0.93366 0.36163 0.0
O328 O 0.32824 0.94385 0.3475 0.0
C329 C 0.32813 0.93268 0.35008 0.0
C330 C 0.34211 0.96032 0.41371 0.0
C331 C 0.31545 0.92127 0.35536 0.0
C332 C 0.30203 0.90116 0.37685 0.0
C333 C 0.31382 0.91249 0.37387 0.0
C334 C 0.29321 0.90725 0.34321 0.0
C335 C 0.2916 0.89829 0.36136 0.0
C336 C 0.30496 0.91854 0.34024 0.0
C337 C 0.37259 0.97169 0.32152 0.0
C338 C 0.38733 0.96847 0.29493 0.0
C339 C 0.37963 0.98344 0.28368 0.0
C340 C 0.37239 0.98056 0.30487 0.0
C341 C 0.38739 0.97761 0.27857 0.0
C342 C 0.38007 0.96558 0.31616 0.0
C343 C 0.36629 0.97015 0.34537 0.0
O344 O 0.33745 0.96318 0.39465 0.0
O345 O 0.34776 0.95327 0.40877 0.0
O346 O 0.36588 0.9611 0.35973 0.0
O347 O 0.35568 0.97121 0.3461 0.0
H348 H 0.36802 0.97502 0.42416 0.0
H349 H 0.37755 0.99108 0.45622 0.0
H350 H 0.33965 0.9852 0.47564 0.0
H351 H 0.33023 0.96899 0.44409 0.0
H352 H 0.30125 0.89447 0.39087 0.0
H353 H 0.32171 0.91422 0.38577 0.0
H354 H 0.28537 0.90554 0.33118 0.0
H355 H 0.30594 0.92507 0.32574 0.0
H356 H 0.39328 0.96388 0.29181 0.0
H357 H 0.37925 0.99038 0.27141 0.0
H358 H 0.36688 0.98558 0.30851 0.0
H359 H 0.38065 0.95885 0.32868 0.0
C360 C 0.36637 0.37393 0.30282 0.0
C361 C 0.37373 0.36751 0.2995 0.0
C362 C 0.38533 0.38187 0.2661 0.0
C363 C 0.38311 0.37144 0.28134 0.0
C364 C 0.37809 0.38839 0.26991 0.0
C365 C 0.36873 0.38445 0.288 0.0
U366 U 0.35029 0.35979 0.36426 0.0
O367 O 0.33856 0.3655 0.38704 0.0
O368 O 0.32998 0.34591 0.37204 0.0
C369 C 0.328 0.35445 0.38405 0.0
C370 C 0.35581 0.36957 0.32071 0.0
C371 C 0.31591 0.35497 0.37871 0.0
C372 C 0.30419 0.3669 0.3699 0.0
C373 C 0.31586 0.36658 0.37271 0.0
C374 C 0.29241 0.34402 0.37855 0.0
C375 C 0.29228 0.35564 0.37298 0.0
C376 C 0.30405 0.34371 0.38143 0.0
C377 C 0.36917 0.35041 0.41052 0.0
C378 C 0.36313 0.34332 0.45181 0.0
C379 C 0.3823 0.34397 0.43468 0.0
C380 C 0.3799 0.3484 0.41303 0.0
C381 C 0.37402 0.34143 0.45447 0.0
C382 C 0.36074 0.34779 0.43003 0.0
C383 C 0.36726 0.35541 0.38745 0.0
O384 O 0.34946 0.35709 0.32516 0.0
O385 O 0.35811 0.3767 0.34008 0.0
O386 O 0.36709 0.36651 0.38812 0.0
O387 O 0.35855 0.34696 0.373 0.0
H388 H 0.3721 0.35935 0.31069 0.0
H389 H 0.38839 0.3661 0.27889 0.0
H390 H 0.37966 0.39661 0.25895 0.0
H391 H 0.36321 0.38958 0.29025 0.0
H392 H 0.3045 0.376 0.36532 0.0
H393 H 0.32483 0.37545 0.3705 0.0
H394 H 0.28349 0.33519 0.38143 0.0
H395 H 0.30378 0.33467 0.38632 0.0
H396 H 0.35658 0.34156 0.46666 0.0
H397 H 0.39062 0.34241 0.4358 0.0
H398 H 0.38649 0.3503 0.39817 0.0
H399 H 0.35239 0.34929 0.42847 0.0
C400 C 0.73888 0.96057 0.29946 0.0
C401 C 0.73694 0.97126 0.30411 0.0
C402 C 0.73079 0.97151 0.26232 0.0
C403 C 0.73295 0.9767 0.28569 0.0
C404 C 0.73293 0.96088 0.25786 0.0
C405 C 0.73691 0.9555 0.27619 0.0
U406 U 0.75207 0.95825 0.36218 0.0
O407 O 0.74568 0.94112 0.38532 0.0
O408 O 0.76531 0.95045 0.3707 0.0
C409 C 0.75649 0.94056 0.38266 0.0
C410 C 0.74274 0.95429 0.31834 0.0
C411 C 0.75552 0.92771 0.37746 0.0
C412 C 0.74303 0.90467 0.36845 0.0
C413 C 0.74379 0.91689 0.37129 0.0
C414 C 0.76573 0.91388 0.3774 0.0
C415 C 0.75398 0.90297 0.37165 0.0
C416 C 0.76647 0.92605 0.38032 0.0
C417 C 0.76251 0.98655 0.40815 0.0
C418 C 0.76145 0.98812 0.45166 0.0
C419 C 0.77695 1.00647 0.42897 0.0
C420 C 0.77258 0.99932 0.40777 0.0
C421 C 0.77133 1.00106 0.45122 0.0
C422 C 0.75707 0.98095 0.43038 0.0
C423 C 0.75728 0.97982 0.38503 0.0
O424 O 0.75511 0.95958 0.32307 0.0
O425 O 0.73548 0.95047 0.33766 0.0
O426 O 0.7459 0.96947 0.3854 0.0
O427 O 0.76547 0.97868 0.37047 0.0
H428 H 0.73841 0.97533 0.32197 0.0
H429 H 0.73132 0.98481 0.28986 0.0
H430 H 0.73164 0.95676 0.24007 0.0
H431 H 0.73842 0.94729 0.27218 0.0
H432 H 0.73385 0.89655 0.36374 0.0
H433 H 0.73515 0.91781 0.36896 0.0
H434 H 0.77433 0.91297 0.38036 0.0
H435 H 0.7756 0.93418 0.38532 0.0
H436 H 0.75679 0.98363 0.46836 0.0
H437 H 0.78473 0.01629 0.42787 0.0
H438 H 0.77692 1.0039 0.39091 0.0
H439 H 0.74925 0.97114 0.43133 0.0
C440 C 0.14968 0.74497 0.29981 0.0
C441 C 0.14124 0.7319 0.30482 0.0
C442 C 0.13812 0.72698 0.26193 0.0
C443 C 0.13554 0.72299 0.28606 0.0
C444 C 0.14653 0.74012 0.25716 0.0
C445 C 0.15221 0.74897 0.27585 0.0
U446 U 0.15328 0.75934 0.36395 0.0
O447 O 0.17085 0.76889 0.38604 0.0
O448 O 0.16099 0.77974 0.37447 0.0
C449 C 0.17115 0.78021 0.38509 0.0
C450 C 0.15635 0.7546 0.31891 0.0
C451 C 0.18386 0.79162 0.38003 0.0
C452 C 0.19744 0.81163 0.35845 0.0
C453 C 0.18563 0.80032 0.36132 0.0
C454 C 0.20602 0.80563 0.39258 0.0
C455 C 0.20777 0.81454 0.37423 0.0
C456 C 0.19422 0.79437 0.39546 0.0
C457 C 0.1262 0.74129 0.41136 0.0
C458 C 0.12019 0.74934 0.44687 0.0
C459 C 0.11178 0.72632 0.44135 0.0
C460 C 0.11861 0.72864 0.41976 0.0
C461 C 0.11236 0.73661 0.45514 0.0
C462 C 0.12705 0.75166 0.42522 0.0
C463 C 0.1324 0.74319 0.38751 0.0
O464 O 0.15111 0.76182 0.32534 0.0
O465 O 0.16076 0.75081 0.33714 0.0
O466 O 0.14285 0.74187 0.38627 0.0
O467 O 0.13313 0.75281 0.37443 0.0
H468 H 0.13911 0.72857 0.32319 0.0
H469 H 0.12902 0.71299 0.29046 0.0
H470 H 0.14895 0.74356 0.23892 0.0
H471 H 0.15876 0.75898 0.27155 0.0
H472 H 0.19832 0.81827 0.34425 0.0
H473 H 0.17782 0.79855 0.34916 0.0
H474 H 0.21377 0.80736 0.40483 0.0
H475 H 0.19313 0.78787 0.41008 0.0
H476 H 0.12101 0.75753 0.45711 0.0
H477 H 0.10574 0.71639 0.44683 0.0
H478 H 0.11773 0.72048 0.40931 0.0
H479 H 0.13286 0.76152 0.41917 0.0
C480 C 0.80382 0.67866 0.76453 0.0
C481 C 0.79093 0.67509 0.75917 0.0
C482 C 0.78506 0.67072 0.80156 0.0
C483 C 0.78164 0.67118 0.77752 0.0
C484 C 0.79806 0.67457 0.80674 0.0
C485 C 0.80729 0.67847 0.78846 0.0
U486 U 0.81895 0.69086 0.70143 0.0
O487 O 0.83932 0.70346 0.69228 0.0
O488 O 0.82949 0.68355 0.6788 0.0
C489 C 0.84046 0.69429 0.68076 0.0
C490 C 0.8138 0.68211 0.74572 0.0
C491 C 0.85209 0.69289 0.6858 0.0
C492 C 0.87078 0.69704 0.71024 0.0
C493 C 0.85922 0.69754 0.70703 0.0
C494 C 0.86812 0.68697 0.67137 0.0
C495 C 0.87547 0.69185 0.69235 0.0
C496 C 0.85662 0.68751 0.66816 0.0
C497 C 0.80125 0.70111 0.6542 0.0
C498 C 0.79982 0.69973 0.61058 0.0
C499 C 0.79494 0.71492 0.63151 0.0
C500 C 0.79757 0.71085 0.6534 0.0
C501 C 0.79586 0.70931 0.60979 0.0
C502 C 0.8025 0.69569 0.63252 0.0
C503 C 0.80276 0.69624 0.67787 0.0
O504 O 0.81064 0.67457 0.72678 0.0
O505 O 0.82056 0.69445 0.74042 0.0
O506 O 0.81183 0.70458 0.69192 0.0
O507 O 0.80188 0.68466 0.67849 0.0
H508 H 0.78802 0.67515 0.7408 0.0
H509 H 0.77173 0.66822 0.77281 0.0
H510 H 0.80114 0.6746 0.82501 0.0
H511 H 0.81718 0.68122 0.79303 0.0
H512 H 0.87606 0.70072 0.72677 0.0
H513 H 0.85598 0.70172 0.721 0.0
H514 H 0.87145 0.68306 0.65705 0.0
H515 H 0.85136 0.68395 0.65155 0.0
H516 H 0.80081 0.69531 0.59423 0.0
H517 H 0.79177 0.72219 0.63173 0.0
H518 H 0.79643 0.71512 0.66984 0.0
H519 H 0.80534 0.68818 0.6325 0.0
C520 C 0.40296 0.07543 0.63714 0.0
C521 C 0.39756 0.06231 0.64348 0.0
C522 C 0.39511 0.05605 0.60118 0.0
C523 C 0.39366 0.05272 0.62569 0.0
C524 C 0.40075 0.06924 0.59504 0.0
C525 C 0.4046 0.07878 0.6128 0.0
U526 U 0.41562 0.09152 0.69914 0.0
O527 O 0.42817 0.11208 0.70742 0.0
O528 O 0.40852 0.10219 0.7219 0.0
C529 C 0.41911 0.11324 0.71926 0.0
C530 C 0.40643 0.08577 0.65528 0.0
C531 C 0.41751 0.12484 0.71426 0.0
C532 C 0.42349 0.14504 0.69292 0.0
C533 C 0.42421 0.13352 0.69561 0.0
C534 C 0.40917 0.13931 0.72709 0.0
C535 C 0.41605 0.14816 0.70878 0.0
C536 C 0.40993 0.12784 0.72981 0.0
C537 C 0.42659 0.07401 0.74585 0.0
C538 C 0.42614 0.07292 0.78954 0.0
C539 C 0.44022 0.06707 0.76725 0.0
C540 C 0.43593 0.06983 0.74578 0.0
C541 C 0.43524 0.06836 0.78945 0.0
C542 C 0.42184 0.0757 0.76797 0.0
C543 C 0.42139 0.07552 0.72258 0.0
O544 O 0.39912 0.08286 0.67453 0.0
O545 O 0.41875 0.09281 0.65999 0.0
O546 O 0.4295 0.08457 0.70813 0.0
O547 O 0.40985 0.07463 0.72267 0.0
H548 H 0.39623 0.05945 0.66215 0.0
H549 H 0.38952 0.0427 0.63114 0.0
H550 H 0.40188 0.07221 0.57645 0.0
H551 H 0.40868 0.08882 0.60746 0.0
H552 H 0.42879 0.15153 0.67843 0.0
H553 H 0.43018 0.13155 0.68332 0.0
H554 H 0.4035 0.14141 0.73988 0.0
H555 H 0.4048 0.12143 0.74452 0.0
H556 H 0.42201 0.07396 0.80622 0.0
H557 H 0.44741 0.06384 0.7664 0.0
H558 H 0.43974 0.06844 0.72899 0.0
H559 H 0.4146 0.07888 0.76862 0.0
C560 C 1.01658 0.3037 0.76161 0.0
C561 C 0.02251 0.31703 0.75666 0.0
C562 C 0.02723 0.32209 0.79922 0.0
C563 C 0.02778 0.32612 0.77526 0.0
C564 C 0.02157 0.30873 0.8039 0.0
C565 C 1.01631 0.29968 0.78535 0.0
U566 U 1.01347 0.28828 0.6986 0.0
O567 O 1.00543 0.26769 0.68919 0.0
O568 O 0.99634 0.27887 0.67537 0.0
C569 C 0.99578 0.26745 0.67707 0.0
C570 C 1.00993 0.29378 0.74285 0.0
C571 C 0.98285 0.25618 0.68078 0.0
C572 C 0.96754 0.23742 0.70367 0.0
C573 C 0.97941 0.2488 0.70196 0.0
C574 C 0.96227 0.24083 0.6634 0.0
C575 C 0.95892 0.23314 0.6842 0.0
C576 C 0.97407 0.25217 0.66173 0.0
C577 C 0.04149 0.30509 0.65227 0.0
C578 C 0.04305 0.30873 0.60904 0.0
C579 C 0.06108 0.30932 0.63056 0.0
C580 C 0.05404 0.30664 0.65196 0.0
C581 C 0.05578 0.31062 0.60881 0.0
C582 C 0.03599 0.30602 0.6305 0.0
C583 C 0.03491 0.30368 0.6757 0.0
O584 O 1.00582 0.29734 0.72388 0.0
O585 O 1.01493 0.28619 0.73762 0.0
O586 O 0.03376 0.29417 0.6896 0.0
O587 O 0.02467 0.3054 0.67608 0.0
H588 H 0.02287 0.32044 0.73852 0.0
H589 H 0.03195 0.33629 0.77091 0.0
H590 H 0.02117 0.30522 0.82197 0.0
H591 H 1.01181 0.28947 0.78965 0.0
H592 H 0.96534 0.23173 0.71993 0.0
H593 H 0.986 0.25165 0.71696 0.0
H594 H 0.95581 0.23803 0.64822 0.0
H595 H 0.97647 0.25767 0.64522 0.0
H596 H 0.03866 0.30976 0.59276 0.0
H597 H 0.07074 0.31046 0.63113 0.0
H598 H 0.05855 0.30603 0.66845 0.0
H599 H 0.02636 0.30495 0.63009 0.0
C600 C 0.03283 0.70672 0.63328 0.0
C601 C 0.04402 0.70555 0.63667 0.0
C602 C 0.05176 0.71436 0.59661 0.0
C603 C 0.05339 0.70931 0.61848 0.0
C604 C 0.04047 0.71544 0.59344 0.0
C605 C 0.03115 0.71167 0.61155 0.0
U606 U 0.01799 0.69402 0.69616 0.0
O607 O 1.0072 0.70084 0.71925 0.0
O608 O 0.99775 0.68095 0.70558 0.0
C609 C 0.99638 0.68994 0.71731 0.0
C610 C 0.02275 0.70292 0.65192 0.0
C611 C 0.98457 0.69106 0.7125 0.0
C612 C 0.96578 0.68674 0.68821 0.0
C613 C 0.97741 0.68637 0.69131 0.0
C614 C 0.9684 0.69674 0.72714 0.0
C615 C 0.96105 0.69185 0.70618 0.0
C616 C 0.97998 0.69632 0.73025 0.0
C617 C 0.03691 0.68483 0.74243 0.0
C618 C 0.02911 0.67416 0.78095 0.0
C619 C 0.05139 0.68185 0.76961 0.0
C620 C 0.04915 0.68638 0.7479 0.0
C621 C 0.04141 0.67564 0.78648 0.0
C622 C 0.02689 0.67873 0.75914 0.0
C623 C 0.03494 0.68946 0.71899 0.0
O624 O 1.01638 0.69055 0.65719 0.0
O625 O 0.02572 0.7104 0.67092 0.0
O626 O 0.03526 0.70079 0.71886 0.0
O627 O 0.02581 0.68089 0.70534 0.0
H628 H 0.04552 0.70176 0.65335 0.0
H629 H 0.06199 0.70843 0.62168 0.0
H630 H 0.03871 0.71904 0.57678 0.0
H631 H 0.02256 0.71261 0.60852 0.0
H632 H 0.9605 0.68304 0.6717 0.0
H633 H 0.98071 0.68227 0.67726 0.0
H634 H 0.96505 0.70058 0.74152 0.0
H635 H 0.98526 0.69992 0.74682 0.0
H636 H 0.02122 0.66956 0.79355 0.0
H637 H 0.06091 0.68299 0.77292 0.0
H638 H 0.057 0.69101 0.73521 0.0
H639 H 1.01736 0.67746 0.75529 0.0
C640 C 0.40277 0.29401 0.63911 0.0
C641 C 0.40927 0.30753 0.63651 0.0
C642 C 0.39591 0.30603 0.60193 0.0
C643 C 0.40589 0.31347 0.61809 0.0
C644 C 0.3893 0.29252 0.60498 0.0
C645 C 0.3927 0.28661 0.62332 0.0
U646 U 0.41571 0.29045 0.70116 0.0
O647 O 0.40877 0.27297 0.72367 0.0
O648 O 0.42849 0.28213 0.7095 0.0
C649 C 0.41947 0.27221 0.72111 0.0
C650 C 0.40657 0.28727 0.65725 0.0
C651 C 0.41806 0.25918 0.71586 0.0
C652 C 0.42405 0.24485 0.69382 0.0
C653 C 0.42467 0.257 0.69686 0.0
C654 C 0.41002 0.23676 0.72834 0.0
C655 C 0.4168 0.23458 0.70966 0.0
C656 C 0.41067 0.24889 0.73141 0.0
C657 C 0.4253 0.31783 0.74901 0.0
C658 C 0.44244 0.32896 0.77829 0.0
C659 C 0.42168 0.32797 0.7843 0.0
C660 C 0.41722 0.32088 0.76306 0.0
C661 C 0.43442 0.33229 0.79207 0.0
C662 C 0.43795 0.32184 0.75698 0.0
C663 C 0.42066 0.3116 0.72524 0.0
O664 O 0.41892 0.29234 0.66216 0.0
O665 O 0.39919 0.28301 0.67635 0.0
O666 O 0.40923 0.30134 0.72471 0.0
O667 O 0.42904 0.31063 0.71092 0.0
H668 H 0.41705 0.31348 0.64853 0.0
H669 H 0.4111 0.3239 0.61652 0.0
H670 H 0.38171 0.28644 0.59278 0.0
H671 H 0.38759 0.27617 0.62489 0.0
H672 H 0.42927 0.24352 0.67905 0.0
H673 H 0.43048 0.26472 0.68455 0.0
H674 H 0.40449 0.2292 0.74112 0.0
H675 H 0.40561 0.25032 0.74637 0.0
H676 H 0.45233 0.3322 0.78352 0.0
H677 H 0.41513 0.33012 0.79458 0.0
H678 H 0.40746 0.31801 0.75733 0.0
H679 H 0.4445 0.31977 0.74652 0.0
C680 C 0.80267 0.09205 0.75777 0.0
C681 C 0.7978 0.0791 0.76504 0.0
C682 C 0.78391 0.08166 0.79486 0.0
C683 C 0.78852 0.07397 0.78334 0.0
C684 C 0.7886 0.09451 0.78707 0.0
C685 C 0.79787 0.09963 0.76884 0.0
U686 U 0.81957 0.09477 0.69632 0.0
O687 O 0.83099 0.11219 0.67465 0.0
O688 O 0.84012 0.10114 0.6889 0.0
C689 C 0.84173 0.1115 0.6772 0.0
C690 C 0.81333 0.09821 0.74008 0.0
C691 C 0.85365 0.12372 0.6823 0.0
C692 C 0.86488 0.14614 0.69596 0.0
C693 C 0.85349 0.13432 0.69374 0.0
C694 C 0.87676 0.13683 0.67596 0.0
C695 C 0.87664 0.14763 0.68668 0.0
C696 C 0.86543 0.12507 0.6738 0.0
C697 C 0.80234 0.0683 0.6473 0.0
C698 C 0.80471 0.05268 0.62163 0.0
C699 C 0.79259 0.06311 0.60751 0.0
C700 C 0.79505 0.07 0.62909 0.0
C701 C 0.79725 0.05423 0.60355 0.0
C702 C 0.80719 0.05959 0.64321 0.0
C703 C 0.80355 0.07445 0.67122 0.0
O704 O 0.82011 0.09225 0.7353 0.0
O705 O 0.81102 0.10332 0.721 0.0
O706 O 0.80302 0.08538 0.67185 0.0
O707 O 0.81208 0.07432 0.68618 0.0
H708 H 0.80132 0.073 0.75693 0.0
H709 H 0.78524 0.06407 0.78893 0.0
H710 H 0.78514 0.10068 0.7951 0.0
H711 H 0.80146 0.10964 0.76364 0.0
H712 H 0.86439 0.15424 0.70421 0.0
H713 H 0.84453 0.13357 0.70045 0.0
H714 H 0.88563 0.13749 0.66902 0.0
H715 H 0.86582 0.11705 0.66492 0.0
H716 H 0.8086 0.04606 0.61918 0.0
H717 H 0.78665 0.06444 0.59425 0.0
H718 H 0.79093 0.07641 0.63174 0.0
H719 H 0.81269 0.05787 0.65688 0.0
H720 H 0.62115 0.044 0.05067 0.0
H721 H 0.54607 1.00677 0.01634 0.0
H722 H 0.60226 1.00565 0.02024 0.0
H723 H 0.56491 0.04499 0.04731 0.0
H724 H 0.56646 1.00611 0.01793 0.0
H725 H 0.60074 0.04463 0.04914 0.0
C726 C 0.61276 0.03574 0.04345 0.0
C727 C 0.61352 0.02475 0.03555 0.0
C728 C 0.56614 0.01464 0.02442 0.0
C729 C 0.58993 0.02535 0.03407 0.0
C730 C 0.55444 0.01499 0.02369 0.0
C731 C 0.55368 0.02596 0.03171 0.0
C732 C 0.57725 0.02533 0.03326 0.0
C733 C 0.565 0.03639 0.04062 0.0
C734 C 0.60105 0.03607 0.04276 0.0
C735 C 0.60217 0.01428 0.02682 0.0
N736 N 0.57626 0.03581 0.04114 0.0
N737 N 0.5909 0.01484 0.02631 0.0
H738 H 0.10269 0.50486 0.01718 0.0
H739 H 0.06675 0.54553 0.05526 0.0
H740 H 0.06642 0.48835 0.05512 0.0
H741 H 0.10349 0.5621 0.019 0.0
H742 H 0.06588 0.52433 0.05353 0.0
H743 H 0.10266 0.52563 0.0162 0.0
C744 C 0.09471 0.50557 0.02535 0.0
C745 C 0.08457 0.49475 0.03636 0.0
C746 C 0.07412 0.53259 0.04588 0.0
C747 C 0.08444 0.51866 0.03511 0.0
C748 C 0.07458 0.54472 0.04671 0.0
C749 C 0.08523 0.55572 0.03732 0.0
C750 C 0.08436 0.53135 0.03553 0.0
C751 C 0.09517 0.554 0.02681 0.0
C752 C 0.09468 0.51746 0.02468 0.0
C753 C 0.0744 0.49632 0.04621 0.0
N754 N 0.0945 0.5421 0.02625 0.0
N755 N 0.07462 0.50802 0.04544 0.0
H756 H 0.55048 0.50308 0.99092 0.0
H757 H 0.61747 0.54779 0.05738 0.0
H758 H 0.56168 0.49221 0.05697 0.0
H759 H 0.60615 0.55793 0.99067 0.0
H760 H 0.59702 0.52766 0.05814 0.0
H761 H 0.57052 0.52349 0.99141 0.0
C762 C 0.55707 0.505 1.00569 0.0
C763 C 0.55426 0.49582 0.02398 0.0
C764 C 0.599 0.53431 0.04336 0.0
C765 C 0.57751 0.51929 0.02443 0.0
C766 C 0.61073 0.54581 0.04285 0.0
C767 C 0.61363 0.55467 0.02393 0.0
C768 C 0.59004 0.53156 0.02481 0.0
C769 C 0.60434 0.55156 1.00583 0.0
C770 C 0.5686 0.51667 1.00585 0.0
C771 C 0.56342 0.49886 0.04233 0.0
N772 N 0.59304 0.5403 1.00671 0.0
N773 N 0.57459 0.5103 0.04208 0.0
H774 H 0.26942 0.3375 0.35316 0.0
H775 H 0.22977 0.37478 0.38917 0.0
H776 H 0.28649 0.37457 0.38863 0.0
H777 H 0.21272 0.33737 0.35495 0.0
H778 H 0.25078 0.37541 0.38735 0.0
H779 H 0.24882 0.33773 0.35225 0.0
C780 C 0.26887 0.3457 0.36081 0.0
C781 C 0.27979 0.35601 0.3711 0.0
C782 C 0.24246 0.36708 0.38016 0.0
C783 C 0.25608 0.35637 0.36993 0.0
C784 C 0.23043 0.36674 0.38104 0.0
C785 C 0.21936 0.35599 0.37225 0.0
C786 C 0.24351 0.35659 0.37038 0.0
C787 C 0.22089 0.34579 0.36229 0.0
C788 C 0.25708 0.34584 0.36017 0.0
C789 C 0.27843 0.36646 0.38029 0.0
N790 N 0.23269 0.34634 0.36167 0.0
N791 N 0.26682 0.36634 0.37958 0.0
H792 H 0.73454 0.8795 0.38715 0.0
H793 H 0.77122 0.83944 0.34986 0.0
H794 H 0.77157 0.89646 0.35187 0.0
H795 H 0.7347 0.82256 0.38696 0.0
H796 H 0.77102 0.86013 0.34888 0.0
H797 H 0.73384 0.85838 0.38533 0.0
C798 C 0.74247 0.8788 0.37879 0.0
C799 C 0.75315 0.88987 0.36971 0.0
C800 C 0.76302 0.85189 0.35717 0.0
C801 C 0.75247 0.8656 0.36783 0.0
C802 C 0.76315 0.84005 0.35785 0.0
C803 C 0.75299 0.82916 0.36862 0.0
C804 C 0.75266 0.85297 0.36738 0.0
C805 C 0.7427 0.83059 0.37824 0.0
C806 C 0.74211 0.86671 0.37791 0.0
C807 C 0.76322 0.88829 0.35944 0.0
N808 N 0.74283 0.84225 0.37748 0.0
N809 N 0.76264 0.87643 0.35883 0.0
H810 H 0.27899 0.88543 0.40253 0.0
H811 H 0.22056 0.82726 0.33309 0.0
H812 H 0.27583 0.88271 0.32548 0.0
H813 H 0.22346 0.83018 0.41015 0.0
H814 H 0.24073 0.84753 0.32998 0.0
H815 H 0.25884 0.86513 0.40568 0.0
C816 C 0.27412 0.88057 0.38624 0.0
C817 C 0.2792 0.88591 0.36369 0.0
C818 C 0.23696 0.84373 0.34758 0.0
C819 C 0.25592 0.86257 0.36721 0.0
C820 C 0.22537 0.83216 0.34939 0.0
C821 C 0.2202 0.82689 0.37194 0.0
C822 C 0.24353 0.85019 0.36845 0.0
C823 C 0.22709 0.83368 0.39236 0.0
C824 C 0.26254 0.86898 0.38807 0.0
C825 C 0.27226 0.87916 0.34329 0.0
N826 N 0.23833 0.84493 0.39012 0.0
N827 N 0.26103 0.86789 0.34554 0.0
H828 H 0.93854 0.67301 0.68639 0.0
H829 H 0.89799 0.71066 0.71213 0.0
H830 H 0.95457 0.71058 0.71983 0.0
H831 H 0.88191 0.67306 0.67878 0.0
H832 H 0.91867 0.7107 0.71545 0.0
H833 H 0.91783 0.67294 0.68311 0.0
C834 C 0.93777 0.68131 0.69288 0.0
C835 C 0.94841 0.69183 0.70342 0.0
C836 C 0.91062 0.70242 0.70743 0.0
C837 C 0.92453 0.69172 0.69998 0.0
C838 C 0.89874 0.70234 0.70568 0.0
C839 C 0.8881 0.69183 0.69515 0.0
C840 C 0.91196 0.69191 0.69862 0.0
C841 C 0.88983 0.68146 0.68675 0.0
C842 C 0.92588 0.68122 0.69115 0.0
C843 C 0.94665 0.70218 0.71186 0.0
N844 N 0.90149 0.68177 0.68866 0.0
N845 N 0.93499 0.70186 0.70995 0.0
H846 H 0.43676 0.22969 0.69758 0.0
H847 H 0.39548 0.15285 0.71553 0.0
H848 H 0.39643 0.21016 0.71648 0.0
H849 H 0.43595 0.1723 0.6977 0.0
H850 H 0.39549 0.17364 0.7144 0.0
H851 H 0.43643 0.20874 0.69558 0.0
C852 C 0.42779 0.22101 0.70108 0.0
C853 C 0.41661 0.22179 0.70728 0.0
C854 C 0.40437 0.17337 0.71065 0.0
C855 C 0.41621 0.19764 0.70529 0.0
C856 C 0.40439 0.16148 0.71141 0.0
C857 C 0.41575 0.16074 0.70681 0.0
C858 C 0.41579 0.18472 0.70531 0.0
C859 C 0.42692 0.1723 0.70113 0.0
C860 C 0.42763 0.20903 0.70009 0.0
C861 C 0.40534 0.21013 0.71198 0.0
N862 N 0.42667 0.18377 0.70065 0.0
N863 N 0.40545 0.1986 0.71094 0.0
H864 H 0.94836 0.21511 0.64846 0.0
H865 H 0.88579 0.1659 0.72291 0.0
H866 H 0.94166 0.22216 0.7217 0.0
H867 H 0.89494 0.1587 0.65146 0.0
H868 H 0.90567 0.18672 0.72289 0.0
H869 H 0.92843 0.19469 0.64937 0.0
C870 C 0.94266 0.21243 0.66473 0.0
C871 C 0.94673 0.2205 0.68498 0.0
C872 C 0.90332 0.18055 0.70726 0.0
C873 C 0.92374 0.19682 0.68624 0.0
C874 C 0.89192 0.16869 0.70719 0.0
C875 C 0.88865 0.16042 0.68721 0.0
C876 C 0.9115 0.18428 0.68712 0.0
C877 C 0.8971 0.16457 0.66746 0.0
C878 C 0.93127 0.20067 0.66528 0.0
C879 C 0.93899 0.21625 0.70569 0.0
N880 N 0.90805 0.17614 0.66793 0.0
N881 N 0.92787 0.20475 0.70576 0.0
H882 H 0.40132 1.00187 0.259 0.0
H883 H 0.43292 0.97959 0.1536 0.0
H884 H 0.39313 0.9623 0.24856 0.0
H885 H 0.44172 0.01919 0.16591 0.0
H886 H 0.41772 0.97291 0.18716 0.0
H887 H 0.41548 1.00816 0.22405 0.0
C888 C 0.40238 0.99445 0.24926 0.0
C889 C 0.39591 0.98149 0.25685 0.0
C890 C 0.42295 0.98306 0.18249 0.0
C891 C 0.4124 0.98874 0.21669 0.0
C892 C 0.43159 0.98689 0.16318 0.0
C893 C 0.43869 1.00001 0.1568 0.0
C894 C 0.4213 0.99239 0.19562 0.0
C895 C 0.43664 1.009 0.17026 0.0
C896 C 0.41057 0.99809 0.22933 0.0
C897 C 0.39797 0.97242 0.24363 0.0
N898 N 0.42818 1.00503 0.18895 0.0
N899 N 0.406 0.97621 0.22426 0.0
H900 H 0.14895 0.39975 0.23728 0.0
H901 H 0.08563 0.38273 0.16 0.0
H902 H 0.11173 0.3673 0.25254 0.0
H903 H 0.12351 0.41324 0.14173 0.0
H904 H 0.09468 0.37783 0.19538 0.0
H905 H 0.13948 0.40566 0.20387 0.0
C906 C 0.13878 0.39383 0.23362 0.0
C907 C 0.13119 0.38291 0.24777 0.0
C908 C 0.10101 0.38563 0.18369 0.0
C909 C 0.1202 0.38978 0.20941 0.0
C910 C 0.09586 0.38841 0.16335 0.0
C911 C 0.1038 0.39839 0.14759 0.0
C912 C 0.11425 0.39285 0.18849 0.0
C913 C 0.11694 0.40555 0.15335 0.0
C914 C 0.13336 0.39727 0.21455 0.0
C915 C 0.11799 0.37584 0.24234 0.0
N916 N 0.12174 0.40261 0.17319 0.0
N917 N 0.11295 0.37935 0.22358 0.0
H918 H 0.7404 0.72296 0.2242 0.0
H919 H 0.68401 0.65538 0.17599 0.0
H920 H 0.70586 0.69877 0.26418 0.0
H921 H 0.71808 0.67948 0.13476 0.0
H922 H 0.69216 0.67104 0.2086 0.0
H923 H 0.73276 0.70707 0.1917 0.0
C924 C 0.73126 0.71427 0.22629 0.0
C925 C 0.72378 0.71227 0.2471 0.0
C926 C 0.69788 0.67292 0.19245 0.0
C927 C 0.71489 0.69402 0.20963 0.0
C928 C 0.69326 0.66391 0.1738 0.0
C929 C 0.70038 0.666 0.15249 0.0
C930 C 0.70975 0.68421 0.18998 0.0
C931 C 0.71218 0.67746 0.15068 0.0
C932 C 0.72686 0.70523 0.2076 0.0
C933 C 0.71191 0.70087 0.24845 0.0
N934 N 0.7165 0.68609 0.16916 0.0
N935 N 0.70786 0.69223 0.23005 0.0
H936 H 0.07061 0.38986 0.88918 0.0
H937 H 1.01688 0.32004 0.84426 0.0
H938 H 0.03895 0.36317 0.93306 0.0
H939 H 0.04882 0.34616 0.80028 0.0
H940 H 0.02502 0.33566 0.87696 0.0
H941 H 0.06305 0.37399 0.85669 0.0
C942 C 0.06213 0.38063 0.89212 0.0
C943 C 0.05544 0.37791 0.91405 0.0
C944 C 0.03028 0.33799 0.86018 0.0
C945 C 0.0466 0.35967 0.87657 0.0
C946 C 0.02567 0.32901 0.84147 0.0
C947 C 0.03217 0.33168 0.81934 0.0
C948 C 0.04151 0.34984 0.85694 0.0
C949 C 0.04338 0.34367 0.81683 0.0
C950 C 0.05777 0.37159 0.87344 0.0
C951 C 0.04437 0.36582 0.91647 0.0
N952 N 0.04768 0.35226 0.83536 0.0
N953 N 0.04032 0.3572 0.89803 0.0
H954 H 0.78316 0.65541 0.84015 0.0
H955 H 0.72253 0.65816 0.89991 0.0
H956 H 0.76436 0.67535 0.80797 0.0
H957 H 0.74162 0.63827 0.93122 0.0
H958 H 0.73724 0.66404 0.86562 0.0
H959 H 0.76761 0.6486 0.87296 0.0
C960 C 0.7758 0.65842 0.83999 0.0
C961 C 0.7752 0.6661 0.82123 0.0
C962 C 0.73817 0.65834 0.87994 0.0
C963 C 0.75713 0.65814 0.85894 0.0
C964 C 0.7298 0.65502 0.89963 0.0
C965 C 0.7308 0.6477 0.91866 0.0
C966 C 0.7477 0.65439 0.87917 0.0
C967 C 0.74032 0.64377 0.91695 0.0
C968 C 0.76685 0.65445 0.85873 0.0
C969 C 0.7652 0.6694 0.82189 0.0
N970 N 0.7484 0.6472 0.8977 0.0
N971 N 0.75662 0.66547 0.84044 0.0
H972 H 0.45743 0.06296 0.9363 0.0
H973 H 0.43971 0.04774 0.79713 0.0
H974 H 0.4568 0.0305 0.89892 0.0
H975 H 0.43985 0.08013 0.83389 0.0
H976 H 0.44637 0.04162 0.83413 0.0
H977 H 0.45152 0.06974 0.89903 0.0
C978 C 0.45617 0.0573 0.92024 0.0
C979 C 0.45764 0.04611 0.9209 0.0
C980 C 0.44497 0.05009 0.83415 0.0
C981 C 0.45068 0.05377 0.87803 0.0
C982 C 0.44124 0.05366 0.81291 0.0
C983 C 0.43926 0.06455 0.81219 0.0
C984 C 0.44677 0.05742 0.85505 0.0
C985 C 0.44113 0.07161 0.83353 0.0
C986 C 0.45269 0.06114 0.89897 0.0
C987 C 0.45563 0.03908 0.89949 0.0
N988 N 0.44479 0.06794 0.85401 0.0
N989 N 0.45227 0.04303 0.87903 0.0
H990 H 0.78309 0.09419 0.83602 0.0
H991 H 0.72016 0.03383 0.8901 0.0
H992 H 0.76322 0.05722 0.80052 0.0
H993 H 0.73978 0.0711 0.92458 0.0
H994 H 0.73603 0.042 0.85765 0.0
H995 H 0.76753 0.08574 0.86881 0.0
C996 C 0.77541 0.08431 0.83497 0.0
C997 C 0.77449 0.07646 0.81522 0.0
C998 C 0.73689 0.04839 0.87234 0.0
C999 C 0.75663 0.06661 0.85322 0.0
C1000 C 0.72777 0.04374 0.89088 0.0
C1001 C 0.72855 0.05177 0.91022 0.0
C1002 C 0.7469 0.0612 0.87297 0.0
C1003 C 0.73882 0.06447 0.91029 0.0
C1004 C 0.76656 0.07946 0.85387 0.0
C1005 C 0.76445 0.06363 0.81536 0.0
N1006 N 0.74753 0.06878 0.89198 0.0
N1007 N 0.75592 0.05914 0.83396 0.0
H1008 H 0.02553 0.65303 0.81034 0.0
H1009 H 0.07786 0.66213 0.91056 0.0
H1010 H 0.06298 0.68665 0.81511 0.0
H1011 H 0.0399 0.62912 0.90751 0.0
H1012 H 0.07228 0.67161 0.87662 0.0
H1013 H 0.03028 0.64451 0.84672 0.0
C1014 C 0.03471 0.6587 0.81911 0.0
C1015 C 0.04388 0.67058 0.80941 0.0
C1016 C 0.06514 0.66231 0.88342 0.0
C1017 C 0.04946 0.66074 0.85113 0.0
C1018 C 0.0683 0.65691 0.90297 0.0
C1019 C 0.05938 0.64474 0.91201 0.0
C1020 C 0.05296 0.65553 0.87267 0.0
C1021 C 0.04721 0.63841 0.90101 0.0
C1022 C 0.03745 0.65377 0.83985 0.0
C1023 C 0.05567 0.67736 0.82156 0.0
N1024 N 0.04438 0.64384 0.88196 0.0
N1025 N 0.05812 0.67234 0.84165 0.0
H1026 H 0.44937 0.38845 0.90553 0.0
H1027 H 0.45088 0.3319 0.8268 0.0
H1028 H 0.47068 0.36864 0.92586 0.0
H1029 H 0.42936 0.35168 0.80754 0.0
H1030 H 0.45873 0.34558 0.8625 0.0
H1031 H 0.44256 0.37551 0.86897 0.0
C1032 C 0.45275 0.38148 0.90225 0.0
C1033 C 0.46065 0.3797 0.91896 0.0
C1034 C 0.45229 0.34692 0.85046 0.0
C1035 C 0.45267 0.3646 0.87699 0.0
C1036 C 0.44783 0.33914 0.82996 0.0
C1037 C 0.43936 0.34054 0.81404 0.0
C1038 C 0.4483 0.35624 0.85517 0.0
C1039 C 0.43568 0.35003 0.81939 0.0
C1040 C 0.44875 0.374 0.88138 0.0
C1041 C 0.46447 0.37029 0.91374 0.0
N1042 N 0.44015 0.35747 0.8394 0.0
N1043 N 0.46045 0.36311 0.8933 0.0
H1044 H 0.13386 0.70178 0.25844 0.0
H1045 H 0.10774 0.6927 0.12339 0.0
H1046 H 0.12896 0.73071 0.21903 0.0
H1047 H 0.1114 0.66282 0.16192 0.0
H1048 H 0.11522 0.70648 0.15873 0.0
H1049 H 0.12515 0.68709 0.22417 0.0
C1050 C 0.13086 0.70503 0.24271 0.0
C1051 C 0.13225 0.7176 0.2417 0.0
C1052 C 0.1144 0.69691 0.15954 0.0
C1053 C 0.12237 0.7008 0.20218 0.0
C1054 C 0.11019 0.68904 0.13923 0.0
C1055 C 0.10903 0.67656 0.13945 0.0
C1056 C 0.11752 0.69239 0.18046 0.0
C1057 C 0.11207 0.67231 0.16086 0.0
C1058 C 0.12595 0.69664 0.22307 0.0
C1059 C 0.12832 0.72124 0.22061 0.0
N1060 N 0.11622 0.68021 0.18042 0.0
N1061 N 0.12362 0.71293 0.20179 0.0
H1062 H 0.40914 0.38272 0.26567 0.0
H1063 H 0.42693 0.41101 0.13194 0.0
H1064 H 0.38365 0.39012 0.22073 0.0
H1065 H 0.45221 0.40285 0.17596 0.0
H1066 H 0.4108 0.40289 0.1639 0.0
H1067 H 0.42481 0.38956 0.23285 0.0
C1068 C 0.40677 0.3857 0.2489 0.0
C1069 C 0.39501 0.38587 0.24615 0.0
C1070 C 0.41986 0.40284 0.16657 0.0
C1071 C 0.41307 0.39387 0.20839 0.0
C1072 C 0.42907 0.4074 0.1482 0.0
C1073 C 0.44103 0.40767 0.15113 0.0
C1074 C 0.42254 0.39846 0.18817 0.0
C1075 C 0.44325 0.40304 0.17291 0.0
C1076 C 0.41578 0.38968 0.23017 0.0
C1077 C 0.39264 0.39002 0.22397 0.0
N1078 N 0.43414 0.39866 0.19053 0.0
N1079 N 0.40156 0.39385 0.20605 0.0
H1080 H 0.72171 0.02228 0.15933 0.0
H1081 H 0.71321 0.95846 0.22688 0.0
H1082 H 0.69768 0.98351 0.13344 0.0
H1083 H 0.73803 0.9971 0.25253 0.0
H1084 H 0.70677 0.96752 0.19356 0.0
H1085 H 0.72711 0.01333 0.19436 0.0
C1086 C 0.71756 0.01189 0.16095 0.0
C1087 C 0.70924 1.00367 0.1432 0.0
C1088 C 0.71361 0.97404 0.20648 0.0
C1089 C 0.71535 0.99332 0.18359 0.0
C1090 C 0.71736 0.96887 0.22551 0.0
C1091 C 0.7263 0.977 0.24257 0.0
C1092 C 0.71879 0.9875 0.20428 0.0
C1093 C 0.73107 0.99042 0.23999 0.0
C1094 C 0.72061 1.00678 0.18107 0.0
C1095 C 0.70401 0.99026 0.14666 0.0
N1096 N 0.72731 0.99523 0.22119 0.0
N1097 N 0.70719 0.98554 0.16632 0.0
H1098 H 0.11801 0.34545 0.50451 0.0
H1099 H 0.04801 0.30217 0.56255 0.0
H1100 H 0.08409 0.3218 0.46283 0.0
H1101 H 0.08162 0.32764 0.60335 0.0
H1102 H 0.06109 0.30873 0.52601 0.0
H1103 H 0.10493 0.3385 0.54094 0.0
C1104 C 0.10781 0.33883 0.50294 0.0
C1105 C 0.10221 0.33426 0.48038 0.0
C1106 C 0.06561 0.31286 0.54297 0.0
C1107 C 0.08709 0.32611 0.52234 0.0
C1108 C 0.05811 0.30917 0.56389 0.0
C1109 C 0.06366 0.31431 0.58625 0.0
C1110 C 0.0788 0.3218 0.54427 0.0
C1111 C 0.0769 0.32321 0.5867 0.0
C1112 C 0.10034 0.33481 0.52383 0.0
C1113 C 0.08893 0.32549 0.47973 0.0
N1114 N 0.08396 0.32666 0.56612 0.0
N1115 N 0.08186 0.32174 0.50031 0.0
H1116 H 0.7826 0.69373 0.57184 0.0
H1117 H 0.78175 0.75076 0.49399 0.0
H1118 H 0.80069 0.73358 0.59474 0.0
H1119 H 0.76304 0.71068 0.47254 0.0
H1120 H 0.78939 0.74488 0.53028 0.0
H1121 H 0.77606 0.69997 0.53477 0.0
C1122 C 0.78533 0.70382 0.56902 0.0
C1123 C 0.79224 0.71312 0.5866 0.0
C1124 C 0.7836 0.73737 0.51763 0.0
C1125 C 0.78457 0.72035 0.54403 0.0
C1126 C 0.77928 0.74074 0.4968 0.0
C1127 C 0.77165 0.73122 0.48009 0.0
C1128 C 0.78034 0.72438 0.52187 0.0
C1129 C 0.76869 0.71835 0.48499 0.0
C1130 C 0.78149 0.70737 0.54786 0.0
C1131 C 0.79524 0.72602 0.58194 0.0
N1132 N 0.77302 0.71534 0.50534 0.0
N1133 N 0.7914 0.72923 0.56118 0.0
H1134 H 0.34949 0.98808 0.51402 0.0
H1135 H 0.40645 0.05645 0.55768 0.0
H1136 H 0.38216 0.01243 0.46978 0.0
H1137 H 0.37315 0.0324 0.60078 0.0
H1138 H 0.39815 0.04021 0.52588 0.0
H1139 H 0.35838 1.0039 0.5463 0.0
C1140 C 0.35851 0.99678 0.51098 0.0
C1141 C 0.365 0.9989 0.48891 0.0
C1142 C 0.39267 0.03846 0.54231 0.0
C1143 C 0.37539 0.01712 0.52624 0.0
C1144 C 0.39738 0.04778 0.5605 0.0
C1145 C 0.3905 0.04589 0.58206 0.0
C1146 C 0.38094 0.0271 0.54554 0.0
C1147 C 0.3789 0.03429 0.58468 0.0
C1148 C 0.36363 1.0058 0.52956 0.0
C1149 C 0.37682 1.01028 0.48644 0.0
N1150 N 0.37449 0.0254 0.56667 0.0
N1151 N 0.38159 0.01895 0.50479 0.0
H1152 H 0.77799 0.02674 0.4569 0.0
H1153 H 0.79123 0.02864 0.59817 0.0
H1154 H 0.77411 0.99368 0.49692 0.0
H1155 H 0.79563 0.06168 0.5574 0.0
H1156 H 0.78534 0.0158 0.56139 0.0
H1157 H 0.78475 0.03966 0.49343 0.0
C1158 C 0.77865 0.02219 0.4733 0.0
C1159 C 0.7755 1.00904 0.47362 0.0
C1160 C 0.78761 0.02586 0.56047 0.0
C1161 C 0.78312 0.02388 0.51594 0.0
C1162 C 0.79108 0.03326 0.58149 0.0
C1163 C 0.79397 0.04633 0.58105 0.0
C1164 C 0.787 0.03152 0.53868 0.0
C1165 C 0.79334 0.05163 0.55881 0.0
C1166 C 0.78244 0.02959 0.49426 0.0
C1167 C 0.7763 1.0037 0.49571 0.0
N1168 N 0.78994 0.04423 0.53862 0.0
N1169 N 0.78003 0.01113 0.51589 0.0
H1170 H 0.10727 0.71793 0.4895 0.0
H1171 H 0.05994 0.7353 0.56639 0.0
H1172 H 0.09929 0.74919 0.47209 0.0
H1173 H 0.06624 0.70279 0.58197 0.0
H1174 H 0.07519 0.74117 0.53315 0.0
H1175 H 0.09325 0.71294 0.52458 0.0
C1176 C 0.10258 0.72376 0.49298 0.0
C1177 C 0.10447 0.73398 0.47757 0.0
C1178 C 0.07327 0.73276 0.54386 0.0
C1179 C 0.08839 0.72833 0.5181 0.0
C1180 C 0.06448 0.72935 0.56283 0.0
C1181 C 0.06164 0.71843 0.57704 0.0
C1182 C 0.07936 0.72525 0.53886 0.0
C1183 C 0.06814 0.71132 0.57172 0.0
C1184 C 0.0946 0.72092 0.51314 0.0
C1185 C 0.09828 0.74131 0.48346 0.0
N1186 N 0.07662 0.71481 0.55305 0.0
N1187 N 0.0905 0.73831 0.50311 0.0
H1188 H 0.357 0.3231 0.48589 0.0
H1189 H 0.41237 0.32635 0.57344 0.0
H1190 H 0.3975 0.34929 0.47606 0.0
H1191 H 0.37198 0.29978 0.58348 0.0
H1192 H 0.40693 0.33557 0.53896 0.0
H1193 H 0.36209 0.31517 0.52272 0.0
C1194 C 0.36695 0.32728 0.49152 0.0
C1195 C 0.37683 0.33685 0.47762 0.0
C1196 C 0.39924 0.32775 0.54874 0.0
C1197 C 0.38276 0.32768 0.51983 0.0
C1198 C 0.40234 0.32252 0.5686 0.0
C1199 C 0.39265 0.31221 0.5815 0.0
C1200 C 0.38633 0.32268 0.54156 0.0
C1201 C 0.37983 0.30757 0.57396 0.0
C1202 C 0.36986 0.32268 0.51252 0.0
C1203 C 0.38956 0.34175 0.48584 0.0
N1204 N 0.37706 0.31281 0.55452 0.0
N1205 N 0.39214 0.33711 0.50627 0.0
loop_
_geom_bond_atom_site_label_1
_geom_bond_atom_site_label_2
_geom_bond_distance
_geom_bond_site_symmetry_2
_ccdc_geom_bond_type
C0 C1 1.264 . S
C0 C5 1.479 . S
C0 C10 1.465 . S
C1 C0 1.264 . S
C1 C3 1.339 . S
C1 H28 0.931 . S
C2 C3 1.395 1_565 S
C2 C4 1.320 . S
C3 C1 1.339 . S
C3 C2 1.395 1_545 S
C3 H29 0.929 . S
C4 C2 1.320 . S
C4 C5 1.405 1_565 S
C4 H30 0.930 . S
C5 C0 1.479 . S
C5 C4 1.405 1_545 S
C5 H31 0.931 . S
U6 O7 2.454 . S
U6 O8 2.458 . S
U6 C9 2.984 . S
U6 C10 2.847 . S
U6 C23 2.882 1_554 S
U6 O24 2.441 . S
U6 O25 2.420 . S
U6 O26 2.455 1_554 S
U6 O27 2.449 . S
O7 U6 2.454 . S
O7 C9 1.353 . S
O8 U6 2.458 . S
O8 C9 1.286 . S
C9 U6 2.984 . S
C9 O7 1.353 . S
C9 O8 1.286 . S
C9 C11 1.363 . S
C10 C0 1.465 . S
C10 U6 2.847 . S
C10 O24 1.249 . S
C10 O25 1.202 . S
C11 C9 1.363 . S
C11 C13 1.408 . S
C11 C16 1.342 . S
C12 C13 1.310 . S
C12 C15 1.461 . S
C12 H32 0.932 . S
C13 C11 1.408 . S
C13 C12 1.310 . S
C13 H33 0.930 . S
C14 C15 1.474 . S
C14 C16 1.285 . S
C14 H34 0.929 1_554 S
C15 C12 1.461 . S
C15 C14 1.474 . S
C16 C11 1.342 . S
C16 C14 1.285 . S
C16 H35 0.930 1_554 S
C17 C20 1.424 . S
C17 C22 1.245 . S
C17 C23 1.428 . S
C18 C21 1.260 . S
C18 C22 1.477 . S
C18 H36 0.932 . S
C19 C20 1.384 . S
C19 C21 1.479 . S
C19 H37 0.929 . S
C20 C17 1.424 . S
C20 C19 1.384 . S
C20 H38 0.928 . S
C21 C18 1.260 . S
C21 C19 1.479 . S
C22 C17 1.245 . S
C22 C18 1.477 . S
C22 H39 0.932 . S
C23 U6 2.882 1_556 S
C23 C17 1.428 . S
C23 O26 1.301 . S
C23 O27 1.282 1_556 S
O24 U6 2.441 . S
O24 C10 1.249 . S
O25 U6 2.420 . S
O25 C10 1.202 . S
O26 U6 2.455 1_556 S
O26 C23 1.301 . S
O27 U6 2.449 . S
O27 C23 1.282 1_554 S
H28 C1 0.931 . S
H29 C3 0.929 . S
H30 C4 0.930 . S
H31 C5 0.931 . S
H32 C12 0.932 . S
H33 C13 0.930 . S
H34 C14 0.929 1_556 S
H35 C16 0.930 1_556 S
H36 C18 0.932 . S
H37 C19 0.929 . S
H38 C20 0.928 . S
H39 C22 0.932 . S
C40 C41 1.264 . S
C40 C45 1.479 . S
C40 C50 1.465 . S
C41 C40 1.264 . S
C41 C43 1.339 . S
C41 H68 0.931 . S
C42 C43 1.395 . S
C42 C44 1.320 . S
C43 C41 1.339 . S
C43 C42 1.395 . S
C43 H69 0.929 . S
C44 C42 1.320 . S
C44 C45 1.405 . S
C44 H70 0.930 . S
C45 C40 1.479 . S
C45 C44 1.405 . S
C45 H71 0.931 . S
U46 O47 2.456 . S
U46 O48 2.458 . S
U46 C49 2.984 . S
U46 C50 2.847 1_554 S
U46 C63 2.882 . S
U46 O64 2.441 1_554 S
U46 O65 2.420 1_554 S
U46 O66 2.455 . S
U46 O67 2.449 . S
O47 U46 2.456 . S
O47 C49 1.358 . S
O48 U46 2.458 . S
O48 C49 1.286 . S
C49 U46 2.984 . S
C49 O47 1.358 . S
C49 O48 1.286 . S
C49 C51 1.363 . S
C50 C40 1.465 . S
C50 U46 2.847 1_556 S
C50 O64 1.249 . S
C50 O65 1.202 . S
C51 C49 1.363 . S
C51 C53 1.377 1_554 S
C51 C56 1.342 . S
C52 C53 1.310 . S
C52 C55 1.465 1_556 S
C52 H72 0.928 . S
C53 C51 1.377 1_556 S
C53 C52 1.310 . S
C53 H73 0.962 . S
C54 C55 1.474 . S
C54 C56 1.285 . S
C54 H74 0.929 . S
C55 C52 1.465 1_554 S
C55 C54 1.474 . S
C56 C51 1.342 . S
C56 C54 1.285 . S
C56 H75 0.930 . S
C57 C60 1.424 . S
C57 C62 1.245 . S
C57 C63 1.428 . S
C58 C61 1.260 . S
C58 C62 1.477 . S
C58 H76 0.932 . S
C59 C60 1.384 . S
C59 C61 1.479 . S
C59 H77 0.929 . S
C60 C57 1.424 . S
C60 C59 1.384 . S
C60 H78 0.928 . S
C61 C58 1.260 . S
C61 C59 1.479 . S
C62 C57 1.245 . S
C62 C58 1.477 . S
C62 H79 0.932 . S
C63 U46 2.882 . S
C63 C57 1.428 . S
C63 O66 1.301 . S
C63 O67 1.282 . S
O64 U46 2.441 1_556 S
O64 C50 1.249 . S
O65 U46 2.420 1_556 S
O65 C50 1.202 . S
O66 U46 2.455 . S
O66 C63 1.301 . S
O67 U46 2.449 . S
O67 C63 1.282 . S
H68 C41 0.931 . S
H69 C43 0.929 . S
H70 C44 0.930 . S
H71 C45 0.931 . S
H72 C52 0.928 . S
H73 C53 0.962 . S
H74 C54 0.929 . S
H75 C56 0.930 . S
H76 C58 0.932 . S
H77 C59 0.929 . S
H78 C60 0.928 . S
H79 C62 0.932 . S
C80 C81 1.264 . S
C80 C85 1.479 . S
C80 C90 1.465 . S
C81 C80 1.264 . S
C81 C83 1.339 . S
C81 H108 0.931 . S
C82 C83 1.395 . S
C82 C84 1.320 . S
C83 C81 1.339 . S
C83 C82 1.395 . S
C83 H109 0.929 . S
C84 C82 1.320 . S
C84 C85 1.405 . S
C84 H110 0.930 . S
C85 C80 1.479 . S
C85 C84 1.405 . S
C85 H111 0.931 . S
U86 O87 2.454 . S
U86 O88 2.458 . S
U86 C89 2.984 . S
U86 C90 2.847 . S
U86 C103 2.882 1_554 S
U86 O104 2.441 . S
U86 O105 2.420 . S
U86 O106 2.455 1_554 S
U86 O107 2.449 . S
O87 U86 2.454 . S
O87 C89 1.353 . S
O88 U86 2.458 . S
O88 C89 1.286 . S
C89 U86 2.984 . S
C89 O87 1.353 . S
C89 O88 1.286 . S
C89 C91 1.363 . S
C90 C80 1.465 . S
C90 U86 2.847 . S
C90 O104 1.249 . S
C90 O105 1.202 . S
C91 C89 1.363 . S
C91 C93 1.408 . S
C91 C96 1.355 . S
C92 C93 1.310 . S
C92 C95 1.461 . S
C92 H112 0.932 . S
C93 C91 1.408 . S
C93 C92 1.310 . S
C93 H113 0.930 . S
C94 C95 1.474 1_556 S
C94 C96 1.284 1_556 S
C94 H114 0.929 . S
C95 C92 1.461 . S
C95 C94 1.474 1_554 S
C96 C91 1.355 . S
C96 C94 1.284 1_554 S
C96 H115 0.919 1_554 S
C97 C100 1.424 . S
C97 C102 1.245 . S
C97 C103 1.428 . S
C98 C101 1.260 . S
C98 C102 1.477 . S
C98 H116 0.932 . S
C99 C100 1.384 . S
C99 C101 1.479 . S
C99 H117 0.929 . S
C100 C97 1.424 . S
C100 C99 1.384 . S
C100 H118 0.928 . S
C101 C98 1.260 . S
C101 C99 1.479 . S
C102 C97 1.245 . S
C102 C98 1.477 . S
C102 H119 0.932 . S
C103 U86 2.882 1_556 S
C103 C97 1.428 . S
C103 O106 1.301 . S
C103 O107 1.282 1_556 S
O104 U86 2.441 . S
O104 C90 1.249 . S
O105 U86 2.420 . S
O105 C90 1.202 . S
O106 U86 2.455 1_556 S
O106 C103 1.301 . S
O107 U86 2.449 . S
O107 C103 1.282 1_554 S
H108 C81 0.931 . S
H109 C83 0.929 . S
H110 C84 0.930 . S
H111 C85 0.931 . S
H112 C92 0.932 . S
H113 C93 0.930 . S
H114 C94 0.929 . S
H115 C96 0.919 1_556 S
H116 C98 0.932 . S
H117 C99 0.929 . S
H118 C100 0.928 . S
H119 C102 0.932 . S
C120 C121 1.264 . S
C120 C125 1.479 . S
C120 C130 1.465 . S
C121 C120 1.264 . S
C121 C123 1.339 . S
C121 H148 0.931 . S
C122 C123 1.395 . S
C122 C124 1.320 . S
C123 C121 1.339 . S
C123 C122 1.395 . S
C123 H149 0.929 . S
C124 C122 1.320 . S
C124 C125 1.405 . S
C124 H150 0.930 . S
C125 C120 1.479 . S
C125 C124 1.405 . S
C125 H151 0.931 . S
U126 O127 2.454 1_554 S
U126 O128 2.458 . S
U126 C129 2.984 . S
U126 C130 2.847 1_554 S
U126 C143 2.882 . S
U126 O144 2.441 1_554 S
U126 O145 2.420 1_554 S
U126 O146 2.455 . S
U126 O147 2.449 . S
O127 U126 2.454 1_556 S
O127 C129 1.353 1_556 S
O128 U126 2.458 . S
O128 C129 1.286 . S
C129 U126 2.984 . S
C129 O127 1.353 1_554 S
C129 O128 1.286 . S
C129 C131 1.363 . S
C130 C120 1.465 . S
C130 U126 2.847 1_556 S
C130 O144 1.249 . S
C130 O145 1.202 . S
C131 C129 1.363 . S
C131 C133 1.408 1_554 S
C131 C136 1.342 . S
C132 C133 1.310 . S
C132 C135 1.461 1_556 S
C132 H152 0.932 . S
C133 C131 1.408 1_556 S
C133 C132 1.310 . S
C133 H153 0.930 . S
C134 C135 1.474 . S
C134 C136 1.285 . S
C134 H154 0.929 . S
C135 C132 1.461 1_554 S
C135 C134 1.474 . S
C136 C131 1.342 . S
C136 C134 1.285 . S
C136 H155 0.930 . S
C137 C140 1.424 . S
C137 C142 1.245 . S
C137 C143 1.428 . S
C138 C141 1.260 . S
C138 C142 1.477 1_565 S
C138 H156 0.932 . S
C139 C140 1.384 . S
C139 C141 1.479 1_545 S
C139 H157 0.929 . S
C140 C137 1.424 . S
C140 C139 1.384 . S
C140 H158 0.928 . S
C141 C138 1.260 . S
C141 C139 1.479 1_565 S
C142 C137 1.245 . S
C142 C138 1.477 1_545 S
C142 H159 0.932 . S
C143 U126 2.882 . S
C143 C137 1.428 . S
C143 O146 1.301 . S
C143 O147 1.282 . S
O144 U126 2.441 1_556 S
O144 C130 1.249 . S
O145 U126 2.420 1_556 S
O145 C130 1.202 . S
O146 U126 2.455 . S
O146 C143 1.301 . S
O147 U126 2.449 . S
O147 C143 1.282 . S
H148 C121 0.931 . S
H149 C123 0.929 . S
H150 C124 0.930 . S
H151 C125 0.931 . S
H152 C132 0.932 . S
H153 C133 0.930 . S
H154 C134 0.929 . S
H155 C136 0.930 . S
H156 C138 0.932 . S
H157 C139 0.929 . S
H158 C140 0.928 . S
H159 C142 0.932 . S
C160 C161 1.264 . S
C160 C165 1.479 . S
C160 C170 1.465 . S
C161 C160 1.264 . S
C161 C163 1.339 . S
C161 H188 0.931 . S
C162 C163 1.395 . S
C162 C164 1.320 . S
C163 C161 1.339 . S
C163 C162 1.395 . S
C163 H189 0.929 . S
C164 C162 1.320 . S
C164 C165 1.405 . S
C164 H190 0.930 . S
C165 C160 1.479 . S
C165 C164 1.405 . S
C165 H191 0.931 . S
U166 O167 2.454 1_554 S
U166 O168 2.458 . S
U166 C169 2.984 . S
U166 C170 2.847 1_554 S
U166 C183 2.882 . S
U166 O184 2.441 1_554 S
U166 O185 2.420 1_554 S
U166 O186 2.455 . S
U166 O187 2.449 . S
O167 U166 2.454 1_556 S
O167 C169 1.353 1_556 S
O168 U166 2.458 . S
O168 C169 1.286 . S
C169 U166 2.984 . S
C169 O167 1.353 1_554 S
C169 O168 1.286 . S
C169 C171 1.363 . S
C170 C160 1.465 . S
C170 U166 2.847 1_556 S
C170 O184 1.249 . S
C170 O185 1.202 . S
C171 C169 1.363 . S
C171 C173 1.408 1_554 S
C171 C176 1.342 . S
C172 C173 1.310 . S
C172 C175 1.461 1_556 S
C172 H192 0.932 . S
C173 C171 1.408 1_556 S
C173 C172 1.310 . S
C173 H193 0.930 . S
C174 C175 1.474 . S
C174 C176 1.285 . S
C174 H194 0.929 . S
C175 C172 1.461 1_554 S
C175 C174 1.474 . S
C176 C171 1.342 . S
C176 C174 1.285 . S
C176 H195 0.930 . S
C177 C180 1.424 . S
C177 C182 1.245 . S
C177 C183 1.428 . S
C178 C181 1.260 . S
C178 C182 1.477 . S
C178 H196 0.932 . S
C179 C180 1.384 . S
C179 C181 1.479 . S
C179 H197 0.929 . S
C180 C177 1.424 . S
C180 C179 1.384 . S
C180 H198 0.928 . S
C181 C178 1.260 . S
C181 C179 1.479 . S
C182 C177 1.245 . S
C182 C178 1.477 . S
C182 H199 0.932 . S
C183 U166 2.882 . S
C183 C177 1.428 . S
C183 O186 1.301 . S
C183 O187 1.282 . S
O184 U166 2.441 1_556 S
O184 C170 1.249 . S
O185 U166 2.420 1_556 S
O185 C170 1.202 . S
O186 U166 2.455 . S
O186 C183 1.301 . S
O187 U166 2.449 . S
O187 C183 1.282 . S
H188 C161 0.931 . S
H189 C163 0.929 . S
H190 C164 0.930 . S
H191 C165 0.931 . S
H192 C172 0.932 . S
H193 C173 0.930 . S
H194 C174 0.929 . S
H195 C176 0.930 . S
H196 C178 0.932 . S
H197 C179 0.929 . S
H198 C180 0.928 . S
H199 C182 0.932 . S
C200 C201 1.264 . S
C200 C205 1.479 . S
C200 C210 1.465 . S
C201 C200 1.264 . S
C201 C203 1.339 . S
C201 H228 0.931 . S
C202 C203 1.395 . S
C202 C204 1.320 . S
C203 C201 1.339 . S
C203 C202 1.395 . S
C203 H229 0.929 . S
C204 C202 1.320 . S
C204 C205 1.405 . S
C204 H230 0.930 . S
C205 C200 1.479 . S
C205 C204 1.405 . S
C205 H231 0.931 . S
U206 O207 2.454 . S
U206 O208 2.458 1_554 S
U206 C209 2.984 . S
U206 C210 2.847 . S
U206 C223 2.882 1_554 S
U206 O224 2.441 . S
U206 O225 2.420 . S
U206 O226 2.455 1_554 S
U206 O227 2.449 1_554 S
O207 U206 2.454 . S
O207 C209 1.353 . S
O208 U206 2.458 1_556 S
O208 C209 1.286 1_556 S
C209 U206 2.984 . S
C209 O207 1.353 . S
C209 O208 1.286 1_554 S
C209 C211 1.363 . S
C210 C200 1.465 . S
C210 U206 2.847 . S
C210 O224 1.249 . S
C210 O225 1.202 . S
C211 C209 1.363 . S
C211 C213 1.408 . S
C211 C216 1.342 1_554 S
C212 C213 1.310 . S
C212 C215 1.461 . S
C212 H232 0.932 . S
C213 C211 1.408 . S
C213 C212 1.310 . S
C213 H233 0.930 . S
C214 C215 1.474 1_556 S
C214 C216 1.285 . S
C214 H234 0.929 . S
C215 C212 1.461 . S
C215 C214 1.474 1_554 S
C216 C211 1.342 1_556 S
C216 C214 1.285 . S
C216 H235 0.930 . S
C217 C220 1.424 . S
C217 C222 1.245 . S
C217 C223 1.428 . S
C218 C221 1.260 . S
C218 C222 1.477 . S
C218 H236 0.932 . S
C219 C220 1.384 . S
C219 C221 1.479 . S
C219 H237 0.929 . S
C220 C217 1.424 . S
C220 C219 1.384 . S
C220 H238 0.928 . S
C221 C218 1.260 . S
C221 C219 1.479 . S
C222 C217 1.245 . S
C222 C218 1.477 . S
C222 H239 0.932 . S
C223 U206 2.882 1_556 S
C223 C217 1.428 . S
C223 O226 1.301 . S
C223 O227 1.282 . S
O224 U206 2.441 . S
O224 C210 1.249 . S
O225 U206 2.420 . S
O225 C210 1.202 . S
O226 U206 2.455 1_556 S
O226 C223 1.301 . S
O227 U206 2.449 1_556 S
O227 C223 1.282 . S
H228 C201 0.931 . S
H229 C203 0.929 . S
H230 C204 0.930 . S
H231 C205 0.931 . S
H232 C212 0.932 . S
H233 C213 0.930 . S
H234 C214 0.929 . S
H235 C216 0.930 . S
H236 C218 0.932 . S
H237 C219 0.929 . S
H238 C220 0.928 . S
H239 C222 0.932 . S
C240 C241 1.264 . S
C240 C245 1.479 . S
C240 C250 1.465 . S
C241 C240 1.264 . S
C241 C243 1.339 . S
C241 H268 0.931 . S
C242 C243 1.395 . S
C242 C244 1.320 . S
C243 C241 1.339 . S
C243 C242 1.395 . S
C243 H269 0.929 . S
C244 C242 1.320 . S
C244 C245 1.405 . S
C244 H270 0.930 . S
C245 C240 1.479 . S
C245 C244 1.405 . S
C245 H271 0.931 . S
U246 O247 2.454 . S
U246 O248 2.458 . S
U246 C249 2.984 . S
U246 C250 2.847 . S
U246 C263 2.882 . S
U246 O264 2.441 . S
U246 O265 2.420 . S
U246 O266 2.455 . S
U246 O267 2.449 . S
O247 U246 2.454 . S
O247 C249 1.353 . S
O248 U246 2.458 . S
O248 C249 1.286 . S
C249 U246 2.984 . S
C249 O247 1.353 . S
C249 O248 1.286 . S
C249 C251 1.363 . S
C250 C240 1.465 . S
C250 U246 2.847 . S
C250 O264 1.249 . S
C250 O265 1.202 . S
C251 C249 1.363 . S
C251 C253 1.408 . S
C251 C256 1.342 . S
C252 C253 1.310 . S
C252 C255 1.461 . S
C252 H272 0.932 . S
C253 C251 1.408 . S
C253 C252 1.310 . S
C253 H273 0.930 . S
C254 C255 1.474 . S
C254 C256 1.285 . S
C254 H274 0.929 . S
C255 C252 1.461 . S
C255 C254 1.474 . S
C256 C251 1.342 . S
C256 C254 1.285 . S
C256 H275 0.930 . S
C257 C260 1.424 . S
C257 C262 1.245 . S
C257 C263 1.428 . S
C258 C261 1.260 . S
C258 C262 1.477 . S
C258 H276 0.932 . S
C259 C260 1.384 . S
C259 C261 1.479 . S
C259 H277 0.929 . S
C260 C257 1.424 . S
C260 C259 1.384 . S
C260 H278 0.928 . S
C261 C258 1.260 . S
C261 C259 1.479 . S
C262 C257 1.245 . S
C262 C258 1.477 . S
C262 H279 0.932 . S
C263 U246 2.882 . S
C263 C257 1.428 . S
C263 O266 1.301 . S
C263 O267 1.282 . S
O264 U246 2.441 . S
O264 C250 1.249 . S
O265 U246 2.420 . S
O265 C250 1.202 . S
O266 U246 2.455 . S
O266 C263 1.301 . S
O267 U246 2.449 . S
O267 C263 1.282 . S
H268 C241 0.931 . S
H269 C243 0.929 . S
H270 C244 0.930 . S
H271 C245 0.931 . S
H272 C252 0.932 . S
H273 C253 0.930 . S
H274 C254 0.929 . S
H275 C256 0.930 . S
H276 C258 0.932 . S
H277 C259 0.929 . S
H278 C260 0.928 . S
H279 C262 0.932 . S
C280 C281 1.264 . S
C280 C285 1.479 . S
C280 C290 1.465 . S
C281 C280 1.264 . S
C281 C283 1.339 . S
C281 H308 0.931 . S
C282 C283 1.395 . S
C282 C284 1.320 . S
C283 C281 1.339 . S
C283 C282 1.395 . S
C283 H309 0.929 . S
C284 C282 1.320 . S
C284 C285 1.405 . S
C284 H310 0.930 . S
C285 C280 1.479 . S
C285 C284 1.405 . S
C285 H311 0.931 . S
U286 O287 2.454 . S
U286 O288 2.458 . S
U286 C289 2.984 . S
U286 C290 2.847 . S
U286 C303 2.882 . S
U286 O304 2.441 . S
U286 O305 2.420 . S
U286 O306 2.455 . S
U286 O307 2.449 . S
O287 U286 2.454 . S
O287 C289 1.353 . S
O288 U286 2.458 . S
O288 C289 1.286 . S
C289 U286 2.984 . S
C289 O287 1.353 . S
C289 O288 1.286 . S
C289 C291 1.363 . S
C290 C280 1.465 . S
C290 U286 2.847 . S
C290 O304 1.249 . S
C290 O305 1.202 . S
C291 C289 1.363 . S
C291 C293 1.408 . S
C291 C296 1.342 . S
C292 C293 1.310 . S
C292 C295 1.461 . S
C292 H312 0.932 . S
C293 C291 1.408 . S
C293 C292 1.310 . S
C293 H313 0.930 . S
C294 C295 1.474 . S
C294 C296 1.285 . S
C294 H314 0.929 . S
C295 C292 1.461 . S
C295 C294 1.474 . S
C296 C291 1.342 . S
C296 C294 1.285 . S
C296 H315 0.930 . S
C297 C300 1.424 . S
C297 C302 1.245 . S
C297 C303 1.428 . S
C298 C301 1.260 . S
C298 C302 1.477 . S
C298 H316 0.932 . S
C299 C300 1.384 . S
C299 C301 1.479 . S
C299 H317 0.929 . S
C300 C297 1.424 . S
C300 C299 1.384 . S
C300 H318 0.928 . S
C301 C298 1.260 . S
C301 C299 1.479 . S
C302 C297 1.245 . S
C302 C298 1.477 . S
C302 H319 0.932 . S
C303 U286 2.882 . S
C303 C297 1.428 . S
C303 O306 1.301 . S
C303 O307 1.282 . S
O304 U286 2.441 . S
O304 C290 1.249 . S
O305 U286 2.420 . S
O305 C290 1.202 . S
O306 U286 2.455 . S
O306 C303 1.301 . S
O307 U286 2.449 . S
O307 C303 1.282 . S
H308 C281 0.931 . S
H309 C283 0.929 . S
H310 C284 0.930 . S
H311 C285 0.931 . S
H312 C292 0.932 . S
H313 C293 0.930 . S
H314 C294 0.929 . S
H315 C296 0.930 . S
H316 C298 0.932 . S
H317 C299 0.929 . S
H318 C300 0.928 . S
H319 C302 0.932 . S
C320 C321 1.264 . S
C320 C325 1.479 . S
C320 C330 1.465 . S
C321 C320 1.264 . S
C321 C323 1.339 . S
C321 H348 0.931 . S
C322 C323 1.395 . S
C322 C324 1.320 . S
C323 C321 1.339 . S
C323 C322 1.395 . S
C323 H349 0.929 . S
C324 C322 1.320 . S
C324 C325 1.405 . S
C324 H350 0.930 . S
C325 C320 1.479 . S
C325 C324 1.405 . S
C325 H351 0.931 . S
U326 O327 2.454 . S
U326 O328 2.458 . S
U326 C329 2.984 . S
U326 C330 2.847 . S
U326 C343 2.882 . S
U326 O344 2.441 . S
U326 O345 2.420 . S
U326 O346 2.455 . S
U326 O347 2.449 . S
O327 U326 2.454 . S
O327 C329 1.353 . S
O328 U326 2.458 . S
O328 C329 1.286 . S
C329 U326 2.984 . S
C329 O327 1.353 . S
C329 O328 1.286 . S
C329 C331 1.363 . S
C330 C320 1.465 . S
C330 U326 2.847 . S
C330 O344 1.249 . S
C330 O345 1.202 . S
C331 C329 1.363 . S
C331 C333 1.408 . S
C331 C336 1.342 . S
C332 C333 1.310 . S
C332 C335 1.461 . S
C332 H352 0.932 . S
C333 C331 1.408 . S
C333 C332 1.310 . S
C333 H353 0.930 . S
C334 C335 1.474 . S
C334 C336 1.285 . S
C334 H354 0.929 . S
C335 C332 1.461 . S
C335 C334 1.474 . S
C336 C331 1.342 . S
C336 C334 1.285 . S
C336 H355 0.930 . S
C337 C340 1.424 . S
C337 C342 1.245 . S
C337 C343 1.428 . S
C338 C341 1.260 . S
C338 C342 1.477 . S
C338 H356 0.932 . S
C339 C340 1.384 . S
C339 C341 1.479 . S
C339 H357 0.929 . S
C340 C337 1.424 . S
C340 C339 1.384 . S
C340 H358 0.928 . S
C341 C338 1.260 . S
C341 C339 1.479 . S
C342 C337 1.245 . S
C342 C338 1.477 . S
C342 H359 0.932 . S
C343 U326 2.882 . S
C343 C337 1.428 . S
C343 O346 1.301 . S
C343 O347 1.282 . S
O344 U326 2.441 . S
O344 C330 1.249 . S
O345 U326 2.420 . S
O345 C330 1.202 . S
O346 U326 2.455 . S
O346 C343 1.301 . S
O347 U326 2.449 . S
O347 C343 1.282 . S
H348 C321 0.931 . S
H349 C323 0.929 . S
H350 C324 0.930 . S
H351 C325 0.931 . S
H352 C332 0.932 . S
H353 C333 0.930 . S
H354 C334 0.929 . S
H355 C336 0.930 . S
H356 C338 0.932 . S
H357 C339 0.929 . S
H358 C340 0.928 . S
H359 C342 0.932 . S
C360 C361 1.264 . S
C360 C365 1.479 . S
C360 C370 1.465 . S
C361 C360 1.264 . S
C361 C363 1.339 . S
C361 H388 0.931 . S
C362 C363 1.395 . S
C362 C364 1.320 . S
C363 C361 1.339 . S
C363 C362 1.395 . S
C363 H389 0.929 . S
C364 C362 1.320 . S
C364 C365 1.405 . S
C364 H390 0.930 . S
C365 C360 1.479 . S
C365 C364 1.405 . S
C365 H391 0.931 . S
U366 O367 2.454 . S
U366 O368 2.458 . S
U366 C369 2.984 . S
U366 C370 2.847 . S
U366 C383 2.882 . S
U366 O384 2.441 . S
U366 O385 2.420 . S
U366 O386 2.455 . S
U366 O387 2.449 . S
O367 U366 2.454 . S
O367 C369 1.353 . S
O368 U366 2.458 . S
O368 C369 1.286 . S
C369 U366 2.984 . S
C369 O367 1.353 . S
C369 O368 1.286 . S
C369 C371 1.363 . S
C370 C360 1.465 . S
C370 U366 2.847 . S
C370 O384 1.249 . S
C370 O385 1.202 . S
C371 C369 1.363 . S
C371 C373 1.408 . S
C371 C376 1.342 . S
C372 C373 1.310 . S
C372 C375 1.461 . S
C372 H392 0.932 . S
C373 C371 1.408 . S
C373 C372 1.310 . S
C373 H393 0.930 . S
C374 C375 1.474 . S
C374 C376 1.285 . S
C374 H394 0.929 . S
C375 C372 1.461 . S
C375 C374 1.474 . S
C376 C371 1.342 . S
C376 C374 1.285 . S
C376 H395 0.930 . S
C377 C380 1.424 . S
C377 C382 1.245 . S
C377 C383 1.428 . S
C378 C381 1.260 . S
C378 C382 1.477 . S
C378 H396 0.932 . S
C379 C380 1.384 . S
C379 C381 1.479 . S
C379 H397 0.929 . S
C380 C377 1.424 . S
C380 C379 1.384 . S
C380 H398 0.928 . S
C381 C378 1.260 . S
C381 C379 1.479 . S
C382 C377 1.245 . S
C382 C378 1.477 . S
C382 H399 0.932 . S
C383 U366 2.882 . S
C383 C377 1.428 . S
C383 O386 1.301 . S
C383 O387 1.282 . S
O384 U366 2.441 . S
O384 C370 1.249 . S
O385 U366 2.420 . S
O385 C370 1.202 . S
O386 U366 2.455 . S
O386 C383 1.301 . S
O387 U366 2.449 . S
O387 C383 1.282 . S
H388 C361 0.931 . S
H389 C363 0.929 . S
H390 C364 0.930 . S
H391 C365 0.931 . S
H392 C372 0.932 . S
H393 C373 0.930 . S
H394 C374 0.929 . S
H395 C376 0.930 . S
H396 C378 0.932 . S
H397 C379 0.929 . S
H398 C380 0.928 . S
H399 C382 0.932 . S
C400 C401 1.264 . S
C400 C405 1.479 . S
C400 C410 1.465 . S
C401 C400 1.264 . S
C401 C403 1.339 . S
C401 H428 0.931 . S
C402 C403 1.395 . S
C402 C404 1.320 . S
C403 C401 1.339 . S
C403 C402 1.395 . S
C403 H429 0.929 . S
C404 C402 1.320 . S
C404 C405 1.405 . S
C404 H430 0.930 . S
C405 C400 1.479 . S
C405 C404 1.405 . S
C405 H431 0.931 . S
U406 O407 2.454 . S
U406 O408 2.458 . S
U406 C409 2.984 . S
U406 C410 2.847 . S
U406 C423 2.882 . S
U406 O424 2.441 . S
U406 O425 2.420 . S
U406 O426 2.455 . S
U406 O427 2.449 . S
O407 U406 2.454 . S
O407 C409 1.353 . S
O408 U406 2.458 . S
O408 C409 1.286 . S
C409 U406 2.984 . S
C409 O407 1.353 . S
C409 O408 1.286 . S
C409 C411 1.363 . S
C410 C400 1.465 . S
C410 U406 2.847 . S
C410 O424 1.249 . S
C410 O425 1.202 . S
C411 C409 1.363 . S
C411 C413 1.408 . S
C411 C416 1.342 . S
C412 C413 1.310 . S
C412 C415 1.461 . S
C412 H432 0.932 . S
C413 C411 1.408 . S
C413 C412 1.310 . S
C413 H433 0.930 . S
C414 C415 1.474 . S
C414 C416 1.285 . S
C414 H434 0.929 . S
C415 C412 1.461 . S
C415 C414 1.474 . S
C416 C411 1.342 . S
C416 C414 1.285 . S
C416 H435 0.930 . S
C417 C420 1.424 . S
C417 C422 1.245 . S
C417 C423 1.428 . S
C418 C421 1.260 . S
C418 C422 1.477 . S
C418 H436 0.932 . S
C419 C420 1.384 . S
C419 C421 1.479 . S
C419 H437 0.929 1_565 S
C420 C417 1.424 . S
C420 C419 1.384 . S
C420 H438 0.928 . S
C421 C418 1.260 . S
C421 C419 1.479 . S
C422 C417 1.245 . S
C422 C418 1.477 . S
C422 H439 0.932 . S
C423 U406 2.882 . S
C423 C417 1.428 . S
C423 O426 1.301 . S
C423 O427 1.282 . S
O424 U406 2.441 . S
O424 C410 1.249 . S
O425 U406 2.420 . S
O425 C410 1.202 . S
O426 U406 2.455 . S
O426 C423 1.301 . S
O427 U406 2.449 . S
O427 C423 1.282 . S
H428 C401 0.931 . S
H429 C403 0.929 . S
H430 C404 0.930 . S
H431 C405 0.931 . S
H432 C412 0.932 . S
H433 C413 0.930 . S
H434 C414 0.929 . S
H435 C416 0.930 . S
H436 C418 0.932 . S
H437 C419 0.929 1_545 S
H438 C420 0.928 . S
H439 C422 0.932 . S
C440 C441 1.264 . S
C440 C445 1.479 . S
C440 C450 1.465 . S
C441 C440 1.264 . S
C441 C443 1.339 . S
C441 H468 0.931 . S
C442 C443 1.395 . S
C442 C444 1.320 . S
C443 C441 1.339 . S
C443 C442 1.395 . S
C443 H469 0.929 . S
C444 C442 1.320 . S
C444 C445 1.405 . S
C444 H470 0.930 . S
C445 C440 1.479 . S
C445 C444 1.405 . S
C445 H471 0.931 . S
U446 O447 2.454 . S
U446 O448 2.458 . S
U446 C449 2.984 . S
U446 C450 2.847 . S
U446 C463 2.882 . S
U446 O464 2.441 . S
U446 O465 2.420 . S
U446 O466 2.455 . S
U446 O467 2.449 . S
O447 U446 2.454 . S
O447 C449 1.353 . S
O448 U446 2.458 . S
O448 C449 1.286 . S
C449 U446 2.984 . S
C449 O447 1.353 . S
C449 O448 1.286 . S
C449 C451 1.363 . S
C450 C440 1.465 . S
C450 U446 2.847 . S
C450 O464 1.249 . S
C450 O465 1.202 . S
C451 C449 1.363 . S
C451 C453 1.408 . S
C451 C456 1.342 . S
C452 C453 1.310 . S
C452 C455 1.461 . S
C452 H472 0.932 . S
C453 C451 1.408 . S
C453 C452 1.310 . S
C453 H473 0.930 . S
C454 C455 1.474 . S
C454 C456 1.285 . S
C454 H474 0.929 . S
C455 C452 1.461 . S
C455 C454 1.474 . S
C456 C451 1.342 . S
C456 C454 1.285 . S
C456 H475 0.930 . S
C457 C460 1.424 . S
C457 C462 1.245 . S
C457 C463 1.428 . S
C458 C461 1.260 . S
C458 C462 1.477 . S
C458 H476 0.932 . S
C459 C460 1.384 . S
C459 C461 1.479 . S
C459 H477 0.929 . S
C460 C457 1.424 . S
C460 C459 1.384 . S
C460 H478 0.928 . S
C461 C458 1.260 . S
C461 C459 1.479 . S
C462 C457 1.245 . S
C462 C458 1.477 . S
C462 H479 0.932 . S
C463 U446 2.882 . S
C463 C457 1.428 . S
C463 O466 1.301 . S
C463 O467 1.282 . S
O464 U446 2.441 . S
O464 C450 1.249 . S
O465 U446 2.420 . S
O465 C450 1.202 . S
O466 U446 2.455 . S
O466 C463 1.301 . S
O467 U446 2.449 . S
O467 C463 1.282 . S
H468 C441 0.931 . S
H469 C443 0.929 . S
H470 C444 0.930 . S
H471 C445 0.931 . S
H472 C452 0.932 . S
H473 C453 0.930 . S
H474 C454 0.929 . S
H475 C456 0.930 . S
H476 C458 0.932 . S
H477 C459 0.929 . S
H478 C460 0.928 . S
H479 C462 0.932 . S
C480 C481 1.264 . S
C480 C485 1.479 . S
C480 C490 1.465 . S
C481 C480 1.264 . S
C481 C483 1.339 . S
C481 H508 0.931 . S
C482 C483 1.395 . S
C482 C484 1.320 . S
C483 C481 1.339 . S
C483 C482 1.395 . S
C483 H509 0.929 . S
C484 C482 1.320 . S
C484 C485 1.405 . S
C484 H510 0.930 . S
C485 C480 1.479 . S
C485 C484 1.405 . S
C485 H511 0.931 . S
U486 O487 2.454 . S
U486 O488 2.458 . S
U486 C489 2.984 . S
U486 C490 2.847 . S
U486 C503 2.882 . S
U486 O504 2.441 . S
U486 O505 2.420 . S
U486 O506 2.455 . S
U486 O507 2.449 . S
O487 U486 2.454 . S
O487 C489 1.353 . S
O488 U486 2.458 . S
O488 C489 1.286 . S
C489 U486 2.984 . S
C489 O487 1.353 . S
C489 O488 1.286 . S
C489 C491 1.363 . S
C490 C480 1.465 . S
C490 U486 2.847 . S
C490 O504 1.249 . S
C490 O505 1.202 . S
C491 C489 1.363 . S
C491 C493 1.408 . S
C491 C496 1.342 . S
C492 C493 1.310 . S
C492 C495 1.461 . S
C492 H512 0.932 . S
C493 C491 1.408 . S
C493 C492 1.310 . S
C493 H513 0.930 . S
C494 C495 1.474 . S
C494 C496 1.285 . S
C494 H514 0.929 . S
C495 C492 1.461 . S
C495 C494 1.474 . S
C496 C491 1.342 . S
C496 C494 1.285 . S
C496 H515 0.930 . S
C497 C500 1.424 . S
C497 C502 1.245 . S
C497 C503 1.428 . S
C498 C501 1.260 . S
C498 C502 1.477 . S
C498 H516 0.932 . S
C499 C500 1.384 . S
C499 C501 1.479 . S
C499 H517 0.929 . S
C500 C497 1.424 . S
C500 C499 1.384 . S
C500 H518 0.928 . S
C501 C498 1.260 . S
C501 C499 1.479 . S
C502 C497 1.245 . S
C502 C498 1.477 . S
C502 H519 0.932 . S
C503 U486 2.882 . S
C503 C497 1.428 . S
C503 O506 1.301 . S
C503 O507 1.282 . S
O504 U486 2.441 . S
O504 C490 1.249 . S
O505 U486 2.420 . S
O505 C490 1.202 . S
O506 U486 2.455 . S
O506 C503 1.301 . S
O507 U486 2.449 . S
O507 C503 1.282 . S
H508 C481 0.931 . S
H509 C483 0.929 . S
H510 C484 0.930 . S
H511 C485 0.931 . S
H512 C492 0.932 . S
H513 C493 0.930 . S
H514 C494 0.929 . S
H515 C496 0.930 . S
H516 C498 0.932 . S
H517 C499 0.929 . S
H518 C500 0.928 . S
H519 C502 0.932 . S
C520 C521 1.264 . S
C520 C525 1.479 . S
C520 C530 1.465 . S
C521 C520 1.264 . S
C521 C523 1.339 . S
C521 H548 0.931 . S
C522 C523 1.395 . S
C522 C524 1.320 . S
C523 C521 1.339 . S
C523 C522 1.395 . S
C523 H549 0.929 . S
C524 C522 1.320 . S
C524 C525 1.405 . S
C524 H550 0.930 . S
C525 C520 1.479 . S
C525 C524 1.405 . S
C525 H551 0.931 . S
U526 O527 2.454 . S
U526 O528 2.458 . S
U526 C529 2.984 . S
U526 C530 2.847 . S
U526 C543 2.882 . S
U526 O544 2.441 . S
U526 O545 2.420 . S
U526 O546 2.455 . S
U526 O547 2.449 . S
O527 U526 2.454 . S
O527 C529 1.353 . S
O528 U526 2.458 . S
O528 C529 1.286 . S
C529 U526 2.984 . S
C529 O527 1.353 . S
C529 O528 1.286 . S
C529 C531 1.363 . S
C530 C520 1.465 . S
C530 U526 2.847 . S
C530 O544 1.249 . S
C530 O545 1.202 . S
C531 C529 1.363 . S
C531 C533 1.408 . S
C531 C536 1.342 . S
C532 C533 1.310 . S
C532 C535 1.461 . S
C532 H552 0.932 . S
C533 C531 1.408 . S
C533 C532 1.310 . S
C533 H553 0.930 . S
C534 C535 1.474 . S
C534 C536 1.285 . S
C534 H554 0.929 . S
C535 C532 1.461 . S
C535 C534 1.474 . S
C536 C531 1.342 . S
C536 C534 1.285 . S
C536 H555 0.930 . S
C537 C540 1.424 . S
C537 C542 1.245 . S
C537 C543 1.428 . S
C538 C541 1.260 . S
C538 C542 1.477 . S
C538 H556 0.932 . S
C539 C540 1.384 . S
C539 C541 1.479 . S
C539 H557 0.929 . S
C540 C537 1.424 . S
C540 C539 1.384 . S
C540 H558 0.928 . S
C541 C538 1.260 . S
C541 C539 1.479 . S
C542 C537 1.245 . S
C542 C538 1.477 . S
C542 H559 0.932 . S
C543 U526 2.882 . S
C543 C537 1.428 . S
C543 O546 1.301 . S
C543 O547 1.282 . S
O544 U526 2.441 . S
O544 C530 1.249 . S
O545 U526 2.420 . S
O545 C530 1.202 . S
O546 U526 2.455 . S
O546 C543 1.301 . S
O547 U526 2.449 . S
O547 C543 1.282 . S
H548 C521 0.931 . S
H549 C523 0.929 . S
H550 C524 0.930 . S
H551 C525 0.931 . S
H552 C532 0.932 . S
H553 C533 0.930 . S
H554 C534 0.929 . S
H555 C536 0.930 . S
H556 C538 0.932 . S
H557 C539 0.929 . S
H558 C540 0.928 . S
H559 C542 0.932 . S
C560 C561 1.264 . S
C560 C565 1.479 . S
C560 C570 1.465 . S
C561 C560 1.264 . S
C561 C563 1.339 . S
C561 H588 0.931 . S
C562 C563 1.395 . S
C562 C564 1.320 . S
C563 C561 1.339 . S
C563 C562 1.395 . S
C563 H589 0.929 . S
C564 C562 1.320 . S
C564 C565 1.405 . S
C564 H590 0.930 . S
C565 C560 1.479 . S
C565 C564 1.405 . S
C565 H591 0.931 1_455 S
U566 O567 2.454 1_455 S
U566 O568 2.458 1_455 S
U566 C569 2.984 1_455 S
U566 C570 2.847 . S
U566 C583 2.882 . S
U566 O584 2.441 1_455 S
U566 O585 2.420 . S
U566 O586 2.455 . S
U566 O587 2.449 . S
O567 U566 2.454 1_655 S
O567 C569 1.353 . S
O568 U566 2.458 1_655 S
O568 C569 1.286 . S
C569 U566 2.984 1_655 S
C569 O567 1.353 . S
C569 O568 1.286 . S
C569 C571 1.363 . S
C570 C560 1.465 . S
C570 U566 2.847 . S
C570 O584 1.249 1_455 S
C570 O585 1.202 . S
C571 C569 1.363 . S
C571 C573 1.408 . S
C571 C576 1.342 . S
C572 C573 1.310 . S
C572 C575 1.461 . S
C572 H592 0.932 . S
C573 C571 1.408 . S
C573 C572 1.310 . S
C573 H593 0.930 . S
C574 C575 1.474 . S
C574 C576 1.285 . S
C574 H594 0.929 . S
C575 C572 1.461 . S
C575 C574 1.474 . S
C576 C571 1.342 . S
C576 C574 1.285 . S
C576 H595 0.930 . S
C577 C580 1.424 . S
C577 C582 1.245 . S
C577 C583 1.428 . S
C578 C581 1.260 . S
C578 C582 1.477 . S
C578 H596 0.932 . S
C579 C580 1.384 . S
C579 C581 1.479 . S
C579 H597 0.929 . S
C580 C577 1.424 . S
C580 C579 1.384 . S
C580 H598 0.928 . S
C581 C578 1.260 . S
C581 C579 1.479 . S
C582 C577 1.245 . S
C582 C578 1.477 . S
C582 H599 0.932 . S
C583 U566 2.882 . S
C583 C577 1.428 . S
C583 O586 1.301 . S
C583 O587 1.282 . S
O584 U566 2.441 1_655 S
O584 C570 1.249 1_655 S
O585 U566 2.420 . S
O585 C570 1.202 . S
O586 U566 2.455 . S
O586 C583 1.301 . S
O587 U566 2.449 . S
O587 C583 1.282 . S
H588 C561 0.931 . S
H589 C563 0.929 . S
H590 C564 0.930 . S
H591 C565 0.931 1_655 S
H592 C572 0.932 . S
H593 C573 0.930 . S
H594 C574 0.929 . S
H595 C576 0.930 . S
H596 C578 0.932 . S
H597 C579 0.929 . S
H598 C580 0.928 . S
H599 C582 0.932 . S
C600 C601 1.264 . S
C600 C605 1.479 . S
C600 C610 1.465 . S
C601 C600 1.264 . S
C601 C603 1.339 . S
C601 H628 0.931 . S
C602 C603 1.395 . S
C602 C604 1.320 . S
C603 C601 1.339 . S
C603 C602 1.395 . S
C603 H629 0.929 . S
C604 C602 1.320 . S
C604 C605 1.405 . S
C604 H630 0.930 . S
C605 C600 1.479 . S
C605 C604 1.405 . S
C605 H631 0.931 . S
U606 O607 2.454 1_455 S
U606 O608 2.458 1_455 S
U606 C609 2.984 1_455 S
U606 C610 2.847 . S
U606 C623 2.882 . S
U606 O624 2.441 . S
U606 O625 2.420 . S
U606 O626 2.453 . S
U606 O627 2.449 . S
O607 U606 2.454 1_655 S
O607 C609 1.353 . S
O608 U606 2.458 1_655 S
O608 C609 1.286 . S
C609 U606 2.984 1_655 S
C609 O607 1.353 . S
C609 O608 1.286 . S
C609 C611 1.363 . S
C610 C600 1.465 . S
C610 U606 2.847 . S
C610 O624 1.249 . S
C610 O625 1.202 . S
C611 C609 1.363 . S
C611 C613 1.408 . S
C611 C616 1.342 . S
C612 C613 1.310 . S
C612 C615 1.461 . S
C612 H632 0.932 . S
C613 C611 1.408 . S
C613 C612 1.310 . S
C613 H633 0.930 . S
C614 C615 1.474 . S
C614 C616 1.285 . S
C614 H634 0.929 . S
C615 C612 1.461 . S
C615 C614 1.474 . S
C616 C611 1.342 . S
C616 C614 1.285 . S
C616 H635 0.930 . S
C617 C620 1.424 . S
C617 C622 1.245 . S
C617 C623 1.428 . S
C618 C621 1.260 . S
C618 C622 1.477 . S
C618 H636 0.932 . S
C619 C620 1.384 . S
C619 C621 1.479 . S
C619 H637 0.929 . S
C620 C617 1.424 . S
C620 C619 1.384 . S
C620 H638 0.928 . S
C621 C618 1.260 . S
C621 C619 1.479 . S
C622 C617 1.245 . S
C622 C618 1.477 . S
C622 H639 0.840 1_455 S
C623 U606 2.882 . S
C623 C617 1.428 . S
C623 O626 1.338 . S
C623 O627 1.282 . S
O624 U606 2.441 . S
O624 C610 1.249 . S
O625 U606 2.420 . S
O625 C610 1.202 . S
O626 U606 2.453 . S
O626 C623 1.338 . S
O627 U606 2.449 . S
O627 C623 1.282 . S
H628 C601 0.931 . S
H629 C603 0.929 . S
H630 C604 0.930 . S
H631 C605 0.931 . S
H632 C612 0.932 . S
H633 C613 0.930 . S
H634 C614 0.929 . S
H635 C616 0.930 . S
H636 C618 0.932 . S
H637 C619 0.929 . S
H638 C620 0.928 . S
H639 C622 0.840 1_655 S
C640 C641 1.264 . S
C640 C645 1.479 . S
C640 C650 1.465 . S
C641 C640 1.264 . S
C641 C643 1.339 . S
C641 H668 0.931 . S
C642 C643 1.395 . S
C642 C644 1.320 . S
C643 C641 1.339 . S
C643 C642 1.395 . S
C643 H669 0.929 . S
C644 C642 1.320 . S
C644 C645 1.405 . S
C644 H670 0.930 . S
C645 C640 1.479 . S
C645 C644 1.405 . S
C645 H671 0.931 . S
U646 O647 2.454 . S
U646 O648 2.458 . S
U646 C649 2.984 . S
U646 C650 2.847 . S
U646 C663 2.882 . S
U646 O664 2.441 . S
U646 O665 2.420 . S
U646 O666 2.455 . S
U646 O667 2.449 . S
O647 U646 2.454 . S
O647 C649 1.353 . S
O648 U646 2.458 . S
O648 C649 1.286 . S
C649 U646 2.984 . S
C649 O647 1.353 . S
C649 O648 1.286 . S
C649 C651 1.363 . S
C650 C640 1.465 . S
C650 U646 2.847 . S
C650 O664 1.249 . S
C650 O665 1.202 . S
C651 C649 1.363 . S
C651 C653 1.408 . S
C651 C656 1.342 . S
C652 C653 1.310 . S
C652 C655 1.461 . S
C652 H672 0.932 . S
C653 C651 1.408 . S
C653 C652 1.310 . S
C653 H673 0.930 . S
C654 C655 1.474 . S
C654 C656 1.285 . S
C654 H674 0.929 . S
C655 C652 1.461 . S
C655 C654 1.474 . S
C656 C651 1.342 . S
C656 C654 1.285 . S
C656 H675 0.930 . S
C657 C660 1.424 . S
C657 C662 1.245 . S
C657 C663 1.428 . S
C658 C661 1.260 . S
C658 C662 1.477 . S
C658 H676 0.932 . S
C659 C660 1.384 . S
C659 C661 1.479 . S
C659 H677 0.929 . S
C660 C657 1.424 . S
C660 C659 1.384 . S
C660 H678 0.928 . S
C661 C658 1.260 . S
C661 C659 1.479 . S
C662 C657 1.245 . S
C662 C658 1.477 . S
C662 H679 0.932 . S
C663 U646 2.882 . S
C663 C657 1.428 . S
C663 O666 1.301 . S
C663 O667 1.282 . S
O664 U646 2.441 . S
O664 C650 1.249 . S
O665 U646 2.420 . S
O665 C650 1.202 . S
O666 U646 2.455 . S
O666 C663 1.301 . S
O667 U646 2.449 . S
O667 C663 1.282 . S
H668 C641 0.931 . S
H669 C643 0.929 . S
H670 C644 0.930 . S
H671 C645 0.931 . S
H672 C652 0.932 . S
H673 C653 0.930 . S
H674 C654 0.929 . S
H675 C656 0.930 . S
H676 C658 0.932 . S
H677 C659 0.929 . S
H678 C660 0.928 . S
H679 C662 0.932 . S
C680 C681 1.264 . S
C680 C685 1.479 . S
C680 C690 1.465 . S
C681 C680 1.264 . S
C681 C683 1.339 . S
C681 H708 0.931 . S
C682 C683 1.395 . S
C682 C684 1.320 . S
C683 C681 1.339 . S
C683 C682 1.395 . S
C683 H709 0.929 . S
C684 C682 1.320 . S
C684 C685 1.405 . S
C684 H710 0.930 . S
C685 C680 1.479 . S
C685 C684 1.405 . S
C685 H711 0.931 . S
U686 O687 2.454 . S
U686 O688 2.458 . S
U686 C689 2.984 . S
U686 C690 2.847 . S
U686 C703 2.882 . S
U686 O704 2.441 . S
U686 O705 2.420 . S
U686 O706 2.455 . S
U686 O707 2.449 . S
O687 U686 2.454 . S
O687 C689 1.353 . S
O688 U686 2.458 . S
O688 C689 1.286 . S
C689 U686 2.984 . S
C689 O687 1.353 . S
C689 O688 1.286 . S
C689 C691 1.363 . S
C690 C680 1.465 . S
C690 U686 2.847 . S
C690 O704 1.249 . S
C690 O705 1.202 . S
C691 C689 1.363 . S
C691 C693 1.408 . S
C691 C696 1.342 . S
C692 C693 1.310 . S
C692 C695 1.461 . S
C692 H712 0.932 . S
C693 C691 1.408 . S
C693 C692 1.310 . S
C693 H713 0.930 . S
C694 C695 1.474 . S
C694 C696 1.285 . S
C694 H714 0.929 . S
C695 C692 1.461 . S
C695 C694 1.474 . S
C696 C691 1.342 . S
C696 C694 1.285 . S
C696 H715 0.930 . S
C697 C700 1.424 . S
C697 C702 1.245 . S
C697 C703 1.428 . S
C698 C701 1.260 . S
C698 C702 1.477 . S
C698 H716 0.932 . S
C699 C700 1.384 . S
C699 C701 1.479 . S
C699 H717 0.929 . S
C700 C697 1.424 . S
C700 C699 1.384 . S
C700 H718 0.928 . S
C701 C698 1.260 . S
C701 C699 1.479 . S
C702 C697 1.245 . S
C702 C698 1.477 . S
C702 H719 0.932 . S
C703 U686 2.882 . S
C703 C697 1.428 . S
C703 O706 1.301 . S
C703 O707 1.282 . S
O704 U686 2.441 . S
O704 C690 1.249 . S
O705 U686 2.420 . S
O705 C690 1.202 . S
O706 U686 2.455 . S
O706 C703 1.301 . S
O707 U686 2.449 . S
O707 C703 1.282 . S
H708 C681 0.931 . S
H709 C683 0.929 . S
H710 C684 0.930 . S
H711 C685 0.931 . S
H712 C692 0.932 . S
H713 C693 0.930 . S
H714 C694 0.929 . S
H715 C696 0.930 . S
H716 C698 0.932 . S
H717 C699 0.929 . S
H718 C700 0.928 . S
H719 C702 0.932 . S
H720 C726 0.930 . S
H721 C730 0.930 1_565 S
H722 C735 0.929 1_565 S
H723 C733 0.929 . S
H724 C728 0.929 1_565 S
H725 C734 0.929 . S
C726 H720 0.930 . S
C726 C727 1.367 . S
C726 C734 1.378 . S
C727 C726 1.367 . S
C727 C735 1.433 . S
C728 H724 0.929 1_545 S
C728 C730 1.378 . S
C728 C732 1.350 . S
C729 C732 1.463 . S
C729 C734 1.350 . S
C729 N737 1.427 . S
C730 H721 0.930 1_545 S
C730 C728 1.378 . S
C730 C731 1.367 . S
C731 C730 1.367 . S
C731 C733 1.433 . S
C732 C728 1.350 . S
C732 C729 1.463 . S
C732 N736 1.427 . S
C733 H723 0.929 . S
C733 C731 1.433 . S
C733 N736 1.384 . S
C734 H725 0.929 . S
C734 C726 1.378 . S
C734 C729 1.350 . S
C735 H722 0.929 1_545 S
C735 C727 1.433 . S
C735 N737 1.384 . S
N736 C732 1.427 . S
N736 C733 1.384 . S
N737 C729 1.427 . S
N737 C735 1.384 . S
H738 C744 0.930 . S
H739 C748 0.947 . S
H740 C753 0.929 . S
H741 C751 0.929 . S
H742 C746 0.929 . S
H743 C752 0.929 . S
C744 H738 0.930 . S
C744 C745 1.367 . S
C744 C752 1.378 . S
C745 C744 1.367 . S
C745 C753 1.433 . S
C746 H742 0.929 . S
C746 C748 1.378 . S
C746 C750 1.350 . S
C747 C750 1.463 . S
C747 C752 1.350 . S
C747 N755 1.427 . S
C748 H739 0.947 . S
C748 C746 1.378 . S
C748 C749 1.367 . S
C749 C748 1.367 . S
C749 C751 1.433 . S
C750 C746 1.350 . S
C750 C747 1.463 . S
C750 N754 1.427 . S
C751 H741 0.929 . S
C751 C749 1.433 . S
C751 N754 1.384 . S
C752 H743 0.929 . S
C752 C744 1.378 . S
C752 C747 1.350 . S
C753 H740 0.929 . S
C753 C745 1.433 . S
C753 N755 1.384 . S
N754 C750 1.427 . S
N754 C751 1.384 . S
N755 C747 1.427 . S
N755 C753 1.384 . S
H756 C762 0.930 . S
H757 C766 0.930 . S
H758 C771 0.929 . S
H759 C769 0.929 . S
H760 C764 0.929 . S
H761 C770 0.929 . S
C762 H756 0.930 . S
C762 C763 1.367 1_556 S
C762 C770 1.378 . S
C763 C762 1.367 1_554 S
C763 C771 1.433 . S
C764 H760 0.929 . S
C764 C766 1.378 . S
C764 C768 1.350 . S
C765 C768 1.463 . S
C765 C770 1.350 1_554 S
C765 N773 1.427 . S
C766 H757 0.930 . S
C766 C764 1.378 . S
C766 C767 1.367 . S
C767 C766 1.367 . S
C767 C769 1.433 1_554 S
C768 C764 1.350 . S
C768 C765 1.463 . S
C768 N772 1.427 1_554 S
C769 H759 0.929 . S
C769 C767 1.433 1_556 S
C769 N772 1.384 . S
C770 H761 0.929 . S
C770 C762 1.378 . S
C770 C765 1.350 1_556 S
C771 H758 0.929 . S
C771 C763 1.433 . S
C771 N773 1.384 . S
N772 C768 1.427 1_556 S
N772 C769 1.384 . S
N773 C765 1.427 . S
N773 C771 1.384 . S
H774 C780 0.930 . S
H775 C784 0.930 . S
H776 C789 0.929 . S
H777 C787 0.929 . S
H778 C782 0.929 . S
H779 C788 0.929 . S
C780 H774 0.930 . S
C780 C781 1.367 . S
C780 C788 1.378 . S
C781 C780 1.367 . S
C781 C789 1.433 . S
C782 H778 0.929 . S
C782 C784 1.378 . S
C782 C786 1.350 . S
C783 C786 1.463 . S
C783 C788 1.350 . S
C783 N791 1.427 . S
C784 H775 0.930 . S
C784 C782 1.378 . S
C784 C785 1.367 . S
C785 C784 1.367 . S
C785 C787 1.433 . S
C786 C782 1.350 . S
C786 C783 1.463 . S
C786 N790 1.427 . S
C787 H777 0.929 . S
C787 C785 1.433 . S
C787 N790 1.384 . S
C788 H779 0.929 . S
C788 C780 1.378 . S
C788 C783 1.350 . S
C789 H776 0.929 . S
C789 C781 1.433 . S
C789 N791 1.384 . S
N790 C786 1.427 . S
N790 C787 1.384 . S
N791 C783 1.427 . S
N791 C789 1.384 . S
H792 C798 0.930 . S
H793 C802 0.930 . S
H794 C807 0.929 . S
H795 C805 0.929 . S
H796 C800 0.929 . S
H797 C806 0.929 . S
C798 H792 0.930 . S
C798 C799 1.367 . S
C798 C806 1.378 . S
C799 C798 1.367 . S
C799 C807 1.433 . S
C800 H796 0.929 . S
C800 C802 1.378 . S
C800 C804 1.350 . S
C801 C804 1.463 . S
C801 C806 1.350 . S
C801 N809 1.427 . S
C802 H793 0.930 . S
C802 C800 1.378 . S
C802 C803 1.367 . S
C803 C802 1.367 . S
C803 C805 1.433 . S
C804 C800 1.350 . S
C804 C801 1.463 . S
C804 N808 1.427 . S
C805 H795 0.929 . S
C805 C803 1.433 . S
C805 N808 1.384 . S
C806 H797 0.929 . S
C806 C798 1.378 . S
C806 C801 1.350 . S
C807 H794 0.929 . S
C807 C799 1.433 . S
C807 N809 1.384 . S
N808 C804 1.427 . S
N808 C805 1.384 . S
N809 C801 1.427 . S
N809 C807 1.384 . S
H810 C816 0.930 . S
H811 C820 0.930 . S
H812 C825 0.929 . S
H813 C823 0.929 . S
H814 C818 0.929 . S
H815 C824 0.929 . S
C816 H810 0.930 . S
C816 C817 1.367 . S
C816 C824 1.378 . S
C817 C816 1.367 . S
C817 C825 1.433 . S
C818 H814 0.929 . S
C818 C820 1.378 . S
C818 C822 1.350 . S
C819 C822 1.463 . S
C819 C824 1.350 . S
C819 N827 1.427 . S
C820 H811 0.930 . S
C820 C818 1.378 . S
C820 C821 1.367 . S
C821 C820 1.367 . S
C821 C823 1.433 . S
C822 C818 1.350 . S
C822 C819 1.463 . S
C822 N826 1.427 . S
C823 H813 0.929 . S
C823 C821 1.433 . S
C823 N826 1.384 . S
C824 H815 0.929 . S
C824 C816 1.378 . S
C824 C819 1.350 . S
C825 H812 0.929 . S
C825 C817 1.433 . S
C825 N827 1.384 . S
N826 C822 1.427 . S
N826 C823 1.384 . S
N827 C819 1.427 . S
N827 C825 1.384 . S
H828 C834 0.930 . S
H829 C838 0.930 . S
H830 C843 0.929 . S
H831 C841 0.929 . S
H832 C836 0.929 . S
H833 C842 0.929 . S
C834 H828 0.930 . S
C834 C835 1.367 . S
C834 C842 1.378 . S
C835 C834 1.367 . S
C835 C843 1.433 . S
C836 H832 0.929 . S
C836 C838 1.378 . S
C836 C840 1.350 . S
C837 C840 1.463 . S
C837 C842 1.350 . S
C837 N845 1.427 . S
C838 H829 0.930 . S
C838 C836 1.378 . S
C838 C839 1.367 . S
C839 C838 1.367 . S
C839 C841 1.433 . S
C840 C836 1.350 . S
C840 C837 1.463 . S
C840 N844 1.427 . S
C841 H831 0.929 . S
C841 C839 1.433 . S
C841 N844 1.384 . S
C842 H833 0.929 . S
C842 C834 1.378 . S
C842 C837 1.350 . S
C843 H830 0.929 . S
C843 C835 1.433 . S
C843 N845 1.384 . S
N844 C840 1.427 . S
N844 C841 1.384 . S
N845 C837 1.427 . S
N845 C843 1.384 . S
H846 C852 0.930 . S
H847 C856 0.930 . S
H848 C861 0.929 . S
H849 C859 0.929 . S
H850 C854 0.929 . S
H851 C860 0.929 . S
C852 H846 0.930 . S
C852 C853 1.367 . S
C852 C860 1.378 . S
C853 C852 1.367 . S
C853 C861 1.433 . S
C854 H850 0.929 . S
C854 C856 1.378 . S
C854 C858 1.350 . S
C855 C858 1.463 . S
C855 C860 1.350 . S
C855 N863 1.427 . S
C856 H847 0.930 . S
C856 C854 1.378 . S
C856 C857 1.367 . S
C857 C856 1.367 . S
C857 C859 1.433 . S
C858 C854 1.350 . S
C858 C855 1.463 . S
C858 N862 1.427 . S
C859 H849 0.929 . S
C859 C857 1.433 . S
C859 N862 1.384 . S
C860 H851 0.929 . S
C860 C852 1.378 . S
C860 C855 1.350 . S
C861 H848 0.929 . S
C861 C853 1.433 . S
C861 N863 1.384 . S
N862 C858 1.427 . S
N862 C859 1.384 . S
N863 C855 1.427 . S
N863 C861 1.384 . S
H864 C870 0.930 . S
H865 C874 0.930 . S
H866 C879 0.929 . S
H867 C877 0.929 . S
H868 C872 0.929 . S
H869 C878 0.929 . S
C870 H864 0.930 . S
C870 C871 1.367 . S
C870 C878 1.378 . S
C871 C870 1.367 . S
C871 C879 1.433 . S
C872 H868 0.929 . S
C872 C874 1.378 . S
C872 C876 1.350 . S
C873 C876 1.463 . S
C873 C878 1.350 . S
C873 N881 1.427 . S
C874 H865 0.930 . S
C874 C872 1.378 . S
C874 C875 1.367 . S
C875 C874 1.367 . S
C875 C877 1.433 . S
C876 C872 1.350 . S
C876 C873 1.463 . S
C876 N880 1.427 . S
C877 H867 0.929 . S
C877 C875 1.433 . S
C877 N880 1.384 . S
C878 H869 0.929 . S
C878 C870 1.378 . S
C878 C873 1.350 . S
C879 H866 0.929 . S
C879 C871 1.433 . S
C879 N881 1.384 . S
N880 C876 1.427 . S
N880 C877 1.384 . S
N881 C873 1.427 . S
N881 C879 1.384 . S
H882 C888 0.930 . S
H883 C892 0.930 . S
H884 C897 0.929 . S
H885 C895 0.929 1_545 S
H886 C890 0.929 . S
H887 C896 0.929 . S
C888 H882 0.930 . S
C888 C889 1.367 . S
C888 C896 1.378 . S
C889 C888 1.367 . S
C889 C897 1.433 . S
C890 H886 0.929 . S
C890 C892 1.378 . S
C890 C894 1.350 . S
C891 C894 1.463 . S
C891 C896 1.350 . S
C891 N899 1.427 . S
C892 H883 0.930 . S
C892 C890 1.378 . S
C892 C893 1.367 . S
C893 C892 1.367 . S
C893 C895 1.433 . S
C894 C890 1.350 . S
C894 C891 1.463 . S
C894 N898 1.427 . S
C895 H885 0.929 1_565 S
C895 C893 1.433 . S
C895 N898 1.384 . S
C896 H887 0.929 . S
C896 C888 1.378 . S
C896 C891 1.350 . S
C897 H884 0.929 . S
C897 C889 1.433 . S
C897 N899 1.384 . S
N898 C894 1.427 . S
N898 C895 1.384 . S
N899 C891 1.427 . S
N899 C897 1.384 . S
H900 C906 0.930 . S
H901 C910 0.930 . S
H902 C915 0.929 . S
H903 C913 0.929 . S
H904 C908 0.929 . S
H905 C914 0.929 . S
C906 H900 0.930 . S
C906 C907 1.367 . S
C906 C914 1.378 . S
C907 C906 1.367 . S
C907 C915 1.433 . S
C908 H904 0.929 . S
C908 C910 1.378 . S
C908 C912 1.350 . S
C909 C912 1.463 . S
C909 C914 1.350 . S
C909 N917 1.427 . S
C910 H901 0.930 . S
C910 C908 1.378 . S
C910 C911 1.367 . S
C911 C910 1.367 . S
C911 C913 1.433 . S
C912 C908 1.350 . S
C912 C909 1.463 . S
C912 N916 1.427 . S
C913 H903 0.929 . S
C913 C911 1.433 . S
C913 N916 1.384 . S
C914 H905 0.929 . S
C914 C906 1.378 . S
C914 C909 1.350 . S
C915 H902 0.929 . S
C915 C907 1.433 . S
C915 N917 1.384 . S
N916 C912 1.427 . S
N916 C913 1.384 . S
N917 C909 1.427 . S
N917 C915 1.384 . S
H918 C924 0.930 . S
H919 C928 0.930 . S
H920 C933 0.929 . S
H921 C931 0.929 . S
H922 C926 0.929 . S
H923 C932 0.929 . S
C924 H918 0.930 . S
C924 C925 1.367 . S
C924 C932 1.378 . S
C925 C924 1.367 . S
C925 C933 1.433 . S
C926 H922 0.929 . S
C926 C928 1.378 . S
C926 C930 1.350 . S
C927 C930 1.463 . S
C927 C932 1.350 . S
C927 N935 1.427 . S
C928 H919 0.930 . S
C928 C926 1.378 . S
C928 C929 1.367 . S
C929 C928 1.367 . S
C929 C931 1.433 . S
C930 C926 1.350 . S
C930 C927 1.463 . S
C930 N934 1.427 . S
C931 H921 0.929 . S
C931 C929 1.433 . S
C931 N934 1.384 . S
C932 H923 0.929 . S
C932 C924 1.378 . S
C932 C927 1.350 . S
C933 H920 0.929 . S
C933 C925 1.433 . S
C933 N935 1.384 . S
N934 C930 1.427 . S
N934 C931 1.384 . S
N935 C927 1.427 . S
N935 C933 1.384 . S
H936 C942 0.930 . S
H937 C946 0.930 . S
H938 C951 0.929 . S
H939 C949 0.929 . S
H940 C944 0.929 . S
H941 C950 0.929 . S
C942 H936 0.930 . S
C942 C943 1.367 . S
C942 C950 1.378 . S
C943 C942 1.367 . S
C943 C951 1.433 . S
C944 H940 0.929 . S
C944 C946 1.378 . S
C944 C948 1.350 . S
C945 C948 1.463 . S
C945 C950 1.350 . S
C945 N953 1.427 . S
C946 H937 0.930 . S
C946 C944 1.378 . S
C946 C947 1.367 . S
C947 C946 1.367 . S
C947 C949 1.433 . S
C948 C944 1.350 . S
C948 C945 1.463 . S
C948 N952 1.427 . S
C949 H939 0.929 . S
C949 C947 1.433 . S
C949 N952 1.384 . S
C950 H941 0.929 . S
C950 C942 1.378 . S
C950 C945 1.350 . S
C951 H938 0.929 . S
C951 C943 1.433 . S
C951 N953 1.384 . S
N952 C948 1.427 . S
N952 C949 1.384 . S
N953 C945 1.427 . S
N953 C951 1.384 . S
H954 C960 0.930 . S
H955 C964 0.930 . S
H956 C969 0.929 . S
H957 C967 0.929 . S
H958 C962 0.929 . S
H959 C968 0.929 . S
C960 H954 0.930 . S
C960 C961 1.367 . S
C960 C968 1.378 . S
C961 C960 1.367 . S
C961 C969 1.433 . S
C962 H958 0.929 . S
C962 C964 1.378 . S
C962 C966 1.350 . S
C963 C966 1.463 . S
C963 C968 1.350 . S
C963 N971 1.427 . S
C964 H955 0.930 . S
C964 C962 1.378 . S
C964 C965 1.367 . S
C965 C964 1.367 . S
C965 C967 1.433 . S
C966 C962 1.350 . S
C966 C963 1.463 . S
C966 N970 1.427 . S
C967 H957 0.929 . S
C967 C965 1.433 . S
C967 N970 1.384 . S
C968 H959 0.929 . S
C968 C960 1.378 . S
C968 C963 1.350 . S
C969 H956 0.929 . S
C969 C961 1.433 . S
C969 N971 1.384 . S
N970 C966 1.427 . S
N970 C967 1.384 . S
N971 C963 1.427 . S
N971 C969 1.384 . S
H972 C978 0.930 . S
H973 C982 0.930 . S
H974 C987 0.929 . S
H975 C985 0.929 . S
H976 C980 0.929 . S
H977 C986 0.929 . S
C978 H972 0.930 . S
C978 C979 1.367 . S
C978 C986 1.378 . S
C979 C978 1.367 . S
C979 C987 1.433 . S
C980 H976 0.929 . S
C980 C982 1.378 . S
C980 C984 1.350 . S
C981 C984 1.463 . S
C981 C986 1.350 . S
C981 N989 1.427 . S
C982 H973 0.930 . S
C982 C980 1.378 . S
C982 C983 1.367 . S
C983 C982 1.367 . S
C983 C985 1.433 . S
C984 C980 1.350 . S
C984 C981 1.463 . S
C984 N988 1.427 . S
C985 H975 0.929 . S
C985 C983 1.433 . S
C985 N988 1.384 . S
C986 H977 0.929 . S
C986 C978 1.378 . S
C986 C981 1.350 . S
C987 H974 0.929 . S
C987 C979 1.433 . S
C987 N989 1.384 . S
N988 C984 1.427 . S
N988 C985 1.384 . S
N989 C981 1.427 . S
N989 C987 1.384 . S
H990 C996 0.930 . S
H991 C1000 0.930 . S
H992 C1005 0.929 . S
H993 C1003 0.929 . S
H994 C998 0.929 . S
H995 C1004 0.929 . S
C996 H990 0.930 . S
C996 C997 1.367 . S
C996 C1004 1.378 . S
C997 C996 1.367 . S
C997 C1005 1.433 . S
C998 H994 0.929 . S
C998 C1000 1.378 . S
C998 C1002 1.350 . S
C999 C1002 1.463 . S
C999 C1004 1.350 . S
C999 N1007 1.427 . S
C1000 H991 0.930 . S
C1000 C998 1.378 . S
C1000 C1001 1.367 . S
C1001 C1000 1.367 . S
C1001 C1003 1.433 . S
C1002 C998 1.350 . S
C1002 C999 1.463 . S
C1002 N1006 1.427 . S
C1003 H993 0.929 . S
C1003 C1001 1.433 . S
C1003 N1006 1.384 . S
C1004 H995 0.929 . S
C1004 C996 1.378 . S
C1004 C999 1.350 . S
C1005 H992 0.929 . S
C1005 C997 1.433 . S
C1005 N1007 1.384 . S
N1006 C1002 1.427 . S
N1006 C1003 1.384 . S
N1007 C999 1.427 . S
N1007 C1005 1.384 . S
H1008 C1014 0.930 . S
H1009 C1018 0.930 . S
H1010 C1023 0.929 . S
H1011 C1021 0.929 . S
H1012 C1016 0.929 . S
H1013 C1022 0.929 . S
C1014 H1008 0.930 . S
C1014 C1015 1.367 . S
C1014 C1022 1.378 . S
C1015 C1014 1.367 . S
C1015 C1023 1.433 . S
C1016 H1012 0.929 . S
C1016 C1018 1.378 . S
C1016 C1020 1.350 . S
C1017 C1020 1.463 . S
C1017 C1022 1.350 . S
C1017 N1025 1.427 . S
C1018 H1009 0.930 . S
C1018 C1016 1.378 . S
C1018 C1019 1.367 . S
C1019 C1018 1.367 . S
C1019 C1021 1.433 . S
C1020 C1016 1.350 . S
C1020 C1017 1.463 . S
C1020 N1024 1.427 . S
C1021 H1011 0.929 . S
C1021 C1019 1.433 . S
C1021 N1024 1.384 . S
C1022 H1013 0.929 . S
C1022 C1014 1.378 . S
C1022 C1017 1.350 . S
C1023 H1010 0.929 . S
C1023 C1015 1.433 . S
C1023 N1025 1.384 . S
N1024 C1020 1.427 . S
N1024 C1021 1.384 . S
N1025 C1017 1.427 . S
N1025 C1023 1.384 . S
H1026 C1032 0.930 . S
H1027 C1036 0.930 . S
H1028 C1041 0.929 . S
H1029 C1039 0.929 . S
H1030 C1034 0.929 . S
H1031 C1040 0.929 . S
C1032 H1026 0.930 . S
C1032 C1033 1.367 . S
C1032 C1040 1.378 . S
C1033 C1032 1.367 . S
C1033 C1041 1.433 . S
C1034 H1030 0.929 . S
C1034 C1036 1.378 . S
C1034 C1038 1.350 . S
C1035 C1038 1.463 . S
C1035 C1040 1.350 . S
C1035 N1043 1.427 . S
C1036 H1027 0.930 . S
C1036 C1034 1.378 . S
C1036 C1037 1.367 . S
C1037 C1036 1.367 . S
C1037 C1039 1.433 . S
C1038 C1034 1.350 . S
C1038 C1035 1.463 . S
C1038 N1042 1.427 . S
C1039 H1029 0.929 . S
C1039 C1037 1.433 . S
C1039 N1042 1.384 . S
C1040 H1031 0.929 . S
C1040 C1032 1.378 . S
C1040 C1035 1.350 . S
C1041 H1028 0.929 . S
C1041 C1033 1.433 . S
C1041 N1043 1.384 . S
N1042 C1038 1.427 . S
N1042 C1039 1.384 . S
N1043 C1035 1.427 . S
N1043 C1041 1.384 . S
H1044 C1050 0.930 . S
H1045 C1054 0.930 . S
H1046 C1059 0.929 . S
H1047 C1057 0.929 . S
H1048 C1052 0.929 . S
H1049 C1058 0.929 . S
C1050 H1044 0.930 . S
C1050 C1051 1.367 . S
C1050 C1058 1.378 . S
C1051 C1050 1.367 . S
C1051 C1059 1.433 . S
C1052 H1048 0.929 . S
C1052 C1054 1.378 . S
C1052 C1056 1.350 . S
C1053 C1056 1.463 . S
C1053 C1058 1.350 . S
C1053 N1061 1.427 . S
C1054 H1045 0.930 . S
C1054 C1052 1.378 . S
C1054 C1055 1.367 . S
C1055 C1054 1.367 . S
C1055 C1057 1.433 . S
C1056 C1052 1.350 . S
C1056 C1053 1.463 . S
C1056 N1060 1.427 . S
C1057 H1047 0.929 . S
C1057 C1055 1.433 . S
C1057 N1060 1.384 . S
C1058 H1049 0.929 . S
C1058 C1050 1.378 . S
C1058 C1053 1.350 . S
C1059 H1046 0.929 . S
C1059 C1051 1.433 . S
C1059 N1061 1.384 . S
N1060 C1056 1.427 . S
N1060 C1057 1.384 . S
N1061 C1053 1.427 . S
N1061 C1059 1.384 . S
H1062 C1068 0.930 . S
H1063 C1072 0.930 . S
H1064 C1077 0.929 . S
H1065 C1075 0.929 . S
H1066 C1070 0.929 . S
H1067 C1076 0.929 . S
C1068 H1062 0.930 . S
C1068 C1069 1.367 . S
C1068 C1076 1.378 . S
C1069 C1068 1.367 . S
C1069 C1077 1.433 . S
C1070 H1066 0.929 . S
C1070 C1072 1.378 . S
C1070 C1074 1.350 . S
C1071 C1074 1.463 . S
C1071 C1076 1.350 . S
C1071 N1079 1.427 . S
C1072 H1063 0.930 . S
C1072 C1070 1.378 . S
C1072 C1073 1.367 . S
C1073 C1072 1.367 . S
C1073 C1075 1.433 . S
C1074 C1070 1.350 . S
C1074 C1071 1.463 . S
C1074 N1078 1.427 . S
C1075 H1065 0.929 . S
C1075 C1073 1.433 . S
C1075 N1078 1.384 . S
C1076 H1067 0.929 . S
C1076 C1068 1.378 . S
C1076 C1071 1.350 . S
C1077 H1064 0.929 . S
C1077 C1069 1.433 . S
C1077 N1079 1.384 . S
N1078 C1074 1.427 . S
N1078 C1075 1.384 . S
N1079 C1071 1.427 . S
N1079 C1077 1.384 . S
H1080 C1086 0.943 . S
H1081 C1090 0.930 . S
H1082 C1095 0.929 . S
H1083 C1093 0.929 . S
H1084 C1088 0.929 . S
H1085 C1094 0.929 1_545 S
C1086 H1080 0.943 . S
C1086 C1087 1.361 1_545 S
C1086 C1094 1.371 1_545 S
C1087 C1086 1.361 1_565 S
C1087 C1095 1.433 . S
C1088 H1084 0.929 . S
C1088 C1090 1.378 . S
C1088 C1092 1.350 . S
C1089 C1092 1.463 . S
C1089 C1094 1.350 . S
C1089 N1097 1.427 . S
C1090 H1081 0.930 . S
C1090 C1088 1.378 . S
C1090 C1091 1.367 . S
C1091 C1090 1.367 . S
C1091 C1093 1.433 . S
C1092 C1088 1.350 . S
C1092 C1089 1.463 . S
C1092 N1096 1.427 . S
C1093 H1083 0.929 . S
C1093 C1091 1.433 . S
C1093 N1096 1.384 . S
C1094 H1085 0.929 1_565 S
C1094 C1086 1.371 1_565 S
C1094 C1089 1.350 . S
C1095 H1082 0.929 . S
C1095 C1087 1.433 . S
C1095 N1097 1.384 . S
N1096 C1092 1.427 . S
N1096 C1093 1.384 . S
N1097 C1089 1.427 . S
N1097 C1095 1.384 . S
H1098 C1104 0.930 . S
H1099 C1108 0.930 . S
H1100 C1113 0.929 . S
H1101 C1111 0.929 . S
H1102 C1106 0.929 . S
H1103 C1112 0.929 . S
C1104 H1098 0.930 . S
C1104 C1105 1.367 . S
C1104 C1112 1.378 . S
C1105 C1104 1.367 . S
C1105 C1113 1.433 . S
C1106 H1102 0.929 . S
C1106 C1108 1.378 . S
C1106 C1110 1.350 . S
C1107 C1110 1.463 . S
C1107 C1112 1.350 . S
C1107 N1115 1.427 . S
C1108 H1099 0.930 . S
C1108 C1106 1.378 . S
C1108 C1109 1.367 . S
C1109 C1108 1.367 . S
C1109 C1111 1.433 . S
C1110 C1106 1.350 . S
C1110 C1107 1.463 . S
C1110 N1114 1.427 . S
C1111 H1101 0.929 . S
C1111 C1109 1.433 . S
C1111 N1114 1.384 . S
C1112 H1103 0.929 . S
C1112 C1104 1.378 . S
C1112 C1107 1.350 . S
C1113 H1100 0.929 . S
C1113 C1105 1.433 . S
C1113 N1115 1.384 . S
N1114 C1110 1.427 . S
N1114 C1111 1.384 . S
N1115 C1107 1.427 . S
N1115 C1113 1.384 . S
H1116 C1122 0.930 . S
H1117 C1126 0.930 . S
H1118 C1131 0.929 . S
H1119 C1129 0.929 . S
H1120 C1124 0.929 . S
H1121 C1130 0.929 . S
C1122 H1116 0.930 . S
C1122 C1123 1.367 . S
C1122 C1130 1.378 . S
C1123 C1122 1.367 . S
C1123 C1131 1.433 . S
C1124 H1120 0.929 . S
C1124 C1126 1.378 . S
C1124 C1128 1.350 . S
C1125 C1128 1.463 . S
C1125 C1130 1.350 . S
C1125 N1133 1.427 . S
C1126 H1117 0.930 . S
C1126 C1124 1.378 . S
C1126 C1127 1.367 . S
C1127 C1126 1.367 . S
C1127 C1129 1.433 . S
C1128 C1124 1.350 . S
C1128 C1125 1.463 . S
C1128 N1132 1.427 . S
C1129 H1119 0.929 . S
C1129 C1127 1.433 . S
C1129 N1132 1.384 . S
C1130 H1121 0.929 . S
C1130 C1122 1.378 . S
C1130 C1125 1.350 . S
C1131 H1118 0.929 . S
C1131 C1123 1.433 . S
C1131 N1133 1.384 . S
N1132 C1128 1.427 . S
N1132 C1129 1.384 . S
N1133 C1125 1.427 . S
N1133 C1131 1.384 . S
H1134 C1140 0.930 . S
H1135 C1144 0.930 . S
H1136 C1149 0.929 . S
H1137 C1147 0.929 . S
H1138 C1142 0.929 . S
H1139 C1148 0.929 . S
C1140 H1134 0.930 . S
C1140 C1141 1.367 . S
C1140 C1148 1.378 . S
C1141 C1140 1.367 . S
C1141 C1149 1.433 1_565 S
C1142 H1138 0.929 . S
C1142 C1144 1.378 . S
C1142 C1146 1.350 . S
C1143 C1146 1.463 . S
C1143 C1148 1.350 1_545 S
C1143 N1151 1.427 . S
C1144 H1135 0.930 . S
C1144 C1142 1.378 . S
C1144 C1145 1.367 . S
C1145 C1144 1.367 . S
C1145 C1147 1.433 . S
C1146 C1142 1.350 . S
C1146 C1143 1.463 . S
C1146 N1150 1.427 . S
C1147 H1137 0.929 . S
C1147 C1145 1.433 . S
C1147 N1150 1.384 . S
C1148 H1139 0.929 . S
C1148 C1140 1.378 . S
C1148 C1143 1.350 1_565 S
C1149 H1136 0.929 . S
C1149 C1141 1.433 1_545 S
C1149 N1151 1.384 . S
N1150 C1146 1.427 . S
N1150 C1147 1.384 . S
N1151 C1143 1.427 . S
N1151 C1149 1.384 . S
H1152 C1158 0.930 . S
H1153 C1162 0.930 . S
H1154 C1167 0.929 1_565 S
H1155 C1165 0.929 . S
H1156 C1160 0.929 . S
H1157 C1166 0.929 . S
C1158 H1152 0.930 . S
C1158 C1159 1.295 1_545 S
C1158 C1166 1.378 . S
C1159 C1158 1.295 1_565 S
C1159 C1167 1.460 1_565 S
C1160 H1156 0.929 . S
C1160 C1162 1.378 . S
C1160 C1164 1.350 . S
C1161 C1164 1.463 . S
C1161 C1166 1.350 . S
C1161 N1169 1.427 . S
C1162 H1153 0.930 . S
C1162 C1160 1.378 . S
C1162 C1163 1.367 . S
C1163 C1162 1.367 . S
C1163 C1165 1.433 . S
C1164 C1160 1.350 . S
C1164 C1161 1.463 . S
C1164 N1168 1.427 . S
C1165 H1155 0.929 . S
C1165 C1163 1.433 . S
C1165 N1168 1.384 . S
C1166 H1157 0.929 . S
C1166 C1158 1.378 . S
C1166 C1161 1.350 . S
C1167 H1154 0.929 1_545 S
C1167 C1159 1.460 1_545 S
C1167 N1169 1.384 . S
N1168 C1164 1.427 . S
N1168 C1165 1.384 . S
N1169 C1161 1.427 . S
N1169 C1167 1.384 . S
H1170 C1176 0.930 . S
H1171 C1180 0.930 . S
H1172 C1185 0.929 . S
H1173 C1183 0.929 . S
H1174 C1178 0.929 . S
H1175 C1184 0.929 . S
C1176 H1170 0.930 . S
C1176 C1177 1.367 . S
C1176 C1184 1.378 . S
C1177 C1176 1.367 . S
C1177 C1185 1.433 . S
C1178 H1174 0.929 . S
C1178 C1180 1.378 . S
C1178 C1182 1.350 . S
C1179 C1182 1.463 . S
C1179 C1184 1.350 . S
C1179 N1187 1.427 . S
C1180 H1171 0.930 . S
C1180 C1178 1.378 . S
C1180 C1181 1.367 . S
C1181 C1180 1.367 . S
C1181 C1183 1.433 . S
C1182 C1178 1.350 . S
C1182 C1179 1.463 . S
C1182 N1186 1.427 . S
C1183 H1173 0.929 . S
C1183 C1181 1.433 . S
C1183 N1186 1.384 . S
C1184 H1175 0.929 . S
C1184 C1176 1.378 . S
C1184 C1179 1.350 . S
C1185 H1172 0.929 . S
C1185 C1177 1.433 . S
C1185 N1187 1.384 . S
N1186 C1182 1.427 . S
N1186 C1183 1.384 . S
N1187 C1179 1.427 . S
N1187 C1185 1.384 . S
H1188 C1194 0.930 . S
H1189 C1198 0.930 . S
H1190 C1203 0.929 . S
H1191 C1201 0.929 . S
H1192 C1196 0.929 . S
H1193 C1202 0.929 . S
C1194 H1188 0.930 . S
C1194 C1195 1.367 . S
C1194 C1202 1.378 . S
C1195 C1194 1.367 . S
C1195 C1203 1.433 . S
C1196 H1192 0.929 . S
C1196 C1198 1.378 . S
C1196 C1200 1.350 . S
C1197 C1200 1.463 . S
C1197 C1202 1.350 . S
C1197 N1205 1.427 . S
C1198 H1189 0.930 . S
C1198 C1196 1.378 . S
C1198 C1199 1.367 . S
C1199 C1198 1.367 . S
C1199 C1201 1.433 . S
C1200 C1196 1.350 . S
C1200 C1197 1.463 . S
C1200 N1204 1.427 . S
C1201 H1191 0.929 . S
C1201 C1199 1.433 . S
C1201 N1204 1.384 . S
C1202 H1193 0.929 . S
C1202 C1194 1.378 . S
C1202 C1197 1.350 . S
C1203 H1190 0.929 . S
C1203 C1195 1.433 . S
C1203 N1205 1.384 . S
N1204 C1200 1.427 . S
N1204 C1201 1.384 . S
N1205 C1197 1.427 . S
N1205 C1203 1.384 . S
C727 C135 1.500 . S
C731 C15 1.501 . S
C745 C55 1.512 . S
C749 C175 1.513 . S
C763 C215 1.502 . S
C767 C95 1.501 . S
C781 C375 1.503 . S
C785 C255 1.503 . S
C799 C415 1.513 . S
C803 C295 1.514 . S
C817 C335 1.512 . S
C821 C455 1.512 . S
C835 C615 1.503 . S
C839 C495 1.503 . S
C853 C655 1.520 . S
C857 C535 1.520 . S
C871 C575 1.525 . S
C875 C695 1.518 . S
C889 C341 1.504 . S
C893 C2 1.504 . S
C907 C242 1.496 . S
C911 C61 1.491 . S
C925 C282 1.496 . S
C929 C82 1.506 . S
C943 C42 1.506 . S
C947 C562 1.520 . S
C961 C482 1.486 . S
C965 C101 1.492 . S
C979 C21 1.496 . S
C983 C541 1.488 . S
C997 C682 1.498 . S
C1001 C122 1.493 . S
C1015 C621 1.498 . S
C1019 C162 1.493 . S
C1033 C221 1.483 . S
C1037 C661 1.478 . S
C1051 C442 1.482 . S
C1055 C181 1.485 . S
C1069 C362 1.496 . S
C1073 C202 1.496 . S
C1087 C141 1.497 . S
C1091 C402 1.492 . S
C1105 C261 1.494 . S
C1109 C581 1.504 . S
C1123 C501 1.486 . S
C1127 C301 1.478 . S
C1141 C322 1.511 . S
C1145 C522 1.498 . S
C1159 C421 1.532 . S
C1163 C701 1.501 . S
C1177 C461 1.485 . S
C1181 C602 1.486 . S
C1195 C381 1.493 . S
C1199 C642 1.489 . S
