# Generated by pormake.
# Topology ftb, (5)-cn, num edge types: 1
# Building blocks:
#     Node 0, Type 0, BuildingBlock: XOMCOT_clean_sbu_0, # of connection points: 5
#     Node 1, Type 0, BuildingBlock: XOMCOT_clean_sbu_0, # of connection points: 5
#     Node 2, Type 0, BuildingBlock: XOMCOT_clean_sbu_0, # of connection points: 5
#     Node 3, Type 0, BuildingBlock: XOMCOT_clean_sbu_0, # of connection points: 5
#     Node 4, Type 0, BuildingBlock: XOMCOT_clean_sbu_0, # of connection points: 5
#     Node 5, Type 0, BuildingBlock: XOMCOT_clean_sbu_0, # of connection points: 5
#     Node 6, Type 0, BuildingBlock: XOMCOT_clean_sbu_0, # of connection points: 5
#     Node 7, Type 0, BuildingBlock: XOMCOT_clean_sbu_0, # of connection points: 5
#     Edge 8, Type (0, 0), BuildingBlock: EZIPEK_clean_linker_0, # of connection points: 2
#     Edge 9, Type (0, 0), BuildingBlock: EZIPEK_clean_linker_0, # of connection points: 2
#     Edge 10, Type (0, 0), BuildingBlock: EZIPEK_clean_linker_0, # of connection points: 2
#     Edge 11, Type (0, 0), BuildingBlock: EZIPEK_clean_linker_0, # of connection points: 2
#     Edge 12, Type (0, 0), BuildingBlock: EZIPEK_clean_linker_0, # of connection points: 2
#     Edge 13, Type (0, 0), BuildingBlock: EZIPEK_clean_linker_0, # of connection points: 2
#     Edge 14, Type (0, 0), BuildingBlock: EZIPEK_clean_linker_0, # of connection points: 2
#     Edge 15, Type (0, 0), BuildingBlock: EZIPEK_clean_linker_0, # of connection points: 2
#     Edge 16, Type (0, 0), BuildingBlock: EZIPEK_clean_linker_0, # of connection points: 2
#     Edge 17, Type (0, 0), BuildingBlock: EZIPEK_clean_linker_0, # of connection points: 2
#     Edge 18, Type (0, 0), BuildingBlock: EZIPEK_clean_linker_0, # of connection points: 2
#     Edge 19, Type (0, 0), BuildingBlock: EZIPEK_clean_linker_0, # of connection points: 2
#     Edge 20, Type (0, 0), BuildingBlock: EZIPEK_clean_linker_0, # of connection points: 2
#     Edge 21, Type (0, 0), BuildingBlock: EZIPEK_clean_linker_0, # of connection points: 2
#     Edge 22, Type (0, 0), BuildingBlock: EZIPEK_clean_linker_0, # of connection points: 2
#     Edge 23, Type (0, 0), BuildingBlock: EZIPEK_clean_linker_0, # of connection points: 2
#     Edge 24, Type (0, 0), BuildingBlock: EZIPEK_clean_linker_0, # of connection points: 2
#     Edge 25, Type (0, 0), BuildingBlock: EZIPEK_clean_linker_0, # of connection points: 2
#     Edge 26, Type (0, 0), BuildingBlock: EZIPEK_clean_linker_0, # of connection points: 2
#     Edge 27, Type (0, 0), BuildingBlock: EZIPEK_clean_linker_0, # of connection points: 2
# Relax obj value: 0.101
# Max RMSD: 0.188
# Mean RMSD: 0.188
data_MOF--net-ftb--node1-XOMCOT_clean_sbu_0--edge1-EZIPEK_clean_linker_0
_symmetry_space_group_name_H-M    P1
_symmetry_Int_Tables_number       1
_symmetry_cell_setting            triclinic
loop_
_symmetry_equiv_pos_as_xyz
'x, y, z'
_cell_length_a     42.473089
_cell_length_b     15.409526
_cell_length_c     22.474686
_cell_angle_alpha  89.640967
_cell_angle_beta   91.927807
_cell_angle_gamma 88.637521
loop_
_atom_site_label
_atom_site_type_symbol
_atom_site_fract_x
_atom_site_fract_y
_atom_site_fract_z
_atom_type_partial_charge
Co0 Co 0.31978 0.98547 0.07483 0.0
C1 C 0.31 0.88687 0.95953 0.0
C2 C 0.34453 0.98494 0.95332 0.0
C3 C 0.34495 0.93676 0.90236 0.0
N4 N 0.32289 0.95386 0.99026 0.0
N5 N 0.32343 0.87475 0.90615 0.0
H6 H 0.29244 0.8448 0.97653 0.0
H7 H 0.36154 0.03336 0.96441 0.0
C8 C 0.31669 0.17221 1.02228 0.0
O9 O 0.34464 0.1705 0.99934 0.0
N10 N 0.31781 0.01696 0.15825 0.0
C11 C 0.33389 0.97563 0.20331 0.0
C12 C 0.33195 0.02479 0.25408 0.0
C13 C 0.30614 0.0908 0.18235 0.0
N14 N 0.31466 0.09695 0.24061 0.0
C15 C 0.38442 0.93884 0.06561 0.0
C16 C 0.40889 0.09412 0.10469 0.0
C17 C 0.42934 0.02713 0.08723 0.0
C18 C 0.41694 0.94848 0.06823 0.0
C19 C 0.37638 0.08194 0.10082 0.0
N20 N 0.3646 0.00614 0.07951 0.0
H21 H 0.37494 0.87781 0.05089 0.0
H22 H 0.36068 0.13321 0.11481 0.0
H23 H 0.34766 0.91627 0.19875 0.0
H24 H 0.29315 0.14113 0.15758 0.0
O25 O 0.32062 0.86309 0.0977 0.0
O26 O 0.27768 0.94398 0.07703 0.0
O27 O 0.30649 0.10819 0.05158 0.0
C28 C 0.28996 0.86967 0.09434 0.0
H29 H 0.36124 0.94328 0.86663 0.0
H30 H 0.34334 0.0106 0.29696 0.0
H31 H 0.41798 0.1552 0.12049 0.0
H32 H 0.43229 0.89526 0.0552 0.0
Co33 Co 0.67139 1.00347 1.0234 0.0
C34 C 0.67024 0.86675 0.11805 0.0
C35 C 0.7038 0.96492 0.13909 0.0
C36 C 0.70321 0.90782 0.18633 0.0
N37 N 0.68276 0.94018 0.09652 0.0
N38 N 0.6821 0.84657 0.17308 0.0
H39 H 0.65286 0.82877 0.09446 0.0
H40 H 0.71848 0.02109 0.13657 0.0
C41 C 0.68653 0.19171 0.05369 0.0
O42 O 0.66814 0.22793 1.01215 0.0
N43 N 0.65937 0.06502 0.94943 0.0
C44 C 0.63161 0.0567 0.91906 0.0
C45 C 0.63117 0.10837 0.86898 0.0
C46 C 0.67598 0.11962 0.91561 0.0
N47 N 0.65891 0.14818 0.86706 0.0
C48 C 0.60902 0.94405 0.03955 0.0
C49 C 0.58408 0.09622 0.08495 0.0
C50 C 0.56432 0.02675 0.07344 0.0
C51 C 0.57706 0.94941 0.05161 0.0
C52 C 0.61601 0.088 0.07268 0.0
N53 N 0.62806 0.01324 0.04896 0.0
H54 H 0.61815 0.88515 1.0202 0.0
H55 H 0.63042 0.14303 0.08117 0.0
H56 H 0.61268 0.01599 0.93205 0.0
H57 H 0.69942 0.14076 0.92734 0.0
O58 O 0.67063 0.89433 0.98016 0.0
O59 O 0.71199 0.97628 0.99353 0.0
O60 O 0.68525 0.11122 0.06603 0.0
C61 C 0.70055 0.90553 0.97231 0.0
H62 H 0.71703 0.91083 0.22749 0.0
H63 H 0.61175 0.11754 0.83693 0.0
H64 H 0.57473 0.1569 0.10187 0.0
H65 H 0.56218 0.89476 0.04198 0.0
Co66 Co 0.31718 0.48421 0.5718 0.0
C67 C 0.31373 0.37653 0.45943 0.0
C68 C 0.27895 0.47895 0.46077 0.0
C69 C 0.27523 0.43531 0.40791 0.0
N70 N 0.30406 0.44527 0.49214 0.0
N71 N 0.29678 0.37004 0.40762 0.0
H72 H 0.33182 0.32983 0.47322 0.0
H73 H 0.26372 0.53083 0.47596 0.0
C74 C 0.31006 0.64966 0.49947 0.0
O75 O 0.32855 0.61656 0.45931 0.0
N76 N 0.32858 0.52374 0.65124 0.0
C77 C 0.35427 0.49951 0.68462 0.0
C78 C 0.35525 0.54908 0.73549 0.0
C79 C 0.31387 0.58621 0.68284 0.0
N80 N 0.32989 0.60362 0.73435 0.0
C81 C 0.3778 0.41911 0.53941 0.0
C82 C 0.40935 0.5734 0.54787 0.0
C83 C 0.42636 0.49667 0.53627 0.0
C84 C 0.4102 0.41915 0.53152 0.0
C85 C 0.37669 0.57053 0.55514 0.0
N86 N 0.3611 0.49415 0.54964 0.0
H87 H 0.36669 0.35727 0.54123 0.0
H88 H 0.36435 0.62872 0.56854 0.0
H89 H 0.37165 0.45128 0.67194 0.0
H90 H 0.29258 0.62062 0.66746 0.0
O91 O 0.31915 0.36516 0.59929 0.0
O92 O 0.2766 0.45062 0.59923 0.0
O93 O 0.30546 0.60826 0.54788 0.0
C94 C 0.28937 0.374 0.6095 0.0
H95 H 0.25723 0.44796 0.37347 0.0
H96 H 0.37363 0.54694 0.77008 0.0
H97 H 0.42137 0.6341 0.55369 0.0
H98 H 0.42281 0.3583 0.5246 0.0
Co99 Co 0.67353 0.50009 0.5195 0.0
C100 C 0.66875 0.41146 0.63524 0.0
C101 C 0.69723 0.52359 0.64497 0.0
C102 C 0.69772 0.47979 0.69867 0.0
N103 N 0.67901 0.48108 0.60507 0.0
N104 N 0.67986 0.40936 0.69227 0.0
H105 H 0.65445 0.36149 0.61524 0.0
H106 H 0.71179 0.57708 0.63497 0.0
C107 C 0.67939 0.69952 0.54093 0.0
O108 O 0.66221 0.77156 0.53815 0.0
N109 N 0.66708 0.51598 0.43316 0.0
C110 C 0.66611 0.45313 0.39149 0.0
C111 C 0.6637 0.49072 0.33562 0.0
C112 C 0.66361 0.59103 0.40151 0.0
N113 N 0.66254 0.5774 0.34225 0.0
C114 C 0.61276 0.42301 0.49356 0.0
C115 C 0.5796 0.53439 0.56629 0.0
C116 C 0.56292 0.47725 0.52979 0.0
C117 C 0.57977 0.41951 0.494 0.0
C118 C 0.61234 0.53581 0.56449 0.0
N119 N 0.62849 0.48311 0.52674 0.0
H120 H 0.62555 0.37835 0.46599 0.0
H121 H 0.62473 0.58053 0.59317 0.0
H122 H 0.66823 0.38426 0.40057 0.0
H123 H 0.66313 0.65516 0.4206 0.0
O124 O 0.68961 0.38158 0.50824 0.0
O125 O 0.71892 0.49798 0.51189 0.0
O126 O 0.66539 0.62881 0.52879 0.0
C127 C 0.71761 0.41435 0.50715 0.0
H128 H 0.71127 0.49602 0.73856 0.0
H129 H 0.66449 0.45738 0.29342 0.0
H130 H 0.56732 0.57847 0.59543 0.0
H131 H 0.56752 0.3731 0.46625 0.0
Co132 Co 0.82201 0.96809 0.56283 0.0
C133 C 0.80645 0.87817 0.44671 0.0
C134 C 0.84385 0.96776 0.43917 0.0
C135 C 0.84107 0.92334 0.38682 0.0
N136 N 0.82232 0.93986 0.4776 0.0
N137 N 0.81787 0.86654 0.39173 0.0
H138 H 0.78813 0.83935 0.46442 0.0
H139 H 0.8627 0.01121 0.44963 0.0
C140 C 0.81728 0.15408 0.50981 0.0
O141 O 0.84259 0.14897 0.47818 0.0
N142 N 0.82274 0.99654 0.64668 0.0
C143 C 0.83897 0.95231 0.69022 0.0
C144 C 0.83758 0.99884 0.74226 0.0
C145 C 0.81173 0.06951 0.6727 0.0
N146 N 0.82069 0.07234 0.73075 0.0
C147 C 0.88528 0.91495 0.54859 0.0
C148 C 0.91289 0.07103 0.57636 0.0
C149 C 0.93165 1.00075 0.55807 0.0
C150 C 0.91771 0.92163 0.54532 0.0
C151 C 0.88032 0.06131 0.57937 0.0
N152 N 0.86693 0.98509 0.563 0.0
H153 H 0.87461 0.85413 0.53701 0.0
H154 H 0.86587 0.11483 0.59423 0.0
H155 H 0.85203 0.89215 0.684 0.0
H156 H 0.79832 0.1208 0.64975 0.0
O157 O 0.82251 0.84523 0.5834 0.0
O158 O 0.77975 0.92922 0.56863 0.0
O159 O 0.80923 0.09218 0.54344 0.0
C160 C 0.79193 0.85348 0.58289 0.0
H161 H 0.85637 0.92793 0.3494 0.0
H162 H 0.84888 0.98167 0.78475 0.0
H163 H 0.92327 0.13267 0.58736 0.0
H164 H 0.93175 0.86614 0.53152 0.0
Co165 Co 0.17505 0.01842 0.50762 0.0
C166 C 0.18285 0.9145 0.62024 0.0
C167 C 0.16096 0.03898 0.63425 0.0
C168 C 0.15946 0.99082 0.68596 0.0
N169 N 0.17596 0.99186 0.59291 0.0
N170 N 0.17311 0.91259 0.67683 0.0
H171 H 0.19251 0.85809 0.59833 0.0
H172 H 0.14886 0.10032 0.62563 0.0
C173 C 0.18285 0.21373 0.54723 0.0
O174 O 0.16656 0.28721 0.54288 0.0
N175 N 0.17238 0.0435 0.42227 0.0
C176 C 0.16039 0.98968 0.38058 0.0
C177 C 0.15704 0.03335 0.32689 0.0
C178 C 0.17539 0.12011 0.39327 0.0
N179 N 0.16691 0.11496 0.33489 0.0
C180 C 0.11672 0.93501 0.5267 0.0
C181 C 0.07855 0.07694 0.49429 0.0
C182 C 0.06505 0.00356 0.51859 0.0
C183 C 0.08422 0.93101 0.53364 0.0
C184 C 0.11099 0.07811 0.48795 0.0
N185 N 0.12972 0.00906 0.50621 0.0
H186 H 0.13163 0.87983 0.53964 0.0
H187 H 0.12103 0.13556 0.46945 0.0
H188 H 0.15318 0.92408 0.38923 0.0
H189 H 0.18142 0.18035 0.41454 0.0
O190 O 0.18756 0.89887 0.49054 0.0
O191 O 0.22037 0.00587 0.50633 0.0
O192 O 0.17014 0.14686 0.52395 0.0
C193 C 0.21653 0.92446 0.49491 0.0
H194 H 0.14716 0.00916 0.72555 0.0
H195 H 0.14751 0.00791 0.28544 0.0
H196 H 0.06414 0.13336 0.48135 0.0
H197 H 0.07424 0.87293 0.55185 0.0
Co198 Co 0.81665 0.49265 0.04703 0.0
C199 C 0.81629 0.36175 0.94838 0.0
C200 C 0.77686 0.45161 0.94325 0.0
C201 C 0.77459 0.39674 0.89539 0.0
N202 N 0.80309 0.43042 0.97625 0.0
N203 N 0.79939 0.34081 0.89871 0.0
H204 H 0.83755 0.32746 0.96355 0.0
H205 H 0.76045 0.50383 0.9533 0.0
C206 C 0.80325 0.68104 1.01496 0.0
O207 O 0.82074 0.71155 0.05878 0.0
N208 N 0.8295 0.55619 0.1188 0.0
C209 C 0.85903 0.57512 0.13816 0.0
C210 C 0.85747 0.62406 0.18902 0.0
C211 C 0.81057 0.59181 0.16 0.0
N212 N 0.82701 0.63528 0.20225 0.0
C213 C 0.87769 0.41371 0.03536 0.0
C214 C 0.90703 0.55481 0.98732 0.0
C215 C 0.92526 0.4807 1.0035 0.0
C216 C 0.90997 0.40858 1.02579 0.0
C217 C 0.87443 0.55644 0.99596 0.0
N218 N 0.86028 0.4873 1.02157 0.0
H219 H 0.86687 0.35866 0.05547 0.0
H220 H 0.86122 0.61514 0.98488 0.0
H221 H 0.88057 0.55551 0.11745 0.0
H222 H 0.78539 0.58703 0.15915 0.0
O223 O 0.81547 0.38641 0.09403 0.0
O224 O 0.77553 0.4777 0.0776 0.0
O225 O 0.80514 0.60146 1.00046 0.0
C226 C 0.78586 0.40576 0.10168 0.0
H227 H 0.75618 0.39738 0.86085 0.0
H228 H 0.87721 0.64979 0.21443 0.0
H229 H 0.91806 0.61184 0.96987 0.0
H230 H 0.92323 0.35004 0.03848 0.0
Co231 Co 0.1732 0.5199 1.00877 0.0
C232 C 0.1651 0.41097 0.11503 0.0
C233 C 0.18723 0.52955 0.13978 0.0
C234 C 0.18613 0.47717 0.18966 0.0
N235 N 0.1741 0.48812 0.09286 0.0
N236 N 0.1723 0.40272 0.17384 0.0
H237 H 0.15484 0.36019 0.08815 0.0
H238 H 0.19887 0.59033 0.1377 0.0
C239 C 0.17847 0.71612 0.04459 0.0
O240 O 0.16093 0.78753 0.04422 0.0
N241 N 0.17113 0.54893 0.92347 0.0
C242 C 0.17234 0.4929 0.87752 0.0
C243 C 0.17126 0.53878 0.82451 0.0
C244 C 0.16753 0.62817 0.89701 0.0
N245 N 0.16849 0.6237 0.83717 0.0
C246 C 0.11477 0.44018 0.97057 0.0
C247 C 0.07646 0.54569 0.03814 0.0
C248 C 0.06241 0.4844 1.00076 0.0
C249 C 0.08197 0.43 0.96735 0.0
C250 C 0.10914 0.55241 0.041 0.0
N251 N 0.12788 0.5022 1.00607 0.0
H252 H 0.12963 0.39812 0.94473 0.0
H253 H 0.1193 0.59799 0.07199 0.0
H254 H 0.17377 0.42308 0.88181 0.0
H255 H 0.16502 0.68878 0.92045 0.0
O256 O 0.1897 0.40316 0.99233 0.0
O257 O 0.21885 0.51726 1.00994 0.0
O258 O 0.16519 0.64695 1.02611 0.0
C259 C 0.21774 0.43466 0.99997 0.0
H260 H 0.19603 0.49084 0.23353 0.0
H261 H 0.17283 0.51215 0.78022 0.0
H262 H 0.0622 0.58746 0.06562 0.0
H263 H 0.07194 0.38057 0.93892 0.0
C264 C 0.32777 0.30228 0.32787 0.0
C265 C 0.30033 0.30468 0.36227 0.0
C266 C 0.2826 0.17032 0.31535 0.0
C267 C 0.30927 0.16923 0.27964 0.0
N268 N 0.35586 0.23662 0.24607 0.0
N269 N 0.24805 0.25305 0.37763 0.0
C270 C 0.33147 0.2363 0.28413 0.0
C271 C 0.27661 0.2426 0.35246 0.0
N272 N 0.35009 0.3636 0.3371 0.0
N273 N 0.26391 0.09955 0.31634 0.0
H274 H 0.24325 0.29978 0.40951 0.0
H275 H 0.22858 0.21754 0.3641 0.0
H276 H 0.26749 0.04601 0.28895 0.0
H277 H 0.24646 0.09147 0.3473 0.0
H278 H 0.37215 0.3615 0.31838 0.0
H279 H 0.34678 0.41629 0.36529 0.0
H280 H 0.37155 0.28705 0.24261 0.0
H281 H 0.35942 0.1874 0.21524 0.0
C282 C 0.69912 0.70936 0.22204 0.0
C283 C 0.67527 0.77329 0.21043 0.0
C284 C 0.64119 0.70021 0.28031 0.0
C285 C 0.66643 0.64206 0.29647 0.0
N286 N 0.72124 0.60032 0.29048 0.0
N287 N 0.62464 0.83622 0.23188 0.0
C288 C 0.69589 0.64871 0.26916 0.0
C289 C 0.64639 0.77022 0.24016 0.0
N290 N 0.72466 0.70607 0.18695 0.0
N291 N 0.61225 0.68739 0.30301 0.0
H292 H 0.62796 0.88804 0.20286 0.0
H293 H 0.60437 0.84278 0.2564 0.0
H294 H 0.60815 0.63684 0.33268 0.0
H295 H 0.59199 0.72237 0.28932 0.0
H296 H 0.7414 0.65583 0.1893 0.0
H297 H 0.72736 0.7492 0.1516 0.0
H298 H 0.74412 0.60872 0.27655 0.0
H299 H 0.71995 0.55724 0.32621 0.0
C300 C 0.3235 0.64998 0.83884 0.0
C301 C 0.32356 0.67113 0.77739 0.0
C302 C 0.31477 0.82432 0.80287 0.0
C303 C 0.31992 0.80443 0.86409 0.0
N304 N 0.33879 0.69872 0.93719 0.0
N305 N 0.32716 0.78324 0.7028 0.0
C306 C 0.32655 0.71713 0.8816 0.0
C307 C 0.32094 0.75964 0.75963 0.0
N308 N 0.32064 0.56578 0.85641 0.0
N309 N 0.30445 0.90564 0.78607 0.0
H310 H 0.33435 0.73884 0.67101 0.0
H311 H 0.32913 0.84787 0.68991 0.0
H312 H 0.29901 0.95342 0.81705 0.0
H313 H 0.29804 0.92205 0.74217 0.0
H314 H 0.3181 0.54793 0.9008 0.0
H315 H 0.3174 0.5157 0.82591 0.0
H316 H 0.34676 0.63665 0.95002 0.0
H317 H 0.34424 0.74681 0.96797 0.0
C318 C 0.69008 0.26056 0.73218 0.0
C319 C 0.6752 0.34346 0.73685 0.0
C320 C 0.65352 0.30034 0.83219 0.0
C321 C 0.66631 0.21536 0.82509 0.0
N322 N 0.69192 0.10965 0.76423 0.0
N323 N 0.6397 0.44008 0.78643 0.0
C324 C 0.68339 0.19416 0.77397 0.0
C325 C 0.6562 0.36292 0.78584 0.0
N326 N 0.71133 0.2464 0.68884 0.0
N327 N 0.63881 0.32073 0.88352 0.0
H328 H 0.64095 0.48627 0.7525 0.0
H329 H 0.62303 0.45578 0.81773 0.0
H330 H 0.63547 0.27507 0.91699 0.0
H331 H 0.63171 0.38347 0.89471 0.0
H332 H 0.72546 0.1904 0.68669 0.0
H333 H 0.71663 0.29401 0.6578 0.0
H334 H 0.70154 0.08796 0.72482 0.0
H335 H 0.6875 0.06019 0.79456 0.0
C336 C 0.83602 0.21193 0.7755 0.0
C337 C 0.8151 0.1418 0.77178 0.0
C338 C 0.78611 0.19926 0.85562 0.0
C339 C 0.80572 0.27215 0.85731 0.0
N340 N 0.84649 0.35556 0.8147 0.0
N341 N 0.76737 0.07559 0.7998 0.0
C342 C 0.83003 0.28057 0.81611 0.0
C343 C 0.78931 0.1375 0.8095 0.0
N344 N 0.86174 0.21173 0.74065 0.0
N345 N 0.76525 0.18768 0.89966 0.0
H346 H 0.76944 0.02853 0.76688 0.0
H347 H 0.74602 0.0757 0.82104 0.0
H348 H 0.76247 0.23201 0.9341 0.0
H349 H 0.75302 0.13063 0.90505 0.0
H350 H 0.87967 0.25639 0.7447 0.0
H351 H 0.86602 0.16314 0.70961 0.0
H352 H 0.86257 0.36983 0.78231 0.0
H353 H 0.84242 0.40658 0.84396 0.0
C354 C 0.14207 0.72386 0.76379 0.0
C355 C 0.16975 0.69551 0.79577 0.0
C356 C 0.19945 0.81179 0.74983 0.0
C357 C 0.17218 0.83768 0.71574 0.0
N358 N 0.11865 0.81311 0.68352 0.0
N359 N 0.22563 0.70299 0.8143 0.0
C360 C 0.14374 0.7921 0.72087 0.0
C361 C 0.19873 0.73696 0.78738 0.0
N362 N 0.11413 0.68652 0.77585 0.0
N363 N 0.2257 0.86086 0.74754 0.0
H364 H 0.22561 0.64864 0.84221 0.0
H365 H 0.24813 0.7244 0.80593 0.0
H366 H 0.22699 0.91482 0.7195 0.0
H367 H 0.2452 0.85193 0.77629 0.0
H368 H 0.09237 0.70883 0.7586 0.0
H369 H 0.11259 0.63583 0.80656 0.0
H370 H 0.09805 0.77792 0.68068 0.0
H371 H 0.11931 0.86294 0.65203 0.0
C372 C 0.79758 0.82345 0.29309 0.0
C373 C 0.81148 0.79929 0.349 0.0
C374 C 0.82434 0.65489 0.31034 0.0
C375 C 0.81562 0.68405 0.25224 0.0
N376 N 0.79199 0.79369 0.18721 0.0
N377 N 0.84091 0.69527 0.41026 0.0
C378 C 0.80106 0.76728 0.24339 0.0
C379 C 0.82497 0.71502 0.358 0.0
N380 N 0.7821 0.90197 0.28791 0.0
N381 N 0.8325 0.56951 0.31921 0.0
H382 H 0.84285 0.739 0.44527 0.0
H383 H 0.85416 0.6382 0.41732 0.0
H384 H 0.83205 0.52492 0.28441 0.0
H385 H 0.8366 0.54175 0.36121 0.0
H386 H 0.77099 0.92551 0.24902 0.0
H387 H 0.77914 0.94253 0.32445 0.0
H388 H 0.78382 0.85597 0.17599 0.0
H389 H 0.79292 0.75254 0.15087 0.0
C390 C 0.14484 0.25542 0.29557 0.0
C391 C 0.16652 0.18437 0.29108 0.0
C392 C 0.19112 0.25629 0.20707 0.0
C393 C 0.16932 0.32687 0.21121 0.0
N394 N 0.12308 0.39065 0.25269 0.0
N395 N 0.20621 0.10881 0.23598 0.0
C396 C 0.14549 0.32552 0.25376 0.0
C397 C 0.18836 0.18222 0.24461 0.0
N398 N 0.12351 0.25495 0.33971 0.0
N399 N 0.21535 0.26214 0.16894 0.0
H400 H 0.20584 0.05484 0.26404 0.0
H401 H 0.22005 0.09906 0.19914 0.0
H402 H 0.21749 0.3147 0.14014 0.0
H403 H 0.23439 0.21835 0.16851 0.0
H404 H 0.10907 0.30773 0.35015 0.0
H405 H 0.12069 0.20117 0.36722 0.0
H406 H 0.10345 0.39191 0.27912 0.0
H407 H 0.12318 0.4419 0.22212 0.0
C408 C 0.51078 0.06568 1.03021 0.0
C409 C 0.52986 0.03664 0.07982 0.0
C410 C 0.48289 0.00926 0.13683 0.0
C411 C 0.46384 0.03867 0.08731 0.0
N412 N 0.45872 0.10896 0.99126 0.0
N413 N 0.53533 0.99469 0.1831 0.0
C414 C 0.47756 0.07161 0.03539 0.0
C415 C 0.51625 0.01292 0.13414 0.0
N416 N 0.52444 0.08444 0.9775 0.0
N417 N 0.46899 0.97537 0.18554 0.0
H418 H 0.55987 0.99496 0.1821 0.0
H419 H 0.52708 0.98519 0.22566 0.0
H420 H 0.44462 0.97533 0.19 0.0
H421 H 0.48133 0.94347 0.22032 0.0
H422 H 0.51182 0.09563 0.9376 0.0
H423 H 0.54878 0.08399 0.97252 0.0
H424 H 0.46726 0.14246 0.95509 0.0
H425 H 0.4342 0.11227 0.99286 0.0
C426 C 0.4766 0.52098 0.48244 0.0
C427 C 0.46141 0.49472 0.53463 0.0
C428 C 0.51233 0.44609 0.57971 0.0
C429 C 0.52782 0.47906 0.5297 0.0
N430 N 0.52547 0.55983 0.43727 0.0
N431 N 0.46491 0.44589 0.63685 0.0
C432 C 0.51016 0.51971 0.48198 0.0
C433 C 0.47933 0.46109 0.58442 0.0
N434 N 0.45894 0.54484 0.43278 0.0
N435 N 0.52908 0.39829 0.62193 0.0
H436 H 0.44081 0.45639 0.64213 0.0
H437 H 0.47714 0.43027 0.67655 0.0
H438 H 0.55326 0.38572 0.6198 0.0
H439 H 0.51867 0.36468 0.65616 0.0
H440 H 0.46847 0.55516 0.39132 0.0
H441 H 0.43437 0.54818 0.43189 0.0
H442 H 0.51408 0.59894 0.40489 0.0
H443 H 0.54996 0.55958 0.43499 0.0
C444 C 0.00912 1.0013 0.48004 0.0
C445 C 0.03085 0.00416 0.52921 0.0
C446 C 0.98742 0.00652 0.59828 0.0
C447 C 0.96575 0.0095 0.54891 0.0
N448 N 0.95543 0.02734 0.44331 0.0
N449 N 0.0412 0.02601 0.63429 0.0
C450 C 0.97647 0.01234 0.48986 0.0
C451 C 0.02016 0.01155 0.5882 0.0
N452 N 0.01962 0.98485 0.42427 0.0
N453 N 0.97678 0.99587 0.65454 0.0
H454 H 0.06541 0.02999 0.62874 0.0
H455 H 0.03448 0.04123 0.67718 0.0
H456 H 0.95291 0.99357 0.66374 0.0
H457 H 0.99161 0.9831 0.69156 0.0
H458 H 0.00468 0.97275 0.38773 0.0
H459 H 0.04341 0.97567 0.41538 0.0
H460 H 0.96212 0.03896 0.39989 0.0
H461 H 0.93127 0.03619 0.44893 0.0
C462 C 0.97887 0.46897 0.05508 0.0
C463 C 0.96046 0.48003 1.00145 0.0
C464 C 0.00906 0.49677 0.94645 0.0
C465 C 0.02733 0.47656 0.99912 0.0
N466 N 0.02899 0.42191 0.10005 0.0
N467 N 0.95843 0.48643 0.89409 0.0
C468 C 0.012 0.45595 0.05236 0.0
C469 C 0.97567 0.48863 0.94645 0.0
N470 N 0.96499 0.47499 0.10895 0.0
N471 N 0.02329 0.52748 0.8972 0.0
H472 H 0.93407 0.47905 0.89224 0.0
H473 H 0.96863 0.4836 0.85261 0.0
H474 H 0.04753 0.53594 0.89556 0.0
H475 H 0.01076 0.55194 0.85989 0.0
H476 H 0.97782 0.47596 0.14928 0.0
H477 H 0.941 0.48847 0.11328 0.0
H478 H 0.01855 0.39806 0.13794 0.0
H479 H 0.05319 0.40893 0.09918 0.0
C480 C 0.25346 0.32381 0.95288 0.0
C481 C 0.24687 0.37791 1.00197 0.0
C482 C 0.29259 0.31194 0.05724 0.0
C483 C 0.29525 0.24849 1.01227 0.0
N484 N 0.27734 0.18981 0.91824 0.0
N485 N 0.2608 0.42468 0.10195 0.0
C486 C 0.27553 0.25345 0.96019 0.0
C487 C 0.26693 0.37333 0.05417 0.0
N488 N 0.24006 0.34311 0.89827 0.0
N489 N 0.31487 0.31393 0.10254 0.0
H490 H 0.24337 0.47301 0.10134 0.0
H491 H 0.27167 0.41596 0.14383 0.0
H492 H 0.33381 0.26968 0.1059 0.0
H493 H 0.31633 0.36344 0.13374 0.0
H494 H 0.24574 0.3105 0.85947 0.0
H495 H 0.22658 0.39954 0.89074 0.0
H496 H 0.26103 0.18444 0.88288 0.0
H497 H 0.29399 0.13892 0.92092 0.0
C498 C 0.78001 0.80489 0.95243 0.0
C499 C 0.77581 0.73308 0.99075 0.0
C500 C 0.71859 0.75198 0.97717 0.0
C501 C 0.7229 0.83557 0.95421 0.0
N502 N 0.75651 0.9357 0.90679 0.0
N503 N 0.74024 0.64734 0.04732 0.0
C504 C 0.75336 0.85929 0.93659 0.0
C505 C 0.74481 0.70776 1.00427 0.0
N506 N 0.80918 0.82073 0.9316 0.0
N507 N 0.68953 0.71622 0.97484 0.0
H508 H 0.75875 0.62431 0.0746 0.0
H509 H 0.71805 0.631 0.06168 0.0
H510 H 0.67052 0.74593 0.95146 0.0
H511 H 0.68567 0.65273 0.98861 0.0
H512 H 0.81346 0.86821 0.89994 0.0
H513 H 0.82896 0.78209 0.94336 0.0
H514 H 0.77805 0.96336 0.89853 0.0
H515 H 0.73672 0.97184 0.89152 0.0
C516 C 0.21445 0.76515 0.12671 0.0
C517 C 0.21111 0.72241 0.07083 0.0
C518 C 0.26808 0.73053 0.06162 0.0
C519 C 0.26896 0.79618 0.10449 0.0
N520 N 0.24443 0.86853 0.18555 0.0
N521 N 0.23636 0.67944 0.98011 0.0
C522 C 0.24269 0.80971 0.14047 0.0
C523 C 0.23848 0.70658 0.03742 0.0
N524 N 0.19033 0.76498 0.1654 0.0
N525 N 0.29528 0.69453 0.04187 0.0
H526 H 0.21493 0.66702 0.95936 0.0
H527 H 0.25569 0.67603 0.95267 0.0
H528 H 0.3172 0.71129 0.06017 0.0
H529 H 0.29531 0.64161 1.01312 0.0
H530 H 0.19218 0.78994 0.2083 0.0
H531 H 0.16952 0.73206 0.15634 0.0
H532 H 0.22504 0.88948 0.20926 0.0
H533 H 0.26554 0.89827 0.19753 0.0
C534 C 0.74403 0.20928 0.0791 0.0
C535 C 0.71236 0.24128 0.08226 0.0
C536 C 0.73148 0.37157 0.1321 0.0
C537 C 0.76278 0.34211 0.12223 0.0
N538 N 0.79713 0.21651 0.12104 0.0
N539 N 0.67547 0.34057 0.12683 0.0
C540 C 0.7684 0.25472 0.10826 0.0
C541 C 0.70583 0.31865 0.11397 0.0
N542 N 0.75143 0.14083 0.0436 0.0
N543 N 0.72677 0.45094 0.15731 0.0
H544 H 0.6565 0.30192 0.11459 0.0
H545 H 0.66916 0.39342 0.15281 0.0
H546 H 0.7456 0.48558 0.17528 0.0
H547 H 0.70487 0.48193 0.16053 0.0
H548 H 0.77453 0.12004 0.03658 0.0
H549 H 0.73498 0.11317 1.01482 0.0
H550 H 0.8018 0.15059 0.11445 0.0
H551 H 0.81456 0.24865 0.14552 0.0
C552 C 0.26816 0.85892 0.53491 0.0
C553 C 0.24385 0.86293 0.48983 0.0
C554 C 0.26794 0.73686 0.44082 0.0
C555 C 0.29147 0.7315 0.48733 0.0
N556 N 0.32124 0.80901 0.56121 0.0
N557 N 0.22696 0.82449 0.3902 0.0
C558 C 0.29383 0.79939 0.52894 0.0
C559 C 0.24561 0.80741 0.43979 0.0
N560 N 0.26608 0.90747 0.58537 0.0
N561 N 0.26632 0.67404 0.39835 0.0
H562 H 0.21153 0.87794 0.38708 0.0
H563 H 0.2292 0.7918 0.3501 0.0
H564 H 0.28391 0.62689 0.39323 0.0
H565 H 0.24699 0.66723 0.36913 0.0
H566 H 0.28166 0.89914 0.62191 0.0
H567 H 0.24743 0.95034 0.59338 0.0
H568 H 0.32584 0.86448 0.58599 0.0
H569 H 0.34067 0.76723 0.55651 0.0
C570 C 0.76804 0.34992 0.55423 0.0
C571 C 0.74682 0.35869 0.50403 0.0
C572 C 0.77498 0.24057 0.45404 0.0
C573 C 0.79579 0.23096 0.50445 0.0
N574 N 0.81702 0.28764 0.59641 0.0
N575 N 0.73792 0.33515 0.39928 0.0
C576 C 0.7938 0.28922 0.55272 0.0
C577 C 0.75255 0.31054 0.45183 0.0
N578 N 0.7632 0.39804 0.60394 0.0
N579 N 0.77585 0.18118 0.40915 0.0
H580 H 0.7242 0.39185 0.39561 0.0
H581 H 0.74284 0.307 0.35851 0.0
H582 H 0.79238 0.13008 0.40838 0.0
H583 H 0.75879 0.17911 0.37482 0.0
H584 H 0.77459 0.3859 0.64499 0.0
H585 H 0.74688 0.44901 0.60457 0.0
H586 H 0.81877 0.33322 0.63025 0.0
H587 H 0.83631 0.24463 0.59591 0.0
C588 C 0.24273 0.19947 0.55192 0.0
C589 C 0.21384 0.21629 0.58038 0.0
C590 C 0.24171 0.30915 0.65217 0.0
C591 C 0.26919 0.29811 0.61924 0.0
N592 N 0.29961 0.19534 0.56328 0.0
N593 N 0.18865 0.26237 0.66994 0.0
C594 C 0.27108 0.22901 0.57866 0.0
C595 C 0.21452 0.26155 0.63552 0.0
N596 N 0.24313 0.16563 0.49633 0.0
N597 N 0.24134 0.36856 0.69693 0.0
H598 H 0.16823 0.2299 0.6576 0.0
H599 H 0.18834 0.28905 0.71237 0.0
H600 H 0.26175 0.40019 0.71096 0.0
H601 H 0.2211 0.38769 0.71873 0.0
H602 H 0.26367 0.15728 0.47272 0.0
H603 H 0.22263 0.15229 0.47236 0.0
H604 H 0.30186 0.1416 0.53563 0.0
H605 H 0.32054 0.21333 0.58485 0.0
C606 C 0.71706 0.74927 0.61954 0.0
C607 C 0.71244 0.70675 0.56397 0.0
C608 C 0.7689 0.71655 0.54824 0.0
C609 C 0.77084 0.78033 0.59255 0.0
N610 N 0.74887 0.84948 0.67745 0.0
N611 N 0.73485 0.66059 0.47135 0.0
C612 C 0.7457 0.7927 0.63136 0.0
C613 C 0.73874 0.69093 0.5277 0.0
N614 N 0.69382 0.749 0.66013 0.0
N615 N 0.79558 0.68393 0.52388 0.0
H616 H 0.71303 0.64401 0.45399 0.0
H617 H 0.75294 0.65789 0.4411 0.0
H618 H 0.81793 0.70121 0.53961 0.0
H619 H 0.79528 0.633 0.49353 0.0
H620 H 0.69657 0.77348 0.70301 0.0
H621 H 0.6728 0.71639 0.65257 0.0
H622 H 0.73029 0.86997 0.70342 0.0
H623 H 0.77037 0.87802 0.68817 0.0
loop_
_geom_bond_atom_site_label_1
_geom_bond_atom_site_label_2
_geom_bond_distance
_geom_bond_site_symmetry_2
_ccdc_geom_bond_type
Co0 N4 2.148 1_554 S
Co0 N10 2.128 1_565 S
Co0 N20 2.194 . S
Co0 O25 2.351 . S
Co0 O26 2.155 . S
Co0 O27 2.096 1_564 S
C1 N4 1.301 . S
C1 N5 1.328 . S
C1 H6 0.930 . S
C2 C3 1.333 1_545 S
C2 N4 1.317 1_545 S
C2 H7 0.930 . S
C3 C2 1.333 1_565 S
C3 N5 1.350 . S
C3 H29 0.931 . S
N4 Co0 2.148 1_556 S
N4 C1 1.301 . S
N4 C2 1.317 1_565 S
N5 C1 1.328 . S
N5 C3 1.350 . S
H6 C1 0.930 . S
H7 C2 0.930 . S
C8 O9 1.224 . S
C8 O27 1.247 . S
O9 C8 1.224 . S
N10 Co0 2.128 1_545 S
N10 C11 1.355 . S
N10 C13 1.311 . S
C11 N10 1.355 . S
C11 C12 1.364 . S
C11 H23 0.928 1_545 S
C12 C11 1.364 . S
C12 N14 1.375 . S
C12 H30 0.931 . S
C13 N10 1.311 . S
C13 N14 1.347 . S
C13 H24 0.929 . S
N14 C12 1.375 . S
N14 C13 1.347 . S
C15 C18 1.365 . S
C15 N20 1.329 . S
C15 H21 0.929 . S
C16 C17 1.362 1_556 S
C16 C19 1.378 . S
C16 H31 0.929 . S
C17 C16 1.362 1_554 S
C17 C18 1.366 1_545 S
C18 C15 1.365 . S
C18 C17 1.366 1_565 S
C18 H32 0.930 . S
C19 C16 1.378 . S
C19 N20 1.314 1_546 S
C19 H22 0.930 . S
N20 Co0 2.194 . S
N20 C15 1.329 . S
N20 C19 1.314 1_564 S
H21 C15 0.929 . S
H22 C19 0.930 . S
H23 C11 0.928 1_565 S
H24 C13 0.929 . S
O25 Co0 2.351 . S
O25 C28 1.244 . S
O26 Co0 2.155 . S
O26 C28 1.240 . S
O27 Co0 2.096 1_546 S
O27 C8 1.247 . S
C28 O25 1.244 . S
C28 O26 1.240 . S
H29 C3 0.931 . S
H30 C12 0.931 . S
H31 C16 0.929 . S
H32 C18 0.930 . S
Co33 N37 2.148 . S
Co33 N43 2.128 1_564 S
Co33 N53 2.194 . S
Co33 O58 2.351 1_554 S
Co33 O59 2.155 1_554 S
Co33 O60 2.096 1_565 S
C34 N37 1.301 . S
C34 N38 1.328 . S
C34 H39 0.930 . S
C35 C36 1.333 1_545 S
C35 N37 1.317 1_545 S
C35 H40 0.930 . S
C36 C35 1.333 1_565 S
C36 N38 1.350 . S
C36 H62 0.931 . S
N37 Co33 2.148 . S
N37 C34 1.301 . S
N37 C35 1.317 1_565 S
N38 C34 1.328 . S
N38 C36 1.350 . S
H39 C34 0.930 . S
H40 C35 0.930 . S
C41 O42 1.224 . S
C41 O60 1.247 . S
O42 C41 1.224 . S
N43 Co33 2.128 1_546 S
N43 C44 1.355 . S
N43 C46 1.311 . S
C44 N43 1.355 . S
C44 C45 1.363 . S
C44 H56 0.929 1_545 S
C45 C44 1.363 . S
C45 N47 1.375 . S
C45 H63 0.931 . S
C46 N43 1.311 . S
C46 N47 1.347 . S
C46 H57 0.929 . S
N47 C45 1.375 . S
N47 C46 1.347 . S
C48 C51 1.365 . S
C48 N53 1.328 . S
C48 H54 0.929 . S
C49 C50 1.362 . S
C49 C52 1.378 . S
C49 H64 0.929 . S
C50 C49 1.362 . S
C50 C51 1.366 1_545 S
C51 C48 1.365 . S
C51 C50 1.366 1_565 S
C51 H65 0.930 . S
C52 C49 1.378 . S
C52 N53 1.315 1_545 S
C52 H55 0.930 . S
N53 Co33 2.194 . S
N53 C48 1.328 . S
N53 C52 1.315 1_565 S
H54 C48 0.929 . S
H55 C52 0.930 . S
H56 C44 0.929 1_565 S
H57 C46 0.929 . S
O58 Co33 2.351 1_556 S
O58 C61 1.244 . S
O59 Co33 2.155 1_556 S
O59 C61 1.240 . S
O60 Co33 2.096 1_545 S
O60 C41 1.247 . S
C61 O58 1.244 . S
C61 O59 1.240 . S
H62 C36 0.931 . S
H63 C45 0.931 . S
H64 C49 0.929 . S
H65 C51 0.930 . S
Co66 N70 2.148 . S
Co66 N76 2.128 . S
Co66 N86 2.194 . S
Co66 O91 2.351 . S
Co66 O92 2.155 . S
Co66 O93 2.096 . S
C67 N70 1.301 . S
C67 N71 1.328 . S
C67 H72 0.930 . S
C68 C69 1.333 . S
C68 N70 1.317 . S
C68 H73 0.930 . S
C69 C68 1.333 . S
C69 N71 1.350 . S
C69 H95 0.931 . S
N70 Co66 2.148 . S
N70 C67 1.301 . S
N70 C68 1.317 . S
N71 C67 1.328 . S
N71 C69 1.350 . S
H72 C67 0.930 . S
H73 C68 0.930 . S
C74 O75 1.224 . S
C74 O93 1.247 . S
O75 C74 1.224 . S
N76 Co66 2.128 . S
N76 C77 1.355 . S
N76 C79 1.311 . S
C77 N76 1.355 . S
C77 C78 1.363 . S
C77 H89 0.929 . S
C78 C77 1.363 . S
C78 N80 1.375 . S
C78 H96 0.931 . S
C79 N76 1.311 . S
C79 N80 1.347 . S
C79 H90 0.929 . S
N80 C78 1.375 . S
N80 C79 1.347 . S
C81 C84 1.365 . S
C81 N86 1.328 . S
C81 H87 0.929 . S
C82 C83 1.362 . S
C82 C85 1.378 . S
C82 H97 0.929 . S
C83 C82 1.362 . S
C83 C84 1.366 . S
C84 C81 1.365 . S
C84 C83 1.366 . S
C84 H98 0.930 . S
C85 C82 1.378 . S
C85 N86 1.315 . S
C85 H88 0.930 . S
N86 Co66 2.194 . S
N86 C81 1.328 . S
N86 C85 1.315 . S
H87 C81 0.929 . S
H88 C85 0.930 . S
H89 C77 0.929 . S
H90 C79 0.929 . S
O91 Co66 2.351 . S
O91 C94 1.244 . S
O92 Co66 2.155 . S
O92 C94 1.240 . S
O93 Co66 2.096 . S
O93 C74 1.247 . S
C94 O91 1.244 . S
C94 O92 1.240 . S
H95 C69 0.931 . S
H96 C78 0.931 . S
H97 C82 0.929 . S
H98 C84 0.930 . S
Co99 N103 2.148 . S
Co99 N109 2.128 . S
Co99 N119 2.194 . S
Co99 O124 2.351 . S
Co99 O125 2.155 . S
Co99 O126 2.096 . S
C100 N103 1.301 . S
C100 N104 1.328 . S
C100 H105 0.930 . S
C101 C102 1.333 . S
C101 N103 1.317 . S
C101 H106 0.930 . S
C102 C101 1.333 . S
C102 N104 1.350 . S
C102 H128 0.931 . S
N103 Co99 2.148 . S
N103 C100 1.301 . S
N103 C101 1.317 . S
N104 C100 1.328 . S
N104 C102 1.350 . S
H105 C100 0.930 . S
H106 C101 0.930 . S
C107 O108 1.224 . S
C107 O126 1.247 . S
O108 C107 1.224 . S
N109 Co99 2.128 . S
N109 C110 1.355 . S
N109 C112 1.311 . S
C110 N109 1.355 . S
C110 C111 1.363 . S
C110 H122 0.929 . S
C111 C110 1.363 . S
C111 N113 1.375 . S
C111 H129 0.931 . S
C112 N109 1.311 . S
C112 N113 1.347 . S
C112 H123 0.929 . S
N113 C111 1.375 . S
N113 C112 1.347 . S
C114 C117 1.365 . S
C114 N119 1.328 . S
C114 H120 0.929 . S
C115 C116 1.362 . S
C115 C118 1.378 . S
C115 H130 0.929 . S
C116 C115 1.362 . S
C116 C117 1.366 . S
C117 C114 1.365 . S
C117 C116 1.366 . S
C117 H131 0.930 . S
C118 C115 1.378 . S
C118 N119 1.315 . S
C118 H121 0.930 . S
N119 Co99 2.194 . S
N119 C114 1.328 . S
N119 C118 1.315 . S
H120 C114 0.929 . S
H121 C118 0.930 . S
H122 C110 0.929 . S
H123 C112 0.929 . S
O124 Co99 2.351 . S
O124 C127 1.244 . S
O125 Co99 2.155 . S
O125 C127 1.240 . S
O126 Co99 2.096 . S
O126 C107 1.247 . S
C127 O124 1.244 . S
C127 O125 1.240 . S
H128 C102 0.931 . S
H129 C111 0.931 . S
H130 C115 0.929 . S
H131 C117 0.930 . S
Co132 N136 2.148 . S
Co132 N142 2.128 1_565 S
Co132 N152 2.194 . S
Co132 O157 2.351 . S
Co132 O158 2.155 . S
Co132 O159 2.096 1_565 S
C133 N136 1.301 . S
C133 N137 1.328 . S
C133 H138 0.930 . S
C134 C135 1.333 1_545 S
C134 N136 1.317 1_545 S
C134 H139 0.930 . S
C135 C134 1.333 1_565 S
C135 N137 1.350 . S
C135 H161 0.931 . S
N136 Co132 2.148 . S
N136 C133 1.301 . S
N136 C134 1.317 1_565 S
N137 C133 1.328 . S
N137 C135 1.350 . S
H138 C133 0.930 . S
H139 C134 0.930 . S
C140 O141 1.224 . S
C140 O159 1.247 . S
O141 C140 1.224 . S
N142 Co132 2.128 1_545 S
N142 C143 1.355 . S
N142 C145 1.311 . S
C143 N142 1.355 . S
C143 C144 1.364 . S
C143 H155 0.928 1_545 S
C144 C143 1.364 . S
C144 N146 1.375 . S
C144 H162 0.931 . S
C145 N142 1.311 . S
C145 N146 1.347 . S
C145 H156 0.929 . S
N146 C144 1.375 . S
N146 C145 1.347 . S
C147 C150 1.365 . S
C147 N152 1.328 . S
C147 H153 0.929 . S
C148 C149 1.362 . S
C148 C151 1.378 . S
C148 H163 0.929 . S
C149 C148 1.362 . S
C149 C150 1.366 1_545 S
C150 C147 1.365 . S
C150 C149 1.366 1_565 S
C150 H164 0.930 . S
C151 C148 1.378 . S
C151 N152 1.315 1_545 S
C151 H154 0.930 . S
N152 Co132 2.194 . S
N152 C147 1.328 . S
N152 C151 1.315 1_565 S
H153 C147 0.929 . S
H154 C151 0.930 . S
H155 C143 0.928 1_565 S
H156 C145 0.929 . S
O157 Co132 2.351 . S
O157 C160 1.244 . S
O158 Co132 2.155 . S
O158 C160 1.240 . S
O159 Co132 2.096 1_545 S
O159 C140 1.247 . S
C160 O157 1.244 . S
C160 O158 1.240 . S
H161 C135 0.931 . S
H162 C144 0.931 . S
H163 C148 0.929 . S
H164 C150 0.930 . S
Co165 N169 2.148 . S
Co165 N175 2.128 1_565 S
Co165 N185 2.194 . S
Co165 O190 2.351 . S
Co165 O191 2.155 . S
Co165 O192 2.096 1_565 S
C166 N169 1.301 . S
C166 N170 1.328 . S
C166 H171 0.930 . S
C167 C168 1.333 1_545 S
C167 N169 1.317 1_545 S
C167 H172 0.930 . S
C168 C167 1.333 1_565 S
C168 N170 1.350 . S
C168 H194 0.931 . S
N169 Co165 2.148 . S
N169 C166 1.301 . S
N169 C167 1.317 1_565 S
N170 C166 1.328 . S
N170 C168 1.350 . S
H171 C166 0.930 . S
H172 C167 0.930 . S
C173 O174 1.224 . S
C173 O192 1.247 . S
O174 C173 1.224 . S
N175 Co165 2.128 1_545 S
N175 C176 1.356 . S
N175 C178 1.311 . S
C176 N175 1.356 . S
C176 C177 1.364 . S
C176 H188 0.927 1_545 S
C177 C176 1.364 . S
C177 N179 1.375 . S
C177 H195 0.931 . S
C178 N175 1.311 . S
C178 N179 1.347 . S
C178 H189 0.929 . S
N179 C177 1.375 . S
N179 C178 1.347 . S
C180 C183 1.365 . S
C180 N185 1.328 . S
C180 H186 0.929 . S
C181 C182 1.362 . S
C181 C184 1.378 . S
C181 H196 0.929 . S
C182 C181 1.362 . S
C182 C183 1.366 1_545 S
C183 C180 1.365 . S
C183 C182 1.366 1_565 S
C183 H197 0.930 . S
C184 C181 1.378 . S
C184 N185 1.315 1_545 S
C184 H187 0.930 . S
N185 Co165 2.194 . S
N185 C180 1.328 . S
N185 C184 1.315 1_565 S
H186 C180 0.929 . S
H187 C184 0.930 . S
H188 C176 0.927 1_565 S
H189 C178 0.929 . S
O190 Co165 2.351 . S
O190 C193 1.244 . S
O191 Co165 2.155 . S
O191 C193 1.240 . S
O192 Co165 2.096 1_545 S
O192 C173 1.247 . S
C193 O190 1.244 . S
C193 O191 1.240 . S
H194 C168 0.931 . S
H195 C177 0.931 . S
H196 C181 0.929 . S
H197 C183 0.930 . S
Co198 N202 2.148 1_554 S
Co198 N208 2.128 . S
Co198 N218 2.194 . S
Co198 O223 2.351 . S
Co198 O224 2.155 . S
Co198 O225 2.096 1_554 S
C199 N202 1.301 . S
C199 N203 1.328 . S
C199 H204 0.930 . S
C200 C201 1.333 . S
C200 N202 1.317 . S
C200 H205 0.930 . S
C201 C200 1.333 . S
C201 N203 1.350 . S
C201 H227 0.931 . S
N202 Co198 2.148 1_556 S
N202 C199 1.301 . S
N202 C200 1.317 . S
N203 C199 1.328 . S
N203 C201 1.350 . S
H204 C199 0.930 . S
H205 C200 0.930 . S
C206 O207 1.224 . S
C206 O225 1.247 . S
O207 C206 1.224 . S
N208 Co198 2.128 . S
N208 C209 1.355 . S
N208 C211 1.311 . S
C209 N208 1.355 . S
C209 C210 1.363 . S
C209 H221 0.929 . S
C210 C209 1.363 . S
C210 N212 1.375 . S
C210 H228 0.931 . S
C211 N208 1.311 . S
C211 N212 1.347 . S
C211 H222 0.929 . S
N212 C210 1.375 . S
N212 C211 1.347 . S
C213 C216 1.365 . S
C213 N218 1.329 . S
C213 H219 0.929 . S
C214 C215 1.362 1_556 S
C214 C217 1.378 . S
C214 H229 0.929 . S
C215 C214 1.362 1_554 S
C215 C216 1.366 . S
C216 C213 1.365 . S
C216 C215 1.366 . S
C216 H230 0.930 . S
C217 C214 1.378 . S
C217 N218 1.314 1_556 S
C217 H220 0.930 . S
N218 Co198 2.194 . S
N218 C213 1.329 . S
N218 C217 1.314 1_554 S
H219 C213 0.929 . S
H220 C217 0.930 . S
H221 C209 0.929 . S
H222 C211 0.929 . S
O223 Co198 2.351 . S
O223 C226 1.244 . S
O224 Co198 2.155 . S
O224 C226 1.240 . S
O225 Co198 2.096 1_556 S
O225 C206 1.247 . S
C226 O223 1.244 . S
C226 O224 1.240 . S
H227 C201 0.931 . S
H228 C210 0.931 . S
H229 C214 0.929 . S
H230 C216 0.930 . S
Co231 N235 2.148 . S
Co231 N241 2.128 1_554 S
Co231 N251 2.194 . S
Co231 O256 2.351 1_554 S
Co231 O257 2.155 1_554 S
Co231 O258 2.096 . S
C232 N235 1.301 . S
C232 N236 1.328 . S
C232 H237 0.930 . S
C233 C234 1.333 . S
C233 N235 1.317 . S
C233 H238 0.930 . S
C234 C233 1.333 . S
C234 N236 1.350 . S
C234 H260 0.931 . S
N235 Co231 2.148 . S
N235 C232 1.301 . S
N235 C233 1.317 . S
N236 C232 1.328 . S
N236 C234 1.350 . S
H237 C232 0.930 . S
H238 C233 0.930 . S
C239 O240 1.224 . S
C239 O258 1.247 . S
O240 C239 1.224 . S
N241 Co231 2.128 1_556 S
N241 C242 1.355 . S
N241 C244 1.311 . S
C242 N241 1.355 . S
C242 C243 1.363 . S
C242 H254 0.929 . S
C243 C242 1.363 . S
C243 N245 1.375 . S
C243 H261 0.931 . S
C244 N241 1.311 . S
C244 N245 1.347 . S
C244 H255 0.929 . S
N245 C243 1.375 . S
N245 C244 1.347 . S
C246 C249 1.365 . S
C246 N251 1.328 . S
C246 H252 0.929 . S
C247 C248 1.362 . S
C247 C250 1.378 . S
C247 H262 0.929 . S
C248 C247 1.362 . S
C248 C249 1.366 . S
C249 C246 1.365 . S
C249 C248 1.366 . S
C249 H263 0.930 . S
C250 C247 1.378 . S
C250 N251 1.315 . S
C250 H253 0.930 . S
N251 Co231 2.194 . S
N251 C246 1.328 . S
N251 C250 1.315 . S
H252 C246 0.929 . S
H253 C250 0.930 . S
H254 C242 0.929 . S
H255 C244 0.929 . S
O256 Co231 2.351 1_556 S
O256 C259 1.244 . S
O257 Co231 2.155 1_556 S
O257 C259 1.240 . S
O258 Co231 2.096 . S
O258 C239 1.247 . S
C259 O256 1.244 . S
C259 O257 1.240 . S
H260 C234 0.931 . S
H261 C243 0.931 . S
H262 C247 0.929 . S
H263 C249 0.930 . S
C264 C265 1.363 . S
C264 C270 1.379 . S
C264 N272 1.356 . S
C265 C264 1.363 . S
C265 C271 1.363 . S
C266 C267 1.363 . S
C266 C271 1.379 . S
C266 N273 1.356 . S
C267 C266 1.363 . S
C267 C270 1.363 . S
N268 C270 1.356 . S
N268 H280 0.984 . S
N268 H281 0.985 . S
N269 C271 1.356 . S
N269 H274 0.984 . S
N269 H275 0.985 . S
C270 C264 1.379 . S
C270 C267 1.363 . S
C270 N268 1.356 . S
C271 C265 1.363 . S
C271 C266 1.379 . S
C271 N269 1.356 . S
N272 C264 1.356 . S
N272 H278 0.984 . S
N272 H279 0.984 . S
N273 C266 1.356 . S
N273 H276 0.984 . S
N273 H277 0.985 . S
H274 N269 0.984 . S
H275 N269 0.985 . S
H276 N273 0.984 . S
H277 N273 0.985 . S
H278 N272 0.984 . S
H279 N272 0.984 . S
H280 N268 0.984 . S
H281 N268 0.985 . S
C282 C283 1.363 . S
C282 C288 1.379 . S
C282 N290 1.356 . S
C283 C282 1.363 . S
C283 C289 1.363 . S
C284 C285 1.363 . S
C284 C289 1.379 . S
C284 N291 1.356 . S
C285 C284 1.363 . S
C285 C288 1.363 . S
N286 C288 1.356 . S
N286 H298 0.984 . S
N286 H299 0.985 . S
N287 C289 1.356 . S
N287 H292 0.984 . S
N287 H293 0.985 . S
C288 C282 1.379 . S
C288 C285 1.363 . S
C288 N286 1.356 . S
C289 C283 1.363 . S
C289 C284 1.379 . S
C289 N287 1.356 . S
N290 C282 1.356 . S
N290 H296 0.984 . S
N290 H297 0.984 . S
N291 C284 1.356 . S
N291 H294 0.984 . S
N291 H295 0.985 . S
H292 N287 0.984 . S
H293 N287 0.985 . S
H294 N291 0.984 . S
H295 N291 0.985 . S
H296 N290 0.984 . S
H297 N290 0.984 . S
H298 N286 0.984 . S
H299 N286 0.985 . S
C300 C301 1.363 . S
C300 C306 1.379 . S
C300 N308 1.356 . S
C301 C300 1.363 . S
C301 C307 1.363 . S
C302 C303 1.363 . S
C302 C307 1.379 . S
C302 N309 1.356 . S
C303 C302 1.363 . S
C303 C306 1.363 . S
N304 C306 1.356 . S
N304 H316 0.984 . S
N304 H317 0.985 . S
N305 C307 1.356 . S
N305 H310 0.984 . S
N305 H311 0.985 . S
C306 C300 1.379 . S
C306 C303 1.363 . S
C306 N304 1.356 . S
C307 C301 1.363 . S
C307 C302 1.379 . S
C307 N305 1.356 . S
N308 C300 1.356 . S
N308 H314 0.984 . S
N308 H315 0.984 . S
N309 C302 1.356 . S
N309 H312 0.984 . S
N309 H313 0.985 . S
H310 N305 0.984 . S
H311 N305 0.985 . S
H312 N309 0.984 . S
H313 N309 0.985 . S
H314 N308 0.984 . S
H315 N308 0.984 . S
H316 N304 0.984 . S
H317 N304 0.985 . S
C318 C319 1.363 . S
C318 C324 1.379 . S
C318 N326 1.356 . S
C319 C318 1.363 . S
C319 C325 1.363 . S
C320 C321 1.363 . S
C320 C325 1.379 . S
C320 N327 1.356 . S
C321 C320 1.363 . S
C321 C324 1.363 . S
N322 C324 1.356 . S
N322 H334 0.984 . S
N322 H335 0.985 . S
N323 C325 1.356 . S
N323 H328 0.984 . S
N323 H329 0.985 . S
C324 C318 1.379 . S
C324 C321 1.363 . S
C324 N322 1.356 . S
C325 C319 1.363 . S
C325 C320 1.379 . S
C325 N323 1.356 . S
N326 C318 1.356 . S
N326 H332 0.984 . S
N326 H333 0.984 . S
N327 C320 1.356 . S
N327 H330 0.984 . S
N327 H331 0.985 . S
H328 N323 0.984 . S
H329 N323 0.985 . S
H330 N327 0.984 . S
H331 N327 0.985 . S
H332 N326 0.984 . S
H333 N326 0.984 . S
H334 N322 0.984 . S
H335 N322 0.985 . S
C336 C337 1.363 . S
C336 C342 1.379 . S
C336 N344 1.356 . S
C337 C336 1.363 . S
C337 C343 1.363 . S
C338 C339 1.363 . S
C338 C343 1.379 . S
C338 N345 1.356 . S
C339 C338 1.363 . S
C339 C342 1.363 . S
N340 C342 1.356 . S
N340 H352 0.984 . S
N340 H353 0.985 . S
N341 C343 1.356 . S
N341 H346 0.984 . S
N341 H347 0.985 . S
C342 C336 1.379 . S
C342 C339 1.363 . S
C342 N340 1.356 . S
C343 C337 1.363 . S
C343 C338 1.379 . S
C343 N341 1.356 . S
N344 C336 1.356 . S
N344 H350 0.984 . S
N344 H351 0.984 . S
N345 C338 1.356 . S
N345 H348 0.984 . S
N345 H349 0.985 . S
H346 N341 0.984 . S
H347 N341 0.985 . S
H348 N345 0.984 . S
H349 N345 0.985 . S
H350 N344 0.984 . S
H351 N344 0.984 . S
H352 N340 0.984 . S
H353 N340 0.985 . S
C354 C355 1.363 . S
C354 C360 1.379 . S
C354 N362 1.356 . S
C355 C354 1.363 . S
C355 C361 1.363 . S
C356 C357 1.363 . S
C356 C361 1.379 . S
C356 N363 1.356 . S
C357 C356 1.363 . S
C357 C360 1.363 . S
N358 C360 1.356 . S
N358 H370 0.984 . S
N358 H371 0.985 . S
N359 C361 1.356 . S
N359 H364 0.984 . S
N359 H365 0.985 . S
C360 C354 1.379 . S
C360 C357 1.363 . S
C360 N358 1.356 . S
C361 C355 1.363 . S
C361 C356 1.379 . S
C361 N359 1.356 . S
N362 C354 1.356 . S
N362 H368 0.984 . S
N362 H369 0.984 . S
N363 C356 1.356 . S
N363 H366 0.984 . S
N363 H367 0.985 . S
H364 N359 0.984 . S
H365 N359 0.985 . S
H366 N363 0.984 . S
H367 N363 0.985 . S
H368 N362 0.984 . S
H369 N362 0.984 . S
H370 N358 0.984 . S
H371 N358 0.985 . S
C372 C373 1.363 . S
C372 C378 1.379 . S
C372 N380 1.356 . S
C373 C372 1.363 . S
C373 C379 1.363 . S
C374 C375 1.363 . S
C374 C379 1.379 . S
C374 N381 1.356 . S
C375 C374 1.363 . S
C375 C378 1.363 . S
N376 C378 1.356 . S
N376 H388 0.984 . S
N376 H389 0.985 . S
N377 C379 1.356 . S
N377 H382 0.984 . S
N377 H383 0.985 . S
C378 C372 1.379 . S
C378 C375 1.363 . S
C378 N376 1.356 . S
C379 C373 1.363 . S
C379 C374 1.379 . S
C379 N377 1.356 . S
N380 C372 1.356 . S
N380 H386 0.984 . S
N380 H387 0.984 . S
N381 C374 1.356 . S
N381 H384 0.984 . S
N381 H385 0.985 . S
H382 N377 0.984 . S
H383 N377 0.985 . S
H384 N381 0.984 . S
H385 N381 0.985 . S
H386 N380 0.984 . S
H387 N380 0.984 . S
H388 N376 0.984 . S
H389 N376 0.985 . S
C390 C391 1.363 . S
C390 C396 1.379 . S
C390 N398 1.356 . S
C391 C390 1.363 . S
C391 C397 1.363 . S
C392 C393 1.363 . S
C392 C397 1.379 . S
C392 N399 1.356 . S
C393 C392 1.363 . S
C393 C396 1.363 . S
N394 C396 1.356 . S
N394 H406 0.984 . S
N394 H407 0.985 . S
N395 C397 1.356 . S
N395 H400 0.984 . S
N395 H401 0.985 . S
C396 C390 1.379 . S
C396 C393 1.363 . S
C396 N394 1.356 . S
C397 C391 1.363 . S
C397 C392 1.379 . S
C397 N395 1.356 . S
N398 C390 1.356 . S
N398 H404 0.984 . S
N398 H405 0.984 . S
N399 C392 1.356 . S
N399 H402 0.984 . S
N399 H403 0.985 . S
H400 N395 0.984 . S
H401 N395 0.985 . S
H402 N399 0.984 . S
H403 N399 0.985 . S
H404 N398 0.984 . S
H405 N398 0.984 . S
H406 N394 0.984 . S
H407 N394 0.985 . S
C408 C409 1.363 1_566 S
C408 C414 1.379 . S
C408 N416 1.356 . S
C409 C408 1.363 1_544 S
C409 C415 1.363 . S
C410 C411 1.363 . S
C410 C415 1.379 . S
C410 N417 1.356 . S
C411 C410 1.363 . S
C411 C414 1.363 1_544 S
N412 C414 1.356 . S
N412 H424 0.984 . S
N412 H425 0.985 . S
N413 C415 1.356 . S
N413 H418 0.984 . S
N413 H419 0.985 . S
C414 C408 1.379 . S
C414 C411 1.363 1_566 S
C414 N412 1.356 . S
C415 C409 1.363 . S
C415 C410 1.379 . S
C415 N413 1.356 . S
N416 C408 1.356 . S
N416 H422 0.984 . S
N416 H423 0.984 . S
N417 C410 1.356 . S
N417 H420 0.984 . S
N417 H421 0.985 . S
H418 N413 0.984 . S
H419 N413 0.985 . S
H420 N417 0.984 . S
H421 N417 0.985 . S
H422 N416 0.984 . S
H423 N416 0.984 . S
H424 N412 0.984 . S
H425 N412 0.985 . S
C426 C427 1.363 . S
C426 C432 1.379 . S
C426 N434 1.356 . S
C427 C426 1.363 . S
C427 C433 1.363 . S
C428 C429 1.363 . S
C428 C433 1.379 . S
C428 N435 1.356 . S
C429 C428 1.363 . S
C429 C432 1.363 . S
N430 C432 1.356 . S
N430 H442 0.984 . S
N430 H443 0.985 . S
N431 C433 1.356 . S
N431 H436 0.984 . S
N431 H437 0.985 . S
C432 C426 1.379 . S
C432 C429 1.363 . S
C432 N430 1.356 . S
C433 C427 1.363 . S
C433 C428 1.379 . S
C433 N431 1.356 . S
N434 C426 1.356 . S
N434 H440 0.984 . S
N434 H441 0.984 . S
N435 C428 1.356 . S
N435 H438 0.984 . S
N435 H439 0.985 . S
H436 N431 0.984 . S
H437 N431 0.985 . S
H438 N435 0.984 . S
H439 N435 0.985 . S
H440 N434 0.984 . S
H441 N434 0.984 . S
H442 N430 0.984 . S
H443 N430 0.985 . S
C444 C445 1.363 1_565 S
C444 C450 1.379 1_455 S
C444 N452 1.356 . S
C445 C444 1.363 1_545 S
C445 C451 1.363 . S
C446 C447 1.363 . S
C446 C451 1.379 1_655 S
C446 N453 1.356 . S
C447 C446 1.363 . S
C447 C450 1.363 1_545 S
N448 C450 1.356 . S
N448 H460 0.984 . S
N448 H461 0.985 . S
N449 C451 1.356 . S
N449 H454 0.984 . S
N449 H455 0.985 . S
C450 C444 1.379 1_655 S
C450 C447 1.363 1_565 S
C450 N448 1.356 . S
C451 C445 1.363 . S
C451 C446 1.379 1_455 S
C451 N449 1.356 . S
N452 C444 1.356 . S
N452 H458 0.984 . S
N452 H459 0.984 . S
N453 C446 1.356 . S
N453 H456 0.984 . S
N453 H457 0.985 . S
H454 N449 0.984 . S
H455 N449 0.985 . S
H456 N453 0.984 . S
H457 N453 0.985 . S
H458 N452 0.984 . S
H459 N452 0.984 . S
H460 N448 0.984 . S
H461 N448 0.985 . S
C462 C463 1.363 . S
C462 C468 1.379 1_655 S
C462 N470 1.356 . S
C463 C462 1.363 . S
C463 C469 1.363 1_554 S
C464 C465 1.363 1_556 S
C464 C469 1.379 1_455 S
C464 N471 1.356 . S
C465 C464 1.363 1_554 S
C465 C468 1.363 . S
N466 C468 1.356 . S
N466 H478 0.984 . S
N466 H479 0.985 . S
N467 C469 1.356 . S
N467 H472 0.984 . S
N467 H473 0.985 . S
C468 C462 1.379 1_455 S
C468 C465 1.363 . S
C468 N466 1.356 . S
C469 C463 1.363 1_556 S
C469 C464 1.379 1_655 S
C469 N467 1.356 . S
N470 C462 1.356 . S
N470 H476 0.984 . S
N470 H477 0.984 . S
N471 C464 1.356 . S
N471 H474 0.984 . S
N471 H475 0.985 . S
H472 N467 0.984 . S
H473 N467 0.985 . S
H474 N471 0.984 . S
H475 N471 0.985 . S
H476 N470 0.984 . S
H477 N470 0.984 . S
H478 N466 0.984 . S
H479 N466 0.985 . S
C480 C481 1.363 . S
C480 C486 1.379 . S
C480 N488 1.356 . S
C481 C480 1.363 . S
C481 C487 1.363 1_556 S
C482 C483 1.363 1_554 S
C482 C487 1.379 . S
C482 N489 1.356 . S
C483 C482 1.363 1_556 S
C483 C486 1.363 . S
N484 C486 1.356 . S
N484 H496 0.984 . S
N484 H497 0.985 . S
N485 C487 1.356 . S
N485 H490 0.984 . S
N485 H491 0.985 . S
C486 C480 1.379 . S
C486 C483 1.363 . S
C486 N484 1.356 . S
C487 C481 1.363 1_554 S
C487 C482 1.379 . S
C487 N485 1.356 . S
N488 C480 1.356 . S
N488 H494 0.984 . S
N488 H495 0.984 . S
N489 C482 1.356 . S
N489 H492 0.984 . S
N489 H493 0.985 . S
H490 N485 0.984 . S
H491 N485 0.985 . S
H492 N489 0.984 . S
H493 N489 0.985 . S
H494 N488 0.984 . S
H495 N488 0.984 . S
H496 N484 0.984 . S
H497 N484 0.985 . S
C498 C499 1.363 . S
C498 C504 1.379 . S
C498 N506 1.356 . S
C499 C498 1.363 . S
C499 C505 1.363 1_556 S
C500 C501 1.363 1_554 S
C500 C505 1.379 . S
C500 N507 1.356 . S
C501 C500 1.363 1_556 S
C501 C504 1.363 . S
N502 C504 1.356 . S
N502 H514 0.984 . S
N502 H515 0.985 . S
N503 C505 1.356 . S
N503 H508 0.984 . S
N503 H509 0.985 . S
C504 C498 1.379 . S
C504 C501 1.363 . S
C504 N502 1.356 . S
C505 C499 1.363 1_554 S
C505 C500 1.379 . S
C505 N503 1.356 . S
N506 C498 1.356 . S
N506 H512 0.984 . S
N506 H513 0.984 . S
N507 C500 1.356 . S
N507 H510 0.984 . S
N507 H511 0.985 . S
H508 N503 0.984 . S
H509 N503 0.985 . S
H510 N507 0.984 . S
H511 N507 0.985 . S
H512 N506 0.984 . S
H513 N506 0.984 . S
H514 N502 0.984 . S
H515 N502 0.985 . S
C516 C517 1.363 . S
C516 C522 1.379 . S
C516 N524 1.356 . S
C517 C516 1.363 . S
C517 C523 1.363 . S
C518 C519 1.363 . S
C518 C523 1.379 . S
C518 N525 1.356 1_554 S
C519 C518 1.363 . S
C519 C522 1.363 . S
N520 C522 1.356 . S
N520 H532 0.984 . S
N520 H533 0.985 . S
N521 C523 1.356 1_556 S
N521 H526 0.984 . S
N521 H527 0.985 . S
C522 C516 1.379 . S
C522 C519 1.363 . S
C522 N520 1.356 . S
C523 C517 1.363 . S
C523 C518 1.379 . S
C523 N521 1.356 1_554 S
N524 C516 1.356 . S
N524 H530 0.984 . S
N524 H531 0.984 . S
N525 C518 1.356 1_556 S
N525 H528 0.984 . S
N525 H529 0.985 . S
H526 N521 0.984 . S
H527 N521 0.985 . S
H528 N525 0.984 . S
H529 N525 0.985 . S
H530 N524 0.984 . S
H531 N524 0.984 . S
H532 N520 0.984 . S
H533 N520 0.985 . S
C534 C535 1.363 1_556 S
C534 C540 1.379 . S
C534 N542 1.356 . S
C535 C534 1.363 1_554 S
C535 C541 1.363 . S
C536 C537 1.363 . S
C536 C541 1.379 . S
C536 N543 1.356 . S
C537 C536 1.363 . S
C537 C540 1.363 1_554 S
N538 C540 1.356 . S
N538 H550 0.984 . S
N538 H551 0.985 . S
N539 C541 1.356 . S
N539 H544 0.984 . S
N539 H545 0.985 . S
C540 C534 1.379 . S
C540 C537 1.363 1_556 S
C540 N538 1.356 . S
C541 C535 1.363 . S
C541 C536 1.379 . S
C541 N539 1.356 . S
N542 C534 1.356 . S
N542 H548 0.984 . S
N542 H549 0.984 . S
N543 C536 1.356 . S
N543 H546 0.984 . S
N543 H547 0.985 . S
H544 N539 0.984 . S
H545 N539 0.985 . S
H546 N543 0.984 . S
H547 N543 0.985 . S
H548 N542 0.984 . S
H549 N542 0.984 . S
H550 N538 0.984 . S
H551 N538 0.985 . S
C552 C553 1.363 . S
C552 C558 1.379 . S
C552 N560 1.356 . S
C553 C552 1.363 . S
C553 C559 1.363 . S
C554 C555 1.363 . S
C554 C559 1.379 . S
C554 N561 1.356 . S
C555 C554 1.363 . S
C555 C558 1.363 . S
N556 C558 1.356 . S
N556 H568 0.984 . S
N556 H569 0.985 . S
N557 C559 1.356 . S
N557 H562 0.984 . S
N557 H563 0.985 . S
C558 C552 1.379 . S
C558 C555 1.363 . S
C558 N556 1.356 . S
C559 C553 1.363 . S
C559 C554 1.379 . S
C559 N557 1.356 . S
N560 C552 1.356 . S
N560 H566 0.984 . S
N560 H567 0.984 . S
N561 C554 1.356 . S
N561 H564 0.984 . S
N561 H565 0.985 . S
H562 N557 0.984 . S
H563 N557 0.985 . S
H564 N561 0.984 . S
H565 N561 0.985 . S
H566 N560 0.984 . S
H567 N560 0.984 . S
H568 N556 0.984 . S
H569 N556 0.985 . S
C570 C571 1.363 . S
C570 C576 1.379 . S
C570 N578 1.356 . S
C571 C570 1.363 . S
C571 C577 1.363 . S
C572 C573 1.363 . S
C572 C577 1.379 . S
C572 N579 1.356 . S
C573 C572 1.363 . S
C573 C576 1.363 . S
N574 C576 1.356 . S
N574 H586 0.984 . S
N574 H587 0.985 . S
N575 C577 1.356 . S
N575 H580 0.984 . S
N575 H581 0.985 . S
C576 C570 1.379 . S
C576 C573 1.363 . S
C576 N574 1.356 . S
C577 C571 1.363 . S
C577 C572 1.379 . S
C577 N575 1.356 . S
N578 C570 1.356 . S
N578 H584 0.984 . S
N578 H585 0.984 . S
N579 C572 1.356 . S
N579 H582 0.984 . S
N579 H583 0.985 . S
H580 N575 0.984 . S
H581 N575 0.985 . S
H582 N579 0.984 . S
H583 N579 0.985 . S
H584 N578 0.984 . S
H585 N578 0.984 . S
H586 N574 0.984 . S
H587 N574 0.985 . S
C588 C589 1.363 . S
C588 C594 1.379 . S
C588 N596 1.356 . S
C589 C588 1.363 . S
C589 C595 1.363 . S
C590 C591 1.363 . S
C590 C595 1.379 . S
C590 N597 1.356 . S
C591 C590 1.363 . S
C591 C594 1.363 . S
N592 C594 1.356 . S
N592 H604 0.984 . S
N592 H605 0.985 . S
N593 C595 1.356 . S
N593 H598 0.984 . S
N593 H599 0.985 . S
C594 C588 1.379 . S
C594 C591 1.363 . S
C594 N592 1.356 . S
C595 C589 1.363 . S
C595 C590 1.379 . S
C595 N593 1.356 . S
N596 C588 1.356 . S
N596 H602 0.984 . S
N596 H603 0.984 . S
N597 C590 1.356 . S
N597 H600 0.984 . S
N597 H601 0.985 . S
H598 N593 0.984 . S
H599 N593 0.985 . S
H600 N597 0.984 . S
H601 N597 0.985 . S
H602 N596 0.984 . S
H603 N596 0.984 . S
H604 N592 0.984 . S
H605 N592 0.985 . S
C606 C607 1.363 . S
C606 C612 1.379 . S
C606 N614 1.356 . S
C607 C606 1.363 . S
C607 C613 1.363 . S
C608 C609 1.363 . S
C608 C613 1.379 . S
C608 N615 1.356 . S
C609 C608 1.363 . S
C609 C612 1.363 . S
N610 C612 1.356 . S
N610 H622 0.984 . S
N610 H623 0.985 . S
N611 C613 1.356 . S
N611 H616 0.984 . S
N611 H617 0.985 . S
C612 C606 1.379 . S
C612 C609 1.363 . S
C612 N610 1.356 . S
C613 C607 1.363 . S
C613 C608 1.379 . S
C613 N611 1.356 . S
N614 C606 1.356 . S
N614 H620 0.984 . S
N614 H621 0.984 . S
N615 C608 1.356 . S
N615 H618 0.984 . S
N615 H619 0.985 . S
H616 N611 0.984 . S
H617 N611 0.985 . S
H618 N615 0.984 . S
H619 N615 0.985 . S
H620 N614 0.984 . S
H621 N614 0.984 . S
H622 N610 0.984 . S
H623 N610 0.985 . S
C265 N71 1.639 . S
C267 N14 1.635 . S
C283 N38 1.639 . S
C285 N113 1.635 . S
C301 N80 1.635 . S
C303 N5 1.639 . S
C319 N104 1.639 . S
C321 N47 1.636 . S
C337 N146 1.635 . S
C339 N203 1.639 . S
C355 N245 1.636 . S
C357 N170 1.639 . S
C373 N137 1.639 . S
C375 N212 1.635 . S
C391 N179 1.635 . S
C393 N236 1.639 . S
C409 C50 1.433 . S
C411 C17 1.433 . S
C427 C83 1.433 . S
C429 C116 1.433 . S
C445 C182 1.433 . S
C447 C149 1.433 . S
C463 C215 1.433 . S
C465 C248 1.433 . S
C481 C259 0.946 . S
C483 C8 0.953 . S
C499 C206 0.953 . S
C501 C61 0.946 . S
C517 C239 0.953 . S
C519 C28 0.946 . S
C535 C41 0.953 . S
C537 C226 0.946 . S
C553 C193 0.946 . S
C555 C74 0.953 . S
C571 C127 0.946 . S
C573 C140 0.953 . S
C589 C173 0.953 . S
C591 C94 0.946 . S
C607 C107 0.953 . S
C609 C160 0.946 . S
