# Generated by pormake.
# Topology smc, (6)-cn, num edge types: 1
# Building blocks:
#     Node 0, Type 0, BuildingBlock: MIFKUJ_clean_sbu_0, # of connection points: 6
#     Node 1, Type 0, BuildingBlock: MIFKUJ_clean_sbu_0, # of connection points: 6
#     Node 2, Type 0, BuildingBlock: MIFKUJ_clean_sbu_0, # of connection points: 6
#     Node 3, Type 0, BuildingBlock: MIFKUJ_clean_sbu_0, # of connection points: 6
#     Node 4, Type 0, BuildingBlock: MIFKUJ_clean_sbu_0, # of connection points: 6
#     Node 5, Type 0, BuildingBlock: MIFKUJ_clean_sbu_0, # of connection points: 6
#     Node 6, Type 0, BuildingBlock: MIFKUJ_clean_sbu_0, # of connection points: 6
#     Node 7, Type 0, BuildingBlock: MIFKUJ_clean_sbu_0, # of connection points: 6
#     Node 8, Type 0, BuildingBlock: MIFKUJ_clean_sbu_0, # of connection points: 6
#     Edge 9, Type (0, 0), BuildingBlock: ZUJKAS_clean_linker_0, # of connection points: 2
#     Edge 10, Type (0, 0), BuildingBlock: ZUJKAS_clean_linker_0, # of connection points: 2
#     Edge 11, Type (0, 0), BuildingBlock: ZUJKAS_clean_linker_0, # of connection points: 2
#     Edge 12, Type (0, 0), BuildingBlock: ZUJKAS_clean_linker_0, # of connection points: 2
#     Edge 13, Type (0, 0), BuildingBlock: ZUJKAS_clean_linker_0, # of connection points: 2
#     Edge 14, Type (0, 0), BuildingBlock: ZUJKAS_clean_linker_0, # of connection points: 2
#     Edge 15, Type (0, 0), BuildingBlock: ZUJKAS_clean_linker_0, # of connection points: 2
#     Edge 16, Type (0, 0), BuildingBlock: ZUJKAS_clean_linker_0, # of connection points: 2
#     Edge 17, Type (0, 0), BuildingBlock: ZUJKAS_clean_linker_0, # of connection points: 2
#     Edge 18, Type (0, 0), BuildingBlock: ZUJKAS_clean_linker_0, # of connection points: 2
#     Edge 19, Type (0, 0), BuildingBlock: ZUJKAS_clean_linker_0, # of connection points: 2
#     Edge 20, Type (0, 0), BuildingBlock: ZUJKAS_clean_linker_0, # of connection points: 2
#     Edge 21, Type (0, 0), BuildingBlock: ZUJKAS_clean_linker_0, # of connection points: 2
#     Edge 22, Type (0, 0), BuildingBlock: ZUJKAS_clean_linker_0, # of connection points: 2
#     Edge 23, Type (0, 0), BuildingBlock: ZUJKAS_clean_linker_0, # of connection points: 2
#     Edge 24, Type (0, 0), BuildingBlock: ZUJKAS_clean_linker_0, # of connection points: 2
#     Edge 25, Type (0, 0), BuildingBlock: ZUJKAS_clean_linker_0, # of connection points: 2
#     Edge 26, Type (0, 0), BuildingBlock: ZUJKAS_clean_linker_0, # of connection points: 2
#     Edge 27, Type (0, 0), BuildingBlock: ZUJKAS_clean_linker_0, # of connection points: 2
#     Edge 28, Type (0, 0), BuildingBlock: ZUJKAS_clean_linker_0, # of connection points: 2
#     Edge 29, Type (0, 0), BuildingBlock: ZUJKAS_clean_linker_0, # of connection points: 2
#     Edge 30, Type (0, 0), BuildingBlock: ZUJKAS_clean_linker_0, # of connection points: 2
#     Edge 31, Type (0, 0), BuildingBlock: ZUJKAS_clean_linker_0, # of connection points: 2
#     Edge 32, Type (0, 0), BuildingBlock: ZUJKAS_clean_linker_0, # of connection points: 2
#     Edge 33, Type (0, 0), BuildingBlock: ZUJKAS_clean_linker_0, # of connection points: 2
#     Edge 34, Type (0, 0), BuildingBlock: ZUJKAS_clean_linker_0, # of connection points: 2
#     Edge 35, Type (0, 0), BuildingBlock: ZUJKAS_clean_linker_0, # of connection points: 2
# Relax obj value: 0.172
# Max RMSD: 0.285
# Mean RMSD: 0.279
data_MOF--net-smc--node1-MIFKUJ_clean_sbu_0--edge1-ZUJKAS_clean_linker_0
_symmetry_space_group_name_H-M    P1
_symmetry_Int_Tables_number       1
_symmetry_cell_setting            triclinic
loop_
_symmetry_equiv_pos_as_xyz
'x, y, z'
_cell_length_a     43.526826
_cell_length_b     41.883637
_cell_length_c     52.301198
_cell_angle_alpha  91.15846
_cell_angle_beta   91.234248
_cell_angle_gamma 120.60916
loop_
_atom_site_label
_atom_site_type_symbol
_atom_site_fract_x
_atom_site_fract_y
_atom_site_fract_z
_atom_type_partial_charge
Zn0 Zn 0.04022 0.42621 0.99722 0.0
Zn1 Zn 0.97273 0.43162 0.00833 0.0
C2 C 0.07103 0.50292 0.98333 0.0
O3 O 0.06785 0.48852 0.96019 0.0
C4 C 0.91361 0.36895 0.03071 0.0
O5 O 0.92211 0.39319 0.04981 0.0
O6 O 0.08423 0.42323 0.99384 0.0
O7 O 0.016 0.39822 0.02779 0.0
O8 O 0.00874 0.44463 0.03816 0.0
C9 C 0.10625 0.43639 0.01287 0.0
O10 O 0.09771 0.44856 0.03329 0.0
O11 O 0.05929 0.48148 0.00207 0.0
C12 C 0.9216 0.45111 -0.00041 0.0
O13 O 0.91306 0.42483 0.98197 0.0
O14 O 0.94862 0.46074 0.01441 0.0
O15 O 0.9831 0.43655 0.9702 0.0
O16 O 0.01115 0.40548 0.96565 0.0
O17 O 0.93315 0.37843 0.01135 0.0
C18 C 0.01573 0.41993 0.04479 0.0
C19 C 0.99215 0.41761 0.95633 0.0
Zn20 Zn 0.6184 0.58935 0.00617 0.0
Zn21 Zn 0.54828 0.58864 0.99246 0.0
C22 C 0.57456 0.5165 0.02418 0.0
O23 O 0.59466 0.53336 0.0448 0.0
C24 C 0.55425 0.65373 0.97109 0.0
O25 O 0.54159 0.63158 0.9506 0.0
O26 O 0.66143 0.58602 0.01514 0.0
O27 O 0.62693 0.60973 0.97206 0.0
O28 O 0.56988 0.57961 0.96024 0.0
C29 C 0.66584 0.56535 -0.00062 0.0
O30 O 0.64313 0.5498 0.97976 0.0
O31 O 0.57758 0.53572 0.00485 0.0
C32 C 0.4788 0.56754 0.00395 0.0
O33 O 0.49759 0.5924 0.02224 0.0
O34 O 0.49506 0.55977 0.9873 0.0
O35 O 0.55685 0.5819 0.03034 0.0
O36 O 0.61422 0.62202 0.03185 0.0
O37 O 0.56075 0.64178 0.99141 0.0
C38 C 0.60268 0.59607 0.95461 0.0
C39 C 0.58423 0.60829 0.04199 0.0
Zn40 Zn 0.40778 0.95166 0.9933 0.0
Zn41 Zn 0.46996 0.06829 0.00643 0.0
C42 C 0.44426 0.91701 0.97291 0.0
O43 O 0.42247 0.91133 0.9533 0.0
C44 C 0.47378 0.13538 0.02039 0.0
O45 O 0.48356 0.12679 0.04189 0.0
O46 O 0.35913 0.90552 0.99606 0.0
O47 O 0.41963 0.98793 0.02393 0.0
O48 O 0.44853 0.04562 0.03988 0.0
C49 C 0.35471 0.87975 0.01073 0.0
O50 O 0.38179 0.88439 0.02525 0.0
O51 O 0.44377 0.93511 0.99253 0.0
C52 C 0.54283 0.10915 0.99169 0.0
O53 O 0.52826 0.11951 0.97392 0.0
O54 O 0.52272 0.08552 0.00757 0.0
O55 O 0.44164 0.02697 0.9811 0.0
O56 O 0.40783 0.97543 0.95983 0.0
O57 O 0.46491 0.11311 0.00109 0.0
C58 C 0.42737 0.01097 0.04274 0.0
C59 C 0.42522 0.01062 0.96031 0.0
Zn60 Zn 0.72017 0.77349 0.33497 0.0
Zn61 Zn 0.64252 0.76894 0.34579 0.0
C62 C 0.74955 0.84567 0.31467 0.0
O63 O 0.75455 0.82844 0.29537 0.0
C64 C 0.58031 0.7064 0.36485 0.0
O65 O 0.58814 0.72996 0.3843 0.0
O66 O 0.76574 0.77442 0.32751 0.0
O67 O 0.70946 0.75697 0.3703 0.0
O68 O 0.67283 0.77756 0.37878 0.0
C69 C 0.79168 0.79224 0.34361 0.0
O70 O 0.78706 0.8082 0.36387 0.0
O71 O 0.7326 0.82698 0.33364 0.0
C72 C 0.59241 0.78999 0.33388 0.0
O73 O 0.58391 0.76309 0.31677 0.0
O74 O 0.61899 0.79957 0.34922 0.0
O75 O 0.65928 0.77505 0.30904 0.0
O76 O 0.68316 0.73989 0.30899 0.0
O77 O 0.60118 0.71618 0.34625 0.0
C78 C 0.69431 0.7671 0.38623 0.0
C79 C 0.66371 0.75038 0.2981 0.0
Zn80 Zn 0.22404 0.94661 0.32243 0.0
Zn81 Zn 0.25808 0.88136 0.3368 0.0
C82 C 0.15328 0.89938 0.30354 0.0
O83 O 0.16727 0.91952 0.28345 0.0
C84 C 0.33021 0.89816 0.3479 0.0
O85 O 0.33618 0.93191 0.35217 0.0
O86 O 0.22027 0.99221 0.31823 0.0
O87 O 0.24779 0.95513 0.3567 0.0
O88 O 0.26395 0.91467 0.36747 0.0
C89 C 0.20832 1.00191 0.33697 0.0
O90 O 0.19855 0.98152 0.35729 0.0
O91 O 0.17358 0.90404 0.32282 0.0
C92 C 0.20623 0.80699 0.31991 0.0
O93 O 0.22166 0.81917 0.29805 0.0
O94 O 0.21496 0.82989 0.33882 0.0
O95 O 0.26658 0.90226 0.30128 0.0
O96 O 0.25048 0.94357 0.29274 0.0
O97 O 0.2988 0.8722 0.34151 0.0
C98 C 0.2608 0.9426 0.37279 0.0
C99 C 0.26461 0.92471 0.28626 0.0
Zn100 Zn 0.06414 0.30308 0.33136 0.0
Zn101 Zn 0.13994 0.37761 0.34036 0.0
C102 C 0.10537 0.27222 0.31529 0.0
O103 O 0.08547 0.26658 0.29452 0.0
C104 C 0.14136 0.44429 0.35885 0.0
O105 O 0.16039 0.44248 0.37801 0.0
O106 O 0.01784 0.25399 0.32701 0.0
O107 O 0.06246 0.32972 0.36232 0.0
O108 O 0.11809 0.34622 0.37205 0.0
C109 C 0.00181 0.23482 0.34608 0.0
O110 O 0.01461 0.24822 0.36931 0.0
O111 O 0.10239 0.28957 0.33439 0.0
C112 C 0.21193 0.42777 0.32882 0.0
O113 O 0.19503 0.43333 0.3099 0.0
O114 O 0.1937 0.40372 0.34509 0.0
O115 O 0.12865 0.35902 0.3028 0.0
O116 O 0.0699 0.33156 0.30091 0.0
O117 O 0.12876 0.41883 0.34139 0.0
C118 C 0.08704 0.33773 0.37895 0.0
C119 C 0.09962 0.34964 0.29036 0.0
Zn120 Zn 0.37111 0.09727 0.67332 0.0
Zn121 Zn 0.31096 0.11184 0.67838 0.0
C122 C 0.40727 0.17139 0.65334 0.0
O123 O 0.4083 0.15357 0.63271 0.0
C124 C 0.25167 0.04573 0.70058 0.0
O125 O 0.26302 0.06463 0.7225 0.0
O126 O 0.41465 0.09341 0.66932 0.0
O127 O 0.35204 0.07816 0.70684 0.0
O128 O 0.34223 0.12431 0.71177 0.0
C129 C 0.44016 0.11354 0.6852 0.0
O130 O 0.43491 0.13209 0.70346 0.0
O131 O 0.39067 0.15294 0.67251 0.0
C132 C 0.26294 0.13349 0.66269 0.0
O133 O 0.25482 0.10546 0.6467 0.0
O134 O 0.28837 0.14334 0.67915 0.0
O135 O 0.32643 0.11364 0.64114 0.0
O136 O 0.33697 0.06815 0.64522 0.0
O137 O 0.2689 0.05976 0.68056 0.0
C138 C 0.34942 0.10105 0.7214 0.0
C139 C 0.32621 0.08533 0.63161 0.0
Zn140 Zn 0.95126 0.25721 0.66911 0.0
Zn141 Zn 0.8772 0.24857 0.65811 0.0
C142 C 0.92397 0.1822 0.6806 0.0
O143 O 0.95048 0.19956 0.69761 0.0
C144 C 0.88175 0.31282 0.63625 0.0
O145 O 0.86719 0.2893 0.61657 0.0
O146 O 6e-05 0.26343 0.67129 0.0
O147 O 0.95042 0.28457 0.63891 0.0
O148 O 0.89873 0.23639 0.6276 0.0
C149 C 0.00902 0.25117 0.65219 0.0
O150 O 0.98709 0.2374 0.63203 0.0
O151 O 0.91706 0.20139 0.66553 0.0
C152 C 0.80839 0.23209 0.66736 0.0
O153 O 0.82785 0.2591 0.68422 0.0
O154 O 0.82391 0.22076 0.65255 0.0
O155 O 0.88473 0.24094 0.69572 0.0
O156 O 0.94317 0.27653 0.70103 0.0
O157 O 0.89078 0.30237 0.65625 0.0
C158 C 0.92905 0.26279 0.62147 0.0
C159 C 0.9123 0.26109 0.71007 0.0
Zn160 Zn 0.74492 0.62158 0.6606 0.0
Zn161 Zn 0.80992 0.7371 0.67246 0.0
C162 C 0.78263 0.58862 0.64082 0.0
O163 O 0.7634 0.5868 0.62052 0.0
C164 C 0.7867 0.79137 0.67162 0.0
O165 O 0.76453 0.77047 0.68892 0.0
O166 O 0.69634 0.57482 0.66123 0.0
O167 O 0.7524 0.6566 0.6919 0.0
O168 O 0.78335 0.71642 0.70482 0.0
C169 C 0.68853 0.55144 0.67868 0.0
O170 O 0.71193 0.55885 0.69751 0.0
O171 O 0.78082 0.60456 0.6612 0.0
C172 C 0.88365 0.77279 0.66079 0.0
O173 O 0.87038 0.77623 0.6389 0.0
O174 O 0.86235 0.75503 0.67834 0.0
O175 O 0.78548 0.69281 0.64979 0.0
O176 O 0.74628 0.64584 0.62701 0.0
O177 O 0.80646 0.78111 0.66105 0.0
C178 C 0.76067 0.6824 0.70895 0.0
C179 C 0.76732 0.68054 0.62907 0.0
H180 H 0.437 0.57192 0.04003 0.0
H181 H 0.37234 0.54424 0.03805 0.0
H182 H 0.36698 0.4962 0.96315 0.0
H183 H 0.43197 0.52332 0.96518 0.0
H184 H 0.33302 0.55754 0.00222 0.0
H185 H 0.29096 0.40778 0.0014 0.0
H186 H 0.33599 0.44408 0.01012 0.0
H187 H 0.3211 0.43461 0.97709 0.0
C188 C 0.42212 0.55527 0.02318 0.0
C189 C 0.43955 0.54972 0.00277 0.0
C190 C 0.38517 0.53948 0.02209 0.0
C191 C 0.36491 0.51788 0.00059 0.0
C192 C 0.38212 0.51219 0.98013 0.0
H193 H 0.13532 0.42185 0.97152 0.0
H194 H 0.19791 0.43957 0.96699 0.0
C195 C 0.41921 0.52783 0.98127 0.0
C196 C 0.32595 0.50278 -0.0005 0.0
H197 H 0.24514 0.42224 -0.00115 0.0
C198 C 0.3138 0.52796 0.00137 0.0
C199 C 0.30103 0.46419 -0.00178 0.0
C200 C 0.31278 0.43598 0.99679 0.0
C201 C 0.27735 0.51558 0.00254 0.0
C202 C 0.25255 0.47704 0.0021 0.0
C203 C 0.26445 0.45178 -0.00068 0.0
C204 C 0.21427 0.46278 0.00556 0.0
C205 C 0.26562 0.5438 0.00446 0.0
C206 C 0.20285 0.46894 0.02901 0.0
C207 C 0.16728 0.45889 0.0317 0.0
C208 C 0.14258 0.44247 0.01094 0.0
C209 C 0.15378 0.43461 0.98782 0.0
C210 C 0.18944 0.44467 0.98518 0.0
H211 H 0.28678 0.57162 -0.00142 0.0
H212 H 0.2411 0.53488 0.99238 0.0
H213 H 0.25944 0.54643 0.0246 0.0
H214 H 0.2217 0.48246 0.04503 0.0
H215 H 0.15944 0.46502 0.04982 0.0
H216 H 0.45099 0.87638 0.93426 0.0
H217 H 0.48185 0.84136 0.93627 0.0
H218 H 0.51808 0.88224 0.01388 0.0
H219 H 0.48705 0.91722 0.01218 0.0
H220 H 0.55579 0.86345 0.94891 0.0
H221 H 0.45879 0.76729 0.01802 0.0
H222 H 0.45049 0.79826 -0.00044 0.0
H223 H 0.48134 0.81599 0.02665 0.0
C224 C 0.46581 0.87828 0.95169 0.0
C225 C 0.46622 0.89926 0.97316 0.0
C226 C 0.48352 0.85833 0.95276 0.0
C227 C 0.50181 0.85889 0.97532 0.0
C228 C 0.5037 0.88113 0.9964 0.0
H229 H 0.57163 0.70255 0.01192 0.0
H230 H 0.56632 0.75792 0.01397 0.0
C231 C 0.48603 0.90116 0.99535 0.0
C232 C 0.51673 0.83418 0.97716 0.0
H233 H 0.50273 0.75481 0.0045 0.0
C234 C 0.54448 0.83987 0.96122 0.0
C235 C 0.50191 0.80356 0.99331 0.0
C236 C 0.47132 0.79556 0.01027 0.0
C237 C 0.55744 0.81527 0.9607 0.0
C238 C 0.54171 0.78389 0.97616 0.0
C239 C 0.51481 0.77897 0.99273 0.0
C240 C 0.55037 0.75405 0.97403 0.0
C241 C 0.5877 0.82296 0.94354 0.0
C242 C 0.54367 0.73384 0.9508 0.0
C243 C 0.54663 0.70218 0.94955 0.0
C244 C 0.55609 0.68998 0.97158 0.0
C245 C 0.56427 0.71118 0.99459 0.0
C246 C 0.56126 0.74284 0.99582 0.0
H247 H 0.60404 0.85298 0.93961 0.0
H248 H 0.60535 0.81379 0.95215 0.0
H249 H 0.57653 0.80757 0.92496 0.0
H250 H 0.53448 0.7415 0.93388 0.0
H251 H 0.54012 0.68648 0.93155 0.0
H252 H 0.33506 0.82109 0.04173 0.0
H253 H 0.281 0.75963 0.03775 0.0
H254 H 0.24331 0.79486 0.97355 0.0
H255 H 0.29721 0.85653 0.97738 0.0
H256 H 0.20208 0.73946 0.03514 0.0
H257 H 0.25071 0.70096 0.94883 0.0
H258 H 0.28072 0.73762 0.9713 0.0
H259 H 0.25268 0.74497 0.94955 0.0
C260 C 0.31514 0.81594 0.0269 0.0
C261 C 0.32058 0.84369 0.00977 0.0
C262 C 0.28424 0.78084 0.02472 0.0
C263 C 0.25838 0.77274 0.00526 0.0
C264 C 0.26312 0.8006 0.98861 0.0
H265 H 0.08546 0.55656 0.94901 0.0
H266 H 0.12679 0.62342 0.95498 0.0
C267 C 0.2939 0.83582 0.99087 0.0
C268 C 0.22739 0.73455 0.00163 0.0
H269 H 0.19509 0.65614 0.96362 0.0
C270 C 0.20032 0.72119 0.01946 0.0
C271 C 0.2252 0.71102 0.98107 0.0
C272 C 0.25387 0.72407 0.96158 0.0
C273 C 0.17094 0.68473 0.01722 0.0
C274 C 0.16925 0.66069 0.99706 0.0
C275 C 0.19622 0.67444 0.97906 0.0
C276 C 0.1407 0.62083 0.99459 0.0
C277 C 0.14181 0.6727 0.03625 0.0
C278 C 0.13415 0.59702 0.01495 0.0
C279 C 0.10995 0.55888 0.01171 0.0
C280 C 0.09253 0.54364 0.98783 0.0
C281 C 0.09852 0.56751 0.96762 0.0
C282 C 0.1222 0.60572 0.97101 0.0
H283 H 0.14053 0.6968 0.04417 0.0
H284 H 0.11527 0.65226 0.02748 0.0
H285 H 0.14764 0.65972 0.05249 0.0
H286 H 0.1488 0.60763 0.03308 0.0
H287 H 0.10627 0.54113 0.02755 0.0
H288 H 0.46625 0.16782 0.97731 0.0
H289 H 0.47672 0.23108 0.97431 0.0
H290 H 0.49721 0.24822 0.05591 0.0
H291 H 0.48709 0.18561 0.05911 0.0
H292 H 0.44502 0.27019 0.00171 0.0
H293 H 0.58998 0.33014 0.02292 0.0
H294 H 0.56084 0.2823 0.01244 0.0
H295 H 0.5616 0.2965 0.04522 0.0
C296 C 0.47258 0.18495 0.99464 0.0
C297 C 0.47623 0.17184 0.01842 0.0
C298 C 0.47851 0.22102 0.99288 0.0
C299 C 0.48822 0.24441 0.01485 0.0
C300 C 0.49023 0.23075 0.03869 0.0
H301 H 0.56163 0.4683 0.06232 0.0
H302 H 0.53656 0.40134 0.05801 0.0
C303 C 0.4844 0.19491 0.04047 0.0
C304 C 0.49827 0.28381 0.01307 0.0
H305 H 0.5681 0.37175 0.02539 0.0
C306 C 0.47197 0.29251 0.00659 0.0
C307 C 0.53353 0.31277 0.01927 0.0
C308 C 0.56325 0.30511 0.02513 0.0
C309 C 0.47975 0.32954 0.00734 0.0
C310 C 0.51473 0.35834 0.01454 0.0
C311 C 0.5412 0.34958 0.02014 0.0
C312 C 0.52465 0.39782 0.01733 0.0
C313 C 0.45034 0.33755 0.00137 0.0
C314 C 0.52548 0.41797 0.99597 0.0
C315 C 0.53982 0.45644 -0.00163 0.0
C316 C 0.5538 0.47536 0.02217 0.0
C317 C 0.55126 0.4547 0.0437 0.0
C318 C 0.53694 0.41638 0.04128 0.0
H319 H 0.42356 0.31194 0.0007 0.0
H320 H 0.45068 0.35747 0.01588 0.0
H321 H 0.45469 0.35042 0.98245 0.0
H322 H 0.51661 0.40428 0.97724 0.0
H323 H 0.54152 0.47153 0.98138 0.0
H324 H 0.58252 0.09995 0.02923 0.0
H325 H 0.64735 0.13754 0.03733 0.0
H326 H 0.65705 0.19919 0.96997 0.0
H327 H 0.59254 0.16205 0.96174 0.0
H328 H 0.70898 0.15504 0.00472 0.0
H329 H 0.69632 0.27673 0.03177 0.0
H330 H 0.6586 0.22988 0.03004 0.0
H331 H 0.67591 0.25469 0.00127 0.0
C332 C 0.5985 0.12116 0.01594 0.0
C333 C 0.58227 0.12827 0.99499 0.0
C334 C 0.63552 0.14256 0.02059 0.0
C335 C 0.65682 0.17142 0.00444 0.0
C336 C 0.64096 0.17731 0.98283 0.0
H337 H 0.88332 0.3173 0.99109 0.0
H338 H 0.82177 0.26547 0.98692 0.0
C339 C 0.60406 0.15599 0.97815 0.0
C340 C 0.6952 0.19712 0.01098 0.0
H341 H 0.75494 0.28773 0.02759 0.0
C342 C 0.7191 0.18401 0.00988 0.0
C343 C 0.70816 0.23473 0.01806 0.0
C344 C 0.68345 0.24991 0.02061 0.0
C345 C 0.75595 0.20797 0.01494 0.0
C346 C 0.76904 0.24592 0.02106 0.0
C347 C 0.7449 0.25865 0.02283 0.0
C348 C 0.80769 0.27349 0.02497 0.0
C349 C 0.7805 0.19247 0.01382 0.0
C350 C 0.82039 0.29509 0.04782 0.0
C351 C 0.85551 0.32492 0.05021 0.0
C352 C 0.87858 0.33389 0.02972 0.0
C353 C 0.86631 0.3111 0.00729 0.0
C354 C 0.83114 0.28128 0.00491 0.0
H355 H 0.76573 0.16193 0.01604 0.0
H356 H 0.79309 0.19821 0.99495 0.0
H357 H 0.80207 0.20567 0.02893 0.0
H358 H 0.8027 0.28964 0.06351 0.0
H359 H 0.86407 0.34183 0.06776 0.0
H360 H 0.9271 0.50079 0.03699 0.0
H361 H 0.88625 0.52422 0.04339 0.0
H362 H 0.82414 0.46162 0.97601 0.0
H363 H 0.86432 0.43792 0.96956 0.0
H364 H 0.86609 0.56382 0.00872 0.0
H365 H 0.75112 0.42773 0.03334 0.0
H366 H 0.79652 0.43716 0.03415 0.0
H367 H 0.77137 0.42581 0.00425 0.0
C368 C 0.90479 0.49215 0.02351 0.0
C369 C 0.8987 0.46727 0.0029 0.0
C370 C 0.88155 0.50551 0.02721 0.0
C371 C 0.85193 0.49399 0.01044 0.0
C372 C 0.84648 0.47013 0.98945 0.0
H373 H 0.68174 0.52318 0.96853 0.0
H374 H 0.72896 0.50884 0.97509 0.0
C375 C 0.86956 0.45677 0.98575 0.0
C376 C 0.82645 0.50675 0.0145 0.0
H377 H 0.7376 0.47409 0.02063 0.0
C378 C 0.8381 0.54446 0.01184 0.0
C379 C 0.79009 0.48128 0.01874 0.0
C380 C 0.77654 0.44079 0.02304 0.0
C381 C 0.81372 0.55698 0.0116 0.0
C382 C 0.77708 0.53107 0.01436 0.0
C383 C 0.76578 0.49376 0.01839 0.0
C384 C 0.74955 0.54121 0.0106 0.0
C385 C 0.82684 0.5973 0.007 0.0
C386 C 0.74567 0.56418 0.02848 0.0
C387 C 0.71862 0.57249 0.02479 0.0
C388 C 0.69514 0.55779 0.00321 0.0
C389 C 0.69936 0.53494 0.98534 0.0
C390 C 0.72628 0.52668 0.98905 0.0
H391 H 0.85555 0.61293 0.00238 0.0
H392 H 0.811 0.59974 0.99104 0.0
H393 H 0.8232 0.61044 0.0244 0.0
H394 H 0.76323 0.57525 0.04537 0.0
H395 H 0.7159 0.59006 0.03893 0.0
H396 H 0.85105 0.8261 0.37541 0.0
H397 H 0.9105 0.8365 0.36716 0.0
H398 H 0.87211 0.7788 0.29386 0.0
H399 H 0.81235 0.76822 0.30183 0.0
H400 H 0.92231 0.76373 0.33482 0.0
H401 H 0.96917 0.90674 0.30204 0.0
H402 H 0.94144 0.89066 0.32946 0.0
H403 H 0.92293 0.8702 0.29838 0.0
C404 C 0.8551 0.81537 0.35759 0.0
C405 C 0.82701 0.79649 0.3392 0.0
C406 C 0.88904 0.82126 0.35298 0.0
C407 C 0.89547 0.80838 0.32995 0.0
C408 C 0.86743 0.78875 0.31179 0.0
H409 H 0.10249 0.88469 0.26624 0.0
H410 H 0.03835 0.85724 0.27144 0.0
C411 C 0.8334 0.78284 0.31637 0.0
C412 C 0.93203 0.81742 0.32431 0.0
H413 H 0.0116 0.88792 0.30483 0.0
C414 C 0.9419 0.79075 0.32814 0.0
C415 C 0.95719 0.85264 0.31553 0.0
C416 C 0.9474 0.88187 0.31096 0.0
C417 C 0.97679 0.7987 0.32365 0.0
C418 C 0.00224 0.83427 0.31532 0.0
C419 C 0.99202 0.86064 0.31116 0.0
C420 C 0.03995 0.84542 0.31136 0.0
C421 C 0.98604 0.76897 0.32767 0.0
C422 C 0.06199 0.84709 0.33195 0.0
C423 C 0.09869 0.86263 0.32902 0.0
C424 C 0.11401 0.87716 0.3055 0.0
C425 C 0.09158 0.87385 0.28461 0.0
C426 C 0.05491 0.85821 0.28755 0.0
H427 H 0.96178 0.74084 0.32715 0.0
H428 H 0.00436 0.76973 0.31293 0.0
H429 H -0.00031 0.77375 0.34672 0.0
H430 H 0.05113 0.83804 0.35062 0.0
H431 H 0.11523 0.86491 0.34553 0.0
H432 H 0.11707 0.23375 0.27789 0.0
H433 H 0.14391 0.19519 0.28306 0.0
H434 H 0.16855 0.23012 0.36261 0.0
H435 H 0.14169 0.26894 0.35773 0.0
H436 H 0.22413 0.22015 0.32282 0.0
H437 H 0.08611 0.10351 0.33847 0.0
H438 H 0.09273 0.13596 0.31403 0.0
H439 H 0.09981 0.15103 0.34705 0.0
C440 C 0.12879 0.23387 0.29639 0.0
C441 C 0.12683 0.25404 0.31749 0.0
C442 C 0.14422 0.21193 0.29925 0.0
C443 C 0.15803 0.20987 0.32319 0.0
C444 C 0.15811 0.2316 0.34396 0.0
H445 H 0.18447 0.02964 0.37416 0.0
H446 H 0.17638 0.08309 0.37214 0.0
C447 C 0.14268 0.25364 0.34113 0.0
C448 C 0.16813 0.18158 0.32708 0.0
H449 H 0.13155 0.08905 0.33644 0.0
C450 C 0.20406 0.19149 0.32592 0.0
C451 C 0.14176 0.14443 0.33126 0.0
C452 C 0.10287 0.1328 0.33291 0.0
C453 C 0.21423 0.16474 0.32853 0.0
C454 C 0.18765 0.12732 0.33206 0.0
C455 C 0.15184 0.11774 0.33366 0.0
C456 C 0.196 0.0973 0.33394 0.0
C457 C 0.25325 0.1767 0.32773 0.0
C458 C 0.20976 0.0876 0.3131 0.0
C459 C 0.21432 0.0569 0.31414 0.0
C460 C 0.20499 0.03531 0.33601 0.0
C461 C 0.1918 0.04556 0.35699 0.0
C462 C 0.18725 0.07617 0.35592 0.0
H463 H 0.27074 0.20712 0.33133 0.0
H464 H 0.26026 0.16206 0.34209 0.0
H465 H 0.25886 0.16962 0.3085 0.0
H466 H 0.21601 0.10311 0.29576 0.0
H467 H 0.22453 0.04972 0.29766 0.0
H468 H 0.97703 0.19367 0.30118 0.0
H469 H 0.92926 0.12878 0.29527 0.0
H470 H 0.90929 0.12419 0.37586 0.0
H471 H 0.95723 0.18908 0.38206 0.0
H472 H 0.92934 0.068 0.32509 0.0
H473 H 0.80823 0.07929 0.33615 0.0
H474 H 0.8502 0.11765 0.3263 0.0
H475 H 0.84486 0.10459 0.35906 0.0
C476 C 0.96221 0.17906 0.31762 0.0
C477 C 0.97097 0.19657 0.34211 0.0
C478 C 0.93496 0.14198 0.31419 0.0
C479 C 0.91564 0.12188 0.33509 0.0
C480 C 0.92367 0.13943 0.35945 0.0
H481 H 0.75411 0.89102 0.35499 0.0
H482 H 0.79296 0.95856 0.35936 0.0
C483 C 0.95115 0.17645 0.36296 0.0
C484 C 0.88881 0.08184 0.33167 0.0
H485 H 0.79933 0.0188 0.33181 0.0
C486 C 0.90089 0.0572 0.32643 0.0
C487 C 0.85184 0.06797 0.33373 0.0
C488 C 0.83773 0.09361 0.33898 0.0
C489 C 0.87696 0.01885 0.32342 0.0
C490 C 0.83983 1.00489 0.325 0.0
C491 C 0.82775 0.02958 0.33043 0.0
C492 C 0.81337 0.96467 0.32132 0.0
C493 C 0.89174 0.99352 0.3192 0.0
C494 C 0.81091 0.94591 0.29813 0.0
C495 C 0.78883 0.90736 0.29558 0.0
C496 C 0.76856 0.88682 0.31612 0.0
C497 C 0.76946 0.90596 0.33882 0.0
C498 C 0.79167 0.94457 0.34137 0.0
H499 H 0.92045 0.00725 0.32521 0.0
H500 H 0.87672 0.96767 0.32991 0.0
H501 H 0.88927 0.98577 0.29853 0.0
H502 H 0.82683 0.961 0.28221 0.0
H503 H 0.78856 0.89358 0.27775 0.0
H504 H 0.17602 0.75055 0.28361 0.0
H505 H 0.15281 0.68456 0.29003 0.0
H506 H 0.1701 0.70635 0.37162 0.0
H507 H 0.19189 0.7719 0.3654 0.0
H508 H 0.19143 0.65831 0.3083 0.0
H509 H 0.07637 0.61213 0.37062 0.0
H510 H 0.09561 0.65549 0.35447 0.0
H511 H 0.11537 0.6523 0.38423 0.0
C512 C 0.17386 0.74108 0.30296 0.0
C513 C 0.18584 0.7665 0.32397 0.0
C514 C 0.16068 0.70335 0.30662 0.0
C515 C 0.15941 0.69026 0.33134 0.0
C516 C 0.16986 0.71539 0.35241 0.0
H517 H 0.1648 0.5038 0.39248 0.0
H518 H 0.16534 0.56174 0.38547 0.0
C519 C 0.18254 0.75304 0.3488 0.0
C520 C 0.15149 0.65162 0.33481 0.0
H521 H 0.10324 0.574 0.36942 0.0
C522 C 0.1717 0.63972 0.32136 0.0
C523 C 0.1259 0.62729 0.35198 0.0
C524 C 0.10185 0.63734 0.36593 0.0
C525 C 0.16779 0.60479 0.32511 0.0
C526 C 0.14298 0.581 0.34275 0.0
C527 C 0.12236 0.59247 0.35598 0.0
C528 C 0.13901 0.54451 0.34802 0.0
C529 C 0.19095 0.59387 0.31073 0.0
C530 C 0.12328 0.51543 0.3295 0.0
C531 C 0.12282 0.48226 0.33344 0.0
C532 C 0.13824 0.47768 0.35597 0.0
C533 C 0.15278 0.50644 0.3749 0.0
C534 C 0.15306 0.53953 0.37097 0.0
H535 H 0.21239 0.6175 0.30057 0.0
H536 H 0.20341 0.58302 0.32404 0.0
H537 H 0.17415 0.5714 0.29636 0.0
H538 H 0.11216 0.51876 0.31171 0.0
H539 H 0.11135 0.4607 0.31848 0.0
H540 H 0.25546 0.42868 0.368 0.0
H541 H 0.31998 0.4714 0.37439 0.0
H542 H 0.3219 0.52204 0.30304 0.0
H543 H 0.25764 0.47984 0.29654 0.0
H544 H 0.38022 0.48781 0.34174 0.0
H545 H 0.36082 0.60781 0.35846 0.0
H546 H 0.32469 0.56029 0.35963 0.0
H547 H 0.34031 0.58099 0.32933 0.0
C548 C 0.26967 0.4487 0.35356 0.0
C549 C 0.25132 0.45113 0.3319 0.0
C550 C 0.30652 0.47301 0.35722 0.0
C551 C 0.32553 0.50015 0.33935 0.0
C552 C 0.30757 0.50161 0.31723 0.0
H553 H 0.55208 0.65516 0.3248 0.0
H554 H 0.49109 0.60214 0.31971 0.0
C555 C 0.27083 0.47741 0.31356 0.0
C556 C 0.36373 0.52825 0.34437 0.0
H557 H 0.42035 0.62116 0.35573 0.0
C558 C 0.38908 0.51697 0.34488 0.0
C559 C 0.37507 0.56617 0.34868 0.0
C560 C 0.34885 0.57966 0.34924 0.0
C561 C 0.42568 0.54287 0.34917 0.0
C562 C 0.43701 0.58088 0.35293 0.0
C563 C 0.41156 0.59199 0.35277 0.0
C564 C 0.47512 0.60993 0.35711 0.0
C565 C 0.45189 0.52943 0.34992 0.0
C566 C 0.48641 0.63175 0.37988 0.0
C567 C 0.52116 0.6621 0.38283 0.0
C568 C 0.54525 0.67142 0.36298 0.0
C569 C 0.53426 0.64868 0.34052 0.0
C570 C 0.49944 0.61825 0.3376 0.0
H571 H 0.43837 0.49897 0.35232 0.0
H572 H 0.46613 0.53587 0.33169 0.0
H573 H 0.47213 0.54374 0.36578 0.0
H574 H 0.46798 0.62585 0.39512 0.0
H575 H 0.52871 0.67896 0.40038 0.0
H576 H 0.39987 0.94597 0.3634 0.0
H577 H 0.44949 0.93397 0.36322 0.0
H578 H 0.37758 0.82199 0.33481 0.0
H579 H 0.32784 0.83343 0.33503 0.0
H580 H 0.4474 0.86159 0.38772 0.0
H581 H 0.4673 0.8836 0.28331 0.0
H582 H 0.44908 0.90596 0.30252 0.0
H583 H 0.42215 0.8575 0.29391 0.0
C584 C 0.39457 0.91872 0.35726 0.0
C585 C 0.35995 0.89069 0.34912 0.0
C586 C 0.42291 0.91195 0.35722 0.0
C587 C 0.41702 0.87721 0.34889 0.0
C588 C 0.38249 0.84901 0.34123 0.0
H589 H 0.52811 0.76662 0.30969 0.0
H590 H 0.4888 0.79164 0.31472 0.0
C591 C 0.35415 0.85563 0.34139 0.0
C592 C 0.44698 0.87035 0.34739 0.0
H593 H 0.49889 0.85917 0.30447 0.0
C594 C 0.4591 0.86145 0.36964 0.0
C595 C 0.46184 0.87018 0.32372 0.0
C596 C 0.44971 0.87999 0.29942 0.0
C597 C 0.48487 0.85076 0.36865 0.0
C598 C 0.49929 0.84981 0.3448 0.0
C599 C 0.48786 0.85995 0.32271 0.0
C600 C 0.52407 0.83559 0.34188 0.0
C601 C 0.49508 0.83886 0.39287 0.0
C602 C 0.55725 0.85227 0.35525 0.0
C603 C 0.57978 0.83774 0.35259 0.0
C604 C 0.56965 0.80664 0.33622 0.0
C605 C 0.53679 0.79063 0.32243 0.0
C606 C 0.51424 0.80491 0.32527 0.0
H607 H 0.47567 0.83304 0.4081 0.0
H608 H 0.49682 0.81364 0.38918 0.0
H609 H 0.52165 0.86144 0.40018 0.0
H610 H 0.56575 0.87651 0.36771 0.0
H611 H 0.60505 0.85083 0.36334 0.0
H612 H 0.76909 0.25203 0.69602 0.0
H613 H 0.7047 0.22614 0.69356 0.0
H614 H 0.69452 0.15043 0.63235 0.0
H615 H 0.75935 0.17608 0.63479 0.0
H616 H 0.66251 0.22311 0.64996 0.0
H617 H 0.62244 0.08325 0.68591 0.0
H618 H 0.66738 0.12227 0.69033 0.0
H619 H 0.6519 0.09911 0.65951 0.0
C620 C 0.75326 0.22979 0.68206 0.0
C621 C 0.76931 0.21597 0.66566 0.0
C622 C 0.71646 0.2151 0.68066 0.0
C623 C 0.69494 0.18622 0.66294 0.0
C624 C 0.71073 0.1724 0.64639 0.0
H625 H 0.46106 0.08112 0.64883 0.0
H626 H 0.52227 0.09636 0.64055 0.0
C627 C 0.74772 0.18715 0.64776 0.0
C628 C 0.65601 0.1712 0.66197 0.0
H629 H 0.57659 0.0962 0.67762 0.0
C630 C 0.64364 0.19522 0.65571 0.0
C631 C 0.63159 0.13477 0.66941 0.0
C632 C 0.64381 0.10827 0.67685 0.0
C633 C 0.60753 0.18415 0.65749 0.0
C634 C 0.58341 0.14834 0.66601 0.0
C635 C 0.59538 0.12367 0.67115 0.0
C636 C 0.54635 0.13734 0.67167 0.0
C637 C 0.59551 0.21108 0.6508 0.0
C638 C 0.53987 0.15471 0.69229 0.0
C639 C 0.50515 0.14599 0.69717 0.0
C640 C 0.47629 0.11976 0.68145 0.0
C641 C 0.48277 0.1015 0.66125 0.0
C642 C 0.51762 0.11016 0.65646 0.0
H643 H 0.61509 0.23368 0.63891 0.0
H644 H 0.56915 0.19657 0.64036 0.0
H645 H 0.59263 0.2239 0.66869 0.0
H646 H 0.5618 0.17545 0.7044 0.0
H647 H 0.50108 0.16049 0.71291 0.0
H648 H 0.86536 0.34348 0.59657 0.0
H649 H 0.85743 0.39714 0.5984 0.0
H650 H 0.88959 0.4157 0.67843 0.0
H651 H 0.89801 0.3622 0.67674 0.0
H652 H 0.80813 0.39984 0.6303 0.0
H653 H 0.94436 0.52101 0.65056 0.0
H654 H 0.93675 0.47691 0.6381 0.0
H655 H 0.93075 0.48278 0.67137 0.0
C656 C 0.87145 0.35937 0.61446 0.0
C657 C 0.88218 0.34843 0.63653 0.0
C658 C 0.86689 0.39005 0.61547 0.0
C659 C 0.87312 0.41056 0.6385 0.0
C660 C 0.88524 0.40069 0.66034 0.0
H661 H 0.81608 0.57625 0.68132 0.0
H662 H 0.84084 0.53511 0.68147 0.0
C663 C 0.88989 0.36998 0.65935 0.0
C664 C 0.86325 0.4396 0.6401 0.0
H665 H 0.89616 0.53227 0.65174 0.0
C666 C 0.82743 0.42881 0.6349 0.0
C667 C 0.88838 0.47727 0.64645 0.0
C668 C 0.92729 0.49041 0.65177 0.0
C669 C 0.81602 0.45463 0.63574 0.0
C670 C 0.84124 0.49245 0.64147 0.0
C671 C 0.87698 0.50326 0.6472 0.0
C672 C 0.83068 0.52095 0.64096 0.0
C673 C 0.77692 0.44112 0.63074 0.0
C674 C 0.81799 0.52756 0.61799 0.0
C675 C 0.8038 0.55086 0.61783 0.0
C676 C 0.80217 0.56819 0.64065 0.0
C677 C 0.81681 0.56321 0.66343 0.0
C678 C 0.83099 0.53976 0.66356 0.0
H679 H 0.75996 0.41071 0.63306 0.0
H680 H 0.76776 0.45554 0.64383 0.0
H681 H 0.77282 0.44713 0.61079 0.0
H682 H 0.81804 0.51373 0.60027 0.0
H683 H 0.7931 0.55435 0.59991 0.0
H684 H 0.6413 0.52112 0.63758 0.0
H685 H 0.58867 0.45863 0.63301 0.0
H686 H 0.60721 0.43638 0.71015 0.0
H687 H 0.66003 0.4987 0.71489 0.0
H688 H 0.59272 0.39037 0.64135 0.0
H689 H 0.49765 0.40367 0.7037 0.0
H690 H 0.53485 0.44325 0.68976 0.0
H691 H 0.54237 0.42182 0.71662 0.0
C692 C 0.63395 0.50314 0.65371 0.0
C693 C 0.65492 0.5149 0.67661 0.0
C694 C 0.6039 0.46744 0.65103 0.0
C695 C 0.59394 0.44306 0.6713 0.0
C696 C 0.61424 0.45497 0.69439 0.0
H697 H 0.43447 0.21505 0.69695 0.0
H698 H 0.47835 0.28153 0.7002 0.0
C699 C 0.6445 0.49054 0.69701 0.0
C700 C 0.56382 0.40431 0.66776 0.0
H701 H 0.48033 0.34328 0.68783 0.0
C702 C 0.56799 0.38003 0.65132 0.0
C703 C 0.53187 0.391 0.68103 0.0
C704 C 0.52608 0.41623 0.69868 0.0
C705 C 0.5414 0.3424 0.6483 0.0
C706 C 0.50912 0.32895 0.66141 0.0
C707 C 0.50489 0.35351 0.67767 0.0
C708 C 0.48013 0.28924 0.65932 0.0
C709 C 0.54897 0.31724 0.63194 0.0
C710 C 0.46546 0.27155 0.63534 0.0
C711 C 0.44086 0.23338 0.63342 0.0
C712 C 0.42962 0.21236 0.65549 0.0
C713 C 0.44253 0.23051 0.67958 0.0
C714 C 0.46768 0.26854 0.68146 0.0
H715 H 0.57809 0.32917 0.62966 0.0
H716 H 0.53793 0.28948 0.64025 0.0
H717 H 0.53647 0.31366 0.61257 0.0
H718 H 0.47361 0.2871 0.61803 0.0
H719 H 0.43104 0.22021 0.61462 0.0
H720 H 0.74855 0.82179 0.69014 0.0
H721 H 0.76331 0.88634 0.68806 0.0
H722 H 0.8546 0.91143 0.64335 0.0
H723 H 0.83941 0.84684 0.64465 0.0
H724 H 0.82079 0.94469 0.70803 0.0
H725 H 0.81573 0.96511 0.60438 0.0
H726 H 0.79744 0.91963 0.61739 0.0
H727 H 0.84449 0.94732 0.61175 0.0
C728 C 0.77131 0.84086 0.67938 0.0
C729 C 0.79276 0.82909 0.66755 0.0
C730 C 0.77978 0.87781 0.67826 0.0
C731 C 0.80985 0.90379 0.6653 0.0
C732 C 0.83074 0.89184 0.6529 0.0
H733 H 0.94267 0.13584 0.70239 0.0
H734 H 0.91196 0.06845 0.6983 0.0
C735 C 0.82212 0.85484 0.65381 0.0
C736 C 0.82132 0.94391 0.66683 0.0
H737 H 0.84962 0.02072 0.63103 0.0
C738 C 0.82658 0.96116 0.69114 0.0
C739 C 0.8284 0.96547 0.64485 0.0
C740 C 0.82084 0.94832 0.61813 0.0
C741 C 0.84005 0.99947 0.69412 0.0
C742 C 0.84957 0.02147 0.67223 0.0
C743 C 0.84284 1.00402 0.64786 0.0
C744 C 0.8681 0.06269 0.67436 0.0
C745 C 0.84388 0.01587 0.72079 0.0
C746 C 0.85451 0.08225 0.66142 0.0
C747 C 0.87248 0.12115 0.66337 0.0
C748 C 0.9043 0.14109 0.67836 0.0
C749 C 0.91794 0.12138 0.69102 0.0
C750 C 0.90026 0.08272 0.68883 0.0
H751 H 0.82459 0.99489 0.73376 0.0
H752 H 0.87116 0.02543 0.72876 0.0
H753 H 0.83967 0.03988 0.72077 0.0
H754 H 0.8299 0.06742 0.64994 0.0
H755 H 0.86139 0.13555 0.65329 0.0
H756 H 0.93594 0.81255 0.62723 0.0
H757 H 0.0001 0.85127 0.63654 0.0
H758 H 0.98463 0.81832 0.71497 0.0
H759 H 0.92019 0.77951 0.70588 0.0
H760 H 0.0239 0.89607 0.70857 0.0
H761 H 0.07789 0.82477 0.65053 0.0
H762 H 0.04693 0.83348 0.63327 0.0
H763 H 0.0317 0.8022 0.65927 0.0
C764 C 0.94616 0.81301 0.64638 0.0
C765 C 0.92287 0.79293 0.66582 0.0
C766 C 0.98292 0.83503 0.65163 0.0
C767 C 0.99718 0.83734 0.67637 0.0
C768 C 0.97416 0.81671 0.6957 0.0
H769 H 0.21147 1.00203 0.73913 0.0
H770 H 0.15081 0.94802 0.73529 0.0
C771 C 0.93736 0.79452 0.69045 0.0
C772 C 0.03562 0.86371 0.68243 0.0
H773 H 0.11959 0.88665 0.66558 0.0
C774 C 0.04491 0.89381 0.69949 0.0
C775 C 0.06287 0.86073 0.67041 0.0
C776 C 0.05446 0.82838 0.65251 0.0
C777 C 0.08067 0.92198 0.70397 0.0
C778 C 0.10801 0.91938 0.6916 0.0
C779 C 0.0987 0.88864 0.6751 0.0
C780 C 0.1461 0.94951 0.69408 0.0
C781 C 0.08854 0.95513 0.72088 0.0
C782 C 0.1644 0.96702 0.67212 0.0
C783 C 0.19927 0.99729 0.67421 0.0
C784 C 0.21651 0.01093 0.69836 0.0
C785 C 0.19874 0.99245 0.72028 0.0
C786 C 0.16397 0.96175 0.71813 0.0
H787 H 0.06438 0.95729 0.72345 0.0
H788 H 0.0981 0.95232 0.74007 0.0
H789 H 0.10961 0.98133 0.71283 0.0
H790 H 0.15128 0.958 0.65335 0.0
H791 H 0.21216 0.01086 0.65692 0.0
H792 H 0.27372 0.19433 0.69119 0.0
H793 H 0.23546 0.2217 0.69154 0.0
H794 H 0.16511 0.14054 0.634 0.0
H795 H 0.20298 0.11318 0.63334 0.0
H796 H 0.20917 0.24643 0.64347 0.0
H797 H 0.10461 0.13389 0.7001 0.0
H798 H 0.1505 0.14477 0.70093 0.0
H799 H 0.12152 0.11972 0.67381 0.0
C800 C 0.25021 0.18246 0.67852 0.0
C801 C 0.24129 0.15151 0.66231 0.0
C802 C 0.22849 0.19815 0.67873 0.0
C803 C 0.19749 0.18286 0.66292 0.0
C804 C 0.18889 0.15248 0.64642 0.0
H805 H 0.03598 0.22763 0.61445 0.0
H806 H 0.08566 0.21622 0.61835 0.0
C807 C 0.21061 0.13697 0.64607 0.0
C808 C 0.17338 0.19787 0.66387 0.0
H809 H 0.09009 0.17598 0.68157 0.0
C810 C 0.1833 0.23136 0.65203 0.0
C811 C 0.13978 0.178 0.67513 0.0
C812 C 0.12836 0.14219 0.6884 0.0
C813 C 0.1597 0.24485 0.65039 0.0
C814 C 0.1257 0.22434 0.66094 0.0
C815 C 0.11629 0.19154 0.67352 0.0
C816 C 0.09863 0.23531 0.65797 0.0
C817 C 0.1708 0.28055 0.63711 0.0
C818 C 0.08991 0.25009 0.67896 0.0
C819 C 0.06164 0.25678 0.67681 0.0
C820 C 0.04143 0.24828 0.6537 0.0
C821 C 0.051 0.23444 0.63251 0.0
C822 C 0.0794 0.22801 0.63465 0.0
H823 H 0.19961 0.29555 0.63277 0.0
H824 H 0.15494 0.27432 0.61887 0.0
H825 H 0.16518 0.29899 0.64917 0.0
H826 H 0.10447 0.25566 0.69713 0.0
H827 H 0.05491 0.26742 0.69348 0.0
H828 H 0.15722 0.39996 0.26355 0.0
H829 H 0.15523 0.42507 0.22186 0.0
H830 H 0.04102 0.35153 0.21624 0.0
H831 H 0.04258 0.32663 0.25748 0.0
H832 H 0.12738 0.38892 0.17255 0.0
H833 H 0.05495 0.45617 0.20865 0.0
H834 H 0.07849 0.44131 0.22959 0.0
H835 H 0.03403 0.40855 0.21738 0.0
C836 C 0.13178 0.38896 0.25328 0.0
C837 C 0.1 0.36169 0.26398 0.0
C838 C 0.13069 0.40341 0.22958 0.0
C839 C 0.09785 0.39082 0.21646 0.0
C840 C 0.06649 0.3623 0.22648 0.0
H841 H 0.0165 0.36287 0.06751 0.0
H842 H 0.04335 0.36366 0.10902 0.0
C843 C 0.0675 0.34795 0.25 0.0
C844 C 0.09545 0.40682 0.19215 0.0
H845 H 0.0476 0.44071 0.16318 0.0
C846 C 0.11066 0.40108 0.1705 0.0
C847 C 0.07447 0.42361 0.18968 0.0
C848 C 0.05989 0.43317 0.21264 0.0
C849 C 0.10271 0.40866 0.14603 0.0
C850 C 0.07825 0.42133 0.1433 0.0
C851 C 0.06576 0.43027 0.16521 0.0
C852 C 0.06234 0.42161 0.11808 0.0
C853 C 0.11981 0.402 0.12334 0.0
C854 C 0.06228 0.45336 0.11 0.0
C855 C 0.04604 0.45268 0.08645 0.0
C856 C 0.02982 0.42027 0.0707 0.0
C857 C 0.02919 0.38836 0.07916 0.0
C858 C 0.04494 0.38892 0.10272 0.0
H859 H 0.14662 0.4066 0.12881 0.0
H860 H 0.10304 0.3727 0.11633 0.0
H861 H 0.12264 0.42041 0.10746 0.0
H862 H 0.07509 0.47871 0.12178 0.0
H863 H 0.04703 0.47772 0.0803 0.0
H864 H 0.66201 0.69222 0.27256 0.0
H865 H 0.63947 0.66876 0.22906 0.0
H866 H 0.60739 0.75002 0.22101 0.0
H867 H 0.62953 0.77359 0.26502 0.0
H868 H 0.55671 0.67484 0.19889 0.0
H869 H 0.69595 0.73264 0.16837 0.0
H870 H 0.68525 0.70361 0.19546 0.0
H871 H 0.68533 0.74652 0.19822 0.0
C872 C 0.65006 0.70513 0.26166 0.0
C873 C 0.64815 0.73524 0.27212 0.0
C874 C 0.63709 0.69156 0.23682 0.0
C875 C 0.62224 0.70799 0.22176 0.0
C876 C 0.61886 0.73706 0.23237 0.0
H877 H 0.61982 0.68023 0.0578 0.0
H878 H 0.62279 0.70601 0.10062 0.0
C879 C 0.6317 0.75059 0.25742 0.0
C880 C 0.61289 0.6963 0.19444 0.0
H881 H 0.65002 0.69012 0.1393 0.0
C882 C 0.57702 0.67845 0.18569 0.0
C883 C 0.63955 0.70158 0.17725 0.0
C884 C 0.67872 0.72244 0.18517 0.0
C885 C 0.56705 0.66465 0.16022 0.0
C886 C 0.59364 0.66835 0.14339 0.0
C887 C 0.62953 0.68708 0.15215 0.0
C888 C 0.58566 0.65322 0.11657 0.0
C889 C 0.52831 0.6466 0.1516 0.0
C890 C 0.56272 0.61506 0.11094 0.0
C891 C 0.56045 0.60035 0.08616 0.0
C892 C 0.58185 0.62349 0.06701 0.0
C893 C 0.60345 0.66176 0.07239 0.0
C894 C 0.60506 0.6765 0.09682 0.0
H895 H 0.51371 0.65618 0.16374 0.0
H896 H 0.52551 0.65254 0.13136 0.0
H897 H 0.51542 0.61609 0.15321 0.0
H898 H 0.54805 0.59636 0.12591 0.0
H899 H 0.54368 0.57071 0.0824 0.0
H900 H 0.43475 0.05308 0.08553 0.0
H901 H 0.40519 0.03193 0.12607 0.0
H902 H 0.35324 0.91843 0.09744 0.0
H903 H 0.38251 0.93927 0.05657 0.0
H904 H 0.32121 0.97901 0.1272 0.0
H905 H 0.40567 0.92918 0.17237 0.0
H906 H 0.42348 0.96529 0.14927 0.0
H907 H 0.39205 0.9184 0.13898 0.0
C908 C 0.41727 0.02358 0.08783 0.0
C909 C 0.41098 0.99785 0.06776 0.0
C910 C 0.40043 0.01159 0.11101 0.0
C911 C 0.37727 0.97371 0.11466 0.0
C912 C 0.37128 0.9478 0.09494 0.0
H913 H 0.27262 0.87471 0.25696 0.0
H914 H 0.29707 0.88344 0.21417 0.0
C915 C 0.38799 0.95977 0.07163 0.0
C916 C 0.35812 0.96177 0.13874 0.0
H917 H 0.36062 0.92807 0.19706 0.0
C918 C 0.32956 0.9676 0.14247 0.0
C919 C 0.36888 0.94644 0.1583 0.0
C920 C 0.39924 0.93938 0.15478 0.0
C921 C 0.3117 0.95906 0.16556 0.0
C922 C 0.32368 0.94561 0.18581 0.0
C923 C 0.3516 0.93866 0.18168 0.0
C924 C 0.30858 0.94003 0.21164 0.0
C925 C 0.27997 0.96424 0.16781 0.0
C926 C 0.30748 0.96907 0.22466 0.0
C927 C 0.29285 0.96387 0.24876 0.0
C928 C 0.28004 0.92988 0.26074 0.0
C929 C 0.28225 0.90118 0.24814 0.0
C930 C 0.2962 0.90615 0.22372 0.0
H931 H 0.26682 0.96151 0.14879 0.0
H932 H 0.25984 0.94375 0.18058 0.0
H933 H 0.28916 0.99259 0.17574 0.0
H934 H 0.31813 0.99593 0.21624 0.0
H935 H 0.29211 0.98671 0.25822 0.0
H936 H 0.38309 0.98123 0.91716 0.0
H937 H 0.3784 0.01403 0.88068 0.0
H938 H 0.45724 0.11868 0.91651 0.0
H939 H 0.46201 0.0859 0.95351 0.0
H940 H 0.37256 0.09371 0.88827 0.0
H941 H 0.47951 0.08854 0.83503 0.0
H942 H 0.45185 0.05048 0.85503 0.0
H943 H 0.48213 0.09533 0.86944 0.0
C944 C 0.39951 0.01122 0.91739 0.0
C945 C 0.42308 0.031 0.93823 0.0
C946 C 0.39664 0.02989 0.89657 0.0
C947 C 0.41737 0.06863 0.89606 0.0
C948 C 0.44092 0.08871 0.91674 0.0
H949 H 0.37262 0.15922 0.75674 0.0
H950 H 0.39366 0.16131 0.80122 0.0
C951 C 0.44369 0.06997 0.93776 0.0
C952 C 0.41467 0.08716 0.87316 0.0
H953 H 0.43887 0.09891 0.81102 0.0
C954 C 0.38769 0.09605 0.8715 0.0
C955 C 0.43451 0.08996 0.85149 0.0
C956 C 0.46381 0.08077 0.85264 0.0
C957 C 0.37821 0.10501 0.84799 0.0
C958 C 0.39628 0.105 0.82586 0.0
C959 C 0.42508 0.09889 0.82806 0.0
C960 C 0.38201 0.10451 0.79984 0.0
C961 C 0.34723 0.11157 0.84652 0.0
C962 C 0.36825 0.0719 0.7846 0.0
C963 C 0.35651 0.0707 0.75948 0.0
C964 C 0.35816 0.1021 0.74896 0.0
C965 C 0.3708 0.13454 0.76445 0.0
C966 C 0.38287 0.13579 0.78978 0.0
H967 H 0.33453 0.10824 0.86524 0.0
H968 H 0.35669 0.14014 0.84018 0.0
H969 H 0.32674 0.09194 0.83218 0.0
H970 H 0.36711 0.04738 0.79209 0.0
H971 H 0.34668 0.04521 0.74812 0.0
H972 H 0.93314 0.4149 0.93401 0.0
H973 H 0.90413 0.38463 0.89255 0.0
H974 H 0.99028 0.36498 0.87762 0.0
H975 H 0.0191 0.3946 0.91876 0.0
H976 H 0.9317 0.39648 0.83919 0.0
H977 H 0.89633 0.26001 0.87745 0.0
H978 H 0.90769 0.30017 0.89783 0.0
H979 H 0.94231 0.29494 0.88377 0.0
C980 C 0.94618 0.40475 0.92164 0.0
C981 C 0.97806 0.4065 0.92976 0.0
C982 C 0.92952 0.38739 0.89808 0.0
C983 C 0.94472 0.37184 0.88252 0.0
C984 C 0.97783 0.37613 0.88975 0.0
H985 H 0.96351 0.28725 0.7481 0.0
H986 H 0.96051 0.30925 0.79097 0.0
C987 C 0.99429 0.39317 0.91319 0.0
C988 C 0.92586 0.34941 0.85919 0.0
H989 H 0.89938 0.26452 0.83146 0.0
C990 C 0.92347 0.36732 0.83756 0.0
C991 C 0.91485 0.3113 0.85735 0.0
C992 C 0.91505 0.29034 0.88042 0.0
C993 C 0.91351 0.34879 0.81349 0.0
C994 C 0.9059 0.31176 0.81133 0.0
C995 C 0.90534 0.29298 0.8333 0.0
C996 C 0.90538 0.29483 0.7863 0.0
C997 C 0.91392 0.36959 0.79018 0.0
C998 C 0.87491 0.27848 0.76994 0.0
C999 C 0.87642 0.2655 0.7454 0.0
C1000 C 0.90856 0.26922 0.73699 0.0
C1001 C 0.93848 0.28426 0.75395 0.0
C1002 C 0.93683 0.29682 0.77842 0.0
H1003 H 0.91866 0.39768 0.79523 0.0
H1004 H 0.93524 0.37251 0.77746 0.0
H1005 H 0.88806 0.35366 0.77921 0.0
H1006 H 0.85042 0.27669 0.7759 0.0
H1007 H 0.85297 0.25405 0.73271 0.0
H1008 H 0.73092 0.61612 0.73256 0.0
H1009 H 0.7001 0.60037 0.77295 0.0
H1010 H 0.71686 0.71099 0.78058 0.0
H1011 H 0.74916 0.72732 0.74082 0.0
H1012 H 0.73059 0.69248 0.82389 0.0
H1013 H 0.60117 0.57488 0.78735 0.0
H1014 H 0.63711 0.56714 0.78066 0.0
H1015 H 0.63557 0.6051 0.76631 0.0
C1016 C 0.72786 0.63698 0.74281 0.0
C1017 C 0.7423 0.67288 0.73348 0.0
C1018 C 0.70994 0.62786 0.76579 0.0
C1019 C 0.70522 0.65415 0.77953 0.0
C1020 C 0.71989 0.69011 0.77027 0.0
H1021 H 0.56684 0.59874 0.9115 0.0
H1022 H 0.58994 0.61312 0.86813 0.0
C1023 C 0.73842 0.69946 0.74757 0.0
C1024 C 0.68667 0.64484 0.80418 0.0
H1025 H 0.61129 0.58032 0.83301 0.0
C1026 C 0.70433 0.66814 0.82575 0.0
C1027 C 0.65206 0.61351 0.80665 0.0
C1028 C 0.63024 0.589 0.78393 0.0
C1029 C 0.68895 0.66043 0.84978 0.0
C1030 C 0.65551 0.6277 0.8526 0.0
C1031 C 0.6372 0.60505 0.83092 0.0
C1032 C 0.63992 0.61611 0.87808 0.0
C1033 C 0.70867 0.68772 0.87186 0.0
C1034 C 0.65968 0.61156 0.89769 0.0
C1035 C 0.64685 0.60392 0.92232 0.0
C1036 C 0.61355 0.59977 0.92778 0.0
C1037 C 0.59262 0.6019 0.90781 0.0
C1038 C 0.60582 0.61018 0.8831 0.0
H1039 H 0.72676 0.71608 0.86504 0.0
H1040 H 0.68988 0.68901 0.88528 0.0
H1041 H 0.72535 0.679 0.88249 0.0
H1042 H 0.68547 0.6147 0.89408 0.0
H1043 H 0.66333 0.6018 0.93723 0.0
H1044 H 0.74822 0.76043 0.40778 0.0
H1045 H 0.76058 0.75719 0.45303 0.0
H1046 H 0.67165 0.76982 0.47284 0.0
H1047 H 0.65896 0.77333 0.42729 0.0
H1048 H 0.7704 0.81213 0.49776 0.0
H1049 H 0.65596 0.66684 0.50169 0.0
H1050 H 0.67625 0.68662 0.4719 0.0
H1051 H 0.64878 0.70126 0.48715 0.0
C1052 C 0.73129 0.76273 0.42168 0.0
C1053 C 0.70238 0.76686 0.41388 0.0
C1054 C 0.73859 0.7611 0.44756 0.0
C1055 C 0.71703 0.76326 0.46617 0.0
C1056 C 0.68857 0.76814 0.45865 0.0
H1057 H 0.71072 0.68935 0.62095 0.0
H1058 H 0.69956 0.71774 0.58413 0.0
C1059 C 0.68137 0.7701 0.43266 0.0
C1060 C 0.72328 0.75793 0.49323 0.0
H1061 H 0.69408 0.69163 0.53798 0.0
C1062 C 0.75351 0.78603 0.5068 0.0
C1063 C 0.70117 0.72387 0.50482 0.0
C1064 C 0.66873 0.6927 0.49076 0.0
C1065 C 0.76249 0.78071 0.53171 0.0
C1066 C 0.74119 0.74597 0.54294 0.0
C1067 C 0.71039 0.71833 0.52949 0.0
C1068 C 0.75107 0.73638 0.56782 0.0
C1069 C 0.79462 0.81237 0.54566 0.0
C1070 C 0.78427 0.73864 0.5715 0.0
C1071 C 0.79091 0.72317 0.59289 0.0
C1072 C 0.76421 0.70465 0.61055 0.0
C1073 C 0.73176 0.70389 0.60759 0.0
C1074 C 0.72536 0.71993 0.58653 0.0
H1075 H 0.79974 0.8396 0.53895 0.0
H1076 H 0.7912 0.81164 0.56666 0.0
H1077 H 0.81856 0.8104 0.54172 0.0
H1078 H 0.8042 0.75019 0.55707 0.0
H1079 H 0.81585 0.72336 0.59465 0.0
H1080 H 0.26719 0.91264 0.41726 0.0
H1081 H 0.27721 0.94 0.46068 0.0
H1082 H 0.28665 0.03949 0.4303 0.0
H1083 H 0.27551 0.01199 0.38708 0.0
H1084 H 0.3329 1.00195 0.48255 0.0
H1085 H 0.21232 0.01514 0.48279 0.0
H1086 H 0.21919 0.98871 0.45827 0.0
H1087 H 0.2413 0.03847 0.45713 0.0
C1088 C 0.27156 0.9404 0.41985 0.0
C1089 C 0.27026 0.96003 0.3988 0.0
C1090 C 0.27715 0.95594 0.44464 0.0
C1091 C 0.28175 0.99141 0.44875 0.0
C1092 C 0.28197 0.01163 0.42766 0.0
H1093 H 0.32701 0.12609 0.59071 0.0
H1094 H 0.31554 0.1051 0.54532 0.0
C1095 C 0.27593 0.99597 0.40295 0.0
C1096 C 0.28704 0.00751 0.47508 0.0
H1097 H 0.25319 0.04271 0.51838 0.0
C1098 C 0.31544 0.0108 0.49037 0.0
C1099 C 0.26429 0.01923 0.4852 0.0
C1100 C 0.23237 0.01492 0.4701 0.0
C1101 C 0.32175 0.02546 0.51552 0.0
C1102 C 0.2988 0.03676 0.52572 0.0
C1103 C 0.27078 0.03416 0.51036 0.0
C1104 C 0.30232 0.04896 0.55287 0.0
C1105 C 0.35296 0.02871 0.53099 0.0
C1106 C 0.29732 0.02394 0.57194 0.0
C1107 C 0.30406 0.03581 0.59755 0.0
C1108 C 0.31547 0.07285 0.60465 0.0
C1109 C 0.31837 0.09744 0.5857 0.0
C1110 C 0.3119 0.08553 0.55986 0.0
H1111 H 0.3732 0.02844 0.51853 0.0
H1112 H 0.36608 0.05457 0.54319 0.0
H1113 H 0.34322 1.00475 0.54366 0.0
H1114 H 0.28908 0.99539 0.56694 0.0
H1115 H 0.30092 0.01604 0.6118 0.0
H1116 H 0.90615 0.20795 0.58381 0.0
H1117 H 0.93429 0.2123 0.54274 0.0
H1118 H 0.00955 0.3283 0.55976 0.0
H1119 H 0.98242 0.32391 0.60071 0.0
H1120 H 0.94354 0.25294 0.50187 0.0
H1121 H 0.07616 0.29163 0.54291 0.0
H1122 H 0.0372 0.27408 0.56211 0.0
H1123 H 0.06269 0.32269 0.55523 0.0
C1124 C 0.92855 0.23436 0.57862 0.0
C1125 C 0.94237 0.26551 0.59549 0.0
C1126 C 0.94473 0.23676 0.5553 0.0
C1127 C 0.97478 0.27033 0.54863 0.0
C1128 C 0.98731 0.30178 0.56496 0.0
H1129 H 0.04657 0.3588 0.404 0.0
H1130 H 0.02063 0.33899 0.44577 0.0
C1131 C 0.97151 0.29932 0.58823 0.0
C1132 C 0.99254 0.2735 0.52422 0.0
H1133 H 0.07516 0.31031 0.49928 0.0
C1134 C 0.97223 0.26483 0.50128 0.0
C1135 C 0.02983 0.28793 0.52341 0.0
C1136 C 0.0526 0.29416 0.54727 0.0
C1137 C 0.98856 0.27281 0.4776 0.0
C1138 C 0.02631 0.29119 0.47698 0.0
C1139 C 0.04634 0.2972 0.49979 0.0
C1140 C 0.04537 0.30624 0.45306 0.0
C1141 C 0.96513 0.26178 0.45353 0.0
C1142 C 0.07018 0.29689 0.44426 0.0
C1143 C 0.08606 0.30935 0.42071 0.0
C1144 C 0.07696 0.33097 0.40573 0.0
C1145 C 0.05372 0.34191 0.41522 0.0
C1146 C 0.03854 0.33017 0.43887 0.0
H1147 H 0.93844 0.23707 0.4565 0.0
H1148 H 0.96096 0.28488 0.44832 0.0
H1149 H 0.97741 0.25544 0.43728 0.0
H1150 H 0.07621 0.27886 0.4551 0.0
H1151 H 0.10372 0.30036 0.41357 0.0
loop_
_geom_bond_atom_site_label_1
_geom_bond_atom_site_label_2
_geom_bond_distance
_geom_bond_site_symmetry_2
_ccdc_geom_bond_type
Zn0 O6 1.962 1_554 S
Zn0 O7 1.990 . S
Zn0 O11 2.032 . S
Zn0 O16 1.939 1_554 S
Zn1 O8 1.969 . S
Zn1 O14 1.969 . S
Zn1 O15 1.965 1_554 S
Zn1 O17 2.028 . S
C2 O3 1.229 . S
C2 O11 1.058 1_556 S
O3 C2 1.229 . S
C4 O5 1.229 . S
C4 O17 1.073 . S
O5 C4 1.229 . S
O6 Zn0 1.962 1_556 S
O6 C9 1.267 1_556 S
O7 Zn0 1.990 . S
O7 C18 1.260 . S
O8 Zn1 1.969 . S
O8 C18 1.258 1_655 S
C9 O6 1.267 1_554 S
C9 O10 1.228 . S
O10 C9 1.228 . S
O11 Zn0 2.032 . S
O11 C2 1.058 1_554 S
C12 O13 1.228 1_554 S
C12 O14 1.267 . S
O13 C12 1.228 1_556 S
O14 Zn1 1.969 . S
O14 C12 1.267 . S
O15 Zn1 1.965 1_556 S
O15 C19 1.260 1_655 S
O16 Zn0 1.939 1_556 S
O16 C19 1.258 . S
O17 Zn1 2.028 . S
O17 C4 1.073 . S
C18 O7 1.260 . S
C18 O8 1.258 1_455 S
C19 O15 1.260 1_455 S
C19 O16 1.258 . S
Zn20 O26 1.969 . S
Zn20 O27 1.965 1_554 S
Zn20 O31 2.024 1_554 S
Zn20 O36 1.969 . S
Zn21 O28 1.969 . S
Zn21 O34 1.969 . S
Zn21 O35 1.965 1_556 S
Zn21 O37 2.024 1_556 S
C22 O23 1.229 . S
C22 O31 1.058 1_554 S
O23 C22 1.229 . S
C24 O25 1.229 . S
C24 O37 1.058 1_556 S
O25 C24 1.229 . S
O26 Zn20 1.969 . S
O26 C29 1.285 . S
O27 Zn20 1.965 1_556 S
O27 C38 1.260 . S
O28 Zn21 1.969 . S
O28 C38 1.258 . S
C29 O26 1.285 . S
C29 O30 1.208 1_554 S
O30 C29 1.208 1_556 S
O31 Zn20 2.024 1_556 S
O31 C22 1.058 1_556 S
C32 O33 1.228 . S
C32 O34 1.267 1_554 S
O33 C32 1.228 . S
O34 Zn21 1.969 . S
O34 C32 1.267 1_556 S
O35 Zn21 1.965 1_554 S
O35 C39 1.260 . S
O36 Zn20 1.969 . S
O36 C39 1.258 . S
O37 Zn21 2.024 1_554 S
O37 C24 1.058 1_554 S
C38 O27 1.260 . S
C38 O28 1.258 . S
C39 O35 1.260 . S
C39 O36 1.258 . S
Zn40 O46 1.978 . S
Zn40 O47 1.937 1_556 S
Zn40 O51 2.015 1_556 S
Zn40 O56 2.005 . S
Zn41 O48 1.969 . S
Zn41 O54 1.969 . S
Zn41 O55 1.965 1_554 S
Zn41 O57 2.024 . S
C42 O43 1.229 . S
C42 O51 1.058 1_556 S
O43 C42 1.229 . S
C44 O45 1.229 . S
C44 O57 1.058 . S
O45 C44 1.229 . S
O46 Zn40 1.978 . S
O46 C49 1.267 1_556 S
O47 Zn40 1.937 1_554 S
O47 C58 1.253 1_565 S
O48 Zn41 1.969 . S
O48 C58 1.275 . S
C49 O46 1.267 1_554 S
C49 O50 1.228 . S
O50 C49 1.228 . S
O51 Zn40 2.015 1_554 S
O51 C42 1.058 1_554 S
C52 O53 1.228 1_554 S
C52 O54 1.267 . S
O53 C52 1.228 1_556 S
O54 Zn41 1.969 . S
O54 C52 1.267 . S
O55 Zn41 1.965 1_556 S
O55 C59 1.260 . S
O56 Zn40 2.005 . S
O56 C59 1.258 1_565 S
O57 Zn41 2.024 . S
O57 C44 1.058 . S
C58 O47 1.253 1_545 S
C58 O48 1.275 . S
C59 O55 1.260 . S
C59 O56 1.258 1_545 S
Zn60 O66 1.969 . S
Zn60 O67 1.965 . S
Zn60 O71 2.024 . S
Zn60 O76 1.969 . S
Zn61 O68 1.969 . S
Zn61 O74 1.969 . S
Zn61 O75 1.965 . S
Zn61 O77 2.024 . S
C62 O63 1.229 . S
C62 O71 1.058 . S
O63 C62 1.229 . S
C64 O65 1.229 . S
C64 O77 1.058 . S
O65 C64 1.229 . S
O66 Zn60 1.969 . S
O66 C69 1.267 . S
O67 Zn60 1.965 . S
O67 C78 1.260 . S
O68 Zn61 1.969 . S
O68 C78 1.258 . S
C69 O66 1.267 . S
C69 O70 1.228 . S
O70 C69 1.228 . S
O71 Zn60 2.024 . S
O71 C62 1.058 . S
C72 O73 1.228 . S
C72 O74 1.267 . S
O73 C72 1.228 . S
O74 Zn61 1.969 . S
O74 C72 1.267 . S
O75 Zn61 1.965 . S
O75 C79 1.260 . S
O76 Zn60 1.969 . S
O76 C79 1.258 . S
O77 Zn61 2.024 . S
O77 C64 1.058 . S
C78 O67 1.260 . S
C78 O68 1.258 . S
C79 O75 1.260 . S
C79 O76 1.258 . S
Zn80 O86 1.969 . S
Zn80 O87 1.965 . S
Zn80 O91 2.024 . S
Zn80 O96 1.969 . S
Zn81 O88 1.969 . S
Zn81 O94 1.969 . S
Zn81 O95 1.965 . S
Zn81 O97 2.024 . S
C82 O83 1.229 . S
C82 O91 1.058 . S
O83 C82 1.229 . S
C84 O85 1.229 . S
C84 O97 1.058 . S
O85 C84 1.229 . S
O86 Zn80 1.969 . S
O86 C89 1.267 . S
O87 Zn80 1.965 . S
O87 C98 1.260 . S
O88 Zn81 1.969 . S
O88 C98 1.258 . S
C89 O86 1.267 . S
C89 O90 1.228 . S
O90 C89 1.228 . S
O91 Zn80 2.024 . S
O91 C82 1.058 . S
C92 O93 1.228 . S
C92 O94 1.267 . S
O93 C92 1.228 . S
O94 Zn81 1.969 . S
O94 C92 1.267 . S
O95 Zn81 1.965 . S
O95 C99 1.260 . S
O96 Zn80 1.969 . S
O96 C99 1.258 . S
O97 Zn81 2.024 . S
O97 C84 1.058 . S
C98 O87 1.260 . S
C98 O88 1.258 . S
C99 O95 1.260 . S
C99 O96 1.258 . S
Zn100 O106 1.969 . S
Zn100 O107 1.965 . S
Zn100 O111 2.024 . S
Zn100 O116 1.969 . S
Zn101 O108 1.969 . S
Zn101 O114 1.969 . S
Zn101 O115 1.965 . S
Zn101 O117 2.024 . S
C102 O103 1.229 . S
C102 O111 1.058 . S
O103 C102 1.229 . S
C104 O105 1.229 . S
C104 O117 1.058 . S
O105 C104 1.229 . S
O106 Zn100 1.969 . S
O106 C109 1.267 . S
O107 Zn100 1.965 . S
O107 C118 1.260 . S
O108 Zn101 1.969 . S
O108 C118 1.258 . S
C109 O106 1.267 . S
C109 O110 1.228 . S
O110 C109 1.228 . S
O111 Zn100 2.024 . S
O111 C102 1.058 . S
C112 O113 1.228 . S
C112 O114 1.267 . S
O113 C112 1.228 . S
O114 Zn101 1.969 . S
O114 C112 1.267 . S
O115 Zn101 1.965 . S
O115 C119 1.260 . S
O116 Zn100 1.969 . S
O116 C119 1.258 . S
O117 Zn101 2.024 . S
O117 C104 1.058 . S
C118 O107 1.260 . S
C118 O108 1.258 . S
C119 O115 1.260 . S
C119 O116 1.258 . S
Zn120 O126 1.969 . S
Zn120 O127 1.965 . S
Zn120 O131 2.024 . S
Zn120 O136 1.969 . S
Zn121 O128 1.969 . S
Zn121 O134 1.969 . S
Zn121 O135 1.965 . S
Zn121 O137 2.024 . S
C122 O123 1.229 . S
C122 O131 1.058 . S
O123 C122 1.229 . S
C124 O125 1.229 . S
C124 O137 1.058 . S
O125 C124 1.229 . S
O126 Zn120 1.969 . S
O126 C129 1.267 . S
O127 Zn120 1.965 . S
O127 C138 1.260 . S
O128 Zn121 1.969 . S
O128 C138 1.258 . S
C129 O126 1.267 . S
C129 O130 1.228 . S
O130 C129 1.228 . S
O131 Zn120 2.024 . S
O131 C122 1.058 . S
C132 O133 1.228 . S
C132 O134 1.267 . S
O133 C132 1.228 . S
O134 Zn121 1.969 . S
O134 C132 1.267 . S
O135 Zn121 1.965 . S
O135 C139 1.260 . S
O136 Zn120 1.969 . S
O136 C139 1.258 . S
O137 Zn121 2.024 . S
O137 C124 1.058 . S
C138 O127 1.260 . S
C138 O128 1.258 . S
C139 O135 1.260 . S
C139 O136 1.258 . S
Zn140 O146 1.969 . S
Zn140 O147 1.965 . S
Zn140 O151 2.024 . S
Zn140 O156 1.969 . S
Zn141 O148 1.969 . S
Zn141 O154 1.969 . S
Zn141 O155 1.965 . S
Zn141 O157 2.024 . S
C142 O143 1.229 . S
C142 O151 1.058 . S
O143 C142 1.229 . S
C144 O145 1.229 . S
C144 O157 1.058 . S
O145 C144 1.229 . S
O146 Zn140 1.969 . S
O146 C149 1.267 . S
O147 Zn140 1.965 . S
O147 C158 1.260 . S
O148 Zn141 1.969 . S
O148 C158 1.258 . S
C149 O146 1.267 . S
C149 O150 1.228 . S
O150 C149 1.228 . S
O151 Zn140 2.024 . S
O151 C142 1.058 . S
C152 O153 1.228 . S
C152 O154 1.267 . S
O153 C152 1.228 . S
O154 Zn141 1.969 . S
O154 C152 1.267 . S
O155 Zn141 1.965 . S
O155 C159 1.260 . S
O156 Zn140 1.969 . S
O156 C159 1.258 . S
O157 Zn141 2.024 . S
O157 C144 1.058 . S
C158 O147 1.260 . S
C158 O148 1.258 . S
C159 O155 1.260 . S
C159 O156 1.258 . S
Zn160 O166 1.969 . S
Zn160 O167 1.965 . S
Zn160 O171 2.024 . S
Zn160 O176 1.969 . S
Zn161 O168 1.969 . S
Zn161 O174 1.969 . S
Zn161 O175 1.965 . S
Zn161 O177 2.024 . S
C162 O163 1.229 . S
C162 O171 1.058 . S
O163 C162 1.229 . S
C164 O165 1.229 . S
C164 O177 1.058 . S
O165 C164 1.229 . S
O166 Zn160 1.969 . S
O166 C169 1.267 . S
O167 Zn160 1.965 . S
O167 C178 1.260 . S
O168 Zn161 1.969 . S
O168 C178 1.258 . S
C169 O166 1.267 . S
C169 O170 1.228 . S
O170 C169 1.228 . S
O171 Zn160 2.024 . S
O171 C162 1.058 . S
C172 O173 1.228 . S
C172 O174 1.267 . S
O173 C172 1.228 . S
O174 Zn161 1.969 . S
O174 C172 1.267 . S
O175 Zn161 1.965 . S
O175 C179 1.260 . S
O176 Zn160 1.969 . S
O176 C179 1.258 . S
O177 Zn161 2.024 . S
O177 C164 1.058 . S
C178 O167 1.260 . S
C178 O168 1.258 . S
C179 O175 1.260 . S
C179 O176 1.258 . S
H180 C188 0.929 . S
H181 C190 0.930 . S
H182 C192 0.930 . S
H183 C195 0.929 . S
H184 C198 0.930 . S
H185 C200 0.960 . S
H186 C200 0.960 1_554 S
H187 C200 0.960 . S
C188 H180 0.929 . S
C188 C189 1.377 . S
C188 C190 1.384 . S
C189 C188 1.377 . S
C189 C195 1.390 1_554 S
C190 H181 0.930 . S
C190 C188 1.384 . S
C190 C191 1.372 . S
C191 C190 1.372 . S
C191 C192 1.400 1_554 S
C191 C196 1.490 . S
C192 H182 0.930 . S
C192 C191 1.400 1_556 S
C192 C195 1.386 . S
H193 C209 0.930 . S
H194 C210 0.931 . S
C195 H183 0.929 . S
C195 C189 1.390 1_556 S
C195 C192 1.386 . S
C196 C191 1.490 . S
C196 C198 1.395 . S
C196 C199 1.403 1_554 S
H197 C203 0.930 . S
C198 H184 0.930 . S
C198 C196 1.395 . S
C198 C201 1.403 . S
C199 C196 1.403 1_556 S
C199 C200 1.524 . S
C199 C203 1.400 . S
C200 H185 0.960 . S
C200 H186 0.960 1_556 S
C200 H187 0.960 . S
C200 C199 1.524 . S
C201 C198 1.403 . S
C201 C202 1.392 . S
C201 C205 1.495 . S
C202 C201 1.392 . S
C202 C203 1.385 1_554 S
C202 C204 1.478 . S
C203 H197 0.930 . S
C203 C199 1.400 . S
C203 C202 1.385 1_556 S
C204 C202 1.478 . S
C204 C206 1.381 . S
C204 C210 1.383 1_554 S
C205 C201 1.495 . S
C205 H211 0.959 . S
C205 H212 0.961 . S
C205 H213 0.960 . S
C206 C204 1.381 . S
C206 C207 1.394 . S
C206 H214 0.930 . S
C207 C206 1.394 . S
C207 C208 1.383 . S
C207 H215 0.929 . S
C208 C207 1.383 . S
C208 C209 1.377 1_554 S
C209 H193 0.930 . S
C209 C208 1.377 1_556 S
C209 C210 1.379 . S
C210 H194 0.931 . S
C210 C204 1.383 1_556 S
C210 C209 1.379 . S
H211 C205 0.959 . S
H212 C205 0.961 . S
H213 C205 0.960 . S
H214 C206 0.930 . S
H215 C207 0.929 . S
H216 C224 0.929 . S
H217 C226 0.930 . S
H218 C228 0.930 . S
H219 C231 0.929 . S
H220 C234 0.930 . S
H221 C236 0.960 . S
H222 C236 0.960 . S
H223 C236 0.960 . S
C224 H216 0.929 . S
C224 C225 1.377 . S
C224 C226 1.384 . S
C225 C224 1.377 . S
C225 C231 1.390 1_556 S
C226 H217 0.930 . S
C226 C224 1.384 . S
C226 C227 1.372 . S
C227 C226 1.372 . S
C227 C228 1.400 1_556 S
C227 C232 1.490 . S
C228 H218 0.930 . S
C228 C227 1.400 1_554 S
C228 C231 1.386 . S
H229 C245 0.930 . S
H230 C246 0.931 . S
C231 H219 0.929 . S
C231 C225 1.390 1_554 S
C231 C228 1.386 . S
C232 C227 1.490 . S
C232 C234 1.395 . S
C232 C235 1.403 1_556 S
H233 C239 0.930 . S
C234 H220 0.930 . S
C234 C232 1.395 . S
C234 C237 1.403 . S
C235 C232 1.403 1_554 S
C235 C236 1.524 . S
C235 C239 1.400 . S
C236 H221 0.960 . S
C236 H222 0.960 . S
C236 H223 0.960 . S
C236 C235 1.524 . S
C237 C234 1.403 . S
C237 C238 1.392 . S
C237 C241 1.495 . S
C238 C237 1.392 . S
C238 C239 1.385 1_556 S
C238 C240 1.478 . S
C239 H233 0.930 . S
C239 C235 1.400 . S
C239 C238 1.385 1_554 S
C240 C238 1.478 . S
C240 C242 1.381 . S
C240 C246 1.383 1_556 S
C241 C237 1.495 . S
C241 H247 0.959 . S
C241 H248 0.961 . S
C241 H249 0.960 . S
C242 C240 1.381 . S
C242 C243 1.394 . S
C242 H250 0.930 . S
C243 C242 1.394 . S
C243 C244 1.383 . S
C243 H251 0.929 . S
C244 C243 1.383 . S
C244 C245 1.377 1_556 S
C245 H229 0.930 . S
C245 C244 1.377 1_554 S
C245 C246 1.379 . S
C246 H230 0.931 . S
C246 C240 1.383 1_554 S
C246 C245 1.379 . S
H247 C241 0.959 . S
H248 C241 0.961 . S
H249 C241 0.960 . S
H250 C242 0.930 . S
H251 C243 0.929 . S
H252 C260 0.929 . S
H253 C262 0.930 . S
H254 C264 0.930 . S
H255 C267 0.929 . S
H256 C270 0.930 . S
H257 C272 0.960 . S
H258 C272 0.960 . S
H259 C272 0.960 . S
C260 H252 0.929 . S
C260 C261 1.377 . S
C260 C262 1.384 . S
C261 C260 1.377 . S
C261 C267 1.390 1_554 S
C262 H253 0.930 . S
C262 C260 1.384 . S
C262 C263 1.372 . S
C263 C262 1.372 . S
C263 C264 1.400 1_554 S
C263 C268 1.490 . S
C264 H254 0.930 . S
C264 C263 1.400 1_556 S
C264 C267 1.386 . S
H265 C281 0.930 . S
H266 C282 0.931 . S
C267 H255 0.929 . S
C267 C261 1.390 1_556 S
C267 C264 1.386 . S
C268 C263 1.490 . S
C268 C270 1.395 . S
C268 C271 1.403 1_554 S
H269 C275 0.930 . S
C270 H256 0.930 . S
C270 C268 1.395 . S
C270 C273 1.403 . S
C271 C268 1.403 1_556 S
C271 C272 1.524 . S
C271 C275 1.400 . S
C272 H257 0.960 . S
C272 H258 0.960 . S
C272 H259 0.960 . S
C272 C271 1.524 . S
C273 C270 1.403 . S
C273 C274 1.392 . S
C273 C277 1.495 . S
C274 C273 1.392 . S
C274 C275 1.385 1_554 S
C274 C276 1.478 . S
C275 H269 0.930 . S
C275 C271 1.400 . S
C275 C274 1.385 1_556 S
C276 C274 1.478 . S
C276 C278 1.381 . S
C276 C282 1.383 1_554 S
C277 C273 1.495 . S
C277 H283 0.959 . S
C277 H284 0.961 . S
C277 H285 0.960 . S
C278 C276 1.381 . S
C278 C279 1.394 . S
C278 H286 0.930 . S
C279 C278 1.394 . S
C279 C280 1.384 1_554 S
C279 H287 0.929 . S
C280 C279 1.384 1_556 S
C280 C281 1.376 . S
C281 H265 0.930 . S
C281 C280 1.376 . S
C281 C282 1.379 . S
C282 H266 0.931 . S
C282 C276 1.383 1_556 S
C282 C281 1.379 . S
H283 C277 0.959 . S
H284 C277 0.961 . S
H285 C277 0.960 . S
H286 C278 0.930 . S
H287 C279 0.929 . S
H288 C296 0.929 . S
H289 C298 0.930 . S
H290 C300 0.930 . S
H291 C303 0.929 . S
H292 C306 0.929 1_556 S
H293 C308 0.960 . S
H294 C308 0.960 . S
H295 C308 0.960 . S
C296 H288 0.929 . S
C296 C297 1.377 1_556 S
C296 C298 1.384 . S
C297 C296 1.377 1_554 S
C297 C303 1.390 . S
C298 H289 0.930 . S
C298 C296 1.384 . S
C298 C299 1.372 1_556 S
C299 C298 1.372 1_554 S
C299 C300 1.400 . S
C299 C304 1.490 . S
C300 H290 0.930 . S
C300 C299 1.400 . S
C300 C303 1.386 . S
H301 C317 0.930 . S
H302 C318 0.931 . S
C303 H291 0.929 . S
C303 C297 1.390 . S
C303 C300 1.386 . S
C304 C299 1.490 . S
C304 C306 1.395 . S
C304 C307 1.403 . S
H305 C311 0.930 . S
C306 H292 0.929 1_554 S
C306 C304 1.395 . S
C306 C309 1.403 . S
C307 C304 1.403 . S
C307 C308 1.524 . S
C307 C311 1.400 . S
C308 H293 0.960 . S
C308 H294 0.960 . S
C308 H295 0.960 . S
C308 C307 1.524 . S
C309 C306 1.403 . S
C309 C310 1.392 . S
C309 C313 1.495 1_554 S
C310 C309 1.392 . S
C310 C311 1.385 . S
C310 C312 1.478 . S
C311 H305 0.930 . S
C311 C307 1.400 . S
C311 C310 1.385 . S
C312 C310 1.478 . S
C312 C314 1.381 1_554 S
C312 C318 1.383 . S
C313 C309 1.495 1_556 S
C313 H319 0.959 . S
C313 H320 0.961 1_556 S
C313 H321 0.960 . S
C314 C312 1.381 1_556 S
C314 C315 1.394 . S
C314 H322 0.930 . S
C315 C314 1.394 . S
C315 C316 1.383 1_556 S
C315 H323 0.929 . S
C316 C315 1.383 1_554 S
C316 C317 1.377 . S
C317 H301 0.930 . S
C317 C316 1.377 . S
C317 C318 1.379 . S
C318 H302 0.931 . S
C318 C312 1.383 . S
C318 C317 1.379 . S
H319 C313 0.959 . S
H320 C313 0.961 1_554 S
H321 C313 0.960 . S
H322 C314 0.930 . S
H323 C315 0.929 . S
H324 C332 0.929 . S
H325 C334 0.930 . S
H326 C336 0.930 . S
H327 C339 0.929 . S
H328 C342 0.930 . S
H329 C344 0.960 . S
H330 C344 0.960 . S
H331 C344 0.960 1_556 S
C332 H324 0.929 . S
C332 C333 1.377 . S
C332 C334 1.384 . S
C333 C332 1.377 . S
C333 C339 1.390 1_554 S
C334 H325 0.930 . S
C334 C332 1.384 . S
C334 C335 1.372 . S
C335 C334 1.372 . S
C335 C336 1.400 1_554 S
C335 C340 1.490 . S
C336 H326 0.930 . S
C336 C335 1.400 1_556 S
C336 C339 1.386 . S
H337 C353 0.930 . S
H338 C354 0.931 . S
C339 H327 0.929 . S
C339 C333 1.390 1_556 S
C339 C336 1.386 . S
C340 C335 1.490 . S
C340 C342 1.395 . S
C340 C343 1.403 . S
H341 C347 0.930 . S
C342 H328 0.930 . S
C342 C340 1.395 . S
C342 C345 1.403 . S
C343 C340 1.403 . S
C343 C344 1.524 . S
C343 C347 1.400 . S
C344 H329 0.960 . S
C344 H330 0.960 . S
C344 H331 0.960 1_554 S
C344 C343 1.524 . S
C345 C342 1.403 . S
C345 C346 1.392 . S
C345 C349 1.495 . S
C346 C345 1.392 . S
C346 C347 1.385 . S
C346 C348 1.478 . S
C347 H341 0.930 . S
C347 C343 1.400 . S
C347 C346 1.385 . S
C348 C346 1.478 . S
C348 C350 1.381 . S
C348 C354 1.383 1_554 S
C349 C345 1.495 . S
C349 H355 0.959 . S
C349 H356 0.961 1_554 S
C349 H357 0.960 . S
C350 C348 1.381 . S
C350 C351 1.394 . S
C350 H358 0.930 . S
C351 C350 1.394 . S
C351 C352 1.383 . S
C351 H359 0.929 . S
C352 C351 1.383 . S
C352 C353 1.377 1_554 S
C353 H337 0.930 . S
C353 C352 1.377 1_556 S
C353 C354 1.379 . S
C354 H338 0.931 . S
C354 C348 1.383 1_556 S
C354 C353 1.379 . S
H355 C349 0.959 . S
H356 C349 0.961 1_556 S
H357 C349 0.960 . S
H358 C350 0.930 . S
H359 C351 0.929 . S
H360 C368 0.929 . S
H361 C370 0.930 . S
H362 C372 0.930 . S
H363 C375 0.929 . S
H364 C378 0.930 . S
H365 C380 0.960 . S
H366 C380 0.960 . S
H367 C380 0.960 1_556 S
C368 H360 0.929 . S
C368 C369 1.377 . S
C368 C370 1.384 . S
C369 C368 1.377 . S
C369 C375 1.390 1_554 S
C370 H361 0.930 . S
C370 C368 1.384 . S
C370 C371 1.372 . S
C371 C370 1.372 . S
C371 C372 1.400 1_554 S
C371 C376 1.490 . S
C372 H362 0.930 . S
C372 C371 1.400 1_556 S
C372 C375 1.386 . S
H373 C389 0.930 . S
H374 C390 0.931 . S
C375 H363 0.929 . S
C375 C369 1.390 1_556 S
C375 C372 1.386 . S
C376 C371 1.490 . S
C376 C378 1.395 . S
C376 C379 1.403 . S
H377 C383 0.930 . S
C378 H364 0.930 . S
C378 C376 1.395 . S
C378 C381 1.403 . S
C379 C376 1.403 . S
C379 C380 1.524 . S
C379 C383 1.400 . S
C380 H365 0.960 . S
C380 H366 0.960 . S
C380 H367 0.960 1_554 S
C380 C379 1.524 . S
C381 C378 1.403 . S
C381 C382 1.392 . S
C381 C385 1.495 . S
C382 C381 1.392 . S
C382 C383 1.385 . S
C382 C384 1.478 . S
C383 H377 0.930 . S
C383 C379 1.400 . S
C383 C382 1.385 . S
C384 C382 1.478 . S
C384 C386 1.381 . S
C384 C390 1.383 1_554 S
C385 C381 1.495 . S
C385 H391 0.959 . S
C385 H392 0.961 1_554 S
C385 H393 0.960 . S
C386 C384 1.381 . S
C386 C387 1.394 . S
C386 H394 0.930 . S
C387 C386 1.394 . S
C387 C388 1.383 . S
C387 H395 0.929 . S
C388 C387 1.383 . S
C388 C389 1.377 1_554 S
C389 H373 0.930 . S
C389 C388 1.377 1_556 S
C389 C390 1.379 . S
C390 H374 0.931 . S
C390 C384 1.383 1_556 S
C390 C389 1.379 . S
H391 C385 0.959 . S
H392 C385 0.961 1_556 S
H393 C385 0.960 . S
H394 C386 0.930 . S
H395 C387 0.929 . S
H396 C404 0.929 . S
H397 C406 0.930 . S
H398 C408 0.930 . S
H399 C411 0.929 . S
H400 C414 0.930 . S
H401 C416 0.960 . S
H402 C416 0.960 . S
H403 C416 0.960 . S
C404 H396 0.929 . S
C404 C405 1.377 . S
C404 C406 1.384 . S
C405 C404 1.377 . S
C405 C411 1.390 . S
C406 H397 0.930 . S
C406 C404 1.384 . S
C406 C407 1.372 . S
C407 C406 1.372 . S
C407 C408 1.400 . S
C407 C412 1.490 . S
C408 H398 0.930 . S
C408 C407 1.400 . S
C408 C411 1.386 . S
H409 C425 0.930 . S
H410 C426 0.931 . S
C411 H399 0.929 . S
C411 C405 1.390 . S
C411 C408 1.386 . S
C412 C407 1.490 . S
C412 C414 1.395 . S
C412 C415 1.403 . S
H413 C419 0.930 . S
C414 H400 0.930 . S
C414 C412 1.395 . S
C414 C417 1.403 . S
C415 C412 1.403 . S
C415 C416 1.524 . S
C415 C419 1.400 . S
C416 H401 0.960 . S
C416 H402 0.960 . S
C416 H403 0.960 . S
C416 C415 1.524 . S
C417 C414 1.403 . S
C417 C418 1.392 . S
C417 C421 1.495 . S
C418 C417 1.392 . S
C418 C419 1.385 . S
C418 C420 1.478 1_655 S
C419 H413 0.930 . S
C419 C415 1.400 . S
C419 C418 1.385 . S
C420 C418 1.478 1_455 S
C420 C422 1.381 . S
C420 C426 1.383 . S
C421 C417 1.495 . S
C421 H427 0.959 . S
C421 H428 0.961 . S
C421 H429 0.960 . S
C422 C420 1.381 . S
C422 C423 1.394 . S
C422 H430 0.930 . S
C423 C422 1.394 . S
C423 C424 1.383 . S
C423 H431 0.929 . S
C424 C423 1.383 . S
C424 C425 1.377 . S
C425 H409 0.930 . S
C425 C424 1.377 . S
C425 C426 1.379 . S
C426 H410 0.931 . S
C426 C420 1.383 . S
C426 C425 1.379 . S
H427 C421 0.959 . S
H428 C421 0.961 . S
H429 C421 0.960 . S
H430 C422 0.930 . S
H431 C423 0.929 . S
H432 C440 0.929 . S
H433 C442 0.930 . S
H434 C444 0.930 . S
H435 C447 0.929 . S
H436 C450 0.930 . S
H437 C452 0.960 . S
H438 C452 0.960 . S
H439 C452 0.960 . S
C440 H432 0.929 . S
C440 C441 1.377 . S
C440 C442 1.384 . S
C441 C440 1.377 . S
C441 C447 1.390 . S
C442 H433 0.930 . S
C442 C440 1.384 . S
C442 C443 1.372 . S
C443 C442 1.372 . S
C443 C444 1.400 . S
C443 C448 1.490 . S
C444 H434 0.930 . S
C444 C443 1.400 . S
C444 C447 1.386 . S
H445 C461 0.930 . S
H446 C462 0.931 . S
C447 H435 0.929 . S
C447 C441 1.390 . S
C447 C444 1.386 . S
C448 C443 1.490 . S
C448 C450 1.395 . S
C448 C451 1.403 . S
H449 C455 0.930 . S
C450 H436 0.930 . S
C450 C448 1.395 . S
C450 C453 1.403 . S
C451 C448 1.403 . S
C451 C452 1.524 . S
C451 C455 1.400 . S
C452 H437 0.960 . S
C452 H438 0.960 . S
C452 H439 0.960 . S
C452 C451 1.524 . S
C453 C450 1.403 . S
C453 C454 1.392 . S
C453 C457 1.495 . S
C454 C453 1.392 . S
C454 C455 1.385 . S
C454 C456 1.478 . S
C455 H449 0.930 . S
C455 C451 1.400 . S
C455 C454 1.385 . S
C456 C454 1.478 . S
C456 C458 1.381 . S
C456 C462 1.383 . S
C457 C453 1.495 . S
C457 H463 0.959 . S
C457 H464 0.961 . S
C457 H465 0.960 . S
C458 C456 1.381 . S
C458 C459 1.394 . S
C458 H466 0.930 . S
C459 C458 1.394 . S
C459 C460 1.383 . S
C459 H467 0.929 . S
C460 C459 1.383 . S
C460 C461 1.377 . S
C461 H445 0.930 . S
C461 C460 1.377 . S
C461 C462 1.379 . S
C462 H446 0.931 . S
C462 C456 1.383 . S
C462 C461 1.379 . S
H463 C457 0.959 . S
H464 C457 0.961 . S
H465 C457 0.960 . S
H466 C458 0.930 . S
H467 C459 0.929 . S
H468 C476 0.929 1_455 S
H469 C478 0.930 . S
H470 C480 0.930 . S
H471 C483 0.929 . S
H472 C486 0.930 . S
H473 C488 0.960 . S
H474 C488 0.960 . S
H475 C488 0.960 . S
C476 H468 0.929 1_655 S
C476 C477 1.377 . S
C476 C478 1.384 . S
C477 C476 1.377 . S
C477 C483 1.390 . S
C478 H469 0.930 . S
C478 C476 1.384 . S
C478 C479 1.372 . S
C479 C478 1.372 . S
C479 C480 1.400 . S
C479 C484 1.490 . S
C480 H470 0.930 . S
C480 C479 1.400 . S
C480 C483 1.386 . S
H481 C497 0.930 . S
H482 C498 0.931 . S
C483 H471 0.929 . S
C483 C477 1.390 . S
C483 C480 1.386 . S
C484 C479 1.490 . S
C484 C486 1.395 . S
C484 C487 1.403 . S
H485 C491 0.930 . S
C486 H472 0.930 . S
C486 C484 1.395 . S
C486 C489 1.403 . S
C487 C484 1.403 . S
C487 C488 1.524 . S
C487 C491 1.400 . S
C488 H473 0.960 . S
C488 H474 0.960 . S
C488 H475 0.960 . S
C488 C487 1.524 . S
C489 C486 1.403 . S
C489 C490 1.392 . S
C489 C493 1.495 . S
C490 C489 1.392 . S
C490 C491 1.385 . S
C490 C492 1.478 1_545 S
C491 H485 0.930 . S
C491 C487 1.400 . S
C491 C490 1.385 . S
C492 C490 1.478 1_565 S
C492 C494 1.381 . S
C492 C498 1.383 . S
C493 C489 1.495 . S
C493 H499 0.959 . S
C493 H500 0.961 1_545 S
C493 H501 0.960 1_545 S
C494 C492 1.381 . S
C494 C495 1.394 . S
C494 H502 0.930 . S
C495 C494 1.394 . S
C495 C496 1.383 . S
C495 H503 0.929 . S
C496 C495 1.383 . S
C496 C497 1.377 . S
C497 H481 0.930 . S
C497 C496 1.377 . S
C497 C498 1.379 . S
C498 H482 0.931 . S
C498 C492 1.383 . S
C498 C497 1.379 . S
H499 C493 0.959 . S
H500 C493 0.961 1_565 S
H501 C493 0.960 1_565 S
H502 C494 0.930 . S
H503 C495 0.929 . S
H504 C512 0.929 . S
H505 C514 0.930 . S
H506 C516 0.930 . S
H507 C519 0.929 . S
H508 C522 0.930 . S
H509 C524 0.960 . S
H510 C524 0.960 . S
H511 C524 0.960 . S
C512 H504 0.929 . S
C512 C513 1.377 . S
C512 C514 1.384 . S
C513 C512 1.377 . S
C513 C519 1.390 . S
C514 H505 0.930 . S
C514 C512 1.384 . S
C514 C515 1.372 . S
C515 C514 1.372 . S
C515 C516 1.400 . S
C515 C520 1.490 . S
C516 H506 0.930 . S
C516 C515 1.400 . S
C516 C519 1.386 . S
H517 C533 0.930 . S
H518 C534 0.931 . S
C519 H507 0.929 . S
C519 C513 1.390 . S
C519 C516 1.386 . S
C520 C515 1.490 . S
C520 C522 1.395 . S
C520 C523 1.403 . S
H521 C527 0.930 . S
C522 H508 0.930 . S
C522 C520 1.395 . S
C522 C525 1.403 . S
C523 C520 1.403 . S
C523 C524 1.524 . S
C523 C527 1.400 . S
C524 H509 0.960 . S
C524 H510 0.960 . S
C524 H511 0.960 . S
C524 C523 1.524 . S
C525 C522 1.403 . S
C525 C526 1.392 . S
C525 C529 1.495 . S
C526 C525 1.392 . S
C526 C527 1.385 . S
C526 C528 1.478 . S
C527 H521 0.930 . S
C527 C523 1.400 . S
C527 C526 1.385 . S
C528 C526 1.478 . S
C528 C530 1.381 . S
C528 C534 1.383 . S
C529 C525 1.495 . S
C529 H535 0.959 . S
C529 H536 0.961 . S
C529 H537 0.960 . S
C530 C528 1.381 . S
C530 C531 1.394 . S
C530 H538 0.930 . S
C531 C530 1.394 . S
C531 C532 1.383 . S
C531 H539 0.929 . S
C532 C531 1.383 . S
C532 C533 1.377 . S
C533 H517 0.930 . S
C533 C532 1.377 . S
C533 C534 1.379 . S
C534 H518 0.931 . S
C534 C528 1.383 . S
C534 C533 1.379 . S
H535 C529 0.959 . S
H536 C529 0.961 . S
H537 C529 0.960 . S
H538 C530 0.930 . S
H539 C531 0.929 . S
H540 C548 0.929 . S
H541 C550 0.930 . S
H542 C552 0.930 . S
H543 C555 0.929 . S
H544 C558 0.930 . S
H545 C560 0.960 . S
H546 C560 0.960 . S
H547 C560 0.960 . S
C548 H540 0.929 . S
C548 C549 1.377 . S
C548 C550 1.384 . S
C549 C548 1.377 . S
C549 C555 1.390 . S
C550 H541 0.930 . S
C550 C548 1.384 . S
C550 C551 1.372 . S
C551 C550 1.372 . S
C551 C552 1.400 . S
C551 C556 1.490 . S
C552 H542 0.930 . S
C552 C551 1.400 . S
C552 C555 1.386 . S
H553 C569 0.930 . S
H554 C570 0.931 . S
C555 H543 0.929 . S
C555 C549 1.390 . S
C555 C552 1.386 . S
C556 C551 1.490 . S
C556 C558 1.395 . S
C556 C559 1.403 . S
H557 C563 0.930 . S
C558 H544 0.930 . S
C558 C556 1.395 . S
C558 C561 1.403 . S
C559 C556 1.403 . S
C559 C560 1.524 . S
C559 C563 1.400 . S
C560 H545 0.960 . S
C560 H546 0.960 . S
C560 H547 0.960 . S
C560 C559 1.524 . S
C561 C558 1.403 . S
C561 C562 1.392 . S
C561 C565 1.495 . S
C562 C561 1.392 . S
C562 C563 1.385 . S
C562 C564 1.478 . S
C563 H557 0.930 . S
C563 C559 1.400 . S
C563 C562 1.385 . S
C564 C562 1.478 . S
C564 C566 1.381 . S
C564 C570 1.383 . S
C565 C561 1.495 . S
C565 H571 0.959 . S
C565 H572 0.961 . S
C565 H573 0.960 . S
C566 C564 1.381 . S
C566 C567 1.394 . S
C566 H574 0.930 . S
C567 C566 1.394 . S
C567 C568 1.383 . S
C567 H575 0.929 . S
C568 C567 1.383 . S
C568 C569 1.377 . S
C569 H553 0.930 . S
C569 C568 1.377 . S
C569 C570 1.379 . S
C570 H554 0.931 . S
C570 C564 1.383 . S
C570 C569 1.379 . S
H571 C565 0.959 . S
H572 C565 0.961 . S
H573 C565 0.960 . S
H574 C566 0.930 . S
H575 C567 0.929 . S
H576 C584 0.929 . S
H577 C586 0.930 . S
H578 C588 0.930 . S
H579 C591 0.929 . S
H580 C594 0.930 . S
H581 C596 0.960 . S
H582 C596 0.960 . S
H583 C596 0.960 . S
C584 H576 0.929 . S
C584 C585 1.377 . S
C584 C586 1.384 . S
C585 C584 1.377 . S
C585 C591 1.390 . S
C586 H577 0.930 . S
C586 C584 1.384 . S
C586 C587 1.372 . S
C587 C586 1.372 . S
C587 C588 1.400 . S
C587 C592 1.490 . S
C588 H578 0.930 . S
C588 C587 1.400 . S
C588 C591 1.386 . S
H589 C605 0.930 . S
H590 C606 0.931 . S
C591 H579 0.929 . S
C591 C585 1.390 . S
C591 C588 1.386 . S
C592 C587 1.490 . S
C592 C594 1.395 . S
C592 C595 1.403 . S
H593 C599 0.930 . S
C594 H580 0.930 . S
C594 C592 1.395 . S
C594 C597 1.403 . S
C595 C592 1.403 . S
C595 C596 1.524 . S
C595 C599 1.400 . S
C596 H581 0.960 . S
C596 H582 0.960 . S
C596 H583 0.960 . S
C596 C595 1.524 . S
C597 C594 1.403 . S
C597 C598 1.392 . S
C597 C601 1.495 . S
C598 C597 1.392 . S
C598 C599 1.385 . S
C598 C600 1.478 . S
C599 H593 0.930 . S
C599 C595 1.400 . S
C599 C598 1.385 . S
C600 C598 1.478 . S
C600 C602 1.381 . S
C600 C606 1.383 . S
C601 C597 1.495 . S
C601 H607 0.959 . S
C601 H608 0.961 . S
C601 H609 0.960 . S
C602 C600 1.381 . S
C602 C603 1.394 . S
C602 H610 0.930 . S
C603 C602 1.394 . S
C603 C604 1.383 . S
C603 H611 0.929 . S
C604 C603 1.383 . S
C604 C605 1.377 . S
C605 H589 0.930 . S
C605 C604 1.377 . S
C605 C606 1.379 . S
C606 H590 0.931 . S
C606 C600 1.383 . S
C606 C605 1.379 . S
H607 C601 0.959 . S
H608 C601 0.961 . S
H609 C601 0.960 . S
H610 C602 0.930 . S
H611 C603 0.929 . S
H612 C620 0.929 . S
H613 C622 0.930 . S
H614 C624 0.930 . S
H615 C627 0.929 . S
H616 C630 0.930 . S
H617 C632 0.960 . S
H618 C632 0.960 . S
H619 C632 0.960 . S
C620 H612 0.929 . S
C620 C621 1.377 . S
C620 C622 1.384 . S
C621 C620 1.377 . S
C621 C627 1.390 . S
C622 H613 0.930 . S
C622 C620 1.384 . S
C622 C623 1.372 . S
C623 C622 1.372 . S
C623 C624 1.400 . S
C623 C628 1.490 . S
C624 H614 0.930 . S
C624 C623 1.400 . S
C624 C627 1.386 . S
H625 C641 0.930 . S
H626 C642 0.931 . S
C627 H615 0.929 . S
C627 C621 1.390 . S
C627 C624 1.386 . S
C628 C623 1.490 . S
C628 C630 1.395 . S
C628 C631 1.403 . S
H629 C635 0.930 . S
C630 H616 0.930 . S
C630 C628 1.395 . S
C630 C633 1.403 . S
C631 C628 1.403 . S
C631 C632 1.524 . S
C631 C635 1.400 . S
C632 H617 0.960 . S
C632 H618 0.960 . S
C632 H619 0.960 . S
C632 C631 1.524 . S
C633 C630 1.403 . S
C633 C634 1.392 . S
C633 C637 1.495 . S
C634 C633 1.392 . S
C634 C635 1.385 . S
C634 C636 1.478 . S
C635 H629 0.930 . S
C635 C631 1.400 . S
C635 C634 1.385 . S
C636 C634 1.478 . S
C636 C638 1.381 . S
C636 C642 1.383 . S
C637 C633 1.495 . S
C637 H643 0.959 . S
C637 H644 0.961 . S
C637 H645 0.960 . S
C638 C636 1.381 . S
C638 C639 1.394 . S
C638 H646 0.930 . S
C639 C638 1.394 . S
C639 C640 1.383 . S
C639 H647 0.929 . S
C640 C639 1.383 . S
C640 C641 1.377 . S
C641 H625 0.930 . S
C641 C640 1.377 . S
C641 C642 1.379 . S
C642 H626 0.931 . S
C642 C636 1.383 . S
C642 C641 1.379 . S
H643 C637 0.959 . S
H644 C637 0.961 . S
H645 C637 0.960 . S
H646 C638 0.930 . S
H647 C639 0.929 . S
H648 C656 0.929 . S
H649 C658 0.930 . S
H650 C660 0.930 . S
H651 C663 0.929 . S
H652 C666 0.930 . S
H653 C668 0.960 . S
H654 C668 0.960 . S
H655 C668 0.960 . S
C656 H648 0.929 . S
C656 C657 1.377 . S
C656 C658 1.384 . S
C657 C656 1.377 . S
C657 C663 1.390 . S
C658 H649 0.930 . S
C658 C656 1.384 . S
C658 C659 1.372 . S
C659 C658 1.372 . S
C659 C660 1.400 . S
C659 C664 1.490 . S
C660 H650 0.930 . S
C660 C659 1.400 . S
C660 C663 1.386 . S
H661 C677 0.930 . S
H662 C678 0.931 . S
C663 H651 0.929 . S
C663 C657 1.390 . S
C663 C660 1.386 . S
C664 C659 1.490 . S
C664 C666 1.395 . S
C664 C667 1.403 . S
H665 C671 0.930 . S
C666 H652 0.930 . S
C666 C664 1.395 . S
C666 C669 1.403 . S
C667 C664 1.403 . S
C667 C668 1.524 . S
C667 C671 1.400 . S
C668 H653 0.960 . S
C668 H654 0.960 . S
C668 H655 0.960 . S
C668 C667 1.524 . S
C669 C666 1.403 . S
C669 C670 1.392 . S
C669 C673 1.495 . S
C670 C669 1.392 . S
C670 C671 1.385 . S
C670 C672 1.478 . S
C671 H665 0.930 . S
C671 C667 1.400 . S
C671 C670 1.385 . S
C672 C670 1.478 . S
C672 C674 1.381 . S
C672 C678 1.383 . S
C673 C669 1.495 . S
C673 H679 0.959 . S
C673 H680 0.961 . S
C673 H681 0.960 . S
C674 C672 1.381 . S
C674 C675 1.394 . S
C674 H682 0.930 . S
C675 C674 1.394 . S
C675 C676 1.383 . S
C675 H683 0.929 . S
C676 C675 1.383 . S
C676 C677 1.377 . S
C677 H661 0.930 . S
C677 C676 1.377 . S
C677 C678 1.379 . S
C678 H662 0.931 . S
C678 C672 1.383 . S
C678 C677 1.379 . S
H679 C673 0.959 . S
H680 C673 0.961 . S
H681 C673 0.960 . S
H682 C674 0.930 . S
H683 C675 0.929 . S
H684 C692 0.929 . S
H685 C694 0.930 . S
H686 C696 0.930 . S
H687 C699 0.929 . S
H688 C702 0.930 . S
H689 C704 0.960 . S
H690 C704 0.960 . S
H691 C704 0.960 . S
C692 H684 0.929 . S
C692 C693 1.377 . S
C692 C694 1.384 . S
C693 C692 1.377 . S
C693 C699 1.390 . S
C694 H685 0.930 . S
C694 C692 1.384 . S
C694 C695 1.372 . S
C695 C694 1.372 . S
C695 C696 1.400 . S
C695 C700 1.490 . S
C696 H686 0.930 . S
C696 C695 1.400 . S
C696 C699 1.386 . S
H697 C713 0.930 . S
H698 C714 0.931 . S
C699 H687 0.929 . S
C699 C693 1.390 . S
C699 C696 1.386 . S
C700 C695 1.490 . S
C700 C702 1.395 . S
C700 C703 1.403 . S
H701 C707 0.930 . S
C702 H688 0.930 . S
C702 C700 1.395 . S
C702 C705 1.403 . S
C703 C700 1.403 . S
C703 C704 1.524 . S
C703 C707 1.400 . S
C704 H689 0.960 . S
C704 H690 0.960 . S
C704 H691 0.960 . S
C704 C703 1.524 . S
C705 C702 1.403 . S
C705 C706 1.392 . S
C705 C709 1.495 . S
C706 C705 1.392 . S
C706 C707 1.385 . S
C706 C708 1.478 . S
C707 H701 0.930 . S
C707 C703 1.400 . S
C707 C706 1.385 . S
C708 C706 1.478 . S
C708 C710 1.381 . S
C708 C714 1.383 . S
C709 C705 1.495 . S
C709 H715 0.959 . S
C709 H716 0.961 . S
C709 H717 0.960 . S
C710 C708 1.381 . S
C710 C711 1.394 . S
C710 H718 0.930 . S
C711 C710 1.394 . S
C711 C712 1.383 . S
C711 H719 0.929 . S
C712 C711 1.383 . S
C712 C713 1.377 . S
C713 H697 0.930 . S
C713 C712 1.377 . S
C713 C714 1.379 . S
C714 H698 0.931 . S
C714 C708 1.383 . S
C714 C713 1.379 . S
H715 C709 0.959 . S
H716 C709 0.961 . S
H717 C709 0.960 . S
H718 C710 0.930 . S
H719 C711 0.929 . S
H720 C728 0.929 . S
H721 C730 0.930 . S
H722 C732 0.930 . S
H723 C735 0.929 . S
H724 C738 0.930 . S
H725 C740 0.960 . S
H726 C740 0.960 . S
H727 C740 0.960 . S
C728 H720 0.929 . S
C728 C729 1.377 . S
C728 C730 1.384 . S
C729 C728 1.377 . S
C729 C735 1.390 . S
C730 H721 0.930 . S
C730 C728 1.384 . S
C730 C731 1.372 . S
C731 C730 1.372 . S
C731 C732 1.400 . S
C731 C736 1.490 . S
C732 H722 0.930 . S
C732 C731 1.400 . S
C732 C735 1.386 . S
H733 C749 0.930 . S
H734 C750 0.931 . S
C735 H723 0.929 . S
C735 C729 1.390 . S
C735 C732 1.386 . S
C736 C731 1.490 . S
C736 C738 1.395 . S
C736 C739 1.403 . S
H737 C743 0.930 . S
C738 H724 0.930 . S
C738 C736 1.395 . S
C738 C741 1.403 . S
C739 C736 1.403 . S
C739 C740 1.524 . S
C739 C743 1.400 . S
C740 H725 0.960 . S
C740 H726 0.960 . S
C740 H727 0.960 . S
C740 C739 1.524 . S
C741 C738 1.403 . S
C741 C742 1.392 . S
C741 C745 1.495 . S
C742 C741 1.392 . S
C742 C743 1.385 . S
C742 C744 1.478 1_565 S
C743 H737 0.930 . S
C743 C739 1.400 . S
C743 C742 1.385 . S
C744 C742 1.478 1_545 S
C744 C746 1.381 . S
C744 C750 1.383 . S
C745 C741 1.495 . S
C745 H751 0.959 . S
C745 H752 0.961 1_565 S
C745 H753 0.960 . S
C746 C744 1.381 . S
C746 C747 1.394 . S
C746 H754 0.930 . S
C747 C746 1.394 . S
C747 C748 1.383 . S
C747 H755 0.929 . S
C748 C747 1.383 . S
C748 C749 1.377 . S
C749 H733 0.930 . S
C749 C748 1.377 . S
C749 C750 1.379 . S
C750 H734 0.931 . S
C750 C744 1.383 . S
C750 C749 1.379 . S
H751 C745 0.959 . S
H752 C745 0.961 1_545 S
H753 C745 0.960 . S
H754 C746 0.930 . S
H755 C747 0.929 . S
H756 C764 0.929 . S
H757 C766 0.930 . S
H758 C768 0.930 1_455 S
H759 C771 0.929 . S
H760 C774 0.930 . S
H761 C776 0.960 . S
H762 C776 0.960 . S
H763 C776 0.960 . S
C764 H756 0.929 . S
C764 C765 1.377 . S
C764 C766 1.384 . S
C765 C764 1.377 . S
C765 C771 1.390 . S
C766 H757 0.930 . S
C766 C764 1.384 . S
C766 C767 1.372 1_655 S
C767 C766 1.372 1_455 S
C767 C768 1.400 1_455 S
C767 C772 1.490 . S
C768 H758 0.930 1_655 S
C768 C767 1.400 1_655 S
C768 C771 1.386 . S
H769 C785 0.930 . S
H770 C786 0.931 . S
C771 H759 0.929 . S
C771 C765 1.390 . S
C771 C768 1.386 . S
C772 C767 1.490 . S
C772 C774 1.395 . S
C772 C775 1.403 . S
H773 C779 0.930 . S
C774 H760 0.930 . S
C774 C772 1.395 . S
C774 C777 1.403 . S
C775 C772 1.403 . S
C775 C776 1.524 . S
C775 C779 1.400 . S
C776 H761 0.960 . S
C776 H762 0.960 . S
C776 H763 0.960 . S
C776 C775 1.524 . S
C777 C774 1.403 . S
C777 C778 1.392 . S
C777 C781 1.495 . S
C778 C777 1.392 . S
C778 C779 1.385 . S
C778 C780 1.478 . S
C779 H773 0.930 . S
C779 C775 1.400 . S
C779 C778 1.385 . S
C780 C778 1.478 . S
C780 C782 1.381 . S
C780 C786 1.383 . S
C781 C777 1.495 . S
C781 H787 0.959 . S
C781 H788 0.961 . S
C781 H789 0.960 . S
C782 C780 1.381 . S
C782 C783 1.394 1_565 S
C782 H790 0.930 1_565 S
C783 C782 1.394 1_545 S
C783 C784 1.383 . S
C783 H791 0.929 . S
C784 C783 1.383 . S
C784 C785 1.377 1_545 S
C785 H769 0.930 . S
C785 C784 1.377 1_565 S
C785 C786 1.379 . S
C786 H770 0.931 . S
C786 C780 1.383 . S
C786 C785 1.379 . S
H787 C781 0.959 . S
H788 C781 0.961 . S
H789 C781 0.960 . S
H790 C782 0.930 1_545 S
H791 C783 0.929 . S
H792 C800 0.929 . S
H793 C802 0.930 . S
H794 C804 0.930 . S
H795 C807 0.929 . S
H796 C810 0.930 . S
H797 C812 0.960 . S
H798 C812 0.960 . S
H799 C812 0.960 . S
C800 H792 0.929 . S
C800 C801 1.377 . S
C800 C802 1.384 . S
C801 C800 1.377 . S
C801 C807 1.390 . S
C802 H793 0.930 . S
C802 C800 1.384 . S
C802 C803 1.372 . S
C803 C802 1.372 . S
C803 C804 1.400 . S
C803 C808 1.490 . S
C804 H794 0.930 . S
C804 C803 1.400 . S
C804 C807 1.386 . S
H805 C821 0.930 1_655 S
H806 C822 0.931 . S
C807 H795 0.929 . S
C807 C801 1.390 . S
C807 C804 1.386 . S
C808 C803 1.490 . S
C808 C810 1.395 . S
C808 C811 1.403 . S
H809 C815 0.930 . S
C810 H796 0.930 . S
C810 C808 1.395 . S
C810 C813 1.403 . S
C811 C808 1.403 . S
C811 C812 1.524 . S
C811 C815 1.400 . S
C812 H797 0.960 . S
C812 H798 0.960 . S
C812 H799 0.960 . S
C812 C811 1.524 . S
C813 C810 1.403 . S
C813 C814 1.392 . S
C813 C817 1.495 . S
C814 C813 1.392 . S
C814 C815 1.385 . S
C814 C816 1.478 . S
C815 H809 0.930 . S
C815 C811 1.400 . S
C815 C814 1.385 . S
C816 C814 1.478 . S
C816 C818 1.381 . S
C816 C822 1.383 . S
C817 C813 1.495 . S
C817 H823 0.959 . S
C817 H824 0.961 . S
C817 H825 0.960 . S
C818 C816 1.381 . S
C818 C819 1.394 . S
C818 H826 0.930 . S
C819 C818 1.394 . S
C819 C820 1.383 . S
C819 H827 0.929 . S
C820 C819 1.383 . S
C820 C821 1.377 . S
C821 H805 0.930 1_455 S
C821 C820 1.377 . S
C821 C822 1.379 . S
C822 H806 0.931 . S
C822 C816 1.383 . S
C822 C821 1.379 . S
H823 C817 0.959 . S
H824 C817 0.961 . S
H825 C817 0.960 . S
H826 C818 0.930 . S
H827 C819 0.929 . S
H828 C836 0.929 . S
H829 C838 0.930 . S
H830 C840 0.930 . S
H831 C843 0.929 . S
H832 C846 0.930 . S
H833 C848 0.960 . S
H834 C848 0.960 . S
H835 C848 0.960 . S
C836 H828 0.929 . S
C836 C837 1.377 . S
C836 C838 1.384 . S
C837 C836 1.377 . S
C837 C843 1.390 . S
C838 H829 0.930 . S
C838 C836 1.384 . S
C838 C839 1.372 . S
C839 C838 1.372 . S
C839 C840 1.400 . S
C839 C844 1.490 . S
C840 H830 0.930 . S
C840 C839 1.400 . S
C840 C843 1.386 . S
H841 C857 0.930 1_655 S
H842 C858 0.931 . S
C843 H831 0.929 . S
C843 C837 1.390 . S
C843 C840 1.386 . S
C844 C839 1.490 . S
C844 C846 1.395 . S
C844 C847 1.403 . S
H845 C851 0.930 . S
C846 H832 0.930 . S
C846 C844 1.395 . S
C846 C849 1.403 . S
C847 C844 1.403 . S
C847 C848 1.524 . S
C847 C851 1.400 . S
C848 H833 0.960 . S
C848 H834 0.960 . S
C848 H835 0.960 . S
C848 C847 1.524 . S
C849 C846 1.403 . S
C849 C850 1.392 . S
C849 C853 1.495 . S
C850 C849 1.392 . S
C850 C851 1.385 . S
C850 C852 1.478 . S
C851 H845 0.930 . S
C851 C847 1.400 . S
C851 C850 1.385 . S
C852 C850 1.478 . S
C852 C854 1.381 . S
C852 C858 1.383 . S
C853 C849 1.495 . S
C853 H859 0.959 . S
C853 H860 0.961 . S
C853 H861 0.960 . S
C854 C852 1.381 . S
C854 C855 1.394 . S
C854 H862 0.930 . S
C855 C854 1.394 . S
C855 C856 1.383 . S
C855 H863 0.929 . S
C856 C855 1.383 . S
C856 C857 1.377 . S
C857 H841 0.930 1_455 S
C857 C856 1.377 . S
C857 C858 1.379 . S
C858 H842 0.931 . S
C858 C852 1.383 . S
C858 C857 1.379 . S
H859 C853 0.959 . S
H860 C853 0.961 . S
H861 C853 0.960 . S
H862 C854 0.930 . S
H863 C855 0.929 . S
H864 C872 0.929 . S
H865 C874 0.930 . S
H866 C876 0.930 . S
H867 C879 0.929 . S
H868 C882 0.930 . S
H869 C884 0.960 . S
H870 C884 0.960 . S
H871 C884 0.960 . S
C872 H864 0.929 . S
C872 C873 1.377 . S
C872 C874 1.384 . S
C873 C872 1.377 . S
C873 C879 1.390 . S
C874 H865 0.930 . S
C874 C872 1.384 . S
C874 C875 1.372 . S
C875 C874 1.372 . S
C875 C876 1.400 . S
C875 C880 1.490 . S
C876 H866 0.930 . S
C876 C875 1.400 . S
C876 C879 1.386 . S
H877 C893 0.930 . S
H878 C894 0.931 . S
C879 H867 0.929 . S
C879 C873 1.390 . S
C879 C876 1.386 . S
C880 C875 1.490 . S
C880 C882 1.395 . S
C880 C883 1.403 . S
H881 C887 0.930 . S
C882 H868 0.930 . S
C882 C880 1.395 . S
C882 C885 1.403 . S
C883 C880 1.403 . S
C883 C884 1.524 . S
C883 C887 1.400 . S
C884 H869 0.960 . S
C884 H870 0.960 . S
C884 H871 0.960 . S
C884 C883 1.524 . S
C885 C882 1.403 . S
C885 C886 1.392 . S
C885 C889 1.495 . S
C886 C885 1.392 . S
C886 C887 1.385 . S
C886 C888 1.478 . S
C887 H881 0.930 . S
C887 C883 1.400 . S
C887 C886 1.385 . S
C888 C886 1.478 . S
C888 C890 1.381 . S
C888 C894 1.383 . S
C889 C885 1.495 . S
C889 H895 0.959 . S
C889 H896 0.961 . S
C889 H897 0.960 . S
C890 C888 1.381 . S
C890 C891 1.394 . S
C890 H898 0.930 . S
C891 C890 1.394 . S
C891 C892 1.383 . S
C891 H899 0.929 . S
C892 C891 1.383 . S
C892 C893 1.377 . S
C893 H877 0.930 . S
C893 C892 1.377 . S
C893 C894 1.379 . S
C894 H878 0.931 . S
C894 C888 1.383 . S
C894 C893 1.379 . S
H895 C889 0.959 . S
H896 C889 0.961 . S
H897 C889 0.960 . S
H898 C890 0.930 . S
H899 C891 0.929 . S
H900 C908 0.929 . S
H901 C910 0.930 1_545 S
H902 C912 0.930 . S
H903 C915 0.929 . S
H904 C918 0.930 . S
H905 C920 0.960 . S
H906 C920 0.960 . S
H907 C920 0.960 . S
C908 H900 0.929 . S
C908 C909 1.377 1_545 S
C908 C910 1.384 1_545 S
C909 C908 1.377 1_565 S
C909 C915 1.390 . S
C910 H901 0.930 1_565 S
C910 C908 1.384 1_565 S
C910 C911 1.372 . S
C911 C910 1.372 . S
C911 C912 1.400 . S
C911 C916 1.490 . S
C912 H902 0.930 . S
C912 C911 1.400 . S
C912 C915 1.386 . S
H913 C929 0.930 . S
H914 C930 0.931 . S
C915 H903 0.929 . S
C915 C909 1.390 . S
C915 C912 1.386 . S
C916 C911 1.490 . S
C916 C918 1.395 . S
C916 C919 1.403 . S
H917 C923 0.930 . S
C918 H904 0.930 . S
C918 C916 1.395 . S
C918 C921 1.403 . S
C919 C916 1.403 . S
C919 C920 1.524 . S
C919 C923 1.400 . S
C920 H905 0.960 . S
C920 H906 0.960 . S
C920 H907 0.960 . S
C920 C919 1.524 . S
C921 C918 1.403 . S
C921 C922 1.392 . S
C921 C925 1.495 . S
C922 C921 1.392 . S
C922 C923 1.385 . S
C922 C924 1.478 . S
C923 H917 0.930 . S
C923 C919 1.400 . S
C923 C922 1.385 . S
C924 C922 1.478 . S
C924 C926 1.381 . S
C924 C930 1.383 . S
C925 C921 1.495 . S
C925 H931 0.959 1_565 S
C925 H932 0.961 . S
C925 H933 0.960 . S
C926 C924 1.381 . S
C926 C927 1.394 . S
C926 H934 0.930 . S
C927 C926 1.394 . S
C927 C928 1.383 . S
C927 H935 0.929 . S
C928 C927 1.383 . S
C928 C929 1.377 . S
C929 H913 0.930 . S
C929 C928 1.377 . S
C929 C930 1.379 . S
C930 H914 0.931 . S
C930 C924 1.383 . S
C930 C929 1.379 . S
H931 C925 0.959 1_545 S
H932 C925 0.961 . S
H933 C925 0.960 . S
H934 C926 0.930 . S
H935 C927 0.929 . S
H936 C944 0.929 1_565 S
H937 C946 0.930 . S
H938 C948 0.930 . S
H939 C951 0.929 . S
H940 C954 0.930 . S
H941 C956 0.960 . S
H942 C956 0.960 . S
H943 C956 0.960 . S
C944 H936 0.929 1_545 S
C944 C945 1.377 . S
C944 C946 1.384 . S
C945 C944 1.377 . S
C945 C951 1.390 . S
C946 H937 0.930 . S
C946 C944 1.384 . S
C946 C947 1.372 . S
C947 C946 1.372 . S
C947 C948 1.400 . S
C947 C952 1.490 . S
C948 H938 0.930 . S
C948 C947 1.400 . S
C948 C951 1.386 . S
H949 C965 0.930 . S
H950 C966 0.931 . S
C951 H939 0.929 . S
C951 C945 1.390 . S
C951 C948 1.386 . S
C952 C947 1.490 . S
C952 C954 1.395 . S
C952 C955 1.403 . S
H953 C959 0.930 . S
C954 H940 0.930 . S
C954 C952 1.395 . S
C954 C957 1.403 . S
C955 C952 1.403 . S
C955 C956 1.524 . S
C955 C959 1.400 . S
C956 H941 0.960 . S
C956 H942 0.960 . S
C956 H943 0.960 . S
C956 C955 1.524 . S
C957 C954 1.403 . S
C957 C958 1.392 . S
C957 C961 1.495 . S
C958 C957 1.392 . S
C958 C959 1.385 . S
C958 C960 1.478 . S
C959 H953 0.930 . S
C959 C955 1.400 . S
C959 C958 1.385 . S
C960 C958 1.478 . S
C960 C962 1.381 . S
C960 C966 1.383 . S
C961 C957 1.495 . S
C961 H967 0.959 . S
C961 H968 0.961 . S
C961 H969 0.960 . S
C962 C960 1.381 . S
C962 C963 1.394 . S
C962 H970 0.930 . S
C963 C962 1.394 . S
C963 C964 1.383 . S
C963 H971 0.929 . S
C964 C963 1.383 . S
C964 C965 1.377 . S
C965 H949 0.930 . S
C965 C964 1.377 . S
C965 C966 1.379 . S
C966 H950 0.931 . S
C966 C960 1.383 . S
C966 C965 1.379 . S
H967 C961 0.959 . S
H968 C961 0.961 . S
H969 C961 0.960 . S
H970 C962 0.930 . S
H971 C963 0.929 . S
H972 C980 0.929 . S
H973 C982 0.930 . S
H974 C984 0.930 1_455 S
H975 C987 0.929 . S
H976 C990 0.930 . S
H977 C992 0.960 . S
H978 C992 0.960 . S
H979 C992 0.960 . S
C980 H972 0.929 . S
C980 C981 1.377 . S
C980 C982 1.384 . S
C981 C980 1.377 . S
C981 C987 1.390 1_655 S
C982 H973 0.930 . S
C982 C980 1.384 . S
C982 C983 1.372 . S
C983 C982 1.372 . S
C983 C984 1.400 . S
C983 C988 1.490 . S
C984 H974 0.930 1_655 S
C984 C983 1.400 . S
C984 C987 1.386 1_655 S
H985 C1001 0.930 . S
H986 C1002 0.931 . S
C987 H975 0.929 . S
C987 C981 1.390 1_455 S
C987 C984 1.386 1_455 S
C988 C983 1.490 . S
C988 C990 1.395 . S
C988 C991 1.403 . S
H989 C995 0.930 . S
C990 H976 0.930 . S
C990 C988 1.395 . S
C990 C993 1.403 . S
C991 C988 1.403 . S
C991 C992 1.524 . S
C991 C995 1.400 . S
C992 H977 0.960 . S
C992 H978 0.960 . S
C992 H979 0.960 . S
C992 C991 1.524 . S
C993 C990 1.403 . S
C993 C994 1.392 . S
C993 C997 1.495 . S
C994 C993 1.392 . S
C994 C995 1.385 . S
C994 C996 1.478 . S
C995 H989 0.930 . S
C995 C991 1.400 . S
C995 C994 1.385 . S
C996 C994 1.478 . S
C996 C998 1.381 . S
C996 C1002 1.383 . S
C997 C993 1.495 . S
C997 H1003 0.959 . S
C997 H1004 0.961 . S
C997 H1005 0.960 . S
C998 C996 1.381 . S
C998 C999 1.394 . S
C998 H1006 0.930 . S
C999 C998 1.394 . S
C999 C1000 1.383 . S
C999 H1007 0.929 . S
C1000 C999 1.383 . S
C1000 C1001 1.377 . S
C1001 H985 0.930 . S
C1001 C1000 1.377 . S
C1001 C1002 1.379 . S
C1002 H986 0.931 . S
C1002 C996 1.383 . S
C1002 C1001 1.379 . S
H1003 C997 0.959 . S
H1004 C997 0.961 . S
H1005 C997 0.960 . S
H1006 C998 0.930 . S
H1007 C999 0.929 . S
H1008 C1016 0.929 . S
H1009 C1018 0.930 . S
H1010 C1020 0.930 . S
H1011 C1023 0.929 . S
H1012 C1026 0.930 . S
H1013 C1028 0.960 . S
H1014 C1028 0.960 . S
H1015 C1028 0.960 . S
C1016 H1008 0.929 . S
C1016 C1017 1.377 . S
C1016 C1018 1.384 . S
C1017 C1016 1.377 . S
C1017 C1023 1.390 . S
C1018 H1009 0.930 . S
C1018 C1016 1.384 . S
C1018 C1019 1.372 . S
C1019 C1018 1.372 . S
C1019 C1020 1.400 . S
C1019 C1024 1.490 . S
C1020 H1010 0.930 . S
C1020 C1019 1.400 . S
C1020 C1023 1.386 . S
H1021 C1037 0.930 . S
H1022 C1038 0.931 . S
C1023 H1011 0.929 . S
C1023 C1017 1.390 . S
C1023 C1020 1.386 . S
C1024 C1019 1.490 . S
C1024 C1026 1.395 . S
C1024 C1027 1.403 . S
H1025 C1031 0.930 . S
C1026 H1012 0.930 . S
C1026 C1024 1.395 . S
C1026 C1029 1.403 . S
C1027 C1024 1.403 . S
C1027 C1028 1.524 . S
C1027 C1031 1.400 . S
C1028 H1013 0.960 . S
C1028 H1014 0.960 . S
C1028 H1015 0.960 . S
C1028 C1027 1.524 . S
C1029 C1026 1.403 . S
C1029 C1030 1.392 . S
C1029 C1033 1.495 . S
C1030 C1029 1.392 . S
C1030 C1031 1.385 . S
C1030 C1032 1.478 . S
C1031 H1025 0.930 . S
C1031 C1027 1.400 . S
C1031 C1030 1.385 . S
C1032 C1030 1.478 . S
C1032 C1034 1.381 . S
C1032 C1038 1.383 . S
C1033 C1029 1.495 . S
C1033 H1039 0.959 . S
C1033 H1040 0.961 . S
C1033 H1041 0.960 . S
C1034 C1032 1.381 . S
C1034 C1035 1.394 . S
C1034 H1042 0.930 . S
C1035 C1034 1.394 . S
C1035 C1036 1.383 . S
C1035 H1043 0.929 . S
C1036 C1035 1.383 . S
C1036 C1037 1.377 . S
C1037 H1021 0.930 . S
C1037 C1036 1.377 . S
C1037 C1038 1.379 . S
C1038 H1022 0.931 . S
C1038 C1032 1.383 . S
C1038 C1037 1.379 . S
H1039 C1033 0.959 . S
H1040 C1033 0.961 . S
H1041 C1033 0.960 . S
H1042 C1034 0.930 . S
H1043 C1035 0.929 . S
H1044 C1052 0.929 . S
H1045 C1054 0.930 . S
H1046 C1056 0.930 . S
H1047 C1059 0.929 . S
H1048 C1062 0.930 . S
H1049 C1064 0.960 . S
H1050 C1064 0.960 . S
H1051 C1064 0.960 . S
C1052 H1044 0.929 . S
C1052 C1053 1.377 . S
C1052 C1054 1.384 . S
C1053 C1052 1.377 . S
C1053 C1059 1.390 . S
C1054 H1045 0.930 . S
C1054 C1052 1.384 . S
C1054 C1055 1.372 . S
C1055 C1054 1.372 . S
C1055 C1056 1.400 . S
C1055 C1060 1.490 . S
C1056 H1046 0.930 . S
C1056 C1055 1.400 . S
C1056 C1059 1.386 . S
H1057 C1073 0.930 . S
H1058 C1074 0.931 . S
C1059 H1047 0.929 . S
C1059 C1053 1.390 . S
C1059 C1056 1.386 . S
C1060 C1055 1.490 . S
C1060 C1062 1.395 . S
C1060 C1063 1.403 . S
H1061 C1067 0.930 . S
C1062 H1048 0.930 . S
C1062 C1060 1.395 . S
C1062 C1065 1.403 . S
C1063 C1060 1.403 . S
C1063 C1064 1.524 . S
C1063 C1067 1.400 . S
C1064 H1049 0.960 . S
C1064 H1050 0.960 . S
C1064 H1051 0.960 . S
C1064 C1063 1.524 . S
C1065 C1062 1.403 . S
C1065 C1066 1.392 . S
C1065 C1069 1.495 . S
C1066 C1065 1.392 . S
C1066 C1067 1.385 . S
C1066 C1068 1.478 . S
C1067 H1061 0.930 . S
C1067 C1063 1.400 . S
C1067 C1066 1.385 . S
C1068 C1066 1.478 . S
C1068 C1070 1.381 . S
C1068 C1074 1.383 . S
C1069 C1065 1.495 . S
C1069 H1075 0.959 . S
C1069 H1076 0.961 . S
C1069 H1077 0.960 . S
C1070 C1068 1.381 . S
C1070 C1071 1.394 . S
C1070 H1078 0.930 . S
C1071 C1070 1.394 . S
C1071 C1072 1.383 . S
C1071 H1079 0.929 . S
C1072 C1071 1.383 . S
C1072 C1073 1.377 . S
C1073 H1057 0.930 . S
C1073 C1072 1.377 . S
C1073 C1074 1.379 . S
C1074 H1058 0.931 . S
C1074 C1068 1.383 . S
C1074 C1073 1.379 . S
H1075 C1069 0.959 . S
H1076 C1069 0.961 . S
H1077 C1069 0.960 . S
H1078 C1070 0.930 . S
H1079 C1071 0.929 . S
H1080 C1088 0.929 . S
H1081 C1090 0.930 . S
H1082 C1092 0.930 1_545 S
H1083 C1095 0.929 . S
H1084 C1098 0.930 . S
H1085 C1100 0.960 . S
H1086 C1100 0.960 1_565 S
H1087 C1100 0.960 . S
C1088 H1080 0.929 . S
C1088 C1089 1.377 . S
C1088 C1090 1.384 . S
C1089 C1088 1.377 . S
C1089 C1095 1.390 . S
C1090 H1081 0.930 . S
C1090 C1088 1.384 . S
C1090 C1091 1.372 . S
C1091 C1090 1.372 . S
C1091 C1092 1.400 . S
C1091 C1096 1.490 . S
C1092 H1082 0.930 1_565 S
C1092 C1091 1.400 . S
C1092 C1095 1.386 . S
H1093 C1109 0.930 . S
H1094 C1110 0.931 . S
C1095 H1083 0.929 . S
C1095 C1089 1.390 . S
C1095 C1092 1.386 . S
C1096 C1091 1.490 . S
C1096 C1098 1.395 . S
C1096 C1099 1.403 1_565 S
H1097 C1103 0.930 . S
C1098 H1084 0.930 . S
C1098 C1096 1.395 . S
C1098 C1101 1.403 1_565 S
C1099 C1096 1.403 1_545 S
C1099 C1100 1.524 . S
C1099 C1103 1.400 . S
C1100 H1085 0.960 . S
C1100 H1086 0.960 1_545 S
C1100 H1087 0.960 . S
C1100 C1099 1.524 . S
C1101 C1098 1.403 1_545 S
C1101 C1102 1.392 . S
C1101 C1105 1.495 . S
C1102 C1101 1.392 . S
C1102 C1103 1.385 . S
C1102 C1104 1.478 . S
C1103 H1097 0.930 . S
C1103 C1099 1.400 . S
C1103 C1102 1.385 . S
C1104 C1102 1.478 . S
C1104 C1106 1.381 . S
C1104 C1110 1.383 . S
C1105 C1101 1.495 . S
C1105 H1111 0.959 1_545 S
C1105 H1112 0.961 . S
C1105 H1113 0.960 1_545 S
C1106 C1104 1.381 . S
C1106 C1107 1.394 . S
C1106 H1114 0.930 . S
C1107 C1106 1.394 . S
C1107 C1108 1.383 . S
C1107 H1115 0.929 . S
C1108 C1107 1.383 . S
C1108 C1109 1.377 . S
C1109 H1093 0.930 . S
C1109 C1108 1.377 . S
C1109 C1110 1.379 . S
C1110 H1094 0.931 . S
C1110 C1104 1.383 . S
C1110 C1109 1.379 . S
H1111 C1105 0.959 1_565 S
H1112 C1105 0.961 . S
H1113 C1105 0.960 1_565 S
H1114 C1106 0.930 . S
H1115 C1107 0.929 . S
H1116 C1124 0.929 . S
H1117 C1126 0.930 . S
H1118 C1128 0.930 . S
H1119 C1131 0.929 . S
H1120 C1134 0.930 . S
H1121 C1136 0.960 . S
H1122 C1136 0.960 . S
H1123 C1136 0.960 . S
C1124 H1116 0.929 . S
C1124 C1125 1.377 . S
C1124 C1126 1.384 . S
C1125 C1124 1.377 . S
C1125 C1131 1.390 . S
C1126 H1117 0.930 . S
C1126 C1124 1.384 . S
C1126 C1127 1.372 . S
C1127 C1126 1.372 . S
C1127 C1128 1.400 . S
C1127 C1132 1.490 . S
C1128 H1118 0.930 . S
C1128 C1127 1.400 . S
C1128 C1131 1.386 . S
H1129 C1145 0.930 . S
H1130 C1146 0.931 . S
C1131 H1119 0.929 . S
C1131 C1125 1.390 . S
C1131 C1128 1.386 . S
C1132 C1127 1.490 . S
C1132 C1134 1.395 . S
C1132 C1135 1.403 1_655 S
H1133 C1139 0.930 . S
C1134 H1120 0.930 . S
C1134 C1132 1.395 . S
C1134 C1137 1.403 . S
C1135 C1132 1.403 1_455 S
C1135 C1136 1.524 . S
C1135 C1139 1.400 . S
C1136 H1121 0.960 . S
C1136 H1122 0.960 . S
C1136 H1123 0.960 . S
C1136 C1135 1.524 . S
C1137 C1134 1.403 . S
C1137 C1138 1.392 1_655 S
C1137 C1141 1.495 . S
C1138 C1137 1.392 1_455 S
C1138 C1139 1.385 . S
C1138 C1140 1.478 . S
C1139 H1133 0.930 . S
C1139 C1135 1.400 . S
C1139 C1138 1.385 . S
C1140 C1138 1.478 . S
C1140 C1142 1.381 . S
C1140 C1146 1.383 . S
C1141 C1137 1.495 . S
C1141 H1147 0.959 . S
C1141 H1148 0.961 . S
C1141 H1149 0.960 . S
C1142 C1140 1.381 . S
C1142 C1143 1.394 . S
C1142 H1150 0.930 . S
C1143 C1142 1.394 . S
C1143 C1144 1.383 . S
C1143 H1151 0.929 . S
C1144 C1143 1.383 . S
C1144 C1145 1.377 . S
C1145 H1129 0.930 . S
C1145 C1144 1.377 . S
C1145 C1146 1.379 . S
C1146 H1130 0.931 . S
C1146 C1140 1.383 . S
C1146 C1145 1.379 . S
H1147 C1141 0.959 . S
H1148 C1141 0.961 . S
H1149 C1141 0.960 . S
H1150 C1142 0.930 . S
H1151 C1143 0.929 . S
C189 C32 1.041 . S
C208 C9 0.914 . S
C225 C42 1.226 . S
C244 C24 1.144 . S
C261 C49 1.036 . S
C280 C2 1.110 . S
C297 C44 1.202 . S
C316 C22 1.363 . S
C333 C52 1.235 . S
C352 C4 1.141 . S
C369 C12 1.088 . S
C388 C29 1.069 . S
C405 C69 1.194 . S
C424 C82 1.299 . S
C441 C102 0.979 . S
C460 C89 0.991 1_545 S
C477 C109 1.081 1_655 S
C496 C62 1.103 . S
C513 C92 1.081 . S
C532 C104 0.938 . S
C549 C112 1.195 . S
C568 C64 1.111 . S
C585 C84 1.203 . S
C604 C72 1.359 . S
C621 C152 0.980 . S
C640 C129 0.878 . S
C657 C144 1.116 . S
C676 C162 1.207 . S
C693 C169 1.051 . S
C712 C122 1.073 . S
C729 C164 1.176 . S
C748 C142 1.280 . S
C765 C172 1.224 . S
C784 C124 1.040 . S
C801 C132 1.096 . S
C820 C149 1.054 1_455 S
C837 C119 2.240 . S
C856 C18 2.156 . S
C873 C79 2.188 . S
C892 C39 2.197 . S
C909 C58 2.296 1_565 S
C928 C99 2.350 . S
C945 C59 2.247 . S
C964 C138 2.186 . S
C981 C19 2.117 1_655 S
C1000 C159 2.115 . S
C1017 C178 2.296 . S
C1036 C38 2.269 . S
C1053 C78 2.185 . S
C1072 C179 2.256 . S
C1089 C98 2.067 . S
C1108 C139 2.105 . S
C1125 C158 2.229 . S
C1144 C118 2.202 . S
