# Generated by pormake.
# Topology uot, (4)-cn, num edge types: 1
# Building blocks:
#     Node 0, Type 0, BuildingBlock: KUFVIS_clean_sbu_0, # of connection points: 4
#     Node 1, Type 0, BuildingBlock: KUFVIS_clean_sbu_0, # of connection points: 4
#     Node 2, Type 0, BuildingBlock: KUFVIS_clean_sbu_0, # of connection points: 4
#     Node 3, Type 0, BuildingBlock: KUFVIS_clean_sbu_0, # of connection points: 4
#     Node 4, Type 0, BuildingBlock: KUFVIS_clean_sbu_0, # of connection points: 4
#     Node 5, Type 0, BuildingBlock: KUFVIS_clean_sbu_0, # of connection points: 4
#     Node 6, Type 0, BuildingBlock: KUFVIS_clean_sbu_0, # of connection points: 4
#     Node 7, Type 0, BuildingBlock: KUFVIS_clean_sbu_0, # of connection points: 4
#     Node 8, Type 0, BuildingBlock: KUFVIS_clean_sbu_0, # of connection points: 4
#     Node 9, Type 0, BuildingBlock: KUFVIS_clean_sbu_0, # of connection points: 4
#     Node 10, Type 0, BuildingBlock: KUFVIS_clean_sbu_0, # of connection points: 4
#     Node 11, Type 0, BuildingBlock: KUFVIS_clean_sbu_0, # of connection points: 4
#     Node 12, Type 0, BuildingBlock: KUFVIS_clean_sbu_0, # of connection points: 4
#     Node 13, Type 0, BuildingBlock: KUFVIS_clean_sbu_0, # of connection points: 4
#     Node 14, Type 0, BuildingBlock: KUFVIS_clean_sbu_0, # of connection points: 4
#     Node 15, Type 0, BuildingBlock: KUFVIS_clean_sbu_0, # of connection points: 4
#     Edge 16, Type (0, 0), BuildingBlock: AJUNOK_clean_linker_0, # of connection points: 2
#     Edge 17, Type (0, 0), BuildingBlock: AJUNOK_clean_linker_0, # of connection points: 2
#     Edge 18, Type (0, 0), BuildingBlock: AJUNOK_clean_linker_0, # of connection points: 2
#     Edge 19, Type (0, 0), BuildingBlock: AJUNOK_clean_linker_0, # of connection points: 2
#     Edge 20, Type (0, 0), BuildingBlock: AJUNOK_clean_linker_0, # of connection points: 2
#     Edge 21, Type (0, 0), BuildingBlock: AJUNOK_clean_linker_0, # of connection points: 2
#     Edge 22, Type (0, 0), BuildingBlock: AJUNOK_clean_linker_0, # of connection points: 2
#     Edge 23, Type (0, 0), BuildingBlock: AJUNOK_clean_linker_0, # of connection points: 2
#     Edge 24, Type (0, 0), BuildingBlock: AJUNOK_clean_linker_0, # of connection points: 2
#     Edge 25, Type (0, 0), BuildingBlock: AJUNOK_clean_linker_0, # of connection points: 2
#     Edge 26, Type (0, 0), BuildingBlock: AJUNOK_clean_linker_0, # of connection points: 2
#     Edge 27, Type (0, 0), BuildingBlock: AJUNOK_clean_linker_0, # of connection points: 2
#     Edge 28, Type (0, 0), BuildingBlock: AJUNOK_clean_linker_0, # of connection points: 2
#     Edge 29, Type (0, 0), BuildingBlock: AJUNOK_clean_linker_0, # of connection points: 2
#     Edge 30, Type (0, 0), BuildingBlock: AJUNOK_clean_linker_0, # of connection points: 2
#     Edge 31, Type (0, 0), BuildingBlock: AJUNOK_clean_linker_0, # of connection points: 2
#     Edge 32, Type (0, 0), BuildingBlock: AJUNOK_clean_linker_0, # of connection points: 2
#     Edge 33, Type (0, 0), BuildingBlock: AJUNOK_clean_linker_0, # of connection points: 2
#     Edge 34, Type (0, 0), BuildingBlock: AJUNOK_clean_linker_0, # of connection points: 2
#     Edge 35, Type (0, 0), BuildingBlock: AJUNOK_clean_linker_0, # of connection points: 2
#     Edge 36, Type (0, 0), BuildingBlock: AJUNOK_clean_linker_0, # of connection points: 2
#     Edge 37, Type (0, 0), BuildingBlock: AJUNOK_clean_linker_0, # of connection points: 2
#     Edge 38, Type (0, 0), BuildingBlock: AJUNOK_clean_linker_0, # of connection points: 2
#     Edge 39, Type (0, 0), BuildingBlock: AJUNOK_clean_linker_0, # of connection points: 2
#     Edge 40, Type (0, 0), BuildingBlock: AJUNOK_clean_linker_0, # of connection points: 2
#     Edge 41, Type (0, 0), BuildingBlock: AJUNOK_clean_linker_0, # of connection points: 2
#     Edge 42, Type (0, 0), BuildingBlock: AJUNOK_clean_linker_0, # of connection points: 2
#     Edge 43, Type (0, 0), BuildingBlock: AJUNOK_clean_linker_0, # of connection points: 2
#     Edge 44, Type (0, 0), BuildingBlock: AJUNOK_clean_linker_0, # of connection points: 2
#     Edge 45, Type (0, 0), BuildingBlock: AJUNOK_clean_linker_0, # of connection points: 2
#     Edge 46, Type (0, 0), BuildingBlock: AJUNOK_clean_linker_0, # of connection points: 2
#     Edge 47, Type (0, 0), BuildingBlock: AJUNOK_clean_linker_0, # of connection points: 2
# Relax obj value: 0.078
# Max RMSD: 0.117
# Mean RMSD: 0.117
data_MOF--net-uot--node1-KUFVIS_clean_sbu_0--edge1-AJUNOK_clean_linker_0
_symmetry_space_group_name_H-M    P1
_symmetry_Int_Tables_number       1
_symmetry_cell_setting            triclinic
loop_
_symmetry_equiv_pos_as_xyz
'x, y, z'
_cell_length_a     32.607834
_cell_length_b     32.611386
_cell_length_c     29.523976
_cell_angle_alpha  89.994969
_cell_angle_beta   90.017313
_cell_angle_gamma 89.990131
loop_
_atom_site_label
_atom_site_type_symbol
_atom_site_fract_x
_atom_site_fract_y
_atom_site_fract_z
_atom_type_partial_charge
Mn0 Mn 0.17828 0.42399 0.33344 0.0
Mn1 Mn 0.13573 0.35937 0.40888 0.0
C2 C 0.13166 0.37481 0.30977 0.0
C3 C 0.17502 0.48594 0.29428 0.0
C4 C 0.2231 0.35023 0.37426 0.0
O5 O 0.18864 0.45261 0.39367 0.0
O6 O 0.15733 0.40846 0.44124 0.0
C7 C 0.06575 0.41005 0.43989 0.0
N8 N 0.08013 0.37537 0.41962 0.0
C9 C 0.01159 0.35007 0.40815 0.0
C10 C 0.99606 0.38542 0.42907 0.0
C11 C 0.02328 0.41555 0.44496 0.0
C12 C 0.05422 0.34607 0.40448 0.0
H13 H 0.08649 0.43338 0.45204 0.0
C14 C 0.17694 0.44179 0.43321 0.0
O15 O 0.20984 0.46706 0.29936 0.0
O16 O 0.14308 0.46966 0.31295 0.0
N17 N 0.11296 0.31145 0.3811 0.0
C18 C 0.13284 0.27945 0.36113 0.0
C19 C 0.10994 0.24702 0.34269 0.0
C20 C 0.06692 0.24784 0.34498 0.0
C21 C 0.04716 0.28098 0.36594 0.0
C22 C 0.07159 0.31225 0.38405 0.0
H23 H 0.16589 0.2788 0.35899 0.0
O24 O 0.15774 0.39034 0.28136 0.0
O25 O 0.13451 0.38815 0.35108 0.0
O26 O 0.22274 0.38105 0.34753 0.0
O27 O 0.19245 0.34012 0.39888 0.0
C28 C 0.00418 0.28443 0.36911 0.0
C29 C 0.98641 0.31891 0.39028 0.0
H30 H 0.96332 0.38992 0.43279 0.0
H31 H 0.01154 0.44303 0.46089 0.0
H32 H 0.12541 0.22158 0.32651 0.0
H33 H 0.04936 0.22293 0.33037 0.0
H34 H 0.9845 0.26081 0.35523 0.0
H35 H 0.95333 0.32128 0.39238 0.0
Mn36 Mn 0.42272 0.82375 0.68094 0.0
Mn37 Mn 0.35993 0.86569 0.60328 0.0
C38 C 0.37216 0.86936 0.70317 0.0
C39 C 0.48405 0.8278 0.72094 0.0
C40 C 0.352 0.77768 0.63632 0.0
O41 O 0.45279 0.81388 0.62163 0.0
O42 O 0.411 0.84659 0.57262 0.0
C43 C 0.40897 0.93821 0.57659 0.0
N44 N 0.37404 0.92206 0.59454 0.0
C45 C 0.3456 0.98929 0.6065 0.0
C46 C 0.3812 0.00662 0.58796 0.0
C47 C 0.41298 0.98095 0.57288 0.0
C48 C 0.34308 0.94647 0.60871 0.0
H49 H 0.43361 0.91864 0.56521 0.0
C50 C 0.44405 0.82694 0.58202 0.0
O51 O 0.46567 0.79273 0.71571 0.0
O52 O 0.46739 0.85962 0.70242 0.0
N53 N 0.31018 0.88597 0.62946 0.0
C54 C 0.27856 0.86446 0.64804 0.0
C55 C 0.24471 0.88567 0.66582 0.0
C56 C 0.24376 0.92871 0.66435 0.0
C57 C 0.27656 0.95017 0.64483 0.0
C58 C 0.3093 0.92737 0.62725 0.0
H59 H 0.27928 0.83139 0.64966 0.0
O60 O 0.38758 0.84363 0.73209 0.0
O61 O 0.38666 0.8669 0.66231 0.0
O62 O 0.38086 0.77874 0.66559 0.0
O63 O 0.3426 0.80811 0.61107 0.0
C64 C 0.27838 0.99329 0.6428 0.0
C65 C 0.31282 0.01284 0.62356 0.0
H66 H 0.38456 0.03959 0.5854 0.0
H67 H 0.44057 0.9941 0.55858 0.0
H68 H 0.21958 0.8689 0.68096 0.0
H69 H 0.21781 0.94498 0.67856 0.0
H70 H 0.25359 0.01174 0.65625 0.0
H71 H 0.31398 0.04602 0.62248 0.0
Mn72 Mn 0.82296 0.58225 0.33 0.0
Mn73 Mn 0.86595 0.64378 0.40821 0.0
C74 C 0.8691 0.6325 0.30818 0.0
C75 C 0.82615 0.5213 0.28906 0.0
C76 C 0.778 0.65341 0.3754 0.0
O77 O 0.81298 0.55162 0.38904 0.0
O78 O 0.84606 0.59278 0.43837 0.0
C79 C 0.93768 0.5932 0.4341 0.0
N80 N 0.92209 0.62865 0.41674 0.0
C81 C 0.98978 0.6561 0.40515 0.0
C82 C 0.00654 0.61998 0.42312 0.0
C83 C 0.98036 0.58843 0.4377 0.0
C84 C 0.947 0.65936 0.40301 0.0
H85 H 0.91772 0.56873 0.44507 0.0
C86 C 0.82612 0.55998 0.42873 0.0
O87 O 0.79132 0.54004 0.29474 0.0
O88 O 0.85821 0.53735 0.30773 0.0
N89 N 0.88703 0.69344 0.38261 0.0
C90 C 0.86604 0.72561 0.36442 0.0
C91 C 0.8878 0.7593 0.3471 0.0
C92 C 0.93085 0.75954 0.34865 0.0
C93 C 0.95177 0.7262 0.36777 0.0
C94 C 0.92844 0.69365 0.3849 0.0
H95 H 0.83296 0.72544 0.36276 0.0
O96 O 0.84309 0.61769 0.27919 0.0
O97 O 0.86664 0.6176 0.34887 0.0
O98 O 0.7785 0.62461 0.34604 0.0
O99 O 0.80867 0.66217 0.4006 0.0
C100 C 0.99487 0.72366 0.3698 0.0
C101 C 0.01386 0.68868 0.38856 0.0
H102 H 0.03945 0.61603 0.4256 0.0
H103 H 0.99307 0.56043 0.45152 0.0
H104 H 0.87144 0.78486 0.33226 0.0
H105 H 0.94754 0.78538 0.33478 0.0
H106 H 0.01371 0.7483 0.35669 0.0
H107 H 0.04702 0.68696 0.38962 0.0
Mn108 Mn 0.58211 0.17825 0.67721 0.0
Mn109 Mn 0.64608 0.13599 0.60094 0.0
C110 C 0.63263 0.13287 0.70048 0.0
C111 C 0.52094 0.1735 0.71785 0.0
C112 C 0.65401 0.22399 0.63397 0.0
O113 O 0.55238 0.18778 0.61734 0.0
O114 O 0.5959 0.1561 0.56937 0.0
C115 C 0.59623 0.06441 0.57298 0.0
N116 N 0.63117 0.0799 0.59165 0.0
C117 C 0.65823 0.01215 0.60391 0.0
C118 C 0.62263 0.99549 0.58464 0.0
C119 C 0.59152 0.02175 0.56908 0.0
C120 C 0.66145 0.05491 0.60637 0.0
H121 H 0.57212 0.08444 0.56118 0.0
C122 C 0.5626 0.17564 0.57776 0.0
O123 O 0.53875 0.20882 0.71223 0.0
O124 O 0.53757 0.14213 0.69846 0.0
N125 N 0.69512 0.11477 0.62786 0.0
C126 C 0.72698 0.13569 0.64679 0.0
C127 C 0.76027 0.11385 0.66492 0.0
C128 C 0.76045 0.0708 0.66341 0.0
C129 C 0.72746 0.04996 0.64346 0.0
C130 C 0.69531 0.07337 0.62554 0.0
H131 H 0.72683 0.16877 0.64841 0.0
O132 O 0.6169 0.15881 0.72889 0.0
O133 O 0.61851 0.13496 0.65942 0.0
O134 O 0.62416 0.22341 0.66206 0.0
O135 O 0.66409 0.19323 0.60952 0.0
C136 C 0.72493 0.00688 0.64123 0.0
C137 C 0.69039 0.98798 0.6214 0.0
H138 H 0.61874 0.96259 0.58186 0.0
H139 H 0.5639 0.00913 0.55427 0.0
H140 H 0.78558 0.13014 0.68036 0.0
H141 H 0.78598 0.05405 0.67789 0.0
H142 H 0.74926 0.98796 0.65495 0.0
H143 H 0.68869 0.95483 0.62013 0.0
Mn144 Mn 0.18069 0.58104 0.67978 0.0
Mn145 Mn 0.13923 0.64391 0.60199 0.0
C146 C 0.13555 0.63205 0.70183 0.0
C147 C 0.17524 0.52026 0.72076 0.0
C148 C 0.22718 0.65159 0.63534 0.0
O149 O 0.19043 0.55063 0.62063 0.0
O150 O 0.15841 0.5928 0.57146 0.0
C151 C 0.06675 0.5947 0.57547 0.0
N152 N 0.08286 0.62973 0.59325 0.0
C153 C 0.01558 0.65786 0.60572 0.0
C154 C 0.99828 0.62218 0.58733 0.0
C155 C 0.024 0.5905 0.57208 0.0
C156 C 0.0584 0.66057 0.60763 0.0
H157 H 0.08636 0.57012 0.56402 0.0
C158 C 0.17773 0.55959 0.58093 0.0
O159 O 0.21074 0.53782 0.71546 0.0
O160 O 0.14409 0.53705 0.70108 0.0
N161 N 0.11889 0.69371 0.62801 0.0
C162 C 0.14037 0.72551 0.64625 0.0
C163 C 0.11912 0.75935 0.66398 0.0
C164 C 0.07606 0.7601 0.66284 0.0
C165 C 0.05463 0.72713 0.64363 0.0
C166 C 0.07747 0.69444 0.62603 0.0
H167 H 0.17346 0.72493 0.64763 0.0
O168 O 0.16117 0.61652 0.73076 0.0
O169 O 0.13787 0.6174 0.66103 0.0
O170 O 0.22609 0.62254 0.66441 0.0
O171 O 0.19678 0.66118 0.6101 0.0
C172 C 0.0115 0.72513 0.6419 0.0
C173 C 0.99199 0.69056 0.62289 0.0
H174 H 0.96532 0.61867 0.58501 0.0
H175 H 0.01089 0.56283 0.55793 0.0
H176 H 0.13588 0.78462 0.67886 0.0
H177 H 0.05977 0.78604 0.67703 0.0
H178 H 0.99302 0.74988 0.6554 0.0
H179 H 0.9588 0.68926 0.62203 0.0
Mn180 Mn 0.58122 0.82633 0.33555 0.0
Mn181 Mn 0.64571 0.86782 0.41177 0.0
C182 C 0.63119 0.87233 0.31253 0.0
C183 C 0.51973 0.83145 0.29564 0.0
C184 C 0.65357 0.78026 0.37737 0.0
O185 O 0.5521 0.81599 0.39548 0.0
O186 O 0.59594 0.84714 0.44358 0.0
C187 C 0.59609 0.93879 0.44212 0.0
N188 N 0.63062 0.92373 0.42214 0.0
C189 C 0.65704 0.99177 0.41024 0.0
C190 C 0.62183 0.008 0.43081 0.0
C191 C 0.59125 0.98137 0.44684 0.0
C192 C 0.66041 0.94907 0.40698 0.0
H193 H 0.57239 0.91849 0.45433 0.0
C194 C 0.5626 0.82769 0.43513 0.0
O195 O 0.53768 0.7961 0.30049 0.0
O196 O 0.5364 0.8626 0.3154 0.0
N197 N 0.69427 0.88962 0.38443 0.0
C198 C 0.72609 0.8691 0.36492 0.0
C199 C 0.75901 0.89134 0.34658 0.0
C200 C 0.75886 0.93438 0.34849 0.0
C201 C 0.72588 0.95482 0.36896 0.0
C202 C 0.6941 0.93102 0.38702 0.0
H203 H 0.72623 0.83603 0.36308 0.0
O204 O 0.61545 0.84663 0.28385 0.0
O205 O 0.61755 0.86943 0.3537 0.0
O206 O 0.62347 0.78114 0.3496 0.0
O207 O 0.66387 0.81075 0.40211 0.0
C208 C 0.72305 0.99786 0.37169 0.0
C209 C 0.6887 0.01632 0.39238 0.0
H210 H 0.61783 0.04083 0.43422 0.0
H211 H 0.56393 0.99365 0.46263 0.0
H212 H 0.78433 0.87535 0.33078 0.0
H213 H 0.78414 0.95144 0.33394 0.0
H214 H 0.74707 0.01707 0.35783 0.0
H215 H 0.68683 0.04944 0.39416 0.0
Mn216 Mn 0.82607 0.42154 0.67457 0.0
Mn217 Mn 0.86734 0.35744 0.59787 0.0
C218 C 0.87221 0.37147 0.69719 0.0
C219 C 0.8314 0.48281 0.71486 0.0
C220 C 0.77987 0.34932 0.6326 0.0
O221 O 0.81551 0.45097 0.61479 0.0
O222 O 0.84649 0.40734 0.56636 0.0
C223 C 0.93816 0.40738 0.5678 0.0
N224 N 0.9232 0.37264 0.58741 0.0
C225 C 0.99133 0.34629 0.59905 0.0
C226 C 0.00745 0.3817 0.57881 0.0
C227 C 0.98072 0.41237 0.56314 0.0
C228 C 0.94863 0.34281 0.60232 0.0
H229 H 0.91779 0.43115 0.55588 0.0
C230 C 0.82707 0.44066 0.57503 0.0
O231 O 0.79601 0.46492 0.71005 0.0
O232 O 0.86246 0.46623 0.69482 0.0
N233 N 0.88929 0.30877 0.62487 0.0
C234 C 0.86887 0.27685 0.64429 0.0
C235 C 0.89121 0.24388 0.6624 0.0
C236 C 0.93425 0.24409 0.66035 0.0
C237 C 0.95458 0.27718 0.63998 0.0
C238 C 0.93068 0.309 0.62214 0.0
H239 H 0.8358 0.27668 0.64625 0.0
O240 O 0.84657 0.38706 0.72601 0.0
O241 O 0.86915 0.38529 0.65609 0.0
O242 O 0.7808 0.37932 0.66051 0.0
O243 O 0.8103 0.33919 0.60767 0.0
C244 C 0.99761 0.28008 0.63716 0.0
C245 C 0.01598 0.31458 0.61665 0.0
H246 H 0.04027 0.38581 0.57544 0.0
H247 H 0.99293 0.4399 0.54773 0.0
H248 H 0.8753 0.21848 0.67814 0.0
H249 H 0.95139 0.21877 0.67473 0.0
H250 H 0.0169 0.25603 0.65085 0.0
H251 H 0.04909 0.31653 0.61485 0.0
Mn252 Mn 0.42231 0.17925 0.33176 0.0
Mn253 Mn 0.35971 0.13784 0.40986 0.0
C254 C 0.37151 0.13373 0.31005 0.0
C255 C 0.48295 0.17429 0.29038 0.0
C256 C 0.35058 0.22523 0.37508 0.0
O257 O 0.45288 0.18938 0.39077 0.0
O258 O 0.4105 0.15816 0.44026 0.0
C259 C 0.41012 0.06656 0.4377 0.0
N260 N 0.37485 0.08185 0.41957 0.0
C261 C 0.34781 0.01394 0.40839 0.0
C262 C 0.38375 0.9975 0.42715 0.0
C263 C 0.415 0.02395 0.44192 0.0
C264 C 0.34442 0.05668 0.40563 0.0
H265 H 0.43439 0.08671 0.44882 0.0
C266 C 0.44384 0.1772 0.43064 0.0
O267 O 0.46507 0.20961 0.29578 0.0
O268 O 0.46661 0.14301 0.31026 0.0
N269 N 0.31028 0.1163 0.38414 0.0
C270 C 0.2781 0.13697 0.36551 0.0
C271 C 0.24463 0.11489 0.34816 0.0
C272 C 0.24459 0.07186 0.35011 0.0
C273 C 0.27791 0.05128 0.36973 0.0
C274 C 0.31024 0.07491 0.38688 0.0
H275 H 0.27811 0.17002 0.36351 0.0
O276 O 0.38682 0.15935 0.28099 0.0
O277 O 0.3863 0.13615 0.35081 0.0
O278 O 0.3804 0.22437 0.34698 0.0
O279 O 0.34133 0.19496 0.40069 0.0
C280 C 0.28061 0.00822 0.37229 0.0
C281 C 0.31549 0.98957 0.39169 0.0
H282 H 0.38777 0.96464 0.43014 0.0
H283 H 0.44287 0.0115 0.45637 0.0
H284 H 0.21908 0.131 0.33296 0.0
H285 H 0.21892 0.05494 0.33621 0.0
H286 H 0.25615 0.98914 0.35916 0.0
H287 H 0.31731 0.95643 0.39321 0.0
Mn288 Mn 0.68062 0.9227 0.83263 0.0
Mn289 Mn 0.63766 0.85888 0.90871 0.0
C290 C 0.63424 0.87326 0.80938 0.0
C291 C 0.67754 0.98437 0.7928 0.0
C292 C 0.72492 0.84887 0.87418 0.0
O293 O 0.69097 0.95184 0.89256 0.0
O294 O 0.6595 0.90817 0.9405 0.0
C295 C 0.56788 0.91048 0.93842 0.0
N296 N 0.58213 0.87529 0.91916 0.0
C297 C 0.51348 0.85007 0.9082 0.0
C298 C 0.4981 0.88597 0.92809 0.0
C299 C 0.52543 0.91627 0.94331 0.0
C300 C 0.5561 0.84576 0.90479 0.0
H301 H 0.58872 0.93398 0.94997 0.0
C302 C 0.67925 0.94134 0.93219 0.0
O303 O 0.71232 0.96547 0.79815 0.0
O304 O 0.64555 0.96827 0.81155 0.0
N305 N 0.61468 0.81069 0.8817 0.0
C306 C 0.63441 0.77843 0.86207 0.0
C307 C 0.61137 0.74586 0.84415 0.0
C308 C 0.56837 0.7468 0.84663 0.0
C309 C 0.54877 0.78016 0.86733 0.0
C310 C 0.57333 0.81156 0.88497 0.0
H311 H 0.66744 0.77771 0.85971 0.0
O312 O 0.66029 0.88865 0.78084 0.0
O313 O 0.63671 0.8871 0.85052 0.0
O314 O 0.72488 0.87962 0.8473 0.0
O315 O 0.6942 0.83923 0.8989 0.0
C316 C 0.50581 0.7838 0.87053 0.0
C317 C 0.48818 0.81868 0.89103 0.0
H318 H 0.46537 0.89069 0.93162 0.0
H319 H 0.5138 0.94409 0.95863 0.0
H320 H 0.62672 0.72027 0.82813 0.0
H321 H 0.5507 0.72183 0.83232 0.0
H322 H 0.48603 0.76007 0.85705 0.0
H323 H 0.45511 0.82124 0.89304 0.0
Mn324 Mn 0.92136 0.32598 0.17665 0.0
Mn325 Mn 0.85725 0.36739 0.09989 0.0
C326 C 0.87104 0.37172 0.19933 0.0
C327 C 0.98268 0.33094 0.21688 0.0
C328 C 0.84941 0.27983 0.13422 0.0
O329 O 0.9508 0.31559 0.1169 0.0
O330 O 0.90731 0.34684 0.06852 0.0
C331 C 0.90703 0.43856 0.07058 0.0
N332 N 0.87215 0.42334 0.08962 0.0
C333 C 0.84506 0.49125 0.10067 0.0
C334 C 0.88062 0.50764 0.08101 0.0
C335 C 0.9117 0.48116 0.06586 0.0
C336 C 0.84187 0.44853 0.10391 0.0
H337 H 0.93112 0.41837 0.0591 0.0
C338 C 0.94053 0.32725 0.07717 0.0
O339 O 0.96469 0.29563 0.21187 0.0
O340 O 0.96608 0.3622 0.19719 0.0
N341 N 0.80832 0.38897 0.12663 0.0
C342 C 0.7766 0.36833 0.14619 0.0
C343 C 0.7434 0.39043 0.16412 0.0
C344 C 0.74316 0.43345 0.16176 0.0
C345 C 0.77601 0.454 0.14119 0.0
C346 C 0.80809 0.43033 0.12353 0.0
H347 H 0.77681 0.33529 0.14848 0.0
O348 O 0.8868 0.34613 0.22813 0.0
O349 O 0.88503 0.36911 0.15826 0.0
O350 O 0.87925 0.28076 0.16231 0.0
O351 O 0.83925 0.31029 0.10936 0.0
C352 C 0.77851 0.49704 0.13815 0.0
C353 C 0.81296 0.51565 0.11782 0.0
H354 H 0.88448 0.54049 0.07762 0.0
H355 H 0.93928 0.49357 0.05076 0.0
H356 H 0.71821 0.37436 0.18006 0.0
H357 H 0.7177 0.4504 0.17608 0.0
H358 H 0.75423 0.51614 0.15164 0.0
H359 H 0.81463 0.54878 0.11595 0.0
Mn360 Mn 0.32445 0.08082 0.83227 0.0
Mn361 Mn 0.36722 0.14298 0.90999 0.0
C362 C 0.37163 0.13008 0.81025 0.0
C363 C 0.32745 0.01935 0.79226 0.0
C364 C 0.27977 0.15313 0.87573 0.0
O365 O 0.31343 0.05113 0.89162 0.0
O366 O 0.34604 0.09281 0.94079 0.0
C367 C 0.43765 0.09212 0.93943 0.0
N368 N 0.42296 0.12708 0.92001 0.0
C369 C 0.49129 0.15317 0.90916 0.0
C370 C 0.50712 0.11752 0.92918 0.0
C371 C 0.48016 0.08689 0.9444 0.0
C372 C 0.44862 0.15693 0.90567 0.0
H373 H 0.4171 0.0684 0.95105 0.0
C374 C 0.32599 0.06002 0.93139 0.0
O375 O 0.29276 0.03852 0.79716 0.0
O376 O 0.35943 0.03523 0.81124 0.0
N377 N 0.38955 0.19175 0.88362 0.0
C378 C 0.3694 0.22404 0.86459 0.0
C379 C 0.39201 0.25702 0.84694 0.0
C380 C 0.43504 0.25645 0.84905 0.0
C381 C 0.4551 0.22297 0.86901 0.0
C382 C 0.43095 0.19112 0.88633 0.0
H383 H 0.33633 0.22452 0.86259 0.0
O384 O 0.34564 0.1153 0.78122 0.0
O385 O 0.36838 0.11586 0.85119 0.0
O386 O 0.28025 0.12381 0.84702 0.0
O387 O 0.31034 0.16214 0.90098 0.0
C388 C 0.49811 0.21974 0.87195 0.0
C389 C 0.51619 0.18492 0.89211 0.0
H390 H 0.5399 0.11323 0.93279 0.0
H391 H 0.49214 0.05923 0.95976 0.0
H392 H 0.37631 0.28271 0.83152 0.0
H393 H 0.45238 0.2818 0.83507 0.0
H394 H 0.51758 0.24382 0.85868 0.0
H395 H 0.54928 0.18276 0.89409 0.0
Mn396 Mn 0.08091 0.68111 0.17987 0.0
Mn397 Mn 0.14344 0.63766 0.103 0.0
C398 C 0.1309 0.63514 0.20286 0.0
C399 C 0.0194 0.6778 0.21984 0.0
C400 C 0.15289 0.7257 0.13553 0.0
O401 O 0.05107 0.69086 0.12032 0.0
O402 O 0.09295 0.6577 0.07184 0.0
C403 C 0.09288 0.5661 0.07653 0.0
N404 N 0.12811 0.58157 0.09457 0.0
C405 C 0.1549 0.51378 0.1073 0.0
C406 C 0.119 0.49715 0.08868 0.0
C407 C 0.0879 0.52344 0.07317 0.0
C408 C 0.1584 0.55654 0.10919 0.0
H409 H 0.06876 0.58615 0.06482 0.0
C410 C 0.06001 0.67767 0.08083 0.0
O411 O 0.03807 0.71269 0.21436 0.0
O412 O 0.03583 0.64581 0.20147 0.0
N413 N 0.19266 0.61641 0.12952 0.0
C414 C 0.22485 0.63731 0.14777 0.0
C415 C 0.25821 0.61544 0.16572 0.0
C416 C 0.25811 0.57237 0.16474 0.0
C417 C 0.22477 0.55155 0.14547 0.0
C418 C 0.19257 0.57499 0.12769 0.0
H419 H 0.22495 0.6704 0.149 0.0
O420 O 0.11565 0.6613 0.23139 0.0
O421 O 0.11653 0.63733 0.16191 0.0
O422 O 0.12353 0.72548 0.16424 0.0
O423 O 0.16199 0.69487 0.11072 0.0
C424 C 0.22195 0.50847 0.14382 0.0
C425 C 0.18709 0.48959 0.12468 0.0
H426 H 0.11489 0.46426 0.08636 0.0
H427 H 0.06007 0.51084 0.0588 0.0
H428 H 0.28378 0.63172 0.18062 0.0
H429 H 0.28369 0.55561 0.17908 0.0
H430 H 0.24631 0.48954 0.15747 0.0
H431 H 0.18517 0.45645 0.12385 0.0
Mn432 Mn 0.67965 0.08144 0.17793 0.0
Mn433 Mn 0.63778 0.14305 0.09916 0.0
C434 C 0.63262 0.13117 0.1989 0.0
C435 C 0.67518 0.02075 0.21922 0.0
C436 C 0.72499 0.15313 0.13421 0.0
O437 O 0.69104 0.05107 0.1191 0.0
O438 O 0.65905 0.09254 0.06916 0.0
C439 C 0.56742 0.09198 0.07005 0.0
N440 N 0.58207 0.12717 0.08896 0.0
C441 C 0.51371 0.1533 0.09954 0.0
C442 C 0.49792 0.11742 0.08001 0.0
C443 C 0.52491 0.08665 0.06519 0.0
C444 C 0.55638 0.15714 0.10296 0.0
H445 H 0.58798 0.06813 0.05878 0.0
C446 C 0.67887 0.05973 0.0791 0.0
O447 O 0.71027 0.03921 0.21445 0.0
O448 O 0.6439 0.03655 0.19881 0.0
N449 N 0.6154 0.19213 0.12476 0.0
C450 C 0.63552 0.2246 0.14346 0.0
C451 C 0.61288 0.25776 0.16065 0.0
C452 C 0.56985 0.25717 0.15846 0.0
C453 C 0.54983 0.22351 0.13885 0.0
C454 C 0.57401 0.1915 0.12194 0.0
H455 H 0.66858 0.22508 0.14553 0.0
O456 O 0.6583 0.11655 0.22834 0.0
O457 O 0.63613 0.11655 0.15818 0.0
O458 O 0.72424 0.12402 0.1632 0.0
O459 O 0.69465 0.16204 0.10856 0.0
C460 C 0.50682 0.22023 0.13593 0.0
C461 C 0.48878 0.18519 0.11621 0.0
H462 H 0.46514 0.11304 0.07651 0.0
H463 H 0.51295 0.0588 0.05023 0.0
H464 H 0.62855 0.28359 0.1758 0.0
H465 H 0.55248 0.28265 0.17211 0.0
H466 H 0.48732 0.24442 0.14891 0.0
H467 H 0.45568 0.18298 0.11427 0.0
Mn468 Mn 0.08146 0.32331 0.8321 0.0
Mn469 Mn 0.14303 0.36552 0.91073 0.0
C470 C 0.13132 0.37015 0.81097 0.0
C471 C 0.02082 0.32772 0.79054 0.0
C472 C 0.15315 0.27813 0.87629 0.0
O473 O 0.05093 0.31238 0.89094 0.0
O474 O 0.0924 0.3446 0.9407 0.0
C475 C 0.09203 0.43617 0.93918 0.0
N476 N 0.12723 0.42133 0.92044 0.0
C477 C 0.15349 0.48955 0.90938 0.0
C478 C 0.1176 0.50554 0.9287 0.0
C479 C 0.08677 0.47871 0.94371 0.0
C480 C 0.15727 0.44687 0.90632 0.0
H481 H 0.06813 0.41572 0.95057 0.0
C482 C 0.05952 0.32487 0.93083 0.0
O483 O 0.03921 0.29262 0.79562 0.0
O484 O 0.03666 0.35905 0.8108 0.0
N485 N 0.19222 0.38765 0.88511 0.0
C486 C 0.22474 0.36735 0.86674 0.0
C487 C 0.258 0.38982 0.84952 0.0
C488 C 0.25747 0.43286 0.85136 0.0
C489 C 0.22376 0.45306 0.87064 0.0
C490 C 0.19166 0.42905 0.88761 0.0
H491 H 0.22518 0.33429 0.86494 0.0
O492 O 0.11674 0.34437 0.78163 0.0
O493 O 0.11663 0.36682 0.85165 0.0
O494 O 0.12402 0.27874 0.84728 0.0
O495 O 0.16198 0.30859 0.90178 0.0
C496 C 0.22054 0.49609 0.87318 0.0
C497 C 0.18547 0.51432 0.89261 0.0
H498 H 0.11328 0.53835 0.93192 0.0
H499 H 0.05895 0.49082 0.95857 0.0
H500 H 0.28387 0.37401 0.83462 0.0
H501 H 0.28303 0.45009 0.83767 0.0
H502 H 0.2448 0.51546 0.86013 0.0
H503 H 0.1833 0.54743 0.89426 0.0
Mn504 Mn 0.3238 0.9236 0.1787 0.0
Mn505 Mn 0.36758 0.86011 0.10297 0.0
C506 C 0.37059 0.87454 0.2023 0.0
C507 C 0.32651 0.98515 0.21864 0.0
C508 C 0.27978 0.85037 0.13593 0.0
O509 O 0.31377 0.95275 0.11865 0.0
O510 O 0.34604 0.9094 0.07093 0.0
C511 C 0.43767 0.91141 0.07359 0.0
N512 N 0.42322 0.87652 0.09336 0.0
C513 C 0.49175 0.85163 0.10599 0.0
C514 C 0.50735 0.88722 0.08566 0.0
C515 C 0.48017 0.91721 0.06934 0.0
C516 C 0.4491 0.84729 0.10875 0.0
H517 H 0.41694 0.93465 0.06116 0.0
C518 C 0.32595 0.94241 0.07912 0.0
O519 O 0.29179 0.96621 0.21303 0.0
O520 O 0.35863 0.96919 0.20001 0.0
N521 N 0.39024 0.81202 0.1305 0.0
C522 C 0.37027 0.77966 0.1496 0.0
C523 C 0.39309 0.74718 0.16807 0.0
C524 C 0.43614 0.74833 0.16671 0.0
C525 C 0.456 0.78185 0.14663 0.0
C526 C 0.43164 0.81315 0.12841 0.0
H527 H 0.33719 0.77875 0.15102 0.0
O528 O 0.34413 0.88958 0.2306 0.0
O529 O 0.36793 0.88824 0.16113 0.0
O530 O 0.27971 0.88053 0.1636 0.0
O531 O 0.31083 0.84058 0.11179 0.0
C532 C 0.49899 0.78566 0.14442 0.0
C533 C 0.51686 0.82048 0.12405 0.0
H534 H 0.54011 0.89196 0.08262 0.0
H535 H 0.49197 0.94481 0.05368 0.0
H536 H 0.37754 0.72144 0.18356 0.0
H537 H 0.45364 0.72339 0.18135 0.0
H538 H 0.51862 0.76204 0.15843 0.0
H539 H 0.54994 0.82311 0.12266 0.0
Mn540 Mn 0.92477 0.6779 0.83279 0.0
Mn541 Mn 0.86073 0.63441 0.90814 0.0
C542 C 0.87593 0.63103 0.80895 0.0
C543 C 0.98654 0.67548 0.79335 0.0
C544 C 0.85048 0.72173 0.87377 0.0
O545 O 0.95351 0.68822 0.89298 0.0
O546 O 0.90956 0.65667 0.94055 0.0
C547 C 0.91255 0.56512 0.93883 0.0
N548 N 0.87761 0.57903 0.91868 0.0
C549 C 0.85344 0.51014 0.90681 0.0
C550 C 0.88908 0.4951 0.9276 0.0
C551 C 0.91874 0.52272 0.94367 0.0
C552 C 0.84872 0.55272 0.9034 0.0
H553 H 0.93555 0.58617 0.9511 0.0
C554 C 0.94275 0.67651 0.93253 0.0
O555 O 0.96737 0.71009 0.79875 0.0
O556 O 0.97068 0.64328 0.81191 0.0
N557 N 0.81308 0.61099 0.88043 0.0
C558 C 0.78064 0.63044 0.86079 0.0
C559 C 0.74851 0.60711 0.84238 0.0
C560 C 0.75006 0.5641 0.84437 0.0
C561 C 0.78363 0.54478 0.86503 0.0
C562 C 0.81457 0.56963 0.88316 0.0
H563 H 0.77943 0.66348 0.85888 0.0
O564 O 0.89117 0.65741 0.78069 0.0
O565 O 0.8894 0.63368 0.85025 0.0
O566 O 0.88145 0.72184 0.84725 0.0
O567 O 0.84064 0.69086 0.89821 0.0
C568 C 0.78781 0.50186 0.86793 0.0
C569 C 0.82265 0.48455 0.88886 0.0
H570 H 0.89411 0.46242 0.93112 0.0
H571 H 0.9464 0.51135 0.95961 0.0
H572 H 0.72273 0.62223 0.82644 0.0
H573 H 0.72538 0.5462 0.82977 0.0
H574 H 0.76447 0.48186 0.85401 0.0
H575 H 0.82557 0.45151 0.89076 0.0
C576 C 0.26411 0.29537 0.41225 0.0
C577 C 0.25975 0.32296 0.37589 0.0
C578 C 0.29487 0.26548 0.41256 0.0
C579 C 0.32285 0.26156 0.37649 0.0
H580 H 0.24285 0.29603 0.44043 0.0
H581 H 0.29582 0.24444 0.44094 0.0
S582 S 0.327 0.32823 0.27453 0.0
N583 N 0.28788 0.34618 0.30398 0.0
N584 N 0.34579 0.28981 0.30448 0.0
C585 C 0.32032 0.29031 0.34091 0.0
C586 C 0.28881 0.32099 0.34062 0.0
C587 C 0.31842 0.71619 0.67181 0.0
C588 C 0.3256 0.74069 0.63332 0.0
C589 C 0.28815 0.68548 0.67155 0.0
C590 C 0.26403 0.67822 0.63278 0.0
H591 H 0.33467 0.72224 0.70311 0.0
H592 H 0.28208 0.66898 0.70267 0.0
S593 S 0.27615 0.72862 0.52082 0.0
N594 N 0.30998 0.75169 0.55368 0.0
N595 N 0.25335 0.69424 0.55318 0.0
C596 C 0.27312 0.70042 0.59316 0.0
C597 C 0.30381 0.73156 0.59343 0.0
C598 C 0.68664 0.71896 0.34073 0.0
C599 C 0.68009 0.74327 0.37949 0.0
C600 C 0.71684 0.68813 0.34028 0.0
C601 C 0.7415 0.68055 0.37859 0.0
H602 H 0.66991 0.7252 0.30979 0.0
H603 H 0.72234 0.6717 0.30899 0.0
S604 S 0.73115 0.73053 0.49102 0.0
N605 N 0.69694 0.75387 0.45887 0.0
N606 N 0.75337 0.69622 0.45807 0.0
C607 C 0.73308 0.70266 0.41846 0.0
C608 C 0.70249 0.73392 0.4189 0.0
C609 C 0.6883 0.28513 0.66968 0.0
C610 C 0.68065 0.26086 0.63112 0.0
C611 C 0.71893 0.31557 0.66936 0.0
C612 C 0.74293 0.32272 0.63047 0.0
H613 H 0.67214 0.2791 0.70103 0.0
H614 H 0.72532 0.33198 0.70047 0.0
S615 S 0.72965 0.27281 0.5184 0.0
N616 N 0.69577 0.24998 0.55137 0.0
N617 N 0.753 0.30683 0.55077 0.0
C618 C 0.7334 0.30071 0.59085 0.0
C619 C 0.70238 0.26989 0.59118 0.0
C620 C 0.76425 0.79217 0.91107 0.0
C621 C 0.76103 0.82085 0.87557 0.0
C622 C 0.7943 0.76158 0.91091 0.0
C623 C 0.82276 0.75805 0.87527 0.0
H624 H 0.74263 0.79254 0.93892 0.0
H625 H 0.79445 0.73983 0.93865 0.0
S626 S 0.82984 0.82719 0.77555 0.0
N627 N 0.79067 0.84523 0.80486 0.0
N628 N 0.84734 0.78762 0.80459 0.0
C629 C 0.82134 0.78772 0.84055 0.0
C630 C 0.79051 0.81908 0.8407 0.0
C631 C 0.78545 0.18799 0.17054 0.0
C632 C 0.76149 0.18027 0.13174 0.0
C633 C 0.8157 0.21876 0.17056 0.0
C634 C 0.82299 0.24283 0.13178 0.0
H635 H 0.77934 0.17173 0.20181 0.0
H636 H 0.83186 0.22517 0.20182 0.0
S637 S 0.774 0.22955 0.01921 0.0
N638 N 0.75111 0.19548 0.0519 0.0
N639 N 0.80764 0.25301 0.05195 0.0
C640 C 0.80132 0.2333 0.09194 0.0
C641 C 0.77067 0.20212 0.09191 0.0
C642 C 0.18754 0.21721 0.84029 0.0
C643 C 0.18051 0.24174 0.8788 0.0
C644 C 0.21832 0.18696 0.84013 0.0
C645 C 0.24317 0.18019 0.87846 0.0
H646 H 0.17063 0.22279 0.80932 0.0
H647 H 0.22401 0.17026 0.80905 0.0
S648 S 0.23214 0.23104 0.99033 0.0
N649 N 0.1974 0.25339 0.95803 0.0
N650 N 0.25495 0.19689 0.95769 0.0
C651 C 0.23446 0.20257 0.91807 0.0
C652 C 0.20324 0.23321 0.91825 0.0
C653 C 0.21776 0.81727 0.1711 0.0
C654 C 0.24315 0.82338 0.1331 0.0
C655 C 0.1869 0.78711 0.17095 0.0
C656 C 0.18031 0.76204 0.13276 0.0
H657 H 0.22309 0.83441 0.20197 0.0
H658 H 0.16957 0.78204 0.20174 0.0
S659 S 0.23348 0.77096 0.02197 0.0
N660 N 0.25596 0.8055 0.05439 0.0
N661 N 0.19823 0.74919 0.05405 0.0
C662 C 0.20359 0.76992 0.09357 0.0
C663 C 0.23491 0.80046 0.09375 0.0
C664 C 0.13744 0.52386 0.23499 0.0
C665 C 0.17005 0.52284 0.26607 0.0
C666 C 0.12685 0.56006 0.21253 0.0
C667 C 0.14827 0.59669 0.2206 0.0
H668 H 0.11906 0.49669 0.22907 0.0
H669 H 0.10041 0.5598 0.19029 0.0
S670 S 0.23657 0.61014 0.29811 0.0
N671 N 0.22475 0.561 0.30264 0.0
N672 N 0.20376 0.62987 0.26138 0.0
C673 C 0.18149 0.59601 0.25088 0.0
C674 C 0.19288 0.55874 0.27314 0.0
C675 C 0.52241 0.86523 0.77988 0.0
C676 C 0.52133 0.83301 0.74837 0.0
C677 C 0.55895 0.87633 0.80133 0.0
C678 C 0.59579 0.85576 0.79185 0.0
H679 H 0.495 0.88292 0.78691 0.0
H680 H 0.55867 0.90245 0.82404 0.0
S681 S 0.60929 0.76921 0.71205 0.0
N682 N 0.55979 0.77994 0.70934 0.0
N683 N 0.6292 0.80177 0.74891 0.0
C684 C 0.59511 0.82307 0.76093 0.0
C685 C 0.55757 0.81119 0.73962 0.0
C686 C 0.87358 0.44709 0.20706 0.0
C687 C 0.85322 0.41015 0.21661 0.0
C688 C 0.86268 0.48348 0.22895 0.0
C689 C 0.83085 0.48434 0.26097 0.0
H690 H 0.89952 0.44751 0.18412 0.0
H691 H 0.88031 0.51093 0.22196 0.0
S692 S 0.76752 0.39611 0.29743 0.0
N693 N 0.79968 0.37647 0.25998 0.0
N694 N 0.77824 0.4456 0.30036 0.0
C695 C 0.80912 0.44805 0.26965 0.0
C696 C 0.82079 0.41064 0.24789 0.0
C697 C 0.44942 0.19165 0.74272 0.0
C698 C 0.48485 0.16739 0.74724 0.0
C699 C 0.41271 0.18058 0.76475 0.0
C700 C 0.41102 0.14592 0.7931 0.0
H701 H 0.4494 0.21777 0.72005 0.0
H702 H 0.3853 0.19855 0.75875 0.0
S703 S 0.49597 0.07353 0.81707 0.0
N704 N 0.5163 0.10814 0.78304 0.0
N705 N 0.44787 0.08776 0.82448 0.0
C706 C 0.44674 0.12255 0.79911 0.0
C707 C 0.4836 0.13332 0.77631 0.0
C708 C 0.19347 0.44881 0.74549 0.0
C709 C 0.16874 0.48395 0.74963 0.0
C710 C 0.18227 0.41186 0.76691 0.0
C711 C 0.147 0.40968 0.79424 0.0
H712 H 0.2201 0.44922 0.72359 0.0
H713 H 0.20068 0.38469 0.76126 0.0
S714 S 0.07291 0.49354 0.81643 0.0
N715 N 0.10816 0.51449 0.78367 0.0
N716 N 0.08759 0.4456 0.82401 0.0
C717 C 0.12303 0.44505 0.79973 0.0
C718 C 0.13393 0.48215 0.77756 0.0
C719 C 0.41155 0.82445 0.24853 0.0
C720 C 0.40984 0.85921 0.22035 0.0
C721 C 0.44822 0.81343 0.27069 0.0
C722 C 0.48354 0.83789 0.26652 0.0
H723 H 0.38424 0.80624 0.25413 0.0
H724 H 0.44829 0.7871 0.29305 0.0
S725 S 0.49441 0.93238 0.19766 0.0
N726 N 0.44646 0.91783 0.1897 0.0
N727 N 0.51476 0.89769 0.23161 0.0
C728 C 0.4822 0.87224 0.23786 0.0
C729 C 0.44541 0.88291 0.21486 0.0
C730 C 0.81415 0.55443 0.73997 0.0
C731 C 0.83803 0.51873 0.7443 0.0
C732 C 0.82555 0.59087 0.76231 0.0
C733 C 0.86011 0.59199 0.79085 0.0
H734 H 0.78803 0.55482 0.71731 0.0
H735 H 0.80782 0.61847 0.75656 0.0
S736 S 0.93184 0.50629 0.81401 0.0
N737 N 0.89711 0.48654 0.77968 0.0
N738 N 0.91794 0.55442 0.82198 0.0
C739 C 0.88322 0.55606 0.79651 0.0
C740 C 0.87217 0.51948 0.7733 0.0
C741 C 0.59101 0.1819 0.24337 0.0
C742 C 0.59307 0.1469 0.21558 0.0
C743 C 0.55418 0.19285 0.26521 0.0
C744 C 0.51904 0.16814 0.26107 0.0
H745 H 0.61822 0.20021 0.24912 0.0
H746 H 0.55392 0.21923 0.28749 0.0
S747 S 0.50905 0.0731 0.19299 0.0
N748 N 0.55694 0.08787 0.18522 0.0
N749 N 0.48831 0.10796 0.22641 0.0
C750 C 0.52067 0.13367 0.23262 0.0
C751 C 0.55764 0.12303 0.20997 0.0
C752 C 0.64049 0.0216 0.73254 0.0
C753 C 0.67264 0.02106 0.76422 0.0
C754 C 0.62968 0.05766 0.70989 0.0
C755 C 0.6504 0.09461 0.71836 0.0
H756 H 0.62259 0.99417 0.72634 0.0
H757 H 0.60354 0.05701 0.68722 0.0
S758 S 0.7373 0.10937 0.7975 0.0
N759 N 0.72616 0.06005 0.80181 0.0
N760 N 0.70477 0.1286 0.76015 0.0
C761 C 0.68319 0.09441 0.74922 0.0
C762 C 0.69481 0.05731 0.77169 0.0
C763 C 0.0912 0.32476 0.263 0.0
C764 C 0.09251 0.35901 0.29197 0.0
C765 C 0.05455 0.31351 0.24095 0.0
C766 C 0.01881 0.33721 0.24609 0.0
H767 H 0.1188 0.3072 0.25666 0.0
H768 H 0.0548 0.28769 0.21789 0.0
S769 S 0.00675 0.43003 0.31734 0.0
N770 N 0.05505 0.4163 0.32439 0.0
N771 N 0.98674 0.39562 0.28281 0.0
C772 C 0.01974 0.37095 0.2756 0.0
C773 C 0.05653 0.38189 0.29843 0.0
C774 C 0.36446 0.98113 0.7329 0.0
C775 C 0.3322 0.98228 0.76436 0.0
C776 C 0.37531 0.94465 0.71118 0.0
C777 C 0.35447 0.9079 0.72033 0.0
H778 H 0.38245 0.00841 0.72621 0.0
H779 H 0.40157 0.94485 0.68868 0.0
S780 S 0.26747 0.89465 0.79959 0.0
N781 N 0.27863 0.94403 0.80279 0.0
N782 N 0.29997 0.87471 0.76269 0.0
C783 C 0.3216 0.90868 0.75103 0.0
C784 C 0.30999 0.94619 0.77264 0.0
C785 C 0.94438 0.62912 0.3 0.0
C786 C 0.90769 0.65018 0.29112 0.0
C787 C 0.98093 0.64019 0.27856 0.0
C788 C 0.98222 0.67283 0.24756 0.0
H789 H 0.9445 0.60261 0.32213 0.0
H790 H 0.00817 0.62207 0.28511 0.0
S791 S 0.89474 0.73813 0.21304 0.0
N792 N 0.87468 0.70525 0.24945 0.0
N793 N 0.9441 0.72689 0.20978 0.0
C794 C 0.94617 0.69518 0.2395 0.0
C795 C 0.9086 0.6834 0.26086 0.0
C796 C 0.69296 0.94929 0.2442 0.0
C797 C 0.66907 0.98493 0.24887 0.0
C798 C 0.68168 0.91274 0.26639 0.0
C799 C 0.64719 0.91146 0.295 0.0
H800 H 0.7189 0.94899 0.2213 0.0
H801 H 0.69935 0.88515 0.26033 0.0
S802 S 0.57542 0.99696 0.31879 0.0
N803 N 0.61008 0.01693 0.28456 0.0
N804 N 0.5894 0.94882 0.32648 0.0
C805 C 0.6241 0.94736 0.30099 0.0
C806 C 0.63506 0.98405 0.278 0.0
C807 C 0.91284 0.32093 0.74312 0.0
C808 C 0.91144 0.35546 0.71457 0.0
C809 C 0.94942 0.30974 0.76536 0.0
C810 C 0.98499 0.33376 0.76082 0.0
H811 H 0.88531 0.30317 0.74914 0.0
H812 H 0.94918 0.28376 0.78822 0.0
S813 S 0.99673 0.42753 0.69101 0.0
N814 N 0.94864 0.4134 0.68323 0.0
N815 N 0.01679 0.39289 0.72523 0.0
C816 C 0.984 0.36779 0.7317 0.0
C817 C 0.94728 0.37866 0.70866 0.0
C818 C 0.37439 0.0585 0.30129 0.0
C819 C 0.35348 0.09537 0.2929 0.0
C820 C 0.36356 0.0224 0.2788 0.0
C821 C 0.33123 0.02174 0.24734 0.0
H822 H 0.40074 0.05799 0.32366 0.0
H823 H 0.38166 0.99505 0.28483 0.0
S824 S 0.26592 0.10974 0.21457 0.0
N825 N 0.29863 0.12913 0.25162 0.0
N826 N 0.27724 0.06047 0.21021 0.0
C827 C 0.3088 0.05787 0.24007 0.0
C828 C 0.32042 0.09501 0.2624 0.0
C829 C 0.06044 0.62825 0.71087 0.0
C830 C 0.09706 0.64963 0.71913 0.0
C831 C 0.02426 0.63864 0.73344 0.0
C832 C 0.02326 0.67099 0.76481 0.0
H833 H 0.0602 0.60189 0.68852 0.0
H834 H 0.99712 0.62022 0.72747 0.0
S835 S 0.11048 0.73746 0.79723 0.0
N836 N 0.13021 0.70493 0.76022 0.0
N837 N 0.06136 0.72554 0.80172 0.0
C838 C 0.05911 0.69389 0.77196 0.0
C839 C 0.09636 0.6827 0.74957 0.0
C840 C 0.18369 0.54181 0.49862 0.0
C841 C 0.18292 0.52896 0.54414 0.0
C842 C 0.18403 0.51337 0.46297 0.0
C843 C 0.18284 0.47089 0.47138 0.0
H844 H 0.18318 0.57418 0.49037 0.0
H845 H 0.18334 0.52488 0.42855 0.0
S846 S 0.18295 0.4211 0.58453 0.0
N847 N 0.18313 0.4707 0.59566 0.0
N848 N 0.18322 0.41733 0.52877 0.0
C849 C 0.1835 0.45758 0.51676 0.0
C850 C 0.18373 0.48655 0.55308 0.0
C851 C 0.49074 0.82189 0.46424 0.0
C852 C 0.53318 0.82186 0.47295 0.0
C853 C 0.46213 0.82222 0.4997 0.0
C854 C 0.47476 0.82175 0.54532 0.0
H855 H 0.47945 0.82356 0.42977 0.0
H856 H 0.42983 0.82368 0.49126 0.0
S857 S 0.58243 0.81807 0.5863 0.0
N858 N 0.58645 0.81892 0.53057 0.0
N859 N 0.53278 0.81895 0.59716 0.0
C860 C 0.51711 0.81969 0.55449 0.0
C861 C 0.54626 0.81995 0.51835 0.0
C862 C 0.82121 0.54144 0.51094 0.0
C863 C 0.8208 0.52906 0.46525 0.0
C864 C 0.82098 0.51265 0.54626 0.0
C865 C 0.82111 0.47025 0.53733 0.0
H866 H 0.8226 0.5737 0.51957 0.0
H867 H 0.82261 0.52378 0.58079 0.0
S868 S 0.8175 0.4216 0.42366 0.0
N869 N 0.81819 0.47131 0.41309 0.0
N870 N 0.81835 0.41729 0.47938 0.0
C871 C 0.81923 0.45742 0.49183 0.0
C872 C 0.81887 0.48675 0.45585 0.0
C873 C 0.46205 0.18225 0.51303 0.0
C874 C 0.47464 0.18229 0.46739 0.0
C875 C 0.4907 0.18223 0.54854 0.0
C876 C 0.53314 0.18148 0.53987 0.0
H877 H 0.42974 0.18136 0.52148 0.0
H878 H 0.4794 0.18098 0.58302 0.0
S879 S 0.58237 0.18378 0.42647 0.0
N880 N 0.53271 0.18374 0.4156 0.0
N881 N 0.58639 0.18318 0.48221 0.0
C882 C 0.54619 0.18292 0.49443 0.0
C883 C 0.51703 0.18352 0.45827 0.0
C884 C 0.68569 0.04168 0.99695 0.0
C885 C 0.68494 0.02903 0.04255 0.0
C886 C 0.68623 0.01308 0.96146 0.0
C887 C 0.68527 0.97064 0.97013 0.0
H888 H 0.68487 0.07401 0.98852 0.0
H889 H 0.68542 0.02442 0.92698 0.0
S890 S 0.68587 0.92136 0.08354 0.0
N891 N 0.68567 0.97101 0.0944 0.0
N892 N 0.68615 0.91735 0.0278 0.0
C893 C 0.68612 0.95754 0.01558 0.0
C894 C 0.68615 0.98668 0.05173 0.0
C895 C 0.04109 0.31939 0.01298 0.0
C896 C 0.02862 0.31951 0.9673 0.0
C897 C 0.01236 0.31969 0.04832 0.0
C898 C 0.96996 0.3209 0.03943 0.0
H899 H 0.07339 0.32004 0.02156 0.0
H900 H 0.02357 0.32089 0.08284 0.0
S901 S 0.92108 0.31895 0.92581 0.0
N902 N 0.97078 0.31853 0.91519 0.0
N903 N 0.91686 0.3196 0.98153 0.0
C904 C 0.95702 0.31948 0.99394 0.0
C905 C 0.98628 0.31859 0.95794 0.0
C906 C 0.32041 0.04251 0.01384 0.0
C907 C 0.32007 0.02961 0.96831 0.0
C908 C 0.31994 0.01411 0.04954 0.0
C909 C 0.31991 0.97163 0.04114 0.0
H910 H 0.32201 0.07485 0.02204 0.0
H911 H 0.3216 0.02558 0.08393 0.0
S912 S 0.31609 0.92172 0.92818 0.0
N913 N 0.31712 0.97129 0.91692 0.0
N914 N 0.31686 0.91803 0.98395 0.0
C915 C 0.31798 0.9583 0.99584 0.0
C916 C 0.31784 0.98722 0.95947 0.0
C917 C 0.01432 0.68289 0.96249 0.0
C918 C 0.97179 0.68264 0.97071 0.0
C919 C 0.04263 0.68265 0.9983 0.0
C920 C 0.02961 0.68296 0.04377 0.0
H921 H 0.02592 0.68134 0.92815 0.0
H922 H 0.07501 0.68135 0.99023 0.0
S923 S 0.92157 0.68594 0.08354 0.0
N924 N 0.91803 0.68514 0.02775 0.0
N925 N 0.97113 0.68537 0.09495 0.0
C926 C 0.98717 0.68479 0.05245 0.0
C927 C 0.95833 0.6844 0.01598 0.0
loop_
_geom_bond_atom_site_label_1
_geom_bond_atom_site_label_2
_geom_bond_distance
_geom_bond_site_symmetry_2
_ccdc_geom_bond_type
Mn0 O5 2.095 . S
Mn0 O15 2.162 . S
Mn0 O16 2.297 . S
Mn0 O24 2.385 . S
Mn0 O25 2.209 . S
Mn0 O26 2.094 . S
Mn1 O6 2.121 . S
Mn1 N8 2.257 . S
Mn1 N17 2.282 . S
Mn1 O25 2.215 . S
Mn1 O27 2.117 . S
C2 O24 1.234 . S
C2 O25 1.283 . S
C3 O15 1.281 . S
C3 O16 1.236 . S
C4 O26 1.240 . S
C4 O27 1.264 . S
O5 Mn0 2.095 . S
O5 C14 1.250 . S
O6 Mn1 2.121 . S
O6 C14 1.258 . S
C7 N8 1.326 . S
C7 C11 1.460 . S
C7 H13 0.929 . S
N8 Mn1 2.257 . S
N8 C7 1.326 . S
N8 C12 1.362 . S
C9 C10 1.258 . S
C9 C12 1.431 . S
C9 C29 1.449 . S
C10 C9 1.258 . S
C10 C11 1.477 . S
C10 H30 0.931 . S
C11 C7 1.460 . S
C11 C10 1.477 . S
C11 H31 0.930 . S
C12 N8 1.362 . S
C12 C9 1.431 . S
C12 C22 1.476 . S
H13 C7 0.929 . S
C14 O5 1.250 . S
C14 O6 1.258 . S
O15 Mn0 2.162 . S
O15 C3 1.281 . S
O16 Mn0 2.297 . S
O16 C3 1.236 . S
N17 Mn1 2.282 . S
N17 C18 1.328 . S
N17 C22 1.318 . S
C18 N17 1.328 . S
C18 C19 1.457 . S
C18 H23 0.929 . S
C19 C18 1.457 . S
C19 C20 1.291 . S
C19 H32 0.931 . S
C20 C19 1.291 . S
C20 C21 1.373 . S
C20 H33 0.929 . S
C21 C20 1.373 . S
C21 C22 1.396 . S
C21 C28 1.403 . S
C22 C12 1.476 . S
C22 N17 1.318 . S
C22 C21 1.396 . S
H23 C18 0.929 . S
O24 Mn0 2.385 . S
O24 C2 1.234 . S
O25 Mn0 2.209 . S
O25 Mn1 2.215 . S
O25 C2 1.283 . S
O26 Mn0 2.094 . S
O26 C4 1.240 . S
O27 Mn1 2.117 . S
O27 C4 1.264 . S
C28 C21 1.403 . S
C28 C29 1.399 . S
C28 H34 0.929 . S
C29 C9 1.449 . S
C29 C28 1.399 . S
C29 H35 0.930 . S
H30 C10 0.931 . S
H31 C11 0.930 . S
H32 C19 0.931 . S
H33 C20 0.929 . S
H34 C28 0.929 . S
H35 C29 0.930 . S
Mn36 O41 2.095 . S
Mn36 O51 2.162 . S
Mn36 O52 2.297 . S
Mn36 O60 2.385 . S
Mn36 O61 2.209 . S
Mn36 O62 2.094 . S
Mn37 O42 2.121 . S
Mn37 N44 2.257 . S
Mn37 N53 2.282 . S
Mn37 O61 2.215 . S
Mn37 O63 2.117 . S
C38 O60 1.234 . S
C38 O61 1.283 . S
C39 O51 1.281 . S
C39 O52 1.236 . S
C40 O62 1.240 . S
C40 O63 1.264 . S
O41 Mn36 2.095 . S
O41 C50 1.250 . S
O42 Mn37 2.121 . S
O42 C50 1.258 . S
C43 N44 1.326 . S
C43 C47 1.460 . S
C43 H49 0.929 . S
N44 Mn37 2.257 . S
N44 C43 1.326 . S
N44 C48 1.362 . S
C45 C46 1.258 . S
C45 C48 1.431 . S
C45 C65 1.449 . S
C46 C45 1.258 . S
C46 C47 1.477 . S
C46 H66 0.931 . S
C47 C43 1.460 . S
C47 C46 1.477 . S
C47 H67 0.930 . S
C48 N44 1.362 . S
C48 C45 1.431 . S
C48 C58 1.476 . S
H49 C43 0.929 . S
C50 O41 1.250 . S
C50 O42 1.258 . S
O51 Mn36 2.162 . S
O51 C39 1.281 . S
O52 Mn36 2.297 . S
O52 C39 1.236 . S
N53 Mn37 2.282 . S
N53 C54 1.328 . S
N53 C58 1.318 . S
C54 N53 1.328 . S
C54 C55 1.457 . S
C54 H59 0.929 . S
C55 C54 1.457 . S
C55 C56 1.291 . S
C55 H68 0.931 . S
C56 C55 1.291 . S
C56 C57 1.373 . S
C56 H69 0.929 . S
C57 C56 1.373 . S
C57 C58 1.396 . S
C57 C64 1.403 . S
C58 C48 1.476 . S
C58 N53 1.318 . S
C58 C57 1.396 . S
H59 C54 0.929 . S
O60 Mn36 2.385 . S
O60 C38 1.234 . S
O61 Mn36 2.209 . S
O61 Mn37 2.215 . S
O61 C38 1.283 . S
O62 Mn36 2.094 . S
O62 C40 1.240 . S
O63 Mn37 2.117 . S
O63 C40 1.264 . S
C64 C57 1.403 . S
C64 C65 1.399 . S
C64 H70 0.929 . S
C65 C45 1.449 . S
C65 C64 1.399 . S
C65 H71 0.930 . S
H66 C46 0.931 . S
H67 C47 0.930 . S
H68 C55 0.931 . S
H69 C56 0.929 . S
H70 C64 0.929 . S
H71 C65 0.930 . S
Mn72 O77 2.095 . S
Mn72 O87 2.162 . S
Mn72 O88 2.297 . S
Mn72 O96 2.385 . S
Mn72 O97 2.209 . S
Mn72 O98 2.094 . S
Mn73 O78 2.121 . S
Mn73 N80 2.257 . S
Mn73 N89 2.282 . S
Mn73 O97 2.215 . S
Mn73 O99 2.117 . S
C74 O96 1.234 . S
C74 O97 1.283 . S
C75 O87 1.281 . S
C75 O88 1.236 . S
C76 O98 1.240 . S
C76 O99 1.264 . S
O77 Mn72 2.095 . S
O77 C86 1.250 . S
O78 Mn73 2.121 . S
O78 C86 1.258 . S
C79 N80 1.326 . S
C79 C83 1.460 . S
C79 H85 0.929 . S
N80 Mn73 2.257 . S
N80 C79 1.326 . S
N80 C84 1.362 . S
C81 C82 1.258 . S
C81 C84 1.431 . S
C81 C101 1.449 . S
C82 C81 1.258 . S
C82 C83 1.477 . S
C82 H102 0.931 . S
C83 C79 1.460 . S
C83 C82 1.477 . S
C83 H103 0.930 . S
C84 N80 1.362 . S
C84 C81 1.431 . S
C84 C94 1.476 . S
H85 C79 0.929 . S
C86 O77 1.250 . S
C86 O78 1.258 . S
O87 Mn72 2.162 . S
O87 C75 1.281 . S
O88 Mn72 2.297 . S
O88 C75 1.236 . S
N89 Mn73 2.282 . S
N89 C90 1.328 . S
N89 C94 1.318 . S
C90 N89 1.328 . S
C90 C91 1.457 . S
C90 H95 0.929 . S
C91 C90 1.457 . S
C91 C92 1.291 . S
C91 H104 0.931 . S
C92 C91 1.291 . S
C92 C93 1.373 . S
C92 H105 0.929 . S
C93 C92 1.373 . S
C93 C94 1.396 . S
C93 C100 1.403 . S
C94 C84 1.476 . S
C94 N89 1.318 . S
C94 C93 1.396 . S
H95 C90 0.929 . S
O96 Mn72 2.385 . S
O96 C74 1.234 . S
O97 Mn72 2.209 . S
O97 Mn73 2.215 . S
O97 C74 1.283 . S
O98 Mn72 2.094 . S
O98 C76 1.240 . S
O99 Mn73 2.117 . S
O99 C76 1.264 . S
C100 C93 1.403 . S
C100 C101 1.399 . S
C100 H106 0.929 . S
C101 C81 1.449 . S
C101 C100 1.399 . S
C101 H107 0.930 . S
H102 C82 0.931 . S
H103 C83 0.930 . S
H104 C91 0.931 . S
H105 C92 0.929 . S
H106 C100 0.929 . S
H107 C101 0.930 . S
Mn108 O113 2.095 . S
Mn108 O123 2.162 . S
Mn108 O124 2.297 . S
Mn108 O132 2.385 . S
Mn108 O133 2.209 . S
Mn108 O134 2.094 . S
Mn109 O114 2.121 . S
Mn109 N116 2.257 . S
Mn109 N125 2.282 . S
Mn109 O133 2.215 . S
Mn109 O135 2.117 . S
C110 O132 1.234 . S
C110 O133 1.283 . S
C111 O123 1.281 . S
C111 O124 1.236 . S
C112 O134 1.240 . S
C112 O135 1.264 . S
O113 Mn108 2.095 . S
O113 C122 1.250 . S
O114 Mn109 2.121 . S
O114 C122 1.258 . S
C115 N116 1.326 . S
C115 C119 1.460 . S
C115 H121 0.929 . S
N116 Mn109 2.257 . S
N116 C115 1.326 . S
N116 C120 1.362 . S
C117 C118 1.258 . S
C117 C120 1.431 . S
C117 C137 1.449 . S
C118 C117 1.258 . S
C118 C119 1.477 . S
C118 H138 0.931 . S
C119 C115 1.460 . S
C119 C118 1.477 . S
C119 H139 0.930 . S
C120 N116 1.362 . S
C120 C117 1.431 . S
C120 C130 1.476 . S
H121 C115 0.929 . S
C122 O113 1.250 . S
C122 O114 1.258 . S
O123 Mn108 2.162 . S
O123 C111 1.281 . S
O124 Mn108 2.297 . S
O124 C111 1.236 . S
N125 Mn109 2.282 . S
N125 C126 1.328 . S
N125 C130 1.318 . S
C126 N125 1.328 . S
C126 C127 1.457 . S
C126 H131 0.929 . S
C127 C126 1.457 . S
C127 C128 1.291 . S
C127 H140 0.931 . S
C128 C127 1.291 . S
C128 C129 1.373 . S
C128 H141 0.929 . S
C129 C128 1.373 . S
C129 C130 1.396 . S
C129 C136 1.403 . S
C130 C120 1.476 . S
C130 N125 1.318 . S
C130 C129 1.396 . S
H131 C126 0.929 . S
O132 Mn108 2.385 . S
O132 C110 1.234 . S
O133 Mn108 2.209 . S
O133 Mn109 2.215 . S
O133 C110 1.283 . S
O134 Mn108 2.094 . S
O134 C112 1.240 . S
O135 Mn109 2.117 . S
O135 C112 1.264 . S
C136 C129 1.403 . S
C136 C137 1.399 . S
C136 H142 0.929 . S
C137 C117 1.449 . S
C137 C136 1.399 . S
C137 H143 0.930 . S
H138 C118 0.931 . S
H139 C119 0.930 . S
H140 C127 0.931 . S
H141 C128 0.929 . S
H142 C136 0.929 . S
H143 C137 0.930 . S
Mn144 O149 2.095 . S
Mn144 O159 2.162 . S
Mn144 O160 2.297 . S
Mn144 O168 2.385 . S
Mn144 O169 2.209 . S
Mn144 O170 2.094 . S
Mn145 O150 2.121 . S
Mn145 N152 2.257 . S
Mn145 N161 2.282 . S
Mn145 O169 2.215 . S
Mn145 O171 2.117 . S
C146 O168 1.234 . S
C146 O169 1.283 . S
C147 O159 1.281 . S
C147 O160 1.236 . S
C148 O170 1.240 . S
C148 O171 1.264 . S
O149 Mn144 2.095 . S
O149 C158 1.250 . S
O150 Mn145 2.121 . S
O150 C158 1.258 . S
C151 N152 1.326 . S
C151 C155 1.460 . S
C151 H157 0.929 . S
N152 Mn145 2.257 . S
N152 C151 1.326 . S
N152 C156 1.362 . S
C153 C154 1.258 . S
C153 C156 1.431 . S
C153 C173 1.449 . S
C154 C153 1.258 . S
C154 C155 1.477 . S
C154 H174 0.931 . S
C155 C151 1.460 . S
C155 C154 1.477 . S
C155 H175 0.930 . S
C156 N152 1.362 . S
C156 C153 1.431 . S
C156 C166 1.476 . S
H157 C151 0.929 . S
C158 O149 1.250 . S
C158 O150 1.258 . S
O159 Mn144 2.162 . S
O159 C147 1.281 . S
O160 Mn144 2.297 . S
O160 C147 1.236 . S
N161 Mn145 2.282 . S
N161 C162 1.328 . S
N161 C166 1.318 . S
C162 N161 1.328 . S
C162 C163 1.457 . S
C162 H167 0.929 . S
C163 C162 1.457 . S
C163 C164 1.291 . S
C163 H176 0.931 . S
C164 C163 1.291 . S
C164 C165 1.373 . S
C164 H177 0.929 . S
C165 C164 1.373 . S
C165 C166 1.396 . S
C165 C172 1.403 . S
C166 C156 1.476 . S
C166 N161 1.318 . S
C166 C165 1.396 . S
H167 C162 0.929 . S
O168 Mn144 2.385 . S
O168 C146 1.234 . S
O169 Mn144 2.209 . S
O169 Mn145 2.215 . S
O169 C146 1.283 . S
O170 Mn144 2.094 . S
O170 C148 1.240 . S
O171 Mn145 2.117 . S
O171 C148 1.264 . S
C172 C165 1.403 . S
C172 C173 1.399 . S
C172 H178 0.929 . S
C173 C153 1.449 . S
C173 C172 1.399 . S
C173 H179 0.930 . S
H174 C154 0.931 . S
H175 C155 0.930 . S
H176 C163 0.931 . S
H177 C164 0.929 . S
H178 C172 0.929 . S
H179 C173 0.930 . S
Mn180 O185 2.095 . S
Mn180 O195 2.162 . S
Mn180 O196 2.297 . S
Mn180 O204 2.385 . S
Mn180 O205 2.209 . S
Mn180 O206 2.094 . S
Mn181 O186 2.121 . S
Mn181 N188 2.257 . S
Mn181 N197 2.282 . S
Mn181 O205 2.215 . S
Mn181 O207 2.117 . S
C182 O204 1.234 . S
C182 O205 1.283 . S
C183 O195 1.281 . S
C183 O196 1.236 . S
C184 O206 1.240 . S
C184 O207 1.264 . S
O185 Mn180 2.095 . S
O185 C194 1.250 . S
O186 Mn181 2.121 . S
O186 C194 1.258 . S
C187 N188 1.326 . S
C187 C191 1.460 . S
C187 H193 0.929 . S
N188 Mn181 2.257 . S
N188 C187 1.326 . S
N188 C192 1.362 . S
C189 C190 1.258 . S
C189 C192 1.431 . S
C189 C209 1.449 . S
C190 C189 1.258 . S
C190 C191 1.477 . S
C190 H210 0.931 . S
C191 C187 1.460 . S
C191 C190 1.477 . S
C191 H211 0.930 . S
C192 N188 1.362 . S
C192 C189 1.431 . S
C192 C202 1.476 . S
H193 C187 0.929 . S
C194 O185 1.250 . S
C194 O186 1.258 . S
O195 Mn180 2.162 . S
O195 C183 1.281 . S
O196 Mn180 2.297 . S
O196 C183 1.236 . S
N197 Mn181 2.282 . S
N197 C198 1.328 . S
N197 C202 1.318 . S
C198 N197 1.328 . S
C198 C199 1.457 . S
C198 H203 0.929 . S
C199 C198 1.457 . S
C199 C200 1.291 . S
C199 H212 0.931 . S
C200 C199 1.291 . S
C200 C201 1.373 . S
C200 H213 0.929 . S
C201 C200 1.373 . S
C201 C202 1.396 . S
C201 C208 1.403 . S
C202 C192 1.476 . S
C202 N197 1.318 . S
C202 C201 1.396 . S
H203 C198 0.929 . S
O204 Mn180 2.385 . S
O204 C182 1.234 . S
O205 Mn180 2.209 . S
O205 Mn181 2.215 . S
O205 C182 1.283 . S
O206 Mn180 2.094 . S
O206 C184 1.240 . S
O207 Mn181 2.117 . S
O207 C184 1.264 . S
C208 C201 1.403 . S
C208 C209 1.399 . S
C208 H214 0.929 . S
C209 C189 1.449 . S
C209 C208 1.399 . S
C209 H215 0.930 . S
H210 C190 0.931 . S
H211 C191 0.930 . S
H212 C199 0.931 . S
H213 C200 0.929 . S
H214 C208 0.929 . S
H215 C209 0.930 . S
Mn216 O221 2.095 . S
Mn216 O231 2.162 . S
Mn216 O232 2.297 . S
Mn216 O240 2.385 . S
Mn216 O241 2.209 . S
Mn216 O242 2.094 . S
Mn217 O222 2.121 . S
Mn217 N224 2.257 . S
Mn217 N233 2.282 . S
Mn217 O241 2.215 . S
Mn217 O243 2.117 . S
C218 O240 1.234 . S
C218 O241 1.283 . S
C219 O231 1.281 . S
C219 O232 1.236 . S
C220 O242 1.240 . S
C220 O243 1.264 . S
O221 Mn216 2.095 . S
O221 C230 1.250 . S
O222 Mn217 2.121 . S
O222 C230 1.258 . S
C223 N224 1.326 . S
C223 C227 1.460 . S
C223 H229 0.929 . S
N224 Mn217 2.257 . S
N224 C223 1.326 . S
N224 C228 1.362 . S
C225 C226 1.258 . S
C225 C228 1.431 . S
C225 C245 1.449 . S
C226 C225 1.258 . S
C226 C227 1.477 . S
C226 H246 0.931 . S
C227 C223 1.460 . S
C227 C226 1.477 . S
C227 H247 0.930 . S
C228 N224 1.362 . S
C228 C225 1.431 . S
C228 C238 1.476 . S
H229 C223 0.929 . S
C230 O221 1.250 . S
C230 O222 1.258 . S
O231 Mn216 2.162 . S
O231 C219 1.281 . S
O232 Mn216 2.297 . S
O232 C219 1.236 . S
N233 Mn217 2.282 . S
N233 C234 1.328 . S
N233 C238 1.318 . S
C234 N233 1.328 . S
C234 C235 1.457 . S
C234 H239 0.929 . S
C235 C234 1.457 . S
C235 C236 1.291 . S
C235 H248 0.931 . S
C236 C235 1.291 . S
C236 C237 1.373 . S
C236 H249 0.929 . S
C237 C236 1.373 . S
C237 C238 1.396 . S
C237 C244 1.403 . S
C238 C228 1.476 . S
C238 N233 1.318 . S
C238 C237 1.396 . S
H239 C234 0.929 . S
O240 Mn216 2.385 . S
O240 C218 1.234 . S
O241 Mn216 2.209 . S
O241 Mn217 2.215 . S
O241 C218 1.283 . S
O242 Mn216 2.094 . S
O242 C220 1.240 . S
O243 Mn217 2.117 . S
O243 C220 1.264 . S
C244 C237 1.403 . S
C244 C245 1.399 . S
C244 H250 0.929 . S
C245 C225 1.449 . S
C245 C244 1.399 . S
C245 H251 0.930 . S
H246 C226 0.931 . S
H247 C227 0.930 . S
H248 C235 0.931 . S
H249 C236 0.929 . S
H250 C244 0.929 . S
H251 C245 0.930 . S
Mn252 O257 2.095 . S
Mn252 O267 2.162 . S
Mn252 O268 2.297 . S
Mn252 O276 2.385 . S
Mn252 O277 2.209 . S
Mn252 O278 2.094 . S
Mn253 O258 2.121 . S
Mn253 N260 2.257 . S
Mn253 N269 2.282 . S
Mn253 O277 2.215 . S
Mn253 O279 2.117 . S
C254 O276 1.234 . S
C254 O277 1.283 . S
C255 O267 1.281 . S
C255 O268 1.236 . S
C256 O278 1.240 . S
C256 O279 1.264 . S
O257 Mn252 2.095 . S
O257 C266 1.250 . S
O258 Mn253 2.121 . S
O258 C266 1.258 . S
C259 N260 1.326 . S
C259 C263 1.460 . S
C259 H265 0.929 . S
N260 Mn253 2.257 . S
N260 C259 1.326 . S
N260 C264 1.362 . S
C261 C262 1.258 . S
C261 C264 1.431 . S
C261 C281 1.449 . S
C262 C261 1.258 . S
C262 C263 1.477 . S
C262 H282 0.931 . S
C263 C259 1.460 . S
C263 C262 1.477 . S
C263 H283 0.930 . S
C264 N260 1.362 . S
C264 C261 1.431 . S
C264 C274 1.476 . S
H265 C259 0.929 . S
C266 O257 1.250 . S
C266 O258 1.258 . S
O267 Mn252 2.162 . S
O267 C255 1.281 . S
O268 Mn252 2.297 . S
O268 C255 1.236 . S
N269 Mn253 2.282 . S
N269 C270 1.328 . S
N269 C274 1.318 . S
C270 N269 1.328 . S
C270 C271 1.457 . S
C270 H275 0.929 . S
C271 C270 1.457 . S
C271 C272 1.291 . S
C271 H284 0.931 . S
C272 C271 1.291 . S
C272 C273 1.373 . S
C272 H285 0.929 . S
C273 C272 1.373 . S
C273 C274 1.396 . S
C273 C280 1.403 . S
C274 C264 1.476 . S
C274 N269 1.318 . S
C274 C273 1.396 . S
H275 C270 0.929 . S
O276 Mn252 2.385 . S
O276 C254 1.234 . S
O277 Mn252 2.209 . S
O277 Mn253 2.215 . S
O277 C254 1.283 . S
O278 Mn252 2.094 . S
O278 C256 1.240 . S
O279 Mn253 2.117 . S
O279 C256 1.264 . S
C280 C273 1.403 . S
C280 C281 1.399 . S
C280 H286 0.929 . S
C281 C261 1.449 . S
C281 C280 1.399 . S
C281 H287 0.930 . S
H282 C262 0.931 . S
H283 C263 0.930 . S
H284 C271 0.931 . S
H285 C272 0.929 . S
H286 C280 0.929 . S
H287 C281 0.930 . S
Mn288 O293 2.095 . S
Mn288 O303 2.162 1_565 S
Mn288 O304 2.297 1_565 S
Mn288 O312 2.385 . S
Mn288 O313 2.209 . S
Mn288 O314 2.094 . S
Mn289 O294 2.121 . S
Mn289 N296 2.257 . S
Mn289 N305 2.282 . S
Mn289 O313 2.215 . S
Mn289 O315 2.117 . S
C290 O312 1.234 . S
C290 O313 1.283 . S
C291 O303 1.281 . S
C291 O304 1.236 . S
C292 O314 1.240 . S
C292 O315 1.264 . S
O293 Mn288 2.095 . S
O293 C302 1.250 . S
O294 Mn289 2.121 . S
O294 C302 1.258 . S
C295 N296 1.326 . S
C295 C299 1.460 . S
C295 H301 0.929 . S
N296 Mn289 2.257 . S
N296 C295 1.326 . S
N296 C300 1.362 . S
C297 C298 1.258 . S
C297 C300 1.431 . S
C297 C317 1.449 . S
C298 C297 1.258 . S
C298 C299 1.477 . S
C298 H318 0.931 . S
C299 C295 1.460 . S
C299 C298 1.477 . S
C299 H319 0.930 . S
C300 N296 1.362 . S
C300 C297 1.431 . S
C300 C310 1.476 . S
H301 C295 0.929 . S
C302 O293 1.250 . S
C302 O294 1.258 . S
O303 Mn288 2.162 1_545 S
O303 C291 1.281 . S
O304 Mn288 2.297 1_545 S
O304 C291 1.236 . S
N305 Mn289 2.282 . S
N305 C306 1.328 . S
N305 C310 1.318 . S
C306 N305 1.328 . S
C306 C307 1.457 . S
C306 H311 0.929 . S
C307 C306 1.457 . S
C307 C308 1.291 . S
C307 H320 0.931 . S
C308 C307 1.291 . S
C308 C309 1.373 . S
C308 H321 0.929 . S
C309 C308 1.373 . S
C309 C310 1.396 . S
C309 C316 1.403 . S
C310 C300 1.476 . S
C310 N305 1.318 . S
C310 C309 1.396 . S
H311 C306 0.929 . S
O312 Mn288 2.385 . S
O312 C290 1.234 . S
O313 Mn288 2.209 . S
O313 Mn289 2.215 . S
O313 C290 1.283 . S
O314 Mn288 2.094 . S
O314 C292 1.240 . S
O315 Mn289 2.117 . S
O315 C292 1.264 . S
C316 C309 1.403 . S
C316 C317 1.399 . S
C316 H322 0.929 . S
C317 C297 1.449 . S
C317 C316 1.399 . S
C317 H323 0.930 . S
H318 C298 0.931 . S
H319 C299 0.930 . S
H320 C307 0.931 . S
H321 C308 0.929 . S
H322 C316 0.929 . S
H323 C317 0.930 . S
Mn324 O329 2.095 . S
Mn324 O339 2.162 1_655 S
Mn324 O340 2.297 1_655 S
Mn324 O348 2.385 . S
Mn324 O349 2.209 . S
Mn324 O350 2.094 . S
Mn325 O330 2.121 . S
Mn325 N332 2.257 . S
Mn325 N341 2.282 . S
Mn325 O349 2.215 . S
Mn325 O351 2.117 . S
C326 O348 1.234 . S
C326 O349 1.283 . S
C327 O339 1.281 . S
C327 O340 1.236 . S
C328 O350 1.240 . S
C328 O351 1.264 . S
O329 Mn324 2.095 . S
O329 C338 1.250 . S
O330 Mn325 2.121 . S
O330 C338 1.258 . S
C331 N332 1.326 . S
C331 C335 1.460 . S
C331 H337 0.929 . S
N332 Mn325 2.257 . S
N332 C331 1.326 . S
N332 C336 1.362 . S
C333 C334 1.258 . S
C333 C336 1.431 . S
C333 C353 1.449 . S
C334 C333 1.258 . S
C334 C335 1.477 . S
C334 H354 0.931 . S
C335 C331 1.460 . S
C335 C334 1.477 . S
C335 H355 0.930 . S
C336 N332 1.362 . S
C336 C333 1.431 . S
C336 C346 1.476 . S
H337 C331 0.929 . S
C338 O329 1.250 . S
C338 O330 1.258 . S
O339 Mn324 2.162 1_455 S
O339 C327 1.281 . S
O340 Mn324 2.297 1_455 S
O340 C327 1.236 . S
N341 Mn325 2.282 . S
N341 C342 1.328 . S
N341 C346 1.318 . S
C342 N341 1.328 . S
C342 C343 1.457 . S
C342 H347 0.929 . S
C343 C342 1.457 . S
C343 C344 1.291 . S
C343 H356 0.931 . S
C344 C343 1.291 . S
C344 C345 1.373 . S
C344 H357 0.929 . S
C345 C344 1.373 . S
C345 C346 1.396 . S
C345 C352 1.403 . S
C346 C336 1.476 . S
C346 N341 1.318 . S
C346 C345 1.396 . S
H347 C342 0.929 . S
O348 Mn324 2.385 . S
O348 C326 1.234 . S
O349 Mn324 2.209 . S
O349 Mn325 2.215 . S
O349 C326 1.283 . S
O350 Mn324 2.094 . S
O350 C328 1.240 . S
O351 Mn325 2.117 . S
O351 C328 1.264 . S
C352 C345 1.403 . S
C352 C353 1.399 . S
C352 H358 0.929 . S
C353 C333 1.449 . S
C353 C352 1.399 . S
C353 H359 0.930 . S
H354 C334 0.931 . S
H355 C335 0.930 . S
H356 C343 0.931 . S
H357 C344 0.929 . S
H358 C352 0.929 . S
H359 C353 0.930 . S
Mn360 O365 2.095 . S
Mn360 O375 2.162 1_545 S
Mn360 O376 2.297 1_545 S
Mn360 O384 2.385 . S
Mn360 O385 2.209 . S
Mn360 O386 2.094 . S
Mn361 O366 2.121 . S
Mn361 N368 2.257 . S
Mn361 N377 2.282 . S
Mn361 O385 2.215 . S
Mn361 O387 2.117 . S
C362 O384 1.234 . S
C362 O385 1.283 . S
C363 O375 1.281 . S
C363 O376 1.236 . S
C364 O386 1.240 . S
C364 O387 1.264 . S
O365 Mn360 2.095 . S
O365 C374 1.250 . S
O366 Mn361 2.121 . S
O366 C374 1.258 . S
C367 N368 1.326 . S
C367 C371 1.460 . S
C367 H373 0.929 . S
N368 Mn361 2.257 . S
N368 C367 1.326 . S
N368 C372 1.362 . S
C369 C370 1.258 . S
C369 C372 1.431 . S
C369 C389 1.449 . S
C370 C369 1.258 . S
C370 C371 1.477 . S
C370 H390 0.931 . S
C371 C367 1.460 . S
C371 C370 1.477 . S
C371 H391 0.930 . S
C372 N368 1.362 . S
C372 C369 1.431 . S
C372 C382 1.476 . S
H373 C367 0.929 . S
C374 O365 1.250 . S
C374 O366 1.258 . S
O375 Mn360 2.162 1_565 S
O375 C363 1.281 . S
O376 Mn360 2.297 1_565 S
O376 C363 1.236 . S
N377 Mn361 2.282 . S
N377 C378 1.328 . S
N377 C382 1.318 . S
C378 N377 1.328 . S
C378 C379 1.457 . S
C378 H383 0.929 . S
C379 C378 1.457 . S
C379 C380 1.291 . S
C379 H392 0.931 . S
C380 C379 1.291 . S
C380 C381 1.373 . S
C380 H393 0.929 . S
C381 C380 1.373 . S
C381 C382 1.396 . S
C381 C388 1.403 . S
C382 C372 1.476 . S
C382 N377 1.318 . S
C382 C381 1.396 . S
H383 C378 0.929 . S
O384 Mn360 2.385 . S
O384 C362 1.234 . S
O385 Mn360 2.209 . S
O385 Mn361 2.215 . S
O385 C362 1.283 . S
O386 Mn360 2.094 . S
O386 C364 1.240 . S
O387 Mn361 2.117 . S
O387 C364 1.264 . S
C388 C381 1.403 . S
C388 C389 1.399 . S
C388 H394 0.929 . S
C389 C369 1.449 . S
C389 C388 1.399 . S
C389 H395 0.930 . S
H390 C370 0.931 . S
H391 C371 0.930 . S
H392 C379 0.931 . S
H393 C380 0.929 . S
H394 C388 0.929 . S
H395 C389 0.930 . S
Mn396 O401 2.095 . S
Mn396 O411 2.162 1_455 S
Mn396 O412 2.297 1_455 S
Mn396 O420 2.385 . S
Mn396 O421 2.209 . S
Mn396 O422 2.094 . S
Mn397 O402 2.121 . S
Mn397 N404 2.257 . S
Mn397 N413 2.282 . S
Mn397 O421 2.215 . S
Mn397 O423 2.117 . S
C398 O420 1.234 . S
C398 O421 1.283 . S
C399 O411 1.281 . S
C399 O412 1.236 . S
C400 O422 1.240 . S
C400 O423 1.264 . S
O401 Mn396 2.095 . S
O401 C410 1.250 . S
O402 Mn397 2.121 . S
O402 C410 1.258 . S
C403 N404 1.326 . S
C403 C407 1.460 . S
C403 H409 0.929 . S
N404 Mn397 2.257 . S
N404 C403 1.326 . S
N404 C408 1.362 . S
C405 C406 1.258 . S
C405 C408 1.431 . S
C405 C425 1.449 . S
C406 C405 1.258 . S
C406 C407 1.477 . S
C406 H426 0.931 . S
C407 C403 1.460 . S
C407 C406 1.477 . S
C407 H427 0.930 . S
C408 N404 1.362 . S
C408 C405 1.431 . S
C408 C418 1.476 . S
H409 C403 0.929 . S
C410 O401 1.250 . S
C410 O402 1.258 . S
O411 Mn396 2.162 1_655 S
O411 C399 1.281 . S
O412 Mn396 2.297 1_655 S
O412 C399 1.236 . S
N413 Mn397 2.282 . S
N413 C414 1.328 . S
N413 C418 1.318 . S
C414 N413 1.328 . S
C414 C415 1.457 . S
C414 H419 0.929 . S
C415 C414 1.457 . S
C415 C416 1.291 . S
C415 H428 0.931 . S
C416 C415 1.291 . S
C416 C417 1.373 . S
C416 H429 0.929 . S
C417 C416 1.373 . S
C417 C418 1.396 . S
C417 C424 1.403 . S
C418 C408 1.476 . S
C418 N413 1.318 . S
C418 C417 1.396 . S
H419 C414 0.929 . S
O420 Mn396 2.385 . S
O420 C398 1.234 . S
O421 Mn396 2.209 . S
O421 Mn397 2.215 . S
O421 C398 1.283 . S
O422 Mn396 2.094 . S
O422 C400 1.240 . S
O423 Mn397 2.117 . S
O423 C400 1.264 . S
C424 C417 1.403 . S
C424 C425 1.399 . S
C424 H430 0.929 . S
C425 C405 1.449 . S
C425 C424 1.399 . S
C425 H431 0.930 . S
H426 C406 0.931 . S
H427 C407 0.930 . S
H428 C415 0.931 . S
H429 C416 0.929 . S
H430 C424 0.929 . S
H431 C425 0.930 . S
Mn432 O437 2.095 . S
Mn432 O447 2.162 1_545 S
Mn432 O448 2.297 1_545 S
Mn432 O456 2.385 . S
Mn432 O457 2.209 . S
Mn432 O458 2.094 . S
Mn433 O438 2.121 . S
Mn433 N440 2.257 . S
Mn433 N449 2.282 . S
Mn433 O457 2.215 . S
Mn433 O459 2.117 . S
C434 O456 1.234 . S
C434 O457 1.283 . S
C435 O447 1.281 . S
C435 O448 1.236 . S
C436 O458 1.240 . S
C436 O459 1.264 . S
O437 Mn432 2.095 . S
O437 C446 1.250 . S
O438 Mn433 2.121 . S
O438 C446 1.258 . S
C439 N440 1.326 . S
C439 C443 1.460 . S
C439 H445 0.929 . S
N440 Mn433 2.257 . S
N440 C439 1.326 . S
N440 C444 1.362 . S
C441 C442 1.258 . S
C441 C444 1.431 . S
C441 C461 1.449 . S
C442 C441 1.258 . S
C442 C443 1.477 . S
C442 H462 0.931 . S
C443 C439 1.460 . S
C443 C442 1.477 . S
C443 H463 0.930 . S
C444 N440 1.362 . S
C444 C441 1.431 . S
C444 C454 1.476 . S
H445 C439 0.929 . S
C446 O437 1.250 . S
C446 O438 1.258 . S
O447 Mn432 2.162 1_565 S
O447 C435 1.281 . S
O448 Mn432 2.297 1_565 S
O448 C435 1.236 . S
N449 Mn433 2.282 . S
N449 C450 1.328 . S
N449 C454 1.318 . S
C450 N449 1.328 . S
C450 C451 1.457 . S
C450 H455 0.929 . S
C451 C450 1.457 . S
C451 C452 1.291 . S
C451 H464 0.931 . S
C452 C451 1.291 . S
C452 C453 1.373 . S
C452 H465 0.929 . S
C453 C452 1.373 . S
C453 C454 1.396 . S
C453 C460 1.403 . S
C454 C444 1.476 . S
C454 N449 1.318 . S
C454 C453 1.396 . S
H455 C450 0.929 . S
O456 Mn432 2.385 . S
O456 C434 1.234 . S
O457 Mn432 2.209 . S
O457 Mn433 2.215 . S
O457 C434 1.283 . S
O458 Mn432 2.094 . S
O458 C436 1.240 . S
O459 Mn433 2.117 . S
O459 C436 1.264 . S
C460 C453 1.403 . S
C460 C461 1.399 . S
C460 H466 0.929 . S
C461 C441 1.449 . S
C461 C460 1.399 . S
C461 H467 0.930 . S
H462 C442 0.931 . S
H463 C443 0.930 . S
H464 C451 0.931 . S
H465 C452 0.929 . S
H466 C460 0.929 . S
H467 C461 0.930 . S
Mn468 O473 2.095 . S
Mn468 O483 2.162 1_455 S
Mn468 O484 2.297 1_455 S
Mn468 O492 2.385 . S
Mn468 O493 2.209 . S
Mn468 O494 2.094 . S
Mn469 O474 2.121 . S
Mn469 N476 2.257 . S
Mn469 N485 2.282 . S
Mn469 O493 2.215 . S
Mn469 O495 2.117 . S
C470 O492 1.234 . S
C470 O493 1.283 . S
C471 O483 1.281 . S
C471 O484 1.236 . S
C472 O494 1.240 . S
C472 O495 1.264 . S
O473 Mn468 2.095 . S
O473 C482 1.250 . S
O474 Mn469 2.121 . S
O474 C482 1.258 . S
C475 N476 1.326 . S
C475 C479 1.460 . S
C475 H481 0.929 . S
N476 Mn469 2.257 . S
N476 C475 1.326 . S
N476 C480 1.362 . S
C477 C478 1.258 . S
C477 C480 1.431 . S
C477 C497 1.449 . S
C478 C477 1.258 . S
C478 C479 1.477 . S
C478 H498 0.931 . S
C479 C475 1.460 . S
C479 C478 1.477 . S
C479 H499 0.930 . S
C480 N476 1.362 . S
C480 C477 1.431 . S
C480 C490 1.476 . S
H481 C475 0.929 . S
C482 O473 1.250 . S
C482 O474 1.258 . S
O483 Mn468 2.162 1_655 S
O483 C471 1.281 . S
O484 Mn468 2.297 1_655 S
O484 C471 1.236 . S
N485 Mn469 2.282 . S
N485 C486 1.328 . S
N485 C490 1.318 . S
C486 N485 1.328 . S
C486 C487 1.457 . S
C486 H491 0.929 . S
C487 C486 1.457 . S
C487 C488 1.291 . S
C487 H500 0.931 . S
C488 C487 1.291 . S
C488 C489 1.373 . S
C488 H501 0.929 . S
C489 C488 1.373 . S
C489 C490 1.396 . S
C489 C496 1.403 . S
C490 C480 1.476 . S
C490 N485 1.318 . S
C490 C489 1.396 . S
H491 C486 0.929 . S
O492 Mn468 2.385 . S
O492 C470 1.234 . S
O493 Mn468 2.209 . S
O493 Mn469 2.215 . S
O493 C470 1.283 . S
O494 Mn468 2.094 . S
O494 C472 1.240 . S
O495 Mn469 2.117 . S
O495 C472 1.264 . S
C496 C489 1.403 . S
C496 C497 1.399 . S
C496 H502 0.929 . S
C497 C477 1.449 . S
C497 C496 1.399 . S
C497 H503 0.930 . S
H498 C478 0.931 . S
H499 C479 0.930 . S
H500 C487 0.931 . S
H501 C488 0.929 . S
H502 C496 0.929 . S
H503 C497 0.930 . S
Mn504 O509 2.095 . S
Mn504 O519 2.162 1_565 S
Mn504 O520 2.297 1_565 S
Mn504 O528 2.385 . S
Mn504 O529 2.209 . S
Mn504 O530 2.094 . S
Mn505 O510 2.121 . S
Mn505 N512 2.257 . S
Mn505 N521 2.282 . S
Mn505 O529 2.215 . S
Mn505 O531 2.117 . S
C506 O528 1.234 . S
C506 O529 1.283 . S
C507 O519 1.281 . S
C507 O520 1.236 . S
C508 O530 1.240 . S
C508 O531 1.264 . S
O509 Mn504 2.095 . S
O509 C518 1.250 . S
O510 Mn505 2.121 . S
O510 C518 1.258 . S
C511 N512 1.326 . S
C511 C515 1.460 . S
C511 H517 0.929 . S
N512 Mn505 2.257 . S
N512 C511 1.326 . S
N512 C516 1.362 . S
C513 C514 1.258 . S
C513 C516 1.431 . S
C513 C533 1.449 . S
C514 C513 1.258 . S
C514 C515 1.477 . S
C514 H534 0.931 . S
C515 C511 1.460 . S
C515 C514 1.477 . S
C515 H535 0.930 . S
C516 N512 1.362 . S
C516 C513 1.431 . S
C516 C526 1.476 . S
H517 C511 0.929 . S
C518 O509 1.250 . S
C518 O510 1.258 . S
O519 Mn504 2.162 1_545 S
O519 C507 1.281 . S
O520 Mn504 2.297 1_545 S
O520 C507 1.236 . S
N521 Mn505 2.282 . S
N521 C522 1.328 . S
N521 C526 1.318 . S
C522 N521 1.328 . S
C522 C523 1.457 . S
C522 H527 0.929 . S
C523 C522 1.457 . S
C523 C524 1.291 . S
C523 H536 0.931 . S
C524 C523 1.291 . S
C524 C525 1.373 . S
C524 H537 0.929 . S
C525 C524 1.373 . S
C525 C526 1.396 . S
C525 C532 1.403 . S
C526 C516 1.476 . S
C526 N521 1.318 . S
C526 C525 1.396 . S
H527 C522 0.929 . S
O528 Mn504 2.385 . S
O528 C506 1.234 . S
O529 Mn504 2.209 . S
O529 Mn505 2.215 . S
O529 C506 1.283 . S
O530 Mn504 2.094 . S
O530 C508 1.240 . S
O531 Mn505 2.117 . S
O531 C508 1.264 . S
C532 C525 1.403 . S
C532 C533 1.399 . S
C532 H538 0.929 . S
C533 C513 1.449 . S
C533 C532 1.399 . S
C533 H539 0.930 . S
H534 C514 0.931 . S
H535 C515 0.930 . S
H536 C523 0.931 . S
H537 C524 0.929 . S
H538 C532 0.929 . S
H539 C533 0.930 . S
Mn540 O545 2.095 . S
Mn540 O555 2.162 1_655 S
Mn540 O556 2.297 1_655 S
Mn540 O564 2.385 . S
Mn540 O565 2.209 . S
Mn540 O566 2.094 . S
Mn541 O546 2.121 . S
Mn541 N548 2.257 . S
Mn541 N557 2.282 . S
Mn541 O565 2.215 . S
Mn541 O567 2.117 . S
C542 O564 1.234 . S
C542 O565 1.283 . S
C543 O555 1.281 . S
C543 O556 1.236 . S
C544 O566 1.240 . S
C544 O567 1.264 . S
O545 Mn540 2.095 . S
O545 C554 1.250 . S
O546 Mn541 2.121 . S
O546 C554 1.258 . S
C547 N548 1.326 . S
C547 C551 1.460 . S
C547 H553 0.929 . S
N548 Mn541 2.257 . S
N548 C547 1.326 . S
N548 C552 1.362 . S
C549 C550 1.258 . S
C549 C552 1.431 . S
C549 C569 1.449 . S
C550 C549 1.258 . S
C550 C551 1.477 . S
C550 H570 0.931 . S
C551 C547 1.460 . S
C551 C550 1.477 . S
C551 H571 0.930 . S
C552 N548 1.362 . S
C552 C549 1.431 . S
C552 C562 1.476 . S
H553 C547 0.929 . S
C554 O545 1.250 . S
C554 O546 1.258 . S
O555 Mn540 2.162 1_455 S
O555 C543 1.281 . S
O556 Mn540 2.297 1_455 S
O556 C543 1.236 . S
N557 Mn541 2.282 . S
N557 C558 1.328 . S
N557 C562 1.318 . S
C558 N557 1.328 . S
C558 C559 1.457 . S
C558 H563 0.929 . S
C559 C558 1.457 . S
C559 C560 1.291 . S
C559 H572 0.931 . S
C560 C559 1.291 . S
C560 C561 1.373 . S
C560 H573 0.929 . S
C561 C560 1.373 . S
C561 C562 1.396 . S
C561 C568 1.403 . S
C562 C552 1.476 . S
C562 N557 1.318 . S
C562 C561 1.396 . S
H563 C558 0.929 . S
O564 Mn540 2.385 . S
O564 C542 1.234 . S
O565 Mn540 2.209 . S
O565 Mn541 2.215 . S
O565 C542 1.283 . S
O566 Mn540 2.094 . S
O566 C544 1.240 . S
O567 Mn541 2.117 . S
O567 C544 1.264 . S
C568 C561 1.403 . S
C568 C569 1.399 . S
C568 H574 0.929 . S
C569 C549 1.449 . S
C569 C568 1.399 . S
C569 H575 0.930 . S
H570 C550 0.931 . S
H571 C551 0.930 . S
H572 C559 0.931 . S
H573 C560 0.929 . S
H574 C568 0.929 . S
H575 C569 0.930 . S
C576 C577 1.369 . S
C576 C578 1.419 . S
C576 H580 0.930 . S
C577 C576 1.369 . S
C577 C586 1.429 . S
C578 C576 1.419 . S
C578 C579 1.363 . S
C578 H581 0.929 . S
C579 C578 1.363 . S
C579 C585 1.428 . S
H580 C576 0.930 . S
H581 C578 0.929 . S
S582 N583 1.613 . S
S582 N584 1.610 . S
N583 S582 1.613 . S
N583 C586 1.350 . S
N584 S582 1.610 . S
N584 C585 1.351 . S
C585 C579 1.428 . S
C585 N584 1.351 . S
C585 C586 1.434 . S
C586 C577 1.429 . S
C586 N583 1.350 . S
C586 C585 1.434 . S
C587 C588 1.369 . S
C587 C589 1.419 . S
C587 H591 0.930 . S
C588 C587 1.369 . S
C588 C597 1.429 . S
C589 C587 1.419 . S
C589 C590 1.363 . S
C589 H592 0.929 . S
C590 C589 1.363 . S
C590 C596 1.428 . S
H591 C587 0.930 . S
H592 C589 0.929 . S
S593 N594 1.613 . S
S593 N595 1.610 . S
N594 S593 1.613 . S
N594 C597 1.350 . S
N595 S593 1.610 . S
N595 C596 1.351 . S
C596 C590 1.428 . S
C596 N595 1.351 . S
C596 C597 1.434 . S
C597 C588 1.429 . S
C597 N594 1.350 . S
C597 C596 1.434 . S
C598 C599 1.369 . S
C598 C600 1.419 . S
C598 H602 0.930 . S
C599 C598 1.369 . S
C599 C608 1.429 . S
C600 C598 1.419 . S
C600 C601 1.363 . S
C600 H603 0.929 . S
C601 C600 1.363 . S
C601 C607 1.428 . S
H602 C598 0.930 . S
H603 C600 0.929 . S
S604 N605 1.613 . S
S604 N606 1.610 . S
N605 S604 1.613 . S
N605 C608 1.350 . S
N606 S604 1.610 . S
N606 C607 1.351 . S
C607 C601 1.428 . S
C607 N606 1.351 . S
C607 C608 1.434 . S
C608 C599 1.429 . S
C608 N605 1.350 . S
C608 C607 1.434 . S
C609 C610 1.369 . S
C609 C611 1.419 . S
C609 H613 0.930 . S
C610 C609 1.369 . S
C610 C619 1.429 . S
C611 C609 1.419 . S
C611 C612 1.363 . S
C611 H614 0.929 . S
C612 C611 1.363 . S
C612 C618 1.428 . S
H613 C609 0.930 . S
H614 C611 0.929 . S
S615 N616 1.613 . S
S615 N617 1.610 . S
N616 S615 1.613 . S
N616 C619 1.350 . S
N617 S615 1.610 . S
N617 C618 1.351 . S
C618 C612 1.428 . S
C618 N617 1.351 . S
C618 C619 1.434 . S
C619 C610 1.429 . S
C619 N616 1.350 . S
C619 C618 1.434 . S
C620 C621 1.369 . S
C620 C622 1.419 . S
C620 H624 0.930 . S
C621 C620 1.369 . S
C621 C630 1.429 . S
C622 C620 1.419 . S
C622 C623 1.363 . S
C622 H625 0.929 . S
C623 C622 1.363 . S
C623 C629 1.428 . S
H624 C620 0.930 . S
H625 C622 0.929 . S
S626 N627 1.613 . S
S626 N628 1.610 . S
N627 S626 1.613 . S
N627 C630 1.350 . S
N628 S626 1.610 . S
N628 C629 1.351 . S
C629 C623 1.428 . S
C629 N628 1.351 . S
C629 C630 1.434 . S
C630 C621 1.429 . S
C630 N627 1.350 . S
C630 C629 1.434 . S
C631 C632 1.369 . S
C631 C633 1.419 . S
C631 H635 0.930 . S
C632 C631 1.369 . S
C632 C641 1.429 . S
C633 C631 1.419 . S
C633 C634 1.363 . S
C633 H636 0.929 . S
C634 C633 1.363 . S
C634 C640 1.428 . S
H635 C631 0.930 . S
H636 C633 0.929 . S
S637 N638 1.613 . S
S637 N639 1.610 . S
N638 S637 1.613 . S
N638 C641 1.350 . S
N639 S637 1.610 . S
N639 C640 1.351 . S
C640 C634 1.428 . S
C640 N639 1.351 . S
C640 C641 1.434 . S
C641 C632 1.429 . S
C641 N638 1.350 . S
C641 C640 1.434 . S
C642 C643 1.369 . S
C642 C644 1.419 . S
C642 H646 0.930 . S
C643 C642 1.369 . S
C643 C652 1.429 . S
C644 C642 1.419 . S
C644 C645 1.363 . S
C644 H647 0.929 . S
C645 C644 1.363 . S
C645 C651 1.428 . S
H646 C642 0.930 . S
H647 C644 0.929 . S
S648 N649 1.613 . S
S648 N650 1.610 . S
N649 S648 1.613 . S
N649 C652 1.350 . S
N650 S648 1.610 . S
N650 C651 1.351 . S
C651 C645 1.428 . S
C651 N650 1.351 . S
C651 C652 1.434 . S
C652 C643 1.429 . S
C652 N649 1.350 . S
C652 C651 1.434 . S
C653 C654 1.369 . S
C653 C655 1.419 . S
C653 H657 0.930 . S
C654 C653 1.369 . S
C654 C663 1.429 . S
C655 C653 1.419 . S
C655 C656 1.363 . S
C655 H658 0.929 . S
C656 C655 1.363 . S
C656 C662 1.428 . S
H657 C653 0.930 . S
H658 C655 0.929 . S
S659 N660 1.613 . S
S659 N661 1.610 . S
N660 S659 1.613 . S
N660 C663 1.350 . S
N661 S659 1.610 . S
N661 C662 1.351 . S
C662 C656 1.428 . S
C662 N661 1.351 . S
C662 C663 1.434 . S
C663 C654 1.429 . S
C663 N660 1.350 . S
C663 C662 1.434 . S
C664 C665 1.369 . S
C664 C666 1.419 . S
C664 H668 0.930 . S
C665 C664 1.369 . S
C665 C674 1.429 . S
C666 C664 1.419 . S
C666 C667 1.363 . S
C666 H669 0.929 . S
C667 C666 1.363 . S
C667 C673 1.428 . S
H668 C664 0.930 . S
H669 C666 0.929 . S
S670 N671 1.613 . S
S670 N672 1.610 . S
N671 S670 1.613 . S
N671 C674 1.350 . S
N672 S670 1.610 . S
N672 C673 1.351 . S
C673 C667 1.428 . S
C673 N672 1.351 . S
C673 C674 1.434 . S
C674 C665 1.429 . S
C674 N671 1.350 . S
C674 C673 1.434 . S
C675 C676 1.369 . S
C675 C677 1.419 . S
C675 H679 0.930 . S
C676 C675 1.369 . S
C676 C685 1.429 . S
C677 C675 1.419 . S
C677 C678 1.363 . S
C677 H680 0.929 . S
C678 C677 1.363 . S
C678 C684 1.428 . S
H679 C675 0.930 . S
H680 C677 0.929 . S
S681 N682 1.613 . S
S681 N683 1.610 . S
N682 S681 1.613 . S
N682 C685 1.350 . S
N683 S681 1.610 . S
N683 C684 1.351 . S
C684 C678 1.428 . S
C684 N683 1.351 . S
C684 C685 1.434 . S
C685 C676 1.429 . S
C685 N682 1.350 . S
C685 C684 1.434 . S
C686 C687 1.369 . S
C686 C688 1.419 . S
C686 H690 0.930 . S
C687 C686 1.369 . S
C687 C696 1.429 . S
C688 C686 1.419 . S
C688 C689 1.363 . S
C688 H691 0.929 . S
C689 C688 1.363 . S
C689 C695 1.428 . S
H690 C686 0.930 . S
H691 C688 0.929 . S
S692 N693 1.613 . S
S692 N694 1.610 . S
N693 S692 1.613 . S
N693 C696 1.350 . S
N694 S692 1.610 . S
N694 C695 1.351 . S
C695 C689 1.428 . S
C695 N694 1.351 . S
C695 C696 1.434 . S
C696 C687 1.429 . S
C696 N693 1.350 . S
C696 C695 1.434 . S
C697 C698 1.369 . S
C697 C699 1.419 . S
C697 H701 0.930 . S
C698 C697 1.369 . S
C698 C707 1.429 . S
C699 C697 1.419 . S
C699 C700 1.363 . S
C699 H702 0.929 . S
C700 C699 1.363 . S
C700 C706 1.428 . S
H701 C697 0.930 . S
H702 C699 0.929 . S
S703 N704 1.613 . S
S703 N705 1.610 . S
N704 S703 1.613 . S
N704 C707 1.350 . S
N705 S703 1.610 . S
N705 C706 1.351 . S
C706 C700 1.428 . S
C706 N705 1.351 . S
C706 C707 1.434 . S
C707 C698 1.429 . S
C707 N704 1.350 . S
C707 C706 1.434 . S
C708 C709 1.369 . S
C708 C710 1.419 . S
C708 H712 0.930 . S
C709 C708 1.369 . S
C709 C718 1.429 . S
C710 C708 1.419 . S
C710 C711 1.363 . S
C710 H713 0.929 . S
C711 C710 1.363 . S
C711 C717 1.428 . S
H712 C708 0.930 . S
H713 C710 0.929 . S
S714 N715 1.613 . S
S714 N716 1.610 . S
N715 S714 1.613 . S
N715 C718 1.350 . S
N716 S714 1.610 . S
N716 C717 1.351 . S
C717 C711 1.428 . S
C717 N716 1.351 . S
C717 C718 1.434 . S
C718 C709 1.429 . S
C718 N715 1.350 . S
C718 C717 1.434 . S
C719 C720 1.369 . S
C719 C721 1.419 . S
C719 H723 0.930 . S
C720 C719 1.369 . S
C720 C729 1.429 . S
C721 C719 1.419 . S
C721 C722 1.363 . S
C721 H724 0.929 . S
C722 C721 1.363 . S
C722 C728 1.428 . S
H723 C719 0.930 . S
H724 C721 0.929 . S
S725 N726 1.613 . S
S725 N727 1.610 . S
N726 S725 1.613 . S
N726 C729 1.350 . S
N727 S725 1.610 . S
N727 C728 1.351 . S
C728 C722 1.428 . S
C728 N727 1.351 . S
C728 C729 1.434 . S
C729 C720 1.429 . S
C729 N726 1.350 . S
C729 C728 1.434 . S
C730 C731 1.369 . S
C730 C732 1.419 . S
C730 H734 0.930 . S
C731 C730 1.369 . S
C731 C740 1.429 . S
C732 C730 1.419 . S
C732 C733 1.363 . S
C732 H735 0.929 . S
C733 C732 1.363 . S
C733 C739 1.428 . S
H734 C730 0.930 . S
H735 C732 0.929 . S
S736 N737 1.613 . S
S736 N738 1.610 . S
N737 S736 1.613 . S
N737 C740 1.350 . S
N738 S736 1.610 . S
N738 C739 1.351 . S
C739 C733 1.428 . S
C739 N738 1.351 . S
C739 C740 1.434 . S
C740 C731 1.429 . S
C740 N737 1.350 . S
C740 C739 1.434 . S
C741 C742 1.369 . S
C741 C743 1.419 . S
C741 H745 0.930 . S
C742 C741 1.369 . S
C742 C751 1.429 . S
C743 C741 1.419 . S
C743 C744 1.363 . S
C743 H746 0.929 . S
C744 C743 1.363 . S
C744 C750 1.428 . S
H745 C741 0.930 . S
H746 C743 0.929 . S
S747 N748 1.613 . S
S747 N749 1.610 . S
N748 S747 1.613 . S
N748 C751 1.350 . S
N749 S747 1.610 . S
N749 C750 1.351 . S
C750 C744 1.428 . S
C750 N749 1.351 . S
C750 C751 1.434 . S
C751 C742 1.429 . S
C751 N748 1.350 . S
C751 C750 1.434 . S
C752 C753 1.369 . S
C752 C754 1.419 . S
C752 H756 0.930 . S
C753 C752 1.369 . S
C753 C762 1.429 . S
C754 C752 1.419 . S
C754 C755 1.363 . S
C754 H757 0.929 . S
C755 C754 1.363 . S
C755 C761 1.428 . S
H756 C752 0.930 . S
H757 C754 0.929 . S
S758 N759 1.613 . S
S758 N760 1.610 . S
N759 S758 1.613 . S
N759 C762 1.350 . S
N760 S758 1.610 . S
N760 C761 1.351 . S
C761 C755 1.428 . S
C761 N760 1.351 . S
C761 C762 1.434 . S
C762 C753 1.429 . S
C762 N759 1.350 . S
C762 C761 1.434 . S
C763 C764 1.369 . S
C763 C765 1.419 . S
C763 H767 0.930 . S
C764 C763 1.369 . S
C764 C773 1.429 . S
C765 C763 1.419 . S
C765 C766 1.363 . S
C765 H768 0.929 . S
C766 C765 1.363 . S
C766 C772 1.428 . S
H767 C763 0.930 . S
H768 C765 0.929 . S
S769 N770 1.613 . S
S769 N771 1.610 . S
N770 S769 1.613 . S
N770 C773 1.350 . S
N771 S769 1.610 . S
N771 C772 1.351 . S
C772 C766 1.428 . S
C772 N771 1.351 . S
C772 C773 1.434 . S
C773 C764 1.429 . S
C773 N770 1.350 . S
C773 C772 1.434 . S
C774 C775 1.369 . S
C774 C776 1.419 . S
C774 H778 0.930 . S
C775 C774 1.369 . S
C775 C784 1.429 . S
C776 C774 1.419 . S
C776 C777 1.363 . S
C776 H779 0.929 . S
C777 C776 1.363 . S
C777 C783 1.428 . S
H778 C774 0.930 . S
H779 C776 0.929 . S
S780 N781 1.613 . S
S780 N782 1.610 . S
N781 S780 1.613 . S
N781 C784 1.350 . S
N782 S780 1.610 . S
N782 C783 1.351 . S
C783 C777 1.428 . S
C783 N782 1.351 . S
C783 C784 1.434 . S
C784 C775 1.429 . S
C784 N781 1.350 . S
C784 C783 1.434 . S
C785 C786 1.369 . S
C785 C787 1.419 . S
C785 H789 0.930 . S
C786 C785 1.369 . S
C786 C795 1.429 . S
C787 C785 1.419 . S
C787 C788 1.363 . S
C787 H790 0.929 . S
C788 C787 1.363 . S
C788 C794 1.428 . S
H789 C785 0.930 . S
H790 C787 0.929 . S
S791 N792 1.613 . S
S791 N793 1.610 . S
N792 S791 1.613 . S
N792 C795 1.350 . S
N793 S791 1.610 . S
N793 C794 1.351 . S
C794 C788 1.428 . S
C794 N793 1.351 . S
C794 C795 1.434 . S
C795 C786 1.429 . S
C795 N792 1.350 . S
C795 C794 1.434 . S
C796 C797 1.369 . S
C796 C798 1.419 . S
C796 H800 0.930 . S
C797 C796 1.369 . S
C797 C806 1.429 . S
C798 C796 1.419 . S
C798 C799 1.363 . S
C798 H801 0.929 . S
C799 C798 1.363 . S
C799 C805 1.428 . S
H800 C796 0.930 . S
H801 C798 0.929 . S
S802 N803 1.613 . S
S802 N804 1.610 . S
N803 S802 1.613 . S
N803 C806 1.350 . S
N804 S802 1.610 . S
N804 C805 1.351 . S
C805 C799 1.428 . S
C805 N804 1.351 . S
C805 C806 1.434 . S
C806 C797 1.429 . S
C806 N803 1.350 . S
C806 C805 1.434 . S
C807 C808 1.369 . S
C807 C809 1.419 . S
C807 H811 0.930 . S
C808 C807 1.369 . S
C808 C817 1.429 . S
C809 C807 1.419 . S
C809 C810 1.363 . S
C809 H812 0.929 . S
C810 C809 1.363 . S
C810 C816 1.428 . S
H811 C807 0.930 . S
H812 C809 0.929 . S
S813 N814 1.613 . S
S813 N815 1.610 . S
N814 S813 1.613 . S
N814 C817 1.350 . S
N815 S813 1.610 . S
N815 C816 1.351 . S
C816 C810 1.428 . S
C816 N815 1.351 . S
C816 C817 1.434 . S
C817 C808 1.429 . S
C817 N814 1.350 . S
C817 C816 1.434 . S
C818 C819 1.369 . S
C818 C820 1.419 . S
C818 H822 0.930 . S
C819 C818 1.369 . S
C819 C828 1.429 . S
C820 C818 1.419 . S
C820 C821 1.363 . S
C820 H823 0.929 . S
C821 C820 1.363 . S
C821 C827 1.428 . S
H822 C818 0.930 . S
H823 C820 0.929 . S
S824 N825 1.613 . S
S824 N826 1.610 . S
N825 S824 1.613 . S
N825 C828 1.350 . S
N826 S824 1.610 . S
N826 C827 1.351 . S
C827 C821 1.428 . S
C827 N826 1.351 . S
C827 C828 1.434 . S
C828 C819 1.429 . S
C828 N825 1.350 . S
C828 C827 1.434 . S
C829 C830 1.369 . S
C829 C831 1.419 . S
C829 H833 0.930 . S
C830 C829 1.369 . S
C830 C839 1.429 . S
C831 C829 1.419 . S
C831 C832 1.363 . S
C831 H834 0.929 . S
C832 C831 1.363 . S
C832 C838 1.428 . S
H833 C829 0.930 . S
H834 C831 0.929 . S
S835 N836 1.613 . S
S835 N837 1.610 . S
N836 S835 1.613 . S
N836 C839 1.350 . S
N837 S835 1.610 . S
N837 C838 1.351 . S
C838 C832 1.428 . S
C838 N837 1.351 . S
C838 C839 1.434 . S
C839 C830 1.429 . S
C839 N836 1.350 . S
C839 C838 1.434 . S
C840 C841 1.369 . S
C840 C842 1.419 . S
C840 H844 0.930 . S
C841 C840 1.369 . S
C841 C850 1.429 . S
C842 C840 1.419 . S
C842 C843 1.363 . S
C842 H845 0.929 . S
C843 C842 1.363 . S
C843 C849 1.428 . S
H844 C840 0.930 . S
H845 C842 0.929 . S
S846 N847 1.613 . S
S846 N848 1.610 . S
N847 S846 1.613 . S
N847 C850 1.350 . S
N848 S846 1.610 . S
N848 C849 1.351 . S
C849 C843 1.428 . S
C849 N848 1.351 . S
C849 C850 1.434 . S
C850 C841 1.429 . S
C850 N847 1.350 . S
C850 C849 1.434 . S
C851 C852 1.369 . S
C851 C853 1.419 . S
C851 H855 0.930 . S
C852 C851 1.369 . S
C852 C861 1.429 . S
C853 C851 1.419 . S
C853 C854 1.363 . S
C853 H856 0.929 . S
C854 C853 1.363 . S
C854 C860 1.428 . S
H855 C851 0.930 . S
H856 C853 0.929 . S
S857 N858 1.613 . S
S857 N859 1.610 . S
N858 S857 1.613 . S
N858 C861 1.350 . S
N859 S857 1.610 . S
N859 C860 1.351 . S
C860 C854 1.428 . S
C860 N859 1.351 . S
C860 C861 1.434 . S
C861 C852 1.429 . S
C861 N858 1.350 . S
C861 C860 1.434 . S
C862 C863 1.369 . S
C862 C864 1.419 . S
C862 H866 0.930 . S
C863 C862 1.369 . S
C863 C872 1.429 . S
C864 C862 1.419 . S
C864 C865 1.363 . S
C864 H867 0.929 . S
C865 C864 1.363 . S
C865 C871 1.428 . S
H866 C862 0.930 . S
H867 C864 0.929 . S
S868 N869 1.613 . S
S868 N870 1.610 . S
N869 S868 1.613 . S
N869 C872 1.350 . S
N870 S868 1.610 . S
N870 C871 1.351 . S
C871 C865 1.428 . S
C871 N870 1.351 . S
C871 C872 1.434 . S
C872 C863 1.429 . S
C872 N869 1.350 . S
C872 C871 1.434 . S
C873 C874 1.369 . S
C873 C875 1.419 . S
C873 H877 0.930 . S
C874 C873 1.369 . S
C874 C883 1.429 . S
C875 C873 1.419 . S
C875 C876 1.363 . S
C875 H878 0.929 . S
C876 C875 1.363 . S
C876 C882 1.428 . S
H877 C873 0.930 . S
H878 C875 0.929 . S
S879 N880 1.613 . S
S879 N881 1.610 . S
N880 S879 1.613 . S
N880 C883 1.350 . S
N881 S879 1.610 . S
N881 C882 1.351 . S
C882 C876 1.428 . S
C882 N881 1.351 . S
C882 C883 1.434 . S
C883 C874 1.429 . S
C883 N880 1.350 . S
C883 C882 1.434 . S
C884 C885 1.369 . S
C884 C886 1.419 1_554 S
C884 H888 0.930 . S
C885 C884 1.369 . S
C885 C894 1.429 1_545 S
C886 C884 1.419 1_556 S
C886 C887 1.363 1_545 S
C886 H889 0.929 . S
C887 C886 1.363 1_565 S
C887 C893 1.428 . S
H888 C884 0.930 . S
H889 C886 0.929 . S
S890 N891 1.613 . S
S890 N892 1.610 1_554 S
N891 S890 1.613 . S
N891 C894 1.350 . S
N892 S890 1.610 1_556 S
N892 C893 1.351 . S
C893 C887 1.428 . S
C893 N892 1.351 . S
C893 C894 1.434 1_556 S
C894 C885 1.429 1_565 S
C894 N891 1.350 . S
C894 C893 1.434 1_554 S
C895 C896 1.369 . S
C895 C897 1.419 1_556 S
C895 H899 0.930 . S
C896 C895 1.369 . S
C896 C905 1.429 1_455 S
C897 C895 1.419 1_554 S
C897 C898 1.363 1_455 S
C897 H900 0.929 . S
C898 C897 1.363 1_655 S
C898 C904 1.428 . S
H899 C895 0.930 . S
H900 C897 0.929 . S
S901 N902 1.613 . S
S901 N903 1.610 1_556 S
N902 S901 1.613 . S
N902 C905 1.350 . S
N903 S901 1.610 1_554 S
N903 C904 1.351 . S
C904 C898 1.428 . S
C904 N903 1.351 . S
C904 C905 1.434 1_554 S
C905 C896 1.429 1_655 S
C905 N902 1.350 . S
C905 C904 1.434 1_556 S
C906 C907 1.369 . S
C906 C908 1.419 1_556 S
C906 H910 0.930 . S
C907 C906 1.369 . S
C907 C916 1.429 1_545 S
C908 C906 1.419 1_554 S
C908 C909 1.363 1_545 S
C908 H911 0.929 . S
C909 C908 1.363 1_565 S
C909 C915 1.428 . S
H910 C906 0.930 . S
H911 C908 0.929 . S
S912 N913 1.613 . S
S912 N914 1.610 1_556 S
N913 S912 1.613 . S
N913 C916 1.350 . S
N914 S912 1.610 1_554 S
N914 C915 1.351 . S
C915 C909 1.428 . S
C915 N914 1.351 . S
C915 C916 1.434 1_554 S
C916 C907 1.429 1_565 S
C916 N913 1.350 . S
C916 C915 1.434 1_556 S
C917 C918 1.369 . S
C917 C919 1.419 1_556 S
C917 H921 0.930 . S
C918 C917 1.369 . S
C918 C927 1.429 1_655 S
C919 C917 1.419 1_554 S
C919 C920 1.363 1_655 S
C919 H922 0.929 . S
C920 C919 1.363 1_455 S
C920 C926 1.428 . S
H921 C917 0.930 . S
H922 C919 0.929 . S
S923 N924 1.613 . S
S923 N925 1.610 1_556 S
N924 S923 1.613 . S
N924 C927 1.350 . S
N925 S923 1.610 1_554 S
N925 C926 1.351 . S
C926 C920 1.428 . S
C926 N925 1.351 . S
C926 C927 1.434 1_554 S
C927 C918 1.429 1_455 S
C927 N924 1.350 . S
C927 C926 1.434 1_556 S
C577 C4 1.308 . S
C579 C256 1.308 . S
C588 C40 1.303 . S
C590 C148 1.303 . S
C599 C184 1.302 . S
C601 C76 1.303 . S
C610 C112 1.302 . S
C612 C220 1.303 . S
C621 C292 1.302 . S
C623 C544 1.303 . S
C632 C436 1.301 . S
C634 C328 1.302 . S
C643 C472 1.302 . S
C645 C364 1.303 . S
C654 C508 1.301 . S
C656 C400 1.302 . S
C665 C3 1.411 . S
C667 C398 1.431 . S
C676 C39 1.408 . S
C678 C290 1.432 . S
C687 C326 1.433 . S
C689 C75 1.414 . S
C698 C111 1.413 . S
C700 C362 1.433 . S
C709 C147 1.408 . S
C711 C470 1.433 . S
C720 C506 1.434 . S
C722 C183 1.411 . S
C731 C219 1.409 . S
C733 C542 1.434 . S
C742 C434 1.434 . S
C744 C255 1.410 . S
C753 C291 1.408 . S
C755 C110 1.432 . S
C764 C2 1.433 . S
C766 C327 1.408 . S
C775 C363 1.414 . S
C777 C38 1.432 . S
C786 C74 1.431 . S
C788 C399 1.412 . S
C797 C435 1.408 . S
C799 C182 1.433 . S
C808 C218 1.434 . S
C810 C471 1.412 . S
C819 C254 1.431 . S
C821 C507 1.409 . S
C830 C146 1.431 . S
C832 C543 1.413 . S
C841 C158 1.539 . S
C843 C14 1.532 . S
C852 C194 1.533 . S
C854 C50 1.537 . S
C863 C86 1.539 . S
C865 C230 1.532 . S
C874 C266 1.535 . S
C876 C122 1.535 . S
C885 C446 1.539 . S
C887 C302 1.532 . S
C896 C482 1.538 . S
C898 C338 1.533 . S
C907 C374 1.539 . S
C909 C518 1.533 . S
C918 C554 1.538 . S
C920 C410 1.533 . S
