# Generated by pormake.
# Topology wkf, (6)-cn, num edge types: 1
# Building blocks:
#     Node 0, Type 0, BuildingBlock: IZENUY_clean_sbu_0, # of connection points: 6
#     Node 1, Type 0, BuildingBlock: IZENUY_clean_sbu_0, # of connection points: 6
#     Node 2, Type 0, BuildingBlock: IZENUY_clean_sbu_0, # of connection points: 6
#     Node 3, Type 0, BuildingBlock: IZENUY_clean_sbu_0, # of connection points: 6
#     Node 4, Type 0, BuildingBlock: IZENUY_clean_sbu_0, # of connection points: 6
#     Node 5, Type 0, BuildingBlock: IZENUY_clean_sbu_0, # of connection points: 6
#     Node 6, Type 0, BuildingBlock: IZENUY_clean_sbu_0, # of connection points: 6
#     Node 7, Type 0, BuildingBlock: IZENUY_clean_sbu_0, # of connection points: 6
#     Node 8, Type 0, BuildingBlock: IZENUY_clean_sbu_0, # of connection points: 6
#     Node 9, Type 0, BuildingBlock: IZENUY_clean_sbu_0, # of connection points: 6
#     Node 10, Type 0, BuildingBlock: IZENUY_clean_sbu_0, # of connection points: 6
#     Node 11, Type 0, BuildingBlock: IZENUY_clean_sbu_0, # of connection points: 6
#     Edge 12, Type (0, 0), None
#     Edge 13, Type (0, 0), None
#     Edge 14, Type (0, 0), None
#     Edge 15, Type (0, 0), None
#     Edge 16, Type (0, 0), None
#     Edge 17, Type (0, 0), None
#     Edge 18, Type (0, 0), None
#     Edge 19, Type (0, 0), None
#     Edge 20, Type (0, 0), None
#     Edge 21, Type (0, 0), None
#     Edge 22, Type (0, 0), None
#     Edge 23, Type (0, 0), None
#     Edge 24, Type (0, 0), None
#     Edge 25, Type (0, 0), None
#     Edge 26, Type (0, 0), None
#     Edge 27, Type (0, 0), None
#     Edge 28, Type (0, 0), None
#     Edge 29, Type (0, 0), None
#     Edge 30, Type (0, 0), None
#     Edge 31, Type (0, 0), None
#     Edge 32, Type (0, 0), None
#     Edge 33, Type (0, 0), None
#     Edge 34, Type (0, 0), None
#     Edge 35, Type (0, 0), None
#     Edge 36, Type (0, 0), None
#     Edge 37, Type (0, 0), None
#     Edge 38, Type (0, 0), None
#     Edge 39, Type (0, 0), None
#     Edge 40, Type (0, 0), None
#     Edge 41, Type (0, 0), None
#     Edge 42, Type (0, 0), None
#     Edge 43, Type (0, 0), None
#     Edge 44, Type (0, 0), None
#     Edge 45, Type (0, 0), None
#     Edge 46, Type (0, 0), None
#     Edge 47, Type (0, 0), None
# Relax obj value: 0.282
# Max RMSD: 0.255
# Mean RMSD: 0.255
data_MOF--net-wkf--node1-IZENUY_clean_sbu_0--edge1-none
_symmetry_space_group_name_H-M    P1
_symmetry_Int_Tables_number       1
_symmetry_cell_setting            triclinic
loop_
_symmetry_equiv_pos_as_xyz
'x, y, z'
_cell_length_a     12.851632
_cell_length_b     12.851527
_cell_length_c     32.756446
_cell_angle_alpha  90.000513
_cell_angle_beta   89.999743
_cell_angle_gamma 119.99962
loop_
_atom_site_label
_atom_site_type_symbol
_atom_site_fract_x
_atom_site_fract_y
_atom_site_fract_z
_atom_type_partial_charge
Fe0 Fe 0.52575 0.1674 0.3827 0.0
Fe1 Fe 0.2813 0.13428 0.40782 0.0
O2 O 0.41248 0.12646 0.41994 0.0
Fe3 Fe 0.42337 0.07417 0.46878 0.0
O4 O 0.56095 0.20518 0.48081 0.0
O5 O 0.64958 0.24376 0.42028 0.0
O6 O 0.53948 0.31258 0.37518 0.0
C7 C 0.45808 0.32849 0.36126 0.0
C8 C 0.53056 0.97415 0.4166 0.0
O9 O 0.34967 0.24842 0.36671 0.0
C10 C 0.18676 0.93248 0.4596 0.0
O11 O 0.41295 0.09184 0.34105 0.0
O12 O 0.23685 0.01282 0.37256 0.0
O13 O 0.50144 0.99268 0.45179 0.0
O14 O 0.52693 0.02949 0.38586 0.0
C15 C 0.33585 0.23969 0.4813 0.0
O16 O 0.18084 0.02113 0.44577 0.0
O17 O 0.28542 0.9357 0.461 0.0
C18 C 0.30264 0.00923 0.34474 0.0
O19 O 0.32359 0.25516 0.44394 0.0
O20 O 0.34959 0.15207 0.49329 0.0
C21 C 0.65175 0.26067 0.45882 0.0
Fe22 Fe 0.35517 0.42038 0.63545 0.0
Fe23 Fe 0.36431 0.52276 0.54937 0.0
O24 O 0.29199 0.4095 0.58661 0.0
Fe25 Fe 0.15298 0.27831 0.57449 0.0
O26 O 0.0744 0.32061 0.61061 0.0
O27 O 0.20348 0.3466 0.65995 0.0
O28 O 0.36175 0.55796 0.64748 0.0
C29 C 0.39705 0.64876 0.62549 0.0
C30 C 0.26023 0.18376 0.62626 0.0
O31 O 0.41178 0.64659 0.58694 0.0
C32 C 0.29937 0.29964 0.51142 0.0
O33 O 0.51472 0.49844 0.61846 0.0
O34 O 0.50341 0.52394 0.55253 0.0
O35 O 0.16567 0.17786 0.61244 0.0
O36 O 0.35567 0.28242 0.62767 0.0
C37 C 0.13556 0.45509 0.52792 0.0
O38 O 0.32707 0.40995 0.50772 0.0
O39 O 0.22998 0.23385 0.53923 0.0
C40 C 0.56238 0.52757 0.58326 0.0
O41 O 0.23286 0.53649 0.54185 0.0
O42 O 0.10721 0.34668 0.53338 0.0
C43 C 0.10212 0.33287 0.64797 0.0
Fe44 Fe 0.94075 0.35219 0.80211 0.0
Fe45 Fe 0.84752 0.36132 0.71604 0.0
O46 O 0.88845 0.289 0.75327 0.0
Fe47 Fe 0.88064 0.15 0.74116 0.0
O48 O 0.75975 0.07141 0.77728 0.0
O49 O 0.86284 0.2005 0.82662 0.0
O50 O 0.80975 0.35876 0.81415 0.0
C51 C 0.75425 0.39407 0.79216 0.0
C52 C 0.08243 0.25725 0.79293 0.0
O53 O 0.77116 0.4088 0.75361 0.0
C54 C 1.00569 0.29639 0.67809 0.0
O55 O 0.02224 0.51174 0.78512 0.0
O56 O 0.98543 0.50042 0.71919 0.0
O57 O 0.99378 0.16269 0.77911 0.0
O58 O 0.07921 0.35269 0.79433 0.0
C59 C 0.68643 0.13257 0.69459 0.0
O60 O 0.92308 0.32408 0.67439 0.0
O61 O 1.00209 0.22699 0.70589 0.0
C62 C 0.04077 0.55939 0.74993 0.0
O63 O 0.70234 0.22987 0.70852 0.0
O64 O 0.76649 0.10422 0.70005 0.0
C65 C 0.77522 0.09914 0.81463 0.0
Fe66 Fe 0.49216 0.84454 0.88271 0.0
Fe67 Fe 0.7366 0.87766 0.90783 0.0
O68 O 0.60542 0.88548 0.91994 0.0
Fe69 Fe 0.59453 0.93778 0.96878 0.0
O70 O 0.45695 0.80677 0.98081 0.0
O71 O 0.36833 0.76818 0.92028 0.0
O72 O 0.47843 0.69936 0.87519 0.0
C73 C 0.55982 0.68345 0.86126 0.0
C74 C 0.48734 0.03779 0.9166 0.0
O75 O 0.66823 0.76351 0.86671 0.0
C76 C 0.83115 0.07945 0.9596 0.0
O77 O 0.60496 0.9201 0.84106 0.0
O78 O 0.78106 0.99911 0.87256 0.0
O79 O 0.51647 0.01927 0.95179 0.0
O80 O 0.49097 0.98245 0.88586 0.0
C81 C 0.68205 0.77224 0.9813 0.0
O82 O 0.83706 0.9908 0.94577 0.0
O83 O 0.73249 0.07623 0.961 0.0
C84 C 0.71527 1.00271 0.84475 0.0
O85 O 0.6943 0.75677 0.94395 0.0
O86 O 0.66831 0.85986 0.99329 0.0
C87 C 0.36616 0.75127 0.95883 0.0
Fe88 Fe 0.65359 0.48918 1.04937 0.0
Fe89 Fe 0.86492 0.73363 0.0745 0.0
O90 O 0.72591 0.60244 0.08661 0.0
Fe91 Fe 0.66273 0.59156 0.13545 0.0
O92 O 0.65615 0.45398 0.14748 0.0
O93 O 0.60612 0.36535 0.08694 0.0
O94 O 0.78504 0.47545 1.04185 0.0
C95 C 0.88234 0.55685 1.02792 0.0
C96 C 0.45552 0.48436 0.08326 0.0
O97 O 0.91069 0.66526 1.03338 0.0
C98 C 0.75767 0.82818 0.12627 0.0
O99 O 0.69083 0.60199 1.00772 0.0
O100 O 0.78792 0.77809 1.03923 0.0
O101 O 0.50318 0.51349 0.11846 0.0
O102 O 0.51449 0.488 0.05253 0.0
C103 C 0.91578 0.67907 0.14797 0.0
O104 O 0.85223 0.83408 0.11244 0.0
O105 O 0.66223 0.72952 0.12767 0.0
C106 C 0.71853 0.71229 1.01142 0.0
O107 O 0.9435 0.69133 0.11061 0.0
O108 O 0.81442 0.66534 0.15996 0.0
C109 C 0.62085 0.36318 0.12549 0.0
Fe110 Fe 0.13727 0.86195 0.24116 0.0
Fe111 Fe 0.07715 0.65975 0.30211 0.0
O112 O 0.12945 0.72294 0.25327 0.0
Fe113 Fe 0.17039 0.65062 0.21604 0.0
O114 O 0.31557 0.78207 0.20852 0.0
O115 O 0.25141 0.90772 0.20004 0.0
O116 O 0.25816 0.94054 0.27728 0.0
C117 C 0.24272 0.91278 0.31463 0.0
C118 C 0.0122 0.71555 0.17809 0.0
O119 O 0.15507 0.81145 0.32662 0.0
C120 C 0.97713 0.45255 0.24993 0.0
O121 O 0.02413 0.84926 0.27911 0.0
O122 O 0.9387 0.65926 0.29434 0.0
O123 O 0.09482 0.68786 0.17439 0.0
O124 O 0.01581 0.78495 0.2059 0.0
C125 C 0.26365 0.61787 0.29216 0.0
O126 O 0.99566 0.5002 0.28512 0.0
O127 O 0.03247 0.51152 0.21919 0.0
C128 C 0.93548 0.7547 0.29293 0.0
O129 O 0.20816 0.65317 0.31415 0.0
O130 O 0.24675 0.60314 0.25361 0.0
C131 C 0.33147 0.87937 0.19459 0.0
Fe132 Fe 0.84751 0.48918 0.55392 0.0
Fe133 Fe 0.88064 0.73365 0.5288 0.0
O134 O 0.88845 0.60245 0.51669 0.0
Fe135 Fe 0.94076 0.59157 0.46785 0.0
O136 O 0.80976 0.45399 0.45581 0.0
O137 O 0.77115 0.36535 0.51635 0.0
O138 O 0.70233 0.47544 0.56145 0.0
C139 C 0.68646 0.55686 0.57537 0.0
C140 C 0.04076 0.48436 0.52003 0.0
O141 O 0.76648 0.66528 0.56991 0.0
C142 C 0.08245 0.82818 0.47703 0.0
O143 O 0.92308 0.60199 0.59557 0.0
O144 O 1.00208 0.77809 0.56407 0.0
O145 O 0.02225 0.5135 0.48484 0.0
O146 O 0.98543 0.48801 0.55077 0.0
C147 C 0.77524 0.6791 0.45532 0.0
O148 O 0.9938 0.8341 0.49086 0.0
O149 O 0.07922 0.72952 0.47563 0.0
C150 C 1.00568 0.7123 0.59188 0.0
O151 O 0.75977 0.69136 0.49268 0.0
O152 O 0.86286 0.66536 0.44334 0.0
C153 C 0.7543 0.36318 0.4778 0.0
Fe154 Fe 0.36429 0.84452 0.72059 0.0
Fe155 Fe 0.15296 0.87765 0.69547 0.0
O156 O 0.29196 0.88546 0.68335 0.0
Fe157 Fe 0.35516 0.93777 0.63451 0.0
O158 O 0.36173 0.80677 0.62248 0.0
O159 O 0.41176 0.76816 0.68302 0.0
O160 O 0.23285 0.69934 0.72811 0.0
C161 C 0.13556 0.68347 0.74204 0.0
C162 C 0.56236 0.03777 0.6867 0.0
O163 O 0.10716 0.7635 0.73658 0.0
C164 C 0.26023 0.07946 0.6437 0.0
O165 O 0.32705 0.92009 0.76224 0.0
O166 O 0.22996 0.9991 0.73074 0.0
O167 O 0.51471 0.01926 0.6515 0.0
O168 O 0.50339 0.98244 0.71743 0.0
C169 C 0.10213 0.77222 0.622 0.0
O170 O 0.16566 0.99081 0.65752 0.0
O171 O 0.35566 0.07623 0.6423 0.0
C172 C 0.29935 1.0027 0.75855 0.0
O173 O 0.07436 0.75678 0.65935 0.0
O174 O 0.20346 0.85986 0.61 0.0
C175 C 0.39708 0.75131 0.64446 0.0
Fe176 Fe 0.52573 0.36131 0.88725 0.0
Fe177 Fe 0.28127 0.14998 0.86213 0.0
O178 O 0.41247 0.28898 0.85002 0.0
Fe179 Fe 0.42335 0.35218 0.80118 0.0
O180 O 0.56093 0.35875 0.78915 0.0
O181 O 0.64956 0.40878 0.84968 0.0
O182 O 0.53947 0.22987 0.89478 0.0
C183 C 0.45806 0.13258 0.90871 0.0
C184 C 0.53055 0.55938 0.85336 0.0
O185 O 0.34964 0.10418 0.90324 0.0
C186 C 0.18673 0.25725 0.81037 0.0
O187 O 0.41293 0.32408 0.9289 0.0
O188 O 0.23682 0.22698 0.8974 0.0
O189 O 0.50141 0.51173 0.81817 0.0
O190 O 0.52691 0.50041 0.8841 0.0
C191 C 0.33587 0.09914 0.78866 0.0
O192 O 0.18082 0.16268 0.82419 0.0
O193 O 0.28539 0.35268 0.80896 0.0
C194 C 0.30262 0.29637 0.92521 0.0
O195 O 0.32355 0.07138 0.82601 0.0
O196 O 0.34957 0.20048 0.77667 0.0
C197 C 0.65173 0.3941 0.81113 0.0
Fe198 Fe 0.13726 0.27829 1.0288 0.0
Fe199 Fe 0.07714 0.42037 0.96785 0.0
O200 O 0.12945 0.40949 1.01669 0.0
Fe201 Fe 0.17039 0.52276 0.05392 0.0
O202 O 0.31557 0.53649 0.06145 0.0
O203 O 0.25142 0.34666 0.06991 0.0
O204 O 0.25814 0.32057 0.99268 0.0
C205 C 0.24269 0.33289 0.95533 0.0
C206 C 0.01222 0.29964 0.09188 0.0
O207 O 0.15505 0.34659 0.94334 0.0
C208 C 0.97714 0.52758 1.02003 0.0
O209 O 0.02411 0.17784 0.99086 0.0
O210 O 0.93869 0.28242 0.97563 0.0
O211 O 0.09482 0.40995 0.09557 0.0
O212 O 0.01582 0.23385 0.06407 0.0
C213 C 0.2636 0.64876 0.9778 0.0
O214 O 0.99565 0.49843 0.98484 0.0
O215 O 0.03247 0.52393 1.05077 0.0
C216 C 0.93546 0.18375 0.97703 0.0
O217 O 0.20814 0.55795 0.95581 0.0
O218 O 0.24675 0.64659 1.01635 0.0
C219 C 0.33144 0.45508 0.07537 0.0
Fe220 Fe 0.86494 0.13429 0.19547 0.0
Fe221 Fe 0.66274 0.07417 0.13451 0.0
O222 O 0.72594 0.12648 0.18335 0.0
Fe223 Fe 0.65361 0.16742 0.22059 0.0
O224 O 0.78505 0.3126 0.22811 0.0
O225 O 0.91074 0.24845 0.23658 0.0
O226 O 0.94354 0.25517 0.15935 0.0
C227 C 0.91578 0.23972 0.122 0.0
C228 C 0.71855 0.00924 0.25855 0.0
O229 O 0.81444 0.15208 0.11 0.0
C230 C 0.45554 0.97417 0.18669 0.0
O231 O 0.85224 0.02114 0.15752 0.0
O232 O 0.66224 0.93571 0.1423 0.0
O233 O 0.69084 0.09185 0.26224 0.0
O234 O 0.78794 0.01284 0.23074 0.0
C235 C 0.62082 0.26063 0.14446 0.0
O236 O 0.50319 0.99268 0.1515 0.0
O237 O 0.51451 0.0295 0.21743 0.0
C238 C 0.75767 0.93248 0.1437 0.0
O239 O 0.65617 0.20517 0.12248 0.0
O240 O 0.60614 0.24378 0.18301 0.0
C241 C 0.88234 0.32847 0.24204 0.0
Fe242 Fe 0.59456 0.65976 0.30118 0.0
Fe243 Fe 0.49217 0.65063 0.38725 0.0
O244 O 0.60544 0.72296 0.35002 0.0
Fe245 Fe 0.73663 0.86197 0.36213 0.0
O246 O 0.69434 0.94056 0.32601 0.0
O247 O 0.66833 0.81146 0.27667 0.0
O248 O 0.45697 0.65318 0.28914 0.0
C249 C 0.36617 0.61784 0.31113 0.0
C250 C 0.83117 0.7547 0.31036 0.0
O251 O 0.36834 0.60316 0.34968 0.0
C252 C 0.71529 0.71557 0.4252 0.0
O253 O 0.5165 0.50021 0.31817 0.0
O254 O 0.49099 0.51153 0.3841 0.0
O255 O 0.83708 0.84927 0.32418 0.0
O256 O 0.73251 0.65927 0.30896 0.0
C257 C 0.55985 0.87936 0.4087 0.0
O258 O 0.60498 0.68787 0.4289 0.0
O259 O 0.78108 0.78497 0.3974 0.0
C260 C 0.48735 0.45256 0.35336 0.0
O261 O 0.47843 0.78207 0.39478 0.0
O262 O 0.66827 0.90776 0.40324 0.0
C263 C 0.68202 0.91279 0.28866 0.0
loop_
_geom_bond_atom_site_label_1
_geom_bond_atom_site_label_2
_geom_bond_distance
_geom_bond_site_symmetry_2
_ccdc_geom_bond_type
Fe0 O2 1.918 . S
Fe0 O5 1.997 . S
Fe0 O6 2.002 . S
Fe0 O11 1.976 . S
Fe0 O14 1.996 . S
Fe1 O2 1.918 . S
Fe1 O9 1.997 . S
Fe1 O12 1.996 . S
Fe1 O16 1.976 1_545 S
Fe1 O19 2.002 . S
O2 Fe0 1.918 . S
O2 Fe1 1.918 . S
O2 Fe3 1.918 . S
Fe3 O2 1.918 . S
Fe3 O4 2.002 . S
Fe3 O13 1.976 . S
Fe3 O17 1.996 1_545 S
Fe3 O20 1.997 . S
O4 Fe3 2.002 . S
O4 C21 1.295 . S
O5 Fe0 1.997 . S
O5 C21 1.235 . S
O6 Fe0 2.002 . S
O6 C7 1.295 . S
C7 O6 1.295 . S
C7 O9 1.235 . S
C8 O13 1.287 . S
C8 O14 1.255 . S
O9 Fe1 1.997 . S
O9 C7 1.235 . S
C10 O16 1.287 . S
C10 O17 1.255 . S
O11 Fe0 1.976 . S
O11 C18 1.287 . S
O12 Fe1 1.996 . S
O12 C18 1.255 . S
O13 Fe3 1.976 . S
O13 C8 1.287 . S
O14 Fe0 1.996 . S
O14 C8 1.255 . S
C15 O19 1.295 . S
C15 O20 1.235 . S
O16 Fe1 1.976 1_565 S
O16 C10 1.287 . S
O17 Fe3 1.996 1_565 S
O17 C10 1.255 . S
C18 O11 1.287 . S
C18 O12 1.255 . S
O19 Fe1 2.002 . S
O19 C15 1.295 . S
O20 Fe3 1.997 . S
O20 C15 1.235 . S
C21 O4 1.295 . S
C21 O5 1.235 . S
Fe22 O24 1.918 . S
Fe22 O27 1.997 . S
Fe22 O28 2.002 . S
Fe22 O33 1.976 . S
Fe22 O36 1.996 . S
Fe23 O24 1.918 . S
Fe23 O31 1.997 . S
Fe23 O34 1.996 . S
Fe23 O38 1.976 . S
Fe23 O41 2.002 . S
O24 Fe22 1.918 . S
O24 Fe23 1.918 . S
O24 Fe25 1.918 . S
Fe25 O24 1.918 . S
Fe25 O26 2.002 . S
Fe25 O35 1.976 . S
Fe25 O39 1.996 . S
Fe25 O42 1.997 . S
O26 Fe25 2.002 . S
O26 C43 1.295 . S
O27 Fe22 1.997 . S
O27 C43 1.235 . S
O28 Fe22 2.002 . S
O28 C29 1.295 . S
C29 O28 1.295 . S
C29 O31 1.235 . S
C30 O35 1.287 . S
C30 O36 1.255 . S
O31 Fe23 1.997 . S
O31 C29 1.235 . S
C32 O38 1.287 . S
C32 O39 1.255 . S
O33 Fe22 1.976 . S
O33 C40 1.287 . S
O34 Fe23 1.996 . S
O34 C40 1.255 . S
O35 Fe25 1.976 . S
O35 C30 1.287 . S
O36 Fe22 1.996 . S
O36 C30 1.255 . S
C37 O41 1.295 . S
C37 O42 1.235 . S
O38 Fe23 1.976 . S
O38 C32 1.287 . S
O39 Fe25 1.996 . S
O39 C32 1.255 . S
C40 O33 1.287 . S
C40 O34 1.255 . S
O41 Fe23 2.002 . S
O41 C37 1.295 . S
O42 Fe25 1.997 . S
O42 C37 1.235 . S
C43 O26 1.295 . S
C43 O27 1.235 . S
Fe44 O46 1.918 . S
Fe44 O49 1.997 . S
Fe44 O50 2.002 . S
Fe44 O55 1.976 . S
Fe44 O58 1.996 1_655 S
Fe45 O46 1.918 . S
Fe45 O53 1.997 . S
Fe45 O56 1.996 . S
Fe45 O60 1.976 . S
Fe45 O63 2.002 . S
O46 Fe44 1.918 . S
O46 Fe45 1.918 . S
O46 Fe47 1.918 . S
Fe47 O46 1.918 . S
Fe47 O48 2.002 . S
Fe47 O57 1.976 1_655 S
Fe47 O61 1.996 . S
Fe47 O64 1.997 . S
O48 Fe47 2.002 . S
O48 C65 1.295 . S
O49 Fe44 1.997 . S
O49 C65 1.235 . S
O50 Fe44 2.002 . S
O50 C51 1.295 . S
C51 O50 1.295 . S
C51 O53 1.235 . S
C52 O57 1.287 . S
C52 O58 1.255 . S
O53 Fe45 1.997 . S
O53 C51 1.235 . S
C54 O60 1.287 . S
C54 O61 1.255 . S
O55 Fe44 1.976 . S
O55 C62 1.287 . S
O56 Fe45 1.996 . S
O56 C62 1.255 . S
O57 Fe47 1.976 1_455 S
O57 C52 1.287 . S
O58 Fe44 1.996 1_455 S
O58 C52 1.255 . S
C59 O63 1.295 . S
C59 O64 1.235 . S
O60 Fe45 1.976 . S
O60 C54 1.287 . S
O61 Fe47 1.996 . S
O61 C54 1.255 . S
C62 O55 1.287 . S
C62 O56 1.255 . S
O63 Fe45 2.002 . S
O63 C59 1.295 . S
O64 Fe47 1.997 . S
O64 C59 1.235 . S
C65 O48 1.295 . S
C65 O49 1.235 . S
Fe66 O68 1.918 . S
Fe66 O71 1.997 . S
Fe66 O72 2.002 . S
Fe66 O77 1.976 . S
Fe66 O80 1.996 . S
Fe67 O68 1.918 . S
Fe67 O75 1.997 . S
Fe67 O78 1.996 . S
Fe67 O82 1.976 1_565 S
Fe67 O85 2.002 . S
O68 Fe66 1.918 . S
O68 Fe67 1.918 . S
O68 Fe69 1.918 . S
Fe69 O68 1.918 . S
Fe69 O70 2.002 . S
Fe69 O79 1.976 . S
Fe69 O83 1.996 1_565 S
Fe69 O86 1.997 . S
O70 Fe69 2.002 . S
O70 C87 1.295 . S
O71 Fe66 1.997 . S
O71 C87 1.235 . S
O72 Fe66 2.002 . S
O72 C73 1.295 . S
C73 O72 1.295 . S
C73 O75 1.235 . S
C74 O79 1.287 . S
C74 O80 1.255 . S
O75 Fe67 1.997 . S
O75 C73 1.235 . S
C76 O82 1.287 . S
C76 O83 1.255 . S
O77 Fe66 1.976 . S
O77 C84 1.287 . S
O78 Fe67 1.996 . S
O78 C84 1.255 . S
O79 Fe69 1.976 . S
O79 C74 1.287 . S
O80 Fe66 1.996 . S
O80 C74 1.255 . S
C81 O85 1.295 . S
C81 O86 1.235 . S
O82 Fe67 1.976 1_545 S
O82 C76 1.287 . S
O83 Fe69 1.996 1_545 S
O83 C76 1.255 . S
C84 O77 1.287 . S
C84 O78 1.255 . S
O85 Fe67 2.002 . S
O85 C81 1.295 . S
O86 Fe69 1.997 . S
O86 C81 1.235 . S
C87 O70 1.295 . S
C87 O71 1.235 . S
Fe88 O90 1.896 1_556 S
Fe88 O93 1.977 1_556 S
Fe88 O94 2.011 . S
Fe88 O99 1.999 . S
Fe88 O102 1.993 1_556 S
Fe89 O90 1.918 . S
Fe89 O97 1.997 . S
Fe89 O100 1.996 1_554 S
Fe89 O104 1.976 . S
Fe89 O107 2.002 . S
O90 Fe88 1.896 1_554 S
O90 Fe89 1.918 . S
O90 Fe91 1.918 . S
Fe91 O90 1.918 . S
Fe91 O92 2.002 . S
Fe91 O101 1.976 . S
Fe91 O105 1.996 . S
Fe91 O108 1.997 . S
O92 Fe91 2.002 . S
O92 C109 1.295 . S
O93 Fe88 1.977 1_554 S
O93 C109 1.235 . S
O94 Fe88 2.011 . S
O94 C95 1.295 . S
C95 O94 1.295 . S
C95 O97 1.235 1_556 S
C96 O101 1.287 . S
C96 O102 1.255 . S
O97 Fe89 1.997 . S
O97 C95 1.235 1_554 S
C98 O104 1.287 . S
C98 O105 1.255 . S
O99 Fe88 1.999 . S
O99 C106 1.287 . S
O100 Fe89 1.996 1_556 S
O100 C106 1.255 . S
O101 Fe91 1.976 . S
O101 C96 1.287 . S
O102 Fe88 1.993 1_554 S
O102 C96 1.255 . S
C103 O107 1.295 . S
C103 O108 1.235 . S
O104 Fe89 1.976 . S
O104 C98 1.287 . S
O105 Fe91 1.996 . S
O105 C98 1.255 . S
C106 O99 1.287 . S
C106 O100 1.255 . S
O107 Fe89 2.002 . S
O107 C103 1.295 . S
O108 Fe91 1.997 . S
O108 C103 1.235 . S
C109 O92 1.295 . S
C109 O93 1.235 . S
Fe110 O112 1.918 . S
Fe110 O115 1.997 . S
Fe110 O116 2.002 . S
Fe110 O121 1.976 1_455 S
Fe110 O124 1.996 . S
Fe111 O112 1.918 . S
Fe111 O119 1.997 . S
Fe111 O122 1.996 1_455 S
Fe111 O126 1.976 . S
Fe111 O129 2.002 . S
O112 Fe110 1.918 . S
O112 Fe111 1.918 . S
O112 Fe113 1.918 . S
Fe113 O112 1.918 . S
Fe113 O114 2.002 . S
Fe113 O123 1.976 . S
Fe113 O127 1.996 . S
Fe113 O130 1.997 . S
O114 Fe113 2.002 . S
O114 C131 1.295 . S
O115 Fe110 1.997 . S
O115 C131 1.235 . S
O116 Fe110 2.002 . S
O116 C117 1.295 . S
C117 O116 1.295 . S
C117 O119 1.235 . S
C118 O123 1.287 . S
C118 O124 1.255 . S
O119 Fe111 1.997 . S
O119 C117 1.235 . S
C120 O126 1.287 . S
C120 O127 1.255 . S
O121 Fe110 1.976 1_655 S
O121 C128 1.287 . S
O122 Fe111 1.996 1_655 S
O122 C128 1.255 . S
O123 Fe113 1.976 . S
O123 C118 1.287 . S
O124 Fe110 1.996 . S
O124 C118 1.255 . S
C125 O129 1.295 . S
C125 O130 1.235 . S
O126 Fe111 1.976 . S
O126 C120 1.287 . S
O127 Fe113 1.996 . S
O127 C120 1.255 . S
C128 O121 1.287 . S
C128 O122 1.255 . S
O129 Fe111 2.002 . S
O129 C125 1.295 . S
O130 Fe113 1.997 . S
O130 C125 1.235 . S
C131 O114 1.295 . S
C131 O115 1.235 . S
Fe132 O134 1.918 . S
Fe132 O137 1.997 . S
Fe132 O138 2.002 . S
Fe132 O143 1.976 . S
Fe132 O146 1.996 . S
Fe133 O134 1.918 . S
Fe133 O141 1.997 . S
Fe133 O144 1.996 . S
Fe133 O148 1.976 1_655 S
Fe133 O151 2.002 . S
O134 Fe132 1.918 . S
O134 Fe133 1.918 . S
O134 Fe135 1.918 . S
Fe135 O134 1.918 . S
Fe135 O136 2.002 . S
Fe135 O145 1.976 . S
Fe135 O149 1.996 1_655 S
Fe135 O152 1.997 . S
O136 Fe135 2.002 . S
O136 C153 1.295 . S
O137 Fe132 1.997 . S
O137 C153 1.235 . S
O138 Fe132 2.002 . S
O138 C139 1.295 . S
C139 O138 1.295 . S
C139 O141 1.235 . S
C140 O145 1.287 . S
C140 O146 1.255 . S
O141 Fe133 1.997 . S
O141 C139 1.235 . S
C142 O148 1.287 . S
C142 O149 1.255 . S
O143 Fe132 1.976 . S
O143 C150 1.287 . S
O144 Fe133 1.996 . S
O144 C150 1.255 . S
O145 Fe135 1.976 . S
O145 C140 1.287 . S
O146 Fe132 1.996 . S
O146 C140 1.255 . S
C147 O151 1.295 . S
C147 O152 1.235 . S
O148 Fe133 1.976 1_455 S
O148 C142 1.287 . S
O149 Fe135 1.996 1_455 S
O149 C142 1.255 . S
C150 O143 1.287 . S
C150 O144 1.255 . S
O151 Fe133 2.002 . S
O151 C147 1.295 . S
O152 Fe135 1.997 . S
O152 C147 1.235 . S
C153 O136 1.295 . S
C153 O137 1.235 . S
Fe154 O156 1.918 . S
Fe154 O159 1.997 . S
Fe154 O160 2.002 . S
Fe154 O165 1.976 . S
Fe154 O168 1.996 . S
Fe155 O156 1.918 . S
Fe155 O163 1.997 . S
Fe155 O166 1.996 . S
Fe155 O170 1.976 1_565 S
Fe155 O173 2.002 . S
O156 Fe154 1.918 . S
O156 Fe155 1.918 . S
O156 Fe157 1.918 . S
Fe157 O156 1.918 . S
Fe157 O158 2.002 . S
Fe157 O167 1.976 . S
Fe157 O171 1.996 1_565 S
Fe157 O174 1.997 . S
O158 Fe157 2.002 . S
O158 C175 1.295 . S
O159 Fe154 1.997 . S
O159 C175 1.235 . S
O160 Fe154 2.002 . S
O160 C161 1.295 . S
C161 O160 1.295 . S
C161 O163 1.235 . S
C162 O167 1.287 . S
C162 O168 1.255 . S
O163 Fe155 1.997 . S
O163 C161 1.235 . S
C164 O170 1.287 . S
C164 O171 1.255 . S
O165 Fe154 1.976 . S
O165 C172 1.287 . S
O166 Fe155 1.996 . S
O166 C172 1.255 . S
O167 Fe157 1.976 . S
O167 C162 1.287 . S
O168 Fe154 1.996 . S
O168 C162 1.255 . S
C169 O173 1.295 . S
C169 O174 1.235 . S
O170 Fe155 1.976 1_545 S
O170 C164 1.287 . S
O171 Fe157 1.996 1_545 S
O171 C164 1.255 . S
C172 O165 1.287 . S
C172 O166 1.255 . S
O173 Fe155 2.002 . S
O173 C169 1.295 . S
O174 Fe157 1.997 . S
O174 C169 1.235 . S
C175 O158 1.295 . S
C175 O159 1.235 . S
Fe176 O178 1.918 . S
Fe176 O181 1.997 . S
Fe176 O182 2.002 . S
Fe176 O187 1.976 . S
Fe176 O190 1.996 . S
Fe177 O178 1.918 . S
Fe177 O185 1.997 . S
Fe177 O188 1.996 . S
Fe177 O192 1.976 . S
Fe177 O195 2.002 . S
O178 Fe176 1.918 . S
O178 Fe177 1.918 . S
O178 Fe179 1.918 . S
Fe179 O178 1.918 . S
Fe179 O180 2.002 . S
Fe179 O189 1.976 . S
Fe179 O193 1.996 . S
Fe179 O196 1.997 . S
O180 Fe179 2.002 . S
O180 C197 1.295 . S
O181 Fe176 1.997 . S
O181 C197 1.235 . S
O182 Fe176 2.002 . S
O182 C183 1.295 . S
C183 O182 1.295 . S
C183 O185 1.235 . S
C184 O189 1.287 . S
C184 O190 1.255 . S
O185 Fe177 1.997 . S
O185 C183 1.235 . S
C186 O192 1.287 . S
C186 O193 1.255 . S
O187 Fe176 1.976 . S
O187 C194 1.287 . S
O188 Fe177 1.996 . S
O188 C194 1.255 . S
O189 Fe179 1.976 . S
O189 C184 1.287 . S
O190 Fe176 1.996 . S
O190 C184 1.255 . S
C191 O195 1.295 . S
C191 O196 1.235 . S
O192 Fe177 1.976 . S
O192 C186 1.287 . S
O193 Fe179 1.996 . S
O193 C186 1.255 . S
C194 O187 1.287 . S
C194 O188 1.255 . S
O195 Fe177 2.002 . S
O195 C191 1.295 . S
O196 Fe179 1.997 . S
O196 C191 1.235 . S
C197 O180 1.295 . S
C197 O181 1.235 . S
Fe198 O200 1.918 . S
Fe198 O203 1.997 . S
Fe198 O204 2.002 . S
Fe198 O209 1.976 1_455 S
Fe198 O212 1.996 1_556 S
Fe199 O200 1.918 . S
Fe199 O207 1.997 . S
Fe199 O210 1.996 1_455 S
Fe199 O214 1.976 . S
Fe199 O217 2.002 . S
O200 Fe198 1.918 . S
O200 Fe199 1.918 . S
O200 Fe201 1.896 1_556 S
Fe201 O200 1.896 1_554 S
Fe201 O202 2.011 . S
Fe201 O211 1.999 . S
Fe201 O215 1.993 1_554 S
Fe201 O218 1.977 1_554 S
O202 Fe201 2.011 . S
O202 C219 1.295 . S
O203 Fe198 1.997 . S
O203 C219 1.235 1_556 S
O204 Fe198 2.002 . S
O204 C205 1.295 . S
C205 O204 1.295 . S
C205 O207 1.235 . S
C206 O211 1.287 . S
C206 O212 1.255 . S
O207 Fe199 1.997 . S
O207 C205 1.235 . S
C208 O214 1.287 . S
C208 O215 1.255 . S
O209 Fe198 1.976 1_655 S
O209 C216 1.287 . S
O210 Fe199 1.996 1_655 S
O210 C216 1.255 . S
O211 Fe201 1.999 . S
O211 C206 1.287 . S
O212 Fe198 1.996 1_554 S
O212 C206 1.255 . S
C213 O217 1.295 . S
C213 O218 1.235 . S
O214 Fe199 1.976 . S
O214 C208 1.287 . S
O215 Fe201 1.993 1_556 S
O215 C208 1.255 . S
C216 O209 1.287 . S
C216 O210 1.255 . S
O217 Fe199 2.002 . S
O217 C213 1.295 . S
O218 Fe201 1.977 1_556 S
O218 C213 1.235 . S
C219 O202 1.295 . S
C219 O203 1.235 1_554 S
Fe220 O222 1.918 . S
Fe220 O225 1.997 . S
Fe220 O226 2.002 . S
Fe220 O231 1.976 1_545 S
Fe220 O234 1.996 . S
Fe221 O222 1.918 . S
Fe221 O229 1.997 . S
Fe221 O232 1.996 1_545 S
Fe221 O236 1.976 . S
Fe221 O239 2.002 . S
O222 Fe220 1.918 . S
O222 Fe221 1.918 . S
O222 Fe223 1.918 . S
Fe223 O222 1.918 . S
Fe223 O224 2.002 . S
Fe223 O233 1.976 . S
Fe223 O237 1.996 . S
Fe223 O240 1.997 . S
O224 Fe223 2.002 . S
O224 C241 1.295 . S
O225 Fe220 1.997 . S
O225 C241 1.235 . S
O226 Fe220 2.002 . S
O226 C227 1.295 . S
C227 O226 1.295 . S
C227 O229 1.235 . S
C228 O233 1.287 . S
C228 O234 1.255 . S
O229 Fe221 1.997 . S
O229 C227 1.235 . S
C230 O236 1.287 . S
C230 O237 1.255 . S
O231 Fe220 1.976 1_565 S
O231 C238 1.287 . S
O232 Fe221 1.996 1_565 S
O232 C238 1.255 . S
O233 Fe223 1.976 . S
O233 C228 1.287 . S
O234 Fe220 1.996 . S
O234 C228 1.255 . S
C235 O239 1.295 . S
C235 O240 1.235 . S
O236 Fe221 1.976 . S
O236 C230 1.287 . S
O237 Fe223 1.996 . S
O237 C230 1.255 . S
C238 O231 1.287 . S
C238 O232 1.255 . S
O239 Fe221 2.002 . S
O239 C235 1.295 . S
O240 Fe223 1.997 . S
O240 C235 1.235 . S
C241 O224 1.295 . S
C241 O225 1.235 . S
Fe242 O244 1.918 . S
Fe242 O247 1.997 . S
Fe242 O248 2.002 . S
Fe242 O253 1.976 . S
Fe242 O256 1.996 . S
Fe243 O244 1.918 . S
Fe243 O251 1.997 . S
Fe243 O254 1.996 . S
Fe243 O258 1.976 . S
Fe243 O261 2.002 . S
O244 Fe242 1.918 . S
O244 Fe243 1.918 . S
O244 Fe245 1.918 . S
Fe245 O244 1.918 . S
Fe245 O246 2.002 . S
Fe245 O255 1.976 . S
Fe245 O259 1.996 . S
Fe245 O262 1.997 . S
O246 Fe245 2.002 . S
O246 C263 1.295 . S
O247 Fe242 1.997 . S
O247 C263 1.235 . S
O248 Fe242 2.002 . S
O248 C249 1.295 . S
C249 O248 1.295 . S
C249 O251 1.235 . S
C250 O255 1.287 . S
C250 O256 1.255 . S
O251 Fe243 1.997 . S
O251 C249 1.235 . S
C252 O258 1.287 . S
C252 O259 1.255 . S
O253 Fe242 1.976 . S
O253 C260 1.287 . S
O254 Fe243 1.996 . S
O254 C260 1.255 . S
O255 Fe245 1.976 . S
O255 C250 1.287 . S
O256 Fe242 1.996 . S
O256 C250 1.255 . S
C257 O261 1.295 . S
C257 O262 1.235 . S
O258 Fe243 1.976 . S
O258 C252 1.287 . S
O259 Fe245 1.996 . S
O259 C252 1.255 . S
C260 O253 1.287 . S
C260 O254 1.255 . S
O261 Fe243 2.002 . S
O261 C257 1.295 . S
O262 Fe245 1.997 . S
O262 C257 1.235 . S
C263 O246 1.295 . S
C263 O247 1.235 . S
C117 C18 1.316 1_565 S
C32 C15 1.316 . S
C54 C43 1.316 1_655 S
C65 C84 1.316 1_545 S
C81 C106 1.316 . S
C118 C103 1.316 1_455 S
C169 C150 1.316 1_455 S
C172 C191 1.316 1_565 S
C205 C194 1.316 . S
C227 C206 1.316 1_655 S
C263 C228 1.316 1_565 S
C147 C252 1.316 . S
C257 C8 1.571 1_565 S
C40 C139 1.571 . S
C161 C62 1.571 1_455 S
C183 C74 1.571 1_545 S
C219 C96 1.571 . S
C120 C241 1.571 1_455 S
C140 C37 1.571 1_655 S
C162 C59 1.571 1_565 S
C73 C184 1.571 . S
C95 C208 1.571 1_655 S
C230 C131 1.571 1_545 S
C260 C7 1.571 . S
C142 C10 1.142 . S
C30 C164 1.142 . S
C186 C52 1.142 . S
C76 C216 1.142 . S
C238 C98 1.142 . S
C250 C128 1.142 . S
C153 C21 1.292 . S
C175 C29 1.292 . S
C197 C51 1.292 . S
C87 C213 1.292 . S
C235 C109 1.292 . S
C249 C125 1.292 . S
