# Generated by pormake.
# Topology uol, (4)-cn, num edge types: 1
# Building blocks:
#     Node 0, Type 0, BuildingBlock: MUDLON_clean_sbu_0, # of connection points: 4
#     Node 1, Type 0, BuildingBlock: MUDLON_clean_sbu_0, # of connection points: 4
#     Node 2, Type 0, BuildingBlock: MUDLON_clean_sbu_0, # of connection points: 4
#     Node 3, Type 0, BuildingBlock: MUDLON_clean_sbu_0, # of connection points: 4
#     Node 4, Type 0, BuildingBlock: MUDLON_clean_sbu_0, # of connection points: 4
#     Node 5, Type 0, BuildingBlock: MUDLON_clean_sbu_0, # of connection points: 4
#     Node 6, Type 0, BuildingBlock: MUDLON_clean_sbu_0, # of connection points: 4
#     Node 7, Type 0, BuildingBlock: MUDLON_clean_sbu_0, # of connection points: 4
#     Node 8, Type 0, BuildingBlock: MUDLON_clean_sbu_0, # of connection points: 4
#     Node 9, Type 0, BuildingBlock: MUDLON_clean_sbu_0, # of connection points: 4
#     Node 10, Type 0, BuildingBlock: MUDLON_clean_sbu_0, # of connection points: 4
#     Node 11, Type 0, BuildingBlock: MUDLON_clean_sbu_0, # of connection points: 4
#     Edge 12, Type (0, 0), BuildingBlock: ZUJKAS_clean_linker_0, # of connection points: 2
#     Edge 13, Type (0, 0), BuildingBlock: ZUJKAS_clean_linker_0, # of connection points: 2
#     Edge 14, Type (0, 0), BuildingBlock: ZUJKAS_clean_linker_0, # of connection points: 2
#     Edge 15, Type (0, 0), BuildingBlock: ZUJKAS_clean_linker_0, # of connection points: 2
#     Edge 16, Type (0, 0), BuildingBlock: ZUJKAS_clean_linker_0, # of connection points: 2
#     Edge 17, Type (0, 0), BuildingBlock: ZUJKAS_clean_linker_0, # of connection points: 2
#     Edge 18, Type (0, 0), BuildingBlock: ZUJKAS_clean_linker_0, # of connection points: 2
#     Edge 19, Type (0, 0), BuildingBlock: ZUJKAS_clean_linker_0, # of connection points: 2
#     Edge 20, Type (0, 0), BuildingBlock: ZUJKAS_clean_linker_0, # of connection points: 2
#     Edge 21, Type (0, 0), BuildingBlock: ZUJKAS_clean_linker_0, # of connection points: 2
#     Edge 22, Type (0, 0), BuildingBlock: ZUJKAS_clean_linker_0, # of connection points: 2
#     Edge 23, Type (0, 0), BuildingBlock: ZUJKAS_clean_linker_0, # of connection points: 2
#     Edge 24, Type (0, 0), BuildingBlock: ZUJKAS_clean_linker_0, # of connection points: 2
#     Edge 25, Type (0, 0), BuildingBlock: ZUJKAS_clean_linker_0, # of connection points: 2
#     Edge 26, Type (0, 0), BuildingBlock: ZUJKAS_clean_linker_0, # of connection points: 2
#     Edge 27, Type (0, 0), BuildingBlock: ZUJKAS_clean_linker_0, # of connection points: 2
#     Edge 28, Type (0, 0), BuildingBlock: ZUJKAS_clean_linker_0, # of connection points: 2
#     Edge 29, Type (0, 0), BuildingBlock: ZUJKAS_clean_linker_0, # of connection points: 2
#     Edge 30, Type (0, 0), BuildingBlock: ZUJKAS_clean_linker_0, # of connection points: 2
#     Edge 31, Type (0, 0), BuildingBlock: ZUJKAS_clean_linker_0, # of connection points: 2
#     Edge 32, Type (0, 0), BuildingBlock: ZUJKAS_clean_linker_0, # of connection points: 2
#     Edge 33, Type (0, 0), BuildingBlock: ZUJKAS_clean_linker_0, # of connection points: 2
#     Edge 34, Type (0, 0), BuildingBlock: ZUJKAS_clean_linker_0, # of connection points: 2
#     Edge 35, Type (0, 0), BuildingBlock: ZUJKAS_clean_linker_0, # of connection points: 2
# Relax obj value: 0.130
# Max RMSD: 0.264
# Mean RMSD: 0.264
data_MOF--net-uol--node1-MUDLON_clean_sbu_0--edge1-ZUJKAS_clean_linker_0
_symmetry_space_group_name_H-M    P1
_symmetry_Int_Tables_number       1
_symmetry_cell_setting            triclinic
loop_
_symmetry_equiv_pos_as_xyz
'x, y, z'
_cell_length_a     43.001575
_cell_length_b     43.011443
_cell_length_c     92.274587
_cell_angle_alpha  89.965792
_cell_angle_beta   89.935247
_cell_angle_gamma 119.9917
loop_
_atom_site_label
_atom_site_type_symbol
_atom_site_fract_x
_atom_site_fract_y
_atom_site_fract_z
_atom_type_partial_charge
Mg0 Mg 0.14616 0.34065 0.12022 0.0
C1 C 0.09764 0.31919 0.14547 0.0
O2 O 0.12523 0.35004 0.14938 0.0
C3 C 0.16927 0.34141 0.0897 0.0
O4 O 0.18855 0.37539 0.09335 0.0
C5 C 0.12671 0.39802 0.11654 0.0
O6 O 0.09486 0.36896 0.11656 0.0
O7 O 0.1543 0.39471 0.11809 0.0
O8 O 0.09756 0.30746 0.1328 0.0
O9 O 0.18846 0.33905 0.13238 0.0
C10 C 0.20905 0.36188 0.14166 0.0
O11 O 0.20687 0.39086 0.144 0.0
O12 O 0.14686 0.31942 0.09884 0.0
Mg13 Mg 0.80494 0.13289 0.28756 0.0
C14 C 0.87086 0.20117 0.29923 0.0
O15 O 0.87852 0.20904 0.28545 0.0
C16 C 0.72668 0.11055 0.28411 0.0
O17 O 0.72387 0.07885 0.2855 0.0
C18 C 0.86203 0.14298 0.26527 0.0
O19 O 0.87796 0.13976 0.27684 0.0
O20 O 0.83116 0.1399 0.26657 0.0
O21 O 0.84193 0.17292 0.30274 0.0
O22 O 0.78939 0.08183 0.29821 0.0
C23 C 0.81268 0.07938 0.30586 0.0
O24 O 0.84587 0.10632 0.30585 0.0
O25 O 0.75766 0.13842 0.28465 0.0
Mg26 Mg 0.68143 0.80114 0.4546 0.0
C27 C 0.68168 0.83839 0.48226 0.0
O28 O 0.67945 0.80904 0.48763 0.0
C29 C 0.62018 0.73452 0.44153 0.0
O30 O 0.64497 0.74251 0.43159 0.0
C31 C 0.72297 0.85884 0.43245 0.0
O32 O 0.734 0.87771 0.44445 0.0
O33 O 0.70145 0.82519 0.43335 0.0
O34 O 0.68136 0.84176 0.46858 0.0
O35 O 0.71493 0.78344 0.46538 0.0
C36 C 0.74502 0.80591 0.47089 0.0
O37 O 0.7574 0.84037 0.46883 0.0
O38 O 0.62766 0.75493 0.4525 0.0
Mg39 Mg 0.89842 0.68362 0.62008 0.0
C40 C 0.94456 0.7124 0.64578 0.0
O41 O 0.91479 0.68512 0.65081 0.0
C42 C 0.86605 0.68626 0.59207 0.0
O43 O 0.84191 0.65519 0.5975 0.0
C44 C 0.86805 0.60226 0.6168 0.0
O45 O 0.83704 0.60084 0.61855 0.0
O46 O 0.89681 0.63257 0.61711 0.0
O47 O 0.9467 0.71929 0.63228 0.0
O48 O 0.85445 0.67927 0.63322 0.0
C49 C 0.85244 0.70778 0.63351 0.0
O50 O 0.87509 0.73521 0.62556 0.0
O51 O 0.89481 0.70528 0.59917 0.0
Mg52 Mg 0.22562 0.89547 0.78879 0.0
C53 C 0.15616 0.82826 0.79671 0.0
O54 O 0.1517 0.82797 0.78262 0.0
C55 C 0.30213 0.91646 0.782 0.0
O56 O 0.30392 0.94778 0.78089 0.0
C57 C 0.20923 0.88311 0.75668 0.0
O58 O 0.2361 0.87681 0.75736 0.0
O59 O 0.20019 0.89332 0.76807 0.0
O60 O 0.18546 0.85241 0.80221 0.0
O61 O 0.24133 0.94485 0.80075 0.0
C62 C 0.21747 0.9474 0.80797 0.0
O63 O 0.18395 0.92129 0.8071 0.0
O64 O 0.2723 0.88912 0.78541 0.0
Mg65 Mg 0.36085 0.22323 0.9559 0.0
C66 C 0.33695 0.15146 0.96891 0.0
O67 O 0.3147 0.14344 0.95798 0.0
C68 C 0.42006 0.29018 0.94238 0.0
O69 O 0.3937 0.28221 0.93325 0.0
C70 C 0.31896 0.19478 0.92681 0.0
O71 O 0.30195 0.21183 0.93052 0.0
O72 O 0.34324 0.19613 0.93508 0.0
O73 O 0.36119 0.18403 0.97077 0.0
O74 O 0.32617 0.24127 0.96557 0.0
C75 C 0.2967 0.21929 0.97171 0.0
O76 O 0.28543 0.18478 0.97097 0.0
O77 O 0.41432 0.26971 0.95323 0.0
Mg78 Mg 0.67936 0.88179 0.74855 0.0
C79 C 0.68511 0.81737 0.73865 0.0
O80 O 0.69216 0.81662 0.75245 0.0
C81 C 0.62565 0.90701 0.75152 0.0
O82 O 0.65567 0.93805 0.75132 0.0
C83 C 0.72653 0.88434 0.77439 0.0
O84 O 0.75345 0.90338 0.76555 0.0
O85 O 0.69463 0.87376 0.77017 0.0
O86 O 0.67679 0.84031 0.73426 0.0
O87 O 0.71739 0.93223 0.73804 0.0
C88 C 0.74292 0.9332 0.73068 0.0
O89 O 0.74743 0.90516 0.73097 0.0
O90 O 0.62719 0.87836 0.75029 0.0
Mg91 Mg 0.81846 0.68888 0.91715 0.0
C92 C 0.77656 0.71509 0.89935 0.0
O93 O 0.75045 0.68235 0.90208 0.0
C94 C 0.84922 0.68919 0.94599 0.0
O95 O 0.83492 0.65545 0.94201 0.0
C96 C 0.758 0.6105 0.91374 0.0
O97 O 0.77665 0.6116 0.90228 0.0
O98 O 0.76923 0.63838 0.92159 0.0
O99 O 0.80724 0.72571 0.90499 0.0
O100 O 0.85615 0.68243 0.90358 0.0
C101 C 0.85195 0.67988 0.88991 0.0
O102 O 0.82285 0.67778 0.88434 0.0
O103 O 0.84598 0.71092 0.93762 0.0
Mg104 Mg 0.14718 0.80496 0.08615 0.0
C105 C 0.19651 0.87892 0.07525 0.0
O106 O 0.17834 0.88486 0.08525 0.0
C107 C 0.12817 0.72907 0.09218 0.0
O108 O 0.09651 0.72667 0.09289 0.0
C109 C 0.15177 0.81714 0.11886 0.0
O110 O 0.15446 0.78804 0.11875 0.0
O111 O 0.1468 0.82895 0.10696 0.0
O112 O 0.19022 0.84701 0.07332 0.0
O113 O 0.0979 0.78637 0.07361 0.0
C114 C 0.09046 0.80825 0.06738 0.0
O115 O 0.11156 0.84284 0.06946 0.0
O116 O 0.15554 0.75946 0.08945 0.0
Mg117 Mg 0.34394 0.13525 0.25024 0.0
C118 C 0.31861 0.17982 0.23648 0.0
O119 O 0.28929 0.15221 0.24165 0.0
C120 C 0.39805 0.11265 0.25755 0.0
O121 O 0.36803 0.08216 0.25948 0.0
C122 C 0.33756 0.14352 0.28252 0.0
O123 O 0.37071 0.14972 0.28198 0.0
O124 O 0.31907 0.13473 0.27093 0.0
O125 O 0.34848 0.18117 0.23856 0.0
O126 O 0.31093 0.08973 0.2362 0.0
C127 C 0.29163 0.05694 0.23981 0.0
O128 O 0.29001 0.04767 0.25348 0.0
O129 O 0.39639 0.14008 0.25353 0.0
Mg130 Mg 0.218 0.34046 0.41693 0.0
C131 C 0.24178 0.31409 0.39228 0.0
O132 O 0.24097 0.34208 0.38702 0.0
C133 C 0.1922 0.34182 0.44699 0.0
O134 O 0.20656 0.37571 0.44322 0.0
C135 C 0.28761 0.3993 0.42917 0.0
O136 O 0.28153 0.37291 0.43803 0.0
O137 O 0.26512 0.3936 0.41914 0.0
O138 O 0.23356 0.30592 0.40554 0.0
O139 O 0.17804 0.34228 0.40306 0.0
C140 C 0.14508 0.32549 0.40667 0.0
O141 O 0.13598 0.3091 0.41928 0.0
O142 O 0.19381 0.31998 0.43814 0.0
Mg143 Mg 0.88715 0.21609 0.5842 0.0
C144 C 0.82171 0.14637 0.57427 0.0
O145 O 0.81472 0.14244 0.58823 0.0
C146 C 0.9027 0.29092 0.59039 0.0
O147 O 0.93442 0.29423 0.59253 0.0
C148 C 0.88899 0.16685 0.60777 0.0
O149 O 0.90188 0.15638 0.59711 0.0
O150 O 0.88202 0.1919 0.60549 0.0
O151 O 0.84881 0.17502 0.56971 0.0
O152 O 0.93934 0.23573 0.57383 0.0
C153 C 0.94441 0.21442 0.56592 0.0
O154 O 0.91917 0.18051 0.56529 0.0
O155 O 0.87684 0.26055 0.58654 0.0
H156 H 0.07426 0.6605 0.09717 0.0
H157 H 0.07927 0.60705 0.10112 0.0
H158 H 0.19428 0.6704 0.09651 0.0
H159 H 0.1896 0.72434 0.09263 0.0
H160 H 0.10972 0.57769 0.08194 0.0
H161 H 0.17995 0.61551 0.13511 0.0
H162 H 0.15707 0.63758 0.12777 0.0
H163 H 0.20008 0.6478 0.12072 0.0
C164 C 0.10069 0.66322 0.09704 0.0
C165 C 0.13155 0.69678 0.09461 0.0
C166 C 0.10347 0.63257 0.09929 0.0
C167 C 0.13714 0.6348 0.09927 0.0
C168 C 0.16807 0.66819 0.0968 0.0
H169 H 0.18836 0.46346 0.1137 0.0
H170 H 0.19305 0.52181 0.10898 0.0
C171 C 0.16531 0.69894 0.09451 0.0
C172 C 0.13943 0.60181 0.10145 0.0
H173 H 0.16833 0.56033 0.12503 0.0
C174 C 0.12264 0.57392 0.09133 0.0
C175 C 0.15653 0.59709 0.11366 0.0
C176 C 0.17426 0.6259 0.12503 0.0
C177 C 0.12218 0.54129 0.09315 0.0
C178 C 0.13827 0.53609 0.10559 0.0
C179 C 0.15591 0.56433 0.11552 0.0
C180 C 0.13568 0.501 0.10876 0.0
C181 C 0.10461 0.51275 0.08166 0.0
C182 C 0.10193 0.47011 0.11051 0.0
C183 C 0.09915 0.43684 0.11316 0.0
C184 C 0.13011 0.43374 0.11425 0.0
C185 C 0.16398 0.46489 0.11287 0.0
C186 C 0.16672 0.49824 0.11018 0.0
H187 H 0.10341 0.52445 0.07108 0.0
H188 H 0.1192 0.49776 0.08015 0.0
H189 H 0.07667 0.49341 0.08502 0.0
H190 H 0.07763 0.47173 0.10981 0.0
H191 H 0.07265 0.41351 0.1143 0.0
H192 H 0.65678 0.05638 0.28375 0.0
H193 H 0.60314 0.06094 0.27944 0.0
H194 H 0.66884 0.17573 0.27487 0.0
H195 H 0.72284 0.17147 0.2791 0.0
H196 H 0.57879 0.10168 0.29545 0.0
H197 H 0.60656 0.14386 0.23767 0.0
H198 H 0.62918 0.124 0.24708 0.0
H199 H 0.64201 0.17005 0.25026 0.0
C200 C 0.65992 0.08263 0.2818 0.0
C201 C 0.69417 0.11355 0.28171 0.0
C202 C 0.6292 0.08517 0.27936 0.0
C203 C 0.63206 0.1186 0.27666 0.0
C204 C 0.66611 0.1496 0.27669 0.0
H205 H 0.46541 0.17214 0.25616 0.0
H206 H 0.52291 0.17546 0.26133 0.0
C207 C 0.69691 0.14712 0.27919 0.0
C208 C 0.5992 0.12081 0.27401 0.0
H209 H 0.55476 0.14029 0.24812 0.0
C210 C 0.57353 0.11018 0.28512 0.0
C211 C 0.59255 0.13213 0.26055 0.0
C212 C 0.61883 0.14294 0.24813 0.0
C213 C 0.54131 0.11047 0.28311 0.0
C214 C 0.53422 0.12091 0.26952 0.0
C215 C 0.56022 0.13224 0.25851 0.0
C216 C 0.49945 0.11899 0.26637 0.0
C217 C 0.51533 0.09991 0.29563 0.0
C218 C 0.46725 0.08605 0.26724 0.0
C219 C 0.43443 0.08407 0.26434 0.0
C220 C 0.4331 0.11496 0.26036 0.0
C221 C 0.46547 0.14786 0.25924 0.0
C222 C 0.49835 0.14982 0.26218 0.0
H223 H 0.529 0.10315 0.30619 0.0
H224 H 0.50183 0.11619 0.29578 0.0
H225 H 0.49444 0.07124 0.29451 0.0
H226 H 0.46751 0.06176 0.27011 0.0
H227 H 0.41009 0.05825 0.2652 0.0
H228 H 0.56413 0.70746 0.46087 0.0
H229 H 0.50678 0.65121 0.45902 0.0
H230 H 0.53826 0.63073 0.41733 0.0
H231 H 0.59574 0.68651 0.41916 0.0
H232 H 0.45229 0.62749 0.43837 0.0
H233 H 0.51187 0.53911 0.43998 0.0
H234 H 0.53695 0.58606 0.44472 0.0
H235 H 0.53015 0.57264 0.426 0.0
C236 C 0.55885 0.69102 0.4513 0.0
C237 C 0.58468 0.70137 0.44022 0.0
C238 C 0.52604 0.65889 0.45026 0.0
C239 C 0.5185 0.63647 0.43815 0.0
C240 C 0.54382 0.64722 0.42691 0.0
H241 H 0.31129 0.45835 0.41159 0.0
H242 H 0.36653 0.51633 0.41402 0.0
C243 C 0.57662 0.67925 0.42795 0.0
C244 C 0.48423 0.6018 0.43729 0.0
H245 H 0.44989 0.51133 0.43416 0.0
C246 C 0.45171 0.60206 0.4375 0.0
C247 C 0.48352 0.56861 0.43636 0.0
C248 C 0.51745 0.5664 0.43689 0.0
C249 C 0.41851 0.57005 0.43653 0.0
C250 C 0.41788 0.53697 0.43508 0.0
C251 C 0.4504 0.53671 0.43513 0.0
C252 C 0.38383 0.50219 0.43373 0.0
C253 C 0.38443 0.57191 0.43732 0.0
C254 C 0.37551 0.47467 0.44382 0.0
C255 C 0.34415 0.44141 0.44238 0.0
C256 C 0.32046 0.4349 0.43079 0.0
C257 C 0.32882 0.46253 0.42069 0.0
C258 C 0.36029 0.49579 0.42212 0.0
H259 H 0.38913 0.59739 0.44233 0.0
H260 H 0.37408 0.57058 0.42619 0.0
H261 H 0.36343 0.54907 0.44365 0.0
H262 H 0.39334 0.47894 0.45283 0.0
H263 H 0.33859 0.42077 0.45035 0.0
H264 H 0.92772 0.59506 0.61544 0.0
H265 H 0.93033 0.54038 0.61093 0.0
H266 H 0.81491 0.4795 0.60788 0.0
H267 H 0.81194 0.53409 0.61239 0.0
H268 H 0.8951 0.47397 0.6276 0.0
H269 H 0.85191 0.45563 0.56992 0.0
H270 H 0.86877 0.49795 0.57923 0.0
H271 H 0.82395 0.46207 0.58266 0.0
C272 C 0.90285 0.57009 0.61379 0.0
C273 C 0.86961 0.569 0.61424 0.0
C274 C 0.90442 0.53886 0.61123 0.0
C275 C 0.87286 0.50601 0.60891 0.0
C276 C 0.83961 0.5047 0.60944 0.0
H277 H 0.83993 0.29289 0.58862 0.0
H278 H 0.83129 0.34409 0.5935 0.0
C279 C 0.83798 0.53591 0.6121 0.0
C280 C 0.87488 0.47308 0.60619 0.0
H281 H 0.86143 0.41089 0.58028 0.0
C282 C 0.88773 0.46013 0.61726 0.0
C283 C 0.865 0.45501 0.59273 0.0
C284 C 0.85185 0.46837 0.58038 0.0
C285 C 0.89093 0.42948 0.61525 0.0
C286 C 0.88185 0.41183 0.60167 0.0
C287 C 0.86844 0.42448 0.59067 0.0
C288 C 0.88707 0.38085 0.59855 0.0
C289 C 0.90354 0.41602 0.62776 0.0
C290 C 0.92138 0.38469 0.59949 0.0
C291 C 0.92639 0.35553 0.59675 0.0
C292 C 0.89722 0.32194 0.59287 0.0
C293 C 0.86295 0.31834 0.59162 0.0
C294 C 0.85796 0.34757 0.59441 0.0
H295 H 0.89908 0.42559 0.63832 0.0
H296 H 0.88952 0.38623 0.62795 0.0
H297 H 0.93277 0.42629 0.62662 0.0
H298 H 0.94439 0.41033 0.60231 0.0
H299 H 0.95319 0.35939 0.5977 0.0
H300 H 0.55901 0.84754 0.75518 0.0
H301 H 0.50199 0.84596 0.75956 0.0
H302 H 0.55644 0.96151 0.75743 0.0
H303 H 0.61337 0.96341 0.75299 0.0
H304 H 0.48575 0.87944 0.7828 0.0
H305 H 0.47151 0.92952 0.72921 0.0
H306 H 0.50153 0.9122 0.73224 0.0
H307 H 0.51422 0.95708 0.73774 0.0
C308 C 0.55881 0.87261 0.75553 0.0
C309 C 0.59077 0.90561 0.75369 0.0
C310 C 0.52622 0.87164 0.75806 0.0
C311 C 0.52492 0.90358 0.75864 0.0
C312 C 0.55672 0.93651 0.75677 0.0
H313 H 0.36997 0.9702 0.77553 0.0
H314 H 0.42276 0.96491 0.77013 0.0
C315 C 0.5893 0.93753 0.75431 0.0
C316 C 0.49063 0.90276 0.76169 0.0
H317 H 0.43249 0.92752 0.74795 0.0
C318 C 0.47385 0.8896 0.77515 0.0
C319 C 0.47526 0.91611 0.75168 0.0
C320 C 0.49132 0.92924 0.73685 0.0
C321 C 0.44275 0.89059 0.77906 0.0
C322 C 0.42767 0.90445 0.76913 0.0
C323 C 0.44413 0.917 0.75557 0.0
C324 C 0.39543 0.9072 0.7727 0.0
C325 C 0.42709 0.87798 0.79399 0.0
C326 C 0.36239 0.87646 0.77586 0.0
C327 C 0.3321 0.8794 0.77903 0.0
C328 C 0.33423 0.91313 0.77896 0.0
C329 C 0.36734 0.94381 0.77571 0.0
C330 C 0.39757 0.94084 0.77259 0.0
H331 H 0.44662 0.87663 0.80146 0.0
H332 H 0.41831 0.89604 0.79877 0.0
H333 H 0.40328 0.85067 0.7932 0.0
H334 H 0.3599 0.85014 0.77572 0.0
H335 H 0.30696 0.85521 0.78138 0.0
H336 H 0.47986 0.3166 0.95969 0.0
H337 H 0.53785 0.37136 0.95597 0.0
H338 H 0.49879 0.39189 0.91615 0.0
H339 H 0.44076 0.33771 0.91987 0.0
H340 H 0.58651 0.3905 0.9334 0.0
H341 H 0.53661 0.48659 0.93772 0.0
H342 H 0.51017 0.44027 0.94328 0.0
H343 H 0.51305 0.45223 0.92444 0.0
C344 C 0.48358 0.33282 0.95016 0.0
C345 C 0.45555 0.32286 0.94013 0.0
C346 C 0.51675 0.36409 0.94805 0.0
C347 C 0.52245 0.38606 0.93591 0.0
C348 C 0.49475 0.37583 0.92577 0.0
H349 H 0.72406 0.54778 0.89835 0.0
H350 H 0.66776 0.49333 0.90432 0.0
C351 C 0.46161 0.34467 0.92787 0.0
C352 C 0.55755 0.41934 0.93368 0.0
H353 H 0.59599 0.50982 0.92852 0.0
C354 C 0.58865 0.41663 0.93242 0.0
C355 C 0.5604 0.4535 0.93262 0.0
C356 C 0.52835 0.45849 0.93473 0.0
C357 C 0.62236 0.44703 0.92974 0.0
C358 C 0.62493 0.48095 0.92802 0.0
C359 C 0.59397 0.48377 0.92967 0.0
C360 C 0.65941 0.51387 0.92447 0.0
C361 C 0.65496 0.44255 0.92895 0.0
C362 C 0.67303 0.54393 0.93361 0.0
C363 C 0.70507 0.57527 0.93016 0.0
C364 C 0.7241 0.57723 0.91745 0.0
C365 C 0.71027 0.54713 0.90828 0.0
C366 C 0.67817 0.51585 0.91172 0.0
H367 H 0.6503 0.41772 0.93457 0.0
H368 H 0.66111 0.44052 0.91743 0.0
H369 H 0.67877 0.46587 0.93384 0.0
H370 H 0.65891 0.5431 0.94346 0.0
H371 H 0.71489 0.59794 0.93746 0.0
H372 H 0.37338 0.24114 0.22416 0.0
H373 H 0.36785 0.28558 0.20935 0.0
H374 H 0.25273 0.22494 0.21434 0.0
H375 H 0.25799 0.18121 0.22928 0.0
H376 H 0.33412 0.27621 0.18375 0.0
H377 H 0.27254 0.32457 0.22364 0.0
H378 H 0.29354 0.29892 0.22887 0.0
H379 H 0.24765 0.27654 0.22267 0.0
C380 C 0.34695 0.23757 0.22224 0.0
C381 C 0.31614 0.20771 0.22796 0.0
C382 C 0.34384 0.26297 0.21378 0.0
C383 C 0.30993 0.25901 0.21099 0.0
C384 C 0.27926 0.2292 0.21669 0.0
H385 H 0.2157 0.30213 0.14054 0.0
H386 H 0.24819 0.28473 0.15713 0.0
C387 C 0.28232 0.20399 0.22515 0.0
C388 C 0.30583 0.2843 0.2013 0.0
H389 H 0.26029 0.33007 0.19834 0.0
C390 C 0.31864 0.28865 0.18702 0.0
C391 C 0.28644 0.30135 0.20562 0.0
C392 C 0.27464 0.30044 0.2211 0.0
C393 C 0.31012 0.30716 0.17667 0.0
C394 C 0.28747 0.32089 0.18064 0.0
C395 C 0.27712 0.31903 0.19519 0.0
C396 C 0.27111 0.33374 0.1697 0.0
C397 C 0.32487 0.31112 0.16152 0.0
C398 C 0.27259 0.36694 0.17133 0.0
C399 C 0.25346 0.37683 0.16191 0.0
C400 C 0.23236 0.35357 0.15076 0.0
C401 C 0.23178 0.32082 0.14895 0.0
C402 C 0.25069 0.31093 0.15837 0.0
H403 H 0.35127 0.31227 0.16163 0.0
H404 H 0.30618 0.28739 0.155 0.0
H405 H 0.32814 0.33567 0.15612 0.0
H406 H 0.28792 0.38485 0.18007 0.0
H407 H 0.25445 0.40221 0.16362 0.0
H408 H 0.86254 0.193 0.32859 0.0
H409 H 0.90878 0.22181 0.34711 0.0
H410 H 0.9864 0.28418 0.31417 0.0
H411 H 0.94013 0.25588 0.29553 0.0
H412 H 0.96918 0.21548 0.34794 0.0
H413 H 1.00746 0.35924 0.34547 0.0
H414 H 0.96639 0.32408 0.33764 0.0
H415 H 1.00839 0.34007 0.3283 0.0
C416 C 0.88927 0.21334 0.32528 0.0
C417 C 0.89766 0.22205 0.31056 0.0
C418 C 0.91567 0.22978 0.3359 0.0
C419 C 0.95097 0.25534 0.33205 0.0
C420 C 0.95919 0.26506 0.31742 0.0
H421 H 0.15364 0.34797 0.37837 0.0
H422 H 0.10632 0.33322 0.36042 0.0
C423 C 0.93272 0.24869 0.30677 0.0
C424 C 0.9797 0.2689 0.34316 0.0
H425 H 0.04516 0.34488 0.35946 0.0
C426 C 0.98559 0.24376 0.35053 0.0
C427 C 1.00132 0.30583 0.34641 0.0
C428 C 0.99547 0.3339 0.33914 0.0
C429 C 1.01269 0.25449 0.36096 0.0
C430 C 0.03416 0.29136 0.36431 0.0
C431 C 0.02853 0.31662 0.35689 0.0
C432 C 0.06261 0.30383 0.37548 0.0
C433 C 0.01862 0.22629 0.36812 0.0
C434 C 0.05363 0.29318 0.38997 0.0
C435 C 0.08051 0.30144 0.40022 0.0
C436 C 0.11693 0.3207 0.3962 0.0
C437 C 0.12586 0.33298 0.38182 0.0
C438 C 0.09888 0.32463 0.37155 0.0
H439 H 1.00587 0.20071 0.36194 0.0
H440 H 0.04773 0.2358 0.36922 0.0
H441 H 1.00663 0.22065 0.37914 0.0
H442 H 0.02576 0.27759 0.39325 0.0
H443 H 0.07268 0.29185 0.41122 0.0
H444 H 0.76253 0.08116 0.58026 0.0
H445 H 0.73323 0.02888 0.56424 0.0
H446 H 0.80521 0.09035 0.5296 0.0
H447 H 0.83468 0.14274 0.54546 0.0
H448 H 0.70148 0.02083 0.53422 0.0
H449 H 0.8199 1.00143 0.53775 0.0
H450 H 0.81169 0.0279 0.55075 0.0
H451 H 0.82892 0.04581 0.5331 0.0
C452 C 0.77184 0.08374 0.56918 0.0
C453 C 0.80114 0.11607 0.56418 0.0
C454 C 0.75502 0.05386 0.56005 0.0
C455 C 0.76735 0.05575 0.54582 0.0
C456 C 0.79554 0.08835 0.5406 0.0
H457 H 0.6875 0.90287 0.47487 0.0
H458 H 0.70502 0.95486 0.49061 0.0
C459 C 0.81227 0.11826 0.54968 0.0
C460 C 0.75233 0.0231 0.53672 0.0
H461 H 0.77328 0.96312 0.52196 0.0
C462 C 0.71708 1.00814 0.53151 0.0
C463 C 0.77272 1.00651 0.53338 0.0
C464 C 0.81034 0.02095 0.53909 0.0
C465 C 0.70186 0.97716 0.52282 0.0
C466 C 0.72252 0.96097 0.51928 0.0
C467 C 0.75758 0.97571 0.52466 0.0
C468 C 0.70845 0.92857 0.51004 0.0
C469 C 0.66371 0.96166 0.51763 0.0
C470 C 0.70452 0.89659 0.51576 0.0
C471 C 0.69449 0.86685 0.50683 0.0
C472 C 0.6886 0.86867 0.49194 0.0
C473 C 0.69175 0.90053 0.48629 0.0
C474 C 0.70161 0.93023 0.49528 0.0
H475 H 0.64915 0.97286 0.52365 0.0
H476 H 0.66388 0.96803 0.50596 0.0
H477 H 0.64882 0.93199 0.51881 0.0
H478 H 0.70986 0.89487 0.52712 0.0
H479 H 0.6924 0.8428 0.51154 0.0
H480 H 0.80535 0.65884 0.65325 0.0
H481 H 0.76898 0.66864 0.67126 0.0
H482 H 0.80777 0.7754 0.65453 0.0
H483 H 0.84394 0.76601 0.6366 0.0
H484 H 0.8167 0.76876 0.6857 0.0
H485 H 0.67719 0.68033 0.66584 0.0
H486 H 0.70671 0.66195 0.66675 0.0
H487 H 0.71578 0.69695 0.65401 0.0
C488 C 0.80571 0.6842 0.65328 0.0
C489 C 0.82767 0.7117 0.64353 0.0
C490 C 0.78485 0.68969 0.66354 0.0
C491 C 0.78565 0.72269 0.66415 0.0
C492 C 0.80677 0.74973 0.65419 0.0
H493 H 0.67853 0.81635 0.70909 0.0
H494 H 0.6995 0.78817 0.69158 0.0
C495 C 0.82744 0.74427 0.64395 0.0
C496 C 0.7668 0.73045 0.67579 0.0
H497 H 0.68409 0.71319 0.68727 0.0
C498 C 0.7877 0.75639 0.68614 0.0
C499 C 0.72901 0.7144 0.67621 0.0
C500 C 0.70564 0.68695 0.6651 0.0
C501 C 0.77185 0.76716 0.69683 0.0
C502 C 0.73404 0.75127 0.69724 0.0
C503 C 0.71304 0.72504 0.68697 0.0
C504 C 0.71639 0.7634 0.7078 0.0
C505 C 0.79574 0.79633 0.7073 0.0
C506 C 0.71786 0.75775 0.72269 0.0
C507 C 0.70594 0.77383 0.73274 0.0
C508 C 0.69235 0.79586 0.72805 0.0
C509 C 0.68898 0.79969 0.71308 0.0
C510 C 0.70087 0.78354 0.70304 0.0
H511 H 0.82436 0.81019 0.7039 0.0
H512 H 0.78706 0.8166 0.70835 0.0
H513 H 0.79372 0.78435 0.71816 0.0
H514 H 0.72946 0.74198 0.72655 0.0
H515 H 0.70872 0.77011 0.74418 0.0
H516 H 0.92149 0.70173 0.8974 0.0
H517 H 0.97228 0.71883 0.88102 0.0
H518 H 0.90063 0.68573 0.84437 0.0
H519 H 0.84983 0.66954 0.86063 0.0
H520 H 0.99066 0.68497 0.86022 0.0
H521 H 0.96939 0.79044 0.83535 0.0
H522 H 0.94619 0.76663 0.85154 0.0
H523 H 0.93111 0.74616 0.83404 0.0
C524 C 0.91644 0.69765 0.88587 0.0
C525 C 0.88168 0.68479 0.8803 0.0
C526 C 0.94553 0.70744 0.87652 0.0
C527 C 0.94037 0.70439 0.86146 0.0
C528 C 0.90536 0.68923 0.85594 0.0
H529 H 0.08779 0.77939 0.7885 0.0
H530 H 0.03567 0.7452 0.80417 0.0
C531 C 0.87632 0.67979 0.86526 0.0
C532 C 0.97177 0.71906 0.85154 0.0
H533 H 1.0144 0.7814 0.82489 0.0
C534 C 0.99586 0.70602 0.85249 0.0
C535 C 0.97871 0.7468 0.84154 0.0
C536 C 0.95522 0.76362 0.84062 0.0
C537 C 0.02644 0.71972 0.84356 0.0
C538 C 0.03309 0.7472 0.83352 0.0
C539 C 1.00898 0.76008 0.83253 0.0
C540 C 0.06547 0.76402 0.82418 0.0
C541 C 0.05128 0.70458 0.84481 0.0
C542 C 0.09957 0.78559 0.83026 0.0
C543 C 0.12946 0.80537 0.82133 0.0
C544 C 0.1257 0.80395 0.80616 0.0
C545 C 0.09169 0.78114 0.80013 0.0
C546 C 0.06184 0.76155 0.80906 0.0
H547 H 0.03855 0.6786 0.85074 0.0
H548 H 0.0597 0.70059 0.83391 0.0
H549 H 0.07578 0.72386 0.8508 0.0
H550 H 0.10283 0.78828 0.84191 0.0
H551 H 0.15524 0.8227 0.82633 0.0
H552 H 0.24789 0.88121 0.05685 0.0
H553 H 0.28557 0.92932 0.0398 0.0
H554 H 0.2356 0.98972 0.05384 0.0
H555 H 0.19951 0.94295 0.07125 0.0
H556 H 0.26806 0.95212 1.01742 0.0
H557 H 0.33628 0.06825 0.05378 0.0
H558 H 0.31174 0.02292 0.06063 0.0
H559 H 0.2889 0.04758 0.05671 0.0
C560 C 0.2455 0.9051 0.05645 0.0
C561 C 0.22094 0.90841 0.06547 0.0
C562 C 0.26702 0.93257 0.04671 0.0
C563 C 0.26413 0.96367 0.04573 0.0
C564 C 0.23949 0.96679 0.05473 0.0
H565 H 0.27737 0.08598 0.97228 0.0
H566 H 0.26599 0.04073 0.99053 0.0
C567 C 0.21853 0.93975 0.06462 0.0
C568 C 0.28422 0.99145 0.03448 0.0
H569 H 0.32789 0.08201 0.02887 0.0
C570 C 0.28181 0.98052 0.01999 0.0
C571 C 0.30321 0.02861 0.03773 0.0
C572 C 0.31053 0.04241 0.05309 0.0
C573 C 0.29546 1.00562 1.00864 0.0
C574 C 0.31062 0.04263 1.0118 0.0
C575 C 0.31549 0.05366 0.02635 0.0
C576 C 0.31878 0.06987 1.00027 0.0
C577 C 0.2931 0.99201 0.99338 0.0
C578 C 0.35183 0.10221 0.99994 0.0
C579 C 0.3581 0.12877 0.98967 0.0
C580 C 0.33151 0.1233 0.9795 0.0
C581 C 0.29865 0.09085 0.97981 0.0
C582 C 0.2922 0.0647 0.99018 0.0
H583 H 0.29505 0.96721 0.9933 0.0
H584 H 0.26665 0.98507 0.9887 0.0
H585 H 0.31464 0.01236 0.98634 0.0
H586 H 0.37266 0.10703 1.00769 0.0
H587 H 0.38366 0.15355 0.98972 0.0
H588 H 0.14093 0.27206 0.07995 0.0
H589 H 0.15839 0.25183 0.05815 0.0
H590 H 0.23129 0.36187 0.04626 0.0
H591 H 0.21436 0.3823 0.06799 0.0
H592 H 0.1582 0.26795 0.02769 0.0
H593 H 0.29565 0.31604 0.04893 0.0
H594 H 0.2592 0.31094 0.06029 0.0
H595 H 0.2821 0.34935 0.04861 0.0
C596 C 0.16042 0.29196 0.07262 0.0
C597 C 0.17653 0.3288 0.07581 0.0
C598 C 0.17034 0.28035 0.06017 0.0
C599 C 0.1966 0.30535 0.05073 0.0
C600 C 0.21147 0.34211 0.05354 0.0
H601 H 0.31562 0.28903 0.9777 0.0
H602 H 0.28866 0.31019 0.99572 0.0
C603 C 0.20164 0.35373 0.06596 0.0
C604 C 0.20965 0.29314 0.03828 0.0
H605 H 0.28451 0.29488 0.02481 0.0
C606 C 0.18578 0.27374 0.02705 0.0
C607 C 0.24565 0.30073 0.03748 0.0
C608 C 0.27213 0.32013 0.04951 0.0
C609 C 0.19716 0.26227 1.0149 0.0
C610 C 0.23319 0.26989 1.01411 0.0
C611 C 0.25698 0.28929 0.02536 0.0
C612 C 0.24676 0.25709 1.00201 0.0
C613 C 0.1707 0.24267 1.00291 0.0
C614 C 0.23194 0.22021 0.99942 0.0
C615 C 0.24724 0.20802 0.98911 0.0
C616 C 0.2779 0.23247 0.98124 0.0
C617 C 0.29202 0.26945 0.98354 0.0
C618 C 0.27667 0.28161 0.99386 0.0
H619 H 0.14799 0.24808 1.0031 0.0
H620 H 0.1839 0.25043 0.99212 0.0
H621 H 0.15946 0.21335 1.00432 0.0
H622 H 0.20936 0.20073 1.00577 0.0
H623 H 0.23573 0.17935 0.98768 0.0
H624 H 0.93139 0.16041 0.25967 0.0
H625 H 0.96539 0.18505 0.23728 0.0
H626 H 0.8711 0.17546 0.21662 0.0
H627 H 0.83699 0.15145 0.23908 0.0
H628 H 0.95718 0.15976 0.20918 0.0
H629 H 0.9439 0.28171 0.21168 0.0
H630 H 0.93195 0.25087 0.22667 0.0
H631 H 0.90211 0.24001 0.21149 0.0
C632 C 0.91774 0.16326 0.25035 0.0
C633 C 0.88153 0.1543 0.25124 0.0
C634 C 0.93724 0.17733 0.23753 0.0
C635 C 0.92099 0.18274 0.22535 0.0
C636 C 0.88442 0.17228 0.22598 0.0
H637 H 0.037 0.25302 0.14179 0.0
H638 H 0.99102 0.21779 0.16003 0.0
C639 C 0.86491 0.15836 0.23882 0.0
C640 C 0.94287 0.20064 0.21225 0.0
H641 H 0.9749 0.27655 0.19161 0.0
C642 C 0.96088 0.18517 0.20526 0.0
C643 C 0.94796 0.234 0.20725 0.0
C644 C 0.93076 0.25287 0.21471 0.0
C645 C 0.98425 0.2024 0.19355 0.0
C646 C 0.98929 0.23574 0.18854 0.0
C647 C 0.97077 0.25085 0.19538 0.0
C648 C 1.01603 0.257 0.17714 0.0
C649 C 1.00449 0.18552 0.18703 0.0
C650 C 0.04472 0.29113 0.18055 0.0
C651 C 0.0707 0.31136 0.17017 0.0
C652 C 0.06864 0.29798 0.15608 0.0
C653 C 0.03947 0.26404 0.15256 0.0
C654 C 1.01332 0.24377 0.16299 0.0
H655 H 1.00335 0.16397 0.19405 0.0
H656 H 0.99243 0.17347 0.17641 0.0
H657 H 0.03308 0.20599 0.18518 0.0
H658 H 0.04734 0.30196 0.19137 0.0
H659 H 0.09271 0.33738 0.17329 0.0
H660 H 0.74474 0.02411 0.31191 0.0
H661 H 0.72696 0.97979 0.33146 0.0
H662 H 0.83809 0.02288 0.3431 0.0
H663 H 0.85615 0.0669 0.32355 0.0
H664 H 0.79672 0.94653 0.34428 0.0
H665 H 0.73247 0.01232 0.37396 0.0
H666 H 0.71661 0.998 0.35582 0.0
H667 H 0.76206 0.03319 0.35872 0.0
C668 C 0.76544 0.02381 0.31848 0.0
C669 C 0.80186 0.04934 0.31626 0.0
C670 C 0.75521 0.99857 0.3297 0.0
C671 C 0.78118 0.99847 0.33889 0.0
C672 C 0.8176 0.02259 0.33618 0.0
H673 H 0.76721 0.93027 0.42716 0.0
H674 H 0.78081 0.96137 0.40388 0.0
C675 C 0.82786 0.04781 0.325 0.0
C676 C 0.77059 0.975 0.3519 0.0
H677 H 0.72997 0.96175 0.38495 0.0
C678 C 0.78188 0.9496 0.35314 0.0
C679 C 0.75167 0.97947 0.36352 0.0
C680 C 0.74019 1.00738 0.36307 0.0
C681 C 0.7749 0.92866 0.36574 0.0
C682 C 0.75592 0.93312 0.37732 0.0
C683 C 0.74438 0.95829 0.37601 0.0
C684 C 0.74918 0.91334 0.39123 0.0
C685 C 0.78888 0.90281 0.36675 0.0
C686 C 0.72702 0.87588 0.39185 0.0
C687 C 0.71916 0.85791 0.4052 0.0
C688 C 0.73321 0.87714 0.41816 0.0
C689 C 0.7559 0.91458 0.41742 0.0
C690 C 0.76368 0.93245 0.40411 0.0
H691 H 0.80913 0.90785 0.35822 0.0
H692 H 0.80117 0.90466 0.37753 0.0
H693 H 0.76622 0.87499 0.36543 0.0
H694 H 0.71508 0.86065 0.38207 0.0
H695 H 0.70147 0.82909 0.40538 0.0
H696 H 0.9057 0.75242 0.5791 0.0
H697 H 0.88968 0.77464 0.55746 0.0
H698 H 0.79342 0.67191 0.55254 0.0
H699 H 0.80884 0.64971 0.5741 0.0
H700 H 0.87509 0.74924 0.52833 0.0
H701 H 0.75582 0.74262 0.55453 0.0
H702 H 0.79025 0.73992 0.56469 0.0
H703 H 0.7561 0.70106 0.55539 0.0
C704 C 0.88123 0.73453 0.57335 0.0
C705 C 0.85837 0.6994 0.57842 0.0
C706 C 0.87213 0.74726 0.561 0.0
C707 C 0.84002 0.72513 0.55356 0.0
C708 C 0.81794 0.68969 0.55829 0.0
H709 H 0.72102 0.73777 0.481 0.0
H710 H 0.74719 0.7192 0.5003 0.0
C711 C 0.82691 0.67701 0.5706 0.0
C712 C 0.82889 0.73899 0.54104 0.0
H713 H 0.76079 0.75138 0.52899 0.0
C714 C 0.85028 0.75003 0.52849 0.0
C715 C 0.79658 0.74016 0.54132 0.0
C716 C 0.77351 0.73065 0.55475 0.0
C717 C 0.83952 0.76104 0.51603 0.0
C718 C 0.80672 0.76121 0.51621 0.0
C719 C 0.78574 0.75084 0.52884 0.0
C720 C 0.79337 0.77198 0.50344 0.0
C721 C 0.8627 0.77148 0.50263 0.0
C722 C 0.81091 0.80777 0.49869 0.0
C723 C 0.79595 0.81856 0.48768 0.0
C724 C 0.76314 0.79372 0.48123 0.0
C725 C 0.74634 0.75761 0.48568 0.0
C726 C 0.76121 0.74692 0.49674 0.0
H727 H 0.88363 0.76359 0.50335 0.0
H728 H 0.84602 0.75884 0.49286 0.0
H729 H 0.87629 0.80102 0.50118 0.0
H730 H 0.8355 0.82763 0.50386 0.0
H731 H 0.80956 0.84658 0.48454 0.0
H732 H 0.14557 0.88229 0.75286 0.0
H733 H 0.10512 0.85882 0.73203 0.0
H734 H 0.1816 0.83905 0.70966 0.0
H735 H 0.22201 0.86199 0.73047 0.0
H736 H 0.11224 0.87628 0.70196 0.0
H737 H 0.09076 0.73947 0.71206 0.0
H738 H 0.11208 0.77528 0.72511 0.0
H739 H 0.1368 0.77383 0.70966 0.0
C740 C 0.15403 0.8734 0.74344 0.0
C741 C 0.18687 0.87362 0.74341 0.0
C742 C 0.13087 0.86002 0.73154 0.0
C743 C 0.14009 0.8466 0.71941 0.0
C744 C 0.17368 0.84865 0.71902 0.0
H745 H 1.01145 0.76969 0.63943 0.0
H746 H 0.06073 0.80437 0.65647 0.0
C747 C 0.1968 0.8619 0.73092 0.0
C748 C 0.11363 0.82844 0.70762 0.0
H749 H 0.06215 0.74671 0.69165 0.0
C750 C 0.10138 0.848 0.69963 0.0
C751 C 0.09923 0.79143 0.70473 0.0
C752 C 0.11008 0.7686 0.7134 0.0
C753 C 0.07497 0.83147 0.68885 0.0
C754 C 0.06078 0.79452 0.68591 0.0
C755 C 0.07328 0.7751 0.69383 0.0
C756 C 0.03111 0.77466 0.67544 0.0
C757 C 0.0616 0.85332 0.68103 0.0
C758 C 0.99837 0.74618 0.68041 0.0
C759 C 0.97043 0.72627 0.67075 0.0
C760 C 0.97456 0.73427 0.65584 0.0
C761 C 1.00737 0.76291 0.65085 0.0
C762 C 0.03546 0.78288 0.66057 0.0
H763 H 0.06987 0.87924 0.68657 0.0
H764 H 0.07282 0.85926 0.66989 0.0
H765 H 0.03186 0.83812 0.68017 0.0
H766 H 0.99443 0.73931 0.69182 0.0
H767 H 0.94557 0.70448 0.67501 0.0
H768 H 0.34619 0.15309 0.9173 0.0
H769 H 0.32895 0.11502 0.89582 0.0
H770 H 0.25231 0.14776 0.8845 0.0
H771 H 0.26952 0.18626 0.90603 0.0
H772 H 0.25904 0.05768 0.88973 0.0
H773 H 0.30988 0.16169 0.84645 0.0
H774 H 0.32482 0.17177 0.86502 0.0
H775 H 0.28169 0.16532 0.85996 0.0
C776 C 0.32585 0.15251 0.91021 0.0
C777 C 0.30925 0.17281 0.91341 0.0
C778 C 0.31602 0.13067 0.89793 0.0
C779 C 0.28962 0.12881 0.88849 0.0
C780 C 0.27316 0.14924 0.89153 0.0
H781 H 0.17307 0.95801 0.82594 0.0
H782 H 0.19004 1.00341 0.84485 0.0
C783 C 0.2829 0.17108 0.90388 0.0
C784 C 0.27826 0.10405 0.87591 0.0
H785 H 0.27698 0.101 0.83888 0.0
C786 C 0.26288 0.06714 0.87861 0.0
C787 C 0.28363 0.11652 0.86143 0.0
C788 C 0.30116 0.156 0.85795 0.0
C789 C 0.25257 0.04231 0.86722 0.0
C790 C 0.25743 0.05468 0.85274 0.0
C791 C 0.27305 0.09161 0.85001 0.0
C792 C 0.24697 0.02944 0.84035 0.0
C793 C 0.23716 1.00305 0.87078 0.0
C794 C 0.27328 0.0298 0.83122 0.0
C795 C 0.26369 1.00385 0.82036 0.0
C796 C 0.22755 0.9772 0.8184 0.0
C797 C 0.20116 0.97796 0.82718 0.0
C798 C 0.21079 1.00383 0.83804 0.0
H799 H 0.24226 0.99889 0.88223 0.0
H800 H 0.20768 0.98877 0.86907 0.0
H801 H 0.24868 0.99069 0.86357 0.0
H802 H 0.30135 0.04945 0.83281 0.0
H803 H 0.28467 1.00412 0.81376 0.0
H804 H 0.67614 0.83808 0.79362 0.0
H805 H 0.68612 0.81421 0.81607 0.0
H806 H 0.80056 0.87838 0.80985 0.0
H807 H 0.79091 0.90249 0.78729 0.0
H808 H 0.72628 0.77625 0.81725 0.0
H809 H 0.78318 0.89622 0.85307 0.0
H810 H 0.75685 0.89214 0.83718 0.0
H811 H 0.80254 0.90238 0.83526 0.0
C812 C 0.70349 0.84753 0.79708 0.0
C813 C 0.73274 0.87222 0.78862 0.0
C814 C 0.70911 0.8338 0.80993 0.0
C815 C 0.74405 0.84474 0.81468 0.0
C816 C 0.77337 0.86997 0.80647 0.0
H817 H 0.82808 0.77711 0.88644 0.0
H818 H 0.82016 0.80941 0.86623 0.0
C819 C 0.76778 0.8836 0.79355 0.0
C820 C 0.74959 0.82778 0.82768 0.0
H821 H 0.78175 0.84423 0.86234 0.0
C822 C 0.7383 0.79105 0.82714 0.0
C823 C 0.76559 0.84728 0.84049 0.0
C824 C 0.77759 0.88666 0.84167 0.0
C825 C 0.74284 0.77328 0.83901 0.0
C826 C 0.75817 0.79255 0.85196 0.0
C827 C 0.76978 0.82943 0.85246 0.0
C828 C 0.76253 0.77479 0.86502 0.0
C829 C 0.73195 0.73421 0.8374 0.0
C830 C 0.73266 0.74533 0.87139 0.0
C831 C 0.73711 0.72667 0.88287 0.0
C832 C 0.77152 0.7374 0.88836 0.0
C833 C 0.80121 0.76809 0.88247 0.0
C834 C 0.79674 0.78658 0.8709 0.0
H835 H 0.73059 0.72648 0.82583 0.0
H836 H 0.75104 0.72811 0.84308 0.0
H837 H 0.70489 0.71733 0.8422 0.0
H838 H 0.70589 0.73632 0.86731 0.0
H839 H 0.71363 0.70339 0.88725 0.0
H840 H 0.88666 0.75784 0.95684 0.0
H841 H 0.92478 0.77806 0.9785 0.0
H842 H 0.89767 0.66899 0.9875 0.0
H843 H 0.85995 0.64861 0.96592 0.0
H844 H 0.90851 0.75711 1.00834 0.0
H845 H 1.00815 0.72391 0.9858 0.0
H846 H 0.9752 0.7268 0.97467 0.0
H847 H 0.96263 0.68742 0.98545 0.0
C848 C 0.8887 0.73815 0.96346 0.0
C849 C 0.87049 0.70164 0.95955 0.0
C850 C 0.91046 0.74975 0.97584 0.0
C851 C 0.91453 0.7251 0.98447 0.0
C852 C 0.89547 0.68856 0.98085 0.0
H853 H 0.04498 0.73901 0.05866 0.0
H854 H 1.00002 0.71875 0.03936 0.0
C855 C 0.87378 0.67696 0.96851 0.0
C856 C 0.93913 0.73746 0.99711 0.0
H857 H 1.01443 0.74024 1.01059 0.0
C858 C 0.93178 0.7536 1.00883 0.0
C859 C 0.96945 0.73282 0.99771 0.0
C860 C 0.97962 0.71709 0.9852 0.0
C861 C 0.95353 0.76453 0.02128 0.0
C862 C 0.98374 0.75969 0.0219 0.0
C863 C 0.99113 0.7437 1.01015 0.0
C864 C 1.00864 0.7717 0.03447 0.0
C865 C 0.94355 0.78043 0.03378 0.0
C866 C 0.02829 0.80817 0.0382 0.0
C867 C 0.05399 0.81984 0.04923 0.0
C868 C 0.06075 0.79529 0.05671 0.0
C869 C 0.04044 0.75864 0.05316 0.0
C870 C 1.01476 0.74701 0.04211 0.0
H871 H 0.91494 0.77336 0.03327 0.0
H872 H 0.94842 0.77114 0.04432 0.0
H873 H 0.96033 0.81012 0.03337 0.0
H874 H 0.02458 0.82781 0.03227 0.0
H875 H 0.06921 0.84827 0.05162 0.0
H876 H 0.15865 0.79746 0.14634 0.0
H877 H 0.17533 0.83411 0.1683 0.0
H878 H 0.17873 0.92138 0.14395 0.0
H879 H 0.16117 0.88463 0.12205 0.0
H880 H 0.23651 0.89538 0.17303 0.0
H881 H 0.12337 0.92122 0.17907 0.0
H882 H 0.12146 0.88728 0.16701 0.0
H883 H 0.14368 0.93364 0.16147 0.0
C884 C 0.16235 0.82424 0.1457 0.0
C885 C 0.15848 0.83806 0.13243 0.0
C886 C 0.17194 0.84519 0.15827 0.0
C887 C 0.17785 0.88038 0.15786 0.0
C888 C 0.17343 0.89403 0.14466 0.0
H889 H 0.28188 0.06817 0.21144 0.0
H890 H 0.25216 0.02327 0.19244 0.0
C891 C 0.16358 0.87301 0.13211 0.0
C892 C 0.19129 0.90368 0.17092 0.0
H893 H 0.17669 0.95961 0.1926 0.0
C894 C 0.22313 0.90901 0.17742 0.0
C895 C 0.17386 0.92151 0.17668 0.0
C896 C 0.13851 0.91536 0.17079 0.0
C897 C 0.23859 0.93252 0.18918 0.0
C898 C 0.22172 0.95108 0.19464 0.0
C899 C 0.18959 0.94536 0.18834 0.0
C900 C 0.23803 0.97779 0.20645 0.0
C901 C 0.27352 0.93832 0.19541 0.0
C902 C 0.23945 0.967 0.22068 0.0
C903 C 0.25628 0.99262 0.23162 0.0
C904 C 0.27218 0.02948 0.22848 0.0
C905 C 0.27011 0.04005 0.21423 0.0
C906 C 0.25305 0.01444 0.20336 0.0
H907 H 0.28573 0.92582 0.18866 0.0
H908 H 0.29303 0.96747 0.19644 0.0
H909 H 0.26863 0.92637 0.20643 0.0
H910 H 0.22776 0.93878 0.22328 0.0
H911 H 0.25736 0.98357 0.24246 0.0
H912 H 0.36912 0.16011 0.30923 0.0
H913 H 0.35094 0.1812 0.33043 0.0
H914 H 0.25813 0.16821 0.30728 0.0
H915 H 0.27572 0.14641 0.28612 0.0
H916 H 0.34676 0.24122 0.33115 0.0
H917 H 0.21455 0.1262 0.34632 0.0
H918 H 0.24512 0.12168 0.33424 0.0
H919 H 0.21664 0.13806 0.32756 0.0
C920 C 0.34444 0.16105 0.30873 0.0
C921 C 0.32393 0.15164 0.29594 0.0
C922 C 0.33409 0.17314 0.32087 0.0
C923 C 0.30298 0.17601 0.32053 0.0
C924 C 0.28179 0.16549 0.30795 0.0
H925 H 0.26079 0.32629 0.3638 0.0
H926 H 0.27631 0.29125 0.34769 0.0
C927 C 0.29202 0.1532 0.29581 0.0
C928 C 0.29481 0.19345 0.33271 0.0
H929 H 0.22832 0.18382 0.35581 0.0
C930 C 0.32101 0.22843 0.33666 0.0
C931 C 0.26139 0.1767 0.34005 0.0
C932 C 0.23296 0.13845 0.33694 0.0
C933 C 0.31423 0.24761 0.34729 0.0
C934 C 0.28007 0.23168 0.354 0.0
C935 C 0.25436 0.19615 0.35054 0.0
C936 C 0.27006 0.25233 0.36398 0.0
C937 C 0.34366 0.28494 0.35117 0.0
C938 C 0.26049 0.2416 0.37845 0.0
C939 C 0.25144 0.26165 0.38776 0.0
C940 C 0.25153 0.29257 0.38269 0.0
C941 C 0.26067 0.30282 0.36813 0.0
C942 C 0.26971 0.28288 0.35889 0.0
H943 H 0.37061 0.28898 0.34842 0.0
H944 H 0.33985 0.30485 0.34493 0.0
H945 H 0.34304 0.2904 0.36289 0.0
H946 H 0.26038 0.21796 0.38256 0.0
H947 H 0.24435 0.25292 0.39889 0.0
H948 H 0.15049 0.27239 0.45653 0.0
H949 H 0.11294 0.25192 0.47837 0.0
H950 H 0.15075 0.36184 0.49056 0.0
H951 H 0.18783 0.38251 0.46872 0.0
H952 H 0.129 0.2654 0.50814 0.0
H953 H 0.0418 0.31853 0.48947 0.0
H954 H 0.0728 0.31431 0.47756 0.0
H955 H 0.08874 0.3514 0.48996 0.0
C956 C 0.151 0.29222 0.46391 0.0
C957 C 0.17189 0.3291 0.46079 0.0
C958 C 0.12953 0.28047 0.47638 0.0
C959 C 0.12851 0.30534 0.48594 0.0
C960 C 0.15049 0.34216 0.48317 0.0
H961 H 0.997 0.28436 0.56136 0.0
H962 H 0.04471 0.30694 0.54306 0.0
C963 C 0.17181 0.35392 0.4707 0.0
C964 C 0.10377 0.29289 0.49859 0.0
H965 H 0.03228 0.2956 0.51336 0.0
C966 C 0.10782 0.27194 0.50929 0.0
C967 C 0.07612 0.30143 0.50007 0.0
C968 C 0.06928 0.32237 0.48861 0.0
C969 C 0.08522 0.2597 0.52152 0.0
C970 C 0.05756 0.26824 0.52296 0.0
C971 C 0.05367 0.28932 0.5123 0.0
C972 C 0.03126 0.25439 0.53508 0.0
C973 C 0.09144 0.23817 0.53287 0.0
C974 C 1.00805 0.21734 0.53677 0.0
C975 C 0.98076 0.20436 0.5472 0.0
C976 C 0.97598 0.22818 0.55612 0.0
C977 C 0.99997 0.26526 0.55471 0.0
C978 C 0.02722 0.27823 0.54423 0.0
H979 H 0.11914 0.2425 0.53229 0.0
H980 H 0.08676 0.24518 0.54393 0.0
H981 H 0.07242 0.20919 0.53108 0.0
H982 H 1.01017 0.19846 0.52966 0.0
H983 H 0.96274 0.17566 0.54795 0.0
H984 H 0.79638 0.94066 0.71251 0.0
H985 H 0.82576 0.98507 0.69332 0.0
H986 H 0.76615 0.03694 0.70575 0.0
H987 H 0.73656 0.99258 0.72509 0.0
H988 H 0.78694 0.99451 0.67051 0.0
H989 H 0.87035 0.12145 0.70069 0.0
H990 H 0.85349 0.07776 0.7089 0.0
H991 H 0.82413 0.09568 0.70623 0.0
C992 C 0.78989 0.96183 0.71136 0.0
C993 C 0.76398 0.96295 0.72034 0.0
C994 C 0.80672 0.98719 0.70036 0.0
C995 C 0.79833 0.01444 0.69815 0.0
C996 C 0.77345 0.01647 0.7074 0.0
H997 H 0.85252 0.17464 0.63056 0.0
H998 H 0.83177 0.13845 0.65268 0.0
C999 C 0.75646 0.991 0.71842 0.0
C1000 C 0.81333 0.03861 0.68541 0.0
H1001 H 0.86652 0.12618 0.67523 0.0
C1002 C 0.80449 0.02328 0.67154 0.0
C1003 C 0.83591 0.07615 0.68679 0.0
C1004 C 0.84685 0.09386 0.70144 0.0
C1005 C 0.81728 0.04446 0.65899 0.0
C1006 C 0.84035 0.082 0.66032 0.0
C1007 C 0.84902 0.09741 0.67421 0.0
C1008 C 0.85526 0.10561 0.64739 0.0
C1009 C 0.80514 0.02648 0.64441 0.0
C1010 C 0.87627 0.0999 0.63725 0.0
C1011 C 0.88797 0.12037 0.62454 0.0
C1012 C 0.8793 0.14731 0.6218 0.0
C1013 C 0.85961 0.15405 0.6323 0.0
C1014 C 0.84773 0.1334 0.64496 0.0
H1015 H 0.78018 0.99997 0.64531 0.0
H1016 H 0.80023 0.04348 0.63675 0.0
H1017 H 0.82637 0.02196 0.63977 0.0
H1018 H 0.88318 0.07921 0.63905 0.0
H1019 H 0.90337 0.11469 0.61677 0.0
loop_
_geom_bond_atom_site_label_1
_geom_bond_atom_site_label_2
_geom_bond_distance
_geom_bond_site_symmetry_2
_ccdc_geom_bond_type
Mg0 O7 2.141 . S
Mg0 O8 2.048 . S
Mg0 O9 2.048 . S
Mg0 O12 2.141 . S
C1 O2 1.313 . S
C1 O8 1.195 . S
O2 C1 1.313 . S
C3 O4 1.245 . S
C3 O12 1.289 . S
O4 C3 1.245 . S
C5 O6 1.245 . S
C5 O7 1.289 . S
O6 C5 1.245 . S
O7 Mg0 2.141 . S
O7 C5 1.289 . S
O8 Mg0 2.048 . S
O8 C1 1.195 . S
O9 Mg0 2.048 . S
O9 C10 1.195 . S
C10 O9 1.195 . S
C10 O11 1.313 . S
O11 C10 1.313 . S
O12 Mg0 2.141 . S
O12 C3 1.289 . S
Mg13 O20 2.141 . S
Mg13 O21 2.048 . S
Mg13 O22 2.048 . S
Mg13 O25 2.141 . S
C14 O15 1.313 . S
C14 O21 1.195 . S
O15 C14 1.313 . S
C16 O17 1.245 . S
C16 O25 1.289 . S
O17 C16 1.245 . S
C18 O19 1.245 . S
C18 O20 1.289 . S
O19 C18 1.245 . S
O20 Mg13 2.141 . S
O20 C18 1.289 . S
O21 Mg13 2.048 . S
O21 C14 1.195 . S
O22 Mg13 2.048 . S
O22 C23 1.195 . S
C23 O22 1.195 . S
C23 O24 1.313 . S
O24 C23 1.313 . S
O25 Mg13 2.141 . S
O25 C16 1.289 . S
Mg26 O33 2.141 . S
Mg26 O34 2.048 . S
Mg26 O35 2.048 . S
Mg26 O38 2.141 . S
C27 O28 1.313 . S
C27 O34 1.195 . S
O28 C27 1.313 . S
C29 O30 1.245 . S
C29 O38 1.289 . S
O30 C29 1.245 . S
C31 O32 1.245 . S
C31 O33 1.289 . S
O32 C31 1.245 . S
O33 Mg26 2.141 . S
O33 C31 1.289 . S
O34 Mg26 2.048 . S
O34 C27 1.195 . S
O35 Mg26 2.048 . S
O35 C36 1.195 . S
C36 O35 1.195 . S
C36 O37 1.313 . S
O37 C36 1.313 . S
O38 Mg26 2.141 . S
O38 C29 1.289 . S
Mg39 O46 2.141 . S
Mg39 O47 2.048 . S
Mg39 O48 2.048 . S
Mg39 O51 2.141 . S
C40 O41 1.313 . S
C40 O47 1.195 . S
O41 C40 1.313 . S
C42 O43 1.245 . S
C42 O51 1.289 . S
O43 C42 1.245 . S
C44 O45 1.245 . S
C44 O46 1.289 . S
O45 C44 1.245 . S
O46 Mg39 2.141 . S
O46 C44 1.289 . S
O47 Mg39 2.048 . S
O47 C40 1.195 . S
O48 Mg39 2.048 . S
O48 C49 1.195 . S
C49 O48 1.195 . S
C49 O50 1.313 . S
O50 C49 1.313 . S
O51 Mg39 2.141 . S
O51 C42 1.289 . S
Mg52 O59 2.141 . S
Mg52 O60 2.048 . S
Mg52 O61 2.048 . S
Mg52 O64 2.141 . S
C53 O54 1.313 . S
C53 O60 1.195 . S
O54 C53 1.313 . S
C55 O56 1.245 . S
C55 O64 1.289 . S
O56 C55 1.245 . S
C57 O58 1.245 . S
C57 O59 1.289 . S
O58 C57 1.245 . S
O59 Mg52 2.141 . S
O59 C57 1.289 . S
O60 Mg52 2.048 . S
O60 C53 1.195 . S
O61 Mg52 2.048 . S
O61 C62 1.195 . S
C62 O61 1.195 . S
C62 O63 1.313 . S
O63 C62 1.313 . S
O64 Mg52 2.141 . S
O64 C55 1.289 . S
Mg65 O72 2.141 . S
Mg65 O73 2.048 . S
Mg65 O74 2.048 . S
Mg65 O77 2.141 . S
C66 O67 1.313 . S
C66 O73 1.195 . S
O67 C66 1.313 . S
C68 O69 1.245 . S
C68 O77 1.289 . S
O69 C68 1.245 . S
C70 O71 1.245 . S
C70 O72 1.289 . S
O71 C70 1.245 . S
O72 Mg65 2.141 . S
O72 C70 1.289 . S
O73 Mg65 2.048 . S
O73 C66 1.195 . S
O74 Mg65 2.048 . S
O74 C75 1.195 . S
C75 O74 1.195 . S
C75 O76 1.313 . S
O76 C75 1.313 . S
O77 Mg65 2.141 . S
O77 C68 1.289 . S
Mg78 O85 2.141 . S
Mg78 O86 2.048 . S
Mg78 O87 2.048 . S
Mg78 O90 2.141 . S
C79 O80 1.313 . S
C79 O86 1.195 . S
O80 C79 1.313 . S
C81 O82 1.245 . S
C81 O90 1.289 . S
O82 C81 1.245 . S
C83 O84 1.245 . S
C83 O85 1.289 . S
O84 C83 1.245 . S
O85 Mg78 2.141 . S
O85 C83 1.289 . S
O86 Mg78 2.048 . S
O86 C79 1.195 . S
O87 Mg78 2.048 . S
O87 C88 1.195 . S
C88 O87 1.195 . S
C88 O89 1.313 . S
O89 C88 1.313 . S
O90 Mg78 2.141 . S
O90 C81 1.289 . S
Mg91 O98 2.141 . S
Mg91 O99 2.048 . S
Mg91 O100 2.048 . S
Mg91 O103 2.141 . S
C92 O93 1.313 . S
C92 O99 1.195 . S
O93 C92 1.313 . S
C94 O95 1.245 . S
C94 O103 1.289 . S
O95 C94 1.245 . S
C96 O97 1.245 . S
C96 O98 1.289 . S
O97 C96 1.245 . S
O98 Mg91 2.141 . S
O98 C96 1.289 . S
O99 Mg91 2.048 . S
O99 C92 1.195 . S
O100 Mg91 2.048 . S
O100 C101 1.195 . S
C101 O100 1.195 . S
C101 O102 1.313 . S
O102 C101 1.313 . S
O103 Mg91 2.141 . S
O103 C94 1.289 . S
Mg104 O111 2.141 . S
Mg104 O112 2.048 . S
Mg104 O113 2.048 . S
Mg104 O116 2.141 . S
C105 O106 1.313 . S
C105 O112 1.195 . S
O106 C105 1.313 . S
C107 O108 1.245 . S
C107 O116 1.289 . S
O108 C107 1.245 . S
C109 O110 1.245 . S
C109 O111 1.289 . S
O110 C109 1.245 . S
O111 Mg104 2.141 . S
O111 C109 1.289 . S
O112 Mg104 2.048 . S
O112 C105 1.195 . S
O113 Mg104 2.048 . S
O113 C114 1.195 . S
C114 O113 1.195 . S
C114 O115 1.313 . S
O115 C114 1.313 . S
O116 Mg104 2.141 . S
O116 C107 1.289 . S
Mg117 O124 2.141 . S
Mg117 O125 2.048 . S
Mg117 O126 2.048 . S
Mg117 O129 2.141 . S
C118 O119 1.313 . S
C118 O125 1.195 . S
O119 C118 1.313 . S
C120 O121 1.245 . S
C120 O129 1.289 . S
O121 C120 1.245 . S
C122 O123 1.245 . S
C122 O124 1.289 . S
O123 C122 1.245 . S
O124 Mg117 2.141 . S
O124 C122 1.289 . S
O125 Mg117 2.048 . S
O125 C118 1.195 . S
O126 Mg117 2.048 . S
O126 C127 1.195 . S
C127 O126 1.195 . S
C127 O128 1.313 . S
O128 C127 1.313 . S
O129 Mg117 2.141 . S
O129 C120 1.289 . S
Mg130 O137 2.141 . S
Mg130 O138 2.048 . S
Mg130 O139 2.048 . S
Mg130 O142 2.141 . S
C131 O132 1.313 . S
C131 O138 1.195 . S
O132 C131 1.313 . S
C133 O134 1.245 . S
C133 O142 1.289 . S
O134 C133 1.245 . S
C135 O136 1.245 . S
C135 O137 1.289 . S
O136 C135 1.245 . S
O137 Mg130 2.141 . S
O137 C135 1.289 . S
O138 Mg130 2.048 . S
O138 C131 1.195 . S
O139 Mg130 2.048 . S
O139 C140 1.195 . S
C140 O139 1.195 . S
C140 O141 1.313 . S
O141 C140 1.313 . S
O142 Mg130 2.141 . S
O142 C133 1.289 . S
Mg143 O150 2.141 . S
Mg143 O151 2.048 . S
Mg143 O152 2.048 . S
Mg143 O155 2.141 . S
C144 O145 1.313 . S
C144 O151 1.195 . S
O145 C144 1.313 . S
C146 O147 1.245 . S
C146 O155 1.289 . S
O147 C146 1.245 . S
C148 O149 1.245 . S
C148 O150 1.289 . S
O149 C148 1.245 . S
O150 Mg143 2.141 . S
O150 C148 1.289 . S
O151 Mg143 2.048 . S
O151 C144 1.195 . S
O152 Mg143 2.048 . S
O152 C153 1.195 . S
C153 O152 1.195 . S
C153 O154 1.313 . S
O154 C153 1.313 . S
O155 Mg143 2.141 . S
O155 C146 1.289 . S
H156 C164 0.929 . S
H157 C166 0.930 . S
H158 C168 0.930 . S
H159 C171 0.929 . S
H160 C174 0.930 . S
H161 C176 0.960 . S
H162 C176 0.960 . S
H163 C176 0.960 . S
C164 H156 0.929 . S
C164 C165 1.377 . S
C164 C166 1.384 . S
C165 C164 1.377 . S
C165 C171 1.390 . S
C166 H157 0.930 . S
C166 C164 1.384 . S
C166 C167 1.372 . S
C167 C166 1.372 . S
C167 C168 1.400 . S
C167 C172 1.490 . S
C168 H158 0.930 . S
C168 C167 1.400 . S
C168 C171 1.386 . S
H169 C185 0.930 . S
H170 C186 0.931 . S
C171 H159 0.929 . S
C171 C165 1.390 . S
C171 C168 1.386 . S
C172 C167 1.490 . S
C172 C174 1.395 . S
C172 C175 1.403 . S
H173 C179 0.930 . S
C174 H160 0.930 . S
C174 C172 1.395 . S
C174 C177 1.403 . S
C175 C172 1.403 . S
C175 C176 1.524 . S
C175 C179 1.400 . S
C176 H161 0.960 . S
C176 H162 0.960 . S
C176 H163 0.960 . S
C176 C175 1.524 . S
C177 C174 1.403 . S
C177 C178 1.392 . S
C177 C181 1.495 . S
C178 C177 1.392 . S
C178 C179 1.385 . S
C178 C180 1.478 . S
C179 H173 0.930 . S
C179 C175 1.400 . S
C179 C178 1.385 . S
C180 C178 1.478 . S
C180 C182 1.381 . S
C180 C186 1.383 . S
C181 C177 1.495 . S
C181 H187 0.959 . S
C181 H188 0.961 . S
C181 H189 0.960 . S
C182 C180 1.381 . S
C182 C183 1.394 . S
C182 H190 0.930 . S
C183 C182 1.394 . S
C183 C184 1.383 . S
C183 H191 0.929 . S
C184 C183 1.383 . S
C184 C185 1.377 . S
C185 H169 0.930 . S
C185 C184 1.377 . S
C185 C186 1.379 . S
C186 H170 0.931 . S
C186 C180 1.383 . S
C186 C185 1.379 . S
H187 C181 0.959 . S
H188 C181 0.961 . S
H189 C181 0.960 . S
H190 C182 0.930 . S
H191 C183 0.929 . S
H192 C200 0.929 . S
H193 C202 0.930 . S
H194 C204 0.930 . S
H195 C207 0.929 . S
H196 C210 0.930 . S
H197 C212 0.960 . S
H198 C212 0.960 . S
H199 C212 0.960 . S
C200 H192 0.929 . S
C200 C201 1.377 . S
C200 C202 1.384 . S
C201 C200 1.377 . S
C201 C207 1.390 . S
C202 H193 0.930 . S
C202 C200 1.384 . S
C202 C203 1.372 . S
C203 C202 1.372 . S
C203 C204 1.400 . S
C203 C208 1.490 . S
C204 H194 0.930 . S
C204 C203 1.400 . S
C204 C207 1.386 . S
H205 C221 0.930 . S
H206 C222 0.931 . S
C207 H195 0.929 . S
C207 C201 1.390 . S
C207 C204 1.386 . S
C208 C203 1.490 . S
C208 C210 1.395 . S
C208 C211 1.403 . S
H209 C215 0.930 . S
C210 H196 0.930 . S
C210 C208 1.395 . S
C210 C213 1.403 . S
C211 C208 1.403 . S
C211 C212 1.524 . S
C211 C215 1.400 . S
C212 H197 0.960 . S
C212 H198 0.960 . S
C212 H199 0.960 . S
C212 C211 1.524 . S
C213 C210 1.403 . S
C213 C214 1.392 . S
C213 C217 1.495 . S
C214 C213 1.392 . S
C214 C215 1.385 . S
C214 C216 1.478 . S
C215 H209 0.930 . S
C215 C211 1.400 . S
C215 C214 1.385 . S
C216 C214 1.478 . S
C216 C218 1.381 . S
C216 C222 1.383 . S
C217 C213 1.495 . S
C217 H223 0.959 . S
C217 H224 0.961 . S
C217 H225 0.960 . S
C218 C216 1.381 . S
C218 C219 1.394 . S
C218 H226 0.930 . S
C219 C218 1.394 . S
C219 C220 1.383 . S
C219 H227 0.929 . S
C220 C219 1.383 . S
C220 C221 1.377 . S
C221 H205 0.930 . S
C221 C220 1.377 . S
C221 C222 1.379 . S
C222 H206 0.931 . S
C222 C216 1.383 . S
C222 C221 1.379 . S
H223 C217 0.959 . S
H224 C217 0.961 . S
H225 C217 0.960 . S
H226 C218 0.930 . S
H227 C219 0.929 . S
H228 C236 0.929 . S
H229 C238 0.930 . S
H230 C240 0.930 . S
H231 C243 0.929 . S
H232 C246 0.930 . S
H233 C248 0.960 . S
H234 C248 0.960 . S
H235 C248 0.960 . S
C236 H228 0.929 . S
C236 C237 1.377 . S
C236 C238 1.384 . S
C237 C236 1.377 . S
C237 C243 1.390 . S
C238 H229 0.930 . S
C238 C236 1.384 . S
C238 C239 1.372 . S
C239 C238 1.372 . S
C239 C240 1.400 . S
C239 C244 1.490 . S
C240 H230 0.930 . S
C240 C239 1.400 . S
C240 C243 1.386 . S
H241 C257 0.930 . S
H242 C258 0.931 . S
C243 H231 0.929 . S
C243 C237 1.390 . S
C243 C240 1.386 . S
C244 C239 1.490 . S
C244 C246 1.395 . S
C244 C247 1.403 . S
H245 C251 0.930 . S
C246 H232 0.930 . S
C246 C244 1.395 . S
C246 C249 1.403 . S
C247 C244 1.403 . S
C247 C248 1.524 . S
C247 C251 1.400 . S
C248 H233 0.960 . S
C248 H234 0.960 . S
C248 H235 0.960 . S
C248 C247 1.524 . S
C249 C246 1.403 . S
C249 C250 1.392 . S
C249 C253 1.495 . S
C250 C249 1.392 . S
C250 C251 1.385 . S
C250 C252 1.478 . S
C251 H245 0.930 . S
C251 C247 1.400 . S
C251 C250 1.385 . S
C252 C250 1.478 . S
C252 C254 1.381 . S
C252 C258 1.383 . S
C253 C249 1.495 . S
C253 H259 0.959 . S
C253 H260 0.961 . S
C253 H261 0.960 . S
C254 C252 1.381 . S
C254 C255 1.394 . S
C254 H262 0.930 . S
C255 C254 1.394 . S
C255 C256 1.383 . S
C255 H263 0.929 . S
C256 C255 1.383 . S
C256 C257 1.377 . S
C257 H241 0.930 . S
C257 C256 1.377 . S
C257 C258 1.379 . S
C258 H242 0.931 . S
C258 C252 1.383 . S
C258 C257 1.379 . S
H259 C253 0.959 . S
H260 C253 0.961 . S
H261 C253 0.960 . S
H262 C254 0.930 . S
H263 C255 0.929 . S
H264 C272 0.929 . S
H265 C274 0.930 . S
H266 C276 0.930 . S
H267 C279 0.929 . S
H268 C282 0.930 . S
H269 C284 0.960 . S
H270 C284 0.960 . S
H271 C284 0.960 . S
C272 H264 0.929 . S
C272 C273 1.377 . S
C272 C274 1.384 . S
C273 C272 1.377 . S
C273 C279 1.390 . S
C274 H265 0.930 . S
C274 C272 1.384 . S
C274 C275 1.372 . S
C275 C274 1.372 . S
C275 C276 1.400 . S
C275 C280 1.490 . S
C276 H266 0.930 . S
C276 C275 1.400 . S
C276 C279 1.386 . S
H277 C293 0.930 . S
H278 C294 0.931 . S
C279 H267 0.929 . S
C279 C273 1.390 . S
C279 C276 1.386 . S
C280 C275 1.490 . S
C280 C282 1.395 . S
C280 C283 1.403 . S
H281 C287 0.930 . S
C282 H268 0.930 . S
C282 C280 1.395 . S
C282 C285 1.403 . S
C283 C280 1.403 . S
C283 C284 1.524 . S
C283 C287 1.400 . S
C284 H269 0.960 . S
C284 H270 0.960 . S
C284 H271 0.960 . S
C284 C283 1.524 . S
C285 C282 1.403 . S
C285 C286 1.392 . S
C285 C289 1.495 . S
C286 C285 1.392 . S
C286 C287 1.385 . S
C286 C288 1.478 . S
C287 H281 0.930 . S
C287 C283 1.400 . S
C287 C286 1.385 . S
C288 C286 1.478 . S
C288 C290 1.381 . S
C288 C294 1.383 . S
C289 C285 1.495 . S
C289 H295 0.959 . S
C289 H296 0.961 . S
C289 H297 0.960 . S
C290 C288 1.381 . S
C290 C291 1.394 . S
C290 H298 0.930 . S
C291 C290 1.394 . S
C291 C292 1.383 . S
C291 H299 0.929 . S
C292 C291 1.383 . S
C292 C293 1.377 . S
C293 H277 0.930 . S
C293 C292 1.377 . S
C293 C294 1.379 . S
C294 H278 0.931 . S
C294 C288 1.383 . S
C294 C293 1.379 . S
H295 C289 0.959 . S
H296 C289 0.961 . S
H297 C289 0.960 . S
H298 C290 0.930 . S
H299 C291 0.929 . S
H300 C308 0.929 . S
H301 C310 0.930 . S
H302 C312 0.930 . S
H303 C315 0.929 . S
H304 C318 0.930 . S
H305 C320 0.960 . S
H306 C320 0.960 . S
H307 C320 0.960 . S
C308 H300 0.929 . S
C308 C309 1.377 . S
C308 C310 1.384 . S
C309 C308 1.377 . S
C309 C315 1.390 . S
C310 H301 0.930 . S
C310 C308 1.384 . S
C310 C311 1.372 . S
C311 C310 1.372 . S
C311 C312 1.400 . S
C311 C316 1.490 . S
C312 H302 0.930 . S
C312 C311 1.400 . S
C312 C315 1.386 . S
H313 C329 0.930 . S
H314 C330 0.931 . S
C315 H303 0.929 . S
C315 C309 1.390 . S
C315 C312 1.386 . S
C316 C311 1.490 . S
C316 C318 1.395 . S
C316 C319 1.403 . S
H317 C323 0.930 . S
C318 H304 0.930 . S
C318 C316 1.395 . S
C318 C321 1.403 . S
C319 C316 1.403 . S
C319 C320 1.524 . S
C319 C323 1.400 . S
C320 H305 0.960 . S
C320 H306 0.960 . S
C320 H307 0.960 . S
C320 C319 1.524 . S
C321 C318 1.403 . S
C321 C322 1.392 . S
C321 C325 1.495 . S
C322 C321 1.392 . S
C322 C323 1.385 . S
C322 C324 1.478 . S
C323 H317 0.930 . S
C323 C319 1.400 . S
C323 C322 1.385 . S
C324 C322 1.478 . S
C324 C326 1.381 . S
C324 C330 1.383 . S
C325 C321 1.495 . S
C325 H331 0.959 . S
C325 H332 0.961 . S
C325 H333 0.960 . S
C326 C324 1.381 . S
C326 C327 1.394 . S
C326 H334 0.930 . S
C327 C326 1.394 . S
C327 C328 1.383 . S
C327 H335 0.929 . S
C328 C327 1.383 . S
C328 C329 1.377 . S
C329 H313 0.930 . S
C329 C328 1.377 . S
C329 C330 1.379 . S
C330 H314 0.931 . S
C330 C324 1.383 . S
C330 C329 1.379 . S
H331 C325 0.959 . S
H332 C325 0.961 . S
H333 C325 0.960 . S
H334 C326 0.930 . S
H335 C327 0.929 . S
H336 C344 0.929 . S
H337 C346 0.930 . S
H338 C348 0.930 . S
H339 C351 0.929 . S
H340 C354 0.930 . S
H341 C356 0.960 . S
H342 C356 0.960 . S
H343 C356 0.960 . S
C344 H336 0.929 . S
C344 C345 1.377 . S
C344 C346 1.384 . S
C345 C344 1.377 . S
C345 C351 1.390 . S
C346 H337 0.930 . S
C346 C344 1.384 . S
C346 C347 1.372 . S
C347 C346 1.372 . S
C347 C348 1.400 . S
C347 C352 1.490 . S
C348 H338 0.930 . S
C348 C347 1.400 . S
C348 C351 1.386 . S
H349 C365 0.930 . S
H350 C366 0.931 . S
C351 H339 0.929 . S
C351 C345 1.390 . S
C351 C348 1.386 . S
C352 C347 1.490 . S
C352 C354 1.395 . S
C352 C355 1.403 . S
H353 C359 0.930 . S
C354 H340 0.930 . S
C354 C352 1.395 . S
C354 C357 1.403 . S
C355 C352 1.403 . S
C355 C356 1.524 . S
C355 C359 1.400 . S
C356 H341 0.960 . S
C356 H342 0.960 . S
C356 H343 0.960 . S
C356 C355 1.524 . S
C357 C354 1.403 . S
C357 C358 1.392 . S
C357 C361 1.495 . S
C358 C357 1.392 . S
C358 C359 1.385 . S
C358 C360 1.478 . S
C359 H353 0.930 . S
C359 C355 1.400 . S
C359 C358 1.385 . S
C360 C358 1.478 . S
C360 C362 1.381 . S
C360 C366 1.383 . S
C361 C357 1.495 . S
C361 H367 0.959 . S
C361 H368 0.961 . S
C361 H369 0.960 . S
C362 C360 1.381 . S
C362 C363 1.394 . S
C362 H370 0.930 . S
C363 C362 1.394 . S
C363 C364 1.383 . S
C363 H371 0.929 . S
C364 C363 1.383 . S
C364 C365 1.377 . S
C365 H349 0.930 . S
C365 C364 1.377 . S
C365 C366 1.379 . S
C366 H350 0.931 . S
C366 C360 1.383 . S
C366 C365 1.379 . S
H367 C361 0.959 . S
H368 C361 0.961 . S
H369 C361 0.960 . S
H370 C362 0.930 . S
H371 C363 0.929 . S
H372 C380 0.929 . S
H373 C382 0.930 . S
H374 C384 0.930 . S
H375 C387 0.929 . S
H376 C390 0.930 . S
H377 C392 0.960 . S
H378 C392 0.960 . S
H379 C392 0.960 . S
C380 H372 0.929 . S
C380 C381 1.377 . S
C380 C382 1.384 . S
C381 C380 1.377 . S
C381 C387 1.390 . S
C382 H373 0.930 . S
C382 C380 1.384 . S
C382 C383 1.372 . S
C383 C382 1.372 . S
C383 C384 1.400 . S
C383 C388 1.490 . S
C384 H374 0.930 . S
C384 C383 1.400 . S
C384 C387 1.386 . S
H385 C401 0.930 . S
H386 C402 0.931 . S
C387 H375 0.929 . S
C387 C381 1.390 . S
C387 C384 1.386 . S
C388 C383 1.490 . S
C388 C390 1.395 . S
C388 C391 1.403 . S
H389 C395 0.930 . S
C390 H376 0.930 . S
C390 C388 1.395 . S
C390 C393 1.403 . S
C391 C388 1.403 . S
C391 C392 1.524 . S
C391 C395 1.400 . S
C392 H377 0.960 . S
C392 H378 0.960 . S
C392 H379 0.960 . S
C392 C391 1.524 . S
C393 C390 1.403 . S
C393 C394 1.392 . S
C393 C397 1.495 . S
C394 C393 1.392 . S
C394 C395 1.385 . S
C394 C396 1.478 . S
C395 H389 0.930 . S
C395 C391 1.400 . S
C395 C394 1.385 . S
C396 C394 1.478 . S
C396 C398 1.381 . S
C396 C402 1.383 . S
C397 C393 1.495 . S
C397 H403 0.959 . S
C397 H404 0.961 . S
C397 H405 0.960 . S
C398 C396 1.381 . S
C398 C399 1.394 . S
C398 H406 0.930 . S
C399 C398 1.394 . S
C399 C400 1.383 . S
C399 H407 0.929 . S
C400 C399 1.383 . S
C400 C401 1.377 . S
C401 H385 0.930 . S
C401 C400 1.377 . S
C401 C402 1.379 . S
C402 H386 0.931 . S
C402 C396 1.383 . S
C402 C401 1.379 . S
H403 C397 0.959 . S
H404 C397 0.961 . S
H405 C397 0.960 . S
H406 C398 0.930 . S
H407 C399 0.929 . S
H408 C416 0.929 . S
H409 C418 0.930 . S
H410 C420 0.930 . S
H411 C423 0.929 . S
H412 C426 0.930 . S
H413 C428 0.960 . S
H414 C428 0.960 . S
H415 C428 0.960 1_655 S
C416 H408 0.929 . S
C416 C417 1.377 . S
C416 C418 1.384 . S
C417 C416 1.377 . S
C417 C423 1.390 . S
C418 H409 0.930 . S
C418 C416 1.384 . S
C418 C419 1.372 . S
C419 C418 1.372 . S
C419 C420 1.400 . S
C419 C424 1.490 . S
C420 H410 0.930 . S
C420 C419 1.400 . S
C420 C423 1.386 . S
H421 C437 0.930 . S
H422 C438 0.931 . S
C423 H411 0.929 . S
C423 C417 1.390 . S
C423 C420 1.386 . S
C424 C419 1.490 . S
C424 C426 1.395 . S
C424 C427 1.403 1_655 S
H425 C431 0.930 . S
C426 H412 0.930 . S
C426 C424 1.395 . S
C426 C429 1.403 . S
C427 C424 1.403 1_455 S
C427 C428 1.524 . S
C427 C431 1.400 . S
C428 H413 0.960 . S
C428 H414 0.960 . S
C428 H415 0.960 1_455 S
C428 C427 1.524 . S
C429 C426 1.403 . S
C429 C430 1.392 1_655 S
C429 C433 1.495 . S
C430 C429 1.392 1_455 S
C430 C431 1.385 . S
C430 C432 1.478 . S
C431 H425 0.930 . S
C431 C427 1.400 . S
C431 C430 1.385 . S
C432 C430 1.478 . S
C432 C434 1.381 . S
C432 C438 1.383 . S
C433 C429 1.495 . S
C433 H439 0.959 . S
C433 H440 0.961 . S
C433 H441 0.960 1_655 S
C434 C432 1.381 . S
C434 C435 1.394 . S
C434 H442 0.930 . S
C435 C434 1.394 . S
C435 C436 1.383 . S
C435 H443 0.929 . S
C436 C435 1.383 . S
C436 C437 1.377 . S
C437 H421 0.930 . S
C437 C436 1.377 . S
C437 C438 1.379 . S
C438 H422 0.931 . S
C438 C432 1.383 . S
C438 C437 1.379 . S
H439 C433 0.959 . S
H440 C433 0.961 . S
H441 C433 0.960 1_455 S
H442 C434 0.930 . S
H443 C435 0.929 . S
H444 C452 0.929 . S
H445 C454 0.930 . S
H446 C456 0.930 . S
H447 C459 0.929 . S
H448 C462 0.930 . S
H449 C464 0.960 . S
H450 C464 0.960 . S
H451 C464 0.960 . S
C452 H444 0.929 . S
C452 C453 1.377 . S
C452 C454 1.384 . S
C453 C452 1.377 . S
C453 C459 1.390 . S
C454 H445 0.930 . S
C454 C452 1.384 . S
C454 C455 1.372 . S
C455 C454 1.372 . S
C455 C456 1.400 . S
C455 C460 1.490 . S
C456 H446 0.930 . S
C456 C455 1.400 . S
C456 C459 1.386 . S
H457 C473 0.930 . S
H458 C474 0.931 . S
C459 H447 0.929 . S
C459 C453 1.390 . S
C459 C456 1.386 . S
C460 C455 1.490 . S
C460 C462 1.395 1_545 S
C460 C463 1.403 . S
H461 C467 0.930 . S
C462 H448 0.930 . S
C462 C460 1.395 1_565 S
C462 C465 1.403 . S
C463 C460 1.403 . S
C463 C464 1.524 . S
C463 C467 1.400 1_545 S
C464 H449 0.960 . S
C464 H450 0.960 . S
C464 H451 0.960 . S
C464 C463 1.524 . S
C465 C462 1.403 . S
C465 C466 1.392 . S
C465 C469 1.495 . S
C466 C465 1.392 . S
C466 C467 1.385 . S
C466 C468 1.478 . S
C467 H461 0.930 . S
C467 C463 1.400 1_565 S
C467 C466 1.385 . S
C468 C466 1.478 . S
C468 C470 1.381 . S
C468 C474 1.383 . S
C469 C465 1.495 . S
C469 H475 0.959 . S
C469 H476 0.961 . S
C469 H477 0.960 . S
C470 C468 1.381 . S
C470 C471 1.394 . S
C470 H478 0.930 . S
C471 C470 1.394 . S
C471 C472 1.383 . S
C471 H479 0.929 . S
C472 C471 1.383 . S
C472 C473 1.377 . S
C473 H457 0.930 . S
C473 C472 1.377 . S
C473 C474 1.379 . S
C474 H458 0.931 . S
C474 C468 1.383 . S
C474 C473 1.379 . S
H475 C469 0.959 . S
H476 C469 0.961 . S
H477 C469 0.960 . S
H478 C470 0.930 . S
H479 C471 0.929 . S
H480 C488 0.929 . S
H481 C490 0.930 . S
H482 C492 0.930 . S
H483 C495 0.929 . S
H484 C498 0.930 . S
H485 C500 0.960 . S
H486 C500 0.960 . S
H487 C500 0.960 . S
C488 H480 0.929 . S
C488 C489 1.377 . S
C488 C490 1.384 . S
C489 C488 1.377 . S
C489 C495 1.390 . S
C490 H481 0.930 . S
C490 C488 1.384 . S
C490 C491 1.372 . S
C491 C490 1.372 . S
C491 C492 1.400 . S
C491 C496 1.490 . S
C492 H482 0.930 . S
C492 C491 1.400 . S
C492 C495 1.386 . S
H493 C509 0.930 . S
H494 C510 0.931 . S
C495 H483 0.929 . S
C495 C489 1.390 . S
C495 C492 1.386 . S
C496 C491 1.490 . S
C496 C498 1.395 . S
C496 C499 1.403 . S
H497 C503 0.930 . S
C498 H484 0.930 . S
C498 C496 1.395 . S
C498 C501 1.403 . S
C499 C496 1.403 . S
C499 C500 1.524 . S
C499 C503 1.400 . S
C500 H485 0.960 . S
C500 H486 0.960 . S
C500 H487 0.960 . S
C500 C499 1.524 . S
C501 C498 1.403 . S
C501 C502 1.392 . S
C501 C505 1.495 . S
C502 C501 1.392 . S
C502 C503 1.385 . S
C502 C504 1.478 . S
C503 H497 0.930 . S
C503 C499 1.400 . S
C503 C502 1.385 . S
C504 C502 1.478 . S
C504 C506 1.381 . S
C504 C510 1.383 . S
C505 C501 1.495 . S
C505 H511 0.959 . S
C505 H512 0.961 . S
C505 H513 0.960 . S
C506 C504 1.381 . S
C506 C507 1.394 . S
C506 H514 0.930 . S
C507 C506 1.394 . S
C507 C508 1.383 . S
C507 H515 0.929 . S
C508 C507 1.383 . S
C508 C509 1.377 . S
C509 H493 0.930 . S
C509 C508 1.377 . S
C509 C510 1.379 . S
C510 H494 0.931 . S
C510 C504 1.383 . S
C510 C509 1.379 . S
H511 C505 0.959 . S
H512 C505 0.961 . S
H513 C505 0.960 . S
H514 C506 0.930 . S
H515 C507 0.929 . S
H516 C524 0.929 . S
H517 C526 0.930 . S
H518 C528 0.930 . S
H519 C531 0.929 . S
H520 C534 0.930 . S
H521 C536 0.960 . S
H522 C536 0.960 . S
H523 C536 0.960 . S
C524 H516 0.929 . S
C524 C525 1.377 . S
C524 C526 1.384 . S
C525 C524 1.377 . S
C525 C531 1.390 . S
C526 H517 0.930 . S
C526 C524 1.384 . S
C526 C527 1.372 . S
C527 C526 1.372 . S
C527 C528 1.400 . S
C527 C532 1.490 . S
C528 H518 0.930 . S
C528 C527 1.400 . S
C528 C531 1.386 . S
H529 C545 0.930 . S
H530 C546 0.931 . S
C531 H519 0.929 . S
C531 C525 1.390 . S
C531 C528 1.386 . S
C532 C527 1.490 . S
C532 C534 1.395 . S
C532 C535 1.403 . S
H533 C539 0.930 . S
C534 H520 0.930 . S
C534 C532 1.395 . S
C534 C537 1.403 1_655 S
C535 C532 1.403 . S
C535 C536 1.524 . S
C535 C539 1.400 1_655 S
C536 H521 0.960 . S
C536 H522 0.960 . S
C536 H523 0.960 . S
C536 C535 1.524 . S
C537 C534 1.403 1_455 S
C537 C538 1.392 . S
C537 C541 1.495 . S
C538 C537 1.392 . S
C538 C539 1.385 . S
C538 C540 1.478 . S
C539 H533 0.930 . S
C539 C535 1.400 1_455 S
C539 C538 1.385 . S
C540 C538 1.478 . S
C540 C542 1.381 . S
C540 C546 1.383 . S
C541 C537 1.495 . S
C541 H547 0.959 . S
C541 H548 0.961 . S
C541 H549 0.960 . S
C542 C540 1.381 . S
C542 C543 1.394 . S
C542 H550 0.930 . S
C543 C542 1.394 . S
C543 C544 1.383 . S
C543 H551 0.929 . S
C544 C543 1.383 . S
C544 C545 1.377 . S
C545 H529 0.930 . S
C545 C544 1.377 . S
C545 C546 1.379 . S
C546 H530 0.931 . S
C546 C540 1.383 . S
C546 C545 1.379 . S
H547 C541 0.959 . S
H548 C541 0.961 . S
H549 C541 0.960 . S
H550 C542 0.930 . S
H551 C543 0.929 . S
H552 C560 0.929 . S
H553 C562 0.930 . S
H554 C564 0.930 . S
H555 C567 0.929 . S
H556 C570 0.934 . S
H557 C572 0.960 1_545 S
H558 C572 0.960 . S
H559 C572 0.960 . S
C560 H552 0.929 . S
C560 C561 1.377 . S
C560 C562 1.384 . S
C561 C560 1.377 . S
C561 C567 1.390 . S
C562 H553 0.930 . S
C562 C560 1.384 . S
C562 C563 1.372 . S
C563 C562 1.372 . S
C563 C564 1.400 . S
C563 C568 1.490 . S
C564 H554 0.930 . S
C564 C563 1.400 . S
C564 C567 1.386 . S
H565 C581 0.930 . S
H566 C582 0.931 . S
C567 H555 0.929 . S
C567 C561 1.390 . S
C567 C564 1.386 . S
C568 C563 1.490 . S
C568 C570 1.422 . S
C568 C571 1.403 . S
H569 C575 0.930 . S
C570 H556 0.934 . S
C570 C568 1.422 . S
C570 C573 1.374 1_564 S
C571 C568 1.403 . S
C571 C572 1.524 . S
C571 C575 1.400 1_564 S
C572 H557 0.960 1_565 S
C572 H558 0.960 . S
C572 H559 0.960 . S
C572 C571 1.524 . S
C573 C570 1.374 1_546 S
C573 C574 1.392 . S
C573 C577 1.495 . S
C574 C573 1.392 . S
C574 C575 1.385 . S
C574 C576 1.478 . S
C575 H569 0.930 . S
C575 C571 1.400 1_546 S
C575 C574 1.385 . S
C576 C574 1.478 . S
C576 C578 1.381 . S
C576 C582 1.383 . S
C577 C573 1.495 . S
C577 H583 0.959 1_545 S
C577 H584 0.961 . S
C577 H585 0.960 . S
C578 C576 1.381 . S
C578 C579 1.394 . S
C578 H586 0.930 . S
C579 C578 1.394 . S
C579 C580 1.383 . S
C579 H587 0.929 . S
C580 C579 1.383 . S
C580 C581 1.377 . S
C581 H565 0.930 . S
C581 C580 1.377 . S
C581 C582 1.379 . S
C582 H566 0.931 . S
C582 C576 1.383 . S
C582 C581 1.379 . S
H583 C577 0.959 1_565 S
H584 C577 0.961 . S
H585 C577 0.960 . S
H586 C578 0.930 . S
H587 C579 0.929 . S
H588 C596 0.929 . S
H589 C598 0.930 . S
H590 C600 0.930 . S
H591 C603 0.929 . S
H592 C606 0.930 . S
H593 C608 0.960 . S
H594 C608 0.960 . S
H595 C608 0.960 . S
C596 H588 0.929 . S
C596 C597 1.377 . S
C596 C598 1.384 . S
C597 C596 1.377 . S
C597 C603 1.390 . S
C598 H589 0.930 . S
C598 C596 1.384 . S
C598 C599 1.372 . S
C599 C598 1.372 . S
C599 C600 1.400 . S
C599 C604 1.490 . S
C600 H590 0.930 . S
C600 C599 1.400 . S
C600 C603 1.386 . S
H601 C617 0.942 . S
H602 C618 0.931 . S
C603 H591 0.929 . S
C603 C597 1.390 . S
C603 C600 1.386 . S
C604 C599 1.490 . S
C604 C606 1.395 . S
C604 C607 1.403 . S
H605 C611 0.930 . S
C606 H592 0.930 . S
C606 C604 1.395 . S
C606 C609 1.403 . S
C607 C604 1.403 . S
C607 C608 1.524 . S
C607 C611 1.400 . S
C608 H593 0.960 . S
C608 H594 0.960 . S
C608 H595 0.960 . S
C608 C607 1.524 . S
C609 C606 1.403 . S
C609 C610 1.392 . S
C609 C613 1.495 . S
C610 C609 1.392 . S
C610 C611 1.385 . S
C610 C612 1.478 . S
C611 H605 0.930 . S
C611 C607 1.400 . S
C611 C610 1.385 . S
C612 C610 1.478 . S
C612 C614 1.381 1_554 S
C612 C618 1.383 . S
C613 C609 1.495 . S
C613 H619 0.959 . S
C613 H620 0.961 . S
C613 H621 0.960 1_554 S
C614 C612 1.381 1_556 S
C614 C615 1.394 . S
C614 H622 0.930 . S
C615 C614 1.394 . S
C615 C616 1.383 . S
C615 H623 0.929 . S
C616 C615 1.383 . S
C616 C617 1.377 . S
C617 H601 0.942 . S
C617 C616 1.377 . S
C617 C618 1.379 1_556 S
C618 H602 0.931 . S
C618 C612 1.383 . S
C618 C617 1.379 1_554 S
H619 C613 0.959 . S
H620 C613 0.961 . S
H621 C613 0.960 1_556 S
H622 C614 0.930 . S
H623 C615 0.929 . S
H624 C632 0.929 . S
H625 C634 0.930 . S
H626 C636 0.930 . S
H627 C639 0.929 . S
H628 C642 0.930 . S
H629 C644 0.960 . S
H630 C644 0.960 . S
H631 C644 0.960 . S
C632 H624 0.929 . S
C632 C633 1.377 . S
C632 C634 1.384 . S
C633 C632 1.377 . S
C633 C639 1.390 . S
C634 H625 0.930 . S
C634 C632 1.384 . S
C634 C635 1.372 . S
C635 C634 1.372 . S
C635 C636 1.400 . S
C635 C640 1.490 . S
C636 H626 0.930 . S
C636 C635 1.400 . S
C636 C639 1.386 . S
H637 C653 0.930 . S
H638 C654 0.931 . S
C639 H627 0.929 . S
C639 C633 1.390 . S
C639 C636 1.386 . S
C640 C635 1.490 . S
C640 C642 1.395 . S
C640 C643 1.403 . S
H641 C647 0.930 . S
C642 H628 0.930 . S
C642 C640 1.395 . S
C642 C645 1.403 . S
C643 C640 1.403 . S
C643 C644 1.524 . S
C643 C647 1.400 . S
C644 H629 0.960 . S
C644 H630 0.960 . S
C644 H631 0.960 . S
C644 C643 1.524 . S
C645 C642 1.403 . S
C645 C646 1.392 . S
C645 C649 1.495 . S
C646 C645 1.392 . S
C646 C647 1.385 . S
C646 C648 1.478 1_655 S
C647 H641 0.930 . S
C647 C643 1.400 . S
C647 C646 1.385 . S
C648 C646 1.478 1_455 S
C648 C650 1.381 . S
C648 C654 1.383 1_455 S
C649 C645 1.495 . S
C649 H655 0.959 . S
C649 H656 0.961 . S
C649 H657 0.960 . S
C650 C648 1.381 . S
C650 C651 1.394 . S
C650 H658 0.930 . S
C651 C650 1.394 . S
C651 C652 1.383 . S
C651 H659 0.929 . S
C652 C651 1.383 . S
C652 C653 1.377 . S
C653 H637 0.930 . S
C653 C652 1.377 . S
C653 C654 1.379 1_455 S
C654 H638 0.931 . S
C654 C648 1.383 1_655 S
C654 C653 1.379 1_655 S
H655 C649 0.959 . S
H656 C649 0.961 . S
H657 C649 0.960 . S
H658 C650 0.930 . S
H659 C651 0.929 . S
H660 C668 0.929 . S
H661 C670 0.930 1_565 S
H662 C672 0.930 . S
H663 C675 0.929 . S
H664 C678 0.930 . S
H665 C680 0.960 . S
H666 C680 0.960 . S
H667 C680 0.960 . S
C668 H660 0.929 . S
C668 C669 1.377 . S
C668 C670 1.384 . S
C669 C668 1.377 . S
C669 C675 1.390 . S
C670 H661 0.930 1_545 S
C670 C668 1.384 . S
C670 C671 1.372 . S
C671 C670 1.372 . S
C671 C672 1.400 . S
C671 C676 1.490 1_545 S
C672 H662 0.930 . S
C672 C671 1.400 . S
C672 C675 1.386 . S
H673 C689 0.930 . S
H674 C690 0.931 . S
C675 H663 0.929 . S
C675 C669 1.390 . S
C675 C672 1.386 . S
C676 C671 1.490 1_565 S
C676 C678 1.395 . S
C676 C679 1.403 . S
H677 C683 0.930 . S
C678 H664 0.930 . S
C678 C676 1.395 . S
C678 C681 1.403 . S
C679 C676 1.403 . S
C679 C680 1.524 1_565 S
C679 C683 1.400 . S
C680 H665 0.960 . S
C680 H666 0.960 . S
C680 H667 0.960 . S
C680 C679 1.524 1_545 S
C681 C678 1.403 . S
C681 C682 1.392 . S
C681 C685 1.495 . S
C682 C681 1.392 . S
C682 C683 1.385 . S
C682 C684 1.478 . S
C683 H677 0.930 . S
C683 C679 1.400 . S
C683 C682 1.385 . S
C684 C682 1.478 . S
C684 C686 1.381 . S
C684 C690 1.383 . S
C685 C681 1.495 . S
C685 H691 0.959 . S
C685 H692 0.961 . S
C685 H693 0.960 . S
C686 C684 1.381 . S
C686 C687 1.394 . S
C686 H694 0.930 . S
C687 C686 1.394 . S
C687 C688 1.383 . S
C687 H695 0.929 . S
C688 C687 1.383 . S
C688 C689 1.377 . S
C689 H673 0.930 . S
C689 C688 1.377 . S
C689 C690 1.379 . S
C690 H674 0.931 . S
C690 C684 1.383 . S
C690 C689 1.379 . S
H691 C685 0.959 . S
H692 C685 0.961 . S
H693 C685 0.960 . S
H694 C686 0.930 . S
H695 C687 0.929 . S
H696 C704 0.929 . S
H697 C706 0.930 . S
H698 C708 0.930 . S
H699 C711 0.929 . S
H700 C714 0.930 . S
H701 C716 0.960 . S
H702 C716 0.960 . S
H703 C716 0.960 . S
C704 H696 0.929 . S
C704 C705 1.377 . S
C704 C706 1.384 . S
C705 C704 1.377 . S
C705 C711 1.390 . S
C706 H697 0.930 . S
C706 C704 1.384 . S
C706 C707 1.372 . S
C707 C706 1.372 . S
C707 C708 1.400 . S
C707 C712 1.490 . S
C708 H698 0.930 . S
C708 C707 1.400 . S
C708 C711 1.386 . S
H709 C725 0.930 . S
H710 C726 0.931 . S
C711 H699 0.929 . S
C711 C705 1.390 . S
C711 C708 1.386 . S
C712 C707 1.490 . S
C712 C714 1.395 . S
C712 C715 1.403 . S
H713 C719 0.930 . S
C714 H700 0.930 . S
C714 C712 1.395 . S
C714 C717 1.403 . S
C715 C712 1.403 . S
C715 C716 1.524 . S
C715 C719 1.400 . S
C716 H701 0.960 . S
C716 H702 0.960 . S
C716 H703 0.960 . S
C716 C715 1.524 . S
C717 C714 1.403 . S
C717 C718 1.392 . S
C717 C721 1.495 . S
C718 C717 1.392 . S
C718 C719 1.385 . S
C718 C720 1.478 . S
C719 H713 0.930 . S
C719 C715 1.400 . S
C719 C718 1.385 . S
C720 C718 1.478 . S
C720 C722 1.381 . S
C720 C726 1.383 . S
C721 C717 1.495 . S
C721 H727 0.959 . S
C721 H728 0.961 . S
C721 H729 0.960 . S
C722 C720 1.381 . S
C722 C723 1.394 . S
C722 H730 0.930 . S
C723 C722 1.394 . S
C723 C724 1.383 . S
C723 H731 0.929 . S
C724 C723 1.383 . S
C724 C725 1.377 . S
C725 H709 0.930 . S
C725 C724 1.377 . S
C725 C726 1.379 . S
C726 H710 0.931 . S
C726 C720 1.383 . S
C726 C725 1.379 . S
H727 C721 0.959 . S
H728 C721 0.961 . S
H729 C721 0.960 . S
H730 C722 0.930 . S
H731 C723 0.929 . S
H732 C740 0.929 . S
H733 C742 0.930 . S
H734 C744 0.930 . S
H735 C747 0.929 . S
H736 C750 0.930 . S
H737 C752 0.960 . S
H738 C752 0.960 . S
H739 C752 0.960 . S
C740 H732 0.929 . S
C740 C741 1.377 . S
C740 C742 1.384 . S
C741 C740 1.377 . S
C741 C747 1.390 . S
C742 H733 0.930 . S
C742 C740 1.384 . S
C742 C743 1.372 . S
C743 C742 1.372 . S
C743 C744 1.400 . S
C743 C748 1.490 . S
C744 H734 0.930 . S
C744 C743 1.400 . S
C744 C747 1.386 . S
H745 C761 0.930 . S
H746 C762 0.931 . S
C747 H735 0.929 . S
C747 C741 1.390 . S
C747 C744 1.386 . S
C748 C743 1.490 . S
C748 C750 1.395 . S
C748 C751 1.403 . S
H749 C755 0.930 . S
C750 H736 0.930 . S
C750 C748 1.395 . S
C750 C753 1.403 . S
C751 C748 1.403 . S
C751 C752 1.524 . S
C751 C755 1.400 . S
C752 H737 0.960 . S
C752 H738 0.960 . S
C752 H739 0.960 . S
C752 C751 1.524 . S
C753 C750 1.403 . S
C753 C754 1.392 . S
C753 C757 1.495 . S
C754 C753 1.392 . S
C754 C755 1.385 . S
C754 C756 1.478 1_455 S
C755 H749 0.930 . S
C755 C751 1.400 . S
C755 C754 1.385 . S
C756 C754 1.478 1_655 S
C756 C758 1.381 . S
C756 C762 1.383 1_655 S
C757 C753 1.495 . S
C757 H763 0.959 . S
C757 H764 0.961 . S
C757 H765 0.960 1_455 S
C758 C756 1.381 . S
C758 C759 1.394 . S
C758 H766 0.930 . S
C759 C758 1.394 . S
C759 C760 1.383 . S
C759 H767 0.929 . S
C760 C759 1.383 . S
C760 C761 1.377 . S
C761 H745 0.930 . S
C761 C760 1.377 . S
C761 C762 1.379 1_655 S
C762 H746 0.931 . S
C762 C756 1.383 1_455 S
C762 C761 1.379 1_455 S
H763 C757 0.959 . S
H764 C757 0.961 . S
H765 C757 0.960 1_655 S
H766 C758 0.930 . S
H767 C759 0.929 . S
H768 C776 0.929 . S
H769 C778 0.930 . S
H770 C780 0.930 . S
H771 C783 0.929 . S
H772 C786 0.930 . S
H773 C788 0.960 . S
H774 C788 0.960 . S
H775 C788 0.960 . S
C776 H768 0.929 . S
C776 C777 1.377 . S
C776 C778 1.384 . S
C777 C776 1.377 . S
C777 C783 1.390 . S
C778 H769 0.930 . S
C778 C776 1.384 . S
C778 C779 1.372 . S
C779 C778 1.372 . S
C779 C780 1.400 . S
C779 C784 1.490 . S
C780 H770 0.930 . S
C780 C779 1.400 . S
C780 C783 1.386 . S
H781 C797 0.930 . S
H782 C798 0.931 1_545 S
C783 H771 0.929 . S
C783 C777 1.390 . S
C783 C780 1.386 . S
C784 C779 1.490 . S
C784 C786 1.395 . S
C784 C787 1.403 . S
H785 C791 0.930 . S
C786 H772 0.930 . S
C786 C784 1.395 . S
C786 C789 1.403 . S
C787 C784 1.403 . S
C787 C788 1.524 . S
C787 C791 1.400 . S
C788 H773 0.960 . S
C788 H774 0.960 . S
C788 H775 0.960 . S
C788 C787 1.524 . S
C789 C786 1.403 . S
C789 C790 1.392 . S
C789 C793 1.495 1_545 S
C790 C789 1.392 . S
C790 C791 1.385 . S
C790 C792 1.478 1_545 S
C791 H785 0.930 . S
C791 C787 1.400 . S
C791 C790 1.385 . S
C792 C790 1.478 1_565 S
C792 C794 1.381 . S
C792 C798 1.383 . S
C793 C789 1.495 1_565 S
C793 H799 0.959 . S
C793 H800 0.961 . S
C793 H801 0.960 . S
C794 C792 1.381 . S
C794 C795 1.394 . S
C794 H802 0.930 . S
C795 C794 1.394 . S
C795 C796 1.383 . S
C795 H803 0.929 . S
C796 C795 1.383 . S
C796 C797 1.377 . S
C797 H781 0.930 . S
C797 C796 1.377 . S
C797 C798 1.379 . S
C798 H782 0.931 1_565 S
C798 C792 1.383 . S
C798 C797 1.379 . S
H799 C793 0.959 . S
H800 C793 0.961 . S
H801 C793 0.960 . S
H802 C794 0.930 . S
H803 C795 0.929 . S
H804 C812 0.929 . S
H805 C814 0.930 . S
H806 C816 0.930 . S
H807 C819 0.929 . S
H808 C822 0.930 . S
H809 C824 0.960 . S
H810 C824 0.960 . S
H811 C824 0.960 . S
C812 H804 0.929 . S
C812 C813 1.377 . S
C812 C814 1.384 . S
C813 C812 1.377 . S
C813 C819 1.390 . S
C814 H805 0.930 . S
C814 C812 1.384 . S
C814 C815 1.372 . S
C815 C814 1.372 . S
C815 C816 1.400 . S
C815 C820 1.490 . S
C816 H806 0.930 . S
C816 C815 1.400 . S
C816 C819 1.386 . S
H817 C833 0.930 . S
H818 C834 0.931 . S
C819 H807 0.929 . S
C819 C813 1.390 . S
C819 C816 1.386 . S
C820 C815 1.490 . S
C820 C822 1.395 . S
C820 C823 1.403 . S
H821 C827 0.930 . S
C822 H808 0.930 . S
C822 C820 1.395 . S
C822 C825 1.403 . S
C823 C820 1.403 . S
C823 C824 1.524 . S
C823 C827 1.400 . S
C824 H809 0.960 . S
C824 H810 0.960 . S
C824 H811 0.960 . S
C824 C823 1.524 . S
C825 C822 1.403 . S
C825 C826 1.392 . S
C825 C829 1.495 . S
C826 C825 1.392 . S
C826 C827 1.385 . S
C826 C828 1.478 . S
C827 H821 0.930 . S
C827 C823 1.400 . S
C827 C826 1.385 . S
C828 C826 1.478 . S
C828 C830 1.381 . S
C828 C834 1.383 . S
C829 C825 1.495 . S
C829 H835 0.959 . S
C829 H836 0.961 . S
C829 H837 0.960 . S
C830 C828 1.381 . S
C830 C831 1.394 . S
C830 H838 0.930 . S
C831 C830 1.394 . S
C831 C832 1.383 . S
C831 H839 0.929 . S
C832 C831 1.383 . S
C832 C833 1.377 . S
C833 H817 0.930 . S
C833 C832 1.377 . S
C833 C834 1.379 . S
C834 H818 0.931 . S
C834 C828 1.383 . S
C834 C833 1.379 . S
H835 C829 0.959 . S
H836 C829 0.961 . S
H837 C829 0.960 . S
H838 C830 0.930 . S
H839 C831 0.929 . S
H840 C848 0.929 . S
H841 C850 0.930 . S
H842 C852 0.930 . S
H843 C855 0.929 . S
H844 C858 0.930 . S
H845 C860 0.960 1_455 S
H846 C860 0.960 . S
H847 C860 0.960 . S
C848 H840 0.929 . S
C848 C849 1.377 . S
C848 C850 1.384 . S
C849 C848 1.377 . S
C849 C855 1.390 . S
C850 H841 0.930 . S
C850 C848 1.384 . S
C850 C851 1.372 . S
C851 C850 1.372 . S
C851 C852 1.400 . S
C851 C856 1.490 . S
C852 H842 0.930 . S
C852 C851 1.400 . S
C852 C855 1.386 . S
H853 C869 0.930 . S
H854 C870 0.931 . S
C855 H843 0.929 . S
C855 C849 1.390 . S
C855 C852 1.386 . S
C856 C851 1.490 . S
C856 C858 1.395 . S
C856 C859 1.403 . S
H857 C863 0.930 1_455 S
C858 H844 0.930 . S
C858 C856 1.395 . S
C858 C861 1.403 . S
C859 C856 1.403 . S
C859 C860 1.524 . S
C859 C863 1.400 . S
C860 H845 0.960 1_655 S
C860 H846 0.960 . S
C860 H847 0.960 . S
C860 C859 1.524 . S
C861 C858 1.403 . S
C861 C862 1.392 . S
C861 C865 1.505 . S
C862 C861 1.392 . S
C862 C863 1.385 . S
C862 C864 1.478 . S
C863 H857 0.930 1_655 S
C863 C859 1.400 . S
C863 C862 1.385 . S
C864 C862 1.478 . S
C864 C866 1.373 1_556 S
C864 C870 1.383 1_655 S
C865 C861 1.505 . S
C865 H871 0.960 . S
C865 H872 0.959 1_556 S
C865 H873 0.952 1_556 S
C866 C864 1.373 1_554 S
C866 C867 1.375 1_655 S
C866 H874 0.959 . S
C867 C866 1.375 1_455 S
C867 C868 1.383 . S
C867 H875 0.929 . S
C868 C867 1.383 . S
C868 C869 1.377 . S
C869 H853 0.930 . S
C869 C868 1.377 . S
C869 C870 1.379 1_554 S
C870 H854 0.931 . S
C870 C864 1.383 1_455 S
C870 C869 1.379 1_556 S
H871 C865 0.960 . S
H872 C865 0.959 1_554 S
H873 C865 0.952 1_554 S
H874 C866 0.959 . S
H875 C867 0.929 . S
H876 C884 0.929 . S
H877 C886 0.930 . S
H878 C888 0.930 . S
H879 C891 0.929 . S
H880 C894 0.930 . S
H881 C896 0.960 . S
H882 C896 0.960 . S
H883 C896 0.960 . S
C884 H876 0.929 . S
C884 C885 1.377 . S
C884 C886 1.384 . S
C885 C884 1.377 . S
C885 C891 1.390 . S
C886 H877 0.930 . S
C886 C884 1.384 . S
C886 C887 1.372 . S
C887 C886 1.372 . S
C887 C888 1.400 . S
C887 C892 1.490 . S
C888 H878 0.930 . S
C888 C887 1.400 . S
C888 C891 1.386 . S
H889 C905 0.930 . S
H890 C906 0.931 . S
C891 H879 0.929 . S
C891 C885 1.390 . S
C891 C888 1.386 . S
C892 C887 1.490 . S
C892 C894 1.395 . S
C892 C895 1.403 . S
H893 C899 0.930 . S
C894 H880 0.930 . S
C894 C892 1.395 . S
C894 C897 1.403 . S
C895 C892 1.403 . S
C895 C896 1.524 . S
C895 C899 1.400 . S
C896 H881 0.960 . S
C896 H882 0.960 . S
C896 H883 0.960 . S
C896 C895 1.524 . S
C897 C894 1.403 . S
C897 C898 1.392 . S
C897 C901 1.495 . S
C898 C897 1.392 . S
C898 C899 1.385 . S
C898 C900 1.478 . S
C899 H893 0.930 . S
C899 C895 1.400 . S
C899 C898 1.385 . S
C900 C898 1.478 . S
C900 C902 1.381 . S
C900 C906 1.382 1_565 S
C901 C897 1.495 . S
C901 H907 0.959 . S
C901 H908 0.961 . S
C901 H909 0.960 . S
C902 C900 1.381 . S
C902 C903 1.394 1_565 S
C902 H910 0.930 . S
C903 C902 1.394 1_545 S
C903 C904 1.383 . S
C903 H911 0.929 . S
C904 C903 1.383 . S
C904 C905 1.377 . S
C905 H889 0.930 . S
C905 C904 1.377 . S
C905 C906 1.379 . S
C906 H890 0.931 . S
C906 C900 1.382 1_545 S
C906 C905 1.379 . S
H907 C901 0.959 . S
H908 C901 0.961 . S
H909 C901 0.960 . S
H910 C902 0.930 . S
H911 C903 0.929 . S
H912 C920 0.929 . S
H913 C922 0.930 . S
H914 C924 0.930 . S
H915 C927 0.929 . S
H916 C930 0.930 . S
H917 C932 0.960 . S
H918 C932 0.960 . S
H919 C932 0.960 . S
C920 H912 0.929 . S
C920 C921 1.377 . S
C920 C922 1.384 . S
C921 C920 1.377 . S
C921 C927 1.390 . S
C922 H913 0.930 . S
C922 C920 1.384 . S
C922 C923 1.372 . S
C923 C922 1.372 . S
C923 C924 1.400 . S
C923 C928 1.490 . S
C924 H914 0.930 . S
C924 C923 1.400 . S
C924 C927 1.386 . S
H925 C941 0.930 . S
H926 C942 0.931 . S
C927 H915 0.929 . S
C927 C921 1.390 . S
C927 C924 1.386 . S
C928 C923 1.490 . S
C928 C930 1.395 . S
C928 C931 1.403 . S
H929 C935 0.930 . S
C930 H916 0.930 . S
C930 C928 1.395 . S
C930 C933 1.403 . S
C931 C928 1.403 . S
C931 C932 1.524 . S
C931 C935 1.400 . S
C932 H917 0.960 . S
C932 H918 0.960 . S
C932 H919 0.960 . S
C932 C931 1.524 . S
C933 C930 1.403 . S
C933 C934 1.392 . S
C933 C937 1.495 . S
C934 C933 1.392 . S
C934 C935 1.385 . S
C934 C936 1.478 . S
C935 H929 0.930 . S
C935 C931 1.400 . S
C935 C934 1.385 . S
C936 C934 1.478 . S
C936 C938 1.381 . S
C936 C942 1.383 . S
C937 C933 1.495 . S
C937 H943 0.959 . S
C937 H944 0.961 . S
C937 H945 0.960 . S
C938 C936 1.381 . S
C938 C939 1.394 . S
C938 H946 0.930 . S
C939 C938 1.394 . S
C939 C940 1.383 . S
C939 H947 0.929 . S
C940 C939 1.383 . S
C940 C941 1.377 . S
C941 H925 0.930 . S
C941 C940 1.377 . S
C941 C942 1.379 . S
C942 H926 0.931 . S
C942 C936 1.383 . S
C942 C941 1.379 . S
H943 C937 0.959 . S
H944 C937 0.961 . S
H945 C937 0.960 . S
H946 C938 0.930 . S
H947 C939 0.929 . S
H948 C956 0.929 . S
H949 C958 0.930 . S
H950 C960 0.930 . S
H951 C963 0.929 . S
H952 C966 0.930 . S
H953 C968 0.960 . S
H954 C968 0.960 . S
H955 C968 0.960 . S
C956 H948 0.929 . S
C956 C957 1.377 . S
C956 C958 1.384 . S
C957 C956 1.377 . S
C957 C963 1.390 . S
C958 H949 0.930 . S
C958 C956 1.384 . S
C958 C959 1.372 . S
C959 C958 1.372 . S
C959 C960 1.400 . S
C959 C964 1.490 . S
C960 H950 0.930 . S
C960 C959 1.400 . S
C960 C963 1.386 . S
H961 C977 0.930 . S
H962 C978 0.931 1_455 S
C963 H951 0.929 . S
C963 C957 1.390 . S
C963 C960 1.386 . S
C964 C959 1.490 . S
C964 C966 1.395 . S
C964 C967 1.403 . S
H965 C971 0.930 1_655 S
C966 H952 0.930 . S
C966 C964 1.395 . S
C966 C969 1.403 . S
C967 C964 1.403 . S
C967 C968 1.524 . S
C967 C971 1.400 . S
C968 H953 0.960 . S
C968 H954 0.960 . S
C968 H955 0.960 . S
C968 C967 1.524 . S
C969 C966 1.403 . S
C969 C970 1.392 . S
C969 C973 1.495 . S
C970 C969 1.392 . S
C970 C971 1.385 . S
C970 C972 1.486 . S
C971 H965 0.930 1_455 S
C971 C967 1.400 . S
C971 C970 1.385 . S
C972 C970 1.486 . S
C972 C974 1.380 1_455 S
C972 C978 1.375 1_455 S
C973 C969 1.495 . S
C973 H979 0.959 . S
C973 H980 0.961 . S
C973 H981 0.960 . S
C974 C972 1.380 1_655 S
C974 C975 1.394 . S
C974 H982 0.930 . S
C975 C974 1.394 . S
C975 C976 1.383 . S
C975 H983 0.929 . S
C976 C975 1.383 . S
C976 C977 1.377 . S
C977 H961 0.930 . S
C977 C976 1.377 . S
C977 C978 1.379 . S
C978 H962 0.931 1_655 S
C978 C972 1.375 1_655 S
C978 C977 1.379 . S
H979 C973 0.959 . S
H980 C973 0.961 . S
H981 C973 0.960 . S
H982 C974 0.930 . S
H983 C975 0.929 . S
H984 C992 0.929 . S
H985 C994 0.930 . S
H986 C996 0.930 1_545 S
H987 C999 0.929 . S
H988 C1002 0.930 1_565 S
H989 C1004 0.960 . S
H990 C1004 0.960 . S
H991 C1004 0.960 . S
C992 H984 0.929 . S
C992 C993 1.377 . S
C992 C994 1.384 . S
C993 C992 1.377 . S
C993 C999 1.390 . S
C994 H985 0.930 . S
C994 C992 1.384 . S
C994 C995 1.372 . S
C995 C994 1.372 . S
C995 C996 1.400 . S
C995 C1000 1.490 1_565 S
C996 H986 0.930 1_565 S
C996 C995 1.400 . S
C996 C999 1.386 . S
H997 C1013 0.930 . S
H998 C1014 0.931 . S
C999 H987 0.929 . S
C999 C993 1.390 . S
C999 C996 1.386 . S
C1000 C995 1.490 1_545 S
C1000 C1002 1.395 . S
C1000 C1003 1.403 . S
H1001 C1007 0.930 . S
C1002 H988 0.930 1_545 S
C1002 C1000 1.395 . S
C1002 C1005 1.403 . S
C1003 C1000 1.403 . S
C1003 C1004 1.524 . S
C1003 C1007 1.400 . S
C1004 H989 0.960 . S
C1004 H990 0.960 . S
C1004 H991 0.960 . S
C1004 C1003 1.524 . S
C1005 C1002 1.403 . S
C1005 C1006 1.392 . S
C1005 C1009 1.495 . S
C1006 C1005 1.392 . S
C1006 C1007 1.385 . S
C1006 C1008 1.478 . S
C1007 H1001 0.930 . S
C1007 C1003 1.400 . S
C1007 C1006 1.385 . S
C1008 C1006 1.478 . S
C1008 C1010 1.381 . S
C1008 C1014 1.383 . S
C1009 C1005 1.495 . S
C1009 H1015 0.959 1_545 S
C1009 H1016 0.961 . S
C1009 H1017 0.960 . S
C1010 C1008 1.381 . S
C1010 C1011 1.394 . S
C1010 H1018 0.930 . S
C1011 C1010 1.394 . S
C1011 C1012 1.383 . S
C1011 H1019 0.929 . S
C1012 C1011 1.383 . S
C1012 C1013 1.377 . S
C1013 H997 0.930 . S
C1013 C1012 1.377 . S
C1013 C1014 1.379 . S
C1014 H998 0.931 . S
C1014 C1008 1.383 . S
C1014 C1013 1.379 . S
H1015 C1009 0.959 1_565 S
H1016 C1009 0.961 . S
H1017 C1009 0.960 . S
H1018 C1010 0.930 . S
H1019 C1011 0.929 . S
C165 C107 1.636 . S
C184 C5 1.589 . S
C201 C16 1.636 . S
C220 C120 1.636 . S
C237 C29 1.635 . S
C256 C135 1.540 . S
C273 C44 1.575 . S
C292 C146 1.636 . S
C309 C81 1.634 . S
C328 C55 1.629 . S
C345 C68 1.636 . S
C364 C96 1.544 . S
C381 C118 1.385 . S
C400 C10 1.341 . S
C417 C14 1.384 . S
C436 C140 1.352 . S
C453 C144 1.383 . S
C472 C27 1.369 . S
C489 C49 1.344 . S
C508 C79 1.379 . S
C525 C101 1.354 . S
C544 C53 1.378 . S
C561 C105 1.385 . S
C580 C66 1.383 . S
C597 C3 1.945 . S
C616 C75 1.885 . S
C633 C18 1.901 . S
C652 C1 1.918 . S
C669 C23 1.889 . S
C688 C31 1.903 . S
C705 C42 1.943 . S
C724 C36 1.868 . S
C741 C57 1.903 . S
C760 C40 1.915 . S
C777 C70 1.906 . S
C796 C62 1.888 . S
C813 C83 1.906 . S
C832 C92 1.926 . S
C849 C94 1.944 . S
C868 C114 1.878 . S
C885 C109 1.900 . S
C904 C127 1.891 . S
C921 C122 1.899 . S
C940 C131 1.936 . S
C957 C133 1.943 . S
C976 C153 1.863 . S
C993 C88 1.880 . S
C1012 C148 1.891 . S
