# Generated by pormake.
# Topology lcs-a, (4)-cn, num edge types: 1
# Building blocks:
#     Node 0, Type 0, BuildingBlock: NAHDIM_clean_sbu_0, # of connection points: 4
#     Node 1, Type 0, BuildingBlock: NAHDIM_clean_sbu_0, # of connection points: 4
#     Node 2, Type 0, BuildingBlock: NAHDIM_clean_sbu_0, # of connection points: 4
#     Node 3, Type 0, BuildingBlock: NAHDIM_clean_sbu_0, # of connection points: 4
#     Node 4, Type 0, BuildingBlock: NAHDIM_clean_sbu_0, # of connection points: 4
#     Node 5, Type 0, BuildingBlock: NAHDIM_clean_sbu_0, # of connection points: 4
#     Node 6, Type 0, BuildingBlock: NAHDIM_clean_sbu_0, # of connection points: 4
#     Node 7, Type 0, BuildingBlock: NAHDIM_clean_sbu_0, # of connection points: 4
#     Node 8, Type 0, BuildingBlock: NAHDIM_clean_sbu_0, # of connection points: 4
#     Node 9, Type 0, BuildingBlock: NAHDIM_clean_sbu_0, # of connection points: 4
#     Node 10, Type 0, BuildingBlock: NAHDIM_clean_sbu_0, # of connection points: 4
#     Node 11, Type 0, BuildingBlock: NAHDIM_clean_sbu_0, # of connection points: 4
#     Node 12, Type 0, BuildingBlock: NAHDIM_clean_sbu_0, # of connection points: 4
#     Node 13, Type 0, BuildingBlock: NAHDIM_clean_sbu_0, # of connection points: 4
#     Node 14, Type 0, BuildingBlock: NAHDIM_clean_sbu_0, # of connection points: 4
#     Node 15, Type 0, BuildingBlock: NAHDIM_clean_sbu_0, # of connection points: 4
#     Node 16, Type 0, BuildingBlock: NAHDIM_clean_sbu_0, # of connection points: 4
#     Node 17, Type 0, BuildingBlock: NAHDIM_clean_sbu_0, # of connection points: 4
#     Node 18, Type 0, BuildingBlock: NAHDIM_clean_sbu_0, # of connection points: 4
#     Node 19, Type 0, BuildingBlock: NAHDIM_clean_sbu_0, # of connection points: 4
#     Node 20, Type 0, BuildingBlock: NAHDIM_clean_sbu_0, # of connection points: 4
#     Node 21, Type 0, BuildingBlock: NAHDIM_clean_sbu_0, # of connection points: 4
#     Node 22, Type 0, BuildingBlock: NAHDIM_clean_sbu_0, # of connection points: 4
#     Node 23, Type 0, BuildingBlock: NAHDIM_clean_sbu_0, # of connection points: 4
#     Node 24, Type 0, BuildingBlock: NAHDIM_clean_sbu_0, # of connection points: 4
#     Node 25, Type 0, BuildingBlock: NAHDIM_clean_sbu_0, # of connection points: 4
#     Node 26, Type 0, BuildingBlock: NAHDIM_clean_sbu_0, # of connection points: 4
#     Node 27, Type 0, BuildingBlock: NAHDIM_clean_sbu_0, # of connection points: 4
#     Node 28, Type 0, BuildingBlock: NAHDIM_clean_sbu_0, # of connection points: 4
#     Node 29, Type 0, BuildingBlock: NAHDIM_clean_sbu_0, # of connection points: 4
#     Node 30, Type 0, BuildingBlock: NAHDIM_clean_sbu_0, # of connection points: 4
#     Node 31, Type 0, BuildingBlock: NAHDIM_clean_sbu_0, # of connection points: 4
#     Node 32, Type 0, BuildingBlock: NAHDIM_clean_sbu_0, # of connection points: 4
#     Node 33, Type 0, BuildingBlock: NAHDIM_clean_sbu_0, # of connection points: 4
#     Node 34, Type 0, BuildingBlock: NAHDIM_clean_sbu_0, # of connection points: 4
#     Node 35, Type 0, BuildingBlock: NAHDIM_clean_sbu_0, # of connection points: 4
#     Node 36, Type 0, BuildingBlock: NAHDIM_clean_sbu_0, # of connection points: 4
#     Node 37, Type 0, BuildingBlock: NAHDIM_clean_sbu_0, # of connection points: 4
#     Node 38, Type 0, BuildingBlock: NAHDIM_clean_sbu_0, # of connection points: 4
#     Node 39, Type 0, BuildingBlock: NAHDIM_clean_sbu_0, # of connection points: 4
#     Node 40, Type 0, BuildingBlock: NAHDIM_clean_sbu_0, # of connection points: 4
#     Node 41, Type 0, BuildingBlock: NAHDIM_clean_sbu_0, # of connection points: 4
#     Node 42, Type 0, BuildingBlock: NAHDIM_clean_sbu_0, # of connection points: 4
#     Node 43, Type 0, BuildingBlock: NAHDIM_clean_sbu_0, # of connection points: 4
#     Node 44, Type 0, BuildingBlock: NAHDIM_clean_sbu_0, # of connection points: 4
#     Node 45, Type 0, BuildingBlock: NAHDIM_clean_sbu_0, # of connection points: 4
#     Node 46, Type 0, BuildingBlock: NAHDIM_clean_sbu_0, # of connection points: 4
#     Node 47, Type 0, BuildingBlock: NAHDIM_clean_sbu_0, # of connection points: 4
#     Node 48, Type 0, BuildingBlock: NAHDIM_clean_sbu_0, # of connection points: 4
#     Node 49, Type 0, BuildingBlock: NAHDIM_clean_sbu_0, # of connection points: 4
#     Node 50, Type 0, BuildingBlock: NAHDIM_clean_sbu_0, # of connection points: 4
#     Node 51, Type 0, BuildingBlock: NAHDIM_clean_sbu_0, # of connection points: 4
#     Node 52, Type 0, BuildingBlock: NAHDIM_clean_sbu_0, # of connection points: 4
#     Node 53, Type 0, BuildingBlock: NAHDIM_clean_sbu_0, # of connection points: 4
#     Node 54, Type 0, BuildingBlock: NAHDIM_clean_sbu_0, # of connection points: 4
#     Node 55, Type 0, BuildingBlock: NAHDIM_clean_sbu_0, # of connection points: 4
#     Node 56, Type 0, BuildingBlock: NAHDIM_clean_sbu_0, # of connection points: 4
#     Node 57, Type 0, BuildingBlock: NAHDIM_clean_sbu_0, # of connection points: 4
#     Node 58, Type 0, BuildingBlock: NAHDIM_clean_sbu_0, # of connection points: 4
#     Node 59, Type 0, BuildingBlock: NAHDIM_clean_sbu_0, # of connection points: 4
#     Node 60, Type 0, BuildingBlock: NAHDIM_clean_sbu_0, # of connection points: 4
#     Node 61, Type 0, BuildingBlock: NAHDIM_clean_sbu_0, # of connection points: 4
#     Node 62, Type 0, BuildingBlock: NAHDIM_clean_sbu_0, # of connection points: 4
#     Node 63, Type 0, BuildingBlock: NAHDIM_clean_sbu_0, # of connection points: 4
#     Node 64, Type 0, BuildingBlock: NAHDIM_clean_sbu_0, # of connection points: 4
#     Node 65, Type 0, BuildingBlock: NAHDIM_clean_sbu_0, # of connection points: 4
#     Node 66, Type 0, BuildingBlock: NAHDIM_clean_sbu_0, # of connection points: 4
#     Node 67, Type 0, BuildingBlock: NAHDIM_clean_sbu_0, # of connection points: 4
#     Node 68, Type 0, BuildingBlock: NAHDIM_clean_sbu_0, # of connection points: 4
#     Node 69, Type 0, BuildingBlock: NAHDIM_clean_sbu_0, # of connection points: 4
#     Node 70, Type 0, BuildingBlock: NAHDIM_clean_sbu_0, # of connection points: 4
#     Node 71, Type 0, BuildingBlock: NAHDIM_clean_sbu_0, # of connection points: 4
#     Node 72, Type 0, BuildingBlock: NAHDIM_clean_sbu_0, # of connection points: 4
#     Node 73, Type 0, BuildingBlock: NAHDIM_clean_sbu_0, # of connection points: 4
#     Node 74, Type 0, BuildingBlock: NAHDIM_clean_sbu_0, # of connection points: 4
#     Node 75, Type 0, BuildingBlock: NAHDIM_clean_sbu_0, # of connection points: 4
#     Node 76, Type 0, BuildingBlock: NAHDIM_clean_sbu_0, # of connection points: 4
#     Node 77, Type 0, BuildingBlock: NAHDIM_clean_sbu_0, # of connection points: 4
#     Node 78, Type 0, BuildingBlock: NAHDIM_clean_sbu_0, # of connection points: 4
#     Node 79, Type 0, BuildingBlock: NAHDIM_clean_sbu_0, # of connection points: 4
#     Node 80, Type 0, BuildingBlock: NAHDIM_clean_sbu_0, # of connection points: 4
#     Node 81, Type 0, BuildingBlock: NAHDIM_clean_sbu_0, # of connection points: 4
#     Node 82, Type 0, BuildingBlock: NAHDIM_clean_sbu_0, # of connection points: 4
#     Node 83, Type 0, BuildingBlock: NAHDIM_clean_sbu_0, # of connection points: 4
#     Node 84, Type 0, BuildingBlock: NAHDIM_clean_sbu_0, # of connection points: 4
#     Node 85, Type 0, BuildingBlock: NAHDIM_clean_sbu_0, # of connection points: 4
#     Node 86, Type 0, BuildingBlock: NAHDIM_clean_sbu_0, # of connection points: 4
#     Node 87, Type 0, BuildingBlock: NAHDIM_clean_sbu_0, # of connection points: 4
#     Node 88, Type 0, BuildingBlock: NAHDIM_clean_sbu_0, # of connection points: 4
#     Node 89, Type 0, BuildingBlock: NAHDIM_clean_sbu_0, # of connection points: 4
#     Node 90, Type 0, BuildingBlock: NAHDIM_clean_sbu_0, # of connection points: 4
#     Node 91, Type 0, BuildingBlock: NAHDIM_clean_sbu_0, # of connection points: 4
#     Node 92, Type 0, BuildingBlock: NAHDIM_clean_sbu_0, # of connection points: 4
#     Node 93, Type 0, BuildingBlock: NAHDIM_clean_sbu_0, # of connection points: 4
#     Node 94, Type 0, BuildingBlock: NAHDIM_clean_sbu_0, # of connection points: 4
#     Node 95, Type 0, BuildingBlock: NAHDIM_clean_sbu_0, # of connection points: 4
#     Edge 96, Type (0, 0), None
#     Edge 97, Type (0, 0), None
#     Edge 98, Type (0, 0), None
#     Edge 99, Type (0, 0), None
#     Edge 100, Type (0, 0), None
#     Edge 101, Type (0, 0), None
#     Edge 102, Type (0, 0), None
#     Edge 103, Type (0, 0), None
#     Edge 104, Type (0, 0), None
#     Edge 105, Type (0, 0), None
#     Edge 106, Type (0, 0), None
#     Edge 107, Type (0, 0), None
#     Edge 108, Type (0, 0), None
#     Edge 109, Type (0, 0), None
#     Edge 110, Type (0, 0), None
#     Edge 111, Type (0, 0), None
#     Edge 112, Type (0, 0), None
#     Edge 113, Type (0, 0), None
#     Edge 114, Type (0, 0), None
#     Edge 115, Type (0, 0), None
#     Edge 116, Type (0, 0), None
#     Edge 117, Type (0, 0), None
#     Edge 118, Type (0, 0), None
#     Edge 119, Type (0, 0), None
#     Edge 120, Type (0, 0), None
#     Edge 121, Type (0, 0), None
#     Edge 122, Type (0, 0), None
#     Edge 123, Type (0, 0), None
#     Edge 124, Type (0, 0), None
#     Edge 125, Type (0, 0), None
#     Edge 126, Type (0, 0), None
#     Edge 127, Type (0, 0), None
#     Edge 128, Type (0, 0), None
#     Edge 129, Type (0, 0), None
#     Edge 130, Type (0, 0), None
#     Edge 131, Type (0, 0), None
#     Edge 132, Type (0, 0), None
#     Edge 133, Type (0, 0), None
#     Edge 134, Type (0, 0), None
#     Edge 135, Type (0, 0), None
#     Edge 136, Type (0, 0), None
#     Edge 137, Type (0, 0), None
#     Edge 138, Type (0, 0), None
#     Edge 139, Type (0, 0), None
#     Edge 140, Type (0, 0), None
#     Edge 141, Type (0, 0), None
#     Edge 142, Type (0, 0), None
#     Edge 143, Type (0, 0), None
#     Edge 144, Type (0, 0), None
#     Edge 145, Type (0, 0), None
#     Edge 146, Type (0, 0), None
#     Edge 147, Type (0, 0), None
#     Edge 148, Type (0, 0), None
#     Edge 149, Type (0, 0), None
#     Edge 150, Type (0, 0), None
#     Edge 151, Type (0, 0), None
#     Edge 152, Type (0, 0), None
#     Edge 153, Type (0, 0), None
#     Edge 154, Type (0, 0), None
#     Edge 155, Type (0, 0), None
#     Edge 156, Type (0, 0), None
#     Edge 157, Type (0, 0), None
#     Edge 158, Type (0, 0), None
#     Edge 159, Type (0, 0), None
#     Edge 160, Type (0, 0), None
#     Edge 161, Type (0, 0), None
#     Edge 162, Type (0, 0), None
#     Edge 163, Type (0, 0), None
#     Edge 164, Type (0, 0), None
#     Edge 165, Type (0, 0), None
#     Edge 166, Type (0, 0), None
#     Edge 167, Type (0, 0), None
#     Edge 168, Type (0, 0), None
#     Edge 169, Type (0, 0), None
#     Edge 170, Type (0, 0), None
#     Edge 171, Type (0, 0), None
#     Edge 172, Type (0, 0), None
#     Edge 173, Type (0, 0), None
#     Edge 174, Type (0, 0), None
#     Edge 175, Type (0, 0), None
#     Edge 176, Type (0, 0), None
#     Edge 177, Type (0, 0), None
#     Edge 178, Type (0, 0), None
#     Edge 179, Type (0, 0), None
#     Edge 180, Type (0, 0), None
#     Edge 181, Type (0, 0), None
#     Edge 182, Type (0, 0), None
#     Edge 183, Type (0, 0), None
#     Edge 184, Type (0, 0), None
#     Edge 185, Type (0, 0), None
#     Edge 186, Type (0, 0), None
#     Edge 187, Type (0, 0), None
#     Edge 188, Type (0, 0), None
#     Edge 189, Type (0, 0), None
#     Edge 190, Type (0, 0), None
#     Edge 191, Type (0, 0), None
#     Edge 192, Type (0, 0), None
#     Edge 193, Type (0, 0), None
#     Edge 194, Type (0, 0), None
#     Edge 195, Type (0, 0), None
#     Edge 196, Type (0, 0), None
#     Edge 197, Type (0, 0), None
#     Edge 198, Type (0, 0), None
#     Edge 199, Type (0, 0), None
#     Edge 200, Type (0, 0), None
#     Edge 201, Type (0, 0), None
#     Edge 202, Type (0, 0), None
#     Edge 203, Type (0, 0), None
#     Edge 204, Type (0, 0), None
#     Edge 205, Type (0, 0), None
#     Edge 206, Type (0, 0), None
#     Edge 207, Type (0, 0), None
#     Edge 208, Type (0, 0), None
#     Edge 209, Type (0, 0), None
#     Edge 210, Type (0, 0), None
#     Edge 211, Type (0, 0), None
#     Edge 212, Type (0, 0), None
#     Edge 213, Type (0, 0), None
#     Edge 214, Type (0, 0), None
#     Edge 215, Type (0, 0), None
#     Edge 216, Type (0, 0), None
#     Edge 217, Type (0, 0), None
#     Edge 218, Type (0, 0), None
#     Edge 219, Type (0, 0), None
#     Edge 220, Type (0, 0), None
#     Edge 221, Type (0, 0), None
#     Edge 222, Type (0, 0), None
#     Edge 223, Type (0, 0), None
#     Edge 224, Type (0, 0), None
#     Edge 225, Type (0, 0), None
#     Edge 226, Type (0, 0), None
#     Edge 227, Type (0, 0), None
#     Edge 228, Type (0, 0), None
#     Edge 229, Type (0, 0), None
#     Edge 230, Type (0, 0), None
#     Edge 231, Type (0, 0), None
#     Edge 232, Type (0, 0), None
#     Edge 233, Type (0, 0), None
#     Edge 234, Type (0, 0), None
#     Edge 235, Type (0, 0), None
#     Edge 236, Type (0, 0), None
#     Edge 237, Type (0, 0), None
#     Edge 238, Type (0, 0), None
#     Edge 239, Type (0, 0), None
#     Edge 240, Type (0, 0), None
#     Edge 241, Type (0, 0), None
#     Edge 242, Type (0, 0), None
#     Edge 243, Type (0, 0), None
#     Edge 244, Type (0, 0), None
#     Edge 245, Type (0, 0), None
#     Edge 246, Type (0, 0), None
#     Edge 247, Type (0, 0), None
#     Edge 248, Type (0, 0), None
#     Edge 249, Type (0, 0), None
#     Edge 250, Type (0, 0), None
#     Edge 251, Type (0, 0), None
#     Edge 252, Type (0, 0), None
#     Edge 253, Type (0, 0), None
#     Edge 254, Type (0, 0), None
#     Edge 255, Type (0, 0), None
#     Edge 256, Type (0, 0), None
#     Edge 257, Type (0, 0), None
#     Edge 258, Type (0, 0), None
#     Edge 259, Type (0, 0), None
#     Edge 260, Type (0, 0), None
#     Edge 261, Type (0, 0), None
#     Edge 262, Type (0, 0), None
#     Edge 263, Type (0, 0), None
#     Edge 264, Type (0, 0), None
#     Edge 265, Type (0, 0), None
#     Edge 266, Type (0, 0), None
#     Edge 267, Type (0, 0), None
#     Edge 268, Type (0, 0), None
#     Edge 269, Type (0, 0), None
#     Edge 270, Type (0, 0), None
#     Edge 271, Type (0, 0), None
#     Edge 272, Type (0, 0), None
#     Edge 273, Type (0, 0), None
#     Edge 274, Type (0, 0), None
#     Edge 275, Type (0, 0), None
#     Edge 276, Type (0, 0), None
#     Edge 277, Type (0, 0), None
#     Edge 278, Type (0, 0), None
#     Edge 279, Type (0, 0), None
#     Edge 280, Type (0, 0), None
#     Edge 281, Type (0, 0), None
#     Edge 282, Type (0, 0), None
#     Edge 283, Type (0, 0), None
#     Edge 284, Type (0, 0), None
#     Edge 285, Type (0, 0), None
#     Edge 286, Type (0, 0), None
#     Edge 287, Type (0, 0), None
# Relax obj value: 0.754
# Max RMSD: 0.466
# Mean RMSD: 0.337
data_MOF--net-lcs-a--node1-NAHDIM_clean_sbu_0--edge1-none
_symmetry_space_group_name_H-M    P1
_symmetry_Int_Tables_number       1
_symmetry_cell_setting            triclinic
loop_
_symmetry_equiv_pos_as_xyz
'x, y, z'
_cell_length_a     40.644493
_cell_length_b     40.610383
_cell_length_c     40.622654
_cell_angle_alpha  88.255547
_cell_angle_beta   88.240237
_cell_angle_gamma 88.30605
loop_
_atom_site_label
_atom_site_type_symbol
_atom_site_fract_x
_atom_site_fract_y
_atom_site_fract_z
_atom_type_partial_charge
C0 C 0.07561 0.33845 0.33276 0.0
O1 O 0.09681 0.31351 0.33491 0.0
O2 O 0.07571 0.27645 0.39943 0.0
Zn3 Zn 0.03664 0.30311 0.38282 0.0
O4 O 0.01768 0.32563 0.42284 0.0
C5 C 0.00748 0.24076 0.37184 0.0
O6 O 0.038 0.22962 0.37417 0.0
O7 O 0.04861 0.33787 0.34927 0.0
C8 C 0.98715 0.32715 0.43046 0.0
O9 O 0.96577 0.31675 0.40983 0.0
C10 C 0.08882 0.28419 0.42603 0.0
O11 O 0.08281 0.3137 0.43755 0.0
O12 O 0.00175 0.27171 0.36991 0.0
C13 C 0.89662 0.83878 0.62865 0.0
O14 O 0.90143 0.83139 0.65985 0.0
O15 O 0.96886 0.86431 0.65609 0.0
Zn16 Zn 0.96333 0.82554 0.62739 0.0
O17 O 0.95868 0.78692 0.66034 0.0
C18 C 0.02059 0.8037 0.58236 0.0
O19 O 0.02163 0.77503 0.59808 0.0
O20 O 0.92025 0.83583 0.60774 0.0
C21 C 0.95139 0.75678 0.66033 0.0
O22 O 0.9464 0.74109 0.68862 0.0
C23 C 0.98462 0.85979 0.68237 0.0
O24 O 0.98464 0.88311 0.70405 0.0
O25 O -0.00084 0.82547 0.59097 0.0
C26 C 0.50253 0.71205 0.74281 0.0
O27 O 0.49141 0.7417 0.73436 0.0
O28 O 0.50526 0.78304 0.79126 0.0
Zn29 Zn 0.53768 0.7451 0.79228 0.0
O30 O 0.53547 0.72885 0.83935 0.0
C31 C 0.59794 0.77527 0.80553 0.0
O32 O 0.6297 0.78008 0.80257 0.0
O33 O 0.52448 0.70863 0.76429 0.0
C34 C 0.52156 0.70363 0.85192 0.0
O35 O 0.50706 0.68303 0.83316 0.0
C36 C 0.47758 0.77575 0.80438 0.0
O37 O 0.47083 0.74457 0.80963 0.0
O38 O 0.58412 0.75846 0.78425 0.0
C39 C 0.62976 0.30163 0.94274 0.0
O40 O 0.64478 0.31682 0.91783 0.0
O41 O 0.56553 0.23783 0.98955 0.0
Zn42 Zn 0.57588 0.28678 0.9879 0.0
O43 O 0.60227 0.2972 0.02744 0.0
C44 C 0.50525 0.29506 -0.00204 0.0
O45 O 0.50474 0.2643 0.98911 0.0
O46 O 0.59869 0.30487 0.94659 0.0
C47 C 0.60039 0.32539 0.04027 0.0
O48 O 0.58323 0.34932 0.02584 0.0
C49 C 0.5724 0.2201 0.01496 0.0
O50 O 0.59511 0.22985 0.03452 0.0
O51 O 0.5321 0.31041 0.99597 0.0
C52 C 0.96635 0.65027 0.27809 0.0
O53 O 0.97926 0.63578 0.25216 0.0
O54 O 0.04105 0.69095 0.23467 0.0
Zn55 Zn 0.99292 0.70365 0.24252 0.0
O56 O 0.96979 0.69061 0.20312 0.0
C57 C 0.9792 0.78368 0.24496 0.0
O58 O 0.96536 0.7963 0.27151 0.0
O59 O 0.97029 0.68087 0.28115 0.0
C60 C 0.94133 0.70366 0.20001 0.0
O61 O 0.92799 0.72044 0.22436 0.0
C62 C 0.05684 0.70453 0.21056 0.0
O63 O 0.04228 0.72786 0.19279 0.0
O64 O 0.98453 0.75275 0.24395 0.0
C65 C 0.68424 0.73763 0.48161 0.0
O66 O 0.68848 0.72765 0.45129 0.0
O67 O 0.65198 0.80155 0.4298 0.0
Zn68 Zn 0.62614 0.7674 0.45589 0.0
O69 O 0.62046 0.73123 0.42314 0.0
C70 C 0.55589 0.78497 0.48204 0.0
O71 O 0.54398 0.75948 0.4679 0.0
O72 O 0.65733 0.75208 0.49011 0.0
C73 C 0.61023 0.70202 0.42533 0.0
O74 O 0.61433 0.68306 0.39991 0.0
C75 C 0.64485 0.80844 0.40014 0.0
O76 O 0.66417 0.82724 0.38174 0.0
O77 O 0.58656 0.79041 0.47918 0.0
C78 C 0.48101 0.37581 0.77346 0.0
O79 O 0.44984 0.36816 0.77596 0.0
O80 O 0.43538 0.3156 0.72625 0.0
Zn81 Zn 0.48342 0.32877 0.722 0.0
O82 O 0.49063 0.35056 0.67725 0.0
C83 C 0.49854 0.2711 0.69486 0.0
O84 O 0.47504 0.28497 0.67738 0.0
O85 O 0.50031 0.35952 0.75461 0.0
C86 C 0.51796 0.34644 0.66169 0.0
O87 O 0.54278 0.33165 0.67659 0.0
C88 C 0.41676 0.3242 0.70267 0.0
O89 O 0.42293 0.35163 0.68597 0.0
O90 O 0.50888 0.28583 0.71952 0.0
C91 C 0.96397 0.19178 0.01077 0.0
O92 O 0.98669 0.1683 0.00799 0.0
O93 O 0.02595 0.1864 0.95136 0.0
Zn94 Zn 0.00659 0.22967 0.96797 0.0
O95 O 0.98266 0.25334 0.93139 0.0
C96 C 0.06225 0.27646 0.97582 0.0
O97 O 0.08299 0.28986 0.99526 0.0
O98 O 0.9701 0.2207 0.00025 0.0
C99 C 0.95702 0.24103 0.92018 0.0
O100 O 0.94613 0.21318 0.93292 0.0
C101 C 0.03217 0.18269 0.92082 0.0
O102 O 0.02617 0.20721 0.89996 0.0
O103 O 0.04158 0.25634 0.98839 0.0
C104 C 0.33256 0.07568 0.33796 0.0
O105 O 0.3347 0.09685 0.31297 0.0
O106 O 0.3997 0.07603 0.2764 0.0
Zn107 Zn 0.38279 0.03681 0.30277 0.0
O108 O 0.42256 0.01751 0.3254 0.0
C109 C 0.3723 0.00797 0.2402 0.0
O110 O 0.37486 0.03856 0.22922 0.0
O111 O 0.34912 0.04871 0.33746 0.0
C112 C 0.42994 0.98691 0.32674 0.0
O113 O 0.40919 0.96574 0.3161 0.0
C114 C 0.42626 0.08912 0.28432 0.0
O115 O 0.43774 0.08281 0.31377 0.0
O116 O 0.36997 0.00208 0.27109 0.0
C117 C 0.2961 0.94435 0.63284 0.0
O118 O 0.31043 0.91866 0.64738 0.0
O119 O 0.23504 0.99134 0.56697 0.0
Zn120 Zn 0.28355 0.98947 0.57779 0.0
O121 O 0.29477 0.02924 0.60345 0.0
C122 C 0.29306 -0.00202 0.50687 0.0
O123 O 0.26213 0.98983 0.50612 0.0
O124 O 0.29927 0.94827 0.60175 0.0
C125 C 0.32328 0.04135 0.60119 0.0
O126 O 0.34679 0.026 0.58426 0.0
C127 C 0.21751 0.01692 0.57343 0.0
O128 O 0.22731 0.03674 0.59588 0.0
O129 O 0.30799 0.99604 0.53397 0.0
C130 C 0.16839 0.00933 0.92883 0.0
O131 O 0.1375 0.01068 0.92022 0.0
O132 O 0.14303 0.95338 0.87357 0.0
Zn133 Zn 0.17719 0.98821 0.86317 0.0
O134 O 0.15661 0.02762 0.8425 0.0
C135 C 0.22444 0.98203 0.80405 0.0
O136 O 0.20255 -0.0021 0.78603 0.0
O137 O 0.19082 0.00152 0.90767 0.0
C138 C 0.17547 0.05085 0.83388 0.0
O139 O 0.20702 0.04826 0.83988 0.0
C140 C 0.12251 0.94097 0.85488 0.0
O141 O 0.1004 0.92098 0.86765 0.0
O142 O 0.21786 0.97481 0.83443 0.0
C143 C 0.39129 0.88921 0.11159 0.0
O144 O 0.39163 0.85744 0.10645 0.0
O145 O 0.33793 0.89424 0.0337 0.0
Zn146 Zn 0.32646 0.89896 0.08088 0.0
O147 O 0.30739 0.85519 0.09704 0.0
C148 C 0.27887 0.95174 0.06338 0.0
O149 O 0.27046 0.9318 0.04057 0.0
O150 O 0.36717 0.90764 0.1031 0.0
C151 C 0.27732 0.84834 0.10166 0.0
O152 O 0.26915 0.81755 0.10678 0.0
C153 C 0.34563 0.86589 0.02328 0.0
O154 O 0.3488 0.84092 0.04433 0.0
O155 O 0.29939 0.9416 0.08466 0.0
C156 C 0.41594 0.90407 0.1311 0.0
O157 O 0.43641 0.88589 0.14881 0.0
O158 O 0.4507 0.92953 0.20481 0.0
Zn159 Zn 0.43325 0.95948 0.16944 0.0
O160 O 0.47028 0.98798 0.15312 0.0
C161 C 0.38375 0.98128 0.21875 0.0
O162 O 0.38651 0.95102 0.23089 0.0
O163 O 0.41293 0.93488 0.13511 0.0
C164 C 0.4651 0.01877 0.15508 0.0
O165 O 0.43463 0.03041 0.15577 0.0
C166 C 0.48136 0.92806 0.20966 0.0
O167 O 0.50187 0.94131 0.18784 0.0
O168 O 0.3991 0.98899 0.19204 0.0
C169 C 0.31528 0.08476 0.3686 0.0
O170 O 0.29769 0.11233 0.37023 0.0
O171 O 0.33953 0.09237 0.4686 0.0
Zn172 Zn 0.30322 0.0779 0.43974 0.0
O173 O 0.26662 0.11301 0.43924 0.0
C174 C 0.30673 0.01864 0.48003 0.0
O175 O 0.33826 0.02486 0.47919 0.0
O176 O 0.32032 0.06727 0.39451 0.0
C177 C 0.236 0.10766 0.44277 0.0
O178 O 0.21498 0.13269 0.44533 0.0
C179 C 0.34334 0.12113 0.47906 0.0
O180 O 0.32621 0.14604 0.46633 0.0
O181 O 0.28707 0.03677 0.46316 0.0
C182 C 0.27615 0.96766 0.65258 0.0
O183 O 0.25047 0.98303 0.63988 0.0
O184 O 0.24249 0.04192 0.7025 0.0
Zn185 Zn 0.24984 0.99321 0.71485 0.0
O186 O 0.20735 0.97266 0.70906 0.0
C187 C 0.25846 0.97715 0.7912 0.0
O188 O 0.28131 0.968 0.812 0.0
O189 O 0.28128 0.96979 0.68312 0.0
C190 C 0.20352 0.94225 0.71494 0.0
O191 O 0.22772 0.924 0.72703 0.0
C192 C 0.21583 0.05705 0.71126 0.0
O193 O 0.19443 0.04185 0.73062 0.0
O194 O 0.26712 0.98231 0.761 0.0
C195 C 0.1762 0.00752 0.96374 0.0
O196 O 0.1537 -0.00235 0.98542 0.0
O197 O 0.18738 0.9515 0.03268 0.0
Zn198 Zn 0.22282 0.97554 0.00698 0.0
O199 O 0.24806 0.94086 0.98177 0.0
C200 C 0.26913 0.98698 0.06159 0.0
O201 O 0.2825 0.0072 0.08162 0.0
O202 O 0.2063 0.00524 0.97086 0.0
C203 C 0.26214 0.94398 0.95352 0.0
O204 O 0.26395 0.97305 0.93866 0.0
C205 C 0.17487 0.9265 0.0204 0.0
O206 O 0.18027 0.92102 0.98897 0.0
O207 O 0.24975 -0.00109 0.03987 0.0
C208 C 0.33882 0.33325 0.07769 0.0
O209 O 0.31333 0.33457 0.0983 0.0
O210 O 0.27553 0.39948 0.076 0.0
Zn211 Zn 0.30384 0.38309 0.03789 0.0
O212 O 0.32589 0.4235 0.01905 0.0
C213 C 0.24299 0.36925 0.00738 0.0
O214 O 0.23098 0.37134 0.03764 0.0
O215 O 0.33874 0.35028 0.05099 0.0
C216 C 0.32785 0.43102 0.9885 0.0
O217 O 0.3184 0.41 0.96699 0.0
C218 C 0.28198 0.42666 0.08878 0.0
O219 O 0.31122 0.43901 0.0834 0.0
O220 O 0.27402 0.36875 0.00235 0.0
C221 C 0.92943 0.18303 0.01348 0.0
O222 O 0.92159 0.15254 0.02108 0.0
O223 O 0.87485 0.14954 0.95542 0.0
Zn224 Zn 0.86502 0.18517 0.98925 0.0
O225 O 0.84676 0.16478 0.03072 0.0
C226 C 0.80349 0.21967 0.98387 0.0
O227 O 0.79411 0.19211 -0.00148 0.0
O228 O 0.90824 0.20258 0.00039 0.0
C229 C 0.83582 0.18306 0.05364 0.0
O230 O 0.83886 0.21513 0.05076 0.0
C231 C 0.85705 0.13094 0.93914 0.0
O232 O 0.87133 0.10739 0.92192 0.0
O233 O 0.83352 0.22263 0.9748 0.0
C234 C 0.94402 0.63218 0.30052 0.0
O235 O 0.91956 0.64782 0.31576 0.0
O236 O 0.98916 0.56688 0.23738 0.0
Zn237 Zn 0.98801 0.57745 0.2862 0.0
O238 O 0.02804 0.60325 0.29622 0.0
C239 C -0.0027 0.50674 0.29498 0.0
O240 O 0.98861 0.50615 0.2642 0.0
O241 O 0.94729 0.60108 0.30417 0.0
C242 C 0.04099 0.6011 0.32433 0.0
O243 O 0.02631 0.58425 0.34836 0.0
C244 C 0.01455 0.57343 0.21951 0.0
O245 O 0.03443 0.59596 0.22904 0.0
O246 O 0.99547 0.53369 0.31017 0.0
C247 C 0.71297 0.74299 0.50126 0.0
O248 O 0.74247 0.73447 0.48986 0.0
O249 O 0.78622 0.78886 0.50832 0.0
Zn250 Zn 0.74625 0.7913 0.53828 0.0
O251 O 0.73106 0.83856 0.53473 0.0
C252 C 0.77087 0.806 0.60097 0.0
O253 O 0.77293 0.80334 0.63314 0.0
O254 O 0.70979 0.76409 0.52361 0.0
C255 C 0.70685 0.85161 0.51965 0.0
O256 O 0.68682 0.83332 0.50384 0.0
C257 C 0.78165 0.80225 0.48012 0.0
O258 O 0.75136 0.80858 0.47091 0.0
O259 O 0.75618 0.78404 0.58582 0.0
C260 C 0.00491 0.96631 0.1827 0.0
O261 O -0.00292 0.9898 0.16119 0.0
O262 O 0.94615 0.03214 0.19486 0.0
Zn263 Zn 0.96785 0.00477 0.23051 0.0
O264 O 0.93172 0.97953 0.25473 0.0
C265 C 0.97964 0.05874 0.2769 0.0
O266 O -4e-05 0.07797 0.29121 0.0
O267 O -0.00146 0.97023 0.21305 0.0
C268 C 0.92536 0.94948 0.25016 0.0
O269 O 0.94421 0.93181 0.23027 0.0
C270 C 0.92261 0.02106 0.17902 0.0
O271 O 0.91596 0.98966 0.18228 0.0
O272 O 0.99157 0.0362 0.25853 0.0
C273 C 0.14876 0.69631 0.516 0.0
O274 O 0.15706 0.69454 0.48461 0.0
O275 O 0.19265 0.59717 0.54626 0.0
Zn276 Zn 0.18616 0.63795 0.51584 0.0
O277 O 0.16141 0.62625 0.47571 0.0
C278 C 0.2394 0.68509 0.51308 0.0
O279 O 0.22467 0.70055 0.53759 0.0
O280 O 0.15835 0.6737 0.53621 0.0
C281 C 0.1737 0.62484 0.44665 0.0
O282 O 0.15411 0.62161 0.42192 0.0
C283 C 0.21616 0.57668 0.55299 0.0
O284 O 0.21001 0.55173 0.57335 0.0
O285 O 0.22737 0.65945 0.50175 0.0
C286 C 0.08466 0.36914 0.31554 0.0
O287 O 0.11224 0.3709 0.29797 0.0
O288 O 0.09253 0.46898 0.33964 0.0
Zn289 Zn 0.07761 0.44018 0.30348 0.0
O290 O 0.1122 0.43974 0.26637 0.0
C291 C 0.01834 0.47999 0.30808 0.0
O292 O 0.02501 0.47894 0.33951 0.0
O293 O 0.0671 0.39498 0.3206 0.0
C294 C 0.10634 0.4432 0.23585 0.0
O295 O 0.13099 0.44576 0.21437 0.0
C296 C 0.12137 0.47938 0.34297 0.0
O297 O 0.14595 0.4666 0.32541 0.0
O298 O 0.0363 0.46348 0.28798 0.0
C299 C 0.48263 0.68353 0.73721 0.0
O300 O 0.45251 0.68813 0.72684 0.0
O301 O 0.42985 0.65221 0.80127 0.0
Zn302 Zn 0.45581 0.62598 0.76736 0.0
O303 O 0.4231 0.62051 0.73114 0.0
C304 C 0.48149 0.55566 0.78517 0.0
O305 O 0.46768 0.54384 0.75946 0.0
O306 O 0.49054 0.65662 0.75201 0.0
C307 C 0.42529 0.61042 0.7019 0.0
O308 O 0.3999 0.61466 0.68293 0.0
C309 C 0.40016 0.64523 0.80818 0.0
O310 O 0.38186 0.66477 0.82683 0.0
O311 O 0.4786 0.58632 0.79068 0.0
C312 C 0.97416 0.60755 0.663 0.0
O313 O 0.00645 0.60753 0.66033 0.0
O314 O 0.02233 0.67278 0.63249 0.0
Zn315 Zn 0.97936 0.67819 0.65633 0.0
O316 O 0.95156 0.70991 0.62717 0.0
C317 C 0.00996 0.71551 0.70868 0.0
O318 O 0.02287 0.73297 0.68419 0.0
O319 O 0.95778 0.63463 0.66095 0.0
C320 C 0.9445 0.74042 0.6301 0.0
O321 O 0.93039 0.75699 0.60587 0.0
C322 C 0.02343 0.67663 0.60143 0.0
O323 O 0.99588 0.67829 0.58535 0.0
O324 O 0.99036 0.69267 0.70259 0.0
C325 C 0.12405 0.17077 0.50782 0.0
O326 O 0.11164 0.16887 0.47856 0.0
O327 O 0.09358 0.26165 0.47961 0.0
Zn328 Zn 0.07851 0.22369 0.50911 0.0
O329 O 0.05269 0.19563 0.48019 0.0
C330 C 0.0365 0.27026 0.54525 0.0
O331 O 0.05315 0.29245 0.52808 0.0
O332 O 0.11515 0.19433 0.52635 0.0
C333 C 0.03615 0.17074 0.48922 0.0
O334 O 0.03213 0.16287 0.52064 0.0
C335 C 0.0984 0.2573 0.44894 0.0
O336 O 0.10043 0.22714 0.43816 0.0
O337 O 0.04552 0.24004 0.54376 0.0
C338 C 0.60585 0.3273 0.20194 0.0
O339 O 0.58053 0.30849 0.20808 0.0
O340 O 0.53076 0.34812 0.14829 0.0
Zn341 Zn 0.57811 0.33288 0.13839 0.0
O342 O 0.59231 0.34832 0.09249 0.0
C343 C 0.55024 0.26886 0.14187 0.0
O344 O 0.52547 0.28368 0.15731 0.0
O345 O 0.60943 0.34152 0.17378 0.0
C346 C 0.60864 0.32777 0.07498 0.0
O347 O 0.62361 0.30245 0.08952 0.0
C348 C 0.51309 0.35752 0.12427 0.0
O349 O 0.5277 0.36807 0.09684 0.0
O350 O 0.57619 0.28429 0.1345 0.0
C351 C 0.36764 0.80942 0.88551 0.0
O352 O 0.3802 0.77962 0.88133 0.0
O353 O 0.44542 0.79032 0.85051 0.0
Zn354 Zn 0.43465 0.81992 0.8878 0.0
O355 O 0.46581 0.8589 0.88239 0.0
C356 C 0.46018 0.76926 0.93446 0.0
O357 O 0.48267 0.76432 0.91129 0.0
O358 O 0.38692 0.83346 0.88653 0.0
C359 C 0.49453 0.86005 0.89395 0.0
O360 O 0.51375 0.88429 0.88482 0.0
C361 C 0.45991 0.80028 0.82409 0.0
O362 O 0.46623 0.83164 0.81964 0.0
O363 O 0.43833 0.79195 0.93025 0.0
C364 C 0.90155 0.34042 0.84091 0.0
O365 O 0.9096 0.33526 0.87173 0.0
O366 O 0.99312 0.31681 0.8166 0.0
Zn367 Zn 0.9529 0.29192 0.82851 0.0
O368 O 0.95668 0.27994 0.87632 0.0
C369 C 0.97564 0.22663 0.80498 0.0
O370 O 0.97159 0.20045 0.78749 0.0
O371 O 0.91437 0.32223 0.81878 0.0
C372 C 0.94378 0.25455 0.88946 0.0
O373 O 0.92369 0.2373 0.87262 0.0
C374 C -9e-05 0.33871 0.83671 0.0
O375 O 0.97801 0.34686 0.85966 0.0
O376 O 0.95413 0.25009 0.80337 0.0
C377 C 0.33765 0.2292 0.62463 0.0
O378 O 0.34981 0.22147 0.65352 0.0
O379 O 0.39738 0.30157 0.65444 0.0
Zn380 Zn 0.39312 0.26563 0.62109 0.0
O381 O 0.41323 0.2213 0.63515 0.0
C382 C 0.43099 0.30517 0.57282 0.0
O383 O 0.42257 0.33024 0.59127 0.0
O384 O 0.34736 0.25505 0.60939 0.0
C385 C 0.4405 0.20993 0.62356 0.0
O386 O 0.45956 0.22899 0.60523 0.0
C387 C 0.40062 0.29793 0.68542 0.0
O388 O 0.39855 0.26838 0.69927 0.0
O389 O 0.4188 0.2773 0.57949 0.0
C390 C 0.52895 0.59445 0.39284 0.0
O391 O 0.50927 0.61467 0.37632 0.0
O392 O 0.49981 0.67378 0.4294 0.0
Zn393 Zn 0.54474 0.65459 0.41918 0.0
O394 O 0.5741 0.6678 0.4566 0.0
C395 C 0.55651 0.70151 0.36224 0.0
O396 O 0.54921 0.72479 0.38302 0.0
O397 O 0.5451 0.60551 0.41615 0.0
C398 C 0.59736 0.68807 0.45632 0.0
O399 O 0.60982 0.69631 0.48422 0.0
C400 C 0.49244 0.68227 0.45859 0.0
O401 O 0.51107 0.67166 0.48277 0.0
O402 O 0.55711 0.67159 0.37256 0.0
C403 C 0.15737 0.78081 0.13924 0.0
O404 O 0.15626 0.78206 0.17152 0.0
O405 O 0.10705 0.70615 0.17798 0.0
Zn406 Zn 0.09726 0.74846 0.15133 0.0
O407 O 0.08482 0.78596 0.18026 0.0
C408 C 0.03607 0.72985 0.11306 0.0
O409 O 0.03759 0.69851 0.12203 0.0
O410 O 0.13623 0.76446 0.12476 0.0
C411 C 0.07875 0.81186 0.16284 0.0
O412 O 0.08474 0.81155 0.1309 0.0
C413 C 0.09002 0.69218 0.201 0.0
O414 O 0.10214 0.66551 0.21583 0.0
O415 O 0.05788 0.74911 0.12204 0.0
C416 C 0.66239 0.97385 0.60719 0.0
O417 O 0.66095 0.00617 0.60781 0.0
O418 O 0.63102 0.02135 0.67258 0.0
Zn419 Zn 0.65464 0.97822 0.6777 0.0
O420 O 0.62554 0.95031 0.70952 0.0
C421 C 0.70758 0.00889 0.71425 0.0
O422 O 0.68339 0.02264 0.73144 0.0
O423 O 0.65908 0.95701 0.63391 0.0
C424 C 0.62807 0.94399 0.74022 0.0
O425 O 0.60388 0.92969 0.75672 0.0
C426 C 0.60003 0.02285 0.67697 0.0
O427 O 0.58359 0.99549 0.67939 0.0
O428 O 0.70106 0.98887 0.69192 0.0
C429 C 0.8317 0.88469 0.37366 0.0
O430 O 0.80029 0.88019 0.38033 0.0
O431 O 0.80009 0.8474 0.44852 0.0
Zn432 Zn 0.83013 0.88524 0.44234 0.0
O433 O 0.86481 0.8805 0.47799 0.0
C434 C 0.77663 0.93155 0.46339 0.0
O435 O 0.77021 0.90864 0.4858 0.0
O436 O 0.85142 0.88514 0.39727 0.0
C437 C 0.86362 0.89357 0.50609 0.0
O438 O 0.88633 0.88574 0.52744 0.0
C439 C 0.80812 0.8213 0.46467 0.0
O440 O 0.83829 0.81715 0.475 0.0
O441 O 0.8009 0.9272 0.44325 0.0
C442 C 0.80468 0.12652 0.17696 0.0
O443 O 0.82112 0.14141 0.19918 0.0
O444 O 0.86729 0.03618 0.17448 0.0
Zn445 Zn 0.83832 0.06706 0.20107 0.0
O446 O 0.87111 0.09388 0.22518 0.0
C447 C 0.81558 0.00841 0.23668 0.0
O448 O 0.84651 -0.0013 0.23338 0.0
O449 O 0.80961 0.09594 0.17252 0.0
C450 C 0.87254 0.10802 0.25249 0.0
O451 O 0.89927 0.12359 0.25909 0.0
C452 C 0.89677 0.04459 0.16855 0.0
O453 O 0.90338 0.07608 0.16759 0.0
O454 O 0.80726 0.03767 0.22767 0.0
C455 C 0.74901 0.0964 0.86863 0.0
O456 O 0.77427 0.11565 0.86437 0.0
O457 O 0.80343 0.10985 0.93653 0.0
Zn458 Zn 0.75374 0.11473 0.93455 0.0
O459 O 0.74054 0.16121 0.92502 0.0
C460 C 0.74637 0.10422 0.00476 0.0
O461 O 0.77865 0.10199 0.00239 0.0
O462 O 0.7369 0.09063 0.89737 0.0
C463 C 0.7101 0.16806 0.92953 0.0
O464 O 0.68972 0.14416 0.93655 0.0
C465 C 0.82117 0.13482 0.9395 0.0
O466 O 0.80741 0.16435 0.93939 0.0
O467 O 0.7301 0.10522 0.97857 0.0
C468 C 0.73376 0.08219 0.84063 0.0
O469 O 0.70375 0.07143 0.84454 0.0
O470 O 0.71587 0.01003 0.81732 0.0
Zn471 Zn 0.72464 0.04809 0.78531 0.0
O472 O 0.68218 0.07069 0.7732 0.0
C473 C 0.7421 0.017 0.71975 0.0
O474 O 0.76485 0.00828 0.69781 0.0
O475 O 0.74947 0.078 0.81344 0.0
C476 C 0.6732 0.10089 0.77194 0.0
O477 O 0.69374 0.12392 0.7787 0.0
C478 C 0.68692 0.005 0.82857 0.0
O479 O 0.66191 0.0217 0.81608 0.0
O480 O 0.75076 0.03228 0.74497 0.0
C481 C 0.67624 0.95743 0.57817 0.0
O482 O 0.68113 0.92536 0.57985 0.0
O483 O 0.76794 0.96263 0.56108 0.0
Zn484 Zn 0.73004 0.95275 0.53201 0.0
O485 O 0.72499 0.90383 0.53228 0.0
C486 C 0.75655 0.96234 0.46158 0.0
O487 O 0.75842 0.981 0.43465 0.0
O488 O 0.69142 0.97435 0.55601 0.0
C489 C 0.70364 0.88753 0.51811 0.0
O490 O 0.68071 0.90275 0.50083 0.0
C491 C 0.76989 0.94621 0.58815 0.0
O492 O 0.74915 0.9227 0.59504 0.0
O493 O 0.73788 0.97191 0.48552 0.0
C494 C 0.84164 0.89935 0.34172 0.0
O495 O 0.87248 0.90709 0.33612 0.0
O496 O 0.82101 0.99117 0.32215 0.0
Zn497 Zn 0.82736 0.95207 0.2944 0.0
O498 O 0.87387 0.95617 0.27703 0.0
C499 C 0.78999 0.98357 0.24063 0.0
O500 O 0.76391 0.98645 0.22237 0.0
O501 O 0.81929 0.91277 0.32425 0.0
C502 C 0.89432 0.9364 0.26338 0.0
O503 O 0.88621 0.906 0.25811 0.0
C504 C 0.84451 -0.00306 0.34072 0.0
O505 O 0.86838 0.97478 0.34423 0.0
O506 O 0.79339 0.95823 0.25962 0.0
C507 C 0.78294 0.14552 0.15512 0.0
O508 O 0.78483 0.17773 0.1528 0.0
O509 O 0.70496 0.18032 0.10558 0.0
Zn510 Zn 0.74841 0.15549 0.09583 0.0
O511 O 0.78467 0.18566 0.08231 0.0
C512 C 0.73084 0.11613 0.03554 0.0
O513 O 0.69984 0.12621 0.03646 0.0
O514 O 0.76554 0.13055 0.1352 0.0
C515 C 0.81128 0.16931 0.07641 0.0
O516 O 0.81232 0.13736 0.08253 0.0
C517 C 0.6897 0.20236 0.08842 0.0
O518 O 0.66245 0.21596 0.10063 0.0
O519 O 0.75002 0.12469 0.05758 0.0
C520 C 0.60915 0.66174 0.97309 0.0
O521 O 0.60953 0.65908 0.00537 0.0
O522 O 0.67394 0.63122 0.02081 0.0
Zn523 Zn 0.67935 0.65517 0.9779 0.0
O524 O 0.71146 0.62648 0.95007 0.0
C525 C 0.7151 0.70827 0.00907 0.0
O526 O 0.73264 0.68411 0.0224 0.0
O527 O 0.63597 0.65944 0.95633 0.0
C528 C 0.74201 0.62983 0.9436 0.0
O529 O 0.7591 0.60598 0.9294 0.0
C530 C 0.6779 0.60016 0.02203 0.0
O531 O 0.68023 0.584 0.99452 0.0
O532 O 0.69287 0.70171 0.989 0.0
C533 C 0.17919 0.80242 0.11993 0.0
O534 O 0.2031 0.81697 0.13423 0.0
O535 O 0.17383 0.87008 0.03273 0.0
Zn536 Zn 0.201 0.83977 0.06193 0.0
O537 O 0.22451 0.87192 0.09012 0.0
C538 C 0.23701 0.82132 0.002 0.0
O539 O 0.23338 0.85282 0.99465 0.0
O540 O 0.173 0.80951 0.09004 0.0
C541 C 0.25226 0.87455 0.10311 0.0
O542 O 0.25767 0.90078 0.12 0.0
C543 C 0.16667 0.8988 0.04282 0.0
O544 O 0.16582 0.9037 0.07466 0.0
O545 O 0.22789 0.81074 0.03054 0.0
C546 C 0.88696 0.37231 0.83066 0.0
O547 O 0.88295 0.37891 0.79916 0.0
O548 O 0.84831 0.44718 0.79947 0.0
Zn549 Zn 0.88617 0.44116 0.82949 0.0
O550 O 0.88098 0.47668 0.86436 0.0
C551 C 0.93229 0.46287 0.77608 0.0
O552 O 0.90924 0.48512 0.76976 0.0
O553 O 0.8866 0.3959 0.85049 0.0
C554 C 0.89358 0.50503 0.86332 0.0
O555 O 0.88516 0.52625 0.886 0.0
C556 C 0.82214 0.46307 0.80774 0.0
O557 O 0.81794 0.47294 0.8381 0.0
O558 O 0.92809 0.44261 0.80028 0.0
C559 C 0.32702 0.20241 0.60473 0.0
O560 O 0.30791 0.20865 0.5797 0.0
O561 O 0.34779 0.14792 0.52931 0.0
Zn562 Zn 0.33247 0.13878 0.57682 0.0
O563 O 0.34726 0.0929 0.59164 0.0
C564 C 0.26849 0.14263 0.54903 0.0
O565 O 0.28342 0.15771 0.52407 0.0
O566 O 0.34139 0.17429 0.60795 0.0
C567 C 0.32658 0.07615 0.60868 0.0
O568 O 0.30181 0.09153 0.6237 0.0
C569 C 0.35709 0.12362 0.51195 0.0
O570 O 0.36749 0.09632 0.52692 0.0
O571 O 0.28387 0.13531 0.57499 0.0
C572 C 0.14656 0.1565 0.78625 0.0
O573 O 0.1784 0.15153 0.78931 0.0
O574 O 0.18258 0.10688 0.70698 0.0
Zn575 Zn 0.15369 0.09886 0.74811 0.0
O576 O 0.18126 0.08224 0.78488 0.0
C577 C 0.11568 0.03904 0.72831 0.0
O578 O 0.13139 0.0382 0.69961 0.0
O579 O 0.13124 0.13963 0.76608 0.0
C580 C 0.16347 0.0753 0.81024 0.0
O581 O 0.13178 0.0826 0.81027 0.0
C582 C 0.20712 0.08951 0.69629 0.0
O583 O 0.22412 0.10033 0.67037 0.0
O584 O 0.12014 0.06262 0.74735 0.0
C585 C 0.8484 0.32292 0.55934 0.0
O586 O 0.84852 0.3544 0.56575 0.0
O587 O 0.79164 0.3566 0.61249 0.0
Zn588 Zn 0.78278 0.33828 0.56822 0.0
O589 O 0.78607 0.37352 0.5335 0.0
C590 C 0.70927 0.32731 0.56385 0.0
O591 O 0.68499 0.30665 0.56607 0.0
O592 O 0.8212 0.30823 0.55892 0.0
C593 C 0.79145 0.37062 0.50281 0.0
O594 O 0.79541 0.3414 0.49005 0.0
C595 C 0.79602 0.38725 0.61469 0.0
O596 O 0.79224 0.40686 0.58876 0.0
O597 O 0.73859 0.31605 0.56797 0.0
C598 C 0.95757 0.57858 0.67673 0.0
O599 O 0.92567 0.58076 0.68257 0.0
O600 O 0.96337 0.561 0.76755 0.0
Zn601 Zn 0.95313 0.53185 0.72979 0.0
O602 O 0.90417 0.53202 0.7251 0.0
C603 C 0.96305 0.46136 0.75596 0.0
O604 O 0.98184 0.43453 0.75768 0.0
O605 O 0.97445 0.55582 0.69101 0.0
C606 C 0.88773 0.5184 0.70349 0.0
O607 O 0.90279 0.50178 0.67996 0.0
C608 C 0.94617 0.58748 0.77042 0.0
O609 O 0.9216 0.59366 0.75079 0.0
O610 O 0.97248 0.48543 0.73739 0.0
C611 C 0.62556 0.33793 0.22886 0.0
O612 O 0.65442 0.35024 0.22128 0.0
O613 O 0.65474 0.39787 0.30121 0.0
Zn614 Zn 0.6215 0.39343 0.26522 0.0
O615 O 0.63552 0.4136 0.22089 0.0
C616 C 0.57315 0.43129 0.30455 0.0
O617 O 0.59161 0.42301 0.32963 0.0
O618 O 0.61012 0.34755 0.25462 0.0
C619 C 0.6239 0.44088 0.20955 0.0
O620 O 0.60565 0.45994 0.22865 0.0
C621 C 0.68572 0.40109 0.29769 0.0
O622 O 0.69969 0.39893 0.26822 0.0
O623 O 0.57979 0.41894 0.27676 0.0
C624 C 0.61268 0.86865 0.85693 0.0
O625 O 0.63351 0.84351 0.86018 0.0
O626 O 0.60914 0.82147 0.93145 0.0
Zn627 Zn 0.5771 0.82467 0.89461 0.0
O628 O 0.53322 0.82284 0.91995 0.0
C629 C 0.5787 0.79092 0.83234 0.0
O630 O 0.55522 0.81252 0.82503 0.0
O631 O 0.58428 0.86737 0.87077 0.0
C632 C 0.50467 0.8365 0.9197 0.0
O633 O 0.48515 0.83261 0.94572 0.0
C634 C 0.60548 0.79799 0.95249 0.0
O635 O 0.62299 0.79659 0.97913 0.0
O636 O 0.58969 0.78966 0.86132 0.0
C637 C 0.36932 0.31589 0.08691 0.0
O638 O 0.37074 0.29791 0.11426 0.0
O639 O 0.46961 0.33958 0.09354 0.0
Zn640 Zn 0.44034 0.30346 0.07946 0.0
O641 O 0.44016 0.26656 0.11429 0.0
C642 C 0.47867 0.30789 0.01935 0.0
O643 O 0.47726 0.3394 0.02576 0.0
O644 O 0.39526 0.32093 0.06948 0.0
C645 C 0.44344 0.23598 0.1086 0.0
O646 O 0.44631 0.21467 0.13337 0.0
C647 C 0.48021 0.34368 0.12217 0.0
O648 O 0.46762 0.32676 0.14732 0.0
O649 O 0.46285 0.28766 0.03786 0.0
C650 C 0.9019 0.132 0.41903 0.0
O651 O 0.88609 0.14648 0.44353 0.0
O652 O 0.92986 0.20635 0.45069 0.0
Zn653 Zn 0.95856 0.17041 0.43269 0.0
O654 O 0.9868 0.15283 0.46943 0.0
C655 C 0.98071 0.21934 0.38315 0.0
O656 O 0.95055 0.23161 0.38607 0.0
O657 O 0.93196 0.13765 0.41246 0.0
C658 C 0.01759 0.15483 0.46436 0.0
O659 O 0.02935 0.15591 0.43391 0.0
C660 C 0.92843 0.2109 0.48142 0.0
O661 O 0.94147 0.1888 0.50174 0.0
O662 O 0.98829 0.19252 0.39837 0.0
C663 C 0.12529 0.72181 0.5268 0.0
O664 O 0.10316 0.73382 0.50647 0.0
O665 O 0.04742 0.71824 0.56945 0.0
Zn666 Zn 0.08189 0.75136 0.57236 0.0
O667 O 0.08417 0.76168 0.61971 0.0
C668 C 0.0433 0.81106 0.55412 0.0
O669 O 0.03801 0.83792 0.53601 0.0
O670 O 0.12316 0.72882 0.55693 0.0
C671 C 0.10824 0.76504 0.63833 0.0
O672 O 0.13869 0.76198 0.62684 0.0
C673 C 0.05228 0.69246 0.58719 0.0
O674 O 0.08051 0.68818 0.60186 0.0
O675 O 0.06821 0.79249 0.54702 0.0
C676 C 0.51652 0.14992 0.69495 0.0
O677 O 0.48514 0.15827 0.69343 0.0
O678 O 0.546 0.1937 0.59564 0.0
Zn679 Zn 0.51583 0.18705 0.63654 0.0
O680 O 0.47576 0.16206 0.62512 0.0
C681 C 0.51301 0.24008 0.68392 0.0
O682 O 0.53761 0.22539 0.69922 0.0
O683 O 0.53654 0.15935 0.6721 0.0
C684 C 0.44668 0.17425 0.62388 0.0
O685 O 0.42198 0.15456 0.62084 0.0
C686 C 0.5526 0.21734 0.57523 0.0
O687 O 0.5728 0.21136 0.55013 0.0
O688 O 0.50168 0.22815 0.65824 0.0
C689 C 0.11009 0.39312 0.88313 0.0
O690 O 0.08303 0.40294 0.86848 0.0
O691 O 0.04301 0.34195 0.8724 0.0
Zn692 Zn 0.08783 0.32539 0.88306 0.0
O693 O 0.10334 0.2959 0.84549 0.0
C694 C 0.06318 0.28573 0.94052 0.0
O695 O 0.04131 0.27521 0.92066 0.0
O696 O 0.11677 0.3627 0.88795 0.0
C697 C 0.10568 0.26464 0.84586 0.0
O698 O 0.11054 0.24938 0.81806 0.0
C699 C 0.03444 0.34346 0.84264 0.0
O700 O 0.05647 0.33804 0.81898 0.0
O701 O 0.08507 0.30511 0.92932 0.0
C702 C 0.00944 0.93247 0.17198 0.0
O703 O 0.01202 0.92642 0.14043 0.0
O704 O 0.95726 0.8747 0.14136 0.0
Zn705 Zn 0.99158 0.86545 0.17644 0.0
O706 O 0.0327 0.84651 0.15668 0.0
C707 C 0.98615 0.80469 0.21574 0.0
O708 O 0.00141 0.79187 0.18999 0.0
O709 O 0.00243 0.90933 0.19255 0.0
C710 C 0.05557 0.83658 0.17547 0.0
O711 O 0.05261 0.84108 0.20731 0.0
C712 C 0.94056 0.85631 0.1238 0.0
O713 O 0.92271 0.86984 0.10033 0.0
O714 O 0.97764 0.83518 0.21509 0.0
C715 C 0.40876 0.78242 0.49142 0.0
O716 O 0.42025 0.76983 0.51909 0.0
O717 O 0.48218 0.73273 0.48353 0.0
Zn718 Zn 0.47673 0.78083 0.47225 0.0
O719 O 0.49665 0.78719 0.42756 0.0
C720 C 0.53477 0.80647 0.50323 0.0
O721 O 0.54886 0.82635 0.52307 0.0
O722 O 0.42883 0.79282 0.46932 0.0
C723 C 0.48237 0.7915 0.40038 0.0
O724 O 0.45012 0.79335 0.39941 0.0
C725 C 0.47303 0.7128 0.46239 0.0
O726 O 0.45545 0.72416 0.43771 0.0
O727 O 0.50336 0.80679 0.50263 0.0
C728 C 0.85637 0.61919 0.86732 0.0
O729 O 0.85815 0.64033 0.84227 0.0
O730 O 0.93172 0.61597 0.81884 0.0
Zn731 Zn 0.89503 0.58387 0.82312 0.0
O732 O 0.92025 0.53992 0.82286 0.0
C733 C 0.83337 0.58235 0.78842 0.0
O734 O 0.82743 0.55737 0.80874 0.0
O735 O 0.87142 0.59145 0.86564 0.0
C736 C 0.91955 0.51263 0.83904 0.0
O737 O 0.9451 0.49229 0.83672 0.0
C738 C 0.95285 0.61102 0.79571 0.0
O739 O 0.97945 0.62858 0.79329 0.0
O740 O 0.86143 0.59537 0.78821 0.0
C741 C 0.72117 0.52689 0.12547 0.0
O742 O 0.73334 0.50648 0.10348 0.0
O743 O 0.71895 0.5685 0.04713 0.0
Zn744 Zn 0.7512 0.57239 0.08223 0.0
O745 O 0.76056 0.62003 0.08436 0.0
C746 C 0.81185 0.55497 0.04489 0.0
O747 O 0.83911 0.53733 0.04018 0.0
O748 O 0.72821 0.55703 0.12331 0.0
C749 C 0.76419 0.63847 0.10854 0.0
O750 O 0.76217 0.62656 0.13892 0.0
C751 C 0.69296 0.58604 0.05133 0.0
O752 O 0.68788 0.60081 0.07943 0.0
O753 O 0.79297 0.54768 0.06953 0.0
C754 C 0.77335 0.48188 0.37585 0.0
O755 O 0.77601 0.45066 0.36836 0.0
O756 O 0.7265 0.43586 0.31546 0.0
Zn757 Zn 0.72217 0.48397 0.32849 0.0
O758 O 0.67736 0.49112 0.35007 0.0
C759 C 0.69528 0.49896 0.27064 0.0
O760 O 0.67772 0.47547 0.28452 0.0
O761 O 0.75455 0.50105 0.35937 0.0
C762 C 0.66186 0.51847 0.34591 0.0
O763 O 0.67681 0.54332 0.33115 0.0
C764 C 0.70289 0.41723 0.32401 0.0
O765 O 0.68608 0.42339 0.35136 0.0
O766 O 0.71985 0.50937 0.28546 0.0
C767 C 0.73764 0.48155 0.68468 0.0
O768 O 0.72766 0.45119 0.68876 0.0
O769 O 0.80135 0.43009 0.65207 0.0
Zn770 Zn 0.76716 0.45614 0.62635 0.0
O771 O 0.73101 0.42334 0.62076 0.0
C772 C 0.78469 0.48229 0.556 0.0
O773 O 0.75934 0.46798 0.54405 0.0
O774 O 0.75193 0.49026 0.65773 0.0
C775 C 0.70186 0.42561 0.61049 0.0
O776 O 0.68281 0.40023 0.61454 0.0
C777 C 0.8082 0.40044 0.6449 0.0
O778 O 0.82704 0.38204 0.66416 0.0
O779 O 0.79005 0.47952 0.5867 0.0
C780 C 0.74324 0.50093 0.71356 0.0
O781 O 0.73477 0.48934 0.74304 0.0
O782 O 0.78959 0.50692 0.78653 0.0
Zn783 Zn 0.79173 0.53752 0.747 0.0
O784 O 0.83893 0.53451 0.73155 0.0
C785 C 0.80574 0.60012 0.77255 0.0
O786 O 0.80262 0.63222 0.77507 0.0
O787 O 0.76446 0.52319 0.71046 0.0
C788 C 0.85185 0.51987 0.70696 0.0
O789 O 0.83347 0.5044 0.68676 0.0
C790 C 0.80305 0.47883 0.7815 0.0
O791 O 0.80939 0.47009 0.75104 0.0
O792 O 0.784 0.58483 0.75771 0.0
C793 C 0.84047 0.62902 0.89814 0.0
O794 O 0.83287 0.66023 0.90273 0.0
O795 O 0.86463 0.65752 0.97076 0.0
Zn796 Zn 0.82652 0.62809 0.96478 0.0
O797 O 0.78764 0.66048 0.95938 0.0
C798 C 0.80443 0.58293 0.02185 0.0
O799 O 0.77546 0.59801 0.02218 0.0
O800 O 0.83758 0.60825 0.92191 0.0
C801 C 0.7578 0.66019 0.95119 0.0
O802 O 0.742 0.68835 0.9459 0.0
C803 C 0.85944 0.68381 0.98637 0.0
O804 O 0.88236 0.7059 0.98666 0.0
O805 O 0.82645 0.59191 0.00084 0.0
C806 C 0.69557 0.51615 0.14888 0.0
O807 O 0.69369 0.48477 0.15721 0.0
O808 O 0.59666 0.54666 0.19301 0.0
Zn809 Zn 0.6373 0.51616 0.1864 0.0
O810 O 0.62541 0.4761 0.16161 0.0
C811 C 0.68449 0.51334 0.23953 0.0
O812 O 0.69988 0.53791 0.2248 0.0
O813 O 0.67305 0.53643 0.15849 0.0
C814 C 0.62404 0.44703 0.17388 0.0
O815 O 0.62068 0.4223 0.15428 0.0
C816 C 0.57619 0.55328 0.21659 0.0
O817 O 0.55129 0.5737 0.21057 0.0
O818 O 0.65885 0.50199 0.22755 0.0
C819 C 0.78205 0.49179 0.40876 0.0
O820 O 0.7694 0.51939 0.42034 0.0
O821 O 0.7326 0.48378 0.48225 0.0
Zn822 Zn 0.78065 0.47253 0.47673 0.0
O823 O 0.78702 0.4278 0.49659 0.0
C824 C 0.80619 0.50352 0.53486 0.0
O825 O 0.82602 0.5234 0.54896 0.0
O826 O 0.79259 0.4697 0.42876 0.0
C827 C 0.79129 0.40061 0.4823 0.0
O828 O 0.79308 0.39962 0.45002 0.0
C829 C 0.71267 0.46269 0.47303 0.0
O830 O 0.72402 0.43805 0.45538 0.0
O831 O 0.80656 0.5029 0.50343 0.0
C832 C 0.86587 0.85493 0.619 0.0
O833 O 0.84094 0.85681 0.64025 0.0
O834 O 0.81847 0.9313 0.61612 0.0
Zn835 Zn 0.8222 0.8947 0.58393 0.0
O836 O 0.8224 0.92015 0.54009 0.0
C837 C 0.7872 0.83328 0.58299 0.0
O838 O 0.80825 0.82672 0.55879 0.0
O839 O 0.86431 0.87032 0.59143 0.0
C840 C 0.83919 0.91953 0.51318 0.0
O841 O 0.83721 0.94505 0.49271 0.0
C842 C 0.7954 0.95256 0.61154 0.0
O843 O 0.79315 0.97892 0.62945 0.0
O844 O 0.78665 0.86169 0.59531 0.0
C845 C 0.37585 0.77378 0.48151 0.0
O846 O 0.36844 0.77637 0.45027 0.0
O847 O 0.31544 0.72684 0.43557 0.0
Zn848 Zn 0.32841 0.72262 0.48369 0.0
O849 O 0.34991 0.67779 0.491 0.0
C850 C 0.27055 0.6958 0.49872 0.0
O851 O 0.28441 0.67817 0.47531 0.0
O852 O 0.3593 0.75504 0.50071 0.0
C853 C 0.34571 0.66233 0.51838 0.0
O854 O 0.33096 0.67736 0.54317 0.0
C855 C 0.32395 0.70316 0.41702 0.0
O856 O 0.35126 0.68636 0.42326 0.0
O857 O 0.28539 0.72041 0.50907 0.0
C858 C 0.52751 0.12673 0.7206 0.0
O859 O 0.50712 0.10501 0.7334 0.0
O860 O 0.56861 0.04822 0.71814 0.0
Zn861 Zn 0.57268 0.08341 0.75035 0.0
O862 O 0.62027 0.08493 0.76004 0.0
C863 C 0.55432 0.04695 0.81121 0.0
O864 O 0.53657 0.04277 0.83849 0.0
O865 O 0.55774 0.12445 0.72711 0.0
C866 C 0.63896 0.10879 0.76428 0.0
O867 O 0.62747 0.13933 0.7627 0.0
C868 C 0.58635 0.05225 0.69222 0.0
O869 O 0.60148 0.08018 0.68724 0.0
O870 O 0.54748 0.07151 0.79207 0.0
C871 C 0.12882 0.41588 0.90152 0.0
O872 O 0.1301 0.44731 0.89315 0.0
O873 O 0.20879 0.44646 0.9289 0.0
Zn874 Zn 0.17244 0.42667 0.95582 0.0
O875 O 0.15161 0.46294 0.98303 0.0
C876 C 0.22189 0.37928 0.98 0.0
O877 O 0.23476 0.38222 0.95004 0.0
O878 O 0.14318 0.40433 0.92681 0.0
C879 C 0.15372 0.45898 0.01398 0.0
O880 O 0.15618 0.42892 0.02662 0.0
C881 C 0.21228 0.47738 0.92772 0.0
O882 O 0.18925 0.49692 0.94039 0.0
O883 O 0.19445 0.39364 0.98679 0.0
C884 C 0.49073 0.40872 0.78238 0.0
O885 O 0.51843 0.42041 0.77005 0.0
O886 O 0.48292 0.48218 0.73283 0.0
Zn887 Zn 0.47148 0.47661 0.78089 0.0
O888 O 0.42687 0.49667 0.78721 0.0
C889 C 0.5025 0.53447 0.80678 0.0
O890 O 0.52225 0.54852 0.82677 0.0
O891 O 0.46849 0.42864 0.79271 0.0
C892 C 0.39963 0.48248 0.7915 0.0
O893 O 0.39851 0.4502 0.79335 0.0
C894 C 0.46182 0.47307 0.71286 0.0
O895 O 0.43711 0.45547 0.72417 0.0
O896 O 0.50185 0.50304 0.80703 0.0
C897 C 0.64842 0.27948 0.9648 0.0
O898 O 0.6341 0.25377 0.97847 0.0
O899 O 0.68622 0.23502 0.03885 0.0
Zn900 Zn 0.69996 0.24316 0.99102 0.0
O901 O 0.68648 0.20435 0.96693 0.0
C902 C 0.77845 0.24552 0.97755 0.0
O903 O 0.7854 0.27283 0.961 0.0
O904 O 0.67914 0.28252 0.96798 0.0
C905 C 0.70109 0.20127 0.93912 0.0
O906 O 0.71817 0.22583 0.92661 0.0
C907 C 0.70137 0.21219 0.05506 0.0
O908 O 0.72613 0.19602 0.04095 0.0
O909 O 0.74898 0.23907 0.98588 0.0
C910 C 0.62366 0.89901 0.84081 0.0
O911 O 0.65514 0.90271 0.83395 0.0
O912 O 0.65514 0.9702 0.86388 0.0
Zn913 Zn 0.62531 0.96532 0.82586 0.0
O914 O 0.65755 0.95945 0.78682 0.0
C915 C 0.58181 0.02339 0.80394 0.0
O916 O 0.5967 0.02302 0.77487 0.0
O917 O 0.60365 0.92323 0.8369 0.0
C918 C 0.65796 0.95157 0.75682 0.0
O919 O 0.68646 0.94642 0.74163 0.0
C920 C 0.68184 0.9852 0.85884 0.0
O921 O 0.70394 0.9846 0.88177 0.0
O922 O 0.59037 0.0024 0.82613 0.0
C923 C 0.8847 0.11354 0.39516 0.0
O924 O 0.85476 0.10306 0.40086 0.0
O925 O 0.8807 0.03989 0.34108 0.0
Zn926 Zn 0.88988 0.08594 0.32803 0.0
O927 O 0.8488 0.1051 0.30624 0.0
C928 C 0.94407 0.06239 0.28438 0.0
O929 O 0.92385 0.03956 0.27659 0.0
O930 O 0.89964 0.10905 0.36782 0.0
C931 C 0.84454 0.10939 0.27558 0.0
O932 O 0.81495 0.11666 0.26502 0.0
C933 C 0.85129 0.03113 0.34622 0.0
O934 O 0.82716 0.05333 0.34574 0.0
O935 O 0.93374 0.08539 0.30288 0.0
C936 C 0.51883 0.14941 0.14569 0.0
O937 O 0.54437 0.16747 0.15047 0.0
O938 O 0.54838 0.19074 0.05962 0.0
Zn939 Zn 0.50806 0.19338 0.09009 0.0
O940 O 0.46707 0.20508 0.06445 0.0
C941 C 0.54513 0.23816 0.12576 0.0
O942 O 0.57039 0.22168 0.11289 0.0
O943 O 0.50152 0.15449 0.12038 0.0
C944 C 0.44392 0.22421 0.07488 0.0
O945 O 0.41983 0.23296 0.05537 0.0
C946 C 0.54699 0.19832 0.02909 0.0
O947 O 0.51851 0.1976 0.01477 0.0
O948 O 0.51604 0.23058 0.11931 0.0
C949 C 0.58015 0.67579 0.95695 0.0
O950 O 0.58224 0.68264 0.92521 0.0
O951 O 0.55794 0.76619 0.96396 0.0
Zn952 Zn 0.53111 0.72672 0.95373 0.0
O953 O 0.53135 0.72234 0.90463 0.0
C954 C 0.45991 0.749 0.96514 0.0
O955 O 0.43326 0.74927 0.98426 0.0
O956 O 0.5571 0.68899 0.9743 0.0
C957 C 0.51957 0.69992 0.8878 0.0
O958 O 0.50455 0.67506 0.90244 0.0
C959 C 0.5834 0.77141 0.94581 0.0
O960 O 0.59016 0.75263 0.92067 0.0
O961 O 0.48485 0.73148 0.97405 0.0
C962 C 0.08236 0.84292 0.73126 0.0
O963 O 0.07179 0.84567 0.7011 0.0
O964 O 0.01009 0.81859 0.71618 0.0
Zn965 Zn 0.04852 0.7871 0.72435 0.0
O966 O 0.07057 0.77492 0.68167 0.0
C967 C 0.01854 0.72134 0.74302 0.0
O968 O 0.01045 0.69942 0.76606 0.0
O969 O 0.07833 0.81621 0.74792 0.0
C970 C 0.10069 0.77285 0.67261 0.0
O971 O 0.12398 0.77865 0.69318 0.0
C972 C 0.0046 0.82967 0.68728 0.0
O973 O 0.02091 0.81709 0.66205 0.0
O974 O 0.03368 0.74683 0.75123 0.0
C975 C 0.879 0.30603 0.54937 0.0
O976 O 0.87859 0.27492 0.54177 0.0
O977 O 0.9378 0.25346 0.51706 0.0
Zn978 Zn 0.94491 0.30132 0.52261 0.0
O979 O 0.95056 0.31906 0.47577 0.0
C980 C 0.00237 0.27819 0.55595 0.0
O981 O 0.98356 0.2538 0.56566 0.0
O982 O 0.90522 0.3222 0.54501 0.0
C983 C 0.97747 0.33111 0.46515 0.0
O984 O 3e-05 0.33802 0.48612 0.0
C985 C 0.92268 0.24437 0.49221 0.0
O986 O 0.90931 0.26656 0.47216 0.0
O987 O 0.98893 0.3045 0.54422 0.0
C988 C 0.55904 0.84847 0.32248 0.0
O989 O 0.56548 0.84873 0.35394 0.0
O990 O 0.61244 0.79187 0.35633 0.0
Zn991 Zn 0.5682 0.78286 0.33803 0.0
O992 O 0.53352 0.78614 0.37327 0.0
C993 C 0.56378 0.70927 0.32708 0.0
O994 O 0.56609 0.68499 0.30643 0.0
O995 O 0.55878 0.82121 0.30789 0.0
C996 C 0.50287 0.79163 0.37039 0.0
O997 O 0.49012 0.79569 0.34119 0.0
C998 C 0.61462 0.7963 0.38695 0.0
O999 O 0.58869 0.79254 0.40656 0.0
O1000 O 0.56798 0.73862 0.31585 0.0
C1001 C 0.86888 0.74766 0.0966 0.0
O1002 O 0.86592 0.77355 0.11516 0.0
O1003 O 0.93661 0.80205 0.10478 0.0
Zn1004 Zn 0.93518 0.75262 0.11178 0.0
O1005 O 0.92669 0.74148 0.15882 0.0
C1006 C 0.00509 0.74533 0.10168 0.0
O1007 O 0.00244 0.77764 0.10029 0.0
O1008 O 0.89716 0.73497 0.08985 0.0
C1009 C 0.93112 0.71128 0.16678 0.0
O1010 O 0.93775 0.68993 0.14368 0.0
C1011 C 0.94123 0.82054 0.12879 0.0
O1012 O 0.94386 0.80759 0.1585 0.0
O1013 O 0.97907 0.72878 0.10206 0.0
C1014 C 0.12773 0.17436 0.81169 0.0
O1015 O 0.14299 0.18711 0.8361 0.0
O1016 O 0.05711 0.14827 0.8799 0.0
Zn1017 Zn 0.06643 0.1879 0.85 0.0
O1018 O 0.09005 0.21843 0.87974 0.0
C1019 C 0.00477 0.2276 0.82587 0.0
O1020 O 0.01236 0.25443 0.84073 0.0
O1021 O 0.0966 0.17249 0.81303 0.0
C1022 C 0.10403 0.24596 0.87698 0.0
O1023 O 0.12008 0.25628 0.90202 0.0
C1024 C 0.04417 0.15067 0.90872 0.0
O1025 O 0.04154 0.12411 0.92776 0.0
O1026 O 0.02335 0.20193 0.82818 0.0
C1027 C 0.56331 0.37891 0.54007 0.0
O1028 O 0.54569 0.3925 0.56393 0.0
O1029 O 0.5432 0.27265 0.55586 0.0
Zn1030 Zn 0.52957 0.32082 0.56199 0.0
O1031 O 0.53792 0.33045 0.60937 0.0
C1032 C 0.46188 0.30577 0.55321 0.0
O1033 O 0.47441 0.27787 0.54225 0.0
O1034 O 0.55843 0.34925 0.53299 0.0
C1035 C 0.51834 0.34916 0.62577 0.0
O1036 O 0.49386 0.36469 0.61104 0.0
C1037 C 0.53889 0.25107 0.57889 0.0
O1038 O 0.5245 0.25995 0.60659 0.0
O1039 O 0.48085 0.32946 0.55715 0.0
C1040 C 0.14235 0.51819 0.14654 0.0
O1041 O 0.14786 0.54379 0.16428 0.0
O1042 O 0.05884 0.54862 0.19046 0.0
Zn1043 Zn 0.0886 0.50784 0.19265 0.0
O1044 O 0.06237 0.46735 0.20511 0.0
C1045 C 0.12592 0.54451 0.2366 0.0
O1046 O 0.11312 0.56996 0.22034 0.0
O1047 O 0.11734 0.50075 0.15282 0.0
C1048 C 0.07254 0.44415 0.22434 0.0
O1049 O 0.05267 0.42044 0.23344 0.0
C1050 C 0.02828 0.54774 0.19787 0.0
O1051 O 0.01343 0.51951 0.1971 0.0
O1052 O 0.11897 0.5155 0.22908 0.0
C1053 C 0.3051 0.54936 0.87914 0.0
O1054 O 0.27406 0.54157 0.8787 0.0
O1055 O 0.25324 0.51477 0.93736 0.0
Zn1056 Zn 0.30067 0.52213 0.94495 0.0
O1057 O 0.31978 0.47589 0.95134 0.0
C1058 C 0.27529 0.556 0.00104 0.0
O1059 O 0.2516 0.56513 0.98118 0.0
O1060 O 0.32128 0.5449 0.90532 0.0
C1061 C 0.33111 0.4658 0.97875 0.0
O1062 O 0.33648 0.48715 0.00146 0.0
C1063 C 0.24531 0.48947 0.92224 0.0
O1064 O 0.26835 0.47024 0.90909 0.0
O1065 O 0.30224 0.54458 0.98867 0.0
C1066 C 0.39233 0.52926 0.5946 0.0
O1067 O 0.37577 0.50959 0.61486 0.0
O1068 O 0.42899 0.49994 0.67381 0.0
Zn1069 Zn 0.41886 0.54494 0.65466 0.0
O1070 O 0.45641 0.57423 0.6677 0.0
C1071 C 0.362 0.55697 0.70169 0.0
O1072 O 0.38276 0.54982 0.72502 0.0
O1073 O 0.41571 0.54535 0.6056 0.0
C1074 C 0.45621 0.59751 0.68794 0.0
O1075 O 0.48415 0.60994 0.69611 0.0
C1076 C 0.45813 0.49253 0.68233 0.0
O1077 O 0.48237 0.51114 0.67179 0.0
O1078 O 0.37233 0.55739 0.67178 0.0
C1079 C 0.22917 0.62498 0.3375 0.0
O1080 O 0.22126 0.65387 0.3496 0.0
O1081 O 0.30117 0.65497 0.39763 0.0
Zn1082 Zn 0.26517 0.62168 0.39329 0.0
O1083 O 0.2208 0.6359 0.41318 0.0
C1084 C 0.3043 0.57339 0.43145 0.0
O1085 O 0.32948 0.59168 0.423 0.0
O1086 O 0.25488 0.60977 0.34749 0.0
C1087 C 0.20936 0.62451 0.44053 0.0
O1088 O 0.22834 0.60632 0.45977 0.0
C1089 C 0.29766 0.68597 0.40087 0.0
O1090 O 0.26819 0.69991 0.39876 0.0
O1091 O 0.27653 0.58014 0.41918 0.0
C1092 C 0.20257 0.60505 0.32649 0.0
O1093 O 0.20909 0.57988 0.3076 0.0
O1094 O 0.14827 0.52965 0.34666 0.0
Zn1095 Zn 0.13891 0.57712 0.33141 0.0
O1096 O 0.09318 0.59166 0.34683 0.0
C1097 C 0.14219 0.54937 0.26728 0.0
O1098 O 0.15718 0.52431 0.28211 0.0
O1099 O 0.17427 0.60836 0.34044 0.0
C1100 C 0.07592 0.60851 0.32647 0.0
O1101 O 0.09064 0.62334 0.30115 0.0
C1102 C 0.12419 0.51228 0.35663 0.0
O1103 O 0.09716 0.52723 0.36767 0.0
O1104 O 0.13517 0.57538 0.28275 0.0
C1105 C 0.16627 0.50773 0.12132 0.0
O1106 O 0.16358 0.4786 0.10879 0.0
O1107 O 0.25773 0.4797 0.09166 0.0
Zn1108 Zn 0.21936 0.508 0.07572 0.0
O1109 O 0.19203 0.47772 0.05037 0.0
C1110 C 0.26617 0.54532 0.03491 0.0
O1111 O 0.28824 0.52962 0.05292 0.0
O1112 O 0.19012 0.52579 0.11218 0.0
C1113 C 0.1681 0.48532 0.03198 0.0
O1114 O 0.16023 0.51639 0.02555 0.0
C1115 C 0.25417 0.44898 0.09707 0.0
O1116 O 0.22437 0.43731 0.09873 0.0
O1117 O 0.23573 0.5424 0.04244 0.0
C1118 C 0.322 0.5596 0.84858 0.0
O1119 O 0.35344 0.56609 0.84878 0.0
O1120 O 0.35616 0.61286 0.79191 0.0
Zn1121 Zn 0.33766 0.56862 0.783 0.0
O1122 O 0.37276 0.53378 0.7863 0.0
C1123 C 0.32686 0.56427 0.7094 0.0
O1124 O 0.30627 0.56659 0.6851 0.0
O1125 O 0.30741 0.55927 0.82133 0.0
C1126 C 0.36974 0.5031 0.79167 0.0
O1127 O 0.3405 0.49042 0.79563 0.0
C1128 C 0.3868 0.61497 0.79624 0.0
O1129 O 0.40627 0.58895 0.79251 0.0
O1130 O 0.31559 0.56846 0.73873 0.0
C1131 C 0.37763 0.54041 0.56364 0.0
O1132 O 0.39142 0.56401 0.54578 0.0
O1133 O 0.27134 0.55699 0.54376 0.0
Zn1134 Zn 0.31958 0.56279 0.53017 0.0
O1135 O 0.32947 0.61012 0.53847 0.0
C1136 C 0.3047 0.55388 0.46243 0.0
O1137 O 0.27673 0.54306 0.47493 0.0
O1138 O 0.34784 0.53369 0.55908 0.0
C1139 C 0.34828 0.6264 0.51887 0.0
O1140 O 0.36378 0.61154 0.49442 0.0
C1141 C 0.24992 0.5801 0.53927 0.0
O1142 O 0.25896 0.60767 0.52468 0.0
O1143 O 0.32832 0.55782 0.48145 0.0
C1144 C 0.14846 0.14596 0.51805 0.0
O1145 O 0.16609 0.15039 0.54396 0.0
O1146 O 0.18915 0.06145 0.54832 0.0
Zn1147 Zn 0.19262 0.09089 0.50743 0.0
O1148 O 0.20441 0.06429 0.46704 0.0
C1149 C 0.23762 0.12676 0.54415 0.0
O1150 O 0.22114 0.11416 0.56958 0.0
O1151 O 0.15395 0.12103 0.50031 0.0
C1152 C 0.22387 0.07406 0.44384 0.0
O1153 O 0.23258 0.05398 0.42019 0.0
C1154 C 0.19615 0.03079 0.54762 0.0
O1155 O 0.19544 0.01589 0.51942 0.0
O1156 O 0.22993 0.1201 0.51513 0.0
C1157 C 0.59438 0.39348 0.52902 0.0
O1158 O 0.61442 0.37701 0.50911 0.0
O1159 O 0.67372 0.42965 0.49987 0.0
Zn1160 Zn 0.65468 0.41945 0.54488 0.0
O1161 O 0.66796 0.45691 0.57417 0.0
C1162 C 0.70155 0.36251 0.55673 0.0
O1163 O 0.72486 0.38334 0.54971 0.0
O1164 O 0.60563 0.41653 0.5454 0.0
C1165 C 0.6881 0.45661 0.59751 0.0
O1166 O 0.69642 0.48453 0.60993 0.0
C1167 C 0.68214 0.45886 0.49244 0.0
O1168 O 0.67153 0.48306 0.51107 0.0
O1169 O 0.67166 0.3728 0.55717 0.0
C1170 C 0.54885 0.87898 0.3055 0.0
O1171 O 0.54119 0.8784 0.27443 0.0
O1172 O 0.51654 0.93755 0.25258 0.0
Zn1173 Zn 0.52187 0.94476 0.30048 0.0
O1174 O 0.47503 0.95026 0.3181 0.0
C1175 C 0.55513 0.00263 0.27768 0.0
O1176 O 0.56472 0.98406 0.25308 0.0
O1177 O 0.54438 0.90525 0.32156 0.0
C1178 C 0.46453 0.97696 0.33069 0.0
O1179 O 0.48558 -0.00075 0.33814 0.0
C1180 C 0.4918 0.92236 0.24327 0.0
O1181 O 0.47153 0.90902 0.2653 0.0
O1182 O 0.54326 0.98893 0.30381 0.0
C1183 C 0.84003 0.73282 0.08369 0.0
O1184 O 0.84285 0.70254 0.07344 0.0
O1185 O 0.81742 0.71715 0.0112 0.0
Zn1186 Zn 0.78517 0.72515 0.04915 0.0
O1187 O 0.77311 0.68231 0.07113 0.0
C1188 C 0.72008 0.74276 0.01772 0.0
O1189 O 0.698 0.76539 0.0091 0.0
O1190 O 0.81339 0.7494 0.07931 0.0
C1191 C 0.77156 0.67291 0.10121 0.0
O1192 O 0.77786 0.69321 0.1246 0.0
C1193 C 0.82895 0.68836 0.0059 0.0
O1194 O 0.81643 0.66298 0.02205 0.0
O1195 O 0.74498 0.75146 0.03345 0.0
C1196 C 0.54007 0.56346 0.37814 0.0
O1197 O 0.56372 0.54567 0.39185 0.0
O1198 O 0.55648 0.54372 0.27176 0.0
Zn1199 Zn 0.56234 0.53003 0.31998 0.0
O1200 O 0.60964 0.53844 0.32978 0.0
C1201 C 0.55359 0.46222 0.30499 0.0
O1202 O 0.54275 0.4747 0.27703 0.0
O1203 O 0.53326 0.55884 0.34837 0.0
C1204 C 0.62595 0.51884 0.34855 0.0
O1205 O 0.61117 0.49433 0.36404 0.0
C1206 C 0.57959 0.53939 0.25029 0.0
O1207 O 0.60718 0.5249 0.25928 0.0
O1208 O 0.55748 0.48125 0.32863 0.0
C1209 C 0.33388 0.81315 0.89863 0.0
O1210 O 0.31862 0.78686 0.90982 0.0
O1211 O 0.31832 0.83723 0.98461 0.0
Zn1212 Zn 0.29104 0.8426 0.94542 0.0
O1213 O 0.26867 0.88671 0.95058 0.0
C1214 C 0.24252 0.79778 0.97531 0.0
O1215 O 0.22699 0.76986 0.97695 0.0
O1216 O 0.32341 0.84132 0.90746 0.0
C1217 C 0.2767 0.91457 0.93843 0.0
O1218 O 0.30038 0.91681 0.91583 0.0
C1219 C 0.33832 0.85976 0.98942 0.0
O1220 O 0.34229 0.88335 0.96696 0.0
O1221 O 0.26015 0.80467 0.94964 0.0
C1222 C 0.50836 0.12514 0.17061 0.0
O1223 O 0.47912 0.11271 0.16858 0.0
O1224 O 0.47982 0.09467 0.26194 0.0
Zn1225 Zn 0.50935 0.0798 0.22394 0.0
O1226 O 0.48049 0.05399 0.1959 0.0
C1227 C 0.54493 0.03703 0.27023 0.0
O1228 O 0.52764 0.05339 0.29251 0.0
O1229 O 0.52664 0.11644 0.19443 0.0
C1230 C 0.48975 0.03747 0.1711 0.0
O1231 O 0.52121 0.03353 0.16348 0.0
C1232 C 0.44914 0.09921 0.25757 0.0
O1233 O 0.43844 0.1014 0.22739 0.0
O1234 O 0.54386 0.04658 0.24013 0.0
C1235 C 0.09545 0.87179 0.74594 0.0
O1236 O 0.11313 0.86879 0.77244 0.0
O1237 O 0.10167 0.93778 0.80133 0.0
Zn1238 Zn 0.11109 0.93739 0.75255 0.0
O1239 O 0.15846 0.92647 0.7467 0.0
C1240 C 0.10209 0.00863 0.7433 0.0
O1241 O 0.09523 0.00745 0.77511 0.0
O1242 O 0.08937 0.90013 0.73299 0.0
C1243 C 0.17007 0.93131 0.71779 0.0
O1244 O 0.14988 0.93926 0.69401 0.0
C1245 C 0.12435 0.94724 0.81934 0.0
O1246 O 0.1513 0.95889 0.80557 0.0
O1247 O 0.10563 0.98182 0.72811 0.0
loop_
_geom_bond_atom_site_label_1
_geom_bond_atom_site_label_2
_geom_bond_distance
_geom_bond_site_symmetry_2
_ccdc_geom_bond_type
C0 O1 1.160 . S
C0 O7 1.185 . S
O1 C0 1.160 . S
O2 Zn3 1.899 . S
O2 C10 1.284 . S
Zn3 O2 1.899 . S
Zn3 O4 2.032 . S
Zn3 O7 2.086 . S
Zn3 O12 1.977 . S
O4 Zn3 2.032 . S
O4 C8 1.278 1_455 S
C5 O6 1.203 1_655 S
C5 O12 1.267 1_655 S
O6 C5 1.203 1_455 S
O7 C0 1.185 . S
O7 Zn3 2.086 . S
C8 O4 1.278 1_655 S
C8 O9 1.211 . S
O9 C8 1.211 . S
C10 O2 1.284 . S
C10 O11 1.273 . S
O11 C10 1.273 . S
O12 Zn3 1.977 . S
O12 C5 1.267 1_455 S
C13 O14 1.160 . S
C13 O20 1.185 . S
O14 C13 1.160 . S
O15 Zn16 1.899 . S
O15 C23 1.284 . S
Zn16 O15 1.899 . S
Zn16 O17 2.032 . S
Zn16 O20 2.086 . S
Zn16 O25 1.977 . S
O17 Zn16 2.032 . S
O17 C21 1.278 . S
C18 O19 1.203 . S
C18 O25 1.267 1_455 S
O19 C18 1.203 . S
O20 C13 1.185 . S
O20 Zn16 2.086 . S
C21 O17 1.278 . S
C21 O22 1.211 . S
O22 C21 1.211 . S
C23 O15 1.284 . S
C23 O24 1.273 . S
O24 C23 1.273 . S
O25 Zn16 1.977 . S
O25 C18 1.267 1_655 S
C26 O27 1.160 . S
C26 O33 1.185 . S
O27 C26 1.160 . S
O28 Zn29 1.899 . S
O28 C36 1.284 . S
Zn29 O28 1.899 . S
Zn29 O30 2.032 . S
Zn29 O33 2.086 . S
Zn29 O38 1.977 . S
O30 Zn29 2.032 . S
O30 C34 1.278 . S
C31 O32 1.203 . S
C31 O38 1.267 . S
O32 C31 1.203 . S
O33 C26 1.185 . S
O33 Zn29 2.086 . S
C34 O30 1.278 . S
C34 O35 1.211 . S
O35 C34 1.211 . S
C36 O28 1.284 . S
C36 O37 1.273 . S
O37 C36 1.273 . S
O38 Zn29 1.977 . S
O38 C31 1.267 . S
C39 O40 1.160 1_556 S
C39 O46 1.185 . S
O40 C39 1.160 1_554 S
O41 Zn42 1.899 . S
O41 C49 1.284 . S
Zn42 O41 1.899 . S
Zn42 O43 2.032 . S
Zn42 O46 2.086 1_554 S
Zn42 O51 1.977 1_554 S
O43 Zn42 2.032 . S
O43 C47 1.278 . S
C44 O45 1.203 1_556 S
C44 O51 1.267 . S
O45 C44 1.203 1_554 S
O46 C39 1.185 . S
O46 Zn42 2.086 1_556 S
C47 O43 1.278 . S
C47 O48 1.211 . S
O48 C47 1.211 . S
C49 O41 1.284 . S
C49 O50 1.273 . S
O50 C49 1.273 . S
O51 Zn42 1.977 1_556 S
O51 C44 1.267 . S
C52 O53 1.160 . S
C52 O59 1.200 . S
O53 C52 1.160 . S
O54 Zn55 1.899 . S
O54 C62 1.284 . S
Zn55 O54 1.899 . S
Zn55 O56 2.032 1_455 S
Zn55 O59 2.091 . S
Zn55 O64 1.977 1_455 S
O56 Zn55 2.032 1_655 S
O56 C60 1.278 . S
C57 O58 1.203 1_655 S
C57 O64 1.267 . S
O58 C57 1.203 1_455 S
O59 C52 1.200 . S
O59 Zn55 2.091 . S
C60 O56 1.278 . S
C60 O61 1.211 . S
O61 C60 1.211 . S
C62 O54 1.284 . S
C62 O63 1.273 . S
O63 C62 1.273 . S
O64 Zn55 1.977 1_655 S
O64 C57 1.267 . S
C65 O66 1.160 . S
C65 O72 1.185 . S
O66 C65 1.160 . S
O67 Zn68 1.899 . S
O67 C75 1.284 . S
Zn68 O67 1.899 . S
Zn68 O69 2.032 . S
Zn68 O72 2.086 . S
Zn68 O77 1.977 . S
O69 Zn68 2.032 . S
O69 C73 1.278 . S
C70 O71 1.203 . S
C70 O77 1.267 . S
O71 C70 1.203 . S
O72 C65 1.185 . S
O72 Zn68 2.086 . S
C73 O69 1.278 . S
C73 O74 1.211 . S
O74 C73 1.211 . S
C75 O67 1.284 . S
C75 O76 1.273 . S
O76 C75 1.273 . S
O77 Zn68 1.977 . S
O77 C70 1.267 . S
C78 O79 1.160 . S
C78 O85 1.185 . S
O79 C78 1.160 . S
O80 Zn81 1.899 . S
O80 C88 1.284 . S
Zn81 O80 1.899 . S
Zn81 O82 2.032 . S
Zn81 O85 2.086 . S
Zn81 O90 1.977 . S
O82 Zn81 2.032 . S
O82 C86 1.278 . S
C83 O84 1.203 . S
C83 O90 1.267 . S
O84 C83 1.203 . S
O85 C78 1.185 . S
O85 Zn81 2.086 . S
C86 O82 1.278 . S
C86 O87 1.211 . S
O87 C86 1.211 . S
C88 O80 1.284 . S
C88 O89 1.273 . S
O89 C88 1.273 . S
O90 Zn81 1.977 . S
O90 C83 1.267 . S
C91 O92 1.160 1_554 S
C91 O98 1.185 . S
O92 C91 1.160 1_556 S
O93 Zn94 1.899 1_455 S
O93 C101 1.284 . S
Zn94 O93 1.899 1_655 S
Zn94 O95 2.032 . S
Zn94 O98 2.086 1_556 S
Zn94 O103 1.977 1_656 S
O95 Zn94 2.032 . S
O95 C99 1.278 . S
C96 O97 1.203 . S
C96 O103 1.267 1_556 S
O97 C96 1.203 . S
O98 C91 1.185 . S
O98 Zn94 2.086 1_554 S
C99 O95 1.278 . S
C99 O100 1.211 . S
O100 C99 1.211 . S
C101 O93 1.284 . S
C101 O102 1.273 . S
O102 C101 1.273 . S
O103 Zn94 1.977 1_454 S
O103 C96 1.267 1_554 S
C104 O105 1.160 . S
C104 O111 1.185 . S
O105 C104 1.160 . S
O106 Zn107 1.899 . S
O106 C114 1.284 . S
Zn107 O106 1.899 . S
Zn107 O108 2.032 . S
Zn107 O111 2.086 . S
Zn107 O116 1.977 . S
O108 Zn107 2.032 . S
O108 C112 1.278 1_545 S
C109 O110 1.203 1_565 S
C109 O116 1.267 1_565 S
O110 C109 1.203 1_545 S
O111 C104 1.185 . S
O111 Zn107 2.086 . S
C112 O108 1.278 1_565 S
C112 O113 1.211 . S
O113 C112 1.211 . S
C114 O106 1.284 . S
C114 O115 1.273 . S
O115 C114 1.273 . S
O116 Zn107 1.977 . S
O116 C109 1.267 1_545 S
C117 O118 1.160 1_565 S
C117 O124 1.185 . S
O118 C117 1.160 1_545 S
O119 Zn120 1.899 . S
O119 C127 1.284 . S
Zn120 O119 1.899 . S
Zn120 O121 2.032 . S
Zn120 O124 2.086 1_545 S
Zn120 O129 1.977 1_545 S
O121 Zn120 2.032 . S
O121 C125 1.278 . S
C122 O123 1.203 1_565 S
C122 O129 1.267 . S
O123 C122 1.203 1_545 S
O124 C117 1.185 . S
O124 Zn120 2.086 1_565 S
C125 O121 1.278 . S
C125 O126 1.211 . S
O126 C125 1.211 . S
C127 O119 1.284 . S
C127 O128 1.273 . S
O128 C127 1.273 . S
O129 Zn120 1.977 1_565 S
O129 C122 1.267 . S
C130 O131 1.160 . S
C130 O137 1.185 . S
O131 C130 1.160 . S
O132 Zn133 1.899 . S
O132 C140 1.284 . S
Zn133 O132 1.899 . S
Zn133 O134 2.032 1_565 S
Zn133 O137 2.086 . S
Zn133 O142 1.977 . S
O134 Zn133 2.032 1_545 S
O134 C138 1.278 . S
C135 O136 1.203 . S
C135 O142 1.267 . S
O136 C135 1.203 . S
O137 C130 1.185 . S
O137 Zn133 2.086 . S
C138 O134 1.278 . S
C138 O139 1.211 . S
O139 C138 1.211 . S
C140 O132 1.284 . S
C140 O141 1.273 . S
O141 C140 1.273 . S
O142 Zn133 1.977 . S
O142 C135 1.267 . S
C143 O144 1.160 . S
C143 O150 1.185 . S
O144 C143 1.160 . S
O145 Zn146 1.899 . S
O145 C153 1.284 . S
Zn146 O145 1.899 . S
Zn146 O147 2.032 . S
Zn146 O150 2.086 . S
Zn146 O155 1.977 . S
O147 Zn146 2.032 . S
O147 C151 1.278 . S
C148 O149 1.203 . S
C148 O155 1.267 . S
O149 C148 1.203 . S
O150 C143 1.185 . S
O150 Zn146 2.086 . S
C151 O147 1.278 . S
C151 O152 1.211 . S
O152 C151 1.211 . S
C153 O145 1.284 . S
C153 O154 1.273 . S
O154 C153 1.273 . S
O155 Zn146 1.977 . S
O155 C148 1.267 . S
C156 O157 1.160 . S
C156 O163 1.185 . S
O157 C156 1.160 . S
O158 Zn159 1.899 . S
O158 C166 1.284 . S
Zn159 O158 1.899 . S
Zn159 O160 2.027 1_565 S
Zn159 O163 2.086 . S
Zn159 O168 1.977 . S
O160 Zn159 2.027 1_545 S
O160 C164 1.285 . S
C161 O162 1.203 1_545 S
C161 O168 1.267 1_545 S
O162 C161 1.203 1_565 S
O163 C156 1.185 . S
O163 Zn159 2.086 . S
C164 O160 1.285 . S
C164 O165 1.211 . S
O165 C164 1.211 . S
C166 O158 1.284 . S
C166 O167 1.273 . S
O167 C166 1.273 . S
O168 Zn159 1.977 . S
O168 C161 1.267 1_565 S
C169 O170 1.160 . S
C169 O176 1.185 . S
O170 C169 1.160 . S
O171 Zn172 1.899 . S
O171 C179 1.284 . S
Zn172 O171 1.899 . S
Zn172 O173 2.032 . S
Zn172 O176 2.086 . S
Zn172 O181 1.977 . S
O173 Zn172 2.032 . S
O173 C177 1.278 . S
C174 O175 1.203 . S
C174 O181 1.267 . S
O175 C174 1.203 . S
O176 C169 1.185 . S
O176 Zn172 2.086 . S
C177 O173 1.278 . S
C177 O178 1.211 . S
O178 C177 1.211 . S
C179 O171 1.284 . S
C179 O180 1.273 . S
O180 C179 1.273 . S
O181 Zn172 1.977 . S
O181 C174 1.267 . S
C182 O183 1.160 . S
C182 O189 1.200 . S
O183 C182 1.160 . S
O184 Zn185 1.899 . S
O184 C192 1.284 . S
Zn185 O184 1.899 . S
Zn185 O186 2.032 1_545 S
Zn185 O189 2.091 . S
Zn185 O194 1.977 1_545 S
O186 Zn185 2.032 1_565 S
O186 C190 1.278 . S
C187 O188 1.203 1_565 S
C187 O194 1.267 . S
O188 C187 1.203 1_545 S
O189 C182 1.200 . S
O189 Zn185 2.091 . S
C190 O186 1.278 . S
C190 O191 1.211 . S
O191 C190 1.211 . S
C192 O184 1.284 . S
C192 O193 1.273 . S
O193 C192 1.273 . S
O194 Zn185 1.977 1_565 S
O194 C187 1.267 . S
C195 O196 1.160 1_545 S
C195 O202 1.185 . S
O196 C195 1.160 1_565 S
O197 Zn198 1.899 1_554 S
O197 C205 1.284 . S
Zn198 O197 1.899 1_556 S
Zn198 O199 2.032 . S
Zn198 O202 2.086 1_565 S
Zn198 O207 1.977 1_566 S
O199 Zn198 2.032 . S
O199 C203 1.278 . S
C200 O201 1.203 . S
C200 O207 1.267 1_565 S
O201 C200 1.203 . S
O202 C195 1.185 . S
O202 Zn198 2.086 1_545 S
C203 O199 1.278 . S
C203 O204 1.211 . S
O204 C203 1.211 . S
C205 O197 1.284 . S
C205 O206 1.273 . S
O206 C205 1.273 . S
O207 Zn198 1.977 1_544 S
O207 C200 1.267 1_545 S
C208 O209 1.160 . S
C208 O215 1.185 . S
O209 C208 1.160 . S
O210 Zn211 1.899 . S
O210 C218 1.284 . S
Zn211 O210 1.899 . S
Zn211 O212 2.032 . S
Zn211 O215 2.086 . S
Zn211 O220 1.977 . S
O212 Zn211 2.032 . S
O212 C216 1.278 1_554 S
C213 O214 1.203 1_556 S
C213 O220 1.267 1_556 S
O214 C213 1.203 1_554 S
O215 C208 1.185 . S
O215 Zn211 2.086 . S
C216 O212 1.278 1_556 S
C216 O217 1.211 . S
O217 C216 1.211 . S
C218 O210 1.284 . S
C218 O219 1.273 . S
O219 C218 1.273 . S
O220 Zn211 1.977 . S
O220 C213 1.267 1_554 S
C221 O222 1.160 . S
C221 O228 1.185 . S
O222 C221 1.160 . S
O223 Zn224 1.899 . S
O223 C231 1.284 . S
Zn224 O223 1.899 . S
Zn224 O225 2.032 1_556 S
Zn224 O228 2.086 . S
Zn224 O233 1.977 . S
O225 Zn224 2.032 1_554 S
O225 C229 1.278 . S
C226 O227 1.203 . S
C226 O233 1.267 . S
O227 C226 1.203 . S
O228 C221 1.185 . S
O228 Zn224 2.086 . S
C229 O225 1.278 . S
C229 O230 1.211 . S
O230 C229 1.211 . S
C231 O223 1.284 . S
C231 O232 1.273 . S
O232 C231 1.273 . S
O233 Zn224 1.977 . S
O233 C226 1.267 . S
C234 O235 1.160 1_655 S
C234 O241 1.185 . S
O235 C234 1.160 1_455 S
O236 Zn237 1.899 . S
O236 C244 1.284 . S
Zn237 O236 1.899 . S
Zn237 O238 2.032 . S
Zn237 O241 2.086 1_455 S
Zn237 O246 1.977 1_455 S
O238 Zn237 2.032 . S
O238 C242 1.278 . S
C239 O240 1.203 1_655 S
C239 O246 1.267 . S
O240 C239 1.203 1_455 S
O241 C234 1.185 . S
O241 Zn237 2.086 1_655 S
C242 O238 1.278 . S
C242 O243 1.211 . S
O243 C242 1.211 . S
C244 O236 1.284 . S
C244 O245 1.273 . S
O245 C244 1.273 . S
O246 Zn237 1.977 1_655 S
O246 C239 1.267 . S
C247 O248 1.160 . S
C247 O254 1.185 . S
O248 C247 1.160 . S
O249 Zn250 1.899 . S
O249 C257 1.284 . S
Zn250 O249 1.899 . S
Zn250 O251 2.032 . S
Zn250 O254 2.086 . S
Zn250 O259 1.977 . S
O251 Zn250 2.032 . S
O251 C255 1.278 . S
C252 O253 1.203 . S
C252 O259 1.267 . S
O253 C252 1.203 . S
O254 C247 1.185 . S
O254 Zn250 2.086 . S
C255 O251 1.278 . S
C255 O256 1.211 . S
O256 C255 1.211 . S
C257 O249 1.284 . S
C257 O258 1.273 . S
O258 C257 1.273 . S
O259 Zn250 1.977 . S
O259 C252 1.267 . S
C260 O261 1.160 1_455 S
C260 O267 1.185 . S
O261 C260 1.160 1_655 S
O262 Zn263 1.899 1_545 S
O262 C270 1.284 . S
Zn263 O262 1.899 1_565 S
Zn263 O264 2.032 . S
Zn263 O267 2.086 1_655 S
Zn263 O272 1.977 1_665 S
O264 Zn263 2.032 . S
O264 C268 1.278 . S
C265 O266 1.203 . S
C265 O272 1.267 1_655 S
O266 C265 1.203 . S
O267 C260 1.185 . S
O267 Zn263 2.086 1_455 S
C268 O264 1.278 . S
C268 O269 1.211 . S
O269 C268 1.211 . S
C270 O262 1.284 . S
C270 O271 1.273 . S
O271 C270 1.273 . S
O272 Zn263 1.977 1_445 S
O272 C265 1.267 1_455 S
C273 O274 1.160 . S
C273 O280 1.185 . S
O274 C273 1.160 . S
O275 Zn276 1.899 . S
O275 C283 1.284 . S
Zn276 O275 1.899 . S
Zn276 O277 2.032 . S
Zn276 O280 2.086 . S
Zn276 O285 1.977 . S
O277 Zn276 2.032 . S
O277 C281 1.278 . S
C278 O279 1.203 . S
C278 O285 1.267 . S
O279 C278 1.203 . S
O280 C273 1.185 . S
O280 Zn276 2.086 . S
C281 O277 1.278 . S
C281 O282 1.211 . S
O282 C281 1.211 . S
C283 O275 1.284 . S
C283 O284 1.273 . S
O284 C283 1.273 . S
O285 Zn276 1.977 . S
O285 C278 1.267 . S
C286 O287 1.160 . S
C286 O293 1.185 . S
O287 C286 1.160 . S
O288 Zn289 1.899 . S
O288 C296 1.284 . S
Zn289 O288 1.899 . S
Zn289 O290 2.032 . S
Zn289 O293 2.086 . S
Zn289 O298 1.977 . S
O290 Zn289 2.032 . S
O290 C294 1.278 . S
C291 O292 1.203 . S
C291 O298 1.267 . S
O292 C291 1.203 . S
O293 C286 1.185 . S
O293 Zn289 2.086 . S
C294 O290 1.278 . S
C294 O295 1.211 . S
O295 C294 1.211 . S
C296 O288 1.284 . S
C296 O297 1.273 . S
O297 C296 1.273 . S
O298 Zn289 1.977 . S
O298 C291 1.267 . S
C299 O300 1.160 . S
C299 O306 1.185 . S
O300 C299 1.160 . S
O301 Zn302 1.899 . S
O301 C309 1.284 . S
Zn302 O301 1.899 . S
Zn302 O303 2.032 . S
Zn302 O306 2.086 . S
Zn302 O311 1.977 . S
O303 Zn302 2.032 . S
O303 C307 1.278 . S
C304 O305 1.203 . S
C304 O311 1.267 . S
O305 C304 1.203 . S
O306 C299 1.185 . S
O306 Zn302 2.086 . S
C307 O303 1.278 . S
C307 O308 1.211 . S
O308 C307 1.211 . S
C309 O301 1.284 . S
C309 O310 1.273 . S
O310 C309 1.273 . S
O311 Zn302 1.977 . S
O311 C304 1.267 . S
C312 O313 1.160 . S
C312 O319 1.185 . S
O313 C312 1.160 . S
O314 Zn315 1.899 1_455 S
O314 C322 1.284 . S
Zn315 O314 1.899 1_655 S
Zn315 O316 2.032 . S
Zn315 O319 2.086 . S
Zn315 O324 1.977 1_655 S
O316 Zn315 2.032 . S
O316 C320 1.278 . S
C317 O318 1.203 . S
C317 O324 1.267 . S
O318 C317 1.203 . S
O319 C312 1.185 . S
O319 Zn315 2.086 . S
C320 O316 1.278 . S
C320 O321 1.211 . S
O321 C320 1.211 . S
C322 O314 1.284 . S
C322 O323 1.273 1_455 S
O323 C322 1.273 1_655 S
O324 Zn315 1.977 1_455 S
O324 C317 1.267 . S
C325 O326 1.160 . S
C325 O332 1.185 . S
O326 C325 1.160 . S
O327 Zn328 1.899 . S
O327 C335 1.284 . S
Zn328 O327 1.899 . S
Zn328 O329 2.032 . S
Zn328 O332 2.086 . S
Zn328 O337 1.977 . S
O329 Zn328 2.032 . S
O329 C333 1.278 . S
C330 O331 1.203 . S
C330 O337 1.267 . S
O331 C330 1.203 . S
O332 C325 1.185 . S
O332 Zn328 2.086 . S
C333 O329 1.278 . S
C333 O334 1.211 . S
O334 C333 1.211 . S
C335 O327 1.284 . S
C335 O336 1.273 . S
O336 C335 1.273 . S
O337 Zn328 1.977 . S
O337 C330 1.267 . S
C338 O339 1.160 . S
C338 O345 1.185 . S
O339 C338 1.160 . S
O340 Zn341 1.899 . S
O340 C348 1.284 . S
Zn341 O340 1.899 . S
Zn341 O342 2.032 . S
Zn341 O345 2.086 . S
Zn341 O350 1.977 . S
O342 Zn341 2.032 . S
O342 C346 1.278 . S
C343 O344 1.203 . S
C343 O350 1.267 . S
O344 C343 1.203 . S
O345 C338 1.185 . S
O345 Zn341 2.086 . S
C346 O342 1.278 . S
C346 O347 1.211 . S
O347 C346 1.211 . S
C348 O340 1.284 . S
C348 O349 1.273 . S
O349 C348 1.273 . S
O350 Zn341 1.977 . S
O350 C343 1.267 . S
C351 O352 1.160 . S
C351 O358 1.185 . S
O352 C351 1.160 . S
O353 Zn354 1.899 . S
O353 C361 1.284 . S
Zn354 O353 1.899 . S
Zn354 O355 2.032 . S
Zn354 O358 2.086 . S
Zn354 O363 1.977 . S
O355 Zn354 2.032 . S
O355 C359 1.278 . S
C356 O357 1.203 . S
C356 O363 1.267 . S
O357 C356 1.203 . S
O358 C351 1.185 . S
O358 Zn354 2.086 . S
C359 O355 1.278 . S
C359 O360 1.211 . S
O360 C359 1.211 . S
C361 O353 1.284 . S
C361 O362 1.273 . S
O362 C361 1.273 . S
O363 Zn354 1.977 . S
O363 C356 1.267 . S
C364 O365 1.160 . S
C364 O371 1.185 . S
O365 C364 1.160 . S
O366 Zn367 1.899 1_455 S
O366 C374 1.284 . S
Zn367 O366 1.899 1_655 S
Zn367 O368 2.032 . S
Zn367 O371 2.086 . S
Zn367 O376 1.977 . S
O368 Zn367 2.032 . S
O368 C372 1.278 . S
C369 O370 1.203 . S
C369 O376 1.267 1_455 S
O370 C369 1.203 . S
O371 C364 1.185 . S
O371 Zn367 2.086 . S
C372 O368 1.278 . S
C372 O373 1.211 . S
O373 C372 1.211 . S
C374 O366 1.284 . S
C374 O375 1.273 . S
O375 C374 1.273 . S
O376 Zn367 1.977 . S
O376 C369 1.267 1_655 S
C377 O378 1.160 . S
C377 O384 1.185 . S
O378 C377 1.160 . S
O379 Zn380 1.899 . S
O379 C387 1.284 . S
Zn380 O379 1.899 . S
Zn380 O381 2.032 . S
Zn380 O384 2.086 . S
Zn380 O389 1.977 . S
O381 Zn380 2.032 . S
O381 C385 1.278 . S
C382 O383 1.203 . S
C382 O389 1.267 . S
O383 C382 1.203 . S
O384 C377 1.185 . S
O384 Zn380 2.086 . S
C385 O381 1.278 . S
C385 O386 1.211 . S
O386 C385 1.211 . S
C387 O379 1.284 . S
C387 O388 1.273 . S
O388 C387 1.273 . S
O389 Zn380 1.977 . S
O389 C382 1.267 . S
C390 O391 1.160 . S
C390 O397 1.185 . S
O391 C390 1.160 . S
O392 Zn393 1.899 . S
O392 C400 1.284 . S
Zn393 O392 1.899 . S
Zn393 O394 2.032 . S
Zn393 O397 2.086 . S
Zn393 O402 1.977 . S
O394 Zn393 2.032 . S
O394 C398 1.278 . S
C395 O396 1.203 . S
C395 O402 1.267 . S
O396 C395 1.203 . S
O397 C390 1.185 . S
O397 Zn393 2.086 . S
C398 O394 1.278 . S
C398 O399 1.211 . S
O399 C398 1.211 . S
C400 O392 1.284 . S
C400 O401 1.273 . S
O401 C400 1.273 . S
O402 Zn393 1.977 . S
O402 C395 1.267 . S
C403 O404 1.160 . S
C403 O410 1.185 . S
O404 C403 1.160 . S
O405 Zn406 1.899 . S
O405 C413 1.284 . S
Zn406 O405 1.899 . S
Zn406 O407 2.032 . S
Zn406 O410 2.086 . S
Zn406 O415 1.977 . S
O407 Zn406 2.032 . S
O407 C411 1.278 . S
C408 O409 1.203 . S
C408 O415 1.267 . S
O409 C408 1.203 . S
O410 C403 1.185 . S
O410 Zn406 2.086 . S
C411 O407 1.278 . S
C411 O412 1.211 . S
O412 C411 1.211 . S
C413 O405 1.284 . S
C413 O414 1.273 . S
O414 C413 1.273 . S
O415 Zn406 1.977 . S
O415 C408 1.267 . S
C416 O417 1.160 . S
C416 O423 1.185 . S
O417 C416 1.160 . S
O418 Zn419 1.899 1_545 S
O418 C426 1.284 . S
Zn419 O418 1.899 1_565 S
Zn419 O420 2.032 . S
Zn419 O423 2.086 . S
Zn419 O428 1.977 1_565 S
O420 Zn419 2.032 . S
O420 C424 1.278 . S
C421 O422 1.203 . S
C421 O428 1.267 . S
O422 C421 1.203 . S
O423 C416 1.185 . S
O423 Zn419 2.086 . S
C424 O420 1.278 . S
C424 O425 1.211 . S
O425 C424 1.211 . S
C426 O418 1.284 . S
C426 O427 1.273 1_545 S
O427 C426 1.273 1_565 S
O428 Zn419 1.977 1_545 S
O428 C421 1.267 . S
C429 O430 1.160 . S
C429 O436 1.185 . S
O430 C429 1.160 . S
O431 Zn432 1.899 . S
O431 C439 1.284 . S
Zn432 O431 1.899 . S
Zn432 O433 2.032 . S
Zn432 O436 2.086 . S
Zn432 O441 1.977 . S
O433 Zn432 2.032 . S
O433 C437 1.278 . S
C434 O435 1.203 . S
C434 O441 1.267 . S
O435 C434 1.203 . S
O436 C429 1.185 . S
O436 Zn432 2.086 . S
C437 O433 1.278 . S
C437 O438 1.211 . S
O438 C437 1.211 . S
C439 O431 1.284 . S
C439 O440 1.273 . S
O440 C439 1.273 . S
O441 Zn432 1.977 . S
O441 C434 1.267 . S
C442 O443 1.160 . S
C442 O449 1.185 . S
O443 C442 1.160 . S
O444 Zn445 1.899 . S
O444 C452 1.284 . S
Zn445 O444 1.899 . S
Zn445 O446 2.032 . S
Zn445 O449 2.086 . S
Zn445 O454 1.977 . S
O446 Zn445 2.032 . S
O446 C450 1.278 . S
C447 O448 1.203 . S
C447 O454 1.267 . S
O448 C447 1.203 . S
O449 C442 1.185 . S
O449 Zn445 2.086 . S
C450 O446 1.278 . S
C450 O451 1.211 . S
O451 C450 1.211 . S
C452 O444 1.284 . S
C452 O453 1.273 . S
O453 C452 1.273 . S
O454 Zn445 1.977 . S
O454 C447 1.267 . S
C455 O456 1.160 . S
C455 O462 1.185 . S
O456 C455 1.160 . S
O457 Zn458 1.899 . S
O457 C465 1.284 . S
Zn458 O457 1.899 . S
Zn458 O459 2.032 . S
Zn458 O462 2.086 . S
Zn458 O467 1.977 1_556 S
O459 Zn458 2.032 . S
O459 C463 1.278 . S
C460 O461 1.203 . S
C460 O467 1.267 . S
O461 C460 1.203 . S
O462 C455 1.185 . S
O462 Zn458 2.086 . S
C463 O459 1.278 . S
C463 O464 1.211 1_556 S
O464 C463 1.211 1_554 S
C465 O457 1.284 . S
C465 O466 1.273 . S
O466 C465 1.273 . S
O467 Zn458 1.977 1_554 S
O467 C460 1.267 . S
C468 O469 1.160 . S
C468 O475 1.185 . S
O469 C468 1.160 . S
O470 Zn471 1.899 . S
O470 C478 1.284 . S
Zn471 O470 1.899 . S
Zn471 O472 2.032 . S
Zn471 O475 2.086 . S
Zn471 O480 1.977 . S
O472 Zn471 2.032 . S
O472 C476 1.278 . S
C473 O474 1.203 . S
C473 O480 1.267 . S
O474 C473 1.203 . S
O475 C468 1.185 . S
O475 Zn471 2.086 . S
C476 O472 1.278 . S
C476 O477 1.211 . S
O477 C476 1.211 . S
C478 O470 1.284 . S
C478 O479 1.273 . S
O479 C478 1.273 . S
O480 Zn471 1.977 . S
O480 C473 1.267 . S
C481 O482 1.160 . S
C481 O488 1.185 . S
O482 C481 1.160 . S
O483 Zn484 1.899 . S
O483 C491 1.284 . S
Zn484 O483 1.899 . S
Zn484 O485 2.032 . S
Zn484 O488 2.086 . S
Zn484 O493 1.977 . S
O485 Zn484 2.032 . S
O485 C489 1.278 . S
C486 O487 1.203 . S
C486 O493 1.267 . S
O487 C486 1.203 . S
O488 C481 1.185 . S
O488 Zn484 2.086 . S
C489 O485 1.278 . S
C489 O490 1.211 . S
O490 C489 1.211 . S
C491 O483 1.284 . S
C491 O492 1.273 . S
O492 C491 1.273 . S
O493 Zn484 1.977 . S
O493 C486 1.267 . S
C494 O495 1.160 . S
C494 O501 1.185 . S
O495 C494 1.160 . S
O496 Zn497 1.899 1_545 S
O496 C504 1.284 . S
Zn497 O496 1.899 1_565 S
Zn497 O498 2.032 . S
Zn497 O501 2.086 . S
Zn497 O506 1.977 . S
O498 Zn497 2.032 . S
O498 C502 1.278 . S
C499 O500 1.203 . S
C499 O506 1.267 1_545 S
O500 C499 1.203 . S
O501 C494 1.185 . S
O501 Zn497 2.086 . S
C502 O498 1.278 . S
C502 O503 1.211 . S
O503 C502 1.211 . S
C504 O496 1.284 . S
C504 O505 1.273 . S
O505 C504 1.273 . S
O506 Zn497 1.977 . S
O506 C499 1.267 1_565 S
C507 O508 1.160 . S
C507 O514 1.185 . S
O508 C507 1.160 . S
O509 Zn510 1.899 . S
O509 C517 1.284 . S
Zn510 O509 1.899 . S
Zn510 O511 2.032 . S
Zn510 O514 2.086 . S
Zn510 O519 1.977 . S
O511 Zn510 2.032 . S
O511 C515 1.278 . S
C512 O513 1.203 . S
C512 O519 1.267 . S
O513 C512 1.203 . S
O514 C507 1.185 . S
O514 Zn510 2.086 . S
C515 O511 1.278 . S
C515 O516 1.211 . S
O516 C515 1.211 . S
C517 O509 1.284 . S
C517 O518 1.273 . S
O518 C517 1.273 . S
O519 Zn510 1.977 . S
O519 C512 1.267 . S
C520 O521 1.160 . S
C520 O527 1.185 . S
O521 C520 1.160 . S
O522 Zn523 1.899 1_554 S
O522 C530 1.284 . S
Zn523 O522 1.899 1_556 S
Zn523 O524 2.032 . S
Zn523 O527 2.086 . S
Zn523 O532 1.977 1_556 S
O524 Zn523 2.032 . S
O524 C528 1.278 . S
C525 O526 1.203 . S
C525 O532 1.267 . S
O526 C525 1.203 . S
O527 C520 1.185 . S
O527 Zn523 2.086 . S
C528 O524 1.278 . S
C528 O529 1.211 . S
O529 C528 1.211 . S
C530 O522 1.284 . S
C530 O531 1.273 1_554 S
O531 C530 1.273 1_556 S
O532 Zn523 1.977 1_554 S
O532 C525 1.267 . S
C533 O534 1.160 . S
C533 O540 1.185 . S
O534 C533 1.160 . S
O535 Zn536 1.899 . S
O535 C543 1.284 . S
Zn536 O535 1.899 . S
Zn536 O537 2.032 . S
Zn536 O540 2.086 . S
Zn536 O545 1.977 . S
O537 Zn536 2.032 . S
O537 C541 1.278 . S
C538 O539 1.203 . S
C538 O545 1.267 . S
O539 C538 1.203 . S
O540 C533 1.185 . S
O540 Zn536 2.086 . S
C541 O537 1.278 . S
C541 O542 1.211 . S
O542 C541 1.211 . S
C543 O535 1.284 . S
C543 O544 1.273 . S
O544 C543 1.273 . S
O545 Zn536 1.977 . S
O545 C538 1.267 . S
C546 O547 1.160 . S
C546 O553 1.185 . S
O547 C546 1.160 . S
O548 Zn549 1.899 . S
O548 C556 1.284 . S
Zn549 O548 1.899 . S
Zn549 O550 2.032 . S
Zn549 O553 2.086 . S
Zn549 O558 1.977 . S
O550 Zn549 2.032 . S
O550 C554 1.278 . S
C551 O552 1.203 . S
C551 O558 1.267 . S
O552 C551 1.203 . S
O553 C546 1.185 . S
O553 Zn549 2.086 . S
C554 O550 1.278 . S
C554 O555 1.211 . S
O555 C554 1.211 . S
C556 O548 1.284 . S
C556 O557 1.273 . S
O557 C556 1.273 . S
O558 Zn549 1.977 . S
O558 C551 1.267 . S
C559 O560 1.160 . S
C559 O566 1.185 . S
O560 C559 1.160 . S
O561 Zn562 1.899 . S
O561 C569 1.284 . S
Zn562 O561 1.899 . S
Zn562 O563 2.032 . S
Zn562 O566 2.086 . S
Zn562 O571 1.977 . S
O563 Zn562 2.032 . S
O563 C567 1.278 . S
C564 O565 1.203 . S
C564 O571 1.267 . S
O565 C564 1.203 . S
O566 C559 1.185 . S
O566 Zn562 2.086 . S
C567 O563 1.278 . S
C567 O568 1.211 . S
O568 C567 1.211 . S
C569 O561 1.284 . S
C569 O570 1.273 . S
O570 C569 1.273 . S
O571 Zn562 1.977 . S
O571 C564 1.267 . S
C572 O573 1.160 . S
C572 O579 1.185 . S
O573 C572 1.160 . S
O574 Zn575 1.899 . S
O574 C582 1.284 . S
Zn575 O574 1.899 . S
Zn575 O576 2.032 . S
Zn575 O579 2.086 . S
Zn575 O584 1.977 . S
O576 Zn575 2.032 . S
O576 C580 1.278 . S
C577 O578 1.203 . S
C577 O584 1.267 . S
O578 C577 1.203 . S
O579 C572 1.185 . S
O579 Zn575 2.086 . S
C580 O576 1.278 . S
C580 O581 1.211 . S
O581 C580 1.211 . S
C582 O574 1.284 . S
C582 O583 1.273 . S
O583 C582 1.273 . S
O584 Zn575 1.977 . S
O584 C577 1.267 . S
C585 O586 1.160 . S
C585 O592 1.185 . S
O586 C585 1.160 . S
O587 Zn588 1.899 . S
O587 C595 1.284 . S
Zn588 O587 1.899 . S
Zn588 O589 2.032 . S
Zn588 O592 2.086 . S
Zn588 O597 1.977 . S
O589 Zn588 2.032 . S
O589 C593 1.278 . S
C590 O591 1.203 . S
C590 O597 1.267 . S
O591 C590 1.203 . S
O592 C585 1.185 . S
O592 Zn588 2.086 . S
C593 O589 1.278 . S
C593 O594 1.211 . S
O594 C593 1.211 . S
C595 O587 1.284 . S
C595 O596 1.273 . S
O596 C595 1.273 . S
O597 Zn588 1.977 . S
O597 C590 1.267 . S
C598 O599 1.160 . S
C598 O605 1.185 . S
O599 C598 1.160 . S
O600 Zn601 1.899 . S
O600 C608 1.284 . S
Zn601 O600 1.899 . S
Zn601 O602 2.032 . S
Zn601 O605 2.086 . S
Zn601 O610 1.977 . S
O602 Zn601 2.032 . S
O602 C606 1.278 . S
C603 O604 1.203 . S
C603 O610 1.267 . S
O604 C603 1.203 . S
O605 C598 1.185 . S
O605 Zn601 2.086 . S
C606 O602 1.278 . S
C606 O607 1.211 . S
O607 C606 1.211 . S
C608 O600 1.284 . S
C608 O609 1.273 . S
O609 C608 1.273 . S
O610 Zn601 1.977 . S
O610 C603 1.267 . S
C611 O612 1.160 . S
C611 O618 1.185 . S
O612 C611 1.160 . S
O613 Zn614 1.899 . S
O613 C621 1.284 . S
Zn614 O613 1.899 . S
Zn614 O615 2.032 . S
Zn614 O618 2.086 . S
Zn614 O623 1.977 . S
O615 Zn614 2.032 . S
O615 C619 1.278 . S
C616 O617 1.203 . S
C616 O623 1.267 . S
O617 C616 1.203 . S
O618 C611 1.185 . S
O618 Zn614 2.086 . S
C619 O615 1.278 . S
C619 O620 1.211 . S
O620 C619 1.211 . S
C621 O613 1.284 . S
C621 O622 1.273 . S
O622 C621 1.273 . S
O623 Zn614 1.977 . S
O623 C616 1.267 . S
C624 O625 1.160 . S
C624 O631 1.185 . S
O625 C624 1.160 . S
O626 Zn627 1.899 . S
O626 C634 1.284 . S
Zn627 O626 1.899 . S
Zn627 O628 2.032 . S
Zn627 O631 2.086 . S
Zn627 O636 1.977 . S
O628 Zn627 2.032 . S
O628 C632 1.278 . S
C629 O630 1.203 . S
C629 O636 1.267 . S
O630 C629 1.203 . S
O631 C624 1.185 . S
O631 Zn627 2.086 . S
C632 O628 1.278 . S
C632 O633 1.211 . S
O633 C632 1.211 . S
C634 O626 1.284 . S
C634 O635 1.273 . S
O635 C634 1.273 . S
O636 Zn627 1.977 . S
O636 C629 1.267 . S
C637 O638 1.160 . S
C637 O644 1.185 . S
O638 C637 1.160 . S
O639 Zn640 1.899 . S
O639 C647 1.284 . S
Zn640 O639 1.899 . S
Zn640 O641 2.032 . S
Zn640 O644 2.086 . S
Zn640 O649 1.977 . S
O641 Zn640 2.032 . S
O641 C645 1.278 . S
C642 O643 1.203 . S
C642 O649 1.267 . S
O643 C642 1.203 . S
O644 C637 1.185 . S
O644 Zn640 2.086 . S
C645 O641 1.278 . S
C645 O646 1.211 . S
O646 C645 1.211 . S
C647 O639 1.284 . S
C647 O648 1.273 . S
O648 C647 1.273 . S
O649 Zn640 1.977 . S
O649 C642 1.267 . S
C650 O651 1.160 . S
C650 O657 1.185 . S
O651 C650 1.160 . S
O652 Zn653 1.899 . S
O652 C660 1.284 . S
Zn653 O652 1.899 . S
Zn653 O654 2.027 1_655 S
Zn653 O657 2.086 . S
Zn653 O662 1.977 . S
O654 Zn653 2.027 1_455 S
O654 C658 1.285 . S
C655 O656 1.203 1_455 S
C655 O662 1.267 1_455 S
O656 C655 1.203 1_655 S
O657 C650 1.185 . S
O657 Zn653 2.086 . S
C658 O654 1.285 . S
C658 O659 1.211 . S
O659 C658 1.211 . S
C660 O652 1.284 . S
C660 O661 1.273 . S
O661 C660 1.273 . S
O662 Zn653 1.977 . S
O662 C655 1.267 1_655 S
C663 O664 1.160 . S
C663 O670 1.185 . S
O664 C663 1.160 . S
O665 Zn666 1.899 . S
O665 C673 1.284 . S
Zn666 O665 1.899 . S
Zn666 O667 2.032 . S
Zn666 O670 2.086 . S
Zn666 O675 1.977 . S
O667 Zn666 2.032 . S
O667 C671 1.278 . S
C668 O669 1.203 . S
C668 O675 1.267 . S
O669 C668 1.203 . S
O670 C663 1.185 . S
O670 Zn666 2.086 . S
C671 O667 1.278 . S
C671 O672 1.211 . S
O672 C671 1.211 . S
C673 O665 1.284 . S
C673 O674 1.273 . S
O674 C673 1.273 . S
O675 Zn666 1.977 . S
O675 C668 1.267 . S
C676 O677 1.160 . S
C676 O683 1.185 . S
O677 C676 1.160 . S
O678 Zn679 1.899 . S
O678 C686 1.284 . S
Zn679 O678 1.899 . S
Zn679 O680 2.032 . S
Zn679 O683 2.086 . S
Zn679 O688 1.977 . S
O680 Zn679 2.032 . S
O680 C684 1.278 . S
C681 O682 1.203 . S
C681 O688 1.267 . S
O682 C681 1.203 . S
O683 C676 1.185 . S
O683 Zn679 2.086 . S
C684 O680 1.278 . S
C684 O685 1.211 . S
O685 C684 1.211 . S
C686 O678 1.284 . S
C686 O687 1.273 . S
O687 C686 1.273 . S
O688 Zn679 1.977 . S
O688 C681 1.267 . S
C689 O690 1.160 . S
C689 O696 1.185 . S
O690 C689 1.160 . S
O691 Zn692 1.899 . S
O691 C699 1.284 . S
Zn692 O691 1.899 . S
Zn692 O693 2.032 . S
Zn692 O696 2.086 . S
Zn692 O701 1.977 . S
O693 Zn692 2.032 . S
O693 C697 1.278 . S
C694 O695 1.203 . S
C694 O701 1.267 . S
O695 C694 1.203 . S
O696 C689 1.185 . S
O696 Zn692 2.086 . S
C697 O693 1.278 . S
C697 O698 1.211 . S
O698 C697 1.211 . S
C699 O691 1.284 . S
C699 O700 1.273 . S
O700 C699 1.273 . S
O701 Zn692 1.977 . S
O701 C694 1.267 . S
C702 O703 1.160 . S
C702 O709 1.185 . S
O703 C702 1.160 . S
O704 Zn705 1.899 . S
O704 C712 1.284 . S
Zn705 O704 1.899 . S
Zn705 O706 2.032 1_655 S
Zn705 O709 2.086 . S
Zn705 O714 1.977 . S
O706 Zn705 2.032 1_455 S
O706 C710 1.278 . S
C707 O708 1.203 . S
C707 O714 1.267 . S
O708 C707 1.203 . S
O709 C702 1.185 . S
O709 Zn705 2.086 . S
C710 O706 1.278 . S
C710 O711 1.211 . S
O711 C710 1.211 . S
C712 O704 1.284 . S
C712 O713 1.273 . S
O713 C712 1.273 . S
O714 Zn705 1.977 . S
O714 C707 1.267 . S
C715 O716 1.160 . S
C715 O722 1.185 . S
O716 C715 1.160 . S
O717 Zn718 1.899 . S
O717 C725 1.284 . S
Zn718 O717 1.899 . S
Zn718 O719 2.032 . S
Zn718 O722 2.086 . S
Zn718 O727 1.977 . S
O719 Zn718 2.032 . S
O719 C723 1.278 . S
C720 O721 1.203 . S
C720 O727 1.267 . S
O721 C720 1.203 . S
O722 C715 1.185 . S
O722 Zn718 2.086 . S
C723 O719 1.278 . S
C723 O724 1.211 . S
O724 C723 1.211 . S
C725 O717 1.284 . S
C725 O726 1.273 . S
O726 C725 1.273 . S
O727 Zn718 1.977 . S
O727 C720 1.267 . S
C728 O729 1.160 . S
C728 O735 1.185 . S
O729 C728 1.160 . S
O730 Zn731 1.899 . S
O730 C738 1.284 . S
Zn731 O730 1.899 . S
Zn731 O732 2.032 . S
Zn731 O735 2.086 . S
Zn731 O740 1.977 . S
O732 Zn731 2.032 . S
O732 C736 1.278 . S
C733 O734 1.203 . S
C733 O740 1.267 . S
O734 C733 1.203 . S
O735 C728 1.185 . S
O735 Zn731 2.086 . S
C736 O732 1.278 . S
C736 O737 1.211 . S
O737 C736 1.211 . S
C738 O730 1.284 . S
C738 O739 1.273 . S
O739 C738 1.273 . S
O740 Zn731 1.977 . S
O740 C733 1.267 . S
C741 O742 1.160 . S
C741 O748 1.185 . S
O742 C741 1.160 . S
O743 Zn744 1.899 . S
O743 C751 1.284 . S
Zn744 O743 1.899 . S
Zn744 O745 2.032 . S
Zn744 O748 2.086 . S
Zn744 O753 1.977 . S
O745 Zn744 2.032 . S
O745 C749 1.278 . S
C746 O747 1.203 . S
C746 O753 1.267 . S
O747 C746 1.203 . S
O748 C741 1.185 . S
O748 Zn744 2.086 . S
C749 O745 1.278 . S
C749 O750 1.211 . S
O750 C749 1.211 . S
C751 O743 1.284 . S
C751 O752 1.273 . S
O752 C751 1.273 . S
O753 Zn744 1.977 . S
O753 C746 1.267 . S
C754 O755 1.160 . S
C754 O761 1.185 . S
O755 C754 1.160 . S
O756 Zn757 1.899 . S
O756 C764 1.284 . S
Zn757 O756 1.899 . S
Zn757 O758 2.032 . S
Zn757 O761 2.086 . S
Zn757 O766 1.977 . S
O758 Zn757 2.032 . S
O758 C762 1.278 . S
C759 O760 1.203 . S
C759 O766 1.267 . S
O760 C759 1.203 . S
O761 C754 1.185 . S
O761 Zn757 2.086 . S
C762 O758 1.278 . S
C762 O763 1.211 . S
O763 C762 1.211 . S
C764 O756 1.284 . S
C764 O765 1.273 . S
O765 C764 1.273 . S
O766 Zn757 1.977 . S
O766 C759 1.267 . S
C767 O768 1.160 . S
C767 O774 1.185 . S
O768 C767 1.160 . S
O769 Zn770 1.899 . S
O769 C777 1.284 . S
Zn770 O769 1.899 . S
Zn770 O771 2.032 . S
Zn770 O774 2.086 . S
Zn770 O779 1.977 . S
O771 Zn770 2.032 . S
O771 C775 1.278 . S
C772 O773 1.203 . S
C772 O779 1.267 . S
O773 C772 1.203 . S
O774 C767 1.185 . S
O774 Zn770 2.086 . S
C775 O771 1.278 . S
C775 O776 1.211 . S
O776 C775 1.211 . S
C777 O769 1.284 . S
C777 O778 1.273 . S
O778 C777 1.273 . S
O779 Zn770 1.977 . S
O779 C772 1.267 . S
C780 O781 1.160 . S
C780 O787 1.185 . S
O781 C780 1.160 . S
O782 Zn783 1.899 . S
O782 C790 1.284 . S
Zn783 O782 1.899 . S
Zn783 O784 2.032 . S
Zn783 O787 2.086 . S
Zn783 O792 1.977 . S
O784 Zn783 2.032 . S
O784 C788 1.278 . S
C785 O786 1.203 . S
C785 O792 1.267 . S
O786 C785 1.203 . S
O787 C780 1.185 . S
O787 Zn783 2.086 . S
C788 O784 1.278 . S
C788 O789 1.211 . S
O789 C788 1.211 . S
C790 O782 1.284 . S
C790 O791 1.273 . S
O791 C790 1.273 . S
O792 Zn783 1.977 . S
O792 C785 1.267 . S
C793 O794 1.160 . S
C793 O800 1.185 . S
O794 C793 1.160 . S
O795 Zn796 1.899 . S
O795 C803 1.284 . S
Zn796 O795 1.899 . S
Zn796 O797 2.032 . S
Zn796 O800 2.086 . S
Zn796 O805 1.977 . S
O797 Zn796 2.032 . S
O797 C801 1.278 . S
C798 O799 1.203 . S
C798 O805 1.267 1_554 S
O799 C798 1.203 . S
O800 C793 1.185 . S
O800 Zn796 2.086 . S
C801 O797 1.278 . S
C801 O802 1.211 . S
O802 C801 1.211 . S
C803 O795 1.284 . S
C803 O804 1.273 . S
O804 C803 1.273 . S
O805 Zn796 1.977 . S
O805 C798 1.267 1_556 S
C806 O807 1.160 . S
C806 O813 1.185 . S
O807 C806 1.160 . S
O808 Zn809 1.899 . S
O808 C816 1.284 . S
Zn809 O808 1.899 . S
Zn809 O810 2.032 . S
Zn809 O813 2.086 . S
Zn809 O818 1.977 . S
O810 Zn809 2.032 . S
O810 C814 1.278 . S
C811 O812 1.203 . S
C811 O818 1.267 . S
O812 C811 1.203 . S
O813 C806 1.185 . S
O813 Zn809 2.086 . S
C814 O810 1.278 . S
C814 O815 1.211 . S
O815 C814 1.211 . S
C816 O808 1.284 . S
C816 O817 1.273 . S
O817 C816 1.273 . S
O818 Zn809 1.977 . S
O818 C811 1.267 . S
C819 O820 1.160 . S
C819 O826 1.185 . S
O820 C819 1.160 . S
O821 Zn822 1.899 . S
O821 C829 1.284 . S
Zn822 O821 1.899 . S
Zn822 O823 2.032 . S
Zn822 O826 2.086 . S
Zn822 O831 1.977 . S
O823 Zn822 2.032 . S
O823 C827 1.278 . S
C824 O825 1.203 . S
C824 O831 1.267 . S
O825 C824 1.203 . S
O826 C819 1.185 . S
O826 Zn822 2.086 . S
C827 O823 1.278 . S
C827 O828 1.211 . S
O828 C827 1.211 . S
C829 O821 1.284 . S
C829 O830 1.273 . S
O830 C829 1.273 . S
O831 Zn822 1.977 . S
O831 C824 1.267 . S
C832 O833 1.160 . S
C832 O839 1.185 . S
O833 C832 1.160 . S
O834 Zn835 1.899 . S
O834 C842 1.284 . S
Zn835 O834 1.899 . S
Zn835 O836 2.032 . S
Zn835 O839 2.086 . S
Zn835 O844 1.977 . S
O836 Zn835 2.032 . S
O836 C840 1.278 . S
C837 O838 1.203 . S
C837 O844 1.267 . S
O838 C837 1.203 . S
O839 C832 1.185 . S
O839 Zn835 2.086 . S
C840 O836 1.278 . S
C840 O841 1.211 . S
O841 C840 1.211 . S
C842 O834 1.284 . S
C842 O843 1.273 . S
O843 C842 1.273 . S
O844 Zn835 1.977 . S
O844 C837 1.267 . S
C845 O846 1.160 . S
C845 O852 1.185 . S
O846 C845 1.160 . S
O847 Zn848 1.899 . S
O847 C855 1.284 . S
Zn848 O847 1.899 . S
Zn848 O849 2.032 . S
Zn848 O852 2.086 . S
Zn848 O857 1.977 . S
O849 Zn848 2.032 . S
O849 C853 1.278 . S
C850 O851 1.203 . S
C850 O857 1.267 . S
O851 C850 1.203 . S
O852 C845 1.185 . S
O852 Zn848 2.086 . S
C853 O849 1.278 . S
C853 O854 1.211 . S
O854 C853 1.211 . S
C855 O847 1.284 . S
C855 O856 1.273 . S
O856 C855 1.273 . S
O857 Zn848 1.977 . S
O857 C850 1.267 . S
C858 O859 1.160 . S
C858 O865 1.185 . S
O859 C858 1.160 . S
O860 Zn861 1.899 . S
O860 C868 1.284 . S
Zn861 O860 1.899 . S
Zn861 O862 2.032 . S
Zn861 O865 2.086 . S
Zn861 O870 1.977 . S
O862 Zn861 2.032 . S
O862 C866 1.278 . S
C863 O864 1.203 . S
C863 O870 1.267 . S
O864 C863 1.203 . S
O865 C858 1.185 . S
O865 Zn861 2.086 . S
C866 O862 1.278 . S
C866 O867 1.211 . S
O867 C866 1.211 . S
C868 O860 1.284 . S
C868 O869 1.273 . S
O869 C868 1.273 . S
O870 Zn861 1.977 . S
O870 C863 1.267 . S
C871 O872 1.160 . S
C871 O878 1.185 . S
O872 C871 1.160 . S
O873 Zn874 1.899 . S
O873 C881 1.284 . S
Zn874 O873 1.899 . S
Zn874 O875 2.026 1_556 S
Zn874 O878 2.086 . S
Zn874 O883 1.977 . S
O875 Zn874 2.026 1_554 S
O875 C879 1.285 . S
C876 O877 1.203 1_554 S
C876 O883 1.267 1_554 S
O877 C876 1.203 1_556 S
O878 C871 1.185 . S
O878 Zn874 2.086 . S
C879 O875 1.285 . S
C879 O880 1.211 . S
O880 C879 1.211 . S
C881 O873 1.284 . S
C881 O882 1.273 . S
O882 C881 1.273 . S
O883 Zn874 1.977 . S
O883 C876 1.267 1_556 S
C884 O885 1.160 . S
C884 O891 1.185 . S
O885 C884 1.160 . S
O886 Zn887 1.899 . S
O886 C894 1.284 . S
Zn887 O886 1.899 . S
Zn887 O888 2.032 . S
Zn887 O891 2.086 . S
Zn887 O896 1.977 . S
O888 Zn887 2.032 . S
O888 C892 1.278 . S
C889 O890 1.203 . S
C889 O896 1.267 . S
O890 C889 1.203 . S
O891 C884 1.185 . S
O891 Zn887 2.086 . S
C892 O888 1.278 . S
C892 O893 1.211 . S
O893 C892 1.211 . S
C894 O886 1.284 . S
C894 O895 1.273 . S
O895 C894 1.273 . S
O896 Zn887 1.977 . S
O896 C889 1.267 . S
C897 O898 1.160 . S
C897 O904 1.200 . S
O898 C897 1.160 . S
O899 Zn900 1.899 . S
O899 C907 1.284 . S
Zn900 O899 1.899 . S
Zn900 O901 2.032 1_554 S
Zn900 O904 2.091 . S
Zn900 O909 1.977 1_554 S
O901 Zn900 2.032 1_556 S
O901 C905 1.278 . S
C902 O903 1.203 1_556 S
C902 O909 1.267 . S
O903 C902 1.203 1_554 S
O904 C897 1.200 . S
O904 Zn900 2.091 . S
C905 O901 1.278 . S
C905 O906 1.211 . S
O906 C905 1.211 . S
C907 O899 1.284 . S
C907 O908 1.273 . S
O908 C907 1.273 . S
O909 Zn900 1.977 1_556 S
O909 C902 1.267 . S
C910 O911 1.160 . S
C910 O917 1.185 . S
O911 C910 1.160 . S
O912 Zn913 1.899 . S
O912 C920 1.284 . S
Zn913 O912 1.899 . S
Zn913 O914 2.032 . S
Zn913 O917 2.086 . S
Zn913 O922 1.977 . S
O914 Zn913 2.032 . S
O914 C918 1.278 . S
C915 O916 1.203 . S
C915 O922 1.267 1_545 S
O916 C915 1.203 . S
O917 C910 1.185 . S
O917 Zn913 2.086 . S
C918 O914 1.278 . S
C918 O919 1.211 . S
O919 C918 1.211 . S
C920 O912 1.284 . S
C920 O921 1.273 . S
O921 C920 1.273 . S
O922 Zn913 1.977 . S
O922 C915 1.267 1_565 S
C923 O924 1.160 . S
C923 O930 1.185 . S
O924 C923 1.160 . S
O925 Zn926 1.899 . S
O925 C933 1.284 . S
Zn926 O925 1.899 . S
Zn926 O927 2.032 . S
Zn926 O930 2.086 . S
Zn926 O935 1.977 . S
O927 Zn926 2.032 . S
O927 C931 1.278 . S
C928 O929 1.203 . S
C928 O935 1.267 . S
O929 C928 1.203 . S
O930 C923 1.185 . S
O930 Zn926 2.086 . S
C931 O927 1.278 . S
C931 O932 1.211 . S
O932 C931 1.211 . S
C933 O925 1.284 . S
C933 O934 1.273 . S
O934 C933 1.273 . S
O935 Zn926 1.977 . S
O935 C928 1.267 . S
C936 O937 1.160 . S
C936 O943 1.185 . S
O937 C936 1.160 . S
O938 Zn939 1.899 . S
O938 C946 1.284 . S
Zn939 O938 1.899 . S
Zn939 O940 2.032 . S
Zn939 O943 2.086 . S
Zn939 O948 1.977 . S
O940 Zn939 2.032 . S
O940 C944 1.278 . S
C941 O942 1.203 . S
C941 O948 1.267 . S
O942 C941 1.203 . S
O943 C936 1.185 . S
O943 Zn939 2.086 . S
C944 O940 1.278 . S
C944 O945 1.211 . S
O945 C944 1.211 . S
C946 O938 1.284 . S
C946 O947 1.273 . S
O947 C946 1.273 . S
O948 Zn939 1.977 . S
O948 C941 1.267 . S
C949 O950 1.160 . S
C949 O956 1.185 . S
O950 C949 1.160 . S
O951 Zn952 1.899 . S
O951 C959 1.284 . S
Zn952 O951 1.899 . S
Zn952 O953 2.032 . S
Zn952 O956 2.086 . S
Zn952 O961 1.977 . S
O953 Zn952 2.032 . S
O953 C957 1.278 . S
C954 O955 1.203 . S
C954 O961 1.267 . S
O955 C954 1.203 . S
O956 C949 1.185 . S
O956 Zn952 2.086 . S
C957 O953 1.278 . S
C957 O958 1.211 . S
O958 C957 1.211 . S
C959 O951 1.284 . S
C959 O960 1.273 . S
O960 C959 1.273 . S
O961 Zn952 1.977 . S
O961 C954 1.267 . S
C962 O963 1.160 . S
C962 O969 1.185 . S
O963 C962 1.160 . S
O964 Zn965 1.899 . S
O964 C972 1.284 . S
Zn965 O964 1.899 . S
Zn965 O966 2.032 . S
Zn965 O969 2.086 . S
Zn965 O974 1.977 . S
O966 Zn965 2.032 . S
O966 C970 1.278 . S
C967 O968 1.203 . S
C967 O974 1.267 . S
O968 C967 1.203 . S
O969 C962 1.185 . S
O969 Zn965 2.086 . S
C970 O966 1.278 . S
C970 O971 1.211 . S
O971 C970 1.211 . S
C972 O964 1.284 . S
C972 O973 1.273 . S
O973 C972 1.273 . S
O974 Zn965 1.977 . S
O974 C967 1.267 . S
C975 O976 1.160 . S
C975 O982 1.185 . S
O976 C975 1.160 . S
O977 Zn978 1.899 . S
O977 C985 1.284 . S
Zn978 O977 1.899 . S
Zn978 O979 2.032 . S
Zn978 O982 2.086 . S
Zn978 O987 1.977 . S
O979 Zn978 2.032 . S
O979 C983 1.278 . S
C980 O981 1.203 . S
C980 O987 1.267 1_455 S
O981 C980 1.203 . S
O982 C975 1.185 . S
O982 Zn978 2.086 . S
C983 O979 1.278 . S
C983 O984 1.211 1_655 S
O984 C983 1.211 1_455 S
C985 O977 1.284 . S
C985 O986 1.273 . S
O986 C985 1.273 . S
O987 Zn978 1.977 . S
O987 C980 1.267 1_655 S
C988 O989 1.160 . S
C988 O995 1.185 . S
O989 C988 1.160 . S
O990 Zn991 1.899 . S
O990 C998 1.284 . S
Zn991 O990 1.899 . S
Zn991 O992 2.032 . S
Zn991 O995 2.086 . S
Zn991 O1000 1.977 . S
O992 Zn991 2.032 . S
O992 C996 1.278 . S
C993 O994 1.203 . S
C993 O1000 1.267 . S
O994 C993 1.203 . S
O995 C988 1.185 . S
O995 Zn991 2.086 . S
C996 O992 1.278 . S
C996 O997 1.211 . S
O997 C996 1.211 . S
C998 O990 1.284 . S
C998 O999 1.273 . S
O999 C998 1.273 . S
O1000 Zn991 1.977 . S
O1000 C993 1.267 . S
C1001 O1002 1.160 . S
C1001 O1008 1.185 . S
O1002 C1001 1.160 . S
O1003 Zn1004 1.899 . S
O1003 C1011 1.284 . S
Zn1004 O1003 1.899 . S
Zn1004 O1005 2.032 . S
Zn1004 O1008 2.086 . S
Zn1004 O1013 1.977 1_655 S
O1005 Zn1004 2.032 . S
O1005 C1009 1.278 . S
C1006 O1007 1.203 . S
C1006 O1013 1.267 . S
O1007 C1006 1.203 . S
O1008 C1001 1.185 . S
O1008 Zn1004 2.086 . S
C1009 O1005 1.278 . S
C1009 O1010 1.211 1_655 S
O1010 C1009 1.211 1_455 S
C1011 O1003 1.284 . S
C1011 O1012 1.273 . S
O1012 C1011 1.273 . S
O1013 Zn1004 1.977 1_455 S
O1013 C1006 1.267 . S
C1014 O1015 1.160 . S
C1014 O1021 1.185 . S
O1015 C1014 1.160 . S
O1016 Zn1017 1.899 . S
O1016 C1024 1.284 . S
Zn1017 O1016 1.899 . S
Zn1017 O1018 2.032 . S
Zn1017 O1021 2.086 . S
Zn1017 O1026 1.977 . S
O1018 Zn1017 2.032 . S
O1018 C1022 1.278 . S
C1019 O1020 1.203 . S
C1019 O1026 1.267 . S
O1020 C1019 1.203 . S
O1021 C1014 1.185 . S
O1021 Zn1017 2.086 . S
C1022 O1018 1.278 . S
C1022 O1023 1.211 . S
O1023 C1022 1.211 . S
C1024 O1016 1.284 . S
C1024 O1025 1.273 . S
O1025 C1024 1.273 . S
O1026 Zn1017 1.977 . S
O1026 C1019 1.267 . S
C1027 O1028 1.160 . S
C1027 O1034 1.185 . S
O1028 C1027 1.160 . S
O1029 Zn1030 1.899 . S
O1029 C1037 1.284 . S
Zn1030 O1029 1.899 . S
Zn1030 O1031 2.032 . S
Zn1030 O1034 2.086 . S
Zn1030 O1039 1.977 . S
O1031 Zn1030 2.032 . S
O1031 C1035 1.278 . S
C1032 O1033 1.203 . S
C1032 O1039 1.267 . S
O1033 C1032 1.203 . S
O1034 C1027 1.185 . S
O1034 Zn1030 2.086 . S
C1035 O1031 1.278 . S
C1035 O1036 1.211 . S
O1036 C1035 1.211 . S
C1037 O1029 1.284 . S
C1037 O1038 1.273 . S
O1038 C1037 1.273 . S
O1039 Zn1030 1.977 . S
O1039 C1032 1.267 . S
C1040 O1041 1.160 . S
C1040 O1047 1.185 . S
O1041 C1040 1.160 . S
O1042 Zn1043 1.899 . S
O1042 C1050 1.284 . S
Zn1043 O1042 1.899 . S
Zn1043 O1044 2.032 . S
Zn1043 O1047 2.086 . S
Zn1043 O1052 1.977 . S
O1044 Zn1043 2.032 . S
O1044 C1048 1.278 . S
C1045 O1046 1.203 . S
C1045 O1052 1.267 . S
O1046 C1045 1.203 . S
O1047 C1040 1.185 . S
O1047 Zn1043 2.086 . S
C1048 O1044 1.278 . S
C1048 O1049 1.211 . S
O1049 C1048 1.211 . S
C1050 O1042 1.284 . S
C1050 O1051 1.273 . S
O1051 C1050 1.273 . S
O1052 Zn1043 1.977 . S
O1052 C1045 1.267 . S
C1053 O1054 1.160 . S
C1053 O1060 1.185 . S
O1054 C1053 1.160 . S
O1055 Zn1056 1.899 . S
O1055 C1063 1.284 . S
Zn1056 O1055 1.899 . S
Zn1056 O1057 2.032 . S
Zn1056 O1060 2.086 . S
Zn1056 O1065 1.977 . S
O1057 Zn1056 2.032 . S
O1057 C1061 1.278 . S
C1058 O1059 1.203 . S
C1058 O1065 1.267 1_554 S
O1059 C1058 1.203 . S
O1060 C1053 1.185 . S
O1060 Zn1056 2.086 . S
C1061 O1057 1.278 . S
C1061 O1062 1.211 1_556 S
O1062 C1061 1.211 1_554 S
C1063 O1055 1.284 . S
C1063 O1064 1.273 . S
O1064 C1063 1.273 . S
O1065 Zn1056 1.977 . S
O1065 C1058 1.267 1_556 S
C1066 O1067 1.160 . S
C1066 O1073 1.185 . S
O1067 C1066 1.160 . S
O1068 Zn1069 1.899 . S
O1068 C1076 1.284 . S
Zn1069 O1068 1.899 . S
Zn1069 O1070 2.032 . S
Zn1069 O1073 2.086 . S
Zn1069 O1078 1.977 . S
O1070 Zn1069 2.032 . S
O1070 C1074 1.278 . S
C1071 O1072 1.203 . S
C1071 O1078 1.267 . S
O1072 C1071 1.203 . S
O1073 C1066 1.185 . S
O1073 Zn1069 2.086 . S
C1074 O1070 1.278 . S
C1074 O1075 1.211 . S
O1075 C1074 1.211 . S
C1076 O1068 1.284 . S
C1076 O1077 1.273 . S
O1077 C1076 1.273 . S
O1078 Zn1069 1.977 . S
O1078 C1071 1.267 . S
C1079 O1080 1.160 . S
C1079 O1086 1.185 . S
O1080 C1079 1.160 . S
O1081 Zn1082 1.899 . S
O1081 C1089 1.284 . S
Zn1082 O1081 1.899 . S
Zn1082 O1083 2.032 . S
Zn1082 O1086 2.086 . S
Zn1082 O1091 1.977 . S
O1083 Zn1082 2.032 . S
O1083 C1087 1.278 . S
C1084 O1085 1.203 . S
C1084 O1091 1.267 . S
O1085 C1084 1.203 . S
O1086 C1079 1.185 . S
O1086 Zn1082 2.086 . S
C1087 O1083 1.278 . S
C1087 O1088 1.211 . S
O1088 C1087 1.211 . S
C1089 O1081 1.284 . S
C1089 O1090 1.273 . S
O1090 C1089 1.273 . S
O1091 Zn1082 1.977 . S
O1091 C1084 1.267 . S
C1092 O1093 1.160 . S
C1092 O1099 1.185 . S
O1093 C1092 1.160 . S
O1094 Zn1095 1.899 . S
O1094 C1102 1.284 . S
Zn1095 O1094 1.899 . S
Zn1095 O1096 2.032 . S
Zn1095 O1099 2.086 . S
Zn1095 O1104 1.977 . S
O1096 Zn1095 2.032 . S
O1096 C1100 1.278 . S
C1097 O1098 1.203 . S
C1097 O1104 1.267 . S
O1098 C1097 1.203 . S
O1099 C1092 1.185 . S
O1099 Zn1095 2.086 . S
C1100 O1096 1.278 . S
C1100 O1101 1.211 . S
O1101 C1100 1.211 . S
C1102 O1094 1.284 . S
C1102 O1103 1.273 . S
O1103 C1102 1.273 . S
O1104 Zn1095 1.977 . S
O1104 C1097 1.267 . S
C1105 O1106 1.160 . S
C1105 O1112 1.185 . S
O1106 C1105 1.160 . S
O1107 Zn1108 1.899 . S
O1107 C1115 1.284 . S
Zn1108 O1107 1.899 . S
Zn1108 O1109 2.032 . S
Zn1108 O1112 2.086 . S
Zn1108 O1117 1.977 . S
O1109 Zn1108 2.032 . S
O1109 C1113 1.278 . S
C1110 O1111 1.203 . S
C1110 O1117 1.267 . S
O1111 C1110 1.203 . S
O1112 C1105 1.185 . S
O1112 Zn1108 2.086 . S
C1113 O1109 1.278 . S
C1113 O1114 1.211 . S
O1114 C1113 1.211 . S
C1115 O1107 1.284 . S
C1115 O1116 1.273 . S
O1116 C1115 1.273 . S
O1117 Zn1108 1.977 . S
O1117 C1110 1.267 . S
C1118 O1119 1.160 . S
C1118 O1125 1.185 . S
O1119 C1118 1.160 . S
O1120 Zn1121 1.899 . S
O1120 C1128 1.284 . S
Zn1121 O1120 1.899 . S
Zn1121 O1122 2.032 . S
Zn1121 O1125 2.086 . S
Zn1121 O1130 1.977 . S
O1122 Zn1121 2.032 . S
O1122 C1126 1.278 . S
C1123 O1124 1.203 . S
C1123 O1130 1.267 . S
O1124 C1123 1.203 . S
O1125 C1118 1.185 . S
O1125 Zn1121 2.086 . S
C1126 O1122 1.278 . S
C1126 O1127 1.211 . S
O1127 C1126 1.211 . S
C1128 O1120 1.284 . S
C1128 O1129 1.273 . S
O1129 C1128 1.273 . S
O1130 Zn1121 1.977 . S
O1130 C1123 1.267 . S
C1131 O1132 1.160 . S
C1131 O1138 1.185 . S
O1132 C1131 1.160 . S
O1133 Zn1134 1.899 . S
O1133 C1141 1.284 . S
Zn1134 O1133 1.899 . S
Zn1134 O1135 2.032 . S
Zn1134 O1138 2.086 . S
Zn1134 O1143 1.977 . S
O1135 Zn1134 2.032 . S
O1135 C1139 1.278 . S
C1136 O1137 1.203 . S
C1136 O1143 1.267 . S
O1137 C1136 1.203 . S
O1138 C1131 1.185 . S
O1138 Zn1134 2.086 . S
C1139 O1135 1.278 . S
C1139 O1140 1.211 . S
O1140 C1139 1.211 . S
C1141 O1133 1.284 . S
C1141 O1142 1.273 . S
O1142 C1141 1.273 . S
O1143 Zn1134 1.977 . S
O1143 C1136 1.267 . S
C1144 O1145 1.160 . S
C1144 O1151 1.185 . S
O1145 C1144 1.160 . S
O1146 Zn1147 1.899 . S
O1146 C1154 1.284 . S
Zn1147 O1146 1.899 . S
Zn1147 O1148 2.032 . S
Zn1147 O1151 2.086 . S
Zn1147 O1156 1.977 . S
O1148 Zn1147 2.032 . S
O1148 C1152 1.278 . S
C1149 O1150 1.203 . S
C1149 O1156 1.267 . S
O1150 C1149 1.203 . S
O1151 C1144 1.185 . S
O1151 Zn1147 2.086 . S
C1152 O1148 1.278 . S
C1152 O1153 1.211 . S
O1153 C1152 1.211 . S
C1154 O1146 1.284 . S
C1154 O1155 1.273 . S
O1155 C1154 1.273 . S
O1156 Zn1147 1.977 . S
O1156 C1149 1.267 . S
C1157 O1158 1.160 . S
C1157 O1164 1.185 . S
O1158 C1157 1.160 . S
O1159 Zn1160 1.899 . S
O1159 C1167 1.284 . S
Zn1160 O1159 1.899 . S
Zn1160 O1161 2.032 . S
Zn1160 O1164 2.086 . S
Zn1160 O1169 1.977 . S
O1161 Zn1160 2.032 . S
O1161 C1165 1.278 . S
C1162 O1163 1.203 . S
C1162 O1169 1.267 . S
O1163 C1162 1.203 . S
O1164 C1157 1.185 . S
O1164 Zn1160 2.086 . S
C1165 O1161 1.278 . S
C1165 O1166 1.211 . S
O1166 C1165 1.211 . S
C1167 O1159 1.284 . S
C1167 O1168 1.273 . S
O1168 C1167 1.273 . S
O1169 Zn1160 1.977 . S
O1169 C1162 1.267 . S
C1170 O1171 1.160 . S
C1170 O1177 1.185 . S
O1171 C1170 1.160 . S
O1172 Zn1173 1.899 . S
O1172 C1180 1.284 . S
Zn1173 O1172 1.899 . S
Zn1173 O1174 2.032 . S
Zn1173 O1177 2.086 . S
Zn1173 O1182 1.977 . S
O1174 Zn1173 2.032 . S
O1174 C1178 1.278 . S
C1175 O1176 1.203 . S
C1175 O1182 1.267 1_545 S
O1176 C1175 1.203 . S
O1177 C1170 1.185 . S
O1177 Zn1173 2.086 . S
C1178 O1174 1.278 . S
C1178 O1179 1.211 1_565 S
O1179 C1178 1.211 1_545 S
C1180 O1172 1.284 . S
C1180 O1181 1.273 . S
O1181 C1180 1.273 . S
O1182 Zn1173 1.977 . S
O1182 C1175 1.267 1_565 S
C1183 O1184 1.160 . S
C1183 O1190 1.185 . S
O1184 C1183 1.160 . S
O1185 Zn1186 1.899 . S
O1185 C1193 1.284 . S
Zn1186 O1185 1.899 . S
Zn1186 O1187 2.032 . S
Zn1186 O1190 2.086 . S
Zn1186 O1195 1.977 . S
O1187 Zn1186 2.032 . S
O1187 C1191 1.278 . S
C1188 O1189 1.203 . S
C1188 O1195 1.267 . S
O1189 C1188 1.203 . S
O1190 C1183 1.185 . S
O1190 Zn1186 2.086 . S
C1191 O1187 1.278 . S
C1191 O1192 1.211 . S
O1192 C1191 1.211 . S
C1193 O1185 1.284 . S
C1193 O1194 1.273 . S
O1194 C1193 1.273 . S
O1195 Zn1186 1.977 . S
O1195 C1188 1.267 . S
C1196 O1197 1.160 . S
C1196 O1203 1.185 . S
O1197 C1196 1.160 . S
O1198 Zn1199 1.899 . S
O1198 C1206 1.284 . S
Zn1199 O1198 1.899 . S
Zn1199 O1200 2.032 . S
Zn1199 O1203 2.086 . S
Zn1199 O1208 1.977 . S
O1200 Zn1199 2.032 . S
O1200 C1204 1.278 . S
C1201 O1202 1.203 . S
C1201 O1208 1.267 . S
O1202 C1201 1.203 . S
O1203 C1196 1.185 . S
O1203 Zn1199 2.086 . S
C1204 O1200 1.278 . S
C1204 O1205 1.211 . S
O1205 C1204 1.211 . S
C1206 O1198 1.284 . S
C1206 O1207 1.273 . S
O1207 C1206 1.273 . S
O1208 Zn1199 1.977 . S
O1208 C1201 1.267 . S
C1209 O1210 1.160 . S
C1209 O1216 1.185 . S
O1210 C1209 1.160 . S
O1211 Zn1212 1.899 1_554 S
O1211 C1219 1.284 . S
Zn1212 O1211 1.899 1_556 S
Zn1212 O1213 2.032 . S
Zn1212 O1216 2.086 . S
Zn1212 O1221 1.977 . S
O1213 Zn1212 2.032 . S
O1213 C1217 1.278 . S
C1214 O1215 1.203 . S
C1214 O1221 1.267 1_554 S
O1215 C1214 1.203 . S
O1216 C1209 1.185 . S
O1216 Zn1212 2.086 . S
C1217 O1213 1.278 . S
C1217 O1218 1.211 . S
O1218 C1217 1.211 . S
C1219 O1211 1.284 . S
C1219 O1220 1.273 . S
O1220 C1219 1.273 . S
O1221 Zn1212 1.977 . S
O1221 C1214 1.267 1_556 S
C1222 O1223 1.160 . S
C1222 O1229 1.185 . S
O1223 C1222 1.160 . S
O1224 Zn1225 1.899 . S
O1224 C1232 1.284 . S
Zn1225 O1224 1.899 . S
Zn1225 O1226 2.032 . S
Zn1225 O1229 2.086 . S
Zn1225 O1234 1.977 . S
O1226 Zn1225 2.032 . S
O1226 C1230 1.278 . S
C1227 O1228 1.203 . S
C1227 O1234 1.267 . S
O1228 C1227 1.203 . S
O1229 C1222 1.185 . S
O1229 Zn1225 2.086 . S
C1230 O1226 1.278 . S
C1230 O1231 1.211 . S
O1231 C1230 1.211 . S
C1232 O1224 1.284 . S
C1232 O1233 1.273 . S
O1233 C1232 1.273 . S
O1234 Zn1225 1.977 . S
O1234 C1227 1.267 . S
C1235 O1236 1.160 . S
C1235 O1242 1.185 . S
O1236 C1235 1.160 . S
O1237 Zn1238 1.899 . S
O1237 C1245 1.284 . S
Zn1238 O1237 1.899 . S
Zn1238 O1239 2.032 . S
Zn1238 O1242 2.086 . S
Zn1238 O1247 1.977 1_565 S
O1239 Zn1238 2.032 . S
O1239 C1243 1.278 . S
C1240 O1241 1.203 . S
C1240 O1247 1.267 . S
O1241 C1240 1.203 . S
O1242 C1235 1.185 . S
O1242 Zn1238 2.086 . S
C1243 O1239 1.278 . S
C1243 O1244 1.211 1_565 S
O1244 C1243 1.211 1_545 S
C1245 O1237 1.284 . S
C1245 O1246 1.273 . S
O1246 C1245 1.273 . S
O1247 Zn1238 1.977 1_545 S
O1247 C1240 1.267 . S
C335 C10 0.668 . S
C23 C972 1.535 1_655 S
C361 C36 1.422 . S
C946 C49 1.697 . S
C413 C62 1.002 . S
C998 C75 1.461 . S
C387 C88 1.141 . S
C101 C1024 1.398 . S
C1232 C114 0.668 . S
C1154 C127 1.697 . S
C1245 C140 1.389 . S
C1219 C153 1.308 . S
C166 C1180 1.422 . S
C179 C569 2.112 . S
C582 C192 1.002 . S
C205 C543 1.398 . S
C1115 C218 0.668 . S
C465 C231 1.389 . S
C1050 C244 1.697 . S
C439 C257 1.422 . S
C270 C452 1.398 . S
C1141 C283 1.351 . S
C296 C1102 2.112 . S
C1128 C309 1.461 . S
C21 C320 0.929 . S
C658 C333 1.169 . S
C47 C346 0.861 . S
C359 C632 1.002 . S
C99 C372 0.775 . S
C385 C684 0.969 . S
C73 C398 0.985 . S
C411 C710 0.738 . S
C918 C424 0.929 . S
C437 C840 1.002 . S
C450 C931 0.994 . S
C905 C463 0.972 . S
C866 C476 0.799 . S
C489 C255 0.758 . S
C268 C502 0.775 . S
C229 C515 0.738 . S
C801 C528 0.929 . S
C151 C541 0.994 . S
C736 C554 1.002 . S
C567 C125 0.861 . S
C580 C138 0.738 . S
C827 C593 0.730 . S
C788 C606 0.758 . S
C814 C619 0.969 . S
C959 C634 1.558 . S
C647 C348 2.112 . S
C660 C985 1.422 . S
C673 C322 1.348 . S
C686 C1037 1.351 . S
C374 C699 1.308 . S
C712 C1011 1.389 . S
C400 C725 1.331 . S
C738 C608 1.558 . S
C530 C751 1.348 . S
C621 C764 1.141 . S
C777 C595 1.461 . S
C556 C790 1.422 . S
C1193 C803 1.535 1_554 S
C1206 C816 1.351 . S
C1167 C829 1.331 . S
C491 C842 1.558 . S
C1089 C855 1.141 . S
C868 C426 1.348 . S
C881 C1063 1.422 . S
C1076 C894 1.331 . S
C907 C517 1.002 . S
C478 C920 1.535 1_545 S
C504 C933 1.308 . S
C944 C645 1.422 . S
C34 C957 0.758 . S
C970 C671 0.799 . S
C8 C983 1.247 . S
C996 C723 0.730 . S
C1009 C60 0.972 . S
C1022 C697 0.994 . S
C86 C1035 0.691 . S
C1048 C294 1.422 . S
C216 C1061 1.247 . S
C1074 C307 0.985 . S
C281 C1087 0.969 . S
C1100 C242 0.861 . S
C1113 C879 1.169 . S
C1126 C892 0.730 . S
C1139 C853 0.691 . S
C1152 C177 1.422 . S
C775 C1165 0.985 . S
C1178 C112 1.247 . S
C749 C1191 0.799 . S
C1204 C762 0.691 . S
C203 C1217 0.775 . S
C1230 C164 1.169 . S
C1243 C190 0.972 . S
C655 C5 1.813 1_455 S
C668 C18 2.394 . S
C629 C31 2.221 . S
C642 C44 2.544 1_554 S
C57 C707 1.964 . S
C720 C70 2.287 . S
C83 C681 1.703 . S
C694 C96 2.300 . S
C109 C161 1.813 1_565 S
C174 C122 2.544 1_545 S
C135 C187 1.964 . S
C200 C148 2.300 . S
C213 C876 1.813 1_556 S
C902 C226 1.964 . S
C239 C291 2.544 1_655 S
C837 C252 2.221 . S
C265 C928 2.300 . S
C850 C278 1.703 . S
C304 C889 2.287 . S
C967 C317 2.336 . S
C330 C980 1.395 . S
C941 C343 0.610 . S
C356 C954 2.266 . S
C1019 C369 2.216 . S
C1032 C382 1.775 . S
C993 C395 2.235 . S
C408 C1006 1.418 . S
C421 C473 2.336 . S
C486 C434 2.266 . S
C447 C499 2.216 . S
C460 C512 1.418 . S
C525 C1188 2.336 . S
C1214 C538 2.216 . S
C603 C551 2.266 . S
C1149 C564 0.610 . S
C577 C1240 1.418 . S
C590 C1162 2.235 . S
C1201 C616 1.775 . S
C733 C785 2.221 . S
C746 C798 2.394 . S
C759 C811 1.703 . S
C824 C772 2.287 . S
C915 C863 2.394 . S
C1045 C1097 0.610 . S
C1058 C1110 1.395 . S
C1123 C1071 2.235 . S
C1084 C1136 1.775 . S
C1227 C1175 1.395 . S
C0 C286 2.035 . S
C13 C832 2.005 . S
C299 C26 2.677 . S
C39 C897 2.773 1_556 S
C52 C234 2.773 1_455 S
C65 C247 2.677 . S
C78 C884 2.395 . S
C221 C91 2.942 1_556 S
C104 C169 2.035 . S
C117 C182 2.773 1_565 S
C130 C195 2.942 1_565 S
C156 C143 1.975 . S
C637 C208 2.035 . S
C702 C260 2.942 1_655 S
C273 C663 3.001 . S
C312 C598 2.070 . S
C1144 C325 2.367 . S
C338 C611 2.258 . S
C351 C1209 2.169 . S
C364 C546 2.169 . S
C377 C559 2.258 . S
C390 C1196 2.018 . S
C403 C533 2.694 . S
C481 C416 2.070 . S
C429 C494 2.169 . S
C507 C442 2.694 . S
C468 C455 2.711 . S
C949 C520 2.070 . S
C572 C1014 2.694 . S
C975 C585 2.597 . S
C910 C624 2.005 . S
C923 C650 1.975 . S
C676 C858 3.001 . S
C871 C689 1.975 . S
C715 C845 2.395 . S
C728 C793 2.005 . S
C741 C806 3.001 . S
C754 C819 2.395 . S
C780 C767 2.677 . S
C1222 C936 2.367 . S
C962 C1235 2.711 . S
C1170 C988 2.597 . S
C1001 C1183 2.711 . S
C1157 C1027 2.018 . S
C1105 C1040 2.367 . S
C1053 C1118 2.597 . S
C1066 C1131 2.018 . S
C1079 C1092 2.258 . S
