# Generated by pormake.
# Topology umw, (4)-cn, num edge types: 1
# Building blocks:
#     Node 0, Type 0, BuildingBlock: NAHDIM_clean_sbu_0, # of connection points: 4
#     Node 1, Type 0, BuildingBlock: NAHDIM_clean_sbu_0, # of connection points: 4
#     Node 2, Type 0, BuildingBlock: NAHDIM_clean_sbu_0, # of connection points: 4
#     Node 3, Type 0, BuildingBlock: NAHDIM_clean_sbu_0, # of connection points: 4
#     Node 4, Type 0, BuildingBlock: NAHDIM_clean_sbu_0, # of connection points: 4
#     Node 5, Type 0, BuildingBlock: NAHDIM_clean_sbu_0, # of connection points: 4
#     Node 6, Type 0, BuildingBlock: NAHDIM_clean_sbu_0, # of connection points: 4
#     Node 7, Type 0, BuildingBlock: NAHDIM_clean_sbu_0, # of connection points: 4
#     Edge 8, Type (0, 0), BuildingBlock: CIFDUS_clean_linker_0, # of connection points: 2
#     Edge 9, Type (0, 0), BuildingBlock: CIFDUS_clean_linker_0, # of connection points: 2
#     Edge 10, Type (0, 0), BuildingBlock: CIFDUS_clean_linker_0, # of connection points: 2
#     Edge 11, Type (0, 0), BuildingBlock: CIFDUS_clean_linker_0, # of connection points: 2
#     Edge 12, Type (0, 0), BuildingBlock: CIFDUS_clean_linker_0, # of connection points: 2
#     Edge 13, Type (0, 0), BuildingBlock: CIFDUS_clean_linker_0, # of connection points: 2
#     Edge 14, Type (0, 0), BuildingBlock: CIFDUS_clean_linker_0, # of connection points: 2
#     Edge 15, Type (0, 0), BuildingBlock: CIFDUS_clean_linker_0, # of connection points: 2
#     Edge 16, Type (0, 0), BuildingBlock: CIFDUS_clean_linker_0, # of connection points: 2
#     Edge 17, Type (0, 0), BuildingBlock: CIFDUS_clean_linker_0, # of connection points: 2
#     Edge 18, Type (0, 0), BuildingBlock: CIFDUS_clean_linker_0, # of connection points: 2
#     Edge 19, Type (0, 0), BuildingBlock: CIFDUS_clean_linker_0, # of connection points: 2
#     Edge 20, Type (0, 0), BuildingBlock: CIFDUS_clean_linker_0, # of connection points: 2
#     Edge 21, Type (0, 0), BuildingBlock: CIFDUS_clean_linker_0, # of connection points: 2
#     Edge 22, Type (0, 0), BuildingBlock: CIFDUS_clean_linker_0, # of connection points: 2
#     Edge 23, Type (0, 0), BuildingBlock: CIFDUS_clean_linker_0, # of connection points: 2
# Relax obj value: 0.143
# Max RMSD: 0.106
# Mean RMSD: 0.106
data_MOF--net-umw--node1-NAHDIM_clean_sbu_0--edge1-CIFDUS_clean_linker_0
_symmetry_space_group_name_H-M    P1
_symmetry_Int_Tables_number       1
_symmetry_cell_setting            triclinic
loop_
_symmetry_equiv_pos_as_xyz
'x, y, z'
_cell_length_a     38.83712
_cell_length_b     38.829239
_cell_length_c     20.618518
_cell_angle_alpha  90.110316
_cell_angle_beta   89.97322
_cell_angle_gamma 89.991166
loop_
_atom_site_label
_atom_site_type_symbol
_atom_site_fract_x
_atom_site_fract_y
_atom_site_fract_z
_atom_type_partial_charge
C0 C 0.35804 0.23218 0.28806 0.0
O1 O 0.39009 0.2395 0.27302 0.0
O2 O 0.40461 0.16953 0.17748 0.0
Zn3 Zn 0.38257 0.16415 0.26633 0.0
O4 O 0.41745 0.16652 0.33764 0.0
C5 C 0.35426 0.09557 0.23447 0.0
O6 O 0.36019 0.10309 0.17338 0.0
O7 O 0.348 0.20109 0.28525 0.0
C8 C 0.44447 0.14814 0.33861 0.0
O9 O 0.45168 0.12795 0.28924 0.0
C10 C 0.43441 0.1826 0.17014 0.0
O11 O 0.45118 0.19418 0.22097 0.0
O12 O 0.36076 0.11779 0.278 0.0
C13 C 0.74865 0.36475 0.55797 0.0
O14 O 0.74091 0.39704 0.54581 0.0
O15 O 0.80747 0.41338 0.44618 0.0
Zn16 Zn 0.81528 0.39082 0.53298 0.0
O17 O 0.8113 0.42657 0.60262 0.0
C18 C 0.8851 0.36874 0.49594 0.0
O19 O 0.87655 0.37779 0.43673 0.0
O20 O 0.77974 0.35499 0.55255 0.0
C21 C 0.82334 0.41927 0.65818 0.0
O22 O 0.83712 0.38879 0.66766 0.0
C23 C 0.82011 0.4432 0.4371 0.0
O24 O 0.83825 0.45751 0.48369 0.0
O25 O 0.86295 0.37108 0.54103 0.0
C26 C 0.62563 0.74721 0.79945 0.0
O27 O 0.59346 0.73892 0.78733 0.0
O28 O 0.57764 0.80746 0.68577 0.0
Zn29 Zn 0.60032 0.81475 0.77291 0.0
O30 O 0.5646 0.81209 0.84365 0.0
C31 C 0.62417 0.88367 0.7352 0.0
O32 O 0.61244 0.87597 0.67721 0.0
O33 O 0.63509 0.77832 0.79291 0.0
C34 C 0.55644 0.83857 0.87661 0.0
O35 O 0.57043 0.86839 0.86241 0.0
C36 C 0.54738 0.81904 0.67671 0.0
O37 O 0.53199 0.83573 0.72402 0.0
O38 O 0.62304 0.86114 0.77965 0.0
C39 C 0.23854 0.62505 0.04912 0.0
O40 O 0.24785 0.59305 0.06004 0.0
O41 O 0.17895 0.56477 0.93306 0.0
Zn42 Zn 0.17574 0.59165 0.01639 0.0
O43 O 0.18466 0.559 0.0891 0.0
C44 C 0.10632 0.62034 0.99143 0.0
O45 O 0.11505 0.62252 0.93001 0.0
O46 O 0.20904 0.63088 0.02489 0.0
C47 C 0.17785 0.56931 0.14616 0.0
O48 O 0.16653 0.60088 0.15478 0.0
C49 C 0.1571 0.54056 0.92718 0.0
O50 O 0.13396 0.53628 0.973 0.0
O51 O 0.12785 0.60885 0.03228 0.0
C52 C 0.36238 0.75675 0.23265 0.0
O53 O 0.39479 0.75243 0.24887 0.0
O54 O 0.39932 0.82414 0.3504 0.0
Zn55 Zn 0.37932 0.82659 0.25981 0.0
O56 O 0.41749 0.82677 0.19487 0.0
C57 C 0.34969 0.89411 0.28758 0.0
O58 O 0.35807 0.88738 0.34797 0.0
O59 O 0.34908 0.78656 0.23714 0.0
C60 C 0.43541 0.85381 0.18739 0.0
O61 O 0.42966 0.88056 0.22501 0.0
C62 C 0.42943 0.81214 0.35947 0.0
O63 O 0.44665 0.79979 0.30977 0.0
O64 O 0.35447 0.87121 0.24448 0.0
C65 C 0.22072 0.35401 0.46232 0.0
O66 O 0.22807 0.38657 0.45219 0.0
O67 O 0.16449 0.40405 0.60222 0.0
Zn68 Zn 0.15923 0.38443 0.51214 0.0
O69 O 0.16709 0.42292 0.44984 0.0
C70 C 0.0883 0.3623 0.53774 0.0
O71 O 0.09705 0.36321 0.59927 0.0
O72 O 0.1927 0.34634 0.49083 0.0
C73 C 0.15402 0.4525 0.45887 0.0
O74 O 0.13512 0.4581 0.51071 0.0
C75 C 0.18988 0.42381 0.61392 0.0
O76 O 0.21355 0.42796 0.56909 0.0
O77 O 0.11074 0.36911 0.49486 0.0
C78 C 0.62944 0.21991 0.71548 0.0
O79 O 0.59667 0.22786 0.7103 0.0
O80 O 0.57853 0.16251 0.84266 0.0
Zn81 Zn 0.59983 0.15631 0.75351 0.0
O82 O 0.56498 0.16168 0.68262 0.0
C83 C 0.62558 0.08626 0.7825 0.0
O84 O 0.62438 0.09475 0.84418 0.0
O85 O 0.63768 0.1903 0.73654 0.0
C86 C 0.53579 0.14701 0.68317 0.0
O87 O 0.52627 0.12895 0.73391 0.0
C88 C 0.55089 0.17952 0.85135 0.0
O89 O 0.5361 0.19467 0.80176 0.0
O90 O 0.61747 0.10837 0.73993 0.0
C91 C 0.76982 0.63481 0.97535 0.0
O92 O 0.76331 0.6017 0.97051 0.0
O93 O 0.82994 0.59063 0.11228 0.0
Zn94 Zn 0.83405 0.6089 0.02093 0.0
O95 O 0.82918 0.56987 0.95829 0.0
C96 C 0.90451 0.62979 0.04758 0.0
O97 O 0.89686 0.62157 0.10766 0.0
O98 O 0.79843 0.64449 -0.00089 0.0
C99 C 0.84874 0.54375 0.96189 0.0
O100 O 0.8717 0.54209 0.00858 0.0
C101 C 0.81197 0.56402 0.1244 0.0
O102 O 0.79388 0.54992 0.07753 0.0
O103 O 0.88133 0.62782 0.00434 0.0
H104 H 0.42379 0.15332 0.46291 0.0
H105 H 0.51425 0.14269 0.34326 0.0
H106 H 0.55084 0.14325 0.44009 0.0
H107 H 0.55673 0.1461 0.5587 0.0
H108 H 0.46589 0.15058 0.67866 0.0
H109 H 0.42949 0.15311 0.58168 0.0
C110 C 0.45154 0.1513 0.45824 0.0
C111 C 0.46652 0.14833 0.39647 0.0
C112 C 0.47214 0.15049 0.51399 0.0
C113 C 0.50234 0.14503 0.3906 0.0
C114 C 0.52317 0.14541 0.44579 0.0
C115 C 0.52896 0.14782 0.5634 0.0
C116 C 0.51384 0.14855 0.62527 0.0
C117 C 0.50832 0.14807 0.50768 0.0
C118 C 0.4779 0.15005 0.63124 0.0
C119 C 0.45719 0.15153 0.57595 0.0
H120 H 0.85759 0.41638 0.77266 0.0
H121 H 0.78872 0.48039 0.66114 0.0
H122 H 0.78962 0.52397 0.74661 0.0
H123 H 0.81101 0.54443 0.85136 0.0
H124 H 0.88143 0.48143 0.9615 0.0
H125 H 0.87878 0.43678 0.878 0.0
C126 C 0.84262 0.43977 0.76719 0.0
C127 C 0.82311 0.44514 0.71069 0.0
C128 C 0.84359 0.46489 0.8161 0.0
C129 C 0.80403 0.47568 0.70412 0.0
C130 C 0.80451 0.5006 0.75295 0.0
C131 C 0.82567 0.52087 0.85734 0.0
C132 C 0.84638 0.51625 0.91256 0.0
C133 C 0.82436 0.49555 0.80891 0.0
C134 C 0.86533 0.48565 0.91937 0.0
C135 C 0.86383 0.46011 0.87168 0.0
H136 H 0.452 0.80365 0.10096 0.0
H137 H 0.47509 0.90891 0.1533 0.0
H138 H 0.5143 0.91344 0.0612 0.0
H139 H 0.54118 0.88792 0.96511 0.0
H140 H 0.51841 0.7826 0.91292 0.0
H141 H 0.47966 0.7778 0.0058 0.0
C142 C 0.46571 0.82756 0.09244 0.0
C143 C 0.46058 0.85592 0.13389 0.0
C144 C 0.48807 0.83005 0.0393 0.0
C145 C 0.47858 0.88667 0.12218 0.0
C146 C 0.50094 0.88933 0.06943 0.0
C147 C 0.52769 0.86392 0.97388 0.0
C148 C 0.53256 0.83571 0.93203 0.0
C149 C 0.50568 0.86127 0.02748 0.0
C150 C 0.51507 0.80473 0.94437 0.0
C151 C 0.49294 0.80195 -0.00252 0.0
H152 H 0.18723 0.44676 0.34387 0.0
H153 H 0.13108 0.51906 0.46314 0.0
H154 H 0.13573 0.56258 0.37815 0.0
H155 H 0.15282 0.5788 0.26776 0.0
H156 H 0.20711 0.50551 0.14759 0.0
H157 H 0.20627 0.46366 0.23567 0.0
C158 C 0.17616 0.4721 0.35156 0.0
C159 C 0.15861 0.47959 0.40954 0.0
C160 C 0.17853 0.49676 0.30233 0.0
C161 C 0.14455 0.51258 0.41876 0.0
C162 C 0.14719 0.53747 0.37021 0.0
C163 C 0.16477 0.5538 0.26105 0.0
C164 C 0.17984 0.5452 0.20117 0.0
C165 C 0.16369 0.52966 0.31147 0.0
C166 C 0.19515 0.51268 0.19314 0.0
C167 C 0.19467 0.48872 0.24342 0.0
H168 H 0.29764 0.22316 0.35241 0.0
H169 H 0.36748 0.30172 0.28447 0.0
H170 H 0.33148 0.34621 0.33378 0.0
H171 H 0.28065 0.3627 0.39681 0.0
H172 H 0.21121 0.28419 0.46654 0.0
H173 H 0.24691 0.23969 0.41639 0.0
C174 C 0.30485 0.25004 0.34793 0.0
C175 C 0.33512 0.25913 0.31454 0.0
C176 C 0.28433 0.27543 0.37722 0.0
C177 C 0.34429 0.29404 0.30983 0.0
C178 C 0.32378 0.31948 0.33814 0.0
C179 C 0.27334 0.33586 0.40134 0.0
C180 C 0.24329 0.32682 0.43542 0.0
C181 C 0.29387 0.31045 0.37224 0.0
C182 C 0.23425 0.29188 0.44073 0.0
C183 C 0.25458 0.26642 0.41185 0.0
H184 H 0.75855 0.30181 0.61234 0.0
H185 H 0.67914 0.37465 0.56107 0.0
H186 H 0.63541 0.33666 0.60696 0.0
H187 H 0.61975 0.28295 0.6617 0.0
H188 H 0.6992 0.21036 0.71417 0.0
H189 H 0.74293 0.24833 0.66827 0.0
C190 C 0.73166 0.30929 0.61081 0.0
C191 C 0.72211 0.34095 0.58303 0.0
C192 C 0.70669 0.28754 0.63796 0.0
C193 C 0.68719 0.3504 0.58206 0.0
C194 C 0.66216 0.32873 0.60842 0.0
C195 C 0.64664 0.27546 0.66342 0.0
C196 C 0.65615 0.24384 0.69134 0.0
C197 C 0.67164 0.29731 0.63668 0.0
C198 C 0.69114 0.23458 0.69307 0.0
C199 C 0.71618 0.25622 0.66663 0.0
H200 H 0.70858 0.62219 0.91611 0.0
H201 H 0.77713 0.70475 0.97139 0.0
H202 H 0.73917 0.7465 0.9196 0.0
H203 H 0.68689 0.75956 0.8581 0.0
H204 H 0.61763 0.67738 0.80444 0.0
H205 H 0.65579 0.6354 0.85564 0.0
C206 C 0.71516 0.64933 0.91714 0.0
C207 C 0.74568 0.66029 0.9476 0.0
C208 C 0.69328 0.67322 0.88708 0.0
C209 C 0.75379 0.69557 0.94841 0.0
C210 C 0.73216 0.71948 0.91859 0.0
C211 C 0.68023 0.73244 0.85714 0.0
C212 C 0.64956 0.72158 0.82718 0.0
C213 C 0.70197 0.70856 0.88748 0.0
C214 C 0.64113 0.68639 0.82707 0.0
C215 C 0.66289 0.66239 0.85647 0.0
H216 H 0.29882 0.62086 0.11545 0.0
H217 H 0.22501 0.69398 0.04103 0.0
H218 H 0.25631 0.74101 0.09299 0.0
H219 H 0.30361 0.76118 0.16199 0.0
H220 H 0.37786 0.68826 0.23524 0.0
H221 H 0.34708 0.64123 0.18183 0.0
C222 C 0.28972 0.6471 0.11003 0.0
C223 C 0.25957 0.65384 0.07446 0.0
C224 C 0.30764 0.674 0.14052 0.0
C225 C 0.24816 0.68803 0.06806 0.0
C226 C 0.26594 0.71495 0.09805 0.0
C227 C 0.31294 0.73497 0.16667 0.0
C228 C 0.34281 0.72817 0.20297 0.0
C229 C 0.29544 0.70817 0.13505 0.0
C230 C 0.35485 0.69414 0.20775 0.0
C231 C 0.33733 0.66726 0.17708 0.0
H232 H 0.34113 0.95024 0.36504 0.0
H233 H 0.34064 0.91831 0.16434 0.0
H234 H 0.33822 0.97827 0.12989 0.0
H235 H 0.34354 0.03975 0.1565 0.0
H236 H 0.34491 0.07142 0.35739 0.0
H237 H 0.33934 0.01173 0.39164 0.0
C238 C 0.33991 0.95634 0.31378 0.0
C239 C 0.34164 0.9298 0.26747 0.0
C240 C 0.33905 0.99093 0.29414 0.0
C241 C 0.33965 0.93821 0.20119 0.0
C242 C 0.33841 0.97254 0.18132 0.0
C243 C 0.34209 0.03366 0.20774 0.0
C244 C 0.34526 0.06003 0.25417 0.0
C245 C 0.33926 -0.00086 0.22733 0.0
C246 C 0.34295 0.05165 0.32044 0.0
C247 C 0.33982 0.01746 0.34022 0.0
H248 H 0.94016 0.36586 0.41424 0.0
H249 H 0.91145 0.35333 0.61518 0.0
H250 H 0.97181 0.34724 0.64521 0.0
H251 H 0.03297 0.35081 0.61603 0.0
H252 H 0.06167 0.3641 0.41527 0.0
H253 H 0.00121 0.3642 0.38381 0.0
C254 C 0.94705 0.36137 0.46448 0.0
C255 C 0.92128 0.36049 0.51235 0.0
C256 C 0.9819 0.35825 0.48168 0.0
C257 C 0.93072 0.35439 0.57724 0.0
C258 C 0.96529 0.35098 0.5946 0.0
C259 C 0.02604 0.35333 0.56531 0.0
C260 C 0.05186 0.35787 0.51831 0.0
C261 C 0.99114 0.35371 0.54746 0.0
C262 C 0.04236 0.36081 0.45268 0.0
C263 C 0.00774 0.36095 0.43454 0.0
H264 H 0.62659 0.93912 0.65485 0.0
H265 H 0.64067 0.9093 0.85473 0.0
H266 H 0.64552 0.96957 0.8865 0.0
H267 H 0.6396 0.03087 0.85931 0.0
H268 H 0.62501 0.06046 0.65938 0.0
H269 H 0.62689 0.00032 0.62616 0.0
C270 C 0.63123 0.94576 0.70522 0.0
C271 C 0.63275 0.91971 0.75232 0.0
C272 C 0.63362 0.98053 0.72342 0.0
C273 C 0.63911 0.9288 0.81736 0.0
C274 C 0.64178 0.96332 0.83573 0.0
C275 C 0.63729 0.02421 0.80839 0.0
C276 C 0.63164 0.05017 0.76219 0.0
C277 C 0.63809 0.98944 0.78945 0.0
C278 C 0.62904 0.04104 0.69625 0.0
C279 C 0.63005 0.00659 0.67706 0.0
H280 H 0.96106 0.62902 0.12496 0.0
H281 H 0.92932 0.64386 0.92632 0.0
H282 H 0.98939 0.64535 0.89183 0.0
H283 H 0.05072 0.63661 0.91662 0.0
H284 H 0.08189 0.62034 0.11528 0.0
H285 H 0.02237 0.62546 0.15094 0.0
C286 C 0.96724 0.63305 0.07423 0.0
C287 C 0.9407 0.63588 0.02829 0.0
C288 C 0.00181 0.63331 0.0545 0.0
C289 C 0.94923 0.64133 0.96276 0.0
C290 C 0.98361 0.64209 0.94288 0.0
C291 C 0.04454 0.63461 0.96778 0.0
C292 C 0.07071 0.62765 0.01297 0.0
C293 C 0.01009 0.63717 0.98809 0.0
C294 C 0.06225 0.62534 0.07921 0.0
C295 C 0.02817 0.62825 0.09978 0.0
H296 H 0.48285 0.18553 0.8778 0.0
H297 H 0.58213 0.17543 0.96943 0.0
H298 H 0.55483 0.17701 0.07643 0.0
H299 H 0.50264 0.18051 0.14372 0.0
H300 H 0.40301 0.18562 0.05196 0.0
H301 H 0.43046 0.18672 0.94505 0.0
C302 C 0.49848 0.18389 0.92127 0.0
C303 C 0.53445 0.1807 0.91592 0.0
C304 C 0.48253 0.18383 0.98243 0.0
C305 C 0.55439 0.17793 0.97246 0.0
C306 C 0.53881 0.17887 0.03356 0.0
C307 C 0.48698 0.18206 0.10028 0.0
C308 C 0.4509 0.1833 0.10557 0.0
C309 C 0.5029 0.18173 0.0391 0.0
C310 C 0.43084 0.18465 0.04898 0.0
C311 C 0.44653 0.18534 0.98794 0.0
H312 H 0.78524 0.50205 0.15945 0.0
H313 H 0.84445 0.58768 0.23328 0.0
H314 H 0.85171 0.55799 0.33663 0.0
H315 H 0.84282 0.50709 0.40479 0.0
H316 H 0.78441 0.42103 0.33053 0.0
H317 H 0.77539 0.45156 0.22848 0.0
C318 C 0.7995 0.51438 0.19828 0.0
C319 C 0.81426 0.54707 0.18854 0.0
C320 C 0.80394 0.49699 0.25736 0.0
C321 C 0.83281 0.56254 0.23938 0.0
C322 C 0.83705 0.54554 0.29849 0.0
C323 C 0.82807 0.49497 0.36636 0.0
C324 C 0.81442 0.46175 0.37532 0.0
C325 C 0.82302 0.51263 0.30778 0.0
C326 C 0.7953 0.44653 0.32496 0.0
C327 C 0.79009 0.46399 0.26657 0.0
H328 H 0.48196 0.83757 0.64532 0.0
H329 H 0.57299 0.78924 0.56647 0.0
H330 H 0.54407 0.7819 0.46222 0.0
H331 H 0.49349 0.79028 0.39287 0.0
H332 H 0.40251 0.83879 0.47152 0.0
H333 H 0.43089 0.84477 0.57661 0.0
C334 C 0.49552 0.82539 0.6054 0.0
C335 C 0.52967 0.81409 0.61374 0.0
C336 C 0.47874 0.82123 0.54557 0.0
C337 C 0.54673 0.79823 0.56146 0.0
C338 C 0.53021 0.79402 0.50178 0.0
C339 C 0.47976 0.80203 0.43302 0.0
C340 C 0.44591 0.81412 0.42417 0.0
C341 C 0.49628 0.80556 0.49322 0.0
C342 C 0.42855 0.82924 0.47687 0.0
C343 C 0.4448 0.83274 0.537 0.0
H344 H 0.20829 0.53338 0.83775 0.0
H345 H 0.1088 0.49319 0.89231 0.0
H346 H 0.11092 0.45234 0.8024 0.0
H347 H 0.14045 0.42863 0.70716 0.0
H348 H 0.24006 0.46857 0.65255 0.0
H349 H 0.23858 0.50853 0.74399 0.0
C350 C 0.18702 0.51577 0.82982 0.0
C351 C 0.15837 0.51649 0.87152 0.0
C352 C 0.18851 0.49208 0.77827 0.0
C353 C 0.13117 0.49324 0.86093 0.0
C354 C 0.13236 0.46981 0.80955 0.0
C355 C 0.162 0.44584 0.71556 0.0
C356 C 0.19029 0.44558 0.67294 0.0
C357 C 0.16088 0.469 0.7679 0.0
C358 C 0.21793 0.46818 0.68453 0.0
C359 C 0.21707 0.49116 0.73671 0.0
loop_
_geom_bond_atom_site_label_1
_geom_bond_atom_site_label_2
_geom_bond_distance
_geom_bond_site_symmetry_2
_ccdc_geom_bond_type
C0 O1 1.160 . S
C0 O7 1.185 . S
O1 C0 1.160 . S
O2 Zn3 1.899 . S
O2 C10 1.284 . S
Zn3 O2 1.899 . S
Zn3 O4 2.032 . S
Zn3 O7 2.086 . S
Zn3 O12 1.977 . S
O4 Zn3 2.032 . S
O4 C8 1.278 . S
C5 O6 1.203 . S
C5 O12 1.267 . S
O6 C5 1.203 . S
O7 C0 1.185 . S
O7 Zn3 2.086 . S
C8 O4 1.278 . S
C8 O9 1.211 . S
O9 C8 1.211 . S
C10 O2 1.284 . S
C10 O11 1.273 . S
O11 C10 1.273 . S
O12 Zn3 1.977 . S
O12 C5 1.267 . S
C13 O14 1.160 . S
C13 O20 1.185 . S
O14 C13 1.160 . S
O15 Zn16 1.899 . S
O15 C23 1.284 . S
Zn16 O15 1.899 . S
Zn16 O17 2.032 . S
Zn16 O20 2.086 . S
Zn16 O25 1.977 . S
O17 Zn16 2.032 . S
O17 C21 1.278 . S
C18 O19 1.203 . S
C18 O25 1.267 . S
O19 C18 1.203 . S
O20 C13 1.185 . S
O20 Zn16 2.086 . S
C21 O17 1.278 . S
C21 O22 1.211 . S
O22 C21 1.211 . S
C23 O15 1.284 . S
C23 O24 1.273 . S
O24 C23 1.273 . S
O25 Zn16 1.977 . S
O25 C18 1.267 . S
C26 O27 1.160 . S
C26 O33 1.185 . S
O27 C26 1.160 . S
O28 Zn29 1.899 . S
O28 C36 1.284 . S
Zn29 O28 1.899 . S
Zn29 O30 2.032 . S
Zn29 O33 2.086 . S
Zn29 O38 1.977 . S
O30 Zn29 2.032 . S
O30 C34 1.278 . S
C31 O32 1.203 . S
C31 O38 1.267 . S
O32 C31 1.203 . S
O33 C26 1.185 . S
O33 Zn29 2.086 . S
C34 O30 1.278 . S
C34 O35 1.211 . S
O35 C34 1.211 . S
C36 O28 1.284 . S
C36 O37 1.273 . S
O37 C36 1.273 . S
O38 Zn29 1.977 . S
O38 C31 1.267 . S
C39 O40 1.160 . S
C39 O46 1.185 . S
O40 C39 1.160 . S
O41 Zn42 1.899 1_556 S
O41 C49 1.284 . S
Zn42 O41 1.899 1_554 S
Zn42 O43 2.032 . S
Zn42 O46 2.086 . S
Zn42 O51 1.977 . S
O43 Zn42 2.032 . S
O43 C47 1.278 . S
C44 O45 1.203 1_554 S
C44 O51 1.267 . S
O45 C44 1.203 1_556 S
O46 C39 1.185 . S
O46 Zn42 2.086 . S
C47 O43 1.278 . S
C47 O48 1.211 . S
O48 C47 1.211 . S
C49 O41 1.284 . S
C49 O50 1.273 . S
O50 C49 1.273 . S
O51 Zn42 1.977 . S
O51 C44 1.267 . S
C52 O53 1.160 . S
C52 O59 1.185 . S
O53 C52 1.160 . S
O54 Zn55 1.899 . S
O54 C62 1.284 . S
Zn55 O54 1.899 . S
Zn55 O56 2.032 . S
Zn55 O59 2.086 . S
Zn55 O64 1.977 . S
O56 Zn55 2.032 . S
O56 C60 1.278 . S
C57 O58 1.203 . S
C57 O64 1.267 . S
O58 C57 1.203 . S
O59 C52 1.185 . S
O59 Zn55 2.086 . S
C60 O56 1.278 . S
C60 O61 1.211 . S
O61 C60 1.211 . S
C62 O54 1.284 . S
C62 O63 1.273 . S
O63 C62 1.273 . S
O64 Zn55 1.977 . S
O64 C57 1.267 . S
C65 O66 1.160 . S
C65 O72 1.185 . S
O66 C65 1.160 . S
O67 Zn68 1.899 . S
O67 C75 1.284 . S
Zn68 O67 1.899 . S
Zn68 O69 2.032 . S
Zn68 O72 2.086 . S
Zn68 O77 1.977 . S
O69 Zn68 2.032 . S
O69 C73 1.278 . S
C70 O71 1.203 . S
C70 O77 1.267 . S
O71 C70 1.203 . S
O72 C65 1.185 . S
O72 Zn68 2.086 . S
C73 O69 1.278 . S
C73 O74 1.211 . S
O74 C73 1.211 . S
C75 O67 1.284 . S
C75 O76 1.273 . S
O76 C75 1.273 . S
O77 Zn68 1.977 . S
O77 C70 1.267 . S
C78 O79 1.160 . S
C78 O85 1.185 . S
O79 C78 1.160 . S
O80 Zn81 1.899 . S
O80 C88 1.284 . S
Zn81 O80 1.899 . S
Zn81 O82 2.032 . S
Zn81 O85 2.086 . S
Zn81 O90 1.977 . S
O82 Zn81 2.032 . S
O82 C86 1.278 . S
C83 O84 1.203 . S
C83 O90 1.267 . S
O84 C83 1.203 . S
O85 C78 1.185 . S
O85 Zn81 2.086 . S
C86 O82 1.278 . S
C86 O87 1.211 . S
O87 C86 1.211 . S
C88 O80 1.284 . S
C88 O89 1.273 . S
O89 C88 1.273 . S
O90 Zn81 1.977 . S
O90 C83 1.267 . S
C91 O92 1.153 1_556 S
C91 O98 1.188 . S
O92 C91 1.153 1_554 S
O93 Zn94 1.899 . S
O93 C101 1.284 . S
Zn94 O93 1.899 . S
Zn94 O95 2.032 1_554 S
Zn94 O98 2.086 1_554 S
Zn94 O103 1.977 . S
O95 Zn94 2.032 1_556 S
O95 C99 1.278 . S
C96 O97 1.203 . S
C96 O103 1.267 . S
O97 C96 1.203 . S
O98 C91 1.188 . S
O98 Zn94 2.086 1_556 S
C99 O95 1.278 . S
C99 O100 1.211 . S
O100 C99 1.211 . S
C101 O93 1.284 . S
C101 O102 1.273 . S
O102 C101 1.273 . S
O103 Zn94 1.977 . S
O103 C96 1.267 . S
H104 C110 0.930 . S
H105 C113 0.930 . S
H106 C114 0.930 . S
H107 C115 0.930 . S
H108 C118 0.930 . S
H109 C119 0.930 . S
C110 H104 0.930 . S
C110 C111 1.355 . S
C110 C112 1.415 . S
C111 C110 1.355 . S
C111 C113 1.419 . S
C112 C110 1.415 . S
C112 C117 1.425 . S
C112 C119 1.409 . S
C113 H105 0.930 . S
C113 C111 1.419 . S
C113 C114 1.362 . S
C114 H106 0.930 . S
C114 C113 1.362 . S
C114 C117 1.409 . S
C115 H107 0.930 . S
C115 C116 1.355 . S
C115 C117 1.415 . S
C116 C115 1.355 . S
C116 C118 1.419 . S
C117 C112 1.425 . S
C117 C114 1.409 . S
C117 C115 1.415 . S
C118 H108 0.930 . S
C118 C116 1.419 . S
C118 C119 1.362 . S
C119 H109 0.930 . S
C119 C112 1.409 . S
C119 C118 1.362 . S
H120 C126 0.930 . S
H121 C129 0.930 . S
H122 C130 0.930 . S
H123 C131 0.930 . S
H124 C134 0.930 . S
H125 C135 0.930 . S
C126 H120 0.930 . S
C126 C127 1.355 . S
C126 C128 1.415 . S
C127 C126 1.355 . S
C127 C129 1.419 . S
C128 C126 1.415 . S
C128 C133 1.425 . S
C128 C135 1.409 . S
C129 H121 0.930 . S
C129 C127 1.419 . S
C129 C130 1.362 . S
C130 H122 0.930 . S
C130 C129 1.362 . S
C130 C133 1.409 . S
C131 H123 0.930 . S
C131 C132 1.355 . S
C131 C133 1.415 . S
C132 C131 1.355 . S
C132 C134 1.419 . S
C133 C128 1.425 . S
C133 C130 1.409 . S
C133 C131 1.415 . S
C134 H124 0.930 . S
C134 C132 1.419 . S
C134 C135 1.362 . S
C135 H125 0.930 . S
C135 C128 1.409 . S
C135 C134 1.362 . S
H136 C142 0.930 . S
H137 C145 0.930 . S
H138 C146 0.930 . S
H139 C147 0.930 . S
H140 C150 0.930 . S
H141 C151 0.930 . S
C142 H136 0.930 . S
C142 C143 1.355 . S
C142 C144 1.415 . S
C143 C142 1.355 . S
C143 C145 1.419 . S
C144 C142 1.415 . S
C144 C149 1.425 . S
C144 C151 1.409 . S
C145 H137 0.930 . S
C145 C143 1.419 . S
C145 C146 1.362 . S
C146 H138 0.930 . S
C146 C145 1.362 . S
C146 C149 1.409 . S
C147 H139 0.930 . S
C147 C148 1.355 . S
C147 C149 1.415 1_556 S
C148 C147 1.355 . S
C148 C150 1.419 . S
C149 C144 1.425 . S
C149 C146 1.409 . S
C149 C147 1.415 1_554 S
C150 H140 0.930 . S
C150 C148 1.419 . S
C150 C151 1.362 1_556 S
C151 H141 0.930 . S
C151 C144 1.409 . S
C151 C150 1.362 1_554 S
H152 C158 0.930 . S
H153 C161 0.930 . S
H154 C162 0.930 . S
H155 C163 0.930 . S
H156 C166 0.930 . S
H157 C167 0.930 . S
C158 H152 0.930 . S
C158 C159 1.355 . S
C158 C160 1.415 . S
C159 C158 1.355 . S
C159 C161 1.419 . S
C160 C158 1.415 . S
C160 C165 1.425 . S
C160 C167 1.409 . S
C161 H153 0.930 . S
C161 C159 1.419 . S
C161 C162 1.362 . S
C162 H154 0.930 . S
C162 C161 1.362 . S
C162 C165 1.409 . S
C163 H155 0.930 . S
C163 C164 1.355 . S
C163 C165 1.415 . S
C164 C163 1.355 . S
C164 C166 1.419 . S
C165 C160 1.425 . S
C165 C162 1.409 . S
C165 C163 1.415 . S
C166 H156 0.930 . S
C166 C164 1.419 . S
C166 C167 1.362 . S
C167 H157 0.930 . S
C167 C160 1.409 . S
C167 C166 1.362 . S
H168 C174 0.930 . S
H169 C177 0.930 . S
H170 C178 0.930 . S
H171 C179 0.930 . S
H172 C182 0.930 . S
H173 C183 0.930 . S
C174 H168 0.930 . S
C174 C175 1.355 . S
C174 C176 1.415 . S
C175 C174 1.355 . S
C175 C177 1.419 . S
C176 C174 1.415 . S
C176 C181 1.425 . S
C176 C183 1.409 . S
C177 H169 0.930 . S
C177 C175 1.419 . S
C177 C178 1.362 . S
C178 H170 0.930 . S
C178 C177 1.362 . S
C178 C181 1.409 . S
C179 H171 0.930 . S
C179 C180 1.355 . S
C179 C181 1.415 . S
C180 C179 1.355 . S
C180 C182 1.419 . S
C181 C176 1.425 . S
C181 C178 1.409 . S
C181 C179 1.415 . S
C182 H172 0.930 . S
C182 C180 1.419 . S
C182 C183 1.362 . S
C183 H173 0.930 . S
C183 C176 1.409 . S
C183 C182 1.362 . S
H184 C190 0.930 . S
H185 C193 0.930 . S
H186 C194 0.930 . S
H187 C195 0.930 . S
H188 C198 0.930 . S
H189 C199 0.930 . S
C190 H184 0.930 . S
C190 C191 1.355 . S
C190 C192 1.415 . S
C191 C190 1.355 . S
C191 C193 1.419 . S
C192 C190 1.415 . S
C192 C197 1.425 . S
C192 C199 1.409 . S
C193 H185 0.930 . S
C193 C191 1.419 . S
C193 C194 1.362 . S
C194 H186 0.930 . S
C194 C193 1.362 . S
C194 C197 1.409 . S
C195 H187 0.930 . S
C195 C196 1.355 . S
C195 C197 1.415 . S
C196 C195 1.355 . S
C196 C198 1.419 . S
C197 C192 1.425 . S
C197 C194 1.409 . S
C197 C195 1.415 . S
C198 H188 0.930 . S
C198 C196 1.419 . S
C198 C199 1.362 . S
C199 H189 0.930 . S
C199 C192 1.409 . S
C199 C198 1.362 . S
H200 C206 0.930 1_554 S
H201 C209 0.930 . S
H202 C210 0.930 . S
H203 C211 0.930 . S
H204 C214 0.930 . S
H205 C215 0.930 . S
C206 H200 0.930 1_556 S
C206 C207 1.355 . S
C206 C208 1.415 . S
C207 C206 1.355 . S
C207 C209 1.419 . S
C208 C206 1.415 . S
C208 C213 1.425 . S
C208 C215 1.409 . S
C209 H201 0.930 . S
C209 C207 1.419 . S
C209 C210 1.362 . S
C210 H202 0.930 . S
C210 C209 1.362 . S
C210 C213 1.409 . S
C211 H203 0.930 . S
C211 C212 1.355 . S
C211 C213 1.415 . S
C212 C211 1.355 . S
C212 C214 1.419 . S
C213 C208 1.425 . S
C213 C210 1.409 . S
C213 C211 1.415 . S
C214 H204 0.930 . S
C214 C212 1.419 . S
C214 C215 1.362 . S
C215 H205 0.930 . S
C215 C208 1.409 . S
C215 C214 1.362 . S
H216 C222 0.930 . S
H217 C225 0.930 . S
H218 C226 0.930 . S
H219 C227 0.930 . S
H220 C230 0.930 . S
H221 C231 0.930 . S
C222 H216 0.930 . S
C222 C223 1.355 . S
C222 C224 1.415 . S
C223 C222 1.355 . S
C223 C225 1.419 . S
C224 C222 1.415 . S
C224 C229 1.425 . S
C224 C231 1.409 . S
C225 H217 0.930 . S
C225 C223 1.419 . S
C225 C226 1.362 . S
C226 H218 0.930 . S
C226 C225 1.362 . S
C226 C229 1.409 . S
C227 H219 0.930 . S
C227 C228 1.355 . S
C227 C229 1.415 . S
C228 C227 1.355 . S
C228 C230 1.419 . S
C229 C224 1.425 . S
C229 C226 1.409 . S
C229 C227 1.415 . S
C230 H220 0.930 . S
C230 C228 1.419 . S
C230 C231 1.362 . S
C231 H221 0.930 . S
C231 C224 1.409 . S
C231 C230 1.362 . S
H232 C238 0.930 . S
H233 C241 0.930 . S
H234 C242 0.930 . S
H235 C243 0.930 . S
H236 C246 0.930 . S
H237 C247 0.930 . S
C238 H232 0.930 . S
C238 C239 1.355 . S
C238 C240 1.415 . S
C239 C238 1.355 . S
C239 C241 1.419 . S
C240 C238 1.415 . S
C240 C245 1.425 1_565 S
C240 C247 1.409 1_565 S
C241 H233 0.930 . S
C241 C239 1.419 . S
C241 C242 1.362 . S
C242 H234 0.930 . S
C242 C241 1.362 . S
C242 C245 1.409 1_565 S
C243 H235 0.930 . S
C243 C244 1.355 . S
C243 C245 1.415 . S
C244 C243 1.355 . S
C244 C246 1.419 . S
C245 C240 1.425 1_545 S
C245 C242 1.409 1_545 S
C245 C243 1.415 . S
C246 H236 0.930 . S
C246 C244 1.419 . S
C246 C247 1.362 . S
C247 H237 0.930 . S
C247 C240 1.409 1_545 S
C247 C246 1.362 . S
H248 C254 0.930 . S
H249 C257 0.930 . S
H250 C258 0.930 . S
H251 C259 0.930 . S
H252 C262 0.930 . S
H253 C263 0.930 . S
C254 H248 0.930 . S
C254 C255 1.355 . S
C254 C256 1.415 . S
C255 C254 1.355 . S
C255 C257 1.419 . S
C256 C254 1.415 . S
C256 C261 1.425 1_655 S
C256 C263 1.409 1_655 S
C257 H249 0.930 . S
C257 C255 1.419 . S
C257 C258 1.362 . S
C258 H250 0.930 . S
C258 C257 1.362 . S
C258 C261 1.409 1_655 S
C259 H251 0.930 . S
C259 C260 1.355 . S
C259 C261 1.415 . S
C260 C259 1.355 . S
C260 C262 1.419 . S
C261 C256 1.425 1_455 S
C261 C258 1.409 1_455 S
C261 C259 1.415 . S
C262 H252 0.930 . S
C262 C260 1.419 . S
C262 C263 1.362 . S
C263 H253 0.930 . S
C263 C256 1.409 1_455 S
C263 C262 1.362 . S
H264 C270 0.930 . S
H265 C273 0.930 . S
H266 C274 0.930 . S
H267 C275 0.930 . S
H268 C278 0.930 . S
H269 C279 0.930 . S
C270 H264 0.930 . S
C270 C271 1.355 . S
C270 C272 1.415 . S
C271 C270 1.355 . S
C271 C273 1.419 . S
C272 C270 1.415 . S
C272 C277 1.425 1_565 S
C272 C279 1.409 1_565 S
C273 H265 0.930 . S
C273 C271 1.419 . S
C273 C274 1.362 . S
C274 H266 0.930 . S
C274 C273 1.362 . S
C274 C277 1.409 1_565 S
C275 H267 0.930 . S
C275 C276 1.355 . S
C275 C277 1.415 . S
C276 C275 1.355 . S
C276 C278 1.419 . S
C277 C272 1.425 1_545 S
C277 C274 1.409 1_545 S
C277 C275 1.415 . S
C278 H268 0.930 . S
C278 C276 1.419 . S
C278 C279 1.362 . S
C279 H269 0.930 . S
C279 C272 1.409 1_545 S
C279 C278 1.362 . S
H280 C286 0.930 . S
H281 C289 0.930 . S
H282 C290 0.930 . S
H283 C291 0.930 . S
H284 C294 0.930 . S
H285 C295 0.930 . S
C286 H280 0.930 . S
C286 C287 1.355 . S
C286 C288 1.415 . S
C287 C286 1.355 . S
C287 C289 1.419 1_554 S
C288 C286 1.415 . S
C288 C293 1.425 1_654 S
C288 C295 1.409 1_655 S
C289 H281 0.930 . S
C289 C287 1.419 1_556 S
C289 C290 1.362 . S
C290 H282 0.930 . S
C290 C289 1.362 . S
C290 C293 1.409 1_655 S
C291 H283 0.930 . S
C291 C292 1.355 1_556 S
C291 C293 1.415 . S
C292 C291 1.355 1_554 S
C292 C294 1.419 . S
C293 C288 1.425 1_456 S
C293 C290 1.409 1_455 S
C293 C291 1.415 . S
C294 H284 0.930 . S
C294 C292 1.419 . S
C294 C295 1.362 . S
C295 H285 0.930 . S
C295 C288 1.409 1_455 S
C295 C294 1.362 . S
H296 C302 0.930 . S
H297 C305 0.930 . S
H298 C306 0.930 . S
H299 C307 0.930 . S
H300 C310 0.930 . S
H301 C311 0.930 1_556 S
C302 H296 0.930 . S
C302 C303 1.355 . S
C302 C304 1.415 . S
C303 C302 1.355 . S
C303 C305 1.419 . S
C304 C302 1.415 . S
C304 C309 1.425 1_556 S
C304 C311 1.409 1_556 S
C305 H297 0.930 . S
C305 C303 1.419 . S
C305 C306 1.362 1_556 S
C306 H298 0.930 . S
C306 C305 1.362 1_554 S
C306 C309 1.409 . S
C307 H299 0.930 . S
C307 C308 1.355 . S
C307 C309 1.415 . S
C308 C307 1.355 . S
C308 C310 1.419 . S
C309 C304 1.425 1_554 S
C309 C306 1.409 . S
C309 C307 1.415 . S
C310 H300 0.930 . S
C310 C308 1.419 . S
C310 C311 1.362 . S
C311 H301 0.930 1_554 S
C311 C304 1.409 1_554 S
C311 C310 1.362 . S
H312 C318 0.930 . S
H313 C321 0.930 . S
H314 C322 0.930 . S
H315 C323 0.930 . S
H316 C326 0.930 . S
H317 C327 0.930 . S
C318 H312 0.930 . S
C318 C319 1.355 . S
C318 C320 1.415 . S
C319 C318 1.355 . S
C319 C321 1.419 . S
C320 C318 1.415 . S
C320 C325 1.425 . S
C320 C327 1.409 . S
C321 H313 0.930 . S
C321 C319 1.419 . S
C321 C322 1.362 . S
C322 H314 0.930 . S
C322 C321 1.362 . S
C322 C325 1.409 . S
C323 H315 0.930 . S
C323 C324 1.355 . S
C323 C325 1.415 . S
C324 C323 1.355 . S
C324 C326 1.419 . S
C325 C320 1.425 . S
C325 C322 1.409 . S
C325 C323 1.415 . S
C326 H316 0.930 . S
C326 C324 1.419 . S
C326 C327 1.362 . S
C327 H317 0.930 . S
C327 C320 1.409 . S
C327 C326 1.362 . S
H328 C334 0.930 . S
H329 C337 0.930 . S
H330 C338 0.930 . S
H331 C339 0.930 . S
H332 C342 0.930 . S
H333 C343 0.930 . S
C334 H328 0.930 . S
C334 C335 1.355 . S
C334 C336 1.415 . S
C335 C334 1.355 . S
C335 C337 1.419 . S
C336 C334 1.415 . S
C336 C341 1.425 . S
C336 C343 1.409 . S
C337 H329 0.930 . S
C337 C335 1.419 . S
C337 C338 1.362 . S
C338 H330 0.930 . S
C338 C337 1.362 . S
C338 C341 1.409 . S
C339 H331 0.930 . S
C339 C340 1.355 . S
C339 C341 1.415 . S
C340 C339 1.355 . S
C340 C342 1.419 . S
C341 C336 1.425 . S
C341 C338 1.409 . S
C341 C339 1.415 . S
C342 H332 0.930 . S
C342 C340 1.419 . S
C342 C343 1.362 . S
C343 H333 0.930 . S
C343 C336 1.409 . S
C343 C342 1.362 . S
H344 C350 0.930 . S
H345 C353 0.930 . S
H346 C354 0.930 . S
H347 C355 0.930 . S
H348 C358 0.930 . S
H349 C359 0.930 . S
C350 H344 0.930 . S
C350 C351 1.355 . S
C350 C352 1.415 . S
C351 C350 1.355 . S
C351 C353 1.419 . S
C352 C350 1.415 . S
C352 C357 1.425 . S
C352 C359 1.409 . S
C353 H345 0.930 . S
C353 C351 1.419 . S
C353 C354 1.362 . S
C354 H346 0.930 . S
C354 C353 1.362 . S
C354 C357 1.409 . S
C355 H347 0.930 . S
C355 C356 1.355 . S
C355 C357 1.415 . S
C356 C355 1.355 . S
C356 C358 1.419 . S
C357 C352 1.425 . S
C357 C354 1.409 . S
C357 C355 1.415 . S
C358 H348 0.930 . S
C358 C356 1.419 . S
C358 C359 1.362 . S
C359 H349 0.930 . S
C359 C352 1.409 . S
C359 C358 1.362 . S
C111 C8 1.080 . S
C116 C86 1.071 . S
C127 C21 1.117 . S
C132 C99 1.027 . S
C143 C60 1.026 . S
C148 C34 1.115 . S
C159 C73 1.042 . S
C164 C47 1.107 . S
C175 C0 1.339 . S
C180 C65 1.373 . S
C191 C13 1.345 . S
C196 C78 1.362 . S
C207 C91 1.365 . S
C212 C26 1.349 . S
C223 C39 1.373 . S
C228 C52 1.347 . S
C239 C57 1.353 . S
C244 C5 1.372 . S
C255 C18 1.353 . S
C260 C70 1.371 . S
C271 C31 1.360 . S
C276 C83 1.365 . S
C287 C96 1.368 . S
C292 C44 1.358 . S
C303 C88 1.523 . S
C308 C10 1.526 . S
C319 C101 1.525 . S
C324 C23 1.513 . S
C335 C36 1.524 . S
C340 C62 1.509 . S
C351 C49 1.463 . S
C356 C75 1.474 . S
