# Generated by pormake.
# Topology qtz-x, (6)-cn, num edge types: 1
# Building blocks:
#     Node 0, Type 0, BuildingBlock: GEDQOX_clean_sbu_0, # of connection points: 6
#     Node 1, Type 0, BuildingBlock: GEDQOX_clean_sbu_0, # of connection points: 6
#     Node 2, Type 0, BuildingBlock: GEDQOX_clean_sbu_0, # of connection points: 6
#     Edge 3, Type (0, 0), BuildingBlock: TEMPAE_clean_linker_10, # of connection points: 2
#     Edge 4, Type (0, 0), BuildingBlock: TEMPAE_clean_linker_10, # of connection points: 2
#     Edge 5, Type (0, 0), BuildingBlock: TEMPAE_clean_linker_10, # of connection points: 2
#     Edge 6, Type (0, 0), BuildingBlock: TEMPAE_clean_linker_10, # of connection points: 2
#     Edge 7, Type (0, 0), BuildingBlock: TEMPAE_clean_linker_10, # of connection points: 2
#     Edge 8, Type (0, 0), BuildingBlock: TEMPAE_clean_linker_10, # of connection points: 2
#     Edge 9, Type (0, 0), BuildingBlock: TEMPAE_clean_linker_10, # of connection points: 2
#     Edge 10, Type (0, 0), BuildingBlock: TEMPAE_clean_linker_10, # of connection points: 2
#     Edge 11, Type (0, 0), BuildingBlock: TEMPAE_clean_linker_10, # of connection points: 2
# Relax obj value: 0.217
# Max RMSD: 0.265
# Mean RMSD: 0.235
data_MOF--net-qtz-x--node1-GEDQOX_clean_sbu_0--edge1-TEMPAE_clean_linker_10
_symmetry_space_group_name_H-M    P1
_symmetry_Int_Tables_number       1
_symmetry_cell_setting            triclinic
loop_
_symmetry_equiv_pos_as_xyz
'x, y, z'
_cell_length_a     14.928237
_cell_length_b     14.8978
_cell_length_c     53.721149
_cell_angle_alpha  69.883297
_cell_angle_beta   113.86363
_cell_angle_gamma 121.23634
loop_
_atom_site_label
_atom_site_type_symbol
_atom_site_fract_x
_atom_site_fract_y
_atom_site_fract_z
_atom_type_partial_charge
Nd0 Nd 0.24651 0.79586 0.18224 0.0
Nd1 Nd 1.0192 0.63547 0.1942 0.0
C2 C 0.39681 0.96286 0.1608 0.0
C3 C 0.42599 0.97669 0.13598 0.0
C4 C 0.4095 0.05296 0.11276 0.0
C5 C 0.41884 0.05503 0.08763 0.0
C6 C 0.44511 -0.0191 0.08519 0.0
C7 C 0.46551 0.9072 0.10874 0.0
C8 C 0.45575 0.90485 0.13378 0.0
C9 C 0.19955 0.59015 0.18118 0.0
C10 C 1.02354 0.71058 0.13117 0.0
C11 C 0.86069 0.48104 0.21607 0.0
C12 C 0.8453 0.43976 0.24418 0.0
C13 C 0.91218 0.39678 0.26597 0.0
C14 C 0.8981 0.36083 0.2925 0.0
C15 C 0.81739 0.36759 0.29803 0.0
C16 C 0.75034 0.41028 0.2761 0.0
C17 C 0.76388 0.4454 0.24953 0.0
C18 C 0.06909 0.84844 0.18318 0.0
C19 C 0.24745 0.71712 0.24636 0.0
O20 O 0.29954 0.95476 0.15579 0.0
O21 O 0.42021 0.89496 0.18247 0.0
O22 O 0.28795 0.67351 0.17723 0.0
O23 O 0.14257 0.61913 0.18557 0.0
O24 O 0.11701 0.79098 0.14034 0.0
O25 O 0.97287 0.62771 0.14827 0.0
O26 O 0.93067 0.46538 0.21138 0.0
O27 O 0.8657 0.57588 0.20461 0.0
O28 O 0.97254 0.77456 0.17379 0.0
O29 O 0.13489 0.80854 0.19808 0.0
O30 O 0.14289 0.65042 0.23774 0.0
O31 O 0.3053 0.7874 0.22903 0.0
H32 H 0.38512 0.10834 0.11376 0.0
H33 H 0.40173 0.11234 0.06987 0.0
H34 H 0.48796 0.85031 0.10776 0.0
H35 H 0.46824 0.84435 0.15115 0.0
H36 H 0.97585 0.39118 0.26263 0.0
H37 H 0.95025 0.32695 0.30862 0.0
H38 H 0.68848 0.41854 0.27952 0.0
H39 H 0.7113 0.47833 0.23316 0.0
Nd40 Nd 0.76907 0.93646 0.55157 0.0
Nd41 Nd 0.87319 0.17616 0.5569 0.0
C42 C 0.73884 0.77114 0.53617 0.0
C43 C 0.67607 0.73803 0.50884 0.0
C44 C 0.72133 0.7121 0.49553 0.0
C45 C 0.67337 0.7022 0.46755 0.0
C46 C 0.5794 0.71852 0.45234 0.0
C47 C 0.53193 0.74012 0.46612 0.0
C48 C 0.57998 0.75036 0.49396 0.0
C49 C 0.60408 -0.01482 0.54542 0.0
C50 C 0.77505 0.12512 0.49547 0.0
C51 C 0.94179 0.36172 0.56989 0.0
C52 C 0.96259 0.39907 0.5945 0.0
C53 C 0.92115 0.32668 0.6165 0.0
C54 C 0.95155 0.36052 0.64114 0.0
C55 C 1.02337 0.46747 0.64408 0.0
C56 C 0.06193 0.54048 0.62165 0.0
C57 C 1.03212 0.50627 0.59707 0.0
C58 C 1.00695 0.11368 0.5511 0.0
C59 C 0.84174 -0.01583 0.61285 0.0
O60 O 0.82665 0.86203 0.53585 0.0
O61 O 0.68314 0.76234 0.55126 0.0
O62 O 0.5871 0.89228 0.54392 0.0
O63 O 0.70466 0.04662 0.54935 0.0
O64 O 0.77021 0.02953 0.50734 0.0
O65 O 0.79855 0.19416 0.50999 0.0
O66 O 0.83965 0.3038 0.55762 0.0
O67 O 1.00734 0.32415 0.57221 0.0
O68 O 1.00224 0.20349 0.53875 0.0
O69 O 0.94281 0.06019 0.56628 0.0
O70 O 0.86213 0.08447 0.60099 0.0
O71 O 0.81349 0.91116 0.59883 0.0
H72 H 0.79667 0.70452 0.50641 0.0
H73 H 0.71274 0.68654 0.45755 0.0
H74 H 0.45867 0.75146 0.45521 0.0
H75 H 0.54425 0.77238 0.50351 0.0
H76 H 0.86696 0.24369 0.61482 0.0
H77 H 0.91919 0.30297 0.65794 0.0
H78 H 0.11768 0.62324 0.62341 0.0
H79 H 0.0654 0.56295 0.58031 0.0
Nd80 Nd 0.94749 0.75474 0.87967 0.0
Nd81 Nd 0.76693 0.83998 0.86048 0.0
C82 C 0.11101 0.71904 0.8855 0.0
C83 C 0.14625 0.70373 0.86588 0.0
C84 C 0.18255 0.78609 0.84431 0.0
C85 C 0.19627 0.76454 0.8231 0.0
C86 C 0.1723 0.66034 0.82298 0.0
C87 C 0.14289 0.57976 0.84533 0.0
C88 C 0.13139 0.60161 0.86681 0.0
C89 C 0.7369 0.60382 0.87807 0.0
C90 C 0.83619 0.82211 0.81233 0.0
C91 C 0.58572 0.84331 0.85548 0.0
C92 C 0.56101 0.88189 0.87265 0.0
C93 C 0.45911 0.82527 0.87805 0.0
C94 C 0.4411 0.85087 0.89784 0.0
C95 C 0.52521 0.93274 0.91278 0.0
C96 C 0.62601 -0.00844 0.90663 0.0
C97 C 0.64383 0.96626 0.88683 0.0
C98 C 0.97618 0.0059 0.87027 0.0
C99 C 0.89376 0.78726 0.92718 0.0
O100 O 0.12207 0.81445 0.88329 0.0
O101 O 1.01762 0.64329 0.88962 0.0
O102 O 0.82211 0.59585 0.89691 0.0
O103 O 0.76456 0.68754 0.86036 0.0
O104 O 0.91251 0.79677 0.83217 0.0
O105 O 0.7644 0.83518 0.81766 0.0
O106 O 0.60478 0.75977 0.86788 0.0
O107 O 0.6543 0.91566 0.84113 0.0
O108 O 0.88915 0.02004 0.86228 0.0
O109 O 0.94696 0.90847 0.87296 0.0
O110 O 0.8053 0.7931 0.90817 0.0
O111 O 0.97121 0.78864 0.92075 0.0
H112 H 0.19541 0.86585 0.84309 0.0
H113 H 0.21887 0.82765 0.80595 0.0
H114 H 0.12378 0.49883 0.84548 0.0
H115 H 0.10433 0.53704 0.88331 0.0
H116 H 0.39524 0.75814 0.86789 0.0
H117 H 0.3635 0.80297 0.90256 0.0
H118 H 0.69222 0.0553 0.91774 0.0
H119 H 0.7239 0.00993 0.88343 0.0
C120 C 1.0187 8e-05 0.16202 0.0
C121 C 0.08989 0.95856 0.18203 0.0
C122 C 1.03334 0.10211 0.16133 0.0
C123 C 0.11989 0.16352 0.18157 0.0
C124 C 0.19192 0.12166 0.20189 0.0
C125 C 0.17688 0.02035 0.20167 0.0
C126 C 0.95644 0.1444 0.13883 0.0
C127 C 0.2842 0.18339 0.22411 0.0
C128 C 0.22702 0.46561 0.16697 0.0
C129 C 0.17373 0.48021 0.18053 0.0
C130 C 0.20856 0.36327 0.16671 0.0
C131 C 0.137 0.27269 0.18098 0.0
C132 C 0.08274 0.28696 0.19473 0.0
C133 C 0.10077 0.39054 0.19406 0.0
C134 C 0.26601 0.3522 0.15116 0.0
C135 C 1.00742 0.19298 0.21064 0.0
H136 H 0.95149 0.95274 0.14674 0.0
H137 H 0.23166 -0.01165 0.21732 0.0
H138 H 0.9133 0.16097 0.14807 0.0
H139 H 1.00334 0.22084 0.12691 0.0
H140 H 0.89462 0.08775 0.12432 0.0
H141 H 0.33031 0.13814 0.23905 0.0
H142 H 0.34175 0.25949 0.21462 0.0
H143 H 0.25159 0.20369 0.23558 0.0
H144 H 0.2832 0.53471 0.15636 0.0
H145 H 0.06032 0.40152 0.20479 0.0
H146 H 0.20536 0.29836 0.13592 0.0
H147 H 0.32102 0.3158 0.16569 0.0
H148 H 0.3151 0.43005 0.14005 0.0
H149 H 0.9397 0.13641 0.19672 0.0
H150 H 0.97209 0.21729 0.22038 0.0
H151 H 1.05268 0.14952 0.22704 0.0
C152 C 0.54403 0.09103 0.55767 0.0
C153 C 0.51806 0.00798 0.54547 0.0
C154 C 0.46113 0.1062 0.55954 0.0
C155 C 0.34949 0.0382 0.5484 0.0
C156 C 0.32341 0.95552 0.53562 0.0
C157 C 0.40768 0.94075 0.53463 0.0
C158 C 0.49302 0.19416 0.57378 0.0
C159 C 0.20624 0.88274 0.52281 0.0
C160 C 0.12411 0.01559 0.57102 0.0
C161 C 0.08975 0.08827 0.55016 0.0
C162 C 0.20932 -0.00067 0.57096 0.0
C163 C 0.25987 0.05535 0.54921 0.0
C164 C 0.22298 0.12655 0.52775 0.0
C165 C 0.13959 0.14283 0.52866 0.0
C166 C 0.24648 0.9235 0.59442 0.0
C167 C 0.27154 0.1857 0.50372 0.0
H168 H 0.62907 0.14232 0.56644 0.0
H169 H 0.38698 0.8763 0.52518 0.0
H170 H 0.46205 0.25198 0.55904 0.0
H171 H 0.45501 0.16052 0.59092 0.0
H172 H 0.58292 0.23762 0.58224 0.0
H173 H 0.19956 0.82388 0.51309 0.0
H174 H 0.1616 0.83888 0.53876 0.0
H175 H 0.16477 0.93048 0.50686 0.0
H176 H 0.08646 0.97361 0.58778 0.0
H177 H 0.11309 0.1987 0.51236 0.0
H178 H 0.33498 0.96587 0.60464 0.0
H179 H 0.23498 0.85789 0.58635 0.0
H180 H 0.20122 0.8883 0.61015 0.0
H181 H 0.35994 0.23786 0.51126 0.0
H182 H 0.23154 0.23563 0.48825 0.0
H183 H 0.2636 0.12825 0.49329 0.0
C184 C 0.16383 0.0813 0.86586 0.0
C185 C 0.08826 0.09241 0.8722 0.0
C186 C 0.2681 0.166 0.86578 0.0
C187 C 0.29833 0.26328 0.8729 0.0
C188 C 0.2226 0.27387 0.87984 0.0
C189 C 0.11785 0.1889 0.87895 0.0
C190 C 0.34536 0.15171 0.85776 0.0
C191 C 0.25297 0.37405 0.8888 0.0
C192 C 0.60257 0.43791 0.8993 0.0
C193 C 0.6236 0.52 0.87663 0.0
C194 C 0.49718 0.35468 0.89836 0.0
C195 C 0.41035 0.35253 0.87404 0.0
C196 C 0.43089 0.43574 0.85105 0.0
C197 C 0.53726 0.51904 0.8527 0.0
C198 C 0.47882 0.26952 0.92357 0.0
C199 C 0.34101 0.43587 0.82456 0.0
H200 H 0.14009 0.00759 0.86003 0.0
H201 H 0.05932 0.1974 0.88389 0.0
H202 H 0.37267 0.21588 0.8405 0.0
H203 H 0.41919 0.1581 0.8754 0.0
H204 H 0.30732 0.07332 0.85136 0.0
H205 H 0.18328 0.37159 0.89232 0.0
H206 H 0.32067 0.38499 0.90825 0.0
H207 H 0.28281 0.44487 0.87308 0.0
H208 H 0.6689 0.43874 0.91792 0.0
H209 H 0.55325 0.58229 0.8351 0.0
H210 H 0.44142 0.1895 0.91828 0.0
H211 H 0.42115 0.2707 0.93139 0.0
H212 H 0.55605 0.28082 0.94033 0.0
H213 H 0.30413 0.36103 0.81656 0.0
H214 H 0.37097 0.50466 0.80834 0.0
H215 H 0.2752 0.4388 0.82849 0.0
C216 C 0.59201 0.95711 0.96189 0.0
C217 C 0.51153 0.95022 0.9364 0.0
C218 C 0.57888 0.96731 0.98504 0.0
C219 C 0.48296 0.97119 0.98274 0.0
C220 C 0.40256 0.96729 0.95685 0.0
C221 C 0.41739 0.95598 0.93401 0.0
C222 C 0.66704 0.97211 1.01215 0.0
C223 C 0.30087 0.97463 0.95332 0.0
C224 C 0.40712 0.88169 0.04977 0.0
C225 C 0.4498 0.97901 0.05818 0.0
C226 C 0.41475 0.87839 1.02491 0.0
C227 C 0.46589 0.97472 1.00786 0.0
C228 C 0.50721 0.07328 1.01598 0.0
C229 C 0.49804 0.07417 0.04091 0.0
C230 C 0.37024 0.77156 1.01718 0.0
C231 C 0.56056 0.17846 0.99846 0.0
H232 H 0.66436 0.95154 0.96395 0.0
H233 H 0.3556 0.95196 0.91424 0.0
H234 H 0.69457 0.0444 1.02018 0.0
H235 H 0.63389 0.90189 1.02768 0.0
H236 H 0.73902 0.97346 1.01018 0.0
H237 H 0.24707 0.97222 0.93175 0.0
H238 H 0.25395 0.90801 0.9673 0.0
H239 H 0.32388 0.04994 0.95919 0.0
H240 H 0.3675 0.80772 0.06267 0.0
H241 H 0.5313 0.14977 0.04719 0.0
H242 H 0.43713 0.76271 1.01566 0.0
H243 H 0.30898 0.76643 0.99661 0.0
H244 H 0.33136 0.70402 1.03246 0.0
H245 H 0.60693 0.17436 0.98748 0.0
H246 H 0.61677 0.24302 1.01101 0.0
H247 H 0.49577 0.20042 0.98286 0.0
C248 C 0.77443 0.25998 0.45145 0.0
C249 C 0.76424 0.15767 0.46528 0.0
C250 C 0.77549 0.29419 0.4236 0.0
C251 C 0.76751 0.225 0.4093 0.0
C252 C 0.75354 0.12049 0.42285 0.0
C253 C 0.75128 0.08795 0.45052 0.0
C254 C 0.78839 0.40553 0.40973 0.0
C255 C 0.7447 0.04402 0.40844 0.0
C256 C 0.70007 0.28141 0.33065 0.0
C257 C 0.80406 0.33143 0.32655 0.0
C258 C 0.68688 0.24759 0.35738 0.0
C259 C 0.77973 0.26338 0.3807 0.0
C260 C 0.88476 0.31346 0.37676 0.0
C261 C 0.89562 0.34714 0.34984 0.0
C262 C 0.57356 0.19538 0.36064 0.0
C263 C 0.98595 0.33069 0.40102 0.0
H264 H 0.78395 0.31435 0.46254 0.0
H265 H 0.74261 0.00839 0.4608 0.0
H266 H 0.86785 0.45353 0.40483 0.0
H267 H 0.72336 0.40312 0.38991 0.0
H268 H 0.78502 0.44653 0.4229 0.0
H269 H 0.73378 0.96537 0.42184 0.0
H270 H 0.67474 0.03149 0.38948 0.0
H271 H 0.8195 0.07828 0.40193 0.0
H272 H 0.6284 0.2672 0.31296 0.0
H273 H 0.97644 0.38676 0.34711 0.0
H274 H 0.56688 0.24626 0.37015 0.0
H275 H 0.55779 0.11757 0.37473 0.0
H276 H 0.50919 0.18234 0.34059 0.0
H277 H 0.99292 0.37943 0.41395 0.0
H278 H 0.06171 0.37126 0.39448 0.0
H279 H 0.97993 0.25292 0.41423 0.0
C280 C 0.75352 0.86111 0.76078 0.0
C281 C 0.83321 0.83693 0.78304 0.0
C282 C 0.75339 0.87896 0.73321 0.0
C283 C 0.83522 0.8732 0.7276 0.0
C284 C 0.91439 0.8465 0.74994 0.0
C285 C 0.91248 0.82887 0.77724 0.0
C286 C 0.66634 0.90544 0.71006 0.0
C287 C 1.00348 0.83974 0.74511 0.0
C288 C 0.79145 0.84704 0.65457 0.0
C289 C 0.84648 0.95353 0.64276 0.0
C290 C 0.78745 0.8195 0.68213 0.0
C291 C 0.84107 0.90006 0.6985 0.0
C292 C 0.89982 0.00715 0.68694 0.0
C293 C 0.90106 0.03252 0.65928 0.0
C294 C 0.72388 0.70441 0.69357 0.0
C295 C 0.96021 0.09562 0.70364 0.0
H296 H 0.69151 0.86705 0.76485 0.0
H297 H 0.9747 0.81019 0.79411 0.0
H298 H 0.70446 -0.01242 0.69887 0.0
H299 H 0.62451 0.85071 0.69494 0.0
H300 H 0.60425 0.89981 0.71765 0.0
H301 H 1.0503 0.80543 0.76422 0.0
H302 H 0.96882 0.79034 0.7291 0.0
H303 H 0.06088 0.92073 0.73744 0.0
H304 H 0.74861 0.78538 0.64203 0.0
H305 H 0.94482 0.11494 0.65055 0.0
H306 H 0.65807 0.69643 0.70011 0.0
H307 H 0.77814 0.6768 0.71215 0.0
H308 H 0.68659 0.65124 0.67826 0.0
H309 H 0.90085 0.10646 0.70831 0.0
H310 H 1.01058 0.17263 0.69256 0.0
H311 H 1.01426 0.07481 0.72365 0.0
C312 C 0.82216 0.77048 0.96449 0.0
C313 C 0.9034 0.77354 0.95682 0.0
C314 C 0.82898 0.75491 0.99245 0.0
C315 C 0.91906 0.7418 1.01334 0.0
C316 C 1.00108 0.74448 1.00575 0.0
C317 C 0.99235 0.76041 0.97766 0.0
C318 C 0.74051 0.75398 0.99961 0.0
C319 C 0.0993 0.73227 1.0273 0.0
C320 C 1.01532 0.81626 0.08363 0.0
C321 C 0.98035 0.71628 0.10072 0.0
C322 C 0.9919 0.82553 0.05508 0.0
C323 C 0.93202 0.73247 0.04308 0.0
C324 C 0.89167 0.63125 0.05994 0.0
C325 C 0.91603 0.62431 0.08862 0.0
C326 C 1.03592 0.9351 0.03799 0.0
C327 C 0.82759 0.53015 0.04791 0.0
H328 H 0.75296 0.78048 0.94864 0.0
H329 H 0.05556 0.76241 0.97209 0.0
H330 H 0.70423 0.67851 1.01347 0.0
H331 H 0.77605 0.81999 1.01096 0.0
H332 H 0.6744 0.76257 0.981 0.0
H333 H 0.15093 0.72742 1.01812 0.0
H334 H 0.14997 0.80127 0.03835 0.0
H335 H 0.07303 0.65944 0.04288 0.0
H336 H 0.06427 0.88799 0.09274 0.0
H337 H 0.88941 0.54687 0.10169 0.0
H338 H 0.96987 0.94566 1.01974 0.0
H339 H 0.09911 0.94412 1.03021 0.0
H340 H 0.07303 -0.00036 0.05002 0.0
H341 H 0.75939 0.53537 1.02958 0.0
H342 H 0.79377 0.45871 0.06313 0.0
H343 H 0.88139 0.51949 0.04088 0.0
C344 C 0.23538 0.65384 0.29511 0.0
C345 C 0.29925 0.71541 0.27659 0.0
C346 C 0.28184 0.6539 0.32365 0.0
C347 C 0.39543 0.71577 0.33412 0.0
C348 C 0.46072 0.77712 0.31564 0.0
C349 C 0.41184 0.7766 0.2871 0.0
C350 C 0.20886 0.58866 0.34256 0.0
C351 C 0.58219 0.8438 0.326 0.0
C352 C 0.49688 0.79423 0.40436 0.0
C353 C 0.53357 0.71799 0.422 0.0
C354 C 0.45245 0.79479 0.37578 0.0
C355 C 0.44521 0.71777 0.36437 0.0
C356 C 0.48344 0.64148 0.38196 0.0
C357 C 0.52696 0.64238 0.41055 0.0
C358 C 0.41347 0.87812 0.35782 0.0
C359 C 0.47766 0.55839 0.37059 0.0
H360 H 0.14829 0.60646 0.2873 0.0
H361 H 0.46207 0.82425 0.27304 0.0
H362 H 0.23236 0.52532 0.35687 0.0
H363 H 0.21889 0.63969 0.35536 0.0
H364 H 0.12135 0.55074 0.33092 0.0
H365 H 0.6221 0.88431 0.30907 0.0
H366 H 0.59802 0.90523 0.33645 0.0
H367 H 0.62093 0.79301 0.3415 0.0
H368 H 0.50408 0.85467 0.41288 0.0
H369 H 0.55433 0.58274 0.424 0.0
H370 H 0.32936 0.84031 0.3443 0.0
H371 H 0.46706 0.93404 0.34422 0.0
H372 H 0.41402 0.92479 0.3702 0.0
H373 H 0.39123 0.50664 0.36092 0.0
H374 H 0.5148 0.50741 0.38683 0.0
H375 H 0.5203 0.59744 0.35425 0.0
C376 C 0.05914 0.56266 0.7837 0.0
C377 C 0.1618 0.63237 0.79788 0.0
C378 C 1.0437 0.53888 0.75884 0.0
C379 C 0.13375 0.58479 0.74817 0.0
C380 C 0.23843 0.65379 0.76276 0.0
C381 C 0.25101 0.6779 0.78741 0.0
C382 C 0.93059 0.46594 0.74377 0.0
C383 C 0.33646 0.70278 0.75218 0.0
C384 C 0.09234 0.44073 0.69561 0.0
C385 C 0.05899 0.50197 0.67067 0.0
C386 C 0.12142 0.46928 0.72105 0.0
C387 C 0.11664 0.56111 0.72149 0.0
C388 C 0.08594 0.62497 0.69635 0.0
C389 C 0.05783 0.59476 0.67119 0.0
C390 C 0.15469 0.39979 0.74743 0.0
C391 C 0.07803 0.72247 0.69601 0.0
H392 H 0.99016 0.5288 0.7918 0.0
H393 H 0.33026 0.73185 0.79856 0.0
H394 H 0.90332 0.50895 0.72302 0.0
H395 H 0.93166 0.39663 0.74069 0.0
H396 H 0.86973 0.43598 0.75509 0.0
H397 H 0.41281 0.75144 0.76652 0.0
H398 H 0.34731 0.63936 0.74915 0.0
H399 H 0.32332 0.75418 0.73178 0.0
H400 H 0.0953 0.37009 0.69521 0.0
H401 H 1.03147 0.64187 0.65193 0.0
H402 H 0.09775 0.36786 0.76003 0.0
H403 H 0.23732 0.44788 0.75993 0.0
H404 H 0.15541 0.33173 0.74348 0.0
H405 H 1.00937 0.6977 0.70407 0.0
H406 H 0.06404 0.76943 0.67489 0.0
H407 H 0.15365 0.77474 0.70968 0.0
loop_
_geom_bond_atom_site_label_1
_geom_bond_atom_site_label_2
_geom_bond_distance
_geom_bond_site_symmetry_2
_ccdc_geom_bond_type
Nd0 C2 2.836 . S
Nd0 O20 2.500 . S
Nd0 O21 2.492 . S
Nd0 O22 2.487 . S
Nd0 O23 2.682 1_455 S
Nd0 O24 2.410 1_455 S
Nd0 O29 2.414 . S
Nd0 O31 2.424 . S
Nd1 C11 2.836 . S
Nd1 O23 2.414 . S
Nd1 O25 2.424 . S
Nd1 O26 2.500 . S
Nd1 O27 2.492 . S
Nd1 O28 2.487 . S
Nd1 O29 2.682 1_655 S
Nd1 O30 2.410 1_655 S
C2 Nd0 2.836 . S
C2 C3 1.498 . S
C2 O20 1.258 . S
C2 O21 1.239 . S
C3 C2 1.498 . S
C3 C4 1.366 . S
C3 C8 1.407 . S
C4 C3 1.366 . S
C4 C5 1.392 1_565 S
C4 H32 0.930 . S
C5 C4 1.392 1_545 S
C5 C6 1.398 1_545 S
C5 H33 0.929 . S
C6 C5 1.398 1_565 S
C6 C7 1.352 . S
C7 C6 1.352 . S
C7 C8 1.384 . S
C7 H34 0.930 . S
C8 C3 1.407 . S
C8 C7 1.384 . S
C8 H35 0.929 . S
C9 O22 1.241 . S
C9 O23 1.273 1_455 S
C10 O24 1.251 . S
C10 O25 1.268 . S
C11 Nd1 2.836 . S
C11 C12 1.498 . S
C11 O26 1.258 . S
C11 O27 1.239 . S
C12 C11 1.498 . S
C12 C13 1.366 . S
C12 C17 1.407 . S
C13 C12 1.366 . S
C13 C14 1.392 . S
C13 H36 0.930 . S
C14 C13 1.392 . S
C14 C15 1.398 . S
C14 H37 0.929 . S
C15 C14 1.398 . S
C15 C16 1.352 . S
C16 C15 1.352 . S
C16 C17 1.384 . S
C16 H38 0.930 . S
C17 C12 1.407 . S
C17 C16 1.384 . S
C17 H39 0.929 . S
C18 O28 1.241 . S
C18 O29 1.273 1_655 S
C19 O30 1.251 . S
C19 O31 1.268 . S
O20 Nd0 2.500 . S
O20 C2 1.258 . S
O21 Nd0 2.492 . S
O21 C2 1.239 . S
O22 Nd0 2.487 . S
O22 C9 1.241 . S
O23 Nd0 2.682 1_655 S
O23 Nd1 2.414 . S
O23 C9 1.273 1_655 S
O24 Nd0 2.410 1_655 S
O24 C10 1.251 . S
O25 Nd1 2.424 . S
O25 C10 1.268 . S
O26 Nd1 2.500 . S
O26 C11 1.258 . S
O27 Nd1 2.492 . S
O27 C11 1.239 . S
O28 Nd1 2.487 . S
O28 C18 1.241 . S
O29 Nd0 2.414 . S
O29 Nd1 2.682 1_455 S
O29 C18 1.273 1_455 S
O30 Nd1 2.410 1_455 S
O30 C19 1.251 . S
O31 Nd0 2.424 . S
O31 C19 1.268 . S
H32 C4 0.930 . S
H33 C5 0.929 . S
H34 C7 0.930 . S
H35 C8 0.929 . S
H36 C13 0.930 . S
H37 C14 0.929 . S
H38 C16 0.930 . S
H39 C17 0.929 . S
Nd40 C42 2.836 . S
Nd40 O60 2.500 . S
Nd40 O61 2.492 . S
Nd40 O62 2.487 . S
Nd40 O63 2.682 1_565 S
Nd40 O64 2.410 1_565 S
Nd40 O69 2.414 . S
Nd40 O71 2.424 . S
Nd41 C51 2.836 . S
Nd41 O63 2.414 . S
Nd41 O65 2.424 . S
Nd41 O66 2.500 . S
Nd41 O67 2.492 . S
Nd41 O68 2.487 . S
Nd41 O69 2.682 1_545 S
Nd41 O70 2.410 . S
C42 Nd40 2.836 . S
C42 C43 1.498 . S
C42 O60 1.258 . S
C42 O61 1.239 . S
C43 C42 1.498 . S
C43 C44 1.366 . S
C43 C48 1.407 . S
C44 C43 1.366 . S
C44 C45 1.392 . S
C44 H72 0.930 . S
C45 C44 1.392 . S
C45 C46 1.398 . S
C45 H73 0.929 . S
C46 C45 1.398 . S
C46 C47 1.352 . S
C47 C46 1.352 . S
C47 C48 1.384 . S
C47 H74 0.930 . S
C48 C43 1.407 . S
C48 C47 1.384 . S
C48 H75 0.929 . S
C49 O62 1.241 . S
C49 O63 1.273 1_565 S
C50 O64 1.251 . S
C50 O65 1.268 . S
C51 Nd41 2.836 . S
C51 C52 1.498 . S
C51 O66 1.258 . S
C51 O67 1.239 . S
C52 C51 1.498 . S
C52 C53 1.366 . S
C52 C57 1.407 1_655 S
C53 C52 1.366 . S
C53 C54 1.392 . S
C53 H76 0.930 . S
C54 C53 1.392 . S
C54 C55 1.398 1_655 S
C54 H77 0.929 . S
C55 C54 1.398 1_455 S
C55 C56 1.352 . S
C56 C55 1.352 . S
C56 C57 1.384 . S
C56 H78 0.930 . S
C57 C52 1.407 1_455 S
C57 C56 1.384 . S
C57 H79 0.929 . S
C58 O68 1.241 . S
C58 O69 1.273 1_545 S
C59 O70 1.251 1_565 S
C59 O71 1.268 . S
O60 Nd40 2.500 . S
O60 C42 1.258 . S
O61 Nd40 2.492 . S
O61 C42 1.239 . S
O62 Nd40 2.487 . S
O62 C49 1.241 . S
O63 Nd40 2.682 1_545 S
O63 Nd41 2.414 . S
O63 C49 1.273 1_545 S
O64 Nd40 2.410 1_545 S
O64 C50 1.251 . S
O65 Nd41 2.424 . S
O65 C50 1.268 . S
O66 Nd41 2.500 . S
O66 C51 1.258 . S
O67 Nd41 2.492 . S
O67 C51 1.239 . S
O68 Nd41 2.487 . S
O68 C58 1.241 . S
O69 Nd40 2.414 . S
O69 Nd41 2.682 1_565 S
O69 C58 1.273 1_565 S
O70 Nd41 2.410 . S
O70 C59 1.251 1_545 S
O71 Nd40 2.424 . S
O71 C59 1.268 . S
H72 C44 0.930 . S
H73 C45 0.929 . S
H74 C47 0.930 . S
H75 C48 0.929 . S
H76 C53 0.930 . S
H77 C54 0.929 . S
H78 C56 0.930 . S
H79 C57 0.929 . S
Nd80 C82 2.836 . S
Nd80 O100 2.500 1_655 S
Nd80 O101 2.492 . S
Nd80 O102 2.487 . S
Nd80 O103 2.682 . S
Nd80 O104 2.410 . S
Nd80 O109 2.414 1_565 S
Nd80 O111 2.424 . S
Nd81 C91 2.836 . S
Nd81 O103 2.414 1_545 S
Nd81 O105 2.424 . S
Nd81 O106 2.500 1_545 S
Nd81 O107 2.492 . S
Nd81 O108 2.487 1_655 S
Nd81 O109 2.682 . S
Nd81 O110 2.410 1_545 S
C82 Nd80 2.836 . S
C82 C83 1.498 1_655 S
C82 O100 1.258 1_655 S
C82 O101 1.239 . S
C83 C82 1.498 1_455 S
C83 C84 1.366 . S
C83 C88 1.407 1_455 S
C84 C83 1.366 . S
C84 C85 1.392 . S
C84 H112 0.930 . S
C85 C84 1.392 . S
C85 C86 1.398 . S
C85 H113 0.929 . S
C86 C85 1.398 . S
C86 C87 1.352 . S
C87 C86 1.352 . S
C87 C88 1.384 1_455 S
C87 H114 0.930 1_455 S
C88 C83 1.407 1_655 S
C88 C87 1.384 1_655 S
C88 H115 0.929 . S
C89 O102 1.241 . S
C89 O103 1.273 . S
C90 O104 1.251 . S
C90 O105 1.268 1_565 S
C91 Nd81 2.836 . S
C91 C92 1.498 . S
C91 O106 1.258 1_545 S
C91 O107 1.239 . S
C92 C91 1.498 . S
C92 C93 1.366 1_545 S
C92 C97 1.407 . S
C93 C92 1.366 1_565 S
C93 C94 1.392 1_565 S
C93 H116 0.930 . S
C94 C93 1.392 1_545 S
C94 C95 1.398 . S
C94 H117 0.929 1_545 S
C95 C94 1.398 . S
C95 C96 1.352 . S
C96 C95 1.352 . S
C96 C97 1.384 . S
C96 H118 0.930 . S
C97 C92 1.407 . S
C97 C96 1.384 . S
C97 H119 0.929 . S
C98 O108 1.241 . S
C98 O109 1.273 1_455 S
C99 O110 1.251 . S
C99 O111 1.268 . S
O100 Nd80 2.500 1_455 S
O100 C82 1.258 1_455 S
O101 Nd80 2.492 . S
O101 C82 1.239 . S
O102 Nd80 2.487 . S
O102 C89 1.241 . S
O103 Nd80 2.682 . S
O103 Nd81 2.414 1_565 S
O103 C89 1.273 . S
O104 Nd80 2.410 . S
O104 C90 1.251 . S
O105 Nd81 2.424 . S
O105 C90 1.268 1_545 S
O106 Nd81 2.500 1_565 S
O106 C91 1.258 1_565 S
O107 Nd81 2.492 . S
O107 C91 1.239 . S
O108 Nd81 2.487 1_455 S
O108 C98 1.241 . S
O109 Nd80 2.414 1_545 S
O109 Nd81 2.682 . S
O109 C98 1.273 1_655 S
O110 Nd81 2.410 1_565 S
O110 C99 1.251 . S
O111 Nd80 2.424 . S
O111 C99 1.268 . S
H112 C84 0.930 . S
H113 C85 0.929 . S
H114 C87 0.930 1_655 S
H115 C88 0.929 . S
H116 C93 0.930 . S
H117 C94 0.929 1_565 S
H118 C96 0.930 . S
H119 C97 0.929 . S
C120 C121 1.391 1_545 S
C120 C122 1.394 . S
C120 H136 0.931 1_655 S
C121 C120 1.391 1_565 S
C121 C125 1.376 . S
C122 C120 1.394 . S
C122 C123 1.369 . S
C122 C126 1.531 1_655 S
C123 C122 1.369 . S
C123 C124 1.410 . S
C123 C131 1.503 . S
C124 C123 1.410 . S
C124 C125 1.392 1_545 S
C124 C127 1.511 . S
C125 C121 1.376 . S
C125 C124 1.392 1_565 S
C125 H137 0.929 . S
C126 C122 1.531 1_455 S
C126 H138 0.954 1_455 S
C126 H139 0.967 . S
C126 H140 0.962 1_455 S
C127 C124 1.511 . S
C127 H141 0.961 1_545 S
C127 H142 0.961 . S
C127 H143 0.961 . S
C128 C129 1.370 1_455 S
C128 C130 1.363 . S
C128 H144 0.931 . S
C129 C128 1.370 1_655 S
C129 C133 1.408 . S
C130 C128 1.363 . S
C130 C131 1.370 1_455 S
C130 C134 1.524 . S
C131 C123 1.503 . S
C131 C130 1.370 1_655 S
C131 C132 1.403 . S
C132 C131 1.403 . S
C132 C133 1.404 . S
C132 C135 1.539 . S
C133 C129 1.408 . S
C133 C132 1.404 . S
C133 H145 0.930 . S
C134 C130 1.524 . S
C134 H146 0.956 . S
C134 H147 0.961 . S
C134 H148 0.961 . S
C135 C132 1.539 . S
C135 H149 0.958 . S
C135 H150 0.961 . S
C135 H151 0.960 . S
H136 C120 0.931 1_455 S
H137 C125 0.929 . S
H138 C126 0.954 1_655 S
H139 C126 0.967 . S
H140 C126 0.962 1_655 S
H141 C127 0.961 1_565 S
H142 C127 0.961 . S
H143 C127 0.961 . S
H144 C128 0.931 . S
H145 C133 0.930 . S
H146 C134 0.956 . S
H147 C134 0.961 . S
H148 C134 0.961 . S
H149 C135 0.958 . S
H150 C135 0.961 . S
H151 C135 0.960 . S
C152 C153 1.391 . S
C152 C154 1.394 . S
C152 H168 0.931 . S
C153 C152 1.391 . S
C153 C157 1.376 1_545 S
C154 C152 1.394 . S
C154 C155 1.369 . S
C154 C158 1.531 . S
C155 C154 1.369 . S
C155 C156 1.410 1_545 S
C155 C163 1.503 . S
C156 C155 1.410 1_565 S
C156 C157 1.392 . S
C156 C159 1.511 . S
C157 C153 1.376 1_565 S
C157 C156 1.392 . S
C157 H169 0.929 . S
C158 C154 1.531 . S
C158 H170 0.960 . S
C158 H171 0.962 . S
C158 H172 0.960 . S
C159 C156 1.511 . S
C159 H173 0.961 . S
C159 H174 0.961 . S
C159 H175 0.961 1_565 S
C160 C161 1.370 1_565 S
C160 C162 1.363 . S
C160 H176 0.931 . S
C161 C160 1.370 1_545 S
C161 C165 1.408 . S
C162 C160 1.363 . S
C162 C163 1.370 1_565 S
C162 C166 1.524 . S
C163 C155 1.503 . S
C163 C162 1.370 1_545 S
C163 C164 1.403 . S
C164 C163 1.403 . S
C164 C165 1.404 . S
C164 C167 1.539 . S
C165 C161 1.408 . S
C165 C164 1.404 . S
C165 H177 0.930 . S
C166 C162 1.524 . S
C166 H178 0.956 . S
C166 H179 0.961 . S
C166 H180 0.961 . S
C167 C164 1.539 . S
C167 H181 0.958 . S
C167 H182 0.961 . S
C167 H183 0.960 . S
H168 C152 0.931 . S
H169 C157 0.929 . S
H170 C158 0.960 . S
H171 C158 0.962 . S
H172 C158 0.960 . S
H173 C159 0.961 . S
H174 C159 0.961 . S
H175 C159 0.961 1_545 S
H176 C160 0.931 . S
H177 C165 0.930 . S
H178 C166 0.956 . S
H179 C166 0.961 . S
H180 C166 0.961 . S
H181 C167 0.958 . S
H182 C167 0.961 . S
H183 C167 0.960 . S
C184 C185 1.391 . S
C184 C186 1.394 . S
C184 H200 0.931 . S
C185 C184 1.391 . S
C185 C189 1.376 . S
C186 C184 1.394 . S
C186 C187 1.369 . S
C186 C190 1.531 . S
C187 C186 1.369 . S
C187 C188 1.410 . S
C187 C195 1.503 . S
C188 C187 1.410 . S
C188 C189 1.392 . S
C188 C191 1.511 . S
C189 C185 1.376 . S
C189 C188 1.392 . S
C189 H201 0.929 . S
C190 C186 1.531 . S
C190 H202 0.960 . S
C190 H203 0.962 . S
C190 H204 0.960 . S
C191 C188 1.511 . S
C191 H205 0.961 . S
C191 H206 0.961 . S
C191 H207 0.961 . S
C192 C193 1.370 . S
C192 C194 1.363 . S
C192 H208 0.931 . S
C193 C192 1.370 . S
C193 C197 1.408 . S
C194 C192 1.363 . S
C194 C195 1.370 . S
C194 C198 1.524 . S
C195 C187 1.503 . S
C195 C194 1.370 . S
C195 C196 1.403 . S
C196 C195 1.403 . S
C196 C197 1.404 . S
C196 C199 1.539 . S
C197 C193 1.408 . S
C197 C196 1.404 . S
C197 H209 0.930 . S
C198 C194 1.524 . S
C198 H210 0.956 . S
C198 H211 0.961 . S
C198 H212 0.961 . S
C199 C196 1.539 . S
C199 H213 0.958 . S
C199 H214 0.961 . S
C199 H215 0.960 . S
H200 C184 0.931 . S
H201 C189 0.929 . S
H202 C190 0.960 . S
H203 C190 0.962 . S
H204 C190 0.960 . S
H205 C191 0.961 . S
H206 C191 0.961 . S
H207 C191 0.961 . S
H208 C192 0.931 . S
H209 C197 0.930 . S
H210 C198 0.956 . S
H211 C198 0.961 . S
H212 C198 0.961 . S
H213 C199 0.958 . S
H214 C199 0.961 . S
H215 C199 0.960 . S
C216 C217 1.391 . S
C216 C218 1.394 . S
C216 H232 0.931 . S
C217 C216 1.391 . S
C217 C221 1.376 . S
C218 C216 1.394 . S
C218 C219 1.369 . S
C218 C222 1.531 . S
C219 C218 1.369 . S
C219 C220 1.410 . S
C219 C227 1.503 . S
C220 C219 1.410 . S
C220 C221 1.392 . S
C220 C223 1.511 1_545 S
C221 C217 1.376 . S
C221 C220 1.392 . S
C221 H233 0.929 . S
C222 C218 1.531 . S
C222 H234 0.954 1_556 S
C222 H235 0.962 1_556 S
C222 H236 0.960 . S
C223 C220 1.511 1_565 S
C223 H237 0.961 . S
C223 H238 0.961 . S
C223 H239 0.961 1_565 S
C224 C225 1.370 . S
C224 C226 1.403 . S
C224 H240 0.931 . S
C225 C224 1.370 . S
C225 C229 1.408 1_564 S
C226 C224 1.403 . S
C226 C227 1.349 1_564 S
C226 C230 1.508 . S
C227 C219 1.503 . S
C227 C226 1.349 1_546 S
C227 C228 1.403 . S
C228 C227 1.403 . S
C228 C229 1.404 . S
C228 C231 1.539 . S
C229 C225 1.408 1_546 S
C229 C228 1.404 . S
C229 H241 0.930 . S
C230 C226 1.508 . S
C230 H242 0.956 . S
C230 H243 0.961 1_554 S
C230 H244 0.961 . S
C231 C228 1.539 . S
C231 H245 0.958 . S
C231 H246 0.961 . S
C231 H247 0.960 . S
H232 C216 0.931 . S
H233 C221 0.929 . S
H234 C222 0.954 1_554 S
H235 C222 0.962 1_554 S
H236 C222 0.960 . S
H237 C223 0.961 . S
H238 C223 0.961 . S
H239 C223 0.961 1_545 S
H240 C224 0.931 . S
H241 C229 0.930 . S
H242 C230 0.956 . S
H243 C230 0.961 1_556 S
H244 C230 0.961 . S
H245 C231 0.958 . S
H246 C231 0.961 . S
H247 C231 0.960 . S
C248 C249 1.391 . S
C248 C250 1.394 . S
C248 H264 0.931 . S
C249 C248 1.391 . S
C249 C253 1.376 . S
C250 C248 1.394 . S
C250 C251 1.369 . S
C250 C254 1.531 . S
C251 C250 1.369 . S
C251 C252 1.410 . S
C251 C259 1.503 . S
C252 C251 1.410 . S
C252 C253 1.392 . S
C252 C255 1.511 . S
C253 C249 1.376 . S
C253 C252 1.392 . S
C253 H265 0.929 . S
C254 C250 1.531 . S
C254 H266 0.960 . S
C254 H267 0.962 . S
C254 H268 0.960 . S
C255 C252 1.511 . S
C255 H269 0.961 . S
C255 H270 0.961 . S
C255 H271 0.961 . S
C256 C257 1.370 . S
C256 C258 1.363 . S
C256 H272 0.931 . S
C257 C256 1.370 . S
C257 C261 1.408 . S
C258 C256 1.363 . S
C258 C259 1.370 . S
C258 C262 1.524 . S
C259 C251 1.503 . S
C259 C258 1.370 . S
C259 C260 1.403 . S
C260 C259 1.403 . S
C260 C261 1.404 . S
C260 C263 1.539 . S
C261 C257 1.408 . S
C261 C260 1.404 . S
C261 H273 0.930 . S
C262 C258 1.524 . S
C262 H274 0.956 . S
C262 H275 0.961 . S
C262 H276 0.961 . S
C263 C260 1.539 . S
C263 H277 0.958 . S
C263 H278 0.961 . S
C263 H279 0.960 . S
H264 C248 0.931 . S
H265 C253 0.929 . S
H266 C254 0.960 . S
H267 C254 0.962 . S
H268 C254 0.960 . S
H269 C255 0.961 . S
H270 C255 0.961 . S
H271 C255 0.961 . S
H272 C256 0.931 . S
H273 C261 0.930 . S
H274 C262 0.956 . S
H275 C262 0.961 . S
H276 C262 0.961 . S
H277 C263 0.958 . S
H278 C263 0.961 . S
H279 C263 0.960 . S
C280 C281 1.391 1_545 S
C280 C282 1.394 . S
C280 H296 0.931 . S
C281 C280 1.391 1_565 S
C281 C285 1.376 . S
C282 C280 1.394 . S
C282 C283 1.369 1_545 S
C282 C286 1.531 . S
C283 C282 1.369 1_565 S
C283 C284 1.410 . S
C283 C291 1.503 . S
C284 C283 1.410 . S
C284 C285 1.392 . S
C284 C287 1.511 . S
C285 C281 1.376 . S
C285 C284 1.392 . S
C285 H297 0.929 . S
C286 C282 1.531 . S
C286 H298 0.960 . S
C286 H299 0.962 . S
C286 H300 0.960 . S
C287 C284 1.511 . S
C287 H301 0.961 . S
C287 H302 0.961 . S
C287 H303 0.961 . S
C288 C289 1.370 . S
C288 C290 1.363 . S
C288 H304 0.931 . S
C289 C288 1.370 . S
C289 C293 1.408 1_565 S
C290 C288 1.363 . S
C290 C291 1.370 . S
C290 C294 1.524 . S
C291 C283 1.503 . S
C291 C290 1.370 . S
C291 C292 1.403 1_565 S
C292 C291 1.403 1_545 S
C292 C293 1.404 . S
C292 C295 1.539 . S
C293 C289 1.408 1_545 S
C293 C292 1.404 . S
C293 H305 0.930 . S
C294 C290 1.524 . S
C294 H306 0.956 . S
C294 H307 0.961 . S
C294 H308 0.961 . S
C295 C292 1.539 . S
C295 H309 0.958 . S
C295 H310 0.961 1_655 S
C295 H311 0.960 . S
H296 C280 0.931 . S
H297 C285 0.929 . S
H298 C286 0.960 . S
H299 C286 0.962 . S
H300 C286 0.960 . S
H301 C287 0.961 . S
H302 C287 0.961 . S
H303 C287 0.961 . S
H304 C288 0.931 . S
H305 C293 0.930 . S
H306 C294 0.956 . S
H307 C294 0.961 . S
H308 C294 0.961 . S
H309 C295 0.958 . S
H310 C295 0.961 1_455 S
H311 C295 0.960 . S
C312 C313 1.391 . S
C312 C314 1.394 . S
C312 H328 0.931 . S
C313 C312 1.391 . S
C313 C317 1.376 1_655 S
C314 C312 1.394 . S
C314 C315 1.369 . S
C314 C318 1.531 . S
C315 C314 1.369 . S
C315 C316 1.410 1_655 S
C315 C323 1.503 1_556 S
C316 C315 1.410 1_455 S
C316 C317 1.392 . S
C316 C319 1.511 . S
C317 C313 1.376 1_455 S
C317 C316 1.392 . S
C317 H329 0.929 . S
C318 C314 1.531 . S
C318 H330 0.960 . S
C318 H331 0.962 . S
C318 H332 0.960 . S
C319 C316 1.511 . S
C319 H333 0.961 . S
C319 H334 0.961 1_556 S
C319 H335 0.961 1_556 S
C320 C321 1.370 . S
C320 C322 1.363 . S
C320 H336 0.931 . S
C321 C320 1.370 . S
C321 C325 1.408 . S
C322 C320 1.363 . S
C322 C323 1.370 . S
C322 C326 1.524 1_554 S
C323 C315 1.503 1_554 S
C323 C322 1.370 . S
C323 C324 1.403 . S
C324 C323 1.403 . S
C324 C325 1.404 . S
C324 C327 1.539 . S
C325 C321 1.408 . S
C325 C324 1.404 . S
C325 H337 0.930 . S
C326 C322 1.524 1_556 S
C326 H338 0.956 . S
C326 H339 0.961 . S
C326 H340 0.973 . S
C327 C324 1.539 . S
C327 H341 0.958 . S
C327 H342 0.961 1_655 S
C327 H343 0.960 . S
H328 C312 0.931 . S
H329 C317 0.929 . S
H330 C318 0.960 . S
H331 C318 0.962 . S
H332 C318 0.960 . S
H333 C319 0.961 . S
H334 C319 0.961 1_554 S
H335 C319 0.961 1_554 S
H336 C320 0.931 . S
H337 C325 0.930 . S
H338 C326 0.956 . S
H339 C326 0.961 . S
H340 C326 0.973 . S
H341 C327 0.958 . S
H342 C327 0.961 1_455 S
H343 C327 0.960 . S
C344 C345 1.391 . S
C344 C346 1.394 . S
C344 H360 0.931 . S
C345 C344 1.391 . S
C345 C349 1.376 . S
C346 C344 1.394 . S
C346 C347 1.369 . S
C346 C350 1.531 . S
C347 C346 1.369 . S
C347 C348 1.410 . S
C347 C355 1.503 . S
C348 C347 1.410 . S
C348 C349 1.392 . S
C348 C351 1.511 . S
C349 C345 1.376 . S
C349 C348 1.392 . S
C349 H361 0.929 . S
C350 C346 1.531 . S
C350 H362 0.960 . S
C350 H363 0.962 . S
C350 H364 0.960 . S
C351 C348 1.511 . S
C351 H365 0.961 . S
C351 H366 0.961 . S
C351 H367 0.961 . S
C352 C353 1.370 . S
C352 C354 1.363 . S
C352 H368 0.931 . S
C353 C352 1.370 . S
C353 C357 1.408 . S
C354 C352 1.363 . S
C354 C355 1.370 . S
C354 C358 1.524 . S
C355 C347 1.503 . S
C355 C354 1.370 . S
C355 C356 1.403 . S
C356 C355 1.403 . S
C356 C357 1.404 . S
C356 C359 1.539 . S
C357 C353 1.408 . S
C357 C356 1.404 . S
C357 H369 0.930 . S
C358 C354 1.524 . S
C358 H370 0.956 . S
C358 H371 0.961 . S
C358 H372 0.961 . S
C359 C356 1.539 . S
C359 H373 0.958 . S
C359 H374 0.961 . S
C359 H375 0.960 . S
H360 C344 0.931 . S
H361 C349 0.929 . S
H362 C350 0.960 . S
H363 C350 0.962 . S
H364 C350 0.960 . S
H365 C351 0.961 . S
H366 C351 0.961 . S
H367 C351 0.961 . S
H368 C352 0.931 . S
H369 C357 0.930 . S
H370 C358 0.956 . S
H371 C358 0.961 . S
H372 C358 0.961 . S
H373 C359 0.958 . S
H374 C359 0.961 . S
H375 C359 0.960 . S
C376 C377 1.391 1_655 S
C376 C378 1.394 . S
C376 H392 0.931 . S
C377 C376 1.391 1_455 S
C377 C381 1.376 . S
C378 C376 1.394 . S
C378 C379 1.369 1_655 S
C378 C382 1.531 . S
C379 C378 1.369 1_455 S
C379 C380 1.410 . S
C379 C387 1.503 . S
C380 C379 1.410 . S
C380 C381 1.392 . S
C380 C383 1.511 . S
C381 C377 1.376 . S
C381 C380 1.392 . S
C381 H393 0.929 . S
C382 C378 1.531 . S
C382 H394 0.960 . S
C382 H395 0.962 . S
C382 H396 0.960 . S
C383 C380 1.511 . S
C383 H397 0.961 . S
C383 H398 0.961 . S
C383 H399 0.961 . S
C384 C385 1.370 . S
C384 C386 1.363 . S
C384 H400 0.931 . S
C385 C384 1.370 . S
C385 C389 1.408 1_455 S
C386 C384 1.363 . S
C386 C387 1.370 . S
C386 C390 1.524 . S
C387 C379 1.503 . S
C387 C386 1.370 . S
C387 C388 1.403 . S
C388 C387 1.403 . S
C388 C389 1.404 1_455 S
C388 C391 1.539 1_455 S
C389 C385 1.408 1_655 S
C389 C388 1.404 1_655 S
C389 H401 0.930 . S
C390 C386 1.524 . S
C390 H402 0.956 . S
C390 H403 0.961 . S
C390 H404 0.961 . S
C391 C388 1.539 1_655 S
C391 H405 0.958 . S
C391 H406 0.961 1_655 S
C391 H407 0.960 1_655 S
H392 C376 0.931 . S
H393 C381 0.929 . S
H394 C382 0.960 . S
H395 C382 0.962 . S
H396 C382 0.960 . S
H397 C383 0.961 . S
H398 C383 0.961 . S
H399 C383 0.961 . S
H400 C384 0.931 . S
H401 C389 0.930 . S
H402 C390 0.956 . S
H403 C390 0.961 . S
H404 C390 0.961 . S
H405 C391 0.958 . S
H406 C391 0.961 1_455 S
H407 C391 0.960 1_455 S
C121 C18 1.498 . S
C129 C9 1.532 1_655 S
C153 C49 1.636 1_545 S
C161 C58 1.613 1_455 S
C185 C98 1.326 . S
C193 C89 1.314 . S
C217 C95 1.027 . S
C225 C6 1.022 . S
C249 C50 2.020 . S
C257 C15 1.965 . S
C281 C90 2.471 . S
C289 C59 2.464 . S
C313 C99 2.355 . S
C321 C10 2.299 . S
C345 C19 1.655 . S
C353 C46 1.588 . S
C377 C86 0.978 . S
C385 C55 0.958 . S
