# Generated by pormake.
# Topology sxc, (6)-cn, num edge types: 1
# Building blocks:
#     Node 0, Type 0, BuildingBlock: BETFEN_clean_sbu_0, # of connection points: 6
#     Node 1, Type 0, BuildingBlock: BETFEN_clean_sbu_0, # of connection points: 6
#     Node 2, Type 0, BuildingBlock: BETFEN_clean_sbu_0, # of connection points: 6
#     Edge 3, Type (0, 0), BuildingBlock: CIFDUS_clean_linker_0, # of connection points: 2
#     Edge 4, Type (0, 0), BuildingBlock: CIFDUS_clean_linker_0, # of connection points: 2
#     Edge 5, Type (0, 0), BuildingBlock: CIFDUS_clean_linker_0, # of connection points: 2
#     Edge 6, Type (0, 0), BuildingBlock: CIFDUS_clean_linker_0, # of connection points: 2
#     Edge 7, Type (0, 0), BuildingBlock: CIFDUS_clean_linker_0, # of connection points: 2
#     Edge 8, Type (0, 0), BuildingBlock: CIFDUS_clean_linker_0, # of connection points: 2
#     Edge 9, Type (0, 0), BuildingBlock: CIFDUS_clean_linker_0, # of connection points: 2
#     Edge 10, Type (0, 0), BuildingBlock: CIFDUS_clean_linker_0, # of connection points: 2
#     Edge 11, Type (0, 0), BuildingBlock: CIFDUS_clean_linker_0, # of connection points: 2
# Relax obj value: 0.395
# Max RMSD: 0.173
# Mean RMSD: 0.094
data_MOF--net-sxc--node1-BETFEN_clean_sbu_0--edge1-CIFDUS_clean_linker_0
_symmetry_space_group_name_H-M    P1
_symmetry_Int_Tables_number       1
_symmetry_cell_setting            triclinic
loop_
_symmetry_equiv_pos_as_xyz
'x, y, z'
_cell_length_a     13.967147
_cell_length_b     14.421255
_cell_length_c     39.474159
_cell_angle_alpha  91.371785
_cell_angle_beta   92.389828
_cell_angle_gamma 84.626393
loop_
_atom_site_label
_atom_site_type_symbol
_atom_site_fract_x
_atom_site_fract_y
_atom_site_fract_z
_atom_type_partial_charge
Pr0 Pr 0.1495 0.21152 0.97571 0.0
Pr1 Pr 0.95107 0.24716 0.97946 0.0
C2 C 0.33627 0.22099 0.96291 0.0
C3 C 0.39681 0.29761 0.97002 0.0
C4 C 0.37024 0.36468 -0.00493 0.0
C5 C 0.41631 0.44621 -0.00163 0.0
C6 C 0.48935 0.46282 0.97646 0.0
C7 C 0.51941 0.39314 0.95255 0.0
C8 C 0.47313 0.31113 0.9493 0.0
C9 C 0.09567 0.21617 0.04365 0.0
C10 C 1.05701 0.44088 0.97929 0.0
C11 C 0.76351 0.23804 0.9911 0.0
C12 C 0.70433 1.15984 0.98496 0.0
C13 C 0.73158 1.09123 0.96052 0.0
C14 C 0.68635 1.00912 0.95798 0.0
C15 C 0.61352 0.99332 0.98009 0.0
C16 C 0.58302 1.06422 0.00348 0.0
C17 C 0.6284 1.14688 0.00595 0.0
C18 C 1.00422 0.25289 0.91192 0.0
C19 C 1.0442 1.01783 0.97667 0.0
O20 O 0.26667 0.2391 0.94025 0.0
O21 O 0.3082 1.1799 0.98938 0.0
O22 O 1.06281 0.27463 0.02169 0.0
O23 O 0.15777 1.15396 0.03093 0.0
O24 O 0.97651 0.40808 0.98827 0.0
O25 O 0.12963 0.37951 0.97084 0.0
O26 O 0.83156 0.22414 0.0146 0.0
O27 O 0.79312 0.27543 0.9641 0.0
O28 O 1.03672 1.18912 0.93224 0.0
O29 O 0.94705 0.31525 0.92693 0.0
O30 O 0.12477 1.05041 0.96782 0.0
O31 O 0.97142 1.07934 0.98477 0.0
H32 H 0.31105 0.35581 0.01123 0.0
H33 H 0.39276 0.49751 0.01748 0.0
H34 H 0.57527 0.40394 0.93523 0.0
H35 H 0.49411 0.26027 0.9297 0.0
H36 H 0.79051 1.09953 0.94417 0.0
H37 H 0.71025 0.9569 0.93923 0.0
H38 H 0.52733 1.05409 0.02095 0.0
H39 H 0.60689 0.19888 0.0251 0.0
Pr40 Pr 0.09911 0.30596 0.31971 0.0
Pr41 Pr 0.10376 1.12118 0.3116 0.0
C42 C 1.05365 0.48853 0.33095 0.0
C43 C 1.02157 0.5297 0.36341 0.0
C44 C 1.00399 0.47063 0.3899 0.0
C45 C 0.99585 0.50545 0.42311 0.0
C46 C 1.00281 0.60034 0.43011 0.0
C47 C 1.01092 0.66058 0.40284 0.0
C48 C 1.02122 0.62533 0.3698 0.0
C49 C 0.11707 0.2198 0.38368 0.0
C50 C 0.88868 0.21885 0.3081 0.0
C51 C 0.16114 0.94118 0.32262 0.0
C52 C 0.216 0.90603 0.35299 0.0
C53 C 0.23706 0.81059 0.35776 0.0
C54 C 0.27491 0.77842 0.38913 0.0
C55 C 0.29132 0.84138 0.41634 0.0
C56 C 0.27766 0.93725 0.41036 0.0
C57 C 0.24013 0.96916 0.37898 0.0
C58 C 0.08395 0.19878 0.24647 0.0
C59 C 0.31044 0.21543 0.31555 0.0
O60 O 0.99447 0.43551 0.31538 0.0
O61 O 0.14245 0.45105 0.33171 0.0
O62 O 1.05808 0.20222 0.35998 0.0
O63 O 0.17321 0.27929 0.37408 0.0
O64 O 0.93645 1.14013 0.3174 0.0
O65 O 0.93774 0.28939 0.30126 0.0
O66 O 0.07391 0.97754 0.32807 0.0
O67 O 0.20695 0.99242 0.30325 0.0
O68 O 0.14028 0.22469 0.27011 0.0
O69 O 1.03626 1.13187 0.25625 0.0
O70 O 0.25917 0.28834 0.30285 0.0
O71 O 0.26346 1.15041 0.32839 0.0
H72 H 1.00333 0.39642 0.38528 0.0
H73 H 0.99172 0.45742 0.44358 0.0
H74 H 1.0193 0.7338 0.40749 0.0
H75 H 1.0353 0.67175 0.34979 0.0
H76 H 0.21887 0.76091 0.33806 0.0
H77 H 0.28227 0.70392 0.39295 0.0
H78 H 0.28808 0.98726 0.4308 0.0
H79 H 0.22405 1.04322 0.37581 0.0
Pr80 Pr 0.12472 1.07338 0.65074 0.0
Pr81 Pr 0.1055 0.26925 0.6431 0.0
C82 C 0.11821 0.89281 0.66521 0.0
C83 C 1.03971 0.83319 0.66878 0.0
C84 C 1.02214 0.76667 0.64333 0.0
C85 C 0.93811 0.72173 0.64289 0.0
C86 C 0.87038 0.74306 0.66785 0.0
C87 C 0.89118 0.80445 0.69468 0.0
C88 C 0.9753 0.84922 0.69518 0.0
C89 C 0.14736 1.12445 0.58359 0.0
C90 C 0.90219 1.17982 0.64146 0.0
C91 C 0.10837 0.44891 0.6263 0.0
C92 C 0.18211 0.51246 0.62073 0.0
C93 C 0.19513 0.58476 0.64435 0.0
C94 C 0.27492 0.63537 0.64308 0.0
C95 C 0.34291 0.61395 0.61821 0.0
C96 C 0.32558 0.54723 0.5928 0.0
C97 C 0.24564 0.49663 0.59405 0.0
C98 C 0.08317 0.21999 0.71069 0.0
C99 C 0.32784 1.163 0.65335 0.0
O100 O 0.1274 0.95776 0.68846 0.0
O101 O 0.12849 0.92181 0.63462 0.0
O102 O 0.08017 1.15733 0.60209 0.0
O103 O 0.20813 1.06696 0.60008 0.0
O104 O 0.94519 0.24923 0.6301 0.0
O105 O 0.95448 1.10697 0.65449 0.0
O106 O 0.09997 0.38153 0.60398 0.0
O107 O 0.10273 0.42205 0.65745 0.0
O108 O 0.14917 1.18481 0.69201 0.0
O109 O 1.02551 0.28054 0.69429 0.0
O110 O 0.2845 1.09376 0.66476 0.0
O111 O 0.27588 0.23557 0.63995 0.0
H112 H 1.07102 0.75292 0.62281 0.0
H113 H 0.92406 0.67343 0.62222 0.0
H114 H 0.83968 0.82241 0.7141 0.0
H115 H 0.98694 0.90001 0.71523 0.0
H116 H 0.14642 0.59874 0.66491 0.0
H117 H 0.28642 0.68758 0.66265 0.0
H118 H 0.37736 0.52935 0.57346 0.0
H119 H 0.23696 0.44175 0.57526 0.0
H120 H 0.92583 0.59723 -0.00581 0.0
H121 H 0.21376 0.52733 0.96036 0.0
H122 H 0.23559 0.69261 0.95594 0.0
H123 H 0.17555 0.86145 0.96201 0.0
H124 H 0.8877 0.93138 -0.00409 0.0
H125 H 0.86609 0.76605 0.0005 0.0
C126 C 0.99377 0.61755 0.98597 0.0
C127 C 1.06781 0.54647 0.9777 0.0
C128 C 1.00689 0.71513 0.98357 0.0
C129 C 0.15469 0.57758 0.96706 0.0
C130 C 0.16766 0.67339 0.96454 0.0
C131 C 0.10763 0.84114 0.97027 0.0
C132 C 1.03354 0.91224 0.97848 0.0
C133 C 0.09459 0.74357 0.97272 0.0
C134 C 0.94675 0.88112 0.9892 0.0
C135 C 0.93388 0.7853 0.9918 0.0
H136 H 0.4368 0.33534 0.29286 0.0
H137 H 0.42895 1.06869 0.33952 0.0
H138 H 0.60389 1.04469 0.34048 0.0
H139 H 0.76146 1.09867 0.32863 0.0
H140 H 0.77113 0.36615 0.28294 0.0
H141 H 0.59553 0.38965 0.28101 0.0
C142 C 0.4733 0.27205 0.30327 0.0
C143 C 0.41853 0.20421 0.31613 0.0
C144 C 0.57536 0.2583 0.30388 0.0
C145 C 0.4681 1.1226 0.32947 0.0
C146 C 0.56879 1.1085 0.33001 0.0
C147 C 0.72532 1.16192 0.31805 0.0
C148 C 0.78057 0.23018 0.30584 0.0
C149 C 0.62347 1.1757 0.31731 0.0
C150 C 0.73143 0.31199 0.29251 0.0
C151 C 0.63046 0.32571 0.29143 0.0
H152 H 0.75658 0.74802 0.61103 0.0
H153 H 0.76722 0.66918 0.71599 0.0
H154 H 0.60143 0.62763 0.71002 0.0
H155 H 0.4555 0.61266 0.67486 0.0
H156 H 0.44468 0.689 0.56969 0.0
H157 H 0.61008 0.73271 0.57572 0.0
C158 C 0.723 0.72026 0.63242 0.0
C159 C 0.77372 0.71058 0.66381 0.0
C160 C 0.62809 0.69725 0.62882 0.0
C161 C 0.7291 0.67689 0.69161 0.0
C162 C 0.63462 0.65342 0.68822 0.0
C163 C 0.48883 0.64057 0.65344 0.0
C164 C 0.43827 0.64916 0.62203 0.0
C165 C 0.5835 0.66387 0.65701 0.0
C166 C 0.48266 0.68263 0.59414 0.0
C167 C 0.57691 0.70716 0.59757 0.0
H168 H 0.78094 1.05896 0.66617 0.0
H169 H 0.7791 0.32034 0.61497 0.0
H170 H 0.60414 0.33986 0.61461 0.0
H171 H 0.44916 0.28363 0.62869 0.0
H172 H 0.4508 1.02239 0.67995 0.0
H173 H 0.62583 1.00274 0.68028 0.0
C174 C 0.74236 1.12 0.65481 0.0
C175 C 0.79431 1.18773 0.64059 0.0
C176 C 0.64052 1.13141 0.65472 0.0
C177 C 0.74209 0.26655 0.62612 0.0
C178 C 0.64139 0.27812 0.62591 0.0
C179 C 0.48769 0.22262 0.64008 0.0
C180 C 0.43571 1.15498 0.65433 0.0
C181 C 0.58952 0.2112 0.64019 0.0
C182 C 0.48787 1.07614 0.66881 0.0
C183 C 0.58859 1.06451 0.669 0.0
H184 H 0.71294 0.8233 0.97393 0.0
H185 H 0.42614 0.9558 0.98633 0.0
H186 H 0.36342 0.80312 0.98702 0.0
H187 H 0.39009 0.63271 0.98321 0.0
H188 H 0.67691 0.50021 0.97077 0.0
H189 H 0.73975 0.65289 0.97035 0.0
C190 C 0.63659 0.8189 0.97649 0.0
C191 C 0.57436 0.90096 0.97999 0.0
C192 C 0.6012 0.73111 0.97676 0.0
C193 C 0.47575 0.89384 0.98387 0.0
C194 C 0.43983 0.8066 0.98411 0.0
C195 C 0.46651 0.6371 0.98077 0.0
C196 C 0.52872 0.55508 0.97711 0.0
C197 C 0.50196 0.72488 0.98061 0.0
C198 C 0.62736 0.56217 0.97335 0.0
C199 C 0.66334 0.6494 0.97325 0.0
H200 H 0.15642 0.53382 0.46838 0.0
H201 H 0.91713 0.74321 0.46994 0.0
H202 H 1.02435 0.86145 0.48646 0.0
H203 H 0.17577 0.90645 0.46645 0.0
H204 H 0.40664 0.69641 0.44641 0.0
H205 H 0.32053 0.57981 0.47278 0.0
C206 C 0.12741 0.6044 0.47458 0.0
C207 C 1.0315 0.63276 0.46462 0.0
C208 C 0.19144 0.67334 0.47914 0.0
C209 C 0.99246 0.72143 0.47533 0.0
C210 C 1.05446 0.78966 0.484 0.0
C211 C 0.20981 0.83626 0.46974 0.0
C212 C 0.29216 0.807 0.45153 0.0
C213 C 0.1538 0.76796 0.4807 0.0
C214 C 0.33972 0.71877 0.45838 0.0
C215 C 0.28925 0.6515 0.47287 0.0
H216 H 0.95247 0.24026 0.19453 0.0
H217 H 0.25625 1.1791 0.21652 0.0
H218 H 0.28702 1.17786 0.15588 0.0
H219 H 0.22664 1.18702 0.09614 0.0
H220 H 0.92612 0.26693 0.07405 0.0
H221 H 0.89465 0.26856 0.13477 0.0
C222 C 1.0254 0.22784 0.18595 0.0
C223 C 0.102 0.20942 0.20996 0.0
C224 C 1.04293 0.23007 0.15094 0.0
C225 C 0.19623 0.19394 0.19857 0.0
C226 C 0.21378 1.19275 0.16386 0.0
C227 C 0.15439 0.20539 0.10469 0.0
C228 C 0.07846 0.22552 0.08059 0.0
C229 C 0.13763 0.20957 0.13976 0.0
C230 C 0.98559 0.25076 0.09205 0.0
C231 C 0.96763 0.25152 0.12681 0.0
H232 H 0.25639 0.20939 0.43396 0.0
H233 H 0.95501 1.17906 0.41452 0.0
H234 H 0.93571 1.15212 0.47482 0.0
H235 H 1.0047 1.13913 0.53377 0.0
H236 H 0.30935 1.15337 0.55177 0.0
H237 H 0.32736 1.18516 0.49182 0.0
C238 C 0.18661 0.19662 0.44298 0.0
C239 C 0.10711 0.19698 0.41984 0.0
C240 C 0.17662 1.17888 0.4776 0.0
C241 C 1.01738 1.17902 0.43178 0.0
C242 C 1.00623 1.16402 0.46632 0.0
C243 C 0.07476 1.14974 0.52448 0.0
C244 C 0.15546 1.14529 0.54722 0.0
C245 C 0.0852 1.1644 0.48958 0.0
C246 C 0.24621 1.15698 0.53477 0.0
C247 C 0.25653 1.17506 0.50048 0.0
H248 H 0.96113 0.31296 0.75374 0.0
H249 H 0.20106 1.1025 0.75214 0.0
H250 H 0.19789 1.09002 0.81414 0.0
H251 H 0.12733 1.14307 0.86977 0.0
H252 H 0.89027 0.35826 0.86846 0.0
H253 H 0.8922 0.36419 0.80731 0.0
C254 C 1.01279 0.26404 0.76685 0.0
C255 C 0.08129 0.20896 0.74819 0.0
C256 C 1.01114 0.25811 0.80236 0.0
C257 C 0.14754 1.14602 0.76581 0.0
C258 C 0.14572 1.13891 0.80133 0.0
C259 C 0.07603 1.19076 0.85601 0.0
C260 C 1.00871 0.25003 0.87409 0.0
C261 C 0.07798 0.19511 0.82007 0.0
C262 C 0.9432 0.31182 0.85564 0.0
C263 C 0.94398 0.31547 0.82042 0.0
loop_
_geom_bond_atom_site_label_1
_geom_bond_atom_site_label_2
_geom_bond_distance
_geom_bond_site_symmetry_2
_ccdc_geom_bond_type
Pr0 C2 2.880 . S
Pr0 O20 2.562 1_554 S
Pr0 O21 2.490 . S
Pr0 O22 2.695 1_455 S
Pr0 O23 2.512 . S
Pr0 O25 2.437 . S
Pr0 O28 2.436 1_554 S
Pr0 O30 2.438 1_545 S
Pr1 C11 2.884 . S
Pr1 O22 2.436 1_566 S
Pr1 O24 2.438 1_565 S
Pr1 O26 2.562 1_556 S
Pr1 O27 2.490 . S
Pr1 O28 2.695 1_665 S
Pr1 O29 2.512 . S
Pr1 O31 2.437 . S
C2 Pr0 2.880 . S
C2 C3 1.495 . S
C2 O20 1.254 1_554 S
C2 O21 1.225 . S
C3 C2 1.495 . S
C3 C4 1.415 . S
C3 C8 1.329 1_554 S
C4 C3 1.415 . S
C4 C5 1.368 . S
C4 H32 0.929 . S
C5 C4 1.368 . S
C5 C6 1.364 1_554 S
C5 H33 0.929 . S
C6 C5 1.364 1_556 S
C6 C7 1.392 . S
C7 C6 1.392 . S
C7 C8 1.409 . S
C7 H34 0.931 . S
C8 C3 1.329 1_556 S
C8 C7 1.409 . S
C8 H35 0.930 . S
C9 O22 1.270 1_455 S
C9 O23 1.248 . S
C10 O24 1.265 1_554 S
C10 O25 1.278 1_655 S
C11 Pr1 2.884 . S
C11 C12 1.488 1_556 S
C11 O26 1.234 1_556 S
C11 O27 1.248 . S
C12 C11 1.488 1_554 S
C12 C13 1.390 1_554 S
C12 C17 1.357 . S
C13 C12 1.390 1_556 S
C13 C14 1.368 . S
C13 H36 0.929 . S
C14 C13 1.368 . S
C14 C15 1.386 1_556 S
C14 H37 0.929 . S
C15 C14 1.386 1_554 S
C15 C16 1.373 . S
C16 C15 1.373 . S
C16 C17 1.409 . S
C16 H38 0.931 . S
C17 C12 1.357 . S
C17 C16 1.409 . S
C17 H39 0.930 . S
C18 O28 1.270 1_655 S
C18 O29 1.248 1_545 S
C19 O30 1.267 1_556 S
C19 O31 1.278 1_455 S
O20 Pr0 2.562 1_556 S
O20 C2 1.254 1_556 S
O21 Pr0 2.490 . S
O21 C2 1.225 . S
O22 Pr0 2.695 1_655 S
O22 Pr1 2.436 1_544 S
O22 C9 1.270 1_655 S
O23 Pr0 2.512 . S
O23 C9 1.248 . S
O24 Pr1 2.438 1_545 S
O24 C10 1.265 1_556 S
O25 Pr0 2.437 . S
O25 C10 1.278 1_455 S
O26 Pr1 2.562 1_554 S
O26 C11 1.234 1_554 S
O27 Pr1 2.490 . S
O27 C11 1.248 . S
O28 Pr0 2.436 1_556 S
O28 Pr1 2.695 1_445 S
O28 C18 1.270 1_455 S
O29 Pr1 2.512 . S
O29 C18 1.248 1_565 S
O30 Pr0 2.438 1_565 S
O30 C19 1.267 1_554 S
O31 Pr1 2.437 . S
O31 C19 1.278 1_655 S
H32 C4 0.929 . S
H33 C5 0.929 . S
H34 C7 0.931 . S
H35 C8 0.930 . S
H36 C13 0.929 . S
H37 C14 0.929 . S
H38 C16 0.931 . S
H39 C17 0.930 . S
Pr40 C42 2.880 . S
Pr40 O60 2.562 . S
Pr40 O61 2.490 . S
Pr40 O62 2.695 . S
Pr40 O63 2.512 . S
Pr40 O65 2.437 1_455 S
Pr40 O68 2.436 . S
Pr40 O70 2.438 . S
Pr41 C51 2.880 1_655 S
Pr41 O62 2.436 1_665 S
Pr41 O64 2.438 . S
Pr41 O66 2.562 1_655 S
Pr41 O67 2.490 1_655 S
Pr41 O68 2.695 1_665 S
Pr41 O69 2.512 . S
Pr41 O71 2.437 1_655 S
C42 Pr40 2.880 . S
C42 C43 1.491 1_455 S
C42 O60 1.254 . S
C42 O61 1.225 . S
C43 C42 1.491 1_655 S
C43 C44 1.392 . S
C43 C48 1.356 . S
C44 C43 1.392 . S
C44 C45 1.368 . S
C44 H72 0.929 1_655 S
C45 C44 1.368 . S
C45 C46 1.386 . S
C45 H73 0.929 . S
C46 C45 1.386 . S
C46 C47 1.373 . S
C47 C46 1.373 . S
C47 C48 1.409 . S
C47 H74 0.931 . S
C48 C43 1.356 . S
C48 C47 1.409 . S
C48 H75 0.930 . S
C49 O62 1.270 . S
C49 O63 1.248 . S
C50 O64 1.267 1_545 S
C50 O65 1.278 . S
C51 Pr41 2.880 1_455 S
C51 C52 1.491 . S
C51 O66 1.254 . S
C51 O67 1.225 . S
C52 C51 1.491 . S
C52 C53 1.392 . S
C52 C57 1.356 . S
C53 C52 1.392 . S
C53 C54 1.368 . S
C53 H76 0.929 . S
C54 C53 1.368 . S
C54 C55 1.386 . S
C54 H77 0.929 . S
C55 C54 1.386 . S
C55 C56 1.373 . S
C56 C55 1.373 . S
C56 C57 1.409 . S
C56 H78 0.931 . S
C57 C52 1.356 . S
C57 C56 1.409 . S
C57 H79 0.930 . S
C58 O68 1.270 . S
C58 O69 1.248 1_445 S
C59 O70 1.267 1_565 S
C59 O71 1.278 . S
O60 Pr40 2.562 . S
O60 C42 1.254 . S
O61 Pr40 2.490 . S
O61 C42 1.225 . S
O62 Pr40 2.695 . S
O62 Pr41 2.436 1_445 S
O62 C49 1.270 . S
O63 Pr40 2.512 . S
O63 C49 1.248 . S
O64 Pr41 2.438 . S
O64 C50 1.267 1_565 S
O65 Pr40 2.437 1_655 S
O65 C50 1.278 . S
O66 Pr41 2.562 1_455 S
O66 C51 1.254 . S
O67 Pr41 2.490 1_455 S
O67 C51 1.225 . S
O68 Pr40 2.436 . S
O68 Pr41 2.695 1_445 S
O68 C58 1.270 . S
O69 Pr41 2.512 . S
O69 C58 1.248 1_665 S
O70 Pr40 2.438 . S
O70 C59 1.267 1_545 S
O71 Pr41 2.437 1_455 S
O71 C59 1.278 . S
H72 C44 0.929 1_455 S
H73 C45 0.929 . S
H74 C47 0.931 . S
H75 C48 0.930 . S
H76 C53 0.929 . S
H77 C54 0.929 . S
H78 C56 0.931 . S
H79 C57 0.930 . S
Pr80 C82 2.880 1_455 S
Pr80 O100 2.562 1_455 S
Pr80 O101 2.490 1_455 S
Pr80 O102 2.695 1_565 S
Pr80 O103 2.512 . S
Pr80 O105 2.437 1_455 S
Pr80 O108 2.436 . S
Pr80 O110 2.438 . S
Pr81 C91 2.880 . S
Pr81 O102 2.436 . S
Pr81 O104 2.438 1_455 S
Pr81 O106 2.562 . S
Pr81 O107 2.490 . S
Pr81 O108 2.695 1_545 S
Pr81 O109 2.512 . S
Pr81 O111 2.437 . S
C82 Pr80 2.880 1_655 S
C82 C83 1.491 . S
C82 O100 1.254 . S
C82 O101 1.225 . S
C83 C82 1.491 . S
C83 C84 1.392 . S
C83 C88 1.356 . S
C84 C83 1.392 . S
C84 C85 1.368 . S
C84 H112 0.929 . S
C85 C84 1.368 . S
C85 C86 1.386 . S
C85 H113 0.929 . S
C86 C85 1.386 . S
C86 C87 1.373 . S
C87 C86 1.373 . S
C87 C88 1.409 . S
C87 H114 0.931 . S
C88 C83 1.356 . S
C88 C87 1.409 . S
C88 H115 0.930 . S
C89 O102 1.270 1_565 S
C89 O103 1.248 . S
C90 O104 1.267 . S
C90 O105 1.278 1_545 S
C91 Pr81 2.880 . S
C91 C92 1.491 . S
C91 O106 1.254 . S
C91 O107 1.225 . S
C92 C91 1.491 . S
C92 C93 1.392 . S
C92 C97 1.356 . S
C93 C92 1.392 . S
C93 C94 1.368 . S
C93 H116 0.929 . S
C94 C93 1.368 . S
C94 C95 1.386 . S
C94 H117 0.929 . S
C95 C94 1.386 . S
C95 C96 1.373 . S
C96 C95 1.373 . S
C96 C97 1.409 . S
C96 H118 0.931 . S
C97 C92 1.356 . S
C97 C96 1.409 . S
C97 H119 0.930 . S
C98 O108 1.270 1_545 S
C98 O109 1.248 . S
C99 O110 1.267 1_545 S
C99 O111 1.278 . S
O100 Pr80 2.562 1_655 S
O100 C82 1.254 . S
O101 Pr80 2.490 1_655 S
O101 C82 1.225 . S
O102 Pr80 2.695 1_545 S
O102 Pr81 2.436 . S
O102 C89 1.270 1_545 S
O103 Pr80 2.512 . S
O103 C89 1.248 . S
O104 Pr81 2.438 1_655 S
O104 C90 1.267 . S
O105 Pr80 2.437 1_655 S
O105 C90 1.278 1_565 S
O106 Pr81 2.562 . S
O106 C91 1.254 . S
O107 Pr81 2.490 . S
O107 C91 1.225 . S
O108 Pr80 2.436 . S
O108 Pr81 2.695 1_565 S
O108 C98 1.270 1_565 S
O109 Pr81 2.512 . S
O109 C98 1.248 . S
O110 Pr80 2.438 . S
O110 C99 1.267 1_565 S
O111 Pr81 2.437 . S
O111 C99 1.278 . S
H112 C84 0.929 . S
H113 C85 0.929 . S
H114 C87 0.931 . S
H115 C88 0.930 . S
H116 C93 0.929 . S
H117 C94 0.929 . S
H118 C96 0.931 . S
H119 C97 0.930 . S
H120 C126 0.930 . S
H121 C129 0.930 . S
H122 C130 0.930 . S
H123 C131 0.930 . S
H124 C134 0.930 . S
H125 C135 0.930 . S
C126 H120 0.930 . S
C126 C127 1.355 1_554 S
C126 C128 1.415 . S
C127 C126 1.355 1_556 S
C127 C129 1.419 1_655 S
C128 C126 1.415 . S
C128 C133 1.425 1_654 S
C128 C135 1.409 . S
C129 H121 0.930 . S
C129 C127 1.419 1_455 S
C129 C130 1.362 . S
C130 H122 0.930 . S
C130 C129 1.362 . S
C130 C133 1.409 . S
C131 H123 0.930 . S
C131 C132 1.355 1_556 S
C131 C133 1.415 . S
C132 C131 1.355 1_554 S
C132 C134 1.419 1_455 S
C133 C128 1.425 1_456 S
C133 C130 1.409 . S
C133 C131 1.415 . S
C134 H124 0.930 . S
C134 C132 1.419 1_655 S
C134 C135 1.362 . S
C135 H125 0.930 . S
C135 C128 1.409 . S
C135 C134 1.362 . S
H136 C142 0.930 . S
H137 C145 0.930 . S
H138 C146 0.930 . S
H139 C147 0.930 . S
H140 C150 0.930 . S
H141 C151 0.930 . S
C142 H136 0.930 . S
C142 C143 1.355 1_545 S
C142 C144 1.415 . S
C143 C142 1.355 1_565 S
C143 C145 1.419 . S
C144 C142 1.415 . S
C144 C149 1.425 1_545 S
C144 C151 1.409 . S
C145 H137 0.930 . S
C145 C143 1.419 . S
C145 C146 1.362 . S
C146 H138 0.930 . S
C146 C145 1.362 . S
C146 C149 1.409 . S
C147 H139 0.930 . S
C147 C148 1.355 1_565 S
C147 C149 1.415 . S
C148 C147 1.355 1_545 S
C148 C150 1.419 . S
C149 C144 1.425 1_565 S
C149 C146 1.409 . S
C149 C147 1.415 . S
C150 H140 0.930 . S
C150 C148 1.419 . S
C150 C151 1.362 . S
C151 H141 0.930 . S
C151 C144 1.409 . S
C151 C150 1.362 . S
H152 C158 0.930 . S
H153 C161 0.930 . S
H154 C162 0.930 . S
H155 C163 0.930 . S
H156 C166 0.930 . S
H157 C167 0.930 . S
C158 H152 0.930 . S
C158 C159 1.355 . S
C158 C160 1.415 . S
C159 C158 1.355 . S
C159 C161 1.419 . S
C160 C158 1.415 . S
C160 C165 1.425 . S
C160 C167 1.409 . S
C161 H153 0.930 . S
C161 C159 1.419 . S
C161 C162 1.362 . S
C162 H154 0.930 . S
C162 C161 1.362 . S
C162 C165 1.409 . S
C163 H155 0.930 . S
C163 C164 1.355 . S
C163 C165 1.415 . S
C164 C163 1.355 . S
C164 C166 1.419 . S
C165 C160 1.425 . S
C165 C162 1.409 . S
C165 C163 1.415 . S
C166 H156 0.930 . S
C166 C164 1.419 . S
C166 C167 1.362 . S
C167 H157 0.930 . S
C167 C160 1.409 . S
C167 C166 1.362 . S
H168 C174 0.930 . S
H169 C177 0.930 . S
H170 C178 0.930 . S
H171 C179 0.930 . S
H172 C182 0.930 . S
H173 C183 0.930 . S
C174 H168 0.930 . S
C174 C175 1.355 1_565 S
C174 C176 1.415 . S
C175 C174 1.355 1_545 S
C175 C177 1.419 . S
C176 C174 1.415 . S
C176 C181 1.425 1_565 S
C176 C183 1.409 . S
C177 H169 0.930 . S
C177 C175 1.419 . S
C177 C178 1.362 . S
C178 H170 0.930 . S
C178 C177 1.362 . S
C178 C181 1.409 . S
C179 H171 0.930 . S
C179 C180 1.351 1_545 S
C179 C181 1.415 . S
C180 C179 1.351 1_565 S
C180 C182 1.427 . S
C181 C176 1.425 1_545 S
C181 C178 1.409 . S
C181 C179 1.415 . S
C182 H172 0.930 . S
C182 C180 1.427 . S
C182 C183 1.362 . S
C183 H173 0.930 . S
C183 C176 1.409 . S
C183 C182 1.362 . S
H184 C190 0.930 . S
H185 C193 0.930 . S
H186 C194 0.930 . S
H187 C195 0.930 . S
H188 C198 0.930 . S
H189 C199 0.930 . S
C190 H184 0.930 . S
C190 C191 1.355 1_556 S
C190 C192 1.415 . S
C191 C190 1.355 1_554 S
C191 C193 1.419 . S
C192 C190 1.415 . S
C192 C197 1.425 1_556 S
C192 C199 1.409 . S
C193 H185 0.930 . S
C193 C191 1.419 . S
C193 C194 1.362 . S
C194 H186 0.930 . S
C194 C193 1.362 . S
C194 C197 1.409 . S
C195 H187 0.930 . S
C195 C196 1.355 1_554 S
C195 C197 1.415 . S
C196 C195 1.355 1_556 S
C196 C198 1.419 . S
C197 C192 1.425 1_554 S
C197 C194 1.409 . S
C197 C195 1.415 . S
C198 H188 0.930 . S
C198 C196 1.419 . S
C198 C199 1.362 . S
C199 H189 0.930 . S
C199 C192 1.409 . S
C199 C198 1.362 . S
H200 C206 0.930 . S
H201 C209 0.930 . S
H202 C210 0.930 . S
H203 C211 0.930 . S
H204 C214 0.930 . S
H205 C215 0.930 1_655 S
C206 H200 0.930 . S
C206 C207 1.355 . S
C206 C208 1.415 . S
C207 C206 1.355 . S
C207 C209 1.419 . S
C208 C206 1.415 . S
C208 C213 1.425 1_655 S
C208 C215 1.409 1_655 S
C209 H201 0.930 . S
C209 C207 1.419 . S
C209 C210 1.362 1_655 S
C210 H202 0.930 . S
C210 C209 1.362 1_455 S
C210 C213 1.409 . S
C211 H203 0.930 . S
C211 C212 1.355 . S
C211 C213 1.415 . S
C212 C211 1.355 . S
C212 C214 1.419 . S
C213 C208 1.425 1_455 S
C213 C210 1.409 . S
C213 C211 1.415 . S
C214 H204 0.930 . S
C214 C212 1.419 . S
C214 C215 1.362 . S
C215 H205 0.930 1_455 S
C215 C208 1.409 1_455 S
C215 C214 1.362 . S
H216 C222 0.926 1_655 S
H217 C225 0.930 . S
H218 C226 0.930 . S
H219 C227 0.930 . S
H220 C230 0.930 . S
H221 C231 0.930 . S
C222 H216 0.926 1_455 S
C222 C223 1.358 . S
C222 C224 1.415 . S
C223 C222 1.358 . S
C223 C225 1.419 1_545 S
C224 C222 1.415 . S
C224 C229 1.425 1_545 S
C224 C231 1.409 1_455 S
C225 H217 0.930 . S
C225 C223 1.419 1_565 S
C225 C226 1.362 . S
C226 H218 0.930 . S
C226 C225 1.362 . S
C226 C229 1.409 . S
C227 H219 0.930 . S
C227 C228 1.355 1_565 S
C227 C229 1.415 . S
C228 C227 1.355 1_545 S
C228 C230 1.419 1_455 S
C229 C224 1.425 1_565 S
C229 C226 1.409 . S
C229 C227 1.415 . S
C230 H220 0.930 . S
C230 C228 1.419 1_655 S
C230 C231 1.362 . S
C231 H221 0.930 . S
C231 C224 1.409 1_655 S
C231 C230 1.362 . S
H232 C238 0.930 . S
H233 C241 0.932 1_565 S
H234 C242 0.930 . S
H235 C243 0.930 1_565 S
H236 C246 0.930 . S
H237 C247 0.930 . S
C238 H232 0.930 . S
C238 C239 1.355 . S
C238 C240 1.415 . S
C239 C238 1.355 . S
C239 C241 1.419 1_455 S
C240 C238 1.415 . S
C240 C245 1.425 1_455 S
C240 C247 1.409 . S
C241 H233 0.932 1_545 S
C241 C239 1.419 1_655 S
C241 C242 1.362 1_545 S
C242 H234 0.930 . S
C242 C241 1.362 1_565 S
C242 C245 1.409 1_565 S
C243 H235 0.930 1_545 S
C243 C244 1.355 1_655 S
C243 C245 1.415 . S
C244 C243 1.355 1_455 S
C244 C246 1.419 . S
C245 C240 1.425 1_655 S
C245 C242 1.409 1_545 S
C245 C243 1.415 . S
C246 H236 0.930 . S
C246 C244 1.419 . S
C246 C247 1.362 . S
C247 H237 0.930 . S
C247 C240 1.409 . S
C247 C246 1.362 . S
H248 C254 0.930 . S
H249 C257 0.930 . S
H250 C258 0.930 . S
H251 C259 0.930 . S
H252 C262 0.930 . S
H253 C263 0.930 . S
C254 H248 0.930 . S
C254 C255 1.354 . S
C254 C256 1.415 . S
C255 C254 1.354 . S
C255 C257 1.420 1_545 S
C256 C254 1.415 . S
C256 C261 1.425 1_545 S
C256 C263 1.409 1_455 S
C257 H249 0.930 . S
C257 C255 1.420 1_565 S
C257 C258 1.362 . S
C258 H250 0.930 . S
C258 C257 1.362 . S
C258 C261 1.409 . S
C259 H251 0.930 . S
C259 C260 1.355 1_565 S
C259 C261 1.415 . S
C260 C259 1.355 1_545 S
C260 C262 1.419 1_455 S
C261 C256 1.425 1_565 S
C261 C258 1.409 . S
C261 C259 1.415 . S
C262 H252 0.930 . S
C262 C260 1.419 1_655 S
C262 C263 1.362 . S
C263 H253 0.930 . S
C263 C256 1.409 1_655 S
C263 C262 1.362 . S
C127 C10 4.894 1_556 S
C132 C19 4.894 1_554 S
C143 C59 3.055 . S
C148 C50 3.055 . S
C159 C86 0.554 . S
C164 C95 0.554 . S
C175 C90 2.978 . S
C180 C99 2.976 1_565 S
C191 C15 0.782 . S
C196 C6 0.788 . S
C207 C46 0.654 . S
C212 C55 0.654 . S
C223 C58 1.414 . S
C228 C9 1.430 . S
C239 C49 1.479 . S
C244 C89 1.477 1_545 S
C255 C98 1.475 . S
C260 C18 1.452 1_455 S
