# Generated by pormake.
# Topology umq, (4)-cn, num edge types: 1
# Building blocks:
#     Node 0, Type 0, BuildingBlock: NAHDIM_clean_sbu_0, # of connection points: 4
#     Node 1, Type 0, BuildingBlock: NAHDIM_clean_sbu_0, # of connection points: 4
#     Node 2, Type 0, BuildingBlock: NAHDIM_clean_sbu_0, # of connection points: 4
#     Node 3, Type 0, BuildingBlock: NAHDIM_clean_sbu_0, # of connection points: 4
#     Node 4, Type 0, BuildingBlock: NAHDIM_clean_sbu_0, # of connection points: 4
#     Node 5, Type 0, BuildingBlock: NAHDIM_clean_sbu_0, # of connection points: 4
#     Node 6, Type 0, BuildingBlock: NAHDIM_clean_sbu_0, # of connection points: 4
#     Node 7, Type 0, BuildingBlock: NAHDIM_clean_sbu_0, # of connection points: 4
#     Node 8, Type 0, BuildingBlock: NAHDIM_clean_sbu_0, # of connection points: 4
#     Node 9, Type 0, BuildingBlock: NAHDIM_clean_sbu_0, # of connection points: 4
#     Node 10, Type 0, BuildingBlock: NAHDIM_clean_sbu_0, # of connection points: 4
#     Node 11, Type 0, BuildingBlock: NAHDIM_clean_sbu_0, # of connection points: 4
#     Node 12, Type 0, BuildingBlock: NAHDIM_clean_sbu_0, # of connection points: 4
#     Node 13, Type 0, BuildingBlock: NAHDIM_clean_sbu_0, # of connection points: 4
#     Node 14, Type 0, BuildingBlock: NAHDIM_clean_sbu_0, # of connection points: 4
#     Node 15, Type 0, BuildingBlock: NAHDIM_clean_sbu_0, # of connection points: 4
#     Node 16, Type 0, BuildingBlock: NAHDIM_clean_sbu_0, # of connection points: 4
#     Node 17, Type 0, BuildingBlock: NAHDIM_clean_sbu_0, # of connection points: 4
#     Node 18, Type 0, BuildingBlock: NAHDIM_clean_sbu_0, # of connection points: 4
#     Node 19, Type 0, BuildingBlock: NAHDIM_clean_sbu_0, # of connection points: 4
#     Node 20, Type 0, BuildingBlock: NAHDIM_clean_sbu_0, # of connection points: 4
#     Node 21, Type 0, BuildingBlock: NAHDIM_clean_sbu_0, # of connection points: 4
#     Node 22, Type 0, BuildingBlock: NAHDIM_clean_sbu_0, # of connection points: 4
#     Node 23, Type 0, BuildingBlock: NAHDIM_clean_sbu_0, # of connection points: 4
#     Node 24, Type 0, BuildingBlock: NAHDIM_clean_sbu_0, # of connection points: 4
#     Node 25, Type 0, BuildingBlock: NAHDIM_clean_sbu_0, # of connection points: 4
#     Node 26, Type 0, BuildingBlock: NAHDIM_clean_sbu_0, # of connection points: 4
#     Node 27, Type 0, BuildingBlock: NAHDIM_clean_sbu_0, # of connection points: 4
#     Node 28, Type 0, BuildingBlock: NAHDIM_clean_sbu_0, # of connection points: 4
#     Node 29, Type 0, BuildingBlock: NAHDIM_clean_sbu_0, # of connection points: 4
#     Node 30, Type 0, BuildingBlock: NAHDIM_clean_sbu_0, # of connection points: 4
#     Node 31, Type 0, BuildingBlock: NAHDIM_clean_sbu_0, # of connection points: 4
#     Edge 32, Type (0, 0), BuildingBlock: CIFDUS_clean_linker_0, # of connection points: 2
#     Edge 33, Type (0, 0), BuildingBlock: CIFDUS_clean_linker_0, # of connection points: 2
#     Edge 34, Type (0, 0), BuildingBlock: CIFDUS_clean_linker_0, # of connection points: 2
#     Edge 35, Type (0, 0), BuildingBlock: CIFDUS_clean_linker_0, # of connection points: 2
#     Edge 36, Type (0, 0), BuildingBlock: CIFDUS_clean_linker_0, # of connection points: 2
#     Edge 37, Type (0, 0), BuildingBlock: CIFDUS_clean_linker_0, # of connection points: 2
#     Edge 38, Type (0, 0), BuildingBlock: CIFDUS_clean_linker_0, # of connection points: 2
#     Edge 39, Type (0, 0), BuildingBlock: CIFDUS_clean_linker_0, # of connection points: 2
#     Edge 40, Type (0, 0), BuildingBlock: CIFDUS_clean_linker_0, # of connection points: 2
#     Edge 41, Type (0, 0), BuildingBlock: CIFDUS_clean_linker_0, # of connection points: 2
#     Edge 42, Type (0, 0), BuildingBlock: CIFDUS_clean_linker_0, # of connection points: 2
#     Edge 43, Type (0, 0), BuildingBlock: CIFDUS_clean_linker_0, # of connection points: 2
#     Edge 44, Type (0, 0), BuildingBlock: CIFDUS_clean_linker_0, # of connection points: 2
#     Edge 45, Type (0, 0), BuildingBlock: CIFDUS_clean_linker_0, # of connection points: 2
#     Edge 46, Type (0, 0), BuildingBlock: CIFDUS_clean_linker_0, # of connection points: 2
#     Edge 47, Type (0, 0), BuildingBlock: CIFDUS_clean_linker_0, # of connection points: 2
#     Edge 48, Type (0, 0), BuildingBlock: CIFDUS_clean_linker_0, # of connection points: 2
#     Edge 49, Type (0, 0), BuildingBlock: CIFDUS_clean_linker_0, # of connection points: 2
#     Edge 50, Type (0, 0), BuildingBlock: CIFDUS_clean_linker_0, # of connection points: 2
#     Edge 51, Type (0, 0), BuildingBlock: CIFDUS_clean_linker_0, # of connection points: 2
#     Edge 52, Type (0, 0), BuildingBlock: CIFDUS_clean_linker_0, # of connection points: 2
#     Edge 53, Type (0, 0), BuildingBlock: CIFDUS_clean_linker_0, # of connection points: 2
#     Edge 54, Type (0, 0), BuildingBlock: CIFDUS_clean_linker_0, # of connection points: 2
#     Edge 55, Type (0, 0), BuildingBlock: CIFDUS_clean_linker_0, # of connection points: 2
#     Edge 56, Type (0, 0), BuildingBlock: CIFDUS_clean_linker_0, # of connection points: 2
#     Edge 57, Type (0, 0), BuildingBlock: CIFDUS_clean_linker_0, # of connection points: 2
#     Edge 58, Type (0, 0), BuildingBlock: CIFDUS_clean_linker_0, # of connection points: 2
#     Edge 59, Type (0, 0), BuildingBlock: CIFDUS_clean_linker_0, # of connection points: 2
#     Edge 60, Type (0, 0), BuildingBlock: CIFDUS_clean_linker_0, # of connection points: 2
#     Edge 61, Type (0, 0), BuildingBlock: CIFDUS_clean_linker_0, # of connection points: 2
#     Edge 62, Type (0, 0), BuildingBlock: CIFDUS_clean_linker_0, # of connection points: 2
#     Edge 63, Type (0, 0), BuildingBlock: CIFDUS_clean_linker_0, # of connection points: 2
#     Edge 64, Type (0, 0), BuildingBlock: CIFDUS_clean_linker_0, # of connection points: 2
#     Edge 65, Type (0, 0), BuildingBlock: CIFDUS_clean_linker_0, # of connection points: 2
#     Edge 66, Type (0, 0), BuildingBlock: CIFDUS_clean_linker_0, # of connection points: 2
#     Edge 67, Type (0, 0), BuildingBlock: CIFDUS_clean_linker_0, # of connection points: 2
#     Edge 68, Type (0, 0), BuildingBlock: CIFDUS_clean_linker_0, # of connection points: 2
#     Edge 69, Type (0, 0), BuildingBlock: CIFDUS_clean_linker_0, # of connection points: 2
#     Edge 70, Type (0, 0), BuildingBlock: CIFDUS_clean_linker_0, # of connection points: 2
#     Edge 71, Type (0, 0), BuildingBlock: CIFDUS_clean_linker_0, # of connection points: 2
#     Edge 72, Type (0, 0), BuildingBlock: CIFDUS_clean_linker_0, # of connection points: 2
#     Edge 73, Type (0, 0), BuildingBlock: CIFDUS_clean_linker_0, # of connection points: 2
#     Edge 74, Type (0, 0), BuildingBlock: CIFDUS_clean_linker_0, # of connection points: 2
#     Edge 75, Type (0, 0), BuildingBlock: CIFDUS_clean_linker_0, # of connection points: 2
#     Edge 76, Type (0, 0), BuildingBlock: CIFDUS_clean_linker_0, # of connection points: 2
#     Edge 77, Type (0, 0), BuildingBlock: CIFDUS_clean_linker_0, # of connection points: 2
#     Edge 78, Type (0, 0), BuildingBlock: CIFDUS_clean_linker_0, # of connection points: 2
#     Edge 79, Type (0, 0), BuildingBlock: CIFDUS_clean_linker_0, # of connection points: 2
#     Edge 80, Type (0, 0), BuildingBlock: CIFDUS_clean_linker_0, # of connection points: 2
#     Edge 81, Type (0, 0), BuildingBlock: CIFDUS_clean_linker_0, # of connection points: 2
#     Edge 82, Type (0, 0), BuildingBlock: CIFDUS_clean_linker_0, # of connection points: 2
#     Edge 83, Type (0, 0), BuildingBlock: CIFDUS_clean_linker_0, # of connection points: 2
#     Edge 84, Type (0, 0), BuildingBlock: CIFDUS_clean_linker_0, # of connection points: 2
#     Edge 85, Type (0, 0), BuildingBlock: CIFDUS_clean_linker_0, # of connection points: 2
#     Edge 86, Type (0, 0), BuildingBlock: CIFDUS_clean_linker_0, # of connection points: 2
#     Edge 87, Type (0, 0), BuildingBlock: CIFDUS_clean_linker_0, # of connection points: 2
#     Edge 88, Type (0, 0), BuildingBlock: CIFDUS_clean_linker_0, # of connection points: 2
#     Edge 89, Type (0, 0), BuildingBlock: CIFDUS_clean_linker_0, # of connection points: 2
#     Edge 90, Type (0, 0), BuildingBlock: CIFDUS_clean_linker_0, # of connection points: 2
#     Edge 91, Type (0, 0), BuildingBlock: CIFDUS_clean_linker_0, # of connection points: 2
#     Edge 92, Type (0, 0), BuildingBlock: CIFDUS_clean_linker_0, # of connection points: 2
#     Edge 93, Type (0, 0), BuildingBlock: CIFDUS_clean_linker_0, # of connection points: 2
#     Edge 94, Type (0, 0), BuildingBlock: CIFDUS_clean_linker_0, # of connection points: 2
#     Edge 95, Type (0, 0), BuildingBlock: CIFDUS_clean_linker_0, # of connection points: 2
# Relax obj value: 0.091
# Max RMSD: 0.105
# Mean RMSD: 0.105
data_MOF--net-umq--node1-NAHDIM_clean_sbu_0--edge1-CIFDUS_clean_linker_0
_symmetry_space_group_name_H-M    P1
_symmetry_Int_Tables_number       1
_symmetry_cell_setting            triclinic
loop_
_symmetry_equiv_pos_as_xyz
'x, y, z'
_cell_length_a     59.123647
_cell_length_b     59.098054
_cell_length_c     37.871143
_cell_angle_alpha  89.997464
_cell_angle_beta   90.080553
_cell_angle_gamma 89.985352
loop_
_atom_site_label
_atom_site_type_symbol
_atom_site_fract_x
_atom_site_fract_y
_atom_site_fract_z
_atom_type_partial_charge
C0 C 0.26636 0.04484 0.19267 0.0
O1 O 0.27236 0.04736 0.15952 0.0
O2 O 0.24652 0.09217 0.1377 0.0
Zn3 Zn 0.25571 0.09287 0.18902 0.0
O4 O 0.23298 0.11091 0.21667 0.0
C5 C 0.28622 0.12781 0.17454 0.0
O6 O 0.26839 0.13409 0.15624 0.0
O7 O 0.2589 0.06175 0.2098 0.0
C8 C 0.21176 0.10776 0.21467 0.0
O9 O 0.20392 0.09161 0.19422 0.0
C10 C 0.23379 0.07804 0.12201 0.0
O11 O 0.22496 0.06114 0.13982 0.0
O12 O 0.2853 0.10951 0.19208 0.0
C13 C 0.94755 0.21531 0.19467 0.0
O14 O 0.93815 0.1952 0.19279 0.0
O15 O 0.90688 0.22791 0.109 0.0
Zn16 Zn 0.90558 0.22978 0.16211 0.0
O17 O 0.889 0.20308 0.18269 0.0
C18 C 0.88648 0.27531 0.15765 0.0
O19 O 0.89771 0.27658 0.1278 0.0
O20 O 0.93689 0.23235 0.18272 0.0
C21 C 0.88447 0.20399 0.21545 0.0
O22 O 0.89176 0.22138 0.23385 0.0
C23 C 0.90382 0.20982 0.09146 0.0
O24 O 0.89999 0.19079 0.10836 0.0
O25 O 0.88775 0.25736 0.17603 0.0
C26 C 0.77469 0.93314 0.2163 0.0
O27 O 0.79259 0.92073 0.20943 0.0
O28 O 0.75356 0.90051 0.1299 0.0
Zn29 Zn 0.75311 0.89558 0.18257 0.0
O30 O 0.77897 0.87539 0.19709 0.0
C31 C 0.70681 0.88017 0.17589 0.0
O32 O 0.70641 0.8946 0.1495 0.0
O33 O 0.75526 0.92573 0.20766 0.0
C34 C 0.78331 0.85753 0.17971 0.0
O35 O 0.77128 0.85292 0.15141 0.0
C36 C 0.7701 0.90926 0.11345 0.0
O37 O 0.78817 0.91547 0.13119 0.0
O38 O 0.72454 0.87871 0.19478 0.0
C39 C 0.04796 0.74623 0.18914 0.0
O40 O 0.04778 0.74619 0.15446 0.0
O41 O 0.0922 0.75562 0.12791 0.0
Zn42 Zn 0.09647 0.75248 0.1805 0.0
O43 O 0.11201 0.77993 0.2003 0.0
C44 C 0.11629 0.70766 0.17308 0.0
O45 O 0.10086 0.70504 0.14841 0.0
O46 O 0.06667 0.74833 0.20539 0.0
C47 C 0.12921 0.78817 0.18488 0.0
O48 O 0.13595 0.7792 0.15494 0.0
C49 C 0.08637 0.77411 0.11334 0.0
O50 O 0.0828 0.79202 0.13312 0.0
O51 O 0.11703 0.72611 0.19024 0.0
C52 C 0.26194 0.93471 0.31375 0.0
O53 O 0.26496 0.93276 0.34798 0.0
O54 O 0.24059 0.8943 0.3725 0.0
Zn55 Zn 0.24558 0.8889 0.32063 0.0
O56 O 0.21817 0.87565 0.29646 0.0
C57 C 0.26543 0.84736 0.33458 0.0
O58 O 0.24561 0.8458 0.35006 0.0
O59 O 0.25446 0.9179 0.29637 0.0
C60 C 0.20079 0.86793 0.3121 0.0
O61 O 0.19952 0.86922 0.34666 0.0
C62 C 0.2258 0.90626 0.38808 0.0
O63 O 0.21043 0.91707 0.36951 0.0
O64 O 0.27027 0.86549 0.31814 0.0
C65 C 0.0657 0.21184 0.2974 0.0
O66 O 0.07555 0.1946 0.31301 0.0
O67 O 0.10281 0.23484 0.37379 0.0
Zn68 Zn 0.10611 0.23337 0.32081 0.0
O69 O 0.12492 0.20646 0.30698 0.0
C70 C 0.12507 0.27872 0.3225 0.0
O71 O 0.11436 0.27998 0.35282 0.0
O72 O 0.07559 0.23094 0.29745 0.0
C73 C 0.14573 0.2061 0.31537 0.0
O74 O 0.15406 0.2229 0.33405 0.0
C75 C 0.10454 0.21769 0.39386 0.0
O76 O 0.10811 0.19768 0.37983 0.0
O77 O 0.12306 0.26094 0.30388 0.0
C78 C 0.77078 0.05779 0.29819 0.0
O79 O 0.79126 0.06556 0.30408 0.0
O80 O 0.76107 0.09831 0.38069 0.0
Zn81 Zn 0.75847 0.10098 0.32768 0.0
O82 O 0.78652 0.11596 0.30856 0.0
C83 C 0.71426 0.12259 0.33365 0.0
O84 O 0.71186 0.10917 0.36105 0.0
O85 O 0.75388 0.07012 0.30593 0.0
C86 C 0.79418 0.13296 0.32529 0.0
O87 O 0.784 0.13936 0.35445 0.0
C88 C 0.77833 0.09005 0.39609 0.0
O89 O 0.7952 0.08237 0.377 0.0
O90 O 0.73233 0.12152 0.31556 0.0
C91 C 0.94424 0.74612 0.32385 0.0
O92 O 0.94422 0.74326 0.35825 0.0
O93 O 0.90199 0.76096 0.38583 0.0
Zn94 Zn 0.89647 0.75425 0.33442 0.0
O95 O 0.87833 0.77958 0.31288 0.0
C96 C 0.88225 0.70905 0.35195 0.0
O97 O 0.89876 0.71074 0.37506 0.0
O98 O 0.92581 0.75081 0.30818 0.0
C99 C 0.87035 0.77745 0.28188 0.0
O100 O 0.87448 0.75877 0.26421 0.0
C101 C 0.88495 0.76481 0.40532 0.0
O102 O 0.86471 0.76502 0.39091 0.0
O103 O 0.87841 0.72548 0.33112 0.0
C104 C 0.78529 0.96102 0.8046 0.0
O105 O 0.80492 0.95141 0.81094 0.0
O106 O 0.76683 0.92229 0.88886 0.0
Zn107 Zn 0.76762 0.91995 0.83574 0.0
O108 O 0.79496 0.90188 0.82105 0.0
C109 C 0.72184 0.90131 0.8338 0.0
O110 O 0.71882 0.91258 0.86332 0.0
O111 O 0.76726 0.95076 0.81325 0.0
C112 C 0.79994 0.88451 0.83929 0.0
O113 O 0.78789 0.87991 0.86752 0.0
C114 C 0.78401 0.92925 0.90591 0.0
O115 O 0.802 0.93581 0.88837 0.0
O116 O 0.74081 0.90244 0.8182 0.0
C117 C 0.04927 0.73416 0.81079 0.0
O118 O 0.05113 0.718 0.83444 0.0
O119 O 0.08888 0.74384 0.88517 0.0
Zn120 Zn 0.09492 0.74523 0.83295 0.0
O121 O 0.11419 0.77244 0.82253 0.0
C122 C 0.13051 0.71471 0.8384 0.0
O123 O 0.13465 0.72911 0.86405 0.0
O124 O 0.06585 0.74741 0.8057 0.0
C125 C 0.11403 0.78138 0.79202 0.0
O126 O 0.10065 0.77297 0.76761 0.0
C127 C 0.08548 0.76154 0.90346 0.0
O128 O 0.08483 0.78131 0.8876 0.0
O129 O 0.11301 0.71769 0.81943 0.0
C130 C 0.21142 0.05025 0.81315 0.0
O131 O 0.19378 0.0627 0.82127 0.0
O132 O 0.2252 0.08541 0.89808 0.0
Zn133 Zn 0.23446 0.08693 0.84685 0.0
O134 O 0.21738 0.11068 0.81981 0.0
C135 C 0.28003 0.09915 0.87058 0.0
O136 O 0.27372 0.09112 0.90138 0.0
O137 O 0.23102 0.057 0.82208 0.0
C138 C 0.1971 0.11744 0.82307 0.0
O139 O 0.18402 0.10839 0.84726 0.0
C140 C 0.21886 0.06742 0.91361 0.0
O141 O 0.21653 0.0487 0.89529 0.0
O142 O 0.26664 0.09766 0.8444 0.0
C143 C 0.93971 0.24723 0.78557 0.0
O144 O 0.92956 0.22786 0.79174 0.0
O145 O 0.9032 0.25503 0.86946 0.0
Zn146 Zn 0.89959 0.26196 0.81767 0.0
O147 O 0.88314 0.2373 0.79151 0.0
C148 C 0.88383 0.30646 0.83579 0.0
O149 O 0.89934 0.30452 0.86049 0.0
O150 O 0.93016 0.26546 0.79526 0.0
C151 C 0.86331 0.2306 0.79889 0.0
O152 O 0.85263 0.23966 0.82582 0.0
C153 C 0.90188 0.23579 0.8843 0.0
O154 O 0.89804 0.21771 0.86503 0.0
O155 O 0.88143 0.29057 0.81347 0.0
C156 C 0.75951 0.07822 0.70741 0.0
O157 O 0.77841 0.08914 0.70101 0.0
O158 O 0.7525 0.11309 0.62225 0.0
Zn159 Zn 0.74395 0.11729 0.67343 0.0
O160 O 0.76558 0.13658 0.70148 0.0
C161 C 0.71912 0.15332 0.65271 0.0
O162 O 0.73976 0.15663 0.64095 0.0
O163 O 0.74089 0.08706 0.69768 0.0
C164 C 0.78496 0.1439 0.6927 0.0
O165 O 0.79339 0.13846 0.66177 0.0
C166 C 0.76746 0.10188 0.60574 0.0
O167 O 0.78237 0.08985 0.62335 0.0
O168 O 0.71515 0.1356 0.67081 0.0
C169 C 0.94169 0.77234 0.69774 0.0
O170 O 0.93928 0.79002 0.67702 0.0
O171 O 0.89544 0.76996 0.63049 0.0
Zn172 Zn 0.89421 0.76721 0.68339 0.0
O173 O 0.88233 0.79616 0.70404 0.0
C174 C 0.87539 0.7225 0.68308 0.0
O175 O 0.89352 0.71834 0.66413 0.0
O176 O 0.92466 0.75989 0.70395 0.0
C177 C 0.87845 0.7971 0.73699 0.0
O178 O 0.88318 0.7794 0.75666 0.0
C179 C 0.8767 0.77394 0.61523 0.0
O180 O 0.85849 0.77653 0.63467 0.0
O181 O 0.8723 0.74234 0.69503 0.0
C182 C 0.21566 0.9355 0.70222 0.0
O183 O 0.19533 0.92898 0.69252 0.0
O184 O 0.22569 0.90365 0.61223 0.0
Zn185 Zn 0.22798 0.89587 0.66365 0.0
O186 O 0.19999 0.87934 0.67895 0.0
C187 C 0.25208 0.85584 0.65267 0.0
O188 O 0.2335 0.85224 0.6344 0.0
O189 O 0.23266 0.92383 0.69282 0.0
C190 C 0.19873 0.87223 0.71053 0.0
O191 O 0.21533 0.8768 0.73252 0.0
C192 C 0.208 0.91075 0.59666 0.0
O193 O 0.18948 0.91425 0.61501 0.0
O194 O 0.25421 0.87448 0.66907 0.0
C195 C 0.05609 0.22655 0.68454 0.0
O196 O 0.06396 0.20749 0.67158 0.0
O197 O 0.10217 0.23284 0.61824 0.0
Zn198 Zn 0.10111 0.23848 0.67079 0.0
O199 O 0.11266 0.21182 0.69841 0.0
C200 C 0.11708 0.28503 0.67087 0.0
O201 O 0.10001 0.28851 0.64929 0.0
O202 O 0.06913 0.2436 0.68614 0.0
C203 C 0.1337 0.20812 0.70177 0.0
O204 O 0.14813 0.22141 0.68548 0.0
C205 C 0.10449 0.21323 0.60489 0.0
O206 O 0.10647 0.19566 0.62592 0.0
O207 O 0.12041 0.2653 0.6831 0.0
C208 C 0.72825 0.56238 0.69217 0.0
O209 O 0.71276 0.56703 0.66834 0.0
O210 O 0.7396 0.60332 0.62343 0.0
Zn211 Zn 0.74075 0.60768 0.67614 0.0
O212 O 0.7132 0.62406 0.69416 0.0
C213 C 0.78737 0.62059 0.67349 0.0
O214 O 0.78867 0.60193 0.65473 0.0
O215 O 0.74272 0.57744 0.70012 0.0
C216 C 0.71212 0.64552 0.69306 0.0
O217 O 0.72887 0.65687 0.67873 0.0
C218 C 0.72201 0.60505 0.60431 0.0
O219 O 0.70251 0.60979 0.61918 0.0
O220 O 0.76844 0.62621 0.68671 0.0
C221 C 0.44867 0.76081 0.68643 0.0
O222 O 0.44821 0.7584 0.65198 0.0
O223 O 0.40395 0.74646 0.62848 0.0
Zn224 Zn 0.4004 0.75176 0.68091 0.0
O225 O 0.38672 0.72504 0.70638 0.0
C226 C 0.35985 0.77505 0.67006 0.0
O227 O 0.3566 0.75631 0.6521 0.0
O228 O 0.43036 0.75919 0.70381 0.0
C229 C 0.37556 0.70908 0.69213 0.0
O230 O 0.3729 0.70879 0.6577 0.0
C231 C 0.41215 0.72937 0.61265 0.0
O232 O 0.4197 0.71212 0.63111 0.0
O233 O 0.37855 0.77772 0.68616 0.0
C234 C 0.26213 0.44621 0.71276 0.0
O235 O 0.27724 0.44104 0.68865 0.0
O236 O 0.24969 0.4103 0.64081 0.0
Zn237 Zn 0.24718 0.40286 0.69255 0.0
O238 O 0.27282 0.38303 0.70915 0.0
C239 C 0.2007 0.39048 0.68089 0.0
O240 O 0.20102 0.4085 0.66058 0.0
O241 O 0.24677 0.43191 0.72003 0.0
C242 C 0.27337 0.36254 0.699 0.0
O243 O 0.25775 0.3553 0.67703 0.0
C244 C 0.26577 0.40496 0.62022 0.0
O245 O 0.28328 0.39386 0.63271 0.0
O246 O 0.21826 0.38546 0.69864 0.0
C247 C 0.54175 0.26003 0.67069 0.0
O248 O 0.54696 0.24071 0.65556 0.0
O249 O 0.57946 0.2765 0.58964 0.0
Zn250 Zn 0.58463 0.27442 0.64212 0.0
O251 O 0.60536 0.29884 0.66038 0.0
C252 C 0.61853 0.24246 0.63472 0.0
O253 O 0.62478 0.25881 0.61333 0.0
O254 O 0.5553 0.2766 0.66812 0.0
C255 C 0.61406 0.29485 0.69047 0.0
O256 O 0.60859 0.27606 0.70693 0.0
C257 C 0.58768 0.29169 0.56969 0.0
O258 O 0.59952 0.30823 0.58369 0.0
O259 O 0.60007 0.24461 0.65148 0.0
C260 C 0.7438 0.44972 0.80619 0.0
O261 O 0.75801 0.44544 0.83204 0.0
O262 O 0.72687 0.40458 0.8702 0.0
Zn263 Zn 0.73104 0.40313 0.81714 0.0
O264 O 0.70711 0.38384 0.79413 0.0
C265 C 0.77749 0.38876 0.82837 0.0
O266 O 0.77559 0.40036 0.85781 0.0
O267 O 0.73048 0.43421 0.79578 0.0
C268 C 0.70836 0.36252 0.79815 0.0
O269 O 0.72466 0.35409 0.81778 0.0
C270 C 0.71162 0.39384 0.88691 0.0
O271 O 0.69658 0.38203 0.86925 0.0
O272 O 0.76094 0.38824 0.80693 0.0
C273 C 0.55544 0.77401 0.81403 0.0
O274 O 0.55673 0.78217 0.84623 0.0
O275 O 0.60318 0.75569 0.87238 0.0
Zn276 Zn 0.60377 0.76712 0.82239 0.0
O277 O 0.62593 0.74889 0.79387 0.0
C278 C 0.62802 0.80746 0.80192 0.0
O279 O 0.63206 0.79576 0.77311 0.0
O280 O 0.57322 0.76661 0.79917 0.0
C281 C 0.62421 0.7277 0.78888 0.0
O282 O 0.6071 0.71672 0.80287 0.0
C283 C 0.58906 0.74279 0.88766 0.0
O284 O 0.57198 0.73441 0.86972 0.0
O285 O 0.61545 0.79897 0.82563 0.0
C286 C 0.25296 0.5591 0.82772 0.0
O287 O 0.24034 0.56345 0.85543 0.0
O288 O 0.28164 0.59408 0.89563 0.0
Zn289 Zn 0.27417 0.60181 0.84533 0.0
O290 O 0.29901 0.61899 0.82106 0.0
C291 C 0.23057 0.62418 0.82673 0.0
O292 O 0.22983 0.61156 0.7982 0.0
O293 O 0.26791 0.57332 0.81838 0.0
C294 C 0.3073 0.63693 0.83424 0.0
O295 O 0.30033 0.64375 0.8654 0.0
C296 C 0.30072 0.59314 0.91102 0.0
O297 O 0.31928 0.59699 0.89298 0.0
O298 O 0.24704 0.62216 0.84807 0.0
C299 C 0.42505 0.25402 0.77591 0.0
O300 O 0.42005 0.27347 0.7908 0.0
O301 O 0.39349 0.24959 0.85948 0.0
Zn302 Zn 0.38419 0.24154 0.80986 0.0
O303 O 0.36466 0.26585 0.78826 0.0
C304 C 0.36816 0.19776 0.83475 0.0
O305 O 0.38213 0.20129 0.86118 0.0
O306 O 0.41187 0.23732 0.78033 0.0
C307 C 0.35363 0.26108 0.76041 0.0
O308 O 0.35562 0.24073 0.74677 0.0
C309 C 0.38851 0.26806 0.87478 0.0
O310 O 0.37671 0.28339 0.85767 0.0
O311 O 0.36655 0.21246 0.81037 0.0
C312 C 0.28205 0.43579 0.31281 0.0
O313 O 0.30047 0.42536 0.32343 0.0
O314 O 0.27338 0.39675 0.38826 0.0
Zn315 Zn 0.26303 0.39491 0.33788 0.0
O316 O 0.28449 0.3748 0.31143 0.0
C317 C 0.22439 0.36918 0.31253 0.0
O318 O 0.23704 0.36628 0.28439 0.0
O319 O 0.26309 0.42592 0.31629 0.0
C320 C 0.28867 0.35521 0.32361 0.0
O321 O 0.27859 0.34868 0.35277 0.0
C322 C 0.26203 0.40846 0.41004 0.0
O323 O 0.24431 0.41973 0.3986 0.0
O324 O 0.23181 0.38125 0.33779 0.0
C325 C 0.5524 0.25209 0.29108 0.0
O326 O 0.55246 0.25457 0.32555 0.0
O327 O 0.59608 0.2688 0.34876 0.0
Zn328 Zn 0.60096 0.25831 0.29855 0.0
O329 O 0.61747 0.28224 0.27083 0.0
C330 C 0.61552 0.21469 0.32305 0.0
O331 O 0.59822 0.21752 0.34434 0.0
O332 O 0.57106 0.25256 0.27446 0.0
C333 C 0.63842 0.28599 0.27555 0.0
O334 O 0.64953 0.27392 0.29899 0.0
C335 C 0.60015 0.28864 0.3601 0.0
O336 O 0.60773 0.30408 0.33818 0.0
O337 O 0.61977 0.22983 0.30013 0.0
C338 C 0.72225 0.55796 0.30065 0.0
O339 O 0.70296 0.5669 0.31074 0.0
O340 O 0.73292 0.59764 0.38005 0.0
Zn341 Zn 0.73807 0.59994 0.32757 0.0
O342 O 0.7125 0.61706 0.30497 0.0
C343 C 0.78325 0.6179 0.33938 0.0
O344 O 0.78318 0.60433 0.36686 0.0
O345 O 0.7404 0.56904 0.30556 0.0
C346 C 0.71424 0.62281 0.27277 0.0
O347 O 0.73239 0.61682 0.25508 0.0
C348 C 0.71344 0.59951 0.39393 0.0
O349 O 0.69573 0.60239 0.37342 0.0
O350 O 0.76626 0.61812 0.31882 0.0
C351 C 0.45132 0.72168 0.31434 0.0
O352 O 0.45012 0.7061 0.33901 0.0
O353 O 0.41072 0.7274 0.38766 0.0
Zn354 Zn 0.40521 0.73057 0.33539 0.0
O355 O 0.38758 0.70409 0.31638 0.0
C356 C 0.3661 0.75732 0.34086 0.0
O357 O 0.35981 0.73894 0.35774 0.0
O358 O 0.43424 0.73417 0.30847 0.0
C359 C 0.37955 0.70635 0.28544 0.0
O360 O 0.38421 0.72487 0.26768 0.0
C361 C 0.41255 0.70877 0.40419 0.0
O362 O 0.41159 0.68964 0.38656 0.0
O363 O 0.38598 0.75825 0.32826 0.0
C364 C 0.26971 0.55641 0.21967 0.0
O365 O 0.28951 0.56483 0.21102 0.0
O366 O 0.25961 0.58965 0.13306 0.0
Zn367 Zn 0.25444 0.59638 0.18447 0.0
O368 O 0.27992 0.61546 0.20338 0.0
C369 C 0.20857 0.60918 0.16908 0.0
O370 O 0.20983 0.59155 0.14802 0.0
O371 O 0.25191 0.56721 0.21133 0.0
C372 C 0.28461 0.63372 0.18725 0.0
O373 O 0.27279 0.63921 0.15912 0.0
C374 C 0.27882 0.58816 0.11822 0.0
O375 O 0.29727 0.59061 0.13719 0.0
O376 O 0.22552 0.6142 0.18821 0.0
C377 C 0.44799 0.25436 0.15741 0.0
O378 O 0.44764 0.25165 0.12298 0.0
O379 O 0.40677 0.27661 0.0966 0.0
Zn380 Zn 0.40122 0.26805 0.1473 0.0
O381 O 0.38447 0.29256 0.17326 0.0
C382 C 0.3816 0.22296 0.16299 0.0
O383 O 0.39833 0.21987 0.18535 0.0
O384 O 0.43016 0.26092 0.17306 0.0
C385 C 0.37619 0.28733 0.20311 0.0
O386 O 0.37995 0.26698 0.2158 0.0
C387 C 0.39528 0.29182 0.08103 0.0
O388 O 0.38084 0.30393 0.09938 0.0
O389 O 0.38046 0.24124 0.14546 0.0
C390 C 0.74309 0.44199 0.19724 0.0
O391 O 0.7238 0.43301 0.18725 0.0
O392 O 0.74784 0.40973 0.11216 0.0
Zn393 Zn 0.75916 0.40301 0.16127 0.0
O394 O 0.739 0.38082 0.187 0.0
C395 C 0.79701 0.375 0.17988 0.0
O396 O 0.78532 0.37263 0.20913 0.0
O397 O 0.76141 0.43204 0.18907 0.0
C398 C 0.71789 0.37778 0.1827 0.0
O399 O 0.70687 0.39013 0.1595 0.0
C400 C 0.74042 0.39405 0.09231 0.0
O401 O 0.73926 0.3733 0.10461 0.0
O402 O 0.78962 0.38819 0.15601 0.0
C403 C 0.55302 0.74958 0.18272 0.0
O404 O 0.55377 0.76376 0.15603 0.0
O405 O 0.59503 0.73607 0.11118 0.0
Zn406 Zn 0.59968 0.73976 0.1635 0.0
O407 O 0.62022 0.71517 0.18114 0.0
C408 C 0.61124 0.78669 0.15225 0.0
O409 O 0.59634 0.78477 0.12665 0.0
O410 O 0.57041 0.73789 0.19018 0.0
C411 C 0.63726 0.70881 0.16331 0.0
O412 O 0.64123 0.71831 0.13257 0.0
C413 C 0.57935 0.72505 0.09595 0.0
O414 O 0.56404 0.71461 0.11506 0.0
O415 O 0.61503 0.76975 0.1721 0.0
H416 H 0.3762 0.18337 0.19946 0.0
H417 H 0.34554 0.22475 0.11841 0.0
H418 H 0.31391 0.19862 0.1143 0.0
H419 H 0.29415 0.16499 0.13493 0.0
H420 H 0.3241 0.12315 0.21586 0.0
H421 H 0.35683 0.14845 0.21862 0.0
C422 C 0.36267 0.18659 0.18077 0.0
C423 C 0.36323 0.20609 0.15947 0.0
C424 C 0.34434 0.17147 0.17855 0.0
C425 C 0.34555 0.20996 0.1353 0.0
C426 C 0.3274 0.19502 0.13289 0.0
C427 C 0.30784 0.16133 0.15316 0.0
C428 C 0.3066 0.14231 0.17531 0.0
C429 C 0.3265 0.17589 0.15464 0.0
C430 C 0.32461 0.13773 0.19854 0.0
C431 C 0.34331 0.1522 0.20017 0.0
H432 H 0.87569 0.3136 0.1212 0.0
H433 H 0.86284 0.27859 0.21924 0.0
H434 H 0.83541 0.30743 0.23598 0.0
H435 H 0.81322 0.34109 0.22117 0.0
H436 H 0.82505 0.37562 0.12246 0.0
H437 H 0.85488 0.34862 0.10786 0.0
C438 C 0.86704 0.31238 0.14637 0.0
C439 C 0.87122 0.29384 0.16877 0.0
C440 C 0.85104 0.32892 0.15572 0.0
C441 C 0.85987 0.29257 0.20133 0.0
C442 C 0.84416 0.30907 0.21097 0.0
C443 C 0.82247 0.34289 0.19663 0.0
C444 C 0.81678 0.36028 0.17287 0.0
C445 C 0.83934 0.3271 0.18812 0.0
C446 C 0.829 0.36234 0.14119 0.0
C447 C 0.84604 0.34686 0.13276 0.0
H448 H 0.64396 0.79569 0.20098 0.0
H449 H 0.60963 0.8245 0.11085 0.0
H450 H 0.63494 0.85708 0.1123 0.0
H451 H 0.66874 0.87581 0.13597 0.0
H452 H 0.70354 0.84663 0.22536 0.0
H453 H 0.67595 0.81598 0.22758 0.0
C454 C 0.64186 0.80919 0.18185 0.0
C455 C 0.62506 0.80749 0.15561 0.0
C456 C 0.65661 0.82781 0.18259 0.0
C457 C 0.62249 0.82525 0.13121 0.0
C458 C 0.63699 0.84391 0.13197 0.0
C459 C 0.67015 0.86292 0.15624 0.0
C460 C 0.68835 0.86344 0.18022 0.0
C461 C 0.65441 0.84513 0.15707 0.0
C462 C 0.6898 0.84662 0.20641 0.0
C463 C 0.67405 0.82902 0.20765 0.0
H464 H 0.20092 0.64682 0.20865 0.0
H465 H 0.17095 0.60514 0.1275 0.0
H466 H 0.13915 0.63133 0.1228 0.0
H467 H 0.12089 0.66714 0.13944 0.0
H468 H 0.1512 0.70886 0.22027 0.0
H469 H 0.18171 0.6815 0.22742 0.0
C470 C 0.18737 0.64335 0.19009 0.0
C471 C 0.18843 0.6241 0.16831 0.0
C472 C 0.1692 0.65855 0.18734 0.0
C473 C 0.17064 0.61985 0.14454 0.0
C474 C 0.15244 0.63485 0.14177 0.0
C475 C 0.13407 0.67018 0.1588 0.0
C476 C 0.13379 0.69012 0.17908 0.0
C477 C 0.15171 0.65442 0.16268 0.0
C478 C 0.151 0.69372 0.20416 0.0
C479 C 0.16851 0.67809 0.20827 0.0
H480 H 0.30891 0.84563 0.31014 0.0
H481 H 0.25856 0.80655 0.36581 0.0
H482 H 0.28521 0.77549 0.37252 0.0
H483 H 0.32271 0.75942 0.36331 0.0
H484 H 0.37351 0.79796 0.3079 0.0
H485 H 0.34677 0.82919 0.30043 0.0
C486 C 0.30376 0.83029 0.32363 0.0
C487 C 0.28176 0.82848 0.33746 0.0
C488 C 0.31925 0.81239 0.32756 0.0
C489 C 0.27538 0.80848 0.35493 0.0
C490 C 0.29062 0.79066 0.35882 0.0
C491 C 0.328 0.77463 0.34959 0.0
C492 C 0.35009 0.77634 0.33626 0.0
C493 C 0.31259 0.79246 0.34538 0.0
C494 C 0.35659 0.7962 0.31849 0.0
C495 C 0.34131 0.81407 0.31418 0.0
H496 H 0.20642 0.33787 0.26782 0.0
H497 H 0.19411 0.37198 0.36678 0.0
H498 H 0.16097 0.34831 0.37696 0.0
H499 H 0.13742 0.31587 0.3603 0.0
H500 H 0.1504 0.28096 0.26224 0.0
H501 H 0.18113 0.30717 0.24909 0.0
C502 C 0.19635 0.34032 0.29143 0.0
C503 C 0.20291 0.35655 0.31663 0.0
C504 C 0.17746 0.32642 0.29741 0.0
C505 C 0.18958 0.35951 0.34702 0.0
C506 C 0.17061 0.34596 0.35292 0.0
C507 C 0.14677 0.31414 0.33583 0.0
C508 C 0.14171 0.29632 0.31248 0.0
C509 C 0.16469 0.32904 0.32867 0.0
C510 C 0.15399 0.29442 0.28083 0.0
C511 C 0.17163 0.30938 0.27329 0.0
H512 H 0.67432 0.13012 0.36755 0.0
H513 H 0.71512 0.15401 0.28074 0.0
H514 H 0.68774 0.18393 0.26887 0.0
H515 H 0.65308 0.2044 0.28466 0.0
H516 H 0.61237 0.18071 0.37169 0.0
H517 H 0.63878 0.14963 0.38173 0.0
C518 C 0.67718 0.14177 0.34589 0.0
C519 C 0.69685 0.13984 0.32522 0.0
C520 C 0.6614 0.15906 0.33927 0.0
C521 C 0.70019 0.15509 0.29718 0.0
C522 C 0.68454 0.17226 0.29037 0.0
C523 C 0.64989 0.19236 0.30569 0.0
C524 C 0.6308 0.19499 0.32747 0.0
C525 C 0.66522 0.17457 0.31148 0.0
C526 C 0.62693 0.17917 0.35454 0.0
C527 C 0.64206 0.16138 0.36037 0.0
H528 H 0.82089 0.62363 0.38004 0.0
H529 H 0.78708 0.64965 0.28737 0.0
H530 H 0.81543 0.67938 0.28205 0.0
H531 H 0.84837 0.69946 0.30572 0.0
H532 H 0.88217 0.67373 0.39854 0.0
H533 H 0.85534 0.64239 0.40157 0.0
C534 C 0.81982 0.63567 0.35849 0.0
C535 C 0.80175 0.63448 0.33434 0.0
C536 C 0.83611 0.65288 0.35568 0.0
C537 C 0.80073 0.65019 0.30647 0.0
C538 C 0.81692 0.66726 0.30341 0.0
C539 C 0.84998 0.68692 0.3265 0.0
C540 C 0.86715 0.68907 0.35203 0.0
C541 C 0.83445 0.669 0.32821 0.0
C542 C 0.86908 0.67256 0.37859 0.0
C543 C 0.85371 0.65463 0.38041 0.0
H544 H 0.68202 0.88979 0.86516 0.0
H545 H 0.7221 0.87793 0.77173 0.0
H546 H 0.69515 0.84948 0.75176 0.0
H547 H 0.66216 0.82561 0.76329 0.0
H548 H 0.62274 0.83634 0.85769 0.0
H549 H 0.64729 0.86777 0.87447 0.0
C550 C 0.68473 0.88118 0.84024 0.0
C551 C 0.70419 0.88584 0.82021 0.0
C552 C 0.66932 0.86455 0.8291 0.0
C553 C 0.70738 0.87455 0.78789 0.0
C554 C 0.69197 0.85825 0.7764 0.0
C555 C 0.65871 0.83502 0.78728 0.0
C556 C 0.64077 0.82847 0.80934 0.0
C557 C 0.67316 0.85276 0.79717 0.0
C558 C 0.63655 0.84091 0.84032 0.0
C559 C 0.65062 0.85885 0.85001 0.0
H560 H 0.16658 0.7027 0.87802 0.0
H561 H 0.13026 0.68446 0.78331 0.0
H562 H 0.15777 0.65442 0.77146 0.0
H563 H 0.19285 0.634 0.78749 0.0
H564 H 0.22851 0.65293 0.88269 0.0
H565 H 0.20051 0.68199 0.89474 0.0
C566 C 0.1646 0.69216 0.85477 0.0
C567 C 0.14645 0.6959 0.83152 0.0
C568 C 0.18042 0.67504 0.84815 0.0
C569 C 0.1441 0.68195 0.80165 0.0
C570 C 0.15985 0.6648 0.79483 0.0
C571 C 0.19444 0.64444 0.8109 0.0
C572 C 0.21285 0.64128 0.83402 0.0
C573 C 0.17819 0.66128 0.8178 0.0
C574 C 0.2146 0.65495 0.86432 0.0
C575 C 0.19857 0.67163 0.8713 0.0
H576 H 0.36105 0.16742 0.88781 0.0
H577 H 0.34167 0.18302 0.78055 0.0
H578 H 0.3145 0.15203 0.78104 0.0
H579 H 0.29404 0.12279 0.81328 0.0
H580 H 0.31179 0.10807 0.9215 0.0
H581 H 0.34208 0.13617 0.91901 0.0
C582 C 0.35106 0.16388 0.86442 0.0
C583 C 0.35325 0.17767 0.83432 0.0
C584 C 0.33515 0.14622 0.86505 0.0
C585 C 0.34018 0.17283 0.8042 0.0
C586 C 0.32464 0.15508 0.80442 0.0
C587 C 0.3047 0.12546 0.83624 0.0
C588 C 0.30049 0.11346 0.86763 0.0
C589 C 0.32166 0.142 0.83492 0.0
C590 C 0.31457 0.11713 0.89703 0.0
C591 C 0.33184 0.13328 0.89568 0.0
H592 H 0.85036 0.31544 0.78854 0.0
H593 H 0.88066 0.34022 0.88485 0.0
H594 H 0.85124 0.36903 0.8897 0.0
H595 H 0.8153 0.38521 0.86911 0.0
H596 H 0.78486 0.36 0.77315 0.0
H597 H 0.81606 0.33348 0.76559 0.0
C598 C 0.85068 0.32727 0.81043 0.0
C599 C 0.86757 0.3255 0.83647 0.0
C600 C 0.83361 0.34367 0.81325 0.0
C601 C 0.86781 0.34111 0.86449 0.0
C602 C 0.85095 0.35757 0.86736 0.0
C603 C 0.81558 0.37408 0.84636 0.0
C604 C 0.79763 0.37447 0.82196 0.0
C605 C 0.8335 0.3587 0.84229 0.0
C606 C 0.79838 0.36001 0.79248 0.0
C607 C 0.81621 0.34478 0.78814 0.0
H608 H 0.65826 0.23423 0.60239 0.0
H609 H 0.61286 0.20678 0.68052 0.0
H610 H 0.63952 0.17589 0.69221 0.0
H611 H 0.67678 0.15769 0.68178 0.0
H612 H 0.72173 0.18671 0.60416 0.0
H613 H 0.69415 0.21588 0.59081 0.0
C614 C 0.65407 0.22146 0.6219 0.0
C615 C 0.63366 0.22288 0.64065 0.0
C616 C 0.66948 0.20403 0.62871 0.0
C617 C 0.62851 0.2061 0.66572 0.0
C618 C 0.64376 0.18846 0.67247 0.0
C619 C 0.68042 0.17033 0.66183 0.0
C620 C 0.70137 0.17008 0.64422 0.0
C621 C 0.66446 0.18739 0.65437 0.0
C622 C 0.70586 0.18658 0.61841 0.0
C623 C 0.69007 0.2033 0.61064 0.0
H624 H 0.78932 0.66143 0.70651 0.0
H625 H 0.82962 0.6145 0.64593 0.0
H626 H 0.86092 0.64142 0.64532 0.0
H627 H 0.87596 0.67917 0.65875 0.0
H628 H 0.83536 0.72627 0.71852 0.0
H629 H 0.80515 0.69831 0.72279 0.0
C630 C 0.80501 0.65698 0.69343 0.0
C631 C 0.80703 0.63602 0.67608 0.0
C632 C 0.82287 0.67262 0.69286 0.0
C633 C 0.82754 0.63054 0.65938 0.0
C634 C 0.84546 0.64595 0.65895 0.0
C635 C 0.86058 0.68328 0.67295 0.0
C636 C 0.8579 0.70486 0.68804 0.0
C637 C 0.84317 0.66718 0.67509 0.0
C638 C 0.83787 0.70984 0.70649 0.0
C639 C 0.82055 0.69386 0.70893 0.0
H640 H 0.29309 0.85809 0.68593 0.0
H641 H 0.25162 0.81454 0.62103 0.0
H642 H 0.28119 0.7859 0.62107 0.0
H643 H 0.31873 0.77322 0.63883 0.0
H644 H 0.36076 0.81625 0.70353 0.0
H645 H 0.33101 0.84507 0.70425 0.0
C646 C 0.29052 0.84232 0.67185 0.0
C647 C 0.27015 0.83852 0.65347 0.0
C648 C 0.30767 0.82582 0.67188 0.0
C649 C 0.26711 0.81797 0.63536 0.0
C650 C 0.28402 0.80154 0.63534 0.0
C651 C 0.32145 0.78888 0.65314 0.0
C652 C 0.34197 0.79257 0.67105 0.0
C653 C 0.30436 0.80531 0.65341 0.0
C654 C 0.34512 0.81298 0.68949 0.0
C655 C 0.32812 0.82946 0.68991 0.0
H656 H 0.11697 0.32831 0.64585 0.0
H657 H 0.15339 0.28313 0.71526 0.0
H658 H 0.18142 0.31245 0.72663 0.0
H659 H 0.19694 0.34993 0.71411 0.0
H660 H 0.16125 0.39501 0.64371 0.0
H661 H 0.1315 0.36679 0.63587 0.0
C662 C 0.13094 0.32493 0.66366 0.0
C663 C 0.13313 0.30347 0.67943 0.0
C664 C 0.14718 0.34183 0.66991 0.0
C665 C 0.15132 0.29943 0.70256 0.0
C666 C 0.1674 0.31619 0.70912 0.0
C667 C 0.18254 0.35372 0.69735 0.0
C668 C 0.18143 0.37452 0.67937 0.0
C669 C 0.16568 0.33732 0.69253 0.0
C670 C 0.1626 0.37912 0.6578 0.0
C671 C 0.14559 0.36295 0.6532 0.0
H672 H 0.215 0.04717 0.07713 0.0
H673 H 0.24413 0.11414 0.08042 0.0
H674 H 0.24029 0.1174 0.01659 0.0
H675 H 0.23092 0.10053 0.95957 0.0
H676 H 0.20318 0.03302 0.9553 0.0
H677 H 0.204 0.03082 0.01975 0.0
C678 C 0.22032 0.06254 0.0639 0.0
C679 C 0.22997 0.0803 0.08355 0.0
C680 C 0.21836 0.06422 0.02699 0.0
C681 C 0.23681 0.10011 0.06596 0.0
C682 C 0.2346 0.10203 0.02942 0.0
C683 C 0.22479 0.08541 0.97268 0.0
C684 C 0.21708 0.06694 0.95259 0.0
C685 C 0.22573 0.08408 0.00963 0.0
C686 C 0.20929 0.04747 0.97011 0.0
C687 C 0.20979 0.04617 0.00697 0.0
H688 H 0.89712 0.19823 0.92573 0.0
H689 H 0.91132 0.26986 0.9305 0.0
H690 H 0.91369 0.26794 0.9946 0.0
H691 H 0.91091 0.24634 0.04941 0.0
H692 H 0.89644 0.17479 0.04549 0.0
H693 H 0.89507 0.17631 0.98102 0.0
C694 C 0.90082 0.2134 0.94077 0.0
C695 C 0.90398 0.23415 0.92322 0.0
C696 C 0.90208 0.21223 0.97783 0.0
C697 C 0.90875 0.25365 0.94321 0.0
C698 C 0.91011 0.25259 0.97994 0.0
C699 C 0.90753 0.23103 0.03452 0.0
C700 C 0.90374 0.21049 0.05233 0.0
C701 C 0.90667 0.23203 0.99753 0.0
C702 C 0.8994 0.19084 0.03251 0.0
C703 C 0.89859 0.19169 0.99561 0.0
H704 H 0.75111 0.91333 0.9495 0.0
H705 H 0.81785 0.94296 0.95021 0.0
H706 H 0.81932 0.93969 0.01443 0.0
H707 H 0.80208 0.92755 0.07029 0.0
H708 H 0.73545 0.89762 0.06931 0.0
H709 H 0.73359 0.90189 0.00533 0.0
C710 C 0.76594 0.91919 0.96368 0.0
C711 C 0.78435 0.92835 0.945 0.0
C712 C 0.76676 0.91713 0.00059 0.0
C713 C 0.80344 0.93582 0.96386 0.0
C714 C 0.80432 0.93393 0.00062 0.0
C715 C 0.78713 0.92199 0.05611 0.0
C716 C 0.76898 0.91222 0.07464 0.0
C717 C 0.78615 0.92445 0.01924 0.0
C718 C 0.74971 0.90516 0.05578 0.0
C719 C 0.74861 0.9076 0.01915 0.0
H720 H 0.07945 0.79594 0.95044 0.0
H721 H 0.08879 0.72357 0.94416 0.0
H722 H 0.0893 0.72108 0.0084 0.0
H723 H 0.08859 0.7395 0.06629 0.0
H724 H 0.07925 0.81183 0.07298 0.0
H725 H 0.0772 0.81422 0.00866 0.0
C726 C 0.08146 0.7796 0.9631 0.0
C727 C 0.08418 0.76 0.94243 0.0
C728 C 0.08184 0.77827 0.00015 0.0
C729 C 0.0867 0.73895 0.95935 0.0
C730 C 0.08704 0.7375 0.99613 0.0
C731 C 0.08605 0.7558 0.05372 0.0
C732 C 0.08422 0.77547 0.07445 0.0
C733 C 0.08489 0.75707 0.01677 0.0
C734 C 0.08076 0.79641 0.05769 0.0
C735 C 0.07961 0.79781 0.02088 0.0
H736 H 0.19242 0.92134 0.43217 0.0
H737 H 0.26016 0.89396 0.43156 0.0
H738 H 0.2609 0.89413 0.49574 0.0
H739 H 0.24208 0.90047 0.55189 0.0
H740 H 0.17392 0.92661 0.55399 0.0
H741 H 0.17366 0.92862 0.48942 0.0
C742 C 0.20737 0.91557 0.44613 0.0
C743 C 0.22615 0.90756 0.42706 0.0
C744 C 0.20762 0.91542 0.48329 0.0
C745 C 0.24539 0.90005 0.44553 0.0
C746 C 0.24587 0.90016 0.48228 0.0
C747 C 0.22717 0.90676 0.53834 0.0
C748 C 0.20804 0.91333 0.55778 0.0
C749 C 0.22703 0.90757 0.50139 0.0
C750 C 0.18888 0.9214 0.53967 0.0
C751 C 0.18871 0.92253 0.50274 0.0
H752 H 0.09934 0.24569 0.55453 0.0
H753 H 0.11037 0.17397 0.56787 0.0
H754 H 0.11101 0.16897 0.50389 0.0
H755 H 0.10875 0.18498 0.44413 0.0
H756 H 0.09776 0.25673 0.43097 0.0
H757 H 0.09673 0.26162 0.49489 0.0
C758 C 0.10188 0.22895 0.54349 0.0
C759 C 0.10483 0.21025 0.56604 0.0
C760 C 0.10222 0.22617 0.50667 0.0
C761 C 0.10806 0.18868 0.55119 0.0
C762 C 0.10843 0.18579 0.51457 0.0
C763 C 0.10607 0.20168 0.45521 0.0
C764 C 0.10335 0.22044 0.4327 0.0
C765 C 0.10556 0.20442 0.49206 0.0
C766 C 0.0999 0.24197 0.4476 0.0
C767 C 0.09933 0.24481 0.4842 0.0
H768 H 0.79743 0.08198 0.56013 0.0
H769 H 0.7361 0.1217 0.5632 0.0
H770 H 0.73398 0.12119 0.49915 0.0
H771 H 0.74915 0.1095 0.44216 0.0
H772 H 0.81079 0.07048 0.43781 0.0
H773 H 0.8131 0.0707 0.50229 0.0
C774 C 0.78364 0.09054 0.54677 0.0
C775 C 0.76696 0.1018 0.5666 0.0
C776 C 0.7825 0.09029 0.50963 0.0
C777 C 0.74922 0.11289 0.54876 0.0
C778 C 0.74793 0.1126 0.51203 0.0
C779 C 0.76308 0.10098 0.45525 0.0
C780 C 0.7797 0.08992 0.43514 0.0
C781 C 0.76441 0.10132 0.49222 0.0
C782 C 0.79772 0.07911 0.45262 0.0
C783 C 0.79907 0.07923 0.48952 0.0
H784 H 0.91062 0.76836 0.56719 0.0
H785 H 0.83883 0.78072 0.57556 0.0
H786 H 0.83527 0.7798 0.51148 0.0
H787 H 0.85214 0.77414 0.4532 0.0
H788 H 0.92384 0.76159 0.4443 0.0
H789 H 0.9278 0.76406 0.50841 0.0
C790 C 0.89422 0.77096 0.555 0.0
C791 C 0.87502 0.7745 0.57623 0.0
C792 C 0.89223 0.77034 0.51802 0.0
C793 C 0.8539 0.7779 0.55994 0.0
C794 C 0.85182 0.77736 0.52324 0.0
C795 C 0.86867 0.77204 0.46521 0.0
C796 C 0.88763 0.76758 0.44395 0.0
C797 C 0.87082 0.77338 0.50206 0.0
C798 C 0.90893 0.76501 0.46002 0.0
C799 C 0.91122 0.76638 0.49671 0.0
H800 H 0.6881 0.60724 0.5555 0.0
H801 H 0.7601 0.59673 0.56588 0.0
H802 H 0.76361 0.59341 0.50201 0.0
H803 H 0.74658 0.59449 0.44312 0.0
H804 H 0.67465 0.60511 0.43224 0.0
H805 H 0.67084 0.60727 0.49636 0.0
C806 C 0.70455 0.60416 0.54382 0.0
C807 C 0.7238 0.60233 0.56553 0.0
C808 C 0.70651 0.60229 0.50694 0.0
C809 C 0.74498 0.59826 0.54988 0.0
C810 C 0.74704 0.59636 0.5133 0.0
C811 C 0.73003 0.59718 0.45472 0.0
C812 C 0.71095 0.59971 0.43284 0.0
C813 C 0.72795 0.5985 0.49157 0.0
C814 C 0.68965 0.60314 0.44841 0.0
C815 C 0.68744 0.60441 0.48511 0.0
H816 H 0.40811 0.74467 0.44815 0.0
H817 H 0.42129 0.67284 0.44792 0.0
H818 H 0.4232 0.67292 0.51246 0.0
H819 H 0.42004 0.69334 0.56913 0.0
H820 H 0.40557 0.76497 0.56833 0.0
H821 H 0.40532 0.76496 0.50406 0.0
C822 C 0.41154 0.72902 0.46213 0.0
C823 C 0.41456 0.70878 0.44318 0.0
C824 C 0.41232 0.72913 0.49914 0.0
C825 C 0.41885 0.68866 0.46183 0.0
C826 C 0.41995 0.68869 0.49876 0.0
C827 C 0.41696 0.70896 0.55487 0.0
C828 C 0.4128 0.72911 0.57358 0.0
C829 C 0.41655 0.70881 0.51771 0.0
C830 C 0.40872 0.74918 0.55467 0.0
C831 C 0.40859 0.74922 0.51786 0.0
H832 H 0.23917 0.42876 0.46349 0.0
H833 H 0.29714 0.38648 0.44231 0.0
H834 H 0.30432 0.38284 0.50557 0.0
H835 H 0.29275 0.38977 0.56696 0.0
H836 H 0.23409 0.43123 0.5877 0.0
H837 H 0.2287 0.43715 0.52457 0.0
C838 C 0.25349 0.41889 0.47265 0.0
C839 C 0.26749 0.4078 0.44817 0.0
C840 C 0.25736 0.41663 0.50903 0.0
C841 C 0.28602 0.39513 0.46057 0.0
C842 C 0.29013 0.39301 0.49676 0.0
C843 C 0.27891 0.40027 0.55769 0.0
C844 C 0.26378 0.40991 0.58205 0.0
C845 C 0.2757 0.40339 0.52125 0.0
C846 C 0.24592 0.42347 0.56955 0.0
C847 C 0.2428 0.42687 0.53342 0.0
H848 H 0.60327 0.32059 0.51909 0.0
H849 H 0.56817 0.25712 0.5329 0.0
H850 H 0.56813 0.25112 0.46927 0.0
H851 H 0.57986 0.26272 0.41003 0.0
H852 H 0.61478 0.32618 0.39565 0.0
H853 H 0.61295 0.33336 0.45912 0.0
C854 C 0.59545 0.30554 0.50818 0.0
C855 C 0.5859 0.28927 0.53085 0.0
C856 C 0.59554 0.3021 0.47145 0.0
C857 C 0.57572 0.26991 0.51617 0.0
C858 C 0.57573 0.26641 0.47974 0.0
C859 C 0.58699 0.27818 0.42072 0.0
C860 C 0.59762 0.29378 0.39814 0.0
C861 C 0.58589 0.2822 0.45719 0.0
C862 C 0.60654 0.31384 0.41243 0.0
C863 C 0.60555 0.31795 0.44875 0.0
H864 H 0.73355 0.42211 0.93208 0.0
H865 H 0.69162 0.36237 0.92916 0.0
H866 H 0.69612 0.35763 0.9928 0.0
H867 H 0.71394 0.36906 0.04868 0.0
H868 H 0.75466 0.4296 0.05215 0.0
H869 H 0.74854 0.43549 0.989 0.0
C870 C 0.72526 0.40817 0.94544 0.0
C871 C 0.71246 0.39251 0.92587 0.0
C872 C 0.72778 0.40562 0.98211 0.0
C873 C 0.70158 0.37468 0.94359 0.0
C874 C 0.70422 0.37188 0.97998 0.0
C875 C 0.72135 0.38362 0.03563 0.0
C876 C 0.73492 0.39872 0.05494 0.0
C877 C 0.71759 0.38702 0.9994 0.0
C878 C 0.74415 0.4177 0.03784 0.0
C879 C 0.74074 0.42104 0.0017 0.0
H880 H 0.6106 0.7412 0.05035 0.0
H881 H 0.54557 0.70812 0.05374 0.0
H882 H 0.54325 0.70954 0.98923 0.0
H883 H 0.55906 0.72188 0.93196 0.0
H884 H 0.6241 0.75515 0.93002 0.0
H885 H 0.62702 0.75181 0.99383 0.0
C886 C 0.59591 0.73422 0.03706 0.0
C887 C 0.57821 0.72473 0.05689 0.0
C888 C 0.59466 0.73515 0.00015 0.0
C889 C 0.55942 0.71559 0.03913 0.0
C890 C 0.55806 0.71642 0.00223 0.0
C891 C 0.57394 0.72821 0.94548 0.0
C892 C 0.59124 0.73889 0.92615 0.0
C893 C 0.5755 0.72639 0.98247 0.0
C894 C 0.61044 0.74699 0.94414 0.0
C895 C 0.61215 0.74511 0.98071 0.0
H896 H 0.31612 0.59159 0.07605 0.0
H897 H 0.24419 0.57886 0.07312 0.0
H898 H 0.24515 0.57764 0.0089 0.0
H899 H 0.26564 0.58261 0.95375 0.0
H900 H 0.33734 0.59634 0.95545 0.0
H901 H 0.33725 0.59447 0.02003 0.0
C902 C 0.3007 0.58833 0.06137 0.0
C903 C 0.28009 0.5855 0.07942 0.0
C904 C 0.30129 0.5879 0.02425 0.0
C905 C 0.26027 0.58126 0.05996 0.0
C906 C 0.26078 0.58056 0.02319 0.0
C907 C 0.28133 0.58506 0.96814 0.0
C908 C 0.30143 0.58982 0.94977 0.0
C909 C 0.28109 0.58426 0.00509 0.0
C910 C 0.32161 0.59271 0.96892 0.0
C911 C 0.32155 0.59172 0.00586 0.0
H912 H 0.37508 0.30211 0.91852 0.0
H913 H 0.41579 0.24147 0.91546 0.0
H914 H 0.42348 0.24497 0.97847 0.0
H915 H 0.41616 0.26334 0.03516 0.0
H916 H 0.37411 0.32302 0.03912 0.0
H917 H 0.36974 0.32197 0.97498 0.0
C918 C 0.38582 0.28979 0.93155 0.0
C919 C 0.39466 0.27145 0.91232 0.0
C920 C 0.38991 0.29169 0.968 0.0
C921 C 0.40859 0.25566 0.92965 0.0
C922 C 0.41302 0.25764 0.96572 0.0
C923 C 0.40629 0.27633 0.02201 0.0
C924 C 0.39534 0.29313 0.04199 0.0
C925 C 0.4034 0.27532 0.98527 0.0
C926 C 0.38263 0.30981 0.02442 0.0
C927 C 0.38005 0.30918 0.98774 0.0
H928 H 0.26767 0.03597 0.26277 0.0
H929 H 0.26756 0.00343 0.16079 0.0
H930 H 0.26697 0.96628 0.18928 0.0
H931 H 0.26475 0.94318 0.24325 0.0
H932 H 0.26618 0.97597 0.3451 0.0
H933 H 0.26818 0.0129 0.31653 0.0
C934 C 0.26758 0.02074 0.24678 0.0
C935 C 0.26743 0.02241 0.20976 0.0
C936 C 0.26748 -0.00049 0.2633 0.0
C937 C 0.26765 0.00256 0.18936 0.0
C938 C 0.26726 0.98133 0.20563 0.0
C939 C 0.26563 0.95841 0.25918 0.0
C940 C 0.26512 0.95683 0.29623 0.0
C941 C 0.26691 0.97962 0.24258 0.0
C942 C 0.26653 0.97669 0.31653 0.0
C943 C 0.26759 0.99784 0.30022 0.0
H944 H 0.97278 0.18333 0.22816 0.0
H945 H 0.97258 0.25406 0.19957 0.0
H946 H 0.00904 0.25922 0.22875 0.0
H947 H 0.04086 0.24377 0.26281 0.0
H948 H 0.04084 0.1731 0.29178 0.0
H949 H 0.00459 0.16788 0.26208 0.0
C950 C 0.98072 0.19987 0.22819 0.0
C951 C 0.96993 0.21825 0.21166 0.0
C952 C 0.00165 0.20277 0.24519 0.0
C953 C 0.98048 0.23959 0.21209 0.0
C954 C 0.00134 0.24258 0.2288 0.0
C955 C 0.03294 0.22722 0.26265 0.0
C956 C 0.04359 0.20888 0.27954 0.0
C957 C 0.01205 0.22431 0.24553 0.0
C958 C 0.03305 0.18755 0.27904 0.0
C959 C 0.0123 0.18452 0.26202 0.0
H960 H 0.80316 0.0267 0.28308 0.0
H961 H 0.73097 0.03741 0.27928 0.0
H962 H 0.72571 -0.0003 0.25409 0.0
H963 H 0.74169 0.96376 0.23261 0.0
H964 H 0.81396 0.95337 0.23686 0.0
H965 H 0.81901 0.99084 0.26247 0.0
C966 C 0.78626 0.02083 0.27674 0.0
C967 C 0.76751 0.03492 0.283 0.0
C968 C 0.78334 -0.00086 0.26236 0.0
C969 C 0.74572 0.02694 0.27473 0.0
C970 C 0.74269 0.00537 0.26031 0.0
C971 C 0.75854 0.96967 0.23922 0.0
C972 C 0.7774 0.95573 0.23274 0.0
C973 C 0.76138 0.99133 0.25396 0.0
C974 C 0.79911 0.96369 0.2415 0.0
C975 C 0.80206 0.98516 0.25614 0.0
H976 H 0.04275 0.74258 0.26026 0.0
H977 H 0.00492 0.7472 0.1629 0.0
H978 H 0.96952 0.74712 0.19597 0.0
H979 H 0.94935 0.7469 0.25252 0.0
H980 H 0.98715 0.74191 0.34985 0.0
H981 H 0.02251 0.74092 0.3167 0.0
C982 C 0.02677 0.7435 0.24623 0.0
C983 C 0.02652 0.74502 0.20915 0.0
C984 C 0.00646 0.74343 0.26539 0.0
C985 C 0.00563 0.74604 0.19142 0.0
C986 C 0.98536 0.74604 0.21031 0.0
C987 C 0.96531 0.74555 0.26651 0.0
C988 C 0.96559 0.74462 0.30363 0.0
C989 C 0.98559 0.74494 0.2473 0.0
C990 C 0.98643 0.74269 0.3213 0.0
C991 C 0.00668 0.74215 0.30237 0.0
H992 H 0.74755 0.98405 0.78412 0.0
H993 H 0.82049 0.98815 0.78522 0.0
H994 H 0.81878 0.0247 0.75541 0.0
H995 H 0.79676 0.0553 0.72883 0.0
H996 H 0.72385 0.05138 0.72706 0.0
H997 H 0.72542 0.01486 0.75738 0.0
C998 C 0.76309 0.99294 0.77791 0.0
C999 C 0.78413 0.98334 0.78693 0.0
C1000 C 0.762 0.01394 0.76062 0.0
C1001 C 0.80407 0.99511 0.77859 0.0
C1002 C 0.80312 0.01602 0.76153 0.0
C1003 C 0.78117 0.0465 0.73505 0.0
C1004 C 0.76021 0.05608 0.72568 0.0
C1005 C 0.7822 0.02556 0.75238 0.0
C1006 C 0.74021 0.04439 0.73394 0.0
C1007 C 0.74109 0.02351 0.7513 0.0
H1008 H 0.95159 0.73827 0.74357 0.0
H1009 H 0.98136 0.79551 0.69014 0.0
H1010 H 0.01737 0.78832 0.71969 0.0
H1011 H 0.04009 0.76647 0.76174 0.0
H1012 H 0.01029 0.70945 0.8157 0.0
H1013 H 0.9746 0.71588 0.78473 0.0
C1014 C 0.96596 0.74914 0.73827 0.0
C1015 C 0.96373 0.76745 0.71473 0.0
C1016 C 0.9866 0.74499 0.75547 0.0
C1017 C 0.98256 0.78133 0.70817 0.0
C1018 C 0.00317 0.77725 0.72507 0.0
C1019 C 0.02583 0.75538 0.76669 0.0
C1020 C 0.02787 0.73754 0.79111 0.0
C1021 C 0.00533 0.75923 0.74894 0.0
C1022 C 0.0092 0.72333 0.7971 0.0
C1023 C 0.98876 0.727 0.77942 0.0
H1024 H 0.18293 0.96372 0.72647 0.0
H1025 H 0.25529 0.95379 0.72612 0.0
H1026 H 0.26032 0.98819 0.76093 0.0
H1027 H 0.24423 0.02132 0.79082 0.0
H1028 H 0.17186 0.03124 0.79084 0.0
H1029 H 0.16683 0.99655 0.75687 0.0
C1030 C 0.19981 0.96904 0.73401 0.0
C1031 C 0.21869 0.95621 0.72363 0.0
C1032 C 0.2026 0.98884 0.75399 0.0
C1033 C 0.24044 0.96336 0.73371 0.0
C1034 C 0.24335 0.98303 0.75363 0.0
C1035 C 0.22735 0.01587 0.78348 0.0
C1036 C 0.20847 0.02889 0.79334 0.0
C1037 C 0.22455 0.99593 0.76383 0.0
C1038 C 0.18671 0.02158 0.7836 0.0
C1039 C 0.1838 0.00173 0.76413 0.0
H1040 H 0.95976 0.21242 0.75144 0.0
H1041 H 0.96874 0.28296 0.77746 0.0
H1042 H 0.00529 0.28306 0.74724 0.0
H1043 H 0.03509 0.26272 0.71485 0.0
H1044 H 0.02548 0.19224 0.68864 0.0
H1045 H 0.98864 0.19261 0.71733 0.0
C1046 C 0.9697 0.22784 0.75057 0.0
C1047 C 0.96163 0.2476 0.7669 0.0
C1048 C 0.99054 0.2278 0.73303 0.0
C1049 C 0.97461 0.26749 0.76515 0.0
C1050 C 0.99549 0.26756 0.74789 0.0
C1051 C 0.02488 0.24748 0.71524 0.0
C1052 C 0.03311 0.22745 0.69977 0.0
C1053 C 0.00368 0.24777 0.73191 0.0
C1054 C 0.01962 0.20788 0.70039 0.0
C1055 C 0.99854 0.20804 0.71687 0.0
H1056 H 0.75546 0.54873 0.74622 0.0
H1057 H 0.70157 0.52587 0.67791 0.0
H1058 H 0.70158 0.48914 0.70727 0.0
H1059 H 0.71677 0.46353 0.75225 0.0
H1060 H 0.7705 0.4863 0.82092 0.0
H1061 H 0.77058 0.52308 0.79151 0.0
C1062 C 0.74374 0.53571 0.7377 0.0
C1063 C 0.72855 0.54007 0.70988 0.0
C1064 C 0.74375 0.51462 0.7548 0.0
C1065 C 0.71343 0.52301 0.69927 0.0
C1066 C 0.71341 0.50197 0.71604 0.0
C1067 C 0.7285 0.47653 0.76085 0.0
C1068 C 0.7436 0.47214 0.78875 0.0
C1069 C 0.72847 0.49762 0.74385 0.0
C1070 C 0.75867 0.4892 0.79952 0.0
C1071 C 0.75875 0.51025 0.7827 0.0
H1072 H 0.54857 0.7665 0.74419 0.0
H1073 H 0.51312 0.77975 0.84157 0.0
H1074 H 0.4769 0.77731 0.81056 0.0
H1075 H 0.45534 0.77053 0.756 0.0
H1076 H 0.49108 0.75811 0.65853 0.0
H1077 H 0.52716 0.76125 0.68941 0.0
C1078 C 0.53292 0.76886 0.75866 0.0
C1079 C 0.53353 0.77316 0.79518 0.0
C1080 C 0.51222 0.76761 0.74065 0.0
C1081 C 0.51312 0.77641 0.81345 0.0
C1082 C 0.4924 0.77499 0.79575 0.0
C1083 C 0.47102 0.76858 0.74148 0.0
C1084 C 0.47047 0.76397 0.70503 0.0
C1085 C 0.49175 0.77048 0.75938 0.0
C1086 C 0.49097 0.76166 0.68659 0.0
C1087 C 0.51163 0.76339 0.70424 0.0
H1088 H 0.2342 0.46194 0.76453 0.0
H1089 H 0.292 0.48048 0.70119 0.0
H1090 H 0.29374 0.51715 0.73043 0.0
H1091 H 0.27932 0.54375 0.7743 0.0
H1092 H 0.22192 0.52542 0.83855 0.0
H1093 H 0.21951 0.48891 0.80843 0.0
C1094 C 0.24716 0.47401 0.75711 0.0
C1095 C 0.26296 0.46842 0.73073 0.0
C1096 C 0.24813 0.49512 0.77411 0.0
C1097 C 0.27964 0.48428 0.72143 0.0
C1098 C 0.28065 0.50529 0.73811 0.0
C1099 C 0.2662 0.53185 0.78167 0.0
C1100 C 0.25083 0.53734 0.80866 0.0
C1101 C 0.26503 0.51086 0.76451 0.0
C1102 C 0.23398 0.52164 0.81789 0.0
C1103 C 0.23261 0.50074 0.80071 0.0
H1104 H 0.45686 0.28602 0.76273 0.0
H1105 H 0.43992 0.2163 0.74121 0.0
H1106 H 0.4744 0.21206 0.70648 0.0
H1107 H 0.50952 0.22805 0.6826 0.0
H1108 H 0.52639 0.29776 0.7045 0.0
H1109 H 0.49175 0.30204 0.73865 0.0
C1110 C 0.46068 0.26989 0.75042 0.0
C1111 C 0.44583 0.25152 0.7546 0.0
C1112 C 0.48053 0.26754 0.73055 0.0
C1113 C 0.45106 0.23074 0.73846 0.0
C1114 C 0.47078 0.22828 0.71857 0.0
C1115 C 0.50562 0.24419 0.69479 0.0
C1116 C 0.52055 0.26253 0.69098 0.0
C1117 C 0.48566 0.24656 0.7145 0.0
C1118 C 0.51521 0.28333 0.70699 0.0
C1119 C 0.4954 0.28582 0.72655 0.0
H1120 H 0.30434 0.53009 0.24298 0.0
H1121 H 0.23145 0.53307 0.23735 0.0
H1122 H 0.22884 0.49616 0.26595 0.0
H1123 H 0.24724 0.46275 0.29166 0.0
H1124 H 0.32013 0.45992 0.29751 0.0
H1125 H 0.32269 0.49707 0.26974 0.0
C1126 C 0.28787 0.52271 0.24805 0.0
C1127 C 0.26814 0.53433 0.23793 0.0
C1128 C 0.28647 0.50147 0.2645 0.0
C1129 C 0.24693 0.52451 0.24483 0.0
C1130 C 0.24541 0.50338 0.26116 0.0
C1131 C 0.26369 0.47026 0.28689 0.0
C1132 C 0.28345 0.45851 0.29656 0.0
C1133 C 0.26507 0.49166 0.27095 0.0
C1134 C 0.30463 0.46855 0.29032 0.0
C1135 C 0.30613 0.48981 0.27441 0.0
H1136 H 0.54643 0.24558 0.2205 0.0
H1137 H 0.50961 0.25548 0.31767 0.0
H1138 H 0.47402 0.25609 0.28501 0.0
H1139 H 0.45352 0.25575 0.22868 0.0
H1140 H 0.49026 0.24587 0.13145 0.0
H1141 H 0.52568 0.24319 0.16441 0.0
C1142 C 0.53062 0.24773 0.23459 0.0
C1143 C 0.53075 0.25065 0.27148 0.0
C1144 C 0.51019 0.24816 0.21564 0.0
C1145 C 0.51006 0.25326 0.2893 0.0
C1146 C 0.48967 0.25366 0.27063 0.0
C1147 C 0.46925 0.25291 0.21467 0.0
C1148 C 0.46923 0.2512 0.1776 0.0
C1149 C 0.48957 0.25144 0.23376 0.0
C1150 C 0.48977 0.24732 0.15995 0.0
C1151 C 0.51006 0.24582 0.17878 0.0
H1152 H 0.75906 0.53431 0.27776 0.0
H1153 H 0.68615 0.53154 0.28321 0.0
H1154 H 0.6863 0.49543 0.25214 0.0
H1155 H 0.7069 0.465 0.22255 0.0
H1156 H 0.77979 0.4673 0.21711 0.0
H1157 H 0.77983 0.50322 0.24913 0.0
C1158 C 0.74321 0.52579 0.27223 0.0
C1159 C 0.72263 0.53569 0.28274 0.0
C1160 C 0.74338 0.50496 0.25431 0.0
C1161 C 0.70225 0.52436 0.27543 0.0
C1162 C 0.70229 0.50369 0.25761 0.0
C1163 C 0.72283 0.47332 0.22835 0.0
C1164 C 0.7433 0.4635 0.2173 0.0
C1165 C 0.72273 0.49391 0.24678 0.0
C1166 C 0.76377 0.47449 0.22526 0.0
C1167 C 0.76381 0.49504 0.24355 0.0
H1168 H 0.45803 0.74998 0.25865 0.0
H1169 H 0.49153 0.69953 0.32256 0.0
H1170 H 0.52587 0.7038 0.28752 0.0
H1171 H 0.54631 0.72167 0.23874 0.0
H1172 H 0.51285 0.77196 0.1745 0.0
H1173 H 0.47853 0.76787 0.20974 0.0
C1174 C 0.47284 0.73993 0.26499 0.0
C1175 C 0.47218 0.72446 0.29323 0.0
C1176 C 0.49253 0.74241 0.24466 0.0
C1177 C 0.49153 0.71155 0.30097 0.0
C1178 C 0.5112 0.71398 0.28094 0.0
C1179 C 0.53153 0.73177 0.2324 0.0
C1180 C 0.53219 0.74711 0.204 0.0
C1181 C 0.51186 0.72932 0.25272 0.0
C1182 C 0.51284 0.76002 0.1962 0.0
C1183 C 0.4932 0.7577 0.21635 0.0
H1184 H 0.22271 0.14127 0.26072 0.0
H1185 H 0.16556 0.10871 0.21106 0.0
H1186 H 0.13995 0.1356 0.2393 0.0
H1187 H 0.13398 0.16949 0.2757 0.0
H1188 H 0.1913 0.20207 0.32493 0.0
H1189 H 0.21659 0.17391 0.29936 0.0
C1190 C 0.20464 0.13995 0.25618 0.0
C1191 C 0.1961 0.12308 0.23359 0.0
C1192 C 0.19003 0.15551 0.27235 0.0
C1193 C 0.17262 0.12156 0.22823 0.0
C1194 C 0.15795 0.13696 0.24433 0.0
C1195 C 0.15199 0.17036 0.28104 0.0
C1196 C 0.16073 0.18798 0.30201 0.0
C1197 C 0.16649 0.15418 0.26608 0.0
C1198 C 0.1841 0.18875 0.30879 0.0
C1199 C 0.19861 0.17267 0.29413 0.0
H1200 H 0.86881 0.20382 0.28271 0.0
H1201 H 0.86643 0.16588 0.18537 0.0
H1202 H 0.83931 0.13958 0.21158 0.0
H1203 H 0.81453 0.12878 0.261 0.0
H1204 H 0.81635 0.16768 0.35748 0.0
H1205 H 0.84552 0.19209 0.33272 0.0
C1206 C 0.86253 0.1897 0.26725 0.0
C1207 C 0.86956 0.18692 0.23206 0.0
C1208 C 0.84674 0.17486 0.28229 0.0
C1209 C 0.86124 0.16848 0.21249 0.0
C1210 C 0.8457 0.15345 0.22744 0.0
C1211 C 0.82146 0.14247 0.27672 0.0
C1212 C 0.81315 0.14646 0.31097 0.0
C1213 C 0.83806 0.15668 0.26214 0.0
C1214 C 0.82232 0.16429 0.33097 0.0
C1215 C 0.83901 0.17828 0.31684 0.0
H1216 H 0.84904 0.77703 0.21816 0.0
H1217 H 0.85899 0.81819 0.31109 0.0
H1218 H 0.83381 0.84704 0.2869 0.0
H1219 H 0.80787 0.85996 0.24046 0.0
H1220 H 0.79736 0.81846 0.14804 0.0
H1221 H 0.82398 0.79047 0.17092 0.0
C1222 C 0.84581 0.79235 0.23309 0.0
C1223 C 0.85585 0.79537 0.26647 0.0
C1224 C 0.83118 0.80883 0.21915 0.0
C1225 C 0.85145 0.81537 0.28538 0.0
C1226 C 0.83704 0.8319 0.27158 0.0
C1227 C 0.81149 0.84487 0.22518 0.0
C1228 C 0.80054 0.8413 0.19263 0.0
C1229 C 0.82665 0.82871 0.23864 0.0
C1230 C 0.80547 0.82163 0.17322 0.0
C1231 C 0.82068 0.80558 0.1863 0.0
H1232 H 0.20153 0.85722 0.2423 0.0
H1233 H 0.1611 0.85019 0.33653 0.0
H1234 H 0.13433 0.82631 0.30453 0.0
H1235 H 0.12396 0.80519 0.25113 0.0
H1236 H 0.16522 0.81114 0.1576 0.0
H1237 H 0.19 0.83783 0.18801 0.0
C1238 C 0.18674 0.85067 0.2558 0.0
C1239 C 0.18343 0.85537 0.29185 0.0
C1240 C 0.17162 0.83665 0.23742 0.0
C1241 C 0.16415 0.84675 0.30885 0.0
C1242 C 0.14883 0.83306 0.29058 0.0
C1243 C 0.13823 0.8125 0.23724 0.0
C1244 C 0.14281 0.80603 0.2022 0.0
C1245 C 0.15264 0.82755 0.25506 0.0
C1246 C 0.16137 0.8157 0.18464 0.0
C1247 C 0.17558 0.83096 0.20201 0.0
H1248 H 0.86357 0.80215 0.80435 0.0
H1249 H 0.86686 0.83662 0.70398 0.0
H1250 H 0.84444 0.86777 0.7278 0.0
H1251 H 0.82148 0.88382 0.77572 0.0
H1252 H 0.81718 0.84851 0.8753 0.0
H1253 H 0.84257 0.81923 0.85323 0.0
C1254 C 0.85959 0.81657 0.78774 0.0
C1255 C 0.86675 0.81694 0.75235 0.0
C1256 C 0.8464 0.83426 0.80142 0.0
C1257 C 0.86146 0.83581 0.73127 0.0
C1258 C 0.84861 0.85364 0.74485 0.0
C1259 C 0.82631 0.86987 0.79275 0.0
C1260 C 0.81729 0.86828 0.82702 0.0
C1261 C 0.84063 0.85284 0.77968 0.0
C1262 C 0.82373 0.85007 0.84871 0.0
C1263 C 0.83824 0.83329 0.83611 0.0
H1264 H 0.19171 0.85362 0.77522 0.0
H1265 H 0.16333 0.85742 0.67026 0.0
H1266 H 0.13393 0.83048 0.68683 0.0
H1267 H 0.11757 0.80427 0.73001 0.0
H1268 H 0.14617 0.80021 0.8348 0.0
H1269 H 0.17411 0.82892 0.81936 0.0
C1270 C 0.17901 0.84869 0.75601 0.0
C1271 C 0.17984 0.85741 0.72148 0.0
C1272 C 0.16223 0.83307 0.76561 0.0
C1273 C 0.16316 0.85092 0.697 0.0
C1274 C 0.14634 0.83547 0.70642 0.0
C1275 C 0.12982 0.80975 0.74957 0.0
C1276 C 0.12987 0.79995 0.78341 0.0
C1277 C 0.14593 0.82618 0.74048 0.0
C1278 C 0.14579 0.80738 0.80849 0.0
C1279 C 0.16181 0.82379 0.79968 0.0
H1280 H 0.17713 0.195 0.71303 0.0
H1281 H 0.1084 0.18025 0.74372 0.0
H1282 H 0.12187 0.15119 0.78447 0.0
H1283 H 0.15328 0.13011 0.81186 0.0
H1284 H 0.22185 0.14468 0.77999 0.0
H1285 H 0.20829 0.17365 0.73945 0.0
C1286 C 0.16507 0.1854 0.72855 0.0
C1287 C 0.14181 0.18985 0.72534 0.0
C1288 C 0.1729 0.1687 0.75189 0.0
C1289 C 0.12643 0.17718 0.74562 0.0
C1290 C 0.13411 0.16058 0.76902 0.0
C1291 C 0.16524 0.13969 0.79613 0.0
C1292 C 0.18853 0.13524 0.79906 0.0
C1293 C 0.15732 0.15625 0.7725 0.0
C1294 C 0.20381 0.14769 0.77825 0.0
C1295 C 0.19609 0.1643 0.75502 0.0
H1296 H 0.82217 0.21098 0.80868 0.0
H1297 H 0.87945 0.2117 0.73811 0.0
H1298 H 0.86054 0.18468 0.69936 0.0
H1299 H 0.82729 0.16154 0.68458 0.0
H1300 H 0.77023 0.16071 0.75564 0.0
H1301 H 0.78955 0.18696 0.79498 0.0
C1302 C 0.83056 0.20519 0.78489 0.0
C1303 C 0.85214 0.21347 0.77629 0.0
C1304 C 0.81962 0.18962 0.76268 0.0
C1305 C 0.8628 0.20566 0.7454 0.0
C1306 C 0.852 0.19021 0.72315 0.0
C1307 C 0.81911 0.16705 0.70871 0.0
C1308 C 0.7973 0.1592 0.71697 0.0
C1309 C 0.83033 0.18219 0.73138 0.0
C1310 C 0.787 0.16647 0.74849 0.0
C1311 C 0.79802 0.18152 0.77107 0.0
H1312 H 0.70708 0.69093 0.70114 0.0
H1313 H 0.67425 0.62723 0.72309 0.0
H1314 H 0.64383 0.64704 0.75379 0.0
H1315 H 0.6272 0.68238 0.77619 0.0
H1316 H 0.66055 0.74593 0.75487 0.0
H1317 H 0.69004 0.7262 0.72216 0.0
C1318 C 0.69321 0.68136 0.71243 0.0
C1319 C 0.69301 0.65762 0.70987 0.0
C1320 C 0.67588 0.69282 0.73034 0.0
C1321 C 0.67489 0.64552 0.72472 0.0
C1322 C 0.65747 0.65683 0.74234 0.0
C1323 C 0.64087 0.69193 0.76429 0.0
C1324 C 0.64166 0.7156 0.76814 0.0
C1325 C 0.65791 0.68047 0.74561 0.0
C1326 C 0.65951 0.72769 0.75248 0.0
C1327 C 0.67642 0.71643 0.73372 0.0
H1328 H 0.31767 0.63255 0.76467 0.0
H1329 H 0.33205 0.67319 0.85673 0.0
H1330 H 0.35569 0.69826 0.82118 0.0
H1331 H 0.37045 0.70985 0.76346 0.0
H1332 H 0.35466 0.67015 0.67095 0.0
H1333 H 0.33347 0.64343 0.70729 0.0
C1334 C 0.32615 0.64676 0.77707 0.0
C1335 C 0.32304 0.65102 0.81331 0.0
C1336 C 0.33937 0.66134 0.75636 0.0
C1337 C 0.33407 0.66957 0.82887 0.0
C1338 C 0.34759 0.68393 0.80856 0.0
C1339 C 0.36256 0.69524 0.75125 0.0
C1340 C 0.36409 0.69206 0.71449 0.0
C1341 C 0.35007 0.68016 0.7722 0.0
C1342 C 0.35367 0.67308 0.69914 0.0
C1343 C 0.34154 0.65778 0.7199 0.0
H1344 H 0.34848 0.30556 0.77785 0.0
H1345 H 0.32397 0.25419 0.70632 0.0
H1346 H 0.29749 0.28117 0.68053 0.0
H1347 H 0.28055 0.31897 0.6792 0.0
H1348 H 0.30513 0.37062 0.75012 0.0
H1349 H 0.33238 0.34393 0.77503 0.0
C1350 C 0.33738 0.30028 0.75657 0.0
C1351 C 0.33816 0.27784 0.74418 0.0
C1352 C 0.32219 0.31592 0.74172 0.0
C1353 C 0.32374 0.27134 0.71642 0.0
C1354 C 0.30855 0.28675 0.70165 0.0
C1355 C 0.29191 0.32445 0.70003 0.0
C1356 C 0.2907 0.34674 0.71287 0.0
C1357 C 0.30752 0.30903 0.71423 0.0
C1358 C 0.30566 0.35355 0.73974 0.0
C1359 C 0.32123 0.33828 0.75407 0.0
H1360 H 0.64224 0.2862 0.74506 0.0
H1361 H 0.62293 0.33875 0.67186 0.0
H1362 H 0.6501 0.36462 0.69931 0.0
H1363 H 0.67944 0.37216 0.74416 0.0
H1364 H 0.69955 0.31874 0.81536 0.0
H1365 H 0.67189 0.29336 0.78863 0.0
C1366 C 0.6439 0.30334 0.73514 0.0
C1367 C 0.63051 0.31059 0.70661 0.0
C1368 C 0.6597 0.31795 0.75069 0.0
C1369 C 0.63306 0.33277 0.69381 0.0
C1370 C 0.64856 0.34756 0.70953 0.0
C1371 C 0.67769 0.35498 0.75387 0.0
C1372 C 0.69147 0.34737 0.78178 0.0
C1373 C 0.66196 0.34033 0.738 0.0
C1374 C 0.68919 0.32501 0.79386 0.0
C1375 C 0.67336 0.31048 0.77863 0.0
H1376 H 0.35337 0.27952 0.26398 0.0
H1377 H 0.36536 0.33086 0.18509 0.0
H1378 H 0.33943 0.35645 0.21556 0.0
H1379 H 0.31285 0.36395 0.26399 0.0
H1380 H 0.30073 0.3123 0.34239 0.0
H1381 H 0.32721 0.28712 0.31256 0.0
C1382 C 0.35043 0.29634 0.25349 0.0
C1383 C 0.36131 0.30325 0.2223 0.0
C1384 C 0.33539 0.31089 0.27096 0.0
C1385 C 0.35721 0.3251 0.20906 0.0
C1386 C 0.34236 0.33974 0.22644 0.0
C1387 C 0.316 0.34719 0.27458 0.0
C1388 C 0.30478 0.34003 0.30537 0.0
C1389 C 0.33126 0.33275 0.25729 0.0
C1390 C 0.3091 0.31827 0.31873 0.0
C1391 C 0.32426 0.30383 0.30171 0.0
H1392 H 0.68257 0.29861 0.28 0.0
H1393 H 0.6202 0.31407 0.22567 0.0
H1394 H 0.63916 0.34393 0.19247 0.0
H1395 H 0.67349 0.36559 0.17862 0.0
H1396 H 0.73583 0.34995 0.23298 0.0
H1397 H 0.71678 0.3203 0.26636 0.0
C1398 C 0.6731 0.30849 0.2609 0.0
C1399 C 0.65 0.30405 0.25536 0.0
C1400 C 0.68409 0.32565 0.24187 0.0
C1401 C 0.63801 0.31708 0.23049 0.0
C1402 C 0.64884 0.33419 0.21147 0.0
C1403 C 0.68292 0.35574 0.1978 0.0
C1404 C 0.70606 0.36004 0.20323 0.0
C1405 C 0.67188 0.33862 0.21692 0.0
C1406 C 0.71799 0.34704 0.22821 0.0
C1407 C 0.70713 0.33005 0.24734 0.0
H1408 H 0.71485 0.64094 0.20679 0.0
H1409 H 0.67443 0.63728 0.3015 0.0
H1410 H 0.64666 0.66288 0.2754 0.0
H1411 H 0.63461 0.68743 0.22674 0.0
H1412 H 0.6753 0.69161 0.13236 0.0
H1413 H 0.70216 0.66459 0.15733 0.0
C1414 C 0.69991 0.64562 0.22167 0.0
C1415 C 0.6968 0.63727 0.25611 0.0
C1416 C 0.68409 0.6605 0.20664 0.0
C1417 C 0.67731 0.64351 0.27499 0.0
C1418 C 0.66141 0.65817 0.2601 0.0
C1419 C 0.64929 0.68237 0.21152 0.0
C1420 C 0.65297 0.69163 0.17778 0.0
C1421 C 0.66475 0.66695 0.22611 0.0
C1422 C 0.67207 0.68482 0.15844 0.0
C1423 C 0.68746 0.66937 0.1727 0.0
H1424 H 0.31031 0.62884 0.24664 0.0
H1425 H 0.29989 0.67254 0.15666 0.0
H1426 H 0.32905 0.69818 0.17834 0.0
H1427 H 0.35656 0.70891 0.22358 0.0
H1428 H 0.36667 0.66588 0.31437 0.0
H1429 H 0.33867 0.63921 0.29145 0.0
C1430 C 0.31447 0.64393 0.2317 0.0
C1431 C 0.30284 0.64878 0.20013 0.0
C1432 C 0.3312 0.65873 0.24443 0.0
C1433 C 0.30848 0.6684 0.1811 0.0
C1434 C 0.32518 0.6831 0.19346 0.0
C1435 C 0.35278 0.69363 0.2383 0.0
C1436 C 0.36368 0.68944 0.27068 0.0
C1437 C 0.33651 0.67852 0.2252 0.0
C1438 C 0.35851 0.66955 0.28939 0.0
C1439 C 0.34247 0.6543 0.27633 0.0
loop_
_geom_bond_atom_site_label_1
_geom_bond_atom_site_label_2
_geom_bond_distance
_geom_bond_site_symmetry_2
_ccdc_geom_bond_type
C0 O1 1.160 . S
C0 O7 1.185 . S
O1 C0 1.160 . S
O2 Zn3 1.899 . S
O2 C10 1.284 . S
Zn3 O2 1.899 . S
Zn3 O4 2.032 . S
Zn3 O7 2.086 . S
Zn3 O12 1.977 . S
O4 Zn3 2.032 . S
O4 C8 1.278 . S
C5 O6 1.203 . S
C5 O12 1.267 . S
O6 C5 1.203 . S
O7 C0 1.185 . S
O7 Zn3 2.086 . S
C8 O4 1.278 . S
C8 O9 1.211 . S
O9 C8 1.211 . S
C10 O2 1.284 . S
C10 O11 1.273 . S
O11 C10 1.273 . S
O12 Zn3 1.977 . S
O12 C5 1.267 . S
C13 O14 1.160 . S
C13 O20 1.185 . S
O14 C13 1.160 . S
O15 Zn16 1.899 . S
O15 C23 1.284 . S
Zn16 O15 1.899 . S
Zn16 O17 2.032 . S
Zn16 O20 2.086 . S
Zn16 O25 1.977 . S
O17 Zn16 2.032 . S
O17 C21 1.278 . S
C18 O19 1.203 . S
C18 O25 1.267 . S
O19 C18 1.203 . S
O20 C13 1.185 . S
O20 Zn16 2.086 . S
C21 O17 1.278 . S
C21 O22 1.211 . S
O22 C21 1.211 . S
C23 O15 1.284 . S
C23 O24 1.273 . S
O24 C23 1.273 . S
O25 Zn16 1.977 . S
O25 C18 1.267 . S
C26 O27 1.160 . S
C26 O33 1.185 . S
O27 C26 1.160 . S
O28 Zn29 1.899 . S
O28 C36 1.284 . S
Zn29 O28 1.899 . S
Zn29 O30 2.032 . S
Zn29 O33 2.086 . S
Zn29 O38 1.977 . S
O30 Zn29 2.032 . S
O30 C34 1.278 . S
C31 O32 1.203 . S
C31 O38 1.267 . S
O32 C31 1.203 . S
O33 C26 1.185 . S
O33 Zn29 2.086 . S
C34 O30 1.278 . S
C34 O35 1.211 . S
O35 C34 1.211 . S
C36 O28 1.284 . S
C36 O37 1.273 . S
O37 C36 1.273 . S
O38 Zn29 1.977 . S
O38 C31 1.267 . S
C39 O40 1.160 . S
C39 O46 1.185 . S
O40 C39 1.160 . S
O41 Zn42 1.899 . S
O41 C49 1.284 . S
Zn42 O41 1.899 . S
Zn42 O43 2.032 . S
Zn42 O46 2.086 . S
Zn42 O51 1.977 . S
O43 Zn42 2.032 . S
O43 C47 1.278 . S
C44 O45 1.203 . S
C44 O51 1.267 . S
O45 C44 1.203 . S
O46 C39 1.185 . S
O46 Zn42 2.086 . S
C47 O43 1.278 . S
C47 O48 1.211 . S
O48 C47 1.211 . S
C49 O41 1.284 . S
C49 O50 1.273 . S
O50 C49 1.273 . S
O51 Zn42 1.977 . S
O51 C44 1.267 . S
C52 O53 1.160 . S
C52 O59 1.185 . S
O53 C52 1.160 . S
O54 Zn55 1.899 . S
O54 C62 1.284 . S
Zn55 O54 1.899 . S
Zn55 O56 2.032 . S
Zn55 O59 2.086 . S
Zn55 O64 1.977 . S
O56 Zn55 2.032 . S
O56 C60 1.278 . S
C57 O58 1.203 . S
C57 O64 1.267 . S
O58 C57 1.203 . S
O59 C52 1.185 . S
O59 Zn55 2.086 . S
C60 O56 1.278 . S
C60 O61 1.211 . S
O61 C60 1.211 . S
C62 O54 1.284 . S
C62 O63 1.273 . S
O63 C62 1.273 . S
O64 Zn55 1.977 . S
O64 C57 1.267 . S
C65 O66 1.160 . S
C65 O72 1.185 . S
O66 C65 1.160 . S
O67 Zn68 1.899 . S
O67 C75 1.284 . S
Zn68 O67 1.899 . S
Zn68 O69 2.032 . S
Zn68 O72 2.086 . S
Zn68 O77 1.977 . S
O69 Zn68 2.032 . S
O69 C73 1.278 . S
C70 O71 1.203 . S
C70 O77 1.267 . S
O71 C70 1.203 . S
O72 C65 1.185 . S
O72 Zn68 2.086 . S
C73 O69 1.278 . S
C73 O74 1.211 . S
O74 C73 1.211 . S
C75 O67 1.284 . S
C75 O76 1.273 . S
O76 C75 1.273 . S
O77 Zn68 1.977 . S
O77 C70 1.267 . S
C78 O79 1.160 . S
C78 O85 1.185 . S
O79 C78 1.160 . S
O80 Zn81 1.899 . S
O80 C88 1.284 . S
Zn81 O80 1.899 . S
Zn81 O82 2.032 . S
Zn81 O85 2.086 . S
Zn81 O90 1.977 . S
O82 Zn81 2.032 . S
O82 C86 1.278 . S
C83 O84 1.203 . S
C83 O90 1.267 . S
O84 C83 1.203 . S
O85 C78 1.185 . S
O85 Zn81 2.086 . S
C86 O82 1.278 . S
C86 O87 1.211 . S
O87 C86 1.211 . S
C88 O80 1.284 . S
C88 O89 1.273 . S
O89 C88 1.273 . S
O90 Zn81 1.977 . S
O90 C83 1.267 . S
C91 O92 1.160 . S
C91 O98 1.185 . S
O92 C91 1.160 . S
O93 Zn94 1.899 . S
O93 C101 1.284 . S
Zn94 O93 1.899 . S
Zn94 O95 2.032 . S
Zn94 O98 2.086 . S
Zn94 O103 1.977 . S
O95 Zn94 2.032 . S
O95 C99 1.278 . S
C96 O97 1.203 . S
C96 O103 1.267 . S
O97 C96 1.203 . S
O98 C91 1.185 . S
O98 Zn94 2.086 . S
C99 O95 1.278 . S
C99 O100 1.211 . S
O100 C99 1.211 . S
C101 O93 1.284 . S
C101 O102 1.273 . S
O102 C101 1.273 . S
O103 Zn94 1.977 . S
O103 C96 1.267 . S
C104 O105 1.160 . S
C104 O111 1.185 . S
O105 C104 1.160 . S
O106 Zn107 1.899 . S
O106 C114 1.284 . S
Zn107 O106 1.899 . S
Zn107 O108 2.032 . S
Zn107 O111 2.086 . S
Zn107 O116 1.977 . S
O108 Zn107 2.032 . S
O108 C112 1.278 . S
C109 O110 1.203 . S
C109 O116 1.267 . S
O110 C109 1.203 . S
O111 C104 1.185 . S
O111 Zn107 2.086 . S
C112 O108 1.278 . S
C112 O113 1.211 . S
O113 C112 1.211 . S
C114 O106 1.284 . S
C114 O115 1.273 . S
O115 C114 1.273 . S
O116 Zn107 1.977 . S
O116 C109 1.267 . S
C117 O118 1.160 . S
C117 O124 1.185 . S
O118 C117 1.160 . S
O119 Zn120 1.899 . S
O119 C127 1.284 . S
Zn120 O119 1.899 . S
Zn120 O121 2.032 . S
Zn120 O124 2.086 . S
Zn120 O129 1.977 . S
O121 Zn120 2.032 . S
O121 C125 1.278 . S
C122 O123 1.203 . S
C122 O129 1.267 . S
O123 C122 1.203 . S
O124 C117 1.185 . S
O124 Zn120 2.086 . S
C125 O121 1.278 . S
C125 O126 1.211 . S
O126 C125 1.211 . S
C127 O119 1.284 . S
C127 O128 1.273 . S
O128 C127 1.273 . S
O129 Zn120 1.977 . S
O129 C122 1.267 . S
C130 O131 1.160 . S
C130 O137 1.185 . S
O131 C130 1.160 . S
O132 Zn133 1.899 . S
O132 C140 1.284 . S
Zn133 O132 1.899 . S
Zn133 O134 2.032 . S
Zn133 O137 2.086 . S
Zn133 O142 1.977 . S
O134 Zn133 2.032 . S
O134 C138 1.278 . S
C135 O136 1.203 . S
C135 O142 1.267 . S
O136 C135 1.203 . S
O137 C130 1.185 . S
O137 Zn133 2.086 . S
C138 O134 1.278 . S
C138 O139 1.211 . S
O139 C138 1.211 . S
C140 O132 1.284 . S
C140 O141 1.273 . S
O141 C140 1.273 . S
O142 Zn133 1.977 . S
O142 C135 1.267 . S
C143 O144 1.160 . S
C143 O150 1.185 . S
O144 C143 1.160 . S
O145 Zn146 1.899 . S
O145 C153 1.284 . S
Zn146 O145 1.899 . S
Zn146 O147 2.032 . S
Zn146 O150 2.086 . S
Zn146 O155 1.977 . S
O147 Zn146 2.032 . S
O147 C151 1.278 . S
C148 O149 1.203 . S
C148 O155 1.267 . S
O149 C148 1.203 . S
O150 C143 1.185 . S
O150 Zn146 2.086 . S
C151 O147 1.278 . S
C151 O152 1.211 . S
O152 C151 1.211 . S
C153 O145 1.284 . S
C153 O154 1.273 . S
O154 C153 1.273 . S
O155 Zn146 1.977 . S
O155 C148 1.267 . S
C156 O157 1.160 . S
C156 O163 1.185 . S
O157 C156 1.160 . S
O158 Zn159 1.899 . S
O158 C166 1.284 . S
Zn159 O158 1.899 . S
Zn159 O160 2.032 . S
Zn159 O163 2.086 . S
Zn159 O168 1.977 . S
O160 Zn159 2.032 . S
O160 C164 1.278 . S
C161 O162 1.203 . S
C161 O168 1.267 . S
O162 C161 1.203 . S
O163 C156 1.185 . S
O163 Zn159 2.086 . S
C164 O160 1.278 . S
C164 O165 1.211 . S
O165 C164 1.211 . S
C166 O158 1.284 . S
C166 O167 1.273 . S
O167 C166 1.273 . S
O168 Zn159 1.977 . S
O168 C161 1.267 . S
C169 O170 1.160 . S
C169 O176 1.185 . S
O170 C169 1.160 . S
O171 Zn172 1.899 . S
O171 C179 1.284 . S
Zn172 O171 1.899 . S
Zn172 O173 2.032 . S
Zn172 O176 2.086 . S
Zn172 O181 1.977 . S
O173 Zn172 2.032 . S
O173 C177 1.278 . S
C174 O175 1.203 . S
C174 O181 1.267 . S
O175 C174 1.203 . S
O176 C169 1.185 . S
O176 Zn172 2.086 . S
C177 O173 1.278 . S
C177 O178 1.211 . S
O178 C177 1.211 . S
C179 O171 1.284 . S
C179 O180 1.273 . S
O180 C179 1.273 . S
O181 Zn172 1.977 . S
O181 C174 1.267 . S
C182 O183 1.160 . S
C182 O189 1.185 . S
O183 C182 1.160 . S
O184 Zn185 1.899 . S
O184 C192 1.284 . S
Zn185 O184 1.899 . S
Zn185 O186 2.032 . S
Zn185 O189 2.086 . S
Zn185 O194 1.977 . S
O186 Zn185 2.032 . S
O186 C190 1.278 . S
C187 O188 1.203 . S
C187 O194 1.267 . S
O188 C187 1.203 . S
O189 C182 1.185 . S
O189 Zn185 2.086 . S
C190 O186 1.278 . S
C190 O191 1.211 . S
O191 C190 1.211 . S
C192 O184 1.284 . S
C192 O193 1.273 . S
O193 C192 1.273 . S
O194 Zn185 1.977 . S
O194 C187 1.267 . S
C195 O196 1.160 . S
C195 O202 1.185 . S
O196 C195 1.160 . S
O197 Zn198 1.899 . S
O197 C205 1.284 . S
Zn198 O197 1.899 . S
Zn198 O199 2.032 . S
Zn198 O202 2.086 . S
Zn198 O207 1.977 . S
O199 Zn198 2.032 . S
O199 C203 1.278 . S
C200 O201 1.203 . S
C200 O207 1.267 . S
O201 C200 1.203 . S
O202 C195 1.185 . S
O202 Zn198 2.086 . S
C203 O199 1.278 . S
C203 O204 1.211 . S
O204 C203 1.211 . S
C205 O197 1.284 . S
C205 O206 1.273 . S
O206 C205 1.273 . S
O207 Zn198 1.977 . S
O207 C200 1.267 . S
C208 O209 1.160 . S
C208 O215 1.185 . S
O209 C208 1.160 . S
O210 Zn211 1.899 . S
O210 C218 1.284 . S
Zn211 O210 1.899 . S
Zn211 O212 2.032 . S
Zn211 O215 2.086 . S
Zn211 O220 1.977 . S
O212 Zn211 2.032 . S
O212 C216 1.278 . S
C213 O214 1.203 . S
C213 O220 1.267 . S
O214 C213 1.203 . S
O215 C208 1.185 . S
O215 Zn211 2.086 . S
C216 O212 1.278 . S
C216 O217 1.211 . S
O217 C216 1.211 . S
C218 O210 1.284 . S
C218 O219 1.273 . S
O219 C218 1.273 . S
O220 Zn211 1.977 . S
O220 C213 1.267 . S
C221 O222 1.160 . S
C221 O228 1.185 . S
O222 C221 1.160 . S
O223 Zn224 1.899 . S
O223 C231 1.284 . S
Zn224 O223 1.899 . S
Zn224 O225 2.032 . S
Zn224 O228 2.086 . S
Zn224 O233 1.977 . S
O225 Zn224 2.032 . S
O225 C229 1.278 . S
C226 O227 1.203 . S
C226 O233 1.267 . S
O227 C226 1.203 . S
O228 C221 1.185 . S
O228 Zn224 2.086 . S
C229 O225 1.278 . S
C229 O230 1.211 . S
O230 C229 1.211 . S
C231 O223 1.284 . S
C231 O232 1.273 . S
O232 C231 1.273 . S
O233 Zn224 1.977 . S
O233 C226 1.267 . S
C234 O235 1.160 . S
C234 O241 1.185 . S
O235 C234 1.160 . S
O236 Zn237 1.899 . S
O236 C244 1.284 . S
Zn237 O236 1.899 . S
Zn237 O238 2.032 . S
Zn237 O241 2.086 . S
Zn237 O246 1.977 . S
O238 Zn237 2.032 . S
O238 C242 1.278 . S
C239 O240 1.203 . S
C239 O246 1.267 . S
O240 C239 1.203 . S
O241 C234 1.185 . S
O241 Zn237 2.086 . S
C242 O238 1.278 . S
C242 O243 1.211 . S
O243 C242 1.211 . S
C244 O236 1.284 . S
C244 O245 1.273 . S
O245 C244 1.273 . S
O246 Zn237 1.977 . S
O246 C239 1.267 . S
C247 O248 1.160 . S
C247 O254 1.185 . S
O248 C247 1.160 . S
O249 Zn250 1.899 . S
O249 C257 1.284 . S
Zn250 O249 1.899 . S
Zn250 O251 2.032 . S
Zn250 O254 2.086 . S
Zn250 O259 1.977 . S
O251 Zn250 2.032 . S
O251 C255 1.278 . S
C252 O253 1.203 . S
C252 O259 1.267 . S
O253 C252 1.203 . S
O254 C247 1.185 . S
O254 Zn250 2.086 . S
C255 O251 1.278 . S
C255 O256 1.211 . S
O256 C255 1.211 . S
C257 O249 1.284 . S
C257 O258 1.273 . S
O258 C257 1.273 . S
O259 Zn250 1.977 . S
O259 C252 1.267 . S
C260 O261 1.160 . S
C260 O267 1.185 . S
O261 C260 1.160 . S
O262 Zn263 1.899 . S
O262 C270 1.284 . S
Zn263 O262 1.899 . S
Zn263 O264 2.032 . S
Zn263 O267 2.086 . S
Zn263 O272 1.977 . S
O264 Zn263 2.032 . S
O264 C268 1.278 . S
C265 O266 1.203 . S
C265 O272 1.267 . S
O266 C265 1.203 . S
O267 C260 1.185 . S
O267 Zn263 2.086 . S
C268 O264 1.278 . S
C268 O269 1.211 . S
O269 C268 1.211 . S
C270 O262 1.284 . S
C270 O271 1.273 . S
O271 C270 1.273 . S
O272 Zn263 1.977 . S
O272 C265 1.267 . S
C273 O274 1.160 . S
C273 O280 1.185 . S
O274 C273 1.160 . S
O275 Zn276 1.899 . S
O275 C283 1.284 . S
Zn276 O275 1.899 . S
Zn276 O277 2.032 . S
Zn276 O280 2.086 . S
Zn276 O285 1.977 . S
O277 Zn276 2.032 . S
O277 C281 1.278 . S
C278 O279 1.203 . S
C278 O285 1.267 . S
O279 C278 1.203 . S
O280 C273 1.185 . S
O280 Zn276 2.086 . S
C281 O277 1.278 . S
C281 O282 1.211 . S
O282 C281 1.211 . S
C283 O275 1.284 . S
C283 O284 1.273 . S
O284 C283 1.273 . S
O285 Zn276 1.977 . S
O285 C278 1.267 . S
C286 O287 1.160 . S
C286 O293 1.185 . S
O287 C286 1.160 . S
O288 Zn289 1.899 . S
O288 C296 1.284 . S
Zn289 O288 1.899 . S
Zn289 O290 2.032 . S
Zn289 O293 2.086 . S
Zn289 O298 1.977 . S
O290 Zn289 2.032 . S
O290 C294 1.278 . S
C291 O292 1.203 . S
C291 O298 1.267 . S
O292 C291 1.203 . S
O293 C286 1.185 . S
O293 Zn289 2.086 . S
C294 O290 1.278 . S
C294 O295 1.211 . S
O295 C294 1.211 . S
C296 O288 1.284 . S
C296 O297 1.273 . S
O297 C296 1.273 . S
O298 Zn289 1.977 . S
O298 C291 1.267 . S
C299 O300 1.160 . S
C299 O306 1.185 . S
O300 C299 1.160 . S
O301 Zn302 1.899 . S
O301 C309 1.284 . S
Zn302 O301 1.899 . S
Zn302 O303 2.032 . S
Zn302 O306 2.086 . S
Zn302 O311 1.977 . S
O303 Zn302 2.032 . S
O303 C307 1.278 . S
C304 O305 1.203 . S
C304 O311 1.267 . S
O305 C304 1.203 . S
O306 C299 1.185 . S
O306 Zn302 2.086 . S
C307 O303 1.278 . S
C307 O308 1.211 . S
O308 C307 1.211 . S
C309 O301 1.284 . S
C309 O310 1.273 . S
O310 C309 1.273 . S
O311 Zn302 1.977 . S
O311 C304 1.267 . S
C312 O313 1.160 . S
C312 O319 1.185 . S
O313 C312 1.160 . S
O314 Zn315 1.899 . S
O314 C322 1.284 . S
Zn315 O314 1.899 . S
Zn315 O316 2.032 . S
Zn315 O319 2.086 . S
Zn315 O324 1.977 . S
O316 Zn315 2.032 . S
O316 C320 1.278 . S
C317 O318 1.203 . S
C317 O324 1.267 . S
O318 C317 1.203 . S
O319 C312 1.185 . S
O319 Zn315 2.086 . S
C320 O316 1.278 . S
C320 O321 1.211 . S
O321 C320 1.211 . S
C322 O314 1.284 . S
C322 O323 1.273 . S
O323 C322 1.273 . S
O324 Zn315 1.977 . S
O324 C317 1.267 . S
C325 O326 1.160 . S
C325 O332 1.185 . S
O326 C325 1.160 . S
O327 Zn328 1.899 . S
O327 C335 1.284 . S
Zn328 O327 1.899 . S
Zn328 O329 2.032 . S
Zn328 O332 2.086 . S
Zn328 O337 1.977 . S
O329 Zn328 2.032 . S
O329 C333 1.278 . S
C330 O331 1.203 . S
C330 O337 1.267 . S
O331 C330 1.203 . S
O332 C325 1.185 . S
O332 Zn328 2.086 . S
C333 O329 1.278 . S
C333 O334 1.211 . S
O334 C333 1.211 . S
C335 O327 1.284 . S
C335 O336 1.273 . S
O336 C335 1.273 . S
O337 Zn328 1.977 . S
O337 C330 1.267 . S
C338 O339 1.160 . S
C338 O345 1.185 . S
O339 C338 1.160 . S
O340 Zn341 1.899 . S
O340 C348 1.284 . S
Zn341 O340 1.899 . S
Zn341 O342 2.032 . S
Zn341 O345 2.086 . S
Zn341 O350 1.977 . S
O342 Zn341 2.032 . S
O342 C346 1.278 . S
C343 O344 1.203 . S
C343 O350 1.267 . S
O344 C343 1.203 . S
O345 C338 1.185 . S
O345 Zn341 2.086 . S
C346 O342 1.278 . S
C346 O347 1.211 . S
O347 C346 1.211 . S
C348 O340 1.284 . S
C348 O349 1.273 . S
O349 C348 1.273 . S
O350 Zn341 1.977 . S
O350 C343 1.267 . S
C351 O352 1.160 . S
C351 O358 1.185 . S
O352 C351 1.160 . S
O353 Zn354 1.899 . S
O353 C361 1.284 . S
Zn354 O353 1.899 . S
Zn354 O355 2.032 . S
Zn354 O358 2.086 . S
Zn354 O363 1.977 . S
O355 Zn354 2.032 . S
O355 C359 1.278 . S
C356 O357 1.203 . S
C356 O363 1.267 . S
O357 C356 1.203 . S
O358 C351 1.185 . S
O358 Zn354 2.086 . S
C359 O355 1.278 . S
C359 O360 1.211 . S
O360 C359 1.211 . S
C361 O353 1.284 . S
C361 O362 1.273 . S
O362 C361 1.273 . S
O363 Zn354 1.977 . S
O363 C356 1.267 . S
C364 O365 1.160 . S
C364 O371 1.185 . S
O365 C364 1.160 . S
O366 Zn367 1.899 . S
O366 C374 1.284 . S
Zn367 O366 1.899 . S
Zn367 O368 2.032 . S
Zn367 O371 2.086 . S
Zn367 O376 1.977 . S
O368 Zn367 2.032 . S
O368 C372 1.278 . S
C369 O370 1.203 . S
C369 O376 1.267 . S
O370 C369 1.203 . S
O371 C364 1.185 . S
O371 Zn367 2.086 . S
C372 O368 1.278 . S
C372 O373 1.211 . S
O373 C372 1.211 . S
C374 O366 1.284 . S
C374 O375 1.273 . S
O375 C374 1.273 . S
O376 Zn367 1.977 . S
O376 C369 1.267 . S
C377 O378 1.160 . S
C377 O384 1.185 . S
O378 C377 1.160 . S
O379 Zn380 1.899 . S
O379 C387 1.284 . S
Zn380 O379 1.899 . S
Zn380 O381 2.032 . S
Zn380 O384 2.086 . S
Zn380 O389 1.977 . S
O381 Zn380 2.032 . S
O381 C385 1.278 . S
C382 O383 1.203 . S
C382 O389 1.267 . S
O383 C382 1.203 . S
O384 C377 1.185 . S
O384 Zn380 2.086 . S
C385 O381 1.278 . S
C385 O386 1.211 . S
O386 C385 1.211 . S
C387 O379 1.284 . S
C387 O388 1.273 . S
O388 C387 1.273 . S
O389 Zn380 1.977 . S
O389 C382 1.267 . S
C390 O391 1.160 . S
C390 O397 1.185 . S
O391 C390 1.160 . S
O392 Zn393 1.899 . S
O392 C400 1.284 . S
Zn393 O392 1.899 . S
Zn393 O394 2.032 . S
Zn393 O397 2.086 . S
Zn393 O402 1.977 . S
O394 Zn393 2.032 . S
O394 C398 1.278 . S
C395 O396 1.203 . S
C395 O402 1.267 . S
O396 C395 1.203 . S
O397 C390 1.185 . S
O397 Zn393 2.086 . S
C398 O394 1.278 . S
C398 O399 1.211 . S
O399 C398 1.211 . S
C400 O392 1.284 . S
C400 O401 1.273 . S
O401 C400 1.273 . S
O402 Zn393 1.977 . S
O402 C395 1.267 . S
C403 O404 1.160 . S
C403 O410 1.185 . S
O404 C403 1.160 . S
O405 Zn406 1.899 . S
O405 C413 1.284 . S
Zn406 O405 1.899 . S
Zn406 O407 2.032 . S
Zn406 O410 2.086 . S
Zn406 O415 1.977 . S
O407 Zn406 2.032 . S
O407 C411 1.278 . S
C408 O409 1.203 . S
C408 O415 1.267 . S
O409 C408 1.203 . S
O410 C403 1.185 . S
O410 Zn406 2.086 . S
C411 O407 1.278 . S
C411 O412 1.211 . S
O412 C411 1.211 . S
C413 O405 1.284 . S
C413 O414 1.273 . S
O414 C413 1.273 . S
O415 Zn406 1.977 . S
O415 C408 1.267 . S
H416 C422 0.930 . S
H417 C425 0.930 . S
H418 C426 0.930 . S
H419 C427 0.930 . S
H420 C430 0.930 . S
H421 C431 0.930 . S
C422 H416 0.930 . S
C422 C423 1.355 . S
C422 C424 1.415 . S
C423 C422 1.355 . S
C423 C425 1.419 . S
C424 C422 1.415 . S
C424 C429 1.425 . S
C424 C431 1.409 . S
C425 H417 0.930 . S
C425 C423 1.419 . S
C425 C426 1.362 . S
C426 H418 0.930 . S
C426 C425 1.362 . S
C426 C429 1.409 . S
C427 H419 0.930 . S
C427 C428 1.355 . S
C427 C429 1.415 . S
C428 C427 1.355 . S
C428 C430 1.419 . S
C429 C424 1.425 . S
C429 C426 1.409 . S
C429 C427 1.415 . S
C430 H420 0.930 . S
C430 C428 1.419 . S
C430 C431 1.362 . S
C431 H421 0.930 . S
C431 C424 1.409 . S
C431 C430 1.362 . S
H432 C438 0.930 . S
H433 C441 0.930 . S
H434 C442 0.930 . S
H435 C443 0.930 . S
H436 C446 0.930 . S
H437 C447 0.930 . S
C438 H432 0.930 . S
C438 C439 1.355 . S
C438 C440 1.415 . S
C439 C438 1.355 . S
C439 C441 1.419 . S
C440 C438 1.415 . S
C440 C445 1.425 . S
C440 C447 1.409 . S
C441 H433 0.930 . S
C441 C439 1.419 . S
C441 C442 1.362 . S
C442 H434 0.930 . S
C442 C441 1.362 . S
C442 C445 1.409 . S
C443 H435 0.930 . S
C443 C444 1.355 . S
C443 C445 1.415 . S
C444 C443 1.355 . S
C444 C446 1.419 . S
C445 C440 1.425 . S
C445 C442 1.409 . S
C445 C443 1.415 . S
C446 H436 0.930 . S
C446 C444 1.419 . S
C446 C447 1.362 . S
C447 H437 0.930 . S
C447 C440 1.409 . S
C447 C446 1.362 . S
H448 C454 0.930 . S
H449 C457 0.930 . S
H450 C458 0.930 . S
H451 C459 0.930 . S
H452 C462 0.930 . S
H453 C463 0.930 . S
C454 H448 0.930 . S
C454 C455 1.355 . S
C454 C456 1.415 . S
C455 C454 1.355 . S
C455 C457 1.419 . S
C456 C454 1.415 . S
C456 C461 1.425 . S
C456 C463 1.409 . S
C457 H449 0.930 . S
C457 C455 1.419 . S
C457 C458 1.362 . S
C458 H450 0.930 . S
C458 C457 1.362 . S
C458 C461 1.409 . S
C459 H451 0.930 . S
C459 C460 1.355 . S
C459 C461 1.415 . S
C460 C459 1.355 . S
C460 C462 1.419 . S
C461 C456 1.425 . S
C461 C458 1.409 . S
C461 C459 1.415 . S
C462 H452 0.930 . S
C462 C460 1.419 . S
C462 C463 1.362 . S
C463 H453 0.930 . S
C463 C456 1.409 . S
C463 C462 1.362 . S
H464 C470 0.930 . S
H465 C473 0.930 . S
H466 C474 0.930 . S
H467 C475 0.930 . S
H468 C478 0.930 . S
H469 C479 0.930 . S
C470 H464 0.930 . S
C470 C471 1.355 . S
C470 C472 1.415 . S
C471 C470 1.355 . S
C471 C473 1.419 . S
C472 C470 1.415 . S
C472 C477 1.425 . S
C472 C479 1.409 . S
C473 H465 0.930 . S
C473 C471 1.419 . S
C473 C474 1.362 . S
C474 H466 0.930 . S
C474 C473 1.362 . S
C474 C477 1.409 . S
C475 H467 0.930 . S
C475 C476 1.355 . S
C475 C477 1.415 . S
C476 C475 1.355 . S
C476 C478 1.419 . S
C477 C472 1.425 . S
C477 C474 1.409 . S
C477 C475 1.415 . S
C478 H468 0.930 . S
C478 C476 1.419 . S
C478 C479 1.362 . S
C479 H469 0.930 . S
C479 C472 1.409 . S
C479 C478 1.362 . S
H480 C486 0.930 . S
H481 C489 0.930 . S
H482 C490 0.930 . S
H483 C491 0.930 . S
H484 C494 0.930 . S
H485 C495 0.930 . S
C486 H480 0.930 . S
C486 C487 1.355 . S
C486 C488 1.415 . S
C487 C486 1.355 . S
C487 C489 1.419 . S
C488 C486 1.415 . S
C488 C493 1.425 . S
C488 C495 1.409 . S
C489 H481 0.930 . S
C489 C487 1.419 . S
C489 C490 1.362 . S
C490 H482 0.930 . S
C490 C489 1.362 . S
C490 C493 1.409 . S
C491 H483 0.930 . S
C491 C492 1.355 . S
C491 C493 1.415 . S
C492 C491 1.355 . S
C492 C494 1.419 . S
C493 C488 1.425 . S
C493 C490 1.409 . S
C493 C491 1.415 . S
C494 H484 0.930 . S
C494 C492 1.419 . S
C494 C495 1.362 . S
C495 H485 0.930 . S
C495 C488 1.409 . S
C495 C494 1.362 . S
H496 C502 0.930 . S
H497 C505 0.930 . S
H498 C506 0.930 . S
H499 C507 0.930 . S
H500 C510 0.930 . S
H501 C511 0.930 . S
C502 H496 0.930 . S
C502 C503 1.355 . S
C502 C504 1.415 . S
C503 C502 1.355 . S
C503 C505 1.419 . S
C504 C502 1.415 . S
C504 C509 1.425 . S
C504 C511 1.409 . S
C505 H497 0.930 . S
C505 C503 1.419 . S
C505 C506 1.362 . S
C506 H498 0.930 . S
C506 C505 1.362 . S
C506 C509 1.409 . S
C507 H499 0.930 . S
C507 C508 1.355 . S
C507 C509 1.415 . S
C508 C507 1.355 . S
C508 C510 1.419 . S
C509 C504 1.425 . S
C509 C506 1.409 . S
C509 C507 1.415 . S
C510 H500 0.930 . S
C510 C508 1.419 . S
C510 C511 1.362 . S
C511 H501 0.930 . S
C511 C504 1.409 . S
C511 C510 1.362 . S
H512 C518 0.930 . S
H513 C521 0.930 . S
H514 C522 0.930 . S
H515 C523 0.930 . S
H516 C526 0.930 . S
H517 C527 0.930 . S
C518 H512 0.930 . S
C518 C519 1.355 . S
C518 C520 1.415 . S
C519 C518 1.355 . S
C519 C521 1.419 . S
C520 C518 1.415 . S
C520 C525 1.425 . S
C520 C527 1.409 . S
C521 H513 0.930 . S
C521 C519 1.419 . S
C521 C522 1.362 . S
C522 H514 0.930 . S
C522 C521 1.362 . S
C522 C525 1.409 . S
C523 H515 0.930 . S
C523 C524 1.355 . S
C523 C525 1.415 . S
C524 C523 1.355 . S
C524 C526 1.419 . S
C525 C520 1.425 . S
C525 C522 1.409 . S
C525 C523 1.415 . S
C526 H516 0.930 . S
C526 C524 1.419 . S
C526 C527 1.362 . S
C527 H517 0.930 . S
C527 C520 1.409 . S
C527 C526 1.362 . S
H528 C534 0.930 . S
H529 C537 0.930 . S
H530 C538 0.930 . S
H531 C539 0.930 . S
H532 C542 0.930 . S
H533 C543 0.930 . S
C534 H528 0.930 . S
C534 C535 1.355 . S
C534 C536 1.415 . S
C535 C534 1.355 . S
C535 C537 1.419 . S
C536 C534 1.415 . S
C536 C541 1.425 . S
C536 C543 1.409 . S
C537 H529 0.930 . S
C537 C535 1.419 . S
C537 C538 1.362 . S
C538 H530 0.930 . S
C538 C537 1.362 . S
C538 C541 1.409 . S
C539 H531 0.930 . S
C539 C540 1.355 . S
C539 C541 1.415 . S
C540 C539 1.355 . S
C540 C542 1.419 . S
C541 C536 1.425 . S
C541 C538 1.409 . S
C541 C539 1.415 . S
C542 H532 0.930 . S
C542 C540 1.419 . S
C542 C543 1.362 . S
C543 H533 0.930 . S
C543 C536 1.409 . S
C543 C542 1.362 . S
H544 C550 0.930 . S
H545 C553 0.930 . S
H546 C554 0.930 . S
H547 C555 0.930 . S
H548 C558 0.930 . S
H549 C559 0.930 . S
C550 H544 0.930 . S
C550 C551 1.355 . S
C550 C552 1.415 . S
C551 C550 1.355 . S
C551 C553 1.419 . S
C552 C550 1.415 . S
C552 C557 1.425 . S
C552 C559 1.409 . S
C553 H545 0.930 . S
C553 C551 1.419 . S
C553 C554 1.362 . S
C554 H546 0.930 . S
C554 C553 1.362 . S
C554 C557 1.409 . S
C555 H547 0.930 . S
C555 C556 1.355 . S
C555 C557 1.415 . S
C556 C555 1.355 . S
C556 C558 1.419 . S
C557 C552 1.425 . S
C557 C554 1.409 . S
C557 C555 1.415 . S
C558 H548 0.930 . S
C558 C556 1.419 . S
C558 C559 1.362 . S
C559 H549 0.930 . S
C559 C552 1.409 . S
C559 C558 1.362 . S
H560 C566 0.930 . S
H561 C569 0.930 . S
H562 C570 0.930 . S
H563 C571 0.930 . S
H564 C574 0.930 . S
H565 C575 0.930 . S
C566 H560 0.930 . S
C566 C567 1.355 . S
C566 C568 1.415 . S
C567 C566 1.355 . S
C567 C569 1.419 . S
C568 C566 1.415 . S
C568 C573 1.425 . S
C568 C575 1.409 . S
C569 H561 0.930 . S
C569 C567 1.419 . S
C569 C570 1.362 . S
C570 H562 0.930 . S
C570 C569 1.362 . S
C570 C573 1.409 . S
C571 H563 0.930 . S
C571 C572 1.355 . S
C571 C573 1.415 . S
C572 C571 1.355 . S
C572 C574 1.419 . S
C573 C568 1.425 . S
C573 C570 1.409 . S
C573 C571 1.415 . S
C574 H564 0.930 . S
C574 C572 1.419 . S
C574 C575 1.362 . S
C575 H565 0.930 . S
C575 C568 1.409 . S
C575 C574 1.362 . S
H576 C582 0.930 . S
H577 C585 0.930 . S
H578 C586 0.930 . S
H579 C587 0.930 . S
H580 C590 0.930 . S
H581 C591 0.930 . S
C582 H576 0.930 . S
C582 C583 1.355 . S
C582 C584 1.415 . S
C583 C582 1.355 . S
C583 C585 1.419 . S
C584 C582 1.415 . S
C584 C589 1.425 . S
C584 C591 1.409 . S
C585 H577 0.930 . S
C585 C583 1.419 . S
C585 C586 1.362 . S
C586 H578 0.930 . S
C586 C585 1.362 . S
C586 C589 1.409 . S
C587 H579 0.930 . S
C587 C588 1.355 . S
C587 C589 1.415 . S
C588 C587 1.355 . S
C588 C590 1.419 . S
C589 C584 1.425 . S
C589 C586 1.409 . S
C589 C587 1.415 . S
C590 H580 0.930 . S
C590 C588 1.419 . S
C590 C591 1.362 . S
C591 H581 0.930 . S
C591 C584 1.409 . S
C591 C590 1.362 . S
H592 C598 0.930 . S
H593 C601 0.930 . S
H594 C602 0.930 . S
H595 C603 0.930 . S
H596 C606 0.930 . S
H597 C607 0.930 . S
C598 H592 0.930 . S
C598 C599 1.355 . S
C598 C600 1.415 . S
C599 C598 1.355 . S
C599 C601 1.419 . S
C600 C598 1.415 . S
C600 C605 1.425 . S
C600 C607 1.409 . S
C601 H593 0.930 . S
C601 C599 1.419 . S
C601 C602 1.362 . S
C602 H594 0.930 . S
C602 C601 1.362 . S
C602 C605 1.409 . S
C603 H595 0.930 . S
C603 C604 1.355 . S
C603 C605 1.415 . S
C604 C603 1.355 . S
C604 C606 1.419 . S
C605 C600 1.425 . S
C605 C602 1.409 . S
C605 C603 1.415 . S
C606 H596 0.930 . S
C606 C604 1.419 . S
C606 C607 1.362 . S
C607 H597 0.930 . S
C607 C600 1.409 . S
C607 C606 1.362 . S
H608 C614 0.930 . S
H609 C617 0.930 . S
H610 C618 0.930 . S
H611 C619 0.930 . S
H612 C622 0.930 . S
H613 C623 0.930 . S
C614 H608 0.930 . S
C614 C615 1.355 . S
C614 C616 1.415 . S
C615 C614 1.355 . S
C615 C617 1.419 . S
C616 C614 1.415 . S
C616 C621 1.425 . S
C616 C623 1.409 . S
C617 H609 0.930 . S
C617 C615 1.419 . S
C617 C618 1.362 . S
C618 H610 0.930 . S
C618 C617 1.362 . S
C618 C621 1.409 . S
C619 H611 0.930 . S
C619 C620 1.355 . S
C619 C621 1.415 . S
C620 C619 1.355 . S
C620 C622 1.419 . S
C621 C616 1.425 . S
C621 C618 1.409 . S
C621 C619 1.415 . S
C622 H612 0.930 . S
C622 C620 1.419 . S
C622 C623 1.362 . S
C623 H613 0.930 . S
C623 C616 1.409 . S
C623 C622 1.362 . S
H624 C630 0.930 . S
H625 C633 0.930 . S
H626 C634 0.930 . S
H627 C635 0.930 . S
H628 C638 0.930 . S
H629 C639 0.930 . S
C630 H624 0.930 . S
C630 C631 1.355 . S
C630 C632 1.415 . S
C631 C630 1.355 . S
C631 C633 1.419 . S
C632 C630 1.415 . S
C632 C637 1.425 . S
C632 C639 1.409 . S
C633 H625 0.930 . S
C633 C631 1.419 . S
C633 C634 1.362 . S
C634 H626 0.930 . S
C634 C633 1.362 . S
C634 C637 1.409 . S
C635 H627 0.930 . S
C635 C636 1.355 . S
C635 C637 1.415 . S
C636 C635 1.355 . S
C636 C638 1.419 . S
C637 C632 1.425 . S
C637 C634 1.409 . S
C637 C635 1.415 . S
C638 H628 0.930 . S
C638 C636 1.419 . S
C638 C639 1.362 . S
C639 H629 0.930 . S
C639 C632 1.409 . S
C639 C638 1.362 . S
H640 C646 0.930 . S
H641 C649 0.930 . S
H642 C650 0.930 . S
H643 C651 0.930 . S
H644 C654 0.930 . S
H645 C655 0.930 . S
C646 H640 0.930 . S
C646 C647 1.355 . S
C646 C648 1.415 . S
C647 C646 1.355 . S
C647 C649 1.419 . S
C648 C646 1.415 . S
C648 C653 1.425 . S
C648 C655 1.409 . S
C649 H641 0.930 . S
C649 C647 1.419 . S
C649 C650 1.362 . S
C650 H642 0.930 . S
C650 C649 1.362 . S
C650 C653 1.409 . S
C651 H643 0.930 . S
C651 C652 1.355 . S
C651 C653 1.415 . S
C652 C651 1.355 . S
C652 C654 1.419 . S
C653 C648 1.425 . S
C653 C650 1.409 . S
C653 C651 1.415 . S
C654 H644 0.930 . S
C654 C652 1.419 . S
C654 C655 1.362 . S
C655 H645 0.930 . S
C655 C648 1.409 . S
C655 C654 1.362 . S
H656 C662 0.930 . S
H657 C665 0.930 . S
H658 C666 0.930 . S
H659 C667 0.930 . S
H660 C670 0.930 . S
H661 C671 0.930 . S
C662 H656 0.930 . S
C662 C663 1.355 . S
C662 C664 1.415 . S
C663 C662 1.355 . S
C663 C665 1.419 . S
C664 C662 1.415 . S
C664 C669 1.425 . S
C664 C671 1.409 . S
C665 H657 0.930 . S
C665 C663 1.419 . S
C665 C666 1.362 . S
C666 H658 0.930 . S
C666 C665 1.362 . S
C666 C669 1.409 . S
C667 H659 0.930 . S
C667 C668 1.355 . S
C667 C669 1.415 . S
C668 C667 1.355 . S
C668 C670 1.419 . S
C669 C664 1.425 . S
C669 C666 1.409 . S
C669 C667 1.415 . S
C670 H660 0.930 . S
C670 C668 1.419 . S
C670 C671 1.362 . S
C671 H661 0.930 . S
C671 C664 1.409 . S
C671 C670 1.362 . S
H672 C678 0.930 . S
H673 C681 0.930 . S
H674 C682 0.930 . S
H675 C683 0.930 . S
H676 C686 0.930 . S
H677 C687 0.930 . S
C678 H672 0.930 . S
C678 C679 1.355 . S
C678 C680 1.415 . S
C679 C678 1.355 . S
C679 C681 1.419 . S
C680 C678 1.415 . S
C680 C685 1.425 1_554 S
C680 C687 1.409 1_554 S
C681 H673 0.930 . S
C681 C679 1.419 . S
C681 C682 1.362 . S
C682 H674 0.930 . S
C682 C681 1.362 . S
C682 C685 1.409 1_554 S
C683 H675 0.930 . S
C683 C684 1.355 . S
C683 C685 1.415 . S
C684 C683 1.355 . S
C684 C686 1.419 . S
C685 C680 1.425 1_556 S
C685 C682 1.409 1_556 S
C685 C683 1.415 . S
C686 H676 0.930 . S
C686 C684 1.419 . S
C686 C687 1.362 . S
C687 H677 0.930 . S
C687 C680 1.409 1_556 S
C687 C686 1.362 . S
H688 C694 0.930 . S
H689 C697 0.930 . S
H690 C698 0.930 . S
H691 C699 0.930 . S
H692 C702 0.930 . S
H693 C703 0.930 . S
C694 H688 0.930 . S
C694 C695 1.355 . S
C694 C696 1.415 . S
C695 C694 1.355 . S
C695 C697 1.419 . S
C696 C694 1.415 . S
C696 C701 1.425 1_556 S
C696 C703 1.409 1_556 S
C697 H689 0.930 . S
C697 C695 1.419 . S
C697 C698 1.362 . S
C698 H690 0.930 . S
C698 C697 1.362 . S
C698 C701 1.409 1_556 S
C699 H691 0.930 . S
C699 C700 1.355 . S
C699 C701 1.415 . S
C700 C699 1.355 . S
C700 C702 1.419 . S
C701 C696 1.425 1_554 S
C701 C698 1.409 1_554 S
C701 C699 1.415 . S
C702 H692 0.930 . S
C702 C700 1.419 . S
C702 C703 1.362 . S
C703 H693 0.930 . S
C703 C696 1.409 1_554 S
C703 C702 1.362 . S
H704 C710 0.930 . S
H705 C713 0.930 . S
H706 C714 0.930 . S
H707 C715 0.930 . S
H708 C718 0.930 . S
H709 C719 0.930 . S
C710 H704 0.930 . S
C710 C711 1.355 . S
C710 C712 1.415 . S
C711 C710 1.355 . S
C711 C713 1.419 . S
C712 C710 1.415 . S
C712 C717 1.425 1_556 S
C712 C719 1.409 1_556 S
C713 H705 0.930 . S
C713 C711 1.419 . S
C713 C714 1.362 . S
C714 H706 0.930 . S
C714 C713 1.362 . S
C714 C717 1.409 1_556 S
C715 H707 0.930 . S
C715 C716 1.355 . S
C715 C717 1.415 . S
C716 C715 1.355 . S
C716 C718 1.419 . S
C717 C712 1.425 1_554 S
C717 C714 1.409 1_554 S
C717 C715 1.415 . S
C718 H708 0.930 . S
C718 C716 1.419 . S
C718 C719 1.362 . S
C719 H709 0.930 . S
C719 C712 1.409 1_554 S
C719 C718 1.362 . S
H720 C726 0.930 . S
H721 C729 0.930 . S
H722 C730 0.930 . S
H723 C731 0.930 . S
H724 C734 0.930 . S
H725 C735 0.930 . S
C726 H720 0.930 . S
C726 C727 1.355 . S
C726 C728 1.415 . S
C727 C726 1.355 . S
C727 C729 1.419 . S
C728 C726 1.415 . S
C728 C733 1.425 1_556 S
C728 C735 1.409 1_556 S
C729 H721 0.930 . S
C729 C727 1.419 . S
C729 C730 1.362 . S
C730 H722 0.930 . S
C730 C729 1.362 . S
C730 C733 1.409 1_556 S
C731 H723 0.930 . S
C731 C732 1.355 . S
C731 C733 1.415 . S
C732 C731 1.355 . S
C732 C734 1.419 . S
C733 C728 1.425 1_554 S
C733 C730 1.409 1_554 S
C733 C731 1.415 . S
C734 H724 0.930 . S
C734 C732 1.419 . S
C734 C735 1.362 . S
C735 H725 0.930 . S
C735 C728 1.409 1_554 S
C735 C734 1.362 . S
H736 C742 0.930 . S
H737 C745 0.930 . S
H738 C746 0.930 . S
H739 C747 0.930 . S
H740 C750 0.930 . S
H741 C751 0.930 . S
C742 H736 0.930 . S
C742 C743 1.355 . S
C742 C744 1.415 . S
C743 C742 1.355 . S
C743 C745 1.419 . S
C744 C742 1.415 . S
C744 C749 1.425 . S
C744 C751 1.409 . S
C745 H737 0.930 . S
C745 C743 1.419 . S
C745 C746 1.362 . S
C746 H738 0.930 . S
C746 C745 1.362 . S
C746 C749 1.409 . S
C747 H739 0.930 . S
C747 C748 1.355 . S
C747 C749 1.415 . S
C748 C747 1.355 . S
C748 C750 1.419 . S
C749 C744 1.425 . S
C749 C746 1.409 . S
C749 C747 1.415 . S
C750 H740 0.930 . S
C750 C748 1.419 . S
C750 C751 1.362 . S
C751 H741 0.930 . S
C751 C744 1.409 . S
C751 C750 1.362 . S
H752 C758 0.930 . S
H753 C761 0.930 . S
H754 C762 0.930 . S
H755 C763 0.930 . S
H756 C766 0.930 . S
H757 C767 0.930 . S
C758 H752 0.930 . S
C758 C759 1.355 . S
C758 C760 1.415 . S
C759 C758 1.355 . S
C759 C761 1.419 . S
C760 C758 1.415 . S
C760 C765 1.425 . S
C760 C767 1.409 . S
C761 H753 0.930 . S
C761 C759 1.419 . S
C761 C762 1.362 . S
C762 H754 0.930 . S
C762 C761 1.362 . S
C762 C765 1.409 . S
C763 H755 0.930 . S
C763 C764 1.355 . S
C763 C765 1.415 . S
C764 C763 1.355 . S
C764 C766 1.419 . S
C765 C760 1.425 . S
C765 C762 1.409 . S
C765 C763 1.415 . S
C766 H756 0.930 . S
C766 C764 1.419 . S
C766 C767 1.362 . S
C767 H757 0.930 . S
C767 C760 1.409 . S
C767 C766 1.362 . S
H768 C774 0.930 . S
H769 C777 0.930 . S
H770 C778 0.930 . S
H771 C779 0.930 . S
H772 C782 0.930 . S
H773 C783 0.930 . S
C774 H768 0.930 . S
C774 C775 1.355 . S
C774 C776 1.415 . S
C775 C774 1.355 . S
C775 C777 1.419 . S
C776 C774 1.415 . S
C776 C781 1.425 . S
C776 C783 1.409 . S
C777 H769 0.930 . S
C777 C775 1.419 . S
C777 C778 1.362 . S
C778 H770 0.930 . S
C778 C777 1.362 . S
C778 C781 1.409 . S
C779 H771 0.930 . S
C779 C780 1.355 . S
C779 C781 1.415 . S
C780 C779 1.355 . S
C780 C782 1.419 . S
C781 C776 1.425 . S
C781 C778 1.409 . S
C781 C779 1.415 . S
C782 H772 0.930 . S
C782 C780 1.419 . S
C782 C783 1.362 . S
C783 H773 0.930 . S
C783 C776 1.409 . S
C783 C782 1.362 . S
H784 C790 0.930 . S
H785 C793 0.930 . S
H786 C794 0.930 . S
H787 C795 0.930 . S
H788 C798 0.930 . S
H789 C799 0.930 . S
C790 H784 0.930 . S
C790 C791 1.355 . S
C790 C792 1.415 . S
C791 C790 1.355 . S
C791 C793 1.419 . S
C792 C790 1.415 . S
C792 C797 1.425 . S
C792 C799 1.409 . S
C793 H785 0.930 . S
C793 C791 1.419 . S
C793 C794 1.362 . S
C794 H786 0.930 . S
C794 C793 1.362 . S
C794 C797 1.409 . S
C795 H787 0.930 . S
C795 C796 1.355 . S
C795 C797 1.415 . S
C796 C795 1.355 . S
C796 C798 1.419 . S
C797 C792 1.425 . S
C797 C794 1.409 . S
C797 C795 1.415 . S
C798 H788 0.930 . S
C798 C796 1.419 . S
C798 C799 1.362 . S
C799 H789 0.930 . S
C799 C792 1.409 . S
C799 C798 1.362 . S
H800 C806 0.930 . S
H801 C809 0.930 . S
H802 C810 0.930 . S
H803 C811 0.930 . S
H804 C814 0.930 . S
H805 C815 0.930 . S
C806 H800 0.930 . S
C806 C807 1.355 . S
C806 C808 1.415 . S
C807 C806 1.355 . S
C807 C809 1.419 . S
C808 C806 1.415 . S
C808 C813 1.425 . S
C808 C815 1.409 . S
C809 H801 0.930 . S
C809 C807 1.419 . S
C809 C810 1.362 . S
C810 H802 0.930 . S
C810 C809 1.362 . S
C810 C813 1.409 . S
C811 H803 0.930 . S
C811 C812 1.355 . S
C811 C813 1.415 . S
C812 C811 1.355 . S
C812 C814 1.419 . S
C813 C808 1.425 . S
C813 C810 1.409 . S
C813 C811 1.415 . S
C814 H804 0.930 . S
C814 C812 1.419 . S
C814 C815 1.362 . S
C815 H805 0.930 . S
C815 C808 1.409 . S
C815 C814 1.362 . S
H816 C822 0.930 . S
H817 C825 0.930 . S
H818 C826 0.930 . S
H819 C827 0.930 . S
H820 C830 0.930 . S
H821 C831 0.930 . S
C822 H816 0.930 . S
C822 C823 1.355 . S
C822 C824 1.415 . S
C823 C822 1.355 . S
C823 C825 1.419 . S
C824 C822 1.415 . S
C824 C829 1.425 . S
C824 C831 1.409 . S
C825 H817 0.930 . S
C825 C823 1.419 . S
C825 C826 1.362 . S
C826 H818 0.930 . S
C826 C825 1.362 . S
C826 C829 1.409 . S
C827 H819 0.930 . S
C827 C828 1.355 . S
C827 C829 1.415 . S
C828 C827 1.355 . S
C828 C830 1.419 . S
C829 C824 1.425 . S
C829 C826 1.409 . S
C829 C827 1.415 . S
C830 H820 0.930 . S
C830 C828 1.419 . S
C830 C831 1.362 . S
C831 H821 0.930 . S
C831 C824 1.409 . S
C831 C830 1.362 . S
H832 C838 0.930 . S
H833 C841 0.930 . S
H834 C842 0.930 . S
H835 C843 0.930 . S
H836 C846 0.930 . S
H837 C847 0.930 . S
C838 H832 0.930 . S
C838 C839 1.355 . S
C838 C840 1.415 . S
C839 C838 1.355 . S
C839 C841 1.419 . S
C840 C838 1.415 . S
C840 C845 1.425 . S
C840 C847 1.409 . S
C841 H833 0.930 . S
C841 C839 1.419 . S
C841 C842 1.362 . S
C842 H834 0.930 . S
C842 C841 1.362 . S
C842 C845 1.409 . S
C843 H835 0.930 . S
C843 C844 1.355 . S
C843 C845 1.415 . S
C844 C843 1.355 . S
C844 C846 1.419 . S
C845 C840 1.425 . S
C845 C842 1.409 . S
C845 C843 1.415 . S
C846 H836 0.930 . S
C846 C844 1.419 . S
C846 C847 1.362 . S
C847 H837 0.930 . S
C847 C840 1.409 . S
C847 C846 1.362 . S
H848 C854 0.930 . S
H849 C857 0.930 . S
H850 C858 0.930 . S
H851 C859 0.930 . S
H852 C862 0.930 . S
H853 C863 0.930 . S
C854 H848 0.930 . S
C854 C855 1.355 . S
C854 C856 1.415 . S
C855 C854 1.355 . S
C855 C857 1.419 . S
C856 C854 1.415 . S
C856 C861 1.425 . S
C856 C863 1.409 . S
C857 H849 0.930 . S
C857 C855 1.419 . S
C857 C858 1.362 . S
C858 H850 0.930 . S
C858 C857 1.362 . S
C858 C861 1.409 . S
C859 H851 0.930 . S
C859 C860 1.355 . S
C859 C861 1.415 . S
C860 C859 1.355 . S
C860 C862 1.419 . S
C861 C856 1.425 . S
C861 C858 1.409 . S
C861 C859 1.415 . S
C862 H852 0.930 . S
C862 C860 1.419 . S
C862 C863 1.362 . S
C863 H853 0.930 . S
C863 C856 1.409 . S
C863 C862 1.362 . S
H864 C870 0.930 . S
H865 C873 0.930 . S
H866 C874 0.930 . S
H867 C875 0.930 . S
H868 C878 0.930 . S
H869 C879 0.930 . S
C870 H864 0.930 . S
C870 C871 1.355 . S
C870 C872 1.415 . S
C871 C870 1.355 . S
C871 C873 1.419 . S
C872 C870 1.415 . S
C872 C877 1.425 1_556 S
C872 C879 1.409 1_556 S
C873 H865 0.930 . S
C873 C871 1.419 . S
C873 C874 1.362 . S
C874 H866 0.930 . S
C874 C873 1.362 . S
C874 C877 1.409 1_556 S
C875 H867 0.930 . S
C875 C876 1.355 . S
C875 C877 1.415 . S
C876 C875 1.355 . S
C876 C878 1.419 . S
C877 C872 1.425 1_554 S
C877 C874 1.409 1_554 S
C877 C875 1.415 . S
C878 H868 0.930 . S
C878 C876 1.419 . S
C878 C879 1.362 . S
C879 H869 0.930 . S
C879 C872 1.409 1_554 S
C879 C878 1.362 . S
H880 C886 0.930 . S
H881 C889 0.930 . S
H882 C890 0.930 . S
H883 C891 0.930 . S
H884 C894 0.930 . S
H885 C895 0.930 . S
C886 H880 0.930 . S
C886 C887 1.355 . S
C886 C888 1.415 . S
C887 C886 1.355 . S
C887 C889 1.419 . S
C888 C886 1.415 . S
C888 C893 1.425 1_554 S
C888 C895 1.409 1_554 S
C889 H881 0.930 . S
C889 C887 1.419 . S
C889 C890 1.362 . S
C890 H882 0.930 . S
C890 C889 1.362 . S
C890 C893 1.409 1_554 S
C891 H883 0.930 . S
C891 C892 1.355 . S
C891 C893 1.415 . S
C892 C891 1.355 . S
C892 C894 1.419 . S
C893 C888 1.425 1_556 S
C893 C890 1.409 1_556 S
C893 C891 1.415 . S
C894 H884 0.930 . S
C894 C892 1.419 . S
C894 C895 1.362 . S
C895 H885 0.930 . S
C895 C888 1.409 1_556 S
C895 C894 1.362 . S
H896 C902 0.930 . S
H897 C905 0.930 . S
H898 C906 0.930 . S
H899 C907 0.930 . S
H900 C910 0.930 . S
H901 C911 0.930 . S
C902 H896 0.930 . S
C902 C903 1.355 . S
C902 C904 1.415 . S
C903 C902 1.355 . S
C903 C905 1.419 . S
C904 C902 1.415 . S
C904 C909 1.425 1_554 S
C904 C911 1.409 1_554 S
C905 H897 0.930 . S
C905 C903 1.419 . S
C905 C906 1.362 . S
C906 H898 0.930 . S
C906 C905 1.362 . S
C906 C909 1.409 1_554 S
C907 H899 0.930 . S
C907 C908 1.355 . S
C907 C909 1.415 . S
C908 C907 1.355 . S
C908 C910 1.419 . S
C909 C904 1.425 1_556 S
C909 C906 1.409 1_556 S
C909 C907 1.415 . S
C910 H900 0.930 . S
C910 C908 1.419 . S
C910 C911 1.362 . S
C911 H901 0.930 . S
C911 C904 1.409 1_556 S
C911 C910 1.362 . S
H912 C918 0.930 . S
H913 C921 0.930 . S
H914 C922 0.930 . S
H915 C923 0.930 . S
H916 C926 0.930 . S
H917 C927 0.930 . S
C918 H912 0.930 . S
C918 C919 1.355 . S
C918 C920 1.415 . S
C919 C918 1.355 . S
C919 C921 1.419 . S
C920 C918 1.415 . S
C920 C925 1.425 1_556 S
C920 C927 1.409 1_556 S
C921 H913 0.930 . S
C921 C919 1.419 . S
C921 C922 1.362 . S
C922 H914 0.930 . S
C922 C921 1.362 . S
C922 C925 1.409 1_556 S
C923 H915 0.930 . S
C923 C924 1.355 . S
C923 C925 1.415 . S
C924 C923 1.355 . S
C924 C926 1.419 . S
C925 C920 1.425 1_554 S
C925 C922 1.409 1_554 S
C925 C923 1.415 . S
C926 H916 0.930 . S
C926 C924 1.419 . S
C926 C927 1.362 . S
C927 H917 0.930 . S
C927 C920 1.409 1_554 S
C927 C926 1.362 . S
H928 C934 0.930 . S
H929 C937 0.930 . S
H930 C938 0.930 . S
H931 C939 0.930 . S
H932 C942 0.930 . S
H933 C943 0.930 . S
C934 H928 0.930 . S
C934 C935 1.355 . S
C934 C936 1.415 . S
C935 C934 1.355 . S
C935 C937 1.419 . S
C936 C934 1.415 . S
C936 C941 1.425 1_545 S
C936 C943 1.409 . S
C937 H929 0.930 . S
C937 C935 1.419 . S
C937 C938 1.362 1_545 S
C938 H930 0.930 . S
C938 C937 1.362 1_565 S
C938 C941 1.409 . S
C939 H931 0.930 . S
C939 C940 1.355 . S
C939 C941 1.415 . S
C940 C939 1.355 . S
C940 C942 1.419 . S
C941 C936 1.425 1_565 S
C941 C938 1.409 . S
C941 C939 1.415 . S
C942 H932 0.930 . S
C942 C940 1.419 . S
C942 C943 1.362 1_565 S
C943 H933 0.930 . S
C943 C936 1.409 . S
C943 C942 1.362 1_545 S
H944 C950 0.930 . S
H945 C953 0.930 . S
H946 C954 0.930 1_455 S
H947 C955 0.930 . S
H948 C958 0.930 . S
H949 C959 0.930 1_655 S
C950 H944 0.930 . S
C950 C951 1.355 . S
C950 C952 1.415 . S
C951 C950 1.355 . S
C951 C953 1.419 . S
C952 C950 1.415 . S
C952 C957 1.425 1_655 S
C952 C959 1.409 1_655 S
C953 H945 0.930 . S
C953 C951 1.419 . S
C953 C954 1.362 . S
C954 H946 0.930 1_655 S
C954 C953 1.362 . S
C954 C957 1.409 1_655 S
C955 H947 0.930 . S
C955 C956 1.355 . S
C955 C957 1.415 . S
C956 C955 1.355 . S
C956 C958 1.419 . S
C957 C952 1.425 1_455 S
C957 C954 1.409 1_455 S
C957 C955 1.415 . S
C958 H948 0.930 . S
C958 C956 1.419 . S
C958 C959 1.362 . S
C959 H949 0.930 1_455 S
C959 C952 1.409 1_455 S
C959 C958 1.362 . S
H960 C966 0.930 . S
H961 C969 0.930 . S
H962 C970 0.930 . S
H963 C971 0.930 . S
H964 C974 0.930 . S
H965 C975 0.930 . S
C966 H960 0.930 . S
C966 C967 1.355 . S
C966 C968 1.387 1_545 S
C967 C966 1.355 . S
C967 C969 1.419 . S
C968 C966 1.387 1_565 S
C968 C973 1.423 1_565 S
C968 C975 1.438 . S
C969 H961 0.930 . S
C969 C967 1.419 . S
C969 C970 1.362 . S
C970 H962 0.930 . S
C970 C969 1.362 . S
C970 C973 1.438 . S
C971 H963 0.930 . S
C971 C972 1.355 . S
C971 C973 1.387 1_565 S
C972 C971 1.355 . S
C972 C974 1.419 . S
C973 C968 1.423 1_545 S
C973 C970 1.438 . S
C973 C971 1.387 1_545 S
C974 H964 0.930 . S
C974 C972 1.419 . S
C974 C975 1.362 . S
C975 H965 0.930 . S
C975 C968 1.438 . S
C975 C974 1.362 . S
H976 C982 0.930 . S
H977 C985 0.930 . S
H978 C986 0.930 . S
H979 C987 0.930 . S
H980 C990 0.930 . S
H981 C991 0.930 . S
C982 H976 0.930 . S
C982 C983 1.355 . S
C982 C984 1.415 . S
C983 C982 1.355 . S
C983 C985 1.419 . S
C984 C982 1.415 . S
C984 C989 1.425 1_455 S
C984 C991 1.409 . S
C985 H977 0.930 . S
C985 C983 1.419 . S
C985 C986 1.362 1_455 S
C986 H978 0.930 . S
C986 C985 1.362 1_655 S
C986 C989 1.409 . S
C987 H979 0.930 . S
C987 C988 1.355 . S
C987 C989 1.415 . S
C988 C987 1.355 . S
C988 C990 1.419 . S
C989 C984 1.425 1_655 S
C989 C986 1.409 . S
C989 C987 1.415 . S
C990 H980 0.930 . S
C990 C988 1.419 . S
C990 C991 1.362 1_655 S
C991 H981 0.930 . S
C991 C984 1.409 . S
C991 C990 1.362 1_455 S
H992 C998 0.930 . S
H993 C1001 0.930 . S
H994 C1002 0.930 . S
H995 C1003 0.930 . S
H996 C1006 0.930 . S
H997 C1007 0.930 . S
C998 H992 0.930 . S
C998 C999 1.355 . S
C998 C1000 1.379 1_565 S
C999 C998 1.355 . S
C999 C1001 1.419 . S
C1000 C998 1.379 1_545 S
C1000 C1005 1.422 1_545 S
C1000 C1007 1.448 . S
C1001 H993 0.930 . S
C1001 C999 1.419 . S
C1001 C1002 1.362 . S
C1002 H994 0.930 . S
C1002 C1001 1.362 . S
C1002 C1005 1.448 . S
C1003 H995 0.930 . S
C1003 C1004 1.355 . S
C1003 C1005 1.379 1_545 S
C1004 C1003 1.355 . S
C1004 C1006 1.419 . S
C1005 C1000 1.422 1_565 S
C1005 C1002 1.448 . S
C1005 C1003 1.379 1_565 S
C1006 H996 0.930 . S
C1006 C1004 1.419 . S
C1006 C1007 1.362 . S
C1007 H997 0.930 . S
C1007 C1000 1.448 . S
C1007 C1006 1.362 . S
H1008 C1014 0.930 . S
H1009 C1017 0.930 . S
H1010 C1018 0.930 . S
H1011 C1019 0.930 . S
H1012 C1022 0.930 . S
H1013 C1023 0.930 . S
C1014 H1008 0.930 . S
C1014 C1015 1.355 . S
C1014 C1016 1.415 . S
C1015 C1014 1.355 . S
C1015 C1017 1.419 . S
C1016 C1014 1.415 . S
C1016 C1021 1.425 1_655 S
C1016 C1023 1.409 . S
C1017 H1009 0.930 . S
C1017 C1015 1.419 . S
C1017 C1018 1.362 1_655 S
C1018 H1010 0.930 . S
C1018 C1017 1.362 1_455 S
C1018 C1021 1.409 . S
C1019 H1011 0.930 . S
C1019 C1020 1.355 . S
C1019 C1021 1.415 . S
C1020 C1019 1.355 . S
C1020 C1022 1.419 . S
C1021 C1016 1.425 1_455 S
C1021 C1018 1.409 . S
C1021 C1019 1.415 . S
C1022 H1012 0.930 . S
C1022 C1020 1.419 . S
C1022 C1023 1.362 1_455 S
C1023 H1013 0.930 . S
C1023 C1016 1.409 . S
C1023 C1022 1.362 1_655 S
H1024 C1030 0.930 . S
H1025 C1033 0.930 . S
H1026 C1034 0.930 . S
H1027 C1035 0.930 . S
H1028 C1038 0.930 . S
H1029 C1039 0.930 . S
C1030 H1024 0.930 . S
C1030 C1031 1.355 . S
C1030 C1032 1.415 . S
C1031 C1030 1.355 . S
C1031 C1033 1.419 . S
C1032 C1030 1.415 . S
C1032 C1037 1.425 1_565 S
C1032 C1039 1.409 1_565 S
C1033 H1025 0.930 . S
C1033 C1031 1.419 . S
C1033 C1034 1.362 . S
C1034 H1026 0.930 . S
C1034 C1033 1.362 . S
C1034 C1037 1.409 1_565 S
C1035 H1027 0.930 . S
C1035 C1036 1.355 . S
C1035 C1037 1.415 . S
C1036 C1035 1.355 . S
C1036 C1038 1.419 . S
C1037 C1032 1.425 1_545 S
C1037 C1034 1.409 1_545 S
C1037 C1035 1.415 . S
C1038 H1028 0.930 . S
C1038 C1036 1.419 . S
C1038 C1039 1.362 . S
C1039 H1029 0.930 . S
C1039 C1032 1.409 1_545 S
C1039 C1038 1.362 . S
H1040 C1046 0.930 . S
H1041 C1049 0.930 . S
H1042 C1050 0.930 . S
H1043 C1051 0.930 . S
H1044 C1054 0.930 . S
H1045 C1055 0.930 . S
C1046 H1040 0.930 . S
C1046 C1047 1.355 . S
C1046 C1048 1.415 . S
C1047 C1046 1.355 . S
C1047 C1049 1.419 . S
C1048 C1046 1.415 . S
C1048 C1053 1.425 1_655 S
C1048 C1055 1.409 1_655 S
C1049 H1041 0.930 . S
C1049 C1047 1.419 . S
C1049 C1050 1.362 . S
C1050 H1042 0.930 . S
C1050 C1049 1.362 . S
C1050 C1053 1.409 1_655 S
C1051 H1043 0.930 . S
C1051 C1052 1.355 . S
C1051 C1053 1.415 . S
C1052 C1051 1.355 . S
C1052 C1054 1.419 . S
C1053 C1048 1.425 1_455 S
C1053 C1050 1.409 1_455 S
C1053 C1051 1.415 . S
C1054 H1044 0.930 . S
C1054 C1052 1.419 . S
C1054 C1055 1.362 . S
C1055 H1045 0.930 . S
C1055 C1048 1.409 1_455 S
C1055 C1054 1.362 . S
H1056 C1062 0.930 . S
H1057 C1065 0.930 . S
H1058 C1066 0.930 . S
H1059 C1067 0.930 . S
H1060 C1070 0.930 . S
H1061 C1071 0.930 . S
C1062 H1056 0.930 . S
C1062 C1063 1.355 . S
C1062 C1064 1.415 . S
C1063 C1062 1.355 . S
C1063 C1065 1.419 . S
C1064 C1062 1.415 . S
C1064 C1069 1.425 . S
C1064 C1071 1.409 . S
C1065 H1057 0.930 . S
C1065 C1063 1.419 . S
C1065 C1066 1.362 . S
C1066 H1058 0.930 . S
C1066 C1065 1.362 . S
C1066 C1069 1.409 . S
C1067 H1059 0.930 . S
C1067 C1068 1.355 . S
C1067 C1069 1.415 . S
C1068 C1067 1.355 . S
C1068 C1070 1.419 . S
C1069 C1064 1.425 . S
C1069 C1066 1.409 . S
C1069 C1067 1.415 . S
C1070 H1060 0.930 . S
C1070 C1068 1.419 . S
C1070 C1071 1.362 . S
C1071 H1061 0.930 . S
C1071 C1064 1.409 . S
C1071 C1070 1.362 . S
H1072 C1078 0.930 . S
H1073 C1081 0.930 . S
H1074 C1082 0.930 . S
H1075 C1083 0.930 . S
H1076 C1086 0.930 . S
H1077 C1087 0.930 . S
C1078 H1072 0.930 . S
C1078 C1079 1.355 . S
C1078 C1080 1.415 . S
C1079 C1078 1.355 . S
C1079 C1081 1.419 . S
C1080 C1078 1.415 . S
C1080 C1085 1.425 . S
C1080 C1087 1.409 . S
C1081 H1073 0.930 . S
C1081 C1079 1.419 . S
C1081 C1082 1.362 . S
C1082 H1074 0.930 . S
C1082 C1081 1.362 . S
C1082 C1085 1.409 . S
C1083 H1075 0.930 . S
C1083 C1084 1.355 . S
C1083 C1085 1.415 . S
C1084 C1083 1.355 . S
C1084 C1086 1.419 . S
C1085 C1080 1.425 . S
C1085 C1082 1.409 . S
C1085 C1083 1.415 . S
C1086 H1076 0.930 . S
C1086 C1084 1.419 . S
C1086 C1087 1.362 . S
C1087 H1077 0.930 . S
C1087 C1080 1.409 . S
C1087 C1086 1.362 . S
H1088 C1094 0.930 . S
H1089 C1097 0.930 . S
H1090 C1098 0.930 . S
H1091 C1099 0.930 . S
H1092 C1102 0.930 . S
H1093 C1103 0.930 . S
C1094 H1088 0.930 . S
C1094 C1095 1.355 . S
C1094 C1096 1.415 . S
C1095 C1094 1.355 . S
C1095 C1097 1.419 . S
C1096 C1094 1.415 . S
C1096 C1101 1.425 . S
C1096 C1103 1.409 . S
C1097 H1089 0.930 . S
C1097 C1095 1.419 . S
C1097 C1098 1.362 . S
C1098 H1090 0.930 . S
C1098 C1097 1.362 . S
C1098 C1101 1.409 . S
C1099 H1091 0.930 . S
C1099 C1100 1.355 . S
C1099 C1101 1.415 . S
C1100 C1099 1.355 . S
C1100 C1102 1.419 . S
C1101 C1096 1.425 . S
C1101 C1098 1.409 . S
C1101 C1099 1.415 . S
C1102 H1092 0.930 . S
C1102 C1100 1.419 . S
C1102 C1103 1.362 . S
C1103 H1093 0.930 . S
C1103 C1096 1.409 . S
C1103 C1102 1.362 . S
H1104 C1110 0.930 . S
H1105 C1113 0.930 . S
H1106 C1114 0.930 . S
H1107 C1115 0.930 . S
H1108 C1118 0.930 . S
H1109 C1119 0.930 . S
C1110 H1104 0.930 . S
C1110 C1111 1.355 . S
C1110 C1112 1.415 . S
C1111 C1110 1.355 . S
C1111 C1113 1.419 . S
C1112 C1110 1.415 . S
C1112 C1117 1.425 . S
C1112 C1119 1.409 . S
C1113 H1105 0.930 . S
C1113 C1111 1.419 . S
C1113 C1114 1.362 . S
C1114 H1106 0.930 . S
C1114 C1113 1.362 . S
C1114 C1117 1.409 . S
C1115 H1107 0.930 . S
C1115 C1116 1.355 . S
C1115 C1117 1.415 . S
C1116 C1115 1.355 . S
C1116 C1118 1.419 . S
C1117 C1112 1.425 . S
C1117 C1114 1.409 . S
C1117 C1115 1.415 . S
C1118 H1108 0.930 . S
C1118 C1116 1.419 . S
C1118 C1119 1.362 . S
C1119 H1109 0.930 . S
C1119 C1112 1.409 . S
C1119 C1118 1.362 . S
H1120 C1126 0.930 . S
H1121 C1129 0.930 . S
H1122 C1130 0.930 . S
H1123 C1131 0.930 . S
H1124 C1134 0.930 . S
H1125 C1135 0.930 . S
C1126 H1120 0.930 . S
C1126 C1127 1.355 . S
C1126 C1128 1.415 . S
C1127 C1126 1.355 . S
C1127 C1129 1.419 . S
C1128 C1126 1.415 . S
C1128 C1133 1.425 . S
C1128 C1135 1.409 . S
C1129 H1121 0.930 . S
C1129 C1127 1.419 . S
C1129 C1130 1.362 . S
C1130 H1122 0.930 . S
C1130 C1129 1.362 . S
C1130 C1133 1.409 . S
C1131 H1123 0.930 . S
C1131 C1132 1.355 . S
C1131 C1133 1.415 . S
C1132 C1131 1.355 . S
C1132 C1134 1.419 . S
C1133 C1128 1.425 . S
C1133 C1130 1.409 . S
C1133 C1131 1.415 . S
C1134 H1124 0.930 . S
C1134 C1132 1.419 . S
C1134 C1135 1.362 . S
C1135 H1125 0.930 . S
C1135 C1128 1.409 . S
C1135 C1134 1.362 . S
H1136 C1142 0.930 . S
H1137 C1145 0.930 . S
H1138 C1146 0.930 . S
H1139 C1147 0.930 . S
H1140 C1150 0.930 . S
H1141 C1151 0.930 . S
C1142 H1136 0.930 . S
C1142 C1143 1.355 . S
C1142 C1144 1.415 . S
C1143 C1142 1.355 . S
C1143 C1145 1.419 . S
C1144 C1142 1.415 . S
C1144 C1149 1.425 . S
C1144 C1151 1.409 . S
C1145 H1137 0.930 . S
C1145 C1143 1.419 . S
C1145 C1146 1.362 . S
C1146 H1138 0.930 . S
C1146 C1145 1.362 . S
C1146 C1149 1.409 . S
C1147 H1139 0.930 . S
C1147 C1148 1.355 . S
C1147 C1149 1.415 . S
C1148 C1147 1.355 . S
C1148 C1150 1.419 . S
C1149 C1144 1.425 . S
C1149 C1146 1.409 . S
C1149 C1147 1.415 . S
C1150 H1140 0.930 . S
C1150 C1148 1.419 . S
C1150 C1151 1.362 . S
C1151 H1141 0.930 . S
C1151 C1144 1.409 . S
C1151 C1150 1.362 . S
H1152 C1158 0.930 . S
H1153 C1161 0.930 . S
H1154 C1162 0.930 . S
H1155 C1163 0.930 . S
H1156 C1166 0.930 . S
H1157 C1167 0.930 . S
C1158 H1152 0.930 . S
C1158 C1159 1.355 . S
C1158 C1160 1.415 . S
C1159 C1158 1.355 . S
C1159 C1161 1.419 . S
C1160 C1158 1.415 . S
C1160 C1165 1.425 . S
C1160 C1167 1.409 . S
C1161 H1153 0.930 . S
C1161 C1159 1.419 . S
C1161 C1162 1.362 . S
C1162 H1154 0.930 . S
C1162 C1161 1.362 . S
C1162 C1165 1.409 . S
C1163 H1155 0.930 . S
C1163 C1164 1.355 . S
C1163 C1165 1.415 . S
C1164 C1163 1.355 . S
C1164 C1166 1.419 . S
C1165 C1160 1.425 . S
C1165 C1162 1.409 . S
C1165 C1163 1.415 . S
C1166 H1156 0.930 . S
C1166 C1164 1.419 . S
C1166 C1167 1.362 . S
C1167 H1157 0.930 . S
C1167 C1160 1.409 . S
C1167 C1166 1.362 . S
H1168 C1174 0.930 . S
H1169 C1177 0.930 . S
H1170 C1178 0.930 . S
H1171 C1179 0.930 . S
H1172 C1182 0.930 . S
H1173 C1183 0.930 . S
C1174 H1168 0.930 . S
C1174 C1175 1.355 . S
C1174 C1176 1.415 . S
C1175 C1174 1.355 . S
C1175 C1177 1.419 . S
C1176 C1174 1.415 . S
C1176 C1181 1.425 . S
C1176 C1183 1.409 . S
C1177 H1169 0.930 . S
C1177 C1175 1.419 . S
C1177 C1178 1.362 . S
C1178 H1170 0.930 . S
C1178 C1177 1.362 . S
C1178 C1181 1.409 . S
C1179 H1171 0.930 . S
C1179 C1180 1.355 . S
C1179 C1181 1.415 . S
C1180 C1179 1.355 . S
C1180 C1182 1.419 . S
C1181 C1176 1.425 . S
C1181 C1178 1.409 . S
C1181 C1179 1.415 . S
C1182 H1172 0.930 . S
C1182 C1180 1.419 . S
C1182 C1183 1.362 . S
C1183 H1173 0.930 . S
C1183 C1176 1.409 . S
C1183 C1182 1.362 . S
H1184 C1190 0.930 . S
H1185 C1193 0.930 . S
H1186 C1194 0.930 . S
H1187 C1195 0.930 . S
H1188 C1198 0.930 . S
H1189 C1199 0.930 . S
C1190 H1184 0.930 . S
C1190 C1191 1.355 . S
C1190 C1192 1.415 . S
C1191 C1190 1.355 . S
C1191 C1193 1.419 . S
C1192 C1190 1.415 . S
C1192 C1197 1.425 . S
C1192 C1199 1.409 . S
C1193 H1185 0.930 . S
C1193 C1191 1.419 . S
C1193 C1194 1.362 . S
C1194 H1186 0.930 . S
C1194 C1193 1.362 . S
C1194 C1197 1.409 . S
C1195 H1187 0.930 . S
C1195 C1196 1.355 . S
C1195 C1197 1.415 . S
C1196 C1195 1.355 . S
C1196 C1198 1.419 . S
C1197 C1192 1.425 . S
C1197 C1194 1.409 . S
C1197 C1195 1.415 . S
C1198 H1188 0.930 . S
C1198 C1196 1.419 . S
C1198 C1199 1.362 . S
C1199 H1189 0.930 . S
C1199 C1192 1.409 . S
C1199 C1198 1.362 . S
H1200 C1206 0.930 . S
H1201 C1209 0.930 . S
H1202 C1210 0.930 . S
H1203 C1211 0.930 . S
H1204 C1214 0.930 . S
H1205 C1215 0.930 . S
C1206 H1200 0.930 . S
C1206 C1207 1.355 . S
C1206 C1208 1.415 . S
C1207 C1206 1.355 . S
C1207 C1209 1.419 . S
C1208 C1206 1.415 . S
C1208 C1213 1.425 . S
C1208 C1215 1.409 . S
C1209 H1201 0.930 . S
C1209 C1207 1.419 . S
C1209 C1210 1.362 . S
C1210 H1202 0.930 . S
C1210 C1209 1.362 . S
C1210 C1213 1.409 . S
C1211 H1203 0.930 . S
C1211 C1212 1.355 . S
C1211 C1213 1.415 . S
C1212 C1211 1.355 . S
C1212 C1214 1.419 . S
C1213 C1208 1.425 . S
C1213 C1210 1.409 . S
C1213 C1211 1.415 . S
C1214 H1204 0.930 . S
C1214 C1212 1.419 . S
C1214 C1215 1.362 . S
C1215 H1205 0.930 . S
C1215 C1208 1.409 . S
C1215 C1214 1.362 . S
H1216 C1222 0.930 . S
H1217 C1225 0.930 . S
H1218 C1226 0.930 . S
H1219 C1227 0.930 . S
H1220 C1230 0.930 . S
H1221 C1231 0.930 . S
C1222 H1216 0.930 . S
C1222 C1223 1.355 . S
C1222 C1224 1.415 . S
C1223 C1222 1.355 . S
C1223 C1225 1.419 . S
C1224 C1222 1.415 . S
C1224 C1229 1.425 . S
C1224 C1231 1.409 . S
C1225 H1217 0.930 . S
C1225 C1223 1.419 . S
C1225 C1226 1.362 . S
C1226 H1218 0.930 . S
C1226 C1225 1.362 . S
C1226 C1229 1.409 . S
C1227 H1219 0.930 . S
C1227 C1228 1.355 . S
C1227 C1229 1.415 . S
C1228 C1227 1.355 . S
C1228 C1230 1.419 . S
C1229 C1224 1.425 . S
C1229 C1226 1.409 . S
C1229 C1227 1.415 . S
C1230 H1220 0.930 . S
C1230 C1228 1.419 . S
C1230 C1231 1.362 . S
C1231 H1221 0.930 . S
C1231 C1224 1.409 . S
C1231 C1230 1.362 . S
H1232 C1238 0.930 . S
H1233 C1241 0.930 . S
H1234 C1242 0.930 . S
H1235 C1243 0.930 . S
H1236 C1246 0.930 . S
H1237 C1247 0.930 . S
C1238 H1232 0.930 . S
C1238 C1239 1.355 . S
C1238 C1240 1.415 . S
C1239 C1238 1.355 . S
C1239 C1241 1.419 . S
C1240 C1238 1.415 . S
C1240 C1245 1.425 . S
C1240 C1247 1.409 . S
C1241 H1233 0.930 . S
C1241 C1239 1.419 . S
C1241 C1242 1.362 . S
C1242 H1234 0.930 . S
C1242 C1241 1.362 . S
C1242 C1245 1.409 . S
C1243 H1235 0.930 . S
C1243 C1244 1.355 . S
C1243 C1245 1.415 . S
C1244 C1243 1.355 . S
C1244 C1246 1.419 . S
C1245 C1240 1.425 . S
C1245 C1242 1.409 . S
C1245 C1243 1.415 . S
C1246 H1236 0.930 . S
C1246 C1244 1.419 . S
C1246 C1247 1.362 . S
C1247 H1237 0.930 . S
C1247 C1240 1.409 . S
C1247 C1246 1.362 . S
H1248 C1254 0.930 . S
H1249 C1257 0.930 . S
H1250 C1258 0.930 . S
H1251 C1259 0.930 . S
H1252 C1262 0.930 . S
H1253 C1263 0.930 . S
C1254 H1248 0.930 . S
C1254 C1255 1.355 . S
C1254 C1256 1.415 . S
C1255 C1254 1.355 . S
C1255 C1257 1.419 . S
C1256 C1254 1.415 . S
C1256 C1261 1.425 . S
C1256 C1263 1.409 . S
C1257 H1249 0.930 . S
C1257 C1255 1.419 . S
C1257 C1258 1.362 . S
C1258 H1250 0.930 . S
C1258 C1257 1.362 . S
C1258 C1261 1.409 . S
C1259 H1251 0.930 . S
C1259 C1260 1.355 . S
C1259 C1261 1.415 . S
C1260 C1259 1.355 . S
C1260 C1262 1.419 . S
C1261 C1256 1.425 . S
C1261 C1258 1.409 . S
C1261 C1259 1.415 . S
C1262 H1252 0.930 . S
C1262 C1260 1.419 . S
C1262 C1263 1.362 . S
C1263 H1253 0.930 . S
C1263 C1256 1.409 . S
C1263 C1262 1.362 . S
H1264 C1270 0.930 . S
H1265 C1273 0.930 . S
H1266 C1274 0.930 . S
H1267 C1275 0.930 . S
H1268 C1278 0.930 . S
H1269 C1279 0.930 . S
C1270 H1264 0.930 . S
C1270 C1271 1.355 . S
C1270 C1272 1.415 . S
C1271 C1270 1.355 . S
C1271 C1273 1.419 . S
C1272 C1270 1.415 . S
C1272 C1277 1.425 . S
C1272 C1279 1.409 . S
C1273 H1265 0.930 . S
C1273 C1271 1.419 . S
C1273 C1274 1.362 . S
C1274 H1266 0.930 . S
C1274 C1273 1.362 . S
C1274 C1277 1.409 . S
C1275 H1267 0.930 . S
C1275 C1276 1.355 . S
C1275 C1277 1.415 . S
C1276 C1275 1.355 . S
C1276 C1278 1.419 . S
C1277 C1272 1.425 . S
C1277 C1274 1.409 . S
C1277 C1275 1.415 . S
C1278 H1268 0.930 . S
C1278 C1276 1.419 . S
C1278 C1279 1.362 . S
C1279 H1269 0.930 . S
C1279 C1272 1.409 . S
C1279 C1278 1.362 . S
H1280 C1286 0.930 . S
H1281 C1289 0.930 . S
H1282 C1290 0.930 . S
H1283 C1291 0.930 . S
H1284 C1294 0.930 . S
H1285 C1295 0.930 . S
C1286 H1280 0.930 . S
C1286 C1287 1.355 . S
C1286 C1288 1.415 . S
C1287 C1286 1.355 . S
C1287 C1289 1.419 . S
C1288 C1286 1.415 . S
C1288 C1293 1.425 . S
C1288 C1295 1.409 . S
C1289 H1281 0.930 . S
C1289 C1287 1.419 . S
C1289 C1290 1.362 . S
C1290 H1282 0.930 . S
C1290 C1289 1.362 . S
C1290 C1293 1.409 . S
C1291 H1283 0.930 . S
C1291 C1292 1.355 . S
C1291 C1293 1.415 . S
C1292 C1291 1.355 . S
C1292 C1294 1.419 . S
C1293 C1288 1.425 . S
C1293 C1290 1.409 . S
C1293 C1291 1.415 . S
C1294 H1284 0.930 . S
C1294 C1292 1.419 . S
C1294 C1295 1.362 . S
C1295 H1285 0.930 . S
C1295 C1288 1.409 . S
C1295 C1294 1.362 . S
H1296 C1302 0.930 . S
H1297 C1305 0.930 . S
H1298 C1306 0.930 . S
H1299 C1307 0.930 . S
H1300 C1310 0.930 . S
H1301 C1311 0.930 . S
C1302 H1296 0.930 . S
C1302 C1303 1.355 . S
C1302 C1304 1.415 . S
C1303 C1302 1.355 . S
C1303 C1305 1.419 . S
C1304 C1302 1.415 . S
C1304 C1309 1.425 . S
C1304 C1311 1.409 . S
C1305 H1297 0.930 . S
C1305 C1303 1.419 . S
C1305 C1306 1.362 . S
C1306 H1298 0.930 . S
C1306 C1305 1.362 . S
C1306 C1309 1.409 . S
C1307 H1299 0.930 . S
C1307 C1308 1.355 . S
C1307 C1309 1.415 . S
C1308 C1307 1.355 . S
C1308 C1310 1.419 . S
C1309 C1304 1.425 . S
C1309 C1306 1.409 . S
C1309 C1307 1.415 . S
C1310 H1300 0.930 . S
C1310 C1308 1.419 . S
C1310 C1311 1.362 . S
C1311 H1301 0.930 . S
C1311 C1304 1.409 . S
C1311 C1310 1.362 . S
H1312 C1318 0.930 . S
H1313 C1321 0.930 . S
H1314 C1322 0.930 . S
H1315 C1323 0.930 . S
H1316 C1326 0.930 . S
H1317 C1327 0.930 . S
C1318 H1312 0.930 . S
C1318 C1319 1.355 . S
C1318 C1320 1.415 . S
C1319 C1318 1.355 . S
C1319 C1321 1.419 . S
C1320 C1318 1.415 . S
C1320 C1325 1.425 . S
C1320 C1327 1.409 . S
C1321 H1313 0.930 . S
C1321 C1319 1.419 . S
C1321 C1322 1.362 . S
C1322 H1314 0.930 . S
C1322 C1321 1.362 . S
C1322 C1325 1.409 . S
C1323 H1315 0.930 . S
C1323 C1324 1.355 . S
C1323 C1325 1.415 . S
C1324 C1323 1.355 . S
C1324 C1326 1.419 . S
C1325 C1320 1.425 . S
C1325 C1322 1.409 . S
C1325 C1323 1.415 . S
C1326 H1316 0.930 . S
C1326 C1324 1.419 . S
C1326 C1327 1.362 . S
C1327 H1317 0.930 . S
C1327 C1320 1.409 . S
C1327 C1326 1.362 . S
H1328 C1334 0.930 . S
H1329 C1337 0.930 . S
H1330 C1338 0.930 . S
H1331 C1339 0.930 . S
H1332 C1342 0.930 . S
H1333 C1343 0.930 . S
C1334 H1328 0.930 . S
C1334 C1335 1.355 . S
C1334 C1336 1.415 . S
C1335 C1334 1.355 . S
C1335 C1337 1.419 . S
C1336 C1334 1.415 . S
C1336 C1341 1.425 . S
C1336 C1343 1.409 . S
C1337 H1329 0.930 . S
C1337 C1335 1.419 . S
C1337 C1338 1.362 . S
C1338 H1330 0.930 . S
C1338 C1337 1.362 . S
C1338 C1341 1.409 . S
C1339 H1331 0.930 . S
C1339 C1340 1.355 . S
C1339 C1341 1.415 . S
C1340 C1339 1.355 . S
C1340 C1342 1.419 . S
C1341 C1336 1.425 . S
C1341 C1338 1.409 . S
C1341 C1339 1.415 . S
C1342 H1332 0.930 . S
C1342 C1340 1.419 . S
C1342 C1343 1.362 . S
C1343 H1333 0.930 . S
C1343 C1336 1.409 . S
C1343 C1342 1.362 . S
H1344 C1350 0.930 . S
H1345 C1353 0.930 . S
H1346 C1354 0.930 . S
H1347 C1355 0.930 . S
H1348 C1358 0.930 . S
H1349 C1359 0.930 . S
C1350 H1344 0.930 . S
C1350 C1351 1.355 . S
C1350 C1352 1.415 . S
C1351 C1350 1.355 . S
C1351 C1353 1.419 . S
C1352 C1350 1.415 . S
C1352 C1357 1.425 . S
C1352 C1359 1.409 . S
C1353 H1345 0.930 . S
C1353 C1351 1.419 . S
C1353 C1354 1.362 . S
C1354 H1346 0.930 . S
C1354 C1353 1.362 . S
C1354 C1357 1.409 . S
C1355 H1347 0.930 . S
C1355 C1356 1.355 . S
C1355 C1357 1.415 . S
C1356 C1355 1.355 . S
C1356 C1358 1.419 . S
C1357 C1352 1.425 . S
C1357 C1354 1.409 . S
C1357 C1355 1.415 . S
C1358 H1348 0.930 . S
C1358 C1356 1.419 . S
C1358 C1359 1.362 . S
C1359 H1349 0.930 . S
C1359 C1352 1.409 . S
C1359 C1358 1.362 . S
H1360 C1366 0.930 . S
H1361 C1369 0.930 . S
H1362 C1370 0.930 . S
H1363 C1371 0.930 . S
H1364 C1374 0.930 . S
H1365 C1375 0.930 . S
C1366 H1360 0.930 . S
C1366 C1367 1.355 . S
C1366 C1368 1.415 . S
C1367 C1366 1.355 . S
C1367 C1369 1.419 . S
C1368 C1366 1.415 . S
C1368 C1373 1.425 . S
C1368 C1375 1.409 . S
C1369 H1361 0.930 . S
C1369 C1367 1.419 . S
C1369 C1370 1.362 . S
C1370 H1362 0.930 . S
C1370 C1369 1.362 . S
C1370 C1373 1.409 . S
C1371 H1363 0.930 . S
C1371 C1372 1.355 . S
C1371 C1373 1.415 . S
C1372 C1371 1.355 . S
C1372 C1374 1.419 . S
C1373 C1368 1.425 . S
C1373 C1370 1.409 . S
C1373 C1371 1.415 . S
C1374 H1364 0.930 . S
C1374 C1372 1.419 . S
C1374 C1375 1.362 . S
C1375 H1365 0.930 . S
C1375 C1368 1.409 . S
C1375 C1374 1.362 . S
H1376 C1382 0.930 . S
H1377 C1385 0.930 . S
H1378 C1386 0.930 . S
H1379 C1387 0.930 . S
H1380 C1390 0.930 . S
H1381 C1391 0.930 . S
C1382 H1376 0.930 . S
C1382 C1383 1.355 . S
C1382 C1384 1.415 . S
C1383 C1382 1.355 . S
C1383 C1385 1.419 . S
C1384 C1382 1.415 . S
C1384 C1389 1.425 . S
C1384 C1391 1.409 . S
C1385 H1377 0.930 . S
C1385 C1383 1.419 . S
C1385 C1386 1.362 . S
C1386 H1378 0.930 . S
C1386 C1385 1.362 . S
C1386 C1389 1.409 . S
C1387 H1379 0.930 . S
C1387 C1388 1.355 . S
C1387 C1389 1.415 . S
C1388 C1387 1.355 . S
C1388 C1390 1.419 . S
C1389 C1384 1.425 . S
C1389 C1386 1.409 . S
C1389 C1387 1.415 . S
C1390 H1380 0.930 . S
C1390 C1388 1.419 . S
C1390 C1391 1.362 . S
C1391 H1381 0.930 . S
C1391 C1384 1.409 . S
C1391 C1390 1.362 . S
H1392 C1398 0.930 . S
H1393 C1401 0.930 . S
H1394 C1402 0.930 . S
H1395 C1403 0.930 . S
H1396 C1406 0.930 . S
H1397 C1407 0.930 . S
C1398 H1392 0.930 . S
C1398 C1399 1.355 . S
C1398 C1400 1.415 . S
C1399 C1398 1.355 . S
C1399 C1401 1.419 . S
C1400 C1398 1.415 . S
C1400 C1405 1.425 . S
C1400 C1407 1.409 . S
C1401 H1393 0.930 . S
C1401 C1399 1.419 . S
C1401 C1402 1.362 . S
C1402 H1394 0.930 . S
C1402 C1401 1.362 . S
C1402 C1405 1.409 . S
C1403 H1395 0.930 . S
C1403 C1404 1.355 . S
C1403 C1405 1.415 . S
C1404 C1403 1.355 . S
C1404 C1406 1.419 . S
C1405 C1400 1.425 . S
C1405 C1402 1.409 . S
C1405 C1403 1.415 . S
C1406 H1396 0.930 . S
C1406 C1404 1.419 . S
C1406 C1407 1.362 . S
C1407 H1397 0.930 . S
C1407 C1400 1.409 . S
C1407 C1406 1.362 . S
H1408 C1414 0.930 . S
H1409 C1417 0.930 . S
H1410 C1418 0.930 . S
H1411 C1419 0.930 . S
H1412 C1422 0.930 . S
H1413 C1423 0.930 . S
C1414 H1408 0.930 . S
C1414 C1415 1.355 . S
C1414 C1416 1.415 . S
C1415 C1414 1.355 . S
C1415 C1417 1.419 . S
C1416 C1414 1.415 . S
C1416 C1421 1.425 . S
C1416 C1423 1.409 . S
C1417 H1409 0.930 . S
C1417 C1415 1.419 . S
C1417 C1418 1.362 . S
C1418 H1410 0.930 . S
C1418 C1417 1.362 . S
C1418 C1421 1.409 . S
C1419 H1411 0.930 . S
C1419 C1420 1.355 . S
C1419 C1421 1.415 . S
C1420 C1419 1.355 . S
C1420 C1422 1.419 . S
C1421 C1416 1.425 . S
C1421 C1418 1.409 . S
C1421 C1419 1.415 . S
C1422 H1412 0.930 . S
C1422 C1420 1.419 . S
C1422 C1423 1.362 . S
C1423 H1413 0.930 . S
C1423 C1416 1.409 . S
C1423 C1422 1.362 . S
H1424 C1430 0.930 . S
H1425 C1433 0.930 . S
H1426 C1434 0.930 . S
H1427 C1435 0.930 . S
H1428 C1438 0.930 . S
H1429 C1439 0.930 . S
C1430 H1424 0.930 . S
C1430 C1431 1.355 . S
C1430 C1432 1.415 . S
C1431 C1430 1.355 . S
C1431 C1433 1.419 . S
C1432 C1430 1.415 . S
C1432 C1437 1.425 . S
C1432 C1439 1.409 . S
C1433 H1425 0.930 . S
C1433 C1431 1.419 . S
C1433 C1434 1.362 . S
C1434 H1426 0.930 . S
C1434 C1433 1.362 . S
C1434 C1437 1.409 . S
C1435 H1427 0.930 . S
C1435 C1436 1.355 . S
C1435 C1437 1.415 . S
C1436 C1435 1.355 . S
C1436 C1438 1.419 . S
C1437 C1432 1.425 . S
C1437 C1434 1.409 . S
C1437 C1435 1.415 . S
C1438 H1428 0.930 . S
C1438 C1436 1.419 . S
C1438 C1439 1.362 . S
C1439 H1429 0.930 . S
C1439 C1432 1.409 . S
C1439 C1438 1.362 . S
C423 C382 1.340 . S
C428 C5 1.395 . S
C439 C18 1.377 . S
C444 C395 1.359 . S
C455 C408 1.334 . S
C460 C31 1.401 . S
C471 C369 1.330 . S
C476 C44 1.404 . S
C487 C57 1.333 . S
C492 C356 1.401 . S
C503 C317 1.404 . S
C508 C70 1.331 . S
C519 C83 1.404 . S
C524 C330 1.330 . S
C535 C343 1.373 . S
C540 C96 1.362 . S
C551 C109 1.354 . S
C556 C278 1.381 . S
C567 C122 1.395 . S
C572 C291 1.339 . S
C583 C304 1.390 . S
C588 C135 1.345 . S
C599 C148 1.331 . S
C604 C265 1.404 . S
C615 C252 1.398 . S
C620 C161 1.336 . S
C631 C213 1.334 . S
C636 C174 1.400 . S
C647 C187 1.332 . S
C652 C226 1.402 . S
C663 C200 1.346 . S
C668 C239 1.389 . S
C679 C10 1.418 . S
C684 C140 1.383 . S
C695 C153 1.417 . S
C700 C23 1.384 . S
C711 C114 1.387 . S
C716 C36 1.415 . S
C727 C127 1.396 . S
C732 C49 1.406 . S
C743 C62 1.402 . S
C748 C192 1.400 . S
C759 C205 1.415 . S
C764 C75 1.386 . S
C775 C166 1.418 . S
C780 C88 1.384 . S
C791 C179 1.383 . S
C796 C101 1.419 . S
C807 C218 1.418 . S
C812 C348 1.383 . S
C823 C361 1.413 . S
C828 C231 1.388 . S
C839 C322 1.384 . S
C844 C244 1.417 . S
C855 C257 1.413 . S
C860 C335 1.389 . S
C871 C270 1.385 . S
C876 C400 1.416 . S
C887 C413 1.413 . S
C892 C283 1.389 . S
C903 C374 1.418 . S
C908 C296 1.384 . S
C919 C309 1.414 . S
C924 C387 1.388 . S
C935 C0 1.218 . S
C940 C52 1.212 . S
C951 C13 1.231 . S
C956 C65 1.222 . S
C967 C78 1.270 . S
C972 C26 1.268 . S
C983 C39 1.209 . S
C988 C91 1.210 . S
C999 C104 1.268 . S
C1004 C156 1.270 . S
C1015 C169 1.210 . S
C1020 C117 1.213 . S
C1031 C182 1.227 . S
C1036 C130 1.218 . S
C1047 C143 1.231 . S
C1052 C195 1.222 . S
C1063 C208 1.215 . S
C1068 C260 1.210 . S
C1079 C273 1.217 . S
C1084 C221 1.211 . S
C1095 C234 1.209 . S
C1100 C286 1.211 . S
C1111 C299 1.270 . S
C1116 C247 1.270 . S
C1127 C364 1.265 . S
C1132 C312 1.258 . S
C1143 C325 1.209 . S
C1148 C377 1.213 . S
C1159 C338 1.262 . S
C1164 C390 1.268 . S
C1175 C351 1.209 . S
C1180 C403 1.210 . S
C1191 C8 1.389 . S
C1196 C73 1.431 . S
C1207 C21 1.437 . S
C1212 C86 1.371 . S
C1223 C99 1.446 . S
C1228 C34 1.368 . S
C1239 C60 1.425 . S
C1244 C47 1.396 . S
C1255 C177 1.444 . S
C1260 C112 1.366 . S
C1271 C190 1.446 . S
C1276 C125 1.367 . S
C1287 C203 1.443 . S
C1292 C138 1.367 . S
C1303 C151 1.434 . S
C1308 C164 1.373 . S
C1319 C216 1.400 . S
C1324 C281 1.405 . S
C1335 C294 1.373 . S
C1340 C229 1.443 . S
C1351 C307 1.367 . S
C1356 C242 1.444 . S
C1367 C255 1.443 . S
C1372 C268 1.374 . S
C1383 C385 1.444 . S
C1388 C320 1.372 . S
C1399 C333 1.437 . S
C1404 C398 1.371 . S
C1415 C346 1.429 . S
C1420 C411 1.392 . S
C1431 C372 1.367 . S
C1436 C359 1.446 . S
