# Generated by pormake.
# Topology wje, (4)-cn, num edge types: 1
# Building blocks:
#     Node 0, Type 0, BuildingBlock: KUFVIS_clean_sbu_0, # of connection points: 4
#     Node 1, Type 0, BuildingBlock: KUFVIS_clean_sbu_0, # of connection points: 4
#     Node 2, Type 0, BuildingBlock: KUFVIS_clean_sbu_0, # of connection points: 4
#     Node 3, Type 0, BuildingBlock: KUFVIS_clean_sbu_0, # of connection points: 4
#     Node 4, Type 0, BuildingBlock: KUFVIS_clean_sbu_0, # of connection points: 4
#     Node 5, Type 0, BuildingBlock: KUFVIS_clean_sbu_0, # of connection points: 4
#     Node 6, Type 0, BuildingBlock: KUFVIS_clean_sbu_0, # of connection points: 4
#     Node 7, Type 0, BuildingBlock: KUFVIS_clean_sbu_0, # of connection points: 4
#     Node 8, Type 0, BuildingBlock: KUFVIS_clean_sbu_0, # of connection points: 4
#     Node 9, Type 0, BuildingBlock: KUFVIS_clean_sbu_0, # of connection points: 4
#     Node 10, Type 0, BuildingBlock: KUFVIS_clean_sbu_0, # of connection points: 4
#     Node 11, Type 0, BuildingBlock: KUFVIS_clean_sbu_0, # of connection points: 4
#     Edge 12, Type (0, 0), BuildingBlock: TEMPAE_clean_linker_10, # of connection points: 2
#     Edge 13, Type (0, 0), BuildingBlock: TEMPAE_clean_linker_10, # of connection points: 2
#     Edge 14, Type (0, 0), BuildingBlock: TEMPAE_clean_linker_10, # of connection points: 2
#     Edge 15, Type (0, 0), BuildingBlock: TEMPAE_clean_linker_10, # of connection points: 2
#     Edge 16, Type (0, 0), BuildingBlock: TEMPAE_clean_linker_10, # of connection points: 2
#     Edge 17, Type (0, 0), BuildingBlock: TEMPAE_clean_linker_10, # of connection points: 2
#     Edge 18, Type (0, 0), BuildingBlock: TEMPAE_clean_linker_10, # of connection points: 2
#     Edge 19, Type (0, 0), BuildingBlock: TEMPAE_clean_linker_10, # of connection points: 2
#     Edge 20, Type (0, 0), BuildingBlock: TEMPAE_clean_linker_10, # of connection points: 2
#     Edge 21, Type (0, 0), BuildingBlock: TEMPAE_clean_linker_10, # of connection points: 2
#     Edge 22, Type (0, 0), BuildingBlock: TEMPAE_clean_linker_10, # of connection points: 2
#     Edge 23, Type (0, 0), BuildingBlock: TEMPAE_clean_linker_10, # of connection points: 2
#     Edge 24, Type (0, 0), BuildingBlock: TEMPAE_clean_linker_10, # of connection points: 2
#     Edge 25, Type (0, 0), BuildingBlock: TEMPAE_clean_linker_10, # of connection points: 2
#     Edge 26, Type (0, 0), BuildingBlock: TEMPAE_clean_linker_10, # of connection points: 2
#     Edge 27, Type (0, 0), BuildingBlock: TEMPAE_clean_linker_10, # of connection points: 2
#     Edge 28, Type (0, 0), BuildingBlock: TEMPAE_clean_linker_10, # of connection points: 2
#     Edge 29, Type (0, 0), BuildingBlock: TEMPAE_clean_linker_10, # of connection points: 2
#     Edge 30, Type (0, 0), BuildingBlock: TEMPAE_clean_linker_10, # of connection points: 2
#     Edge 31, Type (0, 0), BuildingBlock: TEMPAE_clean_linker_10, # of connection points: 2
#     Edge 32, Type (0, 0), BuildingBlock: TEMPAE_clean_linker_10, # of connection points: 2
#     Edge 33, Type (0, 0), BuildingBlock: TEMPAE_clean_linker_10, # of connection points: 2
#     Edge 34, Type (0, 0), BuildingBlock: TEMPAE_clean_linker_10, # of connection points: 2
#     Edge 35, Type (0, 0), BuildingBlock: TEMPAE_clean_linker_10, # of connection points: 2
# Relax obj value: 0.160
# Max RMSD: 0.106
# Mean RMSD: 0.106
data_MOF--net-wje--node1-KUFVIS_clean_sbu_0--edge1-TEMPAE_clean_linker_10
_symmetry_space_group_name_H-M    P1
_symmetry_Int_Tables_number       1
_symmetry_cell_setting            triclinic
loop_
_symmetry_equiv_pos_as_xyz
'x, y, z'
_cell_length_a     39.805094
_cell_length_b     39.811425
_cell_length_c     38.699132
_cell_angle_alpha  90.005869
_cell_angle_beta   90.006883
_cell_angle_gamma 120.0055
loop_
_atom_site_label
_atom_site_type_symbol
_atom_site_fract_x
_atom_site_fract_y
_atom_site_fract_z
_atom_type_partial_charge
Mn0 Mn 0.32182 0.02621 0.31827 0.0
Mn1 Mn 0.29824 0.97472 0.24492 0.0
C2 C 0.25649 0.98849 0.30338 0.0
C3 C 0.33266 0.02663 0.37761 0.0
C4 C 0.33164 0.0622 0.24695 0.0
O5 O 0.37097 0.02502 0.30676 0.0
O6 O 0.35006 0.98497 0.26094 0.0
C7 C 0.29038 0.90197 0.2731 0.0
N8 N 0.27496 0.92076 0.25559 0.0
C9 C 0.21549 0.86097 0.24546 0.0
C10 C 0.23082 0.84092 0.26318 0.0
C11 C 0.26834 0.86155 0.27724 0.0
C12 C 0.23861 0.9013 0.2426 0.0
H13 H 0.31926 0.91771 0.28384 0.0
C14 C 0.3758 0.00498 0.28367 0.0
O15 O 0.34638 0.05907 0.36061 0.0
O16 O 0.31453 0.99496 0.36014 0.0
N17 N 0.24866 0.96197 0.22646 0.0
C18 C 0.23777 0.98576 0.21091 0.0
C19 C 0.20103 0.96966 0.1954 0.0
C20 C 0.17604 0.92928 0.19569 0.0
C21 C 0.18798 0.90535 0.21163 0.0
C22 C 0.22496 0.92304 0.2266 0.0
H23 H 0.25706 0.01675 0.21011 0.0
O24 O 0.26855 0.01819 0.32373 0.0
O25 O 0.28405 0.98337 0.29109 0.0
O26 O 0.3327 0.06589 0.27982 0.0
O27 O 0.32103 0.02996 0.23159 0.0
C28 C 0.16449 0.8647 0.21357 0.0
C29 C 0.17812 0.84255 0.23069 0.0
H30 H 0.21395 0.80973 0.26632 0.0
H31 H 0.28029 0.84631 0.29112 0.0
H32 H 0.19205 0.98831 0.18309 0.0
H33 H 0.14768 0.91699 0.18378 0.0
H34 H 0.13568 0.85022 0.20238 0.0
H35 H 0.15958 0.81137 0.23246 0.0
Mn36 Mn 0.30241 0.32533 0.65013 0.0
Mn37 Mn 0.32774 0.30101 0.57553 0.0
C38 C 0.27924 0.26082 0.63677 0.0
C39 C 0.31698 0.34072 0.70854 0.0
C40 C 0.26822 0.32763 0.58008 0.0
O41 O 0.34915 0.37613 0.63457 0.0
O42 O 0.36704 0.35521 0.58773 0.0
C43 C 0.39951 0.30268 0.59854 0.0
N44 N 0.36328 0.28301 0.58457 0.0
C45 C 0.36862 0.22598 0.57627 0.0
C46 C 0.40606 0.24567 0.59042 0.0
C47 C 0.42146 0.28412 0.60179 0.0
C48 C 0.34791 0.2458 0.57413 0.0
H49 H 0.41156 0.33231 0.60713 0.0
C50 C 0.37252 0.38155 0.60975 0.0
O51 O 0.29396 0.34976 0.6923 0.0
O52 O 0.33195 0.32402 0.69075 0.0
N53 N 0.2923 0.24883 0.5616 0.0
C54 C 0.25486 0.23311 0.55076 0.0
C55 C 0.23465 0.19429 0.53977 0.0
C56 C 0.25333 0.17226 0.53955 0.0
C57 C 0.29194 0.18915 0.55066 0.0
C58 C 0.3104 0.22775 0.56182 0.0
H59 H 0.2405 0.25003 0.55052 0.0
O60 O 0.26142 0.27044 0.65927 0.0
O61 O 0.30986 0.28942 0.62296 0.0
O62 O 0.26798 0.33042 0.61304 0.0
O63 O 0.29036 0.31826 0.5639 0.0
C64 C 0.31285 0.16921 0.55113 0.0
C65 C 0.35105 0.18749 0.56419 0.0
H66 H 0.42316 0.23151 0.59279 0.0
H67 H 0.45028 0.29947 0.61286 0.0
H68 H 0.20484 0.18145 0.53127 0.0
H69 H 0.23771 0.14239 0.5309 0.0
H70 H 0.29959 0.13955 0.54202 0.0
H71 H 0.36651 0.17155 0.56509 0.0
Mn72 Mn 0.97468 0.29451 0.98666 0.0
Mn73 Mn 0.02247 0.32019 0.9113 0.0
C74 C 0.01659 0.27179 0.97227 0.0
C75 C 0.97474 0.30897 0.04526 0.0
C76 C 0.93606 0.2626 0.91737 0.0
O77 O 0.9707 0.3416 0.97175 0.0
O78 O 0.01145 0.3614 0.92616 0.0
C79 C 0.096 0.38887 0.93338 0.0
N80 N 0.07687 0.3528 0.91905 0.0
C81 C 0.13685 0.35397 0.90766 0.0
C82 C 0.15723 0.39123 0.92209 0.0
C83 C 0.13668 0.40863 0.93523 0.0
C84 C 0.09631 0.33545 0.90704 0.0
H85 H 0.08034 0.40247 0.94327 0.0
C86 C 0.99053 0.36647 0.94843 0.0
O87 O 0.94248 0.28596 0.0293 0.0
O88 O 0.00616 0.324 0.02711 0.0
N89 N 0.03541 0.28262 0.89505 0.0
C90 C 0.0114 0.24605 0.88303 0.0
C91 C 0.02738 0.22424 0.86982 0.0
C92 C 0.06783 0.24036 0.86877 0.0
C93 C 0.09196 0.27813 0.88108 0.0
C94 C 0.07438 0.2984 0.89414 0.0
H95 H 0.98031 0.23363 0.88337 0.0
O96 O 0.98926 0.25376 0.99486 0.0
O97 O 0.01726 0.30175 0.95849 0.0
O98 O 0.9345 0.26015 0.9503 0.0
O99 O 0.9667 0.2858 0.90062 0.0
C100 C 0.13276 0.29649 0.88083 0.0
C101 C 0.15517 0.33451 0.89383 0.0
H102 H 0.18862 0.40665 0.92337 0.0
H103 H 0.15219 0.4373 0.94655 0.0
H104 H 0.00855 0.19513 0.86031 0.0
H105 H 0.08005 0.22346 0.85851 0.0
H106 H 0.14721 0.28164 0.87072 0.0
H107 H 0.18652 0.34842 0.89334 0.0
Mn108 Mn 0.67492 0.96784 0.32228 0.0
Mn109 Mn 0.70053 0.0206 0.24957 0.0
C110 C 0.74058 0.006 0.30862 0.0
C111 C 0.66276 0.96668 0.38151 0.0
C112 C 0.66686 0.933 0.25059 0.0
O113 O 0.62604 0.96915 0.30962 0.0
O114 O 0.64836 0.01025 0.26451 0.0
C115 C 0.70778 0.09309 0.27777 0.0
N116 N 0.72376 0.07438 0.26097 0.0
C117 C 0.784 0.13404 0.25314 0.0
C118 C 0.7681 0.154 0.27011 0.0
C119 C 0.72991 0.13339 0.28266 0.0
C120 C 0.76071 0.09382 0.24939 0.0
H121 H 0.67839 0.07738 0.28736 0.0
C122 C 0.62194 0.98973 0.28656 0.0
O123 O 0.6493 0.93445 0.36421 0.0
O124 O 0.68114 0.99851 0.3643 0.0
N125 N 0.75063 0.03337 0.23241 0.0
C126 C 0.76174 0.00975 0.21687 0.0
C127 C 0.79911 0.02589 0.20265 0.0
C128 C 0.82453 0.06614 0.20428 0.0
C129 C 0.81237 0.0899 0.2202 0.0
C130 C 0.77473 0.07219 0.23378 0.0
H131 H 0.74217 0.97887 0.21507 0.0
O132 O 0.72833 0.97629 0.32896 0.0
O133 O 0.71316 0.01097 0.29588 0.0
O134 O 0.66508 0.92874 0.28343 0.0
O135 O 0.67788 0.96556 0.23564 0.0
C136 C 0.8362 0.13043 0.22331 0.0
C137 C 0.82211 0.15244 0.23997 0.0
H138 H 0.78504 0.1851 0.27384 0.0
H139 H 0.71751 0.14856 0.29596 0.0
H140 H 0.80825 0.00737 0.19034 0.0
H141 H 0.85337 0.07846 0.19338 0.0
H142 H 0.86552 0.1449 0.21325 0.0
H143 H 0.84083 0.18352 0.24252 0.0
Mn144 Mn 0.70448 0.67789 0.65231 0.0
Mn145 Mn 0.68093 0.71038 0.58173 0.0
C146 C 0.73008 0.74441 0.64478 0.0
C147 C 0.68857 0.6582 0.7098 0.0
C148 C 0.73769 0.67983 0.58076 0.0
O149 O 0.65672 0.62971 0.63476 0.0
O150 O 0.63993 0.65574 0.59114 0.0
C151 C 0.61116 0.70983 0.60906 0.0
N152 N 0.64707 0.72941 0.59446 0.0
C153 C 0.64421 0.7883 0.59189 0.0
C154 C 0.60708 0.76871 0.60666 0.0
C155 C 0.59059 0.72936 0.61547 0.0
C156 C 0.66351 0.76746 0.58655 0.0
H157 H 0.5983 0.67955 0.6158 0.0
C158 C 0.63341 0.62733 0.61101 0.0
O159 O 0.71096 0.64917 0.69244 0.0
O160 O 0.67522 0.67734 0.69366 0.0
N161 N 0.71742 0.76308 0.57007 0.0
C162 C 0.75388 0.77809 0.55689 0.0
C163 C 0.77429 0.81707 0.5464 0.0
C164 C 0.75704 0.84025 0.5496 0.0
C165 C 0.71959 0.82428 0.56345 0.0
C166 C 0.70051 0.78514 0.57313 0.0
H167 H 0.76737 0.76054 0.55449 0.0
O168 O 0.7471 0.73109 0.66444 0.0
O169 O 0.69934 0.7178 0.6292 0.0
O170 O 0.73738 0.67362 0.61327 0.0
O171 O 0.71697 0.6924 0.56667 0.0
C172 C 0.70051 0.84571 0.56816 0.0
C173 C 0.66291 0.82776 0.5825 0.0
H174 H 0.5911 0.78365 0.61154 0.0
H175 H 0.56204 0.71408 0.62705 0.0
H176 H 0.80328 0.82924 0.53595 0.0
H177 H 0.77294 0.87036 0.54166 0.0
H178 H 0.71461 0.87608 0.56108 0.0
H179 H 0.64862 0.84455 0.5863 0.0
Mn180 Mn 0.02278 0.70012 0.98792 0.0
Mn181 Mn 0.97899 0.67611 0.91055 0.0
C182 C 0.98235 0.72346 0.97106 0.0
C183 C 0.01954 0.68465 0.04659 0.0
C184 C 0.06482 0.73389 0.92008 0.0
O185 O 0.02733 0.65317 0.97363 0.0
O186 O 0.99009 0.63503 0.92567 0.0
C187 C 0.90505 0.6063 0.92993 0.0
N188 N 0.92438 0.64268 0.91627 0.0
C189 C 0.8645 0.64091 0.90287 0.0
C190 C 0.84393 0.60333 0.91661 0.0
C191 C 0.86431 0.58607 0.93041 0.0
C192 C 0.90507 0.65989 0.90362 0.0
H193 H 0.92059 0.59282 0.94036 0.0
C194 C 0.00941 0.62922 0.94911 0.0
O195 O 0.05264 0.70774 0.03189 0.0
O196 O 0.98907 0.67011 0.02716 0.0
N197 N 0.96608 0.71363 0.8941 0.0
C198 C 0.9902 0.75087 0.88375 0.0
C199 C 0.97435 0.77283 0.87063 0.0
C200 C 0.93393 0.75613 0.86785 0.0
C201 C 0.90971 0.71769 0.87849 0.0
C202 C 0.92714 0.69739 0.89178 0.0
H203 H 0.02129 0.76375 0.88546 0.0
O204 O 0.00805 0.74096 0.99506 0.0
O205 O 0.98194 0.69344 0.95779 0.0
O206 O 0.06492 0.73506 0.95309 0.0
O207 O 0.03501 0.71144 0.90204 0.0
C208 C 0.86895 0.6987 0.87639 0.0
C209 C 0.84637 0.66029 0.88849 0.0
H210 H 0.8125 0.58755 0.91683 0.0
H211 H 0.84865 0.55714 0.94121 0.0
H212 H 0.99326 0.80248 0.86248 0.0
H213 H 0.92181 0.7731 0.85758 0.0
H214 H 0.85463 0.71351 0.86588 0.0
H215 H 0.81503 0.64614 0.88707 0.0
Mn216 Mn 0.97927 0.67638 0.36149 0.0
Mn217 Mn 0.03126 0.70207 0.43493 0.0
C218 C 0.02155 0.74108 0.37387 0.0
C219 C 0.9763 0.66052 0.30297 0.0
C220 C 0.94544 0.67712 0.4325 0.0
O221 O 0.97575 0.62583 0.37658 0.0
O222 O 0.01354 0.64681 0.42406 0.0
C223 C 0.09833 0.69551 0.41061 0.0
N224 N 0.08392 0.71704 0.42476 0.0
C225 C 0.14811 0.77154 0.43272 0.0
C226 C 0.16366 0.74987 0.41846 0.0
C227 C 0.13864 0.71178 0.40712 0.0
C228 C 0.1077 0.75398 0.43504 0.0
H229 H 0.07926 0.66613 0.40207 0.0
C230 C 0.99311 0.62044 0.40188 0.0
O231 O 0.94485 0.65165 0.32019 0.0
O232 O 0.00861 0.67736 0.31983 0.0
N233 N 0.05117 0.75522 0.44758 0.0
C234 C 0.03152 0.77351 0.45741 0.0
C235 C 0.0523 0.81242 0.46806 0.0
C236 C 0.09303 0.832 0.46879 0.0
C237 C 0.11261 0.81269 0.45821 0.0
C238 C 0.09037 0.77413 0.44732 0.0
H239 H 0.00028 0.75867 0.45669 0.0
O240 O 0.9931 0.73133 0.35245 0.0
O241 O 0.02386 0.71258 0.38749 0.0
O242 O 0.94081 0.6712 0.39986 0.0
O243 O 0.97779 0.68824 0.44784 0.0
C244 C 0.15334 0.83024 0.45785 0.0
C245 C 0.1711 0.80984 0.44475 0.0
H246 H 0.19475 0.76225 0.41595 0.0
H247 H 0.15039 0.69492 0.39594 0.0
H248 H 0.03696 0.82724 0.47579 0.0
H249 H 0.10898 0.86197 0.47715 0.0
H250 H 0.17132 0.85976 0.46687 0.0
H251 H 0.20246 0.82403 0.44376 0.0
Mn252 Mn 0.29173 0.97589 0.69377 0.0
Mn253 Mn 0.31558 0.02487 0.76832 0.0
C254 C 0.26195 0.01183 0.7081 0.0
C255 C 0.30632 0.98023 0.63452 0.0
C256 C 0.26329 0.93703 0.76362 0.0
O257 O 0.34187 0.97758 0.7068 0.0
O258 O 0.35878 0.01669 0.75315 0.0
C259 C 0.38016 0.09938 0.74264 0.0
N260 N 0.34551 0.07928 0.75931 0.0
C261 C 0.34391 0.13785 0.77079 0.0
C262 C 0.37975 0.15923 0.75401 0.0
C263 C 0.39782 0.13987 0.73968 0.0
C264 C 0.3275 0.09752 0.77254 0.0
H265 H 0.39419 0.0846 0.73167 0.0
C266 C 0.36577 0.99749 0.73053 0.0
O267 O 0.28703 0.94648 0.64946 0.0
O268 O 0.31799 0.01007 0.65416 0.0
N269 N 0.2772 0.0357 0.78622 0.0
C270 C 0.24195 0.01068 0.80023 0.0
C271 C 0.21999 0.02539 0.81562 0.0
C272 C 0.23465 0.06563 0.81677 0.0
C273 C 0.2711 0.09084 0.80237 0.0
C274 C 0.29169 0.07451 0.78744 0.0
H275 H 0.23079 0.97977 0.79992 0.0
O276 O 0.2459 0.98266 0.68704 0.0
O277 O 0.29427 0.01722 0.72162 0.0
O278 O 0.2617 0.93425 0.73062 0.0
O279 O 0.28379 0.96899 0.77981 0.0
C280 C 0.2875 0.13147 0.8017 0.0
C281 C 0.32372 0.15493 0.78565 0.0
H282 H 0.3935 0.19047 0.75177 0.0
H283 H 0.42535 0.15613 0.72649 0.0
H284 H 0.19191 0.00575 0.82672 0.0
H285 H 0.21755 0.07684 0.82855 0.0
H286 H 0.27217 0.14492 0.8129 0.0
H287 H 0.33571 0.18606 0.78476 0.0
Mn288 Mn 0.32627 0.29823 0.02229 0.0
Mn289 Mn 0.30437 0.32094 0.09927 0.0
C290 C 0.26187 0.27501 0.03744 0.0
C291 C 0.34007 0.31474 0.96396 0.0
C292 C 0.33245 0.26314 0.09004 0.0
O293 O 0.37748 0.34464 0.03792 0.0
O294 O 0.35715 0.36209 0.08549 0.0
C295 C 0.30135 0.39138 0.08011 0.0
N296 N 0.28363 0.35468 0.09312 0.0
C297 C 0.22507 0.35631 0.10452 0.0
C298 C 0.24274 0.39421 0.09143 0.0
C299 C 0.28097 0.41171 0.07897 0.0
C300 C 0.2466 0.33728 0.10451 0.0
H301 H 0.33081 0.40503 0.07069 0.0
C302 C 0.38298 0.36812 0.06272 0.0
O303 O 0.34953 0.29124 0.97866 0.0
O304 O 0.32393 0.32916 0.98323 0.0
N305 N 0.25341 0.28335 0.11452 0.0
C306 C 0.24002 0.24612 0.12506 0.0
C307 C 0.20183 0.22411 0.13731 0.0
C308 C 0.17793 0.2407 0.13892 0.0
C309 C 0.19243 0.27915 0.12817 0.0
C310 C 0.23066 0.29958 0.11599 0.0
H311 H 0.25833 0.2333 0.1242 0.0
O312 O 0.27087 0.2578 0.01379 0.0
O313 O 0.29123 0.30454 0.05163 0.0
O314 O 0.33226 0.26253 0.05703 0.0
O315 O 0.32459 0.28526 0.10803 0.0
C316 C 0.17051 0.29803 0.12913 0.0
C317 C 0.18694 0.33668 0.11756 0.0
H318 H 0.22718 0.41005 0.09069 0.0
H319 H 0.29477 0.44089 0.06869 0.0
H320 H 0.19087 0.19447 0.14561 0.0
H321 H 0.14849 0.22364 0.14842 0.0
H322 H 0.14093 0.28304 0.13858 0.0
H323 H 0.16977 0.35088 0.11836 0.0
Mn324 Mn 0.01947 0.31703 0.36023 0.0
Mn325 Mn 0.9733 0.29445 0.43671 0.0
C326 C 0.97837 0.25282 0.37522 0.0
C327 C 0.0184 0.33104 0.3017 0.0
C328 C 0.05892 0.32073 0.42891 0.0
O329 O 0.02405 0.3682 0.37541 0.0
O330 O 0.98794 0.34841 0.42397 0.0
C331 C 0.90253 0.29629 0.41624 0.0
N332 N 0.91946 0.27668 0.42958 0.0
C333 C 0.85727 0.22036 0.44055 0.0
C334 C 0.83915 0.24001 0.42713 0.0
C335 C 0.8619 0.27805 0.4147 0.0
C336 C 0.89786 0.23979 0.44089 0.0
H337 H 0.91988 0.32561 0.40686 0.0
C338 C 0.0073 0.37411 0.40097 0.0
O339 O 0.05092 0.34044 0.31725 0.0
O340 O 0.98724 0.31477 0.32025 0.0
N341 N 0.95676 0.24247 0.45114 0.0
C342 C 0.97868 0.2267 0.46122 0.0
C343 C 0.9603 0.18816 0.47294 0.0
C344 C 0.91963 0.16649 0.47473 0.0
C345 C 0.8977 0.18345 0.46445 0.0
C346 C 0.9176 0.22172 0.45242 0.0
H347 H 0.00993 0.24338 0.46034 0.0
O348 O 0.00489 0.26173 0.35189 0.0
O349 O 0.97729 0.28191 0.389 0.0
O350 O 0.06051 0.32312 0.39595 0.0
O351 O 0.02834 0.31144 0.4465 0.0
C352 C 0.85688 0.16392 0.46573 0.0
C353 C 0.83666 0.1823 0.45364 0.0
H354 H 0.80781 0.22612 0.42611 0.0
H355 H 0.84815 0.29335 0.40415 0.0
H356 H 0.97745 0.1753 0.48082 0.0
H357 H 0.90555 0.13685 0.48399 0.0
H358 H 0.8407 0.13451 0.47548 0.0
H359 H 0.80524 0.1667 0.45416 0.0
Mn360 Mn 0.69519 0.01792 0.69796 0.0
Mn361 Mn 0.66968 0.97607 0.77604 0.0
C362 C 0.71885 0.97873 0.71742 0.0
C363 C 0.68143 0.01162 0.63871 0.0
C364 C 0.72781 0.0617 0.76561 0.0
O365 O 0.64761 0.02216 0.70996 0.0
O366 O 0.62945 0.98808 0.75971 0.0
C367 C 0.59964 0.90265 0.75599 0.0
N368 N 0.63574 0.92154 0.7703 0.0
C369 C 0.63397 0.86126 0.7817 0.0
C370 C 0.59668 0.84116 0.76731 0.0
C371 C 0.57951 0.86197 0.75428 0.0
C372 C 0.65271 0.90182 0.78253 0.0
H373 H 0.58637 0.91852 0.74585 0.0
C374 C 0.62397 0.00641 0.73509 0.0
O375 O 0.70272 0.04571 0.65253 0.0
O376 O 0.66709 0.98227 0.65939 0.0
N377 N 0.70629 0.96249 0.79366 0.0
C378 C 0.74336 0.98628 0.80463 0.0
C379 C 0.76511 0.97002 0.81737 0.0
C380 C 0.74847 0.92953 0.81888 0.0
C381 C 0.71023 0.90565 0.80754 0.0
C382 C 0.68999 0.92349 0.79504 0.0
H383 H 0.75631 0.01742 0.80358 0.0
O384 O 0.73698 0.00411 0.69333 0.0
O385 O 0.68831 0.97828 0.72947 0.0
O386 O 0.72865 0.06135 0.73254 0.0
O387 O 0.70564 0.03203 0.78398 0.0
C388 C 0.69152 0.86485 0.80789 0.0
C389 C 0.65342 0.84267 0.79498 0.0
H390 H 0.58108 0.80978 0.76591 0.0
H391 H 0.55083 0.84667 0.74294 0.0
H392 H 0.79464 0.98866 0.826 0.0
H393 H 0.76538 0.9171 0.82863 0.0
H394 H 0.70634 0.85022 0.81766 0.0
H395 H 0.6395 0.81132 0.79502 0.0
Mn396 Mn 0.67656 0.70398 0.02081 0.0
Mn397 Mn 0.70377 0.68316 0.09598 0.0
C398 C 0.74239 0.73103 0.03311 0.0
C399 C 0.66095 0.68587 0.96291 0.0
C400 C 0.671 0.73757 0.0895 0.0
O401 O 0.62747 0.65621 0.0375 0.0
O402 O 0.65145 0.63998 0.08318 0.0
C403 C 0.71066 0.61562 0.0739 0.0
N404 N 0.72696 0.65185 0.08783 0.0
C405 C 0.78775 0.65376 0.09649 0.0
C406 C 0.77152 0.61634 0.08252 0.0
C407 C 0.73287 0.59729 0.07098 0.0
C408 C 0.76432 0.67072 0.0984 0.0
H409 H 0.68095 0.60083 0.06506 0.0
C410 C 0.62427 0.63283 0.06155 0.0
O411 O 0.65035 0.70842 0.97779 0.0
O412 O 0.67928 0.67355 0.98171 0.0
N413 N 0.75431 0.72226 0.11079 0.0
C414 C 0.76581 0.75847 0.12318 0.0
C415 C 0.80377 0.78142 0.13573 0.0
C416 C 0.82941 0.76681 0.1357 0.0
C417 C 0.81686 0.72937 0.12305 0.0
C418 C 0.77865 0.70779 0.11098 0.0
H419 H 0.74614 0.76968 0.12376 0.0
O420 O 0.73032 0.74674 0.01063 0.0
O421 O 0.71486 0.70062 0.04826 0.0
O422 O 0.66958 0.73819 0.05652 0.0
O423 O 0.68122 0.7166 0.10652 0.0
C424 C 0.84084 0.71273 0.12174 0.0
C425 C 0.82634 0.67501 0.10836 0.0
H426 H 0.78854 0.60208 0.08029 0.0
H427 H 0.72021 0.56851 0.05997 0.0
H428 H 0.8132 0.81025 0.14552 0.0
H429 H 0.85869 0.78465 0.1453 0.0
H430 H 0.87057 0.7288 0.13072 0.0
H431 H 0.84515 0.66264 0.10723 0.0
C432 C 0.32526 0.12034 0.23474 0.0
C433 C 0.33949 0.09586 0.22507 0.0
C434 C 0.32704 0.14865 0.2119 0.0
C435 C 0.34461 0.15342 0.17903 0.0
C436 C 0.3609 0.13012 0.16994 0.0
C437 C 0.35748 0.10112 0.1928 0.0
C438 C 0.30838 0.17212 0.2223 0.0
C439 C 0.38105 0.13514 0.13571 0.0
C440 C 0.31119 0.19531 0.1072 0.0
C441 C 0.33881 0.23479 0.10912 0.0
C442 C 0.31303 0.16841 0.1295 0.0
C443 C 0.34394 0.18127 0.15357 0.0
C444 C 0.37296 0.22098 0.15434 0.0
C445 C 0.36956 0.24744 0.13259 0.0
C446 C 0.28087 0.12659 0.12847 0.0
C447 C 0.40702 0.23569 0.17874 0.0
H448 H 0.31081 0.11594 0.25945 0.0
H449 H 0.36855 0.08223 0.18529 0.0
H450 H 0.32973 0.20356 0.22063 0.0
H451 H 0.28439 0.16615 0.20419 0.0
H452 H 0.29653 0.16542 0.24898 0.0
H453 H 0.3958 0.11774 0.13413 0.0
H454 H 0.35961 0.12607 0.11441 0.0
H455 H 0.40285 0.16613 0.13145 0.0
H456 H 0.28699 0.1858 0.08948 0.0
H457 H 0.3907 0.27812 0.13418 0.0
H458 H 0.26574 0.11844 0.15378 0.0
H459 H 0.29302 0.10725 0.12397 0.0
H460 H 0.25922 0.1212 0.10795 0.0
H461 H 0.39685 0.23349 0.20576 0.0
H462 H 0.42914 0.2664 0.17349 0.0
H463 H 0.42094 0.2176 0.17665 0.0
C464 C 0.24805 0.34317 0.52383 0.0
C465 C 0.24028 0.33335 0.55894 0.0
C466 C 0.22048 0.34463 0.5022 0.0
C467 C 0.18384 0.33541 0.51576 0.0
C468 C 0.17619 0.32666 0.55142 0.0
C469 C 0.20464 0.32605 0.57265 0.0
C470 C 0.23016 0.35481 0.46454 0.0
C471 C 0.13734 0.31624 0.56682 0.0
C472 C 0.1176 0.36113 0.46488 0.0
C473 C 0.09312 0.32601 0.44819 0.0
C474 C 0.14773 0.36491 0.48654 0.0
C475 C 0.15276 0.3325 0.49215 0.0
C476 C 0.12803 0.29701 0.47505 0.0
C477 C 0.09867 0.29431 0.45309 0.0
C478 C 0.17384 0.40339 0.50374 0.0
C479 C 0.13202 0.26161 0.48055 0.0
H480 H 0.27565 0.34919 0.51304 0.0
H481 H 0.19828 0.31819 0.59966 0.0
H482 H 0.2116 0.32913 0.4483 0.0
H483 H 0.22406 0.37812 0.45697 0.0
H484 H 0.26102 0.36455 0.45872 0.0
H485 H 0.13668 0.3123 0.59528 0.0
H486 H 0.13005 0.33912 0.56097 0.0
H487 H 0.1144 0.2889 0.55504 0.0
H488 H 0.11281 0.38543 0.46133 0.0
H489 H 0.07927 0.26704 0.44044 0.0
H490 H 0.20462 0.41326 0.49757 0.0
H491 H 0.17068 0.40013 0.53221 0.0
H492 H 0.16718 0.42618 0.49555 0.0
H493 H 0.16143 0.26792 0.47279 0.0
H494 H 0.11024 0.23615 0.46561 0.0
H495 H 0.12853 0.25387 0.50838 0.0
C496 C 0.74499 0.10801 0.8148 0.0
C497 C 0.75616 0.09688 0.78451 0.0
C498 C 0.77255 0.13756 0.83609 0.0
C499 C 0.81244 0.15538 0.82759 0.0
C500 C 0.82376 0.14488 0.79651 0.0
C501 C 0.79539 0.11615 0.77506 0.0
C502 C 0.75907 0.14875 0.86829 0.0
C503 C 0.866 0.16237 0.78689 0.0
C504 C 0.88834 0.24939 0.87011 0.0
C505 C 0.90182 0.2355 0.89688 0.0
C506 C 0.85821 0.22369 0.84817 0.0
C507 C 0.84243 0.18316 0.85218 0.0
C508 C 0.85602 0.16909 0.87932 0.0
C509 C 0.88509 0.19546 0.90173 0.0
C510 C 0.84362 0.23989 0.82046 0.0
C511 C 0.84089 0.1262 0.88391 0.0
H512 H 0.71464 0.09305 0.82216 0.0
H513 H 0.80413 0.10708 0.75196 0.0
H514 H 0.76832 0.13911 0.89149 0.0
H515 H 0.77252 0.18076 0.86992 0.0
H516 H 0.72702 0.13556 0.86907 0.0
H517 H 0.86993 0.15217 0.7613 0.0
H518 H 0.88031 0.19446 0.78636 0.0
H519 H 0.8811 0.1546 0.80672 0.0
H520 H 0.90147 0.28044 0.86634 0.0
H521 H 0.89609 0.1848 0.92205 0.0
H522 H 0.81158 0.22615 0.82203 0.0
H523 H 0.85065 0.2331 0.79459 0.0
H524 H 0.85658 0.27183 0.82264 0.0
H525 H 0.8091 0.11077 0.88829 0.0
H526 H 0.85486 0.12002 0.90595 0.0
H527 H 0.84613 0.11408 0.86002 0.0
C528 C 0.63105 0.75192 0.13004 0.0
C529 C 0.66428 0.76509 0.10956 0.0
C530 C 0.62685 0.7773 0.15263 0.0
C531 C 0.65729 0.8163 0.15564 0.0
C532 C 0.69077 0.82965 0.13463 0.0
C533 C 0.69362 0.80396 0.11154 0.0
C534 C 0.59027 0.7622 0.17379 0.0
C535 C 0.7243 0.87068 0.13752 0.0
C536 C 0.64448 0.89693 0.19465 0.0
C537 C 0.65908 0.89965 0.22817 0.0
C538 C 0.64172 0.86854 0.17137 0.0
C539 C 0.655 0.84298 0.18147 0.0
C540 C 0.66871 0.84487 0.21565 0.0
C541 C 0.67009 0.87285 0.23873 0.0
C542 C 0.62585 0.86682 0.13558 0.0
C543 C 0.68393 0.81876 0.22727 0.0
H544 H 0.60861 0.72166 0.12867 0.0
H545 H 0.71959 0.8138 0.09606 0.0
H546 H 0.59709 0.76212 0.20156 0.0
H547 H 0.5778 0.7815 0.17083 0.0
H548 H 0.56801 0.73228 0.16621 0.0
H549 H 0.74819 0.8765 0.11932 0.0
H550 H 0.71428 0.89164 0.13225 0.0
H551 H 0.73598 0.87613 0.16425 0.0
H552 H 0.63577 0.91748 0.18641 0.0
H553 H 0.68183 0.87512 0.26446 0.0
H554 H 0.60367 0.83656 0.12901 0.0
H555 H 0.64955 0.87643 0.11633 0.0
H556 H 0.61264 0.88555 0.13308 0.0
H557 H 0.66192 0.78794 0.22272 0.0
H558 H 0.69192 0.82262 0.25509 0.0
H559 H 0.70996 0.82509 0.21187 0.0
C560 C 0.92017 0.69503 0.48428 0.0
C561 C 0.91254 0.67291 0.45401 0.0
C562 C 0.89006 0.69337 0.5044 0.0
C563 C 0.85103 0.66753 0.4951 0.0
C564 C 0.84298 0.6438 0.4654 0.0
C565 C 0.87383 0.64736 0.44478 0.0
C566 C 0.90015 0.72028 0.53504 0.0
C567 C 0.80183 0.61473 0.45538 0.0
C568 C 0.77898 0.64967 0.56765 0.0
C569 C 0.76459 0.67409 0.55797 0.0
C570 C 0.80542 0.64543 0.54645 0.0
C571 C 0.81901 0.6673 0.51552 0.0
C572 C 0.8042 0.69158 0.50547 0.0
C573 C 0.77661 0.69394 0.52633 0.0
C574 C 0.8193 0.61804 0.55743 0.0
C575 C 0.81877 0.71649 0.47343 0.0
H576 H 0.94987 0.71461 0.49193 0.0
H577 H 0.86766 0.62974 0.42173 0.0
H578 H 0.88682 0.73881 0.53189 0.0
H579 H 0.88821 0.70325 0.55908 0.0
H580 H 0.93196 0.73937 0.53828 0.0
H581 H 0.80056 0.59575 0.43378 0.0
H582 H 0.78607 0.59629 0.47791 0.0
H583 H 0.78628 0.63008 0.44741 0.0
H584 H 0.76943 0.63371 0.59173 0.0
H585 H 0.76542 0.7125 0.51823 0.0
H586 H 0.85021 0.63482 0.56524 0.0
H587 H 0.81731 0.59916 0.53549 0.0
H588 H 0.80226 0.59943 0.57947 0.0
H589 H 0.85045 0.73682 0.47571 0.0
H590 H 0.80414 0.73368 0.46908 0.0
H591 H 0.81418 0.6982 0.45034 0.0
C592 C 0.19946 0.87727 0.77474 0.0
C593 C 0.23787 0.90252 0.78483 0.0
C594 C 0.17309 0.84842 0.79734 0.0
C595 C 0.18577 0.84399 0.83041 0.0
C596 C 0.22516 0.868 0.83984 0.0
C597 C 0.25053 0.8974 0.8172 0.0
C598 C 0.13117 0.82411 0.78655 0.0
C599 C 0.24022 0.86347 0.8743 0.0
C600 C 0.11044 0.80171 0.90225 0.0
C601 C 0.09944 0.76241 0.90094 0.0
C602 C 0.13875 0.82862 0.87964 0.0
C603 C 0.1573 0.81602 0.85588 0.0
C604 C 0.14747 0.77653 0.85569 0.0
C605 C 0.11799 0.75001 0.87773 0.0
C606 C 0.14748 0.87015 0.88008 0.0
C607 C 0.16741 0.76214 0.83167 0.0
H608 H 0.18943 0.88152 0.74995 0.0
H609 H 0.28026 0.91686 0.82505 0.0
H610 H 0.12161 0.79283 0.78876 0.0
H611 H 0.1126 0.82993 0.80409 0.0
H612 H 0.12622 0.83022 0.75959 0.0
H613 H 0.27233 0.88126 0.87606 0.0
H614 H 0.22745 0.87243 0.89535 0.0
H615 H 0.23141 0.83261 0.87881 0.0
H616 H 0.09536 0.81101 0.91972 0.0
H617 H 0.10906 0.71945 0.87655 0.0
H618 H 0.14051 0.87776 0.8545 0.0
H619 H 0.17882 0.89007 0.88481 0.0
H620 H 0.13065 0.8753 0.9002 0.0
H621 H 0.15949 0.76395 0.80454 0.0
H622 H 0.15933 0.73162 0.8372 0.0
H623 H 0.19937 0.7807 0.83388 0.0
C624 C 0.44217 0.02574 0.30734 0.0
C625 C 0.41236 0.00346 0.28378 0.0
C626 C 0.47632 0.02358 0.30826 0.0
C627 C 0.48077 0.99848 0.28518 0.0
C628 C 0.45089 0.97597 0.26135 0.0
C629 C 0.41713 0.97877 0.2609 0.0
C630 C 0.50765 0.04815 0.33396 0.0
C631 C 0.45453 0.9488 0.23637 0.0
C632 C 0.5823 0.01815 0.26454 0.0
C633 C 0.58542 0.99127 0.28586 0.0
C634 C 0.54852 0.02092 0.26424 0.0
C635 C 0.5169 0.99608 0.2856 0.0
C636 C 0.51968 0.96877 0.30707 0.0
C637 C 0.55392 0.96676 0.30703 0.0
C638 C 0.54674 0.05055 0.24111 0.0
C639 C 0.48645 0.94166 0.33009 0.0
H640 H 0.43885 0.04486 0.32518 0.0
H641 H 0.39429 0.96124 0.2427 0.0
H642 H 0.51347 0.02934 0.35115 0.0
H643 H 0.53506 0.06762 0.32015 0.0
H644 H 0.4997 0.06615 0.35018 0.0
H645 H 0.4285 0.93301 0.21968 0.0
H646 H 0.48027 0.96533 0.21959 0.0
H647 H 0.45896 0.92725 0.25081 0.0
H648 H 0.60646 0.03745 0.24824 0.0
H649 H 0.55596 0.9459 0.3236 0.0
H650 H 0.54116 0.07057 0.25682 0.0
H651 H 0.52236 0.03584 0.22258 0.0
H652 H 0.57399 0.06796 0.22628 0.0
H653 H 0.47921 0.95862 0.34831 0.0
H654 H 0.4932 0.92207 0.34524 0.0
H655 H 0.46021 0.9237 0.31424 0.0
C656 C 0.56592 0.58939 0.58718 0.0
C657 C 0.59556 0.59084 0.60797 0.0
C658 C 0.52892 0.55619 0.58627 0.0
C659 C 0.52138 0.52351 0.60643 0.0
C660 C 0.55128 0.52443 0.62694 0.0
C661 C 0.58795 0.55808 0.62754 0.0
C662 C 0.49772 0.55632 0.56417 0.0
C663 C 0.54441 0.48998 0.64858 0.0
C664 C 0.41778 0.44921 0.631 0.0
C665 C 0.40933 0.41924 0.60739 0.0
C666 C 0.45387 0.48367 0.63055 0.0
C667 C 0.48224 0.4882 0.60601 0.0
C668 C 0.47364 0.45849 0.58165 0.0
C669 C 0.43733 0.42449 0.58257 0.0
C670 C 0.46195 0.51487 0.65682 0.0
C671 C 0.50316 0.4622 0.55515 0.0
H672 H 0.5713 0.61455 0.57211 0.0
H673 H 0.61055 0.5588 0.64368 0.0
H674 H 0.48655 0.53211 0.5453 0.0
H675 H 0.47292 0.55167 0.58061 0.0
H676 H 0.50835 0.58396 0.54979 0.0
H677 H 0.5709 0.49512 0.66266 0.0
H678 H 0.52112 0.48323 0.6677 0.0
H679 H 0.53449 0.46403 0.63192 0.0
H680 H 0.39645 0.44556 0.65028 0.0
H681 H 0.43131 0.40161 0.56418 0.0
H682 H 0.47114 0.54288 0.64359 0.0
H683 H 0.48617 0.51913 0.67389 0.0
H684 H 0.43624 0.50765 0.67313 0.0
H685 H 0.51304 0.48899 0.53969 0.0
H686 H 0.49148 0.437 0.53727 0.0
H687 H 0.52904 0.46467 0.56838 0.0
C688 C 0.03032 0.58341 0.97214 0.0
C689 C 0.00819 0.59133 0.94879 0.0
C690 C 0.02744 0.54676 0.973 0.0
C691 C 0.00159 0.51728 0.9502 0.0
C692 C 0.97922 0.52507 0.92661 0.0
C693 C 0.98293 0.56195 0.92606 0.0
C694 C 0.05206 0.53956 0.99827 0.0
C695 C 0.95118 0.49435 0.90199 0.0
C696 C 0.01875 0.43457 0.92696 0.0
C697 C 0.99196 0.40447 0.94827 0.0
C698 C 0.0225 0.47148 0.92775 0.0
C699 C 0.99865 0.47854 0.95013 0.0
C700 C 0.97129 0.44835 0.97151 0.0
C701 C 0.96837 0.41168 0.97045 0.0
C702 C 0.05214 0.50297 0.90466 0.0
C703 C 0.94508 0.45478 0.99545 0.0
H704 H 0.04983 0.60579 0.98986 0.0
H705 H 0.9654 0.56748 0.90805 0.0
H706 H 0.03325 0.51508 0.0156 0.0
H707 H 0.07098 0.53116 0.98409 0.0
H708 H 0.07063 0.56546 0.01434 0.0
H709 H 0.93519 0.5048 0.88583 0.0
H710 H 0.96706 0.48487 0.88465 0.0
H711 H 0.92981 0.46847 0.91666 0.0
H712 H 0.03739 0.42958 0.90989 0.0
H713 H 0.94767 0.38874 0.98707 0.0
H714 H 0.07249 0.52836 0.92043 0.0
H715 H 0.03744 0.51301 0.88648 0.0
H716 H 0.06919 0.49303 0.88941 0.0
H717 H 0.96274 0.4787 0.01371 0.0
H718 H 0.92551 0.42839 0.01056 0.0
H719 H 0.92711 0.46363 0.9803 0.0
C720 C 0.0189 0.57958 0.42633 0.0
C721 C 0.99294 0.58311 0.40406 0.0
C722 C 0.02218 0.54612 0.42637 0.0
C723 C 0.99859 0.51511 0.40395 0.0
C724 C 0.97163 0.51796 0.38202 0.0
C725 C 0.96927 0.55201 0.3822 0.0
C726 C 0.05144 0.54427 0.44998 0.0
C727 C 0.94559 0.4852 0.3581 0.0
C728 C 0.02998 0.44209 0.38042 0.0
C729 C 0.00727 0.41136 0.40296 0.0
C730 C 0.02775 0.47622 0.38066 0.0
C731 C 0.0019 0.47951 0.40373 0.0
C732 C 0.97923 0.44883 0.42675 0.0
C733 C 0.98236 0.4153 0.42624 0.0
C734 C 0.05276 0.50862 0.35604 0.0
C735 C 0.95113 0.45112 0.45155 0.0
H736 H 0.03757 0.60344 0.4432 0.0
H737 H 0.94913 0.55438 0.3649 0.0
H738 H 0.03664 0.51903 0.46761 0.0
H739 H 0.07253 0.5401 0.43447 0.0
H740 H 0.06769 0.57095 0.4658 0.0
H741 H 0.92554 0.4916 0.34327 0.0
H742 H 0.96343 0.47952 0.33955 0.0
H743 H 0.92814 0.45819 0.37315 0.0
H744 H 0.04931 0.43939 0.36235 0.0
H745 H 0.96444 0.39175 0.44368 0.0
H746 H 0.07093 0.53582 0.37064 0.0
H747 H 0.03416 0.51413 0.33829 0.0
H748 H 0.07207 0.50194 0.34036 0.0
H749 H 0.96679 0.47658 0.46882 0.0
H750 H 0.93553 0.42466 0.46775 0.0
H751 H 0.92941 0.45518 0.43696 0.0
C752 C 0.55766 0.9847 0.75873 0.0
C753 C 0.58723 0.00754 0.73517 0.0
C754 C 0.52192 0.98364 0.75814 0.0
C755 C 0.51556 0.00619 0.73358 0.0
C756 C 0.5454 0.02981 0.71008 0.0
C757 C 0.58084 0.0301 0.71106 0.0
C758 C 0.49073 0.95788 0.78348 0.0
C759 C 0.53974 0.05449 0.68369 0.0
C760 C 0.41106 0.97469 0.71078 0.0
C761 C 0.40405 0.99956 0.73139 0.0
C762 C 0.4473 0.97673 0.71106 0.0
C763 C 0.47739 0.0045 0.73226 0.0
C764 C 0.47067 0.02989 0.75289 0.0
C765 C 0.43407 0.02703 0.75232 0.0
C766 C 0.4533 0.94893 0.6889 0.0
C767 C 0.50213 0.06006 0.77564 0.0
H768 H 0.56207 0.96696 0.77737 0.0
H769 H 0.60345 0.0479 0.69278 0.0
H770 H 0.48179 0.97538 0.79921 0.0
H771 H 0.46468 0.93603 0.76928 0.0
H772 H 0.50043 0.94243 0.80118 0.0
H773 H 0.56619 0.07212 0.66793 0.0
H774 H 0.5155 0.03573 0.66611 0.0
H775 H 0.53173 0.07428 0.6968 0.0
H776 H 0.38812 0.95336 0.69452 0.0
H777 H 0.42913 0.04663 0.76813 0.0
H778 H 0.4609 0.93094 0.70545 0.0
H779 H 0.47789 0.9653 0.6709 0.0
H780 H 0.4271 0.92936 0.67356 0.0
H781 H 0.51118 0.04569 0.79511 0.0
H782 H 0.49258 0.07835 0.78937 0.0
H783 H 0.52807 0.07916 0.75988 0.0
C784 C 0.42404 0.43448 0.08764 0.0
C785 C 0.41993 0.40575 0.06412 0.0
C786 C 0.45726 0.47137 0.08771 0.0
C787 C 0.48742 0.47982 0.06393 0.0
C788 C 0.484 0.45083 0.04062 0.0
C789 C 0.45021 0.41417 0.04089 0.0
C790 C 0.45973 0.50157 0.11286 0.0
C791 C 0.51581 0.45873 0.0151 0.0
C792 C 0.55652 0.58564 0.04198 0.0
C793 C 0.58846 0.59426 0.06318 0.0
C794 C 0.52346 0.54849 0.04193 0.0
C795 C 0.5224 0.51917 0.06339 0.0
C796 C 0.55441 0.52766 0.08492 0.0
C797 C 0.58693 0.56509 0.08468 0.0
C798 C 0.48967 0.54059 0.01887 0.0
C799 C 0.55442 0.4971 0.10804 0.0
H800 H 0.40086 0.42853 0.10564 0.0
H801 H 0.4474 0.39227 0.02262 0.0
H802 H 0.48594 0.51207 0.12927 0.0
H803 H 0.46253 0.52697 0.09849 0.0
H804 H 0.43387 0.49024 0.12991 0.0
H805 H 0.50921 0.43276 0.99943 0.0
H806 H 0.52014 0.48247 0.99737 0.0
H807 H 0.5436 0.46852 0.02895 0.0
H808 H 0.55735 0.60788 0.02525 0.0
H809 H 0.61148 0.57122 0.10099 0.0
H810 H 0.46314 0.53091 0.03467 0.0
H811 H 0.48376 0.51679 1.00059 0.0
H812 H 0.49502 0.56655 1.00378 0.0
H813 H 0.52996 0.48634 0.12661 0.0
H814 H 0.58188 0.50823 0.12284 0.0
H815 H 0.5501 0.47192 0.09234 0.0
C816 C 0.05374 0.81324 0.37447 0.0
C817 C 0.05604 0.77956 0.37028 0.0
C818 C 0.08532 0.84965 0.36567 0.0
C819 C 0.11867 0.85176 0.35037 0.0
C820 C 0.12103 0.81763 0.34653 0.0
C821 C 0.08991 0.78203 0.35711 0.0
C822 C 0.08303 0.88572 0.37277 0.0
C823 C 0.15597 0.81846 0.33036 0.0
C824 C 0.18637 0.9375 0.29384 0.0
C825 C 0.21977 0.95448 0.31427 0.0
C826 C 0.15259 0.90412 0.30537 0.0
C827 C 0.15176 0.88951 0.33901 0.0
C828 C 0.18431 0.90926 0.3608 0.0
C829 C 0.21806 0.94071 0.34787 0.0
C830 C 0.11844 0.8837 0.28124 0.0
C831 C 0.18432 0.89667 0.39749 0.0
H832 H 0.02728 0.81101 0.38452 0.0
H833 H 0.09123 0.75571 0.35335 0.0
H834 H 0.10886 0.90683 0.3877 0.0
H835 H 0.08308 0.8999 0.34811 0.0
H836 H 0.05652 0.87929 0.3875 0.0
H837 H 0.15096 0.7889 0.32489 0.0
H838 H 0.16368 0.83513 0.30589 0.0
H839 H 0.18122 0.83321 0.34798 0.0
H840 H 0.18668 0.95001 0.26903 0.0
H841 H 0.24322 0.95479 0.36446 0.0
H842 H 0.09149 0.87903 0.29393 0.0
H843 H 0.11416 0.85466 0.27471 0.0
H844 H 0.12255 0.90017 0.25696 0.0
H845 H 0.15555 0.88589 0.40976 0.0
H846 H 0.20657 0.92071 0.41348 0.0
H847 H 0.19124 0.87297 0.39734 0.0
C848 C 0.30565 0.21878 0.65257 0.0
C849 C 0.27472 0.22206 0.63936 0.0
C850 C 0.3003 0.18283 0.66315 0.0
C851 C 0.26335 0.14924 0.65947 0.0
C852 C 0.23259 0.15215 0.64407 0.0
C853 C 0.23838 0.18887 0.63509 0.0
C854 C 0.33382 0.18106 0.67955 0.0
C855 C 0.1936 0.11666 0.63747 0.0
C856 C 0.2703 0.05837 0.66257 0.0
C857 C 0.25922 0.04571 0.69662 0.0
C858 C 0.26895 0.09024 0.6494 0.0
C859 C 0.25765 0.11122 0.67121 0.0
C860 C 0.24426 0.09743 0.70512 0.0
C861 C 0.24405 0.06387 0.71705 0.0
C862 C 0.28111 0.10204 0.61248 0.0
C863 C 0.23157 0.11885 0.72909 0.0
H864 H 0.33354 0.24475 0.65651 0.0
H865 H 0.21448 0.19175 0.62514 0.0
H866 H 0.32517 0.16743 0.70544 0.0
H867 H 0.34164 0.1628 0.66367 0.0
H868 H 0.35999 0.2102 0.68241 0.0
H869 H 0.17416 0.12354 0.62223 0.0
H870 H 0.19734 0.09449 0.62332 0.0
H871 H 0.17924 0.10357 0.66237 0.0
H872 H 0.27995 0.04314 0.64584 0.0
H873 H 0.23205 0.05196 0.74205 0.0
H874 H 0.31193 0.12532 0.61211 0.0
H875 H 0.26339 0.11317 0.60027 0.0
H876 H 0.27846 0.07749 0.59673 0.0
H877 H 0.25708 0.14726 0.73597 0.0
H878 H 0.21829 0.10238 0.75319 0.0
H879 H 0.21034 0.12493 0.71615 0.0
C880 C 0.22714 0.30398 0.00994 0.0
C881 C 0.22583 0.27576 0.03224 0.0
C882 C 0.19318 0.30291 0.99902 0.0
C883 C 0.15697 0.27369 0.01189 0.0
C884 C 0.15569 0.24614 0.03593 0.0
C885 C 0.19019 0.24657 0.04479 0.0
C886 C 0.19635 0.33164 0.97201 0.0
C887 C 0.11804 0.21648 0.05237 0.0
C888 C 0.07695 0.29839 1.00519 0.0
C889 C 0.05336 0.27308 0.97932 0.0
C890 C 0.10999 0.29799 0.01665 0.0
C891 C 0.12078 0.27282 1.00074 0.0
C892 C 0.0977 0.24805 0.97357 0.0
C893 C 0.06321 0.24736 0.9641 0.0
C894 C 0.13236 0.32342 0.04674 0.0
C895 C 0.10974 0.22288 0.95424 0.0
H896 H 0.25484 0.32593 0.99957 0.0
H897 H 0.18935 0.22435 0.06151 0.0
H898 H 0.1903 0.31705 0.94654 0.0
H899 H 0.17515 0.34157 0.97618 0.0
H900 H 0.22593 0.35749 0.97108 0.0
H901 H 0.1224 0.19867 0.07202 0.0
H902 H 0.10395 0.23131 0.06497 0.0
H903 H 0.09781 0.19691 0.03233 0.0
H904 H 0.06865 0.31763 0.01749 0.0
H905 H 0.04428 0.22714 0.94471 0.0
H906 H 0.16387 0.34019 0.04104 0.0
H907 H 0.12807 0.30447 0.06923 0.0
H908 H 0.12244 0.34407 0.05397 0.0
H909 H 0.13892 0.24133 0.94276 0.0
H910 H 0.08909 0.20604 0.93324 0.0
H911 H 0.11189 0.20235 0.97222 0.0
C912 C 0.90975 0.2127 0.3595 0.0
C913 C 0.94324 0.21468 0.37302 0.0
C914 C 0.87802 0.17722 0.34959 0.0
C915 C 0.87918 0.14254 0.3548 0.0
C916 C 0.91205 0.14428 0.37094 0.0
C917 C 0.9444 0.18061 0.37865 0.0
C918 C 0.84383 0.17783 0.33328 0.0
C919 C 0.91375 0.10827 0.37985 0.0
C920 C 0.77784 0.05651 0.35145 0.0
C921 C 0.77723 0.04014 0.3193 0.0
C922 C 0.81172 0.0878 0.36442 0.0
C923 C 0.84555 0.10484 0.34393 0.0
C924 C 0.8456 0.08777 0.31174 0.0
C925 C 0.81159 0.05451 0.30038 0.0
C926 C 0.81106 0.10291 0.39991 0.0
C927 C 0.8811 0.10528 0.28898 0.0
H928 H 0.90916 0.23927 0.35481 0.0
H929 H 0.97056 0.18238 0.38898 0.0
H930 H 0.82444 0.15101 0.31881 0.0
H931 H 0.82667 0.18175 0.35386 0.0
H932 H 0.85395 0.20286 0.31538 0.0
H933 H 0.9311 0.11288 0.40369 0.0
H934 H 0.8845 0.08265 0.38377 0.0
H935 H 0.92837 0.10178 0.35863 0.0
H936 H 0.75176 0.04449 0.36689 0.0
H937 H 0.81175 0.04019 0.27671 0.0
H938 H 0.81122 0.13071 0.39742 0.0
H939 H 0.83729 0.10827 0.41447 0.0
H940 H 0.78492 0.08244 0.4149 0.0
H941 H 0.8894 0.13563 0.2825 0.0
H942 H 0.87639 0.08872 0.26466 0.0
H943 H 0.90584 0.10618 0.30293 0.0
C944 C 0.75291 0.81574 0.64237 0.0
C945 C 0.73053 0.77937 0.65762 0.0
C946 C 0.75224 0.84833 0.6556 0.0
C947 C 0.73118 0.84469 0.68631 0.0
C948 C 0.71147 0.80852 0.70336 0.0
C949 C 0.71048 0.77616 0.68828 0.0
C950 C 0.77297 0.88621 0.63619 0.0
C951 C 0.69123 0.80388 0.7374 0.0
C952 C 0.75405 0.94194 0.72451 0.0
C953 C 0.72036 0.94277 0.71609 0.0
C954 C 0.75695 0.90887 0.71736 0.0
C955 C 0.72668 0.87752 0.69884 0.0
C956 C 0.69216 0.87818 0.69123 0.0
C957 C 0.68921 0.91045 0.7007 0.0
C958 C 0.79277 0.90832 0.72924 0.0
C959 C 0.65812 0.84572 0.67241 0.0
H960 H 0.77037 0.8186 0.61999 0.0
H961 H 0.69445 0.74828 0.70095 0.0
H962 H 0.75194 0.89559 0.62884 0.0
H963 H 0.79522 0.9091 0.65291 0.0
H964 H 0.78751 0.88407 0.6125 0.0
H965 H 0.68292 0.77571 0.75002 0.0
H966 H 0.71048 0.8277 0.75512 0.0
H967 H 0.66456 0.80555 0.73322 0.0
H968 H 0.7781 0.96712 0.73647 0.0
H969 H 0.66317 0.91134 0.69404 0.0
H970 H 0.8168 0.92514 0.71083 0.0
H971 H 0.78809 0.87848 0.7312 0.0
H972 H 0.80225 0.92258 0.75488 0.0
H973 H 0.64669 0.85778 0.65277 0.0
H974 H 0.63436 0.82926 0.69118 0.0
H975 H 0.66514 0.82524 0.65939 0.0
C976 C 0.81371 0.75551 0.04041 0.0
C977 C 0.77841 0.73159 0.02391 0.0
C978 C 0.84755 0.75544 0.02993 0.0
C979 C 0.84626 0.73342 1.00059 0.0
C980 C 0.81101 0.71161 0.98251 0.0
C981 C 0.77742 0.7101 0.99496 0.0
C982 C 0.88426 0.77798 0.05068 0.0
C983 C 0.80883 0.69025 0.94972 0.0
C984 C 0.94456 0.75762 0.96368 0.0
C985 C 0.94635 0.72477 0.97337 0.0
C986 C 0.91118 0.76006 0.97068 0.0
C987 C 0.8806 0.73035 0.99031 0.0
C988 C 0.88258 0.69698 0.99983 0.0
C989 C 0.91503 0.6943 0.99044 0.0
C990 C 0.90927 0.79461 0.95717 0.0
C991 C 0.85115 0.66376 0.02023 0.0
H992 H 0.81473 0.7737 0.0616 0.0
H993 H 0.75034 0.69272 0.98137 0.0
H994 H 0.89472 0.75825 0.05949 0.0
H995 H 0.90731 0.80062 0.03435 0.0
H996 H 0.88002 0.79225 0.07358 0.0
H997 H 0.78009 0.67782 0.93687 0.0
H998 H 0.83141 0.71058 0.93158 0.0
H999 H 0.81462 0.66631 0.95538 0.0
H1000 H 0.96908 0.78124 0.95061 0.0
H1001 H 0.91676 0.66901 0.99819 0.0
H1002 H 0.92334 0.81881 0.97594 0.0
H1003 H 0.87897 0.78796 0.95302 0.0
H1004 H 0.92528 0.80487 0.93236 0.0
H1005 H 0.82988 0.67055 0.03191 0.0
H1006 H 0.86424 0.65495 0.04117 0.0
H1007 H 0.83541 0.63831 1.00292 0.0
C1008 C 0.36546 0.03367 0.43446 0.0
C1009 C 0.33199 0.02432 0.41552 0.0
C1010 C 0.36307 0.02523 0.47003 0.0
C1011 C 0.32645 0.0076 0.48682 0.0
C1012 C 0.29275 0.9988 0.46761 0.0
C1013 C 0.29594 0.00685 0.43214 0.0
C1014 C 0.39953 0.0345 0.48955 0.0
C1015 C 0.25327 0.98082 0.48447 0.0
C1016 C 0.30847 0.95676 0.57425 0.0
C1017 C 0.31263 0.98618 0.59671 0.0
C1018 C 0.31426 0.96364 0.53837 0.0
C1019 C 0.32339 0.00041 0.52481 0.0
C1020 C 0.3275 0.03004 0.5475 0.0
C1021 C 0.32257 0.02271 0.58302 0.0
C1022 C 0.31027 0.93154 0.51495 0.0
C1023 C 0.3359 0.06922 0.53424 0.0
H1024 H 0.39315 0.04624 0.42124 0.0
H1025 H 0.27003 0.99914 0.41716 0.0
H1026 H 0.40468 0.05558 0.51047 0.0
H1027 H 0.39609 0.00782 0.50195 0.0
H1028 H 0.42547 0.04682 0.47252 0.0
H1029 H 0.23014 0.97663 0.46596 0.0
H1030 H 0.24563 0.95223 0.49567 0.0
H1031 H 0.25374 0.99948 0.50598 0.0
H1032 H 0.30095 0.92858 0.58467 0.0
H1033 H 0.32568 0.04569 0.60007 0.0
H1034 H 0.33642 0.94214 0.49843 0.0
H1035 H 0.28505 0.92238 0.49751 0.0
H1036 H 0.3062 0.90582 0.52968 0.0
H1037 H 0.33941 0.08954 0.55545 0.0
H1038 H 0.31181 0.06564 0.51731 0.0
H1039 H 0.36271 0.08262 0.51841 0.0
C1040 C 0.33717 0.29356 0.90267 0.0
C1041 C 0.34404 0.3228 0.92648 0.0
C1042 C 0.33413 0.29903 0.86712 0.0
C1043 C 0.33927 0.33501 0.85515 0.0
C1044 C 0.34825 0.36526 0.87905 0.0
C1045 C 0.34986 0.35855 0.91446 0.0
C1046 C 0.32377 0.26577 0.84256 0.0
C1047 C 0.35529 0.40444 0.86733 0.0
C1048 C 0.36023 0.35427 0.75919 0.0
C1049 C 0.32391 0.34561 0.74614 0.0
C1050 C 0.36608 0.35264 0.79477 0.0
C1051 C 0.33445 0.34067 0.81775 0.0
C1052 C 0.2979 0.3329 0.80476 0.0
C1053 C 0.29323 0.33604 0.76906 0.0
C1054 C 0.40582 0.36255 0.80761 0.0
C1055 C 0.26325 0.31932 0.82831 0.0
H1056 H 0.33206 0.26572 0.912 0.0
H1057 H 0.35518 0.3812 0.9329 0.0
H1058 H 0.2959 0.25766 0.8295 0.0
H1059 H 0.34619 0.27464 0.82215 0.0
H1060 H 0.32093 0.23977 0.85591 0.0
H1061 H 0.36528 0.42584 0.88878 0.0
H1062 H 0.37737 0.41596 0.84647 0.0
H1063 H 0.32816 0.40157 0.85653 0.0
H1064 H 0.38395 0.36161 0.74139 0.0
H1065 H 0.26498 0.32867 0.75888 0.0
H1066 H 0.405 0.33606 0.81765 0.0
H1067 H 0.41482 0.38359 0.82927 0.0
H1068 H 0.42811 0.37509 0.78693 0.0
H1069 H 0.25639 0.2913 0.84036 0.0
H1070 H 0.23712 0.31536 0.81433 0.0
H1071 H 0.26989 0.34045 0.84954 0.0
C1072 C 0.98673 0.34224 0.25107 0.0
C1073 C 0.01554 0.33524 0.26407 0.0
C1074 C 0.97963 0.34103 0.21542 0.0
C1075 C 0.00088 0.33114 0.19231 0.0
C1076 C 0.03059 0.32478 0.20531 0.0
C1077 C 0.03798 0.32753 0.24106 0.0
C1078 C 0.94878 0.34946 0.20259 0.0
C1079 C 0.05335 0.31335 0.18163 0.0
C1080 C 0.95481 0.28561 0.10579 0.0
C1081 C 0.9771 0.31593 0.08288 0.0
C1082 C 0.96202 0.29023 0.14158 0.0
C1083 C 0.99138 0.32641 0.15469 0.0
C1084 C 0.01243 0.3577 0.13168 0.0
C1085 C 0.00552 0.35185 0.09602 0.0
C1086 C 0.93951 0.25587 0.16515 0.0
C1087 C 0.04294 0.3971 0.14462 0.0
H1088 H 0.96936 0.34822 0.26891 0.0
H1089 H 0.05984 0.32152 0.25116 0.0
H1090 H 0.96056 0.37143 0.18165 0.0
H1091 H 0.9242 0.32274 0.19157 0.0
H1092 H 0.93747 0.36023 0.22351 0.0
H1093 H 0.07565 0.30972 0.19573 0.0
H1094 H 0.0333 0.28563 0.16849 0.0
H1095 H 0.06796 0.33556 0.16123 0.0
H1096 H 0.93327 0.25765 0.09558 0.0
H1097 H 0.02279 0.37532 0.07825 0.0
H1098 H 0.92477 0.2632 0.18565 0.0
H1099 H 0.95975 0.24839 0.17817 0.0
H1100 H 0.91735 0.22992 0.15099 0.0
H1101 H 0.03098 0.40693 0.1657 0.0
H1102 H 0.05393 0.41928 0.1238 0.0
H1103 H 0.06777 0.3953 0.15547 0.0
C1104 C 0.6983 0.99106 0.43631 0.0
C1105 C 0.66272 0.96867 0.41949 0.0
C1106 C 0.70012 0.99784 0.47196 0.0
C1107 C 0.66531 0.98276 0.4912 0.0
C1108 C 0.62913 0.96001 0.47428 0.0
C1109 C 0.62828 0.9528 0.43851 0.0
C1110 C 0.73936 0.02119 0.48895 0.0
C1111 C 0.59141 0.94418 0.49379 0.0
C1112 C 0.67244 0.97035 0.58763 0.0
C1113 C 0.67639 0.00491 0.601 0.0
C1114 C 0.66855 0.96274 0.55207 0.0
C1115 C 0.66721 0.98975 0.52921 0.0
C1116 C 0.67025 0.02438 0.5426 0.0
C1117 C 0.67552 0.03191 0.57838 0.0
C1118 C 0.66705 0.92627 0.53892 0.0
C1119 C 0.66811 0.0535 0.5191 0.0
H1120 H 0.72492 0.00345 0.4214 0.0
H1121 H 0.60078 0.93615 0.42524 0.0
H1122 H 0.74215 0.04797 0.50047 0.0
H1123 H 0.74237 0.0042 0.51024 0.0
H1124 H 0.76363 0.02958 0.47045 0.0
H1125 H 0.56577 0.92798 0.47675 0.0
H1126 H 0.59019 0.92453 0.51468 0.0
H1127 H 0.5896 0.96834 0.50625 0.0
H1128 H 0.67352 0.94954 0.60502 0.0
H1129 H 0.67834 0.05852 0.5887 0.0
H1130 H 0.69111 0.93387 0.52043 0.0
H1131 H 0.6395 0.90808 0.52485 0.0
H1132 H 0.66937 0.90877 0.56013 0.0
H1133 H 0.6935 0.06646 0.5015 0.0
H1134 H 0.6676 0.07723 0.53376 0.0
H1135 H 0.64172 0.03886 0.50273 0.0
C1136 C 0.65117 0.64069 0.91482 0.0
C1137 C 0.65594 0.67642 0.92571 0.0
C1138 C 0.6535 0.63313 0.87977 0.0
C1139 C 0.66193 0.66246 0.85505 0.0
C1140 C 0.66555 0.69824 0.86577 0.0
C1141 C 0.66203 0.70463 0.90105 0.0
C1142 C 0.64818 0.5942 0.86937 0.0
C1143 C 0.67502 0.73045 0.84023 0.0
C1144 C 0.71103 0.66213 0.77058 0.0
C1145 C 0.68058 0.65095 0.74704 0.0
C1146 C 0.70522 0.66525 0.80606 0.0
C1147 C 0.66789 0.65609 0.81811 0.0
C1148 C 0.63657 0.64222 0.79456 0.0
C1149 C 0.64345 0.64042 0.75925 0.0
C1150 C 0.73949 0.6806 0.8303 0.0
C1151 C 0.59612 0.63093 0.80639 0.0
H1152 H 0.64652 0.61886 0.93395 0.0
H1153 H 0.66639 0.73249 0.90952 0.0
H1154 H 0.62675 0.58151 0.84807 0.0
H1155 H 0.67603 0.59787 0.85964 0.0
H1156 H 0.63824 0.57336 0.89126 0.0
H1157 H 0.6761 0.75618 0.85255 0.0
H1158 H 0.70355 0.73957 0.82804 0.0
H1159 H 0.6531 0.72004 0.81925 0.0
H1160 H 0.7399 0.6711 0.761 0.0
H1161 H 0.61998 0.63209 0.7409 0.0
H1162 H 0.73299 0.66048 0.85235 0.0
H1163 H 0.74536 0.70886 0.84112 0.0
H1164 H 0.76615 0.68479 0.8172 0.0
H1165 H 0.58759 0.61089 0.82877 0.0
H1166 H 0.5743 0.61672 0.78553 0.0
H1167 H 0.5954 0.65713 0.81502 0.0
C1168 C 0.95556 0.66526 0.24312 0.0
C1169 C 0.97693 0.65522 0.26529 0.0
C1170 C 0.96222 0.66807 0.20723 0.0
C1171 C 0.99005 0.65949 0.19329 0.0
C1172 C 0.00989 0.647 0.21553 0.0
C1173 C 0.0036 0.64573 0.25131 0.0
C1174 C 0.94104 0.68226 0.1845 0.0
C1175 C 0.0387 0.63621 0.20168 0.0
C1176 C 0.98504 0.64151 0.09641 0.0
C1177 C 0.01537 0.67689 0.08414 0.0
C1178 C 0.97728 0.63497 0.13192 0.0
C1179 C 0.99956 0.66504 0.15568 0.0
C1180 C 0.03066 0.70069 0.14343 0.0
C1181 C 0.03857 0.70596 0.10777 0.0
C1182 C 0.94482 0.59611 0.14393 0.0
C1183 C 0.05463 0.73378 0.16784 0.0
H1184 H 0.93544 0.67326 0.25402 0.0
H1185 H 0.0202 0.63804 0.26853 0.0
H1186 H 0.96225 0.71019 0.17234 0.0
H1187 H 0.92577 0.66131 0.16333 0.0
H1188 H 0.91953 0.68664 0.19916 0.0
H1189 H 0.04852 0.6232 0.22188 0.0
H1190 H 0.02572 0.61528 0.18004 0.0
H1191 H 0.06447 0.6624 0.19135 0.0
H1192 H 0.96708 0.61896 0.07811 0.0
H1193 H 0.06166 0.73352 0.09827 0.0
H1194 H 0.92134 0.59964 0.15562 0.0
H1195 H 0.95553 0.58404 0.16419 0.0
H1196 H 0.93231 0.57482 0.12246 0.0
H1197 H 0.03556 0.74221 0.18171 0.0
H1198 H 0.07762 0.75966 0.15421 0.0
H1199 H 0.06853 0.72455 0.1876 0.0
loop_
_geom_bond_atom_site_label_1
_geom_bond_atom_site_label_2
_geom_bond_distance
_geom_bond_site_symmetry_2
_ccdc_geom_bond_type
Mn0 O5 2.095 . S
Mn0 O15 2.162 . S
Mn0 O16 2.297 1_545 S
Mn0 O24 2.385 1_545 S
Mn0 O25 2.209 1_545 S
Mn0 O26 2.094 . S
Mn1 O6 2.121 . S
Mn1 N8 2.257 . S
Mn1 N17 2.282 . S
Mn1 O25 2.215 . S
Mn1 O27 2.117 1_565 S
C2 O24 1.234 . S
C2 O25 1.283 . S
C3 O15 1.281 . S
C3 O16 1.236 1_545 S
C4 O26 1.240 . S
C4 O27 1.264 . S
O5 Mn0 2.095 . S
O5 C14 1.250 . S
O6 Mn1 2.121 . S
O6 C14 1.258 1_565 S
C7 N8 1.326 . S
C7 C11 1.460 . S
C7 H13 0.929 . S
N8 Mn1 2.257 . S
N8 C7 1.326 . S
N8 C12 1.362 . S
C9 C10 1.258 . S
C9 C12 1.431 . S
C9 C29 1.449 . S
C10 C9 1.258 . S
C10 C11 1.477 . S
C10 H30 0.931 . S
C11 C7 1.460 . S
C11 C10 1.477 . S
C11 H31 0.930 . S
C12 N8 1.362 . S
C12 C9 1.431 . S
C12 C22 1.476 . S
H13 C7 0.929 . S
C14 O5 1.250 . S
C14 O6 1.258 1_545 S
O15 Mn0 2.162 . S
O15 C3 1.281 . S
O16 Mn0 2.297 1_565 S
O16 C3 1.236 1_565 S
N17 Mn1 2.282 . S
N17 C18 1.328 . S
N17 C22 1.318 . S
C18 N17 1.328 . S
C18 C19 1.457 . S
C18 H23 0.929 . S
C19 C18 1.457 . S
C19 C20 1.291 . S
C19 H32 0.931 . S
C20 C19 1.291 . S
C20 C21 1.373 . S
C20 H33 0.929 . S
C21 C20 1.373 . S
C21 C22 1.396 . S
C21 C28 1.403 . S
C22 C12 1.476 . S
C22 N17 1.318 . S
C22 C21 1.396 . S
H23 C18 0.929 . S
O24 Mn0 2.385 1_565 S
O24 C2 1.234 . S
O25 Mn0 2.209 1_565 S
O25 Mn1 2.215 . S
O25 C2 1.283 . S
O26 Mn0 2.094 . S
O26 C4 1.240 . S
O27 Mn1 2.117 1_545 S
O27 C4 1.264 . S
C28 C21 1.403 . S
C28 C29 1.399 . S
C28 H34 0.929 . S
C29 C9 1.449 . S
C29 C28 1.399 . S
C29 H35 0.930 . S
H30 C10 0.931 . S
H31 C11 0.930 . S
H32 C19 0.931 . S
H33 C20 0.929 . S
H34 C28 0.929 . S
H35 C29 0.930 . S
Mn36 O41 2.095 . S
Mn36 O51 2.162 . S
Mn36 O52 2.297 . S
Mn36 O60 2.385 . S
Mn36 O61 2.209 . S
Mn36 O62 2.094 . S
Mn37 O42 2.121 . S
Mn37 N44 2.257 . S
Mn37 N53 2.282 . S
Mn37 O61 2.215 . S
Mn37 O63 2.117 . S
C38 O60 1.234 . S
C38 O61 1.283 . S
C39 O51 1.281 . S
C39 O52 1.236 . S
C40 O62 1.240 . S
C40 O63 1.264 . S
O41 Mn36 2.095 . S
O41 C50 1.250 . S
O42 Mn37 2.121 . S
O42 C50 1.258 . S
C43 N44 1.326 . S
C43 C47 1.460 . S
C43 H49 0.929 . S
N44 Mn37 2.257 . S
N44 C43 1.326 . S
N44 C48 1.362 . S
C45 C46 1.258 . S
C45 C48 1.431 . S
C45 C65 1.449 . S
C46 C45 1.258 . S
C46 C47 1.477 . S
C46 H66 0.931 . S
C47 C43 1.460 . S
C47 C46 1.477 . S
C47 H67 0.930 . S
C48 N44 1.362 . S
C48 C45 1.431 . S
C48 C58 1.476 . S
H49 C43 0.929 . S
C50 O41 1.250 . S
C50 O42 1.258 . S
O51 Mn36 2.162 . S
O51 C39 1.281 . S
O52 Mn36 2.297 . S
O52 C39 1.236 . S
N53 Mn37 2.282 . S
N53 C54 1.328 . S
N53 C58 1.318 . S
C54 N53 1.328 . S
C54 C55 1.457 . S
C54 H59 0.929 . S
C55 C54 1.457 . S
C55 C56 1.291 . S
C55 H68 0.931 . S
C56 C55 1.291 . S
C56 C57 1.373 . S
C56 H69 0.929 . S
C57 C56 1.373 . S
C57 C58 1.396 . S
C57 C64 1.403 . S
C58 C48 1.476 . S
C58 N53 1.318 . S
C58 C57 1.396 . S
H59 C54 0.929 . S
O60 Mn36 2.385 . S
O60 C38 1.234 . S
O61 Mn36 2.209 . S
O61 Mn37 2.215 . S
O61 C38 1.283 . S
O62 Mn36 2.094 . S
O62 C40 1.240 . S
O63 Mn37 2.117 . S
O63 C40 1.264 . S
C64 C57 1.403 . S
C64 C65 1.399 . S
C64 H70 0.929 . S
C65 C45 1.449 . S
C65 C64 1.399 . S
C65 H71 0.930 . S
H66 C46 0.931 . S
H67 C47 0.930 . S
H68 C55 0.931 . S
H69 C56 0.929 . S
H70 C64 0.929 . S
H71 C65 0.930 . S
Mn72 O77 2.095 . S
Mn72 O87 2.162 1_556 S
Mn72 O88 2.297 1_656 S
Mn72 O96 2.385 1_655 S
Mn72 O97 2.209 1_655 S
Mn72 O98 2.094 . S
Mn73 O78 2.121 . S
Mn73 N80 2.257 . S
Mn73 N89 2.282 . S
Mn73 O97 2.215 . S
Mn73 O99 2.117 1_455 S
C74 O96 1.234 . S
C74 O97 1.283 . S
C75 O87 1.281 . S
C75 O88 1.236 1_655 S
C76 O98 1.240 . S
C76 O99 1.264 . S
O77 Mn72 2.095 . S
O77 C86 1.250 . S
O78 Mn73 2.121 . S
O78 C86 1.258 1_455 S
C79 N80 1.326 . S
C79 C83 1.460 . S
C79 H85 0.929 . S
N80 Mn73 2.257 . S
N80 C79 1.326 . S
N80 C84 1.362 . S
C81 C82 1.258 . S
C81 C84 1.431 . S
C81 C101 1.449 . S
C82 C81 1.258 . S
C82 C83 1.477 . S
C82 H102 0.931 . S
C83 C79 1.460 . S
C83 C82 1.477 . S
C83 H103 0.930 . S
C84 N80 1.362 . S
C84 C81 1.431 . S
C84 C94 1.476 . S
H85 C79 0.929 . S
C86 O77 1.250 . S
C86 O78 1.258 1_655 S
O87 Mn72 2.162 1_554 S
O87 C75 1.281 . S
O88 Mn72 2.297 1_454 S
O88 C75 1.236 1_455 S
N89 Mn73 2.282 . S
N89 C90 1.328 . S
N89 C94 1.318 . S
C90 N89 1.328 . S
C90 C91 1.457 . S
C90 H95 0.929 . S
C91 C90 1.457 . S
C91 C92 1.291 . S
C91 H104 0.931 . S
C92 C91 1.291 . S
C92 C93 1.373 . S
C92 H105 0.929 . S
C93 C92 1.373 . S
C93 C94 1.396 . S
C93 C100 1.403 . S
C94 C84 1.476 . S
C94 N89 1.318 . S
C94 C93 1.396 . S
H95 C90 0.929 . S
O96 Mn72 2.385 1_455 S
O96 C74 1.234 . S
O97 Mn72 2.209 1_455 S
O97 Mn73 2.215 . S
O97 C74 1.283 . S
O98 Mn72 2.094 . S
O98 C76 1.240 . S
O99 Mn73 2.117 1_655 S
O99 C76 1.264 . S
C100 C93 1.403 . S
C100 C101 1.399 . S
C100 H106 0.929 . S
C101 C81 1.449 . S
C101 C100 1.399 . S
C101 H107 0.930 . S
H102 C82 0.931 . S
H103 C83 0.930 . S
H104 C91 0.931 . S
H105 C92 0.929 . S
H106 C100 0.929 . S
H107 C101 0.930 . S
Mn108 O113 2.095 . S
Mn108 O123 2.162 . S
Mn108 O124 2.297 1_565 S
Mn108 O132 2.385 1_565 S
Mn108 O133 2.209 1_565 S
Mn108 O134 2.094 . S
Mn109 O114 2.121 . S
Mn109 N116 2.257 . S
Mn109 N125 2.282 . S
Mn109 O133 2.215 . S
Mn109 O135 2.117 1_545 S
C110 O132 1.234 . S
C110 O133 1.283 . S
C111 O123 1.281 . S
C111 O124 1.236 1_565 S
C112 O134 1.240 . S
C112 O135 1.264 . S
O113 Mn108 2.095 . S
O113 C122 1.250 . S
O114 Mn109 2.121 . S
O114 C122 1.258 1_545 S
C115 N116 1.326 . S
C115 C119 1.460 . S
C115 H121 0.929 . S
N116 Mn109 2.257 . S
N116 C115 1.326 . S
N116 C120 1.362 . S
C117 C118 1.258 . S
C117 C120 1.431 . S
C117 C137 1.449 . S
C118 C117 1.258 . S
C118 C119 1.477 . S
C118 H138 0.931 . S
C119 C115 1.460 . S
C119 C118 1.477 . S
C119 H139 0.930 . S
C120 N116 1.362 . S
C120 C117 1.431 . S
C120 C130 1.476 . S
H121 C115 0.929 . S
C122 O113 1.250 . S
C122 O114 1.258 1_565 S
O123 Mn108 2.162 . S
O123 C111 1.281 . S
O124 Mn108 2.297 1_545 S
O124 C111 1.236 1_545 S
N125 Mn109 2.282 . S
N125 C126 1.328 . S
N125 C130 1.318 . S
C126 N125 1.328 . S
C126 C127 1.457 . S
C126 H131 0.929 . S
C127 C126 1.457 . S
C127 C128 1.291 . S
C127 H140 0.931 . S
C128 C127 1.291 . S
C128 C129 1.373 . S
C128 H141 0.929 . S
C129 C128 1.373 . S
C129 C130 1.396 . S
C129 C136 1.403 . S
C130 C120 1.476 . S
C130 N125 1.318 . S
C130 C129 1.396 . S
H131 C126 0.929 . S
O132 Mn108 2.385 1_545 S
O132 C110 1.234 . S
O133 Mn108 2.209 1_545 S
O133 Mn109 2.215 . S
O133 C110 1.283 . S
O134 Mn108 2.094 . S
O134 C112 1.240 . S
O135 Mn109 2.117 1_565 S
O135 C112 1.264 . S
C136 C129 1.403 . S
C136 C137 1.399 . S
C136 H142 0.929 . S
C137 C117 1.449 . S
C137 C136 1.399 . S
C137 H143 0.930 . S
H138 C118 0.931 . S
H139 C119 0.930 . S
H140 C127 0.931 . S
H141 C128 0.929 . S
H142 C136 0.929 . S
H143 C137 0.930 . S
Mn144 O149 2.095 . S
Mn144 O159 2.162 . S
Mn144 O160 2.297 . S
Mn144 O168 2.385 . S
Mn144 O169 2.209 . S
Mn144 O170 2.094 . S
Mn145 O150 2.121 . S
Mn145 N152 2.257 . S
Mn145 N161 2.282 . S
Mn145 O169 2.215 . S
Mn145 O171 2.117 . S
C146 O168 1.234 . S
C146 O169 1.283 . S
C147 O159 1.281 . S
C147 O160 1.236 . S
C148 O170 1.240 . S
C148 O171 1.264 . S
O149 Mn144 2.095 . S
O149 C158 1.250 . S
O150 Mn145 2.121 . S
O150 C158 1.258 . S
C151 N152 1.326 . S
C151 C155 1.460 . S
C151 H157 0.929 . S
N152 Mn145 2.257 . S
N152 C151 1.326 . S
N152 C156 1.362 . S
C153 C154 1.258 . S
C153 C156 1.431 . S
C153 C173 1.449 . S
C154 C153 1.258 . S
C154 C155 1.477 . S
C154 H174 0.931 . S
C155 C151 1.460 . S
C155 C154 1.477 . S
C155 H175 0.930 . S
C156 N152 1.362 . S
C156 C153 1.431 . S
C156 C166 1.476 . S
H157 C151 0.929 . S
C158 O149 1.250 . S
C158 O150 1.258 . S
O159 Mn144 2.162 . S
O159 C147 1.281 . S
O160 Mn144 2.297 . S
O160 C147 1.236 . S
N161 Mn145 2.282 . S
N161 C162 1.328 . S
N161 C166 1.318 . S
C162 N161 1.328 . S
C162 C163 1.457 . S
C162 H167 0.929 . S
C163 C162 1.457 . S
C163 C164 1.291 . S
C163 H176 0.931 . S
C164 C163 1.291 . S
C164 C165 1.373 . S
C164 H177 0.929 . S
C165 C164 1.373 . S
C165 C166 1.396 . S
C165 C172 1.403 . S
C166 C156 1.476 . S
C166 N161 1.318 . S
C166 C165 1.396 . S
H167 C162 0.929 . S
O168 Mn144 2.385 . S
O168 C146 1.234 . S
O169 Mn144 2.209 . S
O169 Mn145 2.215 . S
O169 C146 1.283 . S
O170 Mn144 2.094 . S
O170 C148 1.240 . S
O171 Mn145 2.117 . S
O171 C148 1.264 . S
C172 C165 1.403 . S
C172 C173 1.399 . S
C172 H178 0.929 . S
C173 C153 1.449 . S
C173 C172 1.399 . S
C173 H179 0.930 . S
H174 C154 0.931 . S
H175 C155 0.930 . S
H176 C163 0.931 . S
H177 C164 0.929 . S
H178 C172 0.929 . S
H179 C173 0.930 . S
Mn180 O185 2.095 . S
Mn180 O195 2.162 1_556 S
Mn180 O196 2.297 1_456 S
Mn180 O204 2.385 1_455 S
Mn180 O205 2.209 1_455 S
Mn180 O206 2.094 . S
Mn181 O186 2.121 . S
Mn181 N188 2.257 . S
Mn181 N197 2.282 . S
Mn181 O205 2.215 . S
Mn181 O207 2.117 1_655 S
C182 O204 1.234 . S
C182 O205 1.283 . S
C183 O195 1.281 . S
C183 O196 1.236 1_455 S
C184 O206 1.240 . S
C184 O207 1.264 . S
O185 Mn180 2.095 . S
O185 C194 1.250 . S
O186 Mn181 2.121 . S
O186 C194 1.258 1_655 S
C187 N188 1.326 . S
C187 C191 1.460 . S
C187 H193 0.929 . S
N188 Mn181 2.257 . S
N188 C187 1.326 . S
N188 C192 1.362 . S
C189 C190 1.258 . S
C189 C192 1.431 . S
C189 C209 1.449 . S
C190 C189 1.258 . S
C190 C191 1.477 . S
C190 H210 0.931 . S
C191 C187 1.460 . S
C191 C190 1.477 . S
C191 H211 0.930 . S
C192 N188 1.362 . S
C192 C189 1.431 . S
C192 C202 1.476 . S
H193 C187 0.929 . S
C194 O185 1.250 . S
C194 O186 1.258 1_455 S
O195 Mn180 2.162 1_554 S
O195 C183 1.281 . S
O196 Mn180 2.297 1_654 S
O196 C183 1.236 1_655 S
N197 Mn181 2.282 . S
N197 C198 1.328 . S
N197 C202 1.318 . S
C198 N197 1.328 . S
C198 C199 1.457 . S
C198 H203 0.929 . S
C199 C198 1.457 . S
C199 C200 1.291 . S
C199 H212 0.931 . S
C200 C199 1.291 . S
C200 C201 1.373 . S
C200 H213 0.929 . S
C201 C200 1.373 . S
C201 C202 1.396 . S
C201 C208 1.403 . S
C202 C192 1.476 . S
C202 N197 1.318 . S
C202 C201 1.396 . S
H203 C198 0.929 . S
O204 Mn180 2.385 1_655 S
O204 C182 1.234 . S
O205 Mn180 2.209 1_655 S
O205 Mn181 2.215 . S
O205 C182 1.283 . S
O206 Mn180 2.094 . S
O206 C184 1.240 . S
O207 Mn181 2.117 1_455 S
O207 C184 1.264 . S
C208 C201 1.403 . S
C208 C209 1.399 . S
C208 H214 0.929 . S
C209 C189 1.449 . S
C209 C208 1.399 . S
C209 H215 0.930 . S
H210 C190 0.931 . S
H211 C191 0.930 . S
H212 C199 0.931 . S
H213 C200 0.929 . S
H214 C208 0.929 . S
H215 C209 0.930 . S
Mn216 O221 2.095 . S
Mn216 O231 2.162 . S
Mn216 O232 2.297 1_655 S
Mn216 O240 2.385 1_655 S
Mn216 O241 2.209 1_655 S
Mn216 O242 2.094 . S
Mn217 O222 2.121 . S
Mn217 N224 2.257 . S
Mn217 N233 2.282 . S
Mn217 O241 2.215 . S
Mn217 O243 2.117 1_455 S
C218 O240 1.234 . S
C218 O241 1.283 . S
C219 O231 1.281 . S
C219 O232 1.236 1_655 S
C220 O242 1.240 . S
C220 O243 1.264 . S
O221 Mn216 2.095 . S
O221 C230 1.250 . S
O222 Mn217 2.121 . S
O222 C230 1.258 1_455 S
C223 N224 1.326 . S
C223 C227 1.460 . S
C223 H229 0.929 . S
N224 Mn217 2.257 . S
N224 C223 1.326 . S
N224 C228 1.362 . S
C225 C226 1.258 . S
C225 C228 1.431 . S
C225 C245 1.449 . S
C226 C225 1.258 . S
C226 C227 1.477 . S
C226 H246 0.931 . S
C227 C223 1.460 . S
C227 C226 1.477 . S
C227 H247 0.930 . S
C228 N224 1.362 . S
C228 C225 1.431 . S
C228 C238 1.476 . S
H229 C223 0.929 . S
C230 O221 1.250 . S
C230 O222 1.258 1_655 S
O231 Mn216 2.162 . S
O231 C219 1.281 . S
O232 Mn216 2.297 1_455 S
O232 C219 1.236 1_455 S
N233 Mn217 2.282 . S
N233 C234 1.328 . S
N233 C238 1.318 . S
C234 N233 1.328 . S
C234 C235 1.457 . S
C234 H239 0.929 . S
C235 C234 1.457 . S
C235 C236 1.291 . S
C235 H248 0.931 . S
C236 C235 1.291 . S
C236 C237 1.373 . S
C236 H249 0.929 . S
C237 C236 1.373 . S
C237 C238 1.396 . S
C237 C244 1.403 . S
C238 C228 1.476 . S
C238 N233 1.318 . S
C238 C237 1.396 . S
H239 C234 0.929 . S
O240 Mn216 2.385 1_455 S
O240 C218 1.234 . S
O241 Mn216 2.209 1_455 S
O241 Mn217 2.215 . S
O241 C218 1.283 . S
O242 Mn216 2.094 . S
O242 C220 1.240 . S
O243 Mn217 2.117 1_655 S
O243 C220 1.264 . S
C244 C237 1.403 . S
C244 C245 1.399 . S
C244 H250 0.929 . S
C245 C225 1.449 . S
C245 C244 1.399 . S
C245 H251 0.930 . S
H246 C226 0.931 . S
H247 C227 0.930 . S
H248 C235 0.931 . S
H249 C236 0.929 . S
H250 C244 0.929 . S
H251 C245 0.930 . S
Mn252 O257 2.095 . S
Mn252 O267 2.162 . S
Mn252 O268 2.297 1_565 S
Mn252 O276 2.385 1_565 S
Mn252 O277 2.209 1_565 S
Mn252 O278 2.094 . S
Mn253 O258 2.121 . S
Mn253 N260 2.257 . S
Mn253 N269 2.282 . S
Mn253 O277 2.215 . S
Mn253 O279 2.117 1_545 S
C254 O276 1.234 . S
C254 O277 1.283 . S
C255 O267 1.281 . S
C255 O268 1.236 1_565 S
C256 O278 1.240 . S
C256 O279 1.264 . S
O257 Mn252 2.095 . S
O257 C266 1.250 . S
O258 Mn253 2.121 . S
O258 C266 1.258 1_545 S
C259 N260 1.326 . S
C259 C263 1.460 . S
C259 H265 0.929 . S
N260 Mn253 2.257 . S
N260 C259 1.326 . S
N260 C264 1.362 . S
C261 C262 1.258 . S
C261 C264 1.431 . S
C261 C281 1.449 . S
C262 C261 1.258 . S
C262 C263 1.477 . S
C262 H282 0.931 . S
C263 C259 1.460 . S
C263 C262 1.477 . S
C263 H283 0.930 . S
C264 N260 1.362 . S
C264 C261 1.431 . S
C264 C274 1.476 . S
H265 C259 0.929 . S
C266 O257 1.250 . S
C266 O258 1.258 1_565 S
O267 Mn252 2.162 . S
O267 C255 1.281 . S
O268 Mn252 2.297 1_545 S
O268 C255 1.236 1_545 S
N269 Mn253 2.282 . S
N269 C270 1.328 . S
N269 C274 1.318 . S
C270 N269 1.328 . S
C270 C271 1.457 . S
C270 H275 0.929 . S
C271 C270 1.457 . S
C271 C272 1.291 . S
C271 H284 0.931 . S
C272 C271 1.291 . S
C272 C273 1.373 . S
C272 H285 0.929 . S
C273 C272 1.373 . S
C273 C274 1.396 . S
C273 C280 1.403 . S
C274 C264 1.476 . S
C274 N269 1.318 . S
C274 C273 1.396 . S
H275 C270 0.929 . S
O276 Mn252 2.385 1_545 S
O276 C254 1.234 . S
O277 Mn252 2.209 1_545 S
O277 Mn253 2.215 . S
O277 C254 1.283 . S
O278 Mn252 2.094 . S
O278 C256 1.240 . S
O279 Mn253 2.117 1_565 S
O279 C256 1.264 . S
C280 C273 1.403 . S
C280 C281 1.399 . S
C280 H286 0.929 . S
C281 C261 1.449 . S
C281 C280 1.399 . S
C281 H287 0.930 . S
H282 C262 0.931 . S
H283 C263 0.930 . S
H284 C271 0.931 . S
H285 C272 0.929 . S
H286 C280 0.929 . S
H287 C281 0.930 . S
Mn288 O293 2.095 . S
Mn288 O303 2.162 1_554 S
Mn288 O304 2.297 1_554 S
Mn288 O312 2.385 . S
Mn288 O313 2.209 . S
Mn288 O314 2.094 . S
Mn289 O294 2.121 . S
Mn289 N296 2.257 . S
Mn289 N305 2.282 . S
Mn289 O313 2.215 . S
Mn289 O315 2.117 . S
C290 O312 1.234 . S
C290 O313 1.283 . S
C291 O303 1.281 . S
C291 O304 1.236 . S
C292 O314 1.240 . S
C292 O315 1.264 . S
O293 Mn288 2.095 . S
O293 C302 1.250 . S
O294 Mn289 2.121 . S
O294 C302 1.258 . S
C295 N296 1.326 . S
C295 C299 1.460 . S
C295 H301 0.929 . S
N296 Mn289 2.257 . S
N296 C295 1.326 . S
N296 C300 1.362 . S
C297 C298 1.258 . S
C297 C300 1.431 . S
C297 C317 1.449 . S
C298 C297 1.258 . S
C298 C299 1.477 . S
C298 H318 0.931 . S
C299 C295 1.460 . S
C299 C298 1.477 . S
C299 H319 0.930 . S
C300 N296 1.362 . S
C300 C297 1.431 . S
C300 C310 1.476 . S
H301 C295 0.929 . S
C302 O293 1.250 . S
C302 O294 1.258 . S
O303 Mn288 2.162 1_556 S
O303 C291 1.281 . S
O304 Mn288 2.297 1_556 S
O304 C291 1.236 . S
N305 Mn289 2.282 . S
N305 C306 1.328 . S
N305 C310 1.318 . S
C306 N305 1.328 . S
C306 C307 1.457 . S
C306 H311 0.929 . S
C307 C306 1.457 . S
C307 C308 1.291 . S
C307 H320 0.931 . S
C308 C307 1.291 . S
C308 C309 1.373 . S
C308 H321 0.929 . S
C309 C308 1.373 . S
C309 C310 1.396 . S
C309 C316 1.403 . S
C310 C300 1.476 . S
C310 N305 1.318 . S
C310 C309 1.396 . S
H311 C306 0.929 . S
O312 Mn288 2.385 . S
O312 C290 1.234 . S
O313 Mn288 2.209 . S
O313 Mn289 2.215 . S
O313 C290 1.283 . S
O314 Mn288 2.094 . S
O314 C292 1.240 . S
O315 Mn289 2.117 . S
O315 C292 1.264 . S
C316 C309 1.403 . S
C316 C317 1.399 . S
C316 H322 0.929 . S
C317 C297 1.449 . S
C317 C316 1.399 . S
C317 H323 0.930 . S
H318 C298 0.931 . S
H319 C299 0.930 . S
H320 C307 0.931 . S
H321 C308 0.929 . S
H322 C316 0.929 . S
H323 C317 0.930 . S
Mn324 O329 2.095 . S
Mn324 O339 2.162 . S
Mn324 O340 2.297 1_455 S
Mn324 O348 2.385 1_455 S
Mn324 O349 2.209 1_455 S
Mn324 O350 2.094 . S
Mn325 O330 2.121 . S
Mn325 N332 2.257 . S
Mn325 N341 2.282 . S
Mn325 O349 2.215 . S
Mn325 O351 2.117 1_655 S
C326 O348 1.234 . S
C326 O349 1.283 . S
C327 O339 1.281 . S
C327 O340 1.236 1_455 S
C328 O350 1.240 . S
C328 O351 1.264 . S
O329 Mn324 2.095 . S
O329 C338 1.250 . S
O330 Mn325 2.121 . S
O330 C338 1.258 1_655 S
C331 N332 1.326 . S
C331 C335 1.460 . S
C331 H337 0.929 . S
N332 Mn325 2.257 . S
N332 C331 1.326 . S
N332 C336 1.362 . S
C333 C334 1.258 . S
C333 C336 1.431 . S
C333 C353 1.449 . S
C334 C333 1.258 . S
C334 C335 1.477 . S
C334 H354 0.931 . S
C335 C331 1.460 . S
C335 C334 1.477 . S
C335 H355 0.930 . S
C336 N332 1.362 . S
C336 C333 1.431 . S
C336 C346 1.476 . S
H337 C331 0.929 . S
C338 O329 1.250 . S
C338 O330 1.258 1_455 S
O339 Mn324 2.162 . S
O339 C327 1.281 . S
O340 Mn324 2.297 1_655 S
O340 C327 1.236 1_655 S
N341 Mn325 2.282 . S
N341 C342 1.328 . S
N341 C346 1.318 . S
C342 N341 1.328 . S
C342 C343 1.457 . S
C342 H347 0.929 . S
C343 C342 1.457 . S
C343 C344 1.291 . S
C343 H356 0.931 . S
C344 C343 1.291 . S
C344 C345 1.373 . S
C344 H357 0.929 . S
C345 C344 1.373 . S
C345 C346 1.396 . S
C345 C352 1.403 . S
C346 C336 1.476 . S
C346 N341 1.318 . S
C346 C345 1.396 . S
H347 C342 0.929 . S
O348 Mn324 2.385 1_655 S
O348 C326 1.234 . S
O349 Mn324 2.209 1_655 S
O349 Mn325 2.215 . S
O349 C326 1.283 . S
O350 Mn324 2.094 . S
O350 C328 1.240 . S
O351 Mn325 2.117 1_455 S
O351 C328 1.264 . S
C352 C345 1.403 . S
C352 C353 1.399 . S
C352 H358 0.929 . S
C353 C333 1.449 . S
C353 C352 1.399 . S
C353 H359 0.930 . S
H354 C334 0.931 . S
H355 C335 0.930 . S
H356 C343 0.931 . S
H357 C344 0.929 . S
H358 C352 0.929 . S
H359 C353 0.930 . S
Mn360 O365 2.095 . S
Mn360 O375 2.162 . S
Mn360 O376 2.297 1_545 S
Mn360 O384 2.385 1_545 S
Mn360 O385 2.209 1_545 S
Mn360 O386 2.094 . S
Mn361 O366 2.121 . S
Mn361 N368 2.257 . S
Mn361 N377 2.282 . S
Mn361 O385 2.215 . S
Mn361 O387 2.117 1_565 S
C362 O384 1.234 . S
C362 O385 1.283 . S
C363 O375 1.281 . S
C363 O376 1.236 1_545 S
C364 O386 1.240 . S
C364 O387 1.264 . S
O365 Mn360 2.095 . S
O365 C374 1.250 . S
O366 Mn361 2.121 . S
O366 C374 1.258 1_565 S
C367 N368 1.326 . S
C367 C371 1.460 . S
C367 H373 0.929 . S
N368 Mn361 2.257 . S
N368 C367 1.326 . S
N368 C372 1.362 . S
C369 C370 1.258 . S
C369 C372 1.431 . S
C369 C389 1.449 . S
C370 C369 1.258 . S
C370 C371 1.477 . S
C370 H390 0.931 . S
C371 C367 1.460 . S
C371 C370 1.477 . S
C371 H391 0.930 . S
C372 N368 1.362 . S
C372 C369 1.431 . S
C372 C382 1.476 . S
H373 C367 0.929 . S
C374 O365 1.250 . S
C374 O366 1.258 1_545 S
O375 Mn360 2.162 . S
O375 C363 1.281 . S
O376 Mn360 2.297 1_565 S
O376 C363 1.236 1_565 S
N377 Mn361 2.282 . S
N377 C378 1.328 . S
N377 C382 1.318 . S
C378 N377 1.328 . S
C378 C379 1.457 . S
C378 H383 0.929 . S
C379 C378 1.457 . S
C379 C380 1.291 . S
C379 H392 0.931 . S
C380 C379 1.291 . S
C380 C381 1.373 . S
C380 H393 0.929 . S
C381 C380 1.373 . S
C381 C382 1.396 . S
C381 C388 1.403 . S
C382 C372 1.476 . S
C382 N377 1.318 . S
C382 C381 1.396 . S
H383 C378 0.929 . S
O384 Mn360 2.385 1_565 S
O384 C362 1.234 . S
O385 Mn360 2.209 1_565 S
O385 Mn361 2.215 . S
O385 C362 1.283 . S
O386 Mn360 2.094 . S
O386 C364 1.240 . S
O387 Mn361 2.117 1_545 S
O387 C364 1.264 . S
C388 C381 1.403 . S
C388 C389 1.399 . S
C388 H394 0.929 . S
C389 C369 1.449 . S
C389 C388 1.399 . S
C389 H395 0.930 . S
H390 C370 0.931 . S
H391 C371 0.930 . S
H392 C379 0.931 . S
H393 C380 0.929 . S
H394 C388 0.929 . S
H395 C389 0.930 . S
Mn396 O401 2.095 . S
Mn396 O411 2.162 1_554 S
Mn396 O412 2.297 1_554 S
Mn396 O420 2.385 . S
Mn396 O421 2.209 . S
Mn396 O422 2.094 . S
Mn397 O402 2.121 . S
Mn397 N404 2.257 . S
Mn397 N413 2.282 . S
Mn397 O421 2.215 . S
Mn397 O423 2.117 . S
C398 O420 1.234 . S
C398 O421 1.283 . S
C399 O411 1.281 . S
C399 O412 1.236 . S
C400 O422 1.240 . S
C400 O423 1.264 . S
O401 Mn396 2.095 . S
O401 C410 1.250 . S
O402 Mn397 2.121 . S
O402 C410 1.258 . S
C403 N404 1.326 . S
C403 C407 1.460 . S
C403 H409 0.929 . S
N404 Mn397 2.257 . S
N404 C403 1.326 . S
N404 C408 1.362 . S
C405 C406 1.258 . S
C405 C408 1.431 . S
C405 C425 1.449 . S
C406 C405 1.258 . S
C406 C407 1.477 . S
C406 H426 0.931 . S
C407 C403 1.460 . S
C407 C406 1.477 . S
C407 H427 0.930 . S
C408 N404 1.362 . S
C408 C405 1.431 . S
C408 C418 1.476 . S
H409 C403 0.929 . S
C410 O401 1.250 . S
C410 O402 1.258 . S
O411 Mn396 2.162 1_556 S
O411 C399 1.281 . S
O412 Mn396 2.297 1_556 S
O412 C399 1.236 . S
N413 Mn397 2.282 . S
N413 C414 1.328 . S
N413 C418 1.318 . S
C414 N413 1.328 . S
C414 C415 1.457 . S
C414 H419 0.929 . S
C415 C414 1.457 . S
C415 C416 1.291 . S
C415 H428 0.931 . S
C416 C415 1.291 . S
C416 C417 1.373 . S
C416 H429 0.929 . S
C417 C416 1.373 . S
C417 C418 1.396 . S
C417 C424 1.403 . S
C418 C408 1.476 . S
C418 N413 1.318 . S
C418 C417 1.396 . S
H419 C414 0.929 . S
O420 Mn396 2.385 . S
O420 C398 1.234 . S
O421 Mn396 2.209 . S
O421 Mn397 2.215 . S
O421 C398 1.283 . S
O422 Mn396 2.094 . S
O422 C400 1.240 . S
O423 Mn397 2.117 . S
O423 C400 1.264 . S
C424 C417 1.403 . S
C424 C425 1.399 . S
C424 H430 0.929 . S
C425 C405 1.449 . S
C425 C424 1.399 . S
C425 H431 0.930 . S
H426 C406 0.931 . S
H427 C407 0.930 . S
H428 C415 0.931 . S
H429 C416 0.929 . S
H430 C424 0.929 . S
H431 C425 0.930 . S
C432 C433 1.391 . S
C432 C434 1.394 . S
C432 H448 0.931 . S
C433 C432 1.391 . S
C433 C437 1.376 . S
C434 C432 1.394 . S
C434 C435 1.369 . S
C434 C438 1.531 . S
C435 C434 1.369 . S
C435 C436 1.410 . S
C435 C443 1.503 . S
C436 C435 1.410 . S
C436 C437 1.392 . S
C436 C439 1.511 . S
C437 C433 1.376 . S
C437 C436 1.392 . S
C437 H449 0.929 . S
C438 C434 1.531 . S
C438 H450 0.960 . S
C438 H451 0.962 . S
C438 H452 0.960 . S
C439 C436 1.511 . S
C439 H453 0.961 . S
C439 H454 0.961 . S
C439 H455 0.961 . S
C440 C441 1.370 . S
C440 C442 1.363 . S
C440 H456 0.931 . S
C441 C440 1.370 . S
C441 C445 1.408 . S
C442 C440 1.363 . S
C442 C443 1.370 . S
C442 C446 1.524 . S
C443 C435 1.503 . S
C443 C442 1.370 . S
C443 C444 1.403 . S
C444 C443 1.403 . S
C444 C445 1.404 . S
C444 C447 1.539 . S
C445 C441 1.408 . S
C445 C444 1.404 . S
C445 H457 0.930 . S
C446 C442 1.524 . S
C446 H458 0.956 . S
C446 H459 0.961 . S
C446 H460 0.961 . S
C447 C444 1.539 . S
C447 H461 0.958 . S
C447 H462 0.961 . S
C447 H463 0.960 . S
H448 C432 0.931 . S
H449 C437 0.929 . S
H450 C438 0.960 . S
H451 C438 0.962 . S
H452 C438 0.960 . S
H453 C439 0.961 . S
H454 C439 0.961 . S
H455 C439 0.961 . S
H456 C440 0.931 . S
H457 C445 0.930 . S
H458 C446 0.956 . S
H459 C446 0.961 . S
H460 C446 0.961 . S
H461 C447 0.958 . S
H462 C447 0.961 . S
H463 C447 0.960 . S
C464 C465 1.391 . S
C464 C466 1.394 . S
C464 H480 0.931 . S
C465 C464 1.391 . S
C465 C469 1.376 . S
C466 C464 1.394 . S
C466 C467 1.369 . S
C466 C470 1.531 . S
C467 C466 1.369 . S
C467 C468 1.410 . S
C467 C475 1.503 . S
C468 C467 1.410 . S
C468 C469 1.392 . S
C468 C471 1.511 . S
C469 C465 1.376 . S
C469 C468 1.392 . S
C469 H481 0.929 . S
C470 C466 1.531 . S
C470 H482 0.960 . S
C470 H483 0.962 . S
C470 H484 0.960 . S
C471 C468 1.511 . S
C471 H485 0.961 . S
C471 H486 0.961 . S
C471 H487 0.961 . S
C472 C473 1.370 . S
C472 C474 1.363 . S
C472 H488 0.931 . S
C473 C472 1.370 . S
C473 C477 1.408 . S
C474 C472 1.363 . S
C474 C475 1.370 . S
C474 C478 1.524 . S
C475 C467 1.503 . S
C475 C474 1.370 . S
C475 C476 1.403 . S
C476 C475 1.403 . S
C476 C477 1.404 . S
C476 C479 1.539 . S
C477 C473 1.408 . S
C477 C476 1.404 . S
C477 H489 0.930 . S
C478 C474 1.524 . S
C478 H490 0.956 . S
C478 H491 0.961 . S
C478 H492 0.961 . S
C479 C476 1.539 . S
C479 H493 0.958 . S
C479 H494 0.961 . S
C479 H495 0.960 . S
H480 C464 0.931 . S
H481 C469 0.929 . S
H482 C470 0.960 . S
H483 C470 0.962 . S
H484 C470 0.960 . S
H485 C471 0.961 . S
H486 C471 0.961 . S
H487 C471 0.961 . S
H488 C472 0.931 . S
H489 C477 0.930 . S
H490 C478 0.956 . S
H491 C478 0.961 . S
H492 C478 0.961 . S
H493 C479 0.958 . S
H494 C479 0.961 . S
H495 C479 0.960 . S
C496 C497 1.391 . S
C496 C498 1.394 . S
C496 H512 0.931 . S
C497 C496 1.391 . S
C497 C501 1.376 . S
C498 C496 1.394 . S
C498 C499 1.369 . S
C498 C502 1.531 . S
C499 C498 1.369 . S
C499 C500 1.410 . S
C499 C507 1.503 . S
C500 C499 1.410 . S
C500 C501 1.392 . S
C500 C503 1.511 . S
C501 C497 1.376 . S
C501 C500 1.392 . S
C501 H513 0.929 . S
C502 C498 1.531 . S
C502 H514 0.960 . S
C502 H515 0.962 . S
C502 H516 0.960 . S
C503 C500 1.511 . S
C503 H517 0.961 . S
C503 H518 0.961 . S
C503 H519 0.961 . S
C504 C505 1.370 . S
C504 C506 1.363 . S
C504 H520 0.931 . S
C505 C504 1.370 . S
C505 C509 1.408 . S
C506 C504 1.363 . S
C506 C507 1.370 . S
C506 C510 1.524 . S
C507 C499 1.503 . S
C507 C506 1.370 . S
C507 C508 1.403 . S
C508 C507 1.403 . S
C508 C509 1.404 . S
C508 C511 1.539 . S
C509 C505 1.408 . S
C509 C508 1.404 . S
C509 H521 0.930 . S
C510 C506 1.524 . S
C510 H522 0.956 . S
C510 H523 0.961 . S
C510 H524 0.961 . S
C511 C508 1.539 . S
C511 H525 0.958 . S
C511 H526 0.961 . S
C511 H527 0.960 . S
H512 C496 0.931 . S
H513 C501 0.929 . S
H514 C502 0.960 . S
H515 C502 0.962 . S
H516 C502 0.960 . S
H517 C503 0.961 . S
H518 C503 0.961 . S
H519 C503 0.961 . S
H520 C504 0.931 . S
H521 C509 0.930 . S
H522 C510 0.956 . S
H523 C510 0.961 . S
H524 C510 0.961 . S
H525 C511 0.958 . S
H526 C511 0.961 . S
H527 C511 0.960 . S
C528 C529 1.391 . S
C528 C530 1.394 . S
C528 H544 0.931 . S
C529 C528 1.391 . S
C529 C533 1.376 . S
C530 C528 1.394 . S
C530 C531 1.369 . S
C530 C534 1.531 . S
C531 C530 1.369 . S
C531 C532 1.410 . S
C531 C539 1.503 . S
C532 C531 1.410 . S
C532 C533 1.392 . S
C532 C535 1.511 . S
C533 C529 1.376 . S
C533 C532 1.392 . S
C533 H545 0.929 . S
C534 C530 1.531 . S
C534 H546 0.960 . S
C534 H547 0.962 . S
C534 H548 0.960 . S
C535 C532 1.511 . S
C535 H549 0.961 . S
C535 H550 0.961 . S
C535 H551 0.961 . S
C536 C537 1.370 . S
C536 C538 1.363 . S
C536 H552 0.931 . S
C537 C536 1.370 . S
C537 C541 1.408 . S
C538 C536 1.363 . S
C538 C539 1.370 . S
C538 C542 1.524 . S
C539 C531 1.503 . S
C539 C538 1.370 . S
C539 C540 1.403 . S
C540 C539 1.403 . S
C540 C541 1.404 . S
C540 C543 1.539 . S
C541 C537 1.408 . S
C541 C540 1.404 . S
C541 H553 0.930 . S
C542 C538 1.524 . S
C542 H554 0.956 . S
C542 H555 0.961 . S
C542 H556 0.961 . S
C543 C540 1.539 . S
C543 H557 0.958 . S
C543 H558 0.961 . S
C543 H559 0.960 . S
H544 C528 0.931 . S
H545 C533 0.929 . S
H546 C534 0.960 . S
H547 C534 0.962 . S
H548 C534 0.960 . S
H549 C535 0.961 . S
H550 C535 0.961 . S
H551 C535 0.961 . S
H552 C536 0.931 . S
H553 C541 0.930 . S
H554 C542 0.956 . S
H555 C542 0.961 . S
H556 C542 0.961 . S
H557 C543 0.958 . S
H558 C543 0.961 . S
H559 C543 0.960 . S
C560 C561 1.391 . S
C560 C562 1.394 . S
C560 H576 0.931 . S
C561 C560 1.391 . S
C561 C565 1.376 . S
C562 C560 1.394 . S
C562 C563 1.369 . S
C562 C566 1.531 . S
C563 C562 1.369 . S
C563 C564 1.410 . S
C563 C571 1.503 . S
C564 C563 1.410 . S
C564 C565 1.392 . S
C564 C567 1.511 . S
C565 C561 1.376 . S
C565 C564 1.392 . S
C565 H577 0.929 . S
C566 C562 1.531 . S
C566 H578 0.960 . S
C566 H579 0.962 . S
C566 H580 0.960 . S
C567 C564 1.511 . S
C567 H581 0.961 . S
C567 H582 0.961 . S
C567 H583 0.961 . S
C568 C569 1.370 . S
C568 C570 1.363 . S
C568 H584 0.931 . S
C569 C568 1.370 . S
C569 C573 1.408 . S
C570 C568 1.363 . S
C570 C571 1.370 . S
C570 C574 1.524 . S
C571 C563 1.503 . S
C571 C570 1.370 . S
C571 C572 1.403 . S
C572 C571 1.403 . S
C572 C573 1.404 . S
C572 C575 1.539 . S
C573 C569 1.408 . S
C573 C572 1.404 . S
C573 H585 0.930 . S
C574 C570 1.524 . S
C574 H586 0.956 . S
C574 H587 0.961 . S
C574 H588 0.961 . S
C575 C572 1.539 . S
C575 H589 0.958 . S
C575 H590 0.961 . S
C575 H591 0.960 . S
H576 C560 0.931 . S
H577 C565 0.929 . S
H578 C566 0.960 . S
H579 C566 0.962 . S
H580 C566 0.960 . S
H581 C567 0.961 . S
H582 C567 0.961 . S
H583 C567 0.961 . S
H584 C568 0.931 . S
H585 C573 0.930 . S
H586 C574 0.956 . S
H587 C574 0.961 . S
H588 C574 0.961 . S
H589 C575 0.958 . S
H590 C575 0.961 . S
H591 C575 0.960 . S
C592 C593 1.391 . S
C592 C594 1.394 . S
C592 H608 0.931 . S
C593 C592 1.391 . S
C593 C597 1.376 . S
C594 C592 1.394 . S
C594 C595 1.369 . S
C594 C598 1.531 . S
C595 C594 1.369 . S
C595 C596 1.410 . S
C595 C603 1.503 . S
C596 C595 1.410 . S
C596 C597 1.392 . S
C596 C599 1.511 . S
C597 C593 1.376 . S
C597 C596 1.392 . S
C597 H609 0.929 . S
C598 C594 1.531 . S
C598 H610 0.960 . S
C598 H611 0.962 . S
C598 H612 0.960 . S
C599 C596 1.511 . S
C599 H613 0.961 . S
C599 H614 0.961 . S
C599 H615 0.961 . S
C600 C601 1.370 . S
C600 C602 1.363 . S
C600 H616 0.931 . S
C601 C600 1.370 . S
C601 C605 1.408 . S
C602 C600 1.363 . S
C602 C603 1.370 . S
C602 C606 1.524 . S
C603 C595 1.503 . S
C603 C602 1.370 . S
C603 C604 1.403 . S
C604 C603 1.403 . S
C604 C605 1.404 . S
C604 C607 1.539 . S
C605 C601 1.408 . S
C605 C604 1.404 . S
C605 H617 0.930 . S
C606 C602 1.524 . S
C606 H618 0.956 . S
C606 H619 0.961 . S
C606 H620 0.961 . S
C607 C604 1.539 . S
C607 H621 0.958 . S
C607 H622 0.961 . S
C607 H623 0.960 . S
H608 C592 0.931 . S
H609 C597 0.929 . S
H610 C598 0.960 . S
H611 C598 0.962 . S
H612 C598 0.960 . S
H613 C599 0.961 . S
H614 C599 0.961 . S
H615 C599 0.961 . S
H616 C600 0.931 . S
H617 C605 0.930 . S
H618 C606 0.956 . S
H619 C606 0.961 . S
H620 C606 0.961 . S
H621 C607 0.958 . S
H622 C607 0.961 . S
H623 C607 0.960 . S
C624 C625 1.391 1_565 S
C624 C626 1.394 . S
C624 H640 0.931 . S
C625 C624 1.391 1_545 S
C625 C629 1.376 . S
C626 C624 1.394 . S
C626 C627 1.369 . S
C626 C630 1.531 . S
C627 C626 1.369 . S
C627 C628 1.410 1_565 S
C627 C635 1.503 . S
C628 C627 1.410 1_545 S
C628 C629 1.392 . S
C628 C631 1.511 . S
C629 C625 1.376 . S
C629 C628 1.392 . S
C629 H641 0.929 . S
C630 C626 1.531 . S
C630 H642 0.960 . S
C630 H643 0.962 . S
C630 H644 0.960 . S
C631 C628 1.511 . S
C631 H645 0.961 . S
C631 H646 0.961 . S
C631 H647 0.961 1_545 S
C632 C633 1.370 1_545 S
C632 C634 1.363 . S
C632 H648 0.931 . S
C633 C632 1.370 1_565 S
C633 C637 1.408 . S
C634 C632 1.363 . S
C634 C635 1.370 1_545 S
C634 C638 1.524 . S
C635 C627 1.503 . S
C635 C634 1.370 1_565 S
C635 C636 1.403 . S
C636 C635 1.403 . S
C636 C637 1.404 . S
C636 C639 1.539 . S
C637 C633 1.408 . S
C637 C636 1.404 . S
C637 H649 0.930 . S
C638 C634 1.524 . S
C638 H650 0.956 . S
C638 H651 0.961 . S
C638 H652 0.961 . S
C639 C636 1.539 . S
C639 H653 0.958 . S
C639 H654 0.961 . S
C639 H655 0.960 . S
H640 C624 0.931 . S
H641 C629 0.929 . S
H642 C630 0.960 . S
H643 C630 0.962 . S
H644 C630 0.960 . S
H645 C631 0.961 . S
H646 C631 0.961 . S
H647 C631 0.961 1_565 S
H648 C632 0.931 . S
H649 C637 0.930 . S
H650 C638 0.956 . S
H651 C638 0.961 . S
H652 C638 0.961 . S
H653 C639 0.958 . S
H654 C639 0.961 . S
H655 C639 0.960 . S
C656 C657 1.391 . S
C656 C658 1.394 . S
C656 H672 0.931 . S
C657 C656 1.391 . S
C657 C661 1.376 . S
C658 C656 1.394 . S
C658 C659 1.369 . S
C658 C662 1.531 . S
C659 C658 1.369 . S
C659 C660 1.410 . S
C659 C667 1.503 . S
C660 C659 1.410 . S
C660 C661 1.392 . S
C660 C663 1.511 . S
C661 C657 1.376 . S
C661 C660 1.392 . S
C661 H673 0.929 . S
C662 C658 1.531 . S
C662 H674 0.960 . S
C662 H675 0.962 . S
C662 H676 0.960 . S
C663 C660 1.511 . S
C663 H677 0.961 . S
C663 H678 0.961 . S
C663 H679 0.961 . S
C664 C665 1.370 . S
C664 C666 1.363 . S
C664 H680 0.931 . S
C665 C664 1.370 . S
C665 C669 1.408 . S
C666 C664 1.363 . S
C666 C667 1.370 . S
C666 C670 1.524 . S
C667 C659 1.503 . S
C667 C666 1.370 . S
C667 C668 1.403 . S
C668 C667 1.403 . S
C668 C669 1.404 . S
C668 C671 1.539 . S
C669 C665 1.408 . S
C669 C668 1.404 . S
C669 H681 0.930 . S
C670 C666 1.524 . S
C670 H682 0.956 . S
C670 H683 0.961 . S
C670 H684 0.961 . S
C671 C668 1.539 . S
C671 H685 0.958 . S
C671 H686 0.961 . S
C671 H687 0.960 . S
H672 C656 0.931 . S
H673 C661 0.929 . S
H674 C662 0.960 . S
H675 C662 0.962 . S
H676 C662 0.960 . S
H677 C663 0.961 . S
H678 C663 0.961 . S
H679 C663 0.961 . S
H680 C664 0.931 . S
H681 C669 0.930 . S
H682 C670 0.956 . S
H683 C670 0.961 . S
H684 C670 0.961 . S
H685 C671 0.958 . S
H686 C671 0.961 . S
H687 C671 0.960 . S
C688 C689 1.391 . S
C688 C690 1.394 . S
C688 H704 0.931 1_556 S
C689 C688 1.391 . S
C689 C693 1.376 1_455 S
C690 C688 1.394 . S
C690 C691 1.369 1_455 S
C690 C694 1.531 1_556 S
C691 C690 1.369 1_655 S
C691 C692 1.410 . S
C691 C699 1.503 . S
C692 C691 1.410 . S
C692 C693 1.392 . S
C692 C695 1.511 . S
C693 C689 1.376 1_655 S
C693 C692 1.392 . S
C693 H705 0.929 . S
C694 C690 1.531 1_554 S
C694 H706 0.960 . S
C694 H707 0.962 . S
C694 H708 0.960 . S
C695 C692 1.511 . S
C695 H709 0.961 . S
C695 H710 0.961 . S
C695 H711 0.961 . S
C696 C697 1.370 1_455 S
C696 C698 1.363 . S
C696 H712 0.931 . S
C697 C696 1.370 1_655 S
C697 C701 1.408 . S
C698 C696 1.363 . S
C698 C699 1.370 1_455 S
C698 C702 1.524 . S
C699 C691 1.503 . S
C699 C698 1.370 1_655 S
C699 C700 1.403 . S
C700 C699 1.403 . S
C700 C701 1.404 . S
C700 C703 1.539 1_556 S
C701 C697 1.408 . S
C701 C700 1.404 . S
C701 H713 0.930 . S
C702 C698 1.524 . S
C702 H714 0.956 . S
C702 H715 0.961 . S
C702 H716 0.961 . S
C703 C700 1.539 1_554 S
C703 H717 0.958 . S
C703 H718 0.961 . S
C703 H719 0.960 1_554 S
H704 C688 0.931 1_554 S
H705 C693 0.929 . S
H706 C694 0.960 . S
H707 C694 0.962 . S
H708 C694 0.960 . S
H709 C695 0.961 . S
H710 C695 0.961 . S
H711 C695 0.961 . S
H712 C696 0.931 . S
H713 C701 0.930 . S
H714 C702 0.956 . S
H715 C702 0.961 . S
H716 C702 0.961 . S
H717 C703 0.958 . S
H718 C703 0.961 . S
H719 C703 0.960 1_556 S
C720 C721 1.391 1_455 S
C720 C722 1.394 . S
C720 H736 0.931 . S
C721 C720 1.391 1_655 S
C721 C725 1.376 . S
C722 C720 1.394 . S
C722 C723 1.369 1_455 S
C722 C726 1.531 . S
C723 C722 1.369 1_655 S
C723 C724 1.410 . S
C723 C731 1.503 . S
C724 C723 1.410 . S
C724 C725 1.392 . S
C724 C727 1.511 . S
C725 C721 1.376 . S
C725 C724 1.392 . S
C725 H737 0.929 . S
C726 C722 1.531 . S
C726 H738 0.960 . S
C726 H739 0.962 . S
C726 H740 0.960 . S
C727 C724 1.511 . S
C727 H741 0.961 . S
C727 H742 0.961 . S
C727 H743 0.961 . S
C728 C729 1.370 . S
C728 C730 1.363 . S
C728 H744 0.931 . S
C729 C728 1.370 . S
C729 C733 1.408 1_455 S
C730 C728 1.363 . S
C730 C731 1.370 1_455 S
C730 C734 1.524 . S
C731 C723 1.503 . S
C731 C730 1.370 1_655 S
C731 C732 1.403 . S
C732 C731 1.403 . S
C732 C733 1.404 . S
C732 C735 1.539 . S
C733 C729 1.408 1_655 S
C733 C732 1.404 . S
C733 H745 0.930 . S
C734 C730 1.524 . S
C734 H746 0.956 . S
C734 H747 0.961 . S
C734 H748 0.961 . S
C735 C732 1.539 . S
C735 H749 0.958 . S
C735 H750 0.961 . S
C735 H751 0.960 . S
H736 C720 0.931 . S
H737 C725 0.929 . S
H738 C726 0.960 . S
H739 C726 0.962 . S
H740 C726 0.960 . S
H741 C727 0.961 . S
H742 C727 0.961 . S
H743 C727 0.961 . S
H744 C728 0.931 . S
H745 C733 0.930 . S
H746 C734 0.956 . S
H747 C734 0.961 . S
H748 C734 0.961 . S
H749 C735 0.958 . S
H750 C735 0.961 . S
H751 C735 0.960 . S
C752 C753 1.391 1_565 S
C752 C754 1.394 . S
C752 H768 0.931 . S
C753 C752 1.391 1_545 S
C753 C757 1.376 . S
C754 C752 1.394 . S
C754 C755 1.369 1_565 S
C754 C758 1.531 . S
C755 C754 1.369 1_545 S
C755 C756 1.410 . S
C755 C763 1.503 . S
C756 C755 1.410 . S
C756 C757 1.392 . S
C756 C759 1.511 . S
C757 C753 1.376 . S
C757 C756 1.392 . S
C757 H769 0.929 . S
C758 C754 1.531 . S
C758 H770 0.960 . S
C758 H771 0.962 . S
C758 H772 0.960 . S
C759 C756 1.511 . S
C759 H773 0.961 . S
C759 H774 0.961 . S
C759 H775 0.961 . S
C760 C761 1.370 . S
C760 C762 1.363 . S
C760 H776 0.931 . S
C761 C760 1.370 . S
C761 C765 1.408 1_565 S
C762 C760 1.363 . S
C762 C763 1.370 1_565 S
C762 C766 1.524 . S
C763 C755 1.503 . S
C763 C762 1.370 1_545 S
C763 C764 1.403 . S
C764 C763 1.403 . S
C764 C765 1.404 . S
C764 C767 1.539 . S
C765 C761 1.408 1_545 S
C765 C764 1.404 . S
C765 H777 0.930 . S
C766 C762 1.524 . S
C766 H778 0.956 . S
C766 H779 0.961 . S
C766 H780 0.961 . S
C767 C764 1.539 . S
C767 H781 0.958 . S
C767 H782 0.961 . S
C767 H783 0.960 . S
H768 C752 0.931 . S
H769 C757 0.929 . S
H770 C758 0.960 . S
H771 C758 0.962 . S
H772 C758 0.960 . S
H773 C759 0.961 . S
H774 C759 0.961 . S
H775 C759 0.961 . S
H776 C760 0.931 . S
H777 C765 0.930 . S
H778 C766 0.956 . S
H779 C766 0.961 . S
H780 C766 0.961 . S
H781 C767 0.958 . S
H782 C767 0.961 . S
H783 C767 0.960 . S
C784 C785 1.391 . S
C784 C786 1.394 . S
C784 H800 0.931 . S
C785 C784 1.391 . S
C785 C789 1.376 . S
C786 C784 1.394 . S
C786 C787 1.369 . S
C786 C790 1.531 . S
C787 C786 1.369 . S
C787 C788 1.410 . S
C787 C795 1.503 . S
C788 C787 1.410 . S
C788 C789 1.392 . S
C788 C791 1.511 . S
C789 C785 1.376 . S
C789 C788 1.392 . S
C789 H801 0.929 . S
C790 C786 1.531 . S
C790 H802 0.960 . S
C790 H803 0.962 . S
C790 H804 0.960 . S
C791 C788 1.511 . S
C791 H805 0.961 1_554 S
C791 H806 0.961 1_554 S
C791 H807 0.961 . S
C792 C793 1.370 . S
C792 C794 1.363 . S
C792 H808 0.931 1_554 S
C793 C792 1.370 . S
C793 C797 1.408 . S
C794 C792 1.363 . S
C794 C795 1.370 . S
C794 C798 1.524 1_554 S
C795 C787 1.503 . S
C795 C794 1.370 . S
C795 C796 1.403 . S
C796 C795 1.403 . S
C796 C797 1.404 . S
C796 C799 1.539 . S
C797 C793 1.408 . S
C797 C796 1.404 . S
C797 H809 0.930 . S
C798 C794 1.524 1_556 S
C798 H810 0.956 1_556 S
C798 H811 0.961 . S
C798 H812 0.961 . S
C799 C796 1.539 . S
C799 H813 0.958 . S
C799 H814 0.961 . S
C799 H815 0.960 . S
H800 C784 0.931 . S
H801 C789 0.929 . S
H802 C790 0.960 . S
H803 C790 0.962 . S
H804 C790 0.960 . S
H805 C791 0.961 1_556 S
H806 C791 0.961 1_556 S
H807 C791 0.961 . S
H808 C792 0.931 1_556 S
H809 C797 0.930 . S
H810 C798 0.956 1_554 S
H811 C798 0.961 . S
H812 C798 0.961 . S
H813 C799 0.958 . S
H814 C799 0.961 . S
H815 C799 0.960 . S
C816 C817 1.391 . S
C816 C818 1.394 . S
C816 H832 0.931 . S
C817 C816 1.391 . S
C817 C821 1.376 . S
C818 C816 1.394 . S
C818 C819 1.369 . S
C818 C822 1.531 . S
C819 C818 1.369 . S
C819 C820 1.410 . S
C819 C827 1.503 . S
C820 C819 1.410 . S
C820 C821 1.392 . S
C820 C823 1.511 . S
C821 C817 1.376 . S
C821 C820 1.392 . S
C821 H833 0.929 . S
C822 C818 1.531 . S
C822 H834 0.960 . S
C822 H835 0.962 . S
C822 H836 0.960 . S
C823 C820 1.511 . S
C823 H837 0.961 . S
C823 H838 0.961 . S
C823 H839 0.961 . S
C824 C825 1.370 . S
C824 C826 1.363 . S
C824 H840 0.931 . S
C825 C824 1.370 . S
C825 C829 1.408 . S
C826 C824 1.363 . S
C826 C827 1.370 . S
C826 C830 1.524 . S
C827 C819 1.503 . S
C827 C826 1.370 . S
C827 C828 1.403 . S
C828 C827 1.403 . S
C828 C829 1.404 . S
C828 C831 1.539 . S
C829 C825 1.408 . S
C829 C828 1.404 . S
C829 H841 0.930 . S
C830 C826 1.524 . S
C830 H842 0.956 . S
C830 H843 0.961 . S
C830 H844 0.961 . S
C831 C828 1.539 . S
C831 H845 0.958 . S
C831 H846 0.961 . S
C831 H847 0.960 . S
H832 C816 0.931 . S
H833 C821 0.929 . S
H834 C822 0.960 . S
H835 C822 0.962 . S
H836 C822 0.960 . S
H837 C823 0.961 . S
H838 C823 0.961 . S
H839 C823 0.961 . S
H840 C824 0.931 . S
H841 C829 0.930 . S
H842 C830 0.956 . S
H843 C830 0.961 . S
H844 C830 0.961 . S
H845 C831 0.958 . S
H846 C831 0.961 . S
H847 C831 0.960 . S
C848 C849 1.391 . S
C848 C850 1.394 . S
C848 H864 0.931 . S
C849 C848 1.391 . S
C849 C853 1.376 . S
C850 C848 1.394 . S
C850 C851 1.369 . S
C850 C854 1.531 . S
C851 C850 1.369 . S
C851 C852 1.410 . S
C851 C859 1.503 . S
C852 C851 1.410 . S
C852 C853 1.392 . S
C852 C855 1.511 . S
C853 C849 1.376 . S
C853 C852 1.392 . S
C853 H865 0.929 . S
C854 C850 1.531 . S
C854 H866 0.960 . S
C854 H867 0.962 . S
C854 H868 0.960 . S
C855 C852 1.511 . S
C855 H869 0.961 . S
C855 H870 0.961 . S
C855 H871 0.961 . S
C856 C857 1.370 . S
C856 C858 1.363 . S
C856 H872 0.931 . S
C857 C856 1.370 . S
C857 C861 1.408 . S
C858 C856 1.363 . S
C858 C859 1.370 . S
C858 C862 1.524 . S
C859 C851 1.503 . S
C859 C858 1.370 . S
C859 C860 1.403 . S
C860 C859 1.403 . S
C860 C861 1.404 . S
C860 C863 1.539 . S
C861 C857 1.408 . S
C861 C860 1.404 . S
C861 H873 0.930 . S
C862 C858 1.524 . S
C862 H874 0.956 . S
C862 H875 0.961 . S
C862 H876 0.961 . S
C863 C860 1.539 . S
C863 H877 0.958 . S
C863 H878 0.961 . S
C863 H879 0.960 . S
H864 C848 0.931 . S
H865 C853 0.929 . S
H866 C854 0.960 . S
H867 C854 0.962 . S
H868 C854 0.960 . S
H869 C855 0.961 . S
H870 C855 0.961 . S
H871 C855 0.961 . S
H872 C856 0.931 . S
H873 C861 0.930 . S
H874 C862 0.956 . S
H875 C862 0.961 . S
H876 C862 0.961 . S
H877 C863 0.958 . S
H878 C863 0.961 . S
H879 C863 0.960 . S
C880 C881 1.391 1_556 S
C880 C882 1.394 . S
C880 H896 0.931 . S
C881 C880 1.391 1_554 S
C881 C885 1.376 . S
C882 C880 1.394 . S
C882 C883 1.369 1_556 S
C882 C886 1.531 . S
C883 C882 1.369 1_554 S
C883 C884 1.410 . S
C883 C891 1.503 1_554 S
C884 C883 1.410 . S
C884 C885 1.392 . S
C884 C887 1.511 . S
C885 C881 1.376 . S
C885 C884 1.392 . S
C885 H897 0.929 . S
C886 C882 1.531 . S
C886 H898 0.960 . S
C886 H899 0.962 . S
C886 H900 0.960 . S
C887 C884 1.511 . S
C887 H901 0.961 . S
C887 H902 0.961 . S
C887 H903 0.961 . S
C888 C889 1.370 . S
C888 C890 1.367 . S
C888 H904 0.931 . S
C889 C888 1.370 . S
C889 C893 1.408 . S
C890 C888 1.367 . S
C890 C891 1.373 . S
C890 C894 1.518 1_556 S
C891 C883 1.503 1_556 S
C891 C890 1.373 . S
C891 C892 1.403 . S
C892 C891 1.403 . S
C892 C893 1.404 . S
C892 C895 1.539 . S
C893 C889 1.408 . S
C893 C892 1.404 . S
C893 H905 0.930 . S
C894 C890 1.518 1_554 S
C894 H906 0.956 . S
C894 H907 0.961 . S
C894 H908 0.961 . S
C895 C892 1.539 . S
C895 H909 0.958 . S
C895 H910 0.961 . S
C895 H911 0.960 . S
H896 C880 0.931 . S
H897 C885 0.929 . S
H898 C886 0.960 . S
H899 C886 0.962 . S
H900 C886 0.960 . S
H901 C887 0.961 . S
H902 C887 0.961 . S
H903 C887 0.961 . S
H904 C888 0.931 . S
H905 C893 0.930 . S
H906 C894 0.956 . S
H907 C894 0.961 . S
H908 C894 0.961 . S
H909 C895 0.958 . S
H910 C895 0.961 . S
H911 C895 0.960 . S
C912 C913 1.391 . S
C912 C914 1.394 . S
C912 H928 0.931 . S
C913 C912 1.391 . S
C913 C917 1.376 . S
C914 C912 1.394 . S
C914 C915 1.369 . S
C914 C918 1.531 . S
C915 C914 1.369 . S
C915 C916 1.410 . S
C915 C923 1.503 . S
C916 C915 1.410 . S
C916 C917 1.392 . S
C916 C919 1.511 . S
C917 C913 1.376 . S
C917 C916 1.392 . S
C917 H929 0.929 . S
C918 C914 1.531 . S
C918 H930 0.960 . S
C918 H931 0.962 . S
C918 H932 0.960 . S
C919 C916 1.511 . S
C919 H933 0.961 . S
C919 H934 0.961 . S
C919 H935 0.961 . S
C920 C921 1.370 . S
C920 C922 1.363 . S
C920 H936 0.931 . S
C921 C920 1.370 . S
C921 C925 1.408 . S
C922 C920 1.363 . S
C922 C923 1.370 . S
C922 C926 1.524 . S
C923 C915 1.503 . S
C923 C922 1.370 . S
C923 C924 1.403 . S
C924 C923 1.403 . S
C924 C925 1.404 . S
C924 C927 1.539 . S
C925 C921 1.408 . S
C925 C924 1.404 . S
C925 H937 0.930 . S
C926 C922 1.524 . S
C926 H938 0.956 . S
C926 H939 0.961 . S
C926 H940 0.961 . S
C927 C924 1.539 . S
C927 H941 0.958 . S
C927 H942 0.961 . S
C927 H943 0.960 . S
H928 C912 0.931 . S
H929 C917 0.929 . S
H930 C918 0.960 . S
H931 C918 0.962 . S
H932 C918 0.960 . S
H933 C919 0.961 . S
H934 C919 0.961 . S
H935 C919 0.961 . S
H936 C920 0.931 . S
H937 C925 0.930 . S
H938 C926 0.956 . S
H939 C926 0.961 . S
H940 C926 0.961 . S
H941 C927 0.958 . S
H942 C927 0.961 . S
H943 C927 0.960 . S
C944 C945 1.391 . S
C944 C946 1.394 . S
C944 H960 0.931 . S
C945 C944 1.391 . S
C945 C949 1.376 . S
C946 C944 1.394 . S
C946 C947 1.369 . S
C946 C950 1.531 . S
C947 C946 1.369 . S
C947 C948 1.410 . S
C947 C955 1.503 . S
C948 C947 1.410 . S
C948 C949 1.392 . S
C948 C951 1.511 . S
C949 C945 1.376 . S
C949 C948 1.392 . S
C949 H961 0.929 . S
C950 C946 1.531 . S
C950 H962 0.960 . S
C950 H963 0.962 . S
C950 H964 0.960 . S
C951 C948 1.511 . S
C951 H965 0.961 . S
C951 H966 0.961 . S
C951 H967 0.961 . S
C952 C953 1.370 . S
C952 C954 1.363 . S
C952 H968 0.931 . S
C953 C952 1.370 . S
C953 C957 1.408 . S
C954 C952 1.363 . S
C954 C955 1.370 . S
C954 C958 1.524 . S
C955 C947 1.503 . S
C955 C954 1.370 . S
C955 C956 1.403 . S
C956 C955 1.403 . S
C956 C957 1.404 . S
C956 C959 1.539 . S
C957 C953 1.408 . S
C957 C956 1.404 . S
C957 H969 0.930 . S
C958 C954 1.524 . S
C958 H970 0.956 . S
C958 H971 0.961 . S
C958 H972 0.961 . S
C959 C956 1.539 . S
C959 H973 0.958 . S
C959 H974 0.961 . S
C959 H975 0.960 . S
H960 C944 0.931 . S
H961 C949 0.929 . S
H962 C950 0.960 . S
H963 C950 0.962 . S
H964 C950 0.960 . S
H965 C951 0.961 . S
H966 C951 0.961 . S
H967 C951 0.961 . S
H968 C952 0.931 . S
H969 C957 0.930 . S
H970 C958 0.956 . S
H971 C958 0.961 . S
H972 C958 0.961 . S
H973 C959 0.958 . S
H974 C959 0.961 . S
H975 C959 0.960 . S
C976 C977 1.391 . S
C976 C978 1.394 . S
C976 H992 0.931 . S
C977 C976 1.391 . S
C977 C981 1.376 1_554 S
C978 C976 1.394 . S
C978 C979 1.369 . S
C978 C982 1.531 . S
C979 C978 1.369 . S
C979 C980 1.410 1_554 S
C979 C987 1.503 1_554 S
C980 C979 1.410 1_556 S
C980 C981 1.392 . S
C980 C983 1.511 . S
C981 C977 1.376 1_556 S
C981 C980 1.392 . S
C981 H993 0.929 . S
C982 C978 1.531 . S
C982 H994 0.960 . S
C982 H995 0.962 . S
C982 H996 0.960 . S
C983 C980 1.511 . S
C983 H997 0.961 . S
C983 H998 0.961 . S
C983 H999 0.961 . S
C984 C985 1.370 . S
C984 C986 1.363 . S
C984 H1000 0.931 . S
C985 C984 1.370 . S
C985 C989 1.408 . S
C986 C984 1.363 . S
C986 C987 1.370 . S
C986 C990 1.524 . S
C987 C979 1.503 1_556 S
C987 C986 1.370 . S
C987 C988 1.403 . S
C988 C987 1.403 . S
C988 C989 1.404 . S
C988 C991 1.539 . S
C989 C985 1.408 . S
C989 C988 1.404 . S
C989 H1001 0.930 . S
C990 C986 1.524 . S
C990 H1002 0.956 1_556 S
C990 H1003 0.961 . S
C990 H1004 0.961 . S
C991 C988 1.539 . S
C991 H1005 0.958 1_556 S
C991 H1006 0.961 . S
C991 H1007 0.960 . S
H992 C976 0.931 . S
H993 C981 0.929 . S
H994 C982 0.960 . S
H995 C982 0.962 . S
H996 C982 0.960 . S
H997 C983 0.961 . S
H998 C983 0.961 . S
H999 C983 0.961 . S
H1000 C984 0.931 . S
H1001 C989 0.930 . S
H1002 C990 0.956 1_554 S
H1003 C990 0.961 . S
H1004 C990 0.961 . S
H1005 C991 0.958 1_554 S
H1006 C991 0.961 . S
H1007 C991 0.960 . S
C1008 C1009 1.391 . S
C1008 C1010 1.394 . S
C1008 H1024 0.931 . S
C1009 C1008 1.391 . S
C1009 C1013 1.376 . S
C1010 C1008 1.394 . S
C1010 C1011 1.369 . S
C1010 C1014 1.531 . S
C1011 C1010 1.369 . S
C1011 C1012 1.410 . S
C1011 C1019 1.503 . S
C1012 C1011 1.410 . S
C1012 C1013 1.392 . S
C1012 C1015 1.511 1_545 S
C1013 C1009 1.376 . S
C1013 C1012 1.392 . S
C1013 H1025 0.929 . S
C1014 C1010 1.531 . S
C1014 H1026 0.960 . S
C1014 H1027 0.962 . S
C1014 H1028 0.960 . S
C1015 C1012 1.511 1_565 S
C1015 H1029 0.961 . S
C1015 H1030 0.961 . S
C1015 H1031 0.961 1_565 S
C1016 C1017 1.370 . S
C1016 C1018 1.363 . S
C1016 H1032 0.931 . S
C1017 C1016 1.370 . S
C1017 C1021 1.408 1_565 S
C1018 C1016 1.363 . S
C1018 C1019 1.370 1_565 S
C1018 C1022 1.524 . S
C1019 C1011 1.503 . S
C1019 C1018 1.370 1_545 S
C1019 C1020 1.403 . S
C1020 C1019 1.403 . S
C1020 C1021 1.404 . S
C1020 C1023 1.539 . S
C1021 C1017 1.408 1_545 S
C1021 C1020 1.404 . S
C1021 H1033 0.930 . S
C1022 C1018 1.524 . S
C1022 H1034 0.956 . S
C1022 H1035 0.961 . S
C1022 H1036 0.961 . S
C1023 C1020 1.539 . S
C1023 H1037 0.958 . S
C1023 H1038 0.961 . S
C1023 H1039 0.960 . S
H1024 C1008 0.931 . S
H1025 C1013 0.929 . S
H1026 C1014 0.960 . S
H1027 C1014 0.962 . S
H1028 C1014 0.960 . S
H1029 C1015 0.961 . S
H1030 C1015 0.961 . S
H1031 C1015 0.961 1_545 S
H1032 C1016 0.931 . S
H1033 C1021 0.930 . S
H1034 C1022 0.956 . S
H1035 C1022 0.961 . S
H1036 C1022 0.961 . S
H1037 C1023 0.958 . S
H1038 C1023 0.961 . S
H1039 C1023 0.960 . S
C1040 C1041 1.391 . S
C1040 C1042 1.394 . S
C1040 H1056 0.931 . S
C1041 C1040 1.391 . S
C1041 C1045 1.376 . S
C1042 C1040 1.394 . S
C1042 C1043 1.369 . S
C1042 C1046 1.531 . S
C1043 C1042 1.369 . S
C1043 C1044 1.410 . S
C1043 C1051 1.503 . S
C1044 C1043 1.410 . S
C1044 C1045 1.392 . S
C1044 C1047 1.511 . S
C1045 C1041 1.376 . S
C1045 C1044 1.392 . S
C1045 H1057 0.929 . S
C1046 C1042 1.531 . S
C1046 H1058 0.960 . S
C1046 H1059 0.962 . S
C1046 H1060 0.960 . S
C1047 C1044 1.511 . S
C1047 H1061 0.961 . S
C1047 H1062 0.961 . S
C1047 H1063 0.961 . S
C1048 C1049 1.370 . S
C1048 C1050 1.363 . S
C1048 H1064 0.931 . S
C1049 C1048 1.370 . S
C1049 C1053 1.408 . S
C1050 C1048 1.363 . S
C1050 C1051 1.370 . S
C1050 C1054 1.524 . S
C1051 C1043 1.503 . S
C1051 C1050 1.370 . S
C1051 C1052 1.403 . S
C1052 C1051 1.403 . S
C1052 C1053 1.404 . S
C1052 C1055 1.539 . S
C1053 C1049 1.408 . S
C1053 C1052 1.404 . S
C1053 H1065 0.930 . S
C1054 C1050 1.524 . S
C1054 H1066 0.956 . S
C1054 H1067 0.961 . S
C1054 H1068 0.961 . S
C1055 C1052 1.539 . S
C1055 H1069 0.958 . S
C1055 H1070 0.961 . S
C1055 H1071 0.960 . S
H1056 C1040 0.931 . S
H1057 C1045 0.929 . S
H1058 C1046 0.960 . S
H1059 C1046 0.962 . S
H1060 C1046 0.960 . S
H1061 C1047 0.961 . S
H1062 C1047 0.961 . S
H1063 C1047 0.961 . S
H1064 C1048 0.931 . S
H1065 C1053 0.930 . S
H1066 C1054 0.956 . S
H1067 C1054 0.961 . S
H1068 C1054 0.961 . S
H1069 C1055 0.958 . S
H1070 C1055 0.961 . S
H1071 C1055 0.960 . S
C1072 C1073 1.391 . S
C1072 C1074 1.394 1_455 S
C1072 H1088 0.931 1_455 S
C1073 C1072 1.391 . S
C1073 C1077 1.376 . S
C1074 C1072 1.394 1_655 S
C1074 C1075 1.369 1_655 S
C1074 C1078 1.531 . S
C1075 C1074 1.369 1_455 S
C1075 C1076 1.410 . S
C1075 C1083 1.508 . S
C1076 C1075 1.410 . S
C1076 C1077 1.392 . S
C1076 C1079 1.511 . S
C1077 C1073 1.376 . S
C1077 C1076 1.392 . S
C1077 H1089 0.929 . S
C1078 C1074 1.531 . S
C1078 H1090 0.960 . S
C1078 H1091 0.962 . S
C1078 H1092 0.960 . S
C1079 C1076 1.511 . S
C1079 H1093 0.961 . S
C1079 H1094 0.961 . S
C1079 H1095 0.961 . S
C1080 C1081 1.370 . S
C1080 C1082 1.363 . S
C1080 H1096 0.931 . S
C1081 C1080 1.370 . S
C1081 C1085 1.408 1_655 S
C1082 C1080 1.363 . S
C1082 C1083 1.359 1_655 S
C1082 C1086 1.524 . S
C1083 C1075 1.508 . S
C1083 C1082 1.359 1_455 S
C1083 C1084 1.409 . S
C1084 C1083 1.409 . S
C1084 C1085 1.404 . S
C1084 C1087 1.539 . S
C1085 C1081 1.408 1_455 S
C1085 C1084 1.404 . S
C1085 H1097 0.930 . S
C1086 C1082 1.524 . S
C1086 H1098 0.956 . S
C1086 H1099 0.961 . S
C1086 H1100 0.961 . S
C1087 C1084 1.539 . S
C1087 H1101 0.958 . S
C1087 H1102 0.961 . S
C1087 H1103 0.960 . S
H1088 C1072 0.931 1_655 S
H1089 C1077 0.929 . S
H1090 C1078 0.960 . S
H1091 C1078 0.962 . S
H1092 C1078 0.960 . S
H1093 C1079 0.961 . S
H1094 C1079 0.961 . S
H1095 C1079 0.961 . S
H1096 C1080 0.931 . S
H1097 C1085 0.930 . S
H1098 C1086 0.956 . S
H1099 C1086 0.961 . S
H1100 C1086 0.961 . S
H1101 C1087 0.958 . S
H1102 C1087 0.961 . S
H1103 C1087 0.960 . S
C1104 C1105 1.391 1_545 S
C1104 C1106 1.394 . S
C1104 H1120 0.931 . S
C1105 C1104 1.391 1_565 S
C1105 C1109 1.376 . S
C1106 C1104 1.394 . S
C1106 C1107 1.369 . S
C1106 C1110 1.531 . S
C1107 C1106 1.369 . S
C1107 C1108 1.410 1_545 S
C1107 C1115 1.503 . S
C1108 C1107 1.410 1_565 S
C1108 C1109 1.392 . S
C1108 C1111 1.511 . S
C1109 C1105 1.376 . S
C1109 C1108 1.392 . S
C1109 H1121 0.929 . S
C1110 C1106 1.531 . S
C1110 H1122 0.960 . S
C1110 H1123 0.962 . S
C1110 H1124 0.960 . S
C1111 C1108 1.511 . S
C1111 H1125 0.961 . S
C1111 H1126 0.961 . S
C1111 H1127 0.961 . S
C1112 C1113 1.370 1_565 S
C1112 C1114 1.363 . S
C1112 H1128 0.931 . S
C1113 C1112 1.370 1_545 S
C1113 C1117 1.408 . S
C1114 C1112 1.363 . S
C1114 C1115 1.370 1_565 S
C1114 C1118 1.524 . S
C1115 C1107 1.503 . S
C1115 C1114 1.370 1_545 S
C1115 C1116 1.403 . S
C1116 C1115 1.403 . S
C1116 C1117 1.404 . S
C1116 C1119 1.539 . S
C1117 C1113 1.408 . S
C1117 C1116 1.404 . S
C1117 H1129 0.930 . S
C1118 C1114 1.524 . S
C1118 H1130 0.956 . S
C1118 H1131 0.961 . S
C1118 H1132 0.961 . S
C1119 C1116 1.539 . S
C1119 H1133 0.958 . S
C1119 H1134 0.961 . S
C1119 H1135 0.960 . S
H1120 C1104 0.931 . S
H1121 C1109 0.929 . S
H1122 C1110 0.960 . S
H1123 C1110 0.962 . S
H1124 C1110 0.960 . S
H1125 C1111 0.961 . S
H1126 C1111 0.961 . S
H1127 C1111 0.961 . S
H1128 C1112 0.931 . S
H1129 C1117 0.930 . S
H1130 C1118 0.956 . S
H1131 C1118 0.961 . S
H1132 C1118 0.961 . S
H1133 C1119 0.958 . S
H1134 C1119 0.961 . S
H1135 C1119 0.960 . S
C1136 C1137 1.391 . S
C1136 C1138 1.394 . S
C1136 H1152 0.931 . S
C1137 C1136 1.391 . S
C1137 C1141 1.376 . S
C1138 C1136 1.394 . S
C1138 C1139 1.369 . S
C1138 C1142 1.531 . S
C1139 C1138 1.369 . S
C1139 C1140 1.410 . S
C1139 C1147 1.503 . S
C1140 C1139 1.410 . S
C1140 C1141 1.392 . S
C1140 C1143 1.511 . S
C1141 C1137 1.376 . S
C1141 C1140 1.392 . S
C1141 H1153 0.929 . S
C1142 C1138 1.531 . S
C1142 H1154 0.960 . S
C1142 H1155 0.962 . S
C1142 H1156 0.960 . S
C1143 C1140 1.511 . S
C1143 H1157 0.961 . S
C1143 H1158 0.961 . S
C1143 H1159 0.961 . S
C1144 C1145 1.370 . S
C1144 C1146 1.363 . S
C1144 H1160 0.931 . S
C1145 C1144 1.370 . S
C1145 C1149 1.408 . S
C1146 C1144 1.363 . S
C1146 C1147 1.370 . S
C1146 C1150 1.524 . S
C1147 C1139 1.503 . S
C1147 C1146 1.370 . S
C1147 C1148 1.403 . S
C1148 C1147 1.403 . S
C1148 C1149 1.404 . S
C1148 C1151 1.539 . S
C1149 C1145 1.408 . S
C1149 C1148 1.404 . S
C1149 H1161 0.930 . S
C1150 C1146 1.524 . S
C1150 H1162 0.956 . S
C1150 H1163 0.961 . S
C1150 H1164 0.961 . S
C1151 C1148 1.539 . S
C1151 H1165 0.958 . S
C1151 H1166 0.961 . S
C1151 H1167 0.960 . S
H1152 C1136 0.931 . S
H1153 C1141 0.929 . S
H1154 C1142 0.960 . S
H1155 C1142 0.962 . S
H1156 C1142 0.960 . S
H1157 C1143 0.961 . S
H1158 C1143 0.961 . S
H1159 C1143 0.961 . S
H1160 C1144 0.931 . S
H1161 C1149 0.930 . S
H1162 C1150 0.956 . S
H1163 C1150 0.961 . S
H1164 C1150 0.961 . S
H1165 C1151 0.958 . S
H1166 C1151 0.961 . S
H1167 C1151 0.960 . S
C1168 C1169 1.391 . S
C1168 C1170 1.394 . S
C1168 H1184 0.931 . S
C1169 C1168 1.391 . S
C1169 C1173 1.376 . S
C1170 C1168 1.394 . S
C1170 C1171 1.369 1_655 S
C1170 C1174 1.531 1_655 S
C1171 C1170 1.369 1_455 S
C1171 C1172 1.410 . S
C1171 C1179 1.503 . S
C1172 C1171 1.410 . S
C1172 C1173 1.392 1_455 S
C1172 C1175 1.511 . S
C1173 C1169 1.376 . S
C1173 C1172 1.392 1_655 S
C1173 H1185 0.929 . S
C1174 C1170 1.531 1_455 S
C1174 H1186 0.961 . S
C1174 H1187 0.960 1_455 S
C1174 H1188 0.960 . S
C1175 C1172 1.511 . S
C1175 H1189 0.961 1_455 S
C1175 H1190 0.961 . S
C1175 H1191 0.961 . S
C1176 C1177 1.370 1_655 S
C1176 C1178 1.363 . S
C1176 H1192 0.931 . S
C1177 C1176 1.370 1_455 S
C1177 C1181 1.408 . S
C1178 C1176 1.363 . S
C1178 C1179 1.370 1_655 S
C1178 C1182 1.524 . S
C1179 C1171 1.503 . S
C1179 C1178 1.370 1_455 S
C1179 C1180 1.403 . S
C1180 C1179 1.403 . S
C1180 C1181 1.404 . S
C1180 C1183 1.539 . S
C1181 C1177 1.408 . S
C1181 C1180 1.404 . S
C1181 H1193 0.930 . S
C1182 C1178 1.524 . S
C1182 H1194 0.956 . S
C1182 H1195 0.961 . S
C1182 H1196 0.961 . S
C1183 C1180 1.539 . S
C1183 H1197 0.958 . S
C1183 H1198 0.961 . S
C1183 H1199 0.960 . S
H1184 C1168 0.931 . S
H1185 C1173 0.929 . S
H1186 C1174 0.961 . S
H1187 C1174 0.960 1_655 S
H1188 C1174 0.960 . S
H1189 C1175 0.961 1_655 S
H1190 C1175 0.961 . S
H1191 C1175 0.961 . S
H1192 C1176 0.931 . S
H1193 C1181 0.930 . S
H1194 C1182 0.956 . S
H1195 C1182 0.961 . S
H1196 C1182 0.961 . S
H1197 C1183 0.958 . S
H1198 C1183 0.961 . S
H1199 C1183 0.960 . S
C433 C4 1.757 . S
C441 C292 1.757 . S
C465 C40 1.748 . S
C473 C328 1.754 . S
C497 C364 1.748 . S
C505 C76 1.754 . S
C529 C400 1.744 . S
C537 C112 1.758 . S
C561 C220 1.755 . S
C569 C148 1.753 . S
C593 C256 1.756 . S
C601 C184 1.758 . S
C625 C14 1.492 . S
C633 C122 1.514 . S
C657 C158 1.494 . S
C665 C50 1.504 . S
C689 C194 1.510 . S
C697 C86 1.521 . S
C721 C230 1.503 . S
C729 C338 1.504 . S
C753 C374 1.503 . S
C761 C266 1.504 . S
C785 C302 1.502 . S
C793 C410 1.504 . S
C817 C218 0.902 . S
C825 C2 0.836 . S
C849 C38 0.803 . S
C857 C254 0.872 . S
C881 C290 0.817 . S
C889 C74 0.853 . S
C913 C326 0.800 . S
C921 C110 0.868 . S
C945 C146 0.885 . S
C953 C362 0.853 . S
C977 C398 0.867 . S
C985 C182 0.861 . S
C1009 C3 1.037 . S
C1017 C255 1.010 . S
C1041 C291 1.021 . S
C1049 C39 1.021 . S
C1073 C327 1.030 . S
C1081 C75 1.007 . S
C1105 C111 0.993 . S
C1113 C363 1.020 . S
C1137 C399 1.006 . S
C1145 C147 1.012 . S
C1169 C219 0.993 . S
C1177 C183 1.025 . S
