# Generated by pormake.
# Topology swf, (7)-cn, num edge types: 1
# Building blocks:
#     Node 0, Type 0, BuildingBlock: NUHQUE_clean_sbu_2, # of connection points: 7
#     Node 1, Type 0, BuildingBlock: NUHQUE_clean_sbu_2, # of connection points: 7
#     Node 2, Type 0, BuildingBlock: NUHQUE_clean_sbu_2, # of connection points: 7
#     Node 3, Type 0, BuildingBlock: NUHQUE_clean_sbu_2, # of connection points: 7
#     Node 4, Type 0, BuildingBlock: NUHQUE_clean_sbu_2, # of connection points: 7
#     Node 5, Type 0, BuildingBlock: NUHQUE_clean_sbu_2, # of connection points: 7
#     Node 6, Type 0, BuildingBlock: NUHQUE_clean_sbu_2, # of connection points: 7
#     Node 7, Type 0, BuildingBlock: NUHQUE_clean_sbu_2, # of connection points: 7
#     Node 8, Type 0, BuildingBlock: NUHQUE_clean_sbu_2, # of connection points: 7
#     Node 9, Type 0, BuildingBlock: NUHQUE_clean_sbu_2, # of connection points: 7
#     Node 10, Type 0, BuildingBlock: NUHQUE_clean_sbu_2, # of connection points: 7
#     Node 11, Type 0, BuildingBlock: NUHQUE_clean_sbu_2, # of connection points: 7
#     Edge 12, Type (0, 0), BuildingBlock: UVAHIK_clean_linker_0, # of connection points: 2
#     Edge 13, Type (0, 0), BuildingBlock: UVAHIK_clean_linker_0, # of connection points: 2
#     Edge 14, Type (0, 0), BuildingBlock: UVAHIK_clean_linker_0, # of connection points: 2
#     Edge 15, Type (0, 0), BuildingBlock: UVAHIK_clean_linker_0, # of connection points: 2
#     Edge 16, Type (0, 0), BuildingBlock: UVAHIK_clean_linker_0, # of connection points: 2
#     Edge 17, Type (0, 0), BuildingBlock: UVAHIK_clean_linker_0, # of connection points: 2
#     Edge 18, Type (0, 0), BuildingBlock: UVAHIK_clean_linker_0, # of connection points: 2
#     Edge 19, Type (0, 0), BuildingBlock: UVAHIK_clean_linker_0, # of connection points: 2
#     Edge 20, Type (0, 0), BuildingBlock: UVAHIK_clean_linker_0, # of connection points: 2
#     Edge 21, Type (0, 0), BuildingBlock: UVAHIK_clean_linker_0, # of connection points: 2
#     Edge 22, Type (0, 0), BuildingBlock: UVAHIK_clean_linker_0, # of connection points: 2
#     Edge 23, Type (0, 0), BuildingBlock: UVAHIK_clean_linker_0, # of connection points: 2
#     Edge 24, Type (0, 0), BuildingBlock: UVAHIK_clean_linker_0, # of connection points: 2
#     Edge 25, Type (0, 0), BuildingBlock: UVAHIK_clean_linker_0, # of connection points: 2
#     Edge 26, Type (0, 0), BuildingBlock: UVAHIK_clean_linker_0, # of connection points: 2
#     Edge 27, Type (0, 0), BuildingBlock: UVAHIK_clean_linker_0, # of connection points: 2
#     Edge 28, Type (0, 0), BuildingBlock: UVAHIK_clean_linker_0, # of connection points: 2
#     Edge 29, Type (0, 0), BuildingBlock: UVAHIK_clean_linker_0, # of connection points: 2
#     Edge 30, Type (0, 0), BuildingBlock: UVAHIK_clean_linker_0, # of connection points: 2
#     Edge 31, Type (0, 0), BuildingBlock: UVAHIK_clean_linker_0, # of connection points: 2
#     Edge 32, Type (0, 0), BuildingBlock: UVAHIK_clean_linker_0, # of connection points: 2
#     Edge 33, Type (0, 0), BuildingBlock: UVAHIK_clean_linker_0, # of connection points: 2
#     Edge 34, Type (0, 0), BuildingBlock: UVAHIK_clean_linker_0, # of connection points: 2
#     Edge 35, Type (0, 0), BuildingBlock: UVAHIK_clean_linker_0, # of connection points: 2
#     Edge 36, Type (0, 0), BuildingBlock: UVAHIK_clean_linker_0, # of connection points: 2
#     Edge 37, Type (0, 0), BuildingBlock: UVAHIK_clean_linker_0, # of connection points: 2
#     Edge 38, Type (0, 0), BuildingBlock: UVAHIK_clean_linker_0, # of connection points: 2
#     Edge 39, Type (0, 0), BuildingBlock: UVAHIK_clean_linker_0, # of connection points: 2
#     Edge 40, Type (0, 0), BuildingBlock: UVAHIK_clean_linker_0, # of connection points: 2
#     Edge 41, Type (0, 0), BuildingBlock: UVAHIK_clean_linker_0, # of connection points: 2
#     Edge 42, Type (0, 0), BuildingBlock: UVAHIK_clean_linker_0, # of connection points: 2
#     Edge 43, Type (0, 0), BuildingBlock: UVAHIK_clean_linker_0, # of connection points: 2
#     Edge 44, Type (0, 0), BuildingBlock: UVAHIK_clean_linker_0, # of connection points: 2
#     Edge 45, Type (0, 0), BuildingBlock: UVAHIK_clean_linker_0, # of connection points: 2
#     Edge 46, Type (0, 0), BuildingBlock: UVAHIK_clean_linker_0, # of connection points: 2
#     Edge 47, Type (0, 0), BuildingBlock: UVAHIK_clean_linker_0, # of connection points: 2
#     Edge 48, Type (0, 0), BuildingBlock: UVAHIK_clean_linker_0, # of connection points: 2
#     Edge 49, Type (0, 0), BuildingBlock: UVAHIK_clean_linker_0, # of connection points: 2
#     Edge 50, Type (0, 0), BuildingBlock: UVAHIK_clean_linker_0, # of connection points: 2
#     Edge 51, Type (0, 0), BuildingBlock: UVAHIK_clean_linker_0, # of connection points: 2
#     Edge 52, Type (0, 0), BuildingBlock: UVAHIK_clean_linker_0, # of connection points: 2
#     Edge 53, Type (0, 0), BuildingBlock: UVAHIK_clean_linker_0, # of connection points: 2
# Relax obj value: 0.249
# Max RMSD: 0.208
# Mean RMSD: 0.208
data_MOF--net-swf--node1-NUHQUE_clean_sbu_2--edge1-UVAHIK_clean_linker_0
_symmetry_space_group_name_H-M    P1
_symmetry_Int_Tables_number       1
_symmetry_cell_setting            triclinic
loop_
_symmetry_equiv_pos_as_xyz
'x, y, z'
_cell_length_a     82.559284
_cell_length_b     82.257058
_cell_length_c     27.720429
_cell_angle_alpha  90.062701
_cell_angle_beta   90.160596
_cell_angle_gamma 119.71032
loop_
_atom_site_label
_atom_site_type_symbol
_atom_site_fract_x
_atom_site_fract_y
_atom_site_fract_z
_atom_type_partial_charge
O0 O 0.52827 0.11613 0.98152 0.0
Tb1 Tb 0.50176 0.09429 1.00789 0.0
Eu2 Eu 0.47596 0.11448 0.07318 0.0
C3 C 0.52933 0.12225 0.93732 0.0
O4 O 0.51454 0.11417 0.90931 0.0
C5 C 0.46549 0.0899 0.97919 0.0
O6 O 0.45873 0.09677 0.13436 0.0
C7 C 0.47054 0.14268 0.05821 0.0
C8 C 0.45791 0.08058 0.14055 0.0
O9 O 0.46747 0.07585 0.1116 0.0
C10 C 0.51271 0.11259 0.11156 0.0
C11 C 0.47569 0.16275 0.06283 0.0
C12 C 0.47764 0.17294 1.02023 0.0
C13 C 0.47919 0.19075 0.02202 0.0
C14 C 0.47925 0.19855 0.06704 0.0
C15 C 0.47739 0.18884 0.11007 0.0
C16 C 0.47579 0.17094 0.10793 0.0
O17 O 0.48314 0.10189 0.97353 0.0
O18 O 0.45854 0.09041 0.02121 0.0
O19 O 0.50484 0.07365 0.9647 0.0
O20 O 0.48196 0.06445 1.01306 0.0
C21 C 0.48977 0.05915 0.98075 0.0
O22 O 0.50488 0.12318 0.10511 0.0
O23 O 0.50831 0.09771 0.08465 0.0
O24 O 0.46432 0.13181 0.09635 0.0
O25 O 0.47965 0.13784 0.02768 0.0
H26 H 0.47689 0.16655 0.98545 0.0
H27 H 0.48063 0.21236 0.06867 0.0
H28 H 0.47377 0.16316 0.14098 0.0
O29 O 0.39415 0.52594 0.98272 0.0
Tb30 Tb 0.39628 0.50516 0.02579 0.0
Eu31 Eu 0.37018 0.46789 0.08545 0.0
C32 C 0.38172 0.52117 0.94803 0.0
O33 O 0.37039 0.50341 0.93839 0.0
C34 C 0.38667 0.4666 0.98209 0.0
O35 O 0.36836 0.44577 0.13592 0.0
C36 C 0.33841 0.46492 0.06065 0.0
C37 C 0.38456 0.44881 0.15236 0.0
O38 O 0.39971 0.46366 0.13702 0.0
C39 C 0.39187 0.50841 0.13446 0.0
C40 C 0.32277 0.46882 0.06682 0.0
C41 C 0.3147 0.47143 0.02481 0.0
C42 C 0.29856 0.47311 0.02711 0.0
C43 C 0.29058 0.4722 0.07236 0.0
C44 C 0.29832 0.46965 0.11493 0.0
C45 C 0.31461 0.46813 0.11212 0.0
O46 O 0.38591 0.48199 0.9737 0.0
O47 O 0.38362 0.45965 0.026 0.0
O48 O 0.42634 0.52153 1.01544 0.0
O49 O 0.41506 0.4984 0.06432 0.0
C50 C 0.43025 0.51189 0.04594 0.0
O51 O 0.38734 0.4908 0.13917 0.0
O52 O 0.38917 0.51425 0.0926 0.0
O53 O 0.33989 0.45328 0.09052 0.0
O54 O 0.35453 0.47826 0.04421 0.0
H55 H 0.32086 0.47184 0.99003 0.0
H56 H 0.27793 0.47308 0.07454 0.0
H57 H 0.32047 0.46578 0.14463 0.0
O58 O 0.88877 0.39778 0.98634 0.0
Tb59 Tb 0.91032 0.39543 0.0252 0.0
Eu60 Eu 0.91959 0.36587 0.07836 0.0
C61 C 0.88395 0.39167 0.94193 0.0
O62 O 0.89249 0.38401 0.91945 0.0
C63 C 0.93799 0.3851 0.97698 0.0
O64 O 0.9374 0.35987 0.12843 0.0
C65 C 0.8901 0.33577 0.04826 0.0
C66 C 0.95109 0.35765 0.11189 0.0
O67 O 0.95303 0.35689 0.06507 0.0
C68 C 0.90123 0.38689 0.1317 0.0
C69 C 0.8706 0.32043 0.05439 0.0
C70 C 0.85988 0.31272 1.01237 0.0
C71 C 0.842 0.29687 1.01455 0.0
C72 C 0.83488 0.28878 0.05962 0.0
C73 C 0.84527 0.29616 0.10219 0.0
C74 C 0.86316 0.31219 0.09957 0.0
O75 O 0.92257 0.38587 0.96957 0.0
O76 O 0.94132 0.3804 1.01978 0.0
O77 O 0.92547 0.42592 0.02548 0.0
O78 O 0.93519 0.41105 0.06908 0.0
C79 C 0.93802 0.42747 0.05661 0.0
O80 O 0.91439 0.38241 0.13546 0.0
O81 O 0.89304 0.38485 0.08956 0.0
O82 O 0.90325 0.33552 0.07459 0.0
O83 O 0.89325 0.35274 0.03808 0.0
H84 H 0.86564 0.31892 0.97765 0.0
H85 H 0.82126 0.27632 0.06159 0.0
H86 H 0.87144 0.31777 0.13208 0.0
O87 O 0.52695 0.88455 0.0221 0.0
Tb88 Tb 0.52266 0.90825 1.00934 0.0
Eu89 Eu 0.55906 0.91146 0.06676 0.0
C90 C 0.51544 0.86712 1.00936 0.0
O91 O 0.51858 0.85382 0.02458 0.0
C92 C 0.56289 0.94146 0.98094 0.0
O93 O 0.58191 0.93376 0.11153 0.0
C94 C 0.56768 0.88517 0.0531 0.0
C95 C 0.5832 0.93153 0.15798 0.0
O96 O 0.57063 0.91608 0.1789 0.0
C97 C 0.52313 0.91084 0.11834 0.0
C98 C 0.56198 0.86491 0.05656 0.0
C99 C 0.56083 0.85507 1.01379 0.0
C100 C 0.55807 0.83678 1.01544 0.0
C101 C 0.55582 0.82809 0.06033 0.0
C102 C 0.55672 0.83739 0.10366 0.0
C103 C 0.56 0.85595 0.10155 0.0
O104 O 0.54467 0.93413 0.9797 0.0
O105 O 0.57108 0.93437 1.00827 0.0
O106 O 0.50912 0.90806 0.94149 0.0
O107 O 0.49306 0.8999 1.00532 0.0
C108 C 0.49275 0.903 0.95936 0.0
O109 O 0.53392 0.90311 0.11739 0.0
O110 O 0.52125 0.91879 0.07939 0.0
O111 O 0.57142 0.89505 0.09297 0.0
O112 O 0.56011 0.89054 1.01941 0.0
H113 H 0.56301 0.86199 0.97921 0.0
H114 H 0.55383 0.81405 0.06151 0.0
H115 H 0.5612 0.86341 0.13478 0.0
O116 O 0.63166 0.49553 0.96726 0.0
Tb117 Tb 0.63527 0.51933 1.00921 0.0
Eu118 Eu 0.66574 0.55656 0.06885 0.0
C119 C 0.62789 0.49422 0.92094 0.0
O120 O 0.62696 0.50795 0.8994 0.0
C121 C 0.64886 0.55842 0.96527 0.0
O122 O 0.66818 0.57971 0.11669 0.0
C123 C 0.69759 0.55917 0.04716 0.0
C124 C 0.65269 0.57656 0.13795 0.0
O125 O 0.63737 0.56063 0.12957 0.0
C126 C 0.64168 0.51596 0.11703 0.0
C127 C 0.7129 0.5548 0.05438 0.0
C128 C 0.72096 0.55191 1.01286 0.0
C129 C 0.73696 0.55002 1.01595 0.0
C130 C 0.74482 0.55096 0.06153 0.0
C131 C 0.7371 0.55375 0.10367 0.0
C132 C 0.72095 0.55553 0.10006 0.0
O133 O 0.64782 0.54214 0.95654 0.0
O134 O 0.65306 0.5656 1.00905 0.0
O135 O 0.60518 0.50681 1.00207 0.0
O136 O 0.62004 0.53003 0.04981 0.0
C137 C 0.60374 0.51806 0.03261 0.0
O138 O 0.64817 0.53399 0.12243 0.0
O139 O 0.64255 0.50936 0.07441 0.0
O140 O 0.69588 0.57046 0.07783 0.0
O141 O 0.68165 0.54642 0.02794 0.0
H142 H 0.71491 0.55151 0.9778 0.0
H143 H 0.7574 0.54995 0.06431 0.0
H144 H 0.71515 0.55812 0.13225 0.0
O145 O 0.1475 0.62868 0.9826 0.0
Tb146 Tb 0.12629 0.63037 0.02465 0.0
Eu147 Eu 0.11739 0.6595 0.08012 0.0
C148 C 0.15327 0.63731 0.94107 0.0
O149 O 0.14578 0.64687 0.92339 0.0
C150 C 0.09783 0.6403 0.97945 0.0
O151 O 0.09806 0.6639 0.12817 0.0
C152 C 0.14582 0.69054 0.05092 0.0
C153 C 0.08679 0.64966 0.15517 0.0
O154 O 0.08757 0.63412 0.15255 0.0
C155 C 0.13683 0.63883 0.13125 0.0
C156 C 0.16532 0.7059 0.05738 0.0
C157 C 0.17579 0.71425 1.01554 0.0
C158 C 0.19334 0.73053 1.01845 0.0
C159 C 0.20056 0.73817 0.06396 0.0
C160 C 0.19052 0.73009 0.10633 0.0
C161 C 0.17286 0.71377 0.10302 0.0
O162 O 0.11328 0.6398 0.97056 0.0
O163 O 0.09497 0.64482 0.02293 0.0
O164 O 0.11109 0.59989 0.02411 0.0
O165 O 0.10192 0.61476 0.06959 0.0
C166 C 0.09889 0.59834 0.05623 0.0
O167 O 0.12412 0.64384 0.13633 0.0
O168 O 0.14424 0.64015 0.08842 0.0
O169 O 0.13302 0.68989 0.08031 0.0
O170 O 0.14276 0.67395 0.03669 0.0
H171 H 0.16984 0.70856 0.98042 0.0
H172 H 0.2142 0.75061 0.06653 0.0
H173 H 0.1648 0.70771 0.13542 0.0
O174 O 0.88623 0.51095 0.64682 0.0
Tb175 Tb 0.9134 0.5264 0.61347 0.0
Eu176 Eu 0.92077 0.55958 0.53532 0.0
C177 C 0.88311 0.51564 0.68965 0.0
O178 O 0.89613 0.53102 0.71014 0.0
C179 C 0.94209 0.56704 0.6341 0.0
O180 O 0.93668 0.58349 0.48462 0.0
C181 C 0.89104 0.55979 0.56578 0.0
C182 C 0.93308 0.58212 0.43818 0.0
O183 O 0.91936 0.56648 0.42063 0.0
C184 C 0.90862 0.51771 0.49831 0.0
C185 C 0.87091 0.55379 0.56073 0.0
C186 C 0.86077 0.55179 0.60318 0.0
C187 C 0.84249 0.5488 0.60111 0.0
C188 C 0.83406 0.54696 0.5559 0.0
C189 C 0.84369 0.54866 0.51276 0.0
C190 C 0.86233 0.55235 0.5154 0.0
O191 O 0.92536 0.55401 0.64713 0.0
O192 O 0.94509 0.57052 0.5879 0.0
O193 O 0.92137 0.51164 0.66542 0.0
O194 O 0.94046 0.52808 0.61028 0.0
C195 C 0.93806 0.5178 0.64814 0.0
O196 O 0.9157 0.53548 0.48655 0.0
O197 O 0.90484 0.51185 0.54348 0.0
O198 O 0.90262 0.57166 0.53396 0.0
O199 O 0.89602 0.54782 0.58177 0.0
H200 H 0.86753 0.55364 0.63796 0.0
H201 H 0.81997 0.54469 0.55433 0.0
H202 H 0.87014 0.55424 0.48254 0.0
O203 O 0.40176 0.8829 0.65314 0.0
Tb204 Tb 0.39962 0.90327 0.60832 0.0
Eu205 Eu 0.37061 0.91127 0.54858 0.0
C206 C 0.39095 0.87543 0.69079 0.0
O207 O 0.37815 0.87991 0.70124 0.0
C208 C 0.38604 0.92856 0.6543 0.0
O209 O 0.36703 0.93245 0.50581 0.0
C210 C 0.3394 0.88138 0.56936 0.0
C211 C 0.38072 0.94984 0.50874 0.0
O212 O 0.3954 0.95358 0.53513 0.0
C213 C 0.39507 0.89544 0.49972 0.0
C214 C 0.32502 0.86135 0.56378 0.0
C215 C 0.3173 0.85099 0.60614 0.0
C216 C 0.30226 0.83257 0.60423 0.0
C217 C 0.29526 0.8244 0.55899 0.0
C218 C 0.30276 0.83429 0.51591 0.0
C219 C 0.3176 0.85298 0.51853 0.0
O220 O 0.38722 0.91339 0.66183 0.0
O221 O 0.38197 0.93192 0.61092 0.0
O222 O 0.42978 0.91976 0.61626 0.0
O223 O 0.4155 0.93017 0.57275 0.0
C224 C 0.43165 0.93348 0.58902 0.0
O225 O 0.38932 0.90767 0.49534 0.0
O226 O 0.39318 0.88709 0.5415 0.0
O227 O 0.34082 0.89345 0.53616 0.0
O228 O 0.35528 0.88574 0.59112 0.0
H229 H 0.32279 0.85751 0.64088 0.0
H230 H 0.28322 0.81046 0.55728 0.0
H231 H 0.32324 0.86093 0.48572 0.0
O232 O 0.5102 0.3846 0.63979 0.0
Tb233 Tb 0.51088 0.4099 0.61606 0.0
Eu234 Eu 0.47932 0.37197 0.55934 0.0
C235 C 0.50398 0.37821 0.68321 0.0
O236 O 0.49353 0.38393 0.70479 0.0
C237 C 0.47027 0.39822 0.62884 0.0
O238 O 0.45612 0.37081 0.51445 0.0
C239 C 0.47361 0.33816 0.57387 0.0
C240 C 0.45497 0.36737 0.46792 0.0
O241 O 0.46749 0.36424 0.44737 0.0
C242 C 0.51759 0.40607 0.50653 0.0
C243 C 0.47908 0.32351 0.56791 0.0
C244 C 0.48163 0.31549 0.61007 0.0
C245 C 0.48499 0.30035 0.60778 0.0
C246 C 0.48615 0.29347 0.56237 0.0
C247 C 0.48383 0.30121 0.51946 0.0
C248 C 0.48004 0.31618 0.52244 0.0
O249 O 0.48584 0.412 0.6123 0.0
O250 O 0.4668 0.38088 0.62175 0.0
O251 O 0.51601 0.42567 0.68322 0.0
O252 O 0.53855 0.4328 0.63554 0.0
C253 C 0.53374 0.43674 0.67662 0.0
O254 O 0.50364 0.3885 0.50649 0.0
O255 O 0.52143 0.41729 0.5438 0.0
O256 O 0.46632 0.34254 0.5374 0.0
O257 O 0.48375 0.35236 0.6026 0.0
H258 H 0.48064 0.32089 0.64499 0.0
H259 H 0.48804 0.28135 0.56036 0.0
H260 H 0.47781 0.32201 0.48972 0.0
O261 O 0.14366 0.51834 0.6428 0.0
Tb262 Tb 0.11505 0.49993 0.62086 0.0
Eu263 Eu 0.117 0.46842 0.54122 0.0
C264 C 0.15032 0.51472 0.68188 0.0
O265 O 0.1399 0.49898 0.70496 0.0
C266 C 0.09283 0.4585 0.63514 0.0
O267 O 0.1022 0.44982 0.47786 0.0
C268 C 0.14405 0.46343 0.57229 0.0
C269 C 0.09268 0.45453 0.44863 0.0
O270 O 0.09256 0.47022 0.45659 0.0
C271 C 0.12287 0.50899 0.50778 0.0
C272 C 0.16405 0.46865 0.56886 0.0
C273 C 0.17374 0.46994 0.61193 0.0
C274 C 0.19192 0.47258 0.61087 0.0
C275 C 0.20063 0.47463 0.56615 0.0
C276 C 0.19144 0.47359 0.52253 0.0
C277 C 0.17297 0.47038 0.52409 0.0
O278 O 0.10856 0.47285 0.64923 0.0
O279 O 0.09104 0.45482 0.58874 0.0
O280 O 0.10757 0.51388 0.6768 0.0
O281 O 0.08635 0.49276 0.63276 0.0
C282 C 0.08968 0.50414 0.66868 0.0
O283 O 0.12758 0.49597 0.50101 0.0
O284 O 0.11503 0.51021 0.54808 0.0
O285 O 0.13291 0.45391 0.53638 0.0
O286 O 0.13978 0.47531 0.59257 0.0
H287 H 0.16677 0.46799 0.64629 0.0
H288 H 0.21463 0.47662 0.56531 0.0
H289 H 0.16556 0.46912 0.49073 0.0
O290 O 0.64594 0.14975 0.64009 0.0
Tb291 Tb 0.6418 0.12626 0.59602 0.0
Eu292 Eu 0.66696 0.11442 0.5365 0.0
C293 C 0.65989 0.15765 0.67086 0.0
O294 O 0.6715 0.15117 0.67538 0.0
C295 C 0.65049 0.0965 0.63895 0.0
O296 O 0.67002 0.09457 0.48718 0.0
C297 C 0.69815 0.14341 0.563 0.0
C298 C 0.65421 0.08148 0.46893 0.0
O299 O 0.63869 0.08096 0.48226 0.0
C300 C 0.64522 0.13306 0.48661 0.0
C301 C 0.71277 0.16332 0.55771 0.0
C302 C 0.72041 0.1737 0.60025 0.0
C303 C 0.73522 0.19222 0.59866 0.0
C304 C 0.74218 0.20044 0.55363 0.0
C305 C 0.73483 0.19048 0.51034 0.0
C306 C 0.72012 0.17172 0.51261 0.0
O307 O 0.65182 0.1129 0.64763 0.0
O308 O 0.65319 0.09249 0.5948 0.0
O309 O 0.61193 0.11355 0.60901 0.0
O310 O 0.62208 0.10062 0.5597 0.0
C311 C 0.60731 0.0996 0.57928 0.0
O312 O 0.64971 0.1199 0.48267 0.0
O313 O 0.64782 0.14179 0.52819 0.0
O314 O 0.69722 0.13106 0.53121 0.0
O315 O 0.68183 0.13963 0.58055 0.0
H316 H 0.71494 0.1672 0.6349 0.0
H317 H 0.75404 0.21449 0.55237 0.0
H318 H 0.71447 0.16375 0.47968 0.0
O319 O 0.51298 0.6203 0.64288 0.0
Tb320 Tb 0.53689 0.61978 0.61317 0.0
Eu321 Eu 0.56622 0.65991 0.53864 0.0
C322 C 0.51357 0.62628 0.68707 0.0
O323 O 0.5287 0.63165 0.71314 0.0
C324 C 0.57624 0.64668 0.63495 0.0
O325 O 0.58736 0.66368 0.48273 0.0
C326 C 0.56978 0.6922 0.56244 0.0
C327 C 0.58411 0.66324 0.43624 0.0
O328 O 0.56805 0.66104 0.42107 0.0
C329 C 0.52705 0.62279 0.50178 0.0
C330 C 0.56366 0.70646 0.55901 0.0
C331 C 0.56067 0.7137 0.60213 0.0
C332 C 0.55763 0.72911 0.60159 0.0
C333 C 0.55766 0.73727 0.55711 0.0
C334 C 0.56065 0.73044 0.51359 0.0
C335 C 0.5634 0.71482 0.51459 0.0
O336 O 0.5598 0.64461 0.64406 0.0
O337 O 0.5817 0.65056 0.59004 0.0
O338 O 0.53148 0.59671 0.66183 0.0
O339 O 0.55276 0.60526 0.60854 0.0
C340 C 0.54469 0.59407 0.6446 0.0
O341 O 0.53903 0.64099 0.49796 0.0
O342 O 0.52663 0.61264 0.53921 0.0
O343 O 0.57787 0.6896 0.52474 0.0
O344 O 0.55995 0.67692 0.58816 0.0
H345 H 0.56119 0.70759 0.63633 0.0
H346 H 0.55587 0.74946 0.5563 0.0
H347 H 0.5662 0.70982 0.48119 0.0
C348 C 0.44903 0.05278 0.19241 0.0
C349 C 0.44664 0.06795 0.17955 0.0
C350 C 0.43891 0.04113 0.23037 0.0
C351 C 0.39689 0.02297 0.301 0.0
H352 H 0.42681 0.01653 0.39912 0.0
C353 C 0.37234 0.96078 0.43356 0.0
C354 C 0.38116 0.96477 0.47883 0.0
C355 C 0.37675 0.97526 0.40065 0.0
C356 C 0.41824 0.0184 0.37251 0.0
H357 H 0.43134 0.08249 0.19501 0.0
H358 H 0.41335 0.06178 0.26144 0.0
H359 H 0.44211 0.03787 0.33257 0.0
H360 H 0.39947 0.9869 0.52783 0.0
H361 H 0.4069 1.01211 0.47081 0.0
H362 H 0.37294 1.00284 0.34046 0.0
C363 C 0.42318 0.0591 0.24212 0.0
C364 C 0.42701 0.03046 0.33422 0.0
C365 C 0.43354 0.07096 0.20446 0.0
C366 C 0.39277 0.98347 0.49272 0.0
C367 C 0.39701 0.99787 0.46016 0.0
C368 C 0.38803 1.01063 0.33924 0.0
C369 C 0.42604 0.0443 0.25574 0.0
C370 C 0.41644 0.03262 0.29783 0.0
C371 C 0.38989 0.9938 0.41297 0.0
C372 C 0.39868 1.00815 0.37508 0.0
H373 H 0.45899 0.05009 0.17378 0.0
H374 H 0.4412 0.02968 0.24017 0.0
H375 H 0.38852 0.02447 0.27309 0.0
H376 H 0.36328 0.94644 0.42217 0.0
H377 H 0.37109 0.97176 0.36441 0.0
C378 C 0.37176 0.41819 0.19644 0.0
C379 C 0.38615 0.43666 0.18887 0.0
C380 C 0.37402 0.40682 0.23032 0.0
C381 C 0.40037 0.40935 0.33909 0.0
H382 H 0.39842 0.36352 0.29615 0.0
C383 C 0.42748 0.37223 0.46105 0.0
C384 C 0.44076 0.36882 0.43863 0.0
C385 C 0.41555 0.37598 0.43345 0.0
C386 C 0.39884 0.37619 0.30877 0.0
H387 H 0.41392 0.45785 0.21137 0.0
H388 H 0.41765 0.43824 0.27064 0.0
H389 H 0.38717 0.37961 0.2428 0.0
H390 H 0.45109 0.36541 0.36969 0.0
H391 H 0.43049 0.37228 0.3215 0.0
H392 H 0.41291 0.40669 0.40375 0.0
C393 C 0.4047 0.43248 0.25045 0.0
C394 C 0.39226 0.38527 0.27847 0.0
C395 C 0.4026 0.44366 0.21625 0.0
C396 C 0.44108 0.36809 0.38803 0.0
C397 C 0.42916 0.37187 0.3604 0.0
C398 C 0.4068 0.40025 0.3694 0.0
C399 C 0.39051 0.41397 0.25771 0.0
C400 C 0.39362 0.40228 0.2928 0.0
C401 C 0.41667 0.37643 0.38286 0.0
C402 C 0.40669 0.38392 0.35397 0.0
H403 H 0.35896 0.41247 0.17564 0.0
H404 H 0.36292 0.39254 0.23532 0.0
H405 H 0.40147 0.42242 0.35095 0.0
H406 H 0.4267 0.37265 0.49999 0.0
H407 H 0.40588 0.37917 0.45175 0.0
C408 C 0.07724 0.42319 0.40766 0.0
C409 C 0.08122 0.4419 0.4093 0.0
C410 C 0.06515 0.41093 0.3725 0.0
C411 C 0.04372 0.40954 0.25448 0.0
H412 H 1.00196 0.36307 0.29979 0.0
C413 C 0.9835 0.36364 0.12704 0.0
C414 C 0.96612 0.35996 0.14514 0.0
C415 C 0.99884 0.36965 0.15795 0.0
C416 C 1.01364 0.3759 0.28654 0.0
H417 H 0.0762 0.4626 0.37446 0.0
H418 H 0.05527 0.44131 0.3131 0.0
H419 H 0.0274 0.38252 0.35529 0.0
H420 H 0.95078 0.35804 0.21029 0.0
H421 H 0.97748 0.36849 0.26407 0.0
H422 H 0.02964 0.40346 0.18648 0.0
C423 C 0.06149 0.4361 0.33885 0.0
C424 C 0.02825 0.38696 0.31817 0.0
C425 C 0.07338 0.44826 0.37421 0.0
C426 C 0.96402 0.3609 0.19518 0.0
C427 C 0.97931 0.36678 0.22608 0.0
C428 C 0.02922 0.39844 0.22282 0.0
C429 C 0.05705 0.41725 0.33799 0.0
C430 C 0.04314 0.40416 0.30279 0.0
C431 C 0.99703 0.37191 0.20754 0.0
C432 C 1.01376 0.38177 0.23887 0.0
H433 H 0.08307 0.41788 0.43428 0.0
H434 H 0.06201 0.39649 0.37249 0.0
H435 H 0.05513 0.42265 0.24158 0.0
H436 H 0.98557 0.36296 0.08868 0.0
H437 H 1.01229 0.37327 0.14277 0.0
C438 C 0.61215 0.9627 0.16325 0.0
C439 C 0.59804 0.94684 0.18653 0.0
C440 C 0.62499 0.97813 0.19001 0.0
C441 C 0.64194 0.99549 0.31446 0.0
H442 H 0.64237 0.04019 0.26822 0.0
C443 C 0.66808 0.06413 0.42722 0.0
C444 C 0.65352 0.0682 0.43231 0.0
C445 C 0.66664 0.05087 0.39318 0.0
C446 C 0.64269 0.02792 0.28116 0.0
H447 H 0.58708 0.93418 0.25611 0.0
H448 H 0.6092 0.96131 0.30283 0.0
H449 H 0.63049 0.01281 0.21626 0.0
H450 H 0.6264 0.06212 0.40519 0.0
H451 H 0.62409 0.03941 0.34568 0.0
H452 H 0.65303 1.01048 0.38079 0.0
C453 C 0.61053 0.96174 0.26393 0.0
C454 C 0.636 1.01226 0.25135 0.0
C455 C 0.59772 0.94625 0.23715 0.0
C456 C 0.6378 0.05921 0.40225 0.0
C457 C 0.63653 0.04632 0.36789 0.0
C458 C 0.64875 1.01127 0.34429 0.0
C459 C 0.62393 0.97805 0.24057 0.0
C460 C 0.63482 0.99562 0.26838 0.0
C461 C 0.65085 0.04194 0.3632 0.0
C462 C 0.64839 0.02729 0.32849 0.0
H463 H 0.61295 0.96345 0.12425 0.0
H464 H 0.63533 0.99039 0.17104 0.0
H465 H 0.64141 0.98293 0.32827 0.0
H466 H 0.68033 0.07088 0.45014 0.0
H467 H 0.67779 0.04759 0.3902 0.0
C468 C 0.66426 0.60958 0.16564 0.0
C469 C 0.65203 0.59027 0.17081 0.0
C470 C 0.66218 0.62238 0.1947 0.0
C471 C 0.64303 0.62669 0.30945 0.0
H472 H 0.63033 0.6609 0.24585 0.0
C473 C 0.61492 0.66574 0.41912 0.0
C474 C 0.5976 0.66278 0.40213 0.0
C475 C 0.6265 0.66234 0.38933 0.0
C476 C 0.63406 0.65157 0.26409 0.0
H477 H 0.62863 0.56912 0.21128 0.0
H478 H 0.62538 0.59134 0.26259 0.0
H479 H 0.64217 0.64388 0.1982 0.0
H480 H 0.57952 0.65539 0.33942 0.0
H481 H 0.59968 0.64919 0.28746 0.0
H482 H 0.63411 0.63347 0.37482 0.0
C483 C 0.6364 0.59663 0.23597 0.0
C484 C 0.64097 0.64199 0.23695 0.0
C485 C 0.63821 0.58394 0.20644 0.0
C486 C 0.59273 0.6577 0.35363 0.0
C487 C 0.60434 0.65427 0.32377 0.0
C488 C 0.63634 0.63636 0.33656 0.0
C489 C 0.64819 0.61594 0.22999 0.0
C490 C 0.64487 0.629 0.25929 0.0
C491 C 0.62101 0.65589 0.34192 0.0
C492 C 0.6312 0.64844 0.31398 0.0
H493 H 0.67497 0.61477 0.13817 0.0
H494 H 0.67139 0.63725 0.18951 0.0
H495 H 0.64597 0.61673 0.32738 0.0
H496 H 0.61922 0.66993 0.45613 0.0
H497 H 0.6394 0.66399 0.40404 0.0
C498 C 0.95985 0.61428 0.42521 0.0
C499 C 0.94633 0.59701 0.40585 0.0
C500 C 0.97469 0.627 0.39694 0.0
C501 C 0.99468 0.63639 0.27277 0.0
H502 H 0.04032 0.64833 0.3412 0.0
C503 C 0.06605 0.66271 0.17744 0.0
C504 C 0.07298 0.65051 0.18698 0.0
C505 C 0.05156 0.66191 0.20542 0.0
C506 C 0.02774 0.6454 0.32178 0.0
H507 H 0.93675 0.58027 0.34061 0.0
H508 H 0.96288 0.60224 0.29154 0.0
H509 H 1.01139 0.63668 0.38576 0.0
H510 H 0.07094 0.62858 0.23422 0.0
H511 H 0.04607 0.62745 0.28331 0.0
H512 H 1.01109 0.64397 0.20826 0.0
C513 C 0.96196 0.6061 0.32837 0.0
C514 C 1.01116 0.63886 0.3473 0.0
C515 C 0.94702 0.59342 0.3566 0.0
C516 C 0.06581 0.6381 0.22597 0.0
C517 C 0.05167 0.63755 0.25429 0.0
C518 C 1.01136 0.64304 0.2472 0.0
C519 C 0.97638 0.62264 0.34887 0.0
C520 C 0.99429 0.63354 0.32287 0.0
C521 C 0.0442 0.64922 0.24388 0.0
C522 C 0.02784 0.6468 0.27135 0.0
H523 H 0.9595 0.61759 0.46289 0.0
H524 H 0.98538 0.6398 0.41348 0.0
H525 H 0.98194 0.63262 0.25306 0.0
H526 H 0.07132 0.67235 0.14739 0.0
H527 H 0.04597 0.67101 0.19672 0.0
C528 C 0.64223 0.06406 0.66817 0.0
C529 C 0.64458 0.08193 0.67803 0.0
C530 C 0.63523 0.04984 0.70331 0.0
C531 C 0.60767 0.03566 0.81819 0.0
H532 H 0.62297 0.9981 0.82339 0.0
C533 C 0.56501 0.96662 0.92478 0.0
C534 C 0.5741 0.95838 0.94946 0.0
C535 C 0.57477 0.98211 0.89441 0.0
C536 C 0.6186 1.00853 0.82292 0.0
H537 H 0.64158 0.09867 0.73391 0.0
H538 H 0.62969 0.07413 0.79511 0.0
H539 H 0.63803 0.02416 0.76682 0.0
H540 H 0.60105 0.96047 0.9606 0.0
H541 H 0.61819 0.98763 0.90742 0.0
H542 H 0.58838 0.02019 0.87442 0.0
C543 C 0.63299 0.07094 0.75983 0.0
C544 C 0.62713 0.02346 0.78984 0.0
C545 C 0.64002 0.08517 0.72467 0.0
C546 C 0.59348 0.96633 0.9425 0.0
C547 C 0.60331 0.9819 0.91162 0.0
C548 C 0.59912 0.02074 0.85105 0.0
C549 C 0.63026 0.0529 0.74971 0.0
C550 C 0.62173 0.03726 0.78655 0.0
C551 C 0.5941 0.99011 0.88712 0.0
C552 C 0.60425 1.00674 0.85376 0.0
H553 H 0.64543 0.06085 0.63276 0.0
H554 H 0.6332 0.03621 0.69341 0.0
H555 H 0.60286 0.04573 0.81691 0.0
H556 H 0.55014 0.96108 0.92865 0.0
H557 H 0.56696 0.98761 0.87586 0.0
C558 C 0.6351 0.55929 0.88323 0.0
C559 C 0.64328 0.56797 0.92754 0.0
C560 C 0.62828 0.56767 0.85049 0.0
C561 C 0.61308 0.60396 0.84543 0.0
H562 H 0.61602 0.59964 0.70703 0.0
C563 C 0.57639 0.63087 0.71342 0.0
C564 C 0.58469 0.63846 0.66858 0.0
C565 C 0.58347 0.62212 0.7438 0.0
C566 C 0.61511 0.60113 0.74555 0.0
H567 H 0.65098 0.59274 0.97084 0.0
H568 H 0.63959 0.60733 0.91414 0.0
H569 H 0.62847 0.58492 0.76067 0.0
H570 H 0.60735 0.6428 0.62138 0.0
H571 H 0.61997 0.62805 0.67462 0.0
H572 H 0.60004 0.62038 0.83062 0.0
C573 C 0.638 0.59383 0.90477 0.0
C574 C 0.62213 0.59245 0.77657 0.0
C575 C 0.64477 0.58548 0.93736 0.0
C576 C 0.60053 0.63719 0.65553 0.0
C577 C 0.60769 0.62851 0.68608 0.0
C578 C 0.60598 0.61253 0.81451 0.0
C579 C 0.62938 0.58502 0.86095 0.0
C580 C 0.6214 0.59382 0.82719 0.0
C581 C 0.59927 0.62074 0.73084 0.0
C582 C 0.60687 0.61136 0.76389 0.0
H583 H 0.6335 0.54575 0.87429 0.0
H584 H 0.62164 0.56024 0.81753 0.0
H585 H 0.61187 0.60522 0.88396 0.0
H586 H 0.5641 0.63134 0.72483 0.0
H587 H 0.57623 0.61609 0.77721 0.0
C588 C 0.08343 0.62584 0.89806 0.0
C589 C 0.0828 0.63441 0.94153 0.0
C590 C 0.06856 0.61901 0.86457 0.0
C591 C 1.0177 0.60563 0.85417 0.0
H592 H 0.02649 0.60491 0.71725 0.0
C593 C 0.95587 0.56844 0.71707 0.0
C594 C 0.95789 0.57566 0.67002 0.0
C595 C 0.97103 0.57563 0.74962 0.0
C596 C 0.02365 0.60513 0.75527 0.0
H597 H 0.06584 0.6428 0.9826 0.0
H598 H 0.04044 0.63156 0.92429 0.0
H599 H 0.05272 0.6178 0.7732 0.0
H600 H 0.97777 0.59638 0.621 0.0
H601 H 1.00388 0.60926 0.67771 0.0
H602 H 0.98872 0.5935 0.83619 0.0
C603 C 0.05216 0.62956 0.91626 0.0
C604 C 0.03884 0.61234 0.78777 0.0
C605 C 0.06694 0.63626 0.9498 0.0
C606 C 0.97556 0.59043 0.65683 0.0
C607 C 0.99069 0.59772 0.68947 0.0
C608 C 1.00254 0.5985 0.82168 0.0
C609 C 0.05251 0.62058 0.87315 0.0
C610 C 0.0362 0.61278 0.83796 0.0
C611 C 0.98879 0.59041 0.73652 0.0
C612 C 1.00516 0.59809 0.7715 0.0
H613 H 0.09525 0.62396 0.89034 0.0
H614 H 0.0695 0.61204 0.83244 0.0
H615 H 1.01478 0.6053 0.89229 0.0
H616 H 0.94263 0.55688 0.72855 0.0
H617 H 0.96883 0.56924 0.78486 0.0
C618 C 0.4398 0.05656 0.9613 0.0
C619 C 0.45629 0.07281 0.9475 0.0
C620 C 0.43194 0.04035 0.93212 0.0
C621 C 0.43182 0.02479 0.80516 0.0
H622 H 0.40882 0.97498 0.85998 0.0
C623 C 0.3901 0.95937 0.68432 0.0
C624 C 0.39166 0.94331 0.69278 0.0
C625 C 0.39731 0.97436 0.71724 0.0
C626 C 0.41527 0.98876 0.84388 0.0
H627 H 0.47736 0.08444 0.89178 0.0
H628 H 0.46381 0.05648 0.8414 0.0
H629 H 0.42297 1.0024 0.91313 0.0
H630 H 0.40186 0.93054 0.74392 0.0
H631 H 0.41451 0.95669 0.80124 0.0
H632 H 0.42449 1.01136 0.73606 0.0
C633 C 0.45674 0.05621 0.87447 0.0
C634 C 0.42325 1.00456 0.87456 0.0
C635 C 0.4646 0.07233 0.90362 0.0
C636 C 0.40022 0.94254 0.73615 0.0
C637 C 0.4075 0.95762 0.76918 0.0
C638 C 0.4238 1.00906 0.77462 0.0
C639 C 0.44024 0.03993 0.88802 0.0
C640 C 0.43166 0.02287 0.85569 0.0
C641 C 0.40646 0.97396 0.75988 0.0
C642 C 0.41527 0.99073 0.7933 0.0
H643 H 0.43303 0.05629 0.99495 0.0
H644 H 0.41918 0.02822 0.94384 0.0
H645 H 0.43795 0.03853 0.78893 0.0
H646 H 0.3836 0.96059 0.65156 0.0
H647 H 0.39576 0.98637 0.70895 0.0
C648 C 0.46033 0.42088 0.65917 0.0
C649 C 0.45847 0.4029 0.66099 0.0
C650 C 0.45089 0.42634 0.69181 0.0
C651 C 0.42955 0.41626 0.81393 0.0
H652 H 0.40846 0.44675 0.77175 0.0
C653 C 0.39148 0.44038 0.94979 0.0
C654 C 0.39243 0.45781 0.94284 0.0
C655 C 0.39816 0.43277 0.91469 0.0
C656 C 0.41449 0.43851 0.7847 0.0
H657 H 0.44489 0.37654 0.6993 0.0
H658 H 0.42851 0.38612 0.75674 0.0
H659 H 0.42226 0.43523 0.71297 0.0
H660 H 0.40135 0.48079 0.89255 0.0
H661 H 0.41336 0.46793 0.83231 0.0
H662 H 0.42236 0.41995 0.88577 0.0
C663 C 0.43732 0.39602 0.72967 0.0
C664 C 0.42238 0.43176 0.7506 0.0
C665 C 0.44658 0.39043 0.69636 0.0
C666 C 0.40013 0.46726 0.89926 0.0
C667 C 0.40701 0.45975 0.86435 0.0
C668 C 0.42185 0.42319 0.84817 0.0
C669 C 0.4394 0.41413 0.72812 0.0
C670 C 0.43014 0.42058 0.76456 0.0
C671 C 0.40629 0.44238 0.87139 0.0
C672 C 0.41421 0.43454 0.83437 0.0
H673 H 0.46937 0.43096 0.63271 0.0
H674 H 0.45308 0.44043 0.68944 0.0
H675 H 0.43557 0.40795 0.82646 0.0
H676 H 0.38564 0.43259 0.98271 0.0
H677 H 0.39685 0.41923 0.92171 0.0
C678 C 0.07689 0.45865 0.71296 0.0
C679 C 0.07642 0.44981 0.66891 0.0
C680 C 0.06133 0.45132 0.74373 0.0
C681 C 0.01894 0.40765 0.77872 0.0
H682 H 1.00249 0.44044 0.83329 0.0
C683 C 0.96675 0.38625 0.94069 0.0
C684 C 0.95247 0.3909 0.93794 0.0
C685 C 0.98105 0.39273 0.90597 0.0
C686 C 1.00682 0.43104 0.81832 0.0
H687 H 0.05896 0.42592 0.62369 0.0
H688 H 0.03206 0.41268 0.67843 0.0
H689 H 0.02878 0.45302 0.77704 0.0
H690 H 0.94236 0.40626 0.89582 0.0
H691 H 0.96747 0.41785 0.83608 0.0
H692 H 0.99726 0.38578 0.82089 0.0
C693 C 0.04448 0.42553 0.68868 0.0
C694 C 0.02202 0.4383 0.78622 0.0
C695 C 0.05993 0.43314 0.6572 0.0
C696 C 0.95296 0.40221 0.89914 0.0
C697 C 0.96749 0.40901 0.86497 0.0
C698 C 1.00398 0.40048 0.81163 0.0
C699 C 0.04487 0.4346 0.73226 0.0
C700 C 0.02834 0.42673 0.76585 0.0
C701 C 0.98182 0.40442 0.86785 0.0
C702 C 0.99764 0.41204 0.83198 0.0
H703 H 0.08924 0.47152 0.72345 0.0
H704 H 0.06228 0.45868 0.77697 0.0
H705 H 0.02341 0.39831 0.7641 0.0
H706 H 0.96697 0.37767 0.96998 0.0
H707 H 0.99183 0.38896 0.90978 0.0
C708 C 0.48531 0.91993 0.89709 0.0
C709 C 0.47954 0.90797 0.93715 0.0
C710 C 0.47732 0.93112 0.88767 0.0
C711 C 0.45723 0.95284 0.96461 0.0
H712 H 0.46639 0.98382 0.85144 0.0
C713 C 0.46507 0.02557 0.98247 0.0
C714 C 0.48203 0.03969 0.96376 0.0
C715 C 0.45814 1.00692 0.96892 0.0
C716 C 0.46362 0.9752 0.88324 0.0
H717 H 0.45865 0.89553 0.99292 0.0
H718 H 0.44387 0.91418 0.97472 0.0
H719 H 0.46347 0.95287 0.84304 0.0
H720 H 0.5044 0.04568 0.91377 0.0
H721 H 0.49247 0.01296 0.89058 0.0
H722 H 0.45795 0.9753 1.00495 0.0
C723 C 0.45532 0.91588 0.95233 0.0
C724 C 0.46198 0.95747 0.87853 0.0
C725 C 0.46362 0.90498 0.96244 0.0
C726 C 0.49141 0.035 0.92918 0.0
C727 C 0.48445 0.01631 0.9155 0.0
C728 C 0.45862 0.97037 0.96915 0.0
C729 C 0.46316 0.93025 0.91763 0.0
C730 C 0.45967 0.94642 0.91955 0.0
C731 C 0.46801 1.00201 0.93626 0.0
C732 C 0.46265 0.98208 0.92892 0.0
H733 H 0.49743 0.92233 0.8765 0.0
H734 H 0.48373 0.9418 0.86028 0.0
H735 H 0.45575 0.94507 0.99736 0.0
H736 H 0.45735 0.02887 1.00847 0.0
H737 H 0.44532 0.99624 0.98505 0.0
C738 C 0.46438 0.52809 0.03044 0.0
C739 C 0.44897 0.51519 0.05718 0.0
C740 C 0.48189 0.52993 0.03863 0.0
C741 C 0.50213 0.50203 0.08185 0.0
H742 H 0.54877 0.54855 0.06731 0.0
C743 C 0.58643 0.53085 0.07728 0.0
C744 C 0.58633 0.51767 0.04491 0.0
C745 C 0.56993 0.53091 0.0875 0.0
C746 C 0.53587 0.53549 0.07222 0.0
H747 H 0.43971 0.49493 0.11523 0.0
H748 H 0.47036 0.49834 0.13007 0.0
H749 H 0.51954 0.54915 0.07175 0.0
H750 H 0.56916 0.49411 0.99836 0.0
H751 H 0.54034 0.4943 1.01574 0.0
H752 H 0.51839 0.48835 0.08182 0.0
C753 C 0.4689 0.50674 0.10216 0.0
C754 C 0.51916 0.53582 0.07426 0.0
C755 C 0.4514 0.50482 0.09374 0.0
C756 C 0.56953 0.50437 0.02353 0.0
C757 C 0.55305 0.50441 0.03376 0.0
C758 C 0.51881 0.50171 0.07987 0.0
C759 C 0.48422 0.51897 0.07388 0.0
C760 C 0.5021 0.51905 0.07799 0.0
C761 C 0.55312 0.51776 0.06557 0.0
C762 C 0.53578 0.51838 0.07382 0.0
H763 H 0.46278 0.53626 1.00212 0.0
H764 H 0.4934 0.53932 1.01589 0.0
H765 H 0.4892 0.48884 0.08426 0.0
H766 H 0.59926 0.54122 0.09429 0.0
H767 H 0.57032 0.54126 0.11242 0.0
C768 C 0.08043 0.56363 0.05508 0.0
C769 C 0.0838 0.5807 0.07487 0.0
C770 C 0.06525 0.54695 0.07066 0.0
C771 C 0.0189 0.53004 0.11987 0.0
H772 H 0.01855 0.48274 0.11724 0.0
C773 C 0.96495 0.44496 0.11176 0.0
C774 C 0.95323 0.44512 0.07525 0.0
C775 C 0.98017 0.46166 0.12752 0.0
C776 C 0.01839 0.49581 0.11928 0.0
H777 H 0.07487 0.59391 0.12815 0.0
H778 H 0.04834 0.56466 0.15575 0.0
H779 H 0.04816 0.51188 0.11837 0.0
H780 H 0.94748 0.46259 0.02795 0.0
H781 H 0.97436 0.49178 0.05435 0.0
H782 H 0.98912 0.51397 0.11969 0.0
C783 C 0.05721 0.56417 0.12774 0.0
C784 C 0.03536 0.51249 0.11935 0.0
C785 C 0.07235 0.58086 0.11196 0.0
C786 C 0.95642 0.46218 0.05604 0.0
C787 C 0.97168 0.47887 0.07159 0.0
C788 C 1.00193 0.51335 0.12009 0.0
C789 C 0.05329 0.54709 0.1065 0.0
C790 C 0.03575 0.52973 0.11744 0.0
C791 C 0.98392 0.47874 0.10681 0.0
C792 C 1.00153 0.49611 0.11759 0.0
H793 H 0.08915 0.56321 0.02653 0.0
H794 H 0.06242 0.53404 0.05302 0.0
H795 H 0.01874 0.54311 0.1183 0.0
H796 H 0.96257 0.43191 0.12751 0.0
H797 H 0.98925 0.46118 0.15508 0.0
C798 C 0.97114 0.52587 0.65289 0.0
C799 C 0.95313 0.5163 0.67216 0.0
C800 C 0.98593 0.52577 0.67674 0.0
C801 C 1.01684 0.53064 0.74189 0.0
H802 H 1.01009 0.48155 0.77006 0.0
C803 C 0.079 0.51934 0.72949 0.0
C804 C 0.07498 0.50477 0.69688 0.0
C805 C 0.06445 0.52054 0.75191 0.0
C806 C 1.0122 0.49542 0.76305 0.0
H807 H 0.93632 0.49926 0.73162 0.0
H808 H 0.96237 0.49878 0.77331 0.0
H809 H 0.98287 0.48528 0.75821 0.0
H810 H 0.05302 0.47906 0.6656 0.0
H811 H 0.02784 0.48129 0.7032 0.0
H812 H 0.04605 0.54046 0.74133 0.0
C813 C 0.96498 0.50641 0.73977 0.0
C814 C 0.99659 0.49758 0.75669 0.0
C815 C 0.95011 0.50659 0.71585 0.0
C816 C 0.05645 0.49068 0.68986 0.0
C817 C 0.042 0.4918 0.71224 0.0
C818 C 0.03242 0.52844 0.74759 0.0
C819 C 0.98307 0.5161 0.72049 0.0
C820 C 0.99882 0.51497 0.74266 0.0
C821 C 0.04574 0.50712 0.7421 0.0
C822 C 0.03022 0.51054 0.75469 0.0
H823 H 0.97387 0.53355 0.61939 0.0
H824 H 0.99958 0.53295 0.66016 0.0
H825 H 0.01893 0.54434 0.73262 0.0
H826 H 0.09327 0.53019 0.73602 0.0
H827 H 0.0678 0.53239 0.77518 0.0
C828 C 0.44964 0.96461 0.55001 0.0
C829 C 0.4493 0.95055 0.57933 0.0
C830 C 0.46635 0.98117 0.54224 0.0
C831 C 0.51733 1.00164 0.55019 0.0
H832 H 0.51763 0.04874 0.56354 0.0
C833 C 0.57345 0.08221 0.59881 0.0
C834 C 0.58832 0.08436 0.57009 0.0
C835 C 0.55574 0.06666 0.59245 0.0
C836 C 0.51774 0.03569 0.55971 0.0
H837 H 0.4659 0.94246 0.62311 0.0
H838 H 0.4951 0.97148 0.61007 0.0
H839 H 0.48812 0.01934 0.56726 0.0
H840 H 0.59641 0.07284 0.51052 0.0
H841 H 0.56543 0.04589 0.49877 0.0
H842 H 0.54695 0.01784 0.54491 0.0
C843 C 0.48257 0.96965 0.5925 0.0
C844 C 0.50085 0.01889 0.56132 0.0
C845 C 0.46587 0.95311 0.60023 0.0
C846 C 0.58514 0.07131 0.53351 0.0
C847 C 0.56746 0.05588 0.5269 0.0
C848 C 0.53419 0.0184 0.54868 0.0
C849 C 0.48294 0.98388 0.56365 0.0
C850 C 0.50055 1.0017 0.55745 0.0
C851 C 0.55268 0.05316 0.55706 0.0
C852 C 0.53459 0.03559 0.55418 0.0
H853 H 0.43698 0.96288 0.53341 0.0
H854 H 0.46629 0.99184 0.51948 0.0
H855 H 0.51747 0.9886 0.54647 0.0
H856 H 0.57563 0.09215 0.62722 0.0
H857 H 0.54467 0.06484 0.61657 0.0
C858 C 0.5416 0.56961 0.70316 0.0
C859 C 0.55156 0.58235 0.66647 0.0
C860 C 0.5482 0.55831 0.72272 0.0
C861 C 0.57667 0.53799 0.68396 0.0
H862 H 0.5612 0.51315 0.80766 0.0
C863 C 0.56408 0.46557 0.69269 0.0
C864 C 0.54531 0.45383 0.70477 0.0
C865 C 0.57346 0.48412 0.70875 0.0
C866 C 0.5659 0.52012 0.77323 0.0
H867 H 0.57689 0.5945 0.62406 0.0
H868 H 0.58859 0.57518 0.65866 0.0
H869 H 0.56124 0.54255 0.79433 0.0
H870 H 0.52244 0.45115 0.74858 0.0
H871 H 0.53835 0.48354 0.77481 0.0
H872 H 0.58019 0.51528 0.6614 0.0
C873 C 0.57544 0.57339 0.67154 0.0
C874 C 0.56581 0.53689 0.76549 0.0
C875 C 0.56869 0.58441 0.65152 0.0
C876 C 0.53685 0.46006 0.73817 0.0
C877 C 0.5461 0.47866 0.75361 0.0
C878 C 0.57683 0.52137 0.69171 0.0
C879 C 0.56502 0.55978 0.7063 0.0
C880 C 0.57008 0.54536 0.71972 0.0
C881 C 0.56401 0.49125 0.73608 0.0
C882 C 0.57028 0.51159 0.73533 0.0
H883 H 0.52846 0.56798 0.71571 0.0
H884 H 0.53962 0.54781 0.74889 0.0
H885 H 0.58001 0.54397 0.64814 0.0
H886 H 0.57103 0.4609 0.66777 0.0
H887 H 0.58747 0.49331 0.69586 0.0
C888 C 0.53026 0.13026 0.18752 0.0
C889 C 0.52689 0.11704 0.15088 0.0
C890 C 0.54327 0.13358 0.22477 0.0
C891 C 0.56877 0.1114 0.2831 0.0
H892 H 0.60044 0.16054 0.33851 0.0
C893 C 0.63135 0.12526 0.40316 0.0
C894 C 0.63422 0.13529 0.44653 0.0
C895 C 0.61877 0.12459 0.36808 0.0
C896 C 0.5916 0.14669 0.32371 0.0
H897 H 0.53535 0.09752 0.12445 0.0
H898 H 0.5579 0.1035 0.18759 0.0
H899 H 0.57745 0.15634 0.27637 0.0
H900 H 0.62637 0.15317 0.48557 0.0
H901 H 0.6045 0.15219 0.42377 0.0
H902 H 0.58295 0.10175 0.32966 0.0
C903 C 0.55019 0.11098 0.18891 0.0
C904 C 0.57833 0.14425 0.28803 0.0
C905 C 0.53722 0.10761 0.15215 0.0
C906 C 0.62467 0.14539 0.45261 0.0
C907 C 0.61207 0.1448 0.41714 0.0
C908 C 0.58204 0.11387 0.31827 0.0
C909 C 0.55332 0.12381 0.22635 0.0
C910 C 0.56686 0.12658 0.26657 0.0
C911 C 0.60857 0.13396 0.37487 0.0
C912 C 0.59387 0.13157 0.33875 0.0
H913 H 0.52263 0.13783 0.18791 0.0
H914 H 0.54514 0.14351 0.25287 0.0
H915 H 0.55993 0.09745 0.26894 0.0
H916 H 0.63842 0.11735 0.39675 0.0
H917 H 0.61683 0.11643 0.3357 0.0
C918 C 0.41377 0.54139 0.16487 0.0
C919 C 0.40318 0.522 0.17358 0.0
C920 C 0.42645 0.55363 0.19971 0.0
C921 C 0.43919 0.5568 0.33096 0.0
H922 H 0.48785 0.59593 0.28969 0.0
C923 C 0.50015 0.59343 0.46667 0.0
C924 C 0.51301 0.61271 0.46226 0.0
C925 C 0.48668 0.58369 0.431 0.0
C926 C 0.47426 0.58526 0.30199 0.0
H927 H 0.3975 0.50054 0.2268 0.0
H928 H 0.41925 0.52165 0.28698 0.0
H929 H 0.46428 0.57684 0.22949 0.0
H930 H 0.52156 0.63666 0.4154 0.0
H931 H 0.49792 0.61963 0.35306 0.0
H932 H 0.44908 0.56503 0.40329 0.0
C933 C 0.41777 0.52756 0.25349 0.0
C934 C 0.46067 0.57426 0.2673 0.0
C935 C 0.40524 0.51536 0.21869 0.0
C936 C 0.51197 0.62187 0.42036 0.0
C937 C 0.49842 0.61204 0.38438 0.0
C938 C 0.45272 0.56776 0.36552 0.0
C939 C 0.42882 0.54688 0.24446 0.0
C940 C 0.44298 0.55964 0.28121 0.0
C941 C 0.48543 0.59277 0.38933 0.0
C942 C 0.47062 0.582 0.35176 0.0
H943 H 0.41276 0.54705 0.13047 0.0
H944 H 0.43449 0.5684 0.1914 0.0
H945 H 0.42567 0.54603 0.34343 0.0
H946 H 0.50039 0.58568 0.49796 0.0
H947 H 0.47733 0.56885 0.43603 0.0
C948 C 0.88705 0.40569 0.16591 0.0
C949 C 0.89868 0.3978 0.17153 0.0
C950 C 0.88653 0.41776 0.20123 0.0
C951 C 0.9003 0.4338 0.32982 0.0
H952 H 0.89562 0.47631 0.28885 0.0
C953 C 0.89639 0.48432 0.47015 0.0
C954 C 0.90523 0.50358 0.4595 0.0
C955 C 0.89433 0.47112 0.43488 0.0
C956 C 0.8971 0.46462 0.30113 0.0
H957 H 0.91871 0.39643 0.21974 0.0
H958 H 0.91797 0.41738 0.28038 0.0
H959 H 0.89453 0.45403 0.22908 0.0
H960 H 0.91861 0.52381 0.40225 0.0
H961 H 0.91533 0.50096 0.34122 0.0
H962 H 0.90356 0.44469 0.40155 0.0
C963 C 0.90895 0.4141 0.24919 0.0
C964 C 0.8962 0.4516 0.26667 0.0
C965 C 0.90942 0.40203 0.21406 0.0
C966 C 0.91164 0.50914 0.41202 0.0
C967 C 0.90967 0.49594 0.37676 0.0
C968 C 0.90127 0.44683 0.3642 0.0
C969 C 0.89765 0.42237 0.2433 0.0
C970 C 0.89788 0.43598 0.28034 0.0
C971 C 0.90115 0.47668 0.38766 0.0
C972 C 0.89974 0.46254 0.35056 0.0
H973 H 0.87863 0.40288 0.13367 0.0
H974 H 0.87741 0.42352 0.19538 0.0
H975 H 0.9014 0.42192 0.34231 0.0
H976 H 0.89115 0.47935 0.50605 0.0
H977 H 0.88733 0.45649 0.44485 0.0
C978 C 0.40879 0.90331 0.41617 0.0
C979 C 0.40652 0.89379 0.46001 0.0
C980 C 0.42141 0.90416 0.38111 0.0
C981 C 0.45012 0.88302 0.3402 0.0
H982 H 0.47846 0.93074 0.2757 0.0
C983 C 0.51011 0.89832 0.20205 0.0
C984 C 0.51123 0.90902 0.1612 0.0
C985 C 0.49797 0.89608 0.24051 0.0
C986 C 0.47057 0.91721 0.29278 0.0
H987 H 0.41563 0.87713 0.50014 0.0
H988 H 0.43762 0.87853 0.4388 0.0
H989 H 0.45582 0.92692 0.33683 0.0
H990 H 0.50027 0.92576 0.12962 0.0
H991 H 0.4794 0.92179 0.19535 0.0
H992 H 0.46493 0.87333 0.29562 0.0
C993 C 0.42951 0.88532 0.43151 0.0
C994 C 0.45748 0.915 0.32808 0.0
C995 C 0.41684 0.8845 0.46681 0.0
C996 C 0.50001 0.91749 0.16032 0.0
C997 C 0.488 0.91529 0.19849 0.0
C998 C 0.46325 0.88522 0.30462 0.0
C999 C 0.43231 0.89553 0.38849 0.0
C1000 C 0.44682 0.89781 0.352 0.0
C1001 C 0.4867 0.90455 0.23933 0.0
C1002 C 0.47352 0.9023 0.27978 0.0
H1003 H 0.40111 0.91059 0.40924 0.0
H1004 H 0.42275 0.91179 0.34818 0.0
H1005 H 0.4422 0.86954 0.35753 0.0
H1006 H 0.51845 0.89151 0.20414 0.0
H1007 H 0.49755 0.88781 0.27135 0.0
C1008 C 0.5239 0.41042 0.4162 0.0
C1009 C 0.53036 0.41389 0.46419 0.0
C1010 C 0.53612 0.41994 0.37763 0.0
C1011 C 0.58327 0.46255 0.35517 0.0
H1012 H 0.57595 0.443 0.22496 0.0
C1013 C 0.6262 0.51046 0.19802 0.0
C1014 C 0.63054 0.5031 0.15733 0.0
C1015 C 0.61425 0.49876 0.23403 0.0
C1016 C 0.57843 0.44866 0.2612 0.0
H1017 H 0.55497 0.42913 0.50879 0.0
H1018 H 0.57619 0.44461 0.44271 0.0
H1019 H 0.555 0.42375 0.289 0.0
H1020 H 0.62558 0.47728 0.12348 0.0
H1021 H 0.60534 0.4568 0.1875 0.0
H1022 H 0.60708 0.487 0.32851 0.0
C1023 C 0.56163 0.43544 0.43412 0.0
C1024 C 0.56614 0.43764 0.29808 0.0
C1025 C 0.54942 0.42632 0.47237 0.0
C1026 C 0.62272 0.48353 0.15434 0.0
C1027 C 0.61087 0.47173 0.19098 0.0
C1028 C 0.59564 0.47337 0.3187 0.0
C1029 C 0.5552 0.43294 0.38603 0.0
C1030 C 0.56829 0.4444 0.34586 0.0
C1031 C 0.60633 0.47915 0.23146 0.0
C1032 C 0.5934 0.46681 0.2708 0.0
H1033 H 0.50928 0.40099 0.40862 0.0
H1034 H 0.53042 0.41755 0.34146 0.0
H1035 H 0.58543 0.4687 0.39076 0.0
H1036 H 0.63161 0.52539 0.20161 0.0
H1037 H 0.6109 0.50524 0.2634 0.0
C1038 C 0.13208 0.62756 0.21724 0.0
C1039 C 0.13952 0.6281 0.17124 0.0
C1040 C 0.13169 0.6153 0.25298 0.0
C1041 C 0.1504 0.58357 0.28808 0.0
H1042 H 0.10611 0.5607 0.36772 0.0
C1043 C 0.13393 0.52238 0.42368 0.0
C1044 C 0.12582 0.52267 0.46815 0.0
C1045 C 0.13634 0.5352 0.38681 0.0
C1046 C 0.11871 0.56706 0.34632 0.0
H1047 H 0.15291 0.61627 0.1277 0.0
H1048 H 0.15219 0.59483 0.18994 0.0
H1049 H 0.10942 0.58315 0.30625 0.0
H1050 H 0.11412 0.53711 0.50811 0.0
H1051 H 0.11835 0.5592 0.44474 0.0
H1052 H 0.15954 0.56722 0.3283 0.0
C1053 C 0.14679 0.60408 0.19861 0.0
C1054 C 0.12065 0.58007 0.31085 0.0
C1055 C 0.14724 0.61645 0.16276 0.0
C1056 C 0.12033 0.53625 0.47454 0.0
C1057 C 0.12266 0.54894 0.43781 0.0
C1058 C 0.14842 0.57047 0.32364 0.0
C1059 C 0.13861 0.60298 0.24402 0.0
C1060 C 0.1366 0.58874 0.28136 0.0
C1061 C 0.1306 0.54862 0.39316 0.0
C1062 C 0.13261 0.56212 0.35372 0.0
H1063 H 0.12603 0.6363 0.22538 0.0
H1064 H 0.12571 0.61535 0.28764 0.0
H1065 H 0.16296 0.58994 0.26654 0.0
H1066 H 0.13835 0.51218 0.41715 0.0
H1067 H 0.14238 0.53434 0.35295 0.0
C1068 C 0.39634 0.86905 0.77498 0.0
C1069 C 0.39577 0.8651 0.72564 0.0
C1070 C 0.40496 0.86269 0.80721 0.0
C1071 C 0.42304 0.84729 0.87299 0.0
H1072 H 0.46722 0.84992 0.81693 0.0
C1073 C 0.48147 0.84926 0.99191 0.0
C1074 C 0.49959 0.86233 0.97754 0.0
C1075 C 0.46639 0.8447 0.96108 0.0
C1076 C 0.455 0.84925 0.83328 0.0
H1077 H 0.40174 0.84986 0.67153 0.0
H1078 H 0.41552 0.83747 0.72814 0.0
H1079 H 0.44396 0.85025 0.76478 0.0
H1080 H 0.51668 0.87978 0.91937 0.0
H1081 H 0.49047 0.87252 0.86595 0.0
H1082 H 0.43517 0.84818 0.94182 0.0
C1083 C 0.41034 0.84634 0.74193 0.0
C1084 C 0.44136 0.84902 0.8032 0.0
C1085 C 0.40228 0.85324 0.7095 0.0
C1086 C 0.50267 0.87005 0.93136 0.0
C1087 C 0.48766 0.86558 0.90058 0.0
C1088 C 0.43694 0.84796 0.90318 0.0
C1089 C 0.41275 0.85184 0.79077 0.0
C1090 C 0.42542 0.8486 0.82262 0.0
C1091 C 0.46929 0.85303 0.91527 0.0
C1092 C 0.45334 0.84952 0.88363 0.0
H1093 H 0.39149 0.8783 0.78812 0.0
H1094 H 0.40665 0.86746 0.84423 0.0
H1095 H 0.41077 0.84647 0.88936 0.0
H1096 H 0.47898 0.84281 0.02718 0.0
H1097 H 0.45249 0.83469 0.97315 0.0
C1098 C 0.51482 0.37364 0.76316 0.0
C1099 C 0.51479 0.37194 0.71277 0.0
C1100 C 0.53044 0.37671 0.78988 0.0
C1101 C 0.56731 0.39127 0.83885 0.0
H1102 H 0.60453 0.42952 0.75655 0.0
C1103 C 0.62222 0.46133 0.91903 0.0
C1104 C 0.62237 0.47648 0.8951 0.0
C1105 C 0.61446 0.44374 0.89687 0.0
C1106 C 0.5944 0.41885 0.78012 0.0
H1107 H 0.52873 0.36729 0.65255 0.0
H1108 H 0.55571 0.37201 0.69947 0.0
H1109 H 0.57844 0.40243 0.72048 0.0
H1110 H 0.61569 0.48539 0.82799 0.0
H1111 H 0.60186 0.45487 0.78988 0.0
H1112 H 0.5823 0.40894 0.89831 0.0
C1113 C 0.54427 0.37216 0.71807 0.0
C1114 C 0.57948 0.40302 0.75944 0.0
C1115 C 0.52872 0.36933 0.69117 0.0
C1116 C 0.61573 0.47401 0.8475 0.0
C1117 C 0.60795 0.45647 0.82544 0.0
C1118 C 0.58212 0.40727 0.85953 0.0
C1119 C 0.54613 0.37786 0.76662 0.0
C1120 C 0.56497 0.38972 0.78844 0.0
C1121 C 0.60671 0.44097 0.85035 0.0
C1122 C 0.59507 0.42183 0.83013 0.0
H1123 H 0.50401 0.37513 0.78122 0.0
H1124 H 0.531 0.38063 0.82738 0.0
H1125 H 0.55676 0.381 0.86239 0.0
H1126 H 0.62742 0.46283 0.95562 0.0
H1127 H 0.61393 0.43218 0.91682 0.0
C1128 C 0.16761 0.53057 0.75667 0.0
C1129 C 0.16652 0.53024 0.70621 0.0
C1130 C 0.17896 0.54731 0.78095 0.0
C1131 C 0.19629 0.59739 0.75537 0.0
H1132 H 0.19789 0.59732 0.89479 0.0
C1133 C 0.18015 0.63155 0.93467 0.0
C1134 C 0.16642 0.63423 0.91212 0.0
C1135 C 0.19081 0.6259 0.90778 0.0
C1136 C 0.19805 0.59812 0.85586 0.0
H1137 H 0.17875 0.54622 0.64125 0.0
H1138 H 0.19961 0.5752 0.68344 0.0
H1139 H 0.20069 0.57368 0.85053 0.0
H1140 H 0.1537 0.63421 0.84382 0.0
H1141 H 0.17096 0.62304 0.79752 0.0
H1142 H 0.19473 0.62243 0.76057 0.0
C1143 C 0.1908 0.56293 0.70466 0.0
C1144 C 0.19928 0.58415 0.83024 0.0
C1145 C 0.17899 0.54624 0.68033 0.0
C1146 C 0.16423 0.63225 0.86201 0.0
C1147 C 0.1744 0.62599 0.83536 0.0
C1148 C 0.19589 0.61182 0.78089 0.0
C1149 C 0.18983 0.56406 0.75523 0.0
C1150 C 0.19652 0.58251 0.77996 0.0
C1151 C 0.18742 0.62207 0.85805 0.0
C1152 C 0.19492 0.61136 0.83156 0.0
H1153 H 0.1583 0.51839 0.77767 0.0
H1154 H 0.17761 0.54722 0.81973 0.0
H1155 H 0.19462 0.59718 0.71664 0.0
H1156 H 0.1823 0.63336 0.97332 0.0
H1157 H 0.2011 0.62377 0.92658 0.0
C1158 C 0.65978 0.16619 0.75628 0.0
C1159 C 0.65943 0.17028 0.70747 0.0
C1160 C 0.65333 0.1739 0.79092 0.0
C1161 C 0.61883 0.19035 0.78943 0.0
H1162 H 0.61568 0.17395 0.92155 0.0
C1163 C 0.56149 0.14932 0.95053 0.0
C1164 C 0.54701 0.13768 0.91887 0.0
C1165 C 0.57859 0.16325 0.93249 0.0
C1166 C 0.61642 0.17907 0.88522 0.0
H1167 H 0.6553 0.18783 0.65673 0.0
H1168 H 0.64581 0.20282 0.71747 0.0
H1169 H 0.64441 0.18467 0.87767 0.0
H1170 H 0.53873 0.13187 0.8438 0.0
H1171 H 0.56851 0.15516 0.81231 0.0
H1172 H 0.59114 0.18554 0.7978 0.0
C1173 C 0.64954 0.19256 0.72926 0.0
C1174 C 0.63291 0.18489 0.85947 0.0
C1175 C 0.65523 0.18421 0.69433 0.0
C1176 C 0.54965 0.14063 0.86909 0.0
C1177 C 0.56676 0.15427 0.85107 0.0
C1178 C 0.60267 0.18527 0.81575 0.0
C1179 C 0.64682 0.18623 0.77742 0.0
C1180 C 0.63361 0.18863 0.80968 0.0
C1181 C 0.58162 0.16559 0.88242 0.0
C1182 C 0.6006 0.17775 0.86224 0.0
H1183 H 0.66306 0.1555 0.76717 0.0
H1184 H 0.65174 0.16853 0.82719 0.0
H1185 H 0.61863 0.19365 0.7518 0.0
H1186 H 0.5597 0.14753 0.98922 0.0
H1187 H 0.58954 0.17186 0.95781 0.0
C1188 C 0.49465 0.62418 0.75899 0.0
C1189 C 0.49666 0.62492 0.70876 0.0
C1190 C 0.47763 0.61997 0.77957 0.0
C1191 C 0.42774 0.59429 0.74719 0.0
H1192 H 0.42532 0.60098 0.88457 0.0
C1193 C 0.38445 0.53307 0.86476 0.0
C1194 C 0.3835 0.53569 0.91431 0.0
C1195 C 0.39161 0.54839 0.83371 0.0
C1196 C 0.42521 0.59908 0.84596 0.0
H1197 H 0.48316 0.62374 0.64065 0.0
H1198 H 0.4536 0.61717 0.6766 0.0
H1199 H 0.45243 0.62288 0.84061 0.0
H1200 H 0.38641 0.55546 0.9698 0.0
H1201 H 0.3973 0.58199 0.9152 0.0
H1202 H 0.40021 0.57094 0.75207 0.0
C1203 C 0.46488 0.61906 0.70021 0.0
C1204 C 0.44114 0.6116 0.82073 0.0
C1205 C 0.48184 0.6229 0.67956 0.0
C1206 C 0.38741 0.55327 0.93162 0.0
C1207 C 0.39388 0.5685 0.90026 0.0
C1208 C 0.41148 0.58217 0.77208 0.0
C1209 C 0.46229 0.61676 0.75043 0.0
C1210 C 0.44331 0.6083 0.77208 0.0
C1211 C 0.39752 0.56659 0.85153 0.0
C1212 C 0.41072 0.58329 0.82264 0.0
H1213 H 0.50584 0.6257 0.78242 0.0
H1214 H 0.4763 0.61803 0.81824 0.0
H1215 H 0.42854 0.59143 0.70943 0.0
H1216 H 0.38147 0.51957 0.85068 0.0
H1217 H 0.39407 0.54599 0.79678 0.0
C1218 C 0.85763 0.39846 0.94142 0.0
C1219 C 0.8707 0.39562 0.91593 0.0
C1220 C 0.84705 0.40504 0.91772 0.0
C1221 C 0.83954 0.42021 0.79506 0.0
H1222 H 0.83975 0.46002 0.8702 0.0
C1223 C 0.85334 0.48525 0.69695 0.0
C1224 C 0.86795 0.50117 0.71902 0.0
C1225 C 0.84244 0.46909 0.72392 0.0
C1226 C 0.83961 0.44901 0.84848 0.0
H1227 H 0.88214 0.39623 0.84537 0.0
H1228 H 0.86478 0.40872 0.80456 0.0
H1229 H 0.84272 0.43569 0.91072 0.0
H1230 H 0.88093 0.51358 0.7875 0.0
H1231 H 0.86295 0.48556 0.83374 0.0
H1232 H 0.83893 0.4348 0.73251 0.0
C1233 C 0.86197 0.40533 0.84241 0.0
C1234 C 0.84099 0.43472 0.87194 0.0
C1235 C 0.87216 0.39831 0.86591 0.0
C1236 C 0.86992 0.50145 0.7693 0.0
C1237 C 0.85937 0.48522 0.79604 0.0
C1238 C 0.8388 0.43483 0.77153 0.0
C1239 C 0.84972 0.40944 0.86826 0.0
C1240 C 0.84229 0.42084 0.84525 0.0
C1241 C 0.84634 0.46842 0.77315 0.0
C1242 C 0.8402 0.45015 0.79782 0.0
H1243 H 0.856 0.39614 0.97999 0.0
H1244 H 0.83739 0.40743 0.93871 0.0
H1245 H 0.83949 0.40925 0.77333 0.0
H1246 H 0.85121 0.48482 0.65828 0.0
H1247 H 0.83199 0.45674 0.70528 0.0
C1248 C 0.48896 0.20144 0.19386 0.0
C1249 C 0.47613 0.19751 0.15616 0.0
C1250 C 0.48951 0.21243 0.23344 0.0
C1251 C 0.47509 0.24749 0.26769 0.0
H1252 H 0.48835 0.2401 0.3967 0.0
C1253 C 0.47056 0.28737 0.43737 0.0
C1254 C 0.4846 0.29259 0.47256 0.0
C1255 C 0.46976 0.27642 0.39743 0.0
C1256 C 0.4848 0.2425 0.36076 0.0
H1257 H 0.45315 0.20104 0.13165 0.0
H1258 H 0.45361 0.2195 0.20091 0.0
H1259 H 0.48585 0.21883 0.33214 0.0
H1260 H 0.50955 0.29149 0.49134 0.0
H1261 H 0.50821 0.27261 0.42211 0.0
H1262 H 0.47386 0.27106 0.29664 0.0
C1263 C 0.46372 0.21476 0.19958 0.0
C1264 C 0.48339 0.23027 0.32361 0.0
C1265 C 0.46329 0.20397 0.16004 0.0
C1266 C 0.49836 0.28747 0.46538 0.0
C1267 C 0.49753 0.27652 0.42579 0.0
C1268 C 0.47639 0.25965 0.30494 0.0
C1269 C 0.47714 0.21962 0.23634 0.0
C1270 C 0.47853 0.23256 0.27641 0.0
C1271 C 0.48297 0.27042 0.39186 0.0
C1272 C 0.48135 0.25739 0.35198 0.0
H1273 H 0.49913 0.19681 0.19159 0.0
H1274 H 0.50014 0.21591 0.26074 0.0
H1275 H 0.47169 0.25003 0.23177 0.0
H1276 H 0.45967 0.29094 0.44194 0.0
H1277 H 0.45834 0.27198 0.37206 0.0
C1278 C 0.19262 0.46154 0.43935 0.0
C1279 C 0.20128 0.47488 0.47624 0.0
C1280 C 0.20296 0.46106 0.3997 0.0
C1281 C 0.24863 0.4888 0.33564 0.0
H1282 H 0.2386 0.44001 0.29082 0.0
C1283 C 0.29751 0.48039 0.19979 0.0
C1284 C 0.28851 0.46799 0.1613 0.0
C1285 C 0.28724 0.48078 0.23974 0.0
C1286 C 0.24154 0.45377 0.30267 0.0
H1287 H 0.22737 0.49887 0.49869 0.0
H1288 H 0.24533 0.49791 0.43056 0.0
H1289 H 0.21934 0.44223 0.35414 0.0
H1290 H 0.26194 0.44566 0.13558 0.0
H1291 H 0.24414 0.44617 0.20499 0.0
H1292 H 0.27093 0.5003 0.28431 0.0
C1293 C 0.23058 0.48781 0.43175 0.0
C1294 C 0.23039 0.45505 0.33889 0.0
C1295 C 0.22027 0.48829 0.47118 0.0
C1296 C 0.26926 0.45537 0.16473 0.0
C1297 C 0.25906 0.45564 0.20466 0.0
C1298 C 0.25984 0.4875 0.29958 0.0
C1299 C 0.22221 0.47395 0.39586 0.0
C1300 C 0.23373 0.47259 0.35593 0.0
C1301 C 0.2678 0.46863 0.24225 0.0
C1302 C 0.25643 0.46997 0.28248 0.0
H1303 H 0.17806 0.45095 0.44219 0.0
H1304 H 0.1959 0.45038 0.3724 0.0
H1305 H 0.25154 0.50257 0.34713 0.0
H1306 H 0.31229 0.49036 0.19795 0.0
H1307 H 0.29448 0.49081 0.26831 0.0
C1308 C 0.74874 0.19108 0.42863 0.0
C1309 C 0.74353 0.19994 0.46381 0.0
C1310 C 0.75961 0.20118 0.3889 0.0
C1311 C 0.79337 0.24985 0.35293 0.0
H1312 H 0.78535 0.22951 0.22346 0.0
C1313 C 0.83349 0.29507 0.1866 0.0
C1314 C 0.83715 0.28619 0.1483 0.0
C1315 C 0.82281 0.28463 0.22621 0.0
C1316 C 0.78804 0.23536 0.25952 0.0
H1317 H 0.74456 0.22602 0.48276 0.0
H1318 H 0.76337 0.2435 0.41393 0.0
H1319 H 0.76458 0.21076 0.28818 0.0
H1320 H 0.83349 0.25972 0.12261 0.0
H1321 H 0.8156 0.24169 0.19203 0.0
H1322 H 0.81693 0.27437 0.32462 0.0
C1323 C 0.7595 0.2289 0.41747 0.0
C1324 C 0.77602 0.22457 0.29666 0.0
C1325 C 0.74861 0.21883 0.45686 0.0
C1326 C 0.83078 0.2669 0.15155 0.0
C1327 C 0.82031 0.25653 0.19116 0.0
C1328 C 0.80547 0.2606 0.31589 0.0
C1329 C 0.76555 0.22037 0.38355 0.0
C1330 C 0.77846 0.2317 0.34384 0.0
C1331 C 0.81569 0.2651 0.22852 0.0
C1332 C 0.80298 0.25356 0.26853 0.0
H1333 H 0.7452 0.17661 0.43302 0.0
H1334 H 0.76403 0.19415 0.36349 0.0
H1335 H 0.79588 0.2557 0.389 0.0
H1336 H 0.83805 0.30987 0.18474 0.0
H1337 H 0.8195 0.29177 0.25396 0.0
C1338 C 0.56823 0.83651 0.18787 0.0
C1339 C 0.5553 0.8276 0.15031 0.0
C1340 C 0.56858 0.82629 0.22811 0.0
C1341 C 0.54112 0.78018 0.2917 0.0
H1342 H 0.58959 0.79175 0.34151 0.0
C1343 C 0.55024 0.73163 0.42845 0.0
C1344 C 0.56188 0.74071 0.46815 0.0
C1345 C 0.54973 0.74201 0.38876 0.0
C1346 C 0.57592 0.78838 0.32825 0.0
H1347 H 0.53183 0.80117 0.12735 0.0
H1348 H 0.53266 0.78341 0.1963 0.0
H1349 H 0.58748 0.8108 0.27715 0.0
H1350 H 0.58275 0.76764 0.49635 0.0
H1351 H 0.58206 0.78563 0.42733 0.0
H1352 H 0.52962 0.75759 0.34252 0.0
C1353 C 0.54252 0.79827 0.19525 0.0
C1354 C 0.57469 0.79941 0.29143 0.0
C1355 C 0.54214 0.80847 0.15529 0.0
C1356 C 0.57359 0.76025 0.46633 0.0
C1357 C 0.57325 0.77056 0.42662 0.0
C1358 C 0.54237 0.76907 0.32828 0.0
C1359 C 0.55599 0.8069 0.23189 0.0
C1360 C 0.55726 0.79551 0.27254 0.0
C1361 C 0.56106 0.76167 0.38765 0.0
C1362 C 0.55978 0.77302 0.34714 0.0
H1363 H 0.57862 0.85119 0.1852 0.0
H1364 H 0.57894 0.83356 0.25593 0.0
H1365 H 0.52741 0.77683 0.27888 0.0
H1366 H 0.541 0.71662 0.42897 0.0
H1367 H 0.54033 0.73467 0.35912 0.0
C1368 C 0.84275 0.56144 0.43032 0.0
C1369 C 0.8341 0.54764 0.46598 0.0
C1370 C 0.8325 0.5621 0.39046 0.0
C1371 C 0.78715 0.53429 0.3236 0.0
H1372 H 0.79662 0.58316 0.28175 0.0
C1373 C 0.73795 0.54277 0.18819 0.0
C1374 C 0.74685 0.55545 0.15039 0.0
C1375 C 0.74826 0.54231 0.22814 0.0
C1376 C 0.79384 0.56939 0.29276 0.0
H1377 H 0.80815 0.52306 0.4859 0.0
H1378 H 0.79036 0.52435 0.41754 0.0
H1379 H 0.81589 0.58079 0.34512 0.0
H1380 H 0.77331 0.57815 0.12588 0.0
H1381 H 0.79117 0.57757 0.1954 0.0
H1382 H 0.76498 0.52291 0.27147 0.0
C1383 C 0.80503 0.53466 0.41979 0.0
C1384 C 0.80501 0.56801 0.32902 0.0
C1385 C 0.81524 0.53399 0.45938 0.0
C1386 C 0.76605 0.56826 0.15457 0.0
C1387 C 0.77629 0.56794 0.19453 0.0
C1388 C 0.77593 0.53566 0.28756 0.0
C1389 C 0.81336 0.54895 0.38516 0.0
C1390 C 0.80186 0.55044 0.34506 0.0
C1391 C 0.76767 0.55466 0.23139 0.0
C1392 C 0.77911 0.55323 0.27153 0.0
H1393 H 0.8572 0.57222 0.43433 0.0
H1394 H 0.83955 0.57312 0.36418 0.0
H1395 H 0.78441 0.52049 0.33419 0.0
H1396 H 0.72322 0.53262 0.18574 0.0
H1397 H 0.7411 0.53205 0.25612 0.0
C1398 C 0.20284 0.73062 0.19003 0.0
C1399 C 0.19873 0.73966 0.153 0.0
C1400 C 0.21369 0.74084 0.2299 0.0
C1401 C 0.24836 0.78993 0.2651 0.0
H1402 H 0.24146 0.76909 0.39355 0.0
C1403 C 0.28862 0.83383 0.43447 0.0
C1404 C 0.29395 0.82492 0.46923 0.0
C1405 C 0.27757 0.82377 0.3947 0.0
C1406 C 0.24372 0.77507 0.35776 0.0
H1407 H 0.20176 0.76616 0.12998 0.0
H1408 H 0.22001 0.78379 0.19983 0.0
H1409 H 0.22007 0.75058 0.32905 0.0
H1410 H 0.29292 0.7988 0.48748 0.0
H1411 H 0.27387 0.78141 0.41842 0.0
H1412 H 0.27193 0.81448 0.29404 0.0
C1413 C 0.21548 0.769 0.19773 0.0
C1414 C 0.23142 0.76442 0.32067 0.0
C1415 C 0.20481 0.75885 0.1579 0.0
C1416 C 0.28881 0.80602 0.46182 0.0
C1417 C 0.27777 0.796 0.42234 0.0
C1418 C 0.2606 0.80061 0.30225 0.0
C1419 C 0.22057 0.7603 0.2337 0.0
C1420 C 0.23354 0.77167 0.27372 0.0
C1421 C 0.27159 0.80458 0.38885 0.0
C1422 C 0.2585 0.79331 0.34908 0.0
H1423 H 0.1985 0.71589 0.18689 0.0
H1424 H 0.21736 0.73361 0.25663 0.0
H1425 H 0.25076 0.79592 0.22931 0.0
H1426 H 0.29218 0.8483 0.43928 0.0
H1427 H 0.27305 0.83083 0.36968 0.0
C1428 C 0.54325 0.74476 0.64953 0.0
C1429 C 0.55574 0.7378 0.64712 0.0
C1430 C 0.543 0.75496 0.6897 0.0
C1431 C 0.57288 0.783 0.79239 0.0
H1432 H 0.52729 0.78041 0.8379 0.0
C1433 C 0.56932 0.8179 0.97005 0.0
C1434 C 0.55855 0.82684 0.97093 0.0
C1435 C 0.56906 0.8075 0.92986 0.0
C1436 C 0.54018 0.78146 0.82526 0.0
H1437 H 0.57732 0.73561 0.68638 0.0
H1438 H 0.57647 0.75282 0.75715 0.0
H1439 H 0.526 0.76023 0.77166 0.0
H1440 H 0.53934 0.83216 0.92977 0.0
H1441 H 0.53887 0.8139 0.8591 0.0
H1442 H 0.587 0.80407 0.84645 0.0
C1443 C 0.56714 0.75078 0.72735 0.0
C1444 C 0.53945 0.76986 0.78724 0.0
C1445 C 0.56743 0.74063 0.687 0.0
C1446 C 0.54781 0.82546 0.93009 0.0
C1447 C 0.54742 0.81487 0.88987 0.0
C1448 C 0.57358 0.7945 0.83056 0.0
C1449 C 0.55517 0.75841 0.72889 0.0
C1450 C 0.5558 0.77045 0.77024 0.0
C1451 C 0.55797 0.80566 0.88942 0.0
C1452 C 0.55724 0.79387 0.84756 0.0
H1453 H 0.53386 0.74265 0.6198 0.0
H1454 H 0.53367 0.76066 0.6892 0.0
H1455 H 0.58583 0.7842 0.77977 0.0
H1456 H 0.57789 0.81885 1.00076 0.0
H1457 H 0.57724 0.80051 0.931 0.0
C1458 C 0.83185 0.53863 0.68675 0.0
C1459 C 0.83244 0.54891 0.64564 0.0
C1460 C 0.82172 0.53837 0.72762 0.0
C1461 C 0.8016 0.56474 0.78724 0.0
H1462 H 0.76932 0.51777 0.85135 0.0
C1463 C 0.74845 0.55907 0.93061 0.0
C1464 C 0.7463 0.54821 0.97178 0.0
C1465 C 0.75864 0.55858 0.89086 0.0
C1466 C 0.77842 0.53106 0.83427 0.0
H1467 H 0.82342 0.56751 0.61599 0.0
H1468 H 0.80577 0.56698 0.68666 0.0
H1469 H 0.78857 0.51844 0.78381 0.0
H1470 H 0.75261 0.5277 1.00231 0.0
H1471 H 0.77069 0.52717 0.93366 0.0
H1472 H 0.79162 0.57743 0.83762 0.0
C1473 C 0.81307 0.55909 0.68754 0.0
C1474 C 0.78948 0.53143 0.79553 0.0
C1475 C 0.82304 0.55923 0.64677 0.0
C1476 C 0.75417 0.53644 0.9715 0.0
C1477 C 0.76439 0.53599 0.93183 0.0
C1478 C 0.79062 0.56439 0.82602 0.0
C1479 C 0.81217 0.54859 0.72844 0.0
C1480 C 0.8011 0.54826 0.77128 0.0
C1481 C 0.767 0.54724 0.89118 0.0
C1482 C 0.77876 0.54752 0.84989 0.0
H1483 H 0.83894 0.53051 0.68697 0.0
H1484 H 0.82145 0.53027 0.75869 0.0
H1485 H 0.81062 0.578 0.76993 0.0
H1486 H 0.74275 0.56842 0.9296 0.0
H1487 H 0.76005 0.56721 0.85992 0.0
C1488 C 0.28621 0.8028 0.65269 0.0
C1489 C 0.29288 0.82217 0.6491 0.0
C1490 C 0.27581 0.79267 0.6927 0.0
C1491 C 0.24671 0.79508 0.79107 0.0
H1492 H 0.25126 0.75406 0.8452 0.0
C1493 C 0.21215 0.75989 0.97076 0.0
C1494 C 0.20386 0.74032 0.97423 0.0
C1495 C 0.22264 0.76938 0.93036 0.0
C1496 C 0.24966 0.76533 0.83012 0.0
H1497 H 0.29415 0.84608 0.68576 0.0
H1498 H 0.27656 0.82857 0.75609 0.0
H1499 H 0.27112 0.77193 0.7779 0.0
H1500 H 0.19991 0.71534 0.93753 0.0
H1501 H 0.21825 0.73196 0.86647 0.0
H1502 H 0.2254 0.7886 0.84354 0.0
C1503 C 0.27905 0.82112 0.72747 0.0
C1504 C 0.26107 0.77561 0.79153 0.0
C1505 C 0.2894 0.83124 0.68739 0.0
C1506 C 0.20608 0.73041 0.93585 0.0
C1507 C 0.21672 0.73995 0.89541 0.0
C1508 C 0.23539 0.78487 0.82971 0.0
C1509 C 0.27184 0.80164 0.73032 0.0
C1510 C 0.2598 0.79068 0.77161 0.0
C1511 C 0.22517 0.75957 0.89227 0.0
C1512 C 0.23677 0.76992 0.84989 0.0
H1513 H 0.28881 0.79538 0.62417 0.0
H1514 H 0.27043 0.7777 0.69339 0.0
H1515 H 0.24501 0.80629 0.77606 0.0
H1516 H 0.21052 0.76793 0.99942 0.0
H1517 H 0.22907 0.78449 0.92938 0.0
C1518 C 0.49887 0.28408 0.65546 0.0
C1519 C 0.48621 0.29084 0.65245 0.0
C1520 C 0.49889 0.27369 0.6954 0.0
C1521 C 0.48369 0.26288 0.82253 0.0
H1522 H 0.48658 0.21786 0.79961 0.0
C1523 C 0.46841 0.20938 0.9737 0.0
C1524 C 0.47963 0.20099 0.97727 0.0
C1525 C 0.46953 0.22013 0.93355 0.0
C1526 C 0.48601 0.23051 0.80678 0.0
H1527 H 0.46384 0.29212 0.68992 0.0
H1528 H 0.46408 0.27425 0.75981 0.0
H1529 H 0.48849 0.23764 0.73178 0.0
H1530 H 0.50047 0.19689 0.94067 0.0
H1531 H 0.50262 0.21589 0.87037 0.0
H1532 H 0.48129 0.25589 0.89743 0.0
C1533 C 0.47406 0.27709 0.73128 0.0
C1534 C 0.48709 0.24186 0.76784 0.0
C1535 C 0.47397 0.2874 0.69121 0.0
C1536 C 0.49161 0.20313 0.93888 0.0
C1537 C 0.49281 0.21401 0.89861 0.0
C1538 C 0.48269 0.2516 0.86145 0.0
C1539 C 0.48635 0.26988 0.73359 0.0
C1540 C 0.48581 0.25812 0.77519 0.0
C1541 C 0.48196 0.22288 0.89576 0.0
C1542 C 0.48366 0.23516 0.85412 0.0
H1543 H 0.50872 0.28672 0.62671 0.0
H1544 H 0.50878 0.26866 0.69638 0.0
H1545 H 0.48297 0.27546 0.82962 0.0
H1546 H 0.45874 0.20767 1.00219 0.0
H1547 H 0.46058 0.22627 0.93215 0.0
C1548 C 0.20247 0.48262 0.69685 0.0
C1549 C 0.20169 0.47219 0.65583 0.0
C1550 C 0.21272 0.48297 0.73774 0.0
C1551 C 0.23337 0.457 0.79752 0.0
H1552 H 0.26567 0.50435 0.86079 0.0
C1553 C 0.28716 0.46377 0.94151 0.0
C1554 C 0.28924 0.47474 0.9825 0.0
C1555 C 0.27687 0.46401 0.90147 0.0
C1556 C 0.25658 0.49096 0.84394 0.0
H1557 H 0.21045 0.45334 0.62643 0.0
H1558 H 0.22829 0.45401 0.69715 0.0
H1559 H 0.24602 0.50319 0.79339 0.0
H1560 H 0.28276 0.49523 1.01236 0.0
H1561 H 0.26455 0.49535 0.94325 0.0
H1562 H 0.24378 0.44471 0.84801 0.0
C1563 C 0.22104 0.46196 0.69797 0.0
C1564 C 0.24528 0.4903 0.80528 0.0
C1565 C 0.21095 0.46172 0.65718 0.0
C1566 C 0.28125 0.4864 0.98171 0.0
C1567 C 0.27095 0.48662 0.94176 0.0
C1568 C 0.2446 0.45764 0.83622 0.0
C1569 C 0.22222 0.4727 0.73868 0.0
C1570 C 0.23361 0.47333 0.78136 0.0
C1571 C 0.26837 0.47522 0.90133 0.0
C1572 C 0.25646 0.47464 0.85985 0.0
H1573 H 0.19552 0.49086 0.69689 0.0
H1574 H 0.21317 0.49124 0.76867 0.0
H1575 H 0.22434 0.44363 0.78047 0.0
H1576 H 0.29297 0.45451 0.94088 0.0
H1577 H 0.27548 0.45528 0.87071 0.0
C1578 C 0.74857 0.19424 0.68167 0.0
C1579 C 0.74424 0.2028 0.64375 0.0
C1580 C 0.75852 0.20464 0.72215 0.0
C1581 C 0.77241 0.24867 0.78937 0.0
H1582 H 0.81231 0.24113 0.83774 0.0
C1583 C 0.81169 0.28131 0.96847 0.0
C1584 C 0.83102 0.28799 0.96989 0.0
C1585 C 0.80107 0.27161 0.92808 0.0
C1586 C 0.80132 0.24352 0.82446 0.0
H1587 H 0.74634 0.22884 0.61961 0.0
H1588 H 0.76378 0.24698 0.68999 0.0
H1589 H 0.79343 0.22256 0.76961 0.0
H1590 H 0.85434 0.28993 0.92946 0.0
H1591 H 0.83585 0.27322 0.85867 0.0
H1592 H 0.78048 0.26981 0.8439 0.0
C1593 C 0.75947 0.23222 0.68853 0.0
C1594 C 0.79033 0.23269 0.78577 0.0
C1595 C 0.7496 0.22186 0.64798 0.0
C1596 C 0.83953 0.28512 0.92941 0.0
C1597 C 0.82888 0.27533 0.88907 0.0
C1598 C 0.78336 0.25945 0.82823 0.0
C1599 C 0.76429 0.22382 0.72583 0.0
C1600 C 0.77574 0.23513 0.76769 0.0
C1601 C 0.80948 0.26827 0.88811 0.0
C1602 C 0.79798 0.25703 0.84624 0.0
H1603 H 0.74479 0.17963 0.67941 0.0
H1604 H 0.76179 0.19765 0.75049 0.0
H1605 H 0.76121 0.25083 0.77659 0.0
H1606 H 0.80473 0.28342 0.99888 0.0
H1607 H 0.78616 0.26627 0.92876 0.0
loop_
_geom_bond_atom_site_label_1
_geom_bond_atom_site_label_2
_geom_bond_distance
_geom_bond_site_symmetry_2
_ccdc_geom_bond_type
O0 Tb1 2.292 . S
O0 C3 1.255 . S
Tb1 O0 2.292 . S
Tb1 O17 2.326 . S
Tb1 O19 2.500 . S
Tb1 O20 2.473 1_556 S
Tb1 O23 2.324 1_556 S
Eu2 O6 2.292 . S
Eu2 C7 2.852 . S
Eu2 O18 2.324 1_554 S
Eu2 O22 2.326 . S
Eu2 O24 2.500 . S
Eu2 O25 2.473 . S
C3 O0 1.255 . S
C3 O4 1.247 . S
O4 C3 1.247 . S
C5 O17 1.242 . S
C5 O18 1.258 . S
O6 Eu2 2.292 . S
O6 C8 1.255 . S
C7 Eu2 2.852 . S
C7 C11 1.503 . S
C7 O24 1.273 . S
C7 O25 1.257 . S
C8 O6 1.255 . S
C8 O9 1.247 . S
O9 C8 1.247 . S
C10 O22 1.242 . S
C10 O23 1.258 . S
C11 C7 1.503 . S
C11 C12 1.379 . S
C11 C16 1.392 . S
C12 C11 1.379 . S
C12 C13 1.404 . S
C12 H26 0.929 1_554 S
C13 C12 1.404 . S
C13 C14 1.389 . S
C14 C13 1.389 . S
C14 C15 1.399 . S
C14 H27 0.931 . S
C15 C14 1.399 . S
C15 C16 1.390 . S
C16 C11 1.392 . S
C16 C15 1.390 . S
C16 H28 0.929 . S
O17 Tb1 2.326 . S
O17 C5 1.242 . S
O18 Eu2 2.324 1_556 S
O18 C5 1.258 . S
O19 Tb1 2.500 . S
O19 C21 1.273 . S
O20 Tb1 2.473 1_554 S
O20 C21 1.257 1_554 S
C21 O19 1.273 . S
C21 O20 1.257 1_556 S
O22 Eu2 2.326 . S
O22 C10 1.242 . S
O23 Tb1 2.324 1_554 S
O23 C10 1.258 . S
O24 Eu2 2.500 . S
O24 C7 1.273 . S
O25 Eu2 2.473 . S
O25 C7 1.257 . S
H26 C12 0.929 1_556 S
H27 C14 0.931 . S
H28 C16 0.929 . S
O29 Tb30 2.292 . S
O29 C32 1.255 . S
Tb30 O29 2.292 . S
Tb30 O46 2.326 . S
Tb30 O48 2.500 . S
Tb30 O49 2.473 1_556 S
Tb30 O52 2.324 1_556 S
Eu31 O35 2.292 . S
Eu31 C36 2.852 . S
Eu31 O47 2.324 1_554 S
Eu31 O51 2.326 . S
Eu31 O53 2.500 . S
Eu31 O54 2.473 . S
C32 O29 1.255 . S
C32 O33 1.247 . S
O33 C32 1.247 . S
C34 O46 1.242 . S
C34 O47 1.258 . S
O35 Eu31 2.292 . S
O35 C37 1.255 . S
C36 Eu31 2.852 . S
C36 C40 1.503 . S
C36 O53 1.273 . S
C36 O54 1.257 . S
C37 O35 1.255 . S
C37 O38 1.247 . S
O38 C37 1.247 . S
C39 O51 1.242 . S
C39 O52 1.258 . S
C40 C36 1.503 . S
C40 C41 1.379 . S
C40 C45 1.392 . S
C41 C40 1.379 . S
C41 C42 1.404 . S
C41 H55 0.929 1_554 S
C42 C41 1.404 . S
C42 C43 1.389 . S
C43 C42 1.389 . S
C43 C44 1.399 . S
C43 H56 0.931 . S
C44 C43 1.399 . S
C44 C45 1.390 . S
C45 C40 1.392 . S
C45 C44 1.390 . S
C45 H57 0.929 . S
O46 Tb30 2.326 . S
O46 C34 1.242 . S
O47 Eu31 2.324 1_556 S
O47 C34 1.258 . S
O48 Tb30 2.500 . S
O48 C50 1.273 . S
O49 Tb30 2.473 1_554 S
O49 C50 1.257 1_554 S
C50 O48 1.273 . S
C50 O49 1.257 1_556 S
O51 Eu31 2.326 . S
O51 C39 1.242 . S
O52 Tb30 2.324 1_554 S
O52 C39 1.258 . S
O53 Eu31 2.500 . S
O53 C36 1.273 . S
O54 Eu31 2.473 . S
O54 C36 1.257 . S
H55 C41 0.929 1_556 S
H56 C43 0.931 . S
H57 C45 0.929 . S
O58 Tb59 2.292 . S
O58 C61 1.255 . S
Tb59 O58 2.292 . S
Tb59 O75 2.326 . S
Tb59 O77 2.500 . S
Tb59 O78 2.473 1_556 S
Tb59 O81 2.324 1_556 S
Eu60 O64 2.292 . S
Eu60 C65 2.852 . S
Eu60 O76 2.324 1_554 S
Eu60 O80 2.326 . S
Eu60 O82 2.500 . S
Eu60 O83 2.473 . S
C61 O58 1.255 . S
C61 O62 1.247 . S
O62 C61 1.247 . S
C63 O75 1.242 . S
C63 O76 1.258 . S
O64 Eu60 2.292 . S
O64 C66 1.255 . S
C65 Eu60 2.852 . S
C65 C69 1.503 . S
C65 O82 1.273 . S
C65 O83 1.257 . S
C66 O64 1.255 . S
C66 O67 1.247 . S
O67 C66 1.247 . S
C68 O80 1.242 . S
C68 O81 1.258 . S
C69 C65 1.503 . S
C69 C70 1.379 . S
C69 C74 1.392 . S
C70 C69 1.379 . S
C70 C71 1.404 . S
C70 H84 0.929 1_554 S
C71 C70 1.404 . S
C71 C72 1.389 . S
C72 C71 1.389 . S
C72 C73 1.399 . S
C72 H85 0.931 . S
C73 C72 1.399 . S
C73 C74 1.390 . S
C74 C69 1.392 . S
C74 C73 1.390 . S
C74 H86 0.929 . S
O75 Tb59 2.326 . S
O75 C63 1.242 . S
O76 Eu60 2.324 1_556 S
O76 C63 1.258 . S
O77 Tb59 2.500 . S
O77 C79 1.273 . S
O78 Tb59 2.473 1_554 S
O78 C79 1.257 1_554 S
C79 O77 1.273 . S
C79 O78 1.257 1_556 S
O80 Eu60 2.326 . S
O80 C68 1.242 . S
O81 Tb59 2.324 1_554 S
O81 C68 1.258 . S
O82 Eu60 2.500 . S
O82 C65 1.273 . S
O83 Eu60 2.473 . S
O83 C65 1.257 . S
H84 C70 0.929 1_556 S
H85 C72 0.931 . S
H86 C74 0.929 . S
O87 Tb88 2.292 . S
O87 C90 1.255 . S
Tb88 O87 2.292 . S
Tb88 O104 2.326 . S
Tb88 O106 2.500 . S
Tb88 O107 2.473 1_556 S
Tb88 O110 2.324 1_556 S
Eu89 O93 2.292 . S
Eu89 C94 2.852 . S
Eu89 O105 2.324 1_554 S
Eu89 O109 2.326 . S
Eu89 O111 2.500 . S
Eu89 O112 2.473 . S
C90 O87 1.255 . S
C90 O91 1.247 . S
O91 C90 1.247 . S
C92 O104 1.242 . S
C92 O105 1.258 . S
O93 Eu89 2.292 . S
O93 C95 1.255 . S
C94 Eu89 2.852 . S
C94 C98 1.503 . S
C94 O111 1.273 . S
C94 O112 1.257 . S
C95 O93 1.255 . S
C95 O96 1.247 . S
O96 C95 1.247 . S
C97 O109 1.242 . S
C97 O110 1.258 . S
C98 C94 1.503 . S
C98 C99 1.379 . S
C98 C103 1.392 . S
C99 C98 1.379 . S
C99 C100 1.404 . S
C99 H113 0.929 1_554 S
C100 C99 1.404 . S
C100 C101 1.389 . S
C101 C100 1.389 . S
C101 C102 1.399 . S
C101 H114 0.931 . S
C102 C101 1.399 . S
C102 C103 1.390 . S
C103 C98 1.392 . S
C103 C102 1.390 . S
C103 H115 0.929 . S
O104 Tb88 2.326 . S
O104 C92 1.242 . S
O105 Eu89 2.324 1_556 S
O105 C92 1.258 . S
O106 Tb88 2.500 . S
O106 C108 1.273 . S
O107 Tb88 2.473 1_554 S
O107 C108 1.257 1_554 S
C108 O106 1.273 . S
C108 O107 1.257 1_556 S
O109 Eu89 2.326 . S
O109 C97 1.242 . S
O110 Tb88 2.324 1_554 S
O110 C97 1.258 . S
O111 Eu89 2.500 . S
O111 C94 1.273 . S
O112 Eu89 2.473 . S
O112 C94 1.257 . S
H113 C99 0.929 1_556 S
H114 C101 0.931 . S
H115 C103 0.929 . S
O116 Tb117 2.292 . S
O116 C119 1.255 . S
Tb117 O116 2.292 . S
Tb117 O133 2.326 . S
Tb117 O135 2.500 . S
Tb117 O136 2.473 1_556 S
Tb117 O139 2.324 1_556 S
Eu118 O122 2.292 . S
Eu118 C123 2.852 . S
Eu118 O134 2.324 1_554 S
Eu118 O138 2.326 . S
Eu118 O140 2.500 . S
Eu118 O141 2.473 . S
C119 O116 1.255 . S
C119 O120 1.247 . S
O120 C119 1.247 . S
C121 O133 1.242 . S
C121 O134 1.258 . S
O122 Eu118 2.292 . S
O122 C124 1.255 . S
C123 Eu118 2.852 . S
C123 C127 1.503 . S
C123 O140 1.273 . S
C123 O141 1.257 . S
C124 O122 1.255 . S
C124 O125 1.247 . S
O125 C124 1.247 . S
C126 O138 1.242 . S
C126 O139 1.258 . S
C127 C123 1.503 . S
C127 C128 1.379 . S
C127 C132 1.392 . S
C128 C127 1.379 . S
C128 C129 1.404 . S
C128 H142 0.929 1_554 S
C129 C128 1.404 . S
C129 C130 1.389 . S
C130 C129 1.389 . S
C130 C131 1.399 . S
C130 H143 0.931 . S
C131 C130 1.399 . S
C131 C132 1.390 . S
C132 C127 1.392 . S
C132 C131 1.390 . S
C132 H144 0.929 . S
O133 Tb117 2.326 . S
O133 C121 1.242 . S
O134 Eu118 2.324 1_556 S
O134 C121 1.258 . S
O135 Tb117 2.500 . S
O135 C137 1.273 . S
O136 Tb117 2.473 1_554 S
O136 C137 1.257 1_554 S
C137 O135 1.273 . S
C137 O136 1.257 1_556 S
O138 Eu118 2.326 . S
O138 C126 1.242 . S
O139 Tb117 2.324 1_554 S
O139 C126 1.258 . S
O140 Eu118 2.500 . S
O140 C123 1.273 . S
O141 Eu118 2.473 . S
O141 C123 1.257 . S
H142 C128 0.929 1_556 S
H143 C130 0.931 . S
H144 C132 0.929 . S
O145 Tb146 2.292 . S
O145 C148 1.255 . S
Tb146 O145 2.292 . S
Tb146 O162 2.326 . S
Tb146 O164 2.500 . S
Tb146 O165 2.473 1_556 S
Tb146 O168 2.324 1_556 S
Eu147 O151 2.292 . S
Eu147 C152 2.852 . S
Eu147 O163 2.324 1_554 S
Eu147 O167 2.326 . S
Eu147 O169 2.500 . S
Eu147 O170 2.473 . S
C148 O145 1.255 . S
C148 O149 1.247 . S
O149 C148 1.247 . S
C150 O162 1.242 . S
C150 O163 1.258 . S
O151 Eu147 2.292 . S
O151 C153 1.255 . S
C152 Eu147 2.852 . S
C152 C156 1.503 . S
C152 O169 1.273 . S
C152 O170 1.257 . S
C153 O151 1.255 . S
C153 O154 1.247 . S
O154 C153 1.247 . S
C155 O167 1.242 . S
C155 O168 1.258 . S
C156 C152 1.503 . S
C156 C157 1.379 . S
C156 C161 1.392 . S
C157 C156 1.379 . S
C157 C158 1.404 . S
C157 H171 0.929 1_554 S
C158 C157 1.404 . S
C158 C159 1.389 . S
C159 C158 1.389 . S
C159 C160 1.399 . S
C159 H172 0.931 . S
C160 C159 1.399 . S
C160 C161 1.390 . S
C161 C156 1.392 . S
C161 C160 1.390 . S
C161 H173 0.929 . S
O162 Tb146 2.326 . S
O162 C150 1.242 . S
O163 Eu147 2.324 1_556 S
O163 C150 1.258 . S
O164 Tb146 2.500 . S
O164 C166 1.273 . S
O165 Tb146 2.473 1_554 S
O165 C166 1.257 1_554 S
C166 O164 1.273 . S
C166 O165 1.257 1_556 S
O167 Eu147 2.326 . S
O167 C155 1.242 . S
O168 Tb146 2.324 1_554 S
O168 C155 1.258 . S
O169 Eu147 2.500 . S
O169 C152 1.273 . S
O170 Eu147 2.473 . S
O170 C152 1.257 . S
H171 C157 0.929 1_556 S
H172 C159 0.931 . S
H173 C161 0.929 . S
O174 Tb175 2.292 . S
O174 C177 1.255 . S
Tb175 O174 2.292 . S
Tb175 O191 2.326 . S
Tb175 O193 2.500 . S
Tb175 O194 2.473 . S
Tb175 O197 2.324 . S
Eu176 O180 2.292 . S
Eu176 C181 2.852 . S
Eu176 O192 2.324 . S
Eu176 O196 2.326 . S
Eu176 O198 2.500 . S
Eu176 O199 2.473 . S
C177 O174 1.255 . S
C177 O178 1.247 . S
O178 C177 1.247 . S
C179 O191 1.242 . S
C179 O192 1.258 . S
O180 Eu176 2.292 . S
O180 C182 1.255 . S
C181 Eu176 2.852 . S
C181 C185 1.503 . S
C181 O198 1.273 . S
C181 O199 1.257 . S
C182 O180 1.255 . S
C182 O183 1.247 . S
O183 C182 1.247 . S
C184 O196 1.242 . S
C184 O197 1.258 . S
C185 C181 1.503 . S
C185 C186 1.379 . S
C185 C190 1.392 . S
C186 C185 1.379 . S
C186 C187 1.404 . S
C186 H200 0.929 . S
C187 C186 1.404 . S
C187 C188 1.389 . S
C188 C187 1.389 . S
C188 C189 1.399 . S
C188 H201 0.931 . S
C189 C188 1.399 . S
C189 C190 1.390 . S
C190 C185 1.392 . S
C190 C189 1.390 . S
C190 H202 0.929 . S
O191 Tb175 2.326 . S
O191 C179 1.242 . S
O192 Eu176 2.324 . S
O192 C179 1.258 . S
O193 Tb175 2.500 . S
O193 C195 1.273 . S
O194 Tb175 2.473 . S
O194 C195 1.257 . S
C195 O193 1.273 . S
C195 O194 1.257 . S
O196 Eu176 2.326 . S
O196 C184 1.242 . S
O197 Tb175 2.324 . S
O197 C184 1.258 . S
O198 Eu176 2.500 . S
O198 C181 1.273 . S
O199 Eu176 2.473 . S
O199 C181 1.257 . S
H200 C186 0.929 . S
H201 C188 0.931 . S
H202 C190 0.929 . S
O203 Tb204 2.292 . S
O203 C206 1.255 . S
Tb204 O203 2.292 . S
Tb204 O220 2.326 . S
Tb204 O222 2.500 . S
Tb204 O223 2.473 . S
Tb204 O226 2.324 . S
Eu205 O209 2.292 . S
Eu205 C210 2.852 . S
Eu205 O221 2.324 . S
Eu205 O225 2.326 . S
Eu205 O227 2.500 . S
Eu205 O228 2.473 . S
C206 O203 1.255 . S
C206 O207 1.247 . S
O207 C206 1.247 . S
C208 O220 1.242 . S
C208 O221 1.258 . S
O209 Eu205 2.292 . S
O209 C211 1.255 . S
C210 Eu205 2.852 . S
C210 C214 1.503 . S
C210 O227 1.273 . S
C210 O228 1.257 . S
C211 O209 1.255 . S
C211 O212 1.247 . S
O212 C211 1.247 . S
C213 O225 1.242 . S
C213 O226 1.258 . S
C214 C210 1.503 . S
C214 C215 1.379 . S
C214 C219 1.392 . S
C215 C214 1.379 . S
C215 C216 1.404 . S
C215 H229 0.929 . S
C216 C215 1.404 . S
C216 C217 1.389 . S
C217 C216 1.389 . S
C217 C218 1.399 . S
C217 H230 0.931 . S
C218 C217 1.399 . S
C218 C219 1.390 . S
C219 C214 1.392 . S
C219 C218 1.390 . S
C219 H231 0.929 . S
O220 Tb204 2.326 . S
O220 C208 1.242 . S
O221 Eu205 2.324 . S
O221 C208 1.258 . S
O222 Tb204 2.500 . S
O222 C224 1.273 . S
O223 Tb204 2.473 . S
O223 C224 1.257 . S
C224 O222 1.273 . S
C224 O223 1.257 . S
O225 Eu205 2.326 . S
O225 C213 1.242 . S
O226 Tb204 2.324 . S
O226 C213 1.258 . S
O227 Eu205 2.500 . S
O227 C210 1.273 . S
O228 Eu205 2.473 . S
O228 C210 1.257 . S
H229 C215 0.929 . S
H230 C217 0.931 . S
H231 C219 0.929 . S
O232 Tb233 2.292 . S
O232 C235 1.255 . S
Tb233 O232 2.292 . S
Tb233 O249 2.326 . S
Tb233 O251 2.500 . S
Tb233 O252 2.473 . S
Tb233 O255 2.324 . S
Eu234 O238 2.292 . S
Eu234 C239 2.852 . S
Eu234 O250 2.324 . S
Eu234 O254 2.326 . S
Eu234 O256 2.500 . S
Eu234 O257 2.473 . S
C235 O232 1.255 . S
C235 O236 1.247 . S
O236 C235 1.247 . S
C237 O249 1.242 . S
C237 O250 1.258 . S
O238 Eu234 2.292 . S
O238 C240 1.255 . S
C239 Eu234 2.852 . S
C239 C243 1.503 . S
C239 O256 1.273 . S
C239 O257 1.257 . S
C240 O238 1.255 . S
C240 O241 1.247 . S
O241 C240 1.247 . S
C242 O254 1.242 . S
C242 O255 1.258 . S
C243 C239 1.503 . S
C243 C244 1.379 . S
C243 C248 1.392 . S
C244 C243 1.379 . S
C244 C245 1.404 . S
C244 H258 0.929 . S
C245 C244 1.404 . S
C245 C246 1.389 . S
C246 C245 1.389 . S
C246 C247 1.399 . S
C246 H259 0.931 . S
C247 C246 1.399 . S
C247 C248 1.390 . S
C248 C243 1.392 . S
C248 C247 1.390 . S
C248 H260 0.929 . S
O249 Tb233 2.326 . S
O249 C237 1.242 . S
O250 Eu234 2.324 . S
O250 C237 1.258 . S
O251 Tb233 2.500 . S
O251 C253 1.273 . S
O252 Tb233 2.473 . S
O252 C253 1.257 . S
C253 O251 1.273 . S
C253 O252 1.257 . S
O254 Eu234 2.326 . S
O254 C242 1.242 . S
O255 Tb233 2.324 . S
O255 C242 1.258 . S
O256 Eu234 2.500 . S
O256 C239 1.273 . S
O257 Eu234 2.473 . S
O257 C239 1.257 . S
H258 C244 0.929 . S
H259 C246 0.931 . S
H260 C248 0.929 . S
O261 Tb262 2.292 . S
O261 C264 1.255 . S
Tb262 O261 2.292 . S
Tb262 O278 2.326 . S
Tb262 O280 2.500 . S
Tb262 O281 2.473 . S
Tb262 O284 2.324 . S
Eu263 O267 2.292 . S
Eu263 C268 2.852 . S
Eu263 O279 2.324 . S
Eu263 O283 2.326 . S
Eu263 O285 2.500 . S
Eu263 O286 2.473 . S
C264 O261 1.255 . S
C264 O265 1.247 . S
O265 C264 1.247 . S
C266 O278 1.242 . S
C266 O279 1.258 . S
O267 Eu263 2.292 . S
O267 C269 1.255 . S
C268 Eu263 2.852 . S
C268 C272 1.503 . S
C268 O285 1.273 . S
C268 O286 1.257 . S
C269 O267 1.255 . S
C269 O270 1.247 . S
O270 C269 1.247 . S
C271 O283 1.242 . S
C271 O284 1.258 . S
C272 C268 1.503 . S
C272 C273 1.379 . S
C272 C277 1.392 . S
C273 C272 1.379 . S
C273 C274 1.404 . S
C273 H287 0.929 . S
C274 C273 1.404 . S
C274 C275 1.389 . S
C275 C274 1.389 . S
C275 C276 1.399 . S
C275 H288 0.931 . S
C276 C275 1.399 . S
C276 C277 1.390 . S
C277 C272 1.392 . S
C277 C276 1.390 . S
C277 H289 0.929 . S
O278 Tb262 2.326 . S
O278 C266 1.242 . S
O279 Eu263 2.324 . S
O279 C266 1.258 . S
O280 Tb262 2.500 . S
O280 C282 1.273 . S
O281 Tb262 2.473 . S
O281 C282 1.257 . S
C282 O280 1.273 . S
C282 O281 1.257 . S
O283 Eu263 2.326 . S
O283 C271 1.242 . S
O284 Tb262 2.324 . S
O284 C271 1.258 . S
O285 Eu263 2.500 . S
O285 C268 1.273 . S
O286 Eu263 2.473 . S
O286 C268 1.257 . S
H287 C273 0.929 . S
H288 C275 0.931 . S
H289 C277 0.929 . S
O290 Tb291 2.292 . S
O290 C293 1.255 . S
Tb291 O290 2.292 . S
Tb291 O307 2.326 . S
Tb291 O309 2.500 . S
Tb291 O310 2.473 . S
Tb291 O313 2.324 . S
Eu292 O296 2.292 . S
Eu292 C297 2.852 . S
Eu292 O308 2.324 . S
Eu292 O312 2.326 . S
Eu292 O314 2.500 . S
Eu292 O315 2.473 . S
C293 O290 1.255 . S
C293 O294 1.247 . S
O294 C293 1.247 . S
C295 O307 1.242 . S
C295 O308 1.258 . S
O296 Eu292 2.292 . S
O296 C298 1.255 . S
C297 Eu292 2.852 . S
C297 C301 1.503 . S
C297 O314 1.273 . S
C297 O315 1.257 . S
C298 O296 1.255 . S
C298 O299 1.247 . S
O299 C298 1.247 . S
C300 O312 1.242 . S
C300 O313 1.258 . S
C301 C297 1.503 . S
C301 C302 1.379 . S
C301 C306 1.392 . S
C302 C301 1.379 . S
C302 C303 1.404 . S
C302 H316 0.929 . S
C303 C302 1.404 . S
C303 C304 1.389 . S
C304 C303 1.389 . S
C304 C305 1.399 . S
C304 H317 0.931 . S
C305 C304 1.399 . S
C305 C306 1.390 . S
C306 C301 1.392 . S
C306 C305 1.390 . S
C306 H318 0.929 . S
O307 Tb291 2.326 . S
O307 C295 1.242 . S
O308 Eu292 2.324 . S
O308 C295 1.258 . S
O309 Tb291 2.500 . S
O309 C311 1.273 . S
O310 Tb291 2.473 . S
O310 C311 1.257 . S
C311 O309 1.273 . S
C311 O310 1.257 . S
O312 Eu292 2.326 . S
O312 C300 1.242 . S
O313 Tb291 2.324 . S
O313 C300 1.258 . S
O314 Eu292 2.500 . S
O314 C297 1.273 . S
O315 Eu292 2.473 . S
O315 C297 1.257 . S
H316 C302 0.929 . S
H317 C304 0.931 . S
H318 C306 0.929 . S
O319 Tb320 2.292 . S
O319 C322 1.255 . S
Tb320 O319 2.292 . S
Tb320 O336 2.326 . S
Tb320 O338 2.500 . S
Tb320 O339 2.473 . S
Tb320 O342 2.324 . S
Eu321 O325 2.292 . S
Eu321 C326 2.852 . S
Eu321 O337 2.324 . S
Eu321 O341 2.326 . S
Eu321 O343 2.500 . S
Eu321 O344 2.473 . S
C322 O319 1.255 . S
C322 O323 1.247 . S
O323 C322 1.247 . S
C324 O336 1.242 . S
C324 O337 1.258 . S
O325 Eu321 2.292 . S
O325 C327 1.255 . S
C326 Eu321 2.852 . S
C326 C330 1.503 . S
C326 O343 1.273 . S
C326 O344 1.257 . S
C327 O325 1.255 . S
C327 O328 1.247 . S
O328 C327 1.247 . S
C329 O341 1.242 . S
C329 O342 1.258 . S
C330 C326 1.503 . S
C330 C331 1.379 . S
C330 C335 1.392 . S
C331 C330 1.379 . S
C331 C332 1.404 . S
C331 H345 0.929 . S
C332 C331 1.404 . S
C332 C333 1.389 . S
C333 C332 1.389 . S
C333 C334 1.399 . S
C333 H346 0.931 . S
C334 C333 1.399 . S
C334 C335 1.390 . S
C335 C330 1.392 . S
C335 C334 1.390 . S
C335 H347 0.929 . S
O336 Tb320 2.326 . S
O336 C324 1.242 . S
O337 Eu321 2.324 . S
O337 C324 1.258 . S
O338 Tb320 2.500 . S
O338 C340 1.273 . S
O339 Tb320 2.473 . S
O339 C340 1.257 . S
C340 O338 1.273 . S
C340 O339 1.257 . S
O341 Eu321 2.326 . S
O341 C329 1.242 . S
O342 Tb320 2.324 . S
O342 C329 1.258 . S
O343 Eu321 2.500 . S
O343 C326 1.273 . S
O344 Eu321 2.473 . S
O344 C326 1.257 . S
H345 C331 0.929 . S
H346 C333 0.931 . S
H347 C335 0.929 . S
C348 C349 1.349 . S
C348 C350 1.327 . S
C348 H373 0.950 . S
C349 C348 1.349 . S
C349 C365 1.349 . S
C350 C348 1.327 . S
C350 C369 1.429 . S
C350 H374 0.950 . S
C351 C368 1.525 1_545 S
C351 C370 1.402 . S
C351 H375 0.966 . S
H352 C356 0.966 . S
C353 C354 1.349 . S
C353 C355 1.327 . S
C353 H376 0.950 . S
C354 C353 1.349 . S
C354 C366 1.349 . S
C355 C353 1.327 . S
C355 C371 1.429 . S
C355 H377 0.950 . S
C356 H352 0.966 . S
C356 C364 1.525 1_565 S
C356 C372 1.402 . S
H357 C365 0.950 . S
H358 C363 0.950 . S
H359 C364 0.949 . S
H360 C366 0.950 . S
H361 C367 0.950 . S
H362 C368 0.949 . S
C363 H358 0.950 . S
C363 C365 1.327 . S
C363 C369 1.429 . S
C364 C356 1.525 1_545 S
C364 H359 0.949 . S
C364 C370 1.368 . S
C365 C349 1.349 . S
C365 H357 0.950 . S
C365 C363 1.327 . S
C366 C354 1.349 . S
C366 H360 0.950 . S
C366 C367 1.327 . S
C367 H361 0.950 . S
C367 C366 1.327 . S
C367 C371 1.429 . S
C368 C351 1.525 1_565 S
C368 H362 0.949 . S
C368 C372 1.368 . S
C369 C350 1.429 . S
C369 C363 1.429 . S
C369 C370 1.523 . S
C370 C351 1.402 . S
C370 C364 1.368 . S
C370 C369 1.523 . S
C371 C355 1.429 . S
C371 C367 1.429 . S
C371 C372 1.523 . S
C372 C356 1.402 . S
C372 C368 1.368 . S
C372 C371 1.523 . S
H373 C348 0.950 . S
H374 C350 0.950 . S
H375 C351 0.966 . S
H376 C353 0.950 . S
H377 C355 0.950 . S
C378 C379 1.349 . S
C378 C380 1.327 . S
C378 H403 0.950 . S
C379 C378 1.349 . S
C379 C395 1.349 . S
C380 C378 1.327 . S
C380 C399 1.429 . S
C380 H404 0.950 . S
C381 C398 1.574 . S
C381 C400 1.368 . S
C381 H405 0.949 . S
H382 C386 0.949 . S
C383 C384 1.349 . S
C383 C385 1.327 . S
C383 H406 0.950 . S
C384 C383 1.349 . S
C384 C396 1.349 . S
C385 C383 1.327 . S
C385 C401 1.429 . S
C385 H407 0.950 . S
C386 H382 0.949 . S
C386 C394 1.574 . S
C386 C402 1.368 . S
H387 C395 0.950 . S
H388 C393 0.950 . S
H389 C394 0.949 . S
H390 C396 0.950 . S
H391 C397 0.950 . S
H392 C398 0.949 . S
C393 H388 0.950 . S
C393 C395 1.327 . S
C393 C399 1.429 . S
C394 C386 1.574 . S
C394 H389 0.949 . S
C394 C400 1.368 . S
C395 C379 1.349 . S
C395 H387 0.950 . S
C395 C393 1.327 . S
C396 C384 1.349 . S
C396 H390 0.950 . S
C396 C397 1.327 . S
C397 H391 0.950 . S
C397 C396 1.327 . S
C397 C401 1.429 . S
C398 C381 1.574 . S
C398 H392 0.949 . S
C398 C402 1.368 . S
C399 C380 1.429 . S
C399 C393 1.429 . S
C399 C400 1.523 . S
C400 C381 1.368 . S
C400 C394 1.368 . S
C400 C399 1.523 . S
C401 C385 1.429 . S
C401 C397 1.429 . S
C401 C402 1.523 . S
C402 C386 1.368 . S
C402 C398 1.368 . S
C402 C401 1.523 . S
H403 C378 0.950 . S
H404 C380 0.950 . S
H405 C381 0.949 . S
H406 C383 0.950 . S
H407 C385 0.950 . S
C408 C409 1.349 . S
C408 C410 1.327 . S
C408 H433 0.950 . S
C409 C408 1.349 . S
C409 C425 1.349 . S
C410 C408 1.327 . S
C410 C429 1.429 . S
C410 H434 0.950 . S
C411 C428 1.538 1_455 S
C411 C430 1.368 . S
C411 H435 0.949 . S
H412 C416 0.949 . S
C413 C414 1.349 . S
C413 C415 1.327 . S
C413 H436 0.950 . S
C414 C413 1.349 . S
C414 C426 1.349 . S
C415 C413 1.327 . S
C415 C431 1.429 . S
C415 H437 0.950 . S
C416 H412 0.949 . S
C416 C424 1.538 1_655 S
C416 C432 1.368 . S
H417 C425 0.950 . S
H418 C423 0.950 . S
H419 C424 0.960 . S
H420 C426 0.950 . S
H421 C427 0.950 . S
H422 C428 0.960 . S
C423 H418 0.950 . S
C423 C425 1.327 . S
C423 C429 1.429 . S
C424 C416 1.538 1_455 S
C424 H419 0.960 . S
C424 C430 1.395 . S
C425 C409 1.349 . S
C425 H417 0.950 . S
C425 C423 1.327 . S
C426 C414 1.349 . S
C426 H420 0.950 . S
C426 C427 1.327 . S
C427 H421 0.950 . S
C427 C426 1.327 . S
C427 C431 1.429 . S
C428 C411 1.538 1_655 S
C428 H422 0.960 . S
C428 C432 1.395 . S
C429 C410 1.429 . S
C429 C423 1.429 . S
C429 C430 1.523 . S
C430 C411 1.368 . S
C430 C424 1.395 . S
C430 C429 1.523 . S
C431 C415 1.429 . S
C431 C427 1.429 . S
C431 C432 1.523 . S
C432 C416 1.368 . S
C432 C428 1.395 . S
C432 C431 1.523 . S
H433 C408 0.950 . S
H434 C410 0.950 . S
H435 C411 0.949 . S
H436 C413 0.950 . S
H437 C415 0.950 . S
C438 C439 1.349 . S
C438 C440 1.327 . S
C438 H463 0.950 . S
C439 C438 1.349 . S
C439 C455 1.349 . S
C440 C438 1.327 . S
C440 C459 1.429 . S
C440 H464 0.950 . S
C441 C458 1.574 1_565 S
C441 C460 1.368 . S
C441 H465 0.949 . S
H442 C446 0.949 . S
C443 C444 1.349 . S
C443 C445 1.327 . S
C443 H466 0.950 . S
C444 C443 1.349 . S
C444 C456 1.349 . S
C445 C443 1.327 . S
C445 C461 1.429 . S
C445 H467 0.950 . S
C446 H442 0.949 . S
C446 C454 1.574 1_545 S
C446 C462 1.368 . S
H447 C455 0.950 . S
H448 C453 0.950 . S
H449 C454 0.949 . S
H450 C456 0.950 . S
H451 C457 0.950 . S
H452 C458 0.949 . S
C453 H448 0.950 . S
C453 C455 1.327 . S
C453 C459 1.429 . S
C454 C446 1.574 1_565 S
C454 H449 0.949 . S
C454 C460 1.368 . S
C455 C439 1.349 . S
C455 H447 0.950 . S
C455 C453 1.327 . S
C456 C444 1.349 . S
C456 H450 0.950 . S
C456 C457 1.327 . S
C457 H451 0.950 . S
C457 C456 1.327 . S
C457 C461 1.429 . S
C458 C441 1.574 1_545 S
C458 H452 0.949 . S
C458 C462 1.368 . S
C459 C440 1.429 . S
C459 C453 1.429 . S
C459 C460 1.523 . S
C460 C441 1.368 . S
C460 C454 1.368 . S
C460 C459 1.523 . S
C461 C445 1.429 . S
C461 C457 1.429 . S
C461 C462 1.523 . S
C462 C446 1.368 . S
C462 C458 1.368 . S
C462 C461 1.523 . S
H463 C438 0.950 . S
H464 C440 0.950 . S
H465 C441 0.949 . S
H466 C443 0.950 . S
H467 C445 0.950 . S
C468 C469 1.349 . S
C468 C470 1.327 . S
C468 H493 0.950 . S
C469 C468 1.349 . S
C469 C485 1.349 . S
C470 C468 1.327 . S
C470 C489 1.429 . S
C470 H494 0.950 . S
C471 C488 1.574 . S
C471 C490 1.368 . S
C471 H495 0.949 . S
H472 C476 0.949 . S
C473 C474 1.349 . S
C473 C475 1.327 . S
C473 H496 0.950 . S
C474 C473 1.349 . S
C474 C486 1.349 . S
C475 C473 1.327 . S
C475 C491 1.429 . S
C475 H497 0.950 . S
C476 H472 0.949 . S
C476 C484 1.574 . S
C476 C492 1.368 . S
H477 C485 0.950 . S
H478 C483 0.950 . S
H479 C484 0.949 . S
H480 C486 0.950 . S
H481 C487 0.950 . S
H482 C488 0.949 . S
C483 H478 0.950 . S
C483 C485 1.327 . S
C483 C489 1.429 . S
C484 C476 1.574 . S
C484 H479 0.949 . S
C484 C490 1.368 . S
C485 C469 1.349 . S
C485 H477 0.950 . S
C485 C483 1.327 . S
C486 C474 1.349 . S
C486 H480 0.950 . S
C486 C487 1.327 . S
C487 H481 0.950 . S
C487 C486 1.327 . S
C487 C491 1.429 . S
C488 C471 1.574 . S
C488 H482 0.949 . S
C488 C492 1.368 . S
C489 C470 1.429 . S
C489 C483 1.429 . S
C489 C490 1.523 . S
C490 C471 1.368 . S
C490 C484 1.368 . S
C490 C489 1.523 . S
C491 C475 1.429 . S
C491 C487 1.429 . S
C491 C492 1.523 . S
C492 C476 1.368 . S
C492 C488 1.368 . S
C492 C491 1.523 . S
H493 C468 0.950 . S
H494 C470 0.950 . S
H495 C471 0.949 . S
H496 C473 0.950 . S
H497 C475 0.950 . S
C498 C499 1.349 . S
C498 C500 1.327 . S
C498 H523 0.950 . S
C499 C498 1.349 . S
C499 C515 1.349 . S
C500 C498 1.327 . S
C500 C519 1.429 . S
C500 H524 0.950 . S
C501 C518 1.570 1_655 S
C501 C520 1.368 . S
C501 H525 0.949 . S
H502 C506 0.949 . S
C503 C504 1.349 . S
C503 C505 1.327 . S
C503 H526 0.950 . S
C504 C503 1.349 . S
C504 C516 1.349 . S
C505 C503 1.327 . S
C505 C521 1.429 . S
C505 H527 0.950 . S
C506 H502 0.949 . S
C506 C514 1.570 1_455 S
C506 C522 1.368 . S
H507 C515 0.950 . S
H508 C513 0.950 . S
H509 C514 0.948 . S
H510 C516 0.950 . S
H511 C517 0.950 . S
H512 C518 0.948 . S
C513 H508 0.950 . S
C513 C515 1.327 . S
C513 C519 1.429 . S
C514 C506 1.570 1_655 S
C514 H509 0.948 . S
C514 C520 1.372 . S
C515 C499 1.349 . S
C515 H507 0.950 . S
C515 C513 1.327 . S
C516 C504 1.349 . S
C516 H510 0.950 . S
C516 C517 1.327 . S
C517 H511 0.950 . S
C517 C516 1.327 . S
C517 C521 1.429 . S
C518 C501 1.570 1_455 S
C518 H512 0.948 . S
C518 C522 1.372 . S
C519 C500 1.429 . S
C519 C513 1.429 . S
C519 C520 1.523 . S
C520 C501 1.368 . S
C520 C514 1.372 . S
C520 C519 1.523 . S
C521 C505 1.429 . S
C521 C517 1.429 . S
C521 C522 1.523 . S
C522 C506 1.368 . S
C522 C518 1.372 . S
C522 C521 1.523 . S
H523 C498 0.950 . S
H524 C500 0.950 . S
H525 C501 0.949 . S
H526 C503 0.950 . S
H527 C505 0.950 . S
C528 C529 1.349 . S
C528 C530 1.327 . S
C528 H553 0.950 . S
C529 C528 1.349 . S
C529 C545 1.349 . S
C530 C528 1.327 . S
C530 C549 1.429 . S
C530 H554 0.950 . S
C531 C548 1.574 1_545 S
C531 C550 1.368 . S
C531 H555 0.949 . S
H532 C536 0.949 . S
C533 C534 1.349 . S
C533 C535 1.327 . S
C533 H556 0.950 . S
C534 C533 1.349 . S
C534 C546 1.349 . S
C535 C533 1.327 . S
C535 C551 1.429 . S
C535 H557 0.950 . S
C536 H532 0.949 . S
C536 C544 1.574 1_565 S
C536 C552 1.368 . S
H537 C545 0.950 . S
H538 C543 0.950 . S
H539 C544 0.949 . S
H540 C546 0.950 . S
H541 C547 0.950 . S
H542 C548 0.949 . S
C543 H538 0.950 . S
C543 C545 1.327 . S
C543 C549 1.429 . S
C544 C536 1.574 1_545 S
C544 H539 0.949 . S
C544 C550 1.368 . S
C545 C529 1.349 . S
C545 H537 0.950 . S
C545 C543 1.327 . S
C546 C534 1.349 . S
C546 H540 0.950 . S
C546 C547 1.327 . S
C547 H541 0.950 . S
C547 C546 1.327 . S
C547 C551 1.429 . S
C548 C531 1.574 1_565 S
C548 H542 0.949 . S
C548 C552 1.368 . S
C549 C530 1.429 . S
C549 C543 1.429 . S
C549 C550 1.523 . S
C550 C531 1.368 . S
C550 C544 1.368 . S
C550 C549 1.523 . S
C551 C535 1.429 . S
C551 C547 1.429 . S
C551 C552 1.523 . S
C552 C536 1.368 . S
C552 C548 1.368 . S
C552 C551 1.523 . S
H553 C528 0.950 . S
H554 C530 0.950 . S
H555 C531 0.949 . S
H556 C533 0.950 . S
H557 C535 0.950 . S
C558 C559 1.349 . S
C558 C560 1.327 . S
C558 H583 0.950 . S
C559 C558 1.349 . S
C559 C575 1.349 . S
C560 C558 1.327 . S
C560 C579 1.429 . S
C560 H584 0.950 . S
C561 C578 1.574 . S
C561 C580 1.368 . S
C561 H585 0.949 . S
H562 C566 0.949 . S
C563 C564 1.349 . S
C563 C565 1.327 . S
C563 H586 0.950 . S
C564 C563 1.349 . S
C564 C576 1.349 . S
C565 C563 1.327 . S
C565 C581 1.429 . S
C565 H587 0.950 . S
C566 H562 0.949 . S
C566 C574 1.574 . S
C566 C582 1.368 . S
H567 C575 0.950 . S
H568 C573 0.950 . S
H569 C574 0.949 . S
H570 C576 0.950 . S
H571 C577 0.950 . S
H572 C578 0.949 . S
C573 H568 0.950 . S
C573 C575 1.327 . S
C573 C579 1.429 . S
C574 C566 1.574 . S
C574 H569 0.949 . S
C574 C580 1.368 . S
C575 C559 1.349 . S
C575 H567 0.950 . S
C575 C573 1.327 . S
C576 C564 1.349 . S
C576 H570 0.950 . S
C576 C577 1.327 . S
C577 H571 0.950 . S
C577 C576 1.327 . S
C577 C581 1.429 . S
C578 C561 1.574 . S
C578 H572 0.949 . S
C578 C582 1.368 . S
C579 C560 1.429 . S
C579 C573 1.429 . S
C579 C580 1.523 . S
C580 C561 1.368 . S
C580 C574 1.368 . S
C580 C579 1.523 . S
C581 C565 1.429 . S
C581 C577 1.429 . S
C581 C582 1.523 . S
C582 C566 1.368 . S
C582 C578 1.368 . S
C582 C581 1.523 . S
H583 C558 0.950 . S
H584 C560 0.950 . S
H585 C561 0.949 . S
H586 C563 0.950 . S
H587 C565 0.950 . S
C588 C589 1.349 . S
C588 C590 1.327 . S
C588 H613 0.950 . S
C589 C588 1.349 . S
C589 C605 1.349 . S
C590 C588 1.327 . S
C590 C609 1.429 . S
C590 H614 0.950 . S
C591 C608 1.555 1_455 S
C591 C610 1.396 . S
C591 H615 0.942 . S
H592 C596 0.942 . S
C593 C594 1.349 . S
C593 C595 1.327 . S
C593 H616 0.950 . S
C594 C593 1.349 . S
C594 C606 1.349 . S
C595 C593 1.327 . S
C595 C611 1.429 . S
C595 H617 0.950 . S
C596 H592 0.942 . S
C596 C604 1.555 1_655 S
C596 C612 1.396 . S
H597 C605 0.950 . S
H598 C603 0.950 . S
H599 C604 0.949 . S
H600 C606 0.950 . S
H601 C607 0.950 . S
H602 C608 0.949 . S
C603 H598 0.950 . S
C603 C605 1.327 . S
C603 C609 1.429 . S
C604 C596 1.555 1_455 S
C604 H599 0.949 . S
C604 C610 1.368 . S
C605 C589 1.349 . S
C605 H597 0.950 . S
C605 C603 1.327 . S
C606 C594 1.349 . S
C606 H600 0.950 . S
C606 C607 1.327 . S
C607 H601 0.950 . S
C607 C606 1.327 . S
C607 C611 1.429 . S
C608 C591 1.555 1_655 S
C608 H602 0.949 . S
C608 C612 1.368 . S
C609 C590 1.429 . S
C609 C603 1.429 . S
C609 C610 1.523 . S
C610 C591 1.396 . S
C610 C604 1.368 . S
C610 C609 1.523 . S
C611 C595 1.429 . S
C611 C607 1.429 . S
C611 C612 1.523 . S
C612 C596 1.396 . S
C612 C608 1.368 . S
C612 C611 1.523 . S
H613 C588 0.950 . S
H614 C590 0.950 . S
H615 C591 0.942 . S
H616 C593 0.950 . S
H617 C595 0.950 . S
C618 C619 1.349 . S
C618 C620 1.327 . S
C618 H643 0.950 . S
C619 C618 1.349 . S
C619 C635 1.349 . S
C620 C618 1.327 . S
C620 C639 1.429 . S
C620 H644 0.950 . S
C621 C638 1.574 . S
C621 C640 1.368 . S
C621 H645 0.949 . S
H622 C626 0.949 . S
C623 C624 1.349 . S
C623 C625 1.327 . S
C623 H646 0.950 . S
C624 C623 1.349 . S
C624 C636 1.349 . S
C625 C623 1.327 . S
C625 C641 1.429 . S
C625 H647 0.950 . S
C626 H622 0.949 . S
C626 C634 1.574 . S
C626 C642 1.368 . S
H627 C635 0.950 . S
H628 C633 0.950 . S
H629 C634 0.949 . S
H630 C636 0.950 . S
H631 C637 0.950 . S
H632 C638 0.949 . S
C633 H628 0.950 . S
C633 C635 1.327 . S
C633 C639 1.429 . S
C634 C626 1.574 . S
C634 H629 0.949 . S
C634 C640 1.368 1_565 S
C635 C619 1.349 . S
C635 H627 0.950 . S
C635 C633 1.327 . S
C636 C624 1.349 . S
C636 H630 0.950 . S
C636 C637 1.327 . S
C637 H631 0.950 . S
C637 C636 1.327 . S
C637 C641 1.429 . S
C638 C621 1.574 . S
C638 H632 0.949 . S
C638 C642 1.368 1_545 S
C639 C620 1.429 . S
C639 C633 1.429 . S
C639 C640 1.523 . S
C640 C621 1.368 . S
C640 C634 1.368 1_545 S
C640 C639 1.523 . S
C641 C625 1.429 . S
C641 C637 1.429 . S
C641 C642 1.523 . S
C642 C626 1.368 . S
C642 C638 1.368 1_565 S
C642 C641 1.523 . S
H643 C618 0.950 . S
H644 C620 0.950 . S
H645 C621 0.949 . S
H646 C623 0.950 . S
H647 C625 0.950 . S
C648 C649 1.349 . S
C648 C650 1.327 . S
C648 H673 0.950 . S
C649 C648 1.349 . S
C649 C665 1.349 . S
C650 C648 1.327 . S
C650 C669 1.429 . S
C650 H674 0.950 . S
C651 C668 1.574 . S
C651 C670 1.368 . S
C651 H675 0.949 . S
H652 C656 0.949 . S
C653 C654 1.349 . S
C653 C655 1.327 . S
C653 H676 0.950 . S
C654 C653 1.349 . S
C654 C666 1.349 . S
C655 C653 1.327 . S
C655 C671 1.429 . S
C655 H677 0.950 . S
C656 H652 0.949 . S
C656 C664 1.574 . S
C656 C672 1.368 . S
H657 C665 0.950 . S
H658 C663 0.950 . S
H659 C664 0.949 . S
H660 C666 0.950 . S
H661 C667 0.950 . S
H662 C668 0.949 . S
C663 H658 0.950 . S
C663 C665 1.327 . S
C663 C669 1.429 . S
C664 C656 1.574 . S
C664 H659 0.949 . S
C664 C670 1.368 . S
C665 C649 1.349 . S
C665 H657 0.950 . S
C665 C663 1.327 . S
C666 C654 1.349 . S
C666 H660 0.950 . S
C666 C667 1.327 . S
C667 H661 0.950 . S
C667 C666 1.327 . S
C667 C671 1.429 . S
C668 C651 1.574 . S
C668 H662 0.949 . S
C668 C672 1.368 . S
C669 C650 1.429 . S
C669 C663 1.429 . S
C669 C670 1.523 . S
C670 C651 1.368 . S
C670 C664 1.368 . S
C670 C669 1.523 . S
C671 C655 1.429 . S
C671 C667 1.429 . S
C671 C672 1.523 . S
C672 C656 1.368 . S
C672 C668 1.368 . S
C672 C671 1.523 . S
H673 C648 0.950 . S
H674 C650 0.950 . S
H675 C651 0.949 . S
H676 C653 0.950 . S
H677 C655 0.950 . S
C678 C679 1.349 . S
C678 C680 1.327 . S
C678 H703 0.950 . S
C679 C678 1.349 . S
C679 C695 1.349 . S
C680 C678 1.327 . S
C680 C699 1.429 . S
C680 H704 0.950 . S
C681 C698 1.574 1_455 S
C681 C700 1.368 . S
C681 H705 0.949 . S
H682 C686 0.949 . S
C683 C684 1.349 . S
C683 C685 1.327 . S
C683 H706 0.950 . S
C684 C683 1.349 . S
C684 C696 1.349 . S
C685 C683 1.327 . S
C685 C701 1.429 . S
C685 H707 0.950 . S
C686 H682 0.949 . S
C686 C694 1.574 1_655 S
C686 C702 1.368 . S
H687 C695 0.950 . S
H688 C693 0.950 . S
H689 C694 0.949 . S
H690 C696 0.950 . S
H691 C697 0.950 . S
H692 C698 0.949 . S
C693 H688 0.950 . S
C693 C695 1.327 . S
C693 C699 1.429 . S
C694 C686 1.574 1_455 S
C694 H689 0.949 . S
C694 C700 1.368 . S
C695 C679 1.349 . S
C695 H687 0.950 . S
C695 C693 1.327 . S
C696 C684 1.349 . S
C696 H690 0.950 . S
C696 C697 1.327 . S
C697 H691 0.950 . S
C697 C696 1.327 . S
C697 C701 1.429 . S
C698 C681 1.574 1_655 S
C698 H692 0.949 . S
C698 C702 1.368 . S
C699 C680 1.429 . S
C699 C693 1.429 . S
C699 C700 1.523 . S
C700 C681 1.368 . S
C700 C694 1.368 . S
C700 C699 1.523 . S
C701 C685 1.429 . S
C701 C697 1.429 . S
C701 C702 1.523 . S
C702 C686 1.368 . S
C702 C698 1.368 . S
C702 C701 1.523 . S
H703 C678 0.950 . S
H704 C680 0.950 . S
H705 C681 0.949 . S
H706 C683 0.950 . S
H707 C685 0.950 . S
C708 C709 1.349 . S
C708 C710 1.327 . S
C708 H733 0.950 . S
C709 C708 1.349 . S
C709 C725 1.349 1_556 S
C710 C708 1.327 . S
C710 C729 1.429 . S
C710 H734 0.950 . S
C711 C728 1.508 1_565 S
C711 C730 1.404 1_554 S
C711 H735 0.980 . S
H712 C716 0.980 . S
C713 C714 1.349 1_554 S
C713 C715 1.327 . S
C713 H736 0.950 . S
C714 C713 1.349 1_556 S
C714 C726 1.349 . S
C715 C713 1.327 . S
C715 C731 1.429 1_554 S
C715 H737 0.950 . S
C716 H712 0.980 . S
C716 C724 1.508 1_545 S
C716 C732 1.404 . S
H717 C725 0.950 . S
H718 C723 0.950 . S
H719 C724 0.949 . S
H720 C726 0.950 . S
H721 C727 0.950 . S
H722 C728 0.949 . S
C723 H718 0.950 . S
C723 C725 1.327 . S
C723 C729 1.429 1_554 S
C724 C716 1.508 1_565 S
C724 H719 0.949 . S
C724 C730 1.368 . S
C725 C709 1.349 1_554 S
C725 H717 0.950 . S
C725 C723 1.327 . S
C726 C714 1.349 . S
C726 H720 0.950 . S
C726 C727 1.327 . S
C727 H721 0.950 . S
C727 C726 1.327 . S
C727 C731 1.429 . S
C728 C711 1.508 1_545 S
C728 H722 0.949 . S
C728 C732 1.368 1_554 S
C729 C710 1.429 . S
C729 C723 1.429 1_556 S
C729 C730 1.523 . S
C730 C711 1.404 1_556 S
C730 C724 1.368 . S
C730 C729 1.523 . S
C731 C715 1.429 1_556 S
C731 C727 1.429 . S
C731 C732 1.523 . S
C732 C716 1.404 . S
C732 C728 1.368 1_556 S
C732 C731 1.523 . S
H733 C708 0.950 . S
H734 C710 0.950 . S
H735 C711 0.980 . S
H736 C713 0.950 . S
H737 C715 0.950 . S
C738 C739 1.349 . S
C738 C740 1.327 . S
C738 H763 0.950 . S
C739 C738 1.349 . S
C739 C755 1.349 1_556 S
C740 C738 1.327 . S
C740 C759 1.429 . S
C740 H764 0.950 . S
C741 C758 1.574 . S
C741 C760 1.368 1_554 S
C741 H765 0.949 . S
H742 C746 0.949 . S
C743 C744 1.349 1_554 S
C743 C745 1.327 . S
C743 H766 0.950 . S
C744 C743 1.349 1_556 S
C744 C756 1.349 . S
C745 C743 1.327 . S
C745 C761 1.429 1_554 S
C745 H767 0.950 . S
C746 H742 0.949 . S
C746 C754 1.574 . S
C746 C762 1.368 . S
H747 C755 0.950 . S
H748 C753 0.950 . S
H749 C754 0.949 . S
H750 C756 0.950 . S
H751 C757 0.950 . S
H752 C758 0.949 . S
C753 H748 0.950 . S
C753 C755 1.327 . S
C753 C759 1.429 1_554 S
C754 C746 1.574 . S
C754 H749 0.949 . S
C754 C760 1.368 . S
C755 C739 1.349 1_554 S
C755 H747 0.950 . S
C755 C753 1.327 . S
C756 C744 1.349 . S
C756 H750 0.950 . S
C756 C757 1.327 . S
C757 H751 0.950 . S
C757 C756 1.327 . S
C757 C761 1.429 . S
C758 C741 1.574 . S
C758 H752 0.949 . S
C758 C762 1.368 1_554 S
C759 C740 1.429 . S
C759 C753 1.429 1_556 S
C759 C760 1.523 . S
C760 C741 1.368 1_556 S
C760 C754 1.368 . S
C760 C759 1.523 . S
C761 C745 1.429 1_556 S
C761 C757 1.429 . S
C761 C762 1.523 . S
C762 C746 1.368 . S
C762 C758 1.368 1_556 S
C762 C761 1.523 . S
H763 C738 0.950 . S
H764 C740 0.950 . S
H765 C741 0.949 . S
H766 C743 0.950 . S
H767 C745 0.950 . S
C768 C769 1.349 . S
C768 C770 1.327 . S
C768 H793 0.950 . S
C769 C768 1.349 . S
C769 C785 1.349 1_556 S
C770 C768 1.327 . S
C770 C789 1.429 . S
C770 H794 0.950 . S
C771 C788 1.556 1_455 S
C771 C790 1.411 1_554 S
C771 H795 0.930 . S
H772 C776 0.930 . S
C773 C774 1.349 1_554 S
C773 C775 1.327 . S
C773 H796 0.950 . S
C774 C773 1.349 1_556 S
C774 C786 1.349 . S
C775 C773 1.327 . S
C775 C791 1.429 1_554 S
C775 H797 0.950 . S
C776 H772 0.930 . S
C776 C784 1.556 1_655 S
C776 C792 1.411 . S
H777 C785 0.950 . S
H778 C783 0.950 . S
H779 C784 0.949 . S
H780 C786 0.950 . S
H781 C787 0.950 . S
H782 C788 0.949 . S
C783 H778 0.950 . S
C783 C785 1.327 . S
C783 C789 1.429 1_554 S
C784 C776 1.556 1_455 S
C784 H779 0.949 . S
C784 C790 1.368 . S
C785 C769 1.349 1_554 S
C785 H777 0.950 . S
C785 C783 1.327 . S
C786 C774 1.349 . S
C786 H780 0.950 . S
C786 C787 1.327 . S
C787 H781 0.950 . S
C787 C786 1.327 . S
C787 C791 1.429 . S
C788 C771 1.556 1_655 S
C788 H782 0.949 . S
C788 C792 1.368 1_554 S
C789 C770 1.429 . S
C789 C783 1.429 1_556 S
C789 C790 1.523 . S
C790 C771 1.411 1_556 S
C790 C784 1.368 . S
C790 C789 1.523 . S
C791 C775 1.429 1_556 S
C791 C787 1.429 . S
C791 C792 1.523 . S
C792 C776 1.411 . S
C792 C788 1.368 1_556 S
C792 C791 1.523 . S
H793 C768 0.950 . S
H794 C770 0.950 . S
H795 C771 0.930 . S
H796 C773 0.950 . S
H797 C775 0.950 . S
C798 C799 1.349 . S
C798 C800 1.327 . S
C798 H823 0.950 . S
C799 C798 1.349 . S
C799 C815 1.349 . S
C800 C798 1.327 . S
C800 C819 1.429 . S
C800 H824 0.950 . S
C801 C818 1.574 . S
C801 C820 1.368 1_455 S
C801 H825 0.949 . S
H802 C806 0.949 . S
C803 C804 1.349 . S
C803 C805 1.327 . S
C803 H826 0.950 . S
C804 C803 1.349 . S
C804 C816 1.349 . S
C805 C803 1.327 . S
C805 C821 1.429 . S
C805 H827 0.950 . S
C806 H802 0.949 . S
C806 C814 1.574 . S
C806 C822 1.368 1_655 S
H807 C815 0.950 . S
H808 C813 0.950 . S
H809 C814 0.949 . S
H810 C816 0.950 . S
H811 C817 0.950 . S
H812 C818 0.949 . S
C813 H808 0.950 . S
C813 C815 1.327 . S
C813 C819 1.429 . S
C814 C806 1.574 . S
C814 H809 0.949 . S
C814 C820 1.368 . S
C815 C799 1.349 . S
C815 H807 0.950 . S
C815 C813 1.327 . S
C816 C804 1.349 . S
C816 H810 0.950 . S
C816 C817 1.327 . S
C817 H811 0.950 . S
C817 C816 1.327 . S
C817 C821 1.429 . S
C818 C801 1.574 . S
C818 H812 0.949 . S
C818 C822 1.368 . S
C819 C800 1.429 . S
C819 C813 1.429 . S
C819 C820 1.523 . S
C820 C801 1.368 1_655 S
C820 C814 1.368 . S
C820 C819 1.523 . S
C821 C805 1.429 . S
C821 C817 1.429 . S
C821 C822 1.523 . S
C822 C806 1.368 1_455 S
C822 C818 1.368 . S
C822 C821 1.523 . S
H823 C798 0.950 . S
H824 C800 0.950 . S
H825 C801 0.949 . S
H826 C803 0.950 . S
H827 C805 0.950 . S
C828 C829 1.349 . S
C828 C830 1.327 . S
C828 H853 0.950 . S
C829 C828 1.349 . S
C829 C845 1.349 . S
C830 C828 1.327 . S
C830 C849 1.429 . S
C830 H854 0.950 . S
C831 C848 1.556 1_565 S
C831 C850 1.368 . S
C831 H855 0.949 . S
H832 C836 0.949 . S
C833 C834 1.349 . S
C833 C835 1.327 . S
C833 H856 0.950 . S
C834 C833 1.349 . S
C834 C846 1.349 . S
C835 C833 1.327 . S
C835 C851 1.429 . S
C835 H857 0.950 . S
C836 H832 0.949 . S
C836 C844 1.556 1_545 S
C836 C852 1.368 . S
H837 C845 0.950 . S
H838 C843 0.950 . S
H839 C844 0.930 . S
H840 C846 0.950 . S
H841 C847 0.950 . S
H842 C848 0.930 . S
C843 H838 0.950 . S
C843 C845 1.327 . S
C843 C849 1.429 . S
C844 C836 1.556 1_565 S
C844 H839 0.930 . S
C844 C850 1.411 . S
C845 C829 1.349 . S
C845 H837 0.950 . S
C845 C843 1.327 . S
C846 C834 1.349 . S
C846 H840 0.950 . S
C846 C847 1.327 . S
C847 H841 0.950 . S
C847 C846 1.327 . S
C847 C851 1.429 . S
C848 C831 1.556 1_545 S
C848 H842 0.930 . S
C848 C852 1.411 . S
C849 C830 1.429 . S
C849 C843 1.429 . S
C849 C850 1.523 . S
C850 C831 1.368 . S
C850 C844 1.411 . S
C850 C849 1.523 . S
C851 C835 1.429 . S
C851 C847 1.429 . S
C851 C852 1.523 . S
C852 C836 1.368 . S
C852 C848 1.411 . S
C852 C851 1.523 . S
H853 C828 0.950 . S
H854 C830 0.950 . S
H855 C831 0.949 . S
H856 C833 0.950 . S
H857 C835 0.950 . S
C858 C859 1.349 . S
C858 C860 1.327 . S
C858 H883 0.950 . S
C859 C858 1.349 . S
C859 C875 1.349 . S
C860 C858 1.327 . S
C860 C879 1.429 . S
C860 H884 0.950 . S
C861 C878 1.574 . S
C861 C880 1.368 . S
C861 H885 0.949 . S
H862 C866 0.949 . S
C863 C864 1.349 . S
C863 C865 1.327 . S
C863 H886 0.950 . S
C864 C863 1.349 . S
C864 C876 1.349 . S
C865 C863 1.327 . S
C865 C881 1.429 . S
C865 H887 0.950 . S
C866 H862 0.949 . S
C866 C874 1.574 . S
C866 C882 1.368 . S
H867 C875 0.950 . S
H868 C873 0.950 . S
H869 C874 0.949 . S
H870 C876 0.950 . S
H871 C877 0.950 . S
H872 C878 0.949 . S
C873 H868 0.950 . S
C873 C875 1.327 . S
C873 C879 1.429 . S
C874 C866 1.574 . S
C874 H869 0.949 . S
C874 C880 1.368 . S
C875 C859 1.349 . S
C875 H867 0.950 . S
C875 C873 1.327 . S
C876 C864 1.349 . S
C876 H870 0.950 . S
C876 C877 1.327 . S
C877 H871 0.950 . S
C877 C876 1.327 . S
C877 C881 1.429 . S
C878 C861 1.574 . S
C878 H872 0.949 . S
C878 C882 1.368 . S
C879 C860 1.429 . S
C879 C873 1.429 . S
C879 C880 1.523 . S
C880 C861 1.368 . S
C880 C874 1.368 . S
C880 C879 1.523 . S
C881 C865 1.429 . S
C881 C877 1.429 . S
C881 C882 1.523 . S
C882 C866 1.368 . S
C882 C878 1.368 . S
C882 C881 1.523 . S
H883 C858 0.950 . S
H884 C860 0.950 . S
H885 C861 0.949 . S
H886 C863 0.950 . S
H887 C865 0.950 . S
C888 C889 1.349 . S
C888 C890 1.327 . S
C888 H913 0.950 . S
C889 C888 1.349 . S
C889 C905 1.349 . S
C890 C888 1.327 . S
C890 C909 1.429 . S
C890 H914 0.950 . S
C891 C908 1.574 . S
C891 C910 1.368 . S
C891 H915 0.949 . S
H892 C896 0.949 . S
C893 C894 1.349 . S
C893 C895 1.327 . S
C893 H916 0.950 . S
C894 C893 1.349 . S
C894 C906 1.349 . S
C895 C893 1.327 . S
C895 C911 1.429 . S
C895 H917 0.950 . S
C896 H892 0.949 . S
C896 C904 1.574 . S
C896 C912 1.368 . S
H897 C905 0.950 . S
H898 C903 0.950 . S
H899 C904 0.949 . S
H900 C906 0.950 . S
H901 C907 0.950 . S
H902 C908 0.949 . S
C903 H898 0.950 . S
C903 C905 1.327 . S
C903 C909 1.429 . S
C904 C896 1.574 . S
C904 H899 0.949 . S
C904 C910 1.368 . S
C905 C889 1.349 . S
C905 H897 0.950 . S
C905 C903 1.327 . S
C906 C894 1.349 . S
C906 H900 0.950 . S
C906 C907 1.327 . S
C907 H901 0.950 . S
C907 C906 1.327 . S
C907 C911 1.429 . S
C908 C891 1.574 . S
C908 H902 0.949 . S
C908 C912 1.368 . S
C909 C890 1.429 . S
C909 C903 1.429 . S
C909 C910 1.523 . S
C910 C891 1.368 . S
C910 C904 1.368 . S
C910 C909 1.523 . S
C911 C895 1.429 . S
C911 C907 1.429 . S
C911 C912 1.523 . S
C912 C896 1.368 . S
C912 C908 1.368 . S
C912 C911 1.523 . S
H913 C888 0.950 . S
H914 C890 0.950 . S
H915 C891 0.949 . S
H916 C893 0.950 . S
H917 C895 0.950 . S
C918 C919 1.349 . S
C918 C920 1.327 . S
C918 H943 0.950 . S
C919 C918 1.349 . S
C919 C935 1.349 . S
C920 C918 1.327 . S
C920 C939 1.429 . S
C920 H944 0.950 . S
C921 C938 1.574 . S
C921 C940 1.368 . S
C921 H945 0.949 . S
H922 C926 0.949 . S
C923 C924 1.349 . S
C923 C925 1.327 . S
C923 H946 0.950 . S
C924 C923 1.349 . S
C924 C936 1.349 . S
C925 C923 1.327 . S
C925 C941 1.429 . S
C925 H947 0.950 . S
C926 H922 0.949 . S
C926 C934 1.574 . S
C926 C942 1.368 . S
H927 C935 0.950 . S
H928 C933 0.950 . S
H929 C934 0.949 . S
H930 C936 0.950 . S
H931 C937 0.950 . S
H932 C938 0.949 . S
C933 H928 0.950 . S
C933 C935 1.327 . S
C933 C939 1.429 . S
C934 C926 1.574 . S
C934 H929 0.949 . S
C934 C940 1.368 . S
C935 C919 1.349 . S
C935 H927 0.950 . S
C935 C933 1.327 . S
C936 C924 1.349 . S
C936 H930 0.950 . S
C936 C937 1.327 . S
C937 H931 0.950 . S
C937 C936 1.327 . S
C937 C941 1.429 . S
C938 C921 1.574 . S
C938 H932 0.949 . S
C938 C942 1.368 . S
C939 C920 1.429 . S
C939 C933 1.429 . S
C939 C940 1.523 . S
C940 C921 1.368 . S
C940 C934 1.368 . S
C940 C939 1.523 . S
C941 C925 1.429 . S
C941 C937 1.429 . S
C941 C942 1.523 . S
C942 C926 1.368 . S
C942 C938 1.368 . S
C942 C941 1.523 . S
H943 C918 0.950 . S
H944 C920 0.950 . S
H945 C921 0.949 . S
H946 C923 0.950 . S
H947 C925 0.950 . S
C948 C949 1.349 . S
C948 C950 1.327 . S
C948 H973 0.950 . S
C949 C948 1.349 . S
C949 C965 1.349 . S
C950 C948 1.327 . S
C950 C969 1.429 . S
C950 H974 0.950 . S
C951 C968 1.574 . S
C951 C970 1.368 . S
C951 H975 0.949 . S
H952 C956 0.949 . S
C953 C954 1.349 . S
C953 C955 1.327 . S
C953 H976 0.950 . S
C954 C953 1.349 . S
C954 C966 1.349 . S
C955 C953 1.327 . S
C955 C971 1.429 . S
C955 H977 0.950 . S
C956 H952 0.949 . S
C956 C964 1.574 . S
C956 C972 1.368 . S
H957 C965 0.950 . S
H958 C963 0.950 . S
H959 C964 0.949 . S
H960 C966 0.950 . S
H961 C967 0.950 . S
H962 C968 0.949 . S
C963 H958 0.950 . S
C963 C965 1.327 . S
C963 C969 1.429 . S
C964 C956 1.574 . S
C964 H959 0.949 . S
C964 C970 1.368 . S
C965 C949 1.349 . S
C965 H957 0.950 . S
C965 C963 1.327 . S
C966 C954 1.349 . S
C966 H960 0.950 . S
C966 C967 1.327 . S
C967 H961 0.950 . S
C967 C966 1.327 . S
C967 C971 1.429 . S
C968 C951 1.574 . S
C968 H962 0.949 . S
C968 C972 1.368 . S
C969 C950 1.429 . S
C969 C963 1.429 . S
C969 C970 1.523 . S
C970 C951 1.368 . S
C970 C964 1.368 . S
C970 C969 1.523 . S
C971 C955 1.429 . S
C971 C967 1.429 . S
C971 C972 1.523 . S
C972 C956 1.368 . S
C972 C968 1.368 . S
C972 C971 1.523 . S
H973 C948 0.950 . S
H974 C950 0.950 . S
H975 C951 0.949 . S
H976 C953 0.950 . S
H977 C955 0.950 . S
C978 C979 1.349 . S
C978 C980 1.327 . S
C978 H1003 0.950 . S
C979 C978 1.349 . S
C979 C995 1.349 . S
C980 C978 1.327 . S
C980 C999 1.429 . S
C980 H1004 0.950 . S
C981 C998 1.574 . S
C981 C1000 1.368 . S
C981 H1005 0.949 . S
H982 C986 0.949 . S
C983 C984 1.349 . S
C983 C985 1.327 . S
C983 H1006 0.950 . S
C984 C983 1.349 . S
C984 C996 1.349 . S
C985 C983 1.327 . S
C985 C1001 1.429 . S
C985 H1007 0.950 . S
C986 H982 0.949 . S
C986 C994 1.574 . S
C986 C1002 1.368 . S
H987 C995 0.950 . S
H988 C993 0.950 . S
H989 C994 0.949 . S
H990 C996 0.950 . S
H991 C997 0.950 . S
H992 C998 0.949 . S
C993 H988 0.950 . S
C993 C995 1.327 . S
C993 C999 1.429 . S
C994 C986 1.574 . S
C994 H989 0.949 . S
C994 C1000 1.368 . S
C995 C979 1.349 . S
C995 H987 0.950 . S
C995 C993 1.327 . S
C996 C984 1.349 . S
C996 H990 0.950 . S
C996 C997 1.327 . S
C997 H991 0.950 . S
C997 C996 1.327 . S
C997 C1001 1.429 . S
C998 C981 1.574 . S
C998 H992 0.949 . S
C998 C1002 1.368 . S
C999 C980 1.429 . S
C999 C993 1.429 . S
C999 C1000 1.523 . S
C1000 C981 1.368 . S
C1000 C994 1.368 . S
C1000 C999 1.523 . S
C1001 C985 1.429 . S
C1001 C997 1.429 . S
C1001 C1002 1.523 . S
C1002 C986 1.368 . S
C1002 C998 1.368 . S
C1002 C1001 1.523 . S
H1003 C978 0.950 . S
H1004 C980 0.950 . S
H1005 C981 0.949 . S
H1006 C983 0.950 . S
H1007 C985 0.950 . S
C1008 C1009 1.349 . S
C1008 C1010 1.327 . S
C1008 H1033 0.950 . S
C1009 C1008 1.349 . S
C1009 C1025 1.349 . S
C1010 C1008 1.327 . S
C1010 C1029 1.429 . S
C1010 H1034 0.950 . S
C1011 C1028 1.574 . S
C1011 C1030 1.368 . S
C1011 H1035 0.949 . S
H1012 C1016 0.949 . S
C1013 C1014 1.349 . S
C1013 C1015 1.327 . S
C1013 H1036 0.950 . S
C1014 C1013 1.349 . S
C1014 C1026 1.349 . S
C1015 C1013 1.327 . S
C1015 C1031 1.429 . S
C1015 H1037 0.950 . S
C1016 H1012 0.949 . S
C1016 C1024 1.574 . S
C1016 C1032 1.368 . S
H1017 C1025 0.950 . S
H1018 C1023 0.950 . S
H1019 C1024 0.949 . S
H1020 C1026 0.950 . S
H1021 C1027 0.950 . S
H1022 C1028 0.949 . S
C1023 H1018 0.950 . S
C1023 C1025 1.327 . S
C1023 C1029 1.429 . S
C1024 C1016 1.574 . S
C1024 H1019 0.949 . S
C1024 C1030 1.368 . S
C1025 C1009 1.349 . S
C1025 H1017 0.950 . S
C1025 C1023 1.327 . S
C1026 C1014 1.349 . S
C1026 H1020 0.950 . S
C1026 C1027 1.327 . S
C1027 H1021 0.950 . S
C1027 C1026 1.327 . S
C1027 C1031 1.429 . S
C1028 C1011 1.574 . S
C1028 H1022 0.949 . S
C1028 C1032 1.368 . S
C1029 C1010 1.429 . S
C1029 C1023 1.429 . S
C1029 C1030 1.523 . S
C1030 C1011 1.368 . S
C1030 C1024 1.368 . S
C1030 C1029 1.523 . S
C1031 C1015 1.429 . S
C1031 C1027 1.429 . S
C1031 C1032 1.523 . S
C1032 C1016 1.368 . S
C1032 C1028 1.368 . S
C1032 C1031 1.523 . S
H1033 C1008 0.950 . S
H1034 C1010 0.950 . S
H1035 C1011 0.949 . S
H1036 C1013 0.950 . S
H1037 C1015 0.950 . S
C1038 C1039 1.349 . S
C1038 C1040 1.327 . S
C1038 H1063 0.950 . S
C1039 C1038 1.349 . S
C1039 C1055 1.349 . S
C1040 C1038 1.327 . S
C1040 C1059 1.429 . S
C1040 H1064 0.950 . S
C1041 C1058 1.574 . S
C1041 C1060 1.368 . S
C1041 H1065 0.949 . S
H1042 C1046 0.949 . S
C1043 C1044 1.349 . S
C1043 C1045 1.327 . S
C1043 H1066 0.950 . S
C1044 C1043 1.349 . S
C1044 C1056 1.349 . S
C1045 C1043 1.327 . S
C1045 C1061 1.429 . S
C1045 H1067 0.950 . S
C1046 H1042 0.949 . S
C1046 C1054 1.574 . S
C1046 C1062 1.368 . S
H1047 C1055 0.950 . S
H1048 C1053 0.950 . S
H1049 C1054 0.949 . S
H1050 C1056 0.950 . S
H1051 C1057 0.950 . S
H1052 C1058 0.949 . S
C1053 H1048 0.950 . S
C1053 C1055 1.327 . S
C1053 C1059 1.429 . S
C1054 C1046 1.574 . S
C1054 H1049 0.949 . S
C1054 C1060 1.368 . S
C1055 C1039 1.349 . S
C1055 H1047 0.950 . S
C1055 C1053 1.327 . S
C1056 C1044 1.349 . S
C1056 H1050 0.950 . S
C1056 C1057 1.327 . S
C1057 H1051 0.950 . S
C1057 C1056 1.327 . S
C1057 C1061 1.429 . S
C1058 C1041 1.574 . S
C1058 H1052 0.949 . S
C1058 C1062 1.368 . S
C1059 C1040 1.429 . S
C1059 C1053 1.429 . S
C1059 C1060 1.523 . S
C1060 C1041 1.368 . S
C1060 C1054 1.368 . S
C1060 C1059 1.523 . S
C1061 C1045 1.429 . S
C1061 C1057 1.429 . S
C1061 C1062 1.523 . S
C1062 C1046 1.368 . S
C1062 C1058 1.368 . S
C1062 C1061 1.523 . S
H1063 C1038 0.950 . S
H1064 C1040 0.950 . S
H1065 C1041 0.949 . S
H1066 C1043 0.950 . S
H1067 C1045 0.950 . S
C1068 C1069 1.349 . S
C1068 C1070 1.327 . S
C1068 H1093 0.950 . S
C1069 C1068 1.349 . S
C1069 C1085 1.349 . S
C1070 C1068 1.327 . S
C1070 C1089 1.429 . S
C1070 H1094 0.950 . S
C1071 C1088 1.574 . S
C1071 C1090 1.368 . S
C1071 H1095 0.949 . S
H1072 C1076 0.949 . S
C1073 C1074 1.349 . S
C1073 C1075 1.327 . S
C1073 H1096 0.950 . S
C1074 C1073 1.349 . S
C1074 C1086 1.349 . S
C1075 C1073 1.327 . S
C1075 C1091 1.429 . S
C1075 H1097 0.950 . S
C1076 H1072 0.949 . S
C1076 C1084 1.574 . S
C1076 C1092 1.368 . S
H1077 C1085 0.950 . S
H1078 C1083 0.950 . S
H1079 C1084 0.949 . S
H1080 C1086 0.950 . S
H1081 C1087 0.950 . S
H1082 C1088 0.949 . S
C1083 H1078 0.950 . S
C1083 C1085 1.327 . S
C1083 C1089 1.429 . S
C1084 C1076 1.574 . S
C1084 H1079 0.949 . S
C1084 C1090 1.368 . S
C1085 C1069 1.349 . S
C1085 H1077 0.950 . S
C1085 C1083 1.327 . S
C1086 C1074 1.349 . S
C1086 H1080 0.950 . S
C1086 C1087 1.327 . S
C1087 H1081 0.950 . S
C1087 C1086 1.327 . S
C1087 C1091 1.429 . S
C1088 C1071 1.574 . S
C1088 H1082 0.949 . S
C1088 C1092 1.368 . S
C1089 C1070 1.429 . S
C1089 C1083 1.429 . S
C1089 C1090 1.523 . S
C1090 C1071 1.368 . S
C1090 C1084 1.368 . S
C1090 C1089 1.523 . S
C1091 C1075 1.429 . S
C1091 C1087 1.429 . S
C1091 C1092 1.523 . S
C1092 C1076 1.368 . S
C1092 C1088 1.368 . S
C1092 C1091 1.523 . S
H1093 C1068 0.950 . S
H1094 C1070 0.950 . S
H1095 C1071 0.949 . S
H1096 C1073 0.950 . S
H1097 C1075 0.950 . S
C1098 C1099 1.349 . S
C1098 C1100 1.327 . S
C1098 H1123 0.950 . S
C1099 C1098 1.349 . S
C1099 C1115 1.349 . S
C1100 C1098 1.327 . S
C1100 C1119 1.429 . S
C1100 H1124 0.950 . S
C1101 C1118 1.574 . S
C1101 C1120 1.368 . S
C1101 H1125 0.949 . S
H1102 C1106 0.949 . S
C1103 C1104 1.349 . S
C1103 C1105 1.327 . S
C1103 H1126 0.950 . S
C1104 C1103 1.349 . S
C1104 C1116 1.349 . S
C1105 C1103 1.327 . S
C1105 C1121 1.429 . S
C1105 H1127 0.950 . S
C1106 H1102 0.949 . S
C1106 C1114 1.574 . S
C1106 C1122 1.368 . S
H1107 C1115 0.950 . S
H1108 C1113 0.950 . S
H1109 C1114 0.949 . S
H1110 C1116 0.950 . S
H1111 C1117 0.950 . S
H1112 C1118 0.949 . S
C1113 H1108 0.950 . S
C1113 C1115 1.327 . S
C1113 C1119 1.429 . S
C1114 C1106 1.574 . S
C1114 H1109 0.949 . S
C1114 C1120 1.368 . S
C1115 C1099 1.349 . S
C1115 H1107 0.950 . S
C1115 C1113 1.327 . S
C1116 C1104 1.349 . S
C1116 H1110 0.950 . S
C1116 C1117 1.327 . S
C1117 H1111 0.950 . S
C1117 C1116 1.327 . S
C1117 C1121 1.429 . S
C1118 C1101 1.574 . S
C1118 H1112 0.949 . S
C1118 C1122 1.368 . S
C1119 C1100 1.429 . S
C1119 C1113 1.429 . S
C1119 C1120 1.523 . S
C1120 C1101 1.368 . S
C1120 C1114 1.368 . S
C1120 C1119 1.523 . S
C1121 C1105 1.429 . S
C1121 C1117 1.429 . S
C1121 C1122 1.523 . S
C1122 C1106 1.368 . S
C1122 C1118 1.368 . S
C1122 C1121 1.523 . S
H1123 C1098 0.950 . S
H1124 C1100 0.950 . S
H1125 C1101 0.949 . S
H1126 C1103 0.950 . S
H1127 C1105 0.950 . S
C1128 C1129 1.349 . S
C1128 C1130 1.327 . S
C1128 H1153 0.950 . S
C1129 C1128 1.349 . S
C1129 C1145 1.349 . S
C1130 C1128 1.327 . S
C1130 C1149 1.429 . S
C1130 H1154 0.950 . S
C1131 C1148 1.574 . S
C1131 C1150 1.368 . S
C1131 H1155 0.949 . S
H1132 C1136 0.949 . S
C1133 C1134 1.349 . S
C1133 C1135 1.327 . S
C1133 H1156 0.950 . S
C1134 C1133 1.349 . S
C1134 C1146 1.349 . S
C1135 C1133 1.327 . S
C1135 C1151 1.429 . S
C1135 H1157 0.950 . S
C1136 H1132 0.949 . S
C1136 C1144 1.574 . S
C1136 C1152 1.368 . S
H1137 C1145 0.950 . S
H1138 C1143 0.950 . S
H1139 C1144 0.949 . S
H1140 C1146 0.950 . S
H1141 C1147 0.950 . S
H1142 C1148 0.949 . S
C1143 H1138 0.950 . S
C1143 C1145 1.327 . S
C1143 C1149 1.429 . S
C1144 C1136 1.574 . S
C1144 H1139 0.949 . S
C1144 C1150 1.368 . S
C1145 C1129 1.349 . S
C1145 H1137 0.950 . S
C1145 C1143 1.327 . S
C1146 C1134 1.349 . S
C1146 H1140 0.950 . S
C1146 C1147 1.327 . S
C1147 H1141 0.950 . S
C1147 C1146 1.327 . S
C1147 C1151 1.429 . S
C1148 C1131 1.574 . S
C1148 H1142 0.949 . S
C1148 C1152 1.368 . S
C1149 C1130 1.429 . S
C1149 C1143 1.429 . S
C1149 C1150 1.523 . S
C1150 C1131 1.368 . S
C1150 C1144 1.368 . S
C1150 C1149 1.523 . S
C1151 C1135 1.429 . S
C1151 C1147 1.429 . S
C1151 C1152 1.523 . S
C1152 C1136 1.368 . S
C1152 C1148 1.368 . S
C1152 C1151 1.523 . S
H1153 C1128 0.950 . S
H1154 C1130 0.950 . S
H1155 C1131 0.949 . S
H1156 C1133 0.950 . S
H1157 C1135 0.950 . S
C1158 C1159 1.349 . S
C1158 C1160 1.327 . S
C1158 H1183 0.950 . S
C1159 C1158 1.349 . S
C1159 C1175 1.349 . S
C1160 C1158 1.327 . S
C1160 C1179 1.429 . S
C1160 H1184 0.950 . S
C1161 C1178 1.574 . S
C1161 C1180 1.368 . S
C1161 H1185 0.949 . S
H1162 C1166 0.949 . S
C1163 C1164 1.349 . S
C1163 C1165 1.327 . S
C1163 H1186 0.950 . S
C1164 C1163 1.349 . S
C1164 C1176 1.349 . S
C1165 C1163 1.327 . S
C1165 C1181 1.429 . S
C1165 H1187 0.950 . S
C1166 H1162 0.949 . S
C1166 C1174 1.574 . S
C1166 C1182 1.368 . S
H1167 C1175 0.950 . S
H1168 C1173 0.950 . S
H1169 C1174 0.949 . S
H1170 C1176 0.950 . S
H1171 C1177 0.950 . S
H1172 C1178 0.949 . S
C1173 H1168 0.950 . S
C1173 C1175 1.327 . S
C1173 C1179 1.429 . S
C1174 C1166 1.574 . S
C1174 H1169 0.949 . S
C1174 C1180 1.368 . S
C1175 C1159 1.349 . S
C1175 H1167 0.950 . S
C1175 C1173 1.327 . S
C1176 C1164 1.349 . S
C1176 H1170 0.950 . S
C1176 C1177 1.327 . S
C1177 H1171 0.950 . S
C1177 C1176 1.327 . S
C1177 C1181 1.429 . S
C1178 C1161 1.574 . S
C1178 H1172 0.949 . S
C1178 C1182 1.368 . S
C1179 C1160 1.429 . S
C1179 C1173 1.429 . S
C1179 C1180 1.523 . S
C1180 C1161 1.368 . S
C1180 C1174 1.368 . S
C1180 C1179 1.523 . S
C1181 C1165 1.429 . S
C1181 C1177 1.429 . S
C1181 C1182 1.523 . S
C1182 C1166 1.368 . S
C1182 C1178 1.368 . S
C1182 C1181 1.523 . S
H1183 C1158 0.950 . S
H1184 C1160 0.950 . S
H1185 C1161 0.949 . S
H1186 C1163 0.950 . S
H1187 C1165 0.950 . S
C1188 C1189 1.349 . S
C1188 C1190 1.327 . S
C1188 H1213 0.950 . S
C1189 C1188 1.349 . S
C1189 C1205 1.349 . S
C1190 C1188 1.327 . S
C1190 C1209 1.429 . S
C1190 H1214 0.950 . S
C1191 C1208 1.574 . S
C1191 C1210 1.368 . S
C1191 H1215 0.949 . S
H1192 C1196 0.949 . S
C1193 C1194 1.349 . S
C1193 C1195 1.327 . S
C1193 H1216 0.950 . S
C1194 C1193 1.349 . S
C1194 C1206 1.349 . S
C1195 C1193 1.327 . S
C1195 C1211 1.429 . S
C1195 H1217 0.950 . S
C1196 H1192 0.949 . S
C1196 C1204 1.574 . S
C1196 C1212 1.368 . S
H1197 C1205 0.950 . S
H1198 C1203 0.950 . S
H1199 C1204 0.949 . S
H1200 C1206 0.950 . S
H1201 C1207 0.950 . S
H1202 C1208 0.949 . S
C1203 H1198 0.950 . S
C1203 C1205 1.327 . S
C1203 C1209 1.429 . S
C1204 C1196 1.574 . S
C1204 H1199 0.949 . S
C1204 C1210 1.368 . S
C1205 C1189 1.349 . S
C1205 H1197 0.950 . S
C1205 C1203 1.327 . S
C1206 C1194 1.349 . S
C1206 H1200 0.950 . S
C1206 C1207 1.327 . S
C1207 H1201 0.950 . S
C1207 C1206 1.327 . S
C1207 C1211 1.429 . S
C1208 C1191 1.574 . S
C1208 H1202 0.949 . S
C1208 C1212 1.368 . S
C1209 C1190 1.429 . S
C1209 C1203 1.429 . S
C1209 C1210 1.523 . S
C1210 C1191 1.368 . S
C1210 C1204 1.368 . S
C1210 C1209 1.523 . S
C1211 C1195 1.429 . S
C1211 C1207 1.429 . S
C1211 C1212 1.523 . S
C1212 C1196 1.368 . S
C1212 C1208 1.368 . S
C1212 C1211 1.523 . S
H1213 C1188 0.950 . S
H1214 C1190 0.950 . S
H1215 C1191 0.949 . S
H1216 C1193 0.950 . S
H1217 C1195 0.950 . S
C1218 C1219 1.349 . S
C1218 C1220 1.327 . S
C1218 H1243 0.950 . S
C1219 C1218 1.349 . S
C1219 C1235 1.349 . S
C1220 C1218 1.327 . S
C1220 C1239 1.429 . S
C1220 H1244 0.950 . S
C1221 C1238 1.574 . S
C1221 C1240 1.368 . S
C1221 H1245 0.949 . S
H1222 C1226 0.949 . S
C1223 C1224 1.349 . S
C1223 C1225 1.327 . S
C1223 H1246 0.950 . S
C1224 C1223 1.349 . S
C1224 C1236 1.349 . S
C1225 C1223 1.327 . S
C1225 C1241 1.429 . S
C1225 H1247 0.950 . S
C1226 H1222 0.949 . S
C1226 C1234 1.574 . S
C1226 C1242 1.368 . S
H1227 C1235 0.950 . S
H1228 C1233 0.950 . S
H1229 C1234 0.949 . S
H1230 C1236 0.950 . S
H1231 C1237 0.950 . S
H1232 C1238 0.949 . S
C1233 H1228 0.950 . S
C1233 C1235 1.327 . S
C1233 C1239 1.429 . S
C1234 C1226 1.574 . S
C1234 H1229 0.949 . S
C1234 C1240 1.368 . S
C1235 C1219 1.349 . S
C1235 H1227 0.950 . S
C1235 C1233 1.327 . S
C1236 C1224 1.349 . S
C1236 H1230 0.950 . S
C1236 C1237 1.327 . S
C1237 H1231 0.950 . S
C1237 C1236 1.327 . S
C1237 C1241 1.429 . S
C1238 C1221 1.574 . S
C1238 H1232 0.949 . S
C1238 C1242 1.368 . S
C1239 C1220 1.429 . S
C1239 C1233 1.429 . S
C1239 C1240 1.523 . S
C1240 C1221 1.368 . S
C1240 C1234 1.368 . S
C1240 C1239 1.523 . S
C1241 C1225 1.429 . S
C1241 C1237 1.429 . S
C1241 C1242 1.523 . S
C1242 C1226 1.368 . S
C1242 C1238 1.368 . S
C1242 C1241 1.523 . S
H1243 C1218 0.950 . S
H1244 C1220 0.950 . S
H1245 C1221 0.949 . S
H1246 C1223 0.950 . S
H1247 C1225 0.950 . S
C1248 C1249 1.349 . S
C1248 C1250 1.327 . S
C1248 H1273 0.950 . S
C1249 C1248 1.349 . S
C1249 C1265 1.349 . S
C1250 C1248 1.327 . S
C1250 C1269 1.429 . S
C1250 H1274 0.950 . S
C1251 C1268 1.574 . S
C1251 C1270 1.368 . S
C1251 H1275 0.949 . S
H1252 C1256 0.949 . S
C1253 C1254 1.349 . S
C1253 C1255 1.327 . S
C1253 H1276 0.950 . S
C1254 C1253 1.349 . S
C1254 C1266 1.349 . S
C1255 C1253 1.327 . S
C1255 C1271 1.429 . S
C1255 H1277 0.950 . S
C1256 H1252 0.949 . S
C1256 C1264 1.574 . S
C1256 C1272 1.368 . S
H1257 C1265 0.950 . S
H1258 C1263 0.950 . S
H1259 C1264 0.949 . S
H1260 C1266 0.950 . S
H1261 C1267 0.950 . S
H1262 C1268 0.949 . S
C1263 H1258 0.950 . S
C1263 C1265 1.327 . S
C1263 C1269 1.429 . S
C1264 C1256 1.574 . S
C1264 H1259 0.949 . S
C1264 C1270 1.368 . S
C1265 C1249 1.349 . S
C1265 H1257 0.950 . S
C1265 C1263 1.327 . S
C1266 C1254 1.349 . S
C1266 H1260 0.950 . S
C1266 C1267 1.327 . S
C1267 H1261 0.950 . S
C1267 C1266 1.327 . S
C1267 C1271 1.429 . S
C1268 C1251 1.574 . S
C1268 H1262 0.949 . S
C1268 C1272 1.368 . S
C1269 C1250 1.429 . S
C1269 C1263 1.429 . S
C1269 C1270 1.523 . S
C1270 C1251 1.368 . S
C1270 C1264 1.368 . S
C1270 C1269 1.523 . S
C1271 C1255 1.429 . S
C1271 C1267 1.429 . S
C1271 C1272 1.523 . S
C1272 C1256 1.368 . S
C1272 C1268 1.368 . S
C1272 C1271 1.523 . S
H1273 C1248 0.950 . S
H1274 C1250 0.950 . S
H1275 C1251 0.949 . S
H1276 C1253 0.950 . S
H1277 C1255 0.950 . S
C1278 C1279 1.349 . S
C1278 C1280 1.327 . S
C1278 H1303 0.950 . S
C1279 C1278 1.349 . S
C1279 C1295 1.349 . S
C1280 C1278 1.327 . S
C1280 C1299 1.429 . S
C1280 H1304 0.950 . S
C1281 C1298 1.574 . S
C1281 C1300 1.368 . S
C1281 H1305 0.949 . S
H1282 C1286 0.949 . S
C1283 C1284 1.349 . S
C1283 C1285 1.327 . S
C1283 H1306 0.950 . S
C1284 C1283 1.349 . S
C1284 C1296 1.349 . S
C1285 C1283 1.327 . S
C1285 C1301 1.429 . S
C1285 H1307 0.950 . S
C1286 H1282 0.949 . S
C1286 C1294 1.574 . S
C1286 C1302 1.368 . S
H1287 C1295 0.950 . S
H1288 C1293 0.950 . S
H1289 C1294 0.949 . S
H1290 C1296 0.950 . S
H1291 C1297 0.950 . S
H1292 C1298 0.949 . S
C1293 H1288 0.950 . S
C1293 C1295 1.327 . S
C1293 C1299 1.429 . S
C1294 C1286 1.574 . S
C1294 H1289 0.949 . S
C1294 C1300 1.368 . S
C1295 C1279 1.349 . S
C1295 H1287 0.950 . S
C1295 C1293 1.327 . S
C1296 C1284 1.349 . S
C1296 H1290 0.950 . S
C1296 C1297 1.327 . S
C1297 H1291 0.950 . S
C1297 C1296 1.327 . S
C1297 C1301 1.429 . S
C1298 C1281 1.574 . S
C1298 H1292 0.949 . S
C1298 C1302 1.368 . S
C1299 C1280 1.429 . S
C1299 C1293 1.429 . S
C1299 C1300 1.523 . S
C1300 C1281 1.368 . S
C1300 C1294 1.368 . S
C1300 C1299 1.523 . S
C1301 C1285 1.429 . S
C1301 C1297 1.429 . S
C1301 C1302 1.523 . S
C1302 C1286 1.368 . S
C1302 C1298 1.368 . S
C1302 C1301 1.523 . S
H1303 C1278 0.950 . S
H1304 C1280 0.950 . S
H1305 C1281 0.949 . S
H1306 C1283 0.950 . S
H1307 C1285 0.950 . S
C1308 C1309 1.349 . S
C1308 C1310 1.327 . S
C1308 H1333 0.950 . S
C1309 C1308 1.349 . S
C1309 C1325 1.349 . S
C1310 C1308 1.327 . S
C1310 C1329 1.429 . S
C1310 H1334 0.950 . S
C1311 C1328 1.574 . S
C1311 C1330 1.368 . S
C1311 H1335 0.949 . S
H1312 C1316 0.949 . S
C1313 C1314 1.349 . S
C1313 C1315 1.327 . S
C1313 H1336 0.950 . S
C1314 C1313 1.349 . S
C1314 C1326 1.349 . S
C1315 C1313 1.327 . S
C1315 C1331 1.429 . S
C1315 H1337 0.950 . S
C1316 H1312 0.949 . S
C1316 C1324 1.574 . S
C1316 C1332 1.368 . S
H1317 C1325 0.950 . S
H1318 C1323 0.950 . S
H1319 C1324 0.949 . S
H1320 C1326 0.950 . S
H1321 C1327 0.950 . S
H1322 C1328 0.949 . S
C1323 H1318 0.950 . S
C1323 C1325 1.327 . S
C1323 C1329 1.429 . S
C1324 C1316 1.574 . S
C1324 H1319 0.949 . S
C1324 C1330 1.368 . S
C1325 C1309 1.349 . S
C1325 H1317 0.950 . S
C1325 C1323 1.327 . S
C1326 C1314 1.349 . S
C1326 H1320 0.950 . S
C1326 C1327 1.327 . S
C1327 H1321 0.950 . S
C1327 C1326 1.327 . S
C1327 C1331 1.429 . S
C1328 C1311 1.574 . S
C1328 H1322 0.949 . S
C1328 C1332 1.368 . S
C1329 C1310 1.429 . S
C1329 C1323 1.429 . S
C1329 C1330 1.523 . S
C1330 C1311 1.368 . S
C1330 C1324 1.368 . S
C1330 C1329 1.523 . S
C1331 C1315 1.429 . S
C1331 C1327 1.429 . S
C1331 C1332 1.523 . S
C1332 C1316 1.368 . S
C1332 C1328 1.368 . S
C1332 C1331 1.523 . S
H1333 C1308 0.950 . S
H1334 C1310 0.950 . S
H1335 C1311 0.949 . S
H1336 C1313 0.950 . S
H1337 C1315 0.950 . S
C1338 C1339 1.349 . S
C1338 C1340 1.327 . S
C1338 H1363 0.950 . S
C1339 C1338 1.349 . S
C1339 C1355 1.349 . S
C1340 C1338 1.327 . S
C1340 C1359 1.429 . S
C1340 H1364 0.950 . S
C1341 C1358 1.574 . S
C1341 C1360 1.368 . S
C1341 H1365 0.949 . S
H1342 C1346 0.949 . S
C1343 C1344 1.349 . S
C1343 C1345 1.327 . S
C1343 H1366 0.950 . S
C1344 C1343 1.349 . S
C1344 C1356 1.349 . S
C1345 C1343 1.327 . S
C1345 C1361 1.429 . S
C1345 H1367 0.950 . S
C1346 H1342 0.949 . S
C1346 C1354 1.574 . S
C1346 C1362 1.368 . S
H1347 C1355 0.950 . S
H1348 C1353 0.950 . S
H1349 C1354 0.949 . S
H1350 C1356 0.950 . S
H1351 C1357 0.950 . S
H1352 C1358 0.949 . S
C1353 H1348 0.950 . S
C1353 C1355 1.327 . S
C1353 C1359 1.429 . S
C1354 C1346 1.574 . S
C1354 H1349 0.949 . S
C1354 C1360 1.368 . S
C1355 C1339 1.349 . S
C1355 H1347 0.950 . S
C1355 C1353 1.327 . S
C1356 C1344 1.349 . S
C1356 H1350 0.950 . S
C1356 C1357 1.327 . S
C1357 H1351 0.950 . S
C1357 C1356 1.327 . S
C1357 C1361 1.429 . S
C1358 C1341 1.574 . S
C1358 H1352 0.949 . S
C1358 C1362 1.368 . S
C1359 C1340 1.429 . S
C1359 C1353 1.429 . S
C1359 C1360 1.523 . S
C1360 C1341 1.368 . S
C1360 C1354 1.368 . S
C1360 C1359 1.523 . S
C1361 C1345 1.429 . S
C1361 C1357 1.429 . S
C1361 C1362 1.523 . S
C1362 C1346 1.368 . S
C1362 C1358 1.368 . S
C1362 C1361 1.523 . S
H1363 C1338 0.950 . S
H1364 C1340 0.950 . S
H1365 C1341 0.949 . S
H1366 C1343 0.950 . S
H1367 C1345 0.950 . S
C1368 C1369 1.349 . S
C1368 C1370 1.327 . S
C1368 H1393 0.950 . S
C1369 C1368 1.349 . S
C1369 C1385 1.349 . S
C1370 C1368 1.327 . S
C1370 C1389 1.429 . S
C1370 H1394 0.950 . S
C1371 C1388 1.574 . S
C1371 C1390 1.368 . S
C1371 H1395 0.949 . S
H1372 C1376 0.949 . S
C1373 C1374 1.349 . S
C1373 C1375 1.327 . S
C1373 H1396 0.950 . S
C1374 C1373 1.349 . S
C1374 C1386 1.349 . S
C1375 C1373 1.327 . S
C1375 C1391 1.429 . S
C1375 H1397 0.950 . S
C1376 H1372 0.949 . S
C1376 C1384 1.574 . S
C1376 C1392 1.368 . S
H1377 C1385 0.950 . S
H1378 C1383 0.950 . S
H1379 C1384 0.949 . S
H1380 C1386 0.950 . S
H1381 C1387 0.950 . S
H1382 C1388 0.949 . S
C1383 H1378 0.950 . S
C1383 C1385 1.327 . S
C1383 C1389 1.429 . S
C1384 C1376 1.574 . S
C1384 H1379 0.949 . S
C1384 C1390 1.368 . S
C1385 C1369 1.349 . S
C1385 H1377 0.950 . S
C1385 C1383 1.327 . S
C1386 C1374 1.349 . S
C1386 H1380 0.950 . S
C1386 C1387 1.327 . S
C1387 H1381 0.950 . S
C1387 C1386 1.327 . S
C1387 C1391 1.429 . S
C1388 C1371 1.574 . S
C1388 H1382 0.949 . S
C1388 C1392 1.368 . S
C1389 C1370 1.429 . S
C1389 C1383 1.429 . S
C1389 C1390 1.523 . S
C1390 C1371 1.368 . S
C1390 C1384 1.368 . S
C1390 C1389 1.523 . S
C1391 C1375 1.429 . S
C1391 C1387 1.429 . S
C1391 C1392 1.523 . S
C1392 C1376 1.368 . S
C1392 C1388 1.368 . S
C1392 C1391 1.523 . S
H1393 C1368 0.950 . S
H1394 C1370 0.950 . S
H1395 C1371 0.949 . S
H1396 C1373 0.950 . S
H1397 C1375 0.950 . S
C1398 C1399 1.349 . S
C1398 C1400 1.327 . S
C1398 H1423 0.950 . S
C1399 C1398 1.349 . S
C1399 C1415 1.349 . S
C1400 C1398 1.327 . S
C1400 C1419 1.429 . S
C1400 H1424 0.950 . S
C1401 C1418 1.574 . S
C1401 C1420 1.368 . S
C1401 H1425 0.949 . S
H1402 C1406 0.949 . S
C1403 C1404 1.349 . S
C1403 C1405 1.327 . S
C1403 H1426 0.950 . S
C1404 C1403 1.349 . S
C1404 C1416 1.349 . S
C1405 C1403 1.327 . S
C1405 C1421 1.429 . S
C1405 H1427 0.950 . S
C1406 H1402 0.949 . S
C1406 C1414 1.574 . S
C1406 C1422 1.368 . S
H1407 C1415 0.950 . S
H1408 C1413 0.950 . S
H1409 C1414 0.949 . S
H1410 C1416 0.950 . S
H1411 C1417 0.950 . S
H1412 C1418 0.949 . S
C1413 H1408 0.950 . S
C1413 C1415 1.327 . S
C1413 C1419 1.429 . S
C1414 C1406 1.574 . S
C1414 H1409 0.949 . S
C1414 C1420 1.368 . S
C1415 C1399 1.349 . S
C1415 H1407 0.950 . S
C1415 C1413 1.327 . S
C1416 C1404 1.349 . S
C1416 H1410 0.950 . S
C1416 C1417 1.327 . S
C1417 H1411 0.950 . S
C1417 C1416 1.327 . S
C1417 C1421 1.429 . S
C1418 C1401 1.574 . S
C1418 H1412 0.949 . S
C1418 C1422 1.368 . S
C1419 C1400 1.429 . S
C1419 C1413 1.429 . S
C1419 C1420 1.523 . S
C1420 C1401 1.368 . S
C1420 C1414 1.368 . S
C1420 C1419 1.523 . S
C1421 C1405 1.429 . S
C1421 C1417 1.429 . S
C1421 C1422 1.523 . S
C1422 C1406 1.368 . S
C1422 C1418 1.368 . S
C1422 C1421 1.523 . S
H1423 C1398 0.950 . S
H1424 C1400 0.950 . S
H1425 C1401 0.949 . S
H1426 C1403 0.950 . S
H1427 C1405 0.950 . S
C1428 C1429 1.349 . S
C1428 C1430 1.327 . S
C1428 H1453 0.950 . S
C1429 C1428 1.349 . S
C1429 C1445 1.349 . S
C1430 C1428 1.327 . S
C1430 C1449 1.429 . S
C1430 H1454 0.950 . S
C1431 C1448 1.574 . S
C1431 C1450 1.368 . S
C1431 H1455 0.949 . S
H1432 C1436 0.949 . S
C1433 C1434 1.349 . S
C1433 C1435 1.327 . S
C1433 H1456 0.950 . S
C1434 C1433 1.349 . S
C1434 C1446 1.349 . S
C1435 C1433 1.327 . S
C1435 C1451 1.429 . S
C1435 H1457 0.950 . S
C1436 H1432 0.949 . S
C1436 C1444 1.574 . S
C1436 C1452 1.368 . S
H1437 C1445 0.950 . S
H1438 C1443 0.950 . S
H1439 C1444 0.949 . S
H1440 C1446 0.950 . S
H1441 C1447 0.950 . S
H1442 C1448 0.949 . S
C1443 H1438 0.950 . S
C1443 C1445 1.327 . S
C1443 C1449 1.429 . S
C1444 C1436 1.574 . S
C1444 H1439 0.949 . S
C1444 C1450 1.368 . S
C1445 C1429 1.349 . S
C1445 H1437 0.950 . S
C1445 C1443 1.327 . S
C1446 C1434 1.349 . S
C1446 H1440 0.950 . S
C1446 C1447 1.327 . S
C1447 H1441 0.950 . S
C1447 C1446 1.327 . S
C1447 C1451 1.429 . S
C1448 C1431 1.574 . S
C1448 H1442 0.949 . S
C1448 C1452 1.368 . S
C1449 C1430 1.429 . S
C1449 C1443 1.429 . S
C1449 C1450 1.523 . S
C1450 C1431 1.368 . S
C1450 C1444 1.368 . S
C1450 C1449 1.523 . S
C1451 C1435 1.429 . S
C1451 C1447 1.429 . S
C1451 C1452 1.523 . S
C1452 C1436 1.368 . S
C1452 C1448 1.368 . S
C1452 C1451 1.523 . S
H1453 C1428 0.950 . S
H1454 C1430 0.950 . S
H1455 C1431 0.949 . S
H1456 C1433 0.950 . S
H1457 C1435 0.950 . S
C1458 C1459 1.349 . S
C1458 C1460 1.327 . S
C1458 H1483 0.950 . S
C1459 C1458 1.349 . S
C1459 C1475 1.349 . S
C1460 C1458 1.327 . S
C1460 C1479 1.429 . S
C1460 H1484 0.950 . S
C1461 C1478 1.574 . S
C1461 C1480 1.368 . S
C1461 H1485 0.949 . S
H1462 C1466 0.949 . S
C1463 C1464 1.349 . S
C1463 C1465 1.327 . S
C1463 H1486 0.950 . S
C1464 C1463 1.349 . S
C1464 C1476 1.349 . S
C1465 C1463 1.327 . S
C1465 C1481 1.429 . S
C1465 H1487 0.950 . S
C1466 H1462 0.949 . S
C1466 C1474 1.574 . S
C1466 C1482 1.368 . S
H1467 C1475 0.950 . S
H1468 C1473 0.950 . S
H1469 C1474 0.949 . S
H1470 C1476 0.950 . S
H1471 C1477 0.950 . S
H1472 C1478 0.949 . S
C1473 H1468 0.950 . S
C1473 C1475 1.327 . S
C1473 C1479 1.429 . S
C1474 C1466 1.574 . S
C1474 H1469 0.949 . S
C1474 C1480 1.368 . S
C1475 C1459 1.349 . S
C1475 H1467 0.950 . S
C1475 C1473 1.327 . S
C1476 C1464 1.349 . S
C1476 H1470 0.950 . S
C1476 C1477 1.327 . S
C1477 H1471 0.950 . S
C1477 C1476 1.327 . S
C1477 C1481 1.429 . S
C1478 C1461 1.574 . S
C1478 H1472 0.949 . S
C1478 C1482 1.368 . S
C1479 C1460 1.429 . S
C1479 C1473 1.429 . S
C1479 C1480 1.523 . S
C1480 C1461 1.368 . S
C1480 C1474 1.368 . S
C1480 C1479 1.523 . S
C1481 C1465 1.429 . S
C1481 C1477 1.429 . S
C1481 C1482 1.523 . S
C1482 C1466 1.368 . S
C1482 C1478 1.368 . S
C1482 C1481 1.523 . S
H1483 C1458 0.950 . S
H1484 C1460 0.950 . S
H1485 C1461 0.949 . S
H1486 C1463 0.950 . S
H1487 C1465 0.950 . S
C1488 C1489 1.349 . S
C1488 C1490 1.327 . S
C1488 H1513 0.950 . S
C1489 C1488 1.349 . S
C1489 C1505 1.349 . S
C1490 C1488 1.327 . S
C1490 C1509 1.429 . S
C1490 H1514 0.950 . S
C1491 C1508 1.574 . S
C1491 C1510 1.368 . S
C1491 H1515 0.949 . S
H1492 C1496 0.949 . S
C1493 C1494 1.349 . S
C1493 C1495 1.327 . S
C1493 H1516 0.950 . S
C1494 C1493 1.349 . S
C1494 C1506 1.349 . S
C1495 C1493 1.327 . S
C1495 C1511 1.429 . S
C1495 H1517 0.950 . S
C1496 H1492 0.949 . S
C1496 C1504 1.574 . S
C1496 C1512 1.368 . S
H1497 C1505 0.950 . S
H1498 C1503 0.950 . S
H1499 C1504 0.949 . S
H1500 C1506 0.950 . S
H1501 C1507 0.950 . S
H1502 C1508 0.949 . S
C1503 H1498 0.950 . S
C1503 C1505 1.327 . S
C1503 C1509 1.429 . S
C1504 C1496 1.574 . S
C1504 H1499 0.949 . S
C1504 C1510 1.368 . S
C1505 C1489 1.349 . S
C1505 H1497 0.950 . S
C1505 C1503 1.327 . S
C1506 C1494 1.349 . S
C1506 H1500 0.950 . S
C1506 C1507 1.327 . S
C1507 H1501 0.950 . S
C1507 C1506 1.327 . S
C1507 C1511 1.429 . S
C1508 C1491 1.574 . S
C1508 H1502 0.949 . S
C1508 C1512 1.368 . S
C1509 C1490 1.429 . S
C1509 C1503 1.429 . S
C1509 C1510 1.523 . S
C1510 C1491 1.368 . S
C1510 C1504 1.368 . S
C1510 C1509 1.523 . S
C1511 C1495 1.429 . S
C1511 C1507 1.429 . S
C1511 C1512 1.523 . S
C1512 C1496 1.368 . S
C1512 C1508 1.368 . S
C1512 C1511 1.523 . S
H1513 C1488 0.950 . S
H1514 C1490 0.950 . S
H1515 C1491 0.949 . S
H1516 C1493 0.950 . S
H1517 C1495 0.950 . S
C1518 C1519 1.349 . S
C1518 C1520 1.327 . S
C1518 H1543 0.950 . S
C1519 C1518 1.349 . S
C1519 C1535 1.349 . S
C1520 C1518 1.327 . S
C1520 C1539 1.429 . S
C1520 H1544 0.950 . S
C1521 C1538 1.574 . S
C1521 C1540 1.368 . S
C1521 H1545 0.949 . S
H1522 C1526 0.949 . S
C1523 C1524 1.349 . S
C1523 C1525 1.327 . S
C1523 H1546 0.950 . S
C1524 C1523 1.349 . S
C1524 C1536 1.349 . S
C1525 C1523 1.327 . S
C1525 C1541 1.429 . S
C1525 H1547 0.950 . S
C1526 H1522 0.949 . S
C1526 C1534 1.574 . S
C1526 C1542 1.368 . S
H1527 C1535 0.950 . S
H1528 C1533 0.950 . S
H1529 C1534 0.949 . S
H1530 C1536 0.950 . S
H1531 C1537 0.950 . S
H1532 C1538 0.949 . S
C1533 H1528 0.950 . S
C1533 C1535 1.327 . S
C1533 C1539 1.429 . S
C1534 C1526 1.574 . S
C1534 H1529 0.949 . S
C1534 C1540 1.368 . S
C1535 C1519 1.349 . S
C1535 H1527 0.950 . S
C1535 C1533 1.327 . S
C1536 C1524 1.349 . S
C1536 H1530 0.950 . S
C1536 C1537 1.327 . S
C1537 H1531 0.950 . S
C1537 C1536 1.327 . S
C1537 C1541 1.429 . S
C1538 C1521 1.574 . S
C1538 H1532 0.949 . S
C1538 C1542 1.368 . S
C1539 C1520 1.429 . S
C1539 C1533 1.429 . S
C1539 C1540 1.523 . S
C1540 C1521 1.368 . S
C1540 C1534 1.368 . S
C1540 C1539 1.523 . S
C1541 C1525 1.429 . S
C1541 C1537 1.429 . S
C1541 C1542 1.523 . S
C1542 C1526 1.368 . S
C1542 C1538 1.368 . S
C1542 C1541 1.523 . S
H1543 C1518 0.950 . S
H1544 C1520 0.950 . S
H1545 C1521 0.949 . S
H1546 C1523 0.950 . S
H1547 C1525 0.950 . S
C1548 C1549 1.349 . S
C1548 C1550 1.327 . S
C1548 H1573 0.950 . S
C1549 C1548 1.349 . S
C1549 C1565 1.349 . S
C1550 C1548 1.327 . S
C1550 C1569 1.429 . S
C1550 H1574 0.950 . S
C1551 C1568 1.574 . S
C1551 C1570 1.368 . S
C1551 H1575 0.949 . S
H1552 C1556 0.949 . S
C1553 C1554 1.349 . S
C1553 C1555 1.327 . S
C1553 H1576 0.950 . S
C1554 C1553 1.349 . S
C1554 C1566 1.349 . S
C1555 C1553 1.327 . S
C1555 C1571 1.429 . S
C1555 H1577 0.950 . S
C1556 H1552 0.949 . S
C1556 C1564 1.574 . S
C1556 C1572 1.368 . S
H1557 C1565 0.950 . S
H1558 C1563 0.950 . S
H1559 C1564 0.949 . S
H1560 C1566 0.950 . S
H1561 C1567 0.950 . S
H1562 C1568 0.949 . S
C1563 H1558 0.950 . S
C1563 C1565 1.327 . S
C1563 C1569 1.429 . S
C1564 C1556 1.574 . S
C1564 H1559 0.949 . S
C1564 C1570 1.368 . S
C1565 C1549 1.349 . S
C1565 H1557 0.950 . S
C1565 C1563 1.327 . S
C1566 C1554 1.349 . S
C1566 H1560 0.950 . S
C1566 C1567 1.327 . S
C1567 H1561 0.950 . S
C1567 C1566 1.327 . S
C1567 C1571 1.429 . S
C1568 C1551 1.574 . S
C1568 H1562 0.949 . S
C1568 C1572 1.368 . S
C1569 C1550 1.429 . S
C1569 C1563 1.429 . S
C1569 C1570 1.523 . S
C1570 C1551 1.368 . S
C1570 C1564 1.368 . S
C1570 C1569 1.523 . S
C1571 C1555 1.429 . S
C1571 C1567 1.429 . S
C1571 C1572 1.523 . S
C1572 C1556 1.368 . S
C1572 C1568 1.368 . S
C1572 C1571 1.523 . S
H1573 C1548 0.950 . S
H1574 C1550 0.950 . S
H1575 C1551 0.949 . S
H1576 C1553 0.950 . S
H1577 C1555 0.950 . S
C1578 C1579 1.349 . S
C1578 C1580 1.327 . S
C1578 H1603 0.950 . S
C1579 C1578 1.349 . S
C1579 C1595 1.349 . S
C1580 C1578 1.327 . S
C1580 C1599 1.429 . S
C1580 H1604 0.950 . S
C1581 C1598 1.574 . S
C1581 C1600 1.368 . S
C1581 H1605 0.949 . S
H1582 C1586 0.949 . S
C1583 C1584 1.349 . S
C1583 C1585 1.327 . S
C1583 H1606 0.950 . S
C1584 C1583 1.349 . S
C1584 C1596 1.349 . S
C1585 C1583 1.327 . S
C1585 C1601 1.429 . S
C1585 H1607 0.950 . S
C1586 H1582 0.949 . S
C1586 C1594 1.574 . S
C1586 C1602 1.368 . S
H1587 C1595 0.950 . S
H1588 C1593 0.950 . S
H1589 C1594 0.949 . S
H1590 C1596 0.950 . S
H1591 C1597 0.950 . S
H1592 C1598 0.949 . S
C1593 H1588 0.950 . S
C1593 C1595 1.327 . S
C1593 C1599 1.429 . S
C1594 C1586 1.574 . S
C1594 H1589 0.949 . S
C1594 C1600 1.368 . S
C1595 C1579 1.349 . S
C1595 H1587 0.950 . S
C1595 C1593 1.327 . S
C1596 C1584 1.349 . S
C1596 H1590 0.950 . S
C1596 C1597 1.327 . S
C1597 H1591 0.950 . S
C1597 C1596 1.327 . S
C1597 C1601 1.429 . S
C1598 C1581 1.574 . S
C1598 H1592 0.949 . S
C1598 C1602 1.368 . S
C1599 C1580 1.429 . S
C1599 C1593 1.429 . S
C1599 C1600 1.523 . S
C1600 C1581 1.368 . S
C1600 C1594 1.368 . S
C1600 C1599 1.523 . S
C1601 C1585 1.429 . S
C1601 C1597 1.429 . S
C1601 C1602 1.523 . S
C1602 C1586 1.368 . S
C1602 C1598 1.368 . S
C1602 C1601 1.523 . S
H1603 C1578 0.950 . S
H1604 C1580 0.950 . S
H1605 C1581 0.949 . S
H1606 C1583 0.950 . S
H1607 C1585 0.950 . S
C349 C8 0.716 . S
C354 C211 0.716 . S
C379 C37 0.716 . S
C384 C240 0.716 . S
C409 C269 0.716 . S
C414 C66 0.716 . S
C439 C95 0.716 . S
C444 C298 0.716 . S
C469 C124 0.716 . S
C474 C327 0.716 . S
C499 C182 0.716 . S
C504 C153 0.716 . S
C529 C295 1.324 . S
C534 C92 1.324 . S
C559 C121 1.324 . S
C564 C324 1.324 . S
C589 C150 1.324 . S
C594 C179 1.324 . S
C619 C5 1.324 . S
C624 C208 1.324 . S
C649 C237 1.324 . S
C654 C34 1.324 . S
C679 C266 1.324 . S
C684 C63 1.324 . S
C709 C108 0.532 . S
C714 C21 0.532 . S
C739 C50 0.532 . S
C744 C137 0.532 . S
C769 C166 0.532 . S
C774 C79 0.532 . S
C799 C195 0.532 . S
C804 C282 0.532 . S
C829 C224 0.532 . S
C834 C311 0.532 . S
C859 C340 0.532 . S
C864 C253 0.532 . S
C889 C10 2.517 . S
C894 C300 2.517 . S
C919 C39 2.518 . S
C924 C329 2.518 . S
C949 C68 2.517 . S
C954 C184 2.517 . S
C979 C213 2.517 . S
C984 C97 2.517 . S
C1009 C242 2.518 . S
C1014 C126 2.518 . S
C1039 C155 2.517 . S
C1044 C271 2.517 . S
C1069 C206 0.617 . S
C1074 C90 0.617 . S
C1099 C235 0.617 . S
C1104 C119 0.617 . S
C1129 C264 0.617 . S
C1134 C148 0.617 . S
C1159 C293 0.617 . S
C1164 C3 0.617 . S
C1189 C322 0.617 . S
C1194 C32 0.617 . S
C1219 C61 0.617 . S
C1224 C177 0.617 . S
C1249 C15 2.621 . S
C1254 C247 2.621 . S
C1279 C276 2.621 . S
C1284 C44 2.621 . S
C1309 C305 2.621 . S
C1314 C73 2.621 . S
C1339 C102 2.621 . S
C1344 C334 2.621 . S
C1369 C189 2.621 . S
C1374 C131 2.621 . S
C1399 C160 2.621 . S
C1404 C218 2.621 . S
C1429 C332 3.114 . S
C1434 C100 3.114 1_556 S
C1459 C187 3.114 . S
C1464 C129 3.114 1_556 S
C1489 C216 3.114 . S
C1494 C158 3.114 1_556 S
C1519 C245 3.114 . S
C1524 C13 3.114 1_556 S
C1549 C274 3.114 . S
C1554 C42 3.114 1_556 S
C1579 C303 3.114 . S
C1584 C71 3.114 1_556 S
