# Generated by pormake.
# Topology snk, (6)-cn, num edge types: 1
# Building blocks:
#     Node 0, Type 0, BuildingBlock: BETDEL_clean_sbu_0, # of connection points: 6
#     Node 1, Type 0, BuildingBlock: BETDEL_clean_sbu_0, # of connection points: 6
#     Node 2, Type 0, BuildingBlock: BETDEL_clean_sbu_0, # of connection points: 6
#     Node 3, Type 0, BuildingBlock: BETDEL_clean_sbu_0, # of connection points: 6
#     Node 4, Type 0, BuildingBlock: BETDEL_clean_sbu_0, # of connection points: 6
#     Node 5, Type 0, BuildingBlock: BETDEL_clean_sbu_0, # of connection points: 6
#     Node 6, Type 0, BuildingBlock: BETDEL_clean_sbu_0, # of connection points: 6
#     Node 7, Type 0, BuildingBlock: BETDEL_clean_sbu_0, # of connection points: 6
#     Edge 8, Type (0, 0), BuildingBlock: EZIPEK_clean_linker_0, # of connection points: 2
#     Edge 9, Type (0, 0), BuildingBlock: EZIPEK_clean_linker_0, # of connection points: 2
#     Edge 10, Type (0, 0), BuildingBlock: EZIPEK_clean_linker_0, # of connection points: 2
#     Edge 11, Type (0, 0), BuildingBlock: EZIPEK_clean_linker_0, # of connection points: 2
#     Edge 12, Type (0, 0), BuildingBlock: EZIPEK_clean_linker_0, # of connection points: 2
#     Edge 13, Type (0, 0), BuildingBlock: EZIPEK_clean_linker_0, # of connection points: 2
#     Edge 14, Type (0, 0), BuildingBlock: EZIPEK_clean_linker_0, # of connection points: 2
#     Edge 15, Type (0, 0), BuildingBlock: EZIPEK_clean_linker_0, # of connection points: 2
#     Edge 16, Type (0, 0), BuildingBlock: EZIPEK_clean_linker_0, # of connection points: 2
#     Edge 17, Type (0, 0), BuildingBlock: EZIPEK_clean_linker_0, # of connection points: 2
#     Edge 18, Type (0, 0), BuildingBlock: EZIPEK_clean_linker_0, # of connection points: 2
#     Edge 19, Type (0, 0), BuildingBlock: EZIPEK_clean_linker_0, # of connection points: 2
#     Edge 20, Type (0, 0), BuildingBlock: EZIPEK_clean_linker_0, # of connection points: 2
#     Edge 21, Type (0, 0), BuildingBlock: EZIPEK_clean_linker_0, # of connection points: 2
#     Edge 22, Type (0, 0), BuildingBlock: EZIPEK_clean_linker_0, # of connection points: 2
#     Edge 23, Type (0, 0), BuildingBlock: EZIPEK_clean_linker_0, # of connection points: 2
#     Edge 24, Type (0, 0), BuildingBlock: EZIPEK_clean_linker_0, # of connection points: 2
#     Edge 25, Type (0, 0), BuildingBlock: EZIPEK_clean_linker_0, # of connection points: 2
#     Edge 26, Type (0, 0), BuildingBlock: EZIPEK_clean_linker_0, # of connection points: 2
#     Edge 27, Type (0, 0), BuildingBlock: EZIPEK_clean_linker_0, # of connection points: 2
#     Edge 28, Type (0, 0), BuildingBlock: EZIPEK_clean_linker_0, # of connection points: 2
#     Edge 29, Type (0, 0), BuildingBlock: EZIPEK_clean_linker_0, # of connection points: 2
#     Edge 30, Type (0, 0), BuildingBlock: EZIPEK_clean_linker_0, # of connection points: 2
#     Edge 31, Type (0, 0), BuildingBlock: EZIPEK_clean_linker_0, # of connection points: 2
# Relax obj value: 0.062
# Max RMSD: 0.110
# Mean RMSD: 0.096
data_MOF--net-snk--node1-BETDEL_clean_sbu_0--edge1-EZIPEK_clean_linker_0
_symmetry_space_group_name_H-M    P1
_symmetry_Int_Tables_number       1
_symmetry_cell_setting            triclinic
loop_
_symmetry_equiv_pos_as_xyz
'x, y, z'
_cell_length_a     29.028393
_cell_length_b     29.186543
_cell_length_c     13.934403
_cell_angle_alpha  84.854448
_cell_angle_beta   94.933963
_cell_angle_gamma 90.585367
loop_
_atom_site_label
_atom_site_type_symbol
_atom_site_fract_x
_atom_site_fract_y
_atom_site_fract_z
_atom_type_partial_charge
Dy0 Dy 0.99618 0.97969 0.40951 0.0
C1 C 0.01346 0.00498 0.80587 0.0
C2 C 0.99392 0.97941 0.21433 0.0
Dy3 Dy 0.00636 0.00941 0.6097 0.0
O4 O 0.02859 0.96618 0.27476 0.0
O5 O 0.9596 0.99162 0.26022 0.0
O6 O 0.02418 0.91003 0.46472 0.0
O7 O 0.04938 0.96835 0.53062 0.0
C8 C 0.05034 0.92495 0.53572 0.0
C9 C 0.95006 0.06424 0.4877 0.0
O10 O 0.0702 0.04278 0.55627 0.0
O11 O 0.03956 0.04361 0.39783 0.0
O12 O 0.00673 0.04261 0.74947 0.0
O13 O 0.01786 0.97038 0.75548 0.0
O14 O 0.97499 0.07821 0.56137 0.0
O15 O 0.95295 0.02102 0.48894 0.0
O16 O 0.93586 0.93935 0.46032 0.0
O17 O 0.95428 0.95217 0.621 0.0
C18 C 0.07044 0.05797 0.46392 0.0
C19 C 0.92996 0.93091 0.5534 0.0
Dy20 Dy 0.24093 0.74809 0.85971 0.0
C21 C 0.26465 0.75315 0.46294 0.0
C22 C 0.23943 0.73424 0.05409 0.0
Dy23 Dy 0.2654 0.75425 0.6571 0.0
O24 O 0.2026 0.73903 0.99375 0.0
O25 O 0.27623 0.73412 1.00762 0.0
O26 O 0.21307 0.8206 0.83919 0.0
O27 O 0.2075 0.78047 0.72391 0.0
C28 C 0.2007 0.82011 0.74771 0.0
C29 C 0.32205 0.69851 0.77908 0.0
O30 O 0.3031 0.81664 0.70597 0.0
O31 O 0.30676 0.78841 0.86597 0.0
O32 O 0.2702 0.71749 0.52498 0.0
O33 O 0.26135 0.79028 0.50702 0.0
O34 O 0.33551 0.72664 0.70965 0.0
O35 O 0.27888 0.70194 0.77942 0.0
O36 O 0.19334 0.69222 0.8111 0.0
O37 O 0.20245 0.70966 0.64768 0.0
C38 C 0.31971 0.81826 0.79685 0.0
C39 C 0.1825 0.68631 0.71865 0.0
Dy40 Dy 0.50858 0.97516 0.12069 0.0
C41 C 0.48659 0.01304 0.71024 0.0
C42 C 0.5143 0.97785 0.31683 0.0
Dy43 Dy 0.49627 0.01779 0.90558 0.0
O44 O 0.50357 0.94139 0.27202 0.0
O45 O 0.5243 0.01161 0.25492 0.0
O46 O 0.4746 0.90961 0.07741 0.0
O47 O 0.45628 0.97287 0.99956 0.0
C48 C 0.45151 0.92977 1.00119 0.0
C49 C 0.55452 0.06413 0.02043 0.0
O50 O 0.44113 0.05939 0.9613 0.0
O51 O 0.45414 0.02805 0.12132 0.0
O52 O 0.5123 0.04272 0.75435 0.0
O53 O 0.4639 0.98799 0.7721 0.0
O54 O 0.53367 0.08246 0.93959 0.0
O55 O 0.5481 0.02099 0.0267 0.0
O56 O 0.57049 0.94284 0.0703 0.0
O57 O 0.54694 0.96043 0.90719 0.0
C58 C 0.43374 0.05782 0.05463 0.0
C59 C 0.57393 0.93827 0.9772 0.0
Dy60 Dy 0.22975 0.25256 0.15304 0.0
C61 C 0.26851 0.23317 0.56025 0.0
C62 C 0.23442 0.25561 0.95701 0.0
Dy63 Dy 0.26866 0.23931 0.36287 0.0
O64 O 0.19673 0.26216 0.99856 0.0
O65 O 0.26882 0.24883 0.02185 0.0
O66 O 0.16167 0.22006 0.18725 0.0
O67 O 0.22205 0.19976 0.27186 0.0
C68 C 0.17855 0.19767 0.26704 0.0
C69 C 0.31909 0.29558 0.24838 0.0
O70 O 0.30536 0.17942 0.31494 0.0
O71 O 0.28651 0.20132 0.15195 0.0
O72 O 0.29457 0.26064 0.50977 0.0
O73 O 0.24471 0.20709 0.50346 0.0
O74 O 0.33631 0.26648 0.31823 0.0
O75 O 0.27542 0.2939 0.24518 0.0
O76 O 0.19943 0.31616 0.20049 0.0
O77 O 0.21198 0.29044 0.3629 0.0
C78 C 0.30964 0.17536 0.222 0.0
C79 C 0.19232 0.31879 0.29258 0.0
Dy80 Dy 0.73624 0.24348 0.36486 0.0
C81 C 0.75892 0.26214 0.96661 0.0
C82 C 0.73772 0.23693 0.56046 0.0
Dy83 Dy 0.76368 0.25276 0.16279 0.0
O84 O 0.70199 0.24891 0.50162 0.0
O85 O 0.77221 0.22708 0.51281 0.0
O86 O 0.66848 0.27724 0.31583 0.0
O87 O 0.72735 0.2982 0.24574 0.0
C88 C 0.68409 0.30257 0.24457 0.0
C89 C 0.81947 0.19623 0.28058 0.0
O90 O 0.80774 0.31023 0.2171 0.0
O91 O 0.7948 0.29322 0.37844 0.0
O92 O 0.79496 0.2481 0.02244 0.0
O93 O 0.72593 0.27259 0.01777 0.0
O94 O 0.83104 0.21824 0.2012 0.0
O95 O 0.77601 0.19943 0.28348 0.0
O96 O 0.69673 0.18247 0.31694 0.0
O97 O 0.70485 0.20229 0.15441 0.0
C98 C 0.81727 0.3157 0.31031 0.0
C99 C 0.6858 0.17735 0.22453 0.0
Dy100 Dy 0.7325 0.75244 0.66399 0.0
C101 C 0.77654 0.72967 0.07775 0.0
C102 C 0.73155 0.75708 0.46723 0.0
Dy103 Dy 0.77677 0.7383 0.88038 0.0
O104 O 0.71448 0.72377 0.52139 0.0
O105 O 0.74609 0.78991 0.51998 0.0
O106 O 0.66692 0.71642 0.70165 0.0
O107 O 0.72918 0.70164 0.78581 0.0
C108 C 0.68593 0.69569 0.78188 0.0
C109 C 0.82297 0.79402 0.76017 0.0
O110 O 0.81004 0.67922 0.82259 0.0
O111 O 0.79544 0.70903 0.66223 0.0
O112 O 0.79399 0.76391 0.0267 0.0
O113 O 0.76283 0.69816 0.02121 0.0
O114 O 0.84321 0.77054 0.83626 0.0
O115 O 0.77956 0.78981 0.75896 0.0
O116 O 0.69118 0.8062 0.72306 0.0
O117 O 0.71975 0.78825 0.88378 0.0
C118 C 0.81594 0.67923 0.72915 0.0
C119 C 0.69144 0.81106 0.81733 0.0
Dy120 Dy 0.50283 0.49116 0.93416 0.0
C121 C 0.50142 0.52126 0.32907 0.0
C122 C 0.48789 0.4912 0.73981 0.0
Dy123 Dy 0.50502 0.52099 0.13542 0.0
O124 O 0.4931 0.45409 0.7991 0.0
O125 O 0.48862 0.5274 0.7874 0.0
O126 O 0.57436 0.46215 0.96079 0.0
O127 O 0.53299 0.46157 0.07534 0.0
C128 C 0.5732 0.45334 0.05353 0.0
C129 C 0.45727 0.57752 0.99976 0.0
O130 O 0.5697 0.55628 0.09156 0.0
O131 O 0.55005 0.55188 0.92828 0.0
O132 O 0.46639 0.52789 0.2653 0.0
O133 O 0.53915 0.51661 0.28682 0.0
O134 O 0.4792 0.59128 0.07708 0.0
O135 O 0.45798 0.53418 1.0048 0.0
O136 O 0.44815 0.44234 0.98546 0.0
O137 O 0.45731 0.46053 0.1452 0.0
C138 C 0.57601 0.56812 0.99991 0.0
C139 C 0.43831 0.43584 0.07693 0.0
Dy140 Dy 0.01101 0.47837 0.61335 0.0
C141 C 0.99167 0.52572 0.19895 0.0
C142 C 0.01447 0.47604 0.81063 0.0
Dy143 Dy 0.99725 0.52387 0.39644 0.0
O144 O 0.97864 0.46622 0.75397 0.0
O145 O 0.04996 0.48371 0.76 0.0
O146 O 0.97558 0.41353 0.57496 0.0
O147 O 0.96034 0.47492 0.48991 0.0
C148 C 0.95504 0.4317 0.4936 0.0
C149 C 0.05328 0.57062 0.51612 0.0
O150 O 0.94262 0.56365 0.45895 0.0
O151 O 0.96535 0.53829 0.61979 0.0
O152 O 0.02828 0.53481 0.25406 0.0
O153 O 0.95667 0.51908 0.25127 0.0
O154 O 0.03356 0.58873 0.43389 0.0
O155 O 0.04737 0.5275 0.51964 0.0
O156 O 0.06515 0.43782 0.55223 0.0
O157 O 0.04409 0.46435 0.39126 0.0
C158 C 0.94018 0.56471 0.55395 0.0
C159 C 0.0684 0.43718 0.45747 0.0
C160 C 0.13051 0.08079 0.35189 0.0
C161 C 0.10522 0.09186 0.42934 0.0
C162 C 0.13111 0.17214 0.40573 0.0
C163 C 0.15244 0.16166 0.32219 0.0
N164 N 0.16483 0.10815 0.20508 0.0
N165 N 0.08004 0.1481 0.5302 0.0
C166 C 0.15029 0.11649 0.29259 0.0
C167 C 0.10588 0.1374 0.45775 0.0
N168 N 0.13617 0.03573 0.33626 0.0
N169 N 0.13406 0.21572 0.43393 0.0
H170 H 0.06218 0.12362 0.57168 0.0
H171 H 0.07408 0.18148 0.54662 0.0
H172 H 0.1458 0.24314 0.38985 0.0
H173 H 0.12576 0.22465 0.50098 0.0
H174 H 0.15778 0.02485 0.28692 0.0
H175 H 0.12281 0.00892 0.38013 0.0
H176 H 0.16012 0.07684 0.17511 0.0
H177 H 0.17757 0.13394 0.15768 0.0
C178 C 0.13263 0.89825 0.55439 0.0
C179 C 0.08826 0.89716 0.58967 0.0
C180 C 0.117 0.84409 0.72827 0.0
C181 C 0.16252 0.84911 0.69787 0.0
N182 N 0.21489 0.88631 0.59026 0.0
N183 N 0.0374 0.87039 0.71053 0.0
C184 C 0.17065 0.87774 0.61325 0.0
C185 C 0.08025 0.87052 0.67691 0.0
N186 N 0.138 0.91696 0.46254 0.0
N187 N 0.10839 0.81247 0.80323 0.0
H188 H 0.00885 0.8857 0.6704 0.0
H189 H 0.03045 0.85707 0.77962 0.0
H190 H 0.13395 0.79219 0.84279 0.0
H191 H 0.07535 0.80329 0.82172 0.0
H192 H 0.16843 0.91462 0.42878 0.0
H193 H 0.11049 0.93064 0.41614 0.0
H194 H 0.22342 0.91067 0.53531 0.0
H195 H 0.24353 0.87222 0.63213 0.0
C196 C 0.33897 0.89266 0.86609 0.0
C197 C 0.35425 0.85342 0.82516 0.0
C198 C 0.43427 0.87073 0.88182 0.0
C199 C 0.41819 0.90567 0.93547 0.0
N200 N 0.35419 0.94685 0.98695 0.0
N201 N 0.41605 0.8047 0.79154 0.0
C202 C 0.37029 0.91641 0.92868 0.0
C203 C 0.4019 0.8427 0.83136 0.0
N204 N 0.29436 0.9071 0.84484 0.0
N205 N 0.48058 0.86504 0.87714 0.0
H206 H 0.3939 0.78622 0.74651 0.0
H207 H 0.44905 0.7907 0.80531 0.0
H208 H 0.50507 0.8843 0.91451 0.0
H209 H 0.49474 0.84404 0.83078 0.0
H210 H 0.28188 0.93785 0.86496 0.0
H211 H 0.27115 0.89054 0.79809 0.0
H212 H 0.3192 0.95232 0.99283 0.0
H213 H 0.37554 0.96388 0.03626 0.0
C214 C 0.35407 0.08851 0.06696 0.0
C215 C 0.40235 0.09045 0.09227 0.0
C216 C 0.38981 0.14581 0.21089 0.0
C217 C 0.34148 0.14142 0.19021 0.0
N218 N 0.27731 0.10113 0.11554 0.0
N219 N 0.46543 0.11401 0.20357 0.0
C220 C 0.32357 0.11064 0.12277 0.0
C221 C 0.41996 0.11704 0.16867 0.0
N222 N 0.33722 0.06506 0.99079 0.0
N223 N 0.40736 0.17884 0.26747 0.0
H224 H 0.48993 0.09528 0.17356 0.0
H225 H 0.47838 0.12736 0.26739 0.0
H226 H 0.38692 0.19905 0.30439 0.0
H227 H 0.44214 0.18827 0.27283 0.0
H228 H 0.30276 0.06618 0.96297 0.0
H229 H 0.35817 0.04699 0.95038 0.0
H230 H 0.26207 0.07601 0.0746 0.0
H231 H 0.25481 0.11527 0.15914 0.0
C232 C 0.90247 0.84928 0.57799 0.0
C233 C 0.89542 0.89664 0.58736 0.0
C234 C 0.8357 0.87669 0.69935 0.0
C235 C 0.84684 0.82938 0.69864 0.0
N236 N 0.89505 0.77087 0.64739 0.0
N237 N 0.85605 0.95634 0.65681 0.0
C238 C 0.8812 0.81574 0.64034 0.0
C239 C 0.86173 0.91054 0.64707 0.0
N240 N 0.92973 0.83611 0.5101 0.0
N241 N 0.80118 0.8895 0.75227 0.0
H242 H 0.87213 0.9822 0.61516 0.0
H243 H 0.83723 0.96903 0.70885 0.0
H244 H 0.78523 0.86702 0.80154 0.0
H245 H 0.7869 0.92231 0.74528 0.0
H246 H 0.93187 0.80235 0.49233 0.0
H247 H 0.94697 0.85922 0.4645 0.0
H248 H 0.92375 0.75956 0.6163 0.0
H249 H 0.88022 0.7452 0.69127 0.0
C250 C 0.93294 0.13852 0.38687 0.0
C251 C 0.91674 0.09519 0.42527 0.0
C252 C 0.83684 0.12299 0.39239 0.0
C253 C 0.85246 0.16417 0.34255 0.0
N254 N 0.91769 0.21144 0.29499 0.0
N255 N 0.85223 0.04261 0.43957 0.0
C256 C 0.90115 0.17192 0.34056 0.0
C257 C 0.86845 0.08617 0.41975 0.0
N258 N 0.97917 0.14826 0.39581 0.0
N259 N 0.79278 0.11948 0.41955 0.0
H260 H 0.87365 0.01419 0.45542 0.0
H261 H 0.81742 0.03385 0.42787 0.0
H262 H 0.77028 0.14717 0.41382 0.0
H263 H 0.78113 0.09134 0.46237 0.0
H264 H 0.99292 0.18125 0.3854 0.0
H265 H 0.00405 0.12328 0.41722 0.0
H266 H 0.9512 0.21482 0.27391 0.0
H267 H 0.89837 0.24131 0.27775 0.0
C268 C 0.60468 0.15843 0.17281 0.0
C269 C 0.65059 0.14331 0.19529 0.0
C270 C 0.63216 0.07212 0.11881 0.0
C271 C 0.58743 0.09009 0.0846 0.0
N272 N 0.53457 0.15516 0.06847 0.0
N273 N 0.70982 0.08716 0.18991 0.0
C274 C 0.57466 0.13455 0.10866 0.0
C275 C 0.6646 0.10014 0.16983 0.0
N276 N 0.58942 0.19542 0.21456 0.0
N277 N 0.6448 0.02924 0.09936 0.0
H278 H 0.73361 0.10586 0.23144 0.0
H279 H 0.72447 0.05925 0.16234 0.0
H280 H 0.62702 0.0108 0.04787 0.0
H281 H 0.67309 0.01154 0.13529 0.0
H282 H 0.55487 0.20543 0.20917 0.0
H283 H 0.61056 0.21301 0.26334 0.0
H284 H 0.52776 0.18994 0.07183 0.0
H285 H 0.50846 0.13861 0.02889 0.0
C286 C 0.65898 0.89079 0.82069 0.0
C287 C 0.65968 0.84345 0.85534 0.0
C288 C 0.60573 0.85892 0.97585 0.0
C289 C 0.60767 0.90641 0.94558 0.0
N290 N 0.64243 0.96901 0.85219 0.0
N291 N 0.63942 0.78404 0.97913 0.0
C292 C 0.63597 0.92269 0.87139 0.0
C293 C 0.63494 0.82809 0.93693 0.0
N294 N 0.6807 0.90577 0.74036 0.0
N295 N 0.57391 0.8424 0.03742 0.0
H296 H 0.65613 0.75789 0.95028 0.0
H297 H 0.6283 0.77376 0.04689 0.0
H298 H 0.55231 0.86322 0.07036 0.0
H299 H 0.56589 0.8076 0.0495 0.0
H300 H 0.6755 0.93827 0.70388 0.0
H301 H 0.70207 0.88534 0.70598 0.0
H302 H 0.66668 0.98327 0.80727 0.0
H303 H 0.62665 0.99353 0.88829 0.0
C304 C 0.59703 0.64851 0.95197 0.0
C305 C 0.61136 0.60247 0.9722 0.0
C306 C 0.67913 0.61886 0.88069 0.0
C307 C 0.66095 0.66351 0.84898 0.0
N308 N 0.59676 0.71696 0.84219 0.0
N309 N 0.66526 0.54233 0.95724 0.0
C310 C 0.61825 0.67725 0.881 0.0
C311 C 0.65276 0.58748 0.93853 0.0
N312 N 0.56328 0.66499 1.00195 0.0
N313 N 0.72023 0.60524 0.85167 0.0
H314 H 0.64793 0.5195 1.00354 0.0
H315 H 0.69137 0.52698 0.92474 0.0
H316 H 0.73638 0.62227 0.79498 0.0
H317 H 0.73869 0.57678 0.88434 0.0
H318 H 0.55407 0.6996 0.99691 0.0
H319 H 0.54858 0.64481 0.05693 0.0
H320 H 0.56274 0.72462 0.85333 0.0
H321 H 0.61171 0.74173 0.79615 0.0
C322 C 0.66422 0.38675 0.22416 0.0
C323 C 0.65747 0.34185 0.19355 0.0
C324 C 0.59204 0.36935 0.08075 0.0
C325 C 0.60124 0.41501 0.10506 0.0
N326 N 0.64769 0.46836 0.19413 0.0
N327 N 0.61969 0.29113 0.08424 0.0
C328 C 0.63783 0.42405 0.17518 0.0
C329 C 0.62264 0.33336 0.11956 0.0
N330 N 0.69446 0.39336 0.30263 0.0
N331 N 0.55318 0.36005 0.0229 0.0
H332 H 0.64132 0.26391 0.11135 0.0
H333 H 0.59865 0.28405 0.02298 0.0
H334 H 0.52994 0.38529 0.99197 0.0
H335 H 0.54162 0.32687 1.01212 0.0
H336 H 0.69729 0.42402 0.33549 0.0
H337 H 0.7147 0.36711 0.33985 0.0
H338 H 0.67731 0.47809 0.23497 0.0
H339 H 0.62734 0.49605 0.16427 0.0
C340 C 0.92977 0.35576 0.43689 0.0
C341 C 0.92407 0.40439 0.4274 0.0
C342 C 0.85409 0.39423 0.31662 0.0
C343 C 0.85564 0.34619 0.34297 0.0
N344 N 0.89228 0.28193 0.44226 0.0
N345 N 0.87815 0.4701 0.35569 0.0
C346 C 0.89261 0.32721 0.40708 0.0
C347 C 0.88598 0.42385 0.36525 0.0
N348 N 0.97129 0.33628 0.47151 0.0
N349 N 0.82153 0.41194 0.24675 0.0
H350 H 0.90158 0.4943 0.37965 0.0
H351 H 0.84701 0.48482 0.32594 0.0
H352 H 0.79515 0.39231 0.2153 0.0
H353 H 0.8225 0.44561 0.21506 0.0
H354 H 0.97817 0.30138 0.46995 0.0
H355 H 1.00089 0.35521 0.48936 0.0
H356 H 0.91532 0.26844 0.49907 0.0
H357 H 0.86744 0.25826 0.42021 0.0
C358 C 0.82902 0.61975 0.61615 0.0
C359 C 0.8466 0.64558 0.69336 0.0
C360 C 0.92526 0.62244 0.67052 0.0
C361 C 0.90786 0.59565 0.59441 0.0
N362 N 0.84229 0.56029 0.51135 0.0
N363 N 0.9104 0.66494 0.80571 0.0
C364 C 0.85948 0.59225 0.57104 0.0
C365 C 0.8943 0.64471 0.72443 0.0
N366 N 0.78286 0.62116 0.58635 0.0
N367 N 0.97181 0.62797 0.68971 0.0
H368 H 0.89021 0.68484 0.84389 0.0
H369 H 0.94342 0.65938 0.84004 0.0
H370 H 0.99614 0.60998 0.65797 0.0
H371 H 0.98664 0.65276 0.73209 0.0
H372 H 0.76904 0.60942 0.52153 0.0
H373 H 0.7583 0.6357 0.62477 0.0
H374 H 0.80733 0.55223 0.5005 0.0
H375 H 0.86318 0.53859 0.4789 0.0
C376 C 0.39118 0.34424 0.24739 0.0
C377 C 0.34704 0.33384 0.20177 0.0
C378 C 0.36139 0.39381 0.07068 0.0
C379 C 0.40787 0.39741 0.10969 0.0
N380 N 0.46985 0.36542 0.22153 0.0
N381 N 0.29181 0.34804 0.06076 0.0
C382 C 0.42369 0.36885 0.1931 0.0
C383 C 0.33253 0.35832 0.11059 0.0
N384 N 0.40104 0.33479 0.34477 0.0
N385 N 0.34385 0.42559 0.99922 0.0
H386 H 0.2676 0.32527 0.08791 0.0
H387 H 0.28327 0.36043 0.98903 0.0
H388 H 0.36361 0.45217 0.96859 0.0
H389 H 0.30877 0.42798 0.97623 0.0
H390 H 0.43206 0.34463 0.3808 0.0
H391 H 0.37591 0.32464 0.39144 0.0
H392 H 0.48291 0.3422 0.27842 0.0
H393 H 0.49508 0.38182 0.18166 0.0
C394 C 0.43033 0.62874 0.85195 0.0
C395 C 0.42069 0.6055 0.94145 0.0
C396 C 0.34063 0.63445 0.91693 0.0
C397 C 0.35173 0.66004 0.82954 0.0
N398 N 0.39805 0.65777 0.69386 0.0
N399 N 0.36792 0.58738 0.06363 0.0
C400 C 0.39399 0.65042 0.79104 0.0
C401 C 0.37594 0.60814 0.97456 0.0
N402 N 0.4746 0.63192 0.82611 0.0
N403 N 0.29607 0.63195 0.94158 0.0
H404 H 0.39222 0.56672 0.10633 0.0
H405 H 0.33849 0.59285 0.09867 0.0
H406 H 0.26845 0.649 0.9025 0.0
H407 H 0.2849 0.6084 0.99524 0.0
H408 H 0.48394 0.65257 0.76584 0.0
H409 H 0.50252 0.61822 0.87065 0.0
H410 H 0.42705 0.64798 0.66151 0.0
H411 H 0.36987 0.66626 0.6441 0.0
C412 C 0.10323 0.67285 0.64645 0.0
C413 C 0.14534 0.65424 0.68986 0.0
C414 C 0.12133 0.57768 0.64532 0.0
C415 C 0.08236 0.5976 0.58646 0.0
N416 N 0.03634 0.66635 0.53439 0.0
N417 N 0.19723 0.59036 0.72654 0.0
C418 C 0.07338 0.64579 0.58823 0.0
C419 C 0.15488 0.60696 0.68936 0.0
N420 N 0.09129 0.71649 0.66302 0.0
N421 N 0.12696 0.53115 0.66059 0.0
H422 H 0.22182 0.6103 0.76301 0.0
H423 H 0.20929 0.5579 0.71563 0.0
H424 H 0.10498 0.50725 0.63067 0.0
H425 H 0.1514 0.51558 0.71204 0.0
H426 H 0.05873 0.73071 0.64309 0.0
H427 H 0.1127 0.73701 0.70544 0.0
H428 H 0.03373 0.7018 0.51791 0.0
H429 H 0.00758 0.64861 0.50711 0.0
C430 C 0.11269 0.34795 0.30361 0.0
C431 C 0.16096 0.35327 0.32243 0.0
C432 C 0.14878 0.40839 0.44113 0.0
C433 C 0.10019 0.40519 0.41835 0.0
N434 N 0.03647 0.37775 0.31335 0.0
N435 N 0.22572 0.39354 0.39477 0.0
C436 C 0.08237 0.3768 0.34519 0.0
C437 C 0.17919 0.38492 0.38733 0.0
N438 N 0.09554 0.31369 0.24975 0.0
N439 N 0.16606 0.43418 0.51318 0.0
H440 H 0.24861 0.37747 0.35471 0.0
H441 H 0.24126 0.41932 0.43335 0.0
H442 H 0.14566 0.45474 0.54946 0.0
H443 H 0.20046 0.43319 0.54137 0.0
H444 H 0.06106 0.30326 0.24626 0.0
H445 H 0.11629 0.29333 0.21359 0.0
H446 H 0.02311 0.3627 0.25188 0.0
H447 H 0.01164 0.39572 0.34402 0.0
C448 C 0.03797 0.02282 0.97476 0.0
C449 C 0.00715 0.00038 0.90994 0.0
C450 C 0.96752 0.96352 0.04496 0.0
C451 C 0.99684 0.98781 0.1093 0.0
N452 N 0.05249 0.04858 0.1348 0.0
N453 N 0.9362 0.95797 0.87973 0.0
C454 C 0.03001 0.01977 0.07411 0.0
C455 C 0.97006 0.97309 0.94392 0.0
N456 N 0.07572 0.04568 0.94206 0.0
N457 N 0.93839 0.93026 0.08038 0.0
H458 H 0.936 0.96544 0.80515 0.0
H459 H 0.90595 0.94191 0.90042 0.0
H460 H 0.93518 0.92276 0.15413 0.0
H461 H 0.92006 0.90773 0.0373 0.0
H462 H 0.10229 0.05816 0.9878 0.0
H463 H 0.08244 0.04899 0.8694 0.0
H464 H 0.07321 0.0759 0.11101 0.0
H465 H 0.04678 0.04828 0.20765 0.0
C466 C 0.22066 0.77306 0.3015 0.0
C467 C 0.25797 0.74996 0.35774 0.0
C468 C 0.27383 0.70869 0.21957 0.0
C469 C 0.2415 0.73681 0.15973 0.0
N470 N 0.19217 0.80429 0.14179 0.0
N471 N 0.32654 0.70312 0.3638 0.0
C472 C 0.21691 0.77135 0.19982 0.0
C473 C 0.28646 0.71981 0.31499 0.0
N474 N 0.18758 0.79492 0.34453 0.0
N475 N 0.29157 0.67058 0.18623 0.0
H476 H 0.33841 0.71237 0.4322 0.0
H477 H 0.35051 0.68433 0.33197 0.0
H478 H 0.28112 0.66012 0.11821 0.0
H479 H 0.31223 0.64669 0.22996 0.0
H480 H 0.15749 0.80825 0.30636 0.0
H481 H 0.18728 0.79533 0.41913 0.0
H482 H 0.17784 0.83263 0.16866 0.0
H483 H 0.19005 0.80651 0.06662 0.0
C484 C 0.51931 0.96408 0.59278 0.0
C485 C 0.49148 0.00198 0.60985 0.0
C486 C 0.47225 0.01737 0.43595 0.0
C487 C 0.50507 0.98394 0.41819 0.0
N488 N 0.56331 0.92816 0.47931 0.0
N489 N 0.44596 0.06836 0.5477 0.0
C490 C 0.52938 0.95775 0.49655 0.0
C491 C 0.4695 0.02987 0.53137 0.0
N492 N 0.53581 0.93388 0.66821 0.0
N493 N 0.44148 0.03495 0.36263 0.0
H494 H 0.44158 0.0776 0.61696 0.0
H495 H 0.43379 0.09282 0.4925 0.0
H496 H 0.43985 0.02361 0.29378 0.0
H497 H 0.41411 0.05631 0.37279 0.0
H498 H 0.55222 0.90315 0.65952 0.0
H499 H 0.52974 0.9375 0.73957 0.0
H500 H 0.58602 0.91206 0.53358 0.0
H501 H 0.57111 0.92232 0.40974 0.0
C502 C 0.2526 0.20576 0.82832 0.0
C503 C 0.23784 0.24908 0.85343 0.0
C504 C 0.23834 0.28033 0.6842 0.0
C505 C 0.2584 0.23869 0.66148 0.0
N506 N 0.28891 0.16324 0.7133 0.0
N507 N 0.22051 0.32899 0.80851 0.0
C508 C 0.26646 0.20168 0.73387 0.0
C509 C 0.23146 0.2867 0.78213 0.0
N510 N 0.25185 0.16811 0.89411 0.0
N511 N 0.22404 0.31311 0.61178 0.0
H512 H 0.21366 0.33455 0.8788 0.0
H513 H 0.22114 0.35909 0.76246 0.0
H514 H 0.22828 0.31002 0.53927 0.0
H515 H 0.20437 0.34158 0.62234 0.0
H516 H 0.25763 0.1347 0.8775 0.0
H517 H 0.24087 0.16961 0.96311 0.0
H518 H 0.30059 0.13725 0.76554 0.0
H519 H 0.29928 0.15899 0.6448 0.0
C520 C 0.75536 0.21082 0.83246 0.0
C521 C 0.75244 0.25588 0.86267 0.0
C522 C 0.73786 0.2881 0.69467 0.0
C523 C 0.74174 0.24312 0.66444 0.0
N524 N 0.75984 0.16268 0.70041 0.0
N525 N 0.73401 0.33624 0.82716 0.0
C526 C 0.7522 0.20477 0.73218 0.0
C527 C 0.74149 0.29419 0.79508 0.0
N528 N 0.75767 0.17351 0.89974 0.0
N529 N 0.73424 0.32533 0.62725 0.0
H530 H 0.7391 0.34263 0.89975 0.0
H531 H 0.7201 0.36428 0.7832 0.0
H532 H 0.73292 0.32273 0.55295 0.0
H533 H 0.73631 0.35934 0.64407 0.0
H534 H 0.75485 0.13959 0.88252 0.0
H535 H 0.75806 0.1761 0.97393 0.0
H536 H 0.77371 0.13475 0.7448 0.0
H537 H 0.75492 0.15616 0.62785 0.0
C538 C 0.79032 0.75179 0.34528 0.0
C539 C 0.7433 0.75175 0.36691 0.0
C540 C 0.71956 0.72622 0.20657 0.0
C541 C 0.7659 0.73181 0.18039 0.0
N542 N 0.8452 0.75267 0.22359 0.0
N543 N 0.6626 0.74567 0.31393 0.0
C544 C 0.8011 0.74571 0.24932 0.0
C545 C 0.70785 0.74055 0.29652 0.0
N546 N 0.82499 0.75461 0.41756 0.0
N547 N 0.68638 0.70715 0.14658 0.0
H548 H 0.65271 0.75658 0.37842 0.0
H549 H 0.63507 0.74357 0.26139 0.0
H550 H 0.69141 0.69818 0.07786 0.0
H551 H 0.65409 0.69683 0.16799 0.0
H552 H 0.85974 0.74938 0.40865 0.0
H553 H 0.81914 0.75798 0.48925 0.0
H554 H 0.87064 0.7692 0.26532 0.0
H555 H 0.85602 0.74367 0.15836 0.0
C556 C 0.4592 0.52759 0.57755 0.0
C557 C 0.48764 0.49406 0.63339 0.0
C558 C 0.51888 0.47322 0.48595 0.0
C559 C 0.49697 0.51219 0.43375 0.0
N560 N 0.45161 0.58114 0.43447 0.0
N561 N 0.55276 0.44182 0.6413 0.0
C562 C 0.4684 0.54066 0.48063 0.0
C563 C 0.51965 0.46847 0.58806 0.0
N564 N 0.42273 0.54618 0.61627 0.0
N565 N 0.53723 0.4396 0.43861 0.0
H566 H 0.55703 0.43888 0.71646 0.0
H567 H 0.57945 0.42655 0.61013 0.0
H568 H 0.53493 0.43988 0.36351 0.0
H569 H 0.5497 0.40865 0.47412 0.0
H570 H 0.39855 0.5678 0.57577 0.0
H571 H 0.41363 0.53594 0.68581 0.0
H572 H 0.43437 0.60518 0.46917 0.0
H573 H 0.45903 0.59299 0.36465 0.0
C574 C 0.99096 0.45581 0.9787 0.0
C575 C 0.01097 0.48804 0.91165 0.0
C576 C 0.01345 0.54627 0.02988 0.0
C577 C 0.99362 0.51407 0.0972 0.0
N578 N 0.96827 0.43637 0.14115 0.0
N579 N 0.03259 0.56673 0.86562 0.0
C580 C 0.98295 0.46851 0.07258 0.0
C581 C 0.0204 0.53389 0.93545 0.0
N582 N 0.97935 0.41291 0.95188 0.0
N583 N 0.02618 0.58885 0.05689 0.0
H584 H 0.0375 0.56007 0.79514 0.0
H585 H 0.03438 0.60174 0.87437 0.0
H586 H 0.01747 0.60104 0.12107 0.0
H587 H 0.04719 0.61149 0.01826 0.0
H588 H 0.95889 0.38955 0.98997 0.0
H589 H 0.98887 0.4008 0.88825 0.0
H590 H 0.96387 0.40162 0.1319 0.0
H591 H 0.96273 0.44327 0.21113 0.0
loop_
_geom_bond_atom_site_label_1
_geom_bond_atom_site_label_2
_geom_bond_distance
_geom_bond_site_symmetry_2
_ccdc_geom_bond_type
Dy0 O4 2.398 1_655 S
Dy0 O5 2.491 1_565 S
Dy0 O6 2.403 1_655 S
Dy0 O7 2.664 1_655 S
Dy0 O11 2.326 1_665 S
Dy0 O15 2.310 1_565 S
Dy0 O16 2.351 . S
C1 O12 1.185 . S
C1 O13 1.355 1_645 S
C2 O4 1.185 . S
C2 O5 1.355 1_465 S
Dy3 O7 2.310 1_545 S
Dy3 O10 2.351 . S
Dy3 O12 2.398 1_455 S
Dy3 O13 2.491 1_545 S
Dy3 O14 2.403 1_455 S
Dy3 O15 2.664 1_455 S
Dy3 O17 2.326 1_445 S
O4 Dy0 2.398 1_455 S
O4 C2 1.185 . S
O5 Dy0 2.491 1_545 S
O5 C2 1.355 1_645 S
O6 Dy0 2.403 1_455 S
O6 C8 1.254 . S
O7 Dy0 2.664 1_455 S
O7 Dy3 2.310 1_565 S
O7 C8 1.268 . S
C8 O6 1.254 . S
C8 O7 1.268 . S
C9 O14 1.254 . S
C9 O15 1.268 . S
O10 Dy3 2.351 . S
O10 C18 1.249 . S
O11 Dy0 2.326 1_445 S
O11 C18 1.267 . S
O12 C1 1.185 . S
O12 Dy3 2.398 1_655 S
O13 C1 1.355 1_465 S
O13 Dy3 2.491 1_565 S
O14 Dy3 2.403 1_655 S
O14 C9 1.254 . S
O15 Dy0 2.310 1_545 S
O15 Dy3 2.664 1_655 S
O15 C9 1.268 . S
O16 Dy0 2.351 . S
O16 C19 1.249 . S
O17 Dy3 2.326 1_665 S
O17 C19 1.267 . S
C18 O10 1.249 . S
C18 O11 1.267 . S
C19 O16 1.249 . S
C19 O17 1.267 . S
Dy20 O24 2.398 1_556 S
Dy20 O25 2.491 1_556 S
Dy20 O26 2.403 . S
Dy20 O27 2.664 . S
Dy20 O31 2.326 . S
Dy20 O35 2.310 . S
Dy20 O36 2.351 . S
C21 O32 1.185 . S
C21 O33 1.355 . S
C22 O24 1.185 . S
C22 O25 1.355 . S
Dy23 O27 2.310 . S
Dy23 O30 2.351 . S
Dy23 O32 2.398 . S
Dy23 O33 2.491 . S
Dy23 O34 2.403 . S
Dy23 O35 2.664 . S
Dy23 O37 2.326 . S
O24 Dy20 2.398 1_554 S
O24 C22 1.185 . S
O25 Dy20 2.491 1_554 S
O25 C22 1.355 . S
O26 Dy20 2.403 . S
O26 C28 1.254 . S
O27 Dy20 2.664 . S
O27 Dy23 2.310 . S
O27 C28 1.268 . S
C28 O26 1.254 . S
C28 O27 1.268 . S
C29 O34 1.254 . S
C29 O35 1.268 . S
O30 Dy23 2.351 . S
O30 C38 1.249 . S
O31 Dy20 2.326 . S
O31 C38 1.267 . S
O32 C21 1.185 . S
O32 Dy23 2.398 . S
O33 C21 1.355 . S
O33 Dy23 2.491 . S
O34 Dy23 2.403 . S
O34 C29 1.254 . S
O35 Dy20 2.310 . S
O35 Dy23 2.664 . S
O35 C29 1.268 . S
O36 Dy20 2.351 . S
O36 C39 1.249 . S
O37 Dy23 2.326 . S
O37 C39 1.267 . S
C38 O30 1.249 . S
C38 O31 1.267 . S
C39 O36 1.249 . S
C39 O37 1.267 . S
Dy40 O44 2.398 . S
Dy40 O45 2.491 1_565 S
Dy40 O46 2.403 . S
Dy40 O47 2.664 1_554 S
Dy40 O51 2.326 1_565 S
Dy40 O55 2.310 1_565 S
Dy40 O56 2.351 . S
C41 O52 1.185 . S
C41 O53 1.355 1_545 S
C42 O44 1.185 . S
C42 O45 1.355 1_565 S
Dy43 O47 2.310 1_545 S
Dy43 O50 2.351 . S
Dy43 O52 2.398 . S
Dy43 O53 2.491 1_545 S
Dy43 O54 2.403 . S
Dy43 O55 2.664 1_556 S
Dy43 O57 2.326 1_545 S
O44 Dy40 2.398 . S
O44 C42 1.185 . S
O45 Dy40 2.491 1_545 S
O45 C42 1.355 1_545 S
O46 Dy40 2.403 . S
O46 C48 1.254 1_554 S
O47 Dy40 2.664 1_556 S
O47 Dy43 2.310 1_565 S
O47 C48 1.268 . S
C48 O46 1.254 1_556 S
C48 O47 1.268 . S
C49 O54 1.254 1_554 S
C49 O55 1.268 . S
O50 Dy43 2.351 . S
O50 C58 1.249 1_556 S
O51 Dy40 2.326 1_545 S
O51 C58 1.267 . S
O52 C41 1.185 . S
O52 Dy43 2.398 . S
O53 C41 1.355 1_565 S
O53 Dy43 2.491 1_565 S
O54 Dy43 2.403 . S
O54 C49 1.254 1_556 S
O55 Dy40 2.310 1_545 S
O55 Dy43 2.664 1_554 S
O55 C49 1.268 . S
O56 Dy40 2.351 . S
O56 C59 1.249 1_554 S
O57 Dy43 2.326 1_565 S
O57 C59 1.267 . S
C58 O50 1.249 1_554 S
C58 O51 1.267 . S
C59 O56 1.249 1_556 S
C59 O57 1.267 . S
Dy60 O64 2.398 1_554 S
Dy60 O65 2.491 1_554 S
Dy60 O66 2.403 . S
Dy60 O67 2.664 . S
Dy60 O71 2.326 . S
Dy60 O75 2.310 . S
Dy60 O76 2.351 . S
C61 O72 1.185 . S
C61 O73 1.355 . S
C62 O64 1.185 . S
C62 O65 1.355 . S
Dy63 O67 2.310 . S
Dy63 O70 2.351 . S
Dy63 O72 2.398 . S
Dy63 O73 2.491 . S
Dy63 O74 2.403 . S
Dy63 O75 2.664 . S
Dy63 O77 2.326 . S
O64 Dy60 2.398 1_556 S
O64 C62 1.185 . S
O65 Dy60 2.491 1_556 S
O65 C62 1.355 . S
O66 Dy60 2.403 . S
O66 C68 1.254 . S
O67 Dy60 2.664 . S
O67 Dy63 2.310 . S
O67 C68 1.268 . S
C68 O66 1.254 . S
C68 O67 1.268 . S
C69 O74 1.254 . S
C69 O75 1.268 . S
O70 Dy63 2.351 . S
O70 C78 1.249 . S
O71 Dy60 2.326 . S
O71 C78 1.267 . S
O72 C61 1.185 . S
O72 Dy63 2.398 . S
O73 C61 1.355 . S
O73 Dy63 2.491 . S
O74 Dy63 2.403 . S
O74 C69 1.254 . S
O75 Dy60 2.310 . S
O75 Dy63 2.664 . S
O75 C69 1.268 . S
O76 Dy60 2.351 . S
O76 C79 1.249 . S
O77 Dy63 2.326 . S
O77 C79 1.267 . S
C78 O70 1.249 . S
C78 O71 1.267 . S
C79 O76 1.249 . S
C79 O77 1.267 . S
Dy80 O84 2.398 . S
Dy80 O85 2.491 . S
Dy80 O86 2.403 . S
Dy80 O87 2.664 . S
Dy80 O91 2.326 . S
Dy80 O95 2.310 . S
Dy80 O96 2.351 . S
C81 O92 1.185 . S
C81 O93 1.355 . S
C82 O84 1.185 . S
C82 O85 1.355 . S
Dy83 O87 2.310 . S
Dy83 O90 2.351 . S
Dy83 O92 2.398 1_554 S
Dy83 O93 2.491 1_554 S
Dy83 O94 2.403 . S
Dy83 O95 2.664 . S
Dy83 O97 2.326 . S
O84 Dy80 2.398 . S
O84 C82 1.185 . S
O85 Dy80 2.491 . S
O85 C82 1.355 . S
O86 Dy80 2.403 . S
O86 C88 1.254 . S
O87 Dy80 2.664 . S
O87 Dy83 2.310 . S
O87 C88 1.268 . S
C88 O86 1.254 . S
C88 O87 1.268 . S
C89 O94 1.254 . S
C89 O95 1.268 . S
O90 Dy83 2.351 . S
O90 C98 1.249 . S
O91 Dy80 2.326 . S
O91 C98 1.267 . S
O92 C81 1.185 . S
O92 Dy83 2.398 1_556 S
O93 C81 1.355 . S
O93 Dy83 2.491 1_556 S
O94 Dy83 2.403 . S
O94 C89 1.254 . S
O95 Dy80 2.310 . S
O95 Dy83 2.664 . S
O95 C89 1.268 . S
O96 Dy80 2.351 . S
O96 C99 1.249 . S
O97 Dy83 2.326 . S
O97 C99 1.267 . S
C98 O90 1.249 . S
C98 O91 1.267 . S
C99 O96 1.249 . S
C99 O97 1.267 . S
Dy100 O104 2.398 . S
Dy100 O105 2.491 . S
Dy100 O106 2.403 . S
Dy100 O107 2.664 . S
Dy100 O111 2.326 . S
Dy100 O115 2.310 . S
Dy100 O116 2.351 . S
C101 O112 1.185 . S
C101 O113 1.355 . S
C102 O104 1.185 . S
C102 O105 1.355 . S
Dy103 O107 2.310 . S
Dy103 O110 2.351 . S
Dy103 O112 2.398 1_556 S
Dy103 O113 2.491 1_556 S
Dy103 O114 2.403 . S
Dy103 O115 2.664 . S
Dy103 O117 2.326 . S
O104 Dy100 2.398 . S
O104 C102 1.185 . S
O105 Dy100 2.491 . S
O105 C102 1.355 . S
O106 Dy100 2.403 . S
O106 C108 1.254 . S
O107 Dy100 2.664 . S
O107 Dy103 2.310 . S
O107 C108 1.268 . S
C108 O106 1.254 . S
C108 O107 1.268 . S
C109 O114 1.254 . S
C109 O115 1.268 . S
O110 Dy103 2.351 . S
O110 C118 1.249 . S
O111 Dy100 2.326 . S
O111 C118 1.267 . S
O112 C101 1.185 . S
O112 Dy103 2.398 1_554 S
O113 C101 1.355 . S
O113 Dy103 2.491 1_554 S
O114 Dy103 2.403 . S
O114 C109 1.254 . S
O115 Dy100 2.310 . S
O115 Dy103 2.664 . S
O115 C109 1.268 . S
O116 Dy100 2.351 . S
O116 C119 1.249 . S
O117 Dy103 2.326 . S
O117 C119 1.267 . S
C118 O110 1.249 . S
C118 O111 1.267 . S
C119 O116 1.249 . S
C119 O117 1.267 . S
Dy120 O124 2.398 . S
Dy120 O125 2.491 . S
Dy120 O126 2.403 . S
Dy120 O127 2.664 1_556 S
Dy120 O131 2.326 . S
Dy120 O135 2.310 . S
Dy120 O136 2.351 . S
C121 O132 1.185 . S
C121 O133 1.355 . S
C122 O124 1.185 . S
C122 O125 1.355 . S
Dy123 O127 2.310 . S
Dy123 O130 2.351 . S
Dy123 O132 2.398 . S
Dy123 O133 2.491 . S
Dy123 O134 2.403 . S
Dy123 O135 2.664 1_554 S
Dy123 O137 2.326 . S
O124 Dy120 2.398 . S
O124 C122 1.185 . S
O125 Dy120 2.491 . S
O125 C122 1.355 . S
O126 Dy120 2.403 . S
O126 C128 1.254 1_556 S
O127 Dy120 2.664 1_554 S
O127 Dy123 2.310 . S
O127 C128 1.268 . S
C128 O126 1.254 1_554 S
C128 O127 1.268 . S
C129 O134 1.254 1_556 S
C129 O135 1.268 . S
O130 Dy123 2.351 . S
O130 C138 1.249 1_554 S
O131 Dy120 2.326 . S
O131 C138 1.267 . S
O132 C121 1.185 . S
O132 Dy123 2.398 . S
O133 C121 1.355 . S
O133 Dy123 2.491 . S
O134 Dy123 2.403 . S
O134 C129 1.254 1_554 S
O135 Dy120 2.310 . S
O135 Dy123 2.664 1_556 S
O135 C129 1.268 . S
O136 Dy120 2.351 . S
O136 C139 1.249 1_556 S
O137 Dy123 2.326 . S
O137 C139 1.267 . S
C138 O130 1.249 1_556 S
C138 O131 1.267 . S
C139 O136 1.249 1_554 S
C139 O137 1.267 . S
Dy140 O144 2.398 1_455 S
Dy140 O145 2.491 . S
Dy140 O146 2.403 1_455 S
Dy140 O147 2.664 1_455 S
Dy140 O151 2.326 1_455 S
Dy140 O155 2.310 . S
Dy140 O156 2.351 . S
C141 O152 1.185 . S
C141 O153 1.355 1_455 S
C142 O144 1.185 . S
C142 O145 1.355 1_655 S
Dy143 O147 2.310 . S
Dy143 O150 2.351 . S
Dy143 O152 2.398 1_655 S
Dy143 O153 2.491 . S
Dy143 O154 2.403 1_655 S
Dy143 O155 2.664 1_655 S
Dy143 O157 2.326 1_655 S
O144 Dy140 2.398 1_655 S
O144 C142 1.185 . S
O145 Dy140 2.491 . S
O145 C142 1.355 1_455 S
O146 Dy140 2.403 1_655 S
O146 C148 1.254 . S
O147 Dy140 2.664 1_655 S
O147 Dy143 2.310 . S
O147 C148 1.268 . S
C148 O146 1.254 . S
C148 O147 1.268 . S
C149 O154 1.254 . S
C149 O155 1.268 . S
O150 Dy143 2.351 . S
O150 C158 1.249 . S
O151 Dy140 2.326 1_655 S
O151 C158 1.267 . S
O152 C141 1.185 . S
O152 Dy143 2.398 1_455 S
O153 C141 1.355 1_655 S
O153 Dy143 2.491 . S
O154 Dy143 2.403 1_455 S
O154 C149 1.254 . S
O155 Dy140 2.310 . S
O155 Dy143 2.664 1_455 S
O155 C149 1.268 . S
O156 Dy140 2.351 . S
O156 C159 1.249 . S
O157 Dy143 2.326 1_455 S
O157 C159 1.267 . S
C158 O150 1.249 . S
C158 O151 1.267 . S
C159 O156 1.249 . S
C159 O157 1.267 . S
C160 C161 1.363 . S
C160 C166 1.379 . S
C160 N168 1.356 . S
C161 C160 1.363 . S
C161 C167 1.363 . S
C162 C163 1.363 . S
C162 C167 1.379 . S
C162 N169 1.356 . S
C163 C162 1.363 . S
C163 C166 1.363 . S
N164 C166 1.356 . S
N164 H176 0.984 . S
N164 H177 0.985 . S
N165 C167 1.356 . S
N165 H170 0.984 . S
N165 H171 0.985 . S
C166 C160 1.379 . S
C166 C163 1.363 . S
C166 N164 1.356 . S
C167 C161 1.363 . S
C167 C162 1.379 . S
C167 N165 1.356 . S
N168 C160 1.356 . S
N168 H174 0.984 . S
N168 H175 0.984 . S
N169 C162 1.356 . S
N169 H172 0.984 . S
N169 H173 0.985 . S
H170 N165 0.984 . S
H171 N165 0.985 . S
H172 N169 0.984 . S
H173 N169 0.985 . S
H174 N168 0.984 . S
H175 N168 0.984 . S
H176 N164 0.984 . S
H177 N164 0.985 . S
C178 C179 1.363 . S
C178 C184 1.379 . S
C178 N186 1.356 . S
C179 C178 1.363 . S
C179 C185 1.363 . S
C180 C181 1.363 . S
C180 C185 1.379 . S
C180 N187 1.356 . S
C181 C180 1.363 . S
C181 C184 1.363 . S
N182 C184 1.356 . S
N182 H194 0.984 . S
N182 H195 0.985 . S
N183 C185 1.356 . S
N183 H188 0.984 . S
N183 H189 0.985 . S
C184 C178 1.379 . S
C184 C181 1.363 . S
C184 N182 1.356 . S
C185 C179 1.363 . S
C185 C180 1.379 . S
C185 N183 1.356 . S
N186 C178 1.356 . S
N186 H192 0.984 . S
N186 H193 0.984 . S
N187 C180 1.356 . S
N187 H190 0.984 . S
N187 H191 0.985 . S
H188 N183 0.984 . S
H189 N183 0.985 . S
H190 N187 0.984 . S
H191 N187 0.985 . S
H192 N186 0.984 . S
H193 N186 0.984 . S
H194 N182 0.984 . S
H195 N182 0.985 . S
C196 C197 1.363 . S
C196 C202 1.379 . S
C196 N204 1.356 . S
C197 C196 1.363 . S
C197 C203 1.363 . S
C198 C199 1.363 . S
C198 C203 1.379 . S
C198 N205 1.356 . S
C199 C198 1.363 . S
C199 C202 1.363 . S
N200 C202 1.356 1_554 S
N200 H212 0.984 . S
N200 H213 0.985 . S
N201 C203 1.356 . S
N201 H206 0.984 . S
N201 H207 0.985 . S
C202 C196 1.379 . S
C202 C199 1.363 . S
C202 N200 1.356 1_556 S
C203 C197 1.363 . S
C203 C198 1.379 . S
C203 N201 1.356 . S
N204 C196 1.356 . S
N204 H210 0.984 1_556 S
N204 H211 0.984 . S
N205 C198 1.356 . S
N205 H208 0.984 . S
N205 H209 0.985 . S
H206 N201 0.984 . S
H207 N201 0.985 . S
H208 N205 0.984 . S
H209 N205 0.985 . S
H210 N204 0.984 1_554 S
H211 N204 0.984 . S
H212 N200 0.984 . S
H213 N200 0.985 . S
C214 C215 1.363 . S
C214 C220 1.379 . S
C214 N222 1.356 1_554 S
C215 C214 1.363 . S
C215 C221 1.363 . S
C216 C217 1.363 . S
C216 C221 1.379 . S
C216 N223 1.356 . S
C217 C216 1.363 . S
C217 C220 1.363 . S
N218 C220 1.356 . S
N218 H230 0.984 1_554 S
N218 H231 0.985 . S
N219 C221 1.356 . S
N219 H224 0.984 . S
N219 H225 0.985 . S
C220 C214 1.379 . S
C220 C217 1.363 . S
C220 N218 1.356 . S
C221 C215 1.363 . S
C221 C216 1.379 . S
C221 N219 1.356 . S
N222 C214 1.356 1_556 S
N222 H228 0.984 . S
N222 H229 0.984 . S
N223 C216 1.356 . S
N223 H226 0.984 . S
N223 H227 0.985 . S
H224 N219 0.984 . S
H225 N219 0.985 . S
H226 N223 0.984 . S
H227 N223 0.985 . S
H228 N222 0.984 . S
H229 N222 0.984 . S
H230 N218 0.984 1_556 S
H231 N218 0.985 . S
C232 C233 1.363 . S
C232 C238 1.379 . S
C232 N240 1.356 . S
C233 C232 1.363 . S
C233 C239 1.363 . S
C234 C235 1.363 . S
C234 C239 1.379 . S
C234 N241 1.356 . S
C235 C234 1.363 . S
C235 C238 1.363 . S
N236 C238 1.356 . S
N236 H248 0.984 . S
N236 H249 0.985 . S
N237 C239 1.356 . S
N237 H242 0.984 . S
N237 H243 0.985 . S
C238 C232 1.379 . S
C238 C235 1.363 . S
C238 N236 1.356 . S
C239 C233 1.363 . S
C239 C234 1.379 . S
C239 N237 1.356 . S
N240 C232 1.356 . S
N240 H246 0.984 . S
N240 H247 0.984 . S
N241 C234 1.356 . S
N241 H244 0.984 . S
N241 H245 0.985 . S
H242 N237 0.984 . S
H243 N237 0.985 . S
H244 N241 0.984 . S
H245 N241 0.985 . S
H246 N240 0.984 . S
H247 N240 0.984 . S
H248 N236 0.984 . S
H249 N236 0.985 . S
C250 C251 1.363 . S
C250 C256 1.379 . S
C250 N258 1.356 . S
C251 C250 1.363 . S
C251 C257 1.363 . S
C252 C253 1.363 . S
C252 C257 1.379 . S
C252 N259 1.356 . S
C253 C252 1.363 . S
C253 C256 1.363 . S
N254 C256 1.356 . S
N254 H266 0.984 . S
N254 H267 0.985 . S
N255 C257 1.356 . S
N255 H260 0.984 . S
N255 H261 0.985 . S
C256 C250 1.379 . S
C256 C253 1.363 . S
C256 N254 1.356 . S
C257 C251 1.363 . S
C257 C252 1.379 . S
C257 N255 1.356 . S
N258 C250 1.356 . S
N258 H264 0.984 . S
N258 H265 0.984 . S
N259 C252 1.356 . S
N259 H262 0.984 . S
N259 H263 0.985 . S
H260 N255 0.984 . S
H261 N255 0.985 . S
H262 N259 0.984 . S
H263 N259 0.985 . S
H264 N258 0.984 . S
H265 N258 0.984 . S
H266 N254 0.984 . S
H267 N254 0.985 . S
C268 C269 1.363 . S
C268 C274 1.379 . S
C268 N276 1.356 . S
C269 C268 1.363 . S
C269 C275 1.363 . S
C270 C271 1.363 . S
C270 C275 1.379 . S
C270 N277 1.356 . S
C271 C270 1.363 . S
C271 C274 1.363 . S
N272 C274 1.356 . S
N272 H284 0.984 . S
N272 H285 0.985 . S
N273 C275 1.356 . S
N273 H278 0.984 . S
N273 H279 0.985 . S
C274 C268 1.379 . S
C274 C271 1.363 . S
C274 N272 1.356 . S
C275 C269 1.363 . S
C275 C270 1.379 . S
C275 N273 1.356 . S
N276 C268 1.356 . S
N276 H282 0.984 . S
N276 H283 0.984 . S
N277 C270 1.356 . S
N277 H280 0.984 . S
N277 H281 0.985 . S
H278 N273 0.984 . S
H279 N273 0.985 . S
H280 N277 0.984 . S
H281 N277 0.985 . S
H282 N276 0.984 . S
H283 N276 0.984 . S
H284 N272 0.984 . S
H285 N272 0.985 . S
C286 C287 1.363 . S
C286 C292 1.379 . S
C286 N294 1.356 . S
C287 C286 1.363 . S
C287 C293 1.363 . S
C288 C289 1.363 . S
C288 C293 1.379 . S
C288 N295 1.356 1_556 S
C289 C288 1.363 . S
C289 C292 1.363 . S
N290 C292 1.356 . S
N290 H302 0.984 . S
N290 H303 0.985 . S
N291 C293 1.356 . S
N291 H296 0.984 . S
N291 H297 0.985 1_556 S
C292 C286 1.379 . S
C292 C289 1.363 . S
C292 N290 1.356 . S
C293 C287 1.363 . S
C293 C288 1.379 . S
C293 N291 1.356 . S
N294 C286 1.356 . S
N294 H300 0.984 . S
N294 H301 0.984 . S
N295 C288 1.356 1_554 S
N295 H298 0.984 . S
N295 H299 0.985 . S
H296 N291 0.984 . S
H297 N291 0.985 1_554 S
H298 N295 0.984 . S
H299 N295 0.985 . S
H300 N294 0.984 . S
H301 N294 0.984 . S
H302 N290 0.984 . S
H303 N290 0.985 . S
C304 C305 1.363 . S
C304 C310 1.379 . S
C304 N312 1.356 . S
C305 C304 1.363 . S
C305 C311 1.363 . S
C306 C307 1.363 . S
C306 C311 1.379 . S
C306 N313 1.356 . S
C307 C306 1.363 . S
C307 C310 1.363 . S
N308 C310 1.356 . S
N308 H320 0.984 . S
N308 H321 0.985 . S
N309 C311 1.356 . S
N309 H314 0.984 . S
N309 H315 0.985 . S
C310 C304 1.379 . S
C310 C307 1.363 . S
C310 N308 1.356 . S
C311 C305 1.363 . S
C311 C306 1.379 . S
C311 N309 1.356 . S
N312 C304 1.356 . S
N312 H318 0.984 . S
N312 H319 0.984 . S
N313 C306 1.356 . S
N313 H316 0.984 . S
N313 H317 0.985 . S
H314 N309 0.984 . S
H315 N309 0.985 . S
H316 N313 0.984 . S
H317 N313 0.985 . S
H318 N312 0.984 . S
H319 N312 0.984 . S
H320 N308 0.984 . S
H321 N308 0.985 . S
C322 C323 1.363 . S
C322 C328 1.379 . S
C322 N330 1.356 . S
C323 C322 1.363 . S
C323 C329 1.363 . S
C324 C325 1.363 . S
C324 C329 1.379 . S
C324 N331 1.356 1_554 S
C325 C324 1.363 . S
C325 C328 1.363 . S
N326 C328 1.356 . S
N326 H338 0.984 . S
N326 H339 0.985 . S
N327 C329 1.356 . S
N327 H332 0.984 . S
N327 H333 0.985 . S
C328 C322 1.379 . S
C328 C325 1.363 . S
C328 N326 1.356 . S
C329 C323 1.363 . S
C329 C324 1.379 . S
C329 N327 1.356 . S
N330 C322 1.356 . S
N330 H336 0.984 . S
N330 H337 0.984 . S
N331 C324 1.356 1_556 S
N331 H334 0.984 . S
N331 H335 0.985 . S
H332 N327 0.984 . S
H333 N327 0.985 . S
H334 N331 0.984 . S
H335 N331 0.985 . S
H336 N330 0.984 . S
H337 N330 0.984 . S
H338 N326 0.984 . S
H339 N326 0.985 . S
C340 C341 1.363 . S
C340 C346 1.379 . S
C340 N348 1.356 . S
C341 C340 1.363 . S
C341 C347 1.363 . S
C342 C343 1.363 . S
C342 C347 1.379 . S
C342 N349 1.356 . S
C343 C342 1.363 . S
C343 C346 1.363 . S
N344 C346 1.356 . S
N344 H356 0.984 . S
N344 H357 0.985 . S
N345 C347 1.356 . S
N345 H350 0.984 . S
N345 H351 0.985 . S
C346 C340 1.379 . S
C346 C343 1.363 . S
C346 N344 1.356 . S
C347 C341 1.363 . S
C347 C342 1.379 . S
C347 N345 1.356 . S
N348 C340 1.356 . S
N348 H354 0.984 . S
N348 H355 0.984 . S
N349 C342 1.356 . S
N349 H352 0.984 . S
N349 H353 0.985 . S
H350 N345 0.984 . S
H351 N345 0.985 . S
H352 N349 0.984 . S
H353 N349 0.985 . S
H354 N348 0.984 . S
H355 N348 0.984 . S
H356 N344 0.984 . S
H357 N344 0.985 . S
C358 C359 1.363 . S
C358 C364 1.379 . S
C358 N366 1.356 . S
C359 C358 1.363 . S
C359 C365 1.363 . S
C360 C361 1.363 . S
C360 C365 1.379 . S
C360 N367 1.356 . S
C361 C360 1.363 . S
C361 C364 1.363 . S
N362 C364 1.356 . S
N362 H374 0.984 . S
N362 H375 0.985 . S
N363 C365 1.356 . S
N363 H368 0.984 . S
N363 H369 0.985 . S
C364 C358 1.379 . S
C364 C361 1.363 . S
C364 N362 1.356 . S
C365 C359 1.363 . S
C365 C360 1.379 . S
C365 N363 1.356 . S
N366 C358 1.356 . S
N366 H372 0.984 . S
N366 H373 0.984 . S
N367 C360 1.356 . S
N367 H370 0.984 . S
N367 H371 0.985 . S
H368 N363 0.984 . S
H369 N363 0.985 . S
H370 N367 0.984 . S
H371 N367 0.985 . S
H372 N366 0.984 . S
H373 N366 0.984 . S
H374 N362 0.984 . S
H375 N362 0.985 . S
C376 C377 1.363 . S
C376 C382 1.379 . S
C376 N384 1.356 . S
C377 C376 1.363 . S
C377 C383 1.363 . S
C378 C379 1.363 . S
C378 C383 1.379 . S
C378 N385 1.356 1_554 S
C379 C378 1.363 . S
C379 C382 1.363 . S
N380 C382 1.356 . S
N380 H392 0.984 . S
N380 H393 0.985 . S
N381 C383 1.356 . S
N381 H386 0.984 . S
N381 H387 0.985 1_554 S
C382 C376 1.379 . S
C382 C379 1.363 . S
C382 N380 1.356 . S
C383 C377 1.363 . S
C383 C378 1.379 . S
C383 N381 1.356 . S
N384 C376 1.356 . S
N384 H390 0.984 . S
N384 H391 0.984 . S
N385 C378 1.356 1_556 S
N385 H388 0.984 . S
N385 H389 0.985 . S
H386 N381 0.984 . S
H387 N381 0.985 1_556 S
H388 N385 0.984 . S
H389 N385 0.985 . S
H390 N384 0.984 . S
H391 N384 0.984 . S
H392 N380 0.984 . S
H393 N380 0.985 . S
C394 C395 1.363 . S
C394 C400 1.379 . S
C394 N402 1.356 . S
C395 C394 1.363 . S
C395 C401 1.363 . S
C396 C397 1.363 . S
C396 C401 1.379 . S
C396 N403 1.356 . S
C397 C396 1.363 . S
C397 C400 1.363 . S
N398 C400 1.356 . S
N398 H410 0.984 . S
N398 H411 0.985 . S
N399 C401 1.356 1_554 S
N399 H404 0.984 . S
N399 H405 0.985 . S
C400 C394 1.379 . S
C400 C397 1.363 . S
C400 N398 1.356 . S
C401 C395 1.363 . S
C401 C396 1.379 . S
C401 N399 1.356 1_556 S
N402 C394 1.356 . S
N402 H408 0.984 . S
N402 H409 0.984 . S
N403 C396 1.356 . S
N403 H406 0.984 . S
N403 H407 0.985 1_556 S
H404 N399 0.984 . S
H405 N399 0.985 . S
H406 N403 0.984 . S
H407 N403 0.985 1_554 S
H408 N402 0.984 . S
H409 N402 0.984 . S
H410 N398 0.984 . S
H411 N398 0.985 . S
C412 C413 1.363 . S
C412 C418 1.379 . S
C412 N420 1.356 . S
C413 C412 1.363 . S
C413 C419 1.363 . S
C414 C415 1.363 . S
C414 C419 1.379 . S
C414 N421 1.356 . S
C415 C414 1.363 . S
C415 C418 1.363 . S
N416 C418 1.356 . S
N416 H428 0.984 . S
N416 H429 0.985 . S
N417 C419 1.356 . S
N417 H422 0.984 . S
N417 H423 0.985 . S
C418 C412 1.379 . S
C418 C415 1.363 . S
C418 N416 1.356 . S
C419 C413 1.363 . S
C419 C414 1.379 . S
C419 N417 1.356 . S
N420 C412 1.356 . S
N420 H426 0.984 . S
N420 H427 0.984 . S
N421 C414 1.356 . S
N421 H424 0.984 . S
N421 H425 0.985 . S
H422 N417 0.984 . S
H423 N417 0.985 . S
H424 N421 0.984 . S
H425 N421 0.985 . S
H426 N420 0.984 . S
H427 N420 0.984 . S
H428 N416 0.984 . S
H429 N416 0.985 . S
C430 C431 1.363 . S
C430 C436 1.379 . S
C430 N438 1.356 . S
C431 C430 1.363 . S
C431 C437 1.363 . S
C432 C433 1.363 . S
C432 C437 1.379 . S
C432 N439 1.356 . S
C433 C432 1.363 . S
C433 C436 1.363 . S
N434 C436 1.356 . S
N434 H446 0.984 . S
N434 H447 0.985 . S
N435 C437 1.356 . S
N435 H440 0.984 . S
N435 H441 0.985 . S
C436 C430 1.379 . S
C436 C433 1.363 . S
C436 N434 1.356 . S
C437 C431 1.363 . S
C437 C432 1.379 . S
C437 N435 1.356 . S
N438 C430 1.356 . S
N438 H444 0.984 . S
N438 H445 0.984 . S
N439 C432 1.356 . S
N439 H442 0.984 . S
N439 H443 0.985 . S
H440 N435 0.984 . S
H441 N435 0.985 . S
H442 N439 0.984 . S
H443 N439 0.985 . S
H444 N438 0.984 . S
H445 N438 0.984 . S
H446 N434 0.984 . S
H447 N434 0.985 . S
C448 C449 1.363 1_445 S
C448 C454 1.379 1_556 S
C448 N456 1.356 . S
C449 C448 1.363 1_665 S
C449 C455 1.363 . S
C450 C451 1.363 1_665 S
C450 C455 1.379 1_554 S
C450 N457 1.356 . S
C451 C450 1.363 1_445 S
C451 C454 1.363 . S
N452 C454 1.356 . S
N452 H464 0.984 . S
N452 H465 0.985 . S
N453 C455 1.356 . S
N453 H458 0.984 . S
N453 H459 0.985 . S
C454 C448 1.379 1_554 S
C454 C451 1.363 . S
C454 N452 1.356 . S
C455 C449 1.363 . S
C455 C450 1.379 1_556 S
C455 N453 1.356 . S
N456 C448 1.356 . S
N456 H462 0.984 . S
N456 H463 0.984 . S
N457 C450 1.356 . S
N457 H460 0.984 . S
N457 H461 0.985 . S
H458 N453 0.984 . S
H459 N453 0.985 . S
H460 N457 0.984 . S
H461 N457 0.985 . S
H462 N456 0.984 . S
H463 N456 0.984 . S
H464 N452 0.984 . S
H465 N452 0.985 . S
C466 C467 1.363 . S
C466 C472 1.379 . S
C466 N474 1.356 . S
C467 C466 1.363 . S
C467 C473 1.363 . S
C468 C469 1.363 . S
C468 C473 1.379 . S
C468 N475 1.356 . S
C469 C468 1.363 . S
C469 C472 1.363 . S
N470 C472 1.356 . S
N470 H482 0.984 . S
N470 H483 0.985 . S
N471 C473 1.356 . S
N471 H476 0.984 . S
N471 H477 0.985 . S
C472 C466 1.379 . S
C472 C469 1.363 . S
C472 N470 1.356 . S
C473 C467 1.363 . S
C473 C468 1.379 . S
C473 N471 1.356 . S
N474 C466 1.356 . S
N474 H480 0.984 . S
N474 H481 0.984 . S
N475 C468 1.356 . S
N475 H478 0.984 . S
N475 H479 0.985 . S
H476 N471 0.984 . S
H477 N471 0.985 . S
H478 N475 0.984 . S
H479 N475 0.985 . S
H480 N474 0.984 . S
H481 N474 0.984 . S
H482 N470 0.984 . S
H483 N470 0.985 . S
C484 C485 1.363 1_565 S
C484 C490 1.379 . S
C484 N492 1.356 . S
C485 C484 1.363 1_545 S
C485 C491 1.363 . S
C486 C487 1.363 1_545 S
C486 C491 1.379 . S
C486 N493 1.356 . S
C487 C486 1.363 1_565 S
C487 C490 1.363 . S
N488 C490 1.356 . S
N488 H500 0.984 . S
N488 H501 0.985 . S
N489 C491 1.356 . S
N489 H494 0.984 . S
N489 H495 0.985 . S
C490 C484 1.379 . S
C490 C487 1.363 . S
C490 N488 1.356 . S
C491 C485 1.363 . S
C491 C486 1.379 . S
C491 N489 1.356 . S
N492 C484 1.356 . S
N492 H498 0.984 . S
N492 H499 0.984 . S
N493 C486 1.356 . S
N493 H496 0.984 . S
N493 H497 0.985 . S
H494 N489 0.984 . S
H495 N489 0.985 . S
H496 N493 0.984 . S
H497 N493 0.985 . S
H498 N492 0.984 . S
H499 N492 0.984 . S
H500 N488 0.984 . S
H501 N488 0.985 . S
C502 C503 1.363 . S
C502 C508 1.379 . S
C502 N510 1.356 . S
C503 C502 1.363 . S
C503 C509 1.363 . S
C504 C505 1.363 . S
C504 C509 1.379 . S
C504 N511 1.356 . S
C505 C504 1.363 . S
C505 C508 1.363 . S
N506 C508 1.356 . S
N506 H518 0.984 . S
N506 H519 0.985 . S
N507 C509 1.356 . S
N507 H512 0.984 . S
N507 H513 0.985 . S
C508 C502 1.379 . S
C508 C505 1.363 . S
C508 N506 1.356 . S
C509 C503 1.363 . S
C509 C504 1.379 . S
C509 N507 1.356 . S
N510 C502 1.356 . S
N510 H516 0.984 . S
N510 H517 0.984 . S
N511 C504 1.356 . S
N511 H514 0.984 . S
N511 H515 0.985 . S
H512 N507 0.984 . S
H513 N507 0.985 . S
H514 N511 0.984 . S
H515 N511 0.985 . S
H516 N510 0.984 . S
H517 N510 0.984 . S
H518 N506 0.984 . S
H519 N506 0.985 . S
C520 C521 1.363 . S
C520 C526 1.379 . S
C520 N528 1.356 . S
C521 C520 1.363 . S
C521 C527 1.363 . S
C522 C523 1.363 . S
C522 C527 1.379 . S
C522 N529 1.356 . S
C523 C522 1.363 . S
C523 C526 1.363 . S
N524 C526 1.356 . S
N524 H536 0.984 . S
N524 H537 0.985 . S
N525 C527 1.356 . S
N525 H530 0.984 . S
N525 H531 0.985 . S
C526 C520 1.379 . S
C526 C523 1.363 . S
C526 N524 1.356 . S
C527 C521 1.363 . S
C527 C522 1.379 . S
C527 N525 1.356 . S
N528 C520 1.356 . S
N528 H534 0.984 . S
N528 H535 0.984 . S
N529 C522 1.356 . S
N529 H532 0.984 . S
N529 H533 0.985 . S
H530 N525 0.984 . S
H531 N525 0.985 . S
H532 N529 0.984 . S
H533 N529 0.985 . S
H534 N528 0.984 . S
H535 N528 0.984 . S
H536 N524 0.984 . S
H537 N524 0.985 . S
C538 C539 1.363 . S
C538 C544 1.379 . S
C538 N546 1.356 . S
C539 C538 1.363 . S
C539 C545 1.363 . S
C540 C541 1.363 . S
C540 C545 1.379 . S
C540 N547 1.356 . S
C541 C540 1.363 . S
C541 C544 1.363 . S
N542 C544 1.356 . S
N542 H554 0.984 . S
N542 H555 0.985 . S
N543 C545 1.356 . S
N543 H548 0.984 . S
N543 H549 0.985 . S
C544 C538 1.379 . S
C544 C541 1.363 . S
C544 N542 1.356 . S
C545 C539 1.363 . S
C545 C540 1.379 . S
C545 N543 1.356 . S
N546 C538 1.356 . S
N546 H552 0.984 . S
N546 H553 0.984 . S
N547 C540 1.356 . S
N547 H550 0.984 . S
N547 H551 0.985 . S
H548 N543 0.984 . S
H549 N543 0.985 . S
H550 N547 0.984 . S
H551 N547 0.985 . S
H552 N546 0.984 . S
H553 N546 0.984 . S
H554 N542 0.984 . S
H555 N542 0.985 . S
C556 C557 1.363 . S
C556 C562 1.379 . S
C556 N564 1.356 . S
C557 C556 1.363 . S
C557 C563 1.363 . S
C558 C559 1.363 . S
C558 C563 1.379 . S
C558 N565 1.356 . S
C559 C558 1.363 . S
C559 C562 1.363 . S
N560 C562 1.356 . S
N560 H572 0.984 . S
N560 H573 0.985 . S
N561 C563 1.356 . S
N561 H566 0.984 . S
N561 H567 0.985 . S
C562 C556 1.379 . S
C562 C559 1.363 . S
C562 N560 1.356 . S
C563 C557 1.363 . S
C563 C558 1.379 . S
C563 N561 1.356 . S
N564 C556 1.356 . S
N564 H570 0.984 . S
N564 H571 0.984 . S
N565 C558 1.356 . S
N565 H568 0.984 . S
N565 H569 0.985 . S
H566 N561 0.984 . S
H567 N561 0.985 . S
H568 N565 0.984 . S
H569 N565 0.985 . S
H570 N564 0.984 . S
H571 N564 0.984 . S
H572 N560 0.984 . S
H573 N560 0.985 . S
C574 C575 1.363 . S
C574 C580 1.379 1_556 S
C574 N582 1.356 . S
C575 C574 1.363 . S
C575 C581 1.363 1_655 S
C576 C577 1.363 . S
C576 C581 1.379 1_554 S
C576 N583 1.356 . S
C577 C576 1.363 . S
C577 C580 1.363 1_455 S
N578 C580 1.356 . S
N578 H590 0.984 . S
N578 H591 0.985 . S
N579 C581 1.356 . S
N579 H584 0.984 . S
N579 H585 0.985 . S
C580 C574 1.379 1_554 S
C580 C577 1.363 1_655 S
C580 N578 1.356 . S
C581 C575 1.363 1_455 S
C581 C576 1.379 1_556 S
C581 N579 1.356 . S
N582 C574 1.356 . S
N582 H588 0.984 . S
N582 H589 0.984 . S
N583 C576 1.356 . S
N583 H586 0.984 . S
N583 H587 0.985 . S
H584 N579 0.984 . S
H585 N579 0.985 . S
H586 N583 0.984 . S
H587 N583 0.985 . S
H588 N582 0.984 . S
H589 N582 0.984 . S
H590 N578 0.984 . S
H591 N578 0.985 . S
C161 C18 1.510 . S
C163 C68 1.495 . S
C179 C8 1.241 . S
C181 C28 1.242 . S
C197 C38 1.510 . S
C199 C48 1.499 . S
C215 C58 1.717 . S
C217 C78 1.715 . S
C233 C19 1.510 . S
C235 C109 1.499 . S
C251 C9 1.241 . S
C253 C89 1.240 . S
C269 C99 1.510 . S
C271 C49 1.495 . S
C287 C119 1.717 . S
C289 C59 1.720 . S
C305 C138 1.510 . S
C307 C108 1.497 . S
C323 C88 1.241 . S
C325 C128 1.241 . S
C341 C148 1.497 . S
C343 C98 1.511 . S
C359 C118 1.717 . S
C361 C158 1.718 . S
C377 C69 1.497 . S
C379 C139 1.510 . S
C395 C129 1.241 . S
C397 C29 1.241 . S
C413 C39 1.510 . S
C415 C149 1.496 . S
C431 C79 1.717 . S
C433 C159 1.717 . S
C449 C1 1.439 1_565 S
C451 C2 1.439 1_545 S
C467 C21 1.439 . S
C469 C22 1.439 . S
C485 C41 1.516 . S
C487 C42 1.516 . S
C503 C62 1.516 . S
C505 C61 1.516 . S
C521 C81 1.439 . S
C523 C82 1.439 . S
C539 C102 1.516 . S
C541 C101 1.516 . S
C557 C122 1.439 . S
C559 C121 1.439 . S
C575 C142 1.516 . S
C577 C141 1.516 . S
