# Generated by pormake.
# Topology irl, (4)-cn, num edge types: 1
# Building blocks:
#     Node 0, Type 0, BuildingBlock: CEKHIL_clean_sbu_0, # of connection points: 4
#     Node 1, Type 0, BuildingBlock: CEKHIL_clean_sbu_0, # of connection points: 4
#     Node 2, Type 0, BuildingBlock: CEKHIL_clean_sbu_0, # of connection points: 4
#     Node 3, Type 0, BuildingBlock: CEKHIL_clean_sbu_0, # of connection points: 4
#     Node 4, Type 0, BuildingBlock: CEKHIL_clean_sbu_0, # of connection points: 4
#     Node 5, Type 0, BuildingBlock: CEKHIL_clean_sbu_0, # of connection points: 4
#     Node 6, Type 0, BuildingBlock: CEKHIL_clean_sbu_0, # of connection points: 4
#     Node 7, Type 0, BuildingBlock: CEKHIL_clean_sbu_0, # of connection points: 4
#     Edge 8, Type (0, 0), BuildingBlock: ZUJKAS_clean_linker_0, # of connection points: 2
#     Edge 9, Type (0, 0), BuildingBlock: ZUJKAS_clean_linker_0, # of connection points: 2
#     Edge 10, Type (0, 0), BuildingBlock: ZUJKAS_clean_linker_0, # of connection points: 2
#     Edge 11, Type (0, 0), BuildingBlock: ZUJKAS_clean_linker_0, # of connection points: 2
#     Edge 12, Type (0, 0), BuildingBlock: ZUJKAS_clean_linker_0, # of connection points: 2
#     Edge 13, Type (0, 0), BuildingBlock: ZUJKAS_clean_linker_0, # of connection points: 2
#     Edge 14, Type (0, 0), BuildingBlock: ZUJKAS_clean_linker_0, # of connection points: 2
#     Edge 15, Type (0, 0), BuildingBlock: ZUJKAS_clean_linker_0, # of connection points: 2
#     Edge 16, Type (0, 0), BuildingBlock: ZUJKAS_clean_linker_0, # of connection points: 2
#     Edge 17, Type (0, 0), BuildingBlock: ZUJKAS_clean_linker_0, # of connection points: 2
#     Edge 18, Type (0, 0), BuildingBlock: ZUJKAS_clean_linker_0, # of connection points: 2
#     Edge 19, Type (0, 0), BuildingBlock: ZUJKAS_clean_linker_0, # of connection points: 2
#     Edge 20, Type (0, 0), BuildingBlock: ZUJKAS_clean_linker_0, # of connection points: 2
#     Edge 21, Type (0, 0), BuildingBlock: ZUJKAS_clean_linker_0, # of connection points: 2
#     Edge 22, Type (0, 0), BuildingBlock: ZUJKAS_clean_linker_0, # of connection points: 2
#     Edge 23, Type (0, 0), BuildingBlock: ZUJKAS_clean_linker_0, # of connection points: 2
# Relax obj value: 0.066
# Max RMSD: 0.130
# Mean RMSD: 0.130
data_MOF--net-irl--node1-CEKHIL_clean_sbu_0--edge1-ZUJKAS_clean_linker_0
_symmetry_space_group_name_H-M    P1
_symmetry_Int_Tables_number       1
_symmetry_cell_setting            triclinic
loop_
_symmetry_equiv_pos_as_xyz
'x, y, z'
_cell_length_a     42.266886
_cell_length_b     59.155573
_cell_length_c     36.285288
_cell_angle_alpha  89.993553
_cell_angle_beta   90.032993
_cell_angle_gamma 90.067217
loop_
_atom_site_label
_atom_site_type_symbol
_atom_site_fract_x
_atom_site_fract_y
_atom_site_fract_z
_atom_type_partial_charge
Co0 Co 0.06788 0.16678 0.98964 0.0
O1 O 0.08902 0.19543 0.99006 0.0
O2 O 0.10891 0.16416 0.01404 0.0
C3 C 0.05334 0.16781 0.93007 0.0
O4 O 0.05164 0.13404 0.99271 0.0
Co5 Co 0.99529 0.16754 0.97555 0.0
O6 O 0.00133 0.13441 0.97201 0.0
C7 C 0.01965 0.18109 0.04794 0.0
C8 C 0.11205 0.18571 0.00735 0.0
C9 C 0.02583 0.12382 0.98311 0.0
O10 O 0.0473 0.17448 0.03796 0.0
O11 O 0.99586 0.18142 0.02609 0.0
O12 O 0.08158 0.16122 0.93922 0.0
O13 O 0.03642 0.17589 0.95662 0.0
Co14 Co 0.93377 0.84033 -0.00555 0.0
O15 O 0.91169 0.81207 0.99332 0.0
O16 O 0.89216 0.84351 0.01722 0.0
C17 C 0.95008 0.83965 0.93555 0.0
O18 O 0.95101 0.87274 -0.00095 0.0
Co19 Co 0.00661 0.83828 0.98378 0.0
O20 O 0.00245 0.8716 0.98253 0.0
C21 C 0.97953 0.82473 0.05469 0.0
C22 C 0.88861 0.82205 0.0101 0.0
C23 C 0.97776 0.8825 0.9921 0.0
O24 O 0.95247 0.83175 0.0434 0.0
O25 O 0.00415 0.82431 0.03418 0.0
O26 O 0.92189 0.84675 0.94375 0.0
O27 O 0.96588 0.83086 0.96249 0.0
Co28 Co 0.06733 0.83868 0.49986 0.0
O29 O 0.0889 0.81022 0.49857 0.0
O30 O 0.10767 0.84184 0.47441 0.0
C31 C 0.0541 0.83729 0.55978 0.0
O32 O 0.05089 0.87132 0.49749 0.0
Co33 Co 0.99518 0.83813 0.51618 0.0
O34 O 0.00218 0.87103 0.52275 0.0
C35 C 0.01776 0.82467 0.44288 0.0
C36 C 0.11141 0.82033 0.48086 0.0
C37 C 0.02614 0.88159 0.51003 0.0
O38 O 0.04576 0.83098 0.45213 0.0
O39 O 0.99439 0.82464 0.46533 0.0
O40 O 0.08203 0.84416 0.54991 0.0
O41 O 0.03661 0.82926 0.53363 0.0
Co42 Co 0.93097 0.16501 0.49622 0.0
O43 O 0.91135 0.1942 0.49579 0.0
O44 O 0.88942 0.16321 0.47304 0.0
C45 C 0.94666 0.16614 0.55533 0.0
O46 O 0.94509 0.13183 0.49331 0.0
Co47 Co 0.00358 0.16276 0.50869 0.0
O48 O 0.99384 0.13051 0.5185 0.0
C49 C 0.97912 0.1767 0.43635 0.0
C50 C 0.88746 0.18486 0.47944 0.0
C51 C 0.969 0.1208 0.50633 0.0
O52 O 0.95104 0.17187 0.44735 0.0
O53 O 0.00348 0.17553 0.45728 0.0
O54 O 0.91796 0.16018 0.547 0.0
O55 O 0.96367 0.17345 0.5282 0.0
Co56 Co 0.56782 0.66487 0.99076 0.0
O57 O 0.58977 0.6932 0.98971 0.0
O58 O 0.609 0.66203 0.01473 0.0
C59 C 0.55274 0.6654 0.93146 0.0
O60 O 0.55096 0.63238 -0.00478 0.0
Co61 Co 0.49534 0.6658 0.97735 0.0
O62 O 0.50136 0.63271 0.97245 0.0
C63 C 0.52033 0.68036 0.04898 0.0
C64 C 0.61272 0.68342 0.00708 0.0
C65 C 0.52558 0.62212 0.98435 0.0
O66 O 0.54791 0.67358 0.03901 0.0
O67 O 0.49638 0.68032 0.02738 0.0
O68 O 0.58074 0.65824 0.94043 0.0
O69 O 0.53631 0.67413 0.95786 0.0
Co70 Co 0.4365 0.33866 -0.00539 0.0
O71 O 0.41308 0.31094 0.99303 0.0
O72 O 0.39592 0.34225 0.01958 0.0
C73 C 0.45049 0.33876 0.93492 0.0
O74 O 0.45503 0.37064 -0.00015 0.0
Co75 Co 0.50862 0.3359 0.97967 0.0
O76 O 0.50491 0.36926 0.97808 0.0
C77 C 0.48411 0.32103 0.05125 0.0
C78 C 0.39096 0.32109 0.01123 0.0
C79 C 0.48121 0.38033 0.99023 0.0
O80 O 0.45678 0.32872 0.0421 0.0
O81 O 0.5077 0.3207 0.02914 0.0
O82 O 0.42302 0.3464 0.9449 0.0
O83 O 0.46693 0.32913 0.96052 0.0
Co84 Co 0.56521 0.3409 0.49766 0.0
O85 O 0.58818 0.3131 0.50172 0.0
O86 O 0.60685 0.34401 0.47517 0.0
C87 C 0.54821 0.34183 0.55623 0.0
O88 O 0.54767 0.37289 0.48999 0.0
Co89 Co 0.49246 0.33901 0.50733 0.0
O90 O 0.49595 0.37236 0.50519 0.0
C91 C 0.52025 0.32315 0.43811 0.0
C92 C 0.61116 0.32293 0.48441 0.0
C93 C 0.52091 0.38289 0.49538 0.0
O94 O 0.54726 0.33045 0.44921 0.0
O95 O 0.4954 0.32349 0.45823 0.0
O96 O 0.57626 0.34921 0.54786 0.0
O97 O 0.53286 0.33197 0.52991 0.0
Co98 Co 0.43425 0.66678 0.49547 0.0
O99 O 0.4122 0.69502 0.49638 0.0
O100 O 0.39307 0.66365 0.47168 0.0
C101 C 0.44952 0.66729 0.55464 0.0
O102 O 0.45117 0.63438 0.49102 0.0
Co103 Co 0.50675 0.66796 0.50821 0.0
O104 O 0.50118 0.6348 0.51249 0.0
C105 C 0.48142 0.68223 0.4367 0.0
C106 C 0.38936 0.68506 0.47902 0.0
C107 C 0.47681 0.62417 0.50105 0.0
O108 O 0.45391 0.67555 0.44714 0.0
O109 O 0.50566 0.6821 0.45786 0.0
O110 O 0.42149 0.6601 0.54577 0.0
O111 O 0.46588 0.67616 0.52823 0.0
H112 H 0.03234 0.90586 0.00272 0.0
H113 H 0.04018 0.94651 0.00498 0.0
H114 H 0.93988 0.9568 0.99096 0.0
H115 H 0.93164 0.91563 0.98956 0.0
H116 H 0.02909 0.97659 0.95198 0.0
H117 H 0.9587 0.99912 0.0756 0.0
H118 H 0.96873 0.97028 0.06443 0.0
H119 H 0.93656 0.98413 0.04114 0.0
C120 C 0.01177 0.91667 0.00036 0.0
C121 C 0.98129 0.90741 -0.0042 0.0
C122 C 0.01637 0.94 0.00168 0.0
C123 C 0.99069 0.95482 -0.0016 0.0
C124 C 0.96006 0.94573 -0.00569 0.0
H125 H 0.97322 0.0982 0.97066 0.0
H126 H 0.96708 0.05755 0.97567 0.0
C127 C 0.95535 0.9222 0.99335 0.0
C128 C 0.99667 0.97964 -0.00248 0.0
H129 H 0.97822 0.02966 0.03945 0.0
C130 C 0.01811 0.98816 0.97131 0.0
C131 C 0.9825 0.99477 0.02282 0.0
C132 C 0.96058 0.98664 0.05283 0.0
C133 C 0.02525 0.01133 0.96921 0.0
C134 C 0.01077 0.02645 -0.00584 0.0
C135 C 0.98944 0.01799 0.02048 0.0
C136 C 0.01554 0.05129 0.99157 0.0
C137 C 0.04754 0.0196 0.93966 0.0
C138 C 0.045 0.06143 -0.00104 0.0
C139 C 0.04876 0.08499 -0.00382 0.0
C140 C 0.02308 0.09875 0.98587 0.0
C141 C 0.9937 0.08833 0.97856 0.0
C142 C 0.98999 0.06498 0.98152 0.0
H143 H 0.05268 0.00633 0.91886 0.0
H144 H 0.03747 0.03456 0.92538 0.0
H145 H 0.07022 0.02483 0.95254 0.0
H146 H 0.065 0.05114 0.00712 0.0
H147 H 0.07164 0.09238 0.00214 0.0
H148 H 0.98726 0.90849 0.55038 0.0
H149 H 0.97822 0.94887 0.5439 0.0
H150 H 0.04959 0.9523 0.45922 0.0
H151 H 0.05926 0.91148 0.46598 0.0
H152 H 0.05304 0.9881 0.50685 0.0
H153 H 0.92949 0.97775 0.46023 0.0
H154 H 0.93616 0.96359 0.50323 0.0
H155 H 0.95688 0.95441 0.46253 0.0
C156 C 0.00118 0.91775 0.53036 0.0
C157 C 0.02374 0.90663 0.50833 0.0
C158 C 0.99577 0.94087 0.52652 0.0
C159 C 0.01244 0.95352 0.50024 0.0
C160 C 0.03608 0.94279 0.47931 0.0
H161 H 0.94835 0.09236 0.45154 0.0
H162 H 0.95928 0.05162 0.44643 0.0
C163 C 0.04171 0.9195 0.48331 0.0
C164 C 0.00513 0.97795 0.4954 0.0
H165 H 0.94352 0.01461 0.48321 0.0
C166 C 0.02919 0.9939 0.50121 0.0
C167 C 0.97416 0.9856 0.48715 0.0
C168 C 0.94779 0.96942 0.47751 0.0
C169 C 0.02279 0.01722 0.50094 0.0
C170 C 0.99125 0.02481 0.49578 0.0
C171 C 0.96755 0.00888 0.48795 0.0
C172 C 0.98233 0.04907 0.49962 0.0
C173 C 0.05003 0.03344 0.5061 0.0
C174 C 0.9902 0.06095 0.53183 0.0
C175 C 0.9843 0.0841 0.53456 0.0
C176 C 0.96955 0.09581 0.50557 0.0
C177 C 0.95954 0.08369 0.47438 0.0
C178 C 0.96601 0.06048 0.47136 0.0
H179 H 0.07269 0.02584 0.49682 0.0
H180 H 0.04618 0.04942 0.49068 0.0
H181 H 0.0525 0.03749 0.53582 0.0
H182 H 0.0016 0.05242 0.55465 0.0
H183 H 0.99198 0.09301 0.55908 0.0
H184 H 0.48125 0.59546 0.95148 0.0
H185 H 0.4745 0.55478 0.95624 0.0
H186 H 0.55714 0.55054 0.02557 0.0
H187 H 0.56408 0.59178 0.02125 0.0
H188 H 0.51668 0.52083 0.93531 0.0
H189 H 0.48753 0.51632 0.08458 0.0
H190 H 0.48621 0.54243 0.05882 0.0
H191 H 0.52355 0.53088 0.07291 0.0
C192 C 0.49809 0.58603 0.9679 0.0
C193 C 0.52317 0.59704 0.9862 0.0
C194 C 0.49414 0.56268 0.97052 0.0
C195 C 0.51498 0.54963 0.99167 0.0
C196 C 0.54042 0.56036 0.0096 0.0
H197 H 0.53479 0.40495 0.97806 0.0
H198 H 0.54168 0.44566 0.98009 0.0
C199 C 0.54453 0.58389 0.00684 0.0
C200 C 0.51008 0.52477 0.99377 0.0
H201 H 0.49084 0.48157 0.05236 0.0
C202 C 0.51111 0.51226 0.96093 0.0
C203 C 0.50225 0.51366 0.02711 0.0
C204 C 0.49952 0.52645 0.0629 0.0
C205 C 0.5049 0.48894 0.96053 0.0
C206 C 0.49778 0.47771 -0.00604 0.0
C207 C 0.49634 0.49022 0.0268 0.0
C208 C 0.49328 0.45281 -0.00479 0.0
C209 C 0.50569 0.47652 0.92421 0.0
C210 C 0.46384 0.44315 0.00408 0.0
C211 C 0.45966 0.41957 0.00299 0.0
C212 C 0.48495 0.40532 0.99316 0.0
C213 C 0.51456 0.41523 0.98536 0.0
C214 C 0.51865 0.43861 0.98647 0.0
H215 H 0.50359 0.48826 0.90044 0.0
H216 H 0.52854 0.46742 0.92168 0.0
H217 H 0.48632 0.46386 0.9226 0.0
H218 H 0.44396 0.45386 0.01106 0.0
H219 H 0.4366 0.41257 0.00931 0.0
H220 H 0.46832 0.40604 0.47514 0.0
H221 H 0.46112 0.44681 0.47122 0.0
H222 H 0.55888 0.45687 0.5014 0.0
H223 H 0.56653 0.41575 0.50409 0.0
H224 H 0.46529 0.47644 0.52496 0.0
H225 H 0.55175 0.50015 0.41688 0.0
H226 H 0.54071 0.47116 0.42557 0.0
H227 H 0.56943 0.48504 0.45445 0.0
C228 C 0.48846 0.4169 0.4805 0.0
C229 C 0.51803 0.40765 0.48997 0.0
C230 C 0.48428 0.44025 0.47826 0.0
C231 C 0.50945 0.45503 0.4857 0.0
C232 C 0.53923 0.44587 0.49465 0.0
H233 H 0.52671 0.59785 0.52181 0.0
H234 H 0.53242 0.55713 0.51665 0.0
C235 C 0.54359 0.42236 0.49635 0.0
C236 C 0.50366 0.47987 0.48625 0.0
H237 H 0.5291 0.53039 0.45138 0.0
C238 C 0.47908 0.48819 0.50857 0.0
C239 C 0.52156 0.49527 0.46485 0.0
C240 C 0.54712 0.48746 0.43881 0.0
C241 C 0.47241 0.51142 0.51073 0.0
C242 C 0.49066 0.5268 0.48984 0.0
C243 C 0.51507 0.51854 0.46731 0.0
C244 C 0.4862 0.55164 0.49279 0.0
C245 C 0.44652 0.51941 0.53618 0.0
C246 C 0.45815 0.5622 0.48106 0.0
C247 C 0.45467 0.58575 0.48396 0.0
C248 C 0.47925 0.5991 0.49857 0.0
C249 C 0.5072 0.58828 0.51034 0.0
C250 C 0.51063 0.56491 0.50737 0.0
H251 H 0.43861 0.5059 0.55535 0.0
H252 H 0.45461 0.53416 0.55262 0.0
H253 H 0.42583 0.52483 0.51955 0.0
H254 H 0.43911 0.55227 0.46931 0.0
H255 H 0.43292 0.59347 0.47449 0.0
H256 H 0.96412 0.19196 0.08288 0.0
H257 H 0.95611 0.19803 0.14887 0.0
H258 H 0.05613 0.1896 0.16779 0.0
H259 H 0.06454 0.18386 0.10207 0.0
H260 H 0.97034 0.16556 0.2009 0.0
H261 H 0.03585 0.24464 0.23108 0.0
H262 H 0.0245 0.23656 0.18491 0.0
H263 H 0.05883 0.22422 0.20619 0.0
C264 C 0.98452 0.19181 0.10094 0.0
C265 C 0.01495 0.18726 0.08713 0.0
C266 C 0.97988 0.19531 0.13865 0.0
C267 C 0.00557 0.19452 0.16312 0.0
C268 C 0.03607 0.19076 0.1493 0.0
H269 H 0.0342 0.17833 0.3964 0.0
H270 H 0.03959 0.18483 0.33003 0.0
C271 C 0.04076 0.18727 0.11167 0.0
C272 C 1.00017 0.19505 0.20338 0.0
H273 H 0.02238 0.22147 0.28297 0.0
C274 C 0.98134 0.17797 0.21883 0.0
C275 C 0.01484 0.21114 0.22663 0.0
C276 C 0.0344 0.23031 0.21136 0.0
C277 C 0.97753 0.17609 0.25705 0.0
C278 C 0.99248 0.19202 0.28037 0.0
C279 C 0.01098 0.20931 0.26495 0.0
C280 C 0.98964 0.19052 0.3209 0.0
C281 C 0.95848 0.15657 0.27216 0.0
C282 C 0.95993 0.19229 0.33776 0.0
C283 C 0.95672 0.18842 0.37549 0.0
C284 C 0.98326 0.18295 0.39716 0.0
C285 C 0.01329 0.18241 0.38049 0.0
C286 C 0.01643 0.18615 0.34261 0.0
H287 H 0.95515 0.14298 0.25137 0.0
H288 H 0.97009 0.1492 0.29684 0.0
H289 H 0.93473 0.16273 0.28042 0.0
H290 H 0.93909 0.19613 0.32155 0.0
H291 H 0.9333 0.18933 0.38752 0.0
H292 H 0.96119 0.81549 0.40876 0.0
H293 H 0.95227 0.80851 0.34311 0.0
H294 H 0.05265 0.81294 0.32317 0.0
H295 H 0.06193 0.81962 0.38851 0.0
H296 H 0.96905 0.83938 0.28878 0.0
H297 H 0.02753 0.75698 0.26384 0.0
H298 H 0.01676 0.76658 0.3094 0.0
H299 H 0.05214 0.77696 0.28765 0.0
C300 C 0.98143 0.81458 0.39055 0.0
C301 C 0.01226 0.81825 0.40394 0.0
C302 C 0.97627 0.81058 0.35306 0.0
C303 C 0.00183 0.80992 0.32842 0.0
C304 C 0.03266 0.81289 0.34183 0.0
H305 H 0.03367 0.82003 0.09565 0.0
H306 H 0.03738 0.81397 0.16225 0.0
C307 C 0.03786 0.81693 0.37922 0.0
C308 C 0.9962 0.80862 0.28825 0.0
H309 H 0.01616 0.77946 0.21049 0.0
C310 C 0.97891 0.8261 0.27168 0.0
C311 C 0.0094 0.79138 0.26611 0.0
C312 C 0.02726 0.77179 0.28266 0.0
C313 C 0.9754 0.82728 0.23334 0.0
C314 C 0.98897 0.81022 0.21108 0.0
C315 C 0.00578 0.79248 0.22768 0.0
C316 C 0.98683 0.8111 0.17044 0.0
C317 C 0.95829 0.8473 0.21693 0.0
C318 C 0.95727 0.81066 0.15295 0.0
C319 C 0.95503 0.8143 0.11506 0.0
C320 C 0.98239 0.81817 0.09389 0.0
C321 C 0.01215 0.81719 0.11117 0.0
C322 C 0.01432 0.81372 0.1492 0.0
H323 H 0.95605 0.86143 0.23695 0.0
H324 H 0.97075 0.85364 0.19205 0.0
H325 H 0.93409 0.84207 0.20865 0.0
H326 H 0.93583 0.80815 0.1688 0.0
H327 H 0.93176 0.81458 0.10251 0.0
H328 H 0.99549 0.82719 0.58696 0.0
H329 H 0.97808 0.82919 0.65129 0.0
H330 H 0.07097 0.85203 0.68372 0.0
H331 H 0.08836 0.85047 0.61957 0.0
H332 H 0.00258 0.80599 0.71141 0.0
H333 H 0.01296 0.89875 0.73133 0.0
H334 H 0.01333 0.88576 0.68631 0.0
H335 H 0.04837 0.88563 0.71443 0.0
C336 C 0.01211 0.83277 0.60779 0.0
C337 C 0.04323 0.83875 0.59829 0.0
C338 C 0.00216 0.83389 0.64446 0.0
C339 C 0.02313 0.84107 0.67211 0.0
C340 C 0.05424 0.84693 0.66268 0.0
H341 H 0.00485 0.8214 0.90875 0.0
H342 H 0.02344 0.82191 0.84469 0.0
C343 C 0.06416 0.8459 0.62605 0.0
C344 C 0.01281 0.84167 0.71102 0.0
H345 H 0.0039 0.87666 0.7851 0.0
C346 C 0.00279 0.82144 0.72752 0.0
C347 C 0.01293 0.8619 0.7318 0.0
C348 C 0.02219 0.8843 0.71503 0.0
C349 C 0.99323 0.82085 0.7645 0.0
C350 C 0.99408 0.84096 0.78547 0.0
C351 C 0.0037 0.86124 0.76891 0.0
C352 C 0.98382 0.84138 0.82431 0.0
C353 C 0.98177 0.79884 0.78079 0.0
C354 C 0.95582 0.85257 0.8339 0.0
C355 C 0.94514 0.85225 0.87026 0.0
C356 C 0.96246 0.84089 0.89765 0.0
C357 C 0.991 0.83022 0.88816 0.0
C358 C 0.00157 0.83043 0.85166 0.0
H359 H 0.97745 0.78582 0.75931 0.0
H360 H 0.99986 0.79226 0.80019 0.0
H361 H 0.95957 0.80151 0.79656 0.0
H362 H 0.94192 0.86117 0.8131 0.0
H363 H 0.92314 0.86071 0.87682 0.0
H364 H 0.0878 0.15811 0.86887 0.0
H365 H 0.06957 0.15731 0.80498 0.0
H366 H 0.97477 0.17285 0.84093 0.0
H367 H 0.99309 0.17437 0.90494 0.0
H368 H 0.02604 0.13104 0.77095 0.0
H369 H 0.98965 0.22109 0.76403 0.0
H370 H 0.01274 0.20992 0.80168 0.0
H371 H 0.97061 0.20558 0.80029 0.0
C372 C 0.06307 0.1614 0.86316 0.0
C373 C 0.04188 0.16651 0.89179 0.0
C374 C 0.0527 0.16091 0.82667 0.0
C375 C 0.02096 0.16544 0.81817 0.0
C376 C 0.99954 0.1699 0.84682 0.0
H377 H 0.91405 0.15356 0.61661 0.0
H378 H 0.93325 0.15258 0.68023 0.0
C379 C 0.00998 0.17063 0.88336 0.0
C380 C 0.01041 0.16534 0.77927 0.0
H381 H 0.97584 0.19797 0.71287 0.0
C382 C 0.01517 0.1457 0.75823 0.0
C383 C 0.99649 0.18458 0.76265 0.0
C384 C 0.99233 0.20656 0.78319 0.0
C385 C 0.0059 0.1447 0.72115 0.0
C386 C 0.99149 0.16374 0.70495 0.0
C387 C 0.98686 0.1834 0.72572 0.0
C388 C 0.98062 0.16345 0.66643 0.0
C389 C 0.01133 0.12336 0.69934 0.0
C390 C 0.00111 0.16983 0.63791 0.0
C391 C 0.99024 0.17047 0.60154 0.0
C392 C 0.95873 0.16474 0.59337 0.0
C393 C 0.93845 0.15806 0.62208 0.0
C394 C 0.94931 0.15749 0.65838 0.0
H395 H 0.02271 0.1099 0.71608 0.0
H396 H 0.98841 0.11692 0.68863 0.0
H397 H 0.0266 0.12712 0.67521 0.0
H398 H 0.02537 0.17451 0.64387 0.0
H399 H 0.00638 0.17562 0.57993 0.0
H400 H 0.5653 0.68307 0.10313 0.0
H401 H 0.55692 0.68988 0.16872 0.0
H402 H 0.45738 0.70019 0.14898 0.0
H403 H 0.4653 0.69311 0.08325 0.0
H404 H 0.52903 0.72664 0.20971 0.0
H405 H 0.46189 0.64596 0.2211 0.0
H406 H 0.4857 0.65284 0.18138 0.0
H407 H 0.44746 0.66557 0.18723 0.0
C408 C 0.54161 0.68699 0.11256 0.0
C409 C 0.51586 0.68717 0.08792 0.0
C410 C 0.53694 0.69097 0.15006 0.0
C411 C 0.5065 0.69518 0.16363 0.0
C412 C 0.481 0.69662 0.13898 0.0
H413 H 0.43481 0.69184 0.38705 0.0
H414 H 0.4406 0.69875 0.32114 0.0
C415 C 0.48561 0.69261 0.10143 0.0
C416 C 0.50119 0.69635 0.20381 0.0
H417 H 0.46708 0.66767 0.27496 0.0
C418 C 0.51535 0.71386 0.22407 0.0
C419 C 0.48351 0.67952 0.2223 0.0
C420 C 0.46895 0.65978 0.20205 0.0
C421 C 0.51208 0.71506 0.26254 0.0
C422 C 0.49465 0.69808 0.28103 0.0
C423 C 0.48026 0.68074 0.26064 0.0
C424 C 0.49174 0.6973 0.32163 0.0
C425 C 0.52706 0.73452 0.28298 0.0
C426 C 0.51865 0.69457 0.34387 0.0
C427 C 0.51546 0.69066 0.38168 0.0
C428 C 0.48525 0.68912 0.39775 0.0
C429 C 0.45842 0.69272 0.37555 0.0
C430 C 0.46166 0.69674 0.33787 0.0
H431 H 0.53153 0.74914 0.26447 0.0
H432 H 0.51188 0.74016 0.30619 0.0
H433 H 0.55013 0.729 0.29447 0.0
H434 H 0.54206 0.69445 0.33175 0.0
H435 H 0.53658 0.68787 0.39796 0.0
H436 H 0.56819 0.31126 0.39156 0.0
H437 H 0.56445 0.30338 0.32563 0.0
H438 H 0.46301 0.31038 0.33077 0.0
H439 H 0.46638 0.3178 0.39697 0.0
H440 H 0.48298 0.27533 0.28392 0.0
H441 H 0.54672 0.35573 0.25537 0.0
H442 H 0.56787 0.33625 0.2842 0.0
H443 H 0.53169 0.34871 0.30045 0.0
C444 C 0.54502 0.31088 0.37879 0.0
C445 C 0.5176 0.31551 0.39941 0.0
C446 C 0.54296 0.30642 0.3411 0.0
C447 C 0.51354 0.30682 0.32325 0.0
C448 C 0.48596 0.31013 0.34407 0.0
H449 H 0.43932 0.31648 0.10516 0.0
H450 H 0.44802 0.30906 0.17047 0.0
C451 C 0.48795 0.31438 0.38188 0.0
C452 C 0.51164 0.30545 0.2826 0.0
H453 H 0.53283 0.33345 0.20419 0.0
C454 C 0.494 0.28794 0.26642 0.0
C455 C 0.52596 0.32201 0.25991 0.0
C456 C 0.54389 0.34186 0.27577 0.0
C457 C 0.49024 0.2866 0.22802 0.0
C458 C 0.50423 0.30334 0.20546 0.0
C459 C 0.52237 0.32055 0.22161 0.0
C460 C 0.4986 0.30449 0.16527 0.0
C461 C 0.47136 0.26734 0.21191 0.0
C462 C 0.52419 0.30436 0.14067 0.0
C463 C 0.51937 0.30877 0.10325 0.0
C464 C 0.48887 0.31364 0.08987 0.0
C465 C 0.46315 0.31289 0.11447 0.0
C466 C 0.468 0.30843 0.15182 0.0
H467 H 0.47018 0.25275 0.23113 0.0
H468 H 0.44682 0.27314 0.20659 0.0
H469 H 0.48167 0.26159 0.18538 0.0
H470 H 0.54802 0.30152 0.15064 0.0
H471 H 0.53972 0.30918 0.08514 0.0
H472 H 0.43159 0.36898 0.88303 0.0
H473 H 0.44831 0.37095 0.81862 0.0
H474 H 0.50983 0.31368 0.83568 0.0
H475 H 0.49448 0.31253 0.9007 0.0
H476 H 0.53828 0.34308 0.79501 0.0
H477 H 0.41802 0.33141 0.73782 0.0
H478 H 0.42025 0.35598 0.76655 0.0
H479 H 0.42638 0.32835 0.78626 0.0
C480 C 0.44875 0.35687 0.87298 0.0
C481 C 0.46158 0.34048 0.89661 0.0
C482 C 0.45806 0.35787 0.83611 0.0
C483 C 0.47959 0.34203 0.82196 0.0
C484 C 0.49298 0.32597 0.84587 0.0
H485 H 0.50446 0.31454 0.58874 0.0
H486 H 0.48815 0.31476 0.65346 0.0
C487 C 0.48423 0.32531 0.88297 0.0
C488 C 0.48848 0.34232 0.78241 0.0
H489 H 0.45802 0.3426 0.69526 0.0
C490 C 0.52072 0.34282 0.7732 0.0
C491 C 0.4656 0.34158 0.75389 0.0
C492 C 0.43067 0.33905 0.76162 0.0
C493 C 0.53074 0.34275 0.73637 0.0
C494 C 0.50783 0.34325 0.70786 0.0
C495 C 0.47559 0.34256 0.71707 0.0
C496 C 0.51676 0.3438 0.66832 0.0
C497 C 0.56579 0.34143 0.72859 0.0
C498 C 0.53754 0.36039 0.65486 0.0
C499 C 0.54743 0.35992 0.61817 0.0
C500 C 0.53586 0.34332 0.59403 0.0
C501 C 0.51371 0.3275 0.60688 0.0
C502 C 0.50442 0.32762 0.64382 0.0
H503 H 0.57888 0.33386 0.7521 0.0
H504 H 0.5707 0.33124 0.70356 0.0
H505 H 0.57522 0.35875 0.72432 0.0
H506 H 0.54643 0.37357 0.67281 0.0
H507 H 0.56419 0.37252 0.60871 0.0
H508 H 0.57095 0.63604 0.87794 0.0
H509 H 0.55281 0.63488 0.81394 0.0
H510 H 0.49118 0.69159 0.83492 0.0
H511 H 0.50787 0.69185 0.8995 0.0
H512 H 0.46211 0.66299 0.79388 0.0
H513 H 0.58116 0.67559 0.73398 0.0
H514 H 0.57953 0.65053 0.76164 0.0
H515 H 0.57384 0.67781 0.78276 0.0
C516 C 0.55346 0.64819 0.86881 0.0
C517 C 0.54096 0.66416 0.89339 0.0
C518 C 0.54333 0.64766 0.8322 0.0
C519 C 0.52136 0.6636 0.81927 0.0
C520 C 0.50834 0.67923 0.84415 0.0
H521 H 0.49319 0.69437 0.58767 0.0
H522 H 0.50988 0.6935 0.65227 0.0
C523 C 0.51787 0.67939 0.881 0.0
C524 C 0.51165 0.6639 0.77998 0.0
H525 H 0.54029 0.6651 0.69208 0.0
C526 C 0.47922 0.66361 0.77162 0.0
C527 C 0.53393 0.66514 0.7509 0.0
C528 C 0.56902 0.66754 0.75777 0.0
C529 C 0.46843 0.66438 0.7351 0.0
C530 C 0.49075 0.66436 0.70598 0.0
C531 C 0.52317 0.6648 0.71435 0.0
C532 C 0.48105 0.66449 0.66668 0.0
C533 C 0.43324 0.66595 0.72836 0.0
C534 C 0.45985 0.64821 0.65305 0.0
C535 C 0.44969 0.64909 0.61647 0.0
C536 C 0.46144 0.66576 0.59259 0.0
C537 C 0.48381 0.68136 0.60564 0.0
C538 C 0.49332 0.68086 0.64249 0.0
H539 H 0.42073 0.67325 0.75251 0.0
H540 H 0.42786 0.6765 0.70385 0.0
H541 H 0.42357 0.64873 0.72374 0.0
H542 H 0.45099 0.63489 0.67071 0.0
H543 H 0.43278 0.63665 0.60681 0.0
H544 H 0.3833 0.27566 0.01298 0.0
H545 H 0.33462 0.25429 0.02222 0.0
H546 H 0.28355 0.31632 0.04051 0.0
H547 H 0.33269 0.33807 0.03132 0.0
H548 H 0.28855 0.25355 0.08325 0.0
H549 H 0.24058 0.28439 0.94939 0.0
H550 H 0.28201 0.28653 0.96098 0.0
H551 H 0.25398 0.30538 0.98172 0.0
C552 C 0.36181 0.28483 0.01932 0.0
C553 C 0.36175 0.3086 0.02104 0.0
C554 C 0.33403 0.27254 0.02477 0.0
C555 C 0.30547 0.2837 0.0317 0.0
C556 C 0.3054 0.30741 0.03491 0.0
H557 H 0.11478 0.23102 0.01633 0.0
H558 H 0.16115 0.2545 0.02734 0.0
C559 C 0.33343 0.3198 0.02979 0.0
C560 C 0.27571 0.27038 0.03283 0.0
H561 H 0.20991 0.25818 0.98209 0.0
C562 C 0.27113 0.25467 0.06137 0.0
C563 C 0.25327 0.27174 0.00405 0.0
C564 C 0.25759 0.28778 0.97208 0.0
C565 C 0.2445 0.24036 0.062 0.0
C566 C 0.22231 0.24143 0.0328 0.0
C567 C 0.22687 0.25733 0.00449 0.0
C568 C 0.19394 0.22652 0.03081 0.0
C569 C 0.24018 0.22449 0.09415 0.0
C570 C 0.19667 0.2028 0.02982 0.0
C571 C 0.16987 0.18918 0.02392 0.0
C572 C 0.14012 0.19915 0.01822 0.0
C573 C 0.13742 0.22281 0.0203 0.0
C574 C 0.16395 0.2363 0.02663 0.0
H575 H 0.25367 0.23026 0.1187 0.0
H576 H 0.21483 0.22292 0.10176 0.0
H577 H 0.24905 0.2075 0.08644 0.0
H578 H 0.21963 0.19484 0.03219 0.0
H579 H 0.17266 0.17102 0.02219 0.0
H580 H 0.67113 0.6679 0.02988 0.0
H581 H 0.719 0.69077 0.04077 0.0
H582 H 0.66636 0.75141 0.01679 0.0
H583 H 0.61899 0.72898 0.00605 0.0
H584 H 0.74644 0.71979 0.98656 0.0
H585 H 0.71399 0.76823 0.11164 0.0
H586 H 0.69394 0.74251 0.09827 0.0
H587 H 0.68438 0.76883 0.07615 0.0
C588 C 0.66975 0.68612 0.02753 0.0
C589 C 0.64132 0.6966 0.017 0.0
C590 C 0.69704 0.69916 0.03373 0.0
C591 C 0.6961 0.72284 0.03013 0.0
C592 C 0.66753 0.73326 0.02051 0.0
H593 H 0.82657 0.83608 0.01456 0.0
H594 H 0.77977 0.81165 0.02246 0.0
C595 C 0.64049 0.72032 0.01405 0.0
C596 C 0.72532 0.73671 0.03283 0.0
H597 H 0.75762 0.78246 0.07657 0.0
C598 C 0.74914 0.73327 0.00658 0.0
C599 C 0.7285 0.75455 0.05859 0.0
C600 C 0.70397 0.75868 0.08799 0.0
C601 C 0.7756 0.74759 0.00457 0.0
C602 C 0.77882 0.76551 0.03026 0.0
C603 C 0.75516 0.76878 0.05688 0.0
C604 C 0.80674 0.78085 0.02978 0.0
C605 C 0.79919 0.74387 0.97392 0.0
C606 C 0.83729 0.77186 0.03287 0.0
C607 C 0.86374 0.78562 0.02781 0.0
C608 C 0.8603 0.80882 0.0205 0.0
C609 C 0.82983 0.81825 0.02012 0.0
C610 C 0.80316 0.8043 0.02457 0.0
H611 H 0.78871 0.7341 0.95077 0.0
H612 H 0.8082 0.76018 0.96298 0.0
H613 H 0.81955 0.73406 0.98472 0.0
H614 H 0.84071 0.754 0.03809 0.0
H615 H 0.887 0.77797 0.02889 0.0
H616 H 0.17036 0.83661 0.46246 0.0
H617 H 0.21847 0.81416 0.45151 0.0
H618 H 0.16446 0.75275 0.46384 0.0
H619 H 0.11677 0.77484 0.47487 0.0
H620 H 0.24137 0.78221 0.50566 0.0
H621 H 0.21898 0.74081 0.37089 0.0
H622 H 0.19869 0.76621 0.38522 0.0
H623 H 0.18675 0.73919 0.40306 0.0
C624 C 0.16872 0.81834 0.46209 0.0
C625 C 0.13987 0.80749 0.4697 0.0
C626 C 0.19615 0.80555 0.45588 0.0
C627 C 0.19492 0.78179 0.45644 0.0
C628 C 0.16587 0.77102 0.46262 0.0
H629 H 0.32835 0.66988 0.46816 0.0
H630 H 0.28089 0.6935 0.45975 0.0
C631 C 0.13867 0.78372 0.46922 0.0
C632 C 0.22427 0.7681 0.45478 0.0
H633 H 0.26091 0.72562 0.40732 0.0
C634 C 0.24589 0.77005 0.48391 0.0
C635 C 0.22973 0.75195 0.42675 0.0
C636 C 0.20747 0.74946 0.39451 0.0
C637 C 0.27246 0.75594 0.4863 0.0
C638 C 0.27812 0.73984 0.45815 0.0
C639 C 0.25658 0.73796 0.42884 0.0
C640 C 0.30664 0.72517 0.45875 0.0
C641 C 0.29364 0.75794 0.51968 0.0
C642 C 0.33679 0.73504 0.45941 0.0
C643 C 0.36359 0.72172 0.46468 0.0
C644 C 0.36095 0.69815 0.46861 0.0
C645 C 0.33101 0.68801 0.46532 0.0
C646 C 0.30396 0.70148 0.46055 0.0
H647 H 0.28123 0.76606 0.54319 0.0
H648 H 0.3023 0.74111 0.5287 0.0
H649 H 0.31442 0.76859 0.51268 0.0
H650 H 0.33954 0.75319 0.45698 0.0
H651 H 0.38643 0.72998 0.46644 0.0
H652 H 0.61919 0.27755 0.48834 0.0
H653 H 0.66739 0.25586 0.47828 0.0
H654 H 0.71762 0.31709 0.45108 0.0
H655 H 0.66897 0.33916 0.46103 0.0
H656 H 0.70964 0.25393 0.4127 0.0
H657 H 0.76582 0.28688 0.54088 0.0
H658 H 0.72371 0.28861 0.53298 0.0
H659 H 0.75007 0.30718 0.5088 0.0
C660 C 0.64039 0.28649 0.48003 0.0
C661 C 0.64034 0.31014 0.47581 0.0
C662 C 0.66789 0.274 0.47411 0.0
C663 C 0.69606 0.28487 0.46418 0.0
C664 C 0.69607 0.30842 0.45896 0.0
H665 H 0.88615 0.23012 0.46907 0.0
H666 H 0.84018 0.25429 0.45995 0.0
C667 C 0.66833 0.32099 0.46459 0.0
C668 C 0.72552 0.27141 0.46135 0.0
H669 H 0.79385 0.25958 0.50747 0.0
C670 C 0.72827 0.25526 0.43316 0.0
C671 C 0.74958 0.27312 0.48823 0.0
C672 C 0.7473 0.28975 0.51965 0.0
C673 C 0.75461 0.2408 0.43108 0.0
C674 C 0.77837 0.24213 0.45852 0.0
C675 C 0.77568 0.25852 0.48641 0.0
C676 C 0.80631 0.22683 0.45927 0.0
C677 C 0.75688 0.22447 0.39927 0.0
C678 C 0.80279 0.20318 0.46117 0.0
C679 C 0.8293 0.1892 0.4659 0.0
C680 C 0.8596 0.19871 0.46957 0.0
C681 C 0.86307 0.22228 0.46661 0.0
C682 C 0.83678 0.23615 0.46139 0.0
H683 H 0.74253 0.2302 0.37537 0.0
H684 H 0.78178 0.2223 0.39018 0.0
H685 H 0.74766 0.20775 0.40807 0.0
H686 H 0.77949 0.19558 0.46046 0.0
H687 H 0.82594 0.17111 0.46839 0.0
loop_
_geom_bond_atom_site_label_1
_geom_bond_atom_site_label_2
_geom_bond_distance
_geom_bond_site_symmetry_2
_ccdc_geom_bond_type
Co0 O1 2.216 . S
Co0 O2 2.091 1_556 S
Co0 O4 2.004 . S
Co0 O10 2.021 1_556 S
Co0 O12 2.137 . S
Co0 O13 2.244 . S
O1 Co0 2.216 . S
O1 C8 1.244 1_556 S
O2 Co0 2.091 1_554 S
O2 C8 1.262 . S
C3 O12 1.247 . S
C3 O13 1.272 . S
O4 Co0 2.004 . S
O4 C9 1.263 . S
Co5 O6 2.062 1_655 S
Co5 O11 2.055 . S
Co5 O13 2.133 1_654 S
O6 Co5 2.062 1_455 S
O6 C9 1.232 1_554 S
C7 O10 1.238 . S
C7 O11 1.241 1_455 S
C8 O1 1.244 1_554 S
C8 O2 1.262 . S
C9 O4 1.263 . S
C9 O6 1.232 1_556 S
O10 Co0 2.021 1_554 S
O10 C7 1.238 . S
O11 Co5 2.055 . S
O11 C7 1.241 1_655 S
O12 Co0 2.137 . S
O12 C3 1.247 . S
O13 Co0 2.244 . S
O13 C3 1.272 . S
O13 Co5 2.133 1_456 S
Co14 O15 2.216 . S
Co14 O16 2.091 1_556 S
Co14 O18 2.004 . S
Co14 O24 2.021 1_556 S
Co14 O26 2.137 . S
Co14 O27 2.244 . S
O15 Co14 2.216 . S
O15 C22 1.244 1_556 S
O16 Co14 2.091 1_554 S
O16 C22 1.262 . S
C17 O26 1.247 . S
C17 O27 1.272 . S
O18 Co14 2.004 . S
O18 C23 1.263 . S
Co19 O20 2.062 1_455 S
Co19 O25 2.055 . S
Co19 O27 2.133 1_454 S
O20 Co19 2.062 1_655 S
O20 C23 1.232 1_554 S
C21 O24 1.238 . S
C21 O25 1.241 1_655 S
C22 O15 1.244 1_554 S
C22 O16 1.262 . S
C23 O18 1.263 . S
C23 O20 1.232 1_556 S
O24 Co14 2.021 1_554 S
O24 C21 1.238 . S
O25 Co19 2.055 . S
O25 C21 1.241 1_455 S
O26 Co14 2.137 . S
O26 C17 1.247 . S
O27 Co14 2.244 . S
O27 C17 1.272 . S
O27 Co19 2.133 1_656 S
Co28 O29 2.216 . S
Co28 O30 2.091 . S
Co28 O32 2.004 . S
Co28 O38 2.021 . S
Co28 O40 2.137 . S
Co28 O41 2.244 . S
O29 Co28 2.216 . S
O29 C36 1.247 . S
O30 Co28 2.091 . S
O30 C36 1.261 . S
C31 O40 1.247 . S
C31 O41 1.272 . S
O32 Co28 2.004 . S
O32 C37 1.259 . S
Co33 O34 2.061 1_655 S
Co33 O39 2.052 . S
Co33 O41 2.135 1_655 S
O34 Co33 2.061 1_455 S
O34 C37 1.235 . S
C35 O38 1.238 . S
C35 O39 1.241 1_455 S
C36 O29 1.247 . S
C36 O30 1.261 . S
C37 O32 1.259 . S
C37 O34 1.235 . S
O38 Co28 2.021 . S
O38 C35 1.238 . S
O39 Co33 2.052 . S
O39 C35 1.241 1_655 S
O40 Co28 2.137 . S
O40 C31 1.247 . S
O41 Co28 2.244 . S
O41 C31 1.272 . S
O41 Co33 2.135 1_455 S
Co42 O43 2.216 . S
Co42 O44 2.091 . S
Co42 O46 2.004 . S
Co42 O52 2.021 . S
Co42 O54 2.137 . S
Co42 O55 2.244 . S
O43 Co42 2.216 . S
O43 C50 1.247 . S
O44 Co42 2.091 . S
O44 C50 1.261 . S
C45 O54 1.247 . S
C45 O55 1.272 . S
O46 Co42 2.004 . S
O46 C51 1.259 . S
Co47 O48 2.061 1_455 S
Co47 O53 2.052 . S
Co47 O55 2.135 1_455 S
O48 Co47 2.061 1_655 S
O48 C51 1.235 . S
C49 O52 1.238 . S
C49 O53 1.241 1_655 S
C50 O43 1.247 . S
C50 O44 1.261 . S
C51 O46 1.259 . S
C51 O48 1.235 . S
O52 Co42 2.021 . S
O52 C49 1.238 . S
O53 Co47 2.052 . S
O53 C49 1.241 1_455 S
O54 Co42 2.137 . S
O54 C45 1.247 . S
O55 Co42 2.244 . S
O55 C45 1.272 . S
O55 Co47 2.135 1_655 S
Co56 O57 2.216 . S
Co56 O58 2.091 1_556 S
Co56 O60 2.004 . S
Co56 O66 2.021 1_556 S
Co56 O68 2.137 . S
Co56 O69 2.244 . S
O57 Co56 2.216 . S
O57 C64 1.244 1_556 S
O58 Co56 2.091 1_554 S
O58 C64 1.262 . S
C59 O68 1.247 . S
C59 O69 1.272 . S
O60 Co56 2.004 . S
O60 C65 1.263 . S
Co61 O62 2.062 . S
Co61 O67 2.055 . S
Co61 O69 2.133 1_554 S
O62 Co61 2.062 . S
O62 C65 1.232 1_554 S
C63 O66 1.238 . S
C63 O67 1.241 . S
C64 O57 1.244 1_554 S
C64 O58 1.262 . S
C65 O60 1.263 . S
C65 O62 1.232 1_556 S
O66 Co56 2.021 1_554 S
O66 C63 1.238 . S
O67 Co61 2.055 . S
O67 C63 1.241 . S
O68 Co56 2.137 . S
O68 C59 1.247 . S
O69 Co56 2.244 . S
O69 C59 1.272 . S
O69 Co61 2.133 1_556 S
Co70 O71 2.216 . S
Co70 O72 2.091 1_556 S
Co70 O74 2.004 . S
Co70 O80 2.021 1_556 S
Co70 O82 2.137 . S
Co70 O83 2.244 . S
O71 Co70 2.216 . S
O71 C78 1.244 1_556 S
O72 Co70 2.091 1_554 S
O72 C78 1.262 . S
C73 O82 1.247 . S
C73 O83 1.272 . S
O74 Co70 2.004 . S
O74 C79 1.263 . S
Co75 O76 2.062 . S
Co75 O81 2.055 . S
Co75 O83 2.133 1_554 S
O76 Co75 2.062 . S
O76 C79 1.232 1_554 S
C77 O80 1.238 . S
C77 O81 1.241 . S
C78 O71 1.244 1_554 S
C78 O72 1.262 . S
C79 O74 1.263 . S
C79 O76 1.232 1_556 S
O80 Co70 2.021 1_554 S
O80 C77 1.238 . S
O81 Co75 2.055 . S
O81 C77 1.241 . S
O82 Co70 2.137 . S
O82 C73 1.247 . S
O83 Co70 2.244 . S
O83 C73 1.272 . S
O83 Co75 2.133 1_556 S
Co84 O85 2.216 . S
Co84 O86 2.091 . S
Co84 O88 2.004 . S
Co84 O94 2.021 . S
Co84 O96 2.137 . S
Co84 O97 2.244 . S
O85 Co84 2.216 . S
O85 C92 1.247 . S
O86 Co84 2.091 . S
O86 C92 1.261 . S
C87 O96 1.247 . S
C87 O97 1.272 . S
O88 Co84 2.004 . S
O88 C93 1.259 . S
Co89 O90 2.061 . S
Co89 O95 2.052 . S
Co89 O97 2.135 . S
O90 Co89 2.061 . S
O90 C93 1.235 . S
C91 O94 1.238 . S
C91 O95 1.241 . S
C92 O85 1.247 . S
C92 O86 1.261 . S
C93 O88 1.259 . S
C93 O90 1.235 . S
O94 Co84 2.021 . S
O94 C91 1.238 . S
O95 Co89 2.052 . S
O95 C91 1.241 . S
O96 Co84 2.137 . S
O96 C87 1.247 . S
O97 Co84 2.244 . S
O97 C87 1.272 . S
O97 Co89 2.135 . S
Co98 O99 2.216 . S
Co98 O100 2.091 . S
Co98 O102 2.004 . S
Co98 O108 2.021 . S
Co98 O110 2.137 . S
Co98 O111 2.244 . S
O99 Co98 2.216 . S
O99 C106 1.247 . S
O100 Co98 2.091 . S
O100 C106 1.261 . S
C101 O110 1.247 . S
C101 O111 1.272 . S
O102 Co98 2.004 . S
O102 C107 1.259 . S
Co103 O104 2.061 . S
Co103 O109 2.052 . S
Co103 O111 2.135 . S
O104 Co103 2.061 . S
O104 C107 1.235 . S
C105 O108 1.238 . S
C105 O109 1.241 . S
C106 O99 1.247 . S
C106 O100 1.261 . S
C107 O102 1.259 . S
C107 O104 1.235 . S
O108 Co98 2.021 . S
O108 C105 1.238 . S
O109 Co103 2.052 . S
O109 C105 1.241 . S
O110 Co98 2.137 . S
O110 C101 1.247 . S
O111 Co98 2.244 . S
O111 C101 1.272 . S
O111 Co103 2.135 . S
H112 C120 0.929 1_455 S
H113 C122 0.930 . S
H114 C124 0.930 . S
H115 C127 0.929 . S
H116 C130 0.930 . S
H117 C132 0.960 . S
H118 C132 0.960 . S
H119 C132 0.960 . S
C120 H112 0.929 1_655 S
C120 C121 1.383 . S
C120 C122 1.384 1_655 S
C121 C120 1.383 . S
C121 C127 1.385 1_554 S
C122 H113 0.930 . S
C122 C120 1.384 1_455 S
C122 C123 1.372 1_455 S
C123 C122 1.372 1_655 S
C123 C124 1.400 1_554 S
C123 C128 1.490 . S
C124 H114 0.930 . S
C124 C123 1.400 1_556 S
C124 C127 1.386 . S
H125 C141 0.930 1_655 S
H126 C142 0.931 . S
C127 H115 0.929 . S
C127 C121 1.385 1_556 S
C127 C124 1.386 . S
C128 C123 1.490 . S
C128 C130 1.393 1_654 S
C128 C131 1.404 . S
H129 C135 0.930 . S
C130 H116 0.930 . S
C130 C128 1.393 1_456 S
C130 C133 1.403 1_565 S
C131 C128 1.404 . S
C131 C132 1.524 . S
C131 C135 1.400 1_565 S
C132 H117 0.960 . S
C132 H118 0.960 . S
C132 H119 0.960 . S
C132 C131 1.524 . S
C133 C130 1.403 1_545 S
C133 C134 1.392 . S
C133 C137 1.495 . S
C134 C133 1.392 . S
C134 C135 1.385 1_456 S
C134 C136 1.478 . S
C135 H129 0.930 . S
C135 C131 1.400 1_545 S
C135 C134 1.385 1_654 S
C136 C134 1.478 . S
C136 C138 1.381 1_556 S
C136 C142 1.383 1_455 S
C137 C133 1.495 . S
C137 H143 0.953 1_545 S
C137 H144 0.961 . S
C137 H145 0.960 . S
C138 C136 1.381 1_554 S
C138 C139 1.394 . S
C138 H146 0.930 . S
C139 C138 1.394 . S
C139 C140 1.383 1_554 S
C139 H147 0.929 . S
C140 C139 1.383 1_556 S
C140 C141 1.377 . S
C141 H125 0.930 1_455 S
C141 C140 1.377 . S
C141 C142 1.379 1_455 S
C142 H126 0.931 . S
C142 C136 1.383 1_655 S
C142 C141 1.379 1_655 S
H143 C137 0.953 1_565 S
H144 C137 0.961 . S
H145 C137 0.960 . S
H146 C138 0.930 . S
H147 C139 0.929 . S
H148 C156 0.929 . S
H149 C158 0.930 . S
H150 C160 0.930 . S
H151 C163 0.929 . S
H152 C166 0.930 . S
H153 C168 0.960 . S
H154 C168 0.960 . S
H155 C168 0.960 . S
C156 H148 0.929 . S
C156 C157 1.377 . S
C156 C158 1.384 . S
C157 C156 1.377 . S
C157 C163 1.390 . S
C158 H149 0.930 . S
C158 C156 1.384 . S
C158 C159 1.372 . S
C159 C158 1.372 . S
C159 C160 1.400 . S
C159 C164 1.490 . S
C160 H150 0.930 . S
C160 C159 1.400 . S
C160 C163 1.386 . S
H161 C177 0.930 . S
H162 C178 0.931 1_455 S
C163 H151 0.929 . S
C163 C157 1.390 . S
C163 C160 1.386 . S
C164 C159 1.490 . S
C164 C166 1.395 . S
C164 C167 1.403 1_455 S
H165 C171 0.930 . S
C166 H152 0.930 . S
C166 C164 1.395 . S
C166 C169 1.403 1_565 S
C167 C164 1.403 1_655 S
C167 C168 1.524 . S
C167 C171 1.400 1_565 S
C168 H153 0.960 . S
C168 H154 0.960 . S
C168 H155 0.960 . S
C168 C167 1.524 . S
C169 C166 1.403 1_545 S
C169 C170 1.392 1_455 S
C169 C173 1.495 . S
C170 C169 1.392 1_655 S
C170 C171 1.385 . S
C170 C172 1.478 . S
C171 H165 0.930 . S
C171 C167 1.400 1_545 S
C171 C170 1.385 . S
C172 C170 1.478 . S
C172 C174 1.381 . S
C172 C178 1.383 . S
C173 C169 1.495 . S
C173 H179 0.959 . S
C173 H180 0.961 . S
C173 H181 0.960 . S
C174 C172 1.381 . S
C174 C175 1.394 . S
C174 H182 0.930 . S
C175 C174 1.394 . S
C175 C176 1.383 . S
C175 H183 0.929 . S
C176 C175 1.383 . S
C176 C177 1.377 . S
C177 H161 0.930 . S
C177 C176 1.377 . S
C177 C178 1.379 . S
C178 H162 0.931 1_655 S
C178 C172 1.383 . S
C178 C177 1.379 . S
H179 C173 0.959 . S
H180 C173 0.961 . S
H181 C173 0.960 . S
H182 C174 0.930 . S
H183 C175 0.929 . S
H184 C192 0.929 . S
H185 C194 0.930 . S
H186 C196 0.930 . S
H187 C199 0.929 . S
H188 C202 0.930 . S
H189 C204 0.960 . S
H190 C204 0.960 . S
H191 C204 0.960 . S
C192 H184 0.929 . S
C192 C193 1.375 . S
C192 C194 1.384 . S
C193 C192 1.375 . S
C193 C199 1.392 1_556 S
C194 H185 0.930 . S
C194 C192 1.384 . S
C194 C195 1.372 . S
C195 C194 1.372 . S
C195 C196 1.400 1_556 S
C195 C200 1.490 . S
C196 H186 0.930 . S
C196 C195 1.400 1_554 S
C196 C199 1.386 . S
H197 C213 0.930 . S
H198 C214 0.931 . S
C199 H187 0.929 . S
C199 C193 1.392 1_554 S
C199 C196 1.386 . S
C200 C195 1.490 . S
C200 C202 1.395 . S
C200 C203 1.403 1_556 S
H201 C207 0.930 . S
C202 H188 0.930 . S
C202 C200 1.395 . S
C202 C205 1.403 . S
C203 C200 1.403 1_554 S
C203 C204 1.524 . S
C203 C207 1.400 . S
C204 H189 0.960 . S
C204 H190 0.960 . S
C204 H191 0.960 . S
C204 C203 1.524 . S
C205 C202 1.403 . S
C205 C206 1.392 . S
C205 C209 1.495 . S
C206 C205 1.392 . S
C206 C207 1.385 1_556 S
C206 C208 1.478 . S
C207 H201 0.930 . S
C207 C203 1.400 . S
C207 C206 1.385 1_554 S
C208 C206 1.478 . S
C208 C210 1.381 . S
C208 C214 1.383 1_556 S
C209 C205 1.495 . S
C209 H215 0.959 . S
C209 H216 0.961 . S
C209 H217 0.960 . S
C210 C208 1.381 . S
C210 C211 1.394 . S
C210 H218 0.930 . S
C211 C210 1.394 . S
C211 C212 1.383 . S
C211 H219 0.929 . S
C212 C211 1.383 . S
C212 C213 1.377 1_556 S
C213 H197 0.930 . S
C213 C212 1.377 1_554 S
C213 C214 1.379 . S
C214 H198 0.931 . S
C214 C208 1.383 1_554 S
C214 C213 1.379 . S
H215 C209 0.959 . S
H216 C209 0.961 . S
H217 C209 0.960 . S
H218 C210 0.930 . S
H219 C211 0.929 . S
H220 C228 0.929 . S
H221 C230 0.930 . S
H222 C232 0.930 . S
H223 C235 0.929 . S
H224 C238 0.930 . S
H225 C240 0.960 . S
H226 C240 0.960 . S
H227 C240 0.960 . S
C228 H220 0.929 . S
C228 C229 1.377 . S
C228 C230 1.384 . S
C229 C228 1.377 . S
C229 C235 1.390 . S
C230 H221 0.930 . S
C230 C228 1.384 . S
C230 C231 1.372 . S
C231 C230 1.372 . S
C231 C232 1.400 . S
C231 C236 1.490 . S
C232 H222 0.930 . S
C232 C231 1.400 . S
C232 C235 1.386 . S
H233 C249 0.930 . S
H234 C250 0.931 . S
C235 H223 0.929 . S
C235 C229 1.390 . S
C235 C232 1.386 . S
C236 C231 1.490 . S
C236 C238 1.395 . S
C236 C239 1.403 . S
H237 C243 0.930 . S
C238 H224 0.930 . S
C238 C236 1.395 . S
C238 C241 1.403 . S
C239 C236 1.403 . S
C239 C240 1.524 . S
C239 C243 1.400 . S
C240 H225 0.960 . S
C240 H226 0.960 . S
C240 H227 0.960 . S
C240 C239 1.524 . S
C241 C238 1.403 . S
C241 C242 1.392 . S
C241 C245 1.495 . S
C242 C241 1.392 . S
C242 C243 1.385 . S
C242 C244 1.478 . S
C243 H237 0.930 . S
C243 C239 1.400 . S
C243 C242 1.385 . S
C244 C242 1.478 . S
C244 C246 1.381 . S
C244 C250 1.383 . S
C245 C241 1.495 . S
C245 H251 0.959 . S
C245 H252 0.961 . S
C245 H253 0.960 . S
C246 C244 1.381 . S
C246 C247 1.394 . S
C246 H254 0.930 . S
C247 C246 1.394 . S
C247 C248 1.383 . S
C247 H255 0.929 . S
C248 C247 1.383 . S
C248 C249 1.377 . S
C249 H233 0.930 . S
C249 C248 1.377 . S
C249 C250 1.379 . S
C250 H234 0.931 . S
C250 C244 1.383 . S
C250 C249 1.379 . S
H251 C245 0.959 . S
H252 C245 0.961 . S
H253 C245 0.960 . S
H254 C246 0.930 . S
H255 C247 0.929 . S
H256 C264 0.945 . S
H257 C266 0.930 . S
H258 C268 0.930 . S
H259 C271 0.929 . S
H260 C274 0.930 . S
H261 C276 0.960 . S
H262 C276 0.960 . S
H263 C276 0.960 . S
C264 H256 0.945 . S
C264 C265 1.358 1_655 S
C264 C266 1.389 . S
C265 C264 1.358 1_455 S
C265 C271 1.390 . S
C266 H257 0.930 . S
C266 C264 1.389 . S
C266 C267 1.372 1_655 S
C267 C266 1.372 1_455 S
C267 C268 1.400 . S
C267 C272 1.490 . S
C268 H258 0.930 . S
C268 C267 1.400 . S
C268 C271 1.386 . S
H269 C285 0.930 1_455 S
H270 C286 0.931 1_455 S
C271 H259 0.929 . S
C271 C265 1.390 . S
C271 C268 1.386 . S
C272 C267 1.490 . S
C272 C274 1.395 1_455 S
C272 C275 1.403 . S
H273 C279 0.930 . S
C274 H260 0.930 . S
C274 C272 1.395 1_655 S
C274 C277 1.403 . S
C275 C272 1.403 . S
C275 C276 1.524 . S
C275 C279 1.400 . S
C276 H261 0.960 . S
C276 H262 0.960 . S
C276 H263 0.960 . S
C276 C275 1.524 . S
C277 C274 1.403 . S
C277 C278 1.392 . S
C277 C281 1.495 . S
C278 C277 1.392 . S
C278 C279 1.385 1_655 S
C278 C280 1.478 . S
C279 H273 0.930 . S
C279 C275 1.400 . S
C279 C278 1.385 1_455 S
C280 C278 1.478 . S
C280 C282 1.381 . S
C280 C286 1.383 . S
C281 C277 1.495 . S
C281 H287 0.959 . S
C281 H288 0.961 . S
C281 H289 0.960 . S
C282 C280 1.381 . S
C282 C283 1.394 . S
C282 H290 0.930 . S
C283 C282 1.394 . S
C283 C284 1.383 . S
C283 H291 0.929 . S
C284 C283 1.383 . S
C284 C285 1.377 . S
C285 H269 0.930 1_655 S
C285 C284 1.377 . S
C285 C286 1.379 . S
C286 H270 0.931 1_655 S
C286 C280 1.383 . S
C286 C285 1.379 . S
H287 C281 0.959 . S
H288 C281 0.961 . S
H289 C281 0.960 . S
H290 C282 0.930 . S
H291 C283 0.929 . S
H292 C300 0.936 . S
H293 C302 0.930 . S
H294 C304 0.930 . S
H295 C307 0.929 . S
H296 C310 0.930 . S
H297 C312 0.960 . S
H298 C312 0.960 . S
H299 C312 0.960 . S
C300 H292 0.936 . S
C300 C301 1.369 1_655 S
C300 C302 1.386 . S
C301 C300 1.369 1_455 S
C301 C307 1.390 . S
C302 H293 0.930 . S
C302 C300 1.386 . S
C302 C303 1.372 1_655 S
C303 C302 1.372 1_455 S
C303 C304 1.400 . S
C303 C308 1.490 . S
C304 H294 0.930 . S
C304 C303 1.400 . S
C304 C307 1.386 . S
H305 C321 0.930 1_455 S
H306 C322 0.931 1_455 S
C307 H295 0.929 . S
C307 C301 1.390 . S
C307 C304 1.386 . S
C308 C303 1.490 . S
C308 C310 1.395 1_455 S
C308 C311 1.403 . S
H309 C315 0.930 . S
C310 H296 0.930 . S
C310 C308 1.395 1_655 S
C310 C313 1.403 . S
C311 C308 1.403 . S
C311 C312 1.524 . S
C311 C315 1.400 . S
C312 H297 0.960 . S
C312 H298 0.960 . S
C312 H299 0.960 . S
C312 C311 1.524 . S
C313 C310 1.403 . S
C313 C314 1.392 . S
C313 C317 1.495 . S
C314 C313 1.392 . S
C314 C315 1.385 1_655 S
C314 C316 1.478 . S
C315 H309 0.930 . S
C315 C311 1.400 . S
C315 C314 1.385 1_455 S
C316 C314 1.478 . S
C316 C318 1.381 . S
C316 C322 1.383 . S
C317 C313 1.495 . S
C317 H323 0.959 . S
C317 H324 0.961 . S
C317 H325 0.960 . S
C318 C316 1.381 . S
C318 C319 1.394 . S
C318 H326 0.930 . S
C319 C318 1.394 . S
C319 C320 1.383 . S
C319 H327 0.929 . S
C320 C319 1.383 . S
C320 C321 1.377 . S
C321 H305 0.930 1_655 S
C321 C320 1.377 . S
C321 C322 1.379 . S
C322 H306 0.931 1_655 S
C322 C316 1.383 . S
C322 C321 1.379 . S
H323 C317 0.959 . S
H324 C317 0.961 . S
H325 C317 0.960 . S
H326 C318 0.930 . S
H327 C319 0.929 . S
H328 C336 0.929 . S
H329 C338 0.930 . S
H330 C340 0.930 . S
H331 C343 0.929 . S
H332 C346 0.930 . S
H333 C348 0.960 . S
H334 C348 0.960 . S
H335 C348 0.960 . S
C336 H328 0.929 . S
C336 C337 1.377 1_655 S
C336 C338 1.384 . S
C337 C336 1.377 1_455 S
C337 C343 1.390 . S
C338 H329 0.930 . S
C338 C336 1.384 . S
C338 C339 1.372 1_655 S
C339 C338 1.372 1_455 S
C339 C340 1.400 . S
C339 C344 1.490 . S
C340 H330 0.930 . S
C340 C339 1.400 . S
C340 C343 1.386 . S
H341 C357 0.930 . S
H342 C358 0.931 . S
C343 H331 0.929 . S
C343 C337 1.390 . S
C343 C340 1.386 . S
C344 C339 1.490 . S
C344 C346 1.395 1_455 S
C344 C347 1.403 . S
H345 C351 0.930 . S
C346 H332 0.930 . S
C346 C344 1.395 1_655 S
C346 C349 1.403 . S
C347 C344 1.403 . S
C347 C348 1.524 . S
C347 C351 1.400 . S
C348 H333 0.960 . S
C348 H334 0.960 . S
C348 H335 0.960 . S
C348 C347 1.524 . S
C349 C346 1.403 . S
C349 C350 1.392 . S
C349 C353 1.495 . S
C350 C349 1.392 . S
C350 C351 1.385 1_655 S
C350 C352 1.478 . S
C351 H345 0.930 . S
C351 C347 1.400 . S
C351 C350 1.385 1_455 S
C352 C350 1.478 . S
C352 C354 1.381 . S
C352 C358 1.383 1_655 S
C353 C349 1.495 . S
C353 H359 0.959 . S
C353 H360 0.961 . S
C353 H361 0.960 . S
C354 C352 1.381 . S
C354 C355 1.394 . S
C354 H362 0.930 . S
C355 C354 1.394 . S
C355 C356 1.383 . S
C355 H363 0.929 . S
C356 C355 1.383 . S
C356 C357 1.377 1_655 S
C357 H341 0.930 . S
C357 C356 1.377 1_455 S
C357 C358 1.379 . S
C358 H342 0.931 . S
C358 C352 1.383 1_455 S
C358 C357 1.379 . S
H359 C353 0.959 . S
H360 C353 0.961 . S
H361 C353 0.960 . S
H362 C354 0.930 . S
H363 C355 0.929 . S
H364 C372 0.929 . S
H365 C374 0.930 . S
H366 C376 0.930 . S
H367 C379 0.929 . S
H368 C382 0.930 . S
H369 C384 0.960 . S
H370 C384 0.960 . S
H371 C384 0.960 . S
C372 H364 0.929 . S
C372 C373 1.377 . S
C372 C374 1.384 . S
C373 C372 1.377 . S
C373 C379 1.390 1_455 S
C374 H365 0.930 . S
C374 C372 1.384 . S
C374 C375 1.372 . S
C375 C374 1.372 . S
C375 C376 1.400 1_455 S
C375 C380 1.490 . S
C376 H366 0.930 . S
C376 C375 1.400 1_655 S
C376 C379 1.386 . S
H377 C393 0.930 . S
H378 C394 0.931 . S
C379 H367 0.929 . S
C379 C373 1.390 1_655 S
C379 C376 1.386 . S
C380 C375 1.490 . S
C380 C382 1.395 . S
C380 C383 1.403 1_455 S
H381 C387 0.930 . S
C382 H368 0.930 . S
C382 C380 1.395 . S
C382 C385 1.403 . S
C383 C380 1.403 1_655 S
C383 C384 1.524 . S
C383 C387 1.400 . S
C384 H369 0.960 . S
C384 H370 0.960 . S
C384 H371 0.960 . S
C384 C383 1.524 . S
C385 C382 1.403 . S
C385 C386 1.392 . S
C385 C389 1.495 . S
C386 C385 1.392 . S
C386 C387 1.385 1_455 S
C386 C388 1.478 1_455 S
C387 H381 0.930 . S
C387 C383 1.400 . S
C387 C386 1.385 1_655 S
C388 C386 1.478 1_655 S
C388 C390 1.381 1_655 S
C388 C394 1.383 . S
C389 C385 1.495 . S
C389 H395 0.959 . S
C389 H396 0.961 . S
C389 H397 0.960 . S
C390 C388 1.381 1_455 S
C390 C391 1.394 . S
C390 H398 0.930 . S
C391 C390 1.394 . S
C391 C392 1.383 1_455 S
C391 H399 0.929 . S
C392 C391 1.383 1_655 S
C392 C393 1.377 . S
C393 H377 0.930 . S
C393 C392 1.377 . S
C393 C394 1.379 . S
C394 H378 0.931 . S
C394 C388 1.383 . S
C394 C393 1.379 . S
H395 C389 0.959 . S
H396 C389 0.961 . S
H397 C389 0.960 . S
H398 C390 0.930 . S
H399 C391 0.929 . S
H400 C408 0.929 . S
H401 C410 0.930 . S
H402 C412 0.930 . S
H403 C415 0.929 . S
H404 C418 0.930 . S
H405 C420 0.960 . S
H406 C420 0.960 . S
H407 C420 0.960 . S
C408 H400 0.929 . S
C408 C409 1.377 . S
C408 C410 1.384 . S
C409 C408 1.377 . S
C409 C415 1.390 . S
C410 H401 0.930 . S
C410 C408 1.384 . S
C410 C411 1.372 . S
C411 C410 1.372 . S
C411 C412 1.400 . S
C411 C416 1.490 . S
C412 H402 0.930 . S
C412 C411 1.400 . S
C412 C415 1.386 . S
H413 C429 0.930 . S
H414 C430 0.931 . S
C415 H403 0.929 . S
C415 C409 1.390 . S
C415 C412 1.386 . S
C416 C411 1.490 . S
C416 C418 1.395 . S
C416 C419 1.403 . S
H417 C423 0.930 . S
C418 H404 0.930 . S
C418 C416 1.395 . S
C418 C421 1.403 . S
C419 C416 1.403 . S
C419 C420 1.524 . S
C419 C423 1.400 . S
C420 H405 0.960 . S
C420 H406 0.960 . S
C420 H407 0.960 . S
C420 C419 1.524 . S
C421 C418 1.403 . S
C421 C422 1.392 . S
C421 C425 1.495 . S
C422 C421 1.392 . S
C422 C423 1.385 . S
C422 C424 1.478 . S
C423 H417 0.930 . S
C423 C419 1.400 . S
C423 C422 1.385 . S
C424 C422 1.478 . S
C424 C426 1.381 . S
C424 C430 1.383 . S
C425 C421 1.495 . S
C425 H431 0.959 . S
C425 H432 0.961 . S
C425 H433 0.960 . S
C426 C424 1.381 . S
C426 C427 1.394 . S
C426 H434 0.930 . S
C427 C426 1.394 . S
C427 C428 1.383 . S
C427 H435 0.929 . S
C428 C427 1.383 . S
C428 C429 1.377 . S
C429 H413 0.930 . S
C429 C428 1.377 . S
C429 C430 1.379 . S
C430 H414 0.931 . S
C430 C424 1.383 . S
C430 C429 1.379 . S
H431 C425 0.959 . S
H432 C425 0.961 . S
H433 C425 0.960 . S
H434 C426 0.930 . S
H435 C427 0.929 . S
H436 C444 0.929 . S
H437 C446 0.930 . S
H438 C448 0.930 . S
H439 C451 0.929 . S
H440 C454 0.930 . S
H441 C456 0.960 . S
H442 C456 0.960 . S
H443 C456 0.960 . S
C444 H436 0.929 . S
C444 C445 1.377 . S
C444 C446 1.384 . S
C445 C444 1.377 . S
C445 C451 1.390 . S
C446 H437 0.930 . S
C446 C444 1.384 . S
C446 C447 1.372 . S
C447 C446 1.372 . S
C447 C448 1.400 . S
C447 C452 1.490 . S
C448 H438 0.930 . S
C448 C447 1.400 . S
C448 C451 1.386 . S
H449 C465 0.930 . S
H450 C466 0.931 . S
C451 H439 0.929 . S
C451 C445 1.390 . S
C451 C448 1.386 . S
C452 C447 1.490 . S
C452 C454 1.395 . S
C452 C455 1.403 . S
H453 C459 0.930 . S
C454 H440 0.930 . S
C454 C452 1.395 . S
C454 C457 1.403 . S
C455 C452 1.403 . S
C455 C456 1.524 . S
C455 C459 1.400 . S
C456 H441 0.960 . S
C456 H442 0.960 . S
C456 H443 0.960 . S
C456 C455 1.524 . S
C457 C454 1.403 . S
C457 C458 1.392 . S
C457 C461 1.495 . S
C458 C457 1.392 . S
C458 C459 1.385 . S
C458 C460 1.478 . S
C459 H453 0.930 . S
C459 C455 1.400 . S
C459 C458 1.385 . S
C460 C458 1.478 . S
C460 C462 1.381 . S
C460 C466 1.383 . S
C461 C457 1.495 . S
C461 H467 0.959 . S
C461 H468 0.961 . S
C461 H469 0.960 . S
C462 C460 1.381 . S
C462 C463 1.394 . S
C462 H470 0.930 . S
C463 C462 1.394 . S
C463 C464 1.383 . S
C463 H471 0.929 . S
C464 C463 1.383 . S
C464 C465 1.377 . S
C465 H449 0.930 . S
C465 C464 1.377 . S
C465 C466 1.379 . S
C466 H450 0.931 . S
C466 C460 1.383 . S
C466 C465 1.379 . S
H467 C461 0.959 . S
H468 C461 0.961 . S
H469 C461 0.960 . S
H470 C462 0.930 . S
H471 C463 0.929 . S
H472 C480 0.929 . S
H473 C482 0.930 . S
H474 C484 0.930 . S
H475 C487 0.929 . S
H476 C490 0.930 . S
H477 C492 0.960 . S
H478 C492 0.960 . S
H479 C492 0.960 . S
C480 H472 0.929 . S
C480 C481 1.377 . S
C480 C482 1.384 . S
C481 C480 1.377 . S
C481 C487 1.390 . S
C482 H473 0.930 . S
C482 C480 1.384 . S
C482 C483 1.372 . S
C483 C482 1.372 . S
C483 C484 1.400 . S
C483 C488 1.490 . S
C484 H474 0.930 . S
C484 C483 1.400 . S
C484 C487 1.386 . S
H485 C501 0.930 . S
H486 C502 0.931 . S
C487 H475 0.929 . S
C487 C481 1.390 . S
C487 C484 1.386 . S
C488 C483 1.490 . S
C488 C490 1.395 . S
C488 C491 1.403 . S
H489 C495 0.930 . S
C490 H476 0.930 . S
C490 C488 1.395 . S
C490 C493 1.403 . S
C491 C488 1.403 . S
C491 C492 1.524 . S
C491 C495 1.400 . S
C492 H477 0.960 . S
C492 H478 0.960 . S
C492 H479 0.960 . S
C492 C491 1.524 . S
C493 C490 1.403 . S
C493 C494 1.392 . S
C493 C497 1.495 . S
C494 C493 1.392 . S
C494 C495 1.385 . S
C494 C496 1.478 . S
C495 H489 0.930 . S
C495 C491 1.400 . S
C495 C494 1.385 . S
C496 C494 1.478 . S
C496 C498 1.381 . S
C496 C502 1.383 . S
C497 C493 1.495 . S
C497 H503 0.959 . S
C497 H504 0.961 . S
C497 H505 0.960 . S
C498 C496 1.381 . S
C498 C499 1.394 . S
C498 H506 0.930 . S
C499 C498 1.394 . S
C499 C500 1.383 . S
C499 H507 0.929 . S
C500 C499 1.383 . S
C500 C501 1.377 . S
C501 H485 0.930 . S
C501 C500 1.377 . S
C501 C502 1.379 . S
C502 H486 0.931 . S
C502 C496 1.383 . S
C502 C501 1.379 . S
H503 C497 0.959 . S
H504 C497 0.961 . S
H505 C497 0.960 . S
H506 C498 0.930 . S
H507 C499 0.929 . S
H508 C516 0.929 . S
H509 C518 0.930 . S
H510 C520 0.930 . S
H511 C523 0.929 . S
H512 C526 0.930 . S
H513 C528 0.960 . S
H514 C528 0.960 . S
H515 C528 0.960 . S
C516 H508 0.929 . S
C516 C517 1.377 . S
C516 C518 1.384 . S
C517 C516 1.377 . S
C517 C523 1.390 . S
C518 H509 0.930 . S
C518 C516 1.384 . S
C518 C519 1.372 . S
C519 C518 1.372 . S
C519 C520 1.400 . S
C519 C524 1.490 . S
C520 H510 0.930 . S
C520 C519 1.400 . S
C520 C523 1.386 . S
H521 C537 0.930 . S
H522 C538 0.931 . S
C523 H511 0.929 . S
C523 C517 1.390 . S
C523 C520 1.386 . S
C524 C519 1.490 . S
C524 C526 1.395 . S
C524 C527 1.403 . S
H525 C531 0.930 . S
C526 H512 0.930 . S
C526 C524 1.395 . S
C526 C529 1.403 . S
C527 C524 1.403 . S
C527 C528 1.524 . S
C527 C531 1.400 . S
C528 H513 0.960 . S
C528 H514 0.960 . S
C528 H515 0.960 . S
C528 C527 1.524 . S
C529 C526 1.403 . S
C529 C530 1.392 . S
C529 C533 1.495 . S
C530 C529 1.392 . S
C530 C531 1.385 . S
C530 C532 1.478 . S
C531 H525 0.930 . S
C531 C527 1.400 . S
C531 C530 1.385 . S
C532 C530 1.478 . S
C532 C534 1.381 . S
C532 C538 1.383 . S
C533 C529 1.495 . S
C533 H539 0.959 . S
C533 H540 0.961 . S
C533 H541 0.960 . S
C534 C532 1.381 . S
C534 C535 1.394 . S
C534 H542 0.930 . S
C535 C534 1.394 . S
C535 C536 1.383 . S
C535 H543 0.929 . S
C536 C535 1.383 . S
C536 C537 1.377 . S
C537 H521 0.930 . S
C537 C536 1.377 . S
C537 C538 1.379 . S
C538 H522 0.931 . S
C538 C532 1.383 . S
C538 C537 1.379 . S
H539 C533 0.959 . S
H540 C533 0.961 . S
H541 C533 0.960 . S
H542 C534 0.930 . S
H543 C535 0.929 . S
H544 C552 0.929 . S
H545 C554 0.930 . S
H546 C556 0.930 . S
H547 C559 0.929 . S
H548 C562 0.930 . S
H549 C564 0.960 . S
H550 C564 0.960 . S
H551 C564 0.960 . S
C552 H544 0.929 . S
C552 C553 1.377 . S
C552 C554 1.384 . S
C553 C552 1.377 . S
C553 C559 1.390 1_554 S
C554 H545 0.930 . S
C554 C552 1.384 . S
C554 C555 1.372 . S
C555 C554 1.372 . S
C555 C556 1.400 1_554 S
C555 C560 1.490 . S
C556 H546 0.930 . S
C556 C555 1.400 1_556 S
C556 C559 1.386 . S
H557 C573 0.930 . S
H558 C574 0.931 . S
C559 H547 0.929 . S
C559 C553 1.390 1_556 S
C559 C556 1.386 . S
C560 C555 1.490 . S
C560 C562 1.395 . S
C560 C563 1.403 1_554 S
H561 C567 0.930 . S
C562 H548 0.930 . S
C562 C560 1.395 . S
C562 C565 1.403 . S
C563 C560 1.403 1_556 S
C563 C564 1.524 . S
C563 C567 1.400 . S
C564 H549 0.960 . S
C564 H550 0.960 . S
C564 H551 0.960 . S
C564 C563 1.524 . S
C565 C562 1.403 . S
C565 C566 1.392 . S
C565 C569 1.495 . S
C566 C565 1.392 . S
C566 C567 1.385 1_554 S
C566 C568 1.478 . S
C567 H561 0.930 . S
C567 C563 1.400 . S
C567 C566 1.385 1_556 S
C568 C566 1.478 . S
C568 C570 1.381 . S
C568 C574 1.383 1_554 S
C569 C565 1.495 . S
C569 H575 0.959 . S
C569 H576 0.961 . S
C569 H577 0.960 . S
C570 C568 1.381 . S
C570 C571 1.394 . S
C570 H578 0.930 . S
C571 C570 1.394 . S
C571 C572 1.383 . S
C571 H579 0.929 . S
C572 C571 1.383 . S
C572 C573 1.377 1_554 S
C573 H557 0.930 . S
C573 C572 1.377 1_556 S
C573 C574 1.379 . S
C574 H558 0.931 . S
C574 C568 1.383 1_556 S
C574 C573 1.379 . S
H575 C569 0.959 . S
H576 C569 0.961 . S
H577 C569 0.960 . S
H578 C570 0.930 . S
H579 C571 0.929 . S
H580 C588 0.929 . S
H581 C590 0.930 . S
H582 C592 0.930 . S
H583 C595 0.929 . S
H584 C598 0.930 . S
H585 C600 0.960 . S
H586 C600 0.960 1_554 S
H587 C600 0.960 . S
C588 H580 0.929 . S
C588 C589 1.377 . S
C588 C590 1.384 . S
C589 C588 1.377 . S
C589 C595 1.390 1_554 S
C590 H581 0.930 . S
C590 C588 1.384 . S
C590 C591 1.372 . S
C591 C590 1.372 . S
C591 C592 1.400 1_554 S
C591 C596 1.490 . S
C592 H582 0.930 . S
C592 C591 1.400 1_556 S
C592 C595 1.386 . S
H593 C609 0.930 . S
H594 C610 0.931 . S
C595 H583 0.929 . S
C595 C589 1.390 1_556 S
C595 C592 1.386 . S
C596 C591 1.490 . S
C596 C598 1.395 . S
C596 C599 1.405 . S
H597 C603 0.930 1_556 S
C598 H584 0.930 . S
C598 C596 1.395 . S
C598 C601 1.403 . S
C599 C596 1.405 . S
C599 C600 1.523 1_554 S
C599 C603 1.400 . S
C600 H585 0.960 . S
C600 H586 0.960 1_556 S
C600 H587 0.960 . S
C600 C599 1.523 1_556 S
C601 C598 1.403 . S
C601 C602 1.392 . S
C601 C605 1.495 . S
C602 C601 1.392 . S
C602 C603 1.386 . S
C602 C604 1.478 . S
C603 H597 0.930 1_554 S
C603 C599 1.400 . S
C603 C602 1.386 . S
C604 C602 1.478 . S
C604 C606 1.381 . S
C604 C610 1.383 1_554 S
C605 C601 1.495 . S
C605 H611 0.959 . S
C605 H612 0.961 1_554 S
C605 H613 0.960 . S
C606 C604 1.381 . S
C606 C607 1.394 . S
C606 H614 0.930 . S
C607 C606 1.394 . S
C607 C608 1.383 . S
C607 H615 0.929 . S
C608 C607 1.383 . S
C608 C609 1.377 1_554 S
C609 H593 0.930 . S
C609 C608 1.377 1_556 S
C609 C610 1.379 . S
C610 H594 0.931 . S
C610 C604 1.383 1_556 S
C610 C609 1.379 . S
H611 C605 0.959 . S
H612 C605 0.961 1_556 S
H613 C605 0.960 . S
H614 C606 0.930 . S
H615 C607 0.929 . S
H616 C624 0.929 . S
H617 C626 0.930 . S
H618 C628 0.930 . S
H619 C631 0.929 . S
H620 C634 0.930 . S
H621 C636 0.960 . S
H622 C636 0.960 . S
H623 C636 0.960 . S
C624 H616 0.929 . S
C624 C625 1.377 . S
C624 C626 1.384 . S
C625 C624 1.377 . S
C625 C631 1.390 . S
C626 H617 0.930 . S
C626 C624 1.384 . S
C626 C627 1.372 . S
C627 C626 1.372 . S
C627 C628 1.400 . S
C627 C632 1.490 . S
C628 H618 0.930 . S
C628 C627 1.400 . S
C628 C631 1.386 . S
H629 C645 0.930 . S
H630 C646 0.931 . S
C631 H619 0.929 . S
C631 C625 1.390 . S
C631 C628 1.386 . S
C632 C627 1.490 . S
C632 C634 1.395 . S
C632 C635 1.403 . S
H633 C639 0.930 . S
C634 H620 0.930 . S
C634 C632 1.395 . S
C634 C637 1.403 . S
C635 C632 1.403 . S
C635 C636 1.524 . S
C635 C639 1.400 . S
C636 H621 0.960 . S
C636 H622 0.960 . S
C636 H623 0.960 . S
C636 C635 1.524 . S
C637 C634 1.403 . S
C637 C638 1.392 . S
C637 C641 1.495 . S
C638 C637 1.392 . S
C638 C639 1.385 . S
C638 C640 1.478 . S
C639 H633 0.930 . S
C639 C635 1.400 . S
C639 C638 1.385 . S
C640 C638 1.478 . S
C640 C642 1.381 . S
C640 C646 1.383 . S
C641 C637 1.495 . S
C641 H647 0.959 . S
C641 H648 0.961 . S
C641 H649 0.960 . S
C642 C640 1.381 . S
C642 C643 1.394 . S
C642 H650 0.930 . S
C643 C642 1.394 . S
C643 C644 1.383 . S
C643 H651 0.929 . S
C644 C643 1.383 . S
C644 C645 1.377 . S
C645 H629 0.930 . S
C645 C644 1.377 . S
C645 C646 1.379 . S
C646 H630 0.931 . S
C646 C640 1.383 . S
C646 C645 1.379 . S
H647 C641 0.959 . S
H648 C641 0.961 . S
H649 C641 0.960 . S
H650 C642 0.930 . S
H651 C643 0.929 . S
H652 C660 0.929 . S
H653 C662 0.930 . S
H654 C664 0.930 . S
H655 C667 0.929 . S
H656 C670 0.930 . S
H657 C672 0.960 . S
H658 C672 0.960 . S
H659 C672 0.960 . S
C660 H652 0.929 . S
C660 C661 1.377 . S
C660 C662 1.384 . S
C661 C660 1.377 . S
C661 C667 1.390 . S
C662 H653 0.930 . S
C662 C660 1.384 . S
C662 C663 1.372 . S
C663 C662 1.372 . S
C663 C664 1.400 . S
C663 C668 1.490 . S
C664 H654 0.930 . S
C664 C663 1.400 . S
C664 C667 1.386 . S
H665 C681 0.930 . S
H666 C682 0.931 . S
C667 H655 0.929 . S
C667 C661 1.390 . S
C667 C664 1.386 . S
C668 C663 1.490 . S
C668 C670 1.395 . S
C668 C671 1.403 . S
H669 C675 0.930 . S
C670 H656 0.930 . S
C670 C668 1.395 . S
C670 C673 1.403 . S
C671 C668 1.403 . S
C671 C672 1.524 . S
C671 C675 1.400 . S
C672 H657 0.960 . S
C672 H658 0.960 . S
C672 H659 0.960 . S
C672 C671 1.524 . S
C673 C670 1.403 . S
C673 C674 1.392 . S
C673 C677 1.495 . S
C674 C673 1.392 . S
C674 C675 1.385 . S
C674 C676 1.478 . S
C675 H669 0.930 . S
C675 C671 1.400 . S
C675 C674 1.385 . S
C676 C674 1.478 . S
C676 C678 1.381 . S
C676 C682 1.383 . S
C677 C673 1.495 . S
C677 H683 0.959 . S
C677 H684 0.961 . S
C677 H685 0.960 . S
C678 C676 1.381 . S
C678 C679 1.394 . S
C678 H686 0.930 . S
C679 C678 1.394 . S
C679 C680 1.383 . S
C679 H687 0.929 . S
C680 C679 1.383 . S
C680 C681 1.377 . S
C681 H665 0.930 . S
C681 C680 1.377 . S
C681 C682 1.379 . S
C682 H666 0.931 . S
C682 C676 1.383 . S
C682 C681 1.379 . S
H683 C677 0.959 . S
H684 C677 0.961 . S
H685 C677 0.960 . S
H686 C678 0.930 . S
H687 C679 0.929 . S
C121 C23 1.483 1_554 S
C140 C9 1.492 . S
C157 C37 1.481 . S
C176 C51 1.467 . S
C193 C65 1.481 . S
C212 C79 1.471 . S
C229 C93 1.486 . S
C248 C107 1.498 . S
C265 C7 1.162 . S
C284 C49 1.157 . S
C301 C35 1.162 . S
C320 C21 1.157 . S
C337 C31 1.148 . S
C356 C17 1.136 . S
C373 C3 1.156 . S
C392 C45 1.167 . S
C409 C63 1.155 . S
C428 C105 1.174 . S
C445 C91 1.159 . S
C464 C77 1.179 . S
C481 C73 1.146 . S
C500 C87 1.121 . S
C517 C59 1.146 . S
C536 C101 1.121 . S
C553 C78 1.511 . S
C572 C8 1.513 . S
C589 C64 1.512 . S
C608 C22 1.512 . S
C625 C36 1.509 . S
C644 C106 1.507 . S
C661 C92 1.508 . S
C680 C50 1.505 . S
