# Generated by pormake.
# Topology uox, (4)-cn, num edge types: 1
# Building blocks:
#     Node 0, Type 0, BuildingBlock: UXUYUI_clean_sbu_0, # of connection points: 4
#     Node 1, Type 0, BuildingBlock: UXUYUI_clean_sbu_0, # of connection points: 4
#     Node 2, Type 0, BuildingBlock: UXUYUI_clean_sbu_0, # of connection points: 4
#     Node 3, Type 0, BuildingBlock: UXUYUI_clean_sbu_0, # of connection points: 4
#     Node 4, Type 0, BuildingBlock: UXUYUI_clean_sbu_0, # of connection points: 4
#     Node 5, Type 0, BuildingBlock: UXUYUI_clean_sbu_0, # of connection points: 4
#     Node 6, Type 0, BuildingBlock: UXUYUI_clean_sbu_0, # of connection points: 4
#     Node 7, Type 0, BuildingBlock: UXUYUI_clean_sbu_0, # of connection points: 4
#     Node 8, Type 0, BuildingBlock: UXUYUI_clean_sbu_0, # of connection points: 4
#     Node 9, Type 0, BuildingBlock: UXUYUI_clean_sbu_0, # of connection points: 4
#     Node 10, Type 0, BuildingBlock: UXUYUI_clean_sbu_0, # of connection points: 4
#     Node 11, Type 0, BuildingBlock: UXUYUI_clean_sbu_0, # of connection points: 4
#     Node 12, Type 0, BuildingBlock: UXUYUI_clean_sbu_0, # of connection points: 4
#     Node 13, Type 0, BuildingBlock: UXUYUI_clean_sbu_0, # of connection points: 4
#     Node 14, Type 0, BuildingBlock: UXUYUI_clean_sbu_0, # of connection points: 4
#     Node 15, Type 0, BuildingBlock: UXUYUI_clean_sbu_0, # of connection points: 4
#     Node 16, Type 0, BuildingBlock: UXUYUI_clean_sbu_0, # of connection points: 4
#     Node 17, Type 0, BuildingBlock: UXUYUI_clean_sbu_0, # of connection points: 4
#     Node 18, Type 0, BuildingBlock: UXUYUI_clean_sbu_0, # of connection points: 4
#     Node 19, Type 0, BuildingBlock: UXUYUI_clean_sbu_0, # of connection points: 4
#     Node 20, Type 0, BuildingBlock: UXUYUI_clean_sbu_0, # of connection points: 4
#     Node 21, Type 0, BuildingBlock: UXUYUI_clean_sbu_0, # of connection points: 4
#     Node 22, Type 0, BuildingBlock: UXUYUI_clean_sbu_0, # of connection points: 4
#     Node 23, Type 0, BuildingBlock: UXUYUI_clean_sbu_0, # of connection points: 4
#     Node 24, Type 0, BuildingBlock: UXUYUI_clean_sbu_0, # of connection points: 4
#     Node 25, Type 0, BuildingBlock: UXUYUI_clean_sbu_0, # of connection points: 4
#     Node 26, Type 0, BuildingBlock: UXUYUI_clean_sbu_0, # of connection points: 4
#     Node 27, Type 0, BuildingBlock: UXUYUI_clean_sbu_0, # of connection points: 4
#     Node 28, Type 0, BuildingBlock: UXUYUI_clean_sbu_0, # of connection points: 4
#     Node 29, Type 0, BuildingBlock: UXUYUI_clean_sbu_0, # of connection points: 4
#     Node 30, Type 0, BuildingBlock: UXUYUI_clean_sbu_0, # of connection points: 4
#     Node 31, Type 0, BuildingBlock: UXUYUI_clean_sbu_0, # of connection points: 4
#     Edge 32, Type (0, 0), BuildingBlock: XIVTED_clean_linker_0, # of connection points: 2
#     Edge 33, Type (0, 0), BuildingBlock: XIVTED_clean_linker_0, # of connection points: 2
#     Edge 34, Type (0, 0), BuildingBlock: XIVTED_clean_linker_0, # of connection points: 2
#     Edge 35, Type (0, 0), BuildingBlock: XIVTED_clean_linker_0, # of connection points: 2
#     Edge 36, Type (0, 0), BuildingBlock: XIVTED_clean_linker_0, # of connection points: 2
#     Edge 37, Type (0, 0), BuildingBlock: XIVTED_clean_linker_0, # of connection points: 2
#     Edge 38, Type (0, 0), BuildingBlock: XIVTED_clean_linker_0, # of connection points: 2
#     Edge 39, Type (0, 0), BuildingBlock: XIVTED_clean_linker_0, # of connection points: 2
#     Edge 40, Type (0, 0), BuildingBlock: XIVTED_clean_linker_0, # of connection points: 2
#     Edge 41, Type (0, 0), BuildingBlock: XIVTED_clean_linker_0, # of connection points: 2
#     Edge 42, Type (0, 0), BuildingBlock: XIVTED_clean_linker_0, # of connection points: 2
#     Edge 43, Type (0, 0), BuildingBlock: XIVTED_clean_linker_0, # of connection points: 2
#     Edge 44, Type (0, 0), BuildingBlock: XIVTED_clean_linker_0, # of connection points: 2
#     Edge 45, Type (0, 0), BuildingBlock: XIVTED_clean_linker_0, # of connection points: 2
#     Edge 46, Type (0, 0), BuildingBlock: XIVTED_clean_linker_0, # of connection points: 2
#     Edge 47, Type (0, 0), BuildingBlock: XIVTED_clean_linker_0, # of connection points: 2
#     Edge 48, Type (0, 0), BuildingBlock: XIVTED_clean_linker_0, # of connection points: 2
#     Edge 49, Type (0, 0), BuildingBlock: XIVTED_clean_linker_0, # of connection points: 2
#     Edge 50, Type (0, 0), BuildingBlock: XIVTED_clean_linker_0, # of connection points: 2
#     Edge 51, Type (0, 0), BuildingBlock: XIVTED_clean_linker_0, # of connection points: 2
#     Edge 52, Type (0, 0), BuildingBlock: XIVTED_clean_linker_0, # of connection points: 2
#     Edge 53, Type (0, 0), BuildingBlock: XIVTED_clean_linker_0, # of connection points: 2
#     Edge 54, Type (0, 0), BuildingBlock: XIVTED_clean_linker_0, # of connection points: 2
#     Edge 55, Type (0, 0), BuildingBlock: XIVTED_clean_linker_0, # of connection points: 2
#     Edge 56, Type (0, 0), BuildingBlock: XIVTED_clean_linker_0, # of connection points: 2
#     Edge 57, Type (0, 0), BuildingBlock: XIVTED_clean_linker_0, # of connection points: 2
#     Edge 58, Type (0, 0), BuildingBlock: XIVTED_clean_linker_0, # of connection points: 2
#     Edge 59, Type (0, 0), BuildingBlock: XIVTED_clean_linker_0, # of connection points: 2
#     Edge 60, Type (0, 0), BuildingBlock: XIVTED_clean_linker_0, # of connection points: 2
#     Edge 61, Type (0, 0), BuildingBlock: XIVTED_clean_linker_0, # of connection points: 2
#     Edge 62, Type (0, 0), BuildingBlock: XIVTED_clean_linker_0, # of connection points: 2
#     Edge 63, Type (0, 0), BuildingBlock: XIVTED_clean_linker_0, # of connection points: 2
#     Edge 64, Type (0, 0), BuildingBlock: XIVTED_clean_linker_0, # of connection points: 2
#     Edge 65, Type (0, 0), BuildingBlock: XIVTED_clean_linker_0, # of connection points: 2
#     Edge 66, Type (0, 0), BuildingBlock: XIVTED_clean_linker_0, # of connection points: 2
#     Edge 67, Type (0, 0), BuildingBlock: XIVTED_clean_linker_0, # of connection points: 2
#     Edge 68, Type (0, 0), BuildingBlock: XIVTED_clean_linker_0, # of connection points: 2
#     Edge 69, Type (0, 0), BuildingBlock: XIVTED_clean_linker_0, # of connection points: 2
#     Edge 70, Type (0, 0), BuildingBlock: XIVTED_clean_linker_0, # of connection points: 2
#     Edge 71, Type (0, 0), BuildingBlock: XIVTED_clean_linker_0, # of connection points: 2
#     Edge 72, Type (0, 0), BuildingBlock: XIVTED_clean_linker_0, # of connection points: 2
#     Edge 73, Type (0, 0), BuildingBlock: XIVTED_clean_linker_0, # of connection points: 2
#     Edge 74, Type (0, 0), BuildingBlock: XIVTED_clean_linker_0, # of connection points: 2
#     Edge 75, Type (0, 0), BuildingBlock: XIVTED_clean_linker_0, # of connection points: 2
#     Edge 76, Type (0, 0), BuildingBlock: XIVTED_clean_linker_0, # of connection points: 2
#     Edge 77, Type (0, 0), BuildingBlock: XIVTED_clean_linker_0, # of connection points: 2
#     Edge 78, Type (0, 0), BuildingBlock: XIVTED_clean_linker_0, # of connection points: 2
#     Edge 79, Type (0, 0), BuildingBlock: XIVTED_clean_linker_0, # of connection points: 2
#     Edge 80, Type (0, 0), BuildingBlock: XIVTED_clean_linker_0, # of connection points: 2
#     Edge 81, Type (0, 0), BuildingBlock: XIVTED_clean_linker_0, # of connection points: 2
#     Edge 82, Type (0, 0), BuildingBlock: XIVTED_clean_linker_0, # of connection points: 2
#     Edge 83, Type (0, 0), BuildingBlock: XIVTED_clean_linker_0, # of connection points: 2
#     Edge 84, Type (0, 0), BuildingBlock: XIVTED_clean_linker_0, # of connection points: 2
#     Edge 85, Type (0, 0), BuildingBlock: XIVTED_clean_linker_0, # of connection points: 2
#     Edge 86, Type (0, 0), BuildingBlock: XIVTED_clean_linker_0, # of connection points: 2
#     Edge 87, Type (0, 0), BuildingBlock: XIVTED_clean_linker_0, # of connection points: 2
#     Edge 88, Type (0, 0), BuildingBlock: XIVTED_clean_linker_0, # of connection points: 2
#     Edge 89, Type (0, 0), BuildingBlock: XIVTED_clean_linker_0, # of connection points: 2
#     Edge 90, Type (0, 0), BuildingBlock: XIVTED_clean_linker_0, # of connection points: 2
#     Edge 91, Type (0, 0), BuildingBlock: XIVTED_clean_linker_0, # of connection points: 2
#     Edge 92, Type (0, 0), BuildingBlock: XIVTED_clean_linker_0, # of connection points: 2
#     Edge 93, Type (0, 0), BuildingBlock: XIVTED_clean_linker_0, # of connection points: 2
#     Edge 94, Type (0, 0), BuildingBlock: XIVTED_clean_linker_0, # of connection points: 2
#     Edge 95, Type (0, 0), BuildingBlock: XIVTED_clean_linker_0, # of connection points: 2
# Relax obj value: 0.188
# Max RMSD: 0.179
# Mean RMSD: 0.179
data_MOF--net-uox--node1-UXUYUI_clean_sbu_0--edge1-XIVTED_clean_linker_0
_symmetry_space_group_name_H-M    P1
_symmetry_Int_Tables_number       1
_symmetry_cell_setting            triclinic
loop_
_symmetry_equiv_pos_as_xyz
'x, y, z'
_cell_length_a     65.666417
_cell_length_b     65.658349
_cell_length_c     116.67869
_cell_angle_alpha  89.998533
_cell_angle_beta   90.022757
_cell_angle_gamma 89.996304
loop_
_atom_site_label
_atom_site_type_symbol
_atom_site_fract_x
_atom_site_fract_y
_atom_site_fract_z
_atom_type_partial_charge
Li0 Li 0.45364 0.03918 0.14965 0.0
Li1 Li 0.43475 0.03286 0.16811 0.0
Li2 Li 0.42539 0.01537 0.15056 0.0
Li3 Li 0.41792 0.05109 0.15227 0.0
C4 C 0.45771 0.99465 0.15608 0.0
N5 N 0.46743 0.95524 0.14991 0.0
C6 C 0.455 0.97874 0.16388 0.0
C7 C 0.46545 0.99058 0.14517 0.0
C8 C 0.45999 0.9589 0.16059 0.0
C9 C 0.47026 0.97054 0.1422 0.0
C10 C 0.43896 0.07577 0.16809 0.0
C11 C 0.41716 0.09326 0.18149 0.0
N12 N 0.43129 0.10832 0.18246 0.0
C13 C 0.45324 0.09141 0.16919 0.0
C14 C 0.42076 0.07668 0.17427 0.0
C15 C 0.44909 0.10774 0.17651 0.0
C16 C 0.47867 0.05812 0.13353 0.0
N17 N 0.47886 0.04629 0.14307 0.0
C18 C 0.51519 0.04724 0.14376 0.0
C19 C 0.49657 0.04061 0.14818 0.0
C20 C 0.51549 0.05979 0.13399 0.0
C21 C 0.49691 0.06501 0.12879 0.0
H22 H 0.46429 0.06257 0.12976 0.0
H23 H 0.49618 0.03124 0.15581 0.0
C24 C 0.42651 0.01225 0.18798 0.0
N25 N 0.4364 0.02905 0.18412 0.0
C26 C 0.42647 0.00752 0.19961 0.0
C27 C 0.44689 0.03752 0.20314 0.0
C28 C 0.44663 0.04162 0.19137 0.0
C29 C 0.43666 0.02027 0.2074 0.0
H30 H 0.41866 0.00248 0.18196 0.0
H31 H 0.45453 0.0548 0.18805 0.0
C32 C 0.42226 0.03361 0.12851 0.0
N33 N 0.40574 0.02701 0.10705 0.0
C34 C 0.40132 0.03573 0.12677 0.0
C35 C 0.43485 0.02838 0.11931 0.0
C36 C 0.39324 0.03226 0.11587 0.0
C37 C 0.42619 0.02504 0.10854 0.0
C38 C 0.3873 0.02655 0.16379 0.0
C39 C 0.3743 0.01968 0.15512 0.0
C40 C 0.37937 0.03106 0.17461 0.0
C41 C 0.35351 0.0177 0.15739 0.0
C42 C 0.35848 0.02892 0.17653 0.0
N43 N 0.34609 0.02235 0.16795 0.0
C44 C 0.40616 0.97882 0.15455 0.0
C45 C 0.41392 0.98295 0.13486 0.0
C46 C 0.39576 0.96078 0.15229 0.0
N47 N 0.41453 0.98975 0.14586 0.0
C48 C 0.40348 0.96502 0.13218 0.0
C49 C 0.39378 0.95395 0.14094 0.0
H50 H 0.40713 0.98445 0.16324 0.0
H51 H 0.42104 0.9916 0.12811 0.0
C52 C 0.40705 0.08414 0.13905 0.0
N53 N 0.40016 0.07254 0.14787 0.0
C54 C 0.39498 0.09969 0.13458 0.0
C55 C 0.36904 0.09138 0.1485 0.0
C56 C 0.38164 0.07595 0.15272 0.0
C57 C 0.37561 0.10338 0.13923 0.0
H58 H 0.4219 0.08112 0.13542 0.0
H59 H 0.37654 0.06666 0.15979 0.0
O60 O 0.45229 0.01407 0.15898 0.0
O61 O 0.44285 0.05967 0.16099 0.0
O62 O 0.43056 0.03707 0.13908 0.0
O63 O 0.40775 0.0285 0.16181 0.0
H64 H 0.44894 0.98167 0.17235 0.0
H65 H 0.46747 0.00275 0.13901 0.0
H66 H 0.45788 0.9464 0.16651 0.0
H67 H 0.47615 0.96712 0.13376 0.0
H68 H 0.40314 0.09416 0.18633 0.0
H69 H 0.46741 0.09091 0.16445 0.0
H70 H 0.40956 0.06472 0.17352 0.0
H71 H 0.46003 0.11995 0.17746 0.0
H72 H 0.52918 0.04272 0.14797 0.0
H73 H 0.49641 0.0749 0.12137 0.0
H74 H 0.41874 0.99384 0.20243 0.0
H75 H 0.45481 0.04786 0.20883 0.0
H76 H 0.3914 0.04016 0.13372 0.0
H77 H 0.45112 0.02677 0.12052 0.0
H78 H 0.37705 0.0338 0.1144 0.0
H79 H 0.43573 0.02087 0.10135 0.0
H80 H 0.38019 0.01569 0.14678 0.0
H81 H 0.38922 0.03623 0.18146 0.0
H82 H 0.34328 0.0124 0.15076 0.0
H83 H 0.35213 0.03246 0.18485 0.0
H84 H 0.38898 0.95252 0.15935 0.0
H85 H 0.40232 0.9604 0.1233 0.0
H86 H 0.40086 0.10882 0.12759 0.0
H87 H 0.35418 0.09362 0.15232 0.0
Li88 Li 0.20936 0.20168 0.40024 0.0
Li89 Li 0.21482 0.18176 0.41809 0.0
Li90 Li 0.2321 0.17311 0.40085 0.0
Li91 Li 0.1967 0.1654 0.40196 0.0
C92 C 0.25228 0.20878 0.40692 0.0
N93 N 0.28835 0.22857 0.40182 0.0
C94 C 0.26924 0.20654 0.41406 0.0
C95 C 0.25369 0.22119 0.3972 0.0
C96 C 0.28734 0.21662 0.41132 0.0
C97 C 0.27204 0.23106 0.39478 0.0
C98 C 0.17565 0.20186 0.41698 0.0
C99 C 0.14229 0.20875 0.42468 0.0
N100 N 0.14955 0.22612 0.42955 0.0
C101 C 0.18283 0.2197 0.42211 0.0
C102 C 0.15525 0.19627 0.4183 0.0
C103 C 0.16937 0.2318 0.42841 0.0
C104 C 0.1906 0.2271 0.38427 0.0
N105 N 0.20164 0.22731 0.39412 0.0
C106 C 0.19896 0.26353 0.39531 0.0
C107 C 0.20615 0.24502 0.3996 0.0
C108 C 0.18722 0.26376 0.38525 0.0
C109 C 0.18328 0.24526 0.37962 0.0
H110 H 0.18719 0.21275 0.38014 0.0
H111 H 0.21515 0.24474 0.40736 0.0
C112 C 0.23717 0.17807 0.43772 0.0
N113 N 0.21796 0.1826 0.43425 0.0
C114 C 0.24224 0.17846 0.4493 0.0
C115 C 0.20731 0.18713 0.45368 0.0
C116 C 0.20293 0.18666 0.44195 0.0
C117 C 0.22728 0.18326 0.45745 0.0
H118 H 0.24852 0.17399 0.43143 0.0
H119 H 0.18758 0.18947 0.43904 0.0
C120 C 0.22097 0.17229 0.37959 0.0
N121 N 0.24244 0.15851 0.36079 0.0
C122 C 0.22066 0.15163 0.37671 0.0
C123 C 0.23201 0.18598 0.37286 0.0
C124 C 0.23166 0.14495 0.36719 0.0
C125 C 0.24282 0.1787 0.36339 0.0
C126 C 0.21054 0.14033 0.41929 0.0
C127 C 0.22188 0.12339 0.42276 0.0
C128 C 0.19103 0.14336 0.42379 0.0
C129 C 0.21343 0.10964 0.43056 0.0
C130 C 0.18313 0.12927 0.43158 0.0
N131 N 0.19439 0.11284 0.43477 0.0
C132 C 0.27278 0.17117 0.39049 0.0
C133 C 0.25742 0.14053 0.3968 0.0
C134 C 0.29056 0.16068 0.38752 0.0
N135 N 0.25685 0.16105 0.39532 0.0
C136 C 0.27477 0.1295 0.39395 0.0
C137 C 0.29182 0.1396 0.38947 0.0
H138 H 0.27184 0.18732 0.38897 0.0
H139 H 0.24432 0.13267 0.4002 0.0
C140 C 0.15854 0.15786 0.39281 0.0
N141 N 0.17514 0.14825 0.39716 0.0
C142 C 0.14222 0.1466 0.38854 0.0
C143 C 0.16034 0.11569 0.39337 0.0
C144 C 0.17643 0.12759 0.39746 0.0
C145 C 0.14302 0.12523 0.38876 0.0
H146 H 0.1581 0.17433 0.39258 0.0
H147 H 0.19003 0.12034 0.40073 0.0
O148 O 0.23429 0.19937 0.40961 0.0
O149 O 0.18854 0.18966 0.41087 0.0
O150 O 0.21076 0.179 0.38907 0.0
O151 O 0.21885 0.15403 0.41176 0.0
H152 H 0.2685 0.19717 0.42165 0.0
H153 H 0.24091 0.22299 0.39148 0.0
H154 H 0.30057 0.21497 0.41677 0.0
H155 H 0.27333 0.24062 0.38726 0.0
H156 H 0.12646 0.20461 0.42578 0.0
H157 H 0.19869 0.22391 0.42142 0.0
H158 H 0.14953 0.18239 0.41448 0.0
H159 H 0.17472 0.24563 0.43245 0.0
H160 H 0.2025 0.2775 0.39983 0.0
H161 H 0.1741 0.24476 0.37191 0.0
H162 H 0.25766 0.17478 0.45186 0.0
H163 H 0.19531 0.19076 0.4597 0.0
H164 H 0.21221 0.14085 0.38188 0.0
H165 H 0.23231 0.20203 0.37495 0.0
H166 H 0.23169 0.12899 0.3649 0.0
H167 H 0.25153 0.18909 0.35813 0.0
H168 H 0.2371 0.1209 0.4195 0.0
H169 H 0.18201 0.15638 0.42132 0.0
H170 H 0.22203 0.09646 0.43329 0.0
H171 H 0.16804 0.13142 0.4351 0.0
H172 H 0.3033 0.16904 0.38397 0.0
H173 H 0.27479 0.11316 0.39523 0.0
H174 H 0.12907 0.15453 0.38515 0.0
H175 H 0.16161 0.09925 0.39357 0.0
Li176 Li 0.05166 0.95669 0.65106 0.0
Li177 Li 0.06979 0.96283 0.66906 0.0
Li178 Li 0.07782 0.98214 0.65175 0.0
Li179 Li 0.08694 0.94611 0.65352 0.0
C180 C 0.04642 0.00153 0.66118 0.0
N181 N 0.03696 0.04247 0.66254 0.0
C182 C 0.04807 0.01182 0.67163 0.0
C183 C 0.03979 0.01203 0.65145 0.0
C184 C 0.04324 0.03252 0.67214 0.0
C185 C 0.03515 0.03273 0.6523 0.0
C186 C 0.05525 0.92555 0.67091 0.0
C187 C 0.06011 0.90795 0.68885 0.0
N188 N 0.03966 0.90495 0.6896 0.0
C189 C 0.03428 0.92226 0.67185 0.0
C190 C 0.06829 0.91829 0.67946 0.0
C191 C 0.0267 0.91181 0.68136 0.0
C192 C 0.02511 0.92958 0.64032 0.0
N193 N 0.02664 0.949 0.64423 0.0
C194 C 0.99288 0.95648 0.63786 0.0
C195 C 0.011 0.96243 0.64318 0.0
C196 C 0.99097 0.93656 0.6336 0.0
C197 C 0.00737 0.92302 0.63491 0.0
H198 H 0.03775 0.91918 0.64142 0.0
H199 H 0.01259 0.97774 0.64644 0.0
C200 C 0.08426 0.97242 0.6909 0.0
N201 N 0.06754 0.9657 0.68518 0.0
C202 C 0.08309 0.97687 0.70256 0.0
C203 C 0.04764 0.96687 0.70231 0.0
C204 C 0.0494 0.96294 0.69058 0.0
C205 C 0.06458 0.97424 0.70836 0.0
H206 H 0.09836 0.97491 0.68634 0.0
H207 H 0.03619 0.95822 0.68574 0.0
C208 C 0.06633 0.95511 0.63011 0.0
N209 N 0.04764 0.94343 0.60994 0.0
C210 C 0.0691 0.93541 0.62585 0.0
C211 C 0.05419 0.96892 0.62407 0.0
C212 C 0.0595 0.92979 0.61563 0.0
C213 C 0.04481 0.9627 0.61391 0.0
C214 C 0.1171 0.96544 0.66288 0.0
C215 C 0.12994 0.97524 0.65508 0.0
C216 C 0.1251 0.95094 0.67041 0.0
C217 C 0.15062 0.97023 0.65489 0.0
C218 C 0.14585 0.94633 0.66994 0.0
N219 N 0.15807 0.95599 0.66225 0.0
C220 C 0.09088 0.02264 0.65422 0.0
C221 C 0.09135 0.01027 0.63514 0.0
C222 C 0.09904 0.04123 0.65071 0.0
N223 N 0.08714 0.00772 0.64644 0.0
C224 C 0.09993 0.02846 0.63128 0.0
C225 C 0.10407 0.04424 0.63911 0.0
H226 H 0.08787 0.01997 0.6632 0.0
H227 H 0.0887 0.99793 0.6292 0.0
C228 C 0.10615 0.90757 0.65434 0.0
N229 N 0.10634 0.9261 0.64917 0.0
C230 C 0.11926 0.89222 0.65062 0.0
C231 C 0.13268 0.91539 0.6364 0.0
C232 C 0.11934 0.93032 0.64042 0.0
C233 C 0.13258 0.89594 0.64143 0.0
H234 H 0.09543 0.90453 0.66114 0.0
H235 H 0.11899 0.94516 0.6364 0.0
O236 O 0.05126 0.9813 0.66049 0.0
O237 O 0.06296 0.93582 0.66168 0.0
O238 O 0.07524 0.96077 0.64022 0.0
O239 O 0.09673 0.96975 0.66301 0.0
H240 H 0.05316 0.00397 0.67926 0.0
H241 H 0.03852 0.00433 0.64328 0.0
H242 H 0.04453 0.04069 0.68015 0.0
H243 H 0.03015 0.04108 0.64482 0.0
H244 H 0.07001 0.90236 0.69556 0.0
H245 H 0.02394 0.92784 0.66535 0.0
H246 H 0.08453 0.92085 0.67892 0.0
H247 H 0.0105 0.90921 0.68222 0.0
H248 H 0.98061 0.9674 0.63699 0.0
H249 H 0.0064 0.90743 0.63194 0.0
H250 H 0.09647 0.98251 0.70698 0.0
H251 H 0.03305 0.96494 0.70649 0.0
H252 H 0.07833 0.92447 0.63044 0.0
H253 H 0.05187 0.98421 0.62726 0.0
H254 H 0.06141 0.91456 0.61227 0.0
H255 H 0.03526 0.97318 0.60919 0.0
H256 H 0.12399 0.98643 0.64916 0.0
H257 H 0.11533 0.94317 0.67646 0.0
H258 H 0.16073 0.97761 0.64887 0.0
H259 H 0.15223 0.93505 0.67566 0.0
H260 H 0.10166 0.05294 0.65706 0.0
H261 H 0.10398 0.02974 0.62232 0.0
H262 H 0.11842 0.87736 0.65462 0.0
H263 H 0.1428 0.91895 0.62935 0.0
Li264 Li 0.28146 0.81685 0.91825 0.0
Li265 Li 0.29044 0.79771 0.90098 0.0
Li266 Li 0.29987 0.83342 0.903 0.0
Li267 Li 0.26447 0.82304 0.90006 0.0
C268 C 0.31891 0.80393 0.92196 0.0
N269 N 0.33776 0.7909 0.94183 0.0
C270 C 0.32228 0.78317 0.92381 0.0
C271 C 0.32518 0.81807 0.9302 0.0
C272 C 0.33185 0.77689 0.93391 0.0
C273 C 0.33464 0.81117 0.9402 0.0
C274 C 0.24414 0.79318 0.90922 0.0
C275 C 0.21415 0.78141 0.8993 0.0
N276 N 0.20271 0.78599 0.90867 0.0
C277 C 0.23211 0.79769 0.91877 0.0
C278 C 0.23514 0.78488 0.89942 0.0
C279 C 0.21118 0.79396 0.91831 0.0
C280 C 0.27088 0.83307 0.93965 0.0
N281 N 0.27719 0.81581 0.93433 0.0
C282 C 0.27604 0.79736 0.95196 0.0
C283 C 0.27956 0.79806 0.94017 0.0
C284 C 0.26958 0.81502 0.95774 0.0
C285 C 0.26695 0.83303 0.95139 0.0
H286 H 0.26854 0.84683 0.93475 0.0
H287 H 0.28412 0.78442 0.93565 0.0
C288 C 0.32081 0.7722 0.89295 0.0
N289 N 0.30053 0.77266 0.89522 0.0
C290 C 0.32982 0.75457 0.88869 0.0
C291 C 0.29689 0.7381 0.88915 0.0
C292 C 0.28848 0.75613 0.89343 0.0
C293 C 0.31787 0.73716 0.8868 0.0
H294 H 0.32997 0.78562 0.89447 0.0
H295 H 0.27241 0.75692 0.89537 0.0
C296 C 0.27856 0.86365 0.91105 0.0
N297 N 0.28649 0.90495 0.91027 0.0
C298 C 0.26916 0.87586 0.90278 0.0
C299 C 0.29194 0.87245 0.91894 0.0
C300 C 0.27336 0.89672 0.90253 0.0
C301 C 0.29578 0.89335 0.91839 0.0
C302 C 0.29496 0.81077 0.87994 0.0
C303 C 0.31496 0.81454 0.87643 0.0
C304 C 0.28298 0.7969 0.87384 0.0
C305 C 0.32269 0.80424 0.8669 0.0
C306 C 0.29129 0.78688 0.86437 0.0
N307 N 0.3108 0.79072 0.86113 0.0
C308 C 0.33833 0.85241 0.90454 0.0
C309 C 0.31623 0.86647 0.89055 0.0
C310 C 0.35386 0.86569 0.90128 0.0
N311 N 0.32002 0.853 0.89914 0.0
C312 C 0.33133 0.88006 0.88702 0.0
C313 C 0.35054 0.87962 0.89233 0.0
H314 H 0.34109 0.84125 0.91115 0.0
H315 H 0.3016 0.86635 0.88629 0.0
C316 C 0.2258 0.84021 0.90114 0.0
N317 N 0.23943 0.83186 0.89375 0.0
C318 C 0.20841 0.84989 0.89699 0.0
C319 C 0.21903 0.84151 0.87772 0.0
C320 C 0.23626 0.83198 0.88225 0.0
C321 C 0.20512 0.85112 0.88512 0.0
H322 H 0.229 0.84022 0.91023 0.0
H323 H 0.24752 0.82549 0.87657 0.0
O324 O 0.30946 0.81039 0.91216 0.0
O325 O 0.2646 0.79707 0.90943 0.0
O326 O 0.27494 0.84313 0.91131 0.0
O327 O 0.28725 0.82036 0.8894 0.0
H328 H 0.3174 0.77198 0.91759 0.0
H329 H 0.32254 0.83417 0.92895 0.0
H330 H 0.3345 0.76087 0.93548 0.0
H331 H 0.33946 0.82193 0.94667 0.0
H332 H 0.20696 0.77513 0.89174 0.0
H333 H 0.23881 0.80416 0.92642 0.0
H334 H 0.24422 0.78142 0.89194 0.0
H335 H 0.20166 0.79745 0.92562 0.0
H336 H 0.27842 0.78316 0.95648 0.0
H337 H 0.26148 0.84687 0.95538 0.0
H338 H 0.34597 0.75464 0.88682 0.0
H339 H 0.28717 0.72496 0.88791 0.0
H340 H 0.25891 0.86931 0.89653 0.0
H341 H 0.29944 0.8632 0.92535 0.0
H342 H 0.26625 0.90634 0.89616 0.0
H343 H 0.30618 0.90034 0.92441 0.0
H344 H 0.3245 0.82511 0.88108 0.0
H345 H 0.26753 0.79368 0.87649 0.0
H346 H 0.33817 0.80693 0.86412 0.0
H347 H 0.28224 0.77599 0.85963 0.0
H348 H 0.36855 0.86451 0.90546 0.0
H349 H 0.32807 0.89062 0.88013 0.0
H350 H 0.19833 0.85738 0.90301 0.0
H351 H 0.21699 0.84195 0.86851 0.0
Li352 Li 0.42544 0.98299 0.34833 0.0
Li353 Li 0.41557 0.94756 0.34489 0.0
Li354 Li 0.45118 0.95745 0.34692 0.0
Li355 Li 0.43171 0.96699 0.32989 0.0
C356 C 0.43853 0.95128 0.36782 0.0
N357 N 0.4593 0.93395 0.38596 0.0
C358 C 0.43509 0.93093 0.37077 0.0
C359 C 0.45244 0.96285 0.37413 0.0
C360 C 0.44575 0.92245 0.37997 0.0
C361 C 0.46283 0.95379 0.38326 0.0
C362 C 0.38486 0.969 0.33713 0.0
C363 C 0.35545 0.95129 0.32975 0.0
N364 N 0.34357 0.96087 0.33763 0.0
C365 C 0.37235 0.97869 0.34514 0.0
C366 C 0.37635 0.95522 0.32934 0.0
C367 C 0.35152 0.97438 0.34525 0.0
C368 C 0.40754 0.02135 0.3479 0.0
N369 N 0.41666 0.00777 0.35503 0.0
C370 C 0.4093 0.02862 0.37126 0.0
C371 C 0.41798 0.01115 0.36649 0.0
C372 C 0.39899 0.04255 0.36417 0.0
C373 C 0.39857 0.03892 0.3523 0.0
H374 H 0.40651 0.01807 0.33884 0.0
H375 H 0.42519 -0.0 0.37196 0.0
C376 C 0.39882 0.9081 0.3437 0.0
N377 N 0.39647 0.92679 0.3485 0.0
C378 C 0.38588 0.89216 0.34675 0.0
C379 C 0.36814 0.91508 0.35952 0.0
C380 C 0.3816 0.93052 0.35632 0.0
C381 C 0.3703 0.89547 0.35481 0.0
H382 H 0.41111 0.90541 0.33774 0.0
H383 H 0.38041 0.94541 0.36021 0.0
C384 C 0.45479 0.00423 0.33938 0.0
N385 N 0.46103 0.04579 0.34054 0.0
C386 C 0.44966 0.01664 0.33009 0.0
C387 C 0.46319 0.01292 0.34925 0.0
C388 C 0.45293 0.03762 0.33085 0.0
C389 C 0.46618 0.03398 0.34967 0.0
C390 C 0.44496 0.93021 0.32545 0.0
C391 C 0.46574 0.92841 0.32305 0.0
C392 C 0.43066 0.92336 0.31745 0.0
C393 C 0.47186 0.91984 0.31264 0.0
C394 C 0.43739 0.91492 0.30714 0.0
N395 N 0.45768 0.91335 0.30497 0.0
C396 C 0.47761 0.9269 0.35376 0.0
C397 C 0.49252 0.95973 0.35485 0.0
C398 C 0.49544 0.91793 0.3578 0.0
N399 N 0.47649 0.9474 0.35237 0.0
C400 C 0.51069 0.9514 0.35899 0.0
C401 C 0.51231 0.93021 0.36044 0.0
H402 H 0.46455 0.91751 0.35174 0.0
H403 H 0.49122 0.97599 0.35361 0.0
C404 C 0.4153 0.97661 0.30829 0.0
N405 N 0.43285 0.97201 0.31389 0.0
C406 C 0.41562 0.98122 0.29663 0.0
C407 C 0.45212 0.97637 0.2967 0.0
C408 C 0.45109 0.97196 0.30839 0.0
C409 C 0.43421 0.98115 0.29066 0.0
H410 H 0.40109 0.97709 0.31293 0.0
H411 H 0.46487 0.96868 0.31312 0.0
O412 O 0.42863 0.95971 0.35865 0.0
O413 O 0.40535 0.97279 0.33697 0.0
O414 O 0.45131 0.98371 0.33891 0.0
O415 O 0.43865 0.93882 0.33551 0.0
H416 H 0.42448 0.92171 0.36594 0.0
H417 H 0.45546 0.97854 0.37189 0.0
H418 H 0.44331 0.9067 0.38232 0.0
H419 H 0.47376 0.96251 0.38816 0.0
H420 H 0.34869 0.94058 0.32382 0.0
H421 H 0.37866 0.98922 0.35132 0.0
H422 H 0.38581 0.94748 0.32314 0.0
H423 H 0.34168 0.9817 0.35144 0.0
H424 H 0.41021 0.03091 0.38044 0.0
H425 H 0.39051 0.04897 0.34651 0.0
H426 H 0.38853 0.87724 0.34309 0.0
H427 H 0.3563 0.91846 0.36568 0.0
H428 H 0.44305 0.0102 0.32241 0.0
H429 H 0.46703 0.00357 0.35656 0.0
H430 H 0.44896 0.04743 0.32374 0.0
H431 H 0.47253 0.04093 0.35728 0.0
H432 H 0.47703 0.93379 0.32908 0.0
H433 H 0.41453 0.92472 0.31915 0.0
H434 H 0.48789 0.91843 0.31065 0.0
H435 H 0.42649 0.90966 0.30085 0.0
H436 H 0.49595 0.90157 0.35895 0.0
H437 H 0.52342 0.96136 0.36084 0.0
H438 H 0.4015 0.98527 0.29242 0.0
H439 H 0.46676 0.97599 0.29244 0.0
Li440 Li 0.26492 0.1719 0.59698 0.0
Li441 Li 0.30081 0.16224 0.59479 0.0
Li442 Li 0.29083 0.19781 0.59673 0.0
Li443 Li 0.28352 0.17859 0.57922 0.0
C444 C 0.2927 0.18414 0.61805 0.0
N445 N 0.30452 0.20335 0.63804 0.0
C446 C 0.3124 0.18139 0.62233 0.0
C447 C 0.27896 0.1965 0.62399 0.0
C448 C 0.31809 0.19126 0.63244 0.0
C449 C 0.28525 0.20614 0.63406 0.0
C450 C 0.28071 0.13171 0.58645 0.0
C451 C 0.29982 0.10243 0.58011 0.0
N452 N 0.28988 0.09073 0.58794 0.0
C453 C 0.27063 0.11939 0.5944 0.0
C454 C 0.29536 0.12318 0.57921 0.0
C455 C 0.27549 0.0987 0.59502 0.0
C456 C 0.22367 0.16042 0.59573 0.0
N457 N 0.23959 0.16326 0.603 0.0
C458 C 0.22042 0.14974 0.61861 0.0
C459 C 0.23827 0.15831 0.61427 0.0
C460 C 0.20368 0.14642 0.6113 0.0
C461 C 0.20538 0.15239 0.59976 0.0
H462 H 0.22535 0.16391 0.58674 0.0
H463 H 0.25136 0.16021 0.61978 0.0
C464 C 0.33914 0.1426 0.59393 0.0
N465 N 0.3208 0.14292 0.5993 0.0
C466 C 0.35443 0.12944 0.59769 0.0
C467 C 0.33159 0.11706 0.61237 0.0
C468 C 0.31672 0.13044 0.60831 0.0
C469 C 0.35084 0.11661 0.60712 0.0
H470 H 0.34206 0.15291 0.58691 0.0
H471 H 0.30201 0.13118 0.61246 0.0
C472 C 0.2457 0.20358 0.58727 0.0
N473 N 0.20522 0.21498 0.5864 0.0
C474 C 0.23476 0.2018 0.57704 0.0
C475 C 0.23608 0.21128 0.59704 0.0
C476 C 0.21431 0.20763 0.57677 0.0
C477 C 0.21559 0.21691 0.59643 0.0
C478 C 0.32034 0.19301 0.57639 0.0
C479 C 0.32275 0.214 0.57492 0.0
C480 C 0.32743 0.17964 0.56796 0.0
C481 C 0.33215 0.22128 0.565 0.0
C482 C 0.3367 0.18753 0.55815 0.0
N483 N 0.33886 0.20801 0.55688 0.0
C484 C 0.31857 0.22422 0.60703 0.0
C485 C 0.28625 0.23919 0.60368 0.0
C486 C 0.32554 0.242 0.61223 0.0
N487 N 0.29918 0.22306 0.60303 0.0
C488 C 0.29265 0.25739 0.60873 0.0
C489 C 0.31248 0.25886 0.61317 0.0
H490 H 0.32859 0.21122 0.60623 0.0
H491 H 0.27099 0.23791 0.60031 0.0
C492 C 0.27479 0.16256 0.55751 0.0
N493 N 0.27993 0.17996 0.5631 0.0
C494 C 0.26995 0.16308 0.54588 0.0
C495 C 0.27614 0.19938 0.54592 0.0
C496 C 0.28075 0.19818 0.55758 0.0
C497 C 0.27034 0.1817 0.53997 0.0
H498 H 0.27391 0.14835 0.56214 0.0
H499 H 0.28436 0.21186 0.56233 0.0
O500 O 0.28696 0.17494 0.60804 0.0
O501 O 0.27653 0.1521 0.58589 0.0
O502 O 0.26573 0.19788 0.58771 0.0
O503 O 0.311 0.18558 0.586 0.0
H504 H 0.32326 0.17195 0.61781 0.0
H505 H 0.26365 0.19874 0.62081 0.0
H506 H 0.33332 0.18937 0.63582 0.0
H507 H 0.27482 0.21585 0.6387 0.0
H508 H 0.31123 0.09566 0.57462 0.0
H509 H 0.25929 0.12575 0.60009 0.0
H510 H 0.30341 0.13254 0.57306 0.0
H511 H 0.26787 0.089 0.60116 0.0
H512 H 0.22017 0.14497 0.62749 0.0
H513 H 0.1929 0.15048 0.5938 0.0
H514 H 0.36915 0.12984 0.59351 0.0
H515 H 0.32812 0.10732 0.6196 0.0
H516 H 0.24191 0.19583 0.5694 0.0
H517 H 0.24429 0.21271 0.60503 0.0
H518 H 0.20564 0.20625 0.56893 0.0
H519 H 0.20793 0.22278 0.60394 0.0
H520 H 0.31729 0.22457 0.58133 0.0
H521 H 0.32553 0.16336 0.56892 0.0
H522 H 0.33406 0.23749 0.56373 0.0
H523 H 0.34214 0.17737 0.55152 0.0
H524 H 0.34106 0.24264 0.61536 0.0
H525 H 0.28213 0.27005 0.6093 0.0
H526 H 0.26573 0.14907 0.54158 0.0
H527 H 0.27637 0.21408 0.54171 0.0
Li528 Li 0.07876 0.05208 0.84515 0.0
Li529 Li 0.07161 0.01663 0.84799 0.0
Li530 Li 0.06271 0.03165 0.82991 0.0
Li531 Li 0.04235 0.03888 0.84778 0.0
C532 C 0.10569 0.03512 0.82951 0.0
N533 N 0.13672 0.04842 0.81536 0.0
C534 C 0.12508 0.0264 0.83027 0.0
C535 C 0.10208 0.05046 0.82148 0.0
C536 C 0.14057 0.03338 0.82307 0.0
C537 C 0.11794 0.057 0.81441 0.0
C538 C 0.06944 0.03008 0.86892 0.0
C539 C 0.05934 0.00744 0.88414 0.0
N540 N 0.07778 0.01022 0.88923 0.0
C541 C 0.08824 0.0328 0.8743 0.0
C542 C 0.05481 0.01739 0.87387 0.0
C543 C 0.09218 0.02259 0.88457 0.0
C544 C 0.08795 0.09304 0.84927 0.0
N545 N 0.09625 0.07414 0.84856 0.0
C546 C 0.12915 0.08721 0.8533 0.0
C547 C 0.11638 0.0709 0.85057 0.0
C548 C 0.12104 0.10699 0.85399 0.0
C549 C 0.10013 0.10977 0.85193 0.0
H550 H 0.07179 0.09506 0.84787 0.0
H551 H 0.12248 0.05562 0.85013 0.0
C552 C 0.07482 0.97539 0.8576 0.0
N553 N 0.08409 0.99325 0.85479 0.0
C554 C 0.08643 0.95871 0.86119 0.0
C555 C 0.11661 0.9796 0.85975 0.0
C556 C 0.10447 0.99576 0.85617 0.0
C557 C 0.1077 0.96058 0.86197 0.0
H558 H 0.05855 0.97383 0.85685 0.0
H559 H 0.11133 0.01034 0.85429 0.0
C560 C 0.04534 0.07262 0.82899 0.0
N561 N 0.02814 0.10107 0.81443 0.0
C562 C 0.02441 0.07233 0.82681 0.0
C563 C 0.05746 0.08763 0.8239 0.0
C564 C 0.01601 0.08678 0.81939 0.0
C565 C 0.0485 0.10179 0.81652 0.0
C566 C 0.03839 0.99387 0.83973 0.0
C567 C 0.04577 0.97918 0.83212 0.0
C568 C 0.02319 0.98865 0.84759 0.0
C569 C 0.03788 0.95943 0.83255 0.0
C570 C 0.01568 0.96874 0.84773 0.0
N571 N 0.02312 0.95467 0.84027 0.0
C572 C 0.07373 0.0114 0.80995 0.0
C573 C 0.04808 0.03614 0.80673 0.0
C574 C 0.07336 0.00574 0.79844 0.0
N575 N 0.06117 0.02631 0.81387 0.0
C576 C 0.0474 0.03116 0.7951 0.0
C577 C 0.06007 0.01568 0.79087 0.0
H578 H 0.08396 0.00379 0.81582 0.0
H579 H 0.038 0.04767 0.81001 0.0
C580 C 0.0158 0.05687 0.86349 0.0
N581 N 0.01649 0.04516 0.85391 0.0
C582 C 0.9971 0.06254 0.86817 0.0
C583 C 0.98019 0.0438 0.85307 0.0
C584 C -0.00076 0.03842 0.84871 0.0
C585 C 0.97896 0.05615 0.86288 0.0
H586 H 0.02983 0.06202 0.86741 0.0
H587 H 0.0003 0.02908 0.84109 0.0
O588 O 0.09045 0.02865 0.83665 0.0
O589 O 0.06543 0.03961 0.85875 0.0
O590 O 0.05379 0.05866 0.83632 0.0
O591 O 0.04555 0.0134 0.83927 0.0
H592 H 0.12819 0.01438 0.83636 0.0
H593 H 0.08714 0.05709 0.82064 0.0
H594 H 0.15566 0.02683 0.82361 0.0
H595 H 0.11531 0.06888 0.80815 0.0
H596 H 0.04822 0.99748 0.88806 0.0
H597 H 0.09972 0.04257 0.87054 0.0
H598 H 0.0402 0.01512 0.86977 0.0
H599 H 0.1067 0.02447 0.88883 0.0
H600 H 0.14518 0.08439 0.8548 0.0
H601 H 0.09316 0.12467 0.8526 0.0
H602 H 0.07893 0.94435 0.86291 0.0
H603 H 0.13287 0.98191 0.8606 0.0
H604 H 0.01478 0.06088 0.83064 0.0
H605 H 0.0736 0.08846 0.82565 0.0
H606 H -0.00013 0.0866 0.81756 0.0
H607 H 0.05772 0.11341 0.81249 0.0
H608 H 0.0575 0.98294 0.82599 0.0
H609 H 0.01737 -0.00022 0.85358 0.0
H610 H 0.04348 0.9479 0.82673 0.0
H611 H 0.00396 0.96448 0.85378 0.0
H612 H 0.0835 0.99385 0.79546 0.0
H613 H 0.03681 0.03903 0.78953 0.0
H614 H 0.99685 0.0723 0.87565 0.0
H615 H 0.96658 0.0384 0.84879 0.0
Li616 Li 0.19751 0.83392 0.09598 0.0
Li617 Li 0.23321 0.8233 0.09909 0.0
Li618 Li 0.2177 0.81718 0.08068 0.0
Li619 Li 0.20761 0.79817 0.09808 0.0
C620 C 0.21799 0.86087 0.08199 0.0
N621 N 0.20822 0.8957 0.0699 0.0
C622 C 0.22859 0.87896 0.08402 0.0
C623 C 0.20242 0.86047 0.07383 0.0
C624 C 0.22343 0.89642 0.07782 0.0
C625 C 0.19772 0.87824 0.0678 0.0
C626 C 0.20172 0.81142 0.11906 0.0
C627 C 0.2041 0.78721 0.13455 0.0
N628 N 0.18469 0.7918 0.13769 0.0
C629 C 0.18185 0.81601 0.12249 0.0
C630 C 0.21301 0.79702 0.12519 0.0
C631 C 0.1735 0.80589 0.13191 0.0
C632 C 0.1573 0.84737 0.09759 0.0
N633 N 0.17693 0.85331 0.09909 0.0
C634 C 0.16619 0.88594 0.10587 0.0
C635 C 0.18167 0.87215 0.10312 0.0
C636 C 0.14573 0.8802 0.10441 0.0
C637 C 0.1414 0.86065 0.10016 0.0
H638 H 0.154 0.83211 0.09466 0.0
H639 H 0.19745 0.87635 0.10433 0.0
C640 C 0.27117 0.842 0.09855 0.0
N641 N 0.25792 0.83242 0.10567 0.0
C642 C 0.28872 0.85109 0.10292 0.0
C643 C 0.27889 0.83978 0.12186 0.0
C644 C 0.26151 0.83089 0.1171 0.0
C645 C 0.29254 0.85042 0.11477 0.0
H646 H 0.26773 0.84314 0.0895 0.0
H647 H 0.2506 0.82333 0.12257 0.0
C648 C 0.17714 0.80143 0.0786 0.0
N649 N 0.15153 0.7824 0.06314 0.0
C650 C 0.17829 0.78036 0.07696 0.0
C651 C 0.16291 0.8128 0.07239 0.0
C652 C 0.16521 0.77103 0.06911 0.0
C653 C 0.15014 0.80291 0.0646 0.0
C654 C 0.25423 0.79343 0.09095 0.0
C655 C 0.26757 0.79781 0.08195 0.0
C656 C 0.26186 0.78525 0.10115 0.0
C657 C 0.28839 0.79417 0.08336 0.0
C658 C 0.28278 0.78186 0.10223 0.0
N659 N 0.2955 0.78637 0.09339 0.0
C660 C 0.23743 0.83028 0.06071 0.0
C661 C 0.21431 0.80326 0.05737 0.0
C662 C 0.24289 0.8306 0.04915 0.0
N663 N 0.22329 0.81681 0.06459 0.0
C664 C 0.21917 0.80316 0.04573 0.0
C665 C 0.23371 0.81691 0.04147 0.0
H666 H 0.24481 0.84054 0.06665 0.0
H667 H 0.20355 0.79234 0.0606 0.0
C668 C 0.17689 0.7727 0.10601 0.0
N669 N 0.19715 0.77311 0.10369 0.0
C670 C 0.16774 0.75488 0.10992 0.0
C671 C 0.20052 0.73816 0.10905 0.0
C672 C 0.20905 0.75636 0.10512 0.0
C673 C 0.17955 0.73725 0.11142 0.0
H674 H 0.16782 0.78627 0.10474 0.0
H675 H 0.22509 0.75708 0.10309 0.0
O676 O 0.22261 0.84378 0.08816 0.0
O677 O 0.21001 0.82084 0.10969 0.0
O678 O 0.18954 0.81086 0.08642 0.0
O679 O 0.23386 0.79733 0.08983 0.0
H680 H 0.24062 0.87951 0.09036 0.0
H681 H 0.19407 0.8466 0.07218 0.0
H682 H 0.23148 0.91054 0.07931 0.0
H683 H 0.1857 0.87815 0.06146 0.0
H684 H 0.2126 0.7759 0.13931 0.0
H685 H 0.17291 0.82714 0.11788 0.0
H686 H 0.22837 0.79323 0.12265 0.0
H687 H 0.1581 0.80922 0.13462 0.0
H688 H 0.17017 0.90088 0.1091 0.0
H689 H 0.12586 0.85542 0.09916 0.0
H690 H 0.29862 0.8594 0.09716 0.0
H691 H 0.28135 0.83875 0.13102 0.0
H692 H 0.18941 0.77132 0.08151 0.0
H693 H 0.1617 0.8291 0.07356 0.0
H694 H 0.16601 0.75476 0.06772 0.0
H695 H 0.13909 0.81153 0.05972 0.0
H696 H 0.26195 0.80402 0.07398 0.0
H697 H 0.25179 0.78181 0.10821 0.0
H698 H 0.29889 0.79759 0.07648 0.0
H699 H 0.2889 0.77569 0.11011 0.0
H700 H 0.2545 0.84118 0.04634 0.0
H701 H 0.21152 0.79244 0.04015 0.0
H702 H 0.15158 0.75494 0.1118 0.0
H703 H 0.21011 0.72484 0.10998 0.0
Li704 Li 0.56243 0.96422 0.82878 0.0
Li705 Li 0.57207 0.97903 0.84725 0.0
Li706 Li 0.57606 0.94369 0.84438 0.0
Li707 Li 0.54192 0.95758 0.84729 0.0
C708 C 0.60886 0.96131 0.83261 0.0
N709 N 0.64834 0.95256 0.82606 0.0
C710 C 0.62511 0.96579 0.83993 0.0
C711 C 0.61274 0.9527 0.82187 0.0
C712 C 0.64494 0.96115 0.83649 0.0
C713 C 0.63279 0.94831 0.81874 0.0
C714 C 0.54295 0.00341 0.84088 0.0
C715 C 0.53026 0.02994 0.85324 0.0
N716 N 0.5381 0.04417 0.846 0.0
C717 C 0.5508 0.01826 0.83353 0.0
C718 C 0.53254 0.00923 0.85079 0.0
C719 C 0.54822 0.03881 0.83629 0.0
C720 C 0.54499 0.96237 0.80657 0.0
N721 N 0.56066 0.9697 0.81296 0.0
C722 C 0.57413 0.98755 0.79685 0.0
C723 C 0.57503 0.98213 0.80838 0.0
C724 C 0.55798 0.9805 0.78999 0.0
C725 C 0.54331 0.96765 0.795 0.0
H726 H 0.53364 0.95272 0.81053 0.0
H727 H 0.58717 0.98793 0.81374 0.0
C728 C 0.57943 0.01066 0.86386 0.0
N729 N 0.58412 0.0031 0.85334 0.0
C730 C 0.58972 0.02769 0.86809 0.0
C731 C 0.60842 0.02959 0.85028 0.0
C732 C 0.59798 0.01241 0.84646 0.0
C733 C 0.60461 0.03719 0.86131 0.0
H734 H 0.56784 0.00344 0.869 0.0
H735 H 0.60111 0.0063 0.83804 0.0
C736 C 0.55416 0.91815 0.83261 0.0
N737 N 0.56199 0.87749 0.82847 0.0
C738 C 0.54744 0.90333 0.84033 0.0
C739 C 0.56469 0.91232 0.82274 0.0
C740 C 0.55161 0.88285 0.8381 0.0
C741 C 0.56853 0.89167 0.82081 0.0
C742 C 0.57356 0.96043 0.86844 0.0
C743 C 0.59471 0.95931 0.86957 0.0
C744 C 0.56157 0.96484 0.87801 0.0
C745 C 0.60357 0.96288 0.88027 0.0
C746 C 0.571 0.96831 0.88857 0.0
N747 N 0.59163 0.96728 0.88947 0.0
C748 C 0.60575 0.91146 0.84114 0.0
C749 C 0.58801 0.91184 0.8588 0.0
C750 C 0.61703 0.89451 0.84463 0.0
N751 N 0.59186 0.92003 0.84832 0.0
C752 C 0.59891 0.89494 0.86263 0.0
C753 C 0.61382 0.88618 0.85557 0.0
H754 H 0.608 0.91755 0.83267 0.0
H755 H 0.57633 0.91835 0.86419 0.0
C756 C 0.49908 0.96092 0.84847 0.0
N757 N 0.51587 0.95259 0.8534 0.0
C758 C 0.47973 0.95645 0.85277 0.0
C759 C 0.49548 0.93519 0.8672 0.0
C760 C 0.51448 0.94002 0.86261 0.0
C761 C 0.47777 0.94333 0.86222 0.0
H762 H 0.50074 0.97087 0.84114 0.0
H763 H 0.52816 0.9335 0.86626 0.0
O764 O 0.58936 0.96613 0.83573 0.0
O765 O 0.54587 0.98324 0.83853 0.0
O766 O 0.55085 0.9383 0.83483 0.0
O767 O 0.56456 0.95699 0.85805 0.0
H768 H 0.62247 0.97297 0.84814 0.0
H769 H 0.60037 0.94915 0.81608 0.0
H770 H 0.65765 0.96448 0.84209 0.0
H771 H 0.63599 0.94148 0.81049 0.0
H772 H 0.52234 0.03469 0.86091 0.0
H773 H 0.55899 0.01395 0.82586 0.0
H774 H 0.52651 0.99788 0.8566 0.0
H775 H 0.55431 0.05049 0.83072 0.0
H776 H 0.58602 0.99714 0.79338 0.0
H777 H 0.53043 0.96207 0.79014 0.0
H778 H 0.58616 0.0333 0.87659 0.0
H779 H 0.61987 0.03641 0.84481 0.0
H780 H 0.53934 0.90765 0.84804 0.0
H781 H 0.57003 0.92365 0.8167 0.0
H782 H 0.54666 0.87121 0.84404 0.0
H783 H 0.57678 0.88693 0.81324 0.0
H784 H 0.60414 0.95558 0.86229 0.0
H785 H 0.54516 0.96571 0.87727 0.0
H786 H 0.61993 0.96209 0.88127 0.0
H787 H 0.56193 0.97184 0.89605 0.0
H788 H 0.62829 0.88817 0.83886 0.0
H789 H 0.5955 0.88867 0.871 0.0
H790 H 0.46648 0.96317 0.84874 0.0
H791 H 0.49466 0.92475 0.87437 0.0
Li792 Li 0.80772 0.83121 0.59498 0.0
Li793 Li 0.79159 0.79579 0.59817 0.0
Li794 Li 0.78796 0.81447 0.57998 0.0
Li795 Li 0.7707 0.826 0.5963 0.0
C796 C 0.82475 0.80051 0.57761 0.0
N797 N 0.84566 0.79236 0.55759 0.0
C798 C 0.82345 0.78127 0.57255 0.0
C799 C 0.8367 0.81561 0.5725 0.0
C800 C 0.83412 0.77745 0.56242 0.0
C801 C 0.84716 0.81118 0.56238 0.0
C802 C 0.78127 0.82713 0.61763 0.0
C803 C 0.75595 0.82212 0.63232 0.0
N804 N 0.75883 0.84162 0.63591 0.0
C805 C 0.78403 0.8471 0.62148 0.0
C806 C 0.76715 0.8145 0.62309 0.0
C807 C 0.77252 0.85415 0.63073 0.0
C808 C 0.82761 0.86818 0.60046 0.0
N809 N 0.83013 0.84785 0.59877 0.0
C810 C 0.86571 0.85043 0.60265 0.0
C811 C 0.84863 0.83882 0.59987 0.0
C812 C 0.86366 0.8715 0.6044 0.0
C813 C 0.84428 0.88038 0.60331 0.0
H814 H 0.81264 0.87489 0.59956 0.0
H815 H 0.85008 0.82257 0.59858 0.0
C816 C 0.79576 0.753 0.59916 0.0
N817 N 0.79616 0.77044 0.60541 0.0
C818 C 0.80138 0.73451 0.60417 0.0
C819 C 0.8066 0.75219 0.6221 0.0
C820 C 0.80121 0.77035 0.6167 0.0
C821 C 0.80724 0.73396 0.61578 0.0
H822 H 0.79164 0.75356 0.59019 0.0
H823 H 0.80152 0.78449 0.62144 0.0
C824 C 0.78374 0.8563 0.57679 0.0
N825 N 0.77858 0.88387 0.55913 0.0
C826 C 0.76457 0.85896 0.5718 0.0
C827 C 0.80023 0.86787 0.57291 0.0
C828 C 0.76229 0.87291 0.56285 0.0
C829 C 0.79732 0.88167 0.56394 0.0
C830 C 0.74723 0.7945 0.58803 0.0
C831 C 0.73465 0.8047 0.58026 0.0
C832 C 0.73913 0.77919 0.59499 0.0
C833 C 0.71401 0.79964 0.57971 0.0
C834 C 0.71841 0.77455 0.59417 0.0
N835 N 0.70638 0.78481 0.58662 0.0
C836 C 0.77314 0.79518 0.56018 0.0
C837 C 0.79438 0.82345 0.55618 0.0
C838 C 0.76841 0.79307 0.54858 0.0
N839 N 0.78537 0.81062 0.56378 0.0
C840 C 0.78998 0.82199 0.54452 0.0
C841 C 0.77641 0.80697 0.54064 0.0
H842 H 0.76655 0.78485 0.56635 0.0
H843 H 0.80467 0.8351 0.55915 0.0
C844 C 0.74791 0.86058 0.60049 0.0
N845 N 0.7468 0.83999 0.60143 0.0
C846 C 0.73121 0.87267 0.60325 0.0
C847 C 0.71263 0.84227 0.60841 0.0
C848 C 0.7298 0.83073 0.60559 0.0
C849 C 0.71311 0.86353 0.60705 0.0
H850 H 0.76181 0.86765 0.59755 0.0
H851 H 0.72947 0.81443 0.6067 0.0
O852 O 0.81399 0.80472 0.58736 0.0
O853 O 0.79195 0.82014 0.60838 0.0
O854 O 0.78625 0.84293 0.58566 0.0
O855 O 0.7675 0.79907 0.58863 0.0
H856 H 0.81416 0.76947 0.57634 0.0
H857 H 0.83762 0.83069 0.5762 0.0
H858 H 0.8332 0.76265 0.55838 0.0
H859 H 0.85638 0.82276 0.5583 0.0
H860 H 0.74488 0.81257 0.63659 0.0
H861 H 0.79482 0.85708 0.61729 0.0
H862 H 0.76465 0.79909 0.62012 0.0
H863 H 0.77443 0.86959 0.63377 0.0
H864 H 0.88029 0.84291 0.6036 0.0
H865 H 0.84208 0.89658 0.60454 0.0
H866 H 0.80185 0.72098 0.59887 0.0
H867 H 0.81053 0.75255 0.63111 0.0
H868 H 0.75157 0.85045 0.57485 0.0
H869 H 0.81517 0.86601 0.57667 0.0
H870 H 0.74755 0.87508 0.55889 0.0
H871 H 0.80998 0.89061 0.56079 0.0
H872 H 0.74077 0.81633 0.57469 0.0
H873 H 0.74873 0.77106 0.60099 0.0
H874 H 0.70408 0.80747 0.57376 0.0
H875 H 0.71188 0.76281 0.59953 0.0
H876 H 0.7579 0.78124 0.54595 0.0
H877 H 0.79686 0.83271 0.53862 0.0
H878 H 0.73253 0.88904 0.60243 0.0
H879 H 0.69904 0.83459 0.6114 0.0
Li880 Li 0.91854 0.05469 0.34447 0.0
Li881 Li 0.95236 0.0391 0.34686 0.0
Li882 Li 0.93333 0.0323 0.32955 0.0
Li883 Li 0.92263 0.01895 0.34747 0.0
C884 C 0.95647 0.075 0.33592 0.0
N885 N 0.9838 0.1067 0.33836 0.0
C886 C 0.95722 0.08609 0.34614 0.0
C887 C 0.96959 0.08004 0.32693 0.0
C888 C 0.97117 0.10204 0.34721 0.0
C889 C 0.98329 0.09614 0.32833 0.0
C890 C 0.92749 0.03129 0.36828 0.0
C891 C 0.9383 0.00591 0.38193 0.0
N892 N 0.92141 0.00973 0.38832 0.0
C893 C 0.91029 0.03504 0.37501 0.0
C894 C 0.94166 0.01667 0.37178 0.0
C895 C 0.90747 0.02395 0.38511 0.0
C896 C 0.88413 0.07342 0.35343 0.0
N897 N 0.90128 0.07725 0.34729 0.0
C898 C 0.89283 0.11255 0.34603 0.0
C899 C 0.90558 0.09623 0.34332 0.0
C900 C 0.87543 0.10921 0.35279 0.0
C901 C 0.87096 0.08926 0.35633 0.0
H902 H 0.88077 0.05802 0.35611 0.0
H903 H 0.91898 0.09876 0.33815 0.0
C904 C 0.9949 0.04256 0.34511 0.0
N905 N 0.97895 0.04426 0.35246 0.0
C906 C 0.01439 0.0485 0.34855 0.0
C907 C 0.00069 0.05715 0.36717 0.0
C908 C 0.98146 0.05123 0.36333 0.0
C909 C 0.0174 0.0561 0.35968 0.0
H910 H 0.99234 0.03719 0.33646 0.0
H911 H 0.96841 0.05286 0.3689 0.0
C912 C 0.89148 0.04054 0.32845 0.0
N913 N 0.86377 0.05711 0.31324 0.0
C914 C 0.87193 0.03231 0.3275 0.0
C915 C 0.89693 0.05725 0.32167 0.0
C916 C 0.85815 0.04088 0.31976 0.0
C917 C 0.8827 0.06539 0.31404 0.0
C918 C 0.94751 0.99377 0.33426 0.0
C919 C 0.92912 0.98635 0.32987 0.0
C920 C 0.96512 0.98193 0.33339 0.0
C921 C 0.92868 0.96718 0.3247 0.0
C922 C 0.96405 0.96283 0.32814 0.0
N923 N 0.946 0.95591 0.32394 0.0
C924 C 0.95394 0.02954 0.30836 0.0
C925 C 0.91984 0.01777 0.30797 0.0
C926 C 0.95669 0.0238 0.29693 0.0
N927 N 0.93572 0.02648 0.31361 0.0
C928 C 0.92187 0.0119 0.29656 0.0
C929 C 0.94055 0.01468 0.2909 0.0
H930 H 0.9665 0.03594 0.31316 0.0
H931 H 0.9057 0.01484 0.31237 0.0
C932 C 0.88844 -0.00081 0.35538 0.0
N933 N 0.90885 0.99662 0.35429 0.0
C934 C 0.87622 0.9831 0.35895 0.0
C935 C 0.90637 0.96217 0.36074 0.0
C936 C 0.91807 0.97876 0.35713 0.0
C937 C 0.88509 0.96412 0.36139 0.0
H938 H 0.88162 0.01368 0.3532 0.0
H939 H 0.93438 0.9772 0.35623 0.0
O940 O 0.94318 0.05908 0.33479 0.0
O941 O 0.93032 0.04163 0.35823 0.0
O942 O 0.90501 0.0323 0.33608 0.0
O943 O 0.94847 0.01253 0.33935 0.0
H944 H 0.94725 0.08228 0.35321 0.0
H945 H 0.96918 0.07166 0.31896 0.0
H946 H 0.97197 0.11068 0.35509 0.0
H947 H 0.99353 0.10023 0.32144 0.0
H948 H 0.94908 0.99446 0.3847 0.0
H949 H 0.89923 0.04636 0.37248 0.0
H950 H 0.95497 0.01346 0.36661 0.0
H951 H 0.8942 0.02665 0.39038 0.0
H952 H 0.89689 0.12768 0.34314 0.0
H953 H 0.85746 0.08592 0.36132 0.0
H954 H 0.0269 0.04739 0.34254 0.0
H955 H 0.0023 0.06326 0.37574 0.0
H956 H 0.86747 0.01938 0.33268 0.0
H957 H 0.91194 0.06388 0.32225 0.0
H958 H 0.84297 0.03464 0.31893 0.0
H959 H 0.88672 0.0783 0.30874 0.0
H960 H 0.91531 0.99522 0.33049 0.0
H961 H 0.97947 0.98747 0.33672 0.0
H962 H 0.91455 0.96126 0.32128 0.0
H963 H 0.97757 0.9535 0.32741 0.0
H964 H 0.97144 0.02595 0.29297 0.0
H965 H 0.90893 0.00515 0.29224 0.0
H966 H 0.85992 0.98539 0.35961 0.0
H967 H 0.91379 0.94779 0.36254 0.0
Li968 Li 0.69663 0.17101 0.09391 0.0
Li969 Li 0.71073 0.2057 0.09807 0.0
Li970 Li 0.71805 0.18741 0.07922 0.0
Li971 Li 0.73184 0.17576 0.09707 0.0
C972 C 0.67112 0.20138 0.08527 0.0
N973 N 0.6298 0.20943 0.08502 0.0
C974 C 0.66131 0.208 0.09522 0.0
C975 C 0.65995 0.19916 0.07514 0.0
C976 C 0.64041 0.2119 0.09494 0.0
C977 C 0.63907 0.20322 0.0752 0.0
C978 C 0.71783 0.17331 0.11765 0.0
C979 C 0.74079 0.17552 0.13374 0.0
N980 N 0.73589 0.1561 0.13672 0.0
C981 C 0.71301 0.15338 0.12087 0.0
C982 C 0.73181 0.1845 0.12413 0.0
C983 C 0.72231 0.14496 0.13054 0.0
C984 C 0.66825 0.13681 0.09223 0.0
N985 N 0.67332 0.15453 0.09758 0.0
C986 C 0.64573 0.15042 0.11077 0.0
C987 C 0.66249 0.16133 0.10675 0.0
C988 C 0.64009 0.13215 0.10539 0.0
C989 C 0.65155 0.12541 0.09596 0.0
H990 H 0.67727 0.1311 0.08524 0.0
H991 H 0.6671 0.17512 0.11108 0.0
C992 C 0.70252 0.2478 0.09787 0.0
N993 N 0.70513 0.23135 0.10478 0.0
C994 C 0.69663 0.2665 0.10253 0.0
C995 C 0.6968 0.25102 0.12133 0.0
C996 C 0.70251 0.23261 0.1163 0.0
C997 C 0.69345 0.26824 0.11442 0.0
H998 H 0.70446 0.24621 0.08871 0.0
H999 H 0.70433 0.21921 0.12157 0.0
C1000 C 0.71205 0.14604 0.07654 0.0
N1001 N 0.69797 0.12059 0.0594 0.0
C1002 C 0.72027 0.12653 0.07523 0.0
C1003 C 0.69681 0.15264 0.06905 0.0
C1004 C 0.7129 0.11387 0.06655 0.0
C1005 C 0.68986 0.13955 0.06046 0.0
C1006 C 0.7563 0.20818 0.09051 0.0
C1007 C 0.77098 0.199 0.08355 0.0
C1008 C 0.76204 0.22337 0.09825 0.0
C1009 C 0.79131 0.20503 0.08457 0.0
C1010 C 0.78252 0.22899 0.099 0.0
N1011 N 0.7966 0.21977 0.0922 0.0
C1012 C 0.7154 0.20732 0.05754 0.0
C1013 C 0.73702 0.17845 0.05846 0.0
C1014 C 0.72044 0.21035 0.04602 0.0
N1015 N 0.72377 0.19158 0.06347 0.0
C1016 C 0.74229 0.18075 0.04697 0.0
C1017 C 0.73414 0.19698 0.04058 0.0
H1018 H 0.705 0.2176 0.06181 0.0
H1019 H 0.74353 0.16614 0.06341 0.0
C1020 C 0.7531 0.14128 0.10284 0.0
N1021 N 0.75488 0.16185 0.10346 0.0
C1022 C 0.76886 0.12873 0.10653 0.0
C1023 C 0.78787 0.15869 0.112 0.0
C1024 C 0.77161 0.17072 0.10821 0.0
C1025 C 0.78673 0.1374 0.11096 0.0
H1026 H 0.73931 0.1346 0.09946 0.0
H1027 H 0.77246 0.18704 0.10906 0.0
O1028 O 0.69157 0.19734 0.08539 0.0
O1029 O 0.70923 0.18165 0.10807 0.0
O1030 O 0.71956 0.1588 0.08482 0.0
O1031 O 0.73632 0.2027 0.08957 0.0
H1032 H 0.6697 0.2099 0.10313 0.0
H1033 H 0.66732 0.19446 0.06728 0.0
H1034 H 0.63261 0.21688 0.10261 0.0
H1035 H 0.63023 0.20149 0.06743 0.0
H1036 H 0.75174 0.18395 0.13879 0.0
H1037 H 0.70236 0.14445 0.11588 0.0
H1038 H 0.736 0.19982 0.12164 0.0
H1039 H 0.71878 0.12953 0.13311 0.0
H1040 H 0.63726 0.15628 0.11802 0.0
H1041 H 0.64799 0.11121 0.0917 0.0
H1042 H 0.69392 0.27923 0.09683 0.0
H1043 H 0.69481 0.25166 0.13054 0.0
H1044 H 0.73231 0.12123 0.08081 0.0
H1045 H 0.6904 0.16768 0.06986 0.0
H1046 H 0.7191 0.09873 0.06546 0.0
H1047 H 0.67803 0.14448 0.05463 0.0
H1048 H 0.76674 0.18726 0.0775 0.0
H1049 H 0.7508 0.23068 0.10365 0.0
H1050 H 0.80287 0.198 0.07928 0.0
H1051 H 0.78721 0.24067 0.10498 0.0
H1052 H 0.71393 0.22319 0.0415 0.0
H1053 H 0.75253 0.16978 0.04314 0.0
H1054 H 0.76704 0.11237 0.10591 0.0
H1055 H 0.80132 0.166 0.11546 0.0
Li1056 Li 0.54277 0.03667 0.65031 0.0
Li1057 Li 0.57713 0.0533 0.65238 0.0
Li1058 Li 0.57368 0.01749 0.64913 0.0
Li1059 Li 0.56446 0.0301 0.66741 0.0
C1060 C 0.56923 0.03184 0.62851 0.0
N1061 N 0.57912 0.0137 0.6079 0.0
C1062 C 0.58744 0.03683 0.62299 0.0
C1063 C 0.55596 0.01776 0.62351 0.0
C1064 C 0.59219 0.02745 0.61258 0.0
C1065 C 0.56126 0.00872 0.61309 0.0
C1066 C 0.54389 0.07312 0.66653 0.0
C1067 C 0.53823 0.09658 0.68212 0.0
N1068 N 0.52615 0.10805 0.67518 0.0
C1069 C 0.53132 0.08507 0.65958 0.0
C1070 C 0.54729 0.07884 0.67791 0.0
C1071 C 0.52253 0.1027 0.66411 0.0
C1072 C 0.49958 0.03675 0.65144 0.0
N1073 N 0.51606 0.04129 0.64489 0.0
C1074 C 0.49485 0.05497 0.63017 0.0
C1075 C 0.51408 0.05013 0.63442 0.0
C1076 C 0.47746 0.05072 0.63676 0.0
C1077 C 0.47998 0.04138 0.64752 0.0
H1078 H 0.50169 0.0298 0.65977 0.0
H1079 H 0.5275 0.05384 0.62948 0.0
C1080 C 0.61253 0.0741 0.64601 0.0
N1081 N 0.59278 0.07693 0.64913 0.0
C1082 C 0.62479 0.09076 0.64325 0.0
C1083 C 0.59615 0.11293 0.64697 0.0
C1084 C 0.58446 0.09584 0.64966 0.0
C1085 C 0.61659 0.11051 0.64366 0.0
H1086 H 0.61872 0.05885 0.64561 0.0
H1087 H 0.5687 0.0977 0.652 0.0
C1088 C 0.55047 0.99143 0.66286 0.0
N1089 N 0.55377 0.95367 0.67316 0.0
C1090 C 0.56924 0.9848 0.66714 0.0
C1091 C 0.53339 0.97886 0.66384 0.0
C1092 C 0.57058 0.96566 0.67231 0.0
C1093 C 0.53537 0.95982 0.66907 0.0
C1094 C 0.6065 0.03868 0.66736 0.0
C1095 C 0.6253 0.02891 0.66847 0.0
C1096 C 0.60267 0.05644 0.6736 0.0
C1097 C 0.63994 0.03701 0.67587 0.0
C1098 C 0.6177 0.06408 0.6809 0.0
N1099 N 0.63586 0.05428 0.68188 0.0
C1100 C 0.60687 0.99874 0.63908 0.0
C1101 C 0.57727 0.97804 0.63868 0.0
C1102 C 0.61816 0.98357 0.63369 0.0
N1103 N 0.58688 0.99571 0.64148 0.0
C1104 C 0.5881 0.96226 0.63345 0.0
C1105 C 0.60882 0.96499 0.63092 0.0
H1106 H 0.61404 0.01299 0.6414 0.0
H1107 H 0.56127 0.97614 0.64059 0.0
C1108 C 0.54413 0.02644 0.68839 0.0
N1109 N 0.56279 0.02487 0.68343 0.0
C1110 C 0.54167 0.02219 0.70004 0.0
C1111 C 0.57771 0.01494 0.70124 0.0
C1112 C 0.57939 0.01892 0.68955 0.0
C1113 C 0.55867 0.01654 0.70659 0.0
H1114 H 0.53115 0.03089 0.68326 0.0
H1115 H 0.5939 0.01695 0.68538 0.0
O1116 O 0.56455 0.04043 0.63885 0.0
O1117 O 0.55247 0.05568 0.6623 0.0
O1118 O 0.54864 0.01016 0.65783 0.0
O1119 O 0.59214 0.03091 0.66008 0.0
H1120 H 0.59788 0.04768 0.62677 0.0
H1121 H 0.54186 0.01366 0.62773 0.0
H1122 H 0.60629 0.03107 0.60824 0.0
H1123 H 0.55122 0.99769 0.60916 0.0
H1124 H 0.54078 0.10122 0.6909 0.0
H1125 H 0.52856 0.08092 0.65075 0.0
H1126 H 0.55681 0.06969 0.68346 0.0
H1127 H 0.51286 0.11215 0.65881 0.0
H1128 H 0.49368 0.06252 0.62194 0.0
H1129 H 0.46699 0.03773 0.65285 0.0
H1130 H 0.6405 0.08819 0.64084 0.0
H1131 H 0.58909 0.12783 0.6472 0.0
H1132 H 0.58264 0.99427 0.66648 0.0
H1133 H 0.51875 0.9838 0.66059 0.0
H1134 H 0.58501 0.96035 0.67566 0.0
H1135 H 0.52227 0.94993 0.66988 0.0
H1136 H 0.62852 0.01517 0.66366 0.0
H1137 H 0.58832 0.06431 0.67277 0.0
H1138 H 0.65454 0.02957 0.67682 0.0
H1139 H 0.61493 0.07781 0.68578 0.0
H1140 H 0.63417 0.98614 0.63198 0.0
H1141 H 0.58041 0.94815 0.63137 0.0
H1142 H 0.52675 0.02352 0.70392 0.0
H1143 H 0.59107 0.01024 0.70601 0.0
Li1144 Li 0.73089 0.82199 0.40142 0.0
Li1145 Li 0.71669 0.81239 0.41943 0.0
Li1146 Li 0.7117 0.79068 0.40212 0.0
Li1147 Li 0.69467 0.82485 0.40385 0.0
C1148 C 0.75582 0.79795 0.41587 0.0
N1149 N 0.79252 0.79973 0.42742 0.0
C1150 C 0.76354 0.81669 0.41954 0.0
C1151 C 0.76675 0.78012 0.41808 0.0
C1152 C 0.78212 0.81727 0.42536 0.0
C1153 C 0.78529 0.78134 0.42393 0.0
C1154 C 0.70897 0.85431 0.41956 0.0
C1155 C 0.68373 0.86582 0.43309 0.0
N1156 N 0.69439 0.88339 0.43457 0.0
C1157 C 0.71966 0.87248 0.42119 0.0
C1158 C 0.69086 0.85094 0.42554 0.0
C1159 C 0.71204 0.88699 0.42883 0.0
C1160 C 0.7497 0.85574 0.39212 0.0
N1161 N 0.7531 0.83578 0.39447 0.0
C1162 C 0.78707 0.83808 0.38726 0.0
C1163 C 0.77124 0.82672 0.39208 0.0
C1164 C 0.78392 0.85876 0.38474 0.0
C1165 C 0.76493 0.86754 0.38717 0.0
H1166 H 0.7351 0.86247 0.39413 0.0
H1167 H 0.77343 0.81074 0.39395 0.0
C1168 C 0.71488 0.79506 0.44165 0.0
N1169 N 0.72103 0.81156 0.43553 0.0
C1170 C 0.71896 0.79387 0.4534 0.0
C1171 C 0.73559 0.82665 0.45224 0.0
C1172 C 0.73122 0.82718 0.44057 0.0
C1173 C 0.72949 0.80983 0.45882 0.0
H1174 H 0.707 0.78274 0.43738 0.0
H1175 H 0.73641 0.83991 0.4355 0.0
C1176 C 0.71622 0.82101 0.38065 0.0
N1177 N 0.73178 0.8385 0.36096 0.0
C1178 C 0.70774 0.83896 0.37632 0.0
C1179 C 0.73256 0.81189 0.37492 0.0
C1180 C 0.71582 0.84756 0.36636 0.0
C1181 C 0.74023 0.821 0.365 0.0
C1182 C 0.67249 0.79324 0.41654 0.0
C1183 C 0.66138 0.78137 0.40881 0.0
C1184 C 0.6643 0.79753 0.42734 0.0
C1185 C 0.64208 0.77433 0.41191 0.0
C1186 C 0.64495 0.79021 0.43012 0.0
N1187 N 0.63432 0.77887 0.42241 0.0
C1188 C 0.70109 0.74905 0.40398 0.0
C1189 C 0.70998 0.76005 0.38531 0.0
C1190 C 0.69556 0.72989 0.39979 0.0
N1191 N 0.70772 0.76375 0.39668 0.0
C1192 C 0.70499 0.74105 0.38078 0.0
C1193 C 0.69712 0.72578 0.38798 0.0
H1194 H 0.69927 0.75251 0.41299 0.0
H1195 H 0.7151 0.77204 0.37968 0.0
C1196 C 0.67067 0.86052 0.39992 0.0
N1197 N 0.67079 0.8398 0.39962 0.0
C1198 C 0.65368 0.87137 0.39608 0.0
C1199 C 0.63741 0.83942 0.39145 0.0
C1200 C 0.6547 0.82922 0.39536 0.0
C1201 C 0.63678 0.8608 0.39171 0.0
H1202 H 0.68396 0.86873 0.4028 0.0
H1203 H 0.65548 0.81288 0.39469 0.0
O1204 O 0.73755 0.79689 0.41025 0.0
O1205 O 0.71644 0.83989 0.41222 0.0
O1206 O 0.70883 0.81264 0.39056 0.0
O1207 O 0.69159 0.79998 0.41374 0.0
H1208 H 0.75531 0.83065 0.41792 0.0
H1209 H 0.76094 0.76549 0.41532 0.0
H1210 H 0.78826 0.83167 0.42825 0.0
H1211 H 0.79391 0.76766 0.4257 0.0
H1212 H 0.66971 0.86341 0.43776 0.0
H1213 H 0.73376 0.87528 0.41664 0.0
H1214 H 0.68234 0.83708 0.42428 0.0
H1215 H 0.72018 0.90111 0.4302 0.0
H1216 H 0.80151 0.8308 0.38543 0.0
H1217 H 0.76201 0.8835 0.38547 0.0
H1218 H 0.71389 0.78067 0.45817 0.0
H1219 H 0.74414 0.83908 0.45599 0.0
H1220 H 0.69513 0.84625 0.38063 0.0
H1221 H 0.73959 0.79822 0.37826 0.0
H1222 H 0.70945 0.86149 0.36295 0.0
H1223 H 0.75299 0.81422 0.36055 0.0
H1224 H 0.6675 0.77779 0.40044 0.0
H1225 H 0.67282 0.80633 0.43354 0.0
H1226 H 0.63327 0.76524 0.40597 0.0
H1227 H 0.63841 0.79348 0.43843 0.0
H1228 H 0.68934 0.71878 0.40568 0.0
H1229 H 0.70691 0.73853 0.37167 0.0
H1230 H 0.65407 0.88786 0.39618 0.0
H1231 H 0.62474 0.83062 0.38818 0.0
Li1232 Li 0.92688 0.98036 0.15064 0.0
Li1233 Li 0.93664 0.96313 0.16888 0.0
Li1234 Li 0.95536 0.9576 0.15026 0.0
Li1235 Li 0.92197 0.94402 0.1529 0.0
C1236 C 0.95451 0.00365 0.16001 0.0
N1237 N 0.95658 0.04566 0.16082 0.0
C1238 C 0.94769 0.01412 0.16971 0.0
C1239 C 0.9625 0.01455 0.15075 0.0
C1240 C 0.94885 0.03536 0.16995 0.0
C1241 C 0.96337 0.03578 0.15132 0.0
C1242 C 0.88958 0.96047 0.16207 0.0
C1243 C 0.86223 0.94034 0.16993 0.0
N1244 N 0.84972 0.94707 0.16145 0.0
C1245 C 0.87646 0.96718 0.15342 0.0
C1246 C 0.88244 0.94694 0.1704 0.0
C1247 C 0.85636 0.96023 0.15326 0.0
C1248 C 0.91453 0.00885 0.13367 0.0
N1249 N 0.91467 0.00463 0.14506 0.0
C1250 C 0.89358 0.03346 0.14895 0.0
C1251 C 0.90466 0.0166 0.15271 0.0
C1252 C 0.8927 0.03793 0.13718 0.0
C1253 C 0.90372 0.0256 0.12953 0.0
H1254 H 0.92224 -0.00113 0.12774 0.0
H1255 H 0.90471 0.0126 0.16171 0.0
C1256 C 0.9578 0.96714 0.18977 0.0
N1257 N 0.93901 0.96675 0.18488 0.0
C1258 C 0.95985 0.9708 0.20152 0.0
C1259 C 0.92318 0.97325 0.20292 0.0
C1260 C 0.92186 0.96982 0.19115 0.0
C1261 C 0.94236 0.97386 0.20822 0.0
H1262 H 0.97116 0.96484 0.18451 0.0
H1263 H 0.90718 0.96996 0.18698 0.0
C1264 C 0.9421 0.95508 0.12926 0.0
N1265 N 0.96313 0.94727 0.1092 0.0
C1266 C 0.94077 0.93595 0.12404 0.0
C1267 C 0.95415 0.97022 0.12426 0.0
C1268 C 0.95149 0.93232 0.1139 0.0
C1269 C 0.96468 0.96597 0.11413 0.0
C1270 C 0.94502 0.9177 0.16578 0.0
C1271 C 0.94797 0.90148 0.1582 0.0
C1272 C 0.94051 0.9137 0.17728 0.0
C1273 C 0.94624 0.88151 0.16223 0.0
C1274 C 0.93894 0.89353 0.18098 0.0
N1275 N 0.9418 0.87799 0.17345 0.0
C1276 C 0.99693 0.96642 0.14468 0.0
C1277 C 0.9846 0.93423 0.13867 0.0
C1278 C 0.01591 0.96245 0.1397 0.0
N1279 N 0.98171 0.95241 0.14398 0.0
C1280 C 0.00312 0.92976 0.13346 0.0
C1281 C 0.01903 0.94399 0.13388 0.0
H1282 H 0.99431 0.98069 0.14906 0.0
H1283 H 0.97239 0.92329 0.13832 0.0
C1284 C 0.89412 0.92454 0.13847 0.0
N1285 N 0.90321 0.92261 0.14888 0.0
C1286 C 0.88094 0.90951 0.13443 0.0
C1287 C 0.88569 0.89121 0.15218 0.0
C1288 C 0.89861 0.90674 0.15592 0.0
C1289 C 0.87695 0.89225 0.14119 0.0
H1290 H 0.89726 0.93776 0.13323 0.0
H1291 H 0.905 0.906 0.16442 0.0
O1292 O 0.95309 0.98288 0.1595 0.0
O1293 O 0.90947 0.96668 0.16219 0.0
O1294 O 0.93191 0.95888 0.13928 0.0
O1295 O 0.94692 0.93738 0.16206 0.0
H1296 H 0.94137 0.00597 0.17693 0.0
H1297 H 0.96785 0.00671 0.14318 0.0
H1298 H 0.94354 0.04366 0.17738 0.0
H1299 H 0.96942 0.04441 0.14419 0.0
H1300 H 0.85653 0.92977 0.17628 0.0
H1301 H 0.8818 0.97745 0.14683 0.0
H1302 H 0.8925 0.94126 0.17702 0.0
H1303 H 0.84605 0.96524 0.1466 0.0
H1304 H 0.88505 0.0423 0.15514 0.0
H1305 H 0.90365 0.02858 0.1204 0.0
H1306 H 0.97489 0.97112 0.20532 0.0
H1307 H 0.90937 0.97591 0.20777 0.0
H1308 H 0.9319 0.92387 0.12787 0.0
H1309 H 0.95563 0.985 0.12824 0.0
H1310 H 0.95066 0.91755 0.10981 0.0
H1311 H 0.97415 0.97752 0.11022 0.0
H1312 H 0.95111 0.90421 0.14925 0.0
H1313 H 0.93819 0.92601 0.18329 0.0
H1314 H 0.94832 0.86883 0.15644 0.0
H1315 H 0.93542 0.89023 0.18984 0.0
H1316 H 0.02787 0.97377 0.14023 0.0
H1317 H 0.00503 0.9152 0.12923 0.0
H1318 H 0.87405 0.91137 0.12607 0.0
H1319 H 0.88305 0.8783 0.15775 0.0
Li1320 Li 0.76573 0.17294 0.90014 0.0
Li1321 Li 0.78119 0.1849 0.91821 0.0
Li1322 Li 0.78928 0.20145 0.89949 0.0
Li1323 Li 0.801 0.1679 0.9036 0.0
C1324 C 0.74394 0.2027 0.91273 0.0
N1325 N 0.70651 0.20754 0.92317 0.0
C1326 C 0.73517 0.18655 0.91878 0.0
C1327 C 0.7337 0.2213 0.912 0.0
C1328 C 0.71623 0.18931 0.924 0.0
C1329 C 0.71477 0.22345 0.91733 0.0
C1330 C 0.78737 0.13982 0.91726 0.0
C1331 C 0.8126 0.12506 0.92981 0.0
N1332 N 0.80715 0.10617 0.92615 0.0
C1333 C 0.78193 0.12024 0.91369 0.0
C1334 C 0.80278 0.14225 0.92543 0.0
C1335 C 0.79214 0.10343 0.91826 0.0
C1336 C 0.74564 0.14091 0.89019 0.0
N1337 N 0.7425 0.16048 0.89349 0.0
C1338 C 0.7073 0.15825 0.88843 0.0
C1339 C 0.72396 0.16952 0.89236 0.0
C1340 C 0.7099 0.13758 0.88571 0.0
C1341 C 0.72944 0.12905 0.88636 0.0
H1342 H 0.76074 0.13445 0.89075 0.0
H1343 H 0.72197 0.18531 0.89472 0.0
C1344 C 0.77824 0.20846 0.93852 0.0
N1345 N 0.77653 0.18938 0.93408 0.0
C1346 C 0.77444 0.21187 0.95016 0.0
C1347 C 0.76739 0.17593 0.95238 0.0
C1348 C 0.77088 0.17331 0.9407 0.0
C1349 C 0.76919 0.19538 0.95722 0.0
H1350 H 0.78248 0.221 0.933 0.0
H1351 H 0.76894 0.15844 0.9369 0.0
C1352 C 0.7803 0.18289 0.87885 0.0
N1353 N 0.76435 0.19408 0.85785 0.0
C1354 C 0.78813 0.17452 0.86876 0.0
C1355 C 0.76434 0.19695 0.87826 0.0
C1356 C 0.77987 0.18037 0.85823 0.0
C1357 C 0.75649 0.2024 0.86756 0.0
C1358 C 0.82806 0.19632 0.9131 0.0
C1359 C 0.84019 0.19852 0.90334 0.0
C1360 C 0.83698 0.19704 0.92397 0.0
C1361 C 0.86115 0.20136 0.90463 0.0
C1362 C 0.858 0.19991 0.92489 0.0
N1363 N 0.86955 0.20198 0.91528 0.0
C1364 C 0.79232 0.24441 0.89783 0.0
C1365 C 0.80793 0.22602 0.88273 0.0
C1366 C 0.79949 0.26282 0.89333 0.0
N1367 N 0.79682 0.22653 0.89255 0.0
C1368 C 0.81528 0.24399 0.87791 0.0
C1369 C 0.81143 0.26272 0.88332 0.0
H1370 H 0.78363 0.24431 0.90571 0.0
H1371 H 0.81156 0.21159 0.87877 0.0
C1372 C 0.81973 0.13749 0.89102 0.0
N1373 N 0.82258 0.14918 0.90049 0.0
C1374 C 0.8349 0.12413 0.88737 0.0
C1375 C 0.85545 0.1345 0.90353 0.0
C1376 C 0.83982 0.1476 0.90691 0.0
C1377 C 0.85325 0.12281 0.89351 0.0
H1378 H 0.8057 0.13876 0.88622 0.0
H1379 H 0.8416 0.15665 0.91456 0.0
O1380 O 0.76253 0.20049 0.90759 0.0
O1381 O 0.77785 0.15656 0.91275 0.0
O1382 O 0.78833 0.17721 0.8892 0.0
O1383 O 0.80757 0.19324 0.91208 0.0
H1384 H 0.74282 0.17201 0.9194 0.0
H1385 H 0.74032 0.23395 0.90735 0.0
H1386 H 0.70925 0.17694 0.9287 0.0
H1387 H 0.70666 0.23776 0.91683 0.0
H1388 H 0.82464 0.12675 0.93607 0.0
H1389 H 0.76989 0.11797 0.90751 0.0
H1390 H 0.8073 0.1573 0.92823 0.0
H1391 H 0.78811 0.0882 0.91556 0.0
H1392 H 0.69244 0.16536 0.88794 0.0
H1393 H 0.73212 0.11329 0.88406 0.0
H1394 H 0.77589 0.22709 0.95365 0.0
H1395 H 0.76306 0.16294 0.95756 0.0
H1396 H 0.8005 0.16363 0.86906 0.0
H1397 H 0.75807 0.20366 0.88594 0.0
H1398 H 0.7858 0.17402 0.85035 0.0
H1399 H 0.74415 0.21327 0.86698 0.0
H1400 H 0.83354 0.19767 0.89488 0.0
H1401 H 0.82776 0.19529 0.9316 0.0
H1402 H 0.87076 0.20297 0.89715 0.0
H1403 H 0.86514 0.20044 0.93324 0.0
H1404 H 0.79634 0.27684 0.89788 0.0
H1405 H 0.82412 0.24317 0.87009 0.0
H1406 H 0.83233 0.11508 0.87974 0.0
H1407 H 0.86935 0.13408 0.90852 0.0
Li1408 Li 0.93495 0.53186 0.66791 0.0
Li1409 Li 0.95369 0.5399 0.64974 0.0
Li1410 Li 0.91787 0.55255 0.65354 0.0
Li1411 Li 0.92434 0.51661 0.64944 0.0
C1412 C 0.95212 0.5699 0.67056 0.0
N1413 N 0.96961 0.5916 0.6883 0.0
C1414 C 0.9733 0.5711 0.67152 0.0
C1415 C 0.93983 0.57998 0.67852 0.0
C1416 C 0.98185 0.58209 0.68057 0.0
C1417 C 0.94896 0.59079 0.68747 0.0
C1418 C 0.96002 0.49507 0.6582 0.0
C1419 C 0.981 0.46892 0.64976 0.0
N1420 N 0.97823 0.45718 0.65923 0.0
C1421 C 0.95746 0.48279 0.66788 0.0
C1422 C 0.97196 0.48815 0.64908 0.0
C1423 C 0.96677 0.46366 0.66823 0.0
C1424 C 0.92161 0.5159 0.68871 0.0
N1425 N 0.93743 0.52604 0.68383 0.0
C1426 C 0.95571 0.52566 0.70156 0.0
C1427 C 0.95444 0.53071 0.68995 0.0
C1428 C 0.93951 0.51527 0.70681 0.0
C1429 C 0.92232 0.51034 0.70023 0.0
H1430 H 0.90849 0.51185 0.6836 0.0
H1431 H 0.96715 0.53807 0.6858 0.0
C1432 C 0.97858 0.56064 0.63437 0.0
N1433 N 0.97878 0.54646 0.64283 0.0
C1434 C 0.99671 0.5666 0.62913 0.0
C1435 C 0.01488 0.54305 0.64137 0.0
C1436 C 0.99636 0.53755 0.64638 0.0
C1437 C 0.01522 0.55787 0.63267 0.0
H1438 H 0.96432 0.56752 0.6318 0.0
H1439 H 0.99602 0.52639 0.65319 0.0
C1440 C 0.88812 0.5333 0.6654 0.0
N1441 N 0.84955 0.54394 0.67274 0.0
C1442 C 0.87096 0.52448 0.66033 0.0
C1443 C 0.88566 0.54731 0.67431 0.0
C1444 C 0.85159 0.53012 0.66413 0.0
C1445 C 0.86604 0.55256 0.67787 0.0
C1446 C 0.92867 0.53596 0.62808 0.0
C1447 C 0.91328 0.54426 0.62125 0.0
C1448 C 0.94324 0.52315 0.62317 0.0
C1449 C 0.91264 0.53946 0.60959 0.0
C1450 C 0.94209 0.51873 0.61148 0.0
N1451 N 0.92694 0.5269 0.60499 0.0
C1452 C 0.90723 0.59383 0.65286 0.0
C1453 C 0.88131 0.57171 0.64618 0.0
C1454 C 0.89531 0.61082 0.6503 0.0
N1455 N 0.90009 0.57479 0.65076 0.0
C1456 C 0.86876 0.58826 0.64361 0.0
C1457 C 0.87578 0.60821 0.64556 0.0
H1458 H 0.92241 0.59585 0.65626 0.0
H1459 H 0.87622 0.55641 0.64433 0.0
C1460 C 0.91761 0.47404 0.64487 0.0
N1461 N 0.9122 0.49352 0.64231 0.0
C1462 C 0.90621 0.45772 0.64067 0.0
C1463 C 0.88411 0.48177 0.63111 0.0
C1464 C 0.89602 0.49758 0.63541 0.0
C1465 C 0.88892 0.46156 0.63395 0.0
H1466 H 0.93014 0.47104 0.65057 0.0
H1467 H 0.89174 0.51319 0.63373 0.0
O1468 O 0.94348 0.55927 0.66173 0.0
O1469 O 0.95107 0.51386 0.65773 0.0
O1470 O 0.90722 0.52811 0.66173 0.0
O1471 O 0.92954 0.54057 0.63949 0.0
H1472 H 0.98304 0.56352 0.66538 0.0
H1473 H 0.92343 0.57957 0.67778 0.0
H1474 H 0.99822 0.58305 0.68146 0.0
H1475 H 0.93963 0.59859 0.69372 0.0
H1476 H 0.99023 0.46335 0.64275 0.0
H1477 H 0.94829 0.48789 0.67502 0.0
H1478 H 0.97427 0.4975 0.64157 0.0
H1479 H 0.96486 0.45396 0.67564 0.0
H1480 H 0.96936 0.52943 0.70632 0.0
H1481 H 0.90948 0.50239 0.70397 0.0
H1482 H 0.99628 0.57832 0.62261 0.0
H1483 H 0.02876 0.53581 0.6443 0.0
H1484 H 0.87256 0.51345 0.65352 0.0
H1485 H 0.89878 0.554 0.67844 0.0
H1486 H 0.83818 0.5235 0.66025 0.0
H1487 H 0.86393 0.56344 0.68472 0.0
H1488 H 0.90193 0.55427 0.62493 0.0
H1489 H 0.9553 0.51674 0.62833 0.0
H1490 H 0.90079 0.54574 0.6042 0.0
H1491 H 0.95325 0.50882 0.60756 0.0
H1492 H 0.90165 0.62584 0.65171 0.0
H1493 H 0.85379 0.58543 0.64007 0.0
H1494 H 0.91022 0.44235 0.64318 0.0
H1495 H 0.87092 0.48533 0.62591 0.0
Li1496 Li 0.70823 0.70004 0.9004 0.0
Li1497 Li 0.7159 0.6789 0.91767 0.0
Li1498 Li 0.73313 0.67372 0.9002 0.0
Li1499 Li 0.69845 0.66387 0.90102 0.0
C1500 C 0.75296 0.70476 0.90793 0.0
N1501 N 0.79308 0.71507 0.90382 0.0
C1502 C 0.7682 0.69866 0.91556 0.0
C1503 C 0.75808 0.71621 0.89826 0.0
C1504 C 0.78841 0.70398 0.91331 0.0
C1505 C 0.77846 0.72125 0.89632 0.0
C1506 C 0.67477 0.69761 0.9165 0.0
C1507 C 0.6408 0.70232 0.92386 0.0
N1508 N 0.64608 0.72123 0.92758 0.0
C1509 C 0.67988 0.71709 0.92038 0.0
C1510 C 0.65508 0.69016 0.91822 0.0
C1511 C 0.66515 0.7288 0.92597 0.0
C1512 C 0.68382 0.7248 0.887 0.0
N1513 N 0.69928 0.72542 0.89472 0.0
C1514 C 0.7002 0.76175 0.89386 0.0
C1515 C 0.70759 0.74334 0.8982 0.0
C1516 C 0.68418 0.7616 0.88585 0.0
C1517 C 0.676 0.74279 0.88242 0.0
H1518 H 0.67749 0.71026 0.88446 0.0
H1519 H 0.71987 0.74332 0.90438 0.0
C1520 C 0.73596 0.66712 0.93734 0.0
N1521 N 0.71956 0.6781 0.93384 0.0
C1522 C 0.74113 0.66619 0.94892 0.0
C1523 C 0.71219 0.68764 0.95317 0.0
C1524 C 0.70751 0.68805 0.94149 0.0
C1525 C 0.72936 0.6768 0.95701 0.0
H1526 H 0.7452 0.65925 0.93108 0.0
H1527 H 0.69447 0.69654 0.93857 0.0
C1528 C 0.71401 0.66667 0.87914 0.0
N1529 N 0.71765 0.64161 0.86022 0.0
C1530 C 0.7204 0.64648 0.88045 0.0
C1531 C 0.70946 0.67409 0.86821 0.0
C1532 C 0.72215 0.63406 0.87078 0.0
C1533 C 0.7114 0.66118 0.85875 0.0
C1534 C 0.71409 0.6369 0.91684 0.0
C1535 C 0.72501 0.61872 0.91784 0.0
C1536 C 0.69569 0.63918 0.92273 0.0
C1537 C 0.71733 0.60309 0.92471 0.0
C1538 C 0.68852 0.62319 0.92952 0.0
N1539 N 0.6994 0.60563 0.93036 0.0
C1540 C 0.77003 0.65285 0.9007 0.0
C1541 C 0.76522 0.67216 0.88374 0.0
C1542 C 0.78816 0.64482 0.89644 0.0
N1543 N 0.75884 0.66591 0.89425 0.0
C1544 C 0.78324 0.66445 0.87911 0.0
C1545 C 0.79472 0.65024 0.8854 0.0
H1546 H 0.76453 0.64821 0.90904 0.0
H1547 H 0.75602 0.68269 0.87883 0.0
C1548 C 0.66086 0.65561 0.89145 0.0
N1549 N 0.67772 0.6462 0.89561 0.0
C1550 C 0.64515 0.64423 0.88659 0.0
C1551 C 0.66438 0.61358 0.89048 0.0
C1552 C 0.67982 0.6256 0.89519 0.0
C1553 C 0.64683 0.62293 0.88603 0.0
H1554 H 0.65977 0.67205 0.89179 0.0
H1555 H 0.6936 0.61851 0.89831 0.0
O1556 O 0.73317 0.69927 0.90982 0.0
O1557 O 0.6888 0.68597 0.91085 0.0
O1558 O 0.71213 0.67921 0.88844 0.0
O1559 O 0.72154 0.65223 0.91008 0.0
H1560 H 0.7645 0.68978 0.92308 0.0
H1561 H 0.74647 0.7209 0.89222 0.0
H1562 H 0.80038 0.69928 0.9191 0.0
H1563 H 0.78267 0.73 0.88883 0.0
H1564 H 0.62551 0.69673 0.92528 0.0
H1565 H 0.69513 0.72298 0.91922 0.0
H1566 H 0.6509 0.67511 0.91524 0.0
H1567 H 0.6689 0.74388 0.92905 0.0
H1568 H 0.70704 0.7759 0.89666 0.0
H1569 H 0.66344 0.74197 0.87642 0.0
H1570 H 0.75424 0.6573 0.95148 0.0
H1571 H 0.70276 0.69617 0.95908 0.0
H1572 H 0.72401 0.64043 0.88882 0.0
H1573 H 0.70447 0.68968 0.86706 0.0
H1574 H 0.72709 0.61842 0.87168 0.0
H1575 H 0.70793 0.66673 0.85024 0.0
H1576 H 0.73926 0.61671 0.91332 0.0
H1577 H 0.68697 0.65308 0.92211 0.0
H1578 H 0.72562 0.58892 0.92555 0.0
H1579 H 0.67431 0.62475 0.93412 0.0
H1580 H 0.79638 0.63373 0.90152 0.0
H1581 H 0.78788 0.66916 0.87061 0.0
H1582 H 0.63178 0.65201 0.88337 0.0
H1583 H 0.66635 0.59722 0.89008 0.0
Li1584 Li 0.56533 0.46945 0.16707 0.0
Li1585 Li 0.54652 0.46015 0.14942 0.0
Li1586 Li 0.58176 0.44881 0.15181 0.0
Li1587 Li 0.57237 0.48483 0.1489 0.0
C1588 C 0.54647 0.42979 0.16819 0.0
N1589 N 0.52266 0.40537 0.18206 0.0
C1590 C 0.52596 0.43456 0.16998 0.0
C1591 C 0.55488 0.41265 0.17349 0.0
C1592 C 0.51417 0.42198 0.17699 0.0
C1593 C 0.5426 0.40051 0.18048 0.0
C1594 C 0.54257 0.50667 0.15639 0.0
C1595 C 0.53145 0.53482 0.14466 0.0
N1596 N 0.53629 0.54793 0.15327 0.0
C1597 C 0.54722 0.52041 0.16516 0.0
C1598 C 0.53444 0.51391 0.1461 0.0
C1599 C 0.54401 0.54121 0.1634 0.0
C1600 C 0.57719 0.49043 0.18674 0.0
N1601 N 0.56513 0.4748 0.18322 0.0
C1602 C 0.55373 0.46928 0.20244 0.0
C1603 C 0.55361 0.46415 0.19083 0.0
C1604 C 0.56575 0.48562 0.20629 0.0
C1605 C 0.57769 0.49618 0.19825 0.0
H1606 H 0.58617 0.49873 0.18053 0.0
H1607 H 0.54421 0.45174 0.18798 0.0
C1608 C 0.52105 0.43 0.14095 0.0
N1609 N 0.52144 0.45019 0.14347 0.0
C1610 C 0.50338 0.42105 0.13668 0.0
C1611 C 0.48673 0.45386 0.13766 0.0
C1612 C 0.50478 0.4622 0.14195 0.0
C1613 C 0.48588 0.43298 0.13503 0.0
H1614 H 0.53453 0.42084 0.1423 0.0
H1615 H 0.50544 0.47815 0.14418 0.0
C1616 C 0.6079 0.46751 0.16708 0.0
N1617 N 0.63927 0.45563 0.18137 0.0
C1618 C 0.62608 0.47855 0.16731 0.0
C1619 C 0.60566 0.45043 0.17412 0.0
C1620 C 0.64178 0.4723 0.17459 0.0
C1621 C 0.6217 0.44468 0.18129 0.0
C1622 C 0.56031 0.45428 0.12847 0.0
C1623 C 0.5649 0.43459 0.1247 0.0
C1624 C 0.54616 0.46598 0.12239 0.0
C1625 C 0.55496 0.4268 0.11506 0.0
C1626 C 0.53652 0.45763 0.11281 0.0
N1627 N 0.54107 0.43837 0.10938 0.0
C1628 C 0.59205 0.40805 0.14915 0.0
C1629 C 0.61993 0.43039 0.14622 0.0
C1630 C 0.60419 0.39123 0.14667 0.0
N1631 N 0.60004 0.42712 0.14886 0.0
C1632 C 0.63268 0.41394 0.14366 0.0
C1633 C 0.6248 0.39402 0.14384 0.0
H1634 H 0.57606 0.40598 0.15102 0.0
H1635 H 0.62583 0.44577 0.146 0.0
C1636 C 0.59306 0.52164 0.14985 0.0
N1637 N 0.58225 0.50955 0.14263 0.0
C1638 C 0.60236 0.5393 0.14579 0.0
C1639 C 0.5886 0.53211 0.12699 0.0
C1640 C 0.57967 0.51448 0.13142 0.0
C1641 C 0.6005 0.54459 0.13416 0.0
H1642 H 0.59489 0.51723 0.15873 0.0
H1643 H 0.57103 0.50455 0.12587 0.0
O1644 O 0.55826 0.44164 0.16118 0.0
O1645 O 0.54611 0.48627 0.15785 0.0
O1646 O 0.59249 0.47344 0.15992 0.0
O1647 O 0.56957 0.46201 0.13805 0.0
H1648 H 0.51928 0.44799 0.16615 0.0
H1649 H 0.57075 0.40879 0.17226 0.0
H1650 H 0.49829 0.4255 0.17847 0.0
H1651 H 0.54892 0.38721 0.18464 0.0
H1652 H 0.52535 0.54063 0.13669 0.0
H1653 H 0.55329 0.51512 0.17322 0.0
H1654 H 0.53071 0.50354 0.13923 0.0
H1655 H 0.54766 0.55201 0.17009 0.0
H1656 H 0.54457 0.46044 0.20833 0.0
H1657 H 0.587 0.50903 0.20077 0.0
H1658 H 0.50349 0.40496 0.13463 0.0
H1659 H 0.4735 0.46353 0.13663 0.0
H1660 H 0.62805 0.49179 0.16189 0.0
H1661 H 0.59171 0.44171 0.17407 0.0
H1662 H 0.65595 0.48069 0.17485 0.0
H1663 H 0.62017 0.4315 0.18679 0.0
H1664 H 0.57595 0.42537 0.12918 0.0
H1665 H 0.54243 0.48123 0.12513 0.0
H1666 H 0.55829 0.41154 0.11211 0.0
H1667 H 0.52538 0.46646 0.10811 0.0
H1668 H 0.59733 0.37623 0.14667 0.0
H1669 H 0.6485 0.41676 0.14158 0.0
H1670 H 0.61162 0.5482 0.15161 0.0
H1671 H 0.58652 0.53572 0.11801 0.0
Li1672 Li 0.78354 0.31505 0.41844 0.0
Li1673 Li 0.78966 0.29589 0.40008 0.0
Li1674 Li 0.80214 0.33121 0.40262 0.0
Li1675 Li 0.76617 0.32449 0.40076 0.0
C1676 C 0.82624 0.30882 0.41872 0.0
N1677 N 0.85855 0.31368 0.43363 0.0
C1678 C 0.83915 0.29243 0.4211 0.0
C1679 C 0.82982 0.32769 0.42386 0.0
C1680 C 0.85539 0.29519 0.42868 0.0
C1681 C 0.84622 0.32984 0.43139 0.0
C1682 C 0.74501 0.29221 0.40683 0.0
C1683 C 0.71994 0.28024 0.39333 0.0
N1684 N 0.70531 0.28205 0.40152 0.0
C1685 C 0.72977 0.29388 0.41514 0.0
C1686 C 0.74011 0.28527 0.39585 0.0
C1687 C 0.70977 0.28868 0.41227 0.0
C1688 C 0.7625 0.3237 0.43805 0.0
N1689 N 0.77942 0.31372 0.43443 0.0
C1690 C 0.78725 0.30359 0.4536 0.0
C1691 C 0.79175 0.30365 0.44188 0.0
C1692 C 0.76986 0.3139 0.4576 0.0
C1693 C 0.75739 0.32397 0.44963 0.0
H1694 H 0.75292 0.33141 0.43188 0.0
H1695 H 0.80502 0.29566 0.43876 0.0
C1696 C 0.81062 0.27056 0.38518 0.0
N1697 N 0.79595 0.27063 0.39338 0.0
C1698 C 0.8165 0.25232 0.38004 0.0
C1699 C 0.79184 0.23462 0.3918 0.0
C1700 C 0.78646 0.25325 0.39673 0.0
C1701 C 0.80716 0.23399 0.38338 0.0
H1702 H 0.81792 0.28469 0.38276 0.0
H1703 H 0.77481 0.25385 0.40328 0.0
C1704 C 0.77793 0.36176 0.41554 0.0
N1705 N 0.77444 0.40156 0.42302 0.0
C1706 C 0.76827 0.37632 0.40869 0.0
C1707 C 0.78552 0.3674 0.42629 0.0
C1708 C 0.76674 0.39637 0.4126 0.0
C1709 C 0.78369 0.3876 0.42989 0.0
C1710 C 0.78728 0.33005 0.37946 0.0
C1711 C 0.78672 0.3513 0.37995 0.0
C1712 C 0.7875 0.32028 0.36883 0.0
C1713 C 0.78627 0.36247 0.36977 0.0
C1714 C 0.78701 0.33198 0.35883 0.0
N1715 N 0.7864 0.35266 0.3595 0.0
C1716 C 0.83756 0.33971 0.39088 0.0
C1717 C 0.82585 0.36823 0.40145 0.0
C1718 C 0.85369 0.35104 0.38644 0.0
N1719 N 0.82401 0.34845 0.39817 0.0
C1720 C 0.84181 0.38015 0.39723 0.0
C1721 C 0.8559 0.3716 0.38954 0.0
H1722 H 0.83565 0.32394 0.38842 0.0
H1723 H 0.81486 0.37489 0.40721 0.0
C1724 C 0.72809 0.34167 0.40407 0.0
N1725 N 0.74079 0.33499 0.39569 0.0
C1726 C 0.70951 0.35064 0.40127 0.0
C1727 C 0.71736 0.34558 0.38123 0.0
C1728 C 0.73561 0.33631 0.38444 0.0
C1729 C 0.7041 0.35319 0.38969 0.0
H1730 H 0.73257 0.34023 0.41295 0.0
H1731 H 0.74576 0.33054 0.37794 0.0
O1732 O 0.81022 0.30629 0.41136 0.0
O1733 O 0.76455 0.29778 0.40935 0.0
O1734 O 0.77948 0.34199 0.4119 0.0
O1735 O 0.78774 0.31876 0.3893 0.0
H1736 H 0.83658 0.27773 0.41716 0.0
H1737 H 0.82009 0.34053 0.42203 0.0
H1738 H 0.86547 0.28263 0.43064 0.0
H1739 H 0.84916 0.34437 0.43544 0.0
H1740 H 0.71589 0.27497 0.38484 0.0
H1741 H 0.73333 0.29926 0.42367 0.0
H1742 H 0.75174 0.28405 0.38931 0.0
H1743 H 0.69779 0.28998 0.41859 0.0
H1744 H 0.79736 0.29574 0.45946 0.0
H1745 H 0.74363 0.33176 0.45226 0.0
H1746 H 0.8286 0.25253 0.37374 0.0
H1747 H 0.78412 0.2209 0.39454 0.0
H1748 H 0.76191 0.37222 0.40046 0.0
H1749 H 0.7927 0.3563 0.43182 0.0
H1750 H 0.75937 0.4078 0.40736 0.0
H1751 H 0.78957 0.39218 0.43815 0.0
H1752 H 0.78676 0.35908 0.3881 0.0
H1753 H 0.78797 0.30382 0.36831 0.0
H1754 H 0.78584 0.37893 0.37003 0.0
H1755 H 0.78711 0.32463 0.35053 0.0
H1756 H 0.86437 0.34373 0.3807 0.0
H1757 H 0.84284 0.39598 0.39977 0.0
H1758 H 0.69966 0.35573 0.40813 0.0
H1759 H 0.7141 0.34734 0.37219 0.0
Li1760 Li 0.92285 0.48501 0.84734 0.0
Li1761 Li 0.91547 0.44939 0.84555 0.0
Li1762 Li 0.95108 0.46138 0.84824 0.0
Li1763 Li 0.93204 0.46774 0.82974 0.0
C1764 C 0.91411 0.46468 0.8679 0.0
N1765 N 0.88642 0.46683 0.88568 0.0
C1766 C 0.8935 0.46813 0.86562 0.0
C1767 C 0.92064 0.4623 0.87922 0.0
C1768 C 0.87974 0.46916 0.87472 0.0
C1769 C 0.90641 0.46345 0.88809 0.0
C1770 C 0.88675 0.46897 0.83063 0.0
C1771 C 0.86709 0.45281 0.81573 0.0
N1772 N 0.85015 0.46267 0.81951 0.0
C1773 C 0.8692 0.47911 0.83429 0.0
C1774 C 0.88575 0.45585 0.82122 0.0
C1775 C 0.85082 0.47565 0.82858 0.0
C1776 C 0.90407 0.52199 0.84385 0.0
N1777 N 0.9125 0.51048 0.85227 0.0
C1778 C 0.90334 0.53514 0.8664 0.0
C1779 C 0.91274 0.51683 0.86336 0.0
C1780 C 0.89388 0.54709 0.85791 0.0
C1781 C 0.89483 0.54051 0.84646 0.0
H1782 H 0.90432 0.51661 0.83509 0.0
H1783 H 0.91979 0.50748 0.86987 0.0
C1784 C 0.90902 0.41111 0.85422 0.0
N1785 N 0.89861 0.42692 0.84953 0.0
C1786 C 0.89883 0.39346 0.85755 0.0
C1787 C 0.86722 0.40873 0.85132 0.0
C1788 C 0.87807 0.42616 0.84811 0.0
C1789 C 0.87764 0.39202 0.85606 0.0
H1790 H 0.92533 0.41227 0.85537 0.0
H1791 H 0.87004 0.439 0.84452 0.0
C1792 C 0.95493 0.50602 0.84124 0.0
N1793 N 0.96445 0.54595 0.84639 0.0
C1794 C 0.95165 0.52134 0.83313 0.0
C1795 C 0.96318 0.51095 0.85193 0.0
C1796 C 0.95653 0.54146 0.83591 0.0
C1797 C 0.96786 0.53125 0.85437 0.0
C1798 C 0.9437 0.42497 0.83031 0.0
C1799 C 0.96369 0.41857 0.82834 0.0
C1800 C 0.9275 0.4142 0.82544 0.0
C1801 C 0.96716 0.40163 0.82136 0.0
C1802 C 0.93161 0.39734 0.81852 0.0
N1803 N 0.95119 0.39147 0.81663 0.0
C1804 C 0.97663 0.44216 0.864 0.0
C1805 C 0.99397 0.45971 0.84916 0.0
C1806 C 0.99504 0.43504 0.86844 0.0
N1807 N 0.97647 0.45409 0.8545 0.0
C1808 C 0.01274 0.45289 0.85328 0.0
C1809 C 0.01341 0.44019 0.86298 0.0
H1810 H 0.9624 0.43777 0.86796 0.0
H1811 H 0.99328 0.46915 0.84157 0.0
C1812 C 0.92381 0.48759 0.80943 0.0
N1813 N 0.93421 0.47138 0.81368 0.0
C1814 C 0.92488 0.49237 0.79781 0.0
C1815 C 0.94715 0.46344 0.79507 0.0
C1816 C 0.94578 0.45932 0.8068 0.0
C1817 C 0.93674 0.48027 0.79048 0.0
H1818 H 0.91478 0.49693 0.81514 0.0
H1819 H 0.95416 0.44671 0.81039 0.0
O1820 O 0.92792 0.46364 0.85914 0.0
O1821 O 0.90484 0.47226 0.83614 0.0
O1822 O 0.94969 0.48635 0.83884 0.0
O1823 O 0.94008 0.44151 0.83713 0.0
H1824 H 0.88818 0.47004 0.85693 0.0
H1825 H 0.93656 0.45964 0.88112 0.0
H1826 H 0.86375 0.47184 0.87308 0.0
H1827 H 0.91125 0.46166 0.8969 0.0
H1828 H 0.86608 0.44266 0.80845 0.0
H1829 H 0.86975 0.48949 0.84149 0.0
H1830 H 0.89925 0.44821 0.81813 0.0
H1831 H 0.83709 0.48331 0.83136 0.0
H1832 H 0.90287 0.53946 0.87535 0.0
H1833 H 0.88824 0.54938 0.83958 0.0
H1834 H 0.90747 0.38118 0.86139 0.0
H1835 H 0.85092 0.40826 0.84995 0.0
H1836 H 0.94523 0.51775 0.82483 0.0
H1837 H 0.96571 0.49924 0.85831 0.0
H1838 H 0.95397 0.5535 0.82975 0.0
H1839 H 0.97414 0.53532 0.86263 0.0
H1840 H 0.97638 0.42668 0.83211 0.0
H1841 H 0.91193 0.41868 0.82706 0.0
H1842 H 0.98256 0.39656 0.81971 0.0
H1843 H 0.91922 0.38888 0.81468 0.0
H1844 H 0.99482 0.42505 0.87582 0.0
H1845 H 0.02655 0.45737 0.84888 0.0
H1846 H 0.91644 0.50533 0.79459 0.0
H1847 H 0.95661 0.45387 0.78971 0.0
Li1848 Li 0.8026 0.6671 0.09567 0.0
Li1849 Li 0.76728 0.67396 0.0964 0.0
Li1850 Li 0.78438 0.68232 0.07923 0.0
Li1851 Li 0.78894 0.70325 0.09708 0.0
C1852 C 0.79047 0.64122 0.07855 0.0
N1853 N 0.80876 0.61434 0.06346 0.0
C1854 C 0.78011 0.62378 0.07489 0.0
C1855 C 0.8101 0.64505 0.07441 0.0
C1856 C 0.78962 0.61037 0.06729 0.0
C1857 C 0.81909 0.63126 0.06683 0.0
C1858 C 0.77726 0.67598 0.11796 0.0
C1859 C 0.75589 0.68594 0.13378 0.0
N1860 N 0.75497 0.66617 0.13723 0.0
C1861 C 0.77626 0.65579 0.1217 0.0
C1862 C 0.76711 0.69122 0.12405 0.0
C1863 C 0.76484 0.65113 0.13145 0.0
C1864 C 0.84168 0.65929 0.10416 0.0
N1865 N 0.82412 0.65017 0.10078 0.0
C1866 C 0.83725 0.61738 0.10573 0.0
C1867 C 0.82156 0.62966 0.10153 0.0
C1868 C 0.85555 0.62639 0.10935 0.0
C1869 C 0.85769 0.64763 0.1085 0.0
H1870 H 0.84313 0.67567 0.10359 0.0
H1871 H 0.80725 0.62287 0.09899 0.0
C1872 C 0.72778 0.67211 0.10802 0.0
N1873 N 0.7424 0.66206 0.10198 0.0
C1874 C 0.7098 0.66214 0.11117 0.0
C1875 C 0.72269 0.63151 0.10229 0.0
C1876 C 0.7403 0.64203 0.09933 0.0
C1877 C 0.70697 0.64163 0.10811 0.0
H1878 H 0.72997 0.68782 0.1104 0.0
H1879 H 0.75238 0.63413 0.09495 0.0
C1880 C 0.82298 0.70419 0.08063 0.0
N1881 N 0.84862 0.72994 0.0687 0.0
C1882 C 0.81564 0.72262 0.07629 0.0
C1883 C 0.84333 0.69881 0.07887 0.0
C1884 C 0.82885 0.73545 0.0703 0.0
C1885 C 0.85605 0.71204 0.07281 0.0
C1886 C 0.74487 0.7059 0.08899 0.0
C1887 C 0.72936 0.69771 0.08221 0.0
C1888 C 0.74013 0.72057 0.09726 0.0
C1889 C 0.70932 0.70419 0.08388 0.0
C1890 C 0.71991 0.72671 0.09864 0.0
N1891 N 0.70505 0.71844 0.09199 0.0
C1892 C 0.76444 0.6716 0.0596 0.0
C1893 C 0.7938 0.69107 0.05524 0.0
C1894 C 0.7593 0.67038 0.04804 0.0
N1895 N 0.78121 0.6821 0.063 0.0
C1896 C 0.78917 0.69033 0.04355 0.0
C1897 C 0.77155 0.68009 0.03983 0.0
H1898 H 0.75505 0.66409 0.06592 0.0
H1899 H 0.80735 0.69886 0.05805 0.0
C1900 C 0.80699 0.7297 0.11278 0.0
N1901 N 0.79522 0.7293 0.10321 0.0
C1902 C 0.81321 0.74825 0.11745 0.0
C1903 C 0.795 0.76566 0.10233 0.0
C1904 C 0.78896 0.74676 0.09802 0.0
C1905 C 0.80742 0.76654 0.11213 0.0
H1906 H 0.81181 0.71554 0.11668 0.0
H1907 H 0.77946 0.74601 0.09046 0.0
O1908 O 0.78107 0.65465 0.08584 0.0
O1909 O 0.78803 0.68078 0.10832 0.0
O1910 O 0.8104 0.69146 0.08662 0.0
O1911 O 0.76464 0.69996 0.08739 0.0
H1912 H 0.76479 0.62066 0.07779 0.0
H1913 H 0.81842 0.65844 0.07699 0.0
H1914 H 0.78175 0.59683 0.06441 0.0
H1915 H 0.83429 0.63403 0.06361 0.0
H1916 H 0.74784 0.69754 0.13855 0.0
H1917 H 0.78403 0.64384 0.11704 0.0
H1918 H 0.76774 0.70691 0.12123 0.0
H1919 H 0.76379 0.63555 0.13441 0.0
H1920 H 0.83491 0.6011 0.10639 0.0
H1921 H 0.87161 0.65515 0.11112 0.0
H1922 H 0.69813 0.67046 0.11575 0.0
H1923 H 0.72148 0.61553 0.1001 0.0
H1924 H 0.79981 0.72671 0.07731 0.0
H1925 H 0.84923 0.68455 0.08212 0.0
H1926 H 0.82336 0.74973 0.06686 0.0
H1927 H 0.87184 0.70806 0.07138 0.0
H1928 H 0.73271 0.6864 0.07575 0.0
H1929 H 0.75186 0.72693 0.10268 0.0
H1930 H 0.69716 0.69791 0.07872 0.0
H1931 H 0.71602 0.73797 0.10505 0.0
H1932 H 0.7459 0.66183 0.04557 0.0
H1933 H 0.79907 0.69802 0.03752 0.0
H1934 H 0.82298 0.74826 0.12494 0.0
H1935 H 0.79006 0.77943 0.09804 0.0
Li1936 Li 0.58369 0.54987 0.34505 0.0
Li1937 Li 0.57477 0.51363 0.3473 0.0
Li1938 Li 0.56723 0.53233 0.32954 0.0
Li1939 Li 0.54832 0.53919 0.34727 0.0
C1940 C 0.61435 0.5303 0.33601 0.0
N1941 N 0.65527 0.54002 0.33623 0.0
C1942 C 0.62772 0.51973 0.34318 0.0
C1943 C 0.6218 0.54569 0.32888 0.0
C1944 C 0.64837 0.52489 0.34318 0.0
C1945 C 0.64253 0.55043 0.32914 0.0
C1946 C 0.56256 0.54004 0.36859 0.0
C1947 C 0.54179 0.52992 0.38464 0.0
N1948 N 0.5439 0.54887 0.3892 0.0
C1949 C 0.56464 0.55937 0.37345 0.0
C1950 C 0.55116 0.52514 0.37424 0.0
C1951 C 0.55504 0.56355 0.38388 0.0
C1952 C 0.59986 0.5895 0.34504 0.0
N1953 N 0.60246 0.57049 0.34937 0.0
C1954 C 0.63057 0.58174 0.36075 0.0
C1955 C 0.61736 0.56635 0.35712 0.0
C1956 C 0.62818 0.60164 0.35648 0.0
C1957 C 0.61259 0.60536 0.34848 0.0
H1958 H 0.58761 0.59246 0.33909 0.0
H1959 H 0.61884 0.55113 0.36057 0.0
C1960 C 0.58485 0.47148 0.34714 0.0
N1961 N 0.58407 0.48868 0.3536 0.0
C1962 C 0.59322 0.45365 0.35162 0.0
C1963 C 0.60058 0.4718 0.36916 0.0
C1964 C 0.59158 0.48911 0.36444 0.0
C1965 C 0.60168 0.45371 0.3627 0.0
H1966 H 0.57943 0.47169 0.33841 0.0
H1967 H 0.59131 0.50316 0.36927 0.0
C1968 C 0.5521 0.56932 0.32711 0.0
N1969 N 0.5363 0.58879 0.30809 0.0
C1970 C 0.53103 0.57118 0.32576 0.0
C1971 C 0.56513 0.57745 0.31882 0.0
C1972 C 0.52334 0.58108 0.31608 0.0
C1973 C 0.55685 0.58719 0.30925 0.0
C1974 C 0.54252 0.49422 0.33739 0.0
C1975 C 0.54413 0.48388 0.32696 0.0
C1976 C 0.53453 0.48419 0.34695 0.0
C1977 C 0.53783 0.46359 0.32629 0.0
C1978 C 0.52844 0.46389 0.34594 0.0
N1979 N 0.5302 0.45409 0.33572 0.0
C1980 C 0.58315 0.52461 0.30769 0.0
C1981 C 0.54764 0.53101 0.30777 0.0
C1982 C 0.58285 0.52129 0.29589 0.0
N1983 N 0.56573 0.52939 0.31335 0.0
C1984 C 0.54665 0.52798 0.29593 0.0
C1985 C 0.56442 0.52291 0.28983 0.0
H1986 H 0.59724 0.52294 0.31237 0.0
H1987 H 0.53393 0.53439 0.31253 0.0
C1988 C 0.52226 0.56697 0.35758 0.0
N1989 N 0.52323 0.54742 0.35382 0.0
C1990 C 0.50451 0.57432 0.36264 0.0
C1991 C 0.48893 0.54136 0.35971 0.0
C1992 C 0.50706 0.53461 0.35472 0.0
C1993 C 0.48753 0.56146 0.36379 0.0
H1994 H 0.53532 0.57685 0.3566 0.0
H1995 H 0.50821 0.51919 0.35156 0.0
O1996 O 0.59402 0.52573 0.33604 0.0
O1997 O 0.57158 0.53574 0.35831 0.0
O1998 O 0.55993 0.55953 0.33647 0.0
O1999 O 0.54851 0.51412 0.3382 0.0
H2000 H 0.62222 0.50776 0.34875 0.0
H2001 H 0.61163 0.55405 0.3233 0.0
H2002 H 0.65889 0.5169 0.34872 0.0
H2003 H 0.64848 0.5624 0.32373 0.0
H2004 H 0.53284 0.51857 0.38909 0.0
H2005 H 0.57343 0.57106 0.36917 0.0
H2006 H 0.54953 0.51007 0.37061 0.0
H2007 H 0.55642 0.57847 0.38772 0.0
H2008 H 0.64244 0.57809 0.36685 0.0
H2009 H 0.60981 0.6205 0.34515 0.0
H2010 H 0.5934 0.44012 0.34633 0.0
H2011 H 0.60733 0.47293 0.3776 0.0
H2012 H 0.5207 0.5649 0.33206 0.0
H2013 H 0.58148 0.57608 0.31971 0.0
H2014 H 0.50707 0.58257 0.31491 0.0
H2015 H 0.56675 0.59346 0.30274 0.0
H2016 H 0.55027 0.49137 0.31947 0.0
H2017 H 0.5332 0.49194 0.35509 0.0
H2018 H 0.53905 0.45538 0.31828 0.0
H2019 H 0.52233 0.45591 0.35328 0.0
H2020 H 0.59684 0.51694 0.29164 0.0
H2021 H 0.53212 0.52955 0.29163 0.0
H2022 H 0.504 0.59004 0.36544 0.0
H2023 H 0.47624 0.53092 0.36047 0.0
Li2024 Li 0.73013 0.32349 0.59755 0.0
Li2025 Li 0.69429 0.33214 0.59471 0.0
Li2026 Li 0.70533 0.2969 0.59674 0.0
Li2027 Li 0.71308 0.31631 0.57948 0.0
C2028 C 0.70079 0.30997 0.61786 0.0
N2029 N 0.68669 0.28952 0.63697 0.0
C2030 C 0.68064 0.31247 0.62145 0.0
C2031 C 0.7138 0.29717 0.62403 0.0
C2032 C 0.6738 0.302 0.63113 0.0
C2033 C 0.70637 0.28692 0.63365 0.0
C2034 C 0.71403 0.36326 0.58668 0.0
C2035 C 0.6949 0.39213 0.57979 0.0
N2036 N 0.70389 0.40404 0.58788 0.0
C2037 C 0.72311 0.37579 0.59491 0.0
C2038 C 0.69986 0.37149 0.57903 0.0
C2039 C 0.71778 0.39637 0.59538 0.0
C2040 C 0.76898 0.34067 0.59662 0.0
N2041 N 0.75462 0.33342 0.60394 0.0
C2042 C 0.77315 0.34589 0.62007 0.0
C2043 C 0.7565 0.33551 0.61548 0.0
C2044 C 0.78788 0.35416 0.61268 0.0
C2045 C 0.78595 0.35098 0.60084 0.0
H2046 H 0.76672 0.3393 0.58747 0.0
H2047 H 0.74461 0.33 0.62107 0.0
C2048 C 0.65573 0.35165 0.59322 0.0
N2049 N 0.6738 0.35113 0.59888 0.0
C2050 C 0.64037 0.36491 0.59679 0.0
C2051 C 0.66261 0.37692 0.61187 0.0
C2052 C 0.67754 0.36347 0.60799 0.0
C2053 C 0.64363 0.3776 0.60632 0.0
H2054 H 0.65309 0.34146 0.58611 0.0
H2055 H 0.69204 0.36258 0.61237 0.0
C2056 C 0.75163 0.29422 0.5883 0.0
N2057 N 0.79325 0.28803 0.58849 0.0
C2058 C 0.7632 0.29833 0.57851 0.0
C2059 C 0.76121 0.28685 0.59816 0.0
C2060 C 0.78422 0.29511 0.57879 0.0
C2061 C 0.78228 0.28387 0.5981 0.0
C2062 C 0.67667 0.30135 0.57585 0.0
C2063 C 0.67481 0.28038 0.57408 0.0
C2064 C 0.6697 0.3149 0.56748 0.0
C2065 C 0.66607 0.2733 0.56392 0.0
C2066 C 0.66109 0.30722 0.55742 0.0
N2067 N 0.65947 0.28675 0.55586 0.0
C2068 C 0.67733 0.2695 0.6058 0.0
C2069 C 0.71069 0.25591 0.6043 0.0
C2070 C 0.67037 0.25165 0.61092 0.0
N2071 N 0.69721 0.27137 0.60276 0.0
C2072 C 0.70433 0.23766 0.60932 0.0
C2073 C 0.68397 0.23548 0.6128 0.0
H2074 H 0.66695 0.28203 0.60435 0.0
H2075 H 0.72638 0.2578 0.60174 0.0
C2076 C 0.72216 0.33254 0.55783 0.0
N2077 N 0.71748 0.31503 0.56343 0.0
C2078 C 0.72704 0.33215 0.54621 0.0
C2079 C 0.72209 0.29566 0.54629 0.0
C2080 C 0.71742 0.29676 0.55795 0.0
C2081 C 0.72715 0.31352 0.54028 0.0
H2082 H 0.72264 0.34678 0.56246 0.0
H2083 H 0.7141 0.28301 0.56269 0.0
O2084 O 0.70765 0.31971 0.60824 0.0
O2085 O 0.71867 0.34296 0.58626 0.0
O2086 O 0.73106 0.29752 0.58825 0.0
O2087 O 0.68538 0.30859 0.5857 0.0
H2088 H 0.67029 0.32217 0.61673 0.0
H2089 H 0.7294 0.29496 0.62132 0.0
H2090 H 0.65821 0.3037 0.63397 0.0
H2091 H 0.71623 0.27685 0.63845 0.0
H2092 H 0.68386 0.39867 0.57397 0.0
H2093 H 0.73399 0.36968 0.60096 0.0
H2094 H 0.69256 0.36197 0.57267 0.0
H2095 H 0.72462 0.40623 0.60173 0.0
H2096 H 0.77414 0.34804 0.62925 0.0
H2097 H 0.79676 0.35745 0.59485 0.0
H2098 H 0.62586 0.36472 0.59237 0.0
H2099 H 0.66582 0.38655 0.61918 0.0
H2100 H 0.75608 0.30409 0.57081 0.0
H2101 H 0.75252 0.28371 0.60583 0.0
H2102 H 0.79337 0.2983 0.57129 0.0
H2103 H 0.78991 0.2783 0.60569 0.0
H2104 H 0.68021 0.26967 0.58044 0.0
H2105 H 0.67118 0.33117 0.56867 0.0
H2106 H 0.66459 0.25711 0.56241 0.0
H2107 H 0.65576 0.31752 0.55084 0.0
H2108 H 0.65447 0.25045 0.61329 0.0
H2109 H 0.71528 0.22555 0.61065 0.0
H2110 H 0.73128 0.34624 0.54202 0.0
H2111 H 0.72183 0.28099 0.54206 0.0
Li2112 Li 0.0652 0.46949 0.32976 0.0
Li2113 Li 0.07482 0.48156 0.34818 0.0
Li2114 Li 0.07905 0.44619 0.3443 0.0
Li2115 Li 0.04439 0.46138 0.34693 0.0
C2116 C 0.10706 0.46262 0.32879 0.0
N2117 N 0.13519 0.44941 0.31283 0.0
C2118 C 0.12621 0.47184 0.32814 0.0
C2119 C 0.10218 0.44677 0.32129 0.0
C2120 C 0.14024 0.46491 0.32003 0.0
C2121 C 0.11661 0.44028 0.31329 0.0
C2122 C 0.04984 0.50748 0.3351 0.0
C2123 C 0.03254 0.53782 0.32868 0.0
N2124 N 0.05067 0.54573 0.32522 0.0
C2125 C 0.0683 0.51591 0.33147 0.0
C2126 C 0.03181 0.5185 0.33369 0.0
C2127 C 0.0684 0.53526 0.3265 0.0
C2128 C 0.04597 0.4705 0.30814 0.0
N2129 N 0.06315 0.47582 0.3139 0.0
C2130 C 0.0767 0.49193 0.29723 0.0
C2131 C 0.07836 0.48638 0.30871 0.0
C2132 C 0.05903 0.48691 0.29103 0.0
C2133 C 0.04356 0.47594 0.29664 0.0
H2134 H 0.03401 0.46232 0.31255 0.0
H2135 H 0.09174 0.49074 0.3135 0.0
C2136 C 0.10791 0.50091 0.3579 0.0
N2137 N 0.08762 0.50328 0.35611 0.0
C2138 C 0.11899 0.51598 0.3635 0.0
C2139 C 0.08811 0.53585 0.36523 0.0
C2140 C 0.07752 0.5202 0.35971 0.0
C2141 C 0.10912 0.53378 0.36718 0.0
H2142 H 0.11547 0.48725 0.35495 0.0
H2143 H 0.06132 0.52157 0.35824 0.0
C2144 C 0.048 0.42342 0.3325 0.0
N2145 N 0.03524 0.38399 0.32837 0.0
C2146 C 0.03876 0.4121 0.3412 0.0
C2147 C 0.05046 0.41479 0.32163 0.0
C2148 C 0.0325 0.39216 0.33896 0.0
C2149 C 0.04399 0.3948 0.31973 0.0
C2150 C 0.07358 0.46492 0.3684 0.0
C2151 C 0.09271 0.45884 0.37239 0.0
C2152 C 0.06185 0.47843 0.37489 0.0
C2153 C 0.09986 0.46653 0.38281 0.0
C2154 C 0.06956 0.48579 0.38525 0.0
N2155 N 0.08825 0.47975 0.38896 0.0
C2156 C 0.1143 0.41952 0.34501 0.0
C2157 C 0.08493 0.40886 0.35512 0.0
C2158 C 0.12504 0.40244 0.34879 0.0
N2159 N 0.09448 0.42229 0.34807 0.0
C2160 C 0.09512 0.39164 0.35916 0.0
C2161 C 0.11547 0.38828 0.35601 0.0
H2162 H 0.12212 0.43075 0.33993 0.0
H2163 H 0.06952 0.41181 0.35789 0.0
C2164 C 0.00182 0.45645 0.34508 0.0
N2165 N 0.0179 0.45578 0.3524 0.0
C2166 C 0.9825 0.45043 0.34878 0.0
C2167 C 0.99669 0.44359 0.36752 0.0
C2168 C 0.0157 0.44967 0.36345 0.0
C2169 C 0.97981 0.44367 0.36012 0.0
H2170 H 0.00413 0.46121 0.3363 0.0
H2171 H 0.02885 0.44888 0.36901 0.0
O2172 O 0.0931 0.46955 0.33657 0.0
O2173 O 0.04924 0.48846 0.33989 0.0
O2174 O 0.05403 0.44307 0.33446 0.0
O2175 O 0.06655 0.458 0.35808 0.0
H2176 H 0.13016 0.48425 0.33383 0.0
H2177 H 0.08747 0.43952 0.32166 0.0
H2178 H 0.15512 0.47189 0.31943 0.0
H2179 H 0.11305 0.42799 0.30745 0.0
H2180 H 0.0187 0.54652 0.32754 0.0
H2181 H 0.08242 0.50764 0.33246 0.0
H2182 H 0.01739 0.51216 0.33643 0.0
H2183 H 0.08257 0.54196 0.32365 0.0
H2184 H 0.0892 0.50005 0.29326 0.0
H2185 H 0.02956 0.47196 0.29227 0.0
H2186 H 0.13522 0.51394 0.3647 0.0
H2187 H 0.07998 0.54933 0.368 0.0
H2188 H 0.03651 0.41859 0.34962 0.0
H2189 H 0.05718 0.42346 0.31471 0.0
H2190 H 0.02543 0.3832 0.34565 0.0
H2191 H 0.04587 0.38791 0.31138 0.0
H2192 H 0.10202 0.44848 0.36744 0.0
H2193 H 0.04709 0.48342 0.37185 0.0
H2194 H 0.11468 0.46205 0.38598 0.0
H2195 H 0.06072 0.49637 0.39032 0.0
H2196 H 0.14087 0.40068 0.34638 0.0
H2197 H 0.08716 0.38112 0.36473 0.0
H2198 H 0.96987 0.45086 0.34281 0.0
H2199 H 0.99541 0.43813 0.37625 0.0
Li2200 Li 0.30313 0.32567 0.09412 0.0
Li2201 Li 0.28677 0.29124 0.09627 0.0
Li2202 Li 0.2788 0.31355 0.07957 0.0
Li2203 Li 0.26761 0.32214 0.09825 0.0
C2204 C 0.32268 0.2934 0.07967 0.0
N2205 N 0.35824 0.27686 0.07106 0.0
C2206 C 0.33458 0.28052 0.08647 0.0
C2207 C 0.32874 0.29765 0.06843 0.0
C2208 C 0.35254 0.27238 0.08198 0.0
C2209 C 0.3468 0.28921 0.06426 0.0
C2210 C 0.2844 0.31883 0.11831 0.0
C2211 C 0.26344 0.31338 0.13499 0.0
N2212 N 0.26969 0.3316 0.13928 0.0
C2213 C 0.2907 0.33745 0.1229 0.0
C2214 C 0.27074 0.30662 0.12441 0.0
C2215 C 0.28306 0.34365 0.13351 0.0
C2216 C 0.3264 0.36115 0.09883 0.0
N2217 N 0.32732 0.3406 0.09746 0.0
C2218 C 0.36233 0.34036 0.10302 0.0
C2219 C 0.3448 0.33014 0.09948 0.0
C2220 C 0.3618 0.36155 0.10466 0.0
C2221 C 0.34358 0.37201 0.10237 0.0
H2222 H 0.31214 0.36906 0.09756 0.0
H2223 H 0.34502 0.31379 0.09869 0.0
C2224 C 0.28901 0.24808 0.09457 0.0
N2225 N 0.29186 0.26449 0.10148 0.0
C2226 C 0.29447 0.22862 0.09837 0.0
C2227 C 0.3053 0.24346 0.11634 0.0
C2228 C 0.29973 0.26254 0.11219 0.0
C2229 C 0.30287 0.22618 0.10938 0.0
H2230 H 0.28289 0.25017 0.08604 0.0
H2231 H 0.30222 0.27592 0.1174 0.0
C2232 C 0.28715 0.35534 0.0796 0.0
N2233 N 0.3011 0.38451 0.06445 0.0
C2234 C 0.27692 0.3739 0.07853 0.0
C2235 C 0.30451 0.35164 0.07301 0.0
C2236 C 0.28419 0.38845 0.07081 0.0
C2237 C 0.31132 0.36657 0.06539 0.0
C2238 C 0.24063 0.2987 0.08485 0.0
C2239 C 0.23255 0.31758 0.08168 0.0
C2240 C 0.22916 0.28103 0.08316 0.0
C2241 C 0.21309 0.31846 0.07687 0.0
C2242 C 0.20975 0.28254 0.07832 0.0
N2243 N 0.20219 0.30107 0.0753 0.0
C2244 C 0.27639 0.29641 0.05738 0.0
C2245 C 0.26174 0.32925 0.05916 0.0
C2246 C 0.27074 0.29551 0.04584 0.0
N2247 N 0.27193 0.31316 0.06374 0.0
C2248 C 0.25588 0.32904 0.04769 0.0
C2249 C 0.26039 0.31203 0.04086 0.0
H2250 H 0.28427 0.28372 0.0613 0.0
H2251 H 0.25782 0.34215 0.06445 0.0
C2252 C 0.24891 0.35505 0.10868 0.0
N2253 N 0.24631 0.33489 0.10654 0.0
C2254 C 0.23373 0.36607 0.11423 0.0
C2255 C 0.2134 0.33539 0.11523 0.0
C2256 C 0.22917 0.32484 0.10982 0.0
C2257 C 0.21561 0.35629 0.11743 0.0
H2258 H 0.26273 0.36257 0.10595 0.0
H2259 H 0.22762 0.30874 0.10806 0.0
O2260 O 0.30483 0.30124 0.08384 0.0
O2261 O 0.29129 0.31274 0.1078 0.0
O2262 O 0.28005 0.34096 0.08709 0.0
O2263 O 0.25972 0.29734 0.0895 0.0
H2264 H 0.33014 0.27702 0.09517 0.0
H2265 H 0.31958 0.3073 0.06296 0.0
H2266 H 0.36195 0.2625 0.08717 0.0
H2267 H 0.3517 0.29242 0.05559 0.0
H2268 H 0.25275 0.30416 0.13977 0.0
H2269 H 0.30122 0.34709 0.11827 0.0
H2270 H 0.26562 0.29223 0.12092 0.0
H2271 H 0.2877 0.35808 0.13715 0.0
H2272 H 0.37607 0.33169 0.10461 0.0
H2273 H 0.34239 0.38828 0.10372 0.0
H2274 H 0.29228 0.21568 0.09275 0.0
H2275 H 0.31211 0.24237 0.12477 0.0
H2276 H 0.26344 0.37698 0.08358 0.0
H2277 H 0.31273 0.3375 0.07383 0.0
H2278 H 0.27639 0.40286 0.06987 0.0
H2279 H 0.32476 0.3639 0.06024 0.0
H2280 H 0.24118 0.33143 0.08292 0.0
H2281 H 0.23522 0.26629 0.08555 0.0
H2282 H 0.20667 0.33297 0.07437 0.0
H2283 H 0.20071 0.26899 0.07695 0.0
H2284 H 0.2746 0.28216 0.04085 0.0
H2285 H 0.24757 0.34192 0.04426 0.0
H2286 H 0.23588 0.38223 0.11566 0.0
H2287 H 0.19964 0.32735 0.11764 0.0
Li2288 Li 0.42255 0.55409 0.84431 0.0
Li2289 Li 0.45659 0.53661 0.84548 0.0
Li2290 Li 0.43367 0.53075 0.82887 0.0
Li2291 Li 0.42538 0.51824 0.84729 0.0
C2292 C 0.45598 0.5733 0.82995 0.0
N2293 N 0.47587 0.60758 0.82199 0.0
C2294 C 0.46875 0.58437 0.83723 0.0
C2295 C 0.45342 0.5796 0.81859 0.0
C2296 C 0.47865 0.60168 0.83305 0.0
C2297 C 0.46358 0.597 0.81474 0.0
C2298 C 0.42969 0.53282 0.86779 0.0
C2299 C 0.43453 0.50946 0.8835 0.0
N2300 N 0.41683 0.51611 0.88827 0.0
C2301 C 0.41162 0.5395 0.87287 0.0
C2302 C 0.44131 0.51775 0.87316 0.0
C2303 C 0.40536 0.53084 0.88322 0.0
C2304 C 0.3877 0.57689 0.8503 0.0
N2305 N 0.40801 0.57825 0.84815 0.0
C2306 C 0.4079 0.6136 0.85297 0.0
C2307 C 0.41818 0.59613 0.84939 0.0
C2308 C 0.38696 0.61263 0.85538 0.0
C2309 C 0.37679 0.594 0.85387 0.0
H2310 H 0.38005 0.56237 0.84953 0.0
H2311 H 0.43434 0.59677 0.84786 0.0
C2312 C 0.49889 0.54123 0.84199 0.0
N2313 N 0.48391 0.54073 0.85002 0.0
C2314 C 0.51872 0.54666 0.84511 0.0
C2315 C 0.50734 0.55022 0.86472 0.0
C2316 C 0.48775 0.54494 0.86121 0.0
C2317 C 0.52306 0.55146 0.85659 0.0
H2318 H 0.49527 0.53806 0.83312 0.0
H2319 H 0.47544 0.5449 0.86736 0.0
C2320 C 0.39232 0.54074 0.82958 0.0
N2321 N 0.36345 0.55779 0.81526 0.0
C2322 C 0.37296 0.53202 0.82869 0.0
C2323 C 0.39697 0.55816 0.82321 0.0
C2324 C 0.35858 0.54086 0.8214 0.0
C2325 C 0.38217 0.56654 0.81602 0.0
C2326 C 0.44717 0.49174 0.83299 0.0
C2327 C 0.42794 0.48521 0.82937 0.0
C2328 C 0.46407 0.47915 0.83134 0.0
C2329 C 0.42596 0.46617 0.82415 0.0
C2330 C 0.46146 0.46021 0.82609 0.0
N2331 N 0.44262 0.45416 0.82263 0.0
C2332 C 0.45188 0.52758 0.80717 0.0
C2333 C 0.41715 0.51783 0.80757 0.0
C2334 C 0.45331 0.52227 0.7956 0.0
N2335 N 0.43399 0.52529 0.81288 0.0
C2336 C 0.41782 0.51252 0.79601 0.0
C2337 C 0.43614 0.51448 0.78988 0.0
H2338 H 0.46514 0.53316 0.81169 0.0
H2339 H 0.40326 0.51553 0.81233 0.0
C2340 C 0.39223 0.49951 0.85749 0.0
N2341 N 0.4122 0.4965 0.85502 0.0
C2342 C 0.38096 0.48421 0.86278 0.0
C2343 C 0.41104 0.46292 0.86286 0.0
C2344 C 0.42183 0.47879 0.8577 0.0
C2345 C 0.39031 0.46557 0.86542 0.0
H2346 H 0.38504 0.51379 0.85525 0.0
H2347 H 0.43781 0.47692 0.85572 0.0
O2348 O 0.44644 0.55607 0.83379 0.0
O2349 O 0.4358 0.54074 0.85751 0.0
O2350 O 0.40648 0.53215 0.8367 0.0
O2351 O 0.44961 0.51038 0.83806 0.0
H2352 H 0.47085 0.57979 0.84606 0.0
H2353 H 0.4437 0.57115 0.8128 0.0
H2354 H 0.48852 0.61042 0.83861 0.0
H2355 H 0.4617 0.60207 0.80598 0.0
H2356 H 0.44327 0.49767 0.88771 0.0
H2357 H 0.40244 0.55113 0.86881 0.0
H2358 H 0.45524 0.51227 0.86928 0.0
H2359 H 0.39134 0.53578 0.88722 0.0
H2360 H 0.41631 0.62769 0.85392 0.0
H2361 H 0.36073 0.59249 0.85581 0.0
H2362 H 0.53044 0.54739 0.83859 0.0
H2363 H 0.50995 0.55418 0.87361 0.0
H2364 H 0.36913 0.51854 0.83357 0.0
H2365 H 0.41177 0.5652 0.82384 0.0
H2366 H 0.34356 0.53425 0.82061 0.0
H2367 H 0.38557 0.58003 0.81105 0.0
H2368 H 0.41466 0.49469 0.83057 0.0
H2369 H 0.47906 0.48401 0.83407 0.0
H2370 H 0.41118 0.46094 0.82131 0.0
H2371 H 0.47442 0.45031 0.82475 0.0
H2372 H 0.46783 0.52375 0.7913 0.0
H2373 H 0.40411 0.50685 0.79196 0.0
H2374 H 0.36495 0.48674 0.8645 0.0
H2375 H 0.41877 0.44878 0.86485 0.0
Li2376 Li 0.20924 0.70405 0.59621 0.0
Li2377 Li 0.19335 0.67052 0.59303 0.0
Li2378 Li 0.22895 0.67348 0.5966 0.0
Li2379 Li 0.216 0.68473 0.57878 0.0
C2380 C 0.21621 0.67917 0.61737 0.0
N2381 N 0.2371 0.67455 0.63777 0.0
C2382 C 0.21206 0.6626 0.62451 0.0
C2383 C 0.2309 0.69345 0.62063 0.0
C2384 C 0.22281 0.66051 0.63478 0.0
C2385 C 0.24132 0.69083 0.63096 0.0
C2386 C 0.17116 0.70528 0.58573 0.0
C2387 C 0.14234 0.72453 0.5789 0.0
N2388 N 0.13415 0.72407 0.5896 0.0
C2389 C 0.16247 0.705 0.59667 0.0
C2390 C 0.16105 0.71513 0.57677 0.0
C2391 C 0.14375 0.71459 0.59845 0.0
C2392 C 0.20973 0.74704 0.59605 0.0
N2393 N 0.20491 0.73036 0.60238 0.0
C2394 C 0.1916 0.7512 0.61737 0.0
C2395 C 0.19612 0.73206 0.61287 0.0
C2396 C 0.19612 0.76878 0.61098 0.0
C2397 C 0.20545 0.76653 0.60021 0.0
H2398 H 0.21663 0.74516 0.58769 0.0
H2399 H 0.19222 0.71851 0.61766 0.0
C2400 C 0.17448 0.63686 0.60241 0.0
N2401 N 0.17058 0.65324 0.59565 0.0
C2402 C 0.15887 0.62351 0.60541 0.0
C2403 C 0.13565 0.6435 0.59392 0.0
C2404 C 0.15178 0.65644 0.5911 0.0
C2405 C 0.13903 0.62699 0.60136 0.0
H2406 H 0.18978 0.63424 0.60549 0.0
H2407 H 0.14917 0.66911 0.58538 0.0
C2408 C 0.25465 0.69928 0.58376 0.0
N2409 N 0.29261 0.69932 0.57354 0.0
C2410 C 0.26311 0.68111 0.57972 0.0
C2411 C 0.26548 0.71747 0.58259 0.0
C2412 C 0.28232 0.68144 0.57459 0.0
C2413 C 0.28466 0.71718 0.5774 0.0
C2414 C 0.20725 0.64349 0.57705 0.0
C2415 C 0.21517 0.62386 0.57584 0.0
C2416 C 0.19083 0.64962 0.57023 0.0
C2417 C 0.20656 0.61066 0.56779 0.0
C2418 C 0.18265 0.63596 0.56229 0.0
N2419 N 0.19061 0.61693 0.56124 0.0
C2420 C 0.24786 0.6388 0.60435 0.0
C2421 C 0.26878 0.66801 0.60648 0.0
C2422 C 0.26377 0.62615 0.60771 0.0
N2423 N 0.25079 0.65919 0.60351 0.0
C2424 C 0.28521 0.65588 0.60987 0.0
C2425 C 0.28292 0.6346 0.61018 0.0
H2426 H 0.23328 0.63231 0.60205 0.0
H2427 H 0.27062 0.68432 0.60577 0.0
C2428 C 0.21602 0.70347 0.55685 0.0
N2429 N 0.22191 0.68677 0.56288 0.0
C2430 C 0.22097 0.70522 0.54523 0.0
C2431 C 0.23787 0.67256 0.54634 0.0
C2432 C 0.23267 0.67148 0.55788 0.0
C2433 C 0.23201 0.68957 0.53985 0.0
H2434 H 0.20758 0.71545 0.56108 0.0
H2435 H 0.23746 0.65849 0.56288 0.0
O2436 O 0.20623 0.68127 0.60714 0.0
O2437 O 0.18959 0.69622 0.58376 0.0
O2438 O 0.23583 0.69945 0.5888 0.0
O2439 O 0.21559 0.65649 0.58494 0.0
H2440 H 0.20068 0.65147 0.62218 0.0
H2441 H 0.23445 0.70626 0.61514 0.0
H2442 H 0.21979 0.64774 0.64038 0.0
H2443 H 0.25281 0.7017 0.63356 0.0
H2444 H 0.13433 0.73219 0.57203 0.0
H2445 H 0.17 0.69736 0.6037 0.0
H2446 H 0.16761 0.7155 0.56826 0.0
H2447 H 0.13684 0.71448 0.60686 0.0
H2448 H 0.18406 0.75217 0.6256 0.0
H2449 H 0.20933 0.77967 0.59505 0.0
H2450 H 0.16229 0.61066 0.61091 0.0
H2451 H 0.12062 0.64676 0.59058 0.0
H2452 H 0.255 0.66687 0.58057 0.0
H2453 H 0.25912 0.73168 0.58566 0.0
H2454 H 0.28905 0.66748 0.57144 0.0
H2455 H 0.29322 0.73116 0.57644 0.0
H2456 H 0.22788 0.61889 0.58104 0.0
H2457 H 0.18447 0.66472 0.57101 0.0
H2458 H 0.21256 0.59543 0.56675 0.0
H2459 H 0.16996 0.6405 0.55695 0.0
H2460 H 0.26122 0.60987 0.60812 0.0
H2461 H 0.29973 0.66298 0.61171 0.0
H2462 H 0.21607 0.71854 0.5405 0.0
H2463 H 0.24674 0.66034 0.54261 0.0
Li2464 Li 0.07535 0.55204 0.15159 0.0
Li2465 Li 0.04191 0.53351 0.15042 0.0
Li2466 Li 0.06325 0.53084 0.1679 0.0
Li2467 Li 0.07355 0.51586 0.15047 0.0
C2468 C 0.0396 0.57185 0.16432 0.0
N2469 N 0.01677 0.60542 0.17056 0.0
C2470 C 0.0274 0.58173 0.15623 0.0
C2471 C 0.04019 0.57905 0.17559 0.0
C2472 C 0.01596 0.59867 0.15955 0.0
C2473 C 0.02856 0.59606 0.17857 0.0
C2474 C 0.07085 0.52634 0.12928 0.0
C2475 C 0.0673 0.50046 0.11476 0.0
N2476 N 0.08584 0.50567 0.11047 0.0
C2477 C 0.08982 0.53151 0.12472 0.0
C2478 C 0.05943 0.51074 0.12426 0.0
C2479 C 0.09715 0.52085 0.11521 0.0
C2480 C 0.11 0.57493 0.1454 0.0
N2481 N 0.08955 0.57603 0.14713 0.0
C2482 C 0.08933 0.61112 0.14175 0.0
C2483 C 0.07915 0.59364 0.14538 0.0
C2484 C 0.11045 0.61046 0.13984 0.0
C2485 C 0.12083 0.59207 0.14178 0.0
H2486 H 0.11787 0.56064 0.14667 0.0
H2487 H 0.06291 0.59409 0.14666 0.0
C2488 C -0.00035 0.53786 0.15302 0.0
N2489 N 0.01489 0.53668 0.14518 0.0
C2490 C 0.98014 0.54384 0.14963 0.0
C2491 C 0.99226 0.54624 0.1301 0.0
C2492 C 0.01155 0.54038 0.13388 0.0
C2493 C 0.9764 0.54855 0.13807 0.0
H2494 H 0.0029 0.53512 0.16198 0.0
H2495 H 0.0241 0.53979 0.12789 0.0
C2496 C 0.10426 0.54227 0.16786 0.0
N2497 N 0.13108 0.56277 0.18201 0.0
C2498 C 0.12378 0.53449 0.1698 0.0
C2499 C 0.09841 0.56051 0.17309 0.0
C2500 C 0.1371 0.54507 0.17699 0.0
C2501 C 0.11219 0.57064 0.18021 0.0
C2502 C 0.05118 0.49097 0.16527 0.0
C2503 C 0.07004 0.486 0.1701 0.0
C2504 C 0.03476 0.47763 0.16655 0.0
C2505 C 0.07214 0.46773 0.17612 0.0
C2506 C 0.03748 0.4595 0.17264 0.0
N2507 N 0.05595 0.45497 0.17725 0.0
C2508 C 0.0426 0.52918 0.18895 0.0
C2509 C 0.07812 0.52326 0.19047 0.0
C2510 C 0.04014 0.52595 0.20071 0.0
N2511 N 0.06139 0.5279 0.18411 0.0
C2512 C 0.07642 0.52024 0.20224 0.0
C2513 C 0.05725 0.52152 0.20749 0.0
H2514 H 0.02951 0.5325 0.18364 0.0
H2515 H 0.09275 0.5214 0.18641 0.0
C2516 C 0.10853 0.49564 0.14385 0.0
N2517 N 0.08807 0.49312 0.14466 0.0
C2518 C 0.12097 0.47924 0.14103 0.0
C2519 C 0.09096 0.45804 0.13949 0.0
C2520 C 0.07905 0.47495 0.14233 0.0
C2521 C 0.11226 0.46001 0.13908 0.0
H2522 H 0.11521 0.51035 0.14566 0.0
H2523 H 0.0627 0.47343 0.14304 0.0
O2524 O 0.05064 0.55498 0.16132 0.0
O2525 O 0.06364 0.53624 0.13875 0.0
O2526 O 0.09115 0.53197 0.16081 0.0
O2527 O 0.04866 0.50874 0.15931 0.0
H2528 H 0.02689 0.5765 0.14744 0.0
H2529 H 0.04956 0.57162 0.18197 0.0
H2530 H 0.00646 0.60646 0.15337 0.0
H2531 H 0.02889 0.60181 0.18726 0.0
H2532 H 0.0587 0.48827 0.11082 0.0
H2533 H 0.09886 0.5435 0.12853 0.0
H2534 H 0.04479 0.50645 0.12776 0.0
H2535 H 0.11186 0.52462 0.11161 0.0
H2536 H 0.08075 0.62503 0.14047 0.0
H2537 H 0.13705 0.5908 0.14026 0.0
H2538 H 0.96829 0.54534 0.15603 0.0
H2539 H 0.99011 0.55004 0.12115 0.0
H2540 H 0.12854 0.52038 0.16583 0.0
H2541 H 0.08347 0.56685 0.17166 0.0
H2542 H 0.15224 0.5392 0.17859 0.0
H2543 H 0.10785 0.58477 0.18431 0.0
H2544 H 0.08296 0.49606 0.16919 0.0
H2545 H 0.02007 0.48126 0.16287 0.0
H2546 H 0.08665 0.4637 0.17988 0.0
H2547 H 0.02489 0.44903 0.17368 0.0
H2548 H 0.02511 0.52699 0.20447 0.0
H2549 H 0.08988 0.51641 0.20716 0.0
H2550 H 0.13728 0.48153 0.14054 0.0
H2551 H 0.08366 0.44348 0.13805 0.0
Li2552 Li 0.23047 0.32433 0.9011 0.0
Li2553 Li 0.21354 0.31266 0.91791 0.0
Li2554 Li 0.20927 0.29404 0.89924 0.0
Li2555 Li 0.19379 0.32809 0.90283 0.0
C2556 C 0.25299 0.28962 0.90613 0.0
N2557 N 0.29078 0.27336 0.90101 0.0
C2558 C 0.26969 0.2935 0.91325 0.0
C2559 C 0.25555 0.27737 0.89643 0.0
C2560 C 0.28866 0.2852 0.9105 0.0
C2561 C 0.27475 0.2693 0.89399 0.0
C2562 C 0.2171 0.35178 0.92209 0.0
C2563 C 0.20307 0.36471 0.93977 0.0
N2564 N 0.22163 0.3724 0.94261 0.0
C2565 C 0.23604 0.35984 0.92519 0.0
C2566 C 0.20048 0.35428 0.92944 0.0
C2567 C 0.23801 0.37021 0.93559 0.0
C2568 C 0.2516 0.35949 0.89609 0.0
N2569 N 0.25383 0.33894 0.89562 0.0
C2570 C 0.28792 0.34263 0.8887 0.0
C2571 C 0.27135 0.33037 0.89166 0.0
C2572 C 0.28633 0.36389 0.8897 0.0
C2573 C 0.26769 0.37229 0.89321 0.0
H2574 H 0.23731 0.36598 0.89888 0.0
H2575 H 0.27264 0.31411 0.89083 0.0
C2576 C 0.20166 0.30271 0.94098 0.0
N2577 N 0.21681 0.30947 0.93401 0.0
C2578 C 0.2046 0.30206 0.95286 0.0
C2579 C 0.2387 0.31501 0.95003 0.0
C2580 C 0.23517 0.31522 0.93829 0.0
C2581 C 0.22324 0.30861 0.9575 0.0
H2582 H 0.18722 0.29812 0.93734 0.0
H2583 H 0.24689 0.32058 0.93256 0.0
C2584 C 0.21774 0.32768 0.88008 0.0
N2585 N 0.23641 0.34749 0.86204 0.0
C2586 C 0.21258 0.34781 0.8775 0.0
C2587 C 0.23235 0.31759 0.87347 0.0
C2588 C 0.2222 0.35757 0.86835 0.0
C2589 C 0.24163 0.32788 0.86439 0.0
C2590 C 0.16742 0.30131 0.91071 0.0
C2591 C 0.1573 0.29072 0.90201 0.0
C2592 C 0.15613 0.31182 0.91896 0.0
C2593 C 0.13604 0.29099 0.90165 0.0
C2594 C 0.13489 0.31175 0.9183 0.0
N2595 N 0.12537 0.30144 0.90973 0.0
C2596 C 0.20092 0.25204 0.8989 0.0
C2597 C 0.20223 0.26768 0.8806 0.0
C2598 C 0.19497 0.23358 0.89399 0.0
N2599 N 0.20415 0.26861 0.89218 0.0
C2600 C 0.19648 0.2495 0.87532 0.0
C2601 C 0.19236 0.23221 0.88205 0.0
H2602 H 0.20232 0.25339 0.90811 0.0
H2603 H 0.20466 0.28118 0.87549 0.0
C2604 C 0.16679 0.36226 0.90396 0.0
N2605 N 0.17096 0.34432 0.89864 0.0
C2606 C 0.15019 0.37403 0.90046 0.0
C2607 C 0.14279 0.34885 0.88593 0.0
C2608 C 0.15949 0.33757 0.88972 0.0
C2609 C 0.13796 0.36736 0.89132 0.0
H2610 H 0.1765 0.36762 0.91078 0.0
H2611 H 0.16341 0.32343 0.88551 0.0
O2612 O 0.23421 0.29738 0.90879 0.0
O2613 O 0.21493 0.34123 0.91203 0.0
O2614 O 0.20896 0.31809 0.88923 0.0
O2615 O 0.18826 0.30161 0.91105 0.0
H2616 H 0.26812 0.30289 0.92078 0.0
H2617 H 0.24297 0.27428 0.89074 0.0
H2618 H 0.3017 0.28816 0.91591 0.0
H2619 H 0.27693 0.25987 0.88649 0.0
H2620 H 0.19035 0.36663 0.94556 0.0
H2621 H 0.24921 0.35777 0.91976 0.0
H2622 H 0.18578 0.348 0.92727 0.0
H2623 H 0.25261 0.37641 0.93811 0.0
H2624 H 0.30195 0.33551 0.88592 0.0
H2625 H 0.26555 0.38861 0.89375 0.0
H2626 H 0.1923 0.29705 0.95836 0.0
H2627 H 0.25339 0.3199 0.95325 0.0
H2628 H 0.20145 0.3559 0.8826 0.0
H2629 H 0.23669 0.30208 0.87544 0.0
H2630 H 0.21843 0.37318 0.86628 0.0
H2631 H 0.25305 0.32031 0.85924 0.0
H2632 H 0.16574 0.2826 0.8955 0.0
H2633 H 0.16367 0.32001 0.92578 0.0
H2634 H 0.12802 0.28297 0.89493 0.0
H2635 H 0.12598 0.31991 0.9246 0.0
H2636 H 0.19166 0.22079 0.89955 0.0
H2637 H 0.19494 0.24911 0.86609 0.0
H2638 H 0.14722 0.38839 0.90472 0.0
H2639 H 0.13369 0.34305 0.87891 0.0
Li2640 Li 0.43153 0.46499 0.66718 0.0
Li2641 Li 0.42212 0.47766 0.64899 0.0
Li2642 Li 0.4188 0.4419 0.65208 0.0
Li2643 Li 0.45295 0.45866 0.65004 0.0
C2644 C 0.38998 0.45564 0.66735 0.0
N2645 N 0.36175 0.4387 0.6821 0.0
C2646 C 0.37055 0.46415 0.66833 0.0
C2647 C 0.39503 0.43847 0.67384 0.0
C2648 C 0.3565 0.45538 0.67585 0.0
C2649 C 0.38056 0.43014 0.68125 0.0
C2650 C 0.44538 0.50372 0.66276 0.0
C2651 C 0.46064 0.53509 0.66924 0.0
N2652 N 0.44219 0.54139 0.67317 0.0
C2653 C 0.42657 0.5105 0.66688 0.0
C2654 C 0.46257 0.51609 0.66395 0.0
C2655 C 0.42527 0.52959 0.67211 0.0
C2656 C 0.45111 0.4671 0.68855 0.0
N2657 N 0.43297 0.47014 0.68319 0.0
C2658 C 0.41776 0.48147 0.70064 0.0
C2659 C 0.41653 0.47748 0.68894 0.0
C2660 C 0.43621 0.4783 0.70643 0.0
C2661 C 0.45311 0.47117 0.70025 0.0
H2662 H 0.46402 0.46157 0.6837 0.0
H2663 H 0.40249 0.48052 0.68444 0.0
C2664 C 0.38875 0.49668 0.6393 0.0
N2665 N 0.40885 0.49954 0.6415 0.0
C2666 C 0.37736 0.51207 0.63419 0.0
C2667 C 0.40757 0.53318 0.63373 0.0
C2668 C 0.41848 0.5172 0.63871 0.0
C2669 C 0.38672 0.53067 0.63146 0.0
H2670 H 0.38157 0.48243 0.6416 0.0
H2671 H 0.43456 0.51894 0.64046 0.0
C2672 C 0.45322 0.42184 0.66515 0.0
N2673 N 0.4733 0.38668 0.6716 0.0
C2674 C 0.46408 0.41054 0.65704 0.0
C2675 C 0.45258 0.41526 0.67654 0.0
C2676 C 0.47413 0.39281 0.66048 0.0
C2677 C 0.46282 0.39744 0.67963 0.0
C2678 C 0.42671 0.46394 0.6283 0.0
C2679 C 0.4086 0.45917 0.6226 0.0
C2680 C 0.44006 0.47822 0.62356 0.0
C2681 C 0.40404 0.46895 0.61228 0.0
C2682 C 0.43495 0.48766 0.61322 0.0
N2683 N 0.41719 0.48288 0.60785 0.0
C2684 C 0.38357 0.42165 0.64508 0.0
C2685 C 0.41043 0.39926 0.65009 0.0
C2686 C 0.37107 0.40523 0.64219 0.0
N2687 N 0.40288 0.4184 0.64886 0.0
C2688 C 0.39848 0.3824 0.6473 0.0
C2689 C 0.37855 0.38527 0.64321 0.0
H2690 H 0.37793 0.43706 0.64423 0.0
H2691 H 0.42576 0.39699 0.6531 0.0
C2692 C 0.49605 0.45854 0.65135 0.0
N2693 N 0.47969 0.45438 0.64461 0.0
C2694 C 0.51569 0.45395 0.64752 0.0
C2695 C 0.50116 0.44126 0.62986 0.0
C2696 C 0.48187 0.44608 0.63402 0.0
C2697 C 0.51841 0.44501 0.63667 0.0
H2698 H 0.49378 0.46507 0.65977 0.0
H2699 H 0.46854 0.44266 0.62893 0.0
O2700 O 0.40376 0.4641 0.65996 0.0
O2701 O 0.44716 0.48505 0.65764 0.0
O2702 O 0.44344 0.43939 0.66202 0.0
O2703 O 0.43121 0.45494 0.63855 0.0
H2704 H 0.36639 0.47742 0.66335 0.0
H2705 H 0.40991 0.4316 0.67317 0.0
H2706 H 0.34142 0.46182 0.6767 0.0
H2707 H 0.38427 0.41686 0.68632 0.0
H2708 H 0.47382 0.54482 0.67022 0.0
H2709 H 0.41308 0.5012 0.66603 0.0
H2710 H 0.47724 0.51103 0.66083 0.0
H2711 H 0.41081 0.53502 0.67532 0.0
H2712 H 0.40452 0.48734 0.70509 0.0
H2713 H 0.46759 0.46857 0.70444 0.0
H2714 H 0.36126 0.50966 0.63267 0.0
H2715 H 0.41528 0.54728 0.63167 0.0
H2716 H 0.46449 0.41523 0.64817 0.0
H2717 H 0.44422 0.4238 0.68292 0.0
H2718 H 0.48254 0.38388 0.65429 0.0
H2719 H 0.46243 0.39215 0.68841 0.0
H2720 H 0.39811 0.44816 0.62617 0.0
H2721 H 0.45407 0.48218 0.62791 0.0
H2722 H 0.39002 0.4655 0.60781 0.0
H2723 H 0.44506 0.49884 0.60949 0.0
H2724 H 0.35572 0.40815 0.63921 0.0
H2725 H 0.405 0.36732 0.64806 0.0
H2726 H 0.52857 0.45724 0.65301 0.0
H2727 H 0.50245 0.43402 0.62156 0.0
Li2728 Li 0.2693 0.67496 0.40198 0.0
Li2729 Li 0.28741 0.68638 0.41843 0.0
Li2730 Li 0.28946 0.70527 0.39997 0.0
Li2731 Li 0.30568 0.67089 0.40231 0.0
C2732 C 0.24734 0.71047 0.40926 0.0
N2733 N 0.20987 0.72944 0.40761 0.0
C2734 C 0.23325 0.70889 0.4182 0.0
C2735 C 0.24245 0.72195 0.39955 0.0
C2736 C 0.21436 0.71851 0.41718 0.0
C2737 C 0.22341 0.73136 0.39886 0.0
C2738 C 0.27477 0.64616 0.4199 0.0
C2739 C 0.27078 0.61529 0.43087 0.0
N2740 N 0.25253 0.62218 0.43479 0.0
C2741 C 0.25599 0.65293 0.42404 0.0
C2742 C 0.28225 0.6272 0.42333 0.0
C2743 C 0.24496 0.64058 0.43155 0.0
C2744 C 0.24841 0.63997 0.39599 0.0
N2745 N 0.24534 0.6603 0.39734 0.0
C2746 C 0.20985 0.65633 0.39329 0.0
C2747 C 0.22656 0.66868 0.39585 0.0
C2748 C 0.21252 0.6352 0.39226 0.0
C2749 C 0.23217 0.62709 0.39347 0.0
H2750 H 0.26353 0.6337 0.39702 0.0
H2751 H 0.22436 0.68482 0.39674 0.0
C2752 C 0.27645 0.70598 0.43884 0.0
N2753 N 0.28615 0.68936 0.43456 0.0
C2754 C 0.2723 0.70735 0.45054 0.0
C2755 C 0.28914 0.67495 0.45326 0.0
C2756 C 0.29295 0.67422 0.44151 0.0
C2757 C 0.2782 0.69143 0.45786 0.0
H2758 H 0.2712 0.71778 0.43308 0.0
H2759 H 0.30065 0.66117 0.4379 0.0
C2760 C 0.27914 0.67256 0.38046 0.0
N2761 N 0.25815 0.65365 0.3629 0.0
C2762 C 0.28522 0.65336 0.37658 0.0
C2763 C 0.2625 0.68223 0.37533 0.0
C2764 C 0.27439 0.64404 0.36771 0.0
C2765 C 0.25204 0.67239 0.36649 0.0
C2766 C 0.32854 0.69555 0.41778 0.0
C2767 C 0.34037 0.71276 0.42006 0.0
C2768 C 0.33349 0.67696 0.42292 0.0
C2769 C 0.35701 0.71108 0.42747 0.0
C2770 C 0.35023 0.67591 0.43028 0.0
N2771 N 0.36155 0.69285 0.43239 0.0
C2772 C 0.30029 0.74638 0.40039 0.0
C2773 C 0.29109 0.7342 0.38198 0.0
C2774 C 0.30531 0.76538 0.39584 0.0
N2775 N 0.29357 0.73125 0.39342 0.0
C2776 C 0.29565 0.75306 0.37708 0.0
C2777 C 0.30323 0.7689 0.384 0.0
H2778 H 0.30227 0.74347 0.40945 0.0
H2779 H 0.28587 0.72182 0.37663 0.0
C2780 C 0.32682 0.63418 0.398 0.0
N2781 N 0.32838 0.65482 0.39809 0.0
C2782 C 0.34363 0.62224 0.39505 0.0
C2783 C 0.36328 0.65307 0.3925 0.0
C2784 C 0.34605 0.6644 0.39536 0.0
C2785 C 0.36219 0.63171 0.39233 0.0
H2786 H 0.3125 0.62704 0.4002 0.0
H2787 H 0.34677 0.68086 0.39547 0.0
O2788 O 0.26601 0.70137 0.41018 0.0
O2789 O 0.28596 0.65804 0.41261 0.0
O2790 O 0.28924 0.68167 0.38934 0.0
O2791 O 0.31217 0.69698 0.41056 0.0
H2792 H 0.23685 0.70037 0.42588 0.0
H2793 H 0.25313 0.72346 0.39257 0.0
H2794 H 0.2033 0.71733 0.42401 0.0
H2795 H 0.21939 0.74018 0.39136 0.0
H2796 H 0.2764 0.60059 0.43361 0.0
H2797 H 0.24999 0.66752 0.42145 0.0
H2798 H 0.29682 0.62178 0.42025 0.0
H2799 H 0.2304 0.64564 0.43481 0.0
H2800 H 0.19493 0.6632 0.3924 0.0
H2801 H 0.235 0.61094 0.39248 0.0
H2802 H 0.2637 0.72025 0.45371 0.0
H2803 H 0.29426 0.66252 0.45863 0.0
H2804 H 0.29806 0.64566 0.38044 0.0
H2805 H 0.25749 0.69701 0.37827 0.0
H2806 H 0.27886 0.62913 0.36466 0.0
H2807 H 0.23903 0.67962 0.36252 0.0
H2808 H 0.33675 0.72725 0.41614 0.0
H2809 H 0.32449 0.66348 0.42126 0.0
H2810 H 0.36631 0.72428 0.42932 0.0
H2811 H 0.35423 0.66162 0.43432 0.0
H2812 H 0.31143 0.77691 0.40151 0.0
H2813 H 0.29347 0.75509 0.36796 0.0
H2814 H 0.34222 0.6058 0.39507 0.0
H2815 H 0.37723 0.66095 0.39031 0.0
H2816 H 0.40676 0.97092 0.27389 0.0
H2817 H 0.46788 0.02452 0.22296 0.0
H2818 H 0.46309 0.00355 0.27916 0.0
H2819 H 0.4053 0.00485 0.22025 0.0
H2820 H 0.46758 0.01513 0.24325 0.0
H2821 H 0.4073 0.98099 0.25379 0.0
C2822 C 0.41921 0.98028 0.27085 0.0
C2823 C 0.43485 0.98648 0.27828 0.0
C2824 C 0.45392 0.01292 0.2382 0.0
C2825 C 0.43569 0.99785 0.25517 0.0
C2826 C 0.45403 0.0184 0.22663 0.0
C2827 C 0.43661 0.01539 0.21984 0.0
C2828 C 0.43632 0.00429 0.243 0.0
C2829 C 0.41921 0.00709 0.22506 0.0
C2830 C 0.41954 0.98597 0.25934 0.0
C2831 C 0.45083 0.99821 0.27374 0.0
N2832 N 0.41955 0.00177 0.2363 0.0
N2833 N 0.45083 0.00353 0.26248 0.0
H2834 H 0.28828 0.2028 0.52238 0.0
H2835 H 0.20578 0.16801 0.47568 0.0
H2836 H 0.23764 0.16312 0.52992 0.0
H2837 H 0.26103 0.2003 0.46728 0.0
H2838 H 0.21577 0.1684 0.49589 0.0
H2839 H 0.2772 0.20424 0.50237 0.0
C2840 C 0.27479 0.19446 0.51983 0.0
C2841 C 0.26393 0.18274 0.5278 0.0
C2842 C 0.2257 0.17542 0.48962 0.0
C2843 C 0.25116 0.18428 0.50495 0.0
C2844 C 0.21993 0.17532 0.4781 0.0
C2845 C 0.23264 0.18405 0.46979 0.0
C2846 C 0.24424 0.18443 0.49285 0.0
C2847 C 0.25091 0.19314 0.47339 0.0
C2848 C 0.26852 0.19521 0.5084 0.0
C2849 C 0.24665 0.17209 0.52401 0.0
N2850 N 0.25617 0.19308 0.48465 0.0
N2851 N 0.24079 0.17314 0.51286 0.0
H2852 H 0.06107 0.04082 0.77223 0.0
H2853 H 0.04875 0.95193 0.72606 0.0
H2854 H 0.05769 0.97742 0.78174 0.0
H2855 H 0.07616 0.00998 0.71823 0.0
H2856 H 0.04649 0.96211 0.74628 0.0
H2857 H 0.06105 0.03082 0.75199 0.0
C2858 C 0.06018 0.02481 0.77004 0.0
C2859 C 0.05947 0.0099 0.77863 0.0
C2860 C 0.05299 0.97258 0.74012 0.0
C2861 C 0.05938 0.9984 0.75559 0.0
C2862 C 0.0542 0.96683 0.72861 0.0
C2863 C 0.06278 0.98011 0.72054 0.0
C2864 C 0.06008 0.99186 0.74348 0.0
C2865 C 0.06967 -0.00077 0.72424 0.0
C2866 C 0.06029 0.01912 0.75852 0.0
C2867 C 0.05848 0.98935 0.77535 0.0
N2868 N 0.0681 0.00458 0.73545 0.0
N2869 N 0.05839 0.98419 0.76408 0.0
H2870 H 0.25232 0.78416 0.97039 0.0
H2871 H 0.24291 0.84953 0.02765 0.0
H2872 H 0.27654 0.84506 0.97368 0.0
H2873 H 0.23768 0.78395 0.02711 0.0
H2874 H 0.25255 0.84884 0.00745 0.0
H2875 H 0.2443 0.78434 0.99081 0.0
C2876 C 0.25615 0.7975 0.97539 0.0
C2877 C 0.26512 0.81464 0.97024 0.0
C2878 C 0.24934 0.83461 0.01177 0.0
C2879 C 0.25551 0.81507 0.99361 0.0
C2880 C 0.24391 0.83497 0.02333 0.0
C2881 C 0.23946 0.81676 0.02914 0.0
C2882 C 0.25015 0.81595 0.00593 0.0
C2883 C 0.24062 0.7984 0.02298 0.0
C2884 C 0.25144 0.79762 0.98705 0.0
C2885 C 0.2693 0.83163 0.97719 0.0
N2886 N 0.24578 0.79848 0.01171 0.0
N2887 N 0.26437 0.83145 0.98849 0.0
H2888 H 0.56836 0.01726 0.78036 0.0
H2889 H 0.53233 0.99016 0.717 0.0
H2890 H 0.54389 0.95817 0.7716 0.0
H2891 H 0.58066 0.03277 0.72414 0.0
H2892 H 0.53069 0.9818 0.73752 0.0
H2893 H 0.56745 0.02662 0.76015 0.0
C2894 C 0.5629 0.00617 0.77422 0.0
C2895 C 0.55646 0.98674 0.77775 0.0
C2896 C 0.54158 0.99303 0.73457 0.0
C2897 C 0.55482 0.99772 0.75459 0.0
C2898 C 0.54243 0.99787 0.72292 0.0
C2899 C 0.55669 0.0121 0.71895 0.0
C2900 C 0.55482 0.00281 0.74226 0.0
C2901 C 0.56957 0.0216 0.7269 0.0
C2902 C 0.56226 0.01163 0.76269 0.0
C2903 C 0.54887 0.97336 0.76935 0.0
N2904 N 0.56828 0.01684 0.7382 0.0
N2905 N 0.54826 0.9791 0.75816 0.0
H2906 H 0.72802 0.84069 0.47456 0.0
H2907 H 0.7715 0.77388 0.52648 0.0
H2908 H 0.74288 0.77691 0.47126 0.0
H2909 H 0.76547 0.83931 0.52733 0.0
H2910 H 0.75884 0.77395 0.50672 0.0
H2911 H 0.7392 0.83969 0.49447 0.0
C2912 C 0.73366 0.82646 0.47803 0.0
C2913 C 0.73469 0.8089 0.47119 0.0
C2914 C 0.76035 0.78828 0.51123 0.0
C2915 C 0.74741 0.8076 0.49406 0.0
C2916 C 0.76752 0.78824 0.5225 0.0
C2917 C 0.76964 0.80663 0.52852 0.0
C2918 C 0.75509 0.80682 0.506 0.0
C2919 C 0.76438 0.82482 0.52295 0.0
C2920 C 0.74 0.82588 0.48941 0.0
C2921 C 0.7417 0.79078 0.47623 0.0
N2922 N 0.7573 0.82444 0.51202 0.0
N2923 N 0.74788 0.79062 0.48736 0.0
H2924 H 0.9614 0.03341 0.27338 0.0
H2925 H 0.92037 0.9569 0.22561 0.0
H2926 H 0.9256 0.97993 0.281 0.0
H2927 H 0.96785 0.00075 0.21901 0.0
H2928 H 0.92157 0.96577 0.24594 0.0
H2929 H 0.96381 0.02223 0.25341 0.0
C2930 C 0.9542 0.01924 0.27089 0.0
C2931 C 0.94308 0.00772 0.27887 0.0
C2932 C 0.93185 0.97337 0.24007 0.0
C2933 C 0.94558 0.995 0.25602 0.0
C2934 C 0.93109 0.96837 0.22847 0.0
C2935 C 0.94397 0.97817 0.22064 0.0
C2936 C 0.94541 0.98848 0.24386 0.0
C2937 C 0.95774 0.99276 0.2248 0.0
C2938 C 0.95553 0.01291 0.25948 0.0
C2939 C 0.93392 0.98958 0.27511 0.0
N2940 N 0.95798 0.99762 0.23613 0.0
N2941 N 0.93525 0.98387 0.26396 0.0
H2942 H 0.78827 0.17599 0.97474 0.0
H2943 H 0.71035 0.21034 0.02258 0.0
H2944 H 0.74187 0.22071 0.9677 0.0
H2945 H 0.77131 0.19001 0.03055 0.0
H2946 H 0.71998 0.21258 0.00236 0.0
H2947 H 0.78065 0.1787 0.99522 0.0
C2948 C 0.77655 0.18647 0.97756 0.0
C2949 C 0.76565 0.19816 0.96961 0.0
C2950 C 0.73123 0.20778 0.00858 0.0
C2951 C 0.75664 0.20112 0.99292 0.0
C2952 C 0.7258 0.20656 0.02014 0.0
C2953 C 0.73995 0.19972 0.02833 0.0
C2954 C 0.75085 0.20187 0.00517 0.0
C2955 C 0.75968 0.1948 0.02456 0.0
C2956 C 0.77225 0.18807 0.98922 0.0
C2957 C 0.75064 0.21155 0.97364 0.0
N2958 N 0.76446 0.19576 0.01326 0.0
N2959 N 0.74636 0.2125 0.98504 0.0
H2960 H 0.92951 0.47867 0.71647 0.0
H2961 H 0.94265 0.51776 0.78083 0.0
H2962 H 0.95158 0.53867 0.72501 0.0
H2963 H 0.93453 0.45444 0.77207 0.0
H2964 H 0.94438 0.5261 0.76044 0.0
H2965 H 0.92975 0.46981 0.73683 0.0
C2966 C 0.93439 0.48997 0.72265 0.0
C2967 C 0.94046 0.50946 0.71907 0.0
C2968 C 0.94231 0.51037 0.76297 0.0
C2969 C 0.94078 0.49944 0.74236 0.0
C2970 C 0.94119 0.50562 0.7746 0.0
C2971 C 0.93837 0.48539 0.77814 0.0
C2972 C 0.94039 0.4948 0.75479 0.0
C2973 C 0.93686 0.47022 0.76971 0.0
C2974 C 0.93464 0.48488 0.73425 0.0
C2975 C 0.94691 0.52344 0.7274 0.0
N2976 N 0.93776 0.47525 0.75842 0.0
N2977 N 0.94676 0.5182 0.73868 0.0
H2978 H 0.79646 0.676 0.02103 0.0
H2979 H 0.70451 0.6754 0.97595 0.0
H2980 H 0.73333 0.6832 0.03055 0.0
H2981 H 0.76783 0.67865 0.96613 0.0
H2982 H 0.71478 0.67633 0.99607 0.0
H2983 H 0.78629 0.67514 0.00087 0.0
C2984 C 0.78049 0.67752 0.01889 0.0
C2985 C 0.76574 0.67963 0.02752 0.0
C2986 C 0.72643 0.67683 0.9895 0.0
C2987 C 0.75396 0.67839 0.00447 0.0
C2988 C 0.72057 0.67639 0.97801 0.0
C2989 C 0.73531 0.67694 0.9693 0.0
C2990 C 0.7472 0.67777 0.99235 0.0
C2991 C 0.75592 0.67787 0.97252 0.0
C2992 C 0.77467 0.67691 0.00738 0.0
C2993 C 0.74522 0.6812 0.02422 0.0
N2994 N 0.76124 0.67825 0.98377 0.0
N2995 N 0.73995 0.68053 0.01297 0.0
H2996 H 0.53436 0.50343 0.27762 0.0
H2997 H 0.59778 0.49915 0.21942 0.0
H2998 H 0.59297 0.53235 0.27344 0.0
H2999 H 0.53337 0.48618 0.22119 0.0
H3000 H 0.59704 0.50938 0.23953 0.0
H3001 H 0.53429 0.4952 0.25723 0.0
C3002 C 0.54712 0.50827 0.27242 0.0
C3003 C 0.56372 0.51859 0.27732 0.0
C3004 C 0.58306 0.50434 0.2355 0.0
C3005 C 0.5639 0.50877 0.25397 0.0
C3006 C 0.58344 0.49857 0.22399 0.0
C3007 C 0.56561 0.49176 0.21856 0.0
C3008 C 0.56475 0.50317 0.24167 0.0
C3009 C 0.54758 0.49098 0.22503 0.0
C3010 C 0.54712 0.50343 0.26078 0.0
C3011 C 0.58 0.52407 0.27013 0.0
N3012 N 0.54763 0.49656 0.23624 0.0
N3013 N 0.57973 0.519 0.25884 0.0
H3014 H 0.75012 0.28446 0.52929 0.0
H3015 H 0.75429 0.34553 0.47016 0.0
H3016 H 0.71812 0.34093 0.52326 0.0
H3017 H 0.77317 0.28278 0.47328 0.0
H3018 H 0.74365 0.3451 0.49016 0.0
H3019 H 0.7609 0.28431 0.50924 0.0
C3020 C 0.74518 0.29673 0.52375 0.0
C3021 C 0.73319 0.31275 0.52801 0.0
C3022 C 0.7501 0.33141 0.48648 0.0
C3023 C 0.74587 0.31285 0.50511 0.0
C3024 C 0.75613 0.33161 0.47503 0.0
C3025 C 0.76448 0.3141 0.46997 0.0
C3026 C 0.75254 0.31361 0.49299 0.0
C3027 C 0.76697 0.29668 0.47683 0.0
C3028 C 0.75147 0.29669 0.51232 0.0
C3029 C 0.72762 0.32843 0.52044 0.0
N3030 N 0.76099 0.29687 0.48799 0.0
N3031 N 0.73406 0.32811 0.50938 0.0
H3032 H 0.0719 0.52248 0.28102 0.0
H3033 H 0.03044 0.49619 0.2184 0.0
H3034 H 0.04098 0.46607 0.27322 0.0
H3035 H 0.07968 0.53816 0.22477 0.0
H3036 H 0.0291 0.48857 0.239 0.0
H3037 H 0.07001 0.53187 0.26084 0.0
C3038 C 0.06479 0.51199 0.27508 0.0
C3039 C 0.05685 0.49328 0.27885 0.0
C3040 C 0.04012 0.49951 0.23587 0.0
C3041 C 0.05421 0.50427 0.25573 0.0
C3042 C 0.04079 0.50395 0.22417 0.0
C3043 C 0.05524 0.51776 0.21993 0.0
C3044 C 0.05378 0.50919 0.24336 0.0
C3045 C 0.06845 0.52729 0.22771 0.0
C3046 C 0.06361 0.51745 0.26356 0.0
C3047 C 0.04721 0.48069 0.27076 0.0
N3048 N 0.06738 0.52285 0.23905 0.0
N3049 N 0.0462 0.48639 0.25956 0.0
H3050 H 0.26315 0.34292 0.02525 0.0
H3051 H 0.21409 0.27936 0.97352 0.0
H3052 H 0.24369 0.28042 0.02862 0.0
H3053 H 0.24028 0.33929 0.96996 0.0
H3054 H 0.22219 0.28016 0.99406 0.0
H3055 H 0.2525 0.34247 0.00523 0.0
C3056 C 0.25654 0.32911 0.02178 0.0
C3057 C 0.25429 0.31168 0.02862 0.0
C3058 C 0.22611 0.29314 0.98877 0.0
C3059 C 0.24217 0.311 0.00564 0.0
C3060 C 0.22138 0.29273 0.97709 0.0
C3061 C 0.22671 0.3092 0.97004 0.0
C3062 C 0.23609 0.3102 0.99341 0.0
C3063 C 0.23623 0.32612 0.97506 0.0
C3064 C 0.25054 0.32883 0.01033 0.0
C3065 C 0.2459 0.29412 0.02362 0.0
N3066 N 0.24064 0.32616 0.98642 0.0
N3067 N 0.2401 0.29423 0.01243 0.0
H3068 H 0.41735 0.4819 0.77962 0.0
H3069 H 0.46552 0.50021 0.71767 0.0
H3070 H 0.45775 0.53216 0.77226 0.0
H3071 H 0.41024 0.46619 0.72333 0.0
H3072 H 0.4667 0.50832 0.7382 0.0
H3073 H 0.41824 0.47236 0.75944 0.0
C3074 C 0.42632 0.49104 0.77377 0.0
C3075 C 0.43729 0.50806 0.77767 0.0
C3076 C 0.45436 0.49905 0.73493 0.0
C3077 C 0.43873 0.49683 0.75456 0.0
C3078 C 0.45375 0.49433 0.72327 0.0
C3079 C 0.43772 0.4826 0.71884 0.0
C3080 C 0.43899 0.49172 0.74221 0.0
C3081 C 0.42275 0.47546 0.72641 0.0
C3082 C 0.4269 0.48548 0.76226 0.0
C3083 C 0.44915 0.51886 0.7697 0.0
N3084 N 0.42377 0.48009 0.73773 0.0
N3085 N 0.44954 0.51307 0.75851 0.0
H3086 H 0.24618 0.72275 0.52792 0.0
H3087 H 0.26374 0.65921 0.4702 0.0
H3088 H 0.23089 0.65923 0.52383 0.0
H3089 H 0.27747 0.72329 0.47318 0.0
H3090 H 0.25201 0.65914 0.48999 0.0
H3091 H 0.25732 0.72369 0.50789 0.0
C3092 C 0.24498 0.70906 0.52278 0.0
C3093 C 0.2377 0.69085 0.52757 0.0
C3094 C 0.25761 0.67323 0.48635 0.0
C3095 C 0.25064 0.69175 0.50474 0.0
C3096 C 0.2645 0.67324 0.47507 0.0
C3097 C 0.27174 0.69126 0.47004 0.0
C3098 C 0.25793 0.69138 0.49271 0.0
C3099 C 0.27189 0.70909 0.47669 0.0
C3100 C 0.25147 0.70957 0.51138 0.0
C3101 C 0.23671 0.67351 0.52056 0.0
N3102 N 0.2651 0.7087 0.4877 0.0
N3103 N 0.24315 0.67439 0.50952 0.0
H3104 H 0.35742 0.94388 0.15085 0.0
H3105 H 0.33151 0.85509 0.10649 0.0
H3106 H 0.39943 0.92397 0.12468 0.0
H3107 H 0.29217 0.87349 0.13426 0.0
H3108 H 0.3577 0.87834 0.11369 0.0
H3109 H 0.33462 0.91624 0.14568 0.0
C3110 C 0.36204 0.93351 0.14412 0.0
C3111 C 0.38046 0.9363 0.13821 0.0
C3112 C 0.34342 0.8771 0.11827 0.0
C3113 C 0.35401 0.90473 0.13202 0.0
C3114 C 0.32844 0.86389 0.11415 0.0
C3115 C 0.30955 0.86241 0.11974 0.0
C3116 C 0.33943 0.88901 0.12802 0.0
C3117 C 0.30653 0.87395 0.12972 0.0
C3118 C 0.34889 0.91777 0.14111 0.0
C3119 C 0.38529 0.92259 0.12937 0.0
N3120 N 0.32122 0.88687 0.13347 0.0
N3121 N 0.37208 0.90746 0.1265 0.0
H3122 H 0.30938 0.10972 0.40239 0.0
H3123 H 0.39368 0.08132 0.35562 0.0
H3124 H 0.31724 0.14304 0.37082 0.0
H3125 H 0.3766 0.04264 0.38397 0.0
H3126 H 0.37003 0.10728 0.36265 0.0
H3127 H 0.33833 0.08833 0.39734 0.0
C3128 C 0.31723 0.11256 0.39439 0.0
C3129 C 0.31064 0.12797 0.38692 0.0
C3130 C 0.37166 0.09318 0.36738 0.0
C3131 C 0.344 0.1036 0.38111 0.0
C3132 C 0.3851 0.07832 0.36336 0.0
C3133 C 0.38703 0.05963 0.36914 0.0
C3134 C 0.36011 0.08935 0.37727 0.0
C3135 C 0.37583 0.05682 0.37927 0.0
C3136 C 0.33382 0.10039 0.39153 0.0
C3137 C 0.32177 0.13131 0.37682 0.0
N3138 N 0.36276 0.07143 0.38294 0.0
N3139 N 0.33781 0.11908 0.37415 0.0
H3140 H 0.10121 0.06432 0.61841 0.0
H3141 H 0.18635 0.14693 0.63288 0.0
H3142 H 0.13194 0.06712 0.65115 0.0
H3143 H 0.17899 0.12013 0.59927 0.0
H3144 H 0.15907 0.12494 0.63996 0.0
H3145 H 0.12255 0.09235 0.61165 0.0
C3146 C 0.1123 0.07082 0.62422 0.0
C3147 C 0.11492 0.06299 0.63534 0.0
C3148 C 0.16335 0.12417 0.63101 0.0
C3149 C 0.13887 0.0955 0.62772 0.0
C3150 C 0.17901 0.13658 0.62695 0.0
C3151 C 0.18534 0.13528 0.61545 0.0
C3152 C 0.15366 0.11063 0.62349 0.0
C3153 C 0.17467 0.12197 0.60815 0.0
C3154 C 0.12435 0.08691 0.62036 0.0
C3155 C 0.12915 0.07261 0.64256 0.0
N3156 N 0.15943 0.11012 0.6123 0.0
N3157 N 0.14066 0.08828 0.6386 0.0
H3158 H 0.14346 0.95007 0.85171 0.0
H3159 H 0.16589 0.85561 0.89307 0.0
H3160 H 0.10158 0.9303 0.87795 0.0
H3161 H 0.20702 0.87713 0.86687 0.0
H3162 H 0.14076 0.8808 0.88677 0.0
H3163 H 0.16565 0.92158 0.85635 0.0
C3164 C 0.13897 0.93976 0.8585 0.0
C3165 C 0.12076 0.94274 0.86456 0.0
C3166 C 0.15521 0.87983 0.88233 0.0
C3167 C 0.14607 0.9098 0.86985 0.0
C3168 C 0.16957 0.8655 0.88594 0.0
C3169 C 0.18864 0.86428 0.88052 0.0
C3170 C 0.16 0.8931 0.87329 0.0
C3171 C 0.19247 0.87729 0.87123 0.0
C3172 C 0.15159 0.92338 0.8611 0.0
C3173 C 0.11548 0.92856 0.87307 0.0
N3174 N 0.17836 0.89123 0.86798 0.0
N3175 N 0.12816 0.91276 0.87552 0.0
H3176 H 0.67961 0.14511 0.87004 0.0
H3177 H 0.62291 0.03941 0.88225 0.0
H3178 H 0.70021 0.10061 0.89464 0.0
H3179 H 0.61507 0.07304 0.85078 0.0
H3180 H 0.64661 0.06551 0.88897 0.0
H3181 H 0.65144 0.12225 0.86479 0.0
C3182 C 0.67809 0.1306 0.87438 0.0
C3183 C 0.6923 0.12459 0.88269 0.0
C3184 C 0.63957 0.06727 0.88063 0.0
C3185 C 0.66025 0.09862 0.87686 0.0
C3186 C 0.62593 0.05248 0.87684 0.0
C3187 C 0.61713 0.05405 0.86592 0.0
C3188 C 0.64434 0.08383 0.87351 0.0
C3189 C 0.62175 0.07117 0.8592 0.0
C3190 C 0.66211 0.11758 0.87137 0.0
C3191 C 0.68973 0.10566 0.88806 0.0
N3192 N 0.63511 0.0854 0.86309 0.0
N3193 N 0.67402 0.09336 0.88506 0.0
H3194 H 0.63465 0.96739 0.61269 0.0
H3195 H 0.68556 0.85961 0.62469 0.0
H3196 H 0.61095 0.92516 0.63766 0.0
H3197 H 0.69925 0.8965 0.59504 0.0
H3198 H 0.65734 0.88255 0.62928 0.0
H3199 H 0.65775 0.94097 0.60576 0.0
C3200 C 0.63423 0.95245 0.61664 0.0
C3201 C 0.62104 0.94843 0.6258 0.0
C3202 C 0.66643 0.8855 0.62172 0.0
C3203 C 0.64752 0.91819 0.61802 0.0
C3204 C 0.68251 0.87237 0.61907 0.0
C3205 C 0.69499 0.87629 0.60956 0.0
C3206 C 0.66292 0.90271 0.61483 0.0
C3207 C 0.69037 0.89317 0.60263 0.0
C3208 C 0.64736 0.93736 0.61267 0.0
C3209 C 0.6209 0.92881 0.63055 0.0
N3210 N 0.67485 0.90583 0.60547 0.0
N3211 N 0.63416 0.91445 0.6267 0.0
H3212 H 0.7814 0.88496 0.36671 0.0
H3213 H 0.89078 0.93448 0.37777 0.0
H3214 H 0.82363 0.86157 0.39178 0.0
H3215 H 0.84963 0.95322 0.35091 0.0
H3216 H 0.86767 0.90631 0.3824 0.0
H3217 H 0.80741 0.9087 0.36009 0.0
C3218 C 0.79624 0.88478 0.37077 0.0
C3219 C 0.80036 0.87147 0.37986 0.0
C3220 C 0.86379 0.91654 0.37545 0.0
C3221 C 0.83022 0.89867 0.3724 0.0
C3222 C 0.87698 0.93257 0.3728 0.0
C3223 C 0.87196 0.94639 0.36406 0.0
C3224 C 0.8455 0.91434 0.3693 0.0
C3225 C 0.85387 0.94324 0.35791 0.0
C3226 C 0.81112 0.89829 0.36698 0.0
C3227 C 0.81991 0.8716 0.38472 0.0
N3228 N 0.84128 0.92765 0.36069 0.0
N3229 N 0.83409 0.88519 0.38102 0.0
H3230 H 0.80118 0.10415 0.09954 0.0
H3231 H 0.88542 0.07581 0.1465 0.0
H3232 H 0.81191 0.14048 0.12978 0.0
H3233 H 0.86864 0.03724 0.11805 0.0
H3234 H 0.86093 0.10131 0.13978 0.0
H3235 H 0.82831 0.08118 0.10543 0.0
C3236 C 0.80922 0.10726 0.10746 0.0
C3237 C 0.80407 0.12412 0.11425 0.0
C3238 C 0.86275 0.08731 0.13499 0.0
C3239 C 0.83544 0.09792 0.12101 0.0
C3240 C 0.87666 0.07271 0.13883 0.0
C3241 C 0.87912 0.05431 0.13284 0.0
C3242 C 0.85121 0.08346 0.12508 0.0
C3243 C 0.86755 0.05128 0.12287 0.0
C3244 C 0.82481 0.09419 0.11079 0.0
C3245 C 0.8154 0.12768 0.12427 0.0
N3246 N 0.85408 0.06564 0.11934 0.0
N3247 N 0.83049 0.1146 0.12739 0.0
H3248 H 0.78327 0.3848 0.62818 0.0
H3249 H 0.89833 0.42396 0.62508 0.0
H3250 H 0.82847 0.35548 0.60701 0.0
H3251 H 0.84769 0.46097 0.63609 0.0
H3252 H 0.87445 0.39619 0.62072 0.0
H3253 H 0.80855 0.41004 0.6339 0.0
C3254 C 0.79863 0.38347 0.62489 0.0
C3255 C 0.80381 0.36803 0.61712 0.0
C3256 C 0.86863 0.41043 0.62406 0.0
C3257 C 0.83272 0.39708 0.62347 0.0
C3258 C 0.8822 0.42622 0.62656 0.0
C3259 C 0.87491 0.44481 0.63084 0.0
C3260 C 0.84772 0.41323 0.62605 0.0
C3261 C 0.8539 0.447 0.63262 0.0
C3262 C 0.81299 0.39801 0.62806 0.0
C3263 C 0.82386 0.36726 0.61296 0.0
N3264 N 0.84107 0.43138 0.63025 0.0
N3265 N 0.83763 0.38163 0.61618 0.0
H3266 H 0.90173 0.57553 0.8748 0.0
H3267 H 0.79756 0.63539 0.86361 0.0
H3268 H 0.85837 0.56064 0.84822 0.0
H3269 H 0.83148 0.64019 0.89519 0.0
H3270 H 0.82413 0.61344 0.85586 0.0
H3271 H 0.8799 0.60396 0.88061 0.0
C3272 C 0.88772 0.57823 0.87015 0.0
C3273 C 0.8819 0.56552 0.86102 0.0
C3274 C 0.82588 0.61946 0.86445 0.0
C3275 C 0.85711 0.59824 0.86751 0.0
C3276 C 0.8108 0.63217 0.86884 0.0
C3277 C 0.81221 0.6395 0.88011 0.0
C3278 C 0.84251 0.614 0.87136 0.0
C3279 C 0.82963 0.63458 0.88653 0.0
C3280 C 0.87535 0.59454 0.87343 0.0
C3281 C 0.86374 0.5701 0.85518 0.0
N3282 N 0.84405 0.62198 0.8821 0.0
N3283 N 0.852 0.58599 0.85856 0.0
H3284 H 0.68579 0.61504 0.09463 0.0
H3285 H 0.60852 0.58178 0.14415 0.0
H3286 H 0.68484 0.64293 0.12812 0.0
H3287 H 0.61984 0.54696 0.1134 0.0
H3288 H 0.63183 0.60805 0.13714 0.0
H3289 H 0.65688 0.59392 0.10013 0.0
C3290 C 0.67945 0.61676 0.10314 0.0
C3291 C 0.68799 0.63051 0.111 0.0
C3292 C 0.62901 0.59474 0.13189 0.0
C3293 C 0.65471 0.60646 0.11732 0.0
C3294 C 0.61577 0.57969 0.1359 0.0
C3295 C 0.61234 0.56196 0.12942 0.0
C3296 C 0.63882 0.5921 0.12131 0.0
C3297 C 0.62181 0.56036 0.11867 0.0
C3298 C 0.66289 0.60475 0.10626 0.0
C3299 C 0.67877 0.6325 0.1218 0.0
N3300 N 0.63471 0.57514 0.11501 0.0
N3301 N 0.66273 0.62044 0.12469 0.0
H3302 H 0.67901 0.34758 0.37096 0.0
H3303 H 0.60541 0.44059 0.38511 0.0
H3304 H 0.68647 0.38552 0.40096 0.0
H3305 H 0.62396 0.42541 0.35058 0.0
H3306 H 0.62766 0.41363 0.39231 0.0
H3307 H 0.65107 0.36958 0.36473 0.0
C3308 C 0.67481 0.36041 0.37628 0.0
C3309 C 0.68546 0.36478 0.38645 0.0
C3310 C 0.62656 0.41615 0.38315 0.0
C3311 C 0.65303 0.3895 0.37951 0.0
C3312 C 0.614 0.43163 0.37901 0.0
C3313 C 0.61293 0.43566 0.36718 0.0
C3314 C 0.63781 0.40431 0.37542 0.0
C3315 C 0.62399 0.42292 0.35974 0.0
C3316 C 0.65876 0.37283 0.37274 0.0
C3317 C 0.67873 0.3813 0.39314 0.0
N3318 N 0.63601 0.40788 0.36399 0.0
N3319 N 0.663 0.39308 0.38953 0.0
H3320 H 0.10795 0.57466 0.36253 0.0
H3321 H 0.2045 0.59839 0.40219 0.0
H3322 H 0.13761 0.53026 0.38408 0.0
H3323 H 0.18052 0.64095 0.37743 0.0
H3324 H 0.17691 0.57493 0.3976 0.0
H3325 H 0.13096 0.60089 0.37001 0.0
C3326 C 0.11909 0.57052 0.36898 0.0
C3327 C 0.12107 0.55025 0.37262 0.0
C3328 C 0.1776 0.58943 0.3932 0.0
C3329 C 0.14747 0.58002 0.3811 0.0
C3330 C 0.19342 0.60278 0.39576 0.0
C3331 C 0.19499 0.62152 0.39005 0.0
C3332 C 0.16319 0.59478 0.38483 0.0
C3333 C 0.17988 0.62665 0.38204 0.0
C3334 C 0.13229 0.58544 0.37318 0.0
C3335 C 0.13583 0.54565 0.38091 0.0
N3336 N 0.16469 0.61327 0.37959 0.0
N3337 N 0.14854 0.56039 0.38482 0.0
H3338 H 0.21788 0.38353 0.13501 0.0
H3339 H 0.1071 0.4289 0.12355 0.0
H3340 H 0.17544 0.35653 0.11123 0.0
H3341 H 0.14755 0.45026 0.15012 0.0
H3342 H 0.13064 0.40075 0.11973 0.0
H3343 H 0.19114 0.40656 0.14157 0.0
C3344 C 0.20283 0.38237 0.13125 0.0
C3345 C 0.19885 0.36829 0.12252 0.0
C3346 C 0.13427 0.41153 0.12645 0.0
C3347 C 0.16821 0.39469 0.12986 0.0
C3348 C 0.12082 0.42756 0.12865 0.0
C3349 C 0.12554 0.44213 0.13704 0.0
C3350 C 0.15253 0.41012 0.13269 0.0
C3351 C 0.14355 0.43968 0.14337 0.0
C3352 C 0.18755 0.39547 0.135 0.0
C3353 C 0.17906 0.36718 0.11802 0.0
N3354 N 0.15643 0.42411 0.14101 0.0
N3355 N 0.16451 0.38042 0.12164 0.0
H3356 H 0.3892 0.42566 0.85871 0.0
H3357 H 0.29842 0.39763 0.9016 0.0
H3358 H 0.3635 0.46754 0.88325 0.0
H3359 H 0.31452 0.36073 0.87235 0.0
H3360 H 0.32603 0.42096 0.89687 0.0
H3361 H 0.36597 0.39916 0.86565 0.0
C3362 C 0.37888 0.42915 0.86568 0.0
C3363 C 0.3781 0.44882 0.87037 0.0
C3364 C 0.32358 0.40772 0.8915 0.0
C3365 C 0.3515 0.41875 0.87826 0.0
C3366 C 0.30773 0.39445 0.89416 0.0
C3367 C 0.30393 0.37736 0.88725 0.0
C3368 C 0.3358 0.40391 0.88188 0.0
C3369 C 0.31691 0.3737 0.87791 0.0
C3370 C 0.36555 0.4141 0.86957 0.0
C3371 C 0.36435 0.45263 0.8793 0.0
N3372 N 0.3322 0.38696 0.87545 0.0
N3373 N 0.35153 0.43776 0.88293 0.0
H3374 H 0.35966 0.52895 0.61379 0.0
H3375 H 0.31319 0.63903 0.62632 0.0
H3376 H 0.38561 0.57041 0.63846 0.0
H3377 H 0.2929 0.59951 0.59904 0.0
H3378 H 0.34113 0.61527 0.63028 0.0
H3379 H 0.33637 0.55572 0.60755 0.0
C3380 C 0.36051 0.54379 0.61782 0.0
C3381 C 0.3744 0.54748 0.6267 0.0
C3382 C 0.33061 0.61189 0.62339 0.0
C3383 C 0.34772 0.57816 0.61971 0.0
C3384 C 0.3147 0.62545 0.62112 0.0
C3385 C 0.30051 0.62106 0.61247 0.0
C3386 C 0.33228 0.59386 0.61696 0.0
C3387 C 0.30317 0.60324 0.606 0.0
C3388 C 0.34727 0.55908 0.61426 0.0
C3389 C 0.37512 0.56702 0.63156 0.0
N3390 N 0.31863 0.59026 0.60842 0.0
N3391 N 0.36176 0.5816 0.6281 0.0
H3392 H 0.37006 0.11376 0.11668 0.0
H3393 H 0.299 0.20951 0.13081 0.0
H3394 H 0.35114 0.13028 0.15087 0.0
H3395 H 0.32365 0.19705 0.09725 0.0
H3396 H 0.31459 0.17817 0.1379 0.0
H3397 H 0.35 0.14198 0.10906 0.0
C3398 C 0.36172 0.12333 0.12259 0.0
C3399 C 0.36248 0.11975 0.13446 0.0
C3400 C 0.31647 0.18221 0.12896 0.0
C3401 C 0.33923 0.15197 0.12575 0.0
C3402 C 0.30762 0.20013 0.12492 0.0
C3403 C 0.31019 0.20604 0.11344 0.0
C3404 C 0.32803 0.17007 0.1215 0.0
C3405 C 0.32117 0.19306 0.10614 0.0
C3406 C 0.35015 0.13938 0.11823 0.0
C3407 C 0.35093 0.13238 0.14167 0.0
N3408 N 0.32982 0.17578 0.11031 0.0
N3409 N 0.33989 0.14799 0.13721 0.0
H3410 H 0.12469 0.09168 0.39821 0.0
H3411 H 0.04329 0.08041 0.34746 0.0
H3412 H 0.12249 0.13113 0.36866 0.0
H3413 H 0.03717 0.05021 0.38013 0.0
H3414 H 0.07524 0.09552 0.35402 0.0
H3415 H 0.09538 0.07286 0.39065 0.0
C3416 C 0.11814 0.09626 0.39009 0.0
C3417 C 0.12591 0.11307 0.38409 0.0
C3418 C 0.06697 0.0855 0.35974 0.0
C3419 C 0.09245 0.09169 0.37541 0.0
C3420 C 0.04882 0.07674 0.35597 0.0
C3421 C 0.03754 0.06408 0.36328 0.0
C3422 C 0.07398 0.0815 0.37089 0.0
C3423 C 0.04529 0.06008 0.37427 0.0
C3424 C 0.10137 0.0856 0.38581 0.0
C3425 C 0.11677 0.11845 0.37365 0.0
N3426 N 0.06302 0.0688 0.37775 0.0
N3427 N 0.10053 0.10781 0.36964 0.0
H3428 H 0.1398 0.88684 0.61888 0.0
H3429 H 0.19891 0.78326 0.63299 0.0
H3430 H 0.15407 0.86679 0.65319 0.0
H3431 H 0.17973 0.80077 0.599 0.0
H3432 H 0.18614 0.81568 0.64033 0.0
H3433 H 0.15824 0.85753 0.61125 0.0
C3434 C 0.14707 0.87644 0.62482 0.0
C3435 C 0.14528 0.87922 0.6367 0.0
C3436 C 0.18485 0.8125 0.63125 0.0
C3437 C 0.16617 0.84543 0.62802 0.0
C3438 C 0.19206 0.79395 0.62706 0.0
C3439 C 0.19022 0.78918 0.61537 0.0
C3440 C 0.17568 0.82642 0.62371 0.0
C3441 C 0.1816 0.80382 0.60805 0.0
C3442 C 0.15747 0.85961 0.62045 0.0
C3443 C 0.15478 0.86507 0.64397 0.0
N3444 N 0.17452 0.8217 0.61236 0.0
N3445 N 0.16472 0.84874 0.63952 0.0
H3446 H 0.44361 0.93372 0.84985 0.0
H3447 H 0.37958 0.89969 0.90495 0.0
H3448 H 0.46555 0.93927 0.88458 0.0
H3449 H 0.36026 0.88902 0.8701 0.0
H3450 H 0.40929 0.91803 0.89772 0.0
H3451 H 0.41104 0.9214 0.8572 0.0
C3452 C 0.44149 0.93261 0.85903 0.0
C3453 C 0.45739 0.9374 0.86661 0.0
C3454 C 0.39847 0.91181 0.89166 0.0
C3455 C 0.42021 0.92305 0.87509 0.0
C3456 C 0.38154 0.90127 0.89578 0.0
C3457 C 0.36748 0.89263 0.88813 0.0
C3458 C 0.40142 0.91371 0.87978 0.0
C3459 C 0.37059 0.89553 0.87633 0.0
C3460 C 0.42293 0.92545 0.86322 0.0
C3461 C 0.45383 0.93542 0.87842 0.0
N3462 N 0.3873 0.90568 0.87252 0.0
N3463 N 0.43567 0.92831 0.88229 0.0
H3464 H 0.32161 0.77511 0.36312 0.0
H3465 H 0.3552 0.88825 0.37643 0.0
H3466 H 0.3007 0.80755 0.39312 0.0
H3467 H 0.35558 0.86329 0.34216 0.0
H3468 H 0.33595 0.85869 0.38292 0.0
H3469 H 0.33487 0.80693 0.35544 0.0
C3470 C 0.31948 0.78893 0.36804 0.0
C3471 C 0.31004 0.78851 0.37885 0.0
C3472 C 0.34009 0.8598 0.37396 0.0
C3473 C 0.32578 0.82501 0.37016 0.0
C3474 C 0.35101 0.87676 0.37021 0.0
C3475 C 0.35721 0.87831 0.35871 0.0
C3476 C 0.33555 0.84409 0.36622 0.0
C3477 C 0.35158 0.86261 0.35115 0.0
C3478 C 0.3272 0.8071 0.36366 0.0
C3479 C 0.30823 0.80696 0.38488 0.0
N3480 N 0.34127 0.84608 0.35506 0.0
N3481 N 0.31621 0.82441 0.38051 0.0
H3482 H 0.36063 0.10992 0.62964 0.0
H3483 H 0.46219 0.0479 0.61494 0.0
H3484 H 0.37909 0.09412 0.59527 0.0
H3485 H 0.44614 0.06777 0.64902 0.0
H3486 H 0.42987 0.06133 0.60785 0.0
H3487 H 0.38971 0.09093 0.63714 0.0
C3488 C 0.37063 0.10222 0.62367 0.0
C3489 C 0.36747 0.10372 0.6118 0.0
C3490 C 0.43334 0.06263 0.6169 0.0
C3491 C 0.40099 0.08217 0.62033 0.0
C3492 C 0.45183 0.05503 0.62094 0.0
C3493 C 0.457 0.05689 0.63258 0.0
C3494 C 0.41987 0.07222 0.62452 0.0
C3495 C 0.44278 0.06589 0.64 0.0
C3496 C 0.38733 0.09149 0.62796 0.0
C3497 C 0.38112 0.09364 0.60448 0.0
N3498 N 0.42494 0.07337 0.63583 0.0
N3499 N 0.39733 0.08339 0.60886 0.0
H3500 H 0.15108 0.10876 0.87034 0.0
H3501 H 0.16512 0.22906 0.86434 0.0
H3502 H 0.12062 0.14539 0.84484 0.0
H3503 H 0.20045 0.19228 0.88773 0.0
H3504 H 0.15006 0.19822 0.85649 0.0
H3505 H 0.17062 0.13869 0.87624 0.0
C3506 C 0.14867 0.12303 0.86589 0.0
C3507 C 0.13406 0.12461 0.85714 0.0
C3508 C 0.16122 0.19685 0.86328 0.0
C3509 C 0.1562 0.15897 0.86395 0.0
C3510 C 0.16997 0.21449 0.86773 0.0
C3511 C 0.18411 0.21334 0.87674 0.0
C3512 C 0.16647 0.17782 0.86791 0.0
C3513 C 0.18939 0.19397 0.88091 0.0
C3514 C 0.15977 0.14014 0.8693 0.0
C3515 C 0.13144 0.14355 0.85177 0.0
N3516 N 0.18048 0.17699 0.87651 0.0
N3517 N 0.1423 0.15999 0.8553 0.0
H3518 H 0.14272 0.90429 0.12357 0.0
H3519 H 0.02531 0.92865 0.11247 0.0
H3520 H 0.11019 0.88742 0.09287 0.0
H3521 H 0.05749 0.94818 0.14277 0.0
H3522 H 0.05738 0.9168 0.1043 0.0
H3523 H 0.11302 0.92385 0.12986 0.0
C3524 C 0.12946 0.90497 0.11807 0.0
C3525 C 0.12884 0.894 0.10774 0.0
C3526 C 0.05753 0.92384 0.11269 0.0
C3527 C 0.09474 0.91612 0.11494 0.0
C3528 C 0.03921 0.93055 0.11737 0.0
C3529 C 0.03875 0.93915 0.12836 0.0
C3530 C 0.07556 0.92554 0.1191 0.0
C3531 C 0.05721 0.94161 0.13426 0.0
C3532 C 0.11247 0.91604 0.12169 0.0
C3533 C 0.11118 0.89529 0.101 0.0
N3534 N 0.07487 0.93458 0.12961 0.0
N3535 N 0.09481 0.90598 0.10476 0.0
H3536 H 0.67652 0.79717 0.8974 0.0
H3537 H 0.62516 0.85222 0.84339 0.0
H3538 H 0.67242 0.77 0.8638 0.0
H3539 H 0.62974 0.87952 0.87695 0.0
H3540 H 0.64398 0.82266 0.85045 0.0
H3541 H 0.661 0.82818 0.88982 0.0
C3542 C 0.67255 0.79779 0.8884 0.0
C3543 C 0.67569 0.7809 0.88124 0.0
C3544 C 0.64092 0.83514 0.85627 0.0
C3545 C 0.65767 0.8163 0.87252 0.0
C3546 C 0.63026 0.85208 0.85222 0.0
C3547 C 0.62577 0.86835 0.8596 0.0
C3548 C 0.64714 0.83444 0.86778 0.0
C3549 C 0.63256 0.86719 0.871 0.0
C3550 C 0.66356 0.81546 0.88409 0.0
C3551 C 0.66998 0.78251 0.86967 0.0
N3552 N 0.64285 0.85052 0.87474 0.0
N3553 N 0.66119 0.79985 0.86569 0.0
H3554 H 0.98689 0.91332 0.61428 0.0
H3555 H 0.86613 0.90176 0.62056 0.0
H3556 H 0.95162 0.94406 0.64025 0.0
H3557 H 0.90218 0.86951 0.59552 0.0
H3558 H 0.89665 0.92021 0.62663 0.0
H3559 H 0.95546 0.89976 0.60612 0.0
C3560 C 0.97251 0.91723 0.61826 0.0
C3561 C 0.97188 0.92965 0.62804 0.0
C3562 C 0.89785 0.90919 0.61976 0.0
C3563 C 0.9358 0.91425 0.61872 0.0
C3564 C 0.88041 0.89873 0.61625 0.0
C3565 C 0.88165 0.88393 0.6076 0.0
C3566 C 0.91665 0.90482 0.61457 0.0
C3567 C 0.9006 0.88051 0.60238 0.0
C3568 C 0.95455 0.90956 0.61357 0.0
C3569 C 0.9528 0.9346 0.63269 0.0
N3570 N 0.91735 0.89079 0.60598 0.0
N3571 N 0.93552 0.92674 0.62804 0.0
H3572 H 0.81268 0.19762 0.39447 0.0
H3573 H 0.86341 0.14271 0.34037 0.0
H3574 H 0.81759 0.22555 0.36109 0.0
H3575 H 0.85829 0.1153 0.37388 0.0
H3576 H 0.84432 0.17219 0.34734 0.0
H3577 H 0.82657 0.16618 0.38656 0.0
C3578 C 0.81642 0.19707 0.38544 0.0
C3579 C 0.81408 0.21432 0.37846 0.0
C3580 C 0.84725 0.15965 0.35314 0.0
C3581 C 0.83036 0.17841 0.36937 0.0
C3582 C 0.85824 0.14287 0.34918 0.0
C3583 C 0.86257 0.12655 0.35657 0.0
C3584 C 0.84062 0.16018 0.36458 0.0
C3585 C 0.85517 0.12743 0.36785 0.0
C3586 C 0.82449 0.17913 0.38094 0.0
C3587 C 0.81948 0.21275 0.36684 0.0
N3588 N 0.84469 0.14401 0.37152 0.0
N3589 N 0.82747 0.19516 0.36268 0.0
H3590 H 0.6296 0.12443 0.12769 0.0
H3591 H 0.52762 0.06403 0.11161 0.0
H3592 H 0.61072 0.11226 0.09292 0.0
H3593 H 0.54752 0.07512 0.14631 0.0
H3594 H 0.55862 0.0804 0.10456 0.0
H3595 H 0.60018 0.10538 0.13464 0.0
C3596 C 0.61922 0.11781 0.12151 0.0
C3597 C 0.62257 0.12009 0.1097 0.0
C3598 C 0.55626 0.07915 0.11372 0.0
C3599 C 0.5889 0.09803 0.11761 0.0
C3600 C 0.53853 0.06988 0.11775 0.0
C3601 C 0.53492 0.06827 0.12957 0.0
C3602 C 0.57047 0.08701 0.12156 0.0
C3603 C 0.54974 0.07584 0.13713 0.0
C3604 C 0.60248 0.10681 0.12549 0.0
C3605 C 0.60882 0.1108 0.1021 0.0
N3606 N 0.56679 0.08498 0.133 0.0
N3607 N 0.59254 0.10027 0.10619 0.0
H3608 H 0.69222 0.19608 0.60657 0.0
H3609 H 0.61756 0.14828 0.65368 0.0
H3610 H 0.65927 0.23165 0.63153 0.0
H3611 H 0.64382 0.11364 0.62592 0.0
H3612 H 0.63607 0.17831 0.64707 0.0
H3613 H 0.67817 0.16501 0.61505 0.0
C3614 C 0.6822 0.19733 0.61391 0.0
C3615 C 0.67673 0.21646 0.61829 0.0
C3616 C 0.63787 0.16411 0.64246 0.0
C3617 C 0.66052 0.18105 0.62797 0.0
C3618 C 0.62723 0.14698 0.64619 0.0
C3619 C 0.62897 0.12844 0.64028 0.0
C3620 C 0.65036 0.16275 0.63272 0.0
C3621 C 0.6421 0.12756 0.63079 0.0
C3622 C 0.6741 0.17961 0.6187 0.0
C3623 C 0.66358 0.21722 0.62776 0.0
N3624 N 0.65219 0.14451 0.62726 0.0
N3625 N 0.65587 0.19978 0.63225 0.0
H3626 H 0.53107 0.896 0.35234 0.0
H3627 H 0.61839 0.89528 0.40021 0.0
H3628 H 0.53709 0.94292 0.37801 0.0
H3629 H 0.61455 0.85189 0.37249 0.0
H3630 H 0.58883 0.91314 0.39232 0.0
H3631 H 0.5617 0.87968 0.35976 0.0
C3632 C 0.53884 0.90285 0.35957 0.0
C3633 C 0.53145 0.92078 0.36461 0.0
C3634 C 0.59449 0.89972 0.38797 0.0
C3635 C 0.56667 0.90221 0.37315 0.0
C3636 C 0.61141 0.88956 0.39244 0.0
C3637 C 0.61891 0.87196 0.38706 0.0
C3638 C 0.58499 0.89224 0.37803 0.0
C3639 C 0.6091 0.86514 0.37708 0.0
C3640 C 0.5564 0.89358 0.36377 0.0
C3641 C 0.54234 0.92918 0.37383 0.0
N3642 N 0.59266 0.87526 0.37291 0.0
N3643 N 0.55936 0.91975 0.37785 0.0
H3644 H 0.80949 0.7797 0.1344 0.0
H3645 H 0.87566 0.87766 0.11917 0.0
H3646 H 0.82307 0.79826 0.09977 0.0
H3647 H 0.84996 0.86746 0.15276 0.0
H3648 H 0.8566 0.84856 0.11198 0.0
H3649 H 0.82455 0.81145 0.14144 0.0
C3650 C 0.81558 0.7905 0.12828 0.0
C3651 C 0.8151 0.78632 0.11649 0.0
C3652 C 0.855 0.85277 0.1209 0.0
C3653 C 0.83239 0.8226 0.12446 0.0
C3654 C 0.86581 0.86951 0.12502 0.0
C3655 C 0.8645 0.87512 0.13662 0.0
C3656 C 0.84291 0.8413 0.12843 0.0
C3657 C 0.85178 0.86356 0.14381 0.0
C3658 C 0.82408 0.80865 0.13229 0.0
C3659 C 0.82299 0.80094 0.10892 0.0
N3660 N 0.84159 0.84713 0.13962 0.0
N3661 N 0.83147 0.81834 0.11304 0.0
H3662 H 0.94612 0.06947 0.85055 0.0
H3663 H 0.88045 0.09955 0.90582 0.0
H3664 H 0.96633 0.05893 0.88525 0.0
H3665 H 0.86528 0.11747 0.87124 0.0
H3666 H 0.90998 0.08105 0.89841 0.0
H3667 H 0.91417 0.08314 0.85797 0.0
C3668 C 0.94373 0.06979 0.85973 0.0
C3669 C 0.95896 0.06314 0.86729 0.0
C3670 C 0.9001 0.08893 0.89245 0.0
C3671 C 0.9225 0.07904 0.87586 0.0
C3672 C 0.88329 0.09958 0.89668 0.0
C3673 C 0.87038 0.1102 0.88916 0.0
C3674 C 0.90404 0.08889 0.88062 0.0
C3675 C 0.87462 0.10934 0.87737 0.0
C3676 C 0.92554 0.07774 0.86397 0.0
C3677 C 0.95512 0.06418 0.87912 0.0
N3678 N 0.89111 0.09898 0.87348 0.0
N3679 N 0.9373 0.07206 0.88304 0.0
H3680 H 0.79524 0.69431 0.61164 0.0
H3681 H 0.87291 0.64526 0.65646 0.0
H3682 H 0.83741 0.72974 0.63195 0.0
H3683 H 0.85008 0.61242 0.62705 0.0
H3684 H 0.85466 0.67549 0.64994 0.0
H3685 H 0.81018 0.66321 0.61955 0.0
C3686 C 0.80759 0.69564 0.61775 0.0
C3687 C 0.81507 0.71482 0.62106 0.0
C3688 C 0.8536 0.66161 0.64496 0.0
C3689 C 0.83187 0.67921 0.63032 0.0
C3690 C 0.8641 0.64434 0.64864 0.0
C3691 C 0.8633 0.62622 0.64224 0.0
C3692 C 0.84197 0.66076 0.63488 0.0
C3693 C 0.85107 0.62591 0.63234 0.0
C3694 C 0.81602 0.67785 0.62229 0.0
C3695 C 0.83082 0.71543 0.62923 0.0
N3696 N 0.84094 0.64294 0.62895 0.0
N3697 N 0.83868 0.69792 0.63356 0.0
H3698 H 0.62614 0.63058 0.86615 0.0
H3699 H 0.54536 0.54134 0.87562 0.0
H3700 H 0.63005 0.58736 0.89391 0.0
H3701 H 0.54685 0.57936 0.84548 0.0
H3702 H 0.57709 0.55706 0.88215 0.0
H3703 H 0.59769 0.61128 0.85815 0.0
C3704 C 0.62099 0.61701 0.87056 0.0
C3705 C 0.63034 0.61065 0.88076 0.0
C3706 C 0.5706 0.56182 0.87405 0.0
C3707 C 0.59782 0.58842 0.87164 0.0
C3708 C 0.55246 0.5529 0.87034 0.0
C3709 C 0.54341 0.55913 0.86002 0.0
C3710 C 0.57965 0.57724 0.86745 0.0
C3711 C 0.55337 0.57399 0.85345 0.0
C3712 C 0.60483 0.60592 0.86595 0.0
C3713 C 0.62331 0.59275 0.88601 0.0
N3714 N 0.57084 0.58268 0.85732 0.0
N3715 N 0.60734 0.58235 0.88144 0.0
H3716 H 0.62553 0.35638 0.15393 0.0
H3717 H 0.70297 0.30779 0.10854 0.0
H3718 H 0.65316 0.39099 0.12659 0.0
H3719 H 0.6658 0.27271 0.13184 0.0
H3720 H 0.6883 0.33904 0.11645 0.0
H3721 H 0.644 0.32625 0.1475 0.0
C3722 C 0.63552 0.35766 0.14658 0.0
C3723 C 0.63759 0.3762 0.14071 0.0
C3724 C 0.68348 0.32448 0.11986 0.0
C3725 C 0.65894 0.34172 0.13333 0.0
C3726 C 0.69176 0.30661 0.11531 0.0
C3727 C 0.68562 0.2875 0.1195 0.0
C3728 C 0.669 0.32326 0.12869 0.0
C3729 C 0.67129 0.28702 0.12843 0.0
C3730 C 0.64611 0.34045 0.14293 0.0
C3731 C 0.65114 0.37704 0.13141 0.0
N3732 N 0.66345 0.30459 0.13269 0.0
N3733 N 0.6612 0.36 0.12795 0.0
H3734 H 0.87044 0.37167 0.36753 0.0
H3735 H 0.96113 0.44961 0.38089 0.0
H3736 H 0.87983 0.39978 0.40055 0.0
H3737 H 0.95319 0.41916 0.34841 0.0
H3738 H 0.92984 0.43363 0.38781 0.0
H3739 H 0.89926 0.39091 0.35998 0.0
C3740 C 0.87859 0.38186 0.37321 0.0
C3741 C 0.8728 0.38396 0.38473 0.0
C3742 C 0.93487 0.43054 0.37914 0.0
C3743 C 0.90574 0.40625 0.37609 0.0
C3744 C 0.95277 0.43961 0.3752 0.0
C3745 C 0.95987 0.43562 0.36408 0.0
C3746 C 0.92399 0.41732 0.37192 0.0
C3747 C 0.94822 0.42282 0.35701 0.0
C3748 C 0.89498 0.39294 0.36887 0.0
C3749 C 0.88366 0.39776 0.39161 0.0
N3750 N 0.93094 0.41403 0.36108 0.0
N3751 N 0.89967 0.40828 0.3872 0.0
H3752 H 0.84015 0.38845 0.86643 0.0
H3753 H 0.84946 0.26786 0.87415 0.0
H3754 H 0.89007 0.35248 0.8534 0.0
H3755 H 0.79471 0.30123 0.88237 0.0
H3756 H 0.86465 0.29907 0.86691 0.0
H3757 H 0.82322 0.35708 0.87259 0.0
C3758 C 0.84749 0.37398 0.86478 0.0
C3759 C 0.86666 0.37315 0.85946 0.0
C3760 C 0.84928 0.2996 0.87024 0.0
C3761 C 0.84749 0.33723 0.86663 0.0
C3762 C 0.84051 0.2817 0.87433 0.0
C3763 C 0.82067 0.28181 0.87882 0.0
C3764 C 0.83826 0.3179 0.87069 0.0
C3765 C 0.8101 0.30042 0.87909 0.0
C3766 C 0.83786 0.35608 0.86835 0.0
C3767 C 0.87552 0.35394 0.85767 0.0
N3768 N 0.81903 0.31773 0.87509 0.0
N3769 N 0.86591 0.33681 0.86128 0.0
H3770 H 0.95379 0.54006 0.11884 0.0
H3771 H 0.8785 0.63405 0.12842 0.0
H3772 H 0.95453 0.57814 0.14898 0.0
H3773 H 0.87044 0.59007 0.10132 0.0
H3774 H 0.90656 0.61368 0.13599 0.0
H3775 H 0.9232 0.55788 0.11223 0.0
C3776 C 0.94742 0.55207 0.1241 0.0
C3777 C 0.95672 0.55763 0.13447 0.0
C3778 C 0.89861 0.60841 0.12841 0.0
C3779 C 0.92185 0.57815 0.12694 0.0
C3780 C 0.88269 0.62011 0.12404 0.0
C3781 C 0.87222 0.6138 0.11418 0.0
C3782 C 0.90427 0.59032 0.12283 0.0
C3783 C 0.87805 0.59543 0.10898 0.0
C3784 C 0.92994 0.56219 0.12034 0.0
C3785 C 0.94774 0.57319 0.141 0.0
N3786 N 0.8938 0.5844 0.11332 0.0
N3787 N 0.93093 0.583 0.13708 0.0
H3788 H 0.64312 0.6341 0.34424 0.0
H3789 H 0.69827 0.68725 0.39748 0.0
H3790 H 0.64305 0.6081 0.37825 0.0
H3791 H 0.67806 0.71968 0.36731 0.0
H3792 H 0.68352 0.656 0.3896 0.0
H3793 H 0.66178 0.66343 0.35162 0.0
C3794 C 0.647 0.63451 0.35326 0.0
C3795 C 0.64122 0.61865 0.36065 0.0
C3796 C 0.68247 0.66998 0.38471 0.0
C3797 C 0.66295 0.65211 0.3691 0.0
C3798 C 0.69079 0.68787 0.38922 0.0
C3799 C 0.68945 0.70626 0.38309 0.0
C3800 C 0.67291 0.67042 0.37395 0.0
C3801 C 0.67988 0.70591 0.3723 0.0
C3802 C 0.65775 0.65124 0.35745 0.0
C3803 C 0.64726 0.61984 0.3722 0.0
N3804 N 0.672 0.68832 0.3681 0.0
N3805 N 0.65772 0.63634 0.37608 0.0
H3806 H 0.61638 0.40081 0.59417 0.0
H3807 H 0.54903 0.42732 0.64919 0.0
H3808 H 0.6328 0.38386 0.6287 0.0
H3809 H 0.53439 0.44765 0.61498 0.0
H3810 H 0.58118 0.41371 0.64204 0.0
H3811 H 0.58743 0.41997 0.60174 0.0
C3812 C 0.61393 0.40117 0.60334 0.0
C3813 C 0.62696 0.39062 0.6108 0.0
C3814 C 0.57102 0.42129 0.63611 0.0
C3815 C 0.5939 0.41256 0.61954 0.0
C3816 C 0.55269 0.42921 0.64021 0.0
C3817 C 0.53888 0.43852 0.63266 0.0
C3818 C 0.57556 0.42258 0.62437 0.0
C3819 C 0.54439 0.44025 0.62107 0.0
C3820 C 0.59746 0.4122 0.60767 0.0
C3821 C 0.62325 0.3919 0.62263 0.0
N3822 N 0.56221 0.43222 0.61726 0.0
N3823 N 0.60698 0.40252 0.62662 0.0
H3824 H 0.11544 0.37318 0.37787 0.0
H3825 H 0.18573 0.27734 0.36305 0.0
H3826 H 0.14147 0.36293 0.34441 0.0
H3827 H 0.16834 0.29386 0.39747 0.0
H3828 H 0.1691 0.30821 0.35593 0.0
H3829 H 0.13397 0.34358 0.38509 0.0
C3830 C 0.12499 0.36463 0.37203 0.0
C3831 C 0.12682 0.37046 0.3605 0.0
C3832 C 0.16902 0.30514 0.36505 0.0
C3833 C 0.14823 0.33664 0.36873 0.0
C3834 C 0.17843 0.2875 0.36911 0.0
C3835 C 0.17837 0.28302 0.38087 0.0
C3836 C 0.15928 0.31831 0.37279 0.0
C3837 C 0.16891 0.29682 0.38835 0.0
C3838 C 0.13569 0.34783 0.37618 0.0
C3839 C 0.13971 0.35904 0.35337 0.0
N3840 N 0.15962 0.31376 0.38418 0.0
N3841 N 0.14983 0.34261 0.35759 0.0
H3842 H 0.38758 0.34901 0.12166 0.0
H3843 H 0.45892 0.44785 0.11906 0.0
H3844 H 0.37695 0.399 0.09838 0.0
H3845 H 0.46942 0.39644 0.14134 0.0
H3846 H 0.42816 0.43109 0.1118 0.0
H3847 H 0.4172 0.36681 0.12921 0.0
C3848 C 0.39158 0.36368 0.11806 0.0
C3849 C 0.37984 0.37243 0.10929 0.0
C3850 C 0.4372 0.42351 0.11829 0.0
C3851 C 0.4137 0.39313 0.11805 0.0
C3852 C 0.45468 0.43311 0.12248 0.0
C3853 C 0.46683 0.42347 0.13077 0.0
C3854 C 0.43181 0.40416 0.12245 0.0
C3855 C 0.46072 0.40429 0.13481 0.0
C3856 C 0.40844 0.37392 0.12244 0.0
C3857 C 0.3855 0.39173 0.10518 0.0
N3858 N 0.44369 0.39528 0.13061 0.0
N3859 N 0.40207 0.40142 0.10958 0.0
H3860 H 0.35425 0.72062 0.89333 0.0
H3861 H 0.34868 0.62645 0.84982 0.0
H3862 H 0.30334 0.7103 0.87065 0.0
H3863 H 0.40033 0.63983 0.87143 0.0
H3864 H 0.33108 0.65621 0.85772 0.0
H3865 H 0.37066 0.69021 0.88576 0.0
C3866 C 0.34655 0.71199 0.88671 0.0
C3867 C 0.32746 0.71813 0.88255 0.0
C3868 C 0.34627 0.65262 0.86072 0.0
C3869 C 0.34613 0.68306 0.87389 0.0
C3870 C 0.35629 0.63561 0.85624 0.0
C3871 C 0.37606 0.6307 0.85992 0.0
C3872 C 0.35606 0.66475 0.86897 0.0
C3873 C 0.38526 0.64321 0.86819 0.0
C3874 C 0.3559 0.69455 0.88242 0.0
C3875 C 0.31801 0.70606 0.87415 0.0
N3876 N 0.37519 0.6596 0.87243 0.0
N3877 N 0.32748 0.68913 0.87006 0.0
H3878 H 0.05131 0.56484 0.64378 0.0
H3879 H 0.1063 0.61293 0.58891 0.0
H3880 H 0.02369 0.56729 0.61023 0.0
H3881 H 0.13246 0.61174 0.62286 0.0
H3882 H 0.07708 0.59368 0.5961 0.0
H3883 H 0.08252 0.57896 0.63575 0.0
C3884 C 0.05188 0.56809 0.63469 0.0
C3885 C 0.03478 0.56498 0.62769 0.0
C3886 C 0.08929 0.59752 0.60195 0.0
C3887 C 0.07044 0.58154 0.61845 0.0
C3888 C 0.10593 0.6086 0.59787 0.0
C3889 C 0.12184 0.61407 0.6053 0.0
C3890 C 0.08851 0.59192 0.61357 0.0
C3891 C 0.12069 0.60771 0.61678 0.0
C3892 C 0.06969 0.57631 0.63012 0.0
C3893 C 0.03637 0.56977 0.61599 0.0
N3894 N 0.10428 0.5971 0.62056 0.0
N3895 N 0.05384 0.57792 0.61175 0.0
H3896 H 0.14802 0.62482 0.14636 0.0
H3897 H 0.14315 0.72129 0.10445 0.0
H3898 H 0.09791 0.63763 0.12351 0.0
H3899 H 0.19385 0.70931 0.12701 0.0
H3900 H 0.12675 0.69024 0.1112 0.0
H3901 H 0.16557 0.65513 0.13916 0.0
C3902 C 0.14076 0.63394 0.13979 0.0
C3903 C 0.12142 0.62872 0.13557 0.0
C3904 C 0.14147 0.69435 0.11468 0.0
C3905 C 0.14133 0.66347 0.12736 0.0
C3906 C 0.1508 0.71216 0.11087 0.0
C3907 C 0.16984 0.718 0.11523 0.0
C3908 C 0.1512 0.68222 0.12295 0.0
C3909 C 0.17923 0.70532 0.12337 0.0
C3910 C 0.15074 0.65129 0.13573 0.0
C3911 C 0.11263 0.64123 0.12716 0.0
N3912 N 0.16977 0.68806 0.127 0.0
N3913 N 0.12265 0.658 0.12335 0.0
H3914 H 0.1098 0.38784 0.90431 0.0
H3915 H 0.04485 0.42509 0.85011 0.0
H3916 H 0.12611 0.37504 0.86921 0.0
H3917 H 0.02651 0.43527 0.88517 0.0
H3918 H 0.07603 0.40897 0.85699 0.0
H3919 H 0.08048 0.40736 0.8975 0.0
C3920 C 0.1073 0.38926 0.89517 0.0
C3921 C 0.12038 0.37969 0.88733 0.0
C3922 C 0.06524 0.41481 0.86318 0.0
C3923 C 0.08676 0.40189 0.87946 0.0
C3924 C 0.04749 0.42416 0.85926 0.0
C3925 C 0.033 0.43152 0.86707 0.0
C3926 C 0.06859 0.41276 0.87502 0.0
C3927 C 0.03712 0.42957 0.87884 0.0
C3928 C 0.0905 0.40032 0.89129 0.0
C3929 C 0.11626 0.38187 0.87558 0.0
N3930 N 0.0545 0.42034 0.88245 0.0
N3931 N 0.09981 0.3927 0.87201 0.0
H3932 H 0.33436 0.26292 0.63297 0.0
H3933 H 0.35316 0.38216 0.6246 0.0
H3934 H 0.30715 0.29809 0.60574 0.0
H3935 H 0.37546 0.34789 0.65359 0.0
H3936 H 0.33463 0.35206 0.61812 0.0
H3937 H 0.34827 0.29424 0.64112 0.0
C3938 C 0.33131 0.27727 0.62872 0.0
C3939 C 0.31975 0.27791 0.61861 0.0
C3940 C 0.34346 0.35116 0.62595 0.0
C3941 C 0.33556 0.31384 0.6279 0.0
C3942 C 0.35396 0.36839 0.6297 0.0
C3943 C 0.36603 0.36754 0.63963 0.0
C3944 C 0.34508 0.33289 0.63213 0.0
C3945 C 0.36668 0.34916 0.64577 0.0
C3946 C 0.33915 0.29516 0.6334 0.0
C3947 C 0.31593 0.29694 0.61357 0.0
N3948 N 0.35647 0.33255 0.64189 0.0
N3949 N 0.32397 0.31414 0.61821 0.0
H3950 H 0.44815 0.55448 0.35688 0.0
H3951 H 0.40127 0.6367 0.39984 0.0
H3952 H 0.48335 0.58632 0.38249 0.0
H3953 H 0.36439 0.59896 0.3778 0.0
H3954 H 0.43142 0.61775 0.39382 0.0
H3955 H 0.41714 0.5696 0.36476 0.0
C3956 C 0.44935 0.56445 0.36425 0.0
C3957 C 0.46842 0.56928 0.36896 0.0
C3958 C 0.41674 0.61351 0.39034 0.0
C3959 C 0.43301 0.58685 0.37792 0.0
C3960 C 0.39954 0.6244 0.39373 0.0
C3961 C 0.38035 0.61949 0.38924 0.0
C3962 C 0.41479 0.59769 0.38231 0.0
C3963 C 0.37891 0.60318 0.3815 0.0
C3964 C 0.43164 0.57316 0.3687 0.0
C3965 C 0.46903 0.58248 0.37842 0.0
N3966 N 0.39594 0.59297 0.3782 0.0
N3967 N 0.45162 0.5909 0.38254 0.0
loop_
_geom_bond_atom_site_label_1
_geom_bond_atom_site_label_2
_geom_bond_distance
_geom_bond_site_symmetry_2
_ccdc_geom_bond_type
Li0 N17 1.990 . S
Li0 O60 1.956 . S
Li0 O61 1.970 . S
Li0 O62 1.961 . S
Li1 N25 1.990 . S
Li1 O60 1.970 . S
Li1 O61 1.956 . S
Li1 O63 1.961 . S
Li2 N47 1.990 1_545 S
Li2 O60 1.961 . S
Li2 O62 1.956 . S
Li2 O63 1.970 . S
Li3 N53 1.990 . S
Li3 O61 1.961 . S
Li3 O62 1.970 . S
Li3 O63 1.956 . S
C4 C6 1.348 . S
C4 C7 1.356 . S
C4 O60 1.325 1_565 S
N5 C8 1.314 . S
N5 C9 1.279 . S
C6 C4 1.348 . S
C6 C8 1.353 . S
C6 H64 0.950 . S
C7 C4 1.356 . S
C7 C9 1.358 . S
C7 H65 0.930 . S
C8 N5 1.314 . S
C8 C6 1.353 . S
C8 H66 0.930 . S
C9 N5 1.279 . S
C9 C7 1.358 . S
C9 H67 0.930 . S
C10 C13 1.348 . S
C10 C14 1.356 . S
C10 O61 1.325 . S
C11 N12 1.279 . S
C11 C14 1.358 . S
C11 H68 0.930 . S
N12 C11 1.279 . S
N12 C15 1.314 . S
C13 C10 1.348 . S
C13 C15 1.353 . S
C13 H69 0.929 . S
C14 C10 1.356 . S
C14 C11 1.358 . S
C14 H70 0.930 . S
C15 N12 1.314 . S
C15 C13 1.353 . S
C15 H71 0.930 . S
C16 N17 1.314 . S
C16 C21 1.353 . S
C16 H22 0.930 . S
N17 Li0 1.990 . S
N17 C16 1.314 . S
N17 C19 1.279 . S
C18 C19 1.358 . S
C18 C20 1.356 . S
C18 H72 0.930 . S
C19 N17 1.279 . S
C19 C18 1.358 . S
C19 H23 0.930 . S
C20 C18 1.356 . S
C20 C21 1.348 . S
C21 C16 1.353 . S
C21 C20 1.348 . S
C21 H73 0.929 . S
H22 C16 0.930 . S
H23 C19 0.930 . S
C24 N25 1.314 . S
C24 C26 1.353 . S
C24 H30 0.930 . S
N25 Li1 1.990 . S
N25 C24 1.314 . S
N25 C28 1.279 . S
C26 C24 1.353 . S
C26 C29 1.348 . S
C26 H74 0.942 . S
C27 C28 1.358 . S
C27 C29 1.356 . S
C27 H75 0.930 . S
C28 N25 1.279 . S
C28 C27 1.358 . S
C28 H31 0.930 . S
C29 C26 1.348 . S
C29 C27 1.356 . S
H30 C24 0.930 . S
H31 C28 0.930 . S
C32 C34 1.348 . S
C32 C35 1.356 . S
C32 O62 1.325 . S
N33 C36 1.314 . S
N33 C37 1.279 . S
C34 C32 1.348 . S
C34 C36 1.353 . S
C34 H76 0.929 . S
C35 C32 1.356 . S
C35 C37 1.358 . S
C35 H77 0.930 . S
C36 N33 1.314 . S
C36 C34 1.353 . S
C36 H78 0.930 . S
C37 N33 1.279 . S
C37 C35 1.358 . S
C37 H79 0.930 . S
C38 C39 1.348 . S
C38 C40 1.356 . S
C38 O63 1.325 . S
C39 C38 1.348 . S
C39 C41 1.353 . S
C39 H80 0.929 . S
C40 C38 1.356 . S
C40 C42 1.358 . S
C40 H81 0.930 . S
C41 C39 1.353 . S
C41 N43 1.314 . S
C41 H82 0.930 . S
C42 C40 1.358 . S
C42 N43 1.279 . S
C42 H83 0.930 . S
N43 C41 1.314 . S
N43 C42 1.279 . S
C44 C46 1.353 . S
C44 N47 1.314 . S
C44 H50 0.930 . S
C45 N47 1.279 . S
C45 C48 1.358 . S
C45 H51 0.930 1_565 S
C46 C44 1.353 . S
C46 C49 1.348 . S
C46 H84 0.929 . S
N47 Li2 1.990 1_565 S
N47 C44 1.314 . S
N47 C45 1.279 . S
C48 C45 1.358 . S
C48 C49 1.356 . S
C48 H85 0.930 . S
C49 C46 1.348 . S
C49 C48 1.356 . S
H50 C44 0.930 . S
H51 C45 0.930 1_545 S
C52 N53 1.314 . S
C52 C54 1.353 . S
C52 H58 0.930 . S
N53 Li3 1.990 . S
N53 C52 1.314 . S
N53 C56 1.279 . S
C54 C52 1.353 . S
C54 C57 1.348 . S
C54 H86 0.929 . S
C55 C56 1.358 . S
C55 C57 1.356 . S
C55 H87 0.930 . S
C56 N53 1.279 . S
C56 C55 1.358 . S
C56 H59 0.930 . S
C57 C54 1.348 . S
C57 C55 1.356 . S
H58 C52 0.930 . S
H59 C56 0.930 . S
O60 Li0 1.956 . S
O60 Li1 1.970 . S
O60 Li2 1.961 . S
O60 C4 1.325 1_545 S
O61 Li0 1.970 . S
O61 Li1 1.956 . S
O61 Li3 1.961 . S
O61 C10 1.325 . S
O62 Li0 1.961 . S
O62 Li2 1.956 . S
O62 Li3 1.970 . S
O62 C32 1.325 . S
O63 Li1 1.961 . S
O63 Li2 1.970 . S
O63 Li3 1.956 . S
O63 C38 1.325 . S
H64 C6 0.950 . S
H65 C7 0.930 . S
H66 C8 0.930 . S
H67 C9 0.930 . S
H68 C11 0.930 . S
H69 C13 0.929 . S
H70 C14 0.930 . S
H71 C15 0.930 . S
H72 C18 0.930 . S
H73 C21 0.929 . S
H74 C26 0.942 . S
H75 C27 0.930 . S
H76 C34 0.929 . S
H77 C35 0.930 . S
H78 C36 0.930 . S
H79 C37 0.930 . S
H80 C39 0.929 . S
H81 C40 0.930 . S
H82 C41 0.930 . S
H83 C42 0.930 . S
H84 C46 0.929 . S
H85 C48 0.930 . S
H86 C54 0.929 . S
H87 C55 0.930 . S
Li88 N105 1.990 . S
Li88 O148 1.956 . S
Li88 O149 1.970 . S
Li88 O150 1.961 . S
Li89 N113 1.990 . S
Li89 O148 1.970 . S
Li89 O149 1.956 . S
Li89 O151 1.961 . S
Li90 N135 1.990 . S
Li90 O148 1.961 . S
Li90 O150 1.956 . S
Li90 O151 1.970 . S
Li91 N141 1.990 . S
Li91 O149 1.961 . S
Li91 O150 1.970 . S
Li91 O151 1.956 . S
C92 C94 1.348 . S
C92 C95 1.356 . S
C92 O148 1.325 . S
N93 C96 1.314 . S
N93 C97 1.279 . S
C94 C92 1.348 . S
C94 C96 1.353 . S
C94 H152 0.929 . S
C95 C92 1.356 . S
C95 C97 1.358 . S
C95 H153 0.930 . S
C96 N93 1.314 . S
C96 C94 1.353 . S
C96 H154 0.930 . S
C97 N93 1.279 . S
C97 C95 1.358 . S
C97 H155 0.930 . S
C98 C101 1.348 . S
C98 C102 1.356 . S
C98 O149 1.325 . S
C99 N100 1.279 . S
C99 C102 1.358 . S
C99 H156 0.930 . S
N100 C99 1.279 . S
N100 C103 1.314 . S
C101 C98 1.348 . S
C101 C103 1.353 . S
C101 H157 0.929 . S
C102 C98 1.356 . S
C102 C99 1.358 . S
C102 H158 0.930 . S
C103 N100 1.314 . S
C103 C101 1.353 . S
C103 H159 0.930 . S
C104 N105 1.314 . S
C104 C109 1.353 . S
C104 H110 0.930 . S
N105 Li88 1.990 . S
N105 C104 1.314 . S
N105 C107 1.279 . S
C106 C107 1.358 . S
C106 C108 1.356 . S
C106 H160 0.930 . S
C107 N105 1.279 . S
C107 C106 1.358 . S
C107 H111 0.930 . S
C108 C106 1.356 . S
C108 C109 1.348 . S
C109 C104 1.353 . S
C109 C108 1.348 . S
C109 H161 0.929 . S
H110 C104 0.930 . S
H111 C107 0.930 . S
C112 N113 1.314 . S
C112 C114 1.353 . S
C112 H118 0.930 . S
N113 Li89 1.990 . S
N113 C112 1.314 . S
N113 C116 1.279 . S
C114 C112 1.353 . S
C114 C117 1.348 . S
C114 H162 0.929 . S
C115 C116 1.358 . S
C115 C117 1.356 . S
C115 H163 0.930 . S
C116 N113 1.279 . S
C116 C115 1.358 . S
C116 H119 0.930 . S
C117 C114 1.348 . S
C117 C115 1.356 . S
H118 C112 0.930 . S
H119 C116 0.930 . S
C120 C122 1.348 . S
C120 C123 1.356 . S
C120 O150 1.325 . S
N121 C124 1.314 . S
N121 C125 1.279 . S
C122 C120 1.348 . S
C122 C124 1.353 . S
C122 H164 0.929 . S
C123 C120 1.356 . S
C123 C125 1.358 . S
C123 H165 0.930 . S
C124 N121 1.314 . S
C124 C122 1.353 . S
C124 H166 0.930 . S
C125 N121 1.279 . S
C125 C123 1.358 . S
C125 H167 0.930 . S
C126 C127 1.348 . S
C126 C128 1.356 . S
C126 O151 1.325 . S
C127 C126 1.348 . S
C127 C129 1.353 . S
C127 H168 0.929 . S
C128 C126 1.356 . S
C128 C130 1.358 . S
C128 H169 0.930 . S
C129 C127 1.353 . S
C129 N131 1.314 . S
C129 H170 0.930 . S
C130 C128 1.358 . S
C130 N131 1.279 . S
C130 H171 0.930 . S
N131 C129 1.314 . S
N131 C130 1.279 . S
C132 C134 1.353 . S
C132 N135 1.314 . S
C132 H138 0.930 . S
C133 N135 1.279 . S
C133 C136 1.358 . S
C133 H139 0.930 . S
C134 C132 1.353 . S
C134 C137 1.348 . S
C134 H172 0.929 . S
N135 Li90 1.990 . S
N135 C132 1.314 . S
N135 C133 1.279 . S
C136 C133 1.358 . S
C136 C137 1.356 . S
C136 H173 0.930 . S
C137 C134 1.348 . S
C137 C136 1.356 . S
H138 C132 0.930 . S
H139 C133 0.930 . S
C140 N141 1.314 . S
C140 C142 1.353 . S
C140 H146 0.930 . S
N141 Li91 1.990 . S
N141 C140 1.314 . S
N141 C144 1.279 . S
C142 C140 1.353 . S
C142 C145 1.348 . S
C142 H174 0.929 . S
C143 C144 1.358 . S
C143 C145 1.356 . S
C143 H175 0.930 . S
C144 N141 1.279 . S
C144 C143 1.358 . S
C144 H147 0.930 . S
C145 C142 1.348 . S
C145 C143 1.356 . S
H146 C140 0.930 . S
H147 C144 0.930 . S
O148 Li88 1.956 . S
O148 Li89 1.970 . S
O148 Li90 1.961 . S
O148 C92 1.325 . S
O149 Li88 1.970 . S
O149 Li89 1.956 . S
O149 Li91 1.961 . S
O149 C98 1.325 . S
O150 Li88 1.961 . S
O150 Li90 1.956 . S
O150 Li91 1.970 . S
O150 C120 1.325 . S
O151 Li89 1.961 . S
O151 Li90 1.970 . S
O151 Li91 1.956 . S
O151 C126 1.325 . S
H152 C94 0.929 . S
H153 C95 0.930 . S
H154 C96 0.930 . S
H155 C97 0.930 . S
H156 C99 0.930 . S
H157 C101 0.929 . S
H158 C102 0.930 . S
H159 C103 0.930 . S
H160 C106 0.930 . S
H161 C109 0.929 . S
H162 C114 0.929 . S
H163 C115 0.930 . S
H164 C122 0.929 . S
H165 C123 0.930 . S
H166 C124 0.930 . S
H167 C125 0.930 . S
H168 C127 0.929 . S
H169 C128 0.930 . S
H170 C129 0.930 . S
H171 C130 0.930 . S
H172 C134 0.929 . S
H173 C136 0.930 . S
H174 C142 0.929 . S
H175 C143 0.930 . S
Li176 N193 1.990 . S
Li176 O236 1.956 . S
Li176 O237 1.970 . S
Li176 O238 1.961 . S
Li177 N201 1.990 . S
Li177 O236 1.970 . S
Li177 O237 1.956 . S
Li177 O239 1.961 . S
Li178 N223 1.990 1_565 S
Li178 O236 1.961 . S
Li178 O238 1.956 . S
Li178 O239 1.970 . S
Li179 N229 1.990 . S
Li179 O237 1.961 . S
Li179 O238 1.970 . S
Li179 O239 1.956 . S
C180 C182 1.348 . S
C180 C183 1.356 . S
C180 O236 1.325 1_545 S
N181 C184 1.314 . S
N181 C185 1.279 . S
C182 C180 1.348 . S
C182 C184 1.353 . S
C182 H240 0.950 . S
C183 C180 1.356 . S
C183 C185 1.358 . S
C183 H241 0.930 . S
C184 N181 1.314 . S
C184 C182 1.353 . S
C184 H242 0.930 . S
C185 N181 1.279 . S
C185 C183 1.358 . S
C185 H243 0.930 . S
C186 C189 1.348 . S
C186 C190 1.356 . S
C186 O237 1.325 . S
C187 N188 1.279 . S
C187 C190 1.358 . S
C187 H244 0.930 . S
N188 C187 1.279 . S
N188 C191 1.314 . S
C189 C186 1.348 . S
C189 C191 1.353 . S
C189 H245 0.929 . S
C190 C186 1.356 . S
C190 C187 1.358 . S
C190 H246 0.930 . S
C191 N188 1.314 . S
C191 C189 1.353 . S
C191 H247 0.930 . S
C192 N193 1.314 . S
C192 C197 1.353 . S
C192 H198 0.930 . S
N193 Li176 1.990 . S
N193 C192 1.314 . S
N193 C195 1.279 . S
C194 C195 1.358 1_655 S
C194 C196 1.356 . S
C194 H248 0.930 . S
C195 N193 1.279 . S
C195 C194 1.358 1_455 S
C195 H199 0.930 . S
C196 C194 1.356 . S
C196 C197 1.348 1_655 S
C197 C192 1.353 . S
C197 C196 1.348 1_455 S
C197 H249 0.929 . S
H198 C192 0.930 . S
H199 C195 0.930 . S
C200 N201 1.314 . S
C200 C202 1.353 . S
C200 H206 0.930 . S
N201 Li177 1.990 . S
N201 C200 1.314 . S
N201 C204 1.279 . S
C202 C200 1.353 . S
C202 C205 1.348 . S
C202 H250 0.942 . S
C203 C204 1.358 . S
C203 C205 1.356 . S
C203 H251 0.930 . S
C204 N201 1.279 . S
C204 C203 1.358 . S
C204 H207 0.930 . S
C205 C202 1.348 . S
C205 C203 1.356 . S
H206 C200 0.930 . S
H207 C204 0.930 . S
C208 C210 1.348 . S
C208 C211 1.356 . S
C208 O238 1.325 . S
N209 C212 1.314 . S
N209 C213 1.279 . S
C210 C208 1.348 . S
C210 C212 1.353 . S
C210 H252 0.929 . S
C211 C208 1.356 . S
C211 C213 1.358 . S
C211 H253 0.930 . S
C212 N209 1.314 . S
C212 C210 1.353 . S
C212 H254 0.930 . S
C213 N209 1.279 . S
C213 C211 1.358 . S
C213 H255 0.930 . S
C214 C215 1.348 . S
C214 C216 1.356 . S
C214 O239 1.325 . S
C215 C214 1.348 . S
C215 C217 1.353 . S
C215 H256 0.929 . S
C216 C214 1.356 . S
C216 C218 1.358 . S
C216 H257 0.930 . S
C217 C215 1.353 . S
C217 N219 1.314 . S
C217 H258 0.930 . S
C218 C216 1.358 . S
C218 N219 1.279 . S
C218 H259 0.930 . S
N219 C217 1.314 . S
N219 C218 1.279 . S
C220 C222 1.353 . S
C220 N223 1.314 . S
C220 H226 0.930 . S
C221 N223 1.279 . S
C221 C224 1.358 . S
C221 H227 0.930 1_545 S
C222 C220 1.353 . S
C222 C225 1.348 . S
C222 H260 0.929 . S
N223 Li178 1.990 1_545 S
N223 C220 1.314 . S
N223 C221 1.279 . S
C224 C221 1.358 . S
C224 C225 1.356 . S
C224 H261 0.930 . S
C225 C222 1.348 . S
C225 C224 1.356 . S
H226 C220 0.930 . S
H227 C221 0.930 1_565 S
C228 N229 1.314 . S
C228 C230 1.353 . S
C228 H234 0.930 . S
N229 Li179 1.990 . S
N229 C228 1.314 . S
N229 C232 1.279 . S
C230 C228 1.353 . S
C230 C233 1.348 . S
C230 H262 0.929 . S
C231 C232 1.358 . S
C231 C233 1.356 . S
C231 H263 0.930 . S
C232 N229 1.279 . S
C232 C231 1.358 . S
C232 H235 0.930 . S
C233 C230 1.348 . S
C233 C231 1.356 . S
H234 C228 0.930 . S
H235 C232 0.930 . S
O236 Li176 1.956 . S
O236 Li177 1.970 . S
O236 Li178 1.961 . S
O236 C180 1.325 1_565 S
O237 Li176 1.970 . S
O237 Li177 1.956 . S
O237 Li179 1.961 . S
O237 C186 1.325 . S
O238 Li176 1.961 . S
O238 Li178 1.956 . S
O238 Li179 1.970 . S
O238 C208 1.325 . S
O239 Li177 1.961 . S
O239 Li178 1.970 . S
O239 Li179 1.956 . S
O239 C214 1.325 . S
H240 C182 0.950 . S
H241 C183 0.930 . S
H242 C184 0.930 . S
H243 C185 0.930 . S
H244 C187 0.930 . S
H245 C189 0.929 . S
H246 C190 0.930 . S
H247 C191 0.930 . S
H248 C194 0.930 . S
H249 C197 0.929 . S
H250 C202 0.942 . S
H251 C203 0.930 . S
H252 C210 0.929 . S
H253 C211 0.930 . S
H254 C212 0.930 . S
H255 C213 0.930 . S
H256 C215 0.929 . S
H257 C216 0.930 . S
H258 C217 0.930 . S
H259 C218 0.930 . S
H260 C222 0.929 . S
H261 C224 0.930 . S
H262 C230 0.929 . S
H263 C231 0.930 . S
Li264 N281 1.990 . S
Li264 O324 1.956 . S
Li264 O325 1.970 . S
Li264 O326 1.961 . S
Li265 N289 1.990 . S
Li265 O324 1.970 . S
Li265 O325 1.956 . S
Li265 O327 1.961 . S
Li266 N311 1.990 . S
Li266 O324 1.961 . S
Li266 O326 1.956 . S
Li266 O327 1.970 . S
Li267 N317 1.990 . S
Li267 O325 1.961 . S
Li267 O326 1.970 . S
Li267 O327 1.956 . S
C268 C270 1.348 . S
C268 C271 1.356 . S
C268 O324 1.325 . S
N269 C272 1.314 . S
N269 C273 1.279 . S
C270 C268 1.348 . S
C270 C272 1.353 . S
C270 H328 0.929 . S
C271 C268 1.356 . S
C271 C273 1.358 . S
C271 H329 0.930 . S
C272 N269 1.314 . S
C272 C270 1.353 . S
C272 H330 0.930 . S
C273 N269 1.279 . S
C273 C271 1.358 . S
C273 H331 0.930 . S
C274 C277 1.348 . S
C274 C278 1.356 . S
C274 O325 1.325 . S
C275 N276 1.279 . S
C275 C278 1.358 . S
C275 H332 0.930 . S
N276 C275 1.279 . S
N276 C279 1.314 . S
C277 C274 1.348 . S
C277 C279 1.353 . S
C277 H333 0.929 . S
C278 C274 1.356 . S
C278 C275 1.358 . S
C278 H334 0.930 . S
C279 N276 1.314 . S
C279 C277 1.353 . S
C279 H335 0.930 . S
C280 N281 1.314 . S
C280 C285 1.353 . S
C280 H286 0.930 . S
N281 Li264 1.990 . S
N281 C280 1.314 . S
N281 C283 1.279 . S
C282 C283 1.358 . S
C282 C284 1.356 . S
C282 H336 0.930 . S
C283 N281 1.279 . S
C283 C282 1.358 . S
C283 H287 0.930 . S
C284 C282 1.356 . S
C284 C285 1.348 . S
C285 C280 1.353 . S
C285 C284 1.348 . S
C285 H337 0.929 . S
H286 C280 0.930 . S
H287 C283 0.930 . S
C288 N289 1.314 . S
C288 C290 1.353 . S
C288 H294 0.930 . S
N289 Li265 1.990 . S
N289 C288 1.314 . S
N289 C292 1.279 . S
C290 C288 1.353 . S
C290 C293 1.348 . S
C290 H338 0.929 . S
C291 C292 1.358 . S
C291 C293 1.356 . S
C291 H339 0.930 . S
C292 N289 1.279 . S
C292 C291 1.358 . S
C292 H295 0.930 . S
C293 C290 1.348 . S
C293 C291 1.356 . S
H294 C288 0.930 . S
H295 C292 0.930 . S
C296 C298 1.348 . S
C296 C299 1.356 . S
C296 O326 1.325 . S
N297 C300 1.314 . S
N297 C301 1.279 . S
C298 C296 1.348 . S
C298 C300 1.353 . S
C298 H340 0.929 . S
C299 C296 1.356 . S
C299 C301 1.358 . S
C299 H341 0.930 . S
C300 N297 1.314 . S
C300 C298 1.353 . S
C300 H342 0.930 . S
C301 N297 1.279 . S
C301 C299 1.358 . S
C301 H343 0.930 . S
C302 C303 1.348 . S
C302 C304 1.356 . S
C302 O327 1.325 . S
C303 C302 1.348 . S
C303 C305 1.353 . S
C303 H344 0.929 . S
C304 C302 1.356 . S
C304 C306 1.358 . S
C304 H345 0.930 . S
C305 C303 1.353 . S
C305 N307 1.314 . S
C305 H346 0.930 . S
C306 C304 1.358 . S
C306 N307 1.279 . S
C306 H347 0.930 . S
N307 C305 1.314 . S
N307 C306 1.279 . S
C308 C310 1.353 . S
C308 N311 1.314 . S
C308 H314 0.930 . S
C309 N311 1.279 . S
C309 C312 1.358 . S
C309 H315 0.930 . S
C310 C308 1.353 . S
C310 C313 1.348 . S
C310 H348 0.929 . S
N311 Li266 1.990 . S
N311 C308 1.314 . S
N311 C309 1.279 . S
C312 C309 1.358 . S
C312 C313 1.356 . S
C312 H349 0.930 . S
C313 C310 1.348 . S
C313 C312 1.356 . S
H314 C308 0.930 . S
H315 C309 0.930 . S
C316 N317 1.314 . S
C316 C318 1.353 . S
C316 H322 0.930 . S
N317 Li267 1.990 . S
N317 C316 1.314 . S
N317 C320 1.279 . S
C318 C316 1.353 . S
C318 C321 1.348 . S
C318 H350 0.929 . S
C319 C320 1.358 . S
C319 C321 1.356 . S
C319 H351 0.930 . S
C320 N317 1.279 . S
C320 C319 1.358 . S
C320 H323 0.930 . S
C321 C318 1.348 . S
C321 C319 1.356 . S
H322 C316 0.930 . S
H323 C320 0.930 . S
O324 Li264 1.956 . S
O324 Li265 1.970 . S
O324 Li266 1.961 . S
O324 C268 1.325 . S
O325 Li264 1.970 . S
O325 Li265 1.956 . S
O325 Li267 1.961 . S
O325 C274 1.325 . S
O326 Li264 1.961 . S
O326 Li266 1.956 . S
O326 Li267 1.970 . S
O326 C296 1.325 . S
O327 Li265 1.961 . S
O327 Li266 1.970 . S
O327 Li267 1.956 . S
O327 C302 1.325 . S
H328 C270 0.929 . S
H329 C271 0.930 . S
H330 C272 0.930 . S
H331 C273 0.930 . S
H332 C275 0.930 . S
H333 C277 0.929 . S
H334 C278 0.930 . S
H335 C279 0.930 . S
H336 C282 0.930 . S
H337 C285 0.929 . S
H338 C290 0.929 . S
H339 C291 0.930 . S
H340 C298 0.929 . S
H341 C299 0.930 . S
H342 C300 0.930 . S
H343 C301 0.930 . S
H344 C303 0.929 . S
H345 C304 0.930 . S
H346 C305 0.930 . S
H347 C306 0.930 . S
H348 C310 0.929 . S
H349 C312 0.930 . S
H350 C318 0.929 . S
H351 C319 0.930 . S
Li352 N369 1.990 1_565 S
Li352 O412 1.956 . S
Li352 O413 1.970 . S
Li352 O414 1.961 . S
Li353 N377 1.990 . S
Li353 O412 1.970 . S
Li353 O413 1.956 . S
Li353 O415 1.961 . S
Li354 N399 1.990 . S
Li354 O412 1.961 . S
Li354 O414 1.956 . S
Li354 O415 1.970 . S
Li355 N405 1.990 . S
Li355 O413 1.961 . S
Li355 O414 1.970 . S
Li355 O415 1.956 . S
C356 C358 1.348 . S
C356 C359 1.356 . S
C356 O412 1.325 . S
N357 C360 1.314 . S
N357 C361 1.279 . S
C358 C356 1.348 . S
C358 C360 1.353 . S
C358 H416 0.929 . S
C359 C356 1.356 . S
C359 C361 1.358 . S
C359 H417 0.930 . S
C360 N357 1.314 . S
C360 C358 1.353 . S
C360 H418 0.930 . S
C361 N357 1.279 . S
C361 C359 1.358 . S
C361 H419 0.930 . S
C362 C365 1.348 . S
C362 C366 1.356 . S
C362 O413 1.325 . S
C363 N364 1.279 . S
C363 C366 1.358 . S
C363 H420 0.930 . S
N364 C363 1.279 . S
N364 C367 1.314 . S
C365 C362 1.348 . S
C365 C367 1.353 . S
C365 H421 0.929 . S
C366 C362 1.356 . S
C366 C363 1.358 . S
C366 H422 0.930 . S
C367 N364 1.314 . S
C367 C365 1.353 . S
C367 H423 0.930 . S
C368 N369 1.314 . S
C368 C373 1.353 . S
C368 H374 0.930 . S
N369 Li352 1.990 1_545 S
N369 C368 1.314 . S
N369 C371 1.279 . S
C370 C371 1.358 . S
C370 C372 1.356 . S
C370 H424 0.930 . S
C371 N369 1.279 . S
C371 C370 1.358 . S
C371 H375 0.930 1_545 S
C372 C370 1.356 . S
C372 C373 1.348 . S
C373 C368 1.353 . S
C373 C372 1.348 . S
C373 H425 0.929 . S
H374 C368 0.930 . S
H375 C371 0.930 1_565 S
C376 N377 1.314 . S
C376 C378 1.353 . S
C376 H382 0.930 . S
N377 Li353 1.990 . S
N377 C376 1.314 . S
N377 C380 1.279 . S
C378 C376 1.353 . S
C378 C381 1.348 . S
C378 H426 0.929 . S
C379 C380 1.358 . S
C379 C381 1.356 . S
C379 H427 0.930 . S
C380 N377 1.279 . S
C380 C379 1.358 . S
C380 H383 0.930 . S
C381 C378 1.348 . S
C381 C379 1.356 . S
H382 C376 0.930 . S
H383 C380 0.930 . S
C384 C386 1.348 . S
C384 C387 1.356 . S
C384 O414 1.325 1_545 S
N385 C388 1.314 . S
N385 C389 1.279 . S
C386 C384 1.348 . S
C386 C388 1.353 . S
C386 H428 0.950 . S
C387 C384 1.356 . S
C387 C389 1.358 . S
C387 H429 0.930 . S
C388 N385 1.314 . S
C388 C386 1.353 . S
C388 H430 0.930 . S
C389 N385 1.279 . S
C389 C387 1.358 . S
C389 H431 0.930 . S
C390 C391 1.348 . S
C390 C392 1.356 . S
C390 O415 1.325 . S
C391 C390 1.348 . S
C391 C393 1.353 . S
C391 H432 0.929 . S
C392 C390 1.356 . S
C392 C394 1.358 . S
C392 H433 0.930 . S
C393 C391 1.353 . S
C393 N395 1.314 . S
C393 H434 0.930 . S
C394 C392 1.358 . S
C394 N395 1.279 . S
C394 H435 0.930 . S
N395 C393 1.314 . S
N395 C394 1.279 . S
C396 C398 1.353 . S
C396 N399 1.314 . S
C396 H402 0.930 . S
C397 N399 1.279 . S
C397 C400 1.358 . S
C397 H403 0.930 . S
C398 C396 1.353 . S
C398 C401 1.348 . S
C398 H436 0.929 . S
N399 Li354 1.990 . S
N399 C396 1.314 . S
N399 C397 1.279 . S
C400 C397 1.358 . S
C400 C401 1.356 . S
C400 H437 0.930 . S
C401 C398 1.348 . S
C401 C400 1.356 . S
H402 C396 0.930 . S
H403 C397 0.930 . S
C404 N405 1.314 . S
C404 C406 1.353 . S
C404 H410 0.930 . S
N405 Li355 1.990 . S
N405 C404 1.314 . S
N405 C408 1.279 . S
C406 C404 1.353 . S
C406 C409 1.348 . S
C406 H438 0.942 . S
C407 C408 1.358 . S
C407 C409 1.356 . S
C407 H439 0.930 . S
C408 N405 1.279 . S
C408 C407 1.358 . S
C408 H411 0.930 . S
C409 C406 1.348 . S
C409 C407 1.356 . S
H410 C404 0.930 . S
H411 C408 0.930 . S
O412 Li352 1.956 . S
O412 Li353 1.970 . S
O412 Li354 1.961 . S
O412 C356 1.325 . S
O413 Li352 1.970 . S
O413 Li353 1.956 . S
O413 Li355 1.961 . S
O413 C362 1.325 . S
O414 Li352 1.961 . S
O414 Li354 1.956 . S
O414 Li355 1.970 . S
O414 C384 1.325 1_565 S
O415 Li353 1.961 . S
O415 Li354 1.970 . S
O415 Li355 1.956 . S
O415 C390 1.325 . S
H416 C358 0.929 . S
H417 C359 0.930 . S
H418 C360 0.930 . S
H419 C361 0.930 . S
H420 C363 0.930 . S
H421 C365 0.929 . S
H422 C366 0.930 . S
H423 C367 0.930 . S
H424 C370 0.930 . S
H425 C373 0.929 . S
H426 C378 0.929 . S
H427 C379 0.930 . S
H428 C386 0.950 . S
H429 C387 0.930 . S
H430 C388 0.930 . S
H431 C389 0.930 . S
H432 C391 0.929 . S
H433 C392 0.930 . S
H434 C393 0.930 . S
H435 C394 0.930 . S
H436 C398 0.929 . S
H437 C400 0.930 . S
H438 C406 0.942 . S
H439 C407 0.930 . S
Li440 N457 1.990 . S
Li440 O500 1.956 . S
Li440 O501 1.970 . S
Li440 O502 1.961 . S
Li441 N465 1.990 . S
Li441 O500 1.970 . S
Li441 O501 1.956 . S
Li441 O503 1.961 . S
Li442 N487 1.990 . S
Li442 O500 1.961 . S
Li442 O502 1.956 . S
Li442 O503 1.970 . S
Li443 N493 1.990 . S
Li443 O501 1.961 . S
Li443 O502 1.970 . S
Li443 O503 1.956 . S
C444 C446 1.348 . S
C444 C447 1.356 . S
C444 O500 1.325 . S
N445 C448 1.314 . S
N445 C449 1.279 . S
C446 C444 1.348 . S
C446 C448 1.353 . S
C446 H504 0.929 . S
C447 C444 1.356 . S
C447 C449 1.358 . S
C447 H505 0.930 . S
C448 N445 1.314 . S
C448 C446 1.353 . S
C448 H506 0.930 . S
C449 N445 1.279 . S
C449 C447 1.358 . S
C449 H507 0.930 . S
C450 C453 1.348 . S
C450 C454 1.356 . S
C450 O501 1.325 . S
C451 N452 1.279 . S
C451 C454 1.358 . S
C451 H508 0.930 . S
N452 C451 1.279 . S
N452 C455 1.314 . S
C453 C450 1.348 . S
C453 C455 1.353 . S
C453 H509 0.929 . S
C454 C450 1.356 . S
C454 C451 1.358 . S
C454 H510 0.930 . S
C455 N452 1.314 . S
C455 C453 1.353 . S
C455 H511 0.930 . S
C456 N457 1.314 . S
C456 C461 1.353 . S
C456 H462 0.930 . S
N457 Li440 1.990 . S
N457 C456 1.314 . S
N457 C459 1.279 . S
C458 C459 1.358 . S
C458 C460 1.356 . S
C458 H512 0.930 . S
C459 N457 1.279 . S
C459 C458 1.358 . S
C459 H463 0.930 . S
C460 C458 1.356 . S
C460 C461 1.348 . S
C461 C456 1.353 . S
C461 C460 1.348 . S
C461 H513 0.929 . S
H462 C456 0.930 . S
H463 C459 0.930 . S
C464 N465 1.314 . S
C464 C466 1.353 . S
C464 H470 0.930 . S
N465 Li441 1.990 . S
N465 C464 1.314 . S
N465 C468 1.279 . S
C466 C464 1.353 . S
C466 C469 1.348 . S
C466 H514 0.929 . S
C467 C468 1.358 . S
C467 C469 1.356 . S
C467 H515 0.930 . S
C468 N465 1.279 . S
C468 C467 1.358 . S
C468 H471 0.930 . S
C469 C466 1.348 . S
C469 C467 1.356 . S
H470 C464 0.930 . S
H471 C468 0.930 . S
C472 C474 1.348 . S
C472 C475 1.356 . S
C472 O502 1.325 . S
N473 C476 1.314 . S
N473 C477 1.279 . S
C474 C472 1.348 . S
C474 C476 1.353 . S
C474 H516 0.929 . S
C475 C472 1.356 . S
C475 C477 1.358 . S
C475 H517 0.930 . S
C476 N473 1.314 . S
C476 C474 1.353 . S
C476 H518 0.930 . S
C477 N473 1.279 . S
C477 C475 1.358 . S
C477 H519 0.930 . S
C478 C479 1.348 . S
C478 C480 1.356 . S
C478 O503 1.325 . S
C479 C478 1.348 . S
C479 C481 1.353 . S
C479 H520 0.929 . S
C480 C478 1.356 . S
C480 C482 1.358 . S
C480 H521 0.930 . S
C481 C479 1.353 . S
C481 N483 1.314 . S
C481 H522 0.930 . S
C482 C480 1.358 . S
C482 N483 1.279 . S
C482 H523 0.930 . S
N483 C481 1.314 . S
N483 C482 1.279 . S
C484 C486 1.353 . S
C484 N487 1.314 . S
C484 H490 0.930 . S
C485 N487 1.279 . S
C485 C488 1.358 . S
C485 H491 0.930 . S
C486 C484 1.353 . S
C486 C489 1.348 . S
C486 H524 0.929 . S
N487 Li442 1.990 . S
N487 C484 1.314 . S
N487 C485 1.279 . S
C488 C485 1.358 . S
C488 C489 1.356 . S
C488 H525 0.930 . S
C489 C486 1.348 . S
C489 C488 1.356 . S
H490 C484 0.930 . S
H491 C485 0.930 . S
C492 N493 1.314 . S
C492 C494 1.353 . S
C492 H498 0.930 . S
N493 Li443 1.990 . S
N493 C492 1.314 . S
N493 C496 1.279 . S
C494 C492 1.353 . S
C494 C497 1.348 . S
C494 H526 0.929 . S
C495 C496 1.358 . S
C495 C497 1.356 . S
C495 H527 0.930 . S
C496 N493 1.279 . S
C496 C495 1.358 . S
C496 H499 0.930 . S
C497 C494 1.348 . S
C497 C495 1.356 . S
H498 C492 0.930 . S
H499 C496 0.930 . S
O500 Li440 1.956 . S
O500 Li441 1.970 . S
O500 Li442 1.961 . S
O500 C444 1.325 . S
O501 Li440 1.970 . S
O501 Li441 1.956 . S
O501 Li443 1.961 . S
O501 C450 1.325 . S
O502 Li440 1.961 . S
O502 Li442 1.956 . S
O502 Li443 1.970 . S
O502 C472 1.325 . S
O503 Li441 1.961 . S
O503 Li442 1.970 . S
O503 Li443 1.956 . S
O503 C478 1.325 . S
H504 C446 0.929 . S
H505 C447 0.930 . S
H506 C448 0.930 . S
H507 C449 0.930 . S
H508 C451 0.930 . S
H509 C453 0.929 . S
H510 C454 0.930 . S
H511 C455 0.930 . S
H512 C458 0.930 . S
H513 C461 0.929 . S
H514 C466 0.929 . S
H515 C467 0.930 . S
H516 C474 0.929 . S
H517 C475 0.930 . S
H518 C476 0.930 . S
H519 C477 0.930 . S
H520 C479 0.929 . S
H521 C480 0.930 . S
H522 C481 0.930 . S
H523 C482 0.930 . S
H524 C486 0.929 . S
H525 C488 0.930 . S
H526 C494 0.929 . S
H527 C495 0.930 . S
Li528 N545 1.990 . S
Li528 O588 1.956 . S
Li528 O589 1.970 . S
Li528 O590 1.961 . S
Li529 N553 1.990 1_545 S
Li529 O588 1.970 . S
Li529 O589 1.956 . S
Li529 O591 1.961 . S
Li530 N575 1.990 . S
Li530 O588 1.961 . S
Li530 O590 1.956 . S
Li530 O591 1.970 . S
Li531 N581 1.990 . S
Li531 O589 1.961 . S
Li531 O590 1.970 . S
Li531 O591 1.956 . S
C532 C534 1.348 . S
C532 C535 1.356 . S
C532 O588 1.325 . S
N533 C536 1.314 . S
N533 C537 1.279 . S
C534 C532 1.348 . S
C534 C536 1.353 . S
C534 H592 0.929 . S
C535 C532 1.356 . S
C535 C537 1.358 . S
C535 H593 0.930 . S
C536 N533 1.314 . S
C536 C534 1.353 . S
C536 H594 0.930 . S
C537 N533 1.279 . S
C537 C535 1.358 . S
C537 H595 0.930 . S
C538 C541 1.348 . S
C538 C542 1.356 . S
C538 O589 1.325 . S
C539 N540 1.279 . S
C539 C542 1.358 . S
C539 H596 0.930 . S
N540 C539 1.279 . S
N540 C543 1.314 . S
C541 C538 1.348 . S
C541 C543 1.353 . S
C541 H597 0.929 . S
C542 C538 1.356 . S
C542 C539 1.358 . S
C542 H598 0.930 . S
C543 N540 1.314 . S
C543 C541 1.353 . S
C543 H599 0.930 . S
C544 N545 1.314 . S
C544 C549 1.353 . S
C544 H550 0.930 . S
N545 Li528 1.990 . S
N545 C544 1.314 . S
N545 C547 1.279 . S
C546 C547 1.358 . S
C546 C548 1.356 . S
C546 H600 0.930 . S
C547 N545 1.279 . S
C547 C546 1.358 . S
C547 H551 0.930 . S
C548 C546 1.356 . S
C548 C549 1.348 . S
C549 C544 1.353 . S
C549 C548 1.348 . S
C549 H601 0.929 . S
H550 C544 0.930 . S
H551 C547 0.930 . S
C552 N553 1.314 . S
C552 C554 1.353 . S
C552 H558 0.930 . S
N553 Li529 1.990 1_565 S
N553 C552 1.314 . S
N553 C556 1.279 . S
C554 C552 1.353 . S
C554 C557 1.348 . S
C554 H602 0.929 . S
C555 C556 1.358 . S
C555 C557 1.356 . S
C555 H603 0.930 . S
C556 N553 1.279 . S
C556 C555 1.358 . S
C556 H559 0.930 1_565 S
C557 C554 1.348 . S
C557 C555 1.356 . S
H558 C552 0.930 . S
H559 C556 0.930 1_545 S
C560 C562 1.348 . S
C560 C563 1.356 . S
C560 O590 1.325 . S
N561 C564 1.314 . S
N561 C565 1.279 . S
C562 C560 1.348 . S
C562 C564 1.353 . S
C562 H604 0.929 . S
C563 C560 1.356 . S
C563 C565 1.358 . S
C563 H605 0.930 . S
C564 N561 1.314 . S
C564 C562 1.353 . S
C564 H606 0.930 . S
C565 N561 1.279 . S
C565 C563 1.358 . S
C565 H607 0.930 . S
C566 C567 1.348 . S
C566 C568 1.356 . S
C566 O591 1.325 1_565 S
C567 C566 1.348 . S
C567 C569 1.353 . S
C567 H608 0.950 . S
C568 C566 1.356 . S
C568 C570 1.358 . S
C568 H609 0.930 . S
C569 C567 1.353 . S
C569 N571 1.314 . S
C569 H610 0.930 . S
C570 C568 1.358 . S
C570 N571 1.279 . S
C570 H611 0.930 . S
N571 C569 1.314 . S
N571 C570 1.279 . S
C572 C574 1.353 . S
C572 N575 1.314 . S
C572 H578 0.930 . S
C573 N575 1.279 . S
C573 C576 1.358 . S
C573 H579 0.930 . S
C574 C572 1.353 . S
C574 C577 1.348 . S
C574 H612 0.942 . S
N575 Li530 1.990 . S
N575 C572 1.314 . S
N575 C573 1.279 . S
C576 C573 1.358 . S
C576 C577 1.356 . S
C576 H613 0.930 . S
C577 C574 1.348 . S
C577 C576 1.356 . S
H578 C572 0.930 . S
H579 C573 0.930 . S
C580 N581 1.314 . S
C580 C582 1.353 . S
C580 H586 0.930 . S
N581 Li531 1.990 . S
N581 C580 1.314 . S
N581 C584 1.279 . S
C582 C580 1.353 . S
C582 C585 1.348 1_455 S
C582 H614 0.929 . S
C583 C584 1.358 1_655 S
C583 C585 1.356 . S
C583 H615 0.930 . S
C584 N581 1.279 . S
C584 C583 1.358 1_455 S
C584 H587 0.930 . S
C585 C582 1.348 1_655 S
C585 C583 1.356 . S
H586 C580 0.930 . S
H587 C584 0.930 . S
O588 Li528 1.956 . S
O588 Li529 1.970 . S
O588 Li530 1.961 . S
O588 C532 1.325 . S
O589 Li528 1.970 . S
O589 Li529 1.956 . S
O589 Li531 1.961 . S
O589 C538 1.325 . S
O590 Li528 1.961 . S
O590 Li530 1.956 . S
O590 Li531 1.970 . S
O590 C560 1.325 . S
O591 Li529 1.961 . S
O591 Li530 1.970 . S
O591 Li531 1.956 . S
O591 C566 1.325 1_545 S
H592 C534 0.929 . S
H593 C535 0.930 . S
H594 C536 0.930 . S
H595 C537 0.930 . S
H596 C539 0.930 . S
H597 C541 0.929 . S
H598 C542 0.930 . S
H599 C543 0.930 . S
H600 C546 0.930 . S
H601 C549 0.929 . S
H602 C554 0.929 . S
H603 C555 0.930 . S
H604 C562 0.929 . S
H605 C563 0.930 . S
H606 C564 0.930 . S
H607 C565 0.930 . S
H608 C567 0.950 . S
H609 C568 0.930 . S
H610 C569 0.930 . S
H611 C570 0.930 . S
H612 C574 0.942 . S
H613 C576 0.930 . S
H614 C582 0.929 . S
H615 C583 0.930 . S
Li616 N633 1.990 . S
Li616 O676 1.956 . S
Li616 O677 1.970 . S
Li616 O678 1.961 . S
Li617 N641 1.990 . S
Li617 O676 1.970 . S
Li617 O677 1.956 . S
Li617 O679 1.961 . S
Li618 N663 1.990 . S
Li618 O676 1.961 . S
Li618 O678 1.956 . S
Li618 O679 1.970 . S
Li619 N669 1.990 . S
Li619 O677 1.961 . S
Li619 O678 1.970 . S
Li619 O679 1.956 . S
C620 C622 1.348 . S
C620 C623 1.356 . S
C620 O676 1.325 . S
N621 C624 1.314 . S
N621 C625 1.279 . S
C622 C620 1.348 . S
C622 C624 1.353 . S
C622 H680 0.929 . S
C623 C620 1.356 . S
C623 C625 1.358 . S
C623 H681 0.930 . S
C624 N621 1.314 . S
C624 C622 1.353 . S
C624 H682 0.930 . S
C625 N621 1.279 . S
C625 C623 1.358 . S
C625 H683 0.930 . S
C626 C629 1.348 . S
C626 C630 1.356 . S
C626 O677 1.325 . S
C627 N628 1.279 . S
C627 C630 1.358 . S
C627 H684 0.930 . S
N628 C627 1.279 . S
N628 C631 1.314 . S
C629 C626 1.348 . S
C629 C631 1.353 . S
C629 H685 0.929 . S
C630 C626 1.356 . S
C630 C627 1.358 . S
C630 H686 0.930 . S
C631 N628 1.314 . S
C631 C629 1.353 . S
C631 H687 0.930 . S
C632 N633 1.314 . S
C632 C637 1.353 . S
C632 H638 0.930 . S
N633 Li616 1.990 . S
N633 C632 1.314 . S
N633 C635 1.279 . S
C634 C635 1.358 . S
C634 C636 1.356 . S
C634 H688 0.930 . S
C635 N633 1.279 . S
C635 C634 1.358 . S
C635 H639 0.930 . S
C636 C634 1.356 . S
C636 C637 1.348 . S
C637 C632 1.353 . S
C637 C636 1.348 . S
C637 H689 0.929 . S
H638 C632 0.930 . S
H639 C635 0.930 . S
C640 N641 1.314 . S
C640 C642 1.353 . S
C640 H646 0.930 . S
N641 Li617 1.990 . S
N641 C640 1.314 . S
N641 C644 1.279 . S
C642 C640 1.353 . S
C642 C645 1.348 . S
C642 H690 0.929 . S
C643 C644 1.358 . S
C643 C645 1.356 . S
C643 H691 0.930 . S
C644 N641 1.279 . S
C644 C643 1.358 . S
C644 H647 0.930 . S
C645 C642 1.348 . S
C645 C643 1.356 . S
H646 C640 0.930 . S
H647 C644 0.930 . S
C648 C650 1.348 . S
C648 C651 1.356 . S
C648 O678 1.325 . S
N649 C652 1.314 . S
N649 C653 1.279 . S
C650 C648 1.348 . S
C650 C652 1.353 . S
C650 H692 0.929 . S
C651 C648 1.356 . S
C651 C653 1.358 . S
C651 H693 0.930 . S
C652 N649 1.314 . S
C652 C650 1.353 . S
C652 H694 0.930 . S
C653 N649 1.279 . S
C653 C651 1.358 . S
C653 H695 0.930 . S
C654 C655 1.348 . S
C654 C656 1.356 . S
C654 O679 1.325 . S
C655 C654 1.348 . S
C655 C657 1.353 . S
C655 H696 0.929 . S
C656 C654 1.356 . S
C656 C658 1.358 . S
C656 H697 0.930 . S
C657 C655 1.353 . S
C657 N659 1.314 . S
C657 H698 0.930 . S
C658 C656 1.358 . S
C658 N659 1.279 . S
C658 H699 0.930 . S
N659 C657 1.314 . S
N659 C658 1.279 . S
C660 C662 1.353 . S
C660 N663 1.314 . S
C660 H666 0.930 . S
C661 N663 1.279 . S
C661 C664 1.358 . S
C661 H667 0.930 . S
C662 C660 1.353 . S
C662 C665 1.348 . S
C662 H700 0.929 . S
N663 Li618 1.990 . S
N663 C660 1.314 . S
N663 C661 1.279 . S
C664 C661 1.358 . S
C664 C665 1.356 . S
C664 H701 0.930 . S
C665 C662 1.348 . S
C665 C664 1.356 . S
H666 C660 0.930 . S
H667 C661 0.930 . S
C668 N669 1.314 . S
C668 C670 1.353 . S
C668 H674 0.930 . S
N669 Li619 1.990 . S
N669 C668 1.314 . S
N669 C672 1.279 . S
C670 C668 1.353 . S
C670 C673 1.348 . S
C670 H702 0.929 . S
C671 C672 1.358 . S
C671 C673 1.356 . S
C671 H703 0.930 . S
C672 N669 1.279 . S
C672 C671 1.358 . S
C672 H675 0.930 . S
C673 C670 1.348 . S
C673 C671 1.356 . S
H674 C668 0.930 . S
H675 C672 0.930 . S
O676 Li616 1.956 . S
O676 Li617 1.970 . S
O676 Li618 1.961 . S
O676 C620 1.325 . S
O677 Li616 1.970 . S
O677 Li617 1.956 . S
O677 Li619 1.961 . S
O677 C626 1.325 . S
O678 Li616 1.961 . S
O678 Li618 1.956 . S
O678 Li619 1.970 . S
O678 C648 1.325 . S
O679 Li617 1.961 . S
O679 Li618 1.970 . S
O679 Li619 1.956 . S
O679 C654 1.325 . S
H680 C622 0.929 . S
H681 C623 0.930 . S
H682 C624 0.930 . S
H683 C625 0.930 . S
H684 C627 0.930 . S
H685 C629 0.929 . S
H686 C630 0.930 . S
H687 C631 0.930 . S
H688 C634 0.930 . S
H689 C637 0.929 . S
H690 C642 0.929 . S
H691 C643 0.930 . S
H692 C650 0.929 . S
H693 C651 0.930 . S
H694 C652 0.930 . S
H695 C653 0.930 . S
H696 C655 0.929 . S
H697 C656 0.930 . S
H698 C657 0.930 . S
H699 C658 0.930 . S
H700 C662 0.929 . S
H701 C664 0.930 . S
H702 C670 0.929 . S
H703 C671 0.930 . S
Li704 N721 1.990 . S
Li704 O764 1.956 . S
Li704 O765 1.970 . S
Li704 O766 1.961 . S
Li705 N729 1.990 1_565 S
Li705 O764 1.970 . S
Li705 O765 1.956 . S
Li705 O767 1.961 . S
Li706 N751 1.990 . S
Li706 O764 1.961 . S
Li706 O766 1.956 . S
Li706 O767 1.970 . S
Li707 N757 1.990 . S
Li707 O765 1.961 . S
Li707 O766 1.970 . S
Li707 O767 1.956 . S
C708 C710 1.348 . S
C708 C711 1.356 . S
C708 O764 1.325 . S
N709 C712 1.314 . S
N709 C713 1.279 . S
C710 C708 1.348 . S
C710 C712 1.353 . S
C710 H768 0.929 . S
C711 C708 1.356 . S
C711 C713 1.358 . S
C711 H769 0.930 . S
C712 N709 1.314 . S
C712 C710 1.353 . S
C712 H770 0.930 . S
C713 N709 1.279 . S
C713 C711 1.358 . S
C713 H771 0.930 . S
C714 C717 1.348 . S
C714 C718 1.356 . S
C714 O765 1.325 1_545 S
C715 N716 1.279 . S
C715 C718 1.358 . S
C715 H772 0.930 . S
N716 C715 1.279 . S
N716 C719 1.314 . S
C717 C714 1.348 . S
C717 C719 1.353 . S
C717 H773 0.929 . S
C718 C714 1.356 . S
C718 C715 1.358 . S
C718 H774 0.930 . S
C719 N716 1.314 . S
C719 C717 1.353 . S
C719 H775 0.930 . S
C720 N721 1.314 . S
C720 C725 1.353 . S
C720 H726 0.930 . S
N721 Li704 1.990 . S
N721 C720 1.314 . S
N721 C723 1.279 . S
C722 C723 1.358 . S
C722 C724 1.356 . S
C722 H776 0.930 . S
C723 N721 1.279 . S
C723 C722 1.358 . S
C723 H727 0.930 . S
C724 C722 1.356 . S
C724 C725 1.348 . S
C725 C720 1.353 . S
C725 C724 1.348 . S
C725 H777 0.929 . S
H726 C720 0.930 . S
H727 C723 0.930 . S
C728 N729 1.314 . S
C728 C730 1.353 . S
C728 H734 0.930 1_545 S
N729 Li705 1.990 1_545 S
N729 C728 1.314 . S
N729 C732 1.279 . S
C730 C728 1.353 . S
C730 C733 1.348 . S
C730 H778 0.929 . S
C731 C732 1.358 . S
C731 C733 1.356 . S
C731 H779 0.930 . S
C732 N729 1.279 . S
C732 C731 1.358 . S
C732 H735 0.930 . S
C733 C730 1.348 . S
C733 C731 1.356 . S
H734 C728 0.930 1_565 S
H735 C732 0.930 . S
C736 C738 1.348 . S
C736 C739 1.356 . S
C736 O766 1.325 . S
N737 C740 1.314 . S
N737 C741 1.279 . S
C738 C736 1.348 . S
C738 C740 1.353 . S
C738 H780 0.929 . S
C739 C736 1.356 . S
C739 C741 1.358 . S
C739 H781 0.930 . S
C740 N737 1.314 . S
C740 C738 1.353 . S
C740 H782 0.930 . S
C741 N737 1.279 . S
C741 C739 1.358 . S
C741 H783 0.930 . S
C742 C743 1.348 . S
C742 C744 1.356 . S
C742 O767 1.325 . S
C743 C742 1.348 . S
C743 C745 1.353 . S
C743 H784 0.929 . S
C744 C742 1.356 . S
C744 C746 1.358 . S
C744 H785 0.930 . S
C745 C743 1.353 . S
C745 N747 1.314 . S
C745 H786 0.930 . S
C746 C744 1.358 . S
C746 N747 1.279 . S
C746 H787 0.930 . S
N747 C745 1.314 . S
N747 C746 1.279 . S
C748 C750 1.353 . S
C748 N751 1.314 . S
C748 H754 0.930 . S
C749 N751 1.279 . S
C749 C752 1.358 . S
C749 H755 0.930 . S
C750 C748 1.353 . S
C750 C753 1.348 . S
C750 H788 0.929 . S
N751 Li706 1.990 . S
N751 C748 1.314 . S
N751 C749 1.279 . S
C752 C749 1.358 . S
C752 C753 1.356 . S
C752 H789 0.930 . S
C753 C750 1.348 . S
C753 C752 1.356 . S
H754 C748 0.930 . S
H755 C749 0.930 . S
C756 N757 1.314 . S
C756 C758 1.353 . S
C756 H762 0.930 . S
N757 Li707 1.990 . S
N757 C756 1.314 . S
N757 C760 1.279 . S
C758 C756 1.353 . S
C758 C761 1.348 . S
C758 H790 0.929 . S
C759 C760 1.358 . S
C759 C761 1.356 . S
C759 H791 0.930 . S
C760 N757 1.279 . S
C760 C759 1.358 . S
C760 H763 0.930 . S
C761 C758 1.348 . S
C761 C759 1.356 . S
H762 C756 0.930 . S
H763 C760 0.930 . S
O764 Li704 1.956 . S
O764 Li705 1.970 . S
O764 Li706 1.961 . S
O764 C708 1.325 . S
O765 Li704 1.970 . S
O765 Li705 1.956 . S
O765 Li707 1.961 . S
O765 C714 1.325 1_565 S
O766 Li704 1.961 . S
O766 Li706 1.956 . S
O766 Li707 1.970 . S
O766 C736 1.325 . S
O767 Li705 1.961 . S
O767 Li706 1.970 . S
O767 Li707 1.956 . S
O767 C742 1.325 . S
H768 C710 0.929 . S
H769 C711 0.930 . S
H770 C712 0.930 . S
H771 C713 0.930 . S
H772 C715 0.930 . S
H773 C717 0.929 . S
H774 C718 0.930 . S
H775 C719 0.930 . S
H776 C722 0.930 . S
H777 C725 0.929 . S
H778 C730 0.929 . S
H779 C731 0.930 . S
H780 C738 0.929 . S
H781 C739 0.930 . S
H782 C740 0.930 . S
H783 C741 0.930 . S
H784 C743 0.929 . S
H785 C744 0.930 . S
H786 C745 0.930 . S
H787 C746 0.930 . S
H788 C750 0.929 . S
H789 C752 0.930 . S
H790 C758 0.929 . S
H791 C759 0.930 . S
Li792 N809 1.990 . S
Li792 O852 1.956 . S
Li792 O853 1.970 . S
Li792 O854 1.961 . S
Li793 N817 1.990 . S
Li793 O852 1.970 . S
Li793 O853 1.956 . S
Li793 O855 1.961 . S
Li794 N839 1.990 . S
Li794 O852 1.961 . S
Li794 O854 1.956 . S
Li794 O855 1.970 . S
Li795 N845 1.990 . S
Li795 O853 1.961 . S
Li795 O854 1.970 . S
Li795 O855 1.956 . S
C796 C798 1.348 . S
C796 C799 1.356 . S
C796 O852 1.325 . S
N797 C800 1.314 . S
N797 C801 1.279 . S
C798 C796 1.348 . S
C798 C800 1.353 . S
C798 H856 0.929 . S
C799 C796 1.356 . S
C799 C801 1.358 . S
C799 H857 0.930 . S
C800 N797 1.314 . S
C800 C798 1.353 . S
C800 H858 0.930 . S
C801 N797 1.279 . S
C801 C799 1.358 . S
C801 H859 0.930 . S
C802 C805 1.348 . S
C802 C806 1.356 . S
C802 O853 1.325 . S
C803 N804 1.279 . S
C803 C806 1.358 . S
C803 H860 0.930 . S
N804 C803 1.279 . S
N804 C807 1.314 . S
C805 C802 1.348 . S
C805 C807 1.353 . S
C805 H861 0.929 . S
C806 C802 1.356 . S
C806 C803 1.358 . S
C806 H862 0.930 . S
C807 N804 1.314 . S
C807 C805 1.353 . S
C807 H863 0.930 . S
C808 N809 1.314 . S
C808 C813 1.353 . S
C808 H814 0.930 . S
N809 Li792 1.990 . S
N809 C808 1.314 . S
N809 C811 1.279 . S
C810 C811 1.358 . S
C810 C812 1.356 . S
C810 H864 0.930 . S
C811 N809 1.279 . S
C811 C810 1.358 . S
C811 H815 0.930 . S
C812 C810 1.356 . S
C812 C813 1.348 . S
C813 C808 1.353 . S
C813 C812 1.348 . S
C813 H865 0.929 . S
H814 C808 0.930 . S
H815 C811 0.930 . S
C816 N817 1.314 . S
C816 C818 1.353 . S
C816 H822 0.930 . S
N817 Li793 1.990 . S
N817 C816 1.314 . S
N817 C820 1.279 . S
C818 C816 1.353 . S
C818 C821 1.348 . S
C818 H866 0.929 . S
C819 C820 1.358 . S
C819 C821 1.356 . S
C819 H867 0.930 . S
C820 N817 1.279 . S
C820 C819 1.358 . S
C820 H823 0.930 . S
C821 C818 1.348 . S
C821 C819 1.356 . S
H822 C816 0.930 . S
H823 C820 0.930 . S
C824 C826 1.348 . S
C824 C827 1.356 . S
C824 O854 1.325 . S
N825 C828 1.314 . S
N825 C829 1.279 . S
C826 C824 1.348 . S
C826 C828 1.353 . S
C826 H868 0.929 . S
C827 C824 1.356 . S
C827 C829 1.358 . S
C827 H869 0.930 . S
C828 N825 1.314 . S
C828 C826 1.353 . S
C828 H870 0.930 . S
C829 N825 1.279 . S
C829 C827 1.358 . S
C829 H871 0.930 . S
C830 C831 1.348 . S
C830 C832 1.356 . S
C830 O855 1.325 . S
C831 C830 1.348 . S
C831 C833 1.353 . S
C831 H872 0.929 . S
C832 C830 1.356 . S
C832 C834 1.358 . S
C832 H873 0.930 . S
C833 C831 1.353 . S
C833 N835 1.314 . S
C833 H874 0.930 . S
C834 C832 1.358 . S
C834 N835 1.279 . S
C834 H875 0.930 . S
N835 C833 1.314 . S
N835 C834 1.279 . S
C836 C838 1.353 . S
C836 N839 1.314 . S
C836 H842 0.930 . S
C837 N839 1.279 . S
C837 C840 1.358 . S
C837 H843 0.930 . S
C838 C836 1.353 . S
C838 C841 1.348 . S
C838 H876 0.929 . S
N839 Li794 1.990 . S
N839 C836 1.314 . S
N839 C837 1.279 . S
C840 C837 1.358 . S
C840 C841 1.356 . S
C840 H877 0.930 . S
C841 C838 1.348 . S
C841 C840 1.356 . S
H842 C836 0.930 . S
H843 C837 0.930 . S
C844 N845 1.314 . S
C844 C846 1.353 . S
C844 H850 0.930 . S
N845 Li795 1.990 . S
N845 C844 1.314 . S
N845 C848 1.279 . S
C846 C844 1.353 . S
C846 C849 1.348 . S
C846 H878 0.929 . S
C847 C848 1.358 . S
C847 C849 1.356 . S
C847 H879 0.930 . S
C848 N845 1.279 . S
C848 C847 1.358 . S
C848 H851 0.930 . S
C849 C846 1.348 . S
C849 C847 1.356 . S
H850 C844 0.930 . S
H851 C848 0.930 . S
O852 Li792 1.956 . S
O852 Li793 1.970 . S
O852 Li794 1.961 . S
O852 C796 1.325 . S
O853 Li792 1.970 . S
O853 Li793 1.956 . S
O853 Li795 1.961 . S
O853 C802 1.325 . S
O854 Li792 1.961 . S
O854 Li794 1.956 . S
O854 Li795 1.970 . S
O854 C824 1.325 . S
O855 Li793 1.961 . S
O855 Li794 1.970 . S
O855 Li795 1.956 . S
O855 C830 1.325 . S
H856 C798 0.929 . S
H857 C799 0.930 . S
H858 C800 0.930 . S
H859 C801 0.930 . S
H860 C803 0.930 . S
H861 C805 0.929 . S
H862 C806 0.930 . S
H863 C807 0.930 . S
H864 C810 0.930 . S
H865 C813 0.929 . S
H866 C818 0.929 . S
H867 C819 0.930 . S
H868 C826 0.929 . S
H869 C827 0.930 . S
H870 C828 0.930 . S
H871 C829 0.930 . S
H872 C831 0.929 . S
H873 C832 0.930 . S
H874 C833 0.930 . S
H875 C834 0.930 . S
H876 C838 0.929 . S
H877 C840 0.930 . S
H878 C846 0.929 . S
H879 C847 0.930 . S
Li880 N897 1.990 . S
Li880 O940 1.956 . S
Li880 O941 1.970 . S
Li880 O942 1.961 . S
Li881 N905 1.990 . S
Li881 O940 1.970 . S
Li881 O941 1.956 . S
Li881 O943 1.961 . S
Li882 N927 1.990 . S
Li882 O940 1.961 . S
Li882 O942 1.956 . S
Li882 O943 1.970 . S
Li883 N933 1.990 1_545 S
Li883 O941 1.961 . S
Li883 O942 1.970 . S
Li883 O943 1.956 . S
C884 C886 1.348 . S
C884 C887 1.356 . S
C884 O940 1.325 . S
N885 C888 1.314 . S
N885 C889 1.279 . S
C886 C884 1.348 . S
C886 C888 1.353 . S
C886 H944 0.929 . S
C887 C884 1.356 . S
C887 C889 1.358 . S
C887 H945 0.930 . S
C888 N885 1.314 . S
C888 C886 1.353 . S
C888 H946 0.930 . S
C889 N885 1.279 . S
C889 C887 1.358 . S
C889 H947 0.930 . S
C890 C893 1.348 . S
C890 C894 1.356 . S
C890 O941 1.325 . S
C891 N892 1.279 . S
C891 C894 1.358 . S
C891 H948 0.930 . S
N892 C891 1.279 . S
N892 C895 1.314 . S
C893 C890 1.348 . S
C893 C895 1.353 . S
C893 H949 0.929 . S
C894 C890 1.356 . S
C894 C891 1.358 . S
C894 H950 0.930 . S
C895 N892 1.314 . S
C895 C893 1.353 . S
C895 H951 0.930 . S
C896 N897 1.314 . S
C896 C901 1.353 . S
C896 H902 0.930 . S
N897 Li880 1.990 . S
N897 C896 1.314 . S
N897 C899 1.279 . S
C898 C899 1.358 . S
C898 C900 1.356 . S
C898 H952 0.930 . S
C899 N897 1.279 . S
C899 C898 1.358 . S
C899 H903 0.930 . S
C900 C898 1.356 . S
C900 C901 1.348 . S
C901 C896 1.353 . S
C901 C900 1.348 . S
C901 H953 0.929 . S
H902 C896 0.930 . S
H903 C899 0.930 . S
C904 N905 1.314 . S
C904 C906 1.353 1_655 S
C904 H910 0.930 . S
N905 Li881 1.990 . S
N905 C904 1.314 . S
N905 C908 1.279 . S
C906 C904 1.353 1_455 S
C906 C909 1.348 . S
C906 H954 0.929 . S
C907 C908 1.358 . S
C907 C909 1.356 1_655 S
C907 H955 0.930 . S
C908 N905 1.279 . S
C908 C907 1.358 . S
C908 H911 0.930 . S
C909 C906 1.348 . S
C909 C907 1.356 1_455 S
H910 C904 0.930 . S
H911 C908 0.930 . S
C912 C914 1.348 . S
C912 C915 1.356 . S
C912 O942 1.325 . S
N913 C916 1.314 . S
N913 C917 1.279 . S
C914 C912 1.348 . S
C914 C916 1.353 . S
C914 H956 0.929 . S
C915 C912 1.356 . S
C915 C917 1.358 . S
C915 H957 0.930 . S
C916 N913 1.314 . S
C916 C914 1.353 . S
C916 H958 0.930 . S
C917 N913 1.279 . S
C917 C915 1.358 . S
C917 H959 0.930 . S
C918 C919 1.348 . S
C918 C920 1.356 . S
C918 O943 1.325 1_565 S
C919 C918 1.348 . S
C919 C921 1.353 . S
C919 H960 0.929 . S
C920 C918 1.356 . S
C920 C922 1.358 . S
C920 H961 0.930 . S
C921 C919 1.353 . S
C921 N923 1.314 . S
C921 H962 0.930 . S
C922 C920 1.358 . S
C922 N923 1.279 . S
C922 H963 0.930 . S
N923 C921 1.314 . S
N923 C922 1.279 . S
C924 C926 1.353 . S
C924 N927 1.314 . S
C924 H930 0.930 . S
C925 N927 1.279 . S
C925 C928 1.358 . S
C925 H931 0.930 . S
C926 C924 1.353 . S
C926 C929 1.348 . S
C926 H964 0.929 . S
N927 Li882 1.990 . S
N927 C924 1.314 . S
N927 C925 1.279 . S
C928 C925 1.358 . S
C928 C929 1.356 . S
C928 H965 0.930 . S
C929 C926 1.348 . S
C929 C928 1.356 . S
H930 C924 0.930 . S
H931 C925 0.930 . S
C932 N933 1.314 . S
C932 C934 1.353 . S
C932 H938 0.930 1_565 S
N933 Li883 1.990 1_565 S
N933 C932 1.314 . S
N933 C936 1.279 . S
C934 C932 1.353 . S
C934 C937 1.348 . S
C934 H966 0.929 . S
C935 C936 1.358 . S
C935 C937 1.356 . S
C935 H967 0.930 . S
C936 N933 1.279 . S
C936 C935 1.358 . S
C936 H939 0.930 . S
C937 C934 1.348 . S
C937 C935 1.356 . S
H938 C932 0.930 1_545 S
H939 C936 0.930 . S
O940 Li880 1.956 . S
O940 Li881 1.970 . S
O940 Li882 1.961 . S
O940 C884 1.325 . S
O941 Li880 1.970 . S
O941 Li881 1.956 . S
O941 Li883 1.961 . S
O941 C890 1.325 . S
O942 Li880 1.961 . S
O942 Li882 1.956 . S
O942 Li883 1.970 . S
O942 C912 1.325 . S
O943 Li881 1.961 . S
O943 Li882 1.970 . S
O943 Li883 1.956 . S
O943 C918 1.325 1_545 S
H944 C886 0.929 . S
H945 C887 0.930 . S
H946 C888 0.930 . S
H947 C889 0.930 . S
H948 C891 0.930 . S
H949 C893 0.929 . S
H950 C894 0.930 . S
H951 C895 0.930 . S
H952 C898 0.930 . S
H953 C901 0.929 . S
H954 C906 0.929 . S
H955 C907 0.930 . S
H956 C914 0.929 . S
H957 C915 0.930 . S
H958 C916 0.930 . S
H959 C917 0.930 . S
H960 C919 0.929 . S
H961 C920 0.930 . S
H962 C921 0.930 . S
H963 C922 0.930 . S
H964 C926 0.929 . S
H965 C928 0.930 . S
H966 C934 0.929 . S
H967 C935 0.930 . S
Li968 N985 1.990 . S
Li968 O1028 1.956 . S
Li968 O1029 1.970 . S
Li968 O1030 1.961 . S
Li969 N993 1.990 . S
Li969 O1028 1.970 . S
Li969 O1029 1.956 . S
Li969 O1031 1.961 . S
Li970 N1015 1.990 . S
Li970 O1028 1.961 . S
Li970 O1030 1.956 . S
Li970 O1031 1.970 . S
Li971 N1021 1.990 . S
Li971 O1029 1.961 . S
Li971 O1030 1.970 . S
Li971 O1031 1.956 . S
C972 C974 1.348 . S
C972 C975 1.356 . S
C972 O1028 1.325 . S
N973 C976 1.314 . S
N973 C977 1.279 . S
C974 C972 1.348 . S
C974 C976 1.353 . S
C974 H1032 0.929 . S
C975 C972 1.356 . S
C975 C977 1.358 . S
C975 H1033 0.930 . S
C976 N973 1.314 . S
C976 C974 1.353 . S
C976 H1034 0.930 . S
C977 N973 1.279 . S
C977 C975 1.358 . S
C977 H1035 0.930 . S
C978 C981 1.348 . S
C978 C982 1.356 . S
C978 O1029 1.325 . S
C979 N980 1.279 . S
C979 C982 1.358 . S
C979 H1036 0.930 . S
N980 C979 1.279 . S
N980 C983 1.314 . S
C981 C978 1.348 . S
C981 C983 1.353 . S
C981 H1037 0.929 . S
C982 C978 1.356 . S
C982 C979 1.358 . S
C982 H1038 0.930 . S
C983 N980 1.314 . S
C983 C981 1.353 . S
C983 H1039 0.930 . S
C984 N985 1.314 . S
C984 C989 1.353 . S
C984 H990 0.930 . S
N985 Li968 1.990 . S
N985 C984 1.314 . S
N985 C987 1.279 . S
C986 C987 1.358 . S
C986 C988 1.356 . S
C986 H1040 0.930 . S
C987 N985 1.279 . S
C987 C986 1.358 . S
C987 H991 0.930 . S
C988 C986 1.356 . S
C988 C989 1.348 . S
C989 C984 1.353 . S
C989 C988 1.348 . S
C989 H1041 0.929 . S
H990 C984 0.930 . S
H991 C987 0.930 . S
C992 N993 1.314 . S
C992 C994 1.353 . S
C992 H998 0.930 . S
N993 Li969 1.990 . S
N993 C992 1.314 . S
N993 C996 1.279 . S
C994 C992 1.353 . S
C994 C997 1.348 . S
C994 H1042 0.929 . S
C995 C996 1.358 . S
C995 C997 1.356 . S
C995 H1043 0.930 . S
C996 N993 1.279 . S
C996 C995 1.358 . S
C996 H999 0.930 . S
C997 C994 1.348 . S
C997 C995 1.356 . S
H998 C992 0.930 . S
H999 C996 0.930 . S
C1000 C1002 1.348 . S
C1000 C1003 1.356 . S
C1000 O1030 1.325 . S
N1001 C1004 1.314 . S
N1001 C1005 1.279 . S
C1002 C1000 1.348 . S
C1002 C1004 1.353 . S
C1002 H1044 0.929 . S
C1003 C1000 1.356 . S
C1003 C1005 1.358 . S
C1003 H1045 0.930 . S
C1004 N1001 1.314 . S
C1004 C1002 1.353 . S
C1004 H1046 0.930 . S
C1005 N1001 1.279 . S
C1005 C1003 1.358 . S
C1005 H1047 0.930 . S
C1006 C1007 1.348 . S
C1006 C1008 1.356 . S
C1006 O1031 1.325 . S
C1007 C1006 1.348 . S
C1007 C1009 1.353 . S
C1007 H1048 0.929 . S
C1008 C1006 1.356 . S
C1008 C1010 1.358 . S
C1008 H1049 0.930 . S
C1009 C1007 1.353 . S
C1009 N1011 1.314 . S
C1009 H1050 0.930 . S
C1010 C1008 1.358 . S
C1010 N1011 1.279 . S
C1010 H1051 0.930 . S
N1011 C1009 1.314 . S
N1011 C1010 1.279 . S
C1012 C1014 1.353 . S
C1012 N1015 1.314 . S
C1012 H1018 0.930 . S
C1013 N1015 1.279 . S
C1013 C1016 1.358 . S
C1013 H1019 0.930 . S
C1014 C1012 1.353 . S
C1014 C1017 1.348 . S
C1014 H1052 0.929 . S
N1015 Li970 1.990 . S
N1015 C1012 1.314 . S
N1015 C1013 1.279 . S
C1016 C1013 1.358 . S
C1016 C1017 1.356 . S
C1016 H1053 0.930 . S
C1017 C1014 1.348 . S
C1017 C1016 1.356 . S
H1018 C1012 0.930 . S
H1019 C1013 0.930 . S
C1020 N1021 1.314 . S
C1020 C1022 1.353 . S
C1020 H1026 0.930 . S
N1021 Li971 1.990 . S
N1021 C1020 1.314 . S
N1021 C1024 1.279 . S
C1022 C1020 1.353 . S
C1022 C1025 1.348 . S
C1022 H1054 0.929 . S
C1023 C1024 1.358 . S
C1023 C1025 1.356 . S
C1023 H1055 0.930 . S
C1024 N1021 1.279 . S
C1024 C1023 1.358 . S
C1024 H1027 0.930 . S
C1025 C1022 1.348 . S
C1025 C1023 1.356 . S
H1026 C1020 0.930 . S
H1027 C1024 0.930 . S
O1028 Li968 1.956 . S
O1028 Li969 1.970 . S
O1028 Li970 1.961 . S
O1028 C972 1.325 . S
O1029 Li968 1.970 . S
O1029 Li969 1.956 . S
O1029 Li971 1.961 . S
O1029 C978 1.325 . S
O1030 Li968 1.961 . S
O1030 Li970 1.956 . S
O1030 Li971 1.970 . S
O1030 C1000 1.325 . S
O1031 Li969 1.961 . S
O1031 Li970 1.970 . S
O1031 Li971 1.956 . S
O1031 C1006 1.325 . S
H1032 C974 0.929 . S
H1033 C975 0.930 . S
H1034 C976 0.930 . S
H1035 C977 0.930 . S
H1036 C979 0.930 . S
H1037 C981 0.929 . S
H1038 C982 0.930 . S
H1039 C983 0.930 . S
H1040 C986 0.930 . S
H1041 C989 0.929 . S
H1042 C994 0.929 . S
H1043 C995 0.930 . S
H1044 C1002 0.929 . S
H1045 C1003 0.930 . S
H1046 C1004 0.930 . S
H1047 C1005 0.930 . S
H1048 C1007 0.929 . S
H1049 C1008 0.930 . S
H1050 C1009 0.930 . S
H1051 C1010 0.930 . S
H1052 C1014 0.929 . S
H1053 C1016 0.930 . S
H1054 C1022 0.929 . S
H1055 C1023 0.930 . S
Li1056 N1073 1.990 . S
Li1056 O1116 1.956 . S
Li1056 O1117 1.970 . S
Li1056 O1118 1.961 . S
Li1057 N1081 1.990 . S
Li1057 O1116 1.970 . S
Li1057 O1117 1.956 . S
Li1057 O1119 1.961 . S
Li1058 N1103 1.990 1_545 S
Li1058 O1116 1.961 . S
Li1058 O1118 1.956 . S
Li1058 O1119 1.970 . S
Li1059 N1109 1.990 . S
Li1059 O1117 1.961 . S
Li1059 O1118 1.970 . S
Li1059 O1119 1.956 . S
C1060 C1062 1.348 . S
C1060 C1063 1.356 . S
C1060 O1116 1.325 . S
N1061 C1064 1.314 . S
N1061 C1065 1.279 . S
C1062 C1060 1.348 . S
C1062 C1064 1.353 . S
C1062 H1120 0.929 . S
C1063 C1060 1.356 . S
C1063 C1065 1.358 . S
C1063 H1121 0.930 . S
C1064 N1061 1.314 . S
C1064 C1062 1.353 . S
C1064 H1122 0.930 . S
C1065 N1061 1.279 . S
C1065 C1063 1.358 . S
C1065 H1123 0.930 . S
C1066 C1069 1.348 . S
C1066 C1070 1.356 . S
C1066 O1117 1.325 . S
C1067 N1068 1.279 . S
C1067 C1070 1.358 . S
C1067 H1124 0.930 . S
N1068 C1067 1.279 . S
N1068 C1071 1.314 . S
C1069 C1066 1.348 . S
C1069 C1071 1.353 . S
C1069 H1125 0.929 . S
C1070 C1066 1.356 . S
C1070 C1067 1.358 . S
C1070 H1126 0.930 . S
C1071 N1068 1.314 . S
C1071 C1069 1.353 . S
C1071 H1127 0.930 . S
C1072 N1073 1.314 . S
C1072 C1077 1.353 . S
C1072 H1078 0.930 . S
N1073 Li1056 1.990 . S
N1073 C1072 1.314 . S
N1073 C1075 1.279 . S
C1074 C1075 1.358 . S
C1074 C1076 1.356 . S
C1074 H1128 0.930 . S
C1075 N1073 1.279 . S
C1075 C1074 1.358 . S
C1075 H1079 0.930 . S
C1076 C1074 1.356 . S
C1076 C1077 1.348 . S
C1077 C1072 1.353 . S
C1077 C1076 1.348 . S
C1077 H1129 0.929 . S
H1078 C1072 0.930 . S
H1079 C1075 0.930 . S
C1080 N1081 1.314 . S
C1080 C1082 1.353 . S
C1080 H1086 0.930 . S
N1081 Li1057 1.990 . S
N1081 C1080 1.314 . S
N1081 C1084 1.279 . S
C1082 C1080 1.353 . S
C1082 C1085 1.348 . S
C1082 H1130 0.929 . S
C1083 C1084 1.358 . S
C1083 C1085 1.356 . S
C1083 H1131 0.930 . S
C1084 N1081 1.279 . S
C1084 C1083 1.358 . S
C1084 H1087 0.930 . S
C1085 C1082 1.348 . S
C1085 C1083 1.356 . S
H1086 C1080 0.930 . S
H1087 C1084 0.930 . S
C1088 C1090 1.348 . S
C1088 C1091 1.356 . S
C1088 O1118 1.325 1_565 S
N1089 C1092 1.314 . S
N1089 C1093 1.279 . S
C1090 C1088 1.348 . S
C1090 C1092 1.353 . S
C1090 H1132 0.929 . S
C1091 C1088 1.356 . S
C1091 C1093 1.358 . S
C1091 H1133 0.930 . S
C1092 N1089 1.314 . S
C1092 C1090 1.353 . S
C1092 H1134 0.930 . S
C1093 N1089 1.279 . S
C1093 C1091 1.358 . S
C1093 H1135 0.930 . S
C1094 C1095 1.348 . S
C1094 C1096 1.356 . S
C1094 O1119 1.325 . S
C1095 C1094 1.348 . S
C1095 C1097 1.353 . S
C1095 H1136 0.929 . S
C1096 C1094 1.356 . S
C1096 C1098 1.358 . S
C1096 H1137 0.930 . S
C1097 C1095 1.353 . S
C1097 N1099 1.314 . S
C1097 H1138 0.930 . S
C1098 C1096 1.358 . S
C1098 N1099 1.279 . S
C1098 H1139 0.930 . S
N1099 C1097 1.314 . S
N1099 C1098 1.279 . S
C1100 C1102 1.353 . S
C1100 N1103 1.314 . S
C1100 H1106 0.930 1_565 S
C1101 N1103 1.279 . S
C1101 C1104 1.358 . S
C1101 H1107 0.930 . S
C1102 C1100 1.353 . S
C1102 C1105 1.348 . S
C1102 H1140 0.929 . S
N1103 Li1058 1.990 1_565 S
N1103 C1100 1.314 . S
N1103 C1101 1.279 . S
C1104 C1101 1.358 . S
C1104 C1105 1.356 . S
C1104 H1141 0.930 . S
C1105 C1102 1.348 . S
C1105 C1104 1.356 . S
H1106 C1100 0.930 1_545 S
H1107 C1101 0.930 . S
C1108 N1109 1.314 . S
C1108 C1110 1.353 . S
C1108 H1114 0.930 . S
N1109 Li1059 1.990 . S
N1109 C1108 1.314 . S
N1109 C1112 1.279 . S
C1110 C1108 1.353 . S
C1110 C1113 1.348 . S
C1110 H1142 0.929 . S
C1111 C1112 1.358 . S
C1111 C1113 1.356 . S
C1111 H1143 0.930 . S
C1112 N1109 1.279 . S
C1112 C1111 1.358 . S
C1112 H1115 0.930 . S
C1113 C1110 1.348 . S
C1113 C1111 1.356 . S
H1114 C1108 0.930 . S
H1115 C1112 0.930 . S
O1116 Li1056 1.956 . S
O1116 Li1057 1.970 . S
O1116 Li1058 1.961 . S
O1116 C1060 1.325 . S
O1117 Li1056 1.970 . S
O1117 Li1057 1.956 . S
O1117 Li1059 1.961 . S
O1117 C1066 1.325 . S
O1118 Li1056 1.961 . S
O1118 Li1058 1.956 . S
O1118 Li1059 1.970 . S
O1118 C1088 1.325 1_545 S
O1119 Li1057 1.961 . S
O1119 Li1058 1.970 . S
O1119 Li1059 1.956 . S
O1119 C1094 1.325 . S
H1120 C1062 0.929 . S
H1121 C1063 0.930 . S
H1122 C1064 0.930 . S
H1123 C1065 0.930 . S
H1124 C1067 0.930 . S
H1125 C1069 0.929 . S
H1126 C1070 0.930 . S
H1127 C1071 0.930 . S
H1128 C1074 0.930 . S
H1129 C1077 0.929 . S
H1130 C1082 0.929 . S
H1131 C1083 0.930 . S
H1132 C1090 0.929 . S
H1133 C1091 0.930 . S
H1134 C1092 0.930 . S
H1135 C1093 0.930 . S
H1136 C1095 0.929 . S
H1137 C1096 0.930 . S
H1138 C1097 0.930 . S
H1139 C1098 0.930 . S
H1140 C1102 0.929 . S
H1141 C1104 0.930 . S
H1142 C1110 0.929 . S
H1143 C1111 0.930 . S
Li1144 N1161 1.990 . S
Li1144 O1204 1.956 . S
Li1144 O1205 1.970 . S
Li1144 O1206 1.961 . S
Li1145 N1169 1.990 . S
Li1145 O1204 1.970 . S
Li1145 O1205 1.956 . S
Li1145 O1207 1.961 . S
Li1146 N1191 1.990 . S
Li1146 O1204 1.961 . S
Li1146 O1206 1.956 . S
Li1146 O1207 1.970 . S
Li1147 N1197 1.990 . S
Li1147 O1205 1.961 . S
Li1147 O1206 1.970 . S
Li1147 O1207 1.956 . S
C1148 C1150 1.348 . S
C1148 C1151 1.356 . S
C1148 O1204 1.325 . S
N1149 C1152 1.314 . S
N1149 C1153 1.279 . S
C1150 C1148 1.348 . S
C1150 C1152 1.353 . S
C1150 H1208 0.929 . S
C1151 C1148 1.356 . S
C1151 C1153 1.358 . S
C1151 H1209 0.930 . S
C1152 N1149 1.314 . S
C1152 C1150 1.353 . S
C1152 H1210 0.930 . S
C1153 N1149 1.279 . S
C1153 C1151 1.358 . S
C1153 H1211 0.930 . S
C1154 C1157 1.348 . S
C1154 C1158 1.356 . S
C1154 O1205 1.325 . S
C1155 N1156 1.279 . S
C1155 C1158 1.358 . S
C1155 H1212 0.930 . S
N1156 C1155 1.279 . S
N1156 C1159 1.314 . S
C1157 C1154 1.348 . S
C1157 C1159 1.353 . S
C1157 H1213 0.929 . S
C1158 C1154 1.356 . S
C1158 C1155 1.358 . S
C1158 H1214 0.930 . S
C1159 N1156 1.314 . S
C1159 C1157 1.353 . S
C1159 H1215 0.930 . S
C1160 N1161 1.314 . S
C1160 C1165 1.353 . S
C1160 H1166 0.930 . S
N1161 Li1144 1.990 . S
N1161 C1160 1.314 . S
N1161 C1163 1.279 . S
C1162 C1163 1.358 . S
C1162 C1164 1.356 . S
C1162 H1216 0.930 . S
C1163 N1161 1.279 . S
C1163 C1162 1.358 . S
C1163 H1167 0.930 . S
C1164 C1162 1.356 . S
C1164 C1165 1.348 . S
C1165 C1160 1.353 . S
C1165 C1164 1.348 . S
C1165 H1217 0.929 . S
H1166 C1160 0.930 . S
H1167 C1163 0.930 . S
C1168 N1169 1.314 . S
C1168 C1170 1.353 . S
C1168 H1174 0.930 . S
N1169 Li1145 1.990 . S
N1169 C1168 1.314 . S
N1169 C1172 1.279 . S
C1170 C1168 1.353 . S
C1170 C1173 1.348 . S
C1170 H1218 0.929 . S
C1171 C1172 1.358 . S
C1171 C1173 1.356 . S
C1171 H1219 0.930 . S
C1172 N1169 1.279 . S
C1172 C1171 1.358 . S
C1172 H1175 0.930 . S
C1173 C1170 1.348 . S
C1173 C1171 1.356 . S
H1174 C1168 0.930 . S
H1175 C1172 0.930 . S
C1176 C1178 1.348 . S
C1176 C1179 1.356 . S
C1176 O1206 1.325 . S
N1177 C1180 1.314 . S
N1177 C1181 1.279 . S
C1178 C1176 1.348 . S
C1178 C1180 1.353 . S
C1178 H1220 0.929 . S
C1179 C1176 1.356 . S
C1179 C1181 1.358 . S
C1179 H1221 0.930 . S
C1180 N1177 1.314 . S
C1180 C1178 1.353 . S
C1180 H1222 0.930 . S
C1181 N1177 1.279 . S
C1181 C1179 1.358 . S
C1181 H1223 0.930 . S
C1182 C1183 1.348 . S
C1182 C1184 1.356 . S
C1182 O1207 1.325 . S
C1183 C1182 1.348 . S
C1183 C1185 1.353 . S
C1183 H1224 0.929 . S
C1184 C1182 1.356 . S
C1184 C1186 1.358 . S
C1184 H1225 0.930 . S
C1185 C1183 1.353 . S
C1185 N1187 1.314 . S
C1185 H1226 0.930 . S
C1186 C1184 1.358 . S
C1186 N1187 1.279 . S
C1186 H1227 0.930 . S
N1187 C1185 1.314 . S
N1187 C1186 1.279 . S
C1188 C1190 1.353 . S
C1188 N1191 1.314 . S
C1188 H1194 0.930 . S
C1189 N1191 1.279 . S
C1189 C1192 1.358 . S
C1189 H1195 0.930 . S
C1190 C1188 1.353 . S
C1190 C1193 1.348 . S
C1190 H1228 0.929 . S
N1191 Li1146 1.990 . S
N1191 C1188 1.314 . S
N1191 C1189 1.279 . S
C1192 C1189 1.358 . S
C1192 C1193 1.356 . S
C1192 H1229 0.930 . S
C1193 C1190 1.348 . S
C1193 C1192 1.356 . S
H1194 C1188 0.930 . S
H1195 C1189 0.930 . S
C1196 N1197 1.314 . S
C1196 C1198 1.353 . S
C1196 H1202 0.930 . S
N1197 Li1147 1.990 . S
N1197 C1196 1.314 . S
N1197 C1200 1.279 . S
C1198 C1196 1.353 . S
C1198 C1201 1.348 . S
C1198 H1230 0.929 . S
C1199 C1200 1.358 . S
C1199 C1201 1.356 . S
C1199 H1231 0.930 . S
C1200 N1197 1.279 . S
C1200 C1199 1.358 . S
C1200 H1203 0.930 . S
C1201 C1198 1.348 . S
C1201 C1199 1.356 . S
H1202 C1196 0.930 . S
H1203 C1200 0.930 . S
O1204 Li1144 1.956 . S
O1204 Li1145 1.970 . S
O1204 Li1146 1.961 . S
O1204 C1148 1.325 . S
O1205 Li1144 1.970 . S
O1205 Li1145 1.956 . S
O1205 Li1147 1.961 . S
O1205 C1154 1.325 . S
O1206 Li1144 1.961 . S
O1206 Li1146 1.956 . S
O1206 Li1147 1.970 . S
O1206 C1176 1.325 . S
O1207 Li1145 1.961 . S
O1207 Li1146 1.970 . S
O1207 Li1147 1.956 . S
O1207 C1182 1.325 . S
H1208 C1150 0.929 . S
H1209 C1151 0.930 . S
H1210 C1152 0.930 . S
H1211 C1153 0.930 . S
H1212 C1155 0.930 . S
H1213 C1157 0.929 . S
H1214 C1158 0.930 . S
H1215 C1159 0.930 . S
H1216 C1162 0.930 . S
H1217 C1165 0.929 . S
H1218 C1170 0.929 . S
H1219 C1171 0.930 . S
H1220 C1178 0.929 . S
H1221 C1179 0.930 . S
H1222 C1180 0.930 . S
H1223 C1181 0.930 . S
H1224 C1183 0.929 . S
H1225 C1184 0.930 . S
H1226 C1185 0.930 . S
H1227 C1186 0.930 . S
H1228 C1190 0.929 . S
H1229 C1192 0.930 . S
H1230 C1198 0.929 . S
H1231 C1199 0.930 . S
Li1232 N1249 1.990 1_565 S
Li1232 O1292 1.956 . S
Li1232 O1293 1.970 . S
Li1232 O1294 1.961 . S
Li1233 N1257 1.990 . S
Li1233 O1292 1.970 . S
Li1233 O1293 1.956 . S
Li1233 O1295 1.961 . S
Li1234 N1279 1.990 . S
Li1234 O1292 1.961 . S
Li1234 O1294 1.956 . S
Li1234 O1295 1.970 . S
Li1235 N1285 1.990 . S
Li1235 O1293 1.961 . S
Li1235 O1294 1.970 . S
Li1235 O1295 1.956 . S
C1236 C1238 1.348 . S
C1236 C1239 1.356 . S
C1236 O1292 1.325 1_545 S
N1237 C1240 1.314 . S
N1237 C1241 1.279 . S
C1238 C1236 1.348 . S
C1238 C1240 1.353 . S
C1238 H1296 0.929 . S
C1239 C1236 1.356 . S
C1239 C1241 1.358 . S
C1239 H1297 0.930 . S
C1240 N1237 1.314 . S
C1240 C1238 1.353 . S
C1240 H1298 0.930 . S
C1241 N1237 1.279 . S
C1241 C1239 1.358 . S
C1241 H1299 0.930 . S
C1242 C1245 1.348 . S
C1242 C1246 1.356 . S
C1242 O1293 1.325 . S
C1243 N1244 1.279 . S
C1243 C1246 1.358 . S
C1243 H1300 0.930 . S
N1244 C1243 1.279 . S
N1244 C1247 1.314 . S
C1245 C1242 1.348 . S
C1245 C1247 1.353 . S
C1245 H1301 0.929 . S
C1246 C1242 1.356 . S
C1246 C1243 1.358 . S
C1246 H1302 0.930 . S
C1247 N1244 1.314 . S
C1247 C1245 1.353 . S
C1247 H1303 0.930 . S
C1248 N1249 1.314 . S
C1248 C1253 1.353 . S
C1248 H1254 0.930 1_545 S
N1249 Li1232 1.990 1_545 S
N1249 C1248 1.314 . S
N1249 C1251 1.279 . S
C1250 C1251 1.358 . S
C1250 C1252 1.356 . S
C1250 H1304 0.930 . S
C1251 N1249 1.279 . S
C1251 C1250 1.358 . S
C1251 H1255 0.930 . S
C1252 C1250 1.356 . S
C1252 C1253 1.348 . S
C1253 C1248 1.353 . S
C1253 C1252 1.348 . S
C1253 H1305 0.929 . S
H1254 C1248 0.930 1_565 S
H1255 C1251 0.930 . S
C1256 N1257 1.314 . S
C1256 C1258 1.353 . S
C1256 H1262 0.930 . S
N1257 Li1233 1.990 . S
N1257 C1256 1.314 . S
N1257 C1260 1.279 . S
C1258 C1256 1.353 . S
C1258 C1261 1.348 . S
C1258 H1306 0.929 . S
C1259 C1260 1.358 . S
C1259 C1261 1.356 . S
C1259 H1307 0.930 . S
C1260 N1257 1.279 . S
C1260 C1259 1.358 . S
C1260 H1263 0.930 . S
C1261 C1258 1.348 . S
C1261 C1259 1.356 . S
H1262 C1256 0.930 . S
H1263 C1260 0.930 . S
C1264 C1266 1.348 . S
C1264 C1267 1.356 . S
C1264 O1294 1.325 . S
N1265 C1268 1.314 . S
N1265 C1269 1.279 . S
C1266 C1264 1.348 . S
C1266 C1268 1.353 . S
C1266 H1308 0.929 . S
C1267 C1264 1.356 . S
C1267 C1269 1.358 . S
C1267 H1309 0.930 . S
C1268 N1265 1.314 . S
C1268 C1266 1.353 . S
C1268 H1310 0.930 . S
C1269 N1265 1.279 . S
C1269 C1267 1.358 . S
C1269 H1311 0.930 . S
C1270 C1271 1.348 . S
C1270 C1272 1.356 . S
C1270 O1295 1.325 . S
C1271 C1270 1.348 . S
C1271 C1273 1.353 . S
C1271 H1312 0.929 . S
C1272 C1270 1.356 . S
C1272 C1274 1.358 . S
C1272 H1313 0.930 . S
C1273 C1271 1.353 . S
C1273 N1275 1.314 . S
C1273 H1314 0.930 . S
C1274 C1272 1.358 . S
C1274 N1275 1.279 . S
C1274 H1315 0.930 . S
N1275 C1273 1.314 . S
N1275 C1274 1.279 . S
C1276 C1278 1.353 1_655 S
C1276 N1279 1.314 . S
C1276 H1282 0.930 . S
C1277 N1279 1.279 . S
C1277 C1280 1.358 . S
C1277 H1283 0.930 . S
C1278 C1276 1.353 1_455 S
C1278 C1281 1.348 . S
C1278 H1316 0.929 . S
N1279 Li1234 1.990 . S
N1279 C1276 1.314 . S
N1279 C1277 1.279 . S
C1280 C1277 1.358 . S
C1280 C1281 1.356 1_655 S
C1280 H1317 0.930 . S
C1281 C1278 1.348 . S
C1281 C1280 1.356 1_455 S
H1282 C1276 0.930 . S
H1283 C1277 0.930 . S
C1284 N1285 1.314 . S
C1284 C1286 1.353 . S
C1284 H1290 0.930 . S
N1285 Li1235 1.990 . S
N1285 C1284 1.314 . S
N1285 C1288 1.279 . S
C1286 C1284 1.353 . S
C1286 C1289 1.348 . S
C1286 H1318 0.929 . S
C1287 C1288 1.358 . S
C1287 C1289 1.356 . S
C1287 H1319 0.930 . S
C1288 N1285 1.279 . S
C1288 C1287 1.358 . S
C1288 H1291 0.930 . S
C1289 C1286 1.348 . S
C1289 C1287 1.356 . S
H1290 C1284 0.930 . S
H1291 C1288 0.930 . S
O1292 Li1232 1.956 . S
O1292 Li1233 1.970 . S
O1292 Li1234 1.961 . S
O1292 C1236 1.325 1_565 S
O1293 Li1232 1.970 . S
O1293 Li1233 1.956 . S
O1293 Li1235 1.961 . S
O1293 C1242 1.325 . S
O1294 Li1232 1.961 . S
O1294 Li1234 1.956 . S
O1294 Li1235 1.970 . S
O1294 C1264 1.325 . S
O1295 Li1233 1.961 . S
O1295 Li1234 1.970 . S
O1295 Li1235 1.956 . S
O1295 C1270 1.325 . S
H1296 C1238 0.929 . S
H1297 C1239 0.930 . S
H1298 C1240 0.930 . S
H1299 C1241 0.930 . S
H1300 C1243 0.930 . S
H1301 C1245 0.929 . S
H1302 C1246 0.930 . S
H1303 C1247 0.930 . S
H1304 C1250 0.930 . S
H1305 C1253 0.929 . S
H1306 C1258 0.929 . S
H1307 C1259 0.930 . S
H1308 C1266 0.929 . S
H1309 C1267 0.930 . S
H1310 C1268 0.930 . S
H1311 C1269 0.930 . S
H1312 C1271 0.929 . S
H1313 C1272 0.930 . S
H1314 C1273 0.930 . S
H1315 C1274 0.930 . S
H1316 C1278 0.929 . S
H1317 C1280 0.930 . S
H1318 C1286 0.929 . S
H1319 C1287 0.930 . S
Li1320 N1337 1.990 . S
Li1320 O1380 1.956 . S
Li1320 O1381 1.970 . S
Li1320 O1382 1.961 . S
Li1321 N1345 1.990 . S
Li1321 O1380 1.970 . S
Li1321 O1381 1.956 . S
Li1321 O1383 1.961 . S
Li1322 N1367 1.990 . S
Li1322 O1380 1.961 . S
Li1322 O1382 1.956 . S
Li1322 O1383 1.970 . S
Li1323 N1373 1.990 . S
Li1323 O1381 1.961 . S
Li1323 O1382 1.970 . S
Li1323 O1383 1.956 . S
C1324 C1326 1.348 . S
C1324 C1327 1.356 . S
C1324 O1380 1.325 . S
N1325 C1328 1.314 . S
N1325 C1329 1.279 . S
C1326 C1324 1.348 . S
C1326 C1328 1.353 . S
C1326 H1384 0.929 . S
C1327 C1324 1.356 . S
C1327 C1329 1.358 . S
C1327 H1385 0.930 . S
C1328 N1325 1.314 . S
C1328 C1326 1.353 . S
C1328 H1386 0.930 . S
C1329 N1325 1.279 . S
C1329 C1327 1.358 . S
C1329 H1387 0.930 . S
C1330 C1333 1.348 . S
C1330 C1334 1.356 . S
C1330 O1381 1.325 . S
C1331 N1332 1.279 . S
C1331 C1334 1.358 . S
C1331 H1388 0.930 . S
N1332 C1331 1.279 . S
N1332 C1335 1.314 . S
C1333 C1330 1.348 . S
C1333 C1335 1.353 . S
C1333 H1389 0.929 . S
C1334 C1330 1.356 . S
C1334 C1331 1.358 . S
C1334 H1390 0.930 . S
C1335 N1332 1.314 . S
C1335 C1333 1.353 . S
C1335 H1391 0.930 . S
C1336 N1337 1.314 . S
C1336 C1341 1.353 . S
C1336 H1342 0.930 . S
N1337 Li1320 1.990 . S
N1337 C1336 1.314 . S
N1337 C1339 1.279 . S
C1338 C1339 1.358 . S
C1338 C1340 1.356 . S
C1338 H1392 0.930 . S
C1339 N1337 1.279 . S
C1339 C1338 1.358 . S
C1339 H1343 0.930 . S
C1340 C1338 1.356 . S
C1340 C1341 1.348 . S
C1341 C1336 1.353 . S
C1341 C1340 1.348 . S
C1341 H1393 0.929 . S
H1342 C1336 0.930 . S
H1343 C1339 0.930 . S
C1344 N1345 1.314 . S
C1344 C1346 1.353 . S
C1344 H1350 0.930 . S
N1345 Li1321 1.990 . S
N1345 C1344 1.314 . S
N1345 C1348 1.279 . S
C1346 C1344 1.353 . S
C1346 C1349 1.348 . S
C1346 H1394 0.929 . S
C1347 C1348 1.358 . S
C1347 C1349 1.356 . S
C1347 H1395 0.930 . S
C1348 N1345 1.279 . S
C1348 C1347 1.358 . S
C1348 H1351 0.930 . S
C1349 C1346 1.348 . S
C1349 C1347 1.356 . S
H1350 C1344 0.930 . S
H1351 C1348 0.930 . S
C1352 C1354 1.348 . S
C1352 C1355 1.356 . S
C1352 O1382 1.325 . S
N1353 C1356 1.314 . S
N1353 C1357 1.279 . S
C1354 C1352 1.348 . S
C1354 C1356 1.353 . S
C1354 H1396 0.929 . S
C1355 C1352 1.356 . S
C1355 C1357 1.358 . S
C1355 H1397 0.930 . S
C1356 N1353 1.314 . S
C1356 C1354 1.353 . S
C1356 H1398 0.930 . S
C1357 N1353 1.279 . S
C1357 C1355 1.358 . S
C1357 H1399 0.930 . S
C1358 C1359 1.348 . S
C1358 C1360 1.356 . S
C1358 O1383 1.325 . S
C1359 C1358 1.348 . S
C1359 C1361 1.353 . S
C1359 H1400 0.929 . S
C1360 C1358 1.356 . S
C1360 C1362 1.358 . S
C1360 H1401 0.930 . S
C1361 C1359 1.353 . S
C1361 N1363 1.314 . S
C1361 H1402 0.930 . S
C1362 C1360 1.358 . S
C1362 N1363 1.279 . S
C1362 H1403 0.930 . S
N1363 C1361 1.314 . S
N1363 C1362 1.279 . S
C1364 C1366 1.353 . S
C1364 N1367 1.314 . S
C1364 H1370 0.930 . S
C1365 N1367 1.279 . S
C1365 C1368 1.358 . S
C1365 H1371 0.930 . S
C1366 C1364 1.353 . S
C1366 C1369 1.348 . S
C1366 H1404 0.929 . S
N1367 Li1322 1.990 . S
N1367 C1364 1.314 . S
N1367 C1365 1.279 . S
C1368 C1365 1.358 . S
C1368 C1369 1.356 . S
C1368 H1405 0.930 . S
C1369 C1366 1.348 . S
C1369 C1368 1.356 . S
H1370 C1364 0.930 . S
H1371 C1365 0.930 . S
C1372 N1373 1.314 . S
C1372 C1374 1.353 . S
C1372 H1378 0.930 . S
N1373 Li1323 1.990 . S
N1373 C1372 1.314 . S
N1373 C1376 1.279 . S
C1374 C1372 1.353 . S
C1374 C1377 1.348 . S
C1374 H1406 0.929 . S
C1375 C1376 1.358 . S
C1375 C1377 1.356 . S
C1375 H1407 0.930 . S
C1376 N1373 1.279 . S
C1376 C1375 1.358 . S
C1376 H1379 0.930 . S
C1377 C1374 1.348 . S
C1377 C1375 1.356 . S
H1378 C1372 0.930 . S
H1379 C1376 0.930 . S
O1380 Li1320 1.956 . S
O1380 Li1321 1.970 . S
O1380 Li1322 1.961 . S
O1380 C1324 1.325 . S
O1381 Li1320 1.970 . S
O1381 Li1321 1.956 . S
O1381 Li1323 1.961 . S
O1381 C1330 1.325 . S
O1382 Li1320 1.961 . S
O1382 Li1322 1.956 . S
O1382 Li1323 1.970 . S
O1382 C1352 1.325 . S
O1383 Li1321 1.961 . S
O1383 Li1322 1.970 . S
O1383 Li1323 1.956 . S
O1383 C1358 1.325 . S
H1384 C1326 0.929 . S
H1385 C1327 0.930 . S
H1386 C1328 0.930 . S
H1387 C1329 0.930 . S
H1388 C1331 0.930 . S
H1389 C1333 0.929 . S
H1390 C1334 0.930 . S
H1391 C1335 0.930 . S
H1392 C1338 0.930 . S
H1393 C1341 0.929 . S
H1394 C1346 0.929 . S
H1395 C1347 0.930 . S
H1396 C1354 0.929 . S
H1397 C1355 0.930 . S
H1398 C1356 0.930 . S
H1399 C1357 0.930 . S
H1400 C1359 0.929 . S
H1401 C1360 0.930 . S
H1402 C1361 0.930 . S
H1403 C1362 0.930 . S
H1404 C1366 0.929 . S
H1405 C1368 0.930 . S
H1406 C1374 0.929 . S
H1407 C1375 0.930 . S
Li1408 N1425 1.990 . S
Li1408 O1468 1.956 . S
Li1408 O1469 1.970 . S
Li1408 O1470 1.961 . S
Li1409 N1433 1.990 . S
Li1409 O1468 1.970 . S
Li1409 O1469 1.956 . S
Li1409 O1471 1.961 . S
Li1410 N1455 1.990 . S
Li1410 O1468 1.961 . S
Li1410 O1470 1.956 . S
Li1410 O1471 1.970 . S
Li1411 N1461 1.990 . S
Li1411 O1469 1.961 . S
Li1411 O1470 1.970 . S
Li1411 O1471 1.956 . S
C1412 C1414 1.348 . S
C1412 C1415 1.356 . S
C1412 O1468 1.325 . S
N1413 C1416 1.314 . S
N1413 C1417 1.279 . S
C1414 C1412 1.348 . S
C1414 C1416 1.353 . S
C1414 H1472 0.929 . S
C1415 C1412 1.356 . S
C1415 C1417 1.358 . S
C1415 H1473 0.930 . S
C1416 N1413 1.314 . S
C1416 C1414 1.353 . S
C1416 H1474 0.930 . S
C1417 N1413 1.279 . S
C1417 C1415 1.358 . S
C1417 H1475 0.930 . S
C1418 C1421 1.348 . S
C1418 C1422 1.356 . S
C1418 O1469 1.325 . S
C1419 N1420 1.279 . S
C1419 C1422 1.358 . S
C1419 H1476 0.930 . S
N1420 C1419 1.279 . S
N1420 C1423 1.314 . S
C1421 C1418 1.348 . S
C1421 C1423 1.353 . S
C1421 H1477 0.929 . S
C1422 C1418 1.356 . S
C1422 C1419 1.358 . S
C1422 H1478 0.930 . S
C1423 N1420 1.314 . S
C1423 C1421 1.353 . S
C1423 H1479 0.930 . S
C1424 N1425 1.314 . S
C1424 C1429 1.353 . S
C1424 H1430 0.930 . S
N1425 Li1408 1.990 . S
N1425 C1424 1.314 . S
N1425 C1427 1.279 . S
C1426 C1427 1.358 . S
C1426 C1428 1.356 . S
C1426 H1480 0.930 . S
C1427 N1425 1.279 . S
C1427 C1426 1.358 . S
C1427 H1431 0.930 . S
C1428 C1426 1.356 . S
C1428 C1429 1.348 . S
C1429 C1424 1.353 . S
C1429 C1428 1.348 . S
C1429 H1481 0.929 . S
H1430 C1424 0.930 . S
H1431 C1427 0.930 . S
C1432 N1433 1.314 . S
C1432 C1434 1.353 . S
C1432 H1438 0.930 . S
N1433 Li1409 1.990 . S
N1433 C1432 1.314 . S
N1433 C1436 1.279 . S
C1434 C1432 1.353 . S
C1434 C1437 1.348 1_655 S
C1434 H1482 0.929 . S
C1435 C1436 1.358 1_455 S
C1435 C1437 1.356 . S
C1435 H1483 0.930 . S
C1436 N1433 1.279 . S
C1436 C1435 1.358 1_655 S
C1436 H1439 0.930 . S
C1437 C1434 1.348 1_455 S
C1437 C1435 1.356 . S
H1438 C1432 0.930 . S
H1439 C1436 0.930 . S
C1440 C1442 1.348 . S
C1440 C1443 1.356 . S
C1440 O1470 1.325 . S
N1441 C1444 1.314 . S
N1441 C1445 1.279 . S
C1442 C1440 1.348 . S
C1442 C1444 1.353 . S
C1442 H1484 0.929 . S
C1443 C1440 1.356 . S
C1443 C1445 1.358 . S
C1443 H1485 0.930 . S
C1444 N1441 1.314 . S
C1444 C1442 1.353 . S
C1444 H1486 0.930 . S
C1445 N1441 1.279 . S
C1445 C1443 1.358 . S
C1445 H1487 0.930 . S
C1446 C1447 1.348 . S
C1446 C1448 1.356 . S
C1446 O1471 1.325 . S
C1447 C1446 1.348 . S
C1447 C1449 1.353 . S
C1447 H1488 0.929 . S
C1448 C1446 1.356 . S
C1448 C1450 1.358 . S
C1448 H1489 0.930 . S
C1449 C1447 1.353 . S
C1449 N1451 1.314 . S
C1449 H1490 0.930 . S
C1450 C1448 1.358 . S
C1450 N1451 1.279 . S
C1450 H1491 0.930 . S
N1451 C1449 1.314 . S
N1451 C1450 1.279 . S
C1452 C1454 1.353 . S
C1452 N1455 1.314 . S
C1452 H1458 0.930 . S
C1453 N1455 1.279 . S
C1453 C1456 1.358 . S
C1453 H1459 0.930 . S
C1454 C1452 1.353 . S
C1454 C1457 1.348 . S
C1454 H1492 0.929 . S
N1455 Li1410 1.990 . S
N1455 C1452 1.314 . S
N1455 C1453 1.279 . S
C1456 C1453 1.358 . S
C1456 C1457 1.356 . S
C1456 H1493 0.930 . S
C1457 C1454 1.348 . S
C1457 C1456 1.356 . S
H1458 C1452 0.930 . S
H1459 C1453 0.930 . S
C1460 N1461 1.314 . S
C1460 C1462 1.353 . S
C1460 H1466 0.930 . S
N1461 Li1411 1.990 . S
N1461 C1460 1.314 . S
N1461 C1464 1.279 . S
C1462 C1460 1.353 . S
C1462 C1465 1.348 . S
C1462 H1494 0.929 . S
C1463 C1464 1.358 . S
C1463 C1465 1.356 . S
C1463 H1495 0.930 . S
C1464 N1461 1.279 . S
C1464 C1463 1.358 . S
C1464 H1467 0.930 . S
C1465 C1462 1.348 . S
C1465 C1463 1.356 . S
H1466 C1460 0.930 . S
H1467 C1464 0.930 . S
O1468 Li1408 1.956 . S
O1468 Li1409 1.970 . S
O1468 Li1410 1.961 . S
O1468 C1412 1.325 . S
O1469 Li1408 1.970 . S
O1469 Li1409 1.956 . S
O1469 Li1411 1.961 . S
O1469 C1418 1.325 . S
O1470 Li1408 1.961 . S
O1470 Li1410 1.956 . S
O1470 Li1411 1.970 . S
O1470 C1440 1.325 . S
O1471 Li1409 1.961 . S
O1471 Li1410 1.970 . S
O1471 Li1411 1.956 . S
O1471 C1446 1.325 . S
H1472 C1414 0.929 . S
H1473 C1415 0.930 . S
H1474 C1416 0.930 . S
H1475 C1417 0.930 . S
H1476 C1419 0.930 . S
H1477 C1421 0.929 . S
H1478 C1422 0.930 . S
H1479 C1423 0.930 . S
H1480 C1426 0.930 . S
H1481 C1429 0.929 . S
H1482 C1434 0.929 . S
H1483 C1435 0.930 . S
H1484 C1442 0.929 . S
H1485 C1443 0.930 . S
H1486 C1444 0.930 . S
H1487 C1445 0.930 . S
H1488 C1447 0.929 . S
H1489 C1448 0.930 . S
H1490 C1449 0.930 . S
H1491 C1450 0.930 . S
H1492 C1454 0.929 . S
H1493 C1456 0.930 . S
H1494 C1462 0.929 . S
H1495 C1463 0.930 . S
Li1496 N1513 1.990 . S
Li1496 O1556 1.956 . S
Li1496 O1557 1.970 . S
Li1496 O1558 1.961 . S
Li1497 N1521 1.990 . S
Li1497 O1556 1.970 . S
Li1497 O1557 1.956 . S
Li1497 O1559 1.961 . S
Li1498 N1543 1.990 . S
Li1498 O1556 1.961 . S
Li1498 O1558 1.956 . S
Li1498 O1559 1.970 . S
Li1499 N1549 1.990 . S
Li1499 O1557 1.961 . S
Li1499 O1558 1.970 . S
Li1499 O1559 1.956 . S
C1500 C1502 1.348 . S
C1500 C1503 1.356 . S
C1500 O1556 1.325 . S
N1501 C1504 1.314 . S
N1501 C1505 1.279 . S
C1502 C1500 1.348 . S
C1502 C1504 1.353 . S
C1502 H1560 0.929 . S
C1503 C1500 1.356 . S
C1503 C1505 1.358 . S
C1503 H1561 0.930 . S
C1504 N1501 1.314 . S
C1504 C1502 1.353 . S
C1504 H1562 0.930 . S
C1505 N1501 1.279 . S
C1505 C1503 1.358 . S
C1505 H1563 0.930 . S
C1506 C1509 1.348 . S
C1506 C1510 1.356 . S
C1506 O1557 1.325 . S
C1507 N1508 1.279 . S
C1507 C1510 1.358 . S
C1507 H1564 0.930 . S
N1508 C1507 1.279 . S
N1508 C1511 1.314 . S
C1509 C1506 1.348 . S
C1509 C1511 1.353 . S
C1509 H1565 0.929 . S
C1510 C1506 1.356 . S
C1510 C1507 1.358 . S
C1510 H1566 0.930 . S
C1511 N1508 1.314 . S
C1511 C1509 1.353 . S
C1511 H1567 0.930 . S
C1512 N1513 1.314 . S
C1512 C1517 1.353 . S
C1512 H1518 0.930 . S
N1513 Li1496 1.990 . S
N1513 C1512 1.314 . S
N1513 C1515 1.279 . S
C1514 C1515 1.358 . S
C1514 C1516 1.356 . S
C1514 H1568 0.930 . S
C1515 N1513 1.279 . S
C1515 C1514 1.358 . S
C1515 H1519 0.930 . S
C1516 C1514 1.356 . S
C1516 C1517 1.348 . S
C1517 C1512 1.353 . S
C1517 C1516 1.348 . S
C1517 H1569 0.929 . S
H1518 C1512 0.930 . S
H1519 C1515 0.930 . S
C1520 N1521 1.314 . S
C1520 C1522 1.353 . S
C1520 H1526 0.930 . S
N1521 Li1497 1.990 . S
N1521 C1520 1.314 . S
N1521 C1524 1.279 . S
C1522 C1520 1.353 . S
C1522 C1525 1.348 . S
C1522 H1570 0.929 . S
C1523 C1524 1.358 . S
C1523 C1525 1.356 . S
C1523 H1571 0.930 . S
C1524 N1521 1.279 . S
C1524 C1523 1.358 . S
C1524 H1527 0.930 . S
C1525 C1522 1.348 . S
C1525 C1523 1.356 . S
H1526 C1520 0.930 . S
H1527 C1524 0.930 . S
C1528 C1530 1.348 . S
C1528 C1531 1.356 . S
C1528 O1558 1.325 . S
N1529 C1532 1.314 . S
N1529 C1533 1.279 . S
C1530 C1528 1.348 . S
C1530 C1532 1.353 . S
C1530 H1572 0.929 . S
C1531 C1528 1.356 . S
C1531 C1533 1.358 . S
C1531 H1573 0.930 . S
C1532 N1529 1.314 . S
C1532 C1530 1.353 . S
C1532 H1574 0.930 . S
C1533 N1529 1.279 . S
C1533 C1531 1.358 . S
C1533 H1575 0.930 . S
C1534 C1535 1.348 . S
C1534 C1536 1.356 . S
C1534 O1559 1.325 . S
C1535 C1534 1.348 . S
C1535 C1537 1.353 . S
C1535 H1576 0.929 . S
C1536 C1534 1.356 . S
C1536 C1538 1.358 . S
C1536 H1577 0.930 . S
C1537 C1535 1.353 . S
C1537 N1539 1.314 . S
C1537 H1578 0.930 . S
C1538 C1536 1.358 . S
C1538 N1539 1.279 . S
C1538 H1579 0.930 . S
N1539 C1537 1.314 . S
N1539 C1538 1.279 . S
C1540 C1542 1.353 . S
C1540 N1543 1.314 . S
C1540 H1546 0.930 . S
C1541 N1543 1.279 . S
C1541 C1544 1.358 . S
C1541 H1547 0.930 . S
C1542 C1540 1.353 . S
C1542 C1545 1.348 . S
C1542 H1580 0.929 . S
N1543 Li1498 1.990 . S
N1543 C1540 1.314 . S
N1543 C1541 1.279 . S
C1544 C1541 1.358 . S
C1544 C1545 1.356 . S
C1544 H1581 0.930 . S
C1545 C1542 1.348 . S
C1545 C1544 1.356 . S
H1546 C1540 0.930 . S
H1547 C1541 0.930 . S
C1548 N1549 1.314 . S
C1548 C1550 1.353 . S
C1548 H1554 0.930 . S
N1549 Li1499 1.990 . S
N1549 C1548 1.314 . S
N1549 C1552 1.279 . S
C1550 C1548 1.353 . S
C1550 C1553 1.348 . S
C1550 H1582 0.929 . S
C1551 C1552 1.358 . S
C1551 C1553 1.356 . S
C1551 H1583 0.930 . S
C1552 N1549 1.279 . S
C1552 C1551 1.358 . S
C1552 H1555 0.930 . S
C1553 C1550 1.348 . S
C1553 C1551 1.356 . S
H1554 C1548 0.930 . S
H1555 C1552 0.930 . S
O1556 Li1496 1.956 . S
O1556 Li1497 1.970 . S
O1556 Li1498 1.961 . S
O1556 C1500 1.325 . S
O1557 Li1496 1.970 . S
O1557 Li1497 1.956 . S
O1557 Li1499 1.961 . S
O1557 C1506 1.325 . S
O1558 Li1496 1.961 . S
O1558 Li1498 1.956 . S
O1558 Li1499 1.970 . S
O1558 C1528 1.325 . S
O1559 Li1497 1.961 . S
O1559 Li1498 1.970 . S
O1559 Li1499 1.956 . S
O1559 C1534 1.325 . S
H1560 C1502 0.929 . S
H1561 C1503 0.930 . S
H1562 C1504 0.930 . S
H1563 C1505 0.930 . S
H1564 C1507 0.930 . S
H1565 C1509 0.929 . S
H1566 C1510 0.930 . S
H1567 C1511 0.930 . S
H1568 C1514 0.930 . S
H1569 C1517 0.929 . S
H1570 C1522 0.929 . S
H1571 C1523 0.930 . S
H1572 C1530 0.929 . S
H1573 C1531 0.930 . S
H1574 C1532 0.930 . S
H1575 C1533 0.930 . S
H1576 C1535 0.929 . S
H1577 C1536 0.930 . S
H1578 C1537 0.930 . S
H1579 C1538 0.930 . S
H1580 C1542 0.929 . S
H1581 C1544 0.930 . S
H1582 C1550 0.929 . S
H1583 C1551 0.930 . S
Li1584 N1601 1.990 . S
Li1584 O1644 1.956 . S
Li1584 O1645 1.970 . S
Li1584 O1646 1.961 . S
Li1585 N1609 1.990 . S
Li1585 O1644 1.970 . S
Li1585 O1645 1.956 . S
Li1585 O1647 1.961 . S
Li1586 N1631 1.990 . S
Li1586 O1644 1.961 . S
Li1586 O1646 1.956 . S
Li1586 O1647 1.970 . S
Li1587 N1637 1.990 . S
Li1587 O1645 1.961 . S
Li1587 O1646 1.970 . S
Li1587 O1647 1.956 . S
C1588 C1590 1.348 . S
C1588 C1591 1.356 . S
C1588 O1644 1.325 . S
N1589 C1592 1.314 . S
N1589 C1593 1.279 . S
C1590 C1588 1.348 . S
C1590 C1592 1.353 . S
C1590 H1648 0.929 . S
C1591 C1588 1.356 . S
C1591 C1593 1.358 . S
C1591 H1649 0.930 . S
C1592 N1589 1.314 . S
C1592 C1590 1.353 . S
C1592 H1650 0.930 . S
C1593 N1589 1.279 . S
C1593 C1591 1.358 . S
C1593 H1651 0.930 . S
C1594 C1597 1.348 . S
C1594 C1598 1.356 . S
C1594 O1645 1.325 . S
C1595 N1596 1.279 . S
C1595 C1598 1.358 . S
C1595 H1652 0.930 . S
N1596 C1595 1.279 . S
N1596 C1599 1.314 . S
C1597 C1594 1.348 . S
C1597 C1599 1.353 . S
C1597 H1653 0.929 . S
C1598 C1594 1.356 . S
C1598 C1595 1.358 . S
C1598 H1654 0.930 . S
C1599 N1596 1.314 . S
C1599 C1597 1.353 . S
C1599 H1655 0.930 . S
C1600 N1601 1.314 . S
C1600 C1605 1.353 . S
C1600 H1606 0.930 . S
N1601 Li1584 1.990 . S
N1601 C1600 1.314 . S
N1601 C1603 1.279 . S
C1602 C1603 1.358 . S
C1602 C1604 1.356 . S
C1602 H1656 0.930 . S
C1603 N1601 1.279 . S
C1603 C1602 1.358 . S
C1603 H1607 0.930 . S
C1604 C1602 1.356 . S
C1604 C1605 1.348 . S
C1605 C1600 1.353 . S
C1605 C1604 1.348 . S
C1605 H1657 0.929 . S
H1606 C1600 0.930 . S
H1607 C1603 0.930 . S
C1608 N1609 1.314 . S
C1608 C1610 1.353 . S
C1608 H1614 0.930 . S
N1609 Li1585 1.990 . S
N1609 C1608 1.314 . S
N1609 C1612 1.279 . S
C1610 C1608 1.353 . S
C1610 C1613 1.348 . S
C1610 H1658 0.929 . S
C1611 C1612 1.358 . S
C1611 C1613 1.356 . S
C1611 H1659 0.930 . S
C1612 N1609 1.279 . S
C1612 C1611 1.358 . S
C1612 H1615 0.930 . S
C1613 C1610 1.348 . S
C1613 C1611 1.356 . S
H1614 C1608 0.930 . S
H1615 C1612 0.930 . S
C1616 C1618 1.348 . S
C1616 C1619 1.356 . S
C1616 O1646 1.325 . S
N1617 C1620 1.314 . S
N1617 C1621 1.279 . S
C1618 C1616 1.348 . S
C1618 C1620 1.353 . S
C1618 H1660 0.929 . S
C1619 C1616 1.356 . S
C1619 C1621 1.358 . S
C1619 H1661 0.930 . S
C1620 N1617 1.314 . S
C1620 C1618 1.353 . S
C1620 H1662 0.930 . S
C1621 N1617 1.279 . S
C1621 C1619 1.358 . S
C1621 H1663 0.930 . S
C1622 C1623 1.348 . S
C1622 C1624 1.356 . S
C1622 O1647 1.325 . S
C1623 C1622 1.348 . S
C1623 C1625 1.353 . S
C1623 H1664 0.929 . S
C1624 C1622 1.356 . S
C1624 C1626 1.358 . S
C1624 H1665 0.930 . S
C1625 C1623 1.353 . S
C1625 N1627 1.314 . S
C1625 H1666 0.930 . S
C1626 C1624 1.358 . S
C1626 N1627 1.279 . S
C1626 H1667 0.930 . S
N1627 C1625 1.314 . S
N1627 C1626 1.279 . S
C1628 C1630 1.353 . S
C1628 N1631 1.314 . S
C1628 H1634 0.930 . S
C1629 N1631 1.279 . S
C1629 C1632 1.358 . S
C1629 H1635 0.930 . S
C1630 C1628 1.353 . S
C1630 C1633 1.348 . S
C1630 H1668 0.929 . S
N1631 Li1586 1.990 . S
N1631 C1628 1.314 . S
N1631 C1629 1.279 . S
C1632 C1629 1.358 . S
C1632 C1633 1.356 . S
C1632 H1669 0.930 . S
C1633 C1630 1.348 . S
C1633 C1632 1.356 . S
H1634 C1628 0.930 . S
H1635 C1629 0.930 . S
C1636 N1637 1.314 . S
C1636 C1638 1.353 . S
C1636 H1642 0.930 . S
N1637 Li1587 1.990 . S
N1637 C1636 1.314 . S
N1637 C1640 1.279 . S
C1638 C1636 1.353 . S
C1638 C1641 1.348 . S
C1638 H1670 0.929 . S
C1639 C1640 1.358 . S
C1639 C1641 1.356 . S
C1639 H1671 0.930 . S
C1640 N1637 1.279 . S
C1640 C1639 1.358 . S
C1640 H1643 0.930 . S
C1641 C1638 1.348 . S
C1641 C1639 1.356 . S
H1642 C1636 0.930 . S
H1643 C1640 0.930 . S
O1644 Li1584 1.956 . S
O1644 Li1585 1.970 . S
O1644 Li1586 1.961 . S
O1644 C1588 1.325 . S
O1645 Li1584 1.970 . S
O1645 Li1585 1.956 . S
O1645 Li1587 1.961 . S
O1645 C1594 1.325 . S
O1646 Li1584 1.961 . S
O1646 Li1586 1.956 . S
O1646 Li1587 1.970 . S
O1646 C1616 1.325 . S
O1647 Li1585 1.961 . S
O1647 Li1586 1.970 . S
O1647 Li1587 1.956 . S
O1647 C1622 1.325 . S
H1648 C1590 0.929 . S
H1649 C1591 0.930 . S
H1650 C1592 0.930 . S
H1651 C1593 0.930 . S
H1652 C1595 0.930 . S
H1653 C1597 0.929 . S
H1654 C1598 0.930 . S
H1655 C1599 0.930 . S
H1656 C1602 0.930 . S
H1657 C1605 0.929 . S
H1658 C1610 0.929 . S
H1659 C1611 0.930 . S
H1660 C1618 0.929 . S
H1661 C1619 0.930 . S
H1662 C1620 0.930 . S
H1663 C1621 0.930 . S
H1664 C1623 0.929 . S
H1665 C1624 0.930 . S
H1666 C1625 0.930 . S
H1667 C1626 0.930 . S
H1668 C1630 0.929 . S
H1669 C1632 0.930 . S
H1670 C1638 0.929 . S
H1671 C1639 0.930 . S
Li1672 N1689 1.990 . S
Li1672 O1732 1.956 . S
Li1672 O1733 1.970 . S
Li1672 O1734 1.961 . S
Li1673 N1697 1.990 . S
Li1673 O1732 1.970 . S
Li1673 O1733 1.956 . S
Li1673 O1735 1.961 . S
Li1674 N1719 1.990 . S
Li1674 O1732 1.961 . S
Li1674 O1734 1.956 . S
Li1674 O1735 1.970 . S
Li1675 N1725 1.990 . S
Li1675 O1733 1.961 . S
Li1675 O1734 1.970 . S
Li1675 O1735 1.956 . S
C1676 C1678 1.348 . S
C1676 C1679 1.356 . S
C1676 O1732 1.325 . S
N1677 C1680 1.314 . S
N1677 C1681 1.279 . S
C1678 C1676 1.348 . S
C1678 C1680 1.353 . S
C1678 H1736 0.929 . S
C1679 C1676 1.356 . S
C1679 C1681 1.358 . S
C1679 H1737 0.930 . S
C1680 N1677 1.314 . S
C1680 C1678 1.353 . S
C1680 H1738 0.930 . S
C1681 N1677 1.279 . S
C1681 C1679 1.358 . S
C1681 H1739 0.930 . S
C1682 C1685 1.348 . S
C1682 C1686 1.356 . S
C1682 O1733 1.325 . S
C1683 N1684 1.279 . S
C1683 C1686 1.358 . S
C1683 H1740 0.930 . S
N1684 C1683 1.279 . S
N1684 C1687 1.314 . S
C1685 C1682 1.348 . S
C1685 C1687 1.353 . S
C1685 H1741 0.929 . S
C1686 C1682 1.356 . S
C1686 C1683 1.358 . S
C1686 H1742 0.930 . S
C1687 N1684 1.314 . S
C1687 C1685 1.353 . S
C1687 H1743 0.930 . S
C1688 N1689 1.314 . S
C1688 C1693 1.353 . S
C1688 H1694 0.930 . S
N1689 Li1672 1.990 . S
N1689 C1688 1.314 . S
N1689 C1691 1.279 . S
C1690 C1691 1.358 . S
C1690 C1692 1.356 . S
C1690 H1744 0.930 . S
C1691 N1689 1.279 . S
C1691 C1690 1.358 . S
C1691 H1695 0.930 . S
C1692 C1690 1.356 . S
C1692 C1693 1.348 . S
C1693 C1688 1.353 . S
C1693 C1692 1.348 . S
C1693 H1745 0.929 . S
H1694 C1688 0.930 . S
H1695 C1691 0.930 . S
C1696 N1697 1.314 . S
C1696 C1698 1.353 . S
C1696 H1702 0.930 . S
N1697 Li1673 1.990 . S
N1697 C1696 1.314 . S
N1697 C1700 1.279 . S
C1698 C1696 1.353 . S
C1698 C1701 1.348 . S
C1698 H1746 0.929 . S
C1699 C1700 1.358 . S
C1699 C1701 1.356 . S
C1699 H1747 0.930 . S
C1700 N1697 1.279 . S
C1700 C1699 1.358 . S
C1700 H1703 0.930 . S
C1701 C1698 1.348 . S
C1701 C1699 1.356 . S
H1702 C1696 0.930 . S
H1703 C1700 0.930 . S
C1704 C1706 1.348 . S
C1704 C1707 1.356 . S
C1704 O1734 1.325 . S
N1705 C1708 1.314 . S
N1705 C1709 1.279 . S
C1706 C1704 1.348 . S
C1706 C1708 1.353 . S
C1706 H1748 0.929 . S
C1707 C1704 1.356 . S
C1707 C1709 1.358 . S
C1707 H1749 0.930 . S
C1708 N1705 1.314 . S
C1708 C1706 1.353 . S
C1708 H1750 0.930 . S
C1709 N1705 1.279 . S
C1709 C1707 1.358 . S
C1709 H1751 0.930 . S
C1710 C1711 1.348 . S
C1710 C1712 1.356 . S
C1710 O1735 1.325 . S
C1711 C1710 1.348 . S
C1711 C1713 1.353 . S
C1711 H1752 0.929 . S
C1712 C1710 1.356 . S
C1712 C1714 1.358 . S
C1712 H1753 0.930 . S
C1713 C1711 1.353 . S
C1713 N1715 1.314 . S
C1713 H1754 0.930 . S
C1714 C1712 1.358 . S
C1714 N1715 1.279 . S
C1714 H1755 0.930 . S
N1715 C1713 1.314 . S
N1715 C1714 1.279 . S
C1716 C1718 1.353 . S
C1716 N1719 1.314 . S
C1716 H1722 0.930 . S
C1717 N1719 1.279 . S
C1717 C1720 1.358 . S
C1717 H1723 0.930 . S
C1718 C1716 1.353 . S
C1718 C1721 1.348 . S
C1718 H1756 0.929 . S
N1719 Li1674 1.990 . S
N1719 C1716 1.314 . S
N1719 C1717 1.279 . S
C1720 C1717 1.358 . S
C1720 C1721 1.356 . S
C1720 H1757 0.930 . S
C1721 C1718 1.348 . S
C1721 C1720 1.356 . S
H1722 C1716 0.930 . S
H1723 C1717 0.930 . S
C1724 N1725 1.314 . S
C1724 C1726 1.353 . S
C1724 H1730 0.930 . S
N1725 Li1675 1.990 . S
N1725 C1724 1.314 . S
N1725 C1728 1.279 . S
C1726 C1724 1.353 . S
C1726 C1729 1.348 . S
C1726 H1758 0.929 . S
C1727 C1728 1.358 . S
C1727 C1729 1.356 . S
C1727 H1759 0.930 . S
C1728 N1725 1.279 . S
C1728 C1727 1.358 . S
C1728 H1731 0.930 . S
C1729 C1726 1.348 . S
C1729 C1727 1.356 . S
H1730 C1724 0.930 . S
H1731 C1728 0.930 . S
O1732 Li1672 1.956 . S
O1732 Li1673 1.970 . S
O1732 Li1674 1.961 . S
O1732 C1676 1.325 . S
O1733 Li1672 1.970 . S
O1733 Li1673 1.956 . S
O1733 Li1675 1.961 . S
O1733 C1682 1.325 . S
O1734 Li1672 1.961 . S
O1734 Li1674 1.956 . S
O1734 Li1675 1.970 . S
O1734 C1704 1.325 . S
O1735 Li1673 1.961 . S
O1735 Li1674 1.970 . S
O1735 Li1675 1.956 . S
O1735 C1710 1.325 . S
H1736 C1678 0.929 . S
H1737 C1679 0.930 . S
H1738 C1680 0.930 . S
H1739 C1681 0.930 . S
H1740 C1683 0.930 . S
H1741 C1685 0.929 . S
H1742 C1686 0.930 . S
H1743 C1687 0.930 . S
H1744 C1690 0.930 . S
H1745 C1693 0.929 . S
H1746 C1698 0.929 . S
H1747 C1699 0.930 . S
H1748 C1706 0.929 . S
H1749 C1707 0.930 . S
H1750 C1708 0.930 . S
H1751 C1709 0.930 . S
H1752 C1711 0.929 . S
H1753 C1712 0.930 . S
H1754 C1713 0.930 . S
H1755 C1714 0.930 . S
H1756 C1718 0.929 . S
H1757 C1720 0.930 . S
H1758 C1726 0.929 . S
H1759 C1727 0.930 . S
Li1760 N1777 1.990 . S
Li1760 O1820 1.956 . S
Li1760 O1821 1.970 . S
Li1760 O1822 1.961 . S
Li1761 N1785 1.990 . S
Li1761 O1820 1.970 . S
Li1761 O1821 1.956 . S
Li1761 O1823 1.961 . S
Li1762 N1807 1.990 . S
Li1762 O1820 1.961 . S
Li1762 O1822 1.956 . S
Li1762 O1823 1.970 . S
Li1763 N1813 1.990 . S
Li1763 O1821 1.961 . S
Li1763 O1822 1.970 . S
Li1763 O1823 1.956 . S
C1764 C1766 1.348 . S
C1764 C1767 1.356 . S
C1764 O1820 1.325 . S
N1765 C1768 1.314 . S
N1765 C1769 1.279 . S
C1766 C1764 1.348 . S
C1766 C1768 1.353 . S
C1766 H1824 0.929 . S
C1767 C1764 1.356 . S
C1767 C1769 1.358 . S
C1767 H1825 0.930 . S
C1768 N1765 1.314 . S
C1768 C1766 1.353 . S
C1768 H1826 0.930 . S
C1769 N1765 1.279 . S
C1769 C1767 1.358 . S
C1769 H1827 0.930 . S
C1770 C1773 1.348 . S
C1770 C1774 1.356 . S
C1770 O1821 1.325 . S
C1771 N1772 1.279 . S
C1771 C1774 1.358 . S
C1771 H1828 0.930 . S
N1772 C1771 1.279 . S
N1772 C1775 1.314 . S
C1773 C1770 1.348 . S
C1773 C1775 1.353 . S
C1773 H1829 0.929 . S
C1774 C1770 1.356 . S
C1774 C1771 1.358 . S
C1774 H1830 0.930 . S
C1775 N1772 1.314 . S
C1775 C1773 1.353 . S
C1775 H1831 0.930 . S
C1776 N1777 1.314 . S
C1776 C1781 1.353 . S
C1776 H1782 0.930 . S
N1777 Li1760 1.990 . S
N1777 C1776 1.314 . S
N1777 C1779 1.279 . S
C1778 C1779 1.358 . S
C1778 C1780 1.356 . S
C1778 H1832 0.930 . S
C1779 N1777 1.279 . S
C1779 C1778 1.358 . S
C1779 H1783 0.930 . S
C1780 C1778 1.356 . S
C1780 C1781 1.348 . S
C1781 C1776 1.353 . S
C1781 C1780 1.348 . S
C1781 H1833 0.929 . S
H1782 C1776 0.930 . S
H1783 C1779 0.930 . S
C1784 N1785 1.314 . S
C1784 C1786 1.353 . S
C1784 H1790 0.930 . S
N1785 Li1761 1.990 . S
N1785 C1784 1.314 . S
N1785 C1788 1.279 . S
C1786 C1784 1.353 . S
C1786 C1789 1.348 . S
C1786 H1834 0.929 . S
C1787 C1788 1.358 . S
C1787 C1789 1.356 . S
C1787 H1835 0.930 . S
C1788 N1785 1.279 . S
C1788 C1787 1.358 . S
C1788 H1791 0.930 . S
C1789 C1786 1.348 . S
C1789 C1787 1.356 . S
H1790 C1784 0.930 . S
H1791 C1788 0.930 . S
C1792 C1794 1.348 . S
C1792 C1795 1.356 . S
C1792 O1822 1.325 . S
N1793 C1796 1.314 . S
N1793 C1797 1.279 . S
C1794 C1792 1.348 . S
C1794 C1796 1.353 . S
C1794 H1836 0.929 . S
C1795 C1792 1.356 . S
C1795 C1797 1.358 . S
C1795 H1837 0.930 . S
C1796 N1793 1.314 . S
C1796 C1794 1.353 . S
C1796 H1838 0.930 . S
C1797 N1793 1.279 . S
C1797 C1795 1.358 . S
C1797 H1839 0.930 . S
C1798 C1799 1.348 . S
C1798 C1800 1.356 . S
C1798 O1823 1.325 . S
C1799 C1798 1.348 . S
C1799 C1801 1.353 . S
C1799 H1840 0.929 . S
C1800 C1798 1.356 . S
C1800 C1802 1.358 . S
C1800 H1841 0.930 . S
C1801 C1799 1.353 . S
C1801 N1803 1.314 . S
C1801 H1842 0.930 . S
C1802 C1800 1.358 . S
C1802 N1803 1.279 . S
C1802 H1843 0.930 . S
N1803 C1801 1.314 . S
N1803 C1802 1.279 . S
C1804 C1806 1.353 . S
C1804 N1807 1.314 . S
C1804 H1810 0.930 . S
C1805 N1807 1.279 . S
C1805 C1808 1.358 1_655 S
C1805 H1811 0.930 . S
C1806 C1804 1.353 . S
C1806 C1809 1.348 1_655 S
C1806 H1844 0.929 . S
N1807 Li1762 1.990 . S
N1807 C1804 1.314 . S
N1807 C1805 1.279 . S
C1808 C1805 1.358 1_455 S
C1808 C1809 1.356 . S
C1808 H1845 0.930 . S
C1809 C1806 1.348 1_455 S
C1809 C1808 1.356 . S
H1810 C1804 0.930 . S
H1811 C1805 0.930 . S
C1812 N1813 1.314 . S
C1812 C1814 1.353 . S
C1812 H1818 0.930 . S
N1813 Li1763 1.990 . S
N1813 C1812 1.314 . S
N1813 C1816 1.279 . S
C1814 C1812 1.353 . S
C1814 C1817 1.348 . S
C1814 H1846 0.929 . S
C1815 C1816 1.358 . S
C1815 C1817 1.356 . S
C1815 H1847 0.930 . S
C1816 N1813 1.279 . S
C1816 C1815 1.358 . S
C1816 H1819 0.930 . S
C1817 C1814 1.348 . S
C1817 C1815 1.356 . S
H1818 C1812 0.930 . S
H1819 C1816 0.930 . S
O1820 Li1760 1.956 . S
O1820 Li1761 1.970 . S
O1820 Li1762 1.961 . S
O1820 C1764 1.325 . S
O1821 Li1760 1.970 . S
O1821 Li1761 1.956 . S
O1821 Li1763 1.961 . S
O1821 C1770 1.325 . S
O1822 Li1760 1.961 . S
O1822 Li1762 1.956 . S
O1822 Li1763 1.970 . S
O1822 C1792 1.325 . S
O1823 Li1761 1.961 . S
O1823 Li1762 1.970 . S
O1823 Li1763 1.956 . S
O1823 C1798 1.325 . S
H1824 C1766 0.929 . S
H1825 C1767 0.930 . S
H1826 C1768 0.930 . S
H1827 C1769 0.930 . S
H1828 C1771 0.930 . S
H1829 C1773 0.929 . S
H1830 C1774 0.930 . S
H1831 C1775 0.930 . S
H1832 C1778 0.930 . S
H1833 C1781 0.929 . S
H1834 C1786 0.929 . S
H1835 C1787 0.930 . S
H1836 C1794 0.929 . S
H1837 C1795 0.930 . S
H1838 C1796 0.930 . S
H1839 C1797 0.930 . S
H1840 C1799 0.929 . S
H1841 C1800 0.930 . S
H1842 C1801 0.930 . S
H1843 C1802 0.930 . S
H1844 C1806 0.929 . S
H1845 C1808 0.930 . S
H1846 C1814 0.929 . S
H1847 C1815 0.930 . S
Li1848 N1865 1.990 . S
Li1848 O1908 1.956 . S
Li1848 O1909 1.970 . S
Li1848 O1910 1.961 . S
Li1849 N1873 1.990 . S
Li1849 O1908 1.970 . S
Li1849 O1909 1.956 . S
Li1849 O1911 1.961 . S
Li1850 N1895 1.990 . S
Li1850 O1908 1.961 . S
Li1850 O1910 1.956 . S
Li1850 O1911 1.970 . S
Li1851 N1901 1.990 . S
Li1851 O1909 1.961 . S
Li1851 O1910 1.970 . S
Li1851 O1911 1.956 . S
C1852 C1854 1.348 . S
C1852 C1855 1.356 . S
C1852 O1908 1.325 . S
N1853 C1856 1.314 . S
N1853 C1857 1.279 . S
C1854 C1852 1.348 . S
C1854 C1856 1.353 . S
C1854 H1912 0.929 . S
C1855 C1852 1.356 . S
C1855 C1857 1.358 . S
C1855 H1913 0.930 . S
C1856 N1853 1.314 . S
C1856 C1854 1.353 . S
C1856 H1914 0.930 . S
C1857 N1853 1.279 . S
C1857 C1855 1.358 . S
C1857 H1915 0.930 . S
C1858 C1861 1.348 . S
C1858 C1862 1.356 . S
C1858 O1909 1.325 . S
C1859 N1860 1.279 . S
C1859 C1862 1.358 . S
C1859 H1916 0.930 . S
N1860 C1859 1.279 . S
N1860 C1863 1.314 . S
C1861 C1858 1.348 . S
C1861 C1863 1.353 . S
C1861 H1917 0.929 . S
C1862 C1858 1.356 . S
C1862 C1859 1.358 . S
C1862 H1918 0.930 . S
C1863 N1860 1.314 . S
C1863 C1861 1.353 . S
C1863 H1919 0.930 . S
C1864 N1865 1.314 . S
C1864 C1869 1.353 . S
C1864 H1870 0.930 . S
N1865 Li1848 1.990 . S
N1865 C1864 1.314 . S
N1865 C1867 1.279 . S
C1866 C1867 1.358 . S
C1866 C1868 1.356 . S
C1866 H1920 0.930 . S
C1867 N1865 1.279 . S
C1867 C1866 1.358 . S
C1867 H1871 0.930 . S
C1868 C1866 1.356 . S
C1868 C1869 1.348 . S
C1869 C1864 1.353 . S
C1869 C1868 1.348 . S
C1869 H1921 0.929 . S
H1870 C1864 0.930 . S
H1871 C1867 0.930 . S
C1872 N1873 1.314 . S
C1872 C1874 1.353 . S
C1872 H1878 0.930 . S
N1873 Li1849 1.990 . S
N1873 C1872 1.314 . S
N1873 C1876 1.279 . S
C1874 C1872 1.353 . S
C1874 C1877 1.348 . S
C1874 H1922 0.929 . S
C1875 C1876 1.358 . S
C1875 C1877 1.356 . S
C1875 H1923 0.930 . S
C1876 N1873 1.279 . S
C1876 C1875 1.358 . S
C1876 H1879 0.930 . S
C1877 C1874 1.348 . S
C1877 C1875 1.356 . S
H1878 C1872 0.930 . S
H1879 C1876 0.930 . S
C1880 C1882 1.348 . S
C1880 C1883 1.356 . S
C1880 O1910 1.325 . S
N1881 C1884 1.314 . S
N1881 C1885 1.279 . S
C1882 C1880 1.348 . S
C1882 C1884 1.353 . S
C1882 H1924 0.929 . S
C1883 C1880 1.356 . S
C1883 C1885 1.358 . S
C1883 H1925 0.930 . S
C1884 N1881 1.314 . S
C1884 C1882 1.353 . S
C1884 H1926 0.930 . S
C1885 N1881 1.279 . S
C1885 C1883 1.358 . S
C1885 H1927 0.930 . S
C1886 C1887 1.348 . S
C1886 C1888 1.356 . S
C1886 O1911 1.325 . S
C1887 C1886 1.348 . S
C1887 C1889 1.353 . S
C1887 H1928 0.929 . S
C1888 C1886 1.356 . S
C1888 C1890 1.358 . S
C1888 H1929 0.930 . S
C1889 C1887 1.353 . S
C1889 N1891 1.314 . S
C1889 H1930 0.930 . S
C1890 C1888 1.358 . S
C1890 N1891 1.279 . S
C1890 H1931 0.930 . S
N1891 C1889 1.314 . S
N1891 C1890 1.279 . S
C1892 C1894 1.353 . S
C1892 N1895 1.314 . S
C1892 H1898 0.930 . S
C1893 N1895 1.279 . S
C1893 C1896 1.358 . S
C1893 H1899 0.930 . S
C1894 C1892 1.353 . S
C1894 C1897 1.348 . S
C1894 H1932 0.929 . S
N1895 Li1850 1.990 . S
N1895 C1892 1.314 . S
N1895 C1893 1.279 . S
C1896 C1893 1.358 . S
C1896 C1897 1.356 . S
C1896 H1933 0.930 . S
C1897 C1894 1.348 . S
C1897 C1896 1.356 . S
H1898 C1892 0.930 . S
H1899 C1893 0.930 . S
C1900 N1901 1.314 . S
C1900 C1902 1.353 . S
C1900 H1906 0.930 . S
N1901 Li1851 1.990 . S
N1901 C1900 1.314 . S
N1901 C1904 1.279 . S
C1902 C1900 1.353 . S
C1902 C1905 1.348 . S
C1902 H1934 0.929 . S
C1903 C1904 1.358 . S
C1903 C1905 1.356 . S
C1903 H1935 0.930 . S
C1904 N1901 1.279 . S
C1904 C1903 1.358 . S
C1904 H1907 0.930 . S
C1905 C1902 1.348 . S
C1905 C1903 1.356 . S
H1906 C1900 0.930 . S
H1907 C1904 0.930 . S
O1908 Li1848 1.956 . S
O1908 Li1849 1.970 . S
O1908 Li1850 1.961 . S
O1908 C1852 1.325 . S
O1909 Li1848 1.970 . S
O1909 Li1849 1.956 . S
O1909 Li1851 1.961 . S
O1909 C1858 1.325 . S
O1910 Li1848 1.961 . S
O1910 Li1850 1.956 . S
O1910 Li1851 1.970 . S
O1910 C1880 1.325 . S
O1911 Li1849 1.961 . S
O1911 Li1850 1.970 . S
O1911 Li1851 1.956 . S
O1911 C1886 1.325 . S
H1912 C1854 0.929 . S
H1913 C1855 0.930 . S
H1914 C1856 0.930 . S
H1915 C1857 0.930 . S
H1916 C1859 0.930 . S
H1917 C1861 0.929 . S
H1918 C1862 0.930 . S
H1919 C1863 0.930 . S
H1920 C1866 0.930 . S
H1921 C1869 0.929 . S
H1922 C1874 0.929 . S
H1923 C1875 0.930 . S
H1924 C1882 0.929 . S
H1925 C1883 0.930 . S
H1926 C1884 0.930 . S
H1927 C1885 0.930 . S
H1928 C1887 0.929 . S
H1929 C1888 0.930 . S
H1930 C1889 0.930 . S
H1931 C1890 0.930 . S
H1932 C1894 0.929 . S
H1933 C1896 0.930 . S
H1934 C1902 0.929 . S
H1935 C1903 0.930 . S
Li1936 N1953 1.990 . S
Li1936 O1996 1.956 . S
Li1936 O1997 1.970 . S
Li1936 O1998 1.961 . S
Li1937 N1961 1.990 . S
Li1937 O1996 1.970 . S
Li1937 O1997 1.956 . S
Li1937 O1999 1.961 . S
Li1938 N1983 1.990 . S
Li1938 O1996 1.961 . S
Li1938 O1998 1.956 . S
Li1938 O1999 1.970 . S
Li1939 N1989 1.990 . S
Li1939 O1997 1.961 . S
Li1939 O1998 1.970 . S
Li1939 O1999 1.956 . S
C1940 C1942 1.348 . S
C1940 C1943 1.356 . S
C1940 O1996 1.325 . S
N1941 C1944 1.314 . S
N1941 C1945 1.279 . S
C1942 C1940 1.348 . S
C1942 C1944 1.353 . S
C1942 H2000 0.929 . S
C1943 C1940 1.356 . S
C1943 C1945 1.358 . S
C1943 H2001 0.930 . S
C1944 N1941 1.314 . S
C1944 C1942 1.353 . S
C1944 H2002 0.930 . S
C1945 N1941 1.279 . S
C1945 C1943 1.358 . S
C1945 H2003 0.930 . S
C1946 C1949 1.348 . S
C1946 C1950 1.356 . S
C1946 O1997 1.325 . S
C1947 N1948 1.279 . S
C1947 C1950 1.358 . S
C1947 H2004 0.930 . S
N1948 C1947 1.279 . S
N1948 C1951 1.314 . S
C1949 C1946 1.348 . S
C1949 C1951 1.353 . S
C1949 H2005 0.929 . S
C1950 C1946 1.356 . S
C1950 C1947 1.358 . S
C1950 H2006 0.930 . S
C1951 N1948 1.314 . S
C1951 C1949 1.353 . S
C1951 H2007 0.930 . S
C1952 N1953 1.314 . S
C1952 C1957 1.353 . S
C1952 H1958 0.930 . S
N1953 Li1936 1.990 . S
N1953 C1952 1.314 . S
N1953 C1955 1.279 . S
C1954 C1955 1.358 . S
C1954 C1956 1.356 . S
C1954 H2008 0.930 . S
C1955 N1953 1.279 . S
C1955 C1954 1.358 . S
C1955 H1959 0.930 . S
C1956 C1954 1.356 . S
C1956 C1957 1.348 . S
C1957 C1952 1.353 . S
C1957 C1956 1.348 . S
C1957 H2009 0.929 . S
H1958 C1952 0.930 . S
H1959 C1955 0.930 . S
C1960 N1961 1.314 . S
C1960 C1962 1.353 . S
C1960 H1966 0.930 . S
N1961 Li1937 1.990 . S
N1961 C1960 1.314 . S
N1961 C1964 1.279 . S
C1962 C1960 1.353 . S
C1962 C1965 1.348 . S
C1962 H2010 0.929 . S
C1963 C1964 1.358 . S
C1963 C1965 1.356 . S
C1963 H2011 0.930 . S
C1964 N1961 1.279 . S
C1964 C1963 1.358 . S
C1964 H1967 0.930 . S
C1965 C1962 1.348 . S
C1965 C1963 1.356 . S
H1966 C1960 0.930 . S
H1967 C1964 0.930 . S
C1968 C1970 1.348 . S
C1968 C1971 1.356 . S
C1968 O1998 1.325 . S
N1969 C1972 1.314 . S
N1969 C1973 1.279 . S
C1970 C1968 1.348 . S
C1970 C1972 1.353 . S
C1970 H2012 0.929 . S
C1971 C1968 1.356 . S
C1971 C1973 1.358 . S
C1971 H2013 0.930 . S
C1972 N1969 1.314 . S
C1972 C1970 1.353 . S
C1972 H2014 0.930 . S
C1973 N1969 1.279 . S
C1973 C1971 1.358 . S
C1973 H2015 0.930 . S
C1974 C1975 1.348 . S
C1974 C1976 1.356 . S
C1974 O1999 1.325 . S
C1975 C1974 1.348 . S
C1975 C1977 1.353 . S
C1975 H2016 0.929 . S
C1976 C1974 1.356 . S
C1976 C1978 1.358 . S
C1976 H2017 0.930 . S
C1977 C1975 1.353 . S
C1977 N1979 1.314 . S
C1977 H2018 0.930 . S
C1978 C1976 1.358 . S
C1978 N1979 1.279 . S
C1978 H2019 0.930 . S
N1979 C1977 1.314 . S
N1979 C1978 1.279 . S
C1980 C1982 1.353 . S
C1980 N1983 1.314 . S
C1980 H1986 0.930 . S
C1981 N1983 1.279 . S
C1981 C1984 1.358 . S
C1981 H1987 0.930 . S
C1982 C1980 1.353 . S
C1982 C1985 1.348 . S
C1982 H2020 0.929 . S
N1983 Li1938 1.990 . S
N1983 C1980 1.314 . S
N1983 C1981 1.279 . S
C1984 C1981 1.358 . S
C1984 C1985 1.356 . S
C1984 H2021 0.930 . S
C1985 C1982 1.348 . S
C1985 C1984 1.356 . S
H1986 C1980 0.930 . S
H1987 C1981 0.930 . S
C1988 N1989 1.314 . S
C1988 C1990 1.353 . S
C1988 H1994 0.930 . S
N1989 Li1939 1.990 . S
N1989 C1988 1.314 . S
N1989 C1992 1.279 . S
C1990 C1988 1.353 . S
C1990 C1993 1.348 . S
C1990 H2022 0.929 . S
C1991 C1992 1.358 . S
C1991 C1993 1.356 . S
C1991 H2023 0.930 . S
C1992 N1989 1.279 . S
C1992 C1991 1.358 . S
C1992 H1995 0.930 . S
C1993 C1990 1.348 . S
C1993 C1991 1.356 . S
H1994 C1988 0.930 . S
H1995 C1992 0.930 . S
O1996 Li1936 1.956 . S
O1996 Li1937 1.970 . S
O1996 Li1938 1.961 . S
O1996 C1940 1.325 . S
O1997 Li1936 1.970 . S
O1997 Li1937 1.956 . S
O1997 Li1939 1.961 . S
O1997 C1946 1.325 . S
O1998 Li1936 1.961 . S
O1998 Li1938 1.956 . S
O1998 Li1939 1.970 . S
O1998 C1968 1.325 . S
O1999 Li1937 1.961 . S
O1999 Li1938 1.970 . S
O1999 Li1939 1.956 . S
O1999 C1974 1.325 . S
H2000 C1942 0.929 . S
H2001 C1943 0.930 . S
H2002 C1944 0.930 . S
H2003 C1945 0.930 . S
H2004 C1947 0.930 . S
H2005 C1949 0.929 . S
H2006 C1950 0.930 . S
H2007 C1951 0.930 . S
H2008 C1954 0.930 . S
H2009 C1957 0.929 . S
H2010 C1962 0.929 . S
H2011 C1963 0.930 . S
H2012 C1970 0.929 . S
H2013 C1971 0.930 . S
H2014 C1972 0.930 . S
H2015 C1973 0.930 . S
H2016 C1975 0.929 . S
H2017 C1976 0.930 . S
H2018 C1977 0.930 . S
H2019 C1978 0.930 . S
H2020 C1982 0.929 . S
H2021 C1984 0.930 . S
H2022 C1990 0.929 . S
H2023 C1991 0.930 . S
Li2024 N2041 1.990 . S
Li2024 O2084 1.956 . S
Li2024 O2085 1.970 . S
Li2024 O2086 1.961 . S
Li2025 N2049 1.990 . S
Li2025 O2084 1.970 . S
Li2025 O2085 1.956 . S
Li2025 O2087 1.961 . S
Li2026 N2071 1.990 . S
Li2026 O2084 1.961 . S
Li2026 O2086 1.956 . S
Li2026 O2087 1.970 . S
Li2027 N2077 1.990 . S
Li2027 O2085 1.961 . S
Li2027 O2086 1.970 . S
Li2027 O2087 1.956 . S
C2028 C2030 1.348 . S
C2028 C2031 1.356 . S
C2028 O2084 1.325 . S
N2029 C2032 1.314 . S
N2029 C2033 1.279 . S
C2030 C2028 1.348 . S
C2030 C2032 1.353 . S
C2030 H2088 0.929 . S
C2031 C2028 1.356 . S
C2031 C2033 1.358 . S
C2031 H2089 0.930 . S
C2032 N2029 1.314 . S
C2032 C2030 1.353 . S
C2032 H2090 0.930 . S
C2033 N2029 1.279 . S
C2033 C2031 1.358 . S
C2033 H2091 0.930 . S
C2034 C2037 1.348 . S
C2034 C2038 1.356 . S
C2034 O2085 1.325 . S
C2035 N2036 1.279 . S
C2035 C2038 1.358 . S
C2035 H2092 0.930 . S
N2036 C2035 1.279 . S
N2036 C2039 1.314 . S
C2037 C2034 1.348 . S
C2037 C2039 1.353 . S
C2037 H2093 0.929 . S
C2038 C2034 1.356 . S
C2038 C2035 1.358 . S
C2038 H2094 0.930 . S
C2039 N2036 1.314 . S
C2039 C2037 1.353 . S
C2039 H2095 0.930 . S
C2040 N2041 1.314 . S
C2040 C2045 1.353 . S
C2040 H2046 0.930 . S
N2041 Li2024 1.990 . S
N2041 C2040 1.314 . S
N2041 C2043 1.279 . S
C2042 C2043 1.358 . S
C2042 C2044 1.356 . S
C2042 H2096 0.930 . S
C2043 N2041 1.279 . S
C2043 C2042 1.358 . S
C2043 H2047 0.930 . S
C2044 C2042 1.356 . S
C2044 C2045 1.348 . S
C2045 C2040 1.353 . S
C2045 C2044 1.348 . S
C2045 H2097 0.929 . S
H2046 C2040 0.930 . S
H2047 C2043 0.930 . S
C2048 N2049 1.314 . S
C2048 C2050 1.353 . S
C2048 H2054 0.930 . S
N2049 Li2025 1.990 . S
N2049 C2048 1.314 . S
N2049 C2052 1.279 . S
C2050 C2048 1.353 . S
C2050 C2053 1.348 . S
C2050 H2098 0.929 . S
C2051 C2052 1.358 . S
C2051 C2053 1.356 . S
C2051 H2099 0.930 . S
C2052 N2049 1.279 . S
C2052 C2051 1.358 . S
C2052 H2055 0.930 . S
C2053 C2050 1.348 . S
C2053 C2051 1.356 . S
H2054 C2048 0.930 . S
H2055 C2052 0.930 . S
C2056 C2058 1.348 . S
C2056 C2059 1.356 . S
C2056 O2086 1.325 . S
N2057 C2060 1.314 . S
N2057 C2061 1.279 . S
C2058 C2056 1.348 . S
C2058 C2060 1.353 . S
C2058 H2100 0.929 . S
C2059 C2056 1.356 . S
C2059 C2061 1.358 . S
C2059 H2101 0.930 . S
C2060 N2057 1.314 . S
C2060 C2058 1.353 . S
C2060 H2102 0.930 . S
C2061 N2057 1.279 . S
C2061 C2059 1.358 . S
C2061 H2103 0.930 . S
C2062 C2063 1.348 . S
C2062 C2064 1.356 . S
C2062 O2087 1.325 . S
C2063 C2062 1.348 . S
C2063 C2065 1.353 . S
C2063 H2104 0.929 . S
C2064 C2062 1.356 . S
C2064 C2066 1.358 . S
C2064 H2105 0.930 . S
C2065 C2063 1.353 . S
C2065 N2067 1.314 . S
C2065 H2106 0.930 . S
C2066 C2064 1.358 . S
C2066 N2067 1.279 . S
C2066 H2107 0.930 . S
N2067 C2065 1.314 . S
N2067 C2066 1.279 . S
C2068 C2070 1.353 . S
C2068 N2071 1.314 . S
C2068 H2074 0.930 . S
C2069 N2071 1.279 . S
C2069 C2072 1.358 . S
C2069 H2075 0.930 . S
C2070 C2068 1.353 . S
C2070 C2073 1.348 . S
C2070 H2108 0.929 . S
N2071 Li2026 1.990 . S
N2071 C2068 1.314 . S
N2071 C2069 1.279 . S
C2072 C2069 1.358 . S
C2072 C2073 1.356 . S
C2072 H2109 0.930 . S
C2073 C2070 1.348 . S
C2073 C2072 1.356 . S
H2074 C2068 0.930 . S
H2075 C2069 0.930 . S
C2076 N2077 1.314 . S
C2076 C2078 1.353 . S
C2076 H2082 0.930 . S
N2077 Li2027 1.990 . S
N2077 C2076 1.314 . S
N2077 C2080 1.279 . S
C2078 C2076 1.353 . S
C2078 C2081 1.348 . S
C2078 H2110 0.929 . S
C2079 C2080 1.358 . S
C2079 C2081 1.356 . S
C2079 H2111 0.930 . S
C2080 N2077 1.279 . S
C2080 C2079 1.358 . S
C2080 H2083 0.930 . S
C2081 C2078 1.348 . S
C2081 C2079 1.356 . S
H2082 C2076 0.930 . S
H2083 C2080 0.930 . S
O2084 Li2024 1.956 . S
O2084 Li2025 1.970 . S
O2084 Li2026 1.961 . S
O2084 C2028 1.325 . S
O2085 Li2024 1.970 . S
O2085 Li2025 1.956 . S
O2085 Li2027 1.961 . S
O2085 C2034 1.325 . S
O2086 Li2024 1.961 . S
O2086 Li2026 1.956 . S
O2086 Li2027 1.970 . S
O2086 C2056 1.325 . S
O2087 Li2025 1.961 . S
O2087 Li2026 1.970 . S
O2087 Li2027 1.956 . S
O2087 C2062 1.325 . S
H2088 C2030 0.929 . S
H2089 C2031 0.930 . S
H2090 C2032 0.930 . S
H2091 C2033 0.930 . S
H2092 C2035 0.930 . S
H2093 C2037 0.929 . S
H2094 C2038 0.930 . S
H2095 C2039 0.930 . S
H2096 C2042 0.930 . S
H2097 C2045 0.929 . S
H2098 C2050 0.929 . S
H2099 C2051 0.930 . S
H2100 C2058 0.929 . S
H2101 C2059 0.930 . S
H2102 C2060 0.930 . S
H2103 C2061 0.930 . S
H2104 C2063 0.929 . S
H2105 C2064 0.930 . S
H2106 C2065 0.930 . S
H2107 C2066 0.930 . S
H2108 C2070 0.929 . S
H2109 C2072 0.930 . S
H2110 C2078 0.929 . S
H2111 C2079 0.930 . S
Li2112 N2129 1.990 . S
Li2112 O2172 1.956 . S
Li2112 O2173 1.970 . S
Li2112 O2174 1.961 . S
Li2113 N2137 1.990 . S
Li2113 O2172 1.970 . S
Li2113 O2173 1.956 . S
Li2113 O2175 1.961 . S
Li2114 N2159 1.990 . S
Li2114 O2172 1.961 . S
Li2114 O2174 1.956 . S
Li2114 O2175 1.970 . S
Li2115 N2165 1.990 . S
Li2115 O2173 1.961 . S
Li2115 O2174 1.970 . S
Li2115 O2175 1.956 . S
C2116 C2118 1.348 . S
C2116 C2119 1.356 . S
C2116 O2172 1.325 . S
N2117 C2120 1.314 . S
N2117 C2121 1.279 . S
C2118 C2116 1.348 . S
C2118 C2120 1.353 . S
C2118 H2176 0.929 . S
C2119 C2116 1.356 . S
C2119 C2121 1.358 . S
C2119 H2177 0.930 . S
C2120 N2117 1.314 . S
C2120 C2118 1.353 . S
C2120 H2178 0.930 . S
C2121 N2117 1.279 . S
C2121 C2119 1.358 . S
C2121 H2179 0.930 . S
C2122 C2125 1.348 . S
C2122 C2126 1.356 . S
C2122 O2173 1.325 . S
C2123 N2124 1.279 . S
C2123 C2126 1.358 . S
C2123 H2180 0.930 . S
N2124 C2123 1.279 . S
N2124 C2127 1.314 . S
C2125 C2122 1.348 . S
C2125 C2127 1.353 . S
C2125 H2181 0.929 . S
C2126 C2122 1.356 . S
C2126 C2123 1.358 . S
C2126 H2182 0.930 . S
C2127 N2124 1.314 . S
C2127 C2125 1.353 . S
C2127 H2183 0.930 . S
C2128 N2129 1.314 . S
C2128 C2133 1.353 . S
C2128 H2134 0.930 . S
N2129 Li2112 1.990 . S
N2129 C2128 1.314 . S
N2129 C2131 1.279 . S
C2130 C2131 1.358 . S
C2130 C2132 1.356 . S
C2130 H2184 0.930 . S
C2131 N2129 1.279 . S
C2131 C2130 1.358 . S
C2131 H2135 0.930 . S
C2132 C2130 1.356 . S
C2132 C2133 1.348 . S
C2133 C2128 1.353 . S
C2133 C2132 1.348 . S
C2133 H2185 0.929 . S
H2134 C2128 0.930 . S
H2135 C2131 0.930 . S
C2136 N2137 1.314 . S
C2136 C2138 1.353 . S
C2136 H2142 0.930 . S
N2137 Li2113 1.990 . S
N2137 C2136 1.314 . S
N2137 C2140 1.279 . S
C2138 C2136 1.353 . S
C2138 C2141 1.348 . S
C2138 H2186 0.929 . S
C2139 C2140 1.358 . S
C2139 C2141 1.356 . S
C2139 H2187 0.930 . S
C2140 N2137 1.279 . S
C2140 C2139 1.358 . S
C2140 H2143 0.930 . S
C2141 C2138 1.348 . S
C2141 C2139 1.356 . S
H2142 C2136 0.930 . S
H2143 C2140 0.930 . S
C2144 C2146 1.348 . S
C2144 C2147 1.356 . S
C2144 O2174 1.325 . S
N2145 C2148 1.314 . S
N2145 C2149 1.279 . S
C2146 C2144 1.348 . S
C2146 C2148 1.353 . S
C2146 H2188 0.929 . S
C2147 C2144 1.356 . S
C2147 C2149 1.358 . S
C2147 H2189 0.930 . S
C2148 N2145 1.314 . S
C2148 C2146 1.353 . S
C2148 H2190 0.930 . S
C2149 N2145 1.279 . S
C2149 C2147 1.358 . S
C2149 H2191 0.930 . S
C2150 C2151 1.348 . S
C2150 C2152 1.356 . S
C2150 O2175 1.325 . S
C2151 C2150 1.348 . S
C2151 C2153 1.353 . S
C2151 H2192 0.929 . S
C2152 C2150 1.356 . S
C2152 C2154 1.358 . S
C2152 H2193 0.930 . S
C2153 C2151 1.353 . S
C2153 N2155 1.314 . S
C2153 H2194 0.930 . S
C2154 C2152 1.358 . S
C2154 N2155 1.279 . S
C2154 H2195 0.930 . S
N2155 C2153 1.314 . S
N2155 C2154 1.279 . S
C2156 C2158 1.353 . S
C2156 N2159 1.314 . S
C2156 H2162 0.930 . S
C2157 N2159 1.279 . S
C2157 C2160 1.358 . S
C2157 H2163 0.930 . S
C2158 C2156 1.353 . S
C2158 C2161 1.348 . S
C2158 H2196 0.929 . S
N2159 Li2114 1.990 . S
N2159 C2156 1.314 . S
N2159 C2157 1.279 . S
C2160 C2157 1.358 . S
C2160 C2161 1.356 . S
C2160 H2197 0.930 . S
C2161 C2158 1.348 . S
C2161 C2160 1.356 . S
H2162 C2156 0.930 . S
H2163 C2157 0.930 . S
C2164 N2165 1.314 . S
C2164 C2166 1.353 1_455 S
C2164 H2170 0.930 . S
N2165 Li2115 1.990 . S
N2165 C2164 1.314 . S
N2165 C2168 1.279 . S
C2166 C2164 1.353 1_655 S
C2166 C2169 1.348 . S
C2166 H2198 0.929 . S
C2167 C2168 1.358 . S
C2167 C2169 1.356 1_455 S
C2167 H2199 0.930 . S
C2168 N2165 1.279 . S
C2168 C2167 1.358 . S
C2168 H2171 0.930 . S
C2169 C2166 1.348 . S
C2169 C2167 1.356 1_655 S
H2170 C2164 0.930 . S
H2171 C2168 0.930 . S
O2172 Li2112 1.956 . S
O2172 Li2113 1.970 . S
O2172 Li2114 1.961 . S
O2172 C2116 1.325 . S
O2173 Li2112 1.970 . S
O2173 Li2113 1.956 . S
O2173 Li2115 1.961 . S
O2173 C2122 1.325 . S
O2174 Li2112 1.961 . S
O2174 Li2114 1.956 . S
O2174 Li2115 1.970 . S
O2174 C2144 1.325 . S
O2175 Li2113 1.961 . S
O2175 Li2114 1.970 . S
O2175 Li2115 1.956 . S
O2175 C2150 1.325 . S
H2176 C2118 0.929 . S
H2177 C2119 0.930 . S
H2178 C2120 0.930 . S
H2179 C2121 0.930 . S
H2180 C2123 0.930 . S
H2181 C2125 0.929 . S
H2182 C2126 0.930 . S
H2183 C2127 0.930 . S
H2184 C2130 0.930 . S
H2185 C2133 0.929 . S
H2186 C2138 0.929 . S
H2187 C2139 0.930 . S
H2188 C2146 0.929 . S
H2189 C2147 0.930 . S
H2190 C2148 0.930 . S
H2191 C2149 0.930 . S
H2192 C2151 0.929 . S
H2193 C2152 0.930 . S
H2194 C2153 0.930 . S
H2195 C2154 0.930 . S
H2196 C2158 0.929 . S
H2197 C2160 0.930 . S
H2198 C2166 0.929 . S
H2199 C2167 0.930 . S
Li2200 N2217 1.990 . S
Li2200 O2260 1.956 . S
Li2200 O2261 1.970 . S
Li2200 O2262 1.961 . S
Li2201 N2225 1.990 . S
Li2201 O2260 1.970 . S
Li2201 O2261 1.956 . S
Li2201 O2263 1.961 . S
Li2202 N2247 1.990 . S
Li2202 O2260 1.961 . S
Li2202 O2262 1.956 . S
Li2202 O2263 1.970 . S
Li2203 N2253 1.990 . S
Li2203 O2261 1.961 . S
Li2203 O2262 1.970 . S
Li2203 O2263 1.956 . S
C2204 C2206 1.348 . S
C2204 C2207 1.356 . S
C2204 O2260 1.325 . S
N2205 C2208 1.314 . S
N2205 C2209 1.279 . S
C2206 C2204 1.348 . S
C2206 C2208 1.353 . S
C2206 H2264 0.929 . S
C2207 C2204 1.356 . S
C2207 C2209 1.358 . S
C2207 H2265 0.930 . S
C2208 N2205 1.314 . S
C2208 C2206 1.353 . S
C2208 H2266 0.930 . S
C2209 N2205 1.279 . S
C2209 C2207 1.358 . S
C2209 H2267 0.930 . S
C2210 C2213 1.348 . S
C2210 C2214 1.356 . S
C2210 O2261 1.325 . S
C2211 N2212 1.279 . S
C2211 C2214 1.358 . S
C2211 H2268 0.930 . S
N2212 C2211 1.279 . S
N2212 C2215 1.314 . S
C2213 C2210 1.348 . S
C2213 C2215 1.353 . S
C2213 H2269 0.929 . S
C2214 C2210 1.356 . S
C2214 C2211 1.358 . S
C2214 H2270 0.930 . S
C2215 N2212 1.314 . S
C2215 C2213 1.353 . S
C2215 H2271 0.930 . S
C2216 N2217 1.314 . S
C2216 C2221 1.353 . S
C2216 H2222 0.930 . S
N2217 Li2200 1.990 . S
N2217 C2216 1.314 . S
N2217 C2219 1.279 . S
C2218 C2219 1.358 . S
C2218 C2220 1.356 . S
C2218 H2272 0.930 . S
C2219 N2217 1.279 . S
C2219 C2218 1.358 . S
C2219 H2223 0.930 . S
C2220 C2218 1.356 . S
C2220 C2221 1.348 . S
C2221 C2216 1.353 . S
C2221 C2220 1.348 . S
C2221 H2273 0.929 . S
H2222 C2216 0.930 . S
H2223 C2219 0.930 . S
C2224 N2225 1.314 . S
C2224 C2226 1.353 . S
C2224 H2230 0.930 . S
N2225 Li2201 1.990 . S
N2225 C2224 1.314 . S
N2225 C2228 1.279 . S
C2226 C2224 1.353 . S
C2226 C2229 1.348 . S
C2226 H2274 0.929 . S
C2227 C2228 1.358 . S
C2227 C2229 1.356 . S
C2227 H2275 0.930 . S
C2228 N2225 1.279 . S
C2228 C2227 1.358 . S
C2228 H2231 0.930 . S
C2229 C2226 1.348 . S
C2229 C2227 1.356 . S
H2230 C2224 0.930 . S
H2231 C2228 0.930 . S
C2232 C2234 1.348 . S
C2232 C2235 1.356 . S
C2232 O2262 1.325 . S
N2233 C2236 1.314 . S
N2233 C2237 1.279 . S
C2234 C2232 1.348 . S
C2234 C2236 1.353 . S
C2234 H2276 0.929 . S
C2235 C2232 1.356 . S
C2235 C2237 1.358 . S
C2235 H2277 0.930 . S
C2236 N2233 1.314 . S
C2236 C2234 1.353 . S
C2236 H2278 0.930 . S
C2237 N2233 1.279 . S
C2237 C2235 1.358 . S
C2237 H2279 0.930 . S
C2238 C2239 1.348 . S
C2238 C2240 1.356 . S
C2238 O2263 1.325 . S
C2239 C2238 1.348 . S
C2239 C2241 1.353 . S
C2239 H2280 0.929 . S
C2240 C2238 1.356 . S
C2240 C2242 1.358 . S
C2240 H2281 0.930 . S
C2241 C2239 1.353 . S
C2241 N2243 1.314 . S
C2241 H2282 0.930 . S
C2242 C2240 1.358 . S
C2242 N2243 1.279 . S
C2242 H2283 0.930 . S
N2243 C2241 1.314 . S
N2243 C2242 1.279 . S
C2244 C2246 1.353 . S
C2244 N2247 1.314 . S
C2244 H2250 0.930 . S
C2245 N2247 1.279 . S
C2245 C2248 1.358 . S
C2245 H2251 0.930 . S
C2246 C2244 1.353 . S
C2246 C2249 1.348 . S
C2246 H2284 0.929 . S
N2247 Li2202 1.990 . S
N2247 C2244 1.314 . S
N2247 C2245 1.279 . S
C2248 C2245 1.358 . S
C2248 C2249 1.356 . S
C2248 H2285 0.930 . S
C2249 C2246 1.348 . S
C2249 C2248 1.356 . S
H2250 C2244 0.930 . S
H2251 C2245 0.930 . S
C2252 N2253 1.314 . S
C2252 C2254 1.353 . S
C2252 H2258 0.930 . S
N2253 Li2203 1.990 . S
N2253 C2252 1.314 . S
N2253 C2256 1.279 . S
C2254 C2252 1.353 . S
C2254 C2257 1.348 . S
C2254 H2286 0.929 . S
C2255 C2256 1.358 . S
C2255 C2257 1.356 . S
C2255 H2287 0.930 . S
C2256 N2253 1.279 . S
C2256 C2255 1.358 . S
C2256 H2259 0.930 . S
C2257 C2254 1.348 . S
C2257 C2255 1.356 . S
H2258 C2252 0.930 . S
H2259 C2256 0.930 . S
O2260 Li2200 1.956 . S
O2260 Li2201 1.970 . S
O2260 Li2202 1.961 . S
O2260 C2204 1.325 . S
O2261 Li2200 1.970 . S
O2261 Li2201 1.956 . S
O2261 Li2203 1.961 . S
O2261 C2210 1.325 . S
O2262 Li2200 1.961 . S
O2262 Li2202 1.956 . S
O2262 Li2203 1.970 . S
O2262 C2232 1.325 . S
O2263 Li2201 1.961 . S
O2263 Li2202 1.970 . S
O2263 Li2203 1.956 . S
O2263 C2238 1.325 . S
H2264 C2206 0.929 . S
H2265 C2207 0.930 . S
H2266 C2208 0.930 . S
H2267 C2209 0.930 . S
H2268 C2211 0.930 . S
H2269 C2213 0.929 . S
H2270 C2214 0.930 . S
H2271 C2215 0.930 . S
H2272 C2218 0.930 . S
H2273 C2221 0.929 . S
H2274 C2226 0.929 . S
H2275 C2227 0.930 . S
H2276 C2234 0.929 . S
H2277 C2235 0.930 . S
H2278 C2236 0.930 . S
H2279 C2237 0.930 . S
H2280 C2239 0.929 . S
H2281 C2240 0.930 . S
H2282 C2241 0.930 . S
H2283 C2242 0.930 . S
H2284 C2246 0.929 . S
H2285 C2248 0.930 . S
H2286 C2254 0.929 . S
H2287 C2255 0.930 . S
Li2288 N2305 1.990 . S
Li2288 O2348 1.956 . S
Li2288 O2349 1.970 . S
Li2288 O2350 1.961 . S
Li2289 N2313 1.990 . S
Li2289 O2348 1.970 . S
Li2289 O2349 1.956 . S
Li2289 O2351 1.961 . S
Li2290 N2335 1.990 . S
Li2290 O2348 1.961 . S
Li2290 O2350 1.956 . S
Li2290 O2351 1.970 . S
Li2291 N2341 1.990 . S
Li2291 O2349 1.961 . S
Li2291 O2350 1.970 . S
Li2291 O2351 1.956 . S
C2292 C2294 1.348 . S
C2292 C2295 1.356 . S
C2292 O2348 1.325 . S
N2293 C2296 1.314 . S
N2293 C2297 1.279 . S
C2294 C2292 1.348 . S
C2294 C2296 1.353 . S
C2294 H2352 0.929 . S
C2295 C2292 1.356 . S
C2295 C2297 1.358 . S
C2295 H2353 0.930 . S
C2296 N2293 1.314 . S
C2296 C2294 1.353 . S
C2296 H2354 0.930 . S
C2297 N2293 1.279 . S
C2297 C2295 1.358 . S
C2297 H2355 0.930 . S
C2298 C2301 1.348 . S
C2298 C2302 1.356 . S
C2298 O2349 1.325 . S
C2299 N2300 1.279 . S
C2299 C2302 1.358 . S
C2299 H2356 0.930 . S
N2300 C2299 1.279 . S
N2300 C2303 1.314 . S
C2301 C2298 1.348 . S
C2301 C2303 1.353 . S
C2301 H2357 0.929 . S
C2302 C2298 1.356 . S
C2302 C2299 1.358 . S
C2302 H2358 0.930 . S
C2303 N2300 1.314 . S
C2303 C2301 1.353 . S
C2303 H2359 0.930 . S
C2304 N2305 1.314 . S
C2304 C2309 1.353 . S
C2304 H2310 0.930 . S
N2305 Li2288 1.990 . S
N2305 C2304 1.314 . S
N2305 C2307 1.279 . S
C2306 C2307 1.358 . S
C2306 C2308 1.356 . S
C2306 H2360 0.930 . S
C2307 N2305 1.279 . S
C2307 C2306 1.358 . S
C2307 H2311 0.930 . S
C2308 C2306 1.356 . S
C2308 C2309 1.348 . S
C2309 C2304 1.353 . S
C2309 C2308 1.348 . S
C2309 H2361 0.929 . S
H2310 C2304 0.930 . S
H2311 C2307 0.930 . S
C2312 N2313 1.314 . S
C2312 C2314 1.353 . S
C2312 H2318 0.930 . S
N2313 Li2289 1.990 . S
N2313 C2312 1.314 . S
N2313 C2316 1.279 . S
C2314 C2312 1.353 . S
C2314 C2317 1.348 . S
C2314 H2362 0.929 . S
C2315 C2316 1.358 . S
C2315 C2317 1.356 . S
C2315 H2363 0.930 . S
C2316 N2313 1.279 . S
C2316 C2315 1.358 . S
C2316 H2319 0.930 . S
C2317 C2314 1.348 . S
C2317 C2315 1.356 . S
H2318 C2312 0.930 . S
H2319 C2316 0.930 . S
C2320 C2322 1.348 . S
C2320 C2323 1.356 . S
C2320 O2350 1.325 . S
N2321 C2324 1.314 . S
N2321 C2325 1.279 . S
C2322 C2320 1.348 . S
C2322 C2324 1.353 . S
C2322 H2364 0.929 . S
C2323 C2320 1.356 . S
C2323 C2325 1.358 . S
C2323 H2365 0.930 . S
C2324 N2321 1.314 . S
C2324 C2322 1.353 . S
C2324 H2366 0.930 . S
C2325 N2321 1.279 . S
C2325 C2323 1.358 . S
C2325 H2367 0.930 . S
C2326 C2327 1.348 . S
C2326 C2328 1.356 . S
C2326 O2351 1.325 . S
C2327 C2326 1.348 . S
C2327 C2329 1.353 . S
C2327 H2368 0.929 . S
C2328 C2326 1.356 . S
C2328 C2330 1.358 . S
C2328 H2369 0.930 . S
C2329 C2327 1.353 . S
C2329 N2331 1.314 . S
C2329 H2370 0.930 . S
C2330 C2328 1.358 . S
C2330 N2331 1.279 . S
C2330 H2371 0.930 . S
N2331 C2329 1.314 . S
N2331 C2330 1.279 . S
C2332 C2334 1.353 . S
C2332 N2335 1.314 . S
C2332 H2338 0.930 . S
C2333 N2335 1.279 . S
C2333 C2336 1.358 . S
C2333 H2339 0.930 . S
C2334 C2332 1.353 . S
C2334 C2337 1.348 . S
C2334 H2372 0.929 . S
N2335 Li2290 1.990 . S
N2335 C2332 1.314 . S
N2335 C2333 1.279 . S
C2336 C2333 1.358 . S
C2336 C2337 1.356 . S
C2336 H2373 0.930 . S
C2337 C2334 1.348 . S
C2337 C2336 1.356 . S
H2338 C2332 0.930 . S
H2339 C2333 0.930 . S
C2340 N2341 1.314 . S
C2340 C2342 1.353 . S
C2340 H2346 0.930 . S
N2341 Li2291 1.990 . S
N2341 C2340 1.314 . S
N2341 C2344 1.279 . S
C2342 C2340 1.353 . S
C2342 C2345 1.348 . S
C2342 H2374 0.929 . S
C2343 C2344 1.358 . S
C2343 C2345 1.356 . S
C2343 H2375 0.930 . S
C2344 N2341 1.279 . S
C2344 C2343 1.358 . S
C2344 H2347 0.930 . S
C2345 C2342 1.348 . S
C2345 C2343 1.356 . S
H2346 C2340 0.930 . S
H2347 C2344 0.930 . S
O2348 Li2288 1.956 . S
O2348 Li2289 1.970 . S
O2348 Li2290 1.961 . S
O2348 C2292 1.325 . S
O2349 Li2288 1.970 . S
O2349 Li2289 1.956 . S
O2349 Li2291 1.961 . S
O2349 C2298 1.325 . S
O2350 Li2288 1.961 . S
O2350 Li2290 1.956 . S
O2350 Li2291 1.970 . S
O2350 C2320 1.325 . S
O2351 Li2289 1.961 . S
O2351 Li2290 1.970 . S
O2351 Li2291 1.956 . S
O2351 C2326 1.325 . S
H2352 C2294 0.929 . S
H2353 C2295 0.930 . S
H2354 C2296 0.930 . S
H2355 C2297 0.930 . S
H2356 C2299 0.930 . S
H2357 C2301 0.929 . S
H2358 C2302 0.930 . S
H2359 C2303 0.930 . S
H2360 C2306 0.930 . S
H2361 C2309 0.929 . S
H2362 C2314 0.929 . S
H2363 C2315 0.930 . S
H2364 C2322 0.929 . S
H2365 C2323 0.930 . S
H2366 C2324 0.930 . S
H2367 C2325 0.930 . S
H2368 C2327 0.929 . S
H2369 C2328 0.930 . S
H2370 C2329 0.930 . S
H2371 C2330 0.930 . S
H2372 C2334 0.929 . S
H2373 C2336 0.930 . S
H2374 C2342 0.929 . S
H2375 C2343 0.930 . S
Li2376 N2393 1.990 . S
Li2376 O2436 1.956 . S
Li2376 O2437 1.970 . S
Li2376 O2438 1.961 . S
Li2377 N2401 1.990 . S
Li2377 O2436 1.970 . S
Li2377 O2437 1.956 . S
Li2377 O2439 1.961 . S
Li2378 N2423 1.990 . S
Li2378 O2436 1.961 . S
Li2378 O2438 1.956 . S
Li2378 O2439 1.970 . S
Li2379 N2429 1.990 . S
Li2379 O2437 1.961 . S
Li2379 O2438 1.970 . S
Li2379 O2439 1.956 . S
C2380 C2382 1.348 . S
C2380 C2383 1.356 . S
C2380 O2436 1.325 . S
N2381 C2384 1.314 . S
N2381 C2385 1.279 . S
C2382 C2380 1.348 . S
C2382 C2384 1.353 . S
C2382 H2440 0.929 . S
C2383 C2380 1.356 . S
C2383 C2385 1.358 . S
C2383 H2441 0.930 . S
C2384 N2381 1.314 . S
C2384 C2382 1.353 . S
C2384 H2442 0.930 . S
C2385 N2381 1.279 . S
C2385 C2383 1.358 . S
C2385 H2443 0.930 . S
C2386 C2389 1.348 . S
C2386 C2390 1.356 . S
C2386 O2437 1.325 . S
C2387 N2388 1.279 . S
C2387 C2390 1.358 . S
C2387 H2444 0.930 . S
N2388 C2387 1.279 . S
N2388 C2391 1.314 . S
C2389 C2386 1.348 . S
C2389 C2391 1.353 . S
C2389 H2445 0.929 . S
C2390 C2386 1.356 . S
C2390 C2387 1.358 . S
C2390 H2446 0.930 . S
C2391 N2388 1.314 . S
C2391 C2389 1.353 . S
C2391 H2447 0.930 . S
C2392 N2393 1.314 . S
C2392 C2397 1.353 . S
C2392 H2398 0.930 . S
N2393 Li2376 1.990 . S
N2393 C2392 1.314 . S
N2393 C2395 1.279 . S
C2394 C2395 1.358 . S
C2394 C2396 1.356 . S
C2394 H2448 0.930 . S
C2395 N2393 1.279 . S
C2395 C2394 1.358 . S
C2395 H2399 0.930 . S
C2396 C2394 1.356 . S
C2396 C2397 1.348 . S
C2397 C2392 1.353 . S
C2397 C2396 1.348 . S
C2397 H2449 0.929 . S
H2398 C2392 0.930 . S
H2399 C2395 0.930 . S
C2400 N2401 1.314 . S
C2400 C2402 1.353 . S
C2400 H2406 0.930 . S
N2401 Li2377 1.990 . S
N2401 C2400 1.314 . S
N2401 C2404 1.279 . S
C2402 C2400 1.353 . S
C2402 C2405 1.348 . S
C2402 H2450 0.929 . S
C2403 C2404 1.358 . S
C2403 C2405 1.356 . S
C2403 H2451 0.930 . S
C2404 N2401 1.279 . S
C2404 C2403 1.358 . S
C2404 H2407 0.930 . S
C2405 C2402 1.348 . S
C2405 C2403 1.356 . S
H2406 C2400 0.930 . S
H2407 C2404 0.930 . S
C2408 C2410 1.348 . S
C2408 C2411 1.356 . S
C2408 O2438 1.325 . S
N2409 C2412 1.314 . S
N2409 C2413 1.279 . S
C2410 C2408 1.348 . S
C2410 C2412 1.353 . S
C2410 H2452 0.929 . S
C2411 C2408 1.356 . S
C2411 C2413 1.358 . S
C2411 H2453 0.930 . S
C2412 N2409 1.314 . S
C2412 C2410 1.353 . S
C2412 H2454 0.930 . S
C2413 N2409 1.279 . S
C2413 C2411 1.358 . S
C2413 H2455 0.930 . S
C2414 C2415 1.348 . S
C2414 C2416 1.356 . S
C2414 O2439 1.325 . S
C2415 C2414 1.348 . S
C2415 C2417 1.353 . S
C2415 H2456 0.929 . S
C2416 C2414 1.356 . S
C2416 C2418 1.358 . S
C2416 H2457 0.930 . S
C2417 C2415 1.353 . S
C2417 N2419 1.314 . S
C2417 H2458 0.930 . S
C2418 C2416 1.358 . S
C2418 N2419 1.279 . S
C2418 H2459 0.930 . S
N2419 C2417 1.314 . S
N2419 C2418 1.279 . S
C2420 C2422 1.353 . S
C2420 N2423 1.314 . S
C2420 H2426 0.930 . S
C2421 N2423 1.279 . S
C2421 C2424 1.358 . S
C2421 H2427 0.930 . S
C2422 C2420 1.353 . S
C2422 C2425 1.348 . S
C2422 H2460 0.929 . S
N2423 Li2378 1.990 . S
N2423 C2420 1.314 . S
N2423 C2421 1.279 . S
C2424 C2421 1.358 . S
C2424 C2425 1.356 . S
C2424 H2461 0.930 . S
C2425 C2422 1.348 . S
C2425 C2424 1.356 . S
H2426 C2420 0.930 . S
H2427 C2421 0.930 . S
C2428 N2429 1.314 . S
C2428 C2430 1.353 . S
C2428 H2434 0.930 . S
N2429 Li2379 1.990 . S
N2429 C2428 1.314 . S
N2429 C2432 1.279 . S
C2430 C2428 1.353 . S
C2430 C2433 1.348 . S
C2430 H2462 0.929 . S
C2431 C2432 1.358 . S
C2431 C2433 1.356 . S
C2431 H2463 0.930 . S
C2432 N2429 1.279 . S
C2432 C2431 1.358 . S
C2432 H2435 0.930 . S
C2433 C2430 1.348 . S
C2433 C2431 1.356 . S
H2434 C2428 0.930 . S
H2435 C2432 0.930 . S
O2436 Li2376 1.956 . S
O2436 Li2377 1.970 . S
O2436 Li2378 1.961 . S
O2436 C2380 1.325 . S
O2437 Li2376 1.970 . S
O2437 Li2377 1.956 . S
O2437 Li2379 1.961 . S
O2437 C2386 1.325 . S
O2438 Li2376 1.961 . S
O2438 Li2378 1.956 . S
O2438 Li2379 1.970 . S
O2438 C2408 1.325 . S
O2439 Li2377 1.961 . S
O2439 Li2378 1.970 . S
O2439 Li2379 1.956 . S
O2439 C2414 1.325 . S
H2440 C2382 0.929 . S
H2441 C2383 0.930 . S
H2442 C2384 0.930 . S
H2443 C2385 0.930 . S
H2444 C2387 0.930 . S
H2445 C2389 0.929 . S
H2446 C2390 0.930 . S
H2447 C2391 0.930 . S
H2448 C2394 0.930 . S
H2449 C2397 0.929 . S
H2450 C2402 0.929 . S
H2451 C2403 0.930 . S
H2452 C2410 0.929 . S
H2453 C2411 0.930 . S
H2454 C2412 0.930 . S
H2455 C2413 0.930 . S
H2456 C2415 0.929 . S
H2457 C2416 0.930 . S
H2458 C2417 0.930 . S
H2459 C2418 0.930 . S
H2460 C2422 0.929 . S
H2461 C2424 0.930 . S
H2462 C2430 0.929 . S
H2463 C2431 0.930 . S
Li2464 N2481 1.990 . S
Li2464 O2524 1.956 . S
Li2464 O2525 1.970 . S
Li2464 O2526 1.961 . S
Li2465 N2489 1.990 . S
Li2465 O2524 1.970 . S
Li2465 O2525 1.956 . S
Li2465 O2527 1.961 . S
Li2466 N2511 1.990 . S
Li2466 O2524 1.961 . S
Li2466 O2526 1.956 . S
Li2466 O2527 1.970 . S
Li2467 N2517 1.990 . S
Li2467 O2525 1.961 . S
Li2467 O2526 1.970 . S
Li2467 O2527 1.956 . S
C2468 C2470 1.348 . S
C2468 C2471 1.356 . S
C2468 O2524 1.325 . S
N2469 C2472 1.314 . S
N2469 C2473 1.279 . S
C2470 C2468 1.348 . S
C2470 C2472 1.353 . S
C2470 H2528 0.929 . S
C2471 C2468 1.356 . S
C2471 C2473 1.358 . S
C2471 H2529 0.930 . S
C2472 N2469 1.314 . S
C2472 C2470 1.353 . S
C2472 H2530 0.930 . S
C2473 N2469 1.279 . S
C2473 C2471 1.358 . S
C2473 H2531 0.930 . S
C2474 C2477 1.348 . S
C2474 C2478 1.356 . S
C2474 O2525 1.325 . S
C2475 N2476 1.279 . S
C2475 C2478 1.358 . S
C2475 H2532 0.930 . S
N2476 C2475 1.279 . S
N2476 C2479 1.314 . S
C2477 C2474 1.348 . S
C2477 C2479 1.353 . S
C2477 H2533 0.929 . S
C2478 C2474 1.356 . S
C2478 C2475 1.358 . S
C2478 H2534 0.930 . S
C2479 N2476 1.314 . S
C2479 C2477 1.353 . S
C2479 H2535 0.930 . S
C2480 N2481 1.314 . S
C2480 C2485 1.353 . S
C2480 H2486 0.930 . S
N2481 Li2464 1.990 . S
N2481 C2480 1.314 . S
N2481 C2483 1.279 . S
C2482 C2483 1.358 . S
C2482 C2484 1.356 . S
C2482 H2536 0.930 . S
C2483 N2481 1.279 . S
C2483 C2482 1.358 . S
C2483 H2487 0.930 . S
C2484 C2482 1.356 . S
C2484 C2485 1.348 . S
C2485 C2480 1.353 . S
C2485 C2484 1.348 . S
C2485 H2537 0.929 . S
H2486 C2480 0.930 . S
H2487 C2483 0.930 . S
C2488 N2489 1.314 . S
C2488 C2490 1.353 1_455 S
C2488 H2494 0.930 . S
N2489 Li2465 1.990 . S
N2489 C2488 1.314 . S
N2489 C2492 1.279 . S
C2490 C2488 1.353 1_655 S
C2490 C2493 1.348 . S
C2490 H2538 0.929 . S
C2491 C2492 1.358 . S
C2491 C2493 1.356 1_455 S
C2491 H2539 0.930 . S
C2492 N2489 1.279 . S
C2492 C2491 1.358 . S
C2492 H2495 0.930 . S
C2493 C2490 1.348 . S
C2493 C2491 1.356 1_655 S
H2494 C2488 0.930 . S
H2495 C2492 0.930 . S
C2496 C2498 1.348 . S
C2496 C2499 1.356 . S
C2496 O2526 1.325 . S
N2497 C2500 1.314 . S
N2497 C2501 1.279 . S
C2498 C2496 1.348 . S
C2498 C2500 1.353 . S
C2498 H2540 0.929 . S
C2499 C2496 1.356 . S
C2499 C2501 1.358 . S
C2499 H2541 0.930 . S
C2500 N2497 1.314 . S
C2500 C2498 1.353 . S
C2500 H2542 0.930 . S
C2501 N2497 1.279 . S
C2501 C2499 1.358 . S
C2501 H2543 0.930 . S
C2502 C2503 1.348 . S
C2502 C2504 1.356 . S
C2502 O2527 1.325 . S
C2503 C2502 1.348 . S
C2503 C2505 1.353 . S
C2503 H2544 0.929 . S
C2504 C2502 1.356 . S
C2504 C2506 1.358 . S
C2504 H2545 0.930 . S
C2505 C2503 1.353 . S
C2505 N2507 1.314 . S
C2505 H2546 0.930 . S
C2506 C2504 1.358 . S
C2506 N2507 1.279 . S
C2506 H2547 0.930 . S
N2507 C2505 1.314 . S
N2507 C2506 1.279 . S
C2508 C2510 1.353 . S
C2508 N2511 1.314 . S
C2508 H2514 0.930 . S
C2509 N2511 1.279 . S
C2509 C2512 1.358 . S
C2509 H2515 0.930 . S
C2510 C2508 1.353 . S
C2510 C2513 1.348 . S
C2510 H2548 0.929 . S
N2511 Li2466 1.990 . S
N2511 C2508 1.314 . S
N2511 C2509 1.279 . S
C2512 C2509 1.358 . S
C2512 C2513 1.356 . S
C2512 H2549 0.930 . S
C2513 C2510 1.348 . S
C2513 C2512 1.356 . S
H2514 C2508 0.930 . S
H2515 C2509 0.930 . S
C2516 N2517 1.314 . S
C2516 C2518 1.353 . S
C2516 H2522 0.930 . S
N2517 Li2467 1.990 . S
N2517 C2516 1.314 . S
N2517 C2520 1.279 . S
C2518 C2516 1.353 . S
C2518 C2521 1.348 . S
C2518 H2550 0.929 . S
C2519 C2520 1.358 . S
C2519 C2521 1.356 . S
C2519 H2551 0.930 . S
C2520 N2517 1.279 . S
C2520 C2519 1.358 . S
C2520 H2523 0.930 . S
C2521 C2518 1.348 . S
C2521 C2519 1.356 . S
H2522 C2516 0.930 . S
H2523 C2520 0.930 . S
O2524 Li2464 1.956 . S
O2524 Li2465 1.970 . S
O2524 Li2466 1.961 . S
O2524 C2468 1.325 . S
O2525 Li2464 1.970 . S
O2525 Li2465 1.956 . S
O2525 Li2467 1.961 . S
O2525 C2474 1.325 . S
O2526 Li2464 1.961 . S
O2526 Li2466 1.956 . S
O2526 Li2467 1.970 . S
O2526 C2496 1.325 . S
O2527 Li2465 1.961 . S
O2527 Li2466 1.970 . S
O2527 Li2467 1.956 . S
O2527 C2502 1.325 . S
H2528 C2470 0.929 . S
H2529 C2471 0.930 . S
H2530 C2472 0.930 . S
H2531 C2473 0.930 . S
H2532 C2475 0.930 . S
H2533 C2477 0.929 . S
H2534 C2478 0.930 . S
H2535 C2479 0.930 . S
H2536 C2482 0.930 . S
H2537 C2485 0.929 . S
H2538 C2490 0.929 . S
H2539 C2491 0.930 . S
H2540 C2498 0.929 . S
H2541 C2499 0.930 . S
H2542 C2500 0.930 . S
H2543 C2501 0.930 . S
H2544 C2503 0.929 . S
H2545 C2504 0.930 . S
H2546 C2505 0.930 . S
H2547 C2506 0.930 . S
H2548 C2510 0.929 . S
H2549 C2512 0.930 . S
H2550 C2518 0.929 . S
H2551 C2519 0.930 . S
Li2552 N2569 1.990 . S
Li2552 O2612 1.956 . S
Li2552 O2613 1.970 . S
Li2552 O2614 1.961 . S
Li2553 N2577 1.990 . S
Li2553 O2612 1.970 . S
Li2553 O2613 1.956 . S
Li2553 O2615 1.961 . S
Li2554 N2599 1.990 . S
Li2554 O2612 1.961 . S
Li2554 O2614 1.956 . S
Li2554 O2615 1.970 . S
Li2555 N2605 1.990 . S
Li2555 O2613 1.961 . S
Li2555 O2614 1.970 . S
Li2555 O2615 1.956 . S
C2556 C2558 1.348 . S
C2556 C2559 1.356 . S
C2556 O2612 1.325 . S
N2557 C2560 1.314 . S
N2557 C2561 1.279 . S
C2558 C2556 1.348 . S
C2558 C2560 1.353 . S
C2558 H2616 0.929 . S
C2559 C2556 1.356 . S
C2559 C2561 1.358 . S
C2559 H2617 0.930 . S
C2560 N2557 1.314 . S
C2560 C2558 1.353 . S
C2560 H2618 0.930 . S
C2561 N2557 1.279 . S
C2561 C2559 1.358 . S
C2561 H2619 0.930 . S
C2562 C2565 1.348 . S
C2562 C2566 1.356 . S
C2562 O2613 1.325 . S
C2563 N2564 1.279 . S
C2563 C2566 1.358 . S
C2563 H2620 0.930 . S
N2564 C2563 1.279 . S
N2564 C2567 1.314 . S
C2565 C2562 1.348 . S
C2565 C2567 1.353 . S
C2565 H2621 0.929 . S
C2566 C2562 1.356 . S
C2566 C2563 1.358 . S
C2566 H2622 0.930 . S
C2567 N2564 1.314 . S
C2567 C2565 1.353 . S
C2567 H2623 0.930 . S
C2568 N2569 1.314 . S
C2568 C2573 1.353 . S
C2568 H2574 0.930 . S
N2569 Li2552 1.990 . S
N2569 C2568 1.314 . S
N2569 C2571 1.279 . S
C2570 C2571 1.358 . S
C2570 C2572 1.356 . S
C2570 H2624 0.930 . S
C2571 N2569 1.279 . S
C2571 C2570 1.358 . S
C2571 H2575 0.930 . S
C2572 C2570 1.356 . S
C2572 C2573 1.348 . S
C2573 C2568 1.353 . S
C2573 C2572 1.348 . S
C2573 H2625 0.929 . S
H2574 C2568 0.930 . S
H2575 C2571 0.930 . S
C2576 N2577 1.314 . S
C2576 C2578 1.353 . S
C2576 H2582 0.930 . S
N2577 Li2553 1.990 . S
N2577 C2576 1.314 . S
N2577 C2580 1.279 . S
C2578 C2576 1.353 . S
C2578 C2581 1.348 . S
C2578 H2626 0.929 . S
C2579 C2580 1.358 . S
C2579 C2581 1.356 . S
C2579 H2627 0.930 . S
C2580 N2577 1.279 . S
C2580 C2579 1.358 . S
C2580 H2583 0.930 . S
C2581 C2578 1.348 . S
C2581 C2579 1.356 . S
H2582 C2576 0.930 . S
H2583 C2580 0.930 . S
C2584 C2586 1.348 . S
C2584 C2587 1.356 . S
C2584 O2614 1.325 . S
N2585 C2588 1.314 . S
N2585 C2589 1.279 . S
C2586 C2584 1.348 . S
C2586 C2588 1.353 . S
C2586 H2628 0.929 . S
C2587 C2584 1.356 . S
C2587 C2589 1.358 . S
C2587 H2629 0.930 . S
C2588 N2585 1.314 . S
C2588 C2586 1.353 . S
C2588 H2630 0.930 . S
C2589 N2585 1.279 . S
C2589 C2587 1.358 . S
C2589 H2631 0.930 . S
C2590 C2591 1.348 . S
C2590 C2592 1.356 . S
C2590 O2615 1.325 . S
C2591 C2590 1.348 . S
C2591 C2593 1.353 . S
C2591 H2632 0.929 . S
C2592 C2590 1.356 . S
C2592 C2594 1.358 . S
C2592 H2633 0.930 . S
C2593 C2591 1.353 . S
C2593 N2595 1.314 . S
C2593 H2634 0.930 . S
C2594 C2592 1.358 . S
C2594 N2595 1.279 . S
C2594 H2635 0.930 . S
N2595 C2593 1.314 . S
N2595 C2594 1.279 . S
C2596 C2598 1.353 . S
C2596 N2599 1.314 . S
C2596 H2602 0.930 . S
C2597 N2599 1.279 . S
C2597 C2600 1.358 . S
C2597 H2603 0.930 . S
C2598 C2596 1.353 . S
C2598 C2601 1.348 . S
C2598 H2636 0.929 . S
N2599 Li2554 1.990 . S
N2599 C2596 1.314 . S
N2599 C2597 1.279 . S
C2600 C2597 1.358 . S
C2600 C2601 1.356 . S
C2600 H2637 0.930 . S
C2601 C2598 1.348 . S
C2601 C2600 1.356 . S
H2602 C2596 0.930 . S
H2603 C2597 0.930 . S
C2604 N2605 1.314 . S
C2604 C2606 1.353 . S
C2604 H2610 0.930 . S
N2605 Li2555 1.990 . S
N2605 C2604 1.314 . S
N2605 C2608 1.279 . S
C2606 C2604 1.353 . S
C2606 C2609 1.348 . S
C2606 H2638 0.929 . S
C2607 C2608 1.358 . S
C2607 C2609 1.356 . S
C2607 H2639 0.930 . S
C2608 N2605 1.279 . S
C2608 C2607 1.358 . S
C2608 H2611 0.930 . S
C2609 C2606 1.348 . S
C2609 C2607 1.356 . S
H2610 C2604 0.930 . S
H2611 C2608 0.930 . S
O2612 Li2552 1.956 . S
O2612 Li2553 1.970 . S
O2612 Li2554 1.961 . S
O2612 C2556 1.325 . S
O2613 Li2552 1.970 . S
O2613 Li2553 1.956 . S
O2613 Li2555 1.961 . S
O2613 C2562 1.325 . S
O2614 Li2552 1.961 . S
O2614 Li2554 1.956 . S
O2614 Li2555 1.970 . S
O2614 C2584 1.325 . S
O2615 Li2553 1.961 . S
O2615 Li2554 1.970 . S
O2615 Li2555 1.956 . S
O2615 C2590 1.325 . S
H2616 C2558 0.929 . S
H2617 C2559 0.930 . S
H2618 C2560 0.930 . S
H2619 C2561 0.930 . S
H2620 C2563 0.930 . S
H2621 C2565 0.929 . S
H2622 C2566 0.930 . S
H2623 C2567 0.930 . S
H2624 C2570 0.930 . S
H2625 C2573 0.929 . S
H2626 C2578 0.929 . S
H2627 C2579 0.930 . S
H2628 C2586 0.929 . S
H2629 C2587 0.930 . S
H2630 C2588 0.930 . S
H2631 C2589 0.930 . S
H2632 C2591 0.929 . S
H2633 C2592 0.930 . S
H2634 C2593 0.930 . S
H2635 C2594 0.930 . S
H2636 C2598 0.929 . S
H2637 C2600 0.930 . S
H2638 C2606 0.929 . S
H2639 C2607 0.930 . S
Li2640 N2657 1.990 . S
Li2640 O2700 1.956 . S
Li2640 O2701 1.970 . S
Li2640 O2702 1.961 . S
Li2641 N2665 1.990 . S
Li2641 O2700 1.970 . S
Li2641 O2701 1.956 . S
Li2641 O2703 1.961 . S
Li2642 N2687 1.990 . S
Li2642 O2700 1.961 . S
Li2642 O2702 1.956 . S
Li2642 O2703 1.970 . S
Li2643 N2693 1.990 . S
Li2643 O2701 1.961 . S
Li2643 O2702 1.970 . S
Li2643 O2703 1.956 . S
C2644 C2646 1.348 . S
C2644 C2647 1.356 . S
C2644 O2700 1.325 . S
N2645 C2648 1.314 . S
N2645 C2649 1.279 . S
C2646 C2644 1.348 . S
C2646 C2648 1.353 . S
C2646 H2704 0.929 . S
C2647 C2644 1.356 . S
C2647 C2649 1.358 . S
C2647 H2705 0.930 . S
C2648 N2645 1.314 . S
C2648 C2646 1.353 . S
C2648 H2706 0.930 . S
C2649 N2645 1.279 . S
C2649 C2647 1.358 . S
C2649 H2707 0.930 . S
C2650 C2653 1.348 . S
C2650 C2654 1.356 . S
C2650 O2701 1.325 . S
C2651 N2652 1.279 . S
C2651 C2654 1.358 . S
C2651 H2708 0.930 . S
N2652 C2651 1.279 . S
N2652 C2655 1.314 . S
C2653 C2650 1.348 . S
C2653 C2655 1.353 . S
C2653 H2709 0.929 . S
C2654 C2650 1.356 . S
C2654 C2651 1.358 . S
C2654 H2710 0.930 . S
C2655 N2652 1.314 . S
C2655 C2653 1.353 . S
C2655 H2711 0.930 . S
C2656 N2657 1.314 . S
C2656 C2661 1.353 . S
C2656 H2662 0.930 . S
N2657 Li2640 1.990 . S
N2657 C2656 1.314 . S
N2657 C2659 1.279 . S
C2658 C2659 1.358 . S
C2658 C2660 1.356 . S
C2658 H2712 0.930 . S
C2659 N2657 1.279 . S
C2659 C2658 1.358 . S
C2659 H2663 0.930 . S
C2660 C2658 1.356 . S
C2660 C2661 1.348 . S
C2661 C2656 1.353 . S
C2661 C2660 1.348 . S
C2661 H2713 0.929 . S
H2662 C2656 0.930 . S
H2663 C2659 0.930 . S
C2664 N2665 1.314 . S
C2664 C2666 1.353 . S
C2664 H2670 0.930 . S
N2665 Li2641 1.990 . S
N2665 C2664 1.314 . S
N2665 C2668 1.279 . S
C2666 C2664 1.353 . S
C2666 C2669 1.348 . S
C2666 H2714 0.929 . S
C2667 C2668 1.358 . S
C2667 C2669 1.356 . S
C2667 H2715 0.930 . S
C2668 N2665 1.279 . S
C2668 C2667 1.358 . S
C2668 H2671 0.930 . S
C2669 C2666 1.348 . S
C2669 C2667 1.356 . S
H2670 C2664 0.930 . S
H2671 C2668 0.930 . S
C2672 C2674 1.348 . S
C2672 C2675 1.356 . S
C2672 O2702 1.325 . S
N2673 C2676 1.314 . S
N2673 C2677 1.279 . S
C2674 C2672 1.348 . S
C2674 C2676 1.353 . S
C2674 H2716 0.929 . S
C2675 C2672 1.356 . S
C2675 C2677 1.358 . S
C2675 H2717 0.930 . S
C2676 N2673 1.314 . S
C2676 C2674 1.353 . S
C2676 H2718 0.930 . S
C2677 N2673 1.279 . S
C2677 C2675 1.358 . S
C2677 H2719 0.930 . S
C2678 C2679 1.348 . S
C2678 C2680 1.356 . S
C2678 O2703 1.325 . S
C2679 C2678 1.348 . S
C2679 C2681 1.353 . S
C2679 H2720 0.929 . S
C2680 C2678 1.356 . S
C2680 C2682 1.358 . S
C2680 H2721 0.930 . S
C2681 C2679 1.353 . S
C2681 N2683 1.314 . S
C2681 H2722 0.930 . S
C2682 C2680 1.358 . S
C2682 N2683 1.279 . S
C2682 H2723 0.930 . S
N2683 C2681 1.314 . S
N2683 C2682 1.279 . S
C2684 C2686 1.353 . S
C2684 N2687 1.314 . S
C2684 H2690 0.930 . S
C2685 N2687 1.279 . S
C2685 C2688 1.358 . S
C2685 H2691 0.930 . S
C2686 C2684 1.353 . S
C2686 C2689 1.348 . S
C2686 H2724 0.929 . S
N2687 Li2642 1.990 . S
N2687 C2684 1.314 . S
N2687 C2685 1.279 . S
C2688 C2685 1.358 . S
C2688 C2689 1.356 . S
C2688 H2725 0.930 . S
C2689 C2686 1.348 . S
C2689 C2688 1.356 . S
H2690 C2684 0.930 . S
H2691 C2685 0.930 . S
C2692 N2693 1.314 . S
C2692 C2694 1.353 . S
C2692 H2698 0.930 . S
N2693 Li2643 1.990 . S
N2693 C2692 1.314 . S
N2693 C2696 1.279 . S
C2694 C2692 1.353 . S
C2694 C2697 1.348 . S
C2694 H2726 0.929 . S
C2695 C2696 1.358 . S
C2695 C2697 1.356 . S
C2695 H2727 0.930 . S
C2696 N2693 1.279 . S
C2696 C2695 1.358 . S
C2696 H2699 0.930 . S
C2697 C2694 1.348 . S
C2697 C2695 1.356 . S
H2698 C2692 0.930 . S
H2699 C2696 0.930 . S
O2700 Li2640 1.956 . S
O2700 Li2641 1.970 . S
O2700 Li2642 1.961 . S
O2700 C2644 1.325 . S
O2701 Li2640 1.970 . S
O2701 Li2641 1.956 . S
O2701 Li2643 1.961 . S
O2701 C2650 1.325 . S
O2702 Li2640 1.961 . S
O2702 Li2642 1.956 . S
O2702 Li2643 1.970 . S
O2702 C2672 1.325 . S
O2703 Li2641 1.961 . S
O2703 Li2642 1.970 . S
O2703 Li2643 1.956 . S
O2703 C2678 1.325 . S
H2704 C2646 0.929 . S
H2705 C2647 0.930 . S
H2706 C2648 0.930 . S
H2707 C2649 0.930 . S
H2708 C2651 0.930 . S
H2709 C2653 0.929 . S
H2710 C2654 0.930 . S
H2711 C2655 0.930 . S
H2712 C2658 0.930 . S
H2713 C2661 0.929 . S
H2714 C2666 0.929 . S
H2715 C2667 0.930 . S
H2716 C2674 0.929 . S
H2717 C2675 0.930 . S
H2718 C2676 0.930 . S
H2719 C2677 0.930 . S
H2720 C2679 0.929 . S
H2721 C2680 0.930 . S
H2722 C2681 0.930 . S
H2723 C2682 0.930 . S
H2724 C2686 0.929 . S
H2725 C2688 0.930 . S
H2726 C2694 0.929 . S
H2727 C2695 0.930 . S
Li2728 N2745 1.990 . S
Li2728 O2788 1.956 . S
Li2728 O2789 1.970 . S
Li2728 O2790 1.961 . S
Li2729 N2753 1.990 . S
Li2729 O2788 1.970 . S
Li2729 O2789 1.956 . S
Li2729 O2791 1.961 . S
Li2730 N2775 1.990 . S
Li2730 O2788 1.961 . S
Li2730 O2790 1.956 . S
Li2730 O2791 1.970 . S
Li2731 N2781 1.990 . S
Li2731 O2789 1.961 . S
Li2731 O2790 1.970 . S
Li2731 O2791 1.956 . S
C2732 C2734 1.348 . S
C2732 C2735 1.356 . S
C2732 O2788 1.325 . S
N2733 C2736 1.314 . S
N2733 C2737 1.279 . S
C2734 C2732 1.348 . S
C2734 C2736 1.353 . S
C2734 H2792 0.929 . S
C2735 C2732 1.356 . S
C2735 C2737 1.358 . S
C2735 H2793 0.930 . S
C2736 N2733 1.314 . S
C2736 C2734 1.353 . S
C2736 H2794 0.930 . S
C2737 N2733 1.279 . S
C2737 C2735 1.358 . S
C2737 H2795 0.930 . S
C2738 C2741 1.348 . S
C2738 C2742 1.356 . S
C2738 O2789 1.325 . S
C2739 N2740 1.279 . S
C2739 C2742 1.358 . S
C2739 H2796 0.930 . S
N2740 C2739 1.279 . S
N2740 C2743 1.314 . S
C2741 C2738 1.348 . S
C2741 C2743 1.353 . S
C2741 H2797 0.929 . S
C2742 C2738 1.356 . S
C2742 C2739 1.358 . S
C2742 H2798 0.930 . S
C2743 N2740 1.314 . S
C2743 C2741 1.353 . S
C2743 H2799 0.930 . S
C2744 N2745 1.314 . S
C2744 C2749 1.353 . S
C2744 H2750 0.930 . S
N2745 Li2728 1.990 . S
N2745 C2744 1.314 . S
N2745 C2747 1.279 . S
C2746 C2747 1.358 . S
C2746 C2748 1.356 . S
C2746 H2800 0.930 . S
C2747 N2745 1.279 . S
C2747 C2746 1.358 . S
C2747 H2751 0.930 . S
C2748 C2746 1.356 . S
C2748 C2749 1.348 . S
C2749 C2744 1.353 . S
C2749 C2748 1.348 . S
C2749 H2801 0.929 . S
H2750 C2744 0.930 . S
H2751 C2747 0.930 . S
C2752 N2753 1.314 . S
C2752 C2754 1.353 . S
C2752 H2758 0.930 . S
N2753 Li2729 1.990 . S
N2753 C2752 1.314 . S
N2753 C2756 1.279 . S
C2754 C2752 1.353 . S
C2754 C2757 1.348 . S
C2754 H2802 0.929 . S
C2755 C2756 1.358 . S
C2755 C2757 1.356 . S
C2755 H2803 0.930 . S
C2756 N2753 1.279 . S
C2756 C2755 1.358 . S
C2756 H2759 0.930 . S
C2757 C2754 1.348 . S
C2757 C2755 1.356 . S
H2758 C2752 0.930 . S
H2759 C2756 0.930 . S
C2760 C2762 1.348 . S
C2760 C2763 1.356 . S
C2760 O2790 1.325 . S
N2761 C2764 1.314 . S
N2761 C2765 1.279 . S
C2762 C2760 1.348 . S
C2762 C2764 1.353 . S
C2762 H2804 0.929 . S
C2763 C2760 1.356 . S
C2763 C2765 1.358 . S
C2763 H2805 0.930 . S
C2764 N2761 1.314 . S
C2764 C2762 1.353 . S
C2764 H2806 0.930 . S
C2765 N2761 1.279 . S
C2765 C2763 1.358 . S
C2765 H2807 0.930 . S
C2766 C2767 1.348 . S
C2766 C2768 1.356 . S
C2766 O2791 1.325 . S
C2767 C2766 1.348 . S
C2767 C2769 1.353 . S
C2767 H2808 0.929 . S
C2768 C2766 1.356 . S
C2768 C2770 1.358 . S
C2768 H2809 0.930 . S
C2769 C2767 1.353 . S
C2769 N2771 1.314 . S
C2769 H2810 0.930 . S
C2770 C2768 1.358 . S
C2770 N2771 1.279 . S
C2770 H2811 0.930 . S
N2771 C2769 1.314 . S
N2771 C2770 1.279 . S
C2772 C2774 1.353 . S
C2772 N2775 1.314 . S
C2772 H2778 0.930 . S
C2773 N2775 1.279 . S
C2773 C2776 1.358 . S
C2773 H2779 0.930 . S
C2774 C2772 1.353 . S
C2774 C2777 1.348 . S
C2774 H2812 0.929 . S
N2775 Li2730 1.990 . S
N2775 C2772 1.314 . S
N2775 C2773 1.279 . S
C2776 C2773 1.358 . S
C2776 C2777 1.356 . S
C2776 H2813 0.930 . S
C2777 C2774 1.348 . S
C2777 C2776 1.356 . S
H2778 C2772 0.930 . S
H2779 C2773 0.930 . S
C2780 N2781 1.314 . S
C2780 C2782 1.353 . S
C2780 H2786 0.930 . S
N2781 Li2731 1.990 . S
N2781 C2780 1.314 . S
N2781 C2784 1.279 . S
C2782 C2780 1.353 . S
C2782 C2785 1.348 . S
C2782 H2814 0.929 . S
C2783 C2784 1.358 . S
C2783 C2785 1.356 . S
C2783 H2815 0.930 . S
C2784 N2781 1.279 . S
C2784 C2783 1.358 . S
C2784 H2787 0.930 . S
C2785 C2782 1.348 . S
C2785 C2783 1.356 . S
H2786 C2780 0.930 . S
H2787 C2784 0.930 . S
O2788 Li2728 1.956 . S
O2788 Li2729 1.970 . S
O2788 Li2730 1.961 . S
O2788 C2732 1.325 . S
O2789 Li2728 1.970 . S
O2789 Li2729 1.956 . S
O2789 Li2731 1.961 . S
O2789 C2738 1.325 . S
O2790 Li2728 1.961 . S
O2790 Li2730 1.956 . S
O2790 Li2731 1.970 . S
O2790 C2760 1.325 . S
O2791 Li2729 1.961 . S
O2791 Li2730 1.970 . S
O2791 Li2731 1.956 . S
O2791 C2766 1.325 . S
H2792 C2734 0.929 . S
H2793 C2735 0.930 . S
H2794 C2736 0.930 . S
H2795 C2737 0.930 . S
H2796 C2739 0.930 . S
H2797 C2741 0.929 . S
H2798 C2742 0.930 . S
H2799 C2743 0.930 . S
H2800 C2746 0.930 . S
H2801 C2749 0.929 . S
H2802 C2754 0.929 . S
H2803 C2755 0.930 . S
H2804 C2762 0.929 . S
H2805 C2763 0.930 . S
H2806 C2764 0.930 . S
H2807 C2765 0.930 . S
H2808 C2767 0.929 . S
H2809 C2768 0.930 . S
H2810 C2769 0.930 . S
H2811 C2770 0.930 . S
H2812 C2774 0.929 . S
H2813 C2776 0.930 . S
H2814 C2782 0.929 . S
H2815 C2783 0.930 . S
H2816 C2822 0.930 . S
H2817 C2826 0.930 . S
H2818 C2831 0.934 . S
H2819 C2829 0.934 . S
H2820 C2824 0.929 . S
H2821 C2830 0.929 . S
C2822 H2816 0.930 . S
C2822 C2823 1.367 . S
C2822 C2830 1.378 . S
C2823 C2822 1.367 . S
C2823 C2831 1.425 1_565 S
C2824 H2820 0.929 . S
C2824 C2826 1.378 . S
C2824 C2828 1.350 . S
C2825 C2828 1.463 1_565 S
C2825 C2830 1.350 . S
C2825 N2833 1.427 1_565 S
C2826 H2817 0.930 . S
C2826 C2824 1.378 . S
C2826 C2827 1.367 . S
C2827 C2826 1.367 . S
C2827 C2829 1.425 1_545 S
C2828 C2824 1.350 . S
C2828 C2825 1.463 1_545 S
C2828 N2832 1.427 1_545 S
C2829 H2819 0.934 . S
C2829 C2827 1.425 1_565 S
C2829 N2832 1.387 . S
C2830 H2821 0.929 . S
C2830 C2822 1.378 . S
C2830 C2825 1.350 . S
C2831 H2818 0.934 . S
C2831 C2823 1.425 1_545 S
C2831 N2833 1.387 . S
N2832 C2828 1.427 1_565 S
N2832 C2829 1.387 . S
N2833 C2825 1.427 1_545 S
N2833 C2831 1.387 . S
H2834 C2840 0.930 . S
H2835 C2844 0.930 . S
H2836 C2849 0.929 . S
H2837 C2847 0.929 . S
H2838 C2842 0.929 . S
H2839 C2848 0.929 . S
C2840 H2834 0.930 . S
C2840 C2841 1.367 . S
C2840 C2848 1.378 . S
C2841 C2840 1.367 . S
C2841 C2849 1.433 . S
C2842 H2838 0.929 . S
C2842 C2844 1.378 . S
C2842 C2846 1.350 . S
C2843 C2846 1.463 . S
C2843 C2848 1.350 . S
C2843 N2851 1.427 . S
C2844 H2835 0.930 . S
C2844 C2842 1.378 . S
C2844 C2845 1.367 . S
C2845 C2844 1.367 . S
C2845 C2847 1.433 . S
C2846 C2842 1.350 . S
C2846 C2843 1.463 . S
C2846 N2850 1.427 . S
C2847 H2837 0.929 . S
C2847 C2845 1.433 . S
C2847 N2850 1.384 . S
C2848 H2839 0.929 . S
C2848 C2840 1.378 . S
C2848 C2843 1.350 . S
C2849 H2836 0.929 . S
C2849 C2841 1.433 . S
C2849 N2851 1.384 . S
N2850 C2846 1.427 . S
N2850 C2847 1.384 . S
N2851 C2843 1.427 . S
N2851 C2849 1.384 . S
H2852 C2858 0.930 . S
H2853 C2862 0.930 . S
H2854 C2867 0.929 . S
H2855 C2865 0.929 . S
H2856 C2860 0.929 . S
H2857 C2866 0.929 . S
C2858 H2852 0.930 . S
C2858 C2859 1.367 . S
C2858 C2866 1.378 . S
C2859 C2858 1.367 . S
C2859 C2867 1.433 1_545 S
C2860 H2856 0.929 . S
C2860 C2862 1.378 . S
C2860 C2864 1.350 . S
C2861 C2864 1.463 1_545 S
C2861 C2866 1.350 . S
C2861 N2869 1.427 1_545 S
C2862 H2853 0.930 . S
C2862 C2860 1.378 . S
C2862 C2863 1.367 . S
C2863 C2862 1.367 . S
C2863 C2865 1.433 1_565 S
C2864 C2860 1.350 . S
C2864 C2861 1.463 1_565 S
C2864 N2868 1.427 1_565 S
C2865 H2855 0.929 . S
C2865 C2863 1.433 1_545 S
C2865 N2868 1.384 . S
C2866 H2857 0.929 . S
C2866 C2858 1.378 . S
C2866 C2861 1.350 . S
C2867 H2854 0.929 . S
C2867 C2859 1.433 1_565 S
C2867 N2869 1.384 . S
N2868 C2864 1.427 1_545 S
N2868 C2865 1.384 . S
N2869 C2861 1.427 1_565 S
N2869 C2867 1.384 . S
H2870 C2876 0.930 . S
H2871 C2880 0.930 . S
H2872 C2885 0.929 . S
H2873 C2883 0.929 . S
H2874 C2878 0.929 . S
H2875 C2884 0.929 . S
C2876 H2870 0.930 . S
C2876 C2877 1.367 . S
C2876 C2884 1.378 . S
C2877 C2876 1.367 . S
C2877 C2885 1.433 . S
C2878 H2874 0.929 . S
C2878 C2880 1.378 . S
C2878 C2882 1.350 . S
C2879 C2882 1.463 1_556 S
C2879 C2884 1.350 . S
C2879 N2887 1.427 . S
C2880 H2871 0.930 . S
C2880 C2878 1.378 . S
C2880 C2881 1.367 . S
C2881 C2880 1.367 . S
C2881 C2883 1.433 . S
C2882 C2878 1.350 . S
C2882 C2879 1.463 1_554 S
C2882 N2886 1.427 . S
C2883 H2873 0.929 . S
C2883 C2881 1.433 . S
C2883 N2886 1.384 . S
C2884 H2875 0.929 . S
C2884 C2876 1.378 . S
C2884 C2879 1.350 . S
C2885 H2872 0.929 . S
C2885 C2877 1.433 . S
C2885 N2887 1.384 . S
N2886 C2882 1.427 . S
N2886 C2883 1.384 . S
N2887 C2879 1.427 . S
N2887 C2885 1.384 . S
H2888 C2894 0.930 . S
H2889 C2898 0.930 . S
H2890 C2903 0.929 . S
H2891 C2901 0.929 . S
H2892 C2896 0.929 . S
H2893 C2902 0.929 . S
C2894 H2888 0.930 . S
C2894 C2895 1.367 1_545 S
C2894 C2902 1.378 . S
C2895 C2894 1.367 1_565 S
C2895 C2903 1.433 . S
C2896 H2892 0.929 . S
C2896 C2898 1.378 . S
C2896 C2900 1.350 1_565 S
C2897 C2900 1.463 1_565 S
C2897 C2902 1.350 1_565 S
C2897 N2905 1.427 . S
C2898 H2889 0.930 . S
C2898 C2896 1.378 . S
C2898 C2899 1.367 1_565 S
C2899 C2898 1.367 1_545 S
C2899 C2901 1.433 . S
C2900 C2896 1.350 1_545 S
C2900 C2897 1.463 1_545 S
C2900 N2904 1.427 . S
C2901 H2891 0.929 . S
C2901 C2899 1.433 . S
C2901 N2904 1.384 . S
C2902 H2893 0.929 . S
C2902 C2894 1.378 . S
C2902 C2897 1.350 1_545 S
C2903 H2890 0.929 . S
C2903 C2895 1.433 . S
C2903 N2905 1.384 . S
N2904 C2900 1.427 . S
N2904 C2901 1.384 . S
N2905 C2897 1.427 . S
N2905 C2903 1.384 . S
H2906 C2912 0.930 . S
H2907 C2916 0.930 . S
H2908 C2921 0.929 . S
H2909 C2919 0.929 . S
H2910 C2914 0.929 . S
H2911 C2920 0.929 . S
C2912 H2906 0.930 . S
C2912 C2913 1.367 . S
C2912 C2920 1.378 . S
C2913 C2912 1.367 . S
C2913 C2921 1.433 . S
C2914 H2910 0.929 . S
C2914 C2916 1.378 . S
C2914 C2918 1.350 . S
C2915 C2918 1.463 . S
C2915 C2920 1.350 . S
C2915 N2923 1.427 . S
C2916 H2907 0.930 . S
C2916 C2914 1.378 . S
C2916 C2917 1.367 . S
C2917 C2916 1.367 . S
C2917 C2919 1.433 . S
C2918 C2914 1.350 . S
C2918 C2915 1.463 . S
C2918 N2922 1.427 . S
C2919 H2909 0.929 . S
C2919 C2917 1.433 . S
C2919 N2922 1.384 . S
C2920 H2911 0.929 . S
C2920 C2912 1.378 . S
C2920 C2915 1.350 . S
C2921 H2908 0.929 . S
C2921 C2913 1.433 . S
C2921 N2923 1.384 . S
N2922 C2918 1.427 . S
N2922 C2919 1.384 . S
N2923 C2915 1.427 . S
N2923 C2921 1.384 . S
H2924 C2930 0.930 . S
H2925 C2934 0.930 . S
H2926 C2939 0.929 . S
H2927 C2937 0.929 . S
H2928 C2932 0.929 . S
H2929 C2938 0.929 . S
C2930 H2924 0.930 . S
C2930 C2931 1.367 . S
C2930 C2938 1.378 . S
C2931 C2930 1.367 . S
C2931 C2939 1.433 1_545 S
C2932 H2928 0.929 . S
C2932 C2934 1.378 . S
C2932 C2936 1.350 . S
C2933 C2936 1.463 1_545 S
C2933 C2938 1.350 . S
C2933 N2941 1.427 1_545 S
C2934 H2925 0.930 . S
C2934 C2932 1.378 . S
C2934 C2935 1.367 . S
C2935 C2934 1.367 . S
C2935 C2937 1.433 1_565 S
C2936 C2932 1.350 . S
C2936 C2933 1.463 1_565 S
C2936 N2940 1.427 1_565 S
C2937 H2927 0.929 . S
C2937 C2935 1.433 1_545 S
C2937 N2940 1.384 . S
C2938 H2929 0.929 . S
C2938 C2930 1.378 . S
C2938 C2933 1.350 . S
C2939 H2926 0.929 . S
C2939 C2931 1.433 1_565 S
C2939 N2941 1.384 . S
N2940 C2936 1.427 1_545 S
N2940 C2937 1.384 . S
N2941 C2933 1.427 1_565 S
N2941 C2939 1.384 . S
H2942 C2948 0.930 . S
H2943 C2952 0.930 . S
H2944 C2957 0.929 . S
H2945 C2955 0.929 . S
H2946 C2950 0.929 . S
H2947 C2956 0.929 . S
C2948 H2942 0.930 . S
C2948 C2949 1.367 . S
C2948 C2956 1.378 . S
C2949 C2948 1.367 . S
C2949 C2957 1.433 . S
C2950 H2946 0.929 . S
C2950 C2952 1.378 . S
C2950 C2954 1.350 . S
C2951 C2954 1.463 1_556 S
C2951 C2956 1.350 . S
C2951 N2959 1.427 . S
C2952 H2943 0.930 . S
C2952 C2950 1.378 . S
C2952 C2953 1.367 . S
C2953 C2952 1.367 . S
C2953 C2955 1.433 . S
C2954 C2950 1.350 . S
C2954 C2951 1.463 1_554 S
C2954 N2958 1.427 . S
C2955 H2945 0.929 . S
C2955 C2953 1.433 . S
C2955 N2958 1.384 . S
C2956 H2947 0.929 . S
C2956 C2948 1.378 . S
C2956 C2951 1.350 . S
C2957 H2944 0.929 . S
C2957 C2949 1.433 . S
C2957 N2959 1.384 . S
N2958 C2954 1.427 . S
N2958 C2955 1.384 . S
N2959 C2951 1.427 . S
N2959 C2957 1.384 . S
H2960 C2966 0.930 . S
H2961 C2970 0.930 . S
H2962 C2975 0.929 . S
H2963 C2973 0.929 . S
H2964 C2968 0.929 . S
H2965 C2974 0.929 . S
C2966 H2960 0.930 . S
C2966 C2967 1.367 . S
C2966 C2974 1.378 . S
C2967 C2966 1.367 . S
C2967 C2975 1.433 . S
C2968 H2964 0.929 . S
C2968 C2970 1.378 . S
C2968 C2972 1.350 . S
C2969 C2972 1.463 . S
C2969 C2974 1.350 . S
C2969 N2977 1.427 . S
C2970 H2961 0.930 . S
C2970 C2968 1.378 . S
C2970 C2971 1.367 . S
C2971 C2970 1.367 . S
C2971 C2973 1.433 . S
C2972 C2968 1.350 . S
C2972 C2969 1.463 . S
C2972 N2976 1.427 . S
C2973 H2963 0.929 . S
C2973 C2971 1.433 . S
C2973 N2976 1.384 . S
C2974 H2965 0.929 . S
C2974 C2966 1.378 . S
C2974 C2969 1.350 . S
C2975 H2962 0.929 . S
C2975 C2967 1.433 . S
C2975 N2977 1.384 . S
N2976 C2972 1.427 . S
N2976 C2973 1.384 . S
N2977 C2969 1.427 . S
N2977 C2975 1.384 . S
H2978 C2984 0.930 . S
H2979 C2988 0.930 . S
H2980 C2993 0.929 . S
H2981 C2991 0.929 . S
H2982 C2986 0.929 . S
H2983 C2992 0.929 . S
C2984 H2978 0.930 . S
C2984 C2985 1.367 . S
C2984 C2992 1.378 . S
C2985 C2984 1.367 . S
C2985 C2993 1.433 . S
C2986 H2982 0.929 . S
C2986 C2988 1.378 . S
C2986 C2990 1.350 . S
C2987 C2990 1.463 1_554 S
C2987 C2992 1.350 . S
C2987 N2995 1.427 . S
C2988 H2979 0.930 . S
C2988 C2986 1.378 . S
C2988 C2989 1.367 . S
C2989 C2988 1.367 . S
C2989 C2991 1.433 . S
C2990 C2986 1.350 . S
C2990 C2987 1.463 1_556 S
C2990 N2994 1.427 . S
C2991 H2981 0.929 . S
C2991 C2989 1.433 . S
C2991 N2994 1.384 . S
C2992 H2983 0.929 . S
C2992 C2984 1.378 . S
C2992 C2987 1.350 . S
C2993 H2980 0.929 . S
C2993 C2985 1.433 . S
C2993 N2995 1.384 . S
N2994 C2990 1.427 . S
N2994 C2991 1.384 . S
N2995 C2987 1.427 . S
N2995 C2993 1.384 . S
H2996 C3002 0.930 . S
H2997 C3006 0.930 . S
H2998 C3011 0.929 . S
H2999 C3009 0.929 . S
H3000 C3004 0.929 . S
H3001 C3010 0.929 . S
C3002 H2996 0.930 . S
C3002 C3003 1.367 . S
C3002 C3010 1.378 . S
C3003 C3002 1.367 . S
C3003 C3011 1.433 . S
C3004 H3000 0.929 . S
C3004 C3006 1.378 . S
C3004 C3008 1.350 . S
C3005 C3008 1.463 . S
C3005 C3010 1.350 . S
C3005 N3013 1.427 . S
C3006 H2997 0.930 . S
C3006 C3004 1.378 . S
C3006 C3007 1.367 . S
C3007 C3006 1.367 . S
C3007 C3009 1.433 . S
C3008 C3004 1.350 . S
C3008 C3005 1.463 . S
C3008 N3012 1.427 . S
C3009 H2999 0.929 . S
C3009 C3007 1.433 . S
C3009 N3012 1.384 . S
C3010 H3001 0.929 . S
C3010 C3002 1.378 . S
C3010 C3005 1.350 . S
C3011 H2998 0.929 . S
C3011 C3003 1.433 . S
C3011 N3013 1.384 . S
N3012 C3008 1.427 . S
N3012 C3009 1.384 . S
N3013 C3005 1.427 . S
N3013 C3011 1.384 . S
H3014 C3020 0.930 . S
H3015 C3024 0.930 . S
H3016 C3029 0.929 . S
H3017 C3027 0.929 . S
H3018 C3022 0.929 . S
H3019 C3028 0.929 . S
C3020 H3014 0.930 . S
C3020 C3021 1.367 . S
C3020 C3028 1.378 . S
C3021 C3020 1.367 . S
C3021 C3029 1.433 . S
C3022 H3018 0.929 . S
C3022 C3024 1.378 . S
C3022 C3026 1.350 . S
C3023 C3026 1.463 . S
C3023 C3028 1.350 . S
C3023 N3031 1.427 . S
C3024 H3015 0.930 . S
C3024 C3022 1.378 . S
C3024 C3025 1.367 . S
C3025 C3024 1.367 . S
C3025 C3027 1.433 . S
C3026 C3022 1.350 . S
C3026 C3023 1.463 . S
C3026 N3030 1.427 . S
C3027 H3017 0.929 . S
C3027 C3025 1.433 . S
C3027 N3030 1.384 . S
C3028 H3019 0.929 . S
C3028 C3020 1.378 . S
C3028 C3023 1.350 . S
C3029 H3016 0.929 . S
C3029 C3021 1.433 . S
C3029 N3031 1.384 . S
N3030 C3026 1.427 . S
N3030 C3027 1.384 . S
N3031 C3023 1.427 . S
N3031 C3029 1.384 . S
H3032 C3038 0.930 . S
H3033 C3042 0.930 . S
H3034 C3047 0.929 . S
H3035 C3045 0.929 . S
H3036 C3040 0.929 . S
H3037 C3046 0.929 . S
C3038 H3032 0.930 . S
C3038 C3039 1.367 . S
C3038 C3046 1.378 . S
C3039 C3038 1.367 . S
C3039 C3047 1.433 . S
C3040 H3036 0.929 . S
C3040 C3042 1.378 . S
C3040 C3044 1.350 . S
C3041 C3044 1.463 . S
C3041 C3046 1.350 . S
C3041 N3049 1.427 . S
C3042 H3033 0.930 . S
C3042 C3040 1.378 . S
C3042 C3043 1.367 . S
C3043 C3042 1.367 . S
C3043 C3045 1.433 . S
C3044 C3040 1.350 . S
C3044 C3041 1.463 . S
C3044 N3048 1.427 . S
C3045 H3035 0.929 . S
C3045 C3043 1.433 . S
C3045 N3048 1.384 . S
C3046 H3037 0.929 . S
C3046 C3038 1.378 . S
C3046 C3041 1.350 . S
C3047 H3034 0.929 . S
C3047 C3039 1.433 . S
C3047 N3049 1.384 . S
N3048 C3044 1.427 . S
N3048 C3045 1.384 . S
N3049 C3041 1.427 . S
N3049 C3047 1.384 . S
H3050 C3056 0.930 . S
H3051 C3060 0.930 . S
H3052 C3065 0.929 . S
H3053 C3063 0.929 . S
H3054 C3058 0.929 . S
H3055 C3064 0.929 . S
C3056 H3050 0.930 . S
C3056 C3057 1.367 . S
C3056 C3064 1.378 . S
C3057 C3056 1.367 . S
C3057 C3065 1.433 . S
C3058 H3054 0.929 . S
C3058 C3060 1.378 . S
C3058 C3062 1.350 . S
C3059 C3062 1.463 1_554 S
C3059 C3064 1.350 . S
C3059 N3067 1.427 . S
C3060 H3051 0.930 . S
C3060 C3058 1.378 . S
C3060 C3061 1.367 . S
C3061 C3060 1.367 . S
C3061 C3063 1.433 . S
C3062 C3058 1.350 . S
C3062 C3059 1.463 1_556 S
C3062 N3066 1.427 . S
C3063 H3053 0.929 . S
C3063 C3061 1.433 . S
C3063 N3066 1.384 . S
C3064 H3055 0.929 . S
C3064 C3056 1.378 . S
C3064 C3059 1.350 . S
C3065 H3052 0.929 . S
C3065 C3057 1.433 . S
C3065 N3067 1.384 . S
N3066 C3062 1.427 . S
N3066 C3063 1.384 . S
N3067 C3059 1.427 . S
N3067 C3065 1.384 . S
H3068 C3074 0.930 . S
H3069 C3078 0.930 . S
H3070 C3083 0.929 . S
H3071 C3081 0.929 . S
H3072 C3076 0.929 . S
H3073 C3082 0.929 . S
C3074 H3068 0.930 . S
C3074 C3075 1.367 . S
C3074 C3082 1.378 . S
C3075 C3074 1.367 . S
C3075 C3083 1.433 . S
C3076 H3072 0.929 . S
C3076 C3078 1.378 . S
C3076 C3080 1.350 . S
C3077 C3080 1.463 . S
C3077 C3082 1.350 . S
C3077 N3085 1.427 . S
C3078 H3069 0.930 . S
C3078 C3076 1.378 . S
C3078 C3079 1.367 . S
C3079 C3078 1.367 . S
C3079 C3081 1.433 . S
C3080 C3076 1.350 . S
C3080 C3077 1.463 . S
C3080 N3084 1.427 . S
C3081 H3071 0.929 . S
C3081 C3079 1.433 . S
C3081 N3084 1.384 . S
C3082 H3073 0.929 . S
C3082 C3074 1.378 . S
C3082 C3077 1.350 . S
C3083 H3070 0.929 . S
C3083 C3075 1.433 . S
C3083 N3085 1.384 . S
N3084 C3080 1.427 . S
N3084 C3081 1.384 . S
N3085 C3077 1.427 . S
N3085 C3083 1.384 . S
H3086 C3092 0.930 . S
H3087 C3096 0.930 . S
H3088 C3101 0.929 . S
H3089 C3099 0.929 . S
H3090 C3094 0.929 . S
H3091 C3100 0.929 . S
C3092 H3086 0.930 . S
C3092 C3093 1.367 . S
C3092 C3100 1.378 . S
C3093 C3092 1.367 . S
C3093 C3101 1.433 . S
C3094 H3090 0.929 . S
C3094 C3096 1.378 . S
C3094 C3098 1.350 . S
C3095 C3098 1.463 . S
C3095 C3100 1.350 . S
C3095 N3103 1.427 . S
C3096 H3087 0.930 . S
C3096 C3094 1.378 . S
C3096 C3097 1.367 . S
C3097 C3096 1.367 . S
C3097 C3099 1.433 . S
C3098 C3094 1.350 . S
C3098 C3095 1.463 . S
C3098 N3102 1.427 . S
C3099 H3089 0.929 . S
C3099 C3097 1.433 . S
C3099 N3102 1.384 . S
C3100 H3091 0.929 . S
C3100 C3092 1.378 . S
C3100 C3095 1.350 . S
C3101 H3088 0.929 . S
C3101 C3093 1.433 . S
C3101 N3103 1.384 . S
N3102 C3098 1.427 . S
N3102 C3099 1.384 . S
N3103 C3095 1.427 . S
N3103 C3101 1.384 . S
H3104 C3110 0.930 . S
H3105 C3114 0.930 . S
H3106 C3119 0.929 . S
H3107 C3117 0.929 . S
H3108 C3112 0.929 . S
H3109 C3118 0.929 . S
C3110 H3104 0.930 . S
C3110 C3111 1.367 . S
C3110 C3118 1.378 . S
C3111 C3110 1.367 . S
C3111 C3119 1.433 . S
C3112 H3108 0.929 . S
C3112 C3114 1.378 . S
C3112 C3116 1.350 . S
C3113 C3116 1.463 . S
C3113 C3118 1.350 . S
C3113 N3121 1.427 . S
C3114 H3105 0.930 . S
C3114 C3112 1.378 . S
C3114 C3115 1.367 . S
C3115 C3114 1.367 . S
C3115 C3117 1.433 . S
C3116 C3112 1.350 . S
C3116 C3113 1.463 . S
C3116 N3120 1.427 . S
C3117 H3107 0.929 . S
C3117 C3115 1.433 . S
C3117 N3120 1.384 . S
C3118 H3109 0.929 . S
C3118 C3110 1.378 . S
C3118 C3113 1.350 . S
C3119 H3106 0.929 . S
C3119 C3111 1.433 . S
C3119 N3121 1.384 . S
N3120 C3116 1.427 . S
N3120 C3117 1.384 . S
N3121 C3113 1.427 . S
N3121 C3119 1.384 . S
H3122 C3128 0.930 . S
H3123 C3132 0.930 . S
H3124 C3137 0.929 . S
H3125 C3135 0.929 . S
H3126 C3130 0.929 . S
H3127 C3136 0.929 . S
C3128 H3122 0.930 . S
C3128 C3129 1.367 . S
C3128 C3136 1.378 . S
C3129 C3128 1.367 . S
C3129 C3137 1.433 . S
C3130 H3126 0.929 . S
C3130 C3132 1.378 . S
C3130 C3134 1.350 . S
C3131 C3134 1.463 . S
C3131 C3136 1.350 . S
C3131 N3139 1.427 . S
C3132 H3123 0.930 . S
C3132 C3130 1.378 . S
C3132 C3133 1.367 . S
C3133 C3132 1.367 . S
C3133 C3135 1.433 . S
C3134 C3130 1.350 . S
C3134 C3131 1.463 . S
C3134 N3138 1.427 . S
C3135 H3125 0.929 . S
C3135 C3133 1.433 . S
C3135 N3138 1.384 . S
C3136 H3127 0.929 . S
C3136 C3128 1.378 . S
C3136 C3131 1.350 . S
C3137 H3124 0.929 . S
C3137 C3129 1.433 . S
C3137 N3139 1.384 . S
N3138 C3134 1.427 . S
N3138 C3135 1.384 . S
N3139 C3131 1.427 . S
N3139 C3137 1.384 . S
H3140 C3146 0.930 . S
H3141 C3150 0.930 . S
H3142 C3155 0.929 . S
H3143 C3153 0.929 . S
H3144 C3148 0.929 . S
H3145 C3154 0.929 . S
C3146 H3140 0.930 . S
C3146 C3147 1.367 . S
C3146 C3154 1.378 . S
C3147 C3146 1.367 . S
C3147 C3155 1.433 . S
C3148 H3144 0.929 . S
C3148 C3150 1.378 . S
C3148 C3152 1.350 . S
C3149 C3152 1.463 . S
C3149 C3154 1.350 . S
C3149 N3157 1.427 . S
C3150 H3141 0.930 . S
C3150 C3148 1.378 . S
C3150 C3151 1.367 . S
C3151 C3150 1.367 . S
C3151 C3153 1.433 . S
C3152 C3148 1.350 . S
C3152 C3149 1.463 . S
C3152 N3156 1.427 . S
C3153 H3143 0.929 . S
C3153 C3151 1.433 . S
C3153 N3156 1.384 . S
C3154 H3145 0.929 . S
C3154 C3146 1.378 . S
C3154 C3149 1.350 . S
C3155 H3142 0.929 . S
C3155 C3147 1.433 . S
C3155 N3157 1.384 . S
N3156 C3152 1.427 . S
N3156 C3153 1.384 . S
N3157 C3149 1.427 . S
N3157 C3155 1.384 . S
H3158 C3164 0.930 . S
H3159 C3168 0.930 . S
H3160 C3173 0.929 . S
H3161 C3171 0.929 . S
H3162 C3166 0.929 . S
H3163 C3172 0.929 . S
C3164 H3158 0.930 . S
C3164 C3165 1.367 . S
C3164 C3172 1.378 . S
C3165 C3164 1.367 . S
C3165 C3173 1.433 . S
C3166 H3162 0.929 . S
C3166 C3168 1.378 . S
C3166 C3170 1.350 . S
C3167 C3170 1.463 . S
C3167 C3172 1.350 . S
C3167 N3175 1.427 . S
C3168 H3159 0.930 . S
C3168 C3166 1.378 . S
C3168 C3169 1.367 . S
C3169 C3168 1.367 . S
C3169 C3171 1.433 . S
C3170 C3166 1.350 . S
C3170 C3167 1.463 . S
C3170 N3174 1.427 . S
C3171 H3161 0.929 . S
C3171 C3169 1.433 . S
C3171 N3174 1.384 . S
C3172 H3163 0.929 . S
C3172 C3164 1.378 . S
C3172 C3167 1.350 . S
C3173 H3160 0.929 . S
C3173 C3165 1.433 . S
C3173 N3175 1.384 . S
N3174 C3170 1.427 . S
N3174 C3171 1.384 . S
N3175 C3167 1.427 . S
N3175 C3173 1.384 . S
H3176 C3182 0.930 . S
H3177 C3186 0.930 . S
H3178 C3191 0.929 . S
H3179 C3189 0.929 . S
H3180 C3184 0.929 . S
H3181 C3190 0.929 . S
C3182 H3176 0.930 . S
C3182 C3183 1.367 . S
C3182 C3190 1.378 . S
C3183 C3182 1.367 . S
C3183 C3191 1.433 . S
C3184 H3180 0.929 . S
C3184 C3186 1.378 . S
C3184 C3188 1.350 . S
C3185 C3188 1.463 . S
C3185 C3190 1.350 . S
C3185 N3193 1.427 . S
C3186 H3177 0.930 . S
C3186 C3184 1.378 . S
C3186 C3187 1.367 . S
C3187 C3186 1.367 . S
C3187 C3189 1.433 . S
C3188 C3184 1.350 . S
C3188 C3185 1.463 . S
C3188 N3192 1.427 . S
C3189 H3179 0.929 . S
C3189 C3187 1.433 . S
C3189 N3192 1.384 . S
C3190 H3181 0.929 . S
C3190 C3182 1.378 . S
C3190 C3185 1.350 . S
C3191 H3178 0.929 . S
C3191 C3183 1.433 . S
C3191 N3193 1.384 . S
N3192 C3188 1.427 . S
N3192 C3189 1.384 . S
N3193 C3185 1.427 . S
N3193 C3191 1.384 . S
H3194 C3200 0.930 . S
H3195 C3204 0.930 . S
H3196 C3209 0.929 . S
H3197 C3207 0.929 . S
H3198 C3202 0.929 . S
H3199 C3208 0.929 . S
C3200 H3194 0.930 . S
C3200 C3201 1.367 . S
C3200 C3208 1.378 . S
C3201 C3200 1.367 . S
C3201 C3209 1.433 . S
C3202 H3198 0.929 . S
C3202 C3204 1.378 . S
C3202 C3206 1.350 . S
C3203 C3206 1.463 . S
C3203 C3208 1.350 . S
C3203 N3211 1.427 . S
C3204 H3195 0.930 . S
C3204 C3202 1.378 . S
C3204 C3205 1.367 . S
C3205 C3204 1.367 . S
C3205 C3207 1.433 . S
C3206 C3202 1.350 . S
C3206 C3203 1.463 . S
C3206 N3210 1.427 . S
C3207 H3197 0.929 . S
C3207 C3205 1.433 . S
C3207 N3210 1.384 . S
C3208 H3199 0.929 . S
C3208 C3200 1.378 . S
C3208 C3203 1.350 . S
C3209 H3196 0.929 . S
C3209 C3201 1.433 . S
C3209 N3211 1.384 . S
N3210 C3206 1.427 . S
N3210 C3207 1.384 . S
N3211 C3203 1.427 . S
N3211 C3209 1.384 . S
H3212 C3218 0.930 . S
H3213 C3222 0.930 . S
H3214 C3227 0.929 . S
H3215 C3225 0.929 . S
H3216 C3220 0.929 . S
H3217 C3226 0.929 . S
C3218 H3212 0.930 . S
C3218 C3219 1.367 . S
C3218 C3226 1.378 . S
C3219 C3218 1.367 . S
C3219 C3227 1.433 . S
C3220 H3216 0.929 . S
C3220 C3222 1.378 . S
C3220 C3224 1.350 . S
C3221 C3224 1.463 . S
C3221 C3226 1.350 . S
C3221 N3229 1.427 . S
C3222 H3213 0.930 . S
C3222 C3220 1.378 . S
C3222 C3223 1.367 . S
C3223 C3222 1.367 . S
C3223 C3225 1.433 . S
C3224 C3220 1.350 . S
C3224 C3221 1.463 . S
C3224 N3228 1.427 . S
C3225 H3215 0.929 . S
C3225 C3223 1.433 . S
C3225 N3228 1.384 . S
C3226 H3217 0.929 . S
C3226 C3218 1.378 . S
C3226 C3221 1.350 . S
C3227 H3214 0.929 . S
C3227 C3219 1.433 . S
C3227 N3229 1.384 . S
N3228 C3224 1.427 . S
N3228 C3225 1.384 . S
N3229 C3221 1.427 . S
N3229 C3227 1.384 . S
H3230 C3236 0.930 . S
H3231 C3240 0.930 . S
H3232 C3245 0.929 . S
H3233 C3243 0.929 . S
H3234 C3238 0.929 . S
H3235 C3244 0.929 . S
C3236 H3230 0.930 . S
C3236 C3237 1.367 . S
C3236 C3244 1.378 . S
C3237 C3236 1.367 . S
C3237 C3245 1.433 . S
C3238 H3234 0.929 . S
C3238 C3240 1.378 . S
C3238 C3242 1.350 . S
C3239 C3242 1.463 . S
C3239 C3244 1.350 . S
C3239 N3247 1.427 . S
C3240 H3231 0.930 . S
C3240 C3238 1.378 . S
C3240 C3241 1.367 . S
C3241 C3240 1.367 . S
C3241 C3243 1.433 . S
C3242 C3238 1.350 . S
C3242 C3239 1.463 . S
C3242 N3246 1.427 . S
C3243 H3233 0.929 . S
C3243 C3241 1.433 . S
C3243 N3246 1.384 . S
C3244 H3235 0.929 . S
C3244 C3236 1.378 . S
C3244 C3239 1.350 . S
C3245 H3232 0.929 . S
C3245 C3237 1.433 . S
C3245 N3247 1.384 . S
N3246 C3242 1.427 . S
N3246 C3243 1.384 . S
N3247 C3239 1.427 . S
N3247 C3245 1.384 . S
H3248 C3254 0.930 . S
H3249 C3258 0.930 . S
H3250 C3263 0.929 . S
H3251 C3261 0.929 . S
H3252 C3256 0.929 . S
H3253 C3262 0.929 . S
C3254 H3248 0.930 . S
C3254 C3255 1.367 . S
C3254 C3262 1.378 . S
C3255 C3254 1.367 . S
C3255 C3263 1.433 . S
C3256 H3252 0.929 . S
C3256 C3258 1.378 . S
C3256 C3260 1.350 . S
C3257 C3260 1.463 . S
C3257 C3262 1.350 . S
C3257 N3265 1.427 . S
C3258 H3249 0.930 . S
C3258 C3256 1.378 . S
C3258 C3259 1.367 . S
C3259 C3258 1.367 . S
C3259 C3261 1.433 . S
C3260 C3256 1.350 . S
C3260 C3257 1.463 . S
C3260 N3264 1.427 . S
C3261 H3251 0.929 . S
C3261 C3259 1.433 . S
C3261 N3264 1.384 . S
C3262 H3253 0.929 . S
C3262 C3254 1.378 . S
C3262 C3257 1.350 . S
C3263 H3250 0.929 . S
C3263 C3255 1.433 . S
C3263 N3265 1.384 . S
N3264 C3260 1.427 . S
N3264 C3261 1.384 . S
N3265 C3257 1.427 . S
N3265 C3263 1.384 . S
H3266 C3272 0.930 . S
H3267 C3276 0.930 . S
H3268 C3281 0.929 . S
H3269 C3279 0.929 . S
H3270 C3274 0.929 . S
H3271 C3280 0.929 . S
C3272 H3266 0.930 . S
C3272 C3273 1.367 . S
C3272 C3280 1.378 . S
C3273 C3272 1.367 . S
C3273 C3281 1.433 . S
C3274 H3270 0.929 . S
C3274 C3276 1.378 . S
C3274 C3278 1.350 . S
C3275 C3278 1.463 . S
C3275 C3280 1.350 . S
C3275 N3283 1.427 . S
C3276 H3267 0.930 . S
C3276 C3274 1.378 . S
C3276 C3277 1.367 . S
C3277 C3276 1.367 . S
C3277 C3279 1.433 . S
C3278 C3274 1.350 . S
C3278 C3275 1.463 . S
C3278 N3282 1.427 . S
C3279 H3269 0.929 . S
C3279 C3277 1.433 . S
C3279 N3282 1.384 . S
C3280 H3271 0.929 . S
C3280 C3272 1.378 . S
C3280 C3275 1.350 . S
C3281 H3268 0.929 . S
C3281 C3273 1.433 . S
C3281 N3283 1.384 . S
N3282 C3278 1.427 . S
N3282 C3279 1.384 . S
N3283 C3275 1.427 . S
N3283 C3281 1.384 . S
H3284 C3290 0.930 . S
H3285 C3294 0.930 . S
H3286 C3299 0.929 . S
H3287 C3297 0.929 . S
H3288 C3292 0.929 . S
H3289 C3298 0.929 . S
C3290 H3284 0.930 . S
C3290 C3291 1.367 . S
C3290 C3298 1.378 . S
C3291 C3290 1.367 . S
C3291 C3299 1.433 . S
C3292 H3288 0.929 . S
C3292 C3294 1.378 . S
C3292 C3296 1.350 . S
C3293 C3296 1.463 . S
C3293 C3298 1.350 . S
C3293 N3301 1.427 . S
C3294 H3285 0.930 . S
C3294 C3292 1.378 . S
C3294 C3295 1.367 . S
C3295 C3294 1.367 . S
C3295 C3297 1.433 . S
C3296 C3292 1.350 . S
C3296 C3293 1.463 . S
C3296 N3300 1.427 . S
C3297 H3287 0.929 . S
C3297 C3295 1.433 . S
C3297 N3300 1.384 . S
C3298 H3289 0.929 . S
C3298 C3290 1.378 . S
C3298 C3293 1.350 . S
C3299 H3286 0.929 . S
C3299 C3291 1.433 . S
C3299 N3301 1.384 . S
N3300 C3296 1.427 . S
N3300 C3297 1.384 . S
N3301 C3293 1.427 . S
N3301 C3299 1.384 . S
H3302 C3308 0.930 . S
H3303 C3312 0.930 . S
H3304 C3317 0.929 . S
H3305 C3315 0.929 . S
H3306 C3310 0.929 . S
H3307 C3316 0.929 . S
C3308 H3302 0.930 . S
C3308 C3309 1.367 . S
C3308 C3316 1.378 . S
C3309 C3308 1.367 . S
C3309 C3317 1.433 . S
C3310 H3306 0.929 . S
C3310 C3312 1.378 . S
C3310 C3314 1.350 . S
C3311 C3314 1.463 . S
C3311 C3316 1.350 . S
C3311 N3319 1.427 . S
C3312 H3303 0.930 . S
C3312 C3310 1.378 . S
C3312 C3313 1.367 . S
C3313 C3312 1.367 . S
C3313 C3315 1.433 . S
C3314 C3310 1.350 . S
C3314 C3311 1.463 . S
C3314 N3318 1.427 . S
C3315 H3305 0.929 . S
C3315 C3313 1.433 . S
C3315 N3318 1.384 . S
C3316 H3307 0.929 . S
C3316 C3308 1.378 . S
C3316 C3311 1.350 . S
C3317 H3304 0.929 . S
C3317 C3309 1.433 . S
C3317 N3319 1.384 . S
N3318 C3314 1.427 . S
N3318 C3315 1.384 . S
N3319 C3311 1.427 . S
N3319 C3317 1.384 . S
H3320 C3326 0.930 . S
H3321 C3330 0.930 . S
H3322 C3335 0.929 . S
H3323 C3333 0.929 . S
H3324 C3328 0.929 . S
H3325 C3334 0.929 . S
C3326 H3320 0.930 . S
C3326 C3327 1.367 . S
C3326 C3334 1.378 . S
C3327 C3326 1.367 . S
C3327 C3335 1.433 . S
C3328 H3324 0.929 . S
C3328 C3330 1.378 . S
C3328 C3332 1.350 . S
C3329 C3332 1.463 . S
C3329 C3334 1.350 . S
C3329 N3337 1.427 . S
C3330 H3321 0.930 . S
C3330 C3328 1.378 . S
C3330 C3331 1.367 . S
C3331 C3330 1.367 . S
C3331 C3333 1.433 . S
C3332 C3328 1.350 . S
C3332 C3329 1.463 . S
C3332 N3336 1.427 . S
C3333 H3323 0.929 . S
C3333 C3331 1.433 . S
C3333 N3336 1.384 . S
C3334 H3325 0.929 . S
C3334 C3326 1.378 . S
C3334 C3329 1.350 . S
C3335 H3322 0.929 . S
C3335 C3327 1.433 . S
C3335 N3337 1.384 . S
N3336 C3332 1.427 . S
N3336 C3333 1.384 . S
N3337 C3329 1.427 . S
N3337 C3335 1.384 . S
H3338 C3344 0.930 . S
H3339 C3348 0.930 . S
H3340 C3353 0.929 . S
H3341 C3351 0.929 . S
H3342 C3346 0.929 . S
H3343 C3352 0.929 . S
C3344 H3338 0.930 . S
C3344 C3345 1.367 . S
C3344 C3352 1.378 . S
C3345 C3344 1.367 . S
C3345 C3353 1.433 . S
C3346 H3342 0.929 . S
C3346 C3348 1.378 . S
C3346 C3350 1.350 . S
C3347 C3350 1.463 . S
C3347 C3352 1.350 . S
C3347 N3355 1.427 . S
C3348 H3339 0.930 . S
C3348 C3346 1.378 . S
C3348 C3349 1.367 . S
C3349 C3348 1.367 . S
C3349 C3351 1.433 . S
C3350 C3346 1.350 . S
C3350 C3347 1.463 . S
C3350 N3354 1.427 . S
C3351 H3341 0.929 . S
C3351 C3349 1.433 . S
C3351 N3354 1.384 . S
C3352 H3343 0.929 . S
C3352 C3344 1.378 . S
C3352 C3347 1.350 . S
C3353 H3340 0.929 . S
C3353 C3345 1.433 . S
C3353 N3355 1.384 . S
N3354 C3350 1.427 . S
N3354 C3351 1.384 . S
N3355 C3347 1.427 . S
N3355 C3353 1.384 . S
H3356 C3362 0.930 . S
H3357 C3366 0.930 . S
H3358 C3371 0.929 . S
H3359 C3369 0.929 . S
H3360 C3364 0.929 . S
H3361 C3370 0.929 . S
C3362 H3356 0.930 . S
C3362 C3363 1.367 . S
C3362 C3370 1.378 . S
C3363 C3362 1.367 . S
C3363 C3371 1.433 . S
C3364 H3360 0.929 . S
C3364 C3366 1.378 . S
C3364 C3368 1.350 . S
C3365 C3368 1.463 . S
C3365 C3370 1.350 . S
C3365 N3373 1.427 . S
C3366 H3357 0.930 . S
C3366 C3364 1.378 . S
C3366 C3367 1.367 . S
C3367 C3366 1.367 . S
C3367 C3369 1.433 . S
C3368 C3364 1.350 . S
C3368 C3365 1.463 . S
C3368 N3372 1.427 . S
C3369 H3359 0.929 . S
C3369 C3367 1.433 . S
C3369 N3372 1.384 . S
C3370 H3361 0.929 . S
C3370 C3362 1.378 . S
C3370 C3365 1.350 . S
C3371 H3358 0.929 . S
C3371 C3363 1.433 . S
C3371 N3373 1.384 . S
N3372 C3368 1.427 . S
N3372 C3369 1.384 . S
N3373 C3365 1.427 . S
N3373 C3371 1.384 . S
H3374 C3380 0.930 . S
H3375 C3384 0.930 . S
H3376 C3389 0.929 . S
H3377 C3387 0.929 . S
H3378 C3382 0.929 . S
H3379 C3388 0.929 . S
C3380 H3374 0.930 . S
C3380 C3381 1.367 . S
C3380 C3388 1.378 . S
C3381 C3380 1.367 . S
C3381 C3389 1.433 . S
C3382 H3378 0.929 . S
C3382 C3384 1.378 . S
C3382 C3386 1.350 . S
C3383 C3386 1.463 . S
C3383 C3388 1.350 . S
C3383 N3391 1.427 . S
C3384 H3375 0.930 . S
C3384 C3382 1.378 . S
C3384 C3385 1.367 . S
C3385 C3384 1.367 . S
C3385 C3387 1.433 . S
C3386 C3382 1.350 . S
C3386 C3383 1.463 . S
C3386 N3390 1.427 . S
C3387 H3377 0.929 . S
C3387 C3385 1.433 . S
C3387 N3390 1.384 . S
C3388 H3379 0.929 . S
C3388 C3380 1.378 . S
C3388 C3383 1.350 . S
C3389 H3376 0.929 . S
C3389 C3381 1.433 . S
C3389 N3391 1.384 . S
N3390 C3386 1.427 . S
N3390 C3387 1.384 . S
N3391 C3383 1.427 . S
N3391 C3389 1.384 . S
H3392 C3398 0.930 . S
H3393 C3402 0.930 . S
H3394 C3407 0.929 . S
H3395 C3405 0.929 . S
H3396 C3400 0.929 . S
H3397 C3406 0.929 . S
C3398 H3392 0.930 . S
C3398 C3399 1.367 . S
C3398 C3406 1.378 . S
C3399 C3398 1.367 . S
C3399 C3407 1.433 . S
C3400 H3396 0.929 . S
C3400 C3402 1.378 . S
C3400 C3404 1.350 . S
C3401 C3404 1.463 . S
C3401 C3406 1.350 . S
C3401 N3409 1.427 . S
C3402 H3393 0.930 . S
C3402 C3400 1.378 . S
C3402 C3403 1.367 . S
C3403 C3402 1.367 . S
C3403 C3405 1.433 . S
C3404 C3400 1.350 . S
C3404 C3401 1.463 . S
C3404 N3408 1.427 . S
C3405 H3395 0.929 . S
C3405 C3403 1.433 . S
C3405 N3408 1.384 . S
C3406 H3397 0.929 . S
C3406 C3398 1.378 . S
C3406 C3401 1.350 . S
C3407 H3394 0.929 . S
C3407 C3399 1.433 . S
C3407 N3409 1.384 . S
N3408 C3404 1.427 . S
N3408 C3405 1.384 . S
N3409 C3401 1.427 . S
N3409 C3407 1.384 . S
H3410 C3416 0.930 . S
H3411 C3420 0.930 . S
H3412 C3425 0.929 . S
H3413 C3423 0.929 . S
H3414 C3418 0.929 . S
H3415 C3424 0.929 . S
C3416 H3410 0.930 . S
C3416 C3417 1.367 . S
C3416 C3424 1.378 . S
C3417 C3416 1.367 . S
C3417 C3425 1.433 . S
C3418 H3414 0.929 . S
C3418 C3420 1.378 . S
C3418 C3422 1.350 . S
C3419 C3422 1.463 . S
C3419 C3424 1.350 . S
C3419 N3427 1.427 . S
C3420 H3411 0.930 . S
C3420 C3418 1.378 . S
C3420 C3421 1.367 . S
C3421 C3420 1.367 . S
C3421 C3423 1.433 . S
C3422 C3418 1.350 . S
C3422 C3419 1.463 . S
C3422 N3426 1.427 . S
C3423 H3413 0.929 . S
C3423 C3421 1.433 . S
C3423 N3426 1.384 . S
C3424 H3415 0.929 . S
C3424 C3416 1.378 . S
C3424 C3419 1.350 . S
C3425 H3412 0.929 . S
C3425 C3417 1.433 . S
C3425 N3427 1.384 . S
N3426 C3422 1.427 . S
N3426 C3423 1.384 . S
N3427 C3419 1.427 . S
N3427 C3425 1.384 . S
H3428 C3434 0.930 . S
H3429 C3438 0.930 . S
H3430 C3443 0.929 . S
H3431 C3441 0.929 . S
H3432 C3436 0.929 . S
H3433 C3442 0.929 . S
C3434 H3428 0.930 . S
C3434 C3435 1.367 . S
C3434 C3442 1.378 . S
C3435 C3434 1.367 . S
C3435 C3443 1.433 . S
C3436 H3432 0.929 . S
C3436 C3438 1.378 . S
C3436 C3440 1.350 . S
C3437 C3440 1.463 . S
C3437 C3442 1.350 . S
C3437 N3445 1.427 . S
C3438 H3429 0.930 . S
C3438 C3436 1.378 . S
C3438 C3439 1.367 . S
C3439 C3438 1.367 . S
C3439 C3441 1.433 . S
C3440 C3436 1.350 . S
C3440 C3437 1.463 . S
C3440 N3444 1.427 . S
C3441 H3431 0.929 . S
C3441 C3439 1.433 . S
C3441 N3444 1.384 . S
C3442 H3433 0.929 . S
C3442 C3434 1.378 . S
C3442 C3437 1.350 . S
C3443 H3430 0.929 . S
C3443 C3435 1.433 . S
C3443 N3445 1.384 . S
N3444 C3440 1.427 . S
N3444 C3441 1.384 . S
N3445 C3437 1.427 . S
N3445 C3443 1.384 . S
H3446 C3452 0.930 . S
H3447 C3456 0.930 . S
H3448 C3461 0.929 . S
H3449 C3459 0.929 . S
H3450 C3454 0.929 . S
H3451 C3460 0.929 . S
C3452 H3446 0.930 . S
C3452 C3453 1.367 . S
C3452 C3460 1.378 . S
C3453 C3452 1.367 . S
C3453 C3461 1.433 . S
C3454 H3450 0.929 . S
C3454 C3456 1.378 . S
C3454 C3458 1.350 . S
C3455 C3458 1.463 . S
C3455 C3460 1.350 . S
C3455 N3463 1.427 . S
C3456 H3447 0.930 . S
C3456 C3454 1.378 . S
C3456 C3457 1.367 . S
C3457 C3456 1.367 . S
C3457 C3459 1.433 . S
C3458 C3454 1.350 . S
C3458 C3455 1.463 . S
C3458 N3462 1.427 . S
C3459 H3449 0.929 . S
C3459 C3457 1.433 . S
C3459 N3462 1.384 . S
C3460 H3451 0.929 . S
C3460 C3452 1.378 . S
C3460 C3455 1.350 . S
C3461 H3448 0.929 . S
C3461 C3453 1.433 . S
C3461 N3463 1.384 . S
N3462 C3458 1.427 . S
N3462 C3459 1.384 . S
N3463 C3455 1.427 . S
N3463 C3461 1.384 . S
H3464 C3470 0.930 . S
H3465 C3474 0.930 . S
H3466 C3479 0.929 . S
H3467 C3477 0.929 . S
H3468 C3472 0.929 . S
H3469 C3478 0.929 . S
C3470 H3464 0.930 . S
C3470 C3471 1.367 . S
C3470 C3478 1.378 . S
C3471 C3470 1.367 . S
C3471 C3479 1.433 . S
C3472 H3468 0.929 . S
C3472 C3474 1.378 . S
C3472 C3476 1.350 . S
C3473 C3476 1.463 . S
C3473 C3478 1.350 . S
C3473 N3481 1.427 . S
C3474 H3465 0.930 . S
C3474 C3472 1.378 . S
C3474 C3475 1.367 . S
C3475 C3474 1.367 . S
C3475 C3477 1.433 . S
C3476 C3472 1.350 . S
C3476 C3473 1.463 . S
C3476 N3480 1.427 . S
C3477 H3467 0.929 . S
C3477 C3475 1.433 . S
C3477 N3480 1.384 . S
C3478 H3469 0.929 . S
C3478 C3470 1.378 . S
C3478 C3473 1.350 . S
C3479 H3466 0.929 . S
C3479 C3471 1.433 . S
C3479 N3481 1.384 . S
N3480 C3476 1.427 . S
N3480 C3477 1.384 . S
N3481 C3473 1.427 . S
N3481 C3479 1.384 . S
H3482 C3488 0.930 . S
H3483 C3492 0.930 . S
H3484 C3497 0.929 . S
H3485 C3495 0.929 . S
H3486 C3490 0.929 . S
H3487 C3496 0.929 . S
C3488 H3482 0.930 . S
C3488 C3489 1.367 . S
C3488 C3496 1.378 . S
C3489 C3488 1.367 . S
C3489 C3497 1.433 . S
C3490 H3486 0.929 . S
C3490 C3492 1.378 . S
C3490 C3494 1.350 . S
C3491 C3494 1.463 . S
C3491 C3496 1.350 . S
C3491 N3499 1.427 . S
C3492 H3483 0.930 . S
C3492 C3490 1.378 . S
C3492 C3493 1.367 . S
C3493 C3492 1.367 . S
C3493 C3495 1.433 . S
C3494 C3490 1.350 . S
C3494 C3491 1.463 . S
C3494 N3498 1.427 . S
C3495 H3485 0.929 . S
C3495 C3493 1.433 . S
C3495 N3498 1.384 . S
C3496 H3487 0.929 . S
C3496 C3488 1.378 . S
C3496 C3491 1.350 . S
C3497 H3484 0.929 . S
C3497 C3489 1.433 . S
C3497 N3499 1.384 . S
N3498 C3494 1.427 . S
N3498 C3495 1.384 . S
N3499 C3491 1.427 . S
N3499 C3497 1.384 . S
H3500 C3506 0.930 . S
H3501 C3510 0.930 . S
H3502 C3515 0.929 . S
H3503 C3513 0.929 . S
H3504 C3508 0.929 . S
H3505 C3514 0.929 . S
C3506 H3500 0.930 . S
C3506 C3507 1.367 . S
C3506 C3514 1.378 . S
C3507 C3506 1.367 . S
C3507 C3515 1.433 . S
C3508 H3504 0.929 . S
C3508 C3510 1.378 . S
C3508 C3512 1.350 . S
C3509 C3512 1.463 . S
C3509 C3514 1.350 . S
C3509 N3517 1.427 . S
C3510 H3501 0.930 . S
C3510 C3508 1.378 . S
C3510 C3511 1.367 . S
C3511 C3510 1.367 . S
C3511 C3513 1.433 . S
C3512 C3508 1.350 . S
C3512 C3509 1.463 . S
C3512 N3516 1.427 . S
C3513 H3503 0.929 . S
C3513 C3511 1.433 . S
C3513 N3516 1.384 . S
C3514 H3505 0.929 . S
C3514 C3506 1.378 . S
C3514 C3509 1.350 . S
C3515 H3502 0.929 . S
C3515 C3507 1.433 . S
C3515 N3517 1.384 . S
N3516 C3512 1.427 . S
N3516 C3513 1.384 . S
N3517 C3509 1.427 . S
N3517 C3515 1.384 . S
H3518 C3524 0.930 . S
H3519 C3528 0.930 . S
H3520 C3533 0.929 . S
H3521 C3531 0.929 . S
H3522 C3526 0.929 . S
H3523 C3532 0.929 . S
C3524 H3518 0.930 . S
C3524 C3525 1.367 . S
C3524 C3532 1.378 . S
C3525 C3524 1.367 . S
C3525 C3533 1.433 . S
C3526 H3522 0.929 . S
C3526 C3528 1.378 . S
C3526 C3530 1.350 . S
C3527 C3530 1.463 . S
C3527 C3532 1.350 . S
C3527 N3535 1.427 . S
C3528 H3519 0.930 . S
C3528 C3526 1.378 . S
C3528 C3529 1.367 . S
C3529 C3528 1.367 . S
C3529 C3531 1.433 . S
C3530 C3526 1.350 . S
C3530 C3527 1.463 . S
C3530 N3534 1.427 . S
C3531 H3521 0.929 . S
C3531 C3529 1.433 . S
C3531 N3534 1.384 . S
C3532 H3523 0.929 . S
C3532 C3524 1.378 . S
C3532 C3527 1.350 . S
C3533 H3520 0.929 . S
C3533 C3525 1.433 . S
C3533 N3535 1.384 . S
N3534 C3530 1.427 . S
N3534 C3531 1.384 . S
N3535 C3527 1.427 . S
N3535 C3533 1.384 . S
H3536 C3542 0.930 . S
H3537 C3546 0.930 . S
H3538 C3551 0.929 . S
H3539 C3549 0.929 . S
H3540 C3544 0.929 . S
H3541 C3550 0.929 . S
C3542 H3536 0.930 . S
C3542 C3543 1.367 . S
C3542 C3550 1.378 . S
C3543 C3542 1.367 . S
C3543 C3551 1.433 . S
C3544 H3540 0.929 . S
C3544 C3546 1.378 . S
C3544 C3548 1.350 . S
C3545 C3548 1.463 . S
C3545 C3550 1.350 . S
C3545 N3553 1.427 . S
C3546 H3537 0.930 . S
C3546 C3544 1.378 . S
C3546 C3547 1.367 . S
C3547 C3546 1.367 . S
C3547 C3549 1.433 . S
C3548 C3544 1.350 . S
C3548 C3545 1.463 . S
C3548 N3552 1.427 . S
C3549 H3539 0.929 . S
C3549 C3547 1.433 . S
C3549 N3552 1.384 . S
C3550 H3541 0.929 . S
C3550 C3542 1.378 . S
C3550 C3545 1.350 . S
C3551 H3538 0.929 . S
C3551 C3543 1.433 . S
C3551 N3553 1.384 . S
N3552 C3548 1.427 . S
N3552 C3549 1.384 . S
N3553 C3545 1.427 . S
N3553 C3551 1.384 . S
H3554 C3560 0.930 . S
H3555 C3564 0.930 . S
H3556 C3569 0.929 . S
H3557 C3567 0.929 . S
H3558 C3562 0.929 . S
H3559 C3568 0.929 . S
C3560 H3554 0.930 . S
C3560 C3561 1.367 . S
C3560 C3568 1.378 . S
C3561 C3560 1.367 . S
C3561 C3569 1.433 . S
C3562 H3558 0.929 . S
C3562 C3564 1.378 . S
C3562 C3566 1.350 . S
C3563 C3566 1.463 . S
C3563 C3568 1.350 . S
C3563 N3571 1.427 . S
C3564 H3555 0.930 . S
C3564 C3562 1.378 . S
C3564 C3565 1.367 . S
C3565 C3564 1.367 . S
C3565 C3567 1.433 . S
C3566 C3562 1.350 . S
C3566 C3563 1.463 . S
C3566 N3570 1.427 . S
C3567 H3557 0.929 . S
C3567 C3565 1.433 . S
C3567 N3570 1.384 . S
C3568 H3559 0.929 . S
C3568 C3560 1.378 . S
C3568 C3563 1.350 . S
C3569 H3556 0.929 . S
C3569 C3561 1.433 . S
C3569 N3571 1.384 . S
N3570 C3566 1.427 . S
N3570 C3567 1.384 . S
N3571 C3563 1.427 . S
N3571 C3569 1.384 . S
H3572 C3578 0.930 . S
H3573 C3582 0.930 . S
H3574 C3587 0.929 . S
H3575 C3585 0.929 . S
H3576 C3580 0.929 . S
H3577 C3586 0.929 . S
C3578 H3572 0.930 . S
C3578 C3579 1.367 . S
C3578 C3586 1.378 . S
C3579 C3578 1.367 . S
C3579 C3587 1.433 . S
C3580 H3576 0.929 . S
C3580 C3582 1.378 . S
C3580 C3584 1.350 . S
C3581 C3584 1.463 . S
C3581 C3586 1.350 . S
C3581 N3589 1.427 . S
C3582 H3573 0.930 . S
C3582 C3580 1.378 . S
C3582 C3583 1.367 . S
C3583 C3582 1.367 . S
C3583 C3585 1.433 . S
C3584 C3580 1.350 . S
C3584 C3581 1.463 . S
C3584 N3588 1.427 . S
C3585 H3575 0.929 . S
C3585 C3583 1.433 . S
C3585 N3588 1.384 . S
C3586 H3577 0.929 . S
C3586 C3578 1.378 . S
C3586 C3581 1.350 . S
C3587 H3574 0.929 . S
C3587 C3579 1.433 . S
C3587 N3589 1.384 . S
N3588 C3584 1.427 . S
N3588 C3585 1.384 . S
N3589 C3581 1.427 . S
N3589 C3587 1.384 . S
H3590 C3596 0.930 . S
H3591 C3600 0.930 . S
H3592 C3605 0.929 . S
H3593 C3603 0.929 . S
H3594 C3598 0.929 . S
H3595 C3604 0.929 . S
C3596 H3590 0.930 . S
C3596 C3597 1.367 . S
C3596 C3604 1.378 . S
C3597 C3596 1.367 . S
C3597 C3605 1.433 . S
C3598 H3594 0.929 . S
C3598 C3600 1.378 . S
C3598 C3602 1.350 . S
C3599 C3602 1.463 . S
C3599 C3604 1.350 . S
C3599 N3607 1.427 . S
C3600 H3591 0.930 . S
C3600 C3598 1.378 . S
C3600 C3601 1.367 . S
C3601 C3600 1.367 . S
C3601 C3603 1.433 . S
C3602 C3598 1.350 . S
C3602 C3599 1.463 . S
C3602 N3606 1.427 . S
C3603 H3593 0.929 . S
C3603 C3601 1.433 . S
C3603 N3606 1.384 . S
C3604 H3595 0.929 . S
C3604 C3596 1.378 . S
C3604 C3599 1.350 . S
C3605 H3592 0.929 . S
C3605 C3597 1.433 . S
C3605 N3607 1.384 . S
N3606 C3602 1.427 . S
N3606 C3603 1.384 . S
N3607 C3599 1.427 . S
N3607 C3605 1.384 . S
H3608 C3614 0.930 . S
H3609 C3618 0.930 . S
H3610 C3623 0.929 . S
H3611 C3621 0.929 . S
H3612 C3616 0.929 . S
H3613 C3622 0.929 . S
C3614 H3608 0.930 . S
C3614 C3615 1.367 . S
C3614 C3622 1.378 . S
C3615 C3614 1.367 . S
C3615 C3623 1.433 . S
C3616 H3612 0.929 . S
C3616 C3618 1.378 . S
C3616 C3620 1.350 . S
C3617 C3620 1.463 . S
C3617 C3622 1.350 . S
C3617 N3625 1.427 . S
C3618 H3609 0.930 . S
C3618 C3616 1.378 . S
C3618 C3619 1.367 . S
C3619 C3618 1.367 . S
C3619 C3621 1.433 . S
C3620 C3616 1.350 . S
C3620 C3617 1.463 . S
C3620 N3624 1.427 . S
C3621 H3611 0.929 . S
C3621 C3619 1.433 . S
C3621 N3624 1.384 . S
C3622 H3613 0.929 . S
C3622 C3614 1.378 . S
C3622 C3617 1.350 . S
C3623 H3610 0.929 . S
C3623 C3615 1.433 . S
C3623 N3625 1.384 . S
N3624 C3620 1.427 . S
N3624 C3621 1.384 . S
N3625 C3617 1.427 . S
N3625 C3623 1.384 . S
H3626 C3632 0.930 . S
H3627 C3636 0.930 . S
H3628 C3641 0.929 . S
H3629 C3639 0.929 . S
H3630 C3634 0.929 . S
H3631 C3640 0.929 . S
C3632 H3626 0.930 . S
C3632 C3633 1.367 . S
C3632 C3640 1.378 . S
C3633 C3632 1.367 . S
C3633 C3641 1.433 . S
C3634 H3630 0.929 . S
C3634 C3636 1.378 . S
C3634 C3638 1.350 . S
C3635 C3638 1.463 . S
C3635 C3640 1.350 . S
C3635 N3643 1.427 . S
C3636 H3627 0.930 . S
C3636 C3634 1.378 . S
C3636 C3637 1.367 . S
C3637 C3636 1.367 . S
C3637 C3639 1.433 . S
C3638 C3634 1.350 . S
C3638 C3635 1.463 . S
C3638 N3642 1.427 . S
C3639 H3629 0.929 . S
C3639 C3637 1.433 . S
C3639 N3642 1.384 . S
C3640 H3631 0.929 . S
C3640 C3632 1.378 . S
C3640 C3635 1.350 . S
C3641 H3628 0.929 . S
C3641 C3633 1.433 . S
C3641 N3643 1.384 . S
N3642 C3638 1.427 . S
N3642 C3639 1.384 . S
N3643 C3635 1.427 . S
N3643 C3641 1.384 . S
H3644 C3650 0.930 . S
H3645 C3654 0.930 . S
H3646 C3659 0.929 . S
H3647 C3657 0.929 . S
H3648 C3652 0.929 . S
H3649 C3658 0.929 . S
C3650 H3644 0.930 . S
C3650 C3651 1.367 . S
C3650 C3658 1.378 . S
C3651 C3650 1.367 . S
C3651 C3659 1.433 . S
C3652 H3648 0.929 . S
C3652 C3654 1.378 . S
C3652 C3656 1.350 . S
C3653 C3656 1.463 . S
C3653 C3658 1.350 . S
C3653 N3661 1.427 . S
C3654 H3645 0.930 . S
C3654 C3652 1.378 . S
C3654 C3655 1.367 . S
C3655 C3654 1.367 . S
C3655 C3657 1.433 . S
C3656 C3652 1.350 . S
C3656 C3653 1.463 . S
C3656 N3660 1.427 . S
C3657 H3647 0.929 . S
C3657 C3655 1.433 . S
C3657 N3660 1.384 . S
C3658 H3649 0.929 . S
C3658 C3650 1.378 . S
C3658 C3653 1.350 . S
C3659 H3646 0.929 . S
C3659 C3651 1.433 . S
C3659 N3661 1.384 . S
N3660 C3656 1.427 . S
N3660 C3657 1.384 . S
N3661 C3653 1.427 . S
N3661 C3659 1.384 . S
H3662 C3668 0.930 . S
H3663 C3672 0.930 . S
H3664 C3677 0.929 . S
H3665 C3675 0.929 . S
H3666 C3670 0.929 . S
H3667 C3676 0.929 . S
C3668 H3662 0.930 . S
C3668 C3669 1.367 . S
C3668 C3676 1.378 . S
C3669 C3668 1.367 . S
C3669 C3677 1.433 . S
C3670 H3666 0.929 . S
C3670 C3672 1.378 . S
C3670 C3674 1.350 . S
C3671 C3674 1.463 . S
C3671 C3676 1.350 . S
C3671 N3679 1.427 . S
C3672 H3663 0.930 . S
C3672 C3670 1.378 . S
C3672 C3673 1.367 . S
C3673 C3672 1.367 . S
C3673 C3675 1.433 . S
C3674 C3670 1.350 . S
C3674 C3671 1.463 . S
C3674 N3678 1.427 . S
C3675 H3665 0.929 . S
C3675 C3673 1.433 . S
C3675 N3678 1.384 . S
C3676 H3667 0.929 . S
C3676 C3668 1.378 . S
C3676 C3671 1.350 . S
C3677 H3664 0.929 . S
C3677 C3669 1.433 . S
C3677 N3679 1.384 . S
N3678 C3674 1.427 . S
N3678 C3675 1.384 . S
N3679 C3671 1.427 . S
N3679 C3677 1.384 . S
H3680 C3686 0.930 . S
H3681 C3690 0.930 . S
H3682 C3695 0.929 . S
H3683 C3693 0.929 . S
H3684 C3688 0.929 . S
H3685 C3694 0.929 . S
C3686 H3680 0.930 . S
C3686 C3687 1.367 . S
C3686 C3694 1.378 . S
C3687 C3686 1.367 . S
C3687 C3695 1.433 . S
C3688 H3684 0.929 . S
C3688 C3690 1.378 . S
C3688 C3692 1.350 . S
C3689 C3692 1.463 . S
C3689 C3694 1.350 . S
C3689 N3697 1.427 . S
C3690 H3681 0.930 . S
C3690 C3688 1.378 . S
C3690 C3691 1.367 . S
C3691 C3690 1.367 . S
C3691 C3693 1.433 . S
C3692 C3688 1.350 . S
C3692 C3689 1.463 . S
C3692 N3696 1.427 . S
C3693 H3683 0.929 . S
C3693 C3691 1.433 . S
C3693 N3696 1.384 . S
C3694 H3685 0.929 . S
C3694 C3686 1.378 . S
C3694 C3689 1.350 . S
C3695 H3682 0.929 . S
C3695 C3687 1.433 . S
C3695 N3697 1.384 . S
N3696 C3692 1.427 . S
N3696 C3693 1.384 . S
N3697 C3689 1.427 . S
N3697 C3695 1.384 . S
H3698 C3704 0.930 . S
H3699 C3708 0.930 . S
H3700 C3713 0.929 . S
H3701 C3711 0.929 . S
H3702 C3706 0.929 . S
H3703 C3712 0.929 . S
C3704 H3698 0.930 . S
C3704 C3705 1.367 . S
C3704 C3712 1.378 . S
C3705 C3704 1.367 . S
C3705 C3713 1.433 . S
C3706 H3702 0.929 . S
C3706 C3708 1.378 . S
C3706 C3710 1.350 . S
C3707 C3710 1.463 . S
C3707 C3712 1.350 . S
C3707 N3715 1.427 . S
C3708 H3699 0.930 . S
C3708 C3706 1.378 . S
C3708 C3709 1.367 . S
C3709 C3708 1.367 . S
C3709 C3711 1.433 . S
C3710 C3706 1.350 . S
C3710 C3707 1.463 . S
C3710 N3714 1.427 . S
C3711 H3701 0.929 . S
C3711 C3709 1.433 . S
C3711 N3714 1.384 . S
C3712 H3703 0.929 . S
C3712 C3704 1.378 . S
C3712 C3707 1.350 . S
C3713 H3700 0.929 . S
C3713 C3705 1.433 . S
C3713 N3715 1.384 . S
N3714 C3710 1.427 . S
N3714 C3711 1.384 . S
N3715 C3707 1.427 . S
N3715 C3713 1.384 . S
H3716 C3722 0.930 . S
H3717 C3726 0.930 . S
H3718 C3731 0.929 . S
H3719 C3729 0.929 . S
H3720 C3724 0.929 . S
H3721 C3730 0.929 . S
C3722 H3716 0.930 . S
C3722 C3723 1.367 . S
C3722 C3730 1.378 . S
C3723 C3722 1.367 . S
C3723 C3731 1.433 . S
C3724 H3720 0.929 . S
C3724 C3726 1.378 . S
C3724 C3728 1.350 . S
C3725 C3728 1.463 . S
C3725 C3730 1.350 . S
C3725 N3733 1.427 . S
C3726 H3717 0.930 . S
C3726 C3724 1.378 . S
C3726 C3727 1.367 . S
C3727 C3726 1.367 . S
C3727 C3729 1.433 . S
C3728 C3724 1.350 . S
C3728 C3725 1.463 . S
C3728 N3732 1.427 . S
C3729 H3719 0.929 . S
C3729 C3727 1.433 . S
C3729 N3732 1.384 . S
C3730 H3721 0.929 . S
C3730 C3722 1.378 . S
C3730 C3725 1.350 . S
C3731 H3718 0.929 . S
C3731 C3723 1.433 . S
C3731 N3733 1.384 . S
N3732 C3728 1.427 . S
N3732 C3729 1.384 . S
N3733 C3725 1.427 . S
N3733 C3731 1.384 . S
H3734 C3740 0.930 . S
H3735 C3744 0.930 . S
H3736 C3749 0.929 . S
H3737 C3747 0.929 . S
H3738 C3742 0.929 . S
H3739 C3748 0.929 . S
C3740 H3734 0.930 . S
C3740 C3741 1.367 . S
C3740 C3748 1.378 . S
C3741 C3740 1.367 . S
C3741 C3749 1.433 . S
C3742 H3738 0.929 . S
C3742 C3744 1.378 . S
C3742 C3746 1.350 . S
C3743 C3746 1.463 . S
C3743 C3748 1.350 . S
C3743 N3751 1.427 . S
C3744 H3735 0.930 . S
C3744 C3742 1.378 . S
C3744 C3745 1.367 . S
C3745 C3744 1.367 . S
C3745 C3747 1.433 . S
C3746 C3742 1.350 . S
C3746 C3743 1.463 . S
C3746 N3750 1.427 . S
C3747 H3737 0.929 . S
C3747 C3745 1.433 . S
C3747 N3750 1.384 . S
C3748 H3739 0.929 . S
C3748 C3740 1.378 . S
C3748 C3743 1.350 . S
C3749 H3736 0.929 . S
C3749 C3741 1.433 . S
C3749 N3751 1.384 . S
N3750 C3746 1.427 . S
N3750 C3747 1.384 . S
N3751 C3743 1.427 . S
N3751 C3749 1.384 . S
H3752 C3758 0.930 . S
H3753 C3762 0.930 . S
H3754 C3767 0.929 . S
H3755 C3765 0.929 . S
H3756 C3760 0.929 . S
H3757 C3766 0.929 . S
C3758 H3752 0.930 . S
C3758 C3759 1.367 . S
C3758 C3766 1.378 . S
C3759 C3758 1.367 . S
C3759 C3767 1.433 . S
C3760 H3756 0.929 . S
C3760 C3762 1.378 . S
C3760 C3764 1.350 . S
C3761 C3764 1.463 . S
C3761 C3766 1.350 . S
C3761 N3769 1.427 . S
C3762 H3753 0.930 . S
C3762 C3760 1.378 . S
C3762 C3763 1.367 . S
C3763 C3762 1.367 . S
C3763 C3765 1.433 . S
C3764 C3760 1.350 . S
C3764 C3761 1.463 . S
C3764 N3768 1.427 . S
C3765 H3755 0.929 . S
C3765 C3763 1.433 . S
C3765 N3768 1.384 . S
C3766 H3757 0.929 . S
C3766 C3758 1.378 . S
C3766 C3761 1.350 . S
C3767 H3754 0.929 . S
C3767 C3759 1.433 . S
C3767 N3769 1.384 . S
N3768 C3764 1.427 . S
N3768 C3765 1.384 . S
N3769 C3761 1.427 . S
N3769 C3767 1.384 . S
H3770 C3776 0.930 . S
H3771 C3780 0.930 . S
H3772 C3785 0.929 . S
H3773 C3783 0.929 . S
H3774 C3778 0.929 . S
H3775 C3784 0.929 . S
C3776 H3770 0.930 . S
C3776 C3777 1.367 . S
C3776 C3784 1.378 . S
C3777 C3776 1.367 . S
C3777 C3785 1.433 . S
C3778 H3774 0.929 . S
C3778 C3780 1.378 . S
C3778 C3782 1.350 . S
C3779 C3782 1.463 . S
C3779 C3784 1.350 . S
C3779 N3787 1.427 . S
C3780 H3771 0.930 . S
C3780 C3778 1.378 . S
C3780 C3781 1.367 . S
C3781 C3780 1.367 . S
C3781 C3783 1.433 . S
C3782 C3778 1.350 . S
C3782 C3779 1.463 . S
C3782 N3786 1.427 . S
C3783 H3773 0.929 . S
C3783 C3781 1.433 . S
C3783 N3786 1.384 . S
C3784 H3775 0.929 . S
C3784 C3776 1.378 . S
C3784 C3779 1.350 . S
C3785 H3772 0.929 . S
C3785 C3777 1.433 . S
C3785 N3787 1.384 . S
N3786 C3782 1.427 . S
N3786 C3783 1.384 . S
N3787 C3779 1.427 . S
N3787 C3785 1.384 . S
H3788 C3794 0.930 . S
H3789 C3798 0.930 . S
H3790 C3803 0.929 . S
H3791 C3801 0.929 . S
H3792 C3796 0.929 . S
H3793 C3802 0.929 . S
C3794 H3788 0.930 . S
C3794 C3795 1.367 . S
C3794 C3802 1.378 . S
C3795 C3794 1.367 . S
C3795 C3803 1.433 . S
C3796 H3792 0.929 . S
C3796 C3798 1.378 . S
C3796 C3800 1.350 . S
C3797 C3800 1.463 . S
C3797 C3802 1.350 . S
C3797 N3805 1.427 . S
C3798 H3789 0.930 . S
C3798 C3796 1.378 . S
C3798 C3799 1.367 . S
C3799 C3798 1.367 . S
C3799 C3801 1.433 . S
C3800 C3796 1.350 . S
C3800 C3797 1.463 . S
C3800 N3804 1.427 . S
C3801 H3791 0.929 . S
C3801 C3799 1.433 . S
C3801 N3804 1.384 . S
C3802 H3793 0.929 . S
C3802 C3794 1.378 . S
C3802 C3797 1.350 . S
C3803 H3790 0.929 . S
C3803 C3795 1.433 . S
C3803 N3805 1.384 . S
N3804 C3800 1.427 . S
N3804 C3801 1.384 . S
N3805 C3797 1.427 . S
N3805 C3803 1.384 . S
H3806 C3812 0.930 . S
H3807 C3816 0.930 . S
H3808 C3821 0.929 . S
H3809 C3819 0.929 . S
H3810 C3814 0.929 . S
H3811 C3820 0.929 . S
C3812 H3806 0.930 . S
C3812 C3813 1.367 . S
C3812 C3820 1.378 . S
C3813 C3812 1.367 . S
C3813 C3821 1.433 . S
C3814 H3810 0.929 . S
C3814 C3816 1.378 . S
C3814 C3818 1.350 . S
C3815 C3818 1.463 . S
C3815 C3820 1.350 . S
C3815 N3823 1.427 . S
C3816 H3807 0.930 . S
C3816 C3814 1.378 . S
C3816 C3817 1.367 . S
C3817 C3816 1.367 . S
C3817 C3819 1.433 . S
C3818 C3814 1.350 . S
C3818 C3815 1.463 . S
C3818 N3822 1.427 . S
C3819 H3809 0.929 . S
C3819 C3817 1.433 . S
C3819 N3822 1.384 . S
C3820 H3811 0.929 . S
C3820 C3812 1.378 . S
C3820 C3815 1.350 . S
C3821 H3808 0.929 . S
C3821 C3813 1.433 . S
C3821 N3823 1.384 . S
N3822 C3818 1.427 . S
N3822 C3819 1.384 . S
N3823 C3815 1.427 . S
N3823 C3821 1.384 . S
H3824 C3830 0.930 . S
H3825 C3834 0.930 . S
H3826 C3839 0.929 . S
H3827 C3837 0.929 . S
H3828 C3832 0.929 . S
H3829 C3838 0.929 . S
C3830 H3824 0.930 . S
C3830 C3831 1.367 . S
C3830 C3838 1.378 . S
C3831 C3830 1.367 . S
C3831 C3839 1.433 . S
C3832 H3828 0.929 . S
C3832 C3834 1.378 . S
C3832 C3836 1.350 . S
C3833 C3836 1.463 . S
C3833 C3838 1.350 . S
C3833 N3841 1.427 . S
C3834 H3825 0.930 . S
C3834 C3832 1.378 . S
C3834 C3835 1.367 . S
C3835 C3834 1.367 . S
C3835 C3837 1.433 . S
C3836 C3832 1.350 . S
C3836 C3833 1.463 . S
C3836 N3840 1.427 . S
C3837 H3827 0.929 . S
C3837 C3835 1.433 . S
C3837 N3840 1.384 . S
C3838 H3829 0.929 . S
C3838 C3830 1.378 . S
C3838 C3833 1.350 . S
C3839 H3826 0.929 . S
C3839 C3831 1.433 . S
C3839 N3841 1.384 . S
N3840 C3836 1.427 . S
N3840 C3837 1.384 . S
N3841 C3833 1.427 . S
N3841 C3839 1.384 . S
H3842 C3848 0.930 . S
H3843 C3852 0.930 . S
H3844 C3857 0.929 . S
H3845 C3855 0.929 . S
H3846 C3850 0.929 . S
H3847 C3856 0.929 . S
C3848 H3842 0.930 . S
C3848 C3849 1.367 . S
C3848 C3856 1.378 . S
C3849 C3848 1.367 . S
C3849 C3857 1.433 . S
C3850 H3846 0.929 . S
C3850 C3852 1.378 . S
C3850 C3854 1.350 . S
C3851 C3854 1.463 . S
C3851 C3856 1.350 . S
C3851 N3859 1.427 . S
C3852 H3843 0.930 . S
C3852 C3850 1.378 . S
C3852 C3853 1.367 . S
C3853 C3852 1.367 . S
C3853 C3855 1.433 . S
C3854 C3850 1.350 . S
C3854 C3851 1.463 . S
C3854 N3858 1.427 . S
C3855 H3845 0.929 . S
C3855 C3853 1.433 . S
C3855 N3858 1.384 . S
C3856 H3847 0.929 . S
C3856 C3848 1.378 . S
C3856 C3851 1.350 . S
C3857 H3844 0.929 . S
C3857 C3849 1.433 . S
C3857 N3859 1.384 . S
N3858 C3854 1.427 . S
N3858 C3855 1.384 . S
N3859 C3851 1.427 . S
N3859 C3857 1.384 . S
H3860 C3866 0.930 . S
H3861 C3870 0.930 . S
H3862 C3875 0.929 . S
H3863 C3873 0.929 . S
H3864 C3868 0.929 . S
H3865 C3874 0.929 . S
C3866 H3860 0.930 . S
C3866 C3867 1.367 . S
C3866 C3874 1.378 . S
C3867 C3866 1.367 . S
C3867 C3875 1.433 . S
C3868 H3864 0.929 . S
C3868 C3870 1.378 . S
C3868 C3872 1.350 . S
C3869 C3872 1.463 . S
C3869 C3874 1.350 . S
C3869 N3877 1.427 . S
C3870 H3861 0.930 . S
C3870 C3868 1.378 . S
C3870 C3871 1.367 . S
C3871 C3870 1.367 . S
C3871 C3873 1.433 . S
C3872 C3868 1.350 . S
C3872 C3869 1.463 . S
C3872 N3876 1.427 . S
C3873 H3863 0.929 . S
C3873 C3871 1.433 . S
C3873 N3876 1.384 . S
C3874 H3865 0.929 . S
C3874 C3866 1.378 . S
C3874 C3869 1.350 . S
C3875 H3862 0.929 . S
C3875 C3867 1.433 . S
C3875 N3877 1.384 . S
N3876 C3872 1.427 . S
N3876 C3873 1.384 . S
N3877 C3869 1.427 . S
N3877 C3875 1.384 . S
H3878 C3884 0.930 . S
H3879 C3888 0.930 . S
H3880 C3893 0.929 . S
H3881 C3891 0.929 . S
H3882 C3886 0.929 . S
H3883 C3892 0.929 . S
C3884 H3878 0.930 . S
C3884 C3885 1.367 . S
C3884 C3892 1.378 . S
C3885 C3884 1.367 . S
C3885 C3893 1.433 . S
C3886 H3882 0.929 . S
C3886 C3888 1.378 . S
C3886 C3890 1.350 . S
C3887 C3890 1.463 . S
C3887 C3892 1.350 . S
C3887 N3895 1.427 . S
C3888 H3879 0.930 . S
C3888 C3886 1.378 . S
C3888 C3889 1.367 . S
C3889 C3888 1.367 . S
C3889 C3891 1.433 . S
C3890 C3886 1.350 . S
C3890 C3887 1.463 . S
C3890 N3894 1.427 . S
C3891 H3881 0.929 . S
C3891 C3889 1.433 . S
C3891 N3894 1.384 . S
C3892 H3883 0.929 . S
C3892 C3884 1.378 . S
C3892 C3887 1.350 . S
C3893 H3880 0.929 . S
C3893 C3885 1.433 . S
C3893 N3895 1.384 . S
N3894 C3890 1.427 . S
N3894 C3891 1.384 . S
N3895 C3887 1.427 . S
N3895 C3893 1.384 . S
H3896 C3902 0.930 . S
H3897 C3906 0.930 . S
H3898 C3911 0.929 . S
H3899 C3909 0.929 . S
H3900 C3904 0.929 . S
H3901 C3910 0.929 . S
C3902 H3896 0.930 . S
C3902 C3903 1.367 . S
C3902 C3910 1.378 . S
C3903 C3902 1.367 . S
C3903 C3911 1.433 . S
C3904 H3900 0.929 . S
C3904 C3906 1.378 . S
C3904 C3908 1.350 . S
C3905 C3908 1.463 . S
C3905 C3910 1.350 . S
C3905 N3913 1.427 . S
C3906 H3897 0.930 . S
C3906 C3904 1.378 . S
C3906 C3907 1.367 . S
C3907 C3906 1.367 . S
C3907 C3909 1.433 . S
C3908 C3904 1.350 . S
C3908 C3905 1.463 . S
C3908 N3912 1.427 . S
C3909 H3899 0.929 . S
C3909 C3907 1.433 . S
C3909 N3912 1.384 . S
C3910 H3901 0.929 . S
C3910 C3902 1.378 . S
C3910 C3905 1.350 . S
C3911 H3898 0.929 . S
C3911 C3903 1.433 . S
C3911 N3913 1.384 . S
N3912 C3908 1.427 . S
N3912 C3909 1.384 . S
N3913 C3905 1.427 . S
N3913 C3911 1.384 . S
H3914 C3920 0.930 . S
H3915 C3924 0.930 . S
H3916 C3929 0.929 . S
H3917 C3927 0.929 . S
H3918 C3922 0.929 . S
H3919 C3928 0.929 . S
C3920 H3914 0.930 . S
C3920 C3921 1.367 . S
C3920 C3928 1.378 . S
C3921 C3920 1.367 . S
C3921 C3929 1.433 . S
C3922 H3918 0.929 . S
C3922 C3924 1.378 . S
C3922 C3926 1.350 . S
C3923 C3926 1.463 . S
C3923 C3928 1.350 . S
C3923 N3931 1.427 . S
C3924 H3915 0.930 . S
C3924 C3922 1.378 . S
C3924 C3925 1.367 . S
C3925 C3924 1.367 . S
C3925 C3927 1.433 . S
C3926 C3922 1.350 . S
C3926 C3923 1.463 . S
C3926 N3930 1.427 . S
C3927 H3917 0.929 . S
C3927 C3925 1.433 . S
C3927 N3930 1.384 . S
C3928 H3919 0.929 . S
C3928 C3920 1.378 . S
C3928 C3923 1.350 . S
C3929 H3916 0.929 . S
C3929 C3921 1.433 . S
C3929 N3931 1.384 . S
N3930 C3926 1.427 . S
N3930 C3927 1.384 . S
N3931 C3923 1.427 . S
N3931 C3929 1.384 . S
H3932 C3938 0.930 . S
H3933 C3942 0.930 . S
H3934 C3947 0.929 . S
H3935 C3945 0.929 . S
H3936 C3940 0.929 . S
H3937 C3946 0.929 . S
C3938 H3932 0.930 . S
C3938 C3939 1.367 . S
C3938 C3946 1.378 . S
C3939 C3938 1.367 . S
C3939 C3947 1.433 . S
C3940 H3936 0.929 . S
C3940 C3942 1.378 . S
C3940 C3944 1.350 . S
C3941 C3944 1.463 . S
C3941 C3946 1.350 . S
C3941 N3949 1.427 . S
C3942 H3933 0.930 . S
C3942 C3940 1.378 . S
C3942 C3943 1.367 . S
C3943 C3942 1.367 . S
C3943 C3945 1.433 . S
C3944 C3940 1.350 . S
C3944 C3941 1.463 . S
C3944 N3948 1.427 . S
C3945 H3935 0.929 . S
C3945 C3943 1.433 . S
C3945 N3948 1.384 . S
C3946 H3937 0.929 . S
C3946 C3938 1.378 . S
C3946 C3941 1.350 . S
C3947 H3934 0.929 . S
C3947 C3939 1.433 . S
C3947 N3949 1.384 . S
N3948 C3944 1.427 . S
N3948 C3945 1.384 . S
N3949 C3941 1.427 . S
N3949 C3947 1.384 . S
H3950 C3956 0.930 . S
H3951 C3960 0.930 . S
H3952 C3965 0.929 . S
H3953 C3963 0.929 . S
H3954 C3958 0.929 . S
H3955 C3964 0.929 . S
C3956 H3950 0.930 . S
C3956 C3957 1.367 . S
C3956 C3964 1.378 . S
C3957 C3956 1.367 . S
C3957 C3965 1.433 . S
C3958 H3954 0.929 . S
C3958 C3960 1.378 . S
C3958 C3962 1.350 . S
C3959 C3962 1.463 . S
C3959 C3964 1.350 . S
C3959 N3967 1.427 . S
C3960 H3951 0.930 . S
C3960 C3958 1.378 . S
C3960 C3961 1.367 . S
C3961 C3960 1.367 . S
C3961 C3963 1.433 . S
C3962 C3958 1.350 . S
C3962 C3959 1.463 . S
C3962 N3966 1.427 . S
C3963 H3953 0.929 . S
C3963 C3961 1.433 . S
C3963 N3966 1.384 . S
C3964 H3955 0.929 . S
C3964 C3956 1.378 . S
C3964 C3959 1.350 . S
C3965 H3952 0.929 . S
C3965 C3957 1.433 . S
C3965 N3967 1.384 . S
N3966 C3962 1.427 . S
N3966 C3963 1.384 . S
N3967 C3959 1.427 . S
N3967 C3965 1.384 . S
C2823 C409 1.507 . S
C2827 C29 1.508 . S
C2841 C497 1.508 . S
C2845 C117 1.507 . S
C2859 C577 1.507 . S
C2863 C205 1.508 . S
C2877 C284 1.507 . S
C2881 C665 1.506 . S
C2895 C724 1.496 . S
C2899 C1113 1.497 . S
C2913 C1173 1.497 . S
C2917 C841 1.499 . S
C2931 C929 1.499 . S
C2935 C1261 1.498 . S
C2949 C1349 1.497 . S
C2953 C1017 1.498 . S
C2967 C1428 1.506 . S
C2971 C1817 1.506 . S
C2985 C1897 1.507 . S
C2989 C1525 1.508 . S
C3003 C1985 1.507 . S
C3007 C1604 1.506 . S
C3021 C2081 1.508 . S
C3025 C1692 1.507 . S
C3039 C2132 1.496 . S
C3043 C2513 1.498 . S
C3057 C2249 1.496 . S
C3061 C2581 1.498 . S
C3075 C2337 1.496 . S
C3079 C2660 1.497 . S
C3093 C2433 1.498 . S
C3097 C2757 1.496 . S
C3111 C49 0.496 . S
C3115 C645 0.512 . S
C3129 C137 0.489 . S
C3133 C372 0.505 . S
C3147 C225 0.517 . S
C3151 C460 0.512 . S
C3165 C557 0.483 . S
C3169 C321 0.495 . S
C3183 C1340 0.519 . S
C3187 C733 0.505 . S
C3201 C1105 0.524 . S
C3205 C849 0.527 . S
C3219 C1164 0.520 . S
C3223 C937 0.527 . S
C3237 C1025 0.505 . S
C3241 C1252 0.519 . S
C3255 C2044 0.496 . S
C3259 C1465 0.512 . S
C3273 C1780 0.517 . S
C3277 C1545 0.511 . S
C3291 C1877 0.483 . S
C3295 C1641 0.492 . S
C3309 C1729 0.517 . S
C3313 C1965 0.514 . S
C3327 C2141 0.498 . S
C3331 C2748 0.492 . S
C3345 C2257 0.516 . S
C3349 C2521 0.526 . S
C3363 C2345 0.505 . S
C3367 C2572 0.494 . S
C3381 C2669 0.517 . S
C3385 C2425 0.526 . S
C3399 C57 1.601 . S
C3403 C2229 1.563 . S
C3417 C145 1.602 . S
C3421 C909 1.558 . S
C3435 C233 1.600 . S
C3439 C2396 1.560 . S
C3453 C761 1.563 . S
C3457 C313 1.604 . S
C3471 C2777 1.558 . S
C3475 C381 1.600 . S
C3489 C469 1.600 . S
C3493 C1076 1.562 . S
C3507 C548 1.600 . S
C3511 C2601 1.558 . S
C3525 C636 1.600 . S
C3529 C1281 1.563 . S
C3543 C1516 1.561 . S
C3547 C753 1.601 . S
C3561 C196 1.565 . S
C3565 C812 1.598 . S
C3579 C1701 1.567 . S
C3583 C900 1.601 . S
C3597 C988 1.598 . S
C3601 C20 1.566 . S
C3615 C2073 1.567 . S
C3619 C1085 1.601 . S
C3633 C401 1.558 . S
C3637 C1201 1.599 . S
C3651 C1905 1.560 . S
C3655 C1289 1.598 . S
C3669 C585 1.567 . S
C3673 C1377 1.601 . S
C3687 C821 1.569 . S
C3691 C1457 1.604 . S
C3705 C1553 1.602 . S
C3709 C2317 1.568 . S
C3723 C1633 1.604 . S
C3727 C997 1.569 . S
C3741 C1721 1.601 . S
C3745 C2169 1.564 . S
C3759 C1789 1.601 . S
C3763 C1369 1.557 . S
C3777 C2493 1.568 . S
C3781 C1868 1.602 . S
C3795 C1956 1.604 . S
C3799 C1193 1.568 . S
C3813 C2053 1.604 . S
C3817 C2697 1.564 . S
C3831 C2161 1.598 . S
C3835 C108 1.567 . S
C3849 C2220 1.601 . S
C3853 C1613 1.569 . S
C3867 C293 1.558 . S
C3871 C2308 1.600 . S
C3885 C1437 1.563 . S
C3889 C2405 1.601 . S
C3903 C2484 1.600 . S
C3907 C673 1.559 . S
C3921 C2609 1.600 . S
C3925 C1809 1.560 . S
C3939 C489 1.563 . S
C3943 C2689 1.598 . S
C3957 C1993 1.563 . S
C3961 C2785 1.601 . S
