# Generated by pormake.
# Topology wjs, (5)-cn, num edge types: 1
# Building blocks:
#     Node 0, Type 0, BuildingBlock: BEQFEK_clean_sbu_0, # of connection points: 5
#     Node 1, Type 0, BuildingBlock: BEQFEK_clean_sbu_0, # of connection points: 5
#     Node 2, Type 0, BuildingBlock: BEQFEK_clean_sbu_0, # of connection points: 5
#     Node 3, Type 0, BuildingBlock: BEQFEK_clean_sbu_0, # of connection points: 5
#     Node 4, Type 0, BuildingBlock: BEQFEK_clean_sbu_0, # of connection points: 5
#     Node 5, Type 0, BuildingBlock: BEQFEK_clean_sbu_0, # of connection points: 5
#     Node 6, Type 0, BuildingBlock: BEQFEK_clean_sbu_0, # of connection points: 5
#     Node 7, Type 0, BuildingBlock: BEQFEK_clean_sbu_0, # of connection points: 5
#     Node 8, Type 0, BuildingBlock: BEQFEK_clean_sbu_0, # of connection points: 5
#     Node 9, Type 0, BuildingBlock: BEQFEK_clean_sbu_0, # of connection points: 5
#     Node 10, Type 0, BuildingBlock: BEQFEK_clean_sbu_0, # of connection points: 5
#     Node 11, Type 0, BuildingBlock: BEQFEK_clean_sbu_0, # of connection points: 5
#     Edge 12, Type (0, 0), None
#     Edge 13, Type (0, 0), None
#     Edge 14, Type (0, 0), None
#     Edge 15, Type (0, 0), None
#     Edge 16, Type (0, 0), None
#     Edge 17, Type (0, 0), None
#     Edge 18, Type (0, 0), None
#     Edge 19, Type (0, 0), None
#     Edge 20, Type (0, 0), None
#     Edge 21, Type (0, 0), None
#     Edge 22, Type (0, 0), None
#     Edge 23, Type (0, 0), None
#     Edge 24, Type (0, 0), None
#     Edge 25, Type (0, 0), None
#     Edge 26, Type (0, 0), None
#     Edge 27, Type (0, 0), None
#     Edge 28, Type (0, 0), None
#     Edge 29, Type (0, 0), None
#     Edge 30, Type (0, 0), None
#     Edge 31, Type (0, 0), None
#     Edge 32, Type (0, 0), None
#     Edge 33, Type (0, 0), None
#     Edge 34, Type (0, 0), None
#     Edge 35, Type (0, 0), None
#     Edge 36, Type (0, 0), None
#     Edge 37, Type (0, 0), None
#     Edge 38, Type (0, 0), None
#     Edge 39, Type (0, 0), None
#     Edge 40, Type (0, 0), None
#     Edge 41, Type (0, 0), None
# Relax obj value: 0.310
# Max RMSD: 0.242
# Mean RMSD: 0.242
data_MOF--net-wjs--node1-BEQFEK_clean_sbu_0--edge1-none
_symmetry_space_group_name_H-M    P1
_symmetry_Int_Tables_number       1
_symmetry_cell_setting            triclinic
loop_
_symmetry_equiv_pos_as_xyz
'x, y, z'
_cell_length_a     15.423411
_cell_length_b     15.423252
_cell_length_c     36.350653
_cell_angle_alpha  89.997983
_cell_angle_beta   90.001005
_cell_angle_gamma 119.9991
loop_
_atom_site_label
_atom_site_type_symbol
_atom_site_fract_x
_atom_site_fract_y
_atom_site_fract_z
_atom_type_partial_charge
Co0 Co 0.26171 0.33763 0.01666 0.0
Co1 Co 0.12192 0.39158 -0.0261 0.0
C2 C 0.20059 0.29432 0.93325 0.0
O3 O 0.24786 0.3039 0.96313 0.0
O4 O 0.13092 0.31617 0.93139 0.0
C5 C 0.2462 0.16595 0.03598 0.0
O6 O 0.16515 0.14199 0.01682 0.0
C7 C 0.97275 0.44676 0.94069 0.0
C8 C 0.92566 0.48758 -0.008 0.0
C9 C 0.9047 0.4738 0.95476 0.0
N10 N 1.02884 0.44269 0.96854 0.0
N11 N 0.99947 0.46737 -0.00102 0.0
C12 C 0.98448 0.42634 0.90135 0.0
H13 H 1.01268 0.37297 0.89947 0.0
H14 H 0.91219 0.39623 0.88649 0.0
H15 H 0.03987 0.49747 0.888 0.0
C16 C 0.09681 0.25555 0.06911 0.0
N17 N 0.13856 0.30091 0.03722 0.0
N18 N 0.07132 0.30407 0.01623 0.0
C19 C 0.98138 0.25298 0.03344 0.0
C20 C 0.99497 0.22083 0.06767 0.0
C21 C 0.15442 0.2519 0.10157 0.0
H22 H 0.23406 0.2803 0.09489 0.0
H23 H 0.11846 0.17397 0.11183 0.0
H24 H 0.15202 0.29967 0.12388 0.0
O25 O 0.35077 0.47752 0.02308 0.0
O26 O 0.27548 0.50059 -0.02451 0.0
H27 H 0.86506 0.29 0.03361 0.0
H28 H 0.82378 0.16153 0.02383 0.0
C29 C 0.88481 0.23941 0.01875 0.0
H30 H 0.89045 0.25521 -0.01118 0.0
H31 H 1.02897 0.46837 0.02488 0.0
O32 O 0.31236 0.25719 0.03954 0.0
C33 C 0.35553 0.52569 -0.00566 0.0
Co34 Co 0.9459 0.2506 0.18324 0.0
Co35 Co 0.7521 0.11093 0.1405 0.0
C36 C 0.92802 0.18918 0.09987 0.0
O37 O 0.96577 0.23655 0.12973 0.0
O38 O 0.83645 0.11962 0.09802 0.0
C39 C 0.10186 0.23476 0.20264 0.0
O40 O 0.04464 0.15364 0.18354 0.0
C41 C 0.54777 0.96173 0.10729 0.0
C42 C 0.45977 0.91489 0.15858 0.0
C43 C 0.45266 0.89376 0.12135 0.0
N44 N 0.6079 1.01793 0.13512 0.0
N45 N 0.5538 0.98872 0.16555 0.0
C46 C 0.58 0.97325 0.06796 0.0
H47 H 0.66153 1.00123 0.06612 0.0
H48 H 0.53771 0.90093 0.05312 0.0
H49 H 0.56449 0.02873 0.05455 0.0
C50 C 0.86287 0.08589 0.23576 0.0
N51 N 0.8593 0.12759 0.20385 0.0
N52 N 0.78886 0.06034 0.18288 0.0
C53 C 0.74992 0.97043 0.20012 0.0
C54 C 0.79568 0.98407 0.23435 0.0
C55 C 0.92423 0.14354 0.26819 0.0
H56 H 0.97538 0.22319 0.2615 0.0
H57 H 0.96631 0.10765 0.27841 0.0
H58 H 0.87414 0.14109 0.29054 0.0
O59 O 0.89536 0.3399 0.1896 0.0
O60 O 0.79683 0.26456 0.14204 0.0
H61 H 0.59654 0.85425 0.20029 0.0
H62 H 0.68361 0.81278 0.19059 0.0
C63 C 0.66687 0.87386 0.18545 0.0
H64 H 0.65676 0.87944 0.15551 0.0
H65 H 0.58225 1.01832 0.19144 0.0
O66 O 0.07697 0.30109 0.20612 0.0
C67 C 0.85186 0.34463 0.16088 0.0
Co68 Co 0.71706 0.93503 0.34994 0.0
Co69 Co 0.66304 0.74124 0.30722 0.0
C70 C 0.76046 0.91715 0.26656 0.0
O71 O 0.75086 0.9549 0.29642 0.0
O72 O 0.73854 0.8256 0.26472 0.0
C73 C 0.88876 0.09116 0.3693 0.0
O74 O 0.91273 0.03405 0.35016 0.0
C75 C 0.60787 0.53689 0.27402 0.0
C76 C 0.56695 0.44896 0.32532 0.0
C77 C 0.5808 0.4418 0.28808 0.0
N78 N 0.6119 0.59705 0.30186 0.0
N79 N 0.58716 0.54299 0.3323 0.0
C80 C 0.62836 0.56908 0.23468 0.0
H81 H 0.68181 0.65062 0.23281 0.0
H82 H 0.65843 0.52684 0.21982 0.0
H83 H 0.55728 0.55343 0.22132 0.0
C84 C 0.79905 0.85219 0.40243 0.0
N85 N 0.7537 0.84857 0.37053 0.0
N86 N 0.7505 0.77813 0.34956 0.0
C87 C 0.80156 0.73926 0.36678 0.0
C88 C 0.83373 0.78503 0.401 0.0
C89 C 0.80275 0.9135 0.43488 0.0
H90 H 0.77429 0.96469 0.42819 0.0
H91 H 0.8807 0.95553 0.44511 0.0
H92 H 0.75505 0.86338 0.45721 0.0
O93 O 0.57719 0.88429 0.35636 0.0
O94 O 0.55406 0.78585 0.30878 0.0
H95 H 0.76448 0.5859 0.36696 0.0
H96 H 0.89296 0.67303 0.3572 0.0
C97 C 0.81511 0.65623 0.3521 0.0
H98 H 0.79933 0.64607 0.32217 0.0
H99 H 0.58612 0.57147 0.35819 0.0
O100 O 0.79751 0.06613 0.37282 0.0
C101 C 0.52899 0.84084 0.32763 0.0
Co102 Co 0.804 0.70622 0.51658 0.0
Co103 Co 0.94365 0.65208 0.47384 0.0
C104 C 0.86539 0.74975 0.43321 0.0
O105 O 0.81803 0.74014 0.46306 0.0
O106 O 0.93495 0.72774 0.43136 0.0
C107 C 0.81992 0.87803 0.53598 0.0
O108 O 0.90102 0.9019 0.51687 0.0
C109 C 0.09286 0.59697 0.44062 0.0
C110 C 0.1397 0.5558 0.49191 0.0
C111 C 0.16083 0.56984 0.45468 0.0
N112 N 0.03665 0.60088 0.46845 0.0
N113 N 0.06586 0.57598 0.49888 0.0
C114 C 0.08134 0.6177 0.40129 0.0
H115 H 0.05339 0.67127 0.39945 0.0
H116 H 0.15366 0.64771 0.38645 0.0
H117 H 1.02584 0.54672 0.38788 0.0
C118 C 0.96868 0.78781 0.5691 0.0
N119 N 0.92699 0.74258 0.53719 0.0
N120 N 0.99424 0.73941 0.51622 0.0
C121 C 0.08415 0.79037 0.53346 0.0
C122 C 0.0705 0.82245 0.56769 0.0
C123 C 0.91102 0.79149 0.60154 0.0
H124 H 0.83138 0.76301 0.59484 0.0
H125 H 0.94691 0.86945 0.61176 0.0
H126 H 0.91346 0.74382 0.62387 0.0
O127 O 0.71467 0.56638 0.52293 0.0
O128 O 0.79002 0.54318 0.47538 0.0
H129 H 0.20035 0.75319 0.53362 0.0
H130 H 0.2418 0.88173 0.52392 0.0
C131 C 0.18072 0.80391 0.51879 0.0
H132 H 0.17515 0.78823 0.48885 0.0
H133 H 0.03625 0.57483 0.52477 0.0
O134 O 0.75355 0.78683 0.53947 0.0
C135 C 0.70995 0.51815 0.49422 0.0
Co136 Co 0.11955 0.79289 0.68329 0.0
Co137 Co 0.31332 0.93272 0.64057 0.0
C138 C 0.13742 0.85416 0.5999 0.0
O139 O 0.09968 0.8068 0.62976 0.0
O140 O 0.22896 0.92382 0.59806 0.0
C141 C 0.96333 0.80829 0.70264 0.0
O142 O 1.02039 0.88937 0.68349 0.0
C143 C 0.51771 0.08188 0.60738 0.0
C144 C 0.60557 0.12902 0.6587 0.0
C145 C 0.61278 0.14993 0.62145 0.0
N146 N 0.45751 0.02582 0.63522 0.0
N147 N 0.51153 0.05522 0.66567 0.0
C148 C 0.48559 0.07009 0.56803 0.0
H149 H 0.40401 0.04179 0.56613 0.0
H150 H 0.52771 0.14239 0.55317 0.0
H151 H 0.50146 1.01477 0.55469 0.0
C152 C 0.20229 0.95776 0.73576 0.0
N153 N 0.20594 0.91602 0.70387 0.0
N154 N 0.27635 0.98327 0.6829 0.0
C155 C 0.31517 0.07321 0.7001 0.0
C156 C 0.26939 0.0596 0.73432 0.0
C157 C 0.14104 0.90014 0.76822 0.0
H158 H 0.08982 0.82051 0.76154 0.0
H159 H 0.09906 0.93609 0.77848 0.0
H160 H 0.19121 0.90256 0.79053 0.0
O161 O 0.17041 0.70385 0.68971 0.0
O162 O 0.26877 0.77916 0.64213 0.0
H163 H 0.46848 0.18959 0.70028 0.0
H164 H 0.38126 0.23081 0.69048 0.0
C165 C 0.39814 0.1698 0.68541 0.0
H166 H 0.40834 0.16415 0.65548 0.0
H167 H 0.48301 0.02575 0.69157 0.0
O168 O 0.98845 0.74215 0.70618 0.0
C169 C 0.21382 0.6991 0.66098 0.0
Co170 Co 0.3483 0.10871 0.84988 0.0
Co171 Co 0.40246 0.3025 0.80713 0.0
C172 C 0.30468 0.12656 0.76652 0.0
O173 O 0.31432 0.08882 0.79638 0.0
O174 O 0.32673 0.21814 0.76466 0.0
C175 C 0.17648 0.9529 0.86933 0.0
O176 O 0.15261 1.01017 0.85024 0.0
C177 C 0.45756 0.50681 0.7739 0.0
C178 C 0.49885 0.59485 0.82518 0.0
C179 C 0.48474 0.60194 0.78796 0.0
N180 N 0.4537 0.44671 0.80173 0.0
N181 N 0.47868 0.50083 0.83215 0.0
C182 C 0.43673 0.47455 0.73457 0.0
H183 H 0.38311 0.39304 0.73275 0.0
H184 H 0.40675 0.5169 0.71975 0.0
H185 H 0.50767 0.48995 0.72115 0.0
C186 C 0.26699 0.19197 0.90244 0.0
N187 N 0.31207 0.19542 0.8705 0.0
N188 N 0.31521 0.26583 0.84953 0.0
C189 C 0.26436 0.30486 0.86679 0.0
C190 C 0.23254 0.2593 0.90106 0.0
C191 C 0.26325 0.13054 0.93486 0.0
H192 H 0.29187 0.07949 0.92816 0.0
H193 H 0.18525 0.08834 0.94503 0.0
H194 H 0.31077 0.18059 0.95724 0.0
O195 O 0.48813 0.15913 0.8562 0.0
O196 O 0.51133 0.25772 0.80866 0.0
H197 H 0.30151 0.45823 0.86694 0.0
H198 H 0.17296 0.37111 0.85727 0.0
C199 C 0.25077 0.38787 0.85212 0.0
H200 H 0.26638 0.39793 0.82217 0.0
H201 H 0.47988 0.47239 0.85804 0.0
O202 O 0.26767 0.97768 0.87278 0.0
C203 C 0.53636 0.20267 0.82749 0.0
Co204 Co 0.71681 0.79271 0.74575 0.0
Co205 Co 0.66304 0.93262 0.78854 0.0
C206 C 0.76029 0.85389 0.82916 0.0
O207 O 0.75064 0.80661 0.79927 0.0
O208 O 0.73844 0.92357 0.83104 0.0
C209 C 0.88846 0.80825 0.72639 0.0
O210 O 0.91244 0.88929 0.74555 0.0
C211 C 0.60742 0.0815 0.82176 0.0
C212 C 0.56739 0.12919 0.77039 0.0
C213 C 0.58043 0.14956 0.80768 0.0
N214 N 0.612 0.02578 0.79388 0.0
N215 N 0.58778 0.05549 0.76341 0.0
C216 C 0.62719 0.06932 0.86113 0.0
H217 H 0.67957 0.03994 0.86311 0.0
H218 H 0.6582 0.14174 0.87597 0.0
H219 H 0.55562 1.01479 0.87444 0.0
C220 C 0.79879 0.95755 0.69329 0.0
N221 N 0.75347 0.91583 0.72518 0.0
N222 N 0.75052 0.98313 0.7462 0.0
C223 C 0.80173 0.07309 0.729 0.0
C224 C 0.83371 0.05943 0.69475 0.0
C225 C 0.80227 0.8999 0.66081 0.0
H226 H 0.77381 0.82025 0.66749 0.0
H227 H 0.88016 0.93579 0.65051 0.0
H228 H 0.75447 0.90236 0.63852 0.0
O229 O 0.57692 0.70358 0.73939 0.0
O230 O 0.55392 0.77911 0.78694 0.0
H231 H 0.76536 0.18987 0.72885 0.0
H232 H 0.89364 0.23057 0.73872 0.0
C233 C 0.81564 0.16974 0.74374 0.0
H234 H 0.79966 0.16401 0.77366 0.0
H235 H 0.58721 0.02631 0.73749 0.0
O236 O 0.79722 0.74206 0.72284 0.0
C237 C 0.52873 0.69903 0.76809 0.0
Co238 Co 0.94587 0.7061 0.9125 0.0
Co239 Co 0.75216 0.65211 0.95531 0.0
C240 C 0.9282 0.7498 -0.00413 0.0
O241 O 0.96582 0.74013 0.96599 0.0
O242 O 0.83663 0.72778 -0.00223 0.0
C243 C 0.10157 0.87795 0.89303 0.0
O244 O 0.0443 0.90178 0.91214 0.0
C245 C 0.54775 0.59663 -0.01143 0.0
C246 C 0.45986 0.55602 0.93724 0.0
C247 C 0.45265 0.56947 -0.0255 0.0
N248 N 0.60796 0.60092 0.96071 0.0
N249 N 0.55393 0.57635 0.93026 0.0
C250 C 0.57985 0.61689 0.02792 0.0
H251 H 0.66155 0.66956 0.02984 0.0
H252 H 0.53825 0.64777 0.04271 0.0
H253 H 0.56319 0.54555 0.04133 0.0
C254 C 0.8625 0.78726 0.85994 0.0
N255 N 0.8591 0.74226 0.89189 0.0
N256 N 0.78885 0.73933 0.9129 0.0
C257 C 0.74989 0.79027 0.89564 0.0
C258 C 0.79531 0.82189 0.86134 0.0
C259 C 0.9238 0.79084 0.8275 0.0
H260 H 0.97482 0.76219 0.8342 0.0
H261 H 0.96602 0.86881 0.8173 0.0
H262 H 0.87366 0.7433 0.80515 0.0
O263 O 0.89554 0.56628 0.90624 0.0
O264 O 0.79679 0.54313 0.95375 0.0
H265 H 0.59668 0.75368 0.89553 0.0
H266 H 0.68416 0.88208 0.90527 0.0
C267 C 0.66711 0.80415 0.91036 0.0
H268 H 0.657 0.78841 0.9403 0.0
H269 H 0.58245 0.57552 0.90435 0.0
O270 O 0.07685 0.78677 0.88957 0.0
C271 C 0.85177 0.51801 0.93492 0.0
Co272 Co 0.26182 0.93502 0.07912 0.0
Co273 Co 0.12193 0.74135 0.12192 0.0
C274 C 0.20056 0.91734 0.16251 0.0
O275 O 0.24784 0.95496 0.13263 0.0
O276 O 0.13091 0.82581 0.1644 0.0
C277 C 0.24618 0.09105 0.05971 0.0
O278 O 0.1651 0.03395 0.07885 0.0
C279 C 0.97304 0.53686 0.15514 0.0
C280 C 0.92546 0.44911 0.10379 0.0
C281 C 0.90502 0.4418 0.14107 0.0
N282 N 1.02881 0.59714 0.12727 0.0
N283 N 0.99917 0.5432 0.09681 0.0
C284 C 0.98514 0.56883 0.19451 0.0
H285 H 1.01447 0.65058 0.19648 0.0
H286 H 0.91269 0.52739 0.20933 0.0
H287 H 0.03968 0.55185 0.20785 0.0
C288 C 0.09709 0.852 0.02661 0.0
N289 N 0.13876 0.84849 0.05853 0.0
N290 N 0.07143 0.77826 0.07955 0.0
C291 C 0.9815 0.73943 0.06233 0.0
C292 C 0.99526 0.78489 0.02804 0.0
C293 C 0.15476 0.91321 -0.00585 0.0
H294 H 0.23443 0.9643 0.00083 0.0
H295 H 0.11896 0.95536 -0.01609 0.0
H296 H 0.1522 0.86301 0.97182 0.0
O297 O 0.35102 0.88435 0.07279 0.0
O298 O 0.27547 0.7858 0.12034 0.0
H299 H 0.86471 0.58629 0.06221 0.0
H300 H 0.82402 0.6739 0.07204 0.0
C301 C 0.88483 0.65671 0.07708 0.0
H302 H 0.89054 0.64651 0.107 0.0
H303 H 1.02839 0.57179 0.07089 0.0
O304 O 0.31241 0.06606 0.05619 0.0
C305 C 0.35555 0.84069 0.10149 0.0
Co306 Co 0.34856 0.25078 0.24582 0.0
Co307 Co 0.40246 0.11099 0.28863 0.0
C308 C 0.30485 0.18941 0.3292 0.0
O309 O 0.31453 0.2367 0.29932 0.0
O310 O 0.32683 0.11983 0.3311 0.0
C311 C 0.17678 0.23478 0.22636 0.0
O312 O 0.1529 0.15369 0.24548 0.0
C313 C 0.458 0.96208 0.32188 0.0
C314 C 0.4984 0.91466 0.27053 0.0
C315 C 0.48511 0.8941 0.3078 0.0
N316 N 0.4536 1.01793 0.29401 0.0
N317 N 0.47805 0.98838 0.26355 0.0
C318 C 0.43792 0.97403 0.36124 0.0
H319 H 0.38539 1.00323 0.36318 0.0
H320 H 0.40695 0.90156 0.37604 0.0
H321 H 0.50935 0.02862 0.37462 0.0
C322 C 0.26726 0.0862 0.19327 0.0
N323 N 0.31231 0.12782 0.22522 0.0
N324 N 0.31519 0.06048 0.24623 0.0
C325 C 0.26418 0.97058 0.22899 0.0
C326 C 0.23256 0.98438 0.19469 0.0
C327 C 0.26373 0.14392 0.16082 0.0
H328 H 0.29235 0.22359 0.16752 0.0
H329 H 0.18579 0.10816 0.15059 0.0
H330 H 0.31135 0.14135 0.13849 0.0
O331 O 0.4884 0.34018 0.23954 0.0
O332 O 0.51148 0.26457 0.28707 0.0
H333 H 0.30062 0.85385 0.22888 0.0
H334 H 0.17227 0.81307 0.23865 0.0
C335 C 0.25024 0.8739 0.24373 0.0
H336 H 0.26604 0.87956 0.27366 0.0
H337 H 0.47878 1.01768 0.23764 0.0
O338 O 0.26797 0.30118 0.22288 0.0
C339 C 0.53663 0.34467 0.26824 0.0
Co340 Co 0.11958 0.33774 0.41245 0.0
Co341 Co 0.31325 0.39153 0.45525 0.0
C342 C 0.13724 0.29417 0.49584 0.0
O343 O 0.09963 0.30383 0.46596 0.0
O344 O 0.22878 0.31604 0.49773 0.0
C345 C 0.96362 0.16605 0.39303 0.0
O346 O 1.02073 0.1421 0.41218 0.0
C347 C 0.51773 0.44711 0.48848 0.0
C348 C 0.60548 0.48728 0.43712 0.0
C349 C 0.61279 0.47414 0.4744 0.0
N350 N 0.45745 0.4426 0.46061 0.0
N351 N 0.5114 0.4669 0.43014 0.0
C352 C 0.48574 0.42722 0.52785 0.0
H353 H 0.40399 0.37478 0.52982 0.0
H354 H 0.5272 0.39623 0.54267 0.0
H355 H 0.50271 0.49874 0.54119 0.0
C356 C 0.20266 0.25611 0.35994 0.0
N357 N 0.20614 0.30124 0.39187 0.0
N358 N 0.27636 0.30413 0.41288 0.0
C359 C 0.3152 0.25304 0.39566 0.0
C360 C 0.26976 0.22138 0.36137 0.0
C361 C 0.14148 0.25261 0.32747 0.0
H362 H 0.09038 0.28118 0.33416 0.0
H363 H 0.09935 0.17468 0.31722 0.0
H364 H 0.19169 0.30027 0.30516 0.0
O365 O 0.17023 0.47761 0.40612 0.0
O366 O 0.2688 0.50062 0.45367 0.0
H367 H 0.46834 0.28937 0.39554 0.0
H368 H 0.38071 0.16107 0.40537 0.0
C369 C 0.39791 0.23908 0.41041 0.0
H370 H 0.4081 0.25497 0.44033 0.0
H371 H 0.48281 0.46754 0.40423 0.0
O372 O 0.98857 0.25728 0.38951 0.0
C373 C 0.2139 0.5258 0.43482 0.0
Co374 Co 0.80388 0.10869 0.5792 0.0
Co375 Co 0.94364 0.30243 0.62198 0.0
C376 C 0.86542 0.12643 0.66256 0.0
O377 O 0.81805 0.08875 0.6327 0.0
O378 O 0.93496 0.21801 0.66443 0.0
C379 C 0.81994 0.95295 0.5597 0.0
O380 O 0.90107 1.01019 0.5788 0.0
C381 C 0.09256 0.50688 0.65522 0.0
C382 C 0.1399 0.59472 0.60388 0.0
C383 C 0.16051 0.60196 0.64115 0.0
N384 N 0.03668 0.44664 0.62736 0.0
N385 N 0.06618 0.50065 0.5969 0.0
C386 C 0.08068 0.47482 0.69458 0.0
H387 H 0.05154 0.39309 0.69651 0.0
H388 H 0.15315 0.51636 0.70937 0.0
H389 H 1.02605 0.49159 0.70797 0.0
C390 C 0.9684 0.192 0.52662 0.0
N391 N 0.9268 0.19543 0.55857 0.0
N392 N 0.99413 0.2657 0.57957 0.0
C393 C 0.08403 0.30461 0.56232 0.0
C394 C 0.07022 0.25916 0.52802 0.0
C395 C 0.91068 0.1307 0.49418 0.0
H396 H 0.831 0.07969 0.50088 0.0
H397 H 0.94641 0.08846 0.48398 0.0
H398 H 0.91328 0.18084 0.47183 0.0
O399 O 0.71442 0.15905 0.57294 0.0
O400 O 0.79003 0.2578 0.62044 0.0
H401 H 0.20071 0.45779 0.56219 0.0
H402 H 0.24156 0.37027 0.57196 0.0
C403 C 0.1807 0.38737 0.57704 0.0
H404 H 0.17506 0.39751 0.60697 0.0
H405 H 0.03685 0.47209 0.571 0.0
O406 O 0.75351 0.9777 0.55626 0.0
C407 C 0.70993 0.20282 0.60162 0.0
loop_
_geom_bond_atom_site_label_1
_geom_bond_atom_site_label_2
_geom_bond_distance
_geom_bond_site_symmetry_2
_ccdc_geom_bond_type
Co0 O3 1.970 1_554 S
Co0 N17 1.989 . S
Co0 O25 1.967 . S
Co0 O32 1.920 . S
Co1 O4 1.966 . S
Co1 N10 2.022 . S
Co1 N18 1.993 1_556 S
Co1 O26 1.941 1_556 S
C2 O3 1.258 . S
C2 O4 1.263 . S
O3 Co0 1.970 1_556 S
O3 C2 1.258 . S
O4 Co1 1.966 . S
O4 C2 1.263 . S
C5 O6 1.235 . S
C5 O32 1.289 . S
O6 C5 1.235 . S
C7 C9 1.400 1_455 S
C7 N10 1.351 . S
C7 C12 1.501 1_455 S
C8 C9 1.387 1_455 S
C8 N11 1.341 1_556 S
C9 C7 1.400 1_655 S
C9 C8 1.387 1_655 S
N10 Co1 2.022 . S
N10 C7 1.351 . S
N10 N11 1.365 1_556 S
N11 C8 1.341 1_554 S
N11 N10 1.365 1_554 S
N11 H31 0.862 . S
C12 C7 1.501 1_655 S
C12 H13 0.961 1_655 S
C12 H14 0.961 . S
C12 H15 0.960 1_655 S
H13 C12 0.961 1_455 S
H14 C12 0.961 . S
H15 C12 0.960 1_455 S
C16 N17 1.342 . S
C16 C20 1.401 1_455 S
C16 C21 1.499 . S
N17 Co0 1.989 . S
N17 C16 1.342 . S
N17 N18 1.388 . S
N18 Co1 1.993 1_554 S
N18 N17 1.388 . S
N18 C19 1.346 1_455 S
C19 N18 1.346 1_655 S
C19 C20 1.396 . S
C19 C29 1.510 . S
C20 C16 1.401 1_655 S
C20 C19 1.396 . S
C21 C16 1.499 . S
C21 H22 0.959 . S
C21 H23 0.960 1_455 S
C21 H24 0.961 . S
H22 C21 0.959 . S
H23 C21 0.960 1_655 S
H24 C21 0.961 . S
O25 Co0 1.967 . S
O25 C33 1.258 . S
O26 Co1 1.941 1_554 S
O26 C33 1.266 . S
H27 C29 0.959 . S
H28 C29 0.961 . S
C29 C19 1.510 . S
C29 H27 0.959 . S
C29 H28 0.961 . S
C29 H30 0.960 . S
H30 C29 0.960 . S
H31 N11 0.862 . S
O32 Co0 1.920 . S
O32 C5 1.289 . S
C33 O25 1.258 . S
C33 O26 1.266 . S
Co34 O37 1.970 . S
Co34 N51 1.989 . S
Co34 O59 1.967 . S
Co34 O66 1.920 1_655 S
Co35 O38 1.966 . S
Co35 N44 2.022 . S
Co35 N52 1.993 . S
Co35 O60 1.941 . S
C36 O37 1.258 . S
C36 O38 1.263 . S
O37 Co34 1.970 . S
O37 C36 1.258 . S
O38 Co35 1.966 . S
O38 C36 1.263 . S
C39 O40 1.235 . S
C39 O66 1.289 . S
O40 C39 1.235 . S
C41 C43 1.400 1_545 S
C41 N44 1.351 . S
C41 C46 1.501 1_545 S
C42 C43 1.387 1_545 S
C42 N45 1.341 . S
C43 C41 1.400 1_565 S
C43 C42 1.387 1_565 S
N44 Co35 2.022 . S
N44 C41 1.351 . S
N44 N45 1.365 . S
N45 C42 1.341 . S
N45 N44 1.365 . S
N45 H65 0.862 . S
C46 C41 1.501 1_565 S
C46 H47 0.961 1_565 S
C46 H48 0.961 . S
C46 H49 0.960 1_565 S
H47 C46 0.961 1_545 S
H48 C46 0.961 . S
H49 C46 0.960 1_545 S
C50 N51 1.342 . S
C50 C54 1.401 1_545 S
C50 C55 1.499 . S
N51 Co34 1.989 . S
N51 C50 1.342 . S
N51 N52 1.388 . S
N52 Co35 1.993 . S
N52 N51 1.388 . S
N52 C53 1.346 1_545 S
C53 N52 1.346 1_565 S
C53 C54 1.396 . S
C53 C63 1.510 . S
C54 C50 1.401 1_565 S
C54 C53 1.396 . S
C55 C50 1.499 . S
C55 H56 0.959 . S
C55 H57 0.960 1_545 S
C55 H58 0.961 . S
H56 C55 0.959 . S
H57 C55 0.960 1_565 S
H58 C55 0.961 . S
O59 Co34 1.967 . S
O59 C67 1.258 . S
O60 Co35 1.941 . S
O60 C67 1.266 . S
H61 C63 0.959 . S
H62 C63 0.961 . S
C63 C53 1.510 . S
C63 H61 0.959 . S
C63 H62 0.961 . S
C63 H64 0.960 . S
H64 C63 0.960 . S
H65 N45 0.862 . S
O66 Co34 1.920 1_455 S
O66 C39 1.289 . S
C67 O59 1.258 . S
C67 O60 1.266 . S
Co68 O71 1.970 . S
Co68 N85 1.989 . S
Co68 O93 1.967 . S
Co68 O100 1.920 1_565 S
Co69 O72 1.966 . S
Co69 N78 2.022 . S
Co69 N86 1.993 . S
Co69 O94 1.941 . S
C70 O71 1.258 . S
C70 O72 1.263 . S
O71 Co68 1.970 . S
O71 C70 1.258 . S
O72 Co69 1.966 . S
O72 C70 1.263 . S
C73 O74 1.235 . S
C73 O100 1.289 . S
O74 C73 1.235 . S
C75 C77 1.400 . S
C75 N78 1.351 . S
C75 C80 1.501 . S
C76 C77 1.387 . S
C76 N79 1.341 . S
C77 C75 1.400 . S
C77 C76 1.387 . S
N78 Co69 2.022 . S
N78 C75 1.351 . S
N78 N79 1.365 . S
N79 C76 1.341 . S
N79 N78 1.365 . S
N79 H99 0.862 . S
C80 C75 1.501 . S
C80 H81 0.961 . S
C80 H82 0.961 . S
C80 H83 0.960 . S
H81 C80 0.961 . S
H82 C80 0.961 . S
H83 C80 0.960 . S
C84 N85 1.342 . S
C84 C88 1.401 . S
C84 C89 1.499 . S
N85 Co68 1.989 . S
N85 C84 1.342 . S
N85 N86 1.388 . S
N86 Co69 1.993 . S
N86 N85 1.388 . S
N86 C87 1.346 . S
C87 N86 1.346 . S
C87 C88 1.396 . S
C87 C97 1.510 . S
C88 C84 1.401 . S
C88 C87 1.396 . S
C89 C84 1.499 . S
C89 H90 0.959 . S
C89 H91 0.960 . S
C89 H92 0.961 . S
H90 C89 0.959 . S
H91 C89 0.960 . S
H92 C89 0.961 . S
O93 Co68 1.967 . S
O93 C101 1.258 . S
O94 Co69 1.941 . S
O94 C101 1.266 . S
H95 C97 0.959 . S
H96 C97 0.961 . S
C97 C87 1.510 . S
C97 H95 0.959 . S
C97 H96 0.961 . S
C97 H98 0.960 . S
H98 C97 0.960 . S
H99 N79 0.862 . S
O100 Co68 1.920 1_545 S
O100 C73 1.289 . S
C101 O93 1.258 . S
C101 O94 1.266 . S
Co102 O105 1.970 . S
Co102 N119 1.989 . S
Co102 O127 1.967 . S
Co102 O134 1.920 . S
Co103 O106 1.966 . S
Co103 N112 2.022 . S
Co103 N120 1.993 . S
Co103 O128 1.941 . S
C104 O105 1.258 . S
C104 O106 1.263 . S
O105 Co102 1.970 . S
O105 C104 1.258 . S
O106 Co103 1.966 . S
O106 C104 1.263 . S
C107 O108 1.235 . S
C107 O134 1.289 . S
O108 C107 1.235 . S
C109 C111 1.400 1_655 S
C109 N112 1.351 . S
C109 C114 1.501 1_655 S
C110 C111 1.387 1_655 S
C110 N113 1.341 . S
C111 C109 1.400 1_455 S
C111 C110 1.387 1_455 S
N112 Co103 2.022 . S
N112 C109 1.351 . S
N112 N113 1.365 . S
N113 C110 1.341 . S
N113 N112 1.365 . S
N113 H133 0.862 . S
C114 C109 1.501 1_455 S
C114 H115 0.961 1_455 S
C114 H116 0.961 . S
C114 H117 0.960 1_455 S
H115 C114 0.961 1_655 S
H116 C114 0.961 . S
H117 C114 0.960 1_655 S
C118 N119 1.342 . S
C118 C122 1.401 1_655 S
C118 C123 1.499 . S
N119 Co102 1.989 . S
N119 C118 1.342 . S
N119 N120 1.388 . S
N120 Co103 1.993 . S
N120 N119 1.388 . S
N120 C121 1.346 1_655 S
C121 N120 1.346 1_455 S
C121 C122 1.396 . S
C121 C131 1.510 . S
C122 C118 1.401 1_455 S
C122 C121 1.396 . S
C123 C118 1.499 . S
C123 H124 0.959 . S
C123 H125 0.960 1_655 S
C123 H126 0.961 . S
H124 C123 0.959 . S
H125 C123 0.960 1_455 S
H126 C123 0.961 . S
O127 Co102 1.967 . S
O127 C135 1.258 . S
O128 Co103 1.941 . S
O128 C135 1.266 . S
H129 C131 0.959 . S
H130 C131 0.961 . S
C131 C121 1.510 . S
C131 H129 0.959 . S
C131 H130 0.961 . S
C131 H132 0.960 . S
H132 C131 0.960 . S
H133 N113 0.862 . S
O134 Co102 1.920 . S
O134 C107 1.289 . S
C135 O127 1.258 . S
C135 O128 1.266 . S
Co136 O139 1.970 . S
Co136 N153 1.989 . S
Co136 O161 1.967 . S
Co136 O168 1.920 1_455 S
Co137 O140 1.966 . S
Co137 N146 2.022 . S
Co137 N154 1.993 . S
Co137 O162 1.941 . S
C138 O139 1.258 . S
C138 O140 1.263 . S
O139 Co136 1.970 . S
O139 C138 1.258 . S
O140 Co137 1.966 . S
O140 C138 1.263 . S
C141 O142 1.235 . S
C141 O168 1.289 . S
O142 C141 1.235 . S
C143 C145 1.400 1_565 S
C143 N146 1.351 . S
C143 C148 1.501 1_565 S
C144 C145 1.387 1_565 S
C144 N147 1.341 . S
C145 C143 1.400 1_545 S
C145 C144 1.387 1_545 S
N146 Co137 2.022 . S
N146 C143 1.351 . S
N146 N147 1.365 . S
N147 C144 1.341 . S
N147 N146 1.365 . S
N147 H167 0.862 . S
C148 C143 1.501 1_545 S
C148 H149 0.961 1_545 S
C148 H150 0.961 . S
C148 H151 0.960 1_545 S
H149 C148 0.961 1_565 S
H150 C148 0.961 . S
H151 C148 0.960 1_565 S
C152 N153 1.342 . S
C152 C156 1.401 1_565 S
C152 C157 1.499 . S
N153 Co136 1.989 . S
N153 C152 1.342 . S
N153 N154 1.388 . S
N154 Co137 1.993 . S
N154 N153 1.388 . S
N154 C155 1.346 1_565 S
C155 N154 1.346 1_545 S
C155 C156 1.396 . S
C155 C165 1.510 . S
C156 C152 1.401 1_545 S
C156 C155 1.396 . S
C157 C152 1.499 . S
C157 H158 0.959 . S
C157 H159 0.960 1_565 S
C157 H160 0.961 . S
H158 C157 0.959 . S
H159 C157 0.960 1_545 S
H160 C157 0.961 . S
O161 Co136 1.967 . S
O161 C169 1.258 . S
O162 Co137 1.941 . S
O162 C169 1.266 . S
H163 C165 0.959 . S
H164 C165 0.961 . S
C165 C155 1.510 . S
C165 H163 0.959 . S
C165 H164 0.961 . S
C165 H166 0.960 . S
H166 C165 0.960 . S
H167 N147 0.862 . S
O168 Co136 1.920 1_655 S
O168 C141 1.289 . S
C169 O161 1.258 . S
C169 O162 1.266 . S
Co170 O173 1.970 . S
Co170 N187 1.989 . S
Co170 O195 1.967 . S
Co170 O202 1.920 1_545 S
Co171 O174 1.966 . S
Co171 N180 2.022 . S
Co171 N188 1.993 . S
Co171 O196 1.941 . S
C172 O173 1.258 . S
C172 O174 1.263 . S
O173 Co170 1.970 . S
O173 C172 1.258 . S
O174 Co171 1.966 . S
O174 C172 1.263 . S
C175 O176 1.235 . S
C175 O202 1.289 . S
O176 C175 1.235 . S
C177 C179 1.400 . S
C177 N180 1.351 . S
C177 C182 1.501 . S
C178 C179 1.387 . S
C178 N181 1.341 . S
C179 C177 1.400 . S
C179 C178 1.387 . S
N180 Co171 2.022 . S
N180 C177 1.351 . S
N180 N181 1.365 . S
N181 C178 1.341 . S
N181 N180 1.365 . S
N181 H201 0.862 . S
C182 C177 1.501 . S
C182 H183 0.961 . S
C182 H184 0.961 . S
C182 H185 0.960 . S
H183 C182 0.961 . S
H184 C182 0.961 . S
H185 C182 0.960 . S
C186 N187 1.342 . S
C186 C190 1.401 . S
C186 C191 1.499 . S
N187 Co170 1.989 . S
N187 C186 1.342 . S
N187 N188 1.388 . S
N188 Co171 1.993 . S
N188 N187 1.388 . S
N188 C189 1.346 . S
C189 N188 1.346 . S
C189 C190 1.396 . S
C189 C199 1.510 . S
C190 C186 1.401 . S
C190 C189 1.396 . S
C191 C186 1.499 . S
C191 H192 0.959 . S
C191 H193 0.960 . S
C191 H194 0.961 . S
H192 C191 0.959 . S
H193 C191 0.960 . S
H194 C191 0.961 . S
O195 Co170 1.967 . S
O195 C203 1.258 . S
O196 Co171 1.941 . S
O196 C203 1.266 . S
H197 C199 0.959 . S
H198 C199 0.961 . S
C199 C189 1.510 . S
C199 H197 0.959 . S
C199 H198 0.961 . S
C199 H200 0.960 . S
H200 C199 0.960 . S
H201 N181 0.862 . S
O202 Co170 1.920 1_565 S
O202 C175 1.289 . S
C203 O195 1.258 . S
C203 O196 1.266 . S
Co204 O207 1.970 . S
Co204 N221 1.989 . S
Co204 O229 1.967 . S
Co204 O236 1.920 . S
Co205 O208 1.966 . S
Co205 N214 2.022 . S
Co205 N222 1.993 . S
Co205 O230 1.941 . S
C206 O207 1.258 . S
C206 O208 1.263 . S
O207 Co204 1.970 . S
O207 C206 1.258 . S
O208 Co205 1.966 . S
O208 C206 1.263 . S
C209 O210 1.235 . S
C209 O236 1.289 . S
O210 C209 1.235 . S
C211 C213 1.400 1_565 S
C211 N214 1.351 . S
C211 C216 1.501 1_565 S
C212 C213 1.387 1_565 S
C212 N215 1.341 . S
C213 C211 1.400 1_545 S
C213 C212 1.387 1_545 S
N214 Co205 2.022 . S
N214 C211 1.351 . S
N214 N215 1.365 . S
N215 C212 1.341 . S
N215 N214 1.365 . S
N215 H235 0.862 . S
C216 C211 1.501 1_545 S
C216 H217 0.961 1_545 S
C216 H218 0.961 . S
C216 H219 0.960 1_545 S
H217 C216 0.961 1_565 S
H218 C216 0.961 . S
H219 C216 0.960 1_565 S
C220 N221 1.342 . S
C220 C224 1.401 1_565 S
C220 C225 1.499 . S
N221 Co204 1.989 . S
N221 C220 1.342 . S
N221 N222 1.388 . S
N222 Co205 1.993 . S
N222 N221 1.388 . S
N222 C223 1.346 1_565 S
C223 N222 1.346 1_545 S
C223 C224 1.396 . S
C223 C233 1.510 . S
C224 C220 1.401 1_545 S
C224 C223 1.396 . S
C225 C220 1.499 . S
C225 H226 0.959 . S
C225 H227 0.960 1_565 S
C225 H228 0.961 . S
H226 C225 0.959 . S
H227 C225 0.960 1_545 S
H228 C225 0.961 . S
O229 Co204 1.967 . S
O229 C237 1.258 . S
O230 Co205 1.941 . S
O230 C237 1.266 . S
H231 C233 0.959 . S
H232 C233 0.961 . S
C233 C223 1.510 . S
C233 H231 0.959 . S
C233 H232 0.961 . S
C233 H234 0.960 . S
H234 C233 0.960 . S
H235 N215 0.862 . S
O236 Co204 1.920 . S
O236 C209 1.289 . S
C237 O229 1.258 . S
C237 O230 1.266 . S
Co238 O241 1.970 1_556 S
Co238 N255 1.989 . S
Co238 O263 1.967 . S
Co238 O270 1.920 1_655 S
Co239 O242 1.966 1_556 S
Co239 N248 2.022 1_556 S
Co239 N256 1.993 . S
Co239 O264 1.941 . S
C240 O241 1.258 . S
C240 O242 1.263 . S
O241 Co238 1.970 1_554 S
O241 C240 1.258 . S
O242 Co239 1.966 1_554 S
O242 C240 1.263 . S
C243 O244 1.235 . S
C243 O270 1.289 . S
O244 C243 1.235 . S
C245 C247 1.400 . S
C245 N248 1.351 . S
C245 C250 1.501 . S
C246 C247 1.387 1_556 S
C246 N249 1.341 . S
C247 C245 1.400 . S
C247 C246 1.387 1_554 S
N248 Co239 2.022 1_554 S
N248 C245 1.351 . S
N248 N249 1.365 1_554 S
N249 C246 1.341 . S
N249 N248 1.365 1_556 S
N249 H269 0.862 . S
C250 C245 1.501 . S
C250 H251 0.961 . S
C250 H252 0.961 . S
C250 H253 0.960 . S
H251 C250 0.961 . S
H252 C250 0.961 . S
H253 C250 0.960 . S
C254 N255 1.342 . S
C254 C258 1.401 . S
C254 C259 1.499 . S
N255 Co238 1.989 . S
N255 C254 1.342 . S
N255 N256 1.388 . S
N256 Co239 1.993 . S
N256 N255 1.388 . S
N256 C257 1.346 . S
C257 N256 1.346 . S
C257 C258 1.396 . S
C257 C267 1.510 . S
C258 C254 1.401 . S
C258 C257 1.396 . S
C259 C254 1.499 . S
C259 H260 0.959 . S
C259 H261 0.960 . S
C259 H262 0.961 . S
H260 C259 0.959 . S
H261 C259 0.960 . S
H262 C259 0.961 . S
O263 Co238 1.967 . S
O263 C271 1.258 . S
O264 Co239 1.941 . S
O264 C271 1.266 . S
H265 C267 0.959 . S
H266 C267 0.961 . S
C267 C257 1.510 . S
C267 H265 0.959 . S
C267 H266 0.961 . S
C267 H268 0.960 . S
H268 C267 0.960 . S
H269 N249 0.862 . S
O270 Co238 1.920 1_455 S
O270 C243 1.289 . S
C271 O263 1.258 . S
C271 O264 1.266 . S
Co272 O275 1.970 . S
Co272 N289 1.989 . S
Co272 O297 1.967 . S
Co272 O304 1.920 1_565 S
Co273 O276 1.966 . S
Co273 N282 2.022 . S
Co273 N290 1.993 . S
Co273 O298 1.941 . S
C274 O275 1.258 . S
C274 O276 1.263 . S
O275 Co272 1.970 . S
O275 C274 1.258 . S
O276 Co273 1.966 . S
O276 C274 1.263 . S
C277 O278 1.235 . S
C277 O304 1.289 . S
O278 C277 1.235 . S
C279 C281 1.400 1_455 S
C279 N282 1.351 . S
C279 C284 1.501 1_455 S
C280 C281 1.387 1_455 S
C280 N283 1.341 . S
C281 C279 1.400 1_655 S
C281 C280 1.387 1_655 S
N282 Co273 2.022 . S
N282 C279 1.351 . S
N282 N283 1.365 . S
N283 C280 1.341 . S
N283 N282 1.365 . S
N283 H303 0.862 . S
C284 C279 1.501 1_655 S
C284 H285 0.961 1_655 S
C284 H286 0.961 . S
C284 H287 0.960 1_655 S
H285 C284 0.961 1_455 S
H286 C284 0.961 . S
H287 C284 0.960 1_455 S
C288 N289 1.342 . S
C288 C292 1.401 1_455 S
C288 C293 1.499 . S
N289 Co272 1.989 . S
N289 C288 1.342 . S
N289 N290 1.388 . S
N290 Co273 1.993 . S
N290 N289 1.388 . S
N290 C291 1.346 1_455 S
C291 N290 1.346 1_655 S
C291 C292 1.396 . S
C291 C301 1.510 . S
C292 C288 1.401 1_655 S
C292 C291 1.396 . S
C293 C288 1.499 . S
C293 H294 0.959 . S
C293 H295 0.960 1_455 S
C293 H296 0.961 . S
H294 C293 0.959 . S
H295 C293 0.960 1_655 S
H296 C293 0.961 . S
O297 Co272 1.967 . S
O297 C305 1.258 . S
O298 Co273 1.941 . S
O298 C305 1.266 . S
H299 C301 0.959 . S
H300 C301 0.961 . S
C301 C291 1.510 . S
C301 H299 0.959 . S
C301 H300 0.961 . S
C301 H302 0.960 . S
H302 C301 0.960 . S
H303 N283 0.862 . S
O304 Co272 1.920 1_545 S
O304 C277 1.289 . S
C305 O297 1.258 . S
C305 O298 1.266 . S
Co306 O309 1.970 . S
Co306 N323 1.989 . S
Co306 O331 1.967 . S
Co306 O338 1.920 . S
Co307 O310 1.966 . S
Co307 N316 2.022 . S
Co307 N324 1.993 . S
Co307 O332 1.941 . S
C308 O309 1.258 . S
C308 O310 1.263 . S
O309 Co306 1.970 . S
O309 C308 1.258 . S
O310 Co307 1.966 . S
O310 C308 1.263 . S
C311 O312 1.235 . S
C311 O338 1.289 . S
O312 C311 1.235 . S
C313 C315 1.400 1_545 S
C313 N316 1.351 . S
C313 C318 1.501 1_545 S
C314 C315 1.387 1_545 S
C314 N317 1.341 . S
C315 C313 1.400 1_565 S
C315 C314 1.387 1_565 S
N316 Co307 2.022 . S
N316 C313 1.351 . S
N316 N317 1.365 . S
N317 C314 1.341 . S
N317 N316 1.365 . S
N317 H337 0.862 . S
C318 C313 1.501 1_565 S
C318 H319 0.961 1_565 S
C318 H320 0.961 . S
C318 H321 0.960 1_565 S
H319 C318 0.961 1_545 S
H320 C318 0.961 . S
H321 C318 0.960 1_545 S
C322 N323 1.342 . S
C322 C326 1.401 1_545 S
C322 C327 1.499 . S
N323 Co306 1.989 . S
N323 C322 1.342 . S
N323 N324 1.388 . S
N324 Co307 1.993 . S
N324 N323 1.388 . S
N324 C325 1.346 1_545 S
C325 N324 1.346 1_565 S
C325 C326 1.396 . S
C325 C335 1.510 . S
C326 C322 1.401 1_565 S
C326 C325 1.396 . S
C327 C322 1.499 . S
C327 H328 0.959 . S
C327 H329 0.960 1_545 S
C327 H330 0.961 . S
H328 C327 0.959 . S
H329 C327 0.960 1_565 S
H330 C327 0.961 . S
O331 Co306 1.967 . S
O331 C339 1.258 . S
O332 Co307 1.941 . S
O332 C339 1.266 . S
H333 C335 0.959 . S
H334 C335 0.961 . S
C335 C325 1.510 . S
C335 H333 0.959 . S
C335 H334 0.961 . S
C335 H336 0.960 . S
H336 C335 0.960 . S
H337 N317 0.862 . S
O338 Co306 1.920 . S
O338 C311 1.289 . S
C339 O331 1.258 . S
C339 O332 1.266 . S
Co340 O343 1.970 . S
Co340 N357 1.989 . S
Co340 O365 1.967 . S
Co340 O372 1.920 1_455 S
Co341 O344 1.966 . S
Co341 N350 2.022 . S
Co341 N358 1.993 . S
Co341 O366 1.941 . S
C342 O343 1.258 . S
C342 O344 1.263 . S
O343 Co340 1.970 . S
O343 C342 1.258 . S
O344 Co341 1.966 . S
O344 C342 1.263 . S
C345 O346 1.235 . S
C345 O372 1.289 . S
O346 C345 1.235 . S
C347 C349 1.400 . S
C347 N350 1.351 . S
C347 C352 1.501 . S
C348 C349 1.387 . S
C348 N351 1.341 . S
C349 C347 1.400 . S
C349 C348 1.387 . S
N350 Co341 2.022 . S
N350 C347 1.351 . S
N350 N351 1.365 . S
N351 C348 1.341 . S
N351 N350 1.365 . S
N351 H371 0.862 . S
C352 C347 1.501 . S
C352 H353 0.961 . S
C352 H354 0.961 . S
C352 H355 0.960 . S
H353 C352 0.961 . S
H354 C352 0.961 . S
H355 C352 0.960 . S
C356 N357 1.342 . S
C356 C360 1.401 . S
C356 C361 1.499 . S
N357 Co340 1.989 . S
N357 C356 1.342 . S
N357 N358 1.388 . S
N358 Co341 1.993 . S
N358 N357 1.388 . S
N358 C359 1.346 . S
C359 N358 1.346 . S
C359 C360 1.396 . S
C359 C369 1.510 . S
C360 C356 1.401 . S
C360 C359 1.396 . S
C361 C356 1.499 . S
C361 H362 0.959 . S
C361 H363 0.960 . S
C361 H364 0.961 . S
H362 C361 0.959 . S
H363 C361 0.960 . S
H364 C361 0.961 . S
O365 Co340 1.967 . S
O365 C373 1.258 . S
O366 Co341 1.941 . S
O366 C373 1.266 . S
H367 C369 0.959 . S
H368 C369 0.961 . S
C369 C359 1.510 . S
C369 H367 0.959 . S
C369 H368 0.961 . S
C369 H370 0.960 . S
H370 C369 0.960 . S
H371 N351 0.862 . S
O372 Co340 1.920 1_655 S
O372 C345 1.289 . S
C373 O365 1.258 . S
C373 O366 1.266 . S
Co374 O377 1.970 . S
Co374 N391 1.989 . S
Co374 O399 1.967 . S
Co374 O406 1.920 1_545 S
Co375 O378 1.966 . S
Co375 N384 2.022 . S
Co375 N392 1.993 . S
Co375 O400 1.941 . S
C376 O377 1.258 . S
C376 O378 1.263 . S
O377 Co374 1.970 . S
O377 C376 1.258 . S
O378 Co375 1.966 . S
O378 C376 1.263 . S
C379 O380 1.235 . S
C379 O406 1.289 . S
O380 C379 1.235 . S
C381 C383 1.400 1_655 S
C381 N384 1.351 . S
C381 C386 1.501 1_655 S
C382 C383 1.387 1_655 S
C382 N385 1.341 . S
C383 C381 1.400 1_455 S
C383 C382 1.387 1_455 S
N384 Co375 2.022 . S
N384 C381 1.351 . S
N384 N385 1.365 . S
N385 C382 1.341 . S
N385 N384 1.365 . S
N385 H405 0.862 . S
C386 C381 1.501 1_455 S
C386 H387 0.961 1_455 S
C386 H388 0.961 . S
C386 H389 0.960 1_455 S
H387 C386 0.961 1_655 S
H388 C386 0.961 . S
H389 C386 0.960 1_655 S
C390 N391 1.342 . S
C390 C394 1.401 1_655 S
C390 C395 1.499 . S
N391 Co374 1.989 . S
N391 C390 1.342 . S
N391 N392 1.388 . S
N392 Co375 1.993 . S
N392 N391 1.388 . S
N392 C393 1.346 1_655 S
C393 N392 1.346 1_455 S
C393 C394 1.396 . S
C393 C403 1.510 . S
C394 C390 1.401 1_455 S
C394 C393 1.396 . S
C395 C390 1.499 . S
C395 H396 0.959 . S
C395 H397 0.960 1_655 S
C395 H398 0.961 . S
H396 C395 0.959 . S
H397 C395 0.960 1_455 S
H398 C395 0.961 . S
O399 Co374 1.967 . S
O399 C407 1.258 . S
O400 Co375 1.941 . S
O400 C407 1.266 . S
H401 C403 0.959 . S
H402 C403 0.961 . S
C403 C393 1.510 . S
C403 H401 0.959 . S
C403 H402 0.961 . S
C403 H404 0.960 . S
H404 C403 0.960 . S
H405 N385 0.862 . S
O406 Co374 1.920 1_565 S
O406 C379 1.289 . S
C407 O399 1.258 . S
C407 O400 1.266 . S
C5 C277 2.046 . S
C311 C39 2.046 . S
C345 C73 2.046 . S
C107 C379 2.046 . S
C141 C209 2.046 . S
C175 C243 2.046 . S
C247 C33 1.901 . S
C67 C281 1.901 . S
C315 C101 1.901 . S
C349 C135 1.901 . S
C383 C169 1.901 . S
C213 C203 1.901 . S
C179 C237 1.901 . S
C271 C9 1.901 . S
C305 C43 1.901 . S
C77 C339 1.901 . S
C111 C373 1.901 . S
C145 C407 1.901 . S
C190 C2 1.897 . S
C20 C36 1.897 . S
C70 C54 1.897 . S
C88 C104 1.897 . S
C122 C138 1.897 . S
C156 C172 1.897 . S
C206 C258 1.897 . S
C240 C292 1.897 . S
C274 C326 1.897 . S
C360 C308 1.897 . S
C394 C342 1.897 . S
C376 C224 1.897 . S
