# Generated by pormake.
# Topology msp, (4)-cn, num edge types: 1
# Building blocks:
#     Node 0, Type 0, BuildingBlock: ESEHIV_clean_sbu_0, # of connection points: 4
#     Node 1, Type 0, BuildingBlock: ESEHIV_clean_sbu_0, # of connection points: 4
#     Node 2, Type 0, BuildingBlock: ESEHIV_clean_sbu_0, # of connection points: 4
#     Node 3, Type 0, BuildingBlock: ESEHIV_clean_sbu_0, # of connection points: 4
#     Node 4, Type 0, BuildingBlock: ESEHIV_clean_sbu_0, # of connection points: 4
#     Node 5, Type 0, BuildingBlock: ESEHIV_clean_sbu_0, # of connection points: 4
#     Node 6, Type 0, BuildingBlock: ESEHIV_clean_sbu_0, # of connection points: 4
#     Node 7, Type 0, BuildingBlock: ESEHIV_clean_sbu_0, # of connection points: 4
#     Edge 8, Type (0, 0), BuildingBlock: XIVTED_clean_linker_0, # of connection points: 2
#     Edge 9, Type (0, 0), BuildingBlock: XIVTED_clean_linker_0, # of connection points: 2
#     Edge 10, Type (0, 0), BuildingBlock: XIVTED_clean_linker_0, # of connection points: 2
#     Edge 11, Type (0, 0), BuildingBlock: XIVTED_clean_linker_0, # of connection points: 2
#     Edge 12, Type (0, 0), BuildingBlock: XIVTED_clean_linker_0, # of connection points: 2
#     Edge 13, Type (0, 0), BuildingBlock: XIVTED_clean_linker_0, # of connection points: 2
#     Edge 14, Type (0, 0), BuildingBlock: XIVTED_clean_linker_0, # of connection points: 2
#     Edge 15, Type (0, 0), BuildingBlock: XIVTED_clean_linker_0, # of connection points: 2
#     Edge 16, Type (0, 0), BuildingBlock: XIVTED_clean_linker_0, # of connection points: 2
#     Edge 17, Type (0, 0), BuildingBlock: XIVTED_clean_linker_0, # of connection points: 2
#     Edge 18, Type (0, 0), BuildingBlock: XIVTED_clean_linker_0, # of connection points: 2
#     Edge 19, Type (0, 0), BuildingBlock: XIVTED_clean_linker_0, # of connection points: 2
#     Edge 20, Type (0, 0), BuildingBlock: XIVTED_clean_linker_0, # of connection points: 2
#     Edge 21, Type (0, 0), BuildingBlock: XIVTED_clean_linker_0, # of connection points: 2
#     Edge 22, Type (0, 0), BuildingBlock: XIVTED_clean_linker_0, # of connection points: 2
#     Edge 23, Type (0, 0), BuildingBlock: XIVTED_clean_linker_0, # of connection points: 2
# Relax obj value: 0.063
# Max RMSD: 0.175
# Mean RMSD: 0.157
data_MOF--net-msp--node1-ESEHIV_clean_sbu_0--edge1-XIVTED_clean_linker_0
_symmetry_space_group_name_H-M    P1
_symmetry_Int_Tables_number       1
_symmetry_cell_setting            triclinic
loop_
_symmetry_equiv_pos_as_xyz
'x, y, z'
_cell_length_a     22.802866
_cell_length_b     22.601494
_cell_length_c     49.410853
_cell_angle_alpha  89.542301
_cell_angle_beta   98.621815
_cell_angle_gamma 90.546622
loop_
_atom_site_label
_atom_site_type_symbol
_atom_site_fract_x
_atom_site_fract_y
_atom_site_fract_z
_atom_type_partial_charge
Cu0 Cu 0.03201 0.29667 0.37521 0.0
N1 N 0.06843 0.23765 0.39807 0.0
N2 N 0.13288 0.19821 0.43176 0.0
C3 C 0.11049 0.24845 0.41958 0.0
C4 C 0.10301 0.15383 0.41742 0.0
C5 C 0.06332 0.17839 0.39651 0.0
O6 O 0.03962 0.36748 0.39773 0.0
C7 C 0.12886 0.30602 0.34581 0.0
O8 O 0.15957 0.31427 0.3702 0.0
H9 H 0.12457 0.29266 0.42598 0.0
H10 H 0.03382 0.15483 0.38098 0.0
N11 N 0.95234 0.27778 0.36398 0.0
N12 N 0.86358 0.2707 0.33802 0.0
C13 C 0.92177 0.28323 0.33856 0.0
C14 C 0.91239 0.26074 0.37999 0.0
C15 C 0.85748 0.25655 0.36404 0.0
C16 C 0.99715 0.40156 0.40104 0.0
O17 O 0.94596 0.39605 0.38505 0.0
H18 H 0.94142 0.29816 0.32105 0.0
H19 H 0.92235 0.25343 0.40185 0.0
O20 O 0.07266 0.30142 0.34342 0.0
H21 H 0.11043 0.10708 0.42123 0.0
H22 H 0.81624 0.24431 0.37105 0.0
Cu23 Cu 0.52481 0.29298 0.6598 0.0
N24 N 0.48742 0.23336 0.63739 0.0
N25 N 0.43024 0.19326 0.60125 0.0
C26 C 0.46599 0.23905 0.61063 0.0
C27 C 0.43078 0.15652 0.62303 0.0
C28 C 0.46605 0.18139 0.64524 0.0
O29 O 0.53147 0.36301 0.63709 0.0
C30 C 0.42446 0.29803 0.68761 0.0
O31 O 0.39397 0.29031 0.66315 0.0
H32 H 0.47448 0.27753 0.5987 0.0
H33 H 0.47229 0.16484 0.66607 0.0
N34 N 0.60112 0.26942 0.67432 0.0
N35 N 0.68513 0.25765 0.70348 0.0
C36 C 0.62868 0.27724 0.70013 0.0
C37 C 0.64117 0.2439 0.66087 0.0
C38 C 0.69308 0.23659 0.67879 0.0
C39 C 0.48684 0.38821 0.62331 0.0
O40 O 0.4333 0.37149 0.62701 0.0
H41 H 0.60814 0.29826 0.7159 0.0
H42 H 0.63325 0.23207 0.63945 0.0
O43 O 0.48061 0.30405 0.69017 0.0
H44 H 0.40453 0.11653 0.62352 0.0
H45 H 0.73341 0.21703 0.67402 0.0
Cu46 Cu 0.959 0.69334 0.64124 0.0
N47 N 0.90011 0.66977 0.66177 0.0
N48 N 0.837 0.67115 0.69234 0.0
C49 C 0.88729 0.69408 0.68499 0.0
C50 C 0.81804 0.6302 0.67318 0.0
C51 C 0.85705 0.62945 0.6544 0.0
O52 O 0.02939 0.71905 0.6655 0.0
C53 C 0.88121 0.78248 0.61569 0.0
O54 O 0.85759 0.78122 0.63834 0.0
H55 H 0.91235 0.73017 0.69542 0.0
H56 H 0.85318 0.60293 0.63608 0.0
N57 N 0.98002 0.62892 0.62149 0.0
N58 N 0.99753 0.57332 0.58637 0.0
C59 C 0.97427 0.62421 0.59404 0.0
C60 C 1.0075 0.57935 0.63157 0.0
C61 C 1.01842 0.54497 0.60997 0.0
C62 C 0.03277 0.76549 0.68003 0.0
O63 O 0.98755 0.80169 0.67771 0.0
H64 H 0.955 0.65827 0.58002 0.0
H65 H 1.01952 0.56942 0.65313 0.0
O66 O 0.92754 0.75237 0.61427 0.0
H67 H 0.7782 0.60348 0.67244 0.0
H68 H 0.03999 0.50237 0.61154 0.0
Cu69 Cu 0.60552 0.69866 0.39563 0.0
N70 N 0.66469 0.67513 0.37597 0.0
N71 N 0.72797 0.67881 0.34558 0.0
C72 C 0.67935 0.70258 0.35363 0.0
C73 C 0.74435 0.63455 0.36357 0.0
C74 C 0.70515 0.63238 0.38231 0.0
O75 O 0.54251 0.73207 0.36933 0.0
C76 C 0.61733 0.77652 0.44153 0.0
O77 O 0.56054 0.76659 0.44175 0.0
H78 H 0.65617 0.74079 0.34418 0.0
H79 H 0.70686 0.60281 0.39973 0.0
N80 N 0.57691 0.63348 0.41337 0.0
N81 N 0.55041 0.57502 0.44628 0.0
C82 C 0.58178 0.62334 0.44055 0.0
C83 C 0.54208 0.58968 0.40152 0.0
C84 C 0.52549 0.55366 0.42175 0.0
C85 C 0.4879 0.73123 0.37204 0.0
O86 O 0.4722 0.71211 0.39511 0.0
H87 H 0.60582 0.65209 0.45584 0.0
H88 H 0.52825 0.58541 0.3797 0.0
O89 O 0.64224 0.75437 0.42265 0.0
H90 H 0.78218 0.60608 0.36335 0.0
H91 H 0.49676 0.51514 0.41865 0.0
Cu92 Cu 0.53216 0.7948 0.87541 0.0
N93 N 0.56455 0.73453 0.89867 0.0
N94 N 0.62017 0.69306 0.9348 0.0
C95 C 0.59918 0.74393 0.92275 0.0
C96 C 0.59778 0.64974 0.91747 0.0
C97 C 0.56329 0.67555 0.89515 0.0
O98 O 0.54165 0.86567 0.89791 0.0
C99 C 0.63103 0.7983 0.84717 0.0
O100 O 0.66116 0.80297 0.87191 0.0
H101 H 0.61057 0.78767 0.93072 0.0
H102 H 0.53996 0.65313 0.87741 0.0
N103 N 0.45211 0.77897 0.8634 0.0
N104 N 0.36418 0.77375 0.83663 0.0
C105 C 0.42285 0.78454 0.83773 0.0
C106 C 0.41081 0.76362 0.879 0.0
C107 C 0.35641 0.76061 0.86256 0.0
C108 C 0.5 0.90067 0.90136 0.0
O109 O 0.44862 0.8963 0.88543 0.0
H110 H 0.44385 0.79805 0.8204 0.0
H111 H 0.41957 0.75647 0.9009 0.0
O112 O 0.57463 0.79759 0.84419 0.0
H113 H 0.60594 0.60291 0.92058 0.0
H114 H 0.31443 0.74964 0.86915 0.0
Cu115 Cu 0.02879 0.79116 0.15893 0.0
N116 N 0.99062 0.73412 0.13521 0.0
N117 N 0.92722 0.69581 0.10078 0.0
C118 C 0.95319 0.74545 0.11207 0.0
C119 C 0.95011 0.65113 0.11722 0.0
C120 C 0.98913 0.675 0.13854 0.0
O121 O 0.03864 0.86202 0.13734 0.0
C122 C 0.92776 0.79561 0.18641 0.0
O123 O 0.89743 0.78852 0.16187 0.0
H124 H 0.94406 0.78947 0.10398 0.0
H125 H 1.01305 0.65124 0.15578 0.0
N126 N 0.10404 0.76491 0.17365 0.0
N127 N 0.18762 0.75155 0.20291 0.0
C128 C 0.13196 0.77322 0.19936 0.0
C129 C 0.14304 0.73691 0.16047 0.0
C130 C 0.1947 0.72861 0.17846 0.0
C131 C 0.99623 0.8948 0.12662 0.0
O132 O 0.943 0.88597 0.13306 0.0
H133 H 0.11235 0.79617 0.21489 0.0
H134 H 0.13465 0.72414 0.13918 0.0
O135 O 0.98392 0.80156 0.18909 0.0
H136 H 0.93755 0.60497 0.11473 0.0
H137 H 0.23428 0.70719 0.17388 0.0
Cu138 Cu 0.45831 0.19363 0.14134 0.0
N139 N 0.3993 0.17059 0.16192 0.0
N140 N 0.33587 0.17298 0.19233 0.0
C141 C 0.38616 0.19571 0.1849 0.0
C142 C 0.31725 0.13128 0.17349 0.0
C143 C 0.35646 0.12992 0.1548 0.0
O144 O 0.52935 0.21793 0.16554 0.0
C145 C 0.38146 0.28388 0.11606 0.0
O146 O 0.35807 0.28293 0.13877 0.0
H147 H 0.41095 0.23226 0.19506 0.0
H148 H 0.35285 0.10273 0.1367 0.0
N149 N 0.47817 0.12917 0.12128 0.0
N150 N 0.49479 0.07404 0.08586 0.0
C151 C 0.47255 0.1252 0.09381 0.0
C152 C 0.50453 0.07884 0.13109 0.0
C153 C 0.51489 0.04474 0.1093 0.0
C154 C 0.53374 0.26382 0.18046 0.0
O155 O 0.48917 0.30075 0.17861 0.0
H156 H 0.45412 0.15996 0.07999 0.0
H157 H 0.51616 0.06819 0.1526 0.0
O158 O 0.42744 0.2533 0.11455 0.0
H159 H 0.27752 0.10445 0.17288 0.0
H160 H 0.53554 0.00169 0.11064 0.0
Cu161 Cu 0.10174 0.2017 0.89648 0.0
N162 N 0.16054 0.17747 0.87678 0.0
N163 N 0.22393 0.18087 0.84643 0.0
C164 C 0.17563 0.2051 0.85457 0.0
C165 C 0.23968 0.13611 0.86423 0.0
C166 C 0.20041 0.13411 0.88295 0.0
O167 O 0.03902 0.23568 0.8702 0.0
C168 C 0.11493 0.27921 0.94253 0.0
O169 O 0.05821 0.26946 0.94303 0.0
H170 H 0.15301 0.24378 0.84529 0.0
H171 H 0.2017 0.10427 0.90025 0.0
N172 N 0.07251 0.13697 0.91431 0.0
N173 N 0.04599 0.07911 0.94741 0.0
C174 C 0.0784 0.12652 0.94148 0.0
C175 C 0.03595 0.09425 0.90265 0.0
C176 C 1.01932 0.05862 0.92301 0.0
C177 C 0.98441 0.23551 0.87293 0.0
O178 O 0.96854 0.21678 0.89603 0.0
H179 H 0.1039 0.1545 0.95667 0.0
H180 H 0.02091 0.09056 0.88089 0.0
O181 O 0.13923 0.25716 0.92344 0.0
H182 H 0.27713 0.10719 0.8639 0.0
H183 H 0.98934 0.02101 0.9201 0.0
H184 H 0.91508 0.47813 0.41609 0.0
H185 H 0.08102 0.50289 0.56986 0.0
H186 H 0.08922 0.40737 0.44359 0.0
H187 H 0.92217 0.5998 0.53987 0.0
H188 H 0.0848 0.46845 0.52346 0.0
H189 H 0.91768 0.52579 0.46056 0.0
C190 C 0.95423 0.47328 0.43129 0.0
C191 C 1.00184 0.43831 0.42607 0.0
C192 C 0.04924 0.49751 0.52695 0.0
C193 C 1.00468 0.49208 0.47723 0.0
C194 C 0.0468 0.51681 0.55353 0.0
C195 C 1.00098 0.55402 0.55886 0.0
C196 C 1.00522 0.51497 0.50544 0.0
C197 C 0.95846 0.57146 0.53671 0.0
C198 C 0.95559 0.5004 0.45674 0.0
C199 C 0.05137 0.43372 0.44663 0.0
N200 N 0.96134 0.55144 0.51103 0.0
N201 N 0.05119 0.45968 0.47135 0.0
H202 H 0.62834 0.58016 0.49357 0.0
H203 H 0.40162 0.42663 0.58218 0.0
H204 H 0.45238 0.52077 0.45997 0.0
H205 H 0.59038 0.43508 0.60961 0.0
H206 H 0.41668 0.4772 0.53992 0.0
H207 H 0.61248 0.54181 0.53858 0.0
C208 C 0.58632 0.55934 0.4957 0.0
C209 C 0.54178 0.55324 0.47294 0.0
C210 C 0.45477 0.46841 0.55527 0.0
C211 C 0.52317 0.50978 0.5243 0.0
C212 C 0.4462 0.43989 0.57954 0.0
C213 C 0.49486 0.42624 0.5995 0.0
C214 C 0.51239 0.48396 0.55089 0.0
C215 C 0.55159 0.44444 0.59477 0.0
C216 C 0.57738 0.5373 0.52133 0.0
C217 C 0.48826 0.52558 0.47682 0.0
N218 N 0.55884 0.47218 0.57091 0.0
N219 N 0.48042 0.50505 0.50197 0.0
H220 H 0.4205 0.10353 0.03948 0.0
H221 H 0.59276 0.90493 0.94365 0.0
H222 H 0.5766 0.00198 0.06895 0.0
H223 H 0.4194 0.97826 0.91689 0.0
H224 H 0.59448 0.95279 0.98787 0.0
H225 H 0.42582 0.06945 0.99298 0.0
C226 C 0.45613 0.07443 0.03617 0.0
C227 C 0.49795 0.05532 0.05824 0.0
C228 C 0.55627 0.95887 0.97225 0.0
C229 C 0.50433 0.01612 1.00503 0.0
C230 C 0.55539 0.93184 0.94687 0.0
C231 C 0.50563 0.93715 0.92649 0.0
C232 C 0.50717 -0.00827 0.97738 0.0
C233 C 0.45857 0.97262 0.932 0.0
C234 C 0.459 0.05479 1.00962 0.0
C235 C 0.54286 0.01712 0.0527 0.0
N236 N 0.46033 -0.00178 0.95695 0.0
N237 N 0.54483 -0.00117 0.0267 0.0
H238 H 0.10046 0.93426 0.11103 0.0
H239 H 0.94688 0.02924 0.96214 0.0
H240 H 0.91051 0.94088 0.08766 0.0
H241 H 0.12659 0.0802 0.99384 0.0
H242 H 0.93424 -0.00819 1.00748 0.0
H243 H 0.11264 0.98492 0.06817 0.0
C244 C 0.06131 0.94708 0.09708 0.0
C245 C 1.00436 0.93314 0.10295 0.0
C246 C 0.97638 0.01144 1.00459 0.0
C247 C 1.01807 0.99 0.05364 0.0
C248 C 0.98378 0.03231 0.97864 0.0
C249 C 0.038 0.05754 0.97417 0.0
C250 C 0.02381 0.01493 0.02623 0.0
C251 C 0.08402 0.0613 0.99645 0.0
C252 C 0.06832 0.97593 0.07261 0.0
C253 C 0.95525 0.95081 0.08408 0.0
N254 N 0.07609 0.03971 0.02147 0.0
N255 N 0.96325 0.97757 0.06014 0.0
H256 H 0.64252 0.21191 0.18343 0.0
H257 H 0.7497 0.30385 0.33789 0.0
H258 H 0.54367 0.33178 0.22661 0.0
H259 H 0.87179 0.24543 0.28517 0.0
H260 H 0.67098 0.30751 0.29832 0.0
H261 H 0.72515 0.21764 0.22121 0.0
C262 C 0.63838 0.23981 0.20076 0.0
C263 C 0.58606 0.27139 0.20188 0.0
C264 C 0.71507 0.29418 0.29538 0.0
C265 C 0.68007 0.27731 0.24534 0.0
C266 C 0.75982 0.29162 0.31797 0.0
C267 C 0.81723 0.27407 0.31479 0.0
C268 C 0.72749 0.27807 0.26946 0.0
C269 C 0.8282 0.2595 0.28845 0.0
C270 C 0.68559 0.24311 0.22228 0.0
C271 C 0.58321 0.30689 0.22483 0.0
N272 N 0.7836 0.26126 0.26682 0.0
N273 N 0.62927 0.30835 0.24579 0.0
H274 H 0.80494 0.26413 0.70693 0.0
H275 H 0.86319 0.23512 0.87019 0.0
H276 H 0.66412 0.25633 0.75625 0.0
H277 H 1.00177 0.26375 0.82068 0.0
H278 H 0.78929 0.2455 0.82911 0.0
H279 H 0.87741 0.26519 0.74861 0.0
C280 C 0.78922 0.26242 0.72652 0.0
C281 C 0.72826 0.25978 0.72803 0.0
C282 C 0.83585 0.25 0.82729 0.0
C283 C 0.81123 0.26145 0.77603 0.0
C284 C 0.87812 0.2442 0.85076 0.0
C285 C 0.93889 0.24827 0.84892 0.0
C286 C 0.85445 0.25957 0.80174 0.0
C287 C 0.95549 0.26009 0.82314 0.0
C288 C 0.83066 0.26348 0.75037 0.0
C289 C 0.71057 0.2588 0.75408 0.0
N290 N 0.91359 0.26485 0.80059 0.0
N291 N 0.75184 0.25926 0.77704 0.0
H292 H 0.04154 0.83702 0.72499 0.0
H293 H 0.37463 0.7461 0.78429 0.0
H294 H 0.14197 0.7139 0.68427 0.0
H295 H 0.25064 0.80952 0.83498 0.0
H296 H 0.29598 0.74973 0.74452 0.0
H297 H 0.1246 0.84362 0.76257 0.0
C298 C 0.08131 0.81197 0.72377 0.0
C299 C 0.08471 0.77462 0.70151 0.0
C300 C 0.28612 0.76298 0.76436 0.0
C301 C 0.17979 0.78208 0.7444 0.0
C302 C 0.33098 0.76119 0.78697 0.0
C303 C 0.31895 0.77716 0.81296 0.0
C304 C 0.22913 0.78184 0.76768 0.0
C305 C 0.2615 0.79603 0.81538 0.0
C306 C 0.1285 0.81548 0.7453 0.0
C307 C 0.1373 0.74296 0.70111 0.0
N308 N 0.21877 0.79803 0.79303 0.0
N309 N 0.18277 0.74739 0.72224 0.0
H310 H 0.36672 0.73126 0.36947 0.0
H311 H 0.30746 0.7547 0.20613 0.0
H312 H 0.50497 0.75836 0.31964 0.0
H313 H 0.167 0.75371 0.25569 0.0
H314 H 0.38023 0.75618 0.24771 0.0
H315 H 0.29259 0.74113 0.32844 0.0
C316 C 0.38153 0.73989 0.34998 0.0
C317 C 0.44226 0.74368 0.34804 0.0
C318 C 0.3335 0.75589 0.24954 0.0
C319 C 0.35759 0.75436 0.30092 0.0
C320 C 0.29188 0.75458 0.22576 0.0
C321 C 0.23095 0.75374 0.22738 0.0
C322 C 0.31424 0.75588 0.27525 0.0
C323 C 0.21346 0.75474 0.25346 0.0
C324 C 0.33914 0.74542 0.32654 0.0
C325 C 0.45872 0.75494 0.32219 0.0
N326 N 0.25487 0.75537 0.27636 0.0
N327 N 0.41671 0.75939 0.29966 0.0
H328 H 0.2175 0.16755 0.19458 0.0
H329 H 0.24819 0.31193 0.34352 0.0
H330 H 0.38442 0.22587 0.2398 0.0
H331 H 0.08022 0.27108 0.29417 0.0
H332 H 0.29896 0.28169 0.30573 0.0
H333 H 0.16678 0.20421 0.23114 0.0
C334 C 0.24363 0.18764 0.21228 0.0
C335 C 0.30548 0.19337 0.2141 0.0
C336 C 0.25098 0.27972 0.3031 0.0
C337 C 0.24736 0.23627 0.25604 0.0
C338 C 0.2219 0.29713 0.32466 0.0
C339 C 0.15977 0.2939 0.32209 0.0
C340 C 0.21781 0.2585 0.2788 0.0
C341 C 0.12815 0.27433 0.29712 0.0
C342 C 0.21451 0.20909 0.23308 0.0
C343 C 0.3367 0.22091 0.23738 0.0
N344 N 0.15751 0.25702 0.27655 0.0
N345 N 0.30737 0.24113 0.25745 0.0
H346 H 0.30546 0.29876 0.69007 0.0
H347 H 0.3414 0.17312 0.84298 0.0
H348 H 0.47549 0.27834 0.7408 0.0
H349 H 0.17497 0.23474 0.79928 0.0
H350 H 0.39115 0.20792 0.80517 0.0
H351 H 0.25661 0.27398 0.7295 0.0
C352 C 0.33255 0.28966 0.70958 0.0
C353 C 0.39469 0.29046 0.7121 0.0
C354 C 0.34378 0.21405 0.80391 0.0
C355 C 0.33896 0.26109 0.75726 0.0
C356 C 0.31528 0.19371 0.82538 0.0
C357 C 0.25388 0.20088 0.82427 0.0
C358 C 0.31057 0.24118 0.78097 0.0
C359 C 0.22241 0.22875 0.8011 0.0
C360 C 0.3046 0.27545 0.73209 0.0
C361 C 0.42748 0.27838 0.73791 0.0
N362 N 0.25102 0.24753 0.78032 0.0
N363 N 0.39923 0.26357 0.75942 0.0
H364 H 0.75083 0.79955 0.84575 0.0
H365 H 0.71865 0.66676 0.69454 0.0
H366 H 0.58252 0.76879 0.79478 0.0
H367 H 0.8863 0.72097 0.74042 0.0
H368 H 0.66843 0.70169 0.7316 0.0
H369 H 0.80153 0.77068 0.80771 0.0
C370 C 0.72448 0.7872 0.82651 0.0
C371 C 0.66225 0.78646 0.82353 0.0
C372 C 0.71621 0.70605 0.73357 0.0
C373 C 0.72014 0.75266 0.77993 0.0
C374 C 0.74502 0.68558 0.71249 0.0
C375 C 0.80693 0.69066 0.71436 0.0
C376 C 0.74944 0.73153 0.75689 0.0
C377 C 0.83853 0.71656 0.73798 0.0
C378 C 0.7535 0.77062 0.80479 0.0
C379 C 0.63053 0.77006 0.79806 0.0
N380 N 0.80949 0.7358 0.75834 0.0
N381 N 0.6598 0.75344 0.77735 0.0
H382 H 0.80856 0.79465 0.18866 0.0
H383 H 0.84553 0.67248 0.3422 0.0
H384 H 0.97858 0.77722 0.23972 0.0
H385 H 0.67831 0.73116 0.29814 0.0
H386 H 0.89486 0.70703 0.30423 0.0
H387 H 0.75972 0.76991 0.22812 0.0
C388 C 0.83564 0.78621 0.20823 0.0
C389 C 0.89779 0.78784 0.21084 0.0
C390 C 0.8474 0.71257 0.30291 0.0
C391 C 0.8421 0.75856 0.25604 0.0
C392 C 0.81915 0.69237 0.32448 0.0
C393 C 0.75765 0.69878 0.32332 0.0
C394 C 0.81387 0.73879 0.27982 0.0
C395 C 0.72583 0.72577 0.3 0.0
C396 C 0.8077 0.77202 0.23076 0.0
C397 C 0.93057 0.77657 0.23674 0.0
N398 N 0.75422 0.74443 0.27912 0.0
N399 N 0.90235 0.76181 0.25826 0.0
H400 H 0.369 0.09666 0.57852 0.0
H401 H 0.21978 0.27925 0.44722 0.0
H402 H 0.40272 0.28176 0.56357 0.0
H403 H 0.1553 0.10744 0.46848 0.0
H404 H 0.29568 0.27494 0.48724 0.0
H405 H 0.29896 0.09431 0.5359 0.0
C406 C 0.36208 0.13676 0.56643 0.0
C407 C 0.39214 0.18957 0.57508 0.0
C408 C 0.26501 0.23807 0.48321 0.0
C409 C 0.31231 0.18673 0.52597 0.0
C410 C 0.22123 0.24065 0.46037 0.0
C411 C 0.18019 0.19406 0.45462 0.0
C412 C 0.26832 0.18843 0.50059 0.0
C413 C 0.1859 0.14437 0.47208 0.0
C414 C 0.32209 0.13523 0.54201 0.0
C415 C 0.38163 0.23972 0.55804 0.0
N416 N 0.22897 0.14297 0.49439 0.0
N417 N 0.34265 0.23698 0.53448 0.0
H418 H 0.91649 0.79446 0.56529 0.0
H419 H 0.58448 0.80938 0.49051 0.0
H420 H 0.76714 0.82354 0.60774 0.0
H421 H 0.73654 0.79988 0.44818 0.0
H422 H 0.65092 0.83121 0.53291 0.0
H423 H 0.85278 0.81317 0.5219 0.0
C424 C 0.87055 0.80592 0.56555 0.0
C425 C 0.84694 0.80643 0.59019 0.0
C426 C 0.66967 0.82539 0.51424 0.0
C427 C 0.77332 0.82691 0.54046 0.0
C428 C 0.63169 0.81304 0.48998 0.0
C429 C 0.65499 0.80167 0.46583 0.0
C430 C 0.73138 0.82595 0.51437 0.0
C431 C 0.71657 0.80737 0.46639 0.0
C432 C 0.83408 0.81651 0.54072 0.0
C433 C 0.78717 0.82205 0.58924 0.0
N434 N 0.75262 0.81815 0.49033 0.0
N435 N 0.75215 0.83057 0.56475 0.0
H436 H 0.84568 0.77976 0.08385 0.0
H437 H 0.69926 0.60482 0.95027 0.0
H438 H 0.90119 0.60475 0.06509 0.0
H439 H 0.63402 0.76946 0.97732 0.0
H440 H 0.77262 0.60179 0.99198 0.0
H441 H 0.76841 0.77569 0.04432 0.0
C442 C 0.84192 0.74052 0.07129 0.0
C443 C 0.88053 0.69276 0.07766 0.0
C444 C 0.74199 0.63838 0.98877 0.0
C445 C 0.79101 0.6874 0.03226 0.0
C446 C 0.69989 0.63999 0.96504 0.0
C447 C 0.66075 0.68783 0.96007 0.0
C448 C 0.74493 0.68497 1.00761 0.0
C449 C 0.66401 0.73238 0.97989 0.0
C450 C 0.7973 0.73799 0.04878 0.0
C451 C 0.87231 0.64247 0.06094 0.0
N452 N 0.70546 0.72998 1.00262 0.0
N453 N 0.82863 0.6412 0.03887 0.0
H454 H 0.41597 0.29468 0.06544 0.0
H455 H 0.08331 0.31244 0.99171 0.0
H456 H 0.26789 0.32627 0.10841 0.0
H457 H 0.23434 0.30137 0.94877 0.0
H458 H 0.1506 0.3338 0.03391 0.0
H459 H 0.3518 0.3135 0.02219 0.0
C460 C 0.37024 0.30673 0.06584 0.0
C461 C 0.3471 0.30792 0.0906 0.0
C462 C 0.16895 0.32773 1.01515 0.0
C463 C 0.27293 0.32852 0.04102 0.0
C464 C 0.13048 0.31565 0.99101 0.0
C465 C 0.15322 0.304 0.96674 0.0
C466 C 0.23058 0.32774 1.01505 0.0
C467 C 0.21478 0.30911 0.96707 0.0
C468 C 0.33349 0.31737 0.04109 0.0
C469 C 0.28756 0.32424 0.08982 0.0
N470 N 0.2513 0.31964 0.99091 0.0
N471 N 0.25226 0.33281 0.0654 0.0
loop_
_geom_bond_atom_site_label_1
_geom_bond_atom_site_label_2
_geom_bond_distance
_geom_bond_site_symmetry_2
_ccdc_geom_bond_type
Cu0 N1 1.999 . S
Cu0 O6 1.974 1_455 S
Cu0 N11 1.985 1_455 S
Cu0 O20 1.959 . S
N1 Cu0 1.999 . S
N1 C3 1.263 . S
N1 C5 1.389 . S
N2 C3 1.358 . S
N2 C4 1.400 . S
C3 N1 1.263 . S
C3 N2 1.358 . S
C3 H9 0.930 . S
C4 N2 1.400 . S
C4 C5 1.351 . S
C4 H21 0.930 . S
C5 N1 1.389 . S
C5 C4 1.351 . S
C5 H10 0.930 . S
O6 Cu0 1.974 1_655 S
O6 C16 1.282 . S
C7 O8 1.261 . S
C7 O20 1.251 . S
O8 C7 1.261 . S
H9 C3 0.930 . S
H10 C5 0.930 . S
N11 Cu0 1.985 1_655 S
N11 C13 1.335 . S
N11 C14 1.390 . S
N12 C13 1.345 . S
N12 C15 1.336 . S
C13 N11 1.335 . S
C13 N12 1.345 . S
C13 H18 0.930 . S
C14 N11 1.390 . S
C14 C15 1.346 . S
C14 H19 0.930 . S
C15 N12 1.336 . S
C15 C14 1.346 . S
C15 H22 0.929 . S
C16 O6 1.282 . S
C16 O17 1.216 . S
O17 C16 1.216 . S
H18 C13 0.930 . S
H19 C14 0.930 . S
O20 Cu0 1.959 . S
O20 C7 1.251 . S
H21 C4 0.930 . S
H22 C15 0.929 . S
Cu23 N24 1.999 . S
Cu23 O29 1.974 . S
Cu23 N34 1.985 . S
Cu23 O43 1.959 . S
N24 Cu23 1.999 . S
N24 C26 1.263 . S
N24 C28 1.389 . S
N25 C26 1.358 . S
N25 C27 1.400 . S
C26 N24 1.263 . S
C26 N25 1.358 . S
C26 H32 0.930 . S
C27 N25 1.400 . S
C27 C28 1.351 . S
C27 H44 0.930 . S
C28 N24 1.389 . S
C28 C27 1.351 . S
C28 H33 0.930 . S
O29 Cu23 1.974 . S
O29 C39 1.282 . S
C30 O31 1.261 . S
C30 O43 1.251 . S
O31 C30 1.261 . S
H32 C26 0.930 . S
H33 C28 0.930 . S
N34 Cu23 1.985 . S
N34 C36 1.335 . S
N34 C37 1.390 . S
N35 C36 1.345 . S
N35 C38 1.336 . S
C36 N34 1.335 . S
C36 N35 1.345 . S
C36 H41 0.930 . S
C37 N34 1.390 . S
C37 C38 1.346 . S
C37 H42 0.930 . S
C38 N35 1.336 . S
C38 C37 1.346 . S
C38 H45 0.929 . S
C39 O29 1.282 . S
C39 O40 1.216 . S
O40 C39 1.216 . S
H41 C36 0.930 . S
H42 C37 0.930 . S
O43 Cu23 1.959 . S
O43 C30 1.251 . S
H44 C27 0.930 . S
H45 C38 0.929 . S
Cu46 N47 1.999 . S
Cu46 O52 1.974 . S
Cu46 N57 1.985 . S
Cu46 O66 1.959 . S
N47 Cu46 1.999 . S
N47 C49 1.263 . S
N47 C51 1.389 . S
N48 C49 1.358 . S
N48 C50 1.400 . S
C49 N47 1.263 . S
C49 N48 1.358 . S
C49 H55 0.930 . S
C50 N48 1.400 . S
C50 C51 1.351 . S
C50 H67 0.930 . S
C51 N47 1.389 . S
C51 C50 1.351 . S
C51 H56 0.930 . S
O52 Cu46 1.974 . S
O52 C62 1.282 1_655 S
C53 O54 1.261 . S
C53 O66 1.251 . S
O54 C53 1.261 . S
H55 C49 0.930 . S
H56 C51 0.930 . S
N57 Cu46 1.985 . S
N57 C59 1.335 . S
N57 C60 1.390 1_655 S
N58 C59 1.345 . S
N58 C61 1.336 1_655 S
C59 N57 1.335 . S
C59 N58 1.345 . S
C59 H64 0.930 . S
C60 N57 1.390 1_455 S
C60 C61 1.346 . S
C60 H65 0.930 . S
C61 N58 1.336 1_455 S
C61 C60 1.346 . S
C61 H68 0.929 . S
C62 O52 1.282 1_455 S
C62 O63 1.216 . S
O63 C62 1.216 . S
H64 C59 0.930 . S
H65 C60 0.930 . S
O66 Cu46 1.959 . S
O66 C53 1.251 . S
H67 C50 0.930 . S
H68 C61 0.929 . S
Cu69 N70 1.999 . S
Cu69 O75 1.974 . S
Cu69 N80 1.985 . S
Cu69 O89 1.959 . S
N70 Cu69 1.999 . S
N70 C72 1.263 . S
N70 C74 1.389 . S
N71 C72 1.358 . S
N71 C73 1.400 . S
C72 N70 1.263 . S
C72 N71 1.358 . S
C72 H78 0.930 . S
C73 N71 1.400 . S
C73 C74 1.351 . S
C73 H90 0.930 . S
C74 N70 1.389 . S
C74 C73 1.351 . S
C74 H79 0.930 . S
O75 Cu69 1.974 . S
O75 C85 1.282 . S
C76 O77 1.261 . S
C76 O89 1.251 . S
O77 C76 1.261 . S
H78 C72 0.930 . S
H79 C74 0.930 . S
N80 Cu69 1.985 . S
N80 C82 1.335 . S
N80 C83 1.390 . S
N81 C82 1.345 . S
N81 C84 1.336 . S
C82 N80 1.335 . S
C82 N81 1.345 . S
C82 H87 0.930 . S
C83 N80 1.390 . S
C83 C84 1.346 . S
C83 H88 0.930 . S
C84 N81 1.336 . S
C84 C83 1.346 . S
C84 H91 0.929 . S
C85 O75 1.282 . S
C85 O86 1.216 . S
O86 C85 1.216 . S
H87 C82 0.930 . S
H88 C83 0.930 . S
O89 Cu69 1.959 . S
O89 C76 1.251 . S
H90 C73 0.930 . S
H91 C84 0.929 . S
Cu92 N93 1.999 . S
Cu92 O98 1.974 . S
Cu92 N103 1.985 . S
Cu92 O112 1.959 . S
N93 Cu92 1.999 . S
N93 C95 1.263 . S
N93 C97 1.389 . S
N94 C95 1.358 . S
N94 C96 1.400 . S
C95 N93 1.263 . S
C95 N94 1.358 . S
C95 H101 0.930 . S
C96 N94 1.400 . S
C96 C97 1.351 . S
C96 H113 0.930 . S
C97 N93 1.389 . S
C97 C96 1.351 . S
C97 H102 0.930 . S
O98 Cu92 1.974 . S
O98 C108 1.282 . S
C99 O100 1.261 . S
C99 O112 1.251 . S
O100 C99 1.261 . S
H101 C95 0.930 . S
H102 C97 0.930 . S
N103 Cu92 1.985 . S
N103 C105 1.335 . S
N103 C106 1.390 . S
N104 C105 1.345 . S
N104 C107 1.336 . S
C105 N103 1.335 . S
C105 N104 1.345 . S
C105 H110 0.930 . S
C106 N103 1.390 . S
C106 C107 1.346 . S
C106 H111 0.930 . S
C107 N104 1.336 . S
C107 C106 1.346 . S
C107 H114 0.929 . S
C108 O98 1.282 . S
C108 O109 1.216 . S
O109 C108 1.216 . S
H110 C105 0.930 . S
H111 C106 0.930 . S
O112 Cu92 1.959 . S
O112 C99 1.251 . S
H113 C96 0.930 . S
H114 C107 0.929 . S
Cu115 N116 1.999 . S
Cu115 O121 1.974 1_655 S
Cu115 N126 1.985 1_655 S
Cu115 O135 1.959 . S
N116 Cu115 1.999 . S
N116 C118 1.263 . S
N116 C120 1.389 . S
N117 C118 1.358 . S
N117 C119 1.400 . S
C118 N116 1.263 . S
C118 N117 1.358 . S
C118 H124 0.930 . S
C119 N117 1.400 . S
C119 C120 1.351 . S
C119 H136 0.930 . S
C120 N116 1.389 . S
C120 C119 1.351 . S
C120 H125 0.930 . S
O121 Cu115 1.974 1_455 S
O121 C131 1.282 . S
C122 O123 1.261 . S
C122 O135 1.251 . S
O123 C122 1.261 . S
H124 C118 0.930 . S
H125 C120 0.930 . S
N126 Cu115 1.985 1_455 S
N126 C128 1.335 . S
N126 C129 1.390 . S
N127 C128 1.345 . S
N127 C130 1.336 . S
C128 N126 1.335 . S
C128 N127 1.345 . S
C128 H133 0.930 . S
C129 N126 1.390 . S
C129 C130 1.346 . S
C129 H134 0.930 . S
C130 N127 1.336 . S
C130 C129 1.346 . S
C130 H137 0.929 . S
C131 O121 1.282 . S
C131 O132 1.216 . S
O132 C131 1.216 . S
H133 C128 0.930 . S
H134 C129 0.930 . S
O135 Cu115 1.959 . S
O135 C122 1.251 . S
H136 C119 0.930 . S
H137 C130 0.929 . S
Cu138 N139 1.999 . S
Cu138 O144 1.974 . S
Cu138 N149 1.985 . S
Cu138 O158 1.959 . S
N139 Cu138 1.999 . S
N139 C141 1.263 . S
N139 C143 1.389 . S
N140 C141 1.358 . S
N140 C142 1.400 . S
C141 N139 1.263 . S
C141 N140 1.358 . S
C141 H147 0.930 . S
C142 N140 1.400 . S
C142 C143 1.351 . S
C142 H159 0.930 . S
C143 N139 1.389 . S
C143 C142 1.351 . S
C143 H148 0.930 . S
O144 Cu138 1.974 . S
O144 C154 1.282 . S
C145 O146 1.261 . S
C145 O158 1.251 . S
O146 C145 1.261 . S
H147 C141 0.930 . S
H148 C143 0.930 . S
N149 Cu138 1.985 . S
N149 C151 1.335 . S
N149 C152 1.390 . S
N150 C151 1.345 . S
N150 C153 1.336 . S
C151 N149 1.335 . S
C151 N150 1.345 . S
C151 H156 0.930 . S
C152 N149 1.390 . S
C152 C153 1.346 . S
C152 H157 0.930 . S
C153 N150 1.336 . S
C153 C152 1.346 . S
C153 H160 0.929 . S
C154 O144 1.282 . S
C154 O155 1.216 . S
O155 C154 1.216 . S
H156 C151 0.930 . S
H157 C152 0.930 . S
O158 Cu138 1.959 . S
O158 C145 1.251 . S
H159 C142 0.930 . S
H160 C153 0.929 . S
Cu161 N162 1.999 . S
Cu161 O167 1.974 . S
Cu161 N172 1.985 . S
Cu161 O181 1.959 . S
N162 Cu161 1.999 . S
N162 C164 1.263 . S
N162 C166 1.389 . S
N163 C164 1.358 . S
N163 C165 1.400 . S
C164 N162 1.263 . S
C164 N163 1.358 . S
C164 H170 0.930 . S
C165 N163 1.400 . S
C165 C166 1.351 . S
C165 H182 0.930 . S
C166 N162 1.389 . S
C166 C165 1.351 . S
C166 H171 0.930 . S
O167 Cu161 1.974 . S
O167 C177 1.282 1_455 S
C168 O169 1.261 . S
C168 O181 1.251 . S
O169 C168 1.261 . S
H170 C164 0.930 . S
H171 C166 0.930 . S
N172 Cu161 1.985 . S
N172 C174 1.335 . S
N172 C175 1.390 1_455 S
N173 C174 1.345 . S
N173 C176 1.336 1_455 S
C174 N172 1.335 . S
C174 N173 1.345 . S
C174 H179 0.930 . S
C175 N172 1.390 1_655 S
C175 C176 1.346 . S
C175 H180 0.930 . S
C176 N173 1.336 1_655 S
C176 C175 1.346 . S
C176 H183 0.929 . S
C177 O167 1.282 1_655 S
C177 O178 1.216 . S
O178 C177 1.216 . S
H179 C174 0.930 . S
H180 C175 0.930 . S
O181 Cu161 1.959 . S
O181 C168 1.251 . S
H182 C165 0.930 . S
H183 C176 0.929 . S
H184 C190 0.930 . S
H185 C194 0.930 . S
H186 C199 0.929 . S
H187 C197 0.929 . S
H188 C192 0.929 . S
H189 C198 0.929 . S
C190 H184 0.930 . S
C190 C191 1.367 . S
C190 C198 1.378 . S
C191 C190 1.367 . S
C191 C199 1.433 1_655 S
C192 H188 0.929 . S
C192 C194 1.378 . S
C192 C196 1.350 1_455 S
C193 C196 1.463 . S
C193 C198 1.350 . S
C193 N201 1.427 1_655 S
C194 H185 0.930 . S
C194 C192 1.378 . S
C194 C195 1.367 1_455 S
C195 C194 1.367 1_655 S
C195 C197 1.433 . S
C196 C192 1.350 1_655 S
C196 C193 1.463 . S
C196 N200 1.427 . S
C197 H187 0.929 . S
C197 C195 1.433 . S
C197 N200 1.384 . S
C198 H189 0.929 . S
C198 C190 1.378 . S
C198 C193 1.350 . S
C199 H186 0.929 . S
C199 C191 1.433 1_455 S
C199 N201 1.384 . S
N200 C196 1.427 . S
N200 C197 1.384 . S
N201 C193 1.427 1_455 S
N201 C199 1.384 . S
H202 C208 0.930 . S
H203 C212 0.930 . S
H204 C217 0.929 . S
H205 C215 0.929 . S
H206 C210 0.929 . S
H207 C216 0.929 . S
C208 H202 0.930 . S
C208 C209 1.367 . S
C208 C216 1.378 . S
C209 C208 1.367 . S
C209 C217 1.433 . S
C210 H206 0.929 . S
C210 C212 1.378 . S
C210 C214 1.350 . S
C211 C214 1.463 . S
C211 C216 1.350 . S
C211 N219 1.427 . S
C212 H203 0.930 . S
C212 C210 1.378 . S
C212 C213 1.367 . S
C213 C212 1.367 . S
C213 C215 1.433 . S
C214 C210 1.350 . S
C214 C211 1.463 . S
C214 N218 1.427 . S
C215 H205 0.929 . S
C215 C213 1.433 . S
C215 N218 1.384 . S
C216 H207 0.929 . S
C216 C208 1.378 . S
C216 C211 1.350 . S
C217 H204 0.929 . S
C217 C209 1.433 . S
C217 N219 1.384 . S
N218 C214 1.427 . S
N218 C215 1.384 . S
N219 C211 1.427 . S
N219 C217 1.384 . S
H220 C226 0.930 1_556 S
H221 C230 0.930 . S
H222 C235 0.929 . S
H223 C233 0.929 . S
H224 C228 0.929 . S
H225 C234 0.929 . S
C226 H220 0.930 1_554 S
C226 C227 1.367 . S
C226 C234 1.378 1_554 S
C227 C226 1.367 . S
C227 C235 1.433 . S
C228 H224 0.929 . S
C228 C230 1.378 . S
C228 C232 1.350 . S
C229 C232 1.463 1_545 S
C229 C234 1.350 . S
C229 N237 1.427 1_546 S
C230 H221 0.930 . S
C230 C228 1.378 . S
C230 C231 1.367 . S
C231 C230 1.367 . S
C231 C233 1.433 . S
C232 C228 1.350 . S
C232 C229 1.463 1_565 S
C232 N236 1.427 . S
C233 H223 0.929 . S
C233 C231 1.433 . S
C233 N236 1.384 . S
C234 H225 0.929 . S
C234 C226 1.378 1_556 S
C234 C229 1.350 . S
C235 H222 0.929 . S
C235 C227 1.433 . S
C235 N237 1.384 1_545 S
N236 C232 1.427 . S
N236 C233 1.384 . S
N237 C229 1.427 1_564 S
N237 C235 1.384 1_565 S
H238 C244 0.930 . S
H239 C248 0.930 . S
H240 C253 0.928 . S
H241 C251 0.929 . S
H242 C246 0.929 . S
H243 C252 0.929 . S
C244 H238 0.930 . S
C244 C245 1.367 . S
C244 C252 1.378 . S
C245 C244 1.367 . S
C245 C253 1.434 1_455 S
C246 H242 0.929 . S
C246 C248 1.378 1_554 S
C246 C250 1.350 1_655 S
C247 C250 1.463 1_565 S
C247 C252 1.350 . S
C247 N255 1.427 1_455 S
C248 H239 0.930 . S
C248 C246 1.378 1_556 S
C248 C249 1.367 1_655 S
C249 C248 1.367 1_455 S
C249 C251 1.433 . S
C250 C246 1.350 1_455 S
C250 C247 1.463 1_545 S
C250 N254 1.427 1_544 S
C251 H241 0.929 . S
C251 C249 1.433 . S
C251 N254 1.384 1_545 S
C252 H243 0.929 . S
C252 C244 1.378 . S
C252 C247 1.350 . S
C253 H240 0.928 . S
C253 C245 1.434 1_655 S
C253 N255 1.384 . S
N254 C250 1.427 1_566 S
N254 C251 1.384 1_565 S
N255 C247 1.427 1_655 S
N255 C253 1.384 . S
H256 C262 0.930 . S
H257 C266 0.930 . S
H258 C271 0.929 . S
H259 C269 0.929 . S
H260 C264 0.929 . S
H261 C270 0.929 . S
C262 H256 0.930 . S
C262 C263 1.367 . S
C262 C270 1.378 . S
C263 C262 1.367 . S
C263 C271 1.433 . S
C264 H260 0.929 . S
C264 C266 1.378 . S
C264 C268 1.350 . S
C265 C268 1.463 . S
C265 C270 1.350 . S
C265 N273 1.427 . S
C266 H257 0.930 . S
C266 C264 1.378 . S
C266 C267 1.367 . S
C267 C266 1.367 . S
C267 C269 1.433 . S
C268 C264 1.350 . S
C268 C265 1.463 . S
C268 N272 1.427 . S
C269 H259 0.929 . S
C269 C267 1.433 . S
C269 N272 1.384 . S
C270 H261 0.929 . S
C270 C262 1.378 . S
C270 C265 1.350 . S
C271 H258 0.929 . S
C271 C263 1.433 . S
C271 N273 1.384 . S
N272 C268 1.427 . S
N272 C269 1.384 . S
N273 C265 1.427 . S
N273 C271 1.384 . S
H274 C280 0.930 . S
H275 C284 0.930 . S
H276 C289 0.929 . S
H277 C287 0.929 . S
H278 C282 0.929 . S
H279 C288 0.929 . S
C280 H274 0.930 . S
C280 C281 1.367 . S
C280 C288 1.378 . S
C281 C280 1.367 . S
C281 C289 1.433 . S
C282 H278 0.929 . S
C282 C284 1.378 . S
C282 C286 1.350 . S
C283 C286 1.463 . S
C283 C288 1.350 . S
C283 N291 1.427 . S
C284 H275 0.930 . S
C284 C282 1.378 . S
C284 C285 1.367 . S
C285 C284 1.367 . S
C285 C287 1.433 . S
C286 C282 1.350 . S
C286 C283 1.463 . S
C286 N290 1.427 . S
C287 H277 0.929 . S
C287 C285 1.433 . S
C287 N290 1.384 . S
C288 H279 0.929 . S
C288 C280 1.378 . S
C288 C283 1.350 . S
C289 H276 0.929 . S
C289 C281 1.433 . S
C289 N291 1.384 . S
N290 C286 1.427 . S
N290 C287 1.384 . S
N291 C283 1.427 . S
N291 C289 1.384 . S
H292 C298 0.930 . S
H293 C302 0.930 . S
H294 C307 0.929 . S
H295 C305 0.929 . S
H296 C300 0.929 . S
H297 C306 0.929 . S
C298 H292 0.930 . S
C298 C299 1.367 . S
C298 C306 1.378 . S
C299 C298 1.367 . S
C299 C307 1.433 . S
C300 H296 0.929 . S
C300 C302 1.378 . S
C300 C304 1.350 . S
C301 C304 1.463 . S
C301 C306 1.350 . S
C301 N309 1.427 . S
C302 H293 0.930 . S
C302 C300 1.378 . S
C302 C303 1.367 . S
C303 C302 1.367 . S
C303 C305 1.433 . S
C304 C300 1.350 . S
C304 C301 1.463 . S
C304 N308 1.427 . S
C305 H295 0.929 . S
C305 C303 1.433 . S
C305 N308 1.384 . S
C306 H297 0.929 . S
C306 C298 1.378 . S
C306 C301 1.350 . S
C307 H294 0.929 . S
C307 C299 1.433 . S
C307 N309 1.384 . S
N308 C304 1.427 . S
N308 C305 1.384 . S
N309 C301 1.427 . S
N309 C307 1.384 . S
H310 C316 0.930 . S
H311 C320 0.930 . S
H312 C325 0.929 . S
H313 C323 0.929 . S
H314 C318 0.929 . S
H315 C324 0.929 . S
C316 H310 0.930 . S
C316 C317 1.367 . S
C316 C324 1.378 . S
C317 C316 1.367 . S
C317 C325 1.433 . S
C318 H314 0.929 . S
C318 C320 1.378 . S
C318 C322 1.350 . S
C319 C322 1.463 . S
C319 C324 1.350 . S
C319 N327 1.427 . S
C320 H311 0.930 . S
C320 C318 1.378 . S
C320 C321 1.367 . S
C321 C320 1.367 . S
C321 C323 1.433 . S
C322 C318 1.350 . S
C322 C319 1.463 . S
C322 N326 1.427 . S
C323 H313 0.929 . S
C323 C321 1.433 . S
C323 N326 1.384 . S
C324 H315 0.929 . S
C324 C316 1.378 . S
C324 C319 1.350 . S
C325 H312 0.929 . S
C325 C317 1.433 . S
C325 N327 1.384 . S
N326 C322 1.427 . S
N326 C323 1.384 . S
N327 C319 1.427 . S
N327 C325 1.384 . S
H328 C334 0.930 . S
H329 C338 0.930 . S
H330 C343 0.929 . S
H331 C341 0.929 . S
H332 C336 0.929 . S
H333 C342 0.929 . S
C334 H328 0.930 . S
C334 C335 1.367 . S
C334 C342 1.378 . S
C335 C334 1.367 . S
C335 C343 1.433 . S
C336 H332 0.929 . S
C336 C338 1.378 . S
C336 C340 1.350 . S
C337 C340 1.463 . S
C337 C342 1.350 . S
C337 N345 1.427 . S
C338 H329 0.930 . S
C338 C336 1.378 . S
C338 C339 1.367 . S
C339 C338 1.367 . S
C339 C341 1.433 . S
C340 C336 1.350 . S
C340 C337 1.463 . S
C340 N344 1.427 . S
C341 H331 0.929 . S
C341 C339 1.433 . S
C341 N344 1.384 . S
C342 H333 0.929 . S
C342 C334 1.378 . S
C342 C337 1.350 . S
C343 H330 0.929 . S
C343 C335 1.433 . S
C343 N345 1.384 . S
N344 C340 1.427 . S
N344 C341 1.384 . S
N345 C337 1.427 . S
N345 C343 1.384 . S
H346 C352 0.930 . S
H347 C356 0.930 . S
H348 C361 0.929 . S
H349 C359 0.929 . S
H350 C354 0.929 . S
H351 C360 0.929 . S
C352 H346 0.930 . S
C352 C353 1.367 . S
C352 C360 1.378 . S
C353 C352 1.367 . S
C353 C361 1.433 . S
C354 H350 0.929 . S
C354 C356 1.378 . S
C354 C358 1.350 . S
C355 C358 1.463 . S
C355 C360 1.350 . S
C355 N363 1.427 . S
C356 H347 0.930 . S
C356 C354 1.378 . S
C356 C357 1.367 . S
C357 C356 1.367 . S
C357 C359 1.433 . S
C358 C354 1.350 . S
C358 C355 1.463 . S
C358 N362 1.427 . S
C359 H349 0.929 . S
C359 C357 1.433 . S
C359 N362 1.384 . S
C360 H351 0.929 . S
C360 C352 1.378 . S
C360 C355 1.350 . S
C361 H348 0.929 . S
C361 C353 1.433 . S
C361 N363 1.384 . S
N362 C358 1.427 . S
N362 C359 1.384 . S
N363 C355 1.427 . S
N363 C361 1.384 . S
H364 C370 0.930 . S
H365 C374 0.930 . S
H366 C379 0.929 . S
H367 C377 0.929 . S
H368 C372 0.929 . S
H369 C378 0.929 . S
C370 H364 0.930 . S
C370 C371 1.367 . S
C370 C378 1.378 . S
C371 C370 1.367 . S
C371 C379 1.433 . S
C372 H368 0.929 . S
C372 C374 1.378 . S
C372 C376 1.350 . S
C373 C376 1.463 . S
C373 C378 1.350 . S
C373 N381 1.427 . S
C374 H365 0.930 . S
C374 C372 1.378 . S
C374 C375 1.367 . S
C375 C374 1.367 . S
C375 C377 1.433 . S
C376 C372 1.350 . S
C376 C373 1.463 . S
C376 N380 1.427 . S
C377 H367 0.929 . S
C377 C375 1.433 . S
C377 N380 1.384 . S
C378 H369 0.929 . S
C378 C370 1.378 . S
C378 C373 1.350 . S
C379 H366 0.929 . S
C379 C371 1.433 . S
C379 N381 1.384 . S
N380 C376 1.427 . S
N380 C377 1.384 . S
N381 C373 1.427 . S
N381 C379 1.384 . S
H382 C388 0.930 . S
H383 C392 0.930 . S
H384 C397 0.929 . S
H385 C395 0.929 . S
H386 C390 0.929 . S
H387 C396 0.929 . S
C388 H382 0.930 . S
C388 C389 1.367 . S
C388 C396 1.378 . S
C389 C388 1.367 . S
C389 C397 1.433 . S
C390 H386 0.929 . S
C390 C392 1.378 . S
C390 C394 1.350 . S
C391 C394 1.463 . S
C391 C396 1.350 . S
C391 N399 1.427 . S
C392 H383 0.930 . S
C392 C390 1.378 . S
C392 C393 1.367 . S
C393 C392 1.367 . S
C393 C395 1.433 . S
C394 C390 1.350 . S
C394 C391 1.463 . S
C394 N398 1.427 . S
C395 H385 0.929 . S
C395 C393 1.433 . S
C395 N398 1.384 . S
C396 H387 0.929 . S
C396 C388 1.378 . S
C396 C391 1.350 . S
C397 H384 0.929 . S
C397 C389 1.433 . S
C397 N399 1.384 . S
N398 C394 1.427 . S
N398 C395 1.384 . S
N399 C391 1.427 . S
N399 C397 1.384 . S
H400 C406 0.930 . S
H401 C410 0.930 . S
H402 C415 0.929 . S
H403 C413 0.929 . S
H404 C408 0.929 . S
H405 C414 0.929 . S
C406 H400 0.930 . S
C406 C407 1.367 . S
C406 C414 1.378 . S
C407 C406 1.367 . S
C407 C415 1.433 . S
C408 H404 0.929 . S
C408 C410 1.378 . S
C408 C412 1.350 . S
C409 C412 1.463 . S
C409 C414 1.350 . S
C409 N417 1.427 . S
C410 H401 0.930 . S
C410 C408 1.378 . S
C410 C411 1.367 . S
C411 C410 1.367 . S
C411 C413 1.433 . S
C412 C408 1.350 . S
C412 C409 1.463 . S
C412 N416 1.427 . S
C413 H403 0.929 . S
C413 C411 1.433 . S
C413 N416 1.384 . S
C414 H405 0.929 . S
C414 C406 1.378 . S
C414 C409 1.350 . S
C415 H402 0.929 . S
C415 C407 1.433 . S
C415 N417 1.384 . S
N416 C412 1.427 . S
N416 C413 1.384 . S
N417 C409 1.427 . S
N417 C415 1.384 . S
H418 C424 0.930 . S
H419 C428 0.930 . S
H420 C433 0.929 . S
H421 C431 0.929 . S
H422 C426 0.929 . S
H423 C432 0.929 . S
C424 H418 0.930 . S
C424 C425 1.367 . S
C424 C432 1.378 . S
C425 C424 1.367 . S
C425 C433 1.433 . S
C426 H422 0.929 . S
C426 C428 1.378 . S
C426 C430 1.350 . S
C427 C430 1.463 . S
C427 C432 1.350 . S
C427 N435 1.427 . S
C428 H419 0.930 . S
C428 C426 1.378 . S
C428 C429 1.367 . S
C429 C428 1.367 . S
C429 C431 1.433 . S
C430 C426 1.350 . S
C430 C427 1.463 . S
C430 N434 1.427 . S
C431 H421 0.929 . S
C431 C429 1.433 . S
C431 N434 1.384 . S
C432 H423 0.929 . S
C432 C424 1.378 . S
C432 C427 1.350 . S
C433 H420 0.929 . S
C433 C425 1.433 . S
C433 N435 1.384 . S
N434 C430 1.427 . S
N434 C431 1.384 . S
N435 C427 1.427 . S
N435 C433 1.384 . S
H436 C442 0.930 . S
H437 C446 0.930 . S
H438 C451 0.929 . S
H439 C449 0.929 . S
H440 C444 0.929 . S
H441 C450 0.929 . S
C442 H436 0.930 . S
C442 C443 1.367 . S
C442 C450 1.378 . S
C443 C442 1.367 . S
C443 C451 1.433 . S
C444 H440 0.929 . S
C444 C446 1.378 . S
C444 C448 1.350 . S
C445 C448 1.463 1_554 S
C445 C450 1.350 . S
C445 N453 1.427 . S
C446 H437 0.930 . S
C446 C444 1.378 . S
C446 C447 1.367 . S
C447 C446 1.367 . S
C447 C449 1.433 . S
C448 C444 1.350 . S
C448 C445 1.463 1_556 S
C448 N452 1.427 . S
C449 H439 0.929 . S
C449 C447 1.433 . S
C449 N452 1.384 . S
C450 H441 0.929 . S
C450 C442 1.378 . S
C450 C445 1.350 . S
C451 H438 0.929 . S
C451 C443 1.433 . S
C451 N453 1.384 . S
N452 C448 1.427 . S
N452 C449 1.384 . S
N453 C445 1.427 . S
N453 C451 1.384 . S
H454 C460 0.930 . S
H455 C464 0.930 . S
H456 C469 0.929 . S
H457 C467 0.929 . S
H458 C462 0.929 . S
H459 C468 0.929 . S
C460 H454 0.930 . S
C460 C461 1.367 . S
C460 C468 1.378 . S
C461 C460 1.367 . S
C461 C469 1.433 . S
C462 H458 0.929 . S
C462 C464 1.378 . S
C462 C466 1.350 . S
C463 C466 1.463 1_554 S
C463 C468 1.350 . S
C463 N471 1.427 . S
C464 H455 0.930 . S
C464 C462 1.378 . S
C464 C465 1.367 . S
C465 C464 1.367 . S
C465 C467 1.433 . S
C466 C462 1.350 . S
C466 C463 1.463 1_556 S
C466 N470 1.427 . S
C467 H457 0.929 . S
C467 C465 1.433 . S
C467 N470 1.384 . S
C468 H459 0.929 . S
C468 C460 1.378 . S
C468 C463 1.350 . S
C469 H456 0.929 . S
C469 C461 1.433 . S
C469 N471 1.384 . S
N470 C466 1.427 . S
N470 C467 1.384 . S
N471 C463 1.427 . S
N471 C469 1.384 . S
C191 C16 1.692 . S
C195 N58 1.768 . S
C209 N81 1.766 . S
C213 C39 1.681 . S
C227 N150 1.771 . S
C231 C108 1.694 . S
C245 C131 1.696 . S
C249 N173 1.772 . S
C263 C154 1.857 . S
C267 N12 1.829 . S
C281 N35 1.831 . S
C285 C177 1.854 . S
C299 C62 1.858 . S
C303 N104 1.840 . S
C317 C85 1.854 . S
C321 N127 1.831 . S
C335 N140 1.836 . S
C339 C7 1.977 . S
C353 C30 1.977 . S
C357 N163 1.836 . S
C371 C99 1.977 . S
C375 N48 1.835 . S
C389 C122 1.984 . S
C393 N71 1.846 . S
C407 N25 0.789 . S
C411 N2 0.810 . S
C425 C53 0.545 . S
C429 C76 0.544 . S
C443 N117 0.810 . S
C447 N94 0.790 . S
C461 C145 0.545 . S
C465 C168 0.545 . S
