# Generated by pormake.
# Topology wiz, (3)-cn, num edge types: 1
# Building blocks:
#     Node 0, Type 0, BuildingBlock: OLANEW_clean_sbu_2, # of connection points: 3
#     Node 1, Type 0, BuildingBlock: OLANEW_clean_sbu_2, # of connection points: 3
#     Node 2, Type 0, BuildingBlock: OLANEW_clean_sbu_2, # of connection points: 3
#     Node 3, Type 0, BuildingBlock: OLANEW_clean_sbu_2, # of connection points: 3
#     Node 4, Type 0, BuildingBlock: OLANEW_clean_sbu_2, # of connection points: 3
#     Node 5, Type 0, BuildingBlock: OLANEW_clean_sbu_2, # of connection points: 3
#     Node 6, Type 0, BuildingBlock: OLANEW_clean_sbu_2, # of connection points: 3
#     Node 7, Type 0, BuildingBlock: OLANEW_clean_sbu_2, # of connection points: 3
#     Node 8, Type 0, BuildingBlock: OLANEW_clean_sbu_2, # of connection points: 3
#     Node 9, Type 0, BuildingBlock: OLANEW_clean_sbu_2, # of connection points: 3
#     Node 10, Type 0, BuildingBlock: OLANEW_clean_sbu_2, # of connection points: 3
#     Node 11, Type 0, BuildingBlock: OLANEW_clean_sbu_2, # of connection points: 3
#     Edge 12, Type (0, 0), BuildingBlock: OJICUG_clean_linker_0, # of connection points: 2
#     Edge 13, Type (0, 0), BuildingBlock: OJICUG_clean_linker_0, # of connection points: 2
#     Edge 14, Type (0, 0), BuildingBlock: OJICUG_clean_linker_0, # of connection points: 2
#     Edge 15, Type (0, 0), BuildingBlock: OJICUG_clean_linker_0, # of connection points: 2
#     Edge 16, Type (0, 0), BuildingBlock: OJICUG_clean_linker_0, # of connection points: 2
#     Edge 17, Type (0, 0), BuildingBlock: OJICUG_clean_linker_0, # of connection points: 2
#     Edge 18, Type (0, 0), BuildingBlock: OJICUG_clean_linker_0, # of connection points: 2
#     Edge 19, Type (0, 0), BuildingBlock: OJICUG_clean_linker_0, # of connection points: 2
#     Edge 20, Type (0, 0), BuildingBlock: OJICUG_clean_linker_0, # of connection points: 2
#     Edge 21, Type (0, 0), BuildingBlock: OJICUG_clean_linker_0, # of connection points: 2
#     Edge 22, Type (0, 0), BuildingBlock: OJICUG_clean_linker_0, # of connection points: 2
#     Edge 23, Type (0, 0), BuildingBlock: OJICUG_clean_linker_0, # of connection points: 2
#     Edge 24, Type (0, 0), BuildingBlock: OJICUG_clean_linker_0, # of connection points: 2
#     Edge 25, Type (0, 0), BuildingBlock: OJICUG_clean_linker_0, # of connection points: 2
#     Edge 26, Type (0, 0), BuildingBlock: OJICUG_clean_linker_0, # of connection points: 2
#     Edge 27, Type (0, 0), BuildingBlock: OJICUG_clean_linker_0, # of connection points: 2
#     Edge 28, Type (0, 0), BuildingBlock: OJICUG_clean_linker_0, # of connection points: 2
#     Edge 29, Type (0, 0), BuildingBlock: OJICUG_clean_linker_0, # of connection points: 2
# Relax obj value: 0.000
# Max RMSD: 0.032
# Mean RMSD: 0.032
data_MOF--net-wiz--node1-OLANEW_clean_sbu_2--edge1-OJICUG_clean_linker_0
_symmetry_space_group_name_H-M    P1
_symmetry_Int_Tables_number       1
_symmetry_cell_setting            triclinic
loop_
_symmetry_equiv_pos_as_xyz
'x, y, z'
_cell_length_a     26.136922
_cell_length_b     26.118572
_cell_length_c     54.706512
_cell_angle_alpha  89.983574
_cell_angle_beta   89.97797
_cell_angle_gamma 120.02855
loop_
_atom_site_label
_atom_site_type_symbol
_atom_site_fract_x
_atom_site_fract_y
_atom_site_fract_z
_atom_type_partial_charge
O0 O 0.2301 0.38425 0.0633 0.0
Cd1 Cd 0.25453 0.39165 0.10677 0.0
O2 O 0.20908 0.29186 0.05964 0.0
Cd3 Cd 0.26173 0.30532 0.09244 0.0
O4 O 0.35336 0.37129 0.10052 0.0
C5 C 0.38299 0.39208 0.08098 0.0
O6 O 0.35659 0.37049 0.05996 0.0
C7 C 0.20978 0.33714 0.05067 0.0
C8 C 0.15138 0.32528 0.13394 0.0
O9 O 0.17011 0.37981 0.12901 0.0
O10 O 0.18188 0.30243 0.12633 0.0
O11 O 0.86619 0.16316 0.39298 0.0
Cd12 Cd 0.88578 0.19942 0.43502 0.0
O13 O 0.9566 0.22309 0.38004 0.0
Cd14 Cd 0.97971 0.27601 0.41333 0.0
O15 O 0.98913 0.35723 0.42887 0.0
C16 C 0.94322 0.36227 0.42935 0.0
O17 O 0.89246 0.31689 0.42262 0.0
C18 C 0.90461 0.18064 0.37603 0.0
C19 C 0.83831 0.10422 0.46742 0.0
O20 O 0.80781 0.12732 0.46007 0.0
O21 O 0.89156 0.12668 0.45967 0.0
O22 O 0.71719 0.85511 0.73954 0.0
Cd23 Cd 0.70043 0.86622 0.78261 0.0
O24 O 0.69769 0.92309 0.72633 0.0
Cd25 Cd 0.66817 0.9389 0.76144 0.0
O26 O 0.60375 0.95723 0.77882 0.0
C27 C 0.61601 0.01048 0.78165 0.0
O28 O 0.66946 0.05328 0.77618 0.0
C29 C 0.71353 0.8852 0.72207 0.0
C30 C 0.73806 0.80248 0.81097 0.0
O31 O 0.68469 0.7785 0.80324 0.0
O32 O 0.77331 0.85688 0.80561 0.0
O33 O 0.77935 0.6156 0.06178 0.0
Cd34 Cd 0.75372 0.60839 0.10509 0.0
O35 O 0.79245 0.70503 0.05706 0.0
Cd36 Cd 0.7385 0.68916 0.08971 0.0
O37 O 0.64846 0.61964 0.09835 0.0
C38 C 0.62302 0.5884 0.07962 0.0
O39 O 0.65225 0.60216 0.05886 0.0
C40 C 0.7962 0.6616 0.04868 0.0
C41 C 0.85579 0.67798 0.13233 0.0
O42 O 0.83879 0.62368 0.1277 0.0
O43 O 0.82403 0.69912 0.12439 0.0
O44 O 0.14109 0.84175 0.39133 0.0
Cd45 Cd 0.12366 0.80329 0.43303 0.0
O46 O 0.0536 0.7746 0.37789 0.0
Cd47 Cd 0.03305 0.72105 0.41097 0.0
O48 O 0.02009 0.63916 0.42735 0.0
C49 C 0.96862 0.59396 0.42773 0.0
O50 O 0.92379 0.59934 0.42021 0.0
C51 C 0.10318 0.82099 0.3742 0.0
C52 C 0.16963 0.8967 0.46626 0.0
O53 O 0.20109 0.87519 0.45831 0.0
O54 O 0.11617 0.87348 0.45871 0.0
O55 O 0.28062 0.13775 0.74071 0.0
Cd56 Cd 0.29339 0.12233 0.78376 0.0
O57 O 0.28458 0.06042 0.7273 0.0
Cd58 Cd 0.3105 0.04007 0.76231 0.0
O59 O 0.37414 0.02018 0.77935 0.0
C60 C 0.42678 0.06226 0.7824 0.0
O61 O 0.43914 0.11651 0.77744 0.0
C62 C 0.27763 0.10445 0.72317 0.0
C63 C 0.25868 0.18812 0.81236 0.0
O64 O 0.31225 0.21023 0.80508 0.0
O65 O 0.22178 0.13453 0.80646 0.0
O66 O 0.70206 0.83677 0.60551 0.0
Cd67 Cd 0.68785 0.80365 0.56304 0.0
O68 O 0.72853 0.77344 0.61807 0.0
Cd69 Cd 0.70159 0.72377 0.58389 0.0
O70 O 0.63278 0.64264 0.56705 0.0
C71 C 0.58209 0.63728 0.56406 0.0
O72 O 0.57516 0.68268 0.569 0.0
C73 C 0.72032 0.81659 0.62246 0.0
C74 C 0.7365 0.90064 0.53156 0.0
O75 O 0.68258 0.8769 0.53858 0.0
O76 O 0.76723 0.8781 0.53927 0.0
O77 O 0.8427 0.61278 0.93685 0.0
Cd78 Cd 0.85884 0.60381 0.89341 0.0
O79 O 0.91374 0.70551 0.93983 0.0
Cd80 Cd 0.95241 0.69109 0.90706 0.0
O81 O 0.97863 0.62544 0.89915 0.0
C82 C 0.98612 0.60384 0.91874 0.0
O83 O 0.97961 0.62437 0.93974 0.0
C84 C 0.86955 0.66043 0.94914 0.0
C85 C 0.81973 0.66762 0.86585 0.0
O86 O 0.78481 0.6131 0.87112 0.0
O87 O 0.87329 0.69167 0.8733 0.0
O88 O 0.14348 0.87549 0.25798 0.0
Cd89 Cd 0.17113 0.89236 0.21489 0.0
O90 O 0.22877 0.94615 0.27188 0.0
Cd91 Cd 0.27432 0.96677 0.23669 0.0
O92 O 0.35698 0.98398 0.2196 0.0
C93 C 0.3657 0.94067 0.21663 0.0
O94 O 0.32253 0.88708 0.22167 0.0
C95 C 0.17599 0.90522 0.27579 0.0
C96 C 0.07081 0.82405 0.18656 0.0
O97 O 0.10388 0.80363 0.19362 0.0
O98 O 0.08582 0.8772 0.19253 0.0
O99 O 0.29588 0.15692 0.60669 0.0
Cd100 Cd 0.31472 0.19203 0.56448 0.0
O101 O 0.2849 0.23034 0.61992 0.0
Cd102 Cd 0.31622 0.2803 0.58589 0.0
O103 O 0.38511 0.36054 0.56845 0.0
C104 C 0.37777 0.40469 0.56545 0.0
O105 O 0.32627 0.39916 0.5709 0.0
C106 C 0.28392 0.18191 0.62393 0.0
C107 C 0.2679 0.09665 0.53222 0.0
O108 O 0.32115 0.11949 0.53998 0.0
O109 O 0.237 0.11932 0.53957 0.0
O110 O 0.16572 0.38617 0.93847 0.0
Cd111 Cd 0.14834 0.39492 0.89517 0.0
O112 O 0.09043 0.29582 0.94239 0.0
Cd113 Cd 0.05266 0.31201 0.90974 0.0
O114 O 0.03033 0.38027 0.90118 0.0
C115 C 0.03398 0.41024 0.92007 0.0
O116 O 0.04864 0.3961 0.94093 0.0
C117 C 0.13686 0.33943 0.95117 0.0
C118 C 0.1838 0.3283 0.86749 0.0
O119 O 0.22004 0.38266 0.87251 0.0
O120 O 0.13057 0.30572 0.87525 0.0
O121 O 0.86168 0.13239 0.25947 0.0
Cd122 Cd 0.83361 0.11954 0.21643 0.0
O123 O 0.77298 0.06893 0.27321 0.0
Cd124 Cd 0.72777 0.05246 0.23806 0.0
O125 O 0.64606 0.03663 0.22051 0.0
C126 C 0.60383 0.98395 0.21773 0.0
O127 O 0.61252 0.93997 0.22335 0.0
C128 C 0.82737 0.10495 0.27721 0.0
C129 C 0.93466 0.18534 0.18813 0.0
O130 O 0.90388 0.20794 0.1957 0.0
O131 O 0.917 0.13127 0.19358 0.0
C132 C 0.19289 0.39089 0.98874 0.0
C133 C 0.15565 0.33773 0.97649 0.0
H134 H 0.23823 0.43224 0.02178 0.0
C135 C 0.13578 0.28386 0.98888 0.0
H136 H 0.20863 0.43316 0.97977 0.0
C137 C 0.15345 0.28331 0.01302 0.0
C138 C 0.1902 0.33667 0.02529 0.0
H139 H 0.10701 0.24221 0.97989 0.0
H140 H 0.13791 0.24124 0.02212 0.0
C141 C 0.20953 0.39038 0.0129 0.0
C142 C 0.90844 0.16143 0.30755 0.0
C143 C 0.84942 0.11851 0.30268 0.0
H144 H 0.9724 0.21436 0.33455 0.0
C145 C 0.81046 0.09194 0.32243 0.0
H146 H 0.93974 0.18254 0.29278 0.0
C147 C 0.82918 0.11022 0.34638 0.0
C148 C 0.88732 0.15543 0.35114 0.0
H149 H 0.76479 0.05845 0.31937 0.0
H150 H 0.7974 0.0903 0.36107 0.0
C151 C 0.92721 0.17965 0.33152 0.0
C152 C 0.73717 0.82874 0.69133 0.0
C153 C 0.72306 0.87295 0.69653 0.0
H154 H 0.74798 0.77663 0.66386 0.0
C155 C 0.71388 0.90242 0.67698 0.0
H156 H 0.74486 0.80539 0.70593 0.0
C157 C 0.7156 0.88587 0.65285 0.0
C158 C 0.72667 0.83958 0.64769 0.0
H159 H 0.70328 0.93694 0.6803 0.0
H160 H 0.70627 0.90811 0.63828 0.0
C161 C 0.73902 0.81228 0.66717 0.0
C162 C 0.84941 0.71585 0.01054 0.0
C163 C 0.81635 0.66246 0.02336 0.0
H164 H 0.89297 0.75727 0.97694 0.0
C165 C 0.80092 0.60891 0.01154 0.0
H166 H 0.8619 0.75778 0.0192 0.0
C167 C 0.81758 0.60857 0.98737 0.0
C168 C 0.85101 0.66181 0.97454 0.0
H169 H 0.7751 0.56699 0.02086 0.0
H170 H 0.8048 0.56643 0.97882 0.0
C171 C 0.86718 0.71556 0.98639 0.0
C172 C 0.09728 0.84131 0.3059 0.0
C173 C 0.1543 0.88886 0.30122 0.0
H174 H 0.03615 0.78288 0.33262 0.0
C175 C 0.1921 0.91759 0.32107 0.0
H176 H 0.06689 0.8184 0.29106 0.0
C177 C 0.17449 0.89716 0.34492 0.0
C178 C 0.11865 0.84761 0.34947 0.0
H179 H 0.23621 0.95458 0.31816 0.0
H180 H 0.20552 0.91902 0.35969 0.0
C181 C 0.07963 0.82094 0.32977 0.0
C182 C 0.27585 0.10564 0.65394 0.0
C183 C 0.27411 0.15758 0.64906 0.0
H184 H 0.27777 0.04778 0.68113 0.0
C185 C 0.26767 0.18863 0.66871 0.0
H186 H 0.28043 0.08045 0.63924 0.0
C187 C 0.26626 0.16994 0.69276 0.0
C188 C 0.27112 0.11973 0.69771 0.0
H189 H 0.26589 0.22866 0.6656 0.0
H190 H 0.26336 0.19607 0.7075 0.0
C191 C 0.2743 0.08688 0.678 0.0
C192 C 0.53015 0.51932 0.10272 0.0
C193 C 0.56193 0.53765 0.08064 0.0
H194 H 0.44844 0.45837 0.12028 0.0
C195 C 0.53481 0.50681 0.05907 0.0
H196 H 0.54994 0.54209 0.11966 0.0
C197 C 0.47715 0.4593 0.05942 0.0
C198 C 0.44501 0.4411 0.08136 0.0
H199 H 0.55795 0.51956 0.04174 0.0
H200 H 0.45771 0.43702 0.04235 0.0
C201 C 0.47216 0.4713 0.10309 0.0
C202 C 0.00389 0.47133 0.43719 0.0
C203 C 0.94839 0.42079 0.43328 0.0
H204 H 0.05382 0.56583 0.43878 0.0
C205 C 0.8986 0.42757 0.43068 0.0
H206 H 0.04309 0.46764 0.43945 0.0
C207 C 0.90474 0.48388 0.43027 0.0
C208 C 0.96081 0.53462 0.43248 0.0
H209 H 0.8551 0.38954 0.42784 0.0
H210 H 0.86582 0.4876 0.42713 0.0
C211 C 0.01003 0.52767 0.43681 0.0
C212 C 0.4631 0.99069 0.78875 0.0
C213 C 0.47511 0.04939 0.78696 0.0
H214 H 0.49827 0.93226 0.78876 0.0
C215 C 0.5343 0.0954 0.78687 0.0
H216 H 0.41801 0.9542 0.78907 0.0
C217 C 0.58037 0.08281 0.78668 0.0
C218 C 0.56823 0.02395 0.78659 0.0
H219 H 0.54516 0.14115 0.78574 0.0
H220 H 0.62537 0.11923 0.7854 0.0
C221 C 0.50918 0.9781 0.78857 0.0
C222 C 0.42296 0.5142 0.56026 0.0
C223 C 0.42928 0.46383 0.56032 0.0
H224 H 0.46637 0.60866 0.56108 0.0
C225 C 0.48623 0.47128 0.55812 0.0
H226 H 0.37971 0.51005 0.5617 0.0
C227 C 0.536 0.52791 0.55778 0.0
C228 C 0.52984 0.57824 0.55962 0.0
H229 H 0.49266 0.43342 0.55789 0.0
H230 H 0.57935 0.53206 0.5573 0.0
C231 C 0.47273 0.57082 0.5599 0.0
C232 C 0.01031 0.4793 0.89691 0.0
C233 C 0.02227 0.4601 0.9191 0.0
H234 H 0.98983 0.54033 0.87927 0.0
C235 C 0.0233 0.4893 0.94081 0.0
H236 H 0.00939 0.45778 0.87986 0.0
C237 C 0.01212 0.53614 0.94047 0.0
C238 C -0.00017 0.5553 0.91841 0.0
H239 H 0.03243 0.47582 0.95823 0.0
H240 H 0.01298 0.55721 0.95764 0.0
C241 C -0.00069 0.52664 0.89656 0.0
C242 C 0.47424 0.00931 0.21029 0.0
C243 C 0.42618 0.95134 0.21212 0.0
H244 H 0.56825 0.06517 0.21033 0.0
C245 C 0.43727 0.90394 0.21233 0.0
H246 H 0.46726 0.04683 0.20988 0.0
C247 C 0.49523 0.91445 0.21262 0.0
C248 C 0.54332 0.97259 0.21267 0.0
H249 H 0.40127 0.85869 0.2135 0.0
H250 H 0.50219 0.87701 0.21399 0.0
C251 C 0.53222 0.01983 0.21055 0.0
C252 C 0.00953 0.28068 0.16864 0.0
C253 C 0.98961 0.22093 0.17393 0.0
H254 H 0.07626 0.36053 0.15194 0.0
C255 C 0.0233 0.19581 0.16593 0.0
H256 H 0.98466 0.3014 0.17458 0.0
C257 C 0.07585 0.22973 0.15299 0.0
C258 C 0.09589 0.28953 0.14777 0.0
H259 H 0.00924 0.14994 0.16973 0.0
H260 H 0.10076 0.20901 0.1471 0.0
C261 C 0.06212 0.31462 0.15571 0.0
C262 C 0.72885 0.97791 0.50728 0.0
C263 C 0.7626 0.95279 0.51519 0.0
H264 H 0.72626 0.04544 0.48607 0.0
C265 C 0.82164 0.97821 0.50743 0.0
H266 H 0.68326 0.95945 0.51295 0.0
C267 C 0.84631 0.02755 0.49202 0.0
C268 C 0.81251 0.05258 0.48406 0.0
H269 H 0.84887 0.95998 0.51322 0.0
H270 H 0.89187 0.04596 0.48632 0.0
C271 C 0.75353 0.02727 0.49189 0.0
C272 C 0.81758 0.79467 0.8333 0.0
C273 C 0.75867 0.76812 0.82528 0.0
H274 H 0.88305 0.7838 0.85232 0.0
C275 C 0.71998 0.70819 0.83072 0.0
H276 H 0.84855 0.84072 0.8294 0.0
C277 C 0.7398 0.6755 0.84384 0.0
C278 C 0.79875 0.70203 0.8518 0.0
H279 H 0.67434 0.68638 0.82478 0.0
H280 H 0.70887 0.62942 0.84772 0.0
C281 C 0.83739 0.76199 0.84641 0.0
C282 C 0.92847 0.77457 0.15154 0.0
C283 C 0.91081 0.71536 0.14619 0.0
H284 H 0.99281 0.85533 0.16841 0.0
C285 C 0.94654 0.69239 0.15401 0.0
H286 H 0.902 0.79366 0.14574 0.0
C287 C 0.99872 0.72782 0.16694 0.0
C288 C 0.01627 0.78696 0.17237 0.0
H289 H 0.93427 0.647 0.15014 0.0
H290 H 0.02514 0.7087 0.17277 0.0
C291 C 0.9806 0.80997 0.1645 0.0
C292 C 0.25327 0.97263 0.49149 0.0
C293 C 0.19454 0.94739 0.48337 0.0
H294 H 0.32251 0.03952 0.51323 0.0
C295 C 0.16011 0.97157 0.4915 0.0
H296 H 0.281 0.95507 0.48556 0.0
C297 C 0.18394 0.02006 0.50733 0.0
C298 C 0.24272 0.0454 0.5154 0.0
H299 H 0.11473 0.95321 0.48557 0.0
H300 H 0.15624 0.03767 0.51323 0.0
C301 C 0.27709 0.02109 0.50734 0.0
C302 C 0.28005 0.28316 0.83236 0.0
C303 C 0.23974 0.22375 0.82676 0.0
H304 H 0.29403 0.3628 0.84952 0.0
C305 C 0.18088 0.19903 0.83467 0.0
H306 H 0.3257 0.30359 0.8265 0.0
C307 C 0.16271 0.233 0.84785 0.0
C308 C 0.20298 0.29247 0.85338 0.0
H309 H 0.14869 0.15341 0.83064 0.0
H310 H 0.11704 0.21259 0.85368 0.0
C311 C 0.26186 0.31716 0.84552 0.0
loop_
_geom_bond_atom_site_label_1
_geom_bond_atom_site_label_2
_geom_bond_distance
_geom_bond_site_symmetry_2
_ccdc_geom_bond_type
O0 Cd1 2.300 . S
O0 C7 1.275 . S
Cd1 O0 2.300 . S
Cd1 O9 2.381 . S
Cd1 O10 2.378 . S
O2 Cd3 2.385 . S
O2 C7 1.255 . S
Cd3 O2 2.385 . S
Cd3 O4 2.317 . S
O4 Cd3 2.317 . S
O4 C5 1.232 . S
C5 O4 1.232 . S
C5 O6 1.218 . S
O6 C5 1.218 . S
C7 O0 1.275 . S
C7 O2 1.255 . S
C8 O9 1.258 . S
C8 O10 1.256 . S
O9 Cd1 2.381 . S
O9 C8 1.258 . S
O10 Cd1 2.378 . S
O10 C8 1.256 . S
O11 Cd12 2.300 . S
O11 C18 1.275 . S
Cd12 O11 2.300 . S
Cd12 O20 2.381 . S
Cd12 O21 2.378 . S
O13 Cd14 2.385 . S
O13 C18 1.255 . S
Cd14 O13 2.385 . S
Cd14 O15 2.317 . S
O15 Cd14 2.317 . S
O15 C16 1.232 . S
C16 O15 1.232 . S
C16 O17 1.218 . S
O17 C16 1.218 . S
C18 O11 1.275 . S
C18 O13 1.255 . S
C19 O20 1.258 . S
C19 O21 1.256 . S
O20 Cd12 2.381 . S
O20 C19 1.258 . S
O21 Cd12 2.378 . S
O21 C19 1.256 . S
O22 Cd23 2.300 . S
O22 C29 1.275 . S
Cd23 O22 2.300 . S
Cd23 O31 2.381 . S
Cd23 O32 2.378 . S
O24 Cd25 2.385 . S
O24 C29 1.255 . S
Cd25 O24 2.385 . S
Cd25 O26 2.317 . S
O26 Cd25 2.317 . S
O26 C27 1.232 . S
C27 O26 1.232 . S
C27 O28 1.218 . S
O28 C27 1.218 . S
C29 O22 1.275 . S
C29 O24 1.255 . S
C30 O31 1.258 . S
C30 O32 1.256 . S
O31 Cd23 2.381 . S
O31 C30 1.258 . S
O32 Cd23 2.378 . S
O32 C30 1.256 . S
O33 Cd34 2.300 . S
O33 C40 1.275 . S
Cd34 O33 2.300 . S
Cd34 O42 2.381 . S
Cd34 O43 2.378 . S
O35 Cd36 2.385 . S
O35 C40 1.255 . S
Cd36 O35 2.385 . S
Cd36 O37 2.317 . S
O37 Cd36 2.317 . S
O37 C38 1.232 . S
C38 O37 1.232 . S
C38 O39 1.218 . S
O39 C38 1.218 . S
C40 O33 1.275 . S
C40 O35 1.255 . S
C41 O42 1.258 . S
C41 O43 1.256 . S
O42 Cd34 2.381 . S
O42 C41 1.258 . S
O43 Cd34 2.378 . S
O43 C41 1.256 . S
O44 Cd45 2.300 . S
O44 C51 1.275 . S
Cd45 O44 2.300 . S
Cd45 O53 2.381 . S
Cd45 O54 2.378 . S
O46 Cd47 2.385 . S
O46 C51 1.255 . S
Cd47 O46 2.385 . S
Cd47 O48 2.317 . S
O48 Cd47 2.317 . S
O48 C49 1.232 . S
C49 O48 1.232 . S
C49 O50 1.218 . S
O50 C49 1.218 . S
C51 O44 1.275 . S
C51 O46 1.255 . S
C52 O53 1.258 . S
C52 O54 1.256 . S
O53 Cd45 2.381 . S
O53 C52 1.258 . S
O54 Cd45 2.378 . S
O54 C52 1.256 . S
O55 Cd56 2.300 . S
O55 C62 1.275 . S
Cd56 O55 2.300 . S
Cd56 O64 2.381 . S
Cd56 O65 2.378 . S
O57 Cd58 2.385 . S
O57 C62 1.255 . S
Cd58 O57 2.385 . S
Cd58 O59 2.317 . S
O59 Cd58 2.317 . S
O59 C60 1.232 . S
C60 O59 1.232 . S
C60 O61 1.218 . S
O61 C60 1.218 . S
C62 O55 1.275 . S
C62 O57 1.255 . S
C63 O64 1.258 . S
C63 O65 1.256 . S
O64 Cd56 2.381 . S
O64 C63 1.258 . S
O65 Cd56 2.378 . S
O65 C63 1.256 . S
O66 Cd67 2.300 . S
O66 C73 1.275 . S
Cd67 O66 2.300 . S
Cd67 O75 2.381 . S
Cd67 O76 2.378 . S
O68 Cd69 2.385 . S
O68 C73 1.255 . S
Cd69 O68 2.385 . S
Cd69 O70 2.317 . S
O70 Cd69 2.317 . S
O70 C71 1.232 . S
C71 O70 1.232 . S
C71 O72 1.218 . S
O72 C71 1.218 . S
C73 O66 1.275 . S
C73 O68 1.255 . S
C74 O75 1.258 . S
C74 O76 1.256 . S
O75 Cd67 2.381 . S
O75 C74 1.258 . S
O76 Cd67 2.378 . S
O76 C74 1.256 . S
O77 Cd78 2.300 . S
O77 C84 1.275 . S
Cd78 O77 2.300 . S
Cd78 O86 2.381 . S
Cd78 O87 2.378 . S
O79 Cd80 2.385 . S
O79 C84 1.255 . S
Cd80 O79 2.385 . S
Cd80 O81 2.317 . S
O81 Cd80 2.317 . S
O81 C82 1.232 . S
C82 O81 1.232 . S
C82 O83 1.218 . S
O83 C82 1.218 . S
C84 O77 1.275 . S
C84 O79 1.255 . S
C85 O86 1.258 . S
C85 O87 1.256 . S
O86 Cd78 2.381 . S
O86 C85 1.258 . S
O87 Cd78 2.378 . S
O87 C85 1.256 . S
O88 Cd89 2.300 . S
O88 C95 1.275 . S
Cd89 O88 2.300 . S
Cd89 O97 2.381 . S
Cd89 O98 2.378 . S
O90 Cd91 2.385 . S
O90 C95 1.255 . S
Cd91 O90 2.385 . S
Cd91 O92 2.317 . S
O92 Cd91 2.317 . S
O92 C93 1.232 . S
C93 O92 1.232 . S
C93 O94 1.218 . S
O94 C93 1.218 . S
C95 O88 1.275 . S
C95 O90 1.255 . S
C96 O97 1.258 . S
C96 O98 1.256 . S
O97 Cd89 2.381 . S
O97 C96 1.258 . S
O98 Cd89 2.378 . S
O98 C96 1.256 . S
O99 Cd100 2.300 . S
O99 C106 1.275 . S
Cd100 O99 2.300 . S
Cd100 O108 2.381 . S
Cd100 O109 2.378 . S
O101 Cd102 2.385 . S
O101 C106 1.255 . S
Cd102 O101 2.385 . S
Cd102 O103 2.317 . S
O103 Cd102 2.317 . S
O103 C104 1.232 . S
C104 O103 1.232 . S
C104 O105 1.218 . S
O105 C104 1.218 . S
C106 O99 1.275 . S
C106 O101 1.255 . S
C107 O108 1.258 . S
C107 O109 1.256 . S
O108 Cd100 2.381 . S
O108 C107 1.258 . S
O109 Cd100 2.378 . S
O109 C107 1.256 . S
O110 Cd111 2.300 . S
O110 C117 1.275 . S
Cd111 O110 2.300 . S
Cd111 O119 2.381 . S
Cd111 O120 2.378 . S
O112 Cd113 2.385 . S
O112 C117 1.255 . S
Cd113 O112 2.385 . S
Cd113 O114 2.317 . S
O114 Cd113 2.317 . S
O114 C115 1.232 . S
C115 O114 1.232 . S
C115 O116 1.218 . S
O116 C115 1.218 . S
C117 O110 1.275 . S
C117 O112 1.255 . S
C118 O119 1.258 . S
C118 O120 1.256 . S
O119 Cd111 2.381 . S
O119 C118 1.258 . S
O120 Cd111 2.378 . S
O120 C118 1.256 . S
O121 Cd122 2.300 . S
O121 C128 1.275 . S
Cd122 O121 2.300 . S
Cd122 O130 2.381 . S
Cd122 O131 2.378 . S
O123 Cd124 2.385 . S
O123 C128 1.255 . S
Cd124 O123 2.385 . S
Cd124 O125 2.317 . S
O125 Cd124 2.317 . S
O125 C126 1.232 . S
C126 O125 1.232 . S
C126 O127 1.218 . S
O127 C126 1.218 . S
C128 O121 1.275 . S
C128 O123 1.255 . S
C129 O130 1.258 . S
C129 O131 1.256 . S
O130 Cd122 2.381 . S
O130 C129 1.258 . S
O131 Cd122 2.378 . S
O131 C129 1.256 . S
C132 C133 1.387 . S
C132 H136 0.950 . S
C132 C141 1.390 1_556 S
C133 C132 1.387 . S
C133 C135 1.387 . S
H134 C141 0.950 . S
C135 C133 1.387 . S
C135 C137 1.390 1_556 S
C135 H139 0.950 . S
H136 C132 0.950 . S
C137 C135 1.390 1_554 S
C137 C138 1.387 . S
C137 H140 0.950 . S
C138 C137 1.387 . S
C138 C141 1.387 . S
H139 C135 0.950 . S
H140 C137 0.950 . S
C141 C132 1.390 1_554 S
C141 H134 0.950 . S
C141 C138 1.387 . S
C142 C143 1.387 . S
C142 H146 0.950 . S
C142 C151 1.390 . S
C143 C142 1.387 . S
C143 C145 1.387 . S
H144 C151 0.950 . S
C145 C143 1.387 . S
C145 C147 1.390 . S
C145 H149 0.950 . S
H146 C142 0.950 . S
C147 C145 1.390 . S
C147 C148 1.387 . S
C147 H150 0.950 . S
C148 C147 1.387 . S
C148 C151 1.387 . S
H149 C145 0.950 . S
H150 C147 0.950 . S
C151 C142 1.390 . S
C151 H144 0.950 . S
C151 C148 1.387 . S
C152 C153 1.387 . S
C152 H156 0.950 . S
C152 C161 1.390 . S
C153 C152 1.387 . S
C153 C155 1.387 . S
H154 C161 0.950 . S
C155 C153 1.387 . S
C155 C157 1.390 . S
C155 H159 0.950 . S
H156 C152 0.950 . S
C157 C155 1.390 . S
C157 C158 1.387 . S
C157 H160 0.950 . S
C158 C157 1.387 . S
C158 C161 1.387 . S
H159 C155 0.950 . S
H160 C157 0.950 . S
C161 C152 1.390 . S
C161 H154 0.950 . S
C161 C158 1.387 . S
C162 C163 1.387 . S
C162 H166 0.950 . S
C162 C171 1.390 1_554 S
C163 C162 1.387 . S
C163 C165 1.387 . S
H164 C171 0.950 . S
C165 C163 1.387 . S
C165 C167 1.390 1_554 S
C165 H169 0.950 . S
H166 C162 0.950 . S
C167 C165 1.390 1_556 S
C167 C168 1.387 . S
C167 H170 0.950 . S
C168 C167 1.387 . S
C168 C171 1.387 . S
H169 C165 0.950 . S
H170 C167 0.950 . S
C171 C162 1.390 1_556 S
C171 H164 0.950 . S
C171 C168 1.387 . S
C172 C173 1.387 . S
C172 H176 0.950 . S
C172 C181 1.390 . S
C173 C172 1.387 . S
C173 C175 1.387 . S
H174 C181 0.950 . S
C175 C173 1.387 . S
C175 C177 1.390 . S
C175 H179 0.950 . S
H176 C172 0.950 . S
C177 C175 1.390 . S
C177 C178 1.387 . S
C177 H180 0.950 . S
C178 C177 1.387 . S
C178 C181 1.387 . S
H179 C175 0.950 . S
H180 C177 0.950 . S
C181 C172 1.390 . S
C181 H174 0.950 . S
C181 C178 1.387 . S
C182 C183 1.387 . S
C182 H186 0.950 . S
C182 C191 1.390 . S
C183 C182 1.387 . S
C183 C185 1.387 . S
H184 C191 0.950 . S
C185 C183 1.387 . S
C185 C187 1.390 . S
C185 H189 0.950 . S
H186 C182 0.950 . S
C187 C185 1.390 . S
C187 C188 1.387 . S
C187 H190 0.950 . S
C188 C187 1.387 . S
C188 C191 1.387 . S
H189 C185 0.950 . S
H190 C187 0.950 . S
C191 C182 1.390 . S
C191 H184 0.950 . S
C191 C188 1.387 . S
C192 C193 1.387 . S
C192 H196 0.950 . S
C192 C201 1.390 . S
C193 C192 1.387 . S
C193 C195 1.387 . S
H194 C201 0.950 . S
C195 C193 1.387 . S
C195 C197 1.390 . S
C195 H199 0.950 . S
H196 C192 0.950 . S
C197 C195 1.390 . S
C197 C198 1.387 . S
C197 H200 0.950 . S
C198 C197 1.387 . S
C198 C201 1.387 . S
H199 C195 0.950 . S
H200 C197 0.950 . S
C201 C192 1.390 . S
C201 H194 0.950 . S
C201 C198 1.387 . S
C202 C203 1.387 . S
C202 H206 0.950 . S
C202 C211 1.390 1_655 S
C203 C202 1.387 . S
C203 C205 1.387 . S
H204 C211 0.950 . S
C205 C203 1.387 . S
C205 C207 1.390 1_655 S
C205 H209 0.950 . S
H206 C202 0.950 . S
C207 C205 1.390 1_455 S
C207 C208 1.387 . S
C207 H210 0.950 . S
C208 C207 1.387 . S
C208 C211 1.387 . S
H209 C205 0.950 . S
H210 C207 0.950 . S
C211 C202 1.390 1_455 S
C211 H204 0.950 . S
C211 C208 1.387 . S
C212 C213 1.387 . S
C212 H216 0.950 . S
C212 C221 1.390 1_545 S
C213 C212 1.387 . S
C213 C215 1.387 . S
H214 C221 0.950 . S
C215 C213 1.387 . S
C215 C217 1.390 1_545 S
C215 H219 0.950 . S
H216 C212 0.950 . S
C217 C215 1.390 1_565 S
C217 C218 1.387 . S
C217 H220 0.950 . S
C218 C217 1.387 . S
C218 C221 1.387 . S
H219 C215 0.950 . S
H220 C217 0.950 . S
C221 C212 1.390 1_565 S
C221 H214 0.950 . S
C221 C218 1.387 . S
C222 C223 1.387 . S
C222 H226 0.950 . S
C222 C231 1.390 . S
C223 C222 1.387 . S
C223 C225 1.387 . S
H224 C231 0.950 . S
C225 C223 1.387 . S
C225 C227 1.390 . S
C225 H229 0.950 . S
H226 C222 0.950 . S
C227 C225 1.390 . S
C227 C228 1.387 . S
C227 H230 0.950 . S
C228 C227 1.387 . S
C228 C231 1.387 . S
H229 C225 0.950 . S
H230 C227 0.950 . S
C231 C222 1.390 . S
C231 H224 0.950 . S
C231 C228 1.387 . S
C232 C233 1.387 . S
C232 H236 0.950 . S
C232 C241 1.390 1_455 S
C233 C232 1.387 . S
C233 C235 1.387 . S
H234 C241 0.950 . S
C235 C233 1.387 . S
C235 C237 1.390 1_455 S
C235 H239 0.950 . S
H236 C232 0.950 . S
C237 C235 1.390 1_655 S
C237 C238 1.387 . S
C237 H240 0.950 . S
C238 C237 1.387 . S
C238 C241 1.387 . S
H239 C235 0.950 . S
H240 C237 0.950 . S
C241 C232 1.390 1_655 S
C241 H234 0.950 . S
C241 C238 1.387 . S
C242 C243 1.387 . S
C242 H246 0.950 . S
C242 C251 1.390 1_565 S
C243 C242 1.387 . S
C243 C245 1.387 . S
H244 C251 0.950 . S
C245 C243 1.387 . S
C245 C247 1.390 1_565 S
C245 H249 0.950 . S
H246 C242 0.950 . S
C247 C245 1.390 1_545 S
C247 C248 1.387 . S
C247 H250 0.950 . S
C248 C247 1.387 . S
C248 C251 1.387 . S
H249 C245 0.950 . S
H250 C247 0.950 . S
C251 C242 1.390 1_545 S
C251 H244 0.950 . S
C251 C248 1.387 . S
C252 C253 1.387 . S
C252 H256 0.950 . S
C252 C261 1.390 1_655 S
C253 C252 1.387 . S
C253 C255 1.387 . S
H254 C261 0.950 . S
C255 C253 1.387 . S
C255 C257 1.390 1_655 S
C255 H259 0.950 . S
H256 C252 0.950 . S
C257 C255 1.390 1_455 S
C257 C258 1.387 . S
C257 H260 0.950 . S
C258 C257 1.387 . S
C258 C261 1.387 . S
H259 C255 0.950 . S
H260 C257 0.950 . S
C261 C252 1.390 1_455 S
C261 H254 0.950 . S
C261 C258 1.387 . S
C262 C263 1.387 . S
C262 H266 0.950 . S
C262 C271 1.390 1_565 S
C263 C262 1.387 . S
C263 C265 1.387 . S
H264 C271 0.950 . S
C265 C263 1.387 . S
C265 C267 1.390 1_565 S
C265 H269 0.950 . S
H266 C262 0.950 . S
C267 C265 1.390 1_545 S
C267 C268 1.387 . S
C267 H270 0.950 . S
C268 C267 1.387 . S
C268 C271 1.387 . S
H269 C265 0.950 . S
H270 C267 0.950 . S
C271 C262 1.390 1_545 S
C271 H264 0.950 . S
C271 C268 1.387 . S
C272 C273 1.387 . S
C272 H276 0.950 . S
C272 C281 1.390 . S
C273 C272 1.387 . S
C273 C275 1.387 . S
H274 C281 0.950 . S
C275 C273 1.387 . S
C275 C277 1.390 . S
C275 H279 0.950 . S
H276 C272 0.950 . S
C277 C275 1.390 . S
C277 C278 1.387 . S
C277 H280 0.950 . S
C278 C277 1.387 . S
C278 C281 1.387 . S
H279 C275 0.950 . S
H280 C277 0.950 . S
C281 C272 1.390 . S
C281 H274 0.950 . S
C281 C278 1.387 . S
C282 C283 1.387 . S
C282 H286 0.950 . S
C282 C291 1.390 . S
C283 C282 1.387 . S
C283 C285 1.387 1_655 S
H284 C291 0.950 . S
C285 C283 1.387 1_455 S
C285 C287 1.390 . S
C285 H289 0.950 . S
H286 C282 0.950 . S
C287 C285 1.390 . S
C287 C288 1.387 . S
C287 H290 0.950 . S
C288 C287 1.387 . S
C288 C291 1.387 1_455 S
H289 C285 0.950 . S
H290 C287 0.950 . S
C291 C282 1.390 . S
C291 H284 0.950 . S
C291 C288 1.387 1_655 S
C292 C293 1.387 . S
C292 H296 0.950 . S
C292 C301 1.390 1_565 S
C293 C292 1.387 . S
C293 C295 1.387 . S
H294 C301 0.950 . S
C295 C293 1.387 . S
C295 C297 1.390 1_565 S
C295 H299 0.950 . S
H296 C292 0.950 . S
C297 C295 1.390 1_545 S
C297 C298 1.387 . S
C297 H300 0.950 . S
C298 C297 1.387 . S
C298 C301 1.387 . S
H299 C295 0.950 . S
H300 C297 0.950 . S
C301 C292 1.390 1_545 S
C301 H294 0.950 . S
C301 C298 1.387 . S
C302 C303 1.387 . S
C302 H306 0.950 . S
C302 C311 1.390 . S
C303 C302 1.387 . S
C303 C305 1.387 . S
H304 C311 0.950 . S
C305 C303 1.387 . S
C305 C307 1.390 . S
C305 H309 0.950 . S
H306 C302 0.950 . S
C307 C305 1.390 . S
C307 C308 1.387 . S
C307 H310 0.950 . S
C308 C307 1.387 . S
C308 C311 1.387 . S
H309 C305 0.950 . S
H310 C307 0.950 . S
C311 C302 1.390 . S
C311 H304 0.950 . S
C311 C308 1.387 . S
C133 C117 1.466 . S
C138 C7 1.465 . S
C143 C128 1.465 . S
C148 C18 1.467 . S
C153 C29 1.465 . S
C158 C73 1.467 . S
C163 C40 1.467 . S
C168 C84 1.467 . S
C173 C95 1.465 . S
C178 C51 1.468 . S
C183 C106 1.465 . S
C188 C62 1.468 . S
C193 C38 1.265 . S
C198 C5 1.265 . S
C203 C16 1.265 . S
C208 C49 1.265 . S
C213 C60 1.265 . S
C218 C27 1.265 . S
C223 C104 1.259 . S
C228 C71 1.259 . S
C233 C115 1.265 . S
C238 C82 1.265 . S
C243 C93 1.265 . S
C248 C126 1.265 . S
C253 C129 1.500 . S
C258 C8 1.500 . S
C263 C74 1.500 . S
C268 C19 1.500 . S
C273 C30 1.499 . S
C278 C85 1.500 . S
C283 C41 1.498 . S
C288 C96 1.500 . S
C293 C52 1.500 . S
C298 C107 1.500 . S
C303 C63 1.500 . S
C308 C118 1.500 . S
