# Generated by pormake.
# Topology vbm, (6)-cn, num edge types: 1
# Building blocks:
#     Node 0, Type 0, BuildingBlock: KUMJIN_clean_sbu_1, # of connection points: 6
#     Node 1, Type 0, BuildingBlock: KUMJIN_clean_sbu_1, # of connection points: 6
#     Node 2, Type 0, BuildingBlock: KUMJIN_clean_sbu_1, # of connection points: 6
#     Node 3, Type 0, BuildingBlock: KUMJIN_clean_sbu_1, # of connection points: 6
#     Node 4, Type 0, BuildingBlock: KUMJIN_clean_sbu_1, # of connection points: 6
#     Node 5, Type 0, BuildingBlock: KUMJIN_clean_sbu_1, # of connection points: 6
#     Node 6, Type 0, BuildingBlock: KUMJIN_clean_sbu_1, # of connection points: 6
#     Node 7, Type 0, BuildingBlock: KUMJIN_clean_sbu_1, # of connection points: 6
#     Node 8, Type 0, BuildingBlock: KUMJIN_clean_sbu_1, # of connection points: 6
#     Node 9, Type 0, BuildingBlock: KUMJIN_clean_sbu_1, # of connection points: 6
#     Node 10, Type 0, BuildingBlock: KUMJIN_clean_sbu_1, # of connection points: 6
#     Node 11, Type 0, BuildingBlock: KUMJIN_clean_sbu_1, # of connection points: 6
#     Node 12, Type 0, BuildingBlock: KUMJIN_clean_sbu_1, # of connection points: 6
#     Node 13, Type 0, BuildingBlock: KUMJIN_clean_sbu_1, # of connection points: 6
#     Node 14, Type 0, BuildingBlock: KUMJIN_clean_sbu_1, # of connection points: 6
#     Node 15, Type 0, BuildingBlock: KUMJIN_clean_sbu_1, # of connection points: 6
#     Edge 16, Type (0, 0), BuildingBlock: UVAHIK_clean_linker_0, # of connection points: 2
#     Edge 17, Type (0, 0), BuildingBlock: UVAHIK_clean_linker_0, # of connection points: 2
#     Edge 18, Type (0, 0), BuildingBlock: UVAHIK_clean_linker_0, # of connection points: 2
#     Edge 19, Type (0, 0), BuildingBlock: UVAHIK_clean_linker_0, # of connection points: 2
#     Edge 20, Type (0, 0), BuildingBlock: UVAHIK_clean_linker_0, # of connection points: 2
#     Edge 21, Type (0, 0), BuildingBlock: UVAHIK_clean_linker_0, # of connection points: 2
#     Edge 22, Type (0, 0), BuildingBlock: UVAHIK_clean_linker_0, # of connection points: 2
#     Edge 23, Type (0, 0), BuildingBlock: UVAHIK_clean_linker_0, # of connection points: 2
#     Edge 24, Type (0, 0), BuildingBlock: UVAHIK_clean_linker_0, # of connection points: 2
#     Edge 25, Type (0, 0), BuildingBlock: UVAHIK_clean_linker_0, # of connection points: 2
#     Edge 26, Type (0, 0), BuildingBlock: UVAHIK_clean_linker_0, # of connection points: 2
#     Edge 27, Type (0, 0), BuildingBlock: UVAHIK_clean_linker_0, # of connection points: 2
#     Edge 28, Type (0, 0), BuildingBlock: UVAHIK_clean_linker_0, # of connection points: 2
#     Edge 29, Type (0, 0), BuildingBlock: UVAHIK_clean_linker_0, # of connection points: 2
#     Edge 30, Type (0, 0), BuildingBlock: UVAHIK_clean_linker_0, # of connection points: 2
#     Edge 31, Type (0, 0), BuildingBlock: UVAHIK_clean_linker_0, # of connection points: 2
#     Edge 32, Type (0, 0), BuildingBlock: UVAHIK_clean_linker_0, # of connection points: 2
#     Edge 33, Type (0, 0), BuildingBlock: UVAHIK_clean_linker_0, # of connection points: 2
#     Edge 34, Type (0, 0), BuildingBlock: UVAHIK_clean_linker_0, # of connection points: 2
#     Edge 35, Type (0, 0), BuildingBlock: UVAHIK_clean_linker_0, # of connection points: 2
#     Edge 36, Type (0, 0), BuildingBlock: UVAHIK_clean_linker_0, # of connection points: 2
#     Edge 37, Type (0, 0), BuildingBlock: UVAHIK_clean_linker_0, # of connection points: 2
#     Edge 38, Type (0, 0), BuildingBlock: UVAHIK_clean_linker_0, # of connection points: 2
#     Edge 39, Type (0, 0), BuildingBlock: UVAHIK_clean_linker_0, # of connection points: 2
#     Edge 40, Type (0, 0), BuildingBlock: UVAHIK_clean_linker_0, # of connection points: 2
#     Edge 41, Type (0, 0), BuildingBlock: UVAHIK_clean_linker_0, # of connection points: 2
#     Edge 42, Type (0, 0), BuildingBlock: UVAHIK_clean_linker_0, # of connection points: 2
#     Edge 43, Type (0, 0), BuildingBlock: UVAHIK_clean_linker_0, # of connection points: 2
#     Edge 44, Type (0, 0), BuildingBlock: UVAHIK_clean_linker_0, # of connection points: 2
#     Edge 45, Type (0, 0), BuildingBlock: UVAHIK_clean_linker_0, # of connection points: 2
#     Edge 46, Type (0, 0), BuildingBlock: UVAHIK_clean_linker_0, # of connection points: 2
#     Edge 47, Type (0, 0), BuildingBlock: UVAHIK_clean_linker_0, # of connection points: 2
#     Edge 48, Type (0, 0), BuildingBlock: UVAHIK_clean_linker_0, # of connection points: 2
#     Edge 49, Type (0, 0), BuildingBlock: UVAHIK_clean_linker_0, # of connection points: 2
#     Edge 50, Type (0, 0), BuildingBlock: UVAHIK_clean_linker_0, # of connection points: 2
#     Edge 51, Type (0, 0), BuildingBlock: UVAHIK_clean_linker_0, # of connection points: 2
#     Edge 52, Type (0, 0), BuildingBlock: UVAHIK_clean_linker_0, # of connection points: 2
#     Edge 53, Type (0, 0), BuildingBlock: UVAHIK_clean_linker_0, # of connection points: 2
#     Edge 54, Type (0, 0), BuildingBlock: UVAHIK_clean_linker_0, # of connection points: 2
#     Edge 55, Type (0, 0), BuildingBlock: UVAHIK_clean_linker_0, # of connection points: 2
#     Edge 56, Type (0, 0), BuildingBlock: UVAHIK_clean_linker_0, # of connection points: 2
#     Edge 57, Type (0, 0), BuildingBlock: UVAHIK_clean_linker_0, # of connection points: 2
#     Edge 58, Type (0, 0), BuildingBlock: UVAHIK_clean_linker_0, # of connection points: 2
#     Edge 59, Type (0, 0), BuildingBlock: UVAHIK_clean_linker_0, # of connection points: 2
#     Edge 60, Type (0, 0), BuildingBlock: UVAHIK_clean_linker_0, # of connection points: 2
#     Edge 61, Type (0, 0), BuildingBlock: UVAHIK_clean_linker_0, # of connection points: 2
#     Edge 62, Type (0, 0), BuildingBlock: UVAHIK_clean_linker_0, # of connection points: 2
#     Edge 63, Type (0, 0), BuildingBlock: UVAHIK_clean_linker_0, # of connection points: 2
# Relax obj value: 0.082
# Max RMSD: 0.142
# Mean RMSD: 0.142
data_MOF--net-vbm--node1-KUMJIN_clean_sbu_1--edge1-UVAHIK_clean_linker_0
_symmetry_space_group_name_H-M    P1
_symmetry_Int_Tables_number       1
_symmetry_cell_setting            triclinic
loop_
_symmetry_equiv_pos_as_xyz
'x, y, z'
_cell_length_a     71.778092
_cell_length_b     29.49846
_cell_length_c     75.30778
_cell_angle_alpha  89.965825
_cell_angle_beta   90.006747
_cell_angle_gamma 89.973454
loop_
_atom_site_label
_atom_site_type_symbol
_atom_site_fract_x
_atom_site_fract_y
_atom_site_fract_z
_atom_type_partial_charge
Eu0 Eu 0.12249 0.16778 0.13695 0.0
C1 C 0.1864 0.05859 0.10786 0.0
N2 N 0.16914 0.06014 0.1004 0.0
C3 C 0.18242 0.07416 0.07177 0.0
C4 C 0.20243 0.06609 0.09746 0.0
C5 C 0.16689 0.06707 0.08263 0.0
C6 C 0.20026 0.07388 0.07922 0.0
C7 C 0.20565 0.05107 0.13421 0.0
C8 C 0.18791 0.05168 0.12612 0.0
C9 C 0.22164 0.05886 0.12389 0.0
C10 C 0.22003 0.06636 0.10558 0.0
Eu11 Eu 0.14382 0.04903 0.11973 0.0
N12 N 0.17214 0.04554 0.13594 0.0
C13 C 0.20683 0.04207 0.15241 0.0
C14 C 0.1734 0.03296 0.15334 0.0
C15 C 0.19066 0.03213 0.16193 0.0
H16 H 0.1531 0.0673 0.07688 0.0
H17 H 0.19151 0.02302 0.17583 0.0
H18 H 0.1284 0.17787 0.18095 0.0
H19 H 0.05866 0.1745 0.0973 0.0
H20 H 0.16131 0.02195 0.16057 0.0
H21 H 0.22018 0.04126 0.15911 0.0
H22 H 0.09255 0.17173 0.10232 0.0
H23 H 0.18062 0.08001 0.05768 0.0
H24 H 0.23534 0.05887 0.12993 0.0
H25 H 0.2325 0.07236 0.09782 0.0
H26 H 0.10896 0.18248 0.20801 0.0
H27 H 0.21224 0.07981 0.07079 0.0
H28 H 0.03711 0.17855 0.12288 0.0
N29 N 0.10525 0.17556 0.16342 0.0
C30 C 0.08643 0.17787 0.16164 0.0
C31 C 0.10245 0.18097 0.19506 0.0
C32 C 0.0748 0.18105 0.17668 0.0
C33 C 0.11341 0.17784 0.17976 0.0
C34 C 0.08306 0.18234 0.19353 0.0
N35 N 0.09029 0.17246 0.13046 0.0
C36 C 0.08335 0.17299 0.11359 0.0
C37 C 0.05924 0.17872 0.14242 0.0
C38 C 0.07872 0.17686 0.1447 0.0
C39 C 0.052 0.17736 0.12517 0.0
C40 C 0.06412 0.1749 0.1107 0.0
H41 H 0.0746 0.18474 0.20541 0.0
H42 H 0.04623 0.18501 0.18587 0.0
H43 H 0.03262 0.1828 0.1559 0.0
O44 O 0.12806 0.22938 0.12166 0.0
O45 O 0.10276 0.10763 0.13773 0.0
O46 O 0.1123 0.0538 0.11716 0.0
O47 O 0.12334 0.23407 0.14988 0.0
O48 O 0.12682 0.15948 0.1069 0.0
O49 O 0.12543 0.08287 0.09954 0.0
O50 O 0.14491 0.97813 0.12826 0.0
O51 O 0.15842 0.11707 0.11528 0.0
O52 O 0.15289 0.15247 0.14146 0.0
O53 O 0.14414 0.99387 0.10036 0.0
O54 O 0.13231 0.05267 0.1478 0.0
O55 O 0.13927 0.12551 0.15641 0.0
C56 C 0.09958 0.07268 0.12736 0.0
C57 C 0.14289 0.28915 0.13698 0.0
C58 C 0.15384 0.36757 0.13517 0.0
C59 C 0.17183 0.35258 0.13982 0.0
C60 C 0.16083 0.27517 0.14182 0.0
C61 C 0.17525 0.3067 0.1431 0.0
C62 C 0.13942 0.3353 0.1337 0.0
C63 C 0.12434 0.12614 0.09538 0.0
C64 C 0.12767 0.25599 0.13548 0.0
C65 C 0.05538 0.18275 0.17446 0.0
C66 C 0.04762 0.18154 0.15739 0.0
C67 C 0.16392 0.14401 0.12807 0.0
C68 C 0.12908 0.9268 0.10973 0.0
C69 C 0.11959 0.84718 0.11111 0.0
C70 C 0.10149 0.86015 0.10602 0.0
C71 C 0.11092 0.93882 0.10468 0.0
C72 C 0.13338 0.88097 0.11291 0.0
C73 C 0.09723 0.90562 0.10284 0.0
C74 C 0.13478 0.08337 0.16025 0.0
C75 C 0.14342 0.96194 0.11226 0.0
H76 H 0.18319 0.37642 0.14129 0.0
H77 H 0.1636 0.23997 0.14472 0.0
H78 H 0.1891 0.29561 0.14683 0.0
H79 H 0.12552 0.34595 0.12991 0.0
H80 H 0.09064 0.83505 0.10427 0.0
H81 H 0.10731 0.97385 0.10215 0.0
H82 H 0.14734 0.87181 0.11707 0.0
H83 H 0.08326 0.91517 0.0989 0.0
Eu84 Eu 0.88431 0.84388 0.13544 0.0
C85 C 0.82113 0.9574 0.10424 0.0
N86 N 0.8388 0.95563 0.09775 0.0
C87 C 0.82719 0.94548 0.06822 0.0
C88 C 0.8057 0.95209 0.09285 0.0
C89 C 0.84207 0.95041 0.08004 0.0
C90 C 0.80892 0.94613 0.07466 0.0
C91 C 0.80035 0.96305 0.12959 0.0
C92 C 0.81854 0.96234 0.12249 0.0
C93 C 0.78496 0.95759 0.11827 0.0
C94 C 0.78762 0.95213 0.09997 0.0
Eu95 Eu 0.863 0.96281 0.11864 0.0
N96 N 0.83375 0.96616 0.13326 0.0
C97 C 0.79815 0.96963 0.14786 0.0
C98 C 0.83155 0.97606 0.15083 0.0
C99 C 0.8138 0.97695 0.15847 0.0
H100 H 0.85617 0.95024 0.07504 0.0
H101 H 0.81219 0.98401 0.17249 0.0
H102 H 0.88263 0.83913 0.1799 0.0
H103 H 0.94446 0.8366 0.09072 0.0
H104 H 0.84329 0.98483 0.15899 0.0
H105 H 0.78441 0.97042 0.15382 0.0
H106 H 0.91121 0.83706 0.09843 0.0
H107 H 0.8298 0.94109 0.05417 0.0
H108 H 0.77091 0.95774 0.12354 0.0
H109 H 0.7756 0.94786 0.09143 0.0
H110 H 0.90452 0.83799 0.20523 0.0
H111 H 0.79743 0.94194 0.06548 0.0
H112 H 0.96827 0.83671 0.11445 0.0
N113 N 0.90403 0.83976 0.16043 0.0
C114 C 0.92264 0.83788 0.1571 0.0
C115 C 0.90979 0.83817 0.19177 0.0
C116 C 0.93563 0.83692 0.17115 0.0
C117 C 0.89745 0.83929 0.17742 0.0
C118 C 0.92897 0.83718 0.18863 0.0
N119 N 0.91588 0.84038 0.12628 0.0
C120 C 0.92131 0.8384 0.10894 0.0
C121 C 0.94797 0.83699 0.13572 0.0
C122 C 0.92874 0.8379 0.13956 0.0
C123 C 0.95362 0.83723 0.11794 0.0
C124 C 0.94023 0.83743 0.10451 0.0
H125 H 0.93851 0.83648 0.19978 0.0
H126 H 0.96496 0.83552 0.17797 0.0
H127 H 0.97575 0.83568 0.14698 0.0
O128 O 0.88085 0.77928 0.1216 0.0
O129 O 0.90278 0.90625 0.13796 0.0
O130 O 0.89433 0.95473 0.11529 0.0
O131 O 0.88299 0.78006 0.15015 0.0
O132 O 0.87785 0.85152 0.10571 0.0
O133 O 0.88138 0.92767 0.09874 0.0
O134 O 0.86315 0.03249 0.12853 0.0
O135 O 0.8472 0.89639 0.11438 0.0
O136 O 0.85369 0.85768 0.13979 0.0
O137 O 0.86337 0.02035 0.10033 0.0
O138 O 0.87331 0.95774 0.14713 0.0
O139 O 0.86712 0.8839 0.15529 0.0
C140 C 0.90665 0.93857 0.12657 0.0
C141 C 0.86494 0.72196 0.13729 0.0
C142 C 0.8542 0.64345 0.13529 0.0
C143 C 0.83602 0.65828 0.13924 0.0
C144 C 0.84678 0.73584 0.14136 0.0
C145 C 0.83238 0.70417 0.14224 0.0
C146 C 0.86863 0.67581 0.13428 0.0
C147 C 0.88066 0.88467 0.09419 0.0
C148 C 0.88012 0.75532 0.13613 0.0
C149 C 0.95478 0.83611 0.16735 0.0
C150 C 0.96093 0.83618 0.14969 0.0
C151 C 0.84225 0.86783 0.12685 0.0
C152 C 0.87934 0.08499 0.1108 0.0
C153 C 0.88929 0.1642 0.11233 0.0
C154 C 0.90751 0.15045 0.10799 0.0
C155 C 0.8976 0.07214 0.10647 0.0
C156 C 0.87522 0.13099 0.1137 0.0
C157 C 0.91159 0.10476 0.10509 0.0
C158 C 0.8707 0.92644 0.15936 0.0
C159 C 0.86463 0.0506 0.11283 0.0
H160 H 0.82465 0.63433 0.14034 0.0
H161 H 0.84381 0.77109 0.14394 0.0
H162 H 0.81837 0.71517 0.14539 0.0
H163 H 0.88269 0.66527 0.13102 0.0
H164 H 0.91859 0.17511 0.10659 0.0
H165 H 0.90105 0.03694 0.10416 0.0
H166 H 0.86116 0.14075 0.11729 0.0
H167 H 0.92564 0.09459 0.10172 0.0
Eu168 Eu 0.12102 0.83978 0.36863 0.0
C169 C 0.18783 0.9602 0.37828 0.0
N170 N 0.17351 0.95717 0.38999 0.0
C171 C 0.19496 0.94577 0.41396 0.0
C172 C 0.20638 0.95393 0.38388 0.0
C173 C 0.17676 0.95194 0.40774 0.0
C174 C 0.20981 0.9461 0.40194 0.0
C175 C 0.1984 0.97505 0.3483 0.0
C176 C 0.18383 0.97026 0.36072 0.0
C177 C 0.21687 0.96683 0.35361 0.0
C178 C 0.22085 0.95628 0.37137 0.0
Eu179 Eu 0.14312 0.96423 0.37833 0.0
N180 N 0.16582 0.97815 0.35605 0.0
C181 C 0.19403 0.98952 0.3311 0.0
C182 C 0.16178 0.99651 0.33986 0.0
C183 C 0.17568 1.00127 0.32698 0.0
H184 H 0.16521 0.9512 0.41694 0.0
H185 H 0.17227 0.01457 0.31398 0.0
H186 H 0.11919 0.83241 0.32362 0.0
H187 H 0.06414 0.80945 0.41503 0.0
H188 H 0.14787 1.00806 0.33686 0.0
H189 H 0.20481 0.99362 0.32115 0.0
H190 H 0.09707 0.81421 0.40516 0.0
H191 H 0.1975 0.9405 0.42797 0.0
H192 H 0.22822 0.96977 0.3442 0.0
H193 H 0.2352 0.95099 0.37536 0.0
H194 H 0.09594 0.84229 0.29984 0.0
H195 H 0.22388 0.94107 0.40678 0.0
H196 H 0.03868 0.82466 0.39362 0.0
N197 N 0.09963 0.84201 0.34455 0.0
C198 C 0.08129 0.84386 0.34893 0.0
C199 C 0.09164 0.84351 0.3136 0.0
C200 C 0.06741 0.84803 0.33578 0.0
C201 C 0.10483 0.83872 0.32715 0.0
C202 C 0.07287 0.84919 0.31794 0.0
N203 N 0.09003 0.83232 0.37871 0.0
C204 C 0.08594 0.82041 0.39579 0.0
C205 C 0.05741 0.83612 0.37152 0.0
C206 C 0.07632 0.838 0.36653 0.0
C207 C 0.05304 0.82644 0.38925 0.0
C208 C 0.06738 0.8178 0.40138 0.0
H209 H 0.06265 0.85242 0.30743 0.0
H210 H 0.0377 0.8529 0.33089 0.0
H211 H 0.02895 0.8425 0.36224 0.0
O212 O 0.13144 0.78014 0.38263 0.0
O213 O 0.10395 0.89472 0.38237 0.0
O214 O 0.11308 0.96058 0.36891 0.0
O215 O 0.11748 0.77162 0.35759 0.0
O216 O 0.13104 0.85137 0.39714 0.0
O217 O 0.13078 0.92943 0.40243 0.0
O218 O 0.14746 0.03748 0.37567 0.0
O219 O 0.15899 0.89837 0.38332 0.0
O220 O 0.15042 0.8553 0.35973 0.0
O221 O 0.1356 0.01059 0.39973 0.0
O222 O 0.12815 0.95299 0.35215 0.0
O223 O 0.13474 0.87842 0.34571 0.0
C224 C 0.10004 0.93478 0.3758 0.0
C225 C 0.14077 0.71834 0.36503 0.0
C226 C 0.15124 0.63963 0.36339 0.0
C227 C 0.16842 0.65469 0.35661 0.0
C228 C 0.15787 0.73259 0.35801 0.0
C229 C 0.17165 0.70089 0.35388 0.0
C230 C 0.13743 0.67187 0.36757 0.0
C231 C 0.13091 0.88686 0.40793 0.0
C232 C 0.12657 0.75166 0.37031 0.0
C233 C 0.04855 0.84904 0.34078 0.0
C234 C 0.04356 0.843 0.35863 0.0
C235 C 0.16313 0.86864 0.37102 0.0
C236 C 0.12441 0.08161 0.38976 0.0
C237 C 0.11501 0.16091 0.38612 0.0
C238 C 0.09626 0.14742 0.38774 0.0
C239 C 0.10559 0.06906 0.39107 0.0
C240 C 0.12905 0.12749 0.38721 0.0
C241 C 0.09164 0.10186 0.39012 0.0
C242 C 0.13069 0.92006 0.34065 0.0
C243 C 0.13924 0.04699 0.39058 0.0
H244 H 0.17925 0.63068 0.35317 0.0
H245 H 0.16056 0.76818 0.35582 0.0
H246 H 0.18487 0.71216 0.34856 0.0
H247 H 0.12423 0.66092 0.37311 0.0
H248 H 0.0851 0.17211 0.38736 0.0
H249 H 0.10164 0.03391 0.39284 0.0
H250 H 0.14357 0.13687 0.38577 0.0
H251 H 0.07717 0.09193 0.39125 0.0
Eu252 Eu 0.88514 0.17343 0.36332 0.0
C253 C 0.82085 0.06476 0.39191 0.0
N254 N 0.838 0.06666 0.39959 0.0
C255 C 0.82426 0.08139 0.42796 0.0
C256 C 0.80465 0.07233 0.40205 0.0
C257 C 0.83996 0.07404 0.41737 0.0
C258 C 0.80653 0.08077 0.42027 0.0
C259 C 0.80201 0.05465 0.36545 0.0
C260 C 0.81963 0.05648 0.37373 0.0
C261 C 0.78585 0.06295 0.37546 0.0
C262 C 0.78717 0.07174 0.3937 0.0
Eu263 Eu 0.86367 0.05479 0.3807 0.0
N264 N 0.83556 0.04945 0.36423 0.0
C265 C 0.80111 0.04364 0.34741 0.0
C266 C 0.83455 0.03465 0.34709 0.0
C267 C 0.81742 0.03271 0.33829 0.0
H268 H 0.85367 0.07445 0.4233 0.0
H269 H 0.81678 0.02191 0.32457 0.0
H270 H 0.88157 0.17899 0.319 0.0
H271 H 0.94696 0.18291 0.40573 0.0
H272 H 0.84677 0.0228 0.34024 0.0
H273 H 0.78784 0.04185 0.34057 0.0
H274 H 0.91341 0.18014 0.3992 0.0
H275 H 0.82582 0.08764 0.44205 0.0
H276 H 0.77223 0.0621 0.36926 0.0
H277 H 0.77456 0.07785 0.40124 0.0
H278 H 0.90234 0.18132 0.29284 0.0
H279 H 0.79441 0.08679 0.4285 0.0
H280 H 0.96981 0.18438 0.38116 0.0
N281 N 0.9038 0.17817 0.33761 0.0
C282 C 0.92253 0.18024 0.34021 0.0
C283 C 0.9082 0.18084 0.30608 0.0
C284 C 0.93489 0.18221 0.32568 0.0
C285 C 0.89648 0.17905 0.3209 0.0
C286 C 0.92749 0.18226 0.30848 0.0
N287 N 0.91706 0.17748 0.37122 0.0
C288 C 0.92314 0.17967 0.38835 0.0
C289 C 0.94871 0.18248 0.36062 0.0
C290 C 0.92936 0.18027 0.35749 0.0
C291 C 0.95505 0.18282 0.37819 0.0
C292 C 0.9422 0.1818 0.3921 0.0
H293 H 0.93653 0.18368 0.29697 0.0
H294 H 0.96389 0.1854 0.31777 0.0
H295 H 0.97597 0.18566 0.34834 0.0
O296 O 0.88112 0.23763 0.37745 0.0
O297 O 0.90424 0.11187 0.36178 0.0
O298 O 0.89517 0.06029 0.38333 0.0
O299 O 0.88212 0.23724 0.34885 0.0
O300 O 0.87965 0.16601 0.39324 0.0
O301 O 0.8822 0.08964 0.40055 0.0
O302 O 0.86469 0.98354 0.37267 0.0
O303 O 0.84885 0.12262 0.38508 0.0
O304 O 0.85457 0.15922 0.35914 0.0
O305 O 0.86323 1.00038 0.40045 0.0
O306 O 0.8746 0.05863 0.3524 0.0
O307 O 0.86791 0.1319 0.34401 0.0
C308 C 0.9077 0.07771 0.37252 0.0
C309 C 0.89357 0.30252 0.3633 0.0
C310 C 0.89777 0.38418 0.36749 0.0
C311 C 0.91679 0.37902 0.36344 0.0
C312 C 0.91257 0.29849 0.35928 0.0
C313 C 0.92409 0.33647 0.35939 0.0
C314 C 0.88618 0.34549 0.36737 0.0
C315 C 0.88236 0.13288 0.40482 0.0
C316 C 0.88142 0.26222 0.36306 0.0
C317 C 0.95418 0.18402 0.32877 0.0
C318 C 0.96106 0.18417 0.34618 0.0
C319 C 0.84347 0.15014 0.37241 0.0
C320 C 0.8493 0.93139 0.39133 0.0
C321 C 0.84163 0.85059 0.39053 0.0
C322 C 0.82322 0.8613 0.3954 0.0
C323 C 0.83089 0.94115 0.39626 0.0
C324 C 0.85462 0.88607 0.38852 0.0
C325 C 0.81794 0.90626 0.39825 0.0
C326 C 0.87188 0.08954 0.34005 0.0
C327 C 0.86302 0.96797 0.38876 0.0
H328 H 0.92602 0.40805 0.36307 0.0
H329 H 0.91849 0.26612 0.35591 0.0
H330 H 0.93872 0.33295 0.35618 0.0
H331 H 0.87151 0.34866 0.37055 0.0
H332 H 0.81295 0.83483 0.39728 0.0
H333 H 0.82651 0.97559 0.39863 0.0
H334 H 0.86881 0.87855 0.38455 0.0
H335 H 0.80377 0.91409 0.40209 0.0
Eu336 Eu 0.86282 0.96982 0.88237 0.0
C337 C 0.92892 0.85973 0.85492 0.0
N338 N 0.91203 0.86201 0.8468 0.0
C339 C 0.92673 0.87637 0.8188 0.0
C340 C 0.94548 0.86676 0.84524 0.0
C341 C 0.91068 0.8694 0.82897 0.0
C342 C 0.9442 0.87535 0.82699 0.0
C343 C 0.94692 0.84751 0.88175 0.0
C344 C 0.92956 0.85077 0.87303 0.0
C345 C 0.96342 0.8558 0.87226 0.0
C346 C 0.9627 0.86536 0.85405 0.0
Eu347 Eu 0.88558 0.85237 0.865 0.0
N348 N 0.91332 0.84347 0.88195 0.0
C349 C 0.94722 0.83469 0.89962 0.0
C350 C 0.91378 0.8261 0.89876 0.0
C351 C 0.9306 0.82286 0.90803 0.0
H352 H 0.8972 0.87013 0.82264 0.0
H353 H 0.93077 0.81035 0.92155 0.0
H354 H 0.86498 0.97222 0.92678 0.0
H355 H 0.80211 0.97157 0.83832 0.0
H356 H 0.90133 0.81348 0.90502 0.0
H357 H 0.96026 0.8318 0.90679 0.0
H358 H 0.83544 0.97474 0.84573 0.0
H359 H 0.92562 0.88264 0.80468 0.0
H360 H 0.97684 0.85408 0.87882 0.0
H361 H 0.97556 0.87124 0.84688 0.0
H362 H 0.84346 0.96836 0.95237 0.0
H363 H 0.9566 0.88102 0.81909 0.0
H364 H 0.77862 0.96639 0.86226 0.0
N365 N 0.84338 0.96911 0.90758 0.0
C366 C 0.82472 0.96812 0.90446 0.0
C367 C 0.83801 0.96806 0.93897 0.0
C368 C 0.81192 0.96636 0.91864 0.0
C369 C 0.85017 0.96976 0.92448 0.0
C370 C 0.81881 0.96617 0.93604 0.0
N371 N 0.83113 0.96909 0.87356 0.0
C372 C 0.82548 0.97151 0.8563 0.0
C373 C 0.79914 0.96692 0.88334 0.0
C374 C 0.8184 0.96832 0.88698 0.0
C375 C 0.7933 0.9675 0.86561 0.0
C376 C 0.80652 0.97024 0.85205 0.0
H377 H 0.80942 0.9648 0.9473 0.0
H378 H 0.7827 0.96314 0.92576 0.0
H379 H 0.77152 0.96364 0.89488 0.0
O380 O 0.86482 0.03561 0.86906 0.0
O381 O 0.84592 0.90444 0.8847 0.0
O382 O 0.85458 0.86116 0.86074 0.0
O383 O 0.86392 0.03276 0.89767 0.0
O384 O 0.8691 0.9646 0.85281 0.0
O385 O 0.86895 0.8891 0.84368 0.0
O386 O 0.88121 0.78188 0.87314 0.0
O387 O 0.90042 0.9198 0.86059 0.0
O388 O 0.89405 0.96059 0.88564 0.0
O389 O 0.88699 0.79697 0.84574 0.0
O390 O 0.87592 0.85834 0.89398 0.0
O391 O 0.88204 0.93279 0.90105 0.0
C392 C 0.84232 0.87331 0.87272 0.0
C393 C 0.85107 0.0977 0.88392 0.0
C394 C 0.84551 0.17924 0.88085 0.0
C395 C 0.82644 0.17158 0.88403 0.0
C396 C 0.83202 0.09107 0.88706 0.0
C397 C 0.81979 0.12781 0.8871 0.0
C398 C 0.85778 0.14183 0.88085 0.0
C399 C 0.86798 0.93309 0.84039 0.0
C400 C 0.86402 0.05891 0.88374 0.0
C401 C 0.79274 0.96465 0.91503 0.0
C402 C 0.78637 0.96493 0.89744 0.0
C403 C 0.9056 0.94796 0.87308 0.0
C404 C 0.89795 0.72686 0.85698 0.0
C405 C 0.904 0.64543 0.85969 0.0
C406 C 0.92303 0.65387 0.85663 0.0
C407 C 0.91699 0.73428 0.85397 0.0
C408 C 0.8915 0.68239 0.85982 0.0
C409 C 0.92943 0.69796 0.8538 0.0
C410 C 0.87975 0.89027 0.90571 0.0
C411 C 0.88476 0.7652 0.85752 0.0
H412 H 0.81666 0.19953 0.88442 0.0
H413 H 0.82659 0.05761 0.88954 0.0
H414 H 0.80511 0.12238 0.8896 0.0
H415 H 0.87249 0.1469 0.87827 0.0
H416 H 0.93298 0.62627 0.85616 0.0
H417 H 0.92226 0.76805 0.85169 0.0
H418 H 0.87682 0.67672 0.86236 0.0
H419 H 0.94409 0.70399 0.8514 0.0
Eu420 Eu 0.14281 0.05977 0.88189 0.0
C421 C 0.08532 0.19224 0.84168 0.0
N422 N 0.10413 0.18966 0.83982 0.0
C423 C 0.10124 0.19715 0.80825 0.0
C424 C 0.07366 0.19665 0.82671 0.0
C425 C 0.11224 0.19278 0.82348 0.0
C426 C 0.08186 0.19886 0.80986 0.0
C427 C 0.05819 0.19226 0.86098 0.0
C428 C 0.07766 0.1902 0.85863 0.0
C429 C 0.04654 0.19635 0.84608 0.0
C430 C 0.05425 0.19857 0.829 0.0
Eu431 Eu 0.12142 0.17984 0.86616 0.0
N432 N 0.08925 0.18454 0.87279 0.0
C433 C 0.051 0.18978 0.87823 0.0
C434 C 0.08237 0.18391 0.88967 0.0
C435 C 0.06316 0.18599 0.89263 0.0
H436 H 0.12723 0.19251 0.82224 0.0
H437 H 0.05774 0.18471 0.90604 0.0
H438 H 0.15292 0.07698 0.92465 0.0
H439 H 0.18938 0.03454 0.82491 0.0
H440 H 0.0916 0.1816 0.9009 0.0
H441 H 0.03612 0.19111 0.88057 0.0
H442 H 0.15947 0.03338 0.84068 0.0
H443 H 0.10772 0.19934 0.7953 0.0
H444 H 0.03154 0.19779 0.84762 0.0
H445 H 0.04507 0.20178 0.81764 0.0
H446 H 0.18084 0.0888 0.94342 0.0
H447 H 0.07338 0.20221 0.79803 0.0
H448 H 0.21839 0.05212 0.84121 0.0
N449 N 0.16849 0.07032 0.90083 0.0
C450 C 0.1856 0.06867 0.89308 0.0
C451 C 0.18235 0.08333 0.92929 0.0
C452 C 0.20185 0.07569 0.90323 0.0
C453 C 0.1666 0.07674 0.91867 0.0
C454 C 0.20004 0.08303 0.92153 0.0
N455 N 0.1708 0.05637 0.86519 0.0
C456 C 0.17172 0.04413 0.84774 0.0
C457 C 0.20434 0.0615 0.86638 0.0
C458 C 0.18676 0.06214 0.87477 0.0
C459 C 0.20516 0.0529 0.84813 0.0
C460 C 0.18881 0.04334 0.83885 0.0
H461 H 0.2122 0.08858 0.92977 0.0
H462 H 0.23192 0.08161 0.90237 0.0
H463 H 0.23412 0.06888 0.87018 0.0
O464 O 0.14385 0.98905 0.87316 0.0
O465 O 0.15741 0.12763 0.88687 0.0
O466 O 0.15168 0.16446 0.86104 0.0
O467 O 0.14345 1.00426 0.90111 0.0
O468 O 0.13113 0.06532 0.8539 0.0
O469 O 0.13812 0.13886 0.8463 0.0
O470 O 0.12771 0.24001 0.88201 0.0
O471 O 0.10149 0.12025 0.86491 0.0
O472 O 0.11123 0.0635 0.88421 0.0
O473 O 0.12201 0.24711 0.85402 0.0
O474 O 0.12582 0.16912 0.89607 0.0
O475 O 0.12439 0.09195 0.90243 0.0
C476 C 0.1629 0.15488 0.87416 0.0
C477 C 0.12828 0.93743 0.89178 0.0
C478 C 0.11885 0.85782 0.89059 0.0
C479 C 0.10078 0.87069 0.89582 0.0
C480 C 0.11018 0.94938 0.89703 0.0
C481 C 0.09652 0.91615 0.89901 0.0
C482 C 0.13258 0.89165 0.8886 0.0
C483 C 0.13352 0.09721 0.84189 0.0
C484 C 0.14258 0.97257 0.88914 0.0
C485 C 0.21929 0.07595 0.8948 0.0
C486 C 0.22053 0.06888 0.87645 0.0
C487 C 0.09846 0.08364 0.87443 0.0
C488 C 0.14237 0.30035 0.86685 0.0
C489 C 0.15359 0.37853 0.86811 0.0
C490 C 0.17152 0.36303 0.86356 0.0
C491 C 0.16026 0.28579 0.86211 0.0
C492 C 0.13906 0.34666 0.86982 0.0
C493 C 0.17479 0.31695 0.8606 0.0
C494 C 0.12334 0.13481 0.90715 0.0
C495 C 0.12699 0.26769 0.86852 0.0
H496 H 0.08998 0.84552 0.89771 0.0
H497 H 0.10661 0.98437 0.89963 0.0
H498 H 0.08259 0.92564 0.90309 0.0
H499 H 0.14651 0.88255 0.88433 0.0
H500 H 0.18296 0.38659 0.86193 0.0
H501 H 0.16291 0.25044 0.85943 0.0
H502 H 0.1252 0.35774 0.87354 0.0
H503 H 0.18859 0.30542 0.85695 0.0
Eu504 Eu 0.86421 0.05193 0.61685 0.0
C505 C 0.93013 0.16221 0.64463 0.0
N506 N 0.91313 0.16009 0.65254 0.0
C507 C 0.92744 0.14687 0.68081 0.0
C508 C 0.94656 0.1558 0.65459 0.0
C509 C 0.91153 0.15331 0.67039 0.0
C510 C 0.94502 0.14786 0.67286 0.0
C511 C 0.94851 0.17355 0.61798 0.0
C512 C 0.93102 0.17048 0.62648 0.0
C513 C 0.96488 0.16591 0.62776 0.0
C514 C 0.96391 0.15714 0.64601 0.0
Eu515 Eu 0.88694 0.16947 0.63397 0.0
N516 N 0.91491 0.17737 0.61729 0.0
C517 C 0.94906 0.1856 0.60003 0.0
C518 C 0.9156 0.19398 0.60037 0.0
C519 C 0.93255 0.19691 0.59131 0.0
H520 H 0.89796 0.1527 0.67653 0.0
H521 H 0.93291 0.20885 0.57772 0.0
H522 H 0.86759 0.04672 0.57255 0.0
H523 H 0.80236 0.05284 0.65938 0.0
H524 H 0.90323 0.20634 0.59388 0.0
H525 H 0.9622 0.18832 0.59303 0.0
H526 H 0.83591 0.04981 0.65282 0.0
H527 H 0.92612 0.14109 0.69494 0.0
H528 H 0.9784 0.16756 0.62139 0.0
H529 H 0.97668 0.15177 0.6534 0.0
H530 H 0.84677 0.04874 0.54639 0.0
H531 H 0.95732 0.14264 0.68096 0.0
H532 H 0.77951 0.05586 0.63482 0.0
N533 N 0.84548 0.05105 0.59116 0.0
C534 C 0.82674 0.05206 0.5938 0.0
C535 C 0.84096 0.04991 0.55965 0.0
C536 C 0.81433 0.05268 0.57929 0.0
C537 C 0.85272 0.04929 0.57444 0.0
C538 C 0.82168 0.05179 0.56207 0.0
N539 N 0.8323 0.05322 0.62485 0.0
C540 C 0.8262 0.05198 0.64198 0.0
C541 C 0.80059 0.05424 0.61426 0.0
C542 C 0.81994 0.05291 0.61111 0.0
C543 C 0.79427 0.05476 0.63184 0.0
C544 C 0.80713 0.05324 0.64575 0.0
H545 H 0.8126 0.05227 0.55058 0.0
H546 H 0.7853 0.05493 0.57142 0.0
H547 H 0.77328 0.05627 0.60201 0.0
O548 O 0.86603 0.98696 0.63079 0.0
O549 O 0.84707 0.11707 0.61434 0.0
O550 O 0.85588 0.16155 0.63794 0.0
O551 O 0.86551 0.9881 0.60216 0.0
O552 O 0.86997 0.05789 0.64649 0.0
O553 O 0.86994 0.13368 0.65523 0.0
O554 O 0.88311 0.2399 0.6255 0.0
O555 O 0.9016 0.10195 0.63886 0.0
O556 O 0.8955 0.06085 0.61384 0.0
O557 O 0.88807 0.22521 0.65308 0.0
O558 O 0.87739 0.16303 0.60497 0.0
O559 O 0.88366 0.08849 0.59828 0.0
C560 C 0.84361 0.14913 0.62601 0.0
C561 C 0.85249 0.92402 0.61632 0.0
C562 C 0.84701 0.84251 0.61946 0.0
C563 C 0.8279 0.85013 0.61647 0.0
C564 C 0.8334 0.93062 0.61338 0.0
C565 C 0.82119 0.89387 0.61347 0.0
C566 C 0.85926 0.87991 0.61933 0.0
C567 C 0.86878 0.08983 0.65873 0.0
C568 C 0.86542 0.96279 0.61631 0.0
C569 C 0.79504 0.0543 0.58241 0.0
C570 C 0.7882 0.05507 0.59983 0.0
C571 C 0.90689 0.07335 0.62655 0.0
C572 C 0.89952 0.29492 0.64196 0.0
C573 C 0.90572 0.37631 0.63965 0.0
C574 C 0.9247 0.3676 0.64285 0.0
C575 C 0.91851 0.2872 0.64513 0.0
C576 C 0.89317 0.33951 0.63924 0.0
C577 C 0.931 0.32337 0.64556 0.0
C578 C 0.88127 0.1308 0.59338 0.0
C579 C 0.88627 0.2568 0.64116 0.0
H580 H 0.81814 0.82216 0.61617 0.0
H581 H 0.82792 0.96406 0.61095 0.0
H582 H 0.80648 0.89929 0.61111 0.0
H583 H 0.874 0.87488 0.62176 0.0
H584 H 0.93468 0.39508 0.64352 0.0
H585 H 0.9237 0.25333 0.64734 0.0
H586 H 0.87852 0.34542 0.6366 0.0
H587 H 0.94563 0.31711 0.64808 0.0
Eu588 Eu 0.14535 0.96839 0.61998 0.0
C589 C 0.08337 0.85268 0.6596 0.0
N590 N 0.10189 0.85383 0.66335 0.0
C591 C 0.09531 0.85839 0.69447 0.0
C592 C 0.07001 0.85501 0.67329 0.0
C593 C 0.10803 0.85602 0.68045 0.0
C594 C 0.07621 0.85806 0.69088 0.0
C595 C 0.05865 0.84877 0.63764 0.0
C596 C 0.07777 0.84962 0.64194 0.0
C597 C 0.04531 0.85136 0.65124 0.0
C598 C 0.05097 0.85445 0.66901 0.0
Eu599 Eu 0.1224 0.85174 0.63892 0.0
N600 N 0.09103 0.84851 0.62899 0.0
C601 C 0.0535 0.84549 0.61977 0.0
C602 C 0.08606 0.84315 0.61164 0.0
C603 C 0.06727 0.84217 0.60675 0.0
H604 H 0.12278 0.85539 0.68328 0.0
H605 H 0.06341 0.83853 0.59293 0.0
H606 H 0.15887 0.93995 0.57891 0.0
H607 H 0.1879 0.0179 0.67749 0.0
H608 H 0.09641 0.83892 0.60146 0.0
H609 H 0.03896 0.84484 0.61591 0.0
H610 H 0.15925 0.01304 0.65986 0.0
H611 H 0.10023 0.86035 0.70804 0.0
H612 H 0.03056 0.85098 0.64816 0.0
H613 H 0.0405 0.85639 0.67934 0.0
H614 H 0.18817 0.92332 0.5628 0.0
H615 H 0.06638 0.85996 0.70177 0.0
H616 H 0.21786 0.99274 0.66468 0.0
N617 N 0.17246 0.9522 0.60348 0.0
C618 C 0.18892 0.95624 0.61233 0.0
C619 C 0.18856 0.93232 0.57673 0.0
C620 C 0.20591 0.94656 0.60372 0.0
C621 C 0.17203 0.94166 0.58583 0.0
C622 C 0.20556 0.93439 0.58574 0.0
N623 N 0.17209 0.97878 0.63813 0.0
C624 C 0.17188 0.9989 0.65447 0.0
C625 C 0.20562 0.97297 0.63957 0.0
C626 C 0.18868 0.96888 0.63017 0.0
C627 C 0.20516 0.9891 0.65703 0.0
C628 C 0.18827 1.00306 0.66435 0.0
H629 H 0.21833 0.92671 0.57868 0.0
H630 H 0.23582 0.94122 0.60695 0.0
H631 H 0.23559 0.96466 0.63826 0.0
O632 O 0.14565 0.04335 0.62368 0.0
O633 O 0.15971 0.89954 0.61664 0.0
O634 O 0.15316 0.86445 0.64281 0.0
O635 O 0.14599 0.01321 0.59723 0.0
O636 O 0.1344 0.96823 0.6483 0.0
O637 O 0.14008 0.89475 0.65746 0.0
O638 O 0.12511 0.7838 0.62737 0.0
O639 O 0.10462 0.91553 0.64071 0.0
O640 O 0.11362 0.96486 0.61833 0.0
O641 O 0.12498 0.79174 0.65579 0.0
O642 O 0.12896 0.85509 0.60908 0.0
O643 O 0.12568 0.9308 0.60206 0.0
C644 C 0.16453 0.87219 0.6296 0.0
C645 C 0.14727 0.09497 0.59777 0.0
C646 C 0.14336 0.17735 0.59755 0.0
C647 C 0.14822 0.17799 0.5795 0.0
C648 C 0.15223 0.09679 0.57971 0.0
C649 C 0.15274 0.138 0.5707 0.0
C650 C 0.14308 0.1357 0.6068 0.0
C651 C 0.13667 0.93777 0.66094 0.0
C652 C 0.14627 0.05011 0.60659 0.0
C653 C 0.22265 0.94902 0.61329 0.0
C654 C 0.22251 0.96215 0.63116 0.0
C655 C 0.10107 0.94818 0.62933 0.0
C656 C 0.11201 0.72414 0.6443 0.0
C657 C 0.10559 0.64297 0.64119 0.0
C658 C 0.08727 0.65079 0.64708 0.0
C659 C 0.09368 0.73076 0.65019 0.0
C660 C 0.11799 0.68 0.63991 0.0
C661 C 0.08142 0.69435 0.65157 0.0
C662 C 0.12688 0.88811 0.59738 0.0
C663 C 0.12484 0.7631 0.64266 0.0
H664 H 0.14854 0.20965 0.5722 0.0
H665 H 0.15568 0.06622 0.57245 0.0
H666 H 0.15652 0.1389 0.55679 0.0
H667 H 0.13916 0.13496 0.62069 0.0
H668 H 0.0775 0.62303 0.64842 0.0
H669 H 0.08882 0.76401 0.65383 0.0
H670 H 0.13212 0.67463 0.63528 0.0
H671 H 0.06731 0.69991 0.65618 0.0
Eu672 Eu 0.6208 0.66622 0.13692 0.0
C673 C 0.68579 0.56006 0.10534 0.0
N674 N 0.66839 0.56425 0.09832 0.0
C675 C 0.68126 0.58294 0.0699 0.0
C676 C 0.70168 0.56875 0.09488 0.0
C677 C 0.66589 0.57447 0.08081 0.0
C678 C 0.69923 0.58035 0.07699 0.0
C679 C 0.70551 0.54517 0.13087 0.0
C680 C 0.68761 0.54888 0.12325 0.0
C681 C 0.72135 0.55447 0.12053 0.0
C682 C 0.71944 0.5662 0.10261 0.0
Eu683 Eu 0.64332 0.54955 0.1177 0.0
N684 N 0.67199 0.54077 0.13309 0.0
C685 C 0.70702 0.53124 0.14856 0.0
C686 C 0.67358 0.5232 0.1498 0.0
C687 C 0.691 0.51935 0.15795 0.0
H688 H 0.65203 0.57596 0.0753 0.0
H689 H 0.69209 0.50631 0.17135 0.0
H690 H 0.61451 0.65123 0.18039 0.0
H691 H 0.56901 0.70109 0.08486 0.0
H692 H 0.6616 0.51056 0.15678 0.0
H693 H 0.72052 0.52793 0.15488 0.0
H694 H 0.6003 0.69806 0.09774 0.0
H695 H 0.67924 0.59148 0.05606 0.0
H696 H 0.73518 0.55213 0.12624 0.0
H697 H 0.73181 0.57309 0.09481 0.0
H698 H 0.58853 0.64157 0.20164 0.0
H699 H 0.7111 0.58728 0.06853 0.0
H700 H 0.54148 0.68522 0.10356 0.0
N701 N 0.59679 0.65881 0.15807 0.0
C702 C 0.579 0.66193 0.15195 0.0
C703 C 0.58566 0.64707 0.18769 0.0
C704 C 0.56375 0.65668 0.16357 0.0
C705 C 0.60034 0.65221 0.17565 0.0
C706 C 0.56728 0.64907 0.18161 0.0
N707 N 0.59117 0.67434 0.12304 0.0
C708 C 0.58869 0.68804 0.10587 0.0
C709 C 0.55781 0.67257 0.12722 0.0
C710 C 0.57613 0.66944 0.13393 0.0
C711 C 0.55531 0.68252 0.10922 0.0
C712 C 0.57082 0.69117 0.0986 0.0
H713 H 0.55594 0.64483 0.19096 0.0
H714 H 0.53365 0.65431 0.16551 0.0
H715 H 0.52843 0.66837 0.13371 0.0
O716 O 0.62352 0.73701 0.12827 0.0
O717 O 0.60453 0.60059 0.1404 0.0
O718 O 0.61167 0.55574 0.1163 0.0
O719 O 0.62281 0.72141 0.15617 0.0
O720 O 0.62852 0.66281 0.10735 0.0
O721 O 0.62344 0.58784 0.10011 0.0
O722 O 0.64304 0.47524 0.12313 0.0
O723 O 0.65845 0.61724 0.11447 0.0
O724 O 0.65176 0.65466 0.14021 0.0
O725 O 0.64313 0.50143 0.09602 0.0
O726 O 0.63445 0.55024 0.14671 0.0
O727 O 0.63832 0.62457 0.15622 0.0
C728 C 0.59982 0.57086 0.12826 0.0
C729 C 0.60973 0.79157 0.14725 0.0
C730 C 0.6024 0.87267 0.14529 0.0
C731 C 0.58492 0.8637 0.153 0.0
C732 C 0.59218 0.78383 0.15488 0.0
C733 C 0.57989 0.81967 0.15771 0.0
C734 C 0.61483 0.83615 0.14251 0.0
C735 C 0.62504 0.63063 0.09561 0.0
C736 C 0.62275 0.75344 0.1443 0.0
C737 C 0.54554 0.65869 0.15681 0.0
C738 C 0.54258 0.66653 0.13869 0.0
C739 C 0.66323 0.64515 0.12723 0.0
C740 C 0.64392 0.41983 0.09841 0.0
C741 C 0.64046 0.33747 0.10033 0.0
C742 C 0.64553 0.33386 0.0824 0.0
C743 C 0.64899 0.41509 0.08045 0.0
C744 C 0.6397 0.3806 0.10842 0.0
C745 C 0.64979 0.37244 0.07256 0.0
C746 C 0.63684 0.58063 0.15941 0.0
C747 C 0.64335 0.46594 0.10621 0.0
H748 H 0.57517 0.8909 0.15564 0.0
H749 H 0.58798 0.75018 0.15883 0.0
H750 H 0.56642 0.81331 0.16369 0.0
H751 H 0.62832 0.84224 0.13651 0.0
H752 H 0.64614 0.30099 0.076 0.0
H753 H 0.65244 0.44444 0.07245 0.0
H754 H 0.63573 0.38353 0.12225 0.0
H755 H 0.65371 0.36929 0.05874 0.0
Eu756 Eu 0.38584 0.34865 0.13375 0.0
C757 C 0.32744 0.4705 0.09147 0.0
N758 N 0.34628 0.46983 0.08962 0.0
C759 C 0.34328 0.47229 0.05796 0.0
C760 C 0.31572 0.47133 0.07645 0.0
C761 C 0.35433 0.47155 0.07324 0.0
C762 C 0.32389 0.47198 0.05956 0.0
C763 C 0.30033 0.46979 0.11079 0.0
C764 C 0.31981 0.46982 0.10847 0.0
C765 C 0.28863 0.47053 0.09585 0.0
C766 C 0.29629 0.4713 0.07873 0.0
Eu767 Eu 0.36368 0.46649 0.11611 0.0
N768 N 0.33149 0.46746 0.1227 0.0
C769 C 0.29318 0.46865 0.12809 0.0
C770 C 0.32462 0.46786 0.13959 0.0
C771 C 0.30539 0.46801 0.14253 0.0
H772 H 0.3693 0.47304 0.072 0.0
H773 H 0.29999 0.46768 0.15595 0.0
H774 H 0.39547 0.36249 0.17674 0.0
H775 H 0.43362 0.32023 0.0778 0.0
H776 H 0.33389 0.46792 0.15082 0.0
H777 H 0.27829 0.46851 0.13043 0.0
H778 H 0.40352 0.31886 0.09319 0.0
H779 H 0.34972 0.47331 0.04497 0.0
H780 H 0.27362 0.47041 0.09738 0.0
H781 H 0.28707 0.47183 0.06734 0.0
H782 H 0.42301 0.37304 0.19606 0.0
H783 H 0.31536 0.47255 0.04769 0.0
H784 H 0.46234 0.33888 0.0944 0.0
N785 N 0.4114 0.3569 0.15313 0.0
C786 C 0.42864 0.35557 0.14568 0.0
C787 C 0.42478 0.3683 0.18191 0.0
C788 C 0.44473 0.36172 0.15615 0.0
C789 C 0.40922 0.36249 0.17098 0.0
C790 C 0.44261 0.36815 0.17447 0.0
N791 N 0.4143 0.34395 0.11763 0.0
C792 C 0.41558 0.33055 0.10032 0.0
C793 C 0.44785 0.3487 0.11932 0.0
C794 C 0.43011 0.34963 0.12741 0.0
C795 C 0.44899 0.33985 0.10111 0.0
C796 C 0.43281 0.32969 0.09167 0.0
H797 H 0.45463 0.37306 0.18296 0.0
H798 H 0.47483 0.36719 0.15583 0.0
H799 H 0.47758 0.35559 0.12361 0.0
O800 O 0.38525 0.2782 0.12467 0.0
O801 O 0.40059 0.41603 0.13877 0.0
O802 O 0.39474 0.45487 0.11321 0.0
O803 O 0.38606 0.29231 0.15266 0.0
O804 O 0.37554 0.35388 0.10499 0.0
O805 O 0.38286 0.42752 0.09814 0.0
O806 O 0.36607 0.53038 0.13065 0.0
O807 O 0.34541 0.40321 0.11443 0.0
O808 O 0.35466 0.35604 0.13727 0.0
O809 O 0.36472 0.53125 0.10204 0.0
O810 O 0.36848 0.46002 0.14583 0.0
O811 O 0.36861 0.38434 0.15484 0.0
C812 C 0.40581 0.44484 0.1265 0.0
C813 C 0.36988 0.22663 0.14345 0.0
C814 C 0.35976 0.14748 0.1423 0.0
C815 C 0.34185 0.16128 0.14768 0.0
C816 C 0.35197 0.23945 0.14891 0.0
C817 C 0.33803 0.20693 0.15097 0.0
C818 C 0.37376 0.18062 0.14022 0.0
C819 C 0.37911 0.38589 0.09325 0.0
C820 C 0.38441 0.26113 0.14057 0.0
C821 C 0.46233 0.36204 0.14803 0.0
C822 C 0.46388 0.35565 0.12966 0.0
C823 C 0.34219 0.37027 0.1258 0.0
C824 C 0.38227 0.58879 0.11586 0.0
C825 C 0.39282 0.66739 0.11854 0.0
C826 C 0.41113 0.6528 0.11498 0.0
C827 C 0.40061 0.57517 0.11232 0.0
C828 C 0.37842 0.63485 0.11897 0.0
C829 C 0.41495 0.60703 0.11193 0.0
C830 C 0.36712 0.42823 0.15812 0.0
C831 C 0.36712 0.55521 0.11636 0.0
H832 H 0.33084 0.13667 0.14961 0.0
H833 H 0.34879 0.2746 0.15159 0.0
H834 H 0.32423 0.21713 0.15517 0.0
H835 H 0.38756 0.1708 0.13582 0.0
H836 H 0.4225 0.67685 0.11426 0.0
H837 H 0.40383 0.53999 0.10975 0.0
H838 H 0.36425 0.64515 0.12188 0.0
H839 H 0.42907 0.59626 0.10915 0.0
Eu840 Eu 0.61856 0.34374 0.36644 0.0
C841 C 0.67819 0.46519 0.40706 0.0
N842 N 0.65935 0.46694 0.40875 0.0
C843 C 0.66217 0.47325 0.44034 0.0
C844 C 0.68981 0.4668 0.42214 0.0
C845 C 0.65123 0.47175 0.425 0.0
C846 C 0.68155 0.47057 0.43892 0.0
C847 C 0.70538 0.45968 0.38798 0.0
C848 C 0.6859 0.46159 0.39018 0.0
C849 C 0.717 0.46104 0.40298 0.0
C850 C 0.70924 0.46456 0.42001 0.0
Eu851 Eu 0.64202 0.46193 0.38224 0.0
N852 N 0.67428 0.45907 0.37591 0.0
C853 C 0.7126 0.45631 0.37077 0.0
C854 C 0.68124 0.45734 0.35907 0.0
C855 C 0.70048 0.45548 0.35626 0.0
H856 H 0.6363 0.47514 0.42606 0.0
H857 H 0.70595 0.45345 0.34289 0.0
H858 H 0.60516 0.35784 0.32437 0.0
H859 H 0.57553 0.30759 0.42513 0.0
H860 H 0.67203 0.45711 0.34779 0.0
H861 H 0.7275 0.45467 0.36852 0.0
H862 H 0.60422 0.30802 0.40743 0.0
H863 H 0.65566 0.47672 0.45324 0.0
H864 H 0.732 0.45942 0.40156 0.0
H865 H 0.71838 0.46563 0.43145 0.0
H866 H 0.57604 0.3691 0.30732 0.0
H867 H 0.69 0.47181 0.45084 0.0
H868 H 0.5456 0.32963 0.41134 0.0
N869 N 0.59137 0.35297 0.3492 0.0
C870 C 0.57485 0.35226 0.35801 0.0
C871 C 0.57551 0.3645 0.32157 0.0
C872 C 0.55791 0.35859 0.34885 0.0
C873 C 0.59196 0.35821 0.33121 0.0
C874 C 0.55842 0.36497 0.33043 0.0
N875 N 0.59151 0.33757 0.38459 0.0
C876 C 0.59163 0.32107 0.40155 0.0
C877 C 0.55796 0.34311 0.38565 0.0
C878 C 0.57496 0.34508 0.37625 0.0
C879 C 0.55834 0.33152 0.40365 0.0
C880 C 0.57521 0.31933 0.41151 0.0
H881 H 0.5457 0.37009 0.32294 0.0
H882 H 0.52794 0.36401 0.35156 0.0
H883 H 0.52796 0.35022 0.38376 0.0
O884 O 0.62224 0.27338 0.37502 0.0
O885 O 0.60457 0.41171 0.36057 0.0
O886 O 0.6108 0.45326 0.3854 0.0
O887 O 0.61653 0.2876 0.34755 0.0
O888 O 0.62921 0.35154 0.39501 0.0
O889 O 0.62243 0.42601 0.40084 0.0
O890 O 0.63975 0.52424 0.36664 0.0
O891 O 0.65942 0.39726 0.38462 0.0
O892 O 0.64965 0.34993 0.36213 0.0
O893 O 0.64107 0.5282 0.39522 0.0
O894 O 0.63746 0.45343 0.35255 0.0
O895 O 0.63488 0.37741 0.3442 0.0
C896 C 0.5995 0.44162 0.3725 0.0
C897 C 0.60514 0.21847 0.35922 0.0
C898 C 0.59884 0.13715 0.36135 0.0
C899 C 0.5797 0.14632 0.35949 0.0
C900 C 0.586 0.22671 0.35737 0.0
C901 C 0.57337 0.19079 0.35751 0.0
C902 C 0.61152 0.17367 0.36118 0.0
C903 C 0.62555 0.3845 0.40631 0.0
C904 C 0.61857 0.25623 0.35952 0.0
C905 C 0.54107 0.35863 0.35833 0.0
C906 C 0.5411 0.35102 0.37669 0.0
C907 C 0.66228 0.36353 0.37353 0.0
C908 C 0.65375 0.5894 0.37905 0.0
C909 C 0.6591 0.67087 0.37567 0.0
C910 C 0.67841 0.66284 0.37652 0.0
C911 C 0.67304 0.58234 0.37979 0.0
C912 C 0.64681 0.63368 0.377 0.0
C913 C 0.68528 0.61888 0.37854 0.0
C914 C 0.63752 0.42081 0.34054 0.0
C915 C 0.64076 0.55092 0.38041 0.0
H916 H 0.56961 0.11903 0.35931 0.0
H917 H 0.58079 0.2608 0.3558 0.0
H918 H 0.55862 0.19744 0.35603 0.0
H919 H 0.6263 0.16737 0.36282 0.0
H920 H 0.68825 0.69062 0.37586 0.0
H921 H 0.67866 0.54871 0.38136 0.0
H922 H 0.63189 0.63902 0.37623 0.0
H923 H 0.70016 0.61312 0.37921 0.0
Eu924 Eu 0.38565 0.66648 0.36349 0.0
C925 C 0.32545 0.54968 0.40398 0.0
N926 N 0.34418 0.54875 0.40669 0.0
C927 C 0.33954 0.5485 0.43819 0.0
C928 C 0.31298 0.55077 0.41843 0.0
C929 C 0.35136 0.5474 0.42344 0.0
C930 C 0.32027 0.5504 0.43568 0.0
C931 C 0.29939 0.55107 0.3834 0.0
C932 C 0.31872 0.54989 0.38664 0.0
C933 C 0.28694 0.55243 0.39778 0.0
C934 C 0.29371 0.55229 0.41523 0.0
Eu935 Eu 0.36302 0.54902 0.38107 0.0
N936 N 0.33115 0.54971 0.37296 0.0
C937 C 0.29314 0.5509 0.3658 0.0
C938 C 0.32512 0.54775 0.3558 0.0
C939 C 0.30606 0.54883 0.35196 0.0
H940 H 0.36621 0.54476 0.4254 0.0
H941 H 0.30134 0.54787 0.33831 0.0
H942 H 0.39643 0.64981 0.3209 0.0
H943 H 0.43185 0.70487 0.41966 0.0
H944 H 0.33487 0.54513 0.34503 0.0
H945 H 0.27839 0.55186 0.36275 0.0
H946 H 0.40212 0.70275 0.40361 0.0
H947 H 0.3453 0.54769 0.45147 0.0
H948 H 0.27203 0.55354 0.39554 0.0
H949 H 0.28392 0.55328 0.42618 0.0
H950 H 0.42453 0.6385 0.30236 0.0
H951 H 0.31115 0.55125 0.44714 0.0
H952 H 0.46107 0.68449 0.40421 0.0
N953 N 0.41173 0.65725 0.34482 0.0
C954 C 0.42877 0.65936 0.35266 0.0
C955 C 0.4259 0.64421 0.31649 0.0
C956 C 0.44515 0.65303 0.34263 0.0
C957 C 0.41004 0.65048 0.32698 0.0
C958 C 0.44353 0.64524 0.32436 0.0
N959 N 0.41367 0.67417 0.38008 0.0
C960 C 0.41444 0.69045 0.39704 0.0
C961 C 0.44727 0.67023 0.37927 0.0
C962 C 0.42974 0.66739 0.37083 0.0
C963 C 0.4479 0.68196 0.39724 0.0
C964 C 0.43144 0.69317 0.40605 0.0
H965 H 0.45579 0.64011 0.31621 0.0
H966 H 0.47527 0.64884 0.34371 0.0
H967 H 0.47714 0.66412 0.37575 0.0
O968 O 0.38186 0.73692 0.37191 0.0
O969 O 0.40047 0.59904 0.35888 0.0
O970 O 0.39427 0.55849 0.38405 0.0
O971 O 0.38665 0.72216 0.34432 0.0
O972 O 0.37591 0.66074 0.39241 0.0
O973 O 0.38233 0.5865 0.39949 0.0
O974 O 0.36491 0.48362 0.36748 0.0
O975 O 0.34579 0.61405 0.38318 0.0
O976 O 0.3546 0.65819 0.35945 0.0
O977 O 0.36453 0.48567 0.3961 0.0
O978 O 0.36891 0.5544 0.35147 0.0
O979 O 0.36862 0.63002 0.34246 0.0
C980 C 0.40566 0.57042 0.37125 0.0
C981 C 0.39813 0.79196 0.35532 0.0
C982 C 0.40432 0.87335 0.35774 0.0
C983 C 0.42327 0.86474 0.35429 0.0
C984 C 0.41708 0.78436 0.35191 0.0
C985 C 0.42955 0.82057 0.3514 0.0
C986 C 0.39179 0.83651 0.35821 0.0
C987 C 0.37968 0.62886 0.40417 0.0
C988 C 0.38491 0.75378 0.35622 0.0
C989 C 0.46254 0.65418 0.35115 0.0
C990 C 0.4636 0.66266 0.36942 0.0
C991 C 0.3423 0.64569 0.37134 0.0
C992 C 0.35151 0.42105 0.38234 0.0
C993 C 0.34602 0.33951 0.3793 0.0
C994 C 0.32699 0.34703 0.38269 0.0
C995 C 0.33249 0.42754 0.38569 0.0
C996 C 0.35825 0.37697 0.37917 0.0
C997 C 0.32032 0.39074 0.38585 0.0
C998 C 0.36755 0.58609 0.33914 0.0
C999 C 0.36441 0.45991 0.38208 0.0
H1000 H 0.43322 0.89226 0.35355 0.0
H1001 H 0.42226 0.75053 0.34957 0.0
H1002 H 0.44414 0.8144 0.3487 0.0
H1003 H 0.37718 0.84232 0.36105 0.0
H1004 H 0.31725 0.31902 0.38319 0.0
H1005 H 0.32705 0.46095 0.38825 0.0
H1006 H 0.37294 0.37201 0.37644 0.0
H1007 H 0.30566 0.39608 0.38852 0.0
Eu1008 Eu 0.3634 0.47179 0.88216 0.0
C1009 C 0.43016 0.3615 0.85756 0.0
N1010 N 0.41393 0.36357 0.84831 0.0
C1011 C 0.43071 0.37673 0.82128 0.0
C1012 C 0.44742 0.36804 0.84897 0.0
C1013 C 0.41394 0.3702 0.83038 0.0
C1014 C 0.44752 0.37597 0.83063 0.0
C1015 C 0.44615 0.34875 0.88546 0.0
C1016 C 0.42946 0.35242 0.87564 0.0
C1017 C 0.46332 0.35709 0.87712 0.0
C1018 C 0.46395 0.36661 0.85891 0.0
Eu1019 Eu 0.38616 0.3538 0.86463 0.0
N1020 N 0.41263 0.34444 0.88337 0.0
C1021 C 0.44517 0.33491 0.90319 0.0
C1022 C 0.41194 0.32554 0.89993 0.0
C1023 C 0.42802 0.32209 0.91031 0.0
H1024 H 0.40096 0.37081 0.82318 0.0
H1025 H 0.42724 0.30857 0.92365 0.0
H1026 H 0.37052 0.48119 0.92597 0.0
H1027 H 0.29832 0.46901 0.84447 0.0
H1028 H 0.39911 0.31205 0.90516 0.0
H1029 H 0.45765 0.33166 0.91119 0.0
H1030 H 0.33242 0.47067 0.84852 0.0
H1031 H 0.43066 0.38248 0.80709 0.0
H1032 H 0.47623 0.35503 0.88453 0.0
H1033 H 0.47732 0.37218 0.85259 0.0
H1034 H 0.35196 0.48154 0.95365 0.0
H1035 H 0.46049 0.38129 0.82357 0.0
H1036 H 0.27753 0.4692 0.87067 0.0
N1037 N 0.3469 0.47543 0.90918 0.0
C1038 C 0.328 0.47449 0.90799 0.0
C1039 C 0.34505 0.47937 0.9409 0.0
C1040 C 0.31684 0.47541 0.92339 0.0
C1041 C 0.35553 0.47864 0.92526 0.0
C1042 C 0.32562 0.47756 0.93998 0.0
N1043 N 0.33096 0.47072 0.8767 0.0
C1044 C 0.32351 0.47059 0.86004 0.0
C1045 C 0.30023 0.47166 0.88959 0.0
C1046 C 0.31977 0.47255 0.89129 0.0
C1047 C 0.29249 0.47 0.87254 0.0
C1048 C 0.30419 0.46979 0.85771 0.0
H1049 H 0.31754 0.47822 0.95212 0.0
H1050 H 0.28855 0.47473 0.93344 0.0
H1051 H 0.27402 0.47149 0.90387 0.0
O1052 O 0.36611 0.53492 0.8671 0.0
O1053 O 0.34542 0.40798 0.88339 0.0
O1054 O 0.35506 0.36136 0.86056 0.0
O1055 O 0.36484 0.53724 0.8957 0.0
O1056 O 0.36709 0.46522 0.85229 0.0
O1057 O 0.37047 0.39021 0.84266 0.0
O1058 O 0.38202 0.28265 0.87195 0.0
O1059 O 0.40035 0.42186 0.85948 0.0
O1060 O 0.39454 0.46125 0.88493 0.0
O1061 O 0.38796 0.29975 0.8448 0.0
O1062 O 0.37518 0.35977 0.8931 0.0
O1063 O 0.38284 0.43304 0.90002 0.0
C1064 C 0.34252 0.37468 0.87211 0.0
C1065 C 0.35239 0.59975 0.88012 0.0
C1066 C 0.34717 0.68124 0.87642 0.0
C1067 C 0.32791 0.67377 0.87837 0.0
C1068 C 0.33315 0.59332 0.88196 0.0
C1069 C 0.321 0.63013 0.88109 0.0
C1070 C 0.35938 0.64376 0.87736 0.0
C1071 C 0.36736 0.43384 0.83977 0.0
C1072 C 0.36524 0.56084 0.8811 0.0
C1073 C 0.29735 0.47417 0.92175 0.0
C1074 C 0.28907 0.47233 0.90491 0.0
C1075 C 0.40562 0.45071 0.87172 0.0
C1076 C 0.39917 0.22923 0.85543 0.0
C1077 C 0.40559 0.14793 0.85773 0.0
C1078 C 0.42461 0.15698 0.85489 0.0
C1079 C 0.4182 0.23731 0.85261 0.0
C1080 C 0.39291 0.18449 0.85795 0.0
C1081 C 0.43082 0.20134 0.85234 0.0
C1082 C 0.3791 0.39137 0.90488 0.0
C1083 C 0.38579 0.26713 0.85622 0.0
H1084 H 0.31816 0.70178 0.87805 0.0
H1085 H 0.32749 0.55997 0.88414 0.0
H1086 H 0.30616 0.62483 0.88263 0.0
H1087 H 0.37425 0.64866 0.87577 0.0
H1088 H 0.43468 0.12966 0.85438 0.0
H1089 H 0.42333 0.27131 0.85059 0.0
H1090 H 0.37824 0.1783 0.86034 0.0
H1091 H 0.44547 0.20787 0.85011 0.0
Eu1092 Eu 0.64192 0.55722 0.88229 0.0
C1093 C 0.57463 0.66684 0.85828 0.0
N1094 N 0.59097 0.66607 0.84919 0.0
C1095 C 0.57461 0.65402 0.82187 0.0
C1096 C 0.55752 0.66018 0.84944 0.0
C1097 C 0.59122 0.66059 0.83121 0.0
C1098 C 0.55769 0.6535 0.83103 0.0
C1099 C 0.55824 0.67672 0.88614 0.0
C1100 C 0.57506 0.67453 0.87646 0.0
C1101 C 0.54123 0.66828 0.87753 0.0
C1102 C 0.54087 0.66012 0.85922 0.0
Eu1103 Eu 0.61851 0.67535 0.86594 0.0
N1104 N 0.59176 0.68248 0.88447 0.0
C1105 C 0.55894 0.68913 0.90405 0.0
C1106 C 0.59215 0.69996 0.90127 0.0
C1107 C 0.57592 0.70198 0.9115 0.0
H1108 H 0.6043 0.6609 0.82414 0.0
H1109 H 0.57647 0.7144 0.92501 0.0
H1110 H 0.63551 0.54479 0.92607 0.0
H1111 H 0.70645 0.56455 0.84384 0.0
H1112 H 0.60483 0.71341 0.90682 0.0
H1113 H 0.54635 0.69122 0.91194 0.0
H1114 H 0.67245 0.56098 0.84827 0.0
H1115 H 0.57487 0.6492 0.80762 0.0
H1116 H 0.52823 0.66914 0.88483 0.0
H1117 H 0.52762 0.65434 0.85271 0.0
H1118 H 0.65443 0.54415 0.95354 0.0
H1119 H 0.54484 0.64813 0.82378 0.0
H1120 H 0.72759 0.56427 0.86979 0.0
N1121 N 0.65882 0.55286 0.90907 0.0
C1122 C 0.67769 0.55473 0.90766 0.0
C1123 C 0.66114 0.54734 0.94073 0.0
C1124 C 0.68906 0.55362 0.92291 0.0
C1125 C 0.65045 0.54832 0.92522 0.0
C1126 C 0.68053 0.55022 0.93959 0.0
N1127 N 0.67427 0.55981 0.87643 0.0
C1128 C 0.68149 0.56102 0.85969 0.0
C1129 C 0.70518 0.55978 0.88895 0.0
C1130 C 0.68567 0.55783 0.89087 0.0
C1131 C 0.71267 0.56262 0.87182 0.0
C1132 C 0.70077 0.56289 0.85713 0.0
H1133 H 0.68879 0.54937 0.95163 0.0
H1134 H 0.71748 0.55524 0.93263 0.0
H1135 H 0.73157 0.56063 0.90292 0.0
O1136 O 0.63964 0.49469 0.86685 0.0
O1137 O 0.65932 0.62191 0.88424 0.0
O1138 O 0.64955 0.66858 0.8615 0.0
O1139 O 0.64092 0.49114 0.89544 0.0
O1140 O 0.63788 0.56524 0.85253 0.0
O1141 O 0.63437 0.64075 0.84359 0.0
O1142 O 0.62264 0.74588 0.87407 0.0
O1143 O 0.60461 0.60731 0.86012 0.0
O1144 O 0.61068 0.56621 0.88513 0.0
O1145 O 0.61633 0.73097 0.8468 0.0
O1146 O 0.62925 0.66785 0.89451 0.0
O1147 O 0.62214 0.59371 0.9005 0.0
C1148 C 0.66222 0.65505 0.87288 0.0
C1149 C 0.65362 0.42967 0.87946 0.0
C1150 C 0.65901 0.34819 0.87607 0.0
C1151 C 0.67831 0.35616 0.87721 0.0
C1152 C 0.6729 0.43665 0.88049 0.0
C1153 C 0.68515 0.40008 0.87938 0.0
C1154 C 0.64671 0.38541 0.87726 0.0
C1155 C 0.63752 0.59732 0.84029 0.0
C1156 C 0.64063 0.4682 0.88069 0.0
C1157 C 0.70852 0.55592 0.92105 0.0
C1158 C 0.71655 0.55897 0.90413 0.0
C1159 C 0.59951 0.57748 0.87207 0.0
C1160 C 0.60529 0.80057 0.85836 0.0
C1161 C 0.59907 0.88192 0.86072 0.0
C1162 C 0.57992 0.87293 0.85882 0.0
C1163 C 0.58613 0.79252 0.8565 0.0
C1164 C 0.61171 0.84529 0.86044 0.0
C1165 C 0.57355 0.82854 0.85672 0.0
C1166 C 0.6254 0.63518 0.90588 0.0
C1167 C 0.61867 0.76266 0.85857 0.0
H1168 H 0.68815 0.32836 0.87667 0.0
H1169 H 0.6785 0.47025 0.8822 0.0
H1170 H 0.70002 0.40578 0.88028 0.0
H1171 H 0.6318 0.38012 0.87628 0.0
H1172 H 0.56985 0.90029 0.85871 0.0
H1173 H 0.58089 0.7585 0.85485 0.0
H1174 H 0.6265 0.85142 0.86211 0.0
H1175 H 0.55879 0.82205 0.85522 0.0
Eu1176 Eu 0.3651 0.5536 0.62055 0.0
C1177 C 0.42519 0.67535 0.65153 0.0
N1178 N 0.40689 0.67503 0.6562 0.0
C1179 C 0.41539 0.6705 0.68696 0.0
C1180 C 0.43932 0.6708 0.66443 0.0
C1181 C 0.40192 0.67566 0.6737 0.0
C1182 C 0.43416 0.66708 0.68229 0.0
C1183 C 0.44865 0.68663 0.62874 0.0
C1184 C 0.42984 0.68322 0.63394 0.0
C1185 C 0.46276 0.67972 0.64138 0.0
C1186 C 0.45811 0.67173 0.65918 0.0
Eu1187 Eu 0.38521 0.6788 0.63242 0.0
N1188 N 0.41591 0.68852 0.62193 0.0
C1189 C 0.45268 0.69741 0.61103 0.0
C1190 C 0.41965 0.70134 0.60488 0.0
C1191 C 0.4381 0.70545 0.59911 0.0
H1192 H 0.38758 0.68058 0.67753 0.0
H1193 H 0.44107 0.71458 0.58549 0.0
H1194 H 0.34474 0.5702 0.58129 0.0
H1195 H 0.33423 0.48665 0.68167 0.0
H1196 H 0.40835 0.70728 0.59568 0.0
H1197 H 0.46695 0.70033 0.60651 0.0
H1198 H 0.35951 0.50139 0.66024 0.0
H1199 H 0.4113 0.66977 0.7008 0.0
H1200 H 0.47731 0.68143 0.63759 0.0
H1201 H 0.46914 0.66765 0.66887 0.0
H1202 H 0.31283 0.57761 0.56891 0.0
H1203 H 0.44458 0.66351 0.69261 0.0
H1204 H 0.30157 0.50379 0.67348 0.0
N1205 N 0.33524 0.55861 0.6076 0.0
C1206 C 0.32046 0.55126 0.61845 0.0
C1207 C 0.31479 0.57048 0.58289 0.0
C1208 C 0.30208 0.55545 0.61208 0.0
C1209 C 0.33277 0.56622 0.58987 0.0
C1210 C 0.29938 0.56578 0.5941 0.0
N1211 N 0.34174 0.53199 0.64114 0.0
C1212 C 0.34548 0.51133 0.65695 0.0
C1213 C 0.30881 0.52873 0.64732 0.0
C1214 C 0.32382 0.53828 0.63584 0.0
C1215 C 0.3127 0.51155 0.66425 0.0
C1216 C 0.33111 0.50193 0.66894 0.0
H1217 H 0.28547 0.56927 0.58868 0.0
H1218 H 0.27285 0.5519 0.61915 0.0
H1219 H 0.27873 0.52836 0.65002 0.0
O1220 O 0.36206 0.47887 0.62063 0.0
O1221 O 0.34794 0.61814 0.61643 0.0
O1222 O 0.35584 0.66054 0.64048 0.0
O1223 O 0.3764 0.51329 0.59889 0.0
O1224 O 0.37793 0.56387 0.64789 0.0
O1225 O 0.37138 0.63848 0.65486 0.0
O1226 O 0.37385 0.73986 0.61993 0.0
O1227 O 0.40303 0.62512 0.61883 0.0
O1228 O 0.3943 0.55883 0.63203 0.0
O1229 O 0.38908 0.74561 0.64441 0.0
O1230 O 0.37527 0.66971 0.60381 0.0
O1231 O 0.37763 0.59245 0.5975 0.0
C1232 C 0.34343 0.64726 0.62887 0.0
C1233 C 0.37454 0.43126 0.59656 0.0
C1234 C 0.37607 0.34831 0.59645 0.0
C1235 C 0.38383 0.34986 0.57934 0.0
C1236 C 0.38223 0.43165 0.57939 0.0
C1237 C 0.38676 0.39122 0.57086 0.0
C1238 C 0.3712 0.38924 0.60499 0.0
C1239 C 0.37454 0.59604 0.65958 0.0
C1240 C 0.37094 0.47493 0.60565 0.0
C1241 C 0.28709 0.54831 0.62373 0.0
C1242 C 0.29044 0.535 0.64132 0.0
C1243 C 0.4073 0.58572 0.62577 0.0
C1244 C 0.36528 0.79901 0.63935 0.0
C1245 C 0.35383 0.87695 0.64225 0.0
C1246 C 0.33911 0.86058 0.65285 0.0
C1247 C 0.3505 0.78364 0.6499 0.0
C1248 C 0.36686 0.8455 0.63547 0.0
C1249 C 0.33746 0.81431 0.65654 0.0
C1250 C 0.37689 0.6354 0.59261 0.0
C1251 C 0.37925 0.76691 0.63255 0.0
H1252 H 0.38754 0.31889 0.57246 0.0
H1253 H 0.3849 0.4633 0.57255 0.0
H1254 H 0.3927 0.39197 0.55765 0.0
H1255 H 0.3654 0.38835 0.61827 0.0
H1256 H 0.32902 0.88354 0.6586 0.0
H1257 H 0.34917 0.74801 0.6531 0.0
H1258 H 0.37819 0.85694 0.62708 0.0
H1259 H 0.32611 0.80224 0.66475 0.0
Eu1260 Eu 0.64388 0.46398 0.61842 0.0
C1261 C 0.58088 0.34833 0.65592 0.0
N1262 N 0.59912 0.3512 0.66065 0.0
C1263 C 0.59061 0.35763 0.6913 0.0
C1264 C 0.56669 0.35079 0.66884 0.0
C1265 C 0.60418 0.3551 0.67802 0.0
C1266 C 0.57178 0.35567 0.68669 0.0
C1267 C 0.5576 0.34058 0.63276 0.0
C1268 C 0.57642 0.34346 0.63805 0.0
C1269 C 0.54343 0.34355 0.64557 0.0
C1270 C 0.54796 0.34861 0.66355 0.0
Eu1271 Eu 0.62115 0.34756 0.6375 0.0
N1272 N 0.59046 0.34155 0.62587 0.0
C1273 C 0.55356 0.33428 0.61477 0.0
C1274 C 0.58655 0.3323 0.60851 0.0
C1275 C 0.56811 0.32945 0.60264 0.0
H1276 H 0.61871 0.35555 0.68165 0.0
H1277 H 0.56513 0.32282 0.5888 0.0
H1278 H 0.65373 0.43623 0.57637 0.0
H1279 H 0.69119 0.50721 0.67319 0.0
H1280 H 0.59746 0.32568 0.5991 0.0
H1281 H 0.53928 0.3319 0.61018 0.0
H1282 H 0.66115 0.50392 0.65775 0.0
H1283 H 0.59468 0.36091 0.70508 0.0
H1284 H 0.5289 0.34167 0.64172 0.0
H1285 H 0.53687 0.35069 0.67327 0.0
H1286 H 0.68147 0.41925 0.55799 0.0
H1287 H 0.56129 0.35772 0.697 0.0
H1288 H 0.71996 0.48351 0.65773 0.0
N1289 N 0.66943 0.44771 0.59982 0.0
C1290 C 0.68662 0.45135 0.60735 0.0
C1291 C 0.68309 0.42799 0.57186 0.0
C1292 C 0.70278 0.44168 0.5974 0.0
C1293 C 0.66743 0.43737 0.58226 0.0
C1294 C 0.70083 0.42983 0.57949 0.0
N1295 N 0.67208 0.47211 0.6346 0.0
C1296 C 0.67326 0.49036 0.65122 0.0
C1297 C 0.70561 0.46609 0.63338 0.0
C1298 C 0.68793 0.46295 0.62526 0.0
C1299 C 0.70665 0.4806 0.65103 0.0
C1300 C 0.69044 0.49368 0.65986 0.0
H1301 H 0.71292 0.42214 0.57142 0.0
H1302 H 0.73285 0.43582 0.59827 0.0
H1303 H 0.73535 0.45754 0.62969 0.0
O1304 O 0.6448 0.53855 0.6233 0.0
O1305 O 0.65835 0.39539 0.61499 0.0
O1306 O 0.65205 0.35943 0.64103 0.0
O1307 O 0.64388 0.51104 0.5964 0.0
O1308 O 0.63426 0.46374 0.64719 0.0
O1309 O 0.63875 0.38966 0.65651 0.0
O1310 O 0.62332 0.27813 0.62716 0.0
O1311 O 0.6038 0.41186 0.64039 0.0
O1312 O 0.61214 0.46051 0.61759 0.0
O1313 O 0.6243 0.28971 0.65537 0.0
O1314 O 0.62806 0.35159 0.60775 0.0
O1315 O 0.62364 0.42707 0.60085 0.0
C1316 C 0.66338 0.36816 0.62788 0.0
C1317 C 0.64633 0.5924 0.59805 0.0
C1318 C 0.64425 0.67509 0.59925 0.0
C1319 C 0.65069 0.67737 0.58168 0.0
C1320 C 0.65267 0.59573 0.58042 0.0
C1321 C 0.65481 0.6379 0.57233 0.0
C1322 C 0.64203 0.63245 0.60748 0.0
C1323 C 0.63658 0.4333 0.65986 0.0
C1324 C 0.6449 0.54695 0.6063 0.0
C1325 C 0.72029 0.44354 0.60566 0.0
C1326 C 0.7217 0.4557 0.62358 0.0
C1327 C 0.59993 0.44449 0.62908 0.0
C1328 C 0.61083 0.2207 0.64576 0.0
C1329 C 0.60394 0.13946 0.64345 0.0
C1330 C 0.58678 0.14734 0.65197 0.0
C1331 C 0.59362 0.2273 0.65421 0.0
C1332 C 0.61597 0.17661 0.6404 0.0
C1333 C 0.58169 0.1909 0.65724 0.0
C1334 C 0.62488 0.38438 0.59617 0.0
C1335 C 0.62356 0.25943 0.64284 0.0
H1336 H 0.65243 0.70986 0.57516 0.0
H1337 H 0.65619 0.56565 0.57288 0.0
H1338 H 0.65974 0.64001 0.55877 0.0
H1339 H 0.63712 0.63055 0.62106 0.0
H1340 H 0.57736 0.11965 0.65487 0.0
H1341 H 0.58945 0.26044 0.65871 0.0
H1342 H 0.62922 0.17139 0.63381 0.0
H1343 H 0.56851 0.1964 0.66387 0.0
C1344 C 0.19094 0.17598 0.11113 0.0
C1345 C 0.18259 0.16511 0.12743 0.0
C1346 C 0.20822 0.19801 0.11064 0.0
C1347 C 0.23993 0.26676 0.13921 0.0
H1348 H 0.27585 0.24243 0.10196 0.0
C1349 C 0.31634 0.32952 0.14146 0.0
C1350 C 0.32353 0.34885 0.12585 0.0
C1351 C 0.29894 0.30822 0.14142 0.0
C1352 C 0.26588 0.24983 0.11236 0.0
H1353 H 0.18608 0.16658 0.15597 0.0
H1354 H 0.21636 0.20385 0.15522 0.0
H1355 H 0.24637 0.20116 0.10244 0.0
H1356 H 0.31791 0.36203 0.09803 0.0
H1357 H 0.28752 0.32431 0.09793 0.0
H1358 H 0.25975 0.31455 0.14936 0.0
C1359 C 0.2094 0.19692 0.14276 0.0
C1360 C 0.24893 0.22628 0.11263 0.0
C1361 C 0.19208 0.1753 0.14322 0.0
C1362 C 0.31278 0.34719 0.11025 0.0
C1363 C 0.29545 0.3254 0.11016 0.0
C1364 C 0.25696 0.28982 0.13907 0.0
C1365 C 0.21761 0.20926 0.12647 0.0
C1366 C 0.23571 0.23434 0.12608 0.0
C1367 C 0.28837 0.30551 0.12574 0.0
C1368 C 0.27013 0.28161 0.12566 0.0
H1369 H 0.18391 0.16845 0.09875 0.0
H1370 H 0.21395 0.20721 0.09785 0.0
H1371 H 0.22999 0.2748 0.14955 0.0
H1372 H 0.32413 0.33108 0.15376 0.0
H1373 H 0.29387 0.29314 0.15362 0.0
C1374 C 0.81485 0.83375 0.14239 0.0
C1375 C 0.82345 0.84736 0.12652 0.0
C1376 C 0.79743 0.8126 0.14212 0.0
C1377 C 0.75585 0.79197 0.1136 0.0
H1378 H 0.74725 0.69389 0.14693 0.0
C1379 C 0.69083 0.67514 0.11053 0.0
C1380 C 0.6817 0.66735 0.12675 0.0
C1381 C 0.70822 0.69657 0.11013 0.0
C1382 C 0.7494 0.7214 0.13762 0.0
H1383 H 0.82036 0.85075 0.09795 0.0
H1384 H 0.79004 0.81322 0.09738 0.0
H1385 H 0.77717 0.73291 0.14683 0.0
H1386 H 0.68367 0.6755 0.15528 0.0
H1387 H 0.71408 0.71277 0.15461 0.0
H1388 H 0.72809 0.77967 0.10423 0.0
C1389 C 0.79663 0.81918 0.1101 0.0
C1390 C 0.76653 0.74398 0.1376 0.0
C1391 C 0.81404 0.84056 0.11039 0.0
C1392 C 0.69035 0.6812 0.14257 0.0
C1393 C 0.70782 0.70221 0.14219 0.0
C1394 C 0.73876 0.76905 0.11351 0.0
C1395 C 0.78818 0.80438 0.12596 0.0
C1396 C 0.76996 0.77986 0.1257 0.0
C1397 C 0.71692 0.71037 0.12596 0.0
C1398 C 0.73529 0.73373 0.12561 0.0
H1399 H 0.82164 0.83931 0.15505 0.0
H1400 H 0.7912 0.80278 0.15464 0.0
H1401 H 0.75784 0.81977 0.1044 0.0
H1402 H 0.6844 0.66519 0.09812 0.0
H1403 H 0.71494 0.70205 0.09743 0.0
C1404 C 0.31653 0.68681 0.35562 0.0
C1405 C 0.32365 0.66729 0.37124 0.0
C1406 C 0.29894 0.70733 0.35554 0.0
C1407 C 0.26593 0.76617 0.38398 0.0
H1408 H 0.22892 0.73511 0.34853 0.0
C1409 C 0.19111 0.83876 0.38696 0.0
C1410 C 0.18163 0.84667 0.37097 0.0
C1411 C 0.20839 0.81678 0.38699 0.0
C1412 C 0.23917 0.74492 0.35835 0.0
H1413 H 0.3179 0.65393 0.39902 0.0
H1414 H 0.28734 0.69079 0.39895 0.0
H1415 H 0.25906 0.69684 0.34844 0.0
H1416 H 0.18293 0.83927 0.34243 0.0
H1417 H 0.21337 0.80239 0.3423 0.0
H1418 H 0.24654 0.8154 0.39356 0.0
C1419 C 0.29535 0.6899 0.38676 0.0
C1420 C 0.2564 0.72265 0.35834 0.0
C1421 C 0.3128 0.66866 0.38677 0.0
C1422 C 0.18989 0.83305 0.35496 0.0
C1423 C 0.2073 0.81162 0.35494 0.0
C1424 C 0.24885 0.78907 0.3838 0.0
C1425 C 0.28826 0.70951 0.37115 0.0
C1426 C 0.26992 0.73292 0.3712 0.0
C1427 C 0.21676 0.80274 0.37098 0.0
C1428 C 0.23514 0.7787 0.37103 0.0
H1429 H 0.3245 0.68596 0.34341 0.0
H1430 H 0.29383 0.72231 0.34333 0.0
H1431 H 0.27621 0.77514 0.39391 0.0
H1432 H 0.18497 0.84865 0.39952 0.0
H1433 H 0.21497 0.81003 0.39966 0.0
C1434 C 0.81604 0.18048 0.38921 0.0
C1435 C 0.82465 0.17049 0.37293 0.0
C1436 C 0.79831 0.20031 0.38963 0.0
C1437 C 0.75526 0.21374 0.36422 0.0
H1438 H 0.74822 0.32416 0.3913 0.0
C1439 C 0.68727 0.31798 0.35854 0.0
C1440 C 0.68076 0.34103 0.37363 0.0
C1441 C 0.70479 0.2971 0.35861 0.0
C1442 C 0.74975 0.29293 0.3839 0.0
H1443 H 0.82135 0.17218 0.34435 0.0
H1444 H 0.79021 0.20606 0.34507 0.0
H1445 H 0.77839 0.28619 0.39164 0.0
H1446 H 0.68745 0.35982 0.4007 0.0
H1447 H 0.71762 0.32223 0.40109 0.0
H1448 H 0.7266 0.21931 0.35684 0.0
C1449 C 0.79724 0.19897 0.35749 0.0
C1450 C 0.76712 0.27131 0.38406 0.0
C1451 C 0.81509 0.17994 0.35708 0.0
C1452 C 0.69213 0.34261 0.38881 0.0
C1453 C 0.70953 0.32121 0.38897 0.0
C1454 C 0.73779 0.23488 0.3643 0.0
C1455 C 0.78874 0.20979 0.37376 0.0
C1456 C 0.77009 0.2317 0.37412 0.0
C1457 C 0.71617 0.29808 0.37387 0.0
C1458 C 0.73478 0.27504 0.37403 0.0
H1459 H 0.82311 0.17348 0.40163 0.0
H1460 H 0.79202 0.20796 0.40235 0.0
H1461 H 0.75712 0.18297 0.35658 0.0
H1462 H 0.67894 0.31663 0.34656 0.0
H1463 H 0.70948 0.28067 0.34656 0.0
C1464 C 0.68762 0.69744 0.85719 0.0
C1465 C 0.68074 0.67717 0.87273 0.0
C1466 C 0.70518 0.71806 0.85704 0.0
C1467 C 0.74932 0.72799 0.88363 0.0
H1468 H 0.75766 0.83123 0.85273 0.0
C1469 C 0.81326 0.84856 0.8884 0.0
C1470 C 0.82368 0.85187 0.87264 0.0
C1471 C 0.79578 0.82752 0.8884 0.0
C1472 C 0.7555 0.80235 0.86138 0.0
H1473 H 0.68679 0.66283 0.90035 0.0
H1474 H 0.7169 0.70052 0.90042 0.0
H1475 H 0.72727 0.79433 0.85301 0.0
H1476 H 0.82373 0.8371 0.84445 0.0
H1477 H 0.79288 0.80141 0.8444 0.0
H1478 H 0.77747 0.73779 0.89248 0.0
C1479 C 0.70916 0.69938 0.8881 0.0
C1480 C 0.73812 0.78081 0.86147 0.0
C1481 C 0.69176 0.67799 0.88813 0.0
C1482 C 0.81609 0.83463 0.85682 0.0
C1483 C 0.79843 0.81449 0.85676 0.0
C1484 C 0.76655 0.75022 0.88382 0.0
C1485 C 0.71618 0.71981 0.87254 0.0
C1486 C 0.73476 0.74306 0.87253 0.0
C1487 C 0.78822 0.8103 0.87259 0.0
C1488 C 0.76982 0.78742 0.87263 0.0
H1489 H 0.67955 0.69674 0.84504 0.0
H1490 H 0.71016 0.73219 0.84466 0.0
H1491 H 0.74759 0.69857 0.89206 0.0
H1492 H 0.81874 0.8616 0.90078 0.0
H1493 H 0.78811 0.82497 0.90075 0.0
C1494 C 0.31746 0.32892 0.85731 0.0
C1495 C 0.32413 0.35185 0.87237 0.0
C1496 C 0.30005 0.30755 0.85761 0.0
C1497 C 0.26628 0.25459 0.88734 0.0
H1498 H 0.23047 0.27758 0.84988 0.0
C1499 C 0.19067 0.18548 0.89037 0.0
C1500 C 0.18187 0.1743 0.87433 0.0
C1501 C 0.20823 0.2062 0.89033 0.0
C1502 C 0.24038 0.26999 0.8603 0.0
H1503 H 0.31781 0.36998 0.89964 0.0
H1504 H 0.28756 0.33193 0.90022 0.0
H1505 H 0.26065 0.31533 0.84923 0.0
H1506 H 0.18478 0.17377 0.84573 0.0
H1507 H 0.21558 0.20832 0.84557 0.0
H1508 H 0.24638 0.20822 0.89818 0.0
C1509 C 0.29578 0.33075 0.88817 0.0
C1510 C 0.25765 0.29195 0.85995 0.0
C1511 C 0.31305 0.35275 0.88778 0.0
C1512 C 0.19116 0.18277 0.85828 0.0
C1513 C 0.20878 0.20288 0.85822 0.0
C1514 C 0.24912 0.23199 0.88755 0.0
C1515 C 0.28909 0.30797 0.87308 0.0
C1516 C 0.27076 0.28457 0.87348 0.0
C1517 C 0.21747 0.21565 0.87423 0.0
C1518 C 0.23589 0.2394 0.87403 0.0
H1519 H 0.32562 0.32782 0.84522 0.0
H1520 H 0.29526 0.29007 0.84581 0.0
H1521 H 0.27621 0.24795 0.89786 0.0
H1522 H 0.18376 0.17929 0.90293 0.0
H1523 H 0.2143 0.21582 0.90293 0.0
C1524 C 0.69122 0.33576 0.64333 0.0
C1525 C 0.68193 0.34627 0.62746 0.0
C1526 C 0.70878 0.31511 0.64301 0.0
C1527 C 0.74888 0.2887 0.61286 0.0
H1528 H 0.76136 0.2032 0.65016 0.0
C1529 C 0.81388 0.17102 0.61062 0.0
C1530 C 0.82498 0.17092 0.62602 0.0
C1531 C 0.79639 0.19209 0.6106 0.0
C1532 C 0.7581 0.22717 0.6397 0.0
H1533 H 0.68357 0.34303 0.5988 0.0
H1534 H 0.71388 0.30569 0.59813 0.0
H1535 H 0.73105 0.24043 0.65035 0.0
H1536 H 0.82623 0.19208 0.65355 0.0
H1537 H 0.79558 0.22826 0.65357 0.0
H1538 H 0.77587 0.27405 0.602 0.0
C1539 C 0.70797 0.31443 0.61089 0.0
C1540 C 0.74074 0.24883 0.63984 0.0
C1541 C 0.69051 0.33565 0.61124 0.0
C1542 C 0.81808 0.19182 0.64145 0.0
C1543 C 0.80048 0.21228 0.6415 0.0
C1544 C 0.76613 0.26644 0.61258 0.0
C1545 C 0.71737 0.30368 0.62679 0.0
C1546 C 0.73589 0.2802 0.62649 0.0
C1547 C 0.78949 0.21294 0.62605 0.0
C1548 C 0.77097 0.23566 0.62606 0.0
H1549 H 0.68502 0.34412 0.65603 0.0
H1550 H 0.71566 0.30851 0.65554 0.0
H1551 H 0.7459 0.31313 0.60251 0.0
H1552 H 0.8188 0.15528 0.59851 0.0
H1553 H 0.78816 0.19173 0.59854 0.0
C1554 C 0.19177 0.8394 0.61318 0.0
C1555 C 0.18297 0.84971 0.62932 0.0
C1556 C 0.20915 0.81782 0.61298 0.0
C1557 C 0.24081 0.7492 0.64172 0.0
H1558 H 0.27732 0.77774 0.60547 0.0
C1559 C 0.31727 0.6865 0.64459 0.0
C1560 C 0.32485 0.66907 0.6288 0.0
C1561 C 0.29989 0.708 0.64454 0.0
C1562 C 0.2672 0.76914 0.61559 0.0
H1563 H 0.18555 0.84629 0.65793 0.0
H1564 H 0.216 0.8096 0.65769 0.0
H1565 H 0.24751 0.81755 0.60575 0.0
H1566 H 0.32024 0.66085 0.60057 0.0
H1567 H 0.28981 0.69831 0.60046 0.0
H1568 H 0.26075 0.70149 0.65175 0.0
C1569 C 0.20937 0.81706 0.6451 0.0
C1570 C 0.25005 0.79187 0.61574 0.0
C1571 C 0.19193 0.83828 0.64528 0.0
C1572 C 0.31467 0.67352 0.61296 0.0
C1573 C 0.29734 0.69537 0.61288 0.0
C1574 C 0.25802 0.72688 0.64168 0.0
C1575 C 0.2182 0.80615 0.62895 0.0
C1576 C 0.23658 0.7822 0.6288 0.0
C1577 C 0.28976 0.71291 0.62867 0.0
C1578 C 0.27141 0.73652 0.62861 0.0
H1579 H 0.18507 0.84737 0.60067 0.0
H1580 H 0.2153 0.80948 0.60026 0.0
H1581 H 0.23072 0.74001 0.65178 0.0
H1582 H 0.32478 0.68341 0.65701 0.0
H1583 H 0.2945 0.72146 0.65689 0.0
C1584 C 0.14124 0.90985 0.30909 0.0
C1585 C 0.1299 0.93188 0.32158 0.0
C1586 C 0.14185 0.92515 0.29147 0.0
C1587 C 0.13357 0.95161 0.25294 0.0
H1588 H 0.13217 0.08173 0.24547 0.0
C1589 C 0.12365 0.02917 0.18335 0.0
C1590 C 0.13394 0.0681 0.17896 0.0
C1591 C 0.12347 0.01265 0.20073 0.0
C1592 C 0.13275 0.04534 0.2473 0.0
H1593 H 0.10963 0.98548 0.32535 0.0
H1594 H 0.11037 0.01146 0.29469 0.0
H1595 H 0.13152 0.05156 0.27557 0.0
H1596 H 0.15226 0.12006 0.18931 0.0
H1597 H 0.15199 0.09122 0.21977 0.0
H1598 H 0.13519 0.94545 0.22467 0.0
C1599 C 0.11921 0.9833 0.29848 0.0
C1600 C 0.13213 0.02797 0.26457 0.0
C1601 C 0.11866 0.96818 0.31602 0.0
C1602 C 0.14395 0.09044 0.19237 0.0
C1603 C 0.14381 0.07383 0.20981 0.0
C1604 C 0.13421 0.969 0.23566 0.0
C1605 C 0.13108 0.96262 0.28604 0.0
C1606 C 0.13235 0.98087 0.26762 0.0
C1607 C 0.13367 0.03448 0.21417 0.0
C1608 C 0.13366 0.01608 0.23261 0.0
H1609 H 0.15014 0.88198 0.31308 0.0
H1610 H 0.15122 0.90858 0.28226 0.0
H1611 H 0.13367 0.9152 0.25478 0.0
H1612 H 0.11569 0.01135 0.17332 0.0
H1613 H 0.1152 0.98286 0.20364 0.0
C1614 C 0.86149 0.09731 0.30833 0.0
C1615 C 0.87202 0.07463 0.32129 0.0
C1616 C 0.86096 0.08118 0.29085 0.0
C1617 C 0.87037 0.97734 0.26414 0.0
H1618 H 0.86931 0.06134 0.2246 0.0
C1619 C 0.88106 0.97994 0.183 0.0
C1620 C 0.87106 0.94094 0.17817 0.0
C1621 C 0.88092 0.99546 0.2005 0.0
C1622 C 0.86978 0.03733 0.23547 0.0
H1623 H 0.89059 0.01796 0.32608 0.0
H1624 H 0.89009 0.99055 0.29563 0.0
H1625 H 0.87011 0.09044 0.25479 0.0
H1626 H 0.85303 0.88755 0.18787 0.0
H1627 H 0.85249 0.91505 0.21851 0.0
H1628 H 0.87074 0.92423 0.2448 0.0
C1629 C 0.88182 0.02006 0.29894 0.0
C1630 C 0.86996 0.05408 0.25283 0.0
C1631 C 0.88222 0.03597 0.3164 0.0
C1632 C 0.86103 0.91746 0.19126 0.0
C1633 C 0.86076 0.93323 0.20881 0.0
C1634 C 0.87031 0.96057 0.24677 0.0
C1635 C 0.87105 0.04214 0.28595 0.0
C1636 C 0.87037 0.02433 0.26742 0.0
C1637 C 0.8706 0.97268 0.21363 0.0
C1638 C 0.87013 0.99035 0.23218 0.0
H1639 H 0.8533 0.12686 0.31179 0.0
H1640 H 0.85232 0.09877 0.28128 0.0
H1641 H 0.87037 0.95332 0.27503 0.0
H1642 H 0.88909 0.99852 0.17322 0.0
H1643 H 0.88903 0.02528 0.20373 0.0
C1644 C 0.86524 0.1064 0.69142 0.0
C1645 C 0.86652 0.07488 0.67747 0.0
C1646 C 0.86409 0.09169 0.70909 0.0
C1647 C 0.85264 0.99167 0.73695 0.0
H1648 H 0.88365 0.05132 0.77198 0.0
C1649 C 0.86486 0.91789 0.80753 0.0
C1650 C 0.86605 0.94878 0.8217 0.0
C1651 C 0.86394 0.93338 0.78995 0.0
C1652 C 0.87469 0.03461 0.76245 0.0
H1653 H 0.86702 1.00292 0.67128 0.0
H1654 H 0.86501 0.97762 0.7019 0.0
H1655 H 0.88334 0.07902 0.74152 0.0
H1656 H 0.86655 0.02046 0.82837 0.0
H1657 H 0.86459 0.04711 0.79798 0.0
H1658 H 0.84401 0.94719 0.75789 0.0
C1659 C 0.86484 0.01369 0.69922 0.0
C1660 C 0.87452 0.05056 0.74496 0.0
C1661 C 0.86611 0.02834 0.68162 0.0
C1662 C 0.86583 0.99549 0.81786 0.0
C1663 C 0.86484 0.0109 0.80035 0.0
C1664 C 0.85276 0.97578 0.75447 0.0
C1665 C 0.86399 0.04513 0.71319 0.0
C1666 C 0.86355 0.0292 0.73197 0.0
C1667 C 0.86411 0.98013 0.78613 0.0
C1668 C 0.86383 0.99698 0.76745 0.0
H1669 H 0.86533 0.14248 0.68875 0.0
H1670 H 0.86321 0.11681 0.71954 0.0
H1671 H 0.84386 0.97475 0.72732 0.0
H1672 H 0.86487 0.88171 0.80996 0.0
H1673 H 0.86352 0.90867 0.77933 0.0
C1674 C 0.12236 0.04624 0.81774 0.0
C1675 C 0.13302 0.08379 0.82299 0.0
C1676 C 0.12262 0.03136 0.80015 0.0
C1677 C 0.13535 0.06629 0.75437 0.0
H1678 H 0.13446 0.93665 0.74584 0.0
C1679 C 0.14604 0.9304 0.69292 0.0
C1680 C 0.13618 0.95344 0.67958 0.0
C1681 C 0.14588 0.94642 0.71041 0.0
C1682 C 0.13491 0.97294 0.74796 0.0
H1683 H 0.15239 0.13521 0.81401 0.0
H1684 H 0.15308 0.10894 0.78325 0.0
H1685 H 0.13412 0.96498 0.77617 0.0
H1686 H 0.11821 0.01081 0.67406 0.0
H1687 H 0.11759 0.0382 0.70454 0.0
H1688 H 0.13673 0.07419 0.72617 0.0
C1689 C 0.14419 0.09147 0.79264 0.0
C1690 C 0.13444 0.98926 0.76538 0.0
C1691 C 0.14381 0.10657 0.81026 0.0
C1692 C 0.12607 0.99256 0.68406 0.0
C1693 C 0.12581 1.0084 0.70152 0.0
C1694 C 0.13592 0.04996 0.73695 0.0
C1695 C 0.13372 0.05338 0.7874 0.0
C1696 C 0.13454 0.03615 0.76882 0.0
C1697 C 0.13579 0.98572 0.71492 0.0
C1698 C 0.13561 1.00307 0.7335 0.0
H1699 H 0.1138 0.02824 0.82726 0.0
H1700 H 0.11407 1.00256 0.79655 0.0
H1701 H 0.13528 0.1026 0.75648 0.0
H1702 H 0.15412 0.90043 0.68978 0.0
H1703 H 0.15394 0.92843 0.72031 0.0
C1704 C 0.64372 0.48038 0.31749 0.0
C1705 C 0.64002 0.43473 0.32171 0.0
C1706 C 0.64474 0.49466 0.29983 0.0
C1707 C 0.62752 0.46617 0.25557 0.0
H1708 H 0.66547 0.54989 0.2392 0.0
C1709 C 0.63263 0.51922 0.18205 0.0
C1710 C 0.63774 0.56409 0.17803 0.0
C1711 C 0.63359 0.50294 0.19944 0.0
C1712 C 0.65461 0.52702 0.2436 0.0
H1713 H 0.63534 0.36801 0.31043 0.0
H1714 H 0.63674 0.39331 0.27955 0.0
H1715 H 0.66648 0.52148 0.26963 0.0
H1716 H 0.64784 0.62709 0.18928 0.0
H1717 H 0.64891 0.59918 0.21978 0.0
H1718 H 0.6153 0.47246 0.2298 0.0
C1719 C 0.63871 0.41798 0.29003 0.0
C1720 C 0.65527 0.51055 0.26102 0.0
C1721 C 0.63792 0.4035 0.30774 0.0
C1722 C 0.64375 0.59239 0.1919 0.0
C1723 C 0.64454 0.5762 0.20938 0.0
C1724 C 0.62675 0.48296 0.23821 0.0
C1725 C 0.64194 0.46382 0.2859 0.0
C1726 C 0.64172 0.47995 0.26719 0.0
C1727 C 0.63949 0.53118 0.21338 0.0
C1728 C 0.64029 0.5136 0.23196 0.0
H1729 H 0.64556 0.50549 0.32783 0.0
H1730 H 0.64714 0.53024 0.2971 0.0
H1731 H 0.6167 0.44324 0.26003 0.0
H1732 H 0.62793 0.49636 0.17173 0.0
H1733 H 0.62991 0.4679 0.20188 0.0
C1734 C 0.36484 0.52416 0.3165 0.0
C1735 C 0.36516 0.57078 0.32049 0.0
C1736 C 0.36341 0.50922 0.29897 0.0
C1737 C 0.37268 0.54554 0.25318 0.0
H1738 H 0.34218 0.44189 0.24058 0.0
C1739 C 0.36388 0.49035 0.18055 0.0
C1740 C 0.36455 0.44367 0.17673 0.0
C1741 C 0.36265 0.50568 0.19802 0.0
C1742 C 0.35091 0.47057 0.24391 0.0
H1743 H 0.36362 0.63819 0.30904 0.0
H1744 H 0.36121 0.61199 0.27837 0.0
H1745 H 0.34215 0.46978 0.27111 0.0
H1746 H 0.36362 0.37651 0.18846 0.0
H1747 H 0.36188 0.40341 0.21909 0.0
H1748 H 0.38168 0.54606 0.22613 0.0
C1749 C 0.36229 0.58707 0.28889 0.0
C1750 C 0.35087 0.48663 0.2614 0.0
C1751 C 0.36362 0.60208 0.30648 0.0
C1752 C 0.36335 0.41268 0.19089 0.0
C1753 C 0.3622 0.42812 0.20845 0.0
C1754 C 0.37278 0.52942 0.23574 0.0
C1755 C 0.3623 0.54045 0.28493 0.0
C1756 C 0.36177 0.52428 0.26623 0.0
C1757 C 0.36211 0.47486 0.21223 0.0
C1758 C 0.36189 0.49175 0.23087 0.0
H1759 H 0.36596 0.49893 0.3269 0.0
H1760 H 0.36366 0.47311 0.29638 0.0
H1761 H 0.3815 0.57406 0.25653 0.0
H1762 H 0.36455 0.5154 0.17005 0.0
H1763 H 0.36216 0.54188 0.20039 0.0
C1764 C 0.36863 0.42085 0.80674 0.0
C1765 C 0.36494 0.44966 0.82117 0.0
C1766 C 0.36834 0.43755 0.78933 0.0
C1767 C 0.37072 0.5468 0.76433 0.0
H1768 H 0.35811 0.46997 0.72436 0.0
C1769 C 0.36385 0.60913 0.69099 0.0
C1770 C 0.37382 0.58308 0.67858 0.0
C1771 C 0.36219 0.59454 0.70863 0.0
C1772 C 0.3617 0.49174 0.73543 0.0
H1773 H 0.35665 0.51805 0.8284 0.0
H1774 H 0.35527 0.54635 0.79822 0.0
H1775 H 0.355 0.44057 0.75449 0.0
H1776 H 0.39055 0.52242 0.67514 0.0
H1777 H 0.38715 0.49646 0.70571 0.0
H1778 H 0.37697 0.59825 0.74507 0.0
C1779 C 0.35928 0.51137 0.8003 0.0
C1780 C 0.36004 0.47486 0.75271 0.0
C1781 C 0.35991 0.49491 0.81768 0.0
C1782 C 0.38251 0.5429 0.68429 0.0
C1783 C 0.38056 0.52795 0.70177 0.0
C1784 C 0.37206 0.56388 0.74705 0.0
C1785 C 0.36393 0.48327 0.78587 0.0
C1786 C 0.36474 0.50194 0.76743 0.0
C1787 C 0.37024 0.55335 0.71407 0.0
C1788 C 0.3678 0.53632 0.73244 0.0
H1789 H 0.37227 0.38566 0.80884 0.0
H1790 H 0.37215 0.41479 0.77867 0.0
H1791 H 0.37484 0.56854 0.77522 0.0
H1792 H 0.35697 0.64018 0.68698 0.0
H1793 H 0.35417 0.61474 0.71789 0.0
C1794 C 0.64478 0.53726 0.81779 0.0
C1795 C 0.64009 0.58257 0.82157 0.0
C1796 C 0.64573 0.52181 0.8003 0.0
C1797 C 0.64787 0.56014 0.75318 0.0
H1798 H 0.62891 0.4392 0.74409 0.0
C1799 C 0.63136 0.49365 0.68271 0.0
C1800 C 0.63751 0.44966 0.67847 0.0
C1801 C 0.63251 0.5099 0.70009 0.0
C1802 C 0.63443 0.47284 0.74644 0.0
H1803 H 0.63361 0.64766 0.80965 0.0
H1804 H 0.63457 0.62033 0.77913 0.0
H1805 H 0.62944 0.46824 0.77435 0.0
H1806 H 0.64982 0.38841 0.68926 0.0
H1807 H 0.65139 0.41651 0.71978 0.0
H1808 H 0.65234 0.5649 0.72509 0.0
C1809 C 0.63775 0.59678 0.78975 0.0
C1810 C 0.6348 0.48954 0.76381 0.0
C1811 C 0.63702 0.61243 0.8073 0.0
C1812 C 0.64474 0.42221 0.6921 0.0
C1813 C 0.64567 0.43832 0.70956 0.0
C1814 C 0.64731 0.54356 0.73578 0.0
C1815 C 0.64183 0.55104 0.78603 0.0
C1816 C 0.64157 0.5334 0.76745 0.0
C1817 C 0.63964 0.48243 0.71372 0.0
C1818 C 0.64059 0.49973 0.73223 0.0
H1819 H 0.64755 0.51327 0.82836 0.0
H1820 H 0.64945 0.48672 0.798 0.0
H1821 H 0.65344 0.59374 0.75545 0.0
H1822 H 0.62563 0.51569 0.67257 0.0
H1823 H 0.62754 0.54382 0.70292 0.0
C1824 C 0.11267 0.10996 0.93718 0.0
C1825 C 0.11986 0.14428 0.92619 0.0
C1826 C 0.11057 0.117 0.95538 0.0
C1827 C 0.12953 0.18301 0.99228 0.0
H1828 H 0.08766 0.13092 0.01764 0.0
C1829 C 0.12527 0.18001 0.06943 0.0
C1830 C 0.12072 0.13728 0.0765 0.0
C1831 C 0.12311 0.18863 0.05123 0.0
C1832 C 0.09945 0.14566 0.01076 0.0
H1833 H 0.13009 0.21342 0.92569 0.0
H1834 H 0.12647 0.2257 0.95771 0.0
H1835 H 0.08746 0.13245 0.98527 0.0
H1836 H 0.1097 0.07075 0.07012 0.0
H1837 H 0.10597 0.08572 0.03863 0.0
H1838 H 0.14177 0.19488 0.01783 0.0
C1839 C 0.12252 0.19326 0.95213 0.0
C1840 C 0.09934 0.14654 0.99222 0.0
C1841 C 0.12448 0.18632 0.9338 0.0
C1842 C 0.11343 0.10397 0.06512 0.0
C1843 C 0.11114 0.11268 0.04705 0.0
C1844 C 0.12965 0.18213 0.01088 0.0
C1845 C 0.11566 0.1585 0.96313 0.0
C1846 C 0.11461 0.16399 0.98275 0.0
C1847 C 0.11614 0.15489 0.03982 0.0
C1848 C 0.11484 0.16221 0.02031 0.0
H1849 H 0.10888 0.07721 0.93177 0.0
H1850 H 0.10549 0.08927 0.96347 0.0
H1851 H 0.14157 0.19641 0.98538 0.0
H1852 H 0.13095 0.20635 0.07785 0.0
H1853 H 0.12699 0.22156 0.04606 0.0
C1854 C 0.8729 0.84061 0.93209 0.0
C1855 C 0.88185 0.87857 0.92472 0.0
C1856 C 0.87419 0.83175 0.95035 0.0
C1857 C 0.90194 0.86098 0.99047 0.0
H1858 H 0.85644 0.83503 0.0163 0.0
C1859 C 0.89253 0.90423 0.06403 0.0
C1860 C 0.88305 0.87375 0.07515 0.0
C1861 C 0.89375 0.89628 0.04581 0.0
C1862 C 0.86933 0.84144 0.00926 0.0
H1863 H 0.89972 0.93593 0.9305 0.0
H1864 H 0.90179 0.92093 0.96213 0.0
H1865 H 0.85605 0.83638 0.98384 0.0
H1866 H 0.86767 0.81058 0.07597 0.0
H1867 H 0.86965 0.79686 0.04387 0.0
H1868 H 0.91504 0.86778 0.01587 0.0
C1869 C 0.89388 0.89772 0.95394 0.0
C1870 C 0.86912 0.84219 0.99066 0.0
C1871 C 0.89253 0.90661 0.93581 0.0
C1872 C 0.87513 0.83455 0.06771 0.0
C1873 C 0.87615 0.82686 0.04936 0.0
C1874 C 0.90212 0.86043 0.00902 0.0
C1875 C 0.88461 0.86043 0.9615 0.0
C1876 C 0.88532 0.85323 0.98106 0.0
C1877 C 0.8854 0.85784 0.03822 0.0
C1878 C 0.88572 0.85185 0.01862 0.0
H1879 H 0.86459 0.8184 0.92383 0.0
H1880 H 0.86699 0.80256 0.95574 0.0
H1881 H 0.91476 0.86859 0.9835 0.0
H1882 H 0.89884 0.93467 0.06937 0.0
H1883 H 0.90077 0.92109 0.03758 0.0
C1884 C 0.13024 0.91626 0.43904 0.0
C1885 C 0.13087 0.87906 0.4274 0.0
C1886 C 0.13076 0.90986 0.45736 0.0
C1887 C 0.12231 0.82748 0.49314 0.0
H1888 H 0.15095 0.91487 0.52024 0.0
C1889 C 0.13042 0.83473 0.57133 0.0
C1890 C 0.12616 0.87799 0.5781 0.0
C1891 C 0.13155 0.82764 0.55291 0.0
C1892 C 0.14297 0.89007 0.51284 0.0
H1893 H 0.1322 0.80562 0.42606 0.0
H1894 H 0.1332 0.7945 0.4583 0.0
H1895 H 0.15256 0.91573 0.48796 0.0
H1896 H 0.11874 0.94698 0.57073 0.0
H1897 H 0.12098 0.93465 0.53902 0.0
H1898 H 0.1126 0.80243 0.51834 0.0
C1899 C 0.13224 0.82865 0.45309 0.0
C1900 C 0.1438 0.89068 0.49436 0.0
C1901 C 0.13173 0.83507 0.43463 0.0
C1902 C 0.12229 0.91331 0.56609 0.0
C1903 C 0.12362 0.90638 0.54787 0.0
C1904 C 0.12159 0.82668 0.51176 0.0
C1905 C 0.13199 0.8661 0.46464 0.0
C1906 C 0.13299 0.86049 0.48425 0.0
C1907 C 0.12862 0.86385 0.54109 0.0
C1908 C 0.13146 0.85899 0.52171 0.0
H1909 H 0.12941 0.95065 0.43406 0.0
H1910 H 0.13009 0.93943 0.46586 0.0
H1911 H 0.11383 0.80378 0.48572 0.0
H1912 H 0.13341 0.8068 0.58023 0.0
H1913 H 0.13537 0.79447 0.54794 0.0
C1914 C 0.87462 0.17985 0.56677 0.0
C1915 C 0.88347 0.14199 0.57433 0.0
C1916 C 0.87601 0.18826 0.54848 0.0
C1917 C 0.90383 0.15723 0.50853 0.0
H1918 H 0.85862 0.18487 0.48249 0.0
C1919 C 0.8941 0.11314 0.43502 0.0
C1920 C 0.88499 0.14409 0.4238 0.0
C1921 C 0.89541 0.12132 0.45322 0.0
C1922 C 0.87143 0.17795 0.48959 0.0
H1923 H 0.9013 0.08433 0.56885 0.0
H1924 H 0.90351 0.09843 0.53717 0.0
H1925 H 0.85811 0.184 0.51495 0.0
H1926 H 0.87034 0.20831 0.42282 0.0
H1927 H 0.87243 0.22239 0.45489 0.0
H1928 H 0.91696 0.14937 0.48318 0.0
C1929 C 0.8956 0.12197 0.54522 0.0
C1930 C 0.87115 0.17749 0.50819 0.0
C1931 C 0.89417 0.11358 0.56339 0.0
C1932 C 0.87753 0.18398 0.43114 0.0
C1933 C 0.87861 0.19188 0.44948 0.0
C1934 C 0.90408 0.15745 0.48998 0.0
C1935 C 0.88643 0.15917 0.53747 0.0
C1936 C 0.88724 0.1659 0.51787 0.0
C1937 C 0.88747 0.16043 0.46071 0.0
C1938 C 0.88778 0.16665 0.4803 0.0
H1939 H 0.8663 0.20238 0.5749 0.0
H1940 H 0.8689 0.21742 0.54296 0.0
H1941 H 0.91658 0.14921 0.51555 0.0
H1942 H 0.90004 0.08217 0.42977 0.0
H1943 H 0.90213 0.09619 0.46153 0.0
C1944 C 0.63317 0.67806 0.0689 0.0
C1945 C 0.6234 0.64164 0.07652 0.0
C1946 C 0.63352 0.68364 0.05038 0.0
C1947 C 0.628 0.61454 0.00995 0.0
H1948 H 0.62331 0.72858 0.98468 0.0
C1949 C 0.61294 0.61743 0.93589 0.0
C1950 C 0.62431 0.64467 0.92513 0.0
C1951 C 0.61319 0.62223 0.95429 0.0
C1952 C 0.62483 0.69661 0.99161 0.0
H1953 H 0.60524 0.58467 0.07096 0.0
H1954 H 0.60553 0.59486 0.03898 0.0
H1955 H 0.62291 0.72789 0.01733 0.0
H1956 H 0.64396 0.70037 0.92502 0.0
H1957 H 0.64432 0.70908 0.95751 0.0
H1958 H 0.62967 0.58306 0.98446 0.0
C1959 C 0.61341 0.61831 0.0471 0.0
C1960 C 0.62462 0.6962 0.01026 0.0
C1961 C 0.61316 0.61261 0.06545 0.0
C1962 C 0.63513 0.67879 0.93306 0.0
C1963 C 0.63533 0.68376 0.9516 0.0
C1964 C 0.62815 0.61495 0.99145 0.0
C1965 C 0.62404 0.65296 0.03928 0.0
C1966 C 0.62576 0.65495 0.0196 0.0
C1967 C 0.62472 0.65463 0.96239 0.0
C1968 C 0.62615 0.65578 0.98206 0.0
H1969 H 0.64124 0.70082 0.07716 0.0
H1970 H 0.64183 0.71069 0.04474 0.0
H1971 H 0.62948 0.58232 0.01672 0.0
H1972 H 0.60414 0.5915 0.93011 0.0
H1973 H 0.60454 0.59998 0.96223 0.0
C1974 C 0.36877 0.34565 0.93118 0.0
C1975 C 0.38008 0.37978 0.92392 0.0
C1976 C 0.36916 0.33677 0.94946 0.0
C1977 C 0.39801 0.35379 0.98964 0.0
H1978 H 0.35116 0.35 0.01525 0.0
C1979 C 0.39248 0.39907 0.06323 0.0
C1980 C 0.38029 0.37461 0.0742 0.0
C1981 C 0.393 0.39098 0.04501 0.0
C1982 C 0.36436 0.35009 0.00828 0.0
H1983 H 0.40116 0.43012 0.9298 0.0
H1984 H 0.40186 0.41482 0.96155 0.0
H1985 H 0.35106 0.35144 0.98278 0.0
H1986 H 0.35944 0.32162 0.0749 0.0
H1987 H 0.36028 0.3074 0.04277 0.0
H1988 H 0.41131 0.3538 0.01506 0.0
C1989 C 0.39269 0.39481 0.95325 0.0
C1990 C 0.3643 0.35094 0.98968 0.0
C1991 C 0.39217 0.40389 0.93509 0.0
C1992 C 0.36896 0.34091 0.06668 0.0
C1993 C 0.36936 0.33303 0.04833 0.0
C1994 C 0.39807 0.35292 0.00817 0.0
C1995 C 0.3811 0.36143 0.96069 0.0
C1996 C 0.38112 0.35409 0.9802 0.0
C1997 C 0.38133 0.35823 0.0373 0.0
C1998 C 0.38124 0.35236 0.01771 0.0
H1999 H 0.35933 0.32659 0.9228 0.0
H2000 H 0.36015 0.31069 0.9548 0.0
H2001 H 0.41121 0.35531 0.98269 0.0
H2002 H 0.40149 0.425 0.06872 0.0
H2003 H 0.4022 0.4114 0.03689 0.0
C2004 C 0.61359 0.40336 0.43642 0.0
C2005 C 0.62448 0.37518 0.42558 0.0
C2006 C 0.6138 0.39825 0.45481 0.0
C2007 C 0.62419 0.32177 0.49188 0.0
H2008 H 0.63043 0.43479 0.51747 0.0
C2009 C 0.63244 0.3371 0.56927 0.0
C2010 C 0.62317 0.37413 0.57702 0.0
C2011 C 0.63281 0.3321 0.55073 0.0
C2012 C 0.6285 0.40293 0.51057 0.0
H2013 H 0.64323 0.31762 0.42535 0.0
H2014 H 0.64351 0.30837 0.45781 0.0
H2015 H 0.6307 0.43502 0.48522 0.0
H2016 H 0.60593 0.43293 0.57162 0.0
H2017 H 0.60624 0.42376 0.53961 0.0
H2018 H 0.62173 0.28989 0.51745 0.0
C2019 C 0.63494 0.33467 0.45196 0.0
C2020 C 0.6287 0.40308 0.49207 0.0
C2021 C 0.63479 0.33996 0.43344 0.0
C2022 C 0.61345 0.40445 0.56603 0.0
C2023 C 0.61373 0.39934 0.54766 0.0
C2024 C 0.62392 0.32163 0.51052 0.0
C2025 C 0.6248 0.36459 0.46283 0.0
C2026 C 0.62613 0.36274 0.4825 0.0
C2027 C 0.62387 0.36399 0.53972 0.0
C2028 C 0.62564 0.36246 0.52004 0.0
H2029 H 0.60516 0.43014 0.43071 0.0
H2030 H 0.60551 0.42116 0.46281 0.0
H2031 H 0.62222 0.29016 0.48481 0.0
H2032 H 0.64011 0.31334 0.57746 0.0
H2033 H 0.64073 0.30449 0.545 0.0
C2034 C 0.38708 0.61283 0.56223 0.0
C2035 C 0.37874 0.6451 0.57342 0.0
C2036 C 0.3886 0.62076 0.54404 0.0
C2037 C 0.36667 0.67896 0.50725 0.0
H2038 H 0.41266 0.64949 0.4828 0.0
C2039 C 0.37227 0.6787 0.43029 0.0
C2040 C 0.38137 0.64064 0.42318 0.0
C2041 C 0.37314 0.68775 0.44854 0.0
C2042 C 0.39968 0.65772 0.4894 0.0
H2043 H 0.3655 0.71113 0.5743 0.0
H2044 H 0.36783 0.7246 0.54217 0.0
H2045 H 0.41187 0.64972 0.51516 0.0
H2046 H 0.39915 0.58337 0.42941 0.0
H2047 H 0.40039 0.59845 0.46106 0.0
H2048 H 0.35423 0.68482 0.48148 0.0
C2049 C 0.3733 0.69335 0.54766 0.0
C2050 C 0.39927 0.65802 0.50792 0.0
C2051 C 0.37203 0.68572 0.566 0.0
C2052 C 0.39183 0.61272 0.43453 0.0
C2053 C 0.39271 0.6217 0.45267 0.0
C2054 C 0.36703 0.67829 0.48865 0.0
C2055 C 0.38164 0.6609 0.53653 0.0
C2056 C 0.38265 0.66744 0.51703 0.0
C2057 C 0.38326 0.65908 0.45997 0.0
C2058 C 0.38343 0.66636 0.47952 0.0
H2059 H 0.39248 0.58129 0.56751 0.0
H2060 H 0.3949 0.59492 0.53577 0.0
H2061 H 0.35364 0.68609 0.51395 0.0
H2062 H 0.36415 0.70088 0.42182 0.0
H2063 H 0.36585 0.71705 0.45371 0.0
C2064 C 0.93412 0.96882 0.10976 0.0
C2065 C 0.92606 0.95514 0.1259 0.0
C2066 C 0.95292 0.98145 0.10907 0.0
C2067 C 0.99001 0.03079 0.13476 0.0
H2068 H 0.02491 0.96348 0.10562 0.0
C2069 C 0.06883 0.05933 0.14183 0.0
C2070 C 0.08024 0.05557 0.12676 0.0
C2071 C 0.05012 0.04662 0.14113 0.0
C2072 C 0.01536 0.98329 0.1136 0.0
H2073 H 0.93117 0.94449 0.15396 0.0
H2074 H 0.96382 0.96811 0.15283 0.0
H2075 H 0.99181 0.94402 0.10501 0.0
H2076 H 0.08104 0.03561 0.09912 0.0
H2077 H 0.04818 0.01456 0.09766 0.0
H2078 H 0.0131 0.07123 0.14296 0.0
C2079 C 0.95566 0.96855 0.14073 0.0
C2080 C 0.99642 0.97189 0.11328 0.0
C2081 C 0.93702 0.95505 0.14136 0.0
C2082 C 0.07261 0.03824 0.11101 0.0
C2083 C 0.05375 0.02616 0.11021 0.0
C2084 C 0.00884 0.04285 0.13481 0.0
C2085 C 0.96381 0.98156 0.12457 0.0
C2086 C 0.98365 0.99518 0.12404 0.0
C2087 C 0.04216 0.03052 0.12525 0.0
C2088 C 0.02189 0.01882 0.12446 0.0
H2089 H 0.92603 0.96866 0.09761 0.0
H2090 H 0.95894 0.99143 0.09647 0.0
H2091 H 0.98036 0.04952 0.14304 0.0
H2092 H 0.07438 0.07228 0.15421 0.0
H2093 H 0.04193 0.0494 0.15315 0.0
C2094 C 0.93382 0.03559 0.38752 0.0
C2095 C 0.92698 0.0595 0.37276 0.0
C2096 C 0.95241 0.02102 0.38803 0.0
C2097 C 0.99357 0.99978 0.35901 0.0
H2098 H 0.02119 1.00915 0.40309 0.0
C2099 C 0.07363 0.97803 0.36225 0.0
C2100 C 0.08056 0.95095 0.37608 0.0
C2101 C 0.05486 0.99098 0.362 0.0
C2102 C 0.01362 1.00595 0.39072 0.0
H2103 H 0.93412 0.08517 0.34664 0.0
H2104 H 0.96648 0.06135 0.34775 0.0
H2105 H 0.98843 0.03115 0.4023 0.0
H2106 H 0.07365 0.91792 0.40089 0.0
H2107 H 0.04087 0.94033 0.40047 0.0
H2108 H 0.01887 0.9751 0.3474 0.0
C2109 C 0.95755 0.05328 0.3589 0.0
C2110 C 0.9948 0.01843 0.39026 0.0
C2111 C 0.939 0.06752 0.35836 0.0
C2112 C 0.06857 0.93825 0.38994 0.0
C2113 C 0.04985 0.95144 0.38977 0.0
C2114 C 0.0124 0.98755 0.35944 0.0
C2115 C 0.96457 0.02998 0.37376 0.0
C2116 C 0.98452 0.01563 0.37439 0.0
C2117 C 0.04272 0.97761 0.37571 0.0
C2118 C 0.02267 0.99059 0.37529 0.0
H2119 H 0.92493 0.02882 0.39884 0.0
H2120 H 0.95723 1.00259 0.39959 0.0
H2121 H 0.98606 0.99634 0.34661 0.0
H2122 H 0.08261 0.98833 0.35141 0.0
H2123 H 0.04986 0.01163 0.3511 0.0
C2124 C 0.06785 0.07217 0.85943 0.0
C2125 C 0.07923 0.06561 0.87438 0.0
C2126 C 0.04927 0.05822 0.85954 0.0
C2127 C 0.01515 0.98593 0.88406 0.0
H2128 H 0.97937 0.06043 0.85875 0.0
C2129 C 0.93469 0.96594 0.88989 0.0
C2130 C 0.92516 0.96316 0.87364 0.0
C2131 C 0.95361 0.97739 0.89028 0.0
C2132 C 0.98923 0.03918 0.86579 0.0
H2133 H 0.08009 0.03931 0.90121 0.0
H2134 H 0.04749 0.01553 0.90161 0.0
H2135 H 0.01205 0.08243 0.85922 0.0
H2136 H 0.92766 0.97064 0.84515 0.0
H2137 H 0.96061 0.99222 0.84586 0.0
H2138 H 0.99194 0.94352 0.89101 0.0
C2139 C 0.053 0.03055 0.8896 0.0
C2140 C 0.00802 0.05157 0.86599 0.0
C2141 C 0.07171 0.04415 0.8894 0.0
C2142 C 0.93472 0.97282 0.85784 0.0
C2143 C 0.95352 0.98515 0.85825 0.0
C2144 C 0.99626 0.97393 0.88407 0.0
C2145 C 0.04146 0.03779 0.87471 0.0
C2146 C 0.02131 0.02491 0.87498 0.0
C2147 C 0.96318 0.9873 0.87446 0.0
C2148 C 0.98315 1.00029 0.87482 0.0
H2149 H 0.0733 0.08825 0.84758 0.0
H2150 H 0.04106 0.06345 0.84766 0.0
H2151 H 0.02494 0.96415 0.89091 0.0
H2152 H 0.92764 0.95806 0.90223 0.0
H2153 H 0.96072 0.97895 0.90295 0.0
C2154 C 0.93609 0.05357 0.61014 0.0
C2155 C 0.92649 0.05807 0.62628 0.0
C2156 C 0.95513 0.04307 0.61001 0.0
C2157 C 0.997 0.04346 0.63933 0.0
H2158 H 0.0179 0.96597 0.60282 0.0
C2159 C 0.07062 0.96477 0.64408 0.0
C2160 C 0.08177 0.9658 0.62874 0.0
C2161 C 0.05194 0.97799 0.64338 0.0
C2162 C 0.0123 0.98804 0.613 0.0
H2163 H 0.92893 0.05363 0.65486 0.0
H2164 H 0.96191 0.03369 0.65471 0.0
H2165 H 0.98468 0.98368 0.60241 0.0
H2166 H 0.08215 0.98175 0.60067 0.0
H2167 H 0.04935 1.00488 0.59942 0.0
H2168 H 0.02459 0.04675 0.65014 0.0
C2169 C 0.95502 0.03954 0.64212 0.0
C2170 C 0.99324 0.99831 0.61276 0.0
C2171 C 0.93608 0.05055 0.64224 0.0
C2172 C 0.07392 0.98099 0.61272 0.0
C2173 C 0.05512 0.99377 0.61197 0.0
C2174 C 0.016 0.0328 0.63966 0.0
C2175 C 0.9649 0.03622 0.62602 0.0
C2176 C 0.9853 0.02597 0.62599 0.0
C2177 C 0.04392 0.99227 0.6273 0.0
C2178 C 0.02385 1.00484 0.62655 0.0
H2179 H 0.92905 0.05981 0.59765 0.0
H2180 H 0.96226 0.04148 0.59736 0.0
H2181 H 0.99154 0.0657 0.64951 0.0
H2182 H 0.07631 0.95334 0.65663 0.0
H2183 H 0.04364 0.97602 0.65537 0.0
C2184 C 0.43465 0.46863 0.11036 0.0
C2185 C 0.42525 0.46129 0.12645 0.0
C2186 C 0.45348 0.48089 0.11031 0.0
C2187 C 0.49027 0.532 0.13792 0.0
H2188 H 0.52408 0.46871 0.10634 0.0
C2189 C 0.56994 0.5524 0.14367 0.0
C2190 C 0.58031 0.55487 0.12789 0.0
C2191 C 0.55106 0.54088 0.14328 0.0
C2192 C 0.51482 0.48718 0.11507 0.0
H2193 H 0.42788 0.4623 0.15508 0.0
H2194 H 0.46074 0.48422 0.15505 0.0
H2195 H 0.49094 0.45019 0.10599 0.0
H2196 H 0.57918 0.54669 0.09935 0.0
H2197 H 0.54613 0.52675 0.09858 0.0
H2198 H 0.51402 0.56933 0.14691 0.0
C2199 C 0.45361 0.48044 0.14246 0.0
C2200 C 0.49582 0.4765 0.11488 0.0
C2201 C 0.43484 0.4677 0.14249 0.0
C2202 C 0.57155 0.54455 0.11173 0.0
C2203 C 0.55261 0.53317 0.11132 0.0
C2204 C 0.50923 0.5429 0.13804 0.0
C2205 C 0.4632 0.48671 0.12637 0.0
C2206 C 0.48334 0.49867 0.12635 0.0
C2207 C 0.54207 0.53155 0.12708 0.0
C2208 C 0.5218 0.52045 0.12669 0.0
H2209 H 0.4276 0.46368 0.09779 0.0
H2210 H 0.46044 0.4859 0.0977 0.0
H2211 H 0.48096 0.5501 0.14675 0.0
H2212 H 0.57642 0.55964 0.15634 0.0
H2213 H 0.54354 0.53915 0.15572 0.0
C2214 C 0.43494 0.54819 0.35553 0.0
C2215 C 0.42517 0.55437 0.37148 0.0
C2216 C 0.45378 0.53604 0.35571 0.0
C2217 C 0.4957 0.539 0.38411 0.0
H2218 H 0.51462 0.44951 0.351 0.0
C2219 C 0.57077 0.46718 0.38843 0.0
C2220 C 0.58013 0.4586 0.37241 0.0
C2221 C 0.55195 0.47964 0.38838 0.0
C2222 C 0.50963 0.47498 0.3602 0.0
H2223 H 0.42727 0.55218 0.40016 0.0
H2224 H 0.46019 0.5306 0.40053 0.0
H2225 H 0.48158 0.46876 0.3508 0.0
H2226 H 0.57747 0.45804 0.34379 0.0
H2227 H 0.54472 0.48056 0.34361 0.0
H2228 H 0.52376 0.54539 0.39345 0.0
C2229 C 0.45336 0.53552 0.38785 0.0
C2230 C 0.49066 0.48597 0.3601 0.0
C2231 C 0.43447 0.54734 0.38765 0.0
C2232 C 0.57051 0.46409 0.35633 0.0
C2233 C 0.55172 0.47672 0.35626 0.0
C2234 C 0.51469 0.52808 0.38419 0.0
C2235 C 0.46327 0.52992 0.37188 0.0
C2236 C 0.48345 0.51809 0.37206 0.0
C2237 C 0.54212 0.48416 0.37229 0.0
C2238 C 0.52191 0.49594 0.37222 0.0
H2239 H 0.42807 0.55336 0.34288 0.0
H2240 H 0.46102 0.53252 0.34317 0.0
H2241 H 0.49066 0.56442 0.39331 0.0
H2242 H 0.57783 0.46276 0.40103 0.0
H2243 H 0.54497 0.48455 0.40098 0.0
C2244 C 0.43449 0.47467 0.88777 0.0
C2245 C 0.42505 0.46725 0.87171 0.0
C2246 C 0.45333 0.48684 0.88778 0.0
C2247 C 0.49557 0.48275 0.85966 0.0
H2248 H 0.5146 0.57116 0.89315 0.0
C2249 C 0.57059 0.55453 0.85592 0.0
C2250 C 0.5801 0.56087 0.87201 0.0
C2251 C 0.55177 0.54229 0.85585 0.0
C2252 C 0.50955 0.54599 0.88385 0.0
H2253 H 0.42758 0.4685 0.84308 0.0
H2254 H 0.46042 0.49033 0.84301 0.0
H2255 H 0.48146 0.55272 0.89307 0.0
H2256 H 0.57759 0.55858 0.90065 0.0
H2257 H 0.54472 0.53686 0.90059 0.0
H2258 H 0.52367 0.47607 0.85043 0.0
C2259 C 0.45343 0.48586 0.85563 0.0
C2260 C 0.49054 0.53545 0.8838 0.0
C2261 C 0.43461 0.4736 0.85565 0.0
C2262 C 0.5706 0.55366 0.88805 0.0
C2263 C 0.55173 0.54177 0.888 0.0
C2264 C 0.51458 0.4933 0.85971 0.0
C2265 C 0.46309 0.49218 0.8717 0.0
C2266 C 0.48331 0.50368 0.8717 0.0
C2267 C 0.54204 0.53629 0.87189 0.0
C2268 C 0.52181 0.52498 0.87183 0.0
H2269 H 0.42748 0.4696 0.90036 0.0
H2270 H 0.46037 0.4909 0.90039 0.0
H2271 H 0.49054 0.45761 0.85034 0.0
H2272 H 0.57764 0.55984 0.84337 0.0
H2273 H 0.5447 0.53884 0.84321 0.0
C2274 C 0.43406 0.54573 0.64025 0.0
C2275 C 0.42696 0.57088 0.62594 0.0
C2276 C 0.45293 0.53362 0.64074 0.0
C2277 C 0.49373 0.51502 0.61199 0.0
H2278 H 0.52218 0.5305 0.65531 0.0
C2279 C 0.57337 0.48431 0.61391 0.0
C2280 C 0.58073 0.46318 0.62909 0.0
C2281 C 0.55481 0.49908 0.6136 0.0
C2282 C 0.51442 0.52536 0.64315 0.0
H2283 H 0.43376 0.60213 0.60075 0.0
H2284 H 0.46667 0.58076 0.60151 0.0
H2285 H 0.48935 0.55188 0.65465 0.0
H2286 H 0.57462 0.4432 0.65616 0.0
H2287 H 0.5422 0.4669 0.65541 0.0
H2288 H 0.51859 0.48774 0.60053 0.0
C2289 C 0.45774 0.57048 0.61237 0.0
C2290 C 0.49559 0.53773 0.64279 0.0
C2291 C 0.43894 0.58297 0.61199 0.0
C2292 C 0.56927 0.45833 0.6441 0.0
C2293 C 0.5507 0.47265 0.64376 0.0
C2294 C 0.51252 0.50229 0.61238 0.0
C2295 C 0.46498 0.54582 0.62679 0.0
C2296 C 0.48502 0.5327 0.6272 0.0
C2297 C 0.54314 0.493 0.62846 0.0
C2298 C 0.52315 0.50726 0.62797 0.0
H2299 H 0.42511 0.5362 0.65121 0.0
H2300 H 0.45805 0.5143 0.65196 0.0
H2301 H 0.48591 0.5102 0.59983 0.0
H2302 H 0.58183 0.48867 0.60212 0.0
H2303 H 0.54963 0.51533 0.60169 0.0
C2304 C 0.11118 0.77068 0.12352 0.0
C2305 C 0.12395 0.79849 0.11446 0.0
C2306 C 0.11481 0.72453 0.12603 0.0
C2307 C 0.14256 0.62974 0.10779 0.0
H2308 H 0.12967 0.57065 0.15212 0.0
C2309 C 0.16319 0.44397 0.12317 0.0
C2310 C 0.15017 0.41677 0.13219 0.0
C2311 C 0.16009 0.49046 0.12093 0.0
C2312 C 0.13315 0.58647 0.13957 0.0
H2313 H 0.15068 0.79942 0.10106 0.0
H2314 H 0.15716 0.71896 0.10566 0.0
H2315 H 0.12452 0.65189 0.14875 0.0
H2316 H 0.12362 0.41744 0.14592 0.0
H2317 H 0.11803 0.49831 0.14172 0.0
H2318 H 0.15113 0.56431 0.09859 0.0
C2319 C 0.14421 0.73282 0.11066 0.0
C2320 C 0.13022 0.63313 0.13765 0.0
C2321 C 0.1406 0.77908 0.1082 0.0
C2322 C 0.13386 0.43722 0.13875 0.0
C2323 C 0.13077 0.48375 0.13654 0.0
C2324 C 0.14548 0.58307 0.10971 0.0
C2325 C 0.13131 0.70489 0.11952 0.0
C2326 C 0.13484 0.65537 0.12172 0.0
C2327 C 0.14389 0.51104 0.12768 0.0
C2328 C 0.14078 0.56079 0.12561 0.0
H2329 H 0.09832 0.78459 0.12871 0.0
H2330 H 0.10448 0.70404 0.13277 0.0
H2331 H 0.146 0.64558 0.09523 0.0
H2332 H 0.17581 0.4293 0.11777 0.0
H2333 H 0.17058 0.51043 0.11417 0.0
C2334 C 0.86876 0.23276 0.10843 0.0
C2335 C 0.88506 0.21305 0.11534 0.0
C2336 C 0.86519 0.27905 0.11073 0.0
C2337 C 0.87813 0.37819 0.13833 0.0
H2338 H 0.85896 0.44755 0.09857 0.0
C2339 C 0.87412 0.57401 0.13963 0.0
C2340 C 0.85806 0.59432 0.13246 0.0
C2341 C 0.8774 0.52756 0.13748 0.0
C2342 C 0.86412 0.42862 0.10988 0.0
H2343 H 0.91014 0.22646 0.13054 0.0
H2344 H 0.90405 0.30715 0.13432 0.0
H2345 H 0.86431 0.36636 0.09527 0.0
H2346 H 0.83308 0.58168 0.11704 0.0
H2347 H 0.83863 0.50068 0.11354 0.0
H2348 H 0.87794 0.44043 0.15294 0.0
C2349 C 0.89396 0.28683 0.12719 0.0
C2350 C 0.86717 0.38202 0.10799 0.0
C2351 C 0.89755 0.24062 0.12485 0.0
C2352 C 0.84548 0.5671 0.12291 0.0
C2353 C 0.84877 0.52069 0.12073 0.0
C2354 C 0.87507 0.42478 0.14023 0.0
C2355 C 0.87779 0.30672 0.12007 0.0
C2356 C 0.87424 0.35621 0.12218 0.0
C2357 C 0.86473 0.50026 0.12806 0.0
C2358 C 0.86804 0.45063 0.12602 0.0
H2359 H 0.85892 0.21259 0.10092 0.0
H2360 H 0.8525 0.29313 0.10523 0.0
H2361 H 0.88333 0.35926 0.14962 0.0
H2362 H 0.88401 0.59384 0.14721 0.0
H2363 H 0.88994 0.51309 0.14312 0.0
C2364 C 0.10833 0.23728 0.37256 0.0
C2365 C 0.11975 0.20966 0.38324 0.0
C2366 C 0.11229 0.28332 0.37032 0.0
C2367 C 0.13903 0.37827 0.3905 0.0
H2368 H 0.12837 0.43699 0.34554 0.0
C2369 C 0.1613 0.56273 0.37412 0.0
C2370 C 0.14777 0.5904 0.36605 0.0
C2371 C 0.15817 0.51626 0.37636 0.0
C2372 C 0.13128 0.42112 0.35821 0.0
H2373 H 0.1445 0.20926 0.39978 0.0
H2374 H 0.15182 0.28908 0.3953 0.0
H2375 H 0.12304 0.35583 0.34876 0.0
H2376 H 0.1204 0.59097 0.35392 0.0
H2377 H 0.11496 0.50968 0.35772 0.0
H2378 H 0.1476 0.44375 0.39976 0.0
C2379 C 0.13952 0.27532 0.38897 0.0
C2380 C 0.12818 0.37456 0.36011 0.0
C2381 C 0.13546 0.22927 0.39134 0.0
C2382 C 0.13103 0.57058 0.36029 0.0
C2383 C 0.12799 0.52401 0.36233 0.0
C2384 C 0.14231 0.42478 0.38853 0.0
C2385 C 0.12791 0.30308 0.37852 0.0
C2386 C 0.13187 0.35249 0.37632 0.0
C2387 C 0.14153 0.49632 0.37038 0.0
C2388 C 0.13835 0.44677 0.37241 0.0
H2389 H 0.09628 0.22336 0.36586 0.0
H2390 H 0.10286 0.30353 0.36235 0.0
H2391 H 0.14175 0.36278 0.40327 0.0
H2392 H 0.17428 0.57711 0.37882 0.0
H2393 H 0.16891 0.49577 0.38252 0.0
C2394 C 0.87317 0.44467 0.36424 0.0
C2395 C 0.89022 0.43014 0.37147 0.0
C2396 C 0.86696 0.48922 0.36684 0.0
C2397 C 0.87441 0.59156 0.39489 0.0
H2398 H 0.85314 0.65525 0.35465 0.0
C2399 C 0.86409 0.78591 0.39466 0.0
C2400 C 0.84719 0.80246 0.38779 0.0
C2401 C 0.86889 0.74018 0.39275 0.0
C2402 C 0.85888 0.63783 0.36607 0.0
H2403 H 0.91368 0.45055 0.38777 0.0
H2404 H 0.9031 0.52811 0.39198 0.0
H2405 H 0.86168 0.57557 0.35172 0.0
H2406 H 0.82232 0.78411 0.3731 0.0
H2407 H 0.83064 0.70432 0.36988 0.0
H2408 H 0.87181 0.65402 0.40916 0.0
C2409 C 0.89442 0.50519 0.38439 0.0
C2410 C 0.86373 0.59206 0.36442 0.0
C2411 C 0.9006 0.46077 0.3818 0.0
C2412 C 0.83536 0.77235 0.37871 0.0
C2413 C 0.8402 0.7267 0.37671 0.0
C2414 C 0.86962 0.63734 0.39652 0.0
C2415 C 0.87762 0.52021 0.37677 0.0
C2416 C 0.87165 0.56838 0.37878 0.0
C2417 C 0.85696 0.70996 0.38383 0.0
C2418 C 0.86189 0.66111 0.38211 0.0
H2419 H 0.86489 0.42206 0.35613 0.0
H2420 H 0.85383 0.49943 0.36098 0.0
H2421 H 0.88018 0.57426 0.40632 0.0
H2422 H 0.87344 0.8081 0.40184 0.0
H2423 H 0.882 0.72851 0.3982 0.0
C2424 C 0.84205 0.25676 0.86731 0.0
C2425 C 0.8524 0.22626 0.87777 0.0
C2426 C 0.84787 0.30166 0.86518 0.0
C2427 C 0.87709 0.38961 0.88634 0.0
H2428 H 0.87186 0.45062 0.84099 0.0
C2429 C 0.90785 0.56769 0.87297 0.0
C2430 C 0.89737 0.5981 0.86259 0.0
C2431 C 0.90221 0.52262 0.87502 0.0
C2432 C 0.8732 0.43429 0.85381 0.0
H2433 H 0.87718 0.21916 0.89399 0.0
H2434 H 0.88754 0.29739 0.89002 0.0
H2435 H 0.86296 0.37117 0.84373 0.0
H2436 H 0.87256 0.60481 0.84639 0.0
H2437 H 0.86251 0.52631 0.85021 0.0
H2438 H 0.88731 0.45274 0.89641 0.0
C2439 C 0.87476 0.28664 0.88364 0.0
C2440 C 0.86812 0.38866 0.85538 0.0
C2441 C 0.86894 0.24162 0.88575 0.0
C2442 C 0.88089 0.58243 0.85457 0.0
C2443 C 0.87526 0.53726 0.85659 0.0
C2444 C 0.88216 0.43525 0.88477 0.0
C2445 C 0.86421 0.31734 0.87344 0.0
C2446 C 0.86998 0.36571 0.87167 0.0
C2447 C 0.88592 0.50668 0.86674 0.0
C2448 C 0.88028 0.45821 0.86848 0.0
H2449 H 0.82936 0.24595 0.86079 0.0
H2450 H 0.83931 0.32436 0.85735 0.0
H2451 H 0.87842 0.37329 0.89916 0.0
H2452 H 0.9205 0.57872 0.87952 0.0
H2453 H 0.91085 0.50002 0.88281 0.0
C2454 C 0.13377 0.44817 0.86402 0.0
C2455 C 0.15004 0.42786 0.87073 0.0
C2456 C 0.1307 0.49473 0.86602 0.0
C2457 C 0.14524 0.59434 0.89259 0.0
H2458 H 0.12431 0.6625 0.85332 0.0
C2459 C 0.13999 0.79012 0.89361 0.0
C2460 C 0.12327 0.80919 0.88736 0.0
C2461 C 0.14371 0.74393 0.89124 0.0
C2462 C 0.13 0.64391 0.86448 0.0
H2463 H 0.17568 0.44064 0.88512 0.0
H2464 H 0.17049 0.5219 0.88833 0.0
H2465 H 0.12967 0.58129 0.85013 0.0
H2466 H 0.09761 0.79483 0.87324 0.0
H2467 H 0.10397 0.7143 0.86931 0.0
H2468 H 0.14555 0.65699 0.90694 0.0
C2469 C 0.16001 0.50177 0.88164 0.0
C2470 C 0.13306 0.5973 0.86266 0.0
C2471 C 0.16309 0.45523 0.87963 0.0
C2472 C 0.11053 0.78113 0.8784 0.0
C2473 C 0.11427 0.73503 0.87598 0.0
C2474 C 0.1422 0.64097 0.89441 0.0
C2475 C 0.14381 0.52217 0.87479 0.0
C2476 C 0.14066 0.57188 0.87671 0.0
C2477 C 0.13084 0.71575 0.88248 0.0
C2478 C 0.1345 0.66632 0.88039 0.0
H2479 H 0.12351 0.42823 0.85694 0.0
H2480 H 0.11796 0.50919 0.86077 0.0
H2481 H 0.15086 0.57575 0.90378 0.0
H2482 H 0.15005 0.81069 0.90068 0.0
H2483 H 0.15671 0.73029 0.89623 0.0
C2484 C 0.84374 0.76494 0.63298 0.0
C2485 C 0.85397 0.79551 0.62246 0.0
C2486 C 0.84963 0.72007 0.63504 0.0
C2487 C 0.87881 0.63241 0.61361 0.0
H2488 H 0.87385 0.57101 0.65891 0.0
C2489 C 0.90971 0.45428 0.62667 0.0
C2490 C 0.89916 0.42374 0.63691 0.0
C2491 C 0.90408 0.49941 0.62474 0.0
C2492 C 0.87511 0.58747 0.64611 0.0
H2493 H 0.87861 0.80279 0.60606 0.0
H2494 H 0.8891 0.72463 0.60993 0.0
H2495 H 0.8649 0.65048 0.65631 0.0
H2496 H 0.87429 0.41681 0.65302 0.0
H2497 H 0.86431 0.49545 0.64942 0.0
H2498 H 0.88903 0.56939 0.60342 0.0
C2499 C 0.87635 0.73529 0.61639 0.0
C2500 C 0.87001 0.63311 0.64462 0.0
C2501 C 0.87047 0.78027 0.61435 0.0
C2502 C 0.88267 0.43932 0.64494 0.0
C2503 C 0.87707 0.48455 0.64305 0.0
C2504 C 0.88393 0.58679 0.6151 0.0
C2505 C 0.86592 0.70451 0.62665 0.0
C2506 C 0.87176 0.65617 0.62835 0.0
C2507 C 0.88777 0.51524 0.63301 0.0
C2508 C 0.88213 0.56371 0.63136 0.0
H2509 H 0.8311 0.77567 0.6396 0.0
H2510 H 0.84116 0.69729 0.64291 0.0
H2511 H 0.88005 0.64883 0.6008 0.0
H2512 H 0.92236 0.44331 0.62013 0.0
H2513 H 0.91275 0.52213 0.61704 0.0
C2514 C 0.15011 0.2419 0.61825 0.0
C2515 C 0.13815 0.22078 0.60605 0.0
C2516 C 0.14708 0.28715 0.62328 0.0
C2517 C 0.12407 0.39068 0.60589 0.0
H2518 H 0.1333 0.44006 0.65276 0.0
C2519 C 0.09952 0.56894 0.62597 0.0
C2520 C 0.11136 0.59608 0.63637 0.0
C2521 C 0.10398 0.52374 0.62246 0.0
C2522 C 0.13089 0.42684 0.63954 0.0
H2523 H 0.11322 0.22897 0.59025 0.0
H2524 H 0.10746 0.30697 0.59946 0.0
H2525 H 0.13789 0.35895 0.64738 0.0
H2526 H 0.13732 0.59713 0.65102 0.0
H2527 H 0.1452 0.5177 0.6448 0.0
H2528 H 0.11689 0.45818 0.59806 0.0
C2529 C 0.11948 0.28947 0.60483 0.0
C2530 C 0.13349 0.38033 0.63646 0.0
C2531 C 0.1226 0.2446 0.59972 0.0
C2532 C 0.12799 0.57713 0.64288 0.0
C2533 C 0.1324 0.53157 0.63948 0.0
C2534 C 0.12142 0.43692 0.60897 0.0
C2535 C 0.13202 0.31193 0.61618 0.0
C2536 C 0.12985 0.36154 0.61964 0.0
C2537 C 0.12037 0.50429 0.62929 0.0
C2538 C 0.12456 0.45555 0.62587 0.0
H2539 H 0.16235 0.22431 0.6231 0.0
H2540 H 0.15706 0.30333 0.63199 0.0
H2541 H 0.12166 0.37783 0.59262 0.0
H2542 H 0.08667 0.58262 0.62066 0.0
H2543 H 0.09432 0.50368 0.6147 0.0
C2544 C 0.59396 0.94885 0.13267 0.0
C2545 C 0.60739 0.92019 0.14038 0.0
C2546 C 0.59796 0.99435 0.12919 0.0
C2547 C 0.62983 0.08775 0.14201 0.0
H2548 H 0.60971 0.14465 0.09974 0.0
C2549 C 0.64975 0.26938 0.11794 0.0
C2550 C 0.63568 0.29536 0.10995 0.0
C2551 C 0.64621 0.22467 0.1233 0.0
C2552 C 0.61522 0.12952 0.11175 0.0
H2553 H 0.63577 0.91706 0.15014 0.0
H2554 H 0.64292 0.99653 0.1437 0.0
H2555 H 0.6046 0.06421 0.10479 0.0
H2556 H 0.60686 0.29598 0.10163 0.0
H2557 H 0.60046 0.21832 0.11131 0.0
H2558 H 0.64063 0.15334 0.14881 0.0
C2559 C 0.62915 0.9838 0.14062 0.0
C2560 C 0.61232 0.08323 0.11464 0.0
C2561 C 0.62513 0.93808 0.1441 0.0
C2562 C 0.61783 0.27673 0.10805 0.0
C2563 C 0.61428 0.23209 0.11336 0.0
C2564 C 0.6328 0.13417 0.13908 0.0
C2565 C 0.61555 0.01264 0.13322 0.0
C2566 C 0.61945 0.06169 0.12987 0.0
C2567 C 0.62857 0.205 0.12056 0.0
C2568 C 0.6254 0.15572 0.12397 0.0
H2569 H 0.58023 0.93615 0.12941 0.0
H2570 H 0.58705 0.01545 0.12366 0.0
H2571 H 0.63535 0.07251 0.15399 0.0
H2572 H 0.66373 0.28283 0.11916 0.0
H2573 H 0.65758 0.20475 0.12866 0.0
C2574 C 0.37289 0.73702 0.11434 0.0
C2575 C 0.38887 0.71645 0.12157 0.0
C2576 C 0.36964 0.78348 0.11661 0.0
C2577 C 0.38338 0.88237 0.14431 0.0
H2578 H 0.36384 0.95206 0.1048 0.0
C2579 C 0.38018 0.07847 0.14535 0.0
C2580 C 0.36371 0.09861 0.13902 0.0
C2581 C 0.38342 0.03204 0.143 0.0
C2582 C 0.36915 0.93303 0.11602 0.0
H2583 H 0.41369 0.72871 0.1373 0.0
H2584 H 0.40827 0.80962 0.14088 0.0
H2585 H 0.36879 0.87071 0.10146 0.0
H2586 H 0.33798 0.08587 0.12477 0.0
H2587 H 0.34356 1.00494 0.12079 0.0
H2588 H 0.38384 0.94481 0.15881 0.0
C2589 C 0.39812 0.78985 0.13359 0.0
C2590 C 0.37195 0.88631 0.11413 0.0
C2591 C 0.40136 0.74345 0.13134 0.0
C2592 C 0.35073 0.07135 0.12998 0.0
C2593 C 0.35401 0.02502 0.12754 0.0
C2594 C 0.38064 0.9291 0.14617 0.0
C2595 C 0.38228 0.81059 0.12617 0.0
C2596 C 0.37909 0.86032 0.12825 0.0
C2597 C 0.37032 1.00468 0.13415 0.0
C2598 C 0.37348 0.95503 0.13206 0.0
H2599 H 0.36305 0.71743 0.10661 0.0
H2600 H 0.35716 0.79811 0.11091 0.0
H2601 H 0.38861 0.86341 0.15557 0.0
H2602 H 0.3904 0.09842 0.15248 0.0
H2603 H 0.39622 0.01756 0.14809 0.0
C2604 C 0.62121 0.07407 0.3541 0.0
C2605 C 0.60544 0.08956 0.36336 0.0
C2606 C 0.62691 0.02881 0.35545 0.0
C2607 C 0.62257 0.92652 0.38367 0.0
H2608 H 0.63769 0.86302 0.34098 0.0
C2609 C 0.63642 0.73322 0.38322 0.0
C2610 C 0.65196 0.71801 0.37353 0.0
C2611 C 0.63034 0.77818 0.38179 0.0
C2612 C 0.63371 0.88034 0.35307 0.0
H2613 H 0.58362 0.06982 0.38172 0.0
H2614 H 0.59342 0.99088 0.38393 0.0
H2615 H 0.62845 0.94242 0.33918 0.0
H2616 H 0.6729 0.738 0.35429 0.0
H2617 H 0.66258 0.81637 0.35208 0.0
H2618 H 0.62792 0.86456 0.39758 0.0
C2619 C 0.60144 0.01372 0.37566 0.0
C2620 C 0.62842 0.92592 0.35203 0.0
C2621 C 0.5957 0.05889 0.37425 0.0
C2622 C 0.66104 0.74867 0.36213 0.0
C2623 C 0.65497 0.79355 0.3607 0.0
C2624 C 0.6279 0.88097 0.38472 0.0
C2625 C 0.61703 0.99802 0.36618 0.0
C2626 C 0.6228 0.9496 0.36732 0.0
C2627 C 0.63962 0.80902 0.3706 0.0
C2628 C 0.63356 0.85728 0.36943 0.0
H2629 H 0.62894 0.09671 0.3455 0.0
H2630 H 0.6391 0.01795 0.34813 0.0
H2631 H 0.61856 0.9439 0.39575 0.0
H2632 H 0.62919 0.71064 0.39223 0.0
H2633 H 0.61833 0.78875 0.38944 0.0
C2634 C 0.38117 0.93642 0.35291 0.0
C2635 C 0.39779 0.92074 0.36066 0.0
C2636 C 0.37559 0.98163 0.35495 0.0
C2637 C 0.38299 0.08369 0.38287 0.0
H2638 H 0.36316 0.14766 0.34205 0.0
C2639 C 0.3696 0.27725 0.38393 0.0
C2640 C 0.35294 0.29254 0.37614 0.0
C2641 C 0.37544 0.23227 0.38177 0.0
C2642 C 0.3685 0.13021 0.35364 0.0
H2643 H 0.42126 0.94012 0.37713 0.0
H2644 H 0.41171 0.0189 0.38047 0.0
H2645 H 0.37203 0.0682 0.33925 0.0
H2646 H 0.3297 0.27277 0.35943 0.0
H2647 H 0.33969 0.19441 0.35591 0.0
H2648 H 0.37943 0.14567 0.39727 0.0
C2649 C 0.40291 0.99627 0.37287 0.0
C2650 C 0.37356 0.08457 0.35204 0.0
C2651 C 0.4085 0.95117 0.37079 0.0
C2652 C 0.34249 0.26202 0.36581 0.0
C2653 C 0.34833 0.21714 0.36362 0.0
C2654 C 0.37792 0.12932 0.38448 0.0
C2655 C 0.38646 0.01222 0.36486 0.0
C2656 C 0.38086 0.06069 0.36664 0.0
C2657 C 0.36479 0.20153 0.3717 0.0
C2658 C 0.37059 0.15318 0.36988 0.0
H2659 H 0.37266 0.91402 0.34491 0.0
H2660 H 0.36273 0.9926 0.34878 0.0
H2661 H 0.38833 0.06621 0.39446 0.0
H2662 H 0.37792 0.29974 0.39207 0.0
H2663 H 0.38831 0.22157 0.38799 0.0
C2664 C 0.34463 0.75853 0.86253 0.0
C2665 C 0.3543 0.72816 0.87362 0.0
C2666 C 0.35057 0.8034 0.86066 0.0
C2667 C 0.37865 0.8915 0.88318 0.0
H2668 H 0.37532 0.95252 0.83767 0.0
C2669 C 0.40951 0.07008 0.87085 0.0
C2670 C 0.39914 0.10038 0.86032 0.0
C2671 C 0.40399 0.02485 0.87267 0.0
C2672 C 0.37613 0.93615 0.85052 0.0
H2673 H 0.37805 0.72123 0.8912 0.0
H2674 H 0.38869 0.79935 0.88763 0.0
H2675 H 0.36654 0.87293 0.84002 0.0
H2676 H 0.37471 0.10681 0.84358 0.0
H2677 H 0.36492 0.02795 0.84695 0.0
H2678 H 0.3883 0.95476 0.89366 0.0
C2679 C 0.3763 0.78856 0.88059 0.0
C2680 C 0.37111 0.89045 0.85187 0.0
C2681 C 0.37034 0.74359 0.88247 0.0
C2682 C 0.38294 0.08447 0.85188 0.0
C2683 C 0.37745 0.03914 0.85365 0.0
C2684 C 0.38371 0.93719 0.88182 0.0
C2685 C 0.36639 0.81916 0.86977 0.0
C2686 C 0.37225 0.86753 0.86823 0.0
C2687 C 0.38798 1.00869 0.86398 0.0
C2688 C 0.38247 0.96012 0.86548 0.0
H2689 H 0.33236 0.74768 0.85533 0.0
H2690 H 0.34248 0.82601 0.85235 0.0
H2691 H 0.3794 0.87522 0.89606 0.0
H2692 H 0.42194 0.08132 0.87769 0.0
H2693 H 0.4125 1.00231 0.88062 0.0
C2694 C 0.66116 0.2705 0.8625 0.0
C2695 C 0.65191 0.30107 0.8738 0.0
C2696 C 0.65515 0.2256 0.86097 0.0
C2697 C 0.62789 0.13792 0.88464 0.0
H2698 H 0.629 0.07678 0.83908 0.0
C2699 C 0.59592 0.95999 0.87378 0.0
C2700 C 0.6057 0.92944 0.86288 0.0
C2701 C 0.60165 1.00512 0.8753 0.0
C2702 C 0.62881 0.09318 0.85194 0.0
H2703 H 0.62889 0.30827 0.89223 0.0
H2704 H 0.61814 0.23012 0.88928 0.0
H2705 H 0.63816 0.15619 0.84102 0.0
H2706 H 0.6293 0.9225 0.84512 0.0
H2707 H 0.63947 1.00117 0.84796 0.0
H2708 H 0.61849 0.07488 0.89554 0.0
C2709 C 0.63024 0.24078 0.88177 0.0
C2710 C 0.63405 0.13877 0.85306 0.0
C2711 C 0.63626 0.28576 0.8833 0.0
C2712 C 0.62153 0.94502 0.85373 0.0
C2713 C 0.62723 0.99025 0.85519 0.0
C2714 C 0.62262 0.09234 0.88352 0.0
C2715 C 0.63969 0.21002 0.87068 0.0
C2716 C 0.6337 0.16173 0.86943 0.0
C2717 C 0.61729 0.02093 0.86592 0.0
C2718 C 0.62304 0.06937 0.86716 0.0
H2719 H 0.67312 0.28124 0.85481 0.0
H2720 H 0.66289 0.20285 0.85243 0.0
H2721 H 0.62774 0.15424 0.89752 0.0
H2722 H 0.5838 0.949 0.88118 0.0
H2723 H 0.59359 0.02786 0.88356 0.0
C2724 C 0.37326 0.94738 0.63756 0.0
C2725 C 0.35564 0.92662 0.63854 0.0
C2726 C 0.37491 0.99402 0.63444 0.0
C2727 C 0.34819 0.09427 0.61793 0.0
H2728 H 0.38869 0.16106 0.63972 0.0
C2729 C 0.35577 0.28944 0.61091 0.0
C2730 C 0.37344 0.30356 0.60513 0.0
C2731 C 0.35299 0.24481 0.6168 0.0
C2732 C 0.37731 0.14284 0.63354 0.0
H2733 H 0.32591 0.93932 0.63666 0.0
H2734 H 0.32875 0.0205 0.63204 0.0
H2735 H 0.38495 0.08054 0.64613 0.0
H2736 H 0.40219 0.28305 0.60173 0.0
H2737 H 0.39746 0.20565 0.61233 0.0
H2738 H 0.34052 0.15699 0.6055 0.0
C2739 C 0.34137 1.00066 0.63334 0.0
C2740 C 0.37522 0.09653 0.6371 0.0
C2741 C 0.33973 0.95396 0.63627 0.0
C2742 C 0.38842 0.27297 0.6061 0.0
C2743 C 0.38572 0.22874 0.61223 0.0
C2744 C 0.35016 0.14072 0.61455 0.0
C2745 C 0.35899 0.02145 0.63239 0.0
C2746 C 0.36077 0.07136 0.62916 0.0
C2747 C 0.36791 0.21381 0.6173 0.0
C2748 C 0.36488 0.16541 0.62214 0.0
H2749 H 0.38586 0.92776 0.63945 0.0
H2750 H 0.38875 1.00843 0.63351 0.0
H2751 H 0.33706 0.07615 0.61132 0.0
H2752 H 0.34398 0.3123 0.61018 0.0
H2753 H 0.33913 0.23434 0.62074 0.0
C2754 C 0.65426 0.74685 0.61389 0.0
C2755 C 0.6398 0.71803 0.60842 0.0
C2756 C 0.65043 0.79142 0.61915 0.0
C2757 C 0.61651 0.88165 0.61065 0.0
H2758 H 0.64006 0.94289 0.65026 0.0
C2759 C 0.59545 0.06281 0.63131 0.0
C2760 C 0.60908 0.09229 0.63815 0.0
C2761 C 0.59961 0.01742 0.62777 0.0
C2762 C 0.63357 0.92655 0.63898 0.0
H2763 H 0.61008 0.71241 0.60438 0.0
H2764 H 0.60328 0.79042 0.6136 0.0
H2765 H 0.64602 0.86233 0.64527 0.0
H2766 H 0.63802 0.09703 0.64614 0.0
H2767 H 0.64549 0.01803 0.63942 0.0
H2768 H 0.60439 0.94566 0.60403 0.0
C2769 C 0.61757 0.77862 0.6139 0.0
C2770 C 0.63691 0.88025 0.63619 0.0
C2771 C 0.62139 0.73389 0.60884 0.0
C2772 C 0.6272 0.07542 0.64079 0.0
C2773 C 0.63141 0.02988 0.63717 0.0
C2774 C 0.61331 0.92792 0.61332 0.0
C2775 C 0.6321 0.80824 0.61872 0.0
C2776 C 0.62832 0.8572 0.62205 0.0
C2777 C 0.61759 1.0001 0.6308 0.0
C2778 C 0.62168 0.95105 0.62759 0.0
H2779 H 0.6686 0.73546 0.61335 0.0
H2780 H 0.66195 0.8134 0.62264 0.0
H2781 H 0.61 0.86518 0.59939 0.0
H2782 H 0.5814 0.07469 0.62884 0.0
H2783 H 0.58852 0.99567 0.62306 0.0
loop_
_geom_bond_atom_site_label_1
_geom_bond_atom_site_label_2
_geom_bond_distance
_geom_bond_site_symmetry_2
_ccdc_geom_bond_type
Eu0 N29 2.600 . S
Eu0 N35 2.562 . S
Eu0 O44 2.462 . S
Eu0 O45 2.373 . S
Eu0 O47 2.432 . S
Eu0 O48 2.291 . S
Eu0 O52 2.335 . S
Eu0 O55 2.372 . S
Eu0 C64 2.787 . S
C1 N2 1.365 . S
C1 C4 1.405 . S
C1 C8 1.448 . S
N2 C1 1.365 . S
N2 C5 1.319 . S
N2 Eu11 2.600 . S
C3 C5 1.397 . S
C3 C6 1.367 . S
C3 H23 0.931 . S
C4 C1 1.405 . S
C4 C6 1.403 . S
C4 C10 1.439 . S
C5 N2 1.319 . S
C5 C3 1.397 . S
C5 H16 0.930 . S
C6 C3 1.367 . S
C6 C4 1.403 . S
C6 H27 0.929 . S
C7 C8 1.430 . S
C7 C9 1.387 . S
C7 C13 1.404 . S
C8 C1 1.448 . S
C8 C7 1.430 . S
C8 N12 1.351 . S
C9 C7 1.387 . S
C9 C10 1.374 . S
C9 H24 0.931 . S
C10 C4 1.439 . S
C10 C9 1.374 . S
C10 H25 0.931 . S
Eu11 N2 2.600 . S
Eu11 N12 2.562 . S
Eu11 O46 2.335 . S
Eu11 O49 2.372 . S
Eu11 O50 2.462 1_545 S
Eu11 O51 2.373 . S
Eu11 O53 2.432 1_545 S
Eu11 O54 2.291 . S
Eu11 C75 2.787 1_545 S
N12 C8 1.351 . S
N12 Eu11 2.562 . S
N12 C14 1.325 . S
C13 C7 1.404 . S
C13 C15 1.366 . S
C13 H21 0.930 . S
C14 N12 1.325 . S
C14 C15 1.416 . S
C14 H20 0.929 . S
C15 C13 1.366 . S
C15 C14 1.416 . S
C15 H17 0.930 . S
H16 C5 0.930 . S
H17 C15 0.930 . S
H18 C33 0.930 . S
H19 C40 0.930 . S
H20 C14 0.929 . S
H21 C13 0.930 . S
H22 C36 0.929 . S
H23 C3 0.931 . S
H24 C9 0.931 . S
H25 C10 0.931 . S
H26 C31 0.931 . S
H27 C6 0.929 . S
H28 C39 0.930 . S
N29 Eu0 2.600 . S
N29 C30 1.365 . S
N29 C33 1.319 . S
C30 N29 1.365 . S
C30 C32 1.405 . S
C30 C38 1.448 . S
C31 H26 0.931 . S
C31 C33 1.397 . S
C31 C34 1.367 . S
C32 C30 1.405 . S
C32 C34 1.403 . S
C32 C65 1.439 . S
C33 H18 0.930 . S
C33 N29 1.319 . S
C33 C31 1.397 . S
C34 C31 1.367 . S
C34 C32 1.403 . S
C34 H41 0.929 . S
N35 Eu0 2.562 . S
N35 C36 1.325 . S
N35 C38 1.351 . S
C36 H22 0.929 . S
C36 N35 1.325 . S
C36 C40 1.416 . S
C37 C38 1.430 . S
C37 C39 1.404 . S
C37 C66 1.387 . S
C38 C30 1.448 . S
C38 N35 1.351 . S
C38 C37 1.430 . S
C39 H28 0.930 . S
C39 C37 1.404 . S
C39 C40 1.366 . S
C40 H19 0.930 . S
C40 C36 1.416 . S
C40 C39 1.366 . S
H41 C34 0.929 . S
H42 C65 0.931 . S
H43 C66 0.931 . S
O44 Eu0 2.462 . S
O44 C64 1.252 . S
O45 Eu0 2.373 . S
O45 C56 1.249 . S
O46 Eu11 2.335 . S
O46 C56 1.264 . S
O47 Eu0 2.432 . S
O47 C64 1.268 . S
O48 Eu0 2.291 . S
O48 C63 1.255 . S
O49 Eu11 2.372 . S
O49 C63 1.257 . S
O50 Eu11 2.462 1_565 S
O50 C75 1.252 . S
O51 Eu11 2.373 . S
O51 C67 1.249 . S
O52 Eu0 2.335 . S
O52 C67 1.264 . S
O53 Eu11 2.432 1_565 S
O53 C75 1.268 . S
O54 Eu11 2.291 . S
O54 C74 1.255 . S
O55 Eu0 2.372 . S
O55 C74 1.257 . S
C56 O45 1.249 . S
C56 O46 1.264 . S
C57 C60 1.382 . S
C57 C62 1.390 . S
C57 C64 1.506 . S
C58 C59 1.398 . S
C58 C62 1.392 . S
C59 C58 1.398 . S
C59 C61 1.372 . S
C59 H76 0.931 . S
C60 C57 1.382 . S
C60 C61 1.390 . S
C60 H77 0.931 . S
C61 C59 1.372 . S
C61 C60 1.390 . S
C61 H78 0.929 . S
C62 C57 1.390 . S
C62 C58 1.392 . S
C62 H79 0.930 . S
C63 O48 1.255 . S
C63 O49 1.257 . S
C64 Eu0 2.787 . S
C64 O44 1.252 . S
C64 O47 1.268 . S
C64 C57 1.506 . S
C65 C32 1.439 . S
C65 H42 0.931 . S
C65 C66 1.374 . S
C66 C37 1.387 . S
C66 H43 0.931 . S
C66 C65 1.374 . S
C67 O51 1.249 . S
C67 O52 1.264 . S
C68 C71 1.382 . S
C68 C72 1.390 . S
C68 C75 1.506 . S
C69 C70 1.398 . S
C69 C72 1.392 . S
C70 C69 1.398 . S
C70 C73 1.372 . S
C70 H80 0.931 . S
C71 C68 1.382 . S
C71 C73 1.390 . S
C71 H81 0.931 . S
C72 C68 1.390 . S
C72 C69 1.392 . S
C72 H82 0.930 . S
C73 C70 1.372 . S
C73 C71 1.390 . S
C73 H83 0.929 . S
C74 O54 1.255 . S
C74 O55 1.257 . S
C75 Eu11 2.787 1_565 S
C75 O50 1.252 . S
C75 O53 1.268 . S
C75 C68 1.506 . S
H76 C59 0.931 . S
H77 C60 0.931 . S
H78 C61 0.929 . S
H79 C62 0.930 . S
H80 C70 0.931 . S
H81 C71 0.931 . S
H82 C72 0.930 . S
H83 C73 0.929 . S
Eu84 N113 2.600 . S
Eu84 N119 2.562 . S
Eu84 O128 2.462 . S
Eu84 O129 2.373 . S
Eu84 O131 2.432 . S
Eu84 O132 2.291 . S
Eu84 O136 2.335 . S
Eu84 O139 2.372 . S
Eu84 C148 2.787 . S
C85 N86 1.365 . S
C85 C88 1.405 . S
C85 C92 1.448 . S
N86 C85 1.365 . S
N86 C89 1.319 . S
N86 Eu95 2.600 . S
C87 C89 1.397 . S
C87 C90 1.367 . S
C87 H107 0.931 . S
C88 C85 1.405 . S
C88 C90 1.403 . S
C88 C94 1.439 . S
C89 N86 1.319 . S
C89 C87 1.397 . S
C89 H100 0.930 . S
C90 C87 1.367 . S
C90 C88 1.403 . S
C90 H111 0.929 . S
C91 C92 1.430 . S
C91 C93 1.387 . S
C91 C97 1.404 . S
C92 C85 1.448 . S
C92 C91 1.430 . S
C92 N96 1.351 . S
C93 C91 1.387 . S
C93 C94 1.374 . S
C93 H108 0.931 . S
C94 C88 1.439 . S
C94 C93 1.374 . S
C94 H109 0.931 . S
Eu95 N86 2.600 . S
Eu95 N96 2.562 . S
Eu95 O130 2.335 . S
Eu95 O133 2.372 . S
Eu95 O134 2.462 1_565 S
Eu95 O135 2.373 . S
Eu95 O137 2.432 1_565 S
Eu95 O138 2.291 . S
Eu95 C159 2.787 1_565 S
N96 C92 1.351 . S
N96 Eu95 2.562 . S
N96 C98 1.325 . S
C97 C91 1.404 . S
C97 C99 1.366 . S
C97 H105 0.930 . S
C98 N96 1.325 . S
C98 C99 1.416 . S
C98 H104 0.929 . S
C99 C97 1.366 . S
C99 C98 1.416 . S
C99 H101 0.930 . S
H100 C89 0.930 . S
H101 C99 0.930 . S
H102 C117 0.930 . S
H103 C124 0.930 . S
H104 C98 0.929 . S
H105 C97 0.930 . S
H106 C120 0.929 . S
H107 C87 0.931 . S
H108 C93 0.931 . S
H109 C94 0.931 . S
H110 C115 0.931 . S
H111 C90 0.929 . S
H112 C123 0.930 . S
N113 Eu84 2.600 . S
N113 C114 1.365 . S
N113 C117 1.319 . S
C114 N113 1.365 . S
C114 C116 1.405 . S
C114 C122 1.448 . S
C115 H110 0.931 . S
C115 C117 1.397 . S
C115 C118 1.367 . S
C116 C114 1.405 . S
C116 C118 1.403 . S
C116 C149 1.439 . S
C117 H102 0.930 . S
C117 N113 1.319 . S
C117 C115 1.397 . S
C118 C115 1.367 . S
C118 C116 1.403 . S
C118 H125 0.929 . S
N119 Eu84 2.562 . S
N119 C120 1.325 . S
N119 C122 1.351 . S
C120 H106 0.929 . S
C120 N119 1.325 . S
C120 C124 1.416 . S
C121 C122 1.430 . S
C121 C123 1.404 . S
C121 C150 1.387 . S
C122 C114 1.448 . S
C122 N119 1.351 . S
C122 C121 1.430 . S
C123 H112 0.930 . S
C123 C121 1.404 . S
C123 C124 1.366 . S
C124 H103 0.930 . S
C124 C120 1.416 . S
C124 C123 1.366 . S
H125 C118 0.929 . S
H126 C149 0.931 . S
H127 C150 0.931 . S
O128 Eu84 2.462 . S
O128 C148 1.252 . S
O129 Eu84 2.373 . S
O129 C140 1.249 . S
O130 Eu95 2.335 . S
O130 C140 1.264 . S
O131 Eu84 2.432 . S
O131 C148 1.268 . S
O132 Eu84 2.291 . S
O132 C147 1.255 . S
O133 Eu95 2.372 . S
O133 C147 1.257 . S
O134 Eu95 2.462 1_545 S
O134 C159 1.252 . S
O135 Eu95 2.373 . S
O135 C151 1.249 . S
O136 Eu84 2.335 . S
O136 C151 1.264 . S
O137 Eu95 2.432 1_545 S
O137 C159 1.268 . S
O138 Eu95 2.291 . S
O138 C158 1.255 . S
O139 Eu84 2.372 . S
O139 C158 1.257 . S
C140 O129 1.249 . S
C140 O130 1.264 . S
C141 C144 1.382 . S
C141 C146 1.390 . S
C141 C148 1.506 . S
C142 C143 1.398 . S
C142 C146 1.392 . S
C143 C142 1.398 . S
C143 C145 1.372 . S
C143 H160 0.931 . S
C144 C141 1.382 . S
C144 C145 1.390 . S
C144 H161 0.931 . S
C145 C143 1.372 . S
C145 C144 1.390 . S
C145 H162 0.929 . S
C146 C141 1.390 . S
C146 C142 1.392 . S
C146 H163 0.930 . S
C147 O132 1.255 . S
C147 O133 1.257 . S
C148 Eu84 2.787 . S
C148 O128 1.252 . S
C148 O131 1.268 . S
C148 C141 1.506 . S
C149 C116 1.439 . S
C149 H126 0.931 . S
C149 C150 1.374 . S
C150 C121 1.387 . S
C150 H127 0.931 . S
C150 C149 1.374 . S
C151 O135 1.249 . S
C151 O136 1.264 . S
C152 C155 1.382 . S
C152 C156 1.390 . S
C152 C159 1.506 . S
C153 C154 1.398 . S
C153 C156 1.392 . S
C154 C153 1.398 . S
C154 C157 1.372 . S
C154 H164 0.931 . S
C155 C152 1.382 . S
C155 C157 1.390 . S
C155 H165 0.931 . S
C156 C152 1.390 . S
C156 C153 1.392 . S
C156 H166 0.930 . S
C157 C154 1.372 . S
C157 C155 1.390 . S
C157 H167 0.929 . S
C158 O138 1.255 . S
C158 O139 1.257 . S
C159 Eu95 2.787 1_545 S
C159 O134 1.252 . S
C159 O137 1.268 . S
C159 C152 1.506 . S
H160 C143 0.931 . S
H161 C144 0.931 . S
H162 C145 0.929 . S
H163 C146 0.930 . S
H164 C154 0.931 . S
H165 C155 0.931 . S
H166 C156 0.930 . S
H167 C157 0.929 . S
Eu168 N197 2.600 . S
Eu168 N203 2.562 . S
Eu168 O212 2.462 . S
Eu168 O213 2.373 . S
Eu168 O215 2.432 . S
Eu168 O216 2.291 . S
Eu168 O220 2.335 . S
Eu168 O223 2.372 . S
Eu168 C232 2.787 . S
C169 N170 1.365 . S
C169 C172 1.405 . S
C169 C176 1.448 . S
N170 C169 1.365 . S
N170 C173 1.319 . S
N170 Eu179 2.600 . S
C171 C173 1.397 . S
C171 C174 1.367 . S
C171 H191 0.931 . S
C172 C169 1.405 . S
C172 C174 1.403 . S
C172 C178 1.439 . S
C173 N170 1.319 . S
C173 C171 1.397 . S
C173 H184 0.930 . S
C174 C171 1.367 . S
C174 C172 1.403 . S
C174 H195 0.929 . S
C175 C176 1.430 . S
C175 C177 1.387 . S
C175 C181 1.404 . S
C176 C169 1.448 . S
C176 C175 1.430 . S
C176 N180 1.351 . S
C177 C175 1.387 . S
C177 C178 1.374 . S
C177 H192 0.931 . S
C178 C172 1.439 . S
C178 C177 1.374 . S
C178 H193 0.931 . S
Eu179 N170 2.600 . S
Eu179 N180 2.562 . S
Eu179 O214 2.335 . S
Eu179 O217 2.372 . S
Eu179 O218 2.462 1_565 S
Eu179 O219 2.373 . S
Eu179 O221 2.432 1_565 S
Eu179 O222 2.291 . S
Eu179 C243 2.787 1_565 S
N180 C176 1.351 . S
N180 Eu179 2.562 . S
N180 C182 1.325 . S
C181 C175 1.404 . S
C181 C183 1.366 . S
C181 H189 0.930 . S
C182 N180 1.325 . S
C182 C183 1.416 . S
C182 H188 0.929 . S
C183 C181 1.366 . S
C183 C182 1.416 . S
C183 H185 0.930 . S
H184 C173 0.930 . S
H185 C183 0.930 . S
H186 C201 0.930 . S
H187 C208 0.930 . S
H188 C182 0.929 . S
H189 C181 0.930 . S
H190 C204 0.929 . S
H191 C171 0.931 . S
H192 C177 0.931 . S
H193 C178 0.931 . S
H194 C199 0.931 . S
H195 C174 0.929 . S
H196 C207 0.930 . S
N197 Eu168 2.600 . S
N197 C198 1.365 . S
N197 C201 1.319 . S
C198 N197 1.365 . S
C198 C200 1.405 . S
C198 C206 1.448 . S
C199 H194 0.931 . S
C199 C201 1.397 . S
C199 C202 1.367 . S
C200 C198 1.405 . S
C200 C202 1.403 . S
C200 C233 1.439 . S
C201 H186 0.930 . S
C201 N197 1.319 . S
C201 C199 1.397 . S
C202 C199 1.367 . S
C202 C200 1.403 . S
C202 H209 0.929 . S
N203 Eu168 2.562 . S
N203 C204 1.325 . S
N203 C206 1.351 . S
C204 H190 0.929 . S
C204 N203 1.325 . S
C204 C208 1.416 . S
C205 C206 1.430 . S
C205 C207 1.404 . S
C205 C234 1.387 . S
C206 C198 1.448 . S
C206 N203 1.351 . S
C206 C205 1.430 . S
C207 H196 0.930 . S
C207 C205 1.404 . S
C207 C208 1.366 . S
C208 H187 0.930 . S
C208 C204 1.416 . S
C208 C207 1.366 . S
H209 C202 0.929 . S
H210 C233 0.931 . S
H211 C234 0.931 . S
O212 Eu168 2.462 . S
O212 C232 1.252 . S
O213 Eu168 2.373 . S
O213 C224 1.249 . S
O214 Eu179 2.335 . S
O214 C224 1.264 . S
O215 Eu168 2.432 . S
O215 C232 1.268 . S
O216 Eu168 2.291 . S
O216 C231 1.255 . S
O217 Eu179 2.372 . S
O217 C231 1.257 . S
O218 Eu179 2.462 1_545 S
O218 C243 1.252 . S
O219 Eu179 2.373 . S
O219 C235 1.249 . S
O220 Eu168 2.335 . S
O220 C235 1.264 . S
O221 Eu179 2.432 1_545 S
O221 C243 1.268 . S
O222 Eu179 2.291 . S
O222 C242 1.255 . S
O223 Eu168 2.372 . S
O223 C242 1.257 . S
C224 O213 1.249 . S
C224 O214 1.264 . S
C225 C228 1.382 . S
C225 C230 1.390 . S
C225 C232 1.506 . S
C226 C227 1.398 . S
C226 C230 1.392 . S
C227 C226 1.398 . S
C227 C229 1.372 . S
C227 H244 0.931 . S
C228 C225 1.382 . S
C228 C229 1.390 . S
C228 H245 0.931 . S
C229 C227 1.372 . S
C229 C228 1.390 . S
C229 H246 0.929 . S
C230 C225 1.390 . S
C230 C226 1.392 . S
C230 H247 0.930 . S
C231 O216 1.255 . S
C231 O217 1.257 . S
C232 Eu168 2.787 . S
C232 O212 1.252 . S
C232 O215 1.268 . S
C232 C225 1.506 . S
C233 C200 1.439 . S
C233 H210 0.931 . S
C233 C234 1.374 . S
C234 C205 1.387 . S
C234 H211 0.931 . S
C234 C233 1.374 . S
C235 O219 1.249 . S
C235 O220 1.264 . S
C236 C239 1.382 . S
C236 C240 1.390 . S
C236 C243 1.506 . S
C237 C238 1.398 . S
C237 C240 1.392 . S
C238 C237 1.398 . S
C238 C241 1.372 . S
C238 H248 0.931 . S
C239 C236 1.382 . S
C239 C241 1.390 . S
C239 H249 0.931 . S
C240 C236 1.390 . S
C240 C237 1.392 . S
C240 H250 0.930 . S
C241 C238 1.372 . S
C241 C239 1.390 . S
C241 H251 0.929 . S
C242 O222 1.255 . S
C242 O223 1.257 . S
C243 Eu179 2.787 1_545 S
C243 O218 1.252 . S
C243 O221 1.268 . S
C243 C236 1.506 . S
H244 C227 0.931 . S
H245 C228 0.931 . S
H246 C229 0.929 . S
H247 C230 0.930 . S
H248 C238 0.931 . S
H249 C239 0.931 . S
H250 C240 0.930 . S
H251 C241 0.929 . S
Eu252 N281 2.600 . S
Eu252 N287 2.562 . S
Eu252 O296 2.462 . S
Eu252 O297 2.373 . S
Eu252 O299 2.432 . S
Eu252 O300 2.291 . S
Eu252 O304 2.335 . S
Eu252 O307 2.372 . S
Eu252 C316 2.787 . S
C253 N254 1.365 . S
C253 C256 1.405 . S
C253 C260 1.448 . S
N254 C253 1.365 . S
N254 C257 1.319 . S
N254 Eu263 2.600 . S
C255 C257 1.397 . S
C255 C258 1.367 . S
C255 H275 0.931 . S
C256 C253 1.405 . S
C256 C258 1.403 . S
C256 C262 1.439 . S
C257 N254 1.319 . S
C257 C255 1.397 . S
C257 H268 0.930 . S
C258 C255 1.367 . S
C258 C256 1.403 . S
C258 H279 0.929 . S
C259 C260 1.430 . S
C259 C261 1.387 . S
C259 C265 1.404 . S
C260 C253 1.448 . S
C260 C259 1.430 . S
C260 N264 1.351 . S
C261 C259 1.387 . S
C261 C262 1.374 . S
C261 H276 0.931 . S
C262 C256 1.439 . S
C262 C261 1.374 . S
C262 H277 0.931 . S
Eu263 N254 2.600 . S
Eu263 N264 2.562 . S
Eu263 O298 2.335 . S
Eu263 O301 2.372 . S
Eu263 O302 2.462 1_545 S
Eu263 O303 2.373 . S
Eu263 O305 2.432 1_545 S
Eu263 O306 2.291 . S
Eu263 C327 2.787 1_545 S
N264 C260 1.351 . S
N264 Eu263 2.562 . S
N264 C266 1.325 . S
C265 C259 1.404 . S
C265 C267 1.366 . S
C265 H273 0.930 . S
C266 N264 1.325 . S
C266 C267 1.416 . S
C266 H272 0.929 . S
C267 C265 1.366 . S
C267 C266 1.416 . S
C267 H269 0.930 . S
H268 C257 0.930 . S
H269 C267 0.930 . S
H270 C285 0.930 . S
H271 C292 0.930 . S
H272 C266 0.929 . S
H273 C265 0.930 . S
H274 C288 0.929 . S
H275 C255 0.931 . S
H276 C261 0.931 . S
H277 C262 0.931 . S
H278 C283 0.931 . S
H279 C258 0.929 . S
H280 C291 0.930 . S
N281 Eu252 2.600 . S
N281 C282 1.365 . S
N281 C285 1.319 . S
C282 N281 1.365 . S
C282 C284 1.405 . S
C282 C290 1.448 . S
C283 H278 0.931 . S
C283 C285 1.397 . S
C283 C286 1.367 . S
C284 C282 1.405 . S
C284 C286 1.403 . S
C284 C317 1.439 . S
C285 H270 0.930 . S
C285 N281 1.319 . S
C285 C283 1.397 . S
C286 C283 1.367 . S
C286 C284 1.403 . S
C286 H293 0.929 . S
N287 Eu252 2.562 . S
N287 C288 1.325 . S
N287 C290 1.351 . S
C288 H274 0.929 . S
C288 N287 1.325 . S
C288 C292 1.416 . S
C289 C290 1.430 . S
C289 C291 1.404 . S
C289 C318 1.387 . S
C290 C282 1.448 . S
C290 N287 1.351 . S
C290 C289 1.430 . S
C291 H280 0.930 . S
C291 C289 1.404 . S
C291 C292 1.366 . S
C292 H271 0.930 . S
C292 C288 1.416 . S
C292 C291 1.366 . S
H293 C286 0.929 . S
H294 C317 0.931 . S
H295 C318 0.931 . S
O296 Eu252 2.462 . S
O296 C316 1.252 . S
O297 Eu252 2.373 . S
O297 C308 1.249 . S
O298 Eu263 2.335 . S
O298 C308 1.264 . S
O299 Eu252 2.432 . S
O299 C316 1.268 . S
O300 Eu252 2.291 . S
O300 C315 1.255 . S
O301 Eu263 2.372 . S
O301 C315 1.257 . S
O302 Eu263 2.462 1_565 S
O302 C327 1.252 . S
O303 Eu263 2.373 . S
O303 C319 1.249 . S
O304 Eu252 2.335 . S
O304 C319 1.264 . S
O305 Eu263 2.432 1_565 S
O305 C327 1.268 . S
O306 Eu263 2.291 . S
O306 C326 1.255 . S
O307 Eu252 2.372 . S
O307 C326 1.257 . S
C308 O297 1.249 . S
C308 O298 1.264 . S
C309 C312 1.382 . S
C309 C314 1.390 . S
C309 C316 1.506 . S
C310 C311 1.398 . S
C310 C314 1.392 . S
C311 C310 1.398 . S
C311 C313 1.372 . S
C311 H328 0.931 . S
C312 C309 1.382 . S
C312 C313 1.390 . S
C312 H329 0.931 . S
C313 C311 1.372 . S
C313 C312 1.390 . S
C313 H330 0.929 . S
C314 C309 1.390 . S
C314 C310 1.392 . S
C314 H331 0.930 . S
C315 O300 1.255 . S
C315 O301 1.257 . S
C316 Eu252 2.787 . S
C316 O296 1.252 . S
C316 O299 1.268 . S
C316 C309 1.506 . S
C317 C284 1.439 . S
C317 H294 0.931 . S
C317 C318 1.374 . S
C318 C289 1.387 . S
C318 H295 0.931 . S
C318 C317 1.374 . S
C319 O303 1.249 . S
C319 O304 1.264 . S
C320 C323 1.382 . S
C320 C324 1.390 . S
C320 C327 1.506 . S
C321 C322 1.398 . S
C321 C324 1.392 . S
C322 C321 1.398 . S
C322 C325 1.372 . S
C322 H332 0.931 . S
C323 C320 1.382 . S
C323 C325 1.390 . S
C323 H333 0.931 . S
C324 C320 1.390 . S
C324 C321 1.392 . S
C324 H334 0.930 . S
C325 C322 1.372 . S
C325 C323 1.390 . S
C325 H335 0.929 . S
C326 O306 1.255 . S
C326 O307 1.257 . S
C327 Eu263 2.787 1_565 S
C327 O302 1.252 . S
C327 O305 1.268 . S
C327 C320 1.506 . S
H328 C311 0.931 . S
H329 C312 0.931 . S
H330 C313 0.929 . S
H331 C314 0.930 . S
H332 C322 0.931 . S
H333 C323 0.931 . S
H334 C324 0.930 . S
H335 C325 0.929 . S
Eu336 N365 2.600 . S
Eu336 N371 2.562 . S
Eu336 O380 2.462 1_565 S
Eu336 O381 2.373 . S
Eu336 O383 2.432 1_565 S
Eu336 O384 2.291 . S
Eu336 O388 2.335 . S
Eu336 O391 2.372 . S
Eu336 C400 2.787 1_565 S
C337 N338 1.365 . S
C337 C340 1.405 . S
C337 C344 1.448 . S
N338 C337 1.365 . S
N338 C341 1.319 . S
N338 Eu347 2.600 . S
C339 C341 1.397 . S
C339 C342 1.367 . S
C339 H359 0.931 . S
C340 C337 1.405 . S
C340 C342 1.403 . S
C340 C346 1.439 . S
C341 N338 1.319 . S
C341 C339 1.397 . S
C341 H352 0.930 . S
C342 C339 1.367 . S
C342 C340 1.403 . S
C342 H363 0.929 . S
C343 C344 1.430 . S
C343 C345 1.387 . S
C343 C349 1.404 . S
C344 C337 1.448 . S
C344 C343 1.430 . S
C344 N348 1.351 . S
C345 C343 1.387 . S
C345 C346 1.374 . S
C345 H360 0.931 . S
C346 C340 1.439 . S
C346 C345 1.374 . S
C346 H361 0.931 . S
Eu347 N338 2.600 . S
Eu347 N348 2.562 . S
Eu347 O382 2.335 . S
Eu347 O385 2.372 . S
Eu347 O386 2.462 . S
Eu347 O387 2.373 . S
Eu347 O389 2.432 . S
Eu347 O390 2.291 . S
Eu347 C411 2.787 . S
N348 C344 1.351 . S
N348 Eu347 2.562 . S
N348 C350 1.325 . S
C349 C343 1.404 . S
C349 C351 1.366 . S
C349 H357 0.930 . S
C350 N348 1.325 . S
C350 C351 1.416 . S
C350 H356 0.929 . S
C351 C349 1.366 . S
C351 C350 1.416 . S
C351 H353 0.930 . S
H352 C341 0.930 . S
H353 C351 0.930 . S
H354 C369 0.930 . S
H355 C376 0.930 . S
H356 C350 0.929 . S
H357 C349 0.930 . S
H358 C372 0.929 . S
H359 C339 0.931 . S
H360 C345 0.931 . S
H361 C346 0.931 . S
H362 C367 0.931 . S
H363 C342 0.929 . S
H364 C375 0.930 . S
N365 Eu336 2.600 . S
N365 C366 1.365 . S
N365 C369 1.319 . S
C366 N365 1.365 . S
C366 C368 1.405 . S
C366 C374 1.448 . S
C367 H362 0.931 . S
C367 C369 1.397 . S
C367 C370 1.367 . S
C368 C366 1.405 . S
C368 C370 1.403 . S
C368 C401 1.439 . S
C369 H354 0.930 . S
C369 N365 1.319 . S
C369 C367 1.397 . S
C370 C367 1.367 . S
C370 C368 1.403 . S
C370 H377 0.929 . S
N371 Eu336 2.562 . S
N371 C372 1.325 . S
N371 C374 1.351 . S
C372 H358 0.929 . S
C372 N371 1.325 . S
C372 C376 1.416 . S
C373 C374 1.430 . S
C373 C375 1.404 . S
C373 C402 1.387 . S
C374 C366 1.448 . S
C374 N371 1.351 . S
C374 C373 1.430 . S
C375 H364 0.930 . S
C375 C373 1.404 . S
C375 C376 1.366 . S
C376 H355 0.930 . S
C376 C372 1.416 . S
C376 C375 1.366 . S
H377 C370 0.929 . S
H378 C401 0.931 . S
H379 C402 0.931 . S
O380 Eu336 2.462 1_545 S
O380 C400 1.252 . S
O381 Eu336 2.373 . S
O381 C392 1.249 . S
O382 Eu347 2.335 . S
O382 C392 1.264 . S
O383 Eu336 2.432 1_545 S
O383 C400 1.268 . S
O384 Eu336 2.291 . S
O384 C399 1.255 . S
O385 Eu347 2.372 . S
O385 C399 1.257 . S
O386 Eu347 2.462 . S
O386 C411 1.252 . S
O387 Eu347 2.373 . S
O387 C403 1.249 . S
O388 Eu336 2.335 . S
O388 C403 1.264 . S
O389 Eu347 2.432 . S
O389 C411 1.268 . S
O390 Eu347 2.291 . S
O390 C410 1.255 . S
O391 Eu336 2.372 . S
O391 C410 1.257 . S
C392 O381 1.249 . S
C392 O382 1.264 . S
C393 C396 1.382 . S
C393 C398 1.390 . S
C393 C400 1.506 . S
C394 C395 1.398 . S
C394 C398 1.392 . S
C395 C394 1.398 . S
C395 C397 1.372 . S
C395 H412 0.931 . S
C396 C393 1.382 . S
C396 C397 1.390 . S
C396 H413 0.931 . S
C397 C395 1.372 . S
C397 C396 1.390 . S
C397 H414 0.929 . S
C398 C393 1.390 . S
C398 C394 1.392 . S
C398 H415 0.930 . S
C399 O384 1.255 . S
C399 O385 1.257 . S
C400 Eu336 2.787 1_545 S
C400 O380 1.252 . S
C400 O383 1.268 . S
C400 C393 1.506 . S
C401 C368 1.439 . S
C401 H378 0.931 . S
C401 C402 1.374 . S
C402 C373 1.387 . S
C402 H379 0.931 . S
C402 C401 1.374 . S
C403 O387 1.249 . S
C403 O388 1.264 . S
C404 C407 1.382 . S
C404 C408 1.390 . S
C404 C411 1.506 . S
C405 C406 1.398 . S
C405 C408 1.392 . S
C406 C405 1.398 . S
C406 C409 1.372 . S
C406 H416 0.931 . S
C407 C404 1.382 . S
C407 C409 1.390 . S
C407 H417 0.931 . S
C408 C404 1.390 . S
C408 C405 1.392 . S
C408 H418 0.930 . S
C409 C406 1.372 . S
C409 C407 1.390 . S
C409 H419 0.929 . S
C410 O390 1.255 . S
C410 O391 1.257 . S
C411 Eu347 2.787 . S
C411 O386 1.252 . S
C411 O389 1.268 . S
C411 C404 1.506 . S
H412 C395 0.931 . S
H413 C396 0.931 . S
H414 C397 0.929 . S
H415 C398 0.930 . S
H416 C406 0.931 . S
H417 C407 0.931 . S
H418 C408 0.930 . S
H419 C409 0.929 . S
Eu420 N449 2.600 . S
Eu420 N455 2.562 . S
Eu420 O464 2.462 1_545 S
Eu420 O465 2.373 . S
Eu420 O467 2.432 1_545 S
Eu420 O468 2.291 . S
Eu420 O472 2.335 . S
Eu420 O475 2.372 . S
Eu420 C484 2.787 1_545 S
C421 N422 1.365 . S
C421 C424 1.405 . S
C421 C428 1.448 . S
N422 C421 1.365 . S
N422 C425 1.319 . S
N422 Eu431 2.600 . S
C423 C425 1.397 . S
C423 C426 1.367 . S
C423 H443 0.931 . S
C424 C421 1.405 . S
C424 C426 1.403 . S
C424 C430 1.439 . S
C425 N422 1.319 . S
C425 C423 1.397 . S
C425 H436 0.930 . S
C426 C423 1.367 . S
C426 C424 1.403 . S
C426 H447 0.929 . S
C427 C428 1.430 . S
C427 C429 1.387 . S
C427 C433 1.404 . S
C428 C421 1.448 . S
C428 C427 1.430 . S
C428 N432 1.351 . S
C429 C427 1.387 . S
C429 C430 1.374 . S
C429 H444 0.931 . S
C430 C424 1.439 . S
C430 C429 1.374 . S
C430 H445 0.931 . S
Eu431 N422 2.600 . S
Eu431 N432 2.562 . S
Eu431 O466 2.335 . S
Eu431 O469 2.372 . S
Eu431 O470 2.462 . S
Eu431 O471 2.373 . S
Eu431 O473 2.432 . S
Eu431 O474 2.291 . S
Eu431 C495 2.787 . S
N432 C428 1.351 . S
N432 Eu431 2.562 . S
N432 C434 1.325 . S
C433 C427 1.404 . S
C433 C435 1.366 . S
C433 H441 0.930 . S
C434 N432 1.325 . S
C434 C435 1.416 . S
C434 H440 0.929 . S
C435 C433 1.366 . S
C435 C434 1.416 . S
C435 H437 0.930 . S
H436 C425 0.930 . S
H437 C435 0.930 . S
H438 C453 0.930 . S
H439 C460 0.930 . S
H440 C434 0.929 . S
H441 C433 0.930 . S
H442 C456 0.929 . S
H443 C423 0.931 . S
H444 C429 0.931 . S
H445 C430 0.931 . S
H446 C451 0.931 . S
H447 C426 0.929 . S
H448 C459 0.930 . S
N449 Eu420 2.600 . S
N449 C450 1.365 . S
N449 C453 1.319 . S
C450 N449 1.365 . S
C450 C452 1.405 . S
C450 C458 1.448 . S
C451 H446 0.931 . S
C451 C453 1.397 . S
C451 C454 1.367 . S
C452 C450 1.405 . S
C452 C454 1.403 . S
C452 C485 1.439 . S
C453 H438 0.930 . S
C453 N449 1.319 . S
C453 C451 1.397 . S
C454 C451 1.367 . S
C454 C452 1.403 . S
C454 H461 0.929 . S
N455 Eu420 2.562 . S
N455 C456 1.325 . S
N455 C458 1.351 . S
C456 H442 0.929 . S
C456 N455 1.325 . S
C456 C460 1.416 . S
C457 C458 1.430 . S
C457 C459 1.404 . S
C457 C486 1.387 . S
C458 C450 1.448 . S
C458 N455 1.351 . S
C458 C457 1.430 . S
C459 H448 0.930 . S
C459 C457 1.404 . S
C459 C460 1.366 . S
C460 H439 0.930 . S
C460 C456 1.416 . S
C460 C459 1.366 . S
H461 C454 0.929 . S
H462 C485 0.931 . S
H463 C486 0.931 . S
O464 Eu420 2.462 1_565 S
O464 C484 1.252 . S
O465 Eu420 2.373 . S
O465 C476 1.249 . S
O466 Eu431 2.335 . S
O466 C476 1.264 . S
O467 Eu420 2.432 1_565 S
O467 C484 1.268 . S
O468 Eu420 2.291 . S
O468 C483 1.255 . S
O469 Eu431 2.372 . S
O469 C483 1.257 . S
O470 Eu431 2.462 . S
O470 C495 1.252 . S
O471 Eu431 2.373 . S
O471 C487 1.249 . S
O472 Eu420 2.335 . S
O472 C487 1.264 . S
O473 Eu431 2.432 . S
O473 C495 1.268 . S
O474 Eu431 2.291 . S
O474 C494 1.255 . S
O475 Eu420 2.372 . S
O475 C494 1.257 . S
C476 O465 1.249 . S
C476 O466 1.264 . S
C477 C480 1.382 . S
C477 C482 1.390 . S
C477 C484 1.506 . S
C478 C479 1.398 . S
C478 C482 1.392 . S
C479 C478 1.398 . S
C479 C481 1.372 . S
C479 H496 0.931 . S
C480 C477 1.382 . S
C480 C481 1.390 . S
C480 H497 0.931 . S
C481 C479 1.372 . S
C481 C480 1.390 . S
C481 H498 0.929 . S
C482 C477 1.390 . S
C482 C478 1.392 . S
C482 H499 0.930 . S
C483 O468 1.255 . S
C483 O469 1.257 . S
C484 Eu420 2.787 1_565 S
C484 O464 1.252 . S
C484 O467 1.268 . S
C484 C477 1.506 . S
C485 C452 1.439 . S
C485 H462 0.931 . S
C485 C486 1.374 . S
C486 C457 1.387 . S
C486 H463 0.931 . S
C486 C485 1.374 . S
C487 O471 1.249 . S
C487 O472 1.264 . S
C488 C491 1.382 . S
C488 C492 1.390 . S
C488 C495 1.506 . S
C489 C490 1.398 . S
C489 C492 1.392 . S
C490 C489 1.398 . S
C490 C493 1.372 . S
C490 H500 0.931 . S
C491 C488 1.382 . S
C491 C493 1.390 . S
C491 H501 0.931 . S
C492 C488 1.390 . S
C492 C489 1.392 . S
C492 H502 0.930 . S
C493 C490 1.372 . S
C493 C491 1.390 . S
C493 H503 0.929 . S
C494 O474 1.255 . S
C494 O475 1.257 . S
C495 Eu431 2.787 . S
C495 O470 1.252 . S
C495 O473 1.268 . S
C495 C488 1.506 . S
H496 C479 0.931 . S
H497 C480 0.931 . S
H498 C481 0.929 . S
H499 C482 0.930 . S
H500 C490 0.931 . S
H501 C491 0.931 . S
H502 C492 0.930 . S
H503 C493 0.929 . S
Eu504 N533 2.600 . S
Eu504 N539 2.562 . S
Eu504 O548 2.462 1_545 S
Eu504 O549 2.373 . S
Eu504 O551 2.432 1_545 S
Eu504 O552 2.291 . S
Eu504 O556 2.335 . S
Eu504 O559 2.372 . S
Eu504 C568 2.787 1_545 S
C505 N506 1.365 . S
C505 C508 1.405 . S
C505 C512 1.448 . S
N506 C505 1.365 . S
N506 C509 1.319 . S
N506 Eu515 2.600 . S
C507 C509 1.397 . S
C507 C510 1.367 . S
C507 H527 0.931 . S
C508 C505 1.405 . S
C508 C510 1.403 . S
C508 C514 1.439 . S
C509 N506 1.319 . S
C509 C507 1.397 . S
C509 H520 0.930 . S
C510 C507 1.367 . S
C510 C508 1.403 . S
C510 H531 0.929 . S
C511 C512 1.430 . S
C511 C513 1.387 . S
C511 C517 1.404 . S
C512 C505 1.448 . S
C512 C511 1.430 . S
C512 N516 1.351 . S
C513 C511 1.387 . S
C513 C514 1.374 . S
C513 H528 0.931 . S
C514 C508 1.439 . S
C514 C513 1.374 . S
C514 H529 0.931 . S
Eu515 N506 2.600 . S
Eu515 N516 2.562 . S
Eu515 O550 2.335 . S
Eu515 O553 2.372 . S
Eu515 O554 2.462 . S
Eu515 O555 2.373 . S
Eu515 O557 2.432 . S
Eu515 O558 2.291 . S
Eu515 C579 2.787 . S
N516 C512 1.351 . S
N516 Eu515 2.562 . S
N516 C518 1.325 . S
C517 C511 1.404 . S
C517 C519 1.366 . S
C517 H525 0.930 . S
C518 N516 1.325 . S
C518 C519 1.416 . S
C518 H524 0.929 . S
C519 C517 1.366 . S
C519 C518 1.416 . S
C519 H521 0.930 . S
H520 C509 0.930 . S
H521 C519 0.930 . S
H522 C537 0.930 . S
H523 C544 0.930 . S
H524 C518 0.929 . S
H525 C517 0.930 . S
H526 C540 0.929 . S
H527 C507 0.931 . S
H528 C513 0.931 . S
H529 C514 0.931 . S
H530 C535 0.931 . S
H531 C510 0.929 . S
H532 C543 0.930 . S
N533 Eu504 2.600 . S
N533 C534 1.365 . S
N533 C537 1.319 . S
C534 N533 1.365 . S
C534 C536 1.405 . S
C534 C542 1.448 . S
C535 H530 0.931 . S
C535 C537 1.397 . S
C535 C538 1.367 . S
C536 C534 1.405 . S
C536 C538 1.403 . S
C536 C569 1.439 . S
C537 H522 0.930 . S
C537 N533 1.319 . S
C537 C535 1.397 . S
C538 C535 1.367 . S
C538 C536 1.403 . S
C538 H545 0.929 . S
N539 Eu504 2.562 . S
N539 C540 1.325 . S
N539 C542 1.351 . S
C540 H526 0.929 . S
C540 N539 1.325 . S
C540 C544 1.416 . S
C541 C542 1.430 . S
C541 C543 1.404 . S
C541 C570 1.387 . S
C542 C534 1.448 . S
C542 N539 1.351 . S
C542 C541 1.430 . S
C543 H532 0.930 . S
C543 C541 1.404 . S
C543 C544 1.366 . S
C544 H523 0.930 . S
C544 C540 1.416 . S
C544 C543 1.366 . S
H545 C538 0.929 . S
H546 C569 0.931 . S
H547 C570 0.931 . S
O548 Eu504 2.462 1_565 S
O548 C568 1.252 . S
O549 Eu504 2.373 . S
O549 C560 1.249 . S
O550 Eu515 2.335 . S
O550 C560 1.264 . S
O551 Eu504 2.432 1_565 S
O551 C568 1.268 . S
O552 Eu504 2.291 . S
O552 C567 1.255 . S
O553 Eu515 2.372 . S
O553 C567 1.257 . S
O554 Eu515 2.462 . S
O554 C579 1.252 . S
O555 Eu515 2.373 . S
O555 C571 1.249 . S
O556 Eu504 2.335 . S
O556 C571 1.264 . S
O557 Eu515 2.432 . S
O557 C579 1.268 . S
O558 Eu515 2.291 . S
O558 C578 1.255 . S
O559 Eu504 2.372 . S
O559 C578 1.257 . S
C560 O549 1.249 . S
C560 O550 1.264 . S
C561 C564 1.382 . S
C561 C566 1.390 . S
C561 C568 1.506 . S
C562 C563 1.398 . S
C562 C566 1.392 . S
C563 C562 1.398 . S
C563 C565 1.372 . S
C563 H580 0.931 . S
C564 C561 1.382 . S
C564 C565 1.390 . S
C564 H581 0.931 . S
C565 C563 1.372 . S
C565 C564 1.390 . S
C565 H582 0.929 . S
C566 C561 1.390 . S
C566 C562 1.392 . S
C566 H583 0.930 . S
C567 O552 1.255 . S
C567 O553 1.257 . S
C568 Eu504 2.787 1_565 S
C568 O548 1.252 . S
C568 O551 1.268 . S
C568 C561 1.506 . S
C569 C536 1.439 . S
C569 H546 0.931 . S
C569 C570 1.374 . S
C570 C541 1.387 . S
C570 H547 0.931 . S
C570 C569 1.374 . S
C571 O555 1.249 . S
C571 O556 1.264 . S
C572 C575 1.382 . S
C572 C576 1.390 . S
C572 C579 1.506 . S
C573 C574 1.398 . S
C573 C576 1.392 . S
C574 C573 1.398 . S
C574 C577 1.372 . S
C574 H584 0.931 . S
C575 C572 1.382 . S
C575 C577 1.390 . S
C575 H585 0.931 . S
C576 C572 1.390 . S
C576 C573 1.392 . S
C576 H586 0.930 . S
C577 C574 1.372 . S
C577 C575 1.390 . S
C577 H587 0.929 . S
C578 O558 1.255 . S
C578 O559 1.257 . S
C579 Eu515 2.787 . S
C579 O554 1.252 . S
C579 O557 1.268 . S
C579 C572 1.506 . S
H580 C563 0.931 . S
H581 C564 0.931 . S
H582 C565 0.929 . S
H583 C566 0.930 . S
H584 C574 0.931 . S
H585 C575 0.931 . S
H586 C576 0.930 . S
H587 C577 0.929 . S
Eu588 N617 2.600 . S
Eu588 N623 2.562 . S
Eu588 O632 2.462 1_565 S
Eu588 O633 2.373 . S
Eu588 O635 2.432 1_565 S
Eu588 O636 2.291 . S
Eu588 O640 2.335 . S
Eu588 O643 2.372 . S
Eu588 C652 2.787 1_565 S
C589 N590 1.365 . S
C589 C592 1.405 . S
C589 C596 1.448 . S
N590 C589 1.365 . S
N590 C593 1.319 . S
N590 Eu599 2.600 . S
C591 C593 1.397 . S
C591 C594 1.367 . S
C591 H611 0.931 . S
C592 C589 1.405 . S
C592 C594 1.403 . S
C592 C598 1.439 . S
C593 N590 1.319 . S
C593 C591 1.397 . S
C593 H604 0.930 . S
C594 C591 1.367 . S
C594 C592 1.403 . S
C594 H615 0.929 . S
C595 C596 1.430 . S
C595 C597 1.387 . S
C595 C601 1.404 . S
C596 C589 1.448 . S
C596 C595 1.430 . S
C596 N600 1.351 . S
C597 C595 1.387 . S
C597 C598 1.374 . S
C597 H612 0.931 . S
C598 C592 1.439 . S
C598 C597 1.374 . S
C598 H613 0.931 . S
Eu599 N590 2.600 . S
Eu599 N600 2.562 . S
Eu599 O634 2.335 . S
Eu599 O637 2.372 . S
Eu599 O638 2.462 . S
Eu599 O639 2.373 . S
Eu599 O641 2.432 . S
Eu599 O642 2.291 . S
Eu599 C663 2.787 . S
N600 C596 1.351 . S
N600 Eu599 2.562 . S
N600 C602 1.325 . S
C601 C595 1.404 . S
C601 C603 1.366 . S
C601 H609 0.930 . S
C602 N600 1.325 . S
C602 C603 1.416 . S
C602 H608 0.929 . S
C603 C601 1.366 . S
C603 C602 1.416 . S
C603 H605 0.930 . S
H604 C593 0.930 . S
H605 C603 0.930 . S
H606 C621 0.930 . S
H607 C628 0.930 . S
H608 C602 0.929 . S
H609 C601 0.930 . S
H610 C624 0.929 . S
H611 C591 0.931 . S
H612 C597 0.931 . S
H613 C598 0.931 . S
H614 C619 0.931 . S
H615 C594 0.929 . S
H616 C627 0.930 . S
N617 Eu588 2.600 . S
N617 C618 1.365 . S
N617 C621 1.319 . S
C618 N617 1.365 . S
C618 C620 1.405 . S
C618 C626 1.448 . S
C619 H614 0.931 . S
C619 C621 1.397 . S
C619 C622 1.367 . S
C620 C618 1.405 . S
C620 C622 1.403 . S
C620 C653 1.439 . S
C621 H606 0.930 . S
C621 N617 1.319 . S
C621 C619 1.397 . S
C622 C619 1.367 . S
C622 C620 1.403 . S
C622 H629 0.929 . S
N623 Eu588 2.562 . S
N623 C624 1.325 . S
N623 C626 1.351 . S
C624 H610 0.929 . S
C624 N623 1.325 . S
C624 C628 1.416 . S
C625 C626 1.430 . S
C625 C627 1.404 . S
C625 C654 1.387 . S
C626 C618 1.448 . S
C626 N623 1.351 . S
C626 C625 1.430 . S
C627 H616 0.930 . S
C627 C625 1.404 . S
C627 C628 1.366 . S
C628 H607 0.930 . S
C628 C624 1.416 . S
C628 C627 1.366 . S
H629 C622 0.929 . S
H630 C653 0.931 . S
H631 C654 0.931 . S
O632 Eu588 2.462 1_545 S
O632 C652 1.252 . S
O633 Eu588 2.373 . S
O633 C644 1.249 . S
O634 Eu599 2.335 . S
O634 C644 1.264 . S
O635 Eu588 2.432 1_545 S
O635 C652 1.268 . S
O636 Eu588 2.291 . S
O636 C651 1.255 . S
O637 Eu599 2.372 . S
O637 C651 1.257 . S
O638 Eu599 2.462 . S
O638 C663 1.252 . S
O639 Eu599 2.373 . S
O639 C655 1.249 . S
O640 Eu588 2.335 . S
O640 C655 1.264 . S
O641 Eu599 2.432 . S
O641 C663 1.268 . S
O642 Eu599 2.291 . S
O642 C662 1.255 . S
O643 Eu588 2.372 . S
O643 C662 1.257 . S
C644 O633 1.249 . S
C644 O634 1.264 . S
C645 C648 1.382 . S
C645 C650 1.390 . S
C645 C652 1.506 . S
C646 C647 1.398 . S
C646 C650 1.392 . S
C647 C646 1.398 . S
C647 C649 1.372 . S
C647 H664 0.931 . S
C648 C645 1.382 . S
C648 C649 1.390 . S
C648 H665 0.931 . S
C649 C647 1.372 . S
C649 C648 1.390 . S
C649 H666 0.929 . S
C650 C645 1.390 . S
C650 C646 1.392 . S
C650 H667 0.930 . S
C651 O636 1.255 . S
C651 O637 1.257 . S
C652 Eu588 2.787 1_545 S
C652 O632 1.252 . S
C652 O635 1.268 . S
C652 C645 1.506 . S
C653 C620 1.439 . S
C653 H630 0.931 . S
C653 C654 1.374 . S
C654 C625 1.387 . S
C654 H631 0.931 . S
C654 C653 1.374 . S
C655 O639 1.249 . S
C655 O640 1.264 . S
C656 C659 1.382 . S
C656 C660 1.390 . S
C656 C663 1.506 . S
C657 C658 1.398 . S
C657 C660 1.392 . S
C658 C657 1.398 . S
C658 C661 1.372 . S
C658 H668 0.931 . S
C659 C656 1.382 . S
C659 C661 1.390 . S
C659 H669 0.931 . S
C660 C656 1.390 . S
C660 C657 1.392 . S
C660 H670 0.930 . S
C661 C658 1.372 . S
C661 C659 1.390 . S
C661 H671 0.929 . S
C662 O642 1.255 . S
C662 O643 1.257 . S
C663 Eu599 2.787 . S
C663 O638 1.252 . S
C663 O641 1.268 . S
C663 C656 1.506 . S
H664 C647 0.931 . S
H665 C648 0.931 . S
H666 C649 0.929 . S
H667 C650 0.930 . S
H668 C658 0.931 . S
H669 C659 0.931 . S
H670 C660 0.930 . S
H671 C661 0.929 . S
Eu672 N701 2.600 . S
Eu672 N707 2.562 . S
Eu672 O716 2.462 . S
Eu672 O717 2.373 . S
Eu672 O719 2.432 . S
Eu672 O720 2.291 . S
Eu672 O724 2.335 . S
Eu672 O727 2.372 . S
Eu672 C736 2.787 . S
C673 N674 1.365 . S
C673 C676 1.405 . S
C673 C680 1.448 . S
N674 C673 1.365 . S
N674 C677 1.319 . S
N674 Eu683 2.600 . S
C675 C677 1.397 . S
C675 C678 1.367 . S
C675 H695 0.931 . S
C676 C673 1.405 . S
C676 C678 1.403 . S
C676 C682 1.439 . S
C677 N674 1.319 . S
C677 C675 1.397 . S
C677 H688 0.930 . S
C678 C675 1.367 . S
C678 C676 1.403 . S
C678 H699 0.929 . S
C679 C680 1.430 . S
C679 C681 1.387 . S
C679 C685 1.404 . S
C680 C673 1.448 . S
C680 C679 1.430 . S
C680 N684 1.351 . S
C681 C679 1.387 . S
C681 C682 1.374 . S
C681 H696 0.931 . S
C682 C676 1.439 . S
C682 C681 1.374 . S
C682 H697 0.931 . S
Eu683 N674 2.600 . S
Eu683 N684 2.562 . S
Eu683 O718 2.335 . S
Eu683 O721 2.372 . S
Eu683 O722 2.462 . S
Eu683 O723 2.373 . S
Eu683 O725 2.432 . S
Eu683 O726 2.291 . S
Eu683 C747 2.787 . S
N684 C680 1.351 . S
N684 Eu683 2.562 . S
N684 C686 1.325 . S
C685 C679 1.404 . S
C685 C687 1.366 . S
C685 H693 0.930 . S
C686 N684 1.325 . S
C686 C687 1.416 . S
C686 H692 0.929 . S
C687 C685 1.366 . S
C687 C686 1.416 . S
C687 H689 0.930 . S
H688 C677 0.930 . S
H689 C687 0.930 . S
H690 C705 0.930 . S
H691 C712 0.930 . S
H692 C686 0.929 . S
H693 C685 0.930 . S
H694 C708 0.929 . S
H695 C675 0.931 . S
H696 C681 0.931 . S
H697 C682 0.931 . S
H698 C703 0.931 . S
H699 C678 0.929 . S
H700 C711 0.930 . S
N701 Eu672 2.600 . S
N701 C702 1.365 . S
N701 C705 1.319 . S
C702 N701 1.365 . S
C702 C704 1.405 . S
C702 C710 1.448 . S
C703 H698 0.931 . S
C703 C705 1.397 . S
C703 C706 1.367 . S
C704 C702 1.405 . S
C704 C706 1.403 . S
C704 C737 1.439 . S
C705 H690 0.930 . S
C705 N701 1.319 . S
C705 C703 1.397 . S
C706 C703 1.367 . S
C706 C704 1.403 . S
C706 H713 0.929 . S
N707 Eu672 2.562 . S
N707 C708 1.325 . S
N707 C710 1.351 . S
C708 H694 0.929 . S
C708 N707 1.325 . S
C708 C712 1.416 . S
C709 C710 1.430 . S
C709 C711 1.404 . S
C709 C738 1.387 . S
C710 C702 1.448 . S
C710 N707 1.351 . S
C710 C709 1.430 . S
C711 H700 0.930 . S
C711 C709 1.404 . S
C711 C712 1.366 . S
C712 H691 0.930 . S
C712 C708 1.416 . S
C712 C711 1.366 . S
H713 C706 0.929 . S
H714 C737 0.931 . S
H715 C738 0.931 . S
O716 Eu672 2.462 . S
O716 C736 1.252 . S
O717 Eu672 2.373 . S
O717 C728 1.249 . S
O718 Eu683 2.335 . S
O718 C728 1.264 . S
O719 Eu672 2.432 . S
O719 C736 1.268 . S
O720 Eu672 2.291 . S
O720 C735 1.255 . S
O721 Eu683 2.372 . S
O721 C735 1.257 . S
O722 Eu683 2.462 . S
O722 C747 1.252 . S
O723 Eu683 2.373 . S
O723 C739 1.249 . S
O724 Eu672 2.335 . S
O724 C739 1.264 . S
O725 Eu683 2.432 . S
O725 C747 1.268 . S
O726 Eu683 2.291 . S
O726 C746 1.255 . S
O727 Eu672 2.372 . S
O727 C746 1.257 . S
C728 O717 1.249 . S
C728 O718 1.264 . S
C729 C732 1.382 . S
C729 C734 1.390 . S
C729 C736 1.506 . S
C730 C731 1.398 . S
C730 C734 1.392 . S
C731 C730 1.398 . S
C731 C733 1.372 . S
C731 H748 0.931 . S
C732 C729 1.382 . S
C732 C733 1.390 . S
C732 H749 0.931 . S
C733 C731 1.372 . S
C733 C732 1.390 . S
C733 H750 0.929 . S
C734 C729 1.390 . S
C734 C730 1.392 . S
C734 H751 0.930 . S
C735 O720 1.255 . S
C735 O721 1.257 . S
C736 Eu672 2.787 . S
C736 O716 1.252 . S
C736 O719 1.268 . S
C736 C729 1.506 . S
C737 C704 1.439 . S
C737 H714 0.931 . S
C737 C738 1.374 . S
C738 C709 1.387 . S
C738 H715 0.931 . S
C738 C737 1.374 . S
C739 O723 1.249 . S
C739 O724 1.264 . S
C740 C743 1.382 . S
C740 C744 1.390 . S
C740 C747 1.506 . S
C741 C742 1.398 . S
C741 C744 1.392 . S
C742 C741 1.398 . S
C742 C745 1.372 . S
C742 H752 0.931 . S
C743 C740 1.382 . S
C743 C745 1.390 . S
C743 H753 0.931 . S
C744 C740 1.390 . S
C744 C741 1.392 . S
C744 H754 0.930 . S
C745 C742 1.372 . S
C745 C743 1.390 . S
C745 H755 0.929 . S
C746 O726 1.255 . S
C746 O727 1.257 . S
C747 Eu683 2.787 . S
C747 O722 1.252 . S
C747 O725 1.268 . S
C747 C740 1.506 . S
H748 C731 0.931 . S
H749 C732 0.931 . S
H750 C733 0.929 . S
H751 C734 0.930 . S
H752 C742 0.931 . S
H753 C743 0.931 . S
H754 C744 0.930 . S
H755 C745 0.929 . S
Eu756 N785 2.600 . S
Eu756 N791 2.562 . S
Eu756 O800 2.462 . S
Eu756 O801 2.373 . S
Eu756 O803 2.432 . S
Eu756 O804 2.291 . S
Eu756 O808 2.335 . S
Eu756 O811 2.372 . S
Eu756 C820 2.787 . S
C757 N758 1.365 . S
C757 C760 1.405 . S
C757 C764 1.448 . S
N758 C757 1.365 . S
N758 C761 1.319 . S
N758 Eu767 2.600 . S
C759 C761 1.397 . S
C759 C762 1.367 . S
C759 H779 0.931 . S
C760 C757 1.405 . S
C760 C762 1.403 . S
C760 C766 1.439 . S
C761 N758 1.319 . S
C761 C759 1.397 . S
C761 H772 0.930 . S
C762 C759 1.367 . S
C762 C760 1.403 . S
C762 H783 0.929 . S
C763 C764 1.430 . S
C763 C765 1.387 . S
C763 C769 1.404 . S
C764 C757 1.448 . S
C764 C763 1.430 . S
C764 N768 1.351 . S
C765 C763 1.387 . S
C765 C766 1.374 . S
C765 H780 0.931 . S
C766 C760 1.439 . S
C766 C765 1.374 . S
C766 H781 0.931 . S
Eu767 N758 2.600 . S
Eu767 N768 2.562 . S
Eu767 O802 2.335 . S
Eu767 O805 2.372 . S
Eu767 O806 2.462 . S
Eu767 O807 2.373 . S
Eu767 O809 2.432 . S
Eu767 O810 2.291 . S
Eu767 C831 2.787 . S
N768 C764 1.351 . S
N768 Eu767 2.562 . S
N768 C770 1.325 . S
C769 C763 1.404 . S
C769 C771 1.366 . S
C769 H777 0.930 . S
C770 N768 1.325 . S
C770 C771 1.416 . S
C770 H776 0.929 . S
C771 C769 1.366 . S
C771 C770 1.416 . S
C771 H773 0.930 . S
H772 C761 0.930 . S
H773 C771 0.930 . S
H774 C789 0.930 . S
H775 C796 0.930 . S
H776 C770 0.929 . S
H777 C769 0.930 . S
H778 C792 0.929 . S
H779 C759 0.931 . S
H780 C765 0.931 . S
H781 C766 0.931 . S
H782 C787 0.931 . S
H783 C762 0.929 . S
H784 C795 0.930 . S
N785 Eu756 2.600 . S
N785 C786 1.365 . S
N785 C789 1.319 . S
C786 N785 1.365 . S
C786 C788 1.405 . S
C786 C794 1.448 . S
C787 H782 0.931 . S
C787 C789 1.397 . S
C787 C790 1.367 . S
C788 C786 1.405 . S
C788 C790 1.403 . S
C788 C821 1.439 . S
C789 H774 0.930 . S
C789 N785 1.319 . S
C789 C787 1.397 . S
C790 C787 1.367 . S
C790 C788 1.403 . S
C790 H797 0.929 . S
N791 Eu756 2.562 . S
N791 C792 1.325 . S
N791 C794 1.351 . S
C792 H778 0.929 . S
C792 N791 1.325 . S
C792 C796 1.416 . S
C793 C794 1.430 . S
C793 C795 1.404 . S
C793 C822 1.387 . S
C794 C786 1.448 . S
C794 N791 1.351 . S
C794 C793 1.430 . S
C795 H784 0.930 . S
C795 C793 1.404 . S
C795 C796 1.366 . S
C796 H775 0.930 . S
C796 C792 1.416 . S
C796 C795 1.366 . S
H797 C790 0.929 . S
H798 C821 0.931 . S
H799 C822 0.931 . S
O800 Eu756 2.462 . S
O800 C820 1.252 . S
O801 Eu756 2.373 . S
O801 C812 1.249 . S
O802 Eu767 2.335 . S
O802 C812 1.264 . S
O803 Eu756 2.432 . S
O803 C820 1.268 . S
O804 Eu756 2.291 . S
O804 C819 1.255 . S
O805 Eu767 2.372 . S
O805 C819 1.257 . S
O806 Eu767 2.462 . S
O806 C831 1.252 . S
O807 Eu767 2.373 . S
O807 C823 1.249 . S
O808 Eu756 2.335 . S
O808 C823 1.264 . S
O809 Eu767 2.432 . S
O809 C831 1.268 . S
O810 Eu767 2.291 . S
O810 C830 1.255 . S
O811 Eu756 2.372 . S
O811 C830 1.257 . S
C812 O801 1.249 . S
C812 O802 1.264 . S
C813 C816 1.382 . S
C813 C818 1.390 . S
C813 C820 1.506 . S
C814 C815 1.398 . S
C814 C818 1.392 . S
C815 C814 1.398 . S
C815 C817 1.372 . S
C815 H832 0.931 . S
C816 C813 1.382 . S
C816 C817 1.390 . S
C816 H833 0.931 . S
C817 C815 1.372 . S
C817 C816 1.390 . S
C817 H834 0.929 . S
C818 C813 1.390 . S
C818 C814 1.392 . S
C818 H835 0.930 . S
C819 O804 1.255 . S
C819 O805 1.257 . S
C820 Eu756 2.787 . S
C820 O800 1.252 . S
C820 O803 1.268 . S
C820 C813 1.506 . S
C821 C788 1.439 . S
C821 H798 0.931 . S
C821 C822 1.374 . S
C822 C793 1.387 . S
C822 H799 0.931 . S
C822 C821 1.374 . S
C823 O807 1.249 . S
C823 O808 1.264 . S
C824 C827 1.382 . S
C824 C828 1.390 . S
C824 C831 1.506 . S
C825 C826 1.398 . S
C825 C828 1.392 . S
C826 C825 1.398 . S
C826 C829 1.372 . S
C826 H836 0.931 . S
C827 C824 1.382 . S
C827 C829 1.390 . S
C827 H837 0.931 . S
C828 C824 1.390 . S
C828 C825 1.392 . S
C828 H838 0.930 . S
C829 C826 1.372 . S
C829 C827 1.390 . S
C829 H839 0.929 . S
C830 O810 1.255 . S
C830 O811 1.257 . S
C831 Eu767 2.787 . S
C831 O806 1.252 . S
C831 O809 1.268 . S
C831 C824 1.506 . S
H832 C815 0.931 . S
H833 C816 0.931 . S
H834 C817 0.929 . S
H835 C818 0.930 . S
H836 C826 0.931 . S
H837 C827 0.931 . S
H838 C828 0.930 . S
H839 C829 0.929 . S
Eu840 N869 2.600 . S
Eu840 N875 2.562 . S
Eu840 O884 2.462 . S
Eu840 O885 2.373 . S
Eu840 O887 2.432 . S
Eu840 O888 2.291 . S
Eu840 O892 2.335 . S
Eu840 O895 2.372 . S
Eu840 C904 2.787 . S
C841 N842 1.365 . S
C841 C844 1.405 . S
C841 C848 1.448 . S
N842 C841 1.365 . S
N842 C845 1.319 . S
N842 Eu851 2.600 . S
C843 C845 1.397 . S
C843 C846 1.367 . S
C843 H863 0.931 . S
C844 C841 1.405 . S
C844 C846 1.403 . S
C844 C850 1.439 . S
C845 N842 1.319 . S
C845 C843 1.397 . S
C845 H856 0.930 . S
C846 C843 1.367 . S
C846 C844 1.403 . S
C846 H867 0.929 . S
C847 C848 1.430 . S
C847 C849 1.387 . S
C847 C853 1.404 . S
C848 C841 1.448 . S
C848 C847 1.430 . S
C848 N852 1.351 . S
C849 C847 1.387 . S
C849 C850 1.374 . S
C849 H864 0.931 . S
C850 C844 1.439 . S
C850 C849 1.374 . S
C850 H865 0.931 . S
Eu851 N842 2.600 . S
Eu851 N852 2.562 . S
Eu851 O886 2.335 . S
Eu851 O889 2.372 . S
Eu851 O890 2.462 . S
Eu851 O891 2.373 . S
Eu851 O893 2.432 . S
Eu851 O894 2.291 . S
Eu851 C915 2.787 . S
N852 C848 1.351 . S
N852 Eu851 2.562 . S
N852 C854 1.325 . S
C853 C847 1.404 . S
C853 C855 1.366 . S
C853 H861 0.930 . S
C854 N852 1.325 . S
C854 C855 1.416 . S
C854 H860 0.929 . S
C855 C853 1.366 . S
C855 C854 1.416 . S
C855 H857 0.930 . S
H856 C845 0.930 . S
H857 C855 0.930 . S
H858 C873 0.930 . S
H859 C880 0.930 . S
H860 C854 0.929 . S
H861 C853 0.930 . S
H862 C876 0.929 . S
H863 C843 0.931 . S
H864 C849 0.931 . S
H865 C850 0.931 . S
H866 C871 0.931 . S
H867 C846 0.929 . S
H868 C879 0.930 . S
N869 Eu840 2.600 . S
N869 C870 1.365 . S
N869 C873 1.319 . S
C870 N869 1.365 . S
C870 C872 1.405 . S
C870 C878 1.448 . S
C871 H866 0.931 . S
C871 C873 1.397 . S
C871 C874 1.367 . S
C872 C870 1.405 . S
C872 C874 1.403 . S
C872 C905 1.439 . S
C873 H858 0.930 . S
C873 N869 1.319 . S
C873 C871 1.397 . S
C874 C871 1.367 . S
C874 C872 1.403 . S
C874 H881 0.929 . S
N875 Eu840 2.562 . S
N875 C876 1.325 . S
N875 C878 1.351 . S
C876 H862 0.929 . S
C876 N875 1.325 . S
C876 C880 1.416 . S
C877 C878 1.430 . S
C877 C879 1.404 . S
C877 C906 1.387 . S
C878 C870 1.448 . S
C878 N875 1.351 . S
C878 C877 1.430 . S
C879 H868 0.930 . S
C879 C877 1.404 . S
C879 C880 1.366 . S
C880 H859 0.930 . S
C880 C876 1.416 . S
C880 C879 1.366 . S
H881 C874 0.929 . S
H882 C905 0.931 . S
H883 C906 0.931 . S
O884 Eu840 2.462 . S
O884 C904 1.252 . S
O885 Eu840 2.373 . S
O885 C896 1.249 . S
O886 Eu851 2.335 . S
O886 C896 1.264 . S
O887 Eu840 2.432 . S
O887 C904 1.268 . S
O888 Eu840 2.291 . S
O888 C903 1.255 . S
O889 Eu851 2.372 . S
O889 C903 1.257 . S
O890 Eu851 2.462 . S
O890 C915 1.252 . S
O891 Eu851 2.373 . S
O891 C907 1.249 . S
O892 Eu840 2.335 . S
O892 C907 1.264 . S
O893 Eu851 2.432 . S
O893 C915 1.268 . S
O894 Eu851 2.291 . S
O894 C914 1.255 . S
O895 Eu840 2.372 . S
O895 C914 1.257 . S
C896 O885 1.249 . S
C896 O886 1.264 . S
C897 C900 1.382 . S
C897 C902 1.390 . S
C897 C904 1.506 . S
C898 C899 1.398 . S
C898 C902 1.392 . S
C899 C898 1.398 . S
C899 C901 1.372 . S
C899 H916 0.931 . S
C900 C897 1.382 . S
C900 C901 1.390 . S
C900 H917 0.931 . S
C901 C899 1.372 . S
C901 C900 1.390 . S
C901 H918 0.929 . S
C902 C897 1.390 . S
C902 C898 1.392 . S
C902 H919 0.930 . S
C903 O888 1.255 . S
C903 O889 1.257 . S
C904 Eu840 2.787 . S
C904 O884 1.252 . S
C904 O887 1.268 . S
C904 C897 1.506 . S
C905 C872 1.439 . S
C905 H882 0.931 . S
C905 C906 1.374 . S
C906 C877 1.387 . S
C906 H883 0.931 . S
C906 C905 1.374 . S
C907 O891 1.249 . S
C907 O892 1.264 . S
C908 C911 1.382 . S
C908 C912 1.390 . S
C908 C915 1.506 . S
C909 C910 1.398 . S
C909 C912 1.392 . S
C910 C909 1.398 . S
C910 C913 1.372 . S
C910 H920 0.931 . S
C911 C908 1.382 . S
C911 C913 1.390 . S
C911 H921 0.931 . S
C912 C908 1.390 . S
C912 C909 1.392 . S
C912 H922 0.930 . S
C913 C910 1.372 . S
C913 C911 1.390 . S
C913 H923 0.929 . S
C914 O894 1.255 . S
C914 O895 1.257 . S
C915 Eu851 2.787 . S
C915 O890 1.252 . S
C915 O893 1.268 . S
C915 C908 1.506 . S
H916 C899 0.931 . S
H917 C900 0.931 . S
H918 C901 0.929 . S
H919 C902 0.930 . S
H920 C910 0.931 . S
H921 C911 0.931 . S
H922 C912 0.930 . S
H923 C913 0.929 . S
Eu924 N953 2.600 . S
Eu924 N959 2.562 . S
Eu924 O968 2.462 . S
Eu924 O969 2.373 . S
Eu924 O971 2.432 . S
Eu924 O972 2.291 . S
Eu924 O976 2.335 . S
Eu924 O979 2.372 . S
Eu924 C988 2.787 . S
C925 N926 1.365 . S
C925 C928 1.405 . S
C925 C932 1.448 . S
N926 C925 1.365 . S
N926 C929 1.319 . S
N926 Eu935 2.600 . S
C927 C929 1.397 . S
C927 C930 1.367 . S
C927 H947 0.931 . S
C928 C925 1.405 . S
C928 C930 1.403 . S
C928 C934 1.439 . S
C929 N926 1.319 . S
C929 C927 1.397 . S
C929 H940 0.930 . S
C930 C927 1.367 . S
C930 C928 1.403 . S
C930 H951 0.929 . S
C931 C932 1.430 . S
C931 C933 1.387 . S
C931 C937 1.404 . S
C932 C925 1.448 . S
C932 C931 1.430 . S
C932 N936 1.351 . S
C933 C931 1.387 . S
C933 C934 1.374 . S
C933 H948 0.931 . S
C934 C928 1.439 . S
C934 C933 1.374 . S
C934 H949 0.931 . S
Eu935 N926 2.600 . S
Eu935 N936 2.562 . S
Eu935 O970 2.335 . S
Eu935 O973 2.372 . S
Eu935 O974 2.462 . S
Eu935 O975 2.373 . S
Eu935 O977 2.432 . S
Eu935 O978 2.291 . S
Eu935 C999 2.787 . S
N936 C932 1.351 . S
N936 Eu935 2.562 . S
N936 C938 1.325 . S
C937 C931 1.404 . S
C937 C939 1.366 . S
C937 H945 0.930 . S
C938 N936 1.325 . S
C938 C939 1.416 . S
C938 H944 0.929 . S
C939 C937 1.366 . S
C939 C938 1.416 . S
C939 H941 0.930 . S
H940 C929 0.930 . S
H941 C939 0.930 . S
H942 C957 0.930 . S
H943 C964 0.930 . S
H944 C938 0.929 . S
H945 C937 0.930 . S
H946 C960 0.929 . S
H947 C927 0.931 . S
H948 C933 0.931 . S
H949 C934 0.931 . S
H950 C955 0.931 . S
H951 C930 0.929 . S
H952 C963 0.930 . S
N953 Eu924 2.600 . S
N953 C954 1.365 . S
N953 C957 1.319 . S
C954 N953 1.365 . S
C954 C956 1.405 . S
C954 C962 1.448 . S
C955 H950 0.931 . S
C955 C957 1.397 . S
C955 C958 1.367 . S
C956 C954 1.405 . S
C956 C958 1.403 . S
C956 C989 1.439 . S
C957 H942 0.930 . S
C957 N953 1.319 . S
C957 C955 1.397 . S
C958 C955 1.367 . S
C958 C956 1.403 . S
C958 H965 0.929 . S
N959 Eu924 2.562 . S
N959 C960 1.325 . S
N959 C962 1.351 . S
C960 H946 0.929 . S
C960 N959 1.325 . S
C960 C964 1.416 . S
C961 C962 1.430 . S
C961 C963 1.404 . S
C961 C990 1.387 . S
C962 C954 1.448 . S
C962 N959 1.351 . S
C962 C961 1.430 . S
C963 H952 0.930 . S
C963 C961 1.404 . S
C963 C964 1.366 . S
C964 H943 0.930 . S
C964 C960 1.416 . S
C964 C963 1.366 . S
H965 C958 0.929 . S
H966 C989 0.931 . S
H967 C990 0.931 . S
O968 Eu924 2.462 . S
O968 C988 1.252 . S
O969 Eu924 2.373 . S
O969 C980 1.249 . S
O970 Eu935 2.335 . S
O970 C980 1.264 . S
O971 Eu924 2.432 . S
O971 C988 1.268 . S
O972 Eu924 2.291 . S
O972 C987 1.255 . S
O973 Eu935 2.372 . S
O973 C987 1.257 . S
O974 Eu935 2.462 . S
O974 C999 1.252 . S
O975 Eu935 2.373 . S
O975 C991 1.249 . S
O976 Eu924 2.335 . S
O976 C991 1.264 . S
O977 Eu935 2.432 . S
O977 C999 1.268 . S
O978 Eu935 2.291 . S
O978 C998 1.255 . S
O979 Eu924 2.372 . S
O979 C998 1.257 . S
C980 O969 1.249 . S
C980 O970 1.264 . S
C981 C984 1.382 . S
C981 C986 1.390 . S
C981 C988 1.506 . S
C982 C983 1.398 . S
C982 C986 1.392 . S
C983 C982 1.398 . S
C983 C985 1.372 . S
C983 H1000 0.931 . S
C984 C981 1.382 . S
C984 C985 1.390 . S
C984 H1001 0.931 . S
C985 C983 1.372 . S
C985 C984 1.390 . S
C985 H1002 0.929 . S
C986 C981 1.390 . S
C986 C982 1.392 . S
C986 H1003 0.930 . S
C987 O972 1.255 . S
C987 O973 1.257 . S
C988 Eu924 2.787 . S
C988 O968 1.252 . S
C988 O971 1.268 . S
C988 C981 1.506 . S
C989 C956 1.439 . S
C989 H966 0.931 . S
C989 C990 1.374 . S
C990 C961 1.387 . S
C990 H967 0.931 . S
C990 C989 1.374 . S
C991 O975 1.249 . S
C991 O976 1.264 . S
C992 C995 1.382 . S
C992 C996 1.390 . S
C992 C999 1.506 . S
C993 C994 1.398 . S
C993 C996 1.392 . S
C994 C993 1.398 . S
C994 C997 1.372 . S
C994 H1004 0.931 . S
C995 C992 1.382 . S
C995 C997 1.390 . S
C995 H1005 0.931 . S
C996 C992 1.390 . S
C996 C993 1.392 . S
C996 H1006 0.930 . S
C997 C994 1.372 . S
C997 C995 1.390 . S
C997 H1007 0.929 . S
C998 O978 1.255 . S
C998 O979 1.257 . S
C999 Eu935 2.787 . S
C999 O974 1.252 . S
C999 O977 1.268 . S
C999 C992 1.506 . S
H1000 C983 0.931 . S
H1001 C984 0.931 . S
H1002 C985 0.929 . S
H1003 C986 0.930 . S
H1004 C994 0.931 . S
H1005 C995 0.931 . S
H1006 C996 0.930 . S
H1007 C997 0.929 . S
Eu1008 N1037 2.600 . S
Eu1008 N1043 2.562 . S
Eu1008 O1052 2.462 . S
Eu1008 O1053 2.373 . S
Eu1008 O1055 2.432 . S
Eu1008 O1056 2.291 . S
Eu1008 O1060 2.335 . S
Eu1008 O1063 2.372 . S
Eu1008 C1072 2.787 . S
C1009 N1010 1.365 . S
C1009 C1012 1.405 . S
C1009 C1016 1.448 . S
N1010 C1009 1.365 . S
N1010 C1013 1.319 . S
N1010 Eu1019 2.600 . S
C1011 C1013 1.397 . S
C1011 C1014 1.367 . S
C1011 H1031 0.931 . S
C1012 C1009 1.405 . S
C1012 C1014 1.403 . S
C1012 C1018 1.439 . S
C1013 N1010 1.319 . S
C1013 C1011 1.397 . S
C1013 H1024 0.930 . S
C1014 C1011 1.367 . S
C1014 C1012 1.403 . S
C1014 H1035 0.929 . S
C1015 C1016 1.430 . S
C1015 C1017 1.387 . S
C1015 C1021 1.404 . S
C1016 C1009 1.448 . S
C1016 C1015 1.430 . S
C1016 N1020 1.351 . S
C1017 C1015 1.387 . S
C1017 C1018 1.374 . S
C1017 H1032 0.931 . S
C1018 C1012 1.439 . S
C1018 C1017 1.374 . S
C1018 H1033 0.931 . S
Eu1019 N1010 2.600 . S
Eu1019 N1020 2.562 . S
Eu1019 O1054 2.335 . S
Eu1019 O1057 2.372 . S
Eu1019 O1058 2.462 . S
Eu1019 O1059 2.373 . S
Eu1019 O1061 2.432 . S
Eu1019 O1062 2.291 . S
Eu1019 C1083 2.787 . S
N1020 C1016 1.351 . S
N1020 Eu1019 2.562 . S
N1020 C1022 1.325 . S
C1021 C1015 1.404 . S
C1021 C1023 1.366 . S
C1021 H1029 0.930 . S
C1022 N1020 1.325 . S
C1022 C1023 1.416 . S
C1022 H1028 0.929 . S
C1023 C1021 1.366 . S
C1023 C1022 1.416 . S
C1023 H1025 0.930 . S
H1024 C1013 0.930 . S
H1025 C1023 0.930 . S
H1026 C1041 0.930 . S
H1027 C1048 0.930 . S
H1028 C1022 0.929 . S
H1029 C1021 0.930 . S
H1030 C1044 0.929 . S
H1031 C1011 0.931 . S
H1032 C1017 0.931 . S
H1033 C1018 0.931 . S
H1034 C1039 0.931 . S
H1035 C1014 0.929 . S
H1036 C1047 0.930 . S
N1037 Eu1008 2.600 . S
N1037 C1038 1.365 . S
N1037 C1041 1.319 . S
C1038 N1037 1.365 . S
C1038 C1040 1.405 . S
C1038 C1046 1.448 . S
C1039 H1034 0.931 . S
C1039 C1041 1.397 . S
C1039 C1042 1.367 . S
C1040 C1038 1.405 . S
C1040 C1042 1.403 . S
C1040 C1073 1.439 . S
C1041 H1026 0.930 . S
C1041 N1037 1.319 . S
C1041 C1039 1.397 . S
C1042 C1039 1.367 . S
C1042 C1040 1.403 . S
C1042 H1049 0.929 . S
N1043 Eu1008 2.562 . S
N1043 C1044 1.325 . S
N1043 C1046 1.351 . S
C1044 H1030 0.929 . S
C1044 N1043 1.325 . S
C1044 C1048 1.416 . S
C1045 C1046 1.430 . S
C1045 C1047 1.404 . S
C1045 C1074 1.387 . S
C1046 C1038 1.448 . S
C1046 N1043 1.351 . S
C1046 C1045 1.430 . S
C1047 H1036 0.930 . S
C1047 C1045 1.404 . S
C1047 C1048 1.366 . S
C1048 H1027 0.930 . S
C1048 C1044 1.416 . S
C1048 C1047 1.366 . S
H1049 C1042 0.929 . S
H1050 C1073 0.931 . S
H1051 C1074 0.931 . S
O1052 Eu1008 2.462 . S
O1052 C1072 1.252 . S
O1053 Eu1008 2.373 . S
O1053 C1064 1.249 . S
O1054 Eu1019 2.335 . S
O1054 C1064 1.264 . S
O1055 Eu1008 2.432 . S
O1055 C1072 1.268 . S
O1056 Eu1008 2.291 . S
O1056 C1071 1.255 . S
O1057 Eu1019 2.372 . S
O1057 C1071 1.257 . S
O1058 Eu1019 2.462 . S
O1058 C1083 1.252 . S
O1059 Eu1019 2.373 . S
O1059 C1075 1.249 . S
O1060 Eu1008 2.335 . S
O1060 C1075 1.264 . S
O1061 Eu1019 2.432 . S
O1061 C1083 1.268 . S
O1062 Eu1019 2.291 . S
O1062 C1082 1.255 . S
O1063 Eu1008 2.372 . S
O1063 C1082 1.257 . S
C1064 O1053 1.249 . S
C1064 O1054 1.264 . S
C1065 C1068 1.382 . S
C1065 C1070 1.390 . S
C1065 C1072 1.506 . S
C1066 C1067 1.398 . S
C1066 C1070 1.392 . S
C1067 C1066 1.398 . S
C1067 C1069 1.372 . S
C1067 H1084 0.931 . S
C1068 C1065 1.382 . S
C1068 C1069 1.390 . S
C1068 H1085 0.931 . S
C1069 C1067 1.372 . S
C1069 C1068 1.390 . S
C1069 H1086 0.929 . S
C1070 C1065 1.390 . S
C1070 C1066 1.392 . S
C1070 H1087 0.930 . S
C1071 O1056 1.255 . S
C1071 O1057 1.257 . S
C1072 Eu1008 2.787 . S
C1072 O1052 1.252 . S
C1072 O1055 1.268 . S
C1072 C1065 1.506 . S
C1073 C1040 1.439 . S
C1073 H1050 0.931 . S
C1073 C1074 1.374 . S
C1074 C1045 1.387 . S
C1074 H1051 0.931 . S
C1074 C1073 1.374 . S
C1075 O1059 1.249 . S
C1075 O1060 1.264 . S
C1076 C1079 1.382 . S
C1076 C1080 1.390 . S
C1076 C1083 1.506 . S
C1077 C1078 1.398 . S
C1077 C1080 1.392 . S
C1078 C1077 1.398 . S
C1078 C1081 1.372 . S
C1078 H1088 0.931 . S
C1079 C1076 1.382 . S
C1079 C1081 1.390 . S
C1079 H1089 0.931 . S
C1080 C1076 1.390 . S
C1080 C1077 1.392 . S
C1080 H1090 0.930 . S
C1081 C1078 1.372 . S
C1081 C1079 1.390 . S
C1081 H1091 0.929 . S
C1082 O1062 1.255 . S
C1082 O1063 1.257 . S
C1083 Eu1019 2.787 . S
C1083 O1058 1.252 . S
C1083 O1061 1.268 . S
C1083 C1076 1.506 . S
H1084 C1067 0.931 . S
H1085 C1068 0.931 . S
H1086 C1069 0.929 . S
H1087 C1070 0.930 . S
H1088 C1078 0.931 . S
H1089 C1079 0.931 . S
H1090 C1080 0.930 . S
H1091 C1081 0.929 . S
Eu1092 N1121 2.600 . S
Eu1092 N1127 2.562 . S
Eu1092 O1136 2.462 . S
Eu1092 O1137 2.373 . S
Eu1092 O1139 2.432 . S
Eu1092 O1140 2.291 . S
Eu1092 O1144 2.335 . S
Eu1092 O1147 2.372 . S
Eu1092 C1156 2.787 . S
C1093 N1094 1.365 . S
C1093 C1096 1.405 . S
C1093 C1100 1.448 . S
N1094 C1093 1.365 . S
N1094 C1097 1.319 . S
N1094 Eu1103 2.600 . S
C1095 C1097 1.397 . S
C1095 C1098 1.367 . S
C1095 H1115 0.931 . S
C1096 C1093 1.405 . S
C1096 C1098 1.403 . S
C1096 C1102 1.439 . S
C1097 N1094 1.319 . S
C1097 C1095 1.397 . S
C1097 H1108 0.930 . S
C1098 C1095 1.367 . S
C1098 C1096 1.403 . S
C1098 H1119 0.929 . S
C1099 C1100 1.430 . S
C1099 C1101 1.387 . S
C1099 C1105 1.404 . S
C1100 C1093 1.448 . S
C1100 C1099 1.430 . S
C1100 N1104 1.351 . S
C1101 C1099 1.387 . S
C1101 C1102 1.374 . S
C1101 H1116 0.931 . S
C1102 C1096 1.439 . S
C1102 C1101 1.374 . S
C1102 H1117 0.931 . S
Eu1103 N1094 2.600 . S
Eu1103 N1104 2.562 . S
Eu1103 O1138 2.335 . S
Eu1103 O1141 2.372 . S
Eu1103 O1142 2.462 . S
Eu1103 O1143 2.373 . S
Eu1103 O1145 2.432 . S
Eu1103 O1146 2.291 . S
Eu1103 C1167 2.787 . S
N1104 C1100 1.351 . S
N1104 Eu1103 2.562 . S
N1104 C1106 1.325 . S
C1105 C1099 1.404 . S
C1105 C1107 1.366 . S
C1105 H1113 0.930 . S
C1106 N1104 1.325 . S
C1106 C1107 1.416 . S
C1106 H1112 0.929 . S
C1107 C1105 1.366 . S
C1107 C1106 1.416 . S
C1107 H1109 0.930 . S
H1108 C1097 0.930 . S
H1109 C1107 0.930 . S
H1110 C1125 0.930 . S
H1111 C1132 0.930 . S
H1112 C1106 0.929 . S
H1113 C1105 0.930 . S
H1114 C1128 0.929 . S
H1115 C1095 0.931 . S
H1116 C1101 0.931 . S
H1117 C1102 0.931 . S
H1118 C1123 0.931 . S
H1119 C1098 0.929 . S
H1120 C1131 0.930 . S
N1121 Eu1092 2.600 . S
N1121 C1122 1.365 . S
N1121 C1125 1.319 . S
C1122 N1121 1.365 . S
C1122 C1124 1.405 . S
C1122 C1130 1.448 . S
C1123 H1118 0.931 . S
C1123 C1125 1.397 . S
C1123 C1126 1.367 . S
C1124 C1122 1.405 . S
C1124 C1126 1.403 . S
C1124 C1157 1.439 . S
C1125 H1110 0.930 . S
C1125 N1121 1.319 . S
C1125 C1123 1.397 . S
C1126 C1123 1.367 . S
C1126 C1124 1.403 . S
C1126 H1133 0.929 . S
N1127 Eu1092 2.562 . S
N1127 C1128 1.325 . S
N1127 C1130 1.351 . S
C1128 H1114 0.929 . S
C1128 N1127 1.325 . S
C1128 C1132 1.416 . S
C1129 C1130 1.430 . S
C1129 C1131 1.404 . S
C1129 C1158 1.387 . S
C1130 C1122 1.448 . S
C1130 N1127 1.351 . S
C1130 C1129 1.430 . S
C1131 H1120 0.930 . S
C1131 C1129 1.404 . S
C1131 C1132 1.366 . S
C1132 H1111 0.930 . S
C1132 C1128 1.416 . S
C1132 C1131 1.366 . S
H1133 C1126 0.929 . S
H1134 C1157 0.931 . S
H1135 C1158 0.931 . S
O1136 Eu1092 2.462 . S
O1136 C1156 1.252 . S
O1137 Eu1092 2.373 . S
O1137 C1148 1.249 . S
O1138 Eu1103 2.335 . S
O1138 C1148 1.264 . S
O1139 Eu1092 2.432 . S
O1139 C1156 1.268 . S
O1140 Eu1092 2.291 . S
O1140 C1155 1.255 . S
O1141 Eu1103 2.372 . S
O1141 C1155 1.257 . S
O1142 Eu1103 2.462 . S
O1142 C1167 1.252 . S
O1143 Eu1103 2.373 . S
O1143 C1159 1.249 . S
O1144 Eu1092 2.335 . S
O1144 C1159 1.264 . S
O1145 Eu1103 2.432 . S
O1145 C1167 1.268 . S
O1146 Eu1103 2.291 . S
O1146 C1166 1.255 . S
O1147 Eu1092 2.372 . S
O1147 C1166 1.257 . S
C1148 O1137 1.249 . S
C1148 O1138 1.264 . S
C1149 C1152 1.382 . S
C1149 C1154 1.390 . S
C1149 C1156 1.506 . S
C1150 C1151 1.398 . S
C1150 C1154 1.392 . S
C1151 C1150 1.398 . S
C1151 C1153 1.372 . S
C1151 H1168 0.931 . S
C1152 C1149 1.382 . S
C1152 C1153 1.390 . S
C1152 H1169 0.931 . S
C1153 C1151 1.372 . S
C1153 C1152 1.390 . S
C1153 H1170 0.929 . S
C1154 C1149 1.390 . S
C1154 C1150 1.392 . S
C1154 H1171 0.930 . S
C1155 O1140 1.255 . S
C1155 O1141 1.257 . S
C1156 Eu1092 2.787 . S
C1156 O1136 1.252 . S
C1156 O1139 1.268 . S
C1156 C1149 1.506 . S
C1157 C1124 1.439 . S
C1157 H1134 0.931 . S
C1157 C1158 1.374 . S
C1158 C1129 1.387 . S
C1158 H1135 0.931 . S
C1158 C1157 1.374 . S
C1159 O1143 1.249 . S
C1159 O1144 1.264 . S
C1160 C1163 1.382 . S
C1160 C1164 1.390 . S
C1160 C1167 1.506 . S
C1161 C1162 1.398 . S
C1161 C1164 1.392 . S
C1162 C1161 1.398 . S
C1162 C1165 1.372 . S
C1162 H1172 0.931 . S
C1163 C1160 1.382 . S
C1163 C1165 1.390 . S
C1163 H1173 0.931 . S
C1164 C1160 1.390 . S
C1164 C1161 1.392 . S
C1164 H1174 0.930 . S
C1165 C1162 1.372 . S
C1165 C1163 1.390 . S
C1165 H1175 0.929 . S
C1166 O1146 1.255 . S
C1166 O1147 1.257 . S
C1167 Eu1103 2.787 . S
C1167 O1142 1.252 . S
C1167 O1145 1.268 . S
C1167 C1160 1.506 . S
H1168 C1151 0.931 . S
H1169 C1152 0.931 . S
H1170 C1153 0.929 . S
H1171 C1154 0.930 . S
H1172 C1162 0.931 . S
H1173 C1163 0.931 . S
H1174 C1164 0.930 . S
H1175 C1165 0.929 . S
Eu1176 N1205 2.600 . S
Eu1176 N1211 2.562 . S
Eu1176 O1220 2.462 . S
Eu1176 O1221 2.373 . S
Eu1176 O1223 2.432 . S
Eu1176 O1224 2.291 . S
Eu1176 O1228 2.335 . S
Eu1176 O1231 2.372 . S
Eu1176 C1240 2.787 . S
C1177 N1178 1.365 . S
C1177 C1180 1.405 . S
C1177 C1184 1.448 . S
N1178 C1177 1.365 . S
N1178 C1181 1.319 . S
N1178 Eu1187 2.600 . S
C1179 C1181 1.397 . S
C1179 C1182 1.367 . S
C1179 H1199 0.931 . S
C1180 C1177 1.405 . S
C1180 C1182 1.403 . S
C1180 C1186 1.439 . S
C1181 N1178 1.319 . S
C1181 C1179 1.397 . S
C1181 H1192 0.930 . S
C1182 C1179 1.367 . S
C1182 C1180 1.403 . S
C1182 H1203 0.929 . S
C1183 C1184 1.430 . S
C1183 C1185 1.387 . S
C1183 C1189 1.404 . S
C1184 C1177 1.448 . S
C1184 C1183 1.430 . S
C1184 N1188 1.351 . S
C1185 C1183 1.387 . S
C1185 C1186 1.374 . S
C1185 H1200 0.931 . S
C1186 C1180 1.439 . S
C1186 C1185 1.374 . S
C1186 H1201 0.931 . S
Eu1187 N1178 2.600 . S
Eu1187 N1188 2.562 . S
Eu1187 O1222 2.335 . S
Eu1187 O1225 2.372 . S
Eu1187 O1226 2.462 . S
Eu1187 O1227 2.373 . S
Eu1187 O1229 2.432 . S
Eu1187 O1230 2.291 . S
Eu1187 C1251 2.787 . S
N1188 C1184 1.351 . S
N1188 Eu1187 2.562 . S
N1188 C1190 1.325 . S
C1189 C1183 1.404 . S
C1189 C1191 1.366 . S
C1189 H1197 0.930 . S
C1190 N1188 1.325 . S
C1190 C1191 1.416 . S
C1190 H1196 0.929 . S
C1191 C1189 1.366 . S
C1191 C1190 1.416 . S
C1191 H1193 0.930 . S
H1192 C1181 0.930 . S
H1193 C1191 0.930 . S
H1194 C1209 0.930 . S
H1195 C1216 0.930 . S
H1196 C1190 0.929 . S
H1197 C1189 0.930 . S
H1198 C1212 0.929 . S
H1199 C1179 0.931 . S
H1200 C1185 0.931 . S
H1201 C1186 0.931 . S
H1202 C1207 0.931 . S
H1203 C1182 0.929 . S
H1204 C1215 0.930 . S
N1205 Eu1176 2.600 . S
N1205 C1206 1.365 . S
N1205 C1209 1.319 . S
C1206 N1205 1.365 . S
C1206 C1208 1.405 . S
C1206 C1214 1.448 . S
C1207 H1202 0.931 . S
C1207 C1209 1.397 . S
C1207 C1210 1.367 . S
C1208 C1206 1.405 . S
C1208 C1210 1.403 . S
C1208 C1241 1.439 . S
C1209 H1194 0.930 . S
C1209 N1205 1.319 . S
C1209 C1207 1.397 . S
C1210 C1207 1.367 . S
C1210 C1208 1.403 . S
C1210 H1217 0.929 . S
N1211 Eu1176 2.562 . S
N1211 C1212 1.325 . S
N1211 C1214 1.351 . S
C1212 H1198 0.929 . S
C1212 N1211 1.325 . S
C1212 C1216 1.416 . S
C1213 C1214 1.430 . S
C1213 C1215 1.404 . S
C1213 C1242 1.387 . S
C1214 C1206 1.448 . S
C1214 N1211 1.351 . S
C1214 C1213 1.430 . S
C1215 H1204 0.930 . S
C1215 C1213 1.404 . S
C1215 C1216 1.366 . S
C1216 H1195 0.930 . S
C1216 C1212 1.416 . S
C1216 C1215 1.366 . S
H1217 C1210 0.929 . S
H1218 C1241 0.931 . S
H1219 C1242 0.931 . S
O1220 Eu1176 2.462 . S
O1220 C1240 1.252 . S
O1221 Eu1176 2.373 . S
O1221 C1232 1.249 . S
O1222 Eu1187 2.335 . S
O1222 C1232 1.264 . S
O1223 Eu1176 2.432 . S
O1223 C1240 1.268 . S
O1224 Eu1176 2.291 . S
O1224 C1239 1.255 . S
O1225 Eu1187 2.372 . S
O1225 C1239 1.257 . S
O1226 Eu1187 2.462 . S
O1226 C1251 1.252 . S
O1227 Eu1187 2.373 . S
O1227 C1243 1.249 . S
O1228 Eu1176 2.335 . S
O1228 C1243 1.264 . S
O1229 Eu1187 2.432 . S
O1229 C1251 1.268 . S
O1230 Eu1187 2.291 . S
O1230 C1250 1.255 . S
O1231 Eu1176 2.372 . S
O1231 C1250 1.257 . S
C1232 O1221 1.249 . S
C1232 O1222 1.264 . S
C1233 C1236 1.382 . S
C1233 C1238 1.390 . S
C1233 C1240 1.506 . S
C1234 C1235 1.398 . S
C1234 C1238 1.392 . S
C1235 C1234 1.398 . S
C1235 C1237 1.372 . S
C1235 H1252 0.931 . S
C1236 C1233 1.382 . S
C1236 C1237 1.390 . S
C1236 H1253 0.931 . S
C1237 C1235 1.372 . S
C1237 C1236 1.390 . S
C1237 H1254 0.929 . S
C1238 C1233 1.390 . S
C1238 C1234 1.392 . S
C1238 H1255 0.930 . S
C1239 O1224 1.255 . S
C1239 O1225 1.257 . S
C1240 Eu1176 2.787 . S
C1240 O1220 1.252 . S
C1240 O1223 1.268 . S
C1240 C1233 1.506 . S
C1241 C1208 1.439 . S
C1241 H1218 0.931 . S
C1241 C1242 1.374 . S
C1242 C1213 1.387 . S
C1242 H1219 0.931 . S
C1242 C1241 1.374 . S
C1243 O1227 1.249 . S
C1243 O1228 1.264 . S
C1244 C1247 1.382 . S
C1244 C1248 1.390 . S
C1244 C1251 1.506 . S
C1245 C1246 1.398 . S
C1245 C1248 1.392 . S
C1246 C1245 1.398 . S
C1246 C1249 1.372 . S
C1246 H1256 0.931 . S
C1247 C1244 1.382 . S
C1247 C1249 1.390 . S
C1247 H1257 0.931 . S
C1248 C1244 1.390 . S
C1248 C1245 1.392 . S
C1248 H1258 0.930 . S
C1249 C1246 1.372 . S
C1249 C1247 1.390 . S
C1249 H1259 0.929 . S
C1250 O1230 1.255 . S
C1250 O1231 1.257 . S
C1251 Eu1187 2.787 . S
C1251 O1226 1.252 . S
C1251 O1229 1.268 . S
C1251 C1244 1.506 . S
H1252 C1235 0.931 . S
H1253 C1236 0.931 . S
H1254 C1237 0.929 . S
H1255 C1238 0.930 . S
H1256 C1246 0.931 . S
H1257 C1247 0.931 . S
H1258 C1248 0.930 . S
H1259 C1249 0.929 . S
Eu1260 N1289 2.600 . S
Eu1260 N1295 2.562 . S
Eu1260 O1304 2.462 . S
Eu1260 O1305 2.373 . S
Eu1260 O1307 2.432 . S
Eu1260 O1308 2.291 . S
Eu1260 O1312 2.335 . S
Eu1260 O1315 2.372 . S
Eu1260 C1324 2.787 . S
C1261 N1262 1.365 . S
C1261 C1264 1.405 . S
C1261 C1268 1.448 . S
N1262 C1261 1.365 . S
N1262 C1265 1.319 . S
N1262 Eu1271 2.600 . S
C1263 C1265 1.397 . S
C1263 C1266 1.367 . S
C1263 H1283 0.931 . S
C1264 C1261 1.405 . S
C1264 C1266 1.403 . S
C1264 C1270 1.439 . S
C1265 N1262 1.319 . S
C1265 C1263 1.397 . S
C1265 H1276 0.930 . S
C1266 C1263 1.367 . S
C1266 C1264 1.403 . S
C1266 H1287 0.929 . S
C1267 C1268 1.430 . S
C1267 C1269 1.387 . S
C1267 C1273 1.404 . S
C1268 C1261 1.448 . S
C1268 C1267 1.430 . S
C1268 N1272 1.351 . S
C1269 C1267 1.387 . S
C1269 C1270 1.374 . S
C1269 H1284 0.931 . S
C1270 C1264 1.439 . S
C1270 C1269 1.374 . S
C1270 H1285 0.931 . S
Eu1271 N1262 2.600 . S
Eu1271 N1272 2.562 . S
Eu1271 O1306 2.335 . S
Eu1271 O1309 2.372 . S
Eu1271 O1310 2.462 . S
Eu1271 O1311 2.373 . S
Eu1271 O1313 2.432 . S
Eu1271 O1314 2.291 . S
Eu1271 C1335 2.787 . S
N1272 C1268 1.351 . S
N1272 Eu1271 2.562 . S
N1272 C1274 1.325 . S
C1273 C1267 1.404 . S
C1273 C1275 1.366 . S
C1273 H1281 0.930 . S
C1274 N1272 1.325 . S
C1274 C1275 1.416 . S
C1274 H1280 0.929 . S
C1275 C1273 1.366 . S
C1275 C1274 1.416 . S
C1275 H1277 0.930 . S
H1276 C1265 0.930 . S
H1277 C1275 0.930 . S
H1278 C1293 0.930 . S
H1279 C1300 0.930 . S
H1280 C1274 0.929 . S
H1281 C1273 0.930 . S
H1282 C1296 0.929 . S
H1283 C1263 0.931 . S
H1284 C1269 0.931 . S
H1285 C1270 0.931 . S
H1286 C1291 0.931 . S
H1287 C1266 0.929 . S
H1288 C1299 0.930 . S
N1289 Eu1260 2.600 . S
N1289 C1290 1.365 . S
N1289 C1293 1.319 . S
C1290 N1289 1.365 . S
C1290 C1292 1.405 . S
C1290 C1298 1.448 . S
C1291 H1286 0.931 . S
C1291 C1293 1.397 . S
C1291 C1294 1.367 . S
C1292 C1290 1.405 . S
C1292 C1294 1.403 . S
C1292 C1325 1.439 . S
C1293 H1278 0.930 . S
C1293 N1289 1.319 . S
C1293 C1291 1.397 . S
C1294 C1291 1.367 . S
C1294 C1292 1.403 . S
C1294 H1301 0.929 . S
N1295 Eu1260 2.562 . S
N1295 C1296 1.325 . S
N1295 C1298 1.351 . S
C1296 H1282 0.929 . S
C1296 N1295 1.325 . S
C1296 C1300 1.416 . S
C1297 C1298 1.430 . S
C1297 C1299 1.404 . S
C1297 C1326 1.387 . S
C1298 C1290 1.448 . S
C1298 N1295 1.351 . S
C1298 C1297 1.430 . S
C1299 H1288 0.930 . S
C1299 C1297 1.404 . S
C1299 C1300 1.366 . S
C1300 H1279 0.930 . S
C1300 C1296 1.416 . S
C1300 C1299 1.366 . S
H1301 C1294 0.929 . S
H1302 C1325 0.931 . S
H1303 C1326 0.931 . S
O1304 Eu1260 2.462 . S
O1304 C1324 1.252 . S
O1305 Eu1260 2.373 . S
O1305 C1316 1.249 . S
O1306 Eu1271 2.335 . S
O1306 C1316 1.264 . S
O1307 Eu1260 2.432 . S
O1307 C1324 1.268 . S
O1308 Eu1260 2.291 . S
O1308 C1323 1.255 . S
O1309 Eu1271 2.372 . S
O1309 C1323 1.257 . S
O1310 Eu1271 2.462 . S
O1310 C1335 1.252 . S
O1311 Eu1271 2.373 . S
O1311 C1327 1.249 . S
O1312 Eu1260 2.335 . S
O1312 C1327 1.264 . S
O1313 Eu1271 2.432 . S
O1313 C1335 1.268 . S
O1314 Eu1271 2.291 . S
O1314 C1334 1.255 . S
O1315 Eu1260 2.372 . S
O1315 C1334 1.257 . S
C1316 O1305 1.249 . S
C1316 O1306 1.264 . S
C1317 C1320 1.382 . S
C1317 C1322 1.390 . S
C1317 C1324 1.506 . S
C1318 C1319 1.398 . S
C1318 C1322 1.392 . S
C1319 C1318 1.398 . S
C1319 C1321 1.372 . S
C1319 H1336 0.931 . S
C1320 C1317 1.382 . S
C1320 C1321 1.390 . S
C1320 H1337 0.931 . S
C1321 C1319 1.372 . S
C1321 C1320 1.390 . S
C1321 H1338 0.929 . S
C1322 C1317 1.390 . S
C1322 C1318 1.392 . S
C1322 H1339 0.930 . S
C1323 O1308 1.255 . S
C1323 O1309 1.257 . S
C1324 Eu1260 2.787 . S
C1324 O1304 1.252 . S
C1324 O1307 1.268 . S
C1324 C1317 1.506 . S
C1325 C1292 1.439 . S
C1325 H1302 0.931 . S
C1325 C1326 1.374 . S
C1326 C1297 1.387 . S
C1326 H1303 0.931 . S
C1326 C1325 1.374 . S
C1327 O1311 1.249 . S
C1327 O1312 1.264 . S
C1328 C1331 1.382 . S
C1328 C1332 1.390 . S
C1328 C1335 1.506 . S
C1329 C1330 1.398 . S
C1329 C1332 1.392 . S
C1330 C1329 1.398 . S
C1330 C1333 1.372 . S
C1330 H1340 0.931 . S
C1331 C1328 1.382 . S
C1331 C1333 1.390 . S
C1331 H1341 0.931 . S
C1332 C1328 1.390 . S
C1332 C1329 1.392 . S
C1332 H1342 0.930 . S
C1333 C1330 1.372 . S
C1333 C1331 1.390 . S
C1333 H1343 0.929 . S
C1334 O1314 1.255 . S
C1334 O1315 1.257 . S
C1335 Eu1271 2.787 . S
C1335 O1310 1.252 . S
C1335 O1313 1.268 . S
C1335 C1328 1.506 . S
H1336 C1319 0.931 . S
H1337 C1320 0.931 . S
H1338 C1321 0.929 . S
H1339 C1322 0.930 . S
H1340 C1330 0.931 . S
H1341 C1331 0.931 . S
H1342 C1332 0.930 . S
H1343 C1333 0.929 . S
C1344 C1345 1.349 . S
C1344 C1346 1.327 . S
C1344 H1369 0.950 . S
C1345 C1344 1.349 . S
C1345 C1361 1.349 . S
C1346 C1344 1.327 . S
C1346 C1365 1.429 . S
C1346 H1370 0.950 . S
C1347 C1364 1.574 . S
C1347 C1366 1.368 . S
C1347 H1371 0.949 . S
H1348 C1352 0.949 . S
C1349 C1350 1.349 . S
C1349 C1351 1.327 . S
C1349 H1372 0.950 . S
C1350 C1349 1.349 . S
C1350 C1362 1.349 . S
C1351 C1349 1.327 . S
C1351 C1367 1.429 . S
C1351 H1373 0.950 . S
C1352 H1348 0.949 . S
C1352 C1360 1.574 . S
C1352 C1368 1.368 . S
H1353 C1361 0.950 . S
H1354 C1359 0.950 . S
H1355 C1360 0.949 . S
H1356 C1362 0.950 . S
H1357 C1363 0.950 . S
H1358 C1364 0.949 . S
C1359 H1354 0.950 . S
C1359 C1361 1.327 . S
C1359 C1365 1.429 . S
C1360 C1352 1.574 . S
C1360 H1355 0.949 . S
C1360 C1366 1.368 . S
C1361 C1345 1.349 . S
C1361 H1353 0.950 . S
C1361 C1359 1.327 . S
C1362 C1350 1.349 . S
C1362 H1356 0.950 . S
C1362 C1363 1.327 . S
C1363 H1357 0.950 . S
C1363 C1362 1.327 . S
C1363 C1367 1.429 . S
C1364 C1347 1.574 . S
C1364 H1358 0.949 . S
C1364 C1368 1.368 . S
C1365 C1346 1.429 . S
C1365 C1359 1.429 . S
C1365 C1366 1.523 . S
C1366 C1347 1.368 . S
C1366 C1360 1.368 . S
C1366 C1365 1.523 . S
C1367 C1351 1.429 . S
C1367 C1363 1.429 . S
C1367 C1368 1.523 . S
C1368 C1352 1.368 . S
C1368 C1364 1.368 . S
C1368 C1367 1.523 . S
H1369 C1344 0.950 . S
H1370 C1346 0.950 . S
H1371 C1347 0.949 . S
H1372 C1349 0.950 . S
H1373 C1351 0.950 . S
C1374 C1375 1.349 . S
C1374 C1376 1.327 . S
C1374 H1399 0.950 . S
C1375 C1374 1.349 . S
C1375 C1391 1.349 . S
C1376 C1374 1.327 . S
C1376 C1395 1.429 . S
C1376 H1400 0.950 . S
C1377 C1394 1.574 . S
C1377 C1396 1.368 . S
C1377 H1401 0.949 . S
H1378 C1382 0.949 . S
C1379 C1380 1.349 . S
C1379 C1381 1.327 . S
C1379 H1402 0.950 . S
C1380 C1379 1.349 . S
C1380 C1392 1.349 . S
C1381 C1379 1.327 . S
C1381 C1397 1.429 . S
C1381 H1403 0.950 . S
C1382 H1378 0.949 . S
C1382 C1390 1.574 . S
C1382 C1398 1.368 . S
H1383 C1391 0.950 . S
H1384 C1389 0.950 . S
H1385 C1390 0.949 . S
H1386 C1392 0.950 . S
H1387 C1393 0.950 . S
H1388 C1394 0.949 . S
C1389 H1384 0.950 . S
C1389 C1391 1.327 . S
C1389 C1395 1.429 . S
C1390 C1382 1.574 . S
C1390 H1385 0.949 . S
C1390 C1396 1.368 . S
C1391 C1375 1.349 . S
C1391 H1383 0.950 . S
C1391 C1389 1.327 . S
C1392 C1380 1.349 . S
C1392 H1386 0.950 . S
C1392 C1393 1.327 . S
C1393 H1387 0.950 . S
C1393 C1392 1.327 . S
C1393 C1397 1.429 . S
C1394 C1377 1.574 . S
C1394 H1388 0.949 . S
C1394 C1398 1.368 . S
C1395 C1376 1.429 . S
C1395 C1389 1.429 . S
C1395 C1396 1.523 . S
C1396 C1377 1.368 . S
C1396 C1390 1.368 . S
C1396 C1395 1.523 . S
C1397 C1381 1.429 . S
C1397 C1393 1.429 . S
C1397 C1398 1.523 . S
C1398 C1382 1.368 . S
C1398 C1394 1.368 . S
C1398 C1397 1.523 . S
H1399 C1374 0.950 . S
H1400 C1376 0.950 . S
H1401 C1377 0.949 . S
H1402 C1379 0.950 . S
H1403 C1381 0.950 . S
C1404 C1405 1.349 . S
C1404 C1406 1.327 . S
C1404 H1429 0.950 . S
C1405 C1404 1.349 . S
C1405 C1421 1.349 . S
C1406 C1404 1.327 . S
C1406 C1425 1.429 . S
C1406 H1430 0.950 . S
C1407 C1424 1.574 . S
C1407 C1426 1.368 . S
C1407 H1431 0.949 . S
H1408 C1412 0.949 . S
C1409 C1410 1.349 . S
C1409 C1411 1.327 . S
C1409 H1432 0.950 . S
C1410 C1409 1.349 . S
C1410 C1422 1.349 . S
C1411 C1409 1.327 . S
C1411 C1427 1.429 . S
C1411 H1433 0.950 . S
C1412 H1408 0.949 . S
C1412 C1420 1.574 . S
C1412 C1428 1.368 . S
H1413 C1421 0.950 . S
H1414 C1419 0.950 . S
H1415 C1420 0.949 . S
H1416 C1422 0.950 . S
H1417 C1423 0.950 . S
H1418 C1424 0.949 . S
C1419 H1414 0.950 . S
C1419 C1421 1.327 . S
C1419 C1425 1.429 . S
C1420 C1412 1.574 . S
C1420 H1415 0.949 . S
C1420 C1426 1.368 . S
C1421 C1405 1.349 . S
C1421 H1413 0.950 . S
C1421 C1419 1.327 . S
C1422 C1410 1.349 . S
C1422 H1416 0.950 . S
C1422 C1423 1.327 . S
C1423 H1417 0.950 . S
C1423 C1422 1.327 . S
C1423 C1427 1.429 . S
C1424 C1407 1.574 . S
C1424 H1418 0.949 . S
C1424 C1428 1.368 . S
C1425 C1406 1.429 . S
C1425 C1419 1.429 . S
C1425 C1426 1.523 . S
C1426 C1407 1.368 . S
C1426 C1420 1.368 . S
C1426 C1425 1.523 . S
C1427 C1411 1.429 . S
C1427 C1423 1.429 . S
C1427 C1428 1.523 . S
C1428 C1412 1.368 . S
C1428 C1424 1.368 . S
C1428 C1427 1.523 . S
H1429 C1404 0.950 . S
H1430 C1406 0.950 . S
H1431 C1407 0.949 . S
H1432 C1409 0.950 . S
H1433 C1411 0.950 . S
C1434 C1435 1.349 . S
C1434 C1436 1.327 . S
C1434 H1459 0.950 . S
C1435 C1434 1.349 . S
C1435 C1451 1.349 . S
C1436 C1434 1.327 . S
C1436 C1455 1.429 . S
C1436 H1460 0.950 . S
C1437 C1454 1.574 . S
C1437 C1456 1.368 . S
C1437 H1461 0.949 . S
H1438 C1442 0.949 . S
C1439 C1440 1.349 . S
C1439 C1441 1.327 . S
C1439 H1462 0.950 . S
C1440 C1439 1.349 . S
C1440 C1452 1.349 . S
C1441 C1439 1.327 . S
C1441 C1457 1.429 . S
C1441 H1463 0.950 . S
C1442 H1438 0.949 . S
C1442 C1450 1.574 . S
C1442 C1458 1.368 . S
H1443 C1451 0.950 . S
H1444 C1449 0.950 . S
H1445 C1450 0.949 . S
H1446 C1452 0.950 . S
H1447 C1453 0.950 . S
H1448 C1454 0.949 . S
C1449 H1444 0.950 . S
C1449 C1451 1.327 . S
C1449 C1455 1.429 . S
C1450 C1442 1.574 . S
C1450 H1445 0.949 . S
C1450 C1456 1.368 . S
C1451 C1435 1.349 . S
C1451 H1443 0.950 . S
C1451 C1449 1.327 . S
C1452 C1440 1.349 . S
C1452 H1446 0.950 . S
C1452 C1453 1.327 . S
C1453 H1447 0.950 . S
C1453 C1452 1.327 . S
C1453 C1457 1.429 . S
C1454 C1437 1.574 . S
C1454 H1448 0.949 . S
C1454 C1458 1.368 . S
C1455 C1436 1.429 . S
C1455 C1449 1.429 . S
C1455 C1456 1.523 . S
C1456 C1437 1.368 . S
C1456 C1450 1.368 . S
C1456 C1455 1.523 . S
C1457 C1441 1.429 . S
C1457 C1453 1.429 . S
C1457 C1458 1.523 . S
C1458 C1442 1.368 . S
C1458 C1454 1.368 . S
C1458 C1457 1.523 . S
H1459 C1434 0.950 . S
H1460 C1436 0.950 . S
H1461 C1437 0.949 . S
H1462 C1439 0.950 . S
H1463 C1441 0.950 . S
C1464 C1465 1.349 . S
C1464 C1466 1.327 . S
C1464 H1489 0.950 . S
C1465 C1464 1.349 . S
C1465 C1481 1.349 . S
C1466 C1464 1.327 . S
C1466 C1485 1.429 . S
C1466 H1490 0.950 . S
C1467 C1484 1.574 . S
C1467 C1486 1.368 . S
C1467 H1491 0.949 . S
H1468 C1472 0.949 . S
C1469 C1470 1.349 . S
C1469 C1471 1.327 . S
C1469 H1492 0.950 . S
C1470 C1469 1.349 . S
C1470 C1482 1.349 . S
C1471 C1469 1.327 . S
C1471 C1487 1.429 . S
C1471 H1493 0.950 . S
C1472 H1468 0.949 . S
C1472 C1480 1.574 . S
C1472 C1488 1.368 . S
H1473 C1481 0.950 . S
H1474 C1479 0.950 . S
H1475 C1480 0.949 . S
H1476 C1482 0.950 . S
H1477 C1483 0.950 . S
H1478 C1484 0.949 . S
C1479 H1474 0.950 . S
C1479 C1481 1.327 . S
C1479 C1485 1.429 . S
C1480 C1472 1.574 . S
C1480 H1475 0.949 . S
C1480 C1486 1.368 . S
C1481 C1465 1.349 . S
C1481 H1473 0.950 . S
C1481 C1479 1.327 . S
C1482 C1470 1.349 . S
C1482 H1476 0.950 . S
C1482 C1483 1.327 . S
C1483 H1477 0.950 . S
C1483 C1482 1.327 . S
C1483 C1487 1.429 . S
C1484 C1467 1.574 . S
C1484 H1478 0.949 . S
C1484 C1488 1.368 . S
C1485 C1466 1.429 . S
C1485 C1479 1.429 . S
C1485 C1486 1.523 . S
C1486 C1467 1.368 . S
C1486 C1480 1.368 . S
C1486 C1485 1.523 . S
C1487 C1471 1.429 . S
C1487 C1483 1.429 . S
C1487 C1488 1.523 . S
C1488 C1472 1.368 . S
C1488 C1484 1.368 . S
C1488 C1487 1.523 . S
H1489 C1464 0.950 . S
H1490 C1466 0.950 . S
H1491 C1467 0.949 . S
H1492 C1469 0.950 . S
H1493 C1471 0.950 . S
C1494 C1495 1.349 . S
C1494 C1496 1.327 . S
C1494 H1519 0.950 . S
C1495 C1494 1.349 . S
C1495 C1511 1.349 . S
C1496 C1494 1.327 . S
C1496 C1515 1.429 . S
C1496 H1520 0.950 . S
C1497 C1514 1.574 . S
C1497 C1516 1.368 . S
C1497 H1521 0.949 . S
H1498 C1502 0.949 . S
C1499 C1500 1.349 . S
C1499 C1501 1.327 . S
C1499 H1522 0.950 . S
C1500 C1499 1.349 . S
C1500 C1512 1.349 . S
C1501 C1499 1.327 . S
C1501 C1517 1.429 . S
C1501 H1523 0.950 . S
C1502 H1498 0.949 . S
C1502 C1510 1.574 . S
C1502 C1518 1.368 . S
H1503 C1511 0.950 . S
H1504 C1509 0.950 . S
H1505 C1510 0.949 . S
H1506 C1512 0.950 . S
H1507 C1513 0.950 . S
H1508 C1514 0.949 . S
C1509 H1504 0.950 . S
C1509 C1511 1.327 . S
C1509 C1515 1.429 . S
C1510 C1502 1.574 . S
C1510 H1505 0.949 . S
C1510 C1516 1.368 . S
C1511 C1495 1.349 . S
C1511 H1503 0.950 . S
C1511 C1509 1.327 . S
C1512 C1500 1.349 . S
C1512 H1506 0.950 . S
C1512 C1513 1.327 . S
C1513 H1507 0.950 . S
C1513 C1512 1.327 . S
C1513 C1517 1.429 . S
C1514 C1497 1.574 . S
C1514 H1508 0.949 . S
C1514 C1518 1.368 . S
C1515 C1496 1.429 . S
C1515 C1509 1.429 . S
C1515 C1516 1.523 . S
C1516 C1497 1.368 . S
C1516 C1510 1.368 . S
C1516 C1515 1.523 . S
C1517 C1501 1.429 . S
C1517 C1513 1.429 . S
C1517 C1518 1.523 . S
C1518 C1502 1.368 . S
C1518 C1514 1.368 . S
C1518 C1517 1.523 . S
H1519 C1494 0.950 . S
H1520 C1496 0.950 . S
H1521 C1497 0.949 . S
H1522 C1499 0.950 . S
H1523 C1501 0.950 . S
C1524 C1525 1.349 . S
C1524 C1526 1.327 . S
C1524 H1549 0.950 . S
C1525 C1524 1.349 . S
C1525 C1541 1.349 . S
C1526 C1524 1.327 . S
C1526 C1545 1.429 . S
C1526 H1550 0.950 . S
C1527 C1544 1.574 . S
C1527 C1546 1.368 . S
C1527 H1551 0.949 . S
H1528 C1532 0.949 . S
C1529 C1530 1.349 . S
C1529 C1531 1.327 . S
C1529 H1552 0.950 . S
C1530 C1529 1.349 . S
C1530 C1542 1.349 . S
C1531 C1529 1.327 . S
C1531 C1547 1.429 . S
C1531 H1553 0.950 . S
C1532 H1528 0.949 . S
C1532 C1540 1.574 . S
C1532 C1548 1.368 . S
H1533 C1541 0.950 . S
H1534 C1539 0.950 . S
H1535 C1540 0.949 . S
H1536 C1542 0.950 . S
H1537 C1543 0.950 . S
H1538 C1544 0.949 . S
C1539 H1534 0.950 . S
C1539 C1541 1.327 . S
C1539 C1545 1.429 . S
C1540 C1532 1.574 . S
C1540 H1535 0.949 . S
C1540 C1546 1.368 . S
C1541 C1525 1.349 . S
C1541 H1533 0.950 . S
C1541 C1539 1.327 . S
C1542 C1530 1.349 . S
C1542 H1536 0.950 . S
C1542 C1543 1.327 . S
C1543 H1537 0.950 . S
C1543 C1542 1.327 . S
C1543 C1547 1.429 . S
C1544 C1527 1.574 . S
C1544 H1538 0.949 . S
C1544 C1548 1.368 . S
C1545 C1526 1.429 . S
C1545 C1539 1.429 . S
C1545 C1546 1.523 . S
C1546 C1527 1.368 . S
C1546 C1540 1.368 . S
C1546 C1545 1.523 . S
C1547 C1531 1.429 . S
C1547 C1543 1.429 . S
C1547 C1548 1.523 . S
C1548 C1532 1.368 . S
C1548 C1544 1.368 . S
C1548 C1547 1.523 . S
H1549 C1524 0.950 . S
H1550 C1526 0.950 . S
H1551 C1527 0.949 . S
H1552 C1529 0.950 . S
H1553 C1531 0.950 . S
C1554 C1555 1.349 . S
C1554 C1556 1.327 . S
C1554 H1579 0.950 . S
C1555 C1554 1.349 . S
C1555 C1571 1.349 . S
C1556 C1554 1.327 . S
C1556 C1575 1.429 . S
C1556 H1580 0.950 . S
C1557 C1574 1.574 . S
C1557 C1576 1.368 . S
C1557 H1581 0.949 . S
H1558 C1562 0.949 . S
C1559 C1560 1.349 . S
C1559 C1561 1.327 . S
C1559 H1582 0.950 . S
C1560 C1559 1.349 . S
C1560 C1572 1.349 . S
C1561 C1559 1.327 . S
C1561 C1577 1.429 . S
C1561 H1583 0.950 . S
C1562 H1558 0.949 . S
C1562 C1570 1.574 . S
C1562 C1578 1.368 . S
H1563 C1571 0.950 . S
H1564 C1569 0.950 . S
H1565 C1570 0.949 . S
H1566 C1572 0.950 . S
H1567 C1573 0.950 . S
H1568 C1574 0.949 . S
C1569 H1564 0.950 . S
C1569 C1571 1.327 . S
C1569 C1575 1.429 . S
C1570 C1562 1.574 . S
C1570 H1565 0.949 . S
C1570 C1576 1.368 . S
C1571 C1555 1.349 . S
C1571 H1563 0.950 . S
C1571 C1569 1.327 . S
C1572 C1560 1.349 . S
C1572 H1566 0.950 . S
C1572 C1573 1.327 . S
C1573 H1567 0.950 . S
C1573 C1572 1.327 . S
C1573 C1577 1.429 . S
C1574 C1557 1.574 . S
C1574 H1568 0.949 . S
C1574 C1578 1.368 . S
C1575 C1556 1.429 . S
C1575 C1569 1.429 . S
C1575 C1576 1.523 . S
C1576 C1557 1.368 . S
C1576 C1570 1.368 . S
C1576 C1575 1.523 . S
C1577 C1561 1.429 . S
C1577 C1573 1.429 . S
C1577 C1578 1.523 . S
C1578 C1562 1.368 . S
C1578 C1574 1.368 . S
C1578 C1577 1.523 . S
H1579 C1554 0.950 . S
H1580 C1556 0.950 . S
H1581 C1557 0.949 . S
H1582 C1559 0.950 . S
H1583 C1561 0.950 . S
C1584 C1585 1.349 . S
C1584 C1586 1.327 . S
C1584 H1609 0.950 . S
C1585 C1584 1.349 . S
C1585 C1601 1.349 . S
C1586 C1584 1.327 . S
C1586 C1605 1.429 . S
C1586 H1610 0.950 . S
C1587 C1604 1.574 . S
C1587 C1606 1.368 . S
C1587 H1611 0.949 . S
H1588 C1592 0.949 . S
C1589 C1590 1.349 . S
C1589 C1591 1.327 . S
C1589 H1612 0.950 . S
C1590 C1589 1.349 . S
C1590 C1602 1.349 . S
C1591 C1589 1.327 . S
C1591 C1607 1.429 . S
C1591 H1613 0.950 . S
C1592 H1588 0.949 . S
C1592 C1600 1.574 . S
C1592 C1608 1.368 . S
H1593 C1601 0.950 . S
H1594 C1599 0.950 . S
H1595 C1600 0.949 . S
H1596 C1602 0.950 . S
H1597 C1603 0.950 . S
H1598 C1604 0.949 . S
C1599 H1594 0.950 . S
C1599 C1601 1.327 . S
C1599 C1605 1.429 . S
C1600 C1592 1.574 . S
C1600 H1595 0.949 . S
C1600 C1606 1.368 1_545 S
C1601 C1585 1.349 . S
C1601 H1593 0.950 . S
C1601 C1599 1.327 . S
C1602 C1590 1.349 . S
C1602 H1596 0.950 . S
C1602 C1603 1.327 . S
C1603 H1597 0.950 . S
C1603 C1602 1.327 . S
C1603 C1607 1.429 . S
C1604 C1587 1.574 . S
C1604 H1598 0.949 . S
C1604 C1608 1.368 1_565 S
C1605 C1586 1.429 . S
C1605 C1599 1.429 . S
C1605 C1606 1.523 . S
C1606 C1587 1.368 . S
C1606 C1600 1.368 1_565 S
C1606 C1605 1.523 . S
C1607 C1591 1.429 . S
C1607 C1603 1.429 . S
C1607 C1608 1.523 . S
C1608 C1592 1.368 . S
C1608 C1604 1.368 1_545 S
C1608 C1607 1.523 . S
H1609 C1584 0.950 . S
H1610 C1586 0.950 . S
H1611 C1587 0.949 . S
H1612 C1589 0.950 . S
H1613 C1591 0.950 . S
C1614 C1615 1.349 . S
C1614 C1616 1.327 . S
C1614 H1639 0.950 . S
C1615 C1614 1.349 . S
C1615 C1631 1.349 . S
C1616 C1614 1.327 . S
C1616 C1635 1.429 . S
C1616 H1640 0.950 . S
C1617 C1634 1.574 . S
C1617 C1636 1.368 1_565 S
C1617 H1641 0.949 . S
H1618 C1622 0.949 . S
C1619 C1620 1.349 . S
C1619 C1621 1.327 . S
C1619 H1642 0.950 . S
C1620 C1619 1.349 . S
C1620 C1632 1.349 . S
C1621 C1619 1.327 . S
C1621 C1637 1.429 . S
C1621 H1643 0.950 . S
C1622 H1618 0.949 . S
C1622 C1630 1.574 . S
C1622 C1638 1.368 1_545 S
H1623 C1631 0.950 . S
H1624 C1629 0.950 . S
H1625 C1630 0.949 . S
H1626 C1632 0.950 . S
H1627 C1633 0.950 . S
H1628 C1634 0.949 . S
C1629 H1624 0.950 . S
C1629 C1631 1.327 . S
C1629 C1635 1.429 . S
C1630 C1622 1.574 . S
C1630 H1625 0.949 . S
C1630 C1636 1.368 . S
C1631 C1615 1.349 . S
C1631 H1623 0.950 . S
C1631 C1629 1.327 . S
C1632 C1620 1.349 . S
C1632 H1626 0.950 . S
C1632 C1633 1.327 . S
C1633 H1627 0.950 . S
C1633 C1632 1.327 . S
C1633 C1637 1.429 . S
C1634 C1617 1.574 . S
C1634 H1628 0.949 . S
C1634 C1638 1.368 . S
C1635 C1616 1.429 . S
C1635 C1629 1.429 . S
C1635 C1636 1.523 . S
C1636 C1617 1.368 1_545 S
C1636 C1630 1.368 . S
C1636 C1635 1.523 . S
C1637 C1621 1.429 . S
C1637 C1633 1.429 . S
C1637 C1638 1.523 . S
C1638 C1622 1.368 1_565 S
C1638 C1634 1.368 . S
C1638 C1637 1.523 . S
H1639 C1614 0.950 . S
H1640 C1616 0.950 . S
H1641 C1617 0.949 . S
H1642 C1619 0.950 . S
H1643 C1621 0.950 . S
C1644 C1645 1.349 . S
C1644 C1646 1.327 . S
C1644 H1669 0.950 . S
C1645 C1644 1.349 . S
C1645 C1661 1.349 . S
C1646 C1644 1.327 . S
C1646 C1665 1.429 . S
C1646 H1670 0.950 . S
C1647 C1664 1.574 . S
C1647 C1666 1.368 1_565 S
C1647 H1671 0.949 . S
H1648 C1652 0.949 . S
C1649 C1650 1.349 . S
C1649 C1651 1.327 . S
C1649 H1672 0.950 . S
C1650 C1649 1.349 . S
C1650 C1662 1.349 . S
C1651 C1649 1.327 . S
C1651 C1667 1.429 . S
C1651 H1673 0.950 . S
C1652 H1648 0.949 . S
C1652 C1660 1.574 . S
C1652 C1668 1.368 1_545 S
H1653 C1661 0.950 . S
H1654 C1659 0.950 1_565 S
H1655 C1660 0.949 . S
H1656 C1662 0.950 . S
H1657 C1663 0.950 1_545 S
H1658 C1664 0.949 . S
C1659 H1654 0.950 1_545 S
C1659 C1661 1.327 . S
C1659 C1665 1.429 . S
C1660 C1652 1.574 . S
C1660 H1655 0.949 . S
C1660 C1666 1.368 . S
C1661 C1645 1.349 . S
C1661 H1653 0.950 . S
C1661 C1659 1.327 . S
C1662 C1650 1.349 . S
C1662 H1656 0.950 . S
C1662 C1663 1.327 . S
C1663 H1657 0.950 1_565 S
C1663 C1662 1.327 . S
C1663 C1667 1.429 . S
C1664 C1647 1.574 . S
C1664 H1658 0.949 . S
C1664 C1668 1.368 . S
C1665 C1646 1.429 . S
C1665 C1659 1.429 . S
C1665 C1666 1.523 . S
C1666 C1647 1.368 1_545 S
C1666 C1660 1.368 . S
C1666 C1665 1.523 . S
C1667 C1651 1.429 . S
C1667 C1663 1.429 . S
C1667 C1668 1.523 . S
C1668 C1652 1.368 1_565 S
C1668 C1664 1.368 . S
C1668 C1667 1.523 . S
H1669 C1644 0.950 . S
H1670 C1646 0.950 . S
H1671 C1647 0.949 . S
H1672 C1649 0.950 . S
H1673 C1651 0.950 . S
C1674 C1675 1.349 . S
C1674 C1676 1.327 . S
C1674 H1699 0.950 . S
C1675 C1674 1.349 . S
C1675 C1691 1.349 . S
C1676 C1674 1.327 . S
C1676 C1695 1.429 . S
C1676 H1700 0.950 . S
C1677 C1694 1.574 . S
C1677 C1696 1.368 . S
C1677 H1701 0.949 . S
H1678 C1682 0.949 . S
C1679 C1680 1.349 . S
C1679 C1681 1.327 . S
C1679 H1702 0.950 . S
C1680 C1679 1.349 . S
C1680 C1692 1.349 . S
C1681 C1679 1.327 . S
C1681 C1697 1.429 . S
C1681 H1703 0.950 . S
C1682 H1678 0.949 . S
C1682 C1690 1.574 . S
C1682 C1698 1.368 . S
H1683 C1691 0.950 . S
H1684 C1689 0.950 . S
H1685 C1690 0.949 . S
H1686 C1692 0.950 . S
H1687 C1693 0.950 . S
H1688 C1694 0.949 . S
C1689 H1684 0.950 . S
C1689 C1691 1.327 . S
C1689 C1695 1.429 . S
C1690 C1682 1.574 . S
C1690 H1685 0.949 . S
C1690 C1696 1.368 1_565 S
C1691 C1675 1.349 . S
C1691 H1683 0.950 . S
C1691 C1689 1.327 . S
C1692 C1680 1.349 . S
C1692 H1686 0.950 . S
C1692 C1693 1.327 . S
C1693 H1687 0.950 . S
C1693 C1692 1.327 . S
C1693 C1697 1.429 . S
C1694 C1677 1.574 . S
C1694 H1688 0.949 . S
C1694 C1698 1.368 1_545 S
C1695 C1676 1.429 . S
C1695 C1689 1.429 . S
C1695 C1696 1.523 . S
C1696 C1677 1.368 . S
C1696 C1690 1.368 1_545 S
C1696 C1695 1.523 . S
C1697 C1681 1.429 . S
C1697 C1693 1.429 . S
C1697 C1698 1.523 . S
C1698 C1682 1.368 . S
C1698 C1694 1.368 1_565 S
C1698 C1697 1.523 . S
H1699 C1674 0.950 . S
H1700 C1676 0.950 . S
H1701 C1677 0.949 . S
H1702 C1679 0.950 . S
H1703 C1681 0.950 . S
C1704 C1705 1.349 . S
C1704 C1706 1.327 . S
C1704 H1729 0.950 . S
C1705 C1704 1.349 . S
C1705 C1721 1.349 . S
C1706 C1704 1.327 . S
C1706 C1725 1.429 . S
C1706 H1730 0.950 . S
C1707 C1724 1.574 . S
C1707 C1726 1.368 . S
C1707 H1731 0.949 . S
H1708 C1712 0.949 . S
C1709 C1710 1.349 . S
C1709 C1711 1.327 . S
C1709 H1732 0.950 . S
C1710 C1709 1.349 . S
C1710 C1722 1.349 . S
C1711 C1709 1.327 . S
C1711 C1727 1.429 . S
C1711 H1733 0.950 . S
C1712 H1708 0.949 . S
C1712 C1720 1.574 . S
C1712 C1728 1.368 . S
H1713 C1721 0.950 . S
H1714 C1719 0.950 . S
H1715 C1720 0.949 . S
H1716 C1722 0.950 . S
H1717 C1723 0.950 . S
H1718 C1724 0.949 . S
C1719 H1714 0.950 . S
C1719 C1721 1.327 . S
C1719 C1725 1.429 . S
C1720 C1712 1.574 . S
C1720 H1715 0.949 . S
C1720 C1726 1.368 . S
C1721 C1705 1.349 . S
C1721 H1713 0.950 . S
C1721 C1719 1.327 . S
C1722 C1710 1.349 . S
C1722 H1716 0.950 . S
C1722 C1723 1.327 . S
C1723 H1717 0.950 . S
C1723 C1722 1.327 . S
C1723 C1727 1.429 . S
C1724 C1707 1.574 . S
C1724 H1718 0.949 . S
C1724 C1728 1.368 . S
C1725 C1706 1.429 . S
C1725 C1719 1.429 . S
C1725 C1726 1.523 . S
C1726 C1707 1.368 . S
C1726 C1720 1.368 . S
C1726 C1725 1.523 . S
C1727 C1711 1.429 . S
C1727 C1723 1.429 . S
C1727 C1728 1.523 . S
C1728 C1712 1.368 . S
C1728 C1724 1.368 . S
C1728 C1727 1.523 . S
H1729 C1704 0.950 . S
H1730 C1706 0.950 . S
H1731 C1707 0.949 . S
H1732 C1709 0.950 . S
H1733 C1711 0.950 . S
C1734 C1735 1.349 . S
C1734 C1736 1.327 . S
C1734 H1759 0.950 . S
C1735 C1734 1.349 . S
C1735 C1751 1.349 . S
C1736 C1734 1.327 . S
C1736 C1755 1.429 . S
C1736 H1760 0.950 . S
C1737 C1754 1.574 . S
C1737 C1756 1.368 . S
C1737 H1761 0.949 . S
H1738 C1742 0.949 . S
C1739 C1740 1.349 . S
C1739 C1741 1.327 . S
C1739 H1762 0.950 . S
C1740 C1739 1.349 . S
C1740 C1752 1.349 . S
C1741 C1739 1.327 . S
C1741 C1757 1.429 . S
C1741 H1763 0.950 . S
C1742 H1738 0.949 . S
C1742 C1750 1.574 . S
C1742 C1758 1.368 . S
H1743 C1751 0.950 . S
H1744 C1749 0.950 . S
H1745 C1750 0.949 . S
H1746 C1752 0.950 . S
H1747 C1753 0.950 . S
H1748 C1754 0.949 . S
C1749 H1744 0.950 . S
C1749 C1751 1.327 . S
C1749 C1755 1.429 . S
C1750 C1742 1.574 . S
C1750 H1745 0.949 . S
C1750 C1756 1.368 . S
C1751 C1735 1.349 . S
C1751 H1743 0.950 . S
C1751 C1749 1.327 . S
C1752 C1740 1.349 . S
C1752 H1746 0.950 . S
C1752 C1753 1.327 . S
C1753 H1747 0.950 . S
C1753 C1752 1.327 . S
C1753 C1757 1.429 . S
C1754 C1737 1.574 . S
C1754 H1748 0.949 . S
C1754 C1758 1.368 . S
C1755 C1736 1.429 . S
C1755 C1749 1.429 . S
C1755 C1756 1.523 . S
C1756 C1737 1.368 . S
C1756 C1750 1.368 . S
C1756 C1755 1.523 . S
C1757 C1741 1.429 . S
C1757 C1753 1.429 . S
C1757 C1758 1.523 . S
C1758 C1742 1.368 . S
C1758 C1754 1.368 . S
C1758 C1757 1.523 . S
H1759 C1734 0.950 . S
H1760 C1736 0.950 . S
H1761 C1737 0.949 . S
H1762 C1739 0.950 . S
H1763 C1741 0.950 . S
C1764 C1765 1.349 . S
C1764 C1766 1.327 . S
C1764 H1789 0.950 . S
C1765 C1764 1.349 . S
C1765 C1781 1.349 . S
C1766 C1764 1.327 . S
C1766 C1785 1.429 . S
C1766 H1790 0.950 . S
C1767 C1784 1.574 . S
C1767 C1786 1.368 . S
C1767 H1791 0.949 . S
H1768 C1772 0.949 . S
C1769 C1770 1.349 . S
C1769 C1771 1.327 . S
C1769 H1792 0.950 . S
C1770 C1769 1.349 . S
C1770 C1782 1.349 . S
C1771 C1769 1.327 . S
C1771 C1787 1.429 . S
C1771 H1793 0.950 . S
C1772 H1768 0.949 . S
C1772 C1780 1.574 . S
C1772 C1788 1.368 . S
H1773 C1781 0.950 . S
H1774 C1779 0.950 . S
H1775 C1780 0.949 . S
H1776 C1782 0.950 . S
H1777 C1783 0.950 . S
H1778 C1784 0.949 . S
C1779 H1774 0.950 . S
C1779 C1781 1.327 . S
C1779 C1785 1.429 . S
C1780 C1772 1.574 . S
C1780 H1775 0.949 . S
C1780 C1786 1.368 . S
C1781 C1765 1.349 . S
C1781 H1773 0.950 . S
C1781 C1779 1.327 . S
C1782 C1770 1.349 . S
C1782 H1776 0.950 . S
C1782 C1783 1.327 . S
C1783 H1777 0.950 . S
C1783 C1782 1.327 . S
C1783 C1787 1.429 . S
C1784 C1767 1.574 . S
C1784 H1778 0.949 . S
C1784 C1788 1.368 . S
C1785 C1766 1.429 . S
C1785 C1779 1.429 . S
C1785 C1786 1.523 . S
C1786 C1767 1.368 . S
C1786 C1780 1.368 . S
C1786 C1785 1.523 . S
C1787 C1771 1.429 . S
C1787 C1783 1.429 . S
C1787 C1788 1.523 . S
C1788 C1772 1.368 . S
C1788 C1784 1.368 . S
C1788 C1787 1.523 . S
H1789 C1764 0.950 . S
H1790 C1766 0.950 . S
H1791 C1767 0.949 . S
H1792 C1769 0.950 . S
H1793 C1771 0.950 . S
C1794 C1795 1.349 . S
C1794 C1796 1.327 . S
C1794 H1819 0.950 . S
C1795 C1794 1.349 . S
C1795 C1811 1.349 . S
C1796 C1794 1.327 . S
C1796 C1815 1.429 . S
C1796 H1820 0.950 . S
C1797 C1814 1.574 . S
C1797 C1816 1.368 . S
C1797 H1821 0.949 . S
H1798 C1802 0.949 . S
C1799 C1800 1.349 . S
C1799 C1801 1.327 . S
C1799 H1822 0.950 . S
C1800 C1799 1.349 . S
C1800 C1812 1.349 . S
C1801 C1799 1.327 . S
C1801 C1817 1.429 . S
C1801 H1823 0.950 . S
C1802 H1798 0.949 . S
C1802 C1810 1.574 . S
C1802 C1818 1.368 . S
H1803 C1811 0.950 . S
H1804 C1809 0.950 . S
H1805 C1810 0.949 . S
H1806 C1812 0.950 . S
H1807 C1813 0.950 . S
H1808 C1814 0.949 . S
C1809 H1804 0.950 . S
C1809 C1811 1.327 . S
C1809 C1815 1.429 . S
C1810 C1802 1.574 . S
C1810 H1805 0.949 . S
C1810 C1816 1.368 . S
C1811 C1795 1.349 . S
C1811 H1803 0.950 . S
C1811 C1809 1.327 . S
C1812 C1800 1.349 . S
C1812 H1806 0.950 . S
C1812 C1813 1.327 . S
C1813 H1807 0.950 . S
C1813 C1812 1.327 . S
C1813 C1817 1.429 . S
C1814 C1797 1.574 . S
C1814 H1808 0.949 . S
C1814 C1818 1.368 . S
C1815 C1796 1.429 . S
C1815 C1809 1.429 . S
C1815 C1816 1.523 . S
C1816 C1797 1.368 . S
C1816 C1810 1.368 . S
C1816 C1815 1.523 . S
C1817 C1801 1.429 . S
C1817 C1813 1.429 . S
C1817 C1818 1.523 . S
C1818 C1802 1.368 . S
C1818 C1814 1.368 . S
C1818 C1817 1.523 . S
H1819 C1794 0.950 . S
H1820 C1796 0.950 . S
H1821 C1797 0.949 . S
H1822 C1799 0.950 . S
H1823 C1801 0.950 . S
C1824 C1825 1.349 . S
C1824 C1826 1.327 . S
C1824 H1849 0.950 . S
C1825 C1824 1.349 . S
C1825 C1841 1.349 . S
C1826 C1824 1.327 . S
C1826 C1845 1.429 . S
C1826 H1850 0.950 . S
C1827 C1844 1.574 1_556 S
C1827 C1846 1.368 . S
C1827 H1851 0.949 . S
H1828 C1832 0.949 . S
C1829 C1830 1.349 . S
C1829 C1831 1.327 . S
C1829 H1852 0.950 . S
C1830 C1829 1.349 . S
C1830 C1842 1.349 . S
C1831 C1829 1.327 . S
C1831 C1847 1.429 . S
C1831 H1853 0.950 . S
C1832 H1828 0.949 . S
C1832 C1840 1.574 1_554 S
C1832 C1848 1.368 . S
H1833 C1841 0.950 . S
H1834 C1839 0.950 . S
H1835 C1840 0.949 . S
H1836 C1842 0.950 . S
H1837 C1843 0.950 . S
H1838 C1844 0.949 . S
C1839 H1834 0.950 . S
C1839 C1841 1.327 . S
C1839 C1845 1.429 . S
C1840 C1832 1.574 1_556 S
C1840 H1835 0.949 . S
C1840 C1846 1.368 . S
C1841 C1825 1.349 . S
C1841 H1833 0.950 . S
C1841 C1839 1.327 . S
C1842 C1830 1.349 . S
C1842 H1836 0.950 . S
C1842 C1843 1.327 . S
C1843 H1837 0.950 . S
C1843 C1842 1.327 . S
C1843 C1847 1.429 . S
C1844 C1827 1.574 1_554 S
C1844 H1838 0.949 . S
C1844 C1848 1.368 . S
C1845 C1826 1.429 . S
C1845 C1839 1.429 . S
C1845 C1846 1.523 . S
C1846 C1827 1.368 . S
C1846 C1840 1.368 . S
C1846 C1845 1.523 . S
C1847 C1831 1.429 . S
C1847 C1843 1.429 . S
C1847 C1848 1.523 . S
C1848 C1832 1.368 . S
C1848 C1844 1.368 . S
C1848 C1847 1.523 . S
H1849 C1824 0.950 . S
H1850 C1826 0.950 . S
H1851 C1827 0.949 . S
H1852 C1829 0.950 . S
H1853 C1831 0.950 . S
C1854 C1855 1.349 . S
C1854 C1856 1.327 . S
C1854 H1879 0.950 . S
C1855 C1854 1.349 . S
C1855 C1871 1.349 . S
C1856 C1854 1.327 . S
C1856 C1875 1.429 . S
C1856 H1880 0.950 . S
C1857 C1874 1.574 1_556 S
C1857 C1876 1.368 . S
C1857 H1881 0.949 . S
H1858 C1862 0.949 . S
C1859 C1860 1.349 . S
C1859 C1861 1.327 . S
C1859 H1882 0.950 . S
C1860 C1859 1.349 . S
C1860 C1872 1.349 . S
C1861 C1859 1.327 . S
C1861 C1877 1.429 . S
C1861 H1883 0.950 . S
C1862 H1858 0.949 . S
C1862 C1870 1.574 1_554 S
C1862 C1878 1.368 . S
H1863 C1871 0.950 . S
H1864 C1869 0.950 . S
H1865 C1870 0.949 . S
H1866 C1872 0.950 . S
H1867 C1873 0.950 . S
H1868 C1874 0.949 . S
C1869 H1864 0.950 . S
C1869 C1871 1.327 . S
C1869 C1875 1.429 . S
C1870 C1862 1.574 1_556 S
C1870 H1865 0.949 . S
C1870 C1876 1.368 . S
C1871 C1855 1.349 . S
C1871 H1863 0.950 . S
C1871 C1869 1.327 . S
C1872 C1860 1.349 . S
C1872 H1866 0.950 . S
C1872 C1873 1.327 . S
C1873 H1867 0.950 . S
C1873 C1872 1.327 . S
C1873 C1877 1.429 . S
C1874 C1857 1.574 1_554 S
C1874 H1868 0.949 . S
C1874 C1878 1.368 . S
C1875 C1856 1.429 . S
C1875 C1869 1.429 . S
C1875 C1876 1.523 . S
C1876 C1857 1.368 . S
C1876 C1870 1.368 . S
C1876 C1875 1.523 . S
C1877 C1861 1.429 . S
C1877 C1873 1.429 . S
C1877 C1878 1.523 . S
C1878 C1862 1.368 . S
C1878 C1874 1.368 . S
C1878 C1877 1.523 . S
H1879 C1854 0.950 . S
H1880 C1856 0.950 . S
H1881 C1857 0.949 . S
H1882 C1859 0.950 . S
H1883 C1861 0.950 . S
C1884 C1885 1.349 . S
C1884 C1886 1.327 . S
C1884 H1909 0.950 . S
C1885 C1884 1.349 . S
C1885 C1901 1.349 . S
C1886 C1884 1.327 . S
C1886 C1905 1.429 . S
C1886 H1910 0.950 . S
C1887 C1904 1.574 . S
C1887 C1906 1.368 . S
C1887 H1911 0.949 . S
H1888 C1892 0.949 . S
C1889 C1890 1.349 . S
C1889 C1891 1.327 . S
C1889 H1912 0.950 . S
C1890 C1889 1.349 . S
C1890 C1902 1.349 . S
C1891 C1889 1.327 . S
C1891 C1907 1.429 . S
C1891 H1913 0.950 . S
C1892 H1888 0.949 . S
C1892 C1900 1.574 . S
C1892 C1908 1.368 . S
H1893 C1901 0.950 . S
H1894 C1899 0.950 . S
H1895 C1900 0.949 . S
H1896 C1902 0.950 . S
H1897 C1903 0.950 . S
H1898 C1904 0.949 . S
C1899 H1894 0.950 . S
C1899 C1901 1.327 . S
C1899 C1905 1.429 . S
C1900 C1892 1.574 . S
C1900 H1895 0.949 . S
C1900 C1906 1.368 . S
C1901 C1885 1.349 . S
C1901 H1893 0.950 . S
C1901 C1899 1.327 . S
C1902 C1890 1.349 . S
C1902 H1896 0.950 . S
C1902 C1903 1.327 . S
C1903 H1897 0.950 . S
C1903 C1902 1.327 . S
C1903 C1907 1.429 . S
C1904 C1887 1.574 . S
C1904 H1898 0.949 . S
C1904 C1908 1.368 . S
C1905 C1886 1.429 . S
C1905 C1899 1.429 . S
C1905 C1906 1.523 . S
C1906 C1887 1.368 . S
C1906 C1900 1.368 . S
C1906 C1905 1.523 . S
C1907 C1891 1.429 . S
C1907 C1903 1.429 . S
C1907 C1908 1.523 . S
C1908 C1892 1.368 . S
C1908 C1904 1.368 . S
C1908 C1907 1.523 . S
H1909 C1884 0.950 . S
H1910 C1886 0.950 . S
H1911 C1887 0.949 . S
H1912 C1889 0.950 . S
H1913 C1891 0.950 . S
C1914 C1915 1.349 . S
C1914 C1916 1.327 . S
C1914 H1939 0.950 . S
C1915 C1914 1.349 . S
C1915 C1931 1.349 . S
C1916 C1914 1.327 . S
C1916 C1935 1.429 . S
C1916 H1940 0.950 . S
C1917 C1934 1.574 . S
C1917 C1936 1.368 . S
C1917 H1941 0.949 . S
H1918 C1922 0.949 . S
C1919 C1920 1.349 . S
C1919 C1921 1.327 . S
C1919 H1942 0.950 . S
C1920 C1919 1.349 . S
C1920 C1932 1.349 . S
C1921 C1919 1.327 . S
C1921 C1937 1.429 . S
C1921 H1943 0.950 . S
C1922 H1918 0.949 . S
C1922 C1930 1.574 . S
C1922 C1938 1.368 . S
H1923 C1931 0.950 . S
H1924 C1929 0.950 . S
H1925 C1930 0.949 . S
H1926 C1932 0.950 . S
H1927 C1933 0.950 . S
H1928 C1934 0.949 . S
C1929 H1924 0.950 . S
C1929 C1931 1.327 . S
C1929 C1935 1.429 . S
C1930 C1922 1.574 . S
C1930 H1925 0.949 . S
C1930 C1936 1.368 . S
C1931 C1915 1.349 . S
C1931 H1923 0.950 . S
C1931 C1929 1.327 . S
C1932 C1920 1.349 . S
C1932 H1926 0.950 . S
C1932 C1933 1.327 . S
C1933 H1927 0.950 . S
C1933 C1932 1.327 . S
C1933 C1937 1.429 . S
C1934 C1917 1.574 . S
C1934 H1928 0.949 . S
C1934 C1938 1.368 . S
C1935 C1916 1.429 . S
C1935 C1929 1.429 . S
C1935 C1936 1.523 . S
C1936 C1917 1.368 . S
C1936 C1930 1.368 . S
C1936 C1935 1.523 . S
C1937 C1921 1.429 . S
C1937 C1933 1.429 . S
C1937 C1938 1.523 . S
C1938 C1922 1.368 . S
C1938 C1934 1.368 . S
C1938 C1937 1.523 . S
H1939 C1914 0.950 . S
H1940 C1916 0.950 . S
H1941 C1917 0.949 . S
H1942 C1919 0.950 . S
H1943 C1921 0.950 . S
C1944 C1945 1.349 . S
C1944 C1946 1.327 . S
C1944 H1969 0.950 . S
C1945 C1944 1.349 . S
C1945 C1961 1.349 . S
C1946 C1944 1.327 . S
C1946 C1965 1.429 . S
C1946 H1970 0.950 . S
C1947 C1964 1.574 1_554 S
C1947 C1966 1.368 . S
C1947 H1971 0.949 . S
H1948 C1952 0.949 . S
C1949 C1950 1.349 . S
C1949 C1951 1.327 . S
C1949 H1972 0.950 . S
C1950 C1949 1.349 . S
C1950 C1962 1.349 . S
C1951 C1949 1.327 . S
C1951 C1967 1.429 . S
C1951 H1973 0.950 . S
C1952 H1948 0.949 . S
C1952 C1960 1.574 1_556 S
C1952 C1968 1.368 . S
H1953 C1961 0.950 . S
H1954 C1959 0.950 . S
H1955 C1960 0.949 . S
H1956 C1962 0.950 . S
H1957 C1963 0.950 . S
H1958 C1964 0.949 . S
C1959 H1954 0.950 . S
C1959 C1961 1.327 . S
C1959 C1965 1.429 . S
C1960 C1952 1.574 1_554 S
C1960 H1955 0.949 . S
C1960 C1966 1.368 . S
C1961 C1945 1.349 . S
C1961 H1953 0.950 . S
C1961 C1959 1.327 . S
C1962 C1950 1.349 . S
C1962 H1956 0.950 . S
C1962 C1963 1.327 . S
C1963 H1957 0.950 . S
C1963 C1962 1.327 . S
C1963 C1967 1.429 . S
C1964 C1947 1.574 1_556 S
C1964 H1958 0.949 . S
C1964 C1968 1.368 . S
C1965 C1946 1.429 . S
C1965 C1959 1.429 . S
C1965 C1966 1.523 . S
C1966 C1947 1.368 . S
C1966 C1960 1.368 . S
C1966 C1965 1.523 . S
C1967 C1951 1.429 . S
C1967 C1963 1.429 . S
C1967 C1968 1.523 . S
C1968 C1952 1.368 . S
C1968 C1964 1.368 . S
C1968 C1967 1.523 . S
H1969 C1944 0.950 . S
H1970 C1946 0.950 . S
H1971 C1947 0.949 . S
H1972 C1949 0.950 . S
H1973 C1951 0.950 . S
C1974 C1975 1.349 . S
C1974 C1976 1.327 . S
C1974 H1999 0.950 . S
C1975 C1974 1.349 . S
C1975 C1991 1.349 . S
C1976 C1974 1.327 . S
C1976 C1995 1.429 . S
C1976 H2000 0.950 . S
C1977 C1994 1.574 1_556 S
C1977 C1996 1.368 . S
C1977 H2001 0.949 . S
H1978 C1982 0.949 . S
C1979 C1980 1.349 . S
C1979 C1981 1.327 . S
C1979 H2002 0.950 . S
C1980 C1979 1.349 . S
C1980 C1992 1.349 . S
C1981 C1979 1.327 . S
C1981 C1997 1.429 . S
C1981 H2003 0.950 . S
C1982 H1978 0.949 . S
C1982 C1990 1.574 1_554 S
C1982 C1998 1.368 . S
H1983 C1991 0.950 . S
H1984 C1989 0.950 . S
H1985 C1990 0.949 . S
H1986 C1992 0.950 . S
H1987 C1993 0.950 . S
H1988 C1994 0.949 . S
C1989 H1984 0.950 . S
C1989 C1991 1.327 . S
C1989 C1995 1.429 . S
C1990 C1982 1.574 1_556 S
C1990 H1985 0.949 . S
C1990 C1996 1.368 . S
C1991 C1975 1.349 . S
C1991 H1983 0.950 . S
C1991 C1989 1.327 . S
C1992 C1980 1.349 . S
C1992 H1986 0.950 . S
C1992 C1993 1.327 . S
C1993 H1987 0.950 . S
C1993 C1992 1.327 . S
C1993 C1997 1.429 . S
C1994 C1977 1.574 1_554 S
C1994 H1988 0.949 . S
C1994 C1998 1.368 . S
C1995 C1976 1.429 . S
C1995 C1989 1.429 . S
C1995 C1996 1.523 . S
C1996 C1977 1.368 . S
C1996 C1990 1.368 . S
C1996 C1995 1.523 . S
C1997 C1981 1.429 . S
C1997 C1993 1.429 . S
C1997 C1998 1.523 . S
C1998 C1982 1.368 . S
C1998 C1994 1.368 . S
C1998 C1997 1.523 . S
H1999 C1974 0.950 . S
H2000 C1976 0.950 . S
H2001 C1977 0.949 . S
H2002 C1979 0.950 . S
H2003 C1981 0.950 . S
C2004 C2005 1.349 . S
C2004 C2006 1.327 . S
C2004 H2029 0.950 . S
C2005 C2004 1.349 . S
C2005 C2021 1.349 . S
C2006 C2004 1.327 . S
C2006 C2025 1.429 . S
C2006 H2030 0.950 . S
C2007 C2024 1.574 . S
C2007 C2026 1.368 . S
C2007 H2031 0.949 . S
H2008 C2012 0.949 . S
C2009 C2010 1.349 . S
C2009 C2011 1.327 . S
C2009 H2032 0.950 . S
C2010 C2009 1.349 . S
C2010 C2022 1.349 . S
C2011 C2009 1.327 . S
C2011 C2027 1.429 . S
C2011 H2033 0.950 . S
C2012 H2008 0.949 . S
C2012 C2020 1.574 . S
C2012 C2028 1.368 . S
H2013 C2021 0.950 . S
H2014 C2019 0.950 . S
H2015 C2020 0.949 . S
H2016 C2022 0.950 . S
H2017 C2023 0.950 . S
H2018 C2024 0.949 . S
C2019 H2014 0.950 . S
C2019 C2021 1.327 . S
C2019 C2025 1.429 . S
C2020 C2012 1.574 . S
C2020 H2015 0.949 . S
C2020 C2026 1.368 . S
C2021 C2005 1.349 . S
C2021 H2013 0.950 . S
C2021 C2019 1.327 . S
C2022 C2010 1.349 . S
C2022 H2016 0.950 . S
C2022 C2023 1.327 . S
C2023 H2017 0.950 . S
C2023 C2022 1.327 . S
C2023 C2027 1.429 . S
C2024 C2007 1.574 . S
C2024 H2018 0.949 . S
C2024 C2028 1.368 . S
C2025 C2006 1.429 . S
C2025 C2019 1.429 . S
C2025 C2026 1.523 . S
C2026 C2007 1.368 . S
C2026 C2020 1.368 . S
C2026 C2025 1.523 . S
C2027 C2011 1.429 . S
C2027 C2023 1.429 . S
C2027 C2028 1.523 . S
C2028 C2012 1.368 . S
C2028 C2024 1.368 . S
C2028 C2027 1.523 . S
H2029 C2004 0.950 . S
H2030 C2006 0.950 . S
H2031 C2007 0.949 . S
H2032 C2009 0.950 . S
H2033 C2011 0.950 . S
C2034 C2035 1.349 . S
C2034 C2036 1.327 . S
C2034 H2059 0.950 . S
C2035 C2034 1.349 . S
C2035 C2051 1.349 . S
C2036 C2034 1.327 . S
C2036 C2055 1.429 . S
C2036 H2060 0.950 . S
C2037 C2054 1.574 . S
C2037 C2056 1.368 . S
C2037 H2061 0.949 . S
H2038 C2042 0.949 . S
C2039 C2040 1.349 . S
C2039 C2041 1.327 . S
C2039 H2062 0.950 . S
C2040 C2039 1.349 . S
C2040 C2052 1.349 . S
C2041 C2039 1.327 . S
C2041 C2057 1.429 . S
C2041 H2063 0.950 . S
C2042 H2038 0.949 . S
C2042 C2050 1.574 . S
C2042 C2058 1.368 . S
H2043 C2051 0.950 . S
H2044 C2049 0.950 . S
H2045 C2050 0.949 . S
H2046 C2052 0.950 . S
H2047 C2053 0.950 . S
H2048 C2054 0.949 . S
C2049 H2044 0.950 . S
C2049 C2051 1.327 . S
C2049 C2055 1.429 . S
C2050 C2042 1.574 . S
C2050 H2045 0.949 . S
C2050 C2056 1.368 . S
C2051 C2035 1.349 . S
C2051 H2043 0.950 . S
C2051 C2049 1.327 . S
C2052 C2040 1.349 . S
C2052 H2046 0.950 . S
C2052 C2053 1.327 . S
C2053 H2047 0.950 . S
C2053 C2052 1.327 . S
C2053 C2057 1.429 . S
C2054 C2037 1.574 . S
C2054 H2048 0.949 . S
C2054 C2058 1.368 . S
C2055 C2036 1.429 . S
C2055 C2049 1.429 . S
C2055 C2056 1.523 . S
C2056 C2037 1.368 . S
C2056 C2050 1.368 . S
C2056 C2055 1.523 . S
C2057 C2041 1.429 . S
C2057 C2053 1.429 . S
C2057 C2058 1.523 . S
C2058 C2042 1.368 . S
C2058 C2054 1.368 . S
C2058 C2057 1.523 . S
H2059 C2034 0.950 . S
H2060 C2036 0.950 . S
H2061 C2037 0.949 . S
H2062 C2039 0.950 . S
H2063 C2041 0.950 . S
C2064 C2065 1.349 . S
C2064 C2066 1.327 . S
C2064 H2089 0.950 . S
C2065 C2064 1.349 . S
C2065 C2081 1.349 . S
C2066 C2064 1.327 . S
C2066 C2085 1.429 . S
C2066 H2090 0.950 . S
C2067 C2084 1.574 1_655 S
C2067 C2086 1.368 . S
C2067 H2091 0.949 . S
H2068 C2072 0.949 . S
C2069 C2070 1.349 . S
C2069 C2071 1.327 . S
C2069 H2092 0.950 . S
C2070 C2069 1.349 . S
C2070 C2082 1.349 . S
C2071 C2069 1.327 . S
C2071 C2087 1.429 . S
C2071 H2093 0.950 . S
C2072 H2068 0.949 . S
C2072 C2080 1.574 1_455 S
C2072 C2088 1.368 . S
H2073 C2081 0.950 . S
H2074 C2079 0.950 . S
H2075 C2080 0.949 . S
H2076 C2082 0.950 . S
H2077 C2083 0.950 . S
H2078 C2084 0.949 . S
C2079 H2074 0.950 . S
C2079 C2081 1.327 . S
C2079 C2085 1.429 . S
C2080 C2072 1.574 1_655 S
C2080 H2075 0.949 . S
C2080 C2086 1.368 1_545 S
C2081 C2065 1.349 . S
C2081 H2073 0.950 . S
C2081 C2079 1.327 . S
C2082 C2070 1.349 . S
C2082 H2076 0.950 . S
C2082 C2083 1.327 . S
C2083 H2077 0.950 . S
C2083 C2082 1.327 . S
C2083 C2087 1.429 . S
C2084 C2067 1.574 1_455 S
C2084 H2078 0.949 . S
C2084 C2088 1.368 1_565 S
C2085 C2066 1.429 . S
C2085 C2079 1.429 . S
C2085 C2086 1.523 . S
C2086 C2067 1.368 . S
C2086 C2080 1.368 1_565 S
C2086 C2085 1.523 . S
C2087 C2071 1.429 . S
C2087 C2083 1.429 . S
C2087 C2088 1.523 . S
C2088 C2072 1.368 . S
C2088 C2084 1.368 1_545 S
C2088 C2087 1.523 . S
H2089 C2064 0.950 . S
H2090 C2066 0.950 . S
H2091 C2067 0.949 . S
H2092 C2069 0.950 . S
H2093 C2071 0.950 . S
C2094 C2095 1.349 . S
C2094 C2096 1.327 . S
C2094 H2119 0.950 . S
C2095 C2094 1.349 . S
C2095 C2111 1.349 . S
C2096 C2094 1.327 . S
C2096 C2115 1.429 . S
C2096 H2120 0.950 . S
C2097 C2114 1.574 1_655 S
C2097 C2116 1.368 . S
C2097 H2121 0.949 . S
H2098 C2102 0.949 . S
C2099 C2100 1.349 . S
C2099 C2101 1.327 . S
C2099 H2122 0.950 . S
C2100 C2099 1.349 . S
C2100 C2112 1.349 . S
C2101 C2099 1.327 . S
C2101 C2117 1.429 . S
C2101 H2123 0.950 . S
C2102 H2098 0.949 . S
C2102 C2110 1.574 1_455 S
C2102 C2118 1.368 . S
H2103 C2111 0.950 . S
H2104 C2109 0.950 . S
H2105 C2110 0.949 . S
H2106 C2112 0.950 . S
H2107 C2113 0.950 . S
H2108 C2114 0.949 . S
C2109 H2104 0.950 . S
C2109 C2111 1.327 . S
C2109 C2115 1.429 . S
C2110 C2102 1.574 1_655 S
C2110 H2105 0.949 . S
C2110 C2116 1.368 1_565 S
C2111 C2095 1.349 . S
C2111 H2103 0.950 . S
C2111 C2109 1.327 . S
C2112 C2100 1.349 . S
C2112 H2106 0.950 . S
C2112 C2113 1.327 . S
C2113 H2107 0.950 . S
C2113 C2112 1.327 . S
C2113 C2117 1.429 . S
C2114 C2097 1.574 1_455 S
C2114 H2108 0.949 . S
C2114 C2118 1.368 1_545 S
C2115 C2096 1.429 . S
C2115 C2109 1.429 . S
C2115 C2116 1.523 . S
C2116 C2097 1.368 . S
C2116 C2110 1.368 1_545 S
C2116 C2115 1.523 . S
C2117 C2101 1.429 . S
C2117 C2113 1.429 . S
C2117 C2118 1.523 . S
C2118 C2102 1.368 . S
C2118 C2114 1.368 1_565 S
C2118 C2117 1.523 . S
H2119 C2094 0.950 . S
H2120 C2096 0.950 . S
H2121 C2097 0.949 . S
H2122 C2099 0.950 . S
H2123 C2101 0.950 . S
C2124 C2125 1.349 . S
C2124 C2126 1.327 . S
C2124 H2149 0.950 . S
C2125 C2124 1.349 . S
C2125 C2141 1.349 . S
C2126 C2124 1.327 . S
C2126 C2145 1.429 . S
C2126 H2150 0.950 . S
C2127 C2144 1.574 1_455 S
C2127 C2146 1.368 . S
C2127 H2151 0.949 . S
H2128 C2132 0.949 . S
C2129 C2130 1.349 . S
C2129 C2131 1.327 . S
C2129 H2152 0.950 . S
C2130 C2129 1.349 . S
C2130 C2142 1.349 . S
C2131 C2129 1.327 . S
C2131 C2147 1.429 . S
C2131 H2153 0.950 . S
C2132 H2128 0.949 . S
C2132 C2140 1.574 1_655 S
C2132 C2148 1.368 . S
H2133 C2141 0.950 . S
H2134 C2139 0.950 . S
H2135 C2140 0.949 . S
H2136 C2142 0.950 . S
H2137 C2143 0.950 . S
H2138 C2144 0.949 . S
C2139 H2134 0.950 . S
C2139 C2141 1.327 . S
C2139 C2145 1.429 . S
C2140 C2132 1.574 1_455 S
C2140 H2135 0.949 . S
C2140 C2146 1.368 1_565 S
C2141 C2125 1.349 . S
C2141 H2133 0.950 . S
C2141 C2139 1.327 . S
C2142 C2130 1.349 . S
C2142 H2136 0.950 . S
C2142 C2143 1.327 . S
C2143 H2137 0.950 . S
C2143 C2142 1.327 . S
C2143 C2147 1.429 . S
C2144 C2127 1.574 1_655 S
C2144 H2138 0.949 . S
C2144 C2148 1.368 1_545 S
C2145 C2126 1.429 . S
C2145 C2139 1.429 . S
C2145 C2146 1.523 . S
C2146 C2127 1.368 . S
C2146 C2140 1.368 1_545 S
C2146 C2145 1.523 . S
C2147 C2131 1.429 . S
C2147 C2143 1.429 . S
C2147 C2148 1.523 . S
C2148 C2132 1.368 . S
C2148 C2144 1.368 1_565 S
C2148 C2147 1.523 . S
H2149 C2124 0.950 . S
H2150 C2126 0.950 . S
H2151 C2127 0.949 . S
H2152 C2129 0.950 . S
H2153 C2131 0.950 . S
C2154 C2155 1.349 . S
C2154 C2156 1.327 . S
C2154 H2179 0.950 . S
C2155 C2154 1.349 . S
C2155 C2171 1.349 . S
C2156 C2154 1.327 . S
C2156 C2175 1.429 . S
C2156 H2180 0.950 . S
C2157 C2174 1.574 1_655 S
C2157 C2176 1.368 1_565 S
C2157 H2181 0.949 . S
H2158 C2162 0.949 . S
C2159 C2160 1.349 . S
C2159 C2161 1.327 . S
C2159 H2182 0.950 . S
C2160 C2159 1.349 . S
C2160 C2172 1.349 . S
C2161 C2159 1.327 . S
C2161 C2177 1.429 . S
C2161 H2183 0.950 . S
C2162 H2158 0.949 . S
C2162 C2170 1.574 1_455 S
C2162 C2178 1.368 1_545 S
H2163 C2171 0.950 . S
H2164 C2169 0.950 . S
H2165 C2170 0.949 . S
H2166 C2172 0.950 . S
H2167 C2173 0.950 . S
H2168 C2174 0.949 . S
C2169 H2164 0.950 . S
C2169 C2171 1.327 . S
C2169 C2175 1.429 . S
C2170 C2162 1.574 1_655 S
C2170 H2165 0.949 . S
C2170 C2176 1.368 . S
C2171 C2155 1.349 . S
C2171 H2163 0.950 . S
C2171 C2169 1.327 . S
C2172 C2160 1.349 . S
C2172 H2166 0.950 . S
C2172 C2173 1.327 . S
C2173 H2167 0.950 . S
C2173 C2172 1.327 . S
C2173 C2177 1.429 . S
C2174 C2157 1.574 1_455 S
C2174 H2168 0.949 . S
C2174 C2178 1.368 . S
C2175 C2156 1.429 . S
C2175 C2169 1.429 . S
C2175 C2176 1.523 . S
C2176 C2157 1.368 1_545 S
C2176 C2170 1.368 . S
C2176 C2175 1.523 . S
C2177 C2161 1.429 . S
C2177 C2173 1.429 . S
C2177 C2178 1.523 . S
C2178 C2162 1.368 1_565 S
C2178 C2174 1.368 . S
C2178 C2177 1.523 . S
H2179 C2154 0.950 . S
H2180 C2156 0.950 . S
H2181 C2157 0.949 . S
H2182 C2159 0.950 . S
H2183 C2161 0.950 . S
C2184 C2185 1.349 . S
C2184 C2186 1.327 . S
C2184 H2209 0.950 . S
C2185 C2184 1.349 . S
C2185 C2201 1.349 . S
C2186 C2184 1.327 . S
C2186 C2205 1.429 . S
C2186 H2210 0.950 . S
C2187 C2204 1.574 . S
C2187 C2206 1.368 . S
C2187 H2211 0.949 . S
H2188 C2192 0.949 . S
C2189 C2190 1.349 . S
C2189 C2191 1.327 . S
C2189 H2212 0.950 . S
C2190 C2189 1.349 . S
C2190 C2202 1.349 . S
C2191 C2189 1.327 . S
C2191 C2207 1.429 . S
C2191 H2213 0.950 . S
C2192 H2188 0.949 . S
C2192 C2200 1.574 . S
C2192 C2208 1.368 . S
H2193 C2201 0.950 . S
H2194 C2199 0.950 . S
H2195 C2200 0.949 . S
H2196 C2202 0.950 . S
H2197 C2203 0.950 . S
H2198 C2204 0.949 . S
C2199 H2194 0.950 . S
C2199 C2201 1.327 . S
C2199 C2205 1.429 . S
C2200 C2192 1.574 . S
C2200 H2195 0.949 . S
C2200 C2206 1.368 . S
C2201 C2185 1.349 . S
C2201 H2193 0.950 . S
C2201 C2199 1.327 . S
C2202 C2190 1.349 . S
C2202 H2196 0.950 . S
C2202 C2203 1.327 . S
C2203 H2197 0.950 . S
C2203 C2202 1.327 . S
C2203 C2207 1.429 . S
C2204 C2187 1.574 . S
C2204 H2198 0.949 . S
C2204 C2208 1.368 . S
C2205 C2186 1.429 . S
C2205 C2199 1.429 . S
C2205 C2206 1.523 . S
C2206 C2187 1.368 . S
C2206 C2200 1.368 . S
C2206 C2205 1.523 . S
C2207 C2191 1.429 . S
C2207 C2203 1.429 . S
C2207 C2208 1.523 . S
C2208 C2192 1.368 . S
C2208 C2204 1.368 . S
C2208 C2207 1.523 . S
H2209 C2184 0.950 . S
H2210 C2186 0.950 . S
H2211 C2187 0.949 . S
H2212 C2189 0.950 . S
H2213 C2191 0.950 . S
C2214 C2215 1.349 . S
C2214 C2216 1.327 . S
C2214 H2239 0.950 . S
C2215 C2214 1.349 . S
C2215 C2231 1.349 . S
C2216 C2214 1.327 . S
C2216 C2235 1.429 . S
C2216 H2240 0.950 . S
C2217 C2234 1.574 . S
C2217 C2236 1.368 . S
C2217 H2241 0.949 . S
H2218 C2222 0.949 . S
C2219 C2220 1.349 . S
C2219 C2221 1.327 . S
C2219 H2242 0.950 . S
C2220 C2219 1.349 . S
C2220 C2232 1.349 . S
C2221 C2219 1.327 . S
C2221 C2237 1.429 . S
C2221 H2243 0.950 . S
C2222 H2218 0.949 . S
C2222 C2230 1.574 . S
C2222 C2238 1.368 . S
H2223 C2231 0.950 . S
H2224 C2229 0.950 . S
H2225 C2230 0.949 . S
H2226 C2232 0.950 . S
H2227 C2233 0.950 . S
H2228 C2234 0.949 . S
C2229 H2224 0.950 . S
C2229 C2231 1.327 . S
C2229 C2235 1.429 . S
C2230 C2222 1.574 . S
C2230 H2225 0.949 . S
C2230 C2236 1.368 . S
C2231 C2215 1.349 . S
C2231 H2223 0.950 . S
C2231 C2229 1.327 . S
C2232 C2220 1.349 . S
C2232 H2226 0.950 . S
C2232 C2233 1.327 . S
C2233 H2227 0.950 . S
C2233 C2232 1.327 . S
C2233 C2237 1.429 . S
C2234 C2217 1.574 . S
C2234 H2228 0.949 . S
C2234 C2238 1.368 . S
C2235 C2216 1.429 . S
C2235 C2229 1.429 . S
C2235 C2236 1.523 . S
C2236 C2217 1.368 . S
C2236 C2230 1.368 . S
C2236 C2235 1.523 . S
C2237 C2221 1.429 . S
C2237 C2233 1.429 . S
C2237 C2238 1.523 . S
C2238 C2222 1.368 . S
C2238 C2234 1.368 . S
C2238 C2237 1.523 . S
H2239 C2214 0.950 . S
H2240 C2216 0.950 . S
H2241 C2217 0.949 . S
H2242 C2219 0.950 . S
H2243 C2221 0.950 . S
C2244 C2245 1.349 . S
C2244 C2246 1.327 . S
C2244 H2269 0.950 . S
C2245 C2244 1.349 . S
C2245 C2261 1.349 . S
C2246 C2244 1.327 . S
C2246 C2265 1.429 . S
C2246 H2270 0.950 . S
C2247 C2264 1.574 . S
C2247 C2266 1.368 . S
C2247 H2271 0.949 . S
H2248 C2252 0.949 . S
C2249 C2250 1.349 . S
C2249 C2251 1.327 . S
C2249 H2272 0.950 . S
C2250 C2249 1.349 . S
C2250 C2262 1.349 . S
C2251 C2249 1.327 . S
C2251 C2267 1.429 . S
C2251 H2273 0.950 . S
C2252 H2248 0.949 . S
C2252 C2260 1.574 . S
C2252 C2268 1.368 . S
H2253 C2261 0.950 . S
H2254 C2259 0.950 . S
H2255 C2260 0.949 . S
H2256 C2262 0.950 . S
H2257 C2263 0.950 . S
H2258 C2264 0.949 . S
C2259 H2254 0.950 . S
C2259 C2261 1.327 . S
C2259 C2265 1.429 . S
C2260 C2252 1.574 . S
C2260 H2255 0.949 . S
C2260 C2266 1.368 . S
C2261 C2245 1.349 . S
C2261 H2253 0.950 . S
C2261 C2259 1.327 . S
C2262 C2250 1.349 . S
C2262 H2256 0.950 . S
C2262 C2263 1.327 . S
C2263 H2257 0.950 . S
C2263 C2262 1.327 . S
C2263 C2267 1.429 . S
C2264 C2247 1.574 . S
C2264 H2258 0.949 . S
C2264 C2268 1.368 . S
C2265 C2246 1.429 . S
C2265 C2259 1.429 . S
C2265 C2266 1.523 . S
C2266 C2247 1.368 . S
C2266 C2260 1.368 . S
C2266 C2265 1.523 . S
C2267 C2251 1.429 . S
C2267 C2263 1.429 . S
C2267 C2268 1.523 . S
C2268 C2252 1.368 . S
C2268 C2264 1.368 . S
C2268 C2267 1.523 . S
H2269 C2244 0.950 . S
H2270 C2246 0.950 . S
H2271 C2247 0.949 . S
H2272 C2249 0.950 . S
H2273 C2251 0.950 . S
C2274 C2275 1.349 . S
C2274 C2276 1.327 . S
C2274 H2299 0.950 . S
C2275 C2274 1.349 . S
C2275 C2291 1.349 . S
C2276 C2274 1.327 . S
C2276 C2295 1.429 . S
C2276 H2300 0.950 . S
C2277 C2294 1.574 . S
C2277 C2296 1.368 . S
C2277 H2301 0.949 . S
H2278 C2282 0.949 . S
C2279 C2280 1.349 . S
C2279 C2281 1.327 . S
C2279 H2302 0.950 . S
C2280 C2279 1.349 . S
C2280 C2292 1.349 . S
C2281 C2279 1.327 . S
C2281 C2297 1.429 . S
C2281 H2303 0.950 . S
C2282 H2278 0.949 . S
C2282 C2290 1.574 . S
C2282 C2298 1.368 . S
H2283 C2291 0.950 . S
H2284 C2289 0.950 . S
H2285 C2290 0.949 . S
H2286 C2292 0.950 . S
H2287 C2293 0.950 . S
H2288 C2294 0.949 . S
C2289 H2284 0.950 . S
C2289 C2291 1.327 . S
C2289 C2295 1.429 . S
C2290 C2282 1.574 . S
C2290 H2285 0.949 . S
C2290 C2296 1.368 . S
C2291 C2275 1.349 . S
C2291 H2283 0.950 . S
C2291 C2289 1.327 . S
C2292 C2280 1.349 . S
C2292 H2286 0.950 . S
C2292 C2293 1.327 . S
C2293 H2287 0.950 . S
C2293 C2292 1.327 . S
C2293 C2297 1.429 . S
C2294 C2277 1.574 . S
C2294 H2288 0.949 . S
C2294 C2298 1.368 . S
C2295 C2276 1.429 . S
C2295 C2289 1.429 . S
C2295 C2296 1.523 . S
C2296 C2277 1.368 . S
C2296 C2290 1.368 . S
C2296 C2295 1.523 . S
C2297 C2281 1.429 . S
C2297 C2293 1.429 . S
C2297 C2298 1.523 . S
C2298 C2282 1.368 . S
C2298 C2294 1.368 . S
C2298 C2297 1.523 . S
H2299 C2274 0.950 . S
H2300 C2276 0.950 . S
H2301 C2277 0.949 . S
H2302 C2279 0.950 . S
H2303 C2281 0.950 . S
C2304 C2305 1.349 . S
C2304 C2306 1.327 . S
C2304 H2329 0.950 . S
C2305 C2304 1.349 . S
C2305 C2321 1.349 . S
C2306 C2304 1.327 . S
C2306 C2325 1.429 . S
C2306 H2330 0.950 . S
C2307 C2324 1.574 . S
C2307 C2326 1.368 . S
C2307 H2331 0.949 . S
H2308 C2312 0.949 . S
C2309 C2310 1.349 . S
C2309 C2311 1.327 . S
C2309 H2332 0.950 . S
C2310 C2309 1.349 . S
C2310 C2322 1.349 . S
C2311 C2309 1.327 . S
C2311 C2327 1.429 . S
C2311 H2333 0.950 . S
C2312 H2308 0.949 . S
C2312 C2320 1.574 . S
C2312 C2328 1.368 . S
H2313 C2321 0.950 . S
H2314 C2319 0.950 . S
H2315 C2320 0.949 . S
H2316 C2322 0.950 . S
H2317 C2323 0.950 . S
H2318 C2324 0.949 . S
C2319 H2314 0.950 . S
C2319 C2321 1.327 . S
C2319 C2325 1.429 . S
C2320 C2312 1.574 . S
C2320 H2315 0.949 . S
C2320 C2326 1.368 . S
C2321 C2305 1.349 . S
C2321 H2313 0.950 . S
C2321 C2319 1.327 . S
C2322 C2310 1.349 . S
C2322 H2316 0.950 . S
C2322 C2323 1.327 . S
C2323 H2317 0.950 . S
C2323 C2322 1.327 . S
C2323 C2327 1.429 . S
C2324 C2307 1.574 . S
C2324 H2318 0.949 . S
C2324 C2328 1.368 . S
C2325 C2306 1.429 . S
C2325 C2319 1.429 . S
C2325 C2326 1.523 . S
C2326 C2307 1.368 . S
C2326 C2320 1.368 . S
C2326 C2325 1.523 . S
C2327 C2311 1.429 . S
C2327 C2323 1.429 . S
C2327 C2328 1.523 . S
C2328 C2312 1.368 . S
C2328 C2324 1.368 . S
C2328 C2327 1.523 . S
H2329 C2304 0.950 . S
H2330 C2306 0.950 . S
H2331 C2307 0.949 . S
H2332 C2309 0.950 . S
H2333 C2311 0.950 . S
C2334 C2335 1.349 . S
C2334 C2336 1.327 . S
C2334 H2359 0.950 . S
C2335 C2334 1.349 . S
C2335 C2351 1.349 . S
C2336 C2334 1.327 . S
C2336 C2355 1.429 . S
C2336 H2360 0.950 . S
C2337 C2354 1.574 . S
C2337 C2356 1.368 . S
C2337 H2361 0.949 . S
H2338 C2342 0.949 . S
C2339 C2340 1.349 . S
C2339 C2341 1.327 . S
C2339 H2362 0.950 . S
C2340 C2339 1.349 . S
C2340 C2352 1.349 . S
C2341 C2339 1.327 . S
C2341 C2357 1.429 . S
C2341 H2363 0.950 . S
C2342 H2338 0.949 . S
C2342 C2350 1.574 . S
C2342 C2358 1.368 . S
H2343 C2351 0.950 . S
H2344 C2349 0.950 . S
H2345 C2350 0.949 . S
H2346 C2352 0.950 . S
H2347 C2353 0.950 . S
H2348 C2354 0.949 . S
C2349 H2344 0.950 . S
C2349 C2351 1.327 . S
C2349 C2355 1.429 . S
C2350 C2342 1.574 . S
C2350 H2345 0.949 . S
C2350 C2356 1.368 . S
C2351 C2335 1.349 . S
C2351 H2343 0.950 . S
C2351 C2349 1.327 . S
C2352 C2340 1.349 . S
C2352 H2346 0.950 . S
C2352 C2353 1.327 . S
C2353 H2347 0.950 . S
C2353 C2352 1.327 . S
C2353 C2357 1.429 . S
C2354 C2337 1.574 . S
C2354 H2348 0.949 . S
C2354 C2358 1.368 . S
C2355 C2336 1.429 . S
C2355 C2349 1.429 . S
C2355 C2356 1.523 . S
C2356 C2337 1.368 . S
C2356 C2350 1.368 . S
C2356 C2355 1.523 . S
C2357 C2341 1.429 . S
C2357 C2353 1.429 . S
C2357 C2358 1.523 . S
C2358 C2342 1.368 . S
C2358 C2354 1.368 . S
C2358 C2357 1.523 . S
H2359 C2334 0.950 . S
H2360 C2336 0.950 . S
H2361 C2337 0.949 . S
H2362 C2339 0.950 . S
H2363 C2341 0.950 . S
C2364 C2365 1.349 . S
C2364 C2366 1.327 . S
C2364 H2389 0.950 . S
C2365 C2364 1.349 . S
C2365 C2381 1.349 . S
C2366 C2364 1.327 . S
C2366 C2385 1.429 . S
C2366 H2390 0.950 . S
C2367 C2384 1.574 . S
C2367 C2386 1.368 . S
C2367 H2391 0.949 . S
H2368 C2372 0.949 . S
C2369 C2370 1.349 . S
C2369 C2371 1.327 . S
C2369 H2392 0.950 . S
C2370 C2369 1.349 . S
C2370 C2382 1.349 . S
C2371 C2369 1.327 . S
C2371 C2387 1.429 . S
C2371 H2393 0.950 . S
C2372 H2368 0.949 . S
C2372 C2380 1.574 . S
C2372 C2388 1.368 . S
H2373 C2381 0.950 . S
H2374 C2379 0.950 . S
H2375 C2380 0.949 . S
H2376 C2382 0.950 . S
H2377 C2383 0.950 . S
H2378 C2384 0.949 . S
C2379 H2374 0.950 . S
C2379 C2381 1.327 . S
C2379 C2385 1.429 . S
C2380 C2372 1.574 . S
C2380 H2375 0.949 . S
C2380 C2386 1.368 . S
C2381 C2365 1.349 . S
C2381 H2373 0.950 . S
C2381 C2379 1.327 . S
C2382 C2370 1.349 . S
C2382 H2376 0.950 . S
C2382 C2383 1.327 . S
C2383 H2377 0.950 . S
C2383 C2382 1.327 . S
C2383 C2387 1.429 . S
C2384 C2367 1.574 . S
C2384 H2378 0.949 . S
C2384 C2388 1.368 . S
C2385 C2366 1.429 . S
C2385 C2379 1.429 . S
C2385 C2386 1.523 . S
C2386 C2367 1.368 . S
C2386 C2380 1.368 . S
C2386 C2385 1.523 . S
C2387 C2371 1.429 . S
C2387 C2383 1.429 . S
C2387 C2388 1.523 . S
C2388 C2372 1.368 . S
C2388 C2384 1.368 . S
C2388 C2387 1.523 . S
H2389 C2364 0.950 . S
H2390 C2366 0.950 . S
H2391 C2367 0.949 . S
H2392 C2369 0.950 . S
H2393 C2371 0.950 . S
C2394 C2395 1.349 . S
C2394 C2396 1.327 . S
C2394 H2419 0.950 . S
C2395 C2394 1.349 . S
C2395 C2411 1.349 . S
C2396 C2394 1.327 . S
C2396 C2415 1.429 . S
C2396 H2420 0.950 . S
C2397 C2414 1.574 . S
C2397 C2416 1.368 . S
C2397 H2421 0.949 . S
H2398 C2402 0.949 . S
C2399 C2400 1.349 . S
C2399 C2401 1.327 . S
C2399 H2422 0.950 . S
C2400 C2399 1.349 . S
C2400 C2412 1.349 . S
C2401 C2399 1.327 . S
C2401 C2417 1.429 . S
C2401 H2423 0.950 . S
C2402 H2398 0.949 . S
C2402 C2410 1.574 . S
C2402 C2418 1.368 . S
H2403 C2411 0.950 . S
H2404 C2409 0.950 . S
H2405 C2410 0.949 . S
H2406 C2412 0.950 . S
H2407 C2413 0.950 . S
H2408 C2414 0.949 . S
C2409 H2404 0.950 . S
C2409 C2411 1.327 . S
C2409 C2415 1.429 . S
C2410 C2402 1.574 . S
C2410 H2405 0.949 . S
C2410 C2416 1.368 . S
C2411 C2395 1.349 . S
C2411 H2403 0.950 . S
C2411 C2409 1.327 . S
C2412 C2400 1.349 . S
C2412 H2406 0.950 . S
C2412 C2413 1.327 . S
C2413 H2407 0.950 . S
C2413 C2412 1.327 . S
C2413 C2417 1.429 . S
C2414 C2397 1.574 . S
C2414 H2408 0.949 . S
C2414 C2418 1.368 . S
C2415 C2396 1.429 . S
C2415 C2409 1.429 . S
C2415 C2416 1.523 . S
C2416 C2397 1.368 . S
C2416 C2410 1.368 . S
C2416 C2415 1.523 . S
C2417 C2401 1.429 . S
C2417 C2413 1.429 . S
C2417 C2418 1.523 . S
C2418 C2402 1.368 . S
C2418 C2414 1.368 . S
C2418 C2417 1.523 . S
H2419 C2394 0.950 . S
H2420 C2396 0.950 . S
H2421 C2397 0.949 . S
H2422 C2399 0.950 . S
H2423 C2401 0.950 . S
C2424 C2425 1.349 . S
C2424 C2426 1.327 . S
C2424 H2449 0.950 . S
C2425 C2424 1.349 . S
C2425 C2441 1.349 . S
C2426 C2424 1.327 . S
C2426 C2445 1.429 . S
C2426 H2450 0.950 . S
C2427 C2444 1.574 . S
C2427 C2446 1.368 . S
C2427 H2451 0.949 . S
H2428 C2432 0.949 . S
C2429 C2430 1.349 . S
C2429 C2431 1.327 . S
C2429 H2452 0.950 . S
C2430 C2429 1.349 . S
C2430 C2442 1.349 . S
C2431 C2429 1.327 . S
C2431 C2447 1.429 . S
C2431 H2453 0.950 . S
C2432 H2428 0.949 . S
C2432 C2440 1.574 . S
C2432 C2448 1.368 . S
H2433 C2441 0.950 . S
H2434 C2439 0.950 . S
H2435 C2440 0.949 . S
H2436 C2442 0.950 . S
H2437 C2443 0.950 . S
H2438 C2444 0.949 . S
C2439 H2434 0.950 . S
C2439 C2441 1.327 . S
C2439 C2445 1.429 . S
C2440 C2432 1.574 . S
C2440 H2435 0.949 . S
C2440 C2446 1.368 . S
C2441 C2425 1.349 . S
C2441 H2433 0.950 . S
C2441 C2439 1.327 . S
C2442 C2430 1.349 . S
C2442 H2436 0.950 . S
C2442 C2443 1.327 . S
C2443 H2437 0.950 . S
C2443 C2442 1.327 . S
C2443 C2447 1.429 . S
C2444 C2427 1.574 . S
C2444 H2438 0.949 . S
C2444 C2448 1.368 . S
C2445 C2426 1.429 . S
C2445 C2439 1.429 . S
C2445 C2446 1.523 . S
C2446 C2427 1.368 . S
C2446 C2440 1.368 . S
C2446 C2445 1.523 . S
C2447 C2431 1.429 . S
C2447 C2443 1.429 . S
C2447 C2448 1.523 . S
C2448 C2432 1.368 . S
C2448 C2444 1.368 . S
C2448 C2447 1.523 . S
H2449 C2424 0.950 . S
H2450 C2426 0.950 . S
H2451 C2427 0.949 . S
H2452 C2429 0.950 . S
H2453 C2431 0.950 . S
C2454 C2455 1.349 . S
C2454 C2456 1.327 . S
C2454 H2479 0.950 . S
C2455 C2454 1.349 . S
C2455 C2471 1.349 . S
C2456 C2454 1.327 . S
C2456 C2475 1.429 . S
C2456 H2480 0.950 . S
C2457 C2474 1.574 . S
C2457 C2476 1.368 . S
C2457 H2481 0.949 . S
H2458 C2462 0.949 . S
C2459 C2460 1.349 . S
C2459 C2461 1.327 . S
C2459 H2482 0.950 . S
C2460 C2459 1.349 . S
C2460 C2472 1.349 . S
C2461 C2459 1.327 . S
C2461 C2477 1.429 . S
C2461 H2483 0.950 . S
C2462 H2458 0.949 . S
C2462 C2470 1.574 . S
C2462 C2478 1.368 . S
H2463 C2471 0.950 . S
H2464 C2469 0.950 . S
H2465 C2470 0.949 . S
H2466 C2472 0.950 . S
H2467 C2473 0.950 . S
H2468 C2474 0.949 . S
C2469 H2464 0.950 . S
C2469 C2471 1.327 . S
C2469 C2475 1.429 . S
C2470 C2462 1.574 . S
C2470 H2465 0.949 . S
C2470 C2476 1.368 . S
C2471 C2455 1.349 . S
C2471 H2463 0.950 . S
C2471 C2469 1.327 . S
C2472 C2460 1.349 . S
C2472 H2466 0.950 . S
C2472 C2473 1.327 . S
C2473 H2467 0.950 . S
C2473 C2472 1.327 . S
C2473 C2477 1.429 . S
C2474 C2457 1.574 . S
C2474 H2468 0.949 . S
C2474 C2478 1.368 . S
C2475 C2456 1.429 . S
C2475 C2469 1.429 . S
C2475 C2476 1.523 . S
C2476 C2457 1.368 . S
C2476 C2470 1.368 . S
C2476 C2475 1.523 . S
C2477 C2461 1.429 . S
C2477 C2473 1.429 . S
C2477 C2478 1.523 . S
C2478 C2462 1.368 . S
C2478 C2474 1.368 . S
C2478 C2477 1.523 . S
H2479 C2454 0.950 . S
H2480 C2456 0.950 . S
H2481 C2457 0.949 . S
H2482 C2459 0.950 . S
H2483 C2461 0.950 . S
C2484 C2485 1.349 . S
C2484 C2486 1.327 . S
C2484 H2509 0.950 . S
C2485 C2484 1.349 . S
C2485 C2501 1.349 . S
C2486 C2484 1.327 . S
C2486 C2505 1.429 . S
C2486 H2510 0.950 . S
C2487 C2504 1.574 . S
C2487 C2506 1.368 . S
C2487 H2511 0.949 . S
H2488 C2492 0.949 . S
C2489 C2490 1.349 . S
C2489 C2491 1.327 . S
C2489 H2512 0.950 . S
C2490 C2489 1.349 . S
C2490 C2502 1.349 . S
C2491 C2489 1.327 . S
C2491 C2507 1.429 . S
C2491 H2513 0.950 . S
C2492 H2488 0.949 . S
C2492 C2500 1.574 . S
C2492 C2508 1.368 . S
H2493 C2501 0.950 . S
H2494 C2499 0.950 . S
H2495 C2500 0.949 . S
H2496 C2502 0.950 . S
H2497 C2503 0.950 . S
H2498 C2504 0.949 . S
C2499 H2494 0.950 . S
C2499 C2501 1.327 . S
C2499 C2505 1.429 . S
C2500 C2492 1.574 . S
C2500 H2495 0.949 . S
C2500 C2506 1.368 . S
C2501 C2485 1.349 . S
C2501 H2493 0.950 . S
C2501 C2499 1.327 . S
C2502 C2490 1.349 . S
C2502 H2496 0.950 . S
C2502 C2503 1.327 . S
C2503 H2497 0.950 . S
C2503 C2502 1.327 . S
C2503 C2507 1.429 . S
C2504 C2487 1.574 . S
C2504 H2498 0.949 . S
C2504 C2508 1.368 . S
C2505 C2486 1.429 . S
C2505 C2499 1.429 . S
C2505 C2506 1.523 . S
C2506 C2487 1.368 . S
C2506 C2500 1.368 . S
C2506 C2505 1.523 . S
C2507 C2491 1.429 . S
C2507 C2503 1.429 . S
C2507 C2508 1.523 . S
C2508 C2492 1.368 . S
C2508 C2504 1.368 . S
C2508 C2507 1.523 . S
H2509 C2484 0.950 . S
H2510 C2486 0.950 . S
H2511 C2487 0.949 . S
H2512 C2489 0.950 . S
H2513 C2491 0.950 . S
C2514 C2515 1.349 . S
C2514 C2516 1.327 . S
C2514 H2539 0.950 . S
C2515 C2514 1.349 . S
C2515 C2531 1.349 . S
C2516 C2514 1.327 . S
C2516 C2535 1.429 . S
C2516 H2540 0.950 . S
C2517 C2534 1.574 . S
C2517 C2536 1.368 . S
C2517 H2541 0.949 . S
H2518 C2522 0.949 . S
C2519 C2520 1.349 . S
C2519 C2521 1.327 . S
C2519 H2542 0.950 . S
C2520 C2519 1.349 . S
C2520 C2532 1.349 . S
C2521 C2519 1.327 . S
C2521 C2537 1.429 . S
C2521 H2543 0.950 . S
C2522 H2518 0.949 . S
C2522 C2530 1.574 . S
C2522 C2538 1.368 . S
H2523 C2531 0.950 . S
H2524 C2529 0.950 . S
H2525 C2530 0.949 . S
H2526 C2532 0.950 . S
H2527 C2533 0.950 . S
H2528 C2534 0.949 . S
C2529 H2524 0.950 . S
C2529 C2531 1.327 . S
C2529 C2535 1.429 . S
C2530 C2522 1.574 . S
C2530 H2525 0.949 . S
C2530 C2536 1.368 . S
C2531 C2515 1.349 . S
C2531 H2523 0.950 . S
C2531 C2529 1.327 . S
C2532 C2520 1.349 . S
C2532 H2526 0.950 . S
C2532 C2533 1.327 . S
C2533 H2527 0.950 . S
C2533 C2532 1.327 . S
C2533 C2537 1.429 . S
C2534 C2517 1.574 . S
C2534 H2528 0.949 . S
C2534 C2538 1.368 . S
C2535 C2516 1.429 . S
C2535 C2529 1.429 . S
C2535 C2536 1.523 . S
C2536 C2517 1.368 . S
C2536 C2530 1.368 . S
C2536 C2535 1.523 . S
C2537 C2521 1.429 . S
C2537 C2533 1.429 . S
C2537 C2538 1.523 . S
C2538 C2522 1.368 . S
C2538 C2534 1.368 . S
C2538 C2537 1.523 . S
H2539 C2514 0.950 . S
H2540 C2516 0.950 . S
H2541 C2517 0.949 . S
H2542 C2519 0.950 . S
H2543 C2521 0.950 . S
C2544 C2545 1.349 . S
C2544 C2546 1.327 1_565 S
C2544 H2569 0.950 . S
C2545 C2544 1.349 . S
C2545 C2561 1.349 . S
C2546 C2544 1.327 1_545 S
C2546 C2565 1.429 . S
C2546 H2570 0.950 . S
C2547 C2564 1.574 . S
C2547 C2566 1.368 . S
C2547 H2571 0.949 . S
H2548 C2552 0.949 . S
C2549 C2550 1.349 . S
C2549 C2551 1.327 . S
C2549 H2572 0.950 . S
C2550 C2549 1.349 . S
C2550 C2562 1.349 . S
C2551 C2549 1.327 . S
C2551 C2567 1.429 . S
C2551 H2573 0.950 . S
C2552 H2548 0.949 . S
C2552 C2560 1.574 . S
C2552 C2568 1.368 . S
H2553 C2561 0.950 . S
H2554 C2559 0.950 . S
H2555 C2560 0.949 . S
H2556 C2562 0.950 . S
H2557 C2563 0.950 . S
H2558 C2564 0.949 . S
C2559 H2554 0.950 . S
C2559 C2561 1.327 1_545 S
C2559 C2565 1.429 . S
C2560 C2552 1.574 . S
C2560 H2555 0.949 . S
C2560 C2566 1.368 . S
C2561 C2545 1.349 . S
C2561 H2553 0.950 . S
C2561 C2559 1.327 1_565 S
C2562 C2550 1.349 . S
C2562 H2556 0.950 . S
C2562 C2563 1.327 . S
C2563 H2557 0.950 . S
C2563 C2562 1.327 . S
C2563 C2567 1.429 . S
C2564 C2547 1.574 . S
C2564 H2558 0.949 . S
C2564 C2568 1.368 . S
C2565 C2546 1.429 . S
C2565 C2559 1.429 . S
C2565 C2566 1.523 . S
C2566 C2547 1.368 . S
C2566 C2560 1.368 . S
C2566 C2565 1.523 . S
C2567 C2551 1.429 . S
C2567 C2563 1.429 . S
C2567 C2568 1.523 . S
C2568 C2552 1.368 . S
C2568 C2564 1.368 . S
C2568 C2567 1.523 . S
H2569 C2544 0.950 . S
H2570 C2546 0.950 . S
H2571 C2547 0.949 . S
H2572 C2549 0.950 . S
H2573 C2551 0.950 . S
C2574 C2575 1.349 . S
C2574 C2576 1.327 . S
C2574 H2599 0.950 . S
C2575 C2574 1.349 . S
C2575 C2591 1.349 . S
C2576 C2574 1.327 . S
C2576 C2595 1.429 . S
C2576 H2600 0.950 . S
C2577 C2594 1.574 . S
C2577 C2596 1.368 . S
C2577 H2601 0.949 . S
H2578 C2582 0.949 . S
C2579 C2580 1.349 . S
C2579 C2581 1.313 1_545 S
C2579 H2602 0.950 . S
C2580 C2579 1.349 . S
C2580 C2592 1.349 . S
C2581 C2579 1.313 1_565 S
C2581 C2597 1.439 . S
C2581 H2603 0.954 . S
C2582 H2578 0.949 . S
C2582 C2590 1.574 . S
C2582 C2598 1.368 . S
H2583 C2591 0.950 . S
H2584 C2589 0.950 . S
H2585 C2590 0.949 . S
H2586 C2592 0.950 . S
H2587 C2593 0.950 . S
H2588 C2594 0.949 . S
C2589 H2584 0.950 . S
C2589 C2591 1.327 . S
C2589 C2595 1.429 . S
C2590 C2582 1.574 . S
C2590 H2585 0.949 . S
C2590 C2596 1.368 . S
C2591 C2575 1.349 . S
C2591 H2583 0.950 . S
C2591 C2589 1.327 . S
C2592 C2580 1.349 . S
C2592 H2586 0.950 . S
C2592 C2593 1.327 1_545 S
C2593 H2587 0.950 . S
C2593 C2592 1.327 1_565 S
C2593 C2597 1.429 . S
C2594 C2577 1.574 . S
C2594 H2588 0.949 . S
C2594 C2598 1.368 . S
C2595 C2576 1.429 . S
C2595 C2589 1.429 . S
C2595 C2596 1.523 . S
C2596 C2577 1.368 . S
C2596 C2590 1.368 . S
C2596 C2595 1.523 . S
C2597 C2581 1.439 . S
C2597 C2593 1.429 . S
C2597 C2598 1.523 . S
C2598 C2582 1.368 . S
C2598 C2594 1.368 . S
C2598 C2597 1.523 . S
H2599 C2574 0.950 . S
H2600 C2576 0.950 . S
H2601 C2577 0.949 . S
H2602 C2579 0.950 . S
H2603 C2581 0.954 . S
C2604 C2605 1.349 . S
C2604 C2606 1.327 1_545 S
C2604 H2629 0.950 . S
C2605 C2604 1.349 . S
C2605 C2621 1.349 . S
C2606 C2604 1.327 1_565 S
C2606 C2625 1.429 . S
C2606 H2630 0.950 . S
C2607 C2624 1.574 . S
C2607 C2626 1.368 . S
C2607 H2631 0.949 . S
H2608 C2612 0.949 . S
C2609 C2610 1.349 . S
C2609 C2611 1.327 . S
C2609 H2632 0.950 . S
C2610 C2609 1.349 . S
C2610 C2622 1.349 . S
C2611 C2609 1.327 . S
C2611 C2627 1.429 . S
C2611 H2633 0.950 . S
C2612 H2608 0.949 . S
C2612 C2620 1.574 . S
C2612 C2628 1.368 . S
H2613 C2621 0.950 . S
H2614 C2619 0.950 . S
H2615 C2620 0.949 . S
H2616 C2622 0.950 . S
H2617 C2623 0.950 . S
H2618 C2624 0.949 . S
C2619 H2614 0.950 . S
C2619 C2621 1.327 1_565 S
C2619 C2625 1.429 . S
C2620 C2612 1.574 . S
C2620 H2615 0.949 . S
C2620 C2626 1.368 . S
C2621 C2605 1.349 . S
C2621 H2613 0.950 . S
C2621 C2619 1.327 1_545 S
C2622 C2610 1.349 . S
C2622 H2616 0.950 . S
C2622 C2623 1.327 . S
C2623 H2617 0.950 . S
C2623 C2622 1.327 . S
C2623 C2627 1.429 . S
C2624 C2607 1.574 . S
C2624 H2618 0.949 . S
C2624 C2628 1.368 . S
C2625 C2606 1.429 . S
C2625 C2619 1.429 . S
C2625 C2626 1.523 . S
C2626 C2607 1.368 . S
C2626 C2620 1.368 . S
C2626 C2625 1.523 . S
C2627 C2611 1.429 . S
C2627 C2623 1.429 . S
C2627 C2628 1.523 . S
C2628 C2612 1.368 . S
C2628 C2624 1.368 . S
C2628 C2627 1.523 . S
H2629 C2604 0.950 . S
H2630 C2606 0.950 . S
H2631 C2607 0.949 . S
H2632 C2609 0.950 . S
H2633 C2611 0.950 . S
C2634 C2635 1.349 . S
C2634 C2636 1.327 1_565 S
C2634 H2659 0.950 . S
C2635 C2634 1.349 . S
C2635 C2651 1.349 . S
C2636 C2634 1.327 1_545 S
C2636 C2655 1.429 . S
C2636 H2660 0.950 . S
C2637 C2654 1.574 . S
C2637 C2656 1.368 . S
C2637 H2661 0.949 . S
H2638 C2642 0.949 . S
C2639 C2640 1.349 . S
C2639 C2641 1.327 . S
C2639 H2662 0.950 . S
C2640 C2639 1.349 . S
C2640 C2652 1.349 . S
C2641 C2639 1.327 . S
C2641 C2657 1.429 . S
C2641 H2663 0.950 . S
C2642 H2638 0.949 . S
C2642 C2650 1.574 . S
C2642 C2658 1.368 . S
H2643 C2651 0.950 . S
H2644 C2649 0.950 . S
H2645 C2650 0.949 . S
H2646 C2652 0.950 . S
H2647 C2653 0.950 . S
H2648 C2654 0.949 . S
C2649 H2644 0.950 . S
C2649 C2651 1.327 1_545 S
C2649 C2655 1.429 . S
C2650 C2642 1.574 . S
C2650 H2645 0.949 . S
C2650 C2656 1.368 . S
C2651 C2635 1.349 . S
C2651 H2643 0.950 . S
C2651 C2649 1.327 1_565 S
C2652 C2640 1.349 . S
C2652 H2646 0.950 . S
C2652 C2653 1.327 . S
C2653 H2647 0.950 . S
C2653 C2652 1.327 . S
C2653 C2657 1.429 . S
C2654 C2637 1.574 . S
C2654 H2648 0.949 . S
C2654 C2658 1.368 . S
C2655 C2636 1.429 . S
C2655 C2649 1.429 . S
C2655 C2656 1.523 . S
C2656 C2637 1.368 . S
C2656 C2650 1.368 . S
C2656 C2655 1.523 . S
C2657 C2641 1.429 . S
C2657 C2653 1.429 . S
C2657 C2658 1.523 . S
C2658 C2642 1.368 . S
C2658 C2654 1.368 . S
C2658 C2657 1.523 . S
H2659 C2634 0.950 . S
H2660 C2636 0.950 . S
H2661 C2637 0.949 . S
H2662 C2639 0.950 . S
H2663 C2641 0.950 . S
C2664 C2665 1.349 . S
C2664 C2666 1.327 . S
C2664 H2689 0.950 . S
C2665 C2664 1.349 . S
C2665 C2681 1.349 . S
C2666 C2664 1.327 . S
C2666 C2685 1.429 . S
C2666 H2690 0.950 . S
C2667 C2684 1.574 . S
C2667 C2686 1.368 . S
C2667 H2691 0.949 . S
H2668 C2672 0.949 . S
C2669 C2670 1.349 . S
C2669 C2671 1.327 1_545 S
C2669 H2692 0.950 . S
C2670 C2669 1.349 . S
C2670 C2682 1.349 . S
C2671 C2669 1.327 1_565 S
C2671 C2687 1.429 . S
C2671 H2693 0.950 . S
C2672 H2668 0.949 . S
C2672 C2680 1.574 . S
C2672 C2688 1.368 . S
H2673 C2681 0.950 . S
H2674 C2679 0.950 . S
H2675 C2680 0.949 . S
H2676 C2682 0.950 . S
H2677 C2683 0.950 . S
H2678 C2684 0.949 . S
C2679 H2674 0.950 . S
C2679 C2681 1.327 . S
C2679 C2685 1.429 . S
C2680 C2672 1.574 . S
C2680 H2675 0.949 . S
C2680 C2686 1.368 . S
C2681 C2665 1.349 . S
C2681 H2673 0.950 . S
C2681 C2679 1.327 . S
C2682 C2670 1.349 . S
C2682 H2676 0.950 . S
C2682 C2683 1.327 1_545 S
C2683 H2677 0.950 . S
C2683 C2682 1.327 1_565 S
C2683 C2687 1.429 . S
C2684 C2667 1.574 . S
C2684 H2678 0.949 . S
C2684 C2688 1.368 . S
C2685 C2666 1.429 . S
C2685 C2679 1.429 . S
C2685 C2686 1.523 . S
C2686 C2667 1.368 . S
C2686 C2680 1.368 . S
C2686 C2685 1.523 . S
C2687 C2671 1.429 . S
C2687 C2683 1.429 . S
C2687 C2688 1.523 . S
C2688 C2672 1.368 . S
C2688 C2684 1.368 . S
C2688 C2687 1.523 . S
H2689 C2664 0.950 . S
H2690 C2666 0.950 . S
H2691 C2667 0.949 . S
H2692 C2669 0.950 . S
H2693 C2671 0.950 . S
C2694 C2695 1.349 . S
C2694 C2696 1.327 . S
C2694 H2719 0.950 . S
C2695 C2694 1.349 . S
C2695 C2711 1.349 . S
C2696 C2694 1.327 . S
C2696 C2715 1.429 . S
C2696 H2720 0.950 . S
C2697 C2714 1.574 . S
C2697 C2716 1.368 . S
C2697 H2721 0.949 . S
H2698 C2702 0.949 . S
C2699 C2700 1.349 . S
C2699 C2701 1.327 1_565 S
C2699 H2722 0.950 . S
C2700 C2699 1.349 . S
C2700 C2712 1.349 . S
C2701 C2699 1.327 1_545 S
C2701 C2717 1.429 . S
C2701 H2723 0.950 . S
C2702 H2698 0.949 . S
C2702 C2710 1.574 . S
C2702 C2718 1.368 . S
H2703 C2711 0.950 . S
H2704 C2709 0.950 . S
H2705 C2710 0.949 . S
H2706 C2712 0.950 . S
H2707 C2713 0.950 . S
H2708 C2714 0.949 . S
C2709 H2704 0.950 . S
C2709 C2711 1.327 . S
C2709 C2715 1.429 . S
C2710 C2702 1.574 . S
C2710 H2705 0.949 . S
C2710 C2716 1.368 . S
C2711 C2695 1.349 . S
C2711 H2703 0.950 . S
C2711 C2709 1.327 . S
C2712 C2700 1.349 . S
C2712 H2706 0.950 . S
C2712 C2713 1.327 1_565 S
C2713 H2707 0.950 . S
C2713 C2712 1.327 1_545 S
C2713 C2717 1.429 . S
C2714 C2697 1.574 . S
C2714 H2708 0.949 . S
C2714 C2718 1.368 . S
C2715 C2696 1.429 . S
C2715 C2709 1.429 . S
C2715 C2716 1.523 . S
C2716 C2697 1.368 . S
C2716 C2710 1.368 . S
C2716 C2715 1.523 . S
C2717 C2701 1.429 . S
C2717 C2713 1.429 . S
C2717 C2718 1.523 . S
C2718 C2702 1.368 . S
C2718 C2714 1.368 . S
C2718 C2717 1.523 . S
H2719 C2694 0.950 . S
H2720 C2696 0.950 . S
H2721 C2697 0.949 . S
H2722 C2699 0.950 . S
H2723 C2701 0.950 . S
C2724 C2725 1.349 . S
C2724 C2726 1.327 1_565 S
C2724 H2749 0.950 . S
C2725 C2724 1.349 . S
C2725 C2741 1.349 . S
C2726 C2724 1.327 1_545 S
C2726 C2745 1.429 . S
C2726 H2750 0.950 . S
C2727 C2744 1.574 . S
C2727 C2746 1.368 . S
C2727 H2751 0.949 . S
H2728 C2732 0.949 . S
C2729 C2730 1.349 . S
C2729 C2731 1.327 . S
C2729 H2752 0.950 . S
C2730 C2729 1.349 . S
C2730 C2742 1.349 . S
C2731 C2729 1.327 . S
C2731 C2747 1.429 . S
C2731 H2753 0.950 . S
C2732 H2728 0.949 . S
C2732 C2740 1.574 . S
C2732 C2748 1.368 . S
H2733 C2741 0.950 . S
H2734 C2739 0.950 . S
H2735 C2740 0.949 . S
H2736 C2742 0.950 . S
H2737 C2743 0.950 . S
H2738 C2744 0.949 . S
C2739 H2734 0.950 . S
C2739 C2741 1.327 1_545 S
C2739 C2745 1.429 . S
C2740 C2732 1.574 . S
C2740 H2735 0.949 . S
C2740 C2746 1.368 . S
C2741 C2725 1.349 . S
C2741 H2733 0.950 . S
C2741 C2739 1.327 1_565 S
C2742 C2730 1.349 . S
C2742 H2736 0.950 . S
C2742 C2743 1.327 . S
C2743 H2737 0.950 . S
C2743 C2742 1.327 . S
C2743 C2747 1.429 . S
C2744 C2727 1.574 . S
C2744 H2738 0.949 . S
C2744 C2748 1.368 . S
C2745 C2726 1.429 . S
C2745 C2739 1.429 . S
C2745 C2746 1.523 . S
C2746 C2727 1.368 . S
C2746 C2740 1.368 . S
C2746 C2745 1.523 . S
C2747 C2731 1.429 . S
C2747 C2743 1.429 . S
C2747 C2748 1.523 . S
C2748 C2732 1.368 . S
C2748 C2744 1.368 . S
C2748 C2747 1.523 . S
H2749 C2724 0.950 . S
H2750 C2726 0.950 . S
H2751 C2727 0.949 . S
H2752 C2729 0.950 . S
H2753 C2731 0.950 . S
C2754 C2755 1.349 . S
C2754 C2756 1.327 . S
C2754 H2779 0.950 . S
C2755 C2754 1.349 . S
C2755 C2771 1.349 . S
C2756 C2754 1.327 . S
C2756 C2775 1.429 . S
C2756 H2780 0.950 . S
C2757 C2774 1.574 . S
C2757 C2776 1.368 . S
C2757 H2781 0.949 . S
H2758 C2762 0.949 . S
C2759 C2760 1.349 . S
C2759 C2761 1.327 1_545 S
C2759 H2782 0.950 . S
C2760 C2759 1.349 . S
C2760 C2772 1.349 . S
C2761 C2759 1.327 1_565 S
C2761 C2777 1.429 . S
C2761 H2783 0.950 . S
C2762 H2758 0.949 . S
C2762 C2770 1.574 . S
C2762 C2778 1.368 . S
H2763 C2771 0.950 . S
H2764 C2769 0.950 . S
H2765 C2770 0.949 . S
H2766 C2772 0.950 . S
H2767 C2773 0.950 . S
H2768 C2774 0.949 . S
C2769 H2764 0.950 . S
C2769 C2771 1.327 . S
C2769 C2775 1.429 . S
C2770 C2762 1.574 . S
C2770 H2765 0.949 . S
C2770 C2776 1.368 . S
C2771 C2755 1.349 . S
C2771 H2763 0.950 . S
C2771 C2769 1.327 . S
C2772 C2760 1.349 . S
C2772 H2766 0.950 . S
C2772 C2773 1.327 1_545 S
C2773 H2767 0.950 . S
C2773 C2772 1.327 1_565 S
C2773 C2777 1.429 . S
C2774 C2757 1.574 . S
C2774 H2768 0.949 . S
C2774 C2778 1.368 . S
C2775 C2756 1.429 . S
C2775 C2769 1.429 . S
C2775 C2776 1.523 . S
C2776 C2757 1.368 . S
C2776 C2770 1.368 . S
C2776 C2775 1.523 . S
C2777 C2761 1.429 . S
C2777 C2773 1.429 . S
C2777 C2778 1.523 . S
C2778 C2762 1.368 . S
C2778 C2774 1.368 . S
C2778 C2777 1.523 . S
H2779 C2754 0.950 . S
H2780 C2756 0.950 . S
H2781 C2757 0.949 . S
H2782 C2759 0.950 . S
H2783 C2761 0.950 . S
C1345 C67 1.500 . S
C1350 C823 1.500 . S
C1375 C151 1.500 . S
C1380 C739 1.500 . S
C1405 C991 1.500 . S
C1410 C235 1.500 . S
C1435 C319 1.500 . S
C1440 C907 1.500 . S
C1465 C1148 1.500 . S
C1470 C392 1.500 . S
C1495 C1064 1.500 . S
C1500 C476 1.500 . S
C1525 C1316 1.500 . S
C1530 C560 1.500 . S
C1555 C644 1.500 . S
C1560 C1232 1.500 . S
C1585 C242 1.654 . S
C1590 C74 1.654 . S
C1615 C326 1.654 . S
C1620 C158 1.654 . S
C1645 C567 1.654 . S
C1650 C399 1.654 . S
C1675 C483 1.654 . S
C1680 C651 1.654 . S
C1705 C914 1.654 . S
C1710 C746 1.654 . S
C1735 C998 1.654 . S
C1740 C830 1.654 . S
C1765 C1071 1.654 . S
C1770 C1239 1.654 . S
C1795 C1155 1.654 . S
C1800 C1323 1.654 . S
C1825 C494 1.699 . S
C1830 C63 1.699 . S
C1855 C410 1.699 . S
C1860 C147 1.699 . S
C1885 C231 1.699 . S
C1890 C662 1.699 . S
C1915 C578 1.699 . S
C1920 C315 1.699 . S
C1945 C735 1.699 . S
C1950 C1166 1.699 . S
C1975 C1082 1.699 . S
C1980 C819 1.699 . S
C2005 C903 1.699 . S
C2010 C1334 1.699 . S
C2035 C1250 1.699 . S
C2040 C987 1.699 . S
C2065 C140 1.499 . S
C2070 C56 1.499 . S
C2095 C308 1.499 . S
C2100 C224 1.499 . S
C2125 C487 1.499 . S
C2130 C403 1.499 . S
C2155 C571 1.499 . S
C2160 C655 1.499 . S
C2185 C812 1.499 . S
C2190 C728 1.499 . S
C2215 C980 1.499 . S
C2220 C896 1.499 . S
C2245 C1075 1.499 . S
C2250 C1159 1.499 . S
C2275 C1243 1.499 . S
C2280 C1327 1.499 . S
C2305 C69 1.492 . S
C2310 C58 1.492 . S
C2335 C153 1.492 . S
C2340 C142 1.492 . S
C2365 C237 1.492 . S
C2370 C226 1.492 . S
C2395 C310 1.492 . S
C2400 C321 1.492 . S
C2425 C394 1.492 . S
C2430 C405 1.492 . S
C2455 C489 1.492 . S
C2460 C478 1.492 . S
C2485 C562 1.492 . S
C2490 C573 1.492 . S
C2515 C646 1.492 . S
C2520 C657 1.492 . S
C2545 C730 1.492 . S
C2550 C741 1.492 . S
C2575 C825 1.492 . S
C2580 C814 1.492 . S
C2605 C898 1.492 . S
C2610 C909 1.492 . S
C2635 C982 1.492 . S
C2640 C993 1.492 . S
C2665 C1066 1.492 . S
C2670 C1077 1.492 . S
C2695 C1150 1.492 . S
C2700 C1161 1.492 . S
C2725 C1245 1.492 . S
C2730 C1234 1.492 . S
C2755 C1318 1.492 . S
C2760 C1329 1.492 . S
