# Generated by pormake.
# Topology sxb, (6)-cn, num edge types: 1
# Building blocks:
#     Node 0, Type 0, BuildingBlock: KUMBOL_clean_sbu_1, # of connection points: 6
#     Node 1, Type 0, BuildingBlock: KUMBOL_clean_sbu_1, # of connection points: 6
#     Node 2, Type 0, BuildingBlock: KUMBOL_clean_sbu_1, # of connection points: 6
#     Node 3, Type 0, BuildingBlock: KUMBOL_clean_sbu_1, # of connection points: 6
#     Edge 4, Type (0, 0), BuildingBlock: FUNLAD_clean_linker_1, # of connection points: 2
#     Edge 5, Type (0, 0), BuildingBlock: FUNLAD_clean_linker_1, # of connection points: 2
#     Edge 6, Type (0, 0), BuildingBlock: FUNLAD_clean_linker_1, # of connection points: 2
#     Edge 7, Type (0, 0), BuildingBlock: FUNLAD_clean_linker_1, # of connection points: 2
#     Edge 8, Type (0, 0), BuildingBlock: FUNLAD_clean_linker_1, # of connection points: 2
#     Edge 9, Type (0, 0), BuildingBlock: FUNLAD_clean_linker_1, # of connection points: 2
#     Edge 10, Type (0, 0), BuildingBlock: FUNLAD_clean_linker_1, # of connection points: 2
#     Edge 11, Type (0, 0), BuildingBlock: FUNLAD_clean_linker_1, # of connection points: 2
#     Edge 12, Type (0, 0), BuildingBlock: FUNLAD_clean_linker_1, # of connection points: 2
#     Edge 13, Type (0, 0), BuildingBlock: FUNLAD_clean_linker_1, # of connection points: 2
#     Edge 14, Type (0, 0), BuildingBlock: FUNLAD_clean_linker_1, # of connection points: 2
#     Edge 15, Type (0, 0), BuildingBlock: FUNLAD_clean_linker_1, # of connection points: 2
# Relax obj value: 0.014
# Max RMSD: 0.057
# Mean RMSD: 0.057
data_MOF--net-sxb--node1-KUMBOL_clean_sbu_1--edge1-FUNLAD_clean_linker_1
_symmetry_space_group_name_H-M    P1
_symmetry_Int_Tables_number       1
_symmetry_cell_setting            triclinic
loop_
_symmetry_equiv_pos_as_xyz
'x, y, z'
_cell_length_a     15.679534
_cell_length_b     49.436149
_cell_length_c     30.793222
_cell_angle_alpha  115.10382
_cell_angle_beta   90.578743
_cell_angle_gamma 89.800103
loop_
_atom_site_label
_atom_site_type_symbol
_atom_site_fract_x
_atom_site_fract_y
_atom_site_fract_z
_atom_type_partial_charge
C0 C 0.17219 0.0901 0.09056 0.0
C1 C 0.24801 0.10351 0.03394 0.0
C2 C 0.17866 0.08961 0.0451 0.0
C3 C 0.31023 0.11826 0.06915 0.0
C4 C 0.23416 0.10523 0.12609 0.0
C5 C 0.30321 0.11918 0.11509 0.0
N6 N 0.10566 0.07571 0.09987 0.0
C7 C 0.09322 0.07827 0.14526 0.0
C8 C 0.22447 0.10616 0.17183 0.0
C9 C 0.15306 0.09297 0.1816 0.0
Gd10 Gd 1.02817 0.9615 0.97706 0.0
Gd11 Gd 1.00775 0.05291 0.03625 0.0
N12 N 0.11901 0.07423 0.01112 0.0
C13 C 0.25312 0.1019 0.98752 0.0
C14 C 0.12252 0.0732 0.96632 0.0
C15 C 0.18983 0.08681 0.95365 0.0
H16 H 0.07261 0.0623 0.94081 0.0
H17 H 0.1926 0.08579 0.91787 0.0
H18 H 0.93005 0.9468 0.0601 0.0
H19 H 0.03614 0.06982 0.15419 0.0
H20 H 0.79674 0.92258 0.06828 0.0
H21 H 0.3054 0.11232 0.97754 0.0
H22 H 0.36409 0.12903 0.06122 0.0
H23 H 0.05056 0.94033 0.85769 0.0
H24 H 0.27061 0.11759 0.20011 0.0
H25 H 0.14332 0.09452 0.21734 0.0
H26 H 0.6635 0.88814 0.91314 0.0
H27 H 0.35157 0.13078 0.14191 0.0
H28 H 0.81951 0.89773 0.78786 0.0
H29 H 0.96348 0.91655 0.78412 0.0
N30 N 0.95208 0.93907 0.90399 0.0
C31 C 0.87535 0.92697 0.90638 0.0
C32 C 0.98567 0.93403 0.86041 0.0
C33 C 0.8561 0.90921 0.82064 0.0
C34 C 0.93732 0.9199 0.81839 0.0
C35 C 0.82524 0.9118 0.86469 0.0
H36 H 0.70903 0.88666 0.83608 0.0
N37 N 0.90166 0.94052 0.98889 0.0
C38 C 0.84998 0.92736 0.94982 0.0
C39 C 0.75386 0.91198 0.99613 0.0
C40 C 0.77402 0.91299 0.95262 0.0
C41 C 0.88561 0.93768 0.03035 0.0
C42 C 0.81052 0.92402 0.03496 0.0
O43 O 0.14026 0.03257 0.01959 0.0
O44 O 0.15712 0.98115 0.97634 0.0
O45 O 0.07986 0.93371 0.00996 0.0
O46 O 0.07947 0.91749 0.93289 0.0
O47 O 0.97182 0.02764 0.95798 0.0
O48 O 0.05804 0.98549 0.92969 0.0
O49 O 0.90734 0.98557 0.01383 0.0
O50 O 0.88904 0.02701 0.99954 0.0
O51 O 0.96544 0.09254 0.02788 0.0
O52 O 0.93128 0.0864 0.09199 0.0
O53 O 0.07289 0.99028 0.05292 0.0
O54 O 0.97929 0.02968 0.08409 0.0
C55 C 0.18738 0.00854 0.99816 0.0
C56 C 1.01306 0.00619 0.92328 0.0
C57 C 0.1785 0.89564 0.96735 0.0
C58 C 0.25006 0.85372 0.9749 0.0
C59 C 0.33077 0.88905 0.95507 0.0
C60 C 0.25627 0.90496 0.95637 0.0
C61 C 0.32808 0.86363 0.96424 0.0
C62 C 0.17576 0.87015 0.97648 0.0
C63 C 0.09868 0.91172 0.96927 0.0
C64 C 0.72232 0.89913 0.91163 0.0
C65 C 0.74814 0.89839 0.86776 0.0
H66 H 0.69608 0.90115 0.99964 0.0
C67 C 0.85819 1.00334 1.00293 0.0
C68 C 1.02552 0.00853 0.08814 0.0
C69 C 0.883 0.13249 0.08857 0.0
C70 C 0.83421 0.17711 0.08006 0.0
C71 C 0.82168 0.17403 0.15651 0.0
C72 C 0.85812 0.14562 0.13681 0.0
C73 C 0.80995 0.18977 0.12851 0.0
C74 C 0.86977 0.14824 0.06013 0.0
C75 C 0.92839 0.10355 0.06943 0.0
H76 H 0.39088 0.89638 0.94671 0.0
H77 H 0.25916 0.92434 0.94863 0.0
H78 H 0.38725 0.85203 0.96261 0.0
H79 H 0.11507 0.863 0.98471 0.0
H80 H 0.80282 0.18399 0.19375 0.0
H81 H 0.86813 0.13415 0.15961 0.0
H82 H 0.78053 0.21162 0.14463 0.0
H83 H 0.88889 0.1384 0.02287 0.0
C84 C 0.15684 0.92088 0.4137 0.0
C85 C 0.26031 0.91126 0.465 0.0
C86 C 0.18378 0.92442 0.45913 0.0
C87 C 0.30978 0.89451 0.42472 0.0
C88 C 0.20521 0.90315 0.3731 0.0
C89 C 0.28216 0.89038 0.37892 0.0
N90 N 0.08107 0.9331 0.40894 0.0
C91 C 0.04746 0.92638 0.36444 0.0
C92 C 0.1732 0.89776 0.32761 0.0
C93 C 0.09336 0.90893 0.32331 0.0
Gd94 Gd 1.03105 0.05252 0.52687 0.0
Gd95 Gd 1.00815 0.9599 0.48105 0.0
N96 N 0.13525 0.94112 0.49777 0.0
C97 C 0.28442 0.91515 0.51122 0.0
C98 C 0.15699 0.94429 0.54264 0.0
C99 C 0.23224 0.93157 0.55014 0.0
H100 H 0.11635 0.9568 0.57247 0.0
H101 H 0.24981 0.93435 0.58588 0.0
H102 H 0.91442 0.05856 0.44012 0.0
H103 H 0.98409 0.93356 0.36017 0.0
H104 H 0.7784 0.08196 0.43238 0.0
H105 H 0.34273 0.90533 0.51717 0.0
H106 H 0.36899 0.88432 0.42851 0.0
H107 H 0.07256 0.07978 0.64661 0.0
H108 H 0.20808 0.88404 0.29554 0.0
H109 H 0.0663 0.9035 0.28822 0.0
H110 H 0.676 0.13053 0.59382 0.0
H111 H 0.3202 0.87684 0.3481 0.0
H112 H 0.85499 0.12986 0.72015 0.0
H113 H 0.99915 0.1099 0.7218 0.0
N114 N 0.96832 0.08032 0.60188 0.0
C115 C 0.89172 0.09301 0.60009 0.0
C116 C 1.00814 0.08711 0.64496 0.0
C117 C 0.88618 0.1161 0.68674 0.0
C118 C 0.96725 0.10468 0.68787 0.0
C119 C 0.84815 0.11089 0.64258 0.0
H120 H 0.73507 0.13746 0.67209 0.0
N121 N 0.90212 0.07256 0.51518 0.0
C122 C 0.8585 0.08952 0.55578 0.0
C123 C 0.75137 0.09998 0.50799 0.0
C124 C 0.78093 0.10322 0.55305 0.0
C125 C 0.87642 0.07076 0.4715 0.0
C126 C 0.79986 0.084 0.46715 0.0
O127 O 0.13897 0.98115 0.49371 0.0
O128 O 0.16036 0.03249 0.5234 0.0
O129 O 0.07698 0.07675 0.48686 0.0
O130 O 0.08494 0.09678 0.56433 0.0
O131 O 0.98339 0.99217 0.55805 0.0
O132 O 0.07307 0.03282 0.57817 0.0
O133 O 0.89954 0.03206 0.51157 0.0
O134 O 0.88009 0.98179 0.49371 0.0
O135 O 0.96612 0.9317 0.51515 0.0
O136 O 0.93919 0.91885 0.43992 0.0
O137 O 0.05539 0.01893 0.45049 0.0
O138 O 0.96332 0.9792 0.43004 0.0
C139 C 0.18797 0.00485 0.50722 0.0
C140 C 0.03626 0.01214 0.58798 0.0
C141 C 0.18239 0.11391 0.52405 0.0
C142 C 0.25826 0.15504 0.51734 0.0
C143 C 0.33576 0.11785 0.53472 0.0
C144 C 0.25943 0.10319 0.53393 0.0
C145 C 0.33552 0.14367 0.52669 0.0
C146 C 0.18211 0.1397 0.51578 0.0
C147 C 0.10075 0.09991 0.52536 0.0
C148 C 0.73608 0.12002 0.59522 0.0
C149 C 0.76963 0.12388 0.63982 0.0
H150 H 0.69203 0.1102 0.50446 0.0
C151 C 0.85165 0.00868 0.5033 0.0
C152 C 0.99899 1.00035 0.42116 0.0
C153 C 0.95853 0.88004 0.4646 0.0
C154 C 0.92709 0.8337 0.4716 0.0
C155 C 0.04853 0.83657 0.42512 0.0
C156 C 1.02851 0.86617 0.43566 0.0
C157 C 0.99814 0.82029 0.44267 0.0
C158 C 0.90799 0.8637 0.4824 0.0
C159 C 0.93568 0.91113 0.47539 0.0
H160 H 0.39519 0.10952 0.54251 0.0
H161 H 0.26005 0.08395 0.54201 0.0
H162 H 0.39575 0.15474 0.52899 0.0
H163 H 0.12189 0.14821 0.5091 0.0
H164 H 0.10238 0.82601 0.40246 0.0
H165 H 0.06669 0.87788 0.42033 0.0
H166 H 1.01394 0.79708 0.43212 0.0
H167 H 0.8531 0.87427 0.50425 0.0
C168 C 0.6757 0.58631 0.10081 0.0
C169 C 0.78156 0.59762 0.05366 0.0
C170 C 0.7047 0.58377 0.05665 0.0
C171 C 0.83065 0.61301 0.09525 0.0
C172 C 0.72265 0.60334 0.14298 0.0
C173 C 0.80101 0.61602 0.1398 0.0
N174 N 0.59811 0.5747 0.10312 0.0
C175 C 0.56038 0.58209 0.14652 0.0
C176 C 0.68702 0.60876 0.18738 0.0
C177 C 0.60458 0.5988 0.1891 0.0
Gd178 Gd 0.54877 0.4585 0.9792 0.0
Gd179 Gd 0.52688 0.54953 0.02923 0.0
N180 N 0.65525 0.56931 0.017 0.0
C181 C 0.80499 0.5967 0.00926 0.0
C182 C 0.67418 0.57047 0.97455 0.0
C183 C 0.75037 0.58346 0.9697 0.0
H184 H 0.63122 0.56044 0.94428 0.0
H185 H 0.76655 0.58349 0.93564 0.0
H186 H 0.48051 0.45223 0.07726 0.0
H187 H 0.49499 0.57592 0.14856 0.0
H188 H 0.36141 0.42894 0.10079 0.0
H189 H 0.86357 0.60706 0.00557 0.0
H190 H 0.89019 0.62358 0.09359 0.0
H191 H 0.52509 0.43732 0.85961 0.0
H192 H 0.72065 0.622 0.22056 0.0
H193 H 0.57398 0.60464 0.22318 0.0
H194 H 0.19554 0.38109 0.95621 0.0
H195 H 0.83792 0.62904 0.17183 0.0
H196 H 0.29286 0.38809 0.81445 0.0
H197 H 0.42043 0.41052 0.79616 0.0
N198 N 0.45353 0.43341 0.91507 0.0
C199 C 0.38703 0.41936 0.92515 0.0
C200 C 0.46771 0.42924 0.86897 0.0
C201 C 0.33781 0.40051 0.84287 0.0
C202 C 0.40937 0.41332 0.83247 0.0
C203 C 0.3266 0.403 0.88945 0.0
H204 H 0.21045 0.37681 0.87415 0.0
N205 N 0.43755 0.43775 0.00554 0.0
C206 C 0.37925 0.42132 0.97147 0.0
C207 C 0.3036 0.41057 0.03034 0.0
C208 C 0.31003 0.40763 0.98321 0.0
C209 C 0.4324 0.44024 0.05121 0.0
C210 C 0.3653 0.42682 0.0644 0.0
O211 O 0.64856 0.52466 0.99547 0.0
O212 O 0.6654 0.48569 0.01621 0.0
O213 O 0.59199 0.41993 0.99077 0.0
O214 O 0.62894 0.42505 0.92616 0.0
O215 O 0.48214 0.51829 0.95495 0.0
O216 O 0.57757 0.47938 0.92814 0.0
O217 O 0.41535 0.47829 0.993 0.0
O218 O 0.39805 0.53003 0.03154 0.0
O219 O 0.47544 0.57467 0.99151 0.0
O220 O 0.47683 0.59427 0.06889 0.0
O221 O 0.57991 0.48609 0.05755 0.0
O222 O 0.4949 0.52842 0.08001 0.0
C223 C 0.69705 0.50812 0.00945 0.0
C224 C 0.53034 0.49931 0.92119 0.0
C225 C 0.67873 0.38008 0.9324 0.0
C226 C 0.72856 0.33628 0.94304 0.0
C227 C 0.74478 0.33865 0.86627 0.0
C228 C 0.70645 0.36674 0.88466 0.0
C229 C 0.75559 0.32342 0.89508 0.0
C230 C 0.69111 0.36486 0.96171 0.0
C231 C 0.63138 0.4086 0.9499 0.0
C232 C 0.24926 0.3917 0.94782 0.0
C233 C 0.25763 0.38934 0.9011 0.0
H234 H 0.25144 0.40032 0.04075 0.0
C235 C 0.36804 0.50249 0.01215 0.0
C236 C 0.53688 0.50844 0.08978 0.0
C237 C 0.3778 0.61388 0.03137 0.0
C238 C 0.3073 0.65604 0.02408 0.0
C239 C 0.22533 0.62043 0.04262 0.0
C240 C 0.29957 0.6045 0.04168 0.0
C241 C 0.22876 0.646 0.03388 0.0
C242 C 0.38133 0.63953 0.02269 0.0
C243 C 0.45743 0.59801 0.03069 0.0
H244 H 0.76578 0.32854 0.82941 0.0
H245 H 0.6972 0.37779 0.8612 0.0
H246 H 0.78641 0.30178 0.87998 0.0
H247 H 0.66983 0.37485 0.99859 0.0
H248 H 0.16485 0.61304 0.05044 0.0
H249 H 0.29623 0.58511 0.04934 0.0
H250 H 0.16972 0.65758 0.03511 0.0
H251 H 0.44243 0.64679 0.01517 0.0
C252 C 0.72752 0.4173 0.40917 0.0
C253 C 0.83505 0.41081 0.4613 0.0
C254 C 0.75753 0.42326 0.45497 0.0
C255 C 0.88357 0.3932 0.42105 0.0
C256 C 0.77537 0.3992 0.36864 0.0
C257 C 0.85395 0.38748 0.37486 0.0
N258 N 0.65058 0.42849 0.40424 0.0
C259 C 0.61662 0.42178 0.35986 0.0
C260 C 0.74207 0.39296 0.32301 0.0
C261 C 0.66214 0.40415 0.31863 0.0
Gd262 Gd 0.56095 0.5462 0.53478 0.0
Gd263 Gd 0.57925 0.45699 0.47577 0.0
N264 N 0.71037 0.44109 0.49336 0.0
C265 C 0.86049 0.41595 0.50788 0.0
C266 C 0.73303 0.44526 0.53861 0.0
C267 C 0.80841 0.43279 0.54659 0.0
H268 H 0.69233 0.45776 0.56843 0.0
H269 H 0.82658 0.4363 0.5826 0.0
H270 H 0.4804 0.54464 0.43264 0.0
H271 H 0.55355 0.42943 0.35615 0.0
H272 H 0.35191 0.56199 0.40525 0.0
H273 H 0.91936 0.40661 0.51426 0.0
H274 H 0.94359 0.38358 0.42521 0.0
H275 H 0.53829 0.56721 0.65304 0.0
H276 H 0.7768 0.37909 0.29098 0.0
H277 H 0.63516 0.39883 0.28347 0.0
H278 H 0.17997 0.60556 0.5463 0.0
H279 H 0.89166 0.37358 0.34413 0.0
H280 H 0.29322 0.60817 0.69312 0.0
H281 H 0.42964 0.59191 0.71496 0.0
N282 N 0.46178 0.56805 0.59626 0.0
C283 C 0.38781 0.57743 0.5836 0.0
C284 C 0.47779 0.57333 0.64278 0.0
C285 C 0.33993 0.59691 0.6656 0.0
C286 C 0.41689 0.58764 0.67805 0.0
C287 C 0.32484 0.5921 0.618 0.0
H288 H 0.20046 0.61315 0.62999 0.0
N289 N 0.43701 0.55811 0.50347 0.0
C290 C 0.37569 0.57276 0.53606 0.0
C291 C 0.2928 0.57931 0.47466 0.0
C292 C 0.30114 0.58324 0.52226 0.0
C293 C 0.42965 0.55457 0.4573 0.0
C294 C 0.35738 0.5649 0.44204 0.0
O295 O 0.70554 0.48175 0.48393 0.0
O296 O 0.6896 0.52912 0.54552 0.0
O297 O 0.61115 0.57833 0.51044 0.0
O298 O 0.60279 0.58992 0.58641 0.0
O299 O 0.54208 0.4824 0.55413 0.0
O300 O 0.61223 0.52755 0.58466 0.0
O301 O 0.44135 0.51841 0.53015 0.0
O302 O 0.45727 0.47565 0.46075 0.0
O303 O 0.53013 0.43198 0.51327 0.0
O304 O 0.5283 0.41225 0.4356 0.0
O305 O 0.61017 0.52231 0.45874 0.0
O306 O 0.53749 0.47764 0.42607 0.0
C307 C 0.7371 0.50715 0.51603 0.0
C308 C 0.58258 0.50413 0.58917 0.0
C309 C 0.58833 0.62917 0.56202 0.0
C310 C 0.61078 0.67614 0.55527 0.0
C311 C 0.48336 0.66878 0.59354 0.0
C312 C 0.51113 0.64025 0.58555 0.0
C313 C 0.53271 0.68675 0.57879 0.0
C314 C 0.6377 0.64719 0.54698 0.0
C315 C 0.61978 0.59929 0.5538 0.0
C316 C 0.23793 0.59756 0.55637 0.0
C317 C 0.2496 0.60188 0.60404 0.0
H318 H 0.2368 0.58726 0.46272 0.0
C319 C 0.40881 0.49543 0.4933 0.0
C320 C 0.57898 0.49937 0.42161 0.0
C321 C 0.4259 0.39534 0.47436 0.0
C322 C 0.34624 0.35421 0.47888 0.0
C323 C 0.27158 0.39661 0.47529 0.0
C324 C 0.34936 0.40978 0.47361 0.0
C325 C 0.26963 0.36901 0.47781 0.0
C326 C 0.42405 0.36773 0.47702 0.0
C327 C 0.50873 0.40892 0.47404 0.0
H328 H 0.42387 0.67719 0.61194 0.0
H329 H 0.47291 0.62718 0.59849 0.0
H330 H 0.50981 0.709 0.58701 0.0
H331 H 0.69778 0.6387 0.52915 0.0
H332 H 0.21249 0.40786 0.47471 0.0
H333 H 0.3499 0.43117 0.47189 0.0
H334 H 0.20798 0.35966 0.47884 0.0
H335 H 0.48376 0.35682 0.47797 0.0
H336 H 0.3797 0.68901 0.0078 0.0
C337 C 0.3161 0.68339 0.01522 0.0
H338 H 0.18721 0.69791 0.02454 0.0
H339 H 0.26754 0.83276 0.07482 0.0
H340 H 0.22301 0.83609 0.15203 0.0
H341 H 0.19852 0.79059 0.16434 0.0
H342 H 0.21832 0.74146 0.09943 0.0
C343 C 0.2515 0.70159 0.01572 0.0
C344 C 0.26658 0.72895 0.00771 0.0
C345 C 0.25359 0.75757 0.04581 0.0
C346 C 0.26707 0.78385 0.03859 0.0
C347 C 0.25623 0.81207 0.07783 0.0
C348 C 0.23124 0.81432 0.12252 0.0
C349 C 0.21748 0.7887 0.12945 0.0
C350 C 0.22879 0.76062 0.09179 0.0
H351 H 0.17844 0.82062 0.99125 0.0
C352 C 0.24202 0.82655 0.98434 0.0
H353 H 0.37172 0.81293 0.97694 0.0
H354 H 0.2907 0.6777 0.92566 0.0
H355 H 0.3357 0.67441 0.84859 0.0
H356 H 0.36118 0.71992 0.83648 0.0
H357 H 0.3417 0.76904 0.90147 0.0
C358 C 0.30723 0.80887 0.98493 0.0
C359 C 0.29262 0.78151 0.99302 0.0
C360 C 0.30576 0.7529 0.95495 0.0
C361 C 0.29205 0.72661 0.96212 0.0
C362 C 0.30251 0.6984 0.92279 0.0
C363 C 0.32772 0.69617 0.87815 0.0
C364 C 0.34201 0.72179 0.87132 0.0
C365 C 0.33086 0.74986 0.90903 0.0
H366 H 0.7597 0.33352 0.01149 0.0
C367 C 0.74173 0.32044 0.97418 0.0
H368 H 0.71238 0.27764 0.92052 0.0
H369 H 0.94015 0.20284 0.99758 0.0
H370 H 1.00893 0.19437 0.92288 0.0
H371 H 0.96405 0.22213 0.8763 0.0
H372 H 0.85075 0.25865 0.90432 0.0
C373 C 0.73222 0.29063 0.95752 0.0
C374 C 0.75709 0.27378 0.9861 0.0
C375 C 0.82275 0.25201 0.96881 0.0
C376 C 0.84757 0.23553 0.99522 0.0
C377 C 0.9162 0.2151 0.97815 0.0
C378 C 0.95699 0.21023 0.93549 0.0
C379 C 0.93182 0.22588 0.9093 0.0
C380 C 0.86615 0.2467 0.92576 0.0
H381 H 0.80185 0.18059 0.01231 0.0
C382 C 0.82012 0.19341 0.04964 0.0
H383 H 0.84995 0.23605 0.10373 0.0
H384 H 0.62282 0.3115 0.02724 0.0
H385 H 0.5547 0.32022 0.1022 0.0
H386 H 0.59947 0.2924 0.14872 0.0
H387 H 0.71217 0.25563 0.12043 0.0
C388 C 0.82972 0.22325 0.06675 0.0
C389 C 0.8053 0.24032 0.03844 0.0
C390 C 0.73987 0.26218 0.05583 0.0
C391 C 0.71505 0.27866 0.02942 0.0
C392 C 0.64673 0.29922 0.04663 0.0
C393 C 0.6063 0.30423 0.08944 0.0
C394 C 0.63142 0.28855 0.1156 0.0
C395 C 0.69674 0.26758 0.09899 0.0
H396 H 0.18954 0.19222 0.51028 0.0
C397 C 0.25282 0.18338 0.51128 0.0
H398 H 0.38486 0.19054 0.50554 0.0
H399 H 0.3267 0.2744 0.4001 0.0
H400 H 0.37515 0.22912 0.33413 0.0
H401 H 0.39352 0.18246 0.34398 0.0
H402 H 0.36362 0.18081 0.41995 0.0
C403 C 0.32042 0.19889 0.5074 0.0
C404 C 0.30902 0.22723 0.50191 0.0
C405 C 0.32801 0.22798 0.45753 0.0
C406 C 0.31809 0.25497 0.45198 0.0
C407 C 0.335 0.25475 0.40673 0.0
C408 C 0.36234 0.22884 0.36841 0.0
C409 C 0.37265 0.20256 0.37395 0.0
C410 C 0.3555 0.20197 0.41782 0.0
H411 H 0.41162 0.31505 0.48123 0.0
C412 C 0.34914 0.32488 0.48196 0.0
H413 H 0.21673 0.31888 0.48893 0.0
H414 H 0.27174 0.23408 0.59285 0.0
H415 H 0.22298 0.27931 0.65875 0.0
H416 H 0.20474 0.32599 0.64894 0.0
H417 H 0.23508 0.3277 0.5731 0.0
C418 C 0.28051 0.30986 0.48603 0.0
C419 C 0.29018 0.28132 0.49112 0.0
C420 C 0.27081 0.28054 0.53546 0.0
C421 C 0.28072 0.25354 0.54099 0.0
C422 C 0.26355 0.25373 0.58621 0.0
C423 C 0.236 0.27962 0.6245 0.0
C424 C 0.22576 0.3059 0.61899 0.0
C425 C 0.24318 0.30653 0.57517 0.0
H426 H 0.80489 0.82549 0.49945 0.0
C427 C 0.86875 0.81667 0.48865 0.0
H428 H 0.9536 0.78152 0.48154 0.0
H429 H 0.66241 0.76432 0.62139 0.0
H430 H 0.71647 0.81096 0.68272 0.0
H431 H 0.82244 0.84073 0.66308 0.0
H432 H 0.87498 0.82406 0.582 0.0
C433 C 0.89047 0.79105 0.49125 0.0
C434 C 0.82674 0.77338 0.5037 0.0
C435 C 0.79701 0.78346 0.55135 0.0
C436 C 0.73643 0.76618 0.56274 0.0
C437 C 0.70813 0.77663 0.61067 0.0
C438 C 0.73878 0.80333 0.64627 0.0
C439 C 0.79841 0.8201 0.63521 0.0
C440 C 0.8277 0.81034 0.58843 0.0
H441 H 0.73232 0.68676 0.52989 0.0
C442 C 0.66768 0.69475 0.5405 0.0
H443 H 0.58101 0.72981 0.54921 0.0
H444 H 0.87033 0.74794 0.40881 0.0
H445 H 0.81559 0.70149 0.34737 0.0
H446 H 0.7093 0.67178 0.36694 0.0
H447 H 0.65718 0.68833 0.44805 0.0
C448 C 0.64435 0.72062 0.53917 0.0
C449 C 0.70659 0.73873 0.52661 0.0
C450 C 0.73585 0.72876 0.47888 0.0
C451 C 0.79649 0.74603 0.46751 0.0
C452 C 0.82456 0.73565 0.41953 0.0
C453 C 0.7935 0.70905 0.38385 0.0
C454 C 0.7337 0.69232 0.39487 0.0
C455 C 0.70471 0.702 0.4417 0.0
H456 H 0.30049 0.03558 1.00055 0.0
C457 C 0.28022 0.01379 0.99729 0.0
H458 H 0.32032 0.97228 0.99393 0.0
H459 H 0.68859 0.97258 0.91328 0.0
H460 H 0.61995 0.93237 0.8461 0.0
H461 H 0.46707 0.92168 0.84794 0.0
H462 H 0.38045 0.95209 0.91593 0.0
C463 C 0.33984 0.99392 0.99642 0.0
C464 C 0.43361 1.00014 0.99682 0.0
C465 C 0.48445 0.98149 0.95753 0.0
C466 C 0.57356 0.98714 0.95702 0.0
C467 C 0.62133 0.96893 0.9162 0.0
C468 C 0.58279 0.94573 0.87732 0.0
C469 C 0.49653 0.93982 0.87824 0.0
C470 C 0.44759 0.95744 0.91764 0.0
H471 H 0.74213 0.97899 0.00583 0.0
C472 C 0.76457 0.99851 1.00166 0.0
H473 H 0.72682 0.03735 0.99406 0.0
H474 H 0.35861 0.03846 0.08084 0.0
H475 H 0.42614 0.07981 0.1464 0.0
H476 H 0.57919 0.09042 0.14421 0.0
H477 H 0.66592 0.05943 0.07641 0.0
C478 C 0.70645 0.017 0.99627 0.0
C479 C 0.61259 0.01116 0.99625 0.0
C480 C 0.56187 0.02986 0.03552 0.0
C481 C 0.47277 0.02415 0.03619 0.0
C482 C 0.42537 0.04237 0.07723 0.0
C483 C 0.4636 0.06608 0.11548 0.0
C484 C 0.54982 0.07201 0.1143 0.0
C485 C 0.5988 0.05408 0.07507 0.0
H486 H 0.30164 0.97917 0.50953 0.0
C487 C 0.28033 0.99947 0.5072 0.0
H488 H 0.31791 0.03766 0.49823 0.0
H489 H 0.68659 0.04191 0.58684 0.0
H490 H 0.62219 0.08629 0.64716 0.0
H491 H 0.46988 0.09732 0.64208 0.0
H492 H 0.38086 0.06367 0.57695 0.0
C493 C 0.33811 0.01768 0.50172 0.0
C494 C 0.43116 0.01178 0.50234 0.0
C495 C 0.48285 0.03201 0.54011 0.0
C496 C 0.57122 0.02604 0.54232 0.0
C497 C 0.62009 0.04587 0.582 0.0
C498 C 0.5837 0.07136 0.61727 0.0
C499 C 0.49792 0.07752 0.61449 0.0
C500 C 0.44761 0.05804 0.57673 0.0
H501 H 0.73696 0.03395 0.50144 0.0
C502 C 0.75899 0.01346 0.50286 0.0
H503 H 0.72222 0.9737 0.50733 0.0
H504 H 0.35215 0.96999 0.42194 0.0
H505 H 0.41715 0.92622 0.36043 0.0
H506 H 0.56992 0.91553 0.36465 0.0
H507 H 0.65893 0.94885 0.43014 0.0
C508 C 0.70154 0.99441 0.50627 0.0
C509 C 0.6083 1.00025 0.50577 0.0
C510 C 0.55664 0.98014 0.46779 0.0
C511 C 0.46813 0.98601 0.46581 0.0
C512 C 0.419 0.9662 0.42626 0.0
C513 C 0.45564 0.94104 0.39041 0.0
C514 C 0.54171 0.93507 0.39272 0.0
C515 C 0.59202 0.95437 0.43067 0.0
H516 H 0.81356 0.53116 1.00331 0.0
C517 C 0.7908 0.51261 0.01016 0.0
H518 H 0.82803 0.47542 0.02271 0.0
H519 H 0.19514 0.46901 0.93155 0.0
H520 H 0.12662 0.4258 0.87009 0.0
H521 H 0.97374 0.41593 0.87484 0.0
H522 H 0.88817 0.44953 0.94105 0.0
C523 C 0.84869 0.49491 0.01787 0.0
C524 C 0.94266 0.50027 0.01667 0.0
C525 C 0.99278 0.48005 0.97848 0.0
C526 C 0.08182 0.48536 0.97641 0.0
C527 C 0.12851 0.46555 0.93628 0.0
C528 C 0.0897 0.44073 0.90035 0.0
C529 C 1.00358 0.43521 0.90296 0.0
C530 C 0.95526 0.45465 0.94127 0.0
H531 H 0.25542 0.47621 0.01347 0.0
C532 C 0.27528 0.49735 0.01383 0.0
H533 H 0.23446 0.5374 0.01185 0.0
H534 H 0.86801 0.54212 0.09729 0.0
H535 H 0.93754 0.58452 0.16033 0.0
H536 H 0.09033 0.59437 0.15602 0.0
H537 H 0.17593 0.56115 0.08977 0.0
C538 C 0.21527 0.51647 0.01232 0.0
C539 C 0.12158 0.51056 0.01341 0.0
C540 C 0.07135 0.53073 0.05164 0.0
C541 C 0.98229 0.52547 0.05351 0.0
C542 C 0.93516 0.54536 0.09332 0.0
C543 C 0.97424 0.56981 0.12984 0.0
C544 C 0.06044 0.57528 0.12755 0.0
C545 C 0.10879 0.55602 0.08915 0.0
H546 H 0.29201 0.47396 0.4529 0.0
C547 C 0.31504 0.49164 0.48625 0.0
H548 H 0.27946 0.52518 0.55335 0.0
H549 H 0.91853 0.5113 0.43035 0.0
H550 H 0.99935 0.52828 0.37981 0.0
H551 H 0.15579 0.53364 0.38809 0.0
H552 H 0.23212 0.52196 0.44667 0.0
C553 C 0.25775 0.50856 0.51875 0.0
C554 C 0.16348 0.50337 0.51077 0.0
C555 C 0.11953 0.5095 0.47533 0.0
C556 C 1.02908 0.50623 0.47032 0.0
C557 C 0.98705 0.51311 0.43533 0.0
C558 C 1.0326 0.52296 0.40618 0.0
C559 C 0.12063 0.526 0.41087 0.0
C560 C 0.16379 0.51931 0.44484 0.0
H561 H 0.8544 0.53042 0.55357 0.0
C562 C 0.83097 0.51087 0.5229 0.0
H563 H 0.86618 0.47284 0.46084 0.0
H564 H 0.22714 0.48724 0.57935 0.0
H565 H 0.14579 0.47068 0.6302 0.0
H566 H 0.98882 0.46722 0.62385 0.0
H567 H 0.91265 0.48015 0.56639 0.0
C568 C 0.8879 0.4917 0.49302 0.0
C569 C 0.98216 0.49684 0.50061 0.0
C570 C 1.02597 0.49089 0.53619 0.0
C571 C 0.1165 0.49372 0.54077 0.0
C572 C 0.15847 0.48616 0.57506 0.0
C573 C 0.1126 0.47651 0.60437 0.0
C574 C 1.02428 0.47448 0.6007 0.0
C575 C 0.98126 0.48172 0.56729 0.0
H576 H 0.92774 0.98763 0.35306 0.0
C577 C 0.98278 1.00003 0.37346 0.0
H578 H 0.08871 0.02649 0.37486 0.0
H579 H 0.95539 0.9622 0.1446 0.0
H580 H 0.97883 0.9145 0.14724 0.0
H581 H 1.02526 0.91197 0.22193 0.0
H582 H 0.0454 0.95725 0.29526 0.0
C583 C 1.03411 0.01383 0.35434 0.0
C584 C 1.01517 0.01467 0.30709 0.0
C585 C 1.00981 0.98801 0.26392 0.0
C586 C 0.99031 0.98946 0.21962 0.0
C587 C 0.97652 0.96245 0.17825 0.0
C588 C 0.9887 0.93489 0.17942 0.0
C589 C 1.01433 0.9335 0.22166 0.0
C590 C 1.02482 0.95965 0.26354 0.0
H591 H 0.08463 0.99401 0.13991 0.0
C592 C 1.03189 0.00674 0.13482 0.0
H593 H 0.92202 0.03212 0.16533 0.0
H594 H 1.01588 0.07002 0.38281 0.0
H595 H 0.99996 0.11763 0.37885 0.0
H596 H 0.97799 0.12019 0.30126 0.0
H597 H 0.97029 0.07516 0.22736 0.0
C598 C 0.97474 0.01931 0.17017 0.0
C599 C 0.98428 0.01754 0.21744 0.0
C600 C 0.98934 0.04416 0.26055 0.0
C601 C 1.00394 0.04271 0.30531 0.0
C602 C 1.00674 0.06971 0.34774 0.0
C603 C 0.9974 0.09726 0.34605 0.0
C604 C 0.98493 0.0987 0.30239 0.0
C605 C 0.98078 0.07258 0.26011 0.0
H606 H 0.94358 0.0133 0.86653 0.0
C607 C 1.00338 0.00518 0.87465 0.0
H608 H 0.12682 0.9896 0.85051 0.0
H609 H 0.0529 0.94228 0.62827 0.0
H610 H 0.10376 0.89804 0.63521 0.0
H611 H 0.13302 0.89874 0.71452 0.0
H612 H 0.11207 0.94371 0.78718 0.0
C613 C 0.06645 0.99726 0.84218 0.0
C614 C 0.05491 0.99778 0.79388 0.0
C615 C 0.06854 0.97134 0.75139 0.0
C616 C 0.0518 0.97094 0.70546 0.0
C617 C 0.06507 0.94403 0.66394 0.0
C618 C 0.09409 0.91837 0.6674 0.0
C619 C 0.11054 0.91877 0.71203 0.0
C620 C 0.09806 0.94482 0.75357 0.0
H621 H 0.09642 0.02936 0.66002 0.0
C622 C 0.04948 0.01361 0.63676 0.0
H623 H 0.96026 0.98009 0.62971 0.0
H624 H 0.04249 0.05427 0.86569 0.0
H625 H 0.98488 0.09794 0.85946 0.0
H626 H 0.9376 0.09544 0.78129 0.0
H627 H 0.95269 0.0497 0.70869 0.0
C628 C 1.00594 0.99636 0.6531 0.0
C629 C 1.02254 0.99709 0.70166 0.0
C630 C 1.00879 0.02353 0.74406 0.0
C631 C 1.02849 0.02423 0.78985 0.0
C632 C 1.02221 0.05181 0.83077 0.0
C633 C 0.99029 0.07719 0.82751 0.0
C634 C 0.96449 0.07584 0.78342 0.0
C635 C 0.97398 0.04946 0.74202 0.0
H636 H 0.646 0.51025 0.3686 0.0
C637 C 0.59001 0.49912 0.37385 0.0
H638 H 0.47351 0.47786 0.34443 0.0
H639 H 0.6181 0.54896 0.21415 0.0
H640 H 0.6153 0.59434 0.28841 0.0
H641 H 0.56828 0.59311 0.36355 0.0
H642 H 0.52997 0.54642 0.36574 0.0
C643 C 0.53029 0.48853 0.33894 0.0
C644 C 0.54055 0.49042 0.29187 0.0
C645 C 0.5546 0.51834 0.29007 0.0
C646 C 0.57313 0.51947 0.24566 0.0
C647 C 0.5971 0.54719 0.24614 0.0
C648 C 0.59637 0.57334 0.28848 0.0
C649 C 0.57083 0.57263 0.33095 0.0
C650 C 0.54994 0.54556 0.33187 0.0
H651 H 0.48201 0.5245 0.16238 0.0
C652 C 0.5308 0.51019 0.13895 0.0
H653 H 0.6303 0.47973 0.13116 0.0
H654 H 0.51104 0.4334 0.28139 0.0
H655 H 0.50961 0.3884 0.20723 0.0
H656 H 0.53542 0.39055 0.12991 0.0
H657 H 0.56358 0.43759 0.12645 0.0
C658 C 0.58186 0.49415 0.15475 0.0
C659 C 0.56942 0.49306 0.20219 0.0
C660 C 0.55343 0.4652 0.20378 0.0
C661 C 0.53857 0.46392 0.2485 0.0
C662 C 0.52283 0.43577 0.24868 0.0
C663 C 0.52166 0.40969 0.20628 0.0
C664 C 0.53614 0.4109 0.16277 0.0
C665 C 0.55191 0.4382 0.16133 0.0
H666 H 0.63994 0.51814 0.66089 0.0
C667 C 0.59122 0.50387 0.63671 0.0
H668 H 0.49114 0.47357 0.62764 0.0
H669 H 0.59702 0.43095 0.7854 0.0
H670 H 0.60001 0.38499 0.71278 0.0
H671 H 0.58404 0.38558 0.63341 0.0
H672 H 0.56303 0.43206 0.62629 0.0
C673 C 0.5398 0.48793 0.6517 0.0
C674 C 0.55095 0.488 0.70008 0.0
C675 C 0.56573 0.46066 0.70361 0.0
C676 C 0.57756 0.46042 0.7494 0.0
C677 C 0.589 0.43262 0.75173 0.0
C678 C 0.5909 0.406 0.71024 0.0
C679 C 0.58176 0.40632 0.66557 0.0
C680 C 0.56944 0.43322 0.66205 0.0
H681 H 0.47099 0.51056 0.866 0.0
C682 C 0.52504 0.49925 0.87332 0.0
H683 H 0.63931 0.47567 0.84676 0.0
H684 H 0.50649 0.54374 0.7084 0.0
H685 H 0.51817 0.59034 0.78007 0.0
H686 H 0.56432 0.59061 0.85701 0.0
H687 H 0.59586 0.54429 0.86289 0.0
C688 C 0.5852 0.48707 0.83973 0.0
C689 C 0.57741 0.48762 0.79163 0.0
C690 C 0.56714 0.51509 0.78779 0.0
C691 C 0.5488 0.51515 0.7425 0.0
C692 C 0.52782 0.54263 0.74101 0.0
C693 C 0.53304 0.56949 0.78202 0.0
C694 C 0.5585 0.56965 0.8254 0.0
C695 C 0.57543 0.54285 0.82843 0.0
loop_
_geom_bond_atom_site_label_1
_geom_bond_atom_site_label_2
_geom_bond_distance
_geom_bond_site_symmetry_2
_ccdc_geom_bond_type
C0 C2 1.422 . S
C0 C4 1.415 . S
C0 N6 1.369 . S
C1 C2 1.421 . S
C1 C3 1.417 . S
C1 C13 1.445 . S
C2 C0 1.422 . S
C2 C1 1.421 . S
C2 N12 1.359 . S
C3 C1 1.417 . S
C3 C5 1.329 . S
C3 H22 0.930 . S
C4 C0 1.415 . S
C4 C5 1.437 . S
C4 C8 1.413 . S
C5 C3 1.329 . S
C5 C4 1.437 . S
C5 H27 0.929 . S
N6 C0 1.369 . S
N6 C7 1.338 . S
N6 Gd11 2.622 . S
C7 N6 1.338 . S
C7 C9 1.378 . S
C7 H19 0.929 . S
C8 C4 1.413 . S
C8 C9 1.348 . S
C8 H24 0.931 . S
C9 C7 1.378 . S
C9 C8 1.348 . S
C9 H25 0.930 . S
Gd10 N30 2.622 . S
Gd10 N37 2.570 . S
Gd10 O44 2.353 1_655 S
Gd10 O45 2.468 1_655 S
Gd10 O46 2.427 1_655 S
Gd10 O48 2.388 1_655 S
Gd10 O49 2.386 . S
Gd10 O53 2.307 1_556 S
Gd10 C63 2.805 1_655 S
Gd11 N6 2.622 . S
Gd11 N12 2.570 . S
Gd11 O43 2.386 . S
Gd11 O47 2.307 1_554 S
Gd11 O50 2.353 1_455 S
Gd11 O51 2.468 1_455 S
Gd11 O52 2.427 1_455 S
Gd11 O54 2.388 1_455 S
Gd11 C75 2.805 1_455 S
N12 C2 1.359 . S
N12 Gd11 2.570 . S
N12 C14 1.343 1_554 S
C13 C1 1.445 . S
C13 C15 1.308 1_554 S
C13 H21 0.921 1_554 S
C14 N12 1.343 1_556 S
C14 C15 1.390 . S
C14 H16 0.931 . S
C15 C13 1.308 1_556 S
C15 C14 1.390 . S
C15 H17 0.930 . S
H16 C14 0.931 . S
H17 C15 0.930 . S
H18 C41 0.931 . S
H19 C7 0.929 . S
H20 C42 0.930 . S
H21 C13 0.921 1_556 S
H22 C3 0.930 . S
H23 C32 0.929 . S
H24 C8 0.931 . S
H25 C9 0.930 . S
H26 C64 0.930 . S
H27 C5 0.929 . S
H28 C33 0.931 . S
H29 C34 0.930 . S
N30 Gd10 2.622 . S
N30 C31 1.369 . S
N30 C32 1.338 . S
C31 N30 1.369 . S
C31 C35 1.415 . S
C31 C38 1.422 . S
C32 H23 0.929 . S
C32 N30 1.338 . S
C32 C34 1.378 . S
C33 H28 0.931 . S
C33 C34 1.348 . S
C33 C35 1.413 . S
C34 H29 0.930 . S
C34 C32 1.378 . S
C34 C33 1.348 . S
C35 C31 1.415 . S
C35 C33 1.413 . S
C35 C65 1.437 . S
H36 C65 0.929 . S
N37 Gd10 2.570 . S
N37 C38 1.359 . S
N37 C41 1.343 1_556 S
C38 C31 1.422 . S
C38 N37 1.359 . S
C38 C40 1.421 . S
C39 C40 1.439 . S
C39 C42 1.312 1_556 S
C39 H66 0.923 1_556 S
C40 C38 1.421 . S
C40 C39 1.439 . S
C40 C64 1.417 . S
C41 H18 0.931 . S
C41 N37 1.343 1_554 S
C41 C42 1.390 . S
C42 H20 0.930 . S
C42 C39 1.312 1_554 S
C42 C41 1.390 . S
O43 Gd11 2.386 . S
O43 C55 1.265 1_545 S
O44 Gd10 2.353 1_455 S
O44 C55 1.242 1_556 S
O45 Gd10 2.468 1_455 S
O45 C63 1.263 . S
O46 Gd10 2.427 1_455 S
O46 C63 1.252 . S
O47 Gd11 2.307 1_556 S
O47 C56 1.261 1_545 S
O48 Gd10 2.388 1_455 S
O48 C56 1.252 . S
O49 Gd10 2.386 . S
O49 C67 1.265 1_565 S
O50 Gd11 2.353 1_655 S
O50 C67 1.242 1_554 S
O51 Gd11 2.468 1_655 S
O51 C75 1.263 . S
O52 Gd11 2.427 1_655 S
O52 C75 1.252 . S
O53 Gd10 2.307 1_554 S
O53 C68 1.261 1_565 S
O54 Gd11 2.388 1_655 S
O54 C68 1.252 . S
C55 O43 1.265 1_565 S
C55 O44 1.242 1_554 S
C56 O47 1.261 1_565 S
C56 O48 1.252 . S
C57 C60 1.394 . S
C57 C62 1.370 . S
C57 C63 1.500 . S
C58 C61 1.383 . S
C58 C62 1.395 . S
C59 C60 1.396 . S
C59 C61 1.365 . S
C59 H76 0.929 . S
C60 C57 1.394 . S
C60 C59 1.396 . S
C60 H77 0.930 . S
C61 C58 1.383 . S
C61 C59 1.365 . S
C61 H78 0.931 . S
C62 C57 1.370 . S
C62 C58 1.395 . S
C62 H79 0.930 1_556 S
C63 Gd10 2.805 1_455 S
C63 O45 1.263 . S
C63 O46 1.252 . S
C63 C57 1.500 . S
C64 H26 0.930 . S
C64 C40 1.417 . S
C64 C65 1.329 . S
C65 C35 1.437 . S
C65 H36 0.929 . S
C65 C64 1.329 . S
H66 C39 0.923 1_554 S
C67 O49 1.265 1_545 S
C67 O50 1.242 1_556 S
C68 O53 1.261 1_545 S
C68 O54 1.252 . S
C69 C72 1.394 . S
C69 C74 1.370 . S
C69 C75 1.500 . S
C70 C73 1.383 . S
C70 C74 1.395 . S
C71 C72 1.396 . S
C71 C73 1.365 . S
C71 H80 0.929 . S
C72 C69 1.394 . S
C72 C71 1.396 . S
C72 H81 0.930 . S
C73 C70 1.383 . S
C73 C71 1.365 . S
C73 H82 0.931 . S
C74 C69 1.370 . S
C74 C70 1.395 . S
C74 H83 0.930 1_554 S
C75 Gd11 2.805 1_655 S
C75 O51 1.263 . S
C75 O52 1.252 . S
C75 C69 1.500 . S
H76 C59 0.929 . S
H77 C60 0.930 . S
H78 C61 0.931 . S
H79 C62 0.930 1_554 S
H80 C71 0.929 . S
H81 C72 0.930 . S
H82 C73 0.931 . S
H83 C74 0.930 1_556 S
C84 C86 1.422 . S
C84 C88 1.415 . S
C84 N90 1.369 . S
C85 C86 1.421 . S
C85 C87 1.417 . S
C85 C97 1.422 . S
C86 C84 1.422 . S
C86 C85 1.421 . S
C86 N96 1.359 . S
C87 C85 1.417 . S
C87 C89 1.329 . S
C87 H106 0.930 . S
C88 C84 1.415 . S
C88 C89 1.437 . S
C88 C92 1.413 . S
C89 C87 1.329 . S
C89 C88 1.437 . S
C89 H111 0.929 . S
N90 C84 1.369 . S
N90 C91 1.338 . S
N90 Gd95 2.622 . S
C91 N90 1.338 . S
C91 C93 1.378 . S
C91 H103 0.929 . S
C92 C88 1.413 . S
C92 C93 1.348 . S
C92 H108 0.931 . S
C93 C91 1.378 . S
C93 C92 1.348 . S
C93 H109 0.930 . S
Gd94 N114 2.622 . S
Gd94 N121 2.570 . S
Gd94 O128 2.353 1_655 S
Gd94 O129 2.468 1_655 S
Gd94 O130 2.427 1_655 S
Gd94 O132 2.388 1_655 S
Gd94 O133 2.386 . S
Gd94 O137 2.307 . S
Gd94 C147 2.805 1_655 S
Gd95 N90 2.622 . S
Gd95 N96 2.570 . S
Gd95 O127 2.386 . S
Gd95 O131 2.307 . S
Gd95 O134 2.353 1_455 S
Gd95 O135 2.468 1_455 S
Gd95 O136 2.427 1_455 S
Gd95 O138 2.388 1_455 S
Gd95 C159 2.805 1_455 S
N96 C86 1.359 . S
N96 Gd95 2.570 . S
N96 C98 1.343 . S
C97 C85 1.422 . S
C97 C99 1.321 . S
C97 H105 0.931 . S
C98 N96 1.343 . S
C98 C99 1.390 . S
C98 H100 0.931 . S
C99 C97 1.321 . S
C99 C98 1.390 . S
C99 H101 0.930 . S
H100 C98 0.931 . S
H101 C99 0.930 . S
H102 C125 0.931 . S
H103 C91 0.929 . S
H104 C126 0.930 . S
H105 C97 0.931 . S
H106 C87 0.930 . S
H107 C116 0.929 . S
H108 C92 0.931 . S
H109 C93 0.930 . S
H110 C148 0.930 . S
H111 C89 0.929 . S
H112 C117 0.931 . S
H113 C118 0.930 . S
N114 Gd94 2.622 . S
N114 C115 1.369 . S
N114 C116 1.338 . S
C115 N114 1.369 . S
C115 C119 1.415 . S
C115 C122 1.422 . S
C116 H107 0.929 . S
C116 N114 1.338 . S
C116 C118 1.378 . S
C117 H112 0.931 . S
C117 C118 1.348 . S
C117 C119 1.413 . S
C118 H113 0.930 . S
C118 C116 1.378 . S
C118 C117 1.348 . S
C119 C115 1.415 . S
C119 C117 1.413 . S
C119 C149 1.437 . S
H120 C149 0.929 . S
N121 Gd94 2.570 . S
N121 C122 1.359 . S
N121 C125 1.343 . S
C122 C115 1.422 . S
C122 N121 1.359 . S
C122 C124 1.421 . S
C123 C124 1.422 . S
C123 C126 1.321 . S
C123 H150 0.931 . S
C124 C122 1.421 . S
C124 C123 1.422 . S
C124 C148 1.417 . S
C125 H102 0.931 . S
C125 N121 1.343 . S
C125 C126 1.390 . S
C126 H104 0.930 . S
C126 C123 1.321 . S
C126 C125 1.390 . S
O127 Gd95 2.386 . S
O127 C139 1.265 1_565 S
O128 Gd94 2.353 1_455 S
O128 C139 1.242 . S
O129 Gd94 2.468 1_455 S
O129 C147 1.263 . S
O130 Gd94 2.427 1_455 S
O130 C147 1.252 . S
O131 Gd95 2.307 . S
O131 C140 1.261 1_565 S
O132 Gd94 2.388 1_455 S
O132 C140 1.252 . S
O133 Gd94 2.386 . S
O133 C151 1.265 1_545 S
O134 Gd95 2.353 1_655 S
O134 C151 1.242 . S
O135 Gd95 2.468 1_655 S
O135 C159 1.263 . S
O136 Gd95 2.427 1_655 S
O136 C159 1.252 . S
O137 Gd94 2.307 . S
O137 C152 1.261 1_545 S
O138 Gd95 2.388 1_655 S
O138 C152 1.252 . S
C139 O127 1.265 1_545 S
C139 O128 1.242 . S
C140 O131 1.261 1_545 S
C140 O132 1.252 . S
C141 C144 1.394 . S
C141 C146 1.370 . S
C141 C147 1.500 . S
C142 C145 1.383 . S
C142 C146 1.395 . S
C143 C144 1.396 . S
C143 C145 1.365 . S
C143 H160 0.929 . S
C144 C141 1.394 . S
C144 C143 1.396 . S
C144 H161 0.930 . S
C145 C142 1.383 . S
C145 C143 1.365 . S
C145 H162 0.931 . S
C146 C141 1.370 . S
C146 C142 1.395 . S
C146 H163 0.930 . S
C147 Gd94 2.805 1_455 S
C147 O129 1.263 . S
C147 O130 1.252 . S
C147 C141 1.500 . S
C148 H110 0.930 . S
C148 C124 1.417 . S
C148 C149 1.329 . S
C149 C119 1.437 . S
C149 H120 0.929 . S
C149 C148 1.329 . S
H150 C123 0.931 . S
C151 O133 1.265 1_565 S
C151 O134 1.242 . S
C152 O137 1.261 1_565 S
C152 O138 1.252 . S
C153 C156 1.394 . S
C153 C158 1.370 . S
C153 C159 1.500 . S
C154 C157 1.383 . S
C154 C158 1.395 . S
C155 C156 1.396 . S
C155 C157 1.365 . S
C155 H164 0.929 . S
C156 C153 1.394 . S
C156 C155 1.396 . S
C156 H165 0.930 . S
C157 C154 1.383 . S
C157 C155 1.365 . S
C157 H166 0.931 . S
C158 C153 1.370 . S
C158 C154 1.395 . S
C158 H167 0.930 . S
C159 Gd95 2.805 1_655 S
C159 O135 1.263 . S
C159 O136 1.252 . S
C159 C153 1.500 . S
H160 C143 0.929 . S
H161 C144 0.930 . S
H162 C145 0.931 . S
H163 C146 0.930 . S
H164 C155 0.929 . S
H165 C156 0.930 . S
H166 C157 0.931 . S
H167 C158 0.930 . S
C168 C170 1.422 . S
C168 C172 1.415 . S
C168 N174 1.369 . S
C169 C170 1.421 . S
C169 C171 1.417 . S
C169 C181 1.445 . S
C170 C168 1.422 . S
C170 C169 1.421 . S
C170 N180 1.359 . S
C171 C169 1.417 . S
C171 C173 1.329 . S
C171 H190 0.930 . S
C172 C168 1.415 . S
C172 C173 1.437 . S
C172 C176 1.413 . S
C173 C171 1.329 . S
C173 C172 1.437 . S
C173 H195 0.929 . S
N174 C168 1.369 . S
N174 C175 1.338 . S
N174 Gd179 2.622 . S
C175 N174 1.338 . S
C175 C177 1.378 . S
C175 H187 0.929 . S
C176 C172 1.413 . S
C176 C177 1.348 . S
C176 H192 0.931 . S
C177 C175 1.378 . S
C177 C176 1.348 . S
C177 H193 0.930 . S
Gd178 N198 2.622 . S
Gd178 N205 2.570 . S
Gd178 O212 2.353 . S
Gd178 O213 2.468 . S
Gd178 O214 2.427 . S
Gd178 O216 2.388 . S
Gd178 O217 2.386 . S
Gd178 O221 2.307 1_556 S
Gd178 C231 2.805 . S
Gd179 N174 2.622 . S
Gd179 N180 2.570 . S
Gd179 O211 2.386 . S
Gd179 O215 2.307 1_554 S
Gd179 O218 2.353 . S
Gd179 O219 2.468 . S
Gd179 O220 2.427 . S
Gd179 O222 2.388 . S
Gd179 C243 2.805 . S
N180 C170 1.359 . S
N180 Gd179 2.570 . S
N180 C182 1.343 1_554 S
C181 C169 1.445 . S
C181 C183 1.308 1_554 S
C181 H189 0.921 1_554 S
C182 N180 1.343 1_556 S
C182 C183 1.390 . S
C182 H184 0.931 . S
C183 C181 1.308 1_556 S
C183 C182 1.390 . S
C183 H185 0.930 . S
H184 C182 0.931 . S
H185 C183 0.930 . S
H186 C209 0.931 . S
H187 C175 0.929 . S
H188 C210 0.930 . S
H189 C181 0.921 1_556 S
H190 C171 0.930 . S
H191 C200 0.929 . S
H192 C176 0.931 . S
H193 C177 0.930 . S
H194 C232 0.930 . S
H195 C173 0.929 . S
H196 C201 0.931 . S
H197 C202 0.930 . S
N198 Gd178 2.622 . S
N198 C199 1.369 . S
N198 C200 1.338 . S
C199 N198 1.369 . S
C199 C203 1.415 . S
C199 C206 1.422 . S
C200 H191 0.929 . S
C200 N198 1.338 . S
C200 C202 1.378 . S
C201 H196 0.931 . S
C201 C202 1.348 . S
C201 C203 1.413 . S
C202 H197 0.930 . S
C202 C200 1.378 . S
C202 C201 1.348 . S
C203 C199 1.415 . S
C203 C201 1.413 . S
C203 C233 1.437 . S
H204 C233 0.929 . S
N205 Gd178 2.570 . S
N205 C206 1.359 . S
N205 C209 1.343 1_556 S
C206 C199 1.422 . S
C206 N205 1.359 . S
C206 C208 1.421 . S
C207 C208 1.439 . S
C207 C210 1.312 1_556 S
C207 H234 0.923 1_556 S
C208 C206 1.421 . S
C208 C207 1.439 . S
C208 C232 1.417 . S
C209 H186 0.931 . S
C209 N205 1.343 1_554 S
C209 C210 1.390 . S
C210 H188 0.930 . S
C210 C207 1.312 1_554 S
C210 C209 1.390 . S
O211 Gd179 2.386 . S
O211 C223 1.265 . S
O212 Gd178 2.353 . S
O212 C223 1.242 1_556 S
O213 Gd178 2.468 . S
O213 C231 1.263 . S
O214 Gd178 2.427 . S
O214 C231 1.252 . S
O215 Gd179 2.307 1_556 S
O215 C224 1.261 . S
O216 Gd178 2.388 . S
O216 C224 1.252 . S
O217 Gd178 2.386 . S
O217 C235 1.265 . S
O218 Gd179 2.353 . S
O218 C235 1.242 1_554 S
O219 Gd179 2.468 . S
O219 C243 1.263 . S
O220 Gd179 2.427 . S
O220 C243 1.252 . S
O221 Gd178 2.307 1_554 S
O221 C236 1.261 . S
O222 Gd179 2.388 . S
O222 C236 1.252 . S
C223 O211 1.265 . S
C223 O212 1.242 1_554 S
C224 O215 1.261 . S
C224 O216 1.252 . S
C225 C228 1.394 . S
C225 C230 1.370 . S
C225 C231 1.500 . S
C226 C229 1.383 . S
C226 C230 1.395 . S
C227 C228 1.396 . S
C227 C229 1.365 . S
C227 H244 0.929 . S
C228 C225 1.394 . S
C228 C227 1.396 . S
C228 H245 0.930 . S
C229 C226 1.383 . S
C229 C227 1.365 . S
C229 H246 0.931 . S
C230 C225 1.370 . S
C230 C226 1.395 . S
C230 H247 0.930 1_556 S
C231 Gd178 2.805 . S
C231 O213 1.263 . S
C231 O214 1.252 . S
C231 C225 1.500 . S
C232 H194 0.930 . S
C232 C208 1.417 . S
C232 C233 1.329 . S
C233 C203 1.437 . S
C233 H204 0.929 . S
C233 C232 1.329 . S
H234 C207 0.923 1_554 S
C235 O217 1.265 . S
C235 O218 1.242 1_556 S
C236 O221 1.261 . S
C236 O222 1.252 . S
C237 C240 1.394 . S
C237 C242 1.370 . S
C237 C243 1.500 . S
C238 C241 1.383 . S
C238 C242 1.395 . S
C239 C240 1.396 . S
C239 C241 1.365 . S
C239 H248 0.929 . S
C240 C237 1.394 . S
C240 C239 1.396 . S
C240 H249 0.930 . S
C241 C238 1.383 . S
C241 C239 1.365 . S
C241 H250 0.931 . S
C242 C237 1.370 . S
C242 C238 1.395 . S
C242 H251 0.930 1_554 S
C243 Gd179 2.805 . S
C243 O219 1.263 . S
C243 O220 1.252 . S
C243 C237 1.500 . S
H244 C227 0.929 . S
H245 C228 0.930 . S
H246 C229 0.931 . S
H247 C230 0.930 1_554 S
H248 C239 0.929 . S
H249 C240 0.930 . S
H250 C241 0.931 . S
H251 C242 0.930 1_556 S
C252 C254 1.422 . S
C252 C256 1.415 . S
C252 N258 1.369 . S
C253 C254 1.421 . S
C253 C255 1.417 . S
C253 C265 1.422 . S
C254 C252 1.422 . S
C254 C253 1.421 . S
C254 N264 1.359 . S
C255 C253 1.417 . S
C255 C257 1.329 . S
C255 H274 0.930 . S
C256 C252 1.415 . S
C256 C257 1.437 . S
C256 C260 1.413 . S
C257 C255 1.329 . S
C257 C256 1.437 . S
C257 H279 0.929 . S
N258 C252 1.369 . S
N258 C259 1.338 . S
N258 Gd263 2.622 . S
C259 N258 1.338 . S
C259 C261 1.378 . S
C259 H271 0.929 . S
C260 C256 1.413 . S
C260 C261 1.348 . S
C260 H276 0.931 . S
C261 C259 1.378 . S
C261 C260 1.348 . S
C261 H277 0.930 . S
Gd262 N282 2.622 . S
Gd262 N289 2.570 . S
Gd262 O296 2.353 . S
Gd262 O297 2.468 . S
Gd262 O298 2.427 . S
Gd262 O300 2.388 . S
Gd262 O301 2.386 . S
Gd262 O305 2.307 . S
Gd262 C315 2.805 . S
Gd263 N258 2.622 . S
Gd263 N264 2.570 . S
Gd263 O295 2.386 . S
Gd263 O299 2.307 . S
Gd263 O302 2.353 . S
Gd263 O303 2.468 . S
Gd263 O304 2.427 . S
Gd263 O306 2.388 . S
Gd263 C327 2.805 . S
N264 C254 1.359 . S
N264 Gd263 2.570 . S
N264 C266 1.343 . S
C265 C253 1.422 . S
C265 C267 1.321 . S
C265 H273 0.931 . S
C266 N264 1.343 . S
C266 C267 1.390 . S
C266 H268 0.931 . S
C267 C265 1.321 . S
C267 C266 1.390 . S
C267 H269 0.930 . S
H268 C266 0.931 . S
H269 C267 0.930 . S
H270 C293 0.931 . S
H271 C259 0.929 . S
H272 C294 0.930 . S
H273 C265 0.931 . S
H274 C255 0.930 . S
H275 C284 0.929 . S
H276 C260 0.931 . S
H277 C261 0.930 . S
H278 C316 0.930 . S
H279 C257 0.929 . S
H280 C285 0.931 . S
H281 C286 0.930 . S
N282 Gd262 2.622 . S
N282 C283 1.369 . S
N282 C284 1.338 . S
C283 N282 1.369 . S
C283 C287 1.415 . S
C283 C290 1.422 . S
C284 H275 0.929 . S
C284 N282 1.338 . S
C284 C286 1.378 . S
C285 H280 0.931 . S
C285 C286 1.348 . S
C285 C287 1.413 . S
C286 H281 0.930 . S
C286 C284 1.378 . S
C286 C285 1.348 . S
C287 C283 1.415 . S
C287 C285 1.413 . S
C287 C317 1.437 . S
H288 C317 0.929 . S
N289 Gd262 2.570 . S
N289 C290 1.359 . S
N289 C293 1.343 . S
C290 C283 1.422 . S
C290 N289 1.359 . S
C290 C292 1.421 . S
C291 C292 1.422 . S
C291 C294 1.321 . S
C291 H318 0.931 . S
C292 C290 1.421 . S
C292 C291 1.422 . S
C292 C316 1.417 . S
C293 H270 0.931 . S
C293 N289 1.343 . S
C293 C294 1.390 . S
C294 H272 0.930 . S
C294 C291 1.321 . S
C294 C293 1.390 . S
O295 Gd263 2.386 . S
O295 C307 1.265 . S
O296 Gd262 2.353 . S
O296 C307 1.242 . S
O297 Gd262 2.468 . S
O297 C315 1.263 . S
O298 Gd262 2.427 . S
O298 C315 1.252 . S
O299 Gd263 2.307 . S
O299 C308 1.261 . S
O300 Gd262 2.388 . S
O300 C308 1.252 . S
O301 Gd262 2.386 . S
O301 C319 1.265 . S
O302 Gd263 2.353 . S
O302 C319 1.242 . S
O303 Gd263 2.468 . S
O303 C327 1.263 . S
O304 Gd263 2.427 . S
O304 C327 1.252 . S
O305 Gd262 2.307 . S
O305 C320 1.261 . S
O306 Gd263 2.388 . S
O306 C320 1.252 . S
C307 O295 1.265 . S
C307 O296 1.242 . S
C308 O299 1.261 . S
C308 O300 1.252 . S
C309 C312 1.394 . S
C309 C314 1.370 . S
C309 C315 1.500 . S
C310 C313 1.383 . S
C310 C314 1.395 . S
C311 C312 1.396 . S
C311 C313 1.365 . S
C311 H328 0.929 . S
C312 C309 1.394 . S
C312 C311 1.396 . S
C312 H329 0.930 . S
C313 C310 1.383 . S
C313 C311 1.365 . S
C313 H330 0.931 . S
C314 C309 1.370 . S
C314 C310 1.395 . S
C314 H331 0.930 . S
C315 Gd262 2.805 . S
C315 O297 1.263 . S
C315 O298 1.252 . S
C315 C309 1.500 . S
C316 H278 0.930 . S
C316 C292 1.417 . S
C316 C317 1.329 . S
C317 C287 1.437 . S
C317 H288 0.929 . S
C317 C316 1.329 . S
H318 C291 0.931 . S
C319 O301 1.265 . S
C319 O302 1.242 . S
C320 O305 1.261 . S
C320 O306 1.252 . S
C321 C324 1.394 . S
C321 C326 1.370 . S
C321 C327 1.500 . S
C322 C325 1.383 . S
C322 C326 1.395 . S
C323 C324 1.396 . S
C323 C325 1.365 . S
C323 H332 0.929 . S
C324 C321 1.394 . S
C324 C323 1.396 . S
C324 H333 0.930 . S
C325 C322 1.383 . S
C325 C323 1.365 . S
C325 H334 0.931 . S
C326 C321 1.370 . S
C326 C322 1.395 . S
C326 H335 0.930 . S
C327 Gd263 2.805 . S
C327 O303 1.263 . S
C327 O304 1.252 . S
C327 C321 1.500 . S
H328 C311 0.929 . S
H329 C312 0.930 . S
H330 C313 0.931 . S
H331 C314 0.930 . S
H332 C323 0.929 . S
H333 C324 0.930 . S
H334 C325 0.931 . S
H335 C326 0.930 . S
H336 C337 0.948 . S
C337 H336 0.948 . S
C337 C343 1.262 . S
H338 C343 0.948 1_554 S
H339 C347 0.949 . S
H340 C348 0.950 . S
H341 C349 0.951 . S
H342 C350 0.951 . S
C343 C337 1.262 . S
C343 H338 0.948 1_556 S
C343 C344 1.480 . S
C344 C343 1.480 . S
C344 C345 1.393 1_556 S
C344 C361 1.402 . S
C345 C344 1.393 1_554 S
C345 C346 1.438 . S
C345 C350 1.429 . S
C346 C345 1.438 . S
C346 C347 1.428 . S
C346 C359 1.408 . S
C347 H339 0.949 . S
C347 C346 1.428 . S
C347 C348 1.345 . S
C348 H340 0.950 . S
C348 C347 1.345 . S
C348 C349 1.424 . S
C349 H341 0.951 . S
C349 C348 1.424 . S
C349 C350 1.347 . S
C350 H342 0.951 . S
C350 C345 1.429 . S
C350 C349 1.347 . S
H351 C352 0.947 . S
C352 H351 0.947 . S
C352 C358 1.260 . S
H353 C358 0.947 . S
H354 C362 0.949 . S
H355 C363 0.950 . S
H356 C364 0.951 . S
H357 C365 0.951 . S
C358 C352 1.260 . S
C358 H353 0.947 . S
C358 C359 1.480 . S
C359 C346 1.408 . S
C359 C358 1.480 . S
C359 C360 1.389 1_554 S
C360 C359 1.389 1_556 S
C360 C361 1.438 . S
C360 C365 1.429 . S
C361 C344 1.402 . S
C361 C360 1.438 . S
C361 C362 1.428 . S
C362 H354 0.949 . S
C362 C361 1.428 . S
C362 C363 1.345 . S
C363 H355 0.950 . S
C363 C362 1.345 . S
C363 C364 1.424 . S
C364 H356 0.951 . S
C364 C363 1.424 . S
C364 C365 1.347 . S
C365 H357 0.951 . S
C365 C360 1.429 . S
C365 C364 1.347 . S
H366 C367 0.951 . S
C367 H366 0.951 . S
C367 C373 1.265 1_554 S
H368 C373 0.950 . S
H369 C377 0.949 . S
H370 C378 0.950 . S
H371 C379 0.951 . S
H372 C380 0.951 . S
C373 C367 1.265 1_556 S
C373 H368 0.950 . S
C373 C374 1.478 . S
C374 C373 1.478 . S
C374 C375 1.397 . S
C374 C391 1.394 1_556 S
C375 C374 1.397 . S
C375 C376 1.438 . S
C375 C380 1.429 . S
C376 C375 1.438 . S
C376 C377 1.428 . S
C376 C389 1.394 1_556 S
C377 H369 0.949 . S
C377 C376 1.428 . S
C377 C378 1.345 . S
C378 H370 0.950 . S
C378 C377 1.345 . S
C378 C379 1.424 . S
C379 H371 0.951 . S
C379 C378 1.424 . S
C379 C380 1.347 . S
C380 H372 0.951 . S
C380 C375 1.429 . S
C380 C379 1.347 . S
H381 C382 0.951 . S
C382 H381 0.951 . S
C382 C388 1.265 1_556 S
H383 C388 0.950 . S
H384 C392 0.949 . S
H385 C393 0.950 . S
H386 C394 0.951 . S
H387 C395 0.951 . S
C388 C382 1.265 1_554 S
C388 H383 0.950 . S
C388 C389 1.478 . S
C389 C376 1.394 1_554 S
C389 C388 1.478 . S
C389 C390 1.397 . S
C390 C389 1.397 . S
C390 C391 1.438 . S
C390 C395 1.429 . S
C391 C374 1.394 1_554 S
C391 C390 1.438 . S
C391 C392 1.428 . S
C392 H384 0.949 . S
C392 C391 1.428 . S
C392 C393 1.345 . S
C393 H385 0.950 . S
C393 C392 1.345 . S
C393 C394 1.424 . S
C394 H386 0.951 . S
C394 C393 1.424 . S
C394 C395 1.347 . S
C395 H387 0.951 . S
C395 C390 1.429 . S
C395 C394 1.347 . S
H396 C397 0.951 . S
C397 H396 0.951 . S
C397 C403 1.265 . S
H398 C403 0.950 . S
H399 C407 0.949 . S
H400 C408 0.950 . S
H401 C409 0.951 . S
H402 C410 0.951 . S
C403 C397 1.265 . S
C403 H398 0.950 . S
C403 C404 1.478 . S
C404 C403 1.478 . S
C404 C405 1.397 . S
C404 C421 1.394 . S
C405 C404 1.397 . S
C405 C406 1.438 . S
C405 C410 1.429 . S
C406 C405 1.438 . S
C406 C407 1.428 . S
C406 C419 1.394 . S
C407 H399 0.949 . S
C407 C406 1.428 . S
C407 C408 1.345 . S
C408 H400 0.950 . S
C408 C407 1.345 . S
C408 C409 1.424 . S
C409 H401 0.951 . S
C409 C408 1.424 . S
C409 C410 1.347 . S
C410 H402 0.951 . S
C410 C405 1.429 . S
C410 C409 1.347 . S
H411 C412 0.951 . S
C412 H411 0.951 . S
C412 C418 1.265 . S
H413 C418 0.950 . S
H414 C422 0.949 . S
H415 C423 0.950 . S
H416 C424 0.951 . S
H417 C425 0.951 . S
C418 C412 1.265 . S
C418 H413 0.950 . S
C418 C419 1.478 . S
C419 C406 1.394 . S
C419 C418 1.478 . S
C419 C420 1.397 . S
C420 C419 1.397 . S
C420 C421 1.438 . S
C420 C425 1.429 . S
C421 C404 1.394 . S
C421 C420 1.438 . S
C421 C422 1.428 . S
C422 H414 0.949 . S
C422 C421 1.428 . S
C422 C423 1.345 . S
C423 H415 0.950 . S
C423 C422 1.345 . S
C423 C424 1.424 . S
C424 H416 0.951 . S
C424 C423 1.424 . S
C424 C425 1.347 . S
C425 H417 0.951 . S
C425 C420 1.429 . S
C425 C424 1.347 . S
H426 C427 0.951 . S
C427 H426 0.951 . S
C427 C433 1.265 . S
H428 C433 0.950 . S
H429 C437 0.949 . S
H430 C438 0.950 . S
H431 C439 0.951 . S
H432 C440 0.951 . S
C433 C427 1.265 . S
C433 H428 0.950 . S
C433 C434 1.478 . S
C434 C433 1.478 . S
C434 C435 1.397 . S
C434 C451 1.394 . S
C435 C434 1.397 . S
C435 C436 1.438 . S
C435 C440 1.429 . S
C436 C435 1.438 . S
C436 C437 1.428 . S
C436 C449 1.394 . S
C437 H429 0.949 . S
C437 C436 1.428 . S
C437 C438 1.345 . S
C438 H430 0.950 . S
C438 C437 1.345 . S
C438 C439 1.424 . S
C439 H431 0.951 . S
C439 C438 1.424 . S
C439 C440 1.347 . S
C440 H432 0.951 . S
C440 C435 1.429 . S
C440 C439 1.347 . S
H441 C442 0.951 . S
C442 H441 0.951 . S
C442 C448 1.265 . S
H443 C448 0.950 . S
H444 C452 0.949 . S
H445 C453 0.950 . S
H446 C454 0.951 . S
H447 C455 0.951 . S
C448 C442 1.265 . S
C448 H443 0.950 . S
C448 C449 1.478 . S
C449 C436 1.394 . S
C449 C448 1.478 . S
C449 C450 1.397 . S
C450 C449 1.397 . S
C450 C451 1.438 . S
C450 C455 1.429 . S
C451 C434 1.394 . S
C451 C450 1.438 . S
C451 C452 1.428 . S
C452 H444 0.949 . S
C452 C451 1.428 . S
C452 C453 1.345 . S
C453 H445 0.950 . S
C453 C452 1.345 . S
C453 C454 1.424 . S
C454 H446 0.951 . S
C454 C453 1.424 . S
C454 C455 1.347 . S
C455 H447 0.951 . S
C455 C450 1.429 . S
C455 C454 1.347 . S
H456 C457 0.950 . S
C457 H456 0.950 . S
C457 C463 1.265 1_544 S
H458 C463 0.950 . S
H459 C467 0.949 . S
H460 C468 0.950 . S
H461 C469 0.951 . S
H462 C470 0.951 . S
C463 C457 1.265 1_566 S
C463 H458 0.950 . S
C463 C464 1.478 . S
C464 C463 1.478 . S
C464 C465 1.397 . S
C464 C481 1.394 1_566 S
C465 C464 1.397 . S
C465 C466 1.438 . S
C465 C470 1.429 . S
C466 C465 1.438 . S
C466 C467 1.428 . S
C466 C479 1.394 1_566 S
C467 H459 0.949 . S
C467 C466 1.428 . S
C467 C468 1.345 . S
C468 H460 0.950 . S
C468 C467 1.345 . S
C468 C469 1.424 . S
C469 H461 0.951 . S
C469 C468 1.424 . S
C469 C470 1.347 . S
C470 H462 0.951 . S
C470 C465 1.429 . S
C470 C469 1.347 . S
H471 C472 0.952 1_565 S
C472 H471 0.952 1_545 S
C472 C478 1.264 1_556 S
H473 C478 0.950 . S
H474 C482 0.949 . S
H475 C483 0.950 . S
H476 C484 0.951 . S
H477 C485 0.951 . S
C478 C472 1.264 1_554 S
C478 H473 0.950 . S
C478 C479 1.478 . S
C479 C466 1.394 1_544 S
C479 C478 1.478 . S
C479 C480 1.397 . S
C480 C479 1.397 . S
C480 C481 1.438 . S
C480 C485 1.429 . S
C481 C464 1.394 1_544 S
C481 C480 1.438 . S
C481 C482 1.428 . S
C482 H474 0.949 . S
C482 C481 1.428 . S
C482 C483 1.345 . S
C483 H475 0.950 . S
C483 C482 1.345 . S
C483 C484 1.424 . S
C484 H476 0.951 . S
C484 C483 1.424 . S
C484 C485 1.347 . S
C485 H477 0.951 . S
C485 C480 1.429 . S
C485 C484 1.347 . S
H486 C487 0.947 . S
C487 H486 0.947 . S
C487 C493 1.267 1_565 S
H488 C493 0.950 . S
H489 C497 0.949 . S
H490 C498 0.950 . S
H491 C499 0.951 . S
H492 C500 0.951 . S
C493 C487 1.267 1_545 S
C493 H488 0.950 . S
C493 C494 1.478 . S
C494 C493 1.478 . S
C494 C495 1.397 . S
C494 C511 1.394 1_545 S
C495 C494 1.397 . S
C495 C496 1.438 . S
C495 C500 1.429 . S
C496 C495 1.438 . S
C496 C497 1.428 . S
C496 C509 1.394 1_545 S
C497 H489 0.949 . S
C497 C496 1.428 . S
C497 C498 1.345 . S
C498 H490 0.950 . S
C498 C497 1.345 . S
C498 C499 1.424 . S
C499 H491 0.951 . S
C499 C498 1.424 . S
C499 C500 1.347 . S
C500 H492 0.951 . S
C500 C495 1.429 . S
C500 C499 1.347 . S
H501 C502 0.956 . S
C502 H501 0.956 . S
C502 C508 1.261 1_545 S
H503 C508 0.950 . S
H504 C512 0.949 . S
H505 C513 0.950 . S
H506 C514 0.951 . S
H507 C515 0.951 . S
C508 C502 1.261 1_565 S
C508 H503 0.950 . S
C508 C509 1.478 . S
C509 C496 1.394 1_565 S
C509 C508 1.478 . S
C509 C510 1.397 . S
C510 C509 1.397 . S
C510 C511 1.438 . S
C510 C515 1.429 . S
C511 C494 1.394 1_565 S
C511 C510 1.438 . S
C511 C512 1.428 . S
C512 H504 0.949 . S
C512 C511 1.428 . S
C512 C513 1.345 . S
C513 H505 0.950 . S
C513 C512 1.345 . S
C513 C514 1.424 . S
C514 H506 0.951 . S
C514 C513 1.424 . S
C514 C515 1.347 . S
C515 H507 0.951 . S
C515 C510 1.429 . S
C515 C514 1.347 . S
H516 C517 0.950 . S
C517 H516 0.950 . S
C517 C523 1.265 1_554 S
H518 C523 0.950 . S
H519 C527 0.949 . S
H520 C528 0.950 . S
H521 C529 0.951 . S
H522 C530 0.951 . S
C523 C517 1.265 1_556 S
C523 H518 0.950 . S
C523 C524 1.478 . S
C524 C523 1.478 . S
C524 C525 1.397 . S
C524 C541 1.394 1_556 S
C525 C524 1.397 . S
C525 C526 1.438 1_655 S
C525 C530 1.429 . S
C526 C525 1.438 1_455 S
C526 C527 1.428 . S
C526 C539 1.394 1_556 S
C527 H519 0.949 . S
C527 C526 1.428 . S
C527 C528 1.345 . S
C528 H520 0.950 . S
C528 C527 1.345 . S
C528 C529 1.424 1_455 S
C529 H521 0.951 . S
C529 C528 1.424 1_655 S
C529 C530 1.347 . S
C530 H522 0.951 . S
C530 C525 1.429 . S
C530 C529 1.347 . S
H531 C532 0.950 1_556 S
C532 H531 0.950 1_554 S
C532 C538 1.265 . S
H533 C538 0.950 . S
H534 C542 0.949 . S
H535 C543 0.950 . S
H536 C544 0.951 . S
H537 C545 0.951 . S
C538 C532 1.265 . S
C538 H533 0.950 . S
C538 C539 1.478 . S
C539 C526 1.394 1_554 S
C539 C538 1.478 . S
C539 C540 1.397 . S
C540 C539 1.397 . S
C540 C541 1.438 1_455 S
C540 C545 1.429 . S
C541 C524 1.394 1_554 S
C541 C540 1.438 1_655 S
C541 C542 1.428 . S
C542 H534 0.949 . S
C542 C541 1.428 . S
C542 C543 1.345 . S
C543 H535 0.950 . S
C543 C542 1.345 . S
C543 C544 1.424 1_655 S
C544 H536 0.951 . S
C544 C543 1.424 1_455 S
C544 C545 1.347 . S
C545 H537 0.951 . S
C545 C540 1.429 . S
C545 C544 1.347 . S
H546 C547 0.951 . S
C547 H546 0.951 . S
C547 C553 1.265 . S
H548 C553 0.950 . S
H549 C557 0.949 . S
H550 C558 0.950 . S
H551 C559 0.951 . S
H552 C560 0.951 . S
C553 C547 1.265 . S
C553 H548 0.950 . S
C553 C554 1.478 . S
C554 C553 1.478 . S
C554 C555 1.397 . S
C554 C571 1.394 . S
C555 C554 1.397 . S
C555 C556 1.438 1_455 S
C555 C560 1.429 . S
C556 C555 1.438 1_655 S
C556 C557 1.428 . S
C556 C569 1.394 . S
C557 H549 0.949 . S
C557 C556 1.428 . S
C557 C558 1.345 . S
C558 H550 0.950 . S
C558 C557 1.345 . S
C558 C559 1.424 1_655 S
C559 H551 0.951 . S
C559 C558 1.424 1_455 S
C559 C560 1.347 . S
C560 H552 0.951 . S
C560 C555 1.429 . S
C560 C559 1.347 . S
H561 C562 0.951 . S
C562 H561 0.951 . S
C562 C568 1.265 . S
H563 C568 0.950 . S
H564 C572 0.949 . S
H565 C573 0.950 . S
H566 C574 0.951 . S
H567 C575 0.951 . S
C568 C562 1.265 . S
C568 H563 0.950 . S
C568 C569 1.478 . S
C569 C556 1.394 . S
C569 C568 1.478 . S
C569 C570 1.397 . S
C570 C569 1.397 . S
C570 C571 1.438 1_655 S
C570 C575 1.429 . S
C571 C554 1.394 . S
C571 C570 1.438 1_455 S
C571 C572 1.428 . S
C572 H564 0.949 . S
C572 C571 1.428 . S
C572 C573 1.345 . S
C573 H565 0.950 . S
C573 C572 1.345 . S
C573 C574 1.424 1_455 S
C574 H566 0.951 . S
C574 C573 1.424 1_655 S
C574 C575 1.347 . S
C575 H567 0.951 . S
C575 C570 1.429 . S
C575 C574 1.347 . S
H576 C577 0.951 . S
C577 H576 0.951 . S
C577 C583 1.265 1_645 S
H578 C583 0.950 . S
H579 C587 0.949 . S
H580 C588 0.950 . S
H581 C589 0.951 . S
H582 C590 0.951 . S
C583 C577 1.265 1_465 S
C583 H578 0.950 . S
C583 C584 1.478 . S
C584 C583 1.478 . S
C584 C585 1.397 . S
C584 C601 1.394 1_565 S
C585 C584 1.397 . S
C585 C586 1.438 1_455 S
C585 C590 1.429 . S
C586 C585 1.438 1_655 S
C586 C587 1.428 . S
C586 C599 1.394 1_565 S
C587 H579 0.949 . S
C587 C586 1.428 . S
C587 C588 1.345 1_655 S
C588 H580 0.950 . S
C588 C587 1.345 1_455 S
C588 C589 1.424 . S
C589 H581 0.951 . S
C589 C588 1.424 . S
C589 C590 1.347 . S
C590 H582 0.951 . S
C590 C585 1.429 . S
C590 C589 1.347 . S
H591 C592 0.951 . S
C592 H591 0.951 . S
C592 C598 1.265 1_465 S
H593 C598 0.950 . S
H594 C602 0.949 . S
H595 C603 0.950 . S
H596 C604 0.951 . S
H597 C605 0.951 . S
C598 C592 1.265 1_645 S
C598 H593 0.950 . S
C598 C599 1.478 . S
C599 C586 1.394 1_545 S
C599 C598 1.478 . S
C599 C600 1.397 . S
C600 C599 1.397 . S
C600 C601 1.438 1_655 S
C600 C605 1.429 . S
C601 C584 1.394 1_545 S
C601 C600 1.438 1_455 S
C601 C602 1.428 . S
C602 H594 0.949 . S
C602 C601 1.428 . S
C602 C603 1.345 1_455 S
C603 H595 0.950 . S
C603 C602 1.345 1_655 S
C603 C604 1.424 . S
C604 H596 0.951 . S
C604 C603 1.424 . S
C604 C605 1.347 . S
C605 H597 0.951 . S
C605 C600 1.429 . S
C605 C604 1.347 . S
H606 C607 0.960 . S
C607 H606 0.960 . S
C607 C613 1.274 1_645 S
H608 C613 0.950 . S
H609 C617 0.949 . S
H610 C618 0.950 . S
H611 C619 0.951 . S
H612 C620 0.951 . S
C613 C607 1.274 1_465 S
C613 H608 0.950 . S
C613 C614 1.496 . S
C614 C613 1.496 . S
C614 C615 1.414 . S
C614 C631 1.360 1_465 S
C615 C614 1.414 . S
C615 C616 1.438 . S
C615 C620 1.429 . S
C616 C615 1.438 . S
C616 C617 1.428 . S
C616 C629 1.394 1_465 S
C617 H609 0.949 . S
C617 C616 1.428 . S
C617 C618 1.345 . S
C618 H610 0.950 . S
C618 C617 1.345 . S
C618 C619 1.424 . S
C619 H611 0.951 . S
C619 C618 1.424 . S
C619 C620 1.347 . S
C620 H612 0.951 . S
C620 C615 1.429 . S
C620 C619 1.347 . S
H621 C622 0.957 . S
C622 H621 0.957 . S
C622 C628 1.272 1_465 S
H623 C628 0.950 . S
H624 C632 0.949 . S
H625 C633 0.950 . S
H626 C634 0.951 . S
H627 C635 0.951 . S
C628 C622 1.272 1_645 S
C628 H623 0.950 . S
C628 C629 1.478 . S
C629 C616 1.394 1_645 S
C629 C628 1.478 . S
C629 C630 1.397 . S
C630 C629 1.397 . S
C630 C631 1.438 . S
C630 C635 1.429 . S
C631 C614 1.360 1_645 S
C631 C630 1.438 . S
C631 C632 1.428 . S
C632 H624 0.949 . S
C632 C631 1.428 . S
C632 C633 1.345 . S
C633 H625 0.950 . S
C633 C632 1.345 . S
C633 C634 1.424 . S
C634 H626 0.951 . S
C634 C633 1.424 . S
C634 C635 1.347 . S
C635 H627 0.951 . S
C635 C630 1.429 . S
C635 C634 1.347 . S
H636 C637 0.951 . S
C637 H636 0.951 . S
C637 C643 1.265 . S
H638 C643 0.950 . S
H639 C647 0.949 . S
H640 C648 0.950 . S
H641 C649 0.951 . S
H642 C650 0.951 . S
C643 C637 1.265 . S
C643 H638 0.950 . S
C643 C644 1.478 . S
C644 C643 1.478 . S
C644 C645 1.397 . S
C644 C661 1.394 . S
C645 C644 1.397 . S
C645 C646 1.438 . S
C645 C650 1.429 . S
C646 C645 1.438 . S
C646 C647 1.428 . S
C646 C659 1.394 . S
C647 H639 0.949 . S
C647 C646 1.428 . S
C647 C648 1.345 . S
C648 H640 0.950 . S
C648 C647 1.345 . S
C648 C649 1.424 . S
C649 H641 0.951 . S
C649 C648 1.424 . S
C649 C650 1.347 . S
C650 H642 0.951 . S
C650 C645 1.429 . S
C650 C649 1.347 . S
H651 C652 0.951 . S
C652 H651 0.951 . S
C652 C658 1.265 . S
H653 C658 0.950 . S
H654 C662 0.949 . S
H655 C663 0.950 . S
H656 C664 0.951 . S
H657 C665 0.951 . S
C658 C652 1.265 . S
C658 H653 0.950 . S
C658 C659 1.478 . S
C659 C646 1.394 . S
C659 C658 1.478 . S
C659 C660 1.397 . S
C660 C659 1.397 . S
C660 C661 1.438 . S
C660 C665 1.429 . S
C661 C644 1.394 . S
C661 C660 1.438 . S
C661 C662 1.428 . S
C662 H654 0.949 . S
C662 C661 1.428 . S
C662 C663 1.345 . S
C663 H655 0.950 . S
C663 C662 1.345 . S
C663 C664 1.424 . S
C664 H656 0.951 . S
C664 C663 1.424 . S
C664 C665 1.347 . S
C665 H657 0.951 . S
C665 C660 1.429 . S
C665 C664 1.347 . S
H666 C667 0.951 . S
C667 H666 0.951 . S
C667 C673 1.265 . S
H668 C673 0.950 . S
H669 C677 0.949 . S
H670 C678 0.950 . S
H671 C679 0.951 . S
H672 C680 0.951 . S
C673 C667 1.265 . S
C673 H668 0.950 . S
C673 C674 1.478 . S
C674 C673 1.478 . S
C674 C675 1.397 . S
C674 C691 1.394 . S
C675 C674 1.397 . S
C675 C676 1.438 . S
C675 C680 1.429 . S
C676 C675 1.438 . S
C676 C677 1.428 . S
C676 C689 1.394 . S
C677 H669 0.949 . S
C677 C676 1.428 . S
C677 C678 1.345 . S
C678 H670 0.950 . S
C678 C677 1.345 . S
C678 C679 1.424 . S
C679 H671 0.951 . S
C679 C678 1.424 . S
C679 C680 1.347 . S
C680 H672 0.951 . S
C680 C675 1.429 . S
C680 C679 1.347 . S
H681 C682 0.951 . S
C682 H681 0.951 . S
C682 C688 1.265 . S
H683 C688 0.950 . S
H684 C692 0.949 . S
H685 C693 0.950 . S
H686 C694 0.951 . S
H687 C695 0.951 . S
C688 C682 1.265 . S
C688 H683 0.950 . S
C688 C689 1.478 . S
C689 C676 1.394 . S
C689 C688 1.478 . S
C689 C690 1.397 . S
C690 C689 1.397 . S
C690 C691 1.438 . S
C690 C695 1.429 . S
C691 C674 1.394 . S
C691 C690 1.438 . S
C691 C692 1.428 . S
C692 H684 0.949 . S
C692 C691 1.428 . S
C692 C693 1.345 . S
C693 H685 0.950 . S
C693 C692 1.345 . S
C693 C694 1.424 . S
C694 H686 0.951 . S
C694 C693 1.424 . S
C694 C695 1.347 . S
C695 H687 0.951 . S
C695 C690 1.429 . S
C695 C694 1.347 . S
C337 C238 1.378 1_556 S
C352 C58 1.382 1_554 S
C367 C226 1.415 1_554 S
C382 C70 1.412 1_556 S
C397 C142 1.378 . S
C412 C322 1.374 . S
C427 C154 1.344 . S
C442 C310 1.349 . S
C457 C55 1.956 1_545 S
C472 C67 1.955 . S
C487 C139 1.955 1_565 S
C502 C151 1.953 1_545 S
C517 C223 1.955 . S
C532 C235 1.955 1_554 S
C547 C319 1.963 . S
C562 C307 1.963 . S
C577 C152 1.458 1_545 S
C592 C68 1.492 1_465 S
C607 C56 1.471 1_645 S
C622 C140 1.439 1_565 S
C637 C320 1.485 . S
C652 C236 1.443 . S
C667 C308 1.443 . S
C682 C224 1.483 . S
