# Generated by pormake.
# Topology unl, (4)-cn, num edge types: 1
# Building blocks:
#     Node 0, Type 0, BuildingBlock: TATPOV_clean_sbu_0, # of connection points: 4
#     Node 1, Type 0, BuildingBlock: TATPOV_clean_sbu_0, # of connection points: 4
#     Node 2, Type 0, BuildingBlock: TATPOV_clean_sbu_0, # of connection points: 4
#     Node 3, Type 0, BuildingBlock: TATPOV_clean_sbu_0, # of connection points: 4
#     Node 4, Type 0, BuildingBlock: TATPOV_clean_sbu_0, # of connection points: 4
#     Node 5, Type 0, BuildingBlock: TATPOV_clean_sbu_0, # of connection points: 4
#     Node 6, Type 0, BuildingBlock: TATPOV_clean_sbu_0, # of connection points: 4
#     Node 7, Type 0, BuildingBlock: TATPOV_clean_sbu_0, # of connection points: 4
#     Node 8, Type 0, BuildingBlock: TATPOV_clean_sbu_0, # of connection points: 4
#     Node 9, Type 0, BuildingBlock: TATPOV_clean_sbu_0, # of connection points: 4
#     Node 10, Type 0, BuildingBlock: TATPOV_clean_sbu_0, # of connection points: 4
#     Node 11, Type 0, BuildingBlock: TATPOV_clean_sbu_0, # of connection points: 4
#     Node 12, Type 0, BuildingBlock: TATPOV_clean_sbu_0, # of connection points: 4
#     Node 13, Type 0, BuildingBlock: TATPOV_clean_sbu_0, # of connection points: 4
#     Node 14, Type 0, BuildingBlock: TATPOV_clean_sbu_0, # of connection points: 4
#     Node 15, Type 0, BuildingBlock: TATPOV_clean_sbu_0, # of connection points: 4
#     Node 16, Type 0, BuildingBlock: TATPOV_clean_sbu_0, # of connection points: 4
#     Node 17, Type 0, BuildingBlock: TATPOV_clean_sbu_0, # of connection points: 4
#     Node 18, Type 0, BuildingBlock: TATPOV_clean_sbu_0, # of connection points: 4
#     Node 19, Type 0, BuildingBlock: TATPOV_clean_sbu_0, # of connection points: 4
#     Node 20, Type 0, BuildingBlock: TATPOV_clean_sbu_0, # of connection points: 4
#     Node 21, Type 0, BuildingBlock: TATPOV_clean_sbu_0, # of connection points: 4
#     Node 22, Type 0, BuildingBlock: TATPOV_clean_sbu_0, # of connection points: 4
#     Node 23, Type 0, BuildingBlock: TATPOV_clean_sbu_0, # of connection points: 4
#     Node 24, Type 0, BuildingBlock: TATPOV_clean_sbu_0, # of connection points: 4
#     Node 25, Type 0, BuildingBlock: TATPOV_clean_sbu_0, # of connection points: 4
#     Node 26, Type 0, BuildingBlock: TATPOV_clean_sbu_0, # of connection points: 4
#     Node 27, Type 0, BuildingBlock: TATPOV_clean_sbu_0, # of connection points: 4
#     Node 28, Type 0, BuildingBlock: TATPOV_clean_sbu_0, # of connection points: 4
#     Node 29, Type 0, BuildingBlock: TATPOV_clean_sbu_0, # of connection points: 4
#     Node 30, Type 0, BuildingBlock: TATPOV_clean_sbu_0, # of connection points: 4
#     Node 31, Type 0, BuildingBlock: TATPOV_clean_sbu_0, # of connection points: 4
#     Node 32, Type 0, BuildingBlock: TATPOV_clean_sbu_0, # of connection points: 4
#     Node 33, Type 0, BuildingBlock: TATPOV_clean_sbu_0, # of connection points: 4
#     Node 34, Type 0, BuildingBlock: TATPOV_clean_sbu_0, # of connection points: 4
#     Node 35, Type 0, BuildingBlock: TATPOV_clean_sbu_0, # of connection points: 4
#     Edge 36, Type (0, 0), BuildingBlock: OJICUG_clean_linker_0, # of connection points: 2
#     Edge 37, Type (0, 0), BuildingBlock: OJICUG_clean_linker_0, # of connection points: 2
#     Edge 38, Type (0, 0), BuildingBlock: OJICUG_clean_linker_0, # of connection points: 2
#     Edge 39, Type (0, 0), BuildingBlock: OJICUG_clean_linker_0, # of connection points: 2
#     Edge 40, Type (0, 0), BuildingBlock: OJICUG_clean_linker_0, # of connection points: 2
#     Edge 41, Type (0, 0), BuildingBlock: OJICUG_clean_linker_0, # of connection points: 2
#     Edge 42, Type (0, 0), BuildingBlock: OJICUG_clean_linker_0, # of connection points: 2
#     Edge 43, Type (0, 0), BuildingBlock: OJICUG_clean_linker_0, # of connection points: 2
#     Edge 44, Type (0, 0), BuildingBlock: OJICUG_clean_linker_0, # of connection points: 2
#     Edge 45, Type (0, 0), BuildingBlock: OJICUG_clean_linker_0, # of connection points: 2
#     Edge 46, Type (0, 0), BuildingBlock: OJICUG_clean_linker_0, # of connection points: 2
#     Edge 47, Type (0, 0), BuildingBlock: OJICUG_clean_linker_0, # of connection points: 2
#     Edge 48, Type (0, 0), BuildingBlock: OJICUG_clean_linker_0, # of connection points: 2
#     Edge 49, Type (0, 0), BuildingBlock: OJICUG_clean_linker_0, # of connection points: 2
#     Edge 50, Type (0, 0), BuildingBlock: OJICUG_clean_linker_0, # of connection points: 2
#     Edge 51, Type (0, 0), BuildingBlock: OJICUG_clean_linker_0, # of connection points: 2
#     Edge 52, Type (0, 0), BuildingBlock: OJICUG_clean_linker_0, # of connection points: 2
#     Edge 53, Type (0, 0), BuildingBlock: OJICUG_clean_linker_0, # of connection points: 2
#     Edge 54, Type (0, 0), BuildingBlock: OJICUG_clean_linker_0, # of connection points: 2
#     Edge 55, Type (0, 0), BuildingBlock: OJICUG_clean_linker_0, # of connection points: 2
#     Edge 56, Type (0, 0), BuildingBlock: OJICUG_clean_linker_0, # of connection points: 2
#     Edge 57, Type (0, 0), BuildingBlock: OJICUG_clean_linker_0, # of connection points: 2
#     Edge 58, Type (0, 0), BuildingBlock: OJICUG_clean_linker_0, # of connection points: 2
#     Edge 59, Type (0, 0), BuildingBlock: OJICUG_clean_linker_0, # of connection points: 2
#     Edge 60, Type (0, 0), BuildingBlock: OJICUG_clean_linker_0, # of connection points: 2
#     Edge 61, Type (0, 0), BuildingBlock: OJICUG_clean_linker_0, # of connection points: 2
#     Edge 62, Type (0, 0), BuildingBlock: OJICUG_clean_linker_0, # of connection points: 2
#     Edge 63, Type (0, 0), BuildingBlock: OJICUG_clean_linker_0, # of connection points: 2
#     Edge 64, Type (0, 0), BuildingBlock: OJICUG_clean_linker_0, # of connection points: 2
#     Edge 65, Type (0, 0), BuildingBlock: OJICUG_clean_linker_0, # of connection points: 2
#     Edge 66, Type (0, 0), BuildingBlock: OJICUG_clean_linker_0, # of connection points: 2
#     Edge 67, Type (0, 0), BuildingBlock: OJICUG_clean_linker_0, # of connection points: 2
#     Edge 68, Type (0, 0), BuildingBlock: OJICUG_clean_linker_0, # of connection points: 2
#     Edge 69, Type (0, 0), BuildingBlock: OJICUG_clean_linker_0, # of connection points: 2
#     Edge 70, Type (0, 0), BuildingBlock: OJICUG_clean_linker_0, # of connection points: 2
#     Edge 71, Type (0, 0), BuildingBlock: OJICUG_clean_linker_0, # of connection points: 2
#     Edge 72, Type (0, 0), BuildingBlock: OJICUG_clean_linker_0, # of connection points: 2
#     Edge 73, Type (0, 0), BuildingBlock: OJICUG_clean_linker_0, # of connection points: 2
#     Edge 74, Type (0, 0), BuildingBlock: OJICUG_clean_linker_0, # of connection points: 2
#     Edge 75, Type (0, 0), BuildingBlock: OJICUG_clean_linker_0, # of connection points: 2
#     Edge 76, Type (0, 0), BuildingBlock: OJICUG_clean_linker_0, # of connection points: 2
#     Edge 77, Type (0, 0), BuildingBlock: OJICUG_clean_linker_0, # of connection points: 2
#     Edge 78, Type (0, 0), BuildingBlock: OJICUG_clean_linker_0, # of connection points: 2
#     Edge 79, Type (0, 0), BuildingBlock: OJICUG_clean_linker_0, # of connection points: 2
#     Edge 80, Type (0, 0), BuildingBlock: OJICUG_clean_linker_0, # of connection points: 2
#     Edge 81, Type (0, 0), BuildingBlock: OJICUG_clean_linker_0, # of connection points: 2
#     Edge 82, Type (0, 0), BuildingBlock: OJICUG_clean_linker_0, # of connection points: 2
#     Edge 83, Type (0, 0), BuildingBlock: OJICUG_clean_linker_0, # of connection points: 2
#     Edge 84, Type (0, 0), BuildingBlock: OJICUG_clean_linker_0, # of connection points: 2
#     Edge 85, Type (0, 0), BuildingBlock: OJICUG_clean_linker_0, # of connection points: 2
#     Edge 86, Type (0, 0), BuildingBlock: OJICUG_clean_linker_0, # of connection points: 2
#     Edge 87, Type (0, 0), BuildingBlock: OJICUG_clean_linker_0, # of connection points: 2
#     Edge 88, Type (0, 0), BuildingBlock: OJICUG_clean_linker_0, # of connection points: 2
#     Edge 89, Type (0, 0), BuildingBlock: OJICUG_clean_linker_0, # of connection points: 2
#     Edge 90, Type (0, 0), BuildingBlock: OJICUG_clean_linker_0, # of connection points: 2
#     Edge 91, Type (0, 0), BuildingBlock: OJICUG_clean_linker_0, # of connection points: 2
#     Edge 92, Type (0, 0), BuildingBlock: OJICUG_clean_linker_0, # of connection points: 2
#     Edge 93, Type (0, 0), BuildingBlock: OJICUG_clean_linker_0, # of connection points: 2
#     Edge 94, Type (0, 0), BuildingBlock: OJICUG_clean_linker_0, # of connection points: 2
#     Edge 95, Type (0, 0), BuildingBlock: OJICUG_clean_linker_0, # of connection points: 2
#     Edge 96, Type (0, 0), BuildingBlock: OJICUG_clean_linker_0, # of connection points: 2
#     Edge 97, Type (0, 0), BuildingBlock: OJICUG_clean_linker_0, # of connection points: 2
#     Edge 98, Type (0, 0), BuildingBlock: OJICUG_clean_linker_0, # of connection points: 2
#     Edge 99, Type (0, 0), BuildingBlock: OJICUG_clean_linker_0, # of connection points: 2
#     Edge 100, Type (0, 0), BuildingBlock: OJICUG_clean_linker_0, # of connection points: 2
#     Edge 101, Type (0, 0), BuildingBlock: OJICUG_clean_linker_0, # of connection points: 2
#     Edge 102, Type (0, 0), BuildingBlock: OJICUG_clean_linker_0, # of connection points: 2
#     Edge 103, Type (0, 0), BuildingBlock: OJICUG_clean_linker_0, # of connection points: 2
#     Edge 104, Type (0, 0), BuildingBlock: OJICUG_clean_linker_0, # of connection points: 2
#     Edge 105, Type (0, 0), BuildingBlock: OJICUG_clean_linker_0, # of connection points: 2
#     Edge 106, Type (0, 0), BuildingBlock: OJICUG_clean_linker_0, # of connection points: 2
#     Edge 107, Type (0, 0), BuildingBlock: OJICUG_clean_linker_0, # of connection points: 2
# Relax obj value: 0.147
# Max RMSD: 0.189
# Mean RMSD: 0.189
data_MOF--net-unl--node1-TATPOV_clean_sbu_0--edge1-OJICUG_clean_linker_0
_symmetry_space_group_name_H-M    P1
_symmetry_Int_Tables_number       1
_symmetry_cell_setting            triclinic
loop_
_symmetry_equiv_pos_as_xyz
'x, y, z'
_cell_length_a     47.73596
_cell_length_b     47.738949
_cell_length_c     28.06523
_cell_angle_alpha  89.991954
_cell_angle_beta   90.149564
_cell_angle_gamma 120.09687
loop_
_atom_site_label
_atom_site_type_symbol
_atom_site_fract_x
_atom_site_fract_y
_atom_site_fract_z
_atom_type_partial_charge
Zn0 Zn 0.12898 0.06106 0.09362 0.0
Zn1 Zn 0.18514 0.09664 0.11922 0.0
O2 O 0.15838 0.10573 0.16945 0.0
O3 O 0.10996 0.07972 0.13678 0.0
O4 O 0.23103 0.12088 0.14246 0.0
O5 O 0.12594 0.01959 0.11233 0.0
O6 O 0.17864 0.05023 0.1102 0.0
C7 C 0.12864 0.09823 0.16888 0.0
C8 C 0.16624 0.10557 0.02105 0.0
O9 O 0.18592 0.11822 0.05571 0.0
O10 O 0.14088 0.07828 0.0264 0.0
C11 C 0.24913 0.15144 0.14097 0.0
O12 O 0.23731 0.1693 0.12504 0.0
C13 C 0.15354 0.02211 0.1117 0.0
Zn14 Zn 0.94351 0.06362 0.10298 0.0
Zn15 Zn 0.90342 0.08125 0.12519 0.0
O16 O 0.89515 0.04529 0.17395 0.0
O17 O 0.92607 0.02655 0.14824 0.0
O18 O 0.87576 0.09849 0.14995 0.0
O19 O 0.98246 0.10535 0.12141 0.0
O20 O 0.9483 0.1233 0.1205 0.0
C21 C 0.90495 0.02493 0.17692 0.0
C22 C 0.89915 0.05524 0.02682 0.0
O23 O 0.8851 0.06213 0.05944 0.0
O24 O 0.9259 0.05664 0.03547 0.0
C25 C 0.84579 0.08639 0.14111 0.0
O26 O 0.83098 0.06073 0.11358 0.0
C27 C 0.97734 0.12887 0.12205 0.0
Zn28 Zn 0.90944 0.84507 0.10905 0.0
Zn29 Zn 0.88327 0.78683 0.11926 0.0
O30 O 0.91356 0.80575 0.17797 0.0
O31 O 0.94678 0.85492 0.1523 0.0
O32 O 0.85956 0.73931 0.13282 0.0
O33 O 0.87113 0.84809 0.13174 0.0
O34 O 0.84661 0.79745 0.10927 0.0
C35 C 0.93988 0.83265 0.18221 0.0
C36 C 0.91621 0.81475 0.0273 0.0
O37 O 0.90848 0.79207 0.05737 0.0
O38 O 0.91409 0.83925 0.03887 0.0
C39 C 0.87523 0.72631 0.14894 0.0
O40 O 0.90678 0.74407 0.15404 0.0
C41 C 0.84538 0.82286 0.11919 0.0
Zn42 Zn 0.0346 0.14031 0.38421 0.0
Zn43 Zn 0.07692 0.19908 0.37302 0.0
O44 O 0.08461 0.17449 0.31812 0.0
O45 O 0.04995 0.12319 0.33219 0.0
O46 O 0.10525 0.24579 0.35551 0.0
O47 O -0.00378 0.14549 0.37308 0.0
O48 O 0.03248 0.19636 0.38488 0.0
C49 C 0.07297 0.14465 0.30794 0.0
C50 C 0.08045 0.16871 0.46312 0.0
O51 O 0.09533 0.1926 0.43498 0.0
O52 O 0.05327 0.14486 0.45108 0.0
C53 C 0.13136 0.25597 0.33223 0.0
O54 O 0.14132 0.23568 0.32101 0.0
C55 C 0.00286 0.17417 0.38146 0.0
Zn56 Zn 0.86725 0.90408 0.41062 0.0
Zn57 Zn 0.80718 0.88514 0.39939 0.0
O58 O 0.83066 0.91321 0.33992 0.0
O59 O 0.88242 0.93114 0.35249 0.0
O60 O 0.75995 0.86652 0.38253 0.0
O61 O 0.86133 0.85998 0.40825 0.0
O62 O 0.80952 0.84341 0.41481 0.0
C63 C 0.86015 0.93035 0.32712 0.0
C64 C 0.84118 0.92739 0.48399 0.0
O65 O 0.81587 0.9145 0.45787 0.0
O66 O 0.86527 0.92436 0.47299 0.0
C67 C 0.7504 0.88204 0.35676 0.0
O68 O 0.77138 0.91168 0.34347 0.0
C69 C 0.83262 0.83723 0.41417 0.0
Zn70 Zn 0.05865 0.90301 0.41536 0.0
Zn71 Zn 0.08914 0.87871 0.3923 0.0
O72 O 0.05664 0.86932 0.33657 0.0
O73 O 0.01983 0.87472 0.37551 0.0
O74 O 0.11696 0.86121 0.36785 0.0
O75 O 0.09135 0.94721 0.39216 0.0
O76 O 0.12276 0.92708 0.40631 0.0
C77 C 0.0283 0.86565 0.33876 0.0
C78 C 0.05901 0.86453 0.48889 0.0
O79 O 0.06646 0.85272 0.45363 0.0
O80 O 0.05937 0.89103 0.48377 0.0
C81 C 0.10519 0.83224 0.35331 0.0
O82 O 0.0738 0.81235 0.35606 0.0
C83 C 0.1194 0.95165 0.39966 0.0
Zn84 Zn 0.84453 0.90345 0.91216 0.0
Zn85 Zn 0.79004 0.88485 0.88855 0.0
O86 O 0.81201 0.93433 0.90163 0.0
O87 O 0.86262 0.94891 0.88884 0.0
O88 O 0.74568 0.87365 0.86601 0.0
O89 O 0.84977 0.87116 0.87376 0.0
O90 O 0.80862 0.86864 0.83489 0.0
C91 C 0.84138 0.95673 0.89661 0.0
C92 C 0.80141 0.86984 0.98637 0.0
O93 O 0.78208 0.85907 0.95101 0.0
O94 O 0.82981 0.89334 0.98038 0.0
C95 C 0.72661 0.8468 0.84605 0.0
O96 O 0.73616 0.82562 0.83957 0.0
C97 C 0.83123 0.86181 0.83792 0.0
Zn98 Zn 0.07094 0.933 0.91798 0.0
Zn99 Zn 0.09218 0.89802 0.89342 0.0
O100 O 0.04378 0.86656 0.90819 0.0
O101 O 0.02496 0.89987 0.90271 0.0
O102 O 0.1077 0.86925 0.86783 0.0
O103 O 0.09709 0.96865 0.87177 0.0
O104 O 0.1027 0.9303 0.83787 0.0
C105 C 0.01979 0.87129 0.90673 0.0
C106 C 0.11159 0.92939 0.98858 0.0
O107 O 0.12007 0.91846 0.95354 0.0
O108 O 0.08804 0.93434 0.98405 0.0
C109 C 0.098 0.84066 0.88246 0.0
O110 O 0.07684 0.82873 0.91725 0.0
C111 C 0.106 0.9585 0.83667 0.0
Zn112 Zn 0.06322 0.15872 0.91808 0.0
Zn113 Zn 0.09826 0.21517 0.90449 0.0
O114 O 0.12793 0.19538 0.91443 0.0
O115 O 0.09419 0.14525 0.89418 0.0
O116 O 0.12979 0.26121 0.88767 0.0
O117 O 0.027 0.15365 0.87651 0.0
O118 O 0.0667 0.19845 0.84659 0.0
C119 C 0.12265 0.16704 0.90471 0.0
C120 C 0.06705 0.19536 -0.00124 0.0
O121 O 0.07693 0.21751 0.96735 0.0
O122 O 0.06313 0.16792 0.98784 0.0
C123 C 0.12034 0.28019 0.87259 0.0
O124 O 0.08915 0.2696 0.86913 0.0
C125 C 0.03783 0.17458 0.84378 0.0
Zn126 Zn 0.90904 0.81912 0.60599 0.0
Zn127 Zn 0.88622 0.76441 0.63113 0.0
O128 O 0.93467 0.7816 0.61254 0.0
O129 O 0.95494 0.83352 0.62371 0.0
O130 O 0.871 0.71938 0.65613 0.0
O131 O 0.88164 0.82933 0.64781 0.0
O132 O 0.87597 0.78691 0.6867 0.0
C133 C 0.9593 0.80997 0.6155 0.0
C134 C 0.86745 0.77707 0.53626 0.0
O135 O 0.8573 0.75853 0.57244 0.0
O136 O 0.8937 0.80378 0.53919 0.0
C137 C 0.88317 0.70248 0.64193 0.0
O138 O 0.90569 0.7142 0.60899 0.0
C139 C 0.87213 0.81149 0.68427 0.0
Zn140 Zn 0.12467 0.05699 0.58539 0.0
Zn141 Zn 0.18095 0.09368 0.60373 0.0
O142 O 0.16134 0.1227 0.586 0.0
O143 O 0.11003 0.08865 0.59916 0.0
O144 O 0.22683 0.12491 0.62286 0.0
O145 O 0.11906 0.02377 0.6336 0.0
O146 O 0.16314 0.06461 0.6637 0.0
C147 C 0.13232 0.11704 0.58959 0.0
C148 C 0.16416 0.05637 0.51251 0.0
O149 O 0.18503 0.06905 0.54579 0.0
O150 O 0.13619 0.05256 0.51818 0.0
C151 C 0.24523 0.15102 0.60078 0.0
O152 O 0.23419 0.15863 0.56295 0.0
C153 C 0.13931 0.03581 0.66723 0.0
Zn154 Zn 0.94546 0.10301 0.58628 0.0
Zn155 Zn 0.89771 0.10821 0.6157 0.0
O156 O 0.87584 0.05926 0.59847 0.0
O157 O 0.91904 0.05465 0.58857 0.0
O158 O 0.86299 0.11396 0.64627 0.0
O159 O 0.97572 0.12806 0.63863 0.0
O160 O 0.9323 0.12554 0.66984 0.0
C161 C 0.88857 0.04171 0.59086 0.0
C162 C 0.92993 0.14052 0.52344 0.0
O163 O 0.91017 0.13765 0.55601 0.0
O164 O 0.94639 0.12653 0.52714 0.0
C165 C 0.83655 0.10762 0.6263 0.0
O166 O 0.83012 0.09505 0.58327 0.0
C167 C 0.96211 0.13363 0.67287 0.0
Zn168 Zn 0.81106 0.40022 0.4043 0.0
Zn169 Zn 0.86695 0.43229 0.43011 0.0
O170 O 0.8413 0.442 0.48081 0.0
O171 O 0.79462 0.42333 0.44408 0.0
O172 O 0.91325 0.45633 0.45289 0.0
O173 O 0.80466 0.35822 0.42789 0.0
O174 O 0.85761 0.38458 0.42516 0.0
C175 C 0.81314 0.43881 0.47838 0.0
C176 C 0.84807 0.44127 0.33102 0.0
O177 O 0.86733 0.454 0.36618 0.0
O178 O 0.82311 0.41368 0.33602 0.0
C179 C 0.9243 0.48014 0.48158 0.0
O180 O 0.90517 0.4906 0.49679 0.0
C181 C 0.83094 0.35792 0.42908 0.0
Zn182 Zn 0.59311 0.41098 0.42078 0.0
Zn183 Zn 0.56245 0.43722 0.44877 0.0
O184 O 0.54722 0.39749 0.49335 0.0
O185 O 0.56721 0.37042 0.45765 0.0
O186 O 0.54056 0.46079 0.47324 0.0
O187 O 0.63515 0.44482 0.44803 0.0
O188 O 0.61097 0.47348 0.44936 0.0
C189 C 0.54969 0.37218 0.48982 0.0
C190 C 0.55585 0.41663 0.34642 0.0
O191 O 0.54339 0.42313 0.38169 0.0
O192 O 0.58062 0.41384 0.35267 0.0
C193 C 0.51778 0.44942 0.50355 0.0
O194 O 0.50706 0.42021 0.52068 0.0
C195 C 0.63679 0.47192 0.45261 0.0
Zn196 Zn 0.5898 0.19142 0.36523 0.0
Zn197 Zn 0.55882 0.13683 0.39823 0.0
O198 O 0.59384 0.16117 0.45032 0.0
O199 O 0.62603 0.20585 0.41121 0.0
O200 O 0.53014 0.09222 0.42491 0.0
O201 O 0.55725 0.20439 0.37755 0.0
O202 O 0.52514 0.15197 0.38454 0.0
C203 C 0.62038 0.18811 0.44742 0.0
C204 C 0.59241 0.1476 0.30294 0.0
O205 O 0.58104 0.13002 0.33995 0.0
O206 O 0.59355 0.17465 0.30128 0.0
C207 C 0.54016 0.07592 0.4477 0.0
O208 O 0.57141 0.08817 0.45445 0.0
C209 C 0.52906 0.18038 0.38129 0.0
Zn210 Zn 0.72625 0.45255 0.72128 0.0
Zn211 Zn 0.77475 0.51023 0.7348 0.0
O212 O 0.77843 0.49628 0.66637 0.0
O213 O 0.73609 0.44814 0.65394 0.0
O214 O 0.80569 0.55834 0.73294 0.0
O215 O 0.69172 0.46295 0.73593 0.0
O216 O 0.73329 0.50826 0.76124 0.0
C217 C 0.76223 0.4719 0.63937 0.0
C218 C 0.77486 0.45945 0.79416 0.0
O219 O 0.79099 0.48913 0.78199 0.0
O220 O 0.74759 0.44074 0.7749 0.0
C221 C 0.8309 0.57086 0.70707 0.0
O222 O 0.83941 0.55184 0.68555 0.0
C223 C 0.70276 0.48949 0.75794 0.0
Zn224 Zn 0.49321 0.23391 0.70333 0.0
Zn225 Zn 0.437 0.22616 0.69886 0.0
O226 O 0.46233 0.25644 0.64206 0.0
O227 O 0.51204 0.26568 0.65111 0.0
O228 O 0.39037 0.21342 0.68726 0.0
O229 O 0.48048 0.18828 0.68923 0.0
O230 O 0.43257 0.18057 0.70717 0.0
C231 C 0.49188 0.27061 0.62897 0.0
C232 C 0.47489 0.25697 0.78709 0.0
O233 O 0.45046 0.2515 0.76178 0.0
O234 O 0.49516 0.24943 0.77146 0.0
C235 C 0.38023 0.2241 0.65387 0.0
O236 O 0.4012 0.24709 0.62591 0.0
C237 C 0.4512 0.16909 0.69945 0.0
Zn238 Zn 0.75095 0.2722 0.67322 0.0
Zn239 Zn 0.74882 0.21613 0.67857 0.0
O240 O 0.72368 0.21375 0.6179 0.0
O241 O 0.7273 0.26134 0.6108 0.0
O242 O 0.75385 0.17708 0.67128 0.0
O243 O 0.79944 0.29905 0.67595 0.0
O244 O 0.79638 0.25236 0.68937 0.0
C245 C 0.71688 0.23283 0.59568 0.0
C246 C 0.71326 0.2296 0.75366 0.0
O247 O 0.72031 0.20924 0.73634 0.0
O248 O 0.72416 0.25721 0.73438 0.0
C249 C 0.77144 0.1719 0.69981 0.0
O250 O 0.78341 0.19041 0.73767 0.0
C251 C 0.81323 0.28313 0.68647 0.0
Zn252 Zn 0.50846 0.27782 0.20716 0.0
Zn253 Zn 0.4519 0.25509 0.19424 0.0
O254 O 0.47024 0.30344 0.213 0.0
O255 O 0.52047 0.32318 0.19071 0.0
O256 O 0.4045 0.23804 0.18259 0.0
O257 O 0.51336 0.24997 0.15896 0.0
O258 O 0.46804 0.24505 0.13132 0.0
C259 C 0.49822 0.32791 0.20553 0.0
C260 C 0.47481 0.23732 0.28219 0.0
O261 O 0.45297 0.22732 0.25016 0.0
O262 O 0.5011 0.26351 0.27571 0.0
C263 C 0.38559 0.20757 0.18221 0.0
O264 O 0.39772 0.18853 0.1891 0.0
C265 C 0.49233 0.241 0.12635 0.0
Zn266 Zn 0.76248 0.24888 0.24242 0.0
Zn267 Zn 0.782 0.21098 0.24189 0.0
O268 O 0.73177 0.1822 0.24419 0.0
O269 O 0.71907 0.21696 0.21528 0.0
O270 O 0.79736 0.17918 0.2349 0.0
O271 O 0.79708 0.28143 0.19968 0.0
O272 O 0.80161 0.23916 0.18191 0.0
C273 C 0.71055 0.18829 0.2274 0.0
C274 C 0.79146 0.24995 0.32962 0.0
O275 O 0.80316 0.2364 0.30381 0.0
O276 O 0.76883 0.25373 0.3134 0.0
C277 C 0.78411 0.1573 0.20323 0.0
O278 O 0.75982 0.1553 0.17835 0.0
C279 C 0.80843 0.26812 0.17328 0.0
Zn280 Zn 0.72922 0.47851 0.27344 0.0
Zn281 Zn 0.75397 0.53266 0.24058 0.0
O282 O 0.7898 0.51956 0.24045 0.0
O283 O 0.76013 0.46683 0.24491 0.0
O284 O 0.77675 0.57695 0.21153 0.0
O285 O 0.68654 0.46253 0.24147 0.0
O286 O 0.71307 0.50643 0.1981 0.0
C287 C 0.78741 0.49177 0.23841 0.0
C288 C 0.73697 0.52319 0.34436 0.0
O289 O 0.74104 0.54009 0.30721 0.0
O290 O 0.73604 0.49632 0.34037 0.0
C291 C 0.80598 0.59627 0.2233 0.0
O292 O 0.8201 0.58684 0.25453 0.0
C293 C 0.6874 0.47941 0.20623 0.0
Zn294 Zn 0.54133 0.19304 0.86459 0.0
Zn295 Zn 0.53479 0.14214 0.90878 0.0
O296 O 0.58143 0.16348 0.88151 0.0
O297 O 0.58888 0.21037 0.85635 0.0
O298 O 0.53092 0.10595 0.94976 0.0
O299 O 0.52466 0.20807 0.91812 0.0
O300 O 0.52531 0.16865 0.95781 0.0
C301 C 0.59979 0.19146 0.86381 0.0
C302 C 0.49361 0.13214 0.8224 0.0
O303 O 0.49863 0.11912 0.85847 0.0
O304 O 0.50983 0.1625 0.81642 0.0
C305 C 0.5403 0.08638 0.93748 0.0
O306 O 0.55352 0.08944 0.89539 0.0
C307 C 0.52071 0.19276 0.95654 0.0
Zn308 Zn 0.82992 0.33342 0.90399 0.0
Zn309 Zn 0.88615 0.38402 0.91903 0.0
O310 O 0.85823 0.40469 0.90323 0.0
O311 O 0.81023 0.36158 0.89308 0.0
O312 O 0.92975 0.42182 0.93744 0.0
O313 O 0.82649 0.31234 0.96529 0.0
O314 O 0.87348 0.35578 0.98096 0.0
C315 C 0.82818 0.39208 0.89364 0.0
C316 C 0.87637 0.33873 0.8359 0.0
O317 O 0.89494 0.36524 0.85747 0.0
O318 O 0.84766 0.32066 0.85004 0.0
C319 C 0.94075 0.45061 0.9225 0.0
O320 O 0.92358 0.45675 0.89204 0.0
C321 C 0.84993 0.32824 -0.00672 0.0
Zn322 Zn 0.59521 0.39801 0.96782 0.0
Zn323 Zn 0.55781 0.42151 0.96495 0.0
O324 O 0.52886 0.37402 0.9408 0.0
O325 O 0.56286 0.35567 0.93994 0.0
O326 O 0.5268 0.43805 0.97232 0.0
O327 O 0.60292 0.40168 0.0373 0.0
O328 O 0.5813 0.43275 0.03112 0.0
C329 C 0.53494 0.3514 0.93168 0.0
C330 C 0.61632 0.45315 0.90433 0.0
O331 O 0.58854 0.44957 0.91245 0.0
O332 O 0.62536 0.43551 0.92532 0.0
C333 C 0.53809 0.46757 0.98365 0.0
O334 O 0.56953 0.48623 0.98905 0.0
C335 C 0.59663 0.42209 0.05535 0.0
Zn336 Zn 0.46463 0.73896 0.79336 0.0
Zn337 Zn 0.52707 0.7682 0.78686 0.0
O338 O 0.51837 0.78448 0.85052 0.0
O339 O 0.46519 0.75982 0.85479 0.0
O340 O 0.57489 0.78502 0.78922 0.0
O341 O 0.45775 0.69444 0.79388 0.0
O342 O 0.5092 0.71906 0.77484 0.0
C343 C 0.49271 0.77916 0.87208 0.0
C344 C 0.49205 0.78195 0.71099 0.0
O345 O 0.51945 0.79019 0.72967 0.0
O346 O 0.46616 0.76033 0.73014 0.0
C347 C 0.59503 0.8135 0.80315 0.0
O348 O 0.58454 0.83338 0.81429 0.0
C349 C 0.48219 0.69296 0.78043 0.0
Zn350 Zn 0.2362 0.74645 0.70658 0.0
Zn351 Zn 0.19997 0.76409 0.73798 0.0
O352 O 0.19477 0.72828 0.78529 0.0
O353 O 0.21818 0.70615 0.74516 0.0
O354 O 0.17374 0.78184 0.76624 0.0
O355 O 0.27655 0.78493 0.72959 0.0
O356 O 0.24524 0.8062 0.73204 0.0
C357 C 0.20173 0.70587 0.78054 0.0
C358 C 0.19074 0.74057 0.6373 0.0
O359 O 0.17747 0.74412 0.67428 0.0
O360 O 0.21917 0.74503 0.64018 0.0
C361 C 0.15115 0.76769 0.79648 0.0
O362 O 0.14258 0.73822 0.81049 0.0
C363 C 0.27345 0.80956 0.73364 0.0
Zn364 Zn 0.27872 0.52595 0.74013 0.0
Zn365 Zn 0.23864 0.47034 0.765 0.0
O366 O 0.27058 0.48984 0.82213 0.0
O367 O 0.31149 0.53287 0.7901 0.0
O368 O 0.20515 0.4268 0.78925 0.0
O369 O 0.24862 0.54331 0.74834 0.0
O370 O 0.21168 0.49186 0.74579 0.0
C371 C 0.29957 0.51353 0.82469 0.0
C372 C 0.27231 0.47875 0.67241 0.0
O373 O 0.25804 0.45955 0.70688 0.0
O374 O 0.28099 0.50842 0.67618 0.0
C375 C 0.21425 0.40813 0.80681 0.0
O376 O 0.24533 0.41789 0.80836 0.0
C377 C 0.21927 0.52154 0.74376 0.0
Zn378 Zn 0.44835 0.85537 0.10536 0.0
Zn379 Zn 0.48253 0.90813 0.0716 0.0
O380 O 0.48644 0.87694 0.02395 0.0
O381 O 0.46599 0.8327 0.06715 0.0
O382 O 0.50767 0.95131 0.03956 0.0
O383 O 0.40685 0.8511 0.08399 0.0
O384 O 0.43663 0.90387 0.07877 0.0
C385 C 0.48037 0.84791 0.02989 0.0
C386 C 0.49444 0.89505 0.17222 0.0
O387 O 0.50694 0.91128 0.13438 0.0
O388 O 0.46567 0.87157 0.17103 0.0
C389 C 0.50655 0.97539 0.05648 0.0
O390 O 0.49108 0.97193 0.09667 0.0
C391 C 0.40885 0.87827 0.07857 0.0
Zn392 Zn 0.19577 0.59723 0.01305 0.0
Zn393 Zn 0.13398 0.57129 0.01522 0.0
O394 O 0.14871 0.59786 0.95238 0.0
O395 O 0.20178 0.62046 0.95211 0.0
O396 O 0.08547 0.54397 0.00746 0.0
O397 O 0.19707 0.55646 0.01288 0.0
O398 O 0.14564 0.53535 0.0303 0.0
C399 C 0.17601 0.61621 0.93283 0.0
C400 C 0.17075 0.61811 0.09256 0.0
O401 O 0.1433 0.60184 0.07218 0.0
O402 O 0.19548 0.61834 0.07565 0.0
C403 C 0.06861 0.55111 0.98028 0.0
O404 O 0.08248 0.5793 0.95868 0.0
C405 C 0.17064 0.53238 0.02581 0.0
Zn406 Zn 0.39818 0.58247 0.08039 0.0
Zn407 Zn 0.43326 0.56152 0.05888 0.0
O408 O 0.40459 0.55284 -0.00132 0.0
O409 O 0.3649 0.55708 0.03053 0.0
O410 O 0.46359 0.54581 0.04008 0.0
O411 O 0.43125 0.62884 0.0693 0.0
O412 O 0.46417 0.60979 0.07844 0.0
C413 C 0.37624 0.54914 -0.00419 0.0
C414 C 0.39533 0.53907 0.14945 0.0
O415 O 0.40746 0.53143 0.11497 0.0
O416 O 0.39281 0.56414 0.14635 0.0
C417 C 0.45222 0.51693 0.02536 0.0
O418 O 0.42067 0.49796 0.02237 0.0
C419 C 0.45951 0.63387 0.07682 0.0
Zn420 Zn 0.18626 0.60671 0.53083 0.0
Zn421 Zn 0.12624 0.56623 0.52783 0.0
O422 O 0.13149 0.61238 0.53078 0.0
O423 O 0.18281 0.64539 0.51569 0.0
O424 O 0.07823 0.53796 0.51864 0.0
O425 O 0.19746 0.58627 0.47864 0.0
O426 O 0.145 0.55334 0.47057 0.0
C427 C 0.15478 0.64096 0.52284 0.0
C428 C 0.16275 0.56798 0.61598 0.0
O429 O 0.13694 0.55228 0.59146 0.0
O430 O 0.18647 0.5935 0.59924 0.0
C431 C 0.05853 0.54409 0.5402 0.0
O432 O 0.06977 0.56795 0.57117 0.0
C433 C 0.17396 0.56321 0.45707 0.0
Zn434 Zn 0.39969 0.58886 0.56517 0.0
Zn435 Zn 0.43773 0.56959 0.55032 0.0
O436 O 0.39117 0.52939 0.55558 0.0
O437 O 0.35977 0.54964 0.54237 0.0
O438 O 0.46378 0.54875 0.53451 0.0
O439 O 0.42139 0.62665 0.52208 0.0
O440 O 0.4497 0.60461 0.49782 0.0
C441 C 0.36292 0.52517 0.54857 0.0
C442 C 0.43946 0.59675 0.64603 0.0
O443 O 0.45523 0.59091 0.61501 0.0
O444 O 0.41243 0.59399 0.63502 0.0
C445 C 0.45909 0.52451 0.55931 0.0
O446 O 0.43853 0.51517 0.59492 0.0
C447 C 0.44208 0.62662 0.49415 0.0
Zn448 Zn 0.38482 0.83053 0.57579 0.0
Zn449 Zn 0.42305 0.88574 0.55831 0.0
O450 O 0.45009 0.86525 0.58329 0.0
O451 O 0.41564 0.81424 0.5684 0.0
O452 O 0.45663 0.93113 0.5397 0.0
O453 O 0.35372 0.82419 0.5236 0.0
O454 O 0.39687 0.86687 0.49549 0.0
C455 C 0.4437 0.83592 0.58091 0.0
C456 C 0.38148 0.87099 0.64426 0.0
O457 O 0.3957 0.89135 0.61094 0.0
O458 O 0.37784 0.84296 0.6409 0.0
C459 C 0.4474 0.94884 0.51912 0.0
O460 O 0.41628 0.93723 0.51196 0.0
C461 C 0.368 0.84346 0.48965 0.0
Zn462 Zn 0.24963 0.50924 0.23165 0.0
Zn463 Zn 0.21552 0.45379 0.25418 0.0
O464 O 0.26278 0.46168 0.24727 0.0
O465 O 0.29105 0.51426 0.25535 0.0
O466 O 0.19063 0.40771 0.27648 0.0
O467 O 0.22812 0.52687 0.27168 0.0
O468 O 0.20619 0.47925 0.30622 0.0
C469 C 0.29009 0.48742 0.25285 0.0
C470 C 0.20864 0.47389 0.15607 0.0
O471 O 0.19433 0.45435 0.19024 0.0
O472 O 0.2364 0.49831 0.1629 0.0
C473 C 0.19734 0.38691 0.2603 0.0
O474 O 0.21982 0.39565 0.22756 0.0
C475 C 0.21147 0.50825 0.30504 0.0
Zn476 Zn 0.49159 0.75991 0.27273 0.0
Zn477 Zn 0.54998 0.77612 0.28644 0.0
O478 O 0.54787 0.81884 0.27897 0.0
O479 O 0.49623 0.80286 0.28495 0.0
O480 O 0.59692 0.79359 0.30375 0.0
O481 O 0.47457 0.72747 0.32444 0.0
O482 O 0.5255 0.74405 0.34187 0.0
C483 C 0.52521 0.82556 0.28197 0.0
C484 C 0.51839 0.74173 0.19507 0.0
O485 O 0.54214 0.7507 0.22373 0.0
O486 O 0.49496 0.74582 0.20612 0.0
C487 C 0.61882 0.8199 0.28554 0.0
O488 O 0.61072 0.8343 0.25289 0.0
C489 C 0.49537 0.72597 0.35053 0.0
Zn490 Zn 0.28726 0.77869 0.22083 0.0
Zn491 Zn 0.24965 0.79712 0.23796 0.0
O492 O 0.22167 0.74963 0.21203 0.0
O493 O 0.25505 0.73164 0.22577 0.0
O494 O 0.21717 0.81048 0.25665 0.0
O495 O 0.3171 0.80216 0.27516 0.0
O496 O 0.27459 0.80364 0.30148 0.0
C497 C 0.22719 0.7261 0.21385 0.0
C498 C 0.29442 0.82521 0.15461 0.0
O499 O 0.2793 0.83069 0.1873 0.0
O500 O 0.29675 0.8 0.15677 0.0
C501 C 0.18963 0.79011 0.27353 0.0
O502 O 0.18162 0.75953 0.27671 0.0
C503 C 0.30299 0.80811 0.3083 0.0
C504 C 0.12808 0.96271 0.10866 0.0
C505 C 0.15484 0.99306 0.09756 0.0
H506 H 0.09285 0.91667 0.08061 0.0
C507 C 0.17438 0.99545 0.05862 0.0
H508 H 0.113 0.96006 0.13908 0.0
C509 C 0.16288 0.97032 0.02513 0.0
C510 C 0.13205 0.94301 0.031 0.0
H511 H 0.19541 0.01845 0.04955 0.0
H512 H 0.17538 0.97475 0.99138 0.0
C513 C 0.11652 0.93779 0.07516 0.0
C514 C 0.03632 0.16691 0.11762 0.0
C515 C 0.00475 0.1611 0.10992 0.0
H516 H 0.08301 0.18459 0.08656 0.0
C517 C -0.00011 0.17997 0.07602 0.0
H518 H 0.04092 0.15327 0.14429 0.0
C519 C 0.02429 0.19828 0.04307 0.0
C520 C 0.05335 0.19764 0.04432 0.0
H521 H 0.97591 0.17642 0.06977 0.0
H522 H 0.01828 0.20802 0.01234 0.0
C523 C 0.06056 0.18504 0.08467 0.0
C524 C 0.78731 0.81907 0.02849 0.0
C525 C 0.79503 0.85152 0.03093 0.0
H526 H 0.79705 0.78334 0.05722 0.0
C527 C 0.80818 0.86891 0.07327 0.0
H528 H 0.77692 0.80509 -0.00372 0.0
C529 C 0.81958 0.85644 0.1084 0.0
C530 C 0.81848 0.8268 0.1008 0.0
H531 H 0.81388 0.89387 0.07616 0.0
H532 H 0.83356 0.87213 0.1376 0.0
C533 C 0.79902 0.80665 0.06351 0.0
C534 C 0.9242 0.14432 0.43789 0.0
C535 C 0.93584 0.16075 0.48126 0.0
H536 H 0.93741 0.13704 0.36828 0.0
C537 C 0.96462 0.19082 0.48126 0.0
H538 H 0.90182 0.12125 0.43689 0.0
C539 C 0.98531 0.19987 0.44195 0.0
C540 C 0.97709 0.17857 0.40306 0.0
H541 H 0.9739 0.20413 0.51428 0.0
H542 H 0.0097 0.22012 0.44598 0.0
C543 C 0.94481 0.15331 0.39858 0.0
C544 C 0.80953 0.79195 0.47228 0.0
C545 C 0.82833 0.80614 0.43144 0.0
H546 H 0.80717 0.76925 0.53917 0.0
C547 C 0.85148 0.79764 0.41824 0.0
H548 H 0.79138 0.79792 0.48312 0.0
C549 C 0.86056 0.78132 0.45038 0.0
C550 C 0.84634 0.77318 0.49566 0.0
H551 H 0.86595 0.80784 0.38647 0.0
H552 H 0.88194 0.77968 0.44276 0.0
C553 C 0.81852 0.77536 0.50441 0.0
C554 C 0.1654 0.98828 0.45239 0.0
C555 C 0.14484 0.98446 0.41391 0.0
H556 H 0.18902 0.01605 0.51487 0.0
C557 C 0.14171 0.01098 0.3997 0.0
H558 H 0.16848 0.96832 0.46391 0.0
C559 C 0.15339 0.03819 0.42892 0.0
C560 C 0.16856 0.03925 0.47229 0.0
H561 H 0.1265 0.00892 0.36962 0.0
H562 H 0.14673 0.05629 0.42079 0.0
C563 C 0.17728 0.01572 0.4816 0.0
C564 C 0.89994 0.03816 0.94349 0.0
C565 C 0.88209 0.03954 0.9822 0.0
H566 H 0.90019 0.01085 0.88344 0.0
C567 C 0.84826 0.01949 0.98203 0.0
H568 H 0.92598 0.05392 0.94213 0.0
C569 C 0.83342 0.99462 0.94834 0.0
C570 C 0.85237 0.98972 0.91473 0.0
H571 H 0.83384 0.02033 0.01112 0.0
H572 H 0.80798 0.97696 0.95264 0.0
C573 C 0.88512 0.01352 0.90975 0.0
C574 C 0.95752 0.80717 0.98452 0.0
C575 C 0.93423 0.81692 0.98366 0.0
H576 H 0.00376 0.81689 0.95896 0.0
C577 C 0.93468 0.83671 0.94633 0.0
H578 H 0.95756 0.79172 0.01279 0.0
C579 C 0.96102 0.85104 0.9155 0.0
C580 C 0.98728 0.84589 0.9219 0.0
H581 H 0.91659 0.84405 0.94437 0.0
H582 H 0.96253 0.86906 0.8905 0.0
C583 C 0.98405 0.82165 0.95365 0.0
C584 C 0.16918 0.17434 0.9545 0.0
C585 C 0.14594 0.1568 0.91918 0.0
H586 H 0.1948 0.17137 0.01519 0.0
C587 C 0.13891 0.12516 0.90843 0.0
H588 H 0.17553 0.19895 0.96313 0.0
C589 C 0.14978 0.10931 0.93846 0.0
C590 C 0.16808 0.12506 0.97917 0.0
H591 H 0.12174 0.11131 0.88057 0.0
H592 H 0.14071 0.08371 0.93295 0.0
C593 C 0.18027 0.15849 0.98443 0.0
C594 C 0.01828 0.84764 0.60603 0.0
C595 C 0.99108 0.81725 0.59641 0.0
H596 H 0.06256 0.88653 0.5789 0.0
C597 C 0.99255 0.79865 0.55863 0.0
H598 H 0.01806 0.86229 0.63536 0.0
C599 C 0.01825 0.81261 0.52616 0.0
C600 C 0.04254 0.84516 0.53144 0.0
H601 H 0.97201 0.77504 0.55052 0.0
H602 H 0.01673 0.79943 0.49392 0.0
C603 C 0.04383 0.86152 0.57371 0.0
C604 C 0.07742 0.14515 0.54308 0.0
C605 C 0.09646 0.16555 0.50611 0.0
H606 H 0.07457 0.1147 0.60074 0.0
C607 C 0.12991 0.17695 0.50605 0.0
H608 H 0.05167 0.13652 0.54445 0.0
C609 C 0.1431 0.16419 0.53816 0.0
C610 C 0.1229 0.14005 0.57065 0.0
H611 H 0.14518 0.1929 0.47805 0.0
H612 H 0.16816 0.17059 0.53395 0.0
C613 C 0.0906 0.13271 0.57537 0.0
C614 C 0.84129 0.9969 0.5478 0.0
C615 C 0.86889 0.00738 0.5767 0.0
H616 H 0.81032 0.96247 0.49531 0.0
C617 C 0.88184 0.98694 0.58298 0.0
H618 H 0.83087 0.01225 0.5423 0.0
C619 C 0.87017 0.95863 0.5563 0.0
C620 C 0.84536 0.95024 0.52266 0.0
H621 H 0.90286 0.99423 0.60552 0.0
H622 H 0.88243 0.94478 0.55913 0.0
C623 C 0.82957 0.96842 0.52083 0.0
C624 C 0.8403 0.29486 0.36629 0.0
C625 C 0.80853 0.26898 0.37194 0.0
H626 H 0.87316 0.34487 0.38171 0.0
C627 C 0.78983 0.26967 0.40987 0.0
H628 H 0.85515 0.29482 0.33718 0.0
C629 C 0.80018 0.2982 0.43555 0.0
C630 C 0.82908 0.32634 0.42294 0.0
H631 H 0.76533 0.24986 0.41504 0.0
H632 H 0.78345 0.29944 0.46032 0.0
C633 C 0.85058 0.32365 0.39174 0.0
C634 C 0.6724 0.52398 0.41262 0.0
C635 C 0.66895 0.50093 0.44674 0.0
H636 H 0.69927 0.551 0.35187 0.0
C637 C 0.69625 0.49862 0.45919 0.0
H638 H 0.65197 0.52683 0.40301 0.0
C639 C 0.72338 0.51239 0.42972 0.0
C640 C 0.72314 0.52852 0.388 0.0
H641 H 0.69452 0.4817 0.48639 0.0
H642 H 0.74176 0.50571 0.4351 0.0
C643 C 0.69966 0.53787 0.38313 0.0
C644 C 0.50506 0.21534 0.3885 0.0
C645 C 0.50199 0.18611 0.37229 0.0
H646 H 0.49749 0.25476 0.37209 0.0
C647 C 0.47991 0.16907 0.33554 0.0
H648 H 0.52173 0.22873 0.41716 0.0
C649 C 0.46585 0.18402 0.30968 0.0
C650 C 0.47402 0.21598 0.32061 0.0
H651 H 0.47718 0.14649 0.32242 0.0
H652 H 0.45259 0.17249 0.27736 0.0
C653 C 0.4912 0.23026 0.3627 0.0
C654 C 0.62533 0.46732 0.81895 0.0
C655 C 0.63675 0.47421 0.86598 0.0
H656 H 0.63826 0.46756 0.74589 0.0
C657 C 0.6699 0.49474 0.87459 0.0
H658 H 0.5998 0.45136 0.81171 0.0
C659 C 0.69184 0.5048 0.83693 0.0
C660 C 0.68081 0.49327 0.79064 0.0
H661 H 0.67907 0.50028 0.91077 0.0
H662 H 0.71748 0.51772 0.84517 0.0
C663 C 0.64734 0.47658 0.78135 0.0
C664 C 0.42694 0.12741 0.76186 0.0
C665 C 0.44324 0.13698 0.71804 0.0
H666 H 0.43067 0.11492 0.83378 0.0
C667 C 0.46398 0.12516 0.70576 0.0
H668 H 0.40985 0.135 0.77188 0.0
C669 C 0.47594 0.11361 0.74157 0.0
C670 C 0.46687 0.11388 0.78898 0.0
H671 H 0.47593 0.13098 0.67143 0.0
H672 H 0.49693 0.11132 0.73376 0.0
C673 C 0.43882 0.11562 0.79756 0.0
C674 C 0.87451 0.2992 0.77899 0.0
C675 C 0.88367 0.33161 0.78819 0.0
H676 H 0.84423 0.25743 0.73693 0.0
C677 C 0.88166 0.35016 0.75099 0.0
H678 H 0.87651 0.28455 0.80682 0.0
C679 C 0.86238 0.33453 0.7112 0.0
C680 C 0.84592 0.3005 0.70834 0.0
H681 H 0.88919 0.37542 0.75676 0.0
H682 H 0.8565 0.34851 0.68698 0.0
C683 C 0.85551 0.28354 0.73905 0.0
C684 C 0.50438 0.38393 0.30202 0.0
C685 C 0.53805 0.40494 0.30115 0.0
H686 H 0.46432 0.34236 0.27025 0.0
C687 C 0.55521 0.40714 0.25949 0.0
H688 H 0.49052 0.38204 0.33361 0.0
C689 C 0.54007 0.38481 0.2228 0.0
C690 C 0.50793 0.35949 0.2281 0.0
H691 H 0.5811 0.42362 0.2576 0.0
H692 H 0.55478 0.38472 0.19357 0.0
C693 C 0.48932 0.36116 0.26558 0.0
C694 C 0.65335 0.17117 0.20822 0.0
C695 C 0.67557 0.16502 0.23228 0.0
H696 H 0.60748 0.16875 0.2115 0.0
C697 C 0.66441 0.14241 0.26964 0.0
H698 H 0.66107 0.18785 0.17847 0.0
C699 C 0.63343 0.1312 0.2884 0.0
C700 C 0.6137 0.1428 0.27004 0.0
H701 H 0.68085 0.13679 0.28839 0.0
H702 H 0.62712 0.11754 0.32131 0.0
C703 C 0.62252 0.16004 0.22696 0.0
C704 C 0.82942 0.44543 0.25041 0.0
C705 C 0.84824 0.46124 0.29074 0.0
H706 H 0.79503 0.44387 0.20001 0.0
C707 C 0.85658 0.49353 0.29942 0.0
H708 H 0.82323 0.42079 0.24223 0.0
C709 C 0.84043 0.50688 0.27494 0.0
C710 C 0.81606 0.48789 0.24188 0.0
H711 H 0.87143 0.50654 0.32987 0.0
H712 H 0.84334 0.52969 0.28732 0.0
C713 C 0.81325 0.45867 0.22616 0.0
C714 C 0.64038 0.17785 0.83093 0.0
C715 C 0.63259 0.20111 0.84643 0.0
H716 H 0.67252 0.16867 0.78918 0.0
C717 C 0.65476 0.23402 0.83853 0.0
H718 H 0.62376 0.1523 0.83666 0.0
C719 C 0.68259 0.24339 0.81171 0.0
C720 C 0.68879 0.22002 0.79186 0.0
H721 H 0.64966 0.25254 0.85074 0.0
H722 H 0.69815 0.26888 0.80404 0.0
C723 C 0.6683 0.18725 0.8037 0.0
C724 C 0.83485 0.44432 0.86178 0.0
C725 C 0.8146 0.4123 0.87726 0.0
H726 H 0.8381 0.48469 0.82321 0.0
C727 C 0.78097 0.39811 0.87118 0.0
H728 H 0.86088 0.45596 0.86607 0.0
C729 C 0.76806 0.41444 0.8467 0.0
C730 C 0.78841 0.44539 0.82774 0.0
H731 H 0.76464 0.37368 0.88325 0.0
H732 H 0.74212 0.40211 0.84078 0.0
C733 C 0.82184 0.46078 0.83719 0.0
C734 C 0.48848 0.32269 0.87452 0.0
C735 C 0.51191 0.32224 0.9045 0.0
H736 H 0.45782 0.30173 0.81333 0.0
C737 C 0.51748 0.29604 0.90142 0.0
H738 H 0.48361 0.34252 0.87614 0.0
C739 C 0.50301 0.27301 0.86544 0.0
C740 C 0.48243 0.27549 0.83204 0.0
H741 H 0.53494 0.29465 0.9246 0.0
H742 H 0.50964 0.25447 0.86187 0.0
C743 C 0.47375 0.29936 0.83851 0.0
C744 C 0.43497 0.61008 0.72989 0.0
C745 C 0.45471 0.61306 0.69108 0.0
H746 H 0.42915 0.63302 0.79121 0.0
C747 C 0.48734 0.63772 0.69142 0.0
H748 H 0.40987 0.59086 0.73082 0.0
C749 C 0.49835 0.66228 0.72571 0.0
C750 C 0.47677 0.66212 0.75989 0.0
H751 H 0.50312 0.64034 0.66201 0.0
H752 H 0.52236 0.68314 0.72176 0.0
C753 C 0.44606 0.63429 0.76444 0.0
C754 C 0.33495 0.87738 0.66444 0.0
C755 C 0.36181 0.87537 0.68038 0.0
H756 H 0.28372 0.85736 0.67124 0.0
C757 C 0.36088 0.86279 0.72592 0.0
H758 H 0.33515 0.88707 0.62945 0.0
C759 C 0.33143 0.84567 0.74976 0.0
C760 C 0.30294 0.84129 0.7282 0.0
H761 H 0.38143 0.86125 0.7391 0.0
H762 H 0.33017 0.83158 0.78082 0.0
C763 C 0.30536 0.86022 0.68841 0.0
C764 C 0.1556 0.52101 0.66456 0.0
C765 C 0.16794 0.55449 0.66019 0.0
H766 H 0.16222 0.4838 0.6959 0.0
C767 C 0.19113 0.57553 0.69317 0.0
H768 H 0.13759 0.50426 0.63967 0.0
C769 C 0.20504 0.56386 0.7255 0.0
C770 C 0.19624 0.53101 0.72497 0.0
H771 H 0.20062 0.60141 0.6911 0.0
H772 H 0.22493 0.58111 0.74751 0.0
C773 C 0.16973 0.50929 0.69682 0.0
C774 C 0.35167 0.85525 0.0564 0.0
C775 C 0.37851 0.87903 0.08166 0.0
H776 H 0.3015 0.81945 0.06018 0.0
C777 C 0.37327 0.89322 0.12194 0.0
H778 H 0.35516 0.84408 0.02507 0.0
C779 C 0.3423 0.87908 0.1421 0.0
C780 C 0.31681 0.85072 0.12201 0.0
H781 H 0.39364 0.91157 0.14206 0.0
H782 H 0.33977 0.88693 0.17726 0.0
C783 C 0.32086 0.84116 0.07649 0.0
C784 C 0.1989 0.50116 0.03725 0.0
C785 C 0.17168 0.50437 0.04621 0.0
H786 H 0.23203 0.48778 0.06611 0.0
C787 C 0.15106 0.48687 0.08409 0.0
H788 H 0.21486 0.51375 0.00768 0.0
C789 C 0.16075 0.47147 0.11731 0.0
C790 C 0.19111 0.47371 0.1128 0.0
H791 H 0.12972 0.48858 0.09161 0.0
H792 H 0.14671 0.46193 0.14958 0.0
C793 C 0.2087 0.48613 0.07058 0.0
C794 C 0.49411 0.71971 0.11593 0.0
C795 C 0.51417 0.72101 0.15353 0.0
H796 H 0.46169 0.69102 0.06045 0.0
C797 C 0.52295 0.69702 0.15662 0.0
H798 H 0.48732 0.73814 0.11236 0.0
C799 C 0.50799 0.66971 0.12695 0.0
C800 C 0.48425 0.66631 0.09396 0.0
H801 H 0.5384 0.69747 0.1853 0.0
H802 H 0.5124 0.64989 0.13351 0.0
C803 C 0.47939 0.69266 0.08625 0.0
C804 C 0.13201 0.66749 0.57308 0.0
C805 C 0.15217 0.66961 0.53518 0.0
H806 H 0.1286 0.69047 0.63648 0.0
C807 C 0.17745 0.70028 0.5216 0.0
H808 H 0.11196 0.64427 0.58386 0.0
C809 C 0.18714 0.72669 0.55196 0.0
C810 C 0.17127 0.72259 0.59561 0.0
H811 H 0.19284 0.70277 0.49167 0.0
H812 H 0.20975 0.74872 0.54477 0.0
C813 C 0.14157 0.69409 0.60332 0.0
C814 C 0.27873 0.47828 0.58599 0.0
C815 C 0.28438 0.46933 0.63102 0.0
H816 H 0.30044 0.5024 0.52084 0.0
C817 C 0.31168 0.46594 0.6377 0.0
H818 H 0.25761 0.4807 0.57995 0.0
C819 C 0.33652 0.47872 0.60388 0.0
C820 C 0.3339 0.495 0.56384 0.0
H821 H 0.3164 0.45887 0.67214 0.0
H822 H 0.35954 0.48089 0.61339 0.0
C823 C 0.3034 0.49083 0.55215 0.0
C824 C 0.46851 0.7793 0.63169 0.0
C825 C 0.48925 0.79827 0.66845 0.0
H826 H 0.43902 0.77702 0.57298 0.0
C827 C 0.50113 0.83176 0.6688 0.0
H828 H 0.45925 0.75341 0.63069 0.0
C829 C 0.48906 0.84537 0.63613 0.0
C830 C 0.4652 0.8255 0.60283 0.0
H831 H 0.51707 0.84674 0.69711 0.0
H832 H 0.49603 0.87062 0.64005 0.0
C833 C 0.45692 0.79288 0.59874 0.0
C834 C 0.34945 0.51465 0.26058 0.0
C835 C 0.32081 0.48838 0.24264 0.0
H836 H 0.39757 0.55181 0.24372 0.0
C837 C 0.32254 0.47183 0.20236 0.0
H838 H 0.34884 0.52748 0.29205 0.0
C839 C 0.35073 0.48574 0.17472 0.0
C840 C 0.37696 0.51606 0.18755 0.0
H841 H 0.30085 0.45135 0.18797 0.0
H842 H 0.34989 0.47554 0.13989 0.0
C843 C 0.37743 0.5286 0.23291 0.0
C844 C 0.50777 0.86627 0.28574 0.0
C845 C 0.53059 0.85797 0.27004 0.0
H846 H 0.47877 0.88695 0.26604 0.0
C847 C 0.55031 0.87458 0.23097 0.0
H848 H 0.49268 0.85425 0.31635 0.0
C849 C 0.54239 0.89358 0.20212 0.0
C850 C 0.5147 0.89572 0.21236 0.0
H851 H 0.56833 0.8689 0.21838 0.0
H852 H 0.55446 0.90177 0.16808 0.0
C853 C 0.49988 0.88515 0.25699 0.0
C854 C 0.21056 0.66837 0.20015 0.0
C855 C 0.20422 0.69388 0.19373 0.0
H856 H 0.20432 0.62381 0.17274 0.0
C857 C 0.18024 0.68997 0.16076 0.0
H858 H 0.22847 0.67035 0.22579 0.0
C859 C 0.16594 0.66279 0.13069 0.0
C860 C 0.17567 0.63951 0.1333 0.0
H861 H 0.17476 0.70916 0.15512 0.0
H862 H 0.14991 0.6617 0.10246 0.0
C863 C 0.19665 0.64161 0.16992 0.0
C864 C 0.06815 0.10477 0.24707 0.0
C865 C 0.08737 0.13445 0.27024 0.0
H866 H 0.06625 0.07021 0.19708 0.0
C867 C 0.12066 0.15246 0.26009 0.0
H868 H 0.04246 0.09037 0.25435 0.0
C869 C 0.13458 0.14048 0.22794 0.0
C870 C 0.11519 0.11073 0.20485 0.0
H871 H 0.13606 0.17526 0.278 0.0
H872 H 0.16029 0.1546 0.22075 0.0
C873 C 0.08183 0.0932 0.21443 0.0
C874 C 0.85097 0.96612 0.27178 0.0
C875 C 0.86917 0.95163 0.28518 0.0
H876 H 0.84846 0.00145 0.22746 0.0
C877 C 0.89828 0.96045 0.2615 0.0
H878 H 0.8286 0.95994 0.28987 0.0
C879 C 0.90945 0.98384 0.22582 0.0
C880 C 0.89206 -0.00062 0.21364 0.0
H881 H 0.91276 0.94964 0.27118 0.0
H882 H 0.93222 0.99035 0.20868 0.0
C883 C 0.86252 0.99009 0.23655 0.0
C884 C 0.95091 0.82623 0.26724 0.0
C885 C 0.9625 0.83814 0.22151 0.0
H886 H 0.96307 0.8262 0.34081 0.0
C887 C -0.00395 0.85665 0.21381 0.0
H888 H 0.92513 0.81191 0.27392 0.0
C889 C 0.01773 0.86389 0.2516 0.0
C890 C 0.00607 0.85356 0.29782 0.0
H891 H 0.0055 0.86585 0.17864 0.0
H892 H 0.04347 0.87892 0.24512 0.0
C893 C 0.97255 0.83438 0.30532 0.0
C894 C 0.86322 0.81495 0.77126 0.0
C895 C 0.85791 0.82037 0.72388 0.0
H896 H 0.85914 0.8243 0.8448 0.0
C897 C 0.84095 0.83682 0.71439 0.0
H898 H 0.87628 0.8024 0.77946 0.0
C899 C 0.83052 0.84872 0.75165 0.0
C900 C 0.83763 0.84509 0.79895 0.0
H901 H 0.83637 0.8411 0.67804 0.0
H902 H 0.81836 0.86215 0.74332 0.0
C903 C 0.85353 0.82758 0.80852 0.0
C904 C 0.11963 0.98274 0.70734 0.0
C905 C 0.13433 0.01658 0.71059 0.0
H906 H 0.09993 0.93781 0.74501 0.0
C907 C 0.14207 0.03142 0.75556 0.0
H908 H 0.11362 0.97079 0.67293 0.0
C909 C 0.13354 0.0125 0.79678 0.0
C910 C 0.11801 0.97857 0.79351 0.0
H911 H 0.15333 0.05747 0.75889 0.0
H912 H 0.13859 0.02436 0.83121 0.0
C913 C 0.11195 0.9639 0.74847 0.0
C914 C 0.96559 0.13999 0.76132 0.0
C915 C 0.98078 0.14821 0.71672 0.0
H916 H 0.97207 0.1419 0.83702 0.0
C917 C 0.01457 0.16846 0.7144 0.0
H918 H 0.93959 0.12442 0.76401 0.0
C919 C 0.03305 0.17906 0.75605 0.0
C920 C 0.0181 0.16889 0.8006 0.0
H921 H 0.0268 0.17535 0.68033 0.0
H922 H 0.05917 0.19358 0.75325 0.0
C923 C 0.98416 0.14993 0.80298 0.0
C924 C 0.80952 0.48177 0.58959 0.0
C925 C 0.77594 0.4688 0.59416 0.0
H926 H 0.84778 0.48194 0.54949 0.0
C927 C 0.75523 0.44867 0.55816 0.0
H928 H 0.82596 0.49718 0.61714 0.0
C929 C 0.76766 0.44022 0.51945 0.0
C930 C 0.801 0.45122 0.51646 0.0
H931 H 0.72926 0.43845 0.56086 0.0
H932 H 0.75087 0.42379 0.49304 0.0
C933 C 0.82195 0.47279 0.5512 0.0
C934 C 0.49133 0.31515 0.58265 0.0
C935 C 0.50367 0.29425 0.58986 0.0
H936 H 0.49682 0.357 0.54574 0.0
C937 C 0.53002 0.29827 0.56261 0.0
H938 H 0.47117 0.31263 0.60362 0.0
C939 C 0.54435 0.32319 0.52947 0.0
C940 C 0.53307 0.34506 0.52354 0.0
H941 H 0.53994 0.28243 0.56753 0.0
H942 H 0.56494 0.32586 0.50949 0.0
C943 C 0.50619 0.34067 0.55002 0.0
C944 C 0.64604 0.17696 0.51744 0.0
C945 C 0.64516 0.199 0.48524 0.0
H946 H 0.67026 0.17037 0.57709 0.0
C947 C 0.66913 0.23188 0.48807 0.0
H948 H 0.62808 0.15145 0.51568 0.0
C949 C 0.69304 0.24269 0.5231 0.0
C950 C 0.69382 0.22078 0.55557 0.0
H951 H 0.66916 0.24946 0.4636 0.0
H952 H 0.71075 0.26828 0.52505 0.0
C953 C 0.6704 0.18773 0.55209 0.0
C954 C 0.51908 0.19622 0.04496 0.0
C955 C 0.51135 0.2033 -2e-05 0.0
H956 H 0.51927 0.20302 0.12029 0.0
C957 C 0.49543 0.22133 -0.00312 0.0
H958 H 0.53134 0.18241 0.04836 0.0
C959 C 0.48782 0.2325 0.03816 0.0
C960 C 0.49681 0.2265 0.08294 0.0
H961 H 0.48902 0.22694 0.96255 0.0
H962 H 0.47607 0.2468 0.03498 0.0
C963 C 0.51223 0.20807 0.08602 0.0
C964 C 0.83634 0.28173 0.04605 0.0
C965 C 0.84795 0.31502 0.04106 0.0
H966 H 0.8154 0.24078 0.09254 0.0
C967 C 0.85128 0.33371 0.08143 0.0
H968 H 0.83356 0.26692 0.01515 0.0
C969 C 0.84013 0.31864 0.12556 0.0
C970 C 0.82617 0.28486 0.12983 0.0
H971 H 0.85992 0.35939 0.07815 0.0
H972 H 0.8409 0.33316 0.15574 0.0
C973 C 0.82591 0.2668 0.09025 0.0
C974 C 0.61466 0.41838 0.13656 0.0
C975 C 0.61293 0.43754 0.10018 0.0
H976 H 0.63902 0.41678 0.19936 0.0
C977 C 0.63305 0.47132 0.10222 0.0
H978 H 0.59962 0.39225 0.13528 0.0
C979 C 0.65663 0.48544 0.13797 0.0
C980 C 0.65976 0.46595 0.17267 0.0
H981 H 0.63246 0.48649 0.07397 0.0
H982 H 0.67325 0.51132 0.13723 0.0
C983 C 0.63747 0.43249 0.17293 0.0
C984 C 0.50963 0.84751 0.95582 0.0
C985 C 0.48721 0.83068 0.99218 0.0
H986 H 0.52986 0.8439 0.88933 0.0
C987 C 0.46967 0.79665 0.99114 0.0
H988 H 0.5236 0.87372 0.95598 0.0
C989 C 0.47284 0.77986 0.95298 0.0
C990 C 0.49427 0.79666 0.91581 0.0
H991 H 0.45224 0.78295 0.01865 0.0
H992 H 0.45777 0.75373 0.95174 0.0
C993 C 0.51344 0.83053 0.91807 0.0
C994 C 0.16738 0.67341 0.84958 0.0
C995 C 0.19235 0.68044 0.81696 0.0
H996 H 0.14174 0.64627 0.91149 0.0
C997 C 0.20927 0.66343 0.81999 0.0
H998 H 0.15377 0.68595 0.84774 0.0
C999 C 0.20271 0.64126 0.8565 0.0
C1000 C 0.17857 0.63503 0.89003 0.0
H1001 H 0.22856 0.66819 0.79528 0.0
H1002 H 0.21715 0.62962 0.85933 0.0
C1003 C 0.16027 0.65051 0.88561 0.0
C1004 C 0.3718 0.54415 0.90715 0.0
C1005 C 0.35681 0.53694 0.95192 0.0
H1006 H 0.36519 0.54275 0.83149 0.0
C1007 C 0.32281 0.5198 0.95451 0.0
H1008 H 0.39794 0.55741 0.90426 0.0
C1009 C 0.30407 0.51076 0.91301 0.0
C1010 C 0.31906 0.51951 0.86828 0.0
H1011 H 0.3107 0.5138 0.98871 0.0
H1012 H 0.27794 0.49818 0.91599 0.0
C1013 C 0.35306 0.53589 0.86565 0.0
C1014 C 0.16367 0.51494 0.40806 0.0
C1015 C 0.181 0.54851 0.41622 0.0
H1016 H 0.16029 0.4754 0.36671 0.0
C1017 C 0.20739 0.56836 0.38706 0.0
H1018 H 0.14337 0.49919 0.43052 0.0
C1019 C 0.21667 0.55503 0.35071 0.0
C1020 C 0.2002 0.52141 0.34319 0.0
H1021 H 0.2211 0.59432 0.39263 0.0
H1022 H 0.23737 0.57114 0.32915 0.0
C1023 C 0.1735 0.50137 0.37203 0.0
C1024 C 0.48683 0.66108 0.43687 0.0
C1025 C 0.45677 0.65228 0.45775 0.0
H1026 H 0.52338 0.69236 0.38704 0.0
C1027 C 0.44075 0.66905 0.44478 0.0
H1028 H 0.49981 0.64872 0.44662 0.0
C1029 C 0.45398 0.69355 0.41093 0.0
C1030 C 0.48382 0.7023 0.38971 0.0
H1031 H 0.41759 0.66292 0.46025 0.0
H1032 H 0.44064 0.70554 0.40107 0.0
C1033 C 0.50045 0.68622 0.40334 0.0
C1034 C 0.36941 0.84608 0.40079 0.0
C1035 C 0.35153 0.8374 0.44317 0.0
H1036 H 0.36783 0.84303 0.32464 0.0
C1037 C 0.31751 0.82082 0.44086 0.0
H1038 H 0.39563 0.85878 0.40162 0.0
C1039 C 0.3016 0.81236 0.39688 0.0
C1040 C 0.31947 0.81963 0.35458 0.0
H1041 H 0.30318 0.814 0.47313 0.0
H1042 H 0.27537 0.79909 0.39606 0.0
C1043 C 0.3535 0.8369 0.35686 0.0
C1044 C 0.29662 0.14648 0.16679 0.0
C1045 C 0.28377 0.16624 0.15387 0.0
H1046 H 0.3387 0.14399 0.1857 0.0
C1047 C 0.30456 0.19993 0.15171 0.0
H1048 H 0.2813 0.12042 0.16885 0.0
C1049 C 0.33762 0.21349 0.16151 0.0
C1050 C 0.35052 0.1936 0.17345 0.0
H1051 H 0.29541 0.21582 0.14192 0.0
H1052 H 0.35311 0.23951 0.15908 0.0
C1053 C 0.3296 0.15999 0.17636 0.0
C1054 C 0.78299 0.11186 0.15705 0.0
C1055 C 0.79817 0.13687 0.19081 0.0
H1056 H 0.78602 0.07601 0.11505 0.0
C1057 C 0.82803 0.14358 0.2103 0.0
H1058 H 0.75988 0.10602 0.14154 0.0
C1059 C 0.84307 0.12661 0.19487 0.0
C1060 C 0.82845 0.10236 0.15992 0.0
H1061 H 0.84034 0.16264 0.23644 0.0
H1062 H 0.86647 0.13292 0.20979 0.0
C1063 C 0.79793 0.09465 0.1419 0.0
C1064 C 0.85728 0.64869 0.21066 0.0
C1065 C 0.82387 0.62905 0.20255 0.0
H1066 H 0.8998 0.6947 0.19958 0.0
C1067 C 0.80771 0.64116 0.17493 0.0
H1068 H 0.87046 0.63998 0.23157 0.0
C1069 C 0.82452 0.67259 0.15675 0.0
C1070 C 0.85784 0.69241 0.16551 0.0
H1071 H 0.78198 0.62657 0.16797 0.0
H1072 H 0.8113 0.68145 0.13624 0.0
C1073 C 0.87413 0.68001 0.19215 0.0
C1074 C 0.15508 0.34345 0.31158 0.0
C1075 C 0.18071 0.35352 0.2791 0.0
H1076 H 0.11949 0.30481 0.35395 0.0
C1077 C 0.19053 0.33148 0.26518 0.0
H1078 H 0.14699 0.35987 0.32311 0.0
C1079 C 0.17491 0.29995 0.28314 0.0
C1080 C 0.14902 0.28978 0.31515 0.0
H1081 H 0.21031 0.33854 0.24039 0.0
H1082 H 0.18288 0.28347 0.27142 0.0
C1083 C 0.13935 0.31189 0.32931 0.0
C1084 C 0.66184 0.81977 0.337 0.0
C1085 C 0.65258 0.83538 0.30325 0.0
H1086 H 0.69995 0.82224 0.38052 0.0
C1087 C 0.67566 0.86653 0.28769 0.0
H1088 H 0.64462 0.79579 0.34982 0.0
C1089 C 0.70726 0.88179 0.30557 0.0
C1090 C 0.71657 0.86618 0.33923 0.0
H1091 H 0.66932 0.87932 0.26189 0.0
H1092 H 0.72442 0.90577 0.2927 0.0
C1093 C 0.69353 0.83497 0.3547 0.0
C1094 C 0.17916 0.83397 0.30091 0.0
C1095 C 0.16769 0.80097 0.2923 0.0
H1096 H 0.16858 0.86966 0.32744 0.0
C1097 C 0.13536 0.77833 0.30343 0.0
H1098 H 0.20398 0.85201 0.29293 0.0
C1099 C 0.11497 0.78847 0.32292 0.0
C1100 C 0.12661 0.82142 0.33228 0.0
H1101 H 0.12578 0.75273 0.29712 0.0
H1102 H 0.0902 0.77044 0.33113 0.0
C1103 C 0.1589 0.84406 0.32095 0.0
C1104 C 0.67181 0.80889 0.81197 0.0
C1105 C 0.69355 0.83906 0.83225 0.0
H1106 H 0.62374 0.77724 0.78657 0.0
C1107 C 0.68311 0.86144 0.84046 0.0
H1108 H 0.67912 0.79116 0.805 0.0
C1109 C 0.65134 0.85348 0.82985 0.0
C1110 C 0.62934 0.82297 0.8108 0.0
H1111 H 0.6993 0.88496 0.85585 0.0
H1112 H 0.64389 0.87103 0.83746 0.0
C1113 C 0.64005 0.80094 0.80136 0.0
C1114 C 0.14566 0.81682 0.80165 0.0
C1115 C 0.13622 0.78541 0.81752 0.0
H1116 H 0.14109 0.85875 0.80965 0.0
C1117 C 0.11344 0.77186 0.85446 0.0
H1118 H 0.1631 0.82799 0.77319 0.0
C1119 C 0.10076 0.78966 0.87559 0.0
C1120 C 0.11065 0.82127 0.86006 0.0
H1121 H 0.10571 0.74771 0.86747 0.0
H1122 H 0.08345 0.77876 0.90425 0.0
C1123 C 0.13305 0.83452 0.82265 0.0
C1124 C 0.15689 0.36502 0.82246 0.0
C1125 C 0.19019 0.37573 0.82471 0.0
H1126 H 0.10868 0.32648 0.83594 0.0
C1127 C 0.20032 0.35507 0.84387 0.0
H1128 H 0.1483 0.3804 0.80797 0.0
C1129 C 0.17763 0.32421 0.85994 0.0
C1130 C 0.14431 0.31333 0.85719 0.0
H1131 H 0.22579 0.36261 0.84623 0.0
H1132 H 0.18626 0.3088 0.87416 0.0
C1133 C 0.13417 0.33413 0.83853 0.0
C1134 C 0.84735 0.6569 0.69651 0.0
C1135 C 0.8716 0.66969 0.6615 0.0
H1136 H 0.81582 0.61585 0.73895 0.0
C1137 C 0.88426 0.65056 0.64465 0.0
H1138 H 0.83727 0.67108 0.71056 0.0
C1139 C 0.87204 0.6189 0.66108 0.0
C1140 C 0.8469 0.60567 0.69471 0.0
H1141 H 0.90314 0.65976 0.61796 0.0
H1142 H 0.88167 0.60451 0.6463 0.0
C1143 C 0.83516 0.62525 0.71296 0.0
C1144 C 0.29048 0.16359 0.65764 0.0
C1145 C 0.27924 0.17161 0.61641 0.0
H1146 H 0.33098 0.17406 0.70211 0.0
C1147 C 0.30107 0.19867 0.58959 0.0
H1148 H 0.27426 0.14306 0.67937 0.0
C1149 C 0.33374 0.21655 0.60271 0.0
C1150 C 0.34517 0.20773 0.64295 0.0
H1151 H 0.29315 0.20558 0.55777 0.0
H1152 H 0.35015 0.23671 0.58056 0.0
C1153 C 0.32304 0.18145 0.67078 0.0
C1154 C 0.82371 0.13332 0.6941 0.0
C1155 C 0.81589 0.11887 0.64869 0.0
H1156 H 0.81545 0.16102 0.74625 0.0
C1157 C 0.79011 0.1181 0.62333 0.0
H1158 H 0.8432 0.13399 0.71488 0.0
C1159 C 0.77413 0.1336 0.64142 0.0
C1160 C 0.78362 0.15014 0.68525 0.0
H1161 H 0.78328 0.10693 0.58845 0.0
H1162 H 0.75544 0.13396 0.61991 0.0
C1163 C 0.80773 0.14877 0.7122 0.0
C1164 C 0.01172 0.50105 0.49407 0.0
C1165 C 0.02378 0.52654 0.52727 0.0
H1166 H 0.97094 0.46643 0.45361 0.0
C1167 C 0.00265 0.53613 0.54619 0.0
H1168 H 0.02736 0.49305 0.47882 0.0
C1169 C 0.9703 0.52097 0.53153 0.0
C1170 C 0.95838 0.49582 0.49778 0.0
H1171 H 0.01118 0.55572 0.57178 0.0
H1172 H 0.95473 0.52914 0.54645 0.0
C1173 C 0.97937 0.48582 0.47955 0.0
C1174 C 0.49879 0.51723 0.51085 0.0
C1175 C 0.47501 0.50591 0.54648 0.0
H1176 H 0.53102 0.50833 0.46946 0.0
C1177 C 0.46583 0.47614 0.56862 0.0
H1178 H 0.50642 0.54011 0.49318 0.0
C1179 C 0.4798 0.45778 0.55482 0.0
C1180 C 0.50335 0.46897 0.51885 0.0
H1181 H 0.4475 0.46673 0.59614 0.0
H1182 H 0.47202 0.43479 0.57223 0.0
C1183 C 0.51288 0.499 0.49726 0.0
C1184 C 0.48319 0.03105 0.46025 0.0
C1185 C 0.51661 0.04352 0.46658 0.0
H1186 H 0.43527 0.99162 0.47195 0.0
C1187 C 0.52713 0.02474 0.49103 0.0
H1188 H 0.47421 0.04488 0.44168 0.0
C1189 C 0.5047 0.99408 0.50848 0.0
C1190 C 0.47129 0.98159 0.50186 0.0
H1191 H 0.5527 0.03365 0.49658 0.0
H1192 H 0.51358 0.98013 0.52693 0.0
C1193 C 0.46082 0.00048 0.4777 0.0
C1194 C 0.54075 0.035 0.95424 0.0
C1195 C 0.53456 0.0594 0.9695 0.0
H1196 H 0.53698 0.98935 0.96992 0.0
C1197 C 0.52152 0.05714 0.01515 0.0
H1198 H 0.55093 0.0361 0.91938 0.0
C1199 C 0.51367 0.03046 0.04417 0.0
C1200 C 0.51857 0.00538 0.02815 0.0
H1201 H 0.5167 0.07566 0.02819 0.0
H1202 H 0.50286 0.0291 0.07861 0.0
C1203 C 0.5328 0.00822 0.98326 0.0
C1204 C 0.99051 0.47048 0.9731 0.0
C1205 C 0.97273 0.47685 0.93913 0.0
H1206 H 0.03443 0.48893 0.01318 0.0
C1207 C 0.98598 0.50841 0.92094 0.0
H1208 H 0.98095 0.4465 0.98812 0.0
C1209 C 0.01671 0.53283 0.93541 0.0
C1210 C 0.03483 0.52623 0.96845 0.0
H1211 H 0.97285 0.51419 0.89491 0.0
H1212 H 0.0265 0.55671 0.91993 0.0
C1213 C 0.02117 0.49488 0.98764 0.0
C1214 C 0.52866 0.51282 0.00675 0.0
C1215 C 0.51612 0.48046 -0.00744 0.0
H1216 H 0.51839 0.54973 0.02816 0.0
C1217 C 0.48241 0.46041 0.98808 0.0
H1218 H 0.55452 0.52894 0.01048 0.0
C1219 C 0.46167 0.47235 -0.00177 0.0
C1220 C 0.4742 0.50458 0.01309 0.0
H1221 H 0.47197 0.43536 0.97717 0.0
H1222 H 0.4358 0.45618 -0.00516 0.0
C1223 C 0.50793 0.52475 0.01691 0.0
loop_
_geom_bond_atom_site_label_1
_geom_bond_atom_site_label_2
_geom_bond_distance
_geom_bond_site_symmetry_2
_ccdc_geom_bond_type
Zn0 O3 2.031 . S
Zn0 O5 2.049 . S
Zn0 O10 2.067 . S
Zn1 O2 1.962 . S
Zn1 O4 1.986 . S
Zn1 O6 1.996 . S
Zn1 O9 1.943 . S
O2 Zn1 1.962 . S
O2 C7 1.254 . S
O3 Zn0 2.031 . S
O3 C7 1.269 . S
O4 Zn1 1.986 . S
O4 C11 1.262 . S
O5 Zn0 2.049 . S
O5 C13 1.260 . S
O6 Zn1 1.996 . S
O6 C13 1.257 . S
C7 O2 1.254 . S
C7 O3 1.269 . S
C8 O9 1.249 . S
C8 O10 1.270 . S
O9 Zn1 1.943 . S
O9 C8 1.249 . S
O10 Zn0 2.067 . S
O10 C8 1.270 . S
C11 O4 1.262 . S
C11 O12 1.232 . S
O12 C11 1.232 . S
C13 O5 1.260 . S
C13 O6 1.257 . S
Zn14 O17 2.031 . S
Zn14 O19 2.049 . S
Zn14 O24 2.067 . S
Zn15 O16 1.962 . S
Zn15 O18 1.986 . S
Zn15 O20 1.996 . S
Zn15 O23 1.943 . S
O16 Zn15 1.962 . S
O16 C21 1.254 . S
O17 Zn14 2.031 . S
O17 C21 1.269 . S
O18 Zn15 1.986 . S
O18 C25 1.262 . S
O19 Zn14 2.049 . S
O19 C27 1.260 . S
O20 Zn15 1.996 . S
O20 C27 1.257 . S
C21 O16 1.254 . S
C21 O17 1.269 . S
C22 O23 1.249 . S
C22 O24 1.270 . S
O23 Zn15 1.943 . S
O23 C22 1.249 . S
O24 Zn14 2.067 . S
O24 C22 1.270 . S
C25 O18 1.262 . S
C25 O26 1.232 . S
O26 C25 1.232 . S
C27 O19 1.260 . S
C27 O20 1.257 . S
Zn28 O31 2.031 . S
Zn28 O33 2.049 . S
Zn28 O38 2.067 . S
Zn29 O30 1.962 . S
Zn29 O32 1.986 . S
Zn29 O34 1.996 . S
Zn29 O37 1.943 . S
O30 Zn29 1.962 . S
O30 C35 1.254 . S
O31 Zn28 2.031 . S
O31 C35 1.269 . S
O32 Zn29 1.986 . S
O32 C39 1.262 . S
O33 Zn28 2.049 . S
O33 C41 1.260 . S
O34 Zn29 1.996 . S
O34 C41 1.257 . S
C35 O30 1.254 . S
C35 O31 1.269 . S
C36 O37 1.249 . S
C36 O38 1.270 . S
O37 Zn29 1.943 . S
O37 C36 1.249 . S
O38 Zn28 2.067 . S
O38 C36 1.270 . S
C39 O32 1.262 . S
C39 O40 1.232 . S
O40 C39 1.232 . S
C41 O33 1.260 . S
C41 O34 1.257 . S
Zn42 O45 2.031 . S
Zn42 O47 2.049 . S
Zn42 O52 2.067 . S
Zn43 O44 1.962 . S
Zn43 O46 1.986 . S
Zn43 O48 1.996 . S
Zn43 O51 1.943 . S
O44 Zn43 1.962 . S
O44 C49 1.254 . S
O45 Zn42 2.031 . S
O45 C49 1.269 . S
O46 Zn43 1.986 . S
O46 C53 1.262 . S
O47 Zn42 2.049 . S
O47 C55 1.260 . S
O48 Zn43 1.996 . S
O48 C55 1.257 . S
C49 O44 1.254 . S
C49 O45 1.269 . S
C50 O51 1.249 . S
C50 O52 1.270 . S
O51 Zn43 1.943 . S
O51 C50 1.249 . S
O52 Zn42 2.067 . S
O52 C50 1.270 . S
C53 O46 1.262 . S
C53 O54 1.232 . S
O54 C53 1.232 . S
C55 O47 1.260 . S
C55 O48 1.257 . S
Zn56 O59 2.031 . S
Zn56 O61 2.049 . S
Zn56 O66 2.067 . S
Zn57 O58 1.962 . S
Zn57 O60 1.986 . S
Zn57 O62 1.996 . S
Zn57 O65 1.943 . S
O58 Zn57 1.962 . S
O58 C63 1.254 . S
O59 Zn56 2.031 . S
O59 C63 1.269 . S
O60 Zn57 1.986 . S
O60 C67 1.262 . S
O61 Zn56 2.049 . S
O61 C69 1.260 . S
O62 Zn57 1.996 . S
O62 C69 1.257 . S
C63 O58 1.254 . S
C63 O59 1.269 . S
C64 O65 1.249 . S
C64 O66 1.270 . S
O65 Zn57 1.943 . S
O65 C64 1.249 . S
O66 Zn56 2.067 . S
O66 C64 1.270 . S
C67 O60 1.262 . S
C67 O68 1.232 . S
O68 C67 1.232 . S
C69 O61 1.260 . S
C69 O62 1.257 . S
Zn70 O73 2.031 . S
Zn70 O75 2.049 . S
Zn70 O80 2.067 . S
Zn71 O72 1.962 . S
Zn71 O74 1.986 . S
Zn71 O76 1.996 . S
Zn71 O79 1.943 . S
O72 Zn71 1.962 . S
O72 C77 1.254 . S
O73 Zn70 2.031 . S
O73 C77 1.269 . S
O74 Zn71 1.986 . S
O74 C81 1.262 . S
O75 Zn70 2.049 . S
O75 C83 1.260 . S
O76 Zn71 1.996 . S
O76 C83 1.257 . S
C77 O72 1.254 . S
C77 O73 1.269 . S
C78 O79 1.249 . S
C78 O80 1.270 . S
O79 Zn71 1.943 . S
O79 C78 1.249 . S
O80 Zn70 2.067 . S
O80 C78 1.270 . S
C81 O74 1.262 . S
C81 O82 1.232 . S
O82 C81 1.232 . S
C83 O75 1.260 . S
C83 O76 1.257 . S
Zn84 O87 2.031 . S
Zn84 O89 2.049 . S
Zn84 O94 2.067 . S
Zn85 O86 1.962 . S
Zn85 O88 1.986 . S
Zn85 O90 1.996 . S
Zn85 O93 1.943 . S
O86 Zn85 1.962 . S
O86 C91 1.254 . S
O87 Zn84 2.031 . S
O87 C91 1.269 . S
O88 Zn85 1.986 . S
O88 C95 1.262 . S
O89 Zn84 2.049 . S
O89 C97 1.260 . S
O90 Zn85 1.996 . S
O90 C97 1.257 . S
C91 O86 1.254 . S
C91 O87 1.269 . S
C92 O93 1.249 . S
C92 O94 1.270 . S
O93 Zn85 1.943 . S
O93 C92 1.249 . S
O94 Zn84 2.067 . S
O94 C92 1.270 . S
C95 O88 1.262 . S
C95 O96 1.232 . S
O96 C95 1.232 . S
C97 O89 1.260 . S
C97 O90 1.257 . S
Zn98 O101 2.031 . S
Zn98 O103 2.049 . S
Zn98 O108 2.067 . S
Zn99 O100 1.962 . S
Zn99 O102 1.986 . S
Zn99 O104 1.996 . S
Zn99 O107 1.943 . S
O100 Zn99 1.962 . S
O100 C105 1.254 . S
O101 Zn98 2.031 . S
O101 C105 1.269 . S
O102 Zn99 1.986 . S
O102 C109 1.262 . S
O103 Zn98 2.049 . S
O103 C111 1.260 . S
O104 Zn99 1.996 . S
O104 C111 1.257 . S
C105 O100 1.254 . S
C105 O101 1.269 . S
C106 O107 1.249 . S
C106 O108 1.270 . S
O107 Zn99 1.943 . S
O107 C106 1.249 . S
O108 Zn98 2.067 . S
O108 C106 1.270 . S
C109 O102 1.262 . S
C109 O110 1.232 . S
O110 C109 1.232 . S
C111 O103 1.260 . S
C111 O104 1.257 . S
Zn112 O115 2.031 . S
Zn112 O117 2.049 . S
Zn112 O122 2.067 . S
Zn113 O114 1.962 . S
Zn113 O116 1.986 . S
Zn113 O118 1.996 . S
Zn113 O121 1.943 . S
O114 Zn113 1.962 . S
O114 C119 1.254 . S
O115 Zn112 2.031 . S
O115 C119 1.269 . S
O116 Zn113 1.986 . S
O116 C123 1.262 . S
O117 Zn112 2.049 . S
O117 C125 1.260 . S
O118 Zn113 1.996 . S
O118 C125 1.257 . S
C119 O114 1.254 . S
C119 O115 1.269 . S
C120 O121 1.249 . S
C120 O122 1.270 . S
O121 Zn113 1.943 . S
O121 C120 1.249 . S
O122 Zn112 2.067 . S
O122 C120 1.270 . S
C123 O116 1.262 . S
C123 O124 1.232 . S
O124 C123 1.232 . S
C125 O117 1.260 . S
C125 O118 1.257 . S
Zn126 O129 2.031 . S
Zn126 O131 2.049 . S
Zn126 O136 2.067 . S
Zn127 O128 1.962 . S
Zn127 O130 1.986 . S
Zn127 O132 1.996 . S
Zn127 O135 1.943 . S
O128 Zn127 1.962 . S
O128 C133 1.254 . S
O129 Zn126 2.031 . S
O129 C133 1.269 . S
O130 Zn127 1.986 . S
O130 C137 1.262 . S
O131 Zn126 2.049 . S
O131 C139 1.260 . S
O132 Zn127 1.996 . S
O132 C139 1.257 . S
C133 O128 1.254 . S
C133 O129 1.269 . S
C134 O135 1.249 . S
C134 O136 1.270 . S
O135 Zn127 1.943 . S
O135 C134 1.249 . S
O136 Zn126 2.067 . S
O136 C134 1.270 . S
C137 O130 1.262 . S
C137 O138 1.232 . S
O138 C137 1.232 . S
C139 O131 1.260 . S
C139 O132 1.257 . S
Zn140 O143 2.031 . S
Zn140 O145 2.049 . S
Zn140 O150 2.067 . S
Zn141 O142 1.962 . S
Zn141 O144 1.986 . S
Zn141 O146 1.996 . S
Zn141 O149 1.943 . S
O142 Zn141 1.962 . S
O142 C147 1.254 . S
O143 Zn140 2.031 . S
O143 C147 1.269 . S
O144 Zn141 1.986 . S
O144 C151 1.262 . S
O145 Zn140 2.049 . S
O145 C153 1.260 . S
O146 Zn141 1.996 . S
O146 C153 1.257 . S
C147 O142 1.254 . S
C147 O143 1.269 . S
C148 O149 1.249 . S
C148 O150 1.270 . S
O149 Zn141 1.943 . S
O149 C148 1.249 . S
O150 Zn140 2.067 . S
O150 C148 1.270 . S
C151 O144 1.262 . S
C151 O152 1.232 . S
O152 C151 1.232 . S
C153 O145 1.260 . S
C153 O146 1.257 . S
Zn154 O157 2.031 . S
Zn154 O159 2.049 . S
Zn154 O164 2.067 . S
Zn155 O156 1.962 . S
Zn155 O158 1.986 . S
Zn155 O160 1.996 . S
Zn155 O163 1.943 . S
O156 Zn155 1.962 . S
O156 C161 1.254 . S
O157 Zn154 2.031 . S
O157 C161 1.269 . S
O158 Zn155 1.986 . S
O158 C165 1.262 . S
O159 Zn154 2.049 . S
O159 C167 1.260 . S
O160 Zn155 1.996 . S
O160 C167 1.257 . S
C161 O156 1.254 . S
C161 O157 1.269 . S
C162 O163 1.249 . S
C162 O164 1.270 . S
O163 Zn155 1.943 . S
O163 C162 1.249 . S
O164 Zn154 2.067 . S
O164 C162 1.270 . S
C165 O158 1.262 . S
C165 O166 1.232 . S
O166 C165 1.232 . S
C167 O159 1.260 . S
C167 O160 1.257 . S
Zn168 O171 2.031 . S
Zn168 O173 2.049 . S
Zn168 O178 2.067 . S
Zn169 O170 1.962 . S
Zn169 O172 1.986 . S
Zn169 O174 1.996 . S
Zn169 O177 1.943 . S
O170 Zn169 1.962 . S
O170 C175 1.254 . S
O171 Zn168 2.031 . S
O171 C175 1.269 . S
O172 Zn169 1.986 . S
O172 C179 1.262 . S
O173 Zn168 2.049 . S
O173 C181 1.260 . S
O174 Zn169 1.996 . S
O174 C181 1.257 . S
C175 O170 1.254 . S
C175 O171 1.269 . S
C176 O177 1.249 . S
C176 O178 1.270 . S
O177 Zn169 1.943 . S
O177 C176 1.249 . S
O178 Zn168 2.067 . S
O178 C176 1.270 . S
C179 O172 1.262 . S
C179 O180 1.232 . S
O180 C179 1.232 . S
C181 O173 1.260 . S
C181 O174 1.257 . S
Zn182 O185 2.031 . S
Zn182 O187 2.049 . S
Zn182 O192 2.067 . S
Zn183 O184 1.962 . S
Zn183 O186 1.986 . S
Zn183 O188 1.996 . S
Zn183 O191 1.943 . S
O184 Zn183 1.962 . S
O184 C189 1.254 . S
O185 Zn182 2.031 . S
O185 C189 1.269 . S
O186 Zn183 1.986 . S
O186 C193 1.262 . S
O187 Zn182 2.049 . S
O187 C195 1.260 . S
O188 Zn183 1.996 . S
O188 C195 1.257 . S
C189 O184 1.254 . S
C189 O185 1.269 . S
C190 O191 1.249 . S
C190 O192 1.270 . S
O191 Zn183 1.943 . S
O191 C190 1.249 . S
O192 Zn182 2.067 . S
O192 C190 1.270 . S
C193 O186 1.262 . S
C193 O194 1.232 . S
O194 C193 1.232 . S
C195 O187 1.260 . S
C195 O188 1.257 . S
Zn196 O199 2.031 . S
Zn196 O201 2.049 . S
Zn196 O206 2.067 . S
Zn197 O198 1.962 . S
Zn197 O200 1.986 . S
Zn197 O202 1.996 . S
Zn197 O205 1.943 . S
O198 Zn197 1.962 . S
O198 C203 1.254 . S
O199 Zn196 2.031 . S
O199 C203 1.269 . S
O200 Zn197 1.986 . S
O200 C207 1.262 . S
O201 Zn196 2.049 . S
O201 C209 1.260 . S
O202 Zn197 1.996 . S
O202 C209 1.257 . S
C203 O198 1.254 . S
C203 O199 1.269 . S
C204 O205 1.249 . S
C204 O206 1.270 . S
O205 Zn197 1.943 . S
O205 C204 1.249 . S
O206 Zn196 2.067 . S
O206 C204 1.270 . S
C207 O200 1.262 . S
C207 O208 1.232 . S
O208 C207 1.232 . S
C209 O201 1.260 . S
C209 O202 1.257 . S
Zn210 O213 2.031 . S
Zn210 O215 2.049 . S
Zn210 O220 2.067 . S
Zn211 O212 1.962 . S
Zn211 O214 1.986 . S
Zn211 O216 1.996 . S
Zn211 O219 1.943 . S
O212 Zn211 1.962 . S
O212 C217 1.254 . S
O213 Zn210 2.031 . S
O213 C217 1.269 . S
O214 Zn211 1.986 . S
O214 C221 1.262 . S
O215 Zn210 2.049 . S
O215 C223 1.260 . S
O216 Zn211 1.996 . S
O216 C223 1.257 . S
C217 O212 1.254 . S
C217 O213 1.269 . S
C218 O219 1.249 . S
C218 O220 1.270 . S
O219 Zn211 1.943 . S
O219 C218 1.249 . S
O220 Zn210 2.067 . S
O220 C218 1.270 . S
C221 O214 1.262 . S
C221 O222 1.232 . S
O222 C221 1.232 . S
C223 O215 1.260 . S
C223 O216 1.257 . S
Zn224 O227 2.031 . S
Zn224 O229 2.049 . S
Zn224 O234 2.067 . S
Zn225 O226 1.962 . S
Zn225 O228 1.986 . S
Zn225 O230 1.996 . S
Zn225 O233 1.943 . S
O226 Zn225 1.962 . S
O226 C231 1.254 . S
O227 Zn224 2.031 . S
O227 C231 1.269 . S
O228 Zn225 1.986 . S
O228 C235 1.262 . S
O229 Zn224 2.049 . S
O229 C237 1.260 . S
O230 Zn225 1.996 . S
O230 C237 1.257 . S
C231 O226 1.254 . S
C231 O227 1.269 . S
C232 O233 1.249 . S
C232 O234 1.270 . S
O233 Zn225 1.943 . S
O233 C232 1.249 . S
O234 Zn224 2.067 . S
O234 C232 1.270 . S
C235 O228 1.262 . S
C235 O236 1.232 . S
O236 C235 1.232 . S
C237 O229 1.260 . S
C237 O230 1.257 . S
Zn238 O241 2.031 . S
Zn238 O243 2.049 . S
Zn238 O248 2.067 . S
Zn239 O240 1.962 . S
Zn239 O242 1.986 . S
Zn239 O244 1.996 . S
Zn239 O247 1.943 . S
O240 Zn239 1.962 . S
O240 C245 1.254 . S
O241 Zn238 2.031 . S
O241 C245 1.269 . S
O242 Zn239 1.986 . S
O242 C249 1.262 . S
O243 Zn238 2.049 . S
O243 C251 1.260 . S
O244 Zn239 1.996 . S
O244 C251 1.257 . S
C245 O240 1.254 . S
C245 O241 1.269 . S
C246 O247 1.249 . S
C246 O248 1.270 . S
O247 Zn239 1.943 . S
O247 C246 1.249 . S
O248 Zn238 2.067 . S
O248 C246 1.270 . S
C249 O242 1.262 . S
C249 O250 1.232 . S
O250 C249 1.232 . S
C251 O243 1.260 . S
C251 O244 1.257 . S
Zn252 O255 2.031 . S
Zn252 O257 2.049 . S
Zn252 O262 2.067 . S
Zn253 O254 1.962 . S
Zn253 O256 1.986 . S
Zn253 O258 1.996 . S
Zn253 O261 1.943 . S
O254 Zn253 1.962 . S
O254 C259 1.254 . S
O255 Zn252 2.031 . S
O255 C259 1.269 . S
O256 Zn253 1.986 . S
O256 C263 1.262 . S
O257 Zn252 2.049 . S
O257 C265 1.260 . S
O258 Zn253 1.996 . S
O258 C265 1.257 . S
C259 O254 1.254 . S
C259 O255 1.269 . S
C260 O261 1.249 . S
C260 O262 1.270 . S
O261 Zn253 1.943 . S
O261 C260 1.249 . S
O262 Zn252 2.067 . S
O262 C260 1.270 . S
C263 O256 1.262 . S
C263 O264 1.232 . S
O264 C263 1.232 . S
C265 O257 1.260 . S
C265 O258 1.257 . S
Zn266 O269 2.031 . S
Zn266 O271 2.049 . S
Zn266 O276 2.067 . S
Zn267 O268 1.962 . S
Zn267 O270 1.986 . S
Zn267 O272 1.996 . S
Zn267 O275 1.943 . S
O268 Zn267 1.962 . S
O268 C273 1.254 . S
O269 Zn266 2.031 . S
O269 C273 1.269 . S
O270 Zn267 1.986 . S
O270 C277 1.262 . S
O271 Zn266 2.049 . S
O271 C279 1.260 . S
O272 Zn267 1.996 . S
O272 C279 1.257 . S
C273 O268 1.254 . S
C273 O269 1.269 . S
C274 O275 1.249 . S
C274 O276 1.270 . S
O275 Zn267 1.943 . S
O275 C274 1.249 . S
O276 Zn266 2.067 . S
O276 C274 1.270 . S
C277 O270 1.262 . S
C277 O278 1.232 . S
O278 C277 1.232 . S
C279 O271 1.260 . S
C279 O272 1.257 . S
Zn280 O283 2.031 . S
Zn280 O285 2.049 . S
Zn280 O290 2.067 . S
Zn281 O282 1.962 . S
Zn281 O284 1.986 . S
Zn281 O286 1.996 . S
Zn281 O289 1.943 . S
O282 Zn281 1.962 . S
O282 C287 1.254 . S
O283 Zn280 2.031 . S
O283 C287 1.269 . S
O284 Zn281 1.986 . S
O284 C291 1.262 . S
O285 Zn280 2.049 . S
O285 C293 1.260 . S
O286 Zn281 1.996 . S
O286 C293 1.257 . S
C287 O282 1.254 . S
C287 O283 1.269 . S
C288 O289 1.249 . S
C288 O290 1.270 . S
O289 Zn281 1.943 . S
O289 C288 1.249 . S
O290 Zn280 2.067 . S
O290 C288 1.270 . S
C291 O284 1.262 . S
C291 O292 1.232 . S
O292 C291 1.232 . S
C293 O285 1.260 . S
C293 O286 1.257 . S
Zn294 O297 2.031 . S
Zn294 O299 2.049 1_556 S
Zn294 O304 2.067 . S
Zn295 O296 1.962 . S
Zn295 O298 1.986 . S
Zn295 O300 1.998 . S
Zn295 O303 1.943 . S
O296 Zn295 1.962 . S
O296 C301 1.254 . S
O297 Zn294 2.031 . S
O297 C301 1.269 . S
O298 Zn295 1.986 . S
O298 C305 1.262 . S
O299 Zn294 2.049 1_554 S
O299 C307 1.260 . S
O300 Zn295 1.998 . S
O300 C307 1.255 1_556 S
C301 O296 1.254 . S
C301 O297 1.269 . S
C302 O303 1.249 . S
C302 O304 1.270 . S
O303 Zn295 1.943 . S
O303 C302 1.249 . S
O304 Zn294 2.067 . S
O304 C302 1.270 . S
C305 O298 1.262 . S
C305 O306 1.232 . S
O306 C305 1.232 . S
C307 O299 1.260 . S
C307 O300 1.255 1_554 S
Zn308 O311 2.031 . S
Zn308 O313 2.049 1_556 S
Zn308 O318 2.067 . S
Zn309 O310 1.962 . S
Zn309 O312 1.986 . S
Zn309 O314 1.998 . S
Zn309 O317 1.943 . S
O310 Zn309 1.962 . S
O310 C315 1.254 . S
O311 Zn308 2.031 . S
O311 C315 1.269 . S
O312 Zn309 1.986 . S
O312 C319 1.262 . S
O313 Zn308 2.049 1_554 S
O313 C321 1.260 . S
O314 Zn309 1.998 . S
O314 C321 1.255 1_556 S
C315 O310 1.254 . S
C315 O311 1.269 . S
C316 O317 1.249 . S
C316 O318 1.270 . S
O317 Zn309 1.943 . S
O317 C316 1.249 . S
O318 Zn308 2.067 . S
O318 C316 1.270 . S
C319 O312 1.262 . S
C319 O320 1.232 . S
O320 C319 1.232 . S
C321 O313 1.260 . S
C321 O314 1.255 1_554 S
Zn322 O325 2.031 . S
Zn322 O327 2.049 1_556 S
Zn322 O332 2.067 . S
Zn323 O324 1.962 . S
Zn323 O326 1.986 . S
Zn323 O328 1.999 . S
Zn323 O331 1.943 . S
O324 Zn323 1.962 . S
O324 C329 1.254 . S
O325 Zn322 2.031 . S
O325 C329 1.269 . S
O326 Zn323 1.986 . S
O326 C333 1.262 . S
O327 Zn322 2.049 1_554 S
O327 C335 1.260 . S
O328 Zn323 1.999 . S
O328 C335 1.255 1_556 S
C329 O324 1.254 . S
C329 O325 1.269 . S
C330 O331 1.249 . S
C330 O332 1.270 . S
O331 Zn323 1.943 . S
O331 C330 1.249 . S
O332 Zn322 2.067 . S
O332 C330 1.270 . S
C333 O326 1.262 . S
C333 O334 1.232 . S
O334 C333 1.232 . S
C335 O327 1.260 . S
C335 O328 1.255 1_554 S
Zn336 O339 2.031 . S
Zn336 O341 2.049 . S
Zn336 O346 2.067 . S
Zn337 O338 1.962 . S
Zn337 O340 1.986 . S
Zn337 O342 1.996 . S
Zn337 O345 1.943 . S
O338 Zn337 1.962 . S
O338 C343 1.254 . S
O339 Zn336 2.031 . S
O339 C343 1.269 . S
O340 Zn337 1.986 . S
O340 C347 1.262 . S
O341 Zn336 2.049 . S
O341 C349 1.260 . S
O342 Zn337 1.996 . S
O342 C349 1.257 . S
C343 O338 1.254 . S
C343 O339 1.269 . S
C344 O345 1.249 . S
C344 O346 1.270 . S
O345 Zn337 1.943 . S
O345 C344 1.249 . S
O346 Zn336 2.067 . S
O346 C344 1.270 . S
C347 O340 1.262 . S
C347 O348 1.232 . S
O348 C347 1.232 . S
C349 O341 1.260 . S
C349 O342 1.257 . S
Zn350 O353 2.031 . S
Zn350 O355 2.049 . S
Zn350 O360 2.067 . S
Zn351 O352 1.962 . S
Zn351 O354 1.986 . S
Zn351 O356 1.996 . S
Zn351 O359 1.943 . S
O352 Zn351 1.962 . S
O352 C357 1.254 . S
O353 Zn350 2.031 . S
O353 C357 1.269 . S
O354 Zn351 1.986 . S
O354 C361 1.262 . S
O355 Zn350 2.049 . S
O355 C363 1.260 . S
O356 Zn351 1.996 . S
O356 C363 1.257 . S
C357 O352 1.254 . S
C357 O353 1.269 . S
C358 O359 1.249 . S
C358 O360 1.270 . S
O359 Zn351 1.943 . S
O359 C358 1.249 . S
O360 Zn350 2.067 . S
O360 C358 1.270 . S
C361 O354 1.262 . S
C361 O362 1.232 . S
O362 C361 1.232 . S
C363 O355 1.260 . S
C363 O356 1.257 . S
Zn364 O367 2.031 . S
Zn364 O369 2.049 . S
Zn364 O374 2.067 . S
Zn365 O366 1.962 . S
Zn365 O368 1.986 . S
Zn365 O370 1.996 . S
Zn365 O373 1.943 . S
O366 Zn365 1.962 . S
O366 C371 1.254 . S
O367 Zn364 2.031 . S
O367 C371 1.269 . S
O368 Zn365 1.986 . S
O368 C375 1.262 . S
O369 Zn364 2.049 . S
O369 C377 1.260 . S
O370 Zn365 1.996 . S
O370 C377 1.257 . S
C371 O366 1.254 . S
C371 O367 1.269 . S
C372 O373 1.249 . S
C372 O374 1.270 . S
O373 Zn365 1.943 . S
O373 C372 1.249 . S
O374 Zn364 2.067 . S
O374 C372 1.270 . S
C375 O368 1.262 . S
C375 O376 1.232 . S
O376 C375 1.232 . S
C377 O369 1.260 . S
C377 O370 1.257 . S
Zn378 O381 2.031 . S
Zn378 O383 2.049 . S
Zn378 O388 2.067 . S
Zn379 O380 1.962 1_554 S
Zn379 O382 1.986 . S
Zn379 O384 1.996 . S
Zn379 O387 1.943 . S
O380 Zn379 1.962 1_556 S
O380 C385 1.254 . S
O381 Zn378 2.031 . S
O381 C385 1.269 1_554 S
O382 Zn379 1.986 . S
O382 C389 1.262 . S
O383 Zn378 2.049 . S
O383 C391 1.260 . S
O384 Zn379 1.996 . S
O384 C391 1.257 . S
C385 O380 1.254 . S
C385 O381 1.269 1_556 S
C386 O387 1.249 . S
C386 O388 1.270 . S
O387 Zn379 1.943 . S
O387 C386 1.249 . S
O388 Zn378 2.067 . S
O388 C386 1.270 . S
C389 O382 1.262 . S
C389 O390 1.232 . S
O390 C389 1.232 . S
C391 O383 1.260 . S
C391 O384 1.257 . S
Zn392 O395 2.031 . S
Zn392 O397 2.049 . S
Zn392 O402 2.067 . S
Zn393 O394 1.962 1_554 S
Zn393 O396 1.986 . S
Zn393 O398 1.996 . S
Zn393 O401 1.943 . S
O394 Zn393 1.962 1_556 S
O394 C399 1.254 . S
O395 Zn392 2.031 . S
O395 C399 1.269 1_554 S
O396 Zn393 1.986 . S
O396 C403 1.262 . S
O397 Zn392 2.049 . S
O397 C405 1.260 . S
O398 Zn393 1.996 . S
O398 C405 1.257 . S
C399 O394 1.254 . S
C399 O395 1.269 1_556 S
C400 O401 1.249 . S
C400 O402 1.270 . S
O401 Zn393 1.943 . S
O401 C400 1.249 . S
O402 Zn392 2.067 . S
O402 C400 1.270 . S
C403 O396 1.262 . S
C403 O404 1.232 . S
O404 C403 1.232 . S
C405 O397 1.260 . S
C405 O398 1.257 . S
Zn406 O409 2.031 . S
Zn406 O411 2.049 . S
Zn406 O416 2.067 . S
Zn407 O408 1.962 1_554 S
Zn407 O410 1.986 . S
Zn407 O412 1.996 . S
Zn407 O415 1.943 . S
O408 Zn407 1.962 1_556 S
O408 C413 1.254 . S
O409 Zn406 2.031 . S
O409 C413 1.269 1_554 S
O410 Zn407 1.986 . S
O410 C417 1.262 . S
O411 Zn406 2.049 . S
O411 C419 1.260 . S
O412 Zn407 1.996 . S
O412 C419 1.257 . S
C413 O408 1.254 . S
C413 O409 1.269 1_556 S
C414 O415 1.249 . S
C414 O416 1.270 . S
O415 Zn407 1.943 . S
O415 C414 1.249 . S
O416 Zn406 2.067 . S
O416 C414 1.270 . S
C417 O410 1.262 . S
C417 O418 1.232 . S
O418 C417 1.232 . S
C419 O411 1.260 . S
C419 O412 1.257 . S
Zn420 O423 2.031 . S
Zn420 O425 2.049 . S
Zn420 O430 2.067 . S
Zn421 O422 1.962 . S
Zn421 O424 1.986 . S
Zn421 O426 1.996 . S
Zn421 O429 1.943 . S
O422 Zn421 1.962 . S
O422 C427 1.254 . S
O423 Zn420 2.031 . S
O423 C427 1.269 . S
O424 Zn421 1.986 . S
O424 C431 1.262 . S
O425 Zn420 2.049 . S
O425 C433 1.260 . S
O426 Zn421 1.996 . S
O426 C433 1.257 . S
C427 O422 1.254 . S
C427 O423 1.269 . S
C428 O429 1.249 . S
C428 O430 1.270 . S
O429 Zn421 1.943 . S
O429 C428 1.249 . S
O430 Zn420 2.067 . S
O430 C428 1.270 . S
C431 O424 1.262 . S
C431 O432 1.232 . S
O432 C431 1.232 . S
C433 O425 1.260 . S
C433 O426 1.257 . S
Zn434 O437 2.031 . S
Zn434 O439 2.049 . S
Zn434 O444 2.067 . S
Zn435 O436 1.962 . S
Zn435 O438 1.986 . S
Zn435 O440 1.996 . S
Zn435 O443 1.943 . S
O436 Zn435 1.962 . S
O436 C441 1.254 . S
O437 Zn434 2.031 . S
O437 C441 1.269 . S
O438 Zn435 1.986 . S
O438 C445 1.262 . S
O439 Zn434 2.049 . S
O439 C447 1.260 . S
O440 Zn435 1.996 . S
O440 C447 1.257 . S
C441 O436 1.254 . S
C441 O437 1.269 . S
C442 O443 1.249 . S
C442 O444 1.270 . S
O443 Zn435 1.943 . S
O443 C442 1.249 . S
O444 Zn434 2.067 . S
O444 C442 1.270 . S
C445 O438 1.262 . S
C445 O446 1.232 . S
O446 C445 1.232 . S
C447 O439 1.260 . S
C447 O440 1.257 . S
Zn448 O451 2.031 . S
Zn448 O453 2.049 . S
Zn448 O458 2.067 . S
Zn449 O450 1.962 . S
Zn449 O452 1.986 . S
Zn449 O454 1.996 . S
Zn449 O457 1.943 . S
O450 Zn449 1.962 . S
O450 C455 1.254 . S
O451 Zn448 2.031 . S
O451 C455 1.269 . S
O452 Zn449 1.986 . S
O452 C459 1.262 . S
O453 Zn448 2.049 . S
O453 C461 1.260 . S
O454 Zn449 1.996 . S
O454 C461 1.257 . S
C455 O450 1.254 . S
C455 O451 1.269 . S
C456 O457 1.249 . S
C456 O458 1.270 . S
O457 Zn449 1.943 . S
O457 C456 1.249 . S
O458 Zn448 2.067 . S
O458 C456 1.270 . S
C459 O452 1.262 . S
C459 O460 1.232 . S
O460 C459 1.232 . S
C461 O453 1.260 . S
C461 O454 1.257 . S
Zn462 O465 2.031 . S
Zn462 O467 2.049 . S
Zn462 O472 2.067 . S
Zn463 O464 1.962 . S
Zn463 O466 1.986 . S
Zn463 O468 1.996 . S
Zn463 O471 1.943 . S
O464 Zn463 1.962 . S
O464 C469 1.254 . S
O465 Zn462 2.031 . S
O465 C469 1.269 . S
O466 Zn463 1.986 . S
O466 C473 1.262 . S
O467 Zn462 2.049 . S
O467 C475 1.260 . S
O468 Zn463 1.996 . S
O468 C475 1.257 . S
C469 O464 1.254 . S
C469 O465 1.269 . S
C470 O471 1.249 . S
C470 O472 1.270 . S
O471 Zn463 1.943 . S
O471 C470 1.249 . S
O472 Zn462 2.067 . S
O472 C470 1.270 . S
C473 O466 1.262 . S
C473 O474 1.232 . S
O474 C473 1.232 . S
C475 O467 1.260 . S
C475 O468 1.257 . S
Zn476 O479 2.031 . S
Zn476 O481 2.049 . S
Zn476 O486 2.067 . S
Zn477 O478 1.962 . S
Zn477 O480 1.986 . S
Zn477 O482 1.996 . S
Zn477 O485 1.943 . S
O478 Zn477 1.962 . S
O478 C483 1.254 . S
O479 Zn476 2.031 . S
O479 C483 1.269 . S
O480 Zn477 1.986 . S
O480 C487 1.262 . S
O481 Zn476 2.049 . S
O481 C489 1.260 . S
O482 Zn477 1.996 . S
O482 C489 1.257 . S
C483 O478 1.254 . S
C483 O479 1.269 . S
C484 O485 1.249 . S
C484 O486 1.270 . S
O485 Zn477 1.943 . S
O485 C484 1.249 . S
O486 Zn476 2.067 . S
O486 C484 1.270 . S
C487 O480 1.262 . S
C487 O488 1.232 . S
O488 C487 1.232 . S
C489 O481 1.260 . S
C489 O482 1.257 . S
Zn490 O493 2.031 . S
Zn490 O495 2.049 . S
Zn490 O500 2.067 . S
Zn491 O492 1.962 . S
Zn491 O494 1.986 . S
Zn491 O496 1.996 . S
Zn491 O499 1.943 . S
O492 Zn491 1.962 . S
O492 C497 1.254 . S
O493 Zn490 2.031 . S
O493 C497 1.269 . S
O494 Zn491 1.986 . S
O494 C501 1.262 . S
O495 Zn490 2.049 . S
O495 C503 1.260 . S
O496 Zn491 1.996 . S
O496 C503 1.257 . S
C497 O492 1.254 . S
C497 O493 1.269 . S
C498 O499 1.249 . S
C498 O500 1.270 . S
O499 Zn491 1.943 . S
O499 C498 1.249 . S
O500 Zn490 2.067 . S
O500 C498 1.270 . S
C501 O494 1.262 . S
C501 O502 1.232 . S
O502 C501 1.232 . S
C503 O495 1.260 . S
C503 O496 1.257 . S
C504 C505 1.387 1_565 S
C504 H508 0.950 . S
C504 C513 1.390 . S
C505 C504 1.387 1_545 S
C505 C507 1.387 . S
H506 C513 0.950 . S
C507 C505 1.387 . S
C507 C509 1.390 1_544 S
C507 H511 0.950 . S
H508 C504 0.950 . S
C509 C507 1.390 1_566 S
C509 C510 1.387 . S
C509 H512 0.950 . S
C510 C509 1.387 . S
C510 C513 1.387 1_556 S
H511 C507 0.950 . S
H512 C509 0.950 . S
C513 C504 1.390 . S
C513 H506 0.950 . S
C513 C510 1.387 1_554 S
C514 C515 1.387 . S
C514 H518 0.950 . S
C514 C523 1.390 1_654 S
C515 C514 1.387 . S
C515 C517 1.387 1_655 S
H516 C523 0.950 . S
C517 C515 1.387 1_455 S
C517 C519 1.390 . S
C517 H521 0.950 . S
H518 C514 0.950 . S
C519 C517 1.390 . S
C519 C520 1.387 1_554 S
C519 H522 0.950 . S
C520 C519 1.387 1_556 S
C520 C523 1.387 . S
H521 C517 0.950 . S
H522 C519 0.950 . S
C523 C514 1.390 1_456 S
C523 H516 0.950 . S
C523 C520 1.387 . S
C524 C525 1.387 1_554 S
C524 H528 0.950 1_554 S
C524 C533 1.390 . S
C525 C524 1.387 1_556 S
C525 C527 1.384 1_556 S
H526 C533 0.950 . S
C527 C525 1.384 1_554 S
C527 C529 1.400 . S
C527 H531 0.944 1_554 S
H528 C524 0.950 1_556 S
C529 C527 1.400 . S
C529 C530 1.387 . S
C529 H532 0.950 . S
C530 C529 1.387 . S
C530 C533 1.387 . S
H531 C527 0.944 1_556 S
H532 C529 0.950 . S
C533 C524 1.390 . S
C533 H526 0.950 . S
C533 C530 1.387 . S
C534 C535 1.387 . S
C534 H538 0.950 . S
C534 C543 1.390 . S
C535 C534 1.387 . S
C535 C537 1.387 . S
H536 C543 0.950 . S
C537 C535 1.387 . S
C537 C539 1.390 1_655 S
C537 H541 0.950 . S
H538 C534 0.950 . S
C539 C537 1.390 1_455 S
C539 C540 1.387 . S
C539 H542 0.950 . S
C540 C539 1.387 . S
C540 C543 1.387 1_455 S
H541 C537 0.950 . S
H542 C539 0.950 . S
C543 C534 1.390 . S
C543 H536 0.950 . S
C543 C540 1.387 1_655 S
C544 C545 1.387 . S
C544 H548 0.950 . S
C544 C553 1.390 . S
C545 C544 1.387 . S
C545 C547 1.387 . S
H546 C553 0.950 . S
C547 C545 1.387 . S
C547 C549 1.390 . S
C547 H551 0.950 . S
H548 C544 0.950 . S
C549 C547 1.390 . S
C549 C550 1.387 . S
C549 H552 0.950 . S
C550 C549 1.387 . S
C550 C553 1.387 . S
H551 C547 0.950 . S
H552 C549 0.950 . S
C553 C544 1.390 . S
C553 H546 0.950 . S
C553 C550 1.387 . S
C554 C555 1.387 . S
C554 H558 0.950 . S
C554 C563 1.390 1_565 S
C555 C554 1.387 . S
C555 C557 1.387 . S
H556 C563 0.950 . S
C557 C555 1.387 . S
C557 C559 1.390 1_565 S
C557 H561 0.950 . S
H558 C554 0.950 . S
C559 C557 1.390 1_545 S
C559 C560 1.387 . S
C559 H562 0.950 . S
C560 C559 1.387 . S
C560 C563 1.387 . S
H561 C557 0.950 . S
H562 C559 0.950 . S
C563 C554 1.390 1_545 S
C563 H556 0.950 . S
C563 C560 1.387 . S
C564 C565 1.376 1_556 S
C564 H568 0.948 1_556 S
C564 C573 1.404 1_545 S
C565 C564 1.376 1_554 S
C565 C567 1.387 . S
H566 C573 0.950 . S
C567 C565 1.387 . S
C567 C569 1.390 1_544 S
C567 H571 0.950 . S
H568 C564 0.948 1_554 S
C569 C567 1.390 1_566 S
C569 C570 1.387 . S
C569 H572 0.950 . S
C570 C569 1.387 . S
C570 C573 1.387 . S
H571 C567 0.950 . S
H572 C569 0.950 . S
C573 C564 1.404 1_565 S
C573 H566 0.950 . S
C573 C570 1.387 . S
C574 C575 1.387 1_455 S
C574 H578 0.950 . S
C574 C583 1.390 . S
C575 C574 1.387 1_655 S
C575 C577 1.387 1_554 S
H576 C583 0.950 . S
C577 C575 1.387 1_556 S
C577 C579 1.390 . S
C577 H581 0.950 . S
H578 C574 0.950 . S
C579 C577 1.390 . S
C579 C580 1.387 1_655 S
C579 H582 0.950 . S
C580 C579 1.387 1_455 S
C580 C583 1.387 1_556 S
H581 C577 0.950 . S
H582 C579 0.950 . S
C583 C574 1.390 . S
C583 H576 0.950 . S
C583 C580 1.387 1_554 S
C584 C585 1.387 . S
C584 H588 0.950 . S
C584 C593 1.390 1_556 S
C585 C584 1.387 . S
C585 C587 1.387 . S
H586 C593 0.950 . S
C587 C585 1.387 . S
C587 C589 1.390 . S
C587 H591 0.950 . S
H588 C584 0.950 . S
C589 C587 1.390 . S
C589 C590 1.387 1_556 S
C589 H592 0.950 . S
C590 C589 1.387 1_554 S
C590 C593 1.387 . S
H591 C587 0.950 . S
H592 C589 0.950 . S
C593 C584 1.390 1_554 S
C593 H586 0.950 . S
C593 C590 1.387 . S
C594 C595 1.387 . S
C594 H598 0.950 . S
C594 C603 1.390 1_655 S
C595 C594 1.387 . S
C595 C597 1.387 . S
H596 C603 0.950 . S
C597 C595 1.387 . S
C597 C599 1.390 1_655 S
C597 H601 0.950 . S
H598 C594 0.950 . S
C599 C597 1.390 1_455 S
C599 C600 1.387 . S
C599 H602 0.950 . S
C600 C599 1.387 . S
C600 C603 1.387 . S
H601 C597 0.950 . S
H602 C599 0.950 . S
C603 C594 1.390 1_455 S
C603 H596 0.950 . S
C603 C600 1.387 . S
C604 C605 1.387 . S
C604 H608 0.950 . S
C604 C613 1.390 . S
C605 C604 1.387 . S
C605 C607 1.387 . S
H606 C613 0.950 . S
C607 C605 1.387 . S
C607 C609 1.390 . S
C607 H611 0.950 . S
H608 C604 0.950 . S
C609 C607 1.390 . S
C609 C610 1.387 . S
C609 H612 0.950 . S
C610 C609 1.387 . S
C610 C613 1.387 . S
H611 C607 0.950 . S
H612 C609 0.950 . S
C613 C604 1.390 . S
C613 H606 0.950 . S
C613 C610 1.387 . S
C614 C615 1.387 . S
C614 H618 0.950 . S
C614 C623 1.390 1_545 S
C615 C614 1.387 . S
C615 C617 1.387 . S
H616 C623 0.950 . S
C617 C615 1.387 . S
C617 C619 1.390 1_545 S
C617 H621 0.950 . S
H618 C614 0.950 . S
C619 C617 1.390 1_565 S
C619 C620 1.387 . S
C619 H622 0.950 . S
C620 C619 1.387 . S
C620 C623 1.387 . S
H621 C617 0.950 . S
H622 C619 0.950 . S
C623 C614 1.390 1_565 S
C623 H616 0.950 . S
C623 C620 1.387 . S
C624 C625 1.387 . S
C624 H628 0.950 . S
C624 C633 1.390 . S
C625 C624 1.387 . S
C625 C627 1.387 . S
H626 C633 0.950 . S
C627 C625 1.387 . S
C627 C629 1.390 . S
C627 H631 0.950 . S
H628 C624 0.950 . S
C629 C627 1.390 . S
C629 C630 1.387 . S
C629 H632 0.950 . S
C630 C629 1.387 . S
C630 C633 1.387 . S
H631 C627 0.950 . S
H632 C629 0.950 . S
C633 C624 1.390 . S
C633 H626 0.950 . S
C633 C630 1.387 . S
C634 C635 1.387 . S
C634 H638 0.950 . S
C634 C643 1.390 . S
C635 C634 1.387 . S
C635 C637 1.387 . S
H636 C643 0.950 . S
C637 C635 1.387 . S
C637 C639 1.390 . S
C637 H641 0.950 . S
H638 C634 0.950 . S
C639 C637 1.390 . S
C639 C640 1.387 . S
C639 H642 0.950 . S
C640 C639 1.387 . S
C640 C643 1.387 . S
H641 C637 0.950 . S
H642 C639 0.950 . S
C643 C634 1.390 . S
C643 H636 0.950 . S
C643 C640 1.387 . S
C644 C645 1.387 . S
C644 H648 0.950 . S
C644 C653 1.390 . S
C645 C644 1.387 . S
C645 C647 1.387 . S
H646 C653 0.950 . S
C647 C645 1.387 . S
C647 C649 1.390 . S
C647 H651 0.950 . S
H648 C644 0.950 . S
C649 C647 1.390 . S
C649 C650 1.387 . S
C649 H652 0.950 . S
C650 C649 1.387 . S
C650 C653 1.387 . S
H651 C647 0.950 . S
H652 C649 0.950 . S
C653 C644 1.390 . S
C653 H646 0.950 . S
C653 C650 1.387 . S
C654 C655 1.387 . S
C654 H658 0.950 . S
C654 C663 1.390 . S
C655 C654 1.387 . S
C655 C657 1.387 . S
H656 C663 0.950 . S
C657 C655 1.387 . S
C657 C659 1.390 . S
C657 H661 0.950 . S
H658 C654 0.950 . S
C659 C657 1.390 . S
C659 C660 1.387 . S
C659 H662 0.950 . S
C660 C659 1.387 . S
C660 C663 1.387 . S
H661 C657 0.950 . S
H662 C659 0.950 . S
C663 C654 1.390 . S
C663 H656 0.950 . S
C663 C660 1.387 . S
C664 C665 1.387 . S
C664 H668 0.950 . S
C664 C673 1.390 . S
C665 C664 1.387 . S
C665 C667 1.387 . S
H666 C673 0.950 . S
C667 C665 1.387 . S
C667 C669 1.390 . S
C667 H671 0.950 . S
H668 C664 0.950 . S
C669 C667 1.390 . S
C669 C670 1.387 . S
C669 H672 0.950 . S
C670 C669 1.387 . S
C670 C673 1.387 . S
H671 C667 0.950 . S
H672 C669 0.950 . S
C673 C664 1.390 . S
C673 H666 0.950 . S
C673 C670 1.387 . S
C674 C675 1.387 . S
C674 H678 0.950 . S
C674 C683 1.390 . S
C675 C674 1.387 . S
C675 C677 1.387 . S
H676 C683 0.950 . S
C677 C675 1.387 . S
C677 C679 1.390 . S
C677 H681 0.950 . S
H678 C674 0.950 . S
C679 C677 1.390 . S
C679 C680 1.387 . S
C679 H682 0.950 . S
C680 C679 1.387 . S
C680 C683 1.387 . S
H681 C677 0.950 . S
H682 C679 0.950 . S
C683 C674 1.390 . S
C683 H676 0.950 . S
C683 C680 1.387 . S
C684 C685 1.387 . S
C684 H688 0.950 . S
C684 C693 1.390 . S
C685 C684 1.387 . S
C685 C687 1.387 . S
H686 C693 0.950 . S
C687 C685 1.387 . S
C687 C689 1.390 . S
C687 H691 0.950 . S
H688 C684 0.950 . S
C689 C687 1.390 . S
C689 C690 1.387 . S
C689 H692 0.950 . S
C690 C689 1.387 . S
C690 C693 1.387 . S
H691 C687 0.950 . S
H692 C689 0.950 . S
C693 C684 1.390 . S
C693 H686 0.950 . S
C693 C690 1.387 . S
C694 C695 1.387 . S
C694 H698 0.950 . S
C694 C703 1.390 . S
C695 C694 1.387 . S
C695 C697 1.387 . S
H696 C703 0.950 . S
C697 C695 1.387 . S
C697 C699 1.390 . S
C697 H701 0.950 . S
H698 C694 0.950 . S
C699 C697 1.390 . S
C699 C700 1.387 . S
C699 H702 0.950 . S
C700 C699 1.387 . S
C700 C703 1.387 . S
H701 C697 0.950 . S
H702 C699 0.950 . S
C703 C694 1.390 . S
C703 H696 0.950 . S
C703 C700 1.387 . S
C704 C705 1.387 . S
C704 H708 0.950 . S
C704 C713 1.390 . S
C705 C704 1.387 . S
C705 C707 1.387 . S
H706 C713 0.950 . S
C707 C705 1.387 . S
C707 C709 1.390 . S
C707 H711 0.950 . S
H708 C704 0.950 . S
C709 C707 1.390 . S
C709 C710 1.387 . S
C709 H712 0.950 . S
C710 C709 1.387 . S
C710 C713 1.387 . S
H711 C707 0.950 . S
H712 C709 0.950 . S
C713 C704 1.390 . S
C713 H706 0.950 . S
C713 C710 1.387 . S
C714 C715 1.387 . S
C714 H718 0.950 . S
C714 C723 1.390 . S
C715 C714 1.387 . S
C715 C717 1.387 . S
H716 C723 0.950 . S
C717 C715 1.387 . S
C717 C719 1.390 . S
C717 H721 0.950 . S
H718 C714 0.950 . S
C719 C717 1.390 . S
C719 C720 1.387 . S
C719 H722 0.950 . S
C720 C719 1.387 . S
C720 C723 1.387 . S
H721 C717 0.950 . S
H722 C719 0.950 . S
C723 C714 1.390 . S
C723 H716 0.950 . S
C723 C720 1.387 . S
C724 C725 1.387 . S
C724 H728 0.950 . S
C724 C733 1.390 . S
C725 C724 1.387 . S
C725 C727 1.387 . S
H726 C733 0.950 . S
C727 C725 1.387 . S
C727 C729 1.390 . S
C727 H731 0.950 . S
H728 C724 0.950 . S
C729 C727 1.390 . S
C729 C730 1.387 . S
C729 H732 0.950 . S
C730 C729 1.387 . S
C730 C733 1.387 . S
H731 C727 0.950 . S
H732 C729 0.950 . S
C733 C724 1.390 . S
C733 H726 0.950 . S
C733 C730 1.387 . S
C734 C735 1.387 . S
C734 H738 0.950 . S
C734 C743 1.390 . S
C735 C734 1.387 . S
C735 C737 1.387 . S
H736 C743 0.950 . S
C737 C735 1.387 . S
C737 C739 1.390 . S
C737 H741 0.950 . S
H738 C734 0.950 . S
C739 C737 1.390 . S
C739 C740 1.387 . S
C739 H742 0.950 . S
C740 C739 1.387 . S
C740 C743 1.387 . S
H741 C737 0.950 . S
H742 C739 0.950 . S
C743 C734 1.390 . S
C743 H736 0.950 . S
C743 C740 1.387 . S
C744 C745 1.387 . S
C744 H748 0.950 . S
C744 C753 1.390 . S
C745 C744 1.387 . S
C745 C747 1.387 . S
H746 C753 0.950 . S
C747 C745 1.387 . S
C747 C749 1.390 . S
C747 H751 0.950 . S
H748 C744 0.950 . S
C749 C747 1.390 . S
C749 C750 1.387 . S
C749 H752 0.950 . S
C750 C749 1.387 . S
C750 C753 1.387 . S
H751 C747 0.950 . S
H752 C749 0.950 . S
C753 C744 1.390 . S
C753 H746 0.950 . S
C753 C750 1.387 . S
C754 C755 1.387 . S
C754 H758 0.950 . S
C754 C763 1.390 . S
C755 C754 1.387 . S
C755 C757 1.387 . S
H756 C763 0.950 . S
C757 C755 1.387 . S
C757 C759 1.390 . S
C757 H761 0.950 . S
H758 C754 0.950 . S
C759 C757 1.390 . S
C759 C760 1.387 . S
C759 H762 0.950 . S
C760 C759 1.387 . S
C760 C763 1.387 . S
H761 C757 0.950 . S
H762 C759 0.950 . S
C763 C754 1.390 . S
C763 H756 0.950 . S
C763 C760 1.387 . S
C764 C765 1.387 . S
C764 H768 0.950 . S
C764 C773 1.390 . S
C765 C764 1.387 . S
C765 C767 1.387 . S
H766 C773 0.950 . S
C767 C765 1.387 . S
C767 C769 1.390 . S
C767 H771 0.950 . S
H768 C764 0.950 . S
C769 C767 1.390 . S
C769 C770 1.387 . S
C769 H772 0.950 . S
C770 C769 1.387 . S
C770 C773 1.387 . S
H771 C767 0.950 . S
H772 C769 0.950 . S
C773 C764 1.390 . S
C773 H766 0.950 . S
C773 C770 1.387 . S
C774 C775 1.387 . S
C774 H778 0.950 . S
C774 C783 1.390 . S
C775 C774 1.387 . S
C775 C777 1.387 . S
H776 C783 0.950 . S
C777 C775 1.387 . S
C777 C779 1.390 . S
C777 H781 0.950 . S
H778 C774 0.950 . S
C779 C777 1.390 . S
C779 C780 1.387 . S
C779 H782 0.950 . S
C780 C779 1.387 . S
C780 C783 1.387 . S
H781 C777 0.950 . S
H782 C779 0.950 . S
C783 C774 1.390 . S
C783 H776 0.950 . S
C783 C780 1.387 . S
C784 C785 1.387 . S
C784 H788 0.950 . S
C784 C793 1.390 . S
C785 C784 1.387 . S
C785 C787 1.387 . S
H786 C793 0.950 . S
C787 C785 1.387 . S
C787 C789 1.390 . S
C787 H791 0.950 . S
H788 C784 0.950 . S
C789 C787 1.390 . S
C789 C790 1.387 . S
C789 H792 0.950 . S
C790 C789 1.387 . S
C790 C793 1.387 . S
H791 C787 0.950 . S
H792 C789 0.950 . S
C793 C784 1.390 . S
C793 H786 0.950 . S
C793 C790 1.387 . S
C794 C795 1.387 . S
C794 H798 0.950 . S
C794 C803 1.390 . S
C795 C794 1.387 . S
C795 C797 1.387 . S
H796 C803 0.950 . S
C797 C795 1.387 . S
C797 C799 1.390 . S
C797 H801 0.950 . S
H798 C794 0.950 . S
C799 C797 1.390 . S
C799 C800 1.387 . S
C799 H802 0.950 . S
C800 C799 1.387 . S
C800 C803 1.387 . S
H801 C797 0.950 . S
H802 C799 0.950 . S
C803 C794 1.390 . S
C803 H796 0.950 . S
C803 C800 1.387 . S
C804 C805 1.387 . S
C804 H808 0.950 . S
C804 C813 1.390 . S
C805 C804 1.387 . S
C805 C807 1.387 . S
H806 C813 0.950 . S
C807 C805 1.387 . S
C807 C809 1.390 . S
C807 H811 0.950 . S
H808 C804 0.950 . S
C809 C807 1.390 . S
C809 C810 1.387 . S
C809 H812 0.950 . S
C810 C809 1.387 . S
C810 C813 1.387 . S
H811 C807 0.950 . S
H812 C809 0.950 . S
C813 C804 1.390 . S
C813 H806 0.950 . S
C813 C810 1.387 . S
C814 C815 1.387 . S
C814 H818 0.950 . S
C814 C823 1.390 . S
C815 C814 1.387 . S
C815 C817 1.387 . S
H816 C823 0.950 . S
C817 C815 1.387 . S
C817 C819 1.390 . S
C817 H821 0.950 . S
H818 C814 0.950 . S
C819 C817 1.390 . S
C819 C820 1.387 . S
C819 H822 0.950 . S
C820 C819 1.387 . S
C820 C823 1.387 . S
H821 C817 0.950 . S
H822 C819 0.950 . S
C823 C814 1.390 . S
C823 H816 0.950 . S
C823 C820 1.387 . S
C824 C825 1.387 . S
C824 H828 0.950 . S
C824 C833 1.390 . S
C825 C824 1.387 . S
C825 C827 1.387 . S
H826 C833 0.950 . S
C827 C825 1.387 . S
C827 C829 1.390 . S
C827 H831 0.950 . S
H828 C824 0.950 . S
C829 C827 1.390 . S
C829 C830 1.387 . S
C829 H832 0.950 . S
C830 C829 1.387 . S
C830 C833 1.387 . S
H831 C827 0.950 . S
H832 C829 0.950 . S
C833 C824 1.390 . S
C833 H826 0.950 . S
C833 C830 1.387 . S
C834 C835 1.387 . S
C834 H838 0.950 . S
C834 C843 1.390 . S
C835 C834 1.387 . S
C835 C837 1.387 . S
H836 C843 0.950 . S
C837 C835 1.387 . S
C837 C839 1.390 . S
C837 H841 0.950 . S
H838 C834 0.950 . S
C839 C837 1.390 . S
C839 C840 1.387 . S
C839 H842 0.950 . S
C840 C839 1.387 . S
C840 C843 1.387 . S
H841 C837 0.950 . S
H842 C839 0.950 . S
C843 C834 1.390 . S
C843 H836 0.950 . S
C843 C840 1.387 . S
C844 C845 1.387 . S
C844 H848 0.950 . S
C844 C853 1.390 . S
C845 C844 1.387 . S
C845 C847 1.387 . S
H846 C853 0.950 . S
C847 C845 1.387 . S
C847 C849 1.390 . S
C847 H851 0.950 . S
H848 C844 0.950 . S
C849 C847 1.390 . S
C849 C850 1.387 . S
C849 H852 0.950 . S
C850 C849 1.387 . S
C850 C853 1.387 . S
H851 C847 0.950 . S
H852 C849 0.950 . S
C853 C844 1.390 . S
C853 H846 0.950 . S
C853 C850 1.387 . S
C854 C855 1.387 . S
C854 H858 0.950 . S
C854 C863 1.390 . S
C855 C854 1.387 . S
C855 C857 1.387 . S
H856 C863 0.950 . S
C857 C855 1.387 . S
C857 C859 1.390 . S
C857 H861 0.950 . S
H858 C854 0.950 . S
C859 C857 1.390 . S
C859 C860 1.387 . S
C859 H862 0.950 . S
C860 C859 1.387 . S
C860 C863 1.387 . S
H861 C857 0.950 . S
H862 C859 0.950 . S
C863 C854 1.390 . S
C863 H856 0.950 . S
C863 C860 1.387 . S
C864 C865 1.387 . S
C864 H868 0.950 . S
C864 C873 1.390 . S
C865 C864 1.387 . S
C865 C867 1.387 . S
H866 C873 0.950 . S
C867 C865 1.387 . S
C867 C869 1.390 . S
C867 H871 0.950 . S
H868 C864 0.950 . S
C869 C867 1.390 . S
C869 C870 1.387 . S
C869 H872 0.950 . S
C870 C869 1.387 . S
C870 C873 1.387 . S
H871 C867 0.950 . S
H872 C869 0.950 . S
C873 C864 1.390 . S
C873 H866 0.950 . S
C873 C870 1.387 . S
C874 C875 1.387 . S
C874 H878 0.950 . S
C874 C883 1.390 1_565 S
C875 C874 1.387 . S
C875 C877 1.387 . S
H876 C883 0.950 . S
C877 C875 1.387 . S
C877 C879 1.390 1_565 S
C877 H881 0.950 . S
H878 C874 0.950 . S
C879 C877 1.390 1_545 S
C879 C880 1.387 . S
C879 H882 0.950 . S
C880 C879 1.387 . S
C880 C883 1.387 . S
H881 C877 0.950 . S
H882 C879 0.950 . S
C883 C874 1.390 1_545 S
C883 H876 0.950 . S
C883 C880 1.387 . S
C884 C885 1.387 . S
C884 H888 0.950 . S
C884 C893 1.390 1_655 S
C885 C884 1.387 . S
C885 C887 1.387 . S
H886 C893 0.950 . S
C887 C885 1.387 . S
C887 C889 1.390 1_655 S
C887 H891 0.950 . S
H888 C884 0.950 . S
C889 C887 1.390 1_455 S
C889 C890 1.387 . S
C889 H892 0.950 . S
C890 C889 1.387 . S
C890 C893 1.387 . S
H891 C887 0.950 . S
H892 C889 0.950 . S
C893 C884 1.390 1_455 S
C893 H886 0.950 . S
C893 C890 1.387 . S
C894 C895 1.387 . S
C894 H898 0.950 . S
C894 C903 1.390 . S
C895 C894 1.387 . S
C895 C897 1.387 . S
H896 C903 0.950 . S
C897 C895 1.387 . S
C897 C899 1.390 . S
C897 H901 0.950 . S
H898 C894 0.950 . S
C899 C897 1.390 . S
C899 C900 1.387 . S
C899 H902 0.950 . S
C900 C899 1.387 . S
C900 C903 1.387 . S
H901 C897 0.950 . S
H902 C899 0.950 . S
C903 C894 1.390 . S
C903 H896 0.950 . S
C903 C900 1.387 . S
C904 C905 1.387 . S
C904 H908 0.950 . S
C904 C913 1.390 1_545 S
C905 C904 1.387 . S
C905 C907 1.387 . S
H906 C913 0.950 . S
C907 C905 1.387 . S
C907 C909 1.390 1_545 S
C907 H911 0.950 . S
H908 C904 0.950 . S
C909 C907 1.390 1_565 S
C909 C910 1.387 . S
C909 H912 0.950 . S
C910 C909 1.387 . S
C910 C913 1.387 . S
H911 C907 0.950 . S
H912 C909 0.950 . S
C913 C904 1.390 1_565 S
C913 H906 0.950 . S
C913 C910 1.387 . S
C914 C915 1.387 . S
C914 H918 0.950 . S
C914 C923 1.390 1_655 S
C915 C914 1.387 . S
C915 C917 1.387 . S
H916 C923 0.950 . S
C917 C915 1.387 . S
C917 C919 1.390 1_655 S
C917 H921 0.950 . S
H918 C914 0.950 . S
C919 C917 1.390 1_455 S
C919 C920 1.387 . S
C919 H922 0.950 . S
C920 C919 1.387 . S
C920 C923 1.387 . S
H921 C917 0.950 . S
H922 C919 0.950 . S
C923 C914 1.390 1_455 S
C923 H916 0.950 . S
C923 C920 1.387 . S
C924 C925 1.387 . S
C924 H928 0.950 . S
C924 C933 1.390 . S
C925 C924 1.387 . S
C925 C927 1.387 . S
H926 C933 0.950 . S
C927 C925 1.387 . S
C927 C929 1.390 . S
C927 H931 0.950 . S
H928 C924 0.950 . S
C929 C927 1.390 . S
C929 C930 1.387 . S
C929 H932 0.950 . S
C930 C929 1.387 . S
C930 C933 1.387 . S
H931 C927 0.950 . S
H932 C929 0.950 . S
C933 C924 1.390 . S
C933 H926 0.950 . S
C933 C930 1.387 . S
C934 C935 1.387 . S
C934 H938 0.950 . S
C934 C943 1.390 . S
C935 C934 1.387 . S
C935 C937 1.387 . S
H936 C943 0.950 . S
C937 C935 1.387 . S
C937 C939 1.390 . S
C937 H941 0.950 . S
H938 C934 0.950 . S
C939 C937 1.390 . S
C939 C940 1.387 . S
C939 H942 0.950 . S
C940 C939 1.387 . S
C940 C943 1.387 . S
H941 C937 0.950 . S
H942 C939 0.950 . S
C943 C934 1.390 . S
C943 H936 0.950 . S
C943 C940 1.387 . S
C944 C945 1.387 . S
C944 H948 0.950 . S
C944 C953 1.390 . S
C945 C944 1.387 . S
C945 C947 1.387 . S
H946 C953 0.950 . S
C947 C945 1.387 . S
C947 C949 1.390 . S
C947 H951 0.950 . S
H948 C944 0.950 . S
C949 C947 1.390 . S
C949 C950 1.387 . S
C949 H952 0.950 . S
C950 C949 1.387 . S
C950 C953 1.387 . S
H951 C947 0.950 . S
H952 C949 0.950 . S
C953 C944 1.390 . S
C953 H946 0.950 . S
C953 C950 1.387 . S
C954 C955 1.387 . S
C954 H958 0.950 . S
C954 C963 1.390 . S
C955 C954 1.387 . S
C955 C957 1.387 . S
H956 C963 0.950 . S
C957 C955 1.387 . S
C957 C959 1.390 . S
C957 H961 0.950 . S
H958 C954 0.950 . S
C959 C957 1.390 . S
C959 C960 1.387 . S
C959 H962 0.950 . S
C960 C959 1.387 . S
C960 C963 1.387 . S
H961 C957 0.950 . S
H962 C959 0.950 . S
C963 C954 1.390 . S
C963 H956 0.950 . S
C963 C960 1.387 . S
C964 C965 1.387 . S
C964 H968 0.950 . S
C964 C973 1.390 . S
C965 C964 1.387 . S
C965 C967 1.387 . S
H966 C973 0.950 . S
C967 C965 1.387 . S
C967 C969 1.390 . S
C967 H971 0.950 . S
H968 C964 0.950 . S
C969 C967 1.390 . S
C969 C970 1.387 . S
C969 H972 0.950 . S
C970 C969 1.387 . S
C970 C973 1.387 . S
H971 C967 0.950 . S
H972 C969 0.950 . S
C973 C964 1.390 . S
C973 H966 0.950 . S
C973 C970 1.387 . S
C974 C975 1.387 . S
C974 H978 0.950 . S
C974 C983 1.390 . S
C975 C974 1.387 . S
C975 C977 1.387 . S
H976 C983 0.950 . S
C977 C975 1.387 . S
C977 C979 1.390 . S
C977 H981 0.950 . S
H978 C974 0.950 . S
C979 C977 1.390 . S
C979 C980 1.387 . S
C979 H982 0.950 . S
C980 C979 1.387 . S
C980 C983 1.387 . S
H981 C977 0.950 . S
H982 C979 0.950 . S
C983 C974 1.390 . S
C983 H976 0.950 . S
C983 C980 1.387 . S
C984 C985 1.387 . S
C984 H988 0.950 . S
C984 C993 1.390 . S
C985 C984 1.387 . S
C985 C987 1.387 . S
H986 C993 0.950 . S
C987 C985 1.387 . S
C987 C989 1.390 . S
C987 H991 0.950 . S
H988 C984 0.950 . S
C989 C987 1.390 . S
C989 C990 1.387 . S
C989 H992 0.950 . S
C990 C989 1.387 . S
C990 C993 1.387 . S
H991 C987 0.950 . S
H992 C989 0.950 . S
C993 C984 1.390 . S
C993 H986 0.950 . S
C993 C990 1.387 . S
C994 C995 1.387 . S
C994 H998 0.950 . S
C994 C1003 1.390 . S
C995 C994 1.387 . S
C995 C997 1.387 . S
H996 C1003 0.950 . S
C997 C995 1.387 . S
C997 C999 1.390 . S
C997 H1001 0.950 . S
H998 C994 0.950 . S
C999 C997 1.390 . S
C999 C1000 1.387 . S
C999 H1002 0.950 . S
C1000 C999 1.387 . S
C1000 C1003 1.387 . S
H1001 C997 0.950 . S
H1002 C999 0.950 . S
C1003 C994 1.390 . S
C1003 H996 0.950 . S
C1003 C1000 1.387 . S
C1004 C1005 1.387 . S
C1004 H1008 0.950 . S
C1004 C1013 1.390 . S
C1005 C1004 1.387 . S
C1005 C1007 1.387 . S
H1006 C1013 0.950 . S
C1007 C1005 1.387 . S
C1007 C1009 1.390 . S
C1007 H1011 0.950 . S
H1008 C1004 0.950 . S
C1009 C1007 1.390 . S
C1009 C1010 1.387 . S
C1009 H1012 0.950 . S
C1010 C1009 1.387 . S
C1010 C1013 1.387 . S
H1011 C1007 0.950 . S
H1012 C1009 0.950 . S
C1013 C1004 1.390 . S
C1013 H1006 0.950 . S
C1013 C1010 1.387 . S
C1014 C1015 1.387 . S
C1014 H1018 0.950 . S
C1014 C1023 1.390 . S
C1015 C1014 1.387 . S
C1015 C1017 1.387 . S
H1016 C1023 0.950 . S
C1017 C1015 1.387 . S
C1017 C1019 1.390 . S
C1017 H1021 0.950 . S
H1018 C1014 0.950 . S
C1019 C1017 1.390 . S
C1019 C1020 1.387 . S
C1019 H1022 0.950 . S
C1020 C1019 1.387 . S
C1020 C1023 1.387 . S
H1021 C1017 0.950 . S
H1022 C1019 0.950 . S
C1023 C1014 1.390 . S
C1023 H1016 0.950 . S
C1023 C1020 1.387 . S
C1024 C1025 1.387 . S
C1024 H1028 0.950 . S
C1024 C1033 1.390 . S
C1025 C1024 1.387 . S
C1025 C1027 1.387 . S
H1026 C1033 0.950 . S
C1027 C1025 1.387 . S
C1027 C1029 1.390 . S
C1027 H1031 0.950 . S
H1028 C1024 0.950 . S
C1029 C1027 1.390 . S
C1029 C1030 1.387 . S
C1029 H1032 0.950 . S
C1030 C1029 1.387 . S
C1030 C1033 1.387 . S
H1031 C1027 0.950 . S
H1032 C1029 0.950 . S
C1033 C1024 1.390 . S
C1033 H1026 0.950 . S
C1033 C1030 1.387 . S
C1034 C1035 1.387 . S
C1034 H1038 0.950 . S
C1034 C1043 1.390 . S
C1035 C1034 1.387 . S
C1035 C1037 1.387 . S
H1036 C1043 0.950 . S
C1037 C1035 1.387 . S
C1037 C1039 1.390 . S
C1037 H1041 0.950 . S
H1038 C1034 0.950 . S
C1039 C1037 1.390 . S
C1039 C1040 1.387 . S
C1039 H1042 0.950 . S
C1040 C1039 1.387 . S
C1040 C1043 1.387 . S
H1041 C1037 0.950 . S
H1042 C1039 0.950 . S
C1043 C1034 1.390 . S
C1043 H1036 0.950 . S
C1043 C1040 1.387 . S
C1044 C1045 1.387 . S
C1044 H1048 0.950 . S
C1044 C1053 1.390 . S
C1045 C1044 1.387 . S
C1045 C1047 1.387 . S
H1046 C1053 0.950 . S
C1047 C1045 1.387 . S
C1047 C1049 1.390 . S
C1047 H1051 0.950 . S
H1048 C1044 0.950 . S
C1049 C1047 1.390 . S
C1049 C1050 1.387 . S
C1049 H1052 0.950 . S
C1050 C1049 1.387 . S
C1050 C1053 1.387 . S
H1051 C1047 0.950 . S
H1052 C1049 0.950 . S
C1053 C1044 1.390 . S
C1053 H1046 0.950 . S
C1053 C1050 1.387 . S
C1054 C1055 1.387 . S
C1054 H1058 0.950 . S
C1054 C1063 1.390 . S
C1055 C1054 1.387 . S
C1055 C1057 1.387 . S
H1056 C1063 0.950 . S
C1057 C1055 1.387 . S
C1057 C1059 1.390 . S
C1057 H1061 0.950 . S
H1058 C1054 0.950 . S
C1059 C1057 1.390 . S
C1059 C1060 1.387 . S
C1059 H1062 0.950 . S
C1060 C1059 1.387 . S
C1060 C1063 1.387 . S
H1061 C1057 0.950 . S
H1062 C1059 0.950 . S
C1063 C1054 1.390 . S
C1063 H1056 0.950 . S
C1063 C1060 1.387 . S
C1064 C1065 1.387 . S
C1064 H1068 0.950 . S
C1064 C1073 1.390 . S
C1065 C1064 1.387 . S
C1065 C1067 1.387 . S
H1066 C1073 0.950 . S
C1067 C1065 1.387 . S
C1067 C1069 1.390 . S
C1067 H1071 0.950 . S
H1068 C1064 0.950 . S
C1069 C1067 1.390 . S
C1069 C1070 1.387 . S
C1069 H1072 0.950 . S
C1070 C1069 1.387 . S
C1070 C1073 1.387 . S
H1071 C1067 0.950 . S
H1072 C1069 0.950 . S
C1073 C1064 1.390 . S
C1073 H1066 0.950 . S
C1073 C1070 1.387 . S
C1074 C1075 1.387 . S
C1074 H1078 0.950 . S
C1074 C1083 1.390 . S
C1075 C1074 1.387 . S
C1075 C1077 1.387 . S
H1076 C1083 0.950 . S
C1077 C1075 1.387 . S
C1077 C1079 1.390 . S
C1077 H1081 0.950 . S
H1078 C1074 0.950 . S
C1079 C1077 1.390 . S
C1079 C1080 1.387 . S
C1079 H1082 0.950 . S
C1080 C1079 1.387 . S
C1080 C1083 1.387 . S
H1081 C1077 0.950 . S
H1082 C1079 0.950 . S
C1083 C1074 1.390 . S
C1083 H1076 0.950 . S
C1083 C1080 1.387 . S
C1084 C1085 1.387 . S
C1084 H1088 0.950 . S
C1084 C1093 1.390 . S
C1085 C1084 1.387 . S
C1085 C1087 1.387 . S
H1086 C1093 0.950 . S
C1087 C1085 1.387 . S
C1087 C1089 1.390 . S
C1087 H1091 0.950 . S
H1088 C1084 0.950 . S
C1089 C1087 1.390 . S
C1089 C1090 1.387 . S
C1089 H1092 0.950 . S
C1090 C1089 1.387 . S
C1090 C1093 1.387 . S
H1091 C1087 0.950 . S
H1092 C1089 0.950 . S
C1093 C1084 1.390 . S
C1093 H1086 0.950 . S
C1093 C1090 1.387 . S
C1094 C1095 1.387 . S
C1094 H1098 0.950 . S
C1094 C1103 1.390 . S
C1095 C1094 1.387 . S
C1095 C1097 1.387 . S
H1096 C1103 0.950 . S
C1097 C1095 1.387 . S
C1097 C1099 1.390 . S
C1097 H1101 0.950 . S
H1098 C1094 0.950 . S
C1099 C1097 1.390 . S
C1099 C1100 1.387 . S
C1099 H1102 0.950 . S
C1100 C1099 1.387 . S
C1100 C1103 1.387 . S
H1101 C1097 0.950 . S
H1102 C1099 0.950 . S
C1103 C1094 1.390 . S
C1103 H1096 0.950 . S
C1103 C1100 1.387 . S
C1104 C1105 1.387 . S
C1104 H1108 0.950 . S
C1104 C1113 1.390 . S
C1105 C1104 1.387 . S
C1105 C1107 1.387 . S
H1106 C1113 0.950 . S
C1107 C1105 1.387 . S
C1107 C1109 1.390 . S
C1107 H1111 0.950 . S
H1108 C1104 0.950 . S
C1109 C1107 1.390 . S
C1109 C1110 1.387 . S
C1109 H1112 0.950 . S
C1110 C1109 1.387 . S
C1110 C1113 1.387 . S
H1111 C1107 0.950 . S
H1112 C1109 0.950 . S
C1113 C1104 1.390 . S
C1113 H1106 0.950 . S
C1113 C1110 1.387 . S
C1114 C1115 1.387 . S
C1114 H1118 0.950 . S
C1114 C1123 1.390 . S
C1115 C1114 1.387 . S
C1115 C1117 1.387 . S
H1116 C1123 0.950 . S
C1117 C1115 1.387 . S
C1117 C1119 1.390 . S
C1117 H1121 0.950 . S
H1118 C1114 0.950 . S
C1119 C1117 1.390 . S
C1119 C1120 1.387 . S
C1119 H1122 0.950 . S
C1120 C1119 1.387 . S
C1120 C1123 1.387 . S
H1121 C1117 0.950 . S
H1122 C1119 0.950 . S
C1123 C1114 1.390 . S
C1123 H1116 0.950 . S
C1123 C1120 1.387 . S
C1124 C1125 1.387 . S
C1124 H1128 0.950 . S
C1124 C1133 1.390 . S
C1125 C1124 1.387 . S
C1125 C1127 1.387 . S
H1126 C1133 0.950 . S
C1127 C1125 1.387 . S
C1127 C1129 1.390 . S
C1127 H1131 0.950 . S
H1128 C1124 0.950 . S
C1129 C1127 1.390 . S
C1129 C1130 1.387 . S
C1129 H1132 0.950 . S
C1130 C1129 1.387 . S
C1130 C1133 1.387 . S
H1131 C1127 0.950 . S
H1132 C1129 0.950 . S
C1133 C1124 1.390 . S
C1133 H1126 0.950 . S
C1133 C1130 1.387 . S
C1134 C1135 1.387 . S
C1134 H1138 0.950 . S
C1134 C1143 1.390 . S
C1135 C1134 1.387 . S
C1135 C1137 1.387 . S
H1136 C1143 0.950 . S
C1137 C1135 1.387 . S
C1137 C1139 1.390 . S
C1137 H1141 0.950 . S
H1138 C1134 0.950 . S
C1139 C1137 1.390 . S
C1139 C1140 1.387 . S
C1139 H1142 0.950 . S
C1140 C1139 1.387 . S
C1140 C1143 1.387 . S
H1141 C1137 0.950 . S
H1142 C1139 0.950 . S
C1143 C1134 1.390 . S
C1143 H1136 0.950 . S
C1143 C1140 1.387 . S
C1144 C1145 1.387 . S
C1144 H1148 0.950 . S
C1144 C1153 1.390 . S
C1145 C1144 1.387 . S
C1145 C1147 1.387 . S
H1146 C1153 0.950 . S
C1147 C1145 1.387 . S
C1147 C1149 1.390 . S
C1147 H1151 0.950 . S
H1148 C1144 0.950 . S
C1149 C1147 1.390 . S
C1149 C1150 1.387 . S
C1149 H1152 0.950 . S
C1150 C1149 1.387 . S
C1150 C1153 1.387 . S
H1151 C1147 0.950 . S
H1152 C1149 0.950 . S
C1153 C1144 1.390 . S
C1153 H1146 0.950 . S
C1153 C1150 1.387 . S
C1154 C1155 1.387 . S
C1154 H1158 0.950 . S
C1154 C1163 1.390 . S
C1155 C1154 1.387 . S
C1155 C1157 1.387 . S
H1156 C1163 0.950 . S
C1157 C1155 1.387 . S
C1157 C1159 1.390 . S
C1157 H1161 0.950 . S
H1158 C1154 0.950 . S
C1159 C1157 1.390 . S
C1159 C1160 1.387 . S
C1159 H1162 0.950 . S
C1160 C1159 1.387 . S
C1160 C1163 1.387 . S
H1161 C1157 0.950 . S
H1162 C1159 0.950 . S
C1163 C1154 1.390 . S
C1163 H1156 0.950 . S
C1163 C1160 1.387 . S
C1164 C1165 1.387 . S
C1164 H1168 0.950 . S
C1164 C1173 1.390 1_455 S
C1165 C1164 1.387 . S
C1165 C1167 1.387 . S
H1166 C1173 0.950 . S
C1167 C1165 1.387 . S
C1167 C1169 1.390 1_455 S
C1167 H1171 0.950 . S
H1168 C1164 0.950 . S
C1169 C1167 1.390 1_655 S
C1169 C1170 1.387 . S
C1169 H1172 0.950 . S
C1170 C1169 1.387 . S
C1170 C1173 1.387 . S
H1171 C1167 0.950 . S
H1172 C1169 0.950 . S
C1173 C1164 1.390 1_655 S
C1173 H1166 0.950 . S
C1173 C1170 1.387 . S
C1174 C1175 1.387 . S
C1174 H1178 0.950 . S
C1174 C1183 1.390 . S
C1175 C1174 1.387 . S
C1175 C1177 1.387 . S
H1176 C1183 0.950 . S
C1177 C1175 1.387 . S
C1177 C1179 1.390 . S
C1177 H1181 0.950 . S
H1178 C1174 0.950 . S
C1179 C1177 1.390 . S
C1179 C1180 1.387 . S
C1179 H1182 0.950 . S
C1180 C1179 1.387 . S
C1180 C1183 1.387 . S
H1181 C1177 0.950 . S
H1182 C1179 0.950 . S
C1183 C1174 1.390 . S
C1183 H1176 0.950 . S
C1183 C1180 1.387 . S
C1184 C1185 1.387 . S
C1184 H1188 0.950 . S
C1184 C1193 1.390 1_545 S
C1185 C1184 1.387 . S
C1185 C1187 1.387 . S
H1186 C1193 0.950 . S
C1187 C1185 1.387 . S
C1187 C1189 1.390 1_545 S
C1187 H1191 0.950 . S
H1188 C1184 0.950 . S
C1189 C1187 1.390 1_565 S
C1189 C1190 1.387 . S
C1189 H1192 0.950 . S
C1190 C1189 1.387 . S
C1190 C1193 1.387 . S
H1191 C1187 0.950 . S
H1192 C1189 0.950 . S
C1193 C1184 1.390 1_565 S
C1193 H1186 0.950 . S
C1193 C1190 1.387 . S
C1194 C1195 1.387 1_565 S
C1194 H1198 0.950 . S
C1194 C1203 1.390 . S
C1195 C1194 1.387 1_545 S
C1195 C1197 1.387 1_556 S
H1196 C1203 0.950 . S
C1197 C1195 1.387 1_554 S
C1197 C1199 1.390 1_545 S
C1197 H1201 0.950 . S
H1198 C1194 0.950 . S
C1199 C1197 1.390 1_565 S
C1199 C1200 1.387 . S
C1199 H1202 0.950 . S
C1200 C1199 1.387 . S
C1200 C1203 1.387 1_554 S
H1201 C1197 0.950 . S
H1202 C1199 0.950 . S
C1203 C1194 1.390 . S
C1203 H1196 0.950 . S
C1203 C1200 1.387 1_556 S
C1204 C1205 1.387 1_554 S
C1204 H1208 0.950 . S
C1204 C1213 1.390 1_655 S
C1205 C1204 1.387 1_556 S
C1205 C1207 1.385 . S
H1206 C1213 0.950 . S
C1207 C1205 1.385 . S
C1207 C1209 1.394 1_655 S
C1207 H1211 0.949 . S
H1208 C1204 0.950 . S
C1209 C1207 1.394 1_455 S
C1209 C1210 1.387 1_556 S
C1209 H1212 0.950 . S
C1210 C1209 1.387 1_554 S
C1210 C1213 1.387 . S
H1211 C1207 0.949 . S
H1212 C1209 0.950 . S
C1213 C1204 1.390 1_455 S
C1213 H1206 0.950 . S
C1213 C1210 1.387 . S
C1214 C1215 1.387 . S
C1214 H1218 0.950 . S
C1214 C1223 1.390 . S
C1215 C1214 1.387 . S
C1215 C1217 1.387 1_556 S
H1216 C1223 0.950 . S
C1217 C1215 1.387 1_554 S
C1217 C1219 1.390 . S
C1217 H1221 0.950 . S
H1218 C1214 0.950 . S
C1219 C1217 1.390 . S
C1219 C1220 1.387 . S
C1219 H1222 0.950 . S
C1220 C1219 1.387 . S
C1220 C1223 1.387 1_554 S
H1221 C1217 0.950 . S
H1222 C1219 0.950 . S
C1223 C1214 1.390 . S
C1223 H1216 0.950 . S
C1223 C1220 1.387 1_556 S
C505 C13 1.196 . S
C510 C106 1.210 . S
C515 C27 1.194 . S
C520 C120 1.212 . S
C525 C92 1.213 . S
C530 C41 1.194 . S
C535 C162 1.210 . S
C540 C55 1.196 . S
C545 C69 1.195 . S
C550 C134 1.213 . S
C555 C83 1.194 . S
C560 C148 1.213 . S
C565 C22 1.356 . S
C570 C91 1.416 . S
C575 C36 1.353 . S
C580 C105 1.416 . S
C585 C119 1.417 . S
C590 C8 1.354 . S
C595 C133 1.414 . S
C600 C78 1.355 . S
C605 C50 1.357 . S
C610 C147 1.416 . S
C615 C161 1.416 . S
C620 C64 1.356 . S
C625 C274 1.214 . S
C630 C181 1.192 . S
C635 C195 1.195 . S
C640 C288 1.212 . S
C645 C209 1.196 . S
C650 C260 1.210 . S
C655 C330 1.210 . S
C660 C223 1.197 . S
C665 C237 1.193 . S
C670 C302 1.214 . S
C675 C316 1.213 . S
C680 C251 1.195 . S
C685 C190 1.354 . S
C690 C259 1.416 . S
C695 C273 1.416 . S
C700 C204 1.357 . S
C705 C176 1.356 . S
C710 C287 1.415 . S
C715 C301 1.417 . S
C720 C246 1.355 . S
C725 C315 1.416 . S
C730 C218 1.353 . S
C735 C329 1.416 . S
C740 C232 1.356 . S
C745 C442 1.210 . S
C750 C349 1.197 . S
C755 C456 1.213 . S
C760 C363 1.195 . S
C765 C428 1.214 . S
C770 C377 1.192 . S
C775 C391 1.197 . S
C780 C498 1.210 . S
C785 C405 1.194 . S
C790 C470 1.212 . S
C795 C484 1.210 . S
C800 C419 1.197 . S
C805 C427 1.416 . S
C810 C358 1.355 . S
C815 C372 1.357 . S
C820 C441 1.415 . S
C825 C344 1.357 . S
C830 C455 1.415 . S
C835 C469 1.414 . S
C840 C414 1.355 . S
C845 C483 1.416 . S
C850 C386 1.357 . S
C855 C497 1.415 . S
C860 C400 1.355 . S
C865 C49 1.288 . S
C870 C7 1.288 . S
C875 C63 1.291 . S
C880 C21 1.291 . S
C885 C35 1.290 . S
C890 C77 1.290 . S
C895 C139 1.326 . S
C900 C97 1.324 . S
C905 C153 1.324 . S
C910 C111 1.324 . S
C915 C167 1.329 . S
C920 C125 1.326 . S
C925 C217 1.290 . S
C930 C175 1.290 . S
C935 C231 1.291 . S
C940 C189 1.291 . S
C945 C203 1.289 . S
C950 C245 1.289 . S
C955 C307 1.327 . S
C960 C265 1.324 . S
C965 C321 1.324 . S
C970 C279 1.324 . S
C975 C335 1.329 . S
C980 C293 1.328 . S
C985 C385 1.290 . S
C990 C343 1.290 . S
C995 C357 1.291 . S
C1000 C399 1.291 . S
C1005 C413 1.288 . S
C1010 C371 1.288 . S
C1015 C433 1.324 . S
C1020 C475 1.326 . S
C1025 C447 1.324 . S
C1030 C489 1.324 . S
C1035 C461 1.329 . S
C1040 C503 1.328 . S
C1045 C11 1.476 . S
C1050 C263 1.504 . S
C1055 C277 1.505 . S
C1060 C25 1.477 . S
C1065 C291 1.505 . S
C1070 C39 1.478 . S
C1075 C473 1.504 . S
C1080 C53 1.476 . S
C1085 C487 1.504 . S
C1090 C67 1.477 . S
C1095 C501 1.504 . S
C1100 C81 1.477 . S
C1105 C95 1.505 . S
C1110 C347 1.476 . S
C1115 C361 1.477 . S
C1120 C109 1.504 . S
C1125 C375 1.476 . S
C1130 C123 1.505 . S
C1135 C137 1.504 . S
C1140 C221 1.476 . S
C1145 C151 1.504 . S
C1150 C235 1.476 . S
C1155 C165 1.504 . S
C1160 C249 1.477 . S
C1165 C431 1.504 . S
C1170 C179 1.476 . S
C1175 C445 1.504 . S
C1180 C193 1.477 . S
C1185 C207 1.476 . S
C1190 C459 1.504 . S
C1195 C305 1.505 . S
C1200 C389 1.476 . S
C1205 C319 1.504 . S
C1210 C403 1.477 . S
C1215 C333 1.504 . S
C1220 C417 1.476 . S
