# Generated by pormake.
# Topology sxc, (6)-cn, num edge types: 1
# Building blocks:
#     Node 0, Type 0, BuildingBlock: CUWYAW_clean_sbu_0, # of connection points: 6
#     Node 1, Type 0, BuildingBlock: CUWYAW_clean_sbu_0, # of connection points: 6
#     Node 2, Type 0, BuildingBlock: CUWYAW_clean_sbu_0, # of connection points: 6
#     Edge 3, Type (0, 0), BuildingBlock: TEMPAE_clean_linker_10, # of connection points: 2
#     Edge 4, Type (0, 0), BuildingBlock: TEMPAE_clean_linker_10, # of connection points: 2
#     Edge 5, Type (0, 0), BuildingBlock: TEMPAE_clean_linker_10, # of connection points: 2
#     Edge 6, Type (0, 0), BuildingBlock: TEMPAE_clean_linker_10, # of connection points: 2
#     Edge 7, Type (0, 0), BuildingBlock: TEMPAE_clean_linker_10, # of connection points: 2
#     Edge 8, Type (0, 0), BuildingBlock: TEMPAE_clean_linker_10, # of connection points: 2
#     Edge 9, Type (0, 0), BuildingBlock: TEMPAE_clean_linker_10, # of connection points: 2
#     Edge 10, Type (0, 0), BuildingBlock: TEMPAE_clean_linker_10, # of connection points: 2
#     Edge 11, Type (0, 0), BuildingBlock: TEMPAE_clean_linker_10, # of connection points: 2
# Relax obj value: 0.549
# Max RMSD: 0.069
# Mean RMSD: 0.051
data_MOF--net-sxc--node1-CUWYAW_clean_sbu_0--edge1-TEMPAE_clean_linker_10
_symmetry_space_group_name_H-M    P1
_symmetry_Int_Tables_number       1
_symmetry_cell_setting            triclinic
loop_
_symmetry_equiv_pos_as_xyz
'x, y, z'
_cell_length_a     16.178732
_cell_length_b     16.171289
_cell_length_c     45.719411
_cell_angle_alpha  93.861888
_cell_angle_beta   90.409676
_cell_angle_gamma 119.71586
loop_
_atom_site_label
_atom_site_type_symbol
_atom_site_fract_x
_atom_site_fract_y
_atom_site_fract_z
_atom_type_partial_charge
C0 C 1.15465 0.31515 0.94303 0.0
Eu1 Eu 1.20623 0.19237 0.95162 0.0
C2 C 1.2185 0.41355 0.95599 0.0
C3 C 1.22676 0.43152 0.98679 0.0
C4 C 0.31008 0.50618 0.00052 0.0
C5 C 0.38598 0.5657 0.98379 0.0
C6 C 0.37495 0.55334 0.95303 0.0
C7 C 0.29167 0.47843 0.93924 0.0
C8 C 1.23247 1.17331 0.0096 0.0
C9 C 0.43747 0.33485 0.95694 0.0
C10 C 0.41582 1.04177 0.97949 0.0
Eu11 Eu 0.31731 1.11176 0.95864 0.0
C12 C 0.49624 1.08621 0.00178 0.0
C13 C 0.48079 1.09665 0.03169 0.0
C14 C 0.55321 1.11961 0.0529 0.0
C15 C 0.63965 1.12523 0.0446 0.0
C16 C 0.66184 1.13904 0.01481 0.0
C17 C 0.58982 1.1172 -0.0065 0.0
C18 C 0.29275 1.13021 0.90049 0.0
C19 C 1.08144 0.96811 0.95111 0.0
O20 O 1.19129 0.28573 0.9222 0.0
O21 O 1.11277 0.25105 0.96186 0.0
O22 O 1.1511 1.14794 -0.0032 0.0
O23 O 0.29677 0.20612 -0.00873 0.0
O24 O 0.35748 0.31779 0.94342 0.0
O25 O 0.43496 0.26519 0.97076 0.0
O26 O 0.43198 1.07824 0.95409 0.0
O27 O 0.33159 1.02038 -0.0113 0.0
O28 O 0.37347 1.15239 0.91326 0.0
O29 O 1.2277 1.09862 0.91862 0.0
O30 O 1.16469 0.97776 0.96019 0.0
O31 O 1.08005 1.04348 0.94227 0.0
H32 H 1.17191 0.38362 0.00052 0.0
H33 H 0.31551 0.51689 0.02426 0.0
H34 H 0.43204 0.59989 0.93965 0.0
H35 H 0.28805 0.4665 0.91554 0.0
H36 H 0.41127 1.08096 0.03894 0.0
H37 H 0.53606 1.11971 0.07573 0.0
H38 H 0.72963 1.15118 0.00706 0.0
H39 H 0.6056 1.11599 0.97053 0.0
C40 C 0.56013 0.36945 0.29787 0.0
Eu41 Eu 0.37936 0.24526 0.29152 0.0
C42 C 0.62244 0.39436 0.32453 0.0
C43 C 0.594 0.41369 0.35202 0.0
C44 C 0.64128 0.41527 0.37796 0.0
C45 C 0.717 0.3961 0.37698 0.0
C46 C 0.74955 0.38434 0.34921 0.0
C47 C 0.70306 0.38396 0.32336 0.0
C48 C 0.30861 0.19648 0.34627 0.0
C49 C 0.29911 1.02271 0.28623 0.0
C50 C 1.01255 1.02984 0.29699 0.0
Eu51 Eu 1.1903 1.14943 0.28734 0.0
C52 C 0.96262 1.01197 0.32443 0.0
C53 C 1.01023 1.07052 0.34986 0.0
C54 C 0.96202 1.06112 0.37561 0.0
C55 C 0.86467 0.993 0.37629 0.0
C56 C 0.82011 0.92751 0.35155 0.0
C57 C 0.86873 0.93749 0.32566 0.0
C58 C 1.25468 0.19452 0.23204 0.0
C59 C 0.2776 0.37099 0.28905 0.0
O60 O 0.52787 0.2832 0.28551 0.0
O61 O 0.49389 0.39277 0.29948 0.0
O62 O 0.37549 0.18513 0.33523 0.0
O63 O 0.2785 0.23061 0.32765 0.0
O64 O 0.37641 1.10348 0.28157 0.0
O65 O 1.22048 1.02534 0.29184 0.0
O66 O 1.07914 1.0071 0.29634 0.0
O67 O 1.04096 1.11356 0.28734 0.0
O68 O 1.18212 0.19705 0.24261 0.0
O69 O 0.29026 1.16486 0.25066 0.0
O70 O 1.20993 0.29736 0.30138 0.0
O71 O 0.34448 0.35842 0.27676 0.0
H72 H 0.5317 0.42196 0.35369 0.0
H73 H 0.61492 0.42619 0.39872 0.0
H74 H 0.80616 0.36736 0.34708 0.0
H75 H 0.72594 0.36845 0.3025 0.0
H76 H 1.08344 1.12691 0.34923 0.0
H77 H 0.99886 1.11344 0.39396 0.0
H78 H 0.74556 0.87343 0.3515 0.0
H79 H 0.8319 0.88992 0.30634 0.0
C80 C 0.38374 0.44843 0.64692 0.0
Eu81 Eu 0.28217 0.26603 0.63065 0.0
C82 C 0.42618 0.49228 0.67646 0.0
C83 C 0.40154 0.43449 0.70013 0.0
C84 C 0.45543 0.46762 0.72656 0.0
C85 C 0.5351 0.55941 0.72975 0.0
C86 C 0.55367 0.62099 0.70727 0.0
C87 C 0.49976 0.58735 0.68064 0.0
C88 C 1.22452 1.16984 0.68097 0.0
C89 C 0.42584 0.18322 0.6245 0.0
C90 C 1.11458 0.89483 0.62203 0.0
Eu91 Eu 1.2027 1.07864 0.61835 0.0
C92 C 1.12553 0.84471 0.6461 0.0
C93 C 1.05204 0.75358 0.65122 0.0
C94 C 1.04342 0.72182 0.67933 0.0
C95 C 1.10599 0.78273 0.70263 0.0
C96 C 1.18813 0.86613 0.69619 0.0
C97 C 1.19788 0.8972 0.668 0.0
C98 C 1.25591 1.16357 0.56634 0.0
C99 C 1.0622 1.17256 0.61776 0.0
O100 O 0.4189 0.39947 0.63378 0.0
O101 O 0.29118 0.40232 0.64471 0.0
O102 O 1.19973 0.22869 0.67244 0.0
O103 O 0.27196 1.15737 0.66125 0.0
O104 O 0.41334 0.25335 0.6164 0.0
O105 O 0.35045 1.10829 0.63321 0.0
O106 O 1.18855 0.93892 0.60621 0.0
O107 O 1.07766 0.94834 0.62982 0.0
O108 O 1.26126 1.09033 0.57331 0.0
O109 O 1.21801 0.18836 0.58673 0.0
O110 O 1.06721 1.09471 0.62221 0.0
O111 O 1.14254 0.25218 0.61475 0.0
H112 H 0.34573 0.36107 0.69748 0.0
H113 H 0.4413 0.41812 0.7432 0.0
H114 H 0.61647 0.69138 0.70902 0.0
H115 H 0.52011 0.6331 0.66269 0.0
H116 H 0.9957 0.71184 0.63462 0.0
H117 H 0.97927 0.65692 0.68372 0.0
H118 H 1.23723 0.91354 0.71375 0.0
H119 H 1.25579 0.96743 0.66441 0.0
C120 C 0.49912 0.73795 -0.01018 0.0
C121 C 0.4717 0.64754 -0.00153 0.0
C122 C 0.56633 0.81951 0.00653 0.0
C123 C 0.6099 0.81106 0.03248 0.0
C124 C 0.58962 0.71901 0.03955 0.0
C125 C 0.51917 0.63786 0.02269 0.0
C126 C 0.58163 0.91364 -0.00234 0.0
C127 C 0.63772 0.70461 0.0655 0.0
C128 C 0.75724 1.06759 0.05095 0.0
C129 C 0.68164 1.07796 0.06219 0.0
C130 C 0.74655 0.97568 0.04647 0.0
C131 C 0.66016 0.89658 0.05397 0.0
C132 C 0.60451 0.91335 0.07469 0.0
C133 C 0.61985 1.00647 0.07992 0.0
C134 C 0.81875 0.96256 0.02927 0.0
C135 C 0.51916 0.83219 0.08727 0.0
H136 H 0.46217 0.74508 0.97111 0.0
H137 H 0.49928 0.56709 0.02897 0.0
H138 H 0.65839 0.96398 -0.00443 0.0
H139 H 0.54452 0.90731 0.97638 0.0
H140 H 0.5528 0.94274 0.01475 0.0
H141 H 0.5861 0.67462 0.08296 0.0
H142 H 0.65967 0.65114 0.05913 0.0
H143 H 0.70127 0.77168 0.07451 0.0
H144 H 0.81541 1.12631 0.04098 0.0
H145 H 0.57005 1.01674 0.09315 0.0
H146 H 0.81773 0.98195 0.0065 0.0
H147 H 0.80509 0.88802 0.0287 0.0
H148 H 0.89131 1.0118 0.03915 0.0
H149 H 0.48356 0.85787 0.10316 0.0
H150 H 0.54178 0.788 0.09874 0.0
H151 H 0.46628 0.78587 0.0694 0.0
C152 C 0.84023 0.37681 0.40404 0.0
C153 C 0.7504 0.36998 0.40355 0.0
C154 C 0.85393 0.309 0.41748 0.0
C155 C 0.77757 0.23787 0.43224 0.0
C156 C 0.70139 0.25263 0.43997 0.0
C157 C 0.68549 0.3159 0.42437 0.0
C158 C 0.94329 0.3044 0.41148 0.0
C159 C 0.63036 0.19198 0.46137 0.0
C160 C 0.7298 1.01801 0.38783 0.0
C161 C 0.80709 1.01059 0.39836 0.0
C162 C 0.70668 1.08286 0.40179 0.0
C163 C 0.76024 1.13837 0.42766 0.0
C164 C 0.82017 1.11187 0.44215 0.0
C165 C 0.8447 1.04913 0.42699 0.0
C166 C 0.63741 1.10294 0.38557 0.0
C167 C 0.86718 1.15722 0.47196 0.0
H168 H 0.89484 0.42559 0.3904 0.0
H169 H 0.61786 0.31392 0.4262 0.0
H170 H 0.92591 0.24083 0.39629 0.0
H171 H 0.99784 0.36879 0.40141 0.0
H172 H 0.9749 0.29806 0.43218 0.0
H173 H 0.5939 0.2289 0.47146 0.0
H174 H 0.57563 1.12329 0.45005 0.0
H175 H 0.66635 1.17534 0.47893 0.0
H176 H 0.69742 0.9855 0.36625 0.0
H177 H 0.90089 1.03914 0.43613 0.0
H178 H 0.67672 1.17351 0.37641 0.0
H179 H 0.58427 1.10402 0.40043 0.0
H180 H 0.59776 1.04849 0.36706 0.0
H181 H 0.84959 1.10023 0.48702 0.0
H182 H 0.84406 0.20686 0.48162 0.0
H183 H 0.94583 0.19589 0.47052 0.0
C184 C 1.01026 0.8308 0.73207 0.0
C185 C 1.06255 0.78329 0.73076 0.0
C186 C 0.93148 0.80005 0.74947 0.0
C187 C 0.90845 0.72294 0.76713 0.0
C188 C 0.97805 0.69553 0.77189 0.0
C189 C 1.05216 0.72166 0.75225 0.0
C190 C 0.86653 0.84095 0.7451 0.0
C191 C 0.96907 0.63113 0.79545 0.0
C192 C 0.65139 0.64523 0.77299 0.0
C193 C 0.61581 0.57621 0.74912 0.0
C194 C 0.74495 0.68031 0.78449 0.0
C195 C 0.80519 0.65243 0.76964 0.0
C196 C 0.76283 0.57087 0.74897 0.0
C197 C 0.66799 0.5331 0.73945 0.0
C198 C 0.78047 0.75183 0.81094 0.0
C199 C 0.81885 0.53014 0.73365 0.0
H200 H 1.02243 0.88237 0.71623 0.0
H201 H 1.09659 0.68893 0.75237 0.0
H202 H 0.85539 0.86959 0.76645 0.0
H203 H 0.89637 0.90032 0.73045 0.0
H204 H 0.79646 0.78474 0.73522 0.0
H205 H 1.02695 0.67288 0.8125 0.0
H206 H 0.89988 0.60226 0.80619 0.0
H207 H 0.9792 0.57148 0.78638 0.0
H208 H 0.60867 0.67517 0.78153 0.0
H209 H 0.63801 0.47687 0.7217 0.0
H210 H 0.76169 0.80835 0.80822 0.0
H211 H 0.85841 0.78493 0.81549 0.0
H212 H 0.74366 0.71481 0.83043 0.0
H213 H 0.87582 0.58511 0.72126 0.0
H214 H 0.77384 0.46764 0.7179 0.0
H215 H 0.85165 0.50621 0.74996 0.0
C216 C 0.96533 0.25466 0.62976 0.0
C217 C 0.96837 1.17337 0.618 0.0
C218 C 0.87885 0.25737 0.63113 0.0
C219 C 0.79153 0.17833 0.61935 0.0
C220 C 0.79455 1.0967 0.60683 0.0
C221 C 0.88162 1.0944 0.6069 0.0
C222 C 0.88086 0.34476 0.64586 0.0
C223 C 0.70559 1.01165 0.59294 0.0
C224 C 0.54777 1.14289 0.64468 0.0
C225 C 0.52121 0.18591 0.62352 0.0
C226 C 0.63513 1.14174 0.64392 0.0
C227 C 0.69768 0.18068 0.62064 0.0
C228 C 0.67026 0.2228 0.59888 0.0
C229 C 0.58427 0.22667 0.60091 0.0
C230 C 0.66092 1.09943 0.66841 0.0
C231 C 0.73096 0.26214 0.57294 0.0
H232 H 1.03094 0.31607 0.63873 0.0
H233 H 0.88207 1.03121 0.59759 0.0
H234 H 0.85774 0.37875 0.62989 0.0
H235 H 0.83009 0.32385 0.66378 0.0
H236 H 0.95289 0.39851 0.65519 0.0
H237 H 0.72013 0.9568 0.58218 0.0
H238 H 0.6526 0.97824 0.60982 0.0
H239 H 0.67277 1.03499 0.57633 0.0
H240 H 0.50048 1.11112 0.66233 0.0
H241 H 0.56478 0.25897 0.58413 0.0
H242 H 0.73234 1.15209 0.67837 0.0
H243 H 0.66482 1.03596 0.65959 0.0
H244 H 0.60848 1.0776 0.6859 0.0
H245 H 0.80176 0.32283 0.58051 0.0
H246 H 0.69785 0.28711 0.55694 0.0
H247 H 0.74302 0.20646 0.56155 0.0
C248 C 0.98288 0.78422 0.94792 0.0
C249 C 0.98784 0.87384 0.95151 0.0
C250 C 0.89439 0.69672 0.94762 0.0
C251 C 0.80732 0.69692 0.95215 0.0
C252 C 0.81251 0.78738 0.9561 0.0
C253 C 0.90118 0.87344 0.95535 0.0
C254 C 0.89398 0.6036 0.94193 0.0
C255 C 0.72423 0.79345 0.9622 0.0
C256 C 0.55745 0.47693 0.92999 0.0
C257 C 0.53006 0.42926 0.95589 0.0
C258 C 0.64736 0.56138 0.9282 0.0
C259 C 0.71155 0.6036 0.95328 0.0
C260 C 0.68249 0.55708 0.97973 0.0
C261 C 0.59418 0.47041 0.98051 0.0
C262 C 0.67422 0.60458 0.89913 0.0
C263 C 0.74442 0.59976 0.00752 0.0
H264 H 1.0482 0.7823 0.94467 0.0
H265 H 0.9028 0.94127 0.95848 0.0
H266 H 0.87024 0.5621 0.96151 0.0
H267 H 0.84258 0.55981 0.92345 0.0
H268 H 0.96542 0.61453 0.9366 0.0
H269 H 0.73782 0.86799 0.96349 0.0
H270 H 0.66739 0.7506 0.94501 0.0
H271 H 0.69686 0.76254 0.98328 0.0
H272 H 0.50968 0.44626 0.91066 0.0
H273 H 0.5744 0.43543 0.00077 0.0
H274 H 0.7466 0.61841 0.89379 0.0
H275 H 0.67606 0.67418 0.90041 0.0
H276 H 0.62315 0.55767 0.88093 0.0
H277 H 0.81495 0.60567 0.00434 0.0
H278 H 0.71199 0.55657 0.02641 0.0
H279 H 0.75697 0.67316 0.01295 0.0
C280 C 0.32281 0.52639 0.26592 0.0
C281 C 0.27941 0.46595 0.28856 0.0
C282 C 0.32624 0.61585 0.26506 0.0
C283 C 0.28871 0.64961 0.288 0.0
C284 C 1.24614 0.5894 0.3112 0.0
C285 C 1.24049 0.49852 0.31092 0.0
C286 C 0.36912 0.67385 0.2392 0.0
C287 C 1.20766 0.62169 0.33675 0.0
C288 C 0.37719 0.92266 0.29695 0.0
C289 C 0.29878 0.92837 0.28594 0.0
C290 C 0.37433 0.83344 0.29834 0.0
C291 C 0.29247 0.74636 0.28739 0.0
C292 C 1.21412 0.7524 0.27561 0.0
C293 C 1.21744 0.84198 0.27563 0.0
C294 C 0.45862 0.83234 0.3122 0.0
C295 C 1.12644 0.66387 0.26259 0.0
H296 H 0.35289 0.5028 0.24836 0.0
H297 H 1.20757 0.45381 0.32875 0.0
H298 H 0.31695 0.6898 0.22878 0.0
H299 H 0.43249 0.7432 0.24668 0.0
H300 H 0.39088 0.63638 0.22239 0.0
H301 H 1.18204 0.57014 0.35393 0.0
H302 H 1.26384 0.69223 0.34675 0.0
H303 H 1.14775 0.63076 0.32902 0.0
H304 H 0.44009 0.988 0.30539 0.0
H305 H 1.15624 0.84453 0.26701 0.0
H306 H 0.515 0.90468 0.32096 0.0
H307 H 0.48992 0.80327 0.29587 0.0
H308 H 0.43507 0.78466 0.33041 0.0
H309 H 1.1468 0.62609 0.24549 0.0
H310 H 1.07403 0.68043 0.25263 0.0
H311 H 1.0913 0.61404 0.2798 0.0
C312 C 1.25384 0.25961 0.18405 0.0
C313 C 0.27122 0.19799 0.19991 0.0
C314 C 1.25856 0.25877 0.15326 0.0
C315 C 0.27812 0.19234 0.13745 0.0
C316 C 0.29815 1.13135 0.15344 0.0
C317 C 0.29574 1.13578 0.18448 0.0
C318 C 1.23952 0.32728 0.13757 0.0
C319 C 0.31731 1.05796 0.13769 0.0
C320 C 1.1688 1.12169 0.05896 0.0
C321 C 1.24725 1.17442 0.04199 0.0
C322 C 1.17883 1.12388 0.0897 0.0
C323 C 1.26946 0.18201 0.1043 0.0
C324 C 0.34947 0.23432 0.08718 0.0
C325 C 0.3376 0.22914 0.05627 0.0
C326 C 1.0916 1.065 0.10663 0.0
C327 C 0.44713 0.29852 0.10158 0.0
H328 H 1.23533 0.30824 0.19583 0.0
H329 H 0.30842 1.08731 0.19651 0.0
H330 H 0.29618 0.36506 0.12201 0.0
H331 H 1.17095 0.28706 0.12456 0.0
H332 H 1.23582 0.38122 0.15304 0.0
H333 H 0.33952 1.02156 0.15311 0.0
H334 H 1.25179 1.00329 0.12507 0.0
H335 H 0.37358 1.09166 0.12172 0.0
H336 H 1.09882 1.0785 0.04814 0.0
H337 H 0.39866 0.27009 0.04336 0.0
H338 H 1.07507 1.11288 0.12079 0.0
H339 H 1.10521 1.02046 0.12121 0.0
H340 H 1.02805 1.0175 0.09196 0.0
H341 H 0.44672 0.35744 0.11539 0.0
H342 H 0.5029 0.32997 0.08528 0.0
H343 H 0.46643 0.25826 0.11627 0.0
C344 C 1.23837 0.23316 0.39153 0.0
C345 C 0.29286 0.1961 0.3785 0.0
C346 C 1.22556 0.23321 0.42214 0.0
C347 C 1.26954 0.1968 0.44036 0.0
C348 C 0.32523 1.16021 0.42722 0.0
C349 C 0.33588 1.1601 0.39667 0.0
C350 C 1.16446 0.27168 0.43495 0.0
C351 C 0.37359 1.12053 0.44544 0.0
C352 C 0.31938 0.26339 0.52335 0.0
C353 C 1.25016 0.1797 0.53486 0.0
C354 C 0.32394 0.27188 0.49272 0.0
C355 C 1.25717 0.19516 0.47306 0.0
C356 C 1.18415 1.11254 0.48485 0.0
C357 C 1.18228 1.10543 0.51546 0.0
C358 C 0.40339 0.36103 0.48133 0.0
C359 C 1.11052 1.02945 0.46504 0.0
H360 H 1.20611 0.26267 0.37784 0.0
H361 H 0.37852 1.1317 0.38695 0.0
H362 H 1.10151 0.21365 0.44468 0.0
H363 H 1.20492 0.32809 0.45285 0.0
H364 H 1.13909 0.30173 0.4182 0.0
H365 H 0.41709 1.09789 0.43209 0.0
H366 H 0.42031 1.17497 0.46304 0.0
H367 H 0.31934 1.058 0.45625 0.0
H368 H 0.37275 0.32041 0.53821 0.0
H369 H 1.129 1.04028 0.52425 0.0
H370 H 0.37448 0.38957 0.46519 0.0
H371 H 0.4535 0.34344 0.46976 0.0
H372 H 0.44385 0.41768 0.49922 0.0
H373 H 1.0786 1.0547 0.44877 0.0
H374 H 1.05256 0.97526 0.47754 0.0
H375 H 1.14509 0.99445 0.45262 0.0
C376 C 0.27933 1.11135 0.72299 0.0
C377 C 1.22766 1.15289 0.71263 0.0
C378 C 0.28666 1.10131 0.75326 0.0
C379 C 1.24306 1.13552 0.77388 0.0
C380 C 1.19075 1.17741 0.76342 0.0
C381 C 1.18297 0.18463 0.73309 0.0
C382 C 0.34123 1.05411 0.76317 0.0
C383 C 1.1453 0.21751 0.78439 0.0
C384 C 1.19752 1.05756 0.85248 0.0
C385 C 0.27844 1.1308 0.86825 0.0
C386 C 1.18643 1.05634 0.82171 0.0
C387 C 1.25589 1.13232 0.80642 0.0
C388 C 0.33673 0.20737 0.82249 0.0
C389 C 0.34791 0.20455 0.85298 0.0
C390 C 1.10135 0.97276 0.80546 0.0
C391 C 0.4111 0.29153 0.80753 0.0
H392 H 0.31546 1.08814 0.70749 0.0
H393 H 1.14342 0.21755 0.72542 0.0
H394 H 0.39478 1.09949 0.78096 0.0
H395 H 0.29112 0.98557 0.77221 0.0
H396 H 0.37835 1.03934 0.74496 0.0
H397 H 1.10712 0.24796 0.77285 0.0
H398 H 1.09405 1.16087 0.79776 0.0
H399 H 1.20078 0.27443 0.79977 0.0
H400 H 1.14416 0.99975 0.86411 0.0
H401 H 0.41036 0.26152 0.86508 0.0
H402 H 1.12611 0.93677 0.78917 0.0
H403 H 1.05977 0.99782 0.79313 0.0
H404 H 1.05342 0.91949 0.8204 0.0
H405 H 0.44391 0.26684 0.79038 0.0
H406 H 0.46843 0.34525 0.82317 0.0
H407 H 0.37719 0.32689 0.79642 0.0
loop_
_geom_bond_atom_site_label_1
_geom_bond_atom_site_label_2
_geom_bond_distance
_geom_bond_site_symmetry_2
_ccdc_geom_bond_type
C0 Eu1 2.832 . S
C0 C2 1.500 . S
C0 O20 1.257 1_554 S
C0 O21 1.260 . S
Eu1 C0 2.832 . S
Eu1 O20 2.472 1_554 S
Eu1 O21 2.476 . S
Eu1 O22 2.432 . S
Eu1 O23 2.677 1_545 S
Eu1 O24 2.402 . S
Eu1 O29 2.362 1_554 S
Eu1 O31 2.375 1_445 S
C2 C0 1.500 . S
C2 C3 1.377 . S
C2 C7 1.377 1_554 S
C3 C2 1.377 . S
C3 C4 1.395 . S
C3 H32 0.931 . S
C4 C3 1.395 . S
C4 C5 1.383 1_554 S
C4 H33 0.931 . S
C5 C4 1.383 1_556 S
C5 C6 1.394 . S
C6 C5 1.394 . S
C6 C7 1.378 . S
C6 H34 0.931 . S
C7 C2 1.377 1_556 S
C7 C6 1.378 . S
C7 H35 0.931 . S
C8 O22 1.259 . S
C8 O23 1.270 1_545 S
C9 O24 1.251 . S
C9 O25 1.251 . S
C10 Eu11 2.835 1_554 S
C10 C12 1.500 . S
C10 O26 1.257 . S
C10 O27 1.260 1_554 S
Eu11 C10 2.835 1_556 S
Eu11 O23 2.355 1_556 S
Eu11 O25 2.374 1_566 S
Eu11 O26 2.473 1_556 S
Eu11 O27 2.480 . S
Eu11 O28 2.430 . S
Eu11 O29 2.670 1_565 S
Eu11 O30 2.394 1_455 S
C12 C10 1.500 . S
C12 C13 1.377 1_554 S
C12 C17 1.377 . S
C13 C12 1.377 1_556 S
C13 C14 1.395 . S
C13 H36 0.931 . S
C14 C13 1.395 . S
C14 C15 1.383 1_556 S
C14 H37 0.931 . S
C15 C14 1.383 1_554 S
C15 C16 1.394 . S
C16 C15 1.394 . S
C16 C17 1.378 . S
C16 H38 0.931 . S
C17 C12 1.377 . S
C17 C16 1.378 . S
C17 H39 0.931 . S
C18 O28 1.259 . S
C18 O29 1.270 1_565 S
C19 O30 1.251 . S
C19 O31 1.246 1_556 S
O20 C0 1.257 1_556 S
O20 Eu1 2.472 1_556 S
O21 C0 1.260 . S
O21 Eu1 2.476 . S
O22 Eu1 2.432 . S
O22 C8 1.259 . S
O23 Eu1 2.677 1_565 S
O23 C8 1.270 1_565 S
O23 Eu11 2.355 1_554 S
O24 Eu1 2.402 . S
O24 C9 1.251 . S
O25 C9 1.251 . S
O25 Eu11 2.374 1_544 S
O26 C10 1.257 . S
O26 Eu11 2.473 1_554 S
O27 C10 1.260 1_556 S
O27 Eu11 2.480 . S
O28 Eu11 2.430 . S
O28 C18 1.259 . S
O29 Eu1 2.362 1_556 S
O29 Eu11 2.670 1_545 S
O29 C18 1.270 1_545 S
O30 Eu11 2.394 1_655 S
O30 C19 1.251 . S
O31 Eu1 2.375 1_665 S
O31 C19 1.246 1_554 S
H32 C3 0.931 . S
H33 C4 0.931 . S
H34 C6 0.931 . S
H35 C7 0.931 . S
H36 C13 0.931 . S
H37 C14 0.931 . S
H38 C16 0.931 . S
H39 C17 0.931 . S
C40 Eu41 2.835 . S
C40 C42 1.500 . S
C40 O60 1.257 . S
C40 O61 1.260 . S
Eu41 C40 2.835 . S
Eu41 O60 2.473 . S
Eu41 O61 2.480 . S
Eu41 O62 2.430 . S
Eu41 O63 2.670 . S
Eu41 O64 2.394 1_545 S
Eu41 O69 2.355 . S
Eu41 O71 2.374 . S
C42 C40 1.500 . S
C42 C43 1.377 . S
C42 C47 1.377 . S
C43 C42 1.377 . S
C43 C44 1.395 . S
C43 H72 0.931 . S
C44 C43 1.395 . S
C44 C45 1.383 . S
C44 H73 0.931 . S
C45 C44 1.383 . S
C45 C46 1.394 1_545 S
C46 C45 1.394 1_565 S
C46 C47 1.378 1_565 S
C46 H74 0.931 . S
C47 C42 1.377 . S
C47 C46 1.378 1_545 S
C47 H75 0.931 1_545 S
C48 O62 1.259 . S
C48 O63 1.270 . S
C49 O64 1.251 . S
C49 O65 1.251 1_455 S
C50 Eu51 2.835 1_545 S
C50 C52 1.500 . S
C50 O66 1.257 . S
C50 O67 1.260 1_545 S
Eu51 C50 2.835 1_565 S
Eu51 O63 2.355 1_665 S
Eu51 O65 2.374 . S
Eu51 O66 2.473 1_565 S
Eu51 O67 2.480 . S
Eu51 O68 2.430 . S
Eu51 O69 2.670 1_665 S
Eu51 O70 2.394 1_565 S
C52 C50 1.500 . S
C52 C53 1.377 . S
C52 C57 1.377 . S
C53 C52 1.377 . S
C53 C54 1.395 . S
C53 H76 0.931 1_545 S
C54 C53 1.395 . S
C54 C55 1.383 . S
C54 H77 0.931 . S
C55 C54 1.383 . S
C55 C56 1.394 . S
C56 C55 1.394 . S
C56 C57 1.378 . S
C56 H78 0.931 . S
C57 C52 1.377 . S
C57 C56 1.378 . S
C57 H79 0.931 . S
C58 O68 1.259 1_445 S
C58 O69 1.270 . S
C59 O70 1.251 1_455 S
C59 O71 1.251 . S
O60 C40 1.257 . S
O60 Eu41 2.473 . S
O61 C40 1.260 . S
O61 Eu41 2.480 . S
O62 Eu41 2.430 . S
O62 C48 1.259 . S
O63 Eu41 2.670 . S
O63 C48 1.270 . S
O63 Eu51 2.355 1_445 S
O64 Eu41 2.394 1_565 S
O64 C49 1.251 . S
O65 C49 1.251 1_655 S
O65 Eu51 2.374 . S
O66 C50 1.257 . S
O66 Eu51 2.473 1_545 S
O67 C50 1.260 1_565 S
O67 Eu51 2.480 . S
O68 Eu51 2.430 . S
O68 C58 1.259 1_665 S
O69 Eu41 2.355 . S
O69 Eu51 2.670 1_445 S
O69 C58 1.270 . S
O70 Eu51 2.394 1_545 S
O70 C59 1.251 1_655 S
O71 Eu41 2.374 . S
O71 C59 1.251 . S
H72 C43 0.931 . S
H73 C44 0.931 . S
H74 C46 0.931 . S
H75 C47 0.931 1_565 S
H76 C53 0.931 1_565 S
H77 C54 0.931 . S
H78 C56 0.931 . S
H79 C57 0.931 . S
C80 Eu81 2.835 . S
C80 C82 1.500 . S
C80 O100 1.257 . S
C80 O101 1.260 . S
Eu81 C80 2.835 . S
Eu81 O100 2.473 . S
Eu81 O101 2.480 . S
Eu81 O102 2.430 . S
Eu81 O103 2.670 1_455 S
Eu81 O104 2.394 . S
Eu81 O109 2.355 . S
Eu81 O111 2.374 1_455 S
C82 C80 1.500 . S
C82 C83 1.377 . S
C82 C87 1.377 . S
C83 C82 1.377 . S
C83 C84 1.395 . S
C83 H112 0.931 . S
C84 C83 1.395 . S
C84 C85 1.383 . S
C84 H113 0.931 . S
C85 C84 1.383 . S
C85 C86 1.394 . S
C86 C85 1.394 . S
C86 C87 1.378 . S
C86 H114 0.931 . S
C87 C82 1.377 . S
C87 C86 1.378 . S
C87 H115 0.931 . S
C88 O102 1.259 . S
C88 O103 1.270 1_455 S
C89 O104 1.251 . S
C89 O105 1.251 1_545 S
C90 Eu91 2.835 . S
C90 C92 1.500 . S
C90 O106 1.257 . S
C90 O107 1.260 . S
Eu91 C90 2.835 . S
Eu91 O103 2.355 1_565 S
Eu91 O105 2.374 1_655 S
Eu91 O106 2.473 . S
Eu91 O107 2.480 . S
Eu91 O108 2.430 . S
Eu91 O109 2.670 1_665 S
Eu91 O110 2.394 . S
C92 C90 1.500 . S
C92 C93 1.377 . S
C92 C97 1.377 . S
C93 C92 1.377 . S
C93 C94 1.395 . S
C93 H116 0.931 . S
C94 C93 1.395 . S
C94 C95 1.383 . S
C94 H117 0.931 . S
C95 C94 1.383 . S
C95 C96 1.394 . S
C96 C95 1.394 . S
C96 C97 1.378 . S
C96 H118 0.931 . S
C97 C92 1.377 . S
C97 C96 1.378 . S
C97 H119 0.931 . S
C98 O108 1.259 1_445 S
C98 O109 1.270 . S
C99 O110 1.251 1_545 S
C99 O111 1.251 . S
O100 C80 1.257 . S
O100 Eu81 2.473 . S
O101 C80 1.260 . S
O101 Eu81 2.480 . S
O102 Eu81 2.430 . S
O102 C88 1.259 . S
O103 Eu81 2.670 1_655 S
O103 C88 1.270 1_655 S
O103 Eu91 2.355 1_545 S
O104 Eu81 2.394 . S
O104 C89 1.251 . S
O105 C89 1.251 1_565 S
O105 Eu91 2.374 1_455 S
O106 C90 1.257 . S
O106 Eu91 2.473 . S
O107 C90 1.260 . S
O107 Eu91 2.480 . S
O108 Eu91 2.430 . S
O108 C98 1.259 1_665 S
O109 Eu81 2.355 . S
O109 Eu91 2.670 1_445 S
O109 C98 1.270 . S
O110 Eu91 2.394 . S
O110 C99 1.251 1_565 S
O111 Eu81 2.374 1_655 S
O111 C99 1.251 . S
H112 C83 0.931 . S
H113 C84 0.931 . S
H114 C86 0.931 . S
H115 C87 0.931 . S
H116 C93 0.931 . S
H117 C94 0.931 . S
H118 C96 0.931 . S
H119 C97 0.931 . S
C120 C121 1.391 . S
C120 C122 1.394 . S
C120 H136 0.931 . S
C121 C120 1.391 . S
C121 C125 1.376 1_556 S
C122 C120 1.394 . S
C122 C123 1.369 1_556 S
C122 C126 1.531 1_455 S
C123 C122 1.369 1_554 S
C123 C124 1.410 . S
C123 C131 1.503 . S
C124 C123 1.410 . S
C124 C125 1.392 . S
C124 C127 1.511 . S
C125 C121 1.376 1_554 S
C125 C124 1.392 . S
C125 H137 0.929 . S
C126 C122 1.531 1_655 S
C126 H138 0.960 . S
C126 H139 0.957 1_655 S
C126 H140 0.960 . S
C127 C124 1.511 . S
C127 H141 0.961 . S
C127 H142 0.961 . S
C127 H143 0.961 . S
C128 C129 1.370 . S
C128 C130 1.363 . S
C128 H144 0.917 1_554 S
C129 C128 1.370 . S
C129 C133 1.408 1_455 S
C130 C128 1.363 . S
C130 C131 1.370 . S
C130 C134 1.524 1_554 S
C131 C123 1.503 . S
C131 C130 1.370 . S
C131 C132 1.403 1_455 S
C132 C131 1.403 1_655 S
C132 C133 1.404 . S
C132 C135 1.539 . S
C133 C129 1.408 1_655 S
C133 C132 1.404 . S
C133 H145 0.930 . S
C134 C130 1.524 1_556 S
C134 H146 0.956 . S
C134 H147 0.961 . S
C134 H148 0.961 . S
C135 C132 1.539 . S
C135 H149 0.958 . S
C135 H150 0.961 . S
C135 H151 0.960 . S
H136 C120 0.931 . S
H137 C125 0.929 . S
H138 C126 0.960 . S
H139 C126 0.957 1_455 S
H140 C126 0.960 . S
H141 C127 0.961 . S
H142 C127 0.961 . S
H143 C127 0.961 . S
H144 C128 0.917 1_556 S
H145 C133 0.930 . S
H146 C134 0.956 . S
H147 C134 0.961 . S
H148 C134 0.961 . S
H149 C135 0.958 . S
H150 C135 0.961 . S
H151 C135 0.960 . S
C152 C153 1.391 . S
C152 C154 1.394 1_565 S
C152 H168 0.931 . S
C153 C152 1.391 . S
C153 C157 1.376 1_565 S
C154 C152 1.394 1_545 S
C154 C155 1.369 . S
C154 C158 1.531 1_545 S
C155 C154 1.369 . S
C155 C156 1.410 . S
C155 C163 1.503 . S
C156 C155 1.410 . S
C156 C157 1.392 . S
C156 C159 1.511 . S
C157 C153 1.376 1_545 S
C157 C156 1.392 . S
C157 H169 0.929 . S
C158 C154 1.531 1_565 S
C158 H170 0.960 1_565 S
C158 H171 0.962 . S
C158 H172 0.960 . S
C159 C156 1.511 . S
C159 H173 0.961 . S
C159 H174 0.961 . S
C159 H175 0.961 . S
C160 C161 1.376 . S
C160 C162 1.368 1_545 S
C160 H176 0.920 1_545 S
C161 C160 1.376 . S
C161 C165 1.408 . S
C162 C160 1.368 1_565 S
C162 C163 1.370 1_565 S
C162 C166 1.524 . S
C163 C155 1.503 . S
C163 C162 1.370 1_545 S
C163 C164 1.403 . S
C164 C163 1.403 . S
C164 C165 1.404 . S
C164 C167 1.539 . S
C165 C161 1.408 . S
C165 C164 1.404 . S
C165 H177 0.930 . S
C166 C162 1.524 . S
C166 H178 0.956 . S
C166 H179 0.961 . S
C166 H180 0.961 . S
C167 C164 1.539 . S
C167 H181 0.958 . S
C167 H182 0.961 . S
C167 H183 0.960 . S
H168 C152 0.931 . S
H169 C157 0.929 . S
H170 C158 0.960 1_545 S
H171 C158 0.962 . S
H172 C158 0.960 . S
H173 C159 0.961 . S
H174 C159 0.961 . S
H175 C159 0.961 . S
H176 C160 0.920 1_565 S
H177 C165 0.930 . S
H178 C166 0.956 . S
H179 C166 0.961 . S
H180 C166 0.961 . S
H181 C167 0.958 . S
H182 C167 0.961 . S
H183 C167 0.960 . S
C184 C185 1.391 . S
C184 C186 1.394 . S
C184 H200 0.931 . S
C185 C184 1.391 . S
C185 C189 1.376 . S
C186 C184 1.394 . S
C186 C187 1.369 . S
C186 C190 1.531 . S
C187 C186 1.369 . S
C187 C188 1.410 . S
C187 C195 1.503 . S
C188 C187 1.410 . S
C188 C189 1.392 . S
C188 C191 1.511 . S
C189 C185 1.376 . S
C189 C188 1.392 . S
C189 H201 0.929 . S
C190 C186 1.531 . S
C190 H202 0.960 . S
C190 H203 0.962 . S
C190 H204 0.960 . S
C191 C188 1.511 . S
C191 H205 0.961 . S
C191 H206 0.961 . S
C191 H207 0.961 . S
C192 C193 1.370 . S
C192 C194 1.363 . S
C192 H208 0.931 . S
C193 C192 1.370 . S
C193 C197 1.408 . S
C194 C192 1.363 . S
C194 C195 1.370 . S
C194 C198 1.524 . S
C195 C187 1.503 . S
C195 C194 1.370 . S
C195 C196 1.403 . S
C196 C195 1.403 . S
C196 C197 1.404 . S
C196 C199 1.539 . S
C197 C193 1.408 . S
C197 C196 1.404 . S
C197 H209 0.930 . S
C198 C194 1.524 . S
C198 H210 0.956 . S
C198 H211 0.961 . S
C198 H212 0.961 . S
C199 C196 1.539 . S
C199 H213 0.958 . S
C199 H214 0.961 . S
C199 H215 0.960 . S
H200 C184 0.931 . S
H201 C189 0.929 . S
H202 C190 0.960 . S
H203 C190 0.962 . S
H204 C190 0.960 . S
H205 C191 0.961 . S
H206 C191 0.961 . S
H207 C191 0.961 . S
H208 C192 0.931 . S
H209 C197 0.930 . S
H210 C198 0.956 . S
H211 C198 0.961 . S
H212 C198 0.961 . S
H213 C199 0.958 . S
H214 C199 0.961 . S
H215 C199 0.960 . S
C216 C217 1.391 . S
C216 C218 1.394 . S
C216 H232 0.931 . S
C217 C216 1.391 . S
C217 C221 1.376 . S
C218 C216 1.394 . S
C218 C219 1.369 . S
C218 C222 1.531 . S
C219 C218 1.369 . S
C219 C220 1.410 . S
C219 C227 1.503 . S
C220 C219 1.410 . S
C220 C221 1.392 . S
C220 C223 1.511 1_545 S
C221 C217 1.376 . S
C221 C220 1.392 . S
C221 H233 0.929 1_545 S
C222 C218 1.531 . S
C222 H234 0.960 . S
C222 H235 0.962 . S
C222 H236 0.960 . S
C223 C220 1.511 1_565 S
C223 H237 0.961 . S
C223 H238 0.961 . S
C223 H239 0.961 1_565 S
C224 C225 1.370 1_565 S
C224 C226 1.363 . S
C224 H240 0.931 . S
C225 C224 1.370 1_545 S
C225 C229 1.408 . S
C226 C224 1.363 . S
C226 C227 1.370 1_565 S
C226 C230 1.524 . S
C227 C219 1.503 . S
C227 C226 1.370 1_545 S
C227 C228 1.403 . S
C228 C227 1.403 . S
C228 C229 1.404 . S
C228 C231 1.539 . S
C229 C225 1.408 . S
C229 C228 1.404 . S
C229 H241 0.930 . S
C230 C226 1.524 . S
C230 H242 0.956 . S
C230 H243 0.961 . S
C230 H244 0.961 . S
C231 C228 1.539 . S
C231 H245 0.958 . S
C231 H246 0.961 . S
C231 H247 0.960 . S
H232 C216 0.931 . S
H233 C221 0.929 1_565 S
H234 C222 0.960 . S
H235 C222 0.962 . S
H236 C222 0.960 . S
H237 C223 0.961 . S
H238 C223 0.961 . S
H239 C223 0.961 1_545 S
H240 C224 0.931 . S
H241 C229 0.930 . S
H242 C230 0.956 . S
H243 C230 0.961 . S
H244 C230 0.961 . S
H245 C231 0.958 . S
H246 C231 0.961 . S
H247 C231 0.960 . S
C248 C249 1.391 . S
C248 C250 1.394 . S
C248 H264 0.931 . S
C249 C248 1.391 . S
C249 C253 1.376 . S
C250 C248 1.394 . S
C250 C251 1.369 . S
C250 C254 1.531 . S
C251 C250 1.369 . S
C251 C252 1.410 . S
C251 C259 1.503 . S
C252 C251 1.410 . S
C252 C253 1.392 . S
C252 C255 1.511 . S
C253 C249 1.376 . S
C253 C252 1.392 . S
C253 H265 0.929 . S
C254 C250 1.531 . S
C254 H266 0.960 . S
C254 H267 0.962 1_554 S
C254 H268 0.960 . S
C255 C252 1.511 . S
C255 H269 0.961 1_554 S
C255 H270 0.959 1_554 S
C255 H271 0.961 . S
C256 C257 1.370 1_556 S
C256 C258 1.363 . S
C256 H272 0.931 . S
C257 C256 1.370 1_554 S
C257 C261 1.408 . S
C258 C256 1.363 . S
C258 C259 1.370 1_556 S
C258 C262 1.524 . S
C259 C251 1.503 . S
C259 C258 1.370 1_554 S
C259 C260 1.403 . S
C260 C259 1.403 . S
C260 C261 1.404 . S
C260 C263 1.539 . S
C261 C257 1.408 . S
C261 C260 1.404 . S
C261 H273 0.930 . S
C262 C258 1.524 . S
C262 H274 0.956 . S
C262 H275 0.961 . S
C262 H276 0.961 . S
C263 C260 1.539 . S
C263 H277 0.958 . S
C263 H278 0.961 . S
C263 H279 0.960 . S
H264 C248 0.931 . S
H265 C253 0.929 . S
H266 C254 0.960 . S
H267 C254 0.962 1_556 S
H268 C254 0.960 . S
H269 C255 0.961 1_556 S
H270 C255 0.959 1_556 S
H271 C255 0.961 . S
H272 C256 0.931 . S
H273 C261 0.930 . S
H274 C262 0.956 . S
H275 C262 0.961 . S
H276 C262 0.961 . S
H277 C263 0.958 . S
H278 C263 0.961 . S
H279 C263 0.960 . S
C280 C281 1.391 . S
C280 C282 1.394 . S
C280 H296 0.931 . S
C281 C280 1.391 . S
C281 C285 1.376 1_455 S
C282 C280 1.394 . S
C282 C283 1.369 . S
C282 C286 1.531 . S
C283 C282 1.369 . S
C283 C284 1.410 1_455 S
C283 C291 1.503 . S
C284 C283 1.410 1_655 S
C284 C285 1.392 . S
C284 C287 1.511 . S
C285 C281 1.376 1_655 S
C285 C284 1.392 . S
C285 H297 0.929 . S
C286 C282 1.531 . S
C286 H298 0.960 . S
C286 H299 0.962 . S
C286 H300 0.960 . S
C287 C284 1.511 . S
C287 H301 0.961 . S
C287 H302 0.961 . S
C287 H303 0.961 . S
C288 C289 1.370 . S
C288 C290 1.363 . S
C288 H304 0.931 . S
C289 C288 1.370 . S
C289 C293 1.408 . S
C290 C288 1.363 . S
C290 C291 1.370 . S
C290 C294 1.524 . S
C291 C283 1.503 . S
C291 C290 1.370 . S
C291 C292 1.403 . S
C292 C291 1.403 . S
C292 C293 1.404 . S
C292 C295 1.539 . S
C293 C289 1.408 . S
C293 C292 1.404 . S
C293 H305 0.930 . S
C294 C290 1.524 . S
C294 H306 0.956 . S
C294 H307 0.961 . S
C294 H308 0.961 . S
C295 C292 1.539 . S
C295 H309 0.958 . S
C295 H310 0.961 1_455 S
C295 H311 0.960 1_455 S
H296 C280 0.931 . S
H297 C285 0.929 . S
H298 C286 0.960 . S
H299 C286 0.962 . S
H300 C286 0.960 . S
H301 C287 0.961 . S
H302 C287 0.961 . S
H303 C287 0.961 . S
H304 C288 0.931 . S
H305 C293 0.930 . S
H306 C294 0.956 . S
H307 C294 0.961 . S
H308 C294 0.961 . S
H309 C295 0.958 . S
H310 C295 0.961 1_655 S
H311 C295 0.960 1_655 S
C312 C313 1.391 . S
C312 C314 1.394 . S
C312 H328 0.931 . S
C313 C312 1.391 . S
C313 C317 1.376 1_545 S
C314 C312 1.394 . S
C314 C315 1.369 . S
C314 C318 1.531 . S
C315 C314 1.369 . S
C315 C316 1.410 1_545 S
C315 C323 1.503 . S
C316 C315 1.410 1_565 S
C316 C317 1.392 . S
C316 C319 1.511 1_455 S
C317 C313 1.376 1_565 S
C317 C316 1.392 . S
C317 H329 0.929 1_455 S
C318 C314 1.531 . S
C318 H330 0.960 . S
C318 H331 0.962 . S
C318 H332 0.960 . S
C319 C316 1.511 1_655 S
C319 H333 0.961 . S
C319 H334 0.961 . S
C319 H335 0.961 . S
C320 C321 1.370 . S
C320 C322 1.363 . S
C320 H336 0.931 . S
C321 C320 1.370 . S
C321 C325 1.408 1_545 S
C322 C320 1.363 . S
C322 C323 1.370 . S
C322 C326 1.524 1_455 S
C323 C315 1.503 . S
C323 C322 1.370 . S
C323 C324 1.403 1_545 S
C324 C323 1.403 1_565 S
C324 C325 1.404 . S
C324 C327 1.539 . S
C325 C321 1.408 1_565 S
C325 C324 1.404 . S
C325 H337 0.930 . S
C326 C322 1.524 1_655 S
C326 H338 0.956 1_655 S
C326 H339 0.961 . S
C326 H340 0.961 . S
C327 C324 1.539 . S
C327 H341 0.958 . S
C327 H342 0.961 . S
C327 H343 0.960 . S
H328 C312 0.931 . S
H329 C317 0.929 1_655 S
H330 C318 0.960 . S
H331 C318 0.962 . S
H332 C318 0.960 . S
H333 C319 0.961 . S
H334 C319 0.961 . S
H335 C319 0.961 . S
H336 C320 0.931 . S
H337 C325 0.930 . S
H338 C326 0.956 1_455 S
H339 C326 0.961 . S
H340 C326 0.961 . S
H341 C327 0.958 . S
H342 C327 0.961 . S
H343 C327 0.960 . S
C344 C345 1.391 . S
C344 C346 1.394 1_455 S
C344 H360 0.931 1_455 S
C345 C344 1.391 . S
C345 C349 1.376 1_545 S
C346 C344 1.394 1_655 S
C346 C347 1.369 1_655 S
C346 C350 1.531 . S
C347 C346 1.369 1_455 S
C347 C348 1.410 1_545 S
C347 C355 1.503 . S
C348 C347 1.410 1_565 S
C348 C349 1.392 . S
C348 C351 1.511 . S
C349 C345 1.376 1_565 S
C349 C348 1.392 . S
C349 H361 0.929 . S
C350 C346 1.531 . S
C350 H362 0.960 . S
C350 H363 0.962 . S
C350 H364 0.960 . S
C351 C348 1.511 . S
C351 H365 0.961 . S
C351 H366 0.961 . S
C351 H367 0.961 . S
C352 C353 1.370 . S
C352 C354 1.363 . S
C352 H368 0.931 . S
C353 C352 1.370 . S
C353 C357 1.408 1_445 S
C354 C352 1.363 . S
C354 C355 1.370 . S
C354 C358 1.524 . S
C355 C347 1.503 . S
C355 C354 1.370 . S
C355 C356 1.403 1_445 S
C356 C355 1.403 1_665 S
C356 C357 1.404 . S
C356 C359 1.539 . S
C357 C353 1.408 1_665 S
C357 C356 1.404 . S
C357 H369 0.930 . S
C358 C354 1.524 . S
C358 H370 0.956 . S
C358 H371 0.961 . S
C358 H372 0.961 . S
C359 C356 1.539 . S
C359 H373 0.958 . S
C359 H374 0.961 . S
C359 H375 0.960 . S
H360 C344 0.931 1_655 S
H361 C349 0.929 . S
H362 C350 0.960 . S
H363 C350 0.962 . S
H364 C350 0.960 . S
H365 C351 0.961 . S
H366 C351 0.961 . S
H367 C351 0.961 . S
H368 C352 0.931 . S
H369 C357 0.930 . S
H370 C358 0.956 . S
H371 C358 0.961 . S
H372 C358 0.961 . S
H373 C359 0.958 . S
H374 C359 0.961 . S
H375 C359 0.960 . S
C376 C377 1.391 . S
C376 C378 1.394 . S
C376 H392 0.931 . S
C377 C376 1.391 . S
C377 C381 1.376 1_445 S
C378 C376 1.394 . S
C378 C379 1.369 . S
C378 C382 1.531 . S
C379 C378 1.369 . S
C379 C380 1.410 1_445 S
C379 C387 1.503 . S
C380 C379 1.410 1_665 S
C380 C381 1.392 . S
C380 C383 1.511 . S
C381 C377 1.376 1_665 S
C381 C380 1.392 . S
C381 H393 0.929 . S
C382 C378 1.531 . S
C382 H394 0.960 . S
C382 H395 0.962 . S
C382 H396 0.960 . S
C383 C380 1.511 . S
C383 H397 0.961 . S
C383 H398 0.961 . S
C383 H399 0.961 . S
C384 C385 1.370 1_565 S
C384 C386 1.363 . S
C384 H400 0.931 . S
C385 C384 1.370 1_545 S
C385 C389 1.408 . S
C386 C384 1.363 . S
C386 C387 1.370 1_565 S
C386 C390 1.524 . S
C387 C379 1.503 . S
C387 C386 1.370 1_545 S
C387 C388 1.403 . S
C388 C387 1.403 . S
C388 C389 1.404 . S
C388 C391 1.539 . S
C389 C385 1.408 . S
C389 C388 1.404 . S
C389 H401 0.930 . S
C390 C386 1.524 . S
C390 H402 0.956 . S
C390 H403 0.961 1_455 S
C390 H404 0.961 . S
C391 C388 1.539 . S
C391 H405 0.958 . S
C391 H406 0.961 . S
C391 H407 0.960 . S
H392 C376 0.931 . S
H393 C381 0.929 . S
H394 C382 0.960 . S
H395 C382 0.962 . S
H396 C382 0.960 . S
H397 C383 0.961 . S
H398 C383 0.961 . S
H399 C383 0.961 . S
H400 C384 0.931 . S
H401 C389 0.930 . S
H402 C390 0.956 . S
H403 C390 0.961 1_655 S
H404 C390 0.961 . S
H405 C391 0.958 . S
H406 C391 0.961 . S
H407 C391 0.960 . S
C121 C5 1.095 . S
C129 C15 1.125 . S
C153 C45 1.116 1_565 S
C161 C55 1.120 . S
C185 C95 1.103 . S
C193 C85 1.121 . S
C217 C99 4.810 . S
C225 C89 4.822 . S
C249 C19 4.832 1_554 S
C257 C9 4.836 . S
C281 C59 4.803 . S
C289 C49 4.814 . S
C313 C58 1.471 . S
C321 C8 1.455 . S
C345 C48 1.493 . S
C353 C98 1.444 . S
C377 C88 1.443 . S
C385 C18 1.482 1_545 S
