# Generated by pormake.
# Topology wke, (5)-cn, num edge types: 1
# Building blocks:
#     Node 0, Type 0, BuildingBlock: XOMCOT_clean_sbu_0, # of connection points: 5
#     Node 1, Type 0, BuildingBlock: XOMCOT_clean_sbu_0, # of connection points: 5
#     Node 2, Type 0, BuildingBlock: XOMCOT_clean_sbu_0, # of connection points: 5
#     Node 3, Type 0, BuildingBlock: XOMCOT_clean_sbu_0, # of connection points: 5
#     Node 4, Type 0, BuildingBlock: XOMCOT_clean_sbu_0, # of connection points: 5
#     Node 5, Type 0, BuildingBlock: XOMCOT_clean_sbu_0, # of connection points: 5
#     Node 6, Type 0, BuildingBlock: XOMCOT_clean_sbu_0, # of connection points: 5
#     Node 7, Type 0, BuildingBlock: XOMCOT_clean_sbu_0, # of connection points: 5
#     Node 8, Type 0, BuildingBlock: XOMCOT_clean_sbu_0, # of connection points: 5
#     Node 9, Type 0, BuildingBlock: XOMCOT_clean_sbu_0, # of connection points: 5
#     Node 10, Type 0, BuildingBlock: XOMCOT_clean_sbu_0, # of connection points: 5
#     Node 11, Type 0, BuildingBlock: XOMCOT_clean_sbu_0, # of connection points: 5
#     Edge 12, Type (0, 0), BuildingBlock: ZUJKAS_clean_linker_0, # of connection points: 2
#     Edge 13, Type (0, 0), BuildingBlock: ZUJKAS_clean_linker_0, # of connection points: 2
#     Edge 14, Type (0, 0), BuildingBlock: ZUJKAS_clean_linker_0, # of connection points: 2
#     Edge 15, Type (0, 0), BuildingBlock: ZUJKAS_clean_linker_0, # of connection points: 2
#     Edge 16, Type (0, 0), BuildingBlock: ZUJKAS_clean_linker_0, # of connection points: 2
#     Edge 17, Type (0, 0), BuildingBlock: ZUJKAS_clean_linker_0, # of connection points: 2
#     Edge 18, Type (0, 0), BuildingBlock: ZUJKAS_clean_linker_0, # of connection points: 2
#     Edge 19, Type (0, 0), BuildingBlock: ZUJKAS_clean_linker_0, # of connection points: 2
#     Edge 20, Type (0, 0), BuildingBlock: ZUJKAS_clean_linker_0, # of connection points: 2
#     Edge 21, Type (0, 0), BuildingBlock: ZUJKAS_clean_linker_0, # of connection points: 2
#     Edge 22, Type (0, 0), BuildingBlock: ZUJKAS_clean_linker_0, # of connection points: 2
#     Edge 23, Type (0, 0), BuildingBlock: ZUJKAS_clean_linker_0, # of connection points: 2
#     Edge 24, Type (0, 0), BuildingBlock: ZUJKAS_clean_linker_0, # of connection points: 2
#     Edge 25, Type (0, 0), BuildingBlock: ZUJKAS_clean_linker_0, # of connection points: 2
#     Edge 26, Type (0, 0), BuildingBlock: ZUJKAS_clean_linker_0, # of connection points: 2
#     Edge 27, Type (0, 0), BuildingBlock: ZUJKAS_clean_linker_0, # of connection points: 2
#     Edge 28, Type (0, 0), BuildingBlock: ZUJKAS_clean_linker_0, # of connection points: 2
#     Edge 29, Type (0, 0), BuildingBlock: ZUJKAS_clean_linker_0, # of connection points: 2
#     Edge 30, Type (0, 0), BuildingBlock: ZUJKAS_clean_linker_0, # of connection points: 2
#     Edge 31, Type (0, 0), BuildingBlock: ZUJKAS_clean_linker_0, # of connection points: 2
#     Edge 32, Type (0, 0), BuildingBlock: ZUJKAS_clean_linker_0, # of connection points: 2
#     Edge 33, Type (0, 0), BuildingBlock: ZUJKAS_clean_linker_0, # of connection points: 2
#     Edge 34, Type (0, 0), BuildingBlock: ZUJKAS_clean_linker_0, # of connection points: 2
#     Edge 35, Type (0, 0), BuildingBlock: ZUJKAS_clean_linker_0, # of connection points: 2
#     Edge 36, Type (0, 0), BuildingBlock: ZUJKAS_clean_linker_0, # of connection points: 2
#     Edge 37, Type (0, 0), BuildingBlock: ZUJKAS_clean_linker_0, # of connection points: 2
#     Edge 38, Type (0, 0), BuildingBlock: ZUJKAS_clean_linker_0, # of connection points: 2
#     Edge 39, Type (0, 0), BuildingBlock: ZUJKAS_clean_linker_0, # of connection points: 2
#     Edge 40, Type (0, 0), BuildingBlock: ZUJKAS_clean_linker_0, # of connection points: 2
#     Edge 41, Type (0, 0), BuildingBlock: ZUJKAS_clean_linker_0, # of connection points: 2
# Relax obj value: 0.149
# Max RMSD: 0.152
# Mean RMSD: 0.152
data_MOF--net-wke--node1-XOMCOT_clean_sbu_0--edge1-ZUJKAS_clean_linker_0
_symmetry_space_group_name_H-M    P1
_symmetry_Int_Tables_number       1
_symmetry_cell_setting            triclinic
loop_
_symmetry_equiv_pos_as_xyz
'x, y, z'
_cell_length_a     91.203161
_cell_length_b     91.226417
_cell_length_c     22.035522
_cell_angle_alpha  89.967718
_cell_angle_beta   89.982977
_cell_angle_gamma 120.00813
loop_
_atom_site_label
_atom_site_type_symbol
_atom_site_fract_x
_atom_site_fract_y
_atom_site_fract_z
_atom_type_partial_charge
Co0 Co 0.10824 0.424 0.30186 0.0
C1 C 0.10405 0.42132 0.16883 0.0
C2 C 0.08389 0.39978 0.2139 0.0
C3 C 0.08143 0.39756 0.15211 0.0
N4 N 0.09801 0.4147 0.22417 0.0
N5 N 0.09415 0.41109 0.12381 0.0
H6 H 0.11547 0.43336 0.16185 0.0
H7 H 0.0761 0.39096 0.24878 0.0
C8 C 0.07899 0.41893 0.37735 0.0
O9 O 0.08791 0.43501 0.39216 0.0
N10 N 0.11868 0.43287 0.38098 0.0
C11 C 0.13432 0.44592 0.39315 0.0
C12 C 0.13695 0.447 0.45488 0.0
C13 C 0.11255 0.42564 0.43574 0.0
N14 N 0.12317 0.43429 0.48177 0.0
C15 C 0.12113 0.45946 0.28082 0.0
C16 C 0.09027 0.45722 0.25854 0.0
C17 C 0.10476 0.47327 0.26354 0.0
C18 C 0.12043 0.47423 0.27225 0.0
C19 C 0.09161 0.44275 0.26696 0.0
N20 N 0.10671 0.44407 0.28311 0.0
H21 H 0.13333 0.46047 0.2848 0.0
H22 H 0.08036 0.43046 0.26263 0.0
H23 H 0.14368 0.45374 0.36001 0.0
H24 H 0.10076 0.41391 0.44183 0.0
O25 O 0.13014 0.43116 0.26747 0.0
O26 O 0.11377 0.40624 0.31127 0.0
O27 O 0.08512 0.41235 0.34135 0.0
C28 C 0.12795 0.41651 0.28391 0.0
H29 H 0.07134 0.38657 0.12979 0.0
H30 H 0.14821 0.45642 0.47796 0.0
H31 H 0.07793 0.4558 0.25013 0.0
H32 H 0.1321 0.4863 0.27249 0.0
Co33 Co 0.68018 0.11041 0.80268 0.0
C34 C 0.67892 0.10633 0.66968 0.0
C35 C 0.68088 0.0865 0.71473 0.0
C36 C 0.68079 0.08412 0.65294 0.0
N37 N 0.67963 0.10038 0.72499 0.0
N38 N 0.67961 0.09663 0.62465 0.0
H39 H 0.67796 0.11756 0.66274 0.0
H40 H 0.68212 0.07885 0.74963 0.0
C41 C 0.65619 0.08094 0.87779 0.0
O42 O 0.6488 0.08965 0.89264 0.0
N43 N 0.68136 0.12065 0.88181 0.0
C44 C 0.68324 0.13598 0.89441 0.0
C45 C 0.68468 0.13849 0.95621 0.0
C46 C 0.68275 0.1146 0.93632 0.0
N47 N 0.68424 0.12496 0.98266 0.0
C48 C 0.65739 0.12293 0.77943 0.0
C49 C 0.62901 0.09191 0.75693 0.0
C50 C 0.62731 0.10635 0.76002 0.0
C51 C 0.64192 0.12209 0.76912 0.0
C52 C 0.64483 0.09339 0.76708 0.0
N53 N 0.65848 0.10859 0.78312 0.0
H54 H 0.66852 0.13519 0.78325 0.0
H55 H 0.64598 0.08219 0.76364 0.0
H56 H 0.68433 0.14523 0.86159 0.0
H57 H 0.68318 0.10305 0.94195 0.0
O58 O 0.69483 0.13244 0.76887 0.0
O59 O 0.70355 0.11624 0.81284 0.0
O60 O 0.6689 0.08724 0.84174 0.0
C61 C 0.70737 0.13041 0.78563 0.0
H62 H 0.68204 0.07424 0.63063 0.0
H63 H 0.68599 0.14951 0.97963 0.0
H64 H 0.6182 0.07952 0.74831 0.0
H65 H 0.64145 0.13371 0.76794 0.0
Co66 Co 0.56784 0.68165 0.31047 0.0
C67 C 0.57057 0.68004 0.17524 0.0
C68 C 0.59388 0.68722 0.22115 0.0
C69 C 0.59671 0.68776 0.15968 0.0
N70 N 0.57738 0.68196 0.23117 0.0
N71 N 0.58204 0.68328 0.13088 0.0
H72 H 0.55775 0.67694 0.16645 0.0
H73 H 0.60337 0.69093 0.25627 0.0
C74 C 0.58356 0.66017 0.32575 0.0
O75 O 0.57635 0.65289 0.27421 0.0
N76 N 0.55892 0.68196 0.38942 0.0
C77 C 0.54346 0.67967 0.40173 0.0
C78 C 0.5418 0.68015 0.46368 0.0
C79 C 0.56651 0.68388 0.4436 0.0
N80 N 0.55629 0.68276 0.48999 0.0
C81 C 0.53614 0.657 0.25695 0.0
C82 C 0.53022 0.63068 0.33394 0.0
C83 C 0.51817 0.62799 0.28948 0.0
C84 C 0.52124 0.64143 0.25082 0.0
C85 C 0.54494 0.64642 0.33835 0.0
N86 N 0.54822 0.65916 0.29825 0.0
H87 H 0.53743 0.66753 0.23067 0.0
H88 H 0.55337 0.64847 0.37581 0.0
H89 H 0.53395 0.67748 0.36804 0.0
H90 H 0.57924 0.68606 0.44882 0.0
O91 O 0.55871 0.6951 0.2788 0.0
O92 O 0.58435 0.70541 0.31858 0.0
O93 O 0.58142 0.67196 0.34739 0.0
C94 C 0.57308 0.70826 0.29354 0.0
H95 H 0.60879 0.69184 0.13791 0.0
H96 H 0.53059 0.67824 0.48744 0.0
H97 H 0.52822 0.6208 0.36577 0.0
H98 H 0.51187 0.64018 0.21784 0.0
Co99 Co 0.88301 0.57032 0.80532 0.0
C100 C 0.88712 0.57351 0.66998 0.0
C101 C 0.90377 0.5965 0.71669 0.0
C102 C 0.90599 0.59953 0.65531 0.0
N103 N 0.89222 0.58007 0.72614 0.0
N104 N 0.89549 0.58505 0.6259 0.0
H105 H 0.87686 0.56095 0.66093 0.0
H106 H 0.90992 0.60578 0.75219 0.0
C107 C 0.92019 0.58504 0.81899 0.0
O108 O 0.92004 0.57802 0.76674 0.0
N109 N 0.8738 0.56114 0.88418 0.0
C110 C 0.86039 0.54576 0.8957 0.0
C111 C 0.85833 0.54371 0.95759 0.0
C112 C 0.87966 0.56832 0.93887 0.0
N113 N 0.87047 0.55789 0.98469 0.0
C114 C 0.87463 0.53854 0.74896 0.0
C115 C 0.89533 0.53177 0.82092 0.0
C116 C 0.88559 0.5201 0.77595 0.0
C117 C 0.87496 0.52354 0.74017 0.0
C118 C 0.89454 0.54653 0.82833 0.0
N119 N 0.885 0.55029 0.79039 0.0
H120 H 0.86544 0.54028 0.7242 0.0
H121 H 0.90117 0.5546 0.86629 0.0
H122 H 0.85278 0.53661 0.86145 0.0
H123 H 0.89064 0.58075 0.94495 0.0
O124 O 0.86043 0.5622 0.77486 0.0
O125 O 0.87674 0.58745 0.81622 0.0
O126 O 0.9064 0.58306 0.84153 0.0
C127 C 0.86237 0.57677 0.79117 0.0
H128 H 0.91455 0.61154 0.63417 0.0
H129 H 0.84858 0.53265 0.98077 0.0
H130 H 0.90305 0.52922 0.85174 0.0
H131 H 0.86679 0.51463 0.70615 0.0
Co132 Co 0.30965 0.88536 0.29911 0.0
C133 C 0.31055 0.88943 0.16388 0.0
C134 C 0.30371 0.90573 0.2104 0.0
C135 C 0.30278 0.90782 0.14899 0.0
N136 N 0.30897 0.89448 0.21998 0.0
N137 N 0.30707 0.89753 0.1197 0.0
H138 H 0.31309 0.87932 0.15499 0.0
H139 H 0.30034 0.91172 0.24581 0.0
C140 C 0.33111 0.9227 0.31394 0.0
O141 O 0.33826 0.92311 0.26167 0.0
N142 N 0.30977 0.87622 0.37795 0.0
C143 C 0.31215 0.86307 0.38953 0.0
C144 C 0.31221 0.86106 0.45144 0.0
C145 C 0.30826 0.88196 0.43261 0.0
N146 N 0.30979 0.87297 0.47848 0.0
C147 C 0.33375 0.87788 0.24341 0.0
C148 C 0.36087 0.89899 0.31612 0.0
C149 C 0.36314 0.88933 0.2717 0.0
C150 C 0.34927 0.87854 0.2354 0.0
C151 C 0.34513 0.89786 0.32274 0.0
N152 N 0.33199 0.88806 0.28461 0.0
H153 H 0.32299 0.86854 0.21836 0.0
H154 H 0.34342 0.90439 0.36046 0.0
H155 H 0.31397 0.85562 0.35532 0.0
H156 H 0.3065 0.89275 0.43865 0.0
O157 O 0.29574 0.86272 0.26836 0.0
O158 O 0.28607 0.87845 0.30952 0.0
O159 O 0.31962 0.90862 0.33572 0.0
C160 C 0.28283 0.86422 0.28449 0.0
H161 H 0.29901 0.91612 0.12777 0.0
H162 H 0.31386 0.85153 0.47466 0.0
H163 H 0.37097 0.90684 0.34724 0.0
H164 H 0.35031 0.87047 0.2017 0.0
Co165 Co 0.42341 0.31184 0.802 0.0
C166 C 0.41968 0.31194 0.66894 0.0
C167 C 0.39769 0.30917 0.71499 0.0
C168 C 0.39504 0.30882 0.65329 0.0
N169 N 0.41314 0.31117 0.72459 0.0
N170 N 0.40887 0.31053 0.62424 0.0
H171 H 0.43198 0.31317 0.66164 0.0
H172 H 0.3889 0.30793 0.75032 0.0
C173 C 0.41784 0.33615 0.87411 0.0
O174 O 0.43408 0.34402 0.88711 0.0
N175 N 0.4333 0.31187 0.88092 0.0
C176 C 0.44705 0.31042 0.8928 0.0
C177 C 0.44866 0.30953 0.95459 0.0
C178 C 0.42624 0.31076 0.93609 0.0
N179 N 0.43561 0.30985 0.98191 0.0
C180 C 0.45843 0.33532 0.77473 0.0
C181 C 0.4542 0.36258 0.74809 0.0
C182 C 0.47062 0.36502 0.7507 0.0
C183 C 0.4726 0.351 0.76202 0.0
C184 C 0.44037 0.34661 0.76054 0.0
N185 N 0.44271 0.33357 0.77861 0.0
H186 H 0.46015 0.3246 0.78073 0.0
H187 H 0.42777 0.34486 0.75728 0.0
H188 H 0.45491 0.30902 0.85953 0.0
H189 H 0.41432 0.31041 0.94264 0.0
O190 O 0.43101 0.29717 0.7699 0.0
O191 O 0.4064 0.28854 0.81632 0.0
O192 O 0.41137 0.32305 0.84004 0.0
C193 C 0.41672 0.28468 0.78926 0.0
H194 H 0.38379 0.3075 0.63171 0.0
H195 H 0.45836 0.30806 0.97741 0.0
H196 H 0.45206 0.37292 0.73685 0.0
H197 H 0.48502 0.35218 0.76255 0.0
Co198 Co 0.57025 0.88634 0.20702 0.0
C199 C 0.57382 0.89052 0.34238 0.0
C200 C 0.5976 0.9029 0.29562 0.0
C201 C 0.6007 0.90501 0.357 0.0
N202 N 0.58073 0.89406 0.28624 0.0
N203 N 0.58572 0.89717 0.38631 0.0
H204 H 0.56049 0.88309 0.35172 0.0
H205 H 0.60704 0.90729 0.26005 0.0
C206 C 0.58899 0.92402 0.19958 0.0
O207 O 0.58402 0.9244 0.25523 0.0
N208 N 0.56033 0.87855 0.12805 0.0
C209 C 0.54427 0.86658 0.11587 0.0
C210 C 0.54232 0.86485 0.05387 0.0
C211 C 0.56798 0.8839 0.07373 0.0
N212 N 0.55723 0.87575 0.02738 0.0
C213 C 0.53906 0.87905 0.26447 0.0
C214 C 0.53449 0.90266 0.2016 0.0
C215 C 0.52186 0.89171 0.24191 0.0
C216 C 0.52432 0.87982 0.2737 0.0
C217 C 0.54902 0.90143 0.19358 0.0
N218 N 0.55152 0.89013 0.22641 0.0
H219 H 0.54004 0.86898 0.28612 0.0
H220 H 0.55767 0.90894 0.15812 0.0
H221 H 0.53465 0.85966 0.14969 0.0
H222 H 0.58118 0.8934 0.06847 0.0
O223 O 0.56047 0.86323 0.23396 0.0
O224 O 0.58578 0.87815 0.1914 0.0
O225 O 0.5844 0.9099 0.17324 0.0
C226 C 0.57434 0.86394 0.21541 0.0
H227 H 0.61303 0.91133 0.37838 0.0
H228 H 0.53071 0.85639 0.03029 0.0
H229 H 0.53278 0.91154 0.17405 0.0
H230 H 0.51476 0.87088 0.30449 0.0
Co231 Co 0.68185 0.56988 0.70538 0.0
C232 C 0.68068 0.57286 0.83851 0.0
C233 C 0.6822 0.5944 0.79301 0.0
C234 C 0.68228 0.59683 0.85475 0.0
N235 N 0.68116 0.57936 0.78302 0.0
N236 N 0.68138 0.5833 0.88345 0.0
H237 H 0.6803 0.56094 0.84557 0.0
H238 H 0.68311 0.60311 0.75794 0.0
C239 C 0.65776 0.57485 0.629 0.0
O240 O 0.65128 0.55897 0.61211 0.0
N241 N 0.6832 0.56077 0.62643 0.0
C242 C 0.68491 0.54717 0.61477 0.0
C243 C 0.68635 0.54584 0.55314 0.0
C244 C 0.68477 0.56808 0.57144 0.0
N245 N 0.68611 0.55893 0.52574 0.0
C246 C 0.65929 0.5345 0.73006 0.0
C247 C 0.63063 0.53693 0.74875 0.0
C248 C 0.62903 0.52083 0.74624 0.0
C249 C 0.64377 0.5198 0.73932 0.0
C250 C 0.64646 0.5513 0.73975 0.0
N251 N 0.66026 0.54987 0.72525 0.0
H252 H 0.67051 0.53349 0.72762 0.0
H253 H 0.64749 0.5636 0.74277 0.0
H254 H 0.68594 0.53912 0.64817 0.0
H255 H 0.68487 0.57987 0.5649 0.0
O256 O 0.69679 0.5629 0.73926 0.0
O257 O 0.70507 0.58767 0.69474 0.0
O258 O 0.67012 0.58135 0.66651 0.0
C259 C 0.70915 0.57754 0.72212 0.0
H260 H 0.68296 0.60777 0.87661 0.0
H261 H 0.68797 0.53622 0.5305 0.0
H262 H 0.61971 0.53845 0.75572 0.0
H263 H 0.64335 0.50773 0.74102 0.0
Co264 Co 0.10834 0.68267 0.20156 0.0
C265 C 0.1044 0.68216 0.33462 0.0
C266 C 0.08478 0.68434 0.28895 0.0
C267 C 0.08255 0.6847 0.35071 0.0
N268 N 0.09846 0.68272 0.27909 0.0
N269 N 0.09492 0.68337 0.37948 0.0
H270 H 0.1157 0.68134 0.34176 0.0
H271 H 0.07711 0.68543 0.25379 0.0
C272 C 0.07923 0.65863 0.12613 0.0
O273 O 0.08854 0.65194 0.1105 0.0
N274 N 0.11852 0.6833 0.12263 0.0
C275 C 0.13341 0.68408 0.11057 0.0
C276 C 0.13606 0.68533 0.04884 0.0
C277 C 0.11295 0.6852 0.06778 0.0
N278 N 0.1231 0.68589 0.0218 0.0
C279 C 0.12045 0.6597 0.22971 0.0
C280 C 0.08903 0.63171 0.25097 0.0
C281 C 0.10332 0.62976 0.25057 0.0
C282 C 0.11926 0.64414 0.24192 0.0
C283 C 0.09085 0.64756 0.23899 0.0
N284 N 0.10626 0.661 0.22352 0.0
H285 H 0.13282 0.67071 0.22618 0.0
H286 H 0.07976 0.64892 0.24118 0.0
H287 H 0.14233 0.6846 0.14367 0.0
H288 H 0.10159 0.68595 0.06159 0.0
O289 O 0.13044 0.69744 0.23438 0.0
O290 O 0.11428 0.70597 0.18892 0.0
O291 O 0.08509 0.67111 0.16312 0.0
C292 C 0.12847 0.70989 0.21606 0.0
H293 H 0.07254 0.68584 0.37253 0.0
H294 H 0.14699 0.68626 0.02587 0.0
H295 H 0.07656 0.62108 0.2604 0.0
H296 H 0.13071 0.64335 0.24329 0.0
Co297 Co 0.41879 0.10718 0.71134 0.0
C298 C 0.41589 0.10299 0.84643 0.0
C299 C 0.39289 0.08601 0.80049 0.0
C300 C 0.39 0.08391 0.86198 0.0
N301 N 0.40926 0.09766 0.79048 0.0
N302 N 0.40449 0.09462 0.89089 0.0
H303 H 0.42832 0.11355 0.85502 0.0
H304 H 0.38349 0.07982 0.76539 0.0
C305 C 0.40284 0.06999 0.69269 0.0
O306 O 0.40989 0.06931 0.74383 0.0
N307 N 0.42778 0.11676 0.63263 0.0
C308 C 0.44327 0.13003 0.62118 0.0
C309 C 0.44529 0.1322 0.55932 0.0
C310 C 0.42052 0.1111 0.57791 0.0
N311 N 0.431 0.12026 0.53215 0.0
C312 C 0.45023 0.11325 0.765 0.0
C313 C 0.45596 0.09349 0.68421 0.0
C314 C 0.46797 0.10224 0.72946 0.0
C315 C 0.46499 0.11226 0.77018 0.0
C316 C 0.44141 0.09482 0.68078 0.0
N317 N 0.43824 0.10399 0.7225 0.0
H318 H 0.44901 0.12224 0.79294 0.0
H319 H 0.43304 0.08893 0.64277 0.0
H320 H 0.45255 0.13738 0.65544 0.0
H321 H 0.40805 0.10021 0.5717 0.0
O322 O 0.42802 0.12966 0.74421 0.0
O323 O 0.40237 0.1145 0.7042 0.0
O324 O 0.4051 0.08416 0.67312 0.0
C325 C 0.41365 0.12852 0.72963 0.0
H326 H 0.37805 0.07536 0.88351 0.0
H327 H 0.45646 0.14181 0.53621 0.0
H328 H 0.45789 0.08589 0.65093 0.0
H329 H 0.47433 0.11989 0.80399 0.0
Co330 Co 0.30869 0.42059 0.20744 0.0
C331 C 0.30917 0.41704 0.34285 0.0
C332 C 0.29879 0.39336 0.29601 0.0
C333 C 0.29774 0.39024 0.35736 0.0
N334 N 0.30623 0.41019 0.28668 0.0
N335 N 0.30427 0.40515 0.38685 0.0
H336 H 0.31404 0.43024 0.35204 0.0
H337 H 0.29426 0.38395 0.26038 0.0
C338 C 0.32852 0.40279 0.20013 0.0
O339 O 0.33397 0.408 0.25549 0.0
N340 N 0.31055 0.43045 0.12844 0.0
C341 C 0.31416 0.44638 0.11642 0.0
C342 C 0.31472 0.4485 0.05444 0.0
C343 C 0.30879 0.42302 0.07401 0.0
N344 N 0.31135 0.43381 0.02786 0.0
C345 C 0.33228 0.45194 0.2653 0.0
C346 C 0.36049 0.4571 0.20111 0.0
C347 C 0.36212 0.46947 0.24249 0.0
C348 C 0.34775 0.46673 0.27494 0.0
C349 C 0.34482 0.44251 0.19299 0.0
N350 N 0.33102 0.43968 0.22657 0.0
H351 H 0.32115 0.4508 0.28695 0.0
H352 H 0.34374 0.434 0.15716 0.0
H353 H 0.31632 0.45581 0.15038 0.0
H354 H 0.30599 0.41008 0.06842 0.0
O355 O 0.29481 0.42977 0.23433 0.0
O356 O 0.28517 0.40455 0.19187 0.0
O357 O 0.31864 0.40694 0.17385 0.0
C358 C 0.28193 0.41566 0.21577 0.0
H359 H 0.29252 0.37792 0.37842 0.0
H360 H 0.31722 0.45993 0.03083 0.0
H361 H 0.37117 0.45882 0.1741 0.0
H362 H 0.34825 0.47628 0.30543 0.0
Co363 Co 0.88438 0.31093 0.7071 0.0
C364 C 0.88859 0.31158 0.84246 0.0
C365 C 0.90138 0.30063 0.79567 0.0
C366 C 0.90356 0.29971 0.85705 0.0
N367 N 0.89223 0.30834 0.78631 0.0
N368 N 0.89547 0.30656 0.88638 0.0
H369 H 0.88095 0.31725 0.85179 0.0
H370 H 0.90596 0.29578 0.76009 0.0
C371 C 0.92207 0.33074 0.70029 0.0
O372 O 0.92229 0.33594 0.75604 0.0
N373 N 0.87649 0.31293 0.62813 0.0
C374 C 0.86417 0.31654 0.61609 0.0
C375 C 0.86255 0.31699 0.55412 0.0
C376 C 0.88215 0.31113 0.57372 0.0
N377 N 0.87386 0.31358 0.52744 0.0
C378 C 0.87607 0.33406 0.7649 0.0
C379 C 0.89939 0.36272 0.70343 0.0
C380 C 0.88818 0.36394 0.74374 0.0
C381 C 0.8764 0.34934 0.77472 0.0
C382 C 0.89858 0.34718 0.69478 0.0
N383 N 0.88744 0.33314 0.72701 0.0
H384 H 0.86613 0.3228 0.78611 0.0
H385 H 0.90631 0.34638 0.65941 0.0
H386 H 0.85697 0.31881 0.65001 0.0
H387 H 0.89199 0.30791 0.56833 0.0
O388 O 0.8613 0.29693 0.73358 0.0
O389 O 0.87696 0.28742 0.69084 0.0
O390 O 0.90805 0.32104 0.67369 0.0
C391 C 0.86257 0.2841 0.71471 0.0
H392 H 0.91012 0.29394 0.87842 0.0
H393 H 0.8539 0.3199 0.53069 0.0
H394 H 0.90818 0.37349 0.67642 0.0
H395 H 0.86727 0.34961 0.80546 0.0
H396 H 0.05712 0.42879 0.41732 0.0
H397 H 0.03036 0.41168 0.47074 0.0
H398 H 0.03712 0.3682 0.45884 0.0
H399 H 0.06352 0.38512 0.40236 0.0
H400 H 0.00545 0.35878 0.44043 0.0
H401 H 0.02623 0.39912 0.64487 0.0
H402 H 0.02732 0.41126 0.5794 0.0
H403 H 0.04058 0.40183 0.58402 0.0
C404 C 0.05284 0.41556 0.4259 0.0
C405 C 0.0624 0.40828 0.40622 0.0
C406 C 0.03763 0.40583 0.45689 0.0
C407 C 0.03199 0.38878 0.47055 0.0
C408 C 0.0413 0.38136 0.4493 0.0
H409 H 0.95325 0.34006 0.74556 0.0
H410 H 0.97998 0.35195 0.68968 0.0
C411 C 0.05635 0.39101 0.41702 0.0
C412 C 0.01636 0.37876 0.50682 0.0
H413 H -0.00362 0.37998 0.6359 0.0
C414 C 0.00352 0.36331 0.48354 0.0
C415 C 0.014 0.38441 0.56389 0.0
C416 C 0.02786 0.39996 0.59478 0.0
C417 C 0.98818 0.35365 0.51471 0.0
C418 C 0.98533 0.36 0.56942 0.0
C419 C -0.0016 0.37518 0.59357 0.0
C420 C 0.96887 0.35137 0.60212 0.0
C421 C 0.97539 0.33666 0.489 0.0
C422 C 0.95368 0.34697 0.57167 0.0
C423 C 0.93836 0.33976 0.60331 0.0
C424 C 0.93805 0.33736 0.66635 0.0
C425 C 0.9532 0.34184 0.69697 0.0
C426 C 0.96845 0.34863 0.66505 0.0
H427 H 0.98169 0.3311 0.46185 0.0
H428 H 0.96783 0.32756 0.52535 0.0
H429 H 0.96668 0.33829 0.45824 0.0
H430 H 0.95369 0.3495 0.52367 0.0
H431 H 0.92686 0.33661 0.57881 0.0
H432 H 0.62459 0.05881 0.91859 0.0
H433 H 0.61527 0.03203 0.97144 0.0
H434 H 0.66569 0.03929 0.95734 0.0
H435 H 0.67483 0.06571 0.90146 0.0
H436 H 0.64357 0.00754 0.93879 0.0
H437 H 0.62417 0.02782 0.14502 0.0
H438 H 0.61292 0.02887 0.08011 0.0
H439 H 0.6356 0.04228 0.08413 0.0
C440 C 0.63365 0.05464 0.92657 0.0
C441 C 0.65044 0.06435 0.90643 0.0
C442 C 0.62836 0.03942 0.95724 0.0
C443 C 0.63991 0.0339 0.97011 0.0
C444 C 0.65659 0.04336 0.94842 0.0
H445 H 0.6111 0.95519 0.24423 0.0
H446 H 0.62577 0.98188 0.18816 0.0
C447 C 0.6618 0.05843 0.91647 0.0
C448 C 0.6345 0.01825 1.00606 0.0
H449 H 0.61373 -0.00195 0.13554 0.0
C450 C 0.63721 0.00553 0.98216 0.0
C451 C 0.62662 0.01577 0.06346 0.0
C452 C 0.62485 0.02951 0.09495 0.0
C453 C 0.63173 0.99018 0.01309 0.0
C454 C 0.62267 0.9872 0.06821 0.0
C455 C 0.62046 0.00016 0.09292 0.0
C456 C 0.61507 0.97074 0.10083 0.0
C457 C 0.63603 0.97753 0.98666 0.0
C458 C 0.60428 0.95552 0.07055 0.0
C459 C 0.59628 0.94021 0.10231 0.0
C460 C 0.59846 0.93993 0.1653 0.0
C461 C 0.60919 0.9551 0.19568 0.0
C462 C 0.61755 0.97034 0.16365 0.0
H463 H 0.64779 0.98393 0.95905 0.0
H464 H 0.63774 0.97 0.02264 0.0
H465 H 0.62563 0.96877 0.95618 0.0
H466 H 0.60164 0.9555 0.02266 0.0
H467 H 0.58787 0.92869 0.07798 0.0
H468 H 0.66582 0.60711 0.66056 0.0
H469 H 0.65382 0.62375 0.61879 0.0
H470 H 0.62233 0.58258 0.49856 0.0
H471 H 0.63396 0.56582 0.54043 0.0
H472 H 0.65414 0.63414 0.50025 0.0
H473 H 0.58824 0.59274 0.57869 0.0
H474 H 0.60581 0.59104 0.6081 0.0
H475 H 0.59618 0.5813 0.53695 0.0
C476 C 0.65628 0.60158 0.62542 0.0
C477 C 0.65074 0.58509 0.60412 0.0
C478 C 0.64945 0.61111 0.60165 0.0
C479 C 0.63695 0.60426 0.55648 0.0
C480 C 0.63163 0.58793 0.53453 0.0
H481 H 0.58834 0.63378 0.29688 0.0
H482 H 0.60229 0.62193 0.35783 0.0
C483 C 0.63838 0.5784 0.55832 0.0
C484 C 0.62975 0.61426 0.53052 0.0
H485 H 0.5922 0.61237 0.49887 0.0
C486 C 0.64063 0.62955 0.5008 0.0
C487 C 0.61213 0.60829 0.53172 0.0
C488 C 0.59994 0.59253 0.56614 0.0
C489 C 0.63422 0.63855 0.46954 0.0
C490 C 0.61657 0.63207 0.46819 0.0
C491 C 0.60575 0.61718 0.49981 0.0
C492 C 0.60896 0.63995 0.43093 0.0
C493 C 0.64619 0.65457 0.43609 0.0
C494 C 0.6082 0.65404 0.45215 0.0
C495 C 0.60018 0.66084 0.41755 0.0
C496 C 0.59282 0.65362 0.36124 0.0
C497 C 0.59388 0.63965 0.33996 0.0
C498 C 0.60183 0.63285 0.37465 0.0
H499 H 0.6596 0.65777 0.44054 0.0
H500 H 0.64279 0.65318 0.3872 0.0
H501 H 0.64493 0.66526 0.45399 0.0
H502 H 0.6136 0.65959 0.49576 0.0
H503 H 0.59955 0.67159 0.43527 0.0
H504 H 0.0548 0.66646 0.15687 0.0
H505 H 0.02633 0.65452 0.11334 0.0
H506 H 0.03687 0.62378 0.99235 0.0
H507 H 0.06504 0.63532 0.03596 0.0
H508 H 0.01672 0.65522 0.9945 0.0
H509 H 0.99246 0.58912 0.06968 0.0
H510 H 0.01153 0.60666 0.10034 0.0
H511 H 0.01203 0.59736 0.02887 0.0
C512 C 0.051 0.6571 0.12117 0.0
C513 C 0.0621 0.65172 0.10021 0.0
C514 C 0.03476 0.65031 0.09641 0.0
C515 C 0.0294 0.63802 0.05055 0.0
C516 C 0.04059 0.6329 0.02886 0.0
H517 H 0.95082 0.58819 0.79148 0.0
H518 H 0.97676 0.602 0.85181 0.0
C519 C 0.05674 0.63959 0.05367 0.0
C520 C 0.01231 0.6308 0.02371 0.0
H521 H 0.977 0.59322 0.98959 0.0
C522 C 0.0079 0.6417 0.99423 0.0
C523 C 0.00081 0.61315 0.0238 0.0
C524 C 0.00436 0.60091 0.05793 0.0
C525 C 0.9926 0.63529 0.96224 0.0
C526 C 0.98155 0.61763 0.95995 0.0
C527 C 0.98565 0.60678 0.99117 0.0
C528 C 0.96603 0.61005 0.92292 0.0
C529 C 0.98856 0.64731 0.92912 0.0
C530 C 0.95149 0.61008 0.94328 0.0
C531 C 0.9366 0.60213 0.90912 0.0
C532 C 0.93608 0.59407 0.85405 0.0
C533 C 0.95079 0.5943 0.83358 0.0
C534 C 0.96562 0.60216 0.86793 0.0
H535 H -0.00098 0.66065 0.93212 0.0
H536 H 0.98598 0.64366 0.88056 0.0
H537 H 0.97694 0.64646 0.9487 0.0
H538 H 0.95162 0.61604 0.98593 0.0
H539 H 0.92547 0.60217 0.92613 0.0
H540 H 0.39695 0.03812 0.71712 0.0
H541 H 0.38366 0.01336 0.6507 0.0
H542 H 0.37522 0.04252 0.51544 0.0
H543 H 0.38832 0.06732 0.58164 0.0
H544 H 0.34707 0.00958 0.536 0.0
H545 H 0.40683 0.00882 0.49616 0.0
H546 H 0.40154 0.00881 0.57473 0.0
H547 H 0.40644 0.02685 0.52806 0.0
C548 C 0.3922 0.03926 0.6734 0.0
C549 C 0.39381 0.05472 0.65448 0.0
C550 C 0.38468 0.02513 0.63544 0.0
C551 C 0.37874 0.02624 0.57791 0.0
C552 C 0.37983 0.04148 0.55961 0.0
H553 H 0.35576 0.95475 0.2834 0.0
H554 H 0.36661 0.98036 0.3452 0.0
C555 C 0.38734 0.05562 0.59751 0.0
C556 C 0.37161 0.01158 0.53641 0.0
H557 H 0.38158 0.98536 0.45902 0.0
C558 C 0.35459 0.00429 0.51894 0.0
C559 C 0.38158 0.00493 0.51361 0.0
C560 C 0.40016 0.01282 0.52855 0.0
C561 C 0.34714 0.99021 0.4802 0.0
C562 C 0.35696 0.98319 0.45918 0.0
C563 C 0.37407 0.99072 0.47561 0.0
C564 C 0.34971 0.96789 0.4207 0.0
C565 C 0.3289 0.98308 0.46161 0.0
C566 C 0.33666 0.95242 0.4429 0.0
C567 C 0.33042 0.93778 0.40777 0.0
C568 C 0.33722 0.93834 0.34994 0.0
C569 C 0.35023 0.9539 0.3277 0.0
C570 C 0.35645 0.96853 0.36291 0.0
H571 H 0.32462 0.99244 0.46801 0.0
H572 H 0.327 0.97903 0.41337 0.0
H573 H 0.32077 0.97185 0.49005 0.0
H574 H 0.33153 0.9516 0.48792 0.0
H575 H 0.32045 0.926 0.42639 0.0
H576 H 0.42689 0.36793 0.91122 0.0
H577 H 0.40945 0.37704 0.96537 0.0
H578 H 0.36706 0.32602 0.95918 0.0
H579 H 0.38428 0.31704 0.90212 0.0
H580 H 0.35649 0.34745 0.94042 0.0
H581 H 0.39833 0.36916 0.14104 0.0
H582 H 0.40979 0.38006 0.07422 0.0
H583 H 0.40103 0.35748 0.08034 0.0
C584 C 0.41383 0.3587 0.92118 0.0
C585 C 0.40694 0.34177 0.90302 0.0
C586 C 0.40391 0.36387 0.95256 0.0
C587 C 0.38711 0.35211 0.96807 0.0
C588 C 0.38005 0.33529 0.94821 0.0
H589 H 0.33856 0.3815 0.24559 0.0
H590 H 0.35054 0.36679 0.18948 0.0
C591 C 0.38987 0.33017 0.91558 0.0
C592 C 0.37697 0.35741 1.00497 0.0
H593 H 0.37838 0.37889 0.13341 0.0
C594 C 0.36117 0.35416 0.98299 0.0
C595 C 0.38284 0.36574 0.06139 0.0
C596 C 0.39883 0.36812 0.09092 0.0
C597 C 0.35139 0.35957 0.01476 0.0
C598 C 0.35791 0.3691 0.0687 0.0
C599 C 0.37344 0.37182 0.09165 0.0
C600 C 0.34916 0.37674 0.10164 0.0
C601 C 0.33408 0.35476 0.99046 0.0
C602 C 0.3443 0.38715 0.07107 0.0
C603 C 0.33706 0.39519 0.10288 0.0
C604 C 0.33509 0.39342 0.16612 0.0
C605 C 0.34001 0.38309 0.19682 0.0
C606 C 0.34684 0.3747 0.16479 0.0
H607 H 0.32863 0.34279 0.96412 0.0
H608 H 0.32515 0.35317 0.02753 0.0
H609 H 0.3352 0.36482 0.95926 0.0
H610 H 0.3465 0.38945 0.02283 0.0
H611 H 0.33358 0.40329 0.07828 0.0
H612 H 0.08013 0.60032 0.19649 0.0
H613 H 0.07877 0.57288 0.20035 0.0
H614 H 0.12136 0.59349 0.32273 0.0
H615 H 0.12286 0.62102 0.31885 0.0
H616 H 0.12524 0.57691 0.2255 0.0
H617 H 0.06236 0.53702 0.33267 0.0
H618 H 0.06193 0.54846 0.26704 0.0
H619 H 0.07313 0.55985 0.33386 0.0
C620 C 0.08899 0.59891 0.22521 0.0
C621 C 0.1016 0.61281 0.25741 0.0
C622 C 0.08817 0.58322 0.22742 0.0
C623 C 0.09983 0.5811 0.26241 0.0
C624 C 0.11223 0.59487 0.29555 0.0
H625 H 0.12207 0.50156 0.33305 0.0
H626 H 0.1206 0.52753 0.3298 0.0
C627 C 0.1131 0.61058 0.29314 0.0
C628 C 0.09986 0.5649 0.26123 0.0
H629 H 0.07584 0.52264 0.29179 0.0
C630 C 0.11447 0.56506 0.24024 0.0
C631 C 0.08573 0.54945 0.28009 0.0
C632 C 0.06995 0.54864 0.30521 0.0
C633 C 0.11532 0.55016 0.23739 0.0
C634 C 0.10125 0.53475 0.25657 0.0
C635 C 0.08656 0.53451 0.27692 0.0
C636 C 0.1019 0.51891 0.25827 0.0
C637 C 0.13121 0.55096 0.21347 0.0
C638 C 0.09163 0.50539 0.21972 0.0
C639 C 0.09253 0.49053 0.22102 0.0
C640 C 0.10365 0.48896 0.26126 0.0
C641 C 0.11368 0.50249 0.30049 0.0
C642 C 0.11281 0.51731 0.29896 0.0
H643 H 0.13923 0.56282 0.18778 0.0
H644 H 0.13875 0.55048 0.25217 0.0
H645 H 0.12807 0.53999 0.18349 0.0
H646 H 0.08309 0.50643 0.18813 0.0
H647 H 0.08471 0.48039 0.18998 0.0
H648 H 0.488 0.10408 0.63421 0.0
H649 H 0.51437 0.10326 0.63754 0.0
H650 H 0.51088 0.0991 0.83258 0.0
H651 H 0.48423 0.09953 0.82961 0.0
H652 H 0.54434 0.12621 0.69986 0.0
H653 H 0.51871 0.05996 0.77896 0.0
H654 H 0.50547 0.06751 0.74693 0.0
H655 H 0.51271 0.07255 0.82395 0.0
C656 C 0.4927 0.10273 0.67778 0.0
C657 C 0.48396 0.10172 0.73166 0.0
C658 C 0.50781 0.10237 0.67958 0.0
C659 C 0.51442 0.10089 0.73519 0.0
C660 C 0.50581 0.09997 0.78913 0.0
H661 H 0.61555 0.12391 0.82433 0.0
H662 H 0.58814 0.12237 0.81533 0.0
C663 C 0.4907 0.10038 0.78741 0.0
C664 C 0.53067 0.10099 0.7367 0.0
H665 H 0.54867 0.07729 0.77577 0.0
C666 C 0.54529 0.1155 0.71624 0.0
C667 C 0.53179 0.08691 0.75745 0.0
C668 C 0.51633 0.07077 0.77762 0.0
C669 C 0.56112 0.11646 0.71724 0.0
C670 C 0.56232 0.10259 0.7397 0.0
C671 C 0.54766 0.08792 0.7589 0.0
C672 C 0.57881 0.10331 0.745 0.0
C673 C 0.57645 0.13228 0.69411 0.0
C674 C 0.58249 0.09288 0.709 0.0
C675 C 0.59824 0.09382 0.71358 0.0
C676 C 0.6105 0.10514 0.7546 0.0
C677 C 0.60657 0.11534 0.79128 0.0
C678 C 0.59089 0.11444 0.78646 0.0
H679 H 0.57286 0.14014 0.66618 0.0
H680 H 0.58401 0.14 0.73327 0.0
H681 H 0.58463 0.12904 0.66652 0.0
H682 H 0.57326 0.08418 0.67683 0.0
H683 H 0.60089 0.08589 0.68435 0.0
H684 H 0.50186 0.61036 0.18726 0.0
H685 H 0.47518 0.58339 0.18118 0.0
H686 H 0.4717 0.58143 0.37647 0.0
H687 H 0.49811 0.60852 0.38298 0.0
H688 H 0.46777 0.55171 0.23444 0.0
H689 H 0.42538 0.57451 0.32038 0.0
H690 H 0.44654 0.58871 0.29306 0.0
H691 H 0.44339 0.57952 0.36739 0.0
C692 C 0.49533 0.60426 0.22887 0.0
C693 C 0.50209 0.61157 0.28558 0.0
C694 C 0.48015 0.58883 0.22532 0.0
C695 C 0.47141 0.58055 0.27835 0.0
C696 C 0.47815 0.58775 0.33501 0.0
H697 H 0.37717 0.48679 0.34685 0.0
H698 H 0.404 0.51352 0.35646 0.0
C699 C 0.49333 0.60314 0.33862 0.0
C700 C 0.45539 0.56419 0.27445 0.0
H701 H 0.41312 0.54496 0.306 0.0
C702 C 0.4558 0.55022 0.24987 0.0
C703 C 0.43985 0.56232 0.29498 0.0
C704 C 0.43864 0.57707 0.32001 0.0
C705 C 0.44106 0.53431 0.24588 0.0
C706 C 0.42548 0.53246 0.2659 0.0
C707 C 0.4251 0.54642 0.29079 0.0
C708 C 0.40936 0.51623 0.26015 0.0
C709 C 0.44237 0.51957 0.2213 0.0
C710 C 0.4034 0.50907 0.20278 0.0
C711 C 0.38812 0.49385 0.19717 0.0
C712 C 0.37843 0.48557 0.24883 0.0
C713 C 0.38432 0.49291 0.30622 0.0
C714 C 0.39965 0.50812 0.3118 0.0
H715 H 0.45553 0.52189 0.22412 0.0
H716 H 0.43386 0.50773 0.24631 0.0
H717 H 0.43857 0.51766 0.17283 0.0
H718 H 0.41047 0.51535 0.16221 0.0
H719 H 0.38375 0.48875 0.1522 0.0
H720 H 0.9132 0.51587 0.77741 0.0
H721 H 0.91366 0.48933 0.77027 0.0
H722 H 0.85927 0.46164 0.75292 0.0
H723 H 0.85871 0.48812 0.75987 0.0
H724 H 0.89831 0.4617 0.84657 0.0
H725 H 0.87413 0.4434 0.61159 0.0
H726 H 0.88159 0.46442 0.64101 0.0
H727 H 0.86071 0.44752 0.6597 0.0
C728 C 0.90134 0.50412 0.77192 0.0
C729 C 0.88592 0.50409 0.76891 0.0
C730 C 0.90163 0.48899 0.76768 0.0
C731 C 0.88653 0.47355 0.76021 0.0
C732 C 0.87111 0.47346 0.75719 0.0
H733 H 0.86068 0.36839 0.74771 0.0
H734 H 0.86051 0.39508 0.75442 0.0
C735 C 0.87081 0.4886 0.76118 0.0
C736 C 0.88687 0.45749 0.75808 0.0
H737 H 0.87611 0.42265 0.67072 0.0
C738 C 0.89355 0.4532 0.80799 0.0
C739 C 0.88062 0.44643 0.70771 0.0
C740 C 0.874 0.45071 0.6517 0.0
C741 C 0.89389 0.43799 0.80933 0.0
C742 C 0.88756 0.42691 0.75913 0.0
C743 C 0.8809 0.43118 0.7092 0.0
C744 C 0.88778 0.4108 0.75738 0.0
C745 C 0.90068 0.43373 0.86493 0.0
C746 C 0.90318 0.41084 0.75668 0.0
C747 C 0.90333 0.39562 0.75312 0.0
C748 C 0.88806 0.38008 0.75012 0.0
C749 C 0.87265 0.38012 0.75103 0.0
C750 C 0.87252 0.39534 0.75438 0.0
H751 H 0.90135 0.44154 0.90465 0.0
H752 H 0.89267 0.42015 0.87701 0.0
H753 H 0.91365 0.43616 0.85536 0.0
H754 H 0.9151 0.42267 0.75807 0.0
H755 H 0.91539 0.396 0.75272 0.0
H756 H 0.48971 0.86457 0.24575 0.0
H757 H 0.46309 0.86487 0.25064 0.0
H758 H 0.4908 0.91945 0.25456 0.0
H759 H 0.51753 0.91927 0.2496 0.0
H760 H 0.45132 0.87832 0.3379 0.0
H761 H 0.45779 0.90919 0.11441 0.0
H762 H 0.47095 0.90052 0.13666 0.0
H763 H 0.47533 0.9208 0.16483 0.0
C764 C 0.49016 0.87664 0.24827 0.0
C765 C 0.50573 0.89191 0.24726 0.0
C766 C 0.47493 0.87679 0.25071 0.0
C767 C 0.47497 0.89218 0.25195 0.0
C768 C 0.49048 0.90744 0.25218 0.0
H769 H 0.39487 0.91714 0.2742 0.0
H770 H 0.42205 0.91783 0.27009 0.0
C771 C 0.50573 0.90731 0.24952 0.0
C772 C 0.45873 0.89218 0.25372 0.0
H773 H 0.43473 0.90507 0.17621 0.0
C774 C 0.44766 0.88412 0.30248 0.0
C775 C 0.45401 0.89976 0.20739 0.0
C776 C 0.46505 0.90793 0.15254 0.0
C777 C 0.43206 0.88361 0.30655 0.0
C778 C 0.42735 0.89117 0.26022 0.0
C779 C 0.43843 0.89931 0.21163 0.0
C780 C 0.41091 0.89071 0.26136 0.0
C781 C 0.42086 0.87523 0.36085 0.0
C782 C 0.39569 0.87525 0.25673 0.0
C783 C 0.38017 0.87481 0.25911 0.0
C784 C 0.3796 0.88984 0.26606 0.0
C785 C 0.3949 0.90534 0.26953 0.0
C786 C 0.41042 0.90577 0.26691 0.0
H787 H 0.42792 0.87355 0.39872 0.0
H788 H 0.41515 0.88276 0.37743 0.0
H789 H 0.41041 0.86255 0.34752 0.0
H790 H 0.39583 0.86351 0.25158 0.0
H791 H 0.36861 0.86266 0.25688 0.0
H792 H 0.47584 0.39438 0.80248 0.0
H793 H 0.50164 0.42216 0.79918 0.0
H794 H 0.52523 0.40197 0.68257 0.0
H795 H 0.49942 0.3742 0.68498 0.0
H796 H 0.53443 0.42781 0.83791 0.0
H797 H 0.53429 0.44666 0.59824 0.0
H798 H 0.51543 0.43076 0.63624 0.0
H799 H 0.53086 0.42563 0.60877 0.0
C800 C 0.4864 0.39595 0.77511 0.0
C801 C 0.48563 0.38214 0.74393 0.0
C802 C 0.50113 0.41178 0.77359 0.0
C803 C 0.51523 0.4141 0.74027 0.0
C804 C 0.51438 0.40046 0.70791 0.0
H805 H 0.61816 0.49177 0.68109 0.0
H806 H 0.59034 0.46628 0.68319 0.0
C807 C 0.49969 0.3846 0.70972 0.0
C808 C 0.53125 0.43046 0.74251 0.0
H809 H 0.55963 0.46307 0.65416 0.0
C810 C 0.5399 0.43564 0.79797 0.0
C811 C 0.53829 0.44053 0.69019 0.0
C812 C 0.52921 0.43574 0.63 0.0
C813 C 0.55577 0.45041 0.8021 0.0
C814 C 0.56294 0.46041 0.74957 0.0
C815 C 0.5541 0.45536 0.69434 0.0
C816 C 0.57989 0.47583 0.75024 0.0
C817 C 0.56499 0.45482 0.86208 0.0
C818 C 0.58324 0.48967 0.78727 0.0
C819 C 0.59926 0.50422 0.7869 0.0
C820 C 0.61215 0.50522 0.74901 0.0
C821 C 0.60866 0.49132 0.71175 0.0
C822 C 0.5927 0.47679 0.7124 0.0
H823 H 0.55979 0.44377 0.8933 0.0
H824 H 0.57871 0.45952 0.85547 0.0
H825 H 0.56361 0.46496 0.88434 0.0
H826 H 0.57343 0.4893 0.81603 0.0
H827 H 0.60153 0.51463 0.81641 0.0
H828 H 0.09276 0.41739 0.53935 0.0
H829 H 0.0878 0.41317 0.64868 0.0
H830 H 0.14165 0.43973 0.68028 0.0
H831 H 0.14676 0.44381 0.57113 0.0
H832 H 0.09913 0.39719 0.73392 0.0
H833 H 0.12428 0.46516 0.78698 0.0
H834 H 0.11866 0.45681 0.71095 0.0
H835 H 0.1383 0.46067 0.74384 0.0
C836 C 0.10358 0.42216 0.56934 0.0
C837 C 0.12019 0.43103 0.54613 0.0
C838 C 0.1007 0.41982 0.63194 0.0
C839 C 0.11435 0.42638 0.67266 0.0
C840 C 0.13093 0.43488 0.64973 0.0
H841 H 0.12424 0.42921 0.06536 0.0
H842 H 0.12891 0.43263 0.95568 0.0
C843 C 0.13382 0.4372 0.5872 0.0
C844 C 0.11127 0.42433 0.73914 0.0
H845 H 0.11747 0.44653 0.8706 0.0
C846 C 0.10306 0.40796 0.76384 0.0
C847 C 0.11646 0.43841 0.77805 0.0
C848 C 0.12479 0.45626 0.75375 0.0
C849 C 0.1002 0.40529 0.82663 0.0
C850 C 0.10535 0.41937 0.8656 0.0
C851 C 0.11354 0.43575 0.84078 0.0
C852 C 0.1024 0.41741 0.93226 0.0
C853 C 0.09209 0.38743 0.85074 0.0
C854 C 0.08593 0.40799 0.95574 0.0
C855 C 0.08323 0.40602 0.01845 0.0
C856 C 0.09693 0.41358 0.05914 0.0
C857 C 0.11339 0.42334 0.03548 0.0
C858 C 0.11609 0.42524 0.97272 0.0
H859 H 0.09328 0.37879 0.81815 0.0
H860 H 0.09785 0.38697 0.89456 0.0
H861 H 0.0784 0.3826 0.85838 0.0
H862 H 0.07512 0.40222 0.92555 0.0
H863 H 0.07037 0.3987 0.03508 0.0
H864 H 0.66912 0.07296 0.53571 0.0
H865 H 0.67047 0.07778 0.42609 0.0
H866 H 0.69162 0.13127 0.45681 0.0
H867 H 0.69067 0.12662 0.56642 0.0
H868 H 0.65518 0.09287 0.35689 0.0
H869 H 0.7253 0.12887 0.33773 0.0
H870 H 0.71447 0.11627 0.40354 0.0
H871 H 0.71663 0.13681 0.39343 0.0
C872 C 0.6742 0.08577 0.51921 0.0
C873 C 0.67987 0.09941 0.56001 0.0
C874 C 0.67487 0.08849 0.45653 0.0
C875 C 0.68137 0.10491 0.43327 0.0
C876 C 0.68681 0.11853 0.47375 0.0
H877 H 0.69722 0.1484 0.07285 0.0
H878 H 0.69617 0.14308 0.18182 0.0
C879 C 0.68608 0.11582 0.53648 0.0
C880 C 0.68224 0.10773 0.36668 0.0
H881 H 0.70978 0.12756 0.24969 0.0
C882 C 0.66711 0.10039 0.33333 0.0
C883 C 0.69783 0.11756 0.33613 0.0
C884 C 0.71452 0.12523 0.36931 0.0
C885 C 0.66711 0.10291 0.2704 0.0
C886 C 0.68271 0.11274 0.23977 0.0
C887 C 0.69784 0.12003 0.27317 0.0
C888 C 0.68358 0.11583 0.17325 0.0
C889 C 0.65036 0.0954 0.23763 0.0
C890 C 0.67715 0.1023 0.13198 0.0
C891 C 0.67759 0.10529 0.06952 0.0
C892 C 0.68461 0.12191 0.04691 0.0
C893 C 0.69146 0.13545 0.08844 0.0
C894 C 0.69097 0.13243 0.15086 0.0
H895 H 0.63972 0.09225 0.2694 0.0
H896 H 0.65054 0.10422 0.20253 0.0
H897 H 0.64785 0.08352 0.21479 0.0
H898 H 0.67171 0.0894 0.14807 0.0
H899 H 0.67207 0.09454 0.03918 0.0
H900 H 0.5418 0.69136 0.58034 0.0
H901 H 0.54685 0.69147 0.68923 0.0
H902 H 0.58366 0.67599 0.65496 0.0
H903 H 0.57853 0.67558 0.54595 0.0
H904 H 0.54278 0.6635 0.7605 0.0
H905 H 0.60874 0.7177 0.76732 0.0
H906 H 0.59479 0.71388 0.70374 0.0
H907 H 0.60487 0.70142 0.71316 0.0
C908 C 0.55093 0.68791 0.5958 0.0
C909 C 0.55976 0.68347 0.55416 0.0
C910 C 0.55385 0.68807 0.65809 0.0
C911 C 0.56575 0.68392 0.68004 0.0
C912 C 0.57465 0.67954 0.63882 0.0
H913 H 0.59907 0.67709 0.04332 0.0
H914 H 0.59486 0.67677 0.93355 0.0
C915 C 0.57171 0.67935 0.57646 0.0
C916 C 0.56838 0.68363 0.74625 0.0
H917 H 0.59772 0.70241 0.85865 0.0
C918 C 0.55477 0.67203 0.78207 0.0
C919 C 0.58407 0.69471 0.77403 0.0
C920 C 0.59895 0.70774 0.73782 0.0
C921 C 0.55646 0.67109 0.84504 0.0
C922 C 0.5721 0.68231 0.87301 0.0
C923 C 0.58575 0.69384 0.83708 0.0
C924 C 0.57451 0.6824 0.93958 0.0
C925 C 0.5416 0.65786 0.88083 0.0
C926 C 0.56461 0.68587 0.97934 0.0
C927 C 0.56698 0.68606 0.04205 0.0
C928 C 0.57944 0.68295 0.06622 0.0
C929 C 0.58947 0.67967 0.02617 0.0
C930 C 0.58704 0.67942 0.96346 0.0
H931 H 0.53243 0.64742 0.85129 0.0
H932 H 0.54584 0.6524 0.91721 0.0
H933 H 0.53485 0.6638 0.90238 0.0
H934 H 0.55515 0.68863 0.96182 0.0
H935 H 0.55929 0.68898 0.07145 0.0
H936 H 0.88335 0.55548 0.56396 0.0
H937 H 0.87936 0.55141 0.45426 0.0
H938 H 0.8984 0.60484 0.43047 0.0
H939 H 0.90219 0.60902 0.53999 0.0
H940 H 0.85931 0.5598 0.37713 0.0
H941 H 0.92736 0.59439 0.31268 0.0
H942 H 0.9203 0.58719 0.38917 0.0
H943 H 0.92067 0.60584 0.36087 0.0
C944 C 0.88659 0.56637 0.53558 0.0
C945 C 0.89315 0.5826 0.56108 0.0
C946 C 0.88438 0.56402 0.47282 0.0
C947 C 0.88882 0.57785 0.43423 0.0
C948 C 0.89524 0.59404 0.45937 0.0
H949 H 0.88508 0.58827 0.04228 0.0
H950 H 0.88931 0.59326 0.15174 0.0
C951 C 0.89741 0.5964 0.5221 0.0
C952 C 0.88634 0.57529 0.36777 0.0
H953 H 0.90746 0.58531 0.23248 0.0
C954 C 0.86983 0.56532 0.34545 0.0
C955 C 0.90009 0.5826 0.32664 0.0
C956 C 0.91814 0.593 0.34835 0.0
C957 C 0.86666 0.56263 0.28292 0.0
C958 C 0.88042 0.56979 0.24174 0.0
C959 C 0.89693 0.57984 0.2641 0.0
C960 C 0.87797 0.56676 0.17536 0.0
C961 C 0.84855 0.55243 0.26154 0.0
C962 C 0.87048 0.55025 0.15222 0.0
C963 C 0.86804 0.54737 0.08981 0.0
C964 C 0.87321 0.56096 0.04906 0.0
C965 C 0.88104 0.57753 0.0723 0.0
C966 C 0.88341 0.5804 0.13486 0.0
H967 H 0.83953 0.55208 0.2962 0.0
H968 H 0.84661 0.55768 0.21877 0.0
H969 H 0.84547 0.53921 0.25287 0.0
H970 H 0.86662 0.53957 0.18244 0.0
H971 H 0.86233 0.53448 0.07345 0.0
H972 H 0.29351 0.88704 0.53616 0.0
H973 H 0.29326 0.89189 0.64544 0.0
H974 H 0.32489 0.86991 0.67613 0.0
H975 H 0.3255 0.86535 0.56717 0.0
H976 H 0.28204 0.86689 0.74056 0.0
H977 H 0.34978 0.91604 0.76486 0.0
H978 H 0.33911 0.91042 0.69239 0.0
H979 H 0.34603 0.89706 0.72678 0.0
C980 C 0.30056 0.88341 0.56607 0.0
C981 C 0.30955 0.87583 0.54281 0.0
C982 C 0.30033 0.8861 0.62851 0.0
C983 C 0.30922 0.88143 0.66872 0.0
C984 C 0.31814 0.87381 0.64576 0.0
H985 H 0.32497 0.88594 0.05771 0.0
H986 H 0.32481 0.88158 0.94822 0.0
C987 C 0.31832 0.87105 0.58347 0.0
C988 C 0.30888 0.88415 0.73489 0.0
H989 H 0.33414 0.90505 0.85583 0.0
C990 C 0.29339 0.8753 0.76581 0.0
C991 C 0.32373 0.89508 0.7676 0.0
C992 C 0.3406 0.90533 0.73629 0.0
C993 C 0.29242 0.87681 0.82893 0.0
C994 C 0.30729 0.88775 0.86171 0.0
C995 C 0.32276 0.89665 0.83066 0.0
C996 C 0.30709 0.89015 0.92826 0.0
C997 C 0.27557 0.86632 0.86012 0.0
C998 C 0.29732 0.89657 0.95339 0.0
C999 C 0.29725 0.89893 0.01605 0.0
C1000 C 0.30709 0.89505 0.05495 0.0
C1001 C 0.31703 0.8888 0.02941 0.0
C1002 C 0.31705 0.88641 0.96673 0.0
H1003 H 0.26666 0.85537 0.83188 0.0
H1004 H 0.27714 0.86151 0.90455 0.0
H1005 H 0.26975 0.87429 0.86838 0.0
H1006 H 0.2898 0.89987 0.92448 0.0
H1007 H 0.28935 0.90365 0.03389 0.0
H1008 H 0.43881 0.32332 0.56337 0.0
H1009 H 0.44284 0.32294 0.45381 0.0
H1010 H 0.38882 0.29747 0.42729 0.0
H1011 H 0.3846 0.29749 0.5366 0.0
H1012 H 0.42962 0.29413 0.375 0.0
H1013 H 0.40707 0.33842 0.31061 0.0
H1014 H 0.41303 0.33672 0.38733 0.0
H1015 H 0.39286 0.32098 0.35786 0.0
C1016 C 0.42775 0.31753 0.5345 0.0
C1017 C 0.41136 0.31049 0.55933 0.0
C1018 C 0.4301 0.31741 0.47171 0.0
C1019 C 0.41615 0.3104 0.43229 0.0
C1020 C 0.39979 0.30327 0.45673 0.0
H1021 H 0.40533 0.2988 0.0389 0.0
H1022 H 0.40041 0.29849 0.14822 0.0
C1023 C 0.39742 0.30332 0.51946 0.0
C1024 C 0.41868 0.31015 0.36572 0.0
H1025 H 0.41277 0.32475 0.23031 0.0
C1026 C 0.426 0.30087 0.34334 0.0
C1027 C 0.41383 0.31885 0.32447 0.0
C1028 C 0.40638 0.32943 0.34608 0.0
C1029 C 0.42841 0.29989 0.28078 0.0
C1030 C 0.42374 0.30875 0.23948 0.0
C1031 C 0.41633 0.31795 0.2619 0.0
C1032 C 0.42673 0.30888 0.17301 0.0
C1033 C 0.43561 0.28905 0.25947 0.0
C1034 C 0.44317 0.31507 0.15037 0.0
C1035 C 0.44602 0.31527 0.08793 0.0
C1036 C 0.43251 0.30944 0.04646 0.0
C1037 C 0.41606 0.30348 0.06925 0.0
C1038 C 0.41321 0.30323 0.13185 0.0
H1039 H 0.43382 0.27939 0.2939 0.0
H1040 H 0.42962 0.2825 0.21634 0.0
H1041 H 0.44941 0.2972 0.25155 0.0
H1042 H 0.45388 0.31995 0.181 0.0
H1043 H 0.45889 0.32031 0.07213 0.0
H1044 H 0.55993 0.87125 0.44728 0.0
H1045 H 0.55573 0.86849 0.55729 0.0
H1046 H 0.6015 0.91638 0.58257 0.0
H1047 H 0.60563 0.91939 0.47249 0.0
H1048 H 0.57941 0.86878 0.64592 0.0
H1049 H 0.56482 0.92049 0.68191 0.0
H1050 H 0.56332 0.91109 0.60839 0.0
H1051 H 0.58366 0.92599 0.63898 0.0
C1052 C 0.56898 0.88131 0.47613 0.0
C1053 C 0.58308 0.89559 0.45107 0.0
C1054 C 0.56662 0.87965 0.53898 0.0
C1055 C 0.57821 0.89231 0.57792 0.0
C1056 C 0.59229 0.90657 0.5532 0.0
H1057 H 0.58198 0.90382 0.97113 0.0
H1058 H 0.58792 0.90776 0.86228 0.0
C1059 C 0.59472 0.9082 0.49036 0.0
C1060 C 0.57578 0.89034 0.6445 0.0
H1061 H 0.56742 0.90703 0.76955 0.0
C1062 C 0.57676 0.87711 0.67304 0.0
C1063 C 0.57245 0.90131 0.67961 0.0
C1064 C 0.57086 0.91547 0.65084 0.0
C1065 C 0.57463 0.87462 0.73602 0.0
C1066 C 0.57101 0.88542 0.77112 0.0
C1067 C 0.57019 0.89876 0.74257 0.0
C1068 C 0.56765 0.88286 0.8373 0.0
C1069 C 0.57658 0.86064 0.76446 0.0
C1070 C 0.55419 0.86763 0.85938 0.0
C1071 C 0.55087 0.86526 0.92159 0.0
C1072 C 0.56083 0.87817 0.96314 0.0
C1073 C 0.57422 0.8935 0.94073 0.0
C1074 C 0.57756 0.89583 0.87842 0.0
H1075 H 0.58417 0.85698 0.73527 0.0
H1076 H 0.58273 0.86445 0.80965 0.0
H1077 H 0.56388 0.84929 0.77049 0.0
H1078 H 0.54614 0.85758 0.82842 0.0
H1079 H 0.54055 0.85326 0.93702 0.0
H1080 H 0.6761 0.53561 0.43569 0.0
H1081 H 0.67598 0.54044 0.32682 0.0
H1082 H 0.69584 0.59367 0.35927 0.0
H1083 H 0.69644 0.58903 0.46846 0.0
H1084 H 0.65839 0.55407 0.26541 0.0
H1085 H 0.72782 0.59304 0.22852 0.0
H1086 H 0.71881 0.58046 0.29604 0.0
H1087 H 0.7195 0.60038 0.28764 0.0
C1088 C 0.68073 0.54841 0.41985 0.0
C1089 C 0.68641 0.56194 0.46116 0.0
C1090 C 0.68051 0.55112 0.35747 0.0
C1091 C 0.68608 0.56744 0.33478 0.0
C1092 C 0.69174 0.581 0.37567 0.0
H1093 H 0.69375 0.6076 0.97096 0.0
H1094 H 0.69419 0.60351 0.08018 0.0
C1095 C 0.69192 0.5783 0.43822 0.0
C1096 C 0.68548 0.57008 0.26844 0.0
H1097 H 0.71021 0.59001 0.14503 0.0
C1098 C 0.66972 0.56189 0.23901 0.0
C1099 C 0.70026 0.58033 0.23413 0.0
C1100 C 0.71759 0.58897 0.26291 0.0
C1101 C 0.6683 0.56385 0.17637 0.0
C1102 C 0.68311 0.57398 0.14188 0.0
C1103 C 0.69887 0.58223 0.17142 0.0
C1104 C 0.68253 0.57627 0.0752 0.0
C1105 C 0.65092 0.55534 0.14803 0.0
C1106 C 0.67596 0.56233 0.03572 0.0
C1107 C 0.67551 0.56459 0.97301 0.0
C1108 C 0.68177 0.58089 0.94827 0.0
C1109 C 0.68853 0.59484 0.98808 0.0
C1110 C 0.68893 0.59255 0.05072 0.0
H1111 H 0.64085 0.55213 0.18248 0.0
H1112 H 0.64994 0.56354 0.11288 0.0
H1113 H 0.64848 0.54339 0.12605 0.0
H1114 H 0.67127 0.54967 0.05335 0.0
H1115 H 0.67013 0.55354 0.94409 0.0
H1116 H 0.08398 0.69679 0.46665 0.0
H1117 H 0.08884 0.69757 0.57583 0.0
H1118 H 0.11722 0.6719 0.54977 0.0
H1119 H 0.11225 0.67085 0.44045 0.0
H1120 H 0.08 0.67047 0.65718 0.0
H1121 H 0.14957 0.71383 0.6499 0.0
H1122 H 0.13596 0.71114 0.58631 0.0
H1123 H 0.14199 0.69554 0.60197 0.0
C1124 C 0.09114 0.69118 0.4839 0.0
C1125 C 0.09775 0.68379 0.44427 0.0
C1126 C 0.09399 0.69172 0.54649 0.0
C1127 C 0.1036 0.68503 0.57094 0.0
C1128 C 0.11007 0.67748 0.5318 0.0
H1129 H 0.13514 0.67468 0.93122 0.0
H1130 H 0.13006 0.67475 0.82256 0.0
C1131 C 0.10721 0.6769 0.46917 0.0
C1132 C 0.1066 0.68569 0.63748 0.0
H1133 H 0.13779 0.7012 0.74489 0.0
C1134 C 0.09262 0.67726 0.67645 0.0
C1135 C 0.12308 0.69455 0.66253 0.0
C1136 C 0.13852 0.70442 0.62318 0.0
C1137 C 0.09469 0.67709 0.73966 0.0
C1138 C 0.11119 0.68592 0.76473 0.0
C1139 C 0.12515 0.69444 0.72571 0.0
C1140 C 0.1143 0.68614 0.83113 0.0
C1141 C 0.07924 0.66706 0.77881 0.0
C1142 C 0.10734 0.69276 0.87232 0.0
C1143 C 0.11027 0.69278 0.93477 0.0
C1144 C 0.12036 0.68633 0.95731 0.0
C1145 C 0.12751 0.67996 0.91568 0.0
C1146 C 0.12453 0.6799 0.85341 0.0
H1147 H 0.06827 0.65759 0.75191 0.0
H1148 H 0.08184 0.66037 0.81566 0.0
H1149 H 0.07559 0.67581 0.79996 0.0
H1150 H 0.09974 0.69803 0.85616 0.0
H1151 H 0.10478 0.69803 0.96523 0.0
H1152 H 0.38061 0.08804 0.97709 0.0
H1153 H 0.38502 0.0924 0.08641 0.0
H1154 H 0.43847 0.11165 0.06162 0.0
H1155 H 0.43417 0.10712 0.9522 0.0
H1156 H 0.39933 0.07856 0.16723 0.0
H1157 H 0.43642 0.14883 0.1617 0.0
H1158 H 0.42394 0.13638 0.09808 0.0
H1159 H 0.44426 0.13846 0.11313 0.0
C1160 C 0.3933 0.09309 0.99471 0.0
C1161 C 0.40705 0.09728 0.95555 0.0
C1162 C 0.3958 0.09565 0.05728 0.0
C1163 C 0.41209 0.10256 0.08199 0.0
C1164 C 0.42583 0.10662 0.04331 0.0
H1165 H 0.45445 0.12822 0.44352 0.0
H1166 H 0.44934 0.12346 0.33465 0.0
C1167 C 0.42335 0.10404 0.98072 0.0
C1168 C 0.41465 0.1052 0.1484 0.0
H1169 H 0.4345 0.1357 0.25644 0.0
C1170 C 0.40694 0.09105 0.18687 0.0
C1171 C 0.42462 0.12151 0.17374 0.0
C1172 C 0.43268 0.13721 0.1347 0.0
C1173 C 0.40924 0.09273 0.25005 0.0
C1174 C 0.41922 0.10905 0.27544 0.0
C1175 C 0.42686 0.1232 0.2369 0.0
C1176 C 0.42211 0.11174 0.3418 0.0
C1177 C 0.40134 0.07697 0.28884 0.0
C1178 C 0.40851 0.10689 0.38205 0.0
C1179 C 0.41139 0.10961 0.44448 0.0
C1180 C 0.42796 0.11742 0.4678 0.0
C1181 C 0.44155 0.12239 0.42717 0.0
C1182 C 0.43865 0.1196 0.36488 0.0
H1183 H 0.39802 0.06546 0.26172 0.0
H1184 H 0.41 0.07795 0.32601 0.0
H1185 H 0.38953 0.07535 0.30954 0.0
H1186 H 0.39566 0.10116 0.36513 0.0
H1187 H 0.40067 0.10587 0.47434 0.0
H1188 H 0.32858 0.45645 0.93871 0.0
H1189 H 0.32716 0.45093 0.82966 0.0
H1190 H 0.29179 0.3981 0.86195 0.0
H1191 H 0.2929 0.40357 0.97113 0.0
H1192 H 0.33447 0.42728 0.76765 0.0
H1193 H 0.26819 0.41306 0.73409 0.0
H1194 H 0.28048 0.42407 0.80016 0.0
H1195 H 0.27141 0.40155 0.79391 0.0
C1196 C 0.32037 0.44369 0.92265 0.0
C1197 C 0.31076 0.43047 0.96366 0.0
C1198 C 0.31966 0.44054 0.86036 0.0
C1199 C 0.30923 0.42415 0.83779 0.0
C1200 C 0.29976 0.41088 0.87848 0.0
H1201 H 0.28499 0.38247 0.47375 0.0
H1202 H 0.28687 0.38691 0.58329 0.0
C1203 C 0.30052 0.414 0.94088 0.0
C1204 C 0.30838 0.42098 0.77163 0.0
H1205 H 0.28189 0.40933 0.64948 0.0
C1206 C 0.323 0.42338 0.74168 0.0
C1207 C 0.29338 0.41585 0.73812 0.0
C1208 C 0.27747 0.41359 0.7679 0.0
C1209 C 0.32295 0.42056 0.67901 0.0
C1210 C 0.30799 0.4156 0.64527 0.0
C1211 C 0.29335 0.41314 0.6754 0.0
C1212 C 0.30721 0.41292 0.57866 0.0
C1213 C 0.33883 0.42257 0.64983 0.0
C1214 C 0.31792 0.42611 0.53951 0.0
C1215 C 0.31702 0.42356 0.47674 0.0
C1216 C 0.30525 0.4078 0.45172 0.0
C1217 C 0.2944 0.39468 0.4912 0.0
C1218 C 0.29537 0.39723 0.55395 0.0
H1219 H 0.34733 0.42161 0.68374 0.0
H1220 H 0.33576 0.41285 0.61421 0.0
H1221 H 0.34587 0.43524 0.6283 0.0
H1222 H 0.32692 0.43845 0.55746 0.0
H1223 H 0.32567 0.43392 0.44799 0.0
H1224 H 0.90235 0.31778 0.47158 0.0
H1225 H 0.90684 0.31692 0.36247 0.0
H1226 H 0.85628 0.30729 0.32776 0.0
H1227 H 0.8515 0.30775 0.43649 0.0
H1228 H 0.88668 0.28949 0.27783 0.0
H1229 H 0.88753 0.34925 0.22097 0.0
H1230 H 0.89071 0.34411 0.29722 0.0
H1231 H 0.86976 0.33441 0.26565 0.0
C1232 C 0.89211 0.31532 0.44094 0.0
C1233 C 0.87657 0.31292 0.46313 0.0
C1234 C 0.89474 0.31493 0.37853 0.0
C1235 C 0.88197 0.31229 0.33714 0.0
C1236 C 0.86641 0.30968 0.35897 0.0
H1237 H 0.86941 0.3061 0.94756 0.0
H1238 H 0.86666 0.30747 0.05748 0.0
C1239 C 0.86373 0.30999 0.42126 0.0
C1240 C 0.88476 0.31199 0.27103 0.0
H1241 H 0.88689 0.33232 0.13837 0.0
C1242 C 0.88685 0.2989 0.24726 0.0
C1243 C 0.8849 0.32427 0.23146 0.0
C1244 C 0.88325 0.33891 0.25495 0.0
C1245 C 0.88864 0.29748 0.18456 0.0
C1246 C 0.88873 0.30973 0.14485 0.0
C1247 C 0.8868 0.32293 0.16883 0.0
C1248 C 0.89057 0.30899 0.07817 0.0
C1249 C 0.88988 0.28258 0.1613 0.0
C1250 C 0.90505 0.30964 0.05319 0.0
C1251 C 0.90665 0.30885 0.99034 0.0
C1252 C 0.89389 0.3076 0.95116 0.0
C1253 C 0.87954 0.30724 0.97632 0.0
C1254 C 0.87791 0.30795 0.03919 0.0
H1255 H 0.88507 0.27213 0.19503 0.0
H1256 H 0.88265 0.27762 0.11846 0.0
H1257 H 0.90335 0.28666 0.15202 0.0
H1258 H 0.91518 0.3109 0.08229 0.0
H1259 H 0.91798 0.30946 0.97236 0.0
H1260 H 0.12873 0.38821 0.32129 0.0
H1261 H 0.15206 0.38234 0.30783 0.0
H1262 H 0.18047 0.42927 0.20973 0.0
H1263 H 0.15734 0.43511 0.22224 0.0
H1264 H 0.1812 0.40133 0.15642 0.0
H1265 H 0.19712 0.40873 0.40277 0.0
H1266 H 0.17572 0.39347 0.38218 0.0
H1267 H 0.18343 0.4156 0.36989 0.0
C1268 C 0.13992 0.39719 0.29648 0.0
C1269 C 0.14129 0.41218 0.27324 0.0
C1270 C 0.15322 0.39385 0.28904 0.0
C1271 C 0.16802 0.40548 0.25837 0.0
C1272 C 0.16914 0.42015 0.23357 0.0
H1273 H 0.27184 0.43678 0.26274 0.0
H1274 H 0.24294 0.43155 0.27292 0.0
C1275 C 0.15593 0.42349 0.24099 0.0
C1276 C 0.18281 0.40301 0.25383 0.0
H1277 H 0.21539 0.40524 0.33715 0.0
C1278 C 0.18857 0.40189 0.1959 0.0
C1279 C 0.19239 0.40391 0.30556 0.0
C1280 C 0.18699 0.4056 0.36871 0.0
C1281 C 0.20405 0.40234 0.18807 0.0
C1282 C 0.21385 0.40371 0.23971 0.0
C1283 C 0.20776 0.40414 0.29778 0.0
C1284 C 0.23118 0.4064 0.2342 0.0
C1285 C 0.21023 0.40226 0.12459 0.0
C1286 C 0.23408 0.39392 0.20942 0.0
C1287 C 0.25062 0.39691 0.20329 0.0
C1288 C 0.26445 0.41239 0.22217 0.0
C1289 C 0.26145 0.42475 0.24764 0.0
C1290 C 0.24495 0.42176 0.25366 0.0
H1291 H 0.20252 0.40409 0.08959 0.0
H1292 H 0.22365 0.41238 0.1193 0.0
H1293 H 0.20949 0.38993 0.11597 0.0
H1294 H 0.22358 0.38189 0.19494 0.0
H1295 H 0.25255 0.3871 0.18384 0.0
H1296 H 0.86143 0.25473 0.67994 0.0
H1297 H 0.8376 0.22577 0.69096 0.0
H1298 H 0.80791 0.24512 0.77432 0.0
H1299 H 0.83161 0.27397 0.7641 0.0
H1300 H 0.80704 0.21726 0.83622 0.0
H1301 H 0.79351 0.20528 0.58906 0.0
H1302 H 0.81482 0.2122 0.61334 0.0
H1303 H 0.80654 0.22631 0.61931 0.0
C1304 C 0.84981 0.25279 0.70055 0.0
C1305 C 0.84834 0.26661 0.72091 0.0
C1306 C 0.83622 0.23627 0.70665 0.0
C1307 C 0.82099 0.23337 0.73298 0.0
C1308 C 0.81959 0.24713 0.75387 0.0
H1309 H 0.71804 0.16021 0.7268 0.0
H1310 H 0.74701 0.18328 0.71345 0.0
C1311 C 0.83312 0.2636 0.74781 0.0
C1312 C 0.8063 0.21607 0.73867 0.0
H1313 H 0.77513 0.18396 0.65622 0.0
C1314 C 0.80016 0.20982 0.79698 0.0
C1315 C 0.79741 0.20651 0.68722 0.0
C1316 C 0.80327 0.21288 0.62358 0.0
C1317 C 0.78494 0.19454 0.80527 0.0
C1318 C 0.77578 0.18522 0.75378 0.0
C1319 C 0.78228 0.19113 0.69551 0.0
C1320 C 0.75847 0.17053 0.75922 0.0
C1321 C 0.77829 0.18898 0.86884 0.0
C1322 C 0.75535 0.15559 0.78867 0.0
C1323 C 0.73871 0.14232 0.79663 0.0
C1324 C 0.72503 0.14385 0.77508 0.0
C1325 C 0.72829 0.15866 0.74421 0.0
C1326 C 0.74485 0.17185 0.73631 0.0
H1327 H 0.7856 0.19898 0.90297 0.0
H1328 H 0.76478 0.18552 0.87173 0.0
H1329 H 0.77914 0.17762 0.88085 0.0
H1330 H 0.76574 0.15427 0.80597 0.0
H1331 H 0.73656 0.131 0.82031 0.0
H1332 H 0.60174 0.86135 0.17983 0.0
H1333 H 0.60571 0.8368 0.1917 0.0
H1334 H 0.5568 0.80907 0.27779 0.0
H1335 H 0.55279 0.83346 0.26663 0.0
H1336 H 0.58355 0.80746 0.33922 0.0
H1337 H 0.58014 0.79211 0.09318 0.0
H1338 H 0.59516 0.81345 0.1152 0.0
H1339 H 0.57291 0.80584 0.12296 0.0
C1340 C 0.59184 0.85 0.2012 0.0
C1341 C 0.57692 0.84929 0.22207 0.0
C1342 C 0.5941 0.83601 0.20777 0.0
C1343 C 0.58147 0.82112 0.23514 0.0
C1344 C 0.56668 0.82046 0.2565 0.0
H1345 H 0.55212 0.7173 0.23827 0.0
H1346 H 0.55665 0.7458 0.2236 0.0
C1347 C 0.56439 0.83439 0.24992 0.0
C1348 C 0.58345 0.80607 0.24172 0.0
H1349 H 0.58338 0.77407 0.16133 0.0
C1350 C 0.58372 0.80024 0.30041 0.0
C1351 C 0.58356 0.79669 0.19085 0.0
C1352 C 0.58282 0.8022 0.12688 0.0
C1353 C 0.58363 0.78498 0.30969 0.0
C1354 C 0.58344 0.77545 0.25883 0.0
C1355 C 0.58364 0.78151 0.20012 0.0
C1356 C 0.58139 0.7584 0.26566 0.0
C1357 C 0.58294 0.77878 0.37372 0.0
C1358 C 0.59393 0.7561 0.29349 0.0
C1359 C 0.59137 0.73978 0.30208 0.0
C1360 C 0.57623 0.72557 0.28283 0.0
C1361 C 0.56388 0.72799 0.25385 0.0
C1362 C 0.56647 0.74426 0.24523 0.0
H1363 H 0.58028 0.78621 0.40741 0.0
H1364 H 0.57304 0.76524 0.37785 0.0
H1365 H 0.5953 0.77989 0.38527 0.0
H1366 H 0.60563 0.7669 0.30886 0.0
H1367 H 0.60114 0.73829 0.32428 0.0
H1368 H 0.83195 0.55733 0.73594 0.0
H1369 H 0.80918 0.56375 0.72246 0.0
H1370 H 0.8393 0.6119 0.81114 0.0
H1371 H 0.86219 0.6055 0.82536 0.0
H1372 H 0.80644 0.59345 0.85591 0.0
H1373 H 0.80603 0.59691 0.60534 0.0
H1374 H 0.80534 0.57794 0.63156 0.0
H1375 H 0.82366 0.5982 0.6473 0.0
C1376 C 0.8338 0.56935 0.75221 0.0
C1377 C 0.84885 0.58093 0.78165 0.0
C1378 C 0.82083 0.57305 0.74402 0.0
C1379 C 0.8227 0.58843 0.7648 0.0
C1380 C 0.83771 0.60004 0.79427 0.0
H1381 H 0.73792 0.60541 0.68036 0.0
H1382 H 0.76727 0.61179 0.69394 0.0
C1383 C 0.85074 0.59635 0.80237 0.0
C1384 C 0.80844 0.59172 0.75905 0.0
H1385 H 0.78029 0.59132 0.65626 0.0
C1386 C 0.8009 0.59332 0.81222 0.0
C1387 C 0.80143 0.59188 0.702 0.0
C1388 C 0.80965 0.59132 0.64328 0.0
C1389 C 0.78581 0.59385 0.80999 0.0
C1390 C 0.77801 0.59251 0.75322 0.0
C1391 C 0.7862 0.59215 0.69982 0.0
C1392 C 0.76058 0.58961 0.74862 0.0
C1393 C 0.7781 0.59538 0.86854 0.0
C1394 C 0.74718 0.575 0.77452 0.0
C1395 C 0.73052 0.5713 0.76667 0.0
C1396 C 0.72691 0.58212 0.73248 0.0
C1397 C 0.74035 0.59688 0.7071 0.0
C1398 C 0.75708 0.60054 0.7148 0.0
H1399 H 0.7879 0.60178 0.90414 0.0
H1400 H 0.77131 0.60252 0.86187 0.0
H1401 H 0.76889 0.58252 0.88533 0.0
H1402 H 0.74958 0.56619 0.79957 0.0
H1403 H 0.72045 0.55981 0.7867 0.0
H1404 H 0.25342 0.86386 0.31234 0.0
H1405 H 0.22441 0.84037 0.29881 0.0
H1406 H 0.24377 0.80986 0.22266 0.0
H1407 H 0.2727 0.83325 0.23522 0.0
H1408 H 0.21634 0.8085 0.15746 0.0
H1409 H 0.20312 0.79734 0.40511 0.0
H1410 H 0.21008 0.81841 0.37797 0.0
H1411 H 0.22429 0.81016 0.37561 0.0
C1412 C 0.25147 0.85215 0.29259 0.0
C1413 C 0.26532 0.85033 0.27518 0.0
C1414 C 0.23491 0.83876 0.28508 0.0
C1415 C 0.232 0.82336 0.26037 0.0
C1416 C 0.24579 0.82166 0.24186 0.0
H1417 H 0.15813 0.72086 0.27603 0.0
H1418 H 0.18141 0.74984 0.28639 0.0
C1419 C 0.2623 0.83501 0.24925 0.0
C1420 C 0.21466 0.80874 0.25483 0.0
H1421 H 0.18194 0.77862 0.33845 0.0
C1422 C 0.20867 0.80207 0.19687 0.0
C1423 C 0.20479 0.80042 0.30653 0.0
C1424 C 0.21087 0.80681 0.36995 0.0
C1425 C 0.19332 0.78688 0.18931 0.0
C1426 C 0.18369 0.7783 0.24113 0.0
C1427 C 0.18935 0.78534 0.2989 0.0
C1428 C 0.16893 0.76102 0.23704 0.0
C1429 C 0.188 0.77962 0.12637 0.0
C1430 C 0.15409 0.75776 0.20653 0.0
C1431 C 0.1407 0.74112 0.20036 0.0
C1432 C 0.14203 0.72758 0.22472 0.0
C1433 C 0.15675 0.731 0.2565 0.0
C1434 C 0.17005 0.74756 0.26266 0.0
H1435 H 0.19812 0.78659 0.09224 0.0
H1436 H 0.18454 0.76609 0.12575 0.0
H1437 H 0.17667 0.78034 0.11257 0.0
H1438 H 0.15294 0.76805 0.18709 0.0
H1439 H 0.12947 0.73885 0.17586 0.0
H1440 H 0.43505 0.27346 0.72775 0.0
H1441 H 0.42923 0.2444 0.7184 0.0
H1442 H 0.38366 0.22678 0.82418 0.0
H1443 H 0.38945 0.256 0.83416 0.0
H1444 H 0.40489 0.21441 0.86331 0.0
H1445 H 0.39312 0.2054 0.61597 0.0
H1446 H 0.41235 0.22454 0.63413 0.0
H1447 H 0.39233 0.22204 0.65764 0.0
C1448 C 0.4237 0.26341 0.74864 0.0
C1449 C 0.41268 0.26699 0.78164 0.0
C1450 C 0.42034 0.2468 0.74288 0.0
C1451 C 0.40589 0.23345 0.76977 0.0
C1452 C 0.39481 0.23693 0.80267 0.0
H1453 H 0.38552 0.13027 0.69925 0.0
H1454 H 0.3809 0.1543 0.71364 0.0
C1455 C 0.39813 0.25359 0.80828 0.0
C1456 C 0.40308 0.21605 0.76634 0.0
H1457 H 0.40055 0.18651 0.66557 0.0
C1458 C 0.40364 0.20815 0.82021 0.0
C1459 C 0.4012 0.20783 0.71014 0.0
C1460 C 0.39954 0.21531 0.65122 0.0
C1461 C 0.4034 0.19266 0.81901 0.0
C1462 C 0.40281 0.18507 0.76244 0.0
C1463 C 0.40121 0.19247 0.70887 0.0
C1464 C 0.40502 0.17013 0.75742 0.0
C1465 C 0.40409 0.18471 0.8782 0.0
C1466 C 0.42015 0.17116 0.77697 0.0
C1467 C 0.42283 0.15752 0.76874 0.0
C1468 C 0.41047 0.14264 0.74046 0.0
C1469 C 0.39526 0.14157 0.72131 0.0
C1470 C 0.3926 0.15526 0.72949 0.0
H1471 H 0.39924 0.18903 0.91641 0.0
H1472 H 0.3966 0.17068 0.87574 0.0
H1473 H 0.41743 0.18848 0.88836 0.0
H1474 H 0.43005 0.18267 0.79737 0.0
H1475 H 0.4347 0.15874 0.78376 0.0
loop_
_geom_bond_atom_site_label_1
_geom_bond_atom_site_label_2
_geom_bond_distance
_geom_bond_site_symmetry_2
_ccdc_geom_bond_type
Co0 N4 2.148 . S
Co0 N10 2.128 . S
Co0 N20 2.194 . S
Co0 O25 2.351 . S
Co0 O26 2.155 . S
Co0 O27 2.096 . S
C1 N4 1.301 . S
C1 N5 1.328 . S
C1 H6 0.930 . S
C2 C3 1.333 . S
C2 N4 1.317 . S
C2 H7 0.930 . S
C3 C2 1.333 . S
C3 N5 1.350 . S
C3 H29 0.931 . S
N4 Co0 2.148 . S
N4 C1 1.301 . S
N4 C2 1.317 . S
N5 C1 1.328 . S
N5 C3 1.350 . S
H6 C1 0.930 . S
H7 C2 0.930 . S
C8 O9 1.224 . S
C8 O27 1.247 . S
O9 C8 1.224 . S
N10 Co0 2.128 . S
N10 C11 1.355 . S
N10 C13 1.311 . S
C11 N10 1.355 . S
C11 C12 1.363 . S
C11 H23 0.929 . S
C12 C11 1.363 . S
C12 N14 1.375 . S
C12 H30 0.931 . S
C13 N10 1.311 . S
C13 N14 1.347 . S
C13 H24 0.929 . S
N14 C12 1.375 . S
N14 C13 1.347 . S
C15 C18 1.365 . S
C15 N20 1.328 . S
C15 H21 0.929 . S
C16 C17 1.362 . S
C16 C19 1.378 . S
C16 H31 0.929 . S
C17 C16 1.362 . S
C17 C18 1.366 . S
C18 C15 1.365 . S
C18 C17 1.366 . S
C18 H32 0.930 . S
C19 C16 1.378 . S
C19 N20 1.315 . S
C19 H22 0.930 . S
N20 Co0 2.194 . S
N20 C15 1.328 . S
N20 C19 1.315 . S
H21 C15 0.929 . S
H22 C19 0.930 . S
H23 C11 0.929 . S
H24 C13 0.929 . S
O25 Co0 2.351 . S
O25 C28 1.244 . S
O26 Co0 2.155 . S
O26 C28 1.240 . S
O27 Co0 2.096 . S
O27 C8 1.247 . S
C28 O25 1.244 . S
C28 O26 1.240 . S
H29 C3 0.931 . S
H30 C12 0.931 . S
H31 C16 0.929 . S
H32 C18 0.930 . S
Co33 N37 2.148 . S
Co33 N43 2.128 . S
Co33 N53 2.194 . S
Co33 O58 2.351 . S
Co33 O59 2.155 . S
Co33 O60 2.096 . S
C34 N37 1.301 . S
C34 N38 1.328 . S
C34 H39 0.930 . S
C35 C36 1.333 . S
C35 N37 1.317 . S
C35 H40 0.930 . S
C36 C35 1.333 . S
C36 N38 1.350 . S
C36 H62 0.931 . S
N37 Co33 2.148 . S
N37 C34 1.301 . S
N37 C35 1.317 . S
N38 C34 1.328 . S
N38 C36 1.350 . S
H39 C34 0.930 . S
H40 C35 0.930 . S
C41 O42 1.224 . S
C41 O60 1.247 . S
O42 C41 1.224 . S
N43 Co33 2.128 . S
N43 C44 1.355 . S
N43 C46 1.311 . S
C44 N43 1.355 . S
C44 C45 1.363 . S
C44 H56 0.929 . S
C45 C44 1.363 . S
C45 N47 1.375 1_556 S
C45 H63 0.931 1_556 S
C46 N43 1.311 . S
C46 N47 1.347 1_556 S
C46 H57 0.929 . S
N47 C45 1.375 1_554 S
N47 C46 1.347 1_554 S
C48 C51 1.365 . S
C48 N53 1.328 . S
C48 H54 0.929 . S
C49 C50 1.362 . S
C49 C52 1.378 . S
C49 H64 0.929 . S
C50 C49 1.362 . S
C50 C51 1.366 . S
C51 C48 1.365 . S
C51 C50 1.366 . S
C51 H65 0.930 . S
C52 C49 1.378 . S
C52 N53 1.315 . S
C52 H55 0.930 . S
N53 Co33 2.194 . S
N53 C48 1.328 . S
N53 C52 1.315 . S
H54 C48 0.929 . S
H55 C52 0.930 . S
H56 C44 0.929 . S
H57 C46 0.929 . S
O58 Co33 2.351 . S
O58 C61 1.244 . S
O59 Co33 2.155 . S
O59 C61 1.240 . S
O60 Co33 2.096 . S
O60 C41 1.247 . S
C61 O58 1.244 . S
C61 O59 1.240 . S
H62 C36 0.931 . S
H63 C45 0.931 1_554 S
H64 C49 0.929 . S
H65 C51 0.930 . S
Co66 N70 2.148 . S
Co66 N76 2.128 . S
Co66 N86 2.194 . S
Co66 O91 2.351 . S
Co66 O92 2.155 . S
Co66 O93 2.096 . S
C67 N70 1.301 . S
C67 N71 1.328 . S
C67 H72 0.930 . S
C68 C69 1.333 . S
C68 N70 1.317 . S
C68 H73 0.930 . S
C69 C68 1.333 . S
C69 N71 1.350 . S
C69 H95 0.931 . S
N70 Co66 2.148 . S
N70 C67 1.301 . S
N70 C68 1.317 . S
N71 C67 1.328 . S
N71 C69 1.350 . S
H72 C67 0.930 . S
H73 C68 0.930 . S
C74 O75 1.224 . S
C74 O93 1.247 . S
O75 C74 1.224 . S
N76 Co66 2.128 . S
N76 C77 1.355 . S
N76 C79 1.311 . S
C77 N76 1.355 . S
C77 C78 1.363 . S
C77 H89 0.929 . S
C78 C77 1.363 . S
C78 N80 1.375 . S
C78 H96 0.931 . S
C79 N76 1.311 . S
C79 N80 1.347 . S
C79 H90 0.929 . S
N80 C78 1.375 . S
N80 C79 1.347 . S
C81 C84 1.365 . S
C81 N86 1.328 . S
C81 H87 0.929 . S
C82 C83 1.362 . S
C82 C85 1.378 . S
C82 H97 0.929 . S
C83 C82 1.362 . S
C83 C84 1.366 . S
C84 C81 1.365 . S
C84 C83 1.366 . S
C84 H98 0.930 . S
C85 C82 1.378 . S
C85 N86 1.315 . S
C85 H88 0.930 . S
N86 Co66 2.194 . S
N86 C81 1.328 . S
N86 C85 1.315 . S
H87 C81 0.929 . S
H88 C85 0.930 . S
H89 C77 0.929 . S
H90 C79 0.929 . S
O91 Co66 2.351 . S
O91 C94 1.244 . S
O92 Co66 2.155 . S
O92 C94 1.240 . S
O93 Co66 2.096 . S
O93 C74 1.247 . S
C94 O91 1.244 . S
C94 O92 1.240 . S
H95 C69 0.931 . S
H96 C78 0.931 . S
H97 C82 0.929 . S
H98 C84 0.930 . S
Co99 N103 2.148 . S
Co99 N109 2.128 . S
Co99 N119 2.194 . S
Co99 O124 2.351 . S
Co99 O125 2.155 . S
Co99 O126 2.096 . S
C100 N103 1.301 . S
C100 N104 1.328 . S
C100 H105 0.930 . S
C101 C102 1.333 . S
C101 N103 1.317 . S
C101 H106 0.930 . S
C102 C101 1.333 . S
C102 N104 1.350 . S
C102 H128 0.931 . S
N103 Co99 2.148 . S
N103 C100 1.301 . S
N103 C101 1.317 . S
N104 C100 1.328 . S
N104 C102 1.350 . S
H105 C100 0.930 . S
H106 C101 0.930 . S
C107 O108 1.224 . S
C107 O126 1.247 . S
O108 C107 1.224 . S
N109 Co99 2.128 . S
N109 C110 1.355 . S
N109 C112 1.311 . S
C110 N109 1.355 . S
C110 C111 1.363 . S
C110 H122 0.929 . S
C111 C110 1.363 . S
C111 N113 1.375 1_556 S
C111 H129 0.931 1_556 S
C112 N109 1.311 . S
C112 N113 1.347 1_556 S
C112 H123 0.929 . S
N113 C111 1.375 1_554 S
N113 C112 1.347 1_554 S
C114 C117 1.365 . S
C114 N119 1.328 . S
C114 H120 0.929 . S
C115 C116 1.362 . S
C115 C118 1.378 . S
C115 H130 0.929 . S
C116 C115 1.362 . S
C116 C117 1.366 . S
C117 C114 1.365 . S
C117 C116 1.366 . S
C117 H131 0.930 . S
C118 C115 1.378 . S
C118 N119 1.315 . S
C118 H121 0.930 . S
N119 Co99 2.194 . S
N119 C114 1.328 . S
N119 C118 1.315 . S
H120 C114 0.929 . S
H121 C118 0.930 . S
H122 C110 0.929 . S
H123 C112 0.929 . S
O124 Co99 2.351 . S
O124 C127 1.244 . S
O125 Co99 2.155 . S
O125 C127 1.240 . S
O126 Co99 2.096 . S
O126 C107 1.247 . S
C127 O124 1.244 . S
C127 O125 1.240 . S
H128 C102 0.931 . S
H129 C111 0.931 1_554 S
H130 C115 0.929 . S
H131 C117 0.930 . S
Co132 N136 2.148 . S
Co132 N142 2.128 . S
Co132 N152 2.194 . S
Co132 O157 2.351 . S
Co132 O158 2.155 . S
Co132 O159 2.096 . S
C133 N136 1.301 . S
C133 N137 1.328 . S
C133 H138 0.930 . S
C134 C135 1.333 . S
C134 N136 1.317 . S
C134 H139 0.930 . S
C135 C134 1.333 . S
C135 N137 1.350 . S
C135 H161 0.931 . S
N136 Co132 2.148 . S
N136 C133 1.301 . S
N136 C134 1.317 . S
N137 C133 1.328 . S
N137 C135 1.350 . S
H138 C133 0.930 . S
H139 C134 0.930 . S
C140 O141 1.224 . S
C140 O159 1.247 . S
O141 C140 1.224 . S
N142 Co132 2.128 . S
N142 C143 1.355 . S
N142 C145 1.311 . S
C143 N142 1.355 . S
C143 C144 1.363 . S
C143 H155 0.929 . S
C144 C143 1.363 . S
C144 N146 1.375 . S
C144 H162 0.931 . S
C145 N142 1.311 . S
C145 N146 1.347 . S
C145 H156 0.929 . S
N146 C144 1.375 . S
N146 C145 1.347 . S
C147 C150 1.365 . S
C147 N152 1.328 . S
C147 H153 0.929 . S
C148 C149 1.362 . S
C148 C151 1.378 . S
C148 H163 0.929 . S
C149 C148 1.362 . S
C149 C150 1.366 . S
C150 C147 1.365 . S
C150 C149 1.366 . S
C150 H164 0.930 . S
C151 C148 1.378 . S
C151 N152 1.315 . S
C151 H154 0.930 . S
N152 Co132 2.194 . S
N152 C147 1.328 . S
N152 C151 1.315 . S
H153 C147 0.929 . S
H154 C151 0.930 . S
H155 C143 0.929 . S
H156 C145 0.929 . S
O157 Co132 2.351 . S
O157 C160 1.244 . S
O158 Co132 2.155 . S
O158 C160 1.240 . S
O159 Co132 2.096 . S
O159 C140 1.247 . S
C160 O157 1.244 . S
C160 O158 1.240 . S
H161 C135 0.931 . S
H162 C144 0.931 . S
H163 C148 0.929 . S
H164 C150 0.930 . S
Co165 N169 2.148 . S
Co165 N175 2.128 . S
Co165 N185 2.194 . S
Co165 O190 2.351 . S
Co165 O191 2.155 . S
Co165 O192 2.096 . S
C166 N169 1.301 . S
C166 N170 1.328 . S
C166 H171 0.930 . S
C167 C168 1.333 . S
C167 N169 1.317 . S
C167 H172 0.930 . S
C168 C167 1.333 . S
C168 N170 1.350 . S
C168 H194 0.931 . S
N169 Co165 2.148 . S
N169 C166 1.301 . S
N169 C167 1.317 . S
N170 C166 1.328 . S
N170 C168 1.350 . S
H171 C166 0.930 . S
H172 C167 0.930 . S
C173 O174 1.224 . S
C173 O192 1.247 . S
O174 C173 1.224 . S
N175 Co165 2.128 . S
N175 C176 1.355 . S
N175 C178 1.311 . S
C176 N175 1.355 . S
C176 C177 1.363 . S
C176 H188 0.929 . S
C177 C176 1.363 . S
C177 N179 1.375 1_556 S
C177 H195 0.931 1_556 S
C178 N175 1.311 . S
C178 N179 1.347 1_556 S
C178 H189 0.929 . S
N179 C177 1.375 1_554 S
N179 C178 1.347 1_554 S
C180 C183 1.365 . S
C180 N185 1.328 . S
C180 H186 0.929 . S
C181 C182 1.362 . S
C181 C184 1.378 . S
C181 H196 0.929 . S
C182 C181 1.362 . S
C182 C183 1.366 . S
C183 C180 1.365 . S
C183 C182 1.366 . S
C183 H197 0.930 . S
C184 C181 1.378 . S
C184 N185 1.315 . S
C184 H187 0.930 . S
N185 Co165 2.194 . S
N185 C180 1.328 . S
N185 C184 1.315 . S
H186 C180 0.929 . S
H187 C184 0.930 . S
H188 C176 0.929 . S
H189 C178 0.929 . S
O190 Co165 2.351 . S
O190 C193 1.244 . S
O191 Co165 2.155 . S
O191 C193 1.240 . S
O192 Co165 2.096 . S
O192 C173 1.247 . S
C193 O190 1.244 . S
C193 O191 1.240 . S
H194 C168 0.931 . S
H195 C177 0.931 1_554 S
H196 C181 0.929 . S
H197 C183 0.930 . S
Co198 N202 2.148 . S
Co198 N208 2.128 . S
Co198 N218 2.194 . S
Co198 O223 2.351 . S
Co198 O224 2.155 . S
Co198 O225 2.096 . S
C199 N202 1.301 . S
C199 N203 1.328 . S
C199 H204 0.930 . S
C200 C201 1.333 . S
C200 N202 1.317 . S
C200 H205 0.930 . S
C201 C200 1.333 . S
C201 N203 1.350 . S
C201 H227 0.931 . S
N202 Co198 2.148 . S
N202 C199 1.301 . S
N202 C200 1.317 . S
N203 C199 1.328 . S
N203 C201 1.350 . S
H204 C199 0.930 . S
H205 C200 0.930 . S
C206 O207 1.224 . S
C206 O225 1.247 . S
O207 C206 1.224 . S
N208 Co198 2.128 . S
N208 C209 1.355 . S
N208 C211 1.311 . S
C209 N208 1.355 . S
C209 C210 1.363 . S
C209 H221 0.929 . S
C210 C209 1.363 . S
C210 N212 1.375 1_554 S
C210 H228 0.931 1_554 S
C211 N208 1.311 . S
C211 N212 1.347 1_554 S
C211 H222 0.929 . S
N212 C210 1.375 1_556 S
N212 C211 1.347 1_556 S
C213 C216 1.365 . S
C213 N218 1.328 . S
C213 H219 0.929 . S
C214 C215 1.362 . S
C214 C217 1.378 . S
C214 H229 0.929 . S
C215 C214 1.362 . S
C215 C216 1.366 . S
C216 C213 1.365 . S
C216 C215 1.366 . S
C216 H230 0.930 . S
C217 C214 1.378 . S
C217 N218 1.315 . S
C217 H220 0.930 . S
N218 Co198 2.194 . S
N218 C213 1.328 . S
N218 C217 1.315 . S
H219 C213 0.929 . S
H220 C217 0.930 . S
H221 C209 0.929 . S
H222 C211 0.929 . S
O223 Co198 2.351 . S
O223 C226 1.244 . S
O224 Co198 2.155 . S
O224 C226 1.240 . S
O225 Co198 2.096 . S
O225 C206 1.247 . S
C226 O223 1.244 . S
C226 O224 1.240 . S
H227 C201 0.931 . S
H228 C210 0.931 1_556 S
H229 C214 0.929 . S
H230 C216 0.930 . S
Co231 N235 2.148 . S
Co231 N241 2.128 . S
Co231 N251 2.194 . S
Co231 O256 2.351 . S
Co231 O257 2.155 . S
Co231 O258 2.096 . S
C232 N235 1.301 . S
C232 N236 1.328 . S
C232 H237 0.930 . S
C233 C234 1.333 . S
C233 N235 1.317 . S
C233 H238 0.930 . S
C234 C233 1.333 . S
C234 N236 1.350 . S
C234 H260 0.931 . S
N235 Co231 2.148 . S
N235 C232 1.301 . S
N235 C233 1.317 . S
N236 C232 1.328 . S
N236 C234 1.350 . S
H237 C232 0.930 . S
H238 C233 0.930 . S
C239 O240 1.224 . S
C239 O258 1.247 . S
O240 C239 1.224 . S
N241 Co231 2.128 . S
N241 C242 1.355 . S
N241 C244 1.311 . S
C242 N241 1.355 . S
C242 C243 1.363 . S
C242 H254 0.929 . S
C243 C242 1.363 . S
C243 N245 1.375 . S
C243 H261 0.931 . S
C244 N241 1.311 . S
C244 N245 1.347 . S
C244 H255 0.929 . S
N245 C243 1.375 . S
N245 C244 1.347 . S
C246 C249 1.365 . S
C246 N251 1.328 . S
C246 H252 0.929 . S
C247 C248 1.362 . S
C247 C250 1.378 . S
C247 H262 0.929 . S
C248 C247 1.362 . S
C248 C249 1.366 . S
C249 C246 1.365 . S
C249 C248 1.366 . S
C249 H263 0.930 . S
C250 C247 1.378 . S
C250 N251 1.315 . S
C250 H253 0.930 . S
N251 Co231 2.194 . S
N251 C246 1.328 . S
N251 C250 1.315 . S
H252 C246 0.929 . S
H253 C250 0.930 . S
H254 C242 0.929 . S
H255 C244 0.929 . S
O256 Co231 2.351 . S
O256 C259 1.244 . S
O257 Co231 2.155 . S
O257 C259 1.240 . S
O258 Co231 2.096 . S
O258 C239 1.247 . S
C259 O256 1.244 . S
C259 O257 1.240 . S
H260 C234 0.931 . S
H261 C243 0.931 . S
H262 C247 0.929 . S
H263 C249 0.930 . S
Co264 N268 2.148 . S
Co264 N274 2.128 . S
Co264 N284 2.194 . S
Co264 O289 2.351 . S
Co264 O290 2.155 . S
Co264 O291 2.096 . S
C265 N268 1.301 . S
C265 N269 1.328 . S
C265 H270 0.930 . S
C266 C267 1.333 . S
C266 N268 1.317 . S
C266 H271 0.930 . S
C267 C266 1.333 . S
C267 N269 1.350 . S
C267 H293 0.931 . S
N268 Co264 2.148 . S
N268 C265 1.301 . S
N268 C266 1.317 . S
N269 C265 1.328 . S
N269 C267 1.350 . S
H270 C265 0.930 . S
H271 C266 0.930 . S
C272 O273 1.224 . S
C272 O291 1.247 . S
O273 C272 1.224 . S
N274 Co264 2.128 . S
N274 C275 1.355 . S
N274 C277 1.311 . S
C275 N274 1.355 . S
C275 C276 1.363 . S
C275 H287 0.929 . S
C276 C275 1.363 . S
C276 N278 1.375 1_554 S
C276 H294 0.931 1_554 S
C277 N274 1.311 . S
C277 N278 1.347 1_554 S
C277 H288 0.929 . S
N278 C276 1.375 1_556 S
N278 C277 1.347 1_556 S
C279 C282 1.365 . S
C279 N284 1.328 . S
C279 H285 0.929 . S
C280 C281 1.362 . S
C280 C283 1.378 . S
C280 H295 0.929 . S
C281 C280 1.362 . S
C281 C282 1.366 . S
C282 C279 1.365 . S
C282 C281 1.366 . S
C282 H296 0.930 . S
C283 C280 1.378 . S
C283 N284 1.315 . S
C283 H286 0.930 . S
N284 Co264 2.194 . S
N284 C279 1.328 . S
N284 C283 1.315 . S
H285 C279 0.929 . S
H286 C283 0.930 . S
H287 C275 0.929 . S
H288 C277 0.929 . S
O289 Co264 2.351 . S
O289 C292 1.244 . S
O290 Co264 2.155 . S
O290 C292 1.240 . S
O291 Co264 2.096 . S
O291 C272 1.247 . S
C292 O289 1.244 . S
C292 O290 1.240 . S
H293 C267 0.931 . S
H294 C276 0.931 1_556 S
H295 C280 0.929 . S
H296 C282 0.930 . S
Co297 N301 2.148 . S
Co297 N307 2.128 . S
Co297 N317 2.194 . S
Co297 O322 2.351 . S
Co297 O323 2.155 . S
Co297 O324 2.096 . S
C298 N301 1.301 . S
C298 N302 1.328 . S
C298 H303 0.930 . S
C299 C300 1.333 . S
C299 N301 1.317 . S
C299 H304 0.930 . S
C300 C299 1.333 . S
C300 N302 1.350 . S
C300 H326 0.931 . S
N301 Co297 2.148 . S
N301 C298 1.301 . S
N301 C299 1.317 . S
N302 C298 1.328 . S
N302 C300 1.350 . S
H303 C298 0.930 . S
H304 C299 0.930 . S
C305 O306 1.224 . S
C305 O324 1.247 . S
O306 C305 1.224 . S
N307 Co297 2.128 . S
N307 C308 1.355 . S
N307 C310 1.311 . S
C308 N307 1.355 . S
C308 C309 1.363 . S
C308 H320 0.929 . S
C309 C308 1.363 . S
C309 N311 1.375 . S
C309 H327 0.931 . S
C310 N307 1.311 . S
C310 N311 1.347 . S
C310 H321 0.929 . S
N311 C309 1.375 . S
N311 C310 1.347 . S
C312 C315 1.365 . S
C312 N317 1.328 . S
C312 H318 0.929 . S
C313 C314 1.362 . S
C313 C316 1.378 . S
C313 H328 0.929 . S
C314 C313 1.362 . S
C314 C315 1.366 . S
C315 C312 1.365 . S
C315 C314 1.366 . S
C315 H329 0.930 . S
C316 C313 1.378 . S
C316 N317 1.315 . S
C316 H319 0.930 . S
N317 Co297 2.194 . S
N317 C312 1.328 . S
N317 C316 1.315 . S
H318 C312 0.929 . S
H319 C316 0.930 . S
H320 C308 0.929 . S
H321 C310 0.929 . S
O322 Co297 2.351 . S
O322 C325 1.244 . S
O323 Co297 2.155 . S
O323 C325 1.240 . S
O324 Co297 2.096 . S
O324 C305 1.247 . S
C325 O322 1.244 . S
C325 O323 1.240 . S
H326 C300 0.931 . S
H327 C309 0.931 . S
H328 C313 0.929 . S
H329 C315 0.930 . S
Co330 N334 2.148 . S
Co330 N340 2.128 . S
Co330 N350 2.194 . S
Co330 O355 2.351 . S
Co330 O356 2.155 . S
Co330 O357 2.096 . S
C331 N334 1.301 . S
C331 N335 1.328 . S
C331 H336 0.930 . S
C332 C333 1.333 . S
C332 N334 1.317 . S
C332 H337 0.930 . S
C333 C332 1.333 . S
C333 N335 1.350 . S
C333 H359 0.931 . S
N334 Co330 2.148 . S
N334 C331 1.301 . S
N334 C332 1.317 . S
N335 C331 1.328 . S
N335 C333 1.350 . S
H336 C331 0.930 . S
H337 C332 0.930 . S
C338 O339 1.224 . S
C338 O357 1.247 . S
O339 C338 1.224 . S
N340 Co330 2.128 . S
N340 C341 1.355 . S
N340 C343 1.311 . S
C341 N340 1.355 . S
C341 C342 1.363 . S
C341 H353 0.929 . S
C342 C341 1.363 . S
C342 N344 1.375 1_554 S
C342 H360 0.931 1_554 S
C343 N340 1.311 . S
C343 N344 1.347 1_554 S
C343 H354 0.929 . S
N344 C342 1.375 1_556 S
N344 C343 1.347 1_556 S
C345 C348 1.365 . S
C345 N350 1.328 . S
C345 H351 0.929 . S
C346 C347 1.362 . S
C346 C349 1.378 . S
C346 H361 0.929 . S
C347 C346 1.362 . S
C347 C348 1.366 . S
C348 C345 1.365 . S
C348 C347 1.366 . S
C348 H362 0.930 . S
C349 C346 1.378 . S
C349 N350 1.315 . S
C349 H352 0.930 . S
N350 Co330 2.194 . S
N350 C345 1.328 . S
N350 C349 1.315 . S
H351 C345 0.929 . S
H352 C349 0.930 . S
H353 C341 0.929 . S
H354 C343 0.929 . S
O355 Co330 2.351 . S
O355 C358 1.244 . S
O356 Co330 2.155 . S
O356 C358 1.240 . S
O357 Co330 2.096 . S
O357 C338 1.247 . S
C358 O355 1.244 . S
C358 O356 1.240 . S
H359 C333 0.931 . S
H360 C342 0.931 1_556 S
H361 C346 0.929 . S
H362 C348 0.930 . S
Co363 N367 2.148 . S
Co363 N373 2.128 . S
Co363 N383 2.194 . S
Co363 O388 2.351 . S
Co363 O389 2.155 . S
Co363 O390 2.096 . S
C364 N367 1.301 . S
C364 N368 1.328 . S
C364 H369 0.930 . S
C365 C366 1.333 . S
C365 N367 1.317 . S
C365 H370 0.930 . S
C366 C365 1.333 . S
C366 N368 1.350 . S
C366 H392 0.931 . S
N367 Co363 2.148 . S
N367 C364 1.301 . S
N367 C365 1.317 . S
N368 C364 1.328 . S
N368 C366 1.350 . S
H369 C364 0.930 . S
H370 C365 0.930 . S
C371 O372 1.224 . S
C371 O390 1.247 . S
O372 C371 1.224 . S
N373 Co363 2.128 . S
N373 C374 1.355 . S
N373 C376 1.311 . S
C374 N373 1.355 . S
C374 C375 1.363 . S
C374 H386 0.929 . S
C375 C374 1.363 . S
C375 N377 1.375 . S
C375 H393 0.931 . S
C376 N373 1.311 . S
C376 N377 1.347 . S
C376 H387 0.929 . S
N377 C375 1.375 . S
N377 C376 1.347 . S
C378 C381 1.365 . S
C378 N383 1.328 . S
C378 H384 0.929 . S
C379 C380 1.362 . S
C379 C382 1.378 . S
C379 H394 0.929 . S
C380 C379 1.362 . S
C380 C381 1.366 . S
C381 C378 1.365 . S
C381 C380 1.366 . S
C381 H395 0.930 . S
C382 C379 1.378 . S
C382 N383 1.315 . S
C382 H385 0.930 . S
N383 Co363 2.194 . S
N383 C378 1.328 . S
N383 C382 1.315 . S
H384 C378 0.929 . S
H385 C382 0.930 . S
H386 C374 0.929 . S
H387 C376 0.929 . S
O388 Co363 2.351 . S
O388 C391 1.244 . S
O389 Co363 2.155 . S
O389 C391 1.240 . S
O390 Co363 2.096 . S
O390 C371 1.247 . S
C391 O388 1.244 . S
C391 O389 1.240 . S
H392 C366 0.931 . S
H393 C375 0.931 . S
H394 C379 0.929 . S
H395 C381 0.930 . S
H396 C404 0.929 . S
H397 C406 0.930 . S
H398 C408 0.930 . S
H399 C411 0.929 . S
H400 C414 0.936 . S
H401 C416 0.960 . S
H402 C416 0.960 . S
H403 C416 0.960 . S
C404 H396 0.929 . S
C404 C405 1.377 . S
C404 C406 1.384 . S
C405 C404 1.377 . S
C405 C411 1.390 . S
C406 H397 0.930 . S
C406 C404 1.384 . S
C406 C407 1.372 . S
C407 C406 1.372 . S
C407 C408 1.400 . S
C407 C412 1.490 . S
C408 H398 0.930 . S
C408 C407 1.400 . S
C408 C411 1.386 . S
H409 C425 0.930 . S
H410 C426 0.931 . S
C411 H399 0.929 . S
C411 C405 1.390 . S
C411 C408 1.386 . S
C412 C407 1.490 . S
C412 C414 1.418 . S
C412 C415 1.403 . S
H413 C419 0.930 . S
C414 H400 0.936 . S
C414 C412 1.418 . S
C414 C417 1.375 1_455 S
C415 C412 1.403 . S
C415 C416 1.524 . S
C415 C419 1.400 1_455 S
C416 H401 0.960 . S
C416 H402 0.960 . S
C416 H403 0.960 . S
C416 C415 1.524 . S
C417 C414 1.375 1_655 S
C417 C418 1.392 . S
C417 C421 1.495 . S
C418 C417 1.392 . S
C418 C419 1.385 . S
C418 C420 1.478 . S
C419 H413 0.930 . S
C419 C415 1.400 1_655 S
C419 C418 1.385 . S
C420 C418 1.478 . S
C420 C422 1.381 . S
C420 C426 1.383 . S
C421 C417 1.495 . S
C421 H427 0.959 . S
C421 H428 0.961 . S
C421 H429 0.960 . S
C422 C420 1.381 . S
C422 C423 1.394 . S
C422 H430 0.930 . S
C423 C422 1.394 . S
C423 C424 1.383 . S
C423 H431 0.929 . S
C424 C423 1.383 . S
C424 C425 1.377 . S
C425 H409 0.930 . S
C425 C424 1.377 . S
C425 C426 1.379 . S
C426 H410 0.931 . S
C426 C420 1.383 . S
C426 C425 1.379 . S
H427 C421 0.959 . S
H428 C421 0.961 . S
H429 C421 0.960 . S
H430 C422 0.930 . S
H431 C423 0.929 . S
H432 C440 0.929 . S
H433 C442 0.930 . S
H434 C444 0.930 1_554 S
H435 C447 0.929 . S
H436 C450 0.930 . S
H437 C452 0.960 . S
H438 C452 0.960 . S
H439 C452 0.960 . S
C440 H432 0.929 . S
C440 C441 1.377 . S
C440 C442 1.384 . S
C441 C440 1.377 . S
C441 C447 1.390 . S
C442 H433 0.930 . S
C442 C440 1.384 . S
C442 C443 1.372 . S
C443 C442 1.372 . S
C443 C444 1.400 . S
C443 C448 1.490 . S
C444 H434 0.930 1_556 S
C444 C443 1.400 . S
C444 C447 1.386 . S
H445 C461 0.930 . S
H446 C462 0.931 . S
C447 H435 0.929 . S
C447 C441 1.390 . S
C447 C444 1.386 . S
C448 C443 1.490 . S
C448 C450 1.395 . S
C448 C451 1.403 1_556 S
H449 C455 0.930 . S
C450 H436 0.930 . S
C450 C448 1.395 . S
C450 C453 1.403 1_545 S
C451 C448 1.403 1_554 S
C451 C452 1.524 . S
C451 C455 1.400 1_545 S
C452 H437 0.960 . S
C452 H438 0.960 . S
C452 H439 0.960 . S
C452 C451 1.524 . S
C453 C450 1.403 1_565 S
C453 C454 1.392 1_556 S
C453 C457 1.495 . S
C454 C453 1.392 1_554 S
C454 C455 1.385 . S
C454 C456 1.478 . S
C455 H449 0.930 . S
C455 C451 1.400 1_565 S
C455 C454 1.385 . S
C456 C454 1.478 . S
C456 C458 1.381 . S
C456 C462 1.383 . S
C457 C453 1.495 . S
C457 H463 0.959 . S
C457 H464 0.961 . S
C457 H465 0.960 . S
C458 C456 1.381 . S
C458 C459 1.394 . S
C458 H466 0.930 1_554 S
C459 C458 1.394 . S
C459 C460 1.383 . S
C459 H467 0.929 . S
C460 C459 1.383 . S
C460 C461 1.377 . S
C461 H445 0.930 . S
C461 C460 1.377 . S
C461 C462 1.379 . S
C462 H446 0.931 . S
C462 C456 1.383 . S
C462 C461 1.379 . S
H463 C457 0.959 . S
H464 C457 0.961 . S
H465 C457 0.960 . S
H466 C458 0.930 1_556 S
H467 C459 0.929 . S
H468 C476 0.929 . S
H469 C478 0.930 . S
H470 C480 0.930 . S
H471 C483 0.929 . S
H472 C486 0.930 . S
H473 C488 0.960 . S
H474 C488 0.960 . S
H475 C488 0.960 . S
C476 H468 0.929 . S
C476 C477 1.377 . S
C476 C478 1.384 . S
C477 C476 1.377 . S
C477 C483 1.390 . S
C478 H469 0.930 . S
C478 C476 1.384 . S
C478 C479 1.372 . S
C479 C478 1.372 . S
C479 C480 1.400 . S
C479 C484 1.490 . S
C480 H470 0.930 . S
C480 C479 1.400 . S
C480 C483 1.386 . S
H481 C497 0.930 . S
H482 C498 0.931 . S
C483 H471 0.929 . S
C483 C477 1.390 . S
C483 C480 1.386 . S
C484 C479 1.490 . S
C484 C486 1.395 . S
C484 C487 1.403 . S
H485 C491 0.930 . S
C486 H472 0.930 . S
C486 C484 1.395 . S
C486 C489 1.403 . S
C487 C484 1.403 . S
C487 C488 1.524 . S
C487 C491 1.400 . S
C488 H473 0.960 . S
C488 H474 0.960 . S
C488 H475 0.960 . S
C488 C487 1.524 . S
C489 C486 1.403 . S
C489 C490 1.392 . S
C489 C493 1.495 . S
C490 C489 1.392 . S
C490 C491 1.385 . S
C490 C492 1.478 . S
C491 H485 0.930 . S
C491 C487 1.400 . S
C491 C490 1.385 . S
C492 C490 1.478 . S
C492 C494 1.381 . S
C492 C498 1.383 . S
C493 C489 1.495 . S
C493 H499 0.959 . S
C493 H500 0.961 . S
C493 H501 0.960 . S
C494 C492 1.381 . S
C494 C495 1.394 . S
C494 H502 0.930 . S
C495 C494 1.394 . S
C495 C496 1.383 . S
C495 H503 0.929 . S
C496 C495 1.383 . S
C496 C497 1.377 . S
C497 H481 0.930 . S
C497 C496 1.377 . S
C497 C498 1.379 . S
C498 H482 0.931 . S
C498 C492 1.383 . S
C498 C497 1.379 . S
H499 C493 0.959 . S
H500 C493 0.961 . S
H501 C493 0.960 . S
H502 C494 0.930 . S
H503 C495 0.929 . S
H504 C512 0.929 . S
H505 C514 0.930 . S
H506 C516 0.930 1_556 S
H507 C519 0.929 . S
H508 C522 0.930 . S
H509 C524 0.960 . S
H510 C524 0.960 . S
H511 C524 0.960 . S
C512 H504 0.929 . S
C512 C513 1.377 . S
C512 C514 1.384 . S
C513 C512 1.377 . S
C513 C519 1.390 . S
C514 H505 0.930 . S
C514 C512 1.384 . S
C514 C515 1.372 . S
C515 C514 1.372 . S
C515 C516 1.400 . S
C515 C520 1.490 . S
C516 H506 0.930 1_554 S
C516 C515 1.400 . S
C516 C519 1.386 . S
H517 C533 0.930 . S
H518 C534 0.931 . S
C519 H507 0.929 . S
C519 C513 1.390 . S
C519 C516 1.386 . S
C520 C515 1.490 . S
C520 C522 1.395 . S
C520 C523 1.403 1_554 S
H521 C527 0.930 . S
C522 H508 0.930 . S
C522 C520 1.395 . S
C522 C525 1.403 1_455 S
C523 C520 1.403 1_556 S
C523 C524 1.524 . S
C523 C527 1.400 1_455 S
C524 H509 0.960 . S
C524 H510 0.960 . S
C524 H511 0.960 . S
C524 C523 1.524 . S
C525 C522 1.403 1_655 S
C525 C526 1.392 1_554 S
C525 C529 1.495 . S
C526 C525 1.392 1_556 S
C526 C527 1.385 . S
C526 C528 1.478 . S
C527 H521 0.930 . S
C527 C523 1.400 1_655 S
C527 C526 1.385 . S
C528 C526 1.478 . S
C528 C530 1.381 . S
C528 C534 1.383 . S
C529 C525 1.495 . S
C529 H535 0.959 . S
C529 H536 0.961 . S
C529 H537 0.960 . S
C530 C528 1.381 . S
C530 C531 1.394 . S
C530 H538 0.930 1_556 S
C531 C530 1.394 . S
C531 C532 1.383 . S
C531 H539 0.929 . S
C532 C531 1.383 . S
C532 C533 1.377 . S
C533 H517 0.930 . S
C533 C532 1.377 . S
C533 C534 1.379 . S
C534 H518 0.931 . S
C534 C528 1.383 . S
C534 C533 1.379 . S
H535 C529 0.959 . S
H536 C529 0.961 . S
H537 C529 0.960 . S
H538 C530 0.930 1_554 S
H539 C531 0.929 . S
H540 C548 0.929 . S
H541 C550 0.930 . S
H542 C552 0.930 . S
H543 C555 0.929 . S
H544 C558 0.930 . S
H545 C560 0.960 . S
H546 C560 0.960 . S
H547 C560 0.960 . S
C548 H540 0.929 . S
C548 C549 1.377 . S
C548 C550 1.384 . S
C549 C548 1.377 . S
C549 C555 1.390 . S
C550 H541 0.930 . S
C550 C548 1.384 . S
C550 C551 1.372 . S
C551 C550 1.372 . S
C551 C552 1.400 . S
C551 C556 1.490 . S
C552 H542 0.930 . S
C552 C551 1.400 . S
C552 C555 1.386 . S
H553 C569 0.930 . S
H554 C570 0.931 . S
C555 H543 0.929 . S
C555 C549 1.390 . S
C555 C552 1.386 . S
C556 C551 1.490 . S
C556 C558 1.395 . S
C556 C559 1.403 . S
H557 C563 0.930 . S
C558 H544 0.930 . S
C558 C556 1.395 . S
C558 C561 1.403 1_545 S
C559 C556 1.403 . S
C559 C560 1.524 . S
C559 C563 1.400 1_545 S
C560 H545 0.960 . S
C560 H546 0.960 . S
C560 H547 0.960 . S
C560 C559 1.524 . S
C561 C558 1.403 1_565 S
C561 C562 1.392 . S
C561 C565 1.495 . S
C562 C561 1.392 . S
C562 C563 1.385 . S
C562 C564 1.478 . S
C563 H557 0.930 . S
C563 C559 1.400 1_565 S
C563 C562 1.385 . S
C564 C562 1.478 . S
C564 C566 1.381 . S
C564 C570 1.383 . S
C565 C561 1.495 . S
C565 H571 0.959 . S
C565 H572 0.961 . S
C565 H573 0.960 . S
C566 C564 1.381 . S
C566 C567 1.394 . S
C566 H574 0.930 . S
C567 C566 1.394 . S
C567 C568 1.383 . S
C567 H575 0.929 . S
C568 C567 1.383 . S
C568 C569 1.377 . S
C569 H553 0.930 . S
C569 C568 1.377 . S
C569 C570 1.379 . S
C570 H554 0.931 . S
C570 C564 1.383 . S
C570 C569 1.379 . S
H571 C565 0.959 . S
H572 C565 0.961 . S
H573 C565 0.960 . S
H574 C566 0.930 . S
H575 C567 0.929 . S
H576 C584 0.929 . S
H577 C586 0.930 . S
H578 C588 0.927 1_554 S
H579 C591 0.929 . S
H580 C594 0.930 . S
H581 C596 0.960 . S
H582 C596 0.960 . S
H583 C596 0.960 . S
C584 H576 0.929 . S
C584 C585 1.377 . S
C584 C586 1.384 . S
C585 C584 1.377 . S
C585 C591 1.390 . S
C586 H577 0.930 . S
C586 C584 1.384 . S
C586 C587 1.372 . S
C587 C586 1.372 . S
C587 C588 1.400 . S
C587 C592 1.490 . S
C588 H578 0.927 1_556 S
C588 C587 1.400 . S
C588 C591 1.386 . S
H589 C605 0.930 . S
H590 C606 0.931 . S
C591 H579 0.929 . S
C591 C585 1.390 . S
C591 C588 1.386 . S
C592 C587 1.490 . S
C592 C594 1.395 . S
C592 C595 1.403 1_556 S
H593 C599 0.930 . S
C594 H580 0.930 . S
C594 C592 1.395 . S
C594 C597 1.403 . S
C595 C592 1.403 1_554 S
C595 C596 1.524 . S
C595 C599 1.400 . S
C596 H581 0.960 . S
C596 H582 0.960 . S
C596 H583 0.960 . S
C596 C595 1.524 . S
C597 C594 1.403 . S
C597 C598 1.392 1_556 S
C597 C601 1.495 . S
C598 C597 1.392 1_554 S
C598 C599 1.385 . S
C598 C600 1.478 . S
C599 H593 0.930 . S
C599 C595 1.400 . S
C599 C598 1.385 . S
C600 C598 1.478 . S
C600 C602 1.381 . S
C600 C606 1.383 . S
C601 C597 1.495 . S
C601 H607 0.959 . S
C601 H608 0.961 . S
C601 H609 0.960 . S
C602 C600 1.381 . S
C602 C603 1.394 . S
C602 H610 0.930 1_554 S
C603 C602 1.394 . S
C603 C604 1.383 . S
C603 H611 0.929 . S
C604 C603 1.383 . S
C604 C605 1.377 . S
C605 H589 0.930 . S
C605 C604 1.377 . S
C605 C606 1.379 . S
C606 H590 0.931 . S
C606 C600 1.383 . S
C606 C605 1.379 . S
H607 C601 0.959 . S
H608 C601 0.961 . S
H609 C601 0.960 . S
H610 C602 0.930 1_556 S
H611 C603 0.929 . S
H612 C620 0.929 . S
H613 C622 0.930 . S
H614 C624 0.930 . S
H615 C627 0.929 . S
H616 C630 0.930 . S
H617 C632 0.960 . S
H618 C632 0.960 . S
H619 C632 0.960 . S
C620 H612 0.929 . S
C620 C621 1.377 . S
C620 C622 1.384 . S
C621 C620 1.377 . S
C621 C627 1.390 . S
C622 H613 0.930 . S
C622 C620 1.384 . S
C622 C623 1.372 . S
C623 C622 1.372 . S
C623 C624 1.400 . S
C623 C628 1.490 . S
C624 H614 0.930 . S
C624 C623 1.400 . S
C624 C627 1.386 . S
H625 C641 0.930 . S
H626 C642 0.931 . S
C627 H615 0.929 . S
C627 C621 1.390 . S
C627 C624 1.386 . S
C628 C623 1.490 . S
C628 C630 1.395 . S
C628 C631 1.403 . S
H629 C635 0.930 . S
C630 H616 0.930 . S
C630 C628 1.395 . S
C630 C633 1.403 . S
C631 C628 1.403 . S
C631 C632 1.524 . S
C631 C635 1.400 . S
C632 H617 0.960 . S
C632 H618 0.960 . S
C632 H619 0.960 . S
C632 C631 1.524 . S
C633 C630 1.403 . S
C633 C634 1.392 . S
C633 C637 1.495 . S
C634 C633 1.392 . S
C634 C635 1.385 . S
C634 C636 1.478 . S
C635 H629 0.930 . S
C635 C631 1.400 . S
C635 C634 1.385 . S
C636 C634 1.478 . S
C636 C638 1.381 . S
C636 C642 1.383 . S
C637 C633 1.495 . S
C637 H643 0.959 . S
C637 H644 0.961 . S
C637 H645 0.960 . S
C638 C636 1.381 . S
C638 C639 1.394 . S
C638 H646 0.930 . S
C639 C638 1.394 . S
C639 C640 1.383 . S
C639 H647 0.929 . S
C640 C639 1.383 . S
C640 C641 1.377 . S
C641 H625 0.930 . S
C641 C640 1.377 . S
C641 C642 1.379 . S
C642 H626 0.931 . S
C642 C636 1.383 . S
C642 C641 1.379 . S
H643 C637 0.959 . S
H644 C637 0.961 . S
H645 C637 0.960 . S
H646 C638 0.930 . S
H647 C639 0.929 . S
H648 C656 0.929 . S
H649 C658 0.930 . S
H650 C660 0.930 . S
H651 C663 0.929 . S
H652 C666 0.930 . S
H653 C668 0.960 . S
H654 C668 0.960 . S
H655 C668 0.960 . S
C656 H648 0.929 . S
C656 C657 1.377 . S
C656 C658 1.384 . S
C657 C656 1.377 . S
C657 C663 1.390 . S
C658 H649 0.930 . S
C658 C656 1.384 . S
C658 C659 1.372 . S
C659 C658 1.372 . S
C659 C660 1.400 . S
C659 C664 1.490 . S
C660 H650 0.930 . S
C660 C659 1.400 . S
C660 C663 1.386 . S
H661 C677 0.930 . S
H662 C678 0.931 . S
C663 H651 0.929 . S
C663 C657 1.390 . S
C663 C660 1.386 . S
C664 C659 1.490 . S
C664 C666 1.395 . S
C664 C667 1.403 . S
H665 C671 0.930 . S
C666 H652 0.930 . S
C666 C664 1.395 . S
C666 C669 1.403 . S
C667 C664 1.403 . S
C667 C668 1.524 . S
C667 C671 1.400 . S
C668 H653 0.960 . S
C668 H654 0.960 . S
C668 H655 0.960 . S
C668 C667 1.524 . S
C669 C666 1.403 . S
C669 C670 1.392 . S
C669 C673 1.495 . S
C670 C669 1.392 . S
C670 C671 1.385 . S
C670 C672 1.478 . S
C671 H665 0.930 . S
C671 C667 1.400 . S
C671 C670 1.385 . S
C672 C670 1.478 . S
C672 C674 1.381 . S
C672 C678 1.383 . S
C673 C669 1.495 . S
C673 H679 0.959 . S
C673 H680 0.961 . S
C673 H681 0.960 . S
C674 C672 1.381 . S
C674 C675 1.394 . S
C674 H682 0.930 . S
C675 C674 1.394 . S
C675 C676 1.383 . S
C675 H683 0.929 . S
C676 C675 1.383 . S
C676 C677 1.377 . S
C677 H661 0.930 . S
C677 C676 1.377 . S
C677 C678 1.379 . S
C678 H662 0.931 . S
C678 C672 1.383 . S
C678 C677 1.379 . S
H679 C673 0.959 . S
H680 C673 0.961 . S
H681 C673 0.960 . S
H682 C674 0.930 . S
H683 C675 0.929 . S
H684 C692 0.929 . S
H685 C694 0.930 . S
H686 C696 0.930 . S
H687 C699 0.929 . S
H688 C702 0.930 . S
H689 C704 0.960 . S
H690 C704 0.960 . S
H691 C704 0.960 . S
C692 H684 0.929 . S
C692 C693 1.377 . S
C692 C694 1.384 . S
C693 C692 1.377 . S
C693 C699 1.390 . S
C694 H685 0.930 . S
C694 C692 1.384 . S
C694 C695 1.372 . S
C695 C694 1.372 . S
C695 C696 1.400 . S
C695 C700 1.490 . S
C696 H686 0.930 . S
C696 C695 1.400 . S
C696 C699 1.386 . S
H697 C713 0.930 . S
H698 C714 0.931 . S
C699 H687 0.929 . S
C699 C693 1.390 . S
C699 C696 1.386 . S
C700 C695 1.490 . S
C700 C702 1.395 . S
C700 C703 1.403 . S
H701 C707 0.930 . S
C702 H688 0.930 . S
C702 C700 1.395 . S
C702 C705 1.403 . S
C703 C700 1.403 . S
C703 C704 1.524 . S
C703 C707 1.400 . S
C704 H689 0.960 . S
C704 H690 0.960 . S
C704 H691 0.960 . S
C704 C703 1.524 . S
C705 C702 1.403 . S
C705 C706 1.392 . S
C705 C709 1.495 . S
C706 C705 1.392 . S
C706 C707 1.385 . S
C706 C708 1.478 . S
C707 H701 0.930 . S
C707 C703 1.400 . S
C707 C706 1.385 . S
C708 C706 1.478 . S
C708 C710 1.381 . S
C708 C714 1.383 . S
C709 C705 1.495 . S
C709 H715 0.959 . S
C709 H716 0.961 . S
C709 H717 0.960 . S
C710 C708 1.381 . S
C710 C711 1.394 . S
C710 H718 0.930 . S
C711 C710 1.394 . S
C711 C712 1.383 . S
C711 H719 0.929 . S
C712 C711 1.383 . S
C712 C713 1.377 . S
C713 H697 0.930 . S
C713 C712 1.377 . S
C713 C714 1.379 . S
C714 H698 0.931 . S
C714 C708 1.383 . S
C714 C713 1.379 . S
H715 C709 0.959 . S
H716 C709 0.961 . S
H717 C709 0.960 . S
H718 C710 0.930 . S
H719 C711 0.929 . S
H720 C728 0.929 . S
H721 C730 0.930 . S
H722 C732 0.930 . S
H723 C735 0.929 . S
H724 C738 0.930 . S
H725 C740 0.960 . S
H726 C740 0.960 . S
H727 C740 0.960 . S
C728 H720 0.929 . S
C728 C729 1.377 . S
C728 C730 1.384 . S
C729 C728 1.377 . S
C729 C735 1.390 . S
C730 H721 0.930 . S
C730 C728 1.384 . S
C730 C731 1.372 . S
C731 C730 1.372 . S
C731 C732 1.400 . S
C731 C736 1.490 . S
C732 H722 0.930 . S
C732 C731 1.400 . S
C732 C735 1.386 . S
H733 C749 0.930 . S
H734 C750 0.931 . S
C735 H723 0.929 . S
C735 C729 1.390 . S
C735 C732 1.386 . S
C736 C731 1.490 . S
C736 C738 1.395 . S
C736 C739 1.403 . S
H737 C743 0.930 . S
C738 H724 0.930 . S
C738 C736 1.395 . S
C738 C741 1.403 . S
C739 C736 1.403 . S
C739 C740 1.524 . S
C739 C743 1.400 . S
C740 H725 0.960 . S
C740 H726 0.960 . S
C740 H727 0.960 . S
C740 C739 1.524 . S
C741 C738 1.403 . S
C741 C742 1.392 . S
C741 C745 1.495 . S
C742 C741 1.392 . S
C742 C743 1.385 . S
C742 C744 1.478 . S
C743 H737 0.930 . S
C743 C739 1.400 . S
C743 C742 1.385 . S
C744 C742 1.478 . S
C744 C746 1.381 . S
C744 C750 1.383 . S
C745 C741 1.495 . S
C745 H751 0.959 . S
C745 H752 0.961 . S
C745 H753 0.960 . S
C746 C744 1.381 . S
C746 C747 1.394 . S
C746 H754 0.930 . S
C747 C746 1.394 . S
C747 C748 1.383 . S
C747 H755 0.929 . S
C748 C747 1.383 . S
C748 C749 1.377 . S
C749 H733 0.930 . S
C749 C748 1.377 . S
C749 C750 1.379 . S
C750 H734 0.931 . S
C750 C744 1.383 . S
C750 C749 1.379 . S
H751 C745 0.959 . S
H752 C745 0.961 . S
H753 C745 0.960 . S
H754 C746 0.930 . S
H755 C747 0.929 . S
H756 C764 0.929 . S
H757 C766 0.930 . S
H758 C768 0.930 . S
H759 C771 0.929 . S
H760 C774 0.930 . S
H761 C776 0.960 . S
H762 C776 0.960 . S
H763 C776 0.960 . S
C764 H756 0.929 . S
C764 C765 1.377 . S
C764 C766 1.384 . S
C765 C764 1.377 . S
C765 C771 1.390 . S
C766 H757 0.930 . S
C766 C764 1.384 . S
C766 C767 1.372 . S
C767 C766 1.372 . S
C767 C768 1.400 . S
C767 C772 1.490 . S
C768 H758 0.930 . S
C768 C767 1.400 . S
C768 C771 1.386 . S
H769 C785 0.930 . S
H770 C786 0.931 . S
C771 H759 0.929 . S
C771 C765 1.390 . S
C771 C768 1.386 . S
C772 C767 1.490 . S
C772 C774 1.395 . S
C772 C775 1.403 . S
H773 C779 0.930 . S
C774 H760 0.930 . S
C774 C772 1.395 . S
C774 C777 1.403 . S
C775 C772 1.403 . S
C775 C776 1.524 . S
C775 C779 1.400 . S
C776 H761 0.960 . S
C776 H762 0.960 . S
C776 H763 0.960 . S
C776 C775 1.524 . S
C777 C774 1.403 . S
C777 C778 1.392 . S
C777 C781 1.495 . S
C778 C777 1.392 . S
C778 C779 1.385 . S
C778 C780 1.478 . S
C779 H773 0.930 . S
C779 C775 1.400 . S
C779 C778 1.385 . S
C780 C778 1.478 . S
C780 C782 1.381 . S
C780 C786 1.383 . S
C781 C777 1.495 . S
C781 H787 0.959 . S
C781 H788 0.961 . S
C781 H789 0.960 . S
C782 C780 1.381 . S
C782 C783 1.394 . S
C782 H790 0.930 . S
C783 C782 1.394 . S
C783 C784 1.383 . S
C783 H791 0.929 . S
C784 C783 1.383 . S
C784 C785 1.377 . S
C785 H769 0.930 . S
C785 C784 1.377 . S
C785 C786 1.379 . S
C786 H770 0.931 . S
C786 C780 1.383 . S
C786 C785 1.379 . S
H787 C781 0.959 . S
H788 C781 0.961 . S
H789 C781 0.960 . S
H790 C782 0.930 . S
H791 C783 0.929 . S
H792 C800 0.929 . S
H793 C802 0.930 . S
H794 C804 0.930 . S
H795 C807 0.929 . S
H796 C810 0.930 . S
H797 C812 0.960 . S
H798 C812 0.960 . S
H799 C812 0.960 . S
C800 H792 0.929 . S
C800 C801 1.377 . S
C800 C802 1.384 . S
C801 C800 1.377 . S
C801 C807 1.390 . S
C802 H793 0.930 . S
C802 C800 1.384 . S
C802 C803 1.372 . S
C803 C802 1.372 . S
C803 C804 1.400 . S
C803 C808 1.490 . S
C804 H794 0.930 . S
C804 C803 1.400 . S
C804 C807 1.386 . S
H805 C821 0.930 . S
H806 C822 0.931 . S
C807 H795 0.929 . S
C807 C801 1.390 . S
C807 C804 1.386 . S
C808 C803 1.490 . S
C808 C810 1.395 . S
C808 C811 1.403 . S
H809 C815 0.930 . S
C810 H796 0.930 . S
C810 C808 1.395 . S
C810 C813 1.403 . S
C811 C808 1.403 . S
C811 C812 1.524 . S
C811 C815 1.400 . S
C812 H797 0.960 . S
C812 H798 0.960 . S
C812 H799 0.960 . S
C812 C811 1.524 . S
C813 C810 1.403 . S
C813 C814 1.392 . S
C813 C817 1.495 . S
C814 C813 1.392 . S
C814 C815 1.385 . S
C814 C816 1.478 . S
C815 H809 0.930 . S
C815 C811 1.400 . S
C815 C814 1.385 . S
C816 C814 1.478 . S
C816 C818 1.381 . S
C816 C822 1.383 . S
C817 C813 1.495 . S
C817 H823 0.959 . S
C817 H824 0.961 . S
C817 H825 0.960 . S
C818 C816 1.381 . S
C818 C819 1.394 . S
C818 H826 0.930 . S
C819 C818 1.394 . S
C819 C820 1.383 . S
C819 H827 0.929 . S
C820 C819 1.383 . S
C820 C821 1.377 . S
C821 H805 0.930 . S
C821 C820 1.377 . S
C821 C822 1.379 . S
C822 H806 0.931 . S
C822 C816 1.383 . S
C822 C821 1.379 . S
H823 C817 0.959 . S
H824 C817 0.961 . S
H825 C817 0.960 . S
H826 C818 0.930 . S
H827 C819 0.929 . S
H828 C836 0.929 . S
H829 C838 0.930 . S
H830 C840 0.930 . S
H831 C843 0.929 . S
H832 C846 0.930 . S
H833 C848 0.960 . S
H834 C848 0.960 . S
H835 C848 0.960 . S
C836 H828 0.929 . S
C836 C837 1.377 . S
C836 C838 1.384 . S
C837 C836 1.377 . S
C837 C843 1.390 . S
C838 H829 0.930 . S
C838 C836 1.384 . S
C838 C839 1.372 . S
C839 C838 1.372 . S
C839 C840 1.400 . S
C839 C844 1.490 . S
C840 H830 0.930 . S
C840 C839 1.400 . S
C840 C843 1.386 . S
H841 C857 0.930 . S
H842 C858 0.931 . S
C843 H831 0.929 . S
C843 C837 1.390 . S
C843 C840 1.386 . S
C844 C839 1.490 . S
C844 C846 1.395 . S
C844 C847 1.403 . S
H845 C851 0.930 . S
C846 H832 0.930 . S
C846 C844 1.395 . S
C846 C849 1.403 . S
C847 C844 1.403 . S
C847 C848 1.524 . S
C847 C851 1.400 . S
C848 H833 0.960 . S
C848 H834 0.960 . S
C848 H835 0.960 . S
C848 C847 1.524 . S
C849 C846 1.403 . S
C849 C850 1.392 . S
C849 C853 1.495 . S
C850 C849 1.392 . S
C850 C851 1.385 . S
C850 C852 1.478 . S
C851 H845 0.930 . S
C851 C847 1.400 . S
C851 C850 1.385 . S
C852 C850 1.478 . S
C852 C854 1.381 . S
C852 C858 1.383 . S
C853 C849 1.495 . S
C853 H859 0.959 . S
C853 H860 0.961 . S
C853 H861 0.960 . S
C854 C852 1.381 . S
C854 C855 1.394 1_556 S
C854 H862 0.930 . S
C855 C854 1.394 1_554 S
C855 C856 1.383 . S
C855 H863 0.929 . S
C856 C855 1.383 . S
C856 C857 1.377 . S
C857 H841 0.930 . S
C857 C856 1.377 . S
C857 C858 1.379 1_554 S
C858 H842 0.931 . S
C858 C852 1.383 . S
C858 C857 1.379 1_556 S
H859 C853 0.959 . S
H860 C853 0.961 . S
H861 C853 0.960 . S
H862 C854 0.930 . S
H863 C855 0.929 . S
H864 C872 0.929 . S
H865 C874 0.930 . S
H866 C876 0.930 . S
H867 C879 0.929 . S
H868 C882 0.930 . S
H869 C884 0.960 . S
H870 C884 0.960 . S
H871 C884 0.960 . S
C872 H864 0.929 . S
C872 C873 1.377 . S
C872 C874 1.384 . S
C873 C872 1.377 . S
C873 C879 1.390 . S
C874 H865 0.930 . S
C874 C872 1.384 . S
C874 C875 1.372 . S
C875 C874 1.372 . S
C875 C876 1.400 . S
C875 C880 1.490 . S
C876 H866 0.930 . S
C876 C875 1.400 . S
C876 C879 1.386 . S
H877 C893 0.930 . S
H878 C894 0.931 . S
C879 H867 0.929 . S
C879 C873 1.390 . S
C879 C876 1.386 . S
C880 C875 1.490 . S
C880 C882 1.395 . S
C880 C883 1.403 . S
H881 C887 0.930 . S
C882 H868 0.930 . S
C882 C880 1.395 . S
C882 C885 1.403 . S
C883 C880 1.403 . S
C883 C884 1.524 . S
C883 C887 1.400 . S
C884 H869 0.960 . S
C884 H870 0.960 . S
C884 H871 0.960 . S
C884 C883 1.524 . S
C885 C882 1.403 . S
C885 C886 1.392 . S
C885 C889 1.495 . S
C886 C885 1.392 . S
C886 C887 1.385 . S
C886 C888 1.478 . S
C887 H881 0.930 . S
C887 C883 1.400 . S
C887 C886 1.385 . S
C888 C886 1.478 . S
C888 C890 1.381 . S
C888 C894 1.383 . S
C889 C885 1.495 . S
C889 H895 0.959 . S
C889 H896 0.961 . S
C889 H897 0.960 . S
C890 C888 1.381 . S
C890 C891 1.394 . S
C890 H898 0.930 . S
C891 C890 1.394 . S
C891 C892 1.383 . S
C891 H899 0.929 . S
C892 C891 1.383 . S
C892 C893 1.377 . S
C893 H877 0.930 . S
C893 C892 1.377 . S
C893 C894 1.379 . S
C894 H878 0.931 . S
C894 C888 1.383 . S
C894 C893 1.379 . S
H895 C889 0.959 . S
H896 C889 0.961 . S
H897 C889 0.960 . S
H898 C890 0.930 . S
H899 C891 0.929 . S
H900 C908 0.929 . S
H901 C910 0.930 . S
H902 C912 0.930 . S
H903 C915 0.929 . S
H904 C918 0.930 . S
H905 C920 0.960 . S
H906 C920 0.960 . S
H907 C920 0.960 . S
C908 H900 0.929 . S
C908 C909 1.377 . S
C908 C910 1.384 . S
C909 C908 1.377 . S
C909 C915 1.390 . S
C910 H901 0.930 . S
C910 C908 1.384 . S
C910 C911 1.372 . S
C911 C910 1.372 . S
C911 C912 1.400 . S
C911 C916 1.490 . S
C912 H902 0.930 . S
C912 C911 1.400 . S
C912 C915 1.386 . S
H913 C929 0.930 . S
H914 C930 0.931 . S
C915 H903 0.929 . S
C915 C909 1.390 . S
C915 C912 1.386 . S
C916 C911 1.490 . S
C916 C918 1.395 . S
C916 C919 1.403 . S
H917 C923 0.930 . S
C918 H904 0.930 . S
C918 C916 1.395 . S
C918 C921 1.403 . S
C919 C916 1.403 . S
C919 C920 1.524 . S
C919 C923 1.400 . S
C920 H905 0.960 . S
C920 H906 0.960 . S
C920 H907 0.960 . S
C920 C919 1.524 . S
C921 C918 1.403 . S
C921 C922 1.392 . S
C921 C925 1.495 . S
C922 C921 1.392 . S
C922 C923 1.385 . S
C922 C924 1.478 . S
C923 H917 0.930 . S
C923 C919 1.400 . S
C923 C922 1.385 . S
C924 C922 1.478 . S
C924 C926 1.381 . S
C924 C930 1.383 . S
C925 C921 1.495 . S
C925 H931 0.959 . S
C925 H932 0.961 . S
C925 H933 0.960 . S
C926 C924 1.381 . S
C926 C927 1.394 1_556 S
C926 H934 0.930 . S
C927 C926 1.394 1_554 S
C927 C928 1.383 . S
C927 H935 0.929 . S
C928 C927 1.383 . S
C928 C929 1.377 . S
C929 H913 0.930 . S
C929 C928 1.377 . S
C929 C930 1.379 1_554 S
C930 H914 0.931 . S
C930 C924 1.383 . S
C930 C929 1.379 1_556 S
H931 C925 0.959 . S
H932 C925 0.961 . S
H933 C925 0.960 . S
H934 C926 0.930 . S
H935 C927 0.929 . S
H936 C944 0.929 . S
H937 C946 0.930 . S
H938 C948 0.930 . S
H939 C951 0.929 . S
H940 C954 0.930 . S
H941 C956 0.960 . S
H942 C956 0.960 . S
H943 C956 0.960 . S
C944 H936 0.929 . S
C944 C945 1.377 . S
C944 C946 1.384 . S
C945 C944 1.377 . S
C945 C951 1.390 . S
C946 H937 0.930 . S
C946 C944 1.384 . S
C946 C947 1.372 . S
C947 C946 1.372 . S
C947 C948 1.400 . S
C947 C952 1.490 . S
C948 H938 0.930 . S
C948 C947 1.400 . S
C948 C951 1.386 . S
H949 C965 0.930 . S
H950 C966 0.931 . S
C951 H939 0.929 . S
C951 C945 1.390 . S
C951 C948 1.386 . S
C952 C947 1.490 . S
C952 C954 1.395 . S
C952 C955 1.403 . S
H953 C959 0.930 . S
C954 H940 0.930 . S
C954 C952 1.395 . S
C954 C957 1.403 . S
C955 C952 1.403 . S
C955 C956 1.524 . S
C955 C959 1.400 . S
C956 H941 0.960 . S
C956 H942 0.960 . S
C956 H943 0.960 . S
C956 C955 1.524 . S
C957 C954 1.403 . S
C957 C958 1.392 . S
C957 C961 1.495 . S
C958 C957 1.392 . S
C958 C959 1.385 . S
C958 C960 1.478 . S
C959 H953 0.930 . S
C959 C955 1.400 . S
C959 C958 1.385 . S
C960 C958 1.478 . S
C960 C962 1.381 . S
C960 C966 1.383 . S
C961 C957 1.495 . S
C961 H967 0.959 . S
C961 H968 0.961 . S
C961 H969 0.960 . S
C962 C960 1.381 . S
C962 C963 1.394 . S
C962 H970 0.930 . S
C963 C962 1.394 . S
C963 C964 1.383 . S
C963 H971 0.929 . S
C964 C963 1.383 . S
C964 C965 1.377 . S
C965 H949 0.930 . S
C965 C964 1.377 . S
C965 C966 1.379 . S
C966 H950 0.931 . S
C966 C960 1.383 . S
C966 C965 1.379 . S
H967 C961 0.959 . S
H968 C961 0.961 . S
H969 C961 0.960 . S
H970 C962 0.930 . S
H971 C963 0.929 . S
H972 C980 0.929 . S
H973 C982 0.930 . S
H974 C984 0.930 . S
H975 C987 0.929 . S
H976 C990 0.930 . S
H977 C992 0.960 . S
H978 C992 0.960 . S
H979 C992 0.960 . S
C980 H972 0.929 . S
C980 C981 1.377 . S
C980 C982 1.384 . S
C981 C980 1.377 . S
C981 C987 1.390 . S
C982 H973 0.930 . S
C982 C980 1.384 . S
C982 C983 1.372 . S
C983 C982 1.372 . S
C983 C984 1.400 . S
C983 C988 1.490 . S
C984 H974 0.930 . S
C984 C983 1.400 . S
C984 C987 1.386 . S
H985 C1001 0.930 . S
H986 C1002 0.931 . S
C987 H975 0.929 . S
C987 C981 1.390 . S
C987 C984 1.386 . S
C988 C983 1.490 . S
C988 C990 1.395 . S
C988 C991 1.403 . S
H989 C995 0.930 . S
C990 H976 0.930 . S
C990 C988 1.395 . S
C990 C993 1.403 . S
C991 C988 1.403 . S
C991 C992 1.524 . S
C991 C995 1.400 . S
C992 H977 0.960 . S
C992 H978 0.960 . S
C992 H979 0.960 . S
C992 C991 1.524 . S
C993 C990 1.403 . S
C993 C994 1.392 . S
C993 C997 1.495 . S
C994 C993 1.392 . S
C994 C995 1.385 . S
C994 C996 1.478 . S
C995 H989 0.930 . S
C995 C991 1.400 . S
C995 C994 1.385 . S
C996 C994 1.478 . S
C996 C998 1.381 . S
C996 C1002 1.383 . S
C997 C993 1.495 . S
C997 H1003 0.959 . S
C997 H1004 0.961 . S
C997 H1005 0.960 . S
C998 C996 1.381 . S
C998 C999 1.394 1_556 S
C998 H1006 0.930 . S
C999 C998 1.394 1_554 S
C999 C1000 1.383 . S
C999 H1007 0.929 . S
C1000 C999 1.383 . S
C1000 C1001 1.377 . S
C1001 H985 0.930 . S
C1001 C1000 1.377 . S
C1001 C1002 1.379 1_554 S
C1002 H986 0.931 . S
C1002 C996 1.383 . S
C1002 C1001 1.379 1_556 S
H1003 C997 0.959 . S
H1004 C997 0.961 . S
H1005 C997 0.960 . S
H1006 C998 0.930 . S
H1007 C999 0.929 . S
H1008 C1016 0.929 . S
H1009 C1018 0.930 . S
H1010 C1020 0.930 . S
H1011 C1023 0.929 . S
H1012 C1026 0.930 . S
H1013 C1028 0.960 . S
H1014 C1028 0.960 . S
H1015 C1028 0.960 . S
C1016 H1008 0.929 . S
C1016 C1017 1.377 . S
C1016 C1018 1.384 . S
C1017 C1016 1.377 . S
C1017 C1023 1.390 . S
C1018 H1009 0.930 . S
C1018 C1016 1.384 . S
C1018 C1019 1.372 . S
C1019 C1018 1.372 . S
C1019 C1020 1.400 . S
C1019 C1024 1.490 . S
C1020 H1010 0.930 . S
C1020 C1019 1.400 . S
C1020 C1023 1.386 . S
H1021 C1037 0.930 . S
H1022 C1038 0.931 . S
C1023 H1011 0.929 . S
C1023 C1017 1.390 . S
C1023 C1020 1.386 . S
C1024 C1019 1.490 . S
C1024 C1026 1.395 . S
C1024 C1027 1.403 . S
H1025 C1031 0.930 . S
C1026 H1012 0.930 . S
C1026 C1024 1.395 . S
C1026 C1029 1.403 . S
C1027 C1024 1.403 . S
C1027 C1028 1.524 . S
C1027 C1031 1.400 . S
C1028 H1013 0.960 . S
C1028 H1014 0.960 . S
C1028 H1015 0.960 . S
C1028 C1027 1.524 . S
C1029 C1026 1.403 . S
C1029 C1030 1.392 . S
C1029 C1033 1.495 . S
C1030 C1029 1.392 . S
C1030 C1031 1.385 . S
C1030 C1032 1.478 . S
C1031 H1025 0.930 . S
C1031 C1027 1.400 . S
C1031 C1030 1.385 . S
C1032 C1030 1.478 . S
C1032 C1034 1.381 . S
C1032 C1038 1.383 . S
C1033 C1029 1.495 . S
C1033 H1039 0.959 . S
C1033 H1040 0.961 . S
C1033 H1041 0.960 . S
C1034 C1032 1.381 . S
C1034 C1035 1.394 . S
C1034 H1042 0.930 . S
C1035 C1034 1.394 . S
C1035 C1036 1.383 . S
C1035 H1043 0.929 . S
C1036 C1035 1.383 . S
C1036 C1037 1.377 . S
C1037 H1021 0.930 . S
C1037 C1036 1.377 . S
C1037 C1038 1.379 . S
C1038 H1022 0.931 . S
C1038 C1032 1.383 . S
C1038 C1037 1.379 . S
H1039 C1033 0.959 . S
H1040 C1033 0.961 . S
H1041 C1033 0.960 . S
H1042 C1034 0.930 . S
H1043 C1035 0.929 . S
H1044 C1052 0.929 . S
H1045 C1054 0.930 . S
H1046 C1056 0.930 . S
H1047 C1059 0.929 . S
H1048 C1062 0.930 . S
H1049 C1064 0.960 . S
H1050 C1064 0.960 . S
H1051 C1064 0.960 . S
C1052 H1044 0.929 . S
C1052 C1053 1.377 . S
C1052 C1054 1.384 . S
C1053 C1052 1.377 . S
C1053 C1059 1.390 . S
C1054 H1045 0.930 . S
C1054 C1052 1.384 . S
C1054 C1055 1.372 . S
C1055 C1054 1.372 . S
C1055 C1056 1.400 . S
C1055 C1060 1.490 . S
C1056 H1046 0.930 . S
C1056 C1055 1.400 . S
C1056 C1059 1.386 . S
H1057 C1073 0.930 . S
H1058 C1074 0.931 . S
C1059 H1047 0.929 . S
C1059 C1053 1.390 . S
C1059 C1056 1.386 . S
C1060 C1055 1.490 . S
C1060 C1062 1.395 . S
C1060 C1063 1.403 . S
H1061 C1067 0.930 . S
C1062 H1048 0.930 . S
C1062 C1060 1.395 . S
C1062 C1065 1.403 . S
C1063 C1060 1.403 . S
C1063 C1064 1.524 . S
C1063 C1067 1.400 . S
C1064 H1049 0.960 . S
C1064 H1050 0.960 . S
C1064 H1051 0.960 . S
C1064 C1063 1.524 . S
C1065 C1062 1.403 . S
C1065 C1066 1.392 . S
C1065 C1069 1.495 . S
C1066 C1065 1.392 . S
C1066 C1067 1.385 . S
C1066 C1068 1.478 . S
C1067 H1061 0.930 . S
C1067 C1063 1.400 . S
C1067 C1066 1.385 . S
C1068 C1066 1.478 . S
C1068 C1070 1.381 . S
C1068 C1074 1.383 . S
C1069 C1065 1.495 . S
C1069 H1075 0.959 . S
C1069 H1076 0.961 . S
C1069 H1077 0.960 . S
C1070 C1068 1.381 . S
C1070 C1071 1.394 . S
C1070 H1078 0.930 . S
C1071 C1070 1.394 . S
C1071 C1072 1.383 . S
C1071 H1079 0.929 . S
C1072 C1071 1.383 . S
C1072 C1073 1.377 . S
C1073 H1057 0.930 . S
C1073 C1072 1.377 . S
C1073 C1074 1.379 . S
C1074 H1058 0.931 . S
C1074 C1068 1.383 . S
C1074 C1073 1.379 . S
H1075 C1069 0.959 . S
H1076 C1069 0.961 . S
H1077 C1069 0.960 . S
H1078 C1070 0.930 . S
H1079 C1071 0.929 . S
H1080 C1088 0.929 . S
H1081 C1090 0.930 . S
H1082 C1092 0.930 . S
H1083 C1095 0.929 . S
H1084 C1098 0.930 . S
H1085 C1100 0.960 . S
H1086 C1100 0.960 . S
H1087 C1100 0.960 . S
C1088 H1080 0.929 . S
C1088 C1089 1.377 . S
C1088 C1090 1.384 . S
C1089 C1088 1.377 . S
C1089 C1095 1.390 . S
C1090 H1081 0.930 . S
C1090 C1088 1.384 . S
C1090 C1091 1.372 . S
C1091 C1090 1.372 . S
C1091 C1092 1.400 . S
C1091 C1096 1.490 . S
C1092 H1082 0.930 . S
C1092 C1091 1.400 . S
C1092 C1095 1.386 . S
H1093 C1109 0.930 . S
H1094 C1110 0.931 . S
C1095 H1083 0.929 . S
C1095 C1089 1.390 . S
C1095 C1092 1.386 . S
C1096 C1091 1.490 . S
C1096 C1098 1.395 . S
C1096 C1099 1.403 . S
H1097 C1103 0.930 . S
C1098 H1084 0.930 . S
C1098 C1096 1.395 . S
C1098 C1101 1.403 . S
C1099 C1096 1.403 . S
C1099 C1100 1.524 . S
C1099 C1103 1.400 . S
C1100 H1085 0.960 . S
C1100 H1086 0.960 . S
C1100 H1087 0.960 . S
C1100 C1099 1.524 . S
C1101 C1098 1.403 . S
C1101 C1102 1.392 . S
C1101 C1105 1.495 . S
C1102 C1101 1.392 . S
C1102 C1103 1.385 . S
C1102 C1104 1.478 . S
C1103 H1097 0.930 . S
C1103 C1099 1.400 . S
C1103 C1102 1.385 . S
C1104 C1102 1.478 . S
C1104 C1106 1.381 . S
C1104 C1110 1.383 . S
C1105 C1101 1.495 . S
C1105 H1111 0.959 . S
C1105 H1112 0.961 . S
C1105 H1113 0.960 . S
C1106 C1104 1.381 . S
C1106 C1107 1.394 1_554 S
C1106 H1114 0.930 . S
C1107 C1106 1.394 1_556 S
C1107 C1108 1.383 . S
C1107 H1115 0.929 . S
C1108 C1107 1.383 . S
C1108 C1109 1.377 . S
C1109 H1093 0.930 . S
C1109 C1108 1.377 . S
C1109 C1110 1.379 1_556 S
C1110 H1094 0.931 . S
C1110 C1104 1.383 . S
C1110 C1109 1.379 1_554 S
H1111 C1105 0.959 . S
H1112 C1105 0.961 . S
H1113 C1105 0.960 . S
H1114 C1106 0.930 . S
H1115 C1107 0.929 . S
H1116 C1124 0.929 . S
H1117 C1126 0.930 . S
H1118 C1128 0.930 . S
H1119 C1131 0.929 . S
H1120 C1134 0.930 . S
H1121 C1136 0.960 . S
H1122 C1136 0.960 . S
H1123 C1136 0.960 . S
C1124 H1116 0.929 . S
C1124 C1125 1.377 . S
C1124 C1126 1.384 . S
C1125 C1124 1.377 . S
C1125 C1131 1.390 . S
C1126 H1117 0.930 . S
C1126 C1124 1.384 . S
C1126 C1127 1.372 . S
C1127 C1126 1.372 . S
C1127 C1128 1.400 . S
C1127 C1132 1.490 . S
C1128 H1118 0.930 . S
C1128 C1127 1.400 . S
C1128 C1131 1.386 . S
H1129 C1145 0.930 . S
H1130 C1146 0.931 . S
C1131 H1119 0.929 . S
C1131 C1125 1.390 . S
C1131 C1128 1.386 . S
C1132 C1127 1.490 . S
C1132 C1134 1.395 . S
C1132 C1135 1.403 . S
H1133 C1139 0.930 . S
C1134 H1120 0.930 . S
C1134 C1132 1.395 . S
C1134 C1137 1.403 . S
C1135 C1132 1.403 . S
C1135 C1136 1.524 . S
C1135 C1139 1.400 . S
C1136 H1121 0.960 . S
C1136 H1122 0.960 . S
C1136 H1123 0.960 . S
C1136 C1135 1.524 . S
C1137 C1134 1.403 . S
C1137 C1138 1.392 . S
C1137 C1141 1.495 . S
C1138 C1137 1.392 . S
C1138 C1139 1.385 . S
C1138 C1140 1.478 . S
C1139 H1133 0.930 . S
C1139 C1135 1.400 . S
C1139 C1138 1.385 . S
C1140 C1138 1.478 . S
C1140 C1142 1.381 . S
C1140 C1146 1.383 . S
C1141 C1137 1.495 . S
C1141 H1147 0.959 . S
C1141 H1148 0.961 . S
C1141 H1149 0.960 . S
C1142 C1140 1.381 . S
C1142 C1143 1.394 . S
C1142 H1150 0.930 . S
C1143 C1142 1.394 . S
C1143 C1144 1.383 . S
C1143 H1151 0.929 . S
C1144 C1143 1.383 . S
C1144 C1145 1.377 . S
C1145 H1129 0.930 . S
C1145 C1144 1.377 . S
C1145 C1146 1.379 . S
C1146 H1130 0.931 . S
C1146 C1140 1.383 . S
C1146 C1145 1.379 . S
H1147 C1141 0.959 . S
H1148 C1141 0.961 . S
H1149 C1141 0.960 . S
H1150 C1142 0.930 . S
H1151 C1143 0.929 . S
H1152 C1160 0.929 . S
H1153 C1162 0.930 . S
H1154 C1164 0.930 . S
H1155 C1167 0.929 . S
H1156 C1170 0.930 . S
H1157 C1172 0.960 . S
H1158 C1172 0.960 . S
H1159 C1172 0.960 . S
C1160 H1152 0.929 . S
C1160 C1161 1.377 . S
C1160 C1162 1.384 1_556 S
C1161 C1160 1.377 . S
C1161 C1167 1.390 . S
C1162 H1153 0.930 . S
C1162 C1160 1.384 1_554 S
C1162 C1163 1.372 . S
C1163 C1162 1.372 . S
C1163 C1164 1.400 . S
C1163 C1168 1.490 . S
C1164 H1154 0.930 . S
C1164 C1163 1.400 . S
C1164 C1167 1.386 1_554 S
H1165 C1181 0.930 . S
H1166 C1182 0.931 . S
C1167 H1155 0.929 . S
C1167 C1161 1.390 . S
C1167 C1164 1.386 1_556 S
C1168 C1163 1.490 . S
C1168 C1170 1.395 . S
C1168 C1171 1.403 . S
H1169 C1175 0.930 . S
C1170 H1156 0.930 . S
C1170 C1168 1.395 . S
C1170 C1173 1.403 . S
C1171 C1168 1.403 . S
C1171 C1172 1.524 . S
C1171 C1175 1.400 . S
C1172 H1157 0.960 . S
C1172 H1158 0.960 . S
C1172 H1159 0.960 . S
C1172 C1171 1.524 . S
C1173 C1170 1.403 . S
C1173 C1174 1.392 . S
C1173 C1177 1.495 . S
C1174 C1173 1.392 . S
C1174 C1175 1.385 . S
C1174 C1176 1.478 . S
C1175 H1169 0.930 . S
C1175 C1171 1.400 . S
C1175 C1174 1.385 . S
C1176 C1174 1.478 . S
C1176 C1178 1.381 . S
C1176 C1182 1.383 . S
C1177 C1173 1.495 . S
C1177 H1183 0.959 . S
C1177 H1184 0.961 . S
C1177 H1185 0.960 . S
C1178 C1176 1.381 . S
C1178 C1179 1.394 . S
C1178 H1186 0.930 . S
C1179 C1178 1.394 . S
C1179 C1180 1.383 . S
C1179 H1187 0.929 . S
C1180 C1179 1.383 . S
C1180 C1181 1.377 . S
C1181 H1165 0.930 . S
C1181 C1180 1.377 . S
C1181 C1182 1.379 . S
C1182 H1166 0.931 . S
C1182 C1176 1.383 . S
C1182 C1181 1.379 . S
H1183 C1177 0.959 . S
H1184 C1177 0.961 . S
H1185 C1177 0.960 . S
H1186 C1178 0.930 . S
H1187 C1179 0.929 . S
H1188 C1196 0.929 . S
H1189 C1198 0.930 . S
H1190 C1200 0.930 . S
H1191 C1203 0.929 . S
H1192 C1206 0.930 . S
H1193 C1208 0.960 . S
H1194 C1208 0.960 . S
H1195 C1208 0.960 . S
C1196 H1188 0.929 . S
C1196 C1197 1.377 . S
C1196 C1198 1.384 . S
C1197 C1196 1.377 . S
C1197 C1203 1.390 . S
C1198 H1189 0.930 . S
C1198 C1196 1.384 . S
C1198 C1199 1.372 . S
C1199 C1198 1.372 . S
C1199 C1200 1.400 . S
C1199 C1204 1.490 . S
C1200 H1190 0.930 . S
C1200 C1199 1.400 . S
C1200 C1203 1.386 . S
H1201 C1217 0.930 . S
H1202 C1218 0.931 . S
C1203 H1191 0.929 . S
C1203 C1197 1.390 . S
C1203 C1200 1.386 . S
C1204 C1199 1.490 . S
C1204 C1206 1.395 . S
C1204 C1207 1.403 . S
H1205 C1211 0.930 . S
C1206 H1192 0.930 . S
C1206 C1204 1.395 . S
C1206 C1209 1.403 . S
C1207 C1204 1.403 . S
C1207 C1208 1.524 . S
C1207 C1211 1.400 . S
C1208 H1193 0.960 . S
C1208 H1194 0.960 . S
C1208 H1195 0.960 . S
C1208 C1207 1.524 . S
C1209 C1206 1.403 . S
C1209 C1210 1.392 . S
C1209 C1213 1.495 . S
C1210 C1209 1.392 . S
C1210 C1211 1.385 . S
C1210 C1212 1.478 . S
C1211 H1205 0.930 . S
C1211 C1207 1.400 . S
C1211 C1210 1.385 . S
C1212 C1210 1.478 . S
C1212 C1214 1.381 . S
C1212 C1218 1.383 . S
C1213 C1209 1.495 . S
C1213 H1219 0.959 . S
C1213 H1220 0.961 . S
C1213 H1221 0.960 . S
C1214 C1212 1.381 . S
C1214 C1215 1.394 . S
C1214 H1222 0.930 . S
C1215 C1214 1.394 . S
C1215 C1216 1.383 . S
C1215 H1223 0.929 . S
C1216 C1215 1.383 . S
C1216 C1217 1.377 . S
C1217 H1201 0.930 . S
C1217 C1216 1.377 . S
C1217 C1218 1.379 . S
C1218 H1202 0.931 . S
C1218 C1212 1.383 . S
C1218 C1217 1.379 . S
H1219 C1213 0.959 . S
H1220 C1213 0.961 . S
H1221 C1213 0.960 . S
H1222 C1214 0.930 . S
H1223 C1215 0.929 . S
H1224 C1232 0.929 . S
H1225 C1234 0.930 . S
H1226 C1236 0.930 . S
H1227 C1239 0.929 . S
H1228 C1242 0.930 . S
H1229 C1244 0.960 . S
H1230 C1244 0.960 . S
H1231 C1244 0.960 . S
C1232 H1224 0.929 . S
C1232 C1233 1.377 . S
C1232 C1234 1.384 . S
C1233 C1232 1.377 . S
C1233 C1239 1.390 . S
C1234 H1225 0.930 . S
C1234 C1232 1.384 . S
C1234 C1235 1.372 . S
C1235 C1234 1.372 . S
C1235 C1236 1.400 . S
C1235 C1240 1.490 . S
C1236 H1226 0.930 . S
C1236 C1235 1.400 . S
C1236 C1239 1.386 . S
H1237 C1253 0.930 . S
H1238 C1254 0.931 . S
C1239 H1227 0.929 . S
C1239 C1233 1.390 . S
C1239 C1236 1.386 . S
C1240 C1235 1.490 . S
C1240 C1242 1.395 . S
C1240 C1243 1.403 . S
H1241 C1247 0.930 . S
C1242 H1228 0.930 . S
C1242 C1240 1.395 . S
C1242 C1245 1.403 . S
C1243 C1240 1.403 . S
C1243 C1244 1.524 . S
C1243 C1247 1.400 . S
C1244 H1229 0.960 . S
C1244 H1230 0.960 . S
C1244 H1231 0.960 . S
C1244 C1243 1.524 . S
C1245 C1242 1.403 . S
C1245 C1246 1.392 . S
C1245 C1249 1.495 . S
C1246 C1245 1.392 . S
C1246 C1247 1.385 . S
C1246 C1248 1.478 . S
C1247 H1241 0.930 . S
C1247 C1243 1.400 . S
C1247 C1246 1.385 . S
C1248 C1246 1.478 . S
C1248 C1250 1.381 . S
C1248 C1254 1.383 . S
C1249 C1245 1.495 . S
C1249 H1255 0.959 . S
C1249 H1256 0.961 . S
C1249 H1257 0.960 . S
C1250 C1248 1.381 . S
C1250 C1251 1.394 1_554 S
C1250 H1258 0.930 . S
C1251 C1250 1.394 1_556 S
C1251 C1252 1.383 . S
C1251 H1259 0.929 . S
C1252 C1251 1.383 . S
C1252 C1253 1.377 . S
C1253 H1237 0.930 . S
C1253 C1252 1.377 . S
C1253 C1254 1.379 1_556 S
C1254 H1238 0.931 . S
C1254 C1248 1.383 . S
C1254 C1253 1.379 1_554 S
H1255 C1249 0.959 . S
H1256 C1249 0.961 . S
H1257 C1249 0.960 . S
H1258 C1250 0.930 . S
H1259 C1251 0.929 . S
H1260 C1268 0.929 . S
H1261 C1270 0.930 . S
H1262 C1272 0.930 . S
H1263 C1275 0.929 . S
H1264 C1278 0.930 . S
H1265 C1280 0.960 . S
H1266 C1280 0.960 . S
H1267 C1280 0.960 . S
C1268 H1260 0.929 . S
C1268 C1269 1.377 . S
C1268 C1270 1.384 . S
C1269 C1268 1.377 . S
C1269 C1275 1.390 . S
C1270 H1261 0.930 . S
C1270 C1268 1.384 . S
C1270 C1271 1.372 . S
C1271 C1270 1.372 . S
C1271 C1272 1.400 . S
C1271 C1276 1.490 . S
C1272 H1262 0.930 . S
C1272 C1271 1.400 . S
C1272 C1275 1.386 . S
H1273 C1289 0.930 . S
H1274 C1290 0.931 . S
C1275 H1263 0.929 . S
C1275 C1269 1.390 . S
C1275 C1272 1.386 . S
C1276 C1271 1.490 . S
C1276 C1278 1.395 . S
C1276 C1279 1.403 . S
H1277 C1283 0.930 . S
C1278 H1264 0.930 . S
C1278 C1276 1.395 . S
C1278 C1281 1.403 . S
C1279 C1276 1.403 . S
C1279 C1280 1.524 . S
C1279 C1283 1.400 . S
C1280 H1265 0.960 . S
C1280 H1266 0.960 . S
C1280 H1267 0.960 . S
C1280 C1279 1.524 . S
C1281 C1278 1.403 . S
C1281 C1282 1.392 . S
C1281 C1285 1.495 . S
C1282 C1281 1.392 . S
C1282 C1283 1.385 . S
C1282 C1284 1.478 . S
C1283 H1277 0.930 . S
C1283 C1279 1.400 . S
C1283 C1282 1.385 . S
C1284 C1282 1.478 . S
C1284 C1286 1.381 . S
C1284 C1290 1.383 . S
C1285 C1281 1.495 . S
C1285 H1291 0.959 . S
C1285 H1292 0.961 . S
C1285 H1293 0.960 . S
C1286 C1284 1.381 . S
C1286 C1287 1.394 . S
C1286 H1294 0.930 . S
C1287 C1286 1.394 . S
C1287 C1288 1.383 . S
C1287 H1295 0.929 . S
C1288 C1287 1.383 . S
C1288 C1289 1.377 . S
C1289 H1273 0.930 . S
C1289 C1288 1.377 . S
C1289 C1290 1.379 . S
C1290 H1274 0.931 . S
C1290 C1284 1.383 . S
C1290 C1289 1.379 . S
H1291 C1285 0.959 . S
H1292 C1285 0.961 . S
H1293 C1285 0.960 . S
H1294 C1286 0.930 . S
H1295 C1287 0.929 . S
H1296 C1304 0.929 . S
H1297 C1306 0.930 . S
H1298 C1308 0.930 . S
H1299 C1311 0.929 . S
H1300 C1314 0.930 . S
H1301 C1316 0.960 . S
H1302 C1316 0.960 . S
H1303 C1316 0.960 . S
C1304 H1296 0.929 . S
C1304 C1305 1.377 . S
C1304 C1306 1.384 . S
C1305 C1304 1.377 . S
C1305 C1311 1.390 . S
C1306 H1297 0.930 . S
C1306 C1304 1.384 . S
C1306 C1307 1.372 . S
C1307 C1306 1.372 . S
C1307 C1308 1.400 . S
C1307 C1312 1.490 . S
C1308 H1298 0.930 . S
C1308 C1307 1.400 . S
C1308 C1311 1.386 . S
H1309 C1325 0.930 . S
H1310 C1326 0.931 . S
C1311 H1299 0.929 . S
C1311 C1305 1.390 . S
C1311 C1308 1.386 . S
C1312 C1307 1.490 . S
C1312 C1314 1.395 . S
C1312 C1315 1.403 . S
H1313 C1319 0.930 . S
C1314 H1300 0.930 . S
C1314 C1312 1.395 . S
C1314 C1317 1.403 . S
C1315 C1312 1.403 . S
C1315 C1316 1.524 . S
C1315 C1319 1.400 . S
C1316 H1301 0.960 . S
C1316 H1302 0.960 . S
C1316 H1303 0.960 . S
C1316 C1315 1.524 . S
C1317 C1314 1.403 . S
C1317 C1318 1.392 . S
C1317 C1321 1.495 . S
C1318 C1317 1.392 . S
C1318 C1319 1.385 . S
C1318 C1320 1.478 . S
C1319 H1313 0.930 . S
C1319 C1315 1.400 . S
C1319 C1318 1.385 . S
C1320 C1318 1.478 . S
C1320 C1322 1.381 . S
C1320 C1326 1.383 . S
C1321 C1317 1.495 . S
C1321 H1327 0.959 . S
C1321 H1328 0.961 . S
C1321 H1329 0.960 . S
C1322 C1320 1.381 . S
C1322 C1323 1.394 . S
C1322 H1330 0.930 . S
C1323 C1322 1.394 . S
C1323 C1324 1.383 . S
C1323 H1331 0.929 . S
C1324 C1323 1.383 . S
C1324 C1325 1.377 . S
C1325 H1309 0.930 . S
C1325 C1324 1.377 . S
C1325 C1326 1.379 . S
C1326 H1310 0.931 . S
C1326 C1320 1.383 . S
C1326 C1325 1.379 . S
H1327 C1321 0.959 . S
H1328 C1321 0.961 . S
H1329 C1321 0.960 . S
H1330 C1322 0.930 . S
H1331 C1323 0.929 . S
H1332 C1340 0.929 . S
H1333 C1342 0.930 . S
H1334 C1344 0.930 . S
H1335 C1347 0.929 . S
H1336 C1350 0.930 . S
H1337 C1352 0.960 . S
H1338 C1352 0.960 . S
H1339 C1352 0.960 . S
C1340 H1332 0.929 . S
C1340 C1341 1.377 . S
C1340 C1342 1.384 . S
C1341 C1340 1.377 . S
C1341 C1347 1.390 . S
C1342 H1333 0.930 . S
C1342 C1340 1.384 . S
C1342 C1343 1.372 . S
C1343 C1342 1.372 . S
C1343 C1344 1.400 . S
C1343 C1348 1.490 . S
C1344 H1334 0.930 . S
C1344 C1343 1.400 . S
C1344 C1347 1.386 . S
H1345 C1361 0.930 . S
H1346 C1362 0.931 . S
C1347 H1335 0.929 . S
C1347 C1341 1.390 . S
C1347 C1344 1.386 . S
C1348 C1343 1.490 . S
C1348 C1350 1.395 . S
C1348 C1351 1.403 . S
H1349 C1355 0.930 . S
C1350 H1336 0.930 . S
C1350 C1348 1.395 . S
C1350 C1353 1.403 . S
C1351 C1348 1.403 . S
C1351 C1352 1.524 . S
C1351 C1355 1.400 . S
C1352 H1337 0.960 . S
C1352 H1338 0.960 . S
C1352 H1339 0.960 . S
C1352 C1351 1.524 . S
C1353 C1350 1.403 . S
C1353 C1354 1.392 . S
C1353 C1357 1.495 . S
C1354 C1353 1.392 . S
C1354 C1355 1.385 . S
C1354 C1356 1.478 . S
C1355 H1349 0.930 . S
C1355 C1351 1.400 . S
C1355 C1354 1.385 . S
C1356 C1354 1.478 . S
C1356 C1358 1.381 . S
C1356 C1362 1.383 . S
C1357 C1353 1.495 . S
C1357 H1363 0.959 . S
C1357 H1364 0.961 . S
C1357 H1365 0.960 . S
C1358 C1356 1.381 . S
C1358 C1359 1.394 . S
C1358 H1366 0.930 . S
C1359 C1358 1.394 . S
C1359 C1360 1.383 . S
C1359 H1367 0.929 . S
C1360 C1359 1.383 . S
C1360 C1361 1.377 . S
C1361 H1345 0.930 . S
C1361 C1360 1.377 . S
C1361 C1362 1.379 . S
C1362 H1346 0.931 . S
C1362 C1356 1.383 . S
C1362 C1361 1.379 . S
H1363 C1357 0.959 . S
H1364 C1357 0.961 . S
H1365 C1357 0.960 . S
H1366 C1358 0.930 . S
H1367 C1359 0.929 . S
H1368 C1376 0.929 . S
H1369 C1378 0.930 . S
H1370 C1380 0.930 . S
H1371 C1383 0.929 . S
H1372 C1386 0.930 . S
H1373 C1388 0.960 . S
H1374 C1388 0.960 . S
H1375 C1388 0.960 . S
C1376 H1368 0.929 . S
C1376 C1377 1.377 . S
C1376 C1378 1.384 . S
C1377 C1376 1.377 . S
C1377 C1383 1.390 . S
C1378 H1369 0.930 . S
C1378 C1376 1.384 . S
C1378 C1379 1.372 . S
C1379 C1378 1.372 . S
C1379 C1380 1.400 . S
C1379 C1384 1.490 . S
C1380 H1370 0.930 . S
C1380 C1379 1.400 . S
C1380 C1383 1.386 . S
H1381 C1397 0.930 . S
H1382 C1398 0.931 . S
C1383 H1371 0.929 . S
C1383 C1377 1.390 . S
C1383 C1380 1.386 . S
C1384 C1379 1.490 . S
C1384 C1386 1.395 . S
C1384 C1387 1.403 . S
H1385 C1391 0.930 . S
C1386 H1372 0.930 . S
C1386 C1384 1.395 . S
C1386 C1389 1.403 . S
C1387 C1384 1.403 . S
C1387 C1388 1.524 . S
C1387 C1391 1.400 . S
C1388 H1373 0.960 . S
C1388 H1374 0.960 . S
C1388 H1375 0.960 . S
C1388 C1387 1.524 . S
C1389 C1386 1.403 . S
C1389 C1390 1.392 . S
C1389 C1393 1.495 . S
C1390 C1389 1.392 . S
C1390 C1391 1.385 . S
C1390 C1392 1.478 . S
C1391 H1385 0.930 . S
C1391 C1387 1.400 . S
C1391 C1390 1.385 . S
C1392 C1390 1.478 . S
C1392 C1394 1.381 . S
C1392 C1398 1.383 . S
C1393 C1389 1.495 . S
C1393 H1399 0.959 . S
C1393 H1400 0.961 . S
C1393 H1401 0.960 . S
C1394 C1392 1.381 . S
C1394 C1395 1.394 . S
C1394 H1402 0.930 . S
C1395 C1394 1.394 . S
C1395 C1396 1.383 . S
C1395 H1403 0.929 . S
C1396 C1395 1.383 . S
C1396 C1397 1.377 . S
C1397 H1381 0.930 . S
C1397 C1396 1.377 . S
C1397 C1398 1.379 . S
C1398 H1382 0.931 . S
C1398 C1392 1.383 . S
C1398 C1397 1.379 . S
H1399 C1393 0.959 . S
H1400 C1393 0.961 . S
H1401 C1393 0.960 . S
H1402 C1394 0.930 . S
H1403 C1395 0.929 . S
H1404 C1412 0.929 . S
H1405 C1414 0.930 . S
H1406 C1416 0.930 . S
H1407 C1419 0.929 . S
H1408 C1422 0.930 . S
H1409 C1424 0.960 . S
H1410 C1424 0.960 . S
H1411 C1424 0.960 . S
C1412 H1404 0.929 . S
C1412 C1413 1.377 . S
C1412 C1414 1.384 . S
C1413 C1412 1.377 . S
C1413 C1419 1.390 . S
C1414 H1405 0.930 . S
C1414 C1412 1.384 . S
C1414 C1415 1.372 . S
C1415 C1414 1.372 . S
C1415 C1416 1.400 . S
C1415 C1420 1.490 . S
C1416 H1406 0.930 . S
C1416 C1415 1.400 . S
C1416 C1419 1.386 . S
H1417 C1433 0.930 . S
H1418 C1434 0.931 . S
C1419 H1407 0.929 . S
C1419 C1413 1.390 . S
C1419 C1416 1.386 . S
C1420 C1415 1.490 . S
C1420 C1422 1.395 . S
C1420 C1423 1.403 . S
H1421 C1427 0.930 . S
C1422 H1408 0.930 . S
C1422 C1420 1.395 . S
C1422 C1425 1.403 . S
C1423 C1420 1.403 . S
C1423 C1424 1.524 . S
C1423 C1427 1.400 . S
C1424 H1409 0.960 . S
C1424 H1410 0.960 . S
C1424 H1411 0.960 . S
C1424 C1423 1.524 . S
C1425 C1422 1.403 . S
C1425 C1426 1.392 . S
C1425 C1429 1.495 . S
C1426 C1425 1.392 . S
C1426 C1427 1.385 . S
C1426 C1428 1.478 . S
C1427 H1421 0.930 . S
C1427 C1423 1.400 . S
C1427 C1426 1.385 . S
C1428 C1426 1.478 . S
C1428 C1430 1.381 . S
C1428 C1434 1.383 . S
C1429 C1425 1.495 . S
C1429 H1435 0.959 . S
C1429 H1436 0.961 . S
C1429 H1437 0.960 . S
C1430 C1428 1.381 . S
C1430 C1431 1.394 . S
C1430 H1438 0.930 . S
C1431 C1430 1.394 . S
C1431 C1432 1.383 . S
C1431 H1439 0.929 . S
C1432 C1431 1.383 . S
C1432 C1433 1.377 . S
C1433 H1417 0.930 . S
C1433 C1432 1.377 . S
C1433 C1434 1.379 . S
C1434 H1418 0.931 . S
C1434 C1428 1.383 . S
C1434 C1433 1.379 . S
H1435 C1429 0.959 . S
H1436 C1429 0.961 . S
H1437 C1429 0.960 . S
H1438 C1430 0.930 . S
H1439 C1431 0.929 . S
H1440 C1448 0.929 . S
H1441 C1450 0.930 . S
H1442 C1452 0.930 . S
H1443 C1455 0.929 . S
H1444 C1458 0.930 . S
H1445 C1460 0.960 . S
H1446 C1460 0.960 . S
H1447 C1460 0.960 . S
C1448 H1440 0.929 . S
C1448 C1449 1.377 . S
C1448 C1450 1.384 . S
C1449 C1448 1.377 . S
C1449 C1455 1.390 . S
C1450 H1441 0.930 . S
C1450 C1448 1.384 . S
C1450 C1451 1.372 . S
C1451 C1450 1.372 . S
C1451 C1452 1.400 . S
C1451 C1456 1.490 . S
C1452 H1442 0.930 . S
C1452 C1451 1.400 . S
C1452 C1455 1.386 . S
H1453 C1469 0.930 . S
H1454 C1470 0.931 . S
C1455 H1443 0.929 . S
C1455 C1449 1.390 . S
C1455 C1452 1.386 . S
C1456 C1451 1.490 . S
C1456 C1458 1.395 . S
C1456 C1459 1.403 . S
H1457 C1463 0.930 . S
C1458 H1444 0.930 . S
C1458 C1456 1.395 . S
C1458 C1461 1.403 . S
C1459 C1456 1.403 . S
C1459 C1460 1.524 . S
C1459 C1463 1.400 . S
C1460 H1445 0.960 . S
C1460 H1446 0.960 . S
C1460 H1447 0.960 . S
C1460 C1459 1.524 . S
C1461 C1458 1.403 . S
C1461 C1462 1.392 . S
C1461 C1465 1.495 . S
C1462 C1461 1.392 . S
C1462 C1463 1.385 . S
C1462 C1464 1.478 . S
C1463 H1457 0.930 . S
C1463 C1459 1.400 . S
C1463 C1462 1.385 . S
C1464 C1462 1.478 . S
C1464 C1466 1.381 . S
C1464 C1470 1.383 . S
C1465 C1461 1.495 . S
C1465 H1471 0.959 . S
C1465 H1472 0.961 . S
C1465 H1473 0.960 . S
C1466 C1464 1.381 . S
C1466 C1467 1.394 . S
C1466 H1474 0.930 . S
C1467 C1466 1.394 . S
C1467 C1468 1.383 . S
C1467 H1475 0.929 . S
C1468 C1467 1.383 . S
C1468 C1469 1.377 . S
C1469 H1453 0.930 . S
C1469 C1468 1.377 . S
C1469 C1470 1.379 . S
C1470 H1454 0.931 . S
C1470 C1464 1.383 . S
C1470 C1469 1.379 . S
H1471 C1465 0.959 . S
H1472 C1465 0.961 . S
H1473 C1465 0.960 . S
H1474 C1466 0.930 . S
H1475 C1467 0.929 . S
C405 C8 0.991 . S
C424 C371 0.991 . S
C441 C41 0.992 . S
C460 C206 1.001 . S
C477 C239 0.993 . S
C496 C74 1.009 . S
C513 C272 0.992 . S
C532 C107 1.006 . S
C549 C305 0.994 . S
C568 C140 1.016 . S
C585 C173 0.992 . S
C604 C338 1.001 . S
C621 C281 1.634 . S
C640 C17 1.633 . S
C657 C314 1.632 . S
C676 C50 1.625 . S
C693 C83 1.633 . S
C712 C347 1.625 . S
C729 C116 1.632 . S
C748 C380 1.623 . S
C765 C215 1.635 . S
C784 C149 1.637 . S
C801 C182 1.633 . S
C820 C248 1.630 . S
C837 N14 1.297 . S
C856 N5 1.285 . S
C873 N38 1.296 . S
C892 N47 1.293 . S
C909 N80 1.294 . S
C928 N71 1.297 . S
C945 N104 1.297 . S
C964 N113 1.278 . S
C981 N146 1.300 . S
C1000 N137 1.310 . S
C1017 N170 1.299 . S
C1036 N179 1.281 . S
C1053 N203 1.300 . S
C1072 N212 1.288 . S
C1089 N245 1.294 . S
C1108 N236 1.281 . S
C1125 N269 1.302 . S
C1144 N278 1.307 . S
C1161 N302 1.302 . S
C1180 N311 1.310 . S
C1197 N344 1.294 . S
C1216 N335 1.281 . S
C1233 N377 1.299 . S
C1252 N368 1.293 . S
C1269 C28 1.137 . S
C1288 C358 1.140 . S
C1305 C391 1.137 . S
C1324 C61 1.142 . S
C1341 C226 1.140 . S
C1360 C94 1.129 . S
C1377 C127 1.138 . S
C1396 C259 1.134 . S
C1413 C160 1.140 . S
C1432 C292 1.128 . S
C1449 C193 1.139 . S
C1468 C325 1.130 . S
