# Generated by pormake.
# Topology uod, (4)-cn, num edge types: 1
# Building blocks:
#     Node 0, Type 0, BuildingBlock: GALJAG_clean_sbu_0, # of connection points: 4
#     Node 1, Type 0, BuildingBlock: GALJAG_clean_sbu_0, # of connection points: 4
#     Node 2, Type 0, BuildingBlock: GALJAG_clean_sbu_0, # of connection points: 4
#     Node 3, Type 0, BuildingBlock: GALJAG_clean_sbu_0, # of connection points: 4
#     Node 4, Type 0, BuildingBlock: GALJAG_clean_sbu_0, # of connection points: 4
#     Node 5, Type 0, BuildingBlock: GALJAG_clean_sbu_0, # of connection points: 4
#     Node 6, Type 0, BuildingBlock: GALJAG_clean_sbu_0, # of connection points: 4
#     Node 7, Type 0, BuildingBlock: GALJAG_clean_sbu_0, # of connection points: 4
#     Node 8, Type 0, BuildingBlock: GALJAG_clean_sbu_0, # of connection points: 4
#     Node 9, Type 0, BuildingBlock: GALJAG_clean_sbu_0, # of connection points: 4
#     Node 10, Type 0, BuildingBlock: GALJAG_clean_sbu_0, # of connection points: 4
#     Node 11, Type 0, BuildingBlock: GALJAG_clean_sbu_0, # of connection points: 4
#     Node 12, Type 0, BuildingBlock: GALJAG_clean_sbu_0, # of connection points: 4
#     Node 13, Type 0, BuildingBlock: GALJAG_clean_sbu_0, # of connection points: 4
#     Node 14, Type 0, BuildingBlock: GALJAG_clean_sbu_0, # of connection points: 4
#     Node 15, Type 0, BuildingBlock: GALJAG_clean_sbu_0, # of connection points: 4
#     Node 16, Type 0, BuildingBlock: GALJAG_clean_sbu_0, # of connection points: 4
#     Node 17, Type 0, BuildingBlock: GALJAG_clean_sbu_0, # of connection points: 4
#     Node 18, Type 0, BuildingBlock: GALJAG_clean_sbu_0, # of connection points: 4
#     Node 19, Type 0, BuildingBlock: GALJAG_clean_sbu_0, # of connection points: 4
#     Node 20, Type 0, BuildingBlock: GALJAG_clean_sbu_0, # of connection points: 4
#     Node 21, Type 0, BuildingBlock: GALJAG_clean_sbu_0, # of connection points: 4
#     Node 22, Type 0, BuildingBlock: GALJAG_clean_sbu_0, # of connection points: 4
#     Node 23, Type 0, BuildingBlock: GALJAG_clean_sbu_0, # of connection points: 4
#     Node 24, Type 0, BuildingBlock: GALJAG_clean_sbu_0, # of connection points: 4
#     Node 25, Type 0, BuildingBlock: GALJAG_clean_sbu_0, # of connection points: 4
#     Node 26, Type 0, BuildingBlock: GALJAG_clean_sbu_0, # of connection points: 4
#     Node 27, Type 0, BuildingBlock: GALJAG_clean_sbu_0, # of connection points: 4
#     Node 28, Type 0, BuildingBlock: GALJAG_clean_sbu_0, # of connection points: 4
#     Node 29, Type 0, BuildingBlock: GALJAG_clean_sbu_0, # of connection points: 4
#     Node 30, Type 0, BuildingBlock: GALJAG_clean_sbu_0, # of connection points: 4
#     Node 31, Type 0, BuildingBlock: GALJAG_clean_sbu_0, # of connection points: 4
#     Edge 32, Type (0, 0), BuildingBlock: AJUNOK_clean_linker_0, # of connection points: 2
#     Edge 33, Type (0, 0), BuildingBlock: AJUNOK_clean_linker_0, # of connection points: 2
#     Edge 34, Type (0, 0), BuildingBlock: AJUNOK_clean_linker_0, # of connection points: 2
#     Edge 35, Type (0, 0), BuildingBlock: AJUNOK_clean_linker_0, # of connection points: 2
#     Edge 36, Type (0, 0), BuildingBlock: AJUNOK_clean_linker_0, # of connection points: 2
#     Edge 37, Type (0, 0), BuildingBlock: AJUNOK_clean_linker_0, # of connection points: 2
#     Edge 38, Type (0, 0), BuildingBlock: AJUNOK_clean_linker_0, # of connection points: 2
#     Edge 39, Type (0, 0), BuildingBlock: AJUNOK_clean_linker_0, # of connection points: 2
#     Edge 40, Type (0, 0), BuildingBlock: AJUNOK_clean_linker_0, # of connection points: 2
#     Edge 41, Type (0, 0), BuildingBlock: AJUNOK_clean_linker_0, # of connection points: 2
#     Edge 42, Type (0, 0), BuildingBlock: AJUNOK_clean_linker_0, # of connection points: 2
#     Edge 43, Type (0, 0), BuildingBlock: AJUNOK_clean_linker_0, # of connection points: 2
#     Edge 44, Type (0, 0), BuildingBlock: AJUNOK_clean_linker_0, # of connection points: 2
#     Edge 45, Type (0, 0), BuildingBlock: AJUNOK_clean_linker_0, # of connection points: 2
#     Edge 46, Type (0, 0), BuildingBlock: AJUNOK_clean_linker_0, # of connection points: 2
#     Edge 47, Type (0, 0), BuildingBlock: AJUNOK_clean_linker_0, # of connection points: 2
#     Edge 48, Type (0, 0), BuildingBlock: AJUNOK_clean_linker_0, # of connection points: 2
#     Edge 49, Type (0, 0), BuildingBlock: AJUNOK_clean_linker_0, # of connection points: 2
#     Edge 50, Type (0, 0), BuildingBlock: AJUNOK_clean_linker_0, # of connection points: 2
#     Edge 51, Type (0, 0), BuildingBlock: AJUNOK_clean_linker_0, # of connection points: 2
#     Edge 52, Type (0, 0), BuildingBlock: AJUNOK_clean_linker_0, # of connection points: 2
#     Edge 53, Type (0, 0), BuildingBlock: AJUNOK_clean_linker_0, # of connection points: 2
#     Edge 54, Type (0, 0), BuildingBlock: AJUNOK_clean_linker_0, # of connection points: 2
#     Edge 55, Type (0, 0), BuildingBlock: AJUNOK_clean_linker_0, # of connection points: 2
#     Edge 56, Type (0, 0), BuildingBlock: AJUNOK_clean_linker_0, # of connection points: 2
#     Edge 57, Type (0, 0), BuildingBlock: AJUNOK_clean_linker_0, # of connection points: 2
#     Edge 58, Type (0, 0), BuildingBlock: AJUNOK_clean_linker_0, # of connection points: 2
#     Edge 59, Type (0, 0), BuildingBlock: AJUNOK_clean_linker_0, # of connection points: 2
#     Edge 60, Type (0, 0), BuildingBlock: AJUNOK_clean_linker_0, # of connection points: 2
#     Edge 61, Type (0, 0), BuildingBlock: AJUNOK_clean_linker_0, # of connection points: 2
#     Edge 62, Type (0, 0), BuildingBlock: AJUNOK_clean_linker_0, # of connection points: 2
#     Edge 63, Type (0, 0), BuildingBlock: AJUNOK_clean_linker_0, # of connection points: 2
#     Edge 64, Type (0, 0), BuildingBlock: AJUNOK_clean_linker_0, # of connection points: 2
#     Edge 65, Type (0, 0), BuildingBlock: AJUNOK_clean_linker_0, # of connection points: 2
#     Edge 66, Type (0, 0), BuildingBlock: AJUNOK_clean_linker_0, # of connection points: 2
#     Edge 67, Type (0, 0), BuildingBlock: AJUNOK_clean_linker_0, # of connection points: 2
#     Edge 68, Type (0, 0), BuildingBlock: AJUNOK_clean_linker_0, # of connection points: 2
#     Edge 69, Type (0, 0), BuildingBlock: AJUNOK_clean_linker_0, # of connection points: 2
#     Edge 70, Type (0, 0), BuildingBlock: AJUNOK_clean_linker_0, # of connection points: 2
#     Edge 71, Type (0, 0), BuildingBlock: AJUNOK_clean_linker_0, # of connection points: 2
#     Edge 72, Type (0, 0), BuildingBlock: AJUNOK_clean_linker_0, # of connection points: 2
#     Edge 73, Type (0, 0), BuildingBlock: AJUNOK_clean_linker_0, # of connection points: 2
#     Edge 74, Type (0, 0), BuildingBlock: AJUNOK_clean_linker_0, # of connection points: 2
#     Edge 75, Type (0, 0), BuildingBlock: AJUNOK_clean_linker_0, # of connection points: 2
#     Edge 76, Type (0, 0), BuildingBlock: AJUNOK_clean_linker_0, # of connection points: 2
#     Edge 77, Type (0, 0), BuildingBlock: AJUNOK_clean_linker_0, # of connection points: 2
#     Edge 78, Type (0, 0), BuildingBlock: AJUNOK_clean_linker_0, # of connection points: 2
#     Edge 79, Type (0, 0), BuildingBlock: AJUNOK_clean_linker_0, # of connection points: 2
#     Edge 80, Type (0, 0), BuildingBlock: AJUNOK_clean_linker_0, # of connection points: 2
#     Edge 81, Type (0, 0), BuildingBlock: AJUNOK_clean_linker_0, # of connection points: 2
#     Edge 82, Type (0, 0), BuildingBlock: AJUNOK_clean_linker_0, # of connection points: 2
#     Edge 83, Type (0, 0), BuildingBlock: AJUNOK_clean_linker_0, # of connection points: 2
#     Edge 84, Type (0, 0), BuildingBlock: AJUNOK_clean_linker_0, # of connection points: 2
#     Edge 85, Type (0, 0), BuildingBlock: AJUNOK_clean_linker_0, # of connection points: 2
#     Edge 86, Type (0, 0), BuildingBlock: AJUNOK_clean_linker_0, # of connection points: 2
#     Edge 87, Type (0, 0), BuildingBlock: AJUNOK_clean_linker_0, # of connection points: 2
#     Edge 88, Type (0, 0), BuildingBlock: AJUNOK_clean_linker_0, # of connection points: 2
#     Edge 89, Type (0, 0), BuildingBlock: AJUNOK_clean_linker_0, # of connection points: 2
#     Edge 90, Type (0, 0), BuildingBlock: AJUNOK_clean_linker_0, # of connection points: 2
#     Edge 91, Type (0, 0), BuildingBlock: AJUNOK_clean_linker_0, # of connection points: 2
#     Edge 92, Type (0, 0), BuildingBlock: AJUNOK_clean_linker_0, # of connection points: 2
#     Edge 93, Type (0, 0), BuildingBlock: AJUNOK_clean_linker_0, # of connection points: 2
#     Edge 94, Type (0, 0), BuildingBlock: AJUNOK_clean_linker_0, # of connection points: 2
#     Edge 95, Type (0, 0), BuildingBlock: AJUNOK_clean_linker_0, # of connection points: 2
# Relax obj value: 0.120
# Max RMSD: 0.152
# Mean RMSD: 0.152
data_MOF--net-uod--node1-GALJAG_clean_sbu_0--edge1-AJUNOK_clean_linker_0
_symmetry_space_group_name_H-M    P1
_symmetry_Int_Tables_number       1
_symmetry_cell_setting            triclinic
loop_
_symmetry_equiv_pos_as_xyz
'x, y, z'
_cell_length_a     69.88265
_cell_length_b     20.976059
_cell_length_c     38.838976
_cell_angle_alpha  90.062974
_cell_angle_beta   90.011247
_cell_angle_gamma 89.987886
loop_
_atom_site_label
_atom_site_type_symbol
_atom_site_fract_x
_atom_site_fract_y
_atom_site_fract_z
_atom_type_partial_charge
In0 In 0.05817 0.35926 0.08709 0.0
O1 O 0.05035 0.38456 0.03168 0.0
O2 O 0.02897 0.39382 0.0708 0.0
C3 C 0.09523 0.33641 0.10127 0.0
C4 C 0.06007 0.47807 0.10908 0.0
C5 C 0.04462 0.24356 0.10191 0.0
O6 O 0.08907 0.33834 0.07044 0.0
O7 O 0.08258 0.34449 0.12411 0.0
O8 O 0.04334 0.28969 0.12296 0.0
O9 O 0.05208 0.257 0.0731 0.0
C10 C 0.0336 0.40326 0.03972 0.0
O11 O 0.05145 0.43566 0.12663 0.0
O12 O 0.0681 0.45915 0.08176 0.0
In13 In 0.21486 0.87152 0.08943 0.0
O14 O 0.22066 0.79254 0.12756 0.0
O15 O 0.20518 0.77236 0.08065 0.0
C16 C 0.2284 0.98653 0.10506 0.0
C17 C 0.24044 0.82826 0.04383 0.0
C18 C 0.17814 0.89435 0.10578 0.0
O19 O 0.23008 0.93949 0.12538 0.0
O20 O 0.22062 0.97423 0.0763 0.0
O21 O 0.18371 0.89316 0.07454 0.0
O22 O 0.19117 0.88514 0.12781 0.0
C23 C 0.21273 0.75154 0.10801 0.0
O24 O 0.22378 0.84611 0.03448 0.0
O25 O 0.2444 0.83865 0.07515 0.0
In26 In 0.06072 0.8664 0.16001 0.0
O27 O 0.05236 0.84053 0.21531 0.0
O28 O 0.03125 0.83462 0.17551 0.0
C29 C 0.09773 0.88986 0.14582 0.0
C30 C 0.06202 0.74654 0.14007 0.0
C31 C 0.04668 0.98063 0.14333 0.0
O32 O 0.09147 0.89006 0.1766 0.0
O33 O 0.08524 0.87888 0.12305 0.0
O34 O 0.04559 0.93316 0.12316 0.0
O35 O 0.05425 0.96929 0.17235 0.0
C36 C 0.03553 0.8236 0.20658 0.0
O37 O 0.0543 0.78879 0.12111 0.0
O38 O 0.06989 0.76608 0.16741 0.0
In39 In 0.2121 0.36417 0.15914 0.0
O40 O 0.21854 0.39161 0.21501 0.0
O41 O 0.24088 0.39835 0.17749 0.0
C42 C 0.17556 0.33893 0.142 0.0
C43 C 0.21087 0.48268 0.1368 0.0
C44 C 0.22685 0.24973 0.14537 0.0
O45 O 0.18088 0.34176 0.17332 0.0
O46 O 0.18874 0.34763 0.12027 0.0
O47 O 0.22809 0.29574 0.12431 0.0
O48 O 0.21868 0.26255 0.17366 0.0
C49 C 0.23553 0.40937 0.20805 0.0
O50 O 0.21991 0.44002 0.1201 0.0
O51 O 0.20197 0.46404 0.16325 0.0
In52 In 0.96288 0.62584 0.90923 0.0
O53 O 0.97007 0.59064 0.96384 0.0
O54 O 0.99155 0.58751 0.92475 0.0
C55 C 0.92609 0.65198 0.89494 0.0
C56 C 0.9606 0.512 0.88076 0.0
C57 C 0.97662 0.74284 0.89791 0.0
O58 O 0.93182 0.64389 0.92578 0.0
O59 O 0.93906 0.64863 0.8723 0.0
O60 O 0.97761 0.69888 0.87553 0.0
O61 O 0.96931 0.72661 0.92644 0.0
C62 C 0.98679 0.57273 0.95506 0.0
O63 O 0.97231 0.55315 0.86929 0.0
O64 O 0.94991 0.52958 0.90518 0.0
In65 In 0.80882 0.10955 0.91028 0.0
O66 O 0.80131 0.14299 0.96508 0.0
O67 O 0.78002 0.14719 0.92563 0.0
C68 C 0.8456 0.08382 0.89563 0.0
C69 C 0.81127 0.22445 0.88332 0.0
C70 C 0.79515 -0.00735 0.89833 0.0
O71 O 0.83992 0.09129 0.92655 0.0
O72 O 0.83259 0.08758 0.87307 0.0
O73 O 0.79414 0.03688 0.87614 0.0
O74 O 0.80248 0.00855 0.92693 0.0
C75 C 0.7846 0.16091 0.95621 0.0
O76 O 0.79969 0.18366 0.87099 0.0
O77 O 0.82174 0.206 0.90786 0.0
In78 In 0.96269 0.12093 0.84103 0.0
O79 O 0.97007 0.14374 0.78494 0.0
O80 O 0.99165 0.15456 0.82361 0.0
C81 C 0.92605 0.09407 0.85623 0.0
C82 C 0.95989 0.2416 0.85948 0.0
C83 C 0.97667 0.00741 0.85908 0.0
O84 O 0.93215 0.09356 0.82533 0.0
O85 O 0.93854 0.10715 0.87874 0.0
O86 O 0.97716 0.05493 0.87934 0.0
O87 O 0.96991 0.01862 0.82942 0.0
C88 C 0.98686 0.16275 0.79252 0.0
O89 O 0.97095 0.20369 0.87555 0.0
O90 O 0.9499 0.21734 0.83572 0.0
In91 In 0.80894 0.61445 0.8412 0.0
O92 O 0.80221 0.59018 0.78496 0.0
O93 O 0.78028 0.5793 0.8229 0.0
C94 C 0.84558 0.64206 0.8561 0.0
C95 C 0.8117 0.49474 0.8614 0.0
C96 C 0.7948 0.72808 0.85903 0.0
O97 O 0.83944 0.64165 0.82523 0.0
O98 O 0.83312 0.62957 0.87873 0.0
O99 O 0.79436 0.68073 0.87933 0.0
O100 O 0.80153 0.71663 0.82938 0.0
C101 C 0.78542 0.57065 0.79204 0.0
O102 O 0.80023 0.53301 0.87626 0.0
O103 O 0.82206 0.51815 0.83796 0.0
In104 In 0.05927 0.8597 0.58931 0.0
O105 O 0.05054 0.88852 0.53473 0.0
O106 O 0.02976 0.89363 0.57516 0.0
C107 C 0.09617 0.83492 0.60348 0.0
C108 C 0.06194 0.97811 0.61127 0.0
C109 C 0.04555 0.74414 0.60327 0.0
O110 O 0.09005 0.83727 0.57261 0.0
O111 O 0.08355 0.84362 0.62633 0.0
O112 O 0.04438 0.78977 0.62468 0.0
O113 O 0.05304 0.75803 0.57452 0.0
C114 C 0.03381 0.90548 0.54407 0.0
O115 O 0.05338 0.93602 0.62915 0.0
O116 O 0.06957 0.95899 0.5836 0.0
In117 In 0.21503 0.36658 0.59142 0.0
O118 O 0.22406 0.34173 0.53645 0.0
O119 O 0.2445 0.33256 0.5773 0.0
C120 C 0.17841 0.3912 0.60763 0.0
C121 C 0.21222 0.24654 0.60959 0.0
C122 C 0.22884 0.48095 0.60752 0.0
O123 O 0.18402 0.39 0.57641 0.0
O124 O 0.19135 0.38105 0.6297 0.0
O125 O 0.23029 0.43373 0.62778 0.0
O126 O 0.22118 0.46908 0.5786 0.0
C127 C 0.24062 0.32307 0.54587 0.0
O128 O 0.22044 0.28681 0.62919 0.0
O129 O 0.20474 0.26817 0.58234 0.0
In130 In 0.06087 0.36687 0.6606 0.0
O131 O 0.05535 0.28819 0.62203 0.0
O132 O 0.07048 0.26743 0.66913 0.0
C133 C 0.04692 0.48093 0.64382 0.0
C134 C 0.03501 0.32399 0.70585 0.0
C135 C 0.09789 0.39065 0.64692 0.0
O136 O 0.04596 0.43361 0.62351 0.0
O137 O 0.0543 0.46948 0.67298 0.0
O138 O 0.09154 0.39035 0.67765 0.0
O139 O 0.08546 0.38029 0.62394 0.0
C140 C 0.0631 0.24686 0.64156 0.0
O141 O 0.05157 0.34226 0.7155 0.0
O142 O 0.0313 0.33351 0.67439 0.0
In143 In 0.21306 0.85938 0.66064 0.0
O144 O 0.21948 0.9353 0.62103 0.0
O145 O 0.2027 0.95874 0.66585 0.0
C146 C 0.22745 0.74434 0.64759 0.0
C147 C 0.23804 0.90603 0.70651 0.0
C148 C 0.1765 0.83393 0.6441 0.0
O149 O 0.22873 0.78984 0.62619 0.0
O150 O 0.21939 0.75799 0.6759 0.0
O151 O 0.1819 0.8375 0.67539 0.0
O152 O 0.18964 0.84184 0.62216 0.0
C153 C 0.21076 0.9776 0.63854 0.0
O154 O 0.22127 0.88886 0.71552 0.0
O155 O 0.24231 0.89392 0.67553 0.0
In156 In 0.96285 0.1208 0.41302 0.0
O157 O 0.96975 0.09441 0.46875 0.0
O158 O 0.99191 0.08849 0.43082 0.0
C159 C 0.92622 0.14412 0.39584 0.0
C160 C 0.96189 0.00097 0.39299 0.0
C161 C 0.97712 0.23531 0.39772 0.0
O162 O 0.93161 0.14307 0.42715 0.0
O163 O 0.93936 0.13441 0.37411 0.0
O164 O 0.97881 0.18794 0.3776 0.0
O165 O 0.96889 0.22369 0.42612 0.0
C166 C 0.98672 0.07695 0.4614 0.0
O167 O 0.97013 0.04303 0.37464 0.0
O168 O 0.95337 0.02069 0.41964 0.0
In169 In 0.81043 0.60802 0.40997 0.0
O170 O 0.80224 0.63571 0.4651 0.0
O171 O 0.78107 0.64078 0.42533 0.0
C172 C 0.8472 0.58412 0.3943 0.0
C173 C 0.8123 0.72671 0.38813 0.0
C174 C 0.79639 0.49298 0.39524 0.0
O175 O 0.84155 0.5869 0.42545 0.0
O176 O 0.83423 0.59209 0.37206 0.0
O177 O 0.79479 0.53973 0.37474 0.0
O178 O 0.80448 0.50545 0.42368 0.0
C179 C 0.78539 0.65237 0.45634 0.0
O180 O 0.80405 0.68397 0.37021 0.0
O181 O 0.82007 0.70823 0.41577 0.0
In182 In 0.96471 0.61319 0.34114 0.0
O183 O 0.97185 0.68965 0.38052 0.0
O184 O 0.95475 0.71316 0.33625 0.0
C185 C 0.97875 0.49825 0.3565 0.0
C186 C 0.98861 0.65733 0.29269 0.0
C187 C 0.92772 0.58858 0.35518 0.0
O188 O 0.97972 0.54461 0.37744 0.0
O189 O 0.97136 0.5111 0.32756 0.0
O190 O 0.93398 0.58985 0.32443 0.0
O191 O 0.94022 0.59857 0.37806 0.0
C192 C 0.96311 0.73212 0.36321 0.0
O193 O 0.97169 0.63931 0.28544 0.0
O194 O 0.99374 0.64698 0.32343 0.0
In195 In 0.8093 0.11549 0.3391 0.0
O196 O 0.80136 0.09012 0.28376 0.0
O197 O 0.78 0.08176 0.32306 0.0
C198 C 0.84608 0.14052 0.35423 0.0
C199 C 0.81157 -0.00451 0.35817 0.0
C200 C 0.7951 0.22978 0.35471 0.0
O201 O 0.84006 0.14008 0.32329 0.0
O202 O 0.83344 0.12959 0.37673 0.0
O203 O 0.79422 0.18336 0.3756 0.0
O204 O 0.80254 0.21732 0.32573 0.0
C205 C 0.7846 0.07177 0.29198 0.0
O206 O 0.8031 0.03632 0.37707 0.0
O207 O 0.81957 0.01662 0.33133 0.0
In208 In 0.55965 0.36085 0.59071 0.0
O209 O 0.55012 0.38643 0.53612 0.0
O210 O 0.53025 0.39713 0.57772 0.0
C211 C 0.59656 0.33472 0.60391 0.0
C212 C 0.56327 0.47973 0.61134 0.0
C213 C 0.54547 0.24664 0.60616 0.0
O214 O 0.59019 0.3371 0.57321 0.0
O215 O 0.58416 0.34389 0.6271 0.0
O216 O 0.54459 0.29315 0.62704 0.0
O217 O 0.55287 0.2591 0.57714 0.0
C218 C 0.53376 0.40592 0.54612 0.0
O219 O 0.55475 0.4387 0.62998 0.0
O220 O 0.57038 0.45935 0.58348 0.0
In221 In 0.71441 0.86767 0.58781 0.0
O222 O 0.72192 0.84225 0.53231 0.0
O223 O 0.74353 0.83322 0.57112 0.0
C224 C 0.67758 0.89329 0.60217 0.0
C225 C 0.71212 0.74773 0.60709 0.0
C226 C 0.72876 0.98133 0.60457 0.0
O227 O 0.68383 0.89334 0.57139 0.0
O228 O 0.69002 0.8815 0.62491 0.0
O229 O 0.72977 0.93393 0.62476 0.0
O230 O 0.72131 0.96997 0.57546 0.0
C231 C 0.73866 0.82312 0.5402 0.0
O232 O 0.7205 0.78867 0.62604 0.0
O233 O 0.70419 0.76867 0.58014 0.0
In234 In 0.56079 0.86888 0.65772 0.0
O235 O 0.55142 0.84238 0.71214 0.0
O236 O 0.53158 0.83135 0.67039 0.0
C237 C 0.59721 0.89591 0.6417 0.0
C238 C 0.56437 0.74937 0.63906 0.0
C239 C 0.54602 0.98296 0.64446 0.0
O240 O 0.59168 0.89264 0.67292 0.0
O241 O 0.58425 0.88692 0.61949 0.0
O242 O 0.54515 0.93757 0.62283 0.0
O243 O 0.55387 0.96957 0.673 0.0
C244 C 0.53518 0.82202 0.70194 0.0
O245 O 0.55594 0.7893 0.61955 0.0
O246 O 0.57175 0.77126 0.66637 0.0
In247 In 0.71387 0.36009 0.65798 0.0
O248 O 0.72215 0.38809 0.71298 0.0
O249 O 0.74305 0.39561 0.67286 0.0
C250 C 0.6772 0.33448 0.6423 0.0
C251 C 0.71153 0.47856 0.63599 0.0
C252 C 0.72816 0.24477 0.64483 0.0
O253 O 0.68282 0.33841 0.67344 0.0
O254 O 0.69018 0.34225 0.62003 0.0
O255 O 0.7294 0.29019 0.62337 0.0
O256 O 0.72024 0.25869 0.67322 0.0
C257 C 0.7388 0.40651 0.70398 0.0
O258 O 0.72021 0.4363 0.61836 0.0
O259 O 0.70353 0.45954 0.66331 0.0
In260 In 0.46216 0.61085 0.40991 0.0
O261 O 0.46888 0.5853 0.46606 0.0
O262 O 0.49078 0.57559 0.428 0.0
C263 C 0.42545 0.63784 0.39521 0.0
C264 C 0.45982 0.49207 0.38786 0.0
C265 C 0.4765 0.72469 0.39315 0.0
O266 O 0.43153 0.63594 0.4261 0.0
O267 O 0.43803 0.62751 0.37246 0.0
O268 O 0.47697 0.67771 0.37258 0.0
O269 O 0.46947 0.71293 0.42253 0.0
C270 C 0.48571 0.56632 0.45881 0.0
O271 O 0.47126 0.53133 0.37383 0.0
O272 O 0.44929 0.514 0.41148 0.0
In273 In 0.31091 0.11139 0.41077 0.0
O274 O 0.30342 0.18727 0.37149 0.0
O275 O 0.3209 0.21157 0.41519 0.0
C276 C 0.2963 -0.00282 0.3955 0.0
C277 C 0.28747 0.15603 0.45986 0.0
C278 C 0.34752 0.08581 0.39412 0.0
O279 O 0.29476 0.04444 0.37535 0.0
O280 O 0.30451 0.00881 0.42391 0.0
O281 O 0.34204 0.08794 0.42536 0.0
O282 O 0.33448 0.0956 0.37225 0.0
C283 C 0.31227 0.23005 0.38841 0.0
O284 O 0.30447 0.13828 0.46674 0.0
O285 O 0.2821 0.1451 0.42931 0.0
In286 In 0.46486 0.10544 0.34076 0.0
O287 O 0.47285 0.13532 0.28581 0.0
O288 O 0.49378 0.14282 0.32579 0.0
C289 C 0.42797 0.08004 0.3544 0.0
C290 C 0.46172 0.22186 0.36552 0.0
C291 C 0.4783 -0.01103 0.35409 0.0
O292 O 0.43411 0.08488 0.32362 0.0
O293 O 0.44062 0.08608 0.37749 0.0
O294 O 0.4791 0.03371 0.37608 0.0
O295 O 0.47135 0.00425 0.32511 0.0
C296 C 0.48945 0.15417 0.29481 0.0
O297 O 0.4732 0.18215 0.37916 0.0
O298 O 0.45174 0.20169 0.34069 0.0
In299 In 0.30828 0.61875 0.3396 0.0
O300 O 0.29928 0.59343 0.2847 0.0
O301 O 0.27875 0.58534 0.32549 0.0
C302 C 0.34502 0.64222 0.35548 0.0
C303 C 0.31058 0.49876 0.35848 0.0
C304 C 0.29465 0.73408 0.35448 0.0
O305 O 0.33938 0.64023 0.32429 0.0
O306 O 0.33206 0.63349 0.37766 0.0
O307 O 0.29337 0.6879 0.37548 0.0
O308 O 0.30222 0.7209 0.32567 0.0
C309 C 0.28266 0.57539 0.2941 0.0
O310 O 0.3025 0.53978 0.37782 0.0
O311 O 0.31817 0.51961 0.33116 0.0
In312 In 0.55639 0.86228 0.09092 0.0
O313 O 0.5474 0.94176 0.12687 0.0
O314 O 0.56895 0.9591 0.0882 0.0
C315 C 0.54268 0.74677 0.10464 0.0
C316 C 0.53199 0.90722 0.04368 0.0
C317 C 0.59284 0.83754 0.10825 0.0
O318 O 0.54166 0.79205 0.12629 0.0
O319 O 0.55008 0.76095 0.07585 0.0
O320 O 0.58758 0.84075 0.07687 0.0
O321 O 0.57959 0.84536 0.13004 0.0
C322 C 0.55851 0.98112 0.11197 0.0
O323 O 0.54881 0.88924 0.0354 0.0
O324 O 0.5274 0.89673 0.07464 0.0
In325 In 0.71287 0.37024 0.08989 0.0
O326 O 0.71975 0.29356 0.12902 0.0
O327 O 0.70287 0.27032 0.08437 0.0
C328 C 0.7264 0.48553 0.10573 0.0
C329 C 0.73729 0.32732 0.04194 0.0
C330 C 0.67604 0.394 0.1056 0.0
O331 O 0.72819 0.43831 0.12586 0.0
O332 O 0.71861 0.47323 0.07701 0.0
O333 O 0.68173 0.3916 0.07448 0.0
O334 O 0.68899 0.38541 0.12781 0.0
C335 C 0.71103 0.25126 0.11153 0.0
O336 O 0.72045 0.34563 0.0342 0.0
O337 O 0.74204 0.33667 0.07297 0.0
In338 In 0.55846 0.36798 0.15794 0.0
O339 O 0.54796 0.29282 0.12038 0.0
O340 O 0.57109 0.27091 0.15494 0.0
C341 C 0.54405 0.48255 0.14279 0.0
C342 C 0.53576 0.31973 0.20726 0.0
C343 C 0.5954 0.39413 0.14421 0.0
O344 O 0.54362 0.43651 0.12165 0.0
O345 O 0.55113 0.46958 0.17196 0.0
O346 O 0.58918 0.39027 0.17494 0.0
O347 O 0.58283 0.38641 0.12115 0.0
C348 C 0.55964 0.25178 0.13203 0.0
O349 O 0.55268 0.33846 0.21393 0.0
O350 O 0.53017 0.33104 0.17698 0.0
In351 In 0.71032 0.86333 0.16278 0.0
O352 O 0.71662 0.94046 0.12364 0.0
O353 O 0.70134 0.9638 0.17021 0.0
C354 C 0.72425 0.74847 0.14733 0.0
C355 C 0.73604 0.90608 0.20843 0.0
C356 C 0.67323 0.84036 0.14883 0.0
O357 O 0.72507 0.7947 0.12633 0.0
O358 O 0.71681 0.76116 0.1763 0.0
O359 O 0.6795 0.8411 0.17962 0.0
O360 O 0.68577 0.85001 0.12596 0.0
C361 C 0.70906 0.98298 0.14268 0.0
O362 O 0.71921 0.89014 0.21768 0.0
O363 O 0.74 0.89454 0.17725 0.0
In364 In 0.46344 0.11869 0.90473 0.0
O365 O 0.46897 0.08937 0.96078 0.0
O366 O 0.49163 0.08124 0.9242 0.0
C367 C 0.42658 0.14627 0.89131 0.0
C368 C 0.46135 0.00265 0.87841 0.0
C369 C 0.47791 0.23335 0.88951 0.0
O370 O 0.43285 0.14191 0.92199 0.0
O371 O 0.43907 0.13843 0.86814 0.0
O372 O 0.47842 0.18718 0.86845 0.0
O373 O 0.47079 0.22038 0.91865 0.0
C374 C 0.4859 0.07039 0.95445 0.0
O375 O 0.47347 0.04255 0.86708 0.0
O376 O 0.45019 0.02252 0.90157 0.0
In377 In 0.31096 0.61462 0.91037 0.0
O378 O 0.30424 0.64147 0.96621 0.0
O379 O 0.28198 0.64765 0.92858 0.0
C380 C 0.34796 0.59039 0.89598 0.0
C381 C 0.31206 0.73347 0.88792 0.0
C382 C 0.29667 0.50007 0.89433 0.0
O383 O 0.3418 0.59161 0.9268 0.0
O384 O 0.33536 0.60019 0.87326 0.0
O385 O 0.2954 0.54735 0.87414 0.0
O386 O 0.30447 0.51179 0.92309 0.0
C387 C 0.28724 0.65891 0.95915 0.0
O388 O 0.30354 0.69029 0.87077 0.0
O389 O 0.32053 0.7153 0.91491 0.0
In390 In 0.46442 0.61246 0.83661 0.0
O391 O 0.4731 0.69378 0.87178 0.0
O392 O 0.45138 0.70865 0.83315 0.0
C393 C 0.47859 0.49751 0.85081 0.0
C394 C 0.48811 0.65685 0.78821 0.0
C395 C 0.42814 0.58683 0.85458 0.0
O396 O 0.47958 0.54326 0.87218 0.0
O397 O 0.47101 0.51097 0.82207 0.0
O398 O 0.43326 0.58951 0.82312 0.0
O399 O 0.44147 0.59549 0.87616 0.0
C400 C 0.46164 0.73198 0.85683 0.0
O401 O 0.47137 0.63721 0.78063 0.0
O402 O 0.49305 0.64827 0.8192 0.0
In403 In 0.30912 0.12192 0.83771 0.0
O404 O 0.3017 0.09577 0.78225 0.0
O405 O 0.27997 0.08794 0.82091 0.0
C406 C 0.34589 0.14623 0.85338 0.0
C407 C 0.31083 0.00219 0.8577 0.0
C408 C 0.2951 0.23699 0.85275 0.0
O409 O 0.34013 0.14463 0.82229 0.0
O410 O 0.33304 0.13653 0.87564 0.0
O411 O 0.2939 0.19064 0.87362 0.0
O412 O 0.30269 0.22406 0.82395 0.0
C413 C 0.28489 0.07724 0.79006 0.0
O414 O 0.30245 0.0438 0.87621 0.0
O415 O 0.31904 0.02235 0.83085 0.0
C416 C 0.06249 0.65653 0.09862 0.0
C417 C 0.06087 0.67834 0.13255 0.0
C418 C 0.06227 0.59127 0.09146 0.0
C419 C 0.05996 0.54605 0.11794 0.0
H420 H 0.06437 0.68995 0.07764 0.0
H421 H 0.06381 0.57617 0.06491 0.0
S422 S 0.05358 0.58001 0.21083 0.0
N423 N 0.05602 0.65081 0.19279 0.0
N424 N 0.05514 0.52776 0.1791 0.0
C425 C 0.0577 0.56747 0.15186 0.0
C426 C 0.0583 0.63387 0.15924 0.0
C427 C 0.20991 0.66096 0.14852 0.0
C428 C 0.21309 0.68324 0.11508 0.0
C429 C 0.20906 0.59559 0.15505 0.0
C430 C 0.21182 0.55073 0.12848 0.0
H431 H 0.2076 0.69414 0.16951 0.0
H432 H 0.20637 0.58012 0.18122 0.0
S433 S 0.22214 0.58602 0.03693 0.0
N434 N 0.21985 0.65664 0.05531 0.0
N435 N 0.21876 0.53323 0.06788 0.0
C436 C 0.21563 0.5726 0.09511 0.0
C437 C 0.21611 0.63917 0.08833 0.0
C438 C 0.97699 0.34245 0.87309 0.0
C439 C 0.95986 0.31067 0.86504 0.0
C440 C 0.9775 0.40906 0.87554 0.0
C441 C 0.96083 0.4452 0.87051 0.0
H442 H 0.99008 0.3158 0.87713 0.0
H443 H 0.99077 0.43216 0.88284 0.0
S444 S 0.91255 0.38495 0.84891 0.0
N445 N 0.92601 0.32035 0.85134 0.0
N446 N 0.92691 0.44551 0.85731 0.0
C447 C 0.9437 0.41414 0.86236 0.0
C448 C 0.94323 0.34671 0.85923 0.0
C449 C 0.79452 0.39342 0.87323 0.0
C450 C 0.81182 0.426 0.86778 0.0
C451 C 0.79421 0.32681 0.8758 0.0
C452 C 0.81124 0.29153 0.87357 0.0
H453 H 0.78115 0.41941 0.87494 0.0
H454 H 0.78074 0.30304 0.88089 0.0
S455 S 0.86009 0.35435 0.85958 0.0
N456 N 0.84624 0.41818 0.85963 0.0
N457 N 0.84568 0.29306 0.86584 0.0
C458 C 0.82856 0.3235 0.86815 0.0
C459 C 0.82884 0.39089 0.86486 0.0
C460 C 0.06418 0.09114 0.59346 0.0
C461 C 0.06201 0.04609 0.62005 0.0
C462 C 0.06419 0.15645 0.60046 0.0
C463 C 0.06248 0.1785 0.63433 0.0
H464 H 0.06568 0.07591 0.56693 0.0
H465 H 0.06589 0.18974 0.57936 0.0
S466 S 0.05569 0.08057 0.7129 0.0
N467 N 0.05739 0.02812 0.68129 0.0
N468 N 0.05786 0.1513 0.69468 0.0
C469 C 0.06016 0.13417 0.66116 0.0
C470 C 0.05979 0.0677 0.65395 0.0
C471 C 0.20943 0.09051 0.65688 0.0
C472 C 0.21124 0.04562 0.63007 0.0
C473 C 0.21015 0.15585 0.65023 0.0
C474 C 0.21223 0.17811 0.61649 0.0
H475 H 0.2077 0.07509 0.68332 0.0
H476 H 0.20871 0.18906 0.67146 0.0
S477 S 0.21822 0.08052 0.53748 0.0
N478 N 0.21587 0.02788 0.5688 0.0
N479 N 0.21673 0.15122 0.55604 0.0
C480 C 0.21415 0.13392 0.58945 0.0
C481 C 0.2138 0.06737 0.59632 0.0
C482 C 0.9615 0.91047 0.35187 0.0
C483 C 0.96311 0.93273 0.38571 0.0
C484 C 0.96149 0.84508 0.34504 0.0
C485 C 0.96355 0.80021 0.37177 0.0
H486 H 0.95975 0.94364 0.33073 0.0
H487 H 0.95994 0.82959 0.31856 0.0
S488 S 0.96986 0.83549 0.46453 0.0
N489 N 0.96771 0.90606 0.44613 0.0
N490 N 0.96821 0.78274 0.43305 0.0
C491 C 0.96586 0.82209 0.40559 0.0
C492 C 0.96547 0.88863 0.41264 0.0
C493 C 0.81221 0.83981 0.4063 0.0
C494 C 0.81179 0.79462 0.37946 0.0
C495 C 0.81173 0.90511 0.39933 0.0
C496 C 0.8113 0.92702 0.36531 0.0
H497 H 0.81272 0.82461 0.43294 0.0
H498 H 0.8121 0.93853 0.42061 0.0
S499 S 0.80939 0.82827 0.28601 0.0
N500 N 0.81023 0.77607 0.31779 0.0
N501 N 0.80981 0.89922 0.30446 0.0
C502 C 0.81073 0.88242 0.33823 0.0
C503 C 0.81083 0.81595 0.34537 0.0
C504 C 0.56586 0.65765 0.59884 0.0
C505 C 0.56416 0.68078 0.6325 0.0
C506 C 0.56588 0.59212 0.59247 0.0
C507 C 0.56373 0.54795 0.6195 0.0
H508 H 0.56743 0.69029 0.57742 0.0
H509 H 0.56728 0.57603 0.56607 0.0
S510 S 0.55763 0.58544 0.71206 0.0
N511 N 0.55972 0.65555 0.69314 0.0
N512 N 0.5593 0.53198 0.68095 0.0
C513 C 0.56164 0.57066 0.65322 0.0
C514 C 0.56199 0.63733 0.65978 0.0
C515 C 0.71065 0.65692 0.64783 0.0
C516 C 0.71255 0.67931 0.61409 0.0
C517 C 0.71013 0.5915 0.65444 0.0
C518 C 0.71196 0.54668 0.62759 0.0
H519 H 0.70915 0.69005 0.66908 0.0
H520 H 0.70847 0.57596 0.68088 0.0
S521 S 0.71866 0.58208 0.53497 0.0
N522 N 0.71701 0.65268 0.5536 0.0
N523 N 0.71654 0.52928 0.56627 0.0
C524 C 0.71442 0.56862 0.59384 0.0
C525 C 0.71457 0.63521 0.58702 0.0
C526 C 0.47759 0.39167 0.37684 0.0
C527 C 0.46005 0.42366 0.38067 0.0
C528 C 0.47818 0.3251 0.37415 0.0
C529 C 0.46122 0.28929 0.37458 0.0
H530 H 0.49092 0.41808 0.37668 0.0
H531 H 0.49187 0.30175 0.37053 0.0
S532 S 0.4118 0.35067 0.38373 0.0
N533 N 0.42546 0.41488 0.38525 0.0
N534 N 0.42655 0.28982 0.37873 0.0
C535 C 0.44365 0.32075 0.37819 0.0
C536 C 0.44307 0.38809 0.38165 0.0
C537 C 0.31253 0.40854 0.39954 0.0
C538 C 0.31036 0.43039 0.36573 0.0
C539 C 0.3133 0.34324 0.40642 0.0
C540 C 0.31145 0.298 0.37979 0.0
H541 H 0.31408 0.44202 0.42062 0.0
H542 H 0.31519 0.32811 0.43287 0.0
S543 S 0.30411 0.33175 0.28717 0.0
N544 N 0.30563 0.4027 0.30545 0.0
N545 N 0.30657 0.27951 0.31866 0.0
C546 C 0.3087 0.31935 0.34601 0.0
C547 C 0.30831 0.38583 0.3389 0.0
C548 C 0.57581 0.14968 0.1204 0.0
C549 C 0.55869 0.18408 0.12363 0.0
C550 C 0.57559 0.08343 0.11738 0.0
C551 C 0.55829 0.04956 0.11875 0.0
H552 H 0.58946 0.17421 0.12041 0.0
H553 H 0.58905 0.05843 0.11422 0.0
S554 S 0.50962 0.11768 0.12734 0.0
N555 N 0.524 0.18019 0.12796 0.0
N556 N 0.52362 0.05467 0.12308 0.0
C557 C 0.54106 0.08327 0.12217 0.0
C558 C 0.54125 0.151 0.12435 0.0
C559 C 0.70837 0.07274 0.10116 0.0
C560 C 0.71023 0.05111 0.13506 0.0
C561 C 0.70857 0.13797 0.09397 0.0
C562 C 0.71111 0.18331 0.12037 0.0
H563 H 0.7063 0.03921 0.08024 0.0
H564 H 0.70685 0.15295 0.06745 0.0
S565 S 0.71816 0.1498 0.21312 0.0
N566 N 0.71554 0.07893 0.19517 0.0
N567 N 0.7164 0.20189 0.18141 0.0
C568 C 0.71361 0.16204 0.15425 0.0
C569 C 0.71303 0.0957 0.16167 0.0
C570 C 0.47858 0.83397 0.86805 0.0
C571 C 0.46134 0.80061 0.86347 0.0
C572 C 0.47866 0.90061 0.87057 0.0
C573 C 0.46146 0.93515 0.86924 0.0
H574 H 0.49208 0.80857 0.86901 0.0
H575 H 0.49213 0.92498 0.87486 0.0
S576 S 0.41266 0.86987 0.8576 0.0
N577 N 0.42679 0.80674 0.85703 0.0
N578 N 0.4269 0.93188 0.86315 0.0
C579 C 0.44419 0.9023 0.86471 0.0
C580 C 0.44414 0.83489 0.86145 0.0
C581 C 0.31283 0.84678 0.90591 0.0
C582 C 0.31113 0.80145 0.87927 0.0
C583 C 0.31216 0.9121 0.89898 0.0
C584 C 0.31023 0.93389 0.86512 0.0
H585 H 0.31459 0.83169 0.9324 0.0
H586 H 0.31366 0.94562 0.92006 0.0
S587 S 0.30426 0.83519 0.78651 0.0
N588 N 0.30651 0.78295 0.81806 0.0
N589 N 0.30576 0.90613 0.80479 0.0
C590 C 0.30824 0.88928 0.83829 0.0
C591 C 0.30853 0.8228 0.84544 0.0
C592 C 0.9932 0.51166 0.00957 0.0
C593 C 0.99911 0.53053 0.97652 0.0
C594 C 1.00412 0.46873 0.02922 0.0
C595 C 0.02137 0.44257 0.01662 0.0
H596 H 0.98003 0.53009 0.02039 0.0
H597 H 0.99908 0.45674 0.05477 0.0
S598 S 0.04287 0.47444 0.93104 0.0
N599 N 0.02324 0.51813 0.93167 0.0
N600 N 0.04356 0.43775 0.96858 0.0
C601 C 0.0273 0.46029 0.98343 0.0
C602 C 0.01625 0.50418 0.96345 0.0
C603 C 0.2571 0.71952 0.97136 0.0
C604 C 0.27533 0.6991 0.98239 0.0
C605 C 0.24623 0.76302 0.99069 0.0
C606 C 0.2531 0.78811 0.0219 0.0
H607 H 0.25117 0.70225 0.94733 0.0
H608 H 0.23219 0.77627 0.98127 0.0
S609 S 0.30003 0.75074 0.06226 0.0
N610 N 0.29979 0.70785 0.02661 0.0
N611 N 0.27944 0.78932 0.06297 0.0
C612 C 0.27132 0.76813 0.03328 0.0
C613 C 0.28238 0.72369 0.01359 0.0
C614 C 0.02971 0.76029 0.2604 0.0
C615 C 0.0229 0.78407 0.22887 0.0
C616 C 0.01879 0.71766 0.28016 0.0
C617 C 1.00059 0.69677 0.26923 0.0
H618 H 0.04372 0.77399 0.26977 0.0
H619 H 0.02465 0.70141 0.30444 0.0
S620 S 0.97607 0.74484 0.18857 0.0
N621 N 0.99664 0.78345 0.18761 0.0
N622 N 0.97624 0.70352 0.22471 0.0
C623 C 0.99361 0.72 0.23769 0.0
C624 C 1.0047 0.76361 0.2176 0.0
C625 C 0.26561 0.47009 0.22047 0.0
C626 C 0.24747 0.44895 0.23155 0.0
C627 C 0.27658 0.51263 0.24021 0.0
C628 C 0.2699 0.536 0.27195 0.0
H629 H 0.27141 0.45411 0.19607 0.0
H630 H 0.29053 0.52653 0.23069 0.0
S631 S 0.22327 0.49608 0.3127 0.0
N632 N 0.22329 0.45514 0.27638 0.0
N633 N 0.24383 0.5348 0.31357 0.0
C634 C 0.25176 0.51531 0.28339 0.0
C635 C 0.2406 0.47186 0.26324 0.0
C636 C 0.77817 0.22183 0.0108 0.0
C637 C 0.7721 0.20204 0.97798 0.0
C638 C 0.76712 0.2641 0.03067 0.0
C639 C 0.74956 0.28862 0.01855 0.0
H640 H 0.79159 0.20478 0.02125 0.0
H641 H 0.77234 0.27694 0.05601 0.0
S642 S 0.72738 0.25321 0.93387 0.0
N643 N 0.74739 0.2114 0.93395 0.0
N644 N 0.72681 0.29054 0.97128 0.0
C645 C 0.74342 0.26982 0.98562 0.0
C646 C 0.75461 0.22661 0.96541 0.0
C647 C 0.0169 0.22409 0.78076 0.0
C648 C 0.99916 0.20063 0.76887 0.0
C649 C 0.0281 0.26542 0.76074 0.0
C650 C 0.02206 0.28524 0.72794 0.0
H651 H 0.02217 0.21103 0.80602 0.0
H652 H 0.0417 0.28136 0.77099 0.0
S653 S 0.97682 0.2374 0.68456 0.0
N654 N 0.97616 0.20025 0.72198 0.0
N655 N 0.99711 0.27766 0.68429 0.0
C656 C 1.00437 0.26198 0.71562 0.0
C657 C 0.99298 0.21973 0.73604 0.0
C658 C 0.74523 0.46408 0.75946 0.0
C659 C 0.75136 0.44622 0.72637 0.0
C660 C 0.75607 0.50591 0.77988 0.0
C661 C 0.77351 0.53187 0.76812 0.0
H662 H 0.73186 0.44607 0.76966 0.0
H663 H 0.75076 0.51736 0.80535 0.0
S664 S 0.7959 0.50112 0.68313 0.0
N665 N 0.77606 0.45846 0.68257 0.0
N666 N 0.79632 0.5368 0.72103 0.0
C667 C 0.77978 0.51471 0.73502 0.0
C668 C 0.76877 0.47195 0.71419 0.0
C669 C 0.01724 0.01862 0.47368 0.0
C670 C 0.99863 0.03595 0.48418 0.0
C671 C 0.02823 0.97458 0.49239 0.0
C672 C 0.02108 0.94583 0.52243 0.0
H673 H 0.02341 0.03892 0.45057 0.0
H674 H 0.04257 0.96393 0.48351 0.0
S675 S 0.97288 0.97234 0.56028 0.0
N676 N 0.97335 0.01912 0.52615 0.0
N677 N 0.99392 0.93664 0.56136 0.0
C678 C 1.00241 0.96219 0.53308 0.0
C679 C 0.99124 0.00719 0.51403 0.0
C680 C 0.2574 0.2168 0.47242 0.0
C681 C 0.27558 0.19577 0.48338 0.0
C682 C 0.24651 0.25965 0.49212 0.0
C683 C 0.2533 0.28343 0.52369 0.0
H684 H 0.25152 0.20052 0.44815 0.0
H685 H 0.23252 0.27343 0.48271 0.0
S686 S 0.30008 0.244 0.56407 0.0
N687 N 0.29992 0.20254 0.52793 0.0
N688 N 0.27952 0.28275 0.56502 0.0
C689 C 0.27147 0.26284 0.53502 0.0
C690 C 0.28256 0.21909 0.51492 0.0
C691 C 0.2437 0.97304 0.75916 0.0
C692 C 0.25067 0.9465 0.72836 0.0
C693 C 0.25462 0.01688 0.77821 0.0
C694 C 0.27296 0.03629 0.76725 0.0
H695 H 0.22956 0.96068 0.76843 0.0
H696 H 0.24863 0.03538 0.80193 0.0
S697 S 0.29812 0.97941 0.6889 0.0
N698 N 0.27737 0.94191 0.68813 0.0
N699 N 0.29775 0.02413 0.72388 0.0
C700 C 0.28015 0.00987 0.73659 0.0
C701 C 0.26907 0.96501 0.71724 0.0
C702 C 0.77988 0.71958 0.50893 0.0
C703 C 0.77275 0.69231 0.47843 0.0
C704 C 0.76899 0.76341 0.52801 0.0
C705 C 0.75052 0.7821 0.51736 0.0
H706 H 0.79413 0.70788 0.51789 0.0
H707 H 0.7751 0.78258 0.55147 0.0
S708 S 0.72486 0.72265 0.44008 0.0
N709 N 0.74573 0.68587 0.43897 0.0
N710 N 0.72539 0.76815 0.47476 0.0
C711 C 0.74315 0.75481 0.48706 0.0
C712 C 0.7542 0.70992 0.46769 0.0
C713 C 0.74236 0.97252 0.26101 0.0
C714 C 0.74908 0.94507 0.23026 0.0
C715 C 0.75372 0.01506 0.28008 0.0
C716 C 0.77227 0.03222 0.26917 0.0
H717 H 0.72808 0.96193 0.27022 0.0
H718 H 0.74791 0.03438 0.30374 0.0
S719 S 0.79688 0.97231 0.19091 0.0
N720 N 0.77573 0.9373 0.19009 0.0
N721 N 0.79696 0.01709 0.22588 0.0
C722 C 0.7792 0.00497 0.23853 0.0
C723 C 0.76767 0.96143 0.21916 0.0
C724 C 0.51516 0.50185 0.47017 0.0
C725 C 0.49786 0.52799 0.48249 0.0
C726 C 0.52634 0.46098 0.49045 0.0
C727 C 0.52075 0.44437 0.524 0.0
H728 H 0.5201 0.51248 0.44437 0.0
H729 H 0.5396 0.44285 0.4798 0.0
S730 S 0.47671 0.49994 0.56873 0.0
N731 N 0.47568 0.53418 0.53052 0.0
N732 N 0.49665 0.45769 0.56881 0.0
C733 C 0.50346 0.47015 0.53673 0.0
C734 C 0.49206 0.51187 0.51599 0.0
C735 C 0.52799 0.76599 0.75741 0.0
C736 C 0.52249 0.78176 0.72369 0.0
C737 C 0.51709 0.72393 0.77746 0.0
C738 C 0.50019 0.6957 0.7647 0.0
H739 H 0.54092 0.78589 0.76842 0.0
H740 H 0.52189 0.71422 0.80345 0.0
S741 S 0.47972 0.71951 0.67756 0.0
N742 N 0.49911 0.76447 0.67804 0.0
N743 N 0.47867 0.68576 0.71588 0.0
C744 C 0.49458 0.71052 0.73092 0.0
C745 C 0.50569 0.75345 0.71043 0.0
C746 C 0.49615 0.21015 0.23902 0.0
C747 C 0.50197 0.19407 0.27253 0.0
C748 C 0.50695 0.25202 0.21864 0.0
C749 C 0.52406 0.27978 0.23086 0.0
H750 H 0.48304 0.19071 0.22847 0.0
H751 H 0.50188 0.26214 0.19286 0.0
S752 S 0.54561 0.25393 0.31697 0.0
N753 N 0.52606 0.20978 0.31717 0.0
N754 N 0.54627 0.28814 0.27874 0.0
C755 C 0.53008 0.26416 0.2643 0.0
C756 C 0.51909 0.22142 0.28511 0.0
C757 C 0.5154 0.00719 0.96766 0.0
C758 C 0.49749 0.03097 0.97851 0.0
C759 C 0.52617 0.96566 0.98833 0.0
C760 C 0.51951 0.94599 0.02074 0.0
H761 H 0.52117 0.02035 0.94278 0.0
H762 H 0.53994 0.94954 0.97893 0.0
S763 S 0.47348 -0.00588 0.06127 0.0
N764 N 0.47357 0.03137 0.02386 0.0
N765 N 0.49371 0.9536 0.06278 0.0
C766 C 0.50158 0.96926 0.03192 0.0
C767 C 0.49063 0.01168 0.01085 0.0
C768 C 0.14051 0.33276 0.15571 0.0
C769 C 0.15525 0.33117 0.13114 0.0
C770 C 0.1212 0.33229 0.14571 0.0
C771 C 0.11579 0.33015 0.11071 0.0
H772 H 0.14386 0.3363 0.18287 0.0
H773 H 0.11043 0.33529 0.16569 0.0
S774 S 0.14887 0.31964 0.03625 0.0
N775 N 0.16309 0.32298 0.07015 0.0
N776 N 0.12685 0.32231 0.05157 0.0
C777 C 0.13037 0.32591 0.08593 0.0
C778 C 0.15007 0.32637 0.09608 0.0
C779 C 0.12377 0.89376 0.10151 0.0
C780 C 0.11825 0.89772 0.13641 0.0
C781 C 0.1431 0.89527 0.09165 0.0
C782 C 0.15774 0.90064 0.11626 0.0
H783 H 0.1131 0.88784 0.08154 0.0
H784 H 0.14657 0.89012 0.06461 0.0
S785 S 0.15097 0.91874 0.21074 0.0
N786 N 0.12905 0.91173 0.19538 0.0
N787 N 0.16531 0.91469 0.17704 0.0
C788 C 0.15241 0.90735 0.15114 0.0
C789 C 0.1327 0.90587 0.16116 0.0
C790 C 0.87182 0.64305 0.9001 0.0
C791 C 0.86601 0.65166 0.86562 0.0
C792 C 0.89118 0.64599 0.90969 0.0
C793 C 0.90555 0.6577 0.88522 0.0
H794 H 0.86139 0.63209 0.91984 0.0
H795 H 0.89491 0.63685 0.9363 0.0
S796 S 0.89785 0.69017 0.79213 0.0
N797 N 0.87616 0.67707 0.80742 0.0
N798 N 0.91247 0.68293 0.82528 0.0
C799 C 0.89988 0.66928 0.8509 0.0
C800 C 0.88015 0.66616 0.84114 0.0
C801 C 0.89988 0.09355 0.90039 0.0
C802 C 0.90563 0.08454 0.86589 0.0
C803 C 0.88055 0.09048 0.91012 0.0
C804 C 0.86612 0.07827 0.88578 0.0
H805 H 0.91035 0.10487 0.92004 0.0
H806 H 0.87686 0.09992 0.93673 0.0
S807 S 0.87365 0.04464 0.79274 0.0
N808 N 0.89536 0.05821 0.80784 0.0
N809 N 0.8591 0.05217 0.82597 0.0
C810 C 0.87174 0.06634 0.85146 0.0
C811 C 0.89144 0.06955 0.84156 0.0
C812 C 0.14143 0.83004 0.65794 0.0
C813 C 0.15616 0.82661 0.63339 0.0
C814 C 0.12212 0.8305 0.64795 0.0
C815 C 0.11669 0.82754 0.61298 0.0
H816 H 0.14482 0.8344 0.68506 0.0
H817 H 0.11138 0.83498 0.66791 0.0
S818 S 0.14966 0.81187 0.53865 0.0
N819 N 0.16391 0.81552 0.5725 0.0
N820 N 0.12767 0.81667 0.55394 0.0
C821 C 0.13123 0.82135 0.58825 0.0
C822 C 0.15092 0.82082 0.59839 0.0
C823 C 0.12406 0.39502 0.60289 0.0
C824 C 0.11847 0.39792 0.63777 0.0
C825 C 0.14342 0.39544 0.59321 0.0
C826 C 0.15802 0.39863 0.61801 0.0
H827 H 0.11341 0.3907 0.58275 0.0
H828 H 0.14694 0.39114 0.56614 0.0
S829 S 0.1511 0.41321 0.71264 0.0
N830 N 0.12918 0.40858 0.697 0.0
N831 N 0.1655 0.40954 0.67901 0.0
C832 C 0.15263 0.40435 0.65292 0.0
C833 C 0.13289 0.40397 0.66274 0.0
C834 C 0.87184 0.14446 0.39908 0.0
C835 C 0.86653 0.14855 0.36409 0.0
C836 C 0.89111 0.14567 0.40932 0.0
C837 C 0.9059 0.15084 0.38499 0.0
H838 H 0.86105 0.13857 0.41884 0.0
H839 H 0.89442 0.14036 0.43641 0.0
S840 S 0.89969 0.16952 0.29044 0.0
N841 N 0.87767 0.16272 0.30536 0.0
N842 N 0.91384 0.1651 0.32441 0.0
C843 C 0.90077 0.15781 0.35003 0.0
C844 C 0.88113 0.15665 0.33963 0.0
C845 C 0.90156 0.58439 0.39924 0.0
C846 C 0.9072 0.58052 0.36441 0.0
C847 C 0.8822 0.58295 0.40888 0.0
C848 C 0.86764 0.57764 0.38409 0.0
H849 H 0.91217 0.59031 0.41933 0.0
H850 H 0.87863 0.58809 0.43588 0.0
S851 S 0.87474 0.55972 0.28967 0.0
N852 N 0.89661 0.56664 0.3053 0.0
N853 N 0.86029 0.5637 0.32322 0.0
C854 C 0.8731 0.57093 0.34927 0.0
C855 C 0.89283 0.57242 0.33948 0.0
C856 C 0.62288 0.33028 0.64766 0.0
C857 C 0.61715 0.32718 0.61285 0.0
C858 C 0.64227 0.3301 0.6571 0.0
C859 C 0.65679 0.32682 0.63214 0.0
H860 H 0.6123 0.33472 0.66791 0.0
H861 H 0.64588 0.3346 0.68412 0.0
S862 S 0.6495 0.31156 0.53762 0.0
N863 N 0.62764 0.31616 0.55352 0.0
N864 N 0.66403 0.31554 0.57106 0.0
C865 C 0.65126 0.32079 0.59731 0.0
C866 C 0.63149 0.32102 0.58772 0.0
C867 C 0.63218 0.89827 0.65611 0.0
C868 C 0.61758 0.90356 0.63141 0.0
C869 C 0.65152 0.89725 0.64637 0.0
C870 C 0.65709 0.90158 0.61153 0.0
H871 H 0.62867 0.89262 0.6831 0.0
H872 H 0.66217 0.89117 0.66638 0.0
S873 S 0.6245 0.92304 0.53707 0.0
N874 N 0.6101 0.91835 0.57067 0.0
N875 N 0.6464 0.91624 0.55255 0.0
C876 C 0.64269 0.90994 0.58672 0.0
C877 C 0.62297 0.91097 0.59661 0.0
C878 C 0.39939 0.64182 0.35088 0.0
C879 C 0.40496 0.64622 0.38573 0.0
C880 C 0.38005 0.64316 0.3411 0.0
C881 C 0.36544 0.64886 0.36577 0.0
H882 H 0.41004 0.63548 0.3309 0.0
H883 H 0.37653 0.63755 0.31411 0.0
S884 S 0.37236 0.66846 0.46013 0.0
N885 N 0.39426 0.66118 0.4447 0.0
N886 N 0.35797 0.66391 0.42651 0.0
C887 C 0.37084 0.65616 0.40059 0.0
C888 C 0.39055 0.65479 0.41052 0.0
C889 C 0.40183 0.07527 0.39851 0.0
C890 C 0.40736 0.07413 0.36357 0.0
C891 C 0.38249 0.07677 0.40826 0.0
C892 C 0.36783 0.0772 0.38348 0.0
H893 H 0.41254 0.07685 0.41865 0.0
H894 H 0.37904 0.0795 0.43541 0.0
S895 S 0.37453 0.06886 0.28857 0.0
N896 N 0.39649 0.06936 0.30421 0.0
N897 N 0.3602 0.07189 0.32232 0.0
C898 C 0.37313 0.07335 0.34845 0.0
C899 C 0.39285 0.07188 0.33856 0.0
C900 C 0.64723 0.83544 0.10448 0.0
C901 C 0.65269 0.83302 0.13945 0.0
C902 C 0.62792 0.83443 0.09452 0.0
C903 C 0.6132 0.83102 0.11909 0.0
H904 H 0.65796 0.83973 0.08449 0.0
H905 H 0.62453 0.83825 0.06739 0.0
S906 S 0.61974 0.81817 0.21386 0.0
N907 N 0.64173 0.82304 0.19854 0.0
N908 N 0.60547 0.82097 0.18002 0.0
C909 C 0.61845 0.82601 0.1541 0.0
C910 C 0.63815 0.82704 0.16422 0.0
C911 C 0.64107 0.39878 0.09084 0.0
C912 C 0.65562 0.40134 0.11579 0.0
C913 C 0.62168 0.39876 0.10033 0.0
C914 C 0.61599 0.40132 0.13517 0.0
H915 H 0.64466 0.39481 0.06379 0.0
H916 H 0.61107 0.39491 0.0801 0.0
S917 S 0.64844 0.41475 0.21042 0.0
N918 N 0.66293 0.4112 0.17692 0.0
N919 N 0.62656 0.41088 0.19454 0.0
C920 C 0.63036 0.40662 0.1603 0.0
C921 C 0.65013 0.40669 0.15067 0.0
C922 C 0.40021 0.15123 0.84765 0.0
C923 C 0.40599 0.1538 0.88244 0.0
C924 C 0.38079 0.15127 0.83833 0.0
C925 C 0.36632 0.15382 0.86341 0.0
H926 H 0.41076 0.14727 0.82733 0.0
H927 H 0.37713 0.1472 0.81132 0.0
S928 S 0.37375 0.16758 0.95795 0.0
N929 N 0.39559 0.16361 0.94189 0.0
N930 N 0.35916 0.16392 0.92457 0.0
C931 C 0.3719 0.15929 0.89823 0.0
C932 C 0.39169 0.15923 0.90769 0.0
C933 C 0.39305 0.58267 0.84125 0.0
C934 C 0.40785 0.58022 0.86569 0.0
C935 C 0.37377 0.58385 0.8514 0.0
C936 C 0.36845 0.58256 0.88643 0.0
H937 H 0.39634 0.58568 0.81404 0.0
H938 H 0.36297 0.58744 0.83149 0.0
S939 S 0.40166 0.57044 0.96064 0.0
N940 N 0.41581 0.57222 0.92662 0.0
N941 N 0.37962 0.57459 0.94551 0.0
C942 C 0.38307 0.57744 0.91111 0.0
C943 C 0.40274 0.57625 0.90079 0.0
C944 C 0.04202 0.09583 0.15707 0.0
C945 C 0.04191 0.04642 0.13252 0.0
C946 C 0.0413 0.15991 0.14703 0.0
C947 C 0.04071 0.17691 0.11204 0.0
H948 H 0.04358 0.08511 0.1842 0.0
H949 H 0.04249 0.19627 0.16675 0.0
S950 S 0.03718 0.06584 0.03791 0.0
N951 N 0.03875 0.01888 0.07188 0.0
N952 N 0.03772 0.13942 0.05303 0.0
C953 C 0.03914 0.12805 0.08739 0.0
C954 C 0.03964 0.06273 0.09763 0.0
C955 C 0.23206 0.10179 0.09093 0.0
C956 C 0.23252 0.05287 0.11568 0.0
C957 C 0.23182 0.16605 0.10074 0.0
C958 C 0.23175 0.18361 0.13567 0.0
H959 H 0.23091 0.0904 0.06379 0.0
H960 H 0.23037 0.20189 0.08084 0.0
S961 S 0.23592 0.07446 0.21036 0.0
N962 N 0.23537 0.02676 0.17652 0.0
N963 N 0.23458 0.14764 0.19493 0.0
C964 C 0.23371 0.13549 0.16058 0.0
C965 C 0.23421 0.07003 0.15058 0.0
C966 C 0.98246 0.82856 0.85477 0.0
C967 C 0.98086 0.81021 0.88947 0.0
C968 C 0.98239 0.89296 0.84533 0.0
C969 C 0.98098 0.94149 0.87023 0.0
H970 H 0.98256 0.79302 0.83451 0.0
H971 H 0.98253 0.90463 0.81816 0.0
S972 S 0.97963 0.91882 0.96494 0.0
N973 N 0.9801 0.84576 0.9491 0.0
N974 N 0.98022 0.96694 0.93134 0.0
C975 C 0.98103 0.92396 0.90517 0.0
C976 C 0.98089 0.85824 0.9148 0.0
C977 C 0.78935 0.90712 0.85492 0.0
C978 C 0.79087 0.92537 0.88967 0.0
C979 C 0.78932 0.84272 0.84537 0.0
C980 C 0.79056 0.7941 0.8702 0.0
H981 H 0.78937 0.94271 0.83473 0.0
H982 H 0.78925 0.83108 0.81818 0.0
S983 S 0.79169 0.81662 0.96497 0.0
N984 N 0.79139 0.88971 0.94924 0.0
N985 N 0.7911 0.76857 0.93129 0.0
C986 C 0.79044 0.8116 0.90518 0.0
C987 C 0.79068 0.8773 0.91491 0.0
C988 C 0.04157 0.66004 0.64793 0.0
C989 C 0.04144 0.67743 0.61298 0.0
C990 C 0.04209 0.59586 0.65777 0.0
C991 C 0.04224 0.54676 0.63305 0.0
H992 H 0.04255 0.69613 0.66782 0.0
H993 H 0.04331 0.58482 0.68492 0.0
S994 S 0.03866 0.56728 0.53836 0.0
N995 N 0.03909 0.64068 0.55374 0.0
N996 N 0.03978 0.51992 0.57223 0.0
C997 C 0.04039 0.56347 0.59814 0.0
C998 C 0.04008 0.6289 0.5881 0.0
C999 C 0.23307 0.596 0.59356 0.0
C1000 C 0.233 0.54713 0.61834 0.0
C1001 C 0.23283 0.66027 0.60332 0.0
C1002 C 0.23223 0.67794 0.63823 0.0
H1003 H 0.23233 0.58458 0.56638 0.0
H1004 H 0.23181 0.69607 0.58332 0.0
S1005 S 0.23488 0.56876 0.71315 0.0
N1006 N 0.23476 0.52103 0.67931 0.0
N1007 N 0.23399 0.64195 0.69763 0.0
C1008 C 0.23367 0.6298 0.66325 0.0
C1009 C 0.23416 0.5643 0.65331 0.0
C1010 C 0.98184 0.41479 0.40179 0.0
C1011 C 0.98286 0.43185 0.36684 0.0
C1012 C 0.98123 0.35065 0.41178 0.0
C1013 C 0.98189 0.30128 0.38723 0.0
H1014 H 0.98021 0.45108 0.42144 0.0
H1015 H 0.9793 0.33981 0.43883 0.0
S1016 S 0.98786 0.32108 0.29287 0.0
N1017 N 0.98683 0.3946 0.30799 0.0
N1018 N 0.98601 0.274 0.32675 0.0
C1019 C 0.9846 0.31776 0.35246 0.0
C1020 C 0.98498 0.3831 0.34227 0.0
C1021 C 0.79232 0.31346 0.39999 0.0
C1022 C 0.79082 0.29599 0.36514 0.0
C1023 C 0.79285 0.37773 0.4098 0.0
C1024 C 0.79165 0.42675 0.38517 0.0
H1025 H 0.79443 0.27746 0.41961 0.0
H1026 H 0.7952 0.38895 0.4367 0.0
S1027 S 0.78402 0.40552 0.29125 0.0
N1028 N 0.78564 0.33225 0.30647 0.0
N1029 N 0.78631 0.45311 0.32489 0.0
C1030 C 0.78838 0.40975 0.3506 0.0
C1031 C 0.78807 0.34429 0.34059 0.0
C1032 C 0.54126 0.06756 0.60042 0.0
C1033 C 0.54116 0.04926 0.63521 0.0
C1034 C 0.54126 0.13202 0.59111 0.0
C1035 C 0.54092 0.18039 0.61624 0.0
H1036 H 0.54271 0.03214 0.58026 0.0
H1037 H 0.54257 0.14391 0.56408 0.0
S1038 S 0.53682 0.15687 0.71065 0.0
N1039 N 0.53804 0.084 0.69469 0.0
N1040 N 0.53775 0.2053 0.67721 0.0
C1041 C 0.53895 0.16256 0.65096 0.0
C1042 C 0.53917 0.09687 0.66045 0.0
C1043 C 0.73356 0.16051 0.60061 0.0
C1044 C 0.73279 0.17816 0.63551 0.0
C1045 C 0.73361 0.09623 0.59081 0.0
C1046 C 0.73316 0.0473 0.61555 0.0
H1047 H 0.73283 0.19639 0.58061 0.0
H1048 H 0.73302 0.08492 0.56361 0.0
S1049 S 0.73443 0.06864 0.7104 0.0
N1050 N 0.73398 0.1419 0.69492 0.0
N1051 N 0.73436 0.021 0.67653 0.0
C1052 C 0.73414 0.06435 0.65055 0.0
C1053 C 0.73386 0.12986 0.66053 0.0
C1054 C 0.48185 0.8392 0.40754 0.0
C1055 C 0.48123 0.7906 0.38256 0.0
C1056 C 0.48243 0.90358 0.39806 0.0
C1057 C 0.4822 0.92175 0.36323 0.0
H1058 H 0.48094 0.82764 0.43467 0.0
H1059 H 0.48184 0.93925 0.41822 0.0
S1060 S 0.4836 0.81293 0.28787 0.0
N1061 N 0.48277 0.76494 0.3215 0.0
N1062 N 0.48365 0.88602 0.30369 0.0
C1063 C 0.48307 0.87363 0.33802 0.0
C1064 C 0.48266 0.80799 0.34768 0.0
C1065 C 0.29152 0.81785 0.39965 0.0
C1066 C 0.29058 0.80059 0.36471 0.0
C1067 C 0.29209 0.88203 0.40961 0.0
C1068 C 0.29147 0.93124 0.38503 0.0
H1069 H 0.29313 0.78169 0.41934 0.0
H1070 H 0.29399 0.89303 0.43666 0.0
S1071 S 0.28558 0.91086 0.29066 0.0
N1072 N 0.28665 0.83743 0.30582 0.0
N1073 N 0.28738 0.95816 0.32452 0.0
C1074 C 0.28879 0.91456 0.35026 0.0
C1075 C 0.28846 0.84915 0.34009 0.0
C1076 C 0.53963 0.59712 0.15805 0.0
C1077 C 0.53928 0.54878 0.1329 0.0
C1078 C 0.53913 0.6616 0.14879 0.0
C1079 C 0.5385 0.68001 0.11403 0.0
H1080 H 0.54128 0.58524 0.18503 0.0
H1081 H 0.54056 0.69708 0.16893 0.0
S1082 S 0.53409 0.5723 0.03864 0.0
N1083 N 0.53567 0.52388 0.072 0.0
N1084 N 0.53502 0.64519 0.05464 0.0
C1085 C 0.53659 0.63231 0.08881 0.0
C1086 C 0.53689 0.5666 0.09825 0.0
C1087 C 0.72934 0.60126 0.09206 0.0
C1088 C 0.73026 0.55197 0.11656 0.0
C1089 C 0.72887 0.66537 0.10218 0.0
C1090 C 0.72905 0.68243 0.13719 0.0
H1091 H 0.72801 0.59025 0.06491 0.0
H1092 H 0.72712 0.70143 0.08248 0.0
S1093 S 0.73437 0.57228 0.21123 0.0
N1094 N 0.73374 0.5251 0.1772 0.0
N1095 N 0.73255 0.64562 0.19618 0.0
C1096 C 0.73143 0.63399 0.16181 0.0
C1097 C 0.73214 0.5687 0.15149 0.0
C1098 C 0.4819 0.34826 0.9046 0.0
C1099 C 0.48255 0.29972 0.87957 0.0
C1100 C 0.48222 0.41273 0.89523 0.0
C1101 C 0.48298 0.43095 0.86044 0.0
H1102 H 0.48013 0.33652 0.93157 0.0
H1103 H 0.48054 0.4483 0.91525 0.0
S1104 S 0.48824 0.32287 0.78538 0.0
N1105 N 0.48663 0.2746 0.8188 0.0
N1106 N 0.48695 0.39583 0.80121 0.0
C1107 C 0.48521 0.38312 0.83537 0.0
C1108 C 0.48509 0.31744 0.84493 0.0
C1109 C 0.29198 0.32053 0.89809 0.0
C1110 C 0.29101 0.30346 0.86312 0.0
C1111 C 0.29257 0.38467 0.90817 0.0
C1112 C 0.29194 0.43407 0.88369 0.0
H1113 H 0.2936 0.28424 0.91771 0.0
H1114 H 0.29447 0.39548 0.93524 0.0
S1115 S 0.28597 0.41424 0.7893 0.0
N1116 N 0.28705 0.34072 0.80432 0.0
N1117 N 0.28781 0.46133 0.82324 0.0
C1118 C 0.28925 0.41758 0.84889 0.0
C1119 C 0.2889 0.35221 0.83861 0.0
loop_
_geom_bond_atom_site_label_1
_geom_bond_atom_site_label_2
_geom_bond_distance
_geom_bond_site_symmetry_2
_ccdc_geom_bond_type
In0 O1 2.294 . S
In0 O2 2.326 . S
In0 O6 2.266 . S
In0 O7 2.326 . S
In0 O8 2.266 . S
In0 O9 2.326 . S
In0 O11 2.294 . S
In0 O12 2.326 . S
O1 In0 2.294 . S
O1 C10 1.240 . S
O2 In0 2.326 . S
O2 C10 1.252 . S
C3 O6 1.252 . S
C3 O7 1.260 . S
C4 O11 1.240 . S
C4 O12 1.252 . S
C5 O8 1.252 . S
C5 O9 1.260 . S
O6 In0 2.266 . S
O6 C3 1.252 . S
O7 In0 2.326 . S
O7 C3 1.260 . S
O8 In0 2.266 . S
O8 C5 1.252 . S
O9 In0 2.326 . S
O9 C5 1.260 . S
C10 O1 1.240 . S
C10 O2 1.252 . S
O11 In0 2.294 . S
O11 C4 1.240 . S
O12 In0 2.326 . S
O12 C4 1.252 . S
In13 O14 2.294 . S
In13 O15 2.326 . S
In13 O19 2.266 . S
In13 O20 2.326 . S
In13 O21 2.266 . S
In13 O22 2.326 . S
In13 O24 2.294 . S
In13 O25 2.326 . S
O14 In13 2.294 . S
O14 C23 1.240 . S
O15 In13 2.326 . S
O15 C23 1.252 . S
C16 O19 1.252 . S
C16 O20 1.260 . S
C17 O24 1.240 . S
C17 O25 1.252 . S
C18 O21 1.252 . S
C18 O22 1.260 . S
O19 In13 2.266 . S
O19 C16 1.252 . S
O20 In13 2.326 . S
O20 C16 1.260 . S
O21 In13 2.266 . S
O21 C18 1.252 . S
O22 In13 2.326 . S
O22 C18 1.260 . S
C23 O14 1.240 . S
C23 O15 1.252 . S
O24 In13 2.294 . S
O24 C17 1.240 . S
O25 In13 2.326 . S
O25 C17 1.252 . S
In26 O27 2.294 . S
In26 O28 2.326 . S
In26 O32 2.266 . S
In26 O33 2.326 . S
In26 O34 2.266 . S
In26 O35 2.326 . S
In26 O37 2.294 . S
In26 O38 2.326 . S
O27 In26 2.294 . S
O27 C36 1.240 . S
O28 In26 2.326 . S
O28 C36 1.252 . S
C29 O32 1.252 . S
C29 O33 1.260 . S
C30 O37 1.240 . S
C30 O38 1.252 . S
C31 O34 1.252 . S
C31 O35 1.260 . S
O32 In26 2.266 . S
O32 C29 1.252 . S
O33 In26 2.326 . S
O33 C29 1.260 . S
O34 In26 2.266 . S
O34 C31 1.252 . S
O35 In26 2.326 . S
O35 C31 1.260 . S
C36 O27 1.240 . S
C36 O28 1.252 . S
O37 In26 2.294 . S
O37 C30 1.240 . S
O38 In26 2.326 . S
O38 C30 1.252 . S
In39 O40 2.294 . S
In39 O41 2.326 . S
In39 O45 2.266 . S
In39 O46 2.326 . S
In39 O47 2.266 . S
In39 O48 2.326 . S
In39 O50 2.294 . S
In39 O51 2.326 . S
O40 In39 2.294 . S
O40 C49 1.240 . S
O41 In39 2.326 . S
O41 C49 1.252 . S
C42 O45 1.252 . S
C42 O46 1.260 . S
C43 O50 1.240 . S
C43 O51 1.252 . S
C44 O47 1.252 . S
C44 O48 1.260 . S
O45 In39 2.266 . S
O45 C42 1.252 . S
O46 In39 2.326 . S
O46 C42 1.260 . S
O47 In39 2.266 . S
O47 C44 1.252 . S
O48 In39 2.326 . S
O48 C44 1.260 . S
C49 O40 1.240 . S
C49 O41 1.252 . S
O50 In39 2.294 . S
O50 C43 1.240 . S
O51 In39 2.326 . S
O51 C43 1.252 . S
In52 O53 2.294 . S
In52 O54 2.326 . S
In52 O58 2.266 . S
In52 O59 2.326 . S
In52 O60 2.266 . S
In52 O61 2.326 . S
In52 O63 2.294 . S
In52 O64 2.326 . S
O53 In52 2.294 . S
O53 C62 1.240 . S
O54 In52 2.326 . S
O54 C62 1.252 . S
C55 O58 1.252 . S
C55 O59 1.260 . S
C56 O63 1.240 . S
C56 O64 1.252 . S
C57 O60 1.252 . S
C57 O61 1.260 . S
O58 In52 2.266 . S
O58 C55 1.252 . S
O59 In52 2.326 . S
O59 C55 1.260 . S
O60 In52 2.266 . S
O60 C57 1.252 . S
O61 In52 2.326 . S
O61 C57 1.260 . S
C62 O53 1.240 . S
C62 O54 1.252 . S
O63 In52 2.294 . S
O63 C56 1.240 . S
O64 In52 2.326 . S
O64 C56 1.252 . S
In65 O66 2.294 . S
In65 O67 2.326 . S
In65 O71 2.266 . S
In65 O72 2.326 . S
In65 O73 2.266 . S
In65 O74 2.326 . S
In65 O76 2.294 . S
In65 O77 2.326 . S
O66 In65 2.294 . S
O66 C75 1.240 . S
O67 In65 2.326 . S
O67 C75 1.252 . S
C68 O71 1.252 . S
C68 O72 1.260 . S
C69 O76 1.240 . S
C69 O77 1.252 . S
C70 O73 1.252 . S
C70 O74 1.260 . S
O71 In65 2.266 . S
O71 C68 1.252 . S
O72 In65 2.326 . S
O72 C68 1.260 . S
O73 In65 2.266 . S
O73 C70 1.252 . S
O74 In65 2.326 . S
O74 C70 1.260 . S
C75 O66 1.240 . S
C75 O67 1.252 . S
O76 In65 2.294 . S
O76 C69 1.240 . S
O77 In65 2.326 . S
O77 C69 1.252 . S
In78 O79 2.294 . S
In78 O80 2.326 . S
In78 O84 2.266 . S
In78 O85 2.326 . S
In78 O86 2.266 . S
In78 O87 2.326 . S
In78 O89 2.294 . S
In78 O90 2.326 . S
O79 In78 2.294 . S
O79 C88 1.240 . S
O80 In78 2.326 . S
O80 C88 1.252 . S
C81 O84 1.252 . S
C81 O85 1.260 . S
C82 O89 1.240 . S
C82 O90 1.252 . S
C83 O86 1.252 . S
C83 O87 1.260 . S
O84 In78 2.266 . S
O84 C81 1.252 . S
O85 In78 2.326 . S
O85 C81 1.260 . S
O86 In78 2.266 . S
O86 C83 1.252 . S
O87 In78 2.326 . S
O87 C83 1.260 . S
C88 O79 1.240 . S
C88 O80 1.252 . S
O89 In78 2.294 . S
O89 C82 1.240 . S
O90 In78 2.326 . S
O90 C82 1.252 . S
In91 O92 2.294 . S
In91 O93 2.326 . S
In91 O97 2.266 . S
In91 O98 2.326 . S
In91 O99 2.266 . S
In91 O100 2.326 . S
In91 O102 2.294 . S
In91 O103 2.326 . S
O92 In91 2.294 . S
O92 C101 1.240 . S
O93 In91 2.326 . S
O93 C101 1.252 . S
C94 O97 1.252 . S
C94 O98 1.260 . S
C95 O102 1.240 . S
C95 O103 1.252 . S
C96 O99 1.252 . S
C96 O100 1.260 . S
O97 In91 2.266 . S
O97 C94 1.252 . S
O98 In91 2.326 . S
O98 C94 1.260 . S
O99 In91 2.266 . S
O99 C96 1.252 . S
O100 In91 2.326 . S
O100 C96 1.260 . S
C101 O92 1.240 . S
C101 O93 1.252 . S
O102 In91 2.294 . S
O102 C95 1.240 . S
O103 In91 2.326 . S
O103 C95 1.252 . S
In104 O105 2.294 . S
In104 O106 2.326 . S
In104 O110 2.266 . S
In104 O111 2.326 . S
In104 O112 2.266 . S
In104 O113 2.326 . S
In104 O115 2.294 . S
In104 O116 2.326 1_565 S
O105 In104 2.294 . S
O105 C114 1.240 . S
O106 In104 2.326 . S
O106 C114 1.252 . S
C107 O110 1.252 . S
C107 O111 1.260 . S
C108 O115 1.240 1_545 S
C108 O116 1.252 . S
C109 O112 1.252 . S
C109 O113 1.260 . S
O110 In104 2.266 . S
O110 C107 1.252 . S
O111 In104 2.326 . S
O111 C107 1.260 . S
O112 In104 2.266 . S
O112 C109 1.252 . S
O113 In104 2.326 . S
O113 C109 1.260 . S
C114 O105 1.240 . S
C114 O106 1.252 . S
O115 In104 2.294 . S
O115 C108 1.240 1_565 S
O116 In104 2.326 1_545 S
O116 C108 1.252 . S
In117 O118 2.294 . S
In117 O119 2.326 . S
In117 O123 2.266 . S
In117 O124 2.326 . S
In117 O125 2.266 . S
In117 O126 2.326 . S
In117 O128 2.294 . S
In117 O129 2.326 . S
O118 In117 2.294 . S
O118 C127 1.240 . S
O119 In117 2.326 . S
O119 C127 1.252 . S
C120 O123 1.252 . S
C120 O124 1.260 . S
C121 O128 1.240 . S
C121 O129 1.252 . S
C122 O125 1.252 . S
C122 O126 1.260 . S
O123 In117 2.266 . S
O123 C120 1.252 . S
O124 In117 2.326 . S
O124 C120 1.260 . S
O125 In117 2.266 . S
O125 C122 1.252 . S
O126 In117 2.326 . S
O126 C122 1.260 . S
C127 O118 1.240 . S
C127 O119 1.252 . S
O128 In117 2.294 . S
O128 C121 1.240 . S
O129 In117 2.326 . S
O129 C121 1.252 . S
In130 O131 2.294 . S
In130 O132 2.326 . S
In130 O136 2.266 . S
In130 O137 2.326 . S
In130 O138 2.266 . S
In130 O139 2.326 . S
In130 O141 2.294 . S
In130 O142 2.326 . S
O131 In130 2.294 . S
O131 C140 1.240 . S
O132 In130 2.326 . S
O132 C140 1.252 . S
C133 O136 1.252 . S
C133 O137 1.260 . S
C134 O141 1.240 . S
C134 O142 1.252 . S
C135 O138 1.252 . S
C135 O139 1.260 . S
O136 In130 2.266 . S
O136 C133 1.252 . S
O137 In130 2.326 . S
O137 C133 1.260 . S
O138 In130 2.266 . S
O138 C135 1.252 . S
O139 In130 2.326 . S
O139 C135 1.260 . S
C140 O131 1.240 . S
C140 O132 1.252 . S
O141 In130 2.294 . S
O141 C134 1.240 . S
O142 In130 2.326 . S
O142 C134 1.252 . S
In143 O144 2.294 . S
In143 O145 2.326 1_565 S
In143 O149 2.266 . S
In143 O150 2.326 . S
In143 O151 2.266 . S
In143 O152 2.326 . S
In143 O154 2.294 . S
In143 O155 2.326 . S
O144 In143 2.294 . S
O144 C153 1.240 1_565 S
O145 In143 2.326 1_545 S
O145 C153 1.252 . S
C146 O149 1.252 . S
C146 O150 1.260 . S
C147 O154 1.240 . S
C147 O155 1.252 . S
C148 O151 1.252 . S
C148 O152 1.260 . S
O149 In143 2.266 . S
O149 C146 1.252 . S
O150 In143 2.326 . S
O150 C146 1.260 . S
O151 In143 2.266 . S
O151 C148 1.252 . S
O152 In143 2.326 . S
O152 C148 1.260 . S
C153 O144 1.240 1_545 S
C153 O145 1.252 . S
O154 In143 2.294 . S
O154 C147 1.240 . S
O155 In143 2.326 . S
O155 C147 1.252 . S
In156 O157 2.294 . S
In156 O158 2.326 . S
In156 O162 2.266 . S
In156 O163 2.326 . S
In156 O164 2.266 . S
In156 O165 2.326 . S
In156 O167 2.294 . S
In156 O168 2.326 1_545 S
O157 In156 2.294 . S
O157 C166 1.240 . S
O158 In156 2.326 . S
O158 C166 1.252 . S
C159 O162 1.252 . S
C159 O163 1.260 . S
C160 O167 1.240 1_565 S
C160 O168 1.252 . S
C161 O164 1.252 . S
C161 O165 1.260 . S
O162 In156 2.266 . S
O162 C159 1.252 . S
O163 In156 2.326 . S
O163 C159 1.260 . S
O164 In156 2.266 . S
O164 C161 1.252 . S
O165 In156 2.326 . S
O165 C161 1.260 . S
C166 O157 1.240 . S
C166 O158 1.252 . S
O167 In156 2.294 . S
O167 C160 1.240 1_545 S
O168 In156 2.326 1_565 S
O168 C160 1.252 . S
In169 O170 2.294 . S
In169 O171 2.326 . S
In169 O175 2.266 . S
In169 O176 2.326 . S
In169 O177 2.266 . S
In169 O178 2.326 . S
In169 O180 2.294 . S
In169 O181 2.326 . S
O170 In169 2.294 . S
O170 C179 1.240 . S
O171 In169 2.326 . S
O171 C179 1.252 . S
C172 O175 1.252 . S
C172 O176 1.260 . S
C173 O180 1.240 . S
C173 O181 1.252 . S
C174 O177 1.252 . S
C174 O178 1.260 . S
O175 In169 2.266 . S
O175 C172 1.252 . S
O176 In169 2.326 . S
O176 C172 1.260 . S
O177 In169 2.266 . S
O177 C174 1.252 . S
O178 In169 2.326 . S
O178 C174 1.260 . S
C179 O170 1.240 . S
C179 O171 1.252 . S
O180 In169 2.294 . S
O180 C173 1.240 . S
O181 In169 2.326 . S
O181 C173 1.252 . S
In182 O183 2.294 . S
In182 O184 2.326 . S
In182 O188 2.266 . S
In182 O189 2.326 . S
In182 O190 2.266 . S
In182 O191 2.326 . S
In182 O193 2.294 . S
In182 O194 2.326 . S
O183 In182 2.294 . S
O183 C192 1.240 . S
O184 In182 2.326 . S
O184 C192 1.252 . S
C185 O188 1.252 . S
C185 O189 1.260 . S
C186 O193 1.240 . S
C186 O194 1.252 . S
C187 O190 1.252 . S
C187 O191 1.260 . S
O188 In182 2.266 . S
O188 C185 1.252 . S
O189 In182 2.326 . S
O189 C185 1.260 . S
O190 In182 2.266 . S
O190 C187 1.252 . S
O191 In182 2.326 . S
O191 C187 1.260 . S
C192 O183 1.240 . S
C192 O184 1.252 . S
O193 In182 2.294 . S
O193 C186 1.240 . S
O194 In182 2.326 . S
O194 C186 1.252 . S
In195 O196 2.294 . S
In195 O197 2.326 . S
In195 O201 2.266 . S
In195 O202 2.326 . S
In195 O203 2.266 . S
In195 O204 2.326 . S
In195 O206 2.294 . S
In195 O207 2.326 1_545 S
O196 In195 2.294 . S
O196 C205 1.240 . S
O197 In195 2.326 . S
O197 C205 1.252 . S
C198 O201 1.252 . S
C198 O202 1.260 . S
C199 O206 1.240 1_565 S
C199 O207 1.252 . S
C200 O203 1.252 . S
C200 O204 1.260 . S
O201 In195 2.266 . S
O201 C198 1.252 . S
O202 In195 2.326 . S
O202 C198 1.260 . S
O203 In195 2.266 . S
O203 C200 1.252 . S
O204 In195 2.326 . S
O204 C200 1.260 . S
C205 O196 1.240 . S
C205 O197 1.252 . S
O206 In195 2.294 . S
O206 C199 1.240 1_545 S
O207 In195 2.326 1_565 S
O207 C199 1.252 . S
In208 O209 2.294 . S
In208 O210 2.326 . S
In208 O214 2.266 . S
In208 O215 2.326 . S
In208 O216 2.266 . S
In208 O217 2.326 . S
In208 O219 2.294 . S
In208 O220 2.326 . S
O209 In208 2.294 . S
O209 C218 1.240 . S
O210 In208 2.326 . S
O210 C218 1.252 . S
C211 O214 1.252 . S
C211 O215 1.260 . S
C212 O219 1.240 . S
C212 O220 1.252 . S
C213 O216 1.252 . S
C213 O217 1.260 . S
O214 In208 2.266 . S
O214 C211 1.252 . S
O215 In208 2.326 . S
O215 C211 1.260 . S
O216 In208 2.266 . S
O216 C213 1.252 . S
O217 In208 2.326 . S
O217 C213 1.260 . S
C218 O209 1.240 . S
C218 O210 1.252 . S
O219 In208 2.294 . S
O219 C212 1.240 . S
O220 In208 2.326 . S
O220 C212 1.252 . S
In221 O222 2.294 . S
In221 O223 2.326 . S
In221 O227 2.266 . S
In221 O228 2.326 . S
In221 O229 2.266 . S
In221 O230 2.326 . S
In221 O232 2.294 . S
In221 O233 2.326 . S
O222 In221 2.294 . S
O222 C231 1.240 . S
O223 In221 2.326 . S
O223 C231 1.252 . S
C224 O227 1.252 . S
C224 O228 1.260 . S
C225 O232 1.240 . S
C225 O233 1.252 . S
C226 O229 1.252 . S
C226 O230 1.260 . S
O227 In221 2.266 . S
O227 C224 1.252 . S
O228 In221 2.326 . S
O228 C224 1.260 . S
O229 In221 2.266 . S
O229 C226 1.252 . S
O230 In221 2.326 . S
O230 C226 1.260 . S
C231 O222 1.240 . S
C231 O223 1.252 . S
O232 In221 2.294 . S
O232 C225 1.240 . S
O233 In221 2.326 . S
O233 C225 1.252 . S
In234 O235 2.294 . S
In234 O236 2.326 . S
In234 O240 2.266 . S
In234 O241 2.326 . S
In234 O242 2.266 . S
In234 O243 2.326 . S
In234 O245 2.294 . S
In234 O246 2.326 . S
O235 In234 2.294 . S
O235 C244 1.240 . S
O236 In234 2.326 . S
O236 C244 1.252 . S
C237 O240 1.252 . S
C237 O241 1.260 . S
C238 O245 1.240 . S
C238 O246 1.252 . S
C239 O242 1.252 . S
C239 O243 1.260 . S
O240 In234 2.266 . S
O240 C237 1.252 . S
O241 In234 2.326 . S
O241 C237 1.260 . S
O242 In234 2.266 . S
O242 C239 1.252 . S
O243 In234 2.326 . S
O243 C239 1.260 . S
C244 O235 1.240 . S
C244 O236 1.252 . S
O245 In234 2.294 . S
O245 C238 1.240 . S
O246 In234 2.326 . S
O246 C238 1.252 . S
In247 O248 2.294 . S
In247 O249 2.326 . S
In247 O253 2.266 . S
In247 O254 2.326 . S
In247 O255 2.266 . S
In247 O256 2.326 . S
In247 O258 2.294 . S
In247 O259 2.326 . S
O248 In247 2.294 . S
O248 C257 1.240 . S
O249 In247 2.326 . S
O249 C257 1.252 . S
C250 O253 1.252 . S
C250 O254 1.260 . S
C251 O258 1.240 . S
C251 O259 1.252 . S
C252 O255 1.252 . S
C252 O256 1.260 . S
O253 In247 2.266 . S
O253 C250 1.252 . S
O254 In247 2.326 . S
O254 C250 1.260 . S
O255 In247 2.266 . S
O255 C252 1.252 . S
O256 In247 2.326 . S
O256 C252 1.260 . S
C257 O248 1.240 . S
C257 O249 1.252 . S
O258 In247 2.294 . S
O258 C251 1.240 . S
O259 In247 2.326 . S
O259 C251 1.252 . S
In260 O261 2.294 . S
In260 O262 2.326 . S
In260 O266 2.266 . S
In260 O267 2.326 . S
In260 O268 2.266 . S
In260 O269 2.326 . S
In260 O271 2.294 . S
In260 O272 2.326 . S
O261 In260 2.294 . S
O261 C270 1.240 . S
O262 In260 2.326 . S
O262 C270 1.252 . S
C263 O266 1.252 . S
C263 O267 1.260 . S
C264 O271 1.240 . S
C264 O272 1.252 . S
C265 O268 1.252 . S
C265 O269 1.260 . S
O266 In260 2.266 . S
O266 C263 1.252 . S
O267 In260 2.326 . S
O267 C263 1.260 . S
O268 In260 2.266 . S
O268 C265 1.252 . S
O269 In260 2.326 . S
O269 C265 1.260 . S
C270 O261 1.240 . S
C270 O262 1.252 . S
O271 In260 2.294 . S
O271 C264 1.240 . S
O272 In260 2.326 . S
O272 C264 1.252 . S
In273 O274 2.294 . S
In273 O275 2.326 . S
In273 O279 2.266 . S
In273 O280 2.326 . S
In273 O281 2.266 . S
In273 O282 2.326 . S
In273 O284 2.294 . S
In273 O285 2.326 . S
O274 In273 2.294 . S
O274 C283 1.240 . S
O275 In273 2.326 . S
O275 C283 1.252 . S
C276 O279 1.252 . S
C276 O280 1.260 . S
C277 O284 1.240 . S
C277 O285 1.252 . S
C278 O281 1.252 . S
C278 O282 1.260 . S
O279 In273 2.266 . S
O279 C276 1.252 . S
O280 In273 2.326 . S
O280 C276 1.260 . S
O281 In273 2.266 . S
O281 C278 1.252 . S
O282 In273 2.326 . S
O282 C278 1.260 . S
C283 O274 1.240 . S
C283 O275 1.252 . S
O284 In273 2.294 . S
O284 C277 1.240 . S
O285 In273 2.326 . S
O285 C277 1.252 . S
In286 O287 2.294 . S
In286 O288 2.326 . S
In286 O292 2.266 . S
In286 O293 2.326 . S
In286 O294 2.266 . S
In286 O295 2.326 . S
In286 O297 2.294 . S
In286 O298 2.326 . S
O287 In286 2.294 . S
O287 C296 1.240 . S
O288 In286 2.326 . S
O288 C296 1.252 . S
C289 O292 1.252 . S
C289 O293 1.260 . S
C290 O297 1.240 . S
C290 O298 1.252 . S
C291 O294 1.252 . S
C291 O295 1.260 . S
O292 In286 2.266 . S
O292 C289 1.252 . S
O293 In286 2.326 . S
O293 C289 1.260 . S
O294 In286 2.266 . S
O294 C291 1.252 . S
O295 In286 2.326 . S
O295 C291 1.260 . S
C296 O287 1.240 . S
C296 O288 1.252 . S
O297 In286 2.294 . S
O297 C290 1.240 . S
O298 In286 2.326 . S
O298 C290 1.252 . S
In299 O300 2.294 . S
In299 O301 2.326 . S
In299 O305 2.266 . S
In299 O306 2.326 . S
In299 O307 2.266 . S
In299 O308 2.326 . S
In299 O310 2.294 . S
In299 O311 2.326 . S
O300 In299 2.294 . S
O300 C309 1.240 . S
O301 In299 2.326 . S
O301 C309 1.252 . S
C302 O305 1.252 . S
C302 O306 1.260 . S
C303 O310 1.240 . S
C303 O311 1.252 . S
C304 O307 1.252 . S
C304 O308 1.260 . S
O305 In299 2.266 . S
O305 C302 1.252 . S
O306 In299 2.326 . S
O306 C302 1.260 . S
O307 In299 2.266 . S
O307 C304 1.252 . S
O308 In299 2.326 . S
O308 C304 1.260 . S
C309 O300 1.240 . S
C309 O301 1.252 . S
O310 In299 2.294 . S
O310 C303 1.240 . S
O311 In299 2.326 . S
O311 C303 1.252 . S
In312 O313 2.294 . S
In312 O314 2.326 1_565 S
In312 O318 2.266 . S
In312 O319 2.326 . S
In312 O320 2.266 . S
In312 O321 2.326 . S
In312 O323 2.294 . S
In312 O324 2.326 . S
O313 In312 2.294 . S
O313 C322 1.240 1_565 S
O314 In312 2.326 1_545 S
O314 C322 1.252 . S
C315 O318 1.252 . S
C315 O319 1.260 . S
C316 O323 1.240 . S
C316 O324 1.252 . S
C317 O320 1.252 . S
C317 O321 1.260 . S
O318 In312 2.266 . S
O318 C315 1.252 . S
O319 In312 2.326 . S
O319 C315 1.260 . S
O320 In312 2.266 . S
O320 C317 1.252 . S
O321 In312 2.326 . S
O321 C317 1.260 . S
C322 O313 1.240 1_545 S
C322 O314 1.252 . S
O323 In312 2.294 . S
O323 C316 1.240 . S
O324 In312 2.326 . S
O324 C316 1.252 . S
In325 O326 2.294 . S
In325 O327 2.326 . S
In325 O331 2.266 . S
In325 O332 2.326 . S
In325 O333 2.266 . S
In325 O334 2.326 . S
In325 O336 2.294 . S
In325 O337 2.326 . S
O326 In325 2.294 . S
O326 C335 1.240 . S
O327 In325 2.326 . S
O327 C335 1.252 . S
C328 O331 1.252 . S
C328 O332 1.260 . S
C329 O336 1.240 . S
C329 O337 1.252 . S
C330 O333 1.252 . S
C330 O334 1.260 . S
O331 In325 2.266 . S
O331 C328 1.252 . S
O332 In325 2.326 . S
O332 C328 1.260 . S
O333 In325 2.266 . S
O333 C330 1.252 . S
O334 In325 2.326 . S
O334 C330 1.260 . S
C335 O326 1.240 . S
C335 O327 1.252 . S
O336 In325 2.294 . S
O336 C329 1.240 . S
O337 In325 2.326 . S
O337 C329 1.252 . S
In338 O339 2.294 . S
In338 O340 2.326 . S
In338 O344 2.266 . S
In338 O345 2.326 . S
In338 O346 2.266 . S
In338 O347 2.326 . S
In338 O349 2.294 . S
In338 O350 2.326 . S
O339 In338 2.294 . S
O339 C348 1.240 . S
O340 In338 2.326 . S
O340 C348 1.252 . S
C341 O344 1.252 . S
C341 O345 1.260 . S
C342 O349 1.240 . S
C342 O350 1.252 . S
C343 O346 1.252 . S
C343 O347 1.260 . S
O344 In338 2.266 . S
O344 C341 1.252 . S
O345 In338 2.326 . S
O345 C341 1.260 . S
O346 In338 2.266 . S
O346 C343 1.252 . S
O347 In338 2.326 . S
O347 C343 1.260 . S
C348 O339 1.240 . S
C348 O340 1.252 . S
O349 In338 2.294 . S
O349 C342 1.240 . S
O350 In338 2.326 . S
O350 C342 1.252 . S
In351 O352 2.294 . S
In351 O353 2.326 1_565 S
In351 O357 2.266 . S
In351 O358 2.326 . S
In351 O359 2.266 . S
In351 O360 2.326 . S
In351 O362 2.294 . S
In351 O363 2.326 . S
O352 In351 2.294 . S
O352 C361 1.240 1_565 S
O353 In351 2.326 1_545 S
O353 C361 1.252 . S
C354 O357 1.252 . S
C354 O358 1.260 . S
C355 O362 1.240 . S
C355 O363 1.252 . S
C356 O359 1.252 . S
C356 O360 1.260 . S
O357 In351 2.266 . S
O357 C354 1.252 . S
O358 In351 2.326 . S
O358 C354 1.260 . S
O359 In351 2.266 . S
O359 C356 1.252 . S
O360 In351 2.326 . S
O360 C356 1.260 . S
C361 O352 1.240 1_545 S
C361 O353 1.252 . S
O362 In351 2.294 . S
O362 C355 1.240 . S
O363 In351 2.326 . S
O363 C355 1.252 . S
In364 O365 2.294 . S
In364 O366 2.326 . S
In364 O370 2.266 . S
In364 O371 2.326 . S
In364 O372 2.266 . S
In364 O373 2.326 . S
In364 O375 2.294 . S
In364 O376 2.326 1_545 S
O365 In364 2.294 . S
O365 C374 1.240 . S
O366 In364 2.326 . S
O366 C374 1.252 . S
C367 O370 1.252 . S
C367 O371 1.260 . S
C368 O375 1.240 1_565 S
C368 O376 1.252 . S
C369 O372 1.252 . S
C369 O373 1.260 . S
O370 In364 2.266 . S
O370 C367 1.252 . S
O371 In364 2.326 . S
O371 C367 1.260 . S
O372 In364 2.266 . S
O372 C369 1.252 . S
O373 In364 2.326 . S
O373 C369 1.260 . S
C374 O365 1.240 . S
C374 O366 1.252 . S
O375 In364 2.294 . S
O375 C368 1.240 1_545 S
O376 In364 2.326 1_565 S
O376 C368 1.252 . S
In377 O378 2.294 . S
In377 O379 2.326 . S
In377 O383 2.266 . S
In377 O384 2.326 . S
In377 O385 2.266 . S
In377 O386 2.326 . S
In377 O388 2.294 . S
In377 O389 2.326 . S
O378 In377 2.294 . S
O378 C387 1.240 . S
O379 In377 2.326 . S
O379 C387 1.252 . S
C380 O383 1.252 . S
C380 O384 1.260 . S
C381 O388 1.240 . S
C381 O389 1.252 . S
C382 O385 1.252 . S
C382 O386 1.260 . S
O383 In377 2.266 . S
O383 C380 1.252 . S
O384 In377 2.326 . S
O384 C380 1.260 . S
O385 In377 2.266 . S
O385 C382 1.252 . S
O386 In377 2.326 . S
O386 C382 1.260 . S
C387 O378 1.240 . S
C387 O379 1.252 . S
O388 In377 2.294 . S
O388 C381 1.240 . S
O389 In377 2.326 . S
O389 C381 1.252 . S
In390 O391 2.294 . S
In390 O392 2.326 . S
In390 O396 2.266 . S
In390 O397 2.326 . S
In390 O398 2.266 . S
In390 O399 2.326 . S
In390 O401 2.294 . S
In390 O402 2.326 . S
O391 In390 2.294 . S
O391 C400 1.240 . S
O392 In390 2.326 . S
O392 C400 1.252 . S
C393 O396 1.252 . S
C393 O397 1.260 . S
C394 O401 1.240 . S
C394 O402 1.252 . S
C395 O398 1.252 . S
C395 O399 1.260 . S
O396 In390 2.266 . S
O396 C393 1.252 . S
O397 In390 2.326 . S
O397 C393 1.260 . S
O398 In390 2.266 . S
O398 C395 1.252 . S
O399 In390 2.326 . S
O399 C395 1.260 . S
C400 O391 1.240 . S
C400 O392 1.252 . S
O401 In390 2.294 . S
O401 C394 1.240 . S
O402 In390 2.326 . S
O402 C394 1.252 . S
In403 O404 2.294 . S
In403 O405 2.326 . S
In403 O409 2.266 . S
In403 O410 2.326 . S
In403 O411 2.266 . S
In403 O412 2.326 . S
In403 O414 2.294 . S
In403 O415 2.326 1_545 S
O404 In403 2.294 . S
O404 C413 1.240 . S
O405 In403 2.326 . S
O405 C413 1.252 . S
C406 O409 1.252 . S
C406 O410 1.260 . S
C407 O414 1.240 1_565 S
C407 O415 1.252 . S
C408 O411 1.252 . S
C408 O412 1.260 . S
O409 In403 2.266 . S
O409 C406 1.252 . S
O410 In403 2.326 . S
O410 C406 1.260 . S
O411 In403 2.266 . S
O411 C408 1.252 . S
O412 In403 2.326 . S
O412 C408 1.260 . S
C413 O404 1.240 . S
C413 O405 1.252 . S
O414 In403 2.294 . S
O414 C407 1.240 1_545 S
O415 In403 2.326 1_565 S
O415 C407 1.252 . S
C416 C417 1.369 . S
C416 C418 1.419 . S
C416 H420 0.930 . S
C417 C416 1.369 . S
C417 C426 1.429 . S
C418 C416 1.419 . S
C418 C419 1.363 . S
C418 H421 0.929 . S
C419 C418 1.363 . S
C419 C425 1.428 . S
H420 C416 0.930 . S
H421 C418 0.929 . S
S422 N423 1.613 . S
S422 N424 1.610 . S
N423 S422 1.613 . S
N423 C426 1.350 . S
N424 S422 1.610 . S
N424 C425 1.351 . S
C425 C419 1.428 . S
C425 N424 1.351 . S
C425 C426 1.434 . S
C426 C417 1.429 . S
C426 N423 1.350 . S
C426 C425 1.434 . S
C427 C428 1.369 . S
C427 C429 1.419 . S
C427 H431 0.930 . S
C428 C427 1.369 . S
C428 C437 1.429 . S
C429 C427 1.419 . S
C429 C430 1.363 . S
C429 H432 0.929 . S
C430 C429 1.363 . S
C430 C436 1.428 . S
H431 C427 0.930 . S
H432 C429 0.929 . S
S433 N434 1.613 . S
S433 N435 1.610 . S
N434 S433 1.613 . S
N434 C437 1.350 . S
N435 S433 1.610 . S
N435 C436 1.351 . S
C436 C430 1.428 . S
C436 N435 1.351 . S
C436 C437 1.434 . S
C437 C428 1.429 . S
C437 N434 1.350 . S
C437 C436 1.434 . S
C438 C439 1.369 . S
C438 C440 1.419 . S
C438 H442 0.930 . S
C439 C438 1.369 . S
C439 C448 1.429 . S
C440 C438 1.419 . S
C440 C441 1.363 . S
C440 H443 0.929 . S
C441 C440 1.363 . S
C441 C447 1.428 . S
H442 C438 0.930 . S
H443 C440 0.929 . S
S444 N445 1.613 . S
S444 N446 1.610 . S
N445 S444 1.613 . S
N445 C448 1.350 . S
N446 S444 1.610 . S
N446 C447 1.351 . S
C447 C441 1.428 . S
C447 N446 1.351 . S
C447 C448 1.434 . S
C448 C439 1.429 . S
C448 N445 1.350 . S
C448 C447 1.434 . S
C449 C450 1.369 . S
C449 C451 1.419 . S
C449 H453 0.930 . S
C450 C449 1.369 . S
C450 C459 1.429 . S
C451 C449 1.419 . S
C451 C452 1.363 . S
C451 H454 0.929 . S
C452 C451 1.363 . S
C452 C458 1.428 . S
H453 C449 0.930 . S
H454 C451 0.929 . S
S455 N456 1.613 . S
S455 N457 1.610 . S
N456 S455 1.613 . S
N456 C459 1.350 . S
N457 S455 1.610 . S
N457 C458 1.351 . S
C458 C452 1.428 . S
C458 N457 1.351 . S
C458 C459 1.434 . S
C459 C450 1.429 . S
C459 N456 1.350 . S
C459 C458 1.434 . S
C460 C461 1.369 . S
C460 C462 1.419 . S
C460 H464 0.930 . S
C461 C460 1.369 . S
C461 C470 1.429 . S
C462 C460 1.419 . S
C462 C463 1.363 . S
C462 H465 0.929 . S
C463 C462 1.363 . S
C463 C469 1.428 . S
H464 C460 0.930 . S
H465 C462 0.929 . S
S466 N467 1.613 . S
S466 N468 1.610 . S
N467 S466 1.613 . S
N467 C470 1.350 . S
N468 S466 1.610 . S
N468 C469 1.351 . S
C469 C463 1.428 . S
C469 N468 1.351 . S
C469 C470 1.434 . S
C470 C461 1.429 . S
C470 N467 1.350 . S
C470 C469 1.434 . S
C471 C472 1.369 . S
C471 C473 1.419 . S
C471 H475 0.930 . S
C472 C471 1.369 . S
C472 C481 1.429 . S
C473 C471 1.419 . S
C473 C474 1.363 . S
C473 H476 0.929 . S
C474 C473 1.363 . S
C474 C480 1.428 . S
H475 C471 0.930 . S
H476 C473 0.929 . S
S477 N478 1.613 . S
S477 N479 1.610 . S
N478 S477 1.613 . S
N478 C481 1.350 . S
N479 S477 1.610 . S
N479 C480 1.351 . S
C480 C474 1.428 . S
C480 N479 1.351 . S
C480 C481 1.434 . S
C481 C472 1.429 . S
C481 N478 1.350 . S
C481 C480 1.434 . S
C482 C483 1.369 . S
C482 C484 1.419 . S
C482 H486 0.930 . S
C483 C482 1.369 . S
C483 C492 1.429 . S
C484 C482 1.419 . S
C484 C485 1.363 . S
C484 H487 0.929 . S
C485 C484 1.363 . S
C485 C491 1.428 . S
H486 C482 0.930 . S
H487 C484 0.929 . S
S488 N489 1.613 . S
S488 N490 1.610 . S
N489 S488 1.613 . S
N489 C492 1.350 . S
N490 S488 1.610 . S
N490 C491 1.351 . S
C491 C485 1.428 . S
C491 N490 1.351 . S
C491 C492 1.434 . S
C492 C483 1.429 . S
C492 N489 1.350 . S
C492 C491 1.434 . S
C493 C494 1.369 . S
C493 C495 1.419 . S
C493 H497 0.930 . S
C494 C493 1.369 . S
C494 C503 1.429 . S
C495 C493 1.419 . S
C495 C496 1.363 . S
C495 H498 0.929 . S
C496 C495 1.363 . S
C496 C502 1.428 . S
H497 C493 0.930 . S
H498 C495 0.929 . S
S499 N500 1.613 . S
S499 N501 1.610 . S
N500 S499 1.613 . S
N500 C503 1.350 . S
N501 S499 1.610 . S
N501 C502 1.351 . S
C502 C496 1.428 . S
C502 N501 1.351 . S
C502 C503 1.434 . S
C503 C494 1.429 . S
C503 N500 1.350 . S
C503 C502 1.434 . S
C504 C505 1.369 . S
C504 C506 1.419 . S
C504 H508 0.930 . S
C505 C504 1.369 . S
C505 C514 1.429 . S
C506 C504 1.419 . S
C506 C507 1.363 . S
C506 H509 0.929 . S
C507 C506 1.363 . S
C507 C513 1.428 . S
H508 C504 0.930 . S
H509 C506 0.929 . S
S510 N511 1.613 . S
S510 N512 1.610 . S
N511 S510 1.613 . S
N511 C514 1.350 . S
N512 S510 1.610 . S
N512 C513 1.351 . S
C513 C507 1.428 . S
C513 N512 1.351 . S
C513 C514 1.434 . S
C514 C505 1.429 . S
C514 N511 1.350 . S
C514 C513 1.434 . S
C515 C516 1.369 . S
C515 C517 1.419 . S
C515 H519 0.930 . S
C516 C515 1.369 . S
C516 C525 1.429 . S
C517 C515 1.419 . S
C517 C518 1.363 . S
C517 H520 0.929 . S
C518 C517 1.363 . S
C518 C524 1.428 . S
H519 C515 0.930 . S
H520 C517 0.929 . S
S521 N522 1.613 . S
S521 N523 1.610 . S
N522 S521 1.613 . S
N522 C525 1.350 . S
N523 S521 1.610 . S
N523 C524 1.351 . S
C524 C518 1.428 . S
C524 N523 1.351 . S
C524 C525 1.434 . S
C525 C516 1.429 . S
C525 N522 1.350 . S
C525 C524 1.434 . S
C526 C527 1.369 . S
C526 C528 1.419 . S
C526 H530 0.930 . S
C527 C526 1.369 . S
C527 C536 1.429 . S
C528 C526 1.419 . S
C528 C529 1.363 . S
C528 H531 0.929 . S
C529 C528 1.363 . S
C529 C535 1.428 . S
H530 C526 0.930 . S
H531 C528 0.929 . S
S532 N533 1.613 . S
S532 N534 1.610 . S
N533 S532 1.613 . S
N533 C536 1.350 . S
N534 S532 1.610 . S
N534 C535 1.351 . S
C535 C529 1.428 . S
C535 N534 1.351 . S
C535 C536 1.434 . S
C536 C527 1.429 . S
C536 N533 1.350 . S
C536 C535 1.434 . S
C537 C538 1.369 . S
C537 C539 1.419 . S
C537 H541 0.930 . S
C538 C537 1.369 . S
C538 C547 1.429 . S
C539 C537 1.419 . S
C539 C540 1.363 . S
C539 H542 0.929 . S
C540 C539 1.363 . S
C540 C546 1.428 . S
H541 C537 0.930 . S
H542 C539 0.929 . S
S543 N544 1.613 . S
S543 N545 1.610 . S
N544 S543 1.613 . S
N544 C547 1.350 . S
N545 S543 1.610 . S
N545 C546 1.351 . S
C546 C540 1.428 . S
C546 N545 1.351 . S
C546 C547 1.434 . S
C547 C538 1.429 . S
C547 N544 1.350 . S
C547 C546 1.434 . S
C548 C549 1.369 . S
C548 C550 1.419 . S
C548 H552 0.930 . S
C549 C548 1.369 . S
C549 C558 1.429 . S
C550 C548 1.419 . S
C550 C551 1.363 . S
C550 H553 0.929 . S
C551 C550 1.363 . S
C551 C557 1.428 . S
H552 C548 0.930 . S
H553 C550 0.929 . S
S554 N555 1.613 . S
S554 N556 1.610 . S
N555 S554 1.613 . S
N555 C558 1.350 . S
N556 S554 1.610 . S
N556 C557 1.351 . S
C557 C551 1.428 . S
C557 N556 1.351 . S
C557 C558 1.434 . S
C558 C549 1.429 . S
C558 N555 1.350 . S
C558 C557 1.434 . S
C559 C560 1.369 . S
C559 C561 1.419 . S
C559 H563 0.930 . S
C560 C559 1.369 . S
C560 C569 1.429 . S
C561 C559 1.419 . S
C561 C562 1.363 . S
C561 H564 0.929 . S
C562 C561 1.363 . S
C562 C568 1.428 . S
H563 C559 0.930 . S
H564 C561 0.929 . S
S565 N566 1.613 . S
S565 N567 1.610 . S
N566 S565 1.613 . S
N566 C569 1.350 . S
N567 S565 1.610 . S
N567 C568 1.351 . S
C568 C562 1.428 . S
C568 N567 1.351 . S
C568 C569 1.434 . S
C569 C560 1.429 . S
C569 N566 1.350 . S
C569 C568 1.434 . S
C570 C571 1.369 . S
C570 C572 1.419 . S
C570 H574 0.930 . S
C571 C570 1.369 . S
C571 C580 1.429 . S
C572 C570 1.419 . S
C572 C573 1.363 . S
C572 H575 0.929 . S
C573 C572 1.363 . S
C573 C579 1.428 . S
H574 C570 0.930 . S
H575 C572 0.929 . S
S576 N577 1.613 . S
S576 N578 1.610 . S
N577 S576 1.613 . S
N577 C580 1.350 . S
N578 S576 1.610 . S
N578 C579 1.351 . S
C579 C573 1.428 . S
C579 N578 1.351 . S
C579 C580 1.434 . S
C580 C571 1.429 . S
C580 N577 1.350 . S
C580 C579 1.434 . S
C581 C582 1.369 . S
C581 C583 1.419 . S
C581 H585 0.930 . S
C582 C581 1.369 . S
C582 C591 1.429 . S
C583 C581 1.419 . S
C583 C584 1.363 . S
C583 H586 0.929 . S
C584 C583 1.363 . S
C584 C590 1.428 . S
H585 C581 0.930 . S
H586 C583 0.929 . S
S587 N588 1.613 . S
S587 N589 1.610 . S
N588 S587 1.613 . S
N588 C591 1.350 . S
N589 S587 1.610 . S
N589 C590 1.351 . S
C590 C584 1.428 . S
C590 N589 1.351 . S
C590 C591 1.434 . S
C591 C582 1.429 . S
C591 N588 1.350 . S
C591 C590 1.434 . S
C592 C593 1.369 1_554 S
C592 C594 1.419 . S
C592 H596 0.930 . S
C593 C592 1.369 1_556 S
C593 C602 1.429 1_655 S
C594 C592 1.419 . S
C594 C595 1.363 1_655 S
C594 H597 0.929 . S
C595 C594 1.363 1_455 S
C595 C601 1.428 1_554 S
H596 C592 0.930 . S
H597 C594 0.929 . S
S598 N599 1.613 . S
S598 N600 1.610 . S
N599 S598 1.613 . S
N599 C602 1.350 . S
N600 S598 1.610 . S
N600 C601 1.351 . S
C601 C595 1.428 1_556 S
C601 N600 1.351 . S
C601 C602 1.434 . S
C602 C593 1.429 1_455 S
C602 N599 1.350 . S
C602 C601 1.434 . S
C603 C604 1.369 . S
C603 C605 1.419 1_556 S
C603 H607 0.930 . S
C604 C603 1.369 . S
C604 C613 1.429 . S
C605 C603 1.419 1_554 S
C605 C606 1.363 . S
C605 H608 0.929 . S
C606 C605 1.363 . S
C606 C612 1.428 . S
H607 C603 0.930 . S
H608 C605 0.929 . S
S609 N610 1.613 . S
S609 N611 1.610 1_556 S
N610 S609 1.613 . S
N610 C613 1.350 . S
N611 S609 1.610 1_554 S
N611 C612 1.351 . S
C612 C606 1.428 . S
C612 N611 1.351 . S
C612 C613 1.434 1_554 S
C613 C604 1.429 . S
C613 N610 1.350 . S
C613 C612 1.434 1_556 S
C614 C615 1.369 . S
C614 C616 1.419 . S
C614 H618 0.930 . S
C615 C614 1.369 . S
C615 C624 1.429 1_455 S
C616 C614 1.419 . S
C616 C617 1.363 1_455 S
C616 H619 0.929 . S
C617 C616 1.363 1_655 S
C617 C623 1.428 . S
H618 C614 0.930 . S
H619 C616 0.929 . S
S620 N621 1.613 . S
S620 N622 1.610 . S
N621 S620 1.613 . S
N621 C624 1.350 . S
N622 S620 1.610 . S
N622 C623 1.351 . S
C623 C617 1.428 . S
C623 N622 1.351 . S
C623 C624 1.434 . S
C624 C615 1.429 1_655 S
C624 N621 1.350 . S
C624 C623 1.434 . S
C625 C626 1.369 . S
C625 C627 1.419 . S
C625 H629 0.930 . S
C626 C625 1.369 . S
C626 C635 1.429 . S
C627 C625 1.419 . S
C627 C628 1.363 . S
C627 H630 0.929 . S
C628 C627 1.363 . S
C628 C634 1.428 . S
H629 C625 0.930 . S
H630 C627 0.929 . S
S631 N632 1.613 . S
S631 N633 1.610 . S
N632 S631 1.613 . S
N632 C635 1.350 . S
N633 S631 1.610 . S
N633 C634 1.351 . S
C634 C628 1.428 . S
C634 N633 1.351 . S
C634 C635 1.434 . S
C635 C626 1.429 . S
C635 N632 1.350 . S
C635 C634 1.434 . S
C636 C637 1.369 . S
C636 C638 1.419 1_556 S
C636 H640 0.930 . S
C637 C636 1.369 . S
C637 C646 1.429 . S
C638 C636 1.419 1_554 S
C638 C639 1.363 . S
C638 H641 0.929 . S
C639 C638 1.363 . S
C639 C645 1.428 . S
H640 C636 0.930 . S
H641 C638 0.929 . S
S642 N643 1.613 . S
S642 N644 1.610 . S
N643 S642 1.613 . S
N643 C646 1.350 . S
N644 S642 1.610 . S
N644 C645 1.351 1_556 S
C645 C639 1.428 . S
C645 N644 1.351 1_554 S
C645 C646 1.434 1_554 S
C646 C637 1.429 . S
C646 N643 1.350 . S
C646 C645 1.434 1_556 S
C647 C648 1.369 1_455 S
C647 C649 1.419 . S
C647 H651 0.930 . S
C648 C647 1.369 1_655 S
C648 C657 1.429 . S
C649 C647 1.419 . S
C649 C650 1.363 . S
C649 H652 0.929 . S
C650 C649 1.363 . S
C650 C656 1.428 1_455 S
H651 C647 0.930 . S
H652 C649 0.929 . S
S653 N654 1.613 . S
S653 N655 1.610 . S
N654 S653 1.613 . S
N654 C657 1.350 . S
N655 S653 1.610 . S
N655 C656 1.351 . S
C656 C650 1.428 1_655 S
C656 N655 1.351 . S
C656 C657 1.434 . S
C657 C648 1.429 . S
C657 N654 1.350 . S
C657 C656 1.434 . S
C658 C659 1.369 . S
C658 C660 1.419 . S
C658 H662 0.930 . S
C659 C658 1.369 . S
C659 C668 1.429 . S
C660 C658 1.419 . S
C660 C661 1.363 . S
C660 H663 0.929 . S
C661 C660 1.363 . S
C661 C667 1.428 . S
H662 C658 0.930 . S
H663 C660 0.929 . S
S664 N665 1.613 . S
S664 N666 1.610 . S
N665 S664 1.613 . S
N665 C668 1.350 . S
N666 S664 1.610 . S
N666 C667 1.351 . S
C667 C661 1.428 . S
C667 N666 1.351 . S
C667 C668 1.434 . S
C668 C659 1.429 . S
C668 N665 1.350 . S
C668 C667 1.434 . S
C669 C670 1.369 1_455 S
C669 C671 1.419 1_545 S
C669 H673 0.930 . S
C670 C669 1.369 1_655 S
C670 C679 1.429 . S
C671 C669 1.419 1_565 S
C671 C672 1.363 . S
C671 H674 0.929 . S
C672 C671 1.363 . S
C672 C678 1.428 1_455 S
H673 C669 0.930 . S
H674 C671 0.929 . S
S675 N676 1.613 1_565 S
S675 N677 1.610 . S
N676 S675 1.613 1_545 S
N676 C679 1.350 . S
N677 S675 1.610 . S
N677 C678 1.351 . S
C678 C672 1.428 1_655 S
C678 N677 1.351 . S
C678 C679 1.434 1_565 S
C679 C670 1.429 . S
C679 N676 1.350 . S
C679 C678 1.434 1_545 S
C680 C681 1.369 . S
C680 C682 1.419 . S
C680 H684 0.930 . S
C681 C680 1.369 . S
C681 C690 1.429 . S
C682 C680 1.419 . S
C682 C683 1.363 . S
C682 H685 0.929 . S
C683 C682 1.363 . S
C683 C689 1.428 . S
H684 C680 0.930 . S
H685 C682 0.929 . S
S686 N687 1.613 . S
S686 N688 1.610 . S
N687 S686 1.613 . S
N687 C690 1.350 . S
N688 S686 1.610 . S
N688 C689 1.351 . S
C689 C683 1.428 . S
C689 N688 1.351 . S
C689 C690 1.434 . S
C690 C681 1.429 . S
C690 N687 1.350 . S
C690 C689 1.434 . S
C691 C692 1.369 . S
C691 C693 1.419 . S
C691 H695 0.930 . S
C692 C691 1.369 . S
C692 C701 1.429 1_565 S
C693 C691 1.419 . S
C693 C694 1.363 1_565 S
C693 H696 0.929 . S
C694 C693 1.363 1_545 S
C694 C700 1.428 . S
H695 C691 0.930 . S
H696 C693 0.929 . S
S697 N698 1.613 . S
S697 N699 1.610 . S
N698 S697 1.613 . S
N698 C701 1.350 . S
N699 S697 1.610 . S
N699 C700 1.351 . S
C700 C694 1.428 . S
C700 N699 1.351 . S
C700 C701 1.434 . S
C701 C692 1.429 1_545 S
C701 N698 1.350 . S
C701 C700 1.434 . S
C702 C703 1.369 . S
C702 C704 1.419 . S
C702 H706 0.930 . S
C703 C702 1.369 . S
C703 C712 1.429 . S
C704 C702 1.419 . S
C704 C705 1.363 . S
C704 H707 0.929 . S
C705 C704 1.363 . S
C705 C711 1.428 . S
H706 C702 0.930 . S
H707 C704 0.929 . S
S708 N709 1.613 . S
S708 N710 1.610 . S
N709 S708 1.613 . S
N709 C712 1.350 . S
N710 S708 1.610 . S
N710 C711 1.351 . S
C711 C705 1.428 . S
C711 N710 1.351 . S
C711 C712 1.434 . S
C712 C703 1.429 . S
C712 N709 1.350 . S
C712 C711 1.434 . S
C713 C714 1.369 1_545 S
C713 C715 1.419 . S
C713 H717 0.930 . S
C714 C713 1.369 1_565 S
C714 C723 1.429 . S
C715 C713 1.419 . S
C715 C716 1.363 . S
C715 H718 0.929 . S
C716 C715 1.363 . S
C716 C722 1.428 1_545 S
H717 C713 0.930 . S
H718 C715 0.929 . S
S719 N720 1.613 . S
S719 N721 1.610 . S
N720 S719 1.613 . S
N720 C723 1.350 . S
N721 S719 1.610 . S
N721 C722 1.351 . S
C722 C716 1.428 1_565 S
C722 N721 1.351 . S
C722 C723 1.434 . S
C723 C714 1.429 . S
C723 N720 1.350 . S
C723 C722 1.434 . S
C724 C725 1.369 . S
C724 C726 1.419 . S
C724 H728 0.930 . S
C725 C724 1.369 . S
C725 C734 1.429 . S
C726 C724 1.419 . S
C726 C727 1.363 . S
C726 H729 0.929 . S
C727 C726 1.363 . S
C727 C733 1.428 . S
H728 C724 0.930 . S
H729 C726 0.929 . S
S730 N731 1.613 . S
S730 N732 1.610 . S
N731 S730 1.613 . S
N731 C734 1.350 . S
N732 S730 1.610 . S
N732 C733 1.351 . S
C733 C727 1.428 . S
C733 N732 1.351 . S
C733 C734 1.434 . S
C734 C725 1.429 . S
C734 N731 1.350 . S
C734 C733 1.434 . S
C735 C736 1.369 . S
C735 C737 1.419 . S
C735 H739 0.930 . S
C736 C735 1.369 . S
C736 C745 1.429 . S
C737 C735 1.419 . S
C737 C738 1.363 . S
C737 H740 0.929 . S
C738 C737 1.363 . S
C738 C744 1.428 . S
H739 C735 0.930 . S
H740 C737 0.929 . S
S741 N742 1.613 . S
S741 N743 1.610 . S
N742 S741 1.613 . S
N742 C745 1.350 . S
N743 S741 1.610 . S
N743 C744 1.351 . S
C744 C738 1.428 . S
C744 N743 1.351 . S
C744 C745 1.434 . S
C745 C736 1.429 . S
C745 N742 1.350 . S
C745 C744 1.434 . S
C746 C747 1.369 . S
C746 C748 1.419 . S
C746 H750 0.930 . S
C747 C746 1.369 . S
C747 C756 1.429 . S
C748 C746 1.419 . S
C748 C749 1.363 . S
C748 H751 0.929 . S
C749 C748 1.363 . S
C749 C755 1.428 . S
H750 C746 0.930 . S
H751 C748 0.929 . S
S752 N753 1.613 . S
S752 N754 1.610 . S
N753 S752 1.613 . S
N753 C756 1.350 . S
N754 S752 1.610 . S
N754 C755 1.351 . S
C755 C749 1.428 . S
C755 N754 1.351 . S
C755 C756 1.434 . S
C756 C747 1.429 . S
C756 N753 1.350 . S
C756 C755 1.434 . S
C757 C758 1.369 1_554 S
C757 C759 1.419 . S
C757 H761 0.930 . S
C758 C757 1.369 1_556 S
C758 C767 1.429 1_545 S
C759 C757 1.419 . S
C759 C760 1.363 1_545 S
C759 H762 0.929 . S
C760 C759 1.363 1_565 S
C760 C766 1.428 1_554 S
H761 C757 0.930 . S
H762 C759 0.929 . S
S763 N764 1.613 . S
S763 N765 1.610 . S
N764 S763 1.613 . S
N764 C767 1.350 . S
N765 S763 1.610 . S
N765 C766 1.351 . S
C766 C760 1.428 1_556 S
C766 N765 1.351 . S
C766 C767 1.434 . S
C767 C758 1.429 1_565 S
C767 N764 1.350 . S
C767 C766 1.434 . S
C768 C769 1.369 . S
C768 C770 1.419 . S
C768 H772 0.930 . S
C769 C768 1.369 . S
C769 C778 1.429 . S
C770 C768 1.419 . S
C770 C771 1.363 . S
C770 H773 0.929 . S
C771 C770 1.363 . S
C771 C777 1.428 . S
H772 C768 0.930 . S
H773 C770 0.929 . S
S774 N775 1.613 . S
S774 N776 1.610 . S
N775 S774 1.613 . S
N775 C778 1.350 . S
N776 S774 1.610 . S
N776 C777 1.351 . S
C777 C771 1.428 . S
C777 N776 1.351 . S
C777 C778 1.434 . S
C778 C769 1.429 . S
C778 N775 1.350 . S
C778 C777 1.434 . S
C779 C780 1.369 . S
C779 C781 1.419 . S
C779 H783 0.930 . S
C780 C779 1.369 . S
C780 C789 1.429 . S
C781 C779 1.419 . S
C781 C782 1.363 . S
C781 H784 0.929 . S
C782 C781 1.363 . S
C782 C788 1.428 . S
H783 C779 0.930 . S
H784 C781 0.929 . S
S785 N786 1.613 1_545 S
S785 N787 1.610 1_545 S
N786 S785 1.613 1_565 S
N786 C789 1.350 . S
N787 S785 1.610 1_565 S
N787 C788 1.351 . S
C788 C782 1.428 . S
C788 N787 1.351 . S
C788 C789 1.434 . S
C789 C780 1.429 . S
C789 N786 1.350 . S
C789 C788 1.434 . S
C790 C791 1.369 . S
C790 C792 1.419 . S
C790 H794 0.930 . S
C791 C790 1.369 . S
C791 C800 1.429 . S
C792 C790 1.419 . S
C792 C793 1.363 . S
C792 H795 0.929 . S
C793 C792 1.363 . S
C793 C799 1.428 . S
H794 C790 0.930 . S
H795 C792 0.929 . S
S796 N797 1.613 . S
S796 N798 1.610 . S
N797 S796 1.613 . S
N797 C800 1.350 . S
N798 S796 1.610 . S
N798 C799 1.351 . S
C799 C793 1.428 . S
C799 N798 1.351 . S
C799 C800 1.434 . S
C800 C791 1.429 . S
C800 N797 1.350 . S
C800 C799 1.434 . S
C801 C802 1.369 . S
C801 C803 1.419 . S
C801 H805 0.930 . S
C802 C801 1.369 . S
C802 C811 1.429 . S
C803 C801 1.419 . S
C803 C804 1.363 . S
C803 H806 0.929 . S
C804 C803 1.363 . S
C804 C810 1.428 . S
H805 C801 0.930 . S
H806 C803 0.929 . S
S807 N808 1.613 1_565 S
S807 N809 1.610 1_565 S
N808 S807 1.613 1_545 S
N808 C811 1.350 . S
N809 S807 1.610 1_545 S
N809 C810 1.351 . S
C810 C804 1.428 . S
C810 N809 1.351 . S
C810 C811 1.434 . S
C811 C802 1.429 . S
C811 N808 1.350 . S
C811 C810 1.434 . S
C812 C813 1.369 . S
C812 C814 1.419 . S
C812 H816 0.930 . S
C813 C812 1.369 . S
C813 C822 1.429 . S
C814 C812 1.419 . S
C814 C815 1.363 . S
C814 H817 0.929 . S
C815 C814 1.363 . S
C815 C821 1.428 . S
H816 C812 0.930 . S
H817 C814 0.929 . S
S818 N819 1.613 . S
S818 N820 1.610 . S
N819 S818 1.613 . S
N819 C822 1.350 . S
N820 S818 1.610 . S
N820 C821 1.351 . S
C821 C815 1.428 . S
C821 N820 1.351 . S
C821 C822 1.434 . S
C822 C813 1.429 . S
C822 N819 1.350 . S
C822 C821 1.434 . S
C823 C824 1.369 . S
C823 C825 1.419 . S
C823 H827 0.930 . S
C824 C823 1.369 . S
C824 C833 1.429 . S
C825 C823 1.419 . S
C825 C826 1.363 . S
C825 H828 0.929 . S
C826 C825 1.363 . S
C826 C832 1.428 . S
H827 C823 0.930 . S
H828 C825 0.929 . S
S829 N830 1.613 . S
S829 N831 1.610 . S
N830 S829 1.613 . S
N830 C833 1.350 . S
N831 S829 1.610 . S
N831 C832 1.351 . S
C832 C826 1.428 . S
C832 N831 1.351 . S
C832 C833 1.434 . S
C833 C824 1.429 . S
C833 N830 1.350 . S
C833 C832 1.434 . S
C834 C835 1.369 . S
C834 C836 1.419 . S
C834 H838 0.930 . S
C835 C834 1.369 . S
C835 C844 1.429 . S
C836 C834 1.419 . S
C836 C837 1.363 . S
C836 H839 0.929 . S
C837 C836 1.363 . S
C837 C843 1.428 . S
H838 C834 0.930 . S
H839 C836 0.929 . S
S840 N841 1.613 . S
S840 N842 1.610 . S
N841 S840 1.613 . S
N841 C844 1.350 . S
N842 S840 1.610 . S
N842 C843 1.351 . S
C843 C837 1.428 . S
C843 N842 1.351 . S
C843 C844 1.434 . S
C844 C835 1.429 . S
C844 N841 1.350 . S
C844 C843 1.434 . S
C845 C846 1.369 . S
C845 C847 1.419 . S
C845 H849 0.930 . S
C846 C845 1.369 . S
C846 C855 1.429 . S
C847 C845 1.419 . S
C847 C848 1.363 . S
C847 H850 0.929 . S
C848 C847 1.363 . S
C848 C854 1.428 . S
H849 C845 0.930 . S
H850 C847 0.929 . S
S851 N852 1.613 . S
S851 N853 1.610 . S
N852 S851 1.613 . S
N852 C855 1.350 . S
N853 S851 1.610 . S
N853 C854 1.351 . S
C854 C848 1.428 . S
C854 N853 1.351 . S
C854 C855 1.434 . S
C855 C846 1.429 . S
C855 N852 1.350 . S
C855 C854 1.434 . S
C856 C857 1.369 . S
C856 C858 1.419 . S
C856 H860 0.930 . S
C857 C856 1.369 . S
C857 C866 1.429 . S
C858 C856 1.419 . S
C858 C859 1.363 . S
C858 H861 0.929 . S
C859 C858 1.363 . S
C859 C865 1.428 . S
H860 C856 0.930 . S
H861 C858 0.929 . S
S862 N863 1.613 . S
S862 N864 1.610 . S
N863 S862 1.613 . S
N863 C866 1.350 . S
N864 S862 1.610 . S
N864 C865 1.351 . S
C865 C859 1.428 . S
C865 N864 1.351 . S
C865 C866 1.434 . S
C866 C857 1.429 . S
C866 N863 1.350 . S
C866 C865 1.434 . S
C867 C868 1.369 . S
C867 C869 1.419 . S
C867 H871 0.930 . S
C868 C867 1.369 . S
C868 C877 1.429 . S
C869 C867 1.419 . S
C869 C870 1.363 . S
C869 H872 0.929 . S
C870 C869 1.363 . S
C870 C876 1.428 . S
H871 C867 0.930 . S
H872 C869 0.929 . S
S873 N874 1.613 . S
S873 N875 1.610 . S
N874 S873 1.613 . S
N874 C877 1.350 . S
N875 S873 1.610 . S
N875 C876 1.351 . S
C876 C870 1.428 . S
C876 N875 1.351 . S
C876 C877 1.434 . S
C877 C868 1.429 . S
C877 N874 1.350 . S
C877 C876 1.434 . S
C878 C879 1.369 . S
C878 C880 1.419 . S
C878 H882 0.930 . S
C879 C878 1.369 . S
C879 C888 1.429 . S
C880 C878 1.419 . S
C880 C881 1.363 . S
C880 H883 0.929 . S
C881 C880 1.363 . S
C881 C887 1.428 . S
H882 C878 0.930 . S
H883 C880 0.929 . S
S884 N885 1.613 . S
S884 N886 1.610 . S
N885 S884 1.613 . S
N885 C888 1.350 . S
N886 S884 1.610 . S
N886 C887 1.351 . S
C887 C881 1.428 . S
C887 N886 1.351 . S
C887 C888 1.434 . S
C888 C879 1.429 . S
C888 N885 1.350 . S
C888 C887 1.434 . S
C889 C890 1.369 . S
C889 C891 1.419 . S
C889 H893 0.930 . S
C890 C889 1.369 . S
C890 C899 1.429 . S
C891 C889 1.419 . S
C891 C892 1.363 . S
C891 H894 0.929 . S
C892 C891 1.363 . S
C892 C898 1.428 . S
H893 C889 0.930 . S
H894 C891 0.929 . S
S895 N896 1.613 . S
S895 N897 1.610 . S
N896 S895 1.613 . S
N896 C899 1.350 . S
N897 S895 1.610 . S
N897 C898 1.351 . S
C898 C892 1.428 . S
C898 N897 1.351 . S
C898 C899 1.434 . S
C899 C890 1.429 . S
C899 N896 1.350 . S
C899 C898 1.434 . S
C900 C901 1.369 . S
C900 C902 1.419 . S
C900 H904 0.930 . S
C901 C900 1.369 . S
C901 C910 1.429 . S
C902 C900 1.419 . S
C902 C903 1.363 . S
C902 H905 0.929 . S
C903 C902 1.363 . S
C903 C909 1.428 . S
H904 C900 0.930 . S
H905 C902 0.929 . S
S906 N907 1.613 . S
S906 N908 1.610 . S
N907 S906 1.613 . S
N907 C910 1.350 . S
N908 S906 1.610 . S
N908 C909 1.351 . S
C909 C903 1.428 . S
C909 N908 1.351 . S
C909 C910 1.434 . S
C910 C901 1.429 . S
C910 N907 1.350 . S
C910 C909 1.434 . S
C911 C912 1.369 . S
C911 C913 1.419 . S
C911 H915 0.930 . S
C912 C911 1.369 . S
C912 C921 1.429 . S
C913 C911 1.419 . S
C913 C914 1.363 . S
C913 H916 0.929 . S
C914 C913 1.363 . S
C914 C920 1.428 . S
H915 C911 0.930 . S
H916 C913 0.929 . S
S917 N918 1.613 . S
S917 N919 1.610 . S
N918 S917 1.613 . S
N918 C921 1.350 . S
N919 S917 1.610 . S
N919 C920 1.351 . S
C920 C914 1.428 . S
C920 N919 1.351 . S
C920 C921 1.434 . S
C921 C912 1.429 . S
C921 N918 1.350 . S
C921 C920 1.434 . S
C922 C923 1.369 . S
C922 C924 1.419 . S
C922 H926 0.930 . S
C923 C922 1.369 . S
C923 C932 1.429 . S
C924 C922 1.419 . S
C924 C925 1.363 . S
C924 H927 0.929 . S
C925 C924 1.363 . S
C925 C931 1.428 . S
H926 C922 0.930 . S
H927 C924 0.929 . S
S928 N929 1.613 . S
S928 N930 1.610 . S
N929 S928 1.613 . S
N929 C932 1.350 . S
N930 S928 1.610 . S
N930 C931 1.351 . S
C931 C925 1.428 . S
C931 N930 1.351 . S
C931 C932 1.434 . S
C932 C923 1.429 . S
C932 N929 1.350 . S
C932 C931 1.434 . S
C933 C934 1.369 . S
C933 C935 1.419 . S
C933 H937 0.930 . S
C934 C933 1.369 . S
C934 C943 1.429 . S
C935 C933 1.419 . S
C935 C936 1.363 . S
C935 H938 0.929 . S
C936 C935 1.363 . S
C936 C942 1.428 . S
H937 C933 0.930 . S
H938 C935 0.929 . S
S939 N940 1.613 . S
S939 N941 1.610 . S
N940 S939 1.613 . S
N940 C943 1.350 . S
N941 S939 1.610 . S
N941 C942 1.351 . S
C942 C936 1.428 . S
C942 N941 1.351 . S
C942 C943 1.434 . S
C943 C934 1.429 . S
C943 N940 1.350 . S
C943 C942 1.434 . S
C944 C945 1.369 . S
C944 C946 1.419 . S
C944 H948 0.930 . S
C945 C944 1.369 . S
C945 C954 1.429 . S
C946 C944 1.419 . S
C946 C947 1.363 . S
C946 H949 0.929 . S
C947 C946 1.363 . S
C947 C953 1.428 . S
H948 C944 0.930 . S
H949 C946 0.929 . S
S950 N951 1.613 . S
S950 N952 1.610 . S
N951 S950 1.613 . S
N951 C954 1.350 . S
N952 S950 1.610 . S
N952 C953 1.351 . S
C953 C947 1.428 . S
C953 N952 1.351 . S
C953 C954 1.434 . S
C954 C945 1.429 . S
C954 N951 1.350 . S
C954 C953 1.434 . S
C955 C956 1.369 . S
C955 C957 1.419 . S
C955 H959 0.930 . S
C956 C955 1.369 . S
C956 C965 1.429 . S
C957 C955 1.419 . S
C957 C958 1.363 . S
C957 H960 0.929 . S
C958 C957 1.363 . S
C958 C964 1.428 . S
H959 C955 0.930 . S
H960 C957 0.929 . S
S961 N962 1.613 . S
S961 N963 1.610 . S
N962 S961 1.613 . S
N962 C965 1.350 . S
N963 S961 1.610 . S
N963 C964 1.351 . S
C964 C958 1.428 . S
C964 N963 1.351 . S
C964 C965 1.434 . S
C965 C956 1.429 . S
C965 N962 1.350 . S
C965 C964 1.434 . S
C966 C967 1.369 . S
C966 C968 1.419 . S
C966 H970 0.930 . S
C967 C966 1.369 . S
C967 C976 1.429 . S
C968 C966 1.419 . S
C968 C969 1.363 . S
C968 H971 0.929 . S
C969 C968 1.363 . S
C969 C975 1.428 . S
H970 C966 0.930 . S
H971 C968 0.929 . S
S972 N973 1.613 . S
S972 N974 1.610 . S
N973 S972 1.613 . S
N973 C976 1.350 . S
N974 S972 1.610 . S
N974 C975 1.351 . S
C975 C969 1.428 . S
C975 N974 1.351 . S
C975 C976 1.434 . S
C976 C967 1.429 . S
C976 N973 1.350 . S
C976 C975 1.434 . S
C977 C978 1.369 . S
C977 C979 1.419 . S
C977 H981 0.930 . S
C978 C977 1.369 . S
C978 C987 1.429 . S
C979 C977 1.419 . S
C979 C980 1.363 . S
C979 H982 0.929 . S
C980 C979 1.363 . S
C980 C986 1.428 . S
H981 C977 0.930 . S
H982 C979 0.929 . S
S983 N984 1.613 . S
S983 N985 1.610 . S
N984 S983 1.613 . S
N984 C987 1.350 . S
N985 S983 1.610 . S
N985 C986 1.351 . S
C986 C980 1.428 . S
C986 N985 1.351 . S
C986 C987 1.434 . S
C987 C978 1.429 . S
C987 N984 1.350 . S
C987 C986 1.434 . S
C988 C989 1.369 . S
C988 C990 1.419 . S
C988 H992 0.930 . S
C989 C988 1.369 . S
C989 C998 1.429 . S
C990 C988 1.419 . S
C990 C991 1.363 . S
C990 H993 0.929 . S
C991 C990 1.363 . S
C991 C997 1.428 . S
H992 C988 0.930 . S
H993 C990 0.929 . S
S994 N995 1.613 . S
S994 N996 1.610 . S
N995 S994 1.613 . S
N995 C998 1.350 . S
N996 S994 1.610 . S
N996 C997 1.351 . S
C997 C991 1.428 . S
C997 N996 1.351 . S
C997 C998 1.434 . S
C998 C989 1.429 . S
C998 N995 1.350 . S
C998 C997 1.434 . S
C999 C1000 1.369 . S
C999 C1001 1.419 . S
C999 H1003 0.930 . S
C1000 C999 1.369 . S
C1000 C1009 1.429 . S
C1001 C999 1.419 . S
C1001 C1002 1.363 . S
C1001 H1004 0.929 . S
C1002 C1001 1.363 . S
C1002 C1008 1.428 . S
H1003 C999 0.930 . S
H1004 C1001 0.929 . S
S1005 N1006 1.613 . S
S1005 N1007 1.610 . S
N1006 S1005 1.613 . S
N1006 C1009 1.350 . S
N1007 S1005 1.610 . S
N1007 C1008 1.351 . S
C1008 C1002 1.428 . S
C1008 N1007 1.351 . S
C1008 C1009 1.434 . S
C1009 C1000 1.429 . S
C1009 N1006 1.350 . S
C1009 C1008 1.434 . S
C1010 C1011 1.369 . S
C1010 C1012 1.419 . S
C1010 H1014 0.930 . S
C1011 C1010 1.369 . S
C1011 C1020 1.429 . S
C1012 C1010 1.419 . S
C1012 C1013 1.363 . S
C1012 H1015 0.929 . S
C1013 C1012 1.363 . S
C1013 C1019 1.428 . S
H1014 C1010 0.930 . S
H1015 C1012 0.929 . S
S1016 N1017 1.613 1_455 S
S1016 N1018 1.610 1_455 S
N1017 S1016 1.613 1_655 S
N1017 C1020 1.350 . S
N1018 S1016 1.610 1_655 S
N1018 C1019 1.351 . S
C1019 C1013 1.428 . S
C1019 N1018 1.351 . S
C1019 C1020 1.434 . S
C1020 C1011 1.429 . S
C1020 N1017 1.350 . S
C1020 C1019 1.434 . S
C1021 C1022 1.369 . S
C1021 C1023 1.419 . S
C1021 H1025 0.930 . S
C1022 C1021 1.369 . S
C1022 C1031 1.429 . S
C1023 C1021 1.419 . S
C1023 C1024 1.363 . S
C1023 H1026 0.929 . S
C1024 C1023 1.363 . S
C1024 C1030 1.428 . S
H1025 C1021 0.930 . S
H1026 C1023 0.929 . S
S1027 N1028 1.613 . S
S1027 N1029 1.610 . S
N1028 S1027 1.613 . S
N1028 C1031 1.350 . S
N1029 S1027 1.610 . S
N1029 C1030 1.351 . S
C1030 C1024 1.428 . S
C1030 N1029 1.351 . S
C1030 C1031 1.434 . S
C1031 C1022 1.429 . S
C1031 N1028 1.350 . S
C1031 C1030 1.434 . S
C1032 C1033 1.369 . S
C1032 C1034 1.419 . S
C1032 H1036 0.930 . S
C1033 C1032 1.369 . S
C1033 C1042 1.429 . S
C1034 C1032 1.419 . S
C1034 C1035 1.363 . S
C1034 H1037 0.929 . S
C1035 C1034 1.363 . S
C1035 C1041 1.428 . S
H1036 C1032 0.930 . S
H1037 C1034 0.929 . S
S1038 N1039 1.613 . S
S1038 N1040 1.610 . S
N1039 S1038 1.613 . S
N1039 C1042 1.350 . S
N1040 S1038 1.610 . S
N1040 C1041 1.351 . S
C1041 C1035 1.428 . S
C1041 N1040 1.351 . S
C1041 C1042 1.434 . S
C1042 C1033 1.429 . S
C1042 N1039 1.350 . S
C1042 C1041 1.434 . S
C1043 C1044 1.369 . S
C1043 C1045 1.419 . S
C1043 H1047 0.930 . S
C1044 C1043 1.369 . S
C1044 C1053 1.429 . S
C1045 C1043 1.419 . S
C1045 C1046 1.363 . S
C1045 H1048 0.929 . S
C1046 C1045 1.363 . S
C1046 C1052 1.428 . S
H1047 C1043 0.930 . S
H1048 C1045 0.929 . S
S1049 N1050 1.613 . S
S1049 N1051 1.610 . S
N1050 S1049 1.613 . S
N1050 C1053 1.350 . S
N1051 S1049 1.610 . S
N1051 C1052 1.351 . S
C1052 C1046 1.428 . S
C1052 N1051 1.351 . S
C1052 C1053 1.434 . S
C1053 C1044 1.429 . S
C1053 N1050 1.350 . S
C1053 C1052 1.434 . S
C1054 C1055 1.369 . S
C1054 C1056 1.419 . S
C1054 H1058 0.930 . S
C1055 C1054 1.369 . S
C1055 C1064 1.429 . S
C1056 C1054 1.419 . S
C1056 C1057 1.363 . S
C1056 H1059 0.929 . S
C1057 C1056 1.363 . S
C1057 C1063 1.428 . S
H1058 C1054 0.930 . S
H1059 C1056 0.929 . S
S1060 N1061 1.613 . S
S1060 N1062 1.610 . S
N1061 S1060 1.613 . S
N1061 C1064 1.350 . S
N1062 S1060 1.610 . S
N1062 C1063 1.351 . S
C1063 C1057 1.428 . S
C1063 N1062 1.351 . S
C1063 C1064 1.434 . S
C1064 C1055 1.429 . S
C1064 N1061 1.350 . S
C1064 C1063 1.434 . S
C1065 C1066 1.369 . S
C1065 C1067 1.419 . S
C1065 H1069 0.930 . S
C1066 C1065 1.369 . S
C1066 C1075 1.429 . S
C1067 C1065 1.419 . S
C1067 C1068 1.363 . S
C1067 H1070 0.929 . S
C1068 C1067 1.363 . S
C1068 C1074 1.428 . S
H1069 C1065 0.930 . S
H1070 C1067 0.929 . S
S1071 N1072 1.613 . S
S1071 N1073 1.610 . S
N1072 S1071 1.613 . S
N1072 C1075 1.350 . S
N1073 S1071 1.610 . S
N1073 C1074 1.351 . S
C1074 C1068 1.428 . S
C1074 N1073 1.351 . S
C1074 C1075 1.434 . S
C1075 C1066 1.429 . S
C1075 N1072 1.350 . S
C1075 C1074 1.434 . S
C1076 C1077 1.369 . S
C1076 C1078 1.419 . S
C1076 H1080 0.930 . S
C1077 C1076 1.369 . S
C1077 C1086 1.429 . S
C1078 C1076 1.419 . S
C1078 C1079 1.363 . S
C1078 H1081 0.929 . S
C1079 C1078 1.363 . S
C1079 C1085 1.428 . S
H1080 C1076 0.930 . S
H1081 C1078 0.929 . S
S1082 N1083 1.613 . S
S1082 N1084 1.610 . S
N1083 S1082 1.613 . S
N1083 C1086 1.350 . S
N1084 S1082 1.610 . S
N1084 C1085 1.351 . S
C1085 C1079 1.428 . S
C1085 N1084 1.351 . S
C1085 C1086 1.434 . S
C1086 C1077 1.429 . S
C1086 N1083 1.350 . S
C1086 C1085 1.434 . S
C1087 C1088 1.369 . S
C1087 C1089 1.419 . S
C1087 H1091 0.930 . S
C1088 C1087 1.369 . S
C1088 C1097 1.429 . S
C1089 C1087 1.419 . S
C1089 C1090 1.363 . S
C1089 H1092 0.929 . S
C1090 C1089 1.363 . S
C1090 C1096 1.428 . S
H1091 C1087 0.930 . S
H1092 C1089 0.929 . S
S1093 N1094 1.613 . S
S1093 N1095 1.610 . S
N1094 S1093 1.613 . S
N1094 C1097 1.350 . S
N1095 S1093 1.610 . S
N1095 C1096 1.351 . S
C1096 C1090 1.428 . S
C1096 N1095 1.351 . S
C1096 C1097 1.434 . S
C1097 C1088 1.429 . S
C1097 N1094 1.350 . S
C1097 C1096 1.434 . S
C1098 C1099 1.369 . S
C1098 C1100 1.419 . S
C1098 H1102 0.930 . S
C1099 C1098 1.369 . S
C1099 C1108 1.429 . S
C1100 C1098 1.419 . S
C1100 C1101 1.363 . S
C1100 H1103 0.929 . S
C1101 C1100 1.363 . S
C1101 C1107 1.428 . S
H1102 C1098 0.930 . S
H1103 C1100 0.929 . S
S1104 N1105 1.613 . S
S1104 N1106 1.610 . S
N1105 S1104 1.613 . S
N1105 C1108 1.350 . S
N1106 S1104 1.610 . S
N1106 C1107 1.351 . S
C1107 C1101 1.428 . S
C1107 N1106 1.351 . S
C1107 C1108 1.434 . S
C1108 C1099 1.429 . S
C1108 N1105 1.350 . S
C1108 C1107 1.434 . S
C1109 C1110 1.369 . S
C1109 C1111 1.419 . S
C1109 H1113 0.930 . S
C1110 C1109 1.369 . S
C1110 C1119 1.429 . S
C1111 C1109 1.419 . S
C1111 C1112 1.363 . S
C1111 H1114 0.929 . S
C1112 C1111 1.363 . S
C1112 C1118 1.428 . S
H1113 C1109 0.930 . S
H1114 C1111 0.929 . S
S1115 N1116 1.613 . S
S1115 N1117 1.610 . S
N1116 S1115 1.613 . S
N1116 C1119 1.350 . S
N1117 S1115 1.610 . S
N1117 C1118 1.351 . S
C1118 C1112 1.428 . S
C1118 N1117 1.351 . S
C1118 C1119 1.434 . S
C1119 C1110 1.429 . S
C1119 N1116 1.350 . S
C1119 C1118 1.434 . S
C417 C30 1.008 . S
C419 C4 1.021 . S
C428 C23 1.009 . S
C430 C43 1.022 . S
C439 C82 1.008 . S
C441 C56 1.019 . S
C450 C95 1.008 . S
C452 C69 1.019 . S
C461 C108 1.023 . S
C463 C140 1.011 . S
C472 C153 1.024 . S
C474 C121 1.010 . S
C483 C160 1.008 . S
C485 C192 1.022 . S
C494 C173 1.016 . S
C496 C199 1.012 . S
C505 C238 1.008 . S
C507 C212 1.021 . S
C516 C225 1.009 . S
C518 C251 1.022 . S
C527 C264 1.008 . S
C529 C290 1.019 . S
C538 C303 1.008 . S
C540 C283 1.021 . S
C549 C348 1.011 . S
C551 C322 1.021 . S
C560 C361 1.008 . S
C562 C335 1.021 . S
C571 C400 1.008 . S
C573 C368 1.020 . S
C582 C381 1.024 . S
C584 C407 1.011 . S
C593 C62 1.596 . S
C595 C10 1.598 . S
C604 C387 1.595 . S
C606 C17 1.600 . S
C615 C36 1.599 . S
C617 C186 1.597 . S
C626 C49 1.597 . S
C628 C309 1.598 . S
C637 C75 1.598 . S
C639 C329 1.597 . S
C648 C88 1.599 . S
C650 C134 1.597 . S
C659 C257 1.595 . S
C661 C101 1.600 . S
C670 C166 1.600 . S
C672 C114 1.596 . S
C681 C277 1.599 . S
C683 C127 1.596 . S
C692 C147 1.595 . S
C694 C413 1.600 . S
C703 C179 1.595 . S
C705 C231 1.600 . S
C714 C355 1.601 . S
C716 C205 1.595 . S
C725 C270 1.601 . S
C727 C218 1.595 . S
C736 C244 1.594 . S
C738 C394 1.601 . S
C747 C296 1.593 . S
C749 C342 1.601 . S
C758 C374 1.594 . S
C760 C316 1.601 . S
C769 C42 1.559 . S
C771 C3 1.560 . S
C780 C29 1.562 . S
C782 C18 1.561 . S
C791 C94 1.563 . S
C793 C55 1.560 . S
C802 C81 1.563 . S
C804 C68 1.560 . S
C813 C148 1.559 . S
C815 C107 1.560 . S
C824 C135 1.560 . S
C826 C120 1.559 . S
C835 C198 1.563 . S
C837 C159 1.560 . S
C846 C187 1.561 . S
C848 C172 1.558 . S
C857 C211 1.561 . S
C859 C250 1.559 . S
C868 C237 1.558 . S
C870 C224 1.560 . S
C879 C263 1.561 . S
C881 C302 1.559 . S
C890 C289 1.560 . S
C892 C278 1.559 . S
C901 C356 1.563 . S
C903 C317 1.559 . S
C912 C330 1.558 . S
C914 C343 1.561 . S
C923 C367 1.563 . S
C925 C406 1.560 . S
C934 C395 1.558 . S
C936 C380 1.561 . S
C945 C31 1.476 1_545 S
C947 C5 1.472 . S
C956 C16 1.475 1_545 S
C958 C44 1.472 . S
C967 C57 1.470 . S
C969 C83 1.474 1_565 S
C978 C70 1.471 1_565 S
C980 C96 1.475 . S
C989 C109 1.471 . S
C991 C133 1.475 . S
C1000 C122 1.475 . S
C1002 C146 1.471 . S
C1011 C185 1.473 . S
C1013 C161 1.475 . S
C1022 C200 1.473 . S
C1024 C174 1.475 . S
C1033 C239 1.473 1_545 S
C1035 C213 1.475 . S
C1044 C252 1.470 . S
C1046 C226 1.473 1_545 S
C1055 C265 1.474 . S
C1057 C291 1.471 1_565 S
C1066 C304 1.473 . S
C1068 C276 1.475 1_565 S
C1077 C341 1.475 . S
C1079 C315 1.471 . S
C1088 C328 1.476 . S
C1090 C354 1.472 . S
C1099 C369 1.475 . S
C1101 C393 1.471 . S
C1110 C408 1.471 . S
C1112 C382 1.475 . S
