# Generated by pormake.
# Topology bcg, (8)-cn, num edge types: 1
# Building blocks:
#     Node 0, Type 0, BuildingBlock: AJUNOK_clean_sbu_0, # of connection points: 8
#     Node 1, Type 0, BuildingBlock: AJUNOK_clean_sbu_0, # of connection points: 8
#     Node 2, Type 0, BuildingBlock: AJUNOK_clean_sbu_0, # of connection points: 8
#     Node 3, Type 0, BuildingBlock: AJUNOK_clean_sbu_0, # of connection points: 8
#     Edge 4, Type (0, 0), BuildingBlock: FUNLAD_clean_linker_0, # of connection points: 2
#     Edge 5, Type (0, 0), BuildingBlock: FUNLAD_clean_linker_0, # of connection points: 2
#     Edge 6, Type (0, 0), BuildingBlock: FUNLAD_clean_linker_0, # of connection points: 2
#     Edge 7, Type (0, 0), BuildingBlock: FUNLAD_clean_linker_0, # of connection points: 2
#     Edge 8, Type (0, 0), BuildingBlock: FUNLAD_clean_linker_0, # of connection points: 2
#     Edge 9, Type (0, 0), BuildingBlock: FUNLAD_clean_linker_0, # of connection points: 2
#     Edge 10, Type (0, 0), BuildingBlock: FUNLAD_clean_linker_0, # of connection points: 2
#     Edge 11, Type (0, 0), BuildingBlock: FUNLAD_clean_linker_0, # of connection points: 2
#     Edge 12, Type (0, 0), BuildingBlock: FUNLAD_clean_linker_0, # of connection points: 2
#     Edge 13, Type (0, 0), BuildingBlock: FUNLAD_clean_linker_0, # of connection points: 2
#     Edge 14, Type (0, 0), BuildingBlock: FUNLAD_clean_linker_0, # of connection points: 2
#     Edge 15, Type (0, 0), BuildingBlock: FUNLAD_clean_linker_0, # of connection points: 2
#     Edge 16, Type (0, 0), BuildingBlock: FUNLAD_clean_linker_0, # of connection points: 2
#     Edge 17, Type (0, 0), BuildingBlock: FUNLAD_clean_linker_0, # of connection points: 2
#     Edge 18, Type (0, 0), BuildingBlock: FUNLAD_clean_linker_0, # of connection points: 2
#     Edge 19, Type (0, 0), BuildingBlock: FUNLAD_clean_linker_0, # of connection points: 2
# Relax obj value: 0.151
# Max RMSD: 0.191
# Mean RMSD: 0.191
data_MOF--net-bcg--node1-AJUNOK_clean_sbu_0--edge1-FUNLAD_clean_linker_0
_symmetry_space_group_name_H-M    P1
_symmetry_Int_Tables_number       1
_symmetry_cell_setting            triclinic
loop_
_symmetry_equiv_pos_as_xyz
'x, y, z'
_cell_length_a     18.039024
_cell_length_b     30.499351
_cell_length_c     43.085275
_cell_angle_alpha  90.283047
_cell_angle_beta   89.987243
_cell_angle_gamma 90.553222
loop_
_atom_site_label
_atom_site_type_symbol
_atom_site_fract_x
_atom_site_fract_y
_atom_site_fract_z
_atom_type_partial_charge
Cd0 Cd 0.12379 0.26873 0.02045 0.0
Cd1 Cd 0.35908 0.20302 0.01681 0.0
C2 C 0.03617 0.288 0.08284 0.0
N3 N 0.08789 0.25965 0.07204 0.0
C4 C 0.09231 0.22373 0.1212 0.0
C5 C 0.03791 0.25219 0.13286 0.0
C6 C 0.01002 0.28472 0.11319 0.0
C7 C 0.11678 0.22814 0.09055 0.0
H8 H 0.01481 0.31313 0.06775 0.0
H9 H 0.15888 0.20652 0.0816 0.0
C10 C 0.20222 0.16097 0.01988 0.0
C11 C 0.30151 0.19548 0.94677 0.0
C12 C 0.31174 0.19961 0.91476 0.0
C13 C 0.35691 0.23368 0.9033 0.0
C14 C 0.38456 0.26529 0.92421 0.0
C15 C 0.37311 0.25987 0.95594 0.0
N16 N 0.33403 0.22471 0.96654 0.0
H17 H 0.27357 0.1668 0.95587 0.0
H18 H 0.40135 0.28138 0.97216 0.0
C19 C 0.43472 0.17894 0.08111 0.0
N20 N 0.37762 0.20312 0.07019 0.0
C21 C 0.35368 0.23163 0.12094 0.0
C22 C 0.41386 0.20795 0.13277 0.0
C23 C 0.45387 0.18084 0.11246 0.0
C24 C 0.33642 0.22871 0.08936 0.0
H25 H 0.46669 0.15905 0.06524 0.0
H26 H 0.29117 0.24754 0.08003 0.0
C27 C 0.28952 0.31827 0.02492 0.0
C28 C -0.0091 0.30363 0.99761 0.0
N29 N 0.12348 0.24102 0.97025 0.0
C30 C 0.15776 0.26538 0.94808 0.0
C31 C 0.13811 0.26018 0.9169 0.0
C32 C 0.08234 0.22973 0.90857 0.0
C33 C 0.05241 0.20268 0.93191 0.0
C34 C 0.07274 0.20955 0.96279 0.0
C35 C 0.50114 0.18008 0.99445 0.0
O36 O 0.19788 0.20249 0.02107 0.0
O37 O 0.2663 0.14451 0.019 0.0
O38 O 0.31368 0.27931 0.02217 0.0
O39 O 0.21995 0.32479 0.02537 0.0
O40 O -0.00849 0.26899 0.01396 0.0
O41 O 0.05194 0.32417 0.99384 0.0
O42 O 0.4918 0.21351 0.01164 0.0
O43 O 0.44555 0.15519 0.98978 0.0
H44 H 0.19562 0.29144 0.95487 0.0
H45 H 0.04361 0.19229 0.98102 0.0
H46 H 0.1163 0.19866 0.13569 0.0
H47 H 0.96755 0.30708 0.12098 0.0
H48 H 0.29009 0.17424 0.89951 0.0
H49 H 0.41919 0.29221 0.91631 0.0
H50 H 0.3207 0.25244 0.13585 0.0
H51 H 0.50117 0.16243 0.12044 0.0
H52 H 0.16224 0.28224 0.9 0.0
H53 H 0.01034 0.1782 0.92669 0.0
Cd54 Cd 0.62847 0.78431 1.00133 0.0
Cd55 Cd 0.81994 0.71973 0.01223 0.0
C56 C 0.65574 0.82554 0.07013 0.0
N57 N 0.64108 0.78652 0.05584 0.0
C58 C 0.61681 0.75274 0.10491 0.0
C59 C 0.62911 0.7929 0.12022 0.0
C60 C 0.65084 0.82935 0.10242 0.0
C61 C 0.6227 0.75035 0.07266 0.0
H62 H 0.66804 0.8543 0.05645 0.0
H63 H 0.60886 0.71992 0.0612 0.0
C64 C 0.64757 0.66804 0.00912 0.0
C65 C 0.78845 0.69938 0.94016 0.0
C66 C 0.80311 0.69934 0.90825 0.0
C67 C 0.84516 0.73363 0.89524 0.0
C68 C 0.86851 0.76823 0.91459 0.0
C69 C 0.85346 0.76669 0.94634 0.0
N70 N 0.8141 0.73259 0.95856 0.0
H71 H 0.76034 0.6716 0.95051 0.0
H72 H 0.87809 0.79124 0.9613 0.0
C73 C 0.7955 0.68154 0.08093 0.0
N74 N 0.80318 0.72065 0.06619 0.0
C75 C 0.81904 0.75788 0.11476 0.0
C76 C 0.81567 0.7177 0.13049 0.0
C77 C 0.80119 0.67932 0.11325 0.0
C78 C 0.81324 0.75858 0.08248 0.0
H79 H 0.78926 0.65172 0.06746 0.0
H80 H 0.82009 0.78932 0.07055 0.0
C81 C 0.79764 0.83694 0.0103 0.0
C82 C 0.48642 0.82117 0.99056 0.0
N83 N 0.6495 0.76672 0.9489 0.0
C84 C 0.67893 0.79864 0.93053 0.0
C85 C 0.67299 0.79563 0.89819 0.0
C86 C 0.63654 0.75937 0.88474 0.0
C87 C 0.60969 0.72607 0.90414 0.0
C88 C 0.61538 0.73081 0.93626 0.0
C89 C 0.96049 0.67937 1.00583 0.0
O90 O 0.61473 0.70433 1.00551 0.0
O91 O 0.71753 0.66672 0.01206 0.0
O92 O 0.82992 0.80048 0.01417 0.0
O93 O 0.72906 0.83847 1.00375 0.0
O94 O 0.4968 0.79172 0.01062 0.0
O95 O 0.54336 0.83644 0.97716 0.0
O96 O 0.95165 0.71343 0.02229 0.0
O97 O 0.9027 0.66167 0.99462 0.0
H98 H 0.7028 0.82781 0.94102 0.0
H99 H 0.58784 0.70709 0.9508 0.0
H100 H 0.5987 0.72388 0.11744 0.0
H101 H 0.66171 0.86091 0.11319 0.0
H102 H 0.78418 0.67198 0.89413 0.0
H103 H 0.90275 0.7947 0.90571 0.0
H104 H 0.82874 0.78837 0.12715 0.0
H105 H 0.79895 0.64756 0.12434 0.0
H106 H 0.69396 0.82213 0.88392 0.0
H107 H 0.57965 0.69813 0.89468 0.0
Cd108 Cd 0.33891 0.77806 0.50752 0.0
Cd109 Cd 0.12389 0.71083 0.51447 0.0
C110 C 0.39753 0.81305 0.44227 0.0
N111 N 0.35862 0.77844 0.45386 0.0
C112 C 0.35742 0.74345 0.40405 0.0
C113 C 0.39959 0.77817 0.3916 0.0
C114 C 0.41859 0.81364 0.41107 0.0
C115 C 0.33755 0.74422 0.43541 0.0
H116 H 0.41411 0.83963 0.45755 0.0
H117 H 0.30655 0.71705 0.44508 0.0
C118 C 0.29118 0.66152 0.50344 0.0
C119 C 0.16472 0.70497 0.58691 0.0
C120 C 0.14755 0.71083 0.61837 0.0
C121 C 0.10655 0.74761 0.62781 0.0
C122 C 0.09031 0.77962 0.60553 0.0
C123 C 0.10734 0.77214 0.5744 0.0
N124 N 0.14237 0.7348 0.56558 0.0
H125 H 0.18952 0.67465 0.5792 0.0
H126 H 0.08637 0.79439 0.55718 0.0
C127 C 0.06084 0.67194 0.45075 0.0
N128 N 0.10778 0.70401 0.46094 0.0
C129 C 0.12145 0.73167 0.40941 0.0
C130 C 0.07066 0.69999 0.39836 0.0
C131 C 0.04151 0.66927 0.41942 0.0
C132 C 0.13924 0.73312 0.44096 0.0
H133 H 0.03675 0.64918 0.46717 0.0
H134 H 0.17647 0.7583 0.4496 0.0
C135 C 0.16941 0.82579 0.49963 0.0
C136 C 0.47752 0.81284 0.52723 0.0
N137 N 0.32246 0.75904 0.55951 0.0
C138 C 0.29387 0.7894 0.57928 0.0
C139 C 0.30812 0.78693 0.61117 0.0
C140 C 0.35334 0.75333 0.6226 0.0
C141 C 0.37768 0.72089 0.60182 0.0
C142 C 0.36262 0.72477 0.57024 0.0
C143 C -0.01682 0.67983 0.53464 0.0
O144 O 0.32294 0.69885 0.50336 0.0
O145 O 0.22201 0.65783 0.50839 0.0
O146 O 0.13818 0.78888 0.5041 0.0
O147 O 0.23949 0.82979 0.50039 0.0
O148 O 0.47298 0.77991 0.50922 0.0
O149 O 0.4178 0.83232 0.53381 0.0
O150 O -0.01016 0.71114 0.51558 0.0
O151 O 0.04176 0.66006 0.54235 0.0
H152 H 0.26526 0.81748 0.57004 0.0
H153 H 0.38888 0.70252 0.55416 0.0
H154 H 0.34059 0.71576 0.38979 0.0
H155 H 0.45173 0.84086 0.40261 0.0
H156 H 0.16081 0.68505 0.63457 0.0
H157 H 0.0601 0.8089 0.61169 0.0
H158 H 0.14493 0.75621 0.39411 0.0
H159 H 0.00321 0.64382 0.41186 0.0
H160 H 0.2889 0.81296 0.62623 0.0
H161 H 0.4122 0.69425 0.6096 0.0
Cd162 Cd 0.8295 0.28005 0.52085 0.0
Cd163 Cd 0.63067 0.20502 0.52156 0.0
C164 C 0.76737 0.29367 0.45128 0.0
N165 N 0.8104 0.26638 0.46826 0.0
C166 C 0.85966 0.23424 0.42204 0.0
C167 C 0.81635 0.26223 0.40385 0.0
C168 C 0.76914 0.29194 0.41889 0.0
C169 C 0.85641 0.23721 0.45432 0.0
H170 H 0.73381 0.31797 0.46277 0.0
H171 H 0.89356 0.21781 0.4682 0.0
C172 C 0.80245 0.16136 0.52064 0.0
C173 C 0.63759 0.16863 0.591 0.0
C174 C 0.63059 0.16889 0.6233 0.0
C175 C 0.6313 0.20902 0.63953 0.0
C176 C 0.64415 0.24777 0.6228 0.0
C177 C 0.65094 0.24597 0.59058 0.0
N178 N 0.64581 0.20692 0.57533 0.0
H179 H 0.63272 0.13809 0.57825 0.0
H180 H 0.65691 0.27607 0.57781 0.0
C181 C 0.68947 0.18828 0.45172 0.0
N182 N 0.64764 0.21647 0.46869 0.0
C183 C 0.59452 0.24579 0.42249 0.0
C184 C 0.63627 0.21664 0.40433 0.0
C185 C 0.68511 0.18809 0.41938 0.0
C186 C 0.60061 0.24486 0.45476 0.0
H187 H 0.72388 0.16459 0.46319 0.0
H188 H 0.56461 0.26508 0.46874 0.0
C189 C 0.65568 0.32356 0.52193 0.0
C190 C 0.97286 0.31503 0.50828 0.0
N191 N 0.82605 0.27785 0.57521 0.0
C192 C 0.82459 0.31612 0.59151 0.0
C193 C 0.83664 0.31623 0.62361 0.0
C194 C 0.85071 0.27657 0.63896 0.0
C195 C 0.84834 0.23746 0.62166 0.0
C196 C 0.83639 0.23888 0.58973 0.0
C197 C 0.4867 0.16868 0.51208 0.0
O198 O 0.82851 0.20015 0.51999 0.0
O199 O 0.7331 0.15439 0.52246 0.0
O200 O 0.62819 0.28506 0.52125 0.0
O201 O 0.72539 0.32985 0.52303 0.0
O202 O 0.96278 0.28272 0.52617 0.0
O203 O 0.91556 0.33424 0.49854 0.0
O204 O 0.49764 0.2019 0.52926 0.0
O205 O 0.54355 0.14947 0.50176 0.0
H206 H 0.81743 0.34676 0.57938 0.0
H207 H 0.83888 0.20886 0.57652 0.0
H208 H 0.89844 0.21175 0.41148 0.0
H209 H 0.7347 0.31407 0.40577 0.0
H210 H 0.62195 0.13814 0.63529 0.0
H211 H 0.64454 0.27951 0.63418 0.0
H212 H 0.55462 0.26751 0.41203 0.0
H213 H 0.71869 0.16523 0.40635 0.0
H214 H 0.83726 0.34714 0.63608 0.0
H215 H 0.85995 0.20617 0.63229 0.0
C216 C 0.63779 0.17887 0.98868 0.0
C217 C 0.56742 0.17718 0.97506 0.0
C218 C 0.6996 0.18946 0.97066 0.0
C219 C 0.69098 0.20032 0.93923 0.0
C220 C 0.62148 0.19546 0.92508 0.0
C221 C 0.56002 0.18316 0.94288 0.0
C222 C 0.75049 0.22608 0.92448 0.0
C223 C 0.74371 0.27 0.92499 0.0
C224 C 0.80292 0.29505 0.94069 0.0
C225 C 0.87299 0.29996 0.92707 0.0
C226 C 0.93456 0.30935 0.94571 0.0
C227 C 0.92647 0.31241 0.9781 0.0
H228 H 0.73997 0.29972 0.98334 0.0
C229 C 0.85549 0.31166 0.99121 0.0
C230 C 0.79375 0.30393 0.97245 0.0
H231 H 0.84842 0.31335 0.01616 0.0
H232 H 0.6442 0.17496 0.01351 0.0
H233 H 0.75287 0.19369 0.98198 0.0
H234 H 0.6139 0.20424 0.90096 0.0
H235 H 0.50568 0.18276 0.93214 0.0
H236 H 0.80578 0.21226 0.92606 0.0
H237 H 0.68834 0.2837 0.92667 0.0
H238 H 0.88086 0.29294 0.90263 0.0
H239 H -0.0108 0.30914 0.93526 0.0
C240 C 0.0969 0.67676 0.01111 0.0
C241 C 0.03363 0.67043 0.99271 0.0
C242 C 0.1645 0.68724 0.99718 0.0
C243 C 0.16839 0.69286 0.96493 0.0
C244 C 0.10748 0.68159 0.94633 0.0
C245 C 0.04051 0.66946 0.96021 0.0
C246 C 0.22841 0.72049 0.95264 0.0
C247 C 0.2156 0.76356 0.94891 0.0
C248 C 0.27614 0.79462 0.95552 0.0
C249 C 0.28221 0.81123 0.98584 0.0
C250 C 0.35065 0.82619 0.99682 0.0
C251 C 0.41253 0.82598 0.97717 0.0
H252 H 0.33165 0.78612 0.91149 0.0
C253 C 0.40339 0.81568 0.94555 0.0
C254 C 0.33561 0.79911 0.93488 0.0
H255 H 0.45083 0.81469 0.93012 0.0
H256 H 0.09246 0.67799 0.03618 0.0
H257 H 0.21124 0.69612 0.0118 0.0
H258 H 0.10974 0.68607 0.92141 0.0
H259 H -0.00794 0.66521 0.94558 0.0
H260 H 0.28495 0.70912 0.9556 0.0
H261 H 0.15916 0.77568 0.95025 0.0
H262 H 0.23662 0.80764 1.00205 0.0
H263 H 0.3569 0.83355 0.02131 0.0
C264 C 0.61396 0.82002 0.53166 0.0
C265 C 0.54433 0.81921 0.546 0.0
C266 C 0.67725 0.81024 0.54877 0.0
C267 C 0.67092 0.79773 0.57998 0.0
C268 C 0.60225 0.80062 0.59501 0.0
C269 C 0.53928 0.81214 0.57816 0.0
C270 C 0.73184 0.77239 0.59343 0.0
C271 C 0.72401 0.72849 0.59464 0.0
C272 C 0.78604 0.70155 0.5837 0.0
C273 C 0.78202 0.68457 0.5534 0.0
C274 C 0.8466 0.67266 0.5378 0.0
C275 C 0.91515 0.67583 0.55289 0.0
H276 H 0.85774 0.71462 0.62297 0.0
C277 C 0.91789 0.68755 0.58447 0.0
C278 C 0.85366 0.70117 0.5997 0.0
H279 H 0.97068 0.69103 0.59629 0.0
H280 H 0.61865 0.82473 0.50682 0.0
H281 H 0.72988 0.80767 0.53678 0.0
H282 H 0.59644 0.79068 0.619 0.0
H283 H 0.48567 0.81054 0.58949 0.0
H284 H 0.78725 0.78654 0.59143 0.0
H285 H 0.66873 0.71414 0.59263 0.0
H286 H 0.73025 0.68517 0.54065 0.0
H287 H 0.84373 0.66441 0.51334 0.0
C288 C 0.10977 0.31894 0.50954 0.0
C289 C 0.04401 0.3194 0.49229 0.0
C290 C 0.17522 0.30453 0.49579 0.0
C291 C 0.17452 0.28884 0.46512 0.0
C292 C 0.11072 0.2934 0.44696 0.0
C293 C 0.04593 0.30954 0.46038 0.0
C294 C 0.2338 0.25896 0.45563 0.0
C295 C 0.2213 0.21552 0.45803 0.0
C296 C 0.28164 0.1879 0.46941 0.0
C297 C 0.28324 0.17823 0.50121 0.0
C298 C 0.3497 0.16641 0.51528 0.0
C299 C 0.41417 0.16253 0.4974 0.0
H300 H 0.34374 0.18755 0.4265 0.0
C301 C 0.40989 0.16633 0.46494 0.0
C302 C 0.34411 0.17987 0.45103 0.0
H303 H 0.45945 0.16424 0.45079 0.0
H304 H 0.109 0.32572 0.53425 0.0
H305 H 0.22409 0.3008 0.51014 0.0
H306 H 0.10927 0.28106 0.42335 0.0
H307 H -0.00471 0.30887 0.44684 0.0
H308 H 0.29041 0.27153 0.45662 0.0
H309 H 0.16487 0.2035 0.46134 0.0
H310 H 0.2354 0.18466 0.5157 0.0
H311 H 0.35221 0.16421 0.54035 0.0
C312 C 0.63688 0.58629 0.01591 0.0
C313 C 0.60311 0.62685 0.01023 0.0
C314 C 0.5945 0.54758 0.01712 0.0
C315 C 0.5171 0.5486 0.01272 0.0
C316 C 0.48377 0.58918 1.00682 0.0
C317 C 0.52601 0.62777 1.00566 0.0
C318 C 0.46851 0.50871 0.01358 0.0
C319 C 0.48918 0.46884 0.02382 0.0
C320 C 0.43735 0.43045 0.02492 0.0
C321 C 0.46592 0.38774 0.02359 0.0
C322 C 0.4184 0.35108 0.02405 0.0
C323 C 0.34119 0.35643 0.02604 0.0
H324 H 0.3359 0.4677 0.03047 0.0
C325 C 0.31293 0.39913 0.02838 0.0
C326 C 0.36025 0.43561 0.02799 0.0
H327 H 0.25387 0.40457 0.03041 0.0
H328 H 0.69621 0.58436 0.01943 0.0
H329 H 0.62316 0.51721 0.02118 0.0
H330 H 0.42445 0.59118 1.0032 0.0
H331 H 0.498 0.65834 1.00113 0.0
H332 H 0.41218 0.51287 1.00534 0.0
H333 H 0.54573 0.46339 0.03122 0.0
H334 H 0.52512 0.38271 0.0217 0.0
H335 H 0.44214 0.31866 0.02255 0.0
C336 C 0.63412 0.4043 0.5183 0.0
C337 C 0.60543 0.36146 0.52054 0.0
C338 C 0.58657 0.4399 0.51561 0.0
C339 C 0.50926 0.43333 0.51501 0.0
C340 C 0.48057 0.3907 0.51814 0.0
C341 C 0.5281 0.35505 0.52066 0.0
C342 C 0.45717 0.47035 0.51234 0.0
C343 C 0.47435 0.50765 0.49726 0.0
C344 C 0.42504 0.5462 0.49667 0.0
C345 C 0.45717 0.58798 0.49347 0.0
C346 C 0.41352 0.62542 0.49506 0.0
C347 C 0.33652 0.62178 0.49959 0.0
H348 H 0.3204 0.51069 0.50102 0.0
C349 C 0.30382 0.57986 0.50127 0.0
C350 C 0.34758 0.5424 0.49975 0.0
H351 H 0.2445 0.57591 0.50422 0.0
H352 H 0.69337 0.4104 0.51842 0.0
H353 H 0.61067 0.47248 0.51446 0.0
H354 H 0.42121 0.38488 0.51819 0.0
H355 H 0.50411 0.32247 0.52253 0.0
H356 H 0.40332 0.46644 0.52328 0.0
H357 H 0.52823 0.51117 0.48624 0.0
H358 H 0.51659 0.59176 0.49065 0.0
H359 H 0.44045 0.65722 0.49331 0.0
C360 C 0.09254 0.12084 0.04156 0.0
C361 C 0.13693 0.13224 0.01606 0.0
C362 C 0.03797 0.08805 0.03856 0.0
C363 C 0.02659 0.06666 0.00989 0.0
C364 C 0.06881 0.07971 0.98414 0.0
C365 C 0.12457 0.11153 0.98736 0.0
C366 C 0.97324 0.02958 1.00634 0.0
C367 C 0.9668 -0.0022 0.02779 0.0
C368 C 0.9222 0.95712 0.02277 0.0
C369 C 0.94679 0.91777 0.03581 0.0
C370 C 0.90698 0.8787 0.0313 0.0
C371 C 0.84056 0.87829 0.01424 0.0
H372 H 0.83446 0.98678 0.99582 0.0
C373 C 0.81509 0.91784 1.00163 0.0
C374 C 0.85575 0.95684 1.00566 0.0
H375 H 0.76395 0.91863 0.98849 0.0
H376 H 0.10208 0.13588 0.06403 0.0
H377 H 0.00541 0.07904 0.05871 0.0
H378 H 0.06094 0.06386 0.9618 0.0
H379 H 0.15885 0.11954 0.96749 0.0
H380 H 0.94551 0.02568 0.98409 0.0
H381 H 0.00096 -0.00036 0.04856 0.0
H382 H -0.00243 0.91712 0.04922 0.0
H383 H 0.92775 0.8489 0.0416 0.0
C384 C 0.82594 0.08087 0.51682 0.0
C385 C 0.85361 0.12403 0.51797 0.0
C386 C 0.87394 0.04573 0.51278 0.0
C387 C 0.9507 0.05306 0.50963 0.0
C388 C 0.97858 0.09605 0.51166 0.0
C389 C 0.93055 0.13126 0.5156 0.0
C390 C 0.00322 0.01644 0.50562 0.0
C391 C -0.01593 0.97825 0.49189 0.0
C392 C 0.03346 0.93978 0.49111 0.0
C393 C 0.00125 0.89777 0.49124 0.0
C394 C 0.04549 0.86066 0.49335 0.0
C395 C 0.12307 0.86486 0.49496 0.0
H396 H 0.13801 0.97581 0.48988 0.0
C397 C 0.15554 0.90684 0.49311 0.0
C398 C 0.11119 0.94399 0.49117 0.0
H399 H 0.21519 0.91114 0.49378 0.0
H400 H 0.76708 0.07414 0.5189 0.0
H401 H 0.85064 0.0129 0.51264 0.0
H402 H 0.0376 0.10248 0.50978 0.0
H403 H 0.95376 0.16414 0.51655 0.0
H404 H 0.05885 0.0212 0.51474 0.0
H405 H 0.92847 0.97376 0.48268 0.0
H406 H 0.94151 0.89367 0.49081 0.0
H407 H 0.01868 0.82875 0.49433 0.0
C408 C 0.61132 0.25177 0.35269 0.0
C409 C 0.62462 0.21387 0.37022 0.0
C410 C 0.59294 0.24853 0.32122 0.0
C411 C 0.58764 0.20724 0.30662 0.0
C412 C 0.60469 0.16966 0.32373 0.0
C413 C 0.62242 0.17284 0.3552 0.0
C414 C 0.56411 0.20182 0.27378 0.0
C415 C 0.5175 0.22948 0.25947 0.0
C416 C 0.48995 0.22271 0.22722 0.0
C417 C 0.46374 0.25896 0.21069 0.0
C418 C 0.43785 0.25411 0.18027 0.0
C419 C 0.43706 0.21273 0.16574 0.0
H420 H 0.50375 0.1519 0.22525 0.0
C421 C 0.46127 0.17621 0.18259 0.0
C422 C 0.48715 0.18105 0.21299 0.0
H423 H 0.45979 0.14373 0.17232 0.0
H424 H 0.61455 0.28396 0.36336 0.0
H425 H 0.58307 0.27839 0.30848 0.0
H426 H 0.60176 0.13749 0.31298 0.0
H427 H 0.63166 0.14289 0.36796 0.0
H428 H 0.58344 0.17281 0.2617 0.0
H429 H 0.49834 0.25844 0.27172 0.0
H430 H 0.46443 0.29134 0.22116 0.0
H431 H 0.4202 0.28301 0.16788 0.0
C432 C 0.62668 0.7629 0.17467 0.0
C433 C 0.61254 0.79739 0.15397 0.0
C434 C 0.6039 0.76549 0.20567 0.0
C435 C 0.56644 0.80275 0.21669 0.0
C436 C 0.55528 0.83791 0.19641 0.0
C437 C 0.57747 0.83519 0.1654 0.0
C438 C 0.53841 0.80635 0.24906 0.0
C439 C 0.51622 0.77143 0.2659 0.0
C440 C 0.48488 0.77443 0.29789 0.0
C441 C 0.48225 0.73634 0.31607 0.0
C442 C 0.45366 0.73739 0.34623 0.0
C443 C 0.42655 0.77662 0.35896 0.0
H444 H 0.45427 0.84337 0.297 0.0
C445 C 0.42765 0.81459 0.34059 0.0
C446 C 0.45612 0.81353 0.31039 0.0
H447 H 0.40586 0.84514 0.34948 0.0
H448 H 0.65486 0.73368 0.16685 0.0
H449 H 0.61604 0.73837 0.22089 0.0
H450 H 0.52713 0.86713 0.20433 0.0
H451 H 0.56459 0.86219 0.15016 0.0
H452 H 0.53337 0.83918 0.25853 0.0
H453 H 0.52099 0.73881 0.25592 0.0
H454 H 0.50335 0.70566 0.30707 0.0
H455 H 0.45439 0.70762 0.35982 0.0
C456 C 0.45777 0.74552 0.66052 0.0
C457 C 0.38275 0.75498 0.65489 0.0
C458 C 0.48752 0.74909 0.69036 0.0
C459 C 0.44292 0.76208 0.7155 0.0
C460 C 0.36808 0.77185 0.70987 0.0
C461 C 0.33822 0.76827 0.67993 0.0
C462 C 0.4734 0.76758 0.74746 0.0
C463 C 0.53436 0.74675 0.75771 0.0
C464 C 0.56414 0.75192 0.78975 0.0
C465 C 0.60336 0.71714 0.80304 0.0
C466 C 0.62943 0.72007 0.83357 0.0
C467 C 0.61813 0.75825 0.85121 0.0
H468 H 0.52738 0.81878 0.79729 0.0
C469 C 0.5821 0.79389 0.83747 0.0
C470 C 0.55521 0.79077 0.80707 0.0
H471 H 0.57225 0.82362 0.85064 0.0
H472 H 0.49442 0.73658 0.64166 0.0
H473 H 0.54602 0.74285 0.6933 0.0
H474 H 0.33251 0.78231 0.72872 0.0
H475 H 0.28034 0.77592 0.6764 0.0
H476 H 0.4425 0.78814 0.76343 0.0
H477 H 0.56124 0.72287 0.74284 0.0
H478 H 0.61204 0.68709 0.79008 0.0
H479 H 0.65737 0.69222 0.8436 0.0
C480 C 0.45947 0.24019 0.8645 0.0
C481 C 0.38393 0.23265 0.87076 0.0
C482 C 0.48736 0.23579 0.83446 0.0
C483 C 0.4401 0.22412 0.80968 0.0
C484 C 0.3644 0.21694 0.81596 0.0
C485 C 0.33664 0.22098 0.84615 0.0
C486 C 0.46733 0.21743 0.77732 0.0
C487 C 0.53609 0.22827 0.76736 0.0
C488 C 0.56198 0.22103 0.73496 0.0
C489 C 0.62114 0.24659 0.72361 0.0
C490 C 0.64532 0.2419 0.69296 0.0
C491 C 0.61137 0.21112 0.67301 0.0
H492 H 0.48612 0.16747 0.72343 0.0
C493 C 0.55408 0.18433 0.68475 0.0
C494 C 0.52991 0.18903 0.71537 0.0
H495 H 0.52611 0.16054 0.67002 0.0
H496 H 0.49787 0.24802 0.88308 0.0
H497 H 0.54625 0.24055 0.83129 0.0
H498 H 0.32657 0.20765 0.79748 0.0
H499 H 0.27832 0.21467 0.85026 0.0
H500 H 0.42772 0.20383 0.76085 0.0
H501 H 0.57451 0.24498 0.78281 0.0
H502 H 0.64778 0.27098 0.73832 0.0
H503 H 0.6901 0.26275 0.6848 0.0
C504 C 0.96989 0.69326 0.35839 0.0
C505 C 0.04509 0.70047 0.36553 0.0
C506 C 0.9446 0.69572 0.3278 0.0
C507 C -0.00585 0.70524 0.3034 0.0
C508 C 0.06947 0.71203 0.31059 0.0
C509 C 0.09468 0.70972 0.34123 0.0
C510 C 0.9701 0.70996 0.27043 0.0
C511 C 0.90124 0.70078 0.25972 0.0
C512 C 0.87886 0.70673 0.22674 0.0
C513 C 0.81825 0.68253 0.21503 0.0
C514 C 0.79658 0.68655 0.184 0.0
C515 C 0.83452 0.71537 0.16405 0.0
H516 H 0.96059 0.75703 0.21522 0.0
C517 C 0.8937 0.74059 0.17603 0.0
C518 C 0.91541 0.73652 0.20698 0.0
H519 H 0.92466 0.76285 0.16129 0.0
H520 H 0.92988 0.68691 0.37661 0.0
H521 H 0.88597 0.69099 0.32384 0.0
H522 H 0.10913 0.71951 0.29243 0.0
H523 H 0.15308 0.71511 0.34586 0.0
H524 H 0.01223 0.72089 0.25415 0.0
H525 H 0.8598 0.68683 0.27505 0.0
H526 H 0.78823 0.65987 0.22982 0.0
H527 H 0.75018 0.66706 0.17561 0.0
C528 C 0.83405 0.22305 0.35295 0.0
C529 C 0.82469 0.26242 0.36955 0.0
C530 C 0.85031 0.22367 0.32122 0.0
C531 C 0.85775 0.26379 0.30545 0.0
C532 C 0.84419 0.3029 0.32169 0.0
C533 C 0.82822 0.30229 0.35339 0.0
C534 C 0.88101 0.26657 0.2724 0.0
C535 C 0.9223 0.23589 0.25806 0.0
C536 C 0.95148 0.24094 0.22597 0.0
C537 C 0.96856 0.20326 0.20863 0.0
C538 C -0.00291 0.20678 0.17853 0.0
C539 C 0.0099 0.24817 0.16522 0.0
H540 H 0.95648 0.31224 0.2259 0.0
C541 C -0.00552 0.28588 0.18289 0.0
C542 C 0.96577 0.28237 0.21289 0.0
H543 H 0.0055 0.31828 0.17369 0.0
H544 H 0.82965 0.19173 0.36459 0.0
H545 H 0.85722 0.19269 0.30928 0.0
H546 H 0.84873 0.33424 0.31007 0.0
H547 H 0.82174 0.33325 0.36546 0.0
H548 H 0.86675 0.29629 0.26009 0.0
H549 H 0.93635 0.20597 0.27015 0.0
H550 H 0.95897 0.17095 0.21826 0.0
H551 H 0.00784 0.17704 0.16552 0.0
C552 C 0.09276 0.23976 0.85052 0.0
C553 C 0.04943 0.22988 0.87679 0.0
C554 C 0.06011 0.24324 0.82116 0.0
C555 C -0.01685 0.23702 0.81742 0.0
C556 C 0.94031 0.22602 0.84344 0.0
C557 C 0.97276 0.22278 0.87273 0.0
C558 C 0.94565 0.24059 0.78679 0.0
C559 C 0.97175 0.26547 0.76335 0.0
C560 C 0.93459 0.26929 0.73258 0.0
C561 C 0.95496 0.30419 0.71312 0.0
C562 C 0.92535 0.30758 0.68325 0.0
C563 C 0.87479 0.27594 0.672 0.0
H564 H 0.8663 0.21011 0.73534 0.0
C565 C 0.85302 0.24153 0.69171 0.0
C566 C 0.88264 0.2381 0.72158 0.0
H567 H 0.81402 0.21664 0.68383 0.0
H568 H 0.152 0.24482 0.85257 0.0
H569 H 0.09552 0.2503 0.8015 0.0
H570 H 0.88102 0.22082 0.84125 0.0
H571 H 0.93692 0.216 0.89231 0.0
H572 H 0.8926 0.22388 0.78435 0.0
H573 H 0.02147 0.28517 0.76703 0.0
H574 H -0.00489 0.32856 0.72081 0.0
H575 H 0.94453 0.33407 0.66855 0.0
C576 C 0.11025 0.73472 0.68582 0.0
C577 C 0.07285 0.75013 0.65942 0.0
C578 C 0.07617 0.73569 0.7151 0.0
C579 C 0.00382 0.75206 0.71857 0.0
C580 C 0.96701 0.7678 0.6923 0.0
C581 C 0.00058 0.76646 0.66313 0.0
C582 C 0.96545 0.75456 0.74913 0.0
C583 C 0.97857 0.72696 0.7728 0.0
C584 C 0.93874 0.72896 0.80312 0.0
C585 C 0.93605 0.6913 0.82173 0.0
C586 C 0.9027 0.69234 0.85104 0.0
C587 C 0.87192 0.73129 0.86263 0.0
H588 H 0.9088 0.79787 0.80132 0.0
C589 C 0.87347 0.76886 0.84388 0.0
C590 C 0.90653 0.76779 0.81448 0.0
H591 H 0.85029 0.79937 0.85221 0.0
H592 H 0.16606 0.72223 0.68393 0.0
H593 H 0.10712 0.7243 0.73495 0.0
H594 H 0.91134 0.78058 0.69423 0.0
H595 H 0.96887 0.77746 0.64335 0.0
H596 H 0.92152 0.77846 0.75133 0.0
H597 H 0.01767 0.70048 0.76948 0.0
H598 H 0.96076 0.66103 0.81374 0.0
H599 H 0.90368 0.66303 0.86513 0.0
loop_
_geom_bond_atom_site_label_1
_geom_bond_atom_site_label_2
_geom_bond_distance
_geom_bond_site_symmetry_2
_ccdc_geom_bond_type
Cd0 N3 2.334 . S
Cd0 N29 2.304 1_554 S
Cd0 O36 2.268 . S
Cd0 O39 2.273 . S
Cd0 O40 2.417 . S
Cd0 O41 2.331 . S
Cd1 N16 2.304 1_554 S
Cd1 N20 2.334 . S
Cd1 O37 2.273 . S
Cd1 O38 2.268 . S
Cd1 O42 2.417 . S
Cd1 O43 2.331 . S
C2 N3 1.332 . S
C2 C6 1.381 . S
C2 H8 0.931 . S
N3 Cd0 2.334 . S
N3 C2 1.332 . S
N3 C7 1.328 . S
C4 C5 1.396 . S
C4 C7 1.378 . S
C4 H46 0.931 . S
C5 C4 1.396 . S
C5 C6 1.382 . S
C6 C2 1.381 . S
C6 C5 1.382 . S
C6 H47 0.930 . S
C7 N3 1.328 . S
C7 C4 1.378 . S
C7 H9 0.930 . S
H8 C2 0.931 . S
H9 C7 0.930 . S
C10 O36 1.238 . S
C10 O37 1.253 . S
C11 C12 1.379 . S
C11 N16 1.337 . S
C11 H17 0.929 . S
C12 C11 1.379 . S
C12 C13 1.380 . S
C12 H48 0.929 . S
C13 C12 1.380 . S
C13 C14 1.399 . S
C14 C13 1.399 . S
C14 C15 1.376 . S
C14 H49 0.931 . S
C15 C14 1.376 . S
C15 N16 1.338 . S
C15 H18 0.930 . S
N16 Cd1 2.304 1_556 S
N16 C11 1.337 . S
N16 C15 1.338 . S
H17 C11 0.929 . S
H18 C15 0.930 . S
C19 N20 1.332 . S
C19 C23 1.381 . S
C19 H25 0.931 . S
N20 Cd1 2.334 . S
N20 C19 1.332 . S
N20 C24 1.328 . S
C21 C22 1.396 . S
C21 C24 1.378 . S
C21 H50 0.931 . S
C22 C21 1.396 . S
C22 C23 1.382 . S
C23 C19 1.381 . S
C23 C22 1.382 . S
C23 H51 0.930 . S
C24 N20 1.328 . S
C24 C21 1.378 . S
C24 H26 0.930 . S
H25 C19 0.931 . S
H26 C24 0.930 . S
C27 O38 1.238 . S
C27 O39 1.253 . S
C28 O40 1.239 1_655 S
C28 O41 1.233 1_655 S
N29 Cd0 2.304 1_556 S
N29 C30 1.337 . S
N29 C34 1.338 . S
C30 N29 1.337 . S
C30 C31 1.379 . S
C30 H44 0.929 . S
C31 C30 1.379 . S
C31 C32 1.380 . S
C31 H52 0.929 . S
C32 C31 1.380 . S
C32 C33 1.399 . S
C33 C32 1.399 . S
C33 C34 1.376 . S
C33 H53 0.931 . S
C34 N29 1.338 . S
C34 C33 1.376 . S
C34 H45 0.930 . S
C35 O42 1.239 . S
C35 O43 1.233 . S
O36 Cd0 2.268 . S
O36 C10 1.238 . S
O37 Cd1 2.273 . S
O37 C10 1.253 . S
O38 Cd1 2.268 . S
O38 C27 1.238 . S
O39 Cd0 2.273 . S
O39 C27 1.253 . S
O40 Cd0 2.417 . S
O40 C28 1.239 1_455 S
O41 Cd0 2.331 . S
O41 C28 1.233 1_455 S
O42 Cd1 2.417 . S
O42 C35 1.239 . S
O43 Cd1 2.331 . S
O43 C35 1.233 . S
H44 C30 0.929 . S
H45 C34 0.930 . S
H46 C4 0.931 . S
H47 C6 0.930 . S
H48 C12 0.929 . S
H49 C14 0.931 . S
H50 C21 0.931 . S
H51 C23 0.930 . S
H52 C31 0.929 . S
H53 C33 0.931 . S
Cd54 N57 2.334 . S
Cd54 N83 2.304 1_554 S
Cd54 O90 2.268 . S
Cd54 O93 2.273 . S
Cd54 O94 2.417 . S
Cd54 O95 2.331 . S
Cd55 N70 2.304 1_554 S
Cd55 N74 2.334 . S
Cd55 O91 2.273 . S
Cd55 O92 2.268 . S
Cd55 O96 2.417 . S
Cd55 O97 2.331 . S
C56 N57 1.332 . S
C56 C60 1.381 . S
C56 H62 0.931 . S
N57 Cd54 2.334 . S
N57 C56 1.332 . S
N57 C61 1.328 . S
C58 C59 1.396 . S
C58 C61 1.378 . S
C58 H100 0.931 . S
C59 C58 1.396 . S
C59 C60 1.382 . S
C60 C56 1.381 . S
C60 C59 1.382 . S
C60 H101 0.930 . S
C61 N57 1.328 . S
C61 C58 1.378 . S
C61 H63 0.930 . S
H62 C56 0.931 . S
H63 C61 0.930 . S
C64 O90 1.238 . S
C64 O91 1.253 . S
C65 C66 1.379 . S
C65 N70 1.337 . S
C65 H71 0.929 . S
C66 C65 1.379 . S
C66 C67 1.380 . S
C66 H102 0.929 . S
C67 C66 1.380 . S
C67 C68 1.399 . S
C68 C67 1.399 . S
C68 C69 1.376 . S
C68 H103 0.931 . S
C69 C68 1.376 . S
C69 N70 1.338 . S
C69 H72 0.930 . S
N70 Cd55 2.304 1_556 S
N70 C65 1.337 . S
N70 C69 1.338 . S
H71 C65 0.929 . S
H72 C69 0.930 . S
C73 N74 1.332 . S
C73 C77 1.381 . S
C73 H79 0.931 . S
N74 Cd55 2.334 . S
N74 C73 1.332 . S
N74 C78 1.328 . S
C75 C76 1.396 . S
C75 C78 1.378 . S
C75 H104 0.931 . S
C76 C75 1.396 . S
C76 C77 1.382 . S
C77 C73 1.381 . S
C77 C76 1.382 . S
C77 H105 0.930 . S
C78 N74 1.328 . S
C78 C75 1.378 . S
C78 H80 0.930 . S
H79 C73 0.931 . S
H80 C78 0.930 . S
C81 O92 1.238 . S
C81 O93 1.253 . S
C82 O94 1.239 . S
C82 O95 1.233 . S
N83 Cd54 2.304 1_556 S
N83 C84 1.337 . S
N83 C88 1.338 . S
C84 N83 1.337 . S
C84 C85 1.379 . S
C84 H98 0.929 . S
C85 C84 1.379 . S
C85 C86 1.380 . S
C85 H106 0.929 . S
C86 C85 1.380 . S
C86 C87 1.399 . S
C87 C86 1.399 . S
C87 C88 1.376 . S
C87 H107 0.931 . S
C88 N83 1.338 . S
C88 C87 1.376 . S
C88 H99 0.930 . S
C89 O96 1.239 1_455 S
C89 O97 1.233 1_455 S
O90 Cd54 2.268 . S
O90 C64 1.238 . S
O91 Cd55 2.273 . S
O91 C64 1.253 . S
O92 Cd55 2.268 . S
O92 C81 1.238 . S
O93 Cd54 2.273 . S
O93 C81 1.253 . S
O94 Cd54 2.417 . S
O94 C82 1.239 . S
O95 Cd54 2.331 . S
O95 C82 1.233 . S
O96 Cd55 2.417 . S
O96 C89 1.239 1_655 S
O97 Cd55 2.331 . S
O97 C89 1.233 1_655 S
H98 C84 0.929 . S
H99 C88 0.930 . S
H100 C58 0.931 . S
H101 C60 0.930 . S
H102 C66 0.929 . S
H103 C68 0.931 . S
H104 C75 0.931 . S
H105 C77 0.930 . S
H106 C85 0.929 . S
H107 C87 0.931 . S
Cd108 N111 2.334 . S
Cd108 N137 2.304 . S
Cd108 O144 2.268 . S
Cd108 O147 2.273 . S
Cd108 O148 2.417 . S
Cd108 O149 2.330 . S
Cd109 N124 2.304 . S
Cd109 N128 2.334 . S
Cd109 O145 2.273 . S
Cd109 O146 2.268 . S
Cd109 O150 2.417 . S
Cd109 O151 2.330 . S
C110 N111 1.332 . S
C110 C114 1.381 . S
C110 H116 0.931 . S
N111 Cd108 2.334 . S
N111 C110 1.332 . S
N111 C115 1.328 . S
C112 C113 1.396 . S
C112 C115 1.378 . S
C112 H154 0.931 . S
C113 C112 1.396 . S
C113 C114 1.382 . S
C114 C110 1.381 . S
C114 C113 1.382 . S
C114 H155 0.930 . S
C115 N111 1.328 . S
C115 C112 1.378 . S
C115 H117 0.930 . S
H116 C110 0.931 . S
H117 C115 0.930 . S
C118 O144 1.238 . S
C118 O145 1.253 . S
C119 C120 1.379 . S
C119 N124 1.337 . S
C119 H125 0.929 . S
C120 C119 1.379 . S
C120 C121 1.380 . S
C120 H156 0.929 . S
C121 C120 1.380 . S
C121 C122 1.399 . S
C122 C121 1.399 . S
C122 C123 1.376 . S
C122 H157 0.931 . S
C123 C122 1.376 . S
C123 N124 1.338 . S
C123 H126 0.930 . S
N124 Cd109 2.304 . S
N124 C119 1.337 . S
N124 C123 1.338 . S
H125 C119 0.929 . S
H126 C123 0.930 . S
C127 N128 1.332 . S
C127 C131 1.381 . S
C127 H133 0.931 . S
N128 Cd109 2.334 . S
N128 C127 1.332 . S
N128 C132 1.328 . S
C129 C130 1.396 . S
C129 C132 1.378 . S
C129 H158 0.931 . S
C130 C129 1.396 . S
C130 C131 1.382 . S
C131 C127 1.381 . S
C131 C130 1.382 . S
C131 H159 0.930 . S
C132 N128 1.328 . S
C132 C129 1.378 . S
C132 H134 0.930 . S
H133 C127 0.931 . S
H134 C132 0.930 . S
C135 O146 1.238 . S
C135 O147 1.253 . S
C136 O148 1.239 . S
C136 O149 1.230 . S
N137 Cd108 2.304 . S
N137 C138 1.337 . S
N137 C142 1.338 . S
C138 N137 1.337 . S
C138 C139 1.379 . S
C138 H152 0.929 . S
C139 C138 1.379 . S
C139 C140 1.380 . S
C139 H160 0.929 . S
C140 C139 1.380 . S
C140 C141 1.399 . S
C141 C140 1.399 . S
C141 C142 1.376 . S
C141 H161 0.931 . S
C142 N137 1.338 . S
C142 C141 1.376 . S
C142 H153 0.930 . S
C143 O150 1.239 1_655 S
C143 O151 1.230 1_655 S
O144 Cd108 2.268 . S
O144 C118 1.238 . S
O145 Cd109 2.273 . S
O145 C118 1.253 . S
O146 Cd109 2.268 . S
O146 C135 1.238 . S
O147 Cd108 2.273 . S
O147 C135 1.253 . S
O148 Cd108 2.417 . S
O148 C136 1.239 . S
O149 Cd108 2.330 . S
O149 C136 1.230 . S
O150 Cd109 2.417 . S
O150 C143 1.239 1_455 S
O151 Cd109 2.330 . S
O151 C143 1.230 1_455 S
H152 C138 0.929 . S
H153 C142 0.930 . S
H154 C112 0.931 . S
H155 C114 0.930 . S
H156 C120 0.929 . S
H157 C122 0.931 . S
H158 C129 0.931 . S
H159 C131 0.930 . S
H160 C139 0.929 . S
H161 C141 0.931 . S
Cd162 N165 2.334 . S
Cd162 N191 2.304 . S
Cd162 O198 2.268 . S
Cd162 O201 2.273 . S
Cd162 O202 2.417 . S
Cd162 O203 2.330 . S
Cd163 N178 2.304 . S
Cd163 N182 2.334 . S
Cd163 O199 2.273 . S
Cd163 O200 2.268 . S
Cd163 O204 2.417 . S
Cd163 O205 2.330 . S
C164 N165 1.332 . S
C164 C168 1.381 . S
C164 H170 0.931 . S
N165 Cd162 2.334 . S
N165 C164 1.332 . S
N165 C169 1.328 . S
C166 C167 1.396 . S
C166 C169 1.378 . S
C166 H208 0.931 . S
C167 C166 1.396 . S
C167 C168 1.382 . S
C168 C164 1.381 . S
C168 C167 1.382 . S
C168 H209 0.930 . S
C169 N165 1.328 . S
C169 C166 1.378 . S
C169 H171 0.930 . S
H170 C164 0.931 . S
H171 C169 0.930 . S
C172 O198 1.238 . S
C172 O199 1.253 . S
C173 C174 1.379 . S
C173 N178 1.337 . S
C173 H179 0.929 . S
C174 C173 1.379 . S
C174 C175 1.380 . S
C174 H210 0.929 . S
C175 C174 1.380 . S
C175 C176 1.399 . S
C176 C175 1.399 . S
C176 C177 1.376 . S
C176 H211 0.931 . S
C177 C176 1.376 . S
C177 N178 1.338 . S
C177 H180 0.930 . S
N178 Cd163 2.304 . S
N178 C173 1.337 . S
N178 C177 1.338 . S
H179 C173 0.929 . S
H180 C177 0.930 . S
C181 N182 1.332 . S
C181 C185 1.381 . S
C181 H187 0.931 . S
N182 Cd163 2.334 . S
N182 C181 1.332 . S
N182 C186 1.328 . S
C183 C184 1.396 . S
C183 C186 1.378 . S
C183 H212 0.931 . S
C184 C183 1.396 . S
C184 C185 1.382 . S
C185 C181 1.381 . S
C185 C184 1.382 . S
C185 H213 0.930 . S
C186 N182 1.328 . S
C186 C183 1.378 . S
C186 H188 0.930 . S
H187 C181 0.931 . S
H188 C186 0.930 . S
C189 O200 1.238 . S
C189 O201 1.253 . S
C190 O202 1.239 1_455 S
C190 O203 1.230 1_455 S
N191 Cd162 2.304 . S
N191 C192 1.337 . S
N191 C196 1.338 . S
C192 N191 1.337 . S
C192 C193 1.379 . S
C192 H206 0.929 . S
C193 C192 1.379 . S
C193 C194 1.380 . S
C193 H214 0.929 . S
C194 C193 1.380 . S
C194 C195 1.399 . S
C195 C194 1.399 . S
C195 C196 1.376 . S
C195 H215 0.931 . S
C196 N191 1.338 . S
C196 C195 1.376 . S
C196 H207 0.930 . S
C197 O204 1.239 . S
C197 O205 1.230 . S
O198 Cd162 2.268 . S
O198 C172 1.238 . S
O199 Cd163 2.273 . S
O199 C172 1.253 . S
O200 Cd163 2.268 . S
O200 C189 1.238 . S
O201 Cd162 2.273 . S
O201 C189 1.253 . S
O202 Cd162 2.417 . S
O202 C190 1.239 1_655 S
O203 Cd162 2.330 . S
O203 C190 1.230 1_655 S
O204 Cd163 2.417 . S
O204 C197 1.239 . S
O205 Cd163 2.330 . S
O205 C197 1.230 . S
H206 C192 0.929 . S
H207 C196 0.930 . S
H208 C166 0.931 . S
H209 C168 0.930 . S
H210 C174 0.929 . S
H211 C176 0.931 . S
H212 C183 0.931 . S
H213 C185 0.930 . S
H214 C193 0.929 . S
H215 C195 0.931 . S
C216 C217 1.385 1_556 S
C216 C218 1.383 . S
C216 H232 0.950 1_556 S
C217 C216 1.385 1_554 S
C217 C221 1.381 1_554 S
C218 C216 1.383 . S
C218 C219 1.402 . S
C218 H233 0.951 . S
C219 C218 1.402 . S
C219 C220 1.375 . S
C219 C222 1.481 . S
C220 C219 1.375 . S
C220 C221 1.370 . S
C220 H234 0.951 . S
C221 C217 1.381 1_556 S
C221 C220 1.370 . S
C221 H235 0.950 . S
C222 C219 1.481 . S
C222 C223 1.297 . S
C222 H236 0.950 . S
C223 C222 1.297 . S
C223 C224 1.479 . S
C223 H237 0.950 . S
C224 C223 1.479 . S
C224 C225 1.375 . S
C224 C230 1.404 . S
C225 C224 1.375 . S
C225 C226 1.369 . S
C225 H238 0.950 . S
C226 C225 1.369 . S
C226 C227 1.392 1_655 S
C226 H239 0.947 1_656 S
C227 C226 1.392 1_455 S
C227 C229 1.384 1_455 S
H228 C230 0.949 . S
C229 C227 1.384 1_655 S
C229 C230 1.385 . S
C229 H231 0.950 . S
C230 C224 1.404 . S
C230 H228 0.949 . S
C230 C229 1.385 . S
H231 C229 0.950 . S
H232 C216 0.950 1_554 S
H233 C218 0.951 . S
H234 C220 0.951 . S
H235 C221 0.950 . S
H236 C222 0.950 . S
H237 C223 0.950 . S
H238 C225 0.950 . S
H239 C226 0.947 1_454 S
C240 C241 1.386 1_455 S
C240 C242 1.383 . S
C240 H256 0.951 . S
C241 C240 1.386 1_655 S
C241 C245 1.383 1_654 S
C242 C240 1.383 . S
C242 C243 1.402 1_554 S
C242 H257 0.951 . S
C243 C242 1.402 1_556 S
C243 C244 1.375 . S
C243 C246 1.481 . S
C244 C243 1.375 . S
C244 C245 1.367 . S
C244 H258 0.951 . S
C245 C241 1.383 1_456 S
C245 C244 1.367 . S
C245 H259 0.950 . S
C246 C243 1.481 . S
C246 C247 1.297 1_556 S
C246 H260 0.950 . S
C247 C246 1.297 1_554 S
C247 C248 1.479 . S
C247 H261 0.950 . S
C248 C247 1.479 . S
C248 C249 1.375 . S
C248 C254 1.404 1_554 S
C249 C248 1.375 . S
C249 C250 1.369 . S
C249 H262 0.950 . S
C250 C249 1.369 . S
C250 C251 1.392 . S
C250 H263 0.951 . S
C251 C250 1.392 . S
C251 C253 1.384 1_554 S
H252 C254 0.949 . S
C253 C251 1.384 1_556 S
C253 C254 1.385 . S
C253 H255 0.950 . S
C254 C248 1.404 1_556 S
C254 H252 0.949 . S
C254 C253 1.385 . S
H255 C253 0.950 . S
H256 C240 0.951 . S
H257 C242 0.951 . S
H258 C244 0.951 . S
H259 C245 0.950 . S
H260 C246 0.950 . S
H261 C247 0.950 . S
H262 C249 0.950 . S
H263 C250 0.951 . S
C264 C265 1.386 . S
C264 C266 1.383 . S
C264 H280 0.951 . S
C265 C264 1.386 . S
C265 C269 1.383 . S
C266 C264 1.383 . S
C266 C267 1.402 . S
C266 H281 0.951 . S
C267 C266 1.402 . S
C267 C268 1.375 . S
C267 C270 1.481 . S
C268 C267 1.375 . S
C268 C269 1.367 . S
C268 H282 0.951 . S
C269 C265 1.383 . S
C269 C268 1.367 . S
C269 H283 0.950 . S
C270 C267 1.481 . S
C270 C271 1.297 . S
C270 H284 0.950 . S
C271 C270 1.297 . S
C271 C272 1.479 . S
C271 H285 0.950 . S
C272 C271 1.479 . S
C272 C273 1.375 . S
C272 C278 1.404 . S
C273 C272 1.375 . S
C273 C274 1.369 . S
C273 H286 0.950 . S
C274 C273 1.369 . S
C274 C275 1.392 1_655 S
C274 H287 0.951 1_655 S
C275 C274 1.392 1_455 S
C275 C277 1.384 1_455 S
H276 C278 0.949 . S
C277 C275 1.384 1_655 S
C277 C278 1.385 . S
C277 H279 0.950 . S
C278 C272 1.404 . S
C278 H276 0.949 . S
C278 C277 1.385 . S
H279 C277 0.950 . S
H280 C264 0.951 . S
H281 C266 0.951 . S
H282 C268 0.951 . S
H283 C269 0.950 . S
H284 C270 0.950 . S
H285 C271 0.950 . S
H286 C273 0.950 . S
H287 C274 0.951 1_455 S
C288 C289 1.386 1_455 S
C288 C290 1.383 . S
C288 H304 0.951 . S
C289 C288 1.386 1_655 S
C289 C293 1.383 1_655 S
C290 C288 1.383 . S
C290 C291 1.402 . S
C290 H305 0.951 . S
C291 C290 1.402 . S
C291 C292 1.375 . S
C291 C294 1.481 . S
C292 C291 1.375 . S
C292 C293 1.367 . S
C292 H306 0.951 . S
C293 C289 1.383 1_455 S
C293 C292 1.367 . S
C293 H307 0.950 . S
C294 C291 1.481 . S
C294 C295 1.297 . S
C294 H308 0.950 . S
C295 C294 1.297 . S
C295 C296 1.479 . S
C295 H309 0.950 . S
C296 C295 1.479 . S
C296 C297 1.375 . S
C296 C302 1.404 . S
C297 C296 1.375 . S
C297 C298 1.369 . S
C297 H310 0.950 . S
C298 C297 1.369 . S
C298 C299 1.392 . S
C298 H311 0.951 . S
C299 C298 1.392 . S
C299 C301 1.384 . S
H300 C302 0.949 . S
C301 C299 1.384 . S
C301 C302 1.385 . S
C301 H303 0.950 . S
C302 C296 1.404 . S
C302 H300 0.949 . S
C302 C301 1.385 . S
H303 C301 0.950 . S
H304 C288 0.951 . S
H305 C290 0.951 . S
H306 C292 0.951 . S
H307 C293 0.950 . S
H308 C294 0.950 . S
H309 C295 0.950 . S
H310 C297 0.950 . S
H311 C298 0.951 . S
C312 C313 1.386 . S
C312 C314 1.383 . S
C312 H328 0.951 . S
C313 C312 1.386 . S
C313 C317 1.383 1_554 S
C314 C312 1.383 . S
C314 C315 1.402 . S
C314 H329 0.951 . S
C315 C314 1.402 . S
C315 C316 1.375 1_554 S
C315 C318 1.481 . S
C316 C315 1.375 1_556 S
C316 C317 1.367 . S
C316 H330 0.951 . S
C317 C313 1.383 1_556 S
C317 C316 1.367 . S
C317 H331 0.950 . S
C318 C315 1.481 . S
C318 C319 1.297 . S
C318 H332 0.950 1_554 S
C319 C318 1.297 . S
C319 C320 1.479 . S
C319 H333 0.950 . S
C320 C319 1.479 . S
C320 C321 1.375 . S
C320 C326 1.404 . S
C321 C320 1.375 . S
C321 C322 1.369 . S
C321 H334 0.950 . S
C322 C321 1.369 . S
C322 C323 1.392 . S
C322 H335 0.951 . S
C323 C322 1.392 . S
C323 C325 1.384 1_554 S
H324 C326 0.949 1_556 S
C325 C323 1.384 1_556 S
C325 C326 1.385 1_556 S
C325 H327 0.950 . S
C326 C320 1.404 . S
C326 H324 0.949 1_554 S
C326 C325 1.385 1_554 S
H327 C325 0.950 . S
H328 C312 0.951 . S
H329 C314 0.951 . S
H330 C316 0.951 . S
H331 C317 0.950 . S
H332 C318 0.950 1_556 S
H333 C319 0.950 . S
H334 C321 0.950 . S
H335 C322 0.951 . S
C336 C337 1.386 . S
C336 C338 1.383 . S
C336 H352 0.951 . S
C337 C336 1.386 . S
C337 C341 1.383 . S
C338 C336 1.383 . S
C338 C339 1.402 . S
C338 H353 0.951 . S
C339 C338 1.402 . S
C339 C340 1.375 . S
C339 C342 1.481 . S
C340 C339 1.375 . S
C340 C341 1.367 . S
C340 H354 0.951 . S
C341 C337 1.383 . S
C341 C340 1.367 . S
C341 H355 0.950 . S
C342 C339 1.481 . S
C342 C343 1.297 . S
C342 H356 0.950 . S
C343 C342 1.297 . S
C343 C344 1.479 . S
C343 H357 0.950 . S
C344 C343 1.479 . S
C344 C345 1.375 . S
C344 C350 1.404 . S
C345 C344 1.375 . S
C345 C346 1.369 . S
C345 H358 0.950 . S
C346 C345 1.369 . S
C346 C347 1.392 . S
C346 H359 0.951 . S
C347 C346 1.392 . S
C347 C349 1.384 . S
H348 C350 0.949 . S
C349 C347 1.384 . S
C349 C350 1.385 . S
C349 H351 0.950 . S
C350 C344 1.404 . S
C350 H348 0.949 . S
C350 C349 1.385 . S
H351 C349 0.950 . S
H352 C336 0.951 . S
H353 C338 0.951 . S
H354 C340 0.951 . S
H355 C341 0.950 . S
H356 C342 0.950 . S
H357 C343 0.950 . S
H358 C345 0.950 . S
H359 C346 0.951 . S
C360 C361 1.388 1_554 S
C360 C362 1.383 . S
C360 H376 0.951 . S
C361 C360 1.388 1_556 S
C361 C365 1.380 . S
C362 C360 1.383 . S
C362 C363 1.402 1_554 S
C362 H377 0.951 . S
C363 C362 1.402 1_556 S
C363 C364 1.375 . S
C363 C366 1.481 1_455 S
C364 C363 1.375 . S
C364 C365 1.367 . S
C364 H378 0.951 . S
C365 C361 1.380 . S
C365 C364 1.367 . S
C365 H379 0.950 . S
C366 C363 1.481 1_655 S
C366 C367 1.297 1_556 S
C366 H380 0.950 . S
C367 C366 1.297 1_554 S
C367 C368 1.479 1_545 S
C367 H381 0.950 . S
C368 C367 1.479 1_565 S
C368 C369 1.375 . S
C368 C374 1.404 1_554 S
C369 C368 1.375 . S
C369 C370 1.369 . S
C369 H382 0.950 . S
C370 C369 1.369 . S
C370 C371 1.392 . S
C370 H383 0.951 . S
C371 C370 1.392 . S
C371 C373 1.384 1_554 S
H372 C374 0.949 . S
C373 C371 1.384 1_556 S
C373 C374 1.385 . S
C373 H375 0.950 . S
C374 C368 1.404 1_556 S
C374 H372 0.949 . S
C374 C373 1.385 . S
H375 C373 0.950 . S
H376 C360 0.951 . S
H377 C362 0.951 . S
H378 C364 0.951 . S
H379 C365 0.950 . S
H380 C366 0.950 . S
H381 C367 0.950 . S
H382 C369 0.950 . S
H383 C370 0.951 . S
C384 C385 1.386 . S
C384 C386 1.383 . S
C384 H400 0.951 . S
C385 C384 1.386 . S
C385 C389 1.383 . S
C386 C384 1.383 . S
C386 C387 1.402 . S
C386 H401 0.951 . S
C387 C386 1.402 . S
C387 C388 1.375 . S
C387 C390 1.481 1_655 S
C388 C387 1.375 . S
C388 C389 1.367 . S
C388 H402 0.951 1_655 S
C389 C385 1.383 . S
C389 C388 1.367 . S
C389 H403 0.950 . S
C390 C387 1.481 1_455 S
C390 C391 1.297 1_545 S
C390 H404 0.950 . S
C391 C390 1.297 1_565 S
C391 C392 1.479 . S
C391 H405 0.950 1_455 S
C392 C391 1.479 . S
C392 C393 1.375 . S
C392 C398 1.404 . S
C393 C392 1.375 . S
C393 C394 1.369 . S
C393 H406 0.950 1_455 S
C394 C393 1.369 . S
C394 C395 1.392 . S
C394 H407 0.951 . S
C395 C394 1.392 . S
C395 C397 1.384 . S
H396 C398 0.949 . S
C397 C395 1.384 . S
C397 C398 1.385 . S
C397 H399 0.950 . S
C398 C392 1.404 . S
C398 H396 0.949 . S
C398 C397 1.385 . S
H399 C397 0.950 . S
H400 C384 0.951 . S
H401 C386 0.951 . S
H402 C388 0.951 1_455 S
H403 C389 0.950 . S
H404 C390 0.950 . S
H405 C391 0.950 1_655 S
H406 C393 0.950 1_655 S
H407 C394 0.951 . S
C408 C409 1.386 . S
C408 C410 1.383 . S
C408 H424 0.951 . S
C409 C408 1.386 . S
C409 C413 1.383 . S
C410 C408 1.383 . S
C410 C411 1.402 . S
C410 H425 0.951 . S
C411 C410 1.402 . S
C411 C412 1.375 . S
C411 C414 1.481 . S
C412 C411 1.375 . S
C412 C413 1.367 . S
C412 H426 0.951 . S
C413 C409 1.383 . S
C413 C412 1.367 . S
C413 H427 0.950 . S
C414 C411 1.481 . S
C414 C415 1.297 . S
C414 H428 0.950 . S
C415 C414 1.297 . S
C415 C416 1.479 . S
C415 H429 0.950 . S
C416 C415 1.479 . S
C416 C417 1.375 . S
C416 C422 1.404 . S
C417 C416 1.375 . S
C417 C418 1.369 . S
C417 H430 0.950 . S
C418 C417 1.369 . S
C418 C419 1.392 . S
C418 H431 0.951 . S
C419 C418 1.392 . S
C419 C421 1.384 . S
H420 C422 0.949 . S
C421 C419 1.384 . S
C421 C422 1.385 . S
C421 H423 0.950 . S
C422 C416 1.404 . S
C422 H420 0.949 . S
C422 C421 1.385 . S
H423 C421 0.950 . S
H424 C408 0.951 . S
H425 C410 0.951 . S
H426 C412 0.951 . S
H427 C413 0.950 . S
H428 C414 0.950 . S
H429 C415 0.950 . S
H430 C417 0.950 . S
H431 C418 0.951 . S
C432 C433 1.386 . S
C432 C434 1.383 . S
C432 H448 0.951 . S
C433 C432 1.386 . S
C433 C437 1.383 . S
C434 C432 1.383 . S
C434 C435 1.402 . S
C434 H449 0.951 . S
C435 C434 1.402 . S
C435 C436 1.375 . S
C435 C438 1.481 . S
C436 C435 1.375 . S
C436 C437 1.367 . S
C436 H450 0.951 . S
C437 C433 1.383 . S
C437 C436 1.367 . S
C437 H451 0.950 . S
C438 C435 1.481 . S
C438 C439 1.297 . S
C438 H452 0.950 . S
C439 C438 1.297 . S
C439 C440 1.479 . S
C439 H453 0.950 . S
C440 C439 1.479 . S
C440 C441 1.375 . S
C440 C446 1.404 . S
C441 C440 1.375 . S
C441 C442 1.369 . S
C441 H454 0.950 . S
C442 C441 1.369 . S
C442 C443 1.392 . S
C442 H455 0.951 . S
C443 C442 1.392 . S
C443 C445 1.384 . S
H444 C446 0.949 . S
C445 C443 1.384 . S
C445 C446 1.385 . S
C445 H447 0.950 . S
C446 C440 1.404 . S
C446 H444 0.949 . S
C446 C445 1.385 . S
H447 C445 0.950 . S
H448 C432 0.951 . S
H449 C434 0.951 . S
H450 C436 0.951 . S
H451 C437 0.950 . S
H452 C438 0.950 . S
H453 C439 0.950 . S
H454 C441 0.950 . S
H455 C442 0.951 . S
C456 C457 1.386 . S
C456 C458 1.383 . S
C456 H472 0.951 . S
C457 C456 1.386 . S
C457 C461 1.383 . S
C458 C456 1.383 . S
C458 C459 1.402 . S
C458 H473 0.951 . S
C459 C458 1.402 . S
C459 C460 1.375 . S
C459 C462 1.481 . S
C460 C459 1.375 . S
C460 C461 1.367 . S
C460 H474 0.951 . S
C461 C457 1.383 . S
C461 C460 1.367 . S
C461 H475 0.950 . S
C462 C459 1.481 . S
C462 C463 1.297 . S
C462 H476 0.950 . S
C463 C462 1.297 . S
C463 C464 1.479 . S
C463 H477 0.950 . S
C464 C463 1.479 . S
C464 C465 1.375 . S
C464 C470 1.404 . S
C465 C464 1.375 . S
C465 C466 1.369 . S
C465 H478 0.950 . S
C466 C465 1.369 . S
C466 C467 1.392 . S
C466 H479 0.951 . S
C467 C466 1.392 . S
C467 C469 1.384 . S
H468 C470 0.949 . S
C469 C467 1.384 . S
C469 C470 1.385 . S
C469 H471 0.950 . S
C470 C464 1.404 . S
C470 H468 0.949 . S
C470 C469 1.385 . S
H471 C469 0.950 . S
H472 C456 0.951 . S
H473 C458 0.951 . S
H474 C460 0.951 . S
H475 C461 0.950 . S
H476 C462 0.950 . S
H477 C463 0.950 . S
H478 C465 0.950 . S
H479 C466 0.951 . S
C480 C481 1.386 . S
C480 C482 1.383 . S
C480 H496 0.951 . S
C481 C480 1.386 . S
C481 C485 1.383 . S
C482 C480 1.383 . S
C482 C483 1.402 . S
C482 H497 0.951 . S
C483 C482 1.402 . S
C483 C484 1.375 . S
C483 C486 1.481 . S
C484 C483 1.375 . S
C484 C485 1.367 . S
C484 H498 0.951 . S
C485 C481 1.383 . S
C485 C484 1.367 . S
C485 H499 0.950 . S
C486 C483 1.481 . S
C486 C487 1.297 . S
C486 H500 0.950 . S
C487 C486 1.297 . S
C487 C488 1.479 . S
C487 H501 0.950 . S
C488 C487 1.479 . S
C488 C489 1.375 . S
C488 C494 1.404 . S
C489 C488 1.375 . S
C489 C490 1.369 . S
C489 H502 0.950 . S
C490 C489 1.369 . S
C490 C491 1.392 . S
C490 H503 0.951 . S
C491 C490 1.392 . S
C491 C493 1.384 . S
H492 C494 0.949 . S
C493 C491 1.384 . S
C493 C494 1.385 . S
C493 H495 0.950 . S
C494 C488 1.404 . S
C494 H492 0.949 . S
C494 C493 1.385 . S
H495 C493 0.950 . S
H496 C480 0.951 . S
H497 C482 0.951 . S
H498 C484 0.951 . S
H499 C485 0.950 . S
H500 C486 0.950 . S
H501 C487 0.950 . S
H502 C489 0.950 . S
H503 C490 0.951 . S
C504 C505 1.386 . S
C504 C506 1.383 . S
C504 H520 0.951 . S
C505 C504 1.386 . S
C505 C509 1.383 . S
C506 C504 1.383 . S
C506 C507 1.402 . S
C506 H521 0.951 1_455 S
C507 C506 1.402 . S
C507 C508 1.375 . S
C507 C510 1.481 . S
C508 C507 1.375 . S
C508 C509 1.367 . S
C508 H522 0.951 . S
C509 C505 1.383 . S
C509 C508 1.367 . S
C509 H523 0.950 . S
C510 C507 1.481 . S
C510 C511 1.297 1_455 S
C510 H524 0.950 . S
C511 C510 1.297 1_655 S
C511 C512 1.479 . S
C511 H525 0.950 . S
C512 C511 1.479 . S
C512 C513 1.375 . S
C512 C518 1.404 . S
C513 C512 1.375 . S
C513 C514 1.369 . S
C513 H526 0.950 . S
C514 C513 1.369 . S
C514 C515 1.392 . S
C514 H527 0.951 . S
C515 C514 1.392 . S
C515 C517 1.384 . S
H516 C518 0.949 1_455 S
C517 C515 1.384 . S
C517 C518 1.385 . S
C517 H519 0.950 . S
C518 C512 1.404 . S
C518 H516 0.949 1_655 S
C518 C517 1.385 . S
H519 C517 0.950 . S
H520 C504 0.951 . S
H521 C506 0.951 1_655 S
H522 C508 0.951 . S
H523 C509 0.950 . S
H524 C510 0.950 . S
H525 C511 0.950 . S
H526 C513 0.950 . S
H527 C514 0.951 . S
C528 C529 1.386 . S
C528 C530 1.383 . S
C528 H544 0.951 . S
C529 C528 1.386 . S
C529 C533 1.383 . S
C530 C528 1.383 . S
C530 C531 1.402 . S
C530 H545 0.951 . S
C531 C530 1.402 . S
C531 C532 1.375 . S
C531 C534 1.481 . S
C532 C531 1.375 . S
C532 C533 1.367 . S
C532 H546 0.951 . S
C533 C529 1.383 . S
C533 C532 1.367 . S
C533 H547 0.950 . S
C534 C531 1.481 . S
C534 C535 1.297 . S
C534 H548 0.950 1_655 S
C535 C534 1.297 . S
C535 C536 1.479 1_655 S
C535 H549 0.950 . S
C536 C535 1.479 1_455 S
C536 C537 1.375 . S
C536 C542 1.404 . S
C537 C536 1.375 . S
C537 C538 1.369 . S
C537 H550 0.950 1_455 S
C538 C537 1.369 . S
C538 C539 1.392 . S
C538 H551 0.951 . S
C539 C538 1.392 . S
C539 C541 1.384 . S
H540 C542 0.949 . S
C541 C539 1.384 . S
C541 C542 1.385 . S
C541 H543 0.950 . S
C542 C536 1.404 . S
C542 H540 0.949 . S
C542 C541 1.385 . S
H543 C541 0.950 . S
H544 C528 0.951 . S
H545 C530 0.951 . S
H546 C532 0.951 . S
H547 C533 0.950 . S
H548 C534 0.950 1_455 S
H549 C535 0.950 . S
H550 C537 0.950 1_655 S
H551 C538 0.951 . S
C552 C553 1.386 . S
C552 C554 1.383 . S
C552 H568 0.951 . S
C553 C552 1.386 . S
C553 C557 1.383 . S
C554 C552 1.383 . S
C554 C555 1.402 . S
C554 H569 0.951 . S
C555 C554 1.402 . S
C555 C556 1.375 . S
C555 C558 1.481 1_455 S
C556 C555 1.375 . S
C556 C557 1.367 . S
C556 H570 0.951 1_455 S
C557 C553 1.383 . S
C557 C556 1.367 . S
C557 H571 0.950 . S
C558 C555 1.481 1_655 S
C558 C559 1.297 1_655 S
C558 H572 0.950 . S
C559 C558 1.297 1_455 S
C559 C560 1.479 1_455 S
C559 H573 0.950 . S
C560 C559 1.479 1_655 S
C560 C561 1.375 . S
C560 C566 1.404 . S
C561 C560 1.375 . S
C561 C562 1.369 . S
C561 H574 0.950 1_655 S
C562 C561 1.369 . S
C562 C563 1.392 . S
C562 H575 0.951 . S
C563 C562 1.392 . S
C563 C565 1.384 . S
H564 C566 0.949 . S
C565 C563 1.384 . S
C565 C566 1.385 . S
C565 H567 0.950 . S
C566 C560 1.404 . S
C566 H564 0.949 . S
C566 C565 1.385 . S
H567 C565 0.950 . S
H568 C552 0.951 . S
H569 C554 0.951 . S
H570 C556 0.951 1_655 S
H571 C557 0.950 . S
H572 C558 0.950 . S
H573 C559 0.950 . S
H574 C561 0.950 1_455 S
H575 C562 0.951 . S
C576 C577 1.386 . S
C576 C578 1.383 . S
C576 H592 0.951 . S
C577 C576 1.386 . S
C577 C581 1.383 . S
C578 C576 1.383 . S
C578 C579 1.402 . S
C578 H593 0.951 . S
C579 C578 1.402 . S
C579 C580 1.375 . S
C579 C582 1.481 . S
C580 C579 1.375 . S
C580 C581 1.367 . S
C580 H594 0.951 . S
C581 C577 1.383 . S
C581 C580 1.367 . S
C581 H595 0.950 . S
C582 C579 1.481 . S
C582 C583 1.297 . S
C582 H596 0.950 . S
C583 C582 1.297 . S
C583 C584 1.479 1_455 S
C583 H597 0.950 . S
C584 C583 1.479 1_655 S
C584 C585 1.375 . S
C584 C590 1.404 . S
C585 C584 1.375 . S
C585 C586 1.369 . S
C585 H598 0.950 . S
C586 C585 1.369 . S
C586 C587 1.392 . S
C586 H599 0.951 . S
C587 C586 1.392 . S
C587 C589 1.384 . S
H588 C590 0.949 . S
C589 C587 1.384 . S
C589 C590 1.385 . S
C589 H591 0.950 . S
C590 C584 1.404 . S
C590 H588 0.949 . S
C590 C589 1.385 . S
H591 C589 0.950 . S
H592 C576 0.951 . S
H593 C578 0.951 . S
H594 C580 0.951 . S
H595 C581 0.950 . S
H596 C582 0.950 . S
H597 C583 0.950 . S
H598 C585 0.950 . S
H599 C586 0.951 . S
C217 C35 0.569 . S
C227 C28 0.636 1_456 S
C241 C89 0.663 1_655 S
C251 C82 0.561 . S
C265 C136 0.609 . S
C275 C143 0.570 1_455 S
C289 C190 0.594 1_655 S
C299 C197 0.725 . S
C313 C64 1.670 . S
C323 C27 1.670 . S
C337 C189 1.670 . S
C347 C118 1.672 . S
C361 C10 1.672 1_556 S
C371 C81 1.675 . S
C385 C172 1.670 . S
C395 C135 1.667 . S
C409 C184 1.787 . S
C419 C22 1.744 . S
C433 C59 1.782 . S
C443 C113 1.748 . S
C457 C140 1.785 . S
C467 C86 1.780 . S
C481 C13 1.761 . S
C491 C175 1.800 . S
C505 C130 1.794 . S
C515 C76 1.797 . S
C529 C167 1.787 . S
C539 C5 1.743 . S
C553 C32 1.764 . S
C563 C194 1.738 . S
C577 C121 1.780 . S
C587 C67 1.725 . S
