# Generated by pormake.
# Topology cag, (4)-cn, num edge types: 1
# Building blocks:
#     Node 0, Type 0, BuildingBlock: ICAMEG_clean_sbu_1, # of connection points: 4
#     Node 1, Type 0, BuildingBlock: ICAMEG_clean_sbu_1, # of connection points: 4
#     Node 2, Type 0, BuildingBlock: ICAMEG_clean_sbu_1, # of connection points: 4
#     Node 3, Type 0, BuildingBlock: ICAMEG_clean_sbu_1, # of connection points: 4
#     Node 4, Type 0, BuildingBlock: ICAMEG_clean_sbu_1, # of connection points: 4
#     Node 5, Type 0, BuildingBlock: ICAMEG_clean_sbu_1, # of connection points: 4
#     Node 6, Type 0, BuildingBlock: ICAMEG_clean_sbu_1, # of connection points: 4
#     Node 7, Type 0, BuildingBlock: ICAMEG_clean_sbu_1, # of connection points: 4
#     Node 8, Type 0, BuildingBlock: ICAMEG_clean_sbu_1, # of connection points: 4
#     Node 9, Type 0, BuildingBlock: ICAMEG_clean_sbu_1, # of connection points: 4
#     Node 10, Type 0, BuildingBlock: ICAMEG_clean_sbu_1, # of connection points: 4
#     Node 11, Type 0, BuildingBlock: ICAMEG_clean_sbu_1, # of connection points: 4
#     Node 12, Type 0, BuildingBlock: ICAMEG_clean_sbu_1, # of connection points: 4
#     Node 13, Type 0, BuildingBlock: ICAMEG_clean_sbu_1, # of connection points: 4
#     Node 14, Type 0, BuildingBlock: ICAMEG_clean_sbu_1, # of connection points: 4
#     Node 15, Type 0, BuildingBlock: ICAMEG_clean_sbu_1, # of connection points: 4
#     Edge 16, Type (0, 0), BuildingBlock: EZIPEK_clean_linker_0, # of connection points: 2
#     Edge 17, Type (0, 0), BuildingBlock: EZIPEK_clean_linker_0, # of connection points: 2
#     Edge 18, Type (0, 0), BuildingBlock: EZIPEK_clean_linker_0, # of connection points: 2
#     Edge 19, Type (0, 0), BuildingBlock: EZIPEK_clean_linker_0, # of connection points: 2
#     Edge 20, Type (0, 0), BuildingBlock: EZIPEK_clean_linker_0, # of connection points: 2
#     Edge 21, Type (0, 0), BuildingBlock: EZIPEK_clean_linker_0, # of connection points: 2
#     Edge 22, Type (0, 0), BuildingBlock: EZIPEK_clean_linker_0, # of connection points: 2
#     Edge 23, Type (0, 0), BuildingBlock: EZIPEK_clean_linker_0, # of connection points: 2
#     Edge 24, Type (0, 0), BuildingBlock: EZIPEK_clean_linker_0, # of connection points: 2
#     Edge 25, Type (0, 0), BuildingBlock: EZIPEK_clean_linker_0, # of connection points: 2
#     Edge 26, Type (0, 0), BuildingBlock: EZIPEK_clean_linker_0, # of connection points: 2
#     Edge 27, Type (0, 0), BuildingBlock: EZIPEK_clean_linker_0, # of connection points: 2
#     Edge 28, Type (0, 0), BuildingBlock: EZIPEK_clean_linker_0, # of connection points: 2
#     Edge 29, Type (0, 0), BuildingBlock: EZIPEK_clean_linker_0, # of connection points: 2
#     Edge 30, Type (0, 0), BuildingBlock: EZIPEK_clean_linker_0, # of connection points: 2
#     Edge 31, Type (0, 0), BuildingBlock: EZIPEK_clean_linker_0, # of connection points: 2
#     Edge 32, Type (0, 0), BuildingBlock: EZIPEK_clean_linker_0, # of connection points: 2
#     Edge 33, Type (0, 0), BuildingBlock: EZIPEK_clean_linker_0, # of connection points: 2
#     Edge 34, Type (0, 0), BuildingBlock: EZIPEK_clean_linker_0, # of connection points: 2
#     Edge 35, Type (0, 0), BuildingBlock: EZIPEK_clean_linker_0, # of connection points: 2
#     Edge 36, Type (0, 0), BuildingBlock: EZIPEK_clean_linker_0, # of connection points: 2
#     Edge 37, Type (0, 0), BuildingBlock: EZIPEK_clean_linker_0, # of connection points: 2
#     Edge 38, Type (0, 0), BuildingBlock: EZIPEK_clean_linker_0, # of connection points: 2
#     Edge 39, Type (0, 0), BuildingBlock: EZIPEK_clean_linker_0, # of connection points: 2
#     Edge 40, Type (0, 0), BuildingBlock: EZIPEK_clean_linker_0, # of connection points: 2
#     Edge 41, Type (0, 0), BuildingBlock: EZIPEK_clean_linker_0, # of connection points: 2
#     Edge 42, Type (0, 0), BuildingBlock: EZIPEK_clean_linker_0, # of connection points: 2
#     Edge 43, Type (0, 0), BuildingBlock: EZIPEK_clean_linker_0, # of connection points: 2
#     Edge 44, Type (0, 0), BuildingBlock: EZIPEK_clean_linker_0, # of connection points: 2
#     Edge 45, Type (0, 0), BuildingBlock: EZIPEK_clean_linker_0, # of connection points: 2
#     Edge 46, Type (0, 0), BuildingBlock: EZIPEK_clean_linker_0, # of connection points: 2
#     Edge 47, Type (0, 0), BuildingBlock: EZIPEK_clean_linker_0, # of connection points: 2
# Relax obj value: 0.157
# Max RMSD: 0.210
# Mean RMSD: 0.207
data_MOF--net-cag--node1-ICAMEG_clean_sbu_1--edge1-EZIPEK_clean_linker_0
_symmetry_space_group_name_H-M    P1
_symmetry_Int_Tables_number       1
_symmetry_cell_setting            triclinic
loop_
_symmetry_equiv_pos_as_xyz
'x, y, z'
_cell_length_a     33.034438
_cell_length_b     38.578243
_cell_length_c     33.257878
_cell_angle_alpha  89.912822
_cell_angle_beta   89.681065
_cell_angle_gamma 90.12281
loop_
_atom_site_label
_atom_site_type_symbol
_atom_site_fract_x
_atom_site_fract_y
_atom_site_fract_z
_atom_type_partial_charge
Co0 Co 0.36103 0.15267 0.05625 0.0
Co1 Co 0.37977 0.10952 0.1465 0.0
O2 O 0.35124 0.14426 0.11385 0.0
C3 C 0.37771 0.22932 0.05582 0.0
O4 O 0.41658 0.22311 0.05201 0.0
C5 C 0.30217 0.11806 0.19713 0.0
O6 O 0.29724 0.15029 0.18586 0.0
O7 O 0.36491 0.07233 0.10553 0.0
O8 O 0.3674 0.10156 0.04647 0.0
H9 H 0.48169 0.01426 0.17243 0.0
H10 H 0.28815 0.18122 0.09642 0.0
O11 O 0.35309 0.20453 0.06389 0.0
H12 H 0.23628 0.10831 0.98638 0.0
H13 H 0.33186 0.20964 0.92297 0.0
H14 H 0.41724 0.12519 0.99369 0.0
H15 H 0.30973 0.11409 0.99753 0.0
H16 H 0.3218 0.19835 0.99517 0.0
O17 O 0.32854 0.09877 0.17967 0.0
H18 H 0.44956 0.0603 0.13362 0.0
H19 H 0.37267 0.08428 0.23227 0.0
H20 H 0.42881 0.13577 0.92155 0.0
H21 H 0.21444 0.17626 0.08626 0.0
H22 H 0.38581 0.17835 0.88558 0.0
H23 H 0.18808 0.13962 0.03086 0.0
O24 O 0.4212 0.15649 0.06589 0.0
H25 H 0.37651 0.22943 0.21019 0.0
H26 H 0.45085 0.1196 0.20184 0.0
H27 H 0.4743 0.16448 0.24743 0.0
H28 H 0.43703 0.22003 0.25255 0.0
H29 H 0.35339 0.18414 0.16544 0.0
H30 H 0.40391 0.03835 0.2721 0.0
H31 H 0.45889 1.0027 0.24242 0.0
O32 O 0.43132 0.11882 0.11674 0.0
C33 C 0.36502 0.07338 0.06668 0.0
C34 C 0.45706 0.02903 0.18542 0.0
C35 C 0.41345 0.04252 0.24128 0.0
N36 N 0.40696 0.07392 0.1789 0.0
C37 C 0.4381 0.05496 0.16307 0.0
C38 C 0.39521 0.06823 0.21801 0.0
C39 C 0.44437 0.02262 0.22469 0.0
C40 C 0.27689 0.16527 0.07222 0.0
N41 N 0.30321 0.14806 0.04753 0.0
C42 C 0.23513 0.16254 0.06663 0.0
C43 C 0.22036 0.14197 0.03555 0.0
C44 C 0.24738 0.12441 1.01057 0.0
C45 C 0.28894 0.12773 0.01709 0.0
C46 C 0.35094 0.19113 0.9383 0.0
C47 C 0.39896 0.14396 0.97855 0.0
C48 C 0.34554 0.18471 0.97932 0.0
N49 N 0.36958 0.16144 0.99908 0.0
C50 C 0.40538 0.14977 0.93754 0.0
C51 C 0.38121 0.1736 0.91736 0.0
C52 C 0.44432 0.13923 0.0894 0.0
C53 C 0.392 0.20473 0.20967 0.0
C54 C 0.4323 0.14233 0.20522 0.0
C55 C 0.44671 0.16833 0.23061 0.0
C56 C 0.42603 0.19956 0.23324 0.0
N57 N 0.39701 0.14631 0.18406 0.0
C58 C 0.37842 0.17812 0.18466 0.0
Co59 Co 0.1551 0.87344 0.56473 0.0
Co60 Co 0.13432 0.91366 0.65549 0.0
O61 O 0.16491 0.88018 0.62246 0.0
C62 C 0.14568 0.79509 0.56832 0.0
O63 O 0.10637 0.79706 0.57358 0.0
C64 C 0.22155 0.91803 0.68705 0.0
O65 O 0.23773 0.91301 0.65141 0.0
O66 O 0.15046 0.9525 0.61685 0.0
O67 O 0.14545 0.92464 0.55726 0.0
H68 H 0.02359 1.00057 0.68709 0.0
H69 H 0.23082 0.84844 0.60202 0.0
O70 O 0.16751 0.82242 0.56979 0.0
H71 H 0.27475 0.92308 0.48945 0.0
H72 H 0.17985 0.82025 0.42833 0.0
H73 H 0.09471 0.90034 0.50696 0.0
H74 H 0.20213 0.91477 0.50431 0.0
H75 H 0.19371 0.83058 0.49999 0.0
O76 O 0.18335 0.92118 0.69101 0.0
H77 H 0.05935 0.95842 0.64569 0.0
H78 H 0.13916 0.93627 0.74217 0.0
H79 H 0.08009 0.89118 0.4352 0.0
H80 H 0.30373 0.85612 0.58837 0.0
H81 H 0.12279 0.85078 0.39535 0.0
H82 H 0.32612 0.89366 0.53167 0.0
O83 O 0.09607 0.86564 0.57574 0.0
H84 H 0.15645 0.80507 0.73621 0.0
H85 H 0.05619 0.8921 0.69402 0.0
H86 H 0.03482 0.84401 0.73803 0.0
H87 H 0.08511 0.80006 0.75958 0.0
H88 H 0.17634 0.85352 0.69194 0.0
H89 H 0.10389 0.97822 0.78444 0.0
H90 H 0.04572 1.01115 0.75718 0.0
O91 O 0.08411 0.9054 0.62345 0.0
C92 C 0.14941 0.95238 0.57799 0.0
C93 C 0.04978 0.98727 0.69893 0.0
C94 C 0.09475 0.97471 0.7535 0.0
N95 N 0.10438 0.9467 0.68938 0.0
C96 C 0.07105 0.96368 0.67506 0.0
C97 C 0.11529 0.9513 0.72877 0.0
C98 C 0.06204 0.99307 0.73828 0.0
C99 C 0.24032 0.86485 0.57735 0.0
N100 N 0.21224 0.88118 0.55405 0.0
C101 C 0.28166 0.86911 0.56976 0.0
C102 C 0.29419 0.89016 0.53795 0.0
C103 C 0.26539 0.90667 0.51425 0.0
C104 C 0.22431 0.90192 0.52285 0.0
C105 C 0.16101 0.83792 0.44536 0.0
C106 C 0.11354 0.88294 0.48985 0.0
C107 C 0.1686 0.8438 0.48605 0.0
N108 N 0.14501 0.86616 0.50779 0.0
C109 C 0.10508 0.87775 0.4492 0.0
C110 C 0.12902 0.85507 0.42687 0.0
C111 C 0.07203 0.88323 0.59787 0.0
C112 C 0.13429 0.82419 0.7273 0.0
C113 C 0.07842 0.87332 0.70346 0.0
C114 C 0.06606 0.84604 0.72833 0.0
C115 C 0.09427 0.82137 0.74035 0.0
N116 N 0.11783 0.87608 0.69098 0.0
C117 C 0.1455 0.8518 0.70239 0.0
Co118 Co 0.37464 0.87518 0.97558 0.0
Co119 Co 0.38597 0.91497 0.88435 0.0
O120 O 0.36034 0.87905 0.91833 0.0
C121 C 0.37552 0.79802 0.95452 0.0
O122 O 0.40146 0.80224 0.92485 0.0
C123 C 0.30499 0.90043 0.84128 0.0
O124 O 0.29444 0.87574 0.86646 0.0
O125 O 0.36407 0.95143 0.92266 0.0
O126 O 0.38414 0.92624 0.97992 0.0
H127 H 0.45882 0.02805 0.86123 0.0
H128 H 0.29675 0.84683 0.94671 0.0
O129 O 0.36347 0.82376 0.9752 0.0
H130 H 0.2601 0.92955 0.05373 0.0
H131 H 0.36222 0.8286 0.11682 0.0
H132 H 0.44008 0.90482 0.02562 0.0
H133 H 0.33164 0.91962 0.0358 0.0
H134 H 0.34197 0.83547 0.04608 0.0
O135 O 0.33639 0.91904 0.848 0.0
H136 H 0.42934 0.98081 0.90175 0.0
H137 H 0.3907 0.92944 0.79592 0.0
H138 H 0.46108 0.89897 0.0963 0.0
H139 H 0.22477 0.85581 0.96388 0.0
H140 H 0.42208 0.86058 0.14244 0.0
H141 H 0.20607 0.89745 0.01773 0.0
O142 O 0.43265 0.86857 0.95976 0.0
H143 H 0.38853 0.79828 0.81586 0.0
H144 H 0.46469 0.90589 0.84076 0.0
H145 H 0.4951 0.86043 0.79881 0.0
H146 H 0.45679 0.80621 0.78553 0.0
H147 H 0.35973 0.84412 0.85815 0.0
H148 H 0.41918 0.97641 0.75418 0.0
H149 H 0.45397 0.02602 0.78677 0.0
O150 O 0.43822 0.91174 0.91559 0.0
C151 C 0.37115 0.95245 0.96062 0.0
C152 C 0.44423 1.00635 0.84662 0.0
C153 C 0.42192 0.97741 0.78658 0.0
N154 N 0.40969 0.95163 0.85139 0.0
C155 C 0.42777 0.97933 0.86947 0.0
C156 C 0.40586 0.95086 0.81043 0.0
C157 C 0.44141 1.00524 0.80487 0.0
C158 C 0.28883 0.86492 0.97026 0.0
N159 N 0.31836 0.88261 0.99026 0.0
C160 C 0.24804 0.86992 0.97982 0.0
C161 C 0.23756 0.89329 1.01003 0.0
C162 C 0.26786 0.91129 0.03026 0.0
C163 C 0.30832 0.90561 0.0199 0.0
C164 C 0.37941 0.84545 0.09704 0.0
C165 C 0.42276 0.88825 0.04554 0.0
C166 C 0.36815 0.8494 0.05689 0.0
N167 N 0.38969 0.87069 0.03171 0.0
C168 C 0.43488 0.88497 0.08553 0.0
C169 C 0.413 0.86341 0.11139 0.0
C170 C 0.45451 0.8884 0.93762 0.0
C171 C 0.40506 0.82221 0.82034 0.0
C172 C 0.44714 0.88292 0.83433 0.0
C173 C 0.46484 0.85702 0.81085 0.0
C174 C 0.44342 0.82659 0.80353 0.0
N175 N 0.40868 0.87917 0.84938 0.0
C176 C 0.3884 0.84871 0.8437 0.0
Co177 Co 0.12835 0.14207 0.4772 0.0
Co178 Co 0.13557 0.10374 0.38549 0.0
O179 O 0.15398 0.13967 0.42355 0.0
C180 C 0.15698 0.21617 0.45919 0.0
O181 O 0.17162 0.20659 0.42419 0.0
C182 C 0.21154 0.08005 0.34326 0.0
O183 O 0.20644 0.04883 0.35825 0.0
O184 O 0.15396 0.06738 0.42595 0.0
O185 O 0.12005 0.09067 0.47752 0.0
H186 H 0.07154 0.98959 0.35005 0.0
H187 H 0.21441 0.16202 0.45893 0.0
O188 O 0.13725 0.19447 0.48105 0.0
H189 H 0.22108 0.08798 0.57941 0.0
H190 H 0.10427 0.183 0.61988 0.0
H191 H 0.05502 0.10822 0.51052 0.0
H192 H 0.15559 0.10084 0.54818 0.0
H193 H 0.141 0.17995 0.55555 0.0
O194 O 0.19019 0.10513 0.3569 0.0
H195 H 0.09576 0.03538 0.3955 0.0
H196 H 0.13863 0.09403 0.29577 0.0
H197 H 0.01753 0.1101 0.57456 0.0
H198 H 0.28041 0.14949 0.48903 0.0
H199 H 0.04201 0.14775 0.62989 0.0
H200 H 0.28422 0.11246 0.54999 0.0
O201 O 0.07488 0.1489 0.45032 0.0
H202 H 0.15006 0.21622 0.31037 0.0
H203 H 0.05968 0.11711 0.33832 0.0
H204 H 0.03614 0.16441 0.29459 0.0
H205 H 0.08145 0.21443 0.28026 0.0
H206 H 0.17235 0.16849 0.35426 0.0
H207 H 0.1142 0.04915 0.24921 0.0
H208 H 0.08043 0.99639 0.27625 0.0
O209 O 0.07921 0.10328 0.40944 0.0
C210 C 0.14101 0.06612 0.46253 0.0
C211 C 0.08603 0.01253 0.33787 0.0
C212 C 0.10986 0.04598 0.28129 0.0
N213 N 0.11802 0.06771 0.34846 0.0
C214 C 0.09983 0.03859 0.3635 0.0
C215 C 0.12353 0.07139 0.30786 0.0
C216 C 0.09101 0.01637 0.29648 0.0
C217 C 0.21535 0.1463 0.48567 0.0
N218 N 0.18052 0.13378 0.50276 0.0
C219 C 0.25306 0.13914 0.50255 0.0
C220 C 0.25519 0.11835 0.53672 0.0
C221 C 0.21979 0.10476 0.55335 0.0
C222 C 0.18263 0.11253 0.5357 0.0
C223 C 0.09324 0.16652 0.596 0.0
C224 C 0.06615 0.12458 0.53438 0.0
C225 C 0.11391 0.16489 0.55929 0.0
N226 N 0.10048 0.14399 0.52901 0.0
C227 C 0.04465 0.12557 0.57063 0.0
C228 C 0.05836 0.14671 0.60162 0.0
C229 C 0.05831 0.12678 0.42689 0.0
C230 C 0.13006 0.19453 0.3163 0.0
C231 C 0.07963 0.13879 0.33241 0.0
C232 C 0.06613 0.16548 0.30748 0.0
C233 C 0.09156 0.19353 0.29946 0.0
N234 N 0.11749 0.13992 0.34889 0.0
C235 C 0.14256 0.16736 0.34108 0.0
Co236 Co 0.71148 0.90364 0.9015 0.0
Co237 Co 0.70889 0.85977 0.99071 0.0
O238 O 0.73212 0.86705 0.93686 0.0
C239 C 0.7408 0.84579 0.84529 0.0
O240 O 0.74852 0.82473 0.87523 0.0
C241 C 0.79897 0.84934 1.00495 0.0
O242 O 0.8091 0.87687 0.98391 0.0
O243 O 0.72333 0.90914 1.00476 0.0
O244 O 0.70033 0.93451 0.94859 0.0
H245 H 0.63387 0.89524 0.11609 0.0
H246 H 0.79539 0.87596 0.89599 0.0
O247 O 0.72353 0.87498 0.85147 0.0
H248 H 0.81126 1.00267 0.90055 0.0
H249 H 0.7067 0.97674 0.77572 0.0
H250 H 0.64206 0.9523 0.90674 0.0
H251 H 0.74356 0.97606 0.90401 0.0
H252 H 0.73474 0.93224 0.82077 0.0
O253 O 0.76202 0.84175 1.01102 0.0
H254 H 0.65939 0.90225 0.04684 0.0
H255 H 0.7147 0.80315 0.05196 0.0
H256 H 0.61348 0.99739 0.86285 0.0
H257 H 0.86368 0.90125 0.89163 0.0
H258 H 0.64571 1.00979 0.7967 0.0
H259 H 0.87202 0.96524 0.89393 0.0
O260 O 0.65566 0.88318 0.90649 0.0
H261 H 0.73925 0.74313 0.93072 0.0
H262 H 0.63618 0.8131 1.00016 0.0
H263 H 0.61964 0.75345 0.98023 0.0
H264 H 0.67157 0.71778 0.9454 0.0
H265 H 0.75393 0.80329 0.95046 0.0
H266 H 0.68967 0.79496 0.1212 0.0
H267 H 0.64874 0.84112 0.15373 0.0
O268 O 0.65301 0.8752 0.97255 0.0
C269 C 0.71319 0.93611 0.9846 0.0
C270 C 0.65139 0.8748 0.10215 0.0
C271 C 0.68265 0.81852 0.105 0.0
N272 N 0.68761 0.85286 0.0448 0.0
C273 C 0.66592 0.87866 0.06288 0.0
C274 C 0.69661 0.82329 0.06566 0.0
C275 C 0.65976 0.84445 0.12326 0.0
C276 C 0.7986 0.90363 0.89557 0.0
N277 N 0.76525 0.92429 0.89818 0.0
C278 C 0.83744 0.91792 0.89373 0.0
C279 C 0.8421 0.95379 0.89517 0.0
C280 C 0.80804 0.97479 0.89881 0.0
C281 C 0.7697 0.95952 0.90054 0.0
C282 C 0.6923 0.9715 0.80441 0.0
C283 C 0.65652 0.95766 0.87818 0.0
C284 C 0.70787 0.94612 0.82998 0.0
N285 N 0.68993 0.9394 0.86636 0.0
C286 C 0.64008 0.98319 0.85337 0.0
C287 C 0.65813 0.99008 0.81624 0.0
C288 C 0.63502 0.87861 0.93877 0.0
C289 C 0.71623 0.75845 0.94562 0.0
C290 C 0.6584 0.79834 0.98408 0.0
C291 C 0.64912 0.76427 0.97328 0.0
C292 C 0.67828 0.74425 0.95385 0.0
N293 N 0.69555 0.81226 0.97571 0.0
C294 C 0.72434 0.79262 0.95686 0.0
Co295 Co 0.79946 0.11646 0.40405 0.0
Co296 Co 0.82122 0.16262 0.49114 0.0
O297 O 0.79006 0.1562 0.44072 0.0
C298 C 0.77335 0.17543 0.34752 0.0
O299 O 0.76809 0.19794 0.37655 0.0
C300 C 0.73737 0.19455 0.5072 0.0
O301 O 0.72505 0.18768 0.47069 0.0
O302 O 0.80448 0.11496 0.50915 0.0
O303 O 0.81052 0.08512 0.4512 0.0
H304 H 0.94058 0.14231 0.5848 0.0
H305 H 0.7209 0.15447 0.40684 0.0
O306 O 0.78748 0.14527 0.35452 0.0
H307 H 0.6842 0.03111 0.4154 0.0
H308 H 0.77541 0.04248 0.28135 0.0
H309 H 0.86028 0.05987 0.40088 0.0
H310 H 0.75569 0.049 0.41235 0.0
H311 H 0.76108 0.09015 0.32841 0.0
O312 O 0.77187 0.18368 0.51916 0.0
H313 H 0.90305 0.13672 0.5232 0.0
H314 H 0.80947 0.20068 0.57189 0.0
H315 H 0.87518 1.01141 0.35513 0.0
H316 H 0.64905 0.13804 0.41045 0.0
H317 H 0.83259 1.00249 0.29469 0.0
H318 H 0.63016 0.07577 0.41449 0.0
O319 O 0.85809 0.12949 0.40005 0.0
H320 H 0.80472 0.27863 0.42234 0.0
H321 H 0.89943 0.20183 0.49313 0.0
H322 H 0.92289 0.25867 0.4697 0.0
H323 H 0.87549 0.29776 0.43398 0.0
H324 H 0.78236 0.22181 0.44677 0.0
H325 H 0.8472 0.20688 0.63321 0.0
H326 H 0.91344 0.17768 0.64089 0.0
O327 O 0.87064 0.14334 0.46425 0.0
C328 C 0.80605 0.0865 0.48938 0.0
C329 C 0.91157 0.15507 0.58195 0.0
C330 C 0.85936 0.19128 0.60898 0.0
N331 N 0.85243 0.16789 0.54188 0.0
C332 C 0.88927 0.15183 0.54658 0.0
C333 C 0.83782 0.18749 0.57321 0.0
C334 C 0.89645 0.17492 0.61334 0.0
C335 C 0.71309 0.12755 0.40822 0.0
N336 N 0.74268 0.10297 0.40813 0.0
C337 C 0.67225 0.11827 0.41047 0.0
C338 C 0.66167 0.08336 0.41277 0.0
C339 C 0.69196 0.05832 0.41318 0.0
C340 C 0.73247 0.06866 0.41122 0.0
C341 C 0.79416 0.04608 0.30759 0.0
C342 C 0.8415 0.0561 0.37496 0.0
C343 C 0.7864 0.07322 0.33428 0.0
N344 N 0.80991 0.07793 0.36763 0.0
C345 C 0.85012 0.02862 0.34901 0.0
C346 C 0.82624 0.02365 0.3151 0.0
C347 C 0.88241 0.13621 0.42873 0.0
C348 C 0.82557 0.26205 0.43834 0.0
C349 C 0.878 0.21872 0.47874 0.0
C350 C 0.89176 0.25092 0.46503 0.0
C351 C 0.86524 0.27276 0.44485 0.0
N352 N 0.83873 0.20851 0.47306 0.0
C353 C 0.81295 0.22963 0.45242 0.0
Co354 Co 0.69732 0.11061 0.12801 0.0
Co355 Co 0.68993 0.15338 0.03861 0.0
O356 O 0.71344 0.14827 0.09205 0.0
C357 C 0.7238 0.17038 0.1824 0.0
O358 O 0.73152 0.19098 0.15192 0.0
C359 C 0.77289 0.17019 1.00028 0.0
O360 O 0.7801 0.13823 0.98885 0.0
O361 O 0.71054 0.10541 0.02491 0.0
O362 O 0.68841 0.07839 0.08099 0.0
H363 H 0.61454 0.11643 0.9143 0.0
H364 H 0.77908 0.14401 0.12566 0.0
O365 O 0.7075 0.14065 0.1771 0.0
H366 H 0.80552 0.01868 0.13174 0.0
H367 H 0.70194 0.04035 0.25603 0.0
H368 H 0.63219 0.05745 0.12719 0.0
H369 H 0.73572 0.04051 0.12893 0.0
H370 H 0.7252 0.08518 0.20844 0.0
O371 O 0.74131 0.17731 0.02085 0.0
H372 H 0.6407 0.11001 0.98296 0.0
H373 H 0.69417 0.2097 0.97712 0.0
H374 H 0.60821 0.01188 0.17349 0.0
H375 H 0.8493 0.12344 0.12858 0.0
H376 H 0.64321 1.00312 0.23862 0.0
H377 H 0.86304 0.06023 0.1319 0.0
O378 O 0.64003 0.12768 0.1243 0.0
H379 H 0.698 0.27269 0.09921 0.0
H380 H 0.61055 0.18924 0.02846 0.0
H381 H 0.58334 0.24644 0.04716 0.0
H382 H 0.62717 0.28867 0.0828 0.0
H383 H 0.72381 0.21514 0.08009 0.0
H384 H 0.66915 0.21735 0.90817 0.0
H385 H 0.62882 0.17058 0.87623 0.0
O386 O 0.63666 0.1324 0.05695 0.0
C387 C 0.70247 0.07766 0.04503 0.0
C388 C 0.63206 0.13703 0.92784 0.0
C389 C 0.66273 0.1936 0.92439 0.0
N390 N 0.66894 0.15912 0.98436 0.0
C391 C 0.64688 0.1334 0.96687 0.0
C392 C 0.67699 0.189 0.96348 0.0
C393 C 0.6401 0.16738 0.9065 0.0
C394 C 0.78451 0.11668 0.12846 0.0
N395 N 0.75293 0.09382 0.12986 0.0
C396 C 0.8245 0.10506 0.12948 0.0
C397 C 0.8322 0.06962 0.13121 0.0
C398 C 0.79996 0.04631 0.13128 0.0
C399 C 0.76038 0.05892 0.13007 0.0
C400 C 0.68642 0.04393 0.22776 0.0
C401 C 0.64753 0.05377 0.15521 0.0
C402 C 0.69924 0.06949 0.20073 0.0
N403 N 0.67986 0.07414 0.16485 0.0
C404 C 0.63386 0.02792 0.18144 0.0
C405 C 0.65348 0.02304 0.21798 0.0
C406 C 0.61982 0.13182 0.09182 0.0
C407 C 0.67856 0.25451 0.08374 0.0
C408 C 0.62982 0.20738 0.0441 0.0
C409 C 0.61425 0.2398 0.0545 0.0
C410 C 0.63884 0.26347 0.07451 0.0
N411 N 0.66883 0.19872 0.05333 0.0
C412 C 0.69306 0.22185 0.07285 0.0
Co413 Co 0.82074 0.90616 0.62711 0.0
Co414 Co 0.82359 0.87147 0.533 0.0
O415 O 0.80192 0.87068 0.58855 0.0
C416 C 0.7934 0.84506 0.67987 0.0
O417 O 0.7846 0.82529 0.64907 0.0
C418 C 0.74053 0.83649 0.52676 0.0
O419 O 0.73483 0.83972 0.56562 0.0
O420 O 0.8008 0.91953 0.52733 0.0
O421 O 0.8291 0.94084 0.583 0.0
H422 H 0.88687 0.9335 0.41513 0.0
H423 H 0.73804 0.87512 0.63039 0.0
O424 O 0.8112 0.8742 0.67481 0.0
H425 H 0.71643 1.00094 0.63861 0.0
H426 H 0.82376 0.97161 0.75832 0.0
H427 H 0.88975 0.95542 0.62632 0.0
H428 H 0.78523 0.97724 0.63249 0.0
H429 H 0.79643 0.92964 0.7097 0.0
O430 O 0.77199 0.84986 0.51006 0.0
H431 H 0.86184 0.92734 0.4844 0.0
H432 H 0.82918 0.82291 0.46194 0.0
H433 H 0.91778 0.99796 0.67393 0.0
H434 H 0.66868 0.89742 0.63693 0.0
H435 H 0.88476 1.00626 0.7405 0.0
H436 H 0.65743 0.96097 0.6412 0.0
O437 O 0.87723 0.88823 0.61915 0.0
H438 H 0.82846 0.74917 0.58719 0.0
H439 H 0.90241 0.83877 0.51067 0.0
H440 H 0.93452 0.78232 0.52271 0.0
H441 H 0.89749 0.73687 0.56106 0.0
H442 H 0.79752 0.80581 0.57449 0.0
H443 H 0.85313 0.82794 0.39223 0.0
H444 H 0.88265 0.88357 0.36828 0.0
O445 O 0.87687 0.89057 0.55218 0.0
C446 C 0.81181 0.94515 0.54919 0.0
C447 C 0.87423 0.90905 0.42519 0.0
C448 C 0.8552 0.84991 0.41233 0.0
N449 N 0.84417 0.87458 0.47787 0.0
C450 C 0.86006 0.90533 0.46461 0.0
C451 C 0.84134 0.84721 0.45197 0.0
C452 C 0.87179 0.88108 0.39892 0.0
C453 C 0.7336 0.90248 0.63335 0.0
N454 N 0.76601 0.92442 0.633 0.0
C455 C 0.69414 0.91513 0.63657 0.0
C456 C 0.68784 0.95076 0.63884 0.0
C457 C 0.72092 0.97318 0.63749 0.0
C458 C 0.75991 0.95951 0.63427 0.0
C459 C 0.8384 0.96825 0.72939 0.0
C460 C 0.87502 0.95901 0.65511 0.0
C461 C 0.82317 0.94439 0.70175 0.0
N462 N 0.84135 0.94013 0.66503 0.0
C463 C 0.89111 0.98309 0.682 0.0
C464 C 0.8726 0.9877 0.71936 0.0
C465 C 0.89596 0.88744 0.58526 0.0
C466 C 0.84471 0.76857 0.56994 0.0
C467 C 0.88558 0.81903 0.52672 0.0
C468 C 0.90416 0.78713 0.53371 0.0
C469 C 0.88344 0.7617 0.55533 0.0
N470 N 0.8471 0.82545 0.54034 0.0
C471 C 0.82716 0.80083 0.56246 0.0
Co472 Co 0.87424 0.65207 0.05338 0.0
Co473 Co 0.88795 0.60849 0.14264 0.0
O474 O 0.86275 0.645 0.11047 0.0
C475 C 0.89072 0.72862 0.05251 0.0
O476 O 0.92956 0.72236 0.0484 0.0
C477 C 0.81716 0.57919 0.19045 0.0
O478 O 0.82523 0.54817 0.17634 0.0
O479 O 0.86826 0.57232 0.10257 0.0
O480 O 0.88094 0.60078 0.0445 0.0
H481 H 0.96488 0.49773 0.16696 0.0
H482 H 0.79982 0.68135 0.0899 0.0
O483 O 0.86604 0.70383 0.06012 0.0
H484 H 0.75225 0.60515 0.98095 0.0
H485 H 0.85048 0.7074 0.91818 0.0
H486 H 0.93308 0.62405 0.99378 0.0
H487 H 0.82521 0.61194 0.99404 0.0
H488 H 0.83739 0.69685 0.99009 0.0
O489 O 0.83634 0.60557 0.17659 0.0
H490 H 0.93259 0.54289 0.12614 0.0
H491 H 0.89392 0.59542 0.23126 0.0
H492 H 0.94765 0.63379 0.92195 0.0
H493 H 0.72655 0.67549 0.07765 0.0
H494 H 0.90606 0.67583 0.88354 0.0
H495 H 0.70234 0.63718 0.0228 0.0
O496 O 0.9337 0.65585 0.06598 0.0
H497 H 0.87461 0.71584 0.22727 0.0
H498 H 0.96756 0.62402 0.18145 0.0
H499 H 0.99252 0.6693 0.22728 0.0
H500 H 0.94592 0.71564 0.25055 0.0
H501 H 0.85078 0.66999 0.18156 0.0
H502 H 0.92622 0.5511 0.27352 0.0
H503 H 0.96207 0.50173 0.24145 0.0
O504 O 0.94072 0.61278 0.11144 0.0
C505 C 0.87246 0.57306 0.06398 0.0
C506 C 0.94964 0.51925 0.18135 0.0
C507 C 0.92802 0.5492 0.24109 0.0
N508 N 0.91211 0.57233 0.17585 0.0
C509 C 0.93139 0.54503 0.15818 0.0
C510 C 0.90986 0.57432 0.2169 0.0
C511 C 0.94803 0.52149 0.22311 0.0
C512 C 0.78952 0.66478 0.06583 0.0
N513 N 0.8168 0.64723 0.04254 0.0
C514 C 0.748 0.6615 0.0591 0.0
C515 C 0.73444 0.63998 0.02835 0.0
C516 C 0.76242 0.62201 1.00484 0.0
C517 C 0.80371 0.62591 1.01246 0.0
C518 C 0.86894 0.6891 0.93457 0.0
C519 C 0.91535 0.64251 0.97752 0.0
C520 C 0.8618 0.68309 0.97542 0.0
N521 N 0.88504 0.6601 0.99649 0.0
C522 C 0.92349 0.64788 0.93672 0.0
C523 C 0.90012 0.67141 0.91518 0.0
C524 C 0.95562 0.63587 0.08773 0.0
C525 C 0.89516 0.6957 0.21749 0.0
C526 C 0.94701 0.64403 0.19147 0.0
C527 C 0.96133 0.66958 0.21751 0.0
C528 C 0.93518 0.69559 0.23051 0.0
N529 N 0.90757 0.64407 0.17912 0.0
C530 C 0.88183 0.6696 0.19164 0.0
Co531 Co 0.6482 0.38187 0.56403 0.0
Co532 Co 0.62977 0.42641 0.6506 0.0
O533 O 0.65927 0.3901 0.62121 0.0
C534 C 0.64467 0.30412 0.58124 0.0
O535 O 0.60911 0.30561 0.59894 0.0
C536 C 0.71029 0.41942 0.6965 0.0
O537 O 0.72255 0.39354 0.67402 0.0
O538 O 0.6509 0.46149 0.61016 0.0
O539 O 0.63556 0.43167 0.55448 0.0
H540 H 0.54959 0.53692 0.65983 0.0
H541 H 0.72655 0.36088 0.59932 0.0
O542 O 0.66301 0.33166 0.57023 0.0
H543 H 0.76218 0.43823 0.4864 0.0
H544 H 0.67114 0.32682 0.42848 0.0
H545 H 0.58368 0.40443 0.50818 0.0
H546 H 0.69081 0.42453 0.50158 0.0
H547 H 0.68702 0.33942 0.49928 0.0
O548 O 0.67747 0.43553 0.6883 0.0
H549 H 0.58389 0.48884 0.62519 0.0
H550 H 0.61864 0.44576 0.73724 0.0
H551 H 0.56692 0.39272 0.43737 0.0
H552 H 0.7984 0.37351 0.58493 0.0
H553 H 0.61079 0.35364 0.397 0.0
H554 H 0.8166 0.41255 0.52814 0.0
O555 O 0.59004 0.3732 0.57764 0.0
H556 H 0.63201 0.31405 0.72896 0.0
H557 H 0.54986 0.41513 0.69093 0.0
H558 H 0.52011 0.3701 0.73421 0.0
H559 H 0.56131 0.31912 0.75391 0.0
H560 H 0.66062 0.35956 0.68592 0.0
H561 H 0.58508 0.49357 0.77317 0.0
H562 H 0.54981 0.53946 0.73445 0.0
O563 O 0.5794 0.41854 0.61734 0.0
C564 C 0.64557 0.4597 0.57197 0.0
C565 C 0.56439 0.51685 0.67709 0.0
C566 C 0.58434 0.49255 0.74066 0.0
N567 N 0.60202 0.46364 0.67904 0.0
C568 C 0.58368 0.48937 0.6576 0.0
C569 C 0.60329 0.46547 0.7201 0.0
C570 C 0.5646 0.51831 0.71893 0.0
C571 C 0.73426 0.3776 0.57438 0.0
N572 N 0.70451 0.3917 0.55122 0.0
C573 C 0.77498 0.38477 0.56643 0.0
C574 C 0.78517 0.40669 0.53459 0.0
C575 C 0.75466 0.42109 0.51114 0.0
C576 C 0.71428 0.41326 0.51994 0.0
C577 C 0.65182 0.34393 0.44574 0.0
C578 C 0.60308 0.38755 0.4908 0.0
C579 C 0.66059 0.35111 0.48591 0.0
N580 N 0.63642 0.3728 0.50787 0.0
C581 C 0.59337 0.38095 0.45071 0.0
C582 C 0.61797 0.35899 0.42809 0.0
C583 C 0.56573 0.3938 0.59559 0.0
C584 C 0.61399 0.33648 0.72129 0.0
C585 C 0.56854 0.3936 0.70002 0.0
C586 C 0.55127 0.36792 0.7243 0.0
C587 C 0.57431 0.33928 0.7352 0.0
N588 N 0.60804 0.39143 0.68754 0.0
C589 C 0.63022 0.36267 0.69699 0.0
Co590 Co 0.8716 0.37586 0.97608 0.0
Co591 Co 0.88152 0.41069 0.88064 0.0
O592 O 0.85424 0.37989 0.91977 0.0
C593 C 0.8433 0.30264 0.95267 0.0
O594 O 0.83436 0.31322 0.91632 0.0
C595 C 0.81192 0.44428 0.83753 0.0
O596 O 0.8236 0.47445 0.85156 0.0
O597 O 0.86983 0.45183 0.91743 0.0
O598 O 0.88276 0.42735 0.97781 0.0
H599 H 0.98005 0.50249 0.834 0.0
H600 H 0.7884 0.3574 0.94718 0.0
O601 O 0.85937 0.32373 0.9778 0.0
H602 H 0.76694 0.43244 0.06497 0.0
H603 H 0.86715 0.33326 0.12002 0.0
H604 H 0.94047 0.40526 0.02144 0.0
H605 H 0.8359 0.41917 0.04149 0.0
H606 H 0.84265 0.33885 0.05072 0.0
O607 O 0.82837 0.41649 0.8507 0.0
H608 H 0.94529 0.46519 0.88337 0.0
H609 H 0.87752 0.41755 0.7911 0.0
H610 H 0.96607 0.40114 0.09055 0.0
H611 H 0.7191 0.37051 0.96923 0.0
H612 H 0.92932 0.36477 0.14056 0.0
H613 H 0.70783 0.408 0.02885 0.0
O614 O 0.92841 0.36597 0.95771 0.0
H615 H 0.84606 0.30024 0.80871 0.0
H616 H 0.95556 0.3829 0.83954 0.0
H617 H 0.97057 0.33128 0.79865 0.0
H618 H 0.91562 0.28947 0.78297 0.0
H619 H 0.83237 0.35212 0.84969 0.0
H620 H 0.91219 0.45342 0.74024 0.0
H621 H 0.96361 0.49662 0.76154 0.0
O622 O 0.93558 0.40451 0.90756 0.0
C623 C 0.87515 0.45382 0.95582 0.0
C624 C 0.95712 0.48427 0.82435 0.0
C625 C 0.91922 0.45665 0.77177 0.0
N626 N 0.90789 0.44049 0.84084 0.0
C627 C 0.93685 0.46355 0.85248 0.0
C628 C 0.89942 0.43657 0.80085 0.0
C629 C 0.94804 0.48086 0.78372 0.0
C630 C 0.78413 0.37343 0.97331 0.0
N631 N 0.81659 0.38613 0.99395 0.0
C632 C 0.7446 0.38091 0.9856 0.0
C633 C 0.73829 0.40196 0.01902 0.0
C634 C 0.77142 0.41556 0.03938 0.0
C635 C 0.8105 0.40768 0.02606 0.0
C636 C 0.88358 0.34908 0.0985 0.0
C637 C 0.92433 0.38952 0.04279 0.0
C638 C 0.86994 0.35204 0.05897 0.0
N639 N 0.89017 0.37214 0.03156 0.0
C640 C 0.93897 0.38721 0.08202 0.0
C641 C 0.91839 0.3668 0.11003 0.0
C642 C 0.95028 0.38287 0.93259 0.0
C643 C 0.87028 0.31825 0.81535 0.0
C644 C 0.93146 0.36478 0.83309 0.0
C645 C 0.94015 0.33565 0.80974 0.0
C646 C 0.90931 0.31221 0.80095 0.0
N647 N 0.89312 0.37047 0.84733 0.0
C648 C 0.8627 0.34772 0.83853 0.0
Co649 Co 0.65151 0.65266 0.46061 0.0
Co650 Co 0.63104 0.60464 0.37534 0.0
O651 O 0.66014 0.64179 0.40348 0.0
C652 C 0.63994 0.72992 0.45467 0.0
O653 O 0.60042 0.72666 0.45461 0.0
C654 C 0.71286 0.60995 0.32966 0.0
O655 O 0.7246 0.63698 0.35045 0.0
O656 O 0.64987 0.57025 0.41756 0.0
O657 O 0.64258 0.6024 0.47379 0.0
H658 H 0.53983 0.49997 0.36601 0.0
H659 H 0.72587 0.67752 0.4193 0.0
O660 O 0.6623 0.70327 0.44946 0.0
H661 H 0.77385 0.60601 0.53233 0.0
H662 H 0.68098 0.71867 0.58798 0.0
H663 H 0.5985 0.62666 0.52714 0.0
H664 H 0.70081 0.61438 0.52119 0.0
H665 H 0.69136 0.70207 0.51739 0.0
O666 O 0.67992 0.59402 0.33878 0.0
H667 H 0.57515 0.54756 0.40014 0.0
H668 H 0.62663 0.58086 0.2897 0.0
H669 H 0.58697 0.64216 0.59796 0.0
H670 H 0.79921 0.67006 0.42951 0.0
H671 H 0.62833 0.68875 0.62892 0.0
H672 H 0.82364 0.63402 0.48634 0.0
O673 O 0.59164 0.65815 0.45067 0.0
H674 H 0.63694 0.71439 0.29197 0.0
H675 H 0.55265 0.6149 0.33294 0.0
H676 H 0.52532 0.65775 0.28574 0.0
H677 H 0.56754 0.70797 0.26469 0.0
H678 H 0.66343 0.67078 0.33833 0.0
H679 H 0.59243 0.53336 0.2542 0.0
H680 H 0.54837 0.49253 0.29229 0.0
O681 O 0.58058 0.61382 0.40798 0.0
C682 C 0.64775 0.57337 0.4561 0.0
C683 C 0.55893 0.51758 0.34903 0.0
C684 C 0.5885 0.53626 0.28635 0.0
N685 N 0.60305 0.56719 0.34738 0.0
C686 C 0.57898 0.54469 0.36838 0.0
C687 C 0.60807 0.56304 0.30677 0.0
C688 C 0.56375 0.5134 0.3077 0.0
C689 C 0.73626 0.66188 0.44414 0.0
N690 N 0.70906 0.64639 0.46956 0.0
C691 C 0.77783 0.65772 0.44976 0.0
C692 C 0.79151 0.6375 0.48165 0.0
C693 C 0.7636 0.62178 0.50747 0.0
C694 C 0.72225 0.62655 0.50093 0.0
C695 C 0.66227 0.69871 0.57471 0.0
C696 C 0.61574 0.64735 0.5399 0.0
C697 C 0.66768 0.68939 0.53449 0.0
N698 N 0.64395 0.66441 0.51722 0.0
C699 C 0.60952 0.65584 0.58028 0.0
C700 C 0.6328 0.6819 0.59766 0.0
C701 C 0.56791 0.63807 0.431 0.0
C702 C 0.61854 0.69222 0.3002 0.0
C703 C 0.57199 0.63587 0.32298 0.0
C704 C 0.55601 0.66039 0.29656 0.0
C705 C 0.5796 0.68864 0.28495 0.0
N706 N 0.61091 0.63864 0.33663 0.0
C707 C 0.63356 0.66709 0.32644 0.0
Co708 Co 0.20219 0.40699 0.89925 0.0
Co709 Co 0.20131 0.36889 0.99149 0.0
O710 O 0.22266 0.3713 0.93622 0.0
C711 C 0.22909 0.34702 0.84512 0.0
O712 O 0.23789 0.32682 0.87561 0.0
C713 C 0.29059 0.35218 1.00382 0.0
O714 O 0.30288 0.37798 0.98101 0.0
O715 O 0.22117 0.41791 1.00031 0.0
O716 O 0.19371 0.44032 0.94461 0.0
H717 H 0.13574 0.41797 0.11577 0.0
H718 H 0.2853 0.37727 0.89437 0.0
O719 O 0.21179 0.37624 0.85065 0.0
H720 H 0.30479 0.50364 0.8896 0.0
H721 H 0.19616 0.4757 0.77025 0.0
H722 H 0.13234 0.45502 0.90255 0.0
H723 H 0.23642 0.47873 0.89577 0.0
H724 H 0.22479 0.43283 0.81709 0.0
O725 O 0.25317 0.34776 1.0112 0.0
H726 H 0.16015 0.41898 0.0457 0.0
H727 H 0.20324 0.31585 0.05717 0.0
H728 H 0.10303 0.49843 0.85679 0.0
H729 H 0.35415 0.40085 0.88729 0.0
H730 H 0.13495 0.509 0.79007 0.0
H731 H 0.36435 0.46464 0.88489 0.0
O732 O 0.14604 0.38781 0.90721 0.0
H733 H 0.21315 0.24694 0.93978 0.0
H734 H 0.12322 0.33118 1.00662 0.0
H735 H 0.09785 0.27247 0.99192 0.0
H736 H 0.14298 0.22981 0.95843 0.0
H737 H 0.23711 0.30611 0.95444 0.0
H738 H 0.17973 0.31384 0.12754 0.0
H739 H 0.14538 0.36506 0.15725 0.0
O740 O 0.14674 0.38671 0.97427 0.0
C741 C 0.21018 0.44399 0.97896 0.0
C742 C 0.15017 0.39531 0.10302 0.0
C743 C 0.1749 0.33691 0.10964 0.0
N744 N 0.18176 0.36712 0.04671 0.0
C745 C 0.16375 0.39563 0.06318 0.0
C746 C 0.18803 0.33818 0.06967 0.0
C747 C 0.15568 0.36565 0.1263 0.0
C748 C 0.28922 0.40481 0.8918 0.0
N749 N 0.25648 0.42628 0.89321 0.0
C750 C 0.32842 0.41815 0.88846 0.0
C751 C 0.33413 0.45391 0.88728 0.0
C752 C 0.30074 0.47579 0.88984 0.0
C753 C 0.262 0.46146 0.89307 0.0
C754 C 0.18199 0.47135 0.79925 0.0
C755 C 0.14658 0.45959 0.87369 0.0
C756 C 0.19796 0.44697 0.82587 0.0
N757 N 0.18037 0.44148 0.86268 0.0
C758 C 0.12977 0.48416 0.84785 0.0
C759 C 0.14767 0.49004 0.8104 0.0
C760 C 0.12748 0.38539 0.94109 0.0
C761 C 0.19319 0.26529 0.95441 0.0
C762 C 0.143 0.3129 0.99173 0.0
C763 C 0.12848 0.27962 0.98364 0.0
C764 C 0.15382 0.2557 0.96485 0.0
N765 N 0.18166 0.32216 0.98135 0.0
C766 C 0.20662 0.29883 0.96287 0.0
Co767 Co 0.31446 0.61192 0.3948 0.0
Co768 Co 0.32513 0.65099 0.48692 0.0
O769 O 0.29884 0.64839 0.43366 0.0
C770 C 0.28555 0.67262 0.34252 0.0
O771 O 0.27807 0.69268 0.37343 0.0
C772 C 0.24153 0.68473 0.49681 0.0
O773 O 0.23333 0.6803 0.45864 0.0
O774 O 0.30566 0.60256 0.49812 0.0
O775 O 0.3262 0.57817 0.4402 0.0
H776 H 0.43254 0.61928 0.5898 0.0
H777 H 0.23209 0.6432 0.3964 0.0
O778 O 0.30178 0.64286 0.34712 0.0
H779 H 0.20895 0.51733 0.39135 0.0
H780 H 0.30608 0.5442 0.26538 0.0
H781 H 0.38235 0.56182 0.39059 0.0
H782 H 0.27817 0.54085 0.39451 0.0
H783 H 0.28348 0.58725 0.3152 0.0
O784 O 0.27366 0.67152 0.51183 0.0
H785 H 0.40182 0.62017 0.52419 0.0
H786 H 0.30632 0.68362 0.56957 0.0
H787 H 0.40578 0.5181 0.34187 0.0
H788 H 0.1623 0.62105 0.3939 0.0
H789 H 0.36753 0.50907 0.27863 0.0
H790 H 0.1503 0.55751 0.39099 0.0
O791 O 0.37118 0.6304 0.39591 0.0
H792 H 0.31972 0.77145 0.42686 0.0
H793 H 0.40321 0.68812 0.50156 0.0
H794 H 0.43074 0.74555 0.48583 0.0
H795 H 0.38902 0.78794 0.44821 0.0
H796 H 0.29323 0.71394 0.44359 0.0
H797 H 0.33737 0.6837 0.63495 0.0
H798 H 0.401 0.65133 0.64635 0.0
O799 O 0.37676 0.63264 0.46275 0.0
C800 C 0.3131 0.57584 0.47647 0.0
C801 C 0.40463 0.6334 0.58532 0.0
C802 C 0.35146 0.66956 0.61053 0.0
N803 N 0.35099 0.65172 0.54082 0.0
C804 C 0.38625 0.6338 0.5476 0.0
C805 C 0.33385 0.66939 0.57242 0.0
C806 C 0.38706 0.6514 0.61698 0.0
C807 C 0.22724 0.61579 0.39475 0.0
N808 N 0.25939 0.5937 0.39417 0.0
C809 C 0.18758 0.60324 0.39355 0.0
C810 C 0.18086 0.56762 0.39196 0.0
C811 C 0.21374 0.54509 0.39204 0.0
C812 C 0.25295 0.55863 0.39363 0.0
C813 C 0.323 0.54785 0.29284 0.0
C814 C 0.36543 0.55789 0.36341 0.0
C815 C 0.31048 0.57235 0.32115 0.0
N816 N 0.33152 0.577 0.35609 0.0
C817 C 0.37888 0.53315 0.3358 0.0
C818 C 0.35745 0.52814 0.3003 0.0
C819 C 0.39236 0.63418 0.4276 0.0
C820 C 0.33805 0.75341 0.44376 0.0
C821 C 0.38409 0.70639 0.48626 0.0
C822 C 0.40022 0.73894 0.47695 0.0
C823 C 0.3769 0.76264 0.45571 0.0
N824 N 0.34554 0.69757 0.4752 0.0
C825 C 0.32301 0.72057 0.45351 0.0
Co826 Co 0.21213 0.61726 0.12127 0.0
Co827 Co 0.20013 0.66405 0.03343 0.0
O828 O 0.22704 0.65578 0.08524 0.0
C829 C 0.23679 0.67646 0.17745 0.0
O830 O 0.243 0.69837 0.14786 0.0
C831 C 0.28952 0.67738 0.01356 0.0
O832 O 0.30203 0.65013 0.0336 0.0
O833 O 0.2146 0.61536 0.0158 0.0
O834 O 0.20311 0.58596 0.07364 0.0
H835 H 0.09751 0.64524 0.9228 0.0
H836 H 0.29251 0.65267 0.1216 0.0
O837 O 0.22232 0.64628 0.17097 0.0
H838 H 0.32336 0.52798 0.1206 0.0
H839 H 0.22273 0.54372 0.24638 0.0
H840 H 0.14793 0.56317 0.12071 0.0
H841 H 0.25281 0.54818 0.118 0.0
H842 H 0.24306 0.59041 0.19993 0.0
O843 O 0.25193 0.68383 1.0104 0.0
H844 H 0.12827 0.63492 0.98828 0.0
H845 H 0.21126 0.71744 0.9684 0.0
H846 H 0.12689 0.5158 0.16595 0.0
H847 H 0.36346 0.63381 0.12424 0.0
H848 H 0.16439 0.50583 0.22944 0.0
H849 H 0.37939 0.5709 0.12396 0.0
O850 O 0.15397 0.63269 0.12052 0.0
H851 H 0.22802 0.78087 0.09429 0.0
H852 H 0.12398 0.70569 0.0339 0.0
H853 H 0.10532 0.76417 0.05699 0.0
H854 H 0.15754 0.80229 0.08734 0.0
H855 H 0.24529 0.72203 0.07125 0.0
H856 H 0.18114 0.72869 0.90272 0.0
H857 H 0.12394 0.69239 0.87904 0.0
O858 O 0.14713 0.64639 0.0553 0.0
C859 C 0.21054 0.58692 0.03582 0.0
C860 C 0.12325 0.66058 0.93219 0.0
C861 C 0.17008 0.70738 0.92096 0.0
N862 N 0.17419 0.67327 0.98158 0.0
C863 C 0.14156 0.65426 0.96924 0.0
C864 C 0.18758 0.70033 0.95821 0.0
C865 C 0.13793 0.68712 0.90775 0.0
C866 C 0.29897 0.62542 0.12252 0.0
N867 N 0.26823 0.60176 0.12167 0.0
C868 C 0.33934 0.61479 0.12351 0.0
C869 C 0.34825 0.57953 0.12324 0.0
C870 C 0.31684 0.55545 0.12146 0.0
C871 C 0.27686 0.5671 0.12025 0.0
C872 C 0.20611 0.5478 0.21882 0.0
C873 C 0.16447 0.55895 0.14802 0.0
C874 C 0.21731 0.57439 0.19244 0.0
N875 N 0.19665 0.57963 0.15737 0.0
C876 C 0.1524 0.5321 0.17366 0.0
C877 C 0.17342 0.52654 0.20929 0.0
C878 C 0.1322 0.6399 0.08994 0.0
C879 C 0.20498 0.76452 0.08111 0.0
C880 C 0.14689 0.72198 0.04726 0.0
C881 C 0.13613 0.75515 0.06019 0.0
C882 C 0.16544 0.77652 0.07722 0.0
N883 N 0.18572 0.71033 0.0513 0.0
C884 C 0.21461 0.73117 0.06792 0.0
Co885 Co 0.30837 0.40312 0.62081 0.0
Co886 Co 0.31406 0.35843 0.53288 0.0
O887 O 0.28962 0.36534 0.58621 0.0
C888 C 0.27849 0.34633 0.67857 0.0
O889 O 0.26994 0.32488 0.64926 0.0
C890 C 0.22466 0.34494 0.515 0.0
O891 O 0.21224 0.37286 0.53382 0.0
O892 O 0.29702 0.40683 0.51773 0.0
O893 O 0.31993 0.43334 0.57308 0.0
H894 H 0.38758 0.39602 0.40716 0.0
H895 H 0.22477 0.37378 0.62335 0.0
O896 O 0.29608 0.37529 0.67148 0.0
H897 H 0.20657 0.50017 0.617 0.0
H898 H 0.30906 0.47882 0.74438 0.0
H899 H 0.37769 0.45209 0.61612 0.0
H900 H 0.27486 0.47485 0.61642 0.0
H901 H 0.28242 0.4333 0.69982 0.0
O902 O 0.26212 0.33768 0.51257 0.0
H903 H 0.36105 0.40274 0.47601 0.0
H904 H 0.31259 0.30079 0.47294 0.0
H905 H 0.40502 0.49806 0.65958 0.0
H906 H 0.15595 0.39783 0.62483 0.0
H907 H 0.37072 0.51166 0.7243 0.0
H908 H 0.1464 0.46163 0.62163 0.0
O909 O 0.36446 0.38366 0.61755 0.0
H910 H 0.29214 0.24161 0.59645 0.0
H911 H 0.3899 0.31595 0.52459 0.0
H912 H 0.41066 0.25765 0.54612 0.0
H913 H 0.36146 0.21981 0.58217 0.0
H914 H 0.27333 0.30054 0.57506 0.0
H915 H 0.33881 0.29285 0.40412 0.0
H916 H 0.37681 0.34061 0.37077 0.0
O917 O 0.3687 0.37654 0.55154 0.0
C918 C 0.30688 0.43424 0.53711 0.0
C919 C 0.37139 0.37489 0.42147 0.0
C920 C 0.34407 0.317 0.41979 0.0
N921 N 0.33629 0.35192 0.47912 0.0
C922 C 0.35627 0.37857 0.46053 0.0
C923 C 0.32944 0.32163 0.4589 0.0
C924 C 0.36532 0.34382 0.40107 0.0
C925 C 0.22106 0.40141 0.62355 0.0
N926 N 0.25407 0.42271 0.62223 0.0
C927 C 0.1819 0.41498 0.62369 0.0
C928 C 0.17657 0.45074 0.62173 0.0
C929 C 0.2103 0.47237 0.61923 0.0
C930 C 0.24897 0.45783 0.61921 0.0
C931 C 0.32431 0.4731 0.71627 0.0
C932 C 0.36236 0.45796 0.64407 0.0
C933 C 0.3095 0.4472 0.69098 0.0
N934 N 0.32849 0.43991 0.65533 0.0
C935 C 0.37808 0.48399 0.66863 0.0
C936 C 0.35887 0.49155 0.70497 0.0
C937 C 0.3859 0.37971 0.58575 0.0
C938 C 0.31395 0.25784 0.5809 0.0
C939 C 0.36868 0.30011 0.54093 0.0
C940 C 0.38044 0.26688 0.55275 0.0
C941 C 0.35282 0.24565 0.5729 0.0
N942 N 0.33054 0.31199 0.54894 0.0
C943 C 0.30338 0.29125 0.56867 0.0
C944 C 0.33742 0.28346 0.07193 0.0
C945 C 0.36096 0.26403 0.04408 0.0
C946 C 0.34117 0.30438 0.98998 0.0
C947 C 0.31906 0.32466 0.01811 0.0
N948 N 0.30261 0.33743 0.0871 0.0
N949 N 0.39219 0.26076 0.978 0.0
C950 C 0.31918 0.3153 0.05951 0.0
C951 C 0.3654 0.27624 1.00376 0.0
N952 N 0.33217 0.2713 0.11024 0.0
N953 N 0.3365 0.30996 0.94962 0.0
H954 H 0.40855 0.23856 0.98485 0.0
H955 H 0.40036 0.27148 0.95034 0.0
H956 H 0.31851 0.32956 0.93776 0.0
H957 H 0.34736 0.29309 0.92767 0.0
H958 H 0.31136 0.28163 0.13053 0.0
H959 H 0.34734 0.24961 0.12127 0.0
H960 H 0.30475 0.33397 0.11806 0.0
H961 H 0.28981 0.36115 0.07907 0.0
C962 C 0.17272 0.70907 0.51533 0.0
C963 C 0.21533 0.70896 0.5211 0.0
C964 C 0.20633 0.75616 0.56984 0.0
C965 C 0.16611 0.76172 0.55673 0.0
N966 N 0.1136 0.74525 0.50935 0.0
N967 N 0.27291 0.74116 0.54694 0.0
C968 C 0.1496 0.73845 0.52773 0.0
C969 C 0.23235 0.73458 0.54689 0.0
N970 N 0.15411 0.68119 0.49816 0.0
N971 N 0.22007 0.77183 0.60392 0.0
H972 H 0.29315 0.72911 0.52759 0.0
H973 H 0.28559 0.76179 0.56277 0.0
H974 H 0.20124 0.78654 0.62252 0.0
H975 H 0.24859 0.7667 0.61585 0.0
H976 H 0.12271 0.67898 0.49624 0.0
H977 H 0.16973 0.6587 0.49028 0.0
H978 H 0.10296 0.73059 0.4853 0.0
H979 H 0.09643 0.76732 0.51464 0.0
C980 C 0.33433 0.74377 0.94079 0.0
C981 C 0.36044 0.76282 0.9664 0.0
C982 C 0.3441 0.72306 0.02229 0.0
C983 C 0.3186 0.70348 0.9965 0.0
N984 N 0.29663 0.69054 0.92926 0.0
N985 N 0.39813 0.76553 0.02806 0.0
C986 C 0.31613 0.71239 0.95506 0.0
C987 C 0.36789 0.7507 1.00603 0.0
N988 N 0.32502 0.75664 0.90366 0.0
N989 N 0.34365 0.71693 0.06279 0.0
H990 H 0.41637 0.7855 0.01686 0.0
H991 H 0.40774 0.75585 0.05565 0.0
H992 H 0.32664 0.69726 0.07617 0.0
H993 H 0.35759 0.73313 0.08358 0.0
H994 H 0.30242 0.74633 0.88552 0.0
H995 H 0.338 0.7792 0.89199 0.0
H996 H 0.29681 0.69371 0.89817 0.0
H997 H 0.28341 0.6673 0.93872 0.0
C998 C 0.18329 0.31325 0.46281 0.0
C999 C 0.19591 0.31696 0.50326 0.0
C1000 C 0.18271 0.25555 0.51505 0.0
C1001 C 0.16751 0.25157 0.47528 0.0
N1002 N 0.14413 0.27979 0.41485 0.0
N1003 N 0.1938 0.29468 0.57072 0.0
C1004 C 0.16487 0.28147 0.4502 0.0
C1005 C 0.19032 0.2892 0.53036 0.0
N1006 N 0.18992 0.33967 0.43625 0.0
N1007 N 0.19458 0.22746 0.53683 0.0
H1008 H 0.19945 0.31922 0.58265 0.0
H1009 H 0.18709 0.27562 0.59202 0.0
H1010 H 0.19512 0.20266 0.52489 0.0
H1011 H 0.20916 0.22945 0.56446 0.0
H1012 H 0.18575 0.33718 0.40536 0.0
H1013 H 0.2016 0.3636 0.4452 0.0
H1014 H 0.13846 0.30141 0.39696 0.0
H1015 H 0.12904 0.25745 0.4055 0.0
C1016 C 0.85029 0.78196 0.07089 0.0
C1017 C 0.87393 0.76358 0.04219 0.0
C1018 C 0.85267 0.80465 0.98949 0.0
C1019 C 0.8297 0.82344 0.01833 0.0
N1020 N 0.81308 0.83441 0.08765 0.0
N1021 N 0.90467 0.76221 0.97583 0.0
C1022 C 0.83059 0.81339 0.05945 0.0
C1023 C 0.87774 0.7767 1.00222 0.0
N1024 N 0.84619 0.76906 0.10902 0.0
N1025 N 0.84806 0.81147 0.94939 0.0
H1026 H 0.92173 0.74025 0.98204 0.0
H1027 H 0.91237 0.77355 0.94838 0.0
H1028 H 0.82999 0.83136 0.93834 0.0
H1029 H 0.85935 0.79553 0.92672 0.0
H1030 H 0.82542 0.77848 0.12994 0.0
H1031 H 0.86247 0.74769 0.11931 0.0
H1032 H 0.81551 0.8305 0.11851 0.0
H1033 H 0.79903 0.85774 0.08019 0.0
C1034 C 0.73127 0.24675 0.55402 0.0
C1035 C 0.71275 0.21877 0.53295 0.0
C1036 C 0.64606 0.24409 0.54876 0.0
C1037 C 0.66506 0.27046 0.57192 0.0
N1038 N 0.72437 0.28782 0.60841 0.0
N1039 N 0.65154 0.18602 0.52136 0.0
C1040 C 0.70717 0.2684 0.57876 0.0
C1041 C 0.66978 0.21584 0.53398 0.0
N1042 N 0.77087 0.25532 0.54766 0.0
N1043 N 0.60622 0.24679 0.53854 0.0
H1044 H 0.66793 0.16439 0.51191 0.0
H1045 H 0.62058 0.18148 0.52459 0.0
H1046 H 0.58763 0.26692 0.54813 0.0
H1047 H 0.59247 0.23032 0.51787 0.0
H1048 H 0.78404 0.27761 0.55962 0.0
H1049 H 0.78925 0.24283 0.52692 0.0
H1050 H 0.75473 0.28543 0.61638 0.0
H1051 H 0.70708 0.30319 0.62777 0.0
C1052 C 0.81221 0.26123 1.00399 0.0
C1053 C 0.8306 0.26673 0.9658 0.0
C1054 C 0.8143 0.20597 0.94896 0.0
C1055 C 0.80004 0.2001 0.98899 0.0
N1056 N 0.80164 0.22008 0.05767 0.0
N1057 N 0.85877 0.24021 0.90612 0.0
C1058 C 0.80486 0.22698 0.01754 0.0
C1059 C 0.83481 0.23776 0.93958 0.0
N1060 N 0.79733 0.2883 0.0257 0.0
N1061 N 0.80639 0.18267 0.91917 0.0
H1062 H 0.8756 0.26237 0.89923 0.0
H1063 H 0.86541 0.21898 0.8879 0.0
H1064 H 0.79066 0.15962 0.92382 0.0
H1065 H 0.81243 0.18783 0.88895 0.0
H1066 H 0.78122 0.28488 0.05249 0.0
H1067 H 0.79561 0.31319 0.01386 0.0
H1068 H 0.80716 0.23886 0.07953 0.0
H1069 H 0.79787 0.1949 0.0687 0.0
C1070 C 0.72744 0.78907 0.47485 0.0
C1071 C 0.71237 0.81344 0.50325 0.0
C1072 C 0.64586 0.78494 0.49846 0.0
C1073 C 0.66046 0.76321 0.46668 0.0
N1074 N 0.71191 0.75577 0.41557 0.0
N1075 N 0.653 0.84049 0.53177 0.0
C1076 C 0.69996 0.76949 0.45151 0.0
C1077 C 0.67014 0.81344 0.51152 0.0
N1078 N 0.76751 0.78112 0.47327 0.0
N1079 N 0.61088 0.77742 0.51878 0.0
H1080 H 0.66948 0.86233 0.54035 0.0
H1081 H 0.62179 0.84287 0.53569 0.0
H1082 H 0.59274 0.756 0.51314 0.0
H1083 H 0.60206 0.79079 0.54459 0.0
H1084 H 0.77912 0.76169 0.45473 0.0
H1085 H 0.78753 0.7897 0.495 0.0
H1086 H 0.74007 0.76131 0.4027 0.0
H1087 H 0.69197 0.74237 0.39691 0.0
C1088 C 0.32922 0.02845 0.02336 0.0
C1089 C 0.36525 0.04043 0.04217 0.0
C1090 C 0.4049 0.99836 1.00225 0.0
C1091 C 0.36892 0.98562 0.98421 0.0
N1092 N 0.29625 0.98601 0.98001 0.0
N1093 N 0.43652 0.03374 0.05317 0.0
C1094 C 0.33088 1.00022 0.9952 0.0
C1095 C 0.40274 0.02441 0.03254 0.0
N1096 N 0.29336 0.04414 0.0327 0.0
N1097 N 0.44163 0.98624 0.98935 0.0
H1098 H 0.43656 0.05468 0.07258 0.0
H1099 H 0.46364 0.02006 0.05269 0.0
H1100 H 0.44465 0.96655 0.96821 0.0
H1101 H 0.46928 0.99724 0.99712 0.0
H1102 H 0.26649 0.04004 0.01725 0.0
H1103 H 0.29079 0.06233 0.05575 0.0
H1104 H 0.26722 0.99248 0.9896 0.0
H1105 H 0.29652 0.96621 0.95869 0.0
C1106 C 0.11345 1.00197 0.54452 0.0
C1107 C 0.15042 0.98566 0.55391 0.0
C1108 C 0.18374 0.02228 0.50185 0.0
C1109 C 0.1452 0.03441 0.48886 0.0
N1110 N 0.07262 0.02928 0.49387 0.0
N1111 N 0.22206 0.98135 0.54275 0.0
C1112 C 0.10994 0.02217 0.50908 0.0
C1113 C 0.186 0.99608 0.5327 0.0
N1114 N 0.08195 0.99975 0.57083 0.0
N1115 N 0.21808 0.03693 0.48623 0.0
H1116 H 0.22485 0.96486 0.56751 0.0
H1117 H 0.2486 0.98458 0.52616 0.0
H1118 H 0.21751 0.05566 0.46363 0.0
H1119 H 0.24696 0.03221 0.49726 0.0
H1120 H 0.05518 0.01375 0.56783 0.0
H1121 H 0.08531 0.98723 0.59814 0.0
H1122 H 0.04597 0.0184 0.50519 0.0
H1123 H 0.06902 0.04297 0.46724 0.0
C1124 C 0.74756 0.99068 1.00995 0.0
C1125 C 0.71156 0.97111 1.00375 0.0
C1126 C 0.67099 0.0233 0.01666 0.0
C1127 C 0.7065 0.04241 0.0261 0.0
N1128 N 0.77885 0.04402 0.03387 0.0
N1129 N 0.63873 0.9677 1.00567 0.0
C1130 C 0.74493 0.02599 0.02321 0.0
C1131 C 0.67326 0.98719 1.00842 0.0
N1132 N 0.7842 0.97586 1.00165 0.0
N1133 N 0.63499 0.04017 0.01363 0.0
H1134 H 0.63882 0.94147 0.99829 0.0
H1135 H 0.61015 0.97668 0.01381 0.0
H1136 H 0.63238 0.06636 0.01982 0.0
H1137 H 0.60881 0.02925 1.00176 0.0
H1138 H 0.81139 0.98951 1.00082 0.0
H1139 H 0.78719 0.94995 0.99321 0.0
H1140 H 0.80727 0.03281 0.03708 0.0
H1141 H 0.77818 0.07022 0.0416 0.0
C1142 C 0.84215 0.0383 0.52479 0.0
C1143 C 0.80533 0.05256 0.51116 0.0
C1144 C 0.77099 0.99701 0.52582 0.0
C1145 C 0.8092 0.98157 0.53392 0.0
N1146 N 0.88201 0.98731 0.53758 0.0
N1147 N 0.73354 0.04747 0.50225 0.0
C1148 C 0.84492 1.00227 0.5327 0.0
C1149 C 0.76933 0.0324 0.51273 0.0
N1150 N 0.87432 0.05961 0.53165 0.0
N1151 N 0.73634 0.97833 0.53241 0.0
H1152 H 0.73116 0.07399 0.49648 0.0
H1153 H 0.70655 0.03396 0.49844 0.0
H1154 H 0.73646 0.95261 0.54209 0.0
H1155 H 0.70733 0.98863 0.53084 0.0
H1156 H 0.9007 0.05186 0.54608 0.0
H1157 H 0.87277 0.08603 0.52626 0.0
H1158 H 0.90925 1.0 0.5316 0.0
H1159 H 0.88575 0.96129 0.54445 0.0
C1160 C 0.83481 0.49876 0.99559 0.0
C1161 C 0.87217 0.48792 0.97805 0.0
C1162 C 0.90827 0.52757 0.02328 0.0
C1163 C 0.87139 0.54032 0.03927 0.0
N1164 N 0.79864 0.54044 0.03778 0.0
N1165 N 0.94214 0.50157 0.9668 0.0
C1166 C 0.83427 0.52655 0.02456 0.0
C1167 C 0.90816 0.50502 0.98965 0.0
N1168 N 0.79995 0.48234 0.98461 0.0
N1169 N 0.94396 0.53631 0.04085 0.0
H1170 H 0.94206 0.48698 0.94074 0.0
H1171 H 0.96833 0.51622 0.97107 0.0
H1172 H 0.94556 0.55369 0.0646 0.0
H1173 H 0.97131 0.52421 0.03388 0.0
H1174 H 0.77212 0.48621 0.99868 0.0
H1175 H 0.79931 0.46361 0.962 0.0
H1176 H 0.77056 0.53456 0.02549 0.0
H1177 H 0.79747 0.55931 0.06021 0.0
C1178 C 0.68335 0.50671 0.53385 0.0
C1179 C 0.64599 0.4913 0.54575 0.0
C1180 C 0.61029 0.52807 0.49684 0.0
C1181 C 0.64772 0.54205 0.48306 0.0
N1182 N 0.7204 0.5413 0.48432 0.0
N1183 N 0.57435 0.48385 0.5346 0.0
C1184 C 0.68445 0.53038 0.5005 0.0
C1185 C 0.60967 0.50097 0.52595 0.0
N1186 N 0.71777 0.4986 0.5544 0.0
N1187 N 0.57491 0.54165 0.48312 0.0
H1188 H 0.57143 0.46614 0.55809 0.0
H1189 H 0.5484 0.48555 0.51711 0.0
H1190 H 0.5742 0.56162 0.46221 0.0
H1191 H 0.5465 0.53522 0.49456 0.0
H1192 H 0.74545 0.51099 0.54998 0.0
H1193 H 0.71807 0.48088 0.57811 0.0
H1194 H 0.74852 0.53184 0.49293 0.0
H1195 H 0.72191 0.55807 0.45971 0.0
C1196 C 0.24935 0.53276 0.01566 0.0
C1197 C 0.21289 0.55233 0.01513 0.0
C1198 C 0.17529 0.5001 0.99548 0.0
C1199 C 0.21157 0.48032 0.99511 0.0
N1200 N 0.28443 0.47937 0.99766 0.0
N1201 N 0.14418 0.55651 0.99301 0.0
C1202 C 0.24907 0.49707 1.00337 0.0
C1203 C 0.17684 0.53646 1.00163 0.0
N1204 N 0.28428 0.5485 0.02772 0.0
N1205 N 0.13877 0.48393 0.99119 0.0
H1206 H 0.14491 0.58307 0.99705 0.0
H1207 H 0.1184 0.54749 0.97843 0.0
H1208 H 0.13617 0.45753 0.98593 0.0
H1209 H 0.11106 0.49605 0.99629 0.0
H1210 H 0.31113 0.53532 0.03323 0.0
H1211 H 0.28586 0.57503 0.03362 0.0
H1212 H 0.31296 0.49078 0.9989 0.0
H1213 H 0.28528 0.45344 0.9889 0.0
C1214 C 0.34579 0.52291 0.50657 0.0
C1215 C 0.31004 0.54024 0.49462 0.0
C1216 C 0.27086 0.48703 0.50948 0.0
C1217 C 0.30754 0.46898 0.51722 0.0
N1218 N 0.38056 0.46873 0.5181 0.0
N1219 N 0.23785 0.53968 0.4858 0.0
C1220 C 0.34514 0.48668 0.51413 0.0
C1221 C 0.2723 0.52248 0.49638 0.0
N1222 N 0.37996 0.5417 0.5135 0.0
N1223 N 0.2347 0.47073 0.51644 0.0
H1224 H 0.23764 0.56612 0.47916 0.0
H1225 H 0.20983 0.52779 0.48212 0.0
H1226 H 0.23266 0.44479 0.52508 0.0
H1227 H 0.20676 0.4831 0.51584 0.0
H1228 H 0.40598 0.53163 0.52661 0.0
H1229 H 0.38035 0.56843 0.51028 0.0
H1230 H 0.40887 0.47931 0.51153 0.0
H1231 H 0.3816 0.44233 0.52461 0.0
C1232 C 0.55473 0.16319 0.11104 0.0
C1233 C 0.57455 0.13411 0.09355 0.0
C1234 C 0.51006 0.11511 0.06487 0.0
C1235 C 0.48926 0.14172 0.08554 0.0
N1236 N 0.49104 0.18937 0.13217 0.0
N1237 N 0.56769 0.07724 0.06508 0.0
C1238 C 0.51144 0.16539 0.10973 0.0
C1239 C 0.55129 0.10879 0.07334 0.0
N1240 N 0.57717 0.18902 0.12806 0.0
N1241 N 0.49046 0.09567 0.0369 0.0
H1242 H 0.59652 0.07074 0.07471 0.0
H1243 H 0.55107 0.05644 0.05384 0.0
H1244 H 0.45992 0.09895 0.03086 0.0
H1245 H 0.50529 0.07843 0.01774 0.0
H1246 H 0.56498 0.21257 0.13734 0.0
H1247 H 0.6086 0.18785 0.13046 0.0
H1248 H 0.50472 0.20462 0.15406 0.0
H1249 H 0.45975 0.19267 0.13031 0.0
C1250 C 0.96676 0.90478 0.55934 0.0
C1251 C 0.94154 0.88319 0.58409 0.0
C1252 C 1.00371 0.85558 0.61057 0.0
C1253 C 0.02759 0.8812 0.59099 0.0
N1254 N 0.03136 0.93339 0.55143 0.0
N1255 N 0.93687 0.83441 0.6296 0.0
C1256 C 1.00891 0.90669 0.56692 0.0
C1257 C 0.96039 0.85754 0.60876 0.0
N1258 N 0.95179 0.92212 0.52687 0.0
N1259 N 0.02261 0.82913 0.63037 0.0
H1260 H 0.90599 0.83125 0.62441 0.0
H1261 H 0.94767 0.81832 0.65224 0.0
H1262 H 0.05404 0.82747 0.6326 0.0
H1263 H 1.00777 0.80772 0.64253 0.0
H1264 H 0.97008 0.93508 0.50608 0.0
H1265 H 0.92261 0.91979 0.51648 0.0
H1266 H 0.01851 0.95539 0.53855 0.0
H1267 H 0.06265 0.93493 0.55434 0.0
C1268 C 0.52115 0.85929 0.96058 0.0
C1269 C 0.50066 0.8852 0.93792 0.0
C1270 C 0.56694 0.89779 0.90698 0.0
C1271 C 0.58846 0.8795 0.93768 0.0
N1272 N 0.57701 0.85441 1.00504 0.0
N1273 N 0.5138 0.9395 0.90217 0.0
C1274 C 0.56322 0.8636 0.96806 0.0
C1275 C 0.5262 0.90765 0.91466 0.0
N1276 N 0.50214 0.83021 0.97457 0.0
N1277 N 0.5835 0.90584 0.87048 0.0
H1278 H 0.4889 0.95177 0.91476 0.0
H1279 H 0.53277 0.95609 0.88585 0.0
H1280 H 0.61016 0.8953 0.85936 0.0
H1281 H 0.56682 0.91871 0.84847 0.0
H1282 H 0.51783 0.81105 0.99025 0.0
H1283 H 0.47368 0.82222 0.96509 0.0
H1284 H 0.55784 0.84389 0.02697 0.0
H1285 H 0.60433 0.86249 0.01663 0.0
C1286 C 0.99364 0.15981 0.41094 0.0
C1287 C 0.01304 0.12785 0.4207 0.0
C1288 C 0.94635 0.10151 0.43346 0.0
C1289 C 0.92691 0.13271 0.42244 0.0
N1290 N 0.93108 0.19001 0.39429 0.0
N1291 N 1.00446 0.06522 0.42435 0.0
C1292 C 0.95033 0.16141 0.4091 0.0
C1293 C 0.98854 0.09775 0.42679 0.0
N1294 N 0.01659 0.18854 0.40287 0.0
N1295 N 0.92479 0.07543 0.45137 0.0
H1296 H 0.03368 0.06015 0.4149 0.0
H1297 H 0.98681 0.04281 0.42547 0.0
H1298 H 0.89371 0.07678 0.45627 0.0
H1299 H 0.93837 0.05392 0.46464 0.0
H1300 H 1.00483 0.21348 0.40083 0.0
H1301 H 0.04792 0.18765 0.39901 0.0
H1302 H 0.94593 0.21076 0.38064 0.0
H1303 H 0.8996 0.1919 0.39301 0.0
C1304 C 0.06455 0.66611 0.10999 0.0
C1305 C 0.087 0.63834 0.09282 0.0
C1306 C 0.02416 0.6141 0.06547 0.0
C1307 C 1.00095 0.6393 0.08614 0.0
N1308 N 0.99869 0.68987 0.12842 0.0
N1309 N 0.08706 0.58273 0.06014 0.0
C1310 C 0.02112 0.66557 0.1085 0.0
C1311 C 0.06638 0.61145 0.07236 0.0
N1312 N 0.08484 0.69344 0.12656 0.0
N1313 N 1.00629 0.59404 0.03697 0.0
H1314 H 0.11809 0.58003 0.06414 0.0
H1315 H 0.07291 0.56044 0.0494 0.0
H1316 H 0.97595 0.59675 0.02986 0.0
H1317 H 0.02227 0.57785 0.01752 0.0
H1318 H 0.071 0.71636 0.13562 0.0
H1319 H 0.11629 0.69396 0.12931 0.0
H1320 H 0.01073 0.70745 0.14884 0.0
H1321 H 0.96728 0.69145 0.12588 0.0
C1322 C 0.50102 0.36526 0.56484 0.0
C1323 C 0.51982 0.38959 0.59135 0.0
C1324 C 0.45228 0.39828 0.62087 0.0
C1325 C 0.4323 0.38158 0.58809 0.0
N1326 N 0.44608 0.3619 0.51886 0.0
N1327 N 0.50264 0.44198 0.62883 0.0
C1328 C 0.45883 0.36876 0.55692 0.0
C1329 C 0.49256 0.40996 0.615 0.0
N1330 N 0.52161 0.33889 0.54661 0.0
N1331 N 0.43455 0.4036 0.65748 0.0
H1332 H 0.52628 0.45604 0.61617 0.0
H1333 H 0.4825 0.45695 0.64575 0.0
H1334 H 0.40832 0.3913 0.66726 0.0
H1335 H 0.45017 0.41588 0.6807 0.0
H1336 H 0.50672 0.32044 0.5291 0.0
H1337 H 0.55119 0.33189 0.55261 0.0
H1338 H 0.4661 0.35436 0.49612 0.0
H1339 H 0.41832 0.36904 0.50763 0.0
C1340 C 0.0618 0.35695 0.91719 0.0
C1341 C 0.08176 0.3817 0.94222 0.0
C1342 C 0.01553 0.40685 0.95922 0.0
C1343 C 0.99538 0.38139 0.93628 0.0
N1344 N 0.99862 0.32808 0.89916 0.0
N1345 N 0.0725 0.41894 1.00079 0.0
C1346 C 0.01834 0.35516 0.91689 0.0
C1347 C 0.05734 0.40338 0.96728 0.0
N1348 N 0.08424 0.33442 0.89462 0.0
N1349 N 0.99481 0.43473 0.97369 0.0
H1350 H 0.10078 0.41387 1.01231 0.0
H1351 H 0.05454 0.43255 0.02122 0.0
H1352 H 0.96379 0.43748 0.97005 0.0
H1353 H 1.00908 0.4562 0.98638 0.0
H1354 H 0.07211 0.3191 0.87191 0.0
H1355 H 0.11539 0.33144 0.898 0.0
H1356 H 0.01316 0.30633 0.88761 0.0
H1357 H 0.96712 0.32612 0.89881 0.0
C1358 C 0.50173 0.66534 0.40853 0.0
C1359 C 0.52289 0.64209 0.43414 0.0
C1360 C 0.45978 0.6109 0.44732 0.0
C1361 C 0.43754 0.63553 0.42507 0.0
N1362 N 0.43675 0.69004 0.38948 0.0
N1363 N 0.51772 0.60176 0.48895 0.0
C1364 C 0.45833 0.66393 0.40691 0.0
C1365 C 0.5006 0.61758 0.45679 0.0
N1366 N 0.52305 0.68846 0.38559 0.0
N1367 N 0.44248 0.58015 0.45811 0.0
H1368 H 0.54716 0.60723 0.49745 0.0
H1369 H 0.50129 0.58645 0.50916 0.0
H1370 H 0.4133 0.57342 0.4494 0.0
H1371 H 0.45876 0.56008 0.47143 0.0
H1372 H 0.50997 0.70352 0.36314 0.0
H1373 H 0.5544 0.69119 0.38772 0.0
H1374 H 0.44981 0.71312 0.37952 0.0
H1375 H 0.40525 0.68963 0.38755 0.0
C1376 C 0.25186 0.07908 0.2339 0.0
C1377 C 0.28142 0.10572 0.23507 0.0
C1378 C 0.26771 0.11351 0.30779 0.0
C1379 C 0.23867 0.08622 0.30705 0.0
N1380 N 0.20973 0.038 0.27004 0.0
N1381 N 0.32436 0.14239 0.27511 0.0
C1382 C 0.23298 0.06733 0.27041 0.0
C1383 C 0.29118 0.12131 0.2726 0.0
N1384 N 0.24025 0.06608 0.19751 0.0
N1385 N 0.27317 0.13206 0.34235 0.0
H1386 H 0.34287 0.1479 0.25051 0.0
H1387 H 0.336 0.15166 0.30206 0.0
H1388 H 0.26034 0.12494 0.36988 0.0
H1389 H 0.28912 0.15534 0.34347 0.0
H1390 H 0.21519 0.05003 0.19369 0.0
H1391 H 0.25373 0.0736 0.17042 0.0
H1392 H 0.20876 0.021 0.24577 0.0
H1393 H 0.19367 0.0287 0.29471 0.0
C1394 C 0.26458 0.93698 0.79196 0.0
C1395 C 0.28288 0.90474 0.80189 0.0
C1396 C 0.26297 0.8818 0.73524 0.0
C1397 C 0.24633 0.91452 0.7247 0.0
N1398 N 0.23597 0.97464 0.74055 0.0
N1399 N 0.30313 0.84737 0.78082 0.0
C1400 C 0.24844 0.94247 0.75248 0.0
C1401 C 0.2829 0.87743 0.77296 0.0
N1402 N 0.26107 0.96189 0.82097 0.0
N1403 N 0.25809 0.85413 0.71001 0.0
H1404 H 0.31441 0.84115 0.80892 0.0
H1405 H 0.31046 0.82908 0.75899 0.0
H1406 H 0.24617 0.85616 0.6812 0.0
H1407 H 0.26349 0.82856 0.71839 0.0
H1408 H 0.24451 0.98459 0.81748 0.0
H1409 H 0.27203 0.95861 0.85008 0.0
H1410 H 0.24018 0.99705 0.75737 0.0
H1411 H 0.2243 0.97946 0.712 0.0
C1412 C 0.79635 0.83527 0.79358 0.0
C1413 C 0.75434 0.83706 0.80343 0.0
C1414 C 0.73751 0.83496 0.73143 0.0
C1415 C 0.77956 0.83576 0.72153 0.0
N1416 N 0.84836 0.82752 0.74218 0.0
N1417 N 0.68526 0.8296 0.78302 0.0
C1418 C 0.80875 0.8331 0.75244 0.0
C1419 C 0.72505 0.83418 0.77263 0.0
N1420 N 0.82456 0.83706 0.82339 0.0
N1421 N 0.70935 0.83633 0.70156 0.0
H1422 H 0.67543 0.82846 0.81287 0.0
H1423 H 0.66246 0.8239 0.76261 0.0
H1424 H 0.71647 0.83267 0.67141 0.0
H1425 H 0.67886 0.84169 0.70643 0.0
H1426 H 0.85525 0.84142 0.81829 0.0
H1427 H 0.81728 0.835 0.85373 0.0
H1428 H 0.87106 0.82203 0.76278 0.0
H1429 H 0.85799 0.82526 0.71235 0.0
C1430 C 0.71854 0.18393 0.29563 0.0
C1431 C 0.76037 0.18349 0.30562 0.0
C1432 C 0.7784 0.18229 0.23384 0.0
C1433 C 0.73655 0.18026 0.2239 0.0
N1434 N 0.66706 0.18771 0.24368 0.0
N1435 N 0.82961 0.19113 0.28524 0.0
C1436 C 0.7067 0.18372 0.25441 0.0
C1437 C 0.79012 0.18545 0.2749 0.0
N1438 N 0.69011 0.18328 0.32559 0.0
N1439 N 0.80707 0.17965 0.20425 0.0
H1440 H 0.83878 0.19387 0.31506 0.0
H1441 H 0.85269 0.19617 0.26463 0.0
H1442 H 0.80022 0.18065 0.17382 0.0
H1443 H 0.83768 0.17553 0.20964 0.0
H1444 H 0.65952 0.1783 0.32098 0.0
H1445 H 0.69729 0.18716 0.35565 0.0
H1446 H 0.64384 0.19348 0.26381 0.0
H1447 H 0.65775 0.18813 0.21374 0.0
C1448 C 0.72635 0.61039 0.25415 0.0
C1449 C 0.73737 0.59901 0.29337 0.0
C1450 C 0.796 0.5686 0.26358 0.0
C1451 C 0.78793 0.58378 0.22521 0.0
N1452 N 0.74616 0.621 0.18468 0.0
N1453 N 0.78506 0.56995 0.33602 0.0
C1454 C 0.75333 0.60528 0.22082 0.0
C1455 C 0.77285 0.57882 0.29816 0.0
N1456 N 0.68942 0.62534 0.2484 0.0
N1457 N 0.8254 0.54396 0.26719 0.0
H1458 H 0.76808 0.57556 0.36174 0.0
H1459 H 0.81323 0.55922 0.34227 0.0
H1460 H 0.84332 0.53568 0.24333 0.0
H1461 H 0.8297 0.52929 0.29311 0.0
H1462 H 0.67747 0.63092 0.22024 0.0
H1463 H 0.66893 0.62914 0.27174 0.0
H1464 H 0.72493 0.64062 0.18078 0.0
H1465 H 0.76292 0.61575 0.15873 0.0
C1466 C 0.77054 0.44826 0.72955 0.0
C1467 C 0.73412 0.42899 0.73336 0.0
C1468 C 0.74725 0.42169 0.80609 0.0
C1469 C 0.78302 0.44203 0.80262 0.0
N1470 N 0.82342 0.4814 0.76195 0.0
N1471 N 0.68358 0.4035 0.77688 0.0
C1472 C 0.79295 0.45748 0.76469 0.0
C1473 C 0.72123 0.41761 0.77216 0.0
N1474 N 0.78434 0.45718 0.69209 0.0
N1475 N 0.73811 0.40601 0.84193 0.0
H1476 H 0.66392 0.40001 0.75302 0.0
H1477 H 0.67037 0.39815 0.80469 0.0
H1478 H 0.75405 0.4108 0.86834 0.0
H1479 H 0.71592 0.38699 0.84519 0.0
H1480 H 0.81321 0.46705 0.68658 0.0
H1481 H 0.76793 0.45246 0.66593 0.0
H1482 H 0.82883 0.49636 0.73639 0.0
H1483 H 0.84139 0.48877 0.78599 0.0
C1484 C 0.22376 0.33736 0.73152 0.0
C1485 C 0.26559 0.3383 0.72084 0.0
C1486 C 0.28379 0.33659 0.79253 0.0
C1487 C 0.24196 0.33781 0.80321 0.0
N1488 N 0.1726 0.33022 0.78389 0.0
N1489 N 0.33489 0.33008 0.74005 0.0
C1490 C 0.21212 0.33537 0.77288 0.0
C1491 C 0.29542 0.33526 0.75112 0.0
N1492 N 0.19502 0.33986 0.70229 0.0
N1493 N 0.31255 0.33814 0.82183 0.0
H1494 H 0.34414 0.3286 0.71005 0.0
H1495 H 0.35792 0.32421 0.76014 0.0
H1496 H 0.30591 0.33528 0.85223 0.0
H1497 H 0.34305 0.34305 0.81624 0.0
H1498 H 0.16457 0.34475 0.70805 0.0
H1499 H 0.20168 0.33812 0.6718 0.0
H1500 H 0.14948 0.32483 0.76371 0.0
H1501 H 0.16344 0.32815 0.81389 0.0
C1502 C 0.23082 0.68373 0.29109 0.0
C1503 C 0.27264 0.68294 0.30123 0.0
C1504 C 0.29096 0.68703 0.22959 0.0
C1505 C 0.24922 0.68516 0.21936 0.0
N1506 N 0.17961 0.69076 0.23933 0.0
N1507 N 0.34188 0.69262 0.28188 0.0
C1508 C 0.21922 0.68635 0.24993 0.0
C1509 C 0.30251 0.68735 0.27089 0.0
N1510 N 0.20218 0.68046 0.32064 0.0
N1511 N 0.31966 0.68703 0.19986 0.0
H1512 H 0.35093 0.69339 0.31189 0.0
H1513 H 0.365 0.69916 0.26188 0.0
H1514 H 0.31268 0.69036 0.16966 0.0
H1515 H 0.35036 0.68302 0.20481 0.0
H1516 H 0.17172 0.67551 0.31523 0.0
H1517 H 0.20897 0.68191 0.35107 0.0
H1518 H 0.15622 0.69505 0.25979 0.0
H1519 H 0.17053 0.69318 0.20944 0.0
loop_
_geom_bond_atom_site_label_1
_geom_bond_atom_site_label_2
_geom_bond_distance
_geom_bond_site_symmetry_2
_ccdc_geom_bond_type
Co0 O2 2.143 . S
Co0 O8 2.074 . S
Co0 O11 2.093 . S
Co0 O24 2.097 . S
Co0 N41 2.151 . S
Co0 N49 2.214 1_554 S
Co1 O2 2.160 . S
Co1 O7 2.058 . S
Co1 O17 2.057 . S
Co1 O32 2.037 . S
Co1 N36 2.145 . S
Co1 N57 2.257 . S
O2 Co0 2.143 . S
O2 Co1 2.160 . S
C3 O4 1.278 . S
C3 O11 1.224 . S
O4 C3 1.278 . S
C5 O6 1.245 . S
C5 O17 1.232 . S
O6 C5 1.245 . S
O7 Co1 2.058 . S
O7 C33 1.269 . S
O8 Co0 2.074 . S
O8 C33 1.257 . S
H9 C34 0.930 . S
H10 C40 0.930 . S
O11 Co0 2.093 . S
O11 C3 1.224 . S
H12 C44 0.929 . S
H13 C46 0.930 . S
H14 C47 0.930 . S
H15 C45 0.929 . S
H16 C48 0.928 . S
O17 Co1 2.057 . S
O17 C5 1.232 . S
H18 C37 0.929 . S
H19 C38 0.929 . S
H20 C50 0.931 . S
H21 C42 0.929 . S
H22 C51 0.930 . S
H23 C43 0.931 . S
O24 Co0 2.097 . S
O24 C52 1.214 . S
H25 C53 0.929 . S
H26 C54 0.929 . S
H27 C55 0.930 . S
H28 C56 0.929 . S
H29 C58 0.930 . S
H30 C35 0.930 . S
H31 C39 0.930 . S
O32 Co1 2.037 . S
O32 C52 1.234 . S
C33 O7 1.269 . S
C33 O8 1.257 . S
C34 H9 0.930 . S
C34 C37 1.388 . S
C34 C39 1.418 . S
C35 H30 0.930 . S
C35 C38 1.404 . S
C35 C39 1.353 . S
N36 Co1 2.145 . S
N36 C37 1.397 . S
N36 C38 1.334 . S
C37 H18 0.929 . S
C37 C34 1.388 . S
C37 N36 1.397 . S
C38 H19 0.929 . S
C38 C35 1.404 . S
C38 N36 1.334 . S
C39 H31 0.930 . S
C39 C34 1.418 . S
C39 C35 1.353 . S
C40 H10 0.930 . S
C40 N41 1.330 . S
C40 C42 1.446 . S
N41 Co0 2.151 . S
N41 C40 1.330 . S
N41 C45 1.418 1_554 S
C42 H21 0.929 . S
C42 C40 1.446 . S
C42 C43 1.332 1_554 S
C43 H23 0.931 . S
C43 C42 1.332 1_556 S
C43 C44 1.267 . S
C44 H12 0.929 . S
C44 C43 1.267 . S
C44 C45 1.251 . S
C45 H15 0.929 . S
C45 N41 1.418 1_556 S
C45 C44 1.251 . S
C46 H13 0.930 . S
C46 C48 1.406 . S
C46 C51 1.261 . S
C47 H14 0.930 . S
C47 N49 1.325 . S
C47 C50 1.357 . S
C48 H16 0.928 . S
C48 C46 1.406 . S
C48 N49 1.261 . S
N49 Co0 2.214 1_556 S
N49 C47 1.325 . S
N49 C48 1.261 . S
C50 H20 0.931 . S
C50 C47 1.357 . S
C50 C51 1.312 . S
C51 H22 0.930 . S
C51 C46 1.261 . S
C51 C50 1.312 . S
C52 O24 1.214 . S
C52 O32 1.234 . S
C53 H25 0.929 . S
C53 C56 1.391 . S
C53 C58 1.391 . S
C54 H26 0.929 . S
C54 C55 1.390 . S
C54 N57 1.391 . S
C55 H27 0.930 . S
C55 C54 1.390 . S
C55 C56 1.392 . S
C56 H28 0.929 . S
C56 C53 1.391 . S
C56 C55 1.392 . S
N57 Co1 2.257 . S
N57 C54 1.391 . S
N57 C58 1.388 . S
C58 H29 0.930 . S
C58 C53 1.391 . S
C58 N57 1.388 . S
Co59 O61 2.143 . S
Co59 O67 2.074 . S
Co59 O70 2.093 . S
Co59 O83 2.097 . S
Co59 N100 2.151 . S
Co59 N108 2.214 . S
Co60 O61 2.160 . S
Co60 O66 2.058 . S
Co60 O76 2.057 . S
Co60 O91 2.037 . S
Co60 N95 2.145 . S
Co60 N116 2.257 . S
O61 Co59 2.143 . S
O61 Co60 2.160 . S
C62 O63 1.278 . S
C62 O70 1.224 . S
O63 C62 1.278 . S
C64 O65 1.245 . S
C64 O76 1.232 . S
O65 C64 1.245 . S
O66 Co60 2.058 . S
O66 C92 1.269 . S
O67 Co59 2.074 . S
O67 C92 1.257 . S
H68 C93 0.930 . S
H69 C99 0.930 . S
O70 Co59 2.093 . S
O70 C62 1.224 . S
H71 C103 0.929 . S
H72 C105 0.930 . S
H73 C106 0.930 . S
H74 C104 0.929 . S
H75 C107 0.928 . S
O76 Co60 2.057 . S
O76 C64 1.232 . S
H77 C96 0.929 . S
H78 C97 0.929 . S
H79 C109 0.931 . S
H80 C101 0.929 . S
H81 C110 0.930 . S
H82 C102 0.931 . S
O83 Co59 2.097 . S
O83 C111 1.214 . S
H84 C112 0.929 . S
H85 C113 0.929 . S
H86 C114 0.930 . S
H87 C115 0.929 . S
H88 C117 0.930 . S
H89 C94 0.930 . S
H90 C98 0.930 . S
O91 Co60 2.037 . S
O91 C111 1.234 . S
C92 O66 1.269 . S
C92 O67 1.257 . S
C93 H68 0.930 . S
C93 C96 1.388 . S
C93 C98 1.418 . S
C94 H89 0.930 . S
C94 C97 1.404 . S
C94 C98 1.353 . S
N95 Co60 2.145 . S
N95 C96 1.397 . S
N95 C97 1.334 . S
C96 H77 0.929 . S
C96 C93 1.388 . S
C96 N95 1.397 . S
C97 H78 0.929 . S
C97 C94 1.404 . S
C97 N95 1.334 . S
C98 H90 0.930 . S
C98 C93 1.418 . S
C98 C94 1.353 . S
C99 H69 0.930 . S
C99 N100 1.330 . S
C99 C101 1.446 . S
N100 Co59 2.151 . S
N100 C99 1.330 . S
N100 C104 1.418 . S
C101 H80 0.929 . S
C101 C99 1.446 . S
C101 C102 1.332 . S
C102 H82 0.931 . S
C102 C101 1.332 . S
C102 C103 1.267 . S
C103 H71 0.929 . S
C103 C102 1.267 . S
C103 C104 1.251 . S
C104 H74 0.929 . S
C104 N100 1.418 . S
C104 C103 1.251 . S
C105 H72 0.930 . S
C105 C107 1.406 . S
C105 C110 1.261 . S
C106 H73 0.930 . S
C106 N108 1.325 . S
C106 C109 1.357 . S
C107 H75 0.928 . S
C107 C105 1.406 . S
C107 N108 1.261 . S
N108 Co59 2.214 . S
N108 C106 1.325 . S
N108 C107 1.261 . S
C109 H79 0.931 . S
C109 C106 1.357 . S
C109 C110 1.312 . S
C110 H81 0.930 . S
C110 C105 1.261 . S
C110 C109 1.312 . S
C111 O83 1.214 . S
C111 O91 1.234 . S
C112 H84 0.929 . S
C112 C115 1.391 . S
C112 C117 1.391 . S
C113 H85 0.929 . S
C113 C114 1.390 . S
C113 N116 1.391 . S
C114 H86 0.930 . S
C114 C113 1.390 . S
C114 C115 1.392 . S
C115 H87 0.929 . S
C115 C112 1.391 . S
C115 C114 1.392 . S
N116 Co60 2.257 . S
N116 C113 1.391 . S
N116 C117 1.388 . S
C117 H88 0.930 . S
C117 C112 1.391 . S
C117 N116 1.388 . S
Co118 O120 2.143 . S
Co118 O126 2.074 . S
Co118 O129 2.093 . S
Co118 O142 2.097 . S
Co118 N159 2.151 . S
Co118 N167 2.214 1_556 S
Co119 O120 2.160 . S
Co119 O125 2.058 . S
Co119 O135 2.057 . S
Co119 O150 2.037 . S
Co119 N154 2.145 . S
Co119 N175 2.257 . S
O120 Co118 2.143 . S
O120 Co119 2.160 . S
C121 O122 1.278 . S
C121 O129 1.224 . S
O122 C121 1.278 . S
C123 O124 1.245 . S
C123 O135 1.232 . S
O124 C123 1.245 . S
O125 Co119 2.058 . S
O125 C151 1.269 . S
O126 Co118 2.074 . S
O126 C151 1.257 . S
H127 C152 0.930 . S
H128 C158 0.930 . S
O129 Co118 2.093 . S
O129 C121 1.224 . S
H130 C162 0.929 . S
H131 C164 0.930 . S
H132 C165 0.930 . S
H133 C163 0.929 . S
H134 C166 0.928 . S
O135 Co119 2.057 . S
O135 C123 1.232 . S
H136 C155 0.929 . S
H137 C156 0.929 . S
H138 C168 0.931 . S
H139 C160 0.929 . S
H140 C169 0.930 . S
H141 C161 0.931 . S
O142 Co118 2.097 . S
O142 C170 1.214 . S
H143 C171 0.929 . S
H144 C172 0.929 . S
H145 C173 0.930 . S
H146 C174 0.929 . S
H147 C176 0.930 . S
H148 C153 0.930 . S
H149 C157 0.930 . S
O150 Co119 2.037 . S
O150 C170 1.234 . S
C151 O125 1.269 . S
C151 O126 1.257 . S
C152 H127 0.930 . S
C152 C155 1.388 . S
C152 C157 1.418 . S
C153 H148 0.930 . S
C153 C156 1.404 . S
C153 C157 1.353 . S
N154 Co119 2.145 . S
N154 C155 1.397 . S
N154 C156 1.334 . S
C155 H136 0.929 . S
C155 C152 1.388 . S
C155 N154 1.397 . S
C156 H137 0.929 . S
C156 C153 1.404 . S
C156 N154 1.334 . S
C157 H149 0.930 . S
C157 C152 1.418 . S
C157 C153 1.353 . S
C158 H128 0.930 . S
C158 N159 1.330 . S
C158 C160 1.446 . S
N159 Co118 2.151 . S
N159 C158 1.330 . S
N159 C163 1.418 1_556 S
C160 H139 0.929 . S
C160 C158 1.446 . S
C160 C161 1.332 1_556 S
C161 H141 0.931 . S
C161 C160 1.332 1_554 S
C161 C162 1.267 . S
C162 H130 0.929 . S
C162 C161 1.267 . S
C162 C163 1.251 . S
C163 H133 0.929 . S
C163 N159 1.418 1_554 S
C163 C162 1.251 . S
C164 H131 0.930 . S
C164 C166 1.406 . S
C164 C169 1.261 . S
C165 H132 0.930 . S
C165 N167 1.325 . S
C165 C168 1.357 . S
C166 H134 0.928 . S
C166 C164 1.406 . S
C166 N167 1.261 . S
N167 Co118 2.214 1_554 S
N167 C165 1.325 . S
N167 C166 1.261 . S
C168 H138 0.931 . S
C168 C165 1.357 . S
C168 C169 1.312 . S
C169 H140 0.930 . S
C169 C164 1.261 . S
C169 C168 1.312 . S
C170 O142 1.214 . S
C170 O150 1.234 . S
C171 H143 0.929 . S
C171 C174 1.391 . S
C171 C176 1.391 . S
C172 H144 0.929 . S
C172 C173 1.390 . S
C172 N175 1.391 . S
C173 H145 0.930 . S
C173 C172 1.390 . S
C173 C174 1.392 . S
C174 H146 0.929 . S
C174 C171 1.391 . S
C174 C173 1.392 . S
N175 Co119 2.257 . S
N175 C172 1.391 . S
N175 C176 1.388 . S
C176 H147 0.930 . S
C176 C171 1.391 . S
C176 N175 1.388 . S
Co177 O179 2.143 . S
Co177 O185 2.074 . S
Co177 O188 2.093 . S
Co177 O201 2.097 . S
Co177 N218 2.151 . S
Co177 N226 2.214 . S
Co178 O179 2.160 . S
Co178 O184 2.058 . S
Co178 O194 2.057 . S
Co178 O209 2.037 . S
Co178 N213 2.145 . S
Co178 N234 2.257 . S
O179 Co177 2.143 . S
O179 Co178 2.160 . S
C180 O181 1.278 . S
C180 O188 1.224 . S
O181 C180 1.278 . S
C182 O183 1.245 . S
C182 O194 1.232 . S
O183 C182 1.245 . S
O184 Co178 2.058 . S
O184 C210 1.269 . S
O185 Co177 2.074 . S
O185 C210 1.257 . S
H186 C211 0.930 . S
H187 C217 0.930 . S
O188 Co177 2.093 . S
O188 C180 1.224 . S
H189 C221 0.929 . S
H190 C223 0.930 . S
H191 C224 0.930 . S
H192 C222 0.929 . S
H193 C225 0.928 . S
O194 Co178 2.057 . S
O194 C182 1.232 . S
H195 C214 0.929 . S
H196 C215 0.929 . S
H197 C227 0.931 . S
H198 C219 0.929 . S
H199 C228 0.930 . S
H200 C220 0.931 . S
O201 Co177 2.097 . S
O201 C229 1.214 . S
H202 C230 0.929 . S
H203 C231 0.929 . S
H204 C232 0.930 . S
H205 C233 0.929 . S
H206 C235 0.930 . S
H207 C212 0.930 . S
H208 C216 0.930 . S
O209 Co178 2.037 . S
O209 C229 1.234 . S
C210 O184 1.269 . S
C210 O185 1.257 . S
C211 H186 0.930 . S
C211 C214 1.388 . S
C211 C216 1.418 . S
C212 H207 0.930 . S
C212 C215 1.404 . S
C212 C216 1.353 . S
N213 Co178 2.145 . S
N213 C214 1.397 . S
N213 C215 1.334 . S
C214 H195 0.929 . S
C214 C211 1.388 . S
C214 N213 1.397 . S
C215 H196 0.929 . S
C215 C212 1.404 . S
C215 N213 1.334 . S
C216 H208 0.930 . S
C216 C211 1.418 . S
C216 C212 1.353 . S
C217 H187 0.930 . S
C217 N218 1.330 . S
C217 C219 1.446 . S
N218 Co177 2.151 . S
N218 C217 1.330 . S
N218 C222 1.418 . S
C219 H198 0.929 . S
C219 C217 1.446 . S
C219 C220 1.332 . S
C220 H200 0.931 . S
C220 C219 1.332 . S
C220 C221 1.267 . S
C221 H189 0.929 . S
C221 C220 1.267 . S
C221 C222 1.251 . S
C222 H192 0.929 . S
C222 N218 1.418 . S
C222 C221 1.251 . S
C223 H190 0.930 . S
C223 C225 1.406 . S
C223 C228 1.261 . S
C224 H191 0.930 . S
C224 N226 1.325 . S
C224 C227 1.357 . S
C225 H193 0.928 . S
C225 C223 1.406 . S
C225 N226 1.261 . S
N226 Co177 2.214 . S
N226 C224 1.325 . S
N226 C225 1.261 . S
C227 H197 0.931 . S
C227 C224 1.357 . S
C227 C228 1.312 . S
C228 H199 0.930 . S
C228 C223 1.261 . S
C228 C227 1.312 . S
C229 O201 1.214 . S
C229 O209 1.234 . S
C230 H202 0.929 . S
C230 C233 1.391 . S
C230 C235 1.391 . S
C231 H203 0.929 . S
C231 C232 1.390 . S
C231 N234 1.391 . S
C232 H204 0.930 . S
C232 C231 1.390 . S
C232 C233 1.392 . S
C233 H205 0.929 . S
C233 C230 1.391 . S
C233 C232 1.392 . S
N234 Co178 2.257 . S
N234 C231 1.391 . S
N234 C235 1.388 . S
C235 H206 0.930 . S
C235 C230 1.391 . S
C235 N234 1.388 . S
Co236 O238 2.143 . S
Co236 O244 2.074 . S
Co236 O247 2.093 . S
Co236 O260 2.097 . S
Co236 N277 2.151 . S
Co236 N285 2.214 . S
Co237 O238 2.160 . S
Co237 O243 2.058 . S
Co237 O253 2.057 . S
Co237 O268 2.037 . S
Co237 N272 2.145 1_556 S
Co237 N293 2.257 . S
O238 Co236 2.143 . S
O238 Co237 2.160 . S
C239 O240 1.278 . S
C239 O247 1.224 . S
O240 C239 1.278 . S
C241 O242 1.245 . S
C241 O253 1.232 . S
O242 C241 1.245 . S
O243 Co237 2.058 . S
O243 C269 1.269 . S
O244 Co236 2.074 . S
O244 C269 1.257 . S
H245 C270 0.930 . S
H246 C276 0.930 . S
O247 Co236 2.093 . S
O247 C239 1.224 . S
H248 C280 0.929 . S
H249 C282 0.930 . S
H250 C283 0.930 . S
H251 C281 0.929 . S
H252 C284 0.928 . S
O253 Co237 2.057 . S
O253 C241 1.232 . S
H254 C273 0.929 . S
H255 C274 0.929 . S
H256 C286 0.931 . S
H257 C278 0.929 . S
H258 C287 0.930 . S
H259 C279 0.931 . S
O260 Co236 2.097 . S
O260 C288 1.214 . S
H261 C289 0.929 . S
H262 C290 0.929 . S
H263 C291 0.930 . S
H264 C292 0.929 . S
H265 C294 0.930 . S
H266 C271 0.930 . S
H267 C275 0.930 . S
O268 Co237 2.037 . S
O268 C288 1.234 . S
C269 O243 1.269 . S
C269 O244 1.257 . S
C270 H245 0.930 . S
C270 C273 1.388 . S
C270 C275 1.418 . S
C271 H266 0.930 . S
C271 C274 1.404 . S
C271 C275 1.353 . S
N272 Co237 2.145 1_554 S
N272 C273 1.397 . S
N272 C274 1.334 . S
C273 H254 0.929 . S
C273 C270 1.388 . S
C273 N272 1.397 . S
C274 H255 0.929 . S
C274 C271 1.404 . S
C274 N272 1.334 . S
C275 H267 0.930 . S
C275 C270 1.418 . S
C275 C271 1.353 . S
C276 H246 0.930 . S
C276 N277 1.330 . S
C276 C278 1.446 . S
N277 Co236 2.151 . S
N277 C276 1.330 . S
N277 C281 1.418 . S
C278 H257 0.929 . S
C278 C276 1.446 . S
C278 C279 1.332 . S
C279 H259 0.931 . S
C279 C278 1.332 . S
C279 C280 1.267 . S
C280 H248 0.929 . S
C280 C279 1.267 . S
C280 C281 1.251 . S
C281 H251 0.929 . S
C281 N277 1.418 . S
C281 C280 1.251 . S
C282 H249 0.930 . S
C282 C284 1.406 1_545 S
C282 C287 1.261 . S
C283 H250 0.930 . S
C283 N285 1.325 . S
C283 C286 1.357 1_565 S
C284 H252 0.928 . S
C284 C282 1.406 1_565 S
C284 N285 1.261 . S
N285 Co236 2.214 . S
N285 C283 1.325 . S
N285 C284 1.261 . S
C286 H256 0.931 . S
C286 C283 1.357 1_545 S
C286 C287 1.312 . S
C287 H258 0.930 . S
C287 C282 1.261 . S
C287 C286 1.312 . S
C288 O260 1.214 . S
C288 O268 1.234 . S
C289 H261 0.929 . S
C289 C292 1.391 . S
C289 C294 1.391 . S
C290 H262 0.929 . S
C290 C291 1.390 . S
C290 N293 1.391 . S
C291 H263 0.930 . S
C291 C290 1.390 . S
C291 C292 1.392 . S
C292 H264 0.929 . S
C292 C289 1.391 . S
C292 C291 1.392 . S
N293 Co237 2.257 . S
N293 C290 1.391 . S
N293 C294 1.388 . S
C294 H265 0.930 . S
C294 C289 1.391 . S
C294 N293 1.388 . S
Co295 O297 2.143 . S
Co295 O303 2.074 . S
Co295 O306 2.093 . S
Co295 O319 2.097 . S
Co295 N336 2.151 . S
Co295 N344 2.214 . S
Co296 O297 2.160 . S
Co296 O302 2.058 . S
Co296 O312 2.057 . S
Co296 O327 2.037 . S
Co296 N331 2.145 . S
Co296 N352 2.257 . S
O297 Co295 2.143 . S
O297 Co296 2.160 . S
C298 O299 1.278 . S
C298 O306 1.224 . S
O299 C298 1.278 . S
C300 O301 1.245 . S
C300 O312 1.232 . S
O301 C300 1.245 . S
O302 Co296 2.058 . S
O302 C328 1.269 . S
O303 Co295 2.074 . S
O303 C328 1.257 . S
H304 C329 0.930 . S
H305 C335 0.930 . S
O306 Co295 2.093 . S
O306 C298 1.224 . S
H307 C339 0.929 . S
H308 C341 0.930 . S
H309 C342 0.930 . S
H310 C340 0.929 . S
H311 C343 0.928 . S
O312 Co296 2.057 . S
O312 C300 1.232 . S
H313 C332 0.929 . S
H314 C333 0.929 . S
H315 C345 0.931 . S
H316 C337 0.929 . S
H317 C346 0.930 . S
H318 C338 0.931 . S
O319 Co295 2.097 . S
O319 C347 1.214 . S
H320 C348 0.929 . S
H321 C349 0.929 . S
H322 C350 0.930 . S
H323 C351 0.929 . S
H324 C353 0.930 . S
H325 C330 0.930 . S
H326 C334 0.930 . S
O327 Co296 2.037 . S
O327 C347 1.234 . S
C328 O302 1.269 . S
C328 O303 1.257 . S
C329 H304 0.930 . S
C329 C332 1.388 . S
C329 C334 1.418 . S
C330 H325 0.930 . S
C330 C333 1.404 . S
C330 C334 1.353 . S
N331 Co296 2.145 . S
N331 C332 1.397 . S
N331 C333 1.334 . S
C332 H313 0.929 . S
C332 C329 1.388 . S
C332 N331 1.397 . S
C333 H314 0.929 . S
C333 C330 1.404 . S
C333 N331 1.334 . S
C334 H326 0.930 . S
C334 C329 1.418 . S
C334 C330 1.353 . S
C335 H305 0.930 . S
C335 N336 1.330 . S
C335 C337 1.446 . S
N336 Co295 2.151 . S
N336 C335 1.330 . S
N336 C340 1.418 . S
C337 H316 0.929 . S
C337 C335 1.446 . S
C337 C338 1.332 . S
C338 H318 0.931 . S
C338 C337 1.332 . S
C338 C339 1.267 . S
C339 H307 0.929 . S
C339 C338 1.267 . S
C339 C340 1.251 . S
C340 H310 0.929 . S
C340 N336 1.418 . S
C340 C339 1.251 . S
C341 H308 0.930 . S
C341 C343 1.406 1_565 S
C341 C346 1.261 . S
C342 H309 0.930 . S
C342 N344 1.325 . S
C342 C345 1.357 1_545 S
C343 H311 0.928 . S
C343 C341 1.406 1_545 S
C343 N344 1.261 . S
N344 Co295 2.214 . S
N344 C342 1.325 . S
N344 C343 1.261 . S
C345 H315 0.931 . S
C345 C342 1.357 1_565 S
C345 C346 1.312 . S
C346 H317 0.930 . S
C346 C341 1.261 . S
C346 C345 1.312 . S
C347 O319 1.214 . S
C347 O327 1.234 . S
C348 H320 0.929 . S
C348 C351 1.391 . S
C348 C353 1.391 . S
C349 H321 0.929 . S
C349 C350 1.390 . S
C349 N352 1.391 . S
C350 H322 0.930 . S
C350 C349 1.390 . S
C350 C351 1.392 . S
C351 H323 0.929 . S
C351 C348 1.391 . S
C351 C350 1.392 . S
N352 Co296 2.257 . S
N352 C349 1.391 . S
N352 C353 1.388 . S
C353 H324 0.930 . S
C353 C348 1.391 . S
C353 N352 1.388 . S
Co354 O356 2.143 . S
Co354 O362 2.074 . S
Co354 O365 2.093 . S
Co354 O378 2.097 . S
Co354 N395 2.151 . S
Co354 N403 2.214 . S
Co355 O356 2.160 . S
Co355 O361 2.058 . S
Co355 O371 2.057 . S
Co355 O386 2.037 . S
Co355 N390 2.145 1_554 S
Co355 N411 2.257 . S
O356 Co354 2.143 . S
O356 Co355 2.160 . S
C357 O358 1.278 . S
C357 O365 1.224 . S
O358 C357 1.278 . S
C359 O360 1.245 . S
C359 O371 1.232 . S
O360 C359 1.245 . S
O361 Co355 2.058 . S
O361 C387 1.269 . S
O362 Co354 2.074 . S
O362 C387 1.257 . S
H363 C388 0.930 . S
H364 C394 0.930 . S
O365 Co354 2.093 . S
O365 C357 1.224 . S
H366 C398 0.929 . S
H367 C400 0.930 . S
H368 C401 0.930 . S
H369 C399 0.929 . S
H370 C402 0.928 . S
O371 Co355 2.057 . S
O371 C359 1.232 . S
H372 C391 0.929 . S
H373 C392 0.929 . S
H374 C404 0.931 . S
H375 C396 0.929 . S
H376 C405 0.930 . S
H377 C397 0.931 . S
O378 Co354 2.097 . S
O378 C406 1.214 . S
H379 C407 0.929 . S
H380 C408 0.929 . S
H381 C409 0.930 . S
H382 C410 0.929 . S
H383 C412 0.930 . S
H384 C389 0.930 . S
H385 C393 0.930 . S
O386 Co355 2.037 . S
O386 C406 1.234 . S
C387 O361 1.269 . S
C387 O362 1.257 . S
C388 H363 0.930 . S
C388 C391 1.388 . S
C388 C393 1.418 . S
C389 H384 0.930 . S
C389 C392 1.404 . S
C389 C393 1.353 . S
N390 Co355 2.145 1_556 S
N390 C391 1.397 . S
N390 C392 1.334 . S
C391 H372 0.929 . S
C391 C388 1.388 . S
C391 N390 1.397 . S
C392 H373 0.929 . S
C392 C389 1.404 . S
C392 N390 1.334 . S
C393 H385 0.930 . S
C393 C388 1.418 . S
C393 C389 1.353 . S
C394 H364 0.930 . S
C394 N395 1.330 . S
C394 C396 1.446 . S
N395 Co354 2.151 . S
N395 C394 1.330 . S
N395 C399 1.418 . S
C396 H375 0.929 . S
C396 C394 1.446 . S
C396 C397 1.332 . S
C397 H377 0.931 . S
C397 C396 1.332 . S
C397 C398 1.267 . S
C398 H366 0.929 . S
C398 C397 1.267 . S
C398 C399 1.251 . S
C399 H369 0.929 . S
C399 N395 1.418 . S
C399 C398 1.251 . S
C400 H367 0.930 . S
C400 C402 1.406 1_565 S
C400 C405 1.261 . S
C401 H368 0.930 . S
C401 N403 1.325 . S
C401 C404 1.357 1_545 S
C402 H370 0.928 . S
C402 C400 1.406 1_545 S
C402 N403 1.261 . S
N403 Co354 2.214 . S
N403 C401 1.325 . S
N403 C402 1.261 . S
C404 H374 0.931 . S
C404 C401 1.357 1_565 S
C404 C405 1.312 . S
C405 H376 0.930 . S
C405 C400 1.261 . S
C405 C404 1.312 . S
C406 O378 1.214 . S
C406 O386 1.234 . S
C407 H379 0.929 . S
C407 C410 1.391 . S
C407 C412 1.391 . S
C408 H380 0.929 . S
C408 C409 1.390 . S
C408 N411 1.391 . S
C409 H381 0.930 . S
C409 C408 1.390 . S
C409 C410 1.392 . S
C410 H382 0.929 . S
C410 C407 1.391 . S
C410 C409 1.392 . S
N411 Co355 2.257 . S
N411 C408 1.391 . S
N411 C412 1.388 . S
C412 H383 0.930 . S
C412 C407 1.391 . S
C412 N411 1.388 . S
Co413 O415 2.143 . S
Co413 O421 2.074 . S
Co413 O424 2.093 . S
Co413 O437 2.097 . S
Co413 N454 2.151 . S
Co413 N462 2.214 . S
Co414 O415 2.160 . S
Co414 O420 2.058 . S
Co414 O430 2.057 . S
Co414 O445 2.037 . S
Co414 N449 2.145 . S
Co414 N470 2.257 . S
O415 Co413 2.143 . S
O415 Co414 2.160 . S
C416 O417 1.278 . S
C416 O424 1.224 . S
O417 C416 1.278 . S
C418 O419 1.245 . S
C418 O430 1.232 . S
O419 C418 1.245 . S
O420 Co414 2.058 . S
O420 C446 1.269 . S
O421 Co413 2.074 . S
O421 C446 1.257 . S
H422 C447 0.930 . S
H423 C453 0.930 . S
O424 Co413 2.093 . S
O424 C416 1.224 . S
H425 C457 0.929 . S
H426 C459 0.930 . S
H427 C460 0.930 . S
H428 C458 0.929 . S
H429 C461 0.928 . S
O430 Co414 2.057 . S
O430 C418 1.232 . S
H431 C450 0.929 . S
H432 C451 0.929 . S
H433 C463 0.931 . S
H434 C455 0.929 . S
H435 C464 0.930 . S
H436 C456 0.931 . S
O437 Co413 2.097 . S
O437 C465 1.214 . S
H438 C466 0.929 . S
H439 C467 0.929 . S
H440 C468 0.930 . S
H441 C469 0.929 . S
H442 C471 0.930 . S
H443 C448 0.930 . S
H444 C452 0.930 . S
O445 Co414 2.037 . S
O445 C465 1.234 . S
C446 O420 1.269 . S
C446 O421 1.257 . S
C447 H422 0.930 . S
C447 C450 1.388 . S
C447 C452 1.418 . S
C448 H443 0.930 . S
C448 C451 1.404 . S
C448 C452 1.353 . S
N449 Co414 2.145 . S
N449 C450 1.397 . S
N449 C451 1.334 . S
C450 H431 0.929 . S
C450 C447 1.388 . S
C450 N449 1.397 . S
C451 H432 0.929 . S
C451 C448 1.404 . S
C451 N449 1.334 . S
C452 H444 0.930 . S
C452 C447 1.418 . S
C452 C448 1.353 . S
C453 H423 0.930 . S
C453 N454 1.330 . S
C453 C455 1.446 . S
N454 Co413 2.151 . S
N454 C453 1.330 . S
N454 C458 1.418 . S
C455 H434 0.929 . S
C455 C453 1.446 . S
C455 C456 1.332 . S
C456 H436 0.931 . S
C456 C455 1.332 . S
C456 C457 1.267 . S
C457 H425 0.929 . S
C457 C456 1.267 . S
C457 C458 1.251 . S
C458 H428 0.929 . S
C458 N454 1.418 . S
C458 C457 1.251 . S
C459 H426 0.930 . S
C459 C461 1.406 1_545 S
C459 C464 1.261 . S
C460 H427 0.930 . S
C460 N462 1.325 . S
C460 C463 1.357 1_565 S
C461 H429 0.928 . S
C461 C459 1.406 1_565 S
C461 N462 1.261 . S
N462 Co413 2.214 . S
N462 C460 1.325 . S
N462 C461 1.261 . S
C463 H433 0.931 . S
C463 C460 1.357 1_545 S
C463 C464 1.312 . S
C464 H435 0.930 . S
C464 C459 1.261 . S
C464 C463 1.312 . S
C465 O437 1.214 . S
C465 O445 1.234 . S
C466 H438 0.929 . S
C466 C469 1.391 . S
C466 C471 1.391 . S
C467 H439 0.929 . S
C467 C468 1.390 . S
C467 N470 1.391 . S
C468 H440 0.930 . S
C468 C467 1.390 . S
C468 C469 1.392 . S
C469 H441 0.929 . S
C469 C466 1.391 . S
C469 C468 1.392 . S
N470 Co414 2.257 . S
N470 C467 1.391 . S
N470 C471 1.388 . S
C471 H442 0.930 . S
C471 C466 1.391 . S
C471 N470 1.388 . S
Co472 O474 2.143 . S
Co472 O480 2.074 . S
Co472 O483 2.093 . S
Co472 O496 2.097 . S
Co472 N513 2.151 . S
Co472 N521 2.214 1_554 S
Co473 O474 2.160 . S
Co473 O479 2.058 . S
Co473 O489 2.057 . S
Co473 O504 2.037 . S
Co473 N508 2.145 . S
Co473 N529 2.257 . S
O474 Co472 2.143 . S
O474 Co473 2.160 . S
C475 O476 1.278 . S
C475 O483 1.224 . S
O476 C475 1.278 . S
C477 O478 1.245 . S
C477 O489 1.232 . S
O478 C477 1.245 . S
O479 Co473 2.058 . S
O479 C505 1.269 . S
O480 Co472 2.074 . S
O480 C505 1.257 . S
H481 C506 0.930 . S
H482 C512 0.930 . S
O483 Co472 2.093 . S
O483 C475 1.224 . S
H484 C516 0.929 . S
H485 C518 0.930 . S
H486 C519 0.930 . S
H487 C517 0.929 . S
H488 C520 0.928 . S
O489 Co473 2.057 . S
O489 C477 1.232 . S
H490 C509 0.929 . S
H491 C510 0.929 . S
H492 C522 0.931 . S
H493 C514 0.929 . S
H494 C523 0.930 . S
H495 C515 0.931 . S
O496 Co472 2.097 . S
O496 C524 1.214 . S
H497 C525 0.929 . S
H498 C526 0.929 . S
H499 C527 0.930 . S
H500 C528 0.929 . S
H501 C530 0.930 . S
H502 C507 0.930 . S
H503 C511 0.930 . S
O504 Co473 2.037 . S
O504 C524 1.234 . S
C505 O479 1.269 . S
C505 O480 1.257 . S
C506 H481 0.930 . S
C506 C509 1.388 . S
C506 C511 1.418 . S
C507 H502 0.930 . S
C507 C510 1.404 . S
C507 C511 1.353 . S
N508 Co473 2.145 . S
N508 C509 1.397 . S
N508 C510 1.334 . S
C509 H490 0.929 . S
C509 C506 1.388 . S
C509 N508 1.397 . S
C510 H491 0.929 . S
C510 C507 1.404 . S
C510 N508 1.334 . S
C511 H503 0.930 . S
C511 C506 1.418 . S
C511 C507 1.353 . S
C512 H482 0.930 . S
C512 N513 1.330 . S
C512 C514 1.446 . S
N513 Co472 2.151 . S
N513 C512 1.330 . S
N513 C517 1.418 1_554 S
C514 H493 0.929 . S
C514 C512 1.446 . S
C514 C515 1.332 1_554 S
C515 H495 0.931 . S
C515 C514 1.332 1_556 S
C515 C516 1.267 . S
C516 H484 0.929 . S
C516 C515 1.267 . S
C516 C517 1.251 . S
C517 H487 0.929 . S
C517 N513 1.418 1_556 S
C517 C516 1.251 . S
C518 H485 0.930 . S
C518 C520 1.406 . S
C518 C523 1.261 . S
C519 H486 0.930 . S
C519 N521 1.325 . S
C519 C522 1.357 . S
C520 H488 0.928 . S
C520 C518 1.406 . S
C520 N521 1.261 . S
N521 Co472 2.214 1_556 S
N521 C519 1.325 . S
N521 C520 1.261 . S
C522 H492 0.931 . S
C522 C519 1.357 . S
C522 C523 1.312 . S
C523 H494 0.930 . S
C523 C518 1.261 . S
C523 C522 1.312 . S
C524 O496 1.214 . S
C524 O504 1.234 . S
C525 H497 0.929 . S
C525 C528 1.391 . S
C525 C530 1.391 . S
C526 H498 0.929 . S
C526 C527 1.390 . S
C526 N529 1.391 . S
C527 H499 0.930 . S
C527 C526 1.390 . S
C527 C528 1.392 . S
C528 H500 0.929 . S
C528 C525 1.391 . S
C528 C527 1.392 . S
N529 Co473 2.257 . S
N529 C526 1.391 . S
N529 C530 1.388 . S
C530 H501 0.930 . S
C530 C525 1.391 . S
C530 N529 1.388 . S
Co531 O533 2.143 . S
Co531 O539 2.074 . S
Co531 O542 2.093 . S
Co531 O555 2.097 . S
Co531 N572 2.151 . S
Co531 N580 2.214 . S
Co532 O533 2.160 . S
Co532 O538 2.058 . S
Co532 O548 2.057 . S
Co532 O563 2.037 . S
Co532 N567 2.145 . S
Co532 N588 2.257 . S
O533 Co531 2.143 . S
O533 Co532 2.160 . S
C534 O535 1.278 . S
C534 O542 1.224 . S
O535 C534 1.278 . S
C536 O537 1.245 . S
C536 O548 1.232 . S
O537 C536 1.245 . S
O538 Co532 2.058 . S
O538 C564 1.269 . S
O539 Co531 2.074 . S
O539 C564 1.257 . S
H540 C565 0.930 . S
H541 C571 0.930 . S
O542 Co531 2.093 . S
O542 C534 1.224 . S
H543 C575 0.929 . S
H544 C577 0.930 . S
H545 C578 0.930 . S
H546 C576 0.929 . S
H547 C579 0.928 . S
O548 Co532 2.057 . S
O548 C536 1.232 . S
H549 C568 0.929 . S
H550 C569 0.929 . S
H551 C581 0.931 . S
H552 C573 0.929 . S
H553 C582 0.930 . S
H554 C574 0.931 . S
O555 Co531 2.097 . S
O555 C583 1.214 . S
H556 C584 0.929 . S
H557 C585 0.929 . S
H558 C586 0.930 . S
H559 C587 0.929 . S
H560 C589 0.930 . S
H561 C566 0.930 . S
H562 C570 0.930 . S
O563 Co532 2.037 . S
O563 C583 1.234 . S
C564 O538 1.269 . S
C564 O539 1.257 . S
C565 H540 0.930 . S
C565 C568 1.388 . S
C565 C570 1.418 . S
C566 H561 0.930 . S
C566 C569 1.404 . S
C566 C570 1.353 . S
N567 Co532 2.145 . S
N567 C568 1.397 . S
N567 C569 1.334 . S
C568 H549 0.929 . S
C568 C565 1.388 . S
C568 N567 1.397 . S
C569 H550 0.929 . S
C569 C566 1.404 . S
C569 N567 1.334 . S
C570 H562 0.930 . S
C570 C565 1.418 . S
C570 C566 1.353 . S
C571 H541 0.930 . S
C571 N572 1.330 . S
C571 C573 1.446 . S
N572 Co531 2.151 . S
N572 C571 1.330 . S
N572 C576 1.418 . S
C573 H552 0.929 . S
C573 C571 1.446 . S
C573 C574 1.332 . S
C574 H554 0.931 . S
C574 C573 1.332 . S
C574 C575 1.267 . S
C575 H543 0.929 . S
C575 C574 1.267 . S
C575 C576 1.251 . S
C576 H546 0.929 . S
C576 N572 1.418 . S
C576 C575 1.251 . S
C577 H544 0.930 . S
C577 C579 1.406 . S
C577 C582 1.261 . S
C578 H545 0.930 . S
C578 N580 1.325 . S
C578 C581 1.357 . S
C579 H547 0.928 . S
C579 C577 1.406 . S
C579 N580 1.261 . S
N580 Co531 2.214 . S
N580 C578 1.325 . S
N580 C579 1.261 . S
C581 H551 0.931 . S
C581 C578 1.357 . S
C581 C582 1.312 . S
C582 H553 0.930 . S
C582 C577 1.261 . S
C582 C581 1.312 . S
C583 O555 1.214 . S
C583 O563 1.234 . S
C584 H556 0.929 . S
C584 C587 1.391 . S
C584 C589 1.391 . S
C585 H557 0.929 . S
C585 C586 1.390 . S
C585 N588 1.391 . S
C586 H558 0.930 . S
C586 C585 1.390 . S
C586 C587 1.392 . S
C587 H559 0.929 . S
C587 C584 1.391 . S
C587 C586 1.392 . S
N588 Co532 2.257 . S
N588 C585 1.391 . S
N588 C589 1.388 . S
C589 H560 0.930 . S
C589 C584 1.391 . S
C589 N588 1.388 . S
Co590 O592 2.143 . S
Co590 O598 2.074 . S
Co590 O601 2.093 . S
Co590 O614 2.097 . S
Co590 N631 2.151 . S
Co590 N639 2.214 1_556 S
Co591 O592 2.160 . S
Co591 O597 2.058 . S
Co591 O607 2.057 . S
Co591 O622 2.037 . S
Co591 N626 2.145 . S
Co591 N647 2.257 . S
O592 Co590 2.143 . S
O592 Co591 2.160 . S
C593 O594 1.278 . S
C593 O601 1.224 . S
O594 C593 1.278 . S
C595 O596 1.245 . S
C595 O607 1.232 . S
O596 C595 1.245 . S
O597 Co591 2.058 . S
O597 C623 1.269 . S
O598 Co590 2.074 . S
O598 C623 1.257 . S
H599 C624 0.930 . S
H600 C630 0.930 . S
O601 Co590 2.093 . S
O601 C593 1.224 . S
H602 C634 0.929 . S
H603 C636 0.930 . S
H604 C637 0.930 . S
H605 C635 0.929 . S
H606 C638 0.928 . S
O607 Co591 2.057 . S
O607 C595 1.232 . S
H608 C627 0.929 . S
H609 C628 0.929 . S
H610 C640 0.931 . S
H611 C632 0.929 . S
H612 C641 0.930 . S
H613 C633 0.931 . S
O614 Co590 2.097 . S
O614 C642 1.214 . S
H615 C643 0.929 . S
H616 C644 0.929 . S
H617 C645 0.930 . S
H618 C646 0.929 . S
H619 C648 0.930 . S
H620 C625 0.930 . S
H621 C629 0.930 . S
O622 Co591 2.037 . S
O622 C642 1.234 . S
C623 O597 1.269 . S
C623 O598 1.257 . S
C624 H599 0.930 . S
C624 C627 1.388 . S
C624 C629 1.418 . S
C625 H620 0.930 . S
C625 C628 1.404 . S
C625 C629 1.353 . S
N626 Co591 2.145 . S
N626 C627 1.397 . S
N626 C628 1.334 . S
C627 H608 0.929 . S
C627 C624 1.388 . S
C627 N626 1.397 . S
C628 H609 0.929 . S
C628 C625 1.404 . S
C628 N626 1.334 . S
C629 H621 0.930 . S
C629 C624 1.418 . S
C629 C625 1.353 . S
C630 H600 0.930 . S
C630 N631 1.330 . S
C630 C632 1.446 . S
N631 Co590 2.151 . S
N631 C630 1.330 . S
N631 C635 1.418 1_556 S
C632 H611 0.929 . S
C632 C630 1.446 . S
C632 C633 1.332 1_556 S
C633 H613 0.931 . S
C633 C632 1.332 1_554 S
C633 C634 1.267 . S
C634 H602 0.929 . S
C634 C633 1.267 . S
C634 C635 1.251 . S
C635 H605 0.929 . S
C635 N631 1.418 1_554 S
C635 C634 1.251 . S
C636 H603 0.930 . S
C636 C638 1.406 . S
C636 C641 1.261 . S
C637 H604 0.930 . S
C637 N639 1.325 . S
C637 C640 1.357 . S
C638 H606 0.928 . S
C638 C636 1.406 . S
C638 N639 1.261 . S
N639 Co590 2.214 1_554 S
N639 C637 1.325 . S
N639 C638 1.261 . S
C640 H610 0.931 . S
C640 C637 1.357 . S
C640 C641 1.312 . S
C641 H612 0.930 . S
C641 C636 1.261 . S
C641 C640 1.312 . S
C642 O614 1.214 . S
C642 O622 1.234 . S
C643 H615 0.929 . S
C643 C646 1.391 . S
C643 C648 1.391 . S
C644 H616 0.929 . S
C644 C645 1.390 . S
C644 N647 1.391 . S
C645 H617 0.930 . S
C645 C644 1.390 . S
C645 C646 1.392 . S
C646 H618 0.929 . S
C646 C643 1.391 . S
C646 C645 1.392 . S
N647 Co591 2.257 . S
N647 C644 1.391 . S
N647 C648 1.388 . S
C648 H619 0.930 . S
C648 C643 1.391 . S
C648 N647 1.388 . S
Co649 O651 2.143 . S
Co649 O657 2.074 . S
Co649 O660 2.093 . S
Co649 O673 2.097 . S
Co649 N690 2.151 . S
Co649 N698 2.214 . S
Co650 O651 2.160 . S
Co650 O656 2.058 . S
Co650 O666 2.057 . S
Co650 O681 2.037 . S
Co650 N685 2.145 . S
Co650 N706 2.257 . S
O651 Co649 2.143 . S
O651 Co650 2.160 . S
C652 O653 1.278 . S
C652 O660 1.224 . S
O653 C652 1.278 . S
C654 O655 1.245 . S
C654 O666 1.232 . S
O655 C654 1.245 . S
O656 Co650 2.058 . S
O656 C682 1.269 . S
O657 Co649 2.074 . S
O657 C682 1.257 . S
H658 C683 0.930 . S
H659 C689 0.930 . S
O660 Co649 2.093 . S
O660 C652 1.224 . S
H661 C693 0.929 . S
H662 C695 0.930 . S
H663 C696 0.930 . S
H664 C694 0.929 . S
H665 C697 0.928 . S
O666 Co650 2.057 . S
O666 C654 1.232 . S
H667 C686 0.929 . S
H668 C687 0.929 . S
H669 C699 0.931 . S
H670 C691 0.929 . S
H671 C700 0.930 . S
H672 C692 0.931 . S
O673 Co649 2.097 . S
O673 C701 1.214 . S
H674 C702 0.929 . S
H675 C703 0.929 . S
H676 C704 0.930 . S
H677 C705 0.929 . S
H678 C707 0.930 . S
H679 C684 0.930 . S
H680 C688 0.930 . S
O681 Co650 2.037 . S
O681 C701 1.234 . S
C682 O656 1.269 . S
C682 O657 1.257 . S
C683 H658 0.930 . S
C683 C686 1.388 . S
C683 C688 1.418 . S
C684 H679 0.930 . S
C684 C687 1.404 . S
C684 C688 1.353 . S
N685 Co650 2.145 . S
N685 C686 1.397 . S
N685 C687 1.334 . S
C686 H667 0.929 . S
C686 C683 1.388 . S
C686 N685 1.397 . S
C687 H668 0.929 . S
C687 C684 1.404 . S
C687 N685 1.334 . S
C688 H680 0.930 . S
C688 C683 1.418 . S
C688 C684 1.353 . S
C689 H659 0.930 . S
C689 N690 1.330 . S
C689 C691 1.446 . S
N690 Co649 2.151 . S
N690 C689 1.330 . S
N690 C694 1.418 . S
C691 H670 0.929 . S
C691 C689 1.446 . S
C691 C692 1.332 . S
C692 H672 0.931 . S
C692 C691 1.332 . S
C692 C693 1.267 . S
C693 H661 0.929 . S
C693 C692 1.267 . S
C693 C694 1.251 . S
C694 H664 0.929 . S
C694 N690 1.418 . S
C694 C693 1.251 . S
C695 H662 0.930 . S
C695 C697 1.406 . S
C695 C700 1.261 . S
C696 H663 0.930 . S
C696 N698 1.325 . S
C696 C699 1.357 . S
C697 H665 0.928 . S
C697 C695 1.406 . S
C697 N698 1.261 . S
N698 Co649 2.214 . S
N698 C696 1.325 . S
N698 C697 1.261 . S
C699 H669 0.931 . S
C699 C696 1.357 . S
C699 C700 1.312 . S
C700 H671 0.930 . S
C700 C695 1.261 . S
C700 C699 1.312 . S
C701 O673 1.214 . S
C701 O681 1.234 . S
C702 H674 0.929 . S
C702 C705 1.391 . S
C702 C707 1.391 . S
C703 H675 0.929 . S
C703 C704 1.390 . S
C703 N706 1.391 . S
C704 H676 0.930 . S
C704 C703 1.390 . S
C704 C705 1.392 . S
C705 H677 0.929 . S
C705 C702 1.391 . S
C705 C704 1.392 . S
N706 Co650 2.257 . S
N706 C703 1.391 . S
N706 C707 1.388 . S
C707 H678 0.930 . S
C707 C702 1.391 . S
C707 N706 1.388 . S
Co708 O710 2.143 . S
Co708 O716 2.074 . S
Co708 O719 2.093 . S
Co708 O732 2.097 . S
Co708 N749 2.151 . S
Co708 N757 2.214 . S
Co709 O710 2.160 . S
Co709 O715 2.058 . S
Co709 O725 2.057 . S
Co709 O740 2.037 . S
Co709 N744 2.145 1_556 S
Co709 N765 2.257 . S
O710 Co708 2.143 . S
O710 Co709 2.160 . S
C711 O712 1.278 . S
C711 O719 1.224 . S
O712 C711 1.278 . S
C713 O714 1.245 . S
C713 O725 1.232 . S
O714 C713 1.245 . S
O715 Co709 2.058 . S
O715 C741 1.269 . S
O716 Co708 2.074 . S
O716 C741 1.257 . S
H717 C742 0.930 . S
H718 C748 0.930 . S
O719 Co708 2.093 . S
O719 C711 1.224 . S
H720 C752 0.929 . S
H721 C754 0.930 . S
H722 C755 0.930 . S
H723 C753 0.929 . S
H724 C756 0.928 . S
O725 Co709 2.057 . S
O725 C713 1.232 . S
H726 C745 0.929 . S
H727 C746 0.929 . S
H728 C758 0.931 . S
H729 C750 0.929 . S
H730 C759 0.930 . S
H731 C751 0.931 . S
O732 Co708 2.097 . S
O732 C760 1.214 . S
H733 C761 0.929 . S
H734 C762 0.929 . S
H735 C763 0.930 . S
H736 C764 0.929 . S
H737 C766 0.930 . S
H738 C743 0.930 . S
H739 C747 0.930 . S
O740 Co709 2.037 . S
O740 C760 1.234 . S
C741 O715 1.269 . S
C741 O716 1.257 . S
C742 H717 0.930 . S
C742 C745 1.388 . S
C742 C747 1.418 . S
C743 H738 0.930 . S
C743 C746 1.404 . S
C743 C747 1.353 . S
N744 Co709 2.145 1_554 S
N744 C745 1.397 . S
N744 C746 1.334 . S
C745 H726 0.929 . S
C745 C742 1.388 . S
C745 N744 1.397 . S
C746 H727 0.929 . S
C746 C743 1.404 . S
C746 N744 1.334 . S
C747 H739 0.930 . S
C747 C742 1.418 . S
C747 C743 1.353 . S
C748 H718 0.930 . S
C748 N749 1.330 . S
C748 C750 1.446 . S
N749 Co708 2.151 . S
N749 C748 1.330 . S
N749 C753 1.418 . S
C750 H729 0.929 . S
C750 C748 1.446 . S
C750 C751 1.332 . S
C751 H731 0.931 . S
C751 C750 1.332 . S
C751 C752 1.267 . S
C752 H720 0.929 . S
C752 C751 1.267 . S
C752 C753 1.251 . S
C753 H723 0.929 . S
C753 N749 1.418 . S
C753 C752 1.251 . S
C754 H721 0.930 . S
C754 C756 1.406 . S
C754 C759 1.261 . S
C755 H722 0.930 . S
C755 N757 1.325 . S
C755 C758 1.357 . S
C756 H724 0.928 . S
C756 C754 1.406 . S
C756 N757 1.261 . S
N757 Co708 2.214 . S
N757 C755 1.325 . S
N757 C756 1.261 . S
C758 H728 0.931 . S
C758 C755 1.357 . S
C758 C759 1.312 . S
C759 H730 0.930 . S
C759 C754 1.261 . S
C759 C758 1.312 . S
C760 O732 1.214 . S
C760 O740 1.234 . S
C761 H733 0.929 . S
C761 C764 1.391 . S
C761 C766 1.391 . S
C762 H734 0.929 . S
C762 C763 1.390 . S
C762 N765 1.391 . S
C763 H735 0.930 . S
C763 C762 1.390 . S
C763 C764 1.392 . S
C764 H736 0.929 . S
C764 C761 1.391 . S
C764 C763 1.392 . S
N765 Co709 2.257 . S
N765 C762 1.391 . S
N765 C766 1.388 . S
C766 H737 0.930 . S
C766 C761 1.391 . S
C766 N765 1.388 . S
Co767 O769 2.143 . S
Co767 O775 2.074 . S
Co767 O778 2.093 . S
Co767 O791 2.097 . S
Co767 N808 2.151 . S
Co767 N816 2.214 . S
Co768 O769 2.160 . S
Co768 O774 2.058 . S
Co768 O784 2.057 . S
Co768 O799 2.037 . S
Co768 N803 2.145 . S
Co768 N824 2.257 . S
O769 Co767 2.143 . S
O769 Co768 2.160 . S
C770 O771 1.278 . S
C770 O778 1.224 . S
O771 C770 1.278 . S
C772 O773 1.245 . S
C772 O784 1.232 . S
O773 C772 1.245 . S
O774 Co768 2.058 . S
O774 C800 1.269 . S
O775 Co767 2.074 . S
O775 C800 1.257 . S
H776 C801 0.930 . S
H777 C807 0.930 . S
O778 Co767 2.093 . S
O778 C770 1.224 . S
H779 C811 0.929 . S
H780 C813 0.930 . S
H781 C814 0.930 . S
H782 C812 0.929 . S
H783 C815 0.928 . S
O784 Co768 2.057 . S
O784 C772 1.232 . S
H785 C804 0.929 . S
H786 C805 0.929 . S
H787 C817 0.931 . S
H788 C809 0.929 . S
H789 C818 0.930 . S
H790 C810 0.931 . S
O791 Co767 2.097 . S
O791 C819 1.214 . S
H792 C820 0.929 . S
H793 C821 0.929 . S
H794 C822 0.930 . S
H795 C823 0.929 . S
H796 C825 0.930 . S
H797 C802 0.930 . S
H798 C806 0.930 . S
O799 Co768 2.037 . S
O799 C819 1.234 . S
C800 O774 1.269 . S
C800 O775 1.257 . S
C801 H776 0.930 . S
C801 C804 1.388 . S
C801 C806 1.418 . S
C802 H797 0.930 . S
C802 C805 1.404 . S
C802 C806 1.353 . S
N803 Co768 2.145 . S
N803 C804 1.397 . S
N803 C805 1.334 . S
C804 H785 0.929 . S
C804 C801 1.388 . S
C804 N803 1.397 . S
C805 H786 0.929 . S
C805 C802 1.404 . S
C805 N803 1.334 . S
C806 H798 0.930 . S
C806 C801 1.418 . S
C806 C802 1.353 . S
C807 H777 0.930 . S
C807 N808 1.330 . S
C807 C809 1.446 . S
N808 Co767 2.151 . S
N808 C807 1.330 . S
N808 C812 1.418 . S
C809 H788 0.929 . S
C809 C807 1.446 . S
C809 C810 1.332 . S
C810 H790 0.931 . S
C810 C809 1.332 . S
C810 C811 1.267 . S
C811 H779 0.929 . S
C811 C810 1.267 . S
C811 C812 1.251 . S
C812 H782 0.929 . S
C812 N808 1.418 . S
C812 C811 1.251 . S
C813 H780 0.930 . S
C813 C815 1.406 . S
C813 C818 1.261 . S
C814 H781 0.930 . S
C814 N816 1.325 . S
C814 C817 1.357 . S
C815 H783 0.928 . S
C815 C813 1.406 . S
C815 N816 1.261 . S
N816 Co767 2.214 . S
N816 C814 1.325 . S
N816 C815 1.261 . S
C817 H787 0.931 . S
C817 C814 1.357 . S
C817 C818 1.312 . S
C818 H789 0.930 . S
C818 C813 1.261 . S
C818 C817 1.312 . S
C819 O791 1.214 . S
C819 O799 1.234 . S
C820 H792 0.929 . S
C820 C823 1.391 . S
C820 C825 1.391 . S
C821 H793 0.929 . S
C821 C822 1.390 . S
C821 N824 1.391 . S
C822 H794 0.930 . S
C822 C821 1.390 . S
C822 C823 1.392 . S
C823 H795 0.929 . S
C823 C820 1.391 . S
C823 C822 1.392 . S
N824 Co768 2.257 . S
N824 C821 1.391 . S
N824 C825 1.388 . S
C825 H796 0.930 . S
C825 C820 1.391 . S
C825 N824 1.388 . S
Co826 O828 2.143 . S
Co826 O834 2.074 . S
Co826 O837 2.093 . S
Co826 O850 2.097 . S
Co826 N867 2.151 . S
Co826 N875 2.214 . S
Co827 O828 2.160 . S
Co827 O833 2.058 . S
Co827 O843 2.057 . S
Co827 O858 2.037 . S
Co827 N862 2.145 1_554 S
Co827 N883 2.257 . S
O828 Co826 2.143 . S
O828 Co827 2.160 . S
C829 O830 1.278 . S
C829 O837 1.224 . S
O830 C829 1.278 . S
C831 O832 1.245 . S
C831 O843 1.232 . S
O832 C831 1.245 . S
O833 Co827 2.058 . S
O833 C859 1.269 . S
O834 Co826 2.074 . S
O834 C859 1.257 . S
H835 C860 0.930 . S
H836 C866 0.930 . S
O837 Co826 2.093 . S
O837 C829 1.224 . S
H838 C870 0.929 . S
H839 C872 0.930 . S
H840 C873 0.930 . S
H841 C871 0.929 . S
H842 C874 0.928 . S
O843 Co827 2.057 . S
O843 C831 1.232 . S
H844 C863 0.929 . S
H845 C864 0.929 . S
H846 C876 0.931 . S
H847 C868 0.929 . S
H848 C877 0.930 . S
H849 C869 0.931 . S
O850 Co826 2.097 . S
O850 C878 1.214 . S
H851 C879 0.929 . S
H852 C880 0.929 . S
H853 C881 0.930 . S
H854 C882 0.929 . S
H855 C884 0.930 . S
H856 C861 0.930 . S
H857 C865 0.930 . S
O858 Co827 2.037 . S
O858 C878 1.234 . S
C859 O833 1.269 . S
C859 O834 1.257 . S
C860 H835 0.930 . S
C860 C863 1.388 . S
C860 C865 1.418 . S
C861 H856 0.930 . S
C861 C864 1.404 . S
C861 C865 1.353 . S
N862 Co827 2.145 1_556 S
N862 C863 1.397 . S
N862 C864 1.334 . S
C863 H844 0.929 . S
C863 C860 1.388 . S
C863 N862 1.397 . S
C864 H845 0.929 . S
C864 C861 1.404 . S
C864 N862 1.334 . S
C865 H857 0.930 . S
C865 C860 1.418 . S
C865 C861 1.353 . S
C866 H836 0.930 . S
C866 N867 1.330 . S
C866 C868 1.446 . S
N867 Co826 2.151 . S
N867 C866 1.330 . S
N867 C871 1.418 . S
C868 H847 0.929 . S
C868 C866 1.446 . S
C868 C869 1.332 . S
C869 H849 0.931 . S
C869 C868 1.332 . S
C869 C870 1.267 . S
C870 H838 0.929 . S
C870 C869 1.267 . S
C870 C871 1.251 . S
C871 H841 0.929 . S
C871 N867 1.418 . S
C871 C870 1.251 . S
C872 H839 0.930 . S
C872 C874 1.406 . S
C872 C877 1.261 . S
C873 H840 0.930 . S
C873 N875 1.325 . S
C873 C876 1.357 . S
C874 H842 0.928 . S
C874 C872 1.406 . S
C874 N875 1.261 . S
N875 Co826 2.214 . S
N875 C873 1.325 . S
N875 C874 1.261 . S
C876 H846 0.931 . S
C876 C873 1.357 . S
C876 C877 1.312 . S
C877 H848 0.930 . S
C877 C872 1.261 . S
C877 C876 1.312 . S
C878 O850 1.214 . S
C878 O858 1.234 . S
C879 H851 0.929 . S
C879 C882 1.391 . S
C879 C884 1.391 . S
C880 H852 0.929 . S
C880 C881 1.390 . S
C880 N883 1.391 . S
C881 H853 0.930 . S
C881 C880 1.390 . S
C881 C882 1.392 . S
C882 H854 0.929 . S
C882 C879 1.391 . S
C882 C881 1.392 . S
N883 Co827 2.257 . S
N883 C880 1.391 . S
N883 C884 1.388 . S
C884 H855 0.930 . S
C884 C879 1.391 . S
C884 N883 1.388 . S
Co885 O887 2.143 . S
Co885 O893 2.074 . S
Co885 O896 2.093 . S
Co885 O909 2.097 . S
Co885 N926 2.151 . S
Co885 N934 2.214 . S
Co886 O887 2.160 . S
Co886 O892 2.058 . S
Co886 O902 2.057 . S
Co886 O917 2.037 . S
Co886 N921 2.145 . S
Co886 N942 2.257 . S
O887 Co885 2.143 . S
O887 Co886 2.160 . S
C888 O889 1.278 . S
C888 O896 1.224 . S
O889 C888 1.278 . S
C890 O891 1.245 . S
C890 O902 1.232 . S
O891 C890 1.245 . S
O892 Co886 2.058 . S
O892 C918 1.269 . S
O893 Co885 2.074 . S
O893 C918 1.257 . S
H894 C919 0.930 . S
H895 C925 0.930 . S
O896 Co885 2.093 . S
O896 C888 1.224 . S
H897 C929 0.929 . S
H898 C931 0.930 . S
H899 C932 0.930 . S
H900 C930 0.929 . S
H901 C933 0.928 . S
O902 Co886 2.057 . S
O902 C890 1.232 . S
H903 C922 0.929 . S
H904 C923 0.929 . S
H905 C935 0.931 . S
H906 C927 0.929 . S
H907 C936 0.930 . S
H908 C928 0.931 . S
O909 Co885 2.097 . S
O909 C937 1.214 . S
H910 C938 0.929 . S
H911 C939 0.929 . S
H912 C940 0.930 . S
H913 C941 0.929 . S
H914 C943 0.930 . S
H915 C920 0.930 . S
H916 C924 0.930 . S
O917 Co886 2.037 . S
O917 C937 1.234 . S
C918 O892 1.269 . S
C918 O893 1.257 . S
C919 H894 0.930 . S
C919 C922 1.388 . S
C919 C924 1.418 . S
C920 H915 0.930 . S
C920 C923 1.404 . S
C920 C924 1.353 . S
N921 Co886 2.145 . S
N921 C922 1.397 . S
N921 C923 1.334 . S
C922 H903 0.929 . S
C922 C919 1.388 . S
C922 N921 1.397 . S
C923 H904 0.929 . S
C923 C920 1.404 . S
C923 N921 1.334 . S
C924 H916 0.930 . S
C924 C919 1.418 . S
C924 C920 1.353 . S
C925 H895 0.930 . S
C925 N926 1.330 . S
C925 C927 1.446 . S
N926 Co885 2.151 . S
N926 C925 1.330 . S
N926 C930 1.418 . S
C927 H906 0.929 . S
C927 C925 1.446 . S
C927 C928 1.332 . S
C928 H908 0.931 . S
C928 C927 1.332 . S
C928 C929 1.267 . S
C929 H897 0.929 . S
C929 C928 1.267 . S
C929 C930 1.251 . S
C930 H900 0.929 . S
C930 N926 1.418 . S
C930 C929 1.251 . S
C931 H898 0.930 . S
C931 C933 1.406 . S
C931 C936 1.261 . S
C932 H899 0.930 . S
C932 N934 1.325 . S
C932 C935 1.357 . S
C933 H901 0.928 . S
C933 C931 1.406 . S
C933 N934 1.261 . S
N934 Co885 2.214 . S
N934 C932 1.325 . S
N934 C933 1.261 . S
C935 H905 0.931 . S
C935 C932 1.357 . S
C935 C936 1.312 . S
C936 H907 0.930 . S
C936 C931 1.261 . S
C936 C935 1.312 . S
C937 O909 1.214 . S
C937 O917 1.234 . S
C938 H910 0.929 . S
C938 C941 1.391 . S
C938 C943 1.391 . S
C939 H911 0.929 . S
C939 C940 1.390 . S
C939 N942 1.391 . S
C940 H912 0.930 . S
C940 C939 1.390 . S
C940 C941 1.392 . S
C941 H913 0.929 . S
C941 C938 1.391 . S
C941 C940 1.392 . S
N942 Co886 2.257 . S
N942 C939 1.391 . S
N942 C943 1.388 . S
C943 H914 0.930 . S
C943 C938 1.391 . S
C943 N942 1.388 . S
C944 C945 1.363 . S
C944 C950 1.379 . S
C944 N952 1.356 . S
C945 C944 1.363 . S
C945 C951 1.363 1_554 S
C946 C947 1.363 . S
C946 C951 1.379 . S
C946 N953 1.356 . S
C947 C946 1.363 . S
C947 C950 1.363 1_556 S
N948 C950 1.356 . S
N948 H960 0.984 . S
N948 H961 0.985 . S
N949 C951 1.356 . S
N949 H954 0.984 1_556 S
N949 H955 0.985 . S
C950 C944 1.379 . S
C950 C947 1.363 1_554 S
C950 N948 1.356 . S
C951 C945 1.363 1_556 S
C951 C946 1.379 . S
C951 N949 1.356 . S
N952 C944 1.356 . S
N952 H958 0.984 . S
N952 H959 0.984 . S
N953 C946 1.356 . S
N953 H956 0.984 . S
N953 H957 0.985 . S
H954 N949 0.984 1_554 S
H955 N949 0.985 . S
H956 N953 0.984 . S
H957 N953 0.985 . S
H958 N952 0.984 . S
H959 N952 0.984 . S
H960 N948 0.984 . S
H961 N948 0.985 . S
C962 C963 1.363 . S
C962 C968 1.379 . S
C962 N970 1.356 . S
C963 C962 1.363 . S
C963 C969 1.363 . S
C964 C965 1.363 . S
C964 C969 1.379 . S
C964 N971 1.356 . S
C965 C964 1.363 . S
C965 C968 1.363 . S
N966 C968 1.356 . S
N966 H978 0.984 . S
N966 H979 0.985 . S
N967 C969 1.356 . S
N967 H972 0.984 . S
N967 H973 0.985 . S
C968 C962 1.379 . S
C968 C965 1.363 . S
C968 N966 1.356 . S
C969 C963 1.363 . S
C969 C964 1.379 . S
C969 N967 1.356 . S
N970 C962 1.356 . S
N970 H976 0.984 . S
N970 H977 0.984 . S
N971 C964 1.356 . S
N971 H974 0.984 . S
N971 H975 0.985 . S
H972 N967 0.984 . S
H973 N967 0.985 . S
H974 N971 0.984 . S
H975 N971 0.985 . S
H976 N970 0.984 . S
H977 N970 0.984 . S
H978 N966 0.984 . S
H979 N966 0.985 . S
C980 C981 1.363 . S
C980 C986 1.379 . S
C980 N988 1.356 . S
C981 C980 1.363 . S
C981 C987 1.363 . S
C982 C983 1.363 . S
C982 C987 1.379 1_554 S
C982 N989 1.356 . S
C983 C982 1.363 . S
C983 C986 1.363 1_554 S
N984 C986 1.356 . S
N984 H996 0.984 . S
N984 H997 0.985 . S
N985 C987 1.356 . S
N985 H990 0.986 . S
N985 H991 0.983 1_556 S
C986 C980 1.379 . S
C986 C983 1.363 1_556 S
C986 N984 1.356 . S
C987 C981 1.363 . S
C987 C982 1.379 1_556 S
C987 N985 1.356 . S
N988 C980 1.356 . S
N988 H994 0.984 . S
N988 H995 0.984 . S
N989 C982 1.356 . S
N989 H992 0.984 . S
N989 H993 0.985 . S
H990 N985 0.986 . S
H991 N985 0.983 1_554 S
H992 N989 0.984 . S
H993 N989 0.985 . S
H994 N988 0.984 . S
H995 N988 0.984 . S
H996 N984 0.984 . S
H997 N984 0.985 . S
C998 C999 1.363 . S
C998 C1004 1.379 . S
C998 N1006 1.356 . S
C999 C998 1.363 . S
C999 C1005 1.363 . S
C1000 C1001 1.363 . S
C1000 C1005 1.379 . S
C1000 N1007 1.356 . S
C1001 C1000 1.363 . S
C1001 C1004 1.363 . S
N1002 C1004 1.356 . S
N1002 H1014 0.984 . S
N1002 H1015 0.985 . S
N1003 C1005 1.356 . S
N1003 H1008 0.984 . S
N1003 H1009 0.985 . S
C1004 C998 1.379 . S
C1004 C1001 1.363 . S
C1004 N1002 1.356 . S
C1005 C999 1.363 . S
C1005 C1000 1.379 . S
C1005 N1003 1.356 . S
N1006 C998 1.356 . S
N1006 H1012 0.984 . S
N1006 H1013 0.984 . S
N1007 C1000 1.356 . S
N1007 H1010 0.984 . S
N1007 H1011 0.985 . S
H1008 N1003 0.984 . S
H1009 N1003 0.985 . S
H1010 N1007 0.984 . S
H1011 N1007 0.985 . S
H1012 N1006 0.984 . S
H1013 N1006 0.984 . S
H1014 N1002 0.984 . S
H1015 N1002 0.985 . S
C1016 C1017 1.363 . S
C1016 C1022 1.379 . S
C1016 N1024 1.356 . S
C1017 C1016 1.363 . S
C1017 C1023 1.363 1_554 S
C1018 C1019 1.363 . S
C1018 C1023 1.379 . S
C1018 N1025 1.356 . S
C1019 C1018 1.363 . S
C1019 C1022 1.363 1_556 S
N1020 C1022 1.356 . S
N1020 H1032 0.984 . S
N1020 H1033 0.985 . S
N1021 C1023 1.356 . S
N1021 H1026 0.984 1_556 S
N1021 H1027 0.985 . S
C1022 C1016 1.379 . S
C1022 C1019 1.363 1_554 S
C1022 N1020 1.356 . S
C1023 C1017 1.363 1_556 S
C1023 C1018 1.379 . S
C1023 N1021 1.356 . S
N1024 C1016 1.356 . S
N1024 H1030 0.984 . S
N1024 H1031 0.984 . S
N1025 C1018 1.356 . S
N1025 H1028 0.984 . S
N1025 H1029 0.985 . S
H1026 N1021 0.984 1_554 S
H1027 N1021 0.985 . S
H1028 N1025 0.984 . S
H1029 N1025 0.985 . S
H1030 N1024 0.984 . S
H1031 N1024 0.984 . S
H1032 N1020 0.984 . S
H1033 N1020 0.985 . S
C1034 C1035 1.363 . S
C1034 C1040 1.379 . S
C1034 N1042 1.356 . S
C1035 C1034 1.363 . S
C1035 C1041 1.363 . S
C1036 C1037 1.363 . S
C1036 C1041 1.379 . S
C1036 N1043 1.356 . S
C1037 C1036 1.363 . S
C1037 C1040 1.363 . S
N1038 C1040 1.356 . S
N1038 H1050 0.984 . S
N1038 H1051 0.985 . S
N1039 C1041 1.356 . S
N1039 H1044 0.984 . S
N1039 H1045 0.985 . S
C1040 C1034 1.379 . S
C1040 C1037 1.363 . S
C1040 N1038 1.356 . S
C1041 C1035 1.363 . S
C1041 C1036 1.379 . S
C1041 N1039 1.356 . S
N1042 C1034 1.356 . S
N1042 H1048 0.984 . S
N1042 H1049 0.984 . S
N1043 C1036 1.356 . S
N1043 H1046 0.984 . S
N1043 H1047 0.985 . S
H1044 N1039 0.984 . S
H1045 N1039 0.985 . S
H1046 N1043 0.984 . S
H1047 N1043 0.985 . S
H1048 N1042 0.984 . S
H1049 N1042 0.984 . S
H1050 N1038 0.984 . S
H1051 N1038 0.985 . S
C1052 C1053 1.363 1_554 S
C1052 C1058 1.379 . S
C1052 N1060 1.356 . S
C1053 C1052 1.363 1_556 S
C1053 C1059 1.363 . S
C1054 C1055 1.363 1_556 S
C1054 C1059 1.379 . S
C1054 N1061 1.356 . S
C1055 C1054 1.363 1_554 S
C1055 C1058 1.363 . S
N1056 C1058 1.356 . S
N1056 H1068 0.984 . S
N1056 H1069 0.985 . S
N1057 C1059 1.356 . S
N1057 H1062 0.984 . S
N1057 H1063 0.985 . S
C1058 C1052 1.379 . S
C1058 C1055 1.363 . S
C1058 N1056 1.356 . S
C1059 C1053 1.363 . S
C1059 C1054 1.379 . S
C1059 N1057 1.356 . S
N1060 C1052 1.356 . S
N1060 H1066 0.984 . S
N1060 H1067 0.984 1_554 S
N1061 C1054 1.356 . S
N1061 H1064 0.984 . S
N1061 H1065 0.985 . S
H1062 N1057 0.984 . S
H1063 N1057 0.985 . S
H1064 N1061 0.984 . S
H1065 N1061 0.985 . S
H1066 N1060 0.984 . S
H1067 N1060 0.984 1_556 S
H1068 N1056 0.984 . S
H1069 N1056 0.985 . S
C1070 C1071 1.363 . S
C1070 C1076 1.379 . S
C1070 N1078 1.356 . S
C1071 C1070 1.363 . S
C1071 C1077 1.363 . S
C1072 C1073 1.363 . S
C1072 C1077 1.379 . S
C1072 N1079 1.356 . S
C1073 C1072 1.363 . S
C1073 C1076 1.363 . S
N1074 C1076 1.356 . S
N1074 H1086 0.984 . S
N1074 H1087 0.985 . S
N1075 C1077 1.356 . S
N1075 H1080 0.984 . S
N1075 H1081 0.985 . S
C1076 C1070 1.379 . S
C1076 C1073 1.363 . S
C1076 N1074 1.356 . S
C1077 C1071 1.363 . S
C1077 C1072 1.379 . S
C1077 N1075 1.356 . S
N1078 C1070 1.356 . S
N1078 H1084 0.984 . S
N1078 H1085 0.984 . S
N1079 C1072 1.356 . S
N1079 H1082 0.984 . S
N1079 H1083 0.985 . S
H1080 N1075 0.984 . S
H1081 N1075 0.985 . S
H1082 N1079 0.984 . S
H1083 N1079 0.985 . S
H1084 N1078 0.984 . S
H1085 N1078 0.984 . S
H1086 N1074 0.984 . S
H1087 N1074 0.985 . S
C1088 C1089 1.363 1_556 S
C1088 C1094 1.379 . S
C1088 N1096 1.356 1_556 S
C1089 C1088 1.363 1_554 S
C1089 C1095 1.363 1_545 S
C1090 C1091 1.363 1_554 S
C1090 C1095 1.379 . S
C1090 N1097 1.356 1_554 S
C1091 C1090 1.363 1_556 S
C1091 C1094 1.363 1_565 S
N1092 C1094 1.356 . S
N1092 H1104 0.984 . S
N1092 H1105 0.985 1_545 S
N1093 C1095 1.356 . S
N1093 H1098 0.984 1_565 S
N1093 H1099 0.985 . S
C1094 C1088 1.379 . S
C1094 C1091 1.363 1_545 S
C1094 N1092 1.356 . S
C1095 C1089 1.363 1_565 S
C1095 C1090 1.379 . S
C1095 N1093 1.356 . S
N1096 C1088 1.356 1_554 S
N1096 H1102 0.984 1_554 S
N1096 H1103 0.984 . S
N1097 C1090 1.356 1_556 S
N1097 H1100 0.984 . S
N1097 H1101 0.985 1_556 S
H1098 N1093 0.984 1_545 S
H1099 N1093 0.985 . S
H1100 N1097 0.984 . S
H1101 N1097 0.985 1_554 S
H1102 N1096 0.984 1_556 S
H1103 N1096 0.984 . S
H1104 N1092 0.984 . S
H1105 N1092 0.985 1_565 S
C1106 C1107 1.363 1_545 S
C1106 C1112 1.379 . S
C1106 N1114 1.356 . S
C1107 C1106 1.363 1_565 S
C1107 C1113 1.363 . S
C1108 C1109 1.363 1_565 S
C1108 C1113 1.379 . S
C1108 N1115 1.356 . S
C1109 C1108 1.363 1_545 S
C1109 C1112 1.363 . S
N1110 C1112 1.356 . S
N1110 H1122 0.984 . S
N1110 H1123 0.985 . S
N1111 C1113 1.356 . S
N1111 H1116 0.984 . S
N1111 H1117 0.985 . S
C1112 C1106 1.379 . S
C1112 C1109 1.363 . S
C1112 N1110 1.356 . S
C1113 C1107 1.363 . S
C1113 C1108 1.379 . S
C1113 N1111 1.356 . S
N1114 C1106 1.356 . S
N1114 H1120 0.984 . S
N1114 H1121 0.984 1_545 S
N1115 C1108 1.356 . S
N1115 H1118 0.984 1_565 S
N1115 H1119 0.985 . S
H1116 N1111 0.984 . S
H1117 N1111 0.985 . S
H1118 N1115 0.984 1_545 S
H1119 N1115 0.985 . S
H1120 N1114 0.984 . S
H1121 N1114 0.984 1_565 S
H1122 N1110 0.984 . S
H1123 N1110 0.985 . S
C1124 C1125 1.363 . S
C1124 C1130 1.379 1_565 S
C1124 N1132 1.356 . S
C1125 C1124 1.363 . S
C1125 C1131 1.363 1_556 S
C1126 C1127 1.363 . S
C1126 C1131 1.379 1_545 S
C1126 N1133 1.356 . S
C1127 C1126 1.363 . S
C1127 C1130 1.363 1_554 S
N1128 C1130 1.356 . S
N1128 H1140 0.984 . S
N1128 H1141 0.985 . S
N1129 C1131 1.356 . S
N1129 H1134 0.984 . S
N1129 H1135 0.985 . S
C1130 C1124 1.379 1_545 S
C1130 C1127 1.363 1_556 S
C1130 N1128 1.356 . S
C1131 C1125 1.363 1_554 S
C1131 C1126 1.379 1_565 S
C1131 N1129 1.356 . S
N1132 C1124 1.356 . S
N1132 H1138 0.984 . S
N1132 H1139 0.984 . S
N1133 C1126 1.356 . S
N1133 H1136 0.984 . S
N1133 H1137 0.985 . S
H1134 N1129 0.984 . S
H1135 N1129 0.985 . S
H1136 N1133 0.984 . S
H1137 N1133 0.985 . S
H1138 N1132 0.984 . S
H1139 N1132 0.984 . S
H1140 N1128 0.984 . S
H1141 N1128 0.985 . S
C1142 C1143 1.363 . S
C1142 C1148 1.379 1_545 S
C1142 N1150 1.356 . S
C1143 C1142 1.363 . S
C1143 C1149 1.363 . S
C1144 C1145 1.363 . S
C1144 C1149 1.379 1_565 S
C1144 N1151 1.356 . S
C1145 C1144 1.363 . S
C1145 C1148 1.363 . S
N1146 C1148 1.356 . S
N1146 H1158 0.984 . S
N1146 H1159 0.985 . S
N1147 C1149 1.356 . S
N1147 H1152 0.984 . S
N1147 H1153 0.985 . S
C1148 C1142 1.379 1_565 S
C1148 C1145 1.363 . S
C1148 N1146 1.356 . S
C1149 C1143 1.363 . S
C1149 C1144 1.379 1_545 S
C1149 N1147 1.356 . S
N1150 C1142 1.356 . S
N1150 H1156 0.984 . S
N1150 H1157 0.984 . S
N1151 C1144 1.356 . S
N1151 H1154 0.984 . S
N1151 H1155 0.985 . S
H1152 N1147 0.984 . S
H1153 N1147 0.985 . S
H1154 N1151 0.984 . S
H1155 N1151 0.985 . S
H1156 N1150 0.984 . S
H1157 N1150 0.984 . S
H1158 N1146 0.984 . S
H1159 N1146 0.985 . S
C1160 C1161 1.363 . S
C1160 C1166 1.379 1_556 S
C1160 N1168 1.356 . S
C1161 C1160 1.363 . S
C1161 C1167 1.363 . S
C1162 C1163 1.363 . S
C1162 C1167 1.379 1_554 S
C1162 N1169 1.356 . S
C1163 C1162 1.363 . S
C1163 C1166 1.363 . S
N1164 C1166 1.356 . S
N1164 H1176 0.984 . S
N1164 H1177 0.985 . S
N1165 C1167 1.356 . S
N1165 H1170 0.984 . S
N1165 H1171 0.985 . S
C1166 C1160 1.379 1_554 S
C1166 C1163 1.363 . S
C1166 N1164 1.356 . S
C1167 C1161 1.363 . S
C1167 C1162 1.379 1_556 S
C1167 N1165 1.356 . S
N1168 C1160 1.356 . S
N1168 H1174 0.984 . S
N1168 H1175 0.984 . S
N1169 C1162 1.356 . S
N1169 H1172 0.984 . S
N1169 H1173 0.985 . S
H1170 N1165 0.984 . S
H1171 N1165 0.985 . S
H1172 N1169 0.984 . S
H1173 N1169 0.985 . S
H1174 N1168 0.984 . S
H1175 N1168 0.984 . S
H1176 N1164 0.984 . S
H1177 N1164 0.985 . S
C1178 C1179 1.363 . S
C1178 C1184 1.379 . S
C1178 N1186 1.356 . S
C1179 C1178 1.363 . S
C1179 C1185 1.363 . S
C1180 C1181 1.363 . S
C1180 C1185 1.379 . S
C1180 N1187 1.356 . S
C1181 C1180 1.363 . S
C1181 C1184 1.363 . S
N1182 C1184 1.356 . S
N1182 H1194 0.984 . S
N1182 H1195 0.985 . S
N1183 C1185 1.356 . S
N1183 H1188 0.984 . S
N1183 H1189 0.985 . S
C1184 C1178 1.379 . S
C1184 C1181 1.363 . S
C1184 N1182 1.356 . S
C1185 C1179 1.363 . S
C1185 C1180 1.379 . S
C1185 N1183 1.356 . S
N1186 C1178 1.356 . S
N1186 H1192 0.984 . S
N1186 H1193 0.984 . S
N1187 C1180 1.356 . S
N1187 H1190 0.984 . S
N1187 H1191 0.985 . S
H1188 N1183 0.984 . S
H1189 N1183 0.985 . S
H1190 N1187 0.984 . S
H1191 N1187 0.985 . S
H1192 N1186 0.984 . S
H1193 N1186 0.984 . S
H1194 N1182 0.984 . S
H1195 N1182 0.985 . S
C1196 C1197 1.363 . S
C1196 C1202 1.379 . S
C1196 N1204 1.356 . S
C1197 C1196 1.363 . S
C1197 C1203 1.363 1_554 S
C1198 C1199 1.363 . S
C1198 C1203 1.379 . S
C1198 N1205 1.356 . S
C1199 C1198 1.363 . S
C1199 C1202 1.363 1_556 S
N1200 C1202 1.356 . S
N1200 H1212 0.984 . S
N1200 H1213 0.985 . S
N1201 C1203 1.356 . S
N1201 H1206 0.984 . S
N1201 H1207 0.985 . S
C1202 C1196 1.379 . S
C1202 C1199 1.363 1_554 S
C1202 N1200 1.356 . S
C1203 C1197 1.363 1_556 S
C1203 C1198 1.379 . S
C1203 N1201 1.356 . S
N1204 C1196 1.356 . S
N1204 H1210 0.984 . S
N1204 H1211 0.984 . S
N1205 C1198 1.356 . S
N1205 H1208 0.984 . S
N1205 H1209 0.985 . S
H1206 N1201 0.984 . S
H1207 N1201 0.985 . S
H1208 N1205 0.984 . S
H1209 N1205 0.985 . S
H1210 N1204 0.984 . S
H1211 N1204 0.984 . S
H1212 N1200 0.984 . S
H1213 N1200 0.985 . S
C1214 C1215 1.363 . S
C1214 C1220 1.379 . S
C1214 N1222 1.356 . S
C1215 C1214 1.363 . S
C1215 C1221 1.363 . S
C1216 C1217 1.363 . S
C1216 C1221 1.379 . S
C1216 N1223 1.356 . S
C1217 C1216 1.363 . S
C1217 C1220 1.363 . S
N1218 C1220 1.356 . S
N1218 H1230 0.984 . S
N1218 H1231 0.985 . S
N1219 C1221 1.356 . S
N1219 H1224 0.984 . S
N1219 H1225 0.985 . S
C1220 C1214 1.379 . S
C1220 C1217 1.363 . S
C1220 N1218 1.356 . S
C1221 C1215 1.363 . S
C1221 C1216 1.379 . S
C1221 N1219 1.356 . S
N1222 C1214 1.356 . S
N1222 H1228 0.984 . S
N1222 H1229 0.984 . S
N1223 C1216 1.356 . S
N1223 H1226 0.984 . S
N1223 H1227 0.985 . S
H1224 N1219 0.984 . S
H1225 N1219 0.985 . S
H1226 N1223 0.984 . S
H1227 N1223 0.985 . S
H1228 N1222 0.984 . S
H1229 N1222 0.984 . S
H1230 N1218 0.984 . S
H1231 N1218 0.985 . S
C1232 C1233 1.363 . S
C1232 C1238 1.379 . S
C1232 N1240 1.356 . S
C1233 C1232 1.363 . S
C1233 C1239 1.363 . S
C1234 C1235 1.363 . S
C1234 C1239 1.379 . S
C1234 N1241 1.356 . S
C1235 C1234 1.363 . S
C1235 C1238 1.363 . S
N1236 C1238 1.356 . S
N1236 H1248 0.984 . S
N1236 H1249 0.985 . S
N1237 C1239 1.356 . S
N1237 H1242 0.984 . S
N1237 H1243 0.985 . S
C1238 C1232 1.379 . S
C1238 C1235 1.363 . S
C1238 N1236 1.356 . S
C1239 C1233 1.363 . S
C1239 C1234 1.379 . S
C1239 N1237 1.356 . S
N1240 C1232 1.356 . S
N1240 H1246 0.984 . S
N1240 H1247 0.984 . S
N1241 C1234 1.356 . S
N1241 H1244 0.984 . S
N1241 H1245 0.985 . S
H1242 N1237 0.984 . S
H1243 N1237 0.985 . S
H1244 N1241 0.984 . S
H1245 N1241 0.985 . S
H1246 N1240 0.984 . S
H1247 N1240 0.984 . S
H1248 N1236 0.984 . S
H1249 N1236 0.985 . S
C1250 C1251 1.363 . S
C1250 C1256 1.379 . S
C1250 N1258 1.356 . S
C1251 C1250 1.363 . S
C1251 C1257 1.363 . S
C1252 C1253 1.363 1_655 S
C1252 C1257 1.379 . S
C1252 N1259 1.356 1_655 S
C1253 C1252 1.363 1_455 S
C1253 C1256 1.363 1_455 S
N1254 C1256 1.356 1_455 S
N1254 H1266 0.984 . S
N1254 H1267 0.985 . S
N1255 C1257 1.356 . S
N1255 H1260 0.984 . S
N1255 H1261 0.985 . S
C1256 C1250 1.379 . S
C1256 C1253 1.363 1_655 S
C1256 N1254 1.356 1_655 S
C1257 C1251 1.363 . S
C1257 C1252 1.379 . S
C1257 N1255 1.356 . S
N1258 C1250 1.356 . S
N1258 H1264 0.984 . S
N1258 H1265 0.984 . S
N1259 C1252 1.356 1_455 S
N1259 H1262 0.984 . S
N1259 H1263 0.985 . S
H1260 N1255 0.984 . S
H1261 N1255 0.985 . S
H1262 N1259 0.984 . S
H1263 N1259 0.985 . S
H1264 N1258 0.984 . S
H1265 N1258 0.984 . S
H1266 N1254 0.984 . S
H1267 N1254 0.985 . S
C1268 C1269 1.363 . S
C1268 C1274 1.379 . S
C1268 N1276 1.356 . S
C1269 C1268 1.363 . S
C1269 C1275 1.363 . S
C1270 C1271 1.363 . S
C1270 C1275 1.379 . S
C1270 N1277 1.356 . S
C1271 C1270 1.363 . S
C1271 C1274 1.363 . S
N1272 C1274 1.356 . S
N1272 H1284 0.984 . S
N1272 H1285 0.985 . S
N1273 C1275 1.356 . S
N1273 H1278 0.984 . S
N1273 H1279 0.985 . S
C1274 C1268 1.379 . S
C1274 C1271 1.363 . S
C1274 N1272 1.356 . S
C1275 C1269 1.363 . S
C1275 C1270 1.379 . S
C1275 N1273 1.356 . S
N1276 C1268 1.356 . S
N1276 H1282 0.984 . S
N1276 H1283 0.984 . S
N1277 C1270 1.356 . S
N1277 H1280 0.984 . S
N1277 H1281 0.985 . S
H1278 N1273 0.984 . S
H1279 N1273 0.985 . S
H1280 N1277 0.984 . S
H1281 N1277 0.985 . S
H1282 N1276 0.984 . S
H1283 N1276 0.984 . S
H1284 N1272 0.984 . S
H1285 N1272 0.985 . S
C1286 C1287 1.363 1_655 S
C1286 C1292 1.379 . S
C1286 N1294 1.356 1_655 S
C1287 C1286 1.363 1_455 S
C1287 C1293 1.363 1_455 S
C1288 C1289 1.363 . S
C1288 C1293 1.379 . S
C1288 N1295 1.356 . S
C1289 C1288 1.363 . S
C1289 C1292 1.363 . S
N1290 C1292 1.356 . S
N1290 H1302 0.984 . S
N1290 H1303 0.985 . S
N1291 C1293 1.356 1_455 S
N1291 H1296 0.984 . S
N1291 H1297 0.985 . S
C1292 C1286 1.379 . S
C1292 C1289 1.363 . S
C1292 N1290 1.356 . S
C1293 C1287 1.363 1_655 S
C1293 C1288 1.379 . S
C1293 N1291 1.356 1_655 S
N1294 C1286 1.356 1_455 S
N1294 H1300 0.984 1_455 S
N1294 H1301 0.984 . S
N1295 C1288 1.356 . S
N1295 H1298 0.984 . S
N1295 H1299 0.985 . S
H1296 N1291 0.984 . S
H1297 N1291 0.985 . S
H1298 N1295 0.984 . S
H1299 N1295 0.985 . S
H1300 N1294 0.984 1_655 S
H1301 N1294 0.984 . S
H1302 N1290 0.984 . S
H1303 N1290 0.985 . S
C1304 C1305 1.363 . S
C1304 C1310 1.379 . S
C1304 N1312 1.356 . S
C1305 C1304 1.363 . S
C1305 C1311 1.363 . S
C1306 C1307 1.363 1_455 S
C1306 C1311 1.379 . S
C1306 N1313 1.356 1_455 S
C1307 C1306 1.363 1_655 S
C1307 C1310 1.363 1_655 S
N1308 C1310 1.356 1_655 S
N1308 H1320 0.984 . S
N1308 H1321 0.985 . S
N1309 C1311 1.356 . S
N1309 H1314 0.984 . S
N1309 H1315 0.997 . S
C1310 C1304 1.379 . S
C1310 C1307 1.363 1_455 S
C1310 N1308 1.356 1_455 S
C1311 C1305 1.363 . S
C1311 C1306 1.379 . S
C1311 N1309 1.356 . S
N1312 C1304 1.356 . S
N1312 H1318 0.984 . S
N1312 H1319 0.984 . S
N1313 C1306 1.356 1_655 S
N1313 H1316 0.984 . S
N1313 H1317 0.985 1_654 S
H1314 N1309 0.984 . S
H1315 N1309 0.997 . S
H1316 N1313 0.984 . S
H1317 N1313 0.985 1_456 S
H1318 N1312 0.984 . S
H1319 N1312 0.984 . S
H1320 N1308 0.984 . S
H1321 N1308 0.985 . S
C1322 C1323 1.363 . S
C1322 C1328 1.379 . S
C1322 N1330 1.356 . S
C1323 C1322 1.363 . S
C1323 C1329 1.363 . S
C1324 C1325 1.363 . S
C1324 C1329 1.379 . S
C1324 N1331 1.356 . S
C1325 C1324 1.363 . S
C1325 C1328 1.363 . S
N1326 C1328 1.356 . S
N1326 H1338 0.984 . S
N1326 H1339 0.985 . S
N1327 C1329 1.356 . S
N1327 H1332 0.984 . S
N1327 H1333 0.985 . S
C1328 C1322 1.379 . S
C1328 C1325 1.363 . S
C1328 N1326 1.356 . S
C1329 C1323 1.363 . S
C1329 C1324 1.379 . S
C1329 N1327 1.356 . S
N1330 C1322 1.356 . S
N1330 H1336 0.984 . S
N1330 H1337 0.984 . S
N1331 C1324 1.356 . S
N1331 H1334 0.984 . S
N1331 H1335 0.985 . S
H1332 N1327 0.984 . S
H1333 N1327 0.985 . S
H1334 N1331 0.984 . S
H1335 N1331 0.985 . S
H1336 N1330 0.984 . S
H1337 N1330 0.984 . S
H1338 N1326 0.984 . S
H1339 N1326 0.985 . S
C1340 C1341 1.363 . S
C1340 C1346 1.379 . S
C1340 N1348 1.356 . S
C1341 C1340 1.363 . S
C1341 C1347 1.363 . S
C1342 C1343 1.363 1_455 S
C1342 C1347 1.379 . S
C1342 N1349 1.356 1_455 S
C1343 C1342 1.363 1_655 S
C1343 C1346 1.363 1_655 S
N1344 C1346 1.356 1_655 S
N1344 H1356 0.984 . S
N1344 H1357 0.985 . S
N1345 C1347 1.356 . S
N1345 H1350 0.984 . S
N1345 H1351 0.985 . S
C1346 C1340 1.379 . S
C1346 C1343 1.363 1_455 S
C1346 N1344 1.356 1_455 S
C1347 C1341 1.363 . S
C1347 C1342 1.379 . S
C1347 N1345 1.356 . S
N1348 C1340 1.356 . S
N1348 H1354 0.984 . S
N1348 H1355 0.984 . S
N1349 C1342 1.356 1_655 S
N1349 H1352 0.984 . S
N1349 H1353 0.985 . S
H1350 N1345 0.984 . S
H1351 N1345 0.985 . S
H1352 N1349 0.984 . S
H1353 N1349 0.985 . S
H1354 N1348 0.984 . S
H1355 N1348 0.984 . S
H1356 N1344 0.984 . S
H1357 N1344 0.985 . S
C1358 C1359 1.363 . S
C1358 C1364 1.379 . S
C1358 N1366 1.356 . S
C1359 C1358 1.363 . S
C1359 C1365 1.363 . S
C1360 C1361 1.363 . S
C1360 C1365 1.379 . S
C1360 N1367 1.356 . S
C1361 C1360 1.363 . S
C1361 C1364 1.363 . S
N1362 C1364 1.356 . S
N1362 H1374 0.984 . S
N1362 H1375 0.985 . S
N1363 C1365 1.356 . S
N1363 H1368 0.984 . S
N1363 H1369 0.985 . S
C1364 C1358 1.379 . S
C1364 C1361 1.363 . S
C1364 N1362 1.356 . S
C1365 C1359 1.363 . S
C1365 C1360 1.379 . S
C1365 N1363 1.356 . S
N1366 C1358 1.356 . S
N1366 H1372 0.984 . S
N1366 H1373 0.984 . S
N1367 C1360 1.356 . S
N1367 H1370 0.984 . S
N1367 H1371 0.985 . S
H1368 N1363 0.984 . S
H1369 N1363 0.985 . S
H1370 N1367 0.984 . S
H1371 N1367 0.985 . S
H1372 N1366 0.984 . S
H1373 N1366 0.984 . S
H1374 N1362 0.984 . S
H1375 N1362 0.985 . S
C1376 C1377 1.363 . S
C1376 C1382 1.379 . S
C1376 N1384 1.356 . S
C1377 C1376 1.363 . S
C1377 C1383 1.363 . S
C1378 C1379 1.363 . S
C1378 C1383 1.379 . S
C1378 N1385 1.356 . S
C1379 C1378 1.363 . S
C1379 C1382 1.363 . S
N1380 C1382 1.356 . S
N1380 H1392 0.984 . S
N1380 H1393 0.985 . S
N1381 C1383 1.356 . S
N1381 H1386 0.984 . S
N1381 H1387 0.985 . S
C1382 C1376 1.379 . S
C1382 C1379 1.363 . S
C1382 N1380 1.356 . S
C1383 C1377 1.363 . S
C1383 C1378 1.379 . S
C1383 N1381 1.356 . S
N1384 C1376 1.356 . S
N1384 H1390 0.984 . S
N1384 H1391 0.984 . S
N1385 C1378 1.356 . S
N1385 H1388 0.984 . S
N1385 H1389 0.985 . S
H1386 N1381 0.984 . S
H1387 N1381 0.985 . S
H1388 N1385 0.984 . S
H1389 N1385 0.985 . S
H1390 N1384 0.984 . S
H1391 N1384 0.984 . S
H1392 N1380 0.984 . S
H1393 N1380 0.985 . S
C1394 C1395 1.363 . S
C1394 C1400 1.379 . S
C1394 N1402 1.356 . S
C1395 C1394 1.363 . S
C1395 C1401 1.363 . S
C1396 C1397 1.363 . S
C1396 C1401 1.379 . S
C1396 N1403 1.356 . S
C1397 C1396 1.363 . S
C1397 C1400 1.363 . S
N1398 C1400 1.356 . S
N1398 H1410 0.984 . S
N1398 H1411 0.985 . S
N1399 C1401 1.356 . S
N1399 H1404 0.984 . S
N1399 H1405 0.985 . S
C1400 C1394 1.379 . S
C1400 C1397 1.363 . S
C1400 N1398 1.356 . S
C1401 C1395 1.363 . S
C1401 C1396 1.379 . S
C1401 N1399 1.356 . S
N1402 C1394 1.356 . S
N1402 H1408 0.984 . S
N1402 H1409 0.984 . S
N1403 C1396 1.356 . S
N1403 H1406 0.984 . S
N1403 H1407 0.985 . S
H1404 N1399 0.984 . S
H1405 N1399 0.985 . S
H1406 N1403 0.984 . S
H1407 N1403 0.985 . S
H1408 N1402 0.984 . S
H1409 N1402 0.984 . S
H1410 N1398 0.984 . S
H1411 N1398 0.985 . S
C1412 C1413 1.363 . S
C1412 C1418 1.379 . S
C1412 N1420 1.356 . S
C1413 C1412 1.363 . S
C1413 C1419 1.363 . S
C1414 C1415 1.363 . S
C1414 C1419 1.379 . S
C1414 N1421 1.356 . S
C1415 C1414 1.363 . S
C1415 C1418 1.363 . S
N1416 C1418 1.356 . S
N1416 H1428 0.984 . S
N1416 H1429 0.985 . S
N1417 C1419 1.356 . S
N1417 H1422 0.984 . S
N1417 H1423 0.985 . S
C1418 C1412 1.379 . S
C1418 C1415 1.363 . S
C1418 N1416 1.356 . S
C1419 C1413 1.363 . S
C1419 C1414 1.379 . S
C1419 N1417 1.356 . S
N1420 C1412 1.356 . S
N1420 H1426 0.984 . S
N1420 H1427 0.984 . S
N1421 C1414 1.356 . S
N1421 H1424 0.984 . S
N1421 H1425 0.985 . S
H1422 N1417 0.984 . S
H1423 N1417 0.985 . S
H1424 N1421 0.984 . S
H1425 N1421 0.985 . S
H1426 N1420 0.984 . S
H1427 N1420 0.984 . S
H1428 N1416 0.984 . S
H1429 N1416 0.985 . S
C1430 C1431 1.363 . S
C1430 C1436 1.379 . S
C1430 N1438 1.356 . S
C1431 C1430 1.363 . S
C1431 C1437 1.363 . S
C1432 C1433 1.363 . S
C1432 C1437 1.379 . S
C1432 N1439 1.356 . S
C1433 C1432 1.363 . S
C1433 C1436 1.363 . S
N1434 C1436 1.356 . S
N1434 H1446 0.984 . S
N1434 H1447 0.985 . S
N1435 C1437 1.356 . S
N1435 H1440 0.984 . S
N1435 H1441 0.985 . S
C1436 C1430 1.379 . S
C1436 C1433 1.363 . S
C1436 N1434 1.356 . S
C1437 C1431 1.363 . S
C1437 C1432 1.379 . S
C1437 N1435 1.356 . S
N1438 C1430 1.356 . S
N1438 H1444 0.984 . S
N1438 H1445 0.984 . S
N1439 C1432 1.356 . S
N1439 H1442 0.984 . S
N1439 H1443 0.985 . S
H1440 N1435 0.984 . S
H1441 N1435 0.985 . S
H1442 N1439 0.984 . S
H1443 N1439 0.985 . S
H1444 N1438 0.984 . S
H1445 N1438 0.984 . S
H1446 N1434 0.984 . S
H1447 N1434 0.985 . S
C1448 C1449 1.363 . S
C1448 C1454 1.379 . S
C1448 N1456 1.356 . S
C1449 C1448 1.363 . S
C1449 C1455 1.363 . S
C1450 C1451 1.363 . S
C1450 C1455 1.379 . S
C1450 N1457 1.356 . S
C1451 C1450 1.363 . S
C1451 C1454 1.363 . S
N1452 C1454 1.356 . S
N1452 H1464 0.984 . S
N1452 H1465 0.985 . S
N1453 C1455 1.356 . S
N1453 H1458 0.984 . S
N1453 H1459 0.985 . S
C1454 C1448 1.379 . S
C1454 C1451 1.363 . S
C1454 N1452 1.356 . S
C1455 C1449 1.363 . S
C1455 C1450 1.379 . S
C1455 N1453 1.356 . S
N1456 C1448 1.356 . S
N1456 H1462 0.984 . S
N1456 H1463 0.984 . S
N1457 C1450 1.356 . S
N1457 H1460 0.984 . S
N1457 H1461 0.985 . S
H1458 N1453 0.984 . S
H1459 N1453 0.985 . S
H1460 N1457 0.984 . S
H1461 N1457 0.985 . S
H1462 N1456 0.984 . S
H1463 N1456 0.984 . S
H1464 N1452 0.984 . S
H1465 N1452 0.985 . S
C1466 C1467 1.363 . S
C1466 C1472 1.379 . S
C1466 N1474 1.356 . S
C1467 C1466 1.363 . S
C1467 C1473 1.363 . S
C1468 C1469 1.363 . S
C1468 C1473 1.379 . S
C1468 N1475 1.356 . S
C1469 C1468 1.363 . S
C1469 C1472 1.363 . S
N1470 C1472 1.356 . S
N1470 H1482 0.984 . S
N1470 H1483 0.985 . S
N1471 C1473 1.356 . S
N1471 H1476 0.984 . S
N1471 H1477 0.985 . S
C1472 C1466 1.379 . S
C1472 C1469 1.363 . S
C1472 N1470 1.356 . S
C1473 C1467 1.363 . S
C1473 C1468 1.379 . S
C1473 N1471 1.356 . S
N1474 C1466 1.356 . S
N1474 H1480 0.984 . S
N1474 H1481 0.984 . S
N1475 C1468 1.356 . S
N1475 H1478 0.984 . S
N1475 H1479 0.985 . S
H1476 N1471 0.984 . S
H1477 N1471 0.985 . S
H1478 N1475 0.984 . S
H1479 N1475 0.985 . S
H1480 N1474 0.984 . S
H1481 N1474 0.984 . S
H1482 N1470 0.984 . S
H1483 N1470 0.985 . S
C1484 C1485 1.363 . S
C1484 C1490 1.379 . S
C1484 N1492 1.356 . S
C1485 C1484 1.363 . S
C1485 C1491 1.363 . S
C1486 C1487 1.363 . S
C1486 C1491 1.379 . S
C1486 N1493 1.356 . S
C1487 C1486 1.363 . S
C1487 C1490 1.363 . S
N1488 C1490 1.356 . S
N1488 H1500 0.984 . S
N1488 H1501 0.985 . S
N1489 C1491 1.356 . S
N1489 H1494 0.984 . S
N1489 H1495 0.985 . S
C1490 C1484 1.379 . S
C1490 C1487 1.363 . S
C1490 N1488 1.356 . S
C1491 C1485 1.363 . S
C1491 C1486 1.379 . S
C1491 N1489 1.356 . S
N1492 C1484 1.356 . S
N1492 H1498 0.984 . S
N1492 H1499 0.984 . S
N1493 C1486 1.356 . S
N1493 H1496 0.984 . S
N1493 H1497 0.985 . S
H1494 N1489 0.984 . S
H1495 N1489 0.985 . S
H1496 N1493 0.984 . S
H1497 N1493 0.985 . S
H1498 N1492 0.984 . S
H1499 N1492 0.984 . S
H1500 N1488 0.984 . S
H1501 N1488 0.985 . S
C1502 C1503 1.363 . S
C1502 C1508 1.379 . S
C1502 N1510 1.356 . S
C1503 C1502 1.363 . S
C1503 C1509 1.363 . S
C1504 C1505 1.363 . S
C1504 C1509 1.379 . S
C1504 N1511 1.356 . S
C1505 C1504 1.363 . S
C1505 C1508 1.363 . S
N1506 C1508 1.356 . S
N1506 H1518 0.984 . S
N1506 H1519 0.985 . S
N1507 C1509 1.356 . S
N1507 H1512 0.984 . S
N1507 H1513 0.985 . S
C1508 C1502 1.379 . S
C1508 C1505 1.363 . S
C1508 N1506 1.356 . S
C1509 C1503 1.363 . S
C1509 C1504 1.379 . S
C1509 N1507 1.356 . S
N1510 C1502 1.356 . S
N1510 H1516 0.984 . S
N1510 H1517 0.984 . S
N1511 C1504 1.356 . S
N1511 H1514 0.984 . S
N1511 H1515 0.985 . S
H1512 N1507 0.984 . S
H1513 N1507 0.985 . S
H1514 N1511 0.984 . S
H1515 N1511 0.985 . S
H1516 N1510 0.984 . S
H1517 N1510 0.984 . S
H1518 N1506 0.984 . S
H1519 N1506 0.985 . S
C945 C3 1.616 . S
C947 C713 1.619 . S
C963 C772 1.619 . S
C965 C62 1.616 . S
C981 C121 1.616 . S
C983 C831 1.619 . S
C999 C890 1.619 . S
C1001 C180 1.616 . S
C1017 C475 1.616 . S
C1019 C241 1.619 . S
C1035 C300 1.619 . S
C1037 C534 1.616 . S
C1053 C593 1.616 . S
C1055 C359 1.619 . S
C1071 C418 1.619 . S
C1073 C652 1.616 . S
C1089 C33 1.802 . S
C1091 C151 1.802 . S
C1107 C92 1.802 . S
C1109 C210 1.802 . S
C1125 C269 1.650 . S
C1127 C387 1.650 . S
C1143 C328 1.650 . S
C1145 C446 1.650 . S
C1161 C623 1.802 . S
C1163 C505 1.802 . S
C1179 C564 1.802 . S
C1181 C682 1.802 . S
C1197 C859 1.650 . S
C1199 C741 1.650 . S
C1215 C800 1.650 . S
C1217 C918 1.650 . S
C1233 C406 1.662 . S
C1235 C52 1.674 . S
C1251 C465 1.662 . S
C1253 C111 1.674 . S
C1269 C170 1.674 . S
C1271 C288 1.662 . S
C1287 C229 1.674 . S
C1289 C347 1.662 . S
C1305 C878 1.662 . S
C1307 C524 1.674 . S
C1323 C583 1.674 . S
C1325 C937 1.662 . S
C1341 C760 1.662 . S
C1343 C642 1.674 . S
C1359 C701 1.674 . S
C1361 C819 1.662 . S
C1377 C5 1.788 . S
C1379 C182 1.788 . S
C1395 C123 1.788 . S
C1397 C64 1.788 . S
C1413 C239 1.341 . S
C1415 C416 1.341 . S
C1431 C298 1.341 . S
C1433 C357 1.341 . S
C1449 C654 1.788 . S
C1451 C477 1.788 . S
C1467 C536 1.788 . S
C1469 C595 1.788 . S
C1485 C888 1.341 . S
C1487 C711 1.341 . S
C1503 C770 1.341 . S
C1505 C829 1.341 . S
