# Generated by pormake.
# Topology uka, (4)-cn, num edge types: 1
# Building blocks:
#     Node 0, Type 0, BuildingBlock: NAHDIM_clean_sbu_0, # of connection points: 4
#     Node 1, Type 0, BuildingBlock: NAHDIM_clean_sbu_0, # of connection points: 4
#     Node 2, Type 0, BuildingBlock: NAHDIM_clean_sbu_0, # of connection points: 4
#     Node 3, Type 0, BuildingBlock: NAHDIM_clean_sbu_0, # of connection points: 4
#     Node 4, Type 0, BuildingBlock: NAHDIM_clean_sbu_0, # of connection points: 4
#     Node 5, Type 0, BuildingBlock: NAHDIM_clean_sbu_0, # of connection points: 4
#     Node 6, Type 0, BuildingBlock: NAHDIM_clean_sbu_0, # of connection points: 4
#     Node 7, Type 0, BuildingBlock: NAHDIM_clean_sbu_0, # of connection points: 4
#     Node 8, Type 0, BuildingBlock: NAHDIM_clean_sbu_0, # of connection points: 4
#     Node 9, Type 0, BuildingBlock: NAHDIM_clean_sbu_0, # of connection points: 4
#     Node 10, Type 0, BuildingBlock: NAHDIM_clean_sbu_0, # of connection points: 4
#     Node 11, Type 0, BuildingBlock: NAHDIM_clean_sbu_0, # of connection points: 4
#     Node 12, Type 0, BuildingBlock: NAHDIM_clean_sbu_0, # of connection points: 4
#     Node 13, Type 0, BuildingBlock: NAHDIM_clean_sbu_0, # of connection points: 4
#     Node 14, Type 0, BuildingBlock: NAHDIM_clean_sbu_0, # of connection points: 4
#     Node 15, Type 0, BuildingBlock: NAHDIM_clean_sbu_0, # of connection points: 4
#     Node 16, Type 0, BuildingBlock: NAHDIM_clean_sbu_0, # of connection points: 4
#     Node 17, Type 0, BuildingBlock: NAHDIM_clean_sbu_0, # of connection points: 4
#     Node 18, Type 0, BuildingBlock: NAHDIM_clean_sbu_0, # of connection points: 4
#     Node 19, Type 0, BuildingBlock: NAHDIM_clean_sbu_0, # of connection points: 4
#     Node 20, Type 0, BuildingBlock: NAHDIM_clean_sbu_0, # of connection points: 4
#     Node 21, Type 0, BuildingBlock: NAHDIM_clean_sbu_0, # of connection points: 4
#     Node 22, Type 0, BuildingBlock: NAHDIM_clean_sbu_0, # of connection points: 4
#     Node 23, Type 0, BuildingBlock: NAHDIM_clean_sbu_0, # of connection points: 4
#     Node 24, Type 0, BuildingBlock: NAHDIM_clean_sbu_0, # of connection points: 4
#     Node 25, Type 0, BuildingBlock: NAHDIM_clean_sbu_0, # of connection points: 4
#     Node 26, Type 0, BuildingBlock: NAHDIM_clean_sbu_0, # of connection points: 4
#     Node 27, Type 0, BuildingBlock: NAHDIM_clean_sbu_0, # of connection points: 4
#     Node 28, Type 0, BuildingBlock: NAHDIM_clean_sbu_0, # of connection points: 4
#     Node 29, Type 0, BuildingBlock: NAHDIM_clean_sbu_0, # of connection points: 4
#     Node 30, Type 0, BuildingBlock: NAHDIM_clean_sbu_0, # of connection points: 4
#     Node 31, Type 0, BuildingBlock: NAHDIM_clean_sbu_0, # of connection points: 4
#     Edge 32, Type (0, 0), BuildingBlock: KIFKEQ_clean_linker_1, # of connection points: 2
#     Edge 33, Type (0, 0), BuildingBlock: KIFKEQ_clean_linker_1, # of connection points: 2
#     Edge 34, Type (0, 0), BuildingBlock: KIFKEQ_clean_linker_1, # of connection points: 2
#     Edge 35, Type (0, 0), BuildingBlock: KIFKEQ_clean_linker_1, # of connection points: 2
#     Edge 36, Type (0, 0), BuildingBlock: KIFKEQ_clean_linker_1, # of connection points: 2
#     Edge 37, Type (0, 0), BuildingBlock: KIFKEQ_clean_linker_1, # of connection points: 2
#     Edge 38, Type (0, 0), BuildingBlock: KIFKEQ_clean_linker_1, # of connection points: 2
#     Edge 39, Type (0, 0), BuildingBlock: KIFKEQ_clean_linker_1, # of connection points: 2
#     Edge 40, Type (0, 0), BuildingBlock: KIFKEQ_clean_linker_1, # of connection points: 2
#     Edge 41, Type (0, 0), BuildingBlock: KIFKEQ_clean_linker_1, # of connection points: 2
#     Edge 42, Type (0, 0), BuildingBlock: KIFKEQ_clean_linker_1, # of connection points: 2
#     Edge 43, Type (0, 0), BuildingBlock: KIFKEQ_clean_linker_1, # of connection points: 2
#     Edge 44, Type (0, 0), BuildingBlock: KIFKEQ_clean_linker_1, # of connection points: 2
#     Edge 45, Type (0, 0), BuildingBlock: KIFKEQ_clean_linker_1, # of connection points: 2
#     Edge 46, Type (0, 0), BuildingBlock: KIFKEQ_clean_linker_1, # of connection points: 2
#     Edge 47, Type (0, 0), BuildingBlock: KIFKEQ_clean_linker_1, # of connection points: 2
#     Edge 48, Type (0, 0), BuildingBlock: KIFKEQ_clean_linker_1, # of connection points: 2
#     Edge 49, Type (0, 0), BuildingBlock: KIFKEQ_clean_linker_1, # of connection points: 2
#     Edge 50, Type (0, 0), BuildingBlock: KIFKEQ_clean_linker_1, # of connection points: 2
#     Edge 51, Type (0, 0), BuildingBlock: KIFKEQ_clean_linker_1, # of connection points: 2
#     Edge 52, Type (0, 0), BuildingBlock: KIFKEQ_clean_linker_1, # of connection points: 2
#     Edge 53, Type (0, 0), BuildingBlock: KIFKEQ_clean_linker_1, # of connection points: 2
#     Edge 54, Type (0, 0), BuildingBlock: KIFKEQ_clean_linker_1, # of connection points: 2
#     Edge 55, Type (0, 0), BuildingBlock: KIFKEQ_clean_linker_1, # of connection points: 2
#     Edge 56, Type (0, 0), BuildingBlock: KIFKEQ_clean_linker_1, # of connection points: 2
#     Edge 57, Type (0, 0), BuildingBlock: KIFKEQ_clean_linker_1, # of connection points: 2
#     Edge 58, Type (0, 0), BuildingBlock: KIFKEQ_clean_linker_1, # of connection points: 2
#     Edge 59, Type (0, 0), BuildingBlock: KIFKEQ_clean_linker_1, # of connection points: 2
#     Edge 60, Type (0, 0), BuildingBlock: KIFKEQ_clean_linker_1, # of connection points: 2
#     Edge 61, Type (0, 0), BuildingBlock: KIFKEQ_clean_linker_1, # of connection points: 2
#     Edge 62, Type (0, 0), BuildingBlock: KIFKEQ_clean_linker_1, # of connection points: 2
#     Edge 63, Type (0, 0), BuildingBlock: KIFKEQ_clean_linker_1, # of connection points: 2
#     Edge 64, Type (0, 0), BuildingBlock: KIFKEQ_clean_linker_1, # of connection points: 2
#     Edge 65, Type (0, 0), BuildingBlock: KIFKEQ_clean_linker_1, # of connection points: 2
#     Edge 66, Type (0, 0), BuildingBlock: KIFKEQ_clean_linker_1, # of connection points: 2
#     Edge 67, Type (0, 0), BuildingBlock: KIFKEQ_clean_linker_1, # of connection points: 2
#     Edge 68, Type (0, 0), BuildingBlock: KIFKEQ_clean_linker_1, # of connection points: 2
#     Edge 69, Type (0, 0), BuildingBlock: KIFKEQ_clean_linker_1, # of connection points: 2
#     Edge 70, Type (0, 0), BuildingBlock: KIFKEQ_clean_linker_1, # of connection points: 2
#     Edge 71, Type (0, 0), BuildingBlock: KIFKEQ_clean_linker_1, # of connection points: 2
#     Edge 72, Type (0, 0), BuildingBlock: KIFKEQ_clean_linker_1, # of connection points: 2
#     Edge 73, Type (0, 0), BuildingBlock: KIFKEQ_clean_linker_1, # of connection points: 2
#     Edge 74, Type (0, 0), BuildingBlock: KIFKEQ_clean_linker_1, # of connection points: 2
#     Edge 75, Type (0, 0), BuildingBlock: KIFKEQ_clean_linker_1, # of connection points: 2
#     Edge 76, Type (0, 0), BuildingBlock: KIFKEQ_clean_linker_1, # of connection points: 2
#     Edge 77, Type (0, 0), BuildingBlock: KIFKEQ_clean_linker_1, # of connection points: 2
#     Edge 78, Type (0, 0), BuildingBlock: KIFKEQ_clean_linker_1, # of connection points: 2
#     Edge 79, Type (0, 0), BuildingBlock: KIFKEQ_clean_linker_1, # of connection points: 2
#     Edge 80, Type (0, 0), BuildingBlock: KIFKEQ_clean_linker_1, # of connection points: 2
#     Edge 81, Type (0, 0), BuildingBlock: KIFKEQ_clean_linker_1, # of connection points: 2
#     Edge 82, Type (0, 0), BuildingBlock: KIFKEQ_clean_linker_1, # of connection points: 2
#     Edge 83, Type (0, 0), BuildingBlock: KIFKEQ_clean_linker_1, # of connection points: 2
#     Edge 84, Type (0, 0), BuildingBlock: KIFKEQ_clean_linker_1, # of connection points: 2
#     Edge 85, Type (0, 0), BuildingBlock: KIFKEQ_clean_linker_1, # of connection points: 2
#     Edge 86, Type (0, 0), BuildingBlock: KIFKEQ_clean_linker_1, # of connection points: 2
#     Edge 87, Type (0, 0), BuildingBlock: KIFKEQ_clean_linker_1, # of connection points: 2
#     Edge 88, Type (0, 0), BuildingBlock: KIFKEQ_clean_linker_1, # of connection points: 2
#     Edge 89, Type (0, 0), BuildingBlock: KIFKEQ_clean_linker_1, # of connection points: 2
#     Edge 90, Type (0, 0), BuildingBlock: KIFKEQ_clean_linker_1, # of connection points: 2
#     Edge 91, Type (0, 0), BuildingBlock: KIFKEQ_clean_linker_1, # of connection points: 2
#     Edge 92, Type (0, 0), BuildingBlock: KIFKEQ_clean_linker_1, # of connection points: 2
#     Edge 93, Type (0, 0), BuildingBlock: KIFKEQ_clean_linker_1, # of connection points: 2
#     Edge 94, Type (0, 0), BuildingBlock: KIFKEQ_clean_linker_1, # of connection points: 2
#     Edge 95, Type (0, 0), BuildingBlock: KIFKEQ_clean_linker_1, # of connection points: 2
# Relax obj value: 0.247
# Max RMSD: 0.250
# Mean RMSD: 0.250
data_MOF--net-uka--node1-NAHDIM_clean_sbu_0--edge1-KIFKEQ_clean_linker_1
_symmetry_space_group_name_H-M    P1
_symmetry_Int_Tables_number       1
_symmetry_cell_setting            triclinic
loop_
_symmetry_equiv_pos_as_xyz
'x, y, z'
_cell_length_a     61.374521
_cell_length_b     61.355338
_cell_length_c     41.843982
_cell_angle_alpha  89.995359
_cell_angle_beta   90.059215
_cell_angle_gamma 90.08374
loop_
_atom_site_label
_atom_site_type_symbol
_atom_site_fract_x
_atom_site_fract_y
_atom_site_fract_z
_atom_type_partial_charge
C0 C 0.1744 0.29228 0.31185 0.0
O1 O 0.16592 0.2813 0.33577 0.0
O2 O 0.12622 0.26231 0.30519 0.0
Zn3 Zn 0.1299 0.29364 0.29267 0.0
O4 O 0.11641 0.29888 0.24967 0.0
C5 C 0.11209 0.30611 0.35377 0.0
O6 O 0.12072 0.28755 0.36293 0.0
O7 O 0.16184 0.3001 0.29062 0.0
C8 C 0.09718 0.29234 0.24369 0.0
O9 O 0.0863 0.28183 0.26592 0.0
C10 C 0.1288 0.24618 0.28655 0.0
O11 O 0.13371 0.2496 0.25641 0.0
O12 O 0.11464 0.31238 0.32505 0.0
C13 C 0.98662 0.90858 0.47965 0.0
O14 O -0.00273 0.89257 0.46589 0.0
O15 O -0.00092 0.86261 0.52605 0.0
Zn16 Zn 0.9693 0.87259 0.51238 0.0
O17 O 0.95843 0.85481 0.47514 0.0
C18 C 0.9303 0.86131 0.54751 0.0
O19 O 0.92241 0.85756 0.51883 0.0
O20 O 0.97205 0.90402 0.50015 0.0
C21 C 0.9707 0.84224 0.45909 0.0
O22 O 0.99144 0.84082 0.46656 0.0
C23 C 0.01076 0.87551 0.5426 0.0
O24 O 0.00299 0.89476 0.55019 0.0
O25 O 0.94956 0.86866 0.55028 0.0
C26 C 0.3335 0.72007 0.73887 0.0
O27 O 0.34668 0.72808 0.71709 0.0
O28 O 0.38735 0.73324 0.77581 0.0
Zn29 Zn 0.37353 0.70442 0.76456 0.0
O30 O 0.38554 0.69312 0.72301 0.0
C31 C 0.37145 0.68651 0.82783 0.0
O32 O 0.35604 0.70118 0.83095 0.0
O33 O 0.34131 0.70847 0.76122 0.0
C34 C 0.40158 0.68006 0.72218 0.0
O35 O 0.41066 0.67383 0.74911 0.0
C36 C 0.37672 0.74715 0.79204 0.0
O37 O 0.35631 0.7431 0.79934 0.0
O38 O 0.38058 0.6841 0.80079 0.0
C39 C 0.46292 0.09132 0.97587 0.0
O40 O 0.44474 0.10117 0.98386 0.0
O41 O 0.45553 0.14312 0.01015 0.0
Zn42 Zn 0.48217 0.13398 0.98594 0.0
O43 O 0.48728 0.15352 0.94809 0.0
C44 C 0.50439 0.13037 0.04505 0.0
O45 O 0.48578 0.1211 0.05266 0.0
O46 O 0.48041 0.10234 0.97386 0.0
C47 C 0.48963 0.17384 0.95302 0.0
O48 O 0.48805 0.18129 0.98237 0.0
C49 C 0.43799 0.15128 -0.00059 0.0
O50 O 0.43572 0.15444 0.96853 0.0
O51 O 0.50717 0.13718 0.01665 0.0
C52 C 0.16398 0.72685 0.24077 0.0
O53 O 0.15073 0.7342 0.26292 0.0
O54 O 0.11186 0.74209 0.19531 0.0
Zn55 Zn 0.12376 0.71398 0.21227 0.0
O56 O 0.11021 0.70566 0.25431 0.0
C57 C 0.12297 0.69458 0.15067 0.0
O58 O 0.13554 0.71142 0.14451 0.0
O59 O 0.15608 0.71701 0.21669 0.0
C60 C 0.0904 0.70965 0.26089 0.0
O61 O 0.07822 0.71976 0.23976 0.0
C62 C 0.10733 0.75956 0.21013 0.0
O63 O 0.11014 0.76064 0.24122 0.0
O64 O 0.11649 0.6915 0.17916 0.0
C65 C 0.51743 0.93206 0.49484 0.0
O66 O 0.50608 0.92225 0.51725 0.0
O67 O 0.49245 0.88146 0.45538 0.0
Zn68 Zn 0.52198 0.88835 0.47323 0.0
O69 O 0.526 0.87603 0.51743 0.0
C70 C 0.56149 0.86642 0.45359 0.0
O71 O 0.56696 0.86877 0.48376 0.0
O72 O 0.5263 0.92067 0.47315 0.0
C73 C 0.52147 0.85624 0.52348 0.0
O74 O 0.51297 0.84404 0.50086 0.0
C75 C 0.47468 0.8787 0.47039 0.0
O76 O 0.47434 0.88057 0.50166 0.0
O77 O 0.5435 0.87418 0.44382 0.0
C78 C 0.34386 0.22914 0.78176 0.0
O79 O 0.35635 0.21292 0.79091 0.0
O80 O 0.39585 0.21864 0.74171 0.0
Zn81 Zn 0.38401 0.24768 0.75597 0.0
O82 O 0.40207 0.26037 0.79174 0.0
C83 C 0.37219 0.26625 0.69524 0.0
O84 O 0.35495 0.25383 0.6991 0.0
O85 O 0.35238 0.24549 0.76793 0.0
C86 C 0.42127 0.25379 0.79793 0.0
O87 O 0.42956 0.23772 0.78115 0.0
C88 C 0.3846 0.20597 0.72419 0.0
O89 O 0.36414 0.21081 0.7184 0.0
O90 O 0.38647 0.2671 0.71728 0.0
C91 C 0.97377 0.07743 0.99534 0.0
O92 O 0.98821 0.08997 0.00948 0.0
O93 O 0.98406 0.12999 0.96002 0.0
Zn94 Zn 0.95625 0.11879 0.97928 0.0
O95 O 0.95087 0.131 0.02307 0.0
C96 C 0.93325 0.12475 0.92054 0.0
O97 O 0.95031 0.11441 0.9092 0.0
O98 O 0.95779 0.08619 0.98096 0.0
C99 C 0.95156 0.15138 0.02845 0.0
O100 O 0.95679 0.16471 0.0051 0.0
C101 C 0.00102 0.13644 0.97468 0.0
O102 O 0.0013 0.1366 0.00608 0.0
O103 O 0.93188 0.12803 0.95045 0.0
C104 C 0.81281 0.73253 0.75221 0.0
O105 O 0.82561 0.74455 0.77024 0.0
O106 O 0.85963 0.75534 0.71065 0.0
Zn107 Zn 0.85316 0.72415 0.72246 0.0
O108 O 0.86981 0.71389 0.76113 0.0
C109 C 0.86225 0.71314 0.65692 0.0
O110 O 0.85528 0.73306 0.65172 0.0
O111 O 0.82116 0.72141 0.72978 0.0
C112 C 0.89017 0.71035 0.75912 0.0
O113 O 0.90027 0.71429 0.73204 0.0
C114 C 0.87533 0.76718 0.72018 0.0
O115 O 0.88879 0.7597 0.74197 0.0
O116 O 0.86203 0.70558 0.68521 0.0
C117 C 0.04803 0.06065 0.47779 0.0
O118 O 0.0457 0.07244 0.50375 0.0
O119 O 0.03186 0.11546 0.43572 0.0
Zn120 Zn 0.05958 0.10206 0.45215 0.0
O121 O 0.06796 0.11323 0.49585 0.0
C122 C 0.07889 0.11142 0.39162 0.0
O123 O 0.06041 0.10319 0.38127 0.0
O124 O 0.05504 0.06969 0.45248 0.0
C125 C 0.05732 0.12759 0.51113 0.0
O126 O 0.0395 0.13574 0.49852 0.0
C127 C 0.01278 0.11076 0.44532 0.0
O128 O 0.01026 0.09733 0.46948 0.0
O129 O 0.0829 0.11108 0.42142 0.0
C130 C 0.66006 0.207 0.25743 0.0
O131 O 0.6488 0.18998 0.24787 0.0
O132 O 0.61152 0.20811 0.20778 0.0
Zn133 Zn 0.62235 0.23205 0.23638 0.0
O134 O 0.60076 0.23779 0.27147 0.0
C135 C 0.6309 0.25639 0.17991 0.0
O136 O 0.63838 0.23733 0.17076 0.0
O137 O 0.65191 0.22592 0.25471 0.0
C138 C 0.58081 0.24075 0.26458 0.0
O139 O 0.57461 0.23945 0.23456 0.0
C140 C 0.60058 0.19137 0.21558 0.0
O141 O 0.5965 0.18756 0.24588 0.0
O142 O 0.62393 0.25859 0.20833 0.0
C143 C 0.47457 0.92811 0.99054 0.0
O144 O 0.49127 0.91996 0.00615 0.0
O145 O 0.50029 0.88061 0.96499 0.0
Zn146 Zn 0.46888 0.88343 0.97743 0.0
O147 O 0.46269 0.87089 0.02109 0.0
C148 C 0.46024 0.85196 0.92858 0.0
O149 O 0.4805 0.84678 0.93518 0.0
O150 O 0.46156 0.9152 0.9764 0.0
C151 C 0.45999 0.85049 0.02485 0.0
O152 O 0.46215 0.8375 0.00013 0.0
C153 C 0.51627 0.87309 0.98079 0.0
O154 O 0.51339 0.86682 0.01051 0.0
O155 O 0.45124 0.86741 0.94394 0.0
C156 C 0.79895 0.28532 0.75851 0.0
O157 O 0.80808 0.29943 0.73905 0.0
O158 O 0.85503 0.24188 0.77937 0.0
Zn159 Zn 0.84352 0.27207 0.77124 0.0
O160 O 0.85388 0.28299 0.72858 0.0
C161 C 0.85687 0.28564 0.83406 0.0
O162 O 0.8477 0.26714 0.84239 0.0
O163 O 0.8109 0.27232 0.7743 0.0
C164 C 0.87375 0.2802 0.7211 0.0
O165 O 0.88653 0.26955 0.74087 0.0
C166 C 0.8437 0.22708 0.79266 0.0
O167 O 0.8232 0.23101 0.79951 0.0
O168 O 0.85636 0.29149 0.80493 0.0
C169 C 0.51713 0.09614 0.4844 0.0
O170 O 0.5342 0.10761 0.47563 0.0
O171 O 0.52455 0.15217 0.5172 0.0
Zn172 Zn 0.49713 0.13807 0.50075 0.0
O173 O 0.48708 0.15326 0.46081 0.0
C174 C 0.47385 0.13201 0.56006 0.0
O175 O 0.4885 0.11677 0.56481 0.0
O176 O 0.50029 0.10584 0.49472 0.0
C177 C 0.48617 0.14479 0.43314 0.0
O178 O 0.49268 0.12459 0.42906 0.0
C179 C 0.53705 0.14311 0.53745 0.0
O180 O 0.53314 0.12291 0.54617 0.0
O181 O 0.47419 0.14287 0.53419 0.0
C182 C 0.67284 0.71272 0.27498 0.0
O183 O 0.65937 0.71819 0.25192 0.0
O184 O 0.62222 0.72949 0.32757 0.0
Zn185 Zn 0.63295 0.70204 0.30674 0.0
O186 O 0.61783 0.69611 0.26479 0.0
C187 C 0.62537 0.67995 0.36634 0.0
O188 O 0.63119 0.69888 0.37831 0.0
O189 O 0.66521 0.70474 0.30066 0.0
C190 C 0.60114 0.70632 0.25481 0.0
O191 O 0.59314 0.72234 0.27196 0.0
C192 C 0.62542 0.74871 0.3173 0.0
O193 O 0.63563 0.75164 0.29006 0.0
O194 O 0.62587 0.67722 0.33624 0.0
C195 C -0.00209 0.91503 0.98545 0.0
O196 O 0.99128 0.90363 0.9607 0.0
O197 O 0.98332 0.85752 0.01787 0.0
Zn198 Zn 0.01148 0.87301 0.00819 0.0
O199 O 0.02382 0.86297 0.96618 0.0
C200 C 0.02754 0.86486 0.07182 0.0
O201 O 0.00807 0.87171 0.08009 0.0
O202 O 0.00725 0.90535 0.0085 0.0
C203 C 0.01999 0.84386 0.95587 0.0
O204 O 0.00707 0.83097 0.97231 0.0
C205 C 0.96715 0.8668 0.03102 0.0
O206 O 0.96809 0.8878 0.03698 0.0
O207 O 0.03276 0.86467 0.04244 0.0
C208 C 0.65035 0.75255 0.7636 0.0
O209 O 0.6366 0.73615 0.76251 0.0
O210 O 0.59595 0.75344 0.79343 0.0
Zn211 Zn 0.61149 0.77868 0.77299 0.0
O212 O 0.59793 0.7882 0.73151 0.0
C213 C 0.61379 0.79814 0.83378 0.0
O214 O 0.6208 0.77844 0.84049 0.0
O215 O 0.64314 0.77179 0.76717 0.0
C216 C 0.57749 0.78794 0.72655 0.0
O217 O 0.56444 0.78045 0.74889 0.0
C218 C 0.58735 0.73632 0.78192 0.0
O219 O 0.58769 0.73293 0.75092 0.0
O220 O 0.60928 0.8029 0.80495 0.0
C221 C 0.52595 0.41291 0.01985 0.0
O222 O 0.54063 0.40395 0.03855 0.0
O223 O 0.53718 0.35717 0.03494 0.0
Zn224 Zn 0.51036 0.36861 0.01336 0.0
O225 O 0.50354 0.35254 0.97268 0.0
C226 C 0.48933 0.36564 0.07389 0.0
O227 O 0.50835 0.373 0.08349 0.0
O228 O 0.512 0.40086 0.00596 0.0
C229 C 0.50323 0.33182 0.97236 0.0
O230 O 0.50877 0.32116 -0.00164 0.0
C231 C 0.55536 0.35084 0.02393 0.0
O232 O 0.55896 0.35147 0.993 0.0
O233 O 0.48594 0.36296 0.04417 0.0
C234 C 0.81867 0.20328 0.31274 0.0
O235 O 0.8268 0.21448 0.33673 0.0
O236 O 0.8666 0.23511 0.30662 0.0
Zn237 Zn 0.86302 0.20438 0.29119 0.0
O238 O 0.87498 0.20051 0.2469 0.0
C239 C 0.88945 0.1682 0.31196 0.0
O240 O 0.88747 0.1622 0.28196 0.0
O241 O 0.83132 0.19671 0.29077 0.0
C242 C 0.89403 0.20644 0.23877 0.0
O243 O 0.90643 0.21661 0.25961 0.0
C244 C 0.86658 0.25237 0.28984 0.0
O245 O 0.86412 0.251 0.25871 0.0
O246 O 0.87965 0.18521 0.32153 0.0
C247 C -0.00294 0.58443 0.49864 0.0
O248 O 0.98484 0.59871 0.48364 0.0
O249 O 0.98907 0.63635 0.53151 0.0
Zn250 Zn 0.01742 0.62353 0.5171 0.0
O251 O 0.02713 0.63548 0.47472 0.0
C252 C 0.05845 0.63697 0.54722 0.0
O253 O 0.06674 0.63596 0.51832 0.0
O254 O 0.01334 0.59115 0.51463 0.0
C255 C 0.02773 0.65584 0.46921 0.0
O256 O 0.02139 0.66947 0.49154 0.0
C257 C 0.97371 0.64521 0.51586 0.0
O258 O 0.97523 0.64722 0.48468 0.0
O259 O 0.03869 0.63158 0.55155 0.0
C260 C 0.63592 0.26739 0.76112 0.0
O261 O 0.62777 0.2476 0.76257 0.0
O262 O 0.58058 0.30047 0.71394 0.0
Zn263 Zn 0.59257 0.27644 0.74143 0.0
O264 O 0.57379 0.26972 0.7797 0.0
C265 C 0.60181 0.25004 0.68645 0.0
O266 O 0.61225 0.26768 0.67733 0.0
O267 O 0.62347 0.28312 0.75364 0.0
C268 C 0.55575 0.26011 0.77454 0.0
O269 O 0.54979 0.25634 0.74487 0.0
C270 C 0.56271 0.3105 0.71808 0.0
O271 O 0.5511 0.30657 0.74379 0.0
O272 O 0.59257 0.2498 0.71361 0.0
C273 C 0.01406 0.40207 0.99548 0.0
O274 O 0.00775 0.39289 0.0223 0.0
O275 O 0.98968 0.34588 0.96907 0.0
Zn276 Zn 0.01995 0.35756 0.97719 0.0
O277 O 0.03056 0.34924 0.02088 0.0
C278 C 0.03523 0.34639 0.91488 0.0
O279 O 0.01804 0.35775 0.90641 0.0
O280 O 0.0204 0.39007 0.97259 0.0
C281 C 0.02859 0.32997 0.03158 0.0
O282 O 0.01897 0.31512 0.01384 0.0
C283 C 0.97399 0.35802 0.96033 0.0
O284 O 0.97711 0.37913 0.95807 0.0
O285 O 0.03969 0.34437 0.94439 0.0
C286 C 0.83306 0.7471 0.25802 0.0
O287 O 0.84379 0.75525 0.28244 0.0
O288 O 0.88745 0.71883 0.20884 0.0
Zn289 Zn 0.87535 0.74673 0.22661 0.0
O290 O 0.88999 0.75557 0.26781 0.0
C291 C 0.87834 0.76693 0.16448 0.0
O292 O 0.87145 0.74779 0.15461 0.0
O293 O 0.84323 0.74264 0.23243 0.0
C294 C 0.90754 0.76659 0.26652 0.0
O295 O 0.91606 0.77104 0.23847 0.0
C296 C 0.90675 0.71193 0.21295 0.0
O297 O 0.92017 0.72294 0.23135 0.0
O298 O 0.88056 0.7703 0.19426 0.0
C299 C 0.45867 0.54818 0.43209 0.0
O300 O 0.47002 0.55814 0.40984 0.0
O301 O 0.49144 0.59518 0.45056 0.0
Zn302 Zn 0.45974 0.59061 0.4603 0.0
O303 O 0.4528 0.60135 0.5045 0.0
C304 C 0.45047 0.6132 0.40151 0.0
O305 O 0.46978 0.60572 0.39371 0.0
O306 O 0.45227 0.55893 0.45626 0.0
C307 C 0.45222 0.62178 0.50944 0.0
O308 O 0.45656 0.63511 0.4857 0.0
C309 C 0.5067 0.5988 0.4704 0.0
O310 O 0.50241 0.59905 0.50115 0.0
O311 O 0.44244 0.60827 0.42857 0.0
C312 C 0.33027 0.27093 0.24972 0.0
O313 O 0.3427 0.28646 0.23811 0.0
O314 O 0.3812 0.26732 0.20965 0.0
Zn315 Zn 0.36596 0.2425 0.23137 0.0
O316 O 0.38493 0.23042 0.26615 0.0
C317 C 0.3564 0.22584 0.1697 0.0
O318 O 0.35095 0.24632 0.16527 0.0
O319 O 0.33693 0.25133 0.24913 0.0
C320 C 0.40312 0.22183 0.25899 0.0
O321 O 0.40922 0.22137 0.22891 0.0
C322 C 0.3928 0.28206 0.22249 0.0
O323 O 0.39513 0.28246 0.2537 0.0
O324 O 0.36218 0.2197 0.19745 0.0
C325 C 0.50549 0.57566 0.0194 0.0
O326 O 0.4868 0.58358 0.02932 0.0
O327 O 0.48204 0.62496 -0.00243 0.0
Zn328 Zn 0.51369 0.62071 0.00837 0.0
O329 O 0.52215 0.63415 0.05054 0.0
C330 C 0.52409 0.63305 0.94426 0.0
O331 O 0.50651 0.62151 0.93823 0.0
O332 O 0.52006 0.58868 0.00937 0.0
C333 C 0.5291 0.65364 0.05244 0.0
O334 O 0.52991 0.66565 0.02647 0.0
C335 C 0.47266 0.64337 -0.00115 0.0
O336 O 0.48327 0.6601 0.0108 0.0
O337 O 0.53084 0.6346 0.97291 0.0
C338 C 0.17582 0.76544 0.74285 0.0
O339 O 0.16114 0.75254 0.75567 0.0
O340 O 0.12706 0.75791 0.69748 0.0
Zn341 Zn 0.13731 0.78467 0.72076 0.0
O342 O 0.12175 0.78889 0.76247 0.0
C343 C 0.13237 0.80838 0.66255 0.0
O344 O 0.14253 0.79128 0.65096 0.0
O345 O 0.16952 0.78192 0.727 0.0
C346 C 0.10105 0.78923 0.76251 0.0
O347 O 0.09055 0.78557 0.73566 0.0
C348 C 0.11935 0.74033 0.70886 0.0
O349 O 0.1169 0.73826 0.7399 0.0
O350 O 0.1297 0.80987 0.69257 0.0
C351 C 0.95427 0.42575 0.50339 0.0
O352 O 0.961 0.41322 0.52685 0.0
O353 O 0.97066 0.37301 0.46164 0.0
Zn354 Zn 0.94205 0.38469 0.47712 0.0
O355 O 0.93372 0.37164 0.51945 0.0
C356 C 0.92424 0.37628 0.41517 0.0
O357 O 0.94293 0.38473 0.40616 0.0
O358 O 0.94469 0.41714 0.4796 0.0
C359 C 0.93516 0.35114 0.52322 0.0
O360 O 0.94285 0.33918 0.49975 0.0
C361 C 0.98769 0.36932 0.47802 0.0
O362 O 0.98747 0.37271 0.50901 0.0
O363 O 0.91966 0.37569 0.44477 0.0
C364 C 0.32499 0.75855 0.25397 0.0
O365 O 0.33927 0.74448 0.24307 0.0
O366 O 0.37649 0.75234 0.29222 0.0
Zn367 Zn 0.3639 0.77982 0.27381 0.0
O368 O 0.37834 0.78727 0.23206 0.0
C369 C 0.36819 0.80011 0.33509 0.0
O370 O 0.36126 0.78093 0.34473 0.0
O371 O 0.33174 0.77569 0.26786 0.0
C372 C 0.39716 0.79596 0.23238 0.0
O373 O 0.40677 0.79952 0.25997 0.0
C374 C 0.38614 0.73752 0.27648 0.0
O375 O 0.38855 0.7397 0.24545 0.0
O376 O 0.36972 0.80382 0.3053 0.0
C377 C -0.00124 0.56449 0.96834 0.0
O378 O 0.01455 0.57602 0.95551 0.0
O379 O 0.01424 0.61558 -0.0028 0.0
Zn380 Zn 0.98382 0.60685 0.98451 0.0
O381 O 0.9732 0.62086 0.94391 0.0
C382 C 0.97003 0.61245 0.04899 0.0
O383 O 0.98753 0.60069 0.05432 0.0
O384 O 0.98294 0.57432 0.98151 0.0
C385 C 0.96982 0.64129 0.94322 0.0
O386 O 0.9744 0.65307 0.96858 0.0
C387 C 0.0266 0.63025 0.9858 0.0
O388 O 0.02019 0.64167 0.96096 0.0
O389 O 0.96456 0.61662 0.02034 0.0
C390 C 0.18126 0.21287 0.75905 0.0
O391 O 0.17135 0.22437 0.73689 0.0
O392 O 0.12704 0.23204 0.77953 0.0
Zn393 Zn 0.13746 0.20132 0.77259 0.0
O394 O 0.12815 0.19017 0.72919 0.0
C395 C 0.12223 0.19108 0.83521 0.0
O396 O 0.13142 0.20996 0.84149 0.0
O397 O 0.16995 0.20089 0.7774 0.0
C398 C 0.11042 0.17957 0.72631 0.0
O399 O 0.09854 0.17582 0.75183 0.0
C400 C 0.10716 0.23697 0.77519 0.0
O401 O 0.09389 0.22228 0.76319 0.0
O402 O 0.12363 0.18332 0.80713 0.0
C403 C 0.44566 0.3857 0.44477 0.0
O404 O 0.4279 0.37609 0.45521 0.0
O405 O 0.43899 0.3358 0.48477 0.0
Zn406 Zn 0.46623 0.34475 0.46158 0.0
O407 O 0.47556 0.32403 0.42683 0.0
C408 C 0.48563 0.35703 0.5203 0.0
O409 O 0.46805 0.36921 0.52115 0.0
O410 O 0.46348 0.37518 0.44445 0.0
C411 C 0.48645 0.30708 0.43393 0.0
O412 O 0.49019 0.30266 0.46417 0.0
C413 C 0.43183 0.31646 0.48737 0.0
O414 O 0.44094 0.30083 0.47063 0.0
O415 O 0.48913 0.34529 0.49581 0.0
H416 H 0.11772 0.13109 0.40547 0.0
H417 H 0.06984 0.12404 0.33033 0.0
H418 H 0.13452 0.16111 0.37637 0.0
H419 H 0.08645 0.15431 0.30156 0.0
H420 H 0.1252 0.20802 0.25269 0.0
H421 H 0.11821 0.17149 0.27413 0.0
H422 H 0.11894 0.19776 0.36992 0.0
H423 H 0.12601 0.23387 0.34877 0.0
C424 C 0.11107 0.13561 0.38242 0.0
C425 C 0.09214 0.12552 0.37055 0.0
C426 C 0.12064 0.15286 0.36582 0.0
C427 C 0.11149 0.16037 0.33707 0.0
C428 C 0.09388 0.1489 0.32367 0.0
C429 C 0.08431 0.13158 0.34025 0.0
C430 C 0.12411 0.20588 0.27833 0.0
C431 C 0.12597 0.22383 0.29903 0.0
C432 C 0.12008 0.18501 0.29056 0.0
C433 C 0.11815 0.18174 0.3237 0.0
C434 C 0.12073 0.19963 0.34432 0.0
C435 C 0.12454 0.22041 0.33215 0.0
H436 H 0.03994 0.89946 0.57727 0.0
H437 H 0.03009 0.83571 0.5357 0.0
H438 H 0.07371 0.88687 0.60178 0.0
H439 H 0.06353 0.82301 0.56076 0.0
H440 H 0.10753 0.84346 0.67913 0.0
H441 H 0.0813 0.86236 0.6457 0.0
H442 H 0.10303 0.82554 0.56371 0.0
H443 H 0.12905 0.80618 0.59741 0.0
C444 C 0.04505 0.8828 0.57316 0.0
C445 C 0.0322 0.86848 0.55489 0.0
C446 C 0.06438 0.8756 0.58725 0.0
C447 C 0.07124 0.85392 0.5834 0.0
C448 C 0.05887 0.8399 0.5639 0.0
C449 C 0.03958 0.84712 0.54975 0.0
C450 C 0.10706 0.83969 0.65385 0.0
C451 C 0.12011 0.82304 0.64105 0.0
C452 C 0.09208 0.85064 0.6346 0.0
C453 C 0.08985 0.84523 0.60212 0.0
C454 C 0.10408 0.82976 0.5888 0.0
C455 C 0.11909 0.81879 0.60807 0.0
H456 H 0.41915 0.8596 0.90532 0.0
H457 H 0.4736 0.81532 0.89774 0.0
H458 H 0.39868 0.83734 0.8673 0.0
H459 H 0.45303 0.79281 0.86084 0.0
H460 H 0.41798 0.7619 0.77981 0.0
H461 H 0.43792 0.79014 0.8086 0.0
H462 H 0.38106 0.80262 0.86665 0.0
H463 H 0.36097 0.77504 0.83715 0.0
C464 C 0.42675 0.84515 0.89553 0.0
C465 C 0.44795 0.83917 0.90466 0.0
C466 C 0.41501 0.83235 0.87383 0.0
C467 C 0.42419 0.81326 0.86099 0.0
C468 C 0.44556 0.80759 0.86973 0.0
C469 C 0.45731 0.82043 0.89118 0.0
C470 C 0.40966 0.77093 0.79837 0.0
C471 C 0.38798 0.76607 0.80643 0.0
C472 C 0.42111 0.78702 0.81502 0.0
C473 C 0.4112 0.79845 0.84026 0.0
C474 C 0.38917 0.79431 0.84718 0.0
C475 C 0.37767 0.77837 0.83036 0.0
H476 H 0.36361 0.1819 0.16985 0.0
H477 H 0.35872 0.23749 0.10686 0.0
H478 H 0.37787 0.16008 0.12595 0.0
H479 H 0.37379 0.21603 0.06343 0.0
H480 H 0.39936 0.17223 0.98672 0.0
H481 H 0.37338 0.18662 0.02566 0.0
H482 H 0.41298 0.16095 0.10242 0.0
H483 H 0.43826 0.14616 0.06392 0.0
C484 C 0.36524 0.18936 0.1465 0.0
C485 C 0.36044 0.21151 0.14196 0.0
C486 C 0.37353 0.1769 0.12138 0.0
C487 C 0.37748 0.18643 0.09134 0.0
C488 C 0.37091 0.20809 0.08615 0.0
C489 C 0.36236 0.22047 0.11118 0.0
C490 C 0.40227 0.1694 0.01192 0.0
C491 C 0.421 0.15827 0.02223 0.0
C492 C 0.38743 0.17769 0.03422 0.0
C493 C 0.39108 0.175 0.06721 0.0
C494 C 0.40936 0.16304 0.07727 0.0
C495 C 0.42406 0.15475 0.0551 0.0
H496 H 0.10421 0.76344 0.14564 0.0
H497 H 0.08992 0.79764 0.23346 0.0
H498 H 0.08741 0.79246 0.11518 0.0
H499 H 0.07321 0.82717 0.20254 0.0
H500 H 0.01811 0.85403 0.13373 0.0
H501 H 0.03997 0.83157 0.16958 0.0
H502 H 0.09179 0.83035 0.09981 0.0
H503 H 0.06979 0.85233 0.06368 0.0
C504 C 0.09767 0.77729 0.15848 0.0
C505 C 0.09829 0.77816 0.19202 0.0
C506 C 0.08821 0.79407 0.14094 0.0
C507 C 0.07909 0.8122 0.15642 0.0
C508 C 0.08003 0.81334 0.18998 0.0
C509 C 0.08964 0.7965 0.20764 0.0
C510 C 0.03432 0.8493 0.12628 0.0
C511 C 0.04207 0.8546 0.09564 0.0
C512 C 0.04689 0.83652 0.14691 0.0
C513 C 0.06746 0.82891 0.13731 0.0
C514 C 0.0758 0.83558 0.1076 0.0
C515 C 0.06322 0.84823 0.08695 0.0
H516 H 0.377 0.79334 0.39834 0.0
H517 H 0.38101 0.84207 0.324 0.0
H518 H 0.39906 0.81623 0.43318 0.0
H519 H 0.4025 0.86529 0.35924 0.0
H520 H 0.46974 0.8769 0.40588 0.0
H521 H 0.43969 0.86154 0.3759 0.0
H522 H 0.4048 0.84944 0.46381 0.0
H523 H 0.43541 0.86452 0.4942 0.0
C524 C 0.38208 0.8092 0.38973 0.0
C525 C 0.37764 0.81571 0.35819 0.0
C526 C 0.39464 0.8224 0.40981 0.0
C527 C 0.40286 0.84244 0.3988 0.0
C528 C 0.39684 0.84971 0.36817 0.0
C529 C 0.38445 0.83645 0.34802 0.0
C530 C 0.45559 0.87121 0.41892 0.0
C531 C 0.45509 0.8717 0.45248 0.0
C532 C 0.4382 0.86259 0.40164 0.0
C533 C 0.41979 0.85425 0.41743 0.0
C534 C 0.41885 0.85556 0.45097 0.0
C535 C 0.43633 0.86427 0.46835 0.0
H536 H 0.36714 0.18109 0.67647 0.0
H537 H 0.42686 0.19222 0.72893 0.0
H538 H 0.38687 0.15839 0.63849 0.0
H539 H 0.44653 0.16957 0.6908 0.0
H540 H 0.47479 0.11962 0.62286 0.0
H541 H 0.45113 0.13244 0.66593 0.0
H542 H 0.41432 0.17041 0.59784 0.0
H543 H 0.43782 0.15768 0.55493 0.0
C544 C 0.38436 0.17833 0.68034 0.0
C545 C 0.39551 0.18875 0.70542 0.0
C546 C 0.39566 0.16539 0.65848 0.0
C547 C 0.41826 0.16248 0.66146 0.0
C548 C 0.42909 0.17147 0.68798 0.0
C549 C 0.41783 0.18453 0.70973 0.0
C550 C 0.46144 0.13045 0.61704 0.0
C551 C 0.45826 0.1378 0.58555 0.0
C552 C 0.44797 0.13781 0.64171 0.0
C553 C 0.43091 0.15241 0.63522 0.0
C554 C 0.42717 0.15896 0.60351 0.0
C555 C 0.44075 0.1518 0.57896 0.0
H556 H 0.10088 0.15217 0.82986 0.0
H557 H 0.11072 0.20645 0.89415 0.0
H558 H 0.07344 0.13732 0.8658 0.0
H559 H 0.08289 0.19181 0.92974 0.0
H560 H 0.04047 0.15098 -0.00276 0.0
H561 H 0.07221 0.16206 0.96583 0.0
H562 H 0.03663 0.14867 0.87884 0.0
H563 H 0.00528 0.13732 0.90994 0.0
C564 C 0.09736 0.16082 0.85182 0.0
C565 C 0.10782 0.18061 0.85899 0.0
C566 C 0.08153 0.15237 0.87232 0.0
C567 C 0.07577 0.16356 0.90038 0.0
C568 C 0.08704 0.18274 0.9084 0.0
C569 C 0.10293 0.19118 0.88791 0.0
C570 C 0.03949 0.15035 0.97142 0.0
C571 C 0.02035 0.14327 0.95611 0.0
C572 C 0.05764 0.15674 0.95345 0.0
C573 C 0.05699 0.15609 0.91986 0.0
C574 C 0.03784 0.14896 0.90467 0.0
C575 C 0.01977 0.14262 0.92255 0.0
H576 H 0.94035 0.86897 0.61026 0.0
H577 H 0.89361 0.83622 0.54964 0.0
H578 H 0.92417 0.85171 0.65709 0.0
H579 H 0.87805 0.81836 0.59601 0.0
H580 H 0.84821 0.79099 0.68216 0.0
H581 H 0.85851 0.81942 0.64443 0.0
H582 H 0.92501 0.81596 0.67829 0.0
H583 H 0.91445 0.78829 0.71685 0.0
C584 C 0.92646 0.85828 0.60697 0.0
C585 C 0.91843 0.85374 0.5762 0.0
C586 C 0.91727 0.84829 0.6338 0.0
C587 C 0.89998 0.83339 0.6304 0.0
C588 C 0.89116 0.82991 0.59974 0.0
C589 C 0.9002 0.84006 0.57299 0.0
C590 C 0.86492 0.79671 0.68202 0.0
C591 C 0.8806 0.7872 0.70214 0.0
C592 C 0.87087 0.8129 0.66024 0.0
C593 C 0.89269 0.81971 0.65778 0.0
C594 C 0.90802 0.81129 0.67958 0.0
C595 C 0.902 0.79531 0.70167 0.0
H596 H 0.01263 0.1304 0.38698 0.0
H597 H 0.96981 0.10947 0.46304 0.0
H598 H 0.98127 0.14233 0.35598 0.0
H599 H 0.93829 0.12167 0.43179 0.0
H600 H 0.89457 0.17346 0.37647 0.0
H601 H 0.92348 0.15845 0.41012 0.0
H602 H 0.94897 0.12327 0.32905 0.0
H603 H 0.92011 0.13811 0.2954 0.0
C604 C -0.00347 0.12846 0.39719 0.0
C605 C -0.00631 0.11898 0.42749 0.0
C606 C 0.97857 0.13513 0.37929 0.0
C607 C 0.95739 0.13272 0.3914 0.0
C608 C 0.95449 0.12368 0.42196 0.0
C609 C 0.97249 0.1167 0.43976 0.0
C610 C 0.90617 0.16229 0.36593 0.0
C611 C 0.90516 0.1571 0.33322 0.0
C612 C 0.92264 0.15365 0.38523 0.0
C613 C 0.93853 0.1399 0.37205 0.0
C614 C 0.93704 0.13406 0.33967 0.0
C615 C 0.92044 0.14247 0.32048 0.0
H616 H 0.4989 0.12924 0.10963 0.0
H617 H 0.5472 0.14121 0.03669 0.0
H618 H 0.52469 0.14048 0.15051 0.0
H619 H 0.57351 0.15143 0.07774 0.0
H620 H 0.57718 0.15345 0.22189 0.0
H621 H 0.55669 0.13443 0.18029 0.0
H622 H 0.57904 0.18159 0.11079 0.0
H623 H 0.60011 0.19978 0.15172 0.0
C624 C 0.51522 0.13383 0.10239 0.0
C625 C 0.52094 0.13465 0.06993 0.0
C626 C 0.53012 0.14012 0.1259 0.0
C627 C 0.55121 0.14708 0.11752 0.0
C628 C 0.55727 0.14668 0.08507 0.0
C629 C 0.54224 0.14072 0.06152 0.0
C630 C 0.57797 0.15948 0.19759 0.0
C631 C 0.59013 0.17822 0.19019 0.0
C632 C 0.56611 0.14868 0.17376 0.0
C633 C 0.566 0.15654 0.14213 0.0
C634 C 0.57893 0.17478 0.13465 0.0
C635 C 0.59093 0.18537 0.15831 0.0
H636 H 0.55295 0.8525 0.00346 0.0
H637 H 0.52569 0.88223 0.91878 0.0
H638 H 0.58341 0.8388 0.97176 0.0
H639 H 0.55511 0.86784 0.88715 0.0
H640 H 0.608 0.84221 0.83058 0.0
H641 H 0.59107 0.86541 0.87078 0.0
H642 H 0.58682 0.81024 0.93489 0.0
H643 H 0.60489 0.78762 0.89554 0.0
C644 C 0.55361 0.85638 0.97823 0.0
C645 C 0.53669 0.8681 0.96355 0.0
C646 C 0.57099 0.84842 0.95999 0.0
C647 C 0.57164 0.85187 0.92671 0.0
C648 C 0.55547 0.86497 0.91267 0.0
C649 C 0.53833 0.87308 0.93087 0.0
C650 C 0.60392 0.83526 0.85361 0.0
C651 C 0.60738 0.81305 0.85975 0.0
C652 C 0.5941 0.84849 0.87662 0.0
C653 C 0.58703 0.83963 0.90589 0.0
C654 C 0.59212 0.81778 0.91284 0.0
C655 C 0.60236 0.80469 0.8901 0.0
H656 H 0.82604 0.19505 0.83008 0.0
H657 H 0.8859 0.21445 0.78366 0.0
H658 H 0.84543 0.1658 0.85748 0.0
H659 H 0.90525 0.1855 0.81137 0.0
H660 H 0.93423 0.12572 0.85518 0.0
H661 H 0.91021 0.14618 0.81964 0.0
H662 H 0.87231 0.16711 0.90095 0.0
H663 H 0.89602 0.14649 0.93635 0.0
C664 C 0.84324 0.19287 0.8253 0.0
C665 C 0.8545 0.20726 0.80503 0.0
C666 C 0.85436 0.17618 0.84112 0.0
C667 C 0.87691 0.1735 0.83686 0.0
C668 C 0.88785 0.18701 0.815 0.0
C669 C 0.87677 0.20372 0.79926 0.0
C670 C 0.92055 0.13439 0.8654 0.0
C671 C 0.91718 0.1347 0.89862 0.0
C672 C 0.90686 0.14617 0.84504 0.0
C673 C 0.88946 0.15837 0.8575 0.0
C674 C 0.88542 0.15769 0.89054 0.0
C675 C 0.89914 0.14601 0.91088 0.0
H676 H 0.58166 0.21121 0.69835 0.0
H677 H 0.6143 0.24743 0.62378 0.0
H678 H 0.57152 0.18335 0.65982 0.0
H679 H 0.60438 0.21925 0.5852 0.0
H680 H 0.54827 0.18556 0.52658 0.0
H681 H 0.56925 0.20929 0.56153 0.0
H682 H 0.58347 0.15467 0.62324 0.0
H683 H 0.56212 0.13088 0.58849 0.0
C684 C 0.58704 0.21303 0.67384 0.0
C685 C 0.59853 0.23169 0.66404 0.0
C686 C 0.58137 0.19694 0.65177 0.0
C687 C 0.58704 0.19915 0.61939 0.0
C688 C 0.59956 0.21723 0.60992 0.0
C689 C 0.6053 0.23332 0.63205 0.0
C690 C 0.55622 0.17849 0.54725 0.0
C691 C 0.55321 0.1564 0.55505 0.0
C692 C 0.56838 0.19209 0.5672 0.0
C693 C 0.57781 0.18391 0.59537 0.0
C694 C 0.5761 0.1615 0.60196 0.0
C695 C 0.56395 0.14787 0.58195 0.0
H696 H 0.62333 0.79165 0.29943 0.0
H697 H 0.61109 0.74824 0.37882 0.0
H698 H 0.61079 0.82246 0.33173 0.0
H699 H 0.59866 0.77888 0.41079 0.0
H700 H 0.59556 0.83999 0.46967 0.0
H701 H 0.61351 0.8131 0.43578 0.0
H702 H 0.57455 0.83393 0.35544 0.0
H703 H 0.55661 0.86088 0.3892 0.0
C704 C 0.61806 0.7887 0.32374 0.0
C705 C 0.61811 0.76751 0.33653 0.0
C706 C 0.61087 0.80631 0.34216 0.0
C707 C 0.60391 0.80305 0.37379 0.0
C708 C 0.60425 0.78192 0.38664 0.0
C709 C 0.61118 0.76434 0.36819 0.0
C710 C 0.59107 0.8391 0.44467 0.0
C711 C 0.5745 0.85239 0.4322 0.0
C712 C 0.60127 0.82363 0.42533 0.0
C713 C 0.59525 0.82131 0.3931 0.0
C714 C 0.57958 0.83544 0.38017 0.0
C715 C 0.56924 0.85078 0.39956 0.0
H716 H 0.88067 0.76343 0.09933 0.0
H717 H 0.8935 0.80782 0.17735 0.0
H718 H 0.89761 0.78905 0.0622 0.0
H719 H 0.91068 0.83312 0.14046 0.0
H720 H 0.93243 0.88047 0.06674 0.0
H721 H 0.9062 0.85768 0.0951 0.0
H722 H 0.93542 0.80015 0.05395 0.0
H723 H 0.96131 0.82285 0.02519 0.0
C724 C 0.88683 0.77876 0.1085 0.0
C725 C 0.88596 0.78349 0.14134 0.0
C726 C 0.89661 0.79338 0.08724 0.0
C727 C 0.90562 0.81304 0.0984 0.0
C728 C 0.90369 0.81824 0.13099 0.0
C729 C 0.89398 0.80363 0.15221 0.0
C730 C 0.93298 0.86298 0.06326 0.0
C731 C 0.94915 0.85345 0.04406 0.0
C732 C 0.91802 0.84993 0.07963 0.0
C733 C 0.91888 0.8271 0.07707 0.0
C734 C 0.93418 0.81768 0.05627 0.0
C735 C 0.94914 0.83071 0.03993 0.0
H736 H 0.56189 0.6564 0.94786 0.0
H737 H 0.51034 0.63835 0.88252 0.0
H738 H 0.57779 0.67973 0.90703 0.0
H739 H 0.526 0.66219 0.84186 0.0
H740 H 0.57131 0.69547 0.7682 0.0
H741 H 0.55713 0.66857 0.80615 0.0
H742 H 0.56755 0.7141 0.88346 0.0
H743 H 0.58198 0.74056 0.84608 0.0
C744 C 0.554 0.65734 0.92474 0.0
C745 C 0.53475 0.64567 0.91854 0.0
C746 C 0.56305 0.67081 0.90138 0.0
C747 C 0.55299 0.67304 0.87134 0.0
C748 C 0.53421 0.66072 0.86469 0.0
C749 C 0.52519 0.64715 0.88805 0.0
C750 C 0.57053 0.69968 0.7933 0.0
C751 C 0.57788 0.7201 0.80411 0.0
C752 C 0.56237 0.68431 0.81501 0.0
C753 C 0.56146 0.68911 0.84787 0.0
C754 C 0.5685 0.70967 0.85845 0.0
C755 C 0.57663 0.72493 0.8369 0.0
H756 H 0.6218 0.29929 0.191 0.0
H757 H 0.63074 0.25255 0.11497 0.0
H758 H 0.60897 0.32605 0.1523 0.0
H759 H 0.61699 0.27884 0.07652 0.0
H760 H 0.59464 0.33142 0.00999 0.0
H761 H 0.6187 0.31221 0.04718 0.0
H762 H 0.57548 0.32862 0.12506 0.0
H763 H 0.55218 0.34821 0.08856 0.0
C764 C 0.62127 0.29483 0.16596 0.0
C765 C 0.62693 0.27372 0.1561 0.0
C766 C 0.61381 0.31011 0.14378 0.0
C767 C 0.61147 0.30447 0.11134 0.0
C768 C 0.61867 0.28385 0.10121 0.0
C769 C 0.62645 0.26868 0.12334 0.0
C770 C 0.59055 0.3312 0.03516 0.0
C771 C 0.57138 0.34113 0.04622 0.0
C772 C 0.60427 0.32012 0.05645 0.0
C773 C 0.59903 0.31877 0.08916 0.0
C774 C 0.58033 0.32957 0.10023 0.0
C775 C 0.56676 0.34065 0.07911 0.0
H776 H 0.87505 0.29198 0.26182 0.0
H777 H 0.86693 0.26071 0.35361 0.0
H778 H 0.8845 0.32613 0.28884 0.0
H779 H 0.87662 0.29439 0.3803 0.0
H780 H 0.88415 0.35817 0.42526 0.0
H781 H 0.8657 0.33148 0.39164 0.0
H782 H 0.91597 0.33863 0.32019 0.0
H783 H 0.93412 0.36573 0.35339 0.0
C784 C 0.87505 0.29245 0.28769 0.0
C785 C 0.87044 0.2736 0.30557 0.0
C786 C 0.88052 0.31196 0.30314 0.0
C787 C 0.88128 0.31299 0.33671 0.0
C788 C 0.87585 0.29431 0.35444 0.0
C789 C 0.87051 0.27489 0.33909 0.0
C790 C 0.891 0.35442 0.40205 0.0
C791 C 0.91082 0.36375 0.39225 0.0
C792 C 0.88048 0.33906 0.38286 0.0
C793 C 0.88961 0.3326 0.35356 0.0
C794 C 0.90846 0.34328 0.34258 0.0
C795 C 0.91893 0.35875 0.36172 0.0
H796 H 0.87356 0.67019 0.65701 0.0
H797 H 0.8763 0.72847 0.59915 0.0
H798 H 0.8971 0.65157 0.61903 0.0
H799 H 0.90044 0.71005 0.56167 0.0
H800 H 0.93803 0.66699 0.49208 0.0
H801 H 0.90701 0.68116 0.52245 0.0
H802 H 0.93543 0.65604 0.60949 0.0
H803 H 0.9658 0.64164 0.57949 0.0
C804 C 0.87898 0.67894 0.63598 0.0
C805 C 0.87338 0.70089 0.63133 0.0
C806 C 0.89254 0.66831 0.61429 0.0
C807 C 0.90099 0.67947 0.58768 0.0
C808 C 0.89415 0.70096 0.58185 0.0
C809 C 0.88039 0.71155 0.60344 0.0
C810 C 0.93749 0.66436 0.51766 0.0
C811 C 0.95442 0.65326 0.53336 0.0
C812 C 0.91978 0.67251 0.53503 0.0
C813 C 0.91867 0.66959 0.56835 0.0
C814 C 0.93548 0.65819 0.5838 0.0
C815 C 0.95307 0.65011 0.56656 0.0
H816 H 0.5214 0.33112 0.52791 0.0
H817 H 0.48144 0.37815 0.57752 0.0
H818 H 0.54168 0.32438 0.57683 0.0
H819 H 0.50211 0.37171 0.62646 0.0
H820 H 0.52132 0.32653 0.71217 0.0
H821 H 0.50465 0.3418 0.66432 0.0
H822 H 0.56672 0.33912 0.61585 0.0
H823 H 0.58329 0.32336 0.66341 0.0
C824 C 0.5172 0.34032 0.54911 0.0
C825 C 0.49968 0.35502 0.54888 0.0
C826 C 0.52893 0.33656 0.57716 0.0
C827 C 0.52347 0.34746 0.60562 0.0
C828 C 0.50654 0.36285 0.60504 0.0
C829 C 0.49477 0.36661 0.57695 0.0
C830 C 0.53151 0.32958 0.69152 0.0
C831 C 0.55355 0.32343 0.69145 0.0
C832 C 0.52197 0.33843 0.66409 0.0
C833 C 0.53431 0.3414 0.6361 0.0
C834 C 0.55668 0.33661 0.6368 0.0
C835 C 0.56619 0.32769 0.66414 0.0
H836 H 0.96327 0.31478 0.95726 0.0
H837 H 0.93821 0.37912 0.93687 0.0
H838 H 0.93169 0.29862 0.9311 0.0
H839 H 0.90644 0.36289 0.91115 0.0
H840 H 0.87686 0.3249 0.8249 0.0
H841 H 0.90223 0.34324 0.8606 0.0
H842 H 0.89196 0.29328 0.93179 0.0
H843 H 0.86672 0.27466 0.8958 0.0
C844 C 0.95083 0.32548 0.94774 0.0
C845 C 0.95341 0.34823 0.94876 0.0
C846 C 0.93265 0.31621 0.93291 0.0
C847 C 0.91667 0.32949 0.9188 0.0
C848 C 0.91866 0.35224 0.92137 0.0
C849 C 0.93683 0.36152 0.93623 0.0
C850 C 0.87976 0.31796 0.84833 0.0
C851 C 0.86994 0.2982 0.85738 0.0
C852 C 0.8942 0.32857 0.8689 0.0
C853 C 0.89918 0.31965 0.89897 0.0
C854 C 0.88863 0.3004 0.90861 0.0
C855 C 0.8741 0.28981 0.88805 0.0
H856 H 0.93417 0.63862 0.04586 0.0
H857 H 0.97966 0.61013 0.11278 0.0
H858 H 0.9177 0.65936 0.08898 0.0
H859 H 0.96282 0.63066 0.15617 0.0
H860 H 0.94843 0.69649 0.20844 0.0
H861 H 0.96206 0.66907 0.17144 0.0
H862 H 0.8965 0.65741 0.13773 0.0
H863 H 0.88292 0.68516 0.1742 0.0
C864 C 0.94043 0.6365 0.06988 0.0
C865 C 0.95836 0.62288 0.07583 0.0
C866 C 0.93088 0.64829 0.09467 0.0
C867 C 0.93901 0.64673 0.12601 0.0
C868 C 0.95638 0.63242 0.13221 0.0
C869 C 0.96593 0.62058 0.10737 0.0
C870 C 0.93688 0.68786 0.19348 0.0
C871 C 0.91464 0.69322 0.19396 0.0
C872 C 0.94468 0.67204 0.17238 0.0
C873 C 0.93037 0.66122 0.15141 0.0
C874 C 0.90798 0.66575 0.15317 0.0
C875 C 0.9002 0.68159 0.17418 0.0
H876 H 0.61605 0.63759 0.35162 0.0
H877 H 0.60967 0.68538 0.42684 0.0
H878 H 0.59184 0.61308 0.38061 0.0
H879 H 0.58484 0.66131 0.4552 0.0
H880 H 0.54213 0.61315 0.50465 0.0
H881 H 0.57597 0.62831 0.48328 0.0
H882 H 0.55347 0.61484 0.38734 0.0
H883 H 0.52029 0.59924 0.40855 0.0
C884 C 0.60973 0.64273 0.37458 0.0
C885 C 0.61443 0.66357 0.38667 0.0
C886 C 0.59578 0.62873 0.39113 0.0
C887 C 0.586 0.6354 0.4199 0.0
C888 C 0.59213 0.65556 0.43321 0.0
C889 C 0.6063 0.66945 0.41682 0.0
C890 C 0.54466 0.61306 0.47904 0.0
C891 C 0.5284 0.60525 0.45829 0.0
C892 C 0.56399 0.62184 0.46679 0.0
C893 C 0.56742 0.62294 0.43358 0.0
C894 C 0.55161 0.61401 0.41305 0.0
C895 C 0.5324 0.60523 0.42524 0.0
H896 H 0.44635 0.35647 0.06362 0.0
H897 H 0.4957 0.35752 0.1373 0.0
H898 H 0.42073 0.34006 0.10101 0.0
H899 H 0.47047 0.34024 0.17428 0.0
H900 H 0.4172 0.31755 0.24048 0.0
H901 H 0.43825 0.34173 0.2058 0.0
H902 H 0.41667 0.30507 0.12335 0.0
H903 H 0.39517 0.28169 0.1576 0.0
C904 C 0.45168 0.35329 0.08787 0.0
C905 C 0.47309 0.35806 0.09743 0.0
C906 C 0.43705 0.34377 0.10927 0.0
C907 C 0.44361 0.33849 0.14056 0.0
C908 C 0.46474 0.34424 0.15051 0.0
C909 C 0.47928 0.35405 0.12922 0.0
C910 C 0.4168 0.31487 0.21491 0.0
C911 C 0.40459 0.29766 0.20183 0.0
C912 C 0.42894 0.32865 0.19503 0.0
C913 C 0.4292 0.32538 0.16173 0.0
C914 C 0.41656 0.30842 0.14876 0.0
C915 C 0.40434 0.29483 0.16851 0.0
H916 H 0.44948 0.68113 0.99239 0.0
H917 H 0.44943 0.61324 0.96473 0.0
H918 H 0.42017 0.68822 0.95454 0.0
H919 H 0.41995 0.62036 0.92709 0.0
H920 H 0.40173 0.65399 0.82957 0.0
H921 H 0.42146 0.64076 0.87611 0.0
H922 H 0.38201 0.68136 0.93731 0.0
H923 H 0.36227 0.69479 0.89061 0.0
C924 C 0.44287 0.66762 0.97883 0.0
C925 C 0.45205 0.64672 0.98118 0.0
C926 C 0.42596 0.67165 0.95725 0.0
C927 C 0.41796 0.65488 0.93756 0.0
C928 C 0.42603 0.63366 0.94163 0.0
C929 C 0.44287 0.6296 0.96329 0.0
C930 C 0.39695 0.65978 0.85299 0.0
C931 C 0.38064 0.67565 0.85635 0.0
C932 C 0.40817 0.65208 0.87972 0.0
C933 C 0.40338 0.66015 0.91036 0.0
C934 C 0.38619 0.67504 0.91394 0.0
C935 C 0.37484 0.68264 0.88719 0.0
H936 H 0.12167 0.74047 0.64386 0.0
H937 H 0.10285 0.7 0.72381 0.0
H938 H 0.10982 0.71232 0.60707 0.0
H939 H 0.09139 0.67142 0.6867 0.0
H940 H 0.04471 0.64377 0.60843 0.0
H941 H 0.06194 0.66624 0.649 0.0
H942 H 0.11721 0.67629 0.58679 0.0
H943 H 0.09963 0.65422 0.54566 0.0
C944 C 0.11522 0.72544 0.65364 0.0
C945 C 0.11304 0.72256 0.68682 0.0
C946 C 0.10862 0.70917 0.63248 0.0
C947 C 0.09972 0.68956 0.64391 0.0
C948 C 0.09799 0.68643 0.67713 0.0
C949 C 0.10459 0.70278 0.69839 0.0
C950 C 0.06069 0.65049 0.60351 0.0
C951 C 0.07065 0.64748 0.57358 0.0
C952 C 0.07065 0.66328 0.62693 0.0
C953 C 0.09084 0.67329 0.62102 0.0
C954 C 0.10144 0.66914 0.59184 0.0
C955 C 0.09143 0.65638 0.56834 0.0
H956 H 0.02678 0.35741 0.50487 0.0
H957 H -0.00639 0.36366 0.41413 0.0
H958 H 0.05937 0.34441 0.47707 0.0
H959 H 0.02581 0.35054 0.38672 0.0
H960 H 0.09122 0.34456 0.34196 0.0
H961 H 0.06309 0.36177 0.37424 0.0
H962 H 0.07067 0.31179 0.44609 0.0
H963 H 0.09913 0.29473 0.41408 0.0
C964 C 0.02644 0.35605 0.47906 0.0
C965 C 0.0076 0.36155 0.46173 0.0
C966 C 0.04506 0.34856 0.46318 0.0
C967 C 0.0452 0.34662 0.4297 0.0
C968 C 0.02638 0.35225 0.41247 0.0
C969 C 0.00783 0.3596 0.42826 0.0
C970 C 0.08713 0.3374 0.36484 0.0
C971 C 0.09721 0.31811 0.37525 0.0
C972 C 0.07094 0.34721 0.38327 0.0
C973 C 0.06445 0.33795 0.41248 0.0
C974 C 0.07538 0.31936 0.42375 0.0
C975 C 0.09161 0.30954 0.40531 0.0
H976 H 0.46546 0.63089 0.3458 0.0
H977 H 0.41017 0.63131 0.40969 0.0
H978 H 0.44878 0.65971 0.31421 0.0
H979 H 0.3932 0.65974 0.37754 0.0
H980 H 0.38559 0.72953 0.34054 0.0
H981 H 0.39976 0.69795 0.36864 0.0
H982 H 0.41913 0.66934 0.27869 0.0
H983 H 0.40537 0.70135 0.25047 0.0
C984 C 0.44958 0.63689 0.35283 0.0
C985 C 0.43923 0.62896 0.38044 0.0
C986 C 0.43996 0.65334 0.33458 0.0
C987 C 0.41974 0.66216 0.34349 0.0
C988 C 0.40899 0.65358 0.37038 0.0
C989 C 0.41865 0.63719 0.38869 0.0
C990 C 0.39281 0.7165 0.32668 0.0
C991 C 0.39441 0.71799 0.29325 0.0
C992 C 0.40078 0.69829 0.34281 0.0
C993 C 0.41049 0.68105 0.32592 0.0
C994 C 0.41194 0.68244 0.29243 0.0
C995 C 0.40399 0.70074 0.27625 0.0
H996 H 0.04817 0.60613 0.0303 0.0
H997 H 0.04918 0.66868 0.98291 0.0
H998 H 0.07619 0.61864 0.06724 0.0
H999 H 0.0767 0.68148 0.02052 0.0
H1000 H 0.13159 0.69817 0.08669 0.0
H1001 H 0.11289 0.6797 0.04286 0.0
H1002 H 0.07457 0.64335 0.11124 0.0
H1003 H 0.09358 0.66129 0.15479 0.0
C1004 C 0.0546 0.62248 0.02751 0.0
C1005 C 0.04626 0.63654 0.004 0.0
C1006 C 0.07057 0.62968 0.0488 0.0
C1007 C 0.0784 0.65119 0.04726 0.0
C1008 C 0.07115 0.66476 0.02231 0.0
C1009 C 0.05529 0.65746 0.00078 0.0
C1010 C 0.11944 0.68594 0.09233 0.0
C1011 C 0.11392 0.68134 0.12424 0.0
C1012 C 0.10864 0.67545 0.0672 0.0
C1013 C 0.09211 0.66016 0.07348 0.0
C1014 C 0.08741 0.65482 0.10544 0.0
C1015 C 0.09822 0.66524 0.1305 0.0
H1016 H 0.06507 0.25131 0.77353 0.0
H1017 H 0.12921 0.26867 0.80801 0.0
H1018 H 0.04945 0.28131 0.8038 0.0
H1019 H 0.11356 0.29896 0.83788 0.0
H1020 H 0.07198 0.32225 0.92448 0.0
H1021 H 0.09087 0.29946 0.88593 0.0
H1022 H 0.04675 0.32082 0.8118 0.0
H1023 H 0.02754 0.34347 0.85058 0.0
C1024 C 0.07591 0.26181 0.787 0.0
C1025 C 0.09834 0.2574 0.78873 0.0
C1026 C 0.06696 0.27911 0.80423 0.0
C1027 C 0.08025 0.29236 0.82353 0.0
C1028 C 0.10287 0.2888 0.82363 0.0
C1029 C 0.11183 0.27151 0.80637 0.0
C1030 C 0.06644 0.32231 0.89989 0.0
C1031 C 0.04811 0.33449 0.89068 0.0
C1032 C 0.0774 0.30937 0.87771 0.0
C1033 C 0.07027 0.30829 0.84581 0.0
C1034 C 0.05247 0.32114 0.83629 0.0
C1035 C 0.04153 0.33417 0.85849 0.0
H1036 H 0.41395 0.27681 0.50224 0.0
H1037 H 0.41631 0.344 0.53329 0.0
H1038 H 0.39537 0.26692 0.55174 0.0
H1039 H 0.39782 0.334 0.58266 0.0
H1040 H 0.40257 0.29738 0.68135 0.0
H1041 H 0.41233 0.31144 0.62875 0.0
H1042 H 0.3614 0.27259 0.58582 0.0
H1043 H 0.3515 0.25856 0.63851 0.0
C1044 C 0.41009 0.28954 0.51925 0.0
C1045 C 0.41687 0.31112 0.51398 0.0
C1046 C 0.39939 0.28388 0.54755 0.0
C1047 C 0.39542 0.29967 0.57116 0.0
C1048 C 0.40095 0.32147 0.56501 0.0
C1049 C 0.41145 0.32717 0.53663 0.0
C1050 C 0.39323 0.29209 0.66078 0.0
C1051 C 0.37636 0.27678 0.66406 0.0
C1052 C 0.39874 0.30023 0.63068 0.0
C1053 C 0.38764 0.29305 0.60322 0.0
C1054 C 0.37029 0.27829 0.6066 0.0
C1055 C 0.36458 0.27036 0.63677 0.0
H1056 H 0.30141 0.24283 0.27735 0.0
H1057 H 0.30978 0.3105 0.25122 0.0
H1058 H 0.26475 0.25066 0.29603 0.0
H1059 H 0.27305 0.31838 0.27041 0.0
H1060 H 0.19709 0.31251 0.26414 0.0
H1061 H 0.23582 0.30925 0.25253 0.0
H1062 H 0.24448 0.27035 0.33764 0.0
H1063 H 0.20566 0.2733 0.34908 0.0
C1064 C 0.29551 0.25943 0.27586 0.0
C1065 C 0.30846 0.27602 0.2626 0.0
C1066 C 0.27455 0.26395 0.28683 0.0
C1067 C 0.26604 0.28515 0.28474 0.0
C1068 C 0.27913 0.30185 0.27207 0.0
C1069 C 0.30016 0.29734 0.26117 0.0
C1070 C 0.2073 0.30351 0.28063 0.0
C1071 C 0.19826 0.29294 0.30732 0.0
C1072 C 0.22952 0.30175 0.27406 0.0
C1073 C 0.24314 0.28937 0.29402 0.0
C1074 C 0.2343 0.27972 0.32157 0.0
C1075 C 0.21208 0.28152 0.32819 0.0
H1076 H 0.02067 0.92321 0.44358 0.0
H1077 H 0.96949 0.94534 0.50658 0.0
H1078 H 0.03582 0.9599 0.44226 0.0
H1079 H 0.98438 0.98215 0.50463 0.0
H1080 H 0.03224 0.03667 0.52752 0.0
H1081 H 0.01662 0.00021 0.52567 0.0
H1082 H 0.02941 -0.00298 0.42425 0.0
H1083 H 0.0455 0.03336 0.42619 0.0
C1084 C 0.01243 0.93597 0.45672 0.0
C1085 C -0.00602 0.93133 0.47539 0.0
C1086 C 0.0211 0.95702 0.45589 0.0
C1087 C 0.01145 0.97386 0.47365 0.0
C1088 C 0.99245 0.9694 0.49122 0.0
C1089 C 0.98381 0.94835 0.49211 0.0
C1090 C 0.03187 0.02815 0.50486 0.0
C1091 C 0.04009 0.03791 0.47701 0.0
C1092 C 0.02272 0.00733 0.50374 0.0
C1093 C 0.02155 -0.00417 0.47474 0.0
C1094 C 0.03019 0.00541 0.44699 0.0
C1095 C 0.03939 0.02624 0.44812 0.0
H1096 H 0.30401 0.71275 0.78635 0.0
H1097 H 0.31056 0.74154 0.69256 0.0
H1098 H 0.26627 0.72463 0.78858 0.0
H1099 H 0.2725 0.75283 0.69434 0.0
H1100 H 0.21066 0.78919 0.72145 0.0
H1101 H 0.24886 0.77831 0.72097 0.0
H1102 H 0.23156 0.71709 0.76543 0.0
H1103 H 0.19361 0.72823 0.76686 0.0
C1104 C 0.29731 0.72139 0.76602 0.0
C1105 C 0.31025 0.72618 0.73924 0.0
C1106 C 0.27564 0.72815 0.76727 0.0
C1107 C 0.26636 0.7397 0.74166 0.0
C1108 C 0.27925 0.74428 0.71471 0.0
C1109 C 0.301 0.73765 0.71356 0.0
C1110 C 0.21507 0.77349 0.73136 0.0
C1111 C 0.19913 0.75958 0.74421 0.0
C1112 C 0.23692 0.76717 0.73083 0.0
C1113 C 0.24326 0.74677 0.74299 0.0
C1114 C 0.22731 0.73303 0.75624 0.0
C1115 C 0.20551 0.7394 0.75695 0.0
H1116 H 0.4984 0.06582 0.96378 0.0
H1117 H 0.42926 0.06243 0.98292 0.0
H1118 H 0.50052 0.02622 0.96574 0.0
H1119 H 0.43151 0.02276 0.9853 0.0
H1120 H 0.4422 0.95039 0.95954 0.0
H1121 H 0.43891 0.9898 0.95295 0.0
H1122 H 0.49746 -0.00095 0.00875 0.0
H1123 H 0.50093 0.95978 0.01501 0.0
C1124 C 0.48362 0.05664 0.96814 0.0
C1125 C 0.46369 0.06729 0.97344 0.0
C1126 C 0.48488 0.03396 0.96948 0.0
C1127 C 0.46624 0.02142 0.97609 0.0
C1128 C 0.44613 0.032 0.98004 0.0
C1129 C 0.44487 0.05472 0.97877 0.0
C1130 C 0.45433 0.96085 0.97047 0.0
C1131 C 0.47186 0.95196 0.98775 0.0
C1132 C 0.4524 0.9834 0.96675 0.0
C1133 C 0.46802 -0.00251 0.9801 0.0
C1134 C 0.48538 0.98859 -0.00232 0.0
C1135 C 0.48727 0.96608 0.00149 0.0
H1136 H 0.19521 0.71692 0.19667 0.0
H1137 H 0.18631 0.74593 0.28988 0.0
H1138 H 0.23405 0.72485 0.19943 0.0
H1139 H 0.22527 0.75337 0.29296 0.0
H1140 H 0.29119 0.78479 0.27199 0.0
H1141 H 0.25233 0.77689 0.26864 0.0
H1142 H 0.26665 0.7139 0.22755 0.0
H1143 H 0.30546 0.722 0.23015 0.0
C1144 C 0.20157 0.72483 0.21787 0.0
C1145 C 0.18767 0.73084 0.24305 0.0
C1146 C 0.22385 0.72928 0.2195 0.0
C1147 C 0.23275 0.73978 0.24638 0.0
C1148 C 0.21887 0.74557 0.2717 0.0
C1149 C 0.19657 0.74117 0.27003 0.0
C1150 C 0.28604 0.76929 0.26214 0.0
C1151 C 0.3014 0.75403 0.25131 0.0
C1152 C 0.26378 0.7647 0.26043 0.0
C1153 C 0.2564 0.74473 0.24794 0.0
C1154 C 0.27178 0.72954 0.23694 0.0
C1155 C 0.29404 0.73415 0.23857 0.0
H1156 H 0.53742 0.95742 0.44977 0.0
H1157 H 0.50066 0.96107 0.53767 0.0
H1158 H 0.53789 -0.0029 0.44661 0.0
H1159 H 0.50155 0.0007 0.53483 0.0
H1160 H 0.48406 0.06831 0.49932 0.0
H1161 H 0.48512 0.02878 0.50179 0.0
H1162 H 0.55265 0.02972 0.47273 0.0
H1163 H 0.5515 0.06948 0.46963 0.0
C1164 C 0.52961 0.96668 0.46857 0.0
C1165 C 0.51887 0.9561 0.49388 0.0
C1166 C 0.52999 0.98942 0.46682 0.0
C1167 C 0.51963 0.00203 0.49034 0.0
C1168 C 0.50934 0.99143 0.51602 0.0
C1169 C 0.50894 0.96871 0.51775 0.0
C1170 C 0.49914 0.06014 0.49333 0.0
C1171 C 0.51773 0.07206 0.48436 0.0
C1172 C 0.49978 0.03746 0.49499 0.0
C1173 C 0.51903 0.02613 0.48778 0.0
C1174 C 0.53754 0.038 0.47824 0.0
C1175 C 0.5369 0.06076 0.47655 0.0
H1176 H 0.21023 0.23513 0.72191 0.0
H1177 H 0.20617 0.19491 0.8065 0.0
H1178 H 0.24929 0.23907 0.72997 0.0
H1179 H 0.24526 0.19934 0.81505 0.0
H1180 H 0.31955 0.19317 0.79702 0.0
H1181 H 0.28012 0.18902 0.79263 0.0
H1182 H 0.27453 0.25676 0.76557 0.0
H1183 H 0.31388 0.26075 0.76912 0.0
C1184 C 0.21766 0.22718 0.74229 0.0
C1185 C 0.20509 0.21472 0.76356 0.0
C1186 C 0.24005 0.22958 0.74707 0.0
C1187 C 0.25039 0.21968 0.77333 0.0
C1188 C 0.23784 0.20703 0.79445 0.0
C1189 C 0.21543 0.20455 0.78959 0.0
C1190 C 0.30987 0.20723 0.7905 0.0
C1191 C 0.31986 0.22724 0.78316 0.0
C1192 C 0.28726 0.20487 0.78805 0.0
C1193 C 0.27419 0.22249 0.77835 0.0
C1194 C 0.28415 0.24273 0.77238 0.0
C1195 C 0.30672 0.24506 0.77467 0.0
H1196 H 0.94638 0.04673 0.97002 0.0
H1197 H 0.00787 0.05411 0.01934 0.0
H1198 H 0.9518 0.00738 0.9681 0.0
H1199 H 0.01353 0.01491 0.01669 0.0
H1200 H 0.00621 0.94231 0.03551 0.0
H1201 H -0.0004 0.98134 0.03856 0.0
H1202 H 0.97475 0.98066 0.94189 0.0
H1203 H 0.98086 0.94143 0.9391 0.0
C1204 C 0.96106 0.03996 0.98042 0.0
C1205 C 0.97669 0.05353 0.99487 0.0
C1206 C 0.96423 0.01744 0.97912 0.0
C1207 C 0.98312 0.00802 0.99217 0.0
C1208 C -0.00134 0.02161 0.00679 0.0
C1209 C -0.00454 0.0441 0.00818 0.0
C1210 C -0.00066 0.95047 0.01488 0.0
C1211 C -0.00591 0.93878 0.98702 0.0
C1212 C -0.00435 0.97287 0.01659 0.0
C1213 C 0.9867 0.98413 0.99045 0.0
C1214 C 0.9814 0.97242 0.9626 0.0
C1215 C 0.98503 0.94997 0.96092 0.0
H1216 H 0.78976 0.75613 0.79588 0.0
H1217 H 0.78184 0.711 0.71735 0.0
H1218 H 0.75032 0.75979 0.79969 0.0
H1219 H 0.7424 0.71498 0.72089 0.0
H1220 H 0.67151 0.71362 0.75637 0.0
H1221 H 0.71079 0.70737 0.75557 0.0
H1222 H 0.72197 0.77651 0.7664 0.0
H1223 H 0.68286 0.78276 0.76768 0.0
C1224 C 0.77961 0.7469 0.77954 0.0
C1225 C 0.78892 0.73339 0.75617 0.0
C1226 C 0.75703 0.74911 0.78161 0.0
C1227 C 0.7433 0.73783 0.76039 0.0
C1228 C 0.75257 0.72376 0.73771 0.0
C1229 C 0.77516 0.72157 0.7356 0.0
C1230 C 0.68236 0.72748 0.75855 0.0
C1231 C 0.67408 0.74868 0.76212 0.0
C1232 C 0.70484 0.72389 0.758 0.0
C1233 C 0.71944 0.74144 0.76112 0.0
C1234 C 0.71113 0.76263 0.7645 0.0
C1235 C 0.6887 0.76622 0.76497 0.0
H1236 H 0.68453 0.16975 0.26042 0.0
H1237 H 0.68619 0.2385 0.28294 0.0
H1238 H 0.72229 0.16627 0.27828 0.0
H1239 H 0.72383 0.23503 0.30034 0.0
H1240 H 0.78658 0.21999 0.3508 0.0
H1241 H 0.74734 0.21862 0.34157 0.0
H1242 H 0.75776 0.1791 0.25756 0.0
H1243 H 0.7969 0.18019 0.26693 0.0
C1244 C 0.69287 0.18407 0.26937 0.0
C1245 C 0.68242 0.20442 0.27005 0.0
C1246 C 0.7145 0.18208 0.27949 0.0
C1247 C 0.72601 0.20038 0.29068 0.0
C1248 C 0.71532 0.22057 0.29224 0.0
C1249 C 0.69379 0.22258 0.282 0.0
C1250 C 0.78049 0.21075 0.33063 0.0
C1251 C 0.79487 0.20039 0.30941 0.0
C1252 C 0.75802 0.21005 0.32527 0.0
C1253 C 0.7495 0.1989 0.2987 0.0
C1254 C 0.76382 0.18768 0.27838 0.0
C1255 C 0.78627 0.18843 0.28365 0.0
H1256 H 0.66731 0.23677 0.7717 0.0
H1257 H 0.65817 0.30604 0.75861 0.0
H1258 H 0.70657 0.2421 0.77293 0.0
H1259 H 0.69753 0.31143 0.76065 0.0
H1260 H 0.76827 0.30735 0.7238 0.0
H1261 H 0.72877 0.30378 0.72715 0.0
H1262 H 0.73598 0.25724 0.80395 0.0
H1263 H 0.77542 0.26036 0.80005 0.0
C1264 C 0.67366 0.25318 0.76953 0.0
C1265 C 0.65961 0.27096 0.7649 0.0
C1266 C 0.69619 0.25625 0.7704 0.0
C1267 C 0.7052 0.27719 0.76676 0.0
C1268 C 0.69112 0.29506 0.76302 0.0
C1269 C 0.66856 0.29198 0.76208 0.0
C1270 C 0.76142 0.29644 0.74149 0.0
C1271 C 0.77498 0.28405 0.7615 0.0
C1272 C 0.73877 0.29449 0.74356 0.0
C1273 C 0.72921 0.28018 0.76578 0.0
C1274 C 0.74281 0.26815 0.78624 0.0
C1275 C 0.76543 0.27002 0.78409 0.0
H1276 H 0.80656 0.73006 0.21193 0.0
H1277 H 0.80622 0.7536 0.30932 0.0
H1278 H 0.76797 0.72142 0.21599 0.0
H1279 H 0.76741 0.74528 0.31313 0.0
H1280 H 0.70477 0.70476 0.31901 0.0
H1281 H 0.74346 0.71325 0.31476 0.0
H1282 H 0.73282 0.73973 0.22035 0.0
H1283 H 0.6942 0.7309 0.22431 0.0
C1284 C 0.79823 0.73351 0.23417 0.0
C1285 C 0.80947 0.74249 0.26034 0.0
C1286 C 0.77608 0.72865 0.23641 0.0
C1287 C 0.76466 0.73265 0.26487 0.0
C1288 C 0.77585 0.74175 0.29101 0.0
C1289 C 0.79804 0.74664 0.28876 0.0
C1290 C 0.71069 0.7123 0.29728 0.0
C1291 C 0.69642 0.71713 0.27197 0.0
C1292 C 0.73283 0.71731 0.29496 0.0
C1293 C 0.74117 0.72723 0.26728 0.0
C1294 C 0.72692 0.73188 0.24186 0.0
C1295 C 0.70478 0.72688 0.24419 0.0
H1296 H 0.55394 0.44353 0.04397 0.0
H1297 H 0.49418 0.4365 0.99011 0.0
H1298 H 0.54959 0.4831 0.04314 0.0
H1299 H 0.48997 0.47597 0.98923 0.0
H1300 H 0.47603 0.54348 0.03198 0.0
H1301 H 0.48193 0.50423 0.03063 0.0
H1302 H 0.54921 0.5147 0.00462 0.0
H1303 H 0.5434 0.55408 0.00607 0.0
C1304 C 0.54 0.45042 0.03173 0.0
C1305 C 0.52435 0.43688 0.01725 0.0
C1306 C 0.53757 0.47306 0.03116 0.0
C1307 C 0.51936 0.48256 0.01633 0.0
C1308 C 0.504 0.46905 0.00122 0.0
C1309 C 0.50651 0.44646 0.00157 0.0
C1310 C 0.4921 0.53744 0.02602 0.0
C1311 C 0.50924 0.55188 0.0191 0.0
C1312 C 0.49543 0.51496 0.02505 0.0
C1313 C 0.516 0.50644 0.01736 0.0
C1314 C 0.53322 0.52085 0.01079 0.0
C1315 C 0.52985 0.54336 0.0115 0.0
H1316 H 0.94782 0.45491 0.45502 0.0
H1317 H 0.97262 0.44974 0.55144 0.0
H1318 H 0.95855 0.49307 0.45349 0.0
H1319 H 0.98277 0.48815 0.55025 0.0
H1320 H 0.01979 0.55023 0.52409 0.0
H1321 H 0.00904 0.51196 0.52531 0.0
H1322 H 0.94945 0.52793 0.47543 0.0
H1323 H 0.96048 0.56598 0.47338 0.0
C1324 C 0.95533 0.46199 0.47604 0.0
C1325 C 0.9594 0.44929 0.50334 0.0
C1326 C 0.96141 0.4839 0.4752 0.0
C1327 C 0.97158 0.49366 0.50171 0.0
C1328 C 0.97531 0.48104 0.52922 0.0
C1329 C 0.96933 0.45907 0.53 0.0
C1330 C 0.00446 0.54553 0.51326 0.0
C1331 C 0.99101 0.56112 0.49858 0.0
C1332 C -0.00179 0.52363 0.51417 0.0
C1333 C 0.97834 0.51689 0.50057 0.0
C1334 C 0.96499 0.53251 0.48576 0.0
C1335 C 0.97128 0.55436 0.48469 0.0
H1336 H 0.02375 0.42574 0.94203 0.0
H1337 H 0.00033 0.43227 0.03896 0.0
H1338 H 0.01946 0.46484 0.9341 0.0
H1339 H -0.00357 0.47143 0.03116 0.0
H1340 H 0.96977 0.53609 0.99525 0.0
H1341 H 0.97352 0.49676 0.00103 0.0
H1342 H 0.03533 0.49934 0.95184 0.0
H1343 H 0.03142 0.53863 0.94551 0.0
C1344 C 0.01783 0.43553 0.96172 0.0
C1345 C 0.01235 0.4259 0.99113 0.0
C1346 C 0.01545 0.45795 0.95719 0.0
C1347 C 0.00752 0.4712 0.98195 0.0
C1348 C 0.00225 0.46159 0.01145 0.0
C1349 C 0.00464 0.43917 0.01599 0.0
C1350 C 0.98408 0.52825 0.98545 0.0
C1351 C 0.00033 0.54049 0.96999 0.0
C1352 C 0.98631 0.50574 0.98899 0.0
C1353 C 0.0048 0.49498 0.97712 0.0
C1354 C 0.02081 0.50714 0.96102 0.0
C1355 C 0.0186 0.52967 0.95749 0.0
H1356 H 0.41166 0.41429 0.44943 0.0
H1357 H 0.47956 0.41031 0.42273 0.0
H1358 H 0.41276 0.45374 0.44217 0.0
H1359 H 0.48071 0.44967 0.416 0.0
H1360 H 0.47243 0.51987 0.3859 0.0
H1361 H 0.46717 0.48045 0.38422 0.0
H1362 H 0.43019 0.48362 0.47188 0.0
H1363 H 0.43514 0.52298 0.47336 0.0
C1364 C 0.42674 0.42178 0.44169 0.0
C1365 C 0.44557 0.40919 0.43693 0.0
C1366 C 0.4274 0.44438 0.43771 0.0
C1367 C 0.44686 0.45482 0.42875 0.0
C1368 C 0.46541 0.4421 0.42263 0.0
C1369 C 0.46478 0.41954 0.42669 0.0
C1370 C 0.46301 0.51218 0.40465 0.0
C1371 C 0.45433 0.52452 0.42989 0.0
C1372 C 0.46007 0.4896 0.40373 0.0
C1373 C 0.44832 0.47894 0.42795 0.0
C1374 C 0.4391 0.49138 0.45265 0.0
C1375 C 0.44208 0.51393 0.45363 0.0
H1376 H 0.05113 0.35641 0.07238 0.0
H1377 H 0.02698 0.29054 0.0622 0.0
H1378 H 0.06731 0.34683 0.12362 0.0
H1379 H 0.04346 0.28092 0.11345 0.0
H1380 H 0.05685 0.27989 0.22241 0.0
H1381 H 0.03976 0.28877 0.17133 0.0
H1382 H 0.09752 0.32412 0.14306 0.0
H1383 H 0.11451 0.31552 0.19412 0.0
C1384 C 0.04926 0.33988 0.08106 0.0
C1385 C 0.03781 0.32422 0.06315 0.0
C1386 C 0.05866 0.33436 0.11035 0.0
C1387 C 0.05678 0.31309 0.12247 0.0
C1388 C 0.04504 0.29749 0.10483 0.0
C1389 C 0.03569 0.30299 0.07542 0.0
C1390 C 0.06592 0.28952 0.20527 0.0
C1391 C 0.08701 0.29707 0.21239 0.0
C1392 C 0.05616 0.29451 0.17596 0.0
C1393 C 0.06726 0.30723 0.15325 0.0
C1394 C 0.08843 0.31456 0.16026 0.0
C1395 C 0.09821 0.30952 0.18947 0.0
H1396 H 0.94621 0.78824 0.27192 0.0
H1397 H 0.89162 0.765 0.32759 0.0
H1398 H 0.9617 0.80505 0.31953 0.0
H1399 H 0.90733 0.78165 0.37537 0.0
H1400 H 0.92818 0.83935 0.44008 0.0
H1401 H 0.91347 0.81929 0.39464 0.0
H1402 H 0.978 0.79604 0.37181 0.0
H1403 H 0.99282 0.81631 0.41706 0.0
C1404 C 0.9376 0.78654 0.29438 0.0
C1405 C 0.91762 0.77538 0.29594 0.0
C1406 C 0.94656 0.79607 0.3217 0.0
C1407 C 0.9357 0.79473 0.35117 0.0
C1408 C 0.91594 0.78317 0.3529 0.0
C1409 C 0.90702 0.77353 0.32558 0.0
C1410 C 0.93924 0.82992 0.42543 0.0
C1411 C 0.9617 0.82953 0.43209 0.0
C1412 C 0.93078 0.81829 0.39954 0.0
C1413 C 0.94458 0.80609 0.37965 0.0
C1414 C 0.96699 0.80548 0.38652 0.0
C1415 C 0.97546 0.81703 0.41252 0.0
H1416 H 0.43336 0.64963 0.71203 0.0
H1417 H 0.38829 0.69177 0.66224 0.0
H1418 H 0.44655 0.63579 0.66091 0.0
H1419 H 0.40135 0.67776 0.61124 0.0
H1420 H 0.44592 0.66433 0.52616 0.0
H1421 H 0.43453 0.67862 0.57787 0.0
H1422 H 0.43282 0.61323 0.61603 0.0
H1423 H 0.44443 0.5989 0.5644 0.0
C1424 C 0.42627 0.65595 0.69021 0.0
C1425 C 0.40977 0.6718 0.69121 0.0
C1426 C 0.43375 0.64793 0.66095 0.0
C1427 C 0.42499 0.6557 0.63207 0.0
C1428 C 0.4086 0.67165 0.63308 0.0
C1429 C 0.40103 0.67958 0.66232 0.0
C1430 C 0.44321 0.65299 0.5456 0.0
C1431 C 0.44602 0.63047 0.54113 0.0
C1432 C 0.43657 0.66118 0.57517 0.0
C1433 C 0.4327 0.64704 0.60097 0.0
C1434 C 0.43586 0.62455 0.59667 0.0
C1435 C 0.4424 0.61634 0.56704 0.0
H1436 H 0.5173 0.23777 0.77105 0.0
H1437 H 0.56479 0.26212 0.83858 0.0
H1438 H 0.4982 0.21923 0.81425 0.0
H1439 H 0.54581 0.24332 0.8817 0.0
H1440 H 0.49943 0.21731 0.95647 0.0
H1441 H 0.51241 0.24089 0.91352 0.0
H1442 H 0.50682 0.18738 0.84692 0.0
H1443 H 0.49367 0.16389 0.88965 0.0
C1444 C 0.52356 0.23935 0.79515 0.0
C1445 C 0.54274 0.2512 0.80131 0.0
C1446 C 0.51266 0.22863 0.81987 0.0
C1447 C 0.52064 0.22957 0.85132 0.0
C1448 C 0.53916 0.24237 0.85775 0.0
C1449 C 0.55011 0.25306 0.833 0.0
C1450 C 0.50075 0.21064 0.93259 0.0
C1451 C 0.49569 0.18865 0.92653 0.0
C1452 C 0.50825 0.22415 0.90803 0.0
C1453 C 0.51071 0.216 0.87685 0.0
C1454 C 0.50488 0.19424 0.8706 0.0
C1455 C 0.49748 0.18072 0.89515 0.0
H1456 H 0.02668 0.69762 0.44635 0.0
H1457 H 0.04804 0.63254 0.42238 0.0
H1458 H 0.04166 0.71112 0.39595 0.0
H1459 H 0.06292 0.64607 0.37216 0.0
H1460 H 0.10924 0.68326 0.30556 0.0
H1461 H 0.09367 0.67067 0.35586 0.0
H1462 H 0.03496 0.70707 0.33648 0.0
H1463 H 0.05052 0.71975 0.28603 0.0
C1464 C 0.03451 0.6862 0.43033 0.0
C1465 C 0.03621 0.66402 0.43838 0.0
C1466 C 0.04298 0.69392 0.40144 0.0
C1467 C 0.05352 0.67965 0.38024 0.0
C1468 C 0.0551 0.65747 0.38822 0.0
C1469 C 0.04646 0.64972 0.41691 0.0
C1470 C 0.09303 0.68864 0.31201 0.0
C1471 C 0.08109 0.70246 0.29175 0.0
C1472 C 0.08408 0.68132 0.34074 0.0
C1473 C 0.06308 0.68782 0.34999 0.0
C1474 C 0.05124 0.70191 0.33002 0.0
C1475 C 0.06012 0.70908 0.30108 0.0
H1476 H 0.5354 0.78607 0.70479 0.0
H1477 H 0.59928 0.81084 0.68071 0.0
H1478 H 0.52054 0.80273 0.65631 0.0
H1479 H 0.58441 0.8274 0.6325 0.0
H1480 H 0.5458 0.87487 0.57083 0.0
H1481 H 0.55844 0.85801 0.62021 0.0
H1482 H 0.52407 0.79883 0.59592 0.0
H1483 H 0.51133 0.81567 0.54635 0.0
C1484 C 0.54627 0.795 0.68915 0.0
C1485 C 0.56851 0.79718 0.69664 0.0
C1486 C 0.53777 0.80446 0.66137 0.0
C1487 C 0.5513 0.81649 0.64081 0.0
C1488 C 0.57355 0.81848 0.64817 0.0
C1489 C 0.58208 0.80886 0.67568 0.0
C1490 C 0.54076 0.85832 0.57609 0.0
C1491 C 0.52764 0.84657 0.55458 0.0
C1492 C 0.54813 0.84863 0.60428 0.0
C1493 C 0.54238 0.82706 0.61175 0.0
C1494 C 0.52867 0.81552 0.59081 0.0
C1495 C 0.52146 0.82514 0.5624 0.0
H1496 H 0.41106 0.29061 0.83124 0.0
H1497 H 0.46128 0.24176 0.82112 0.0
H1498 H 0.43285 0.3091 0.87164 0.0
H1499 H 0.48316 0.26047 0.86164 0.0
H1500 H 0.49997 0.28768 0.96377 0.0
H1501 H 0.48132 0.26848 0.9205 0.0
H1502 H 0.46759 0.32996 0.87456 0.0
H1503 H 0.48596 0.34921 0.91783 0.0
C1504 C 0.42675 0.2838 0.83762 0.0
C1505 C 0.43442 0.26471 0.82293 0.0
C1506 C 0.43931 0.29451 0.8606 0.0
C1507 C 0.45978 0.28632 0.8696 0.0
C1508 C 0.46741 0.26709 0.85521 0.0
C1509 C 0.4549 0.25645 0.83198 0.0
C1510 C 0.49319 0.29709 0.94426 0.0
C1511 C 0.49427 0.32 0.94442 0.0
C1512 C 0.48261 0.28607 0.91941 0.0
C1513 C 0.47283 0.29774 0.89433 0.0
C1514 C 0.47468 0.32057 0.89386 0.0
C1515 C 0.48532 0.33157 0.91857 0.0
H1516 H 0.87478 0.18005 0.19459 0.0
H1517 H 0.93293 0.21821 0.2115 0.0
H1518 H 0.88981 0.16743 0.14411 0.0
H1519 H 0.94799 0.20545 0.16067 0.0
H1520 H 0.9537 0.19356 0.04977 0.0
H1521 H 0.94032 0.20792 0.10065 0.0
H1522 H 0.92107 0.14305 0.12906 0.0
H1523 H 0.93434 0.12867 0.07847 0.0
C1524 C 0.89072 0.18587 0.18747 0.0
C1525 C 0.90271 0.20007 0.20715 0.0
C1526 C 0.89938 0.17851 0.15863 0.0
C1527 C 0.92014 0.1853 0.14866 0.0
C1528 C 0.93191 0.2 0.1678 0.0
C1529 C 0.92332 0.20724 0.19689 0.0
C1530 C 0.94674 0.18235 0.06697 0.0
C1531 C 0.94495 0.16 0.05999 0.0
C1532 C 0.93917 0.19057 0.09611 0.0
C1533 C 0.92949 0.17661 0.11862 0.0
C1534 C 0.92817 0.15422 0.11193 0.0
C1535 C 0.9359 0.14598 0.08301 0.0
H1536 H 0.97128 0.68406 0.92549 0.0
H1537 H 0.94476 0.62157 0.89777 0.0
H1538 H 0.95248 0.70125 0.88037 0.0
H1539 H 0.92558 0.63893 0.85324 0.0
H1540 H 0.87369 0.68694 0.80896 0.0
H1541 H 0.89392 0.67008 0.8529 0.0
H1542 H 0.95395 0.69621 0.81531 0.0
H1543 H 0.93385 0.71267 0.7708 0.0
C1544 C 0.96149 0.67402 0.90973 0.0
C1545 C 0.95948 0.65149 0.91509 0.0
C1546 C 0.95082 0.68384 0.88396 0.0
C1547 C 0.93757 0.67137 0.86359 0.0
C1548 C 0.93564 0.64885 0.8688 0.0
C1549 C 0.94669 0.63895 0.89412 0.0
C1550 C 0.89119 0.68916 0.81013 0.0
C1551 C 0.90222 0.70108 0.78647 0.0
C1552 C 0.90273 0.67942 0.83513 0.0
C1553 C 0.92543 0.68186 0.83728 0.0
C1554 C 0.93643 0.69418 0.81409 0.0
C1555 C 0.92495 0.70351 0.78867 0.0
H1556 H 0.13303 0.17945 0.66991 0.0
H1557 H 0.07067 0.16256 0.71106 0.0
H1558 H 0.12021 0.167 0.61765 0.0
H1559 H 0.05797 0.15015 0.65892 0.0
H1560 H 0.03608 0.15387 0.55364 0.0
H1561 H 0.04916 0.16663 0.6055 0.0
H1562 H 0.10933 0.1315 0.59171 0.0
H1563 H 0.09634 0.11872 0.53984 0.0
C1564 C 0.11662 0.17309 0.66782 0.0
C1565 C 0.10287 0.17198 0.69462 0.0
C1566 C 0.10933 0.16587 0.63795 0.0
C1567 C 0.08809 0.15764 0.63425 0.0
C1568 C 0.07434 0.15662 0.66101 0.0
C1569 C 0.08169 0.16362 0.6909 0.0
C1570 C 0.0521 0.14886 0.56165 0.0
C1571 C 0.06516 0.13526 0.54263 0.0
C1572 C 0.05954 0.1561 0.5914 0.0
C1573 C 0.08026 0.15006 0.60261 0.0
C1574 C 0.09337 0.13658 0.58353 0.0
C1575 C 0.08586 0.12916 0.55392 0.0
H1576 H 0.51091 0.27022 0.44106 0.0
H1577 H 0.48582 0.31432 0.36942 0.0
H1578 H 0.53161 0.25109 0.40007 0.0
H1579 H 0.50688 0.2955 0.32861 0.0
H1580 H 0.53727 0.24913 0.25778 0.0
H1581 H 0.51198 0.262 0.29857 0.0
H1582 H 0.56364 0.25992 0.36875 0.0
H1583 H 0.58874 0.24666 0.32826 0.0
C1584 C 0.50966 0.27572 0.41653 0.0
C1585 C 0.49689 0.29394 0.40856 0.0
C1586 C 0.52162 0.26483 0.39307 0.0
C1587 C 0.5211 0.27191 0.36113 0.0
C1588 C 0.50752 0.28949 0.35293 0.0
C1589 C 0.49553 0.30037 0.37638 0.0
C1590 C 0.54317 0.25122 0.28199 0.0
C1591 C 0.56506 0.24702 0.28971 0.0
C1592 C 0.52869 0.25868 0.30533 0.0
C1593 C 0.5358 0.26208 0.33689 0.0
C1594 C 0.55753 0.25722 0.34478 0.0
C1595 C 0.57199 0.24976 0.32148 0.0
H1596 H 0.45623 0.87222 0.08169 0.0
H1597 H 0.44764 0.80875 0.03861 0.0
H1598 H 0.44222 0.85809 0.13218 0.0
H1599 H 0.43378 0.79466 0.08915 0.0
H1600 H 0.38359 0.78781 0.17127 0.0
H1601 H 0.40031 0.80027 0.12165 0.0
H1602 H 0.45143 0.83182 0.17557 0.0
H1603 H 0.43467 0.8195 0.22527 0.0
C1604 C 0.45153 0.85523 0.08305 0.0
C1605 C 0.45295 0.84165 0.05608 0.0
C1606 C 0.4436 0.84711 0.11202 0.0
C1607 C 0.43681 0.82529 0.11456 0.0
C1608 C 0.43864 0.81161 0.08779 0.0
C1609 C 0.44671 0.81967 0.05889 0.0
C1610 C 0.39844 0.79733 0.17256 0.0
C1611 C 0.40775 0.80273 0.20222 0.0
C1612 C 0.40809 0.80435 0.14412 0.0
C1613 C 0.42717 0.81704 0.14474 0.0
C1614 C 0.43661 0.82225 0.17438 0.0
C1615 C 0.42706 0.81509 0.20282 0.0
H1616 H 0.93907 0.30847 0.54099 0.0
H1617 H 0.91287 0.37023 0.57231 0.0
H1618 H 0.92421 0.29094 0.58861 0.0
H1619 H 0.89812 0.35267 0.61994 0.0
H1620 H 0.8536 0.30828 0.67985 0.0
H1621 H 0.86897 0.32534 0.63222 0.0
H1622 H 0.92954 0.29124 0.64793 0.0
H1623 H 0.9142 0.27408 0.69549 0.0
C1624 C 0.93024 0.31833 0.55809 0.0
C1625 C 0.9271 0.34074 0.55283 0.0
C1626 C 0.92181 0.30829 0.58541 0.0
C1627 C 0.90992 0.32042 0.60789 0.0
C1628 C 0.90698 0.34286 0.6028 0.0
C1629 C 0.91556 0.35294 0.57563 0.0
C1630 C 0.87016 0.30433 0.67307 0.0
C1631 C 0.88269 0.28984 0.69147 0.0
C1632 C 0.879 0.31422 0.64593 0.0
C1633 C 0.90048 0.30969 0.63646 0.0
C1634 C 0.91289 0.29493 0.65454 0.0
C1635 C 0.90412 0.28517 0.68184 0.0
H1636 H 0.44164 0.20003 0.25146 0.0
H1637 H 0.39555 0.22083 0.32327 0.0
H1638 H 0.46356 0.18246 0.29281 0.0
H1639 H 0.41726 0.20304 0.36437 0.0
H1640 H 0.47085 0.18654 0.43422 0.0
H1641 H 0.45247 0.2062 0.39149 0.0
H1642 H 0.46056 0.15079 0.32894 0.0
H1643 H 0.47929 0.13116 0.3716 0.0
C1644 C 0.43621 0.2009 0.27605 0.0
C1645 C 0.41683 0.2118 0.28407 0.0
C1646 C 0.44871 0.19074 0.29968 0.0
C1647 C 0.44214 0.19136 0.33183 0.0
C1648 C 0.42292 0.20251 0.33987 0.0
C1649 C 0.4104 0.2126 0.31627 0.0
C1650 C 0.46887 0.17857 0.4113 0.0
C1651 C 0.4764 0.1572 0.40639 0.0
C1652 C 0.45823 0.18982 0.38686 0.0
C1653 C 0.45489 0.17998 0.35694 0.0
C1654 C 0.46303 0.15887 0.35168 0.0
C1655 C 0.47366 0.14758 0.37617 0.0
H1656 H 0.53636 0.63104 0.10768 0.0
H1657 H 0.54162 0.69539 0.06631 0.0
H1658 H 0.55312 0.64441 0.15679 0.0
H1659 H 0.55842 0.70871 0.11556 0.0
H1660 H 0.56828 0.72704 0.2226 0.0
H1661 H 0.54962 0.71479 0.17412 0.0
H1662 H 0.59065 0.65772 0.1712 0.0
H1663 H 0.60928 0.66985 0.21947 0.0
C1664 C 0.54094 0.64807 0.10913 0.0
C1665 C 0.53777 0.66213 0.08302 0.0
C1666 C 0.55065 0.65568 0.13719 0.0
C1667 C 0.55721 0.67755 0.13988 0.0
C1668 C 0.55343 0.69179 0.11418 0.0
C1669 C 0.54389 0.68413 0.08596 0.0
C1670 C 0.57334 0.7119 0.21156 0.0
C1671 C 0.59024 0.6994 0.22492 0.0
C1672 C 0.5627 0.70495 0.18378 0.0
C1673 C 0.5686 0.68524 0.16905 0.0
C1674 C 0.58556 0.67283 0.1823 0.0
C1675 C 0.59633 0.67987 0.20983 0.0
H1676 H 0.11777 0.80516 0.81839 0.0
H1677 H 0.05706 0.78786 0.77241 0.0
H1678 H 0.09769 0.81804 0.86498 0.0
H1679 H 0.03702 0.80079 0.8191 0.0
H1680 H 0.01236 0.80575 0.92385 0.0
H1681 H 0.03187 0.79159 0.87744 0.0
H1682 H 0.07223 0.84928 0.87606 0.0
H1683 H 0.05281 0.86348 0.92241 0.0
C1684 C 0.10016 0.80395 0.8183 0.0
C1685 C 0.089 0.79555 0.79165 0.0
C1686 C 0.08867 0.81147 0.84489 0.0
C1687 C 0.0658 0.81055 0.84554 0.0
C1688 C 0.05466 0.8016 0.81929 0.0
C1689 C 0.06614 0.79427 0.79254 0.0
C1690 C 0.02534 0.81546 0.91358 0.0
C1691 C 0.03106 0.83573 0.92685 0.0
C1692 C 0.03644 0.80737 0.88696 0.0
C1693 C 0.05364 0.81928 0.8733 0.0
C1694 C 0.05922 0.83963 0.88638 0.0
C1695 C 0.04799 0.84782 0.91277 0.0
loop_
_geom_bond_atom_site_label_1
_geom_bond_atom_site_label_2
_geom_bond_distance
_geom_bond_site_symmetry_2
_ccdc_geom_bond_type
C0 O1 1.160 . S
C0 O7 1.185 . S
O1 C0 1.160 . S
O2 Zn3 1.899 . S
O2 C10 1.284 . S
Zn3 O2 1.899 . S
Zn3 O4 2.032 . S
Zn3 O7 2.086 . S
Zn3 O12 1.977 . S
O4 Zn3 2.032 . S
O4 C8 1.278 . S
C5 O6 1.203 . S
C5 O12 1.267 . S
O6 C5 1.203 . S
O7 C0 1.185 . S
O7 Zn3 2.086 . S
C8 O4 1.278 . S
C8 O9 1.211 . S
O9 C8 1.211 . S
C10 O2 1.284 . S
C10 O11 1.273 . S
O11 C10 1.273 . S
O12 Zn3 1.977 . S
O12 C5 1.267 . S
C13 O14 1.160 . S
C13 O20 1.185 . S
O14 C13 1.160 . S
O15 Zn16 1.899 . S
O15 C23 1.284 1_655 S
Zn16 O15 1.899 . S
Zn16 O17 2.032 . S
Zn16 O20 2.086 . S
Zn16 O25 1.977 . S
O17 Zn16 2.032 . S
O17 C21 1.278 . S
C18 O19 1.203 . S
C18 O25 1.267 . S
O19 C18 1.203 . S
O20 C13 1.185 . S
O20 Zn16 2.086 . S
C21 O17 1.278 . S
C21 O22 1.211 . S
O22 C21 1.211 . S
C23 O15 1.284 1_455 S
C23 O24 1.273 . S
O24 C23 1.273 . S
O25 Zn16 1.977 . S
O25 C18 1.267 . S
C26 O27 1.160 . S
C26 O33 1.185 . S
O27 C26 1.160 . S
O28 Zn29 1.899 . S
O28 C36 1.284 . S
Zn29 O28 1.899 . S
Zn29 O30 2.032 . S
Zn29 O33 2.086 . S
Zn29 O38 1.977 . S
O30 Zn29 2.032 . S
O30 C34 1.278 . S
C31 O32 1.203 . S
C31 O38 1.267 . S
O32 C31 1.203 . S
O33 C26 1.185 . S
O33 Zn29 2.086 . S
C34 O30 1.278 . S
C34 O35 1.211 . S
O35 C34 1.211 . S
C36 O28 1.284 . S
C36 O37 1.273 . S
O37 C36 1.273 . S
O38 Zn29 1.977 . S
O38 C31 1.267 . S
C39 O40 1.160 . S
C39 O46 1.185 . S
O40 C39 1.160 . S
O41 Zn42 1.899 . S
O41 C49 1.284 . S
Zn42 O41 1.899 . S
Zn42 O43 2.032 1_554 S
Zn42 O46 2.086 . S
Zn42 O51 1.977 . S
O43 Zn42 2.032 1_556 S
O43 C47 1.278 . S
C44 O45 1.203 . S
C44 O51 1.267 . S
O45 C44 1.203 . S
O46 C39 1.185 . S
O46 Zn42 2.086 . S
C47 O43 1.278 . S
C47 O48 1.211 . S
O48 C47 1.211 . S
C49 O41 1.284 . S
C49 O50 1.273 . S
O50 C49 1.273 . S
O51 Zn42 1.977 . S
O51 C44 1.267 . S
C52 O53 1.160 . S
C52 O59 1.185 . S
O53 C52 1.160 . S
O54 Zn55 1.899 . S
O54 C62 1.284 . S
Zn55 O54 1.899 . S
Zn55 O56 2.032 . S
Zn55 O59 2.086 . S
Zn55 O64 1.977 . S
O56 Zn55 2.032 . S
O56 C60 1.278 . S
C57 O58 1.203 . S
C57 O64 1.267 . S
O58 C57 1.203 . S
O59 C52 1.185 . S
O59 Zn55 2.086 . S
C60 O56 1.278 . S
C60 O61 1.211 . S
O61 C60 1.211 . S
C62 O54 1.284 . S
C62 O63 1.273 . S
O63 C62 1.273 . S
O64 Zn55 1.977 . S
O64 C57 1.267 . S
C65 O66 1.160 . S
C65 O72 1.185 . S
O66 C65 1.160 . S
O67 Zn68 1.899 . S
O67 C75 1.284 . S
Zn68 O67 1.899 . S
Zn68 O69 2.032 . S
Zn68 O72 2.086 . S
Zn68 O77 1.977 . S
O69 Zn68 2.032 . S
O69 C73 1.278 . S
C70 O71 1.203 . S
C70 O77 1.267 . S
O71 C70 1.203 . S
O72 C65 1.185 . S
O72 Zn68 2.086 . S
C73 O69 1.278 . S
C73 O74 1.211 . S
O74 C73 1.211 . S
C75 O67 1.284 . S
C75 O76 1.273 . S
O76 C75 1.273 . S
O77 Zn68 1.977 . S
O77 C70 1.267 . S
C78 O79 1.160 . S
C78 O85 1.185 . S
O79 C78 1.160 . S
O80 Zn81 1.899 . S
O80 C88 1.284 . S
Zn81 O80 1.899 . S
Zn81 O82 2.032 . S
Zn81 O85 2.086 . S
Zn81 O90 1.977 . S
O82 Zn81 2.032 . S
O82 C86 1.278 . S
C83 O84 1.203 . S
C83 O90 1.267 . S
O84 C83 1.203 . S
O85 C78 1.185 . S
O85 Zn81 2.086 . S
C86 O82 1.278 . S
C86 O87 1.211 . S
O87 C86 1.211 . S
C88 O80 1.284 . S
C88 O89 1.273 . S
O89 C88 1.273 . S
O90 Zn81 1.977 . S
O90 C83 1.267 . S
C91 O92 1.160 . S
C91 O98 1.185 . S
O92 C91 1.160 . S
O93 Zn94 1.899 . S
O93 C101 1.284 1_655 S
Zn94 O93 1.899 . S
Zn94 O95 2.032 1_556 S
Zn94 O98 2.086 . S
Zn94 O103 1.977 . S
O95 Zn94 2.032 1_554 S
O95 C99 1.278 . S
C96 O97 1.203 . S
C96 O103 1.267 . S
O97 C96 1.203 . S
O98 C91 1.185 . S
O98 Zn94 2.086 . S
C99 O95 1.278 . S
C99 O100 1.211 . S
O100 C99 1.211 . S
C101 O93 1.284 1_455 S
C101 O102 1.273 . S
O102 C101 1.273 . S
O103 Zn94 1.977 . S
O103 C96 1.267 . S
C104 O105 1.160 . S
C104 O111 1.185 . S
O105 C104 1.160 . S
O106 Zn107 1.899 . S
O106 C114 1.284 . S
Zn107 O106 1.899 . S
Zn107 O108 2.032 . S
Zn107 O111 2.086 . S
Zn107 O116 1.977 . S
O108 Zn107 2.032 . S
O108 C112 1.278 . S
C109 O110 1.203 . S
C109 O116 1.267 . S
O110 C109 1.203 . S
O111 C104 1.185 . S
O111 Zn107 2.086 . S
C112 O108 1.278 . S
C112 O113 1.211 . S
O113 C112 1.211 . S
C114 O106 1.284 . S
C114 O115 1.273 . S
O115 C114 1.273 . S
O116 Zn107 1.977 . S
O116 C109 1.267 . S
C117 O118 1.160 . S
C117 O124 1.185 . S
O118 C117 1.160 . S
O119 Zn120 1.899 . S
O119 C127 1.284 1_455 S
Zn120 O119 1.899 . S
Zn120 O121 2.032 . S
Zn120 O124 2.086 . S
Zn120 O129 1.977 . S
O121 Zn120 2.032 . S
O121 C125 1.278 . S
C122 O123 1.203 . S
C122 O129 1.267 . S
O123 C122 1.203 . S
O124 C117 1.185 . S
O124 Zn120 2.086 . S
C125 O121 1.278 . S
C125 O126 1.211 . S
O126 C125 1.211 . S
C127 O119 1.284 1_655 S
C127 O128 1.273 . S
O128 C127 1.273 . S
O129 Zn120 1.977 . S
O129 C122 1.267 . S
C130 O131 1.160 . S
C130 O137 1.185 . S
O131 C130 1.160 . S
O132 Zn133 1.899 . S
O132 C140 1.284 . S
Zn133 O132 1.899 . S
Zn133 O134 2.032 . S
Zn133 O137 2.086 . S
Zn133 O142 1.977 . S
O134 Zn133 2.032 . S
O134 C138 1.278 . S
C135 O136 1.203 . S
C135 O142 1.267 . S
O136 C135 1.203 . S
O137 C130 1.185 . S
O137 Zn133 2.086 . S
C138 O134 1.278 . S
C138 O139 1.211 . S
O139 C138 1.211 . S
C140 O132 1.284 . S
C140 O141 1.273 . S
O141 C140 1.273 . S
O142 Zn133 1.977 . S
O142 C135 1.267 . S
C143 O144 1.160 . S
C143 O150 1.185 . S
O144 C143 1.160 . S
O145 Zn146 1.899 . S
O145 C153 1.284 . S
Zn146 O145 1.899 . S
Zn146 O147 2.032 1_556 S
Zn146 O150 2.086 . S
Zn146 O155 1.977 . S
O147 Zn146 2.032 1_554 S
O147 C151 1.278 . S
C148 O149 1.203 . S
C148 O155 1.267 . S
O149 C148 1.203 . S
O150 C143 1.185 . S
O150 Zn146 2.086 . S
C151 O147 1.278 . S
C151 O152 1.211 . S
O152 C151 1.211 . S
C153 O145 1.284 . S
C153 O154 1.273 . S
O154 C153 1.273 . S
O155 Zn146 1.977 . S
O155 C148 1.267 . S
C156 O157 1.160 . S
C156 O163 1.185 . S
O157 C156 1.160 . S
O158 Zn159 1.899 . S
O158 C166 1.284 . S
Zn159 O158 1.899 . S
Zn159 O160 2.032 . S
Zn159 O163 2.086 . S
Zn159 O168 1.977 . S
O160 Zn159 2.032 . S
O160 C164 1.278 . S
C161 O162 1.203 . S
C161 O168 1.267 . S
O162 C161 1.203 . S
O163 C156 1.185 . S
O163 Zn159 2.086 . S
C164 O160 1.278 . S
C164 O165 1.211 . S
O165 C164 1.211 . S
C166 O158 1.284 . S
C166 O167 1.273 . S
O167 C166 1.273 . S
O168 Zn159 1.977 . S
O168 C161 1.267 . S
C169 O170 1.160 . S
C169 O176 1.185 . S
O170 C169 1.160 . S
O171 Zn172 1.899 . S
O171 C179 1.284 . S
Zn172 O171 1.899 . S
Zn172 O173 2.032 . S
Zn172 O176 2.086 . S
Zn172 O181 1.977 . S
O173 Zn172 2.032 . S
O173 C177 1.278 . S
C174 O175 1.203 . S
C174 O181 1.267 . S
O175 C174 1.203 . S
O176 C169 1.185 . S
O176 Zn172 2.086 . S
C177 O173 1.278 . S
C177 O178 1.211 . S
O178 C177 1.211 . S
C179 O171 1.284 . S
C179 O180 1.273 . S
O180 C179 1.273 . S
O181 Zn172 1.977 . S
O181 C174 1.267 . S
C182 O183 1.160 . S
C182 O189 1.185 . S
O183 C182 1.160 . S
O184 Zn185 1.899 . S
O184 C192 1.284 . S
Zn185 O184 1.899 . S
Zn185 O186 2.032 . S
Zn185 O189 2.086 . S
Zn185 O194 1.977 . S
O186 Zn185 2.032 . S
O186 C190 1.278 . S
C187 O188 1.203 . S
C187 O194 1.267 . S
O188 C187 1.203 . S
O189 C182 1.185 . S
O189 Zn185 2.086 . S
C190 O186 1.278 . S
C190 O191 1.211 . S
O191 C190 1.211 . S
C192 O184 1.284 . S
C192 O193 1.273 . S
O193 C192 1.273 . S
O194 Zn185 1.977 . S
O194 C187 1.267 . S
C195 O196 1.160 . S
C195 O202 1.185 . S
O196 C195 1.160 . S
O197 Zn198 1.899 . S
O197 C205 1.284 1_455 S
Zn198 O197 1.899 . S
Zn198 O199 2.032 1_554 S
Zn198 O202 2.086 . S
Zn198 O207 1.977 . S
O199 Zn198 2.032 1_556 S
O199 C203 1.278 . S
C200 O201 1.203 . S
C200 O207 1.267 . S
O201 C200 1.203 . S
O202 C195 1.185 . S
O202 Zn198 2.086 . S
C203 O199 1.278 . S
C203 O204 1.211 . S
O204 C203 1.211 . S
C205 O197 1.284 1_655 S
C205 O206 1.273 . S
O206 C205 1.273 . S
O207 Zn198 1.977 . S
O207 C200 1.267 . S
C208 O209 1.160 . S
C208 O215 1.185 . S
O209 C208 1.160 . S
O210 Zn211 1.899 . S
O210 C218 1.284 . S
Zn211 O210 1.899 . S
Zn211 O212 2.032 . S
Zn211 O215 2.086 . S
Zn211 O220 1.977 . S
O212 Zn211 2.032 . S
O212 C216 1.278 . S
C213 O214 1.203 . S
C213 O220 1.267 . S
O214 C213 1.203 . S
O215 C208 1.185 . S
O215 Zn211 2.086 . S
C216 O212 1.278 . S
C216 O217 1.211 . S
O217 C216 1.211 . S
C218 O210 1.284 . S
C218 O219 1.273 . S
O219 C218 1.273 . S
O220 Zn211 1.977 . S
O220 C213 1.267 . S
C221 O222 1.160 . S
C221 O228 1.185 . S
O222 C221 1.160 . S
O223 Zn224 1.899 . S
O223 C231 1.284 . S
Zn224 O223 1.899 . S
Zn224 O225 2.032 1_554 S
Zn224 O228 2.086 . S
Zn224 O233 1.977 . S
O225 Zn224 2.032 1_556 S
O225 C229 1.278 . S
C226 O227 1.203 . S
C226 O233 1.267 . S
O227 C226 1.203 . S
O228 C221 1.185 . S
O228 Zn224 2.086 . S
C229 O225 1.278 . S
C229 O230 1.211 . S
O230 C229 1.211 . S
C231 O223 1.284 . S
C231 O232 1.273 . S
O232 C231 1.273 . S
O233 Zn224 1.977 . S
O233 C226 1.267 . S
C234 O235 1.160 . S
C234 O241 1.185 . S
O235 C234 1.160 . S
O236 Zn237 1.899 . S
O236 C244 1.284 . S
Zn237 O236 1.899 . S
Zn237 O238 2.032 . S
Zn237 O241 2.086 . S
Zn237 O246 1.977 . S
O238 Zn237 2.032 . S
O238 C242 1.278 . S
C239 O240 1.203 . S
C239 O246 1.267 . S
O240 C239 1.203 . S
O241 C234 1.185 . S
O241 Zn237 2.086 . S
C242 O238 1.278 . S
C242 O243 1.211 . S
O243 C242 1.211 . S
C244 O236 1.284 . S
C244 O245 1.273 . S
O245 C244 1.273 . S
O246 Zn237 1.977 . S
O246 C239 1.267 . S
C247 O248 1.160 . S
C247 O254 1.185 . S
O248 C247 1.160 . S
O249 Zn250 1.899 . S
O249 C257 1.284 1_455 S
Zn250 O249 1.899 . S
Zn250 O251 2.032 . S
Zn250 O254 2.086 . S
Zn250 O259 1.977 . S
O251 Zn250 2.032 . S
O251 C255 1.278 . S
C252 O253 1.203 . S
C252 O259 1.267 . S
O253 C252 1.203 . S
O254 C247 1.185 . S
O254 Zn250 2.086 . S
C255 O251 1.278 . S
C255 O256 1.211 . S
O256 C255 1.211 . S
C257 O249 1.284 1_655 S
C257 O258 1.273 . S
O258 C257 1.273 . S
O259 Zn250 1.977 . S
O259 C252 1.267 . S
C260 O261 1.160 . S
C260 O267 1.185 . S
O261 C260 1.160 . S
O262 Zn263 1.899 . S
O262 C270 1.284 . S
Zn263 O262 1.899 . S
Zn263 O264 2.032 . S
Zn263 O267 2.086 . S
Zn263 O272 1.977 . S
O264 Zn263 2.032 . S
O264 C268 1.278 . S
C265 O266 1.203 . S
C265 O272 1.267 . S
O266 C265 1.203 . S
O267 C260 1.185 . S
O267 Zn263 2.086 . S
C268 O264 1.278 . S
C268 O269 1.211 . S
O269 C268 1.211 . S
C270 O262 1.284 . S
C270 O271 1.273 . S
O271 C270 1.273 . S
O272 Zn263 1.977 . S
O272 C265 1.267 . S
C273 O274 1.160 . S
C273 O280 1.185 . S
O274 C273 1.160 . S
O275 Zn276 1.899 . S
O275 C283 1.284 1_455 S
Zn276 O275 1.899 . S
Zn276 O277 2.032 1_556 S
Zn276 O280 2.086 . S
Zn276 O285 1.977 . S
O277 Zn276 2.032 1_554 S
O277 C281 1.278 . S
C278 O279 1.203 . S
C278 O285 1.267 . S
O279 C278 1.203 . S
O280 C273 1.185 . S
O280 Zn276 2.086 . S
C281 O277 1.278 . S
C281 O282 1.211 . S
O282 C281 1.211 . S
C283 O275 1.284 1_655 S
C283 O284 1.273 . S
O284 C283 1.273 . S
O285 Zn276 1.977 . S
O285 C278 1.267 . S
C286 O287 1.160 . S
C286 O293 1.185 . S
O287 C286 1.160 . S
O288 Zn289 1.899 . S
O288 C296 1.284 . S
Zn289 O288 1.899 . S
Zn289 O290 2.032 . S
Zn289 O293 2.086 . S
Zn289 O298 1.977 . S
O290 Zn289 2.032 . S
O290 C294 1.278 . S
C291 O292 1.203 . S
C291 O298 1.267 . S
O292 C291 1.203 . S
O293 C286 1.185 . S
O293 Zn289 2.086 . S
C294 O290 1.278 . S
C294 O295 1.211 . S
O295 C294 1.211 . S
C296 O288 1.284 . S
C296 O297 1.273 . S
O297 C296 1.273 . S
O298 Zn289 1.977 . S
O298 C291 1.267 . S
C299 O300 1.160 . S
C299 O306 1.185 . S
O300 C299 1.160 . S
O301 Zn302 1.899 . S
O301 C309 1.284 . S
Zn302 O301 1.899 . S
Zn302 O303 2.032 . S
Zn302 O306 2.086 . S
Zn302 O311 1.977 . S
O303 Zn302 2.032 . S
O303 C307 1.278 . S
C304 O305 1.203 . S
C304 O311 1.267 . S
O305 C304 1.203 . S
O306 C299 1.185 . S
O306 Zn302 2.086 . S
C307 O303 1.278 . S
C307 O308 1.211 . S
O308 C307 1.211 . S
C309 O301 1.284 . S
C309 O310 1.273 . S
O310 C309 1.273 . S
O311 Zn302 1.977 . S
O311 C304 1.267 . S
C312 O313 1.160 . S
C312 O319 1.185 . S
O313 C312 1.160 . S
O314 Zn315 1.899 . S
O314 C322 1.284 . S
Zn315 O314 1.899 . S
Zn315 O316 2.032 . S
Zn315 O319 2.086 . S
Zn315 O324 1.977 . S
O316 Zn315 2.032 . S
O316 C320 1.278 . S
C317 O318 1.203 . S
C317 O324 1.267 . S
O318 C317 1.203 . S
O319 C312 1.185 . S
O319 Zn315 2.086 . S
C320 O316 1.278 . S
C320 O321 1.211 . S
O321 C320 1.211 . S
C322 O314 1.284 . S
C322 O323 1.273 . S
O323 C322 1.273 . S
O324 Zn315 1.977 . S
O324 C317 1.267 . S
C325 O326 1.160 . S
C325 O332 1.185 . S
O326 C325 1.160 . S
O327 Zn328 1.899 . S
O327 C335 1.284 . S
Zn328 O327 1.899 . S
Zn328 O329 2.032 1_556 S
Zn328 O332 2.086 . S
Zn328 O337 1.977 . S
O329 Zn328 2.032 1_554 S
O329 C333 1.278 . S
C330 O331 1.203 . S
C330 O337 1.267 . S
O331 C330 1.203 . S
O332 C325 1.185 . S
O332 Zn328 2.086 . S
C333 O329 1.278 . S
C333 O334 1.211 . S
O334 C333 1.211 . S
C335 O327 1.284 . S
C335 O336 1.273 . S
O336 C335 1.273 . S
O337 Zn328 1.977 . S
O337 C330 1.267 . S
C338 O339 1.160 . S
C338 O345 1.185 . S
O339 C338 1.160 . S
O340 Zn341 1.899 . S
O340 C348 1.284 . S
Zn341 O340 1.899 . S
Zn341 O342 2.032 . S
Zn341 O345 2.086 . S
Zn341 O350 1.977 . S
O342 Zn341 2.032 . S
O342 C346 1.278 . S
C343 O344 1.203 . S
C343 O350 1.267 . S
O344 C343 1.203 . S
O345 C338 1.185 . S
O345 Zn341 2.086 . S
C346 O342 1.278 . S
C346 O347 1.211 . S
O347 C346 1.211 . S
C348 O340 1.284 . S
C348 O349 1.273 . S
O349 C348 1.273 . S
O350 Zn341 1.977 . S
O350 C343 1.267 . S
C351 O352 1.160 . S
C351 O358 1.185 . S
O352 C351 1.160 . S
O353 Zn354 1.899 . S
O353 C361 1.284 1_655 S
Zn354 O353 1.899 . S
Zn354 O355 2.032 . S
Zn354 O358 2.086 . S
Zn354 O363 1.977 . S
O355 Zn354 2.032 . S
O355 C359 1.278 . S
C356 O357 1.203 . S
C356 O363 1.267 . S
O357 C356 1.203 . S
O358 C351 1.185 . S
O358 Zn354 2.086 . S
C359 O355 1.278 . S
C359 O360 1.211 . S
O360 C359 1.211 . S
C361 O353 1.284 1_455 S
C361 O362 1.273 . S
O362 C361 1.273 . S
O363 Zn354 1.977 . S
O363 C356 1.267 . S
C364 O365 1.160 . S
C364 O371 1.185 . S
O365 C364 1.160 . S
O366 Zn367 1.899 . S
O366 C374 1.284 . S
Zn367 O366 1.899 . S
Zn367 O368 2.032 . S
Zn367 O371 2.086 . S
Zn367 O376 1.977 . S
O368 Zn367 2.032 . S
O368 C372 1.278 . S
C369 O370 1.203 . S
C369 O376 1.267 . S
O370 C369 1.203 . S
O371 C364 1.185 . S
O371 Zn367 2.086 . S
C372 O368 1.278 . S
C372 O373 1.211 . S
O373 C372 1.211 . S
C374 O366 1.284 . S
C374 O375 1.273 . S
O375 C374 1.273 . S
O376 Zn367 1.977 . S
O376 C369 1.267 . S
C377 O378 1.160 . S
C377 O384 1.185 . S
O378 C377 1.160 . S
O379 Zn380 1.899 . S
O379 C387 1.284 1_655 S
Zn380 O379 1.899 . S
Zn380 O381 2.032 1_554 S
Zn380 O384 2.086 . S
Zn380 O389 1.977 . S
O381 Zn380 2.032 1_556 S
O381 C385 1.278 . S
C382 O383 1.203 . S
C382 O389 1.267 . S
O383 C382 1.203 . S
O384 C377 1.185 . S
O384 Zn380 2.086 . S
C385 O381 1.278 . S
C385 O386 1.211 . S
O386 C385 1.211 . S
C387 O379 1.284 1_455 S
C387 O388 1.273 . S
O388 C387 1.273 . S
O389 Zn380 1.977 . S
O389 C382 1.267 . S
C390 O391 1.160 . S
C390 O397 1.185 . S
O391 C390 1.160 . S
O392 Zn393 1.899 . S
O392 C400 1.284 . S
Zn393 O392 1.899 . S
Zn393 O394 2.032 . S
Zn393 O397 2.086 . S
Zn393 O402 1.977 . S
O394 Zn393 2.032 . S
O394 C398 1.278 . S
C395 O396 1.203 . S
C395 O402 1.267 . S
O396 C395 1.203 . S
O397 C390 1.185 . S
O397 Zn393 2.086 . S
C398 O394 1.278 . S
C398 O399 1.211 . S
O399 C398 1.211 . S
C400 O392 1.284 . S
C400 O401 1.273 . S
O401 C400 1.273 . S
O402 Zn393 1.977 . S
O402 C395 1.267 . S
C403 O404 1.160 . S
C403 O410 1.185 . S
O404 C403 1.160 . S
O405 Zn406 1.899 . S
O405 C413 1.284 . S
Zn406 O405 1.899 . S
Zn406 O407 2.032 . S
Zn406 O410 2.086 . S
Zn406 O415 1.977 . S
O407 Zn406 2.032 . S
O407 C411 1.278 . S
C408 O409 1.203 . S
C408 O415 1.267 . S
O409 C408 1.203 . S
O410 C403 1.185 . S
O410 Zn406 2.086 . S
C411 O407 1.278 . S
C411 O412 1.211 . S
O412 C411 1.211 . S
C413 O405 1.284 . S
C413 O414 1.273 . S
O414 C413 1.273 . S
O415 Zn406 1.977 . S
O415 C408 1.267 . S
H416 C424 0.950 . S
H417 C429 0.950 . S
H418 C426 0.950 . S
H419 C428 0.950 . S
H420 C430 0.950 . S
H421 C432 0.950 . S
H422 C434 0.950 . S
H423 C435 0.950 . S
C424 H416 0.950 . S
C424 C425 1.386 . S
C424 C426 1.391 . S
C425 C424 1.386 . S
C425 C429 1.393 . S
C426 H418 0.950 . S
C426 C424 1.391 . S
C426 C427 1.400 . S
C427 C426 1.400 . S
C427 C428 1.398 . S
C427 C433 1.491 . S
C428 H419 0.950 . S
C428 C427 1.398 . S
C428 C429 1.391 . S
C429 H417 0.950 . S
C429 C425 1.393 . S
C429 C428 1.391 . S
C430 H420 0.950 . S
C430 C431 1.386 . S
C430 C432 1.391 . S
C431 C430 1.386 . S
C431 C435 1.393 . S
C432 H421 0.950 . S
C432 C430 1.391 . S
C432 C433 1.400 . S
C433 C427 1.491 . S
C433 C432 1.400 . S
C433 C434 1.398 . S
C434 H422 0.950 . S
C434 C433 1.398 . S
C434 C435 1.391 . S
C435 H423 0.950 . S
C435 C431 1.393 . S
C435 C434 1.391 . S
H436 C444 0.950 . S
H437 C449 0.994 . S
H438 C446 0.950 . S
H439 C448 0.950 . S
H440 C450 0.950 . S
H441 C452 0.950 . S
H442 C454 0.950 . S
H443 C455 0.950 . S
C444 H436 0.950 . S
C444 C445 1.386 . S
C444 C446 1.391 . S
C445 C444 1.386 . S
C445 C449 1.393 . S
C446 H438 0.950 . S
C446 C444 1.391 . S
C446 C447 1.400 . S
C447 C446 1.400 . S
C447 C448 1.398 . S
C447 C453 1.491 . S
C448 H439 0.950 . S
C448 C447 1.398 . S
C448 C449 1.391 . S
C449 H437 0.994 . S
C449 C445 1.393 . S
C449 C448 1.391 . S
C450 H440 0.950 . S
C450 C451 1.386 . S
C450 C452 1.391 . S
C451 C450 1.386 . S
C451 C455 1.393 . S
C452 H441 0.950 . S
C452 C450 1.391 . S
C452 C453 1.400 . S
C453 C447 1.491 . S
C453 C452 1.400 . S
C453 C454 1.398 . S
C454 H442 0.950 . S
C454 C453 1.398 . S
C454 C455 1.391 . S
C455 H443 0.950 . S
C455 C451 1.393 . S
C455 C454 1.391 . S
H456 C464 0.950 . S
H457 C469 0.950 . S
H458 C466 0.950 . S
H459 C468 0.950 . S
H460 C470 0.950 . S
H461 C472 0.950 . S
H462 C474 0.950 . S
H463 C475 0.950 . S
C464 H456 0.950 . S
C464 C465 1.386 . S
C464 C466 1.391 . S
C465 C464 1.386 . S
C465 C469 1.393 . S
C466 H458 0.950 . S
C466 C464 1.391 . S
C466 C467 1.400 . S
C467 C466 1.400 . S
C467 C468 1.398 . S
C467 C473 1.491 . S
C468 H459 0.950 . S
C468 C467 1.398 . S
C468 C469 1.391 . S
C469 H457 0.950 . S
C469 C465 1.393 . S
C469 C468 1.391 . S
C470 H460 0.950 . S
C470 C471 1.386 . S
C470 C472 1.391 . S
C471 C470 1.386 . S
C471 C475 1.393 . S
C472 H461 0.950 . S
C472 C470 1.391 . S
C472 C473 1.400 . S
C473 C467 1.491 . S
C473 C472 1.400 . S
C473 C474 1.398 . S
C474 H462 0.950 . S
C474 C473 1.398 . S
C474 C475 1.391 . S
C475 H463 0.950 . S
C475 C471 1.393 . S
C475 C474 1.391 . S
H476 C484 0.950 . S
H477 C489 0.950 . S
H478 C486 0.950 . S
H479 C488 0.950 . S
H480 C490 0.950 . S
H481 C492 0.950 . S
H482 C494 0.950 . S
H483 C495 0.950 . S
C484 H476 0.950 . S
C484 C485 1.386 . S
C484 C486 1.391 . S
C485 C484 1.386 . S
C485 C489 1.393 . S
C486 H478 0.950 . S
C486 C484 1.391 . S
C486 C487 1.400 . S
C487 C486 1.400 . S
C487 C488 1.398 . S
C487 C493 1.491 . S
C488 H479 0.950 . S
C488 C487 1.398 . S
C488 C489 1.391 . S
C489 H477 0.950 . S
C489 C485 1.393 . S
C489 C488 1.391 . S
C490 H480 0.950 . S
C490 C491 1.386 . S
C490 C492 1.391 . S
C491 C490 1.386 . S
C491 C495 1.393 . S
C492 H481 0.950 . S
C492 C490 1.391 . S
C492 C493 1.400 . S
C493 C487 1.491 . S
C493 C492 1.400 . S
C493 C494 1.398 . S
C494 H482 0.950 . S
C494 C493 1.398 . S
C494 C495 1.391 . S
C495 H483 0.950 . S
C495 C491 1.393 . S
C495 C494 1.391 . S
H496 C504 0.950 . S
H497 C509 0.950 . S
H498 C506 0.950 . S
H499 C508 0.950 . S
H500 C510 0.950 . S
H501 C512 0.950 . S
H502 C514 0.950 . S
H503 C515 0.950 . S
C504 H496 0.950 . S
C504 C505 1.386 . S
C504 C506 1.391 . S
C505 C504 1.386 . S
C505 C509 1.393 . S
C506 H498 0.950 . S
C506 C504 1.391 . S
C506 C507 1.400 . S
C507 C506 1.400 . S
C507 C508 1.398 . S
C507 C513 1.491 . S
C508 H499 0.950 . S
C508 C507 1.398 . S
C508 C509 1.391 . S
C509 H497 0.950 . S
C509 C505 1.393 . S
C509 C508 1.391 . S
C510 H500 0.950 . S
C510 C511 1.386 . S
C510 C512 1.391 . S
C511 C510 1.386 . S
C511 C515 1.393 . S
C512 H501 0.950 . S
C512 C510 1.391 . S
C512 C513 1.400 . S
C513 C507 1.491 . S
C513 C512 1.400 . S
C513 C514 1.398 . S
C514 H502 0.950 . S
C514 C513 1.398 . S
C514 C515 1.391 . S
C515 H503 0.950 . S
C515 C511 1.393 . S
C515 C514 1.391 . S
H516 C524 0.950 . S
H517 C529 0.950 . S
H518 C526 0.950 . S
H519 C528 0.950 . S
H520 C530 0.950 . S
H521 C532 0.950 . S
H522 C534 0.950 . S
H523 C535 0.950 . S
C524 H516 0.950 . S
C524 C525 1.386 . S
C524 C526 1.391 . S
C525 C524 1.386 . S
C525 C529 1.393 . S
C526 H518 0.950 . S
C526 C524 1.391 . S
C526 C527 1.400 . S
C527 C526 1.400 . S
C527 C528 1.398 . S
C527 C533 1.491 . S
C528 H519 0.950 . S
C528 C527 1.398 . S
C528 C529 1.391 . S
C529 H517 0.950 . S
C529 C525 1.393 . S
C529 C528 1.391 . S
C530 H520 0.950 . S
C530 C531 1.386 . S
C530 C532 1.391 . S
C531 C530 1.386 . S
C531 C535 1.393 . S
C532 H521 0.950 . S
C532 C530 1.391 . S
C532 C533 1.400 . S
C533 C527 1.491 . S
C533 C532 1.400 . S
C533 C534 1.398 . S
C534 H522 0.950 . S
C534 C533 1.398 . S
C534 C535 1.391 . S
C535 H523 0.950 . S
C535 C531 1.393 . S
C535 C534 1.391 . S
H536 C544 0.950 . S
H537 C549 0.950 . S
H538 C546 0.950 . S
H539 C548 0.950 . S
H540 C550 0.950 . S
H541 C552 0.950 . S
H542 C554 0.950 . S
H543 C555 0.950 . S
C544 H536 0.950 . S
C544 C545 1.386 . S
C544 C546 1.391 . S
C545 C544 1.386 . S
C545 C549 1.393 . S
C546 H538 0.950 . S
C546 C544 1.391 . S
C546 C547 1.400 . S
C547 C546 1.400 . S
C547 C548 1.398 . S
C547 C553 1.491 . S
C548 H539 0.950 . S
C548 C547 1.398 . S
C548 C549 1.391 . S
C549 H537 0.950 . S
C549 C545 1.393 . S
C549 C548 1.391 . S
C550 H540 0.950 . S
C550 C551 1.386 . S
C550 C552 1.391 . S
C551 C550 1.386 . S
C551 C555 1.393 . S
C552 H541 0.950 . S
C552 C550 1.391 . S
C552 C553 1.400 . S
C553 C547 1.491 . S
C553 C552 1.400 . S
C553 C554 1.398 . S
C554 H542 0.950 . S
C554 C553 1.398 . S
C554 C555 1.391 . S
C555 H543 0.950 . S
C555 C551 1.393 . S
C555 C554 1.391 . S
H556 C564 0.950 . S
H557 C569 0.950 . S
H558 C566 0.950 . S
H559 C568 0.950 . S
H560 C570 0.950 . S
H561 C572 0.950 . S
H562 C574 0.950 . S
H563 C575 0.950 . S
C564 H556 0.950 . S
C564 C565 1.386 . S
C564 C566 1.391 . S
C565 C564 1.386 . S
C565 C569 1.393 . S
C566 H558 0.950 . S
C566 C564 1.391 . S
C566 C567 1.400 . S
C567 C566 1.400 . S
C567 C568 1.398 . S
C567 C573 1.491 . S
C568 H559 0.950 . S
C568 C567 1.398 . S
C568 C569 1.391 . S
C569 H557 0.950 . S
C569 C565 1.393 . S
C569 C568 1.391 . S
C570 H560 0.950 . S
C570 C571 1.386 . S
C570 C572 1.391 . S
C571 C570 1.386 . S
C571 C575 1.393 . S
C572 H561 0.950 . S
C572 C570 1.391 . S
C572 C573 1.400 . S
C573 C567 1.491 . S
C573 C572 1.400 . S
C573 C574 1.398 . S
C574 H562 0.950 . S
C574 C573 1.398 . S
C574 C575 1.391 . S
C575 H563 0.950 . S
C575 C571 1.393 . S
C575 C574 1.391 . S
H576 C584 0.950 . S
H577 C589 0.950 . S
H578 C586 0.950 . S
H579 C588 0.950 . S
H580 C590 0.950 . S
H581 C592 0.950 . S
H582 C594 0.950 . S
H583 C595 0.950 . S
C584 H576 0.950 . S
C584 C585 1.386 . S
C584 C586 1.391 . S
C585 C584 1.386 . S
C585 C589 1.393 . S
C586 H578 0.950 . S
C586 C584 1.391 . S
C586 C587 1.400 . S
C587 C586 1.400 . S
C587 C588 1.398 . S
C587 C593 1.491 . S
C588 H579 0.950 . S
C588 C587 1.398 . S
C588 C589 1.391 . S
C589 H577 0.950 . S
C589 C585 1.393 . S
C589 C588 1.391 . S
C590 H580 0.950 . S
C590 C591 1.386 . S
C590 C592 1.391 . S
C591 C590 1.386 . S
C591 C595 1.393 . S
C592 H581 0.950 . S
C592 C590 1.391 . S
C592 C593 1.400 . S
C593 C587 1.491 . S
C593 C592 1.400 . S
C593 C594 1.398 . S
C594 H582 0.950 . S
C594 C593 1.398 . S
C594 C595 1.391 . S
C595 H583 0.950 . S
C595 C591 1.393 . S
C595 C594 1.391 . S
H596 C604 0.950 . S
H597 C609 0.950 . S
H598 C606 0.950 . S
H599 C608 0.950 . S
H600 C610 0.950 . S
H601 C612 0.950 . S
H602 C614 0.950 . S
H603 C615 0.950 . S
C604 H596 0.950 . S
C604 C605 1.386 . S
C604 C606 1.391 . S
C605 C604 1.386 . S
C605 C609 1.393 . S
C606 H598 0.950 . S
C606 C604 1.391 . S
C606 C607 1.400 . S
C607 C606 1.400 . S
C607 C608 1.398 . S
C607 C613 1.491 . S
C608 H599 0.950 . S
C608 C607 1.398 . S
C608 C609 1.391 . S
C609 H597 0.950 . S
C609 C605 1.393 . S
C609 C608 1.391 . S
C610 H600 0.950 . S
C610 C611 1.386 . S
C610 C612 1.391 . S
C611 C610 1.386 . S
C611 C615 1.393 . S
C612 H601 0.950 . S
C612 C610 1.391 . S
C612 C613 1.400 . S
C613 C607 1.491 . S
C613 C612 1.400 . S
C613 C614 1.398 . S
C614 H602 0.950 . S
C614 C613 1.398 . S
C614 C615 1.391 . S
C615 H603 0.950 . S
C615 C611 1.393 . S
C615 C614 1.391 . S
H616 C624 0.950 . S
H617 C629 0.950 . S
H618 C626 0.950 . S
H619 C628 0.950 . S
H620 C630 0.950 . S
H621 C632 0.950 . S
H622 C634 0.950 . S
H623 C635 0.950 . S
C624 H616 0.950 . S
C624 C625 1.386 . S
C624 C626 1.391 . S
C625 C624 1.386 . S
C625 C629 1.393 . S
C626 H618 0.950 . S
C626 C624 1.391 . S
C626 C627 1.400 . S
C627 C626 1.400 . S
C627 C628 1.398 . S
C627 C633 1.491 . S
C628 H619 0.950 . S
C628 C627 1.398 . S
C628 C629 1.391 . S
C629 H617 0.950 . S
C629 C625 1.393 . S
C629 C628 1.391 . S
C630 H620 0.950 . S
C630 C631 1.386 . S
C630 C632 1.391 . S
C631 C630 1.386 . S
C631 C635 1.393 . S
C632 H621 0.950 . S
C632 C630 1.391 . S
C632 C633 1.400 . S
C633 C627 1.491 . S
C633 C632 1.400 . S
C633 C634 1.398 . S
C634 H622 0.950 . S
C634 C633 1.398 . S
C634 C635 1.391 . S
C635 H623 0.950 . S
C635 C631 1.393 . S
C635 C634 1.391 . S
H636 C644 0.950 . S
H637 C649 0.950 . S
H638 C646 0.950 . S
H639 C648 0.950 . S
H640 C650 0.950 . S
H641 C652 0.950 . S
H642 C654 0.950 . S
H643 C655 0.950 . S
C644 H636 0.950 . S
C644 C645 1.386 . S
C644 C646 1.391 . S
C645 C644 1.386 . S
C645 C649 1.393 . S
C646 H638 0.950 . S
C646 C644 1.391 . S
C646 C647 1.400 . S
C647 C646 1.400 . S
C647 C648 1.398 . S
C647 C653 1.491 . S
C648 H639 0.950 . S
C648 C647 1.398 . S
C648 C649 1.391 . S
C649 H637 0.950 . S
C649 C645 1.393 . S
C649 C648 1.391 . S
C650 H640 0.950 . S
C650 C651 1.386 . S
C650 C652 1.391 . S
C651 C650 1.386 . S
C651 C655 1.393 . S
C652 H641 0.950 . S
C652 C650 1.391 . S
C652 C653 1.400 . S
C653 C647 1.491 . S
C653 C652 1.400 . S
C653 C654 1.398 . S
C654 H642 0.950 . S
C654 C653 1.398 . S
C654 C655 1.391 . S
C655 H643 0.950 . S
C655 C651 1.393 . S
C655 C654 1.391 . S
H656 C664 0.950 . S
H657 C669 0.950 . S
H658 C666 0.950 . S
H659 C668 0.950 . S
H660 C670 0.950 . S
H661 C672 0.950 . S
H662 C674 0.950 . S
H663 C675 0.950 . S
C664 H656 0.950 . S
C664 C665 1.386 . S
C664 C666 1.391 . S
C665 C664 1.386 . S
C665 C669 1.393 . S
C666 H658 0.950 . S
C666 C664 1.391 . S
C666 C667 1.400 . S
C667 C666 1.400 . S
C667 C668 1.398 . S
C667 C673 1.491 . S
C668 H659 0.950 . S
C668 C667 1.398 . S
C668 C669 1.391 . S
C669 H657 0.950 . S
C669 C665 1.393 . S
C669 C668 1.391 . S
C670 H660 0.950 . S
C670 C671 1.386 . S
C670 C672 1.391 . S
C671 C670 1.386 . S
C671 C675 1.393 . S
C672 H661 0.950 . S
C672 C670 1.391 . S
C672 C673 1.400 . S
C673 C667 1.491 . S
C673 C672 1.400 . S
C673 C674 1.398 . S
C674 H662 0.950 . S
C674 C673 1.398 . S
C674 C675 1.391 . S
C675 H663 0.950 . S
C675 C671 1.393 . S
C675 C674 1.391 . S
H676 C684 0.950 . S
H677 C689 0.950 . S
H678 C686 0.950 . S
H679 C688 0.950 . S
H680 C690 0.950 . S
H681 C692 0.950 . S
H682 C694 0.950 . S
H683 C695 0.950 . S
C684 H676 0.950 . S
C684 C685 1.386 . S
C684 C686 1.391 . S
C685 C684 1.386 . S
C685 C689 1.393 . S
C686 H678 0.950 . S
C686 C684 1.391 . S
C686 C687 1.400 . S
C687 C686 1.400 . S
C687 C688 1.398 . S
C687 C693 1.491 . S
C688 H679 0.950 . S
C688 C687 1.398 . S
C688 C689 1.391 . S
C689 H677 0.950 . S
C689 C685 1.393 . S
C689 C688 1.391 . S
C690 H680 0.950 . S
C690 C691 1.386 . S
C690 C692 1.391 . S
C691 C690 1.386 . S
C691 C695 1.393 . S
C692 H681 0.950 . S
C692 C690 1.391 . S
C692 C693 1.400 . S
C693 C687 1.491 . S
C693 C692 1.400 . S
C693 C694 1.398 . S
C694 H682 0.950 . S
C694 C693 1.398 . S
C694 C695 1.391 . S
C695 H683 0.950 . S
C695 C691 1.393 . S
C695 C694 1.391 . S
H696 C704 0.950 . S
H697 C709 0.950 . S
H698 C706 0.950 . S
H699 C708 0.950 . S
H700 C710 0.950 . S
H701 C712 0.950 . S
H702 C714 0.950 . S
H703 C715 0.950 . S
C704 H696 0.950 . S
C704 C705 1.386 . S
C704 C706 1.391 . S
C705 C704 1.386 . S
C705 C709 1.393 . S
C706 H698 0.950 . S
C706 C704 1.391 . S
C706 C707 1.400 . S
C707 C706 1.400 . S
C707 C708 1.398 . S
C707 C713 1.491 . S
C708 H699 0.950 . S
C708 C707 1.398 . S
C708 C709 1.391 . S
C709 H697 0.950 . S
C709 C705 1.393 . S
C709 C708 1.391 . S
C710 H700 0.950 . S
C710 C711 1.386 . S
C710 C712 1.391 . S
C711 C710 1.386 . S
C711 C715 1.393 . S
C712 H701 0.950 . S
C712 C710 1.391 . S
C712 C713 1.400 . S
C713 C707 1.491 . S
C713 C712 1.400 . S
C713 C714 1.398 . S
C714 H702 0.950 . S
C714 C713 1.398 . S
C714 C715 1.391 . S
C715 H703 0.950 . S
C715 C711 1.393 . S
C715 C714 1.391 . S
H716 C724 0.950 . S
H717 C729 0.950 . S
H718 C726 0.950 . S
H719 C728 0.950 . S
H720 C730 0.950 . S
H721 C732 0.950 . S
H722 C734 0.950 . S
H723 C735 0.950 . S
C724 H716 0.950 . S
C724 C725 1.386 . S
C724 C726 1.391 . S
C725 C724 1.386 . S
C725 C729 1.393 . S
C726 H718 0.950 . S
C726 C724 1.391 . S
C726 C727 1.400 . S
C727 C726 1.400 . S
C727 C728 1.398 . S
C727 C733 1.491 . S
C728 H719 0.950 . S
C728 C727 1.398 . S
C728 C729 1.391 . S
C729 H717 0.950 . S
C729 C725 1.393 . S
C729 C728 1.391 . S
C730 H720 0.950 . S
C730 C731 1.386 . S
C730 C732 1.391 . S
C731 C730 1.386 . S
C731 C735 1.393 . S
C732 H721 0.950 . S
C732 C730 1.391 . S
C732 C733 1.400 . S
C733 C727 1.491 . S
C733 C732 1.400 . S
C733 C734 1.398 . S
C734 H722 0.950 . S
C734 C733 1.398 . S
C734 C735 1.391 . S
C735 H723 0.950 . S
C735 C731 1.393 . S
C735 C734 1.391 . S
H736 C744 0.950 . S
H737 C749 0.950 . S
H738 C746 0.950 . S
H739 C748 0.950 . S
H740 C750 0.950 . S
H741 C752 0.950 . S
H742 C754 0.950 . S
H743 C755 0.950 . S
C744 H736 0.950 . S
C744 C745 1.386 . S
C744 C746 1.391 . S
C745 C744 1.386 . S
C745 C749 1.393 . S
C746 H738 0.950 . S
C746 C744 1.391 . S
C746 C747 1.400 . S
C747 C746 1.400 . S
C747 C748 1.398 . S
C747 C753 1.491 . S
C748 H739 0.950 . S
C748 C747 1.398 . S
C748 C749 1.391 . S
C749 H737 0.950 . S
C749 C745 1.393 . S
C749 C748 1.391 . S
C750 H740 0.950 . S
C750 C751 1.386 . S
C750 C752 1.391 . S
C751 C750 1.386 . S
C751 C755 1.393 . S
C752 H741 0.950 . S
C752 C750 1.391 . S
C752 C753 1.400 . S
C753 C747 1.491 . S
C753 C752 1.400 . S
C753 C754 1.398 . S
C754 H742 0.950 . S
C754 C753 1.398 . S
C754 C755 1.391 . S
C755 H743 0.950 . S
C755 C751 1.393 . S
C755 C754 1.391 . S
H756 C764 0.950 . S
H757 C769 0.950 . S
H758 C766 0.950 . S
H759 C768 0.950 . S
H760 C770 0.950 . S
H761 C772 0.950 . S
H762 C774 0.950 . S
H763 C775 0.950 . S
C764 H756 0.950 . S
C764 C765 1.386 . S
C764 C766 1.391 . S
C765 C764 1.386 . S
C765 C769 1.393 . S
C766 H758 0.950 . S
C766 C764 1.391 . S
C766 C767 1.400 . S
C767 C766 1.400 . S
C767 C768 1.398 . S
C767 C773 1.491 . S
C768 H759 0.950 . S
C768 C767 1.398 . S
C768 C769 1.391 . S
C769 H757 0.950 . S
C769 C765 1.393 . S
C769 C768 1.391 . S
C770 H760 0.950 . S
C770 C771 1.386 . S
C770 C772 1.391 . S
C771 C770 1.386 . S
C771 C775 1.393 . S
C772 H761 0.950 . S
C772 C770 1.391 . S
C772 C773 1.400 . S
C773 C767 1.491 . S
C773 C772 1.400 . S
C773 C774 1.398 . S
C774 H762 0.950 . S
C774 C773 1.398 . S
C774 C775 1.391 . S
C775 H763 0.950 . S
C775 C771 1.393 . S
C775 C774 1.391 . S
H776 C784 0.950 . S
H777 C789 0.950 . S
H778 C786 0.950 . S
H779 C788 0.950 . S
H780 C790 0.950 . S
H781 C792 0.950 . S
H782 C794 0.950 . S
H783 C795 0.950 . S
C784 H776 0.950 . S
C784 C785 1.386 . S
C784 C786 1.391 . S
C785 C784 1.386 . S
C785 C789 1.393 . S
C786 H778 0.950 . S
C786 C784 1.391 . S
C786 C787 1.400 . S
C787 C786 1.400 . S
C787 C788 1.398 . S
C787 C793 1.491 . S
C788 H779 0.950 . S
C788 C787 1.398 . S
C788 C789 1.391 . S
C789 H777 0.950 . S
C789 C785 1.393 . S
C789 C788 1.391 . S
C790 H780 0.950 . S
C790 C791 1.386 . S
C790 C792 1.391 . S
C791 C790 1.386 . S
C791 C795 1.393 . S
C792 H781 0.950 . S
C792 C790 1.391 . S
C792 C793 1.400 . S
C793 C787 1.491 . S
C793 C792 1.400 . S
C793 C794 1.398 . S
C794 H782 0.950 . S
C794 C793 1.398 . S
C794 C795 1.391 . S
C795 H783 0.950 . S
C795 C791 1.393 . S
C795 C794 1.391 . S
H796 C804 0.950 . S
H797 C809 0.950 . S
H798 C806 0.950 . S
H799 C808 0.950 . S
H800 C810 0.950 . S
H801 C812 0.950 . S
H802 C814 0.950 . S
H803 C815 0.978 . S
C804 H796 0.950 . S
C804 C805 1.386 . S
C804 C806 1.391 . S
C805 C804 1.386 . S
C805 C809 1.393 . S
C806 H798 0.950 . S
C806 C804 1.391 . S
C806 C807 1.400 . S
C807 C806 1.400 . S
C807 C808 1.398 . S
C807 C813 1.491 . S
C808 H799 0.950 . S
C808 C807 1.398 . S
C808 C809 1.391 . S
C809 H797 0.950 . S
C809 C805 1.393 . S
C809 C808 1.391 . S
C810 H800 0.950 . S
C810 C811 1.386 . S
C810 C812 1.391 . S
C811 C810 1.386 . S
C811 C815 1.393 . S
C812 H801 0.950 . S
C812 C810 1.391 . S
C812 C813 1.400 . S
C813 C807 1.491 . S
C813 C812 1.400 . S
C813 C814 1.398 . S
C814 H802 0.950 . S
C814 C813 1.398 . S
C814 C815 1.391 . S
C815 H803 0.978 . S
C815 C811 1.393 . S
C815 C814 1.391 . S
H816 C824 0.950 . S
H817 C829 0.950 . S
H818 C826 0.950 . S
H819 C828 0.950 . S
H820 C830 0.950 . S
H821 C832 0.950 . S
H822 C834 0.950 . S
H823 C835 0.950 . S
C824 H816 0.950 . S
C824 C825 1.386 . S
C824 C826 1.391 . S
C825 C824 1.386 . S
C825 C829 1.393 . S
C826 H818 0.950 . S
C826 C824 1.391 . S
C826 C827 1.400 . S
C827 C826 1.400 . S
C827 C828 1.398 . S
C827 C833 1.491 . S
C828 H819 0.950 . S
C828 C827 1.398 . S
C828 C829 1.391 . S
C829 H817 0.950 . S
C829 C825 1.393 . S
C829 C828 1.391 . S
C830 H820 0.950 . S
C830 C831 1.386 . S
C830 C832 1.391 . S
C831 C830 1.386 . S
C831 C835 1.393 . S
C832 H821 0.950 . S
C832 C830 1.391 . S
C832 C833 1.400 . S
C833 C827 1.491 . S
C833 C832 1.400 . S
C833 C834 1.398 . S
C834 H822 0.950 . S
C834 C833 1.398 . S
C834 C835 1.391 . S
C835 H823 0.950 . S
C835 C831 1.393 . S
C835 C834 1.391 . S
H836 C844 0.950 . S
H837 C849 0.950 . S
H838 C846 0.950 . S
H839 C848 0.950 . S
H840 C850 0.950 . S
H841 C852 0.950 . S
H842 C854 0.950 . S
H843 C855 0.950 . S
C844 H836 0.950 . S
C844 C845 1.386 . S
C844 C846 1.391 . S
C845 C844 1.386 . S
C845 C849 1.393 . S
C846 H838 0.950 . S
C846 C844 1.391 . S
C846 C847 1.400 . S
C847 C846 1.400 . S
C847 C848 1.398 . S
C847 C853 1.491 . S
C848 H839 0.950 . S
C848 C847 1.398 . S
C848 C849 1.391 . S
C849 H837 0.950 . S
C849 C845 1.393 . S
C849 C848 1.391 . S
C850 H840 0.950 . S
C850 C851 1.386 . S
C850 C852 1.391 . S
C851 C850 1.386 . S
C851 C855 1.393 . S
C852 H841 0.950 . S
C852 C850 1.391 . S
C852 C853 1.400 . S
C853 C847 1.491 . S
C853 C852 1.400 . S
C853 C854 1.398 . S
C854 H842 0.950 . S
C854 C853 1.398 . S
C854 C855 1.391 . S
C855 H843 0.950 . S
C855 C851 1.393 . S
C855 C854 1.391 . S
H856 C864 0.950 . S
H857 C869 0.950 . S
H858 C866 0.950 . S
H859 C868 0.950 . S
H860 C870 0.950 . S
H861 C872 0.950 . S
H862 C874 0.950 . S
H863 C875 0.950 . S
C864 H856 0.950 . S
C864 C865 1.386 . S
C864 C866 1.391 . S
C865 C864 1.386 . S
C865 C869 1.393 . S
C866 H858 0.950 . S
C866 C864 1.391 . S
C866 C867 1.400 . S
C867 C866 1.400 . S
C867 C868 1.398 . S
C867 C873 1.491 . S
C868 H859 0.950 . S
C868 C867 1.398 . S
C868 C869 1.391 . S
C869 H857 0.950 . S
C869 C865 1.393 . S
C869 C868 1.391 . S
C870 H860 0.950 . S
C870 C871 1.386 . S
C870 C872 1.391 . S
C871 C870 1.386 . S
C871 C875 1.393 . S
C872 H861 0.950 . S
C872 C870 1.391 . S
C872 C873 1.400 . S
C873 C867 1.491 . S
C873 C872 1.400 . S
C873 C874 1.398 . S
C874 H862 0.950 . S
C874 C873 1.398 . S
C874 C875 1.391 . S
C875 H863 0.950 . S
C875 C871 1.393 . S
C875 C874 1.391 . S
H876 C884 0.950 . S
H877 C889 0.950 . S
H878 C886 0.950 . S
H879 C888 0.950 . S
H880 C890 0.950 . S
H881 C892 0.950 . S
H882 C894 0.950 . S
H883 C895 0.950 . S
C884 H876 0.950 . S
C884 C885 1.386 . S
C884 C886 1.391 . S
C885 C884 1.386 . S
C885 C889 1.393 . S
C886 H878 0.950 . S
C886 C884 1.391 . S
C886 C887 1.400 . S
C887 C886 1.400 . S
C887 C888 1.398 . S
C887 C893 1.491 . S
C888 H879 0.950 . S
C888 C887 1.398 . S
C888 C889 1.391 . S
C889 H877 0.950 . S
C889 C885 1.393 . S
C889 C888 1.391 . S
C890 H880 0.950 . S
C890 C891 1.386 . S
C890 C892 1.391 . S
C891 C890 1.386 . S
C891 C895 1.393 . S
C892 H881 0.950 . S
C892 C890 1.391 . S
C892 C893 1.400 . S
C893 C887 1.491 . S
C893 C892 1.400 . S
C893 C894 1.398 . S
C894 H882 0.950 . S
C894 C893 1.398 . S
C894 C895 1.391 . S
C895 H883 0.950 . S
C895 C891 1.393 . S
C895 C894 1.391 . S
H896 C904 0.950 . S
H897 C909 0.950 . S
H898 C906 0.950 . S
H899 C908 0.950 . S
H900 C910 0.950 . S
H901 C912 0.950 . S
H902 C914 0.950 . S
H903 C915 0.950 . S
C904 H896 0.950 . S
C904 C905 1.386 . S
C904 C906 1.391 . S
C905 C904 1.386 . S
C905 C909 1.393 . S
C906 H898 0.950 . S
C906 C904 1.391 . S
C906 C907 1.400 . S
C907 C906 1.400 . S
C907 C908 1.398 . S
C907 C913 1.491 . S
C908 H899 0.950 . S
C908 C907 1.398 . S
C908 C909 1.391 . S
C909 H897 0.950 . S
C909 C905 1.393 . S
C909 C908 1.391 . S
C910 H900 0.950 . S
C910 C911 1.386 . S
C910 C912 1.391 . S
C911 C910 1.386 . S
C911 C915 1.393 . S
C912 H901 0.950 . S
C912 C910 1.391 . S
C912 C913 1.400 . S
C913 C907 1.491 . S
C913 C912 1.400 . S
C913 C914 1.398 . S
C914 H902 0.950 . S
C914 C913 1.398 . S
C914 C915 1.391 . S
C915 H903 0.950 . S
C915 C911 1.393 . S
C915 C914 1.391 . S
H916 C924 0.950 . S
H917 C929 0.950 . S
H918 C926 0.950 . S
H919 C928 0.950 . S
H920 C930 0.950 . S
H921 C932 0.950 . S
H922 C934 0.950 . S
H923 C935 0.950 . S
C924 H916 0.950 . S
C924 C925 1.386 . S
C924 C926 1.391 . S
C925 C924 1.386 . S
C925 C929 1.393 . S
C926 H918 0.950 . S
C926 C924 1.391 . S
C926 C927 1.400 . S
C927 C926 1.400 . S
C927 C928 1.398 . S
C927 C933 1.491 . S
C928 H919 0.950 . S
C928 C927 1.398 . S
C928 C929 1.391 . S
C929 H917 0.950 . S
C929 C925 1.393 . S
C929 C928 1.391 . S
C930 H920 0.950 . S
C930 C931 1.386 . S
C930 C932 1.391 . S
C931 C930 1.386 . S
C931 C935 1.393 . S
C932 H921 0.950 . S
C932 C930 1.391 . S
C932 C933 1.400 . S
C933 C927 1.491 . S
C933 C932 1.400 . S
C933 C934 1.398 . S
C934 H922 0.950 . S
C934 C933 1.398 . S
C934 C935 1.391 . S
C935 H923 0.950 . S
C935 C931 1.393 . S
C935 C934 1.391 . S
H936 C944 0.950 . S
H937 C949 0.950 . S
H938 C946 0.950 . S
H939 C948 0.950 . S
H940 C950 0.950 . S
H941 C952 0.950 . S
H942 C954 0.950 . S
H943 C955 0.950 . S
C944 H936 0.950 . S
C944 C945 1.386 . S
C944 C946 1.391 . S
C945 C944 1.386 . S
C945 C949 1.393 . S
C946 H938 0.950 . S
C946 C944 1.391 . S
C946 C947 1.400 . S
C947 C946 1.400 . S
C947 C948 1.398 . S
C947 C953 1.491 . S
C948 H939 0.950 . S
C948 C947 1.398 . S
C948 C949 1.391 . S
C949 H937 0.950 . S
C949 C945 1.393 . S
C949 C948 1.391 . S
C950 H940 0.950 . S
C950 C951 1.386 . S
C950 C952 1.391 . S
C951 C950 1.386 . S
C951 C955 1.393 . S
C952 H941 0.950 . S
C952 C950 1.391 . S
C952 C953 1.400 . S
C953 C947 1.491 . S
C953 C952 1.400 . S
C953 C954 1.398 . S
C954 H942 0.950 . S
C954 C953 1.398 . S
C954 C955 1.391 . S
C955 H943 0.950 . S
C955 C951 1.393 . S
C955 C954 1.391 . S
H956 C964 0.950 . S
H957 C969 0.950 . S
H958 C966 0.950 . S
H959 C968 0.950 . S
H960 C970 0.950 . S
H961 C972 0.950 . S
H962 C974 0.950 . S
H963 C975 0.950 . S
C964 H956 0.950 . S
C964 C965 1.386 . S
C964 C966 1.391 . S
C965 C964 1.386 . S
C965 C969 1.393 . S
C966 H958 0.950 . S
C966 C964 1.391 . S
C966 C967 1.400 . S
C967 C966 1.400 . S
C967 C968 1.398 . S
C967 C973 1.491 . S
C968 H959 0.950 . S
C968 C967 1.398 . S
C968 C969 1.391 . S
C969 H957 0.950 . S
C969 C965 1.393 . S
C969 C968 1.391 . S
C970 H960 0.950 . S
C970 C971 1.386 . S
C970 C972 1.391 . S
C971 C970 1.386 . S
C971 C975 1.393 . S
C972 H961 0.950 . S
C972 C970 1.391 . S
C972 C973 1.400 . S
C973 C967 1.491 . S
C973 C972 1.400 . S
C973 C974 1.398 . S
C974 H962 0.950 . S
C974 C973 1.398 . S
C974 C975 1.391 . S
C975 H963 0.950 . S
C975 C971 1.393 . S
C975 C974 1.391 . S
H976 C984 0.950 . S
H977 C989 0.950 . S
H978 C986 0.950 . S
H979 C988 0.950 . S
H980 C990 0.950 . S
H981 C992 0.950 . S
H982 C994 0.950 . S
H983 C995 0.950 . S
C984 H976 0.950 . S
C984 C985 1.386 . S
C984 C986 1.391 . S
C985 C984 1.386 . S
C985 C989 1.393 . S
C986 H978 0.950 . S
C986 C984 1.391 . S
C986 C987 1.400 . S
C987 C986 1.400 . S
C987 C988 1.398 . S
C987 C993 1.491 . S
C988 H979 0.950 . S
C988 C987 1.398 . S
C988 C989 1.391 . S
C989 H977 0.950 . S
C989 C985 1.393 . S
C989 C988 1.391 . S
C990 H980 0.950 . S
C990 C991 1.386 . S
C990 C992 1.391 . S
C991 C990 1.386 . S
C991 C995 1.393 . S
C992 H981 0.950 . S
C992 C990 1.391 . S
C992 C993 1.400 . S
C993 C987 1.491 . S
C993 C992 1.400 . S
C993 C994 1.398 . S
C994 H982 0.950 . S
C994 C993 1.398 . S
C994 C995 1.391 . S
C995 H983 0.950 . S
C995 C991 1.393 . S
C995 C994 1.391 . S
H996 C1004 0.950 . S
H997 C1009 0.950 . S
H998 C1006 0.950 . S
H999 C1008 0.950 . S
H1000 C1010 0.950 . S
H1001 C1012 0.950 . S
H1002 C1014 0.950 . S
H1003 C1015 0.950 . S
C1004 H996 0.950 . S
C1004 C1005 1.386 . S
C1004 C1006 1.391 . S
C1005 C1004 1.386 . S
C1005 C1009 1.393 . S
C1006 H998 0.950 . S
C1006 C1004 1.391 . S
C1006 C1007 1.400 . S
C1007 C1006 1.400 . S
C1007 C1008 1.398 . S
C1007 C1013 1.491 . S
C1008 H999 0.950 . S
C1008 C1007 1.398 . S
C1008 C1009 1.391 . S
C1009 H997 0.950 . S
C1009 C1005 1.393 . S
C1009 C1008 1.391 . S
C1010 H1000 0.950 . S
C1010 C1011 1.386 . S
C1010 C1012 1.391 . S
C1011 C1010 1.386 . S
C1011 C1015 1.393 . S
C1012 H1001 0.950 . S
C1012 C1010 1.391 . S
C1012 C1013 1.400 . S
C1013 C1007 1.491 . S
C1013 C1012 1.400 . S
C1013 C1014 1.398 . S
C1014 H1002 0.950 . S
C1014 C1013 1.398 . S
C1014 C1015 1.391 . S
C1015 H1003 0.950 . S
C1015 C1011 1.393 . S
C1015 C1014 1.391 . S
H1016 C1024 0.950 . S
H1017 C1029 0.950 . S
H1018 C1026 0.950 . S
H1019 C1028 0.950 . S
H1020 C1030 0.950 . S
H1021 C1032 0.950 . S
H1022 C1034 0.950 . S
H1023 C1035 0.950 . S
C1024 H1016 0.950 . S
C1024 C1025 1.386 . S
C1024 C1026 1.391 . S
C1025 C1024 1.386 . S
C1025 C1029 1.393 . S
C1026 H1018 0.950 . S
C1026 C1024 1.391 . S
C1026 C1027 1.400 . S
C1027 C1026 1.400 . S
C1027 C1028 1.398 . S
C1027 C1033 1.491 . S
C1028 H1019 0.950 . S
C1028 C1027 1.398 . S
C1028 C1029 1.391 . S
C1029 H1017 0.950 . S
C1029 C1025 1.393 . S
C1029 C1028 1.391 . S
C1030 H1020 0.950 . S
C1030 C1031 1.386 . S
C1030 C1032 1.391 . S
C1031 C1030 1.386 . S
C1031 C1035 1.393 . S
C1032 H1021 0.950 . S
C1032 C1030 1.391 . S
C1032 C1033 1.400 . S
C1033 C1027 1.491 . S
C1033 C1032 1.400 . S
C1033 C1034 1.398 . S
C1034 H1022 0.950 . S
C1034 C1033 1.398 . S
C1034 C1035 1.391 . S
C1035 H1023 0.950 . S
C1035 C1031 1.393 . S
C1035 C1034 1.391 . S
H1036 C1044 0.950 . S
H1037 C1049 0.950 . S
H1038 C1046 0.950 . S
H1039 C1048 0.950 . S
H1040 C1050 0.950 . S
H1041 C1052 0.950 . S
H1042 C1054 0.950 . S
H1043 C1055 0.950 . S
C1044 H1036 0.950 . S
C1044 C1045 1.386 . S
C1044 C1046 1.391 . S
C1045 C1044 1.386 . S
C1045 C1049 1.393 . S
C1046 H1038 0.950 . S
C1046 C1044 1.391 . S
C1046 C1047 1.400 . S
C1047 C1046 1.400 . S
C1047 C1048 1.398 . S
C1047 C1053 1.491 . S
C1048 H1039 0.950 . S
C1048 C1047 1.398 . S
C1048 C1049 1.391 . S
C1049 H1037 0.950 . S
C1049 C1045 1.393 . S
C1049 C1048 1.391 . S
C1050 H1040 0.950 . S
C1050 C1051 1.386 . S
C1050 C1052 1.391 . S
C1051 C1050 1.386 . S
C1051 C1055 1.393 . S
C1052 H1041 0.950 . S
C1052 C1050 1.391 . S
C1052 C1053 1.400 . S
C1053 C1047 1.491 . S
C1053 C1052 1.400 . S
C1053 C1054 1.398 . S
C1054 H1042 0.950 . S
C1054 C1053 1.398 . S
C1054 C1055 1.391 . S
C1055 H1043 0.950 . S
C1055 C1051 1.393 . S
C1055 C1054 1.391 . S
H1056 C1064 0.950 . S
H1057 C1069 0.950 . S
H1058 C1066 0.950 . S
H1059 C1068 0.950 . S
H1060 C1070 0.950 . S
H1061 C1072 0.950 . S
H1062 C1074 0.950 . S
H1063 C1075 0.950 . S
C1064 H1056 0.950 . S
C1064 C1065 1.386 . S
C1064 C1066 1.391 . S
C1065 C1064 1.386 . S
C1065 C1069 1.393 . S
C1066 H1058 0.950 . S
C1066 C1064 1.391 . S
C1066 C1067 1.400 . S
C1067 C1066 1.400 . S
C1067 C1068 1.398 . S
C1067 C1073 1.491 . S
C1068 H1059 0.950 . S
C1068 C1067 1.398 . S
C1068 C1069 1.391 . S
C1069 H1057 0.950 . S
C1069 C1065 1.393 . S
C1069 C1068 1.391 . S
C1070 H1060 0.950 . S
C1070 C1071 1.386 . S
C1070 C1072 1.391 . S
C1071 C1070 1.386 . S
C1071 C1075 1.393 . S
C1072 H1061 0.950 . S
C1072 C1070 1.391 . S
C1072 C1073 1.400 . S
C1073 C1067 1.491 . S
C1073 C1072 1.400 . S
C1073 C1074 1.398 . S
C1074 H1062 0.950 . S
C1074 C1073 1.398 . S
C1074 C1075 1.391 . S
C1075 H1063 0.950 . S
C1075 C1071 1.393 . S
C1075 C1074 1.391 . S
H1076 C1084 0.950 . S
H1077 C1089 0.950 . S
H1078 C1086 0.950 . S
H1079 C1088 0.950 . S
H1080 C1090 0.950 . S
H1081 C1092 0.950 . S
H1082 C1094 0.950 . S
H1083 C1095 0.950 . S
C1084 H1076 0.950 . S
C1084 C1085 1.386 . S
C1084 C1086 1.391 . S
C1085 C1084 1.386 . S
C1085 C1089 1.393 . S
C1086 H1078 0.950 . S
C1086 C1084 1.391 . S
C1086 C1087 1.400 . S
C1087 C1086 1.400 . S
C1087 C1088 1.398 . S
C1087 C1093 1.491 1_665 S
C1088 H1079 0.950 . S
C1088 C1087 1.398 . S
C1088 C1089 1.391 . S
C1089 H1077 0.950 . S
C1089 C1085 1.393 . S
C1089 C1088 1.391 . S
C1090 H1080 0.950 . S
C1090 C1091 1.386 . S
C1090 C1092 1.391 . S
C1091 C1090 1.386 . S
C1091 C1095 1.393 . S
C1092 H1081 0.950 . S
C1092 C1090 1.391 . S
C1092 C1093 1.400 . S
C1093 C1087 1.491 1_445 S
C1093 C1092 1.400 . S
C1093 C1094 1.398 . S
C1094 H1082 0.950 . S
C1094 C1093 1.398 . S
C1094 C1095 1.391 . S
C1095 H1083 0.950 . S
C1095 C1091 1.393 . S
C1095 C1094 1.391 . S
H1096 C1104 0.950 . S
H1097 C1109 0.950 . S
H1098 C1106 0.950 . S
H1099 C1108 0.950 . S
H1100 C1110 0.950 . S
H1101 C1112 0.950 . S
H1102 C1114 0.950 . S
H1103 C1115 0.950 . S
C1104 H1096 0.950 . S
C1104 C1105 1.386 . S
C1104 C1106 1.391 . S
C1105 C1104 1.386 . S
C1105 C1109 1.393 . S
C1106 H1098 0.950 . S
C1106 C1104 1.391 . S
C1106 C1107 1.400 . S
C1107 C1106 1.400 . S
C1107 C1108 1.398 . S
C1107 C1113 1.491 . S
C1108 H1099 0.950 . S
C1108 C1107 1.398 . S
C1108 C1109 1.391 . S
C1109 H1097 0.950 . S
C1109 C1105 1.393 . S
C1109 C1108 1.391 . S
C1110 H1100 0.950 . S
C1110 C1111 1.386 . S
C1110 C1112 1.391 . S
C1111 C1110 1.386 . S
C1111 C1115 1.393 . S
C1112 H1101 0.950 . S
C1112 C1110 1.391 . S
C1112 C1113 1.400 . S
C1113 C1107 1.491 . S
C1113 C1112 1.400 . S
C1113 C1114 1.398 . S
C1114 H1102 0.950 . S
C1114 C1113 1.398 . S
C1114 C1115 1.391 . S
C1115 H1103 0.950 . S
C1115 C1111 1.393 . S
C1115 C1114 1.391 . S
H1116 C1124 0.950 . S
H1117 C1129 0.950 . S
H1118 C1126 0.950 . S
H1119 C1128 0.950 . S
H1120 C1130 0.950 . S
H1121 C1132 0.950 . S
H1122 C1134 0.950 . S
H1123 C1135 0.950 . S
C1124 H1116 0.950 . S
C1124 C1125 1.386 . S
C1124 C1126 1.391 . S
C1125 C1124 1.386 . S
C1125 C1129 1.393 1_554 S
C1126 H1118 0.950 . S
C1126 C1124 1.391 . S
C1126 C1127 1.400 . S
C1127 C1126 1.400 . S
C1127 C1128 1.398 1_554 S
C1127 C1133 1.491 1_544 S
C1128 H1119 0.950 . S
C1128 C1127 1.398 1_556 S
C1128 C1129 1.391 . S
C1129 H1117 0.950 . S
C1129 C1125 1.393 1_556 S
C1129 C1128 1.391 . S
C1130 H1120 0.950 . S
C1130 C1131 1.386 . S
C1130 C1132 1.391 . S
C1131 C1130 1.386 . S
C1131 C1135 1.393 1_556 S
C1132 H1121 0.950 . S
C1132 C1130 1.391 . S
C1132 C1133 1.400 . S
C1133 C1127 1.491 1_566 S
C1133 C1132 1.400 . S
C1133 C1134 1.398 1_556 S
C1134 H1122 0.950 . S
C1134 C1133 1.398 1_554 S
C1134 C1135 1.391 . S
C1135 H1123 0.950 . S
C1135 C1131 1.393 1_554 S
C1135 C1134 1.391 . S
H1136 C1144 0.950 . S
H1137 C1149 0.950 . S
H1138 C1146 0.950 . S
H1139 C1148 0.950 . S
H1140 C1150 0.950 . S
H1141 C1152 0.950 . S
H1142 C1154 0.950 . S
H1143 C1155 0.950 . S
C1144 H1136 0.950 . S
C1144 C1145 1.386 . S
C1144 C1146 1.391 . S
C1145 C1144 1.386 . S
C1145 C1149 1.393 . S
C1146 H1138 0.950 . S
C1146 C1144 1.391 . S
C1146 C1147 1.400 . S
C1147 C1146 1.400 . S
C1147 C1148 1.398 . S
C1147 C1153 1.491 . S
C1148 H1139 0.950 . S
C1148 C1147 1.398 . S
C1148 C1149 1.391 . S
C1149 H1137 0.950 . S
C1149 C1145 1.393 . S
C1149 C1148 1.391 . S
C1150 H1140 0.950 . S
C1150 C1151 1.386 . S
C1150 C1152 1.391 . S
C1151 C1150 1.386 . S
C1151 C1155 1.393 . S
C1152 H1141 0.950 . S
C1152 C1150 1.391 . S
C1152 C1153 1.400 . S
C1153 C1147 1.491 . S
C1153 C1152 1.400 . S
C1153 C1154 1.398 . S
C1154 H1142 0.950 . S
C1154 C1153 1.398 . S
C1154 C1155 1.391 . S
C1155 H1143 0.950 . S
C1155 C1151 1.393 . S
C1155 C1154 1.391 . S
H1156 C1164 0.950 . S
H1157 C1169 0.950 . S
H1158 C1166 0.950 . S
H1159 C1168 0.950 . S
H1160 C1170 0.950 . S
H1161 C1172 0.950 . S
H1162 C1174 0.950 . S
H1163 C1175 0.950 . S
C1164 H1156 0.950 . S
C1164 C1165 1.386 . S
C1164 C1166 1.391 . S
C1165 C1164 1.386 . S
C1165 C1169 1.393 . S
C1166 H1158 0.950 . S
C1166 C1164 1.391 . S
C1166 C1167 1.400 . S
C1167 C1166 1.400 . S
C1167 C1168 1.398 . S
C1167 C1173 1.491 1_565 S
C1168 H1159 0.950 . S
C1168 C1167 1.398 . S
C1168 C1169 1.391 . S
C1169 H1157 0.950 . S
C1169 C1165 1.393 . S
C1169 C1168 1.391 . S
C1170 H1160 0.950 . S
C1170 C1171 1.386 . S
C1170 C1172 1.391 . S
C1171 C1170 1.386 . S
C1171 C1175 1.393 . S
C1172 H1161 0.950 . S
C1172 C1170 1.391 . S
C1172 C1173 1.400 . S
C1173 C1167 1.491 1_545 S
C1173 C1172 1.400 . S
C1173 C1174 1.398 . S
C1174 H1162 0.950 . S
C1174 C1173 1.398 . S
C1174 C1175 1.391 . S
C1175 H1163 0.950 . S
C1175 C1171 1.393 . S
C1175 C1174 1.391 . S
H1176 C1184 0.950 . S
H1177 C1189 0.950 . S
H1178 C1186 0.950 . S
H1179 C1188 0.950 . S
H1180 C1190 0.950 . S
H1181 C1192 0.950 . S
H1182 C1194 0.950 . S
H1183 C1195 0.950 . S
C1184 H1176 0.950 . S
C1184 C1185 1.386 . S
C1184 C1186 1.391 . S
C1185 C1184 1.386 . S
C1185 C1189 1.393 . S
C1186 H1178 0.950 . S
C1186 C1184 1.391 . S
C1186 C1187 1.400 . S
C1187 C1186 1.400 . S
C1187 C1188 1.398 . S
C1187 C1193 1.491 . S
C1188 H1179 0.950 . S
C1188 C1187 1.398 . S
C1188 C1189 1.391 . S
C1189 H1177 0.950 . S
C1189 C1185 1.393 . S
C1189 C1188 1.391 . S
C1190 H1180 0.950 . S
C1190 C1191 1.386 . S
C1190 C1192 1.391 . S
C1191 C1190 1.386 . S
C1191 C1195 1.393 . S
C1192 H1181 0.950 . S
C1192 C1190 1.391 . S
C1192 C1193 1.400 . S
C1193 C1187 1.491 . S
C1193 C1192 1.400 . S
C1193 C1194 1.398 . S
C1194 H1182 0.950 . S
C1194 C1193 1.398 . S
C1194 C1195 1.391 . S
C1195 H1183 0.950 . S
C1195 C1191 1.393 . S
C1195 C1194 1.391 . S
H1196 C1204 0.950 . S
H1197 C1209 0.950 . S
H1198 C1206 0.950 . S
H1199 C1208 0.950 1_455 S
H1200 C1210 0.950 . S
H1201 C1212 0.950 . S
H1202 C1214 0.950 1_655 S
H1203 C1215 0.950 . S
C1204 H1196 0.950 . S
C1204 C1205 1.386 . S
C1204 C1206 1.391 . S
C1205 C1204 1.386 . S
C1205 C1209 1.393 1_556 S
C1206 H1198 0.950 . S
C1206 C1204 1.391 . S
C1206 C1207 1.400 . S
C1207 C1206 1.400 . S
C1207 C1208 1.398 1_556 S
C1207 C1213 1.491 1_646 S
C1208 H1199 0.950 1_655 S
C1208 C1207 1.398 1_554 S
C1208 C1209 1.391 . S
C1209 H1197 0.950 . S
C1209 C1205 1.393 1_554 S
C1209 C1208 1.391 . S
C1210 H1200 0.950 . S
C1210 C1211 1.386 . S
C1210 C1212 1.391 . S
C1211 C1210 1.386 . S
C1211 C1215 1.393 1_554 S
C1212 H1201 0.950 . S
C1212 C1210 1.391 . S
C1212 C1213 1.400 . S
C1213 C1207 1.491 1_464 S
C1213 C1212 1.400 . S
C1213 C1214 1.398 1_554 S
C1214 H1202 0.950 1_455 S
C1214 C1213 1.398 1_556 S
C1214 C1215 1.391 . S
C1215 H1203 0.950 . S
C1215 C1211 1.393 1_556 S
C1215 C1214 1.391 . S
H1216 C1224 0.950 . S
H1217 C1229 0.950 . S
H1218 C1226 0.950 . S
H1219 C1228 0.950 . S
H1220 C1230 0.950 . S
H1221 C1232 0.950 . S
H1222 C1234 0.950 . S
H1223 C1235 0.950 . S
C1224 H1216 0.950 . S
C1224 C1225 1.386 . S
C1224 C1226 1.391 . S
C1225 C1224 1.386 . S
C1225 C1229 1.393 . S
C1226 H1218 0.950 . S
C1226 C1224 1.391 . S
C1226 C1227 1.400 . S
C1227 C1226 1.400 . S
C1227 C1228 1.398 . S
C1227 C1233 1.491 . S
C1228 H1219 0.950 . S
C1228 C1227 1.398 . S
C1228 C1229 1.391 . S
C1229 H1217 0.950 . S
C1229 C1225 1.393 . S
C1229 C1228 1.391 . S
C1230 H1220 0.950 . S
C1230 C1231 1.386 . S
C1230 C1232 1.391 . S
C1231 C1230 1.386 . S
C1231 C1235 1.393 . S
C1232 H1221 0.950 . S
C1232 C1230 1.391 . S
C1232 C1233 1.400 . S
C1233 C1227 1.491 . S
C1233 C1232 1.400 . S
C1233 C1234 1.398 . S
C1234 H1222 0.950 . S
C1234 C1233 1.398 . S
C1234 C1235 1.391 . S
C1235 H1223 0.950 . S
C1235 C1231 1.393 . S
C1235 C1234 1.391 . S
H1236 C1244 0.950 . S
H1237 C1249 0.950 . S
H1238 C1246 0.950 . S
H1239 C1248 0.950 . S
H1240 C1250 0.950 . S
H1241 C1252 0.950 . S
H1242 C1254 0.950 . S
H1243 C1255 0.950 . S
C1244 H1236 0.950 . S
C1244 C1245 1.386 . S
C1244 C1246 1.391 . S
C1245 C1244 1.386 . S
C1245 C1249 1.393 . S
C1246 H1238 0.950 . S
C1246 C1244 1.391 . S
C1246 C1247 1.400 . S
C1247 C1246 1.400 . S
C1247 C1248 1.398 . S
C1247 C1253 1.491 . S
C1248 H1239 0.950 . S
C1248 C1247 1.398 . S
C1248 C1249 1.391 . S
C1249 H1237 0.950 . S
C1249 C1245 1.393 . S
C1249 C1248 1.391 . S
C1250 H1240 0.950 . S
C1250 C1251 1.386 . S
C1250 C1252 1.391 . S
C1251 C1250 1.386 . S
C1251 C1255 1.393 . S
C1252 H1241 0.950 . S
C1252 C1250 1.391 . S
C1252 C1253 1.400 . S
C1253 C1247 1.491 . S
C1253 C1252 1.400 . S
C1253 C1254 1.398 . S
C1254 H1242 0.950 . S
C1254 C1253 1.398 . S
C1254 C1255 1.391 . S
C1255 H1243 0.950 . S
C1255 C1251 1.393 . S
C1255 C1254 1.391 . S
H1256 C1264 0.950 . S
H1257 C1269 0.950 . S
H1258 C1266 0.950 . S
H1259 C1268 0.950 . S
H1260 C1270 0.950 . S
H1261 C1272 0.950 . S
H1262 C1274 0.950 . S
H1263 C1275 0.950 . S
C1264 H1256 0.950 . S
C1264 C1265 1.386 . S
C1264 C1266 1.391 . S
C1265 C1264 1.386 . S
C1265 C1269 1.393 . S
C1266 H1258 0.950 . S
C1266 C1264 1.391 . S
C1266 C1267 1.400 . S
C1267 C1266 1.400 . S
C1267 C1268 1.398 . S
C1267 C1273 1.491 . S
C1268 H1259 0.950 . S
C1268 C1267 1.398 . S
C1268 C1269 1.391 . S
C1269 H1257 0.950 . S
C1269 C1265 1.393 . S
C1269 C1268 1.391 . S
C1270 H1260 0.950 . S
C1270 C1271 1.386 . S
C1270 C1272 1.391 . S
C1271 C1270 1.386 . S
C1271 C1275 1.393 . S
C1272 H1261 0.950 . S
C1272 C1270 1.391 . S
C1272 C1273 1.400 . S
C1273 C1267 1.491 . S
C1273 C1272 1.400 . S
C1273 C1274 1.398 . S
C1274 H1262 0.950 . S
C1274 C1273 1.398 . S
C1274 C1275 1.391 . S
C1275 H1263 0.950 . S
C1275 C1271 1.393 . S
C1275 C1274 1.391 . S
H1276 C1284 0.950 . S
H1277 C1289 0.950 . S
H1278 C1286 0.950 . S
H1279 C1288 0.950 . S
H1280 C1290 0.950 . S
H1281 C1292 0.950 . S
H1282 C1294 0.950 . S
H1283 C1295 0.950 . S
C1284 H1276 0.950 . S
C1284 C1285 1.386 . S
C1284 C1286 1.391 . S
C1285 C1284 1.386 . S
C1285 C1289 1.393 . S
C1286 H1278 0.950 . S
C1286 C1284 1.391 . S
C1286 C1287 1.400 . S
C1287 C1286 1.400 . S
C1287 C1288 1.398 . S
C1287 C1293 1.491 . S
C1288 H1279 0.950 . S
C1288 C1287 1.398 . S
C1288 C1289 1.391 . S
C1289 H1277 0.950 . S
C1289 C1285 1.393 . S
C1289 C1288 1.391 . S
C1290 H1280 0.950 . S
C1290 C1291 1.386 . S
C1290 C1292 1.391 . S
C1291 C1290 1.386 . S
C1291 C1295 1.393 . S
C1292 H1281 0.950 . S
C1292 C1290 1.391 . S
C1292 C1293 1.400 . S
C1293 C1287 1.491 . S
C1293 C1292 1.400 . S
C1293 C1294 1.398 . S
C1294 H1282 0.950 . S
C1294 C1293 1.398 . S
C1294 C1295 1.391 . S
C1295 H1283 0.950 . S
C1295 C1291 1.393 . S
C1295 C1294 1.391 . S
H1296 C1304 0.950 . S
H1297 C1309 0.959 . S
H1298 C1306 0.950 . S
H1299 C1308 0.950 . S
H1300 C1310 0.950 . S
H1301 C1312 0.950 . S
H1302 C1314 0.950 . S
H1303 C1315 0.959 . S
C1304 H1296 0.950 . S
C1304 C1305 1.386 . S
C1304 C1306 1.391 . S
C1305 C1304 1.386 . S
C1305 C1309 1.378 1_554 S
C1306 H1298 0.950 . S
C1306 C1304 1.391 . S
C1306 C1307 1.400 . S
C1307 C1306 1.400 . S
C1307 C1308 1.398 1_554 S
C1307 C1313 1.491 1_554 S
C1308 H1299 0.950 . S
C1308 C1307 1.398 1_556 S
C1308 C1309 1.397 . S
C1309 H1297 0.959 . S
C1309 C1305 1.378 1_556 S
C1309 C1308 1.397 . S
C1310 H1300 0.950 . S
C1310 C1311 1.386 . S
C1310 C1312 1.391 . S
C1311 C1310 1.386 . S
C1311 C1315 1.378 1_556 S
C1312 H1301 0.950 . S
C1312 C1310 1.391 . S
C1312 C1313 1.400 . S
C1313 C1307 1.491 1_556 S
C1313 C1312 1.400 . S
C1313 C1314 1.398 1_556 S
C1314 H1302 0.950 . S
C1314 C1313 1.398 1_554 S
C1314 C1315 1.397 . S
C1315 H1303 0.959 . S
C1315 C1311 1.378 1_554 S
C1315 C1314 1.397 . S
H1316 C1324 0.950 . S
H1317 C1329 0.950 . S
H1318 C1326 0.950 . S
H1319 C1328 0.939 1_455 S
H1320 C1330 0.950 . S
H1321 C1332 0.950 . S
H1322 C1334 0.939 1_655 S
H1323 C1335 0.950 . S
C1324 H1316 0.950 . S
C1324 C1325 1.386 . S
C1324 C1326 1.391 . S
C1325 C1324 1.386 . S
C1325 C1329 1.393 . S
C1326 H1318 0.950 . S
C1326 C1324 1.391 . S
C1326 C1327 1.400 . S
C1327 C1326 1.400 . S
C1327 C1328 1.402 . S
C1327 C1333 1.491 1_655 S
C1328 H1319 0.939 1_655 S
C1328 C1327 1.402 . S
C1328 C1329 1.398 . S
C1329 H1317 0.950 . S
C1329 C1325 1.393 . S
C1329 C1328 1.398 . S
C1330 H1320 0.950 . S
C1330 C1331 1.386 . S
C1330 C1332 1.391 . S
C1331 C1330 1.386 . S
C1331 C1335 1.393 . S
C1332 H1321 0.950 . S
C1332 C1330 1.391 . S
C1332 C1333 1.400 . S
C1333 C1327 1.491 1_455 S
C1333 C1332 1.400 . S
C1333 C1334 1.402 . S
C1334 H1322 0.939 1_455 S
C1334 C1333 1.402 . S
C1334 C1335 1.398 . S
C1335 H1323 0.950 . S
C1335 C1331 1.393 . S
C1335 C1334 1.398 . S
H1336 C1344 0.950 . S
H1337 C1349 0.950 . S
H1338 C1346 0.950 1_655 S
H1339 C1348 0.950 . S
H1340 C1350 0.950 . S
H1341 C1352 0.950 1_455 S
H1342 C1354 0.950 . S
H1343 C1355 0.950 . S
C1344 H1336 0.950 . S
C1344 C1345 1.386 . S
C1344 C1346 1.391 . S
C1345 C1344 1.386 . S
C1345 C1349 1.393 1_556 S
C1346 H1338 0.950 1_455 S
C1346 C1344 1.391 . S
C1346 C1347 1.400 . S
C1347 C1346 1.400 . S
C1347 C1348 1.398 1_556 S
C1347 C1353 1.491 1_456 S
C1348 H1339 0.950 . S
C1348 C1347 1.398 1_554 S
C1348 C1349 1.391 . S
C1349 H1337 0.950 . S
C1349 C1345 1.393 1_554 S
C1349 C1348 1.391 . S
C1350 H1340 0.950 . S
C1350 C1351 1.386 . S
C1350 C1352 1.391 . S
C1351 C1350 1.386 . S
C1351 C1355 1.393 1_554 S
C1352 H1341 0.950 1_655 S
C1352 C1350 1.391 . S
C1352 C1353 1.400 . S
C1353 C1347 1.491 1_654 S
C1353 C1352 1.400 . S
C1353 C1354 1.398 1_554 S
C1354 H1342 0.950 . S
C1354 C1353 1.398 1_556 S
C1354 C1355 1.391 . S
C1355 H1343 0.950 . S
C1355 C1351 1.393 1_556 S
C1355 C1354 1.391 . S
H1356 C1364 0.950 . S
H1357 C1369 0.950 . S
H1358 C1366 0.950 . S
H1359 C1368 0.950 . S
H1360 C1370 0.950 . S
H1361 C1372 0.950 . S
H1362 C1374 0.950 . S
H1363 C1375 0.950 . S
C1364 H1356 0.950 . S
C1364 C1365 1.386 . S
C1364 C1366 1.391 . S
C1365 C1364 1.386 . S
C1365 C1369 1.393 . S
C1366 H1358 0.950 . S
C1366 C1364 1.391 . S
C1366 C1367 1.400 . S
C1367 C1366 1.400 . S
C1367 C1368 1.398 . S
C1367 C1373 1.491 . S
C1368 H1359 0.950 . S
C1368 C1367 1.398 . S
C1368 C1369 1.391 . S
C1369 H1357 0.950 . S
C1369 C1365 1.393 . S
C1369 C1368 1.391 . S
C1370 H1360 0.950 . S
C1370 C1371 1.386 . S
C1370 C1372 1.391 . S
C1371 C1370 1.386 . S
C1371 C1375 1.393 . S
C1372 H1361 0.950 . S
C1372 C1370 1.391 . S
C1372 C1373 1.400 . S
C1373 C1367 1.491 . S
C1373 C1372 1.400 . S
C1373 C1374 1.398 . S
C1374 H1362 0.950 . S
C1374 C1373 1.398 . S
C1374 C1375 1.391 . S
C1375 H1363 0.950 . S
C1375 C1371 1.393 . S
C1375 C1374 1.391 . S
H1376 C1384 0.950 . S
H1377 C1389 0.950 . S
H1378 C1386 0.950 . S
H1379 C1388 0.950 . S
H1380 C1390 0.950 . S
H1381 C1392 0.950 . S
H1382 C1394 0.950 . S
H1383 C1395 0.950 . S
C1384 H1376 0.950 . S
C1384 C1385 1.386 . S
C1384 C1386 1.391 . S
C1385 C1384 1.386 . S
C1385 C1389 1.393 . S
C1386 H1378 0.950 . S
C1386 C1384 1.391 . S
C1386 C1387 1.400 . S
C1387 C1386 1.400 . S
C1387 C1388 1.398 . S
C1387 C1393 1.491 . S
C1388 H1379 0.950 . S
C1388 C1387 1.398 . S
C1388 C1389 1.391 . S
C1389 H1377 0.950 . S
C1389 C1385 1.393 . S
C1389 C1388 1.391 . S
C1390 H1380 0.950 . S
C1390 C1391 1.386 . S
C1390 C1392 1.391 . S
C1391 C1390 1.386 . S
C1391 C1395 1.393 . S
C1392 H1381 0.950 . S
C1392 C1390 1.391 . S
C1392 C1393 1.400 . S
C1393 C1387 1.491 . S
C1393 C1392 1.400 . S
C1393 C1394 1.398 . S
C1394 H1382 0.950 . S
C1394 C1393 1.398 . S
C1394 C1395 1.391 . S
C1395 H1383 0.950 . S
C1395 C1391 1.393 . S
C1395 C1394 1.391 . S
H1396 C1404 0.950 . S
H1397 C1409 0.950 . S
H1398 C1406 0.950 . S
H1399 C1408 0.950 . S
H1400 C1410 0.950 . S
H1401 C1412 0.950 . S
H1402 C1414 0.950 . S
H1403 C1415 0.950 . S
C1404 H1396 0.950 . S
C1404 C1405 1.386 . S
C1404 C1406 1.391 . S
C1405 C1404 1.386 . S
C1405 C1409 1.393 . S
C1406 H1398 0.950 . S
C1406 C1404 1.391 . S
C1406 C1407 1.400 . S
C1407 C1406 1.400 . S
C1407 C1408 1.398 . S
C1407 C1413 1.491 . S
C1408 H1399 0.950 . S
C1408 C1407 1.398 . S
C1408 C1409 1.391 . S
C1409 H1397 0.950 . S
C1409 C1405 1.393 . S
C1409 C1408 1.391 . S
C1410 H1400 0.950 . S
C1410 C1411 1.386 . S
C1410 C1412 1.391 . S
C1411 C1410 1.386 . S
C1411 C1415 1.393 . S
C1412 H1401 0.950 . S
C1412 C1410 1.391 . S
C1412 C1413 1.400 . S
C1413 C1407 1.491 . S
C1413 C1412 1.400 . S
C1413 C1414 1.398 . S
C1414 H1402 0.950 . S
C1414 C1413 1.398 . S
C1414 C1415 1.391 . S
C1415 H1403 0.950 . S
C1415 C1411 1.393 . S
C1415 C1414 1.391 . S
H1416 C1424 0.950 . S
H1417 C1429 0.950 . S
H1418 C1426 0.950 . S
H1419 C1428 0.950 . S
H1420 C1430 0.950 . S
H1421 C1432 0.950 . S
H1422 C1434 0.950 . S
H1423 C1435 0.950 . S
C1424 H1416 0.950 . S
C1424 C1425 1.386 . S
C1424 C1426 1.391 . S
C1425 C1424 1.386 . S
C1425 C1429 1.393 . S
C1426 H1418 0.950 . S
C1426 C1424 1.391 . S
C1426 C1427 1.400 . S
C1427 C1426 1.400 . S
C1427 C1428 1.398 . S
C1427 C1433 1.491 . S
C1428 H1419 0.950 . S
C1428 C1427 1.398 . S
C1428 C1429 1.391 . S
C1429 H1417 0.950 . S
C1429 C1425 1.393 . S
C1429 C1428 1.391 . S
C1430 H1420 0.950 . S
C1430 C1431 1.386 . S
C1430 C1432 1.391 . S
C1431 C1430 1.386 . S
C1431 C1435 1.393 . S
C1432 H1421 0.950 . S
C1432 C1430 1.391 . S
C1432 C1433 1.400 . S
C1433 C1427 1.491 . S
C1433 C1432 1.400 . S
C1433 C1434 1.398 . S
C1434 H1422 0.950 . S
C1434 C1433 1.398 . S
C1434 C1435 1.391 . S
C1435 H1423 0.950 . S
C1435 C1431 1.393 . S
C1435 C1434 1.391 . S
H1436 C1444 0.950 . S
H1437 C1449 0.950 . S
H1438 C1446 0.950 . S
H1439 C1448 0.950 . S
H1440 C1450 0.950 . S
H1441 C1452 0.950 . S
H1442 C1454 0.950 . S
H1443 C1455 0.950 . S
C1444 H1436 0.950 . S
C1444 C1445 1.386 . S
C1444 C1446 1.391 . S
C1445 C1444 1.386 . S
C1445 C1449 1.393 . S
C1446 H1438 0.950 . S
C1446 C1444 1.391 . S
C1446 C1447 1.400 . S
C1447 C1446 1.400 . S
C1447 C1448 1.398 . S
C1447 C1453 1.491 . S
C1448 H1439 0.950 . S
C1448 C1447 1.398 . S
C1448 C1449 1.391 . S
C1449 H1437 0.950 . S
C1449 C1445 1.393 . S
C1449 C1448 1.391 . S
C1450 H1440 0.950 . S
C1450 C1451 1.386 . S
C1450 C1452 1.391 . S
C1451 C1450 1.386 . S
C1451 C1455 1.393 . S
C1452 H1441 0.950 . S
C1452 C1450 1.391 . S
C1452 C1453 1.400 . S
C1453 C1447 1.491 . S
C1453 C1452 1.400 . S
C1453 C1454 1.398 . S
C1454 H1442 0.950 . S
C1454 C1453 1.398 . S
C1454 C1455 1.391 . S
C1455 H1443 0.950 . S
C1455 C1451 1.393 . S
C1455 C1454 1.391 . S
H1456 C1464 0.950 . S
H1457 C1469 0.950 . S
H1458 C1466 0.950 . S
H1459 C1468 0.950 . S
H1460 C1470 0.950 . S
H1461 C1472 0.950 . S
H1462 C1474 0.950 . S
H1463 C1475 0.950 . S
C1464 H1456 0.950 . S
C1464 C1465 1.386 . S
C1464 C1466 1.391 . S
C1465 C1464 1.386 . S
C1465 C1469 1.393 . S
C1466 H1458 0.950 . S
C1466 C1464 1.391 . S
C1466 C1467 1.400 . S
C1467 C1466 1.400 . S
C1467 C1468 1.398 . S
C1467 C1473 1.491 . S
C1468 H1459 0.950 . S
C1468 C1467 1.398 . S
C1468 C1469 1.391 . S
C1469 H1457 0.950 . S
C1469 C1465 1.393 . S
C1469 C1468 1.391 . S
C1470 H1460 0.950 . S
C1470 C1471 1.386 . S
C1470 C1472 1.391 . S
C1471 C1470 1.386 . S
C1471 C1475 1.393 . S
C1472 H1461 0.950 . S
C1472 C1470 1.391 . S
C1472 C1473 1.400 . S
C1473 C1467 1.491 . S
C1473 C1472 1.400 . S
C1473 C1474 1.398 . S
C1474 H1462 0.950 . S
C1474 C1473 1.398 . S
C1474 C1475 1.391 . S
C1475 H1463 0.950 . S
C1475 C1471 1.393 . S
C1475 C1474 1.391 . S
H1476 C1484 0.950 . S
H1477 C1489 0.950 . S
H1478 C1486 0.950 . S
H1479 C1488 0.950 . S
H1480 C1490 0.950 . S
H1481 C1492 0.950 . S
H1482 C1494 0.950 . S
H1483 C1495 0.950 . S
C1484 H1476 0.950 . S
C1484 C1485 1.386 . S
C1484 C1486 1.391 . S
C1485 C1484 1.386 . S
C1485 C1489 1.393 . S
C1486 H1478 0.950 . S
C1486 C1484 1.391 . S
C1486 C1487 1.400 . S
C1487 C1486 1.400 . S
C1487 C1488 1.398 . S
C1487 C1493 1.491 . S
C1488 H1479 0.950 . S
C1488 C1487 1.398 . S
C1488 C1489 1.391 . S
C1489 H1477 0.950 . S
C1489 C1485 1.393 . S
C1489 C1488 1.391 . S
C1490 H1480 0.950 . S
C1490 C1491 1.386 . S
C1490 C1492 1.391 . S
C1491 C1490 1.386 . S
C1491 C1495 1.393 . S
C1492 H1481 0.950 . S
C1492 C1490 1.391 . S
C1492 C1493 1.400 . S
C1493 C1487 1.491 . S
C1493 C1492 1.400 . S
C1493 C1494 1.398 . S
C1494 H1482 0.950 . S
C1494 C1493 1.398 . S
C1494 C1495 1.391 . S
C1495 H1483 0.950 . S
C1495 C1491 1.393 . S
C1495 C1494 1.391 . S
H1496 C1504 0.950 . S
H1497 C1509 0.950 . S
H1498 C1506 0.950 . S
H1499 C1508 0.950 . S
H1500 C1510 0.950 . S
H1501 C1512 0.950 . S
H1502 C1514 0.950 . S
H1503 C1515 0.950 . S
C1504 H1496 0.950 . S
C1504 C1505 1.386 . S
C1504 C1506 1.391 . S
C1505 C1504 1.386 . S
C1505 C1509 1.393 . S
C1506 H1498 0.950 . S
C1506 C1504 1.391 . S
C1506 C1507 1.400 . S
C1507 C1506 1.400 . S
C1507 C1508 1.398 . S
C1507 C1513 1.491 . S
C1508 H1499 0.950 . S
C1508 C1507 1.398 . S
C1508 C1509 1.391 . S
C1509 H1497 0.950 . S
C1509 C1505 1.393 . S
C1509 C1508 1.391 . S
C1510 H1500 0.950 . S
C1510 C1511 1.386 . S
C1510 C1512 1.391 . S
C1511 C1510 1.386 . S
C1511 C1515 1.393 . S
C1512 H1501 0.950 . S
C1512 C1510 1.391 . S
C1512 C1513 1.400 . S
C1513 C1507 1.491 . S
C1513 C1512 1.400 . S
C1513 C1514 1.398 . S
C1514 H1502 0.950 . S
C1514 C1513 1.398 . S
C1514 C1515 1.391 . S
C1515 H1503 0.950 . S
C1515 C1511 1.393 . S
C1515 C1514 1.391 . S
H1516 C1524 0.950 . S
H1517 C1529 0.950 . S
H1518 C1526 0.950 . S
H1519 C1528 0.950 . S
H1520 C1530 0.950 . S
H1521 C1532 0.950 . S
H1522 C1534 0.950 . S
H1523 C1535 0.950 . S
C1524 H1516 0.950 . S
C1524 C1525 1.386 . S
C1524 C1526 1.391 . S
C1525 C1524 1.386 . S
C1525 C1529 1.393 . S
C1526 H1518 0.950 . S
C1526 C1524 1.391 . S
C1526 C1527 1.400 . S
C1527 C1526 1.400 . S
C1527 C1528 1.398 . S
C1527 C1533 1.491 . S
C1528 H1519 0.950 . S
C1528 C1527 1.398 . S
C1528 C1529 1.391 . S
C1529 H1517 0.950 . S
C1529 C1525 1.393 . S
C1529 C1528 1.391 . S
C1530 H1520 0.950 . S
C1530 C1531 1.386 . S
C1530 C1532 1.391 . S
C1531 C1530 1.386 . S
C1531 C1535 1.393 . S
C1532 H1521 0.950 . S
C1532 C1530 1.391 . S
C1532 C1533 1.400 . S
C1533 C1527 1.491 . S
C1533 C1532 1.400 . S
C1533 C1534 1.398 . S
C1534 H1522 0.950 . S
C1534 C1533 1.398 . S
C1534 C1535 1.391 . S
C1535 H1523 0.950 . S
C1535 C1531 1.393 . S
C1535 C1534 1.391 . S
H1536 C1544 0.950 . S
H1537 C1549 0.950 . S
H1538 C1546 0.950 . S
H1539 C1548 0.950 . S
H1540 C1550 0.950 . S
H1541 C1552 0.950 . S
H1542 C1554 0.950 . S
H1543 C1555 0.950 . S
C1544 H1536 0.950 . S
C1544 C1545 1.386 . S
C1544 C1546 1.391 . S
C1545 C1544 1.386 . S
C1545 C1549 1.393 . S
C1546 H1538 0.950 . S
C1546 C1544 1.391 . S
C1546 C1547 1.400 . S
C1547 C1546 1.400 . S
C1547 C1548 1.398 . S
C1547 C1553 1.491 . S
C1548 H1539 0.950 . S
C1548 C1547 1.398 . S
C1548 C1549 1.391 . S
C1549 H1537 0.950 . S
C1549 C1545 1.393 . S
C1549 C1548 1.391 . S
C1550 H1540 0.950 . S
C1550 C1551 1.386 . S
C1550 C1552 1.391 . S
C1551 C1550 1.386 . S
C1551 C1555 1.393 . S
C1552 H1541 0.950 . S
C1552 C1550 1.391 . S
C1552 C1553 1.400 . S
C1553 C1547 1.491 . S
C1553 C1552 1.400 . S
C1553 C1554 1.398 . S
C1554 H1542 0.950 . S
C1554 C1553 1.398 . S
C1554 C1555 1.391 . S
C1555 H1543 0.950 . S
C1555 C1551 1.393 . S
C1555 C1554 1.391 . S
H1556 C1564 0.950 . S
H1557 C1569 0.950 . S
H1558 C1566 0.950 . S
H1559 C1568 0.950 . S
H1560 C1570 0.950 . S
H1561 C1572 0.950 . S
H1562 C1574 0.950 . S
H1563 C1575 0.950 . S
C1564 H1556 0.950 . S
C1564 C1565 1.386 . S
C1564 C1566 1.391 . S
C1565 C1564 1.386 . S
C1565 C1569 1.393 . S
C1566 H1558 0.950 . S
C1566 C1564 1.391 . S
C1566 C1567 1.400 . S
C1567 C1566 1.400 . S
C1567 C1568 1.398 . S
C1567 C1573 1.491 . S
C1568 H1559 0.950 . S
C1568 C1567 1.398 . S
C1568 C1569 1.391 . S
C1569 H1557 0.950 . S
C1569 C1565 1.393 . S
C1569 C1568 1.391 . S
C1570 H1560 0.950 . S
C1570 C1571 1.386 . S
C1570 C1572 1.391 . S
C1571 C1570 1.386 . S
C1571 C1575 1.393 . S
C1572 H1561 0.950 . S
C1572 C1570 1.391 . S
C1572 C1573 1.400 . S
C1573 C1567 1.491 . S
C1573 C1572 1.400 . S
C1573 C1574 1.398 . S
C1574 H1562 0.950 . S
C1574 C1573 1.398 . S
C1574 C1575 1.391 . S
C1575 H1563 0.950 . S
C1575 C1571 1.393 . S
C1575 C1574 1.391 . S
H1576 C1584 0.950 . S
H1577 C1589 0.950 . S
H1578 C1586 0.950 . S
H1579 C1588 0.950 . S
H1580 C1590 0.950 . S
H1581 C1592 0.950 . S
H1582 C1594 0.950 . S
H1583 C1595 0.950 . S
C1584 H1576 0.950 . S
C1584 C1585 1.386 . S
C1584 C1586 1.391 . S
C1585 C1584 1.386 . S
C1585 C1589 1.393 . S
C1586 H1578 0.950 . S
C1586 C1584 1.391 . S
C1586 C1587 1.400 . S
C1587 C1586 1.400 . S
C1587 C1588 1.398 . S
C1587 C1593 1.491 . S
C1588 H1579 0.950 . S
C1588 C1587 1.398 . S
C1588 C1589 1.391 . S
C1589 H1577 0.950 . S
C1589 C1585 1.393 . S
C1589 C1588 1.391 . S
C1590 H1580 0.950 . S
C1590 C1591 1.386 . S
C1590 C1592 1.391 . S
C1591 C1590 1.386 . S
C1591 C1595 1.393 . S
C1592 H1581 0.950 . S
C1592 C1590 1.391 . S
C1592 C1593 1.400 . S
C1593 C1587 1.491 . S
C1593 C1592 1.400 . S
C1593 C1594 1.398 . S
C1594 H1582 0.950 . S
C1594 C1593 1.398 . S
C1594 C1595 1.391 . S
C1595 H1583 0.950 . S
C1595 C1591 1.393 . S
C1595 C1594 1.391 . S
H1596 C1604 0.950 . S
H1597 C1609 0.950 . S
H1598 C1606 0.950 . S
H1599 C1608 0.950 . S
H1600 C1610 0.950 . S
H1601 C1612 0.950 . S
H1602 C1614 0.950 . S
H1603 C1615 0.950 . S
C1604 H1596 0.950 . S
C1604 C1605 1.386 . S
C1604 C1606 1.391 . S
C1605 C1604 1.386 . S
C1605 C1609 1.393 . S
C1606 H1598 0.950 . S
C1606 C1604 1.391 . S
C1606 C1607 1.400 . S
C1607 C1606 1.400 . S
C1607 C1608 1.398 . S
C1607 C1613 1.491 . S
C1608 H1599 0.950 . S
C1608 C1607 1.398 . S
C1608 C1609 1.391 . S
C1609 H1597 0.950 . S
C1609 C1605 1.393 . S
C1609 C1608 1.391 . S
C1610 H1600 0.950 . S
C1610 C1611 1.386 . S
C1610 C1612 1.391 . S
C1611 C1610 1.386 . S
C1611 C1615 1.393 . S
C1612 H1601 0.950 . S
C1612 C1610 1.391 . S
C1612 C1613 1.400 . S
C1613 C1607 1.491 . S
C1613 C1612 1.400 . S
C1613 C1614 1.398 . S
C1614 H1602 0.950 . S
C1614 C1613 1.398 . S
C1614 C1615 1.391 . S
C1615 H1603 0.950 . S
C1615 C1611 1.393 . S
C1615 C1614 1.391 . S
H1616 C1624 0.950 . S
H1617 C1629 0.950 . S
H1618 C1626 0.950 . S
H1619 C1628 0.950 . S
H1620 C1630 0.950 . S
H1621 C1632 0.950 . S
H1622 C1634 0.950 . S
H1623 C1635 0.950 . S
C1624 H1616 0.950 . S
C1624 C1625 1.386 . S
C1624 C1626 1.391 . S
C1625 C1624 1.386 . S
C1625 C1629 1.393 . S
C1626 H1618 0.950 . S
C1626 C1624 1.391 . S
C1626 C1627 1.400 . S
C1627 C1626 1.400 . S
C1627 C1628 1.398 . S
C1627 C1633 1.491 . S
C1628 H1619 0.950 . S
C1628 C1627 1.398 . S
C1628 C1629 1.391 . S
C1629 H1617 0.950 . S
C1629 C1625 1.393 . S
C1629 C1628 1.391 . S
C1630 H1620 0.950 . S
C1630 C1631 1.386 . S
C1630 C1632 1.391 . S
C1631 C1630 1.386 . S
C1631 C1635 1.393 . S
C1632 H1621 0.950 . S
C1632 C1630 1.391 . S
C1632 C1633 1.400 . S
C1633 C1627 1.491 . S
C1633 C1632 1.400 . S
C1633 C1634 1.398 . S
C1634 H1622 0.950 . S
C1634 C1633 1.398 . S
C1634 C1635 1.391 . S
C1635 H1623 0.950 . S
C1635 C1631 1.393 . S
C1635 C1634 1.391 . S
H1636 C1644 0.950 . S
H1637 C1649 0.950 . S
H1638 C1646 0.950 . S
H1639 C1648 0.950 . S
H1640 C1650 0.950 . S
H1641 C1652 0.950 . S
H1642 C1654 0.950 . S
H1643 C1655 0.950 . S
C1644 H1636 0.950 . S
C1644 C1645 1.386 . S
C1644 C1646 1.391 . S
C1645 C1644 1.386 . S
C1645 C1649 1.393 . S
C1646 H1638 0.950 . S
C1646 C1644 1.391 . S
C1646 C1647 1.400 . S
C1647 C1646 1.400 . S
C1647 C1648 1.398 . S
C1647 C1653 1.491 . S
C1648 H1639 0.950 . S
C1648 C1647 1.398 . S
C1648 C1649 1.391 . S
C1649 H1637 0.950 . S
C1649 C1645 1.393 . S
C1649 C1648 1.391 . S
C1650 H1640 0.950 . S
C1650 C1651 1.386 . S
C1650 C1652 1.391 . S
C1651 C1650 1.386 . S
C1651 C1655 1.393 . S
C1652 H1641 0.950 . S
C1652 C1650 1.391 . S
C1652 C1653 1.400 . S
C1653 C1647 1.491 . S
C1653 C1652 1.400 . S
C1653 C1654 1.398 . S
C1654 H1642 0.950 . S
C1654 C1653 1.398 . S
C1654 C1655 1.391 . S
C1655 H1643 0.950 . S
C1655 C1651 1.393 . S
C1655 C1654 1.391 . S
H1656 C1664 0.950 . S
H1657 C1669 0.950 . S
H1658 C1666 0.950 . S
H1659 C1668 0.950 . S
H1660 C1670 0.950 . S
H1661 C1672 0.950 . S
H1662 C1674 0.950 . S
H1663 C1675 0.950 . S
C1664 H1656 0.950 . S
C1664 C1665 1.386 . S
C1664 C1666 1.391 . S
C1665 C1664 1.386 . S
C1665 C1669 1.393 . S
C1666 H1658 0.950 . S
C1666 C1664 1.391 . S
C1666 C1667 1.400 . S
C1667 C1666 1.400 . S
C1667 C1668 1.398 . S
C1667 C1673 1.491 . S
C1668 H1659 0.950 . S
C1668 C1667 1.398 . S
C1668 C1669 1.391 . S
C1669 H1657 0.950 . S
C1669 C1665 1.393 . S
C1669 C1668 1.391 . S
C1670 H1660 0.950 . S
C1670 C1671 1.386 . S
C1670 C1672 1.391 . S
C1671 C1670 1.386 . S
C1671 C1675 1.393 . S
C1672 H1661 0.950 . S
C1672 C1670 1.391 . S
C1672 C1673 1.400 . S
C1673 C1667 1.491 . S
C1673 C1672 1.400 . S
C1673 C1674 1.398 . S
C1674 H1662 0.950 . S
C1674 C1673 1.398 . S
C1674 C1675 1.391 . S
C1675 H1663 0.950 . S
C1675 C1671 1.393 . S
C1675 C1674 1.391 . S
H1676 C1684 0.950 . S
H1677 C1689 0.950 . S
H1678 C1686 0.950 . S
H1679 C1688 0.950 . S
H1680 C1690 0.950 . S
H1681 C1692 0.950 . S
H1682 C1694 0.950 . S
H1683 C1695 0.950 . S
C1684 H1676 0.950 . S
C1684 C1685 1.386 . S
C1684 C1686 1.391 . S
C1685 C1684 1.386 . S
C1685 C1689 1.393 . S
C1686 H1678 0.950 . S
C1686 C1684 1.391 . S
C1686 C1687 1.400 . S
C1687 C1686 1.400 . S
C1687 C1688 1.398 . S
C1687 C1693 1.491 . S
C1688 H1679 0.950 . S
C1688 C1687 1.398 . S
C1688 C1689 1.391 . S
C1689 H1677 0.950 . S
C1689 C1685 1.393 . S
C1689 C1688 1.391 . S
C1690 H1680 0.950 . S
C1690 C1691 1.386 . S
C1690 C1692 1.391 . S
C1691 C1690 1.386 . S
C1691 C1695 1.393 . S
C1692 H1681 0.950 . S
C1692 C1690 1.391 . S
C1692 C1693 1.400 . S
C1693 C1687 1.491 . S
C1693 C1692 1.400 . S
C1693 C1694 1.398 . S
C1694 H1682 0.950 . S
C1694 C1693 1.398 . S
C1694 C1695 1.391 . S
C1695 H1683 0.950 . S
C1695 C1691 1.393 . S
C1695 C1694 1.391 . S
C425 C122 0.843 . S
C431 C10 0.846 . S
C445 C23 0.846 . S
C451 C343 0.812 . S
C465 C148 0.812 . S
C471 C36 0.846 . S
C485 C317 0.851 . S
C491 C49 0.843 . S
C505 C62 0.842 . S
C511 C200 0.852 . S
C525 C369 0.801 . S
C531 C75 0.849 . S
C545 C88 0.841 . S
C551 C174 0.838 . S
C565 C395 0.851 . S
C571 C101 0.843 . S
C585 C18 0.837 . S
C591 C114 0.841 . S
C605 C127 0.854 . S
C611 C239 0.786 . S
C625 C44 0.833 . S
C631 C140 0.842 . S
C645 C153 0.842 . S
C651 C213 0.853 . S
C665 C166 0.853 . S
C671 C96 0.817 . S
C685 C265 0.809 . S
C691 C179 0.854 . S
C705 C192 0.843 . S
C711 C70 0.851 . S
C725 C291 0.835 . S
C731 C205 0.841 . S
C745 C330 0.851 . S
C751 C218 0.840 . S
C765 C135 0.833 . S
C771 C231 0.849 . S
C785 C244 0.852 . S
C791 C356 0.790 . S
C805 C109 0.851 . S
C811 C257 0.843 . S
C825 C408 0.852 . S
C831 C270 0.840 . S
C845 C283 0.856 . S
C851 C161 0.798 . S
C865 C382 0.847 . S
C871 C296 0.840 . S
C885 C187 0.853 . S
C891 C309 0.841 . S
C905 C226 0.810 . S
C911 C322 0.846 . S
C925 C335 0.840 . S
C931 C31 0.848 . S
C945 C348 0.852 . S
C951 C252 0.790 . S
C965 C361 0.849 . S
C971 C5 0.834 . S
C985 C304 0.842 . S
C991 C374 0.846 . S
C1005 C387 0.856 . S
C1011 C57 0.790 . S
C1025 C400 0.840 . S
C1031 C278 0.844 . S
C1045 C413 0.841 . S
C1051 C83 0.838 . S
C1065 C312 1.225 . S
C1071 C0 1.225 . S
C1085 C13 1.248 . S
C1091 C117 1.248 . S
C1105 C26 1.211 . S
C1111 C338 1.211 . S
C1125 C39 1.211 . S
C1131 C143 1.211 . S
C1145 C52 1.211 . S
C1151 C364 1.211 . S
C1165 C65 1.214 . S
C1171 C169 1.214 . S
C1185 C390 1.213 . S
C1191 C78 1.213 . S
C1205 C91 1.211 . S
C1211 C195 1.211 . S
C1225 C104 1.232 . S
C1231 C208 1.232 . S
C1245 C130 1.239 . S
C1251 C234 1.239 . S
C1265 C260 1.244 . S
C1271 C156 1.244 . S
C1285 C286 1.228 . S
C1291 C182 1.228 . S
C1305 C221 1.224 . S
C1311 C325 1.224 . S
C1325 C351 1.244 . S
C1331 C247 1.244 . S
C1345 C273 1.213 . S
C1351 C377 1.213 . S
C1365 C403 1.237 . S
C1371 C299 1.237 . S
C1385 C281 1.629 . S
C1391 C8 1.626 . S
C1405 C294 1.603 . S
C1411 C21 1.604 . S
C1425 C34 1.609 . S
C1431 C307 1.613 . S
C1445 C268 1.614 . S
C1451 C47 1.618 . S
C1465 C255 1.605 . S
C1471 C60 1.603 . S
C1485 C216 1.603 . S
C1491 C73 1.602 . S
C1505 C86 1.627 . S
C1511 C229 1.630 . S
C1525 C242 1.630 . S
C1531 C99 1.631 . S
C1545 C385 1.631 . S
C1551 C112 1.630 . S
C1565 C398 1.602 . S
C1571 C125 1.604 . S
C1585 C411 1.613 . S
C1591 C138 1.609 . S
C1605 C151 1.617 . S
C1611 C372 1.621 . S
C1625 C359 1.631 . S
C1631 C164 1.629 . S
C1645 C320 1.627 . S
C1651 C177 1.624 . S
C1665 C333 1.606 . S
C1671 C190 1.604 . S
C1685 C346 1.608 . S
C1691 C203 1.605 . S
