# Generated by pormake.
# Topology uou, (4)-cn, num edge types: 1
# Building blocks:
#     Node 0, Type 0, BuildingBlock: CEKHIL_clean_sbu_0, # of connection points: 4
#     Node 1, Type 0, BuildingBlock: CEKHIL_clean_sbu_0, # of connection points: 4
#     Node 2, Type 0, BuildingBlock: CEKHIL_clean_sbu_0, # of connection points: 4
#     Node 3, Type 0, BuildingBlock: CEKHIL_clean_sbu_0, # of connection points: 4
#     Node 4, Type 0, BuildingBlock: CEKHIL_clean_sbu_0, # of connection points: 4
#     Node 5, Type 0, BuildingBlock: CEKHIL_clean_sbu_0, # of connection points: 4
#     Node 6, Type 0, BuildingBlock: CEKHIL_clean_sbu_0, # of connection points: 4
#     Node 7, Type 0, BuildingBlock: CEKHIL_clean_sbu_0, # of connection points: 4
#     Node 8, Type 0, BuildingBlock: CEKHIL_clean_sbu_0, # of connection points: 4
#     Node 9, Type 0, BuildingBlock: CEKHIL_clean_sbu_0, # of connection points: 4
#     Node 10, Type 0, BuildingBlock: CEKHIL_clean_sbu_0, # of connection points: 4
#     Node 11, Type 0, BuildingBlock: CEKHIL_clean_sbu_0, # of connection points: 4
#     Node 12, Type 0, BuildingBlock: CEKHIL_clean_sbu_0, # of connection points: 4
#     Node 13, Type 0, BuildingBlock: CEKHIL_clean_sbu_0, # of connection points: 4
#     Node 14, Type 0, BuildingBlock: CEKHIL_clean_sbu_0, # of connection points: 4
#     Node 15, Type 0, BuildingBlock: CEKHIL_clean_sbu_0, # of connection points: 4
#     Edge 16, Type (0, 0), BuildingBlock: XIVTED_clean_linker_0, # of connection points: 2
#     Edge 17, Type (0, 0), BuildingBlock: XIVTED_clean_linker_0, # of connection points: 2
#     Edge 18, Type (0, 0), BuildingBlock: XIVTED_clean_linker_0, # of connection points: 2
#     Edge 19, Type (0, 0), BuildingBlock: XIVTED_clean_linker_0, # of connection points: 2
#     Edge 20, Type (0, 0), BuildingBlock: XIVTED_clean_linker_0, # of connection points: 2
#     Edge 21, Type (0, 0), BuildingBlock: XIVTED_clean_linker_0, # of connection points: 2
#     Edge 22, Type (0, 0), BuildingBlock: XIVTED_clean_linker_0, # of connection points: 2
#     Edge 23, Type (0, 0), BuildingBlock: XIVTED_clean_linker_0, # of connection points: 2
#     Edge 24, Type (0, 0), BuildingBlock: XIVTED_clean_linker_0, # of connection points: 2
#     Edge 25, Type (0, 0), BuildingBlock: XIVTED_clean_linker_0, # of connection points: 2
#     Edge 26, Type (0, 0), BuildingBlock: XIVTED_clean_linker_0, # of connection points: 2
#     Edge 27, Type (0, 0), BuildingBlock: XIVTED_clean_linker_0, # of connection points: 2
#     Edge 28, Type (0, 0), BuildingBlock: XIVTED_clean_linker_0, # of connection points: 2
#     Edge 29, Type (0, 0), BuildingBlock: XIVTED_clean_linker_0, # of connection points: 2
#     Edge 30, Type (0, 0), BuildingBlock: XIVTED_clean_linker_0, # of connection points: 2
#     Edge 31, Type (0, 0), BuildingBlock: XIVTED_clean_linker_0, # of connection points: 2
#     Edge 32, Type (0, 0), BuildingBlock: XIVTED_clean_linker_0, # of connection points: 2
#     Edge 33, Type (0, 0), BuildingBlock: XIVTED_clean_linker_0, # of connection points: 2
#     Edge 34, Type (0, 0), BuildingBlock: XIVTED_clean_linker_0, # of connection points: 2
#     Edge 35, Type (0, 0), BuildingBlock: XIVTED_clean_linker_0, # of connection points: 2
#     Edge 36, Type (0, 0), BuildingBlock: XIVTED_clean_linker_0, # of connection points: 2
#     Edge 37, Type (0, 0), BuildingBlock: XIVTED_clean_linker_0, # of connection points: 2
#     Edge 38, Type (0, 0), BuildingBlock: XIVTED_clean_linker_0, # of connection points: 2
#     Edge 39, Type (0, 0), BuildingBlock: XIVTED_clean_linker_0, # of connection points: 2
#     Edge 40, Type (0, 0), BuildingBlock: XIVTED_clean_linker_0, # of connection points: 2
#     Edge 41, Type (0, 0), BuildingBlock: XIVTED_clean_linker_0, # of connection points: 2
#     Edge 42, Type (0, 0), BuildingBlock: XIVTED_clean_linker_0, # of connection points: 2
#     Edge 43, Type (0, 0), BuildingBlock: XIVTED_clean_linker_0, # of connection points: 2
#     Edge 44, Type (0, 0), BuildingBlock: XIVTED_clean_linker_0, # of connection points: 2
#     Edge 45, Type (0, 0), BuildingBlock: XIVTED_clean_linker_0, # of connection points: 2
#     Edge 46, Type (0, 0), BuildingBlock: XIVTED_clean_linker_0, # of connection points: 2
#     Edge 47, Type (0, 0), BuildingBlock: XIVTED_clean_linker_0, # of connection points: 2
# Relax obj value: 0.038
# Max RMSD: 0.067
# Mean RMSD: 0.067
data_MOF--net-uou--node1-CEKHIL_clean_sbu_0--edge1-XIVTED_clean_linker_0
_symmetry_space_group_name_H-M    P1
_symmetry_Int_Tables_number       1
_symmetry_cell_setting            triclinic
loop_
_symmetry_equiv_pos_as_xyz
'x, y, z'
_cell_length_a     37.901921
_cell_length_b     40.231347
_cell_length_c     53.580302
_cell_angle_alpha  90.002337
_cell_angle_beta   90.018335
_cell_angle_gamma 90.004735
loop_
_atom_site_label
_atom_site_type_symbol
_atom_site_fract_x
_atom_site_fract_y
_atom_site_fract_z
_atom_type_partial_charge
Co0 Co 0.07997 0.07147 0.12081 0.0
O1 O 0.11111 0.03364 0.12201 0.0
O2 O 0.12491 0.08196 0.10502 0.0
C3 C 0.06263 0.06866 0.16087 0.0
O4 O 0.05486 0.11635 0.11708 0.0
Co5 Co 0.99947 0.06234 0.13093 0.0
O6 O 0.999 0.11157 0.13098 0.0
C7 C 0.02983 0.04107 0.08282 0.0
C8 C 0.1344 0.05177 0.11068 0.0
C9 C 0.02461 0.12901 0.12282 0.0
O10 O 0.05949 0.05503 0.08824 0.0
O11 O 0.00414 0.03883 0.09822 0.0
O12 O 0.09204 0.08346 0.15522 0.0
O13 O 0.04668 0.05391 0.14278 0.0
Co14 Co 0.43181 0.93406 0.11912 0.0
O15 O 0.40217 0.97303 0.1207 0.0
O16 O 0.38648 0.92542 0.10339 0.0
C17 C 0.44981 0.93508 0.15917 0.0
O18 O 0.45499 0.88826 0.11497 0.0
Co19 Co 0.51292 0.94056 0.12844 0.0
O20 O 0.51158 0.89139 0.12773 0.0
C21 C 0.48247 0.96347 0.08092 0.0
C22 C 0.37811 0.95579 0.10936 0.0
C23 C 0.48512 0.87475 0.11998 0.0
O24 O 0.45261 0.95007 0.08654 0.0
O25 O 0.5085 0.96496 0.0961 0.0
O26 O 0.4193 0.92242 0.15349 0.0
O27 O 0.46626 0.94954 0.14114 0.0
Co28 Co 0.5731 0.93689 0.36984 0.0
O29 O 0.60377 0.97521 0.36821 0.0
O30 O 0.61803 0.92738 0.38578 0.0
C31 C 0.55529 0.93792 0.32977 0.0
O32 O 0.54897 0.89155 0.37398 0.0
Co33 Co 0.4922 0.94467 0.36041 0.0
O34 O 0.49264 0.89547 0.36083 0.0
C35 C 0.52278 0.96704 0.40802 0.0
C36 C 0.6273 0.95746 0.37968 0.0
C37 C 0.51875 0.87844 0.36867 0.0
O38 O 0.5525 0.9534 0.40236 0.0
O39 O 0.49674 0.9688 0.39287 0.0
O40 O 0.58553 0.9248 0.33558 0.0
O41 O 0.53906 0.95288 0.34768 0.0
Co42 Co 0.92751 0.06886 0.36716 0.0
O43 O 0.89691 0.03071 0.36584 0.0
O44 O 0.88214 0.07886 0.38266 0.0
C45 C 0.94537 0.06602 0.32722 0.0
O46 O 0.95221 0.11397 0.37091 0.0
Co47 Co 0.00821 0.06002 0.35758 0.0
O48 O 0.00827 0.10925 0.35734 0.0
C49 C 0.97735 0.0389 0.40556 0.0
C50 C 0.87321 0.0485 0.37701 0.0
C51 C 0.9825 0.12668 0.36527 0.0
O52 O 0.94772 0.05276 0.39992 0.0
O53 O 0.00322 0.03661 0.3903 0.0
O54 O 0.91575 0.0806 0.33264 0.0
O55 O 0.9612 0.05146 0.34545 0.0
Co56 Co 0.93312 0.93541 0.86983 0.0
O57 O 0.90383 0.97461 0.86897 0.0
O58 O 0.88805 0.92686 0.886 0.0
C59 C 0.95001 0.93695 0.82959 0.0
O60 O 0.95618 0.88941 0.87316 0.0
Co61 Co 0.01402 0.94196 0.85952 0.0
O62 O 0.01242 0.8928 0.85965 0.0
C63 C 0.98493 0.964 0.90766 0.0
C64 C 0.87984 0.95739 0.88037 0.0
C65 C 0.98616 0.876 0.86753 0.0
O66 O 0.9549 0.95073 0.9023 0.0
O67 O 0.01054 0.96578 0.89215 0.0
O68 O 0.91958 0.92439 0.83556 0.0
O69 O 0.96703 0.95109 0.84751 0.0
Co70 Co 0.58061 0.06989 0.86769 0.0
O71 O 0.61125 0.03168 0.86747 0.0
O72 O 0.62569 0.08055 0.88327 0.0
C73 C 0.56332 0.06551 0.8277 0.0
O74 O 0.55602 0.11522 0.8702 0.0
Co75 Co 0.50004 0.06102 0.85773 0.0
O76 O 0.50013 0.1102 0.85635 0.0
C77 C 0.5301 0.04172 0.90641 0.0
C78 C 0.63477 0.05 0.87837 0.0
C79 C 0.52588 0.12783 0.86405 0.0
O80 O 0.55992 0.05511 0.90063 0.0
O81 O 0.50436 0.03907 0.89106 0.0
O82 O 0.59289 0.08024 0.83304 0.0
O83 O 0.54716 0.05168 0.8461 0.0
Co84 Co 0.42656 0.07249 0.62204 0.0
O85 O 0.39568 0.03446 0.6224 0.0
O86 O 0.3814 0.08337 0.60661 0.0
C87 C 0.44414 0.06813 0.66198 0.0
O88 O 0.45157 0.11763 0.6194 0.0
Co89 Co 0.50713 0.0628 0.63168 0.0
O90 O 0.50747 0.11198 0.63313 0.0
C91 C 0.47652 0.04392 0.58309 0.0
C92 C 0.37218 0.05286 0.61156 0.0
C93 C 0.4819 0.1299 0.6255 0.0
O94 O 0.44688 0.05754 0.58901 0.0
O95 O 0.50235 0.04099 0.59832 0.0
O96 O 0.41461 0.08299 0.65673 0.0
O97 O 0.46 0.0541 0.64353 0.0
Co98 Co 0.07419 0.93697 0.61946 0.0
O99 O 0.10307 0.97646 0.6204 0.0
O100 O 0.11943 0.92888 0.60339 0.0
C101 C 0.0571 0.93827 0.65965 0.0
O102 O 0.05169 0.89072 0.61605 0.0
Co103 Co 0.99319 0.94259 0.62957 0.0
O104 O 0.99543 0.89344 0.62957 0.0
C105 C 0.02217 0.9648 0.58144 0.0
C106 C 0.12732 0.95947 0.60907 0.0
C107 C 0.02191 0.87695 0.6217 0.0
O108 O 0.05239 0.95203 0.58694 0.0
O109 O 0.99643 0.96625 0.59685 0.0
O110 O 0.08771 0.92606 0.65373 0.0
O111 O 0.03999 0.95227 0.64172 0.0
Co112 Co 0.57192 0.56832 0.11956 0.0
O113 O 0.6016 0.52987 0.12379 0.0
O114 O 0.61767 0.57547 0.10379 0.0
C115 C 0.55315 0.57072 0.15938 0.0
O116 O 0.54865 0.6136 0.11307 0.0
Co117 Co 0.49066 0.5619 0.12824 0.0
O118 O 0.49213 0.611 0.12608 0.0
C119 C 0.52209 0.53572 0.08205 0.0
C120 C 0.626 0.546 0.11196 0.0
C121 C 0.51851 0.62728 0.1178 0.0
O122 O 0.55187 0.54943 0.08754 0.0
O123 O 0.49569 0.53532 0.09693 0.0
O124 O 0.58368 0.58306 0.15339 0.0
O125 O 0.53711 0.55465 0.14193 0.0
Co126 Co 0.92635 0.43347 0.12194 0.0
O127 O 0.89613 0.4717 0.12562 0.0
O128 O 0.88085 0.42546 0.10612 0.0
C129 C 0.94538 0.43199 0.16173 0.0
O130 O 0.95013 0.38832 0.11597 0.0
Co131 Co 0.00758 0.44087 0.13045 0.0
O132 O 0.0067 0.39172 0.12876 0.0
C133 C 0.97574 0.46577 0.08405 0.0
C134 C 0.87211 0.45508 0.11374 0.0
C135 C 0.98044 0.37503 0.12074 0.0
O136 O 0.94615 0.45186 0.08972 0.0
O137 O 1.00217 0.46678 0.09889 0.0
O138 O 0.91488 0.41932 0.15599 0.0
O139 O 0.96107 0.44793 0.14407 0.0
Co140 Co 0.08002 0.43198 0.36832 0.0
O141 O 0.10961 0.47095 0.36673 0.0
O142 O 0.12547 0.42331 0.38393 0.0
C143 C 0.06169 0.43286 0.32836 0.0
O144 O 0.05672 0.38619 0.37236 0.0
Co145 Co 0.99884 0.43902 0.35929 0.0
O146 O 1.00011 0.38986 0.35968 0.0
C147 C 0.02972 0.46167 0.40669 0.0
C148 C 0.13373 0.45374 0.37803 0.0
C149 C 0.02648 0.37295 0.36723 0.0
O150 O 0.0594 0.44797 0.40101 0.0
O151 O 0.00366 0.46346 0.39157 0.0
O152 O 0.0923 0.42032 0.33391 0.0
O153 O 0.04549 0.4475 0.34641 0.0
Co154 Co 0.43152 0.57123 0.3703 0.0
O155 O 0.40228 0.53202 0.36877 0.0
O156 O 0.38611 0.57948 0.38609 0.0
C157 C 0.44924 0.57052 0.33021 0.0
O158 O 0.45438 0.61722 0.37432 0.0
Co159 Co 0.51261 0.565 0.36084 0.0
O160 O 0.51085 0.61416 0.36128 0.0
C161 C 0.48262 0.54218 0.4085 0.0
C162 C 0.37804 0.54904 0.38009 0.0
C163 C 0.4844 0.63078 0.36904 0.0
O164 O 0.45264 0.55536 0.40286 0.0
O165 O 0.50862 0.54078 0.3933 0.0
O166 O 0.41865 0.58286 0.33602 0.0
O167 O 0.46593 0.55603 0.34814 0.0
Co168 Co 0.42587 0.43214 0.86813 0.0
O169 O 0.39508 0.47026 0.86822 0.0
O170 O 0.38109 0.42134 0.88409 0.0
C171 C 0.44223 0.43663 0.82797 0.0
O172 O 0.4506 0.38685 0.87037 0.0
Co173 Co 0.50614 0.4411 0.85738 0.0
O174 O 0.50613 0.39192 0.85587 0.0
C175 C 0.47729 0.4599 0.90653 0.0
C176 C 0.37177 0.45184 0.87923 0.0
C177 C 0.48059 0.37426 0.86386 0.0
O178 O 0.44722 0.44685 0.90093 0.0
O179 O 0.50275 0.46253 0.89096 0.0
O180 O 0.41288 0.42176 0.83362 0.0
O181 O 0.45881 0.4505 0.84618 0.0
Co182 Co 0.07441 0.56905 0.87024 0.0
O183 O 0.10395 0.52996 0.86977 0.0
O184 O 0.11971 0.57827 0.8859 0.0
C185 C 0.05676 0.56631 0.83016 0.0
O186 O 0.05121 0.61504 0.87308 0.0
Co187 Co 0.99336 0.56208 0.86065 0.0
O188 O 0.99484 0.61123 0.85992 0.0
C189 C 0.02321 0.5419 0.90908 0.0
C190 C 0.12803 0.54763 0.8807 0.0
C191 C 0.02115 0.62827 0.86743 0.0
O192 O 0.05328 0.55466 0.90316 0.0
O193 O 0.9973 0.53973 0.89384 0.0
O194 O 0.08725 0.57913 0.83567 0.0
O195 O 0.04016 0.55262 0.84846 0.0
Co196 Co 0.93236 0.56951 0.61966 0.0
O197 O 0.90334 0.53009 0.62068 0.0
O198 O 0.88673 0.57795 0.60424 0.0
C199 C 0.95058 0.56752 0.65963 0.0
O200 O 0.95487 0.61576 0.61627 0.0
Co201 Co 0.01362 0.56382 0.62875 0.0
O202 O 0.01145 0.61296 0.6291 0.0
C203 C 0.98331 0.54193 0.58088 0.0
C204 C 0.87887 0.54731 0.60978 0.0
C205 C 0.98478 0.62951 0.62163 0.0
O206 O 0.95324 0.55474 0.58674 0.0
O207 O 0.0094 0.54038 0.596 0.0
O208 O 0.91986 0.57995 0.65424 0.0
O209 O 0.96714 0.55382 0.64132 0.0
Co210 Co 0.5791 0.43453 0.62216 0.0
O211 O 0.60988 0.47266 0.62284 0.0
O212 O 0.62443 0.42391 0.60691 0.0
C213 C 0.56106 0.43843 0.66207 0.0
O214 O 0.55431 0.3893 0.61923 0.0
Co215 Co 0.49837 0.44388 0.63146 0.0
O216 O 0.49823 0.39469 0.63262 0.0
C217 C 0.52935 0.46334 0.58312 0.0
C218 C 0.63353 0.45439 0.61204 0.0
C219 C 0.52396 0.3769 0.6251 0.0
O220 O 0.55898 0.44969 0.58907 0.0
O221 O 0.50343 0.46607 0.59828 0.0
O222 O 0.59076 0.42385 0.6569 0.0
O223 O 0.54536 0.45254 0.64358 0.0
H224 H 0.31708 0.92285 0.09683 0.0
H225 H 0.19539 0.0863 0.10019 0.0
H226 H 0.35786 0.02095 0.1118 0.0
H227 H 0.15516 0.98688 0.1101 0.0
H228 H 0.25521 0.06323 0.0962 0.0
H229 H 0.2576 0.94655 0.09338 0.0
C230 C 0.3136 0.9494 0.0991 0.0
C231 C 0.34247 0.96989 0.10479 0.0
C232 C 0.23319 0.0465 0.09905 0.0
C233 C 0.27452 0.99721 0.1008 0.0
C234 C 0.19906 0.05964 0.10121 0.0
C235 C 0.17027 0.03852 0.10567 0.0
C236 C 0.23847 0.01197 0.10101 0.0
C237 C 0.17661 0.00413 0.10689 0.0
C238 C 0.27964 0.9629 0.09724 0.0
C239 C 0.33634 0.00416 0.10758 0.0
N240 N 0.20994 0.99197 0.10462 0.0
N241 N 0.30311 0.01672 0.1056 0.0
H242 H 0.68492 0.9244 0.39847 0.0
H243 H 0.85415 0.98332 0.37687 0.0
H244 H 0.65216 0.02041 0.3711 0.0
H245 H 0.81113 0.08146 0.38791 0.0
H246 H 0.79528 0.95995 0.38111 0.0
H247 H 0.74526 0.94538 0.40227 0.0
C248 C 0.6904 0.94991 0.39329 0.0
C249 C 0.66347 0.9705 0.38412 0.0
C250 C 0.79859 0.98651 0.38324 0.0
C251 C 0.73285 0.99459 0.38783 0.0
C252 C 0.83231 0.99997 0.38057 0.0
C253 C 0.83767 0.03445 0.38206 0.0
C254 C 0.76964 0.00764 0.38729 0.0
C255 C 0.80825 0.05474 0.38677 0.0
C256 C 0.725 0.96182 0.39521 0.0
C257 C 0.67213 0.00349 0.37797 0.0
N258 N 0.77542 0.04106 0.38887 0.0
N259 N 0.70603 0.01446 0.37986 0.0
H260 H 0.86044 0.02275 0.87886 0.0
H261 H 0.65459 0.98493 0.88039 0.0
H262 H 0.81826 0.92481 0.89233 0.0
H263 H 0.69635 0.08413 0.88806 0.0
H264 H 0.71414 0.96254 0.88499 0.0
H265 H 0.80098 0.04582 0.88245 0.0
C266 C 0.83869 0.0061 0.88279 0.0
C267 C 0.84436 0.97173 0.88516 0.0
C268 C 0.71033 0.98919 0.88593 0.0
C269 C 0.77595 0.99805 0.889 0.0
C270 C 0.6763 0.00204 0.88324 0.0
C271 C 0.67046 0.03651 0.8837 0.0
C272 C 0.73904 0.01093 0.88869 0.0
C273 C 0.69962 0.05741 0.88759 0.0
C274 C 0.80472 0.01934 0.88489 0.0
C275 C 0.81514 0.95143 0.89036 0.0
N276 N 0.7327 0.04432 0.88962 0.0
N277 N 0.78217 0.96483 0.8918 0.0
H278 H 0.14641 0.02493 0.61124 0.0
H279 H 0.35244 0.98784 0.60914 0.0
H280 H 0.18907 0.92741 0.59686 0.0
H281 H 0.31045 0.08705 0.60235 0.0
H282 H 0.29293 0.96539 0.60452 0.0
H283 H 0.20579 0.04832 0.60787 0.0
C284 C 0.16824 0.00843 0.60715 0.0
C285 C 0.16273 0.97408 0.60445 0.0
C286 C 0.29667 0.99206 0.60379 0.0
C287 C 0.23103 1.00076 0.60087 0.0
C288 C 0.33068 0.00494 0.60648 0.0
C289 C 0.33645 0.03943 0.60626 0.0
C290 C 0.2679 0.01377 0.60125 0.0
C291 C 0.30723 0.06032 0.60262 0.0
C292 C 0.20216 0.02186 0.60518 0.0
C293 C 0.19205 0.954 0.59908 0.0
N294 N 0.27416 0.04719 0.60057 0.0
N295 N 0.22495 0.96757 0.59776 0.0
H296 H 0.82283 0.44156 0.07715 0.0
H297 H 0.65763 0.50346 0.14416 0.0
H298 H 0.83928 0.49976 0.14376 0.0
H299 H 0.67666 0.55699 0.07572 0.0
H300 H 0.718 0.48172 0.14247 0.0
H301 H 0.76249 0.46471 0.07406 0.0
C302 C 0.81381 0.45917 0.09104 0.0
C303 C 0.83606 0.46883 0.11072 0.0
C304 C 0.70871 0.49795 0.12774 0.0
C305 C 0.76758 0.49461 0.10748 0.0
C306 C 0.67437 0.51033 0.1286 0.0
C307 C 0.66214 0.53211 0.11005 0.0
C308 C 0.73075 0.5066 0.10782 0.0
C309 C 0.68516 0.54039 0.09044 0.0
C310 C 0.77964 0.47243 0.08916 0.0
C311 C 0.8231 0.4918 0.12821 0.0
N312 N 0.71845 0.5274 0.0897 0.0
N313 N 0.78955 0.50348 0.12642 0.0
H314 H 0.35913 0.48357 0.37897 0.0
H315 H 0.15288 0.51916 0.37703 0.0
H316 H 0.3159 0.58149 0.39066 0.0
H317 H 0.19556 0.42116 0.38939 0.0
H318 H 0.21216 0.54247 0.38126 0.0
H319 H 0.29973 0.46017 0.3821 0.0
C320 C 0.33714 0.50015 0.3824 0.0
C321 C 0.34251 0.53459 0.38446 0.0
C322 C 0.20857 0.51591 0.38329 0.0
C323 C 0.2742 0.50792 0.38773 0.0
C324 C 0.17471 0.50253 0.38081 0.0
C325 C 0.16923 0.46809 0.38276 0.0
C326 C 0.23743 0.4947 0.38733 0.0
C327 C 0.19854 0.44783 0.38777 0.0
C328 C 0.30322 0.48674 0.38424 0.0
C329 C 0.31301 0.55482 0.38899 0.0
N330 N 0.23142 0.46138 0.38959 0.0
N331 N 0.28009 0.54124 0.39017 0.0
H332 H 0.18915 0.5809 0.89267 0.0
H333 H 0.31077 0.41725 0.88971 0.0
H334 H 0.14827 0.48242 0.87933 0.0
H335 H 0.35111 0.51675 0.88052 0.0
H336 H 0.251 0.44033 0.89394 0.0
H337 H 0.24865 0.55728 0.89628 0.0
C338 C 0.1926 0.55429 0.89081 0.0
C339 C 0.16369 0.53366 0.88551 0.0
C340 C 0.27303 0.45708 0.8912 0.0
C341 C 0.2317 0.50643 0.88966 0.0
C342 C 0.30714 0.44393 0.88891 0.0
C343 C 0.33596 0.46506 0.88457 0.0
C344 C 0.26776 0.49164 0.88944 0.0
C345 C 0.32965 0.49948 0.88363 0.0
C346 C 0.22659 0.54083 0.89276 0.0
C347 C 0.16981 0.49932 0.88323 0.0
N348 N 0.29633 0.51165 0.88598 0.0
N349 N 0.20306 0.48681 0.88525 0.0
H350 H 0.65347 0.51945 0.61046 0.0
H351 H 0.85953 0.48189 0.61167 0.0
H352 H 0.69524 0.4203 0.60257 0.0
H353 H 0.81702 0.57973 0.59832 0.0
H354 H 0.80003 0.45872 0.60842 0.0
H355 H 0.71303 0.54186 0.6061 0.0
C356 C 0.67518 0.50235 0.60763 0.0
C357 C 0.66932 0.46788 0.607 0.0
C358 C 0.80371 0.4852 0.60595 0.0
C359 C 0.73795 0.4935 0.60229 0.0
C360 C 0.8377 0.4985 0.60785 0.0
C361 C 0.8433 0.53288 0.60538 0.0
C362 C 0.77486 0.50644 0.60194 0.0
C363 C 0.81398 0.55311 0.60035 0.0
C364 C 0.70923 0.51522 0.60508 0.0
C365 C 0.69851 0.44701 0.60315 0.0
N366 N 0.78101 0.53966 0.59909 0.0
N367 N 0.73161 0.46012 0.60125 0.0
H368 H 0.98206 0.01693 0.30494 0.0
H369 H 0.06414 0.11953 0.19496 0.0
H370 H 0.94597 0.11746 0.29363 0.0
H371 H 0.02466 0.02025 0.18299 0.0
H372 H 0.03388 0.12056 0.2358 0.0
H373 H 0.01136 0.0187 0.26422 0.0
C374 C 0.98032 0.03935 0.29379 0.0
C375 C 0.96139 0.06697 0.30233 0.0
C376 C 0.03204 0.09866 0.22411 0.0
C377 C 0.99557 0.06947 0.25644 0.0
C378 C 0.04945 0.09793 0.20109 0.0
C379 C 0.04685 0.0697 0.18586 0.0
C380 C 0.01307 0.07059 0.23197 0.0
C381 C 0.02721 0.04244 0.19429 0.0
C382 C 0.99697 0.04032 0.27069 0.0
C383 C 0.95998 0.09554 0.28737 0.0
N384 N 0.01138 0.04339 0.21696 0.0
N385 N 0.97728 0.09625 0.2651 0.0
H386 H 0.51906 0.94216 0.17178 0.0
H387 H 0.48631 0.94688 0.31692 0.0
H388 H 0.41683 0.92048 0.20325 0.0
H389 H 0.58764 0.92024 0.28613 0.0
H390 H 0.46026 0.94208 0.27537 0.0
H391 H 0.54491 0.93891 0.21345 0.0
C392 C 0.50206 0.93661 0.18746 0.0
C393 C 0.46572 0.93172 0.18412 0.0
C394 C 0.48813 0.93705 0.27776 0.0
C395 C 0.49508 0.9284 0.23181 0.0
C396 C 0.50308 0.93995 0.30142 0.0
C397 C 0.53923 0.93408 0.3049 0.0
C398 C 0.50964 0.92895 0.25737 0.0
C399 C 0.55966 0.92501 0.28419 0.0
C400 C 0.51688 0.9346 0.2112 0.0
C401 C 0.44497 0.92443 0.20507 0.0
N402 N 0.54465 0.9231 0.26119 0.0
N403 N 0.45989 0.9234 0.22814 0.0
H404 H 0.09089 0.92192 0.70304 0.0
H405 H 0.9162 0.92092 0.78613 0.0
H406 H 0.98823 0.94594 0.67317 0.0
H407 H 0.01879 0.94504 0.81606 0.0
H408 H 0.9424 0.91768 0.74429 0.0
H409 H 0.06463 0.91797 0.7448 0.0
C410 C 0.06284 0.92614 0.70525 0.0
C411 C 0.04172 0.93452 0.68472 0.0
C412 C 0.95908 0.92353 0.76011 0.0
C413 C 0.01164 0.92962 0.73207 0.0
C414 C 0.94422 0.9253 0.78391 0.0
C415 C 0.96534 0.93351 0.80448 0.0
C416 C 0.99535 0.92941 0.75706 0.0
C417 C 1.00151 0.9389 0.80066 0.0
C418 C 0.04794 0.92396 0.72902 0.0
C419 C 0.0055 0.93968 0.68854 0.0
N420 N 0.01543 0.93668 0.77739 0.0
N421 N 0.99156 0.93708 0.71179 0.0
H422 H 0.44294 0.11846 0.69643 0.0
H423 H 0.52753 0.01576 0.8054 0.0
H424 H 0.48268 0.01951 0.68347 0.0
H425 H 0.56203 0.11677 0.79408 0.0
H426 H 0.49797 0.01719 0.76471 0.0
H427 H 0.4739 0.11917 0.73698 0.0
C428 C 0.45783 0.09685 0.70229 0.0
C429 C 0.4603 0.06881 0.68685 0.0
C430 C 0.51211 0.03896 0.77116 0.0
C431 C 0.4949 0.06935 0.73268 0.0
C432 C 0.5289 0.03818 0.79424 0.0
C433 C 0.54742 0.06607 0.80276 0.0
C434 C 0.51292 0.06819 0.75697 0.0
C435 C 0.54836 0.09466 0.78782 0.0
C436 C 0.47564 0.0974 0.72515 0.0
C437 C 0.48022 0.04155 0.69495 0.0
N438 N 0.53088 0.09519 0.76561 0.0
N439 N 0.49646 0.04231 0.71749 0.0
H440 H 0.48395 0.56388 0.17218 0.0
H441 H 0.51835 0.5632 0.31715 0.0
H442 H 0.58609 0.58773 0.20295 0.0
H443 H 0.41602 0.58683 0.2866 0.0
H444 H 0.54384 0.56792 0.27544 0.0
H445 H 0.45834 0.5682 0.21389 0.0
C446 C 0.50096 0.57018 0.18771 0.0
C447 C 0.53722 0.57529 0.1842 0.0
C448 C 0.51587 0.57233 0.27791 0.0
C449 C 0.50817 0.57981 0.2319 0.0
C450 C 0.50125 0.56947 0.30167 0.0
C451 C 0.46499 0.57448 0.30527 0.0
C452 C 0.49392 0.57954 0.25755 0.0
C453 C 0.4441 0.58273 0.28457 0.0
C454 C 0.48629 0.57278 0.21147 0.0
C455 C 0.55801 0.58358 0.20492 0.0
N456 N 0.45881 0.58461 0.26148 0.0
N457 N 0.54326 0.58515 0.22802 0.0
H458 H 0.09314 0.415 0.28438 0.0
H459 H 0.91407 0.41414 0.20576 0.0
H460 H 0.99221 0.4403 0.31646 0.0
H461 H 0.01496 0.43879 0.17336 0.0
H462 H 0.94264 0.40987 0.24681 0.0
H463 H 0.06464 0.41003 0.24337 0.0
C464 C 0.065 0.41926 0.28282 0.0
C465 C 0.04503 0.42837 0.30374 0.0
C466 C 0.95843 0.41598 0.2306 0.0
C467 C 0.01241 0.4222 0.25729 0.0
C468 C 0.94222 0.41833 0.20725 0.0
C469 C 0.96216 0.42715 0.18625 0.0
C470 C 0.99484 0.42186 0.23273 0.0
C471 C 0.99856 0.43226 0.18912 0.0
C472 C 0.04883 0.41647 0.25949 0.0
C473 C 0.00864 0.43351 0.30077 0.0
N474 N 0.01377 0.42951 0.21195 0.0
N475 N 0.99346 0.4303 0.27797 0.0
H476 H 0.56805 0.3905 0.69819 0.0
H477 H 0.46681 0.48947 0.80245 0.0
H478 H 0.51569 0.48316 0.68175 0.0
H479 H 0.4529 0.38338 0.79722 0.0
H480 H 0.49579 0.48916 0.76153 0.0
H481 H 0.53694 0.38859 0.73861 0.0
C482 C 0.55028 0.4105 0.70321 0.0
C483 C 0.5444 0.4371 0.68682 0.0
C484 C 0.48623 0.466 0.76932 0.0
C485 C 0.50946 0.4352 0.73255 0.0
C486 C 0.46977 0.46617 0.79252 0.0
C487 C 0.45722 0.43648 0.8028 0.0
C488 C 0.49122 0.43576 0.7568 0.0
C489 C 0.46183 0.40679 0.78951 0.0
C490 C 0.53241 0.40924 0.72603 0.0
C491 C 0.52088 0.46224 0.69393 0.0
N492 N 0.47896 0.40706 0.76718 0.0
N493 N 0.50453 0.46088 0.71641 0.0
H494 H 0.98777 0.55713 0.81746 0.0
H495 H 0.01986 0.55983 0.67205 0.0
H496 H 0.08921 0.58239 0.78617 0.0
H497 H 0.91793 0.58198 0.70385 0.0
H498 H 0.04598 0.563 0.71364 0.0
H499 H 0.96165 0.56102 0.77591 0.0
C500 C 0.00456 0.56356 0.80185 0.0
C501 C 0.04074 0.56936 0.80521 0.0
C502 C 0.01796 0.5674 0.71148 0.0
C503 C 0.01106 0.57345 0.75766 0.0
C504 C 1.00297 0.56545 0.68778 0.0
C505 C 0.96664 0.57054 0.68456 0.0
C506 C 0.99633 0.57377 0.73214 0.0
C507 C 0.94606 0.57787 0.70558 0.0
C508 C 0.98957 0.56593 0.77818 0.0
C509 C 0.0612 0.57771 0.78434 0.0
N510 N 0.96114 0.57889 0.72859 0.0
N511 N 0.04612 0.57916 0.76134 0.0
H512 H 0.07326 0.17829 0.11304 0.0
H513 H 0.93028 0.32567 0.11621 0.0
H514 H 0.9619 0.16264 0.12546 0.0
H515 H 0.04294 0.34149 0.11767 0.0
H516 H 0.94081 0.26554 0.11419 0.0
H517 H 0.06206 0.23809 0.10956 0.0
C518 C 0.04648 0.18733 0.11493 0.0
C519 C 0.01858 0.1653 0.11974 0.0
C520 C 0.96318 0.28226 0.11483 0.0
C521 C 0.00553 0.23375 0.11567 0.0
C522 C 0.95717 0.31658 0.11586 0.0
C523 C 0.98571 0.33873 0.11734 0.0
C524 C 0.99798 0.27002 0.11506 0.0
C525 C 0.02004 0.32543 0.11686 0.0
C526 C 0.04009 0.2215 0.11297 0.0
C527 C 0.98436 0.17859 0.12196 0.0
N528 N 0.02518 0.29205 0.11584 0.0
N529 N 0.97884 0.21186 0.11995 0.0
H530 H 0.54723 0.84017 0.11984 0.0
H531 H 0.45639 0.66156 0.11507 0.0
H532 H 0.43477 0.82614 0.11228 0.0
H533 H 0.56919 0.67603 0.11238 0.0
H534 H 0.44807 0.72149 0.11285 0.0
H535 H 0.55566 0.78042 0.11617 0.0
C536 C 0.52421 0.82457 0.11738 0.0
C537 C 0.49012 0.83837 0.11658 0.0
C538 C 0.47465 0.71163 0.11257 0.0
C539 C 0.49981 0.76945 0.11236 0.0
C540 C 0.4795 0.67732 0.11389 0.0
C541 C 0.51364 0.6636 0.11414 0.0
C542 C 0.50411 0.73268 0.1117 0.0
C543 C 0.54243 0.68541 0.11228 0.0
C544 C 0.52914 0.79035 0.11518 0.0
C545 C 0.4615 0.81671 0.11307 0.0
N546 N 0.53701 0.71887 0.11138 0.0
N547 N 0.46698 0.78332 0.11128 0.0
H548 H 0.54649 0.66524 0.37005 0.0
H549 H 0.45632 0.84425 0.3683 0.0
H550 H 0.43379 0.67966 0.37467 0.0
H551 H 0.56867 0.8294 0.37573 0.0
H552 H 0.44754 0.78438 0.37092 0.0
H553 H 0.55489 0.7251 0.37243 0.0
C554 C 0.5234 0.68096 0.37162 0.0
C555 C 0.48927 0.66723 0.37197 0.0
C556 C 0.4741 0.79417 0.37211 0.0
C557 C 0.49892 0.73629 0.37466 0.0
C558 C 0.47923 0.82844 0.37054 0.0
C559 C 0.5134 0.84204 0.37161 0.0
C560 C 0.50332 0.77305 0.37457 0.0
C561 C 0.54189 0.82014 0.37477 0.0
C562 C 0.52831 0.71525 0.37307 0.0
C563 C 0.46055 0.68904 0.3743 0.0
N564 N 0.53622 0.78674 0.37594 0.0
N565 N 0.46601 0.7225 0.37535 0.0
H566 H 0.07667 0.32353 0.37171 0.0
H567 H 0.93364 0.17608 0.37421 0.0
H568 H 0.96403 0.33921 0.36907 0.0
H569 H 0.04523 0.16029 0.363 0.0
H570 H 0.94478 0.23594 0.37727 0.0
H571 H 0.06614 0.26337 0.37355 0.0
C572 C 0.04979 0.3144 0.3717 0.0
C573 C 0.02126 0.33653 0.37 0.0
C574 C 0.96681 0.2193 0.3742 0.0
C575 C 0.00899 0.2678 0.37214 0.0
C576 C 0.96046 0.1851 0.3725 0.0
C577 C 0.98844 0.16301 0.36815 0.0
C578 C 1.00143 0.23153 0.37171 0.0
C579 C 0.0227 0.17628 0.36613 0.0
C580 C 0.04377 0.28007 0.37266 0.0
C581 C 0.98693 0.32319 0.37006 0.0
N582 N 0.02819 0.20957 0.3679 0.0
N583 N 0.9818 0.28981 0.37105 0.0
H584 H 0.95888 0.66254 0.8664 0.0
H585 H 0.04844 0.84181 0.86797 0.0
H586 H 0.0712 0.67744 0.87402 0.0
H587 H 0.93587 0.82685 0.87319 0.0
H588 H 0.05716 0.78195 0.87009 0.0
H589 H 0.95008 0.72237 0.8687 0.0
C590 C 0.9818 0.67836 0.86859 0.0
C591 C 0.01596 0.66476 0.86985 0.0
C592 C 0.03055 0.79169 0.8709 0.0
C593 C 0.00583 0.73377 0.87248 0.0
C594 C 0.02545 0.82597 0.8696 0.0
C595 C 0.99125 0.83955 0.87021 0.0
C596 C 1.00128 0.77052 0.8726 0.0
C597 C 0.96267 0.81759 0.87262 0.0
C598 C 0.97665 0.71262 0.86999 0.0
C599 C 0.04443 0.6867 0.87292 0.0
N600 N 0.96832 0.78416 0.87353 0.0
N601 N 0.03874 0.72012 0.87395 0.0
H602 H 0.43156 0.32446 0.87103 0.0
H603 H 0.57517 0.17766 0.87017 0.0
H604 H 0.54333 0.3408 0.86136 0.0
H605 H 0.46308 0.16127 0.86261 0.0
H606 H 0.56409 0.23768 0.87188 0.0
H607 H 0.44273 0.26447 0.87287 0.0
C608 C 0.45841 0.31552 0.8694 0.0
C609 C 0.48647 0.33782 0.86588 0.0
C610 C 0.54195 0.22087 0.86989 0.0
C611 C 0.49947 0.26919 0.86807 0.0
C612 C 0.54827 0.1866 0.86899 0.0
C613 C 0.52009 0.16428 0.86608 0.0
C614 C 0.50719 0.23293 0.86812 0.0
C615 C 0.48573 0.17743 0.86464 0.0
C616 C 0.46478 0.28126 0.87038 0.0
C617 C 0.52077 0.32466 0.86388 0.0
N618 N 0.48028 0.21078 0.86568 0.0
N619 N 0.52627 0.29132 0.86502 0.0
H620 H 0.54511 0.16263 0.62765 0.0
H621 H 0.46073 0.34418 0.62559 0.0
H622 H 0.43345 0.18038 0.61871 0.0
H623 H 0.57279 0.32641 0.61985 0.0
H624 H 0.45036 0.2845 0.62394 0.0
H625 H 0.55562 0.22229 0.62573 0.0
C626 C 0.5227 0.17903 0.62526 0.0
C627 C 0.48822 0.16629 0.62346 0.0
C628 C 0.47721 0.29359 0.62292 0.0
C629 C 0.50031 0.23506 0.62129 0.0
C630 C 0.48326 0.32776 0.62395 0.0
C631 C 0.5178 0.3405 0.62299 0.0
C632 C 0.50588 0.27169 0.62116 0.0
C633 C 0.54575 0.31781 0.62065 0.0
C634 C 0.52883 0.21319 0.62407 0.0
C635 C 0.46044 0.18896 0.62019 0.0
N636 N 0.53918 0.28452 0.61999 0.0
N637 N 0.46707 0.22223 0.61937 0.0
H638 H 0.0728 0.82868 0.61481 0.0
H639 H 0.93374 0.67779 0.61533 0.0
H640 H 0.96021 0.84175 0.62236 0.0
H641 H 0.04646 0.66474 0.62188 0.0
H642 H 0.94288 0.73809 0.61302 0.0
H643 H 0.06359 0.7684 0.61249 0.0
C644 C 0.04619 0.81897 0.61584 0.0
C645 C 0.01733 0.84042 0.61899 0.0
C646 C 0.96558 0.72194 0.61489 0.0
C647 C 0.00655 0.77147 0.61628 0.0
C648 C 0.96036 0.68751 0.61615 0.0
C649 C 0.98928 0.66606 0.61901 0.0
C650 C 0.99999 0.73502 0.6163 0.0
C651 C 0.02325 0.6802 0.61994 0.0
C652 C 0.04093 0.78454 0.61458 0.0
C653 C 0.98338 0.82629 0.62019 0.0
N654 N 0.02762 0.71366 0.61862 0.0
N655 N 0.97897 0.79283 0.61887 0.0
H656 H 0.04339 0.99633 0.92529 0.0
H657 H 0.97216 0.00759 0.06523 0.0
H658 H 0.94111 0.9603 0.94847 0.0
H659 H 0.07374 0.04533 0.04202 0.0
H660 H 0.96092 0.98939 0.02272 0.0
H661 H 0.05492 0.01437 0.96784 0.0
C662 C 0.02324 0.99226 0.93929 0.0
C663 C 0.99119 0.97662 0.93322 0.0
C664 C 0.9857 1.0016 0.0269 0.0
C665 C 0.00447 0.99722 0.98218 0.0
C666 C 0.99224 0.01199 0.05123 0.0
C667 C 0.02397 0.02819 0.05728 0.0
C668 C 0.01101 0.00738 0.00834 0.0
C669 C 0.04892 0.03299 0.03827 0.0
C670 C 0.02993 0.00257 0.96363 0.0
C671 C 0.96616 0.97221 0.95223 0.0
N672 N 0.04184 0.02271 0.01462 0.0
N673 N 0.97339 0.98238 0.97587 0.0
H674 H 0.57503 0.04544 0.9467 0.0
H675 H 0.43706 0.96142 0.04089 0.0
H676 H 0.47143 0.01097 0.92509 0.0
H677 H 0.54087 0.9952 0.06263 0.0
H678 H 0.4488 0.98051 -0.00159 0.0
H679 H 0.56296 0.02743 0.98944 0.0
C680 C 0.54984 0.03401 0.95087 0.0
C681 C 0.52423 0.0298 0.93221 0.0
C682 C 0.46896 0.98379 0.01252 0.0
C683 C 0.51018 0.00928 0.98109 0.0
C684 C 0.46222 0.97297 0.03681 0.0
C685 C 0.48803 0.97654 0.0554 0.0
C686 C 0.50172 0.99829 0.00678 0.0
C687 C 0.52018 0.99174 0.04895 0.0
C688 C 0.54292 0.0238 0.9753 0.0
C689 C 0.49201 0.01484 0.93879 0.0
N690 N 0.52612 0.00195 0.02519 0.0
N691 N 0.48593 0.00518 0.96265 0.0
H692 H 0.43147 0.04855 0.5429 0.0
H693 H 0.56826 0.9643 0.44797 0.0
H694 H 0.53465 0.01257 0.56413 0.0
H695 H 0.46473 0.99913 0.42655 0.0
H696 H 0.55679 0.98302 0.49057 0.0
H697 H 0.44318 0.0309 0.50002 0.0
C698 C 0.45649 0.03685 0.53862 0.0
C699 C 0.48209 0.03213 0.55721 0.0
C700 C 0.53663 0.98662 0.47651 0.0
C701 C 0.49573 0.01204 0.50816 0.0
C702 C 0.54322 0.97602 0.45215 0.0
C703 C 0.5174 0.97998 0.43361 0.0
C704 C 0.50402 1.0013 0.48239 0.0
C705 C 0.48541 0.99537 0.44019 0.0
C706 C 0.4632 0.02686 0.51411 0.0
C707 C 0.51408 0.01685 0.55049 0.0
N708 N 0.47962 0.00536 0.46402 0.0
N709 N 0.51997 0.00742 0.52655 0.0
H710 H 0.9636 0.99675 0.56355 0.0
H711 H 0.03454 0.00497 0.42341 0.0
H712 H 0.06599 0.96066 0.54067 0.0
H713 H 0.93348 0.04423 0.44632 0.0
H714 H 0.04568 0.9875 0.46609 0.0
H715 H 0.95196 0.01397 0.5208 0.0
C716 C 0.98375 0.9925 0.54958 0.0
C717 C 0.01586 0.97708 0.55579 0.0
C718 C 0.02104 0.99988 0.46181 0.0
C719 C 1.00244 0.99671 0.50663 0.0
C720 C 0.01455 0.00986 0.43738 0.0
C721 C 0.98301 0.02629 0.4312 0.0
C722 C 0.99587 0.00633 0.48035 0.0
C723 C 0.95816 0.03169 0.45018 0.0
C724 C 0.97699 0.00235 0.52513 0.0
C725 C 0.04089 0.97243 0.53682 0.0
N726 N 0.96518 0.02182 0.47394 0.0
N727 N 0.03359 0.98212 0.51308 0.0
H728 H 0.46519 0.50064 0.06483 0.0
H729 H 0.53613 0.49101 0.9247 0.0
H730 H 0.56662 0.53861 0.04156 0.0
H731 H 0.43383 0.45463 0.94754 0.0
H732 H 0.5481 0.50745 0.96752 0.0
H733 H 0.45431 0.4817 0.0224 0.0
C734 C 0.48533 0.50488 0.05085 0.0
C735 C 0.51685 0.52151 0.05682 0.0
C736 C 0.52302 0.4959 0.9632 0.0
C737 C 0.50429 0.49991 0.00799 0.0
C738 C 0.51606 0.48651 0.93868 0.0
C739 C 0.48384 0.47132 0.9324 0.0
C740 C 0.49766 0.49011 0.98173 0.0
C741 C 0.45898 0.46628 0.95144 0.0
C742 C 0.479 0.49406 0.02656 0.0
C743 C 0.54194 0.52599 0.03787 0.0
N744 N 0.46645 0.47562 0.97526 0.0
N745 N 0.53502 0.51541 0.01427 0.0
H746 H 0.93024 0.46307 0.0441 0.0
H747 H 0.06776 0.54681 0.94948 0.0
H748 H 0.03295 0.49955 0.06596 0.0
H749 H 0.96464 0.51106 0.92788 0.0
H750 H 0.05536 0.52998 0.99243 0.0
H751 H 0.94177 0.48193 0.00153 0.0
C752 C 0.95507 0.47524 0.04004 0.0
C753 C 0.98071 0.4795 0.05866 0.0
C754 C 0.03549 0.52582 0.97825 0.0
C755 C 0.99419 0.50092 0.00993 0.0
C756 C 0.04261 0.53531 0.9537 0.0
C757 C 0.01723 0.53043 0.93498 0.0
C758 C 1.00279 0.51129 0.98412 0.0
C759 C 0.98505 0.51545 0.94163 0.0
C760 C 0.96171 0.4859 0.01569 0.0
C761 C 0.01243 0.49548 0.05224 0.0
N762 N 0.97877 0.50647 0.96561 0.0
N763 N 0.01831 0.50546 0.02842 0.0
H764 H 0.93797 0.54457 0.5408 0.0
H765 H 0.07521 0.45929 0.4467 0.0
H766 H 0.04194 0.51099 0.56228 0.0
H767 H 0.97168 0.49387 0.42503 0.0
H768 H 0.06374 0.47863 0.48918 0.0
H769 H 0.94973 0.52584 0.4982 0.0
C770 C 0.96318 0.53317 0.53663 0.0
C771 C 0.98899 0.52946 0.5552 0.0
C772 C 0.04358 0.48202 0.47508 0.0
C773 C 1.00269 0.50811 0.50647 0.0
C774 C 0.05017 0.47106 0.45079 0.0
C775 C 0.02436 0.47479 0.43222 0.0
C776 C 0.01098 0.49683 0.48082 0.0
C777 C 0.99237 0.49027 0.43869 0.0
C778 C 0.96992 0.52256 0.51228 0.0
C779 C 0.02122 0.51451 0.54864 0.0
N780 N 0.98658 0.50061 0.46243 0.0
N781 N 0.02713 0.50445 0.52484 0.0
H782 H 0.57469 0.45968 0.543 0.0
H783 H 0.43705 0.54366 0.44842 0.0
H784 H 0.47108 0.49449 0.56423 0.0
H785 H 0.54142 0.5112 0.42698 0.0
H786 H 0.44875 0.52454 0.49088 0.0
H787 H 0.56303 0.47798 0.50022 0.0
C788 C 0.5496 0.47125 0.53874 0.0
C789 C 0.52386 0.47546 0.5573 0.0
C790 C 0.46906 0.52156 0.47685 0.0
C791 C 0.51027 0.49628 0.50839 0.0
C792 C 0.46234 0.53241 0.45256 0.0
C793 C 0.48829 0.52919 0.43405 0.0
C794 C 0.50195 0.50737 0.48269 0.0
C795 C 0.5206 0.51436 0.4406 0.0
C796 C 0.54291 0.48162 0.5143 0.0
C797 C 0.49177 0.4906 0.55062 0.0
N798 N 0.52652 0.50409 0.46436 0.0
N799 N 0.48591 0.50038 0.52676 0.0
loop_
_geom_bond_atom_site_label_1
_geom_bond_atom_site_label_2
_geom_bond_distance
_geom_bond_site_symmetry_2
_ccdc_geom_bond_type
Co0 O1 2.216 . S
Co0 O2 2.091 . S
Co0 O4 2.004 . S
Co0 O10 2.021 . S
Co0 O12 2.137 . S
Co0 O13 2.244 . S
O1 Co0 2.216 . S
O1 C8 1.247 . S
O2 Co0 2.091 . S
O2 C8 1.261 . S
C3 O12 1.247 . S
C3 O13 1.272 . S
O4 Co0 2.004 . S
O4 C9 1.259 . S
Co5 O6 2.061 1_655 S
Co5 O11 2.052 1_655 S
Co5 O13 2.135 1_655 S
O6 Co5 2.061 1_455 S
O6 C9 1.235 . S
C7 O10 1.238 . S
C7 O11 1.241 . S
C8 O1 1.247 . S
C8 O2 1.261 . S
C9 O4 1.259 . S
C9 O6 1.235 . S
O10 Co0 2.021 . S
O10 C7 1.238 . S
O11 Co5 2.052 1_455 S
O11 C7 1.241 . S
O12 Co0 2.137 . S
O12 C3 1.247 . S
O13 Co0 2.244 . S
O13 C3 1.272 . S
O13 Co5 2.135 1_455 S
Co14 O15 2.216 . S
Co14 O16 2.091 . S
Co14 O18 2.004 . S
Co14 O24 2.021 . S
Co14 O26 2.137 . S
Co14 O27 2.244 . S
O15 Co14 2.216 . S
O15 C22 1.247 . S
O16 Co14 2.091 . S
O16 C22 1.261 . S
C17 O26 1.247 . S
C17 O27 1.272 . S
O18 Co14 2.004 . S
O18 C23 1.259 . S
Co19 O20 2.061 . S
Co19 O25 2.052 . S
Co19 O27 2.135 . S
O20 Co19 2.061 . S
O20 C23 1.235 . S
C21 O24 1.238 . S
C21 O25 1.241 . S
C22 O15 1.247 . S
C22 O16 1.261 . S
C23 O18 1.259 . S
C23 O20 1.235 . S
O24 Co14 2.021 . S
O24 C21 1.238 . S
O25 Co19 2.052 . S
O25 C21 1.241 . S
O26 Co14 2.137 . S
O26 C17 1.247 . S
O27 Co14 2.244 . S
O27 C17 1.272 . S
O27 Co19 2.135 . S
Co28 O29 2.216 . S
Co28 O30 2.091 . S
Co28 O32 2.004 . S
Co28 O38 2.021 . S
Co28 O40 2.137 . S
Co28 O41 2.244 . S
O29 Co28 2.216 . S
O29 C36 1.247 . S
O30 Co28 2.091 . S
O30 C36 1.261 . S
C31 O40 1.247 . S
C31 O41 1.272 . S
O32 Co28 2.004 . S
O32 C37 1.259 . S
Co33 O34 2.061 . S
Co33 O39 2.052 . S
Co33 O41 2.135 . S
O34 Co33 2.061 . S
O34 C37 1.235 . S
C35 O38 1.238 . S
C35 O39 1.241 . S
C36 O29 1.247 . S
C36 O30 1.261 . S
C37 O32 1.259 . S
C37 O34 1.235 . S
O38 Co28 2.021 . S
O38 C35 1.238 . S
O39 Co33 2.052 . S
O39 C35 1.241 . S
O40 Co28 2.137 . S
O40 C31 1.247 . S
O41 Co28 2.244 . S
O41 C31 1.272 . S
O41 Co33 2.135 . S
Co42 O43 2.216 . S
Co42 O44 2.091 . S
Co42 O46 2.004 . S
Co42 O52 2.021 . S
Co42 O54 2.137 . S
Co42 O55 2.244 . S
O43 Co42 2.216 . S
O43 C50 1.247 . S
O44 Co42 2.091 . S
O44 C50 1.261 . S
C45 O54 1.247 . S
C45 O55 1.272 . S
O46 Co42 2.004 . S
O46 C51 1.259 . S
Co47 O48 2.061 1_455 S
Co47 O53 2.052 1_455 S
Co47 O55 2.135 1_455 S
O48 Co47 2.061 1_655 S
O48 C51 1.235 . S
C49 O52 1.238 . S
C49 O53 1.241 . S
C50 O43 1.247 . S
C50 O44 1.261 . S
C51 O46 1.259 . S
C51 O48 1.235 . S
O52 Co42 2.021 . S
O52 C49 1.238 . S
O53 Co47 2.052 1_655 S
O53 C49 1.241 . S
O54 Co42 2.137 . S
O54 C45 1.247 . S
O55 Co42 2.244 . S
O55 C45 1.272 . S
O55 Co47 2.135 1_655 S
Co56 O57 2.216 . S
Co56 O58 2.091 . S
Co56 O60 2.004 . S
Co56 O66 2.021 . S
Co56 O68 2.137 . S
Co56 O69 2.244 . S
O57 Co56 2.216 . S
O57 C64 1.247 . S
O58 Co56 2.091 . S
O58 C64 1.261 . S
C59 O68 1.247 . S
C59 O69 1.272 . S
O60 Co56 2.004 . S
O60 C65 1.259 . S
Co61 O62 2.061 1_455 S
Co61 O67 2.052 1_455 S
Co61 O69 2.135 1_455 S
O62 Co61 2.061 1_655 S
O62 C65 1.235 . S
C63 O66 1.238 . S
C63 O67 1.241 . S
C64 O57 1.247 . S
C64 O58 1.261 . S
C65 O60 1.259 . S
C65 O62 1.235 . S
O66 Co56 2.021 . S
O66 C63 1.238 . S
O67 Co61 2.052 1_655 S
O67 C63 1.241 . S
O68 Co56 2.137 . S
O68 C59 1.247 . S
O69 Co56 2.244 . S
O69 C59 1.272 . S
O69 Co61 2.135 1_655 S
Co70 O71 2.216 . S
Co70 O72 2.091 . S
Co70 O74 2.004 . S
Co70 O80 2.021 . S
Co70 O82 2.137 . S
Co70 O83 2.244 . S
O71 Co70 2.216 . S
O71 C78 1.247 . S
O72 Co70 2.091 . S
O72 C78 1.261 . S
C73 O82 1.247 . S
C73 O83 1.272 . S
O74 Co70 2.004 . S
O74 C79 1.259 . S
Co75 O76 2.061 . S
Co75 O81 2.052 . S
Co75 O83 2.135 . S
O76 Co75 2.061 . S
O76 C79 1.235 . S
C77 O80 1.238 . S
C77 O81 1.241 . S
C78 O71 1.247 . S
C78 O72 1.261 . S
C79 O74 1.259 . S
C79 O76 1.235 . S
O80 Co70 2.021 . S
O80 C77 1.238 . S
O81 Co75 2.052 . S
O81 C77 1.241 . S
O82 Co70 2.137 . S
O82 C73 1.247 . S
O83 Co70 2.244 . S
O83 C73 1.272 . S
O83 Co75 2.135 . S
Co84 O85 2.216 . S
Co84 O86 2.091 . S
Co84 O88 2.004 . S
Co84 O94 2.021 . S
Co84 O96 2.137 . S
Co84 O97 2.244 . S
O85 Co84 2.216 . S
O85 C92 1.247 . S
O86 Co84 2.091 . S
O86 C92 1.261 . S
C87 O96 1.247 . S
C87 O97 1.272 . S
O88 Co84 2.004 . S
O88 C93 1.259 . S
Co89 O90 2.061 . S
Co89 O95 2.052 . S
Co89 O97 2.135 . S
O90 Co89 2.061 . S
O90 C93 1.235 . S
C91 O94 1.238 . S
C91 O95 1.241 . S
C92 O85 1.247 . S
C92 O86 1.261 . S
C93 O88 1.259 . S
C93 O90 1.235 . S
O94 Co84 2.021 . S
O94 C91 1.238 . S
O95 Co89 2.052 . S
O95 C91 1.241 . S
O96 Co84 2.137 . S
O96 C87 1.247 . S
O97 Co84 2.244 . S
O97 C87 1.272 . S
O97 Co89 2.135 . S
Co98 O99 2.216 . S
Co98 O100 2.091 . S
Co98 O102 2.004 . S
Co98 O108 2.021 . S
Co98 O110 2.137 . S
Co98 O111 2.244 . S
O99 Co98 2.216 . S
O99 C106 1.247 . S
O100 Co98 2.091 . S
O100 C106 1.261 . S
C101 O110 1.247 . S
C101 O111 1.272 . S
O102 Co98 2.004 . S
O102 C107 1.259 . S
Co103 O104 2.061 1_655 S
Co103 O109 2.052 1_655 S
Co103 O111 2.135 1_655 S
O104 Co103 2.061 1_455 S
O104 C107 1.235 . S
C105 O108 1.238 . S
C105 O109 1.241 . S
C106 O99 1.247 . S
C106 O100 1.261 . S
C107 O102 1.259 . S
C107 O104 1.235 . S
O108 Co98 2.021 . S
O108 C105 1.238 . S
O109 Co103 2.052 1_455 S
O109 C105 1.241 . S
O110 Co98 2.137 . S
O110 C101 1.247 . S
O111 Co98 2.244 . S
O111 C101 1.272 . S
O111 Co103 2.135 1_455 S
Co112 O113 2.216 . S
Co112 O114 2.091 . S
Co112 O116 2.004 . S
Co112 O122 2.021 . S
Co112 O124 2.137 . S
Co112 O125 2.244 . S
O113 Co112 2.216 . S
O113 C120 1.247 . S
O114 Co112 2.091 . S
O114 C120 1.261 . S
C115 O124 1.247 . S
C115 O125 1.272 . S
O116 Co112 2.004 . S
O116 C121 1.259 . S
Co117 O118 2.061 . S
Co117 O123 2.052 . S
Co117 O125 2.135 . S
O118 Co117 2.061 . S
O118 C121 1.235 . S
C119 O122 1.238 . S
C119 O123 1.241 . S
C120 O113 1.247 . S
C120 O114 1.261 . S
C121 O116 1.259 . S
C121 O118 1.235 . S
O122 Co112 2.021 . S
O122 C119 1.238 . S
O123 Co117 2.052 . S
O123 C119 1.241 . S
O124 Co112 2.137 . S
O124 C115 1.247 . S
O125 Co112 2.244 . S
O125 C115 1.272 . S
O125 Co117 2.135 . S
Co126 O127 2.216 . S
Co126 O128 2.091 . S
Co126 O130 2.004 . S
Co126 O136 2.021 . S
Co126 O138 2.137 . S
Co126 O139 2.244 . S
O127 Co126 2.216 . S
O127 C134 1.247 . S
O128 Co126 2.091 . S
O128 C134 1.261 . S
C129 O138 1.247 . S
C129 O139 1.272 . S
O130 Co126 2.004 . S
O130 C135 1.259 . S
Co131 O132 2.061 1_455 S
Co131 O137 2.052 1_455 S
Co131 O139 2.135 1_455 S
O132 Co131 2.061 1_655 S
O132 C135 1.235 . S
C133 O136 1.238 . S
C133 O137 1.241 . S
C134 O127 1.247 . S
C134 O128 1.261 . S
C135 O130 1.259 . S
C135 O132 1.235 . S
O136 Co126 2.021 . S
O136 C133 1.238 . S
O137 Co131 2.052 1_655 S
O137 C133 1.241 . S
O138 Co126 2.137 . S
O138 C129 1.247 . S
O139 Co126 2.244 . S
O139 C129 1.272 . S
O139 Co131 2.135 1_655 S
Co140 O141 2.216 . S
Co140 O142 2.091 . S
Co140 O144 2.004 . S
Co140 O150 2.021 . S
Co140 O152 2.137 . S
Co140 O153 2.244 . S
O141 Co140 2.216 . S
O141 C148 1.247 . S
O142 Co140 2.091 . S
O142 C148 1.261 . S
C143 O152 1.247 . S
C143 O153 1.272 . S
O144 Co140 2.004 . S
O144 C149 1.259 . S
Co145 O146 2.061 1_655 S
Co145 O151 2.052 1_655 S
Co145 O153 2.135 1_655 S
O146 Co145 2.061 1_455 S
O146 C149 1.235 . S
C147 O150 1.238 . S
C147 O151 1.241 . S
C148 O141 1.247 . S
C148 O142 1.261 . S
C149 O144 1.259 . S
C149 O146 1.235 . S
O150 Co140 2.021 . S
O150 C147 1.238 . S
O151 Co145 2.052 1_455 S
O151 C147 1.241 . S
O152 Co140 2.137 . S
O152 C143 1.247 . S
O153 Co140 2.244 . S
O153 C143 1.272 . S
O153 Co145 2.135 1_455 S
Co154 O155 2.216 . S
Co154 O156 2.091 . S
Co154 O158 2.004 . S
Co154 O164 2.021 . S
Co154 O166 2.137 . S
Co154 O167 2.244 . S
O155 Co154 2.216 . S
O155 C162 1.247 . S
O156 Co154 2.091 . S
O156 C162 1.261 . S
C157 O166 1.247 . S
C157 O167 1.272 . S
O158 Co154 2.004 . S
O158 C163 1.259 . S
Co159 O160 2.061 . S
Co159 O165 2.052 . S
Co159 O167 2.135 . S
O160 Co159 2.061 . S
O160 C163 1.235 . S
C161 O164 1.238 . S
C161 O165 1.241 . S
C162 O155 1.247 . S
C162 O156 1.261 . S
C163 O158 1.259 . S
C163 O160 1.235 . S
O164 Co154 2.021 . S
O164 C161 1.238 . S
O165 Co159 2.052 . S
O165 C161 1.241 . S
O166 Co154 2.137 . S
O166 C157 1.247 . S
O167 Co154 2.244 . S
O167 C157 1.272 . S
O167 Co159 2.135 . S
Co168 O169 2.216 . S
Co168 O170 2.091 . S
Co168 O172 2.004 . S
Co168 O178 2.021 . S
Co168 O180 2.137 . S
Co168 O181 2.244 . S
O169 Co168 2.216 . S
O169 C176 1.247 . S
O170 Co168 2.091 . S
O170 C176 1.261 . S
C171 O180 1.247 . S
C171 O181 1.272 . S
O172 Co168 2.004 . S
O172 C177 1.259 . S
Co173 O174 2.061 . S
Co173 O179 2.052 . S
Co173 O181 2.135 . S
O174 Co173 2.061 . S
O174 C177 1.235 . S
C175 O178 1.238 . S
C175 O179 1.241 . S
C176 O169 1.247 . S
C176 O170 1.261 . S
C177 O172 1.259 . S
C177 O174 1.235 . S
O178 Co168 2.021 . S
O178 C175 1.238 . S
O179 Co173 2.052 . S
O179 C175 1.241 . S
O180 Co168 2.137 . S
O180 C171 1.247 . S
O181 Co168 2.244 . S
O181 C171 1.272 . S
O181 Co173 2.135 . S
Co182 O183 2.216 . S
Co182 O184 2.091 . S
Co182 O186 2.004 . S
Co182 O192 2.021 . S
Co182 O194 2.137 . S
Co182 O195 2.244 . S
O183 Co182 2.216 . S
O183 C190 1.247 . S
O184 Co182 2.091 . S
O184 C190 1.261 . S
C185 O194 1.247 . S
C185 O195 1.272 . S
O186 Co182 2.004 . S
O186 C191 1.259 . S
Co187 O188 2.061 1_655 S
Co187 O193 2.052 1_655 S
Co187 O195 2.135 1_655 S
O188 Co187 2.061 1_455 S
O188 C191 1.235 . S
C189 O192 1.238 . S
C189 O193 1.241 . S
C190 O183 1.247 . S
C190 O184 1.261 . S
C191 O186 1.259 . S
C191 O188 1.235 . S
O192 Co182 2.021 . S
O192 C189 1.238 . S
O193 Co187 2.052 1_455 S
O193 C189 1.241 . S
O194 Co182 2.137 . S
O194 C185 1.247 . S
O195 Co182 2.244 . S
O195 C185 1.272 . S
O195 Co187 2.135 1_455 S
Co196 O197 2.216 . S
Co196 O198 2.091 . S
Co196 O200 2.004 . S
Co196 O206 2.021 . S
Co196 O208 2.137 . S
Co196 O209 2.244 . S
O197 Co196 2.216 . S
O197 C204 1.247 . S
O198 Co196 2.091 . S
O198 C204 1.261 . S
C199 O208 1.247 . S
C199 O209 1.272 . S
O200 Co196 2.004 . S
O200 C205 1.259 . S
Co201 O202 2.061 1_455 S
Co201 O207 2.052 1_455 S
Co201 O209 2.135 1_455 S
O202 Co201 2.061 1_655 S
O202 C205 1.235 . S
C203 O206 1.238 . S
C203 O207 1.241 . S
C204 O197 1.247 . S
C204 O198 1.261 . S
C205 O200 1.259 . S
C205 O202 1.235 . S
O206 Co196 2.021 . S
O206 C203 1.238 . S
O207 Co201 2.052 1_655 S
O207 C203 1.241 . S
O208 Co196 2.137 . S
O208 C199 1.247 . S
O209 Co196 2.244 . S
O209 C199 1.272 . S
O209 Co201 2.135 1_655 S
Co210 O211 2.216 . S
Co210 O212 2.091 . S
Co210 O214 2.004 . S
Co210 O220 2.021 . S
Co210 O222 2.137 . S
Co210 O223 2.244 . S
O211 Co210 2.216 . S
O211 C218 1.247 . S
O212 Co210 2.091 . S
O212 C218 1.261 . S
C213 O222 1.247 . S
C213 O223 1.272 . S
O214 Co210 2.004 . S
O214 C219 1.259 . S
Co215 O216 2.061 . S
Co215 O221 2.052 . S
Co215 O223 2.135 . S
O216 Co215 2.061 . S
O216 C219 1.235 . S
C217 O220 1.238 . S
C217 O221 1.241 . S
C218 O211 1.247 . S
C218 O212 1.261 . S
C219 O214 1.259 . S
C219 O216 1.235 . S
O220 Co210 2.021 . S
O220 C217 1.238 . S
O221 Co215 2.052 . S
O221 C217 1.241 . S
O222 Co210 2.137 . S
O222 C213 1.247 . S
O223 Co210 2.244 . S
O223 C213 1.272 . S
O223 Co215 2.135 . S
H224 C230 0.930 . S
H225 C234 0.930 . S
H226 C239 0.929 . S
H227 C237 0.929 . S
H228 C232 0.929 . S
H229 C238 0.929 . S
C230 H224 0.930 . S
C230 C231 1.367 . S
C230 C238 1.378 . S
C231 C230 1.367 . S
C231 C239 1.433 . S
C232 H228 0.929 . S
C232 C234 1.378 . S
C232 C236 1.350 . S
C233 C236 1.463 1_565 S
C233 C238 1.350 . S
C233 N241 1.421 1_565 S
C234 H225 0.930 . S
C234 C232 1.378 . S
C234 C235 1.367 . S
C235 C234 1.367 . S
C235 C237 1.433 . S
C236 C232 1.350 . S
C236 C233 1.463 1_545 S
C236 N240 1.421 1_545 S
C237 H227 0.929 . S
C237 C235 1.433 . S
C237 N240 1.374 1_545 S
C238 H229 0.929 . S
C238 C230 1.378 . S
C238 C233 1.350 . S
C239 H226 0.929 . S
C239 C231 1.433 . S
C239 N241 1.374 1_565 S
N240 C236 1.421 1_565 S
N240 C237 1.374 1_565 S
N241 C233 1.421 1_545 S
N241 C239 1.374 1_545 S
H242 C248 0.930 . S
H243 C252 0.930 . S
H244 C257 0.929 . S
H245 C255 0.929 . S
H246 C250 0.929 . S
H247 C256 0.929 . S
C248 H242 0.930 . S
C248 C249 1.367 . S
C248 C256 1.378 . S
C249 C248 1.367 . S
C249 C257 1.433 . S
C250 H246 0.929 . S
C250 C252 1.378 . S
C250 C254 1.350 . S
C251 C254 1.463 1_565 S
C251 C256 1.350 . S
C251 N259 1.427 . S
C252 H243 0.930 . S
C252 C250 1.378 . S
C252 C253 1.367 . S
C253 C252 1.367 . S
C253 C255 1.433 . S
C254 C250 1.350 . S
C254 C251 1.463 1_545 S
C254 N258 1.427 . S
C255 H245 0.929 . S
C255 C253 1.433 . S
C255 N258 1.384 . S
C256 H247 0.929 . S
C256 C248 1.378 . S
C256 C251 1.350 . S
C257 H244 0.929 . S
C257 C249 1.433 . S
C257 N259 1.384 . S
N258 C254 1.427 . S
N258 C255 1.384 . S
N259 C251 1.427 . S
N259 C257 1.384 . S
H260 C266 0.930 1_545 S
H261 C270 0.930 1_565 S
H262 C275 0.929 . S
H263 C273 0.929 . S
H264 C268 0.929 . S
H265 C274 0.929 . S
C266 H260 0.930 1_565 S
C266 C267 1.367 . S
C266 C274 1.378 1_565 S
C267 C266 1.367 . S
C267 C275 1.433 . S
C268 H264 0.929 . S
C268 C270 1.378 1_565 S
C268 C272 1.350 1_565 S
C269 C272 1.463 1_565 S
C269 C274 1.350 1_565 S
C269 N277 1.427 . S
C270 H261 0.930 1_545 S
C270 C268 1.378 1_545 S
C270 C271 1.367 . S
C271 C270 1.367 . S
C271 C273 1.433 . S
C272 C268 1.350 1_545 S
C272 C269 1.463 1_545 S
C272 N276 1.427 . S
C273 H263 0.929 . S
C273 C271 1.433 . S
C273 N276 1.384 . S
C274 H265 0.929 . S
C274 C266 1.378 1_545 S
C274 C269 1.350 1_545 S
C275 H262 0.929 . S
C275 C267 1.433 . S
C275 N277 1.384 . S
N276 C272 1.427 . S
N276 C273 1.384 . S
N277 C269 1.427 . S
N277 C275 1.384 . S
H278 C284 0.930 . S
H279 C288 0.930 . S
H280 C293 0.929 . S
H281 C291 0.929 . S
H282 C286 0.929 1_565 S
H283 C292 0.929 1_545 S
C284 H278 0.930 . S
C284 C285 1.367 . S
C284 C292 1.378 . S
C285 C284 1.367 . S
C285 C293 1.433 . S
C286 H282 0.929 1_545 S
C286 C288 1.378 . S
C286 C290 1.350 . S
C287 C290 1.463 1_565 S
C287 C292 1.350 . S
C287 N295 1.427 . S
C288 H279 0.930 . S
C288 C286 1.378 . S
C288 C289 1.367 . S
C289 C288 1.367 . S
C289 C291 1.433 . S
C290 C286 1.350 . S
C290 C287 1.463 1_545 S
C290 N294 1.427 . S
C291 H281 0.929 . S
C291 C289 1.433 . S
C291 N294 1.384 . S
C292 H283 0.929 1_565 S
C292 C284 1.378 . S
C292 C287 1.350 . S
C293 H280 0.929 . S
C293 C285 1.433 . S
C293 N295 1.384 . S
N294 C290 1.427 . S
N294 C291 1.384 . S
N295 C287 1.427 . S
N295 C293 1.384 . S
H296 C302 0.930 . S
H297 C306 0.930 . S
H298 C311 0.929 . S
H299 C309 0.929 . S
H300 C304 0.929 . S
H301 C310 0.929 . S
C302 H296 0.930 . S
C302 C303 1.367 . S
C302 C310 1.378 . S
C303 C302 1.367 . S
C303 C311 1.433 . S
C304 H300 0.929 . S
C304 C306 1.378 . S
C304 C308 1.350 . S
C305 C308 1.463 . S
C305 C310 1.350 . S
C305 N313 1.427 . S
C306 H297 0.930 . S
C306 C304 1.378 . S
C306 C307 1.367 . S
C307 C306 1.367 . S
C307 C309 1.433 . S
C308 C304 1.350 . S
C308 C305 1.463 . S
C308 N312 1.427 . S
C309 H299 0.929 . S
C309 C307 1.433 . S
C309 N312 1.384 . S
C310 H301 0.929 . S
C310 C302 1.378 . S
C310 C305 1.350 . S
C311 H298 0.929 . S
C311 C303 1.433 . S
C311 N313 1.384 . S
N312 C308 1.427 . S
N312 C309 1.384 . S
N313 C305 1.427 . S
N313 C311 1.384 . S
H314 C320 0.930 . S
H315 C324 0.930 . S
H316 C329 0.929 . S
H317 C327 0.929 . S
H318 C322 0.929 . S
H319 C328 0.929 . S
C320 H314 0.930 . S
C320 C321 1.367 . S
C320 C328 1.378 . S
C321 C320 1.367 . S
C321 C329 1.433 . S
C322 H318 0.929 . S
C322 C324 1.378 . S
C322 C326 1.350 . S
C323 C326 1.463 . S
C323 C328 1.350 . S
C323 N331 1.427 . S
C324 H315 0.930 . S
C324 C322 1.378 . S
C324 C325 1.367 . S
C325 C324 1.367 . S
C325 C327 1.433 . S
C326 C322 1.350 . S
C326 C323 1.463 . S
C326 N330 1.427 . S
C327 H317 0.929 . S
C327 C325 1.433 . S
C327 N330 1.384 . S
C328 H319 0.929 . S
C328 C320 1.378 . S
C328 C323 1.350 . S
C329 H316 0.929 . S
C329 C321 1.433 . S
C329 N331 1.384 . S
N330 C326 1.427 . S
N330 C327 1.384 . S
N331 C323 1.427 . S
N331 C329 1.384 . S
H332 C338 0.930 . S
H333 C342 0.930 . S
H334 C347 0.929 . S
H335 C345 0.929 . S
H336 C340 0.929 . S
H337 C346 0.929 . S
C338 H332 0.930 . S
C338 C339 1.367 . S
C338 C346 1.378 . S
C339 C338 1.367 . S
C339 C347 1.433 . S
C340 H336 0.929 . S
C340 C342 1.378 . S
C340 C344 1.350 . S
C341 C344 1.463 . S
C341 C346 1.350 . S
C341 N349 1.427 . S
C342 H333 0.930 . S
C342 C340 1.378 . S
C342 C343 1.367 . S
C343 C342 1.367 . S
C343 C345 1.433 . S
C344 C340 1.350 . S
C344 C341 1.463 . S
C344 N348 1.427 . S
C345 H335 0.929 . S
C345 C343 1.433 . S
C345 N348 1.384 . S
C346 H337 0.929 . S
C346 C338 1.378 . S
C346 C341 1.350 . S
C347 H334 0.929 . S
C347 C339 1.433 . S
C347 N349 1.384 . S
N348 C344 1.427 . S
N348 C345 1.384 . S
N349 C341 1.427 . S
N349 C347 1.384 . S
H350 C356 0.930 . S
H351 C360 0.930 . S
H352 C365 0.929 . S
H353 C363 0.929 . S
H354 C358 0.929 . S
H355 C364 0.929 . S
C356 H350 0.930 . S
C356 C357 1.367 . S
C356 C364 1.378 . S
C357 C356 1.367 . S
C357 C365 1.433 . S
C358 H354 0.929 . S
C358 C360 1.378 . S
C358 C362 1.350 . S
C359 C362 1.463 . S
C359 C364 1.350 . S
C359 N367 1.427 . S
C360 H351 0.930 . S
C360 C358 1.378 . S
C360 C361 1.367 . S
C361 C360 1.367 . S
C361 C363 1.433 . S
C362 C358 1.350 . S
C362 C359 1.463 . S
C362 N366 1.427 . S
C363 H353 0.929 . S
C363 C361 1.433 . S
C363 N366 1.384 . S
C364 H355 0.929 . S
C364 C356 1.378 . S
C364 C359 1.350 . S
C365 H352 0.929 . S
C365 C357 1.433 . S
C365 N367 1.384 . S
N366 C362 1.427 . S
N366 C363 1.384 . S
N367 C359 1.427 . S
N367 C365 1.384 . S
H368 C374 0.930 . S
H369 C378 0.930 . S
H370 C383 0.929 . S
H371 C381 0.929 . S
H372 C376 0.929 . S
H373 C382 0.929 . S
C374 H368 0.930 . S
C374 C375 1.367 . S
C374 C382 1.378 . S
C375 C374 1.367 . S
C375 C383 1.433 . S
C376 H372 0.929 . S
C376 C378 1.378 . S
C376 C380 1.350 . S
C377 C380 1.463 1_655 S
C377 C382 1.350 . S
C377 N385 1.427 1_655 S
C378 H369 0.930 . S
C378 C376 1.378 . S
C378 C379 1.367 . S
C379 C378 1.367 . S
C379 C381 1.433 . S
C380 C376 1.350 . S
C380 C377 1.463 1_455 S
C380 N384 1.427 1_455 S
C381 H371 0.929 . S
C381 C379 1.433 . S
C381 N384 1.384 1_455 S
C382 H373 0.929 . S
C382 C374 1.378 . S
C382 C377 1.350 . S
C383 H370 0.929 . S
C383 C375 1.433 . S
C383 N385 1.384 1_655 S
N384 C380 1.427 1_655 S
N384 C381 1.384 1_655 S
N385 C377 1.427 1_455 S
N385 C383 1.384 1_455 S
H386 C392 0.930 . S
H387 C396 0.930 . S
H388 C401 0.929 . S
H389 C399 0.929 . S
H390 C394 0.929 . S
H391 C400 0.929 . S
C392 H386 0.930 . S
C392 C393 1.367 . S
C392 C400 1.378 . S
C393 C392 1.367 . S
C393 C401 1.433 . S
C394 H390 0.929 . S
C394 C396 1.378 . S
C394 C398 1.350 . S
C395 C398 1.463 . S
C395 C400 1.350 . S
C395 N403 1.427 . S
C396 H387 0.930 . S
C396 C394 1.378 . S
C396 C397 1.367 . S
C397 C396 1.367 . S
C397 C399 1.433 . S
C398 C394 1.350 . S
C398 C395 1.463 . S
C398 N402 1.427 . S
C399 H389 0.929 . S
C399 C397 1.433 . S
C399 N402 1.384 . S
C400 H391 0.929 . S
C400 C392 1.378 . S
C400 C395 1.350 . S
C401 H388 0.929 . S
C401 C393 1.433 . S
C401 N403 1.384 . S
N402 C398 1.427 . S
N402 C399 1.384 . S
N403 C395 1.427 . S
N403 C401 1.384 . S
H404 C410 0.930 . S
H405 C414 0.930 . S
H406 C419 0.929 . S
H407 C417 0.929 . S
H408 C412 0.929 . S
H409 C418 0.929 . S
C410 H404 0.930 . S
C410 C411 1.367 . S
C410 C418 1.378 . S
C411 C410 1.367 . S
C411 C419 1.433 1_455 S
C412 H408 0.929 . S
C412 C414 1.378 . S
C412 C416 1.350 . S
C413 C416 1.463 1_455 S
C413 C418 1.350 . S
C413 N421 1.427 1_455 S
C414 H405 0.930 . S
C414 C412 1.378 . S
C414 C415 1.367 . S
C415 C414 1.367 . S
C415 C417 1.433 1_655 S
C416 C412 1.350 . S
C416 C413 1.463 1_655 S
C416 N420 1.427 1_655 S
C417 H407 0.929 . S
C417 C415 1.433 1_455 S
C417 N420 1.384 . S
C418 H409 0.929 . S
C418 C410 1.378 . S
C418 C413 1.350 . S
C419 H406 0.929 . S
C419 C411 1.433 1_655 S
C419 N421 1.384 . S
N420 C416 1.427 1_455 S
N420 C417 1.384 . S
N421 C413 1.427 1_655 S
N421 C419 1.384 . S
H422 C428 0.930 . S
H423 C432 0.930 . S
H424 C437 0.929 . S
H425 C435 0.929 . S
H426 C430 0.929 . S
H427 C436 0.929 . S
C428 H422 0.930 . S
C428 C429 1.367 . S
C428 C436 1.378 . S
C429 C428 1.367 . S
C429 C437 1.433 . S
C430 H426 0.929 . S
C430 C432 1.378 . S
C430 C434 1.350 . S
C431 C434 1.463 . S
C431 C436 1.350 . S
C431 N439 1.427 . S
C432 H423 0.930 . S
C432 C430 1.378 . S
C432 C433 1.367 . S
C433 C432 1.367 . S
C433 C435 1.433 . S
C434 C430 1.350 . S
C434 C431 1.463 . S
C434 N438 1.427 . S
C435 H425 0.929 . S
C435 C433 1.433 . S
C435 N438 1.384 . S
C436 H427 0.929 . S
C436 C428 1.378 . S
C436 C431 1.350 . S
C437 H424 0.929 . S
C437 C429 1.433 . S
C437 N439 1.384 . S
N438 C434 1.427 . S
N438 C435 1.384 . S
N439 C431 1.427 . S
N439 C437 1.384 . S
H440 C446 0.930 . S
H441 C450 0.930 . S
H442 C455 0.929 . S
H443 C453 0.929 . S
H444 C448 0.929 . S
H445 C454 0.929 . S
C446 H440 0.930 . S
C446 C447 1.367 . S
C446 C454 1.378 . S
C447 C446 1.367 . S
C447 C455 1.433 . S
C448 H444 0.929 . S
C448 C450 1.378 . S
C448 C452 1.350 . S
C449 C452 1.463 . S
C449 C454 1.350 . S
C449 N457 1.427 . S
C450 H441 0.930 . S
C450 C448 1.378 . S
C450 C451 1.367 . S
C451 C450 1.367 . S
C451 C453 1.433 . S
C452 C448 1.350 . S
C452 C449 1.463 . S
C452 N456 1.427 . S
C453 H443 0.929 . S
C453 C451 1.433 . S
C453 N456 1.384 . S
C454 H445 0.929 . S
C454 C446 1.378 . S
C454 C449 1.350 . S
C455 H442 0.929 . S
C455 C447 1.433 . S
C455 N457 1.384 . S
N456 C452 1.427 . S
N456 C453 1.384 . S
N457 C449 1.427 . S
N457 C455 1.384 . S
H458 C464 0.930 . S
H459 C468 0.930 . S
H460 C473 0.925 1_655 S
H461 C471 0.925 1_455 S
H462 C466 0.929 . S
H463 C472 0.929 . S
C464 H458 0.930 . S
C464 C465 1.367 . S
C464 C472 1.378 . S
C465 C464 1.367 . S
C465 C473 1.433 . S
C466 H462 0.929 . S
C466 C468 1.378 . S
C466 C470 1.350 . S
C467 C470 1.463 1_455 S
C467 C472 1.350 . S
C467 N475 1.427 1_455 S
C468 H459 0.930 . S
C468 C466 1.378 . S
C468 C469 1.367 . S
C469 C468 1.367 . S
C469 C471 1.433 . S
C470 C466 1.350 . S
C470 C467 1.463 1_655 S
C470 N474 1.427 1_655 S
C471 H461 0.925 1_655 S
C471 C469 1.433 . S
C471 N474 1.384 1_655 S
C472 H463 0.929 . S
C472 C464 1.378 . S
C472 C467 1.350 . S
C473 H460 0.925 1_455 S
C473 C465 1.433 . S
C473 N475 1.384 1_455 S
N474 C470 1.427 1_455 S
N474 C471 1.384 1_455 S
N475 C467 1.427 1_655 S
N475 C473 1.384 1_655 S
H476 C482 0.930 . S
H477 C486 0.930 . S
H478 C491 0.929 . S
H479 C489 0.929 . S
H480 C484 0.929 . S
H481 C490 0.929 . S
C482 H476 0.930 . S
C482 C483 1.367 . S
C482 C490 1.378 . S
C483 C482 1.367 . S
C483 C491 1.433 . S
C484 H480 0.929 . S
C484 C486 1.378 . S
C484 C488 1.350 . S
C485 C488 1.463 . S
C485 C490 1.350 . S
C485 N493 1.427 . S
C486 H477 0.930 . S
C486 C484 1.378 . S
C486 C487 1.367 . S
C487 C486 1.367 . S
C487 C489 1.433 . S
C488 C484 1.350 . S
C488 C485 1.463 . S
C488 N492 1.427 . S
C489 H479 0.929 . S
C489 C487 1.433 . S
C489 N492 1.384 . S
C490 H481 0.929 . S
C490 C482 1.378 . S
C490 C485 1.350 . S
C491 H478 0.929 . S
C491 C483 1.433 . S
C491 N493 1.384 . S
N492 C488 1.427 . S
N492 C489 1.384 . S
N493 C485 1.427 . S
N493 C491 1.384 . S
H494 C500 0.930 . S
H495 C504 0.930 . S
H496 C509 0.929 . S
H497 C507 0.929 . S
H498 C502 0.929 . S
H499 C508 0.929 . S
C500 H494 0.930 . S
C500 C501 1.367 1_655 S
C500 C508 1.378 . S
C501 C500 1.367 1_455 S
C501 C509 1.433 . S
C502 H498 0.929 . S
C502 C504 1.378 . S
C502 C506 1.350 1_455 S
C503 C506 1.463 1_455 S
C503 C508 1.350 1_455 S
C503 N511 1.427 . S
C504 H495 0.930 . S
C504 C502 1.378 . S
C504 C505 1.367 1_455 S
C505 C504 1.367 1_655 S
C505 C507 1.433 . S
C506 C502 1.350 1_655 S
C506 C503 1.463 1_655 S
C506 N510 1.427 . S
C507 H497 0.929 . S
C507 C505 1.433 . S
C507 N510 1.384 . S
C508 H499 0.929 . S
C508 C500 1.378 . S
C508 C503 1.350 1_655 S
C509 H496 0.929 . S
C509 C501 1.433 . S
C509 N511 1.384 . S
N510 C506 1.427 . S
N510 C507 1.384 . S
N511 C503 1.427 . S
N511 C509 1.384 . S
H512 C518 0.930 . S
H513 C522 0.930 . S
H514 C527 0.929 1_655 S
H515 C525 0.929 1_455 S
H516 C520 0.929 . S
H517 C526 0.929 . S
C518 H512 0.930 . S
C518 C519 1.367 . S
C518 C526 1.378 . S
C519 C518 1.367 . S
C519 C527 1.433 . S
C520 H516 0.929 . S
C520 C522 1.378 . S
C520 C524 1.350 . S
C521 C524 1.463 1_455 S
C521 C526 1.350 . S
C521 N529 1.427 1_455 S
C522 H513 0.930 . S
C522 C520 1.378 . S
C522 C523 1.367 . S
C523 C522 1.367 . S
C523 C525 1.433 . S
C524 C520 1.350 . S
C524 C521 1.463 1_655 S
C524 N528 1.427 1_655 S
C525 H515 0.929 1_655 S
C525 C523 1.433 . S
C525 N528 1.384 1_655 S
C526 H517 0.929 . S
C526 C518 1.378 . S
C526 C521 1.350 . S
C527 H514 0.929 1_455 S
C527 C519 1.433 . S
C527 N529 1.384 1_455 S
N528 C524 1.427 1_455 S
N528 C525 1.384 1_455 S
N529 C521 1.427 1_655 S
N529 C527 1.384 1_655 S
H530 C536 0.930 . S
H531 C540 0.930 . S
H532 C545 0.929 . S
H533 C543 0.929 . S
H534 C538 0.929 . S
H535 C544 0.929 . S
C536 H530 0.930 . S
C536 C537 1.367 . S
C536 C544 1.378 . S
C537 C536 1.367 . S
C537 C545 1.433 . S
C538 H534 0.929 . S
C538 C540 1.378 . S
C538 C542 1.350 . S
C539 C542 1.463 . S
C539 C544 1.350 . S
C539 N547 1.427 . S
C540 H531 0.930 . S
C540 C538 1.378 . S
C540 C541 1.367 . S
C541 C540 1.367 . S
C541 C543 1.433 . S
C542 C538 1.350 . S
C542 C539 1.463 . S
C542 N546 1.427 . S
C543 H533 0.929 . S
C543 C541 1.433 . S
C543 N546 1.384 . S
C544 H535 0.929 . S
C544 C536 1.378 . S
C544 C539 1.350 . S
C545 H532 0.929 . S
C545 C537 1.433 . S
C545 N547 1.384 . S
N546 C542 1.427 . S
N546 C543 1.384 . S
N547 C539 1.427 . S
N547 C545 1.384 . S
H548 C554 0.930 . S
H549 C558 0.930 . S
H550 C563 0.929 . S
H551 C561 0.929 . S
H552 C556 0.929 . S
H553 C562 0.929 . S
C554 H548 0.930 . S
C554 C555 1.367 . S
C554 C562 1.378 . S
C555 C554 1.367 . S
C555 C563 1.433 . S
C556 H552 0.929 . S
C556 C558 1.378 . S
C556 C560 1.350 . S
C557 C560 1.463 . S
C557 C562 1.350 . S
C557 N565 1.427 . S
C558 H549 0.930 . S
C558 C556 1.378 . S
C558 C559 1.367 . S
C559 C558 1.367 . S
C559 C561 1.433 . S
C560 C556 1.350 . S
C560 C557 1.463 . S
C560 N564 1.427 . S
C561 H551 0.929 . S
C561 C559 1.433 . S
C561 N564 1.384 . S
C562 H553 0.929 . S
C562 C554 1.378 . S
C562 C557 1.350 . S
C563 H550 0.929 . S
C563 C555 1.433 . S
C563 N565 1.384 . S
N564 C560 1.427 . S
N564 C561 1.384 . S
N565 C557 1.427 . S
N565 C563 1.384 . S
H566 C572 0.930 . S
H567 C576 0.930 . S
H568 C581 0.928 1_655 S
H569 C579 0.928 1_455 S
H570 C574 0.929 . S
H571 C580 0.929 . S
C572 H566 0.930 . S
C572 C573 1.367 . S
C572 C580 1.378 . S
C573 C572 1.367 . S
C573 C581 1.433 . S
C574 H570 0.929 . S
C574 C576 1.378 . S
C574 C578 1.350 . S
C575 C578 1.463 1_455 S
C575 C580 1.350 . S
C575 N583 1.427 1_455 S
C576 H567 0.930 . S
C576 C574 1.378 . S
C576 C577 1.367 . S
C577 C576 1.367 . S
C577 C579 1.433 . S
C578 C574 1.350 . S
C578 C575 1.463 1_655 S
C578 N582 1.427 1_655 S
C579 H569 0.928 1_655 S
C579 C577 1.433 . S
C579 N582 1.384 1_655 S
C580 H571 0.929 . S
C580 C572 1.378 . S
C580 C575 1.350 . S
C581 H568 0.928 1_455 S
C581 C573 1.433 . S
C581 N583 1.384 1_455 S
N582 C578 1.427 1_455 S
N582 C579 1.384 1_455 S
N583 C575 1.427 1_655 S
N583 C581 1.384 1_655 S
H584 C590 0.930 1_655 S
H585 C594 0.930 1_455 S
H586 C599 0.929 . S
H587 C597 0.929 . S
H588 C592 0.929 . S
H589 C598 0.929 . S
C590 H584 0.930 1_455 S
C590 C591 1.367 . S
C590 C598 1.378 1_455 S
C591 C590 1.367 . S
C591 C599 1.433 . S
C592 H588 0.929 . S
C592 C594 1.378 1_455 S
C592 C596 1.350 1_455 S
C593 C596 1.463 1_455 S
C593 C598 1.350 1_455 S
C593 N601 1.427 . S
C594 H585 0.930 1_655 S
C594 C592 1.378 1_655 S
C594 C595 1.367 . S
C595 C594 1.367 . S
C595 C597 1.433 . S
C596 C592 1.350 1_655 S
C596 C593 1.463 1_655 S
C596 N600 1.427 . S
C597 H587 0.929 . S
C597 C595 1.433 . S
C597 N600 1.384 . S
C598 H589 0.929 . S
C598 C590 1.378 1_655 S
C598 C593 1.350 1_655 S
C599 H586 0.929 . S
C599 C591 1.433 . S
C599 N601 1.384 . S
N600 C596 1.427 . S
N600 C597 1.384 . S
N601 C593 1.427 . S
N601 C599 1.384 . S
H602 C608 0.930 . S
H603 C612 0.930 . S
H604 C617 0.929 . S
H605 C615 0.929 . S
H606 C610 0.929 . S
H607 C616 0.929 . S
C608 H602 0.930 . S
C608 C609 1.367 . S
C608 C616 1.378 . S
C609 C608 1.367 . S
C609 C617 1.433 . S
C610 H606 0.929 . S
C610 C612 1.378 . S
C610 C614 1.350 . S
C611 C614 1.463 . S
C611 C616 1.350 . S
C611 N619 1.427 . S
C612 H603 0.930 . S
C612 C610 1.378 . S
C612 C613 1.367 . S
C613 C612 1.367 . S
C613 C615 1.433 . S
C614 C610 1.350 . S
C614 C611 1.463 . S
C614 N618 1.427 . S
C615 H605 0.929 . S
C615 C613 1.433 . S
C615 N618 1.384 . S
C616 H607 0.929 . S
C616 C608 1.378 . S
C616 C611 1.350 . S
C617 H604 0.929 . S
C617 C609 1.433 . S
C617 N619 1.384 . S
N618 C614 1.427 . S
N618 C615 1.384 . S
N619 C611 1.427 . S
N619 C617 1.384 . S
H620 C626 0.930 . S
H621 C630 0.930 . S
H622 C635 0.929 . S
H623 C633 0.929 . S
H624 C628 0.929 . S
H625 C634 0.929 . S
C626 H620 0.930 . S
C626 C627 1.367 . S
C626 C634 1.378 . S
C627 C626 1.367 . S
C627 C635 1.433 . S
C628 H624 0.929 . S
C628 C630 1.378 . S
C628 C632 1.350 . S
C629 C632 1.463 . S
C629 C634 1.350 . S
C629 N637 1.427 . S
C630 H621 0.930 . S
C630 C628 1.378 . S
C630 C631 1.367 . S
C631 C630 1.367 . S
C631 C633 1.433 . S
C632 C628 1.350 . S
C632 C629 1.463 . S
C632 N636 1.427 . S
C633 H623 0.929 . S
C633 C631 1.433 . S
C633 N636 1.384 . S
C634 H625 0.929 . S
C634 C626 1.378 . S
C634 C629 1.350 . S
C635 H622 0.929 . S
C635 C627 1.433 . S
C635 N637 1.384 . S
N636 C632 1.427 . S
N636 C633 1.384 . S
N637 C629 1.427 . S
N637 C635 1.384 . S
H638 C644 0.930 . S
H639 C648 0.930 . S
H640 C653 0.929 . S
H641 C651 0.929 . S
H642 C646 0.929 . S
H643 C652 0.929 . S
C644 H638 0.930 . S
C644 C645 1.367 . S
C644 C652 1.378 . S
C645 C644 1.367 . S
C645 C653 1.433 1_455 S
C646 H642 0.929 . S
C646 C648 1.378 . S
C646 C650 1.350 . S
C647 C650 1.463 1_455 S
C647 C652 1.350 . S
C647 N655 1.427 1_455 S
C648 H639 0.930 . S
C648 C646 1.378 . S
C648 C649 1.367 . S
C649 C648 1.367 . S
C649 C651 1.433 1_655 S
C650 C646 1.350 . S
C650 C647 1.463 1_655 S
C650 N654 1.427 1_655 S
C651 H641 0.929 . S
C651 C649 1.433 1_455 S
C651 N654 1.384 . S
C652 H643 0.929 . S
C652 C644 1.378 . S
C652 C647 1.350 . S
C653 H640 0.929 . S
C653 C645 1.433 1_655 S
C653 N655 1.384 . S
N654 C650 1.427 1_455 S
N654 C651 1.384 . S
N655 C647 1.427 1_655 S
N655 C653 1.384 . S
H656 C662 0.930 1_455 S
H657 C666 0.930 1_655 S
H658 C671 0.927 1_545 S
H659 C669 0.927 1_565 S
H660 C664 0.929 . S
H661 C670 0.929 . S
C662 H656 0.930 1_655 S
C662 C663 1.367 . S
C662 C670 1.378 1_655 S
C663 C662 1.367 . S
C663 C671 1.437 . S
C664 H660 0.929 . S
C664 C666 1.378 1_655 S
C664 C668 1.350 1_655 S
C665 C668 1.463 1_666 S
C665 C670 1.350 1_655 S
C665 N673 1.427 1_565 S
C666 H657 0.930 1_455 S
C666 C664 1.378 1_455 S
C666 C667 1.367 . S
C667 C666 1.367 . S
C667 C669 1.437 . S
C668 C664 1.350 1_455 S
C668 C665 1.463 1_444 S
C668 N672 1.427 1_545 S
C669 H659 0.927 1_545 S
C669 C667 1.437 . S
C669 N672 1.382 1_545 S
C670 H661 0.929 . S
C670 C662 1.378 1_455 S
C670 C665 1.350 1_455 S
C671 H658 0.927 1_565 S
C671 C663 1.437 . S
C671 N673 1.382 1_565 S
N672 C668 1.427 1_565 S
N672 C669 1.382 1_565 S
N673 C665 1.427 1_545 S
N673 C671 1.382 1_545 S
H674 C680 0.930 . S
H675 C684 0.930 . S
H676 C689 0.929 . S
H677 C687 0.929 . S
H678 C682 0.929 . S
H679 C688 0.929 . S
C680 H674 0.930 . S
C680 C681 1.367 . S
C680 C688 1.378 1_545 S
C681 C680 1.367 . S
C681 C689 1.433 . S
C682 H678 0.929 . S
C682 C684 1.378 1_545 S
C682 C686 1.350 1_545 S
C683 C686 1.463 1_546 S
C683 C688 1.350 1_545 S
C683 N691 1.427 . S
C684 H675 0.930 . S
C684 C682 1.378 1_565 S
C684 C685 1.367 . S
C685 C684 1.367 . S
C685 C687 1.433 . S
C686 C682 1.350 1_565 S
C686 C683 1.463 1_564 S
C686 N690 1.427 . S
C687 H677 0.929 . S
C687 C685 1.433 . S
C687 N690 1.384 . S
C688 H679 0.929 . S
C688 C680 1.378 1_565 S
C688 C683 1.350 1_565 S
C689 H676 0.929 . S
C689 C681 1.433 . S
C689 N691 1.384 . S
N690 C686 1.427 . S
N690 C687 1.384 . S
N691 C683 1.427 . S
N691 C689 1.384 . S
H692 C698 0.930 . S
H693 C702 0.930 . S
H694 C707 0.929 . S
H695 C705 0.929 . S
H696 C700 0.928 1_545 S
H697 C706 0.928 1_565 S
C698 H692 0.930 . S
C698 C699 1.367 . S
C698 C706 1.378 . S
C699 C698 1.367 . S
C699 C707 1.433 . S
C700 H696 0.928 1_565 S
C700 C702 1.378 . S
C700 C704 1.350 . S
C701 C704 1.463 1_545 S
C701 C706 1.350 . S
C701 N709 1.427 . S
C702 H693 0.930 . S
C702 C700 1.378 . S
C702 C703 1.367 . S
C703 C702 1.367 . S
C703 C705 1.433 . S
C704 C700 1.350 . S
C704 C701 1.463 1_565 S
C704 N708 1.427 . S
C705 H695 0.929 . S
C705 C703 1.433 . S
C705 N708 1.384 . S
C706 H697 0.928 1_545 S
C706 C698 1.378 . S
C706 C701 1.350 . S
C707 H694 0.929 . S
C707 C699 1.433 . S
C707 N709 1.384 . S
N708 C704 1.427 . S
N708 C705 1.384 . S
N709 C701 1.427 . S
N709 C707 1.384 . S
H710 C716 0.930 . S
H711 C720 0.930 . S
H712 C725 0.929 . S
H713 C723 0.929 . S
H714 C718 0.929 . S
H715 C724 0.929 . S
C716 H710 0.930 . S
C716 C717 1.367 . S
C716 C724 1.378 1_455 S
C717 C716 1.367 . S
C717 C725 1.433 1_565 S
C718 H714 0.929 . S
C718 C720 1.378 1_455 S
C718 C722 1.350 1_455 S
C719 C722 1.463 1_465 S
C719 C724 1.350 1_455 S
C719 N727 1.427 1_565 S
C720 H711 0.930 . S
C720 C718 1.378 1_655 S
C720 C721 1.367 . S
C721 C720 1.367 . S
C721 C723 1.433 1_545 S
C722 C718 1.350 1_655 S
C722 C719 1.463 1_645 S
C722 N726 1.427 1_545 S
C723 H713 0.929 . S
C723 C721 1.433 1_565 S
C723 N726 1.384 . S
C724 H715 0.929 . S
C724 C716 1.378 1_655 S
C724 C719 1.350 1_655 S
C725 H712 0.929 . S
C725 C717 1.433 1_545 S
C725 N727 1.384 . S
N726 C722 1.427 1_565 S
N726 C723 1.384 . S
N727 C719 1.427 1_545 S
N727 C725 1.384 . S
H728 C734 0.930 . S
H729 C738 0.930 . S
H730 C743 0.929 . S
H731 C741 0.929 . S
H732 C736 0.929 . S
H733 C742 0.929 . S
C734 H728 0.930 . S
C734 C735 1.367 . S
C734 C742 1.378 . S
C735 C734 1.367 . S
C735 C743 1.433 . S
C736 H732 0.929 . S
C736 C738 1.378 . S
C736 C740 1.350 . S
C737 C740 1.463 1_554 S
C737 C742 1.350 . S
C737 N745 1.427 . S
C738 H729 0.930 . S
C738 C736 1.378 . S
C738 C739 1.367 . S
C739 C738 1.367 . S
C739 C741 1.433 . S
C740 C736 1.350 . S
C740 C737 1.463 1_556 S
C740 N744 1.427 . S
C741 H731 0.929 . S
C741 C739 1.433 . S
C741 N744 1.384 . S
C742 H733 0.929 . S
C742 C734 1.378 . S
C742 C737 1.350 . S
C743 H730 0.929 . S
C743 C735 1.433 . S
C743 N745 1.384 . S
N744 C740 1.427 . S
N744 C741 1.384 . S
N745 C737 1.427 . S
N745 C743 1.384 . S
H746 C752 0.930 . S
H747 C756 0.930 . S
H748 C761 0.929 . S
H749 C759 0.929 . S
H750 C754 0.929 1_655 S
H751 C760 0.929 1_455 S
C752 H746 0.930 . S
C752 C753 1.367 . S
C752 C760 1.378 . S
C753 C752 1.367 . S
C753 C761 1.433 . S
C754 H750 0.929 1_455 S
C754 C756 1.378 . S
C754 C758 1.350 . S
C755 C758 1.463 1_654 S
C755 C760 1.350 . S
C755 N763 1.427 . S
C756 H747 0.930 . S
C756 C754 1.378 . S
C756 C757 1.367 . S
C757 C756 1.367 . S
C757 C759 1.433 . S
C758 C754 1.350 . S
C758 C755 1.463 1_456 S
C758 N762 1.427 . S
C759 H749 0.929 . S
C759 C757 1.433 . S
C759 N762 1.384 . S
C760 H751 0.929 1_655 S
C760 C752 1.378 . S
C760 C755 1.350 . S
C761 H748 0.929 . S
C761 C753 1.433 . S
C761 N763 1.384 . S
N762 C758 1.427 . S
N762 C759 1.384 . S
N763 C755 1.427 . S
N763 C761 1.384 . S
H764 C770 0.930 . S
H765 C774 0.930 . S
H766 C779 0.929 . S
H767 C777 0.929 . S
H768 C772 0.929 . S
H769 C778 0.929 . S
C770 H764 0.930 . S
C770 C771 1.367 . S
C770 C778 1.378 . S
C771 C770 1.367 . S
C771 C779 1.433 1_655 S
C772 H768 0.929 . S
C772 C774 1.378 . S
C772 C776 1.350 . S
C773 C776 1.463 1_655 S
C773 C778 1.350 . S
C773 N781 1.427 1_655 S
C774 H765 0.930 . S
C774 C772 1.378 . S
C774 C775 1.367 . S
C775 C774 1.367 . S
C775 C777 1.433 1_455 S
C776 C772 1.350 . S
C776 C773 1.463 1_455 S
C776 N780 1.427 1_455 S
C777 H767 0.929 . S
C777 C775 1.433 1_655 S
C777 N780 1.384 . S
C778 H769 0.929 . S
C778 C770 1.378 . S
C778 C773 1.350 . S
C779 H766 0.929 . S
C779 C771 1.433 1_455 S
C779 N781 1.384 . S
N780 C776 1.427 1_655 S
N780 C777 1.384 . S
N781 C773 1.427 1_455 S
N781 C779 1.384 . S
H782 C788 0.930 . S
H783 C792 0.930 . S
H784 C797 0.929 . S
H785 C795 0.929 . S
H786 C790 0.929 . S
H787 C796 0.929 . S
C788 H782 0.930 . S
C788 C789 1.367 . S
C788 C796 1.378 . S
C789 C788 1.367 . S
C789 C797 1.433 . S
C790 H786 0.929 . S
C790 C792 1.378 . S
C790 C794 1.350 . S
C791 C794 1.463 . S
C791 C796 1.350 . S
C791 N799 1.427 . S
C792 H783 0.930 . S
C792 C790 1.378 . S
C792 C793 1.367 . S
C793 C792 1.367 . S
C793 C795 1.433 . S
C794 C790 1.350 . S
C794 C791 1.463 . S
C794 N798 1.427 . S
C795 H785 0.929 . S
C795 C793 1.433 . S
C795 N798 1.384 . S
C796 H787 0.929 . S
C796 C788 1.378 . S
C796 C791 1.350 . S
C797 H784 0.929 . S
C797 C789 1.433 . S
C797 N799 1.384 . S
N798 C794 1.427 . S
N798 C795 1.384 . S
N799 C791 1.427 . S
N799 C797 1.384 . S
C231 C22 1.503 . S
C235 C8 1.502 . S
C249 C36 1.504 . S
C253 C50 1.503 . S
C267 C64 1.506 . S
C271 C78 1.505 . S
C285 C106 1.504 . S
C289 C92 1.505 . S
C303 C134 1.504 . S
C307 C120 1.503 . S
C321 C162 1.505 . S
C325 C148 1.504 . S
C339 C190 1.502 . S
C343 C176 1.502 . S
C357 C218 1.506 . S
C361 C204 1.506 . S
C375 C45 1.405 . S
C379 C3 1.400 . S
C393 C17 1.402 . S
C397 C31 1.406 . S
C411 C101 1.401 . S
C415 C59 1.403 . S
C429 C87 1.400 . S
C433 C73 1.406 . S
C447 C115 1.405 . S
C451 C157 1.405 . S
C465 C143 1.405 . S
C469 C129 1.400 . S
C483 C213 1.400 . S
C487 C171 1.405 . S
C501 C185 1.406 . S
C505 C199 1.404 . S
C519 C9 1.489 . S
C523 C135 1.493 . S
C537 C23 1.490 . S
C541 C121 1.486 . S
C555 C163 1.485 . S
C559 C37 1.488 . S
C573 C149 1.489 . S
C577 C51 1.493 . S
C591 C191 1.486 . S
C595 C65 1.490 . S
C609 C177 1.493 . S
C613 C79 1.489 . S
C627 C93 1.486 . S
C631 C219 1.490 . S
C645 C107 1.493 . S
C649 C205 1.490 . S
C663 C63 1.336 . S
C667 C7 1.336 . S
C681 C77 1.345 . S
C685 C21 1.345 . S
C699 C91 1.345 . S
C703 C35 1.345 . S
C717 C105 1.337 . S
C721 C49 1.337 . S
C735 C119 1.335 . S
C739 C175 1.335 . S
C753 C133 1.337 . S
C757 C189 1.337 . S
C771 C203 1.344 . S
C775 C147 1.344 . S
C789 C217 1.343 . S
C793 C161 1.343 . S
