# Generated by pormake.
# Topology lta, (4)-cn, num edge types: 1
# Building blocks:
#     Node 0, Type 0, BuildingBlock: CEKHIL_clean_sbu_0, # of connection points: 4
#     Node 1, Type 0, BuildingBlock: CEKHIL_clean_sbu_0, # of connection points: 4
#     Node 2, Type 0, BuildingBlock: CEKHIL_clean_sbu_0, # of connection points: 4
#     Node 3, Type 0, BuildingBlock: CEKHIL_clean_sbu_0, # of connection points: 4
#     Node 4, Type 0, BuildingBlock: CEKHIL_clean_sbu_0, # of connection points: 4
#     Node 5, Type 0, BuildingBlock: CEKHIL_clean_sbu_0, # of connection points: 4
#     Node 6, Type 0, BuildingBlock: CEKHIL_clean_sbu_0, # of connection points: 4
#     Node 7, Type 0, BuildingBlock: CEKHIL_clean_sbu_0, # of connection points: 4
#     Node 8, Type 0, BuildingBlock: CEKHIL_clean_sbu_0, # of connection points: 4
#     Node 9, Type 0, BuildingBlock: CEKHIL_clean_sbu_0, # of connection points: 4
#     Node 10, Type 0, BuildingBlock: CEKHIL_clean_sbu_0, # of connection points: 4
#     Node 11, Type 0, BuildingBlock: CEKHIL_clean_sbu_0, # of connection points: 4
#     Node 12, Type 0, BuildingBlock: CEKHIL_clean_sbu_0, # of connection points: 4
#     Node 13, Type 0, BuildingBlock: CEKHIL_clean_sbu_0, # of connection points: 4
#     Node 14, Type 0, BuildingBlock: CEKHIL_clean_sbu_0, # of connection points: 4
#     Node 15, Type 0, BuildingBlock: CEKHIL_clean_sbu_0, # of connection points: 4
#     Node 16, Type 0, BuildingBlock: CEKHIL_clean_sbu_0, # of connection points: 4
#     Node 17, Type 0, BuildingBlock: CEKHIL_clean_sbu_0, # of connection points: 4
#     Node 18, Type 0, BuildingBlock: CEKHIL_clean_sbu_0, # of connection points: 4
#     Node 19, Type 0, BuildingBlock: CEKHIL_clean_sbu_0, # of connection points: 4
#     Node 20, Type 0, BuildingBlock: CEKHIL_clean_sbu_0, # of connection points: 4
#     Node 21, Type 0, BuildingBlock: CEKHIL_clean_sbu_0, # of connection points: 4
#     Node 22, Type 0, BuildingBlock: CEKHIL_clean_sbu_0, # of connection points: 4
#     Node 23, Type 0, BuildingBlock: CEKHIL_clean_sbu_0, # of connection points: 4
#     Edge 24, Type (0, 0), None
#     Edge 25, Type (0, 0), None
#     Edge 26, Type (0, 0), None
#     Edge 27, Type (0, 0), None
#     Edge 28, Type (0, 0), None
#     Edge 29, Type (0, 0), None
#     Edge 30, Type (0, 0), None
#     Edge 31, Type (0, 0), None
#     Edge 32, Type (0, 0), None
#     Edge 33, Type (0, 0), None
#     Edge 34, Type (0, 0), None
#     Edge 35, Type (0, 0), None
#     Edge 36, Type (0, 0), None
#     Edge 37, Type (0, 0), None
#     Edge 38, Type (0, 0), None
#     Edge 39, Type (0, 0), None
#     Edge 40, Type (0, 0), None
#     Edge 41, Type (0, 0), None
#     Edge 42, Type (0, 0), None
#     Edge 43, Type (0, 0), None
#     Edge 44, Type (0, 0), None
#     Edge 45, Type (0, 0), None
#     Edge 46, Type (0, 0), None
#     Edge 47, Type (0, 0), None
#     Edge 48, Type (0, 0), None
#     Edge 49, Type (0, 0), None
#     Edge 50, Type (0, 0), None
#     Edge 51, Type (0, 0), None
#     Edge 52, Type (0, 0), None
#     Edge 53, Type (0, 0), None
#     Edge 54, Type (0, 0), None
#     Edge 55, Type (0, 0), None
#     Edge 56, Type (0, 0), None
#     Edge 57, Type (0, 0), None
#     Edge 58, Type (0, 0), None
#     Edge 59, Type (0, 0), None
#     Edge 60, Type (0, 0), None
#     Edge 61, Type (0, 0), None
#     Edge 62, Type (0, 0), None
#     Edge 63, Type (0, 0), None
#     Edge 64, Type (0, 0), None
#     Edge 65, Type (0, 0), None
#     Edge 66, Type (0, 0), None
#     Edge 67, Type (0, 0), None
#     Edge 68, Type (0, 0), None
#     Edge 69, Type (0, 0), None
#     Edge 70, Type (0, 0), None
#     Edge 71, Type (0, 0), None
# Relax obj value: 0.276
# Max RMSD: 0.171
# Mean RMSD: 0.171
data_MOF--net-lta--node1-CEKHIL_clean_sbu_0--edge1-none
_symmetry_space_group_name_H-M    P1
_symmetry_Int_Tables_number       1
_symmetry_cell_setting            triclinic
loop_
_symmetry_equiv_pos_as_xyz
'x, y, z'
_cell_length_a     24.420486
_cell_length_b     24.420675
_cell_length_c     24.420902
_cell_angle_alpha  90.000959
_cell_angle_beta   90.000692
_cell_angle_gamma 89.999852
loop_
_atom_site_label
_atom_site_type_symbol
_atom_site_fract_x
_atom_site_fract_y
_atom_site_fract_z
_atom_type_partial_charge
Co0 Co 0.15894 0.33244 0.50774 0.0
O1 O 0.23358 0.30948 0.50825 0.0
O2 O 0.1644 0.25231 0.51825 0.0
C3 C 0.17144 0.39042 0.43294 0.0
O4 O 0.07618 0.34708 0.50909 0.0
Co5 Co 0.14788 0.462 0.5254 0.0
O6 O 0.06953 0.43847 0.52527 0.0
C7 C 0.18835 0.39369 0.60138 0.0
C8 C 0.21721 0.25977 0.51497 0.0
C9 C 0.04803 0.39115 0.51802 0.0
O10 O 0.1619 0.3496 0.5903 0.0
O11 O 0.20802 0.41844 0.56043 0.0
O12 O 0.16177 0.33873 0.42411 0.0
O13 O 0.17499 0.40162 0.48364 0.0
Co14 Co 0.70304 0.15894 0.50775 0.0
O15 O 0.72599 0.23357 0.50825 0.0
O16 O 0.78317 0.1644 0.51825 0.0
C17 C 0.64506 0.17143 0.43295 0.0
O18 O 0.6884 0.07618 0.5091 0.0
Co19 Co 0.57348 0.14788 0.52541 0.0
O20 O 0.59701 0.06952 0.52529 0.0
C21 C 0.64179 0.18835 0.60139 0.0
C22 C 0.77571 0.21721 0.51497 0.0
C23 C 0.64433 0.04803 0.51803 0.0
O24 O 0.68588 0.16189 0.59031 0.0
O25 O 0.61704 0.20801 0.56044 0.0
O26 O 0.69675 0.16177 0.42411 0.0
O27 O 0.63385 0.17498 0.48365 0.0
Co28 Co 0.87654 0.70304 0.50773 0.0
O29 O 0.80191 0.726 0.50824 0.0
O30 O 0.87109 0.78317 0.51824 0.0
C31 C 0.86404 0.64506 0.43293 0.0
O32 O 0.9593 0.6884 0.50908 0.0
Co33 Co 0.8876 0.57348 0.5254 0.0
O34 O 0.96596 0.59701 0.52527 0.0
C35 C 0.84715 0.6418 0.60138 0.0
C36 C 0.81827 0.77571 0.51497 0.0
C37 C 0.98745 0.64433 0.51801 0.0
O38 O 0.8736 0.68588 0.59029 0.0
O39 O 0.82747 0.61704 0.56043 0.0
O40 O 0.87371 0.69675 0.4241 0.0
O41 O 0.8605 0.63386 0.48364 0.0
Co42 Co 0.33244 0.87654 0.50774 0.0
O43 O 0.30949 0.80191 0.50824 0.0
O44 O 0.25231 0.87108 0.51824 0.0
C45 C 0.39043 0.86404 0.43293 0.0
O46 O 0.34708 0.9593 0.50909 0.0
Co47 Co 0.46201 0.8876 0.5254 0.0
O48 O 0.43848 0.96596 0.52528 0.0
C49 C 0.39369 0.84714 0.60138 0.0
C50 C 0.25978 0.81827 0.51497 0.0
C51 C 0.39115 0.98745 0.51803 0.0
O52 O 0.3496 0.87359 0.5903 0.0
O53 O 0.41845 0.82747 0.56043 0.0
O54 O 0.33874 0.87371 0.4241 0.0
O55 O 0.40163 0.86049 0.48364 0.0
Co56 Co 0.15894 0.70304 0.52772 0.0
O57 O 0.23358 0.72599 0.52722 0.0
O58 O 0.1644 0.78317 0.51721 0.0
C59 C 0.17144 0.64506 0.60252 0.0
O60 O 0.07619 0.6884 0.52637 0.0
Co61 Co 0.14788 0.57348 0.51006 0.0
O62 O 0.06953 0.59701 0.51017 0.0
C63 C 0.18834 0.64179 0.43408 0.0
C64 C 0.21721 0.7757 0.52048 0.0
C65 C 0.04804 0.64433 0.51743 0.0
O66 O 0.16189 0.68588 0.44516 0.0
O67 O 0.20801 0.61703 0.47503 0.0
O68 O 0.16178 0.69675 0.61136 0.0
O69 O 0.17499 0.63385 0.55182 0.0
Co70 Co 0.33244 0.15894 0.52774 0.0
O71 O 0.30949 0.23357 0.52723 0.0
O72 O 0.25231 0.16439 0.51723 0.0
C73 C 0.39042 0.17143 0.60254 0.0
O74 O 0.34708 0.07618 0.52638 0.0
Co75 Co 0.46201 0.14788 0.51007 0.0
O76 O 0.43847 0.06953 0.51019 0.0
C77 C 0.39369 0.18834 0.43409 0.0
C78 C 0.25978 0.21721 0.5205 0.0
C79 C 0.39115 0.04803 0.51744 0.0
O80 O 0.3496 0.16189 0.44518 0.0
O81 O 0.41844 0.20801 0.47504 0.0
O82 O 0.33873 0.16177 0.61137 0.0
O83 O 0.40163 0.17498 0.55184 0.0
Co84 Co 0.87654 0.33244 0.52772 0.0
O85 O 0.80191 0.30949 0.52722 0.0
O86 O 0.87108 0.25231 0.51721 0.0
C87 C 0.86405 0.39042 0.60252 0.0
O88 O 0.9593 0.34708 0.52636 0.0
Co89 Co 0.8876 0.462 0.51005 0.0
O90 O 0.96596 0.43847 0.51017 0.0
C91 C 0.84713 0.39369 0.43408 0.0
C92 C 0.81827 0.25978 0.52049 0.0
C93 C 0.98745 0.39115 0.51743 0.0
O94 O 0.87358 0.3496 0.44516 0.0
O95 O 0.82747 0.41844 0.47503 0.0
O96 O 0.87371 0.33873 0.61135 0.0
O97 O 0.8605 0.40163 0.55182 0.0
Co98 Co 0.70304 0.87654 0.52773 0.0
O99 O 0.726 0.80191 0.52723 0.0
O100 O 0.78317 0.87108 0.51722 0.0
C101 C 0.64506 0.86405 0.60254 0.0
O102 O 0.6884 0.9593 0.52638 0.0
Co103 Co 0.57348 0.8876 0.51007 0.0
O104 O 0.59701 0.96595 0.51019 0.0
C105 C 0.64179 0.84713 0.43409 0.0
C106 C 0.77571 0.81827 0.52049 0.0
C107 C 0.64433 0.98744 0.51744 0.0
O108 O 0.68588 0.87359 0.44517 0.0
O109 O 0.61704 0.82747 0.47504 0.0
O110 O 0.69675 0.87371 0.61137 0.0
O111 O 0.63386 0.8605 0.55183 0.0
Co112 Co 0.50775 0.15892 0.33244 0.0
O113 O 0.50826 0.23355 0.30947 0.0
O114 O 0.51826 0.16437 0.25231 0.0
C115 C 0.43295 0.17148 0.3904 0.0
O116 O 0.50911 0.07617 0.3471 0.0
Co117 Co 0.5254 0.14789 0.462 0.0
O118 O 0.52528 0.06952 0.4385 0.0
C119 C 0.60137 0.18834 0.39369 0.0
C120 C 0.51498 0.21718 0.25977 0.0
C121 C 0.51803 0.04802 0.39118 0.0
O122 O 0.59031 0.16188 0.34961 0.0
O123 O 0.56046 0.20804 0.41849 0.0
O124 O 0.42412 0.16175 0.33873 0.0
O125 O 0.48366 0.175 0.40162 0.0
Co126 Co 0.87653 0.50775 0.33242 0.0
O127 O 0.8019 0.50826 0.30945 0.0
O128 O 0.87109 0.51826 0.25229 0.0
C129 C 0.86398 0.43295 0.39038 0.0
O130 O 0.95929 0.5091 0.34709 0.0
Co131 Co 0.88757 0.5254 0.46199 0.0
O132 O 0.96594 0.52527 0.43848 0.0
C133 C 0.84712 0.60138 0.39368 0.0
C134 C 0.81827 0.51498 0.25975 0.0
C135 C 0.98744 0.51802 0.39116 0.0
O136 O 0.87358 0.59031 0.34959 0.0
O137 O 0.82742 0.56047 0.41847 0.0
O138 O 0.87371 0.42412 0.33871 0.0
O139 O 0.86045 0.48366 0.4016 0.0
Co140 Co 0.52773 0.87653 0.33243 0.0
O141 O 0.52723 0.80191 0.30946 0.0
O142 O 0.51722 0.87109 0.2523 0.0
C143 C 0.60253 0.86398 0.39039 0.0
O144 O 0.52637 0.95929 0.3471 0.0
Co145 Co 0.51008 0.88756 0.462 0.0
O146 O 0.5102 0.96593 0.43849 0.0
C147 C 0.4341 0.84712 0.39368 0.0
C148 C 0.5205 0.81828 0.25975 0.0
C149 C 0.51744 0.98743 0.39117 0.0
O150 O 0.44517 0.87357 0.3496 0.0
O151 O 0.47502 0.82741 0.41848 0.0
O152 O 0.61136 0.87371 0.33872 0.0
O153 O 0.55182 0.86045 0.40161 0.0
Co154 Co 0.15894 0.52772 0.33243 0.0
O155 O 0.23357 0.52721 0.30947 0.0
O156 O 0.16439 0.51721 0.2523 0.0
C157 C 0.17149 0.60252 0.39039 0.0
O158 O 0.07618 0.52637 0.34709 0.0
Co159 Co 0.1479 0.51007 0.46199 0.0
O160 O 0.06953 0.5102 0.43848 0.0
C161 C 0.18835 0.4341 0.39369 0.0
C162 C 0.2172 0.52048 0.25976 0.0
C163 C 0.04803 0.51744 0.39116 0.0
O164 O 0.1619 0.44516 0.3496 0.0
O165 O 0.20805 0.47501 0.41848 0.0
O166 O 0.16176 0.61135 0.33871 0.0
O167 O 0.17501 0.55182 0.40161 0.0
Co168 Co 0.50776 0.87655 0.70304 0.0
O169 O 0.50826 0.80192 0.72601 0.0
O170 O 0.51826 0.8711 0.78317 0.0
C171 C 0.43296 0.86399 0.64507 0.0
O172 O 0.50911 0.9593 0.68838 0.0
Co173 Co 0.5254 0.88758 0.57348 0.0
O174 O 0.52528 0.96595 0.59698 0.0
C175 C 0.60138 0.84713 0.64179 0.0
C176 C 0.51498 0.81829 0.77572 0.0
C177 C 0.51803 0.98745 0.6443 0.0
O178 O 0.59032 0.87359 0.68587 0.0
O179 O 0.56046 0.82743 0.61699 0.0
O180 O 0.42412 0.87372 0.69675 0.0
O181 O 0.48366 0.86047 0.63386 0.0
Co182 Co 0.15895 0.50776 0.70303 0.0
O183 O 0.23358 0.50827 0.726 0.0
O184 O 0.16439 0.51827 0.78316 0.0
C185 C 0.17151 0.43296 0.64507 0.0
O186 O 0.0762 0.50911 0.68836 0.0
Co187 Co 0.14792 0.5254 0.57347 0.0
O188 O 0.06955 0.52528 0.59697 0.0
C189 C 0.18837 0.60138 0.64178 0.0
C190 C 0.21721 0.51499 0.77571 0.0
C191 C 0.04805 0.51803 0.64429 0.0
O192 O 0.16191 0.59032 0.68586 0.0
O193 O 0.20807 0.56047 0.61698 0.0
O194 O 0.16178 0.42412 0.69675 0.0
O195 O 0.17503 0.48366 0.63385 0.0
Co196 Co 0.52773 0.15894 0.70305 0.0
O197 O 0.52722 0.23357 0.72602 0.0
O198 O 0.51722 0.16439 0.78318 0.0
C199 C 0.60253 0.1715 0.64508 0.0
O200 O 0.52637 0.07619 0.68838 0.0
Co201 Co 0.51008 0.14791 0.57348 0.0
O202 O 0.5102 0.06954 0.59698 0.0
C203 C 0.4341 0.18836 0.64179 0.0
C204 C 0.5205 0.2172 0.77573 0.0
C205 C 0.51744 0.04804 0.6443 0.0
O206 O 0.44517 0.1619 0.68588 0.0
O207 O 0.47501 0.20806 0.617 0.0
O208 O 0.61136 0.16177 0.69676 0.0
O209 O 0.55182 0.17503 0.63387 0.0
Co210 Co 0.87656 0.52773 0.70302 0.0
O211 O 0.80193 0.52723 0.72599 0.0
O212 O 0.87112 0.51722 0.78316 0.0
C213 C 0.864 0.60253 0.64506 0.0
O214 O 0.95932 0.52637 0.68836 0.0
Co215 Co 0.88759 0.51008 0.57346 0.0
O216 O 0.96596 0.5102 0.59697 0.0
C217 C 0.84714 0.43411 0.64177 0.0
C218 C 0.8183 0.5205 0.7757 0.0
C219 C 0.98746 0.51745 0.64429 0.0
O220 O 0.8736 0.44517 0.68586 0.0
O221 O 0.82744 0.47502 0.61698 0.0
O222 O 0.87373 0.61136 0.69674 0.0
O223 O 0.86048 0.55183 0.63384 0.0
Co224 Co 0.33244 0.50773 0.15893 0.0
O225 O 0.30948 0.50824 0.23356 0.0
O226 O 0.2523 0.51823 0.16438 0.0
C227 C 0.39042 0.43293 0.17143 0.0
O228 O 0.34708 0.50908 0.07618 0.0
Co229 Co 0.462 0.5254 0.14788 0.0
O230 O 0.43847 0.52528 0.06952 0.0
C231 C 0.39368 0.60138 0.18833 0.0
C232 C 0.25977 0.51496 0.2172 0.0
C233 C 0.39115 0.51802 0.04803 0.0
O234 O 0.3496 0.59029 0.16188 0.0
O235 O 0.41844 0.56043 0.20801 0.0
O236 O 0.33873 0.4241 0.16177 0.0
O237 O 0.40162 0.48363 0.17498 0.0
Co238 Co 0.33244 0.52774 0.87654 0.0
O239 O 0.30948 0.52724 0.80191 0.0
O240 O 0.25231 0.51724 0.87109 0.0
C241 C 0.39043 0.60255 0.86405 0.0
O242 O 0.34708 0.52639 0.9593 0.0
Co243 Co 0.46201 0.51008 0.8876 0.0
O244 O 0.43848 0.51019 0.96595 0.0
C245 C 0.39368 0.4341 0.84714 0.0
C246 C 0.25977 0.52051 0.81827 0.0
C247 C 0.39115 0.51744 0.98744 0.0
O248 O 0.3496 0.44518 0.87359 0.0
O249 O 0.41844 0.47505 0.82747 0.0
O250 O 0.33874 0.61138 0.87371 0.0
O251 O 0.40163 0.55184 0.8605 0.0
Co252 Co 0.50775 0.33245 0.87655 0.0
O253 O 0.50825 0.30948 0.80193 0.0
O254 O 0.51825 0.25231 0.87111 0.0
C255 C 0.43295 0.39041 0.864 0.0
O256 O 0.5091 0.3471 0.95931 0.0
Co257 Co 0.5254 0.462 0.88763 0.0
O258 O 0.52527 0.4385 0.96599 0.0
C259 C 0.60138 0.39369 0.84714 0.0
C260 C 0.51498 0.25977 0.81829 0.0
C261 C 0.51802 0.39117 0.98747 0.0
O262 O 0.59031 0.34961 0.87359 0.0
O263 O 0.56042 0.41845 0.82749 0.0
O264 O 0.42412 0.33873 0.87373 0.0
O265 O 0.48366 0.40163 0.86047 0.0
Co266 Co 0.70306 0.50775 0.87651 0.0
O267 O 0.72603 0.50826 0.80189 0.0
O268 O 0.78319 0.51825 0.87107 0.0
C269 C 0.64509 0.43296 0.86396 0.0
O270 O 0.6884 0.5091 0.95927 0.0
Co271 Co 0.57349 0.5254 0.88756 0.0
O272 O 0.597 0.52527 0.96592 0.0
C273 C 0.64181 0.6014 0.84711 0.0
C274 C 0.77573 0.51498 0.81826 0.0
C275 C 0.64432 0.51802 0.98741 0.0
O276 O 0.6859 0.59031 0.87356 0.0
O277 O 0.61705 0.56045 0.82744 0.0
O278 O 0.69676 0.42412 0.87369 0.0
O279 O 0.63387 0.48366 0.86043 0.0
Co280 Co 0.52774 0.70304 0.87653 0.0
O281 O 0.52723 0.72602 0.80191 0.0
O282 O 0.51723 0.78318 0.87109 0.0
C283 C 0.60254 0.64508 0.86397 0.0
O284 O 0.52638 0.68838 0.95929 0.0
Co285 Co 0.51009 0.57348 0.88756 0.0
O286 O 0.51021 0.59698 0.96593 0.0
C287 C 0.43411 0.64179 0.84712 0.0
C288 C 0.5205 0.77572 0.81828 0.0
C289 C 0.51746 0.6443 0.98743 0.0
O290 O 0.44518 0.68588 0.87358 0.0
O291 O 0.47502 0.617 0.82742 0.0
O292 O 0.61137 0.69676 0.87371 0.0
O293 O 0.55183 0.63386 0.86045 0.0
Co294 Co 0.70304 0.52773 0.15891 0.0
O295 O 0.726 0.52723 0.23354 0.0
O296 O 0.78317 0.51723 0.16437 0.0
C297 C 0.64505 0.60253 0.1714 0.0
O298 O 0.68839 0.52637 0.07615 0.0
Co299 Co 0.57348 0.51006 0.14784 0.0
O300 O 0.597 0.51018 0.06949 0.0
C301 C 0.64179 0.43409 0.18833 0.0
C302 C 0.77571 0.5205 0.21718 0.0
C303 C 0.64432 0.51743 0.048 0.0
O304 O 0.68588 0.44517 0.16187 0.0
O305 O 0.61704 0.47505 0.20798 0.0
O306 O 0.69674 0.61136 0.16174 0.0
O307 O 0.63385 0.55182 0.17495 0.0
Co308 Co 0.50775 0.70303 0.15892 0.0
O309 O 0.50825 0.726 0.23355 0.0
O310 O 0.51825 0.78317 0.16437 0.0
C311 C 0.43295 0.64507 0.17148 0.0
O312 O 0.5091 0.68837 0.07617 0.0
Co313 Co 0.5254 0.57347 0.14789 0.0
O314 O 0.52528 0.59698 0.06952 0.0
C315 C 0.60137 0.64178 0.18833 0.0
C316 C 0.51498 0.77571 0.21718 0.0
C317 C 0.51804 0.6443 0.04802 0.0
O318 O 0.59031 0.68587 0.16188 0.0
O319 O 0.56046 0.61699 0.20803 0.0
O320 O 0.42411 0.69675 0.16175 0.0
O321 O 0.48365 0.63385 0.175 0.0
Co322 Co 0.52773 0.33242 0.15895 0.0
O323 O 0.52723 0.30945 0.23357 0.0
O324 O 0.51722 0.25229 0.16439 0.0
C325 C 0.60253 0.39039 0.1715 0.0
O326 O 0.52637 0.34709 0.0762 0.0
Co327 Co 0.51007 0.46199 0.14794 0.0
O328 O 0.51019 0.43848 0.06957 0.0
C329 C 0.4341 0.39367 0.18837 0.0
C330 C 0.5205 0.25974 0.2172 0.0
C331 C 0.51744 0.39116 0.04806 0.0
O332 O 0.44517 0.34959 0.16191 0.0
O333 O 0.47501 0.41847 0.20808 0.0
O334 O 0.61137 0.33871 0.16177 0.0
O335 O 0.55183 0.4016 0.17503 0.0
loop_
_geom_bond_atom_site_label_1
_geom_bond_atom_site_label_2
_geom_bond_distance
_geom_bond_site_symmetry_2
_ccdc_geom_bond_type
Co0 O1 2.216 . S
Co0 O2 2.091 . S
Co0 O4 2.004 . S
Co0 O10 2.021 . S
Co0 O12 2.137 . S
Co0 O13 2.244 . S
O1 Co0 2.216 . S
O1 C8 1.247 . S
O2 Co0 2.091 . S
O2 C8 1.261 . S
C3 O12 1.247 . S
C3 O13 1.272 . S
O4 Co0 2.004 . S
O4 C9 1.259 . S
Co5 O6 2.061 . S
Co5 O11 2.052 . S
Co5 O13 2.135 . S
O6 Co5 2.061 . S
O6 C9 1.235 . S
C7 O10 1.238 . S
C7 O11 1.241 . S
C8 O1 1.247 . S
C8 O2 1.261 . S
C9 O4 1.259 . S
C9 O6 1.235 . S
O10 Co0 2.021 . S
O10 C7 1.238 . S
O11 Co5 2.052 . S
O11 C7 1.241 . S
O12 Co0 2.137 . S
O12 C3 1.247 . S
O13 Co0 2.244 . S
O13 C3 1.272 . S
O13 Co5 2.135 . S
Co14 O15 2.216 . S
Co14 O16 2.091 . S
Co14 O18 2.004 . S
Co14 O24 2.021 . S
Co14 O26 2.137 . S
Co14 O27 2.244 . S
O15 Co14 2.216 . S
O15 C22 1.247 . S
O16 Co14 2.091 . S
O16 C22 1.261 . S
C17 O26 1.247 . S
C17 O27 1.272 . S
O18 Co14 2.004 . S
O18 C23 1.259 . S
Co19 O20 2.061 . S
Co19 O25 2.052 . S
Co19 O27 2.135 . S
O20 Co19 2.061 . S
O20 C23 1.235 . S
C21 O24 1.238 . S
C21 O25 1.241 . S
C22 O15 1.247 . S
C22 O16 1.261 . S
C23 O18 1.259 . S
C23 O20 1.235 . S
O24 Co14 2.021 . S
O24 C21 1.238 . S
O25 Co19 2.052 . S
O25 C21 1.241 . S
O26 Co14 2.137 . S
O26 C17 1.247 . S
O27 Co14 2.244 . S
O27 C17 1.272 . S
O27 Co19 2.135 . S
Co28 O29 2.216 . S
Co28 O30 2.091 . S
Co28 O32 2.004 . S
Co28 O38 2.021 . S
Co28 O40 2.137 . S
Co28 O41 2.244 . S
O29 Co28 2.216 . S
O29 C36 1.247 . S
O30 Co28 2.091 . S
O30 C36 1.261 . S
C31 O40 1.247 . S
C31 O41 1.272 . S
O32 Co28 2.004 . S
O32 C37 1.259 . S
Co33 O34 2.061 . S
Co33 O39 2.052 . S
Co33 O41 2.135 . S
O34 Co33 2.061 . S
O34 C37 1.235 . S
C35 O38 1.238 . S
C35 O39 1.241 . S
C36 O29 1.247 . S
C36 O30 1.261 . S
C37 O32 1.259 . S
C37 O34 1.235 . S
O38 Co28 2.021 . S
O38 C35 1.238 . S
O39 Co33 2.052 . S
O39 C35 1.241 . S
O40 Co28 2.137 . S
O40 C31 1.247 . S
O41 Co28 2.244 . S
O41 C31 1.272 . S
O41 Co33 2.135 . S
Co42 O43 2.216 . S
Co42 O44 2.091 . S
Co42 O46 2.004 . S
Co42 O52 2.021 . S
Co42 O54 2.137 . S
Co42 O55 2.244 . S
O43 Co42 2.216 . S
O43 C50 1.247 . S
O44 Co42 2.091 . S
O44 C50 1.261 . S
C45 O54 1.247 . S
C45 O55 1.272 . S
O46 Co42 2.004 . S
O46 C51 1.259 . S
Co47 O48 2.061 . S
Co47 O53 2.052 . S
Co47 O55 2.135 . S
O48 Co47 2.061 . S
O48 C51 1.235 . S
C49 O52 1.238 . S
C49 O53 1.241 . S
C50 O43 1.247 . S
C50 O44 1.261 . S
C51 O46 1.259 . S
C51 O48 1.235 . S
O52 Co42 2.021 . S
O52 C49 1.238 . S
O53 Co47 2.052 . S
O53 C49 1.241 . S
O54 Co42 2.137 . S
O54 C45 1.247 . S
O55 Co42 2.244 . S
O55 C45 1.272 . S
O55 Co47 2.135 . S
Co56 O57 2.216 . S
Co56 O58 2.091 . S
Co56 O60 2.004 . S
Co56 O66 2.021 . S
Co56 O68 2.137 . S
Co56 O69 2.244 . S
O57 Co56 2.216 . S
O57 C64 1.247 . S
O58 Co56 2.091 . S
O58 C64 1.261 . S
C59 O68 1.247 . S
C59 O69 1.272 . S
O60 Co56 2.004 . S
O60 C65 1.259 . S
Co61 O62 2.061 . S
Co61 O67 2.052 . S
Co61 O69 2.135 . S
O62 Co61 2.061 . S
O62 C65 1.235 . S
C63 O66 1.238 . S
C63 O67 1.241 . S
C64 O57 1.247 . S
C64 O58 1.261 . S
C65 O60 1.259 . S
C65 O62 1.235 . S
O66 Co56 2.021 . S
O66 C63 1.238 . S
O67 Co61 2.052 . S
O67 C63 1.241 . S
O68 Co56 2.137 . S
O68 C59 1.247 . S
O69 Co56 2.244 . S
O69 C59 1.272 . S
O69 Co61 2.135 . S
Co70 O71 2.216 . S
Co70 O72 2.091 . S
Co70 O74 2.004 . S
Co70 O80 2.021 . S
Co70 O82 2.137 . S
Co70 O83 2.244 . S
O71 Co70 2.216 . S
O71 C78 1.247 . S
O72 Co70 2.091 . S
O72 C78 1.261 . S
C73 O82 1.247 . S
C73 O83 1.272 . S
O74 Co70 2.004 . S
O74 C79 1.259 . S
Co75 O76 2.061 . S
Co75 O81 2.052 . S
Co75 O83 2.135 . S
O76 Co75 2.061 . S
O76 C79 1.235 . S
C77 O80 1.238 . S
C77 O81 1.241 . S
C78 O71 1.247 . S
C78 O72 1.261 . S
C79 O74 1.259 . S
C79 O76 1.235 . S
O80 Co70 2.021 . S
O80 C77 1.238 . S
O81 Co75 2.052 . S
O81 C77 1.241 . S
O82 Co70 2.137 . S
O82 C73 1.247 . S
O83 Co70 2.244 . S
O83 C73 1.272 . S
O83 Co75 2.135 . S
Co84 O85 2.216 . S
Co84 O86 2.091 . S
Co84 O88 2.004 . S
Co84 O94 2.021 . S
Co84 O96 2.137 . S
Co84 O97 2.244 . S
O85 Co84 2.216 . S
O85 C92 1.247 . S
O86 Co84 2.091 . S
O86 C92 1.261 . S
C87 O96 1.247 . S
C87 O97 1.272 . S
O88 Co84 2.004 . S
O88 C93 1.259 . S
Co89 O90 2.061 . S
Co89 O95 2.052 . S
Co89 O97 2.135 . S
O90 Co89 2.061 . S
O90 C93 1.235 . S
C91 O94 1.238 . S
C91 O95 1.241 . S
C92 O85 1.247 . S
C92 O86 1.261 . S
C93 O88 1.259 . S
C93 O90 1.235 . S
O94 Co84 2.021 . S
O94 C91 1.238 . S
O95 Co89 2.052 . S
O95 C91 1.241 . S
O96 Co84 2.137 . S
O96 C87 1.247 . S
O97 Co84 2.244 . S
O97 C87 1.272 . S
O97 Co89 2.135 . S
Co98 O99 2.216 . S
Co98 O100 2.091 . S
Co98 O102 2.004 . S
Co98 O108 2.021 . S
Co98 O110 2.137 . S
Co98 O111 2.244 . S
O99 Co98 2.216 . S
O99 C106 1.247 . S
O100 Co98 2.091 . S
O100 C106 1.261 . S
C101 O110 1.247 . S
C101 O111 1.272 . S
O102 Co98 2.004 . S
O102 C107 1.259 . S
Co103 O104 2.061 . S
Co103 O109 2.052 . S
Co103 O111 2.135 . S
O104 Co103 2.061 . S
O104 C107 1.235 . S
C105 O108 1.238 . S
C105 O109 1.241 . S
C106 O99 1.247 . S
C106 O100 1.261 . S
C107 O102 1.259 . S
C107 O104 1.235 . S
O108 Co98 2.021 . S
O108 C105 1.238 . S
O109 Co103 2.052 . S
O109 C105 1.241 . S
O110 Co98 2.137 . S
O110 C101 1.247 . S
O111 Co98 2.244 . S
O111 C101 1.272 . S
O111 Co103 2.135 . S
Co112 O113 2.216 . S
Co112 O114 2.091 . S
Co112 O116 2.004 . S
Co112 O122 2.021 . S
Co112 O124 2.137 . S
Co112 O125 2.244 . S
O113 Co112 2.216 . S
O113 C120 1.247 . S
O114 Co112 2.091 . S
O114 C120 1.261 . S
C115 O124 1.247 . S
C115 O125 1.272 . S
O116 Co112 2.004 . S
O116 C121 1.259 . S
Co117 O118 2.061 . S
Co117 O123 2.052 . S
Co117 O125 2.135 . S
O118 Co117 2.061 . S
O118 C121 1.235 . S
C119 O122 1.238 . S
C119 O123 1.241 . S
C120 O113 1.247 . S
C120 O114 1.261 . S
C121 O116 1.259 . S
C121 O118 1.235 . S
O122 Co112 2.021 . S
O122 C119 1.238 . S
O123 Co117 2.052 . S
O123 C119 1.241 . S
O124 Co112 2.137 . S
O124 C115 1.247 . S
O125 Co112 2.244 . S
O125 C115 1.272 . S
O125 Co117 2.135 . S
Co126 O127 2.216 . S
Co126 O128 2.091 . S
Co126 O130 2.004 . S
Co126 O136 2.021 . S
Co126 O138 2.137 . S
Co126 O139 2.244 . S
O127 Co126 2.216 . S
O127 C134 1.247 . S
O128 Co126 2.091 . S
O128 C134 1.261 . S
C129 O138 1.247 . S
C129 O139 1.272 . S
O130 Co126 2.004 . S
O130 C135 1.259 . S
Co131 O132 2.061 . S
Co131 O137 2.052 . S
Co131 O139 2.135 . S
O132 Co131 2.061 . S
O132 C135 1.235 . S
C133 O136 1.238 . S
C133 O137 1.241 . S
C134 O127 1.247 . S
C134 O128 1.261 . S
C135 O130 1.259 . S
C135 O132 1.235 . S
O136 Co126 2.021 . S
O136 C133 1.238 . S
O137 Co131 2.052 . S
O137 C133 1.241 . S
O138 Co126 2.137 . S
O138 C129 1.247 . S
O139 Co126 2.244 . S
O139 C129 1.272 . S
O139 Co131 2.135 . S
Co140 O141 2.216 . S
Co140 O142 2.091 . S
Co140 O144 2.004 . S
Co140 O150 2.021 . S
Co140 O152 2.137 . S
Co140 O153 2.244 . S
O141 Co140 2.216 . S
O141 C148 1.247 . S
O142 Co140 2.091 . S
O142 C148 1.261 . S
C143 O152 1.247 . S
C143 O153 1.272 . S
O144 Co140 2.004 . S
O144 C149 1.259 . S
Co145 O146 2.061 . S
Co145 O151 2.052 . S
Co145 O153 2.135 . S
O146 Co145 2.061 . S
O146 C149 1.235 . S
C147 O150 1.238 . S
C147 O151 1.241 . S
C148 O141 1.247 . S
C148 O142 1.261 . S
C149 O144 1.259 . S
C149 O146 1.235 . S
O150 Co140 2.021 . S
O150 C147 1.238 . S
O151 Co145 2.052 . S
O151 C147 1.241 . S
O152 Co140 2.137 . S
O152 C143 1.247 . S
O153 Co140 2.244 . S
O153 C143 1.272 . S
O153 Co145 2.135 . S
Co154 O155 2.216 . S
Co154 O156 2.091 . S
Co154 O158 2.004 . S
Co154 O164 2.021 . S
Co154 O166 2.137 . S
Co154 O167 2.244 . S
O155 Co154 2.216 . S
O155 C162 1.247 . S
O156 Co154 2.091 . S
O156 C162 1.261 . S
C157 O166 1.247 . S
C157 O167 1.272 . S
O158 Co154 2.004 . S
O158 C163 1.259 . S
Co159 O160 2.061 . S
Co159 O165 2.052 . S
Co159 O167 2.135 . S
O160 Co159 2.061 . S
O160 C163 1.235 . S
C161 O164 1.238 . S
C161 O165 1.241 . S
C162 O155 1.247 . S
C162 O156 1.261 . S
C163 O158 1.259 . S
C163 O160 1.235 . S
O164 Co154 2.021 . S
O164 C161 1.238 . S
O165 Co159 2.052 . S
O165 C161 1.241 . S
O166 Co154 2.137 . S
O166 C157 1.247 . S
O167 Co154 2.244 . S
O167 C157 1.272 . S
O167 Co159 2.135 . S
Co168 O169 2.216 . S
Co168 O170 2.091 . S
Co168 O172 2.004 . S
Co168 O178 2.021 . S
Co168 O180 2.137 . S
Co168 O181 2.244 . S
O169 Co168 2.216 . S
O169 C176 1.247 . S
O170 Co168 2.091 . S
O170 C176 1.261 . S
C171 O180 1.247 . S
C171 O181 1.272 . S
O172 Co168 2.004 . S
O172 C177 1.259 . S
Co173 O174 2.061 . S
Co173 O179 2.052 . S
Co173 O181 2.135 . S
O174 Co173 2.061 . S
O174 C177 1.235 . S
C175 O178 1.238 . S
C175 O179 1.241 . S
C176 O169 1.247 . S
C176 O170 1.261 . S
C177 O172 1.259 . S
C177 O174 1.235 . S
O178 Co168 2.021 . S
O178 C175 1.238 . S
O179 Co173 2.052 . S
O179 C175 1.241 . S
O180 Co168 2.137 . S
O180 C171 1.247 . S
O181 Co168 2.244 . S
O181 C171 1.272 . S
O181 Co173 2.135 . S
Co182 O183 2.216 . S
Co182 O184 2.091 . S
Co182 O186 2.004 . S
Co182 O192 2.021 . S
Co182 O194 2.137 . S
Co182 O195 2.244 . S
O183 Co182 2.216 . S
O183 C190 1.247 . S
O184 Co182 2.091 . S
O184 C190 1.261 . S
C185 O194 1.247 . S
C185 O195 1.272 . S
O186 Co182 2.004 . S
O186 C191 1.259 . S
Co187 O188 2.061 . S
Co187 O193 2.052 . S
Co187 O195 2.135 . S
O188 Co187 2.061 . S
O188 C191 1.235 . S
C189 O192 1.238 . S
C189 O193 1.241 . S
C190 O183 1.247 . S
C190 O184 1.261 . S
C191 O186 1.259 . S
C191 O188 1.235 . S
O192 Co182 2.021 . S
O192 C189 1.238 . S
O193 Co187 2.052 . S
O193 C189 1.241 . S
O194 Co182 2.137 . S
O194 C185 1.247 . S
O195 Co182 2.244 . S
O195 C185 1.272 . S
O195 Co187 2.135 . S
Co196 O197 2.216 . S
Co196 O198 2.091 . S
Co196 O200 2.004 . S
Co196 O206 2.021 . S
Co196 O208 2.137 . S
Co196 O209 2.244 . S
O197 Co196 2.216 . S
O197 C204 1.247 . S
O198 Co196 2.091 . S
O198 C204 1.261 . S
C199 O208 1.247 . S
C199 O209 1.272 . S
O200 Co196 2.004 . S
O200 C205 1.259 . S
Co201 O202 2.061 . S
Co201 O207 2.052 . S
Co201 O209 2.135 . S
O202 Co201 2.061 . S
O202 C205 1.235 . S
C203 O206 1.238 . S
C203 O207 1.241 . S
C204 O197 1.247 . S
C204 O198 1.261 . S
C205 O200 1.259 . S
C205 O202 1.235 . S
O206 Co196 2.021 . S
O206 C203 1.238 . S
O207 Co201 2.052 . S
O207 C203 1.241 . S
O208 Co196 2.137 . S
O208 C199 1.247 . S
O209 Co196 2.244 . S
O209 C199 1.272 . S
O209 Co201 2.135 . S
Co210 O211 2.216 . S
Co210 O212 2.091 . S
Co210 O214 2.004 . S
Co210 O220 2.021 . S
Co210 O222 2.137 . S
Co210 O223 2.244 . S
O211 Co210 2.216 . S
O211 C218 1.247 . S
O212 Co210 2.091 . S
O212 C218 1.261 . S
C213 O222 1.247 . S
C213 O223 1.272 . S
O214 Co210 2.004 . S
O214 C219 1.259 . S
Co215 O216 2.061 . S
Co215 O221 2.052 . S
Co215 O223 2.135 . S
O216 Co215 2.061 . S
O216 C219 1.235 . S
C217 O220 1.238 . S
C217 O221 1.241 . S
C218 O211 1.247 . S
C218 O212 1.261 . S
C219 O214 1.259 . S
C219 O216 1.235 . S
O220 Co210 2.021 . S
O220 C217 1.238 . S
O221 Co215 2.052 . S
O221 C217 1.241 . S
O222 Co210 2.137 . S
O222 C213 1.247 . S
O223 Co210 2.244 . S
O223 C213 1.272 . S
O223 Co215 2.135 . S
Co224 O225 2.216 . S
Co224 O226 2.091 . S
Co224 O228 2.004 . S
Co224 O234 2.021 . S
Co224 O236 2.137 . S
Co224 O237 2.244 . S
O225 Co224 2.216 . S
O225 C232 1.247 . S
O226 Co224 2.091 . S
O226 C232 1.261 . S
C227 O236 1.247 . S
C227 O237 1.272 . S
O228 Co224 2.004 . S
O228 C233 1.259 . S
Co229 O230 2.061 . S
Co229 O235 2.052 . S
Co229 O237 2.135 . S
O230 Co229 2.061 . S
O230 C233 1.235 . S
C231 O234 1.238 . S
C231 O235 1.241 . S
C232 O225 1.247 . S
C232 O226 1.261 . S
C233 O228 1.259 . S
C233 O230 1.235 . S
O234 Co224 2.021 . S
O234 C231 1.238 . S
O235 Co229 2.052 . S
O235 C231 1.241 . S
O236 Co224 2.137 . S
O236 C227 1.247 . S
O237 Co224 2.244 . S
O237 C227 1.272 . S
O237 Co229 2.135 . S
Co238 O239 2.216 . S
Co238 O240 2.091 . S
Co238 O242 2.004 . S
Co238 O248 2.021 . S
Co238 O250 2.137 . S
Co238 O251 2.244 . S
O239 Co238 2.216 . S
O239 C246 1.247 . S
O240 Co238 2.091 . S
O240 C246 1.261 . S
C241 O250 1.247 . S
C241 O251 1.272 . S
O242 Co238 2.004 . S
O242 C247 1.259 . S
Co243 O244 2.061 . S
Co243 O249 2.052 . S
Co243 O251 2.135 . S
O244 Co243 2.061 . S
O244 C247 1.235 . S
C245 O248 1.238 . S
C245 O249 1.241 . S
C246 O239 1.247 . S
C246 O240 1.261 . S
C247 O242 1.259 . S
C247 O244 1.235 . S
O248 Co238 2.021 . S
O248 C245 1.238 . S
O249 Co243 2.052 . S
O249 C245 1.241 . S
O250 Co238 2.137 . S
O250 C241 1.247 . S
O251 Co238 2.244 . S
O251 C241 1.272 . S
O251 Co243 2.135 . S
Co252 O253 2.216 . S
Co252 O254 2.091 . S
Co252 O256 2.004 . S
Co252 O262 2.021 . S
Co252 O264 2.137 . S
Co252 O265 2.244 . S
O253 Co252 2.216 . S
O253 C260 1.247 . S
O254 Co252 2.091 . S
O254 C260 1.261 . S
C255 O264 1.247 . S
C255 O265 1.272 . S
O256 Co252 2.004 . S
O256 C261 1.259 . S
Co257 O258 2.061 . S
Co257 O263 2.052 . S
Co257 O265 2.135 . S
O258 Co257 2.061 . S
O258 C261 1.235 . S
C259 O262 1.238 . S
C259 O263 1.241 . S
C260 O253 1.247 . S
C260 O254 1.261 . S
C261 O256 1.259 . S
C261 O258 1.235 . S
O262 Co252 2.021 . S
O262 C259 1.238 . S
O263 Co257 2.052 . S
O263 C259 1.241 . S
O264 Co252 2.137 . S
O264 C255 1.247 . S
O265 Co252 2.244 . S
O265 C255 1.272 . S
O265 Co257 2.135 . S
Co266 O267 2.216 . S
Co266 O268 2.091 . S
Co266 O270 2.004 . S
Co266 O276 2.021 . S
Co266 O278 2.137 . S
Co266 O279 2.244 . S
O267 Co266 2.216 . S
O267 C274 1.247 . S
O268 Co266 2.091 . S
O268 C274 1.261 . S
C269 O278 1.247 . S
C269 O279 1.272 . S
O270 Co266 2.004 . S
O270 C275 1.259 . S
Co271 O272 2.061 . S
Co271 O277 2.052 . S
Co271 O279 2.135 . S
O272 Co271 2.061 . S
O272 C275 1.235 . S
C273 O276 1.238 . S
C273 O277 1.241 . S
C274 O267 1.247 . S
C274 O268 1.261 . S
C275 O270 1.259 . S
C275 O272 1.235 . S
O276 Co266 2.021 . S
O276 C273 1.238 . S
O277 Co271 2.052 . S
O277 C273 1.241 . S
O278 Co266 2.137 . S
O278 C269 1.247 . S
O279 Co266 2.244 . S
O279 C269 1.272 . S
O279 Co271 2.135 . S
Co280 O281 2.216 . S
Co280 O282 2.091 . S
Co280 O284 2.004 . S
Co280 O290 2.021 . S
Co280 O292 2.137 . S
Co280 O293 2.244 . S
O281 Co280 2.216 . S
O281 C288 1.247 . S
O282 Co280 2.091 . S
O282 C288 1.261 . S
C283 O292 1.247 . S
C283 O293 1.272 . S
O284 Co280 2.004 . S
O284 C289 1.259 . S
Co285 O286 2.061 . S
Co285 O291 2.052 . S
Co285 O293 2.135 . S
O286 Co285 2.061 . S
O286 C289 1.235 . S
C287 O290 1.238 . S
C287 O291 1.241 . S
C288 O281 1.247 . S
C288 O282 1.261 . S
C289 O284 1.259 . S
C289 O286 1.235 . S
O290 Co280 2.021 . S
O290 C287 1.238 . S
O291 Co285 2.052 . S
O291 C287 1.241 . S
O292 Co280 2.137 . S
O292 C283 1.247 . S
O293 Co280 2.244 . S
O293 C283 1.272 . S
O293 Co285 2.135 . S
Co294 O295 2.216 . S
Co294 O296 2.091 . S
Co294 O298 2.004 . S
Co294 O304 2.021 . S
Co294 O306 2.137 . S
Co294 O307 2.244 . S
O295 Co294 2.216 . S
O295 C302 1.247 . S
O296 Co294 2.091 . S
O296 C302 1.261 . S
C297 O306 1.247 . S
C297 O307 1.272 . S
O298 Co294 2.004 . S
O298 C303 1.259 . S
Co299 O300 2.061 . S
Co299 O305 2.052 . S
Co299 O307 2.135 . S
O300 Co299 2.061 . S
O300 C303 1.235 . S
C301 O304 1.238 . S
C301 O305 1.241 . S
C302 O295 1.247 . S
C302 O296 1.261 . S
C303 O298 1.259 . S
C303 O300 1.235 . S
O304 Co294 2.021 . S
O304 C301 1.238 . S
O305 Co299 2.052 . S
O305 C301 1.241 . S
O306 Co294 2.137 . S
O306 C297 1.247 . S
O307 Co294 2.244 . S
O307 C297 1.272 . S
O307 Co299 2.135 . S
Co308 O309 2.216 . S
Co308 O310 2.091 . S
Co308 O312 2.004 . S
Co308 O318 2.021 . S
Co308 O320 2.137 . S
Co308 O321 2.244 . S
O309 Co308 2.216 . S
O309 C316 1.247 . S
O310 Co308 2.091 . S
O310 C316 1.261 . S
C311 O320 1.247 . S
C311 O321 1.272 . S
O312 Co308 2.004 . S
O312 C317 1.259 . S
Co313 O314 2.061 . S
Co313 O319 2.052 . S
Co313 O321 2.135 . S
O314 Co313 2.061 . S
O314 C317 1.235 . S
C315 O318 1.238 . S
C315 O319 1.241 . S
C316 O309 1.247 . S
C316 O310 1.261 . S
C317 O312 1.259 . S
C317 O314 1.235 . S
O318 Co308 2.021 . S
O318 C315 1.238 . S
O319 Co313 2.052 . S
O319 C315 1.241 . S
O320 Co308 2.137 . S
O320 C311 1.247 . S
O321 Co308 2.244 . S
O321 C311 1.272 . S
O321 Co313 2.135 . S
Co322 O323 2.216 . S
Co322 O324 2.091 . S
Co322 O326 2.004 . S
Co322 O332 2.021 . S
Co322 O334 2.137 . S
Co322 O335 2.244 . S
O323 Co322 2.216 . S
O323 C330 1.247 . S
O324 Co322 2.091 . S
O324 C330 1.261 . S
C325 O334 1.247 . S
C325 O335 1.272 . S
O326 Co322 2.004 . S
O326 C331 1.259 . S
Co327 O328 2.061 . S
Co327 O333 2.052 . S
Co327 O335 2.135 . S
O328 Co327 2.061 . S
O328 C331 1.235 . S
C329 O332 1.238 . S
C329 O333 1.241 . S
C330 O323 1.247 . S
C330 O324 1.261 . S
C331 O326 1.259 . S
C331 O328 1.235 . S
O332 Co322 2.021 . S
O332 C329 1.238 . S
O333 Co327 2.052 . S
O333 C329 1.241 . S
O334 Co322 2.137 . S
O334 C325 1.247 . S
O335 Co322 2.244 . S
O335 C325 1.272 . S
O335 Co327 2.135 . S
C161 C3 1.481 . S
C17 C119 1.481 . S
C31 C133 1.481 . S
C45 C147 1.481 . S
C189 C59 1.481 . S
C73 C203 1.481 . S
C217 C87 1.481 . S
C175 C101 1.481 . S
C77 C115 1.481 . S
C91 C129 1.481 . S
C143 C105 1.481 . S
C63 C157 1.481 . S
C49 C171 1.481 . S
C185 C7 1.481 . S
C199 C21 1.481 . S
C213 C35 1.481 . S
C227 C329 1.481 . S
C287 C241 1.481 . S
C255 C245 1.481 . S
C269 C259 1.481 . S
C273 C283 1.481 . S
C297 C315 1.481 . S
C231 C311 1.481 . S
C301 C325 1.481 . S
C9 C93 1.459 1_455 S
C23 C107 1.459 1_545 S
C37 C65 1.459 1_655 S
C79 C51 1.459 1_545 S
C149 C121 1.459 1_565 S
C135 C163 1.459 1_655 S
C177 C205 1.459 1_565 S
C219 C191 1.459 1_655 S
C247 C233 1.459 1_556 S
C261 C331 1.459 1_556 S
C275 C303 1.459 1_556 S
C289 C317 1.459 1_556 S
C8 C78 1.117 . S
C22 C92 1.117 . S
C36 C106 1.117 . S
C64 C50 1.117 . S
C120 C330 1.117 . S
C134 C302 1.117 . S
C316 C148 1.117 . S
C162 C232 1.117 . S
C288 C176 1.117 . S
C246 C190 1.117 . S
C204 C260 1.117 . S
C274 C218 1.117 . S
