# Generated by pormake.
# Topology sma, (6)-cn, num edge types: 1
# Building blocks:
#     Node 0, Type 0, BuildingBlock: PAMTUU_clean_sbu_0, # of connection points: 6
#     Node 1, Type 0, BuildingBlock: PAMTUU_clean_sbu_0, # of connection points: 6
#     Node 2, Type 0, BuildingBlock: PAMTUU_clean_sbu_0, # of connection points: 6
#     Edge 3, Type (0, 0), BuildingBlock: CIFDUS_clean_linker_0, # of connection points: 2
#     Edge 4, Type (0, 0), BuildingBlock: CIFDUS_clean_linker_0, # of connection points: 2
#     Edge 5, Type (0, 0), BuildingBlock: CIFDUS_clean_linker_0, # of connection points: 2
#     Edge 6, Type (0, 0), BuildingBlock: CIFDUS_clean_linker_0, # of connection points: 2
#     Edge 7, Type (0, 0), BuildingBlock: CIFDUS_clean_linker_0, # of connection points: 2
#     Edge 8, Type (0, 0), BuildingBlock: CIFDUS_clean_linker_0, # of connection points: 2
#     Edge 9, Type (0, 0), BuildingBlock: CIFDUS_clean_linker_0, # of connection points: 2
#     Edge 10, Type (0, 0), BuildingBlock: CIFDUS_clean_linker_0, # of connection points: 2
#     Edge 11, Type (0, 0), BuildingBlock: CIFDUS_clean_linker_0, # of connection points: 2
# Relax obj value: 0.058
# Max RMSD: 0.170
# Mean RMSD: 0.165
data_MOF--net-sma--node1-PAMTUU_clean_sbu_0--edge1-CIFDUS_clean_linker_0
_symmetry_space_group_name_H-M    P1
_symmetry_Int_Tables_number       1
_symmetry_cell_setting            triclinic
loop_
_symmetry_equiv_pos_as_xyz
'x, y, z'
_cell_length_a     36.061935
_cell_length_b     35.846178
_cell_length_c     12.910914
_cell_angle_alpha  97.608635
_cell_angle_beta   89.566788
_cell_angle_gamma 120.21528
loop_
_atom_site_label
_atom_site_type_symbol
_atom_site_fract_x
_atom_site_fract_y
_atom_site_fract_z
_atom_type_partial_charge
Tb0 Tb 1.03748 0.55639 0.16817 0.0
Tb1 Tb 0.11016 0.52306 0.15674 0.0
C2 C 0.06166 0.52149 -0.0395 0.0
C3 C 0.95037 0.58367 0.10829 0.0
C4 C 0.88071 0.58772 0.02279 0.0
C5 C 0.92154 0.62543 0.04381 0.0
C6 C 0.9559 0.6234 0.08617 0.0
C7 C 0.91006 0.54551 0.08339 0.0
C8 C 0.87558 0.54751 0.04061 0.0
C9 C 0.9856 0.58445 0.16825 0.0
O10 O 1.00162 0.48496 0.15151 0.0
O11 O 0.05339 0.47199 0.21471 0.0
O12 O 0.1079 0.54189 0.32103 0.0
O13 O 0.05337 0.5588 0.32844 0.0
O14 O 0.13121 0.48073 0.08862 0.0
O15 O 0.17025 0.53464 0.20982 0.0
O16 O 0.13922 0.5882 0.11516 0.0
O17 O 0.10115 0.61191 0.21767 0.0
O18 O 0.05447 0.55123 0.01008 0.0
O19 O 0.07291 0.49873 0.00925 0.0
C20 C 1.01302 0.45978 0.19134 0.0
O21 O 0.97785 0.54957 0.20699 0.0
O22 O 1.02378 0.60396 0.13294 0.0
C23 C 0.0829 0.5537 0.37168 0.0
C24 C 0.20731 0.5151 0.08092 0.0
C25 C 0.28397 0.53243 -0.01597 0.0
C26 C 0.28223 0.56541 0.05246 0.0
C27 C 0.24436 0.55687 0.10031 0.0
C28 C 0.20852 0.48266 0.00959 0.0
C29 C 0.24629 0.49127 -0.03878 0.0
C30 C 0.16869 0.50386 0.14053 0.0
C31 C 0.13642 0.61977 0.17156 0.0
H32 H 0.92674 0.65677 0.02959 0.0
H33 H 0.98656 0.65334 0.1052 0.0
H34 H 0.90472 0.51442 0.10017 0.0
H35 H 0.84445 0.51792 0.02594 0.0
H36 H 0.31064 0.59734 0.07275 0.0
H37 H 0.24464 0.5827 0.15501 0.0
H38 H 0.1805 0.4502 -0.00678 0.0
H39 H 0.24616 0.46532 0.90742 0.0
Tb40 Tb 0.55169 1.0105 0.46368 0.0
Tb41 Tb 0.65844 0.07728 0.5006 0.0
C42 C 0.61128 0.03491 0.28422 0.0
C43 C 0.43634 0.91814 0.39625 0.0
C44 C 0.36529 0.83583 0.3159 0.0
C45 C 0.40233 0.85507 0.25941 0.0
C46 C 0.43761 0.89597 0.29922 0.0
C47 C 0.39999 0.89844 0.45379 0.0
C48 C 0.36491 0.85772 0.41433 0.0
C49 C 0.47086 0.96275 0.43728 0.0
O50 O 0.57536 0.96835 0.49937 0.0
O51 O 0.64887 1.01162 0.48591 0.0
O52 O 0.63573 0.05172 0.64391 0.0
O53 O 0.56827 0.04229 0.62445 0.0
O54 O 0.71884 0.09528 0.44326 0.0
O55 O 0.71286 0.13142 0.58385 0.0
O56 O 0.63041 0.11839 0.53511 0.0
O57 O 0.56518 0.07505 0.44113 0.0
O58 O 0.58023 1.0018 0.32203 0.0
O59 O 0.63625 0.07218 0.343 0.0
C60 C 0.61445 0.97414 0.49805 0.0
O61 O 0.49307 0.96749 0.52219 0.0
O62 O 0.49493 0.98729 0.37006 0.0
C63 C 0.59972 0.04559 0.68253 0.0
C64 C 0.7663 0.17115 0.47229 0.0
C65 C 0.82091 0.24846 0.38897 0.0
C66 C 0.83742 0.23325 0.46098 0.0
C67 C 0.81037 0.19494 0.50202 0.0
C68 C 0.74939 0.18635 0.40179 0.0
C69 C 0.77646 0.22469 0.36049 0.0
C70 C 0.7385 0.13014 0.51342 0.0
C71 C 0.59487 0.11289 0.49162 0.0
H72 H 0.40359 0.83909 0.18327 0.0
H73 H 0.4654 0.91056 0.25337 0.0
H74 H 0.39842 0.91496 0.52889 0.0
H75 H 0.33733 0.84345 0.46093 0.0
H76 H 0.87131 0.25112 0.48624 0.0
H77 H 0.82392 0.18377 0.55668 0.0
H78 H 0.71534 0.16829 0.37792 0.0
H79 H 0.7627 0.23523 0.30474 0.0
Tb80 Tb 0.56139 0.49833 0.76959 0.0
Tb81 Tb 0.60116 0.60511 0.83716 0.0
C82 C 0.57126 0.55868 0.612 0.0
C83 C 0.54933 0.38791 0.68354 0.0
C84 C 0.57561 0.32572 0.64205 0.0
C85 C 0.55437 0.3329 0.56293 0.0
C86 C 0.54122 0.36348 0.58369 0.0
C87 C 0.57156 0.38184 0.76242 0.0
C88 C 0.58454 0.35091 0.74181 0.0
C89 C 0.53353 0.41876 0.7021 0.0
O90 O 0.6301 0.5314 0.74993 0.0
O91 O 0.65221 0.59211 0.8731 0.0
O92 O 0.58428 0.57667 -0.02174 0.0
O93 O 0.58322 0.51152 0.93277 0.0
O94 O 0.65047 0.66852 0.82156 0.0
O95 O 0.5976 0.65818 0.91635 0.0
O96 O 0.53177 0.57616 0.80549 0.0
O97 O 0.5092 0.50571 0.83234 0.0
O98 O 0.54383 0.52287 0.64688 0.0
O99 O 0.60308 0.59095 0.67181 0.0
C100 C 0.65981 0.56362 0.81651 0.0
O101 O 0.53135 0.43336 0.7987 0.0
O102 O 0.5483 0.44939 0.64314 0.0
C103 C 0.58367 0.54196 0.0025 0.0
C104 C 0.62469 0.71692 0.82021 0.0
C105 C 0.61282 0.77545 0.71839 0.0
C106 C 0.64652 0.79108 0.7961 0.0
C107 C 0.65233 0.76202 0.84666 0.0
C108 C 0.59138 0.70106 0.74178 0.0
C109 C 0.58538 0.73008 0.69158 0.0
C110 C 0.63103 0.68658 0.87357 0.0
C111 C 0.50172 0.53778 0.82725 0.0
H112 H 0.54776 0.31477 0.48471 0.0
H113 H 0.52436 0.36787 0.52156 0.0
H114 H 0.57844 0.4005 0.84006 0.0
H115 H 0.60058 0.34596 0.80466 0.0
H116 H 0.66787 0.82582 0.81935 0.0
H117 H 0.67829 0.77477 0.90679 0.0
H118 H 0.56997 0.66624 0.71963 0.0
H119 H 0.55945 0.71703 0.63131 0.0
H120 H 0.31368 0.47587 -0.03736 0.0
H121 H 0.34846 0.60617 0.91502 0.0
H122 H 0.41862 0.61939 0.85986 0.0
H123 H 0.47109 0.59437 0.83032 0.0
H124 H 0.43379 0.46297 0.87603 0.0
H125 H 0.36356 0.44977 0.92441 0.0
C126 C 0.33613 0.50692 -0.06182 0.0
C127 C 0.32558 0.53988 -0.05703 0.0
C128 C 0.37621 0.51422 0.90618 0.0
C129 C 0.35578 0.58028 0.91332 0.0
C130 C 0.3959 0.58783 0.8813 0.0
C131 C 0.44749 0.56276 0.85006 0.0
C132 C 0.45808 0.52988 0.84964 0.0
C133 C 0.40667 0.55514 0.87837 0.0
C134 C 0.42691 0.48908 0.87559 0.0
C135 C 0.38654 0.48138 0.90356 0.0
H136 H 0.90069 0.27319 0.32287 0.0
H137 H 0.80689 0.31431 0.35217 0.0
H138 H 0.8565 0.38177 0.28476 0.0
H139 H 0.92864 0.43134 0.22773 0.0
H140 H 1.02276 0.39041 0.20733 0.0
H141 H 0.9711 0.32099 0.26147 0.0
C142 C 0.89113 0.297 0.31528 0.0
C143 C 0.85022 0.28875 0.34362 0.0
C144 C 0.92 0.33595 0.27812 0.0
C145 C 0.83806 0.31959 0.3305 0.0
C146 C 0.86653 0.35834 0.29245 0.0
C147 C 0.93759 0.40697 0.23385 0.0
C148 C 0.9796 0.41621 0.21387 0.0
C149 C 0.90783 0.36714 0.26714 0.0
C150 C 0.99079 0.38437 0.223 0.0
C151 C 0.96126 0.34459 0.25402 0.0
H152 H 0.55318 0.89421 0.54143 0.0
H153 H 0.68979 0.97314 0.51095 0.0
H154 H 0.70103 0.91786 0.57229 0.0
H155 H 0.67275 0.84917 0.6451 0.0
H156 H 0.53647 0.77123 0.6786 0.0
H157 H 0.52452 0.82391 0.60476 0.0
C158 C 0.58542 0.89925 0.54692 0.0
C159 C 0.62057 0.9381 0.52206 0.0
C160 C 0.59181 0.86756 0.58352 0.0
C161 C 0.66205 0.94373 0.52966 0.0
C162 C 0.66859 0.91216 0.5652 0.0
C163 C 0.64045 0.84377 0.63627 0.0
C164 C 0.6056 0.80643 0.66789 0.0
C165 C 0.63383 0.87436 0.59432 0.0
C166 C 0.56383 0.7995 0.65421 0.0
C167 C 0.55699 0.82974 0.61247 0.0
H168 H 0.72837 0.62293 -0.04873 0.0
H169 H 0.68405 0.50673 0.72395 0.0
H170 H 0.74866 0.5045 0.76532 0.0
H171 H 0.81656 0.53359 0.87161 0.0
H172 H 0.8603 0.64924 0.09991 0.0
H173 H 0.79754 0.65374 0.05185 0.0
C174 C 0.73296 0.59733 0.90999 0.0
C175 C 0.70115 0.56502 0.83484 0.0
C176 C 0.77018 0.59599 0.93456 0.0
C177 C 0.70786 0.53212 0.78221 0.0
C178 C 0.74482 0.53067 0.80604 0.0
C179 C 0.8123 0.55973 0.91083 0.0
C180 C 0.84315 0.591 -0.01078 0.0
C181 C 0.77592 0.56207 0.88312 0.0
C182 C 0.83738 0.62501 0.03838 0.0
C183 C 0.80133 0.62749 0.0114 0.0
H184 H 0.28168 0.81441 0.32127 0.0
H185 H 0.36221 0.76222 0.2125 0.0
H186 H 0.29829 0.69155 0.15023 0.0
H187 H 0.21957 0.64347 0.13698 0.0
H188 H 0.13965 0.69547 0.25373 0.0
H189 H 0.2034 0.76731 0.30311 0.0
C190 C 0.28531 0.78753 0.28446 0.0
C191 C 0.3267 0.79352 0.27259 0.0
C192 C 0.24852 0.74693 0.25046 0.0
C193 C 0.33076 0.75861 0.22223 0.0
C194 C 0.29422 0.71812 0.18712 0.0
C195 C 0.21604 0.67063 0.17206 0.0
C196 C 0.17485 0.66405 0.19186 0.0
C197 C 0.25293 0.71176 0.20204 0.0
C198 C 0.17094 0.69956 0.23804 0.0
C199 C 0.20739 0.74067 0.26643 0.0
H200 H 0.52712 0.245 0.53012 0.0
H201 H 0.64921 0.32814 0.70705 0.0
H202 H 0.6666 0.27007 0.67358 0.0
H203 H 0.64648 0.19531 0.59592 0.0
H204 H 0.52452 0.11329 0.4167 0.0
H205 H 0.50836 0.17192 0.44717 0.0
C206 C 0.55786 0.25077 0.56013 0.0
C207 C 0.58683 0.29094 0.62085 0.0
C208 C 0.56777 0.21751 0.53985 0.0
C209 C 0.62608 0.29736 0.66109 0.0
C210 C 0.63616 0.26428 0.64141 0.0
C211 C 0.61647 0.19029 0.56291 0.0
C212 C 0.58675 0.14978 0.50436 0.0
C213 C 0.60715 0.22413 0.58121 0.0
C214 C 0.54805 0.14401 0.46218 0.0
C215 C 0.53866 0.17751 0.47974 0.0
H216 H 0.05826 0.57633 0.84473 0.0
H217 H 0.07322 0.46328 0.82501 0.0
H218 H 0.08607 0.46646 0.63933 0.0
H219 H 0.09202 0.50121 0.48409 0.0
H220 H 0.07591 0.61338 0.50698 0.0
H221 H 0.06598 0.61172 0.69384 0.0
C222 C 0.06402 0.55209 0.80011 0.0
C223 C 0.06468 0.51955 0.84774 0.0
C224 C 0.07213 0.55464 0.69562 0.0
C225 C 0.07242 0.48855 0.78915 0.0
C226 C 0.08009 0.49055 0.6837 0.0
C227 C 0.08731 0.52576 0.53105 0.0
C228 C 0.08484 0.55749 0.48423 0.0
C229 C 0.0803 0.52368 0.63666 0.0
C230 C 0.07791 0.58882 0.54337 0.0
C231 C 0.07193 0.58765 0.64919 0.0
H232 H 0.54699 1.00515 0.13671 0.0
H233 H 0.6843 0.06285 0.1854 0.0
H234 H 0.69271 0.0705 4e-05 0.0
H235 H 0.66153 0.06515 0.82928 0.0
H236 H 0.52467 1.01224 0.78086 0.0
H237 H 0.5154 0.99911 -0.03717 0.0
C238 C 0.57849 1.01849 0.10552 0.0
C239 C 0.61499 1.033 0.17221 0.0
C240 C 0.58316 1.02453 0.00059 0.0
C241 C 0.65595 0.0513 0.1336 0.0
C242 C 0.66073 0.05592 0.02848 0.0
C243 C 0.62964 0.05068 0.85835 0.0
C244 C 0.59388 0.0398 0.79252 0.0
C245 C 0.62466 0.04349 -0.03792 0.0
C246 C 0.55275 1.0213 0.831 0.0
C247 C 0.54738 1.01346 0.93446 0.0
H248 H 0.55149 0.49306 0.45592 0.0
H249 H 0.59094 0.62965 0.52363 0.0
H250 H 0.60005 0.63646 0.33832 0.0
H251 H 0.59985 0.6047 0.16224 0.0
H252 H 0.56152 0.46836 0.08985 0.0
H253 H 0.5504 0.46051 0.27504 0.0
C254 C 0.56125 0.52397 0.42917 0.0
C255 C 0.5703 0.56078 0.50118 0.0
C256 C 0.56768 0.52787 0.32371 0.0
C257 C 0.5838 0.60106 0.46793 0.0
C258 C 0.58926 0.60499 0.36284 0.0
C259 C 0.58893 0.5731 0.1864 0.0
C260 C 0.58119 0.53705 0.11306 0.0
C261 C 0.58197 0.56879 0.29084 0.0
C262 C 0.56783 0.49659 0.14569 0.0
C263 C 0.56108 0.49202 0.2509 0.0
loop_
_geom_bond_atom_site_label_1
_geom_bond_atom_site_label_2
_geom_bond_distance
_geom_bond_site_symmetry_2
_ccdc_geom_bond_type
Tb0 C9 2.733 1_455 S
Tb0 O10 2.323 1_455 S
Tb0 O13 2.321 . S
Tb0 O17 2.348 . S
Tb0 O18 2.357 1_554 S
Tb0 O21 2.389 1_455 S
Tb0 O22 2.369 1_455 S
Tb1 O11 2.322 1_455 S
Tb1 O12 2.349 . S
Tb1 O14 2.415 . S
Tb1 O15 2.399 . S
Tb1 O16 2.325 . S
Tb1 O19 2.303 . S
Tb1 C30 2.764 . S
C2 O18 1.261 . S
C2 O19 1.257 1_556 S
C3 C6 1.358 . S
C3 C7 1.332 . S
C3 C9 1.504 . S
C4 C5 1.373 . S
C4 C8 1.308 . S
C5 C4 1.373 . S
C5 C6 1.429 . S
C5 H32 0.932 . S
C6 C3 1.358 . S
C6 C5 1.429 . S
C6 H33 0.930 . S
C7 C3 1.332 . S
C7 C8 1.394 . S
C7 H34 0.932 . S
C8 C4 1.308 . S
C8 C7 1.394 . S
C8 H35 0.929 . S
C9 Tb0 2.733 1_655 S
C9 C3 1.504 . S
C9 O21 1.239 . S
C9 O22 1.263 . S
O10 Tb0 2.323 1_655 S
O10 C20 1.236 . S
O11 Tb1 2.322 1_655 S
O11 C20 1.257 . S
O12 Tb1 2.349 . S
O12 C23 1.261 . S
O13 Tb0 2.321 . S
O13 C23 1.257 . S
O14 Tb1 2.415 . S
O14 C30 1.239 . S
O15 Tb1 2.399 . S
O15 C30 1.263 . S
O16 Tb1 2.325 . S
O16 C31 1.236 . S
O17 Tb0 2.348 . S
O17 C31 1.257 . S
O18 Tb0 2.357 1_556 S
O18 C2 1.261 . S
O19 Tb1 2.303 . S
O19 C2 1.257 1_554 S
C20 O10 1.236 . S
C20 O11 1.257 . S
O21 Tb0 2.389 1_655 S
O21 C9 1.239 . S
O22 Tb0 2.369 1_655 S
O22 C9 1.263 . S
C23 O12 1.261 . S
C23 O13 1.257 . S
C24 C27 1.358 . S
C24 C28 1.332 . S
C24 C30 1.504 . S
C25 C26 1.373 . S
C25 C29 1.308 . S
C26 C25 1.373 . S
C26 C27 1.429 . S
C26 H36 0.932 . S
C27 C24 1.358 . S
C27 C26 1.429 . S
C27 H37 0.930 . S
C28 C24 1.332 . S
C28 C29 1.394 . S
C28 H38 0.932 1_554 S
C29 C25 1.308 . S
C29 C28 1.394 . S
C29 H39 0.929 1_554 S
C30 Tb1 2.764 . S
C30 O14 1.239 . S
C30 O15 1.263 . S
C30 C24 1.504 . S
C31 O16 1.236 . S
C31 O17 1.257 . S
H32 C5 0.932 . S
H33 C6 0.930 . S
H34 C7 0.932 . S
H35 C8 0.929 . S
H36 C26 0.932 . S
H37 C27 0.930 . S
H38 C28 0.932 1_556 S
H39 C29 0.929 1_556 S
Tb40 C49 2.764 . S
Tb40 O50 2.325 . S
Tb40 O53 2.303 1_565 S
Tb40 O57 2.322 1_565 S
Tb40 O58 2.349 . S
Tb40 O61 2.415 . S
Tb40 O62 2.399 . S
Tb41 O51 2.322 1_545 S
Tb41 O52 2.349 . S
Tb41 O54 2.415 . S
Tb41 O55 2.399 . S
Tb41 O56 2.325 . S
Tb41 O59 2.303 . S
Tb41 C70 2.764 . S
C42 O58 1.261 1_545 S
C42 O59 1.257 . S
C43 C46 1.358 . S
C43 C47 1.332 . S
C43 C49 1.504 . S
C44 C45 1.373 . S
C44 C48 1.308 . S
C45 C44 1.373 . S
C45 C46 1.429 . S
C45 H72 0.932 . S
C46 C43 1.358 . S
C46 C45 1.429 . S
C46 H73 0.930 . S
C47 C43 1.332 . S
C47 C48 1.394 . S
C47 H74 0.932 . S
C48 C44 1.308 . S
C48 C47 1.394 . S
C48 H75 0.929 . S
C49 Tb40 2.764 . S
C49 C43 1.504 . S
C49 O61 1.239 . S
C49 O62 1.263 . S
O50 Tb40 2.325 . S
O50 C60 1.236 . S
O51 Tb41 2.322 1_565 S
O51 C60 1.257 . S
O52 Tb41 2.349 . S
O52 C63 1.261 . S
O53 Tb40 2.303 1_545 S
O53 C63 1.257 . S
O54 Tb41 2.415 . S
O54 C70 1.239 . S
O55 Tb41 2.399 . S
O55 C70 1.263 . S
O56 Tb41 2.325 . S
O56 C71 1.236 . S
O57 Tb40 2.322 1_545 S
O57 C71 1.257 . S
O58 Tb40 2.349 . S
O58 C42 1.261 1_565 S
O59 Tb41 2.303 . S
O59 C42 1.257 . S
C60 O50 1.236 . S
C60 O51 1.257 . S
O61 Tb40 2.415 . S
O61 C49 1.239 . S
O62 Tb40 2.399 . S
O62 C49 1.263 . S
C63 O52 1.261 . S
C63 O53 1.257 . S
C64 C67 1.358 . S
C64 C68 1.332 . S
C64 C70 1.504 . S
C65 C66 1.373 . S
C65 C69 1.308 . S
C66 C65 1.373 . S
C66 C67 1.429 . S
C66 H76 0.932 . S
C67 C64 1.358 . S
C67 C66 1.429 . S
C67 H77 0.930 . S
C68 C64 1.332 . S
C68 C69 1.394 . S
C68 H78 0.932 . S
C69 C65 1.308 . S
C69 C68 1.394 . S
C69 H79 0.929 . S
C70 Tb41 2.764 . S
C70 O54 1.239 . S
C70 O55 1.263 . S
C70 C64 1.504 . S
C71 O56 1.236 . S
C71 O57 1.257 . S
H72 C45 0.932 . S
H73 C46 0.930 . S
H74 C47 0.932 . S
H75 C48 0.929 . S
H76 C66 0.932 . S
H77 C67 0.930 . S
H78 C68 0.932 . S
H79 C69 0.929 . S
Tb80 C89 2.764 . S
Tb80 O90 2.325 . S
Tb80 O93 2.303 . S
Tb80 O97 2.322 . S
Tb80 O98 2.349 . S
Tb80 O101 2.415 . S
Tb80 O102 2.399 . S
Tb81 O91 2.322 . S
Tb81 O92 2.349 1_556 S
Tb81 O94 2.415 . S
Tb81 O95 2.399 . S
Tb81 O96 2.325 . S
Tb81 O99 2.303 . S
Tb81 C110 2.764 . S
C82 O98 1.261 . S
C82 O99 1.257 . S
C83 C86 1.358 . S
C83 C87 1.332 . S
C83 C89 1.504 . S
C84 C85 1.373 . S
C84 C88 1.308 . S
C85 C84 1.373 . S
C85 C86 1.429 . S
C85 H112 0.932 . S
C86 C83 1.358 . S
C86 C85 1.429 . S
C86 H113 0.930 . S
C87 C83 1.332 . S
C87 C88 1.394 . S
C87 H114 0.932 . S
C88 C84 1.308 . S
C88 C87 1.394 . S
C88 H115 0.929 . S
C89 Tb80 2.764 . S
C89 C83 1.504 . S
C89 O101 1.239 . S
C89 O102 1.263 . S
O90 Tb80 2.325 . S
O90 C100 1.236 . S
O91 Tb81 2.322 . S
O91 C100 1.257 . S
O92 Tb81 2.349 1_554 S
O92 C103 1.261 . S
O93 Tb80 2.303 . S
O93 C103 1.257 1_556 S
O94 Tb81 2.415 . S
O94 C110 1.239 . S
O95 Tb81 2.399 . S
O95 C110 1.263 . S
O96 Tb81 2.325 . S
O96 C111 1.236 . S
O97 Tb80 2.322 . S
O97 C111 1.257 . S
O98 Tb80 2.349 . S
O98 C82 1.261 . S
O99 Tb81 2.303 . S
O99 C82 1.257 . S
C100 O90 1.236 . S
C100 O91 1.257 . S
O101 Tb80 2.415 . S
O101 C89 1.239 . S
O102 Tb80 2.399 . S
O102 C89 1.263 . S
C103 O92 1.261 . S
C103 O93 1.257 1_554 S
C104 C107 1.358 . S
C104 C108 1.332 . S
C104 C110 1.504 . S
C105 C106 1.373 . S
C105 C109 1.308 . S
C106 C105 1.373 . S
C106 C107 1.429 . S
C106 H116 0.932 1_556 S
C107 C104 1.358 . S
C107 C106 1.429 . S
C107 H117 0.930 1_556 S
C108 C104 1.332 . S
C108 C109 1.394 . S
C108 H118 0.932 . S
C109 C105 1.308 . S
C109 C108 1.394 . S
C109 H119 0.929 . S
C110 Tb81 2.764 . S
C110 O94 1.239 . S
C110 O95 1.263 . S
C110 C104 1.504 . S
C111 O96 1.236 . S
C111 O97 1.257 . S
H112 C85 0.932 . S
H113 C86 0.930 . S
H114 C87 0.932 . S
H115 C88 0.929 . S
H116 C106 0.932 1_554 S
H117 C107 0.930 1_554 S
H118 C108 0.932 . S
H119 C109 0.929 . S
H120 C126 0.930 . S
H121 C129 0.930 . S
H122 C130 0.930 . S
H123 C131 0.930 1_554 S
H124 C134 0.930 . S
H125 C135 0.930 . S
C126 H120 0.930 . S
C126 C127 1.355 1_556 S
C126 C128 1.415 . S
C127 C126 1.355 1_554 S
C127 C129 1.419 . S
C128 C126 1.415 . S
C128 C133 1.425 . S
C128 C135 1.409 . S
C129 H121 0.930 . S
C129 C127 1.419 . S
C129 C130 1.362 . S
C130 H122 0.930 . S
C130 C129 1.362 . S
C130 C133 1.409 1_554 S
C131 H123 0.930 1_556 S
C131 C132 1.355 . S
C131 C133 1.415 . S
C132 C131 1.355 . S
C132 C134 1.419 . S
C133 C128 1.425 . S
C133 C130 1.409 1_556 S
C133 C131 1.415 . S
C134 H124 0.930 . S
C134 C132 1.419 . S
C134 C135 1.362 . S
C135 H125 0.930 . S
C135 C128 1.409 . S
C135 C134 1.362 . S
H136 C142 0.930 . S
H137 C145 0.930 . S
H138 C146 0.930 . S
H139 C147 0.930 . S
H140 C150 0.930 . S
H141 C151 0.930 . S
C142 H136 0.930 . S
C142 C143 1.355 . S
C142 C144 1.415 . S
C143 C142 1.355 . S
C143 C145 1.419 . S
C144 C142 1.415 . S
C144 C149 1.425 . S
C144 C151 1.409 . S
C145 H137 0.930 . S
C145 C143 1.419 . S
C145 C146 1.362 . S
C146 H138 0.930 . S
C146 C145 1.362 . S
C146 C149 1.409 . S
C147 H139 0.930 . S
C147 C148 1.355 . S
C147 C149 1.415 . S
C148 C147 1.355 . S
C148 C150 1.419 . S
C149 C144 1.425 . S
C149 C146 1.409 . S
C149 C147 1.415 . S
C150 H140 0.930 . S
C150 C148 1.419 . S
C150 C151 1.362 . S
C151 H141 0.930 . S
C151 C144 1.409 . S
C151 C150 1.362 . S
H152 C158 0.930 . S
H153 C161 0.930 . S
H154 C162 0.930 . S
H155 C163 0.930 . S
H156 C166 0.930 . S
H157 C167 0.930 . S
C158 H152 0.930 . S
C158 C159 1.355 . S
C158 C160 1.415 . S
C159 C158 1.355 . S
C159 C161 1.419 . S
C160 C158 1.415 . S
C160 C165 1.425 . S
C160 C167 1.409 . S
C161 H153 0.930 . S
C161 C159 1.419 . S
C161 C162 1.362 . S
C162 H154 0.930 . S
C162 C161 1.362 . S
C162 C165 1.409 . S
C163 H155 0.930 . S
C163 C164 1.355 . S
C163 C165 1.415 . S
C164 C163 1.355 . S
C164 C166 1.419 . S
C165 C160 1.425 . S
C165 C162 1.409 . S
C165 C163 1.415 . S
C166 H156 0.930 . S
C166 C164 1.419 . S
C166 C167 1.362 . S
C167 H157 0.930 . S
C167 C160 1.409 . S
C167 C166 1.362 . S
H168 C174 0.930 . S
H169 C177 0.930 . S
H170 C178 0.930 . S
H171 C179 0.930 . S
H172 C182 0.930 . S
H173 C183 0.930 1_556 S
C174 H168 0.930 . S
C174 C175 1.355 . S
C174 C176 1.415 1_556 S
C175 C174 1.355 . S
C175 C177 1.419 . S
C176 C174 1.415 1_554 S
C176 C181 1.425 . S
C176 C183 1.409 . S
C177 H169 0.930 . S
C177 C175 1.419 . S
C177 C178 1.362 1_556 S
C178 H170 0.930 . S
C178 C177 1.362 1_554 S
C178 C181 1.409 . S
C179 H171 0.930 . S
C179 C180 1.355 . S
C179 C181 1.415 . S
C180 C179 1.355 . S
C180 C182 1.419 . S
C181 C176 1.425 . S
C181 C178 1.409 . S
C181 C179 1.415 . S
C182 H172 0.930 . S
C182 C180 1.419 . S
C182 C183 1.362 . S
C183 H173 0.930 1_554 S
C183 C176 1.409 . S
C183 C182 1.362 . S
H184 C190 0.930 . S
H185 C193 0.930 . S
H186 C194 0.930 . S
H187 C195 0.930 . S
H188 C198 0.930 . S
H189 C199 0.930 . S
C190 H184 0.930 . S
C190 C191 1.355 . S
C190 C192 1.415 . S
C191 C190 1.355 . S
C191 C193 1.419 . S
C192 C190 1.415 . S
C192 C197 1.425 . S
C192 C199 1.409 . S
C193 H185 0.930 . S
C193 C191 1.419 . S
C193 C194 1.362 . S
C194 H186 0.930 . S
C194 C193 1.362 . S
C194 C197 1.409 . S
C195 H187 0.930 . S
C195 C196 1.355 . S
C195 C197 1.415 . S
C196 C195 1.355 . S
C196 C198 1.419 . S
C197 C192 1.425 . S
C197 C194 1.409 . S
C197 C195 1.415 . S
C198 H188 0.930 . S
C198 C196 1.419 . S
C198 C199 1.362 . S
C199 H189 0.930 . S
C199 C192 1.409 . S
C199 C198 1.362 . S
H200 C206 0.930 . S
H201 C209 0.930 . S
H202 C210 0.930 . S
H203 C211 0.930 . S
H204 C214 0.930 . S
H205 C215 0.930 . S
C206 H200 0.930 . S
C206 C207 1.355 . S
C206 C208 1.415 . S
C207 C206 1.355 . S
C207 C209 1.419 . S
C208 C206 1.415 . S
C208 C213 1.425 . S
C208 C215 1.409 . S
C209 H201 0.930 . S
C209 C207 1.419 . S
C209 C210 1.362 . S
C210 H202 0.930 . S
C210 C209 1.362 . S
C210 C213 1.409 . S
C211 H203 0.930 . S
C211 C212 1.355 . S
C211 C213 1.415 . S
C212 C211 1.355 . S
C212 C214 1.419 . S
C213 C208 1.425 . S
C213 C210 1.409 . S
C213 C211 1.415 . S
C214 H204 0.930 . S
C214 C212 1.419 . S
C214 C215 1.362 . S
C215 H205 0.930 . S
C215 C208 1.409 . S
C215 C214 1.362 . S
H216 C222 0.930 . S
H217 C225 0.930 . S
H218 C226 0.930 . S
H219 C227 0.930 . S
H220 C230 0.930 1_655 S
H221 C231 0.930 1_655 S
C222 H216 0.930 . S
C222 C223 1.355 . S
C222 C224 1.415 . S
C223 C222 1.355 . S
C223 C225 1.419 . S
C224 C222 1.415 . S
C224 C229 1.425 . S
C224 C231 1.409 . S
C225 H217 0.930 . S
C225 C223 1.419 . S
C225 C226 1.362 . S
C226 H218 0.930 . S
C226 C225 1.362 . S
C226 C229 1.409 . S
C227 H219 0.930 . S
C227 C228 1.355 . S
C227 C229 1.415 . S
C228 C227 1.355 . S
C228 C230 1.419 . S
C229 C224 1.425 . S
C229 C226 1.409 . S
C229 C227 1.415 . S
C230 H220 0.930 1_455 S
C230 C228 1.419 . S
C230 C231 1.362 . S
C231 H221 0.930 1_455 S
C231 C224 1.409 . S
C231 C230 1.362 . S
H232 C238 0.930 . S
H233 C241 0.930 . S
H234 C242 0.930 . S
H235 C243 0.930 . S
H236 C246 0.930 . S
H237 C247 0.930 . S
C238 H232 0.930 . S
C238 C239 1.355 1_565 S
C238 C240 1.415 . S
C239 C238 1.355 1_545 S
C239 C241 1.419 . S
C240 C238 1.415 . S
C240 C245 1.425 1_564 S
C240 C247 1.409 1_554 S
C241 H233 0.930 . S
C241 C239 1.419 . S
C241 C242 1.362 . S
C242 H234 0.930 . S
C242 C241 1.362 . S
C242 C245 1.409 1_554 S
C243 H235 0.930 . S
C243 C244 1.355 . S
C243 C245 1.415 . S
C244 C243 1.355 . S
C244 C246 1.419 1_545 S
C245 C240 1.425 1_546 S
C245 C242 1.409 1_556 S
C245 C243 1.415 . S
C246 H236 0.930 . S
C246 C244 1.419 1_565 S
C246 C247 1.362 . S
C247 H237 0.930 . S
C247 C240 1.409 1_556 S
C247 C246 1.362 . S
H248 C254 0.930 . S
H249 C257 0.930 . S
H250 C258 0.930 . S
H251 C259 0.930 . S
H252 C262 0.930 . S
H253 C263 0.930 . S
C254 H248 0.930 . S
C254 C255 1.355 . S
C254 C256 1.415 . S
C255 C254 1.355 . S
C255 C257 1.419 . S
C256 C254 1.415 . S
C256 C261 1.425 . S
C256 C263 1.409 . S
C257 H249 0.930 . S
C257 C255 1.419 . S
C257 C258 1.362 . S
C258 H250 0.930 . S
C258 C257 1.362 . S
C258 C261 1.409 . S
C259 H251 0.930 . S
C259 C260 1.355 . S
C259 C261 1.415 . S
C260 C259 1.355 . S
C260 C262 1.419 . S
C261 C256 1.425 . S
C261 C258 1.409 . S
C261 C259 1.415 . S
C262 H252 0.930 . S
C262 C260 1.419 . S
C262 C263 1.362 . S
C263 H253 0.930 . S
C263 C256 1.409 . S
C263 C262 1.362 . S
C127 C25 1.827 . S
C132 C111 1.784 . S
C143 C65 1.986 . S
C148 C20 2.014 . S
C159 C60 1.999 . S
C164 C105 1.959 . S
C175 C100 2.047 . S
C180 C4 1.989 . S
C191 C44 1.741 . S
C196 C31 1.708 . S
C207 C84 1.772 . S
C212 C71 1.741 . S
C223 C2 0.739 . S
C228 C23 0.739 . S
C239 C42 0.698 . S
C244 C63 0.698 . S
C255 C82 0.727 . S
C260 C103 0.727 . S
