# Generated by pormake.
# Topology wme, (6)-cn, num edge types: 1
# Building blocks:
#     Node 0, Type 0, BuildingBlock: MAKGUD_clean_sbu_1, # of connection points: 6
#     Node 1, Type 0, BuildingBlock: MAKGUD_clean_sbu_1, # of connection points: 6
#     Node 2, Type 0, BuildingBlock: MAKGUD_clean_sbu_1, # of connection points: 6
#     Node 3, Type 0, BuildingBlock: MAKGUD_clean_sbu_1, # of connection points: 6
#     Node 4, Type 0, BuildingBlock: MAKGUD_clean_sbu_1, # of connection points: 6
#     Node 5, Type 0, BuildingBlock: MAKGUD_clean_sbu_1, # of connection points: 6
#     Node 6, Type 0, BuildingBlock: MAKGUD_clean_sbu_1, # of connection points: 6
#     Node 7, Type 0, BuildingBlock: MAKGUD_clean_sbu_1, # of connection points: 6
#     Node 8, Type 0, BuildingBlock: MAKGUD_clean_sbu_1, # of connection points: 6
#     Node 9, Type 0, BuildingBlock: MAKGUD_clean_sbu_1, # of connection points: 6
#     Node 10, Type 0, BuildingBlock: MAKGUD_clean_sbu_1, # of connection points: 6
#     Node 11, Type 0, BuildingBlock: MAKGUD_clean_sbu_1, # of connection points: 6
#     Edge 12, Type (0, 0), BuildingBlock: UVAHIK_clean_linker_0, # of connection points: 2
#     Edge 13, Type (0, 0), BuildingBlock: UVAHIK_clean_linker_0, # of connection points: 2
#     Edge 14, Type (0, 0), BuildingBlock: UVAHIK_clean_linker_0, # of connection points: 2
#     Edge 15, Type (0, 0), BuildingBlock: UVAHIK_clean_linker_0, # of connection points: 2
#     Edge 16, Type (0, 0), BuildingBlock: UVAHIK_clean_linker_0, # of connection points: 2
#     Edge 17, Type (0, 0), BuildingBlock: UVAHIK_clean_linker_0, # of connection points: 2
#     Edge 18, Type (0, 0), BuildingBlock: UVAHIK_clean_linker_0, # of connection points: 2
#     Edge 19, Type (0, 0), BuildingBlock: UVAHIK_clean_linker_0, # of connection points: 2
#     Edge 20, Type (0, 0), BuildingBlock: UVAHIK_clean_linker_0, # of connection points: 2
#     Edge 21, Type (0, 0), BuildingBlock: UVAHIK_clean_linker_0, # of connection points: 2
#     Edge 22, Type (0, 0), BuildingBlock: UVAHIK_clean_linker_0, # of connection points: 2
#     Edge 23, Type (0, 0), BuildingBlock: UVAHIK_clean_linker_0, # of connection points: 2
#     Edge 24, Type (0, 0), BuildingBlock: UVAHIK_clean_linker_0, # of connection points: 2
#     Edge 25, Type (0, 0), BuildingBlock: UVAHIK_clean_linker_0, # of connection points: 2
#     Edge 26, Type (0, 0), BuildingBlock: UVAHIK_clean_linker_0, # of connection points: 2
#     Edge 27, Type (0, 0), BuildingBlock: UVAHIK_clean_linker_0, # of connection points: 2
#     Edge 28, Type (0, 0), BuildingBlock: UVAHIK_clean_linker_0, # of connection points: 2
#     Edge 29, Type (0, 0), BuildingBlock: UVAHIK_clean_linker_0, # of connection points: 2
#     Edge 30, Type (0, 0), BuildingBlock: UVAHIK_clean_linker_0, # of connection points: 2
#     Edge 31, Type (0, 0), BuildingBlock: UVAHIK_clean_linker_0, # of connection points: 2
#     Edge 32, Type (0, 0), BuildingBlock: UVAHIK_clean_linker_0, # of connection points: 2
#     Edge 33, Type (0, 0), BuildingBlock: UVAHIK_clean_linker_0, # of connection points: 2
#     Edge 34, Type (0, 0), BuildingBlock: UVAHIK_clean_linker_0, # of connection points: 2
#     Edge 35, Type (0, 0), BuildingBlock: UVAHIK_clean_linker_0, # of connection points: 2
#     Edge 36, Type (0, 0), BuildingBlock: UVAHIK_clean_linker_0, # of connection points: 2
#     Edge 37, Type (0, 0), BuildingBlock: UVAHIK_clean_linker_0, # of connection points: 2
#     Edge 38, Type (0, 0), BuildingBlock: UVAHIK_clean_linker_0, # of connection points: 2
#     Edge 39, Type (0, 0), BuildingBlock: UVAHIK_clean_linker_0, # of connection points: 2
#     Edge 40, Type (0, 0), BuildingBlock: UVAHIK_clean_linker_0, # of connection points: 2
#     Edge 41, Type (0, 0), BuildingBlock: UVAHIK_clean_linker_0, # of connection points: 2
#     Edge 42, Type (0, 0), BuildingBlock: UVAHIK_clean_linker_0, # of connection points: 2
#     Edge 43, Type (0, 0), BuildingBlock: UVAHIK_clean_linker_0, # of connection points: 2
#     Edge 44, Type (0, 0), BuildingBlock: UVAHIK_clean_linker_0, # of connection points: 2
#     Edge 45, Type (0, 0), BuildingBlock: UVAHIK_clean_linker_0, # of connection points: 2
#     Edge 46, Type (0, 0), BuildingBlock: UVAHIK_clean_linker_0, # of connection points: 2
#     Edge 47, Type (0, 0), BuildingBlock: UVAHIK_clean_linker_0, # of connection points: 2
# Relax obj value: 0.162
# Max RMSD: 0.283
# Mean RMSD: 0.283
data_MOF--net-wme--node1-MAKGUD_clean_sbu_1--edge1-UVAHIK_clean_linker_0
_symmetry_space_group_name_H-M    P1
_symmetry_Int_Tables_number       1
_symmetry_cell_setting            triclinic
loop_
_symmetry_equiv_pos_as_xyz
'x, y, z'
_cell_length_a     46.31971
_cell_length_b     46.491943
_cell_length_c     66.289322
_cell_angle_alpha  89.922958
_cell_angle_beta   90.179356
_cell_angle_gamma 120.04509
loop_
_atom_site_label
_atom_site_type_symbol
_atom_site_fract_x
_atom_site_fract_y
_atom_site_fract_z
_atom_type_partial_charge
O0 O 0.303 0.46667 0.10953 0.0
Tb1 Tb 0.26488 0.41707 0.11928 0.0
C2 C 0.22632 0.36287 0.15723 0.0
O3 O 0.21692 0.3518 0.09656 0.0
Tb4 Tb 0.1972 0.31207 0.11812 0.0
C5 C 0.21195 0.26497 0.10875 0.0
O6 O 0.27149 0.38837 0.09585 0.0
O7 O 0.14319 0.28641 0.12174 0.0
C8 C 0.1234 0.27616 0.10584 0.0
O9 O 0.13673 0.28477 0.08781 0.0
O10 O 0.24411 0.39225 0.14821 0.0
O11 O 0.21077 0.33289 0.14866 0.0
O12 O 0.23115 0.43662 0.11521 0.0
C13 C 0.24626 0.36113 0.08884 0.0
C14 C 0.32446 0.47195 0.12374 0.0
O15 O 0.19113 0.27105 0.09913 0.0
O16 O 0.22499 0.28583 0.1237 0.0
C17 C 0.22933 0.45382 0.13048 0.0
O18 O 0.24533 0.45515 0.14716 0.0
O19 O 0.3124 0.44613 0.13559 0.0
O20 O 0.8638 0.28904 0.60039 0.0
Tb21 Tb 0.87603 0.25225 0.61179 0.0
C22 C 0.89039 0.21141 0.64948 0.0
O23 O 0.89299 0.20362 0.59148 0.0
Tb24 Tb 0.91262 0.18049 0.6108 0.0
C25 C 0.97727 0.20025 0.60536 0.0
O26 O 0.91101 0.25768 0.58834 0.0
O27 O 0.88562 0.12617 0.61131 0.0
C28 C 0.88464 0.10918 0.59516 0.0
O29 O 0.89716 0.12532 0.57823 0.0
O30 O 0.88247 0.23258 0.64081 0.0
O31 O 0.90064 0.19233 0.64056 0.0
O32 O 0.8226 0.21842 0.60754 0.0
C33 C 0.91329 0.23198 0.58286 0.0
C34 C 0.8793 0.31146 0.61415 0.0
O35 O 0.9539 0.18623 0.59186 0.0
O36 O 0.96432 0.20386 0.62191 0.0
C37 C 0.80269 0.21463 0.62276 0.0
O38 O 0.81633 0.22758 0.64028 0.0
O39 O 0.89325 0.30057 0.62683 0.0
O40 O 0.60939 0.88518 0.11582 0.0
Tb41 Tb 0.64507 0.87112 0.12675 0.0
C42 C 0.7073 0.88952 0.15492 0.0
O43 O 0.71315 0.89334 0.109 0.0
Tb44 Tb 0.76275 0.91782 0.12212 0.0
C45 C 0.80245 0.98368 0.12256 0.0
O46 O 0.66742 0.89188 0.09738 0.0
O47 O 0.79043 0.89328 0.11353 0.0
C48 C 0.81968 0.91047 0.10476 0.0
O49 O 0.83073 0.94186 0.10044 0.0
O50 O 0.69262 0.90091 0.14279 0.0
O51 O 0.73867 0.89784 0.15126 0.0
O52 O 0.62336 0.81738 0.12527 0.0
C53 C 0.69941 0.90259 0.095 0.0
C54 C 0.59642 0.88489 0.13323 0.0
O55 O 0.78384 0.96646 0.10739 0.0
O56 O 0.79767 0.96381 0.13765 0.0
C57 C 0.61006 0.79897 0.14144 0.0
O58 O 0.61374 0.81373 0.15891 0.0
O59 O 0.61148 0.87754 0.14726 0.0
O60 O 0.76081 0.58213 0.5986 0.0
Tb61 Tb 0.79794 0.63092 0.61037 0.0
C62 C 0.83938 0.68641 0.64781 0.0
O63 O 0.84661 0.69767 0.58986 0.0
Tb64 Tb 0.87041 0.74022 0.60929 0.0
C65 C 0.84971 0.78447 0.60534 0.0
O66 O 0.79225 0.66074 0.58722 0.0
O67 O 0.92507 0.76858 0.60951 0.0
C68 C 0.94164 0.78701 0.59387 0.0
O69 O 0.92496 0.78505 0.57737 0.0
O70 O 0.81733 0.65751 0.63927 0.0
O71 O 0.85921 0.71553 0.63882 0.0
O72 O 0.83255 0.61234 0.6063 0.0
C73 C 0.81762 0.68914 0.58176 0.0
C74 C 0.73862 0.57443 0.61262 0.0
O75 O 0.86296 0.77554 0.59118 0.0
O76 O 0.84721 0.76767 0.62161 0.0
C77 C 0.83912 0.59909 0.62201 0.0
O78 O 0.82845 0.60197 0.63981 0.0
O79 O 0.74981 0.5988 0.62559 0.0
O80 O 0.18887 0.75254 0.10424 0.0
Tb81 Tb 0.19608 0.7985 0.11743 0.0
C82 C 0.1755 0.84194 0.14392 0.0
O83 O 0.17719 0.84721 0.09715 0.0
Tb84 Tb 0.1512 0.87088 0.10979 0.0
C85 C 0.08538 0.84371 0.10633 0.0
O86 O 0.17549 0.80011 0.08799 0.0
O87 O 0.17556 0.92461 0.1061 0.0
C88 C 0.16777 0.93789 0.09099 0.0
O89 O 0.14695 0.91827 0.0771 0.0
O90 O 0.16497 0.8159 0.13188 0.0
O91 O 0.16736 0.86482 0.13964 0.0
O92 O 0.2497 0.83157 0.12023 0.0
C93 C 0.16555 0.82173 0.08483 0.0
C94 C 0.18256 0.73574 0.12091 0.0
O95 O 0.10588 0.85023 0.09133 0.0
O96 O 0.10199 0.85152 0.12325 0.0
C97 C 0.2644 0.83158 0.13727 0.0
O98 O 0.24566 0.81433 0.15253 0.0
O99 O 0.18323 0.75424 0.13596 0.0
O100 O 0.46047 0.17915 0.59621 0.0
Tb101 Tb 0.41506 0.17297 0.61046 0.0
C102 C 0.36313 0.16278 0.64698 0.0
O103 O 0.35132 0.1576 0.58322 0.0
Tb104 Tb 0.31476 0.14374 0.60689 0.0
C105 C 0.26689 0.07967 0.60405 0.0
O106 O 0.38346 0.1347 0.58895 0.0
O107 O 0.28758 0.17098 0.60692 0.0
C108 C 0.27292 0.17339 0.59044 0.0
O109 O 0.27821 0.16263 0.57331 0.0
O110 O 0.38868 0.16079 0.63943 0.0
O111 O 0.33785 0.16157 0.63663 0.0
O112 O 0.43338 0.22611 0.60637 0.0
C113 C 0.36016 0.13584 0.57834 0.0
C114 C 0.47185 0.1706 0.61162 0.0
O115 O 0.27135 0.10333 0.5918 0.0
O116 O 0.29 0.09195 0.61795 0.0
C117 C 0.44764 0.24605 0.62193 0.0
O118 O 0.44515 0.23259 0.63974 0.0
O119 O 0.45099 0.16305 0.62652 0.0
O120 O 0.60203 0.73294 0.40001 0.0
Tb121 Tb 0.64088 0.78026 0.38809 0.0
C122 C 0.70334 0.82492 0.36065 0.0
O123 O 0.70903 0.8279 0.40711 0.0
Tb124 Tb 0.75834 0.85266 0.39382 0.0
C125 C 0.7974 0.82573 0.39449 0.0
O126 O 0.66409 0.78102 0.41704 0.0
O127 O 0.78683 0.90545 0.40102 0.0
C128 C 0.81682 0.91797 0.40897 0.0
O129 O 0.82829 0.89788 0.41311 0.0
O130 O 0.68889 0.79881 0.3727 0.0
O131 O 0.7345 0.84826 0.36453 0.0
O132 O 0.61983 0.81298 0.38713 0.0
C133 C 0.69582 0.8029 0.41978 0.0
C134 C 0.5919 0.71768 0.38281 0.0
O135 O 0.78174 0.82844 0.41004 0.0
O136 O 0.79002 0.83718 0.37852 0.0
C137 C 0.60053 0.81018 0.37175 0.0
O138 O 0.59791 0.7905 0.35678 0.0
O139 O 0.60999 0.73759 0.36832 0.0
O140 O 0.86543 0.58322 0.91409 0.0
Tb141 Tb 0.8763 0.631 0.9013 0.0
C142 C 0.89012 0.68559 0.8637 0.0
O143 O 0.89461 0.69709 0.92277 0.0
Tb144 Tb 0.91259 0.73847 0.90252 0.0
C145 C 0.97738 0.78384 0.9068 0.0
O146 O 0.91312 0.66109 0.92387 0.0
O147 O 0.88563 0.76589 0.90232 0.0
C148 C 0.88401 0.78078 0.91883 0.0
O149 O 0.89567 0.77576 0.93576 0.0
O150 O 0.88381 0.65687 0.87216 0.0
O151 O 0.89886 0.71444 0.87282 0.0
O152 O 0.82306 0.61241 0.90554 0.0
C153 C 0.91565 0.68883 0.93016 0.0
C154 C 0.8785 0.57439 0.89981 0.0
O155 O 0.9544 0.77618 0.92032 0.0
O156 O 0.96396 0.76527 0.89095 0.0
C157 C 0.80306 0.59858 0.88992 0.0
O158 O 0.81655 0.60123 0.87212 0.0
O159 O 0.89058 0.59766 0.88611 0.0
O160 O 0.29291 0.83351 0.38331 0.0
Tb161 Tb 0.26048 0.85143 0.39478 0.0
C162 C 0.2267 0.87856 0.35726 0.0
O163 O 0.222 0.87758 0.40818 0.0
Tb164 Tb 0.19585 0.89969 0.39499 0.0
C165 C 0.21248 0.96136 0.40545 0.0
O166 O 0.26046 0.87264 0.42403 0.0
O167 O 0.14165 0.87013 0.3929 0.0
C168 C 0.12296 0.86458 0.409 0.0
O169 O 0.13752 0.8742 0.4267 0.0
O170 O 0.24209 0.86524 0.36752 0.0
O171 O 0.21075 0.89343 0.36479 0.0
O172 O 0.22806 0.79851 0.40042 0.0
C173 C 0.24099 0.88522 0.42416 0.0
C174 C 0.32112 0.85969 0.38777 0.0
O175 O 0.19893 0.93563 0.41736 0.0
O176 O 0.21744 0.95244 0.38774 0.0
C177 C 0.21465 0.7787 0.38477 0.0
O178 O 0.21796 0.79223 0.36689 0.0
O179 O 0.3153 0.88163 0.39606 0.0
O180 O 0.46665 0.28678 0.91284 0.0
Tb181 Tb 0.4179 0.24984 0.9008 0.0
C182 C 0.36339 0.20898 0.8634 0.0
O183 O 0.35198 0.20272 0.92465 0.0
Tb184 Tb 0.31214 0.18003 0.90296 0.0
C185 C 0.26613 0.19843 0.90739 0.0
O186 O 0.38808 0.25746 0.92303 0.0
O187 O 0.28478 0.12568 0.90225 0.0
C188 C 0.26916 0.10835 0.91841 0.0
O189 O 0.27332 0.12414 0.93555 0.0
O190 O 0.39245 0.23133 0.8716 0.0
O191 O 0.33468 0.18934 0.87284 0.0
O192 O 0.43614 0.21515 0.90575 0.0
C193 C 0.36115 0.23282 0.93085 0.0
C194 C 0.47485 0.3085 0.89849 0.0
O195 O 0.27246 0.18117 0.92022 0.0
O196 O 0.28632 0.20605 0.89213 0.0
C197 C 0.44965 0.20825 0.89035 0.0
O198 O 0.44692 0.21843 0.87233 0.0
O199 O 0.45078 0.29719 0.88522 0.0
O200 O 0.18595 0.44492 0.41017 0.0
Tb201 Tb 0.19109 0.40458 0.3976 0.0
C202 C 0.17206 0.34129 0.37065 0.0
O203 O 0.17337 0.33828 0.41762 0.0
Tb204 Tb 0.1485 0.28871 0.40504 0.0
C205 C 0.08275 0.24951 0.40806 0.0
O206 O 0.1692 0.38222 0.42673 0.0
O207 O 0.17381 0.26043 0.40948 0.0
C208 C 0.1684 0.24187 0.42559 0.0
O209 O 0.14911 0.24231 0.43993 0.0
O210 O 0.16079 0.35649 0.38241 0.0
O211 O 0.16475 0.31063 0.37521 0.0
O212 O 0.24475 0.42487 0.39521 0.0
C213 C 0.16083 0.35113 0.42997 0.0
C214 C 0.17814 0.45407 0.39347 0.0
O215 O 0.10304 0.26362 0.42319 0.0
O216 O 0.09951 0.25835 0.39126 0.0
C217 C 0.25979 0.43963 0.37831 0.0
O218 O 0.24138 0.4384 0.36286 0.0
O219 O 0.17702 0.43478 0.37877 0.0
O220 O 0.76264 0.18617 0.9143 0.0
Tb221 Tb 0.79922 0.17345 0.90303 0.0
C222 C 0.83978 0.15976 0.86536 0.0
O223 O 0.84744 0.15523 0.92564 0.0
Tb224 Tb 0.86916 0.1366 0.90444 0.0
C225 C 0.85067 0.07235 0.90928 0.0
O226 O 0.79284 0.13781 0.92626 0.0
O227 O 0.92367 0.16357 0.90336 0.0
C228 C 0.9413 0.16537 0.91946 0.0
O229 O 0.92571 0.15382 0.93666 0.0
O230 O 0.8181 0.16707 0.87385 0.0
O231 O 0.85895 0.14975 0.87451 0.0
O232 O 0.83365 0.22656 0.90738 0.0
C233 C 0.81786 0.13506 0.93303 0.0
C234 C 0.74002 0.17077 0.90056 0.0
O235 O 0.86778 0.09606 0.92206 0.0
O236 O 0.84319 0.0847 0.8938 0.0
C237 C 0.8387 0.24655 0.89197 0.0
O238 O 0.8267 0.23317 0.87426 0.0
O239 O 0.75073 0.15666 0.88798 0.0
C240 C 0.19756 0.99461 0.10704 0.0
C241 C 0.17939 0.97406 0.09074 0.0
C242 C 0.20556 0.02795 0.10764 0.0
C243 C 0.17638 0.08299 0.08709 0.0
H244 H 0.25929 0.15402 0.10897 0.0
C245 C 0.20272 0.21748 0.08694 0.0
C246 C 0.21609 0.23597 0.10468 0.0
C247 C 0.20232 0.18751 0.08401 0.0
C248 C 0.23591 0.13442 0.10295 0.0
H249 H 0.15674 0.973 0.06186 0.0
H250 H 0.17103 0.03101 0.06277 0.0
H251 H 0.2511 0.09795 0.10608 0.0
H252 H 0.24093 0.23848 0.13288 0.0
H253 H 0.23983 0.18573 0.12797 0.0
H254 H 0.16085 0.11901 0.08422 0.0
C255 C 0.17854 0.02126 0.07531 0.0
C256 C 0.23121 0.10226 0.10129 0.0
C257 C 0.17052 0.98798 0.07473 0.0
C258 C 0.23052 0.22472 0.11904 0.0
C259 C 0.22994 0.19453 0.11618 0.0
C260 C 0.18105 0.11501 0.08876 0.0
C261 C 0.19558 0.04154 0.09195 0.0
C262 C 0.20134 0.0761 0.09334 0.0
C263 C 0.21504 0.1751 0.09884 0.0
C264 C 0.21086 0.14122 0.0967 0.0
H265 H 0.20478 0.98472 0.11964 0.0
H266 H 0.21848 0.0427 0.12076 0.0
H267 H 0.15276 0.06341 0.08133 0.0
H268 H 0.19176 0.22576 0.07549 0.0
H269 H 0.19141 0.17371 0.07025 0.0
C270 C 0.23766 0.19089 0.61013 0.0
C271 C 0.24732 0.18384 0.59152 0.0
C272 C 0.21103 0.19716 0.61122 0.0
C273 C 0.13481 0.18024 0.58311 0.0
H274 H 0.13366 0.24483 0.61951 0.0
C275 C 1.02291 0.20238 0.58415 0.0
C276 C 1.01161 0.206 0.60309 0.0
C277 C 0.05364 0.20363 0.58226 0.0
C278 C 0.13341 0.22646 0.60938 0.0
H279 H 0.23722 0.17924 0.55935 0.0
H280 H 0.19129 0.19046 0.56122 0.0
H281 H 0.18353 0.23966 0.6173 0.0
H282 H 1.02414 0.21499 0.63481 0.0
H283 H 0.07751 0.21665 0.63167 0.0
H284 H 0.08467 0.1665 0.57542 0.0
C285 C 0.20384 0.19058 0.57506 0.0
C286 C 0.16208 0.22351 0.6081 0.0
C287 C 0.23043 0.18438 0.57397 0.0
C288 C 0.03227 0.21224 0.62 0.0
C289 C 0.06295 0.21327 0.61815 0.0
C290 C 0.10619 0.1831 0.58442 0.0
C291 C 0.19332 0.19645 0.59373 0.0
C292 C 0.16317 0.20033 0.59495 0.0
C293 C 0.07378 0.20827 0.59931 0.0
C294 C 0.10498 0.20622 0.59758 0.0
H295 H 0.25001 0.19061 0.62397 0.0
H296 H 0.20355 0.20136 0.62587 0.0
H297 H 0.13438 0.16163 0.57311 0.0
H298 H 1.00764 0.19783 0.5708 0.0
H299 H 0.06138 0.20048 0.56743 0.0
C300 C 0.83812 0.03583 0.103 0.0
C301 C 0.82989 1.01862 0.12143 0.0
C302 C 0.86711 0.06695 0.10126 0.0
C303 C 0.93334 0.1374 0.1309 0.0
H304 H 0.98789 0.14868 0.08405 0.0
C305 C 0.07375 0.23719 0.12678 0.0
C306 C 0.08723 0.25173 0.10799 0.0
C307 C 0.04053 0.21149 0.12832 0.0
C308 C 0.97282 0.14633 0.09708 0.0
H309 H 0.84476 0.021 0.15267 0.0
H310 H 0.89521 0.0752 0.14971 0.0
H311 H 0.93291 0.09955 0.08681 0.0
H312 H 0.07574 0.25157 0.07623 0.0
H313 H 1.01783 0.20739 0.07898 0.0
H314 H 0.97351 0.18405 0.14127 0.0
C315 C 0.87928 0.06491 0.13659 0.0
C316 C 0.94117 0.11804 0.09866 0.0
C317 C 0.85039 0.03376 0.13829 0.0
C318 C 0.0663 0.24082 0.09093 0.0
C319 C 0.03308 0.21524 0.09248 0.0
C320 C 0.965 0.16578 0.12929 0.0
C321 C 0.88846 0.08159 0.11794 0.0
C322 C 0.92112 0.113 0.11568 0.0
C323 C 1.01988 0.19974 0.11113 0.0
C324 C 0.98533 0.1705 0.11244 0.0
H325 H 0.82282 0.02472 0.08972 0.0
H326 H 0.87313 0.07928 0.08674 0.0
H327 H 0.91842 0.13455 0.1441 0.0
H328 H 0.08916 0.24487 0.14023 0.0
H329 H 1.03144 0.20002 0.1429 0.0
C330 C 0.83644 0.8253 0.62144 0.0
C331 C 0.84416 0.8132 0.60408 0.0
C332 C 0.83546 0.85496 0.62078 0.0
C333 C 0.83168 0.91595 0.58576 0.0
H334 H 0.87581 0.978 0.62961 0.0
C335 C 0.874 0.05574 0.57921 0.0
C336 C 0.87315 0.07301 0.5964 0.0
C337 C 0.86623 0.02255 0.58052 0.0
C338 C 0.86287 0.96085 0.61738 0.0
H339 H 0.8556 0.82194 0.57224 0.0
H340 H 0.85393 0.8736 0.57103 0.0
H341 H 0.86941 0.92277 0.63112 0.0
H342 H 0.86237 0.06831 0.62842 0.0
H343 H 0.84833 1.01024 0.63068 0.0
H344 H 0.82549 0.95419 0.57192 0.0
C345 C 0.84845 0.86022 0.58518 0.0
C346 C 0.8592 0.92906 0.61824 0.0
C347 C 0.84954 0.83063 0.58587 0.0
C348 C 0.86336 0.05585 0.61487 0.0
C349 C 0.85556 0.02258 0.61619 0.0
C350 C 0.83527 0.94772 0.58492 0.0
C351 C 0.84206 0.87317 0.60272 0.0
C352 C 0.8439 0.90626 0.60234 0.0
C353 C 0.85732 1.00556 0.59907 0.0
C354 C 0.8513 0.97082 0.6006 0.0
H355 H 0.83216 0.81239 0.6357 0.0
H356 H 0.82993 0.86383 0.63451 0.0
H357 H 0.81928 0.89893 0.57338 0.0
H358 H 0.8815 0.06809 0.56472 0.0
H359 H 0.86833 1.01059 0.56705 0.0
C360 C 0.03595 0.83277 0.08522 0.0
C361 C 0.05059 0.83648 0.10433 0.0
C362 C 1.0055 0.83212 0.08319 0.0
C363 C 0.95829 0.85951 0.08209 0.0
H364 H 0.89136 0.8282 0.12414 0.0
C365 C 0.8738 0.91565 0.09388 0.0
C366 C 0.84128 0.89579 0.10132 0.0
C367 C 0.89531 0.90291 0.09199 0.0
C368 C 0.90944 0.83667 0.11205 0.0
H369 H 0.04411 0.8405 0.13634 0.0
H370 H 0.99168 0.84008 0.13286 0.0
H371 H 0.93437 0.81273 0.12495 0.0
H372 H 0.80552 0.84647 0.11199 0.0
H373 H 0.84292 0.82396 0.10834 0.0
H374 H 0.93323 0.88318 0.06909 0.0
C375 C 1.00311 0.83713 0.1194 0.0
C376 C 0.93445 0.82814 0.11266 0.0
C377 C 0.03336 0.83753 0.12142 0.0
C378 C 0.83046 0.8625 0.10629 0.0
C379 C 0.852 0.84966 0.10431 0.0
C380 C 0.93316 0.86781 0.0814 0.0
C381 C 0.98922 0.83541 0.10021 0.0
C382 C 0.95978 0.84021 0.098 0.0
C383 C 0.88488 0.86984 0.09737 0.0
C384 C 0.90894 0.85733 0.09668 0.0
H385 H 0.04866 0.83176 0.07178 0.0
H386 H 0.99526 0.83005 0.06821 0.0
H387 H 0.9774 0.86955 0.07059 0.0
H388 H 0.88305 0.94143 0.08996 0.0
H389 H 0.92055 0.91945 0.08694 0.0
C390 C 0.99585 0.81777 0.61339 0.0
C391 C 0.97787 0.81227 0.59528 0.0
C392 C 1.02921 0.84355 0.6149 0.0
C393 C 0.10255 0.90263 0.58353 0.0
H394 H 0.13101 0.95573 0.63231 0.0
C395 C 0.21723 0.03511 0.58593 0.0
C396 C 0.23773 0.04543 0.60316 0.0
C397 C 0.18782 1.00422 0.58541 0.0
C398 C 0.12369 0.9409 0.61868 0.0
H399 H 0.9814 0.82946 0.56446 0.0
H400 H 0.03881 0.8742 0.56713 0.0
H401 H 0.07558 0.90647 0.63068 0.0
H402 H 0.24377 0.0311 0.63326 0.0
H403 H 0.19209 0.97694 0.63246 0.0
H404 H 0.15031 0.93759 0.57136 0.0
C405 C 1.02756 0.85843 0.58015 0.0
C406 C 0.09181 0.91253 0.61773 0.0
C407 C 0.99436 0.83274 0.57864 0.0
C408 C 0.22853 0.02377 0.61975 0.0
C409 C 0.19879 0.99288 0.61933 0.0
C410 C 0.13429 0.93105 0.58445 0.0
C411 C 0.04549 0.8645 0.59834 0.0
C412 C 0.08051 0.89323 0.60002 0.0
C413 C 0.17786 0.98282 0.6022 0.0
C414 C 0.14515 0.9509 0.60192 0.0
H415 H 0.98401 0.80255 0.62652 0.0
H416 H 0.0422 0.84707 0.62909 0.0
H417 H 0.09523 0.88812 0.56978 0.0
H418 H 0.2236 0.05125 0.5729 0.0
H419 H 0.17228 0.9976 0.57205 0.0
C420 C 0.07134 0.84586 0.38787 0.0
C421 C 0.08649 0.85157 0.40699 0.0
C422 C 0.03779 0.83715 0.38596 0.0
C423 C 0.9584 0.80633 0.41444 0.0
H424 H 0.93919 0.85387 0.3734 0.0
C425 C 0.83811 0.8161 0.41415 0.0
C426 C 0.82504 0.81845 0.39547 0.0
C427 C 0.86779 0.815 0.41507 0.0
C428 C 0.94382 0.83984 0.38472 0.0
H429 H 0.0777 0.85127 0.43914 0.0
H430 H 1.0194 0.83624 0.4358 0.0
H431 H 0.99479 0.86108 0.37574 0.0
H432 H 0.83157 0.81948 0.3631 0.0
H433 H 0.88265 0.81657 0.36461 0.0
H434 H 0.90741 0.78541 0.42357 0.0
C435 C 0.03334 0.83828 0.42226 0.0
C436 C 0.97585 0.84403 0.38607 0.0
C437 C 0.0669 0.84708 0.42417 0.0
C438 C 0.84115 0.81782 0.37772 0.0
C439 C 0.87065 0.8165 0.37862 0.0
C440 C 0.92625 0.80204 0.41305 0.0
C441 C 1.0185 0.83382 0.40312 0.0
C442 C 0.98369 0.82757 0.40104 0.0
C443 C 0.88495 0.81607 0.39731 0.0
C444 C 0.91857 0.81894 0.39825 0.0
H445 H 0.08561 0.84899 0.37431 0.0
H446 H 1.02705 0.83341 0.37099 0.0
H447 H 0.96344 0.79295 0.42602 0.0
H448 H 0.8263 0.81673 0.4281 0.0
H449 H 0.87807 0.81491 0.42975 0.0
C450 C 1.02325 0.83055 0.9263 0.0
C451 C 1.01174 0.81266 0.90818 0.0
C452 C 0.05411 0.86007 0.92712 0.0
C453 C 0.11376 0.92826 0.8943 0.0
H454 H 0.17147 0.95341 0.94124 0.0
C455 C 0.23691 0.05522 0.89847 0.0
C456 C 0.24419 0.0722 0.917 0.0
C457 C 0.21123 0.02196 0.89699 0.0
C458 C 0.15554 0.94697 0.92806 0.0
H459 H 1.02401 0.81101 0.87687 0.0
H460 H 0.07798 0.8625 0.87827 0.0
H461 H 0.12204 0.89827 0.93954 0.0
H462 H 0.23048 0.06701 0.94861 0.0
H463 H 0.18576 1.00964 0.946 0.0
H464 H 0.1467 0.97715 0.883 0.0
C465 C 0.06303 0.85394 0.89182 0.0
C466 C 0.12716 0.91524 0.92709 0.0
C467 C 0.03223 0.82428 0.89105 0.0
C468 C 0.22573 0.0548 0.93408 0.0
C469 C 0.20008 0.02166 0.93261 0.0
C470 C 0.14206 0.96004 0.89531 0.0
C471 C 0.07416 0.87255 0.90979 0.0
C472 C 0.10565 0.90555 0.91029 0.0
C473 C 0.19212 1.00481 0.914 0.0
C474 C 0.1632 0.97005 0.91231 0.0
H475 H 1.00799 0.8222 0.93976 0.0
H476 H 0.06164 0.87377 0.94118 0.0
H477 H 0.09758 0.92191 0.88124 0.0
H478 H 0.25062 0.06777 0.88499 0.0
H479 H 0.20626 1.00976 0.88246 0.0
C480 C 0.19718 0.21389 0.40989 0.0
C481 C 0.181 0.21816 0.42656 0.0
C482 C 0.2061 0.18924 0.41001 0.0
C483 C 0.18282 0.10902 0.43445 0.0
H484 H 0.261 0.11911 0.40677 0.0
C485 C 0.20955 1.00076 0.42985 0.0
C486 C 0.21751 0.9945 0.41054 0.0
C487 C 0.21014 0.03058 0.43395 0.0
C488 C 0.23901 0.11588 0.41452 0.0
H489 H 0.16295 0.20084 0.45682 0.0
H490 H 0.17905 0.1583 0.45718 0.0
H491 H 0.25284 0.16687 0.4102 0.0
H492 H 0.23394 1.01502 0.38066 0.0
H493 H 0.23482 0.06699 0.38772 0.0
H494 H 0.1687 0.05799 0.43849 0.0
C495 C 0.18419 0.1735 0.44381 0.0
C496 C 0.23429 0.14324 0.41645 0.0
C497 C 0.17514 0.19807 0.44366 0.0
C498 C 0.22768 1.01922 0.39569 0.0
C499 C 0.22831 0.04906 0.39977 0.0
C500 C 0.18761 0.08174 0.43258 0.0
C501 C 0.1992 0.16831 0.42683 0.0
C502 C 0.20586 0.14006 0.42619 0.0
C503 C 0.21876 0.05477 0.41881 0.0
C504 C 0.2155 0.08468 0.42234 0.0
H505 H 0.20204 0.22888 0.39645 0.0
H506 H 0.21726 0.18579 0.39657 0.0
H507 H 0.16035 0.10539 0.44173 0.0
H508 H 0.20188 0.98221 0.44164 0.0
H509 H 0.20322 0.03442 0.44887 0.0
C510 C 0.21858 0.19597 0.92664 0.0
C511 C 0.23727 0.20386 0.90877 0.0
C512 C 0.18912 0.19742 0.92745 0.0
C513 C 0.12192 0.19142 0.89466 0.0
H514 H 0.09658 0.22199 0.94217 0.0
C515 C 0.99445 0.18681 0.89941 0.0
C516 C 0.97752 0.1766 0.91793 0.0
C517 C 1.02781 0.19453 0.89783 0.0
C518 C 0.10306 0.21304 0.92884 0.0
H519 H 0.2403 0.2204 0.8779 0.0
H520 H 0.18872 0.22289 0.87926 0.0
H521 H 0.15177 0.22765 0.94041 0.0
H522 H 0.98286 0.16723 0.94941 0.0
H523 H 0.04035 0.18006 0.94662 0.0
H524 H 0.07296 0.17592 0.88329 0.0
C525 C 0.19675 0.21538 0.89263 0.0
C526 C 0.13482 0.21639 0.92782 0.0
C527 C 0.22643 0.21423 0.89189 0.0
C528 C 0.99504 0.17512 0.9349 0.0
C529 C 1.02825 0.18271 0.93332 0.0
C530 C 0.09006 0.18787 0.89572 0.0
C531 C 0.17745 0.20655 0.91035 0.0
C532 C 0.14456 0.20527 0.91082 0.0
C533 C 0.04509 0.19218 0.91472 0.0
C534 C 0.07997 0.19824 0.91294 0.0
H535 H 0.22631 0.18786 0.93989 0.0
H536 H 0.17484 0.19017 0.94129 0.0
H537 H 0.12837 0.18218 0.88144 0.0
H538 H 0.98179 0.18829 0.88603 0.0
H539 H 0.03999 0.20221 0.88332 0.0
C540 C 0.03294 0.21141 0.42882 0.0
C541 C 0.04793 0.22209 0.40983 0.0
C542 C 1.00237 0.18181 0.43067 0.0
C543 C 0.93159 0.11492 0.40081 0.0
H544 H 0.92992 0.05863 0.44449 0.0
C545 C 0.82752 0.97666 0.40704 0.0
C546 C 0.83849 0.95429 0.41204 0.0
C547 C 0.84903 1.01103 0.40894 0.0
C548 C 0.92997 0.07396 0.43216 0.0
H549 H 0.04191 0.2114 0.37781 0.0
H550 H 0.98925 0.15972 0.38098 0.0
H551 H 0.97409 0.11635 0.44324 0.0
H552 H 0.88056 0.95059 0.4233 0.0
H553 H 0.91794 1.01001 0.42622 0.0
H554 H 0.88858 0.07186 0.38908 0.0
C555 C 1.00053 0.17415 0.39449 0.0
C556 C 0.95509 0.10733 0.43161 0.0
C557 C 1.03091 0.20379 0.39264 0.0
C558 C 0.87117 0.96703 0.41935 0.0
C559 C 0.89262 1.00125 0.42119 0.0
C560 C 0.90655 0.08144 0.40129 0.0
C561 C 0.98629 0.1622 0.41358 0.0
C562 C 0.95676 0.12811 0.41565 0.0
C563 C 0.88199 0.02378 0.41587 0.0
C564 C 0.90593 0.0603 0.4167 0.0
H565 H 0.04547 0.2252 0.44232 0.0
H566 H 0.99186 0.17379 0.44558 0.0
H567 H 0.93168 0.13026 0.38847 0.0
H568 H 0.80246 0.96767 0.40141 0.0
H569 H 0.83985 0.02761 0.4049 0.0
C570 C 0.86446 0.81503 0.89974 0.0
C571 C 0.87322 0.80606 0.91808 0.0
C572 C 0.85771 0.84131 0.89896 0.0
C573 C 0.87692 0.91791 0.92664 0.0
H574 H 0.80699 0.91689 0.89383 0.0
C575 C 0.85251 0.02766 0.92922 0.0
C576 C 0.84564 0.03833 0.91093 0.0
C577 C 0.85212 0.9974 0.93038 0.0
C578 C 0.82687 0.91776 0.90293 0.0
H579 H 0.88035 0.817 0.95012 0.0
H580 H 0.86848 0.86236 0.94876 0.0
H581 H 0.81334 0.86774 0.89504 0.0
H582 H 0.83182 0.02516 0.87966 0.0
H583 H 0.83175 0.97255 0.8815 0.0
H584 H 0.89108 0.96791 0.93424 0.0
C585 C 0.86731 0.84951 0.9349 0.0
C586 C 0.83047 0.88951 0.90363 0.0
C587 C 0.87391 0.82326 0.93569 0.0
C588 C 0.83706 1.01748 0.89399 0.0
C589 C 0.83697 0.98725 0.89509 0.0
C590 C 0.87347 0.94612 0.92586 0.0
C591 C 0.85973 0.85934 0.91649 0.0
C592 C 0.85548 0.88918 0.91558 0.0
C593 C 0.84524 0.97711 0.91321 0.0
C594 C 0.84832 0.94651 0.91407 0.0
H595 H 0.86371 0.80239 0.88588 0.0
H596 H 0.85211 0.84827 0.8845 0.0
H597 H 0.89693 0.9189 0.93566 0.0
H598 H 0.85894 0.04308 0.94258 0.0
H599 H 0.85774 0.99016 0.94474 0.0
C600 C 0.17721 0.68528 0.10422 0.0
C601 C 0.17896 0.70224 0.12213 0.0
C602 C 0.1772 0.65522 0.10472 0.0
C603 C 0.16562 0.58584 0.13815 0.0
H604 H 0.22105 0.57573 0.0983 0.0
C605 C 0.2098 0.49002 0.14599 0.0
C606 C 0.21425 0.47539 0.12858 0.0
C607 C 0.20046 0.51425 0.14456 0.0
C608 C 0.20495 0.57775 0.10932 0.0
H609 H 0.18116 0.70049 0.15469 0.0
H610 H 0.18148 0.64789 0.15566 0.0
H611 H 0.21485 0.62466 0.09752 0.0
H612 H 0.21079 0.47379 0.09597 0.0
H613 H 0.19407 0.51604 0.0934 0.0
H614 H 0.15622 0.53908 0.15013 0.0
C615 C 0.17974 0.65772 0.14117 0.0
C616 C 0.20143 0.60596 0.10891 0.0
C617 C 0.17964 0.6879 0.14066 0.0
C618 C 0.20755 0.48451 0.10967 0.0
C619 C 0.19829 0.50898 0.10822 0.0
C620 C 0.16914 0.55758 0.13855 0.0
C621 C 0.17915 0.64128 0.12316 0.0
C622 C 0.1819 0.61055 0.1234 0.0
C623 C 0.19532 0.52469 0.12565 0.0
C624 C 0.18912 0.55328 0.12424 0.0
H625 H 0.17645 0.69557 0.08969 0.0
H626 H 0.17598 0.64304 0.09057 0.0
H627 H 0.15 0.58823 0.14936 0.0
H628 H 0.21466 0.48355 0.16083 0.0
H629 H 0.19877 0.52588 0.1583 0.0
C630 C 0.7454 0.19324 0.63687 0.0
C631 C 0.76629 0.20147 0.61992 0.0
C632 C 0.71223 0.18573 0.63489 0.0
C633 C 0.65846 0.20268 0.60176 0.0
H634 H 0.58675 0.13566 0.6342 0.0
C635 C 0.52326 0.17807 0.59443 0.0
C636 C 0.50404 0.17079 0.61205 0.0
C637 C 0.55412 0.17932 0.59469 0.0
C638 C 0.60651 0.15478 0.62519 0.0
H639 H 0.76816 0.20714 0.58743 0.0
H640 H 0.71009 0.19399 0.58392 0.0
H641 H 0.64187 0.14098 0.63546 0.0
H642 H 0.50209 0.15898 0.64378 0.0
H643 H 0.55626 0.16176 0.64443 0.0
H644 H 0.62354 0.21712 0.59185 0.0
C645 C 0.71954 0.19354 0.59881 0.0
C646 C 0.63817 0.15772 0.62585 0.0
C647 C 0.75273 0.20073 0.60078 0.0
C648 C 0.51627 0.16452 0.62994 0.0
C649 C 0.54729 0.16594 0.63024 0.0
C650 C 0.62689 0.19988 0.60119 0.0
C651 C 0.69901 0.18652 0.6159 0.0
C652 C 0.66466 0.18184 0.61423 0.0
C653 C 0.56681 0.17354 0.61263 0.0
C654 C 0.60041 0.17599 0.61297 0.0
H655 H 0.75498 0.1936 0.65185 0.0
H656 H 0.69738 0.18072 0.6484 0.0
H657 H 0.67834 0.22193 0.59287 0.0
H658 H 0.51446 0.18289 0.58037 0.0
H659 H 0.56793 0.18464 0.58072 0.0
C660 C 0.57298 0.74823 0.12086 0.0
C661 C 0.58687 0.7626 0.13963 0.0
C662 C 0.54766 0.71491 0.11956 0.0
C663 C 0.48317 0.64706 0.15148 0.0
H664 H 0.46979 0.59411 0.10354 0.0
C665 C 0.37583 0.50987 0.14381 0.0
C666 C 0.35703 0.50288 0.12597 0.0
C667 C 0.40594 0.54 0.14597 0.0
C668 C 0.47319 0.60863 0.11702 0.0
H669 H 0.58634 0.75266 0.17161 0.0
H670 H 0.5433 0.69434 0.16929 0.0
H671 H 0.51947 0.64889 0.10645 0.0
H672 H 0.35523 0.5215 0.09629 0.0
H673 H 0.4079 0.57364 0.0999 0.0
H674 H 0.43691 0.60645 0.16203 0.0
C675 C 0.551 0.70899 0.1556 0.0
C676 C 0.50162 0.64017 0.11868 0.0
C677 C 0.57599 0.74243 0.15693 0.0
C678 C 0.36919 0.52621 0.11021 0.0
C679 C 0.39945 0.556 0.11224 0.0
C680 C 0.45498 0.61534 0.14992 0.0
C681 C 0.53584 0.69489 0.13696 0.0
C682 C 0.50682 0.66014 0.1358 0.0
C683 C 0.41806 0.56341 0.13019 0.0
C684 C 0.44939 0.59596 0.13254 0.0
H685 H 0.58059 0.7631 0.10725 0.0
H686 H 0.53649 0.70532 0.10495 0.0
H687 H 0.48575 0.66171 0.16475 0.0
H688 H 0.367 0.49233 0.1562 0.0
H689 H 0.4198 0.54494 0.15995 0.0
C690 C 0.86529 0.56786 0.63663 0.0
C691 C 0.85259 0.57618 0.6197 0.0
C692 C 0.87294 0.54233 0.63567 0.0
C693 C 0.88356 0.48548 0.60012 0.0
H694 H 0.86088 0.42954 0.64762 0.0
C695 C 0.86738 0.35353 0.59871 0.0
C696 C 0.88024 0.34385 0.61493 0.0
C697 C 0.86733 0.38361 0.59922 0.0
C698 C 0.86776 0.44511 0.63431 0.0
H699 H 0.83904 0.56479 0.58823 0.0
H700 H 0.85164 0.51973 0.58658 0.0
H701 H 0.85514 0.47876 0.64824 0.0
H702 H 0.90327 0.35825 0.64442 0.0
H703 H 0.90285 0.41084 0.64549 0.0
H704 H 0.8951 0.45093 0.58604 0.0
C705 C 0.85636 0.53333 0.60059 0.0
C706 C 0.86458 0.47354 0.63465 0.0
C707 C 0.84909 0.55925 0.6015 0.0
C708 C 0.8932 0.36504 0.6317 0.0
C709 C 0.89281 0.39507 0.63232 0.0
C710 C 0.88643 0.45684 0.59973 0.0
C711 C 0.86765 0.52393 0.61782 0.0
C712 C 0.87231 0.49418 0.61754 0.0
C713 C 0.87984 0.40473 0.61607 0.0
C714 C 0.87841 0.43616 0.61679 0.0
H715 H 0.86851 0.58056 0.65087 0.0
H716 H 0.88248 0.53668 0.64912 0.0
H717 H 0.89031 0.50087 0.58674 0.0
H718 H 0.85716 0.33773 0.58556 0.0
H719 H 0.85677 0.38997 0.58655 0.0
C720 C 0.55171 0.89411 0.11907 0.0
C721 C 0.56628 0.88784 0.13589 0.0
C722 C 0.52128 0.89339 0.12081 0.0
C723 C 0.44559 0.8571 0.15235 0.0
H724 H 0.42473 0.9148 0.1209 0.0
C725 C 0.31615 0.84586 0.15695 0.0
C726 C 0.30116 0.84621 0.13854 0.0
C727 C 0.34995 0.8554 0.15786 0.0
C728 C 0.43008 0.89835 0.12969 0.0
H729 H 0.56101 0.877 0.16787 0.0
H730 H 0.5079 0.87615 0.17104 0.0
H731 H 0.48136 0.92374 0.12068 0.0
H732 H 0.31045 0.85832 0.10676 0.0
H733 H 0.36945 0.87479 0.1083 0.0
H734 H 0.39429 0.83137 0.1611 0.0
C735 C 0.5198 0.88118 0.15641 0.0
C736 C 0.46258 0.90348 0.12957 0.0
C737 C 0.55034 0.88192 0.15466 0.0
C738 C 0.32119 0.85781 0.1212 0.0
C739 C 0.35509 0.86734 0.1221 0.0
C740 C 0.41315 0.85201 0.15248 0.0
C741 C 0.50459 0.88637 0.13942 0.0
C742 C 0.4707 0.88268 0.14073 0.0
C743 C 0.36972 0.86553 0.14037 0.0
C744 C 0.40484 0.87235 0.141 0.0
H745 H 0.56337 0.89863 0.10438 0.0
H746 H 0.51025 0.89709 0.10734 0.0
H747 H 0.45066 0.84019 0.16083 0.0
H748 H 0.30156 0.83734 0.17065 0.0
H749 H 0.36049 0.85434 0.17226 0.0
C750 C 0.68523 0.5339 0.63032 0.0
C751 C 0.7062 0.54266 0.61341 0.0
C752 C 0.65521 0.50328 0.63098 0.0
C753 C 0.59277 0.4349 0.5984 0.0
H754 H 0.57099 0.38224 0.64719 0.0
C755 C 0.48793 0.29547 0.60104 0.0
C756 C 0.47128 0.28236 0.61938 0.0
C757 C 0.51447 0.32846 0.5999 0.0
C758 C 0.57615 0.39671 0.63351 0.0
H759 H 0.71183 0.52632 0.58383 0.0
H760 H 0.65963 0.47334 0.58489 0.0
H761 H 0.62057 0.43707 0.64629 0.0
H762 H 0.46823 0.29439 0.65058 0.0
H763 H 0.51308 0.35184 0.64844 0.0
H764 H 0.54827 0.39469 0.58561 0.0
C765 C 0.66615 0.49001 0.59764 0.0
C766 C 0.60483 0.4283 0.633 0.0
C767 C 0.69624 0.52037 0.59709 0.0
C768 C 0.48063 0.30356 0.63623 0.0
C769 C 0.50676 0.33654 0.63504 0.0
C770 C 0.56387 0.40339 0.59895 0.0
C771 C 0.64525 0.48087 0.61463 0.0
C772 C 0.61373 0.44778 0.61541 0.0
C773 C 0.52484 0.34934 0.61704 0.0
C774 C 0.55513 0.38363 0.61649 0.0
H775 H 0.69219 0.55053 0.64313 0.0
H776 H 0.63966 0.49725 0.64425 0.0
H777 H 0.59856 0.44932 0.58465 0.0
H778 H 0.48166 0.27976 0.58783 0.0
H779 H 0.52773 0.33704 0.58577 0.0
C780 C 0.35742 0.84077 0.37178 0.0
C781 C 0.35416 0.8626 0.38494 0.0
C782 C 0.38799 0.84183 0.36979 0.0
C783 C 0.46293 0.86027 0.39724 0.0
H784 H 0.49893 0.86036 0.34452 0.0
C785 C 0.57923 0.84481 0.38839 0.0
C786 C 0.57828 0.82467 0.37231 0.0
C787 C 0.55575 0.85546 0.3896 0.0
C788 C 0.48913 0.85993 0.35939 0.0
H789 H 0.38023 0.90273 0.40633 0.0
H790 H 0.43373 0.90392 0.40329 0.0
H791 H 0.45011 0.86695 0.34726 0.0
H792 H 0.55226 0.80061 0.34464 0.0
H793 H 0.5112 0.81801 0.34702 0.0
H794 H 0.50059 0.85135 0.40941 0.0
C795 C 0.41264 0.88631 0.39434 0.0
C796 C 0.46125 0.86397 0.36092 0.0
C797 C 0.38215 0.88574 0.396 0.0
C798 C 0.55394 0.81622 0.35722 0.0
C799 C 0.53038 0.8265 0.35852 0.0
C800 C 0.49053 0.85563 0.39571 0.0
C801 C 0.41581 0.8643 0.38122 0.0
C802 C 0.44751 0.86362 0.37983 0.0
C803 C 0.53061 0.84599 0.37482 0.0
C804 C 0.50364 0.8547 0.37672 0.0
H805 H 0.33624 0.82264 0.36311 0.0
H806 H 0.38962 0.82439 0.3597 0.0
H807 H 0.4527 0.85968 0.41201 0.0
H808 H 0.59771 0.85187 0.40024 0.0
H809 H 0.55718 0.87088 0.40222 0.0
C810 C 0.74548 0.56605 0.87548 0.0
C811 C 0.76668 0.57517 0.89238 0.0
C812 C 0.71243 0.54 0.87657 0.0
C813 C 0.64529 0.483 0.91233 0.0
H814 H 0.61281 0.42593 0.86524 0.0
C815 C 0.52882 0.35081 0.91419 0.0
C816 C 0.5067 0.34069 0.8977 0.0
C817 C 0.55918 0.38085 0.91367 0.0
C818 C 0.62126 0.44178 0.87844 0.0
H819 H 0.76924 0.56465 0.92396 0.0
H820 H 0.71176 0.51872 0.92585 0.0
H821 H 0.66761 0.47567 0.86449 0.0
H822 H 0.49907 0.35424 0.86773 0.0
H823 H 0.55236 0.40673 0.86669 0.0
H824 H 0.59907 0.44831 0.9264 0.0
C825 C 0.72043 0.53207 0.91175 0.0
C826 C 0.65279 0.47052 0.87802 0.0
C827 C 0.75351 0.5585 0.9107 0.0
C828 C 0.51561 0.36136 0.88066 0.0
C829 C 0.5462 0.39134 0.88005 0.0
C830 C 0.61383 0.45406 0.91279 0.0
C831 C 0.69961 0.52187 0.89454 0.0
C832 C 0.66539 0.49162 0.89496 0.0
C833 C 0.56842 0.40149 0.89656 0.0
C834 C 0.60142 0.43299 0.89587 0.0
H835 H 0.75474 0.57851 0.86115 0.0
H836 H 0.69711 0.53372 0.86313 0.0
H837 H 0.6537 0.49871 0.92558 0.0
H838 H 0.52271 0.33541 0.92755 0.0
H839 H 0.57576 0.38757 0.92655 0.0
C840 C 0.1898 0.72231 0.36896 0.0
C841 C 0.20156 0.74234 0.38633 0.0
C842 C 0.18191 0.68909 0.36947 0.0
C843 C 0.1636 0.61851 0.40335 0.0
H844 H 0.20031 0.59124 0.35977 0.0
C845 C 0.17787 0.50256 0.40916 0.0
C846 C 0.17435 0.48379 0.39179 0.0
C847 C 0.17691 0.53205 0.40794 0.0
C848 C 0.1893 0.5981 0.37187 0.0
H849 H 0.2127 0.7425 0.41813 0.0
H850 H 0.19873 0.68434 0.41905 0.0
H851 H 0.20589 0.64617 0.35907 0.0
H852 H 0.16625 0.48078 0.3595 0.0
H853 H 0.16393 0.53227 0.3573 0.0
H854 H 0.14711 0.57052 0.41622 0.0
C855 C 0.19561 0.69443 0.40501 0.0
C856 C 0.19259 0.62972 0.3715 0.0
C857 C 0.20366 0.72781 0.40449 0.0
C858 C 0.16904 0.49476 0.37314 0.0
C859 C 0.16798 0.52439 0.3719 0.0
C860 C 0.16011 0.58679 0.40367 0.0
C861 C 0.18541 0.6749 0.38737 0.0
C862 C 0.18013 0.64049 0.38735 0.0
C863 C 0.17224 0.54362 0.38929 0.0
C864 C 0.17335 0.5763 0.38808 0.0
H865 H 0.18765 0.73255 0.35472 0.0
H866 H 0.17355 0.67462 0.3557 0.0
H867 H 0.15329 0.62581 0.41565 0.0
H868 H 0.18215 0.49484 0.42376 0.0
H869 H 0.18089 0.54631 0.42161 0.0
C870 C 0.69806 0.18321 0.91574 0.0
C871 C 0.70754 0.16993 0.89973 0.0
C872 C 0.66781 0.18319 0.91515 0.0
C873 C 0.60523 0.18116 0.87981 0.0
H874 H 0.55004 0.16032 0.92753 0.0
C875 C 0.48117 0.18188 0.87663 0.0
C876 C 0.47282 0.19511 0.8932 0.0
C877 C 0.50707 0.17467 0.87796 0.0
C878 C 0.56526 0.1666 0.9141 0.0
H879 H 0.69261 0.14607 0.87053 0.0
H880 H 0.63976 0.14633 0.86933 0.0
H881 H 0.60049 0.15613 0.92858 0.0
H882 H 0.48455 0.21006 0.92445 0.0
H883 H 0.53024 0.19822 0.92673 0.0
H884 H 0.57088 0.19266 0.86544 0.0
C885 C 0.6558 0.15679 0.88239 0.0
C886 C 0.59421 0.16407 0.9147 0.0
C887 C 0.68599 0.1565 0.88309 0.0
C888 C 0.49009 0.19957 0.91146 0.0
C889 C 0.51639 0.19275 0.91273 0.0
C890 C 0.57649 0.18398 0.87926 0.0
C891 C 0.64632 0.17017 0.89842 0.0
C892 C 0.61467 0.17145 0.89758 0.0
C893 C 0.52584 0.18096 0.89582 0.0
C894 C 0.55601 0.17682 0.8964 0.0
H895 H 0.71412 0.19379 0.92878 0.0
H896 H 0.6616 0.19406 0.92765 0.0
H897 H 0.62061 0.18755 0.86644 0.0
H898 H 0.46823 0.17791 0.86237 0.0
H899 H 0.51273 0.16471 0.86477 0.0
C900 C 0.31215 0.4755 0.35889 0.0
C901 C 0.2966 0.46153 0.37739 0.0
C902 C 0.34602 0.49953 0.35815 0.0
C903 C 0.42516 0.53886 0.38798 0.0
H904 H 0.44785 0.61419 0.35305 0.0
C905 C 0.54562 0.66576 0.39767 0.0
C906 C 0.56182 0.68448 0.38044 0.0
C907 C 0.51531 0.63596 0.39601 0.0
C908 C 0.44216 0.59314 0.36264 0.0
H909 H 0.30495 0.46103 0.40954 0.0
H910 H 0.36396 0.50326 0.40831 0.0
H911 H 0.39136 0.56691 0.35275 0.0
H912 H 0.55947 0.68625 0.34788 0.0
H913 H 0.50635 0.63389 0.34489 0.0
H914 H 0.4759 0.56561 0.3982 0.0
C915 C 0.35006 0.49538 0.3943 0.0
C916 C 0.40966 0.56591 0.36248 0.0
C917 C 0.31613 0.47116 0.39503 0.0
C918 C 0.54756 0.67228 0.36141 0.0
C919 C 0.51703 0.64244 0.35974 0.0
C920 C 0.45768 0.56615 0.38817 0.0
C921 C 0.36531 0.51043 0.37589 0.0
C922 C 0.40057 0.53851 0.37529 0.0
C923 C 0.50029 0.62412 0.37707 0.0
C924 C 0.46651 0.59383 0.37567 0.0
H925 H 0.29794 0.46846 0.34497 0.0
H926 H 0.35698 0.50994 0.34364 0.0
H927 H 0.41931 0.51803 0.39781 0.0
H928 H 0.55595 0.67458 0.41256 0.0
H929 H 0.50304 0.62284 0.4097 0.0
C930 C 0.88871 0.53202 0.88241 0.0
C931 C 0.87888 0.54262 0.89956 0.0
C932 C 0.88771 0.50128 0.88235 0.0
C933 C 0.84958 0.42017 0.91014 0.0
H934 H 0.91396 0.40746 0.88008 0.0
C935 C 0.8506 0.29601 0.91354 0.0
C936 C 0.85188 0.28281 0.89471 0.0
C937 C 0.85748 0.329 0.91514 0.0
C938 C 0.89572 0.41057 0.88852 0.0
H939 H 0.86113 0.52972 0.93027 0.0
H940 H 0.86037 0.47706 0.93046 0.0
H941 H 0.91847 0.46208 0.88062 0.0
H942 H 0.86318 0.29456 0.86302 0.0
H943 H 0.87564 0.3519 0.86588 0.0
H944 H 0.82696 0.36869 0.9181 0.0
C945 C 0.86794 0.49172 0.91677 0.0
C946 C 0.89818 0.44192 0.88874 0.0
C947 C 0.86863 0.52216 0.91674 0.0
C948 C 0.86195 0.30389 0.87777 0.0
C949 C 0.86921 0.33688 0.87942 0.0
C950 C 0.84733 0.38896 0.91007 0.0
C951 C 0.87711 0.48053 0.89953 0.0
C952 C 0.87502 0.4472 0.89947 0.0
C953 C 0.86623 0.34967 0.89801 0.0
C954 C 0.87021 0.38363 0.89915 0.0
H955 H 0.89662 0.54721 0.86892 0.0
H956 H 0.89459 0.49353 0.86867 0.0
H957 H 0.83078 0.42279 0.91825 0.0
H958 H 0.84273 0.28043 0.92686 0.0
H959 H 0.85532 0.33814 0.92975 0.0
C960 C 0.18144 0.37748 0.34002 0.0
C961 C 0.18674 0.35421 0.35047 0.0
C962 C 0.19018 0.38425 0.31954 0.0
C963 C 0.23556 0.36778 0.27787 0.0
H964 H 0.17322 0.37728 0.24329 0.0
C965 C 0.22107 0.33874 0.192 0.0
C966 C 0.22325 0.36418 0.17948 0.0
C967 C 0.21896 0.34074 0.21301 0.0
C968 C 0.19092 0.37481 0.2528 0.0
H969 H 0.20709 0.3213 0.34795 0.0
H970 H 0.22109 0.332 0.3127 0.0
H971 H 0.16724 0.37731 0.27987 0.0
H972 H 0.22385 0.41114 0.17923 0.0
H973 H 0.21917 0.41404 0.21579 0.0
H974 H 0.25804 0.36355 0.25061 0.0
C975 C 0.2109 0.34575 0.32002 0.0
C976 C 0.18774 0.37514 0.27381 0.0
C977 C 0.20252 0.33931 0.34036 0.0
C978 C 0.22257 0.39129 0.18843 0.0
C979 C 0.21968 0.3929 0.20936 0.0
C980 C 0.23825 0.36674 0.25689 0.0
C981 C 0.20419 0.36771 0.30909 0.0
C982 C 0.20973 0.37114 0.28671 0.0
C983 C 0.21814 0.3678 0.22188 0.0
C984 C 0.21578 0.3699 0.24414 0.0
H985 H 0.16921 0.38929 0.34734 0.0
H986 H 0.18519 0.40183 0.31181 0.0
H987 H 0.25362 0.36556 0.28713 0.0
H988 H 0.22158 0.31757 0.18559 0.0
H989 H 0.2176 0.32095 0.22233 0.0
C990 C 0.89855 0.19007 0.68282 0.0
C991 C 0.88652 0.20794 0.67188 0.0
C992 C 0.89381 0.18564 0.70369 0.0
C993 C 0.84005 0.18526 0.74493 0.0
H994 H 0.91097 0.19219 0.77945 0.0
C995 C 0.82952 0.18018 0.83225 0.0
C996 C 0.84372 0.16413 0.84301 0.0
C997 C 0.83452 0.18562 0.81143 0.0
C998 C 0.89069 0.18969 0.77004 0.0
H999 H 0.86017 0.23541 0.67479 0.0
H1000 H 0.85204 0.22769 0.71112 0.0
H1001 H 0.92054 0.20202 0.74334 0.0
H1002 H 0.87378 0.14053 0.83982 0.0
H1003 H 0.88184 0.1494 0.80365 0.0
H1004 H 0.81006 0.17256 0.77156 0.0
C1005 C 0.86494 0.21688 0.70343 0.0
C1006 C 0.89624 0.19543 0.74929 0.0
C1007 C 0.86987 0.22152 0.68255 0.0
C1008 C 0.8626 0.15322 0.83222 0.0
C1009 C 0.86745 0.15851 0.8114 0.0
C1010 C 0.83444 0.17935 0.76568 0.0
C1011 C 0.87674 0.19878 0.71426 0.0
C1012 C 0.87099 0.19325 0.73645 0.0
C1013 C 0.85372 0.17503 0.80071 0.0
C1014 C 0.85966 0.18142 0.77855 0.0
H1015 H 0.91155 0.17923 0.67528 0.0
H1016 H 0.90296 0.17129 0.71149 0.0
H1017 H 0.81987 0.18289 0.73547 0.0
H1018 H 0.81495 0.18915 0.83992 0.0
H1019 H 0.82387 0.19879 0.80383 0.0
C1020 C 0.66765 0.87721 0.18393 0.0
C1021 C 0.69192 0.87252 0.17422 0.0
C1022 C 0.6578 0.86587 0.20375 0.0
C1023 C 0.66451 0.81317 0.24449 0.0
H1024 H 0.6626 0.87798 0.28032 0.0
C1025 C 0.66427 0.79782 0.33122 0.0
C1026 C 0.68795 0.82667 0.34133 0.0
C1027 C 0.65516 0.79959 0.3112 0.0
C1028 C 0.66297 0.85952 0.27055 0.0
H1029 H 0.72355 0.85076 0.17733 0.0
H1030 H 0.7068 0.83138 0.21164 0.0
H1031 H 0.66462 0.88653 0.244 0.0
H1032 H 0.71894 0.88014 0.33883 0.0
H1033 H 0.70338 0.88325 0.30427 0.0
H1034 H 0.66495 0.78724 0.2711 0.0
C1035 C 0.69494 0.84342 0.20407 0.0
C1036 C 0.66371 0.86422 0.24963 0.0
C1037 C 0.70478 0.85477 0.18436 0.0
C1038 C 0.70066 0.85742 0.33147 0.0
C1039 C 0.69152 0.85922 0.31161 0.0
C1040 C 0.66387 0.80852 0.26542 0.0
C1041 C 0.67198 0.84956 0.21429 0.0
C1042 C 0.66554 0.84165 0.2363 0.0
C1043 C 0.66942 0.83026 0.30093 0.0
C1044 C 0.66415 0.83218 0.27878 0.0
H1045 H 0.65754 0.89109 0.17663 0.0
H1046 H 0.63975 0.87071 0.21102 0.0
H1047 H 0.66528 0.79491 0.23473 0.0
H1048 H 0.65423 0.77373 0.33832 0.0
H1049 H 0.63773 0.7768 0.30356 0.0
C1050 C 0.86152 0.71577 0.68107 0.0
C1051 C 0.84304 0.68596 0.67019 0.0
C1052 C 0.86626 0.71536 0.70191 0.0
C1053 C 0.83382 0.66139 0.74746 0.0
H1054 H 0.9195 0.72566 0.77012 0.0
C1055 C 0.8703 0.65511 0.83051 0.0
C1056 C 0.88613 0.68526 0.84132 0.0
C1057 C 0.86525 0.65482 0.80964 0.0
C1058 C 0.89533 0.70772 0.76407 0.0
H1059 H 0.81477 0.63223 0.67315 0.0
H1060 H 0.82357 0.63157 0.70928 0.0
H1061 H 0.90986 0.72579 0.73397 0.0
H1062 H 0.9096 0.73887 0.8382 0.0
H1063 H 0.90084 0.73822 0.80196 0.0
H1064 H 0.81951 0.64315 0.77762 0.0
C1065 C 0.83398 0.65536 0.70173 0.0
C1066 C 0.88973 0.70783 0.74331 0.0
C1067 C 0.82905 0.65575 0.68089 0.0
C1068 C 0.89724 0.7151 0.83054 0.0
C1069 C 0.8924 0.7148 0.80967 0.0
C1070 C 0.83951 0.66115 0.76822 0.0
C1071 C 0.85285 0.68515 0.71253 0.0
C1072 C 0.85883 0.68477 0.7347 0.0
C1073 C 0.87613 0.68466 0.79896 0.0
C1074 C 0.8703 0.68441 0.7768 0.0
H1075 H 0.87246 0.7396 0.67352 0.0
H1076 H 0.88034 0.73886 0.70972 0.0
H1077 H 0.80954 0.64357 0.7415 0.0
H1078 H 0.86136 0.63158 0.83816 0.0
H1079 H 0.85297 0.63119 0.80183 0.0
C1080 C 0.20716 0.87479 0.17384 0.0
C1081 C 0.19078 0.84388 0.16394 0.0
C1082 C 0.21484 0.87684 0.19433 0.0
C1083 C 0.23218 0.84421 0.23818 0.0
H1084 H 0.17782 0.87234 0.26708 0.0
C1085 C 0.2319 0.85113 0.32582 0.0
C1086 C 0.22638 0.87534 0.33487 0.0
C1087 C 0.22921 0.84632 0.30489 0.0
C1088 C 0.19368 0.86502 0.25934 0.0
H1089 H 0.17193 0.7911 0.1675 0.0
H1090 H 0.18631 0.79489 0.20361 0.0
H1091 H 0.17231 0.8652 0.23066 0.0
H1092 H 0.21519 0.91454 0.32868 0.0
H1093 H 0.21194 0.90725 0.29228 0.0
H1094 H 0.25474 0.84541 0.26667 0.0
C1095 C 0.19281 0.8174 0.1953 0.0
C1096 C 0.19017 0.86056 0.23846 0.0
C1097 C 0.18474 0.81527 0.17466 0.0
C1098 C 0.21919 0.89536 0.32233 0.0
C1099 C 0.21705 0.89094 0.30137 0.0
C1100 C 0.23617 0.84923 0.25913 0.0
C1101 C 0.20675 0.8481 0.2054 0.0
C1102 C 0.20946 0.85031 0.22768 0.0
C1103 C 0.22142 0.86594 0.29233 0.0
C1104 C 0.21712 0.85999 0.27002 0.0
H1105 H 0.21244 0.89737 0.166 0.0
H1106 H 0.2258 0.90079 0.20177 0.0
H1107 H 0.24751 0.83655 0.23012 0.0
H1108 H 0.2374 0.83511 0.33492 0.0
H1109 H 0.23237 0.82656 0.29867 0.0
C1110 C 0.3329 0.1882 0.83024 0.0
C1111 C 0.36316 0.20507 0.84103 0.0
C1112 C 0.33274 0.1839 0.80931 0.0
C1113 C 0.38365 0.18041 0.76782 0.0
H1114 H 0.32542 0.19645 0.73336 0.0
C1115 C 0.3922 0.17848 0.68072 0.0
C1116 C 0.36278 0.16675 0.66928 0.0
C1117 C 0.39211 0.18312 0.70159 0.0
C1118 C 0.34149 0.19131 0.74272 0.0
H1119 H 0.41705 0.23068 0.83789 0.0
H1120 H 0.41662 0.22285 0.80152 0.0
H1121 H 0.32524 0.20438 0.76969 0.0
H1122 H 0.30994 0.15006 0.67112 0.0
H1123 H 0.30953 0.15706 0.70747 0.0
H1124 H 0.39945 0.16662 0.74106 0.0
C1125 C 0.39302 0.21292 0.80933 0.0
C1126 C 0.34145 0.19602 0.7636 0.0
C1127 C 0.39322 0.21759 0.83022 0.0
C1128 C 0.33317 0.15942 0.67936 0.0
C1129 C 0.33299 0.16366 0.70028 0.0
C1130 C 0.38343 0.17533 0.74698 0.0
C1131 C 0.36279 0.19598 0.79861 0.0
C1132 C 0.36263 0.19076 0.7764 0.0
C1133 C 0.3625 0.17576 0.71173 0.0
C1134 C 0.36244 0.18081 0.73406 0.0
H1135 H 0.30921 0.17827 0.83794 0.0
H1136 H 0.30901 0.17054 0.80153 0.0
H1137 H 0.39993 0.17568 0.77728 0.0
H1138 H 0.41557 0.18471 0.6735 0.0
H1139 H 0.4155 0.19306 0.7097 0.0
C1140 C 0.3198 0.2166 0.95937 0.0
C1141 C 0.34067 0.23999 0.94497 0.0
C1142 C 0.30479 0.22571 0.97459 0.0
C1143 C 0.2674 0.24976 1.00246 0.0
H1144 H 0.3257 0.33876 0.02273 0.0
C1145 C 0.22755 0.31742 0.06157 0.0
C1146 C 0.2524 0.33978 0.07485 0.0
C1147 C 0.23531 0.30113 0.04646 0.0
C1148 C 0.30912 0.31368 0.0175 0.0
H1149 H 0.35989 0.2904 0.93428 0.0
H1150 H 0.33316 0.30585 0.96013 0.0
H1151 H 0.34363 0.3183 0.99476 0.0
H1152 H 0.30418 0.36061 0.08365 0.0
H1153 H 0.31739 0.33185 0.05797 0.0
H1154 H 0.23324 0.24519 0.02585 0.0
C1155 C 0.32924 0.28084 0.9603 0.0
C1156 C 0.31922 0.30207 1.00111 0.0
C1157 C 0.34444 0.2719 0.94533 0.0
C1158 C 0.28454 0.34397 0.07348 0.0
C1159 C 0.29218 0.32757 0.05861 0.0
C1160 C 0.25724 0.26145 0.01902 0.0
C1161 C 0.31023 0.25835 0.97562 0.0
C1162 C 0.29855 0.27003 0.99322 0.0
C1163 C 0.26807 0.30685 0.04441 0.0
C1164 C 0.27809 0.29359 0.02682 0.0
H1165 H 0.31641 0.19179 0.95948 0.0
H1166 H 0.29033 0.20766 0.98609 0.0
H1167 H 0.25073 0.225 0.99677 0.0
H1168 H 0.20255 0.3137 0.06224 0.0
H1169 H 0.21606 0.28536 0.03583 0.0
C1170 C 0.13774 0.30921 0.458 0.0
C1171 C 0.13447 0.33103 0.44476 0.0
C1172 C 0.11381 0.29236 0.47305 0.0
C1173 C 0.072 0.28361 0.51161 0.0
H1174 H 0.97741 0.24124 0.49961 0.0
C1175 C 0.97119 0.26642 0.5694 0.0
C1176 C 0.94064 0.23638 0.56935 0.0
C1177 C 0.99573 0.27236 0.5551 0.0
C1178 C 1.0037 0.25259 0.5032 0.0
H1179 H 0.10356 0.35201 0.43658 0.0
H1180 H 0.0614 0.32201 0.46241 0.0
H1181 H 1.01787 0.26153 0.47203 0.0
H1182 H 0.91198 0.18878 0.5545 0.0
H1183 H 0.9547 0.19949 0.52908 0.0
H1184 H 0.05786 0.27592 0.54284 0.0
C1185 C 0.08238 0.3179 0.46125 0.0
C1186 C 1.02686 0.26441 0.48742 0.0
C1187 C 0.10659 0.3352 0.44655 0.0
C1188 C 0.93541 0.21205 0.55497 0.0
C1189 C 0.95976 0.21825 0.54038 0.0
C1190 C 0.04884 0.27226 0.52743 0.0
C1191 C 0.08591 0.29664 0.47486 0.0
C1192 C 0.06129 0.28057 0.49145 0.0
C1193 C 0.99001 0.24869 0.54011 0.0
C1194 C 1.01445 0.25711 0.52341 0.0
H1195 H 0.1592 0.30583 0.45702 0.0
H1196 H 0.11714 0.27611 0.48332 0.0
H1197 H 0.09837 0.29611 0.51519 0.0
H1198 H 0.97587 0.28566 0.58028 0.0
H1199 H 1.01862 0.29616 0.5552 0.0
C1200 C 0.70336 0.94164 0.06787 0.0
C1201 C 0.71801 0.92572 0.07822 0.0
C1202 C 0.71928 0.96225 0.0514 0.0
C1203 C 0.79434 0.02091 0.02908 0.0
H1204 H 0.74884 0.99276 0.97753 0.0
C1205 C 0.83738 0.10855 0.959 0.0
C1206 C 0.81156 0.10799 0.94746 0.0
C1207 C 0.83035 0.08414 0.97374 0.0
C1208 C 0.76185 1.00121 0.99179 0.0
H1209 H 0.76061 0.91829 0.07891 0.0
H1210 H 0.7894 0.95594 0.05038 0.0
H1211 H 0.72872 0.9549 1.00625 0.0
H1212 H 0.75811 0.08114 0.94239 0.0
H1213 H 0.74583 0.03962 0.9681 0.0
H1214 H 0.82614 0.06803 0.01512 0.0
C1215 C 0.76546 0.95221 0.05524 0.0
C1216 C 0.75046 0.97932 0.00817 0.0
C1217 C 0.74909 0.93087 0.07158 0.0
C1218 C 0.77871 0.08231 0.95086 0.0
C1219 C 0.77167 0.05816 0.96557 0.0
C1220 C 0.80551 0.04311 0.01273 0.0
C1221 C 0.75044 0.96779 0.04493 0.0
C1222 C 0.76614 0.98917 0.02705 0.0
C1223 C 0.79728 0.05874 0.97737 0.0
C1224 C 0.78879 0.03387 0.99398 0.0
H1225 H 0.67934 0.93807 0.07242 0.0
H1226 H 0.70722 0.97398 0.04367 0.0
H1227 H 0.80664 0.02912 0.04358 0.0
H1228 H 0.86292 0.12824 0.95694 0.0
H1229 H 0.8508 0.08534 0.98237 0.0
C1230 C 0.78178 0.71148 0.56947 0.0
C1231 C 0.81204 0.71152 0.56845 0.0
C1232 C 0.77335 0.72757 0.55474 0.0
C1233 C 0.80416 0.783 0.50913 0.0
H1234 H 0.71086 0.73116 0.4942 0.0
C1235 C 0.70607 0.76358 0.4398 0.0
C1236 C 0.71529 0.79651 0.43511 0.0
C1237 C 0.72127 0.75645 0.45572 0.0
C1238 C 0.73709 0.74587 0.49795 0.0
H1239 H 0.85805 0.72983 0.5518 0.0
H1240 H 0.84288 0.75698 0.52549 0.0
H1241 H 0.73125 0.71438 0.52281 0.0
H1242 H 0.74828 0.84801 0.44313 0.0
H1243 H 0.7746 0.83556 0.4715 0.0
H1244 H 0.80988 0.81366 0.48343 0.0
C1245 C 0.82586 0.74517 0.53792 0.0
C1246 C 0.74877 0.73656 0.51473 0.0
C1247 C 0.83459 0.72955 0.55297 0.0
C1248 C 0.74085 0.82238 0.44637 0.0
C1249 C 0.75594 0.8152 0.46258 0.0
C1250 C 0.79243 0.79225 0.49213 0.0
C1251 C 0.79453 0.74334 0.53821 0.0
C1252 C 0.78247 0.75486 0.52064 0.0
C1253 C 0.7457 0.78203 0.46777 0.0
C1254 C 0.75874 0.77353 0.48618 0.0
H1255 H 0.76408 0.69811 0.58137 0.0
H1256 H 0.74956 0.72657 0.55597 0.0
H1257 H 0.83022 0.79791 0.51325 0.0
H1258 H 0.68665 0.74313 0.43128 0.0
H1259 H 0.71337 0.73067 0.45879 0.0
C1260 C 0.94121 0.73153 0.95774 0.0
C1261 C 0.94436 0.71157 0.943 0.0
C1262 C 0.96664 0.74861 0.97204 0.0
C1263 C 0.0356 0.74174 0.99566 0.0
H1264 H 0.05767 0.82496 0.02166 0.0
C1265 C 0.11287 0.78036 0.0681 0.0
C1266 C 0.13833 0.81354 0.07018 0.0
C1267 C 0.08887 0.77107 0.05293 0.0
C1268 C 0.05197 0.80182 0.01444 0.0
H1269 H 0.9775 0.69586 0.9307 0.0
H1270 H 1.0221 0.7264 0.95494 0.0
H1271 H 1.01857 0.80495 0.99314 0.0
H1272 H 0.15838 0.86328 0.05829 0.0
H1273 H 0.11654 0.84694 0.03125 0.0
H1274 H 0.06923 0.73868 0.01641 0.0
C1275 C 0.99967 0.72805 0.95608 0.0
C1276 C 1.0293 0.79018 0.9982 0.0
C1277 C 0.97417 0.71069 0.94205 0.0
C1278 C 0.13882 0.83755 0.05706 0.0
C1279 C 0.11481 0.82816 0.04164 0.0
C1280 C 0.05818 0.75336 0.01171 0.0
C1281 C 0.99579 0.7462 0.97178 0.0
C1282 C 1.02075 0.75988 0.98862 0.0
C1283 C 0.08999 0.79459 0.03909 0.0
C1284 C 0.06648 0.78334 0.02152 0.0
H1285 H 0.91841 0.73253 0.95886 0.0
H1286 H 0.96265 0.76223 0.98389 0.0
H1287 H 1.02934 0.71804 0.98904 0.0
H1288 H 0.11176 0.76137 0.07809 0.0
H1289 H 0.06968 0.74517 0.05184 0.0
C1290 C 0.23944 0.90059 0.45992 0.0
C1291 C 0.2452 0.90998 0.43956 0.0
C1292 C 0.2477 0.9245 0.47505 0.0
C1293 C 0.26376 1.00806 0.48676 0.0
H1294 H 0.32397 1.00834 0.52756 0.0
C1295 C 0.32967 0.11549 0.54537 0.0
C1296 C 0.34034 0.10885 0.56374 0.0
C1297 C 0.31486 0.09072 0.53051 0.0
C1298 C 0.30652 1.00839 0.5167 0.0
H1299 H 0.26595 0.95173 0.41906 0.0
H1300 H 0.27881 0.99363 0.44546 0.0
H1301 H 0.30313 0.96622 0.50141 0.0
H1302 H 0.34148 0.07052 0.58167 0.0
H1303 H 0.31372 0.02692 0.55665 0.0
H1304 H 0.26615 0.04954 0.50233 0.0
C1305 C 0.26732 0.96769 0.44968 0.0
C1306 C 0.29481 0.98424 0.50153 0.0
C1307 C 0.25971 0.94376 0.43458 0.0
C1308 C 0.33406 0.07651 0.56748 0.0
C1309 C 0.31842 0.05156 0.55294 0.0
C1310 C 0.27488 0.03189 0.50226 0.0
C1311 C 0.26191 0.95833 0.47011 0.0
C1312 C 0.27343 0.98384 0.48636 0.0
C1313 C 0.3096 0.05844 0.53388 0.0
C1314 C 0.29658 0.03253 0.5175 0.0
H1315 H 0.22924 0.87479 0.46417 0.0
H1316 H 0.24347 0.91661 0.49067 0.0
H1317 H 0.24719 1.00825 0.47525 0.0
H1318 H 0.3343 0.14028 0.54209 0.0
H1319 H 0.3088 0.09742 0.51612 0.0
loop_
_geom_bond_atom_site_label_1
_geom_bond_atom_site_label_2
_geom_bond_distance
_geom_bond_site_symmetry_2
_ccdc_geom_bond_type
O0 Tb1 2.506 . S
O0 C14 1.265 . S
Tb1 O0 2.506 . S
Tb1 O6 2.312 . S
Tb1 O10 2.271 . S
Tb1 O12 2.338 . S
Tb1 O19 2.441 . S
C2 O10 1.252 . S
C2 O11 1.253 . S
O3 Tb4 2.271 . S
O3 C13 1.252 . S
Tb4 O3 2.271 . S
Tb4 O7 2.338 . S
Tb4 O11 2.312 . S
Tb4 O15 2.441 . S
Tb4 O16 2.506 . S
C5 O15 1.244 . S
C5 O16 1.265 . S
O6 Tb1 2.312 . S
O6 C13 1.253 . S
O7 Tb4 2.338 . S
O7 C8 1.258 . S
C8 O7 1.258 . S
C8 O9 1.251 . S
O9 C8 1.251 . S
O10 Tb1 2.271 . S
O10 C2 1.252 . S
O11 C2 1.253 . S
O11 Tb4 2.312 . S
O12 Tb1 2.338 . S
O12 C17 1.258 . S
C13 O3 1.252 . S
C13 O6 1.253 . S
C14 O0 1.265 . S
C14 O19 1.244 . S
O15 Tb4 2.441 . S
O15 C5 1.244 . S
O16 Tb4 2.506 . S
O16 C5 1.265 . S
C17 O12 1.258 . S
C17 O18 1.251 . S
O18 C17 1.251 . S
O19 Tb1 2.441 . S
O19 C14 1.244 . S
O20 Tb21 2.506 . S
O20 C34 1.265 . S
Tb21 O20 2.506 . S
Tb21 O26 2.312 . S
Tb21 O30 2.271 . S
Tb21 O32 2.338 . S
Tb21 O39 2.441 . S
C22 O30 1.252 . S
C22 O31 1.253 . S
O23 Tb24 2.271 . S
O23 C33 1.252 . S
Tb24 O23 2.271 . S
Tb24 O27 2.338 . S
Tb24 O31 2.312 . S
Tb24 O35 2.441 . S
Tb24 O36 2.506 . S
C25 O35 1.244 . S
C25 O36 1.265 . S
O26 Tb21 2.312 . S
O26 C33 1.253 . S
O27 Tb24 2.338 . S
O27 C28 1.258 . S
C28 O27 1.258 . S
C28 O29 1.251 . S
O29 C28 1.251 . S
O30 Tb21 2.271 . S
O30 C22 1.252 . S
O31 C22 1.253 . S
O31 Tb24 2.312 . S
O32 Tb21 2.338 . S
O32 C37 1.258 . S
C33 O23 1.252 . S
C33 O26 1.253 . S
C34 O20 1.265 . S
C34 O39 1.244 . S
O35 Tb24 2.441 . S
O35 C25 1.244 . S
O36 Tb24 2.506 . S
O36 C25 1.265 . S
C37 O32 1.258 . S
C37 O38 1.251 . S
O38 C37 1.251 . S
O39 Tb21 2.441 . S
O39 C34 1.244 . S
O40 Tb41 2.506 . S
O40 C54 1.265 . S
Tb41 O40 2.506 . S
Tb41 O46 2.312 . S
Tb41 O50 2.271 . S
Tb41 O52 2.338 . S
Tb41 O59 2.441 . S
C42 O50 1.252 . S
C42 O51 1.253 . S
O43 Tb44 2.271 . S
O43 C53 1.252 . S
Tb44 O43 2.271 . S
Tb44 O47 2.338 . S
Tb44 O51 2.312 . S
Tb44 O55 2.441 . S
Tb44 O56 2.506 . S
C45 O55 1.244 . S
C45 O56 1.265 . S
O46 Tb41 2.312 . S
O46 C53 1.253 . S
O47 Tb44 2.338 . S
O47 C48 1.258 . S
C48 O47 1.258 . S
C48 O49 1.251 . S
O49 C48 1.251 . S
O50 Tb41 2.271 . S
O50 C42 1.252 . S
O51 C42 1.253 . S
O51 Tb44 2.312 . S
O52 Tb41 2.338 . S
O52 C57 1.258 . S
C53 O43 1.252 . S
C53 O46 1.253 . S
C54 O40 1.265 . S
C54 O59 1.244 . S
O55 Tb44 2.441 . S
O55 C45 1.244 . S
O56 Tb44 2.506 . S
O56 C45 1.265 . S
C57 O52 1.258 . S
C57 O58 1.251 . S
O58 C57 1.251 . S
O59 Tb41 2.441 . S
O59 C54 1.244 . S
O60 Tb61 2.506 . S
O60 C74 1.265 . S
Tb61 O60 2.506 . S
Tb61 O66 2.312 . S
Tb61 O70 2.271 . S
Tb61 O72 2.338 . S
Tb61 O79 2.441 . S
C62 O70 1.252 . S
C62 O71 1.253 . S
O63 Tb64 2.271 . S
O63 C73 1.252 . S
Tb64 O63 2.271 . S
Tb64 O67 2.338 . S
Tb64 O71 2.312 . S
Tb64 O75 2.441 . S
Tb64 O76 2.506 . S
C65 O75 1.244 . S
C65 O76 1.265 . S
O66 Tb61 2.312 . S
O66 C73 1.253 . S
O67 Tb64 2.338 . S
O67 C68 1.258 . S
C68 O67 1.258 . S
C68 O69 1.251 . S
O69 C68 1.251 . S
O70 Tb61 2.271 . S
O70 C62 1.252 . S
O71 C62 1.253 . S
O71 Tb64 2.312 . S
O72 Tb61 2.338 . S
O72 C77 1.258 . S
C73 O63 1.252 . S
C73 O66 1.253 . S
C74 O60 1.265 . S
C74 O79 1.244 . S
O75 Tb64 2.441 . S
O75 C65 1.244 . S
O76 Tb64 2.506 . S
O76 C65 1.265 . S
C77 O72 1.258 . S
C77 O78 1.251 . S
O78 C77 1.251 . S
O79 Tb61 2.441 . S
O79 C74 1.244 . S
O80 Tb81 2.506 . S
O80 C94 1.265 . S
Tb81 O80 2.506 . S
Tb81 O86 2.312 . S
Tb81 O90 2.271 . S
Tb81 O92 2.338 . S
Tb81 O99 2.441 . S
C82 O90 1.252 . S
C82 O91 1.253 . S
O83 Tb84 2.271 . S
O83 C93 1.252 . S
Tb84 O83 2.271 . S
Tb84 O87 2.338 . S
Tb84 O91 2.312 . S
Tb84 O95 2.441 . S
Tb84 O96 2.506 . S
C85 O95 1.244 . S
C85 O96 1.265 . S
O86 Tb81 2.312 . S
O86 C93 1.253 . S
O87 Tb84 2.338 . S
O87 C88 1.258 . S
C88 O87 1.258 . S
C88 O89 1.251 . S
O89 C88 1.251 . S
O90 Tb81 2.271 . S
O90 C82 1.252 . S
O91 C82 1.253 . S
O91 Tb84 2.312 . S
O92 Tb81 2.338 . S
O92 C97 1.258 . S
C93 O83 1.252 . S
C93 O86 1.253 . S
C94 O80 1.265 . S
C94 O99 1.244 . S
O95 Tb84 2.441 . S
O95 C85 1.244 . S
O96 Tb84 2.506 . S
O96 C85 1.265 . S
C97 O92 1.258 . S
C97 O98 1.251 . S
O98 C97 1.251 . S
O99 Tb81 2.441 . S
O99 C94 1.244 . S
O100 Tb101 2.506 . S
O100 C114 1.265 . S
Tb101 O100 2.506 . S
Tb101 O106 2.312 . S
Tb101 O110 2.271 . S
Tb101 O112 2.338 . S
Tb101 O119 2.441 . S
C102 O110 1.252 . S
C102 O111 1.253 . S
O103 Tb104 2.271 . S
O103 C113 1.252 . S
Tb104 O103 2.271 . S
Tb104 O107 2.338 . S
Tb104 O111 2.312 . S
Tb104 O115 2.441 . S
Tb104 O116 2.506 . S
C105 O115 1.244 . S
C105 O116 1.265 . S
O106 Tb101 2.312 . S
O106 C113 1.253 . S
O107 Tb104 2.338 . S
O107 C108 1.258 . S
C108 O107 1.258 . S
C108 O109 1.251 . S
O109 C108 1.251 . S
O110 Tb101 2.271 . S
O110 C102 1.252 . S
O111 C102 1.253 . S
O111 Tb104 2.312 . S
O112 Tb101 2.338 . S
O112 C117 1.258 . S
C113 O103 1.252 . S
C113 O106 1.253 . S
C114 O100 1.265 . S
C114 O119 1.244 . S
O115 Tb104 2.441 . S
O115 C105 1.244 . S
O116 Tb104 2.506 . S
O116 C105 1.265 . S
C117 O112 1.258 . S
C117 O118 1.251 . S
O118 C117 1.251 . S
O119 Tb101 2.441 . S
O119 C114 1.244 . S
O120 Tb121 2.506 . S
O120 C134 1.265 . S
Tb121 O120 2.506 . S
Tb121 O126 2.312 . S
Tb121 O130 2.271 . S
Tb121 O132 2.338 . S
Tb121 O139 2.441 . S
C122 O130 1.252 . S
C122 O131 1.253 . S
O123 Tb124 2.271 . S
O123 C133 1.252 . S
Tb124 O123 2.271 . S
Tb124 O127 2.338 . S
Tb124 O131 2.312 . S
Tb124 O135 2.441 . S
Tb124 O136 2.506 . S
C125 O135 1.244 . S
C125 O136 1.265 . S
O126 Tb121 2.312 . S
O126 C133 1.253 . S
O127 Tb124 2.338 . S
O127 C128 1.258 . S
C128 O127 1.258 . S
C128 O129 1.251 . S
O129 C128 1.251 . S
O130 Tb121 2.271 . S
O130 C122 1.252 . S
O131 C122 1.253 . S
O131 Tb124 2.312 . S
O132 Tb121 2.338 . S
O132 C137 1.258 . S
C133 O123 1.252 . S
C133 O126 1.253 . S
C134 O120 1.265 . S
C134 O139 1.244 . S
O135 Tb124 2.441 . S
O135 C125 1.244 . S
O136 Tb124 2.506 . S
O136 C125 1.265 . S
C137 O132 1.258 . S
C137 O138 1.251 . S
O138 C137 1.251 . S
O139 Tb121 2.441 . S
O139 C134 1.244 . S
O140 Tb141 2.506 . S
O140 C154 1.265 . S
Tb141 O140 2.506 . S
Tb141 O146 2.312 . S
Tb141 O150 2.271 . S
Tb141 O152 2.338 . S
Tb141 O159 2.441 . S
C142 O150 1.252 . S
C142 O151 1.253 . S
O143 Tb144 2.271 . S
O143 C153 1.252 . S
Tb144 O143 2.271 . S
Tb144 O147 2.338 . S
Tb144 O151 2.312 . S
Tb144 O155 2.441 . S
Tb144 O156 2.506 . S
C145 O155 1.244 . S
C145 O156 1.265 . S
O146 Tb141 2.312 . S
O146 C153 1.253 . S
O147 Tb144 2.338 . S
O147 C148 1.258 . S
C148 O147 1.258 . S
C148 O149 1.251 . S
O149 C148 1.251 . S
O150 Tb141 2.271 . S
O150 C142 1.252 . S
O151 C142 1.253 . S
O151 Tb144 2.312 . S
O152 Tb141 2.338 . S
O152 C157 1.258 . S
C153 O143 1.252 . S
C153 O146 1.253 . S
C154 O140 1.265 . S
C154 O159 1.244 . S
O155 Tb144 2.441 . S
O155 C145 1.244 . S
O156 Tb144 2.506 . S
O156 C145 1.265 . S
C157 O152 1.258 . S
C157 O158 1.251 . S
O158 C157 1.251 . S
O159 Tb141 2.441 . S
O159 C154 1.244 . S
O160 Tb161 2.506 . S
O160 C174 1.265 . S
Tb161 O160 2.506 . S
Tb161 O166 2.312 . S
Tb161 O170 2.271 . S
Tb161 O172 2.338 . S
Tb161 O179 2.441 . S
C162 O170 1.252 . S
C162 O171 1.253 . S
O163 Tb164 2.271 . S
O163 C173 1.252 . S
Tb164 O163 2.271 . S
Tb164 O167 2.338 . S
Tb164 O171 2.312 . S
Tb164 O175 2.441 . S
Tb164 O176 2.506 . S
C165 O175 1.244 . S
C165 O176 1.265 . S
O166 Tb161 2.312 . S
O166 C173 1.253 . S
O167 Tb164 2.338 . S
O167 C168 1.258 . S
C168 O167 1.258 . S
C168 O169 1.251 . S
O169 C168 1.251 . S
O170 Tb161 2.271 . S
O170 C162 1.252 . S
O171 C162 1.253 . S
O171 Tb164 2.312 . S
O172 Tb161 2.338 . S
O172 C177 1.258 . S
C173 O163 1.252 . S
C173 O166 1.253 . S
C174 O160 1.265 . S
C174 O179 1.244 . S
O175 Tb164 2.441 . S
O175 C165 1.244 . S
O176 Tb164 2.506 . S
O176 C165 1.265 . S
C177 O172 1.258 . S
C177 O178 1.251 . S
O178 C177 1.251 . S
O179 Tb161 2.441 . S
O179 C174 1.244 . S
O180 Tb181 2.506 . S
O180 C194 1.265 . S
Tb181 O180 2.506 . S
Tb181 O186 2.312 . S
Tb181 O190 2.271 . S
Tb181 O192 2.338 . S
Tb181 O199 2.441 . S
C182 O190 1.252 . S
C182 O191 1.253 . S
O183 Tb184 2.271 . S
O183 C193 1.252 . S
Tb184 O183 2.271 . S
Tb184 O187 2.338 . S
Tb184 O191 2.312 . S
Tb184 O195 2.441 . S
Tb184 O196 2.506 . S
C185 O195 1.244 . S
C185 O196 1.265 . S
O186 Tb181 2.312 . S
O186 C193 1.253 . S
O187 Tb184 2.338 . S
O187 C188 1.258 . S
C188 O187 1.258 . S
C188 O189 1.251 . S
O189 C188 1.251 . S
O190 Tb181 2.271 . S
O190 C182 1.252 . S
O191 C182 1.253 . S
O191 Tb184 2.312 . S
O192 Tb181 2.338 . S
O192 C197 1.258 . S
C193 O183 1.252 . S
C193 O186 1.253 . S
C194 O180 1.265 . S
C194 O199 1.244 . S
O195 Tb184 2.441 . S
O195 C185 1.244 . S
O196 Tb184 2.506 . S
O196 C185 1.265 . S
C197 O192 1.258 . S
C197 O198 1.251 . S
O198 C197 1.251 . S
O199 Tb181 2.441 . S
O199 C194 1.244 . S
O200 Tb201 2.506 . S
O200 C214 1.265 . S
Tb201 O200 2.506 . S
Tb201 O206 2.312 . S
Tb201 O210 2.271 . S
Tb201 O212 2.338 . S
Tb201 O219 2.441 . S
C202 O210 1.252 . S
C202 O211 1.253 . S
O203 Tb204 2.271 . S
O203 C213 1.252 . S
Tb204 O203 2.271 . S
Tb204 O207 2.338 . S
Tb204 O211 2.312 . S
Tb204 O215 2.441 . S
Tb204 O216 2.506 . S
C205 O215 1.244 . S
C205 O216 1.265 . S
O206 Tb201 2.312 . S
O206 C213 1.253 . S
O207 Tb204 2.338 . S
O207 C208 1.258 . S
C208 O207 1.258 . S
C208 O209 1.251 . S
O209 C208 1.251 . S
O210 Tb201 2.271 . S
O210 C202 1.252 . S
O211 C202 1.253 . S
O211 Tb204 2.312 . S
O212 Tb201 2.338 . S
O212 C217 1.258 . S
C213 O203 1.252 . S
C213 O206 1.253 . S
C214 O200 1.265 . S
C214 O219 1.244 . S
O215 Tb204 2.441 . S
O215 C205 1.244 . S
O216 Tb204 2.506 . S
O216 C205 1.265 . S
C217 O212 1.258 . S
C217 O218 1.251 . S
O218 C217 1.251 . S
O219 Tb201 2.441 . S
O219 C214 1.244 . S
O220 Tb221 2.506 . S
O220 C234 1.265 . S
Tb221 O220 2.506 . S
Tb221 O226 2.312 . S
Tb221 O230 2.271 . S
Tb221 O232 2.338 . S
Tb221 O239 2.441 . S
C222 O230 1.252 . S
C222 O231 1.253 . S
O223 Tb224 2.271 . S
O223 C233 1.252 . S
Tb224 O223 2.271 . S
Tb224 O227 2.338 . S
Tb224 O231 2.312 . S
Tb224 O235 2.441 . S
Tb224 O236 2.506 . S
C225 O235 1.244 . S
C225 O236 1.265 . S
O226 Tb221 2.312 . S
O226 C233 1.253 . S
O227 Tb224 2.338 . S
O227 C228 1.258 . S
C228 O227 1.258 . S
C228 O229 1.251 . S
O229 C228 1.251 . S
O230 Tb221 2.271 . S
O230 C222 1.252 . S
O231 C222 1.253 . S
O231 Tb224 2.312 . S
O232 Tb221 2.338 . S
O232 C237 1.258 . S
C233 O223 1.252 . S
C233 O226 1.253 . S
C234 O220 1.265 . S
C234 O239 1.244 . S
O235 Tb224 2.441 . S
O235 C225 1.244 . S
O236 Tb224 2.506 . S
O236 C225 1.265 . S
C237 O232 1.258 . S
C237 O238 1.251 . S
O238 C237 1.251 . S
O239 Tb221 2.441 . S
O239 C234 1.244 . S
C240 C241 1.349 . S
C240 C242 1.327 . S
C240 H265 0.950 . S
C241 C240 1.349 . S
C241 C257 1.349 . S
C242 C240 1.327 . S
C242 C261 1.429 . S
C242 H266 0.950 . S
C243 C260 1.574 . S
C243 C262 1.368 . S
C243 H267 0.949 . S
H244 C248 0.949 . S
C245 C246 1.349 . S
C245 C247 1.327 . S
C245 H268 0.950 . S
C246 C245 1.349 . S
C246 C258 1.349 . S
C247 C245 1.327 . S
C247 C263 1.429 . S
C247 H269 0.950 . S
C248 H244 0.949 . S
C248 C256 1.574 . S
C248 C264 1.368 . S
H249 C257 0.950 . S
H250 C255 0.950 . S
H251 C256 0.949 . S
H252 C258 0.950 . S
H253 C259 0.950 . S
H254 C260 0.949 . S
C255 H250 0.950 . S
C255 C257 1.327 . S
C255 C261 1.429 . S
C256 C248 1.574 . S
C256 H251 0.949 . S
C256 C262 1.368 . S
C257 C241 1.349 . S
C257 H249 0.950 . S
C257 C255 1.327 . S
C258 C246 1.349 . S
C258 H252 0.950 . S
C258 C259 1.327 . S
C259 H253 0.950 . S
C259 C258 1.327 . S
C259 C263 1.429 . S
C260 C243 1.574 . S
C260 H254 0.949 . S
C260 C264 1.368 . S
C261 C242 1.429 . S
C261 C255 1.429 . S
C261 C262 1.523 1_565 S
C262 C243 1.368 . S
C262 C256 1.368 . S
C262 C261 1.523 1_545 S
C263 C247 1.429 . S
C263 C259 1.429 . S
C263 C264 1.523 . S
C264 C248 1.368 . S
C264 C260 1.368 . S
C264 C263 1.523 . S
H265 C240 0.950 . S
H266 C242 0.950 . S
H267 C243 0.949 . S
H268 C245 0.950 . S
H269 C247 0.950 . S
C270 C271 1.349 . S
C270 C272 1.327 . S
C270 H295 0.950 . S
C271 C270 1.349 . S
C271 C287 1.349 . S
C272 C270 1.327 . S
C272 C291 1.429 . S
C272 H296 0.950 . S
C273 C290 1.574 . S
C273 C292 1.368 . S
C273 H297 0.949 . S
H274 C278 0.949 . S
C275 C276 1.349 . S
C275 C277 1.327 1_655 S
C275 H298 0.950 . S
C276 C275 1.349 . S
C276 C288 1.349 . S
C277 C275 1.327 1_455 S
C277 C293 1.429 . S
C277 H299 0.950 . S
C278 H274 0.949 . S
C278 C286 1.574 . S
C278 C294 1.368 . S
H279 C287 0.950 . S
H280 C285 0.950 . S
H281 C286 0.949 . S
H282 C288 0.950 . S
H283 C289 0.950 . S
H284 C290 0.949 . S
C285 H280 0.950 . S
C285 C287 1.327 . S
C285 C291 1.429 . S
C286 C278 1.574 . S
C286 H281 0.949 . S
C286 C292 1.368 . S
C287 C271 1.349 . S
C287 H279 0.950 . S
C287 C285 1.327 . S
C288 C276 1.349 . S
C288 H282 0.950 . S
C288 C289 1.327 1_655 S
C289 H283 0.950 . S
C289 C288 1.327 1_455 S
C289 C293 1.429 . S
C290 C273 1.574 . S
C290 H284 0.949 . S
C290 C294 1.368 . S
C291 C272 1.429 . S
C291 C285 1.429 . S
C291 C292 1.523 . S
C292 C273 1.368 . S
C292 C286 1.368 . S
C292 C291 1.523 . S
C293 C277 1.429 . S
C293 C289 1.429 . S
C293 C294 1.523 . S
C294 C278 1.368 . S
C294 C290 1.368 . S
C294 C293 1.523 . S
H295 C270 0.950 . S
H296 C272 0.950 . S
H297 C273 0.949 . S
H298 C275 0.950 . S
H299 C277 0.950 . S
C300 C301 1.349 . S
C300 C302 1.327 1_565 S
C300 H325 0.950 . S
C301 C300 1.349 . S
C301 C317 1.349 . S
C302 C300 1.327 1_545 S
C302 C321 1.429 . S
C302 H326 0.950 . S
C303 C320 1.574 . S
C303 C322 1.368 . S
C303 H327 0.949 . S
H304 C308 0.949 . S
C305 C306 1.349 . S
C305 C307 1.327 . S
C305 H328 0.950 . S
C306 C305 1.349 . S
C306 C318 1.349 . S
C307 C305 1.327 . S
C307 C323 1.429 . S
C307 H329 0.950 . S
C308 H304 0.949 . S
C308 C316 1.574 . S
C308 C324 1.368 . S
H309 C317 0.950 . S
H310 C315 0.950 . S
H311 C316 0.949 . S
H312 C318 0.950 . S
H313 C319 0.950 . S
H314 C320 0.949 . S
C315 H310 0.950 . S
C315 C317 1.327 1_545 S
C315 C321 1.429 . S
C316 C308 1.574 . S
C316 H311 0.949 . S
C316 C322 1.368 . S
C317 C301 1.349 . S
C317 H309 0.950 . S
C317 C315 1.327 1_565 S
C318 C306 1.349 . S
C318 H312 0.950 . S
C318 C319 1.327 . S
C319 H313 0.950 . S
C319 C318 1.327 . S
C319 C323 1.429 . S
C320 C303 1.574 . S
C320 H314 0.949 . S
C320 C324 1.368 . S
C321 C302 1.429 . S
C321 C315 1.429 . S
C321 C322 1.523 . S
C322 C303 1.368 . S
C322 C316 1.368 . S
C322 C321 1.523 . S
C323 C307 1.429 . S
C323 C319 1.429 . S
C323 C324 1.523 1_455 S
C324 C308 1.368 . S
C324 C320 1.368 . S
C324 C323 1.523 1_655 S
H325 C300 0.950 . S
H326 C302 0.950 . S
H327 C303 0.949 . S
H328 C305 0.950 . S
H329 C307 0.950 . S
C330 C331 1.349 . S
C330 C332 1.327 . S
C330 H355 0.950 . S
C331 C330 1.349 . S
C331 C347 1.349 . S
C332 C330 1.327 . S
C332 C351 1.429 . S
C332 H356 0.950 . S
C333 C350 1.574 . S
C333 C352 1.368 . S
C333 H357 0.949 . S
H334 C338 0.949 1_545 S
C335 C336 1.349 . S
C335 C337 1.327 . S
C335 H358 0.950 . S
C336 C335 1.349 . S
C336 C348 1.349 . S
C337 C335 1.327 . S
C337 C353 1.429 . S
C337 H359 0.950 1_545 S
C338 H334 0.949 1_565 S
C338 C346 1.574 . S
C338 C354 1.368 . S
H339 C347 0.950 . S
H340 C345 0.950 . S
H341 C346 0.949 . S
H342 C348 0.950 . S
H343 C349 0.950 . S
H344 C350 0.949 . S
C345 H340 0.950 . S
C345 C347 1.327 . S
C345 C351 1.429 . S
C346 C338 1.574 . S
C346 H341 0.949 . S
C346 C352 1.368 . S
C347 C331 1.349 . S
C347 H339 0.950 . S
C347 C345 1.327 . S
C348 C336 1.349 . S
C348 H342 0.950 . S
C348 C349 1.327 . S
C349 H343 0.950 . S
C349 C348 1.327 . S
C349 C353 1.429 . S
C350 C333 1.574 . S
C350 H344 0.949 . S
C350 C354 1.368 . S
C351 C332 1.429 . S
C351 C345 1.429 . S
C351 C352 1.523 . S
C352 C333 1.368 . S
C352 C346 1.368 . S
C352 C351 1.523 . S
C353 C337 1.429 . S
C353 C349 1.429 . S
C353 C354 1.523 1_545 S
C354 C338 1.368 . S
C354 C350 1.368 . S
C354 C353 1.523 1_565 S
H355 C330 0.950 . S
H356 C332 0.950 . S
H357 C333 0.949 . S
H358 C335 0.950 . S
H359 C337 0.950 1_565 S
C360 C361 1.349 1_655 S
C360 C362 1.327 . S
C360 H385 0.950 . S
C361 C360 1.349 1_455 S
C361 C377 1.349 . S
C362 C360 1.327 . S
C362 C381 1.429 . S
C362 H386 0.950 . S
C363 C380 1.574 . S
C363 C382 1.368 . S
C363 H387 0.949 . S
H364 C368 0.949 . S
C365 C366 1.349 . S
C365 C367 1.327 . S
C365 H388 0.950 . S
C366 C365 1.349 . S
C366 C378 1.349 . S
C367 C365 1.327 . S
C367 C383 1.429 . S
C367 H389 0.950 . S
C368 H364 0.949 . S
C368 C376 1.574 . S
C368 C384 1.368 . S
H369 C377 0.950 . S
H370 C375 0.949 1_455 S
H371 C376 0.949 . S
H372 C378 0.950 . S
H373 C379 0.950 . S
H374 C380 0.949 . S
C375 H370 0.949 1_655 S
C375 C377 1.328 1_655 S
C375 C381 1.428 . S
C376 C368 1.574 . S
C376 H371 0.949 . S
C376 C382 1.368 . S
C377 C361 1.349 . S
C377 H369 0.950 . S
C377 C375 1.328 1_455 S
C378 C366 1.349 . S
C378 H372 0.950 . S
C378 C379 1.327 . S
C379 H373 0.950 . S
C379 C378 1.327 . S
C379 C383 1.429 . S
C380 C363 1.574 . S
C380 H374 0.949 . S
C380 C384 1.368 . S
C381 C362 1.429 . S
C381 C375 1.428 . S
C381 C382 1.523 . S
C382 C363 1.368 . S
C382 C376 1.368 . S
C382 C381 1.523 . S
C383 C367 1.429 . S
C383 C379 1.429 . S
C383 C384 1.523 . S
C384 C368 1.368 . S
C384 C380 1.368 . S
C384 C383 1.523 . S
H385 C360 0.950 . S
H386 C362 0.950 . S
H387 C363 0.949 . S
H388 C365 0.950 . S
H389 C367 0.950 . S
C390 C391 1.349 . S
C390 C392 1.327 . S
C390 H415 0.950 . S
C391 C390 1.349 . S
C391 C407 1.349 . S
C392 C390 1.327 . S
C392 C411 1.429 . S
C392 H416 0.950 . S
C393 C410 1.574 . S
C393 C412 1.368 . S
C393 H417 0.949 . S
H394 C398 0.949 . S
C395 C396 1.349 . S
C395 C397 1.327 1_545 S
C395 H418 0.950 . S
C396 C395 1.349 . S
C396 C408 1.349 . S
C397 C395 1.327 1_565 S
C397 C413 1.429 . S
C397 H419 0.950 . S
C398 H394 0.949 . S
C398 C406 1.574 . S
C398 C414 1.368 . S
H399 C407 0.950 . S
H400 C405 0.950 1_455 S
H401 C406 0.949 1_655 S
H402 C408 0.950 . S
H403 C409 0.950 . S
H404 C410 0.949 . S
C405 H400 0.950 1_655 S
C405 C407 1.327 . S
C405 C411 1.429 . S
C406 C398 1.574 . S
C406 H401 0.949 1_455 S
C406 C412 1.368 . S
C407 C391 1.349 . S
C407 H399 0.950 . S
C407 C405 1.327 . S
C408 C396 1.349 . S
C408 H402 0.950 . S
C408 C409 1.327 1_545 S
C409 H403 0.950 . S
C409 C408 1.327 1_565 S
C409 C413 1.429 . S
C410 C393 1.574 . S
C410 H404 0.949 . S
C410 C414 1.368 . S
C411 C392 1.429 . S
C411 C405 1.429 . S
C411 C412 1.523 1_655 S
C412 C393 1.368 . S
C412 C406 1.368 . S
C412 C411 1.523 1_455 S
C413 C397 1.429 . S
C413 C409 1.429 . S
C413 C414 1.523 . S
C414 C398 1.368 . S
C414 C410 1.368 . S
C414 C413 1.523 . S
H415 C390 0.950 . S
H416 C392 0.950 . S
H417 C393 0.949 . S
H418 C395 0.950 . S
H419 C397 0.950 . S
C420 C421 1.349 . S
C420 C422 1.327 . S
C420 H445 0.950 . S
C421 C420 1.349 . S
C421 C437 1.349 . S
C422 C420 1.327 . S
C422 C441 1.429 . S
C422 H446 0.950 . S
C423 C440 1.574 . S
C423 C442 1.368 . S
C423 H447 0.949 . S
H424 C428 0.949 . S
C425 C426 1.349 . S
C425 C427 1.327 . S
C425 H448 0.950 . S
C426 C425 1.349 . S
C426 C438 1.349 . S
C427 C425 1.327 . S
C427 C443 1.429 . S
C427 H449 0.950 . S
C428 H424 0.949 . S
C428 C436 1.574 . S
C428 C444 1.368 . S
H429 C437 0.950 . S
H430 C435 0.950 1_655 S
H431 C436 0.959 . S
H432 C438 0.950 . S
H433 C439 0.950 . S
H434 C440 0.949 . S
C435 H430 0.950 1_455 S
C435 C437 1.327 . S
C435 C441 1.429 . S
C436 C428 1.574 . S
C436 H431 0.959 . S
C436 C442 1.368 . S
C437 C421 1.349 . S
C437 H429 0.950 . S
C437 C435 1.327 . S
C438 C426 1.349 . S
C438 H432 0.950 . S
C438 C439 1.327 . S
C439 H433 0.950 . S
C439 C438 1.327 . S
C439 C443 1.429 . S
C440 C423 1.574 . S
C440 H434 0.949 . S
C440 C444 1.368 . S
C441 C422 1.429 . S
C441 C435 1.429 . S
C441 C442 1.523 1_455 S
C442 C423 1.368 . S
C442 C436 1.368 . S
C442 C441 1.523 1_655 S
C443 C427 1.429 . S
C443 C439 1.429 . S
C443 C444 1.523 . S
C444 C428 1.368 . S
C444 C440 1.368 . S
C444 C443 1.523 . S
H445 C420 0.950 . S
H446 C422 0.950 . S
H447 C423 0.949 . S
H448 C425 0.950 . S
H449 C427 0.950 . S
C450 C451 1.349 . S
C450 C452 1.327 1_655 S
C450 H475 0.950 . S
C451 C450 1.349 . S
C451 C467 1.349 . S
C452 C450 1.327 1_455 S
C452 C471 1.429 . S
C452 H476 0.950 . S
C453 C470 1.574 . S
C453 C472 1.368 . S
C453 H477 0.949 . S
H454 C458 0.949 . S
C455 C456 1.349 . S
C455 C457 1.327 . S
C455 H478 0.950 . S
C456 C455 1.349 . S
C456 C468 1.349 . S
C457 C455 1.327 . S
C457 C473 1.429 . S
C457 H479 0.950 . S
C458 H454 0.949 . S
C458 C466 1.574 . S
C458 C474 1.368 . S
H459 C467 0.950 . S
H460 C465 0.950 . S
H461 C466 0.949 . S
H462 C468 0.950 . S
H463 C469 0.950 1_565 S
H464 C470 0.933 1_545 S
C465 H460 0.950 . S
C465 C467 1.327 1_455 S
C465 C471 1.429 . S
C466 C458 1.574 . S
C466 H461 0.949 . S
C466 C472 1.368 . S
C467 C451 1.349 . S
C467 H459 0.950 . S
C467 C465 1.327 1_655 S
C468 C456 1.349 . S
C468 H462 0.950 . S
C468 C469 1.327 . S
C469 H463 0.950 1_545 S
C469 C468 1.327 . S
C469 C473 1.429 . S
C470 C453 1.574 . S
C470 H464 0.933 1_565 S
C470 C474 1.368 . S
C471 C452 1.429 . S
C471 C465 1.429 . S
C471 C472 1.523 . S
C472 C453 1.368 . S
C472 C466 1.368 . S
C472 C471 1.523 . S
C473 C457 1.429 . S
C473 C469 1.429 . S
C473 C474 1.523 1_545 S
C474 C458 1.368 . S
C474 C470 1.368 . S
C474 C473 1.523 1_565 S
H475 C450 0.950 . S
H476 C452 0.950 . S
H477 C453 0.949 . S
H478 C455 0.950 . S
H479 C457 0.950 . S
C480 C481 1.349 . S
C480 C482 1.327 . S
C480 H505 0.950 . S
C481 C480 1.349 . S
C481 C497 1.349 . S
C482 C480 1.327 . S
C482 C501 1.429 . S
C482 H506 0.950 . S
C483 C500 1.574 . S
C483 C502 1.368 . S
C483 H507 0.949 . S
H484 C488 0.949 . S
C485 C486 1.349 . S
C485 C487 1.332 1_565 S
C485 H508 0.950 . S
C486 C485 1.349 . S
C486 C498 1.349 1_565 S
C487 C485 1.332 1_545 S
C487 C503 1.426 . S
C487 H509 0.948 1_545 S
C488 H484 0.949 . S
C488 C496 1.574 . S
C488 C504 1.368 . S
H489 C497 0.950 . S
H490 C495 0.950 . S
H491 C496 0.949 . S
H492 C498 0.950 . S
H493 C499 0.950 . S
H494 C500 0.949 . S
C495 H490 0.950 . S
C495 C497 1.327 . S
C495 C501 1.429 . S
C496 C488 1.574 . S
C496 H491 0.949 . S
C496 C502 1.368 . S
C497 C481 1.349 . S
C497 H489 0.950 . S
C497 C495 1.327 . S
C498 C486 1.349 1_545 S
C498 H492 0.950 . S
C498 C499 1.327 . S
C499 H493 0.950 . S
C499 C498 1.327 . S
C499 C503 1.429 . S
C500 C483 1.574 . S
C500 H494 0.949 . S
C500 C504 1.368 . S
C501 C482 1.429 . S
C501 C495 1.429 . S
C501 C502 1.523 . S
C502 C483 1.368 . S
C502 C496 1.368 . S
C502 C501 1.523 . S
C503 C487 1.426 . S
C503 C499 1.429 . S
C503 C504 1.523 . S
C504 C488 1.368 . S
C504 C500 1.368 . S
C504 C503 1.523 . S
H505 C480 0.950 . S
H506 C482 0.950 . S
H507 C483 0.949 . S
H508 C485 0.950 . S
H509 C487 0.948 1_565 S
C510 C511 1.349 . S
C510 C512 1.327 . S
C510 H535 0.950 . S
C511 C510 1.349 . S
C511 C527 1.349 . S
C512 C510 1.327 . S
C512 C531 1.429 . S
C512 H536 0.950 . S
C513 C530 1.574 . S
C513 C532 1.368 . S
C513 H537 0.949 . S
H514 C518 0.949 . S
C515 C516 1.349 . S
C515 C517 1.327 . S
C515 H538 0.950 . S
C516 C515 1.349 . S
C516 C528 1.349 . S
C517 C515 1.327 . S
C517 C533 1.429 . S
C517 H539 0.950 . S
C518 H514 0.949 . S
C518 C526 1.574 . S
C518 C534 1.368 . S
H519 C527 0.950 . S
H520 C525 0.950 . S
H521 C526 0.949 . S
H522 C528 0.950 . S
H523 C529 0.950 1_455 S
H524 C530 0.949 1_655 S
C525 H520 0.950 . S
C525 C527 1.327 . S
C525 C531 1.429 . S
C526 C518 1.574 . S
C526 H521 0.949 . S
C526 C532 1.368 . S
C527 C511 1.349 . S
C527 H519 0.950 . S
C527 C525 1.327 . S
C528 C516 1.349 . S
C528 H522 0.950 . S
C528 C529 1.327 . S
C529 H523 0.950 1_655 S
C529 C528 1.327 . S
C529 C533 1.429 . S
C530 C513 1.574 . S
C530 H524 0.949 1_455 S
C530 C534 1.368 . S
C531 C512 1.429 . S
C531 C525 1.429 . S
C531 C532 1.523 . S
C532 C513 1.368 . S
C532 C526 1.368 . S
C532 C531 1.523 . S
C533 C517 1.429 . S
C533 C529 1.429 . S
C533 C534 1.523 1_655 S
C534 C518 1.368 . S
C534 C530 1.368 . S
C534 C533 1.523 1_455 S
H535 C510 0.950 . S
H536 C512 0.950 . S
H537 C513 0.949 . S
H538 C515 0.950 . S
H539 C517 0.950 . S
C540 C541 1.349 . S
C540 C542 1.327 1_455 S
C540 H565 0.950 . S
C541 C540 1.349 . S
C541 C557 1.349 1_455 S
C542 C540 1.327 1_655 S
C542 C561 1.429 . S
C542 H566 0.951 . S
C543 C560 1.574 . S
C543 C562 1.368 . S
C543 H567 0.949 . S
H544 C548 0.949 . S
C545 C546 1.349 . S
C545 C547 1.327 . S
C545 H568 0.950 . S
C546 C545 1.349 . S
C546 C558 1.349 . S
C547 C545 1.327 . S
C547 C563 1.429 . S
C547 H569 0.950 . S
C548 H544 0.949 . S
C548 C556 1.574 . S
C548 C564 1.368 . S
H549 C557 0.950 . S
H550 C555 0.950 . S
H551 C556 0.949 . S
H552 C558 0.950 . S
H553 C559 0.950 . S
H554 C560 0.949 . S
C555 H550 0.950 . S
C555 C557 1.327 . S
C555 C561 1.429 . S
C556 C548 1.574 . S
C556 H551 0.949 . S
C556 C562 1.368 . S
C557 C541 1.349 1_655 S
C557 H549 0.950 . S
C557 C555 1.327 . S
C558 C546 1.349 . S
C558 H552 0.950 . S
C558 C559 1.327 . S
C559 H553 0.950 . S
C559 C558 1.327 . S
C559 C563 1.429 . S
C560 C543 1.574 . S
C560 H554 0.949 . S
C560 C564 1.368 . S
C561 C542 1.429 . S
C561 C555 1.429 . S
C561 C562 1.523 . S
C562 C543 1.368 . S
C562 C556 1.368 . S
C562 C561 1.523 . S
C563 C547 1.429 . S
C563 C559 1.429 . S
C563 C564 1.523 1_565 S
C564 C548 1.368 . S
C564 C560 1.368 . S
C564 C563 1.523 1_545 S
H565 C540 0.950 . S
H566 C542 0.951 . S
H567 C543 0.949 . S
H568 C545 0.950 . S
H569 C547 0.950 . S
C570 C571 1.349 . S
C570 C572 1.327 . S
C570 H595 0.950 . S
C571 C570 1.349 . S
C571 C587 1.349 . S
C572 C570 1.327 . S
C572 C591 1.429 . S
C572 H596 0.950 . S
C573 C590 1.574 . S
C573 C592 1.368 . S
C573 H597 0.949 . S
H574 C578 0.949 . S
C575 C576 1.349 . S
C575 C577 1.327 1_545 S
C575 H598 0.950 . S
C576 C575 1.349 . S
C576 C588 1.356 . S
C577 C575 1.327 1_565 S
C577 C593 1.429 . S
C577 H599 0.950 . S
C578 H574 0.949 . S
C578 C586 1.574 . S
C578 C594 1.368 . S
H579 C587 0.950 . S
H580 C585 0.950 . S
H581 C586 0.949 . S
H582 C588 0.953 . S
H583 C589 0.950 . S
H584 C590 0.949 . S
C585 H580 0.950 . S
C585 C587 1.327 . S
C585 C591 1.429 . S
C586 C578 1.574 . S
C586 H581 0.949 . S
C586 C592 1.368 . S
C587 C571 1.349 . S
C587 H579 0.950 . S
C587 C585 1.327 . S
C588 C576 1.356 . S
C588 H582 0.953 . S
C588 C589 1.317 1_545 S
C589 H583 0.950 . S
C589 C588 1.317 1_565 S
C589 C593 1.429 . S
C590 C573 1.574 . S
C590 H584 0.949 . S
C590 C594 1.368 . S
C591 C572 1.429 . S
C591 C585 1.429 . S
C591 C592 1.523 . S
C592 C573 1.368 . S
C592 C586 1.368 . S
C592 C591 1.523 . S
C593 C577 1.429 . S
C593 C589 1.429 . S
C593 C594 1.523 . S
C594 C578 1.368 . S
C594 C590 1.368 . S
C594 C593 1.523 . S
H595 C570 0.950 . S
H596 C572 0.950 . S
H597 C573 0.949 . S
H598 C575 0.950 . S
H599 C577 0.950 . S
C600 C601 1.349 . S
C600 C602 1.327 . S
C600 H625 0.950 . S
C601 C600 1.349 . S
C601 C617 1.349 . S
C602 C600 1.327 . S
C602 C621 1.429 . S
C602 H626 0.950 . S
C603 C620 1.574 . S
C603 C622 1.368 . S
C603 H627 0.949 . S
H604 C608 0.949 . S
C605 C606 1.349 . S
C605 C607 1.327 . S
C605 H628 0.950 . S
C606 C605 1.349 . S
C606 C618 1.349 . S
C607 C605 1.327 . S
C607 C623 1.429 . S
C607 H629 0.950 . S
C608 H604 0.949 . S
C608 C616 1.574 . S
C608 C624 1.368 . S
H609 C617 0.950 . S
H610 C615 0.950 . S
H611 C616 0.949 . S
H612 C618 0.950 . S
H613 C619 0.950 . S
H614 C620 0.949 . S
C615 H610 0.950 . S
C615 C617 1.327 . S
C615 C621 1.429 . S
C616 C608 1.574 . S
C616 H611 0.949 . S
C616 C622 1.368 . S
C617 C601 1.349 . S
C617 H609 0.950 . S
C617 C615 1.327 . S
C618 C606 1.349 . S
C618 H612 0.950 . S
C618 C619 1.327 . S
C619 H613 0.950 . S
C619 C618 1.327 . S
C619 C623 1.429 . S
C620 C603 1.574 . S
C620 H614 0.949 . S
C620 C624 1.368 . S
C621 C602 1.429 . S
C621 C615 1.429 . S
C621 C622 1.523 . S
C622 C603 1.368 . S
C622 C616 1.368 . S
C622 C621 1.523 . S
C623 C607 1.429 . S
C623 C619 1.429 . S
C623 C624 1.523 . S
C624 C608 1.368 . S
C624 C620 1.368 . S
C624 C623 1.523 . S
H625 C600 0.950 . S
H626 C602 0.950 . S
H627 C603 0.949 . S
H628 C605 0.950 . S
H629 C607 0.950 . S
C630 C631 1.349 . S
C630 C632 1.327 . S
C630 H655 0.950 . S
C631 C630 1.349 . S
C631 C647 1.349 . S
C632 C630 1.327 . S
C632 C651 1.429 . S
C632 H656 0.950 . S
C633 C650 1.574 . S
C633 C652 1.368 . S
C633 H657 0.949 . S
H634 C638 0.949 . S
C635 C636 1.349 . S
C635 C637 1.327 . S
C635 H658 0.950 . S
C636 C635 1.349 . S
C636 C648 1.349 . S
C637 C635 1.327 . S
C637 C653 1.429 . S
C637 H659 0.950 . S
C638 H634 0.949 . S
C638 C646 1.574 . S
C638 C654 1.368 . S
H639 C647 0.950 . S
H640 C645 0.950 . S
H641 C646 0.949 . S
H642 C648 0.950 . S
H643 C649 0.950 . S
H644 C650 0.949 . S
C645 H640 0.950 . S
C645 C647 1.327 . S
C645 C651 1.429 . S
C646 C638 1.574 . S
C646 H641 0.949 . S
C646 C652 1.368 . S
C647 C631 1.349 . S
C647 H639 0.950 . S
C647 C645 1.327 . S
C648 C636 1.349 . S
C648 H642 0.950 . S
C648 C649 1.327 . S
C649 H643 0.950 . S
C649 C648 1.327 . S
C649 C653 1.429 . S
C650 C633 1.574 . S
C650 H644 0.949 . S
C650 C654 1.368 . S
C651 C632 1.429 . S
C651 C645 1.429 . S
C651 C652 1.523 . S
C652 C633 1.368 . S
C652 C646 1.368 . S
C652 C651 1.523 . S
C653 C637 1.429 . S
C653 C649 1.429 . S
C653 C654 1.523 . S
C654 C638 1.368 . S
C654 C650 1.368 . S
C654 C653 1.523 . S
H655 C630 0.950 . S
H656 C632 0.950 . S
H657 C633 0.949 . S
H658 C635 0.950 . S
H659 C637 0.950 . S
C660 C661 1.349 . S
C660 C662 1.327 . S
C660 H685 0.950 . S
C661 C660 1.349 . S
C661 C677 1.349 . S
C662 C660 1.327 . S
C662 C681 1.429 . S
C662 H686 0.950 . S
C663 C680 1.574 . S
C663 C682 1.368 . S
C663 H687 0.949 . S
H664 C668 0.949 . S
C665 C666 1.349 . S
C665 C667 1.327 . S
C665 H688 0.950 . S
C666 C665 1.349 . S
C666 C678 1.349 . S
C667 C665 1.327 . S
C667 C683 1.429 . S
C667 H689 0.950 . S
C668 H664 0.949 . S
C668 C676 1.574 . S
C668 C684 1.368 . S
H669 C677 0.950 . S
H670 C675 0.950 . S
H671 C676 0.949 . S
H672 C678 0.950 . S
H673 C679 0.950 . S
H674 C680 0.949 . S
C675 H670 0.950 . S
C675 C677 1.327 . S
C675 C681 1.429 . S
C676 C668 1.574 . S
C676 H671 0.949 . S
C676 C682 1.368 . S
C677 C661 1.349 . S
C677 H669 0.950 . S
C677 C675 1.327 . S
C678 C666 1.349 . S
C678 H672 0.950 . S
C678 C679 1.327 . S
C679 H673 0.950 . S
C679 C678 1.327 . S
C679 C683 1.429 . S
C680 C663 1.574 . S
C680 H674 0.949 . S
C680 C684 1.368 . S
C681 C662 1.429 . S
C681 C675 1.429 . S
C681 C682 1.523 . S
C682 C663 1.368 . S
C682 C676 1.368 . S
C682 C681 1.523 . S
C683 C667 1.429 . S
C683 C679 1.429 . S
C683 C684 1.523 . S
C684 C668 1.368 . S
C684 C680 1.368 . S
C684 C683 1.523 . S
H685 C660 0.950 . S
H686 C662 0.950 . S
H687 C663 0.949 . S
H688 C665 0.950 . S
H689 C667 0.950 . S
C690 C691 1.349 . S
C690 C692 1.327 . S
C690 H715 0.950 . S
C691 C690 1.349 . S
C691 C707 1.349 . S
C692 C690 1.327 . S
C692 C711 1.429 . S
C692 H716 0.950 . S
C693 C710 1.574 . S
C693 C712 1.368 . S
C693 H717 0.949 . S
H694 C698 0.949 . S
C695 C696 1.349 . S
C695 C697 1.327 . S
C695 H718 0.950 . S
C696 C695 1.349 . S
C696 C708 1.349 . S
C697 C695 1.327 . S
C697 C713 1.429 . S
C697 H719 0.950 . S
C698 H694 0.949 . S
C698 C706 1.574 . S
C698 C714 1.368 . S
H699 C707 0.950 . S
H700 C705 0.950 . S
H701 C706 0.949 . S
H702 C708 0.950 . S
H703 C709 0.950 . S
H704 C710 0.949 . S
C705 H700 0.950 . S
C705 C707 1.327 . S
C705 C711 1.429 . S
C706 C698 1.574 . S
C706 H701 0.949 . S
C706 C712 1.368 . S
C707 C691 1.349 . S
C707 H699 0.950 . S
C707 C705 1.327 . S
C708 C696 1.349 . S
C708 H702 0.950 . S
C708 C709 1.327 . S
C709 H703 0.950 . S
C709 C708 1.327 . S
C709 C713 1.429 . S
C710 C693 1.574 . S
C710 H704 0.949 . S
C710 C714 1.368 . S
C711 C692 1.429 . S
C711 C705 1.429 . S
C711 C712 1.523 . S
C712 C693 1.368 . S
C712 C706 1.368 . S
C712 C711 1.523 . S
C713 C697 1.429 . S
C713 C709 1.429 . S
C713 C714 1.523 . S
C714 C698 1.368 . S
C714 C710 1.368 . S
C714 C713 1.523 . S
H715 C690 0.950 . S
H716 C692 0.950 . S
H717 C693 0.949 . S
H718 C695 0.950 . S
H719 C697 0.950 . S
C720 C721 1.349 . S
C720 C722 1.327 . S
C720 H745 0.950 . S
C721 C720 1.349 . S
C721 C737 1.349 . S
C722 C720 1.327 . S
C722 C741 1.429 . S
C722 H746 0.950 . S
C723 C740 1.574 . S
C723 C742 1.368 . S
C723 H747 0.949 . S
H724 C728 0.949 . S
C725 C726 1.349 . S
C725 C727 1.327 . S
C725 H748 0.950 . S
C726 C725 1.349 . S
C726 C738 1.349 . S
C727 C725 1.327 . S
C727 C743 1.429 . S
C727 H749 0.950 . S
C728 H724 0.949 . S
C728 C736 1.574 . S
C728 C744 1.368 . S
H729 C737 0.950 . S
H730 C735 0.950 . S
H731 C736 0.949 . S
H732 C738 0.950 . S
H733 C739 0.950 . S
H734 C740 0.949 . S
C735 H730 0.950 . S
C735 C737 1.327 . S
C735 C741 1.429 . S
C736 C728 1.574 . S
C736 H731 0.949 . S
C736 C742 1.368 . S
C737 C721 1.349 . S
C737 H729 0.950 . S
C737 C735 1.327 . S
C738 C726 1.349 . S
C738 H732 0.950 . S
C738 C739 1.327 . S
C739 H733 0.950 . S
C739 C738 1.327 . S
C739 C743 1.429 . S
C740 C723 1.574 . S
C740 H734 0.949 . S
C740 C744 1.368 . S
C741 C722 1.429 . S
C741 C735 1.429 . S
C741 C742 1.523 . S
C742 C723 1.368 . S
C742 C736 1.368 . S
C742 C741 1.523 . S
C743 C727 1.429 . S
C743 C739 1.429 . S
C743 C744 1.523 . S
C744 C728 1.368 . S
C744 C740 1.368 . S
C744 C743 1.523 . S
H745 C720 0.950 . S
H746 C722 0.950 . S
H747 C723 0.949 . S
H748 C725 0.950 . S
H749 C727 0.950 . S
C750 C751 1.349 . S
C750 C752 1.327 . S
C750 H775 0.950 . S
C751 C750 1.349 . S
C751 C767 1.349 . S
C752 C750 1.327 . S
C752 C771 1.429 . S
C752 H776 0.950 . S
C753 C770 1.574 . S
C753 C772 1.368 . S
C753 H777 0.949 . S
H754 C758 0.949 . S
C755 C756 1.349 . S
C755 C757 1.327 . S
C755 H778 0.950 . S
C756 C755 1.349 . S
C756 C768 1.349 . S
C757 C755 1.327 . S
C757 C773 1.429 . S
C757 H779 0.950 . S
C758 H754 0.949 . S
C758 C766 1.574 . S
C758 C774 1.368 . S
H759 C767 0.950 . S
H760 C765 0.950 . S
H761 C766 0.949 . S
H762 C768 0.950 . S
H763 C769 0.950 . S
H764 C770 0.949 . S
C765 H760 0.950 . S
C765 C767 1.327 . S
C765 C771 1.429 . S
C766 C758 1.574 . S
C766 H761 0.949 . S
C766 C772 1.368 . S
C767 C751 1.349 . S
C767 H759 0.950 . S
C767 C765 1.327 . S
C768 C756 1.349 . S
C768 H762 0.950 . S
C768 C769 1.327 . S
C769 H763 0.950 . S
C769 C768 1.327 . S
C769 C773 1.429 . S
C770 C753 1.574 . S
C770 H764 0.949 . S
C770 C774 1.368 . S
C771 C752 1.429 . S
C771 C765 1.429 . S
C771 C772 1.523 . S
C772 C753 1.368 . S
C772 C766 1.368 . S
C772 C771 1.523 . S
C773 C757 1.429 . S
C773 C769 1.429 . S
C773 C774 1.523 . S
C774 C758 1.368 . S
C774 C770 1.368 . S
C774 C773 1.523 . S
H775 C750 0.950 . S
H776 C752 0.950 . S
H777 C753 0.949 . S
H778 C755 0.950 . S
H779 C757 0.950 . S
C780 C781 1.349 . S
C780 C782 1.327 . S
C780 H805 0.950 . S
C781 C780 1.349 . S
C781 C797 1.349 . S
C782 C780 1.327 . S
C782 C801 1.429 . S
C782 H806 0.950 . S
C783 C800 1.574 . S
C783 C802 1.368 . S
C783 H807 0.949 . S
H784 C788 0.949 . S
C785 C786 1.349 . S
C785 C787 1.327 . S
C785 H808 0.950 . S
C786 C785 1.349 . S
C786 C798 1.349 . S
C787 C785 1.327 . S
C787 C803 1.429 . S
C787 H809 0.950 . S
C788 H784 0.949 . S
C788 C796 1.574 . S
C788 C804 1.368 . S
H789 C797 0.950 . S
H790 C795 0.950 . S
H791 C796 0.949 . S
H792 C798 0.950 . S
H793 C799 0.950 . S
H794 C800 0.949 . S
C795 H790 0.950 . S
C795 C797 1.327 . S
C795 C801 1.429 . S
C796 C788 1.574 . S
C796 H791 0.949 . S
C796 C802 1.368 . S
C797 C781 1.349 . S
C797 H789 0.950 . S
C797 C795 1.327 . S
C798 C786 1.349 . S
C798 H792 0.950 . S
C798 C799 1.327 . S
C799 H793 0.950 . S
C799 C798 1.327 . S
C799 C803 1.429 . S
C800 C783 1.574 . S
C800 H794 0.949 . S
C800 C804 1.368 . S
C801 C782 1.429 . S
C801 C795 1.429 . S
C801 C802 1.523 . S
C802 C783 1.368 . S
C802 C796 1.368 . S
C802 C801 1.523 . S
C803 C787 1.429 . S
C803 C799 1.429 . S
C803 C804 1.523 . S
C804 C788 1.368 . S
C804 C800 1.368 . S
C804 C803 1.523 . S
H805 C780 0.950 . S
H806 C782 0.950 . S
H807 C783 0.949 . S
H808 C785 0.950 . S
H809 C787 0.950 . S
C810 C811 1.349 . S
C810 C812 1.327 . S
C810 H835 0.950 . S
C811 C810 1.349 . S
C811 C827 1.349 . S
C812 C810 1.327 . S
C812 C831 1.429 . S
C812 H836 0.950 . S
C813 C830 1.574 . S
C813 C832 1.368 . S
C813 H837 0.949 . S
H814 C818 0.949 . S
C815 C816 1.349 . S
C815 C817 1.327 . S
C815 H838 0.950 . S
C816 C815 1.349 . S
C816 C828 1.349 . S
C817 C815 1.327 . S
C817 C833 1.429 . S
C817 H839 0.950 . S
C818 H814 0.949 . S
C818 C826 1.574 . S
C818 C834 1.368 . S
H819 C827 0.950 . S
H820 C825 0.950 . S
H821 C826 0.949 . S
H822 C828 0.950 . S
H823 C829 0.950 . S
H824 C830 0.949 . S
C825 H820 0.950 . S
C825 C827 1.327 . S
C825 C831 1.429 . S
C826 C818 1.574 . S
C826 H821 0.949 . S
C826 C832 1.368 . S
C827 C811 1.349 . S
C827 H819 0.950 . S
C827 C825 1.327 . S
C828 C816 1.349 . S
C828 H822 0.950 . S
C828 C829 1.327 . S
C829 H823 0.950 . S
C829 C828 1.327 . S
C829 C833 1.429 . S
C830 C813 1.574 . S
C830 H824 0.949 . S
C830 C834 1.368 . S
C831 C812 1.429 . S
C831 C825 1.429 . S
C831 C832 1.523 . S
C832 C813 1.368 . S
C832 C826 1.368 . S
C832 C831 1.523 . S
C833 C817 1.429 . S
C833 C829 1.429 . S
C833 C834 1.523 . S
C834 C818 1.368 . S
C834 C830 1.368 . S
C834 C833 1.523 . S
H835 C810 0.950 . S
H836 C812 0.950 . S
H837 C813 0.949 . S
H838 C815 0.950 . S
H839 C817 0.950 . S
C840 C841 1.349 . S
C840 C842 1.327 . S
C840 H865 0.950 . S
C841 C840 1.349 . S
C841 C857 1.349 . S
C842 C840 1.327 . S
C842 C861 1.429 . S
C842 H866 0.950 . S
C843 C860 1.574 . S
C843 C862 1.368 . S
C843 H867 0.949 . S
H844 C848 0.949 . S
C845 C846 1.349 . S
C845 C847 1.327 . S
C845 H868 0.950 . S
C846 C845 1.349 . S
C846 C858 1.349 . S
C847 C845 1.327 . S
C847 C863 1.429 . S
C847 H869 0.950 . S
C848 H844 0.949 . S
C848 C856 1.574 . S
C848 C864 1.368 . S
H849 C857 0.950 . S
H850 C855 0.950 . S
H851 C856 0.949 . S
H852 C858 0.950 . S
H853 C859 0.950 . S
H854 C860 0.949 . S
C855 H850 0.950 . S
C855 C857 1.327 . S
C855 C861 1.429 . S
C856 C848 1.574 . S
C856 H851 0.949 . S
C856 C862 1.368 . S
C857 C841 1.349 . S
C857 H849 0.950 . S
C857 C855 1.327 . S
C858 C846 1.349 . S
C858 H852 0.950 . S
C858 C859 1.327 . S
C859 H853 0.950 . S
C859 C858 1.327 . S
C859 C863 1.429 . S
C860 C843 1.574 . S
C860 H854 0.949 . S
C860 C864 1.368 . S
C861 C842 1.429 . S
C861 C855 1.429 . S
C861 C862 1.523 . S
C862 C843 1.368 . S
C862 C856 1.368 . S
C862 C861 1.523 . S
C863 C847 1.429 . S
C863 C859 1.429 . S
C863 C864 1.523 . S
C864 C848 1.368 . S
C864 C860 1.368 . S
C864 C863 1.523 . S
H865 C840 0.950 . S
H866 C842 0.950 . S
H867 C843 0.949 . S
H868 C845 0.950 . S
H869 C847 0.950 . S
C870 C871 1.349 . S
C870 C872 1.327 . S
C870 H895 0.950 . S
C871 C870 1.349 . S
C871 C887 1.349 . S
C872 C870 1.327 . S
C872 C891 1.429 . S
C872 H896 0.950 . S
C873 C890 1.574 . S
C873 C892 1.368 . S
C873 H897 0.949 . S
H874 C878 0.949 . S
C875 C876 1.349 . S
C875 C877 1.327 . S
C875 H898 0.950 . S
C876 C875 1.349 . S
C876 C888 1.349 . S
C877 C875 1.327 . S
C877 C893 1.429 . S
C877 H899 0.950 . S
C878 H874 0.949 . S
C878 C886 1.574 . S
C878 C894 1.368 . S
H879 C887 0.950 . S
H880 C885 0.950 . S
H881 C886 0.949 . S
H882 C888 0.950 . S
H883 C889 0.950 . S
H884 C890 0.949 . S
C885 H880 0.950 . S
C885 C887 1.327 . S
C885 C891 1.429 . S
C886 C878 1.574 . S
C886 H881 0.949 . S
C886 C892 1.368 . S
C887 C871 1.349 . S
C887 H879 0.950 . S
C887 C885 1.327 . S
C888 C876 1.349 . S
C888 H882 0.950 . S
C888 C889 1.327 . S
C889 H883 0.950 . S
C889 C888 1.327 . S
C889 C893 1.429 . S
C890 C873 1.574 . S
C890 H884 0.949 . S
C890 C894 1.368 . S
C891 C872 1.429 . S
C891 C885 1.429 . S
C891 C892 1.523 . S
C892 C873 1.368 . S
C892 C886 1.368 . S
C892 C891 1.523 . S
C893 C877 1.429 . S
C893 C889 1.429 . S
C893 C894 1.523 . S
C894 C878 1.368 . S
C894 C890 1.368 . S
C894 C893 1.523 . S
H895 C870 0.950 . S
H896 C872 0.950 . S
H897 C873 0.949 . S
H898 C875 0.950 . S
H899 C877 0.950 . S
C900 C901 1.349 . S
C900 C902 1.327 . S
C900 H925 0.950 . S
C901 C900 1.349 . S
C901 C917 1.349 . S
C902 C900 1.327 . S
C902 C921 1.429 . S
C902 H926 0.950 . S
C903 C920 1.574 . S
C903 C922 1.368 . S
C903 H927 0.949 . S
H904 C908 0.949 . S
C905 C906 1.349 . S
C905 C907 1.327 . S
C905 H928 0.950 . S
C906 C905 1.349 . S
C906 C918 1.349 . S
C907 C905 1.327 . S
C907 C923 1.429 . S
C907 H929 0.950 . S
C908 H904 0.949 . S
C908 C916 1.574 . S
C908 C924 1.368 . S
H909 C917 0.950 . S
H910 C915 0.950 . S
H911 C916 0.949 . S
H912 C918 0.950 . S
H913 C919 0.950 . S
H914 C920 0.949 . S
C915 H910 0.950 . S
C915 C917 1.327 . S
C915 C921 1.429 . S
C916 C908 1.574 . S
C916 H911 0.949 . S
C916 C922 1.368 . S
C917 C901 1.349 . S
C917 H909 0.950 . S
C917 C915 1.327 . S
C918 C906 1.349 . S
C918 H912 0.950 . S
C918 C919 1.327 . S
C919 H913 0.950 . S
C919 C918 1.327 . S
C919 C923 1.429 . S
C920 C903 1.574 . S
C920 H914 0.949 . S
C920 C924 1.368 . S
C921 C902 1.429 . S
C921 C915 1.429 . S
C921 C922 1.523 . S
C922 C903 1.368 . S
C922 C916 1.368 . S
C922 C921 1.523 . S
C923 C907 1.429 . S
C923 C919 1.429 . S
C923 C924 1.523 . S
C924 C908 1.368 . S
C924 C920 1.368 . S
C924 C923 1.523 . S
H925 C900 0.950 . S
H926 C902 0.950 . S
H927 C903 0.949 . S
H928 C905 0.950 . S
H929 C907 0.950 . S
C930 C931 1.349 . S
C930 C932 1.327 . S
C930 H955 0.950 . S
C931 C930 1.349 . S
C931 C947 1.349 . S
C932 C930 1.327 . S
C932 C951 1.429 . S
C932 H956 0.950 . S
C933 C950 1.574 . S
C933 C952 1.368 . S
C933 H957 0.949 . S
H934 C938 0.949 . S
C935 C936 1.349 . S
C935 C937 1.327 . S
C935 H958 0.950 . S
C936 C935 1.349 . S
C936 C948 1.349 . S
C937 C935 1.327 . S
C937 C953 1.429 . S
C937 H959 0.950 . S
C938 H934 0.949 . S
C938 C946 1.574 . S
C938 C954 1.368 . S
H939 C947 0.950 . S
H940 C945 0.950 . S
H941 C946 0.949 . S
H942 C948 0.950 . S
H943 C949 0.950 . S
H944 C950 0.949 . S
C945 H940 0.950 . S
C945 C947 1.327 . S
C945 C951 1.429 . S
C946 C938 1.574 . S
C946 H941 0.949 . S
C946 C952 1.368 . S
C947 C931 1.349 . S
C947 H939 0.950 . S
C947 C945 1.327 . S
C948 C936 1.349 . S
C948 H942 0.950 . S
C948 C949 1.327 . S
C949 H943 0.950 . S
C949 C948 1.327 . S
C949 C953 1.429 . S
C950 C933 1.574 . S
C950 H944 0.949 . S
C950 C954 1.368 . S
C951 C932 1.429 . S
C951 C945 1.429 . S
C951 C952 1.523 . S
C952 C933 1.368 . S
C952 C946 1.368 . S
C952 C951 1.523 . S
C953 C937 1.429 . S
C953 C949 1.429 . S
C953 C954 1.523 . S
C954 C938 1.368 . S
C954 C950 1.368 . S
C954 C953 1.523 . S
H955 C930 0.950 . S
H956 C932 0.950 . S
H957 C933 0.949 . S
H958 C935 0.950 . S
H959 C937 0.950 . S
C960 C961 1.349 . S
C960 C962 1.327 . S
C960 H985 0.950 . S
C961 C960 1.349 . S
C961 C977 1.349 . S
C962 C960 1.327 . S
C962 C981 1.429 . S
C962 H986 0.950 . S
C963 C980 1.574 . S
C963 C982 1.368 . S
C963 H987 0.949 . S
H964 C968 0.949 . S
C965 C966 1.349 . S
C965 C967 1.327 . S
C965 H988 0.950 . S
C966 C965 1.349 . S
C966 C978 1.349 . S
C967 C965 1.327 . S
C967 C983 1.429 . S
C967 H989 0.950 . S
C968 H964 0.949 . S
C968 C976 1.574 . S
C968 C984 1.368 . S
H969 C977 0.950 . S
H970 C975 0.950 . S
H971 C976 0.949 . S
H972 C978 0.950 . S
H973 C979 0.950 . S
H974 C980 0.949 . S
C975 H970 0.950 . S
C975 C977 1.327 . S
C975 C981 1.429 . S
C976 C968 1.574 . S
C976 H971 0.949 . S
C976 C982 1.368 . S
C977 C961 1.349 . S
C977 H969 0.950 . S
C977 C975 1.327 . S
C978 C966 1.349 . S
C978 H972 0.950 . S
C978 C979 1.327 . S
C979 H973 0.950 . S
C979 C978 1.327 . S
C979 C983 1.429 . S
C980 C963 1.574 . S
C980 H974 0.949 . S
C980 C984 1.368 . S
C981 C962 1.429 . S
C981 C975 1.429 . S
C981 C982 1.523 . S
C982 C963 1.368 . S
C982 C976 1.368 . S
C982 C981 1.523 . S
C983 C967 1.429 . S
C983 C979 1.429 . S
C983 C984 1.523 . S
C984 C968 1.368 . S
C984 C980 1.368 . S
C984 C983 1.523 . S
H985 C960 0.950 . S
H986 C962 0.950 . S
H987 C963 0.949 . S
H988 C965 0.950 . S
H989 C967 0.950 . S
C990 C991 1.349 . S
C990 C992 1.327 . S
C990 H1015 0.950 . S
C991 C990 1.349 . S
C991 C1007 1.349 . S
C992 C990 1.327 . S
C992 C1011 1.429 . S
C992 H1016 0.950 . S
C993 C1010 1.574 . S
C993 C1012 1.368 . S
C993 H1017 0.949 . S
H994 C998 0.949 . S
C995 C996 1.349 . S
C995 C997 1.327 . S
C995 H1018 0.950 . S
C996 C995 1.349 . S
C996 C1008 1.349 . S
C997 C995 1.327 . S
C997 C1013 1.429 . S
C997 H1019 0.950 . S
C998 H994 0.949 . S
C998 C1006 1.574 . S
C998 C1014 1.368 . S
H999 C1007 0.950 . S
H1000 C1005 0.950 . S
H1001 C1006 0.949 . S
H1002 C1008 0.950 . S
H1003 C1009 0.950 . S
H1004 C1010 0.949 . S
C1005 H1000 0.950 . S
C1005 C1007 1.327 . S
C1005 C1011 1.429 . S
C1006 C998 1.574 . S
C1006 H1001 0.949 . S
C1006 C1012 1.368 . S
C1007 C991 1.349 . S
C1007 H999 0.950 . S
C1007 C1005 1.327 . S
C1008 C996 1.349 . S
C1008 H1002 0.950 . S
C1008 C1009 1.327 . S
C1009 H1003 0.950 . S
C1009 C1008 1.327 . S
C1009 C1013 1.429 . S
C1010 C993 1.574 . S
C1010 H1004 0.949 . S
C1010 C1014 1.368 . S
C1011 C992 1.429 . S
C1011 C1005 1.429 . S
C1011 C1012 1.523 . S
C1012 C993 1.368 . S
C1012 C1006 1.368 . S
C1012 C1011 1.523 . S
C1013 C997 1.429 . S
C1013 C1009 1.429 . S
C1013 C1014 1.523 . S
C1014 C998 1.368 . S
C1014 C1010 1.368 . S
C1014 C1013 1.523 . S
H1015 C990 0.950 . S
H1016 C992 0.950 . S
H1017 C993 0.949 . S
H1018 C995 0.950 . S
H1019 C997 0.950 . S
C1020 C1021 1.349 . S
C1020 C1022 1.327 . S
C1020 H1045 0.950 . S
C1021 C1020 1.349 . S
C1021 C1037 1.349 . S
C1022 C1020 1.327 . S
C1022 C1041 1.429 . S
C1022 H1046 0.950 . S
C1023 C1040 1.574 . S
C1023 C1042 1.368 . S
C1023 H1047 0.949 . S
H1024 C1028 0.949 . S
C1025 C1026 1.349 . S
C1025 C1027 1.327 . S
C1025 H1048 0.950 . S
C1026 C1025 1.349 . S
C1026 C1038 1.349 . S
C1027 C1025 1.327 . S
C1027 C1043 1.429 . S
C1027 H1049 0.950 . S
C1028 H1024 0.949 . S
C1028 C1036 1.574 . S
C1028 C1044 1.368 . S
H1029 C1037 0.950 . S
H1030 C1035 0.950 . S
H1031 C1036 0.949 . S
H1032 C1038 0.950 . S
H1033 C1039 0.950 . S
H1034 C1040 0.949 . S
C1035 H1030 0.950 . S
C1035 C1037 1.327 . S
C1035 C1041 1.429 . S
C1036 C1028 1.574 . S
C1036 H1031 0.949 . S
C1036 C1042 1.368 . S
C1037 C1021 1.349 . S
C1037 H1029 0.950 . S
C1037 C1035 1.327 . S
C1038 C1026 1.349 . S
C1038 H1032 0.950 . S
C1038 C1039 1.327 . S
C1039 H1033 0.950 . S
C1039 C1038 1.327 . S
C1039 C1043 1.429 . S
C1040 C1023 1.574 . S
C1040 H1034 0.949 . S
C1040 C1044 1.368 . S
C1041 C1022 1.429 . S
C1041 C1035 1.429 . S
C1041 C1042 1.523 . S
C1042 C1023 1.368 . S
C1042 C1036 1.368 . S
C1042 C1041 1.523 . S
C1043 C1027 1.429 . S
C1043 C1039 1.429 . S
C1043 C1044 1.523 . S
C1044 C1028 1.368 . S
C1044 C1040 1.368 . S
C1044 C1043 1.523 . S
H1045 C1020 0.950 . S
H1046 C1022 0.950 . S
H1047 C1023 0.949 . S
H1048 C1025 0.950 . S
H1049 C1027 0.950 . S
C1050 C1051 1.349 . S
C1050 C1052 1.327 . S
C1050 H1075 0.950 . S
C1051 C1050 1.349 . S
C1051 C1067 1.349 . S
C1052 C1050 1.327 . S
C1052 C1071 1.429 . S
C1052 H1076 0.950 . S
C1053 C1070 1.574 . S
C1053 C1072 1.368 . S
C1053 H1077 0.949 . S
H1054 C1058 0.949 . S
C1055 C1056 1.349 . S
C1055 C1057 1.327 . S
C1055 H1078 0.950 . S
C1056 C1055 1.349 . S
C1056 C1068 1.349 . S
C1057 C1055 1.327 . S
C1057 C1073 1.429 . S
C1057 H1079 0.950 . S
C1058 H1054 0.949 . S
C1058 C1066 1.574 . S
C1058 C1074 1.368 . S
H1059 C1067 0.950 . S
H1060 C1065 0.950 . S
H1061 C1066 0.949 . S
H1062 C1068 0.950 . S
H1063 C1069 0.950 . S
H1064 C1070 0.949 . S
C1065 H1060 0.950 . S
C1065 C1067 1.327 . S
C1065 C1071 1.429 . S
C1066 C1058 1.574 . S
C1066 H1061 0.949 . S
C1066 C1072 1.368 . S
C1067 C1051 1.349 . S
C1067 H1059 0.950 . S
C1067 C1065 1.327 . S
C1068 C1056 1.349 . S
C1068 H1062 0.950 . S
C1068 C1069 1.327 . S
C1069 H1063 0.950 . S
C1069 C1068 1.327 . S
C1069 C1073 1.429 . S
C1070 C1053 1.574 . S
C1070 H1064 0.949 . S
C1070 C1074 1.368 . S
C1071 C1052 1.429 . S
C1071 C1065 1.429 . S
C1071 C1072 1.523 . S
C1072 C1053 1.368 . S
C1072 C1066 1.368 . S
C1072 C1071 1.523 . S
C1073 C1057 1.429 . S
C1073 C1069 1.429 . S
C1073 C1074 1.523 . S
C1074 C1058 1.368 . S
C1074 C1070 1.368 . S
C1074 C1073 1.523 . S
H1075 C1050 0.950 . S
H1076 C1052 0.950 . S
H1077 C1053 0.949 . S
H1078 C1055 0.950 . S
H1079 C1057 0.950 . S
C1080 C1081 1.349 . S
C1080 C1082 1.327 . S
C1080 H1105 0.950 . S
C1081 C1080 1.349 . S
C1081 C1097 1.349 . S
C1082 C1080 1.327 . S
C1082 C1101 1.429 . S
C1082 H1106 0.950 . S
C1083 C1100 1.574 . S
C1083 C1102 1.368 . S
C1083 H1107 0.949 . S
H1084 C1088 0.949 . S
C1085 C1086 1.349 . S
C1085 C1087 1.327 . S
C1085 H1108 0.950 . S
C1086 C1085 1.349 . S
C1086 C1098 1.349 . S
C1087 C1085 1.327 . S
C1087 C1103 1.429 . S
C1087 H1109 0.950 . S
C1088 H1084 0.949 . S
C1088 C1096 1.574 . S
C1088 C1104 1.368 . S
H1089 C1097 0.950 . S
H1090 C1095 0.950 . S
H1091 C1096 0.949 . S
H1092 C1098 0.950 . S
H1093 C1099 0.950 . S
H1094 C1100 0.949 . S
C1095 H1090 0.950 . S
C1095 C1097 1.327 . S
C1095 C1101 1.429 . S
C1096 C1088 1.574 . S
C1096 H1091 0.949 . S
C1096 C1102 1.368 . S
C1097 C1081 1.349 . S
C1097 H1089 0.950 . S
C1097 C1095 1.327 . S
C1098 C1086 1.349 . S
C1098 H1092 0.950 . S
C1098 C1099 1.327 . S
C1099 H1093 0.950 . S
C1099 C1098 1.327 . S
C1099 C1103 1.429 . S
C1100 C1083 1.574 . S
C1100 H1094 0.949 . S
C1100 C1104 1.368 . S
C1101 C1082 1.429 . S
C1101 C1095 1.429 . S
C1101 C1102 1.523 . S
C1102 C1083 1.368 . S
C1102 C1096 1.368 . S
C1102 C1101 1.523 . S
C1103 C1087 1.429 . S
C1103 C1099 1.429 . S
C1103 C1104 1.523 . S
C1104 C1088 1.368 . S
C1104 C1100 1.368 . S
C1104 C1103 1.523 . S
H1105 C1080 0.950 . S
H1106 C1082 0.950 . S
H1107 C1083 0.949 . S
H1108 C1085 0.950 . S
H1109 C1087 0.950 . S
C1110 C1111 1.349 . S
C1110 C1112 1.327 . S
C1110 H1135 0.950 . S
C1111 C1110 1.349 . S
C1111 C1127 1.349 . S
C1112 C1110 1.327 . S
C1112 C1131 1.429 . S
C1112 H1136 0.950 . S
C1113 C1130 1.574 . S
C1113 C1132 1.368 . S
C1113 H1137 0.949 . S
H1114 C1118 0.949 . S
C1115 C1116 1.349 . S
C1115 C1117 1.327 . S
C1115 H1138 0.950 . S
C1116 C1115 1.349 . S
C1116 C1128 1.349 . S
C1117 C1115 1.327 . S
C1117 C1133 1.429 . S
C1117 H1139 0.950 . S
C1118 H1114 0.949 . S
C1118 C1126 1.574 . S
C1118 C1134 1.368 . S
H1119 C1127 0.950 . S
H1120 C1125 0.950 . S
H1121 C1126 0.949 . S
H1122 C1128 0.950 . S
H1123 C1129 0.950 . S
H1124 C1130 0.949 . S
C1125 H1120 0.950 . S
C1125 C1127 1.327 . S
C1125 C1131 1.429 . S
C1126 C1118 1.574 . S
C1126 H1121 0.949 . S
C1126 C1132 1.368 . S
C1127 C1111 1.349 . S
C1127 H1119 0.950 . S
C1127 C1125 1.327 . S
C1128 C1116 1.349 . S
C1128 H1122 0.950 . S
C1128 C1129 1.327 . S
C1129 H1123 0.950 . S
C1129 C1128 1.327 . S
C1129 C1133 1.429 . S
C1130 C1113 1.574 . S
C1130 H1124 0.949 . S
C1130 C1134 1.368 . S
C1131 C1112 1.429 . S
C1131 C1125 1.429 . S
C1131 C1132 1.523 . S
C1132 C1113 1.368 . S
C1132 C1126 1.368 . S
C1132 C1131 1.523 . S
C1133 C1117 1.429 . S
C1133 C1129 1.429 . S
C1133 C1134 1.523 . S
C1134 C1118 1.368 . S
C1134 C1130 1.368 . S
C1134 C1133 1.523 . S
H1135 C1110 0.950 . S
H1136 C1112 0.950 . S
H1137 C1113 0.949 . S
H1138 C1115 0.950 . S
H1139 C1117 0.950 . S
C1140 C1141 1.349 . S
C1140 C1142 1.327 . S
C1140 H1165 0.950 . S
C1141 C1140 1.349 . S
C1141 C1157 1.349 . S
C1142 C1140 1.327 . S
C1142 C1161 1.429 . S
C1142 H1166 0.950 . S
C1143 C1160 1.574 . S
C1143 C1162 1.368 . S
C1143 H1167 0.949 . S
H1144 C1148 0.949 . S
C1145 C1146 1.349 . S
C1145 C1147 1.327 . S
C1145 H1168 0.950 . S
C1146 C1145 1.349 . S
C1146 C1158 1.349 . S
C1147 C1145 1.327 . S
C1147 C1163 1.429 . S
C1147 H1169 0.950 . S
C1148 H1144 0.949 . S
C1148 C1156 1.574 . S
C1148 C1164 1.368 . S
H1149 C1157 0.950 . S
H1150 C1155 0.950 . S
H1151 C1156 0.949 . S
H1152 C1158 0.950 . S
H1153 C1159 0.950 . S
H1154 C1160 0.949 . S
C1155 H1150 0.950 . S
C1155 C1157 1.327 . S
C1155 C1161 1.429 . S
C1156 C1148 1.574 . S
C1156 H1151 0.949 . S
C1156 C1162 1.368 1_554 S
C1157 C1141 1.349 . S
C1157 H1149 0.950 . S
C1157 C1155 1.327 . S
C1158 C1146 1.349 . S
C1158 H1152 0.950 . S
C1158 C1159 1.327 . S
C1159 H1153 0.950 . S
C1159 C1158 1.327 . S
C1159 C1163 1.429 . S
C1160 C1143 1.574 . S
C1160 H1154 0.949 . S
C1160 C1164 1.368 1_556 S
C1161 C1142 1.429 . S
C1161 C1155 1.429 . S
C1161 C1162 1.523 . S
C1162 C1143 1.368 . S
C1162 C1156 1.368 1_556 S
C1162 C1161 1.523 . S
C1163 C1147 1.429 . S
C1163 C1159 1.429 . S
C1163 C1164 1.523 . S
C1164 C1148 1.368 . S
C1164 C1160 1.368 1_554 S
C1164 C1163 1.523 . S
H1165 C1140 0.950 . S
H1166 C1142 0.950 . S
H1167 C1143 0.949 . S
H1168 C1145 0.950 . S
H1169 C1147 0.950 . S
C1170 C1171 1.349 . S
C1170 C1172 1.327 . S
C1170 H1195 0.950 . S
C1171 C1170 1.349 . S
C1171 C1187 1.349 . S
C1172 C1170 1.327 . S
C1172 C1191 1.429 . S
C1172 H1196 0.950 . S
C1173 C1190 1.574 1_455 S
C1173 C1192 1.368 . S
C1173 H1197 0.949 . S
H1174 C1178 0.949 . S
C1175 C1176 1.349 . S
C1175 C1177 1.327 . S
C1175 H1198 0.950 . S
C1176 C1175 1.349 . S
C1176 C1188 1.349 . S
C1177 C1175 1.327 . S
C1177 C1193 1.429 . S
C1177 H1199 0.950 . S
C1178 H1174 0.949 . S
C1178 C1186 1.574 1_655 S
C1178 C1194 1.368 . S
H1179 C1187 0.950 . S
H1180 C1185 0.950 . S
H1181 C1186 0.949 . S
H1182 C1188 0.950 . S
H1183 C1189 0.950 . S
H1184 C1190 0.949 . S
C1185 H1180 0.950 . S
C1185 C1187 1.327 . S
C1185 C1191 1.429 . S
C1186 C1178 1.574 1_455 S
C1186 H1181 0.949 . S
C1186 C1192 1.368 . S
C1187 C1171 1.349 . S
C1187 H1179 0.950 . S
C1187 C1185 1.327 . S
C1188 C1176 1.349 . S
C1188 H1182 0.950 . S
C1188 C1189 1.327 . S
C1189 H1183 0.950 . S
C1189 C1188 1.327 . S
C1189 C1193 1.429 . S
C1190 C1173 1.574 1_655 S
C1190 H1184 0.949 . S
C1190 C1194 1.368 . S
C1191 C1172 1.429 . S
C1191 C1185 1.429 . S
C1191 C1192 1.523 . S
C1192 C1173 1.368 . S
C1192 C1186 1.368 . S
C1192 C1191 1.523 . S
C1193 C1177 1.429 . S
C1193 C1189 1.429 . S
C1193 C1194 1.523 . S
C1194 C1178 1.368 . S
C1194 C1190 1.368 . S
C1194 C1193 1.523 . S
H1195 C1170 0.950 . S
H1196 C1172 0.950 . S
H1197 C1173 0.949 . S
H1198 C1175 0.950 . S
H1199 C1177 0.950 . S
C1200 C1201 1.349 . S
C1200 C1202 1.327 . S
C1200 H1225 0.950 . S
C1201 C1200 1.349 . S
C1201 C1217 1.349 . S
C1202 C1200 1.327 . S
C1202 C1221 1.429 . S
C1202 H1226 0.950 . S
C1203 C1220 1.574 . S
C1203 C1222 1.368 1_545 S
C1203 H1227 0.949 . S
H1204 C1208 0.949 . S
C1205 C1206 1.349 . S
C1205 C1207 1.327 . S
C1205 H1228 0.950 . S
C1206 C1205 1.349 . S
C1206 C1218 1.349 . S
C1207 C1205 1.327 . S
C1207 C1223 1.429 . S
C1207 H1229 0.950 . S
C1208 H1204 0.949 . S
C1208 C1216 1.574 . S
C1208 C1224 1.368 1_565 S
H1209 C1217 0.950 . S
H1210 C1215 0.950 . S
H1211 C1216 0.949 . S
H1212 C1218 0.950 . S
H1213 C1219 0.950 . S
H1214 C1220 0.949 . S
C1215 H1210 0.950 . S
C1215 C1217 1.327 . S
C1215 C1221 1.429 . S
C1216 C1208 1.574 . S
C1216 H1211 0.949 . S
C1216 C1222 1.368 1_556 S
C1217 C1201 1.349 . S
C1217 H1209 0.950 . S
C1217 C1215 1.327 . S
C1218 C1206 1.349 . S
C1218 H1212 0.950 . S
C1218 C1219 1.327 . S
C1219 H1213 0.950 . S
C1219 C1218 1.327 . S
C1219 C1223 1.429 . S
C1220 C1203 1.574 . S
C1220 H1214 0.949 . S
C1220 C1224 1.368 1_554 S
C1221 C1202 1.429 . S
C1221 C1215 1.429 . S
C1221 C1222 1.523 . S
C1222 C1203 1.368 1_565 S
C1222 C1216 1.368 1_554 S
C1222 C1221 1.523 . S
C1223 C1207 1.429 . S
C1223 C1219 1.429 . S
C1223 C1224 1.523 . S
C1224 C1208 1.368 1_545 S
C1224 C1220 1.368 1_556 S
C1224 C1223 1.523 . S
H1225 C1200 0.950 . S
H1226 C1202 0.950 . S
H1227 C1203 0.949 . S
H1228 C1205 0.950 . S
H1229 C1207 0.950 . S
C1230 C1231 1.349 . S
C1230 C1232 1.327 . S
C1230 H1255 0.950 . S
C1231 C1230 1.349 . S
C1231 C1247 1.349 . S
C1232 C1230 1.327 . S
C1232 C1251 1.429 . S
C1232 H1256 0.950 . S
C1233 C1250 1.574 . S
C1233 C1252 1.368 . S
C1233 H1257 0.949 . S
H1234 C1238 0.949 . S
C1235 C1236 1.349 . S
C1235 C1237 1.327 . S
C1235 H1258 0.950 . S
C1236 C1235 1.349 . S
C1236 C1248 1.349 . S
C1237 C1235 1.327 . S
C1237 C1253 1.429 . S
C1237 H1259 0.950 . S
C1238 H1234 0.949 . S
C1238 C1246 1.574 . S
C1238 C1254 1.368 . S
H1239 C1247 0.950 . S
H1240 C1245 0.950 . S
H1241 C1246 0.949 . S
H1242 C1248 0.950 . S
H1243 C1249 0.950 . S
H1244 C1250 0.949 . S
C1245 H1240 0.950 . S
C1245 C1247 1.327 . S
C1245 C1251 1.429 . S
C1246 C1238 1.574 . S
C1246 H1241 0.949 . S
C1246 C1252 1.368 . S
C1247 C1231 1.349 . S
C1247 H1239 0.950 . S
C1247 C1245 1.327 . S
C1248 C1236 1.349 . S
C1248 H1242 0.950 . S
C1248 C1249 1.327 . S
C1249 H1243 0.950 . S
C1249 C1248 1.327 . S
C1249 C1253 1.429 . S
C1250 C1233 1.574 . S
C1250 H1244 0.949 . S
C1250 C1254 1.368 . S
C1251 C1232 1.429 . S
C1251 C1245 1.429 . S
C1251 C1252 1.523 . S
C1252 C1233 1.368 . S
C1252 C1246 1.368 . S
C1252 C1251 1.523 . S
C1253 C1237 1.429 . S
C1253 C1249 1.429 . S
C1253 C1254 1.523 . S
C1254 C1238 1.368 . S
C1254 C1250 1.368 . S
C1254 C1253 1.523 . S
H1255 C1230 0.950 . S
H1256 C1232 0.950 . S
H1257 C1233 0.949 . S
H1258 C1235 0.950 . S
H1259 C1237 0.950 . S
C1260 C1261 1.349 . S
C1260 C1262 1.327 . S
C1260 H1285 0.950 . S
C1261 C1260 1.349 . S
C1261 C1277 1.349 . S
C1262 C1260 1.327 . S
C1262 C1281 1.429 . S
C1262 H1286 0.950 . S
C1263 C1280 1.574 . S
C1263 C1282 1.368 1_455 S
C1263 H1287 0.949 . S
H1264 C1268 0.949 . S
C1265 C1266 1.349 . S
C1265 C1267 1.327 . S
C1265 H1288 0.950 . S
C1266 C1265 1.349 . S
C1266 C1278 1.349 . S
C1267 C1265 1.327 . S
C1267 C1283 1.429 . S
C1267 H1289 0.950 . S
C1268 H1264 0.949 . S
C1268 C1276 1.574 . S
C1268 C1284 1.368 1_655 S
H1269 C1277 0.950 . S
H1270 C1275 0.950 . S
H1271 C1276 0.949 . S
H1272 C1278 0.950 . S
H1273 C1279 0.950 . S
H1274 C1280 0.949 . S
C1275 H1270 0.950 . S
C1275 C1277 1.327 . S
C1275 C1281 1.429 . S
C1276 C1268 1.574 . S
C1276 H1271 0.949 . S
C1276 C1282 1.368 1_554 S
C1277 C1261 1.349 . S
C1277 H1269 0.950 . S
C1277 C1275 1.327 . S
C1278 C1266 1.349 . S
C1278 H1272 0.950 . S
C1278 C1279 1.327 . S
C1279 H1273 0.950 . S
C1279 C1278 1.327 . S
C1279 C1283 1.429 . S
C1280 C1263 1.574 . S
C1280 H1274 0.949 . S
C1280 C1284 1.368 1_556 S
C1281 C1262 1.429 . S
C1281 C1275 1.429 . S
C1281 C1282 1.523 . S
C1282 C1263 1.368 1_655 S
C1282 C1276 1.368 1_556 S
C1282 C1281 1.523 . S
C1283 C1267 1.429 . S
C1283 C1279 1.429 . S
C1283 C1284 1.523 . S
C1284 C1268 1.368 1_455 S
C1284 C1280 1.368 1_554 S
C1284 C1283 1.523 . S
H1285 C1260 0.950 . S
H1286 C1262 0.950 . S
H1287 C1263 0.949 . S
H1288 C1265 0.950 . S
H1289 C1267 0.950 . S
C1290 C1291 1.349 . S
C1290 C1292 1.327 . S
C1290 H1315 0.950 . S
C1291 C1290 1.349 . S
C1291 C1307 1.349 . S
C1292 C1290 1.327 . S
C1292 C1311 1.429 . S
C1292 H1316 0.950 . S
C1293 C1310 1.574 . S
C1293 C1312 1.368 1_545 S
C1293 H1317 0.949 . S
H1294 C1298 0.949 . S
C1295 C1296 1.349 . S
C1295 C1297 1.327 . S
C1295 H1318 0.950 . S
C1296 C1295 1.349 . S
C1296 C1308 1.349 . S
C1297 C1295 1.327 . S
C1297 C1313 1.429 . S
C1297 H1319 0.950 . S
C1298 H1294 0.949 . S
C1298 C1306 1.574 . S
C1298 C1314 1.368 1_565 S
H1299 C1307 0.950 . S
H1300 C1305 0.950 . S
H1301 C1306 0.949 . S
H1302 C1308 0.950 . S
H1303 C1309 0.950 . S
H1304 C1310 0.949 . S
C1305 H1300 0.950 . S
C1305 C1307 1.327 . S
C1305 C1311 1.429 . S
C1306 C1298 1.574 . S
C1306 H1301 0.949 . S
C1306 C1312 1.368 . S
C1307 C1291 1.349 . S
C1307 H1299 0.950 . S
C1307 C1305 1.327 . S
C1308 C1296 1.349 . S
C1308 H1302 0.950 . S
C1308 C1309 1.327 . S
C1309 H1303 0.950 . S
C1309 C1308 1.327 . S
C1309 C1313 1.429 . S
C1310 C1293 1.574 . S
C1310 H1304 0.949 . S
C1310 C1314 1.368 . S
C1311 C1292 1.429 . S
C1311 C1305 1.429 . S
C1311 C1312 1.523 . S
C1312 C1293 1.368 1_565 S
C1312 C1306 1.368 . S
C1312 C1311 1.523 . S
C1313 C1297 1.429 . S
C1313 C1309 1.429 . S
C1313 C1314 1.523 . S
C1314 C1298 1.368 1_545 S
C1314 C1310 1.368 . S
C1314 C1313 1.523 . S
H1315 C1290 0.950 . S
H1316 C1292 0.950 . S
H1317 C1293 0.949 . S
H1318 C1295 0.950 . S
H1319 C1297 0.950 . S
C241 C88 1.753 . S
C246 C5 2.028 . S
C271 C108 1.753 . S
C276 C25 2.028 . S
C301 C45 2.028 . S
C306 C8 1.753 . S
C331 C65 2.028 . S
C336 C28 1.753 . S
C361 C85 2.028 . S
C366 C48 1.753 . S
C391 C68 1.753 . S
C396 C105 2.028 . S
C421 C168 1.753 . S
C426 C125 2.028 . S
C451 C145 2.028 . S
C456 C188 1.753 . S
C481 C208 1.753 . S
C486 C165 2.028 . S
C511 C185 2.028 . S
C516 C228 1.753 . S
C541 C205 2.028 . S
C546 C128 1.753 . S
C571 C148 1.753 . S
C576 C225 2.028 . S
C601 C94 1.948 . S
C606 C17 1.851 . S
C631 C37 1.851 . S
C636 C114 1.948 . S
C661 C57 1.851 . S
C666 C14 1.948 . S
C691 C77 1.851 . S
C696 C34 1.948 . S
C721 C54 1.948 . S
C726 C97 1.851 . S
C751 C74 1.948 . S
C756 C117 1.851 . S
C781 C174 1.948 . S
C786 C137 1.851 . S
C811 C157 1.851 . S
C816 C194 1.948 . S
C841 C177 1.851 . S
C846 C214 1.948 . S
C871 C234 1.948 . S
C876 C197 1.851 . S
C901 C217 1.851 . S
C906 C134 1.948 . S
C931 C154 1.948 . S
C936 C237 1.851 . S
C961 C202 1.847 . S
C966 C2 1.847 . S
C991 C22 1.847 . S
C996 C222 1.847 . S
C1021 C42 1.847 . S
C1026 C122 1.847 . S
C1051 C62 1.847 . S
C1056 C142 1.847 . S
C1081 C82 1.847 . S
C1086 C162 1.847 . S
C1111 C182 1.847 . S
C1116 C102 1.847 . S
C1141 C193 1.886 . S
C1146 C13 1.886 . S
C1171 C213 1.886 . S
C1176 C33 1.886 . S
C1201 C53 1.886 . S
C1206 C233 1.886 . S
C1231 C73 1.886 . S
C1236 C133 1.886 . S
C1261 C153 1.886 . S
C1266 C93 1.886 . S
C1291 C173 1.886 . S
C1296 C113 1.886 . S
