# Generated by pormake.
# Topology qdl, (4)-cn, num edge types: 1
# Building blocks:
#     Node 0, Type 0, BuildingBlock: ESEHIV_clean_sbu_0, # of connection points: 4
#     Node 1, Type 0, BuildingBlock: ESEHIV_clean_sbu_0, # of connection points: 4
#     Node 2, Type 0, BuildingBlock: ESEHIV_clean_sbu_0, # of connection points: 4
#     Node 3, Type 0, BuildingBlock: ESEHIV_clean_sbu_0, # of connection points: 4
#     Node 4, Type 0, BuildingBlock: ESEHIV_clean_sbu_0, # of connection points: 4
#     Node 5, Type 0, BuildingBlock: ESEHIV_clean_sbu_0, # of connection points: 4
#     Edge 6, Type (0, 0), BuildingBlock: FUNLAD_clean_linker_0, # of connection points: 2
#     Edge 7, Type (0, 0), BuildingBlock: FUNLAD_clean_linker_0, # of connection points: 2
#     Edge 8, Type (0, 0), BuildingBlock: FUNLAD_clean_linker_0, # of connection points: 2
#     Edge 9, Type (0, 0), BuildingBlock: FUNLAD_clean_linker_0, # of connection points: 2
#     Edge 10, Type (0, 0), BuildingBlock: FUNLAD_clean_linker_0, # of connection points: 2
#     Edge 11, Type (0, 0), BuildingBlock: FUNLAD_clean_linker_0, # of connection points: 2
#     Edge 12, Type (0, 0), BuildingBlock: FUNLAD_clean_linker_0, # of connection points: 2
#     Edge 13, Type (0, 0), BuildingBlock: FUNLAD_clean_linker_0, # of connection points: 2
#     Edge 14, Type (0, 0), BuildingBlock: FUNLAD_clean_linker_0, # of connection points: 2
#     Edge 15, Type (0, 0), BuildingBlock: FUNLAD_clean_linker_0, # of connection points: 2
#     Edge 16, Type (0, 0), BuildingBlock: FUNLAD_clean_linker_0, # of connection points: 2
#     Edge 17, Type (0, 0), BuildingBlock: FUNLAD_clean_linker_0, # of connection points: 2
# Relax obj value: 0.000
# Max RMSD: 0.131
# Mean RMSD: 0.084
data_MOF--net-qdl--node1-ESEHIV_clean_sbu_0--edge1-FUNLAD_clean_linker_0
_symmetry_space_group_name_H-M    P1
_symmetry_Int_Tables_number       1
_symmetry_cell_setting            triclinic
loop_
_symmetry_equiv_pos_as_xyz
'x, y, z'
_cell_length_a     17.397072
_cell_length_b     19.993066
_cell_length_c     108.45306
_cell_angle_alpha  100.14033
_cell_angle_beta   100.08744
_cell_angle_gamma 115.86237
loop_
_atom_site_label
_atom_site_type_symbol
_atom_site_fract_x
_atom_site_fract_y
_atom_site_fract_z
_atom_type_partial_charge
Cu0 Cu 0.17785 0.13059 0.08803 0.0
N1 N 0.10985 1.02161 0.08452 0.0
N2 N 0.07736 0.89786 0.08319 0.0
C3 C 0.14231 0.97293 0.08669 0.0
C4 C 1.00118 0.89993 0.07863 0.0
C5 C 1.02131 0.97578 0.07945 0.0
O6 O 0.25841 0.16312 0.10562 0.0
C7 C 0.18211 0.11591 0.06242 0.0
O8 O 0.09737 0.07047 0.06099 0.0
H9 H 0.2123 0.99264 0.09089 0.0
H10 H 0.97456 0.99585 0.07641 0.0
N11 N 0.10768 0.18113 0.08802 0.0
N12 N 0.06472 0.27191 0.08718 0.0
C13 C 0.12675 0.24994 0.08554 0.0
C14 C 0.03142 0.15918 0.09141 0.0
C15 C 1.00472 0.21448 0.09085 0.0
C16 C 0.26259 0.21213 0.11538 0.0
O17 O 0.22517 0.25528 0.11335 0.0
H18 H 0.18538 0.2834 0.08269 0.0
H19 H 0.99868 0.10754 0.09443 0.0
O20 O 0.23476 0.15083 0.07399 0.0
H21 H 0.93532 0.85008 0.07472 0.0
H22 H 0.94676 0.2134 0.09336 0.0
Cu23 Cu 0.25823 0.18362 0.42151 0.0
N24 N 0.20894 0.11982 0.40421 0.0
N25 N 0.18368 0.08038 0.3825 0.0
C26 C 0.23129 0.13991 0.39358 0.0
C27 C 0.12927 1.02081 0.38641 0.0
C28 C 0.14507 0.0452 0.39974 0.0
O29 O 0.38602 0.24646 0.42326 0.0
C30 C 0.10816 0.19298 0.42426 0.0
O31 O 0.08032 0.11816 0.42178 0.0
H32 H 0.28224 0.19693 0.39404 0.0
H33 H 0.11201 1.01097 0.40575 0.0
N34 N 0.24634 0.12378 0.43336 0.0
N35 N 0.22862 0.08642 0.45148 0.0
C36 C 0.23263 0.13995 0.44515 0.0
C37 C 0.25142 0.05785 0.43218 0.0
C38 C 0.24052 0.03467 0.4433 0.0
C39 C 0.44817 0.25905 0.43308 0.0
O40 O 0.42784 0.24232 0.44365 0.0
H41 H 0.22735 0.19094 0.44906 0.0
H42 H 0.26254 0.02882 0.42382 0.0
O43 O 0.1883 0.23754 0.42445 0.0
H44 H 0.08018 0.96374 0.38009 0.0
H45 H 0.24052 0.9832 0.44514 0.0
Cu46 Cu 0.08504 0.1571 0.76941 0.0
N47 N 0.96088 0.10062 0.76714 0.0
N48 N 0.82941 1.00306 0.76676 0.0
C49 C 0.91927 0.03371 0.77031 0.0
C50 C 0.81411 0.05308 0.76118 0.0
C51 C 0.89495 0.11306 0.76148 0.0
O52 O 0.13732 0.13481 0.78467 0.0
C53 C 0.07702 0.13913 0.74333 0.0
O54 O 0.03141 0.17617 0.74499 0.0
H55 H 0.95432 1.00694 0.77484 0.0
H56 H 0.90473 0.16181 0.75768 0.0
N57 N 0.13034 0.26571 0.77265 0.0
N58 N 0.22106 0.38965 0.77362 0.0
C59 C 0.19882 0.31422 0.76884 0.0
C60 C 0.10819 0.3121 0.78005 0.0
C61 C 0.16393 0.38827 0.78069 0.0
C62 C 0.19485 0.18624 0.79507 0.0
O63 O 0.23552 0.25899 0.79501 0.0
H64 H 0.23356 0.29465 0.76301 0.0
H65 H 0.05647 0.29206 0.78488 0.0
O66 O 0.10829 0.12168 0.75309 0.0
H67 H 0.7491 0.04712 0.75723 0.0
H68 H 0.16238 0.43873 0.78596 0.0
Cu69 Cu 0.19849 0.14178 0.59968 0.0
N70 N 0.18292 0.08679 0.61223 0.0
N71 N 0.16231 0.05875 0.63092 0.0
C72 C 0.16243 0.1056 0.6233 0.0
C73 C 0.1834 1.00833 0.62431 0.0
C74 C 0.19595 0.0257 0.6128 0.0
O75 O 0.13012 0.19778 0.60135 0.0
C76 C 0.38876 0.21289 0.6109 0.0
O77 O 0.36999 0.18901 0.62106 0.0
H78 H 0.15075 0.15447 0.6259 0.0
H79 H 0.21509 0.9969 0.60549 0.0
N80 N 0.15471 0.075 0.58265 0.0
N81 N 0.13674 0.0351 0.56116 0.0
C82 C 0.17516 0.09625 0.57201 0.0
C83 C 0.10152 0.99772 0.57842 0.0
C84 C 0.0902 0.97299 0.5652 0.0
C85 C 0.04543 0.15739 0.59682 0.0
O86 O 1.01061 0.0832 0.59089 0.0
H87 H 0.21943 0.15535 0.57236 0.0
H88 H 0.0733 0.96184 0.58454 0.0
O89 O 0.326 0.20563 0.60174 0.0
H90 H 0.18941 0.96217 0.62755 0.0
H91 H 0.05039 0.91377 0.55906 0.0
Cu92 Cu 0.17407 0.24328 0.93307 0.0
N93 N 0.21429 0.34955 0.93436 0.0
N94 N 0.30409 0.47177 0.93447 0.0
C95 C 0.28948 0.39772 0.93183 0.0
C96 C 0.23496 0.4699 0.93873 0.0
C97 C 0.1796 0.39467 0.93857 0.0
O98 O 0.20096 0.20306 0.91745 0.0
C99 C 0.22707 0.27111 0.9599 0.0
O100 O 0.18596 0.31238 0.9589 0.0
H101 H 0.33386 0.37911 0.92843 0.0
H102 H 0.1191 0.37462 0.94155 0.0
N103 N 0.0504 0.18511 0.93102 0.0
N104 N 0.91968 0.08657 0.93051 0.0
C105 C 1.00942 0.11677 0.93378 0.0
C106 C 0.98419 0.19901 0.926 0.0
C107 C 0.90376 0.1383 0.9256 0.0
C108 C 0.1526 0.19602 0.90648 0.0
O109 O 0.08666 0.21163 0.90639 0.0
H110 H 0.04467 0.08881 0.93782 0.0
H111 H 0.99353 0.24912 0.92265 0.0
O112 O 0.23314 0.23504 0.94948 0.0
H113 H 0.22484 0.51936 0.94169 0.0
H114 H 0.83858 0.1329 0.92203 0.0
Cu115 Cu 0.1304 0.09687 0.24257 0.0
N116 N 0.06365 0.14979 0.24054 0.0
N117 N 0.03256 0.24689 0.23908 0.0
C118 C 0.09546 0.22375 0.23989 0.0
C119 C 0.95846 0.1847 0.23926 0.0
C120 C 0.97779 0.12543 0.24019 0.0
O121 O 0.21199 0.12884 0.23172 0.0
C122 C 0.1288 0.09539 0.26773 0.0
O123 O 0.04384 0.05593 0.26123 0.0
H124 H 0.16366 0.25977 0.24004 0.0
H125 H 0.93269 0.06913 0.24089 0.0
N126 N 0.05981 0.98726 0.23681 0.0
N127 N 1.0173 0.86073 0.2343 0.0
C128 C 0.08395 0.93478 0.23978 0.0
C129 C 0.97524 0.94485 0.22915 0.0
C130 C 0.94903 0.86737 0.22759 0.0
C131 C 0.17735 0.09669 0.21942 0.0
O132 O 0.09323 0.0432 0.21514 0.0
H133 H 0.14863 0.95084 0.24604 0.0
H134 H 0.93551 0.9685 0.22485 0.0
O135 O 0.18516 0.12281 0.2614 0.0
H136 H 0.89506 0.18256 0.23911 0.0
H137 H 0.8847 0.81956 0.22178 0.0
C138 C 1.01344 0.76088 0.08408 0.0
C139 C 0.08654 0.82964 0.08403 0.0
C140 C 1.02147 0.69454 0.08472 0.0
C141 C 0.103 0.69443 0.08524 0.0
C142 C 0.17634 0.76347 0.08537 0.0
C143 C 0.16832 0.8299 0.08474 0.0
C144 C 0.11529 0.62505 0.0861 0.0
C145 C 0.04745 0.55139 0.08285 0.0
C146 C 0.05642 0.48079 0.08389 0.0
C147 C 0.97824 0.41117 0.082 0.0
C148 C 0.98119 0.3433 0.08294 0.0
C149 C 0.06262 0.34216 0.08575 0.0
H150 H 0.2004 0.5312 0.0879 0.0
C151 C 0.1412 0.41128 0.08741 0.0
C152 C 0.13831 0.47977 0.08654 0.0
H153 H 0.20523 0.41295 0.08964 0.0
H154 H 0.94982 0.75837 0.08385 0.0
H155 H 0.96366 0.64425 0.08506 0.0
H156 H 0.24033 0.766 0.08587 0.0
H157 H 0.22617 0.88111 0.08464 0.0
H158 H 0.18325 0.63589 0.08944 0.0
H159 H 0.97996 0.54116 0.07921 0.0
H160 H 0.91392 0.40916 0.07984 0.0
H161 H 0.91905 0.29133 0.08136 0.0
C162 C 0.60733 0.29295 0.44286 0.0
C163 C 0.53947 0.27883 0.43192 0.0
C164 C 0.6892 0.30013 0.44158 0.0
C165 C 0.70544 0.29254 0.42925 0.0
C166 C 0.63958 0.28299 0.41845 0.0
C167 C 0.55757 0.27599 0.41974 0.0
C168 C 0.78848 0.29179 0.42726 0.0
C169 C 0.83629 0.26967 0.43519 0.0
C170 C 0.91143 0.2568 0.43264 0.0
C171 C 0.92854 0.20444 0.43815 0.0
C172 C 0.99461 0.18663 0.43571 0.0
C173 C 0.04751 0.222 0.42794 0.0
H174 H 0.95608 0.33615 0.42091 0.0
C175 C 0.03397 0.27734 0.42286 0.0
C176 C 0.96591 0.29421 0.4251 0.0
H177 H 0.07342 0.30511 0.41676 0.0
H178 H 0.59648 0.29651 0.45244 0.0
H179 H 0.739 0.31075 0.45028 0.0
H180 H 0.65017 0.27792 0.40886 0.0
H181 H 0.50714 0.26527 0.41109 0.0
H182 H 0.80548 0.30266 0.41838 0.0
H183 H 0.81419 0.25247 0.44343 0.0
H184 H 0.88869 0.17517 0.4441 0.0
H185 H 1.00355 0.14392 0.4398 0.0
C186 C 0.67766 0.88796 0.75953 0.0
C187 C 0.76357 0.9318 0.76843 0.0
C188 C 0.61349 0.81961 0.76126 0.0
C189 C 0.63311 0.79354 0.77205 0.0
C190 C 0.71876 0.83769 0.78097 0.0
C191 C 0.78332 0.90524 0.77912 0.0
C192 C 0.565 0.72347 0.77471 0.0
C193 C 0.49609 0.66161 0.76533 0.0
C194 C 0.42804 0.59158 0.76801 0.0
C195 C 0.3838 0.51977 0.75829 0.0
C196 C 0.31743 0.45355 0.76021 0.0
C197 C 0.29174 0.4575 0.77181 0.0
H198 H 0.43379 0.64976 0.78731 0.0
C199 C 0.33554 0.52947 0.78151 0.0
C200 C 0.40301 0.59545 0.77968 0.0
H201 H 0.31796 0.53477 0.79059 0.0
H202 H 0.66005 0.9063 0.75115 0.0
H203 H 0.54796 0.7885 0.7543 0.0
H204 H 0.73597 0.81982 0.78944 0.0
H205 H 0.8482 0.93773 0.78625 0.0
H206 H 0.57473 0.72164 0.78478 0.0
H207 H 0.49109 0.66027 0.75515 0.0
H208 H 0.40069 0.51476 0.74914 0.0
H209 H 0.2847 0.39955 0.75247 0.0
C210 C 0.54642 0.23759 0.61875 0.0
C211 C 0.47813 0.23309 0.60893 0.0
C212 C 0.62513 0.24337 0.61621 0.0
C213 C 0.63762 0.24484 0.60375 0.0
C214 C 0.57108 0.24396 0.59415 0.0
C215 C 0.49267 0.23863 0.5967 0.0
C216 C 0.7132 0.23822 0.59994 0.0
C217 C 0.79036 0.25488 0.60843 0.0
C218 C 0.85819 0.23569 0.60444 0.0
C219 C 0.94752 0.27674 0.61222 0.0
C220 C 1.01034 0.25445 0.60942 0.0
C221 C 0.98453 0.18951 0.59892 0.0
H222 H 0.76528 0.1377 0.58763 0.0
C223 C 0.89576 0.14968 0.59099 0.0
C224 C 0.83355 0.17239 0.59368 0.0
H225 H 0.87344 0.09921 0.58284 0.0
H226 H 0.53758 0.23327 0.62827 0.0
H227 H 0.67354 0.24245 0.62385 0.0
H228 H 0.57837 0.2447 0.58445 0.0
H229 H 0.44165 0.23504 0.58887 0.0
H230 H 0.7036 0.21713 0.58955 0.0
H231 H 0.80449 0.28267 0.61871 0.0
H232 H 0.96839 0.32525 0.62066 0.0
H233 H 0.07791 0.28587 0.6158 0.0
C234 C 0.41238 0.61281 0.942 0.0
C235 C 0.37799 0.53902 0.93316 0.0
C236 C 0.48257 0.6784 0.94057 0.0
C237 C 0.51935 0.67211 0.93011 0.0
C238 C 0.4846 0.59841 0.92126 0.0
C239 C 0.41576 0.53258 0.92285 0.0
C240 C 0.58969 0.74165 0.92773 0.0
C241 C 0.6536 0.80505 0.93737 0.0
C242 C 0.72302 0.87513 0.93497 0.0
C243 C 0.80732 0.91965 0.94423 0.0
C244 C 0.87246 0.9877 0.94261 0.0
C245 C 0.85416 1.01431 0.93186 0.0
H246 H 0.64059 0.86934 0.91689 0.0
C247 C 0.76968 0.97 0.92262 0.0
C248 C 0.7052 0.90102 0.92409 0.0
H249 H 0.75352 0.98866 0.91421 0.0
H250 H 0.38506 0.61977 0.95007 0.0
H251 H 0.50613 0.73427 0.94744 0.0
H252 H 0.51083 0.59168 0.91304 0.0
H253 H 0.39034 0.47686 0.91581 0.0
H254 H 0.59078 0.73893 0.91767 0.0
H255 H 0.65777 0.80465 0.94746 0.0
H256 H 0.82291 0.90174 0.95277 0.0
H257 H 0.93639 1.02074 0.94996 0.0
C258 C 0.96712 0.33039 0.23362 0.0
C259 C 0.04213 0.32231 0.23856 0.0
C260 C 0.97543 0.40317 0.23337 0.0
C261 C 0.05923 0.47072 0.23816 0.0
C262 C 0.1344 0.46244 0.24286 0.0
C263 C 0.12608 0.38952 0.2431 0.0
C264 C 0.07141 0.54993 0.23803 0.0
C265 C 1.00502 0.56875 0.23726 0.0
C266 C 1.01303 0.64631 0.23679 0.0
C267 C 0.93449 0.65231 0.23441 0.0
C268 C 0.93628 0.7222 0.23371 0.0
C269 C 1.01694 0.78918 0.23542 0.0
H270 H 0.15694 0.71269 0.24066 0.0
C271 C 0.09619 0.78406 0.23802 0.0
C272 C 0.09439 0.71358 0.23867 0.0
H273 H 0.15958 0.83418 0.23934 0.0
H274 H 0.90158 0.28017 0.22973 0.0
H275 H 0.91582 0.40547 0.22917 0.0
H276 H 0.20005 0.51284 0.24651 0.0
H277 H 0.1855 0.38626 0.24705 0.0
H278 H 0.13801 0.59394 0.2388 0.0
H279 H 0.9395 0.52462 0.23693 0.0
H280 H 0.8707 0.60228 0.23302 0.0
H281 H 0.87396 0.72367 0.23193 0.0
C282 C 0.19574 0.07074 0.1971 0.0
C283 C 0.2252 0.12227 0.20965 0.0
C284 C 0.22782 0.09611 0.18693 0.0
C285 C 0.29044 0.17417 0.18899 0.0
C286 C 0.32262 0.22519 0.20168 0.0
C287 C 0.29101 0.19939 0.21196 0.0
C288 C 0.31464 0.20512 0.17782 0.0
C289 C 0.30832 0.16037 0.16636 0.0
C290 C 0.3131 0.18436 0.15407 0.0
C291 C 0.32067 0.13749 0.14356 0.0
C292 C 0.31042 0.14964 0.13117 0.0
C293 C 0.29158 0.20882 0.12893 0.0
H294 H 0.29185 0.28353 0.15971 0.0
C295 C 0.28915 0.2586 0.13962 0.0
C296 C 0.29957 0.24654 0.15202 0.0
H297 H 0.27473 0.30479 0.13829 0.0
H298 H 0.14482 1.01097 0.19499 0.0
H299 H 0.19918 0.05504 0.17731 0.0
H300 H 0.37022 0.28578 0.20356 0.0
H301 H 0.31424 0.24069 0.22147 0.0
H302 H 0.33535 0.2661 0.17903 0.0
H303 H 0.29557 0.10145 0.16571 0.0
H304 H 0.33085 0.08903 0.14478 0.0
H305 H 0.31264 0.11001 0.1232 0.0
C306 C 0.16963 0.10339 0.54409 0.0
C307 C 0.1459 0.03558 0.54813 0.0
C308 C 0.17967 0.10398 0.53155 0.0
C309 C 0.16591 0.03649 0.52265 0.0
C310 C 0.14262 0.96901 0.52673 0.0
C311 C 0.1324 0.96837 0.53924 0.0
C312 C 0.17846 0.03434 0.5093 0.0
C313 C 0.17773 0.0863 0.50286 0.0
C314 C 0.19029 0.08364 0.4895 0.0
C315 C 0.16155 0.12398 0.48214 0.0
C316 C 0.17357 0.12459 0.46971 0.0
C317 C 0.21539 0.08523 0.46429 0.0
H318 H 0.25856 1.01476 0.48955 0.0
C319 C 0.24468 0.04516 0.47168 0.0
C320 C 0.23265 0.04454 0.48412 0.0
H321 H 0.27871 1.01544 0.46799 0.0
H322 H 0.18017 0.15619 0.55061 0.0
H323 H 0.19982 0.15791 0.52901 0.0
H324 H 0.1324 0.91627 0.5202 0.0
H325 H 0.11549 0.91535 0.54199 0.0
H326 H 0.18506 0.98568 0.50442 0.0
H327 H 0.1638 0.13132 0.50727 0.0
H328 H 0.12913 0.155 0.486 0.0
H329 H 0.14916 0.15538 0.4643 0.0
C330 C 0.26247 0.22454 0.81937 0.0
C331 C 0.2023 0.16706 0.80776 0.0
C332 C 0.25914 0.21119 0.83159 0.0
C333 C 0.19543 0.13975 0.8325 0.0
C334 C 0.13836 0.08112 0.82085 0.0
C335 C 0.14196 0.09434 0.80864 0.0
C336 C 0.17903 0.12728 0.84521 0.0
C337 C 0.23749 0.17078 0.85711 0.0
C338 C 0.21308 0.16633 0.86962 0.0
C339 C 0.28008 0.19222 0.88143 0.0
C340 C 0.26022 0.19749 0.89348 0.0
C341 C 0.1731 0.17841 0.89395 0.0
H342 H 0.07192 0.12592 0.86138 0.0
C343 C 0.10579 0.15028 0.88212 0.0
C344 C 0.12529 0.14418 0.87014 0.0
H345 H 0.03797 0.13532 0.88213 0.0
H346 H 0.30973 0.28134 0.81909 0.0
H347 H 0.30338 0.25858 0.84025 0.0
H348 H 0.08833 0.0256 0.82119 0.0
H349 H 0.09431 0.04871 0.79994 0.0
H350 H 0.11423 0.08088 0.84465 0.0
H351 H 0.3052 0.21249 0.85782 0.0
H352 H 0.34846 0.21039 0.88137 0.0
H353 H 0.31373 0.22017 0.90242 0.0
C354 C 0.28607 0.19453 0.05062 0.0
C355 C 0.2118 0.12648 0.05053 0.0
C356 C 0.30502 0.2065 0.03885 0.0
C357 C 0.25035 0.15013 0.02678 0.0
C358 C 0.17949 0.08061 0.02689 0.0
C359 C 0.16 0.06922 0.03855 0.0
C360 C 0.26155 0.16162 0.01381 0.0
C361 C 0.29854 0.23174 0.01161 0.0
C362 C 0.29087 0.24272 0.99824 0.0
C363 C 0.29244 0.31138 0.99663 0.0
C364 C 0.27556 0.32137 0.9842 0.0
C365 C 0.25823 0.26358 0.97299 0.0
H366 H 0.27896 0.13342 0.98792 0.0
C367 C 0.26227 0.19678 0.97457 0.0
C368 C 0.2781 0.18622 0.98708 0.0
H369 H 0.24932 0.15127 0.96612 0.0
H370 H 0.32739 0.2396 0.0597 0.0
H371 H 0.36179 0.26005 0.03924 0.0
H372 H 0.13667 0.03576 0.01784 0.0
H373 H 0.10283 1.01572 0.03812 0.0
H374 H 0.22804 0.11002 1.00552 0.0
H375 H 0.32567 0.28339 0.01977 0.0
H376 H 0.30299 0.35633 1.00499 0.0
H377 H 0.27376 0.3739 0.98335 0.0
C378 C 0.08903 0.06385 0.28778 0.0
C379 C 0.1549 0.10451 0.28201 0.0
C380 C 0.10983 0.07105 0.30113 0.0
C381 C 0.19752 0.11905 0.30922 0.0
C382 C 0.26358 0.16082 0.30356 0.0
C383 C 0.24273 0.15313 0.29006 0.0
C384 C 0.21949 0.1283 0.3236 0.0
C385 C 0.1749 0.07042 0.32865 0.0
C386 C 0.18684 0.07674 0.34287 0.0
C387 C 0.15432 1.00797 0.3466 0.0
C388 C 0.1554 1.00947 0.35957 0.0
C389 C 0.18821 0.07993 0.36925 0.0
H390 H 0.24622 0.20196 0.35007 0.0
C391 C 0.22288 0.14924 0.36559 0.0
C392 C 0.22217 0.14774 0.35256 0.0
H393 H 0.24797 0.20463 0.37269 0.0
H394 H 1.02044 0.02619 0.28197 0.0
H395 H 0.05624 0.03999 0.30511 0.0
H396 H 0.33154 0.19903 0.30958 0.0
H397 H 0.29495 0.18565 0.28597 0.0
H398 H 0.27397 0.1831 0.33003 0.0
H399 H 0.1265 1.01389 0.32194 0.0
H400 H 0.12662 0.95234 0.3394 0.0
H401 H 0.12979 0.95494 0.36195 0.0
C402 C 0.18288 0.03661 0.65287 0.0
C403 C 0.14545 0.0633 0.64358 0.0
C404 C 0.16749 0.04239 0.66521 0.0
C405 C 0.11384 0.07483 0.66854 0.0
C406 C 0.0756 0.10033 0.65916 0.0
C407 C 0.09144 0.09503 0.64691 0.0
C408 C 0.09423 0.08269 0.68146 0.0
C409 C 0.14059 0.07876 0.69248 0.0
C410 C 0.12225 0.09299 0.70543 0.0
C411 C 0.15239 0.06554 0.71531 0.0
C412 C 0.13786 0.07971 0.72765 0.0
C413 C 0.09313 0.12204 0.73038 0.0
H414 H 0.05749 0.16168 0.70133 0.0
C415 C 0.06398 0.15007 0.72054 0.0
C416 C 0.07874 0.13633 0.70832 0.0
H417 H 0.03039 0.18389 0.72229 0.0
H418 H 0.22516 1.01214 0.65068 0.0
H419 H 0.19707 1.02062 0.67197 0.0
H420 H 0.03345 0.12507 0.66134 0.0
H421 H 0.06035 0.11507 0.63997 0.0
H422 H 0.03907 0.09409 0.68184 0.0
H423 H 0.19445 0.06542 0.69218 0.0
H424 H 0.18715 0.03285 0.71349 0.0
H425 H 0.16168 0.05764 0.73502 0.0
loop_
_geom_bond_atom_site_label_1
_geom_bond_atom_site_label_2
_geom_bond_distance
_geom_bond_site_symmetry_2
_ccdc_geom_bond_type
Cu0 N1 1.999 . S
Cu0 O6 1.974 . S
Cu0 N11 1.985 . S
Cu0 O20 1.959 . S
N1 Cu0 1.999 . S
N1 C3 1.263 . S
N1 C5 1.389 . S
N2 C3 1.358 . S
N2 C4 1.400 . S
C3 N1 1.263 . S
C3 N2 1.358 . S
C3 H9 0.930 . S
C4 N2 1.400 . S
C4 C5 1.351 . S
C4 H21 0.930 . S
C5 N1 1.389 . S
C5 C4 1.351 . S
C5 H10 0.930 . S
O6 Cu0 1.974 . S
O6 C16 1.282 . S
C7 O8 1.261 . S
C7 O20 1.251 . S
O8 C7 1.261 . S
H9 C3 0.930 . S
H10 C5 0.930 . S
N11 Cu0 1.985 . S
N11 C13 1.335 . S
N11 C14 1.390 . S
N12 C13 1.345 . S
N12 C15 1.336 . S
C13 N11 1.335 . S
C13 N12 1.345 . S
C13 H18 0.930 . S
C14 N11 1.390 . S
C14 C15 1.346 . S
C14 H19 0.930 . S
C15 N12 1.336 . S
C15 C14 1.346 . S
C15 H22 0.929 . S
C16 O6 1.282 . S
C16 O17 1.216 . S
O17 C16 1.216 . S
H18 C13 0.930 . S
H19 C14 0.930 . S
O20 Cu0 1.959 . S
O20 C7 1.251 . S
H21 C4 0.930 . S
H22 C15 0.929 . S
Cu23 N24 1.999 . S
Cu23 O29 1.974 . S
Cu23 N34 1.985 . S
Cu23 O43 1.959 . S
N24 Cu23 1.999 . S
N24 C26 1.263 . S
N24 C28 1.389 . S
N25 C26 1.358 . S
N25 C27 1.400 . S
C26 N24 1.263 . S
C26 N25 1.358 . S
C26 H32 0.930 . S
C27 N25 1.400 . S
C27 C28 1.351 . S
C27 H44 0.930 . S
C28 N24 1.389 . S
C28 C27 1.351 . S
C28 H33 0.930 . S
O29 Cu23 1.974 . S
O29 C39 1.282 1_545 S
C30 O31 1.261 1_545 S
C30 O43 1.251 1_655 S
O31 C30 1.261 1_565 S
H32 C26 0.930 . S
H33 C28 0.930 . S
N34 Cu23 1.985 . S
N34 C36 1.335 . S
N34 C37 1.390 . S
N35 C36 1.345 . S
N35 C38 1.336 1_545 S
C36 N34 1.335 . S
C36 N35 1.345 . S
C36 H41 0.930 . S
C37 N34 1.390 . S
C37 C38 1.346 1_545 S
C37 H42 0.930 1_545 S
C38 N35 1.336 1_565 S
C38 C37 1.346 1_565 S
C38 H45 0.929 . S
C39 O29 1.282 1_565 S
C39 O40 1.216 . S
O40 C39 1.216 . S
H41 C36 0.930 . S
H42 C37 0.930 1_565 S
O43 Cu23 1.959 . S
O43 C30 1.251 1_455 S
H44 C27 0.930 . S
H45 C38 0.929 . S
Cu46 N47 1.999 1_455 S
Cu46 O52 1.974 . S
Cu46 N57 1.985 . S
Cu46 O66 1.959 . S
N47 Cu46 1.999 1_655 S
N47 C49 1.263 1_545 S
N47 C51 1.389 1_545 S
N48 C49 1.358 . S
N48 C50 1.400 . S
C49 N47 1.263 1_565 S
C49 N48 1.358 . S
C49 H55 0.930 1_565 S
C50 N48 1.400 . S
C50 C51 1.351 . S
C50 H67 0.930 . S
C51 N47 1.389 1_565 S
C51 C50 1.351 . S
C51 H56 0.930 . S
O52 Cu46 1.974 . S
O52 C62 1.282 1_455 S
C53 O54 1.261 . S
C53 O66 1.251 1_655 S
O54 C53 1.261 . S
H55 C49 0.930 1_545 S
H56 C51 0.930 . S
N57 Cu46 1.985 . S
N57 C59 1.335 . S
N57 C60 1.390 . S
N58 C59 1.345 . S
N58 C61 1.336 . S
C59 N57 1.335 . S
C59 N58 1.345 . S
C59 H64 0.930 . S
C60 N57 1.390 . S
C60 C61 1.346 . S
C60 H65 0.930 . S
C61 N58 1.336 . S
C61 C60 1.346 . S
C61 H68 0.929 . S
C62 O52 1.282 1_655 S
C62 O63 1.216 . S
O63 C62 1.216 . S
H64 C59 0.930 . S
H65 C60 0.930 . S
O66 Cu46 1.959 . S
O66 C53 1.251 1_455 S
H67 C50 0.930 . S
H68 C61 0.929 . S
Cu69 N70 1.999 . S
Cu69 O75 1.974 1_455 S
Cu69 N80 1.984 . S
Cu69 O89 1.959 . S
N70 Cu69 1.999 . S
N70 C72 1.263 1_455 S
N70 C74 1.389 . S
N71 C72 1.358 1_455 S
N71 C73 1.400 . S
C72 N70 1.263 1_655 S
C72 N71 1.358 1_655 S
C72 H78 0.930 1_545 S
C73 N71 1.400 . S
C73 C74 1.351 . S
C73 H90 0.930 . S
C74 N70 1.389 . S
C74 C73 1.351 . S
C74 H79 0.930 . S
O75 Cu69 1.974 1_655 S
O75 C85 1.282 1_545 S
C76 O77 1.261 . S
C76 O89 1.251 1_565 S
O77 C76 1.261 . S
H78 C72 0.930 1_565 S
H79 C74 0.930 . S
N80 Cu69 1.984 . S
N80 C82 1.342 . S
N80 C83 1.383 1_445 S
N81 C82 1.345 . S
N81 C84 1.336 1_445 S
C82 N80 1.342 . S
C82 N81 1.345 . S
C82 H87 0.930 . S
C83 N80 1.383 1_665 S
C83 C84 1.346 . S
C83 H88 0.930 . S
C84 N81 1.336 1_665 S
C84 C83 1.346 . S
C84 H91 0.929 . S
C85 O75 1.282 1_565 S
C85 O86 1.216 . S
O86 C85 1.216 . S
H87 C82 0.930 . S
H88 C83 0.930 . S
O89 Cu69 1.959 . S
O89 C76 1.251 1_545 S
H90 C73 0.930 . S
H91 C84 0.929 . S
Cu92 N93 1.999 . S
Cu92 O98 1.974 . S
Cu92 N103 1.985 1_455 S
Cu92 O112 1.959 . S
N93 Cu92 1.999 . S
N93 C95 1.263 . S
N93 C97 1.389 . S
N94 C95 1.358 . S
N94 C96 1.400 . S
C95 N93 1.263 . S
C95 N94 1.358 . S
C95 H101 0.930 . S
C96 N94 1.400 . S
C96 C97 1.351 . S
C96 H113 0.930 . S
C97 N93 1.389 . S
C97 C96 1.351 . S
C97 H102 0.930 . S
O98 Cu92 1.974 . S
O98 C108 1.282 . S
C99 O100 1.261 . S
C99 O112 1.251 . S
O100 C99 1.261 . S
H101 C95 0.930 . S
H102 C97 0.930 . S
N103 Cu92 1.985 1_655 S
N103 C105 1.335 . S
N103 C106 1.390 . S
N104 C105 1.345 1_565 S
N104 C107 1.336 . S
C105 N103 1.335 . S
C105 N104 1.345 1_545 S
C105 H110 0.930 . S
C106 N103 1.390 . S
C106 C107 1.346 1_545 S
C106 H111 0.930 . S
C107 N104 1.336 . S
C107 C106 1.346 1_565 S
C107 H114 0.929 . S
C108 O98 1.282 . S
C108 O109 1.216 1_455 S
O109 C108 1.216 1_655 S
H110 C105 0.930 . S
H111 C106 0.930 . S
O112 Cu92 1.959 . S
O112 C99 1.251 . S
H113 C96 0.930 . S
H114 C107 0.929 . S
Cu115 N116 1.999 . S
Cu115 O121 1.974 . S
Cu115 N126 1.985 . S
Cu115 O135 1.959 . S
N116 Cu115 1.999 . S
N116 C118 1.263 . S
N116 C120 1.389 . S
N117 C118 1.358 . S
N117 C119 1.400 . S
C118 N116 1.263 . S
C118 N117 1.358 . S
C118 H124 0.930 . S
C119 N117 1.400 . S
C119 C120 1.351 . S
C119 H136 0.930 . S
C120 N116 1.389 . S
C120 C119 1.351 . S
C120 H125 0.930 . S
O121 Cu115 1.974 . S
O121 C131 1.282 . S
C122 O123 1.261 . S
C122 O135 1.251 . S
O123 C122 1.261 . S
H124 C118 0.930 . S
H125 C120 0.930 . S
N126 Cu115 1.985 . S
N126 C128 1.335 . S
N126 C129 1.390 . S
N127 C128 1.345 1_565 S
N127 C130 1.336 . S
C128 N126 1.335 . S
C128 N127 1.345 1_545 S
C128 H133 0.930 . S
C129 N126 1.390 . S
C129 C130 1.346 1_545 S
C129 H134 0.930 . S
C130 N127 1.336 . S
C130 C129 1.346 1_565 S
C130 H137 0.929 . S
C131 O121 1.282 . S
C131 O132 1.216 . S
O132 C131 1.216 . S
H133 C128 0.930 . S
H134 C129 0.930 . S
O135 Cu115 1.959 . S
O135 C122 1.251 . S
H136 C119 0.930 . S
H137 C130 0.929 . S
C138 C139 1.386 . S
C138 C140 1.383 . S
C138 H154 0.951 . S
C139 C138 1.386 . S
C139 C143 1.383 . S
C140 C138 1.383 . S
C140 C141 1.402 . S
C140 H155 0.951 . S
C141 C140 1.402 . S
C141 C142 1.375 . S
C141 C144 1.481 . S
C142 C141 1.375 . S
C142 C143 1.367 . S
C142 H156 0.951 . S
C143 C139 1.383 . S
C143 C142 1.367 . S
C143 H157 0.950 1_565 S
C144 C141 1.481 . S
C144 C145 1.297 . S
C144 H158 0.950 . S
C145 C144 1.297 . S
C145 C146 1.479 . S
C145 H159 0.950 . S
C146 C145 1.479 . S
C146 C147 1.375 . S
C146 C152 1.404 . S
C147 C146 1.375 . S
C147 C148 1.369 . S
C147 H160 0.950 . S
C148 C147 1.369 . S
C148 C149 1.392 . S
C148 H161 0.951 . S
C149 C148 1.392 . S
C149 C151 1.384 . S
H150 C152 0.949 . S
C151 C149 1.384 . S
C151 C152 1.385 . S
C151 H153 0.950 . S
C152 C146 1.404 . S
C152 H150 0.949 . S
C152 C151 1.385 . S
H153 C151 0.950 . S
H154 C138 0.951 . S
H155 C140 0.951 . S
H156 C142 0.951 . S
H157 C143 0.950 1_545 S
H158 C144 0.950 . S
H159 C145 0.950 . S
H160 C147 0.950 . S
H161 C148 0.951 . S
C162 C163 1.391 . S
C162 C164 1.383 . S
C162 H178 0.951 . S
C163 C162 1.391 . S
C163 C167 1.380 1_565 S
C164 C162 1.383 . S
C164 C165 1.402 . S
C164 H179 0.951 . S
C165 C164 1.402 . S
C165 C166 1.375 1_565 S
C165 C168 1.481 . S
C166 C165 1.375 1_545 S
C166 C167 1.367 . S
C166 H180 0.951 . S
C167 C163 1.380 1_545 S
C167 C166 1.367 . S
C167 H181 0.950 . S
C168 C165 1.481 . S
C168 C169 1.297 . S
C168 H182 0.950 1_565 S
C169 C168 1.297 . S
C169 C170 1.479 . S
C169 H183 0.950 . S
C170 C169 1.479 . S
C170 C171 1.375 . S
C170 C176 1.404 . S
C171 C170 1.375 . S
C171 C172 1.369 . S
C171 H184 0.950 . S
C172 C171 1.369 . S
C172 C173 1.392 . S
C172 H185 0.951 . S
C173 C172 1.392 . S
C173 C175 1.384 1_565 S
H174 C176 0.949 1_545 S
C175 C173 1.384 1_545 S
C175 C176 1.385 1_545 S
C175 H177 0.950 . S
C176 C170 1.404 . S
C176 H174 0.949 1_565 S
C176 C175 1.385 1_565 S
H177 C175 0.950 . S
H178 C162 0.951 . S
H179 C164 0.951 . S
H180 C166 0.951 . S
H181 C167 0.950 . S
H182 C168 0.950 1_545 S
H183 C169 0.950 . S
H184 C171 0.950 . S
H185 C172 0.951 . S
C186 C187 1.386 . S
C186 C188 1.383 . S
C186 H202 0.951 . S
C187 C186 1.386 . S
C187 C191 1.383 . S
C188 C186 1.383 . S
C188 C189 1.402 . S
C188 H203 0.951 . S
C189 C188 1.402 . S
C189 C190 1.375 . S
C189 C192 1.481 . S
C190 C189 1.375 . S
C190 C191 1.367 . S
C190 H204 0.951 . S
C191 C187 1.383 . S
C191 C190 1.367 . S
C191 H205 0.950 . S
C192 C189 1.481 . S
C192 C193 1.297 . S
C192 H206 0.950 . S
C193 C192 1.297 . S
C193 C194 1.479 . S
C193 H207 0.950 . S
C194 C193 1.479 . S
C194 C195 1.375 . S
C194 C200 1.404 . S
C195 C194 1.375 . S
C195 C196 1.369 . S
C195 H208 0.950 . S
C196 C195 1.369 . S
C196 C197 1.392 . S
C196 H209 0.951 . S
C197 C196 1.392 . S
C197 C199 1.384 . S
H198 C200 0.949 . S
C199 C197 1.384 . S
C199 C200 1.385 . S
C199 H201 0.950 . S
C200 C194 1.404 . S
C200 H198 0.949 . S
C200 C199 1.385 . S
H201 C199 0.950 . S
H202 C186 0.951 . S
H203 C188 0.951 . S
H204 C190 0.951 . S
H205 C191 0.950 . S
H206 C192 0.950 . S
H207 C193 0.950 . S
H208 C195 0.950 . S
H209 C196 0.951 . S
C210 C211 1.386 1_545 S
C210 C212 1.383 . S
C210 H226 0.951 . S
C211 C210 1.386 1_565 S
C211 C215 1.383 . S
C212 C210 1.383 . S
C212 C213 1.402 1_545 S
C212 H227 0.951 . S
C213 C212 1.402 1_565 S
C213 C214 1.375 . S
C213 C216 1.481 . S
C214 C213 1.375 . S
C214 C215 1.367 . S
C214 H228 0.951 . S
C215 C211 1.383 . S
C215 C214 1.367 . S
C215 H229 0.950 . S
C216 C213 1.481 . S
C216 C217 1.297 . S
C216 H230 0.950 . S
C217 C216 1.297 . S
C217 C218 1.479 . S
C217 H231 0.950 1_565 S
C218 C217 1.479 . S
C218 C219 1.375 1_565 S
C218 C224 1.404 . S
C219 C218 1.375 1_545 S
C219 C220 1.369 . S
C219 H232 0.950 . S
C220 C219 1.369 . S
C220 C221 1.392 1_545 S
C220 H233 0.951 . S
C221 C220 1.392 1_565 S
C221 C223 1.384 . S
H222 C224 0.949 . S
C223 C221 1.384 . S
C223 C224 1.385 . S
C223 H225 0.950 . S
C224 C218 1.404 . S
C224 H222 0.949 . S
C224 C223 1.385 . S
H225 C223 0.950 . S
H226 C210 0.951 . S
H227 C212 0.951 . S
H228 C214 0.951 . S
H229 C215 0.950 . S
H230 C216 0.950 . S
H231 C217 0.950 1_545 S
H232 C219 0.950 . S
H233 C220 0.951 . S
C234 C235 1.386 . S
C234 C236 1.383 . S
C234 H250 0.951 . S
C235 C234 1.386 . S
C235 C239 1.383 . S
C236 C234 1.383 . S
C236 C237 1.402 . S
C236 H251 0.951 . S
C237 C236 1.402 . S
C237 C238 1.375 . S
C237 C240 1.481 . S
C238 C237 1.375 . S
C238 C239 1.367 . S
C238 H252 0.951 . S
C239 C235 1.383 . S
C239 C238 1.367 . S
C239 H253 0.950 . S
C240 C237 1.481 . S
C240 C241 1.297 . S
C240 H254 0.950 . S
C241 C240 1.297 . S
C241 C242 1.479 . S
C241 H255 0.950 . S
C242 C241 1.479 . S
C242 C243 1.375 . S
C242 C248 1.404 . S
C243 C242 1.375 . S
C243 C244 1.369 . S
C243 H256 0.950 . S
C244 C243 1.369 . S
C244 C245 1.392 . S
C244 H257 0.951 . S
C245 C244 1.392 . S
C245 C247 1.384 . S
H246 C248 0.949 . S
C247 C245 1.384 . S
C247 C248 1.385 . S
C247 H249 0.950 . S
C248 C242 1.404 . S
C248 H246 0.949 . S
C248 C247 1.385 . S
H249 C247 0.950 . S
H250 C234 0.951 . S
H251 C236 0.951 . S
H252 C238 0.951 . S
H253 C239 0.950 . S
H254 C240 0.950 . S
H255 C241 0.950 . S
H256 C243 0.950 . S
H257 C244 0.951 . S
C258 C259 1.386 . S
C258 C260 1.383 . S
C258 H274 0.951 . S
C259 C258 1.386 . S
C259 C263 1.383 . S
C260 C258 1.383 . S
C260 C261 1.402 . S
C260 H275 0.951 . S
C261 C260 1.402 . S
C261 C262 1.375 . S
C261 C264 1.481 . S
C262 C261 1.375 . S
C262 C263 1.367 . S
C262 H276 0.951 . S
C263 C259 1.383 . S
C263 C262 1.367 . S
C263 H277 0.950 . S
C264 C261 1.481 . S
C264 C265 1.297 . S
C264 H278 0.950 . S
C265 C264 1.297 . S
C265 C266 1.479 . S
C265 H279 0.950 . S
C266 C265 1.479 . S
C266 C267 1.375 . S
C266 C272 1.404 . S
C267 C266 1.375 . S
C267 C268 1.369 . S
C267 H280 0.950 . S
C268 C267 1.369 . S
C268 C269 1.392 . S
C268 H281 0.951 . S
C269 C268 1.392 . S
C269 C271 1.384 . S
H270 C272 0.949 . S
C271 C269 1.384 . S
C271 C272 1.385 . S
C271 H273 0.950 . S
C272 C266 1.404 . S
C272 H270 0.949 . S
C272 C271 1.385 . S
H273 C271 0.950 . S
H274 C258 0.951 . S
H275 C260 0.951 . S
H276 C262 0.951 . S
H277 C263 0.950 . S
H278 C264 0.950 . S
H279 C265 0.950 . S
H280 C267 0.950 . S
H281 C268 0.951 . S
C282 C283 1.386 . S
C282 C284 1.383 . S
C282 H298 0.951 . S
C283 C282 1.386 . S
C283 C287 1.383 . S
C284 C282 1.383 . S
C284 C285 1.402 . S
C284 H299 0.951 . S
C285 C284 1.402 . S
C285 C286 1.375 . S
C285 C288 1.481 . S
C286 C285 1.375 . S
C286 C287 1.367 . S
C286 H300 0.951 . S
C287 C283 1.383 . S
C287 C286 1.367 . S
C287 H301 0.950 . S
C288 C285 1.481 . S
C288 C289 1.297 . S
C288 H302 0.950 . S
C289 C288 1.297 . S
C289 C290 1.479 . S
C289 H303 0.950 . S
C290 C289 1.479 . S
C290 C291 1.375 . S
C290 C296 1.404 . S
C291 C290 1.375 . S
C291 C292 1.369 . S
C291 H304 0.950 . S
C292 C291 1.369 . S
C292 C293 1.392 . S
C292 H305 0.951 . S
C293 C292 1.392 . S
C293 C295 1.384 . S
H294 C296 0.949 . S
C295 C293 1.384 . S
C295 C296 1.385 . S
C295 H297 0.950 . S
C296 C290 1.404 . S
C296 H294 0.949 . S
C296 C295 1.385 . S
H297 C295 0.950 . S
H298 C282 0.951 . S
H299 C284 0.951 . S
H300 C286 0.951 . S
H301 C287 0.950 . S
H302 C288 0.950 . S
H303 C289 0.950 . S
H304 C291 0.950 . S
H305 C292 0.951 . S
C306 C307 1.386 . S
C306 C308 1.383 . S
C306 H322 0.951 . S
C307 C306 1.386 . S
C307 C311 1.383 1_545 S
C308 C306 1.383 . S
C308 C309 1.402 . S
C308 H323 0.951 . S
C309 C308 1.402 . S
C309 C310 1.375 1_545 S
C309 C312 1.481 . S
C310 C309 1.375 1_565 S
C310 C311 1.367 . S
C310 H324 0.951 . S
C311 C307 1.383 1_565 S
C311 C310 1.367 . S
C311 H325 0.950 . S
C312 C309 1.481 . S
C312 C313 1.297 . S
C312 H326 0.950 1_545 S
C313 C312 1.297 . S
C313 C314 1.479 . S
C313 H327 0.950 . S
C314 C313 1.479 . S
C314 C315 1.375 . S
C314 C320 1.404 1_545 S
C315 C314 1.375 . S
C315 C316 1.369 . S
C315 H328 0.950 . S
C316 C315 1.369 . S
C316 C317 1.392 . S
C316 H329 0.951 . S
C317 C316 1.392 . S
C317 C319 1.384 1_545 S
H318 C320 0.949 . S
C319 C317 1.384 1_565 S
C319 C320 1.385 . S
C319 H321 0.950 . S
C320 C314 1.404 1_565 S
C320 H318 0.949 . S
C320 C319 1.385 . S
H321 C319 0.950 . S
H322 C306 0.951 . S
H323 C308 0.951 . S
H324 C310 0.951 . S
H325 C311 0.950 . S
H326 C312 0.950 1_565 S
H327 C313 0.950 . S
H328 C315 0.950 . S
H329 C316 0.951 . S
C330 C331 1.386 1_455 S
C330 C332 1.383 . S
C330 H346 0.951 . S
C331 C330 1.386 1_655 S
C331 C335 1.383 . S
C332 C330 1.383 . S
C332 C333 1.402 1_455 S
C332 H347 0.951 . S
C333 C332 1.402 1_655 S
C333 C334 1.375 . S
C333 C336 1.481 . S
C334 C333 1.375 . S
C334 C335 1.367 . S
C334 H348 0.951 . S
C335 C331 1.383 . S
C335 C334 1.367 . S
C335 H349 0.950 . S
C336 C333 1.481 . S
C336 C337 1.297 1_655 S
C336 H350 0.950 . S
C337 C336 1.297 1_455 S
C337 C338 1.479 . S
C337 H351 0.950 . S
C338 C337 1.479 . S
C338 C339 1.375 . S
C338 C344 1.404 1_455 S
C339 C338 1.375 . S
C339 C340 1.369 . S
C339 H352 0.950 . S
C340 C339 1.369 . S
C340 C341 1.392 . S
C340 H353 0.951 . S
C341 C340 1.392 . S
C341 C343 1.384 1_455 S
H342 C344 0.949 . S
C343 C341 1.384 1_655 S
C343 C344 1.385 . S
C343 H345 0.950 . S
C344 C338 1.404 1_655 S
C344 H342 0.949 . S
C344 C343 1.385 . S
H345 C343 0.950 . S
H346 C330 0.951 . S
H347 C332 0.951 . S
H348 C334 0.951 . S
H349 C335 0.950 . S
H350 C336 0.950 . S
H351 C337 0.950 . S
H352 C339 0.950 . S
H353 C340 0.951 . S
C354 C355 1.386 . S
C354 C356 1.383 . S
C354 H370 0.951 . S
C355 C354 1.386 . S
C355 C359 1.383 . S
C356 C354 1.383 . S
C356 C357 1.402 . S
C356 H371 0.951 . S
C357 C356 1.402 . S
C357 C358 1.375 . S
C357 C360 1.481 . S
C358 C357 1.375 . S
C358 C359 1.367 . S
C358 H372 0.951 . S
C359 C355 1.383 . S
C359 C358 1.367 . S
C359 H373 0.950 . S
C360 C357 1.481 . S
C360 C361 1.292 . S
C360 H374 0.958 . S
C361 C360 1.292 . S
C361 C362 1.486 1_554 S
C361 H375 0.948 . S
C362 C361 1.486 1_556 S
C362 C363 1.375 . S
C362 C368 1.404 . S
C363 C362 1.375 . S
C363 C364 1.369 . S
C363 H376 0.950 . S
C364 C363 1.369 . S
C364 C365 1.392 . S
C364 H377 0.951 . S
C365 C364 1.392 . S
C365 C367 1.384 . S
H366 C368 0.949 . S
C367 C365 1.384 . S
C367 C368 1.385 . S
C367 H369 0.950 . S
C368 C362 1.404 . S
C368 H366 0.949 . S
C368 C367 1.385 . S
H369 C367 0.950 . S
H370 C354 0.951 . S
H371 C356 0.951 . S
H372 C358 0.951 . S
H373 C359 0.950 . S
H374 C360 0.958 . S
H375 C361 0.948 . S
H376 C363 0.950 . S
H377 C364 0.951 . S
C378 C379 1.386 . S
C378 C380 1.383 . S
C378 H394 0.951 . S
C379 C378 1.386 . S
C379 C383 1.383 . S
C380 C378 1.383 . S
C380 C381 1.402 . S
C380 H395 0.951 . S
C381 C380 1.402 . S
C381 C382 1.375 . S
C381 C384 1.481 . S
C382 C381 1.375 . S
C382 C383 1.367 . S
C382 H396 0.951 . S
C383 C379 1.383 . S
C383 C382 1.367 . S
C383 H397 0.950 . S
C384 C381 1.481 . S
C384 C385 1.297 . S
C384 H398 0.950 . S
C385 C384 1.297 . S
C385 C386 1.479 . S
C385 H399 0.950 . S
C386 C385 1.479 . S
C386 C387 1.375 . S
C386 C392 1.404 . S
C387 C386 1.375 . S
C387 C388 1.369 . S
C387 H400 0.950 1_545 S
C388 C387 1.369 . S
C388 C389 1.392 . S
C388 H401 0.951 1_545 S
C389 C388 1.392 . S
C389 C391 1.384 . S
H390 C392 0.949 . S
C391 C389 1.384 . S
C391 C392 1.385 . S
C391 H393 0.950 . S
C392 C386 1.404 . S
C392 H390 0.949 . S
C392 C391 1.385 . S
H393 C391 0.950 . S
H394 C378 0.951 . S
H395 C380 0.951 . S
H396 C382 0.951 . S
H397 C383 0.950 . S
H398 C384 0.950 . S
H399 C385 0.950 . S
H400 C387 0.950 1_565 S
H401 C388 0.951 1_565 S
C402 C403 1.386 . S
C402 C404 1.383 . S
C402 H418 0.951 1_545 S
C403 C402 1.386 . S
C403 C407 1.383 . S
C404 C402 1.383 . S
C404 C405 1.402 . S
C404 H419 0.951 . S
C405 C404 1.402 . S
C405 C406 1.375 . S
C405 C408 1.481 . S
C406 C405 1.375 . S
C406 C407 1.367 . S
C406 H420 0.951 1_455 S
C407 C403 1.383 . S
C407 C406 1.367 . S
C407 H421 0.950 1_455 S
C408 C405 1.481 . S
C408 C409 1.297 . S
C408 H422 0.950 . S
C409 C408 1.297 . S
C409 C410 1.479 . S
C409 H423 0.950 . S
C410 C409 1.479 . S
C410 C411 1.375 . S
C410 C416 1.404 . S
C411 C410 1.375 . S
C411 C412 1.369 . S
C411 H424 0.950 . S
C412 C411 1.369 . S
C412 C413 1.392 1_455 S
C412 H425 0.951 . S
C413 C412 1.392 1_655 S
C413 C415 1.384 1_655 S
H414 C416 0.949 . S
C415 C413 1.384 1_455 S
C415 C416 1.385 . S
C415 H417 0.950 1_455 S
C416 C410 1.404 . S
C416 H414 0.949 . S
C416 C415 1.385 . S
H417 C415 0.950 1_655 S
H418 C402 0.951 1_565 S
H419 C404 0.951 . S
H420 C406 0.951 1_655 S
H421 C407 0.950 1_655 S
H422 C408 0.950 . S
H423 C409 0.950 . S
H424 C411 0.950 . S
H425 C412 0.951 . S
C139 N2 1.428 1_565 S
C149 N12 1.482 . S
C163 C39 1.473 . S
C173 C30 1.471 1_565 S
C187 N48 1.476 . S
C197 N58 1.418 . S
C211 C76 1.479 . S
C221 C85 1.471 . S
C235 N94 1.437 . S
C245 N104 1.486 . S
C259 N117 1.428 . S
C269 N127 1.482 . S
C283 C131 1.471 . S
C293 C16 1.434 . S
C307 N81 1.481 . S
C317 N35 1.431 . S
C331 C62 1.515 . S
C341 C108 1.521 . S
C355 C7 1.513 . S
C365 C99 1.490 . S
C379 C122 1.486 . S
C389 N25 1.478 . S
C403 N71 1.444 . S
C413 C53 1.500 . S
