# Generated by pormake.
# Topology unb, (4)-cn, num edge types: 1
# Building blocks:
#     Node 0, Type 0, BuildingBlock: CEKHIL_clean_sbu_0, # of connection points: 4
#     Node 1, Type 0, BuildingBlock: CEKHIL_clean_sbu_0, # of connection points: 4
#     Node 2, Type 0, BuildingBlock: CEKHIL_clean_sbu_0, # of connection points: 4
#     Node 3, Type 0, BuildingBlock: CEKHIL_clean_sbu_0, # of connection points: 4
#     Node 4, Type 0, BuildingBlock: CEKHIL_clean_sbu_0, # of connection points: 4
#     Node 5, Type 0, BuildingBlock: CEKHIL_clean_sbu_0, # of connection points: 4
#     Node 6, Type 0, BuildingBlock: CEKHIL_clean_sbu_0, # of connection points: 4
#     Node 7, Type 0, BuildingBlock: CEKHIL_clean_sbu_0, # of connection points: 4
#     Node 8, Type 0, BuildingBlock: CEKHIL_clean_sbu_0, # of connection points: 4
#     Node 9, Type 0, BuildingBlock: CEKHIL_clean_sbu_0, # of connection points: 4
#     Node 10, Type 0, BuildingBlock: CEKHIL_clean_sbu_0, # of connection points: 4
#     Node 11, Type 0, BuildingBlock: CEKHIL_clean_sbu_0, # of connection points: 4
#     Node 12, Type 0, BuildingBlock: CEKHIL_clean_sbu_0, # of connection points: 4
#     Node 13, Type 0, BuildingBlock: CEKHIL_clean_sbu_0, # of connection points: 4
#     Node 14, Type 0, BuildingBlock: CEKHIL_clean_sbu_0, # of connection points: 4
#     Node 15, Type 0, BuildingBlock: CEKHIL_clean_sbu_0, # of connection points: 4
#     Node 16, Type 0, BuildingBlock: CEKHIL_clean_sbu_0, # of connection points: 4
#     Node 17, Type 0, BuildingBlock: CEKHIL_clean_sbu_0, # of connection points: 4
#     Edge 18, Type (0, 0), BuildingBlock: XUDNAN_clean_linker_2, # of connection points: 2
#     Edge 19, Type (0, 0), BuildingBlock: XUDNAN_clean_linker_2, # of connection points: 2
#     Edge 20, Type (0, 0), BuildingBlock: XUDNAN_clean_linker_2, # of connection points: 2
#     Edge 21, Type (0, 0), BuildingBlock: XUDNAN_clean_linker_2, # of connection points: 2
#     Edge 22, Type (0, 0), BuildingBlock: XUDNAN_clean_linker_2, # of connection points: 2
#     Edge 23, Type (0, 0), BuildingBlock: XUDNAN_clean_linker_2, # of connection points: 2
#     Edge 24, Type (0, 0), BuildingBlock: XUDNAN_clean_linker_2, # of connection points: 2
#     Edge 25, Type (0, 0), BuildingBlock: XUDNAN_clean_linker_2, # of connection points: 2
#     Edge 26, Type (0, 0), BuildingBlock: XUDNAN_clean_linker_2, # of connection points: 2
#     Edge 27, Type (0, 0), BuildingBlock: XUDNAN_clean_linker_2, # of connection points: 2
#     Edge 28, Type (0, 0), BuildingBlock: XUDNAN_clean_linker_2, # of connection points: 2
#     Edge 29, Type (0, 0), BuildingBlock: XUDNAN_clean_linker_2, # of connection points: 2
#     Edge 30, Type (0, 0), BuildingBlock: XUDNAN_clean_linker_2, # of connection points: 2
#     Edge 31, Type (0, 0), BuildingBlock: XUDNAN_clean_linker_2, # of connection points: 2
#     Edge 32, Type (0, 0), BuildingBlock: XUDNAN_clean_linker_2, # of connection points: 2
#     Edge 33, Type (0, 0), BuildingBlock: XUDNAN_clean_linker_2, # of connection points: 2
#     Edge 34, Type (0, 0), BuildingBlock: XUDNAN_clean_linker_2, # of connection points: 2
#     Edge 35, Type (0, 0), BuildingBlock: XUDNAN_clean_linker_2, # of connection points: 2
#     Edge 36, Type (0, 0), BuildingBlock: XUDNAN_clean_linker_2, # of connection points: 2
#     Edge 37, Type (0, 0), BuildingBlock: XUDNAN_clean_linker_2, # of connection points: 2
#     Edge 38, Type (0, 0), BuildingBlock: XUDNAN_clean_linker_2, # of connection points: 2
#     Edge 39, Type (0, 0), BuildingBlock: XUDNAN_clean_linker_2, # of connection points: 2
#     Edge 40, Type (0, 0), BuildingBlock: XUDNAN_clean_linker_2, # of connection points: 2
#     Edge 41, Type (0, 0), BuildingBlock: XUDNAN_clean_linker_2, # of connection points: 2
#     Edge 42, Type (0, 0), BuildingBlock: XUDNAN_clean_linker_2, # of connection points: 2
#     Edge 43, Type (0, 0), BuildingBlock: XUDNAN_clean_linker_2, # of connection points: 2
#     Edge 44, Type (0, 0), BuildingBlock: XUDNAN_clean_linker_2, # of connection points: 2
#     Edge 45, Type (0, 0), BuildingBlock: XUDNAN_clean_linker_2, # of connection points: 2
#     Edge 46, Type (0, 0), BuildingBlock: XUDNAN_clean_linker_2, # of connection points: 2
#     Edge 47, Type (0, 0), BuildingBlock: XUDNAN_clean_linker_2, # of connection points: 2
#     Edge 48, Type (0, 0), BuildingBlock: XUDNAN_clean_linker_2, # of connection points: 2
#     Edge 49, Type (0, 0), BuildingBlock: XUDNAN_clean_linker_2, # of connection points: 2
#     Edge 50, Type (0, 0), BuildingBlock: XUDNAN_clean_linker_2, # of connection points: 2
#     Edge 51, Type (0, 0), BuildingBlock: XUDNAN_clean_linker_2, # of connection points: 2
#     Edge 52, Type (0, 0), BuildingBlock: XUDNAN_clean_linker_2, # of connection points: 2
#     Edge 53, Type (0, 0), BuildingBlock: XUDNAN_clean_linker_2, # of connection points: 2
# Relax obj value: 0.114
# Max RMSD: 0.094
# Mean RMSD: 0.094
data_MOF--net-unb--node1-CEKHIL_clean_sbu_0--edge1-XUDNAN_clean_linker_2
_symmetry_space_group_name_H-M    P1
_symmetry_Int_Tables_number       1
_symmetry_cell_setting            triclinic
loop_
_symmetry_equiv_pos_as_xyz
'x, y, z'
_cell_length_a     61.950034
_cell_length_b     62.236792
_cell_length_c     25.280281
_cell_angle_alpha  89.895364
_cell_angle_beta   89.988571
_cell_angle_gamma 119.98399
loop_
_atom_site_label
_atom_site_type_symbol
_atom_site_fract_x
_atom_site_fract_y
_atom_site_fract_z
_atom_type_partial_charge
Co0 Co 0.14748 0.27499 0.09533 0.0
O1 O 0.11849 0.27906 0.09861 0.0
O2 O 0.11864 0.24681 0.06303 0.0
C3 C 0.16011 0.28797 0.17985 0.0
O4 O 0.17314 0.26351 0.0835 0.0
Co5 Co 0.20146 0.31898 0.11168 0.0
O6 O 0.21186 0.29371 0.10454 0.0
C7 C 0.17076 0.31712 0.02084 0.0
C8 C 0.10637 0.25825 0.07313 0.0
C9 C 0.19673 0.27176 0.0889 0.0
O10 O 0.15679 0.29353 0.02656 0.0
O11 O 0.18756 0.33085 0.0542 0.0
O12 O 0.14336 0.2649 0.17078 0.0
O13 O 0.1678 0.3019 0.13875 0.0
Co14 Co 0.76747 0.88113 0.09839 0.0
O15 O 0.76876 0.85011 0.09872 0.0
O16 O 0.79803 0.88626 0.06835 0.0
C17 C 0.75232 0.87802 0.18201 0.0
O18 O 0.77618 0.9172 0.08827 0.0
Co19 Co 0.72259 0.88888 0.11113 0.0
O20 O 0.74486 0.92489 0.09695 0.0
C21 C 0.72755 0.8638 0.01674 0.0
C22 C 0.7904 0.86297 0.07559 0.0
C23 C 0.76759 0.9322 0.0866 0.0
O24 O 0.7506 0.87174 0.02767 0.0
O25 O 0.71285 0.86666 0.04775 0.0
O26 O 0.77605 0.88659 0.17401 0.0
O27 O 0.73866 0.8713 0.14017 0.0
Co28 Co 0.1633 0.89258 0.09735 0.0
O29 O 0.19444 0.92488 0.09585 0.0
O30 O 0.15783 0.91773 0.06713 0.0
C31 C 0.16744 0.88153 0.18131 0.0
O32 O 0.127 0.86498 0.08926 0.0
Co33 Co 0.15498 0.8399 0.11507 0.0
O34 O 0.11868 0.82621 0.10384 0.0
C35 C 0.17651 0.86698 0.01444 0.0
C36 C 0.18123 0.9335 0.07384 0.0
C37 C 0.11162 0.84146 0.09076 0.0
O38 O 0.17181 0.88431 0.02641 0.0
O39 O 0.17286 0.84927 0.04566 0.0
O40 O 0.15866 0.89643 0.17322 0.0
O41 O 0.17354 0.87411 0.13942 0.0
Co42 Co 0.28561 0.14458 0.90788 0.0
O43 O 0.2849 0.11271 0.90629 0.0
O44 O 0.25264 0.11762 0.9223 0.0
C45 C 0.31006 0.16141 0.83397 0.0
O46 O 0.27685 0.1723 0.91663 0.0
Co47 Co 0.33373 0.19642 0.91735 0.0
O48 O 0.31091 0.20955 0.92947 0.0
C49 C 0.31529 0.1612 0.00738 0.0
C50 C 0.26153 0.10269 0.91979 0.0
C51 C 0.28735 0.19551 0.92871 0.0
O52 O 0.29418 0.14731 0.98503 0.0
O53 O 0.33375 0.17973 0.98502 0.0
O54 O 0.28611 0.14647 0.8289 0.0
O55 O 0.31793 0.1648 0.88176 0.0
Co56 Co 0.89477 0.15276 0.9075 0.0
O57 O 0.9228 0.18632 0.90484 0.0
O58 O 0.92586 0.15319 0.92197 0.0
C59 C 0.87546 0.15678 0.83374 0.0
O60 O 0.87087 0.11507 0.91587 0.0
Co61 Co 0.83954 0.14051 0.91832 0.0
O62 O 0.83078 0.10533 0.92206 0.0
C63 C 0.87523 0.16252 0.00676 0.0
C64 C 0.93686 0.17721 0.91844 0.0
C65 C 0.8475 0.09914 0.923 0.0
O66 O 0.89095 0.1577 0.98455 0.0
O67 O 0.8552 0.15924 0.98485 0.0
O68 O 0.89312 0.1513 0.82872 0.0
O69 O 0.8708 0.15995 0.88159 0.0
Co70 Co 0.89168 0.75203 0.91648 0.0
O71 O 0.86008 0.75215 0.91462 0.0
O72 O 0.89715 0.78475 0.92931 0.0
C73 C 0.88478 0.72769 0.84373 0.0
O74 O 0.92838 0.76152 0.92377 0.0
Co75 Co 0.8983 0.70621 0.9293 0.0
O76 O 0.93469 0.72941 0.9356 0.0
C77 C 0.87633 0.72189 0.01391 0.0
C78 C 0.87326 0.77564 0.92634 0.0
C79 C 0.94289 0.75266 0.93316 0.0
O80 O 0.88599 0.74372 0.99368 0.0
O81 O 0.87667 0.70382 0.9906 0.0
O82 O 0.89306 0.7514 0.83807 0.0
O83 O 0.88047 0.71981 0.89169 0.0
Co84 Co 0.81776 0.61433 0.4348 0.0
O85 O 0.78889 0.61869 0.44027 0.0
O86 O 0.78876 0.58667 0.40256 0.0
C87 C 0.83112 0.62632 0.51928 0.0
O88 O 0.84248 0.60212 0.41965 0.0
Co89 Co 0.87241 0.6562 0.44964 0.0
O90 O 0.88244 0.63144 0.43099 0.0
C91 C 0.84149 0.6571 0.36219 0.0
C92 C 0.7766 0.59802 0.41424 0.0
C93 C 0.86601 0.60952 0.41782 0.0
O94 O 0.82684 0.63356 0.36686 0.0
O95 O 0.85879 0.66989 0.39544 0.0
O96 O 0.81396 0.60348 0.50946 0.0
O97 O 0.83901 0.64071 0.4788 0.0
Co98 Co 0.43141 0.21267 0.4314 0.0
O99 O 0.42491 0.17873 0.43311 0.0
O100 O 0.45914 0.21047 0.40112 0.0
C101 C 0.4172 0.21173 0.51529 0.0
O102 O 0.44606 0.25037 0.4207 0.0
Co103 Co 0.39138 0.22817 0.44658 0.0
O104 O 0.41826 0.26279 0.43521 0.0
C105 C 0.39299 0.20277 0.34887 0.0
C106 C 0.44624 0.18672 0.40951 0.0
C107 C 0.43998 0.26744 0.42178 0.0
O108 O 0.41449 0.20575 0.3608 0.0
O109 O 0.38028 0.20862 0.37948 0.0
O110 O 0.44008 0.21678 0.5074 0.0
O111 O 0.40402 0.20741 0.4733 0.0
Co112 Co 0.82319 0.22667 0.43207 0.0
O113 O 0.85466 0.25864 0.42981 0.0
O114 O 0.81819 0.25201 0.4015 0.0
C115 C 0.82744 0.21565 0.51587 0.0
O116 O 0.78667 0.19946 0.42455 0.0
Co117 Co 0.81448 0.17385 0.44955 0.0
O118 O 0.77828 0.16058 0.43812 0.0
C119 C 0.83647 0.20103 0.34944 0.0
C120 C 0.84175 0.26745 0.40721 0.0
C121 C 0.77126 0.17595 0.4257 0.0
O122 O 0.8313 0.21806 0.36114 0.0
O123 O 0.83306 0.1835 0.38098 0.0
O124 O 0.81891 0.23078 0.50804 0.0
O125 O 0.83324 0.20804 0.47388 0.0
Co126 Co 0.95396 0.47856 0.24195 0.0
O127 O 0.95375 0.44689 0.24139 0.0
O128 O 0.92115 0.45144 0.25607 0.0
C129 C 0.97821 0.49547 0.16831 0.0
O130 O 0.94427 0.50555 0.24819 0.0
Co131 Co 0.99985 0.53114 0.25216 0.0
O132 O 0.97645 0.54405 0.25832 0.0
C133 C 0.98476 0.49439 0.33856 0.0
C134 C 0.93019 0.43667 0.25362 0.0
C135 C 0.9531 0.52889 0.25667 0.0
O136 O 0.96272 0.48185 0.31904 0.0
O137 O 1.00268 0.51268 0.31429 0.0
O138 O 0.95438 0.47994 0.16335 0.0
O139 O 0.98624 0.49947 0.21613 0.0
Co140 Co 0.56711 0.48702 0.23535 0.0
O141 O 0.5951 0.52073 0.23141 0.0
O142 O 0.59664 0.48913 0.26705 0.0
C143 C 0.55381 0.48638 0.15082 0.0
O144 O 0.54375 0.44967 0.24874 0.0
Co145 Co 0.51192 0.47221 0.22112 0.0
O146 O 0.5033 0.43794 0.24064 0.0
C147 C 0.54198 0.50406 0.30886 0.0
C148 C 0.60802 0.51271 0.25656 0.0
C149 C 0.52044 0.43307 0.25187 0.0
O150 O 0.55718 0.49575 0.30409 0.0
O151 O 0.52463 0.49926 0.27548 0.0
O152 O 0.57153 0.48134 0.16021 0.0
O153 O 0.5452 0.49173 0.19183 0.0
Co154 Co 0.55052 0.07991 0.24325 0.0
O155 O 0.51683 0.07445 0.23963 0.0
O156 O 0.55003 0.11019 0.25958 0.0
C157 C 0.54781 0.05801 0.16823 0.0
O158 O 0.58822 0.09373 0.25303 0.0
Co159 Co 0.5627 0.03718 0.25298 0.0
O160 O 0.59794 0.06357 0.2607 0.0
C161 C 0.5369 0.04781 0.33833 0.0
C162 C 0.52595 0.09734 0.25481 0.0
C163 C 0.60414 0.08641 0.26145 0.0
O164 O 0.54449 0.06965 0.31954 0.0
O165 O 0.53973 0.03137 0.31396 0.0
O166 O 0.5531 0.08106 0.16448 0.0
O167 O 0.54381 0.0494 0.2155 0.0
Co168 Co 0.48343 0.94013 0.76232 0.0
O169 O 0.45048 0.93776 0.76313 0.0
O170 O 0.45869 0.90971 0.73106 0.0
C171 C 0.49501 0.95461 0.84622 0.0
O172 O 0.51185 0.93285 0.75145 0.0
Co173 Co 0.53546 0.98568 0.77647 0.0
O174 O 0.55053 0.96458 0.76105 0.0
C175 C 0.50324 0.98163 0.68687 0.0
C176 C 0.44239 0.91658 0.739 0.0
C177 C 0.53561 0.94193 0.74999 0.0
O178 O 0.49066 0.95794 0.6928 0.0
O179 O 0.51969 0.99606 0.72005 0.0
O180 O 0.48051 0.93091 0.83776 0.0
O181 O 0.50157 0.96845 0.80477 0.0
Co182 Co 0.09389 0.54015 0.7601 0.0
O183 O 0.08947 0.50704 0.76556 0.0
O184 O 0.12186 0.53896 0.72837 0.0
C185 C 0.08128 0.54116 0.84447 0.0
O186 O 0.10632 0.57705 0.74513 0.0
Co187 Co 0.05181 0.55275 0.77422 0.0
O188 O 0.07681 0.5875 0.75576 0.0
C189 C 0.05134 0.52144 0.68658 0.0
C190 C 0.11039 0.51548 0.7399 0.0
C191 C 0.09891 0.59309 0.74304 0.0
O192 O 0.07495 0.53024 0.69172 0.0
O193 O 0.03833 0.52574 0.71969 0.0
O194 O 0.10428 0.54695 0.8351 0.0
O195 O 0.0671 0.53479 0.80367 0.0
Co196 Co 0.49598 0.55638 0.75336 0.0
O197 O 0.5276 0.5881 0.75311 0.0
O198 O 0.4904 0.58348 0.73887 0.0
C199 C 0.50356 0.53961 0.82702 0.0
O200 O 0.45915 0.5294 0.74772 0.0
Co201 Co 0.48902 0.50369 0.744 0.0
O202 O 0.45262 0.49082 0.73872 0.0
C203 C 0.51024 0.53993 0.65655 0.0
C204 C 0.51429 0.59827 0.74056 0.0
C205 C 0.44451 0.506 0.73988 0.0
O206 O 0.50109 0.55273 0.67616 0.0
O207 O 0.50996 0.5218 0.68114 0.0
O208 O 0.49533 0.55514 0.83218 0.0
O209 O 0.50733 0.53555 0.77911 0.0
Co210 Co 0.62469 0.81058 0.58006 0.0
O211 O 0.62376 0.77853 0.5781 0.0
O212 O 0.5918 0.78378 0.59513 0.0
C213 C 0.64852 0.82773 0.50584 0.0
O214 O 0.61579 0.83805 0.5881 0.0
Co215 Co 0.67119 0.8627 0.59091 0.0
O216 O 0.64835 0.87627 0.59907 0.0
C217 C 0.65674 0.82461 0.67357 0.0
C218 C 0.6004 0.76866 0.59176 0.0
C219 C 0.62494 0.86139 0.59734 0.0
O220 O 0.63416 0.81343 0.65675 0.0
O221 O 0.67472 0.8425 0.64862 0.0
O222 O 0.62461 0.8124 0.50139 0.0
O223 O 0.65683 0.83126 0.55342 0.0
Co224 Co 0.23043 0.81318 0.57328 0.0
O225 O 0.26171 0.84512 0.57475 0.0
O226 O 0.25826 0.80837 0.58622 0.0
C227 C 0.21369 0.82147 0.5005 0.0
O228 O 0.20391 0.77614 0.57724 0.0
Co229 Co 0.1767 0.80447 0.58216 0.0
O230 O 0.16463 0.76842 0.58422 0.0
C231 C 0.21089 0.82154 0.6742 0.0
C232 C 0.27254 0.83226 0.58553 0.0
C233 C 0.18037 0.76097 0.5836 0.0
O234 O 0.22655 0.81689 0.65099 0.0
O235 O 0.19153 0.81977 0.65194 0.0
O236 O 0.22961 0.81372 0.49465 0.0
O237 O 0.20898 0.82419 0.5487 0.0
Co238 Co 0.22018 0.41375 0.57556 0.0
O239 O 0.18633 0.40769 0.57257 0.0
O240 O 0.21919 0.44391 0.59118 0.0
C241 C 0.21702 0.39135 0.50118 0.0
O242 O 0.25802 0.42781 0.58444 0.0
Co243 Co 0.23225 0.37092 0.58639 0.0
O244 O 0.26757 0.39746 0.59104 0.0
C245 C 0.20715 0.38249 0.67169 0.0
C246 C 0.19508 0.43059 0.58713 0.0
C247 C 0.27391 0.42034 0.59178 0.0
O248 O 0.21477 0.40418 0.65211 0.0
O249 O 0.20971 0.36574 0.64796 0.0
O250 O 0.22222 0.41435 0.4968 0.0
O251 O 0.21342 0.38311 0.54874 0.0
H252 H 0.214 0.39826 0.3925 0.0
H253 H 0.20734 0.34394 0.5091 0.0
H254 H 0.19278 0.31192 0.44049 0.0
H255 H 0.16031 0.3582 0.31829 0.0
H256 H 0.17377 0.37041 0.25434 0.0
H257 H 0.18512 0.38992 0.31194 0.0
H258 H 0.22995 0.39907 0.29207 0.0
H259 H 0.21876 0.37976 0.23409 0.0
H260 H 0.23575 0.37361 0.28403 0.0
H261 H 0.17474 0.28421 0.36104 0.0
H262 H 0.15938 0.26452 0.27331 0.0
H263 H 0.18002 0.33658 0.20677 0.0
C264 C 0.20997 0.37978 0.40329 0.0
C265 C 0.21184 0.37379 0.4565 0.0
C266 C 0.2061 0.34919 0.46884 0.0
C267 C 0.1977 0.3307 0.43007 0.0
C268 C 0.19536 0.33694 0.37846 0.0
C269 C 0.20175 0.36095 0.36464 0.0
C270 C 0.19731 0.36245 0.30603 0.0
C271 C 0.17798 0.37073 0.29715 0.0
C272 C 0.22191 0.37975 0.27737 0.0
C273 C 0.1871 0.33557 0.2897 0.0
C274 C 0.18593 0.32109 0.33213 0.0
C275 C 0.17592 0.29544 0.32723 0.0
C276 C 0.16714 0.28435 0.27741 0.0
C277 C 0.16876 0.29897 0.23313 0.0
C278 C 0.17889 0.3249 0.2397 0.0
H279 H 0.641 0.82017 0.39623 0.0
H280 H 0.69717 0.8628 0.51434 0.0
H281 H 0.72908 0.8808 0.44519 0.0
H282 H 0.67953 0.80625 0.31539 0.0
H283 H 0.66743 0.80971 0.25309 0.0
H284 H 0.64811 0.80074 0.31137 0.0
H285 H 0.64082 0.83789 0.29812 0.0
H286 H 0.66002 0.84689 0.23959 0.0
H287 H 0.66724 0.86879 0.29255 0.0
H288 H 0.75619 0.89214 0.36486 0.0
H289 H 0.77568 0.89812 0.27647 0.0
H290 H 0.70277 0.85017 0.20827 0.0
C291 C 0.65991 0.83359 0.40732 0.0
C292 C 0.66637 0.83995 0.46111 0.0
C293 C 0.69151 0.85746 0.47373 0.0
C294 C 0.70995 0.86788 0.43461 0.0
C295 C 0.7032 0.86092 0.38235 0.0
C296 C 0.67878 0.84443 0.36832 0.0
C297 C 0.67692 0.84002 0.3089 0.0
C298 C 0.66744 0.81255 0.29648 0.0
C299 C 0.66026 0.84893 0.28328 0.0
C300 C 0.70405 0.85627 0.29235 0.0
C301 C 0.71889 0.86809 0.33545 0.0
C302 C 0.74471 0.88323 0.3306 0.0
C303 C 0.75567 0.88649 0.28029 0.0
C304 C 0.74084 0.87487 0.23532 0.0
C305 C 0.71465 0.85962 0.24173 0.0
H306 H 0.22202 0.82342 0.39103 0.0
H307 H 0.17971 0.83647 0.51106 0.0
H308 H 0.16302 0.85245 0.44342 0.0
H309 H 0.2382 0.87739 0.31374 0.0
H310 H 0.23452 0.86262 0.2505 0.0
H311 H 0.2427 0.85103 0.30788 0.0
H312 H 0.20451 0.8074 0.29245 0.0
H313 H 0.1963 0.81885 0.23481 0.0
H314 H 0.17391 0.80395 0.28722 0.0
H315 H 0.15282 0.87004 0.36416 0.0
H316 H 0.14759 0.8848 0.27651 0.0
H317 H 0.19449 0.85905 0.20624 0.0
C318 C 0.20898 0.82931 0.40286 0.0
C319 C 0.20231 0.82862 0.45671 0.0
C320 C 0.18527 0.83672 0.47033 0.0
C321 C 0.17561 0.84593 0.4321 0.0
C322 C 0.18284 0.84683 0.37976 0.0
C323 C 0.19887 0.83846 0.36479 0.0
C324 C 0.20361 0.84173 0.30553 0.0
C325 C 0.23141 0.85924 0.29374 0.0
C326 C 0.194 0.81648 0.27841 0.0
C327 C 0.18807 0.8535 0.29011 0.0
C328 C 0.17632 0.85637 0.33359 0.0
C329 C 0.16171 0.86764 0.32961 0.0
C330 C 0.15887 0.87605 0.27975 0.0
C331 C 0.1704 0.87295 0.23442 0.0
C332 C 0.18516 0.86147 0.24001 0.0
H333 H 0.36758 0.18454 0.53931 0.0
H334 H 0.44005 0.23053 0.61108 0.0
H335 H 0.41967 0.22433 0.69868 0.0
H336 H 0.33186 0.20318 0.62117 0.0
H337 H 0.30508 0.17243 0.62523 0.0
H338 H 0.3251 0.18147 0.56797 0.0
H339 H 0.33173 0.14397 0.58204 0.0
H340 H 0.31166 0.13474 0.63918 0.0
H341 H 0.3429 0.13991 0.64501 0.0
H342 H 0.39157 0.21337 0.77746 0.0
H343 H 0.35883 0.19572 0.84476 0.0
H344 H 0.30371 0.15432 0.72387 0.0
C345 C 0.37919 0.19353 0.57341 0.0
C346 C 0.40548 0.20835 0.5683 0.0
C347 C 0.41997 0.21927 0.61401 0.0
C348 C 0.4085 0.21588 0.66381 0.0
C349 C 0.38255 0.20121 0.66733 0.0
C350 C 0.36808 0.18994 0.62348 0.0
C351 C 0.34071 0.17392 0.63861 0.0
C352 C 0.32475 0.18332 0.61164 0.0
C353 C 0.3312 0.14651 0.62543 0.0
C354 C 0.34196 0.17804 0.69804 0.0
C355 C 0.36632 0.19407 0.71335 0.0
C356 C 0.3725 0.20078 0.76587 0.0
C357 C 0.35356 0.19057 0.80392 0.0
C358 C 0.32845 0.17351 0.79003 0.0
C359 C 0.32257 0.1674 0.73596 0.0
H360 H 0.85698 0.19603 0.54088 0.0
H361 H 0.80539 0.21599 0.61037 0.0
H362 H 0.8103 0.20033 0.69726 0.0
H363 H 0.83861 0.14012 0.61661 0.0
H364 H 0.86995 0.14566 0.62357 0.0
H365 H 0.86161 0.15736 0.56653 0.0
H366 H 0.89729 0.2018 0.58716 0.0
H367 H 0.90585 0.19022 0.64399 0.0
H368 H 0.89885 0.2149 0.65157 0.0
H369 H 0.82027 0.18193 0.77548 0.0
H370 H 0.83779 0.16673 0.84297 0.0
H371 H 0.88535 0.16067 0.72476 0.0
C372 C 0.84659 0.197 0.57433 0.0
C373 C 0.83056 0.20704 0.56876 0.0
C374 C 0.81767 0.20836 0.61367 0.0
C375 C 0.82029 0.19939 0.66304 0.0
C376 C 0.8361 0.18945 0.66697 0.0
C377 C 0.84931 0.18852 0.62399 0.0
C378 C 0.86607 0.17814 0.63947 0.0
C379 C 0.85861 0.15388 0.60977 0.0
C380 C 0.89365 0.19742 0.62999 0.0
C381 C 0.8603 0.17337 0.69814 0.0
C382 C 0.84267 0.17973 0.71273 0.0
C383 C 0.83415 0.17703 0.76448 0.0
C384 C 0.84427 0.16827 0.80261 0.0
C385 C 0.8631 0.16248 0.78953 0.0
C386 C 0.87093 0.16474 0.73615 0.0
H387 H 0.8864 0.73542 0.73444 0.0
H388 H 0.86847 0.67853 0.85351 0.0
H389 H 0.85405 0.64674 0.78435 0.0
H390 H 0.83441 0.69938 0.65097 0.0
H391 H 0.85117 0.71115 0.5897 0.0
H392 H 0.86136 0.73005 0.6483 0.0
H393 H 0.90525 0.735 0.63849 0.0
H394 H 0.89518 0.71618 0.57969 0.0
H395 H 0.9083 0.70772 0.63403 0.0
H396 H 0.83818 0.62005 0.70293 0.0
H397 H 0.82514 0.60146 0.61362 0.0
H398 H 0.85503 0.67521 0.54676 0.0
C399 C 0.8798 0.71635 0.74579 0.0
C400 C 0.87863 0.70964 0.79968 0.0
C401 C 0.86963 0.68433 0.8127 0.0
C402 C 0.86131 0.66599 0.77362 0.0
C403 C 0.86224 0.67305 0.72113 0.0
C404 C 0.87153 0.69763 0.70694 0.0
C405 C 0.87009 0.69998 0.64745 0.0
C406 C 0.85325 0.71078 0.63329 0.0
C407 C 0.89627 0.71565 0.62351 0.0
C408 C 0.85832 0.67296 0.63089 0.0
C409 C 0.85381 0.65768 0.67398 0.0
C410 C 0.84193 0.63187 0.6687 0.0
C411 C 0.83454 0.62143 0.61793 0.0
C412 C 0.8393 0.6368 0.57314 0.0
C413 C 0.85146 0.6629 0.58006 0.0
H414 H 0.97087 0.48702 0.05928 0.0
H415 H 0.02711 0.53013 0.17685 0.0
H416 H 0.05919 0.5471 0.10773 0.0
H417 H 1.00901 0.47161 0.98091 0.0
H418 H 0.99694 0.47455 0.9181 0.0
H419 H 0.97769 0.46636 0.97639 0.0
H420 H 0.97082 0.50364 0.96068 0.0
H421 H 0.98995 0.51186 0.90214 0.0
H422 H 0.99743 0.53437 0.95392 0.0
H423 H 0.08643 0.55719 0.02695 0.0
H424 H 0.10559 0.56197 0.93827 0.0
H425 H 0.03216 0.51444 0.872 0.0
C426 C 0.98984 0.50033 0.07026 0.0
C427 C 0.99629 0.50714 0.12381 0.0
C428 C 1.02149 0.52448 0.13634 0.0
C429 C 0.04001 0.53429 0.09726 0.0
C430 C 0.03325 0.52688 0.0452 0.0
C431 C 1.00875 0.51055 0.03136 0.0
C432 C 1.00676 0.50552 0.97229 0.0
C433 C 0.99702 0.47787 0.9613 0.0
C434 C 0.99026 0.51438 0.94569 0.0
C435 C 0.03387 0.52135 0.95559 0.0
C436 C 0.04891 0.5334 0.99829 0.0
C437 C 0.07479 0.54811 0.99299 0.0
C438 C 0.08556 0.5507 0.94259 0.0
C439 C 0.07044 0.5389 0.8981 0.0
C440 C 0.04426 0.5241 0.90505 0.0
H441 H 0.52979 0.51172 0.12458 0.0
H442 H 0.56135 0.46976 0.05534 0.0
H443 H 0.54968 0.47725 0.96617 0.0
H444 H 0.47797 0.49286 0.03367 0.0
H445 H 0.48075 0.5231 0.03179 0.0
H446 H 0.49008 0.51312 0.0901 0.0
H447 H 0.5339 0.55218 0.08485 0.0
H448 H 0.52473 0.56229 0.02657 0.0
H449 H 0.55182 0.55866 0.02479 0.0
H450 H 0.53495 0.48955 0.88532 0.0
H451 H 0.52113 0.5078 0.81674 0.0
H452 H 0.50077 0.54424 0.93712 0.0
C453 C 0.534 0.50381 0.09073 0.0
C454 C 0.54625 0.48982 0.097 0.0
C455 C 0.55186 0.48032 0.05157 0.0
C456 C 0.54525 0.48448 1.00084 0.0
C457 C 0.5333 0.49843 0.99618 0.0
C458 C 0.52791 0.50814 0.03986 0.0
C459 C 0.51621 0.52365 0.02375 0.0
C460 C 0.48967 0.51251 0.04616 0.0
C461 C 0.53265 0.55081 0.04101 0.0
C462 C 0.51585 0.52122 0.96392 0.0
C463 C 0.52558 0.50634 0.9492 0.0
C464 C 0.52736 0.50123 0.89646 0.0
C465 C 0.51936 0.51177 0.85768 0.0
C466 C 0.50979 0.5276 0.87114 0.0
C467 C 0.50787 0.53221 0.92532 0.0
H468 H 0.54392 0.06476 0.0596 0.0
H469 H 0.54121 1.0117 0.17506 0.0
H470 H 0.52819 0.98002 0.1061 0.0
H471 H 0.49088 0.02251 0.98617 0.0
H472 H 0.50357 0.03523 0.922 0.0
H473 H 0.51426 0.05479 0.97961 0.0
H474 H 0.5598 0.06669 0.95837 0.0
H475 H 0.54925 0.04734 0.90035 0.0
H476 H 0.56751 0.04256 0.94953 0.0
H477 H 0.51135 0.95228 0.02683 0.0
H478 H 0.49648 0.93224 0.93935 0.0
H479 H 0.51206 1.00296 0.87327 0.0
C480 C 0.54111 0.04666 0.07004 0.0
C481 C 0.54363 0.0409 0.1231 0.0
C482 C 0.53943 0.01678 0.13497 0.0
C483 C 0.53193 0.99847 0.09599 0.0
C484 C 0.52889 1.00441 0.04459 0.0
C485 C 0.53375 0.028 0.03113 0.0
C486 C 0.52871 0.02916 0.97267 0.0
C487 C 0.50813 0.03581 0.96467 0.0
C488 C 0.55275 0.04753 0.94351 0.0
C489 C 0.51993 1.00254 0.95604 0.0
C490 C 0.52002 0.98853 0.99823 0.0
C491 C 0.51154 0.96315 0.9932 0.0
C492 C 0.50302 0.95186 0.9435 0.0
C493 C 0.50333 0.96599 0.89938 0.0
C494 C 0.51192 0.99167 0.90607 0.0
H495 H 0.15812 0.29738 0.92214 0.0
H496 H 0.17967 0.36437 0.01193 0.0
H497 H 0.18312 0.38703 0.92942 0.0
H498 H 0.2015 0.32453 0.82919 0.0
H499 H 0.18342 0.3064 0.77355 0.0
H500 H 0.17557 0.29361 0.839 0.0
H501 H 0.13055 0.28559 0.82756 0.0
H502 H 0.13819 0.29818 0.76149 0.0
H503 H 0.12564 0.31076 0.80862 0.0
H504 H 0.19233 0.40419 0.83869 0.0
H505 H 0.20739 0.41457 0.74657 0.0
H506 H 0.18095 0.33668 0.71603 0.0
C507 C 0.1625 0.31653 0.92438 0.0
C508 C 0.1685 0.32916 0.97297 0.0
C509 C 0.17501 0.35443 0.97474 0.0
C510 C 0.1768 0.36738 0.9282 0.0
C511 C 0.17195 0.35474 0.88042 0.0
C512 C 0.16476 0.3298 0.87816 0.0
C513 C 0.16478 0.32161 0.82198 0.0
C514 C 0.18237 0.31094 0.81561 0.0
C515 C 0.13821 0.30293 0.80385 0.0
C516 C 0.17464 0.34614 0.7936 0.0
C517 C 0.17796 0.36489 0.82761 0.0
C518 C 0.18928 0.3896 0.81131 0.0
C519 C 0.19789 0.39534 0.75907 0.0
C520 C 0.19549 0.37645 0.7244 0.0
C521 C 0.18306 0.35153 0.74165 0.0
H522 H 0.63845 0.82599 0.77008 0.0
H523 H 0.691 0.81079 0.6896 0.0
H524 H 0.71112 0.81211 0.77465 0.0
H525 H 0.67985 0.87079 0.845 0.0
H526 H 0.66172 0.86455 0.90467 0.0
H527 H 0.64628 0.85469 0.842 0.0
H528 H 0.62115 0.80928 0.87515 0.0
H529 H 0.63605 0.81906 0.93877 0.0
H530 H 0.63734 0.79464 0.90323 0.0
H531 H 0.73151 0.82518 0.86171 0.0
H532 H 0.74862 0.84556 0.94746 0.0
H533 H 0.68329 0.85308 0.97165 0.0
C534 C 0.6532 0.82145 0.77121 0.0
C535 C 0.66296 0.81773 0.72415 0.0
C536 C 0.68311 0.81316 0.72588 0.0
C537 C 0.69463 0.8139 0.7739 0.0
C538 C 0.68569 0.81924 0.81961 0.0
C539 C 0.66512 0.82249 0.81893 0.0
C540 C 0.66179 0.832 0.87158 0.0
C541 C 0.66247 0.85698 0.86538 0.0
C542 C 0.63765 0.81258 0.8988 0.0
C543 C 0.68452 0.83506 0.90052 0.0
C544 C 0.69781 0.82717 0.87034 0.0
C545 C 0.72091 0.83075 0.88646 0.0
C546 C 0.73061 0.84259 0.9349 0.0
C547 C 0.71725 0.85081 0.96631 0.0
C548 C 0.69379 0.84666 0.94897 0.0
H549 H 0.15681 0.82803 0.94901 0.0
H550 H 0.21741 0.90376 0.96333 0.0
H551 H 0.23639 0.89869 0.88089 0.0
H552 H 0.19139 0.80099 0.9007 0.0
H553 H 0.16758 0.78049 0.85525 0.0
H554 H 0.15904 0.79024 0.91488 0.0
H555 H 0.13547 0.80746 0.86038 0.0
H556 H 0.14317 0.79695 0.80088 0.0
H557 H 0.15141 0.829 0.8072 0.0
H558 H 0.24889 0.88404 0.79787 0.0
H559 H 0.24957 0.86418 0.71321 0.0
H560 H 0.17989 0.79887 0.75527 0.0
C561 C 0.17395 0.84362 0.93433 0.0
C562 C 0.18579 0.86624 0.9618 0.0
C563 C 0.20808 0.88638 0.94195 0.0
C564 C 0.21907 0.88353 0.89581 0.0
C565 C 0.20727 0.86053 0.87046 0.0
C566 C 0.18487 0.84117 0.88848 0.0
C567 C 0.17503 0.81878 0.85312 0.0
C568 C 0.17317 0.79631 0.88279 0.0
C569 C 0.14979 0.81271 0.82895 0.0
C570 C 0.19541 0.82841 0.8121 0.0
C571 C 0.21412 0.85236 0.823 0.0
C572 C 0.23442 0.86527 0.78913 0.0
C573 C 0.23486 0.85381 0.74163 0.0
C574 C 0.21498 0.82998 0.7289 0.0
C575 C 0.19553 0.81691 0.76514 0.0
H576 H 0.36627 0.21595 0.28624 0.0
H577 H 0.39424 0.16467 0.29767 0.0
H578 H 0.37113 0.14358 0.21601 0.0
H579 H 0.30522 0.17407 0.23527 0.0
H580 H 0.30526 0.19671 0.19061 0.0
H581 H 0.32265 0.20661 0.25145 0.0
H582 H 0.36316 0.23557 0.19953 0.0
H583 H 0.3457 0.22629 0.13891 0.0
H584 H 0.3728 0.22293 0.14645 0.0
H585 H 0.34554 0.12897 0.13217 0.0
H586 H 0.32582 0.12667 0.04534 0.0
H587 H 0.31593 0.1883 0.08985 0.0
C588 C 0.36742 0.2002 0.27159 0.0
C589 C 0.38172 0.19168 0.29798 0.0
C590 C 0.38335 0.17141 0.27747 0.0
C591 C 0.37008 0.1592 0.23172 0.0
C592 C 0.3556 0.16775 0.20721 0.0
C593 C 0.35469 0.18814 0.22591 0.0
C594 C 0.33983 0.19527 0.19001 0.0
C595 C 0.31688 0.19301 0.21857 0.0
C596 C 0.35636 0.22155 0.16737 0.0
C597 C 0.33244 0.17568 0.14795 0.0
C598 C 0.34131 0.15968 0.15885 0.0
C599 C 0.3382 0.14114 0.12355 0.0
C600 C 0.32679 0.13976 0.07477 0.0
C601 C 0.31893 0.1569 0.06233 0.0
C602 C 0.32108 0.17451 0.09975 0.0
H603 H 0.85169 0.13723 0.09408 0.0
H604 H 0.9067 0.20989 0.03702 0.0
H605 H 0.90451 0.2285 0.12217 0.0
H606 H 0.81381 0.15458 0.15273 0.0
H607 H 0.80518 0.13416 0.20914 0.0
H608 H 0.81435 0.12593 0.14848 0.0
H609 H 0.84908 0.122 0.19702 0.0
H610 H 0.83948 0.12937 0.25839 0.0
H611 H 0.87143 0.14739 0.2369 0.0
H612 H 0.89025 0.23944 0.20688 0.0
H613 H 0.87027 0.24103 0.29094 0.0
H614 H 0.82573 0.16075 0.2912 0.0
C615 C 0.86412 0.15686 0.10078 0.0
C616 C 0.87976 0.17222 0.06034 0.0
C617 C 0.89513 0.19795 0.06873 0.0
C618 C 0.89382 0.20862 0.11659 0.0
C619 C 0.87722 0.19309 0.15516 0.0
C620 C 0.86314 0.16765 0.14822 0.0
C621 C 0.84539 0.15518 0.19362 0.0
C622 C 0.81809 0.14168 0.17483 0.0
C623 C 0.85174 0.13745 0.22325 0.0
C624 C 0.85115 0.17757 0.22655 0.0
C625 C 0.86942 0.19933 0.20386 0.0
C626 C 0.87633 0.22249 0.22566 0.0
C627 C 0.86474 0.22326 0.27282 0.0
C628 C 0.84674 0.20099 0.29731 0.0
C629 C 0.83977 0.17801 0.27353 0.0
H630 H 0.84594 0.67688 0.05801 0.0
H631 H 0.88168 0.75584 0.08979 0.0
H632 H 0.8679 0.74665 0.18296 0.0
H633 H 0.79307 0.65608 0.15735 0.0
H634 H 0.79511 0.6289 0.1732 0.0
H635 H 0.80199 0.6415 0.10707 0.0
H636 H 0.84521 0.64449 0.11196 0.0
H637 H 0.8386 0.63214 0.17786 0.0
H638 H 0.86611 0.66165 0.1652 0.0
H639 H 0.85903 0.72948 0.27381 0.0
H640 H 0.85518 0.70592 0.35508 0.0
H641 H 0.82474 0.63796 0.26408 0.0
C642 C 0.85028 0.69228 0.08414 0.0
C643 C 0.86502 0.71707 0.06695 0.0
C644 C 0.87035 0.7367 0.10224 0.0
C645 C 0.86248 0.73164 0.15509 0.0
C646 C 0.84897 0.7069 0.17136 0.0
C647 C 0.8426 0.68753 0.13664 0.0
C648 C 0.83124 0.66282 0.16493 0.0
C649 C 0.80371 0.64636 0.14974 0.0
C650 C 0.8462 0.64953 0.15438 0.0
C651 C 0.83384 0.67144 0.22152 0.0
C652 C 0.84354 0.69686 0.22435 0.0
C653 C 0.85077 0.70953 0.27219 0.0
C654 C 0.84871 0.69602 0.31802 0.0
C655 C 0.83958 0.67015 0.31554 0.0
C656 C 0.83122 0.65762 0.26706 0.0
H657 H 0.03042 0.51115 0.38223 0.0
H658 H 0.95142 0.46442 0.41476 0.0
H659 H 0.96136 0.45938 0.5071 0.0
H660 H 0.05362 0.47981 0.4756 0.0
H661 H 0.08021 0.50925 0.49296 0.0
H662 H 0.06725 0.50442 0.4273 0.0
H663 H 0.06215 0.54308 0.43787 0.0
H664 H 0.07496 0.54796 0.50327 0.0
H665 H 0.04466 0.5447 0.49321 0.0
H666 H 0.97906 0.46654 0.59773 0.0
H667 H 1.00286 0.48501 0.67942 0.0
H668 H 0.07045 0.52657 0.58733 0.0
C669 C 1.01516 0.49932 0.4083 0.0
C670 C 0.99012 0.4883 0.39152 0.0
C671 C 0.97074 0.47301 0.42685 0.0
C672 C 0.97623 0.46994 0.47922 0.0
C673 C 1.00116 0.48192 0.49497 0.0
C674 C 1.02032 0.49609 0.46027 0.0
C675 C 0.04521 0.50974 0.48809 0.0
C676 C 0.0626 0.50022 0.46991 0.0
C677 C 0.05743 0.53802 0.48015 0.0
C678 C 0.03691 0.50229 0.54456 0.0
C679 C 1.01151 0.48581 0.54761 0.0
C680 C 0.99902 0.47886 0.59584 0.0
C681 C 1.01266 0.48956 0.64192 0.0
C682 C 0.03847 0.50705 0.63932 0.0
C683 C 0.05087 0.51276 0.5903 0.0
H684 H 0.53955 0.52372 0.61304 0.0
H685 H 0.50414 0.56722 0.57817 0.0
H686 H 0.51641 0.56954 0.48431 0.0
H687 H 0.59097 0.55291 0.51077 0.0
H688 H 0.58842 0.5233 0.49731 0.0
H689 H 0.58231 0.53027 0.56295 0.0
H690 H 0.53882 0.49053 0.56143 0.0
H691 H 0.54465 0.48354 0.49597 0.0
H692 H 0.51747 0.48626 0.50863 0.0
H693 H 0.52429 0.55953 0.39393 0.0
H694 H 0.52795 0.53898 0.31401 0.0
H695 H 0.55853 0.50215 0.40792 0.0
C696 C 0.53494 0.53436 0.58603 0.0
C697 C 0.52076 0.54517 0.60269 0.0
C698 C 0.51507 0.55886 0.56619 0.0
C699 C 0.52205 0.56035 0.51291 0.0
C700 C 0.53504 0.54842 0.49738 0.0
C701 C 0.54173 0.53597 0.53311 0.0
C702 C 0.55258 0.52187 0.50585 0.0
C703 C 0.58022 0.53275 0.52006 0.0
C704 C 0.53747 0.49392 0.51872 0.0
C705 C 0.5495 0.527 0.44881 0.0
C706 C 0.53985 0.54278 0.44478 0.0
C707 C 0.53246 0.54773 0.39649 0.0
C708 C 0.53442 0.53581 0.35143 0.0
C709 C 0.5436 0.51909 0.35508 0.0
C710 C 0.55199 0.51529 0.40403 0.0
H711 H 0.49131 0.96186 0.58795 0.0
H712 H 0.50903 0.02773 0.67848 0.0
H713 H 0.51132 0.05008 0.59625 0.0
H714 H 0.53433 0.99105 0.49523 0.0
H715 H 0.51691 0.97255 0.43937 0.0
H716 H 0.50956 0.95951 0.50466 0.0
H717 H 0.46372 0.949 0.49316 0.0
H718 H 0.47088 0.96183 0.42724 0.0
H719 H 0.45712 0.9731 0.47452 0.0
H720 H 0.5202 0.06761 0.5057 0.0
H721 H 0.53522 0.0788 0.41369 0.0
H722 H 0.51244 1.00176 0.38223 0.0
C723 C 0.49456 0.98062 0.59041 0.0
C724 C 0.49986 0.99308 0.63916 0.0
C725 C 0.50491 0.01791 0.64118 0.0
C726 C 0.50605 0.03069 0.59479 0.0
C727 C 0.50199 0.01832 0.54684 0.0
C728 C 0.49612 0.99374 0.54431 0.0
C729 C 0.49672 0.98598 0.48801 0.0
C730 C 0.5155 0.97676 0.48148 0.0
C731 C 0.47055 0.96632 0.46965 0.0
C732 C 0.50539 1.0104 0.4599 0.0
C733 C 0.50767 0.02868 0.49414 0.0
C734 C 0.51792 0.05335 0.47812 0.0
C735 C 0.52652 0.05956 0.42593 0.0
C736 C 0.52513 0.04119 0.39098 0.0
C737 C 0.51374 0.01625 0.40798 0.0
H738 H 0.19414 0.24804 0.99447 0.0
H739 H 0.22515 0.26112 0.15259 0.0
H740 H 0.24875 0.2402 0.12904 0.0
H741 H 0.19081 0.18703 0.9718 0.0
H742 H 0.20037 0.194 0.90362 0.0
H743 H 0.18324 0.20704 0.93431 0.0
H744 H 0.21826 0.25107 0.90858 0.0
H745 H 0.23559 0.23821 0.87825 0.0
H746 H 0.24981 0.26138 0.92915 0.0
H747 H 0.27189 0.22201 0.08779 0.0
H748 H 0.29334 0.20642 0.03117 0.0
H749 H 0.24884 0.20449 0.89688 0.0
C750 C 0.20529 0.2457 0.02444 0.0
C751 C 0.20741 0.2557 0.07589 0.0
C752 C 0.22297 0.25326 0.11342 0.0
C753 C 0.23647 0.24144 0.1003 0.0
C754 C 0.23451 0.23232 0.04913 0.0
C755 C 0.2193 0.23417 0.01163 0.0
C756 C 0.22235 0.22444 0.95834 0.0
C757 C 0.19772 0.20177 0.941 0.0
C758 C 0.23208 0.245 0.91609 0.0
C759 C 0.24186 0.21717 0.97176 0.0
C760 C 0.24839 0.22187 0.02458 0.0
C761 C 0.26677 0.21803 0.04656 0.0
C762 C 0.27893 0.20927 0.01397 0.0
C763 C 0.2728 0.20424 0.95974 0.0
C764 C 0.25376 0.20798 0.9383 0.0
H765 H 0.80065 0.06207 0.95248 0.0
H766 H 0.87695 0.07773 0.93613 0.0
H767 H 0.86503 0.03726 0.97764 0.0
H768 H 0.78971 0.03419 0.07886 0.0
H769 H 0.75772 1.01115 0.0661 0.0
H770 H 0.77169 0.04043 0.03171 0.0
H771 H 0.76045 0.01772 0.94151 0.0
H772 H 0.74606 0.98835 0.97561 0.0
H773 H 0.77022 0.99546 0.92753 0.0
H774 H 0.8449 0.99555 0.02537 0.0
H775 H 0.81803 0.95529 0.06897 0.0
H776 H 0.75497 0.96728 0.05561 0.0
C777 C 0.81487 0.05691 0.95658 0.0
C778 C 0.83983 0.07326 0.94043 0.0
C779 C 0.85772 0.06563 0.94754 0.0
C780 C 0.85112 0.04267 0.97145 0.0
C781 C 0.82655 0.02744 0.98823 0.0
C782 C 0.80866 0.03417 0.98059 0.0
C783 C 0.78368 0.01478 1.00323 0.0
C784 C 0.77521 0.0258 0.0476 0.0
C785 C 0.76394 1.0034 0.95935 0.0
C786 C 0.79024 0.99603 0.025 0.0
C787 C 0.81507 1.00369 0.01602 0.0
C788 C 0.82543 0.9894 0.0324 0.0
C789 C 0.80996 0.96652 0.05743 0.0
C790 C 0.78427 0.95794 0.06618 0.0
C791 C 0.7745 0.97324 0.05019 0.0
H792 H 0.97823 0.74164 0.97124 0.0
H793 H 0.96729 0.80359 0.93283 0.0
H794 H 1.00842 0.83248 0.97081 0.0
H795 H 1.00774 0.76437 0.09481 0.0
H796 H 0.0297 0.75356 0.08783 0.0
H797 H 1.00003 0.73754 0.05475 0.0
H798 H 1.02218 0.74326 0.96462 0.0
H799 H 0.05192 0.75892 0.99754 0.0
H800 H 0.04551 0.77392 0.94368 0.0
H801 H 0.04974 0.85464 0.01781 0.0
H802 H 0.08997 0.8689 0.06236 0.0
H803 H 0.07482 0.79286 0.07034 0.0
C804 C 0.98463 0.76131 0.96981 0.0
C805 C 0.96931 0.7702 0.94865 0.0
C806 C 0.9785 0.79616 0.94842 0.0
C807 C 1.00188 0.81278 0.97021 0.0
C808 C 1.01608 0.80332 0.9921 0.0
C809 C 1.00799 0.77823 0.99142 0.0
C810 C 0.02685 0.77293 0.01812 0.0
C811 C 1.01539 0.7561 0.06676 0.0
C812 C 0.03723 0.76159 0.97863 0.0
C813 C 0.0467 0.79893 0.03428 0.0
C814 C 0.04002 0.81614 0.01901 0.0
C815 C 0.0552 0.84132 0.02966 0.0
C816 C 0.07806 0.84923 0.05533 0.0
C817 C 0.08578 0.8321 0.07022 0.0
C818 C 0.06955 0.80651 0.06002 0.0
H819 H 0.82566 0.76185 0.96486 0.0
H820 H 0.89681 0.82558 0.92162 0.0
H821 H 0.88293 0.8535 0.95621 0.0
H822 H 0.78749 0.79123 0.93425 0.0
H823 H 0.76678 0.77697 0.98961 0.0
H824 H 0.78138 0.76144 0.95845 0.0
H825 H 0.79932 0.75863 0.04898 0.0
H826 H 0.78507 0.77446 0.08027 0.0
H827 H 0.81816 0.78656 0.08623 0.0
H828 H 0.8638 0.8747 0.99993 0.0
H829 H 0.83822 0.88925 0.0434 0.0
H830 H 0.77766 0.81318 0.05957 0.0
C831 C 0.83801 0.78169 0.96161 0.0
C832 C 0.86237 0.79151 0.94019 0.0
C833 C 0.87814 0.81757 0.9377 0.0
C834 C 0.87045 0.83364 0.95742 0.0
C835 C 0.84681 0.82352 0.97969 0.0
C836 C 0.83057 0.79824 0.98143 0.0
C837 C 0.80631 0.79272 0.00872 0.0
C838 C 0.78418 0.77983 0.97047 0.0
C839 C 0.80196 0.77717 0.05904 0.0
C840 C 0.81172 0.81886 0.02221 0.0
C841 C 0.83532 0.83613 1.00505 0.0
C842 C 0.84517 0.8614 0.01308 0.0
C843 C 0.83039 0.86947 0.03808 0.0
C844 C 0.80577 0.85247 0.05493 0.0
C845 C 0.7964 0.82667 0.04745 0.0
H846 H 0.22942 0.96869 0.03945 0.0
H847 H 0.1552 0.95732 0.06675 0.0
H848 H 0.16784 0.9981 0.02821 0.0
H849 H 0.26319 0.03599 0.06729 0.0
H850 H 0.28593 0.04331 0.01568 0.0
H851 H 0.27174 1.0134 0.04759 0.0
H852 H 0.25763 0.9921 0.95636 0.0
H853 H 0.27149 0.02196 0.92423 0.0
H854 H 0.23901 0.99974 0.914 0.0
H855 H 0.18652 0.03822 0.98328 0.0
H856 H 0.21214 0.07882 0.94143 0.0
H857 H 0.27578 0.0673 0.94194 0.0
C858 C 0.21606 0.97507 0.03813 0.0
C859 C 0.19123 0.95968 0.05629 0.0
C860 C 0.17422 0.96858 0.05302 0.0
C861 C 0.1812 0.99178 0.03105 0.0
C862 C 0.20538 1.00616 0.01212 0.0
C863 C 0.22276 0.99849 0.01579 0.0
C864 C 0.24745 0.018 0.99138 0.0
C865 C 0.26831 0.02829 0.03298 0.0
C866 C 0.2543 1.0073 0.94366 0.0
C867 C 0.24106 0.03768 0.97392 0.0
C868 C 0.21654 0.0301 0.98607 0.0
C869 C 0.2058 0.04448 0.97382 0.0
C870 C 0.22058 0.06758 0.94975 0.0
C871 C 0.24606 0.07646 0.93816 0.0
C872 C 0.25634 0.06104 0.94982 0.0
H873 H 0.97286 0.16452 0.94247 0.0
H874 H 0.96003 0.22697 0.93693 0.0
H875 H 1.00132 0.25374 0.97653 0.0
H876 H 1.00515 0.17914 0.06548 0.0
H877 H 0.02756 0.17025 0.04582 0.0
H878 H 0.9972 0.15574 0.01549 0.0
H879 H 1.01752 0.16862 0.92278 0.0
H880 H 0.04795 0.18292 0.9528 0.0
H881 H 0.0397 0.20076 0.90961 0.0
H882 H 0.0425 0.27317 0.02288 0.0
H883 H 0.08327 0.28547 0.06308 0.0
H884 H 0.07173 0.2117 0.03464 0.0
C885 C 0.97891 0.18391 0.9489 0.0
C886 C 0.96308 0.19359 0.93634 0.0
C887 C 0.97173 0.21907 0.9457 0.0
C888 C 0.99518 0.23445 0.96854 0.0
C889 C 1.01008 0.22427 0.98134 0.0
C890 C 1.00255 0.19972 0.97104 0.0
C891 C 1.0225 0.19369 0.98824 0.0
C892 C 1.0125 0.17351 0.03132 0.0
C893 C 0.03251 0.18605 0.94051 0.0
C894 C 0.04221 0.21859 0.01035 0.0
C895 C 0.03445 0.23584 0.00639 0.0
C896 C 0.04888 0.25989 0.02566 0.0
C897 C 0.07201 0.26666 0.04878 0.0
C898 C 0.08085 0.24963 0.05205 0.0
C899 C 0.0656 0.2252 0.03258 0.0
H900 H 0.91411 0.6201 0.39633 0.0
H901 H 0.83701 0.56106 0.38517 0.0
H902 H 0.85062 0.53482 0.33933 0.0
H903 H 0.93328 0.61081 0.26912 0.0
H904 H 0.96373 0.61747 0.29069 0.0
H905 H 0.94813 0.63145 0.32405 0.0
H906 H 0.95229 0.6135 0.41356 0.0
H907 H 0.96823 0.59979 0.3806 0.0
H908 H 0.94076 0.58065 0.41946 0.0
H909 H 0.87286 0.51507 0.29278 0.0
H910 H 0.9018 0.50266 0.25528 0.0
H911 H 0.96435 0.57481 0.29583 0.0
C912 C 0.90003 0.60156 0.38486 0.0
C913 C 0.87439 0.59274 0.39479 0.0
C914 C 0.85673 0.56835 0.37843 0.0
C915 C 0.86429 0.55329 0.35206 0.0
C916 C 0.88962 0.56278 0.34206 0.0
C917 C 0.90723 0.5863 0.35835 0.0
C918 C 0.93329 0.59213 0.34275 0.0
C919 C 0.94531 0.61428 0.30437 0.0
C920 C 0.9496 0.59678 0.39203 0.0
C921 C 0.92765 0.56821 0.31528 0.0
C922 C 0.90234 0.55154 0.31509 0.0
C923 C 0.89271 0.52803 0.29272 0.0
C924 C 0.90936 0.52118 0.27122 0.0
C925 C 0.93549 0.53772 0.27206 0.0
C926 C 0.94455 0.56173 0.29376 0.0
H927 H 0.47534 0.39888 0.29481 0.0
H928 H 0.54915 0.41068 0.26102 0.0
H929 H 0.53748 0.37028 0.30302 0.0
H930 H 0.46962 0.37163 0.42289 0.0
H931 H 0.43672 0.35009 0.41632 0.0
H932 H 0.45065 0.37937 0.38192 0.0
H933 H 0.4338 0.35656 0.29276 0.0
H934 H 0.41959 0.32724 0.32697 0.0
H935 H 0.44092 0.33294 0.2732 0.0
H936 H 0.51678 0.3274 0.34891 0.0
H937 H 0.48946 0.28711 0.39298 0.0
H938 H 0.43031 0.30516 0.39997 0.0
C939 C 0.48903 0.3929 0.29553 0.0
C940 C 0.51314 0.40799 0.27385 0.0
C941 C 0.53053 0.3995 0.27692 0.0
C942 C 0.52407 0.37656 0.30087 0.0
C943 C 0.50021 0.36233 0.32235 0.0
C944 C 0.48302 0.3703 0.31995 0.0
C945 C 0.45884 0.352 0.34699 0.0
C946 C 0.45366 0.36399 0.39487 0.0
C947 C 0.437 0.34157 0.30763 0.0
C948 C 0.46486 0.33225 0.3644 0.0
C949 C 0.48879 0.33845 0.34992 0.0
C950 C 0.49808 0.32253 0.36065 0.0
C951 C 0.48242 0.29966 0.38593 0.0
C952 C 0.45769 0.29282 0.40067 0.0
C953 C 0.44914 0.30972 0.39013 0.0
H954 H 0.64079 0.077 0.29634 0.0
H955 H 0.62579 0.13729 0.27015 0.0
H956 H 0.66625 0.16646 0.31126 0.0
H957 H 0.66837 0.09648 0.42276 0.0
H958 H 0.69137 0.08719 0.41304 0.0
H959 H 0.66204 0.07128 0.37863 0.0
H960 H 0.68513 0.08072 0.28871 0.0
H961 H 0.71454 0.09629 0.3229 0.0
H962 H 0.70772 0.11231 0.27195 0.0
H963 H 0.70805 0.1889 0.35892 0.0
H964 H 0.74846 0.20308 0.40313 0.0
H965 H 0.73566 0.12784 0.39973 0.0
C966 C 0.64609 0.0964 0.29827 0.0
C967 C 0.62994 0.10474 0.27943 0.0
C968 C 0.63773 0.13033 0.28375 0.0
C969 C 0.66068 0.14706 0.30737 0.0
C970 C 0.67575 0.13802 0.32673 0.0
C971 C 0.66883 0.1133 0.32198 0.0
C972 C 0.68811 0.10814 0.34685 0.0
C973 C 0.67679 0.08968 0.39306 0.0
C974 C 0.69955 0.09882 0.30511 0.0
C975 C 0.70701 0.13381 0.36646 0.0
C976 C 0.69952 0.15079 0.35454 0.0
C977 C 0.71405 0.17571 0.36832 0.0
C978 C 0.737 0.18358 0.39372 0.0
C979 C 0.74539 0.16664 0.40543 0.0
C980 C 0.72983 0.14131 0.3921 0.0
H981 H 0.53927 0.14554 0.28193 0.0
H982 H 0.47553 0.0712 0.27019 0.0
H983 H 0.44874 0.08585 0.30954 0.0
H984 H 0.52334 0.16151 0.40539 0.0
H985 H 0.53349 0.19323 0.38773 0.0
H986 H 0.5478 0.1773 0.35723 0.0
H987 H 0.53692 0.1868 0.26442 0.0
H988 H 0.52283 0.20302 0.29461 0.0
H989 H 0.50509 0.17791 0.24936 0.0
H990 H 0.42926 0.10787 0.3559 0.0
H991 H 0.41747 0.13661 0.39644 0.0
H992 H 0.49301 0.19747 0.37445 0.0
C993 C 0.51961 0.13242 0.28697 0.0
C994 C 0.50955 0.10715 0.27271 0.0
C995 C 0.48372 0.09063 0.2803 0.0
C996 C 0.46834 0.09877 0.30298 0.0
C997 C 0.47889 0.12362 0.31747 0.0
C998 C 0.50385 0.14033 0.30899 0.0
C999 C 0.51038 0.1661 0.32773 0.0
C1000 C 0.52991 0.17505 0.37216 0.0
C1001 C 0.51933 0.18455 0.28125 0.0
C1002 C 0.48527 0.16122 0.34847 0.0
C1003 C 0.46744 0.13651 0.34262 0.0
C1004 C 0.44303 0.1273 0.36021 0.0
C1005 C 0.43654 0.14378 0.38354 0.0
C1006 C 0.45424 0.16935 0.3887 0.0
C1007 C 0.47899 0.17807 0.37099 0.0
H1008 H 0.89179 0.30377 0.38797 0.0
H1009 H 0.81569 0.28943 0.37693 0.0
H1010 H 0.83049 0.32946 0.33315 0.0
H1011 H 0.91996 0.37067 0.41399 0.0
H1012 H 0.94747 0.37924 0.37501 0.0
H1013 H 0.93135 0.34925 0.40654 0.0
H1014 H 0.92723 0.32823 0.31597 0.0
H1015 H 0.94306 0.35815 0.28407 0.0
H1016 H 0.91261 0.3349 0.26168 0.0
H1017 H 0.85186 0.36949 0.28848 0.0
H1018 H 0.87998 0.41085 0.25225 0.0
H1019 H 0.94376 0.40259 0.29102 0.0
C1020 C 0.87836 0.30926 0.37686 0.0
C1021 C 0.85246 0.29319 0.38591 0.0
C1022 C 0.83554 0.30111 0.37038 0.0
C1023 C 0.84374 0.3239 0.34523 0.0
C1024 C 0.86908 0.33896 0.3357 0.0
C1025 C 0.88632 0.33233 0.35146 0.0
C1026 C 0.91257 0.35271 0.33637 0.0
C1027 C 0.9288 0.36361 0.38594 0.0
C1028 C 0.92457 0.34291 0.2972 0.0
C1029 C 0.90715 0.37161 0.30992 0.0
C1030 C 0.88182 0.36293 0.30986 0.0
C1031 C 0.87176 0.37658 0.2884 0.0
C1032 C 0.88796 0.40011 0.26773 0.0
C1033 C 0.91412 0.41008 0.2685 0.0
C1034 C 0.92385 0.39538 0.28914 0.0
H1035 H 0.64385 0.50135 0.2878 0.0
H1036 H 0.62981 0.56272 0.27222 0.0
H1037 H 0.67065 0.59075 0.3132 0.0
H1038 H 0.67542 0.51852 0.41212 0.0
H1039 H 0.69811 0.50962 0.395 0.0
H1040 H 0.6678 0.49425 0.36446 0.0
H1041 H 0.68825 0.50554 0.27164 0.0
H1042 H 0.71863 0.52071 0.30189 0.0
H1043 H 0.71016 0.53749 0.25608 0.0
H1044 H 0.71209 0.61164 0.36109 0.0
H1045 H 0.7532 0.62503 0.40157 0.0
H1046 H 0.74198 0.55098 0.38056 0.0
C1047 C 0.64947 0.52073 0.29267 0.0
C1048 C 0.63357 0.52983 0.27681 0.0
C1049 C 0.64168 0.55534 0.2837 0.0
C1050 C 0.66481 0.57138 0.30728 0.0
C1051 C 0.67989 0.56178 0.32312 0.0
C1052 C 0.67276 0.53715 0.31523 0.0
C1053 C 0.69282 0.53173 0.33436 0.0
C1054 C 0.68294 0.51238 0.37915 0.0
C1055 C 0.70307 0.52338 0.28824 0.0
C1056 C 0.71224 0.5571 0.3547 0.0
C1057 C 0.70424 0.57408 0.34846 0.0
C1058 C 0.7186 0.59853 0.3657 0.0
C1059 C 0.74189 0.60594 0.38899 0.0
C1060 C 0.75089 0.58911 0.39424 0.0
C1061 C 0.7357 0.56432 0.37697 0.0
H1062 H 0.63627 0.90816 0.63289 0.0
H1063 H 0.57385 0.83484 0.59932 0.0
H1064 H 0.54502 0.84737 0.6362 0.0
H1065 H 0.61379 0.91676 0.75573 0.0
H1066 H 0.62451 0.94927 0.74605 0.0
H1067 H 0.64057 0.93532 0.71452 0.0
H1068 H 0.63442 0.95019 0.62295 0.0
H1069 H 0.61868 0.96452 0.65428 0.0
H1070 H 0.60351 0.9423 0.60203 0.0
H1071 H 0.52295 0.8667 0.6815 0.0
H1072 H 0.50852 0.89275 0.72409 0.0
H1073 H 0.58465 0.95435 0.72783 0.0
C1074 C 0.61651 0.89484 0.63237 0.0
C1075 C 0.60748 0.87042 0.61283 0.0
C1076 C 0.58141 0.85363 0.61368 0.0
C1077 C 0.56481 0.86055 0.63484 0.0
C1078 C 0.57437 0.88444 0.65498 0.0
C1079 C 0.59956 0.90148 0.6533 0.0
C1080 C 0.60485 0.92594 0.67799 0.0
C1081 C 0.62194 0.93218 0.72645 0.0
C1082 C 0.61602 0.94698 0.63686 0.0
C1083 C 0.57874 0.91989 0.69419 0.0
C1084 C 0.56151 0.89577 0.68067 0.0
C1085 C 0.53626 0.88567 0.6919 0.0
C1086 C 0.52826 0.9007 0.71643 0.0
C1087 C 0.54533 0.92577 0.72959 0.0
C1088 C 0.57104 0.9353 0.71869 0.0
H1089 H 0.13391 0.72545 0.61939 0.0
H1090 H 0.20759 0.73691 0.58487 0.0
H1091 H 0.19511 0.69559 0.62231 0.0
H1092 H 0.12665 0.69617 0.74299 0.0
H1093 H 0.09383 0.67452 0.7353 0.0
H1094 H 0.10779 0.70408 0.70209 0.0
H1095 H 0.09177 0.68215 0.61184 0.0
H1096 H 0.07741 0.65251 0.64487 0.0
H1097 H 0.09914 0.65878 0.59163 0.0
H1098 H 0.17487 0.65326 0.66823 0.0
H1099 H 0.14814 0.61323 0.71329 0.0
H1100 H 0.08809 0.63005 0.71931 0.0
C1101 C 0.14733 0.71915 0.61854 0.0
C1102 C 0.17176 0.73459 0.59851 0.0
C1103 C 0.18873 0.72554 0.59939 0.0
C1104 C 0.18183 0.70206 0.62089 0.0
C1105 C 0.15786 0.68769 0.64159 0.0
C1106 C 0.14081 0.69584 0.64012 0.0
C1107 C 0.11647 0.67722 0.66631 0.0
C1108 C 0.11087 0.68869 0.71453 0.0
C1109 C 0.09492 0.66706 0.62627 0.0
C1110 C 0.12246 0.65735 0.68305 0.0
C1111 C 0.14642 0.66369 0.66842 0.0
C1112 C 0.15606 0.64815 0.67967 0.0
C1113 C 0.14072 0.62542 0.70557 0.0
C1114 C 0.11592 0.6183 0.72032 0.0
C1115 C 0.10694 0.63481 0.70915 0.0
H1116 H 0.40881 0.45904 0.70768 0.0
H1117 H 0.42025 0.53291 0.73439 0.0
H1118 H 0.37871 0.51979 0.69669 0.0
H1119 H 0.37841 0.44888 0.58405 0.0
H1120 H 0.35671 0.41646 0.59561 0.0
H1121 H 0.38672 0.43114 0.62742 0.0
H1122 H 0.36555 0.41751 0.71931 0.0
H1123 H 0.33549 0.40239 0.68769 0.0
H1124 H 0.34224 0.42533 0.73813 0.0
H1125 H 0.33588 0.49865 0.65167 0.0
H1126 H 0.29483 0.47057 0.6113 0.0
H1127 H 0.31206 0.41098 0.61331 0.0
C1128 C 0.4025 0.47242 0.70657 0.0
C1129 C 0.41801 0.49707 0.72449 0.0
C1130 C 0.40886 0.5139 0.72142 0.0
C1131 C 0.38525 0.50664 0.6997 0.0
C1132 C 0.37082 0.48244 0.68108 0.0
C1133 C 0.37902 0.46551 0.68492 0.0
C1134 C 0.36008 0.44068 0.66163 0.0
C1135 C 0.37115 0.4339 0.61438 0.0
C1136 C 0.35026 0.42027 0.70423 0.0
C1137 C 0.33999 0.44626 0.64385 0.0
C1138 C 0.34649 0.47044 0.65523 0.0
C1139 C 0.33065 0.47966 0.64272 0.0
C1140 C 0.30737 0.46358 0.61938 0.0
C1141 C 0.3 0.43846 0.60865 0.0
C1142 C 0.31694 0.43003 0.62045 0.0
H1143 H 0.20678 0.47869 0.61212 0.0
H1144 H 0.14509 0.40298 0.60552 0.0
H1145 H 0.11743 0.41636 0.64537 0.0
H1146 H 0.191 0.49521 0.73541 0.0
H1147 H 0.19944 0.52631 0.71585 0.0
H1148 H 0.21466 0.51117 0.68575 0.0
H1149 H 0.20188 0.51845 0.59283 0.0
H1150 H 0.18688 0.53387 0.62262 0.0
H1151 H 0.16953 0.50786 0.57919 0.0
H1152 H 0.0969 0.43721 0.69171 0.0
H1153 H 0.08362 0.46505 0.73099 0.0
H1154 H 0.15741 0.52802 0.70327 0.0
C1155 C 0.18738 0.465 0.61843 0.0
C1156 C 0.17817 0.43972 0.60546 0.0
C1157 C 0.15264 0.42244 0.61464 0.0
C1158 C 0.13676 0.42984 0.63763 0.0
C1159 C 0.14647 0.45472 0.6508 0.0
C1160 C 0.17106 0.47217 0.6407 0.0
C1161 C 0.17654 0.49783 0.65794 0.0
C1162 C 0.1966 0.50824 0.70131 0.0
C1163 C 0.18415 0.51555 0.6103 0.0
C1164 C 0.15127 0.49201 0.67968 0.0
C1165 C 0.1343 0.46695 0.6757 0.0
C1166 C 0.10998 0.4569 0.69455 0.0
C1167 C 0.10263 0.47287 0.71715 0.0
C1168 C 0.11939 0.49875 0.72023 0.0
C1169 C 0.1441 0.50834 0.70136 0.0
H1170 H 0.56343 0.63342 0.71205 0.0
H1171 H 0.48891 0.62282 0.72871 0.0
H1172 H 0.50303 0.66374 0.68948 0.0
H1173 H 0.59634 0.70059 0.7426 0.0
H1174 H 0.62089 0.70819 0.69523 0.0
H1175 H 0.60545 0.67805 0.72625 0.0
H1176 H 0.5947 0.65742 0.63394 0.0
H1177 H 0.60979 0.68749 0.60264 0.0
H1178 H 0.57776 0.66543 0.58749 0.0
H1179 H 0.52327 0.70388 0.64432 0.0
H1180 H 0.55046 0.74475 0.60505 0.0
H1181 H 0.61364 0.73283 0.61805 0.0
C1182 C 0.55026 0.63996 0.70827 0.0
C1183 C 0.52493 0.62467 0.72358 0.0
C1184 C 0.5083 0.63392 0.71733 0.0
C1185 C 0.51612 0.65721 0.69482 0.0
C1186 C 0.54081 0.67145 0.67876 0.0
C1187 C 0.55786 0.66356 0.68585 0.0
C1188 C 0.58339 0.68316 0.66503 0.0
C1189 C 0.60266 0.69309 0.70996 0.0
C1190 C 0.59191 0.67275 0.61957 0.0
C1191 C 0.57779 0.70304 0.64508 0.0
C1192 C 0.55296 0.69553 0.65322 0.0
C1193 C 0.54281 0.71011 0.63814 0.0
C1194 C 0.5585 0.73336 0.61559 0.0
C1195 C 0.5843 0.74223 0.60833 0.0
C1196 C 0.594 0.72659 0.62258 0.0
H1197 H 0.30531 0.8795 0.62606 0.0
H1198 H 0.29997 0.80963 0.58159 0.0
H1199 H 0.34174 0.82388 0.61749 0.0
H1200 H 0.37294 0.91864 0.59734 0.0
H1201 H 0.37867 0.93882 0.65306 0.0
H1202 H 0.34861 0.92399 0.62128 0.0
H1203 H 0.32759 0.90532 0.71125 0.0
H1204 H 0.3576 0.91982 0.74316 0.0
H1205 H 0.33717 0.88676 0.74841 0.0
H1206 H 0.38201 0.84333 0.66202 0.0
H1207 H 0.42196 0.8692 0.70607 0.0
H1208 H 0.4044 0.92828 0.72305 0.0
C1209 C 0.31323 0.8675 0.6229 0.0
C1210 C 0.29926 0.84338 0.6007 0.0
C1211 C 0.31015 0.82809 0.59828 0.0
C1212 C 0.33391 0.836 0.61874 0.0
C1213 C 0.34686 0.85939 0.64167 0.0
C1214 C 0.33725 0.87517 0.64343 0.0
C1215 C 0.35551 0.89929 0.67131 0.0
C1216 C 0.36446 0.9215 0.63349 0.0
C1217 C 0.34376 0.90301 0.72151 0.0
C1218 C 0.37663 0.89433 0.68505 0.0
C1219 C 0.37092 0.87106 0.66754 0.0
C1220 C 0.38685 0.86169 0.67551 0.0
C1221 C 0.40958 0.87663 0.70083 0.0
C1222 C 0.41658 0.90092 0.71808 0.0
C1223 C 0.39962 0.90978 0.71066 0.0
loop_
_geom_bond_atom_site_label_1
_geom_bond_atom_site_label_2
_geom_bond_distance
_geom_bond_site_symmetry_2
_ccdc_geom_bond_type
Co0 O1 2.216 . S
Co0 O2 2.091 . S
Co0 O4 2.004 . S
Co0 O10 2.021 1_554 S
Co0 O12 2.137 . S
Co0 O13 2.244 . S
O1 Co0 2.216 . S
O1 C8 1.247 . S
O2 Co0 2.091 . S
O2 C8 1.261 . S
C3 O12 1.247 . S
C3 O13 1.272 . S
O4 Co0 2.004 . S
O4 C9 1.259 . S
Co5 O6 2.061 . S
Co5 O11 2.052 1_554 S
Co5 O13 2.135 . S
O6 Co5 2.061 . S
O6 C9 1.235 . S
C7 O10 1.238 . S
C7 O11 1.241 . S
C8 O1 1.247 . S
C8 O2 1.261 . S
C9 O4 1.259 . S
C9 O6 1.235 . S
O10 Co0 2.021 1_556 S
O10 C7 1.238 . S
O11 Co5 2.052 1_556 S
O11 C7 1.241 . S
O12 Co0 2.137 . S
O12 C3 1.247 . S
O13 Co0 2.244 . S
O13 C3 1.272 . S
O13 Co5 2.135 . S
Co14 O15 2.216 . S
Co14 O16 2.091 . S
Co14 O18 2.004 . S
Co14 O24 2.021 1_554 S
Co14 O26 2.137 . S
Co14 O27 2.244 . S
O15 Co14 2.216 . S
O15 C22 1.247 . S
O16 Co14 2.091 . S
O16 C22 1.261 . S
C17 O26 1.247 . S
C17 O27 1.272 . S
O18 Co14 2.004 . S
O18 C23 1.259 . S
Co19 O20 2.061 . S
Co19 O25 2.052 1_554 S
Co19 O27 2.135 . S
O20 Co19 2.061 . S
O20 C23 1.235 . S
C21 O24 1.238 . S
C21 O25 1.241 . S
C22 O15 1.247 . S
C22 O16 1.261 . S
C23 O18 1.259 . S
C23 O20 1.235 . S
O24 Co14 2.021 1_556 S
O24 C21 1.238 . S
O25 Co19 2.052 1_556 S
O25 C21 1.241 . S
O26 Co14 2.137 . S
O26 C17 1.247 . S
O27 Co14 2.244 . S
O27 C17 1.272 . S
O27 Co19 2.135 . S
Co28 O29 2.216 . S
Co28 O30 2.091 . S
Co28 O32 2.004 . S
Co28 O38 2.021 1_554 S
Co28 O40 2.137 . S
Co28 O41 2.244 . S
O29 Co28 2.216 . S
O29 C36 1.247 . S
O30 Co28 2.091 . S
O30 C36 1.261 . S
C31 O40 1.247 . S
C31 O41 1.272 . S
O32 Co28 2.004 . S
O32 C37 1.259 . S
Co33 O34 2.061 . S
Co33 O39 2.052 1_554 S
Co33 O41 2.135 . S
O34 Co33 2.061 . S
O34 C37 1.235 . S
C35 O38 1.238 . S
C35 O39 1.241 . S
C36 O29 1.247 . S
C36 O30 1.261 . S
C37 O32 1.259 . S
C37 O34 1.235 . S
O38 Co28 2.021 1_556 S
O38 C35 1.238 . S
O39 Co33 2.052 1_556 S
O39 C35 1.241 . S
O40 Co28 2.137 . S
O40 C31 1.247 . S
O41 Co28 2.244 . S
O41 C31 1.272 . S
O41 Co33 2.135 . S
Co42 O43 2.216 . S
Co42 O44 2.091 . S
Co42 O46 2.004 . S
Co42 O52 2.021 1_556 S
Co42 O54 2.137 . S
Co42 O55 2.244 . S
O43 Co42 2.216 . S
O43 C50 1.247 . S
O44 Co42 2.091 . S
O44 C50 1.261 . S
C45 O54 1.247 . S
C45 O55 1.272 . S
O46 Co42 2.004 . S
O46 C51 1.259 . S
Co47 O48 2.061 . S
Co47 O53 2.052 1_556 S
Co47 O55 2.135 . S
O48 Co47 2.061 . S
O48 C51 1.235 . S
C49 O52 1.238 . S
C49 O53 1.241 . S
C50 O43 1.247 . S
C50 O44 1.261 . S
C51 O46 1.259 . S
C51 O48 1.235 . S
O52 Co42 2.021 1_554 S
O52 C49 1.238 . S
O53 Co47 2.052 1_554 S
O53 C49 1.241 . S
O54 Co42 2.137 . S
O54 C45 1.247 . S
O55 Co42 2.244 . S
O55 C45 1.272 . S
O55 Co47 2.135 . S
Co56 O57 2.216 . S
Co56 O58 2.091 . S
Co56 O60 2.004 . S
Co56 O66 2.021 1_556 S
Co56 O68 2.137 . S
Co56 O69 2.244 . S
O57 Co56 2.216 . S
O57 C64 1.247 . S
O58 Co56 2.091 . S
O58 C64 1.261 . S
C59 O68 1.247 . S
C59 O69 1.272 . S
O60 Co56 2.004 . S
O60 C65 1.259 . S
Co61 O62 2.061 . S
Co61 O67 2.052 1_556 S
Co61 O69 2.135 . S
O62 Co61 2.061 . S
O62 C65 1.235 . S
C63 O66 1.238 . S
C63 O67 1.241 . S
C64 O57 1.247 . S
C64 O58 1.261 . S
C65 O60 1.259 . S
C65 O62 1.235 . S
O66 Co56 2.021 1_554 S
O66 C63 1.238 . S
O67 Co61 2.052 1_554 S
O67 C63 1.241 . S
O68 Co56 2.137 . S
O68 C59 1.247 . S
O69 Co56 2.244 . S
O69 C59 1.272 . S
O69 Co61 2.135 . S
Co70 O71 2.216 . S
Co70 O72 2.091 . S
Co70 O74 2.004 . S
Co70 O80 2.021 1_556 S
Co70 O82 2.137 . S
Co70 O83 2.244 . S
O71 Co70 2.216 . S
O71 C78 1.247 . S
O72 Co70 2.091 . S
O72 C78 1.261 . S
C73 O82 1.247 . S
C73 O83 1.272 . S
O74 Co70 2.004 . S
O74 C79 1.259 . S
Co75 O76 2.061 . S
Co75 O81 2.052 1_556 S
Co75 O83 2.135 . S
O76 Co75 2.061 . S
O76 C79 1.235 . S
C77 O80 1.238 . S
C77 O81 1.241 . S
C78 O71 1.247 . S
C78 O72 1.261 . S
C79 O74 1.259 . S
C79 O76 1.235 . S
O80 Co70 2.021 1_554 S
O80 C77 1.238 . S
O81 Co75 2.052 1_554 S
O81 C77 1.241 . S
O82 Co70 2.137 . S
O82 C73 1.247 . S
O83 Co70 2.244 . S
O83 C73 1.272 . S
O83 Co75 2.135 . S
Co84 O85 2.216 . S
Co84 O86 2.091 . S
Co84 O88 2.004 . S
Co84 O94 2.021 . S
Co84 O96 2.137 . S
Co84 O97 2.244 . S
O85 Co84 2.216 . S
O85 C92 1.247 . S
O86 Co84 2.091 . S
O86 C92 1.261 . S
C87 O96 1.247 . S
C87 O97 1.272 . S
O88 Co84 2.004 . S
O88 C93 1.259 . S
Co89 O90 2.061 . S
Co89 O95 2.052 . S
Co89 O97 2.135 . S
O90 Co89 2.061 . S
O90 C93 1.235 . S
C91 O94 1.238 . S
C91 O95 1.241 . S
C92 O85 1.247 . S
C92 O86 1.261 . S
C93 O88 1.259 . S
C93 O90 1.235 . S
O94 Co84 2.021 . S
O94 C91 1.238 . S
O95 Co89 2.052 . S
O95 C91 1.241 . S
O96 Co84 2.137 . S
O96 C87 1.247 . S
O97 Co84 2.244 . S
O97 C87 1.272 . S
O97 Co89 2.135 . S
Co98 O99 2.216 . S
Co98 O100 2.091 . S
Co98 O102 2.004 . S
Co98 O108 2.021 . S
Co98 O110 2.137 . S
Co98 O111 2.244 . S
O99 Co98 2.216 . S
O99 C106 1.247 . S
O100 Co98 2.091 . S
O100 C106 1.261 . S
C101 O110 1.247 . S
C101 O111 1.272 . S
O102 Co98 2.004 . S
O102 C107 1.259 . S
Co103 O104 2.061 . S
Co103 O109 2.052 . S
Co103 O111 2.135 . S
O104 Co103 2.061 . S
O104 C107 1.235 . S
C105 O108 1.238 . S
C105 O109 1.241 . S
C106 O99 1.247 . S
C106 O100 1.261 . S
C107 O102 1.259 . S
C107 O104 1.235 . S
O108 Co98 2.021 . S
O108 C105 1.238 . S
O109 Co103 2.052 . S
O109 C105 1.241 . S
O110 Co98 2.137 . S
O110 C101 1.247 . S
O111 Co98 2.244 . S
O111 C101 1.272 . S
O111 Co103 2.135 . S
Co112 O113 2.216 . S
Co112 O114 2.091 . S
Co112 O116 2.004 . S
Co112 O122 2.021 . S
Co112 O124 2.137 . S
Co112 O125 2.244 . S
O113 Co112 2.216 . S
O113 C120 1.247 . S
O114 Co112 2.091 . S
O114 C120 1.261 . S
C115 O124 1.247 . S
C115 O125 1.272 . S
O116 Co112 2.004 . S
O116 C121 1.259 . S
Co117 O118 2.061 . S
Co117 O123 2.052 . S
Co117 O125 2.135 . S
O118 Co117 2.061 . S
O118 C121 1.235 . S
C119 O122 1.238 . S
C119 O123 1.241 . S
C120 O113 1.247 . S
C120 O114 1.261 . S
C121 O116 1.259 . S
C121 O118 1.235 . S
O122 Co112 2.021 . S
O122 C119 1.238 . S
O123 Co117 2.052 . S
O123 C119 1.241 . S
O124 Co112 2.137 . S
O124 C115 1.247 . S
O125 Co112 2.244 . S
O125 C115 1.272 . S
O125 Co117 2.135 . S
Co126 O127 2.216 . S
Co126 O128 2.091 . S
Co126 O130 2.004 . S
Co126 O136 2.021 . S
Co126 O138 2.137 . S
Co126 O139 2.244 . S
O127 Co126 2.216 . S
O127 C134 1.247 . S
O128 Co126 2.091 . S
O128 C134 1.261 . S
C129 O138 1.247 . S
C129 O139 1.272 . S
O130 Co126 2.004 . S
O130 C135 1.259 . S
Co131 O132 2.061 . S
Co131 O137 2.052 . S
Co131 O139 2.135 . S
O132 Co131 2.061 . S
O132 C135 1.235 . S
C133 O136 1.238 . S
C133 O137 1.241 . S
C134 O127 1.247 . S
C134 O128 1.261 . S
C135 O130 1.259 . S
C135 O132 1.235 . S
O136 Co126 2.021 . S
O136 C133 1.238 . S
O137 Co131 2.052 . S
O137 C133 1.241 . S
O138 Co126 2.137 . S
O138 C129 1.247 . S
O139 Co126 2.244 . S
O139 C129 1.272 . S
O139 Co131 2.135 . S
Co140 O141 2.216 . S
Co140 O142 2.091 . S
Co140 O144 2.004 . S
Co140 O150 2.021 . S
Co140 O152 2.137 . S
Co140 O153 2.244 . S
O141 Co140 2.216 . S
O141 C148 1.247 . S
O142 Co140 2.091 . S
O142 C148 1.261 . S
C143 O152 1.247 . S
C143 O153 1.272 . S
O144 Co140 2.004 . S
O144 C149 1.259 . S
Co145 O146 2.061 . S
Co145 O151 2.052 . S
Co145 O153 2.135 . S
O146 Co145 2.061 . S
O146 C149 1.235 . S
C147 O150 1.238 . S
C147 O151 1.241 . S
C148 O141 1.247 . S
C148 O142 1.261 . S
C149 O144 1.259 . S
C149 O146 1.235 . S
O150 Co140 2.021 . S
O150 C147 1.238 . S
O151 Co145 2.052 . S
O151 C147 1.241 . S
O152 Co140 2.137 . S
O152 C143 1.247 . S
O153 Co140 2.244 . S
O153 C143 1.272 . S
O153 Co145 2.135 . S
Co154 O155 2.216 . S
Co154 O156 2.091 . S
Co154 O158 2.004 . S
Co154 O164 2.021 . S
Co154 O166 2.137 . S
Co154 O167 2.244 . S
O155 Co154 2.216 . S
O155 C162 1.247 . S
O156 Co154 2.091 . S
O156 C162 1.261 . S
C157 O166 1.247 . S
C157 O167 1.272 . S
O158 Co154 2.004 . S
O158 C163 1.259 . S
Co159 O160 2.061 . S
Co159 O165 2.052 . S
Co159 O167 2.135 . S
O160 Co159 2.061 . S
O160 C163 1.235 . S
C161 O164 1.238 . S
C161 O165 1.241 . S
C162 O155 1.247 . S
C162 O156 1.261 . S
C163 O158 1.259 . S
C163 O160 1.235 . S
O164 Co154 2.021 . S
O164 C161 1.238 . S
O165 Co159 2.052 . S
O165 C161 1.241 . S
O166 Co154 2.137 . S
O166 C157 1.247 . S
O167 Co154 2.244 . S
O167 C157 1.272 . S
O167 Co159 2.135 . S
Co168 O169 2.216 . S
Co168 O170 2.091 . S
Co168 O172 2.004 . S
Co168 O178 2.021 . S
Co168 O180 2.137 . S
Co168 O181 2.244 . S
O169 Co168 2.216 . S
O169 C176 1.247 . S
O170 Co168 2.091 . S
O170 C176 1.261 . S
C171 O180 1.247 . S
C171 O181 1.272 . S
O172 Co168 2.004 . S
O172 C177 1.259 . S
Co173 O174 2.061 . S
Co173 O179 2.052 . S
Co173 O181 2.135 . S
O174 Co173 2.061 . S
O174 C177 1.235 . S
C175 O178 1.238 . S
C175 O179 1.241 . S
C176 O169 1.247 . S
C176 O170 1.261 . S
C177 O172 1.259 . S
C177 O174 1.235 . S
O178 Co168 2.021 . S
O178 C175 1.238 . S
O179 Co173 2.052 . S
O179 C175 1.241 . S
O180 Co168 2.137 . S
O180 C171 1.247 . S
O181 Co168 2.244 . S
O181 C171 1.272 . S
O181 Co173 2.135 . S
Co182 O183 2.216 . S
Co182 O184 2.091 . S
Co182 O186 2.004 . S
Co182 O192 2.021 . S
Co182 O194 2.137 . S
Co182 O195 2.244 . S
O183 Co182 2.216 . S
O183 C190 1.247 . S
O184 Co182 2.091 . S
O184 C190 1.261 . S
C185 O194 1.247 . S
C185 O195 1.272 . S
O186 Co182 2.004 . S
O186 C191 1.259 . S
Co187 O188 2.061 . S
Co187 O193 2.052 . S
Co187 O195 2.135 . S
O188 Co187 2.061 . S
O188 C191 1.235 . S
C189 O192 1.238 . S
C189 O193 1.241 . S
C190 O183 1.247 . S
C190 O184 1.261 . S
C191 O186 1.259 . S
C191 O188 1.235 . S
O192 Co182 2.021 . S
O192 C189 1.238 . S
O193 Co187 2.052 . S
O193 C189 1.241 . S
O194 Co182 2.137 . S
O194 C185 1.247 . S
O195 Co182 2.244 . S
O195 C185 1.272 . S
O195 Co187 2.135 . S
Co196 O197 2.216 . S
Co196 O198 2.091 . S
Co196 O200 2.004 . S
Co196 O206 2.021 . S
Co196 O208 2.137 . S
Co196 O209 2.244 . S
O197 Co196 2.216 . S
O197 C204 1.247 . S
O198 Co196 2.091 . S
O198 C204 1.261 . S
C199 O208 1.247 . S
C199 O209 1.272 . S
O200 Co196 2.004 . S
O200 C205 1.259 . S
Co201 O202 2.061 . S
Co201 O207 2.052 . S
Co201 O209 2.135 . S
O202 Co201 2.061 . S
O202 C205 1.235 . S
C203 O206 1.238 . S
C203 O207 1.241 . S
C204 O197 1.247 . S
C204 O198 1.261 . S
C205 O200 1.259 . S
C205 O202 1.235 . S
O206 Co196 2.021 . S
O206 C203 1.238 . S
O207 Co201 2.052 . S
O207 C203 1.241 . S
O208 Co196 2.137 . S
O208 C199 1.247 . S
O209 Co196 2.244 . S
O209 C199 1.272 . S
O209 Co201 2.135 . S
Co210 O211 2.216 . S
Co210 O212 2.091 . S
Co210 O214 2.004 . S
Co210 O220 2.021 . S
Co210 O222 2.137 . S
Co210 O223 2.244 . S
O211 Co210 2.216 . S
O211 C218 1.247 . S
O212 Co210 2.091 . S
O212 C218 1.261 . S
C213 O222 1.247 . S
C213 O223 1.272 . S
O214 Co210 2.004 . S
O214 C219 1.259 . S
Co215 O216 2.061 . S
Co215 O221 2.052 . S
Co215 O223 2.135 . S
O216 Co215 2.061 . S
O216 C219 1.235 . S
C217 O220 1.238 . S
C217 O221 1.241 . S
C218 O211 1.247 . S
C218 O212 1.261 . S
C219 O214 1.259 . S
C219 O216 1.235 . S
O220 Co210 2.021 . S
O220 C217 1.238 . S
O221 Co215 2.052 . S
O221 C217 1.241 . S
O222 Co210 2.137 . S
O222 C213 1.247 . S
O223 Co210 2.244 . S
O223 C213 1.272 . S
O223 Co215 2.135 . S
Co224 O225 2.216 . S
Co224 O226 2.091 . S
Co224 O228 2.004 . S
Co224 O234 2.021 . S
Co224 O236 2.137 . S
Co224 O237 2.244 . S
O225 Co224 2.216 . S
O225 C232 1.247 . S
O226 Co224 2.091 . S
O226 C232 1.261 . S
C227 O236 1.247 . S
C227 O237 1.272 . S
O228 Co224 2.004 . S
O228 C233 1.259 . S
Co229 O230 2.061 . S
Co229 O235 2.052 . S
Co229 O237 2.135 . S
O230 Co229 2.061 . S
O230 C233 1.235 . S
C231 O234 1.238 . S
C231 O235 1.241 . S
C232 O225 1.247 . S
C232 O226 1.261 . S
C233 O228 1.259 . S
C233 O230 1.235 . S
O234 Co224 2.021 . S
O234 C231 1.238 . S
O235 Co229 2.052 . S
O235 C231 1.241 . S
O236 Co224 2.137 . S
O236 C227 1.247 . S
O237 Co224 2.244 . S
O237 C227 1.272 . S
O237 Co229 2.135 . S
Co238 O239 2.216 . S
Co238 O240 2.091 . S
Co238 O242 2.004 . S
Co238 O248 2.021 . S
Co238 O250 2.137 . S
Co238 O251 2.244 . S
O239 Co238 2.216 . S
O239 C246 1.247 . S
O240 Co238 2.091 . S
O240 C246 1.261 . S
C241 O250 1.247 . S
C241 O251 1.272 . S
O242 Co238 2.004 . S
O242 C247 1.259 . S
Co243 O244 2.061 . S
Co243 O249 2.052 . S
Co243 O251 2.135 . S
O244 Co243 2.061 . S
O244 C247 1.235 . S
C245 O248 1.238 . S
C245 O249 1.241 . S
C246 O239 1.247 . S
C246 O240 1.261 . S
C247 O242 1.259 . S
C247 O244 1.235 . S
O248 Co238 2.021 . S
O248 C245 1.238 . S
O249 Co243 2.052 . S
O249 C245 1.241 . S
O250 Co238 2.137 . S
O250 C241 1.247 . S
O251 Co238 2.244 . S
O251 C241 1.272 . S
O251 Co243 2.135 . S
H252 C264 0.930 . S
H253 C266 0.930 . S
H254 C267 0.930 . S
H255 C271 0.959 . S
H256 C271 0.959 . S
H257 C271 0.961 . S
H258 C272 0.960 . S
H259 C272 0.961 . S
H260 C272 0.959 . S
H261 C275 0.929 . S
H262 C276 0.931 . S
H263 C278 0.930 . S
C264 H252 0.930 . S
C264 C265 1.399 . S
C264 C269 1.399 . S
C265 C264 1.399 . S
C265 C266 1.376 . S
C266 H253 0.930 . S
C266 C265 1.376 . S
C266 C267 1.388 . S
C267 H254 0.930 . S
C267 C266 1.388 . S
C267 C268 1.390 . S
C268 C267 1.390 . S
C268 C269 1.394 . S
C268 C274 1.465 . S
C269 C264 1.399 . S
C269 C268 1.394 . S
C269 C270 1.516 . S
C270 C269 1.516 . S
C270 C271 1.502 . S
C270 C272 1.561 . S
C270 C273 1.526 . S
C271 H255 0.959 . S
C271 H256 0.959 . S
C271 H257 0.961 . S
C271 C270 1.502 . S
C272 H258 0.960 . S
C272 H259 0.961 . S
C272 H260 0.959 . S
C272 C270 1.561 . S
C273 C270 1.526 . S
C273 C274 1.396 . S
C273 C278 1.390 . S
C274 C268 1.465 . S
C274 C273 1.396 . S
C274 C275 1.399 . S
C275 H261 0.929 . S
C275 C274 1.399 . S
C275 C276 1.385 . S
C276 H262 0.931 . S
C276 C275 1.385 . S
C276 C277 1.389 . S
C277 C276 1.389 . S
C277 C278 1.387 . S
C278 H263 0.930 . S
C278 C273 1.390 . S
C278 C277 1.387 . S
H279 C291 0.930 . S
H280 C293 0.930 . S
H281 C294 0.930 . S
H282 C298 0.959 . S
H283 C298 0.959 . S
H284 C298 0.961 . S
H285 C299 0.960 . S
H286 C299 0.961 . S
H287 C299 0.959 . S
H288 C302 0.929 . S
H289 C303 0.931 . S
H290 C305 0.930 . S
C291 H279 0.930 . S
C291 C292 1.399 . S
C291 C296 1.399 . S
C292 C291 1.399 . S
C292 C293 1.376 . S
C293 H280 0.930 . S
C293 C292 1.376 . S
C293 C294 1.388 . S
C294 H281 0.930 . S
C294 C293 1.388 . S
C294 C295 1.390 . S
C295 C294 1.390 . S
C295 C296 1.394 . S
C295 C301 1.465 . S
C296 C291 1.399 . S
C296 C295 1.394 . S
C296 C297 1.516 . S
C297 C296 1.516 . S
C297 C298 1.502 . S
C297 C299 1.561 . S
C297 C300 1.526 . S
C298 H282 0.959 . S
C298 H283 0.959 . S
C298 H284 0.961 . S
C298 C297 1.502 . S
C299 H285 0.960 . S
C299 H286 0.961 . S
C299 H287 0.959 . S
C299 C297 1.561 . S
C300 C297 1.526 . S
C300 C301 1.396 . S
C300 C305 1.390 . S
C301 C295 1.465 . S
C301 C300 1.396 . S
C301 C302 1.399 . S
C302 H288 0.929 . S
C302 C301 1.399 . S
C302 C303 1.385 . S
C303 H289 0.931 . S
C303 C302 1.385 . S
C303 C304 1.389 . S
C304 C303 1.389 . S
C304 C305 1.387 . S
C305 H290 0.930 . S
C305 C300 1.390 . S
C305 C304 1.387 . S
H306 C318 0.930 . S
H307 C320 0.930 . S
H308 C321 0.930 . S
H309 C325 0.959 . S
H310 C325 0.959 . S
H311 C325 0.961 . S
H312 C326 0.960 . S
H313 C326 0.961 . S
H314 C326 0.959 . S
H315 C329 0.929 . S
H316 C330 0.931 . S
H317 C332 0.930 . S
C318 H306 0.930 . S
C318 C319 1.399 . S
C318 C323 1.399 . S
C319 C318 1.399 . S
C319 C320 1.376 . S
C320 H307 0.930 . S
C320 C319 1.376 . S
C320 C321 1.388 . S
C321 H308 0.930 . S
C321 C320 1.388 . S
C321 C322 1.390 . S
C322 C321 1.390 . S
C322 C323 1.394 . S
C322 C328 1.465 . S
C323 C318 1.399 . S
C323 C322 1.394 . S
C323 C324 1.516 . S
C324 C323 1.516 . S
C324 C325 1.502 . S
C324 C326 1.561 . S
C324 C327 1.526 . S
C325 H309 0.959 . S
C325 H310 0.959 . S
C325 H311 0.961 . S
C325 C324 1.502 . S
C326 H312 0.960 . S
C326 H313 0.961 . S
C326 H314 0.959 . S
C326 C324 1.561 . S
C327 C324 1.526 . S
C327 C328 1.396 . S
C327 C332 1.390 . S
C328 C322 1.465 . S
C328 C327 1.396 . S
C328 C329 1.399 . S
C329 H315 0.929 . S
C329 C328 1.399 . S
C329 C330 1.385 . S
C330 H316 0.931 . S
C330 C329 1.385 . S
C330 C331 1.389 . S
C331 C330 1.389 . S
C331 C332 1.387 . S
C332 H317 0.930 . S
C332 C327 1.390 . S
C332 C331 1.387 . S
H333 C345 0.930 . S
H334 C347 0.930 . S
H335 C348 0.930 . S
H336 C352 0.959 . S
H337 C352 0.959 . S
H338 C352 0.961 . S
H339 C353 0.960 . S
H340 C353 0.961 . S
H341 C353 0.959 . S
H342 C356 0.929 . S
H343 C357 0.931 . S
H344 C359 0.930 . S
C345 H333 0.930 . S
C345 C346 1.399 . S
C345 C350 1.399 . S
C346 C345 1.399 . S
C346 C347 1.376 . S
C347 H334 0.930 . S
C347 C346 1.376 . S
C347 C348 1.388 . S
C348 H335 0.930 . S
C348 C347 1.388 . S
C348 C349 1.390 . S
C349 C348 1.390 . S
C349 C350 1.394 . S
C349 C355 1.465 . S
C350 C345 1.399 . S
C350 C349 1.394 . S
C350 C351 1.516 . S
C351 C350 1.516 . S
C351 C352 1.502 . S
C351 C353 1.561 . S
C351 C354 1.526 . S
C352 H336 0.959 . S
C352 H337 0.959 . S
C352 H338 0.961 . S
C352 C351 1.502 . S
C353 H339 0.960 . S
C353 H340 0.961 . S
C353 H341 0.959 . S
C353 C351 1.561 . S
C354 C351 1.526 . S
C354 C355 1.396 . S
C354 C359 1.390 . S
C355 C349 1.465 . S
C355 C354 1.396 . S
C355 C356 1.399 . S
C356 H342 0.929 . S
C356 C355 1.399 . S
C356 C357 1.385 . S
C357 H343 0.931 . S
C357 C356 1.385 . S
C357 C358 1.389 . S
C358 C357 1.389 . S
C358 C359 1.387 . S
C359 H344 0.930 . S
C359 C354 1.390 . S
C359 C358 1.387 . S
H360 C372 0.930 . S
H361 C374 0.930 . S
H362 C375 0.930 . S
H363 C379 0.959 . S
H364 C379 0.959 . S
H365 C379 0.961 . S
H366 C380 0.960 . S
H367 C380 0.961 . S
H368 C380 0.959 . S
H369 C383 0.929 . S
H370 C384 0.931 . S
H371 C386 0.930 . S
C372 H360 0.930 . S
C372 C373 1.399 . S
C372 C377 1.399 . S
C373 C372 1.399 . S
C373 C374 1.376 . S
C374 H361 0.930 . S
C374 C373 1.376 . S
C374 C375 1.388 . S
C375 H362 0.930 . S
C375 C374 1.388 . S
C375 C376 1.390 . S
C376 C375 1.390 . S
C376 C377 1.394 . S
C376 C382 1.465 . S
C377 C372 1.399 . S
C377 C376 1.394 . S
C377 C378 1.516 . S
C378 C377 1.516 . S
C378 C379 1.502 . S
C378 C380 1.561 . S
C378 C381 1.526 . S
C379 H363 0.959 . S
C379 H364 0.959 . S
C379 H365 0.961 . S
C379 C378 1.502 . S
C380 H366 0.960 . S
C380 H367 0.961 . S
C380 H368 0.959 . S
C380 C378 1.561 . S
C381 C378 1.526 . S
C381 C382 1.396 . S
C381 C386 1.390 . S
C382 C376 1.465 . S
C382 C381 1.396 . S
C382 C383 1.399 . S
C383 H369 0.929 . S
C383 C382 1.399 . S
C383 C384 1.385 . S
C384 H370 0.931 . S
C384 C383 1.385 . S
C384 C385 1.389 . S
C385 C384 1.389 . S
C385 C386 1.387 . S
C386 H371 0.930 . S
C386 C381 1.390 . S
C386 C385 1.387 . S
H387 C399 0.930 . S
H388 C401 0.930 . S
H389 C402 0.930 . S
H390 C406 0.959 . S
H391 C406 0.959 . S
H392 C406 0.961 . S
H393 C407 0.960 . S
H394 C407 0.961 . S
H395 C407 0.959 . S
H396 C410 0.929 . S
H397 C411 0.931 . S
H398 C413 0.930 . S
C399 H387 0.930 . S
C399 C400 1.399 . S
C399 C404 1.399 . S
C400 C399 1.399 . S
C400 C401 1.376 . S
C401 H388 0.930 . S
C401 C400 1.376 . S
C401 C402 1.388 . S
C402 H389 0.930 . S
C402 C401 1.388 . S
C402 C403 1.390 . S
C403 C402 1.390 . S
C403 C404 1.394 . S
C403 C409 1.465 . S
C404 C399 1.399 . S
C404 C403 1.394 . S
C404 C405 1.516 . S
C405 C404 1.516 . S
C405 C406 1.502 . S
C405 C407 1.561 . S
C405 C408 1.526 . S
C406 H390 0.959 . S
C406 H391 0.959 . S
C406 H392 0.961 . S
C406 C405 1.502 . S
C407 H393 0.960 . S
C407 H394 0.961 . S
C407 H395 0.959 . S
C407 C405 1.561 . S
C408 C405 1.526 . S
C408 C409 1.396 . S
C408 C413 1.390 . S
C409 C403 1.465 . S
C409 C408 1.396 . S
C409 C410 1.399 . S
C410 H396 0.929 . S
C410 C409 1.399 . S
C410 C411 1.385 . S
C411 H397 0.931 . S
C411 C410 1.385 . S
C411 C412 1.389 . S
C412 C411 1.389 . S
C412 C413 1.387 . S
C413 H398 0.930 . S
C413 C408 1.390 . S
C413 C412 1.387 . S
H414 C426 0.930 . S
H415 C428 0.930 . S
H416 C429 0.930 . S
H417 C433 0.959 . S
H418 C433 0.959 1_556 S
H419 C433 0.961 . S
H420 C434 0.960 1_554 S
H421 C434 0.961 . S
H422 C434 0.959 . S
H423 C437 0.929 . S
H424 C438 0.931 . S
H425 C440 0.930 . S
C426 H414 0.930 . S
C426 C427 1.399 . S
C426 C431 1.399 . S
C427 C426 1.399 . S
C427 C428 1.376 . S
C428 H415 0.930 . S
C428 C427 1.376 . S
C428 C429 1.388 . S
C429 H416 0.930 . S
C429 C428 1.388 . S
C429 C430 1.390 . S
C430 C429 1.390 . S
C430 C431 1.394 . S
C430 C436 1.465 1_654 S
C431 C426 1.399 . S
C431 C430 1.394 . S
C431 C432 1.530 1_554 S
C432 C431 1.530 1_556 S
C432 C433 1.480 1_656 S
C432 C434 1.571 . S
C432 C435 1.527 1_655 S
C433 H417 0.959 . S
C433 H418 0.959 1_554 S
C433 H419 0.961 . S
C433 C432 1.480 1_454 S
C434 H420 0.960 1_556 S
C434 H421 0.961 . S
C434 H422 0.959 . S
C434 C432 1.571 . S
C435 C432 1.527 1_455 S
C435 C436 1.396 . S
C435 C440 1.390 . S
C436 C430 1.465 1_456 S
C436 C435 1.396 . S
C436 C437 1.399 . S
C437 H423 0.929 . S
C437 C436 1.399 . S
C437 C438 1.385 . S
C438 H424 0.931 . S
C438 C437 1.385 . S
C438 C439 1.389 . S
C439 C438 1.389 . S
C439 C440 1.387 . S
C440 H425 0.930 . S
C440 C435 1.390 . S
C440 C439 1.387 . S
H441 C453 0.930 . S
H442 C455 0.930 . S
H443 C456 0.930 . S
H444 C460 0.959 . S
H445 C460 0.959 . S
H446 C460 0.961 . S
H447 C461 0.960 1_554 S
H448 C461 0.961 . S
H449 C461 0.959 . S
H450 C464 0.929 . S
H451 C465 0.931 . S
H452 C467 0.930 . S
C453 H441 0.930 . S
C453 C454 1.399 . S
C453 C458 1.399 . S
C454 C453 1.399 . S
C454 C455 1.376 . S
C455 H442 0.930 . S
C455 C454 1.376 . S
C455 C456 1.388 . S
C456 H443 0.930 . S
C456 C455 1.388 . S
C456 C457 1.390 . S
C457 C456 1.390 . S
C457 C458 1.394 . S
C457 C463 1.465 1_554 S
C458 C453 1.399 . S
C458 C457 1.394 . S
C458 C459 1.516 . S
C459 C458 1.516 . S
C459 C460 1.502 . S
C459 C461 1.561 1_554 S
C459 C462 1.526 1_554 S
C460 H444 0.959 . S
C460 H445 0.959 . S
C460 H446 0.961 . S
C460 C459 1.502 . S
C461 H447 0.960 1_556 S
C461 H448 0.961 . S
C461 H449 0.959 . S
C461 C459 1.561 1_556 S
C462 C459 1.526 1_556 S
C462 C463 1.396 . S
C462 C467 1.390 . S
C463 C457 1.465 1_556 S
C463 C462 1.396 . S
C463 C464 1.399 . S
C464 H450 0.929 . S
C464 C463 1.399 . S
C464 C465 1.385 . S
C465 H451 0.931 . S
C465 C464 1.385 . S
C465 C466 1.389 . S
C466 C465 1.389 . S
C466 C467 1.387 . S
C467 H452 0.930 . S
C467 C462 1.390 . S
C467 C466 1.387 . S
H468 C480 0.930 . S
H469 C482 0.930 . S
H470 C483 0.930 . S
H471 C487 0.959 . S
H472 C487 0.959 . S
H473 C487 0.962 1_554 S
H474 C488 0.960 . S
H475 C488 0.961 . S
H476 C488 0.959 . S
H477 C491 0.929 . S
H478 C492 0.931 . S
H479 C494 0.930 1_545 S
C480 H468 0.930 . S
C480 C481 1.399 . S
C480 C485 1.399 . S
C481 C480 1.399 . S
C481 C482 1.376 . S
C482 H469 0.930 . S
C482 C481 1.376 . S
C482 C483 1.388 1_545 S
C483 H470 0.930 . S
C483 C482 1.388 1_565 S
C483 C484 1.390 . S
C484 C483 1.390 . S
C484 C485 1.393 1_565 S
C484 C490 1.465 1_554 S
C485 C480 1.399 . S
C485 C484 1.393 1_545 S
C485 C486 1.516 1_554 S
C486 C485 1.516 1_556 S
C486 C487 1.502 . S
C486 C488 1.561 . S
C486 C489 1.526 . S
C487 H471 0.959 . S
C487 H472 0.959 . S
C487 H473 0.962 1_556 S
C487 C486 1.502 . S
C488 H474 0.960 . S
C488 H475 0.961 . S
C488 H476 0.959 . S
C488 C486 1.561 . S
C489 C486 1.526 . S
C489 C490 1.396 1_545 S
C489 C494 1.390 1_545 S
C490 C484 1.465 1_556 S
C490 C489 1.396 1_565 S
C490 C491 1.399 . S
C491 H477 0.929 . S
C491 C490 1.399 . S
C491 C492 1.385 . S
C492 H478 0.931 . S
C492 C491 1.385 . S
C492 C493 1.389 . S
C493 C492 1.389 . S
C493 C494 1.387 . S
C494 H479 0.930 1_565 S
C494 C489 1.390 1_565 S
C494 C493 1.387 . S
H495 C507 0.930 . S
H496 C509 0.930 . S
H497 C510 0.930 . S
H498 C514 0.959 . S
H499 C514 0.959 . S
H500 C514 0.961 . S
H501 C515 0.960 . S
H502 C515 0.961 . S
H503 C515 0.959 . S
H504 C518 0.929 . S
H505 C519 0.931 . S
H506 C521 0.930 . S
C507 H495 0.930 . S
C507 C508 1.399 . S
C507 C512 1.399 . S
C508 C507 1.399 . S
C508 C509 1.376 . S
C509 H496 0.930 . S
C509 C508 1.376 . S
C509 C510 1.388 . S
C510 H497 0.930 . S
C510 C509 1.388 . S
C510 C511 1.390 . S
C511 C510 1.390 . S
C511 C512 1.394 . S
C511 C517 1.465 . S
C512 C507 1.399 . S
C512 C511 1.394 . S
C512 C513 1.516 . S
C513 C512 1.516 . S
C513 C514 1.502 . S
C513 C515 1.561 . S
C513 C516 1.526 . S
C514 H498 0.959 . S
C514 H499 0.959 . S
C514 H500 0.961 . S
C514 C513 1.502 . S
C515 H501 0.960 . S
C515 H502 0.961 . S
C515 H503 0.959 . S
C515 C513 1.561 . S
C516 C513 1.526 . S
C516 C517 1.396 . S
C516 C521 1.390 . S
C517 C511 1.465 . S
C517 C516 1.396 . S
C517 C518 1.399 . S
C518 H504 0.929 . S
C518 C517 1.399 . S
C518 C519 1.385 . S
C519 H505 0.931 . S
C519 C518 1.385 . S
C519 C520 1.389 . S
C520 C519 1.389 . S
C520 C521 1.387 . S
C521 H506 0.930 . S
C521 C516 1.390 . S
C521 C520 1.387 . S
H522 C534 0.930 . S
H523 C536 0.930 . S
H524 C537 0.930 . S
H525 C541 0.959 . S
H526 C541 0.959 . S
H527 C541 0.961 . S
H528 C542 0.960 . S
H529 C542 0.961 . S
H530 C542 0.959 . S
H531 C545 0.929 . S
H532 C546 0.931 . S
H533 C548 0.930 . S
C534 H522 0.930 . S
C534 C535 1.399 . S
C534 C539 1.399 . S
C535 C534 1.399 . S
C535 C536 1.376 . S
C536 H523 0.930 . S
C536 C535 1.376 . S
C536 C537 1.388 . S
C537 H524 0.930 . S
C537 C536 1.388 . S
C537 C538 1.390 . S
C538 C537 1.390 . S
C538 C539 1.394 . S
C538 C544 1.465 . S
C539 C534 1.399 . S
C539 C538 1.394 . S
C539 C540 1.516 . S
C540 C539 1.516 . S
C540 C541 1.502 . S
C540 C542 1.561 . S
C540 C543 1.526 . S
C541 H525 0.959 . S
C541 H526 0.959 . S
C541 H527 0.961 . S
C541 C540 1.502 . S
C542 H528 0.960 . S
C542 H529 0.961 . S
C542 H530 0.959 . S
C542 C540 1.561 . S
C543 C540 1.526 . S
C543 C544 1.396 . S
C543 C548 1.390 . S
C544 C538 1.465 . S
C544 C543 1.396 . S
C544 C545 1.399 . S
C545 H531 0.929 . S
C545 C544 1.399 . S
C545 C546 1.385 . S
C546 H532 0.931 . S
C546 C545 1.385 . S
C546 C547 1.389 . S
C547 C546 1.389 . S
C547 C548 1.387 . S
C548 H533 0.930 . S
C548 C543 1.390 . S
C548 C547 1.387 . S
H549 C561 0.930 . S
H550 C563 0.930 . S
H551 C564 0.930 . S
H552 C568 0.959 . S
H553 C568 0.959 . S
H554 C568 0.961 . S
H555 C569 0.960 . S
H556 C569 0.961 . S
H557 C569 0.959 . S
H558 C572 0.929 . S
H559 C573 0.931 . S
H560 C575 0.930 . S
C561 H549 0.930 . S
C561 C562 1.399 . S
C561 C566 1.399 . S
C562 C561 1.399 . S
C562 C563 1.376 . S
C563 H550 0.930 . S
C563 C562 1.376 . S
C563 C564 1.388 . S
C564 H551 0.930 . S
C564 C563 1.388 . S
C564 C565 1.390 . S
C565 C564 1.390 . S
C565 C566 1.394 . S
C565 C571 1.465 . S
C566 C561 1.399 . S
C566 C565 1.394 . S
C566 C567 1.516 . S
C567 C566 1.516 . S
C567 C568 1.502 . S
C567 C569 1.561 . S
C567 C570 1.526 . S
C568 H552 0.959 . S
C568 H553 0.959 . S
C568 H554 0.961 . S
C568 C567 1.502 . S
C569 H555 0.960 . S
C569 H556 0.961 . S
C569 H557 0.959 . S
C569 C567 1.561 . S
C570 C567 1.526 . S
C570 C571 1.396 . S
C570 C575 1.390 . S
C571 C565 1.465 . S
C571 C570 1.396 . S
C571 C572 1.399 . S
C572 H558 0.929 . S
C572 C571 1.399 . S
C572 C573 1.385 . S
C573 H559 0.931 . S
C573 C572 1.385 . S
C573 C574 1.389 . S
C574 C573 1.389 . S
C574 C575 1.387 . S
C575 H560 0.930 . S
C575 C570 1.390 . S
C575 C574 1.387 . S
H576 C588 0.930 . S
H577 C590 0.930 . S
H578 C591 0.930 . S
H579 C595 0.959 . S
H580 C595 0.959 . S
H581 C595 0.961 . S
H582 C596 0.960 . S
H583 C596 0.961 . S
H584 C596 0.959 . S
H585 C599 0.929 . S
H586 C600 0.931 . S
H587 C602 0.930 . S
C588 H576 0.930 . S
C588 C589 1.399 . S
C588 C593 1.399 . S
C589 C588 1.399 . S
C589 C590 1.376 . S
C590 H577 0.930 . S
C590 C589 1.376 . S
C590 C591 1.388 . S
C591 H578 0.930 . S
C591 C590 1.388 . S
C591 C592 1.390 . S
C592 C591 1.390 . S
C592 C593 1.394 . S
C592 C598 1.465 . S
C593 C588 1.399 . S
C593 C592 1.394 . S
C593 C594 1.516 . S
C594 C593 1.516 . S
C594 C595 1.502 . S
C594 C596 1.561 . S
C594 C597 1.526 . S
C595 H579 0.959 . S
C595 H580 0.959 . S
C595 H581 0.961 . S
C595 C594 1.502 . S
C596 H582 0.960 . S
C596 H583 0.961 . S
C596 H584 0.959 . S
C596 C594 1.561 . S
C597 C594 1.526 . S
C597 C598 1.396 . S
C597 C602 1.390 . S
C598 C592 1.465 . S
C598 C597 1.396 . S
C598 C599 1.399 . S
C599 H585 0.929 . S
C599 C598 1.399 . S
C599 C600 1.385 . S
C600 H586 0.931 . S
C600 C599 1.385 . S
C600 C601 1.389 . S
C601 C600 1.389 . S
C601 C602 1.387 . S
C602 H587 0.930 . S
C602 C597 1.390 . S
C602 C601 1.387 . S
H603 C615 0.930 . S
H604 C617 0.930 . S
H605 C618 0.930 . S
H606 C622 0.959 . S
H607 C622 0.959 . S
H608 C622 0.961 . S
H609 C623 0.960 . S
H610 C623 0.961 . S
H611 C623 0.959 . S
H612 C626 0.929 . S
H613 C627 0.931 . S
H614 C629 0.930 . S
C615 H603 0.930 . S
C615 C616 1.399 . S
C615 C620 1.399 . S
C616 C615 1.399 . S
C616 C617 1.376 . S
C617 H604 0.930 . S
C617 C616 1.376 . S
C617 C618 1.388 . S
C618 H605 0.930 . S
C618 C617 1.388 . S
C618 C619 1.390 . S
C619 C618 1.390 . S
C619 C620 1.394 . S
C619 C625 1.465 . S
C620 C615 1.399 . S
C620 C619 1.394 . S
C620 C621 1.516 . S
C621 C620 1.516 . S
C621 C622 1.502 . S
C621 C623 1.561 . S
C621 C624 1.526 . S
C622 H606 0.959 . S
C622 H607 0.959 . S
C622 H608 0.961 . S
C622 C621 1.502 . S
C623 H609 0.960 . S
C623 H610 0.961 . S
C623 H611 0.959 . S
C623 C621 1.561 . S
C624 C621 1.526 . S
C624 C625 1.396 . S
C624 C629 1.390 . S
C625 C619 1.465 . S
C625 C624 1.396 . S
C625 C626 1.399 . S
C626 H612 0.929 . S
C626 C625 1.399 . S
C626 C627 1.385 . S
C627 H613 0.931 . S
C627 C626 1.385 . S
C627 C628 1.389 . S
C628 C627 1.389 . S
C628 C629 1.387 . S
C629 H614 0.930 . S
C629 C624 1.390 . S
C629 C628 1.387 . S
H630 C642 0.930 . S
H631 C644 0.930 . S
H632 C645 0.930 . S
H633 C649 0.959 . S
H634 C649 0.959 . S
H635 C649 0.961 . S
H636 C650 0.960 . S
H637 C650 0.961 . S
H638 C650 0.959 . S
H639 C653 0.929 . S
H640 C654 0.931 . S
H641 C656 0.930 . S
C642 H630 0.930 . S
C642 C643 1.399 . S
C642 C647 1.399 . S
C643 C642 1.399 . S
C643 C644 1.376 . S
C644 H631 0.930 . S
C644 C643 1.376 . S
C644 C645 1.388 . S
C645 H632 0.930 . S
C645 C644 1.388 . S
C645 C646 1.390 . S
C646 C645 1.390 . S
C646 C647 1.394 . S
C646 C652 1.465 . S
C647 C642 1.399 . S
C647 C646 1.394 . S
C647 C648 1.516 . S
C648 C647 1.516 . S
C648 C649 1.502 . S
C648 C650 1.561 . S
C648 C651 1.526 . S
C649 H633 0.959 . S
C649 H634 0.959 . S
C649 H635 0.961 . S
C649 C648 1.502 . S
C650 H636 0.960 . S
C650 H637 0.961 . S
C650 H638 0.959 . S
C650 C648 1.561 . S
C651 C648 1.526 . S
C651 C652 1.396 . S
C651 C656 1.390 . S
C652 C646 1.465 . S
C652 C651 1.396 . S
C652 C653 1.399 . S
C653 H639 0.929 . S
C653 C652 1.399 . S
C653 C654 1.385 . S
C654 H640 0.931 . S
C654 C653 1.385 . S
C654 C655 1.389 . S
C655 C654 1.389 . S
C655 C656 1.387 . S
C656 H641 0.930 . S
C656 C651 1.390 . S
C656 C655 1.387 . S
H657 C669 0.930 1_455 S
H658 C671 0.930 . S
H659 C672 0.930 . S
H660 C676 0.959 . S
H661 C676 0.959 . S
H662 C676 0.961 . S
H663 C677 0.960 . S
H664 C677 0.961 . S
H665 C677 0.959 . S
H666 C680 0.929 . S
H667 C681 0.944 . S
H668 C683 0.930 . S
C669 H657 0.930 1_655 S
C669 C670 1.399 . S
C669 C674 1.399 1_655 S
C670 C669 1.399 . S
C670 C671 1.376 . S
C671 H658 0.930 . S
C671 C670 1.376 . S
C671 C672 1.388 . S
C672 H659 0.930 . S
C672 C671 1.388 . S
C672 C673 1.390 . S
C673 C672 1.390 . S
C673 C674 1.394 1_655 S
C673 C679 1.465 . S
C674 C669 1.399 1_455 S
C674 C673 1.394 1_455 S
C674 C675 1.516 . S
C675 C674 1.516 . S
C675 C676 1.502 . S
C675 C677 1.561 . S
C675 C678 1.526 . S
C676 H660 0.959 . S
C676 H661 0.959 . S
C676 H662 0.961 . S
C676 C675 1.502 . S
C677 H663 0.960 . S
C677 H664 0.961 . S
C677 H665 0.959 . S
C677 C675 1.561 . S
C678 C675 1.526 . S
C678 C679 1.396 1_455 S
C678 C683 1.390 . S
C679 C673 1.465 . S
C679 C678 1.396 1_655 S
C679 C680 1.399 . S
C680 H666 0.929 . S
C680 C679 1.399 . S
C680 C681 1.410 . S
C681 H667 0.944 . S
C681 C680 1.410 . S
C681 C682 1.353 1_655 S
C682 C681 1.353 1_455 S
C682 C683 1.387 . S
C683 H668 0.930 . S
C683 C678 1.390 . S
C683 C682 1.387 . S
H684 C696 0.930 . S
H685 C698 0.930 . S
H686 C699 0.930 . S
H687 C703 0.959 . S
H688 C703 0.959 . S
H689 C703 0.961 . S
H690 C704 0.960 . S
H691 C704 0.961 . S
H692 C704 0.959 . S
H693 C707 0.929 . S
H694 C708 0.931 . S
H695 C710 0.930 . S
C696 H684 0.930 . S
C696 C697 1.399 . S
C696 C701 1.399 . S
C697 C696 1.399 . S
C697 C698 1.376 . S
C698 H685 0.930 . S
C698 C697 1.376 . S
C698 C699 1.388 . S
C699 H686 0.930 . S
C699 C698 1.388 . S
C699 C700 1.390 . S
C700 C699 1.390 . S
C700 C701 1.394 . S
C700 C706 1.465 . S
C701 C696 1.399 . S
C701 C700 1.394 . S
C701 C702 1.516 . S
C702 C701 1.516 . S
C702 C703 1.502 . S
C702 C704 1.561 . S
C702 C705 1.526 . S
C703 H687 0.959 . S
C703 H688 0.959 . S
C703 H689 0.961 . S
C703 C702 1.502 . S
C704 H690 0.960 . S
C704 H691 0.961 . S
C704 H692 0.959 . S
C704 C702 1.561 . S
C705 C702 1.526 . S
C705 C706 1.396 . S
C705 C710 1.390 . S
C706 C700 1.465 . S
C706 C705 1.396 . S
C706 C707 1.399 . S
C707 H693 0.929 . S
C707 C706 1.399 . S
C707 C708 1.385 . S
C708 H694 0.931 . S
C708 C707 1.385 . S
C708 C709 1.389 . S
C709 C708 1.389 . S
C709 C710 1.387 . S
C710 H695 0.930 . S
C710 C705 1.390 . S
C710 C709 1.387 . S
H711 C723 0.930 . S
H712 C725 0.930 . S
H713 C726 0.930 1_545 S
H714 C730 0.959 1_545 S
H715 C730 0.959 . S
H716 C730 0.961 . S
H717 C731 0.960 . S
H718 C731 0.961 . S
H719 C731 0.959 . S
H720 C734 0.929 . S
H721 C735 0.931 . S
H722 C737 0.930 . S
C723 H711 0.930 . S
C723 C724 1.399 . S
C723 C728 1.399 . S
C724 C723 1.399 . S
C724 C725 1.376 . S
C725 H712 0.930 . S
C725 C724 1.376 . S
C725 C726 1.388 . S
C726 H713 0.930 1_565 S
C726 C725 1.388 . S
C726 C727 1.390 . S
C727 C726 1.390 . S
C727 C728 1.394 . S
C727 C733 1.465 1_565 S
C728 C723 1.399 . S
C728 C727 1.394 . S
C728 C729 1.516 . S
C729 C728 1.516 . S
C729 C730 1.502 . S
C729 C731 1.561 . S
C729 C732 1.526 1_565 S
C730 H714 0.959 1_565 S
C730 H715 0.959 . S
C730 H716 0.961 . S
C730 C729 1.502 . S
C731 H717 0.960 . S
C731 H718 0.961 . S
C731 H719 0.959 . S
C731 C729 1.561 . S
C732 C729 1.526 1_545 S
C732 C733 1.396 . S
C732 C737 1.390 . S
C733 C727 1.465 1_545 S
C733 C732 1.396 . S
C733 C734 1.399 . S
C734 H720 0.929 . S
C734 C733 1.399 . S
C734 C735 1.385 . S
C735 H721 0.931 . S
C735 C734 1.385 . S
C735 C736 1.389 . S
C736 C735 1.389 . S
C736 C737 1.387 . S
C737 H722 0.930 . S
C737 C732 1.390 . S
C737 C736 1.387 . S
H738 C750 0.920 1_556 S
H739 C752 0.930 . S
H740 C753 0.930 . S
H741 C757 0.959 . S
H742 C757 0.959 . S
H743 C757 0.961 . S
H744 C758 0.960 . S
H745 C758 0.961 . S
H746 C758 0.959 . S
H747 C761 0.929 . S
H748 C762 0.931 . S
H749 C764 0.930 . S
C750 H738 0.920 1_554 S
C750 C751 1.413 . S
C750 C755 1.396 1_554 S
C751 C750 1.413 . S
C751 C752 1.376 . S
C752 H739 0.930 . S
C752 C751 1.376 . S
C752 C753 1.388 . S
C753 H740 0.930 . S
C753 C752 1.388 . S
C753 C754 1.390 . S
C754 C753 1.390 . S
C754 C755 1.394 1_554 S
C754 C760 1.465 . S
C755 C750 1.396 1_556 S
C755 C754 1.394 1_556 S
C755 C756 1.516 . S
C756 C755 1.516 . S
C756 C757 1.502 . S
C756 C758 1.561 . S
C756 C759 1.526 . S
C757 H741 0.959 . S
C757 H742 0.959 . S
C757 H743 0.961 . S
C757 C756 1.502 . S
C758 H744 0.960 . S
C758 H745 0.961 . S
C758 H746 0.959 . S
C758 C756 1.561 . S
C759 C756 1.526 . S
C759 C760 1.396 1_556 S
C759 C764 1.390 . S
C760 C754 1.465 . S
C760 C759 1.396 1_554 S
C760 C761 1.399 . S
C761 H747 0.929 . S
C761 C760 1.399 . S
C761 C762 1.385 . S
C762 H748 0.931 . S
C762 C761 1.385 . S
C762 C763 1.389 1_554 S
C763 C762 1.389 1_556 S
C763 C764 1.387 . S
C764 H749 0.930 . S
C764 C759 1.390 . S
C764 C763 1.387 . S
H765 C777 0.930 . S
H766 C779 0.930 . S
H767 C780 0.930 . S
H768 C784 0.959 . S
H769 C784 0.959 . S
H770 C784 0.961 . S
H771 C785 0.960 . S
H772 C785 0.961 . S
H773 C785 0.959 . S
H774 C788 0.929 . S
H775 C789 0.931 . S
H776 C791 0.930 . S
C777 H765 0.930 . S
C777 C778 1.399 1_554 S
C777 C782 1.399 . S
C778 C777 1.399 1_556 S
C778 C779 1.376 . S
C779 H766 0.930 . S
C779 C778 1.376 . S
C779 C780 1.388 . S
C780 H767 0.930 . S
C780 C779 1.388 . S
C780 C781 1.390 . S
C781 C780 1.390 . S
C781 C782 1.394 1_556 S
C781 C787 1.465 1_545 S
C782 C777 1.399 . S
C782 C781 1.394 1_554 S
C782 C783 1.516 . S
C783 C782 1.516 . S
C783 C784 1.502 . S
C783 C785 1.561 . S
C783 C786 1.526 1_545 S
C784 H768 0.959 . S
C784 H769 0.959 . S
C784 H770 0.961 . S
C784 C783 1.502 . S
C785 H771 0.960 . S
C785 H772 0.961 . S
C785 H773 0.959 . S
C785 C783 1.561 . S
C786 C783 1.526 1_565 S
C786 C787 1.396 1_554 S
C786 C791 1.390 . S
C787 C781 1.465 1_565 S
C787 C786 1.396 1_556 S
C787 C788 1.399 . S
C788 H774 0.929 . S
C788 C787 1.399 . S
C788 C789 1.385 . S
C789 H775 0.931 . S
C789 C788 1.385 . S
C789 C790 1.389 1_556 S
C790 C789 1.389 1_554 S
C790 C791 1.387 . S
C791 H776 0.930 . S
C791 C786 1.390 . S
C791 C790 1.387 . S
H792 C804 0.930 . S
H793 C806 0.930 . S
H794 C807 0.930 . S
H795 C811 0.959 . S
H796 C811 0.959 . S
H797 C811 0.961 . S
H798 C812 0.960 . S
H799 C812 0.961 1_455 S
H800 C812 0.974 . S
H801 C815 0.929 . S
H802 C816 0.931 . S
H803 C818 0.930 . S
C804 H792 0.930 . S
C804 C805 1.399 1_554 S
C804 C809 1.399 . S
C805 C804 1.399 1_556 S
C805 C806 1.376 . S
C806 H793 0.930 . S
C806 C805 1.376 . S
C806 C807 1.388 . S
C807 H794 0.930 . S
C807 C806 1.388 . S
C807 C808 1.390 . S
C808 C807 1.390 . S
C808 C809 1.394 1_556 S
C808 C814 1.465 1_655 S
C809 C804 1.399 . S
C809 C808 1.394 1_554 S
C809 C810 1.516 . S
C810 C809 1.516 . S
C810 C811 1.502 . S
C810 C812 1.561 . S
C810 C813 1.526 1_655 S
C811 H795 0.959 . S
C811 H796 0.959 . S
C811 H797 0.961 . S
C811 C810 1.502 . S
C812 H798 0.960 . S
C812 H799 0.961 1_655 S
C812 H800 0.974 . S
C812 C810 1.561 . S
C813 C810 1.526 1_455 S
C813 C814 1.396 1_554 S
C813 C818 1.390 . S
C814 C808 1.465 1_455 S
C814 C813 1.396 1_556 S
C814 C815 1.399 . S
C815 H801 0.929 . S
C815 C814 1.399 . S
C815 C816 1.385 . S
C816 H802 0.931 . S
C816 C815 1.385 . S
C816 C817 1.389 1_556 S
C817 C816 1.389 1_554 S
C817 C818 1.387 . S
C818 H803 0.930 . S
C818 C813 1.390 . S
C818 C817 1.387 . S
H819 C831 0.930 . S
H820 C833 0.930 . S
H821 C834 0.930 . S
H822 C838 0.959 1_556 S
H823 C838 0.959 . S
H824 C838 0.961 . S
H825 C839 0.960 . S
H826 C839 0.961 . S
H827 C839 0.959 . S
H828 C842 0.929 . S
H829 C843 0.931 . S
H830 C845 0.930 . S
C831 H819 0.930 . S
C831 C832 1.399 . S
C831 C836 1.399 1_556 S
C832 C831 1.399 . S
C832 C833 1.376 . S
C833 H820 0.930 . S
C833 C832 1.376 . S
C833 C834 1.388 . S
C834 H821 0.930 . S
C834 C833 1.388 . S
C834 C835 1.390 . S
C835 C834 1.390 . S
C835 C836 1.394 1_556 S
C835 C841 1.465 1_556 S
C836 C831 1.399 1_554 S
C836 C835 1.394 1_554 S
C836 C837 1.516 . S
C837 C836 1.516 . S
C837 C838 1.502 . S
C837 C839 1.561 . S
C837 C840 1.526 . S
C838 H822 0.959 1_554 S
C838 H823 0.959 . S
C838 H824 0.961 . S
C838 C837 1.502 . S
C839 H825 0.960 . S
C839 H826 0.961 . S
C839 H827 0.959 . S
C839 C837 1.561 . S
C840 C837 1.526 . S
C840 C841 1.396 . S
C840 C845 1.390 . S
C841 C835 1.465 1_554 S
C841 C840 1.396 . S
C841 C842 1.399 1_554 S
C842 H828 0.929 . S
C842 C841 1.399 1_556 S
C842 C843 1.385 1_556 S
C843 H829 0.931 . S
C843 C842 1.385 1_554 S
C843 C844 1.389 . S
C844 C843 1.389 . S
C844 C845 1.387 . S
C845 H830 0.930 . S
C845 C840 1.390 . S
C845 C844 1.387 . S
H846 C858 0.930 . S
H847 C860 0.930 . S
H848 C861 0.930 . S
H849 C865 0.959 . S
H850 C865 0.959 1_545 S
H851 C865 0.961 . S
H852 C866 0.960 . S
H853 C866 0.976 . S
H854 C866 0.959 . S
H855 C869 0.929 . S
H856 C870 0.931 . S
H857 C872 0.930 . S
C858 H846 0.930 . S
C858 C859 1.399 1_556 S
C858 C863 1.399 . S
C859 C858 1.399 1_554 S
C859 C860 1.376 . S
C860 H847 0.930 . S
C860 C859 1.376 . S
C860 C861 1.388 . S
C861 H848 0.930 . S
C861 C860 1.388 . S
C861 C862 1.390 . S
C862 C861 1.390 . S
C862 C863 1.394 1_554 S
C862 C868 1.465 1_565 S
C863 C858 1.399 . S
C863 C862 1.394 1_556 S
C863 C864 1.516 . S
C864 C863 1.516 . S
C864 C865 1.502 . S
C864 C866 1.561 . S
C864 C867 1.526 1_565 S
C865 H849 0.959 . S
C865 H850 0.959 1_565 S
C865 H851 0.961 . S
C865 C864 1.502 . S
C866 H852 0.960 . S
C866 H853 0.976 . S
C866 H854 0.959 . S
C866 C864 1.561 . S
C867 C864 1.526 1_545 S
C867 C868 1.396 1_556 S
C867 C872 1.390 . S
C868 C862 1.465 1_545 S
C868 C867 1.396 1_554 S
C868 C869 1.399 . S
C869 H855 0.929 . S
C869 C868 1.399 . S
C869 C870 1.385 . S
C870 H856 0.931 . S
C870 C869 1.385 . S
C870 C871 1.389 1_554 S
C871 C870 1.389 1_556 S
C871 C872 1.387 . S
C872 H857 0.930 . S
C872 C867 1.390 . S
C872 C871 1.387 . S
H873 C885 0.930 . S
H874 C887 0.930 . S
H875 C888 0.930 . S
H876 C892 0.959 . S
H877 C892 0.959 . S
H878 C892 0.961 . S
H879 C893 0.932 1_655 S
H880 C893 0.961 . S
H881 C893 0.959 . S
H882 C896 0.929 . S
H883 C897 0.931 . S
H884 C899 0.930 . S
C885 H873 0.930 . S
C885 C886 1.399 . S
C885 C890 1.399 . S
C886 C885 1.399 . S
C886 C887 1.376 1_556 S
C887 H874 0.930 . S
C887 C886 1.376 1_554 S
C887 C888 1.388 . S
C888 H875 0.930 . S
C888 C887 1.388 . S
C888 C889 1.390 . S
C889 C888 1.390 . S
C889 C890 1.394 1_554 S
C889 C895 1.465 1_655 S
C890 C885 1.399 . S
C890 C889 1.394 1_556 S
C890 C891 1.516 1_655 S
C891 C890 1.516 1_455 S
C891 C892 1.502 . S
C891 C893 1.561 . S
C891 C894 1.526 . S
C892 H876 0.959 . S
C892 H877 0.959 . S
C892 H878 0.961 . S
C892 C891 1.502 . S
C893 H879 0.932 1_455 S
C893 H880 0.961 . S
C893 H881 0.959 . S
C893 C891 1.561 . S
C894 C891 1.526 . S
C894 C895 1.396 1_556 S
C894 C899 1.390 . S
C895 C889 1.465 1_455 S
C895 C894 1.396 1_554 S
C895 C896 1.399 . S
C896 H882 0.929 . S
C896 C895 1.399 . S
C896 C897 1.385 . S
C897 H883 0.931 . S
C897 C896 1.385 . S
C897 C898 1.389 . S
C898 C897 1.389 . S
C898 C899 1.387 1_554 S
C899 H884 0.930 . S
C899 C894 1.390 . S
C899 C898 1.387 1_556 S
H900 C912 0.930 . S
H901 C914 0.930 . S
H902 C915 0.930 . S
H903 C919 0.959 . S
H904 C919 0.959 . S
H905 C919 0.961 . S
H906 C920 0.960 . S
H907 C920 0.961 . S
H908 C920 0.959 . S
H909 C923 0.929 . S
H910 C924 0.931 . S
H911 C926 0.930 . S
C912 H900 0.930 . S
C912 C913 1.399 . S
C912 C917 1.399 . S
C913 C912 1.399 . S
C913 C914 1.376 . S
C914 H901 0.930 . S
C914 C913 1.376 . S
C914 C915 1.388 . S
C915 H902 0.930 . S
C915 C914 1.388 . S
C915 C916 1.390 . S
C916 C915 1.390 . S
C916 C917 1.394 . S
C916 C922 1.465 . S
C917 C912 1.399 . S
C917 C916 1.394 . S
C917 C918 1.516 . S
C918 C917 1.516 . S
C918 C919 1.502 . S
C918 C920 1.561 . S
C918 C921 1.526 . S
C919 H903 0.959 . S
C919 H904 0.959 . S
C919 H905 0.961 . S
C919 C918 1.502 . S
C920 H906 0.960 . S
C920 H907 0.961 . S
C920 H908 0.959 . S
C920 C918 1.561 . S
C921 C918 1.526 . S
C921 C922 1.396 . S
C921 C926 1.390 . S
C922 C916 1.465 . S
C922 C921 1.396 . S
C922 C923 1.399 . S
C923 H909 0.929 . S
C923 C922 1.399 . S
C923 C924 1.385 . S
C924 H910 0.931 . S
C924 C923 1.385 . S
C924 C925 1.389 . S
C925 C924 1.389 . S
C925 C926 1.387 . S
C926 H911 0.930 . S
C926 C921 1.390 . S
C926 C925 1.387 . S
H927 C939 0.930 . S
H928 C941 0.930 . S
H929 C942 0.930 . S
H930 C946 0.959 . S
H931 C946 0.959 . S
H932 C946 0.961 . S
H933 C947 0.960 . S
H934 C947 0.961 . S
H935 C947 0.959 . S
H936 C950 0.929 . S
H937 C951 0.931 . S
H938 C953 0.930 . S
C939 H927 0.930 . S
C939 C940 1.399 . S
C939 C944 1.399 . S
C940 C939 1.399 . S
C940 C941 1.376 . S
C941 H928 0.930 . S
C941 C940 1.376 . S
C941 C942 1.388 . S
C942 H929 0.930 . S
C942 C941 1.388 . S
C942 C943 1.390 . S
C943 C942 1.390 . S
C943 C944 1.394 . S
C943 C949 1.465 . S
C944 C939 1.399 . S
C944 C943 1.394 . S
C944 C945 1.516 . S
C945 C944 1.516 . S
C945 C946 1.502 . S
C945 C947 1.561 . S
C945 C948 1.526 . S
C946 H930 0.959 . S
C946 H931 0.959 . S
C946 H932 0.961 . S
C946 C945 1.502 . S
C947 H933 0.960 . S
C947 H934 0.961 . S
C947 H935 0.959 . S
C947 C945 1.561 . S
C948 C945 1.526 . S
C948 C949 1.396 . S
C948 C953 1.390 . S
C949 C943 1.465 . S
C949 C948 1.396 . S
C949 C950 1.399 . S
C950 H936 0.929 . S
C950 C949 1.399 . S
C950 C951 1.385 . S
C951 H937 0.931 . S
C951 C950 1.385 . S
C951 C952 1.389 . S
C952 C951 1.389 . S
C952 C953 1.387 . S
C953 H938 0.930 . S
C953 C948 1.390 . S
C953 C952 1.387 . S
H954 C966 0.930 . S
H955 C968 0.930 . S
H956 C969 0.930 . S
H957 C973 0.959 . S
H958 C973 0.959 . S
H959 C973 0.961 . S
H960 C974 0.960 . S
H961 C974 0.961 . S
H962 C974 0.959 . S
H963 C977 0.929 . S
H964 C978 0.931 . S
H965 C980 0.930 . S
C966 H954 0.930 . S
C966 C967 1.399 . S
C966 C971 1.399 . S
C967 C966 1.399 . S
C967 C968 1.376 . S
C968 H955 0.930 . S
C968 C967 1.376 . S
C968 C969 1.388 . S
C969 H956 0.930 . S
C969 C968 1.388 . S
C969 C970 1.390 . S
C970 C969 1.390 . S
C970 C971 1.394 . S
C970 C976 1.465 . S
C971 C966 1.399 . S
C971 C970 1.394 . S
C971 C972 1.516 . S
C972 C971 1.516 . S
C972 C973 1.502 . S
C972 C974 1.561 . S
C972 C975 1.526 . S
C973 H957 0.959 . S
C973 H958 0.959 . S
C973 H959 0.961 . S
C973 C972 1.502 . S
C974 H960 0.960 . S
C974 H961 0.961 . S
C974 H962 0.959 . S
C974 C972 1.561 . S
C975 C972 1.526 . S
C975 C976 1.396 . S
C975 C980 1.390 . S
C976 C970 1.465 . S
C976 C975 1.396 . S
C976 C977 1.399 . S
C977 H963 0.929 . S
C977 C976 1.399 . S
C977 C978 1.385 . S
C978 H964 0.931 . S
C978 C977 1.385 . S
C978 C979 1.389 . S
C979 C978 1.389 . S
C979 C980 1.387 . S
C980 H965 0.930 . S
C980 C975 1.390 . S
C980 C979 1.387 . S
H981 C993 0.930 . S
H982 C995 0.930 . S
H983 C996 0.930 . S
H984 C1000 0.959 . S
H985 C1000 0.959 . S
H986 C1000 0.961 . S
H987 C1001 0.960 . S
H988 C1001 0.961 . S
H989 C1001 0.959 . S
H990 C1004 0.929 . S
H991 C1005 0.931 . S
H992 C1007 0.930 . S
C993 H981 0.930 . S
C993 C994 1.399 . S
C993 C998 1.399 . S
C994 C993 1.399 . S
C994 C995 1.376 . S
C995 H982 0.930 . S
C995 C994 1.376 . S
C995 C996 1.388 . S
C996 H983 0.930 . S
C996 C995 1.388 . S
C996 C997 1.390 . S
C997 C996 1.390 . S
C997 C998 1.394 . S
C997 C1003 1.465 . S
C998 C993 1.399 . S
C998 C997 1.394 . S
C998 C999 1.516 . S
C999 C998 1.516 . S
C999 C1000 1.502 . S
C999 C1001 1.561 . S
C999 C1002 1.526 . S
C1000 H984 0.959 . S
C1000 H985 0.959 . S
C1000 H986 0.961 . S
C1000 C999 1.502 . S
C1001 H987 0.960 . S
C1001 H988 0.961 . S
C1001 H989 0.959 . S
C1001 C999 1.561 . S
C1002 C999 1.526 . S
C1002 C1003 1.396 . S
C1002 C1007 1.390 . S
C1003 C997 1.465 . S
C1003 C1002 1.396 . S
C1003 C1004 1.399 . S
C1004 H990 0.929 . S
C1004 C1003 1.399 . S
C1004 C1005 1.385 . S
C1005 H991 0.931 . S
C1005 C1004 1.385 . S
C1005 C1006 1.389 . S
C1006 C1005 1.389 . S
C1006 C1007 1.387 . S
C1007 H992 0.930 . S
C1007 C1002 1.390 . S
C1007 C1006 1.387 . S
H1008 C1020 0.930 . S
H1009 C1022 0.930 . S
H1010 C1023 0.930 . S
H1011 C1027 0.959 . S
H1012 C1027 0.959 . S
H1013 C1027 0.961 . S
H1014 C1028 0.960 . S
H1015 C1028 0.961 . S
H1016 C1028 0.959 . S
H1017 C1031 0.929 . S
H1018 C1032 0.931 . S
H1019 C1034 0.930 . S
C1020 H1008 0.930 . S
C1020 C1021 1.399 . S
C1020 C1025 1.399 . S
C1021 C1020 1.399 . S
C1021 C1022 1.376 . S
C1022 H1009 0.930 . S
C1022 C1021 1.376 . S
C1022 C1023 1.388 . S
C1023 H1010 0.930 . S
C1023 C1022 1.388 . S
C1023 C1024 1.390 . S
C1024 C1023 1.390 . S
C1024 C1025 1.394 . S
C1024 C1030 1.465 . S
C1025 C1020 1.399 . S
C1025 C1024 1.394 . S
C1025 C1026 1.516 . S
C1026 C1025 1.516 . S
C1026 C1027 1.502 . S
C1026 C1028 1.561 . S
C1026 C1029 1.526 . S
C1027 H1011 0.959 . S
C1027 H1012 0.959 . S
C1027 H1013 0.961 . S
C1027 C1026 1.502 . S
C1028 H1014 0.960 . S
C1028 H1015 0.961 . S
C1028 H1016 0.959 . S
C1028 C1026 1.561 . S
C1029 C1026 1.526 . S
C1029 C1030 1.396 . S
C1029 C1034 1.390 . S
C1030 C1024 1.465 . S
C1030 C1029 1.396 . S
C1030 C1031 1.399 . S
C1031 H1017 0.929 . S
C1031 C1030 1.399 . S
C1031 C1032 1.385 . S
C1032 H1018 0.931 . S
C1032 C1031 1.385 . S
C1032 C1033 1.389 . S
C1033 C1032 1.389 . S
C1033 C1034 1.387 . S
C1034 H1019 0.930 . S
C1034 C1029 1.390 . S
C1034 C1033 1.387 . S
H1035 C1047 0.930 . S
H1036 C1049 0.930 . S
H1037 C1050 0.930 . S
H1038 C1054 0.959 . S
H1039 C1054 0.959 . S
H1040 C1054 0.961 . S
H1041 C1055 0.960 . S
H1042 C1055 0.961 . S
H1043 C1055 0.959 . S
H1044 C1058 0.929 . S
H1045 C1059 0.931 . S
H1046 C1061 0.930 . S
C1047 H1035 0.930 . S
C1047 C1048 1.399 . S
C1047 C1052 1.399 . S
C1048 C1047 1.399 . S
C1048 C1049 1.376 . S
C1049 H1036 0.930 . S
C1049 C1048 1.376 . S
C1049 C1050 1.388 . S
C1050 H1037 0.930 . S
C1050 C1049 1.388 . S
C1050 C1051 1.390 . S
C1051 C1050 1.390 . S
C1051 C1052 1.394 . S
C1051 C1057 1.465 . S
C1052 C1047 1.399 . S
C1052 C1051 1.394 . S
C1052 C1053 1.516 . S
C1053 C1052 1.516 . S
C1053 C1054 1.502 . S
C1053 C1055 1.561 . S
C1053 C1056 1.526 . S
C1054 H1038 0.959 . S
C1054 H1039 0.959 . S
C1054 H1040 0.961 . S
C1054 C1053 1.502 . S
C1055 H1041 0.960 . S
C1055 H1042 0.961 . S
C1055 H1043 0.959 . S
C1055 C1053 1.561 . S
C1056 C1053 1.526 . S
C1056 C1057 1.396 . S
C1056 C1061 1.390 . S
C1057 C1051 1.465 . S
C1057 C1056 1.396 . S
C1057 C1058 1.399 . S
C1058 H1044 0.929 . S
C1058 C1057 1.399 . S
C1058 C1059 1.385 . S
C1059 H1045 0.931 . S
C1059 C1058 1.385 . S
C1059 C1060 1.389 . S
C1060 C1059 1.389 . S
C1060 C1061 1.387 . S
C1061 H1046 0.930 . S
C1061 C1056 1.390 . S
C1061 C1060 1.387 . S
H1062 C1074 0.930 . S
H1063 C1076 0.930 . S
H1064 C1077 0.930 . S
H1065 C1081 0.959 . S
H1066 C1081 0.959 . S
H1067 C1081 0.961 . S
H1068 C1082 0.960 . S
H1069 C1082 0.961 . S
H1070 C1082 0.959 . S
H1071 C1085 0.929 . S
H1072 C1086 0.931 . S
H1073 C1088 0.930 . S
C1074 H1062 0.930 . S
C1074 C1075 1.399 . S
C1074 C1079 1.399 . S
C1075 C1074 1.399 . S
C1075 C1076 1.376 . S
C1076 H1063 0.930 . S
C1076 C1075 1.376 . S
C1076 C1077 1.388 . S
C1077 H1064 0.930 . S
C1077 C1076 1.388 . S
C1077 C1078 1.390 . S
C1078 C1077 1.390 . S
C1078 C1079 1.394 . S
C1078 C1084 1.465 . S
C1079 C1074 1.399 . S
C1079 C1078 1.394 . S
C1079 C1080 1.516 . S
C1080 C1079 1.516 . S
C1080 C1081 1.502 . S
C1080 C1082 1.561 . S
C1080 C1083 1.526 . S
C1081 H1065 0.959 . S
C1081 H1066 0.959 . S
C1081 H1067 0.961 . S
C1081 C1080 1.502 . S
C1082 H1068 0.960 . S
C1082 H1069 0.961 . S
C1082 H1070 0.959 . S
C1082 C1080 1.561 . S
C1083 C1080 1.526 . S
C1083 C1084 1.396 . S
C1083 C1088 1.390 . S
C1084 C1078 1.465 . S
C1084 C1083 1.396 . S
C1084 C1085 1.399 . S
C1085 H1071 0.929 . S
C1085 C1084 1.399 . S
C1085 C1086 1.385 . S
C1086 H1072 0.931 . S
C1086 C1085 1.385 . S
C1086 C1087 1.389 . S
C1087 C1086 1.389 . S
C1087 C1088 1.387 . S
C1088 H1073 0.930 . S
C1088 C1083 1.390 . S
C1088 C1087 1.387 . S
H1089 C1101 0.930 . S
H1090 C1103 0.930 . S
H1091 C1104 0.930 . S
H1092 C1108 0.959 . S
H1093 C1108 0.959 . S
H1094 C1108 0.961 . S
H1095 C1109 0.960 . S
H1096 C1109 0.961 . S
H1097 C1109 0.959 . S
H1098 C1112 0.929 . S
H1099 C1113 0.931 . S
H1100 C1115 0.930 . S
C1101 H1089 0.930 . S
C1101 C1102 1.399 . S
C1101 C1106 1.399 . S
C1102 C1101 1.399 . S
C1102 C1103 1.376 . S
C1103 H1090 0.930 . S
C1103 C1102 1.376 . S
C1103 C1104 1.388 . S
C1104 H1091 0.930 . S
C1104 C1103 1.388 . S
C1104 C1105 1.390 . S
C1105 C1104 1.390 . S
C1105 C1106 1.394 . S
C1105 C1111 1.465 . S
C1106 C1101 1.399 . S
C1106 C1105 1.394 . S
C1106 C1107 1.516 . S
C1107 C1106 1.516 . S
C1107 C1108 1.502 . S
C1107 C1109 1.561 . S
C1107 C1110 1.526 . S
C1108 H1092 0.959 . S
C1108 H1093 0.959 . S
C1108 H1094 0.961 . S
C1108 C1107 1.502 . S
C1109 H1095 0.960 . S
C1109 H1096 0.961 . S
C1109 H1097 0.959 . S
C1109 C1107 1.561 . S
C1110 C1107 1.526 . S
C1110 C1111 1.396 . S
C1110 C1115 1.390 . S
C1111 C1105 1.465 . S
C1111 C1110 1.396 . S
C1111 C1112 1.399 . S
C1112 H1098 0.929 . S
C1112 C1111 1.399 . S
C1112 C1113 1.385 . S
C1113 H1099 0.931 . S
C1113 C1112 1.385 . S
C1113 C1114 1.389 . S
C1114 C1113 1.389 . S
C1114 C1115 1.387 . S
C1115 H1100 0.930 . S
C1115 C1110 1.390 . S
C1115 C1114 1.387 . S
H1116 C1128 0.930 . S
H1117 C1130 0.930 . S
H1118 C1131 0.930 . S
H1119 C1135 0.959 . S
H1120 C1135 0.959 . S
H1121 C1135 0.961 . S
H1122 C1136 0.960 . S
H1123 C1136 0.961 . S
H1124 C1136 0.959 . S
H1125 C1139 0.929 . S
H1126 C1140 0.931 . S
H1127 C1142 0.930 . S
C1128 H1116 0.930 . S
C1128 C1129 1.399 . S
C1128 C1133 1.399 . S
C1129 C1128 1.399 . S
C1129 C1130 1.376 . S
C1130 H1117 0.930 . S
C1130 C1129 1.376 . S
C1130 C1131 1.388 . S
C1131 H1118 0.930 . S
C1131 C1130 1.388 . S
C1131 C1132 1.390 . S
C1132 C1131 1.390 . S
C1132 C1133 1.394 . S
C1132 C1138 1.465 . S
C1133 C1128 1.399 . S
C1133 C1132 1.394 . S
C1133 C1134 1.516 . S
C1134 C1133 1.516 . S
C1134 C1135 1.502 . S
C1134 C1136 1.561 . S
C1134 C1137 1.526 . S
C1135 H1119 0.959 . S
C1135 H1120 0.959 . S
C1135 H1121 0.961 . S
C1135 C1134 1.502 . S
C1136 H1122 0.960 . S
C1136 H1123 0.961 . S
C1136 H1124 0.959 . S
C1136 C1134 1.561 . S
C1137 C1134 1.526 . S
C1137 C1138 1.396 . S
C1137 C1142 1.390 . S
C1138 C1132 1.465 . S
C1138 C1137 1.396 . S
C1138 C1139 1.399 . S
C1139 H1125 0.929 . S
C1139 C1138 1.399 . S
C1139 C1140 1.385 . S
C1140 H1126 0.931 . S
C1140 C1139 1.385 . S
C1140 C1141 1.389 . S
C1141 C1140 1.389 . S
C1141 C1142 1.387 . S
C1142 H1127 0.930 . S
C1142 C1137 1.390 . S
C1142 C1141 1.387 . S
H1143 C1155 0.930 . S
H1144 C1157 0.930 . S
H1145 C1158 0.930 . S
H1146 C1162 0.959 . S
H1147 C1162 0.959 . S
H1148 C1162 0.961 . S
H1149 C1163 0.960 . S
H1150 C1163 0.961 . S
H1151 C1163 0.959 . S
H1152 C1166 0.929 . S
H1153 C1167 0.931 . S
H1154 C1169 0.930 . S
C1155 H1143 0.930 . S
C1155 C1156 1.399 . S
C1155 C1160 1.399 . S
C1156 C1155 1.399 . S
C1156 C1157 1.376 . S
C1157 H1144 0.930 . S
C1157 C1156 1.376 . S
C1157 C1158 1.388 . S
C1158 H1145 0.930 . S
C1158 C1157 1.388 . S
C1158 C1159 1.390 . S
C1159 C1158 1.390 . S
C1159 C1160 1.394 . S
C1159 C1165 1.465 . S
C1160 C1155 1.399 . S
C1160 C1159 1.394 . S
C1160 C1161 1.516 . S
C1161 C1160 1.516 . S
C1161 C1162 1.502 . S
C1161 C1163 1.561 . S
C1161 C1164 1.526 . S
C1162 H1146 0.959 . S
C1162 H1147 0.959 . S
C1162 H1148 0.961 . S
C1162 C1161 1.502 . S
C1163 H1149 0.960 . S
C1163 H1150 0.961 . S
C1163 H1151 0.959 . S
C1163 C1161 1.561 . S
C1164 C1161 1.526 . S
C1164 C1165 1.396 . S
C1164 C1169 1.390 . S
C1165 C1159 1.465 . S
C1165 C1164 1.396 . S
C1165 C1166 1.399 . S
C1166 H1152 0.929 . S
C1166 C1165 1.399 . S
C1166 C1167 1.385 . S
C1167 H1153 0.931 . S
C1167 C1166 1.385 . S
C1167 C1168 1.389 . S
C1168 C1167 1.389 . S
C1168 C1169 1.387 . S
C1169 H1154 0.930 . S
C1169 C1164 1.390 . S
C1169 C1168 1.387 . S
H1170 C1182 0.930 . S
H1171 C1184 0.930 . S
H1172 C1185 0.930 . S
H1173 C1189 0.959 . S
H1174 C1189 0.959 . S
H1175 C1189 0.961 . S
H1176 C1190 0.960 . S
H1177 C1190 0.961 . S
H1178 C1190 0.959 . S
H1179 C1193 0.929 . S
H1180 C1194 0.931 . S
H1181 C1196 0.930 . S
C1182 H1170 0.930 . S
C1182 C1183 1.399 . S
C1182 C1187 1.399 . S
C1183 C1182 1.399 . S
C1183 C1184 1.376 . S
C1184 H1171 0.930 . S
C1184 C1183 1.376 . S
C1184 C1185 1.388 . S
C1185 H1172 0.930 . S
C1185 C1184 1.388 . S
C1185 C1186 1.390 . S
C1186 C1185 1.390 . S
C1186 C1187 1.394 . S
C1186 C1192 1.465 . S
C1187 C1182 1.399 . S
C1187 C1186 1.394 . S
C1187 C1188 1.516 . S
C1188 C1187 1.516 . S
C1188 C1189 1.502 . S
C1188 C1190 1.561 . S
C1188 C1191 1.526 . S
C1189 H1173 0.959 . S
C1189 H1174 0.959 . S
C1189 H1175 0.961 . S
C1189 C1188 1.502 . S
C1190 H1176 0.960 . S
C1190 H1177 0.961 . S
C1190 H1178 0.959 . S
C1190 C1188 1.561 . S
C1191 C1188 1.526 . S
C1191 C1192 1.396 . S
C1191 C1196 1.390 . S
C1192 C1186 1.465 . S
C1192 C1191 1.396 . S
C1192 C1193 1.399 . S
C1193 H1179 0.929 . S
C1193 C1192 1.399 . S
C1193 C1194 1.385 . S
C1194 H1180 0.931 . S
C1194 C1193 1.385 . S
C1194 C1195 1.389 . S
C1195 C1194 1.389 . S
C1195 C1196 1.387 . S
C1196 H1181 0.930 . S
C1196 C1191 1.390 . S
C1196 C1195 1.387 . S
H1197 C1209 0.930 . S
H1198 C1211 0.930 . S
H1199 C1212 0.930 . S
H1200 C1216 0.959 . S
H1201 C1216 0.959 . S
H1202 C1216 0.961 . S
H1203 C1217 0.960 . S
H1204 C1217 0.961 . S
H1205 C1217 0.959 . S
H1206 C1220 0.929 . S
H1207 C1221 0.931 . S
H1208 C1223 0.930 . S
C1209 H1197 0.930 . S
C1209 C1210 1.399 . S
C1209 C1214 1.399 . S
C1210 C1209 1.399 . S
C1210 C1211 1.376 . S
C1211 H1198 0.930 . S
C1211 C1210 1.376 . S
C1211 C1212 1.388 . S
C1212 H1199 0.930 . S
C1212 C1211 1.388 . S
C1212 C1213 1.390 . S
C1213 C1212 1.390 . S
C1213 C1214 1.394 . S
C1213 C1219 1.465 . S
C1214 C1209 1.399 . S
C1214 C1213 1.394 . S
C1214 C1215 1.516 . S
C1215 C1214 1.516 . S
C1215 C1216 1.502 . S
C1215 C1217 1.561 . S
C1215 C1218 1.526 . S
C1216 H1200 0.959 . S
C1216 H1201 0.959 . S
C1216 H1202 0.961 . S
C1216 C1215 1.502 . S
C1217 H1203 0.960 . S
C1217 H1204 0.961 . S
C1217 H1205 0.959 . S
C1217 C1215 1.561 . S
C1218 C1215 1.526 . S
C1218 C1219 1.396 . S
C1218 C1223 1.390 . S
C1219 C1213 1.465 . S
C1219 C1218 1.396 . S
C1219 C1220 1.399 . S
C1220 H1206 0.929 . S
C1220 C1219 1.399 . S
C1220 C1221 1.385 . S
C1221 H1207 0.931 . S
C1221 C1220 1.385 . S
C1221 C1222 1.389 . S
C1222 C1221 1.389 . S
C1222 C1223 1.387 . S
C1223 H1208 0.930 . S
C1223 C1218 1.390 . S
C1223 C1222 1.387 . S
C265 C241 1.849 . S
C277 C3 1.846 . S
C292 C213 1.847 . S
C304 C17 1.843 . S
C319 C227 1.847 . S
C331 C31 1.842 . S
C346 C101 1.847 . S
C358 C45 1.850 . S
C373 C115 1.842 . S
C385 C59 1.843 . S
C400 C73 1.849 . S
C412 C87 1.847 . S
C427 C129 1.848 . S
C439 C185 1.849 . S
C454 C143 1.846 . S
C466 C199 1.850 . S
C481 C157 1.849 . S
C493 C171 1.847 . S
C508 C7 0.461 . S
C520 C245 0.481 . S
C535 C217 0.396 . S
C547 C21 0.419 . S
C562 C35 0.516 . S
C574 C231 0.514 . S
C589 C105 0.516 . S
C601 C49 0.508 . S
C616 C63 0.514 . S
C628 C119 0.504 . S
C643 C77 0.427 . S
C655 C91 0.403 . S
C670 C133 0.451 . S
C682 C189 0.427 . S
C697 C203 0.491 . S
C709 C147 0.470 . S
C724 C175 0.514 . S
C736 C161 0.515 . S
C751 C9 1.719 . S
C763 C51 1.711 . S
C778 C65 1.726 . S
C790 C23 1.712 . S
C805 C79 1.735 . S
C817 C37 1.718 . S
C832 C78 1.701 . S
C844 C22 1.701 . S
C859 C36 1.712 . S
C871 C50 1.701 . S
C886 C64 1.709 . S
C898 C8 1.722 . S
C913 C93 1.737 . S
C925 C135 1.722 . S
C940 C149 1.715 . S
C952 C107 1.713 . S
C967 C163 1.721 . S
C979 C121 1.711 . S
C994 C162 1.721 . S
C1006 C106 1.708 . S
C1021 C120 1.705 . S
C1033 C134 1.700 . S
C1048 C148 1.725 . S
C1060 C92 1.725 . S
C1075 C219 1.727 . S
C1087 C177 1.739 . S
C1102 C233 1.723 . S
C1114 C191 1.738 . S
C1129 C205 1.738 . S
C1141 C247 1.732 . S
C1156 C246 1.717 . S
C1168 C190 1.727 . S
C1183 C204 1.704 . S
C1195 C218 1.700 . S
C1210 C232 1.702 . S
C1222 C176 1.700 . S
