# Generated by pormake.
# Topology ulj, (4)-cn, num edge types: 1
# Building blocks:
#     Node 0, Type 0, BuildingBlock: ESEHIV_clean_sbu_0, # of connection points: 4
#     Node 1, Type 0, BuildingBlock: ESEHIV_clean_sbu_0, # of connection points: 4
#     Node 2, Type 0, BuildingBlock: ESEHIV_clean_sbu_0, # of connection points: 4
#     Node 3, Type 0, BuildingBlock: ESEHIV_clean_sbu_0, # of connection points: 4
#     Node 4, Type 0, BuildingBlock: ESEHIV_clean_sbu_0, # of connection points: 4
#     Node 5, Type 0, BuildingBlock: ESEHIV_clean_sbu_0, # of connection points: 4
#     Node 6, Type 0, BuildingBlock: ESEHIV_clean_sbu_0, # of connection points: 4
#     Node 7, Type 0, BuildingBlock: ESEHIV_clean_sbu_0, # of connection points: 4
#     Node 8, Type 0, BuildingBlock: ESEHIV_clean_sbu_0, # of connection points: 4
#     Node 9, Type 0, BuildingBlock: ESEHIV_clean_sbu_0, # of connection points: 4
#     Node 10, Type 0, BuildingBlock: ESEHIV_clean_sbu_0, # of connection points: 4
#     Node 11, Type 0, BuildingBlock: ESEHIV_clean_sbu_0, # of connection points: 4
#     Node 12, Type 0, BuildingBlock: ESEHIV_clean_sbu_0, # of connection points: 4
#     Node 13, Type 0, BuildingBlock: ESEHIV_clean_sbu_0, # of connection points: 4
#     Node 14, Type 0, BuildingBlock: ESEHIV_clean_sbu_0, # of connection points: 4
#     Node 15, Type 0, BuildingBlock: ESEHIV_clean_sbu_0, # of connection points: 4
#     Node 16, Type 0, BuildingBlock: ESEHIV_clean_sbu_0, # of connection points: 4
#     Node 17, Type 0, BuildingBlock: ESEHIV_clean_sbu_0, # of connection points: 4
#     Node 18, Type 0, BuildingBlock: ESEHIV_clean_sbu_0, # of connection points: 4
#     Node 19, Type 0, BuildingBlock: ESEHIV_clean_sbu_0, # of connection points: 4
#     Node 20, Type 0, BuildingBlock: ESEHIV_clean_sbu_0, # of connection points: 4
#     Node 21, Type 0, BuildingBlock: ESEHIV_clean_sbu_0, # of connection points: 4
#     Node 22, Type 0, BuildingBlock: ESEHIV_clean_sbu_0, # of connection points: 4
#     Node 23, Type 0, BuildingBlock: ESEHIV_clean_sbu_0, # of connection points: 4
#     Node 24, Type 0, BuildingBlock: ESEHIV_clean_sbu_0, # of connection points: 4
#     Node 25, Type 0, BuildingBlock: ESEHIV_clean_sbu_0, # of connection points: 4
#     Node 26, Type 0, BuildingBlock: ESEHIV_clean_sbu_0, # of connection points: 4
#     Node 27, Type 0, BuildingBlock: ESEHIV_clean_sbu_0, # of connection points: 4
#     Node 28, Type 0, BuildingBlock: ESEHIV_clean_sbu_0, # of connection points: 4
#     Node 29, Type 0, BuildingBlock: ESEHIV_clean_sbu_0, # of connection points: 4
#     Node 30, Type 0, BuildingBlock: ESEHIV_clean_sbu_0, # of connection points: 4
#     Node 31, Type 0, BuildingBlock: ESEHIV_clean_sbu_0, # of connection points: 4
#     Node 32, Type 0, BuildingBlock: ESEHIV_clean_sbu_0, # of connection points: 4
#     Node 33, Type 0, BuildingBlock: ESEHIV_clean_sbu_0, # of connection points: 4
#     Node 34, Type 0, BuildingBlock: ESEHIV_clean_sbu_0, # of connection points: 4
#     Node 35, Type 0, BuildingBlock: ESEHIV_clean_sbu_0, # of connection points: 4
#     Node 36, Type 0, BuildingBlock: ESEHIV_clean_sbu_0, # of connection points: 4
#     Node 37, Type 0, BuildingBlock: ESEHIV_clean_sbu_0, # of connection points: 4
#     Node 38, Type 0, BuildingBlock: ESEHIV_clean_sbu_0, # of connection points: 4
#     Node 39, Type 0, BuildingBlock: ESEHIV_clean_sbu_0, # of connection points: 4
#     Node 40, Type 0, BuildingBlock: ESEHIV_clean_sbu_0, # of connection points: 4
#     Node 41, Type 0, BuildingBlock: ESEHIV_clean_sbu_0, # of connection points: 4
#     Node 42, Type 0, BuildingBlock: ESEHIV_clean_sbu_0, # of connection points: 4
#     Node 43, Type 0, BuildingBlock: ESEHIV_clean_sbu_0, # of connection points: 4
#     Node 44, Type 0, BuildingBlock: ESEHIV_clean_sbu_0, # of connection points: 4
#     Node 45, Type 0, BuildingBlock: ESEHIV_clean_sbu_0, # of connection points: 4
#     Node 46, Type 0, BuildingBlock: ESEHIV_clean_sbu_0, # of connection points: 4
#     Node 47, Type 0, BuildingBlock: ESEHIV_clean_sbu_0, # of connection points: 4
#     Edge 48, Type (0, 0), BuildingBlock: CIFDUS_clean_linker_0, # of connection points: 2
#     Edge 49, Type (0, 0), BuildingBlock: CIFDUS_clean_linker_0, # of connection points: 2
#     Edge 50, Type (0, 0), BuildingBlock: CIFDUS_clean_linker_0, # of connection points: 2
#     Edge 51, Type (0, 0), BuildingBlock: CIFDUS_clean_linker_0, # of connection points: 2
#     Edge 52, Type (0, 0), BuildingBlock: CIFDUS_clean_linker_0, # of connection points: 2
#     Edge 53, Type (0, 0), BuildingBlock: CIFDUS_clean_linker_0, # of connection points: 2
#     Edge 54, Type (0, 0), BuildingBlock: CIFDUS_clean_linker_0, # of connection points: 2
#     Edge 55, Type (0, 0), BuildingBlock: CIFDUS_clean_linker_0, # of connection points: 2
#     Edge 56, Type (0, 0), BuildingBlock: CIFDUS_clean_linker_0, # of connection points: 2
#     Edge 57, Type (0, 0), BuildingBlock: CIFDUS_clean_linker_0, # of connection points: 2
#     Edge 58, Type (0, 0), BuildingBlock: CIFDUS_clean_linker_0, # of connection points: 2
#     Edge 59, Type (0, 0), BuildingBlock: CIFDUS_clean_linker_0, # of connection points: 2
#     Edge 60, Type (0, 0), BuildingBlock: CIFDUS_clean_linker_0, # of connection points: 2
#     Edge 61, Type (0, 0), BuildingBlock: CIFDUS_clean_linker_0, # of connection points: 2
#     Edge 62, Type (0, 0), BuildingBlock: CIFDUS_clean_linker_0, # of connection points: 2
#     Edge 63, Type (0, 0), BuildingBlock: CIFDUS_clean_linker_0, # of connection points: 2
#     Edge 64, Type (0, 0), BuildingBlock: CIFDUS_clean_linker_0, # of connection points: 2
#     Edge 65, Type (0, 0), BuildingBlock: CIFDUS_clean_linker_0, # of connection points: 2
#     Edge 66, Type (0, 0), BuildingBlock: CIFDUS_clean_linker_0, # of connection points: 2
#     Edge 67, Type (0, 0), BuildingBlock: CIFDUS_clean_linker_0, # of connection points: 2
#     Edge 68, Type (0, 0), BuildingBlock: CIFDUS_clean_linker_0, # of connection points: 2
#     Edge 69, Type (0, 0), BuildingBlock: CIFDUS_clean_linker_0, # of connection points: 2
#     Edge 70, Type (0, 0), BuildingBlock: CIFDUS_clean_linker_0, # of connection points: 2
#     Edge 71, Type (0, 0), BuildingBlock: CIFDUS_clean_linker_0, # of connection points: 2
#     Edge 72, Type (0, 0), BuildingBlock: CIFDUS_clean_linker_0, # of connection points: 2
#     Edge 73, Type (0, 0), BuildingBlock: CIFDUS_clean_linker_0, # of connection points: 2
#     Edge 74, Type (0, 0), BuildingBlock: CIFDUS_clean_linker_0, # of connection points: 2
#     Edge 75, Type (0, 0), BuildingBlock: CIFDUS_clean_linker_0, # of connection points: 2
#     Edge 76, Type (0, 0), BuildingBlock: CIFDUS_clean_linker_0, # of connection points: 2
#     Edge 77, Type (0, 0), BuildingBlock: CIFDUS_clean_linker_0, # of connection points: 2
#     Edge 78, Type (0, 0), BuildingBlock: CIFDUS_clean_linker_0, # of connection points: 2
#     Edge 79, Type (0, 0), BuildingBlock: CIFDUS_clean_linker_0, # of connection points: 2
#     Edge 80, Type (0, 0), BuildingBlock: CIFDUS_clean_linker_0, # of connection points: 2
#     Edge 81, Type (0, 0), BuildingBlock: CIFDUS_clean_linker_0, # of connection points: 2
#     Edge 82, Type (0, 0), BuildingBlock: CIFDUS_clean_linker_0, # of connection points: 2
#     Edge 83, Type (0, 0), BuildingBlock: CIFDUS_clean_linker_0, # of connection points: 2
#     Edge 84, Type (0, 0), BuildingBlock: CIFDUS_clean_linker_0, # of connection points: 2
#     Edge 85, Type (0, 0), BuildingBlock: CIFDUS_clean_linker_0, # of connection points: 2
#     Edge 86, Type (0, 0), BuildingBlock: CIFDUS_clean_linker_0, # of connection points: 2
#     Edge 87, Type (0, 0), BuildingBlock: CIFDUS_clean_linker_0, # of connection points: 2
#     Edge 88, Type (0, 0), BuildingBlock: CIFDUS_clean_linker_0, # of connection points: 2
#     Edge 89, Type (0, 0), BuildingBlock: CIFDUS_clean_linker_0, # of connection points: 2
#     Edge 90, Type (0, 0), BuildingBlock: CIFDUS_clean_linker_0, # of connection points: 2
#     Edge 91, Type (0, 0), BuildingBlock: CIFDUS_clean_linker_0, # of connection points: 2
#     Edge 92, Type (0, 0), BuildingBlock: CIFDUS_clean_linker_0, # of connection points: 2
#     Edge 93, Type (0, 0), BuildingBlock: CIFDUS_clean_linker_0, # of connection points: 2
#     Edge 94, Type (0, 0), BuildingBlock: CIFDUS_clean_linker_0, # of connection points: 2
#     Edge 95, Type (0, 0), BuildingBlock: CIFDUS_clean_linker_0, # of connection points: 2
#     Edge 96, Type (0, 0), BuildingBlock: CIFDUS_clean_linker_0, # of connection points: 2
#     Edge 97, Type (0, 0), BuildingBlock: CIFDUS_clean_linker_0, # of connection points: 2
#     Edge 98, Type (0, 0), BuildingBlock: CIFDUS_clean_linker_0, # of connection points: 2
#     Edge 99, Type (0, 0), BuildingBlock: CIFDUS_clean_linker_0, # of connection points: 2
#     Edge 100, Type (0, 0), BuildingBlock: CIFDUS_clean_linker_0, # of connection points: 2
#     Edge 101, Type (0, 0), BuildingBlock: CIFDUS_clean_linker_0, # of connection points: 2
#     Edge 102, Type (0, 0), BuildingBlock: CIFDUS_clean_linker_0, # of connection points: 2
#     Edge 103, Type (0, 0), BuildingBlock: CIFDUS_clean_linker_0, # of connection points: 2
#     Edge 104, Type (0, 0), BuildingBlock: CIFDUS_clean_linker_0, # of connection points: 2
#     Edge 105, Type (0, 0), BuildingBlock: CIFDUS_clean_linker_0, # of connection points: 2
#     Edge 106, Type (0, 0), BuildingBlock: CIFDUS_clean_linker_0, # of connection points: 2
#     Edge 107, Type (0, 0), BuildingBlock: CIFDUS_clean_linker_0, # of connection points: 2
#     Edge 108, Type (0, 0), BuildingBlock: CIFDUS_clean_linker_0, # of connection points: 2
#     Edge 109, Type (0, 0), BuildingBlock: CIFDUS_clean_linker_0, # of connection points: 2
#     Edge 110, Type (0, 0), BuildingBlock: CIFDUS_clean_linker_0, # of connection points: 2
#     Edge 111, Type (0, 0), BuildingBlock: CIFDUS_clean_linker_0, # of connection points: 2
#     Edge 112, Type (0, 0), BuildingBlock: CIFDUS_clean_linker_0, # of connection points: 2
#     Edge 113, Type (0, 0), BuildingBlock: CIFDUS_clean_linker_0, # of connection points: 2
#     Edge 114, Type (0, 0), BuildingBlock: CIFDUS_clean_linker_0, # of connection points: 2
#     Edge 115, Type (0, 0), BuildingBlock: CIFDUS_clean_linker_0, # of connection points: 2
#     Edge 116, Type (0, 0), BuildingBlock: CIFDUS_clean_linker_0, # of connection points: 2
#     Edge 117, Type (0, 0), BuildingBlock: CIFDUS_clean_linker_0, # of connection points: 2
#     Edge 118, Type (0, 0), BuildingBlock: CIFDUS_clean_linker_0, # of connection points: 2
#     Edge 119, Type (0, 0), BuildingBlock: CIFDUS_clean_linker_0, # of connection points: 2
#     Edge 120, Type (0, 0), BuildingBlock: CIFDUS_clean_linker_0, # of connection points: 2
#     Edge 121, Type (0, 0), BuildingBlock: CIFDUS_clean_linker_0, # of connection points: 2
#     Edge 122, Type (0, 0), BuildingBlock: CIFDUS_clean_linker_0, # of connection points: 2
#     Edge 123, Type (0, 0), BuildingBlock: CIFDUS_clean_linker_0, # of connection points: 2
#     Edge 124, Type (0, 0), BuildingBlock: CIFDUS_clean_linker_0, # of connection points: 2
#     Edge 125, Type (0, 0), BuildingBlock: CIFDUS_clean_linker_0, # of connection points: 2
#     Edge 126, Type (0, 0), BuildingBlock: CIFDUS_clean_linker_0, # of connection points: 2
#     Edge 127, Type (0, 0), BuildingBlock: CIFDUS_clean_linker_0, # of connection points: 2
#     Edge 128, Type (0, 0), BuildingBlock: CIFDUS_clean_linker_0, # of connection points: 2
#     Edge 129, Type (0, 0), BuildingBlock: CIFDUS_clean_linker_0, # of connection points: 2
#     Edge 130, Type (0, 0), BuildingBlock: CIFDUS_clean_linker_0, # of connection points: 2
#     Edge 131, Type (0, 0), BuildingBlock: CIFDUS_clean_linker_0, # of connection points: 2
#     Edge 132, Type (0, 0), BuildingBlock: CIFDUS_clean_linker_0, # of connection points: 2
#     Edge 133, Type (0, 0), BuildingBlock: CIFDUS_clean_linker_0, # of connection points: 2
#     Edge 134, Type (0, 0), BuildingBlock: CIFDUS_clean_linker_0, # of connection points: 2
#     Edge 135, Type (0, 0), BuildingBlock: CIFDUS_clean_linker_0, # of connection points: 2
#     Edge 136, Type (0, 0), BuildingBlock: CIFDUS_clean_linker_0, # of connection points: 2
#     Edge 137, Type (0, 0), BuildingBlock: CIFDUS_clean_linker_0, # of connection points: 2
#     Edge 138, Type (0, 0), BuildingBlock: CIFDUS_clean_linker_0, # of connection points: 2
#     Edge 139, Type (0, 0), BuildingBlock: CIFDUS_clean_linker_0, # of connection points: 2
#     Edge 140, Type (0, 0), BuildingBlock: CIFDUS_clean_linker_0, # of connection points: 2
#     Edge 141, Type (0, 0), BuildingBlock: CIFDUS_clean_linker_0, # of connection points: 2
#     Edge 142, Type (0, 0), BuildingBlock: CIFDUS_clean_linker_0, # of connection points: 2
#     Edge 143, Type (0, 0), BuildingBlock: CIFDUS_clean_linker_0, # of connection points: 2
# Relax obj value: 0.037
# Max RMSD: 0.127
# Mean RMSD: 0.127
data_MOF--net-ulj--node1-ESEHIV_clean_sbu_0--edge1-CIFDUS_clean_linker_0
_symmetry_space_group_name_H-M    P1
_symmetry_Int_Tables_number       1
_symmetry_cell_setting            triclinic
loop_
_symmetry_equiv_pos_as_xyz
'x, y, z'
_cell_length_a     62.023723
_cell_length_b     61.920495
_cell_length_c     61.984796
_cell_angle_alpha  89.670376
_cell_angle_beta   90.07619
_cell_angle_gamma 89.998895
loop_
_atom_site_label
_atom_site_type_symbol
_atom_site_fract_x
_atom_site_fract_y
_atom_site_fract_z
_atom_type_partial_charge
Cu0 Cu 0.17473 0.25079 0.35561 0.0
N1 N 0.1704 0.23607 0.38188 0.0
N2 N 0.15123 0.21599 0.40537 0.0
C3 C 0.1534 0.22275 0.3847 0.0
C4 C 0.16772 0.22556 0.41599 0.0
C5 C 0.17946 0.23798 0.40149 0.0
O6 O 0.14888 0.26914 0.35453 0.0
C7 C 0.1955 0.21565 0.33924 0.0
O8 O 0.2011 0.21474 0.35964 0.0
H9 H 0.14212 0.2191 0.3719 0.0
H10 H 0.19306 0.24826 0.40515 0.0
N11 N 0.19904 0.26839 0.35165 0.0
N12 N 0.22167 0.28457 0.32825 0.0
C13 C 0.20101 0.27944 0.33295 0.0
C14 C 0.21925 0.26646 0.35933 0.0
C15 C 0.23321 0.27658 0.34502 0.0
C16 C 0.15021 0.28692 0.3649 0.0
O17 O 0.16926 0.29337 0.3715 0.0
H18 H 0.18774 0.28122 0.32172 0.0
H19 H 0.22379 0.25651 0.37299 0.0
O20 O 0.18109 0.2293 0.33341 0.0
H21 H 0.17089 0.22409 0.4331 0.0
H22 H 0.25062 0.27661 0.34619 0.0
Cu23 Cu 0.50702 0.62734 0.97896 0.0
N24 N 0.48047 0.64076 0.97329 0.0
N25 N 0.45493 0.66088 0.95721 0.0
C26 C 0.47564 0.65394 0.95658 0.0
C27 C 0.44651 0.65166 0.97513 0.0
C28 C 0.46227 0.63931 0.98498 0.0
O29 O 0.52817 0.63907 0.95823 0.0
C30 C 0.48857 0.58622 0.96835 0.0
O31 O 0.47537 0.59757 0.95617 0.0
H32 H 0.48724 0.65851 0.94437 0.0
H33 H 0.46058 0.62981 0.99958 0.0
N34 N 0.51523 0.63376 1.00735 0.0
N35 N 0.52389 0.63001 0.04234 0.0
C36 C 0.51838 0.61977 0.02389 0.0
C37 C 0.51865 0.65348 1.01563 0.0
C38 C 0.52404 0.65123 0.03711 0.0
C39 C 0.52916 0.63226 0.93888 0.0
O40 O 0.51674 0.61605 0.93324 0.0
H41 H 0.51702 0.60242 1.0223 0.0
H42 H 0.51726 0.66844 1.00664 0.0
O43 O 0.50388 0.59585 0.97808 0.0
H44 H 0.43005 0.65338 0.98061 0.0
H45 H 0.52766 0.6643 0.04806 0.0
Cu46 Cu 0.8806 0.28609 0.34145 0.0
N47 N 0.89922 0.30881 0.34864 0.0
N48 N 0.92152 0.32934 0.3684 0.0
C49 C 0.90718 0.31283 0.36846 0.0
C50 C 0.92238 0.33601 0.34761 0.0
C51 C 0.90866 0.32333 0.3355 0.0
O52 O 0.88968 0.26065 0.35842 0.0
C53 C 0.8351 0.28206 0.34612 0.0
O54 O 0.83895 0.26157 0.34229 0.0
H55 H 0.9027 0.30349 0.38255 0.0
H56 H 0.9062 0.32423 0.31824 0.0
N57 N 0.8814 0.28052 0.31161 0.0
N58 N 0.86932 0.27607 0.27767 0.0
C59 C 0.86472 0.28305 0.29783 0.0
C60 C 0.89734 0.27191 0.29974 0.0
C61 C 0.88996 0.26915 0.27886 0.0
C62 C 0.90965 0.25571 0.35992 0.0
O63 O 0.92377 0.26723 0.34904 0.0
H64 H 0.84933 0.28956 0.30271 0.0
H65 H 0.91298 0.2673 0.30595 0.0
O66 O 0.851 0.295 0.34776 0.0
H67 H 0.93277 0.34861 0.34136 0.0
H68 H 0.89885 0.26165 0.2659 0.0
Cu69 Cu 0.54302 0.9081 0.96357 0.0
N70 N 0.5545 0.90531 0.93553 0.0
N71 N 0.57103 0.88729 0.90884 0.0
C72 C 0.56397 0.88669 0.92943 0.0
C73 C 0.56559 0.90721 0.90158 0.0
C74 C 0.55546 0.91834 0.91811 0.0
O75 O 0.52443 0.88236 0.96686 0.0
C76 C 0.58519 0.92166 0.97508 0.0
O77 O 0.59228 0.9145 0.95652 0.0
H78 H 0.56529 0.87278 0.93999 0.0
H79 H 0.5492 0.93463 0.91743 0.0
N80 N 0.52472 0.93146 0.97067 0.0
N81 N 0.51274 0.95065 0.99922 0.0
C82 C 0.52998 0.94395 0.98769 0.0
C83 C 0.50298 0.93097 0.97095 0.0
C84 C 0.49559 0.94277 0.9884 0.0
C85 C 0.51259 0.8787 0.95029 0.0
O86 O 0.51383 0.89182 0.93364 0.0
H87 H 0.54616 0.94508 0.99363 0.0
H88 H 0.49323 0.92031 0.96123 0.0
O89 O 0.56786 0.91345 0.98284 0.0
H90 H 0.56887 0.91341 0.88555 0.0
H91 H 0.47903 0.94361 0.99379 0.0
Cu92 Cu 0.13964 0.79725 0.2092 0.0
N93 N 0.13592 0.80944 0.18128 0.0
N94 N 0.11997 0.82733 0.15374 0.0
C95 C 0.11908 0.82193 0.17496 0.0
C96 C 0.13804 0.81758 0.14646 0.0
C97 C 0.14768 0.80653 0.16332 0.0
O98 O 0.11662 0.77516 0.21158 0.0
C99 C 0.14978 0.83877 0.22508 0.0
O100 O 0.14768 0.84501 0.20494 0.0
H101 H 0.10619 0.82657 0.18573 0.0
H102 H 0.16196 0.79664 0.16227 0.0
N103 N 0.16627 0.78377 0.21493 0.0
N104 N 0.19288 0.77328 0.23742 0.0
C105 C 0.17144 0.77651 0.23492 0.0
C106 C 0.18518 0.78531 0.20442 0.0
C107 C 0.20151 0.77858 0.21809 0.0
C108 C 0.11971 0.75824 0.20017 0.0
O109 O 0.13808 0.75659 0.18976 0.0
H110 H 0.15976 0.77495 0.24778 0.0
H111 H 0.18734 0.79252 0.18869 0.0
O112 O 0.14246 0.82028 0.23074 0.0
H113 H 0.14397 0.81825 0.13007 0.0
H114 H 0.21857 0.77902 0.2145 0.0
Cu115 Cu 0.03354 0.63771 0.0945 0.0
N116 N 0.03324 0.64492 0.12404 0.0
N117 N 0.04718 0.6637 0.15182 0.0
C118 C 0.05098 0.65408 0.13266 0.0
C119 C 0.02603 0.66011 0.15567 0.0
C120 C 1.01745 0.64849 0.13851 0.0
O121 O 0.03983 0.66478 0.07981 0.0
C122 C 0.04991 0.59597 0.09454 0.0
O123 O 0.03129 0.59303 0.10421 0.0
H124 H 0.066 0.65547 0.12389 0.0
H125 H 1.00063 0.64466 0.13597 0.0
N126 N 1.00992 0.62627 0.07928 0.0
N127 N 0.99584 0.61041 0.04981 0.0
C128 C 1.0137 0.61824 0.05945 0.0
C129 C 0.98862 0.62365 0.08249 0.0
C130 C 0.97987 0.61393 0.06425 0.0
C131 C 0.03235 0.68359 0.08395 0.0
O132 O 0.03946 0.70004 0.07255 0.0
H133 H 0.02951 0.61856 0.0521 0.0
H134 H 0.98008 0.62849 0.09687 0.0
O135 O 0.05562 0.61531 0.0899 0.0
H136 H 1.01712 0.66642 0.16924 0.0
H137 H 0.96311 0.60968 0.06194 0.0
Cu138 Cu 0.88946 0.74633 0.19206 0.0
N139 N 0.9122 0.72651 0.18673 0.0
N140 N 0.93909 0.71006 0.16881 0.0
C141 C 0.92052 0.72148 0.16716 0.0
C142 C 0.94253 0.70767 0.19016 0.0
C143 C 0.92592 0.71764 0.20114 0.0
O144 O 0.89435 0.77044 0.17219 0.0
C145 C 0.84491 0.74423 0.18165 0.0
O146 O 0.84778 0.76475 0.17695 0.0
H147 H 0.91381 0.72719 0.15204 0.0
H148 H 0.92447 0.71902 0.21844 0.0
N149 N 0.88868 0.75677 0.22078 0.0
N150 N 0.87493 0.77096 0.25123 0.0
C151 C 0.87087 0.76424 0.23084 0.0
C152 C 0.90467 0.75896 0.23534 0.0
C153 C 0.89623 0.76756 0.25412 0.0
C154 C 0.91327 0.7784 0.17091 0.0
O155 O 0.92829 0.77105 0.18399 0.0
H156 H 0.85516 0.76482 0.22325 0.0
H157 H 0.9214 0.75506 0.23243 0.0
O158 O 0.86121 0.73293 0.18725 0.0
H159 H 0.95632 0.69963 0.19732 0.0
H160 H 0.90524 0.77172 0.26847 0.0
Cu161 Cu 1.00201 0.90906 0.06338 0.0
N162 N 0.9822 0.88653 0.06771 0.0
N163 N 0.96393 0.86019 0.08475 0.0
C164 C 0.98238 0.87186 0.08389 0.0
C165 C 0.95174 0.86783 0.06833 0.0
C166 C 0.96294 0.88411 0.05801 0.0
O167 O 0.02764 0.90216 0.08102 0.0
C168 C 0.99118 0.95461 0.06471 0.0
O169 O 1.0111 0.9585 0.05871 0.0
H170 H 0.9953 0.87065 0.09555 0.0
H171 H 0.95699 0.89423 0.04503 0.0
N172 N 1.00973 0.91145 0.03405 0.0
N173 N 0.02347 0.9266 1.00405 0.0
C174 C 0.02486 0.9248 0.02579 0.0
C175 C 0.99866 0.90422 1.01683 0.0
C176 C 1.00705 0.91353 0.99836 0.0
C177 C 0.02782 0.90233 0.10161 0.0
O178 O 1.01099 0.91011 0.11181 0.0
H179 H 0.03578 0.93409 0.03569 0.0
H180 H 0.98474 0.89376 1.01764 0.0
O181 O 0.98578 0.9354 0.06993 0.0
H182 H 0.93562 0.86249 0.06432 0.0
H183 H 1.0011 0.91131 0.9821 0.0
Cu184 Cu 0.33757 0.12704 0.26871 0.0
N185 N 0.36547 0.12373 0.25695 0.0
N186 N 0.39112 0.1096 0.23565 0.0
C187 C 0.36973 0.11168 0.23939 0.0
C188 C 0.40076 0.12071 0.25168 0.0
C189 C 0.38491 0.12939 0.26479 0.0
O190 O 0.33442 0.10314 0.28973 0.0
C191 C 0.32308 0.14553 0.23129 0.0
O192 O 0.3431 0.15233 0.23208 0.0
H193 H 0.35727 0.10395 0.22993 0.0
H194 H 0.38742 0.13865 0.27932 0.0
N195 N 0.33131 0.15269 0.28326 0.0
N196 N 0.30754 0.17793 0.29386 0.0
C197 C 0.31073 0.15699 0.28872 0.0
C198 C 0.34182 0.17158 0.28499 0.0
C199 C 0.32725 0.18713 0.29173 0.0
C200 C 0.34484 0.10596 0.30735 0.0
O201 O 0.35499 0.12437 0.30999 0.0
H202 H 0.29802 0.14517 0.28705 0.0
H203 H 0.35841 0.17421 0.28029 0.0
O204 O 0.31702 0.1311 0.24488 0.0
H205 H 0.41799 0.12241 0.25382 0.0
H206 H 0.33086 0.20405 0.29399 0.0
Cu207 Cu 0.41251 0.44263 0.04354 0.0
N208 N 0.41014 0.42094 0.0647 0.0
N209 N 0.3931 0.4008 0.0897 0.0
C210 C 0.39313 0.41942 0.07816 0.0
C211 C 0.41097 0.39018 0.08318 0.0
C212 C 0.4214 0.40261 0.06773 0.0
O213 O 0.39344 0.43423 1.01957 0.0
C214 C 0.41245 0.48439 0.06612 0.0
O215 O 0.40137 0.50116 0.07274 0.0
H216 H 0.38032 0.43127 0.07848 0.0
H217 H 0.43561 0.39813 0.0587 0.0
N218 N 0.4402 0.4486 0.03303 0.0
N219 N 0.46547 0.46987 1.01814 0.0
C220 C 0.44419 0.46555 1.01993 0.0
C221 C 0.45966 0.44155 0.03958 0.0
C222 C 0.47529 0.45466 0.03044 0.0
C223 C 0.39959 0.42033 1.00575 0.0
O224 O 0.41922 0.41249 1.00734 0.0
H225 H 0.43152 0.47581 1.0136 0.0
H226 H 0.46226 0.42893 0.05143 0.0
O227 O 0.40223 0.4691 0.05679 0.0
H228 H 0.41595 0.37436 0.08877 0.0
H229 H 0.49242 0.45375 0.03359 0.0
Cu230 Cu 0.69056 0.38123 0.28305 0.0
N231 N 0.66071 0.38433 0.27886 0.0
N232 N 0.63241 0.39931 0.26168 0.0
C233 C 0.65229 0.39054 0.25972 0.0
C234 C 0.62808 0.39849 0.28302 0.0
C235 C 0.64558 0.38934 0.29356 0.0
O236 O 0.69919 0.41098 0.28944 0.0
C237 C 0.69393 0.3486 0.25439 0.0
O238 O 0.6772 0.34318 0.26622 0.0
H239 H 0.66157 0.39077 0.24494 0.0
H240 H 0.64792 0.38836 0.31084 0.0
N241 N 0.69972 0.36273 0.30538 0.0
N242 N 0.72437 0.34351 0.32377 0.0
C243 C 0.72082 0.35984 0.30972 0.0
C244 C 0.68938 0.34747 0.31696 0.0
C245 C 0.7046 0.33555 0.32835 0.0
C246 C 0.7019 0.41687 0.30899 0.0
O247 O 0.70461 0.40205 0.32395 0.0
H248 H 0.73345 0.36896 0.30178 0.0
H249 H 0.6722 0.34456 0.31639 0.0
O250 O 0.70255 0.36706 0.2576 0.0
H251 H 0.61386 0.40513 0.2906 0.0
H252 H 0.7014 0.32186 0.3388 0.0
Cu253 Cu 0.65215 0.08626 1.01401 0.0
N254 N 0.65352 0.11553 1.02231 0.0
N255 N 0.66726 0.14325 0.04113 0.0
C256 C 0.66355 0.12177 0.04057 0.0
C257 C 0.65947 0.15098 1.02229 0.0
C258 C 0.65102 0.13383 1.01068 0.0
O259 O 0.67937 0.08259 0.99788 0.0
C260 C 0.6289 0.07611 0.05106 0.0
O261 O 0.62474 0.09686 0.04988 0.0
H262 H 0.66911 0.11049 0.05278 0.0
H263 H 0.64462 0.13454 0.99445 0.0
N264 N 0.62969 0.07699 0.99599 0.0
N265 N 0.6124 0.04715 0.98485 0.0
C266 C 0.63148 0.05752 0.98636 0.0
C267 C 0.60851 0.0791 1.00031 0.0
C268 C 0.59785 0.0607 0.99356 0.0
C269 C 0.67869 0.09151 0.97917 0.0
O270 O 0.66012 0.09927 0.97251 0.0
H271 H 0.64684 0.04965 0.98377 0.0
H272 H 0.60179 0.09147 1.01055 0.0
O273 O 0.64414 0.06854 0.03932 0.0
H274 H 0.66018 0.1677 1.01713 0.0
H275 H 0.58114 0.05672 0.9967 0.0
Cu276 Cu 0.32927 0.88772 0.26873 0.0
N277 N 0.33844 0.90775 0.28982 0.0
N278 N 0.35994 0.9276 0.31126 0.0
C279 C 0.35844 0.9101 0.29826 0.0
C280 C 0.34006 0.93648 0.31102 0.0
C281 C 0.32691 0.92425 0.29787 0.0
O282 O 0.346 0.89386 0.24221 0.0
C283 C 0.32756 0.84126 0.27049 0.0
O284 O 0.31985 0.84287 0.2508 0.0
H285 H 0.37178 0.89954 0.29442 0.0
H286 H 0.31019 0.92747 0.29407 0.0
N287 N 0.29942 0.89096 0.26301 0.0
N288 N 0.26402 0.88372 0.2587 0.0
C289 C 0.28334 0.87644 0.26609 0.0
C290 C 0.28989 0.90804 0.2535 0.0
C291 C 0.26824 0.90368 0.25084 0.0
C292 C 0.34945 0.91357 0.23692 0.0
O293 O 0.34123 0.92882 0.24904 0.0
H294 H 0.28584 0.86075 0.27341 0.0
H295 H 0.2982 0.92251 0.24834 0.0
O296 O 0.33363 0.85838 0.28016 0.0
H297 H 0.33528 0.95072 0.31985 0.0
H298 H 0.25674 0.91418 0.24289 0.0
Cu299 Cu 0.14689 0.45676 0.02367 0.0
N300 N 0.14873 0.43771 1.00012 0.0
N301 N 0.16626 0.41656 0.97654 0.0
C302 C 0.16769 0.4286 0.99459 0.0
C303 C 0.14542 0.41807 0.97038 0.0
C304 C 0.13459 0.431 0.98505 0.0
O305 O 0.16704 0.4437 0.04472 0.0
C306 C 0.14559 0.50019 1.00473 0.0
O307 O 0.15514 0.51873 1.00088 0.0
H308 H 0.18249 0.4312 1.00347 0.0
H309 H 0.11772 0.43537 0.98453 0.0
N310 N 0.1197 0.46207 0.03581 0.0
N311 N 0.09443 0.48284 0.05136 0.0
C312 C 0.11575 0.47928 0.04853 0.0
C313 C 0.10021 0.45419 0.03057 0.0
C314 C 0.08463 0.46688 0.04019 0.0
C315 C 0.16286 0.43586 0.06338 0.0
O316 O 0.14369 0.43887 0.07183 0.0
H317 H 0.12838 0.48977 0.05439 0.0
H318 H 0.09746 0.44117 1.01936 0.0
O319 O 0.15664 0.485 1.01354 0.0
H320 H 0.13847 0.41023 0.95645 0.0
H321 H 0.06742 0.46532 0.03779 0.0
Cu322 Cu 0.69231 0.66142 0.25466 0.0
N323 N 0.66217 0.66075 0.25642 0.0
N324 N 0.63399 0.645 0.27303 0.0
C325 C 0.65267 0.65598 0.27544 0.0
C326 C 0.63137 0.64306 0.25151 0.0
C327 C 0.64876 0.65274 0.24133 0.0
O328 O 0.69762 0.63022 0.25214 0.0
C329 C 0.69584 0.69757 0.27943 0.0
O330 O 0.68107 0.70268 0.26506 0.0
H331 H 0.66097 0.65757 0.29073 0.0
H332 H 0.65279 0.65122 0.22443 0.0
N333 N 0.70473 0.67568 0.23093 0.0
N334 N 0.73209 0.69012 0.21207 0.0
C335 C 0.72609 0.67955 0.23019 0.0
C336 C 0.69667 0.68443 0.2127 0.0
C337 C 0.71356 0.69342 0.20103 0.0
C338 C 0.70494 0.62183 0.23484 0.0
O339 O 0.71758 0.63341 0.22237 0.0
H340 H 0.73704 0.67469 0.24293 0.0
H341 H 0.6798 0.68432 0.20823 0.0
O342 O 0.70322 0.67824 0.27932 0.0
H343 H 0.61886 0.63368 0.24377 0.0
H344 H 0.71233 0.70144 0.18551 0.0
Cu345 Cu 0.8965 0.10913 1.00097 0.0
N346 N 0.87164 0.11454 0.98394 0.0
N347 N 0.84534 0.13288 0.9666 0.0
C348 C 0.86606 0.13316 0.97374 0.0
C349 C 0.83774 0.11329 0.9725 0.0
C350 C 0.85378 0.10221 0.98326 0.0
O351 O 0.89155 0.12462 0.0279 0.0
C352 C 0.94104 0.11804 0.9949 0.0
O353 O 0.94164 0.1171 1.01607 0.0
H354 H 0.87654 0.14711 0.97278 0.0
H355 H 0.85199 0.08676 0.99121 0.0
N356 N 0.90053 0.07954 1.00752 0.0
N357 N 0.91632 0.04966 1.02088 0.0
C358 C 0.9155 0.07148 1.02125 0.0
C359 C 0.8917 0.06211 0.99805 0.0
C360 C 0.90123 0.04371 1.00641 0.0
C361 C 0.87777 0.1164 0.04083 0.0
O362 O 0.86917 0.09764 0.03599 0.0
H363 H 0.92601 0.08142 0.03094 0.0
H364 H 0.88001 0.06266 0.98513 0.0
O365 O 0.92276 0.11738 0.98545 0.0
H366 H 0.8215 0.10752 0.96982 0.0
H367 H 0.89822 0.0273 1.00127 0.0
Cu368 Cu 0.2675 0.30986 0.16763 0.0
N369 N 0.2452 0.32187 0.15016 0.0
N370 N 0.2245 0.34507 0.13122 0.0
C371 C 0.23876 0.3427 0.14767 0.0
C372 C 0.22161 0.32509 0.12329 0.0
C373 C 0.23415 0.31091 0.13501 0.0
O374 O 0.29506 0.32274 0.15856 0.0
C375 C 0.275 0.30665 0.21271 0.0
O376 O 0.29432 0.30099 0.20615 0.0
H377 H 0.24488 0.35597 0.15716 0.0
H378 H 0.23541 0.29375 0.13227 0.0
N379 N 0.27038 0.28008 0.16159 0.0
N380 N 0.27845 0.24474 0.16434 0.0
C381 C 0.27363 0.2631 0.17515 0.0
C382 C 0.2732 0.27204 0.14168 0.0
C383 C 0.278 0.25041 0.14329 0.0
C384 C 0.29978 0.34278 0.15769 0.0
O385 O 0.28609 0.35696 0.16536 0.0
H386 H 0.27391 0.26442 0.19254 0.0
H387 H 0.27291 0.28156 0.127 0.0
O388 O 0.26116 0.31255 0.19861 0.0
H389 H 0.2112 0.32108 0.10985 0.0
H390 H 0.28185 0.23987 0.12997 0.0
Cu391 Cu 0.26559 0.71399 0.37708 0.0
N392 N 0.24809 0.69042 0.38597 0.0
N393 N 0.22692 0.67107 0.40833 0.0
C394 C 0.24029 0.68822 0.40622 0.0
C395 C 0.22637 0.66195 0.38862 0.0
C396 C 0.23954 0.67379 0.37492 0.0
O397 O 0.28689 0.71804 0.4005 0.0
C398 C 0.23521 0.73183 0.35067 0.0
O399 O 0.23452 0.71124 0.34592 0.0
H400 H 0.24408 0.6993 0.41913 0.0
H401 H 0.2424 0.67058 0.35804 0.0
N402 N 0.28239 0.71123 0.3521 0.0
N403 N 0.29827 0.7274 0.32373 0.0
C404 C 0.29268 0.72894 0.34469 0.0
C405 C 0.2817 0.69759 0.33529 0.0
C406 C 0.29155 0.70751 0.31778 0.0
C407 C 0.30008 0.70214 0.40175 0.0
O408 O 0.29755 0.68619 0.38807 0.0
H409 H 0.29361 0.74372 0.35389 0.0
H410 H 0.27288 0.68253 0.33508 0.0
O411 O 0.24677 0.73768 0.36679 0.0
H412 H 0.21739 0.64756 0.3845 0.0
H413 H 0.29228 0.70115 0.30157 0.0
Cu414 Cu 0.98275 0.53607 0.92889 0.0
N415 N 0.95799 0.5535 0.93029 0.0
N416 N 0.9341 0.57804 0.91806 0.0
C417 C 0.9529 0.56762 0.91441 0.0
C418 C 0.92707 0.57 0.93714 0.0
C419 C 0.94179 0.55488 0.94462 0.0
O420 O 0.97671 0.51323 0.90739 0.0
C421 C 1.01551 0.56969 0.92946 0.0
O422 O 0.03052 0.58076 0.91936 0.0
H423 H 0.96266 0.56965 0.90009 0.0
H424 H 0.9405 0.54539 0.95924 0.0
N425 N 0.99404 0.52474 0.95492 0.0
N426 N 1.02051 0.51607 0.97832 0.0
C427 C 1.01477 0.51823 0.95735 0.0
C428 C 0.98634 0.52648 0.97512 0.0
C429 C 1.00258 0.52122 0.98952 0.0
C430 C 0.95948 0.50189 0.90852 0.0
O431 O 0.94665 0.50468 0.92511 0.0
H432 H 0.02603 0.51727 0.94406 0.0
H433 H 0.97067 0.53286 0.97922 0.0
O434 O 1.00478 0.55577 0.91865 0.0
H435 H 0.9123 0.5746 0.94517 0.0
H436 H 1.00163 0.5224 1.00691 0.0
Cu437 Cu 0.77404 0.83924 0.37277 0.0
N438 N 0.78269 0.8683 0.37263 0.0
N439 N 0.80201 0.89392 0.38951 0.0
C440 C 0.80221 0.87414 0.38033 0.0
C441 C 0.78157 0.90099 0.3873 0.0
C442 C 0.76972 0.8852 0.37692 0.0
O443 O 0.76215 0.83814 0.40229 0.0
C444 C 0.80372 0.82631 0.34344 0.0
O445 O 0.79336 0.84232 0.33404 0.0
H446 H 0.81551 0.86291 0.3819 0.0
H447 H 0.75235 0.88491 0.37531 0.0
N448 N 0.75254 0.83129 0.35283 0.0
N449 N 0.73208 0.80931 0.33255 0.0
C450 C 0.7471 0.81064 0.34834 0.0
C451 C 0.74072 0.84354 0.33932 0.0
C452 C 0.72806 0.83008 0.32689 0.0
C453 C 0.74216 0.84276 0.40487 0.0
O454 O 0.72893 0.83988 0.3886 0.0
H455 H 0.7541 0.79687 0.35658 0.0
H456 H 0.7415 0.86097 0.33835 0.0
O457 O 0.79904 0.82194 0.36315 0.0
H458 H 0.77527 0.91575 0.39415 0.0
H459 H 0.7171 0.83528 0.3143 0.0
Cu460 Cu 0.58798 0.52775 0.38877 0.0
N461 N 0.61782 0.52307 0.38867 0.0
N462 N 0.64915 0.50894 0.37776 0.0
C463 C 0.62776 0.5105 0.37408 0.0
C464 C 0.65283 0.52115 0.39539 0.0
C465 C 0.63347 0.53002 0.40199 0.0
O466 O 0.58293 0.54337 0.36146 0.0
C467 C 0.582 0.48871 0.41009 0.0
O468 O 0.60165 0.4936 0.41624 0.0
H469 H 0.61924 0.50193 0.36151 0.0
H470 H 0.63092 0.54039 0.41573 0.0
N471 N 0.57777 0.5448 0.41132 0.0
N472 N 0.55042 0.55878 0.4302 0.0
C473 C 0.55838 0.55456 0.41042 0.0
C474 C 0.58233 0.54285 0.43249 0.0
C475 C 0.5655 0.55155 0.44419 0.0
C476 C 0.59092 0.56245 0.36143 0.0
O477 O 0.59936 0.56964 0.37948 0.0
H478 H 0.54926 0.55638 0.39561 0.0
H479 H 0.59582 0.53386 0.439 0.0
O480 O 0.5732 0.50027 0.39529 0.0
H481 H 0.66834 0.52329 0.40313 0.0
H482 H 0.56395 0.55148 0.46159 0.0
Cu483 Cu 0.28164 0.72165 0.66471 0.0
N484 N 0.29902 0.71622 0.64062 0.0
N485 N 0.31981 0.69744 0.61792 0.0
C486 C 0.31284 0.69955 0.63846 0.0
C487 C 0.31009 0.71347 0.60675 0.0
C488 C 0.29728 0.72502 0.62078 0.0
O489 O 0.25735 0.70164 0.66162 0.0
C490 C 0.29223 0.72228 0.70942 0.0
O491 O 0.27159 0.72632 0.71182 0.0
H492 H 0.31683 0.68849 0.65146 0.0
H493 H 0.28672 0.7383 0.6166 0.0
N494 N 0.27215 0.7505 0.66528 0.0
N495 N 0.25594 0.78027 0.67795 0.0
C496 C 0.25572 0.75841 0.67709 0.0
C497 C 0.28303 0.76797 0.65821 0.0
C498 C 0.27307 0.78631 0.66594 0.0
C499 C 0.2451 0.70462 0.64529 0.0
O500 O 0.24787 0.72216 0.63359 0.0
H501 H 0.24471 0.74825 0.6861 0.0
H502 H 0.2979 0.76736 0.64914 0.0
O503 O 0.29928 0.71777 0.69067 0.0
H504 H 0.31191 0.71648 0.58963 0.0
H505 H 0.27848 0.80275 0.66347 0.0
Cu506 Cu 0.94675 0.52587 0.63993 0.0
N507 N 0.91814 0.51598 0.64317 0.0
N508 N 0.89033 0.49958 0.65977 0.0
C509 C 0.91072 0.50702 0.66169 0.0
C510 C 0.88465 0.50412 0.63919 0.0
C511 C 0.90173 0.51437 0.62905 0.0
O512 O 0.95105 0.54081 0.66745 0.0
C513 C 0.95908 0.49225 0.61462 0.0
O514 O 0.94211 0.50025 0.60472 0.0
H515 H 0.92054 0.50503 0.67602 0.0
H516 H 0.90233 0.51951 0.61236 0.0
N517 N 0.95227 0.54516 0.61681 0.0
N518 N 0.97187 0.56264 0.59166 0.0
C519 C 0.97227 0.55041 0.60983 0.0
C520 C 0.93869 0.55449 0.6026 0.0
C521 C 0.9507 0.56523 0.58711 0.0
C522 C 0.94291 0.55976 0.66866 0.0
O523 O 0.93666 0.56932 0.65076 0.0
H524 H 0.98686 0.54449 0.61742 0.0
H525 H 0.92132 0.55319 0.60315 0.0
O526 O 0.96462 0.50064 0.63263 0.0
H527 H 0.86942 0.49986 0.6318 0.0
H528 H 0.9443 0.57407 0.57341 0.0
Cu529 Cu 0.07682 1.01345 0.65303 0.0
N530 N 0.10687 1.01768 0.6537 0.0
N531 N 0.13684 0.03509 0.66418 0.0
C532 C 0.11653 0.03703 0.65644 0.0
C533 C 0.14017 1.01369 0.66644 0.0
C534 C 0.12168 1.003 0.66 0.0
O535 O 0.07173 1.00281 0.68256 0.0
C536 C 0.0705 0.04548 0.6241 0.0
O537 O 0.08558 0.03333 0.61555 0.0
H538 H 0.10812 0.05227 0.65484 0.0
H539 H 0.11855 0.9859 0.66175 0.0
N540 N 0.06709 0.99303 0.63282 0.0
N541 N 0.0439 0.9742 0.61243 0.0
C542 C 0.04652 0.99125 0.62568 0.0
C543 C 0.07792 0.97676 0.62351 0.0
C544 C 0.06365 0.96506 0.61106 0.0
C545 C 0.06806 0.9828 0.68621 0.0
O546 O 0.06051 0.97086 0.6705 0.0
H547 H 0.03355 1.00167 0.63091 0.0
H548 H 0.09481 0.97328 0.62612 0.0
O549 O 0.06365 0.04046 0.64292 0.0
H550 H 0.1545 1.00637 0.67327 0.0
H551 H 0.06743 0.95065 0.602 0.0
Cu552 Cu 0.6372 0.75148 0.83068 0.0
N553 N 0.61724 0.72924 0.83712 0.0
N554 N 0.59644 0.70605 0.85609 0.0
C555 C 0.60899 0.72403 0.8567 0.0
C556 C 0.5969 0.69987 0.83521 0.0
C557 C 0.60973 0.71399 0.8237 0.0
O558 O 0.6282 0.77808 0.84542 0.0
C559 C 0.67383 0.72653 0.8267 0.0
O560 O 0.66196 0.7191 0.81082 0.0
H561 H 0.61271 0.7329 0.8712 0.0
H562 H 0.61375 0.7128 0.8068 0.0
N563 N 0.63958 0.7578 0.80086 0.0
N564 N 0.65564 0.76874 0.77015 0.0
C565 C 0.65691 0.76753 0.79193 0.0
C566 C 0.62672 0.7528 0.78407 0.0
C567 C 0.63662 0.75944 0.76512 0.0
C568 C 0.63088 0.78131 0.86553 0.0
O569 O 0.64105 0.76659 0.87701 0.0
H570 H 0.6705 0.77319 0.80131 0.0
H571 H 0.61127 0.74484 0.78541 0.0
O572 O 0.6659 0.74103 0.83894 0.0
H573 H 0.58864 0.68605 0.82854 0.0
H574 H 0.63016 0.75789 0.74898 0.0
Cu575 Cu 1.01566 0.13196 0.46542 0.0
N576 N 0.99187 0.14915 0.45667 0.0
N577 N 0.97035 0.17175 0.43783 0.0
C578 C 0.9898 0.16166 0.4388 0.0
C579 C 0.95994 0.16529 0.45586 0.0
C580 C 0.97314 0.15149 0.46733 0.0
O581 O 0.04241 0.14416 0.45332 0.0
C582 C 0.99479 0.09215 0.4681 0.0
O583 O 0.98293 0.10394 0.48102 0.0
H584 H 1.00227 0.16324 0.42672 0.0
H585 H 0.96933 0.14389 0.48259 0.0
N586 N 1.01883 0.13223 0.49558 0.0
N587 N 0.02934 0.12099 0.5284 0.0
C588 C 0.03081 0.11796 0.50687 0.0
C589 C 1.00947 0.14488 0.5105 0.0
C590 C 1.01585 0.13791 0.53078 0.0
C591 C 0.048 0.14306 0.43358 0.0
O592 O 0.0357 0.13231 0.42011 0.0
H593 H 0.04004 0.10522 0.49936 0.0
H594 H 0.99868 0.15814 0.50695 0.0
O595 O 1.01048 0.1013 0.45827 0.0
H596 H 0.94406 0.17054 0.46079 0.0
H597 H 1.01114 0.14488 0.54604 0.0
Cu598 Cu 0.36624 0.78363 0.87409 0.0
N599 N 0.38645 0.80485 0.88211 0.0
N600 N 0.41416 0.821 0.89882 0.0
C601 C 0.40665 0.80245 0.89011 0.0
C602 C 0.39827 0.83559 0.89605 0.0
C603 C 0.38128 0.82563 0.88578 0.0
O604 O 0.37158 0.75852 0.89267 0.0
C605 C 0.31936 0.78834 0.87558 0.0
O606 O 0.31801 0.76718 0.87643 0.0
H607 H 0.41521 0.78723 0.89065 0.0
H608 H 0.36576 0.83276 0.88221 0.0
N609 N 0.36818 0.77562 0.84491 0.0
N610 N 0.35685 0.76327 0.81285 0.0
C611 C 0.35255 0.76506 0.83413 0.0
C612 C 0.38313 0.78056 0.82996 0.0
C613 C 0.37623 0.77287 0.81017 0.0
C614 C 0.38783 0.74679 0.88802 0.0
O615 O 0.39864 0.7512 0.87032 0.0
H616 H 0.33805 0.75912 0.84172 0.0
H617 H 0.39763 0.78974 0.83308 0.0
O618 O 0.33783 0.79731 0.87658 0.0
H619 H 0.39881 0.8522 0.90136 0.0
H620 H 0.38437 0.7751 0.79489 0.0
Cu621 Cu 0.03897 0.39976 0.47155 0.0
N622 N 0.05576 0.37553 0.46436 0.0
N623 N 0.0751 0.35299 0.44376 0.0
C624 C 0.06852 0.3736 0.44682 0.0
C625 C 0.06622 0.34156 0.46007 0.0
C626 C 0.05431 0.35546 0.47269 0.0
O627 O 1.01417 0.39874 0.4521 0.0
C628 C 0.04763 0.44449 0.46935 0.0
O629 O 0.0265 0.44599 0.46896 0.0
H630 H 0.07201 0.38685 0.43591 0.0
H631 H 0.0445 0.35105 0.48645 0.0
N632 N 0.03001 0.39959 0.50058 0.0
N633 N 1.01497 0.4123 0.53095 0.0
C634 C 1.01453 0.41227 0.50909 0.0
C635 C 0.0406 0.39124 0.51767 0.0
C636 C 0.03135 0.39898 0.53638 0.0
C637 C 1.00173 0.38243 0.45385 0.0
O638 O 1.00495 0.36886 0.46991 0.0
H639 H 1.00407 0.42241 0.49939 0.0
H640 H 0.05484 0.38122 0.51661 0.0
O641 O 0.05627 0.42586 0.46861 0.0
H642 H 0.06802 0.32434 0.46257 0.0
H643 H 0.03667 0.39553 0.55268 0.0
Cu644 Cu 0.67861 0.29051 0.69087 0.0
N645 N 0.67559 0.30508 0.66404 0.0
N646 N 0.65971 0.32722 0.63978 0.0
C647 C 0.66038 0.32036 0.66056 0.0
C648 C 0.67528 0.31569 0.62981 0.0
C649 C 0.685 0.30206 0.64475 0.0
O650 O 0.65084 0.27474 0.69327 0.0
C651 C 0.70921 0.31875 0.7042 0.0
O652 O 0.7131 0.3162 0.68356 0.0
H653 H 0.64939 0.32565 0.673 0.0
H654 H 0.69763 0.29045 0.64165 0.0
N655 N 0.6991 0.26848 0.695 0.0
N656 N 0.71779 0.24994 0.72019 0.0
C657 C 0.69846 0.25804 0.71415 0.0
C658 C 0.71962 0.26648 0.68823 0.0
C659 C 0.73111 0.25486 0.70364 0.0
C660 C 0.64987 0.26052 0.67826 0.0
O661 O 0.6666 0.25881 0.66541 0.0
H662 H 0.68449 0.25865 0.72455 0.0
H663 H 0.72641 0.27504 0.67458 0.0
O664 O 0.69138 0.31121 0.71165 0.0
H665 H 0.67931 0.3168 0.61286 0.0
H666 H 0.74838 0.25236 0.70368 0.0
Cu667 Cu 0.52754 0.15626 0.57869 0.0
N668 N 0.53971 0.16256 0.60602 0.0
N669 N 0.56153 0.17999 0.62925 0.0
C670 C 0.55846 0.17334 0.60867 0.0
C671 C 0.54393 0.17305 0.64004 0.0
C672 C 0.53052 0.16236 0.62571 0.0
O673 O 0.5091 0.18162 0.57202 0.0
C674 C 0.55928 0.1289 0.56681 0.0
O675 O 0.55306 0.12188 0.58585 0.0
H676 H 0.56908 0.17734 0.59539 0.0
H677 H 0.51473 0.15586 0.62924 0.0
N678 N 0.50929 0.13201 0.57669 0.0
N679 N 0.49057 0.10603 0.55981 0.0
C680 C 0.50219 0.12435 0.55758 0.0
C681 C 0.50207 0.11797 0.59164 0.0
C682 C 0.49041 0.10202 0.5813 0.0
C683 C 0.49148 0.1818 0.58285 0.0
O684 O 0.4875 0.1654 0.59575 0.0
H685 H 0.50559 0.13216 0.5423 0.0
H686 H 0.50535 0.11903 0.60875 0.0
O687 O 0.55125 0.14669 0.55975 0.0
H688 H 0.54078 0.1758 0.65697 0.0
H689 H 0.48281 0.08828 0.58902 0.0
Cu690 Cu 0.38069 0.28722 0.67434 0.0
N691 N 0.38284 0.28222 0.6444 0.0
N692 N 0.4005 0.2644 0.61823 0.0
C693 C 0.39065 0.26306 0.63764 0.0
C694 C 0.39858 0.28529 0.61226 0.0
C695 C 0.38768 0.29623 0.62838 0.0
O696 O 0.41057 0.29604 0.68039 0.0
C697 C 0.34884 0.25756 0.67816 0.0
O698 O 0.34341 0.26935 0.66132 0.0
H699 H 0.39159 0.249 0.64807 0.0
H700 H 0.38565 0.31354 0.6293 0.0
N701 N 0.36286 0.30911 0.68566 0.0
N702 N 0.34783 0.32633 0.71382 0.0
C703 C 0.36469 0.31455 0.70662 0.0
C704 C 0.34402 0.31777 0.67914 0.0
C705 C 0.33475 0.32846 0.69646 0.0
C706 C 0.41439 0.31529 0.67374 0.0
O707 O 0.39822 0.32723 0.66702 0.0
H708 H 0.37745 0.30834 0.71684 0.0
H709 H 0.33682 0.31529 0.66344 0.0
O710 O 0.36714 0.26129 0.68703 0.0
H711 H 0.40578 0.29243 0.59801 0.0
H712 H 0.31921 0.33641 0.69643 0.0
Cu713 Cu 0.53604 0.42682 0.57719 0.0
N714 N 0.51429 0.41461 0.59482 0.0
N715 N 0.49467 0.3916 0.615 0.0
C716 C 0.50831 0.39377 0.59799 0.0
C717 C 0.49192 0.41178 0.62258 0.0
C718 C 0.50398 0.42578 0.61025 0.0
O719 O 0.56381 0.41473 0.58742 0.0
C720 C 0.51489 0.46615 0.57144 0.0
O721 O 0.49991 0.45218 0.56604 0.0
H722 H 0.51452 0.38041 0.58868 0.0
H723 H 0.5058 0.44293 0.6129 0.0
N724 N 0.53287 0.42037 0.54774 0.0
N725 N 0.53872 0.42501 0.51227 0.0
C726 C 0.54693 0.42681 0.53241 0.0
C727 C 0.51511 0.41414 0.5369 0.0
C728 C 0.51866 0.41703 0.51501 0.0
C729 C 0.56821 0.41337 0.60752 0.0
O730 O 0.555 0.42249 0.6213 0.0
H731 H 0.56229 0.43425 0.53609 0.0
H732 H 0.50014 0.40925 0.54442 0.0
O733 O 0.53305 0.45874 0.57805 0.0
H734 H 0.48192 0.41613 0.63619 0.0
H735 H 0.50715 0.41418 0.5022 0.0
Cu736 Cu 0.85301 0.66609 0.80035 0.0
N737 N 0.85854 0.64321 0.78124 0.0
N738 N 0.87583 0.62176 0.75785 0.0
C739 C 0.8738 0.64202 0.76574 0.0
C740 C 0.86116 0.60984 0.76871 0.0
C741 C 0.85061 0.62306 0.7831 0.0
O742 O 0.87177 0.66088 0.8254 0.0
C743 C 0.84617 0.69688 0.76769 0.0
O744 O 0.83747 0.67979 0.75869 0.0
H745 H 0.88393 0.65551 0.76112 0.0
H746 H 0.83857 0.61815 0.79474 0.0
N747 N 0.82475 0.6646 0.81113 0.0
N748 N 0.79049 0.67357 0.81814 0.0
C749 C 0.80716 0.67549 0.80423 0.0
C750 C 0.81889 0.65542 0.82998 0.0
C751 C 0.7978 0.66093 0.83436 0.0
C752 C 0.89157 0.65566 0.82379 0.0
O753 O 0.90106 0.65735 0.80493 0.0
H754 H 0.80687 0.68554 0.7899 0.0
H755 H 0.82954 0.64611 0.84028 0.0
O756 O 0.85553 0.69449 0.78593 0.0
H757 H 0.85838 0.59273 0.76657 0.0
H758 H 0.78863 0.65626 0.84848 0.0
Cu759 Cu 0.91215 0.93424 0.51392 0.0
N760 N 0.90681 0.9055 0.52325 0.0
N761 N 0.88912 0.88111 0.54376 0.0
C762 C 0.89681 0.9015 0.54221 0.0
C763 C 0.89446 0.87175 0.5249 0.0
C764 C 0.90533 0.88681 0.51227 0.0
O765 O 0.88583 0.94086 0.49698 0.0
C766 C 0.93735 0.94077 0.54937 0.0
O767 O 0.94213 0.92107 0.54327 0.0
H768 H 0.89383 0.91392 0.55406 0.0
H769 H 0.91052 0.88461 0.49579 0.0
N770 N 0.93518 0.94166 0.49538 0.0
N771 N 0.95383 0.97037 0.48275 0.0
C772 C 0.9342 0.96146 0.48621 0.0
C773 C 0.95642 0.93741 0.49709 0.0
C774 C 0.96793 0.95498 0.48915 0.0
C775 C 0.88619 0.93144 0.47859 0.0
O776 O 0.90365 0.92067 0.4734 0.0
H777 H 0.9192 0.97026 0.48486 0.0
H778 H 0.96315 0.92399 0.50607 0.0
O779 O 0.92171 0.9504 0.53971 0.0
H780 H 0.89027 0.85545 0.5203 0.0
H781 H 0.98518 0.95725 0.49053 0.0
Cu782 Cu 0.18463 0.88611 0.79281 0.0
N783 N 0.15586 0.88731 0.78292 0.0
N784 N 0.12638 0.89987 0.76581 0.0
C785 C 0.14709 0.9038 0.7715 0.0
C786 C 0.122 0.88013 0.77413 0.0
C787 C 0.14011 0.87245 0.78459 0.0
O788 O 0.18946 0.91413 0.80658 0.0
C789 C 0.19784 0.86012 0.75991 0.0
O790 O 0.18124 0.84966 0.76795 0.0
H791 H 0.15604 0.91809 0.76685 0.0
H792 H 0.14178 0.85686 0.7923 0.0
N793 N 0.19013 0.86434 0.81358 0.0
N794 N 0.20915 0.84082 0.83371 0.0
C795 C 0.20995 0.85693 0.81889 0.0
C796 C 0.17633 0.85261 0.82563 0.0
C797 C 0.18799 0.83806 0.83794 0.0
C798 C 0.17782 0.91678 0.82334 0.0
O799 O 0.16537 0.90075 0.82955 0.0
H800 H 0.22465 0.86292 0.81161 0.0
H801 H 0.15903 0.85453 0.82565 0.0
O802 O 0.20281 0.87833 0.76816 0.0
H803 H 0.10684 0.87163 0.77263 0.0
H804 H 0.18139 0.82648 0.84928 0.0
Cu805 Cu 0.13145 0.59707 0.53374 0.0
N806 N 0.15059 0.60337 0.55651 0.0
N807 N 0.17138 0.62196 0.57965 0.0
C808 C 0.15711 0.62308 0.56307 0.0
C809 C 0.17371 0.60061 0.58368 0.0
C810 C 0.1609 0.58926 0.56948 0.0
O811 O 0.13898 0.61559 0.50867 0.0
C812 C 0.08402 0.59656 0.53693 0.0
O813 O 0.08322 0.59452 0.51586 0.0
H814 H 0.15149 0.63791 0.55566 0.0
H815 H 0.15942 0.57189 0.56848 0.0
N816 N 0.13517 0.56837 0.52483 0.0
N817 N 0.12807 0.53539 0.51179 0.0
C818 C 0.11971 0.55418 0.51904 0.0
C819 C 0.15396 0.55819 0.52118 0.0
C820 C 0.14966 0.53788 0.51322 0.0
C821 C 0.15905 0.61852 0.50469 0.0
O822 O 0.17333 0.60989 0.51781 0.0
H823 H 0.10267 0.55755 0.52011 0.0
H824 H 0.16971 0.56522 0.52372 0.0
O825 O 0.10225 0.59939 0.5461 0.0
H826 H 0.18435 0.59355 0.59563 0.0
H827 H 0.16158 0.52614 0.50831 0.0
Cu828 Cu 0.8503 0.39931 0.79193 0.0
N829 N 0.87841 0.40523 0.80256 0.0
N830 N 0.9026 0.42189 0.82404 0.0
C831 C 0.88164 0.41658 0.82085 0.0
C832 C 0.91301 0.41353 0.80685 0.0
C833 C 0.89808 0.40334 0.79363 0.0
O834 O 0.84341 0.42582 0.77534 0.0
C835 C 0.84378 0.37139 0.825 0.0
O836 O 0.86394 0.36817 0.81943 0.0
H837 H 0.86853 0.42172 0.83111 0.0
H838 H 0.90127 0.39583 0.77825 0.0
N839 N 0.84478 0.37659 0.77265 0.0
N840 N 0.82305 0.35452 0.75381 0.0
C841 C 0.82442 0.37245 0.76602 0.0
C842 C 0.85688 0.36056 0.76456 0.0
C843 C 0.84355 0.34705 0.75275 0.0
C844 C 0.8526 0.42619 0.75679 0.0
O845 O 0.86383 0.40929 0.75082 0.0
H846 H 0.81081 0.38254 0.77017 0.0
H847 H 0.87399 0.35861 0.76733 0.0
O848 O 0.83372 0.38737 0.81634 0.0
H849 H 0.93014 0.41487 0.80383 0.0
H850 H 0.84855 0.3326 0.74439 0.0
Cu851 Cu 0.64095 0.96436 0.5144 0.0
N852 N 0.66292 0.95541 0.49502 0.0
N853 N 0.68363 0.93311 0.47513 0.0
C854 C 0.66397 0.9365 0.48414 0.0
C855 C 0.69524 0.95078 0.4803 0.0
C856 C 0.68256 0.96433 0.49252 0.0
O857 O 0.64895 0.95179 0.54263 0.0
C858 C 0.59482 0.95647 0.5127 0.0
O859 O 0.59498 0.96032 0.53353 0.0
H860 H 0.65093 0.92489 0.48393 0.0
H861 H 0.68775 0.97922 0.49985 0.0
N862 N 0.63966 0.99487 0.51758 0.0
N863 N 0.6256 0.02786 0.52397 0.0
C864 C 0.6215 1.00688 0.51923 0.0
C865 C 0.65585 1.00885 0.52143 0.0
C866 C 0.64728 0.02911 0.5252 0.0
C867 C 0.65513 0.93219 0.54456 0.0
O868 O 0.65273 0.91921 0.52806 0.0
H869 H 0.60549 1.00022 0.51763 0.0
H870 H 0.67267 1.00448 0.52262 0.0
O871 O 0.61273 0.95579 0.50257 0.0
H872 H 0.71187 0.95363 0.47589 0.0
H873 H 0.65629 0.04333 0.52983 0.0
Cu874 Cu 0.20692 0.15984 0.75313 0.0
N875 N 0.17735 0.16074 0.75981 0.0
N876 N 0.14858 0.15079 0.77942 0.0
C877 C 0.1696 0.15653 0.77972 0.0
C878 C 0.14275 0.15145 0.75846 0.0
C879 C 0.16052 0.15761 0.7464 0.0
O880 O 0.20989 0.13027 0.74173 0.0
C881 C 0.21677 0.18887 0.78364 0.0
O882 O 0.20142 0.1978 0.77199 0.0
H883 H 0.17972 0.15561 0.79395 0.0
H884 H 0.16152 0.1579 0.72899 0.0
N885 N 0.21628 0.1799 0.73215 0.0
N886 N 0.23904 0.20009 0.71241 0.0
C887 C 0.23713 0.1845 0.72765 0.0
C888 C 0.20459 0.19323 0.71956 0.0
C889 C 0.21855 0.20556 0.70728 0.0
C890 C 0.20338 0.12801 0.72224 0.0
O891 O 0.19971 0.14552 0.71079 0.0
H892 H 0.25061 0.17642 0.73532 0.0
H893 H 0.18717 0.19399 0.7194 0.0
O894 O 0.22229 0.16949 0.77914 0.0
H895 H 0.12713 0.1468 0.75224 0.0
H896 H 0.21393 0.21785 0.69568 0.0
Cu897 Cu 0.42185 0.61596 0.51389 0.0
N898 N 0.41643 0.643 0.5006 0.0
N899 N 0.39631 0.66495 0.47953 0.0
C900 C 0.40354 0.64463 0.48309 0.0
C901 C 0.40484 0.67671 0.49572 0.0
C902 C 0.41713 0.66312 0.50875 0.0
O903 O 0.3967 0.61318 0.53268 0.0
C904 C 0.4399 0.60058 0.4766 0.0
O905 O 0.44352 0.62132 0.47405 0.0
H906 H 0.39818 0.6307 0.47407 0.0
H907 H 0.42463 0.66732 0.52392 0.0
N908 N 0.44704 0.61081 0.53025 0.0
N909 N 0.46813 0.58394 0.54332 0.0
C910 C 0.44797 0.59235 0.54196 0.0
C911 C 0.4676 0.61461 0.52437 0.0
C912 C 0.48061 0.59826 0.53257 0.0
C913 C 0.39806 0.623 0.55071 0.0
O914 O 0.417 0.63011 0.55696 0.0
H915 H 0.43355 0.58388 0.54691 0.0
H916 H 0.47237 0.62646 0.51241 0.0
O917 O 0.4269 0.59454 0.49145 0.0
H918 H 0.40182 0.6937 0.49841 0.0
H919 H 0.49742 0.5958 0.52861 0.0
Cu920 Cu 0.76939 0.82774 0.65553 0.0
N921 N 0.75587 0.85457 0.65022 0.0
N922 N 0.73404 0.87666 0.63116 0.0
C923 C 0.74008 0.85606 0.63532 0.0
C924 C 0.74647 0.88872 0.6444 0.0
C925 C 0.76 0.87506 0.65606 0.0
O926 O 0.78756 0.82382 0.62962 0.0
C927 C 0.73622 0.81536 0.68063 0.0
O928 O 0.74214 0.83443 0.68765 0.0
H929 H 0.73364 0.84204 0.62723 0.0
H930 H 0.77254 0.87982 0.66721 0.0
N931 N 0.78818 0.82377 0.67924 0.0
N932 N 0.80552 0.80116 0.70205 0.0
C933 C 0.79783 0.80442 0.68183 0.0
C934 C 0.79019 0.83358 0.69847 0.0
C935 C 0.80099 0.81973 0.71251 0.0
C936 C 0.80332 0.83724 0.62945 0.0
O937 O 0.80541 0.85012 0.6461 0.0
H938 H 0.79768 0.79236 0.6693 0.0
H939 H 0.7827 0.84878 0.7026 0.0
O940 O 0.74558 0.80809 0.66371 0.0
H941 H 0.74661 0.90618 0.64489 0.0
H942 H 0.80364 0.82248 0.72953 0.0
Cu943 Cu 0.77368 0.2076 0.87572 0.0
N944 N 0.77476 0.17809 0.88349 0.0
N945 N 0.76114 0.14839 0.89948 0.0
C946 C 0.7568 0.1675 0.88976 0.0
C947 C 0.78282 0.14664 0.89906 0.0
C948 C 0.79119 0.16491 0.88902 0.0
O949 O 0.75847 0.22173 0.89907 0.0
C950 C 0.76866 0.20528 0.83081 0.0
O951 O 0.7873 0.1954 0.83302 0.0
H952 H 0.74088 0.17462 0.88886 0.0
H953 H 0.80807 0.16894 0.88746 0.0
N954 N 0.79931 0.22339 0.87292 0.0
N955 N 0.81925 0.25324 0.86765 0.0
C956 C 0.7992 0.24498 0.86969 0.0
C957 C 0.82019 0.2176 0.8728 0.0
C958 C 0.83252 0.23598 0.86964 0.0
C959 C 0.75997 0.21805 0.91936 0.0
O960 O 0.74733 0.2289 0.93238 0.0
H961 H 0.78454 0.25445 0.86902 0.0
H962 H 0.82606 0.20127 0.87471 0.0
O963 O 0.75883 0.21133 0.84784 0.0
H964 H 0.792 0.13359 0.90626 0.0
H965 H 0.84992 0.23646 0.8685 0.0
Cu966 Cu 0.44216 1.01036 0.4257 0.0
N967 N 0.41236 1.01517 0.42358 0.0
N968 N 0.38617 0.03127 0.40409 0.0
C969 C 0.40504 0.03378 0.41478 0.0
C970 C 0.38118 1.01018 0.40655 0.0
C971 C 0.39736 1.00031 0.41848 0.0
O972 O 0.44738 1.00262 0.3955 0.0
C973 C 0.44796 0.03949 0.45787 0.0
O974 O 0.43199 0.02725 0.46463 0.0
H975 H 0.41496 0.04812 0.41351 0.0
H976 H 0.39943 0.98309 0.42064 0.0
N977 N 0.45166 0.98811 0.44428 0.0
N978 N 0.47529 0.97107 0.46602 0.0
C979 C 0.47264 0.98506 0.44941 0.0
C980 C 0.44055 0.9755 0.45808 0.0
C981 C 0.45507 0.96498 0.47149 0.0
C982 C 0.4444 0.98288 0.39021 0.0
O983 O 0.447 0.96789 0.40504 0.0
H984 H 0.48562 0.99419 0.44208 0.0
H985 H 0.42316 0.97493 0.45913 0.0
O986 O 0.4552 0.03621 0.43881 0.0
H987 H 0.36779 1.0021 0.39883 0.0
H988 H 0.451 0.95427 0.48473 0.0
Cu989 Cu 0.28564 0.3412 0.87475 0.0
N990 N 0.31041 0.34329 0.89253 0.0
N991 N 0.3368 0.35449 0.91474 0.0
C992 C 0.31815 0.35985 0.90455 0.0
C993 C 0.34068 0.33385 0.90906 0.0
C994 C 0.32451 0.32705 0.89556 0.0
O995 O 0.26188 0.35857 0.88672 0.0
C996 C 0.31006 0.34363 0.83563 0.0
O997 O 0.32529 0.33522 0.84776 0.0
H998 H 0.31053 0.37554 0.90547 0.0
H999 H 0.32324 0.31132 0.88818 0.0
N1000 N 0.27665 0.31221 0.87352 0.0
N1001 N 0.26375 0.2814 0.85964 0.0
C1002 C 0.26761 0.30266 0.85624 0.0
C1003 C 0.27854 0.29644 0.88847 0.0
C1004 C 0.27067 0.2774 0.87992 0.0
C1005 C 0.25719 0.35738 0.90677 0.0
O1006 O 0.26881 0.3447 0.91926 0.0
H1007 H 0.26423 0.31114 0.84129 0.0
H1008 H 0.28525 0.2986 0.90442 0.0
O1009 O 0.29216 0.34882 0.84439 0.0
H1010 H 0.35431 0.32425 0.91435 0.0
H1011 H 0.26974 0.26196 0.88813 0.0
Cu1012 Cu 0.084 0.05129 0.90155 0.0
N1013 N 0.11246 0.04082 0.90107 0.0
N1014 N 0.13798 1.01734 0.89093 0.0
C1015 C 0.11721 1.02005 0.89675 0.0
C1016 C 0.1468 0.03723 0.89155 0.0
C1017 C 0.13101 0.0517 0.89785 0.0
O1018 O 0.08117 0.06641 0.87363 0.0
C1019 C 0.07106 1.01774 0.92648 0.0
O1020 O 0.08696 0.02664 0.93729 0.0
H1021 H 0.10516 1.00743 0.89592 0.0
H1022 H 0.13259 0.06908 0.89838 0.0
N1023 N 0.07751 0.07063 0.92391 0.0
N1024 N 0.05682 0.08888 0.94724 0.0
C1025 C 0.05729 0.07648 0.92936 0.0
C1026 C 0.09041 0.07964 0.93882 0.0
C1027 C 0.0777 0.09092 0.9532 0.0
C1028 C 0.09002 0.08507 0.87294 0.0
O1029 O 0.0971 0.09334 0.89107 0.0
H1030 H 0.04312 0.07084 0.92089 0.0
H1031 H 0.10773 0.07767 0.9395 0.0
O1032 O 0.06591 0.02604 0.90821 0.0
H1033 H 0.16316 0.04114 0.88687 0.0
H1034 H 0.08343 0.09966 0.96715 0.0
Cu1035 Cu 0.77496 0.21775 0.15173 0.0
N1036 N 0.7893 0.19107 0.15155 0.0
N1037 N 0.81015 0.16488 0.13809 0.0
C1038 C 0.80217 0.18496 0.13519 0.0
C1039 C 0.80196 0.15808 0.15715 0.0
C1040 C 0.78917 0.1743 0.16546 0.0
O1041 O 0.75814 0.21779 0.12466 0.0
C1042 C 0.80471 0.23545 0.17743 0.0
O1043 O 0.79788 0.21826 0.18786 0.0
H1044 H 0.805 0.19488 0.12104 0.0
H1045 H 0.78034 0.17379 0.18047 0.0
N1046 N 0.75504 0.2221 0.1741 0.0
N1047 N 0.73472 0.24134 0.19685 0.0
C1048 C 0.74864 0.24197 0.18016 0.0
C1049 C 0.74488 0.20829 0.1875 0.0
C1050 C 0.73226 0.22012 0.20149 0.0
C1051 C 0.74431 0.20242 0.12487 0.0
O1052 O 0.74337 0.19014 0.14219 0.0
H1053 H 0.75403 0.25663 0.17225 0.0
H1054 H 0.74647 0.19092 0.18718 0.0
O1055 O 0.79724 0.23926 0.15851 0.0
H1056 H 0.80493 0.14248 0.16454 0.0
H1057 H 0.72227 0.21357 0.21425 0.0
Cu1058 Cu 0.47741 1.00195 0.13191 0.0
N1059 N 0.4516 0.98591 0.1312 0.0
N1060 N 0.42389 0.9684 0.14671 0.0
C1061 C 0.44154 0.98072 0.14979 0.0
C1062 C 0.42262 0.96564 0.12516 0.0
C1063 C 0.43968 0.97665 0.11557 0.0
O1064 O 0.47223 0.02334 0.15471 0.0
C1065 C 0.51174 0.97033 0.12637 0.0
O1066 O 0.52826 0.95958 0.1342 0.0
H1067 H 0.44722 0.98584 0.16547 0.0
H1068 H 0.44316 0.97766 0.0985 0.0
N1069 N 0.48758 1.01663 0.10735 0.0
N1070 N 0.51474 0.0322 0.08909 0.0
C1071 C 0.50577 0.02853 0.10858 0.0
C1072 C 0.48466 1.01294 0.08615 0.0
C1073 C 0.50148 1.02248 0.07484 0.0
C1074 C 0.45576 0.03553 0.15236 0.0
O1075 O 0.44467 0.03412 0.13434 0.0
H1076 H 0.51345 0.03258 0.12373 0.0
H1077 H 0.47243 1.00242 0.07955 0.0
O1078 O 0.50069 0.98209 0.13924 0.0
H1079 H 0.41005 0.95677 0.11695 0.0
H1080 H 0.50437 1.02134 0.05766 0.0
Cu1081 Cu 0.56738 0.51668 0.15515 0.0
N1082 N 0.59592 0.52716 0.15719 0.0
N1083 N 0.62413 0.54404 0.17268 0.0
C1084 C 0.60379 0.53649 0.17523 0.0
C1085 C 0.62934 0.53884 0.15215 0.0
C1086 C 0.61199 0.52844 0.14269 0.0
O1087 O 0.56498 0.49705 0.18007 0.0
C1088 C 0.55422 0.55956 0.14574 0.0
O1089 O 0.57432 0.56495 0.14957 0.0
H1090 H 0.5944 0.53801 0.18983 0.0
H1091 H 0.61106 0.52272 0.12629 0.0
N1092 N 0.5598 0.5016 0.12995 0.0
N1093 N 0.53397 0.48997 0.10724 0.0
C1094 C 0.54059 0.49142 0.128 0.0
C1095 C 0.56556 0.50667 0.1096 0.0
C1096 C 0.54977 0.49946 0.09562 0.0
C1097 C 0.57641 0.47995 0.17829 0.0
O1098 O 0.58608 0.47645 0.15979 0.0
H1099 H 0.53036 0.48774 0.14168 0.0
H1100 H 0.57883 0.51716 0.10537 0.0
O1101 O 0.54746 0.54114 0.15223 0.0
H1102 H 0.64431 0.54289 0.14417 0.0
H1103 H 0.54914 0.50253 0.07841 0.0
H1104 H 0.2372 0.31772 0.23308 0.0
H1105 H 0.299 0.2877 0.24453 0.0
H1106 H 0.28853 0.27916 0.28147 0.0
H1107 H 0.26119 0.2784 0.31017 0.0
H1108 H 0.19966 0.30908 0.29922 0.0
H1109 H 0.2107 0.31915 0.2628 0.0
C1110 C 0.24846 0.30949 0.24371 0.0
C1111 C 0.26886 0.30335 0.23582 0.0
C1112 C 0.24235 0.30461 0.26515 0.0
C1113 C 0.2832 0.29271 0.24998 0.0
C1114 C 0.27721 0.28774 0.27121 0.0
C1115 C 0.25026 0.28754 0.30002 0.0
C1116 C 0.22942 0.29262 0.30758 0.0
C1117 C 0.25674 0.29339 0.27894 0.0
C1118 C 0.2156 0.30449 0.29387 0.0
C1119 C 0.22195 0.31036 0.27297 0.0
H1120 H 0.56191 0.60037 0.13174 0.0
H1121 H 0.52106 0.54532 0.11986 0.0
H1122 H 0.50759 0.56245 0.08679 0.0
H1123 H 0.50959 0.59212 0.05963 0.0
H1124 H 0.55135 0.64645 0.07187 0.0
H1125 H 0.56219 0.6306 0.1062 0.0
C1126 C 0.54976 0.59225 0.12215 0.0
C1127 C 0.54253 0.57158 0.12841 0.0
C1128 C 0.54242 0.602 0.10294 0.0
C1129 C 0.52676 0.56134 0.11568 0.0
C1130 C 0.51923 0.57105 0.09658 0.0
C1131 C 0.52106 0.60046 0.06981 0.0
C1132 C 0.52964 0.62051 0.063 0.0
C1133 C 0.52733 0.59117 0.08975 0.0
C1134 C 0.54427 0.63119 0.07664 0.0
C1135 C 0.55058 0.62207 0.09632 0.0
H1136 H 0.87907 0.27086 0.23507 0.0
H1137 H 0.8255 0.27586 0.27932 0.0
H1138 H 0.80049 0.2683 0.25033 0.0
H1139 H 0.79383 0.25514 0.21385 0.0
H1140 H 0.84661 0.24743 0.16958 0.0
H1141 H 0.87176 0.26146 0.19683 0.0
C1142 C 0.86194 0.2704 0.2384 0.0
C1143 C 0.85445 0.27375 0.25969 0.0
C1144 C 0.84739 0.26559 0.22152 0.0
C1145 C 0.83203 0.27351 0.26335 0.0
C1146 C 0.81757 0.26905 0.2467 0.0
C1147 C 0.81076 0.25731 0.20992 0.0
C1148 C 0.81836 0.2506 0.18969 0.0
C1149 C 0.82508 0.26448 0.22592 0.0
C1150 C 0.84033 0.25301 0.18487 0.0
C1151 C 0.85473 0.26066 0.20062 0.0
H1152 H 0.48288 0.94584 0.03149 0.0
H1153 H 0.54491 0.97387 1.01714 0.0
H1154 H 0.55047 0.98165 0.05511 0.0
H1155 H 0.53785 0.98078 0.09288 0.0
H1156 H 0.47602 0.95315 0.10764 0.0
H1157 H 0.4695 0.9464 0.06918 0.0
C1158 C 0.49732 0.95427 0.03648 0.0
C1159 C 0.51368 0.95882 1.0212 0.0
C1160 C 0.50011 0.95952 0.05853 0.0
C1161 C 0.53231 0.96961 0.02839 0.0
C1162 C 0.53536 0.97442 0.05019 0.0
C1163 C 0.52281 0.9736 0.08758 0.0
C1164 C 0.50693 0.96839 0.10297 0.0
C1165 C 0.51947 0.96938 0.06546 0.0
C1166 C 0.48783 0.95849 0.09597 0.0
C1167 C 0.48434 0.95428 0.07399 0.0
H1168 H 0.25155 0.73493 0.31098 0.0
H1169 H 0.20136 0.76061 0.35122 0.0
H1170 H 0.18386 0.77674 0.3193 0.0
H1171 H 0.18108 0.78011 0.27929 0.0
H1172 H 0.23115 0.75263 0.2397 0.0
H1173 H 0.25044 0.74074 0.27188 0.0
C1174 C 0.23714 0.74467 0.31283 0.0
C1175 C 0.22797 0.74694 0.33348 0.0
C1176 C 0.22691 0.75318 0.29438 0.0
C1177 C 0.20902 0.75912 0.33561 0.0
C1178 C 0.19886 0.76802 0.31727 0.0
C1179 C 0.19618 0.77149 0.27769 0.0
C1180 C 0.20445 0.76709 0.25688 0.0
C1181 C 0.20729 0.76455 0.29646 0.0
C1182 C 0.22435 0.75633 0.25532 0.0
C1183 C 0.23543 0.74947 0.27378 0.0
H1184 H 0.02798 0.59053 0.02806 0.0
H1185 H 0.96107 0.60873 0.02278 0.0
H1186 H 0.96032 0.59572 0.98549 0.0
H1187 H 0.97995 0.58241 0.95303 0.0
H1188 H 0.04707 0.56554 0.95888 0.0
H1189 H 0.04673 0.57573 0.99684 0.0
C1190 C 1.0132 0.59183 1.01882 0.0
C1191 C 0.99469 0.60102 0.02835 0.0
C1192 C 1.013 0.58469 0.99727 0.0
C1193 C 0.97558 0.6018 1.01606 0.0
C1194 C 0.97518 0.59445 0.99462 0.0
C1195 C 0.9942 0.58012 0.96284 0.0
C1196 C 1.01338 0.57261 0.9532 0.0
C1197 C 0.99391 0.58617 0.98488 0.0
C1198 C 0.03206 0.57097 0.96594 0.0
C1199 C 0.03188 0.57683 0.98767 0.0
H1200 H 0.87526 0.77017 0.29533 0.0
H1201 H 0.84084 0.79576 0.24028 0.0
H1202 H 0.81595 0.81435 0.26408 0.0
H1203 H 0.8042 0.82419 0.30008 0.0
H1204 H 0.83696 0.79876 0.35611 0.0
H1205 H 0.86216 0.77926 0.33246 0.0
C1206 C 0.86232 0.77985 0.28858 0.0
C1207 C 0.86001 0.78146 0.26587 0.0
C1208 C 0.84777 0.79056 0.30255 0.0
C1209 C 0.84295 0.79391 0.25752 0.0
C1210 C 0.82873 0.8047 0.27118 0.0
C1211 C 0.81686 0.81443 0.30728 0.0
C1212 C 0.81877 0.8132 0.32995 0.0
C1213 C 0.83103 0.80323 0.29365 0.0
C1214 C 0.83509 0.80008 0.33878 0.0
C1215 C 0.84953 0.78898 0.32521 0.0
H1216 H 0.08509 0.9936 0.95991 0.0
H1217 H 0.03167 0.99963 0.91567 0.0
H1218 H 1.01244 0.97086 0.93528 0.0
H1219 H 1.0101 0.94571 0.96667 0.0
H1220 H 0.06403 0.94082 1.01051 0.0
H1221 H 0.0837 0.96765 0.98944 0.0
C1222 C 0.06926 0.98864 0.9544 0.0
C1223 C 0.05977 0.99895 0.9364 0.0
C1224 C 0.05833 0.97239 0.96584 0.0
C1225 C 0.03936 0.992 0.92943 0.0
C1226 C 0.02835 0.97562 0.94073 0.0
C1227 C 0.02627 0.95027 0.97143 0.0
C1228 C 0.03549 0.9413 0.99036 0.0
C1229 C 0.03756 0.96591 0.95919 0.0
C1230 C 0.0564 0.94765 0.99632 0.0
C1231 C 0.06771 0.96295 0.9842 0.0
H1232 H 0.2698 0.15841 0.30495 0.0
H1233 H 0.2982 0.22109 0.2932 0.0
H1234 H 0.26412 0.23832 0.3023 0.0
H1235 H 0.22713 0.23582 0.31707 0.0
H1236 H 0.19957 0.17327 0.32988 0.0
H1237 H 0.23202 0.15578 0.31588 0.0
C1238 C 0.26864 0.17582 0.30394 0.0
C1239 C 0.28699 0.18826 0.29852 0.0
C1240 C 0.24885 0.18572 0.30908 0.0
C1241 C 0.28476 0.21091 0.29769 0.0
C1242 C 0.2651 0.22086 0.30273 0.0
C1243 C 0.22792 0.21837 0.31588 0.0
C1244 C 0.21071 0.20581 0.32387 0.0
C1245 C 0.24713 0.20846 0.3088 0.0
C1246 C 0.2123 0.18322 0.32317 0.0
C1247 C 0.23103 0.17325 0.31554 0.0
H1248 H 0.50986 0.55852 0.99582 0.0
H1249 H 0.45632 0.56168 0.9513 0.0
H1250 H 0.44548 0.52525 0.96162 0.0
H1251 H 0.44945 0.49351 0.98511 0.0
H1252 H 0.50264 0.49012 0.02989 0.0
H1253 H 0.51551 0.52524 1.01735 0.0
C1254 C 0.49598 0.55116 0.98816 0.0
C1255 C 0.48385 0.56304 0.9729 0.0
C1256 C 0.48968 0.53009 0.99427 0.0
C1257 C 0.46594 0.55309 0.96315 0.0
C1258 C 0.45967 0.53221 0.96908 0.0
C1259 C 0.4639 0.50039 0.9921 0.0
C1260 C 0.47479 0.48919 1.0087 0.0
C1261 C 0.47113 0.52074 0.98494 0.0
C1262 C 0.49387 0.49819 1.01708 0.0
C1263 C 0.50118 0.51844 1.01002 0.0
H1264 H 0.82169 0.3241 0.34445 0.0
H1265 H 0.79768 0.2587 0.3452 0.0
H1266 H 0.76096 0.27194 0.33982 0.0
H1267 H 0.73578 0.30207 0.33235 0.0
H1268 H 0.76016 0.36723 0.33056 0.0
H1269 H 0.79639 0.35418 0.33888 0.0
C1270 C 0.80841 0.31273 0.34373 0.0
C1271 C 0.81256 0.2904 0.34523 0.0
C1272 C 0.7873 0.32044 0.34024 0.0
C1273 C 0.79507 0.27597 0.34409 0.0
C1274 C 0.774 0.28353 0.34095 0.0
C1275 C 0.74896 0.31341 0.33412 0.0
C1276 C 0.74524 0.33561 0.33069 0.0
C1277 C 0.76993 0.30572 0.33865 0.0
C1278 C 0.76261 0.35006 0.33281 0.0
C1279 C 0.78335 0.3426 0.33764 0.0
H1280 H 0.60637 0.95192 0.95099 0.0
H1281 H 0.57973 0.94148 1.01447 0.0
H1282 H 0.58528 0.97973 0.0229 0.0
H1283 H 0.59495 1.01689 1.01091 0.0
H1284 H 0.62429 0.02641 0.94883 0.0
H1285 H 0.61993 0.98785 0.94081 0.0
C1286 C 0.60201 0.95783 0.96682 0.0
C1287 C 0.5921 0.94378 0.98189 0.0
C1288 C 0.60521 0.97984 0.97153 0.0
C1289 C 0.58697 0.9519 1.0024 0.0
C1290 C 0.59003 0.97383 1.00718 0.0
C1291 C 0.60039 1.01042 0.99572 0.0
C1292 C 0.60958 0.02447 0.9803 0.0
C1293 C 0.59853 0.98809 0.99163 0.0
C1294 C 0.61695 1.01591 0.96076 0.0
C1295 C 0.61453 0.99389 0.95626 0.0
H1296 H 0.18547 0.82082 0.24362 0.0
H1297 H 0.15321 0.88157 0.23311 0.0
H1298 H 0.18548 0.90102 0.24477 0.0
H1299 H 0.22401 0.90087 0.25365 0.0
H1300 H 0.25747 0.84011 0.26085 0.0
H1301 H 0.22374 0.82067 0.25511 0.0
C1302 C 0.18529 0.83828 0.24462 0.0
C1303 C 0.16677 0.84974 0.2379 0.0
C1304 C 0.20436 0.8494 0.25031 0.0
C1305 C 0.16707 0.8724 0.23858 0.0
C1306 C 0.18564 0.88352 0.245 0.0
C1307 C 0.22406 0.88338 0.25398 0.0
C1308 C 0.24361 0.87215 0.25742 0.0
C1309 C 0.20462 0.87222 0.25014 0.0
C1310 C 0.24291 0.8494 0.25831 0.0
C1311 C 0.22354 0.83818 0.25491 0.0
H1312 H 0.11183 0.52268 0.05883 0.0
H1313 H 0.05364 0.4852 0.06673 0.0
H1314 H 0.03525 0.51668 0.08125 0.0
H1315 H 0.03511 0.55498 0.09074 0.0
H1316 H 0.0922 0.59353 0.0809 0.0
H1317 H 0.11154 0.56151 0.06799 0.0
C1318 C 0.09518 0.52125 0.06381 0.0
C1319 C 0.08418 0.50137 0.06138 0.0
C1320 C 0.08445 0.5397 0.07175 0.0
C1321 C 0.06252 0.50018 0.068 0.0
C1322 C 0.05196 0.51823 0.07639 0.0
C1323 C 0.05186 0.55644 0.08595 0.0
C1324 C 0.06222 0.57671 0.08703 0.0
C1325 C 0.06268 0.5381 0.07816 0.0
C1326 C 0.08382 0.5782 0.08035 0.0
C1327 C 0.09488 0.55986 0.07298 0.0
H1328 H 0.83161 0.70638 0.20042 0.0
H1329 H 0.80775 0.76255 0.16651 0.0
H1330 H 0.77072 0.7503 0.17187 0.0
H1331 H 0.74476 0.72468 0.18816 0.0
H1332 H 0.76881 0.669 0.22267 0.0
H1333 H 0.8058 0.68 0.2152 0.0
C1334 C 0.81834 0.71581 0.19395 0.0
C1335 C 0.82259 0.73539 0.18307 0.0
C1336 C 0.79695 0.70886 0.19741 0.0
C1337 C 0.80507 0.74744 0.17498 0.0
C1338 C 0.78381 0.74047 0.17808 0.0
C1339 C 0.75809 0.71483 0.19381 0.0
C1340 C 0.75389 0.69614 0.20618 0.0
C1341 C 0.7795 0.72136 0.18956 0.0
C1342 C 0.77146 0.68368 0.21349 0.0
C1343 C 0.79269 0.6899 0.20911 0.0
H1344 H 0.90968 1.00966 0.03698 0.0
H1345 H 0.95849 0.05833 0.02778 0.0
H1346 H 0.98592 0.03378 0.04223 0.0
H1347 H 0.99649 0.99749 0.05504 0.0
H1348 H 0.94739 0.94907 0.06512 0.0
H1349 H 0.91975 0.97447 0.0531 0.0
C1350 C 0.92631 1.01488 0.0383 0.0
C1351 C 0.93204 0.03575 0.0312 0.0
C1352 C 0.942 1.00069 0.04679 0.0
C1353 C 0.95361 0.04243 0.03326 0.0
C1354 C 0.96933 0.02834 0.04142 0.0
C1355 C 0.97971 0.99256 0.05493 0.0
C1356 C 0.97417 0.97125 0.06089 0.0
C1357 C 0.96379 1.0073 0.04794 0.0
C1358 C 0.95226 0.9653 0.06069 0.0
C1359 C 0.93638 0.97981 0.05367 0.0
H1360 H 0.26523 0.22326 0.2005 0.0
H1361 H 0.31034 0.22062 0.14767 0.0
H1362 H 0.32564 0.18739 0.16206 0.0
H1363 H 0.32872 0.16086 0.19119 0.0
H1364 H 0.28439 0.16245 0.24452 0.0
H1365 H 0.26599 0.19373 0.22832 0.0
C1366 C 0.27832 0.21529 0.19215 0.0
C1367 C 0.28662 0.22454 0.173 0.0
C1368 C 0.28707 0.19582 0.20051 0.0
C1369 C 0.30347 0.21386 0.16226 0.0
C1370 C 0.31231 0.19482 0.17052 0.0
C1371 C 0.31455 0.16761 0.19889 0.0
C1372 C 0.30775 0.15915 0.21884 0.0
C1373 C 0.30446 0.18581 0.18974 0.0
C1374 C 0.28961 0.16828 0.22887 0.0
C1375 C 0.27934 0.18645 0.21977 0.0
H1376 H 0.31066 0.80294 0.25646 0.0
H1377 H 0.34161 0.83215 0.31147 0.0
H1378 H 0.33667 0.79888 0.33222 0.0
H1379 H 0.32166 0.76223 0.33557 0.0
H1380 H 0.28989 0.7333 0.28098 0.0
H1381 H 0.29736 0.76545 0.25926 0.0
C1382 C 0.31656 0.802 0.27291 0.0
C1383 C 0.32645 0.82021 0.28234 0.0
C1384 C 0.31347 0.7828 0.2849 0.0
C1385 C 0.33392 0.81853 0.30373 0.0
C1386 C 0.33106 0.79947 0.31566 0.0
C1387 C 0.31642 0.7629 0.3189 0.0
C1388 C 0.30504 0.74528 0.31008 0.0
C1389 C 0.32054 0.78163 0.30654 0.0
C1390 C 0.29877 0.7464 0.28827 0.0
C1391 C 0.30291 0.76493 0.27584 0.0
H1392 H 0.05215 0.48939 0.96415 0.0
H1393 H 0.03787 0.53764 1.01187 0.0
H1394 H 0.07527 0.53727 0.02392 0.0
H1395 H 0.11272 0.52423 1.02007 0.0
H1396 H 0.12687 0.47369 0.97512 0.0
H1397 H 0.0891 0.47344 0.96309 0.0
C1398 C 0.05724 0.4996 0.97735 0.0
C1399 C 0.04222 0.51384 0.98679 0.0
C1400 C 0.07877 0.49858 0.98495 0.0
C1401 C 0.04902 0.5267 1.00415 0.0
C1402 C 0.07047 0.52645 1.01112 0.0
C1403 C 0.10733 0.51271 1.00813 0.0
C1404 C 0.12231 0.4982 0.99926 0.0
C1405 C 0.08554 0.51259 1.00157 0.0
C1406 C 0.11537 0.48408 0.98305 0.0
C1407 C 0.09384 0.48425 0.97594 0.0
H1408 H 0.74843 0.76825 0.33195 0.0
H1409 H 0.69327 0.80642 0.31282 0.0
H1410 H 0.67702 0.77496 0.29613 0.0
H1411 H 0.67868 0.73717 0.28564 0.0
H1412 H 0.73326 0.698 0.304 0.0
H1413 H 0.74918 0.72907 0.32275 0.0
C1414 C 0.73276 0.76967 0.32434 0.0
C1415 C 0.7223 0.79001 0.32353 0.0
C1416 C 0.72331 0.75125 0.31468 0.0
C1417 C 0.70202 0.79132 0.3134 0.0
C1418 C 0.69258 0.77321 0.30394 0.0
C1419 C 0.69402 0.73525 0.29385 0.0
C1420 C 0.70475 0.71516 0.29328 0.0
C1421 C 0.70315 0.75319 0.30426 0.0
C1422 C 0.72454 0.71315 0.30421 0.0
C1423 C 0.73372 0.73101 0.31482 0.0
H1424 H 0.46116 0.6052 0.43913 0.0
H1425 H 0.45687 0.56398 0.49524 0.0
H1426 H 0.49115 0.54689 0.48563 0.0
H1427 H 0.52428 0.54648 0.4631 0.0
H1428 H 0.52828 0.58857 0.4076 0.0
H1429 H 0.49232 0.60262 0.41517 0.0
C1430 C 0.46743 0.59204 0.44893 0.0
C1431 C 0.45642 0.5858 0.46778 0.0
C1432 C 0.4874 0.58281 0.44366 0.0
C1433 C 0.46479 0.56882 0.48041 0.0
C1434 C 0.48461 0.55931 0.47511 0.0
C1435 C 0.51727 0.55878 0.45275 0.0
C1436 C 0.52907 0.56671 0.43495 0.0
C1437 C 0.49641 0.56669 0.45715 0.0
C1438 C 0.51956 0.58226 0.42138 0.0
C1439 C 0.49899 0.59027 0.4257 0.0
H1440 H 0.2658 0.81927 0.69547 0.0
H1441 H 0.21494 0.77202 0.69005 0.0
H1442 H 0.19232 0.79327 0.71403 0.0
H1443 H 0.1874 0.8242 0.73764 0.0
H1444 H 0.23776 0.87182 0.74386 0.0
H1445 H 0.26 0.85172 0.71808 0.0
C1446 C 0.24967 0.81376 0.69927 0.0
C1447 C 0.2422 0.79387 0.691 0.0
C1448 C 0.23666 0.82613 0.71322 0.0
C1449 C 0.22129 0.78698 0.69639 0.0
C1450 C 0.20828 0.79921 0.71004 0.0
C1451 C 0.2032 0.83035 0.73333 0.0
C1452 C 0.21091 0.8495 0.74283 0.0
C1453 C 0.21589 0.81862 0.71876 0.0
C1454 C 0.23138 0.85718 0.73682 0.0
C1455 C 0.24413 0.84562 0.72214 0.0
H1456 H 0.04251 0.58927 0.52326 0.0
H1457 H 0.0811 0.59434 0.581 0.0
H1458 H 0.04997 0.58444 0.60298 0.0
H1459 H 1.01188 0.57305 0.60594 0.0
H1460 H 0.97322 0.56849 0.5483 0.0
H1461 H 1.00404 0.57953 0.52638 0.0
C1462 C 0.04412 0.58842 0.54066 0.0
C1463 C 0.06431 0.59256 0.55033 0.0
C1464 C 0.02604 0.58267 0.55333 0.0
C1465 C 0.06588 0.59132 0.57298 0.0
C1466 C 0.04804 0.58556 0.58562 0.0
C1467 C 1.01021 0.57443 0.58858 0.0
C1468 C 0.99014 0.56984 0.57887 0.0
C1469 C 0.02808 0.58093 0.57599 0.0
C1470 C 0.9883 0.57207 0.55632 0.0
C1471 C 1.00601 0.5783 0.54371 0.0
H1472 H 0.9667 0.92125 0.57475 0.0
H1473 H 0.94398 0.98463 0.55667 0.0
H1474 H 0.97459 1.00096 0.57599 0.0
H1475 H 1.00999 0.99667 0.59542 0.0
H1476 H 0.03271 0.93243 0.61014 0.0
H1477 H 1.00019 0.91701 0.59447 0.0
C1478 C 0.96819 0.9387 0.57514 0.0
C1479 C 0.95295 0.95165 0.56417 0.0
C1480 C 0.98618 0.9478 0.58543 0.0
C1481 C 0.95526 0.97422 0.5651 0.0
C1482 C 0.97294 0.98354 0.57596 0.0
C1483 C 1.00765 0.97933 0.5953 0.0
C1484 C 0.02394 0.96568 0.60378 0.0
C1485 C 0.98884 0.97044 0.58577 0.0
C1486 C 1.0207 0.94324 0.60343 0.0
C1487 C 1.00201 0.93442 0.59458 0.0
H1488 H 0.72506 0.82381 0.72153 0.0
H1489 H 0.71202 0.7788 0.67031 0.0
H1490 H 0.6854 0.76032 0.69349 0.0
H1491 H 0.66554 0.75754 0.72874 0.0
H1492 H 0.68045 0.80315 0.779 0.0
H1493 H 0.70662 0.82081 0.75569 0.0
C1494 C 0.71642 0.81 0.71521 0.0
C1495 C 0.72046 0.80289 0.69401 0.0
C1496 C 0.70142 0.79955 0.72857 0.0
C1497 C 0.70925 0.78469 0.68649 0.0
C1498 C 0.69399 0.77417 0.69976 0.0
C1499 C 0.67448 0.7714 0.73449 0.0
C1500 C 0.671 0.77894 0.75574 0.0
C1501 C 0.68984 0.78155 0.72087 0.0
C1502 C 0.68293 0.79679 0.76296 0.0
C1503 C 0.69785 0.80699 0.74957 0.0
H1504 H 1.01497 0.11194 0.5689 0.0
H1505 H 0.0684 0.10235 0.52548 0.0
H1506 H 0.08636 0.07966 0.55219 0.0
H1507 H 0.08627 0.06108 0.58672 0.0
H1508 H 0.03296 0.06883 0.63061 0.0
H1509 H 1.0158 0.09413 0.60513 0.0
C1510 C 0.03065 0.10506 0.56543 0.0
C1511 C 0.04021 0.10867 0.54505 0.0
C1512 C 0.04091 0.09175 0.58095 0.0
C1513 C 0.06048 0.09953 0.54079 0.0
C1514 C 0.07084 0.08664 0.55612 0.0
C1515 C 0.07094 0.06835 0.5909 0.0
C1516 C 0.06087 0.06291 0.61055 0.0
C1517 C 0.06107 0.08239 0.57607 0.0
C1518 C 0.04111 0.07274 0.61565 0.0
C1519 C 0.03125 0.0871 0.601 0.0
H1520 H 0.36781 0.746 0.7742 0.0
H1521 H 0.31321 0.76218 0.81406 0.0
H1522 H 0.28868 0.74932 0.78635 0.0
H1523 H 0.28236 0.73508 0.75016 0.0
H1524 H 0.33647 0.7194 0.70946 0.0
H1525 H 0.36138 0.73031 0.73805 0.0
C1526 C 0.35056 0.74673 0.7768 0.0
C1527 C 0.34251 0.75503 0.79635 0.0
C1528 C 0.33635 0.73935 0.7606 0.0
C1529 C 0.32002 0.75561 0.79945 0.0
C1530 C 0.30589 0.74835 0.78349 0.0
C1531 C 0.2996 0.7338 0.74755 0.0
C1532 C 0.30744 0.72643 0.72758 0.0
C1533 C 0.31384 0.74034 0.76395 0.0
C1534 C 0.32989 0.72496 0.72463 0.0
C1535 C 0.34419 0.73131 0.74096 0.0
H1536 H 0.02583 0.42833 0.57039 0.0
H1537 H 0.97424 0.42572 0.52368 0.0
H1538 H 0.95226 0.44912 0.54622 0.0
H1539 H 0.948 0.4713 0.57816 0.0
H1540 H 0.99917 0.47532 0.62517 0.0
H1541 H 1.02083 0.45002 0.60377 0.0
C1542 C 1.00969 0.43266 0.56527 0.0
C1543 C 1.00179 0.42529 0.54518 0.0
C1544 C 0.99706 0.44635 0.57837 0.0
C1545 C 0.98089 0.43134 0.53879 0.0
C1546 C 0.96825 0.44466 0.55176 0.0
C1547 C 0.96386 0.46663 0.58392 0.0
C1548 C 0.97192 0.47535 0.60331 0.0
C1549 C 0.97624 0.45244 0.57141 0.0
C1550 C 0.99249 0.46888 0.6104 0.0
C1551 C 1.00491 0.45447 0.59808 0.0
H1552 H 0.75072 0.22323 0.73132 0.0
H1553 H 0.69864 0.26058 0.75819 0.0
H1554 H 0.70889 0.24932 0.79438 0.0
H1555 H 0.73344 0.22981 0.81908 0.0
H1556 H 0.78589 0.19285 0.79237 0.0
H1557 H 0.77479 0.203 0.75598 0.0
C1558 C 0.74161 0.22889 0.74508 0.0
C1559 C 0.72376 0.2426 0.74172 0.0
C1560 C 0.74771 0.22245 0.76615 0.0
C1561 C 0.71214 0.24966 0.75993 0.0
C1562 C 0.71811 0.24336 0.78082 0.0
C1563 C 0.74234 0.22383 0.80531 0.0
C1564 C 0.76053 0.21057 0.80867 0.0
C1565 C 0.73593 0.22982 0.7842 0.0
C1566 C 0.77185 0.20309 0.79047 0.0
C1567 C 0.76554 0.20892 0.76954 0.0
H1568 H 0.43578 0.04644 0.49914 0.0
H1569 H 0.48329 0.06651 0.45237 0.0
H1570 H 0.50057 0.08931 0.47976 0.0
H1571 H 0.50272 0.10256 0.51765 0.0
H1572 H 0.45501 0.08116 0.56369 0.0
H1573 H 0.43752 0.05965 0.53596 0.0
C1574 C 0.44987 0.05585 0.49473 0.0
C1575 C 0.45814 0.0547 0.47355 0.0
C1576 C 0.45984 0.06857 0.51059 0.0
C1577 C 0.47646 0.06707 0.46842 0.0
C1578 C 0.4864 0.08007 0.48415 0.0
C1579 C 0.48839 0.09334 0.52157 0.0
C1580 C 0.4803 0.09351 0.54294 0.0
C1581 C 0.47831 0.08082 0.50538 0.0
C1582 C 0.46185 0.08117 0.54764 0.0
C1583 C 0.45172 0.06894 0.5317 0.0
H1584 H 0.30918 0.33412 0.73363 0.0
H1585 H 0.37792 0.33311 0.74467 0.0
H1586 H 0.37222 0.33948 0.78289 0.0
H1587 H 0.34796 0.34301 0.81379 0.0
H1588 H 0.27923 0.34522 0.80358 0.0
H1589 H 0.28471 0.34121 0.76461 0.0
C1590 C 0.32294 0.33562 0.74429 0.0
C1591 C 0.34401 0.33264 0.73607 0.0
C1592 C 0.31956 0.3395 0.76655 0.0
C1593 C 0.36153 0.3347 0.75039 0.0
C1594 C 0.3583 0.33849 0.77235 0.0
C1595 C 0.33413 0.34286 0.80305 0.0
C1596 C 0.31319 0.34432 0.81173 0.0
C1597 C 0.33741 0.34049 0.7807 0.0
C1598 C 0.29554 0.34425 0.79744 0.0
C1599 C 0.29868 0.34181 0.77511 0.0
H1600 H 0.59825 0.45978 0.43844 0.0
H1601 H 0.53777 0.48419 0.41408 0.0
H1602 H 0.51852 0.46483 0.4429 0.0
H1603 H 0.51953 0.44429 0.47766 0.0
H1604 H 0.58079 0.42239 0.50241 0.0
H1605 H 0.59909 0.43759 0.47098 0.0
C1606 C 0.5808 0.46064 0.43914 0.0
C1607 C 0.56953 0.47354 0.42407 0.0
C1608 C 0.57001 0.45017 0.45615 0.0
C1609 C 0.5469 0.47429 0.42529 0.0
C1610 C 0.53591 0.46339 0.44195 0.0
C1611 C 0.53683 0.44256 0.47595 0.0
C1612 C 0.54882 0.43231 0.4925 0.0
C1613 C 0.54736 0.45178 0.45787 0.0
C1614 C 0.57125 0.43041 0.4901 0.0
C1615 C 0.58171 0.43904 0.47209 0.0
H1616 H 0.69919 0.71078 0.79522 0.0
H1617 H 0.69895 0.72464 0.8633 0.0
H1618 H 0.73528 0.70916 0.86678 0.0
H1619 H 0.76676 0.69071 0.85035 0.0
H1620 H 0.76715 0.67894 0.7819 0.0
H1621 H 0.7311 0.69464 0.77859 0.0
C1622 C 0.70707 0.71043 0.81085 0.0
C1623 C 0.6963 0.71861 0.82905 0.0
C1624 C 0.72796 0.70185 0.81261 0.0
C1625 C 0.7069 0.71842 0.84908 0.0
C1626 C 0.72762 0.70951 0.85106 0.0
C1627 C 0.75887 0.69156 0.83476 0.0
C1628 C 0.7695 0.68349 0.81638 0.0
C1629 C 0.73824 0.70098 0.83295 0.0
C1630 C 0.75931 0.68508 0.7962 0.0
C1631 C 0.73869 0.69399 0.79434 0.0
H1632 H 0.98949 0.98926 0.4648 0.0
H1633 H 0.92829 1.00375 0.49464 0.0
H1634 H 0.93522 0.04197 0.49112 0.0
H1635 H 0.95875 0.07167 0.4813 0.0
H1636 H 1.0205 0.05922 0.45209 0.0
H1637 H 1.01325 1.02016 0.45354 0.0
C1638 C 0.97767 1.00081 0.47043 0.0
C1639 C 0.95818 0.99327 0.47967 0.0
C1640 C 0.98186 0.02328 0.46855 0.0
C1641 C 0.94312 1.00866 0.4869 0.0
C1642 C 0.94716 0.03073 0.4851 0.0
C1643 C 0.97068 0.0605 0.47511 0.0
C1644 C 0.99021 0.0685 0.46668 0.0
C1645 C 0.96646 0.03823 0.47613 0.0
C1646 C 1.0053 0.05362 0.4586 0.0
C1647 C 1.00117 0.03124 0.45955 0.0
H1648 H 0.24936 0.85535 0.84222 0.0
H1649 H 0.20916 0.79867 0.8454 0.0
H1650 H 0.23931 0.77758 0.85976 0.0
H1651 H 0.2776 0.77485 0.87022 0.0
H1652 H 0.31764 0.83184 0.86768 0.0
H1653 H 0.28719 0.85306 0.85448 0.0
C1654 C 0.24725 0.83837 0.846 0.0
C1655 C 0.22701 0.82861 0.84261 0.0
C1656 C 0.26467 0.82635 0.85447 0.0
C1657 C 0.22447 0.80665 0.84796 0.0
C1658 C 0.24176 0.79455 0.85612 0.0
C1659 C 0.27964 0.79196 0.86702 0.0
C1660 C 0.30003 0.80161 0.86995 0.0
C1661 C 0.26199 0.80418 0.85935 0.0
C1662 C 0.30223 0.82386 0.86565 0.0
C1663 C 0.2848 0.83606 0.85798 0.0
H1664 H 0.08793 0.53468 0.49445 0.0
H1665 H 0.14203 0.49386 0.51069 0.0
H1666 H 0.12265 0.46241 0.49729 0.0
H1667 H 0.0897 0.44608 0.48241 0.0
H1668 H 0.03509 0.48672 0.46745 0.0
H1669 H 0.05528 0.51852 0.47889 0.0
C1670 C 0.09547 0.51892 0.49524 0.0
C1671 C 0.11648 0.51679 0.50371 0.0
C1672 C 0.08412 0.50078 0.48766 0.0
C1673 C 0.12602 0.49616 0.50413 0.0
C1674 C 0.11488 0.47808 0.49653 0.0
C1675 C 0.08229 0.46192 0.48137 0.0
C1676 C 0.06087 0.46394 0.47402 0.0
C1677 C 0.09388 0.48016 0.48836 0.0
C1678 C 0.05153 0.48463 0.47302 0.0
C1679 C 0.06305 0.50285 0.47964 0.0
H1680 H 0.78107 0.35725 0.76719 0.0
H1681 H 0.82165 0.33208 0.71669 0.0
H1682 H 0.79004 0.31845 0.69787 0.0
H1683 H 0.75124 0.31458 0.6948 0.0
H1684 H 0.70929 0.33852 0.74465 0.0
H1685 H 0.74105 0.35164 0.76474 0.0
C1686 C 0.78298 0.34884 0.75204 0.0
C1687 C 0.80394 0.34582 0.74338 0.0
C1688 C 0.76448 0.34086 0.74117 0.0
C1689 C 0.80596 0.33452 0.7239 0.0
C1690 C 0.78781 0.3268 0.71303 0.0
C1691 C 0.74885 0.32276 0.71004 0.0
C1692 C 0.72773 0.32588 0.71797 0.0
C1693 C 0.76705 0.33003 0.72139 0.0
C1694 C 0.72525 0.33598 0.73806 0.0
C1695 C 0.74345 0.34353 0.74949 0.0
H1696 H 0.63002 0.07162 0.52043 0.0
H1697 H 0.58609 1.02167 0.54142 0.0
H1698 H 0.56105 0.04887 0.55431 0.0
H1699 H 0.55263 0.08649 0.56243 0.0
H1700 H 0.59544 0.13732 0.54189 0.0
H1701 H 0.61974 0.1103 0.52586 0.0
C1702 C 0.61493 0.06671 0.52774 0.0
C1703 C 0.61014 0.04442 0.52996 0.0
C1704 C 0.60038 0.08263 0.53524 0.0
C1705 C 0.59028 0.0385 0.53922 0.0
C1706 C 0.57593 0.05411 0.54676 0.0
C1707 C 0.56716 0.09171 0.55416 0.0
C1708 C 0.57229 0.11388 0.55342 0.0
C1709 C 0.58095 0.07615 0.5452 0.0
C1710 C 0.59104 0.1204 0.54252 0.0
C1711 C 0.60501 0.1049 0.53356 0.0
H1712 H 0.31236 0.2444 0.65866 0.0
H1713 H 0.3472 0.23796 0.7186 0.0
H1714 H 0.31645 0.21838 0.73441 0.0
H1715 H 0.27821 0.20559 0.73175 0.0
H1716 H 0.2441 0.21416 0.6716 0.0
H1717 H 0.27588 0.23066 0.65547 0.0
C1718 C 0.31344 0.2386 0.67517 0.0
C1719 C 0.33215 0.24279 0.68742 0.0
C1720 C 0.29559 0.22797 0.68422 0.0
C1721 C 0.33312 0.23491 0.70872 0.0
C1722 C 0.31543 0.22386 0.71781 0.0
C1723 C 0.27786 0.21088 0.71506 0.0
C1724 C 0.25859 0.2088 0.70297 0.0
C1725 C 0.29636 0.22066 0.70583 0.0
C1726 C 0.25844 0.21588 0.6814 0.0
C1727 C 0.2767 0.22521 0.6721 0.0
H1728 H 0.47625 0.48439 0.56259 0.0
H1729 H 0.54275 0.50128 0.57373 0.0
H1730 H 0.53422 0.53946 0.56642 0.0
H1731 H 0.50756 0.56806 0.55563 0.0
H1732 H 0.44151 0.54907 0.54407 0.0
H1733 H 0.45024 0.51206 0.55288 0.0
C1734 C 0.489 0.49633 0.56354 0.0
C1735 C 0.51019 0.48977 0.56868 0.0
C1736 C 0.484 0.51811 0.55923 0.0
C1737 C 0.5263 0.50573 0.56989 0.0
C1738 C 0.52141 0.5276 0.56561 0.0
C1739 C 0.49508 0.55584 0.55509 0.0
C1740 C 0.47373 0.56184 0.54941 0.0
C1741 C 0.50028 0.53401 0.56005 0.0
C1742 C 0.45789 0.54553 0.54886 0.0
C1743 C 0.46292 0.52408 0.55373 0.0
H1744 H 0.82683 0.70549 0.72939 0.0
H1745 H 0.85656 0.73735 0.78348 0.0
H1746 H 0.84713 0.77264 0.76779 0.0
H1747 H 0.82903 0.79448 0.73896 0.0
H1748 H 0.79846 0.76091 0.68615 0.0
H1749 H 0.80977 0.72665 0.70102 0.0
C1750 C 0.83144 0.7201 0.7378 0.0
C1751 C 0.84242 0.71861 0.75767 0.0
C1752 C 0.82574 0.74024 0.72884 0.0
C1753 C 0.84819 0.73788 0.76815 0.0
C1754 C 0.84269 0.75811 0.75919 0.0
C1755 C 0.82483 0.7797 0.7307 0.0
C1756 C 0.81298 0.78073 0.71115 0.0
C1757 C 0.83121 0.75952 0.73961 0.0
C1758 C 0.80788 0.76115 0.7008 0.0
C1759 C 0.81422 0.74129 0.70944 0.0
H1760 H 0.86223 0.34397 0.85321 0.0
H1761 H 0.80161 0.3572 0.82178 0.0
H1762 H 0.78798 0.32171 0.8334 0.0
H1763 H 0.7952 0.28513 0.84875 0.0
H1764 H 0.85687 0.27236 0.87859 0.0
H1765 H 0.8683 0.3092 0.87091 0.0
C1766 C 0.84582 0.33933 0.84929 0.0
C1767 C 0.83295 0.35333 0.83669 0.0
C1768 C 0.8385 0.31866 0.85526 0.0
C1769 C 0.81176 0.34698 0.83175 0.0
C1770 C 0.80411 0.3265 0.83812 0.0
C1771 C 0.81103 0.29046 0.85386 0.0
C1772 C 0.82525 0.27566 0.86404 0.0
C1773 C 0.81761 0.3119 0.84929 0.0
C1774 C 0.84574 0.28303 0.87035 0.0
C1775 C 0.85224 0.30424 0.86612 0.0
H1776 H 0.55376 0.95535 0.52899 0.0
H1777 H 0.58873 0.95845 0.46892 0.0
H1778 H 0.55492 0.96288 0.44915 0.0
H1779 H 0.51529 0.96768 0.44892 0.0
H1780 H 0.48036 0.96371 0.50887 0.0
H1781 H 0.51404 0.95772 0.52851 0.0
C1782 C 0.55401 0.95677 0.51155 0.0
C1783 C 0.57394 0.95662 0.50056 0.0
C1784 C 0.5344 0.95929 0.50019 0.0
C1785 C 0.57377 0.95843 0.47791 0.0
C1786 C 0.55438 0.96108 0.46654 0.0
C1787 C 0.51507 0.96546 0.46627 0.0
C1788 C 0.49522 0.96623 0.47735 0.0
C1789 C 0.5346 0.96185 0.47751 0.0
C1790 C 0.49526 0.96302 0.49985 0.0
C1791 C 0.51459 0.9597 0.51113 0.0
H1792 H 0.27058 0.2381 0.85596 0.0
H1793 H 0.23333 0.29121 0.8302 0.0
H1794 H 0.21566 0.26701 0.80497 0.0
H1795 H 0.21073 0.23137 0.79006 0.0
H1796 H 0.24779 0.17736 0.81406 0.0
H1797 H 0.26551 0.20128 0.84028 0.0
C1798 C 0.25851 0.24429 0.84489 0.0
C1799 C 0.25338 0.26656 0.84495 0.0
C1800 C 0.24838 0.23016 0.83016 0.0
C1801 C 0.23785 0.27433 0.83033 0.0
C1802 C 0.22763 0.26044 0.81596 0.0
C1803 C 0.22262 0.22461 0.80102 0.0
C1804 C 0.2278 0.20247 0.80009 0.0
C1805 C 0.23279 0.23841 0.8157 0.0
C1806 C 0.24342 0.19429 0.81441 0.0
C1807 C 0.25355 0.208 0.82939 0.0
H1808 H 1.01743 0.09777 0.93033 0.0
H1809 H 0.05325 0.09706 0.99004 0.0
H1810 H 1.02102 0.1078 1.00971 0.0
H1811 H 0.98213 0.11523 1.01046 0.0
H1812 H 0.94589 0.11536 0.95097 0.0
H1813 H 0.97871 0.10711 0.93084 0.0
C1814 C 1.0182 0.09992 0.94764 0.0
C1815 C 0.03787 0.09645 0.95861 0.0
C1816 C 0.99945 0.10601 0.95897 0.0
C1817 C 0.03853 0.09975 0.98105 0.0
C1818 C 1.02 0.1058 0.99238 0.0
C1819 C 0.98139 0.11374 0.99305 0.0
C1820 C 0.96142 0.11589 0.98232 0.0
C1821 C 1.00032 0.10873 0.98157 0.0
C1822 C 0.96094 0.11384 0.95973 0.0
C1823 C 0.97973 0.109 0.94818 0.0
H1824 H 0.74991 0.28233 0.20044 0.0
H1825 H 0.69592 0.24135 0.21655 0.0
H1826 H 0.6782 0.27143 0.23441 0.0
H1827 H 0.67821 0.3088 0.24623 0.0
H1828 H 0.73208 0.35038 0.23137 0.0
H1829 H 0.74941 0.32077 0.21171 0.0
C1830 C 0.73417 0.28005 0.20766 0.0
C1831 C 0.72433 0.25946 0.20719 0.0
C1832 C 0.72399 0.29755 0.218 0.0
C1833 C 0.70405 0.2568 0.21693 0.0
C1834 C 0.69381 0.27408 0.22702 0.0
C1835 C 0.69369 0.31158 0.23859 0.0
C1836 C 0.7038 0.33189 0.24033 0.0
C1837 C 0.70368 0.29444 0.22777 0.0
C1838 C 0.72386 0.335 0.23023 0.0
C1839 C 0.73382 0.31801 0.2191 0.0
H1840 H 0.59998 0.08662 0.0819 0.0
H1841 H 0.6177 0.03466 0.03947 0.0
H1842 H 0.58339 1.01639 0.04744 0.0
H1843 H 0.5465 1.01757 0.06315 0.0
H1844 H 0.53004 0.0686 0.10688 0.0
H1845 H 0.56531 0.08542 0.10101 0.0
C1846 C 0.59656 0.07108 0.07465 0.0
C1847 C 0.61143 0.06212 0.05999 0.0
C1848 C 0.57667 0.06096 0.07889 0.0
C1849 C 0.60671 0.04191 0.05089 0.0
C1850 C 0.58691 0.03165 0.05514 0.0
C1851 C 0.55077 0.03225 0.07141 0.0
C1852 C 0.53558 0.04196 0.08521 0.0
C1853 C 0.57145 0.04142 0.06849 0.0
C1854 C 0.54137 0.06094 0.09607 0.0
C1855 C 0.56157 0.07049 0.09278 0.0
H1856 H 0.50998 0.51083 0.07726 0.0
H1857 H 0.50932 0.45665 0.1211 0.0
H1858 H 0.47216 0.44816 0.11037 0.0
H1859 H 0.43872 0.45781 0.09014 0.0
H1860 H 0.43915 0.51394 0.04879 0.0
H1861 H 0.47721 0.52007 0.05689 0.0
C1862 C 0.50183 0.49695 0.08421 0.0
C1863 C 0.51252 0.48427 0.09986 0.0
C1864 C 0.48026 0.49258 0.07841 0.0
C1865 C 0.50147 0.46665 0.10905 0.0
C1866 C 0.48022 0.4618 0.10289 0.0
C1867 C 0.44738 0.47101 0.08252 0.0
C1868 C 0.43628 0.48511 0.06844 0.0
C1869 C 0.46929 0.47482 0.08776 0.0
C1870 C 0.44745 0.50266 0.05933 0.0
C1871 C 0.46921 0.50622 0.06404 0.0
H1872 H 0.14673 0.32871 0.37674 0.0
H1873 H 0.11119 0.26889 0.3758 0.0
H1874 H 0.08398 0.28449 0.39979 0.0
H1875 H 0.07248 0.31403 0.42418 0.0
H1876 H 0.10828 0.37369 0.42462 0.0
H1877 H 0.13315 0.35933 0.39773 0.0
C1878 C 0.13276 0.31923 0.38137 0.0
C1879 C 0.13103 0.29764 0.37447 0.0
C1880 C 0.11741 0.32819 0.39543 0.0
C1881 C 0.11282 0.2856 0.38062 0.0
C1882 C 0.0974 0.29445 0.3946 0.0
C1883 C 0.08569 0.32388 0.41831 0.0
C1884 C 0.08867 0.34485 0.42665 0.0
C1885 C 0.0999 0.31551 0.40266 0.0
C1886 C 0.1056 0.35757 0.41851 0.0
C1887 C 0.11987 0.34932 0.40316 0.0
H1888 H 0.5813 0.66484 0.8573 0.0
H1889 H 0.58634 0.72265 0.89557 0.0
H1890 H 0.56724 0.70471 0.92508 0.0
H1891 H 0.54772 0.67278 0.93977 0.0
H1892 H 0.54165 0.61593 0.90026 0.0
H1893 H 0.56226 0.63339 0.87166 0.0
C1894 C 0.57815 0.67374 0.87193 0.0
C1895 C 0.58536 0.69529 0.87387 0.0
C1896 C 0.56684 0.66341 0.8888 0.0
C1897 C 0.58128 0.70609 0.89341 0.0
C1898 C 0.57021 0.69582 0.91037 0.0
C1899 C 0.55108 0.66415 0.92498 0.0
C1900 C 0.54308 0.64297 0.9223 0.0
C1901 C 0.56277 0.67449 0.90824 0.0
C1902 C 0.54748 0.6322 0.90287 0.0
C1903 C 0.5593 0.6422 0.88642 0.0
H1904 H 0.95114 0.24278 0.36708 0.0
H1905 H 0.88563 0.22907 0.38617 0.0
H1906 H 0.89862 0.20147 0.41145 0.0
H1907 H 0.92861 0.18175 0.4287 0.0
H1908 H 0.99411 0.19619 0.41007 0.0
H1909 H 0.98101 0.22266 0.38387 0.0
C1910 C 0.93962 0.23373 0.37668 0.0
C1911 C 0.91736 0.23813 0.37465 0.0
C1912 C 0.94722 0.21793 0.3913 0.0
C1913 C 0.90281 0.22612 0.38731 0.0
C1914 C 0.91025 0.21032 0.40182 0.0
C1915 C 0.94011 0.19074 0.41906 0.0
C1916 C 0.96245 0.18687 0.42162 0.0
C1917 C 0.93244 0.2062 0.40409 0.0
C1918 C 0.9769 0.19852 0.40849 0.0
C1919 C 0.96939 0.21383 0.39353 0.0
H1920 H 0.50881 0.84619 0.92198 0.0
H1921 H 0.47673 0.87649 0.97538 0.0
H1922 H 0.44262 0.8595 0.96482 0.0
H1923 H 0.42102 0.84097 0.9367 0.0
H1924 H 0.45335 0.81004 0.88381 0.0
H1925 H 0.48834 0.82209 0.89781 0.0
C1926 C 0.49453 0.84823 0.93186 0.0
C1927 C 0.49531 0.8623 0.94963 0.0
C1928 C 0.47495 0.83873 0.92538 0.0
C1929 C 0.47664 0.8653 0.962 0.0
C1930 C 0.45705 0.8559 0.9557 0.0
C1931 C 0.43581 0.83657 0.92853 0.0
C1932 C 0.43468 0.82492 0.90908 0.0
C1933 C 0.45585 0.84338 0.93686 0.0
C1934 C 0.45389 0.81901 0.89875 0.0
C1935 C 0.47385 0.82597 0.90673 0.0
H1936 H 0.12586 0.71798 0.1847 0.0
H1937 H 0.07546 0.76044 0.20659 0.0
H1938 H 0.04818 0.734 0.19513 0.0
H1939 H 0.03873 0.69974 0.17594 0.0
H1940 H 0.09018 0.65855 0.1539 0.0
H1941 H 0.1168 0.68339 0.16849 0.0
C1942 C 0.10892 0.72148 0.18721 0.0
C1943 C 0.10282 0.74135 0.19641 0.0
C1944 C 0.09341 0.70637 0.18036 0.0
C1945 C 0.08072 0.74532 0.19965 0.0
C1946 C 0.06509 0.73021 0.19295 0.0
C1947 C 0.05574 0.69611 0.17453 0.0
C1948 C 0.06235 0.67735 0.16334 0.0
C1949 C 0.07122 0.71081 0.18285 0.0
C1950 C 0.08456 0.67296 0.16194 0.0
C1951 C 0.09985 0.68718 0.17035 0.0
H1952 H 0.98156 0.71817 0.16538 0.0
H1953 H 0.92856 0.68686 0.13354 0.0
H1954 H 0.95295 0.67404 0.10507 0.0
H1955 H 0.98973 0.67234 0.08882 0.0
H1956 H 0.04162 0.70699 0.11924 0.0
H1957 H 1.01745 0.71838 0.14817 0.0
C1958 C 0.97542 0.70854 0.15218 0.0
C1959 C 0.95333 0.70332 0.15161 0.0
C1960 C 0.98944 0.70184 0.13557 0.0
C1961 C 0.94548 0.69109 0.13426 0.0
C1962 C 0.95946 0.68372 0.11805 0.0
C1963 C 0.99577 0.68195 0.10208 0.0
C1964 C 1.01766 0.68814 0.10233 0.0
C1965 C 0.98153 0.68895 0.11851 0.0
C1966 C 0.02501 0.70156 0.119 0.0
C1967 C 1.01118 0.70811 0.13554 0.0
H1968 H 0.95334 0.79167 0.15926 0.0
H1969 H 0.88602 0.80131 0.14437 0.0
H1970 H 0.89577 0.82744 0.11622 0.0
H1971 H 0.92345 0.84769 0.0961 0.0
H1972 H 0.99076 0.83671 0.11035 0.0
H1973 H 0.98088 0.81112 0.13861 0.0
C1974 C 0.94074 0.79953 0.14995 0.0
C1975 C 0.91894 0.79459 0.15405 0.0
C1976 C 0.94647 0.81434 0.13366 0.0
C1977 C 0.90291 0.80481 0.14161 0.0
C1978 C 0.90849 0.81975 0.1255 0.0
C1979 C 0.93602 0.83958 0.10515 0.0
C1980 C 0.9579 0.84437 0.10098 0.0
C1981 C 0.93023 0.82462 0.12134 0.0
C1982 C 0.97383 0.83374 0.11327 0.0
C1983 C 0.96819 0.81896 0.12943 0.0
H1984 H 0.05908 0.87478 0.08666 0.0
H1985 H 0.03569 0.90438 0.14495 0.0
H1986 H 0.06206 0.88408 0.1662 0.0
H1987 H 0.09131 0.85712 0.16854 0.0
H1988 H 0.11375 0.82665 0.11028 0.0
H1989 H 0.08852 0.84806 0.08899 0.0
C1990 C 0.05989 0.877 0.10398 0.0
C1991 C 0.04534 0.89125 0.11408 0.0
C1992 C 0.07496 0.86496 0.11626 0.0
C1993 C 0.0466 0.89361 0.13663 0.0
C1994 C 0.06169 0.88192 0.14886 0.0
C1995 C 0.09065 0.85501 0.15122 0.0
C1996 C 0.10468 0.84014 0.14122 0.0
C1997 C 0.07583 0.86735 0.13891 0.0
C1998 C 0.10355 0.83804 0.11861 0.0
C1999 C 0.08896 0.85026 0.10632 0.0
H2000 H 0.35834 0.11141 0.3484 0.0
H2001 H 0.33827 0.0618 0.30419 0.0
H2002 H 0.34805 0.03397 0.33093 0.0
H2003 H 0.36519 0.02385 0.36604 0.0
H2004 H 0.38537 0.07433 0.40928 0.0
H2005 H 0.37274 0.10165 0.38375 0.0
C2006 C 0.35587 0.09452 0.34458 0.0
C2007 C 0.34767 0.08877 0.32417 0.0
C2008 C 0.36176 0.07871 0.35989 0.0
C2009 C 0.34445 0.06676 0.31974 0.0
C2010 C 0.35019 0.05083 0.33502 0.0
C2011 C 0.36647 0.0408 0.37003 0.0
C2012 C 0.3764 0.04698 0.38963 0.0
C2013 C 0.35925 0.0566 0.35504 0.0
C2014 C 0.37808 0.0691 0.39431 0.0
C2015 C 0.37081 0.08475 0.37971 0.0
H2016 H 0.40985 0.39484 0.97178 0.0
H2017 H 0.35571 0.42666 1.00142 0.0
H2018 H 0.33133 0.41028 0.97493 0.0
H2019 H 0.32517 0.38481 0.94432 0.0
H2020 H 0.38009 0.35351 0.91557 0.0
H2021 H 0.4042 0.37177 0.94052 0.0
C2022 C 0.39273 0.39835 0.97245 0.0
C2023 C 0.3847 0.4119 0.98876 0.0
C2024 C 0.37883 0.38883 0.95726 0.0
C2025 C 0.36243 0.4163 0.98912 0.0
C2026 C 0.34844 0.40687 0.97396 0.0
C2027 C 0.34243 0.38229 0.94337 0.0
C2028 C 0.35074 0.36754 0.92819 0.0
C2029 C 0.3564 0.39284 0.95807 0.0
C2030 C 0.37319 0.36441 0.92728 0.0
C2031 C 0.38704 0.37491 0.94154 0.0
H2032 H 0.71151 0.43606 0.34697 0.0
H2033 H 0.67687 0.44649 0.28742 0.0
H2034 H 0.65855 0.4776 0.30318 0.0
H2035 H 0.6488 0.49866 0.33551 0.0
H2036 H 0.68304 0.48754 0.39511 0.0
H2037 H 0.70517 0.46006 0.37772 0.0
C2038 C 0.70033 0.44546 0.33725 0.0
C2039 C 0.69547 0.43881 0.31609 0.0
C2040 C 0.68951 0.46302 0.34658 0.0
C2041 C 0.68104 0.45126 0.30368 0.0
C2042 C 0.67035 0.46893 0.31279 0.0
C2043 C 0.66125 0.49033 0.3446 0.0
C2044 C 0.66405 0.49494 0.36668 0.0
C2045 C 0.67385 0.47442 0.33448 0.0
C2046 C 0.68055 0.48436 0.37814 0.0
C2047 C 0.69314 0.46854 0.36821 0.0
H2048 H 0.6792 0.10351 0.93738 0.0
H2049 H 0.72196 0.09135 0.99098 0.0
H2050 H 0.75229 0.10601 0.96992 0.0
H2051 H 0.76572 0.12581 0.93721 0.0
H2052 H 0.72114 0.13981 0.88556 0.0
H2053 H 0.69257 0.12079 0.90479 0.0
C2054 C 0.69519 0.10378 0.94449 0.0
C2055 C 0.69818 0.09641 0.96586 0.0
C2056 C 0.71225 0.1128 0.93259 0.0
C2057 C 0.71913 0.09677 0.97458 0.0
C2058 C 0.73645 0.10535 0.96256 0.0
C2059 C 0.7498 0.12448 0.93013 0.0
C2060 C 0.74549 0.13457 0.91004 0.0
C2061 C 0.7331 0.11395 0.94171 0.0
C2062 C 0.72479 0.13254 0.90106 0.0
C2063 C 0.70845 0.12163 0.91206 0.0
H2064 H 0.36523 0.95332 0.22768 0.0
H2065 H 0.36428 0.88819 0.20342 0.0
H2066 H 0.38626 0.89959 0.17241 0.0
H2067 H 0.40653 0.92843 0.15242 0.0
H2068 H 0.40828 0.99267 0.17868 0.0
H2069 H 0.38511 0.98137 0.20848 0.0
C2070 C 0.3697 0.94153 0.21562 0.0
C2071 C 0.36296 0.91989 0.21794 0.0
C2072 C 0.38251 0.94814 0.19807 0.0
C2073 C 0.36921 0.90493 0.20213 0.0
C2074 C 0.38176 0.91148 0.18435 0.0
C2075 C 0.40159 0.9399 0.16459 0.0
C2076 C 0.40905 0.96142 0.16332 0.0
C2077 C 0.38857 0.93308 0.18213 0.0
C2078 C 0.40282 0.97607 0.17936 0.0
C2079 C 0.38957 0.9696 0.1964 0.0
H2080 H 0.22567 0.35961 0.09038 0.0
H2081 H 0.20058 0.37386 0.15334 0.0
H2082 H 0.17952 0.40404 0.1382 0.0
H2083 H 0.16635 0.42476 0.10628 0.0
H2084 H 0.19378 0.41167 0.04377 0.0
H2085 H 0.21589 0.38295 0.05938 0.0
C2086 C 0.21581 0.36958 0.10077 0.0
C2087 C 0.21457 0.36454 0.12292 0.0
C2088 C 0.20408 0.38706 0.09196 0.0
C2089 C 0.20186 0.37757 0.13629 0.0
C2090 C 0.18974 0.39471 0.12758 0.0
C2091 C 0.17737 0.4158 0.09614 0.0
C2092 C 0.17823 0.42039 0.0738 0.0
C2093 C 0.19042 0.3994 0.10534 0.0
C2094 C 0.19277 0.40866 0.06097 0.0
C2095 C 0.20538 0.39209 0.06988 0.0
H2096 H 0.66401 0.60676 0.24211 0.0
H2097 H 0.72128 0.5945 0.20478 0.0
H2098 H 0.70166 0.56824 0.18297 0.0
H2099 H 0.66745 0.55125 0.17226 0.0
H2100 H 0.60956 0.56565 0.20805 0.0
H2101 H 0.63013 0.58829 0.2325 0.0
C2102 C 0.67234 0.598 0.22952 0.0
C2103 C 0.69418 0.60263 0.22517 0.0
C2104 C 0.66069 0.58346 0.21643 0.0
C2105 C 0.70455 0.59124 0.20857 0.0
C2106 C 0.69326 0.57632 0.19595 0.0
C2107 C 0.65923 0.5593 0.18535 0.0
C2108 C 0.63677 0.55658 0.18797 0.0
C2109 C 0.67116 0.57276 0.1993 0.0
C2110 C 0.62673 0.56704 0.20546 0.0
C2111 C 0.63853 0.58019 0.21952 0.0
H2112 H 0.83925 0.1808 0.10966 0.0
H2113 H 0.81033 0.12159 0.13248 0.0
H2114 H 0.83012 0.10123 0.10536 0.0
H2115 H 0.85368 0.10045 0.07369 0.0
H2116 H 0.88272 0.15942 0.05037 0.0
H2117 H 0.86495 0.17964 0.07919 0.0
C2118 C 0.83729 0.16344 0.10869 0.0
C2119 C 0.82315 0.15278 0.12304 0.0
C2120 C 0.84872 0.15179 0.09293 0.0
C2121 C 0.82116 0.13021 0.12181 0.0
C2122 C 0.8324 0.11856 0.10619 0.0
C2123 C 0.8563 0.11771 0.07498 0.0
C2124 C 0.8694 0.12841 0.05975 0.0
C2125 C 0.84596 0.12921 0.09148 0.0
C2126 C 0.87276 0.15075 0.06186 0.0
C2127 C 0.8625 0.16234 0.07828 0.0
H2128 H 0.38275 0.35929 0.10005 0.0
H2129 H 0.36541 0.42551 0.11267 0.0
H2130 H 0.33564 0.41348 0.13536 0.0
H2131 H 0.31348 0.38424 0.15065 0.0
H2132 H 0.33074 0.31794 0.13828 0.0
H2133 H 0.36161 0.32993 0.1169 0.0
C2134 C 0.37268 0.37113 0.10796 0.0
C2135 C 0.37637 0.39336 0.10435 0.0
C2136 C 0.35544 0.36407 0.12112 0.0
C2137 C 0.36286 0.40834 0.11472 0.0
C2138 C 0.34582 0.40145 0.12784 0.0
C2139 C 0.32407 0.37236 0.14345 0.0
C2140 C 0.31962 0.35016 0.14613 0.0
C2141 C 0.34178 0.37937 0.13097 0.0
C2142 C 0.33364 0.33511 0.13657 0.0
C2143 C 0.35133 0.34197 0.12425 0.0
H2144 H 0.33436 0.67547 0.40014 0.0
H2145 H 0.30605 0.7247 0.44001 0.0
H2146 H 0.33413 0.7184 0.46747 0.0
H2147 H 0.36578 0.69694 0.48099 0.0
H2148 H 0.39291 0.64797 0.43986 0.0
H2149 H 0.36622 0.65608 0.41221 0.0
C2150 C 0.33425 0.68497 0.41478 0.0
C2151 C 0.31789 0.70045 0.41799 0.0
C2152 C 0.35026 0.68115 0.43042 0.0
C2153 C 0.31838 0.7127 0.43702 0.0
C2154 C 0.33442 0.70901 0.45278 0.0
C2155 C 0.366 0.68826 0.46587 0.0
C2156 C 0.38132 0.67159 0.46272 0.0
C2157 C 0.35033 0.69301 0.4498 0.0
C2158 C 0.38118 0.66051 0.44299 0.0
C2159 C 0.36594 0.66521 0.42707 0.0
H2160 H 0.92468 0.47496 0.90779 0.0
H2161 H 0.97919 0.49458 0.86927 0.0
H2162 H 0.96687 0.47121 0.83991 0.0
H2163 H 0.93964 0.44599 0.82456 0.0
H2164 H 0.8856 0.4266 0.86399 0.0
H2165 H 0.89863 0.44909 0.89327 0.0
C2166 C 0.93401 0.47412 0.89304 0.0
C2167 C 0.95291 0.48669 0.89089 0.0
C2168 C 0.92677 0.4607 0.87617 0.0
C2169 C 0.96465 0.48517 0.87153 0.0
C2170 C 0.95755 0.47179 0.85466 0.0
C2171 C 0.9308 0.44649 0.8396 0.0
C2172 C 0.91138 0.43461 0.84173 0.0
C2173 C 0.9385 0.45957 0.8567 0.0
C2174 C 0.90025 0.43575 0.86148 0.0
C2175 C 0.9078 0.44857 0.87841 0.0
H2176 H 0.72488 0.91839 0.47109 0.0
H2177 H 0.65923 0.90495 0.4523 0.0
H2178 H 0.67148 0.87423 0.43109 0.0
H2179 H 0.70087 0.85265 0.41576 0.0
H2180 H 0.76674 0.86644 0.43337 0.0
H2181 H 0.75436 0.89528 0.45724 0.0
C2182 C 0.71321 0.90884 0.46232 0.0
C2183 C 0.69104 0.9143 0.46327 0.0
C2184 C 0.72042 0.8911 0.44997 0.0
C2185 C 0.67628 0.90125 0.45207 0.0
C2186 C 0.68331 0.88365 0.43983 0.0
C2187 C 0.71257 0.86168 0.42509 0.0
C2188 C 0.73478 0.85718 0.42272 0.0
C2189 C 0.70534 0.87858 0.43844 0.0
C2190 C 0.74958 0.86921 0.43499 0.0
C2191 C 0.74248 0.88593 0.44849 0.0
H2192 H 0.59962 0.60511 0.35935 0.0
H2193 H 0.5891 0.54984 0.31868 0.0
H2194 H 0.59982 0.57127 0.28695 0.0
H2195 H 0.61584 0.60492 0.27149 0.0
H2196 H 0.62712 0.65923 0.31325 0.0
H2197 H 0.61251 0.63898 0.34381 0.0
C2198 C 0.59938 0.59773 0.34352 0.0
C2199 C 0.59367 0.57579 0.34149 0.0
C2200 C 0.60595 0.60999 0.32554 0.0
C2201 C 0.59332 0.56667 0.32077 0.0
C2202 C 0.59962 0.57891 0.30263 0.0
C2203 C 0.61467 0.61245 0.28718 0.0
C2204 C 0.62267 0.63363 0.29008 0.0
C2205 C 0.60648 0.60048 0.30489 0.0
C2206 C 0.62127 0.64297 0.31063 0.0
C2207 C 0.6129 0.63138 0.3281 0.0
H2208 H 0.19129 0.62174 0.61888 0.0
H2209 H 0.17755 0.6625 0.56375 0.0
H2210 H 0.1976 0.69186 0.58012 0.0
H2211 H 0.22055 0.70565 0.609 0.0
H2212 H 0.23608 0.66495 0.66358 0.0
H2213 H 0.21389 0.63597 0.64845 0.0
C2214 C 0.19271 0.63696 0.61033 0.0
C2215 C 0.18276 0.63964 0.58994 0.0
C2216 C 0.20466 0.65389 0.61975 0.0
C2217 C 0.18465 0.65979 0.57947 0.0
C2218 C 0.19629 0.67667 0.5888 0.0
C2219 C 0.21899 0.69053 0.61777 0.0
C2220 C 0.23006 0.68757 0.63746 0.0
C2221 C 0.20652 0.67385 0.60881 0.0
C2222 C 0.22777 0.66776 0.64844 0.0
C2223 C 0.21512 0.65114 0.63974 0.0
H2224 H 0.89394 0.58201 0.75488 0.0
H2225 H 0.89142 0.64454 0.72398 0.0
H2226 H 0.91444 0.63142 0.69491 0.0
H2227 H 0.93264 0.60144 0.67668 0.0
H2228 H 0.93506 0.53863 0.70702 0.0
H2229 H 0.91507 0.55264 0.73802 0.0
C2230 C 0.89844 0.59276 0.74179 0.0
C2231 C 0.89069 0.61422 0.74152 0.0
C2232 C 0.91176 0.58506 0.72507 0.0
C2233 C 0.89713 0.62804 0.72466 0.0
C2234 C 0.91026 0.6205 0.70798 0.0
C2235 C 0.92917 0.59088 0.69026 0.0
C2236 C 0.93535 0.56898 0.68945 0.0
C2237 C 0.91736 0.59896 0.70782 0.0
C2238 C 0.93074 0.55558 0.70725 0.0
C2239 C 0.91907 0.56355 0.72489 0.0
H2240 H 0.12747 0.94349 0.75982 0.0
H2241 H 0.09365 0.88577 0.74059 0.0
H2242 H 0.07095 0.90688 0.71644 0.0
H2243 H 0.0622 0.94111 0.69868 0.0
H2244 H 0.09629 0.99908 0.71643 0.0
H2245 H 0.11701 0.97864 0.74331 0.0
C2246 C 0.11515 0.93553 0.75035 0.0
C2247 C 0.11244 0.91292 0.75214 0.0
C2248 C 0.10206 0.94786 0.7362 0.0
C2249 C 0.09609 0.90305 0.73988 0.0
C2250 C 0.08309 0.91515 0.72591 0.0
C2251 C 0.07391 0.94942 0.70863 0.0
C2252 C 0.07762 0.97167 0.70541 0.0
C2253 C 0.0861 0.93749 0.72372 0.0
C2254 C 0.0929 0.98205 0.71858 0.0
C2255 C 0.10495 0.97029 0.73385 0.0
H2256 H 0.60844 0.81533 0.8473 0.0
H2257 H 0.63264 0.79137 0.90825 0.0
H2258 H 0.6168 0.8221 0.92674 0.0
H2259 H 0.59556 0.85544 0.92605 0.0
H2260 H 0.57093 0.87987 0.86559 0.0
H2261 H 0.58768 0.84964 0.84657 0.0
C2262 C 0.61033 0.81686 0.86461 0.0
C2263 C 0.62175 0.80085 0.87629 0.0
C2264 C 0.6011 0.83475 0.87531 0.0
C2265 C 0.62399 0.80328 0.89874 0.0
C2266 C 0.61489 0.82091 0.9094 0.0
C2267 C 0.59368 0.85414 0.90873 0.0
C2268 C 0.58176 0.86995 0.89737 0.0
C2269 C 0.60328 0.83665 0.89791 0.0
C2270 C 0.58005 0.86811 0.87481 0.0
C2271 C 0.58956 0.85071 0.86391 0.0
H2272 H 0.07599 0.16915 0.45609 0.0
H2273 H 0.06438 0.14305 0.39269 0.0
H2274 H 0.09546 0.16266 0.37865 0.0
H2275 H 0.12563 0.18774 0.38394 0.0
H2276 H 0.13708 0.21464 0.44698 0.0
H2277 H 0.1068 0.194 0.46148 0.0
C2278 C 0.08029 0.16766 0.43922 0.0
C2279 C 0.06766 0.15457 0.42553 0.0
C2280 C 0.09829 0.17914 0.4311 0.0
C2281 C 0.07362 0.15295 0.40369 0.0
C2282 C 0.09147 0.1642 0.39559 0.0
C2283 C 0.1215 0.18927 0.40083 0.0
C2284 C 0.13379 0.20297 0.41421 0.0
C2285 C 0.10384 0.17748 0.40908 0.0
C2286 C 0.12823 0.2042 0.43621 0.0
C2287 C 0.11073 0.19245 0.44453 0.0
H2288 H 0.4191 0.68529 0.9639 0.0
H2289 H 0.46609 0.66828 0.91551 0.0
H2290 H 0.44888 0.69265 0.88986 0.0
H2291 H 0.4212 0.7194 0.88121 0.0
H2292 H 0.37376 0.73662 0.92897 0.0
H2293 H 0.39014 0.71115 0.95459 0.0
C2294 C 0.42548 0.68669 0.9477 0.0
C2295 C 0.44412 0.67496 0.94187 0.0
C2296 C 0.41535 0.70072 0.93282 0.0
C2297 C 0.45213 0.6773 0.92075 0.0
C2298 C 0.44217 0.69116 0.90594 0.0
C2299 C 0.41428 0.71754 0.89717 0.0
C2300 C 0.39626 0.73002 0.90313 0.0
C2301 C 0.42389 0.70306 0.91184 0.0
C2302 C 0.38757 0.72724 0.9239 0.0
C2303 C 0.39701 0.71273 0.9386 0.0
H2304 H 0.97699 0.3464 0.45149 0.0
H2305 H 0.99058 0.40594 0.41766 0.0
H2306 H 0.96628 0.39509 0.38845 0.0
H2307 H 0.94217 0.36797 0.37196 0.0
H2308 H 0.93049 0.30785 0.40571 0.0
H2309 H 0.9528 0.31985 0.43549 0.0
C2310 C 0.97457 0.35716 0.43784 0.0
C2311 C 0.98567 0.37699 0.43684 0.0
C2312 C 0.96088 0.35068 0.42099 0.0
C2313 C 0.98227 0.3906 0.41891 0.0
C2314 C 0.96841 0.38436 0.40216 0.0
C2315 C 0.94454 0.35741 0.38574 0.0
C2316 C 0.93443 0.33695 0.38636 0.0
C2317 C 0.95783 0.36429 0.40289 0.0
C2318 C 0.93761 0.32375 0.40467 0.0
C2319 C 0.95057 0.33055 0.42177 0.0
H2320 H 0.64808 0.22809 0.64951 0.0
H2321 H 0.60861 0.26071 0.69641 0.0
H2322 H 0.57769 0.238 0.68595 0.0
H2323 H 0.56163 0.20958 0.66199 0.0
H2324 H 0.60245 0.17863 0.61505 0.0
H2325 H 0.63299 0.20017 0.62694 0.0
C2326 C 0.63278 0.23039 0.65764 0.0
C2327 C 0.63081 0.24631 0.67376 0.0
C2328 C 0.6152 0.21757 0.65135 0.0
C2329 C 0.61073 0.24865 0.68401 0.0
C2330 C 0.59302 0.23568 0.67794 0.0
C2331 C 0.57726 0.20744 0.65452 0.0
C2332 C 0.57959 0.19248 0.63742 0.0
C2333 C 0.595 0.22017 0.66143 0.0
C2334 C 0.6 0.19014 0.62789 0.0
C2335 C 0.61755 0.20241 0.63479 0.0
H2336 H 0.43909 0.26863 0.5974 0.0
H2337 H 0.39141 0.22209 0.61765 0.0
H2338 H 0.41465 0.19262 0.60597 0.0
H2339 H 0.44946 0.17986 0.59327 0.0
H2340 H 0.49851 0.22525 0.57387 0.0
H2341 H 0.47372 0.25535 0.58139 0.0
C2342 C 0.43366 0.25205 0.59883 0.0
C2343 C 0.41348 0.24757 0.60855 0.0
C2344 C 0.44741 0.23499 0.59231 0.0
C2345 C 0.40685 0.22596 0.61048 0.0
C2346 C 0.42015 0.2091 0.60377 0.0
C2347 C 0.45474 0.19633 0.59038 0.0
C2348 C 0.47594 0.20023 0.58313 0.0
C2349 C 0.44062 0.21339 0.59518 0.0
C2350 C 0.4823 0.22171 0.57931 0.0
C2351 C 0.46815 0.23893 0.58382 0.0
H2352 H 0.48619 0.38268 0.65679 0.0
H2353 H 0.48026 0.35701 0.59261 0.0
H2354 H 0.45792 0.32734 0.60648 0.0
H2355 H 0.43547 0.3123 0.63596 0.0
H2356 H 0.4402 0.33915 0.69968 0.0
H2357 H 0.46795 0.36442 0.68716 0.0
C2358 C 0.48022 0.37044 0.64588 0.0
C2359 C 0.48459 0.37229 0.6236 0.0
C2360 C 0.46724 0.35357 0.65399 0.0
C2361 C 0.47712 0.35601 0.60977 0.0
C2362 C 0.46426 0.3391 0.61771 0.0
C2363 C 0.44336 0.32301 0.64729 0.0
C2364 C 0.43622 0.3235 0.66888 0.0
C2365 C 0.45865 0.33811 0.63968 0.0
C2366 C 0.44591 0.33802 0.68321 0.0
C2367 C 0.46149 0.35274 0.67592 0.0
H2368 H 0.59381 0.38413 0.58571 0.0
H2369 H 0.58402 0.41225 0.6485 0.0
H2370 H 0.61157 0.3887 0.66379 0.0
H2371 H 0.63769 0.35917 0.65999 0.0
H2372 H 0.64733 0.33018 0.59764 0.0
H2373 H 0.62107 0.35499 0.58173 0.0
C2374 C 0.59787 0.38528 0.60269 0.0
C2375 C 0.58667 0.40008 0.61585 0.0
C2376 C 0.61377 0.37138 0.6116 0.0
C2377 C 0.59218 0.4011 0.63787 0.0
C2378 C 0.60799 0.38755 0.64672 0.0
C2379 C 0.63403 0.35812 0.64294 0.0
C2380 C 0.64461 0.34255 0.63019 0.0
C2381 C 0.61871 0.37241 0.63384 0.0
C2382 C 0.63975 0.34196 0.60797 0.0
C2383 C 0.62456 0.35615 0.59881 0.0
H2384 H 0.95238 0.60265 0.88662 0.0
H2385 H 0.89144 0.58857 0.91717 0.0
H2386 H 0.87318 0.61296 0.89207 0.0
H2387 H 0.874 0.63655 0.85975 0.0
H2388 H 0.93481 0.64904 0.82832 0.0
H2389 H 0.95344 0.62705 0.85531 0.0
C2390 C 0.93509 0.60474 0.88781 0.0
C2391 C 0.92342 0.59345 0.90384 0.0
C2392 C 0.92456 0.6186 0.87304 0.0
C2393 C 0.90102 0.59699 0.90522 0.0
C2394 C 0.89048 0.61091 0.89073 0.0
C2395 C 0.89138 0.63475 0.85899 0.0
C2396 C 0.90295 0.64454 0.84195 0.0
C2397 C 0.90202 0.62162 0.87439 0.0
C2398 C 0.92544 0.64175 0.84117 0.0
C2399 C 0.93614 0.62908 0.8566 0.0
H2400 H 0.88726 0.91941 0.43697 0.0
H2401 H 0.84276 0.93972 0.48624 0.0
H2402 H 0.81234 0.93142 0.4621 0.0
H2403 H 0.79854 0.915 0.42788 0.0
H2404 H 0.84419 0.89318 0.38035 0.0
H2405 H 0.87403 0.9053 0.40298 0.0
C2406 C 0.87093 0.92226 0.4425 0.0
C2407 C 0.86739 0.93008 0.46355 0.0
C2408 C 0.85369 0.91692 0.42882 0.0
C2409 C 0.84604 0.93382 0.47016 0.0
C2410 C 0.82864 0.92889 0.45638 0.0
C2411 C 0.81502 0.91327 0.42237 0.0
C2412 C 0.81916 0.90315 0.40237 0.0
C2413 C 0.83226 0.91995 0.4358 0.0
C2414 C 0.84061 0.90075 0.39565 0.0
C2415 C 0.85766 0.9077 0.40858 0.0
H2416 H 0.15943 0.9234 0.86209 0.0
H2417 H 0.19199 0.95727 0.81061 0.0
H2418 H 0.18425 0.99186 0.82825 0.0
H2419 H 0.16499 1.01253 0.85684 0.0
H2420 H 0.13135 0.97761 0.90685 0.0
H2421 H 0.14275 0.94335 0.89128 0.0
C2422 C 0.16505 0.9383 0.85472 0.0
C2423 C 0.17612 0.93771 0.83491 0.0
C2424 C 0.16018 0.95798 0.8647 0.0
C2425 C 0.18345 0.95722 0.82583 0.0
C2426 C 0.17891 0.97701 0.83588 0.0
C2427 C 0.16056 0.99739 0.86449 0.0
C2428 C 0.14726 0.99756 0.88296 0.0
C2429 C 0.16685 0.97762 0.85511 0.0
C2430 C 0.1414 0.97784 0.89257 0.0
C2431 C 0.14792 0.95828 0.88367 0.0
H2432 H 0.1971 0.63934 0.50009 0.0
H2433 H 0.13927 0.62332 0.46504 0.0
H2434 H 0.15521 0.63812 0.4318 0.0
H2435 H 0.1867 0.65405 0.4123 0.0
H2436 H 0.24351 0.6712 0.44846 0.0
H2437 H 0.22696 0.65754 0.48157 0.0
C2438 C 0.18785 0.63925 0.48523 0.0
C2439 C 0.16702 0.6301 0.48508 0.0
C2440 C 0.19708 0.64786 0.4663 0.0
C2441 C 0.15525 0.63035 0.46568 0.0
C2442 C 0.16446 0.63867 0.44663 0.0
C2443 C 0.19539 0.65478 0.42746 0.0
C2444 C 0.21644 0.66353 0.42786 0.0
C2445 C 0.18553 0.64717 0.44665 0.0
C2446 C 0.22734 0.66467 0.4477 0.0
C2447 C 0.21788 0.65679 0.46664 0.0
H2448 H 0.84393 0.42777 0.71436 0.0
H2449 H 0.86616 0.46703 0.76697 0.0
H2450 H 0.87945 0.49426 0.74121 0.0
H2451 H 0.88878 0.50449 0.70329 0.0
H2452 H 0.8655 0.46496 0.6512 0.0
H2453 H 0.84856 0.44038 0.677 0.0
C2454 C 0.85098 0.44269 0.72019 0.0
C2455 C 0.85378 0.44552 0.74255 0.0
C2456 C 0.85884 0.45801 0.70528 0.0
C2457 C 0.86331 0.4647 0.74989 0.0
C2458 C 0.87126 0.48009 0.73511 0.0
C2459 C 0.8798 0.4906 0.69765 0.0
C2460 C 0.8786 0.48648 0.67527 0.0
C2461 C 0.86979 0.47655 0.71272 0.0
C2462 C 0.86663 0.46858 0.66822 0.0
C2463 C 0.85699 0.45445 0.68301 0.0
H2464 H 0.67414 0.89307 0.55062 0.0
H2465 H 0.66506 0.95451 0.58176 0.0
H2466 H 0.68842 0.94279 0.61157 0.0
H2467 H 0.71256 0.91518 0.62831 0.0
H2468 H 0.72202 0.85464 0.59534 0.0
H2469 H 0.69745 0.86592 0.5671 0.0
C2470 C 0.67704 0.90392 0.56398 0.0
C2471 C 0.66769 0.92468 0.56383 0.0
C2472 C 0.69074 0.89722 0.58088 0.0
C2473 C 0.67189 0.93842 0.58137 0.0
C2474 C 0.68537 0.93174 0.59842 0.0
C2475 C 0.70931 0.90447 0.61495 0.0
C2476 C 0.7192 0.88388 0.61438 0.0
C2477 C 0.69512 0.91121 0.59826 0.0
C2478 C 0.71452 0.87031 0.59679 0.0
C2479 C 0.70048 0.87683 0.58038 0.0
H2480 H 0.16126 0.03701 0.70057 0.0
H2481 H 0.14321 0.0726 0.64339 0.0
H2482 H 0.16444 0.10352 0.65543 0.0
H2483 H 0.18598 0.12119 0.68289 0.0
H2484 H 0.20219 0.08763 0.74191 0.0
H2485 H 0.18427 0.05499 0.72834 0.0
C2486 C 0.16227 0.05146 0.69068 0.0
C2487 C 0.15068 0.05254 0.67104 0.0
C2488 C 0.17415 0.06949 0.69805 0.0
C2489 C 0.15186 0.07147 0.65854 0.0
C2490 C 0.16403 0.0891 0.66543 0.0
C2491 C 0.18588 0.10673 0.69284 0.0
C2492 C 0.1955 0.107 0.71349 0.0
C2493 C 0.17494 0.08842 0.68527 0.0
C2494 C 0.19506 0.08795 0.72596 0.0
C2495 C 0.18466 0.06932 0.71822 0.0
H2496 H 0.39495 0.63492 0.59247 0.0
H2497 H 0.35818 0.63161 0.5335 0.0
H2498 H 0.32994 0.65402 0.54954 0.0
H2499 H 0.31764 0.67778 0.57916 0.0
H2500 H 0.35448 0.68054 0.63807 0.0
H2501 H 0.38075 0.65517 0.6233 0.0
C2502 C 0.38052 0.6387 0.58328 0.0
C2503 C 0.37872 0.63164 0.5618 0.0
C2504 C 0.36454 0.65183 0.59251 0.0
C2505 C 0.3599 0.63663 0.55012 0.0
C2506 C 0.34387 0.64969 0.55922 0.0
C2507 C 0.3314 0.67273 0.58873 0.0
C2508 C 0.3343 0.68126 0.60959 0.0
C2509 C 0.34635 0.65795 0.58016 0.0
C2510 C 0.35192 0.67423 0.62202 0.0
C2511 C 0.36696 0.65976 0.61354 0.0
H2512 H 0.85565 0.85235 0.54204 0.0
H2513 H 0.89426 0.89014 0.58575 0.0
H2514 H 0.87197 0.87847 0.61595 0.0
H2515 H 0.84067 0.85949 0.62986 0.0
H2516 H 0.80046 0.82209 0.58731 0.0
H2517 H 0.82435 0.83127 0.5569 0.0
C2518 C 0.85931 0.85777 0.55823 0.0
C2519 C 0.87661 0.87232 0.56154 0.0
C2520 C 0.8461 0.8511 0.57573 0.0
C2521 C 0.88096 0.87927 0.58264 0.0
C2522 C 0.86823 0.87253 0.59997 0.0
C2523 C 0.83706 0.85315 0.61398 0.0
C2524 C 0.8186 0.84017 0.61097 0.0
C2525 C 0.85059 0.85877 0.59667 0.0
C2526 C 0.81451 0.83204 0.59021 0.0
C2527 C 0.82815 0.83742 0.57278 0.0
H2528 H 0.80238 0.13984 0.96961 0.0
H2529 H 0.86039 0.16546 0.94105 0.0
H2530 H 0.83934 0.1942 0.92352 0.0
H2531 H 0.80396 0.21213 0.91624 0.0
H2532 H 0.74652 0.18568 0.94507 0.0
H2533 H 0.76779 0.15762 0.9629 0.0
C2534 C 0.8105 0.15155 0.95943 0.0
C2535 C 0.83304 0.15025 0.95659 0.0
C2536 C 0.79831 0.16803 0.94948 0.0
C2537 C 0.84315 0.16604 0.94367 0.0
C2538 C 0.83107 0.18247 0.93357 0.0
C2539 C 0.79614 0.19991 0.92603 0.0
C2540 C 0.77356 0.20057 0.92875 0.0
C2541 C 0.80859 0.1836 0.93627 0.0
C2542 C 0.76377 0.18527 0.94238 0.0
C2543 C 0.77594 0.1692 0.95258 0.0
H2544 H 0.36983 0.96888 0.32212 0.0
H2545 H 0.39214 0.90314 0.3279 0.0
H2546 H 0.42196 0.91496 0.35077 0.0
H2547 H 0.4399 0.94344 0.37171 0.0
H2548 H 0.41775 1.00928 0.36624 0.0
H2549 H 0.38998 0.99806 0.34056 0.0
C2550 C 0.38124 0.95714 0.32834 0.0
C2551 C 0.37852 0.93504 0.3234 0.0
C2552 C 0.39848 0.96411 0.34153 0.0
C2553 C 0.3938 0.92018 0.3313 0.0
C2554 C 0.41084 0.92695 0.34449 0.0
C2555 C 0.42931 0.95544 0.36455 0.0
C2556 C 0.43105 0.97722 0.37097 0.0
C2557 C 0.41314 0.94881 0.35001 0.0
C2558 C 0.41708 0.99249 0.36149 0.0
C2559 C 0.40098 0.98601 0.34695 0.0
H2560 H 0.24799 0.36319 0.94925 0.0
H2561 H 0.22467 0.37924 0.88557 0.0
H2562 H 0.19392 0.39831 0.90141 0.0
H2563 H 0.17354 0.41063 0.93373 0.0
H2564 H 0.19822 0.39532 0.99703 0.0
H2565 H 0.22836 0.37579 0.98104 0.0
C2566 C 0.23621 0.37083 0.93876 0.0
C2567 C 0.23872 0.36966 0.91618 0.0
C2568 C 0.21869 0.38193 0.94799 0.0
C2569 C 0.22327 0.37987 0.90297 0.0
C2570 C 0.2056 0.39074 0.91205 0.0
C2571 C 0.18545 0.40287 0.94396 0.0
C2572 C 0.18357 0.40446 0.9666 0.0
C2573 C 0.20309 0.39187 0.93457 0.0
C2574 C 0.19934 0.39454 0.97962 0.0
C2575 C 0.21658 0.3833 0.97047 0.0
H2576 H 0.10986 0.12369 0.8686 0.0
H2577 H 0.08408 0.07134 0.83086 0.0
H2578 H 0.09852 0.08817 0.79792 0.0
H2579 H 0.12131 0.11647 0.78035 0.0
H2580 H 0.14867 0.16688 0.81945 0.0
H2581 H 0.13085 0.15206 0.85139 0.0
C2582 C 0.10713 0.11594 0.85319 0.0
C2583 C 0.0959 0.09615 0.85233 0.0
C2584 C 0.116 0.12534 0.83455 0.0
C2585 C 0.09258 0.08655 0.83208 0.0
C2586 C 0.10097 0.09614 0.81324 0.0
C2587 C 0.12304 0.12434 0.79583 0.0
C2588 C 0.1363 0.1428 0.79758 0.0
C2589 C 0.1131 0.11534 0.81433 0.0
C2590 C 0.13867 0.15265 0.81777 0.0
C2591 C 0.12847 0.14418 0.836 0.0
H2592 H 0.6965 0.17605 0.0378 0.0
H2593 H 0.66206 0.13615 0.0834 0.0
H2594 H 0.6817 0.15254 0.11316 0.0
H2595 H 0.70988 0.17614 0.12618 0.0
H2596 H 0.74647 0.21552 0.08184 0.0
H2597 H 0.72458 0.20178 0.05167 0.0
C2598 C 0.69317 0.17123 0.05429 0.0
C2599 C 0.67788 0.15476 0.05839 0.0
C2600 C 0.70495 0.18057 0.0715 0.0
C2601 C 0.67386 0.14855 0.07982 0.0
C2602 C 0.68507 0.15796 0.09685 0.0
C2603 C 0.71313 0.18191 0.10996 0.0
C2604 C 0.72999 0.19676 0.10634 0.0
C2605 C 0.70088 0.17365 0.09286 0.0
C2606 C 0.73362 0.20414 0.08516 0.0
C2607 C 0.72115 0.19616 0.06789 0.0
H2608 H 0.41908 0.05946 0.1524 0.0
H2609 H 0.47391 0.04346 0.19228 0.0
H2610 H 0.45917 0.06562 0.22147 0.0
H2611 H 0.42983 0.08879 0.23609 0.0
H2612 H 0.37504 0.10358 0.19569 0.0
H2613 H 0.39059 0.08261 0.16643 0.0
C2614 C 0.42797 0.06084 0.1674 0.0
C2615 C 0.44768 0.04975 0.17001 0.0
C2616 C 0.41928 0.07336 0.18416 0.0
C2617 C 0.45876 0.05179 0.18972 0.0
C2618 C 0.4503 0.06446 0.20645 0.0
C2619 C 0.42141 0.08757 0.22082 0.0
C2620 C 0.40114 0.09772 0.21822 0.0
C2621 C 0.43046 0.07524 0.20393 0.0
C2622 C 0.39042 0.09573 0.19833 0.0
C2623 C 0.39937 0.08381 0.18151 0.0
H2624 H 0.60608 0.43439 0.2654 0.0
H2625 H 0.63176 0.38903 0.21955 0.0
H2626 H 0.61501 0.40908 0.19001 0.0
H2627 H 0.59539 0.44066 0.17684 0.0
H2628 H 0.56991 0.48695 0.22183 0.0
H2629 H 0.58378 0.46517 0.25204 0.0
C2630 C 0.60769 0.42869 0.249 0.0
C2631 C 0.6204 0.41023 0.24475 0.0
C2632 C 0.59807 0.44051 0.2319 0.0
C2633 C 0.62241 0.40328 0.22329 0.0
C2634 C 0.61276 0.41473 0.20637 0.0
C2635 C 0.59261 0.44596 0.19325 0.0
C2636 C 0.58167 0.46555 0.19698 0.0
C2637 C 0.60093 0.43357 0.21043 0.0
C2638 C 0.57817 0.47195 0.21842 0.0
C2639 C 0.58625 0.45954 0.23571 0.0
loop_
_geom_bond_atom_site_label_1
_geom_bond_atom_site_label_2
_geom_bond_distance
_geom_bond_site_symmetry_2
_ccdc_geom_bond_type
Cu0 N1 1.999 . S
Cu0 O6 1.974 . S
Cu0 N11 1.985 . S
Cu0 O20 1.959 . S
N1 Cu0 1.999 . S
N1 C3 1.263 . S
N1 C5 1.389 . S
N2 C3 1.358 . S
N2 C4 1.400 . S
C3 N1 1.263 . S
C3 N2 1.358 . S
C3 H9 0.930 . S
C4 N2 1.400 . S
C4 C5 1.351 . S
C4 H21 0.930 . S
C5 N1 1.389 . S
C5 C4 1.351 . S
C5 H10 0.930 . S
O6 Cu0 1.974 . S
O6 C16 1.282 . S
C7 O8 1.261 . S
C7 O20 1.251 . S
O8 C7 1.261 . S
H9 C3 0.930 . S
H10 C5 0.930 . S
N11 Cu0 1.985 . S
N11 C13 1.335 . S
N11 C14 1.390 . S
N12 C13 1.345 . S
N12 C15 1.336 . S
C13 N11 1.335 . S
C13 N12 1.345 . S
C13 H18 0.930 . S
C14 N11 1.390 . S
C14 C15 1.346 . S
C14 H19 0.930 . S
C15 N12 1.336 . S
C15 C14 1.346 . S
C15 H22 0.929 . S
C16 O6 1.282 . S
C16 O17 1.216 . S
O17 C16 1.216 . S
H18 C13 0.930 . S
H19 C14 0.930 . S
O20 Cu0 1.959 . S
O20 C7 1.251 . S
H21 C4 0.930 . S
H22 C15 0.929 . S
Cu23 N24 1.999 . S
Cu23 O29 1.974 . S
Cu23 N34 1.985 . S
Cu23 O43 1.959 . S
N24 Cu23 1.999 . S
N24 C26 1.263 . S
N24 C28 1.389 . S
N25 C26 1.358 . S
N25 C27 1.400 . S
C26 N24 1.263 . S
C26 N25 1.358 . S
C26 H32 0.930 . S
C27 N25 1.400 . S
C27 C28 1.351 . S
C27 H44 0.930 . S
C28 N24 1.389 . S
C28 C27 1.351 . S
C28 H33 0.930 . S
O29 Cu23 1.974 . S
O29 C39 1.282 . S
C30 O31 1.261 . S
C30 O43 1.251 . S
O31 C30 1.261 . S
H32 C26 0.930 . S
H33 C28 0.930 . S
N34 Cu23 1.985 . S
N34 C36 1.335 . S
N34 C37 1.390 . S
N35 C36 1.345 . S
N35 C38 1.336 . S
C36 N34 1.335 . S
C36 N35 1.345 . S
C36 H41 0.930 . S
C37 N34 1.390 . S
C37 C38 1.346 . S
C37 H42 0.930 . S
C38 N35 1.336 . S
C38 C37 1.346 . S
C38 H45 0.929 . S
C39 O29 1.282 . S
C39 O40 1.216 . S
O40 C39 1.216 . S
H41 C36 0.930 . S
H42 C37 0.930 . S
O43 Cu23 1.959 . S
O43 C30 1.251 . S
H44 C27 0.930 . S
H45 C38 0.929 . S
Cu46 N47 1.999 . S
Cu46 O52 1.974 . S
Cu46 N57 1.985 . S
Cu46 O66 1.959 . S
N47 Cu46 1.999 . S
N47 C49 1.263 . S
N47 C51 1.389 . S
N48 C49 1.358 . S
N48 C50 1.400 . S
C49 N47 1.263 . S
C49 N48 1.358 . S
C49 H55 0.930 . S
C50 N48 1.400 . S
C50 C51 1.351 . S
C50 H67 0.930 . S
C51 N47 1.389 . S
C51 C50 1.351 . S
C51 H56 0.930 . S
O52 Cu46 1.974 . S
O52 C62 1.282 . S
C53 O54 1.261 . S
C53 O66 1.251 . S
O54 C53 1.261 . S
H55 C49 0.930 . S
H56 C51 0.930 . S
N57 Cu46 1.985 . S
N57 C59 1.335 . S
N57 C60 1.390 . S
N58 C59 1.345 . S
N58 C61 1.336 . S
C59 N57 1.335 . S
C59 N58 1.345 . S
C59 H64 0.930 . S
C60 N57 1.390 . S
C60 C61 1.346 . S
C60 H65 0.930 . S
C61 N58 1.336 . S
C61 C60 1.346 . S
C61 H68 0.929 . S
C62 O52 1.282 . S
C62 O63 1.216 . S
O63 C62 1.216 . S
H64 C59 0.930 . S
H65 C60 0.930 . S
O66 Cu46 1.959 . S
O66 C53 1.251 . S
H67 C50 0.930 . S
H68 C61 0.929 . S
Cu69 N70 1.999 . S
Cu69 O75 1.974 . S
Cu69 N80 1.985 . S
Cu69 O89 1.959 . S
N70 Cu69 1.999 . S
N70 C72 1.263 . S
N70 C74 1.389 . S
N71 C72 1.358 . S
N71 C73 1.400 . S
C72 N70 1.263 . S
C72 N71 1.358 . S
C72 H78 0.930 . S
C73 N71 1.400 . S
C73 C74 1.351 . S
C73 H90 0.930 . S
C74 N70 1.389 . S
C74 C73 1.351 . S
C74 H79 0.930 . S
O75 Cu69 1.974 . S
O75 C85 1.282 . S
C76 O77 1.261 . S
C76 O89 1.251 . S
O77 C76 1.261 . S
H78 C72 0.930 . S
H79 C74 0.930 . S
N80 Cu69 1.985 . S
N80 C82 1.335 . S
N80 C83 1.390 . S
N81 C82 1.345 . S
N81 C84 1.336 . S
C82 N80 1.335 . S
C82 N81 1.345 . S
C82 H87 0.930 . S
C83 N80 1.390 . S
C83 C84 1.346 . S
C83 H88 0.930 . S
C84 N81 1.336 . S
C84 C83 1.346 . S
C84 H91 0.929 . S
C85 O75 1.282 . S
C85 O86 1.216 . S
O86 C85 1.216 . S
H87 C82 0.930 . S
H88 C83 0.930 . S
O89 Cu69 1.959 . S
O89 C76 1.251 . S
H90 C73 0.930 . S
H91 C84 0.929 . S
Cu92 N93 1.999 . S
Cu92 O98 1.974 . S
Cu92 N103 1.985 . S
Cu92 O112 1.959 . S
N93 Cu92 1.999 . S
N93 C95 1.263 . S
N93 C97 1.389 . S
N94 C95 1.358 . S
N94 C96 1.400 . S
C95 N93 1.263 . S
C95 N94 1.358 . S
C95 H101 0.930 . S
C96 N94 1.400 . S
C96 C97 1.351 . S
C96 H113 0.930 . S
C97 N93 1.389 . S
C97 C96 1.351 . S
C97 H102 0.930 . S
O98 Cu92 1.974 . S
O98 C108 1.282 . S
C99 O100 1.261 . S
C99 O112 1.251 . S
O100 C99 1.261 . S
H101 C95 0.930 . S
H102 C97 0.930 . S
N103 Cu92 1.985 . S
N103 C105 1.335 . S
N103 C106 1.390 . S
N104 C105 1.345 . S
N104 C107 1.336 . S
C105 N103 1.335 . S
C105 N104 1.345 . S
C105 H110 0.930 . S
C106 N103 1.390 . S
C106 C107 1.346 . S
C106 H111 0.930 . S
C107 N104 1.336 . S
C107 C106 1.346 . S
C107 H114 0.929 . S
C108 O98 1.282 . S
C108 O109 1.216 . S
O109 C108 1.216 . S
H110 C105 0.930 . S
H111 C106 0.930 . S
O112 Cu92 1.959 . S
O112 C99 1.251 . S
H113 C96 0.930 . S
H114 C107 0.929 . S
Cu115 N116 1.999 . S
Cu115 O121 1.974 1_455 S
Cu115 N126 1.985 1_455 S
Cu115 O135 1.959 . S
N116 Cu115 1.999 . S
N116 C118 1.263 . S
N116 C120 1.389 . S
N117 C118 1.358 . S
N117 C119 1.400 . S
C118 N116 1.263 . S
C118 N117 1.358 . S
C118 H124 0.930 . S
C119 N117 1.400 . S
C119 C120 1.351 . S
C119 H136 0.930 . S
C120 N116 1.389 . S
C120 C119 1.351 . S
C120 H125 0.930 . S
O121 Cu115 1.974 1_655 S
O121 C131 1.282 . S
C122 O123 1.261 . S
C122 O135 1.251 . S
O123 C122 1.261 . S
H124 C118 0.930 . S
H125 C120 0.930 . S
N126 Cu115 1.985 1_655 S
N126 C128 1.335 . S
N126 C129 1.390 . S
N127 C128 1.345 . S
N127 C130 1.336 . S
C128 N126 1.335 . S
C128 N127 1.345 . S
C128 H133 0.930 . S
C129 N126 1.390 . S
C129 C130 1.346 . S
C129 H134 0.930 . S
C130 N127 1.336 . S
C130 C129 1.346 . S
C130 H137 0.929 . S
C131 O121 1.282 . S
C131 O132 1.216 . S
O132 C131 1.216 . S
H133 C128 0.930 . S
H134 C129 0.930 . S
O135 Cu115 1.959 . S
O135 C122 1.251 . S
H136 C119 0.930 . S
H137 C130 0.929 . S
Cu138 N139 1.999 . S
Cu138 O144 1.974 . S
Cu138 N149 1.985 . S
Cu138 O158 1.959 . S
N139 Cu138 1.999 . S
N139 C141 1.263 . S
N139 C143 1.389 . S
N140 C141 1.358 . S
N140 C142 1.400 . S
C141 N139 1.263 . S
C141 N140 1.358 . S
C141 H147 0.930 . S
C142 N140 1.400 . S
C142 C143 1.351 . S
C142 H159 0.930 . S
C143 N139 1.389 . S
C143 C142 1.351 . S
C143 H148 0.930 . S
O144 Cu138 1.974 . S
O144 C154 1.282 . S
C145 O146 1.261 . S
C145 O158 1.251 . S
O146 C145 1.261 . S
H147 C141 0.930 . S
H148 C143 0.930 . S
N149 Cu138 1.985 . S
N149 C151 1.335 . S
N149 C152 1.390 . S
N150 C151 1.345 . S
N150 C153 1.336 . S
C151 N149 1.335 . S
C151 N150 1.345 . S
C151 H156 0.930 . S
C152 N149 1.390 . S
C152 C153 1.346 . S
C152 H157 0.930 . S
C153 N150 1.336 . S
C153 C152 1.346 . S
C153 H160 0.929 . S
C154 O144 1.282 . S
C154 O155 1.216 . S
O155 C154 1.216 . S
H156 C151 0.930 . S
H157 C152 0.930 . S
O158 Cu138 1.959 . S
O158 C145 1.251 . S
H159 C142 0.930 . S
H160 C153 0.929 . S
Cu161 N162 1.999 . S
Cu161 O167 1.974 1_655 S
Cu161 N172 1.985 1_655 S
Cu161 O181 1.959 . S
N162 Cu161 1.999 . S
N162 C164 1.263 . S
N162 C166 1.389 . S
N163 C164 1.358 . S
N163 C165 1.400 . S
C164 N162 1.263 . S
C164 N163 1.358 . S
C164 H170 0.930 . S
C165 N163 1.400 . S
C165 C166 1.351 . S
C165 H182 0.930 . S
C166 N162 1.389 . S
C166 C165 1.351 . S
C166 H171 0.930 . S
O167 Cu161 1.974 1_455 S
O167 C177 1.282 . S
C168 O169 1.261 . S
C168 O181 1.251 . S
O169 C168 1.261 . S
H170 C164 0.930 . S
H171 C166 0.930 . S
N172 Cu161 1.985 1_455 S
N172 C174 1.335 . S
N172 C175 1.390 . S
N173 C174 1.345 . S
N173 C176 1.336 . S
C174 N172 1.335 . S
C174 N173 1.345 . S
C174 H179 0.930 . S
C175 N172 1.390 . S
C175 C176 1.346 . S
C175 H180 0.930 . S
C176 N173 1.336 . S
C176 C175 1.346 . S
C176 H183 0.929 . S
C177 O167 1.282 . S
C177 O178 1.216 . S
O178 C177 1.216 . S
H179 C174 0.930 . S
H180 C175 0.930 . S
O181 Cu161 1.959 . S
O181 C168 1.251 . S
H182 C165 0.930 . S
H183 C176 0.929 . S
Cu184 N185 1.999 . S
Cu184 O190 1.974 . S
Cu184 N195 1.985 . S
Cu184 O204 1.959 . S
N185 Cu184 1.999 . S
N185 C187 1.263 . S
N185 C189 1.389 . S
N186 C187 1.358 . S
N186 C188 1.400 . S
C187 N185 1.263 . S
C187 N186 1.358 . S
C187 H193 0.930 . S
C188 N186 1.400 . S
C188 C189 1.351 . S
C188 H205 0.930 . S
C189 N185 1.389 . S
C189 C188 1.351 . S
C189 H194 0.930 . S
O190 Cu184 1.974 . S
O190 C200 1.282 . S
C191 O192 1.261 . S
C191 O204 1.251 . S
O192 C191 1.261 . S
H193 C187 0.930 . S
H194 C189 0.930 . S
N195 Cu184 1.985 . S
N195 C197 1.335 . S
N195 C198 1.390 . S
N196 C197 1.345 . S
N196 C199 1.336 . S
C197 N195 1.335 . S
C197 N196 1.345 . S
C197 H202 0.930 . S
C198 N195 1.390 . S
C198 C199 1.346 . S
C198 H203 0.930 . S
C199 N196 1.336 . S
C199 C198 1.346 . S
C199 H206 0.929 . S
C200 O190 1.282 . S
C200 O201 1.216 . S
O201 C200 1.216 . S
H202 C197 0.930 . S
H203 C198 0.930 . S
O204 Cu184 1.959 . S
O204 C191 1.251 . S
H205 C188 0.930 . S
H206 C199 0.929 . S
Cu207 N208 1.999 . S
Cu207 O213 1.974 1_554 S
Cu207 N218 1.985 1_554 S
Cu207 O227 1.959 . S
N208 Cu207 1.999 . S
N208 C210 1.263 . S
N208 C212 1.389 . S
N209 C210 1.358 . S
N209 C211 1.400 . S
C210 N208 1.263 . S
C210 N209 1.358 . S
C210 H216 0.930 . S
C211 N209 1.400 . S
C211 C212 1.351 . S
C211 H228 0.930 . S
C212 N208 1.389 . S
C212 C211 1.351 . S
C212 H217 0.930 . S
O213 Cu207 1.974 1_556 S
O213 C223 1.282 . S
C214 O215 1.261 . S
C214 O227 1.251 . S
O215 C214 1.261 . S
H216 C210 0.930 . S
H217 C212 0.930 . S
N218 Cu207 1.985 1_556 S
N218 C220 1.335 . S
N218 C221 1.390 . S
N219 C220 1.345 . S
N219 C222 1.336 . S
C220 N218 1.335 . S
C220 N219 1.345 . S
C220 H225 0.930 . S
C221 N218 1.390 . S
C221 C222 1.346 . S
C221 H226 0.930 . S
C222 N219 1.336 . S
C222 C221 1.346 . S
C222 H229 0.929 . S
C223 O213 1.282 . S
C223 O224 1.216 . S
O224 C223 1.216 . S
H225 C220 0.930 . S
H226 C221 0.930 . S
O227 Cu207 1.959 . S
O227 C214 1.251 . S
H228 C211 0.930 . S
H229 C222 0.929 . S
Cu230 N231 1.999 . S
Cu230 O236 1.974 . S
Cu230 N241 1.985 . S
Cu230 O250 1.959 . S
N231 Cu230 1.999 . S
N231 C233 1.263 . S
N231 C235 1.389 . S
N232 C233 1.358 . S
N232 C234 1.400 . S
C233 N231 1.263 . S
C233 N232 1.358 . S
C233 H239 0.930 . S
C234 N232 1.400 . S
C234 C235 1.351 . S
C234 H251 0.930 . S
C235 N231 1.389 . S
C235 C234 1.351 . S
C235 H240 0.930 . S
O236 Cu230 1.974 . S
O236 C246 1.282 . S
C237 O238 1.261 . S
C237 O250 1.251 . S
O238 C237 1.261 . S
H239 C233 0.930 . S
H240 C235 0.930 . S
N241 Cu230 1.985 . S
N241 C243 1.335 . S
N241 C244 1.390 . S
N242 C243 1.345 . S
N242 C245 1.336 . S
C243 N241 1.335 . S
C243 N242 1.345 . S
C243 H248 0.930 . S
C244 N241 1.390 . S
C244 C245 1.346 . S
C244 H249 0.930 . S
C245 N242 1.336 . S
C245 C244 1.346 . S
C245 H252 0.929 . S
C246 O236 1.282 . S
C246 O247 1.216 . S
O247 C246 1.216 . S
H248 C243 0.930 . S
H249 C244 0.930 . S
O250 Cu230 1.959 . S
O250 C237 1.251 . S
H251 C234 0.930 . S
H252 C245 0.929 . S
Cu253 N254 1.999 . S
Cu253 O259 1.974 1_554 S
Cu253 N264 1.985 1_554 S
Cu253 O273 1.959 . S
N254 Cu253 1.999 . S
N254 C256 1.263 . S
N254 C258 1.389 . S
N255 C256 1.358 . S
N255 C257 1.400 . S
C256 N254 1.263 . S
C256 N255 1.358 . S
C256 H262 0.930 . S
C257 N255 1.400 . S
C257 C258 1.351 . S
C257 H274 0.930 . S
C258 N254 1.389 . S
C258 C257 1.351 . S
C258 H263 0.930 . S
O259 Cu253 1.974 1_556 S
O259 C269 1.282 . S
C260 O261 1.261 . S
C260 O273 1.251 . S
O261 C260 1.261 . S
H262 C256 0.930 . S
H263 C258 0.930 . S
N264 Cu253 1.985 1_556 S
N264 C266 1.335 . S
N264 C267 1.390 . S
N265 C266 1.345 . S
N265 C268 1.336 . S
C266 N264 1.335 . S
C266 N265 1.345 . S
C266 H271 0.930 . S
C267 N264 1.390 . S
C267 C268 1.346 . S
C267 H272 0.930 . S
C268 N265 1.336 . S
C268 C267 1.346 . S
C268 H275 0.929 . S
C269 O259 1.282 . S
C269 O270 1.216 . S
O270 C269 1.216 . S
H271 C266 0.930 . S
H272 C267 0.930 . S
O273 Cu253 1.959 . S
O273 C260 1.251 . S
H274 C257 0.930 . S
H275 C268 0.929 . S
Cu276 N277 1.999 . S
Cu276 O282 1.974 . S
Cu276 N287 1.985 . S
Cu276 O296 1.959 . S
N277 Cu276 1.999 . S
N277 C279 1.263 . S
N277 C281 1.389 . S
N278 C279 1.358 . S
N278 C280 1.400 . S
C279 N277 1.263 . S
C279 N278 1.358 . S
C279 H285 0.930 . S
C280 N278 1.400 . S
C280 C281 1.351 . S
C280 H297 0.930 . S
C281 N277 1.389 . S
C281 C280 1.351 . S
C281 H286 0.930 . S
O282 Cu276 1.974 . S
O282 C292 1.282 . S
C283 O284 1.261 . S
C283 O296 1.251 . S
O284 C283 1.261 . S
H285 C279 0.930 . S
H286 C281 0.930 . S
N287 Cu276 1.985 . S
N287 C289 1.335 . S
N287 C290 1.390 . S
N288 C289 1.345 . S
N288 C291 1.336 . S
C289 N287 1.335 . S
C289 N288 1.345 . S
C289 H294 0.930 . S
C290 N287 1.390 . S
C290 C291 1.346 . S
C290 H295 0.930 . S
C291 N288 1.336 . S
C291 C290 1.346 . S
C291 H298 0.929 . S
C292 O282 1.282 . S
C292 O293 1.216 . S
O293 C292 1.216 . S
H294 C289 0.930 . S
H295 C290 0.930 . S
O296 Cu276 1.959 . S
O296 C283 1.251 . S
H297 C280 0.930 . S
H298 C291 0.929 . S
Cu299 N300 1.999 . S
Cu299 O305 1.974 1_556 S
Cu299 N310 1.985 1_556 S
Cu299 O319 1.959 . S
N300 Cu299 1.999 . S
N300 C302 1.263 . S
N300 C304 1.389 . S
N301 C302 1.358 . S
N301 C303 1.400 . S
C302 N300 1.263 . S
C302 N301 1.358 . S
C302 H308 0.930 . S
C303 N301 1.400 . S
C303 C304 1.351 . S
C303 H320 0.930 . S
C304 N300 1.389 . S
C304 C303 1.351 . S
C304 H309 0.930 . S
O305 Cu299 1.974 1_554 S
O305 C315 1.282 . S
C306 O307 1.261 . S
C306 O319 1.251 . S
O307 C306 1.261 . S
H308 C302 0.930 . S
H309 C304 0.930 . S
N310 Cu299 1.985 1_554 S
N310 C312 1.335 . S
N310 C313 1.390 . S
N311 C312 1.345 . S
N311 C314 1.336 . S
C312 N310 1.335 . S
C312 N311 1.345 . S
C312 H317 0.930 . S
C313 N310 1.390 . S
C313 C314 1.346 . S
C313 H318 0.930 . S
C314 N311 1.336 . S
C314 C313 1.346 . S
C314 H321 0.929 . S
C315 O305 1.282 . S
C315 O316 1.216 . S
O316 C315 1.216 . S
H317 C312 0.930 . S
H318 C313 0.930 . S
O319 Cu299 1.959 . S
O319 C306 1.251 . S
H320 C303 0.930 . S
H321 C314 0.929 . S
Cu322 N323 1.999 . S
Cu322 O328 1.974 . S
Cu322 N333 1.985 . S
Cu322 O342 1.959 . S
N323 Cu322 1.999 . S
N323 C325 1.263 . S
N323 C327 1.389 . S
N324 C325 1.358 . S
N324 C326 1.400 . S
C325 N323 1.263 . S
C325 N324 1.358 . S
C325 H331 0.930 . S
C326 N324 1.400 . S
C326 C327 1.351 . S
C326 H343 0.930 . S
C327 N323 1.389 . S
C327 C326 1.351 . S
C327 H332 0.930 . S
O328 Cu322 1.974 . S
O328 C338 1.282 . S
C329 O330 1.261 . S
C329 O342 1.251 . S
O330 C329 1.261 . S
H331 C325 0.930 . S
H332 C327 0.930 . S
N333 Cu322 1.985 . S
N333 C335 1.335 . S
N333 C336 1.390 . S
N334 C335 1.345 . S
N334 C337 1.336 . S
C335 N333 1.335 . S
C335 N334 1.345 . S
C335 H340 0.930 . S
C336 N333 1.390 . S
C336 C337 1.346 . S
C336 H341 0.930 . S
C337 N334 1.336 . S
C337 C336 1.346 . S
C337 H344 0.929 . S
C338 O328 1.282 . S
C338 O339 1.216 . S
O339 C338 1.216 . S
H340 C335 0.930 . S
H341 C336 0.930 . S
O342 Cu322 1.959 . S
O342 C329 1.251 . S
H343 C326 0.930 . S
H344 C337 0.929 . S
Cu345 N346 1.999 . S
Cu345 O351 1.974 1_556 S
Cu345 N356 1.985 1_556 S
Cu345 O365 1.959 . S
N346 Cu345 1.999 . S
N346 C348 1.263 . S
N346 C350 1.389 . S
N347 C348 1.358 . S
N347 C349 1.400 . S
C348 N346 1.263 . S
C348 N347 1.358 . S
C348 H354 0.930 . S
C349 N347 1.400 . S
C349 C350 1.351 . S
C349 H366 0.930 . S
C350 N346 1.389 . S
C350 C349 1.351 . S
C350 H355 0.930 . S
O351 Cu345 1.974 1_554 S
O351 C361 1.282 . S
C352 O353 1.261 . S
C352 O365 1.251 . S
O353 C352 1.261 . S
H354 C348 0.930 . S
H355 C350 0.930 . S
N356 Cu345 1.985 1_554 S
N356 C358 1.335 . S
N356 C359 1.390 . S
N357 C358 1.345 . S
N357 C360 1.336 . S
C358 N356 1.335 . S
C358 N357 1.345 . S
C358 H363 0.930 . S
C359 N356 1.390 . S
C359 C360 1.346 . S
C359 H364 0.930 . S
C360 N357 1.336 . S
C360 C359 1.346 . S
C360 H367 0.929 . S
C361 O351 1.282 . S
C361 O362 1.216 . S
O362 C361 1.216 . S
H363 C358 0.930 . S
H364 C359 0.930 . S
O365 Cu345 1.959 . S
O365 C352 1.251 . S
H366 C349 0.930 . S
H367 C360 0.929 . S
Cu368 N369 1.999 . S
Cu368 O374 1.974 . S
Cu368 N379 1.985 . S
Cu368 O388 1.959 . S
N369 Cu368 1.999 . S
N369 C371 1.263 . S
N369 C373 1.389 . S
N370 C371 1.358 . S
N370 C372 1.400 . S
C371 N369 1.263 . S
C371 N370 1.358 . S
C371 H377 0.930 . S
C372 N370 1.400 . S
C372 C373 1.351 . S
C372 H389 0.930 . S
C373 N369 1.389 . S
C373 C372 1.351 . S
C373 H378 0.930 . S
O374 Cu368 1.974 . S
O374 C384 1.282 . S
C375 O376 1.261 . S
C375 O388 1.251 . S
O376 C375 1.261 . S
H377 C371 0.930 . S
H378 C373 0.930 . S
N379 Cu368 1.985 . S
N379 C381 1.335 . S
N379 C382 1.390 . S
N380 C381 1.345 . S
N380 C383 1.336 . S
C381 N379 1.335 . S
C381 N380 1.345 . S
C381 H386 0.930 . S
C382 N379 1.390 . S
C382 C383 1.346 . S
C382 H387 0.930 . S
C383 N380 1.336 . S
C383 C382 1.346 . S
C383 H390 0.929 . S
C384 O374 1.282 . S
C384 O385 1.216 . S
O385 C384 1.216 . S
H386 C381 0.930 . S
H387 C382 0.930 . S
O388 Cu368 1.959 . S
O388 C375 1.251 . S
H389 C372 0.930 . S
H390 C383 0.929 . S
Cu391 N392 1.999 . S
Cu391 O397 1.974 . S
Cu391 N402 1.985 . S
Cu391 O411 1.959 . S
N392 Cu391 1.999 . S
N392 C394 1.263 . S
N392 C396 1.389 . S
N393 C394 1.358 . S
N393 C395 1.400 . S
C394 N392 1.263 . S
C394 N393 1.358 . S
C394 H400 0.930 . S
C395 N393 1.400 . S
C395 C396 1.351 . S
C395 H412 0.930 . S
C396 N392 1.389 . S
C396 C395 1.351 . S
C396 H401 0.930 . S
O397 Cu391 1.974 . S
O397 C407 1.282 . S
C398 O399 1.261 . S
C398 O411 1.251 . S
O399 C398 1.261 . S
H400 C394 0.930 . S
H401 C396 0.930 . S
N402 Cu391 1.985 . S
N402 C404 1.335 . S
N402 C405 1.390 . S
N403 C404 1.345 . S
N403 C406 1.336 . S
C404 N402 1.335 . S
C404 N403 1.345 . S
C404 H409 0.930 . S
C405 N402 1.390 . S
C405 C406 1.346 . S
C405 H410 0.930 . S
C406 N403 1.336 . S
C406 C405 1.346 . S
C406 H413 0.929 . S
C407 O397 1.282 . S
C407 O408 1.216 . S
O408 C407 1.216 . S
H409 C404 0.930 . S
H410 C405 0.930 . S
O411 Cu391 1.959 . S
O411 C398 1.251 . S
H412 C395 0.930 . S
H413 C406 0.929 . S
Cu414 N415 1.999 . S
Cu414 O420 1.974 . S
Cu414 N425 1.985 . S
Cu414 O434 1.959 . S
N415 Cu414 1.999 . S
N415 C417 1.263 . S
N415 C419 1.389 . S
N416 C417 1.358 . S
N416 C418 1.400 . S
C417 N415 1.263 . S
C417 N416 1.358 . S
C417 H423 0.930 . S
C418 N416 1.400 . S
C418 C419 1.351 . S
C418 H435 0.930 . S
C419 N415 1.389 . S
C419 C418 1.351 . S
C419 H424 0.930 . S
O420 Cu414 1.974 . S
O420 C430 1.282 . S
C421 O422 1.261 . S
C421 O434 1.251 . S
O422 C421 1.261 . S
H423 C417 0.930 . S
H424 C419 0.930 . S
N425 Cu414 1.985 . S
N425 C427 1.335 . S
N425 C428 1.390 . S
N426 C427 1.345 . S
N426 C429 1.336 . S
C427 N425 1.335 . S
C427 N426 1.345 . S
C427 H432 0.930 . S
C428 N425 1.390 . S
C428 C429 1.346 . S
C428 H433 0.930 . S
C429 N426 1.336 . S
C429 C428 1.346 . S
C429 H436 0.929 . S
C430 O420 1.282 . S
C430 O431 1.216 . S
O431 C430 1.216 . S
H432 C427 0.930 . S
H433 C428 0.930 . S
O434 Cu414 1.959 . S
O434 C421 1.251 . S
H435 C418 0.930 . S
H436 C429 0.929 . S
Cu437 N438 1.999 . S
Cu437 O443 1.974 . S
Cu437 N448 1.985 . S
Cu437 O457 1.959 . S
N438 Cu437 1.999 . S
N438 C440 1.263 . S
N438 C442 1.389 . S
N439 C440 1.358 . S
N439 C441 1.400 . S
C440 N438 1.263 . S
C440 N439 1.358 . S
C440 H446 0.930 . S
C441 N439 1.400 . S
C441 C442 1.351 . S
C441 H458 0.930 . S
C442 N438 1.389 . S
C442 C441 1.351 . S
C442 H447 0.930 . S
O443 Cu437 1.974 . S
O443 C453 1.282 . S
C444 O445 1.261 . S
C444 O457 1.251 . S
O445 C444 1.261 . S
H446 C440 0.930 . S
H447 C442 0.930 . S
N448 Cu437 1.985 . S
N448 C450 1.335 . S
N448 C451 1.390 . S
N449 C450 1.345 . S
N449 C452 1.336 . S
C450 N448 1.335 . S
C450 N449 1.345 . S
C450 H455 0.930 . S
C451 N448 1.390 . S
C451 C452 1.346 . S
C451 H456 0.930 . S
C452 N449 1.336 . S
C452 C451 1.346 . S
C452 H459 0.929 . S
C453 O443 1.282 . S
C453 O454 1.216 . S
O454 C453 1.216 . S
H455 C450 0.930 . S
H456 C451 0.930 . S
O457 Cu437 1.959 . S
O457 C444 1.251 . S
H458 C441 0.930 . S
H459 C452 0.929 . S
Cu460 N461 1.999 . S
Cu460 O466 1.974 . S
Cu460 N471 1.985 . S
Cu460 O480 1.959 . S
N461 Cu460 1.999 . S
N461 C463 1.263 . S
N461 C465 1.389 . S
N462 C463 1.358 . S
N462 C464 1.400 . S
C463 N461 1.263 . S
C463 N462 1.358 . S
C463 H469 0.930 . S
C464 N462 1.400 . S
C464 C465 1.351 . S
C464 H481 0.930 . S
C465 N461 1.389 . S
C465 C464 1.351 . S
C465 H470 0.930 . S
O466 Cu460 1.974 . S
O466 C476 1.282 . S
C467 O468 1.261 . S
C467 O480 1.251 . S
O468 C467 1.261 . S
H469 C463 0.930 . S
H470 C465 0.930 . S
N471 Cu460 1.985 . S
N471 C473 1.335 . S
N471 C474 1.390 . S
N472 C473 1.345 . S
N472 C475 1.336 . S
C473 N471 1.335 . S
C473 N472 1.345 . S
C473 H478 0.930 . S
C474 N471 1.390 . S
C474 C475 1.346 . S
C474 H479 0.930 . S
C475 N472 1.336 . S
C475 C474 1.346 . S
C475 H482 0.929 . S
C476 O466 1.282 . S
C476 O477 1.216 . S
O477 C476 1.216 . S
H478 C473 0.930 . S
H479 C474 0.930 . S
O480 Cu460 1.959 . S
O480 C467 1.251 . S
H481 C464 0.930 . S
H482 C475 0.929 . S
Cu483 N484 1.999 . S
Cu483 O489 1.974 . S
Cu483 N494 1.985 . S
Cu483 O503 1.959 . S
N484 Cu483 1.999 . S
N484 C486 1.263 . S
N484 C488 1.389 . S
N485 C486 1.358 . S
N485 C487 1.400 . S
C486 N484 1.263 . S
C486 N485 1.358 . S
C486 H492 0.930 . S
C487 N485 1.400 . S
C487 C488 1.351 . S
C487 H504 0.930 . S
C488 N484 1.389 . S
C488 C487 1.351 . S
C488 H493 0.930 . S
O489 Cu483 1.974 . S
O489 C499 1.282 . S
C490 O491 1.261 . S
C490 O503 1.251 . S
O491 C490 1.261 . S
H492 C486 0.930 . S
H493 C488 0.930 . S
N494 Cu483 1.985 . S
N494 C496 1.335 . S
N494 C497 1.390 . S
N495 C496 1.345 . S
N495 C498 1.336 . S
C496 N494 1.335 . S
C496 N495 1.345 . S
C496 H501 0.930 . S
C497 N494 1.390 . S
C497 C498 1.346 . S
C497 H502 0.930 . S
C498 N495 1.336 . S
C498 C497 1.346 . S
C498 H505 0.929 . S
C499 O489 1.282 . S
C499 O500 1.216 . S
O500 C499 1.216 . S
H501 C496 0.930 . S
H502 C497 0.930 . S
O503 Cu483 1.959 . S
O503 C490 1.251 . S
H504 C487 0.930 . S
H505 C498 0.929 . S
Cu506 N507 1.999 . S
Cu506 O512 1.974 . S
Cu506 N517 1.985 . S
Cu506 O526 1.959 . S
N507 Cu506 1.999 . S
N507 C509 1.263 . S
N507 C511 1.389 . S
N508 C509 1.358 . S
N508 C510 1.400 . S
C509 N507 1.263 . S
C509 N508 1.358 . S
C509 H515 0.930 . S
C510 N508 1.400 . S
C510 C511 1.351 . S
C510 H527 0.930 . S
C511 N507 1.389 . S
C511 C510 1.351 . S
C511 H516 0.930 . S
O512 Cu506 1.974 . S
O512 C522 1.282 . S
C513 O514 1.261 . S
C513 O526 1.251 . S
O514 C513 1.261 . S
H515 C509 0.930 . S
H516 C511 0.930 . S
N517 Cu506 1.985 . S
N517 C519 1.335 . S
N517 C520 1.390 . S
N518 C519 1.345 . S
N518 C521 1.336 . S
C519 N517 1.335 . S
C519 N518 1.345 . S
C519 H524 0.930 . S
C520 N517 1.390 . S
C520 C521 1.346 . S
C520 H525 0.930 . S
C521 N518 1.336 . S
C521 C520 1.346 . S
C521 H528 0.929 . S
C522 O512 1.282 . S
C522 O523 1.216 . S
O523 C522 1.216 . S
H524 C519 0.930 . S
H525 C520 0.930 . S
O526 Cu506 1.959 . S
O526 C513 1.251 . S
H527 C510 0.930 . S
H528 C521 0.929 . S
Cu529 N530 1.999 . S
Cu529 O535 1.974 1_545 S
Cu529 N540 1.985 1_545 S
Cu529 O549 1.959 . S
N530 Cu529 1.999 . S
N530 C532 1.263 . S
N530 C534 1.389 . S
N531 C532 1.358 . S
N531 C533 1.400 . S
C532 N530 1.263 . S
C532 N531 1.358 . S
C532 H538 0.930 . S
C533 N531 1.400 . S
C533 C534 1.351 . S
C533 H550 0.930 . S
C534 N530 1.389 . S
C534 C533 1.351 . S
C534 H539 0.930 . S
O535 Cu529 1.974 1_565 S
O535 C545 1.282 . S
C536 O537 1.261 . S
C536 O549 1.251 . S
O537 C536 1.261 . S
H538 C532 0.930 . S
H539 C534 0.930 . S
N540 Cu529 1.985 1_565 S
N540 C542 1.335 . S
N540 C543 1.390 . S
N541 C542 1.345 . S
N541 C544 1.336 . S
C542 N540 1.335 . S
C542 N541 1.345 . S
C542 H547 0.930 . S
C543 N540 1.390 . S
C543 C544 1.346 . S
C543 H548 0.930 . S
C544 N541 1.336 . S
C544 C543 1.346 . S
C544 H551 0.929 . S
C545 O535 1.282 . S
C545 O546 1.216 . S
O546 C545 1.216 . S
H547 C542 0.930 . S
H548 C543 0.930 . S
O549 Cu529 1.959 . S
O549 C536 1.251 . S
H550 C533 0.930 . S
H551 C544 0.929 . S
Cu552 N553 1.999 . S
Cu552 O558 1.974 . S
Cu552 N563 1.985 . S
Cu552 O572 1.959 . S
N553 Cu552 1.999 . S
N553 C555 1.263 . S
N553 C557 1.389 . S
N554 C555 1.358 . S
N554 C556 1.400 . S
C555 N553 1.263 . S
C555 N554 1.358 . S
C555 H561 0.930 . S
C556 N554 1.400 . S
C556 C557 1.351 . S
C556 H573 0.930 . S
C557 N553 1.389 . S
C557 C556 1.351 . S
C557 H562 0.930 . S
O558 Cu552 1.974 . S
O558 C568 1.282 . S
C559 O560 1.261 . S
C559 O572 1.251 . S
O560 C559 1.261 . S
H561 C555 0.930 . S
H562 C557 0.930 . S
N563 Cu552 1.985 . S
N563 C565 1.335 . S
N563 C566 1.390 . S
N564 C565 1.345 . S
N564 C567 1.336 . S
C565 N563 1.335 . S
C565 N564 1.345 . S
C565 H570 0.930 . S
C566 N563 1.390 . S
C566 C567 1.346 . S
C566 H571 0.930 . S
C567 N564 1.336 . S
C567 C566 1.346 . S
C567 H574 0.929 . S
C568 O558 1.282 . S
C568 O569 1.216 . S
O569 C568 1.216 . S
H570 C565 0.930 . S
H571 C566 0.930 . S
O572 Cu552 1.959 . S
O572 C559 1.251 . S
H573 C556 0.930 . S
H574 C567 0.929 . S
Cu575 N576 1.999 . S
Cu575 O581 1.974 1_655 S
Cu575 N586 1.985 1_655 S
Cu575 O595 1.959 . S
N576 Cu575 1.999 . S
N576 C578 1.263 . S
N576 C580 1.389 . S
N577 C578 1.358 . S
N577 C579 1.400 . S
C578 N576 1.263 . S
C578 N577 1.358 . S
C578 H584 0.930 . S
C579 N577 1.400 . S
C579 C580 1.351 . S
C579 H596 0.930 . S
C580 N576 1.389 . S
C580 C579 1.351 . S
C580 H585 0.930 . S
O581 Cu575 1.974 1_455 S
O581 C591 1.282 . S
C582 O583 1.261 . S
C582 O595 1.251 . S
O583 C582 1.261 . S
H584 C578 0.930 . S
H585 C580 0.930 . S
N586 Cu575 1.985 1_455 S
N586 C588 1.335 . S
N586 C589 1.390 . S
N587 C588 1.345 . S
N587 C590 1.336 . S
C588 N586 1.335 . S
C588 N587 1.345 . S
C588 H593 0.930 . S
C589 N586 1.390 . S
C589 C590 1.346 . S
C589 H594 0.930 . S
C590 N587 1.336 . S
C590 C589 1.346 . S
C590 H597 0.929 . S
C591 O581 1.282 . S
C591 O592 1.216 . S
O592 C591 1.216 . S
H593 C588 0.930 . S
H594 C589 0.930 . S
O595 Cu575 1.959 . S
O595 C582 1.251 . S
H596 C579 0.930 . S
H597 C590 0.929 . S
Cu598 N599 1.999 . S
Cu598 O604 1.974 . S
Cu598 N609 1.985 . S
Cu598 O618 1.959 . S
N599 Cu598 1.999 . S
N599 C601 1.263 . S
N599 C603 1.389 . S
N600 C601 1.358 . S
N600 C602 1.400 . S
C601 N599 1.263 . S
C601 N600 1.358 . S
C601 H607 0.930 . S
C602 N600 1.400 . S
C602 C603 1.351 . S
C602 H619 0.930 . S
C603 N599 1.389 . S
C603 C602 1.351 . S
C603 H608 0.930 . S
O604 Cu598 1.974 . S
O604 C614 1.282 . S
C605 O606 1.261 . S
C605 O618 1.251 . S
O606 C605 1.261 . S
H607 C601 0.930 . S
H608 C603 0.930 . S
N609 Cu598 1.985 . S
N609 C611 1.335 . S
N609 C612 1.390 . S
N610 C611 1.345 . S
N610 C613 1.336 . S
C611 N609 1.335 . S
C611 N610 1.345 . S
C611 H616 0.930 . S
C612 N609 1.390 . S
C612 C613 1.346 . S
C612 H617 0.930 . S
C613 N610 1.336 . S
C613 C612 1.346 . S
C613 H620 0.929 . S
C614 O604 1.282 . S
C614 O615 1.216 . S
O615 C614 1.216 . S
H616 C611 0.930 . S
H617 C612 0.930 . S
O618 Cu598 1.959 . S
O618 C605 1.251 . S
H619 C602 0.930 . S
H620 C613 0.929 . S
Cu621 N622 1.999 . S
Cu621 O627 1.974 1_455 S
Cu621 N632 1.985 1_455 S
Cu621 O641 1.959 . S
N622 Cu621 1.999 . S
N622 C624 1.263 . S
N622 C626 1.389 . S
N623 C624 1.358 . S
N623 C625 1.400 . S
C624 N622 1.263 . S
C624 N623 1.358 . S
C624 H630 0.930 . S
C625 N623 1.400 . S
C625 C626 1.351 . S
C625 H642 0.930 . S
C626 N622 1.389 . S
C626 C625 1.351 . S
C626 H631 0.930 . S
O627 Cu621 1.974 1_655 S
O627 C637 1.282 . S
C628 O629 1.261 . S
C628 O641 1.251 . S
O629 C628 1.261 . S
H630 C624 0.930 . S
H631 C626 0.930 . S
N632 Cu621 1.985 1_655 S
N632 C634 1.335 . S
N632 C635 1.390 . S
N633 C634 1.345 . S
N633 C636 1.336 . S
C634 N632 1.335 . S
C634 N633 1.345 . S
C634 H639 0.930 . S
C635 N632 1.390 . S
C635 C636 1.346 . S
C635 H640 0.930 . S
C636 N633 1.336 . S
C636 C635 1.346 . S
C636 H643 0.929 . S
C637 O627 1.282 . S
C637 O638 1.216 . S
O638 C637 1.216 . S
H639 C634 0.930 . S
H640 C635 0.930 . S
O641 Cu621 1.959 . S
O641 C628 1.251 . S
H642 C625 0.930 . S
H643 C636 0.929 . S
Cu644 N645 1.999 . S
Cu644 O650 1.974 . S
Cu644 N655 1.985 . S
Cu644 O664 1.959 . S
N645 Cu644 1.999 . S
N645 C647 1.263 . S
N645 C649 1.389 . S
N646 C647 1.358 . S
N646 C648 1.400 . S
C647 N645 1.263 . S
C647 N646 1.358 . S
C647 H653 0.930 . S
C648 N646 1.400 . S
C648 C649 1.351 . S
C648 H665 0.930 . S
C649 N645 1.389 . S
C649 C648 1.351 . S
C649 H654 0.930 . S
O650 Cu644 1.974 . S
O650 C660 1.282 . S
C651 O652 1.261 . S
C651 O664 1.251 . S
O652 C651 1.261 . S
H653 C647 0.930 . S
H654 C649 0.930 . S
N655 Cu644 1.985 . S
N655 C657 1.335 . S
N655 C658 1.390 . S
N656 C657 1.345 . S
N656 C659 1.336 . S
C657 N655 1.335 . S
C657 N656 1.345 . S
C657 H662 0.930 . S
C658 N655 1.390 . S
C658 C659 1.346 . S
C658 H663 0.930 . S
C659 N656 1.336 . S
C659 C658 1.346 . S
C659 H666 0.929 . S
C660 O650 1.282 . S
C660 O661 1.216 . S
O661 C660 1.216 . S
H662 C657 0.930 . S
H663 C658 0.930 . S
O664 Cu644 1.959 . S
O664 C651 1.251 . S
H665 C648 0.930 . S
H666 C659 0.929 . S
Cu667 N668 1.999 . S
Cu667 O673 1.974 . S
Cu667 N678 1.985 . S
Cu667 O687 1.959 . S
N668 Cu667 1.999 . S
N668 C670 1.263 . S
N668 C672 1.389 . S
N669 C670 1.358 . S
N669 C671 1.400 . S
C670 N668 1.263 . S
C670 N669 1.358 . S
C670 H676 0.930 . S
C671 N669 1.400 . S
C671 C672 1.351 . S
C671 H688 0.930 . S
C672 N668 1.389 . S
C672 C671 1.351 . S
C672 H677 0.930 . S
O673 Cu667 1.974 . S
O673 C683 1.282 . S
C674 O675 1.261 . S
C674 O687 1.251 . S
O675 C674 1.261 . S
H676 C670 0.930 . S
H677 C672 0.930 . S
N678 Cu667 1.985 . S
N678 C680 1.335 . S
N678 C681 1.390 . S
N679 C680 1.345 . S
N679 C682 1.336 . S
C680 N678 1.335 . S
C680 N679 1.345 . S
C680 H685 0.930 . S
C681 N678 1.390 . S
C681 C682 1.346 . S
C681 H686 0.930 . S
C682 N679 1.336 . S
C682 C681 1.346 . S
C682 H689 0.929 . S
C683 O673 1.282 . S
C683 O684 1.216 . S
O684 C683 1.216 . S
H685 C680 0.930 . S
H686 C681 0.930 . S
O687 Cu667 1.959 . S
O687 C674 1.251 . S
H688 C671 0.930 . S
H689 C682 0.929 . S
Cu690 N691 1.999 . S
Cu690 O696 1.974 . S
Cu690 N701 1.985 . S
Cu690 O710 1.959 . S
N691 Cu690 1.999 . S
N691 C693 1.263 . S
N691 C695 1.389 . S
N692 C693 1.358 . S
N692 C694 1.400 . S
C693 N691 1.263 . S
C693 N692 1.358 . S
C693 H699 0.930 . S
C694 N692 1.400 . S
C694 C695 1.351 . S
C694 H711 0.930 . S
C695 N691 1.389 . S
C695 C694 1.351 . S
C695 H700 0.930 . S
O696 Cu690 1.974 . S
O696 C706 1.282 . S
C697 O698 1.261 . S
C697 O710 1.251 . S
O698 C697 1.261 . S
H699 C693 0.930 . S
H700 C695 0.930 . S
N701 Cu690 1.985 . S
N701 C703 1.335 . S
N701 C704 1.390 . S
N702 C703 1.345 . S
N702 C705 1.336 . S
C703 N701 1.335 . S
C703 N702 1.345 . S
C703 H708 0.930 . S
C704 N701 1.390 . S
C704 C705 1.346 . S
C704 H709 0.930 . S
C705 N702 1.336 . S
C705 C704 1.346 . S
C705 H712 0.929 . S
C706 O696 1.282 . S
C706 O707 1.216 . S
O707 C706 1.216 . S
H708 C703 0.930 . S
H709 C704 0.930 . S
O710 Cu690 1.959 . S
O710 C697 1.251 . S
H711 C694 0.930 . S
H712 C705 0.929 . S
Cu713 N714 1.999 . S
Cu713 O719 1.974 . S
Cu713 N724 1.985 . S
Cu713 O733 1.959 . S
N714 Cu713 1.999 . S
N714 C716 1.263 . S
N714 C718 1.389 . S
N715 C716 1.358 . S
N715 C717 1.400 . S
C716 N714 1.263 . S
C716 N715 1.358 . S
C716 H722 0.930 . S
C717 N715 1.400 . S
C717 C718 1.351 . S
C717 H734 0.930 . S
C718 N714 1.389 . S
C718 C717 1.351 . S
C718 H723 0.930 . S
O719 Cu713 1.974 . S
O719 C729 1.282 . S
C720 O721 1.261 . S
C720 O733 1.251 . S
O721 C720 1.261 . S
H722 C716 0.930 . S
H723 C718 0.930 . S
N724 Cu713 1.985 . S
N724 C726 1.335 . S
N724 C727 1.390 . S
N725 C726 1.345 . S
N725 C728 1.336 . S
C726 N724 1.335 . S
C726 N725 1.345 . S
C726 H731 0.930 . S
C727 N724 1.390 . S
C727 C728 1.346 . S
C727 H732 0.930 . S
C728 N725 1.336 . S
C728 C727 1.346 . S
C728 H735 0.929 . S
C729 O719 1.282 . S
C729 O730 1.216 . S
O730 C729 1.216 . S
H731 C726 0.930 . S
H732 C727 0.930 . S
O733 Cu713 1.959 . S
O733 C720 1.251 . S
H734 C717 0.930 . S
H735 C728 0.929 . S
Cu736 N737 1.999 . S
Cu736 O742 1.974 . S
Cu736 N747 1.985 . S
Cu736 O756 1.959 . S
N737 Cu736 1.999 . S
N737 C739 1.263 . S
N737 C741 1.389 . S
N738 C739 1.358 . S
N738 C740 1.400 . S
C739 N737 1.263 . S
C739 N738 1.358 . S
C739 H745 0.930 . S
C740 N738 1.400 . S
C740 C741 1.351 . S
C740 H757 0.930 . S
C741 N737 1.389 . S
C741 C740 1.351 . S
C741 H746 0.930 . S
O742 Cu736 1.974 . S
O742 C752 1.282 . S
C743 O744 1.261 . S
C743 O756 1.251 . S
O744 C743 1.261 . S
H745 C739 0.930 . S
H746 C741 0.930 . S
N747 Cu736 1.985 . S
N747 C749 1.335 . S
N747 C750 1.390 . S
N748 C749 1.345 . S
N748 C751 1.336 . S
C749 N747 1.335 . S
C749 N748 1.345 . S
C749 H754 0.930 . S
C750 N747 1.390 . S
C750 C751 1.346 . S
C750 H755 0.930 . S
C751 N748 1.336 . S
C751 C750 1.346 . S
C751 H758 0.929 . S
C752 O742 1.282 . S
C752 O753 1.216 . S
O753 C752 1.216 . S
H754 C749 0.930 . S
H755 C750 0.930 . S
O756 Cu736 1.959 . S
O756 C743 1.251 . S
H757 C740 0.930 . S
H758 C751 0.929 . S
Cu759 N760 1.999 . S
Cu759 O765 1.974 . S
Cu759 N770 1.985 . S
Cu759 O779 1.959 . S
N760 Cu759 1.999 . S
N760 C762 1.263 . S
N760 C764 1.389 . S
N761 C762 1.358 . S
N761 C763 1.400 . S
C762 N760 1.263 . S
C762 N761 1.358 . S
C762 H768 0.930 . S
C763 N761 1.400 . S
C763 C764 1.351 . S
C763 H780 0.930 . S
C764 N760 1.389 . S
C764 C763 1.351 . S
C764 H769 0.930 . S
O765 Cu759 1.974 . S
O765 C775 1.282 . S
C766 O767 1.261 . S
C766 O779 1.251 . S
O767 C766 1.261 . S
H768 C762 0.930 . S
H769 C764 0.930 . S
N770 Cu759 1.985 . S
N770 C772 1.335 . S
N770 C773 1.390 . S
N771 C772 1.345 . S
N771 C774 1.336 . S
C772 N770 1.335 . S
C772 N771 1.345 . S
C772 H777 0.930 . S
C773 N770 1.390 . S
C773 C774 1.346 . S
C773 H778 0.930 . S
C774 N771 1.336 . S
C774 C773 1.346 . S
C774 H781 0.929 . S
C775 O765 1.282 . S
C775 O776 1.216 . S
O776 C775 1.216 . S
H777 C772 0.930 . S
H778 C773 0.930 . S
O779 Cu759 1.959 . S
O779 C766 1.251 . S
H780 C763 0.930 . S
H781 C774 0.929 . S
Cu782 N783 1.999 . S
Cu782 O788 1.974 . S
Cu782 N793 1.985 . S
Cu782 O802 1.959 . S
N783 Cu782 1.999 . S
N783 C785 1.263 . S
N783 C787 1.389 . S
N784 C785 1.358 . S
N784 C786 1.400 . S
C785 N783 1.263 . S
C785 N784 1.358 . S
C785 H791 0.930 . S
C786 N784 1.400 . S
C786 C787 1.351 . S
C786 H803 0.930 . S
C787 N783 1.389 . S
C787 C786 1.351 . S
C787 H792 0.930 . S
O788 Cu782 1.974 . S
O788 C798 1.282 . S
C789 O790 1.261 . S
C789 O802 1.251 . S
O790 C789 1.261 . S
H791 C785 0.930 . S
H792 C787 0.930 . S
N793 Cu782 1.985 . S
N793 C795 1.335 . S
N793 C796 1.390 . S
N794 C795 1.345 . S
N794 C797 1.336 . S
C795 N793 1.335 . S
C795 N794 1.345 . S
C795 H800 0.930 . S
C796 N793 1.390 . S
C796 C797 1.346 . S
C796 H801 0.930 . S
C797 N794 1.336 . S
C797 C796 1.346 . S
C797 H804 0.929 . S
C798 O788 1.282 . S
C798 O799 1.216 . S
O799 C798 1.216 . S
H800 C795 0.930 . S
H801 C796 0.930 . S
O802 Cu782 1.959 . S
O802 C789 1.251 . S
H803 C786 0.930 . S
H804 C797 0.929 . S
Cu805 N806 1.999 . S
Cu805 O811 1.974 . S
Cu805 N816 1.985 . S
Cu805 O825 1.959 . S
N806 Cu805 1.999 . S
N806 C808 1.263 . S
N806 C810 1.389 . S
N807 C808 1.358 . S
N807 C809 1.400 . S
C808 N806 1.263 . S
C808 N807 1.358 . S
C808 H814 0.930 . S
C809 N807 1.400 . S
C809 C810 1.351 . S
C809 H826 0.930 . S
C810 N806 1.389 . S
C810 C809 1.351 . S
C810 H815 0.930 . S
O811 Cu805 1.974 . S
O811 C821 1.282 . S
C812 O813 1.261 . S
C812 O825 1.251 . S
O813 C812 1.261 . S
H814 C808 0.930 . S
H815 C810 0.930 . S
N816 Cu805 1.985 . S
N816 C818 1.335 . S
N816 C819 1.390 . S
N817 C818 1.345 . S
N817 C820 1.336 . S
C818 N816 1.335 . S
C818 N817 1.345 . S
C818 H823 0.930 . S
C819 N816 1.390 . S
C819 C820 1.346 . S
C819 H824 0.930 . S
C820 N817 1.336 . S
C820 C819 1.346 . S
C820 H827 0.929 . S
C821 O811 1.282 . S
C821 O822 1.216 . S
O822 C821 1.216 . S
H823 C818 0.930 . S
H824 C819 0.930 . S
O825 Cu805 1.959 . S
O825 C812 1.251 . S
H826 C809 0.930 . S
H827 C820 0.929 . S
Cu828 N829 1.999 . S
Cu828 O834 1.974 . S
Cu828 N839 1.985 . S
Cu828 O848 1.959 . S
N829 Cu828 1.999 . S
N829 C831 1.263 . S
N829 C833 1.389 . S
N830 C831 1.358 . S
N830 C832 1.400 . S
C831 N829 1.263 . S
C831 N830 1.358 . S
C831 H837 0.930 . S
C832 N830 1.400 . S
C832 C833 1.351 . S
C832 H849 0.930 . S
C833 N829 1.389 . S
C833 C832 1.351 . S
C833 H838 0.930 . S
O834 Cu828 1.974 . S
O834 C844 1.282 . S
C835 O836 1.261 . S
C835 O848 1.251 . S
O836 C835 1.261 . S
H837 C831 0.930 . S
H838 C833 0.930 . S
N839 Cu828 1.985 . S
N839 C841 1.335 . S
N839 C842 1.390 . S
N840 C841 1.345 . S
N840 C843 1.336 . S
C841 N839 1.335 . S
C841 N840 1.345 . S
C841 H846 0.930 . S
C842 N839 1.390 . S
C842 C843 1.346 . S
C842 H847 0.930 . S
C843 N840 1.336 . S
C843 C842 1.346 . S
C843 H850 0.929 . S
C844 O834 1.282 . S
C844 O845 1.216 . S
O845 C844 1.216 . S
H846 C841 0.930 . S
H847 C842 0.930 . S
O848 Cu828 1.959 . S
O848 C835 1.251 . S
H849 C832 0.930 . S
H850 C843 0.929 . S
Cu851 N852 1.999 . S
Cu851 O857 1.974 . S
Cu851 N862 1.985 . S
Cu851 O871 1.959 . S
N852 Cu851 1.999 . S
N852 C854 1.263 . S
N852 C856 1.389 . S
N853 C854 1.358 . S
N853 C855 1.400 . S
C854 N852 1.263 . S
C854 N853 1.358 . S
C854 H860 0.930 . S
C855 N853 1.400 . S
C855 C856 1.351 . S
C855 H872 0.930 . S
C856 N852 1.389 . S
C856 C855 1.351 . S
C856 H861 0.930 . S
O857 Cu851 1.974 . S
O857 C867 1.282 . S
C858 O859 1.261 . S
C858 O871 1.251 . S
O859 C858 1.261 . S
H860 C854 0.930 . S
H861 C856 0.930 . S
N862 Cu851 1.985 . S
N862 C864 1.335 . S
N862 C865 1.390 . S
N863 C864 1.345 . S
N863 C866 1.336 . S
C864 N862 1.335 . S
C864 N863 1.345 . S
C864 H869 0.930 . S
C865 N862 1.390 . S
C865 C866 1.346 . S
C865 H870 0.930 . S
C866 N863 1.336 . S
C866 C865 1.346 . S
C866 H873 0.929 . S
C867 O857 1.282 . S
C867 O868 1.216 . S
O868 C867 1.216 . S
H869 C864 0.930 . S
H870 C865 0.930 . S
O871 Cu851 1.959 . S
O871 C858 1.251 . S
H872 C855 0.930 . S
H873 C866 0.929 . S
Cu874 N875 1.999 . S
Cu874 O880 1.974 . S
Cu874 N885 1.985 . S
Cu874 O894 1.959 . S
N875 Cu874 1.999 . S
N875 C877 1.263 . S
N875 C879 1.389 . S
N876 C877 1.358 . S
N876 C878 1.400 . S
C877 N875 1.263 . S
C877 N876 1.358 . S
C877 H883 0.930 . S
C878 N876 1.400 . S
C878 C879 1.351 . S
C878 H895 0.930 . S
C879 N875 1.389 . S
C879 C878 1.351 . S
C879 H884 0.930 . S
O880 Cu874 1.974 . S
O880 C890 1.282 . S
C881 O882 1.261 . S
C881 O894 1.251 . S
O882 C881 1.261 . S
H883 C877 0.930 . S
H884 C879 0.930 . S
N885 Cu874 1.985 . S
N885 C887 1.335 . S
N885 C888 1.390 . S
N886 C887 1.345 . S
N886 C889 1.336 . S
C887 N885 1.335 . S
C887 N886 1.345 . S
C887 H892 0.930 . S
C888 N885 1.390 . S
C888 C889 1.346 . S
C888 H893 0.930 . S
C889 N886 1.336 . S
C889 C888 1.346 . S
C889 H896 0.929 . S
C890 O880 1.282 . S
C890 O891 1.216 . S
O891 C890 1.216 . S
H892 C887 0.930 . S
H893 C888 0.930 . S
O894 Cu874 1.959 . S
O894 C881 1.251 . S
H895 C878 0.930 . S
H896 C889 0.929 . S
Cu897 N898 1.999 . S
Cu897 O903 1.974 . S
Cu897 N908 1.985 . S
Cu897 O917 1.959 . S
N898 Cu897 1.999 . S
N898 C900 1.263 . S
N898 C902 1.389 . S
N899 C900 1.358 . S
N899 C901 1.400 . S
C900 N898 1.263 . S
C900 N899 1.358 . S
C900 H906 0.930 . S
C901 N899 1.400 . S
C901 C902 1.351 . S
C901 H918 0.930 . S
C902 N898 1.389 . S
C902 C901 1.351 . S
C902 H907 0.930 . S
O903 Cu897 1.974 . S
O903 C913 1.282 . S
C904 O905 1.261 . S
C904 O917 1.251 . S
O905 C904 1.261 . S
H906 C900 0.930 . S
H907 C902 0.930 . S
N908 Cu897 1.985 . S
N908 C910 1.335 . S
N908 C911 1.390 . S
N909 C910 1.345 . S
N909 C912 1.336 . S
C910 N908 1.335 . S
C910 N909 1.345 . S
C910 H915 0.930 . S
C911 N908 1.390 . S
C911 C912 1.346 . S
C911 H916 0.930 . S
C912 N909 1.336 . S
C912 C911 1.346 . S
C912 H919 0.929 . S
C913 O903 1.282 . S
C913 O914 1.216 . S
O914 C913 1.216 . S
H915 C910 0.930 . S
H916 C911 0.930 . S
O917 Cu897 1.959 . S
O917 C904 1.251 . S
H918 C901 0.930 . S
H919 C912 0.929 . S
Cu920 N921 1.999 . S
Cu920 O926 1.974 . S
Cu920 N931 1.985 . S
Cu920 O940 1.959 . S
N921 Cu920 1.999 . S
N921 C923 1.263 . S
N921 C925 1.389 . S
N922 C923 1.358 . S
N922 C924 1.400 . S
C923 N921 1.263 . S
C923 N922 1.358 . S
C923 H929 0.930 . S
C924 N922 1.400 . S
C924 C925 1.351 . S
C924 H941 0.930 . S
C925 N921 1.389 . S
C925 C924 1.351 . S
C925 H930 0.930 . S
O926 Cu920 1.974 . S
O926 C936 1.282 . S
C927 O928 1.261 . S
C927 O940 1.251 . S
O928 C927 1.261 . S
H929 C923 0.930 . S
H930 C925 0.930 . S
N931 Cu920 1.985 . S
N931 C933 1.335 . S
N931 C934 1.390 . S
N932 C933 1.345 . S
N932 C935 1.336 . S
C933 N931 1.335 . S
C933 N932 1.345 . S
C933 H938 0.930 . S
C934 N931 1.390 . S
C934 C935 1.346 . S
C934 H939 0.930 . S
C935 N932 1.336 . S
C935 C934 1.346 . S
C935 H942 0.929 . S
C936 O926 1.282 . S
C936 O937 1.216 . S
O937 C936 1.216 . S
H938 C933 0.930 . S
H939 C934 0.930 . S
O940 Cu920 1.959 . S
O940 C927 1.251 . S
H941 C924 0.930 . S
H942 C935 0.929 . S
Cu943 N944 1.999 . S
Cu943 O949 1.974 . S
Cu943 N954 1.985 . S
Cu943 O963 1.959 . S
N944 Cu943 1.999 . S
N944 C946 1.263 . S
N944 C948 1.389 . S
N945 C946 1.358 . S
N945 C947 1.400 . S
C946 N944 1.263 . S
C946 N945 1.358 . S
C946 H952 0.930 . S
C947 N945 1.400 . S
C947 C948 1.351 . S
C947 H964 0.930 . S
C948 N944 1.389 . S
C948 C947 1.351 . S
C948 H953 0.930 . S
O949 Cu943 1.974 . S
O949 C959 1.282 . S
C950 O951 1.261 . S
C950 O963 1.251 . S
O951 C950 1.261 . S
H952 C946 0.930 . S
H953 C948 0.930 . S
N954 Cu943 1.985 . S
N954 C956 1.335 . S
N954 C957 1.390 . S
N955 C956 1.345 . S
N955 C958 1.336 . S
C956 N954 1.335 . S
C956 N955 1.345 . S
C956 H961 0.930 . S
C957 N954 1.390 . S
C957 C958 1.346 . S
C957 H962 0.930 . S
C958 N955 1.336 . S
C958 C957 1.346 . S
C958 H965 0.929 . S
C959 O949 1.282 . S
C959 O960 1.216 . S
O960 C959 1.216 . S
H961 C956 0.930 . S
H962 C957 0.930 . S
O963 Cu943 1.959 . S
O963 C950 1.251 . S
H964 C947 0.930 . S
H965 C958 0.929 . S
Cu966 N967 1.999 . S
Cu966 O972 1.974 1_545 S
Cu966 N977 1.985 1_545 S
Cu966 O986 1.959 . S
N967 Cu966 1.999 . S
N967 C969 1.263 . S
N967 C971 1.389 . S
N968 C969 1.358 . S
N968 C970 1.400 . S
C969 N967 1.263 . S
C969 N968 1.358 . S
C969 H975 0.930 . S
C970 N968 1.400 . S
C970 C971 1.351 . S
C970 H987 0.930 . S
C971 N967 1.389 . S
C971 C970 1.351 . S
C971 H976 0.930 . S
O972 Cu966 1.974 1_565 S
O972 C982 1.282 . S
C973 O974 1.261 . S
C973 O986 1.251 . S
O974 C973 1.261 . S
H975 C969 0.930 . S
H976 C971 0.930 . S
N977 Cu966 1.985 1_565 S
N977 C979 1.335 . S
N977 C980 1.390 . S
N978 C979 1.345 . S
N978 C981 1.336 . S
C979 N977 1.335 . S
C979 N978 1.345 . S
C979 H984 0.930 . S
C980 N977 1.390 . S
C980 C981 1.346 . S
C980 H985 0.930 . S
C981 N978 1.336 . S
C981 C980 1.346 . S
C981 H988 0.929 . S
C982 O972 1.282 . S
C982 O983 1.216 . S
O983 C982 1.216 . S
H984 C979 0.930 . S
H985 C980 0.930 . S
O986 Cu966 1.959 . S
O986 C973 1.251 . S
H987 C970 0.930 . S
H988 C981 0.929 . S
Cu989 N990 1.999 . S
Cu989 O995 1.974 . S
Cu989 N1000 1.985 . S
Cu989 O1009 1.959 . S
N990 Cu989 1.999 . S
N990 C992 1.263 . S
N990 C994 1.389 . S
N991 C992 1.358 . S
N991 C993 1.400 . S
C992 N990 1.263 . S
C992 N991 1.358 . S
C992 H998 0.930 . S
C993 N991 1.400 . S
C993 C994 1.351 . S
C993 H1010 0.930 . S
C994 N990 1.389 . S
C994 C993 1.351 . S
C994 H999 0.930 . S
O995 Cu989 1.974 . S
O995 C1005 1.282 . S
C996 O997 1.261 . S
C996 O1009 1.251 . S
O997 C996 1.261 . S
H998 C992 0.930 . S
H999 C994 0.930 . S
N1000 Cu989 1.985 . S
N1000 C1002 1.335 . S
N1000 C1003 1.390 . S
N1001 C1002 1.345 . S
N1001 C1004 1.336 . S
C1002 N1000 1.335 . S
C1002 N1001 1.345 . S
C1002 H1007 0.930 . S
C1003 N1000 1.390 . S
C1003 C1004 1.346 . S
C1003 H1008 0.930 . S
C1004 N1001 1.336 . S
C1004 C1003 1.346 . S
C1004 H1011 0.929 . S
C1005 O995 1.282 . S
C1005 O1006 1.216 . S
O1006 C1005 1.216 . S
H1007 C1002 0.930 . S
H1008 C1003 0.930 . S
O1009 Cu989 1.959 . S
O1009 C996 1.251 . S
H1010 C993 0.930 . S
H1011 C1004 0.929 . S
Cu1012 N1013 1.999 . S
Cu1012 O1018 1.974 1_565 S
Cu1012 N1023 1.985 1_565 S
Cu1012 O1032 1.959 . S
N1013 Cu1012 1.999 . S
N1013 C1015 1.263 . S
N1013 C1017 1.389 . S
N1014 C1015 1.358 . S
N1014 C1016 1.400 . S
C1015 N1013 1.263 . S
C1015 N1014 1.358 . S
C1015 H1021 0.930 . S
C1016 N1014 1.400 . S
C1016 C1017 1.351 . S
C1016 H1033 0.930 . S
C1017 N1013 1.389 . S
C1017 C1016 1.351 . S
C1017 H1022 0.930 . S
O1018 Cu1012 1.974 1_545 S
O1018 C1028 1.282 . S
C1019 O1020 1.261 . S
C1019 O1032 1.251 . S
O1020 C1019 1.261 . S
H1021 C1015 0.930 . S
H1022 C1017 0.930 . S
N1023 Cu1012 1.985 1_545 S
N1023 C1025 1.335 . S
N1023 C1026 1.390 . S
N1024 C1025 1.345 . S
N1024 C1027 1.336 . S
C1025 N1023 1.335 . S
C1025 N1024 1.345 . S
C1025 H1030 0.930 . S
C1026 N1023 1.390 . S
C1026 C1027 1.346 . S
C1026 H1031 0.930 . S
C1027 N1024 1.336 . S
C1027 C1026 1.346 . S
C1027 H1034 0.929 . S
C1028 O1018 1.282 . S
C1028 O1029 1.216 . S
O1029 C1028 1.216 . S
H1030 C1025 0.930 . S
H1031 C1026 0.930 . S
O1032 Cu1012 1.959 . S
O1032 C1019 1.251 . S
H1033 C1016 0.930 . S
H1034 C1027 0.929 . S
Cu1035 N1036 1.999 . S
Cu1035 O1041 1.974 . S
Cu1035 N1046 1.985 . S
Cu1035 O1055 1.959 . S
N1036 Cu1035 1.999 . S
N1036 C1038 1.263 . S
N1036 C1040 1.389 . S
N1037 C1038 1.358 . S
N1037 C1039 1.400 . S
C1038 N1036 1.263 . S
C1038 N1037 1.358 . S
C1038 H1044 0.930 . S
C1039 N1037 1.400 . S
C1039 C1040 1.351 . S
C1039 H1056 0.930 . S
C1040 N1036 1.389 . S
C1040 C1039 1.351 . S
C1040 H1045 0.930 . S
O1041 Cu1035 1.974 . S
O1041 C1051 1.282 . S
C1042 O1043 1.261 . S
C1042 O1055 1.251 . S
O1043 C1042 1.261 . S
H1044 C1038 0.930 . S
H1045 C1040 0.930 . S
N1046 Cu1035 1.985 . S
N1046 C1048 1.335 . S
N1046 C1049 1.390 . S
N1047 C1048 1.345 . S
N1047 C1050 1.336 . S
C1048 N1046 1.335 . S
C1048 N1047 1.345 . S
C1048 H1053 0.930 . S
C1049 N1046 1.390 . S
C1049 C1050 1.346 . S
C1049 H1054 0.930 . S
C1050 N1047 1.336 . S
C1050 C1049 1.346 . S
C1050 H1057 0.929 . S
C1051 O1041 1.282 . S
C1051 O1052 1.216 . S
O1052 C1051 1.216 . S
H1053 C1048 0.930 . S
H1054 C1049 0.930 . S
O1055 Cu1035 1.959 . S
O1055 C1042 1.251 . S
H1056 C1039 0.930 . S
H1057 C1050 0.929 . S
Cu1058 N1059 1.999 . S
Cu1058 O1064 1.974 1_565 S
Cu1058 N1069 1.985 1_565 S
Cu1058 O1078 1.959 . S
N1059 Cu1058 1.999 . S
N1059 C1061 1.263 . S
N1059 C1063 1.389 . S
N1060 C1061 1.358 . S
N1060 C1062 1.400 . S
C1061 N1059 1.263 . S
C1061 N1060 1.358 . S
C1061 H1067 0.930 . S
C1062 N1060 1.400 . S
C1062 C1063 1.351 . S
C1062 H1079 0.930 . S
C1063 N1059 1.389 . S
C1063 C1062 1.351 . S
C1063 H1068 0.930 . S
O1064 Cu1058 1.974 1_545 S
O1064 C1074 1.282 . S
C1065 O1066 1.261 . S
C1065 O1078 1.251 . S
O1066 C1065 1.261 . S
H1067 C1061 0.930 . S
H1068 C1063 0.930 . S
N1069 Cu1058 1.985 1_545 S
N1069 C1071 1.335 . S
N1069 C1072 1.390 . S
N1070 C1071 1.345 . S
N1070 C1073 1.336 . S
C1071 N1069 1.335 . S
C1071 N1070 1.345 . S
C1071 H1076 0.930 . S
C1072 N1069 1.390 . S
C1072 C1073 1.346 . S
C1072 H1077 0.930 . S
C1073 N1070 1.336 . S
C1073 C1072 1.346 . S
C1073 H1080 0.929 . S
C1074 O1064 1.282 . S
C1074 O1075 1.216 . S
O1075 C1074 1.216 . S
H1076 C1071 0.930 . S
H1077 C1072 0.930 . S
O1078 Cu1058 1.959 . S
O1078 C1065 1.251 . S
H1079 C1062 0.930 . S
H1080 C1073 0.929 . S
Cu1081 N1082 1.999 . S
Cu1081 O1087 1.974 . S
Cu1081 N1092 1.985 . S
Cu1081 O1101 1.959 . S
N1082 Cu1081 1.999 . S
N1082 C1084 1.263 . S
N1082 C1086 1.389 . S
N1083 C1084 1.358 . S
N1083 C1085 1.400 . S
C1084 N1082 1.263 . S
C1084 N1083 1.358 . S
C1084 H1090 0.930 . S
C1085 N1083 1.400 . S
C1085 C1086 1.351 . S
C1085 H1102 0.930 . S
C1086 N1082 1.389 . S
C1086 C1085 1.351 . S
C1086 H1091 0.930 . S
O1087 Cu1081 1.974 . S
O1087 C1097 1.282 . S
C1088 O1089 1.261 . S
C1088 O1101 1.251 . S
O1089 C1088 1.261 . S
H1090 C1084 0.930 . S
H1091 C1086 0.930 . S
N1092 Cu1081 1.985 . S
N1092 C1094 1.335 . S
N1092 C1095 1.390 . S
N1093 C1094 1.345 . S
N1093 C1096 1.336 . S
C1094 N1092 1.335 . S
C1094 N1093 1.345 . S
C1094 H1099 0.930 . S
C1095 N1092 1.390 . S
C1095 C1096 1.346 . S
C1095 H1100 0.930 . S
C1096 N1093 1.336 . S
C1096 C1095 1.346 . S
C1096 H1103 0.929 . S
C1097 O1087 1.282 . S
C1097 O1098 1.216 . S
O1098 C1097 1.216 . S
H1099 C1094 0.930 . S
H1100 C1095 0.930 . S
O1101 Cu1081 1.959 . S
O1101 C1088 1.251 . S
H1102 C1085 0.930 . S
H1103 C1096 0.929 . S
H1104 C1110 0.930 . S
H1105 C1113 0.930 . S
H1106 C1114 0.930 . S
H1107 C1115 0.930 . S
H1108 C1118 0.930 . S
H1109 C1119 0.930 . S
C1110 H1104 0.930 . S
C1110 C1111 1.355 . S
C1110 C1112 1.415 . S
C1111 C1110 1.355 . S
C1111 C1113 1.419 . S
C1112 C1110 1.415 . S
C1112 C1117 1.425 . S
C1112 C1119 1.409 . S
C1113 H1105 0.930 . S
C1113 C1111 1.419 . S
C1113 C1114 1.362 . S
C1114 H1106 0.930 . S
C1114 C1113 1.362 . S
C1114 C1117 1.409 . S
C1115 H1107 0.930 . S
C1115 C1116 1.355 . S
C1115 C1117 1.415 . S
C1116 C1115 1.355 . S
C1116 C1118 1.419 . S
C1117 C1112 1.425 . S
C1117 C1114 1.409 . S
C1117 C1115 1.415 . S
C1118 H1108 0.930 . S
C1118 C1116 1.419 . S
C1118 C1119 1.362 . S
C1119 H1109 0.930 . S
C1119 C1112 1.409 . S
C1119 C1118 1.362 . S
H1120 C1126 0.930 . S
H1121 C1129 0.930 . S
H1122 C1130 0.930 . S
H1123 C1131 0.930 . S
H1124 C1134 0.930 . S
H1125 C1135 0.930 . S
C1126 H1120 0.930 . S
C1126 C1127 1.355 . S
C1126 C1128 1.415 . S
C1127 C1126 1.355 . S
C1127 C1129 1.419 . S
C1128 C1126 1.415 . S
C1128 C1133 1.425 . S
C1128 C1135 1.409 . S
C1129 H1121 0.930 . S
C1129 C1127 1.419 . S
C1129 C1130 1.362 . S
C1130 H1122 0.930 . S
C1130 C1129 1.362 . S
C1130 C1133 1.409 . S
C1131 H1123 0.930 . S
C1131 C1132 1.355 . S
C1131 C1133 1.415 1_556 S
C1132 C1131 1.355 . S
C1132 C1134 1.419 . S
C1133 C1128 1.425 . S
C1133 C1130 1.409 . S
C1133 C1131 1.415 1_554 S
C1134 H1124 0.930 . S
C1134 C1132 1.419 . S
C1134 C1135 1.362 1_556 S
C1135 H1125 0.930 . S
C1135 C1128 1.409 . S
C1135 C1134 1.362 1_554 S
H1136 C1142 0.930 . S
H1137 C1145 0.930 . S
H1138 C1146 0.930 . S
H1139 C1147 0.930 . S
H1140 C1150 0.930 . S
H1141 C1151 0.930 . S
C1142 H1136 0.930 . S
C1142 C1143 1.355 . S
C1142 C1144 1.415 . S
C1143 C1142 1.355 . S
C1143 C1145 1.419 . S
C1144 C1142 1.415 . S
C1144 C1149 1.425 . S
C1144 C1151 1.409 . S
C1145 H1137 0.930 . S
C1145 C1143 1.419 . S
C1145 C1146 1.362 . S
C1146 H1138 0.930 . S
C1146 C1145 1.362 . S
C1146 C1149 1.409 . S
C1147 H1139 0.930 . S
C1147 C1148 1.355 . S
C1147 C1149 1.415 . S
C1148 C1147 1.355 . S
C1148 C1150 1.419 . S
C1149 C1144 1.425 . S
C1149 C1146 1.409 . S
C1149 C1147 1.415 . S
C1150 H1140 0.930 . S
C1150 C1148 1.419 . S
C1150 C1151 1.362 . S
C1151 H1141 0.930 . S
C1151 C1144 1.409 . S
C1151 C1150 1.362 . S
H1152 C1158 0.930 . S
H1153 C1161 0.930 . S
H1154 C1162 0.930 . S
H1155 C1163 0.930 . S
H1156 C1166 0.930 . S
H1157 C1167 0.930 . S
C1158 H1152 0.930 . S
C1158 C1159 1.355 . S
C1158 C1160 1.415 1_556 S
C1159 C1158 1.355 . S
C1159 C1161 1.419 . S
C1160 C1158 1.415 1_554 S
C1160 C1165 1.425 . S
C1160 C1167 1.409 . S
C1161 H1153 0.930 . S
C1161 C1159 1.419 . S
C1161 C1162 1.362 1_556 S
C1162 H1154 0.930 . S
C1162 C1161 1.362 1_554 S
C1162 C1165 1.409 . S
C1163 H1155 0.930 . S
C1163 C1164 1.355 . S
C1163 C1165 1.415 . S
C1164 C1163 1.355 . S
C1164 C1166 1.419 . S
C1165 C1160 1.425 . S
C1165 C1162 1.409 . S
C1165 C1163 1.415 . S
C1166 H1156 0.930 . S
C1166 C1164 1.419 . S
C1166 C1167 1.362 . S
C1167 H1157 0.930 . S
C1167 C1160 1.409 . S
C1167 C1166 1.362 . S
H1168 C1174 0.930 . S
H1169 C1177 0.930 . S
H1170 C1178 0.930 . S
H1171 C1179 0.930 . S
H1172 C1182 0.930 . S
H1173 C1183 0.930 . S
C1174 H1168 0.930 . S
C1174 C1175 1.355 . S
C1174 C1176 1.415 . S
C1175 C1174 1.355 . S
C1175 C1177 1.419 . S
C1176 C1174 1.415 . S
C1176 C1181 1.425 . S
C1176 C1183 1.409 . S
C1177 H1169 0.930 . S
C1177 C1175 1.419 . S
C1177 C1178 1.362 . S
C1178 H1170 0.930 . S
C1178 C1177 1.362 . S
C1178 C1181 1.409 . S
C1179 H1171 0.930 . S
C1179 C1180 1.355 . S
C1179 C1181 1.415 . S
C1180 C1179 1.355 . S
C1180 C1182 1.419 . S
C1181 C1176 1.425 . S
C1181 C1178 1.409 . S
C1181 C1179 1.415 . S
C1182 H1172 0.930 . S
C1182 C1180 1.419 . S
C1182 C1183 1.362 . S
C1183 H1173 0.930 . S
C1183 C1176 1.409 . S
C1183 C1182 1.362 . S
H1184 C1190 0.930 . S
H1185 C1193 0.941 . S
H1186 C1194 0.930 . S
H1187 C1195 0.930 . S
H1188 C1198 0.930 . S
H1189 C1199 0.930 . S
C1190 H1184 0.930 . S
C1190 C1191 1.355 . S
C1190 C1192 1.415 1_554 S
C1191 C1190 1.355 . S
C1191 C1193 1.446 . S
C1192 C1190 1.415 1_556 S
C1192 C1197 1.425 . S
C1192 C1199 1.409 . S
C1193 H1185 0.941 . S
C1193 C1191 1.446 . S
C1193 C1194 1.325 1_554 S
C1194 H1186 0.930 . S
C1194 C1193 1.325 1_556 S
C1194 C1197 1.409 . S
C1195 H1187 0.930 . S
C1195 C1196 1.355 . S
C1195 C1197 1.415 . S
C1196 C1195 1.355 . S
C1196 C1198 1.419 . S
C1197 C1192 1.425 . S
C1197 C1194 1.409 . S
C1197 C1195 1.415 . S
C1198 H1188 0.930 . S
C1198 C1196 1.419 . S
C1198 C1199 1.362 . S
C1199 H1189 0.930 . S
C1199 C1192 1.409 . S
C1199 C1198 1.362 . S
H1200 C1206 0.930 . S
H1201 C1209 0.930 . S
H1202 C1210 0.930 . S
H1203 C1211 0.930 . S
H1204 C1214 0.930 . S
H1205 C1215 0.930 . S
C1206 H1200 0.930 . S
C1206 C1207 1.355 . S
C1206 C1208 1.415 . S
C1207 C1206 1.355 . S
C1207 C1209 1.419 . S
C1208 C1206 1.415 . S
C1208 C1213 1.425 . S
C1208 C1215 1.409 . S
C1209 H1201 0.930 . S
C1209 C1207 1.419 . S
C1209 C1210 1.362 . S
C1210 H1202 0.930 . S
C1210 C1209 1.362 . S
C1210 C1213 1.409 . S
C1211 H1203 0.930 . S
C1211 C1212 1.355 . S
C1211 C1213 1.415 . S
C1212 C1211 1.355 . S
C1212 C1214 1.419 . S
C1213 C1208 1.425 . S
C1213 C1210 1.409 . S
C1213 C1211 1.415 . S
C1214 H1204 0.930 . S
C1214 C1212 1.419 . S
C1214 C1215 1.362 . S
C1215 H1205 0.930 . S
C1215 C1208 1.409 . S
C1215 C1214 1.362 . S
H1216 C1222 0.930 . S
H1217 C1225 0.930 . S
H1218 C1226 0.930 . S
H1219 C1227 0.930 . S
H1220 C1230 0.930 . S
H1221 C1231 0.930 . S
C1222 H1216 0.930 . S
C1222 C1223 1.355 . S
C1222 C1224 1.415 . S
C1223 C1222 1.355 . S
C1223 C1225 1.419 . S
C1224 C1222 1.415 . S
C1224 C1229 1.425 . S
C1224 C1231 1.409 . S
C1225 H1217 0.930 . S
C1225 C1223 1.419 . S
C1225 C1226 1.362 . S
C1226 H1218 0.930 . S
C1226 C1225 1.362 . S
C1226 C1229 1.409 . S
C1227 H1219 0.930 . S
C1227 C1228 1.355 . S
C1227 C1229 1.415 1_554 S
C1228 C1227 1.355 . S
C1228 C1230 1.419 . S
C1229 C1224 1.425 . S
C1229 C1226 1.409 . S
C1229 C1227 1.415 1_556 S
C1230 H1220 0.930 . S
C1230 C1228 1.419 . S
C1230 C1231 1.362 1_554 S
C1231 H1221 0.930 . S
C1231 C1224 1.409 . S
C1231 C1230 1.362 1_556 S
H1232 C1238 0.930 . S
H1233 C1241 0.930 . S
H1234 C1242 0.930 . S
H1235 C1243 0.930 . S
H1236 C1246 0.930 . S
H1237 C1247 0.930 . S
C1238 H1232 0.930 . S
C1238 C1239 1.355 . S
C1238 C1240 1.415 . S
C1239 C1238 1.355 . S
C1239 C1241 1.419 . S
C1240 C1238 1.415 . S
C1240 C1245 1.425 . S
C1240 C1247 1.409 . S
C1241 H1233 0.930 . S
C1241 C1239 1.419 . S
C1241 C1242 1.362 . S
C1242 H1234 0.930 . S
C1242 C1241 1.362 . S
C1242 C1245 1.409 . S
C1243 H1235 0.930 . S
C1243 C1244 1.355 . S
C1243 C1245 1.415 . S
C1244 C1243 1.355 . S
C1244 C1246 1.419 . S
C1245 C1240 1.425 . S
C1245 C1242 1.409 . S
C1245 C1243 1.415 . S
C1246 H1236 0.930 . S
C1246 C1244 1.419 . S
C1246 C1247 1.362 . S
C1247 H1237 0.930 . S
C1247 C1240 1.409 . S
C1247 C1246 1.362 . S
H1248 C1254 0.930 . S
H1249 C1257 0.930 . S
H1250 C1258 0.930 . S
H1251 C1259 0.930 . S
H1252 C1262 0.930 . S
H1253 C1263 0.930 . S
C1254 H1248 0.930 . S
C1254 C1255 1.355 . S
C1254 C1256 1.415 . S
C1255 C1254 1.355 . S
C1255 C1257 1.419 . S
C1256 C1254 1.415 . S
C1256 C1261 1.425 . S
C1256 C1263 1.409 . S
C1257 H1249 0.930 . S
C1257 C1255 1.419 . S
C1257 C1258 1.362 . S
C1258 H1250 0.930 . S
C1258 C1257 1.362 . S
C1258 C1261 1.409 . S
C1259 H1251 0.930 . S
C1259 C1260 1.355 . S
C1259 C1261 1.415 . S
C1260 C1259 1.355 . S
C1260 C1262 1.419 . S
C1261 C1256 1.425 . S
C1261 C1258 1.409 . S
C1261 C1259 1.415 . S
C1262 H1252 0.930 . S
C1262 C1260 1.419 . S
C1262 C1263 1.362 . S
C1263 H1253 0.930 . S
C1263 C1256 1.409 . S
C1263 C1262 1.362 . S
H1264 C1270 0.930 . S
H1265 C1273 0.930 . S
H1266 C1274 0.930 . S
H1267 C1275 0.930 . S
H1268 C1278 0.930 . S
H1269 C1279 0.930 . S
C1270 H1264 0.930 . S
C1270 C1271 1.355 . S
C1270 C1272 1.415 . S
C1271 C1270 1.355 . S
C1271 C1273 1.419 . S
C1272 C1270 1.415 . S
C1272 C1277 1.425 . S
C1272 C1279 1.409 . S
C1273 H1265 0.930 . S
C1273 C1271 1.419 . S
C1273 C1274 1.362 . S
C1274 H1266 0.930 . S
C1274 C1273 1.362 . S
C1274 C1277 1.409 . S
C1275 H1267 0.930 . S
C1275 C1276 1.355 . S
C1275 C1277 1.415 . S
C1276 C1275 1.355 . S
C1276 C1278 1.419 . S
C1277 C1272 1.425 . S
C1277 C1274 1.409 . S
C1277 C1275 1.415 . S
C1278 H1268 0.930 . S
C1278 C1276 1.419 . S
C1278 C1279 1.362 . S
C1279 H1269 0.930 . S
C1279 C1272 1.409 . S
C1279 C1278 1.362 . S
H1280 C1286 0.930 . S
H1281 C1289 0.930 . S
H1282 C1290 0.930 . S
H1283 C1291 0.930 . S
H1284 C1294 0.930 . S
H1285 C1295 0.930 . S
C1286 H1280 0.930 . S
C1286 C1287 1.355 . S
C1286 C1288 1.415 . S
C1287 C1286 1.355 . S
C1287 C1289 1.419 . S
C1288 C1286 1.415 . S
C1288 C1293 1.425 . S
C1288 C1295 1.409 . S
C1289 H1281 0.930 . S
C1289 C1287 1.419 . S
C1289 C1290 1.362 . S
C1290 H1282 0.930 . S
C1290 C1289 1.362 . S
C1290 C1293 1.409 . S
C1291 H1283 0.930 . S
C1291 C1292 1.355 . S
C1291 C1293 1.415 1_545 S
C1292 C1291 1.355 . S
C1292 C1294 1.419 . S
C1293 C1288 1.425 . S
C1293 C1290 1.409 . S
C1293 C1291 1.415 1_565 S
C1294 H1284 0.930 . S
C1294 C1292 1.419 . S
C1294 C1295 1.362 1_545 S
C1295 H1285 0.930 . S
C1295 C1288 1.409 . S
C1295 C1294 1.362 1_565 S
H1296 C1302 0.930 . S
H1297 C1305 0.930 . S
H1298 C1306 0.930 . S
H1299 C1307 0.930 . S
H1300 C1310 0.930 . S
H1301 C1311 0.930 . S
C1302 H1296 0.930 . S
C1302 C1303 1.355 . S
C1302 C1304 1.415 . S
C1303 C1302 1.355 . S
C1303 C1305 1.419 . S
C1304 C1302 1.415 . S
C1304 C1309 1.425 . S
C1304 C1311 1.409 . S
C1305 H1297 0.930 . S
C1305 C1303 1.419 . S
C1305 C1306 1.362 . S
C1306 H1298 0.930 . S
C1306 C1305 1.362 . S
C1306 C1309 1.409 . S
C1307 H1299 0.930 . S
C1307 C1308 1.355 . S
C1307 C1309 1.415 . S
C1308 C1307 1.355 . S
C1308 C1310 1.419 . S
C1309 C1304 1.425 . S
C1309 C1306 1.409 . S
C1309 C1307 1.415 . S
C1310 H1300 0.930 . S
C1310 C1308 1.419 . S
C1310 C1311 1.362 . S
C1311 H1301 0.930 . S
C1311 C1304 1.409 . S
C1311 C1310 1.362 . S
H1312 C1318 0.930 . S
H1313 C1321 0.930 . S
H1314 C1322 0.930 . S
H1315 C1323 0.930 . S
H1316 C1326 0.930 . S
H1317 C1327 0.930 . S
C1318 H1312 0.930 . S
C1318 C1319 1.355 . S
C1318 C1320 1.415 . S
C1319 C1318 1.355 . S
C1319 C1321 1.419 . S
C1320 C1318 1.415 . S
C1320 C1325 1.425 . S
C1320 C1327 1.409 . S
C1321 H1313 0.930 . S
C1321 C1319 1.419 . S
C1321 C1322 1.362 . S
C1322 H1314 0.930 . S
C1322 C1321 1.362 . S
C1322 C1325 1.409 . S
C1323 H1315 0.930 . S
C1323 C1324 1.355 . S
C1323 C1325 1.415 . S
C1324 C1323 1.355 . S
C1324 C1326 1.419 . S
C1325 C1320 1.425 . S
C1325 C1322 1.409 . S
C1325 C1323 1.415 . S
C1326 H1316 0.930 . S
C1326 C1324 1.419 . S
C1326 C1327 1.362 . S
C1327 H1317 0.930 . S
C1327 C1320 1.409 . S
C1327 C1326 1.362 . S
H1328 C1334 0.930 . S
H1329 C1337 0.930 . S
H1330 C1338 0.930 . S
H1331 C1339 0.930 . S
H1332 C1342 0.930 . S
H1333 C1343 0.930 . S
C1334 H1328 0.930 . S
C1334 C1335 1.355 . S
C1334 C1336 1.415 . S
C1335 C1334 1.355 . S
C1335 C1337 1.419 . S
C1336 C1334 1.415 . S
C1336 C1341 1.425 . S
C1336 C1343 1.409 . S
C1337 H1329 0.930 . S
C1337 C1335 1.419 . S
C1337 C1338 1.362 . S
C1338 H1330 0.930 . S
C1338 C1337 1.362 . S
C1338 C1341 1.409 . S
C1339 H1331 0.930 . S
C1339 C1340 1.355 . S
C1339 C1341 1.415 . S
C1340 C1339 1.355 . S
C1340 C1342 1.419 . S
C1341 C1336 1.425 . S
C1341 C1338 1.409 . S
C1341 C1339 1.415 . S
C1342 H1332 0.930 . S
C1342 C1340 1.419 . S
C1342 C1343 1.362 . S
C1343 H1333 0.930 . S
C1343 C1336 1.409 . S
C1343 C1342 1.362 . S
H1344 C1350 0.930 . S
H1345 C1353 0.930 . S
H1346 C1354 0.934 . S
H1347 C1355 0.930 . S
H1348 C1358 0.930 . S
H1349 C1359 0.930 . S
C1350 H1344 0.930 . S
C1350 C1351 1.361 . S
C1350 C1352 1.408 1_545 S
C1351 C1350 1.361 . S
C1351 C1353 1.419 . S
C1352 C1350 1.408 1_565 S
C1352 C1357 1.425 . S
C1352 C1359 1.409 . S
C1353 H1345 0.930 . S
C1353 C1351 1.419 . S
C1353 C1354 1.405 . S
C1354 H1346 0.934 . S
C1354 C1353 1.405 . S
C1354 C1357 1.365 1_545 S
C1355 H1347 0.930 . S
C1355 C1356 1.355 . S
C1355 C1357 1.415 . S
C1356 C1355 1.355 . S
C1356 C1358 1.419 . S
C1357 C1352 1.425 . S
C1357 C1354 1.365 1_565 S
C1357 C1355 1.415 . S
C1358 H1348 0.930 . S
C1358 C1356 1.419 . S
C1358 C1359 1.362 . S
C1359 H1349 0.930 . S
C1359 C1352 1.409 . S
C1359 C1358 1.362 . S
H1360 C1366 0.930 . S
H1361 C1369 0.930 . S
H1362 C1370 0.930 . S
H1363 C1371 0.930 . S
H1364 C1374 0.930 . S
H1365 C1375 0.930 . S
C1366 H1360 0.930 . S
C1366 C1367 1.355 . S
C1366 C1368 1.415 . S
C1367 C1366 1.355 . S
C1367 C1369 1.419 . S
C1368 C1366 1.415 . S
C1368 C1373 1.425 . S
C1368 C1375 1.409 . S
C1369 H1361 0.930 . S
C1369 C1367 1.419 . S
C1369 C1370 1.362 . S
C1370 H1362 0.930 . S
C1370 C1369 1.362 . S
C1370 C1373 1.409 . S
C1371 H1363 0.930 . S
C1371 C1372 1.355 . S
C1371 C1373 1.415 . S
C1372 C1371 1.355 . S
C1372 C1374 1.419 . S
C1373 C1368 1.425 . S
C1373 C1370 1.409 . S
C1373 C1371 1.415 . S
C1374 H1364 0.930 . S
C1374 C1372 1.419 . S
C1374 C1375 1.362 . S
C1375 H1365 0.930 . S
C1375 C1368 1.409 . S
C1375 C1374 1.362 . S
H1376 C1382 0.930 . S
H1377 C1385 0.930 . S
H1378 C1386 0.930 . S
H1379 C1387 0.930 . S
H1380 C1390 0.930 . S
H1381 C1391 0.930 . S
C1382 H1376 0.930 . S
C1382 C1383 1.355 . S
C1382 C1384 1.415 . S
C1383 C1382 1.355 . S
C1383 C1385 1.419 . S
C1384 C1382 1.415 . S
C1384 C1389 1.425 . S
C1384 C1391 1.409 . S
C1385 H1377 0.930 . S
C1385 C1383 1.419 . S
C1385 C1386 1.362 . S
C1386 H1378 0.930 . S
C1386 C1385 1.362 . S
C1386 C1389 1.409 . S
C1387 H1379 0.930 . S
C1387 C1388 1.355 . S
C1387 C1389 1.415 . S
C1388 C1387 1.355 . S
C1388 C1390 1.419 . S
C1389 C1384 1.425 . S
C1389 C1386 1.409 . S
C1389 C1387 1.415 . S
C1390 H1380 0.930 . S
C1390 C1388 1.419 . S
C1390 C1391 1.362 . S
C1391 H1381 0.930 . S
C1391 C1384 1.409 . S
C1391 C1390 1.362 . S
H1392 C1398 0.930 . S
H1393 C1401 0.930 . S
H1394 C1402 0.930 . S
H1395 C1403 0.930 . S
H1396 C1406 0.930 . S
H1397 C1407 0.930 . S
C1398 H1392 0.930 . S
C1398 C1399 1.355 . S
C1398 C1400 1.415 1_655 S
C1399 C1398 1.355 . S
C1399 C1401 1.419 . S
C1400 C1398 1.415 1_455 S
C1400 C1405 1.425 . S
C1400 C1407 1.409 . S
C1401 H1393 0.930 . S
C1401 C1399 1.419 . S
C1401 C1402 1.362 1_655 S
C1402 H1394 0.930 . S
C1402 C1401 1.362 1_455 S
C1402 C1405 1.409 . S
C1403 H1395 0.930 . S
C1403 C1404 1.355 . S
C1403 C1405 1.415 . S
C1404 C1403 1.355 . S
C1404 C1406 1.419 . S
C1405 C1400 1.425 . S
C1405 C1402 1.409 . S
C1405 C1403 1.415 . S
C1406 H1396 0.930 . S
C1406 C1404 1.419 . S
C1406 C1407 1.362 . S
C1407 H1397 0.930 . S
C1407 C1400 1.409 . S
C1407 C1406 1.362 . S
H1408 C1414 0.930 . S
H1409 C1417 0.930 . S
H1410 C1418 0.930 . S
H1411 C1419 0.930 . S
H1412 C1422 0.930 . S
H1413 C1423 0.930 . S
C1414 H1408 0.930 . S
C1414 C1415 1.355 . S
C1414 C1416 1.415 . S
C1415 C1414 1.355 . S
C1415 C1417 1.419 . S
C1416 C1414 1.415 . S
C1416 C1421 1.425 . S
C1416 C1423 1.409 . S
C1417 H1409 0.930 . S
C1417 C1415 1.419 . S
C1417 C1418 1.362 . S
C1418 H1410 0.930 . S
C1418 C1417 1.362 . S
C1418 C1421 1.409 . S
C1419 H1411 0.930 . S
C1419 C1420 1.355 . S
C1419 C1421 1.415 . S
C1420 C1419 1.355 . S
C1420 C1422 1.419 . S
C1421 C1416 1.425 . S
C1421 C1418 1.409 . S
C1421 C1419 1.415 . S
C1422 H1412 0.930 . S
C1422 C1420 1.419 . S
C1422 C1423 1.362 . S
C1423 H1413 0.930 . S
C1423 C1416 1.409 . S
C1423 C1422 1.362 . S
H1424 C1430 0.930 . S
H1425 C1433 0.930 . S
H1426 C1434 0.930 . S
H1427 C1435 0.930 . S
H1428 C1438 0.930 . S
H1429 C1439 0.930 . S
C1430 H1424 0.930 . S
C1430 C1431 1.355 . S
C1430 C1432 1.415 . S
C1431 C1430 1.355 . S
C1431 C1433 1.419 . S
C1432 C1430 1.415 . S
C1432 C1437 1.425 . S
C1432 C1439 1.409 . S
C1433 H1425 0.930 . S
C1433 C1431 1.419 . S
C1433 C1434 1.362 . S
C1434 H1426 0.930 . S
C1434 C1433 1.362 . S
C1434 C1437 1.409 . S
C1435 H1427 0.930 . S
C1435 C1436 1.355 . S
C1435 C1437 1.415 . S
C1436 C1435 1.355 . S
C1436 C1438 1.419 . S
C1437 C1432 1.425 . S
C1437 C1434 1.409 . S
C1437 C1435 1.415 . S
C1438 H1428 0.930 . S
C1438 C1436 1.419 . S
C1438 C1439 1.362 . S
C1439 H1429 0.930 . S
C1439 C1432 1.409 . S
C1439 C1438 1.362 . S
H1440 C1446 0.930 . S
H1441 C1449 0.930 . S
H1442 C1450 0.930 . S
H1443 C1451 0.930 . S
H1444 C1454 0.930 . S
H1445 C1455 0.930 . S
C1446 H1440 0.930 . S
C1446 C1447 1.355 . S
C1446 C1448 1.415 . S
C1447 C1446 1.355 . S
C1447 C1449 1.419 . S
C1448 C1446 1.415 . S
C1448 C1453 1.425 . S
C1448 C1455 1.409 . S
C1449 H1441 0.930 . S
C1449 C1447 1.419 . S
C1449 C1450 1.362 . S
C1450 H1442 0.930 . S
C1450 C1449 1.362 . S
C1450 C1453 1.409 . S
C1451 H1443 0.930 . S
C1451 C1452 1.355 . S
C1451 C1453 1.415 . S
C1452 C1451 1.355 . S
C1452 C1454 1.419 . S
C1453 C1448 1.425 . S
C1453 C1450 1.409 . S
C1453 C1451 1.415 . S
C1454 H1444 0.930 . S
C1454 C1452 1.419 . S
C1454 C1455 1.362 . S
C1455 H1445 0.930 . S
C1455 C1448 1.409 . S
C1455 C1454 1.362 . S
H1456 C1462 0.930 . S
H1457 C1465 0.930 . S
H1458 C1466 0.930 . S
H1459 C1467 0.931 . S
H1460 C1470 0.930 . S
H1461 C1471 0.930 . S
C1462 H1456 0.930 . S
C1462 C1463 1.355 . S
C1462 C1464 1.415 . S
C1463 C1462 1.355 . S
C1463 C1465 1.419 . S
C1464 C1462 1.415 . S
C1464 C1469 1.425 . S
C1464 C1471 1.432 . S
C1465 H1457 0.930 . S
C1465 C1463 1.419 . S
C1465 C1466 1.362 . S
C1466 H1458 0.930 . S
C1466 C1465 1.362 . S
C1466 C1469 1.409 . S
C1467 H1459 0.931 . S
C1467 C1468 1.385 . S
C1467 C1469 1.384 1_655 S
C1468 C1467 1.385 . S
C1468 C1470 1.419 . S
C1469 C1464 1.425 . S
C1469 C1466 1.409 . S
C1469 C1467 1.384 1_455 S
C1470 H1460 0.930 . S
C1470 C1468 1.419 . S
C1470 C1471 1.339 1_655 S
C1471 H1461 0.930 . S
C1471 C1464 1.432 . S
C1471 C1470 1.339 1_455 S
H1472 C1478 0.930 . S
H1473 C1481 0.930 . S
H1474 C1482 0.930 . S
H1475 C1483 0.930 . S
H1476 C1486 0.930 . S
H1477 C1487 0.930 . S
C1478 H1472 0.930 . S
C1478 C1479 1.355 . S
C1478 C1480 1.415 . S
C1479 C1478 1.355 . S
C1479 C1481 1.419 . S
C1480 C1478 1.415 . S
C1480 C1485 1.425 . S
C1480 C1487 1.409 . S
C1481 H1473 0.930 . S
C1481 C1479 1.419 . S
C1481 C1482 1.362 . S
C1482 H1474 0.930 . S
C1482 C1481 1.362 . S
C1482 C1485 1.409 . S
C1483 H1475 0.930 . S
C1483 C1484 1.355 . S
C1483 C1485 1.415 1_455 S
C1484 C1483 1.355 . S
C1484 C1486 1.419 . S
C1485 C1480 1.425 . S
C1485 C1482 1.409 . S
C1485 C1483 1.415 1_655 S
C1486 H1476 0.930 . S
C1486 C1484 1.419 . S
C1486 C1487 1.362 1_455 S
C1487 H1477 0.930 . S
C1487 C1480 1.409 . S
C1487 C1486 1.362 1_655 S
H1488 C1494 0.930 . S
H1489 C1497 0.930 . S
H1490 C1498 0.930 . S
H1491 C1499 0.930 . S
H1492 C1502 0.930 . S
H1493 C1503 0.930 . S
C1494 H1488 0.930 . S
C1494 C1495 1.355 . S
C1494 C1496 1.415 . S
C1495 C1494 1.355 . S
C1495 C1497 1.419 . S
C1496 C1494 1.415 . S
C1496 C1501 1.425 . S
C1496 C1503 1.409 . S
C1497 H1489 0.930 . S
C1497 C1495 1.419 . S
C1497 C1498 1.362 . S
C1498 H1490 0.930 . S
C1498 C1497 1.362 . S
C1498 C1501 1.409 . S
C1499 H1491 0.930 . S
C1499 C1500 1.355 . S
C1499 C1501 1.415 . S
C1500 C1499 1.355 . S
C1500 C1502 1.419 . S
C1501 C1496 1.425 . S
C1501 C1498 1.409 . S
C1501 C1499 1.415 . S
C1502 H1492 0.930 . S
C1502 C1500 1.419 . S
C1502 C1503 1.362 . S
C1503 H1493 0.930 . S
C1503 C1496 1.409 . S
C1503 C1502 1.362 . S
H1504 C1510 0.930 . S
H1505 C1513 0.930 . S
H1506 C1514 0.930 . S
H1507 C1515 0.930 . S
H1508 C1518 0.930 . S
H1509 C1519 0.930 . S
C1510 H1504 0.930 . S
C1510 C1511 1.355 . S
C1510 C1512 1.415 . S
C1511 C1510 1.355 . S
C1511 C1513 1.419 . S
C1512 C1510 1.415 . S
C1512 C1517 1.425 . S
C1512 C1519 1.409 . S
C1513 H1505 0.930 . S
C1513 C1511 1.419 . S
C1513 C1514 1.362 . S
C1514 H1506 0.930 . S
C1514 C1513 1.362 . S
C1514 C1517 1.409 . S
C1515 H1507 0.930 . S
C1515 C1516 1.355 . S
C1515 C1517 1.415 . S
C1516 C1515 1.355 . S
C1516 C1518 1.419 . S
C1517 C1512 1.425 . S
C1517 C1514 1.409 . S
C1517 C1515 1.415 . S
C1518 H1508 0.930 . S
C1518 C1516 1.419 . S
C1518 C1519 1.362 . S
C1519 H1509 0.930 . S
C1519 C1512 1.409 . S
C1519 C1518 1.362 . S
H1520 C1526 0.930 . S
H1521 C1529 0.930 . S
H1522 C1530 0.930 . S
H1523 C1531 0.930 . S
H1524 C1534 0.930 . S
H1525 C1535 0.930 . S
C1526 H1520 0.930 . S
C1526 C1527 1.355 . S
C1526 C1528 1.415 . S
C1527 C1526 1.355 . S
C1527 C1529 1.419 . S
C1528 C1526 1.415 . S
C1528 C1533 1.425 . S
C1528 C1535 1.409 . S
C1529 H1521 0.930 . S
C1529 C1527 1.419 . S
C1529 C1530 1.362 . S
C1530 H1522 0.930 . S
C1530 C1529 1.362 . S
C1530 C1533 1.409 . S
C1531 H1523 0.930 . S
C1531 C1532 1.355 . S
C1531 C1533 1.415 . S
C1532 C1531 1.355 . S
C1532 C1534 1.419 . S
C1533 C1528 1.425 . S
C1533 C1530 1.409 . S
C1533 C1531 1.415 . S
C1534 H1524 0.930 . S
C1534 C1532 1.419 . S
C1534 C1535 1.362 . S
C1535 H1525 0.930 . S
C1535 C1528 1.409 . S
C1535 C1534 1.362 . S
H1536 C1542 0.930 . S
H1537 C1545 0.930 . S
H1538 C1546 0.930 . S
H1539 C1547 0.930 . S
H1540 C1550 0.930 . S
H1541 C1551 0.930 . S
C1542 H1536 0.930 . S
C1542 C1543 1.355 . S
C1542 C1544 1.415 . S
C1543 C1542 1.355 . S
C1543 C1545 1.419 . S
C1544 C1542 1.415 . S
C1544 C1549 1.425 . S
C1544 C1551 1.409 . S
C1545 H1537 0.930 . S
C1545 C1543 1.419 . S
C1545 C1546 1.362 . S
C1546 H1538 0.930 . S
C1546 C1545 1.362 . S
C1546 C1549 1.409 . S
C1547 H1539 0.930 . S
C1547 C1548 1.355 . S
C1547 C1549 1.415 . S
C1548 C1547 1.355 . S
C1548 C1550 1.419 . S
C1549 C1544 1.425 . S
C1549 C1546 1.409 . S
C1549 C1547 1.415 . S
C1550 H1540 0.930 . S
C1550 C1548 1.419 . S
C1550 C1551 1.362 . S
C1551 H1541 0.930 . S
C1551 C1544 1.409 . S
C1551 C1550 1.362 . S
H1552 C1558 0.930 . S
H1553 C1561 0.930 . S
H1554 C1562 0.930 . S
H1555 C1563 0.930 . S
H1556 C1566 0.930 . S
H1557 C1567 0.930 . S
C1558 H1552 0.930 . S
C1558 C1559 1.355 . S
C1558 C1560 1.415 . S
C1559 C1558 1.355 . S
C1559 C1561 1.419 . S
C1560 C1558 1.415 . S
C1560 C1565 1.425 . S
C1560 C1567 1.409 . S
C1561 H1553 0.930 . S
C1561 C1559 1.419 . S
C1561 C1562 1.362 . S
C1562 H1554 0.930 . S
C1562 C1561 1.362 . S
C1562 C1565 1.409 . S
C1563 H1555 0.930 . S
C1563 C1564 1.355 . S
C1563 C1565 1.415 . S
C1564 C1563 1.355 . S
C1564 C1566 1.419 . S
C1565 C1560 1.425 . S
C1565 C1562 1.409 . S
C1565 C1563 1.415 . S
C1566 H1556 0.930 . S
C1566 C1564 1.419 . S
C1566 C1567 1.362 . S
C1567 H1557 0.930 . S
C1567 C1560 1.409 . S
C1567 C1566 1.362 . S
H1568 C1574 0.930 . S
H1569 C1577 0.930 . S
H1570 C1578 0.930 . S
H1571 C1579 0.930 . S
H1572 C1582 0.930 . S
H1573 C1583 0.930 . S
C1574 H1568 0.930 . S
C1574 C1575 1.355 . S
C1574 C1576 1.415 . S
C1575 C1574 1.355 . S
C1575 C1577 1.419 . S
C1576 C1574 1.415 . S
C1576 C1581 1.425 . S
C1576 C1583 1.409 . S
C1577 H1569 0.930 . S
C1577 C1575 1.419 . S
C1577 C1578 1.362 . S
C1578 H1570 0.930 . S
C1578 C1577 1.362 . S
C1578 C1581 1.409 . S
C1579 H1571 0.930 . S
C1579 C1580 1.355 . S
C1579 C1581 1.415 . S
C1580 C1579 1.355 . S
C1580 C1582 1.419 . S
C1581 C1576 1.425 . S
C1581 C1578 1.409 . S
C1581 C1579 1.415 . S
C1582 H1572 0.930 . S
C1582 C1580 1.419 . S
C1582 C1583 1.362 . S
C1583 H1573 0.930 . S
C1583 C1576 1.409 . S
C1583 C1582 1.362 . S
H1584 C1590 0.930 . S
H1585 C1593 0.930 . S
H1586 C1594 0.930 . S
H1587 C1595 0.930 . S
H1588 C1598 0.930 . S
H1589 C1599 0.930 . S
C1590 H1584 0.930 . S
C1590 C1591 1.355 . S
C1590 C1592 1.415 . S
C1591 C1590 1.355 . S
C1591 C1593 1.419 . S
C1592 C1590 1.415 . S
C1592 C1597 1.425 . S
C1592 C1599 1.409 . S
C1593 H1585 0.930 . S
C1593 C1591 1.419 . S
C1593 C1594 1.362 . S
C1594 H1586 0.930 . S
C1594 C1593 1.362 . S
C1594 C1597 1.409 . S
C1595 H1587 0.930 . S
C1595 C1596 1.355 . S
C1595 C1597 1.415 . S
C1596 C1595 1.355 . S
C1596 C1598 1.419 . S
C1597 C1592 1.425 . S
C1597 C1594 1.409 . S
C1597 C1595 1.415 . S
C1598 H1588 0.930 . S
C1598 C1596 1.419 . S
C1598 C1599 1.362 . S
C1599 H1589 0.930 . S
C1599 C1592 1.409 . S
C1599 C1598 1.362 . S
H1600 C1606 0.930 . S
H1601 C1609 0.930 . S
H1602 C1610 0.930 . S
H1603 C1611 0.930 . S
H1604 C1614 0.930 . S
H1605 C1615 0.930 . S
C1606 H1600 0.930 . S
C1606 C1607 1.355 . S
C1606 C1608 1.415 . S
C1607 C1606 1.355 . S
C1607 C1609 1.419 . S
C1608 C1606 1.415 . S
C1608 C1613 1.425 . S
C1608 C1615 1.409 . S
C1609 H1601 0.930 . S
C1609 C1607 1.419 . S
C1609 C1610 1.362 . S
C1610 H1602 0.930 . S
C1610 C1609 1.362 . S
C1610 C1613 1.409 . S
C1611 H1603 0.930 . S
C1611 C1612 1.355 . S
C1611 C1613 1.415 . S
C1612 C1611 1.355 . S
C1612 C1614 1.419 . S
C1613 C1608 1.425 . S
C1613 C1610 1.409 . S
C1613 C1611 1.415 . S
C1614 H1604 0.930 . S
C1614 C1612 1.419 . S
C1614 C1615 1.362 . S
C1615 H1605 0.930 . S
C1615 C1608 1.409 . S
C1615 C1614 1.362 . S
H1616 C1622 0.930 . S
H1617 C1625 0.930 . S
H1618 C1626 0.930 . S
H1619 C1627 0.930 . S
H1620 C1630 0.930 . S
H1621 C1631 0.930 . S
C1622 H1616 0.930 . S
C1622 C1623 1.355 . S
C1622 C1624 1.415 . S
C1623 C1622 1.355 . S
C1623 C1625 1.419 . S
C1624 C1622 1.415 . S
C1624 C1629 1.425 . S
C1624 C1631 1.409 . S
C1625 H1617 0.930 . S
C1625 C1623 1.419 . S
C1625 C1626 1.362 . S
C1626 H1618 0.930 . S
C1626 C1625 1.362 . S
C1626 C1629 1.409 . S
C1627 H1619 0.930 . S
C1627 C1628 1.355 . S
C1627 C1629 1.415 . S
C1628 C1627 1.355 . S
C1628 C1630 1.419 . S
C1629 C1624 1.425 . S
C1629 C1626 1.409 . S
C1629 C1627 1.415 . S
C1630 H1620 0.930 . S
C1630 C1628 1.419 . S
C1630 C1631 1.362 . S
C1631 H1621 0.930 . S
C1631 C1624 1.409 . S
C1631 C1630 1.362 . S
H1632 C1638 0.930 . S
H1633 C1641 0.930 . S
H1634 C1642 0.930 . S
H1635 C1643 0.930 . S
H1636 C1646 0.930 . S
H1637 C1647 0.930 . S
C1638 H1632 0.930 . S
C1638 C1639 1.355 . S
C1638 C1640 1.415 1_565 S
C1639 C1638 1.355 . S
C1639 C1641 1.419 . S
C1640 C1638 1.415 1_545 S
C1640 C1645 1.425 . S
C1640 C1647 1.409 . S
C1641 H1633 0.930 . S
C1641 C1639 1.419 . S
C1641 C1642 1.362 1_565 S
C1642 H1634 0.930 . S
C1642 C1641 1.362 1_545 S
C1642 C1645 1.409 . S
C1643 H1635 0.930 . S
C1643 C1644 1.355 . S
C1643 C1645 1.415 . S
C1644 C1643 1.355 . S
C1644 C1646 1.419 . S
C1645 C1640 1.425 . S
C1645 C1642 1.409 . S
C1645 C1643 1.415 . S
C1646 H1636 0.930 . S
C1646 C1644 1.419 . S
C1646 C1647 1.362 . S
C1647 H1637 0.930 . S
C1647 C1640 1.409 . S
C1647 C1646 1.362 . S
H1648 C1654 0.930 . S
H1649 C1657 0.930 . S
H1650 C1658 0.930 . S
H1651 C1659 0.930 . S
H1652 C1662 0.930 . S
H1653 C1663 0.930 . S
C1654 H1648 0.930 . S
C1654 C1655 1.355 . S
C1654 C1656 1.415 . S
C1655 C1654 1.355 . S
C1655 C1657 1.419 . S
C1656 C1654 1.415 . S
C1656 C1661 1.425 . S
C1656 C1663 1.409 . S
C1657 H1649 0.930 . S
C1657 C1655 1.419 . S
C1657 C1658 1.362 . S
C1658 H1650 0.930 . S
C1658 C1657 1.362 . S
C1658 C1661 1.409 . S
C1659 H1651 0.930 . S
C1659 C1660 1.355 . S
C1659 C1661 1.415 . S
C1660 C1659 1.355 . S
C1660 C1662 1.419 . S
C1661 C1656 1.425 . S
C1661 C1658 1.409 . S
C1661 C1659 1.415 . S
C1662 H1652 0.930 . S
C1662 C1660 1.419 . S
C1662 C1663 1.362 . S
C1663 H1653 0.930 . S
C1663 C1656 1.409 . S
C1663 C1662 1.362 . S
H1664 C1670 0.930 . S
H1665 C1673 0.930 . S
H1666 C1674 0.930 . S
H1667 C1675 0.930 . S
H1668 C1678 0.930 . S
H1669 C1679 0.930 . S
C1670 H1664 0.930 . S
C1670 C1671 1.355 . S
C1670 C1672 1.415 . S
C1671 C1670 1.355 . S
C1671 C1673 1.419 . S
C1672 C1670 1.415 . S
C1672 C1677 1.425 . S
C1672 C1679 1.409 . S
C1673 H1665 0.930 . S
C1673 C1671 1.419 . S
C1673 C1674 1.362 . S
C1674 H1666 0.930 . S
C1674 C1673 1.362 . S
C1674 C1677 1.409 . S
C1675 H1667 0.930 . S
C1675 C1676 1.355 . S
C1675 C1677 1.415 . S
C1676 C1675 1.355 . S
C1676 C1678 1.419 . S
C1677 C1672 1.425 . S
C1677 C1674 1.409 . S
C1677 C1675 1.415 . S
C1678 H1668 0.930 . S
C1678 C1676 1.419 . S
C1678 C1679 1.362 . S
C1679 H1669 0.930 . S
C1679 C1672 1.409 . S
C1679 C1678 1.362 . S
H1680 C1686 0.930 . S
H1681 C1689 0.930 . S
H1682 C1690 0.930 . S
H1683 C1691 0.930 . S
H1684 C1694 0.930 . S
H1685 C1695 0.930 . S
C1686 H1680 0.930 . S
C1686 C1687 1.355 . S
C1686 C1688 1.415 . S
C1687 C1686 1.355 . S
C1687 C1689 1.419 . S
C1688 C1686 1.415 . S
C1688 C1693 1.425 . S
C1688 C1695 1.409 . S
C1689 H1681 0.930 . S
C1689 C1687 1.419 . S
C1689 C1690 1.362 . S
C1690 H1682 0.930 . S
C1690 C1689 1.362 . S
C1690 C1693 1.409 . S
C1691 H1683 0.930 . S
C1691 C1692 1.355 . S
C1691 C1693 1.415 . S
C1692 C1691 1.355 . S
C1692 C1694 1.419 . S
C1693 C1688 1.425 . S
C1693 C1690 1.409 . S
C1693 C1691 1.415 . S
C1694 H1684 0.930 . S
C1694 C1692 1.419 . S
C1694 C1695 1.362 . S
C1695 H1685 0.930 . S
C1695 C1688 1.409 . S
C1695 C1694 1.362 . S
H1696 C1702 0.935 . S
H1697 C1705 0.930 . S
H1698 C1706 0.930 . S
H1699 C1707 0.930 . S
H1700 C1710 0.930 . S
H1701 C1711 0.930 . S
C1702 H1696 0.935 . S
C1702 C1703 1.312 1_545 S
C1702 C1704 1.454 . S
C1703 C1702 1.312 1_565 S
C1703 C1705 1.419 . S
C1704 C1702 1.454 . S
C1704 C1709 1.425 . S
C1704 C1711 1.409 . S
C1705 H1697 0.930 . S
C1705 C1703 1.419 . S
C1705 C1706 1.362 . S
C1706 H1698 0.930 . S
C1706 C1705 1.362 . S
C1706 C1709 1.409 1_565 S
C1707 H1699 0.930 . S
C1707 C1708 1.355 . S
C1707 C1709 1.415 . S
C1708 C1707 1.355 . S
C1708 C1710 1.419 . S
C1709 C1704 1.425 . S
C1709 C1706 1.409 1_545 S
C1709 C1707 1.415 . S
C1710 H1700 0.930 . S
C1710 C1708 1.419 . S
C1710 C1711 1.362 . S
C1711 H1701 0.930 . S
C1711 C1704 1.409 . S
C1711 C1710 1.362 . S
H1712 C1718 0.930 . S
H1713 C1721 0.930 . S
H1714 C1722 0.930 . S
H1715 C1723 0.930 . S
H1716 C1726 0.930 . S
H1717 C1727 0.930 . S
C1718 H1712 0.930 . S
C1718 C1719 1.355 . S
C1718 C1720 1.415 . S
C1719 C1718 1.355 . S
C1719 C1721 1.419 . S
C1720 C1718 1.415 . S
C1720 C1725 1.425 . S
C1720 C1727 1.409 . S
C1721 H1713 0.930 . S
C1721 C1719 1.419 . S
C1721 C1722 1.362 . S
C1722 H1714 0.930 . S
C1722 C1721 1.362 . S
C1722 C1725 1.409 . S
C1723 H1715 0.930 . S
C1723 C1724 1.355 . S
C1723 C1725 1.415 . S
C1724 C1723 1.355 . S
C1724 C1726 1.419 . S
C1725 C1720 1.425 . S
C1725 C1722 1.409 . S
C1725 C1723 1.415 . S
C1726 H1716 0.930 . S
C1726 C1724 1.419 . S
C1726 C1727 1.362 . S
C1727 H1717 0.930 . S
C1727 C1720 1.409 . S
C1727 C1726 1.362 . S
H1728 C1734 0.930 . S
H1729 C1737 0.930 . S
H1730 C1738 0.930 . S
H1731 C1739 0.930 . S
H1732 C1742 0.930 . S
H1733 C1743 0.930 . S
C1734 H1728 0.930 . S
C1734 C1735 1.355 . S
C1734 C1736 1.415 . S
C1735 C1734 1.355 . S
C1735 C1737 1.419 . S
C1736 C1734 1.415 . S
C1736 C1741 1.425 . S
C1736 C1743 1.409 . S
C1737 H1729 0.930 . S
C1737 C1735 1.419 . S
C1737 C1738 1.362 . S
C1738 H1730 0.930 . S
C1738 C1737 1.362 . S
C1738 C1741 1.409 . S
C1739 H1731 0.930 . S
C1739 C1740 1.355 . S
C1739 C1741 1.415 . S
C1740 C1739 1.355 . S
C1740 C1742 1.419 . S
C1741 C1736 1.425 . S
C1741 C1738 1.409 . S
C1741 C1739 1.415 . S
C1742 H1732 0.930 . S
C1742 C1740 1.419 . S
C1742 C1743 1.362 . S
C1743 H1733 0.930 . S
C1743 C1736 1.409 . S
C1743 C1742 1.362 . S
H1744 C1750 0.930 . S
H1745 C1753 0.930 . S
H1746 C1754 0.930 . S
H1747 C1755 0.930 . S
H1748 C1758 0.930 . S
H1749 C1759 0.930 . S
C1750 H1744 0.930 . S
C1750 C1751 1.355 . S
C1750 C1752 1.415 . S
C1751 C1750 1.355 . S
C1751 C1753 1.419 . S
C1752 C1750 1.415 . S
C1752 C1757 1.425 . S
C1752 C1759 1.409 . S
C1753 H1745 0.930 . S
C1753 C1751 1.419 . S
C1753 C1754 1.362 . S
C1754 H1746 0.930 . S
C1754 C1753 1.362 . S
C1754 C1757 1.409 . S
C1755 H1747 0.930 . S
C1755 C1756 1.355 . S
C1755 C1757 1.415 . S
C1756 C1755 1.355 . S
C1756 C1758 1.419 . S
C1757 C1752 1.425 . S
C1757 C1754 1.409 . S
C1757 C1755 1.415 . S
C1758 H1748 0.930 . S
C1758 C1756 1.419 . S
C1758 C1759 1.362 . S
C1759 H1749 0.930 . S
C1759 C1752 1.409 . S
C1759 C1758 1.362 . S
H1760 C1766 0.930 . S
H1761 C1769 0.930 . S
H1762 C1770 0.930 . S
H1763 C1771 0.930 . S
H1764 C1774 0.930 . S
H1765 C1775 0.930 . S
C1766 H1760 0.930 . S
C1766 C1767 1.355 . S
C1766 C1768 1.415 . S
C1767 C1766 1.355 . S
C1767 C1769 1.419 . S
C1768 C1766 1.415 . S
C1768 C1773 1.425 . S
C1768 C1775 1.409 . S
C1769 H1761 0.930 . S
C1769 C1767 1.419 . S
C1769 C1770 1.362 . S
C1770 H1762 0.930 . S
C1770 C1769 1.362 . S
C1770 C1773 1.409 . S
C1771 H1763 0.930 . S
C1771 C1772 1.355 . S
C1771 C1773 1.415 . S
C1772 C1771 1.355 . S
C1772 C1774 1.419 . S
C1773 C1768 1.425 . S
C1773 C1770 1.409 . S
C1773 C1771 1.415 . S
C1774 H1764 0.930 . S
C1774 C1772 1.419 . S
C1774 C1775 1.362 . S
C1775 H1765 0.930 . S
C1775 C1768 1.409 . S
C1775 C1774 1.362 . S
H1776 C1782 0.930 . S
H1777 C1785 0.930 . S
H1778 C1786 0.930 . S
H1779 C1787 0.930 . S
H1780 C1790 0.930 . S
H1781 C1791 0.930 . S
C1782 H1776 0.930 . S
C1782 C1783 1.355 . S
C1782 C1784 1.415 . S
C1783 C1782 1.355 . S
C1783 C1785 1.419 . S
C1784 C1782 1.415 . S
C1784 C1789 1.425 . S
C1784 C1791 1.409 . S
C1785 H1777 0.930 . S
C1785 C1783 1.419 . S
C1785 C1786 1.362 . S
C1786 H1778 0.930 . S
C1786 C1785 1.362 . S
C1786 C1789 1.409 . S
C1787 H1779 0.930 . S
C1787 C1788 1.355 . S
C1787 C1789 1.415 . S
C1788 C1787 1.355 . S
C1788 C1790 1.419 . S
C1789 C1784 1.425 . S
C1789 C1786 1.409 . S
C1789 C1787 1.415 . S
C1790 H1780 0.930 . S
C1790 C1788 1.419 . S
C1790 C1791 1.362 . S
C1791 H1781 0.930 . S
C1791 C1784 1.409 . S
C1791 C1790 1.362 . S
H1792 C1798 0.930 . S
H1793 C1801 0.930 . S
H1794 C1802 0.930 . S
H1795 C1803 0.930 . S
H1796 C1806 0.930 . S
H1797 C1807 0.930 . S
C1798 H1792 0.930 . S
C1798 C1799 1.355 . S
C1798 C1800 1.415 . S
C1799 C1798 1.355 . S
C1799 C1801 1.419 . S
C1800 C1798 1.415 . S
C1800 C1805 1.425 . S
C1800 C1807 1.409 . S
C1801 H1793 0.930 . S
C1801 C1799 1.419 . S
C1801 C1802 1.362 . S
C1802 H1794 0.930 . S
C1802 C1801 1.362 . S
C1802 C1805 1.409 . S
C1803 H1795 0.930 . S
C1803 C1804 1.355 . S
C1803 C1805 1.415 . S
C1804 C1803 1.355 . S
C1804 C1806 1.419 . S
C1805 C1800 1.425 . S
C1805 C1802 1.409 . S
C1805 C1803 1.415 . S
C1806 H1796 0.930 . S
C1806 C1804 1.419 . S
C1806 C1807 1.362 . S
C1807 H1797 0.930 . S
C1807 C1800 1.409 . S
C1807 C1806 1.362 . S
H1808 C1814 0.929 . S
H1809 C1817 0.930 . S
H1810 C1818 0.932 . S
H1811 C1819 0.930 . S
H1812 C1822 0.930 . S
H1813 C1823 0.930 . S
C1814 H1808 0.929 . S
C1814 C1815 1.369 . S
C1814 C1816 1.400 1_455 S
C1815 C1814 1.369 . S
C1815 C1817 1.419 . S
C1816 C1814 1.400 1_655 S
C1816 C1821 1.425 . S
C1816 C1823 1.409 . S
C1817 H1809 0.930 . S
C1817 C1815 1.419 . S
C1817 C1818 1.390 . S
C1818 H1810 0.932 . S
C1818 C1817 1.390 . S
C1818 C1821 1.380 1_455 S
C1819 H1811 0.930 . S
C1819 C1820 1.355 . S
C1819 C1821 1.415 . S
C1820 C1819 1.355 . S
C1820 C1822 1.419 . S
C1821 C1816 1.425 . S
C1821 C1818 1.380 1_655 S
C1821 C1819 1.415 . S
C1822 H1812 0.930 . S
C1822 C1820 1.419 . S
C1822 C1823 1.362 . S
C1823 H1813 0.930 . S
C1823 C1816 1.409 . S
C1823 C1822 1.362 . S
H1824 C1830 0.930 . S
H1825 C1833 0.930 . S
H1826 C1834 0.930 . S
H1827 C1835 0.930 . S
H1828 C1838 0.930 . S
H1829 C1839 0.930 . S
C1830 H1824 0.930 . S
C1830 C1831 1.355 . S
C1830 C1832 1.415 . S
C1831 C1830 1.355 . S
C1831 C1833 1.419 . S
C1832 C1830 1.415 . S
C1832 C1837 1.425 . S
C1832 C1839 1.409 . S
C1833 H1825 0.930 . S
C1833 C1831 1.419 . S
C1833 C1834 1.362 . S
C1834 H1826 0.930 . S
C1834 C1833 1.362 . S
C1834 C1837 1.409 . S
C1835 H1827 0.930 . S
C1835 C1836 1.355 . S
C1835 C1837 1.415 . S
C1836 C1835 1.355 . S
C1836 C1838 1.419 . S
C1837 C1832 1.425 . S
C1837 C1834 1.409 . S
C1837 C1835 1.415 . S
C1838 H1828 0.930 . S
C1838 C1836 1.419 . S
C1838 C1839 1.362 . S
C1839 H1829 0.930 . S
C1839 C1832 1.409 . S
C1839 C1838 1.362 . S
H1840 C1846 0.930 . S
H1841 C1849 0.930 . S
H1842 C1850 0.930 . S
H1843 C1851 0.930 . S
H1844 C1854 0.930 . S
H1845 C1855 0.930 . S
C1846 H1840 0.930 . S
C1846 C1847 1.355 . S
C1846 C1848 1.415 . S
C1847 C1846 1.355 . S
C1847 C1849 1.419 . S
C1848 C1846 1.415 . S
C1848 C1853 1.425 . S
C1848 C1855 1.409 . S
C1849 H1841 0.930 . S
C1849 C1847 1.419 . S
C1849 C1850 1.362 . S
C1850 H1842 0.930 . S
C1850 C1849 1.362 . S
C1850 C1853 1.409 . S
C1851 H1843 0.930 . S
C1851 C1852 1.355 . S
C1851 C1853 1.415 . S
C1852 C1851 1.355 . S
C1852 C1854 1.419 . S
C1853 C1848 1.425 . S
C1853 C1850 1.409 . S
C1853 C1851 1.415 . S
C1854 H1844 0.930 . S
C1854 C1852 1.419 . S
C1854 C1855 1.362 . S
C1855 H1845 0.930 . S
C1855 C1848 1.409 . S
C1855 C1854 1.362 . S
H1856 C1862 0.930 . S
H1857 C1865 0.930 . S
H1858 C1866 0.930 . S
H1859 C1867 0.930 . S
H1860 C1870 0.930 . S
H1861 C1871 0.930 . S
C1862 H1856 0.930 . S
C1862 C1863 1.355 . S
C1862 C1864 1.415 . S
C1863 C1862 1.355 . S
C1863 C1865 1.419 . S
C1864 C1862 1.415 . S
C1864 C1869 1.425 . S
C1864 C1871 1.409 . S
C1865 H1857 0.930 . S
C1865 C1863 1.419 . S
C1865 C1866 1.362 . S
C1866 H1858 0.930 . S
C1866 C1865 1.362 . S
C1866 C1869 1.409 . S
C1867 H1859 0.930 . S
C1867 C1868 1.355 . S
C1867 C1869 1.415 . S
C1868 C1867 1.355 . S
C1868 C1870 1.419 . S
C1869 C1864 1.425 . S
C1869 C1866 1.409 . S
C1869 C1867 1.415 . S
C1870 H1860 0.930 . S
C1870 C1868 1.419 . S
C1870 C1871 1.362 . S
C1871 H1861 0.930 . S
C1871 C1864 1.409 . S
C1871 C1870 1.362 . S
H1872 C1878 0.930 . S
H1873 C1881 0.930 . S
H1874 C1882 0.930 . S
H1875 C1883 0.930 . S
H1876 C1886 0.930 . S
H1877 C1887 0.930 . S
C1878 H1872 0.930 . S
C1878 C1879 1.355 . S
C1878 C1880 1.415 . S
C1879 C1878 1.355 . S
C1879 C1881 1.419 . S
C1880 C1878 1.415 . S
C1880 C1885 1.425 . S
C1880 C1887 1.409 . S
C1881 H1873 0.930 . S
C1881 C1879 1.419 . S
C1881 C1882 1.362 . S
C1882 H1874 0.930 . S
C1882 C1881 1.362 . S
C1882 C1885 1.409 . S
C1883 H1875 0.930 . S
C1883 C1884 1.355 . S
C1883 C1885 1.415 . S
C1884 C1883 1.355 . S
C1884 C1886 1.419 . S
C1885 C1880 1.425 . S
C1885 C1882 1.409 . S
C1885 C1883 1.415 . S
C1886 H1876 0.930 . S
C1886 C1884 1.419 . S
C1886 C1887 1.362 . S
C1887 H1877 0.930 . S
C1887 C1880 1.409 . S
C1887 C1886 1.362 . S
H1888 C1894 0.930 . S
H1889 C1897 0.930 . S
H1890 C1898 0.930 . S
H1891 C1899 0.930 . S
H1892 C1902 0.930 . S
H1893 C1903 0.930 . S
C1894 H1888 0.930 . S
C1894 C1895 1.355 . S
C1894 C1896 1.415 . S
C1895 C1894 1.355 . S
C1895 C1897 1.419 . S
C1896 C1894 1.415 . S
C1896 C1901 1.425 . S
C1896 C1903 1.409 . S
C1897 H1889 0.930 . S
C1897 C1895 1.419 . S
C1897 C1898 1.362 . S
C1898 H1890 0.930 . S
C1898 C1897 1.362 . S
C1898 C1901 1.409 . S
C1899 H1891 0.930 . S
C1899 C1900 1.355 . S
C1899 C1901 1.415 . S
C1900 C1899 1.355 . S
C1900 C1902 1.419 . S
C1901 C1896 1.425 . S
C1901 C1898 1.409 . S
C1901 C1899 1.415 . S
C1902 H1892 0.930 . S
C1902 C1900 1.419 . S
C1902 C1903 1.362 . S
C1903 H1893 0.930 . S
C1903 C1896 1.409 . S
C1903 C1902 1.362 . S
H1904 C1910 0.930 . S
H1905 C1913 0.930 . S
H1906 C1914 0.930 . S
H1907 C1915 0.930 . S
H1908 C1918 0.930 . S
H1909 C1919 0.930 . S
C1910 H1904 0.930 . S
C1910 C1911 1.355 . S
C1910 C1912 1.415 . S
C1911 C1910 1.355 . S
C1911 C1913 1.419 . S
C1912 C1910 1.415 . S
C1912 C1917 1.425 . S
C1912 C1919 1.409 . S
C1913 H1905 0.930 . S
C1913 C1911 1.419 . S
C1913 C1914 1.362 . S
C1914 H1906 0.930 . S
C1914 C1913 1.362 . S
C1914 C1917 1.409 . S
C1915 H1907 0.930 . S
C1915 C1916 1.355 . S
C1915 C1917 1.415 . S
C1916 C1915 1.355 . S
C1916 C1918 1.419 . S
C1917 C1912 1.425 . S
C1917 C1914 1.409 . S
C1917 C1915 1.415 . S
C1918 H1908 0.930 . S
C1918 C1916 1.419 . S
C1918 C1919 1.362 . S
C1919 H1909 0.930 . S
C1919 C1912 1.409 . S
C1919 C1918 1.362 . S
H1920 C1926 0.930 . S
H1921 C1929 0.930 . S
H1922 C1930 0.930 . S
H1923 C1931 0.930 . S
H1924 C1934 0.930 . S
H1925 C1935 0.930 . S
C1926 H1920 0.930 . S
C1926 C1927 1.355 . S
C1926 C1928 1.415 . S
C1927 C1926 1.355 . S
C1927 C1929 1.419 . S
C1928 C1926 1.415 . S
C1928 C1933 1.425 . S
C1928 C1935 1.409 . S
C1929 H1921 0.930 . S
C1929 C1927 1.419 . S
C1929 C1930 1.362 . S
C1930 H1922 0.930 . S
C1930 C1929 1.362 . S
C1930 C1933 1.409 . S
C1931 H1923 0.930 . S
C1931 C1932 1.355 . S
C1931 C1933 1.415 . S
C1932 C1931 1.355 . S
C1932 C1934 1.419 . S
C1933 C1928 1.425 . S
C1933 C1930 1.409 . S
C1933 C1931 1.415 . S
C1934 H1924 0.930 . S
C1934 C1932 1.419 . S
C1934 C1935 1.362 . S
C1935 H1925 0.930 . S
C1935 C1928 1.409 . S
C1935 C1934 1.362 . S
H1936 C1942 0.930 . S
H1937 C1945 0.930 . S
H1938 C1946 0.930 . S
H1939 C1947 0.930 . S
H1940 C1950 0.930 . S
H1941 C1951 0.930 . S
C1942 H1936 0.930 . S
C1942 C1943 1.355 . S
C1942 C1944 1.415 . S
C1943 C1942 1.355 . S
C1943 C1945 1.419 . S
C1944 C1942 1.415 . S
C1944 C1949 1.425 . S
C1944 C1951 1.409 . S
C1945 H1937 0.930 . S
C1945 C1943 1.419 . S
C1945 C1946 1.362 . S
C1946 H1938 0.930 . S
C1946 C1945 1.362 . S
C1946 C1949 1.409 . S
C1947 H1939 0.930 . S
C1947 C1948 1.355 . S
C1947 C1949 1.415 . S
C1948 C1947 1.355 . S
C1948 C1950 1.419 . S
C1949 C1944 1.425 . S
C1949 C1946 1.409 . S
C1949 C1947 1.415 . S
C1950 H1940 0.930 . S
C1950 C1948 1.419 . S
C1950 C1951 1.362 . S
C1951 H1941 0.930 . S
C1951 C1944 1.409 . S
C1951 C1950 1.362 . S
H1952 C1958 0.930 . S
H1953 C1961 0.930 . S
H1954 C1962 0.930 . S
H1955 C1963 0.930 . S
H1956 C1966 0.930 . S
H1957 C1967 0.930 . S
C1958 H1952 0.930 . S
C1958 C1959 1.355 . S
C1958 C1960 1.415 . S
C1959 C1958 1.355 . S
C1959 C1961 1.419 . S
C1960 C1958 1.415 . S
C1960 C1965 1.425 . S
C1960 C1967 1.409 . S
C1961 H1953 0.930 . S
C1961 C1959 1.419 . S
C1961 C1962 1.362 . S
C1962 H1954 0.930 . S
C1962 C1961 1.362 . S
C1962 C1965 1.409 . S
C1963 H1955 0.930 . S
C1963 C1964 1.355 . S
C1963 C1965 1.415 . S
C1964 C1963 1.355 . S
C1964 C1966 1.419 . S
C1965 C1960 1.425 . S
C1965 C1962 1.409 . S
C1965 C1963 1.415 . S
C1966 H1956 0.930 . S
C1966 C1964 1.419 . S
C1966 C1967 1.362 . S
C1967 H1957 0.930 . S
C1967 C1960 1.409 . S
C1967 C1966 1.362 . S
H1968 C1974 0.930 . S
H1969 C1977 0.930 . S
H1970 C1978 0.930 . S
H1971 C1979 0.930 . S
H1972 C1982 0.930 . S
H1973 C1983 0.930 . S
C1974 H1968 0.930 . S
C1974 C1975 1.355 . S
C1974 C1976 1.415 . S
C1975 C1974 1.355 . S
C1975 C1977 1.419 . S
C1976 C1974 1.415 . S
C1976 C1981 1.425 . S
C1976 C1983 1.409 . S
C1977 H1969 0.930 . S
C1977 C1975 1.419 . S
C1977 C1978 1.362 . S
C1978 H1970 0.930 . S
C1978 C1977 1.362 . S
C1978 C1981 1.409 . S
C1979 H1971 0.930 . S
C1979 C1980 1.355 . S
C1979 C1981 1.415 . S
C1980 C1979 1.355 . S
C1980 C1982 1.419 . S
C1981 C1976 1.425 . S
C1981 C1978 1.409 . S
C1981 C1979 1.415 . S
C1982 H1972 0.930 . S
C1982 C1980 1.419 . S
C1982 C1983 1.362 . S
C1983 H1973 0.930 . S
C1983 C1976 1.409 . S
C1983 C1982 1.362 . S
H1984 C1990 0.930 . S
H1985 C1993 0.930 . S
H1986 C1994 0.930 . S
H1987 C1995 0.930 . S
H1988 C1998 0.930 . S
H1989 C1999 0.930 . S
C1990 H1984 0.930 . S
C1990 C1991 1.355 . S
C1990 C1992 1.415 . S
C1991 C1990 1.355 . S
C1991 C1993 1.419 . S
C1992 C1990 1.415 . S
C1992 C1997 1.425 . S
C1992 C1999 1.409 . S
C1993 H1985 0.930 . S
C1993 C1991 1.419 . S
C1993 C1994 1.362 . S
C1994 H1986 0.930 . S
C1994 C1993 1.362 . S
C1994 C1997 1.409 . S
C1995 H1987 0.930 . S
C1995 C1996 1.355 . S
C1995 C1997 1.415 . S
C1996 C1995 1.355 . S
C1996 C1998 1.419 . S
C1997 C1992 1.425 . S
C1997 C1994 1.409 . S
C1997 C1995 1.415 . S
C1998 H1988 0.930 . S
C1998 C1996 1.419 . S
C1998 C1999 1.362 . S
C1999 H1989 0.930 . S
C1999 C1992 1.409 . S
C1999 C1998 1.362 . S
H2000 C2006 0.930 . S
H2001 C2009 0.930 . S
H2002 C2010 0.930 . S
H2003 C2011 0.930 . S
H2004 C2014 0.930 . S
H2005 C2015 0.930 . S
C2006 H2000 0.930 . S
C2006 C2007 1.355 . S
C2006 C2008 1.415 . S
C2007 C2006 1.355 . S
C2007 C2009 1.419 . S
C2008 C2006 1.415 . S
C2008 C2013 1.425 . S
C2008 C2015 1.409 . S
C2009 H2001 0.930 . S
C2009 C2007 1.419 . S
C2009 C2010 1.362 . S
C2010 H2002 0.930 . S
C2010 C2009 1.362 . S
C2010 C2013 1.409 . S
C2011 H2003 0.930 . S
C2011 C2012 1.355 . S
C2011 C2013 1.415 . S
C2012 C2011 1.355 . S
C2012 C2014 1.419 . S
C2013 C2008 1.425 . S
C2013 C2010 1.409 . S
C2013 C2011 1.415 . S
C2014 H2004 0.930 . S
C2014 C2012 1.419 . S
C2014 C2015 1.362 . S
C2015 H2005 0.930 . S
C2015 C2008 1.409 . S
C2015 C2014 1.362 . S
H2016 C2022 0.930 . S
H2017 C2025 0.930 . S
H2018 C2026 0.930 . S
H2019 C2027 0.930 . S
H2020 C2030 0.930 . S
H2021 C2031 0.930 . S
C2022 H2016 0.930 . S
C2022 C2023 1.355 . S
C2022 C2024 1.415 . S
C2023 C2022 1.355 . S
C2023 C2025 1.419 . S
C2024 C2022 1.415 . S
C2024 C2029 1.425 . S
C2024 C2031 1.409 . S
C2025 H2017 0.930 . S
C2025 C2023 1.419 . S
C2025 C2026 1.362 . S
C2026 H2018 0.930 . S
C2026 C2025 1.362 . S
C2026 C2029 1.409 . S
C2027 H2019 0.930 . S
C2027 C2028 1.355 . S
C2027 C2029 1.415 . S
C2028 C2027 1.355 . S
C2028 C2030 1.419 . S
C2029 C2024 1.425 . S
C2029 C2026 1.409 . S
C2029 C2027 1.415 . S
C2030 H2020 0.930 . S
C2030 C2028 1.419 . S
C2030 C2031 1.362 . S
C2031 H2021 0.930 . S
C2031 C2024 1.409 . S
C2031 C2030 1.362 . S
H2032 C2038 0.930 . S
H2033 C2041 0.930 . S
H2034 C2042 0.930 . S
H2035 C2043 0.930 . S
H2036 C2046 0.930 . S
H2037 C2047 0.930 . S
C2038 H2032 0.930 . S
C2038 C2039 1.355 . S
C2038 C2040 1.415 . S
C2039 C2038 1.355 . S
C2039 C2041 1.419 . S
C2040 C2038 1.415 . S
C2040 C2045 1.425 . S
C2040 C2047 1.409 . S
C2041 H2033 0.930 . S
C2041 C2039 1.419 . S
C2041 C2042 1.362 . S
C2042 H2034 0.930 . S
C2042 C2041 1.362 . S
C2042 C2045 1.409 . S
C2043 H2035 0.930 . S
C2043 C2044 1.355 . S
C2043 C2045 1.415 . S
C2044 C2043 1.355 . S
C2044 C2046 1.419 . S
C2045 C2040 1.425 . S
C2045 C2042 1.409 . S
C2045 C2043 1.415 . S
C2046 H2036 0.930 . S
C2046 C2044 1.419 . S
C2046 C2047 1.362 . S
C2047 H2037 0.930 . S
C2047 C2040 1.409 . S
C2047 C2046 1.362 . S
H2048 C2054 0.930 . S
H2049 C2057 0.930 . S
H2050 C2058 0.930 . S
H2051 C2059 0.930 . S
H2052 C2062 0.930 . S
H2053 C2063 0.930 . S
C2054 H2048 0.930 . S
C2054 C2055 1.355 . S
C2054 C2056 1.415 . S
C2055 C2054 1.355 . S
C2055 C2057 1.419 . S
C2056 C2054 1.415 . S
C2056 C2061 1.425 . S
C2056 C2063 1.409 . S
C2057 H2049 0.930 . S
C2057 C2055 1.419 . S
C2057 C2058 1.362 . S
C2058 H2050 0.930 . S
C2058 C2057 1.362 . S
C2058 C2061 1.409 . S
C2059 H2051 0.930 . S
C2059 C2060 1.355 . S
C2059 C2061 1.415 . S
C2060 C2059 1.355 . S
C2060 C2062 1.419 . S
C2061 C2056 1.425 . S
C2061 C2058 1.409 . S
C2061 C2059 1.415 . S
C2062 H2052 0.930 . S
C2062 C2060 1.419 . S
C2062 C2063 1.362 . S
C2063 H2053 0.930 . S
C2063 C2056 1.409 . S
C2063 C2062 1.362 . S
H2064 C2070 0.930 . S
H2065 C2073 0.930 . S
H2066 C2074 0.930 . S
H2067 C2075 0.930 . S
H2068 C2078 0.930 . S
H2069 C2079 0.930 . S
C2070 H2064 0.930 . S
C2070 C2071 1.355 . S
C2070 C2072 1.415 . S
C2071 C2070 1.355 . S
C2071 C2073 1.419 . S
C2072 C2070 1.415 . S
C2072 C2077 1.425 . S
C2072 C2079 1.409 . S
C2073 H2065 0.930 . S
C2073 C2071 1.419 . S
C2073 C2074 1.362 . S
C2074 H2066 0.930 . S
C2074 C2073 1.362 . S
C2074 C2077 1.409 . S
C2075 H2067 0.930 . S
C2075 C2076 1.355 . S
C2075 C2077 1.415 . S
C2076 C2075 1.355 . S
C2076 C2078 1.419 . S
C2077 C2072 1.425 . S
C2077 C2074 1.409 . S
C2077 C2075 1.415 . S
C2078 H2068 0.930 . S
C2078 C2076 1.419 . S
C2078 C2079 1.362 . S
C2079 H2069 0.930 . S
C2079 C2072 1.409 . S
C2079 C2078 1.362 . S
H2080 C2086 0.930 . S
H2081 C2089 0.930 . S
H2082 C2090 0.930 . S
H2083 C2091 0.930 . S
H2084 C2094 0.930 . S
H2085 C2095 0.930 . S
C2086 H2080 0.930 . S
C2086 C2087 1.355 . S
C2086 C2088 1.415 . S
C2087 C2086 1.355 . S
C2087 C2089 1.419 . S
C2088 C2086 1.415 . S
C2088 C2093 1.425 . S
C2088 C2095 1.409 . S
C2089 H2081 0.930 . S
C2089 C2087 1.419 . S
C2089 C2090 1.362 . S
C2090 H2082 0.930 . S
C2090 C2089 1.362 . S
C2090 C2093 1.409 . S
C2091 H2083 0.930 . S
C2091 C2092 1.355 . S
C2091 C2093 1.415 . S
C2092 C2091 1.355 . S
C2092 C2094 1.419 . S
C2093 C2088 1.425 . S
C2093 C2090 1.409 . S
C2093 C2091 1.415 . S
C2094 H2084 0.930 . S
C2094 C2092 1.419 . S
C2094 C2095 1.362 . S
C2095 H2085 0.930 . S
C2095 C2088 1.409 . S
C2095 C2094 1.362 . S
H2096 C2102 0.930 . S
H2097 C2105 0.930 . S
H2098 C2106 0.930 . S
H2099 C2107 0.930 . S
H2100 C2110 0.930 . S
H2101 C2111 0.930 . S
C2102 H2096 0.930 . S
C2102 C2103 1.355 . S
C2102 C2104 1.415 . S
C2103 C2102 1.355 . S
C2103 C2105 1.419 . S
C2104 C2102 1.415 . S
C2104 C2109 1.425 . S
C2104 C2111 1.409 . S
C2105 H2097 0.930 . S
C2105 C2103 1.419 . S
C2105 C2106 1.362 . S
C2106 H2098 0.930 . S
C2106 C2105 1.362 . S
C2106 C2109 1.409 . S
C2107 H2099 0.930 . S
C2107 C2108 1.355 . S
C2107 C2109 1.415 . S
C2108 C2107 1.355 . S
C2108 C2110 1.419 . S
C2109 C2104 1.425 . S
C2109 C2106 1.409 . S
C2109 C2107 1.415 . S
C2110 H2100 0.930 . S
C2110 C2108 1.419 . S
C2110 C2111 1.362 . S
C2111 H2101 0.930 . S
C2111 C2104 1.409 . S
C2111 C2110 1.362 . S
H2112 C2118 0.930 . S
H2113 C2121 0.930 . S
H2114 C2122 0.930 . S
H2115 C2123 0.930 . S
H2116 C2126 0.930 . S
H2117 C2127 0.930 . S
C2118 H2112 0.930 . S
C2118 C2119 1.355 . S
C2118 C2120 1.415 . S
C2119 C2118 1.355 . S
C2119 C2121 1.419 . S
C2120 C2118 1.415 . S
C2120 C2125 1.425 . S
C2120 C2127 1.409 . S
C2121 H2113 0.930 . S
C2121 C2119 1.419 . S
C2121 C2122 1.362 . S
C2122 H2114 0.930 . S
C2122 C2121 1.362 . S
C2122 C2125 1.409 . S
C2123 H2115 0.930 . S
C2123 C2124 1.355 . S
C2123 C2125 1.415 . S
C2124 C2123 1.355 . S
C2124 C2126 1.419 . S
C2125 C2120 1.425 . S
C2125 C2122 1.409 . S
C2125 C2123 1.415 . S
C2126 H2116 0.930 . S
C2126 C2124 1.419 . S
C2126 C2127 1.362 . S
C2127 H2117 0.930 . S
C2127 C2120 1.409 . S
C2127 C2126 1.362 . S
H2128 C2134 0.930 . S
H2129 C2137 0.930 . S
H2130 C2138 0.930 . S
H2131 C2139 0.930 . S
H2132 C2142 0.930 . S
H2133 C2143 0.930 . S
C2134 H2128 0.930 . S
C2134 C2135 1.355 . S
C2134 C2136 1.415 . S
C2135 C2134 1.355 . S
C2135 C2137 1.419 . S
C2136 C2134 1.415 . S
C2136 C2141 1.425 . S
C2136 C2143 1.409 . S
C2137 H2129 0.930 . S
C2137 C2135 1.419 . S
C2137 C2138 1.362 . S
C2138 H2130 0.930 . S
C2138 C2137 1.362 . S
C2138 C2141 1.409 . S
C2139 H2131 0.930 . S
C2139 C2140 1.355 . S
C2139 C2141 1.415 . S
C2140 C2139 1.355 . S
C2140 C2142 1.419 . S
C2141 C2136 1.425 . S
C2141 C2138 1.409 . S
C2141 C2139 1.415 . S
C2142 H2132 0.930 . S
C2142 C2140 1.419 . S
C2142 C2143 1.362 . S
C2143 H2133 0.930 . S
C2143 C2136 1.409 . S
C2143 C2142 1.362 . S
H2144 C2150 0.930 . S
H2145 C2153 0.930 . S
H2146 C2154 0.930 . S
H2147 C2155 0.930 . S
H2148 C2158 0.930 . S
H2149 C2159 0.930 . S
C2150 H2144 0.930 . S
C2150 C2151 1.355 . S
C2150 C2152 1.415 . S
C2151 C2150 1.355 . S
C2151 C2153 1.419 . S
C2152 C2150 1.415 . S
C2152 C2157 1.425 . S
C2152 C2159 1.409 . S
C2153 H2145 0.930 . S
C2153 C2151 1.419 . S
C2153 C2154 1.362 . S
C2154 H2146 0.930 . S
C2154 C2153 1.362 . S
C2154 C2157 1.409 . S
C2155 H2147 0.930 . S
C2155 C2156 1.355 . S
C2155 C2157 1.415 . S
C2156 C2155 1.355 . S
C2156 C2158 1.419 . S
C2157 C2152 1.425 . S
C2157 C2154 1.409 . S
C2157 C2155 1.415 . S
C2158 H2148 0.930 . S
C2158 C2156 1.419 . S
C2158 C2159 1.362 . S
C2159 H2149 0.930 . S
C2159 C2152 1.409 . S
C2159 C2158 1.362 . S
H2160 C2166 0.930 . S
H2161 C2169 0.930 . S
H2162 C2170 0.930 . S
H2163 C2171 0.930 . S
H2164 C2174 0.930 . S
H2165 C2175 0.930 . S
C2166 H2160 0.930 . S
C2166 C2167 1.355 . S
C2166 C2168 1.415 . S
C2167 C2166 1.355 . S
C2167 C2169 1.419 . S
C2168 C2166 1.415 . S
C2168 C2173 1.425 . S
C2168 C2175 1.409 . S
C2169 H2161 0.930 . S
C2169 C2167 1.419 . S
C2169 C2170 1.362 . S
C2170 H2162 0.930 . S
C2170 C2169 1.362 . S
C2170 C2173 1.409 . S
C2171 H2163 0.930 . S
C2171 C2172 1.355 . S
C2171 C2173 1.415 . S
C2172 C2171 1.355 . S
C2172 C2174 1.419 . S
C2173 C2168 1.425 . S
C2173 C2170 1.409 . S
C2173 C2171 1.415 . S
C2174 H2164 0.930 . S
C2174 C2172 1.419 . S
C2174 C2175 1.362 . S
C2175 H2165 0.930 . S
C2175 C2168 1.409 . S
C2175 C2174 1.362 . S
H2176 C2182 0.930 . S
H2177 C2185 0.930 . S
H2178 C2186 0.930 . S
H2179 C2187 0.930 . S
H2180 C2190 0.930 . S
H2181 C2191 0.930 . S
C2182 H2176 0.930 . S
C2182 C2183 1.355 . S
C2182 C2184 1.415 . S
C2183 C2182 1.355 . S
C2183 C2185 1.419 . S
C2184 C2182 1.415 . S
C2184 C2189 1.425 . S
C2184 C2191 1.409 . S
C2185 H2177 0.930 . S
C2185 C2183 1.419 . S
C2185 C2186 1.362 . S
C2186 H2178 0.930 . S
C2186 C2185 1.362 . S
C2186 C2189 1.409 . S
C2187 H2179 0.930 . S
C2187 C2188 1.355 . S
C2187 C2189 1.415 . S
C2188 C2187 1.355 . S
C2188 C2190 1.419 . S
C2189 C2184 1.425 . S
C2189 C2186 1.409 . S
C2189 C2187 1.415 . S
C2190 H2180 0.930 . S
C2190 C2188 1.419 . S
C2190 C2191 1.362 . S
C2191 H2181 0.930 . S
C2191 C2184 1.409 . S
C2191 C2190 1.362 . S
H2192 C2198 0.930 . S
H2193 C2201 0.930 . S
H2194 C2202 0.930 . S
H2195 C2203 0.930 . S
H2196 C2206 0.930 . S
H2197 C2207 0.930 . S
C2198 H2192 0.930 . S
C2198 C2199 1.355 . S
C2198 C2200 1.415 . S
C2199 C2198 1.355 . S
C2199 C2201 1.419 . S
C2200 C2198 1.415 . S
C2200 C2205 1.425 . S
C2200 C2207 1.409 . S
C2201 H2193 0.930 . S
C2201 C2199 1.419 . S
C2201 C2202 1.362 . S
C2202 H2194 0.930 . S
C2202 C2201 1.362 . S
C2202 C2205 1.409 . S
C2203 H2195 0.930 . S
C2203 C2204 1.355 . S
C2203 C2205 1.415 . S
C2204 C2203 1.355 . S
C2204 C2206 1.419 . S
C2205 C2200 1.425 . S
C2205 C2202 1.409 . S
C2205 C2203 1.415 . S
C2206 H2196 0.930 . S
C2206 C2204 1.419 . S
C2206 C2207 1.362 . S
C2207 H2197 0.930 . S
C2207 C2200 1.409 . S
C2207 C2206 1.362 . S
H2208 C2214 0.930 . S
H2209 C2217 0.930 . S
H2210 C2218 0.930 . S
H2211 C2219 0.930 . S
H2212 C2222 0.930 . S
H2213 C2223 0.930 . S
C2214 H2208 0.930 . S
C2214 C2215 1.355 . S
C2214 C2216 1.415 . S
C2215 C2214 1.355 . S
C2215 C2217 1.419 . S
C2216 C2214 1.415 . S
C2216 C2221 1.425 . S
C2216 C2223 1.409 . S
C2217 H2209 0.930 . S
C2217 C2215 1.419 . S
C2217 C2218 1.362 . S
C2218 H2210 0.930 . S
C2218 C2217 1.362 . S
C2218 C2221 1.409 . S
C2219 H2211 0.930 . S
C2219 C2220 1.355 . S
C2219 C2221 1.415 . S
C2220 C2219 1.355 . S
C2220 C2222 1.419 . S
C2221 C2216 1.425 . S
C2221 C2218 1.409 . S
C2221 C2219 1.415 . S
C2222 H2212 0.930 . S
C2222 C2220 1.419 . S
C2222 C2223 1.362 . S
C2223 H2213 0.930 . S
C2223 C2216 1.409 . S
C2223 C2222 1.362 . S
H2224 C2230 0.930 . S
H2225 C2233 0.930 . S
H2226 C2234 0.930 . S
H2227 C2235 0.930 . S
H2228 C2238 0.930 . S
H2229 C2239 0.930 . S
C2230 H2224 0.930 . S
C2230 C2231 1.355 . S
C2230 C2232 1.415 . S
C2231 C2230 1.355 . S
C2231 C2233 1.419 . S
C2232 C2230 1.415 . S
C2232 C2237 1.425 . S
C2232 C2239 1.409 . S
C2233 H2225 0.930 . S
C2233 C2231 1.419 . S
C2233 C2234 1.362 . S
C2234 H2226 0.930 . S
C2234 C2233 1.362 . S
C2234 C2237 1.409 . S
C2235 H2227 0.930 . S
C2235 C2236 1.355 . S
C2235 C2237 1.415 . S
C2236 C2235 1.355 . S
C2236 C2238 1.419 . S
C2237 C2232 1.425 . S
C2237 C2234 1.409 . S
C2237 C2235 1.415 . S
C2238 H2228 0.930 . S
C2238 C2236 1.419 . S
C2238 C2239 1.362 . S
C2239 H2229 0.930 . S
C2239 C2232 1.409 . S
C2239 C2238 1.362 . S
H2240 C2246 0.930 . S
H2241 C2249 0.930 . S
H2242 C2250 0.930 . S
H2243 C2251 0.930 . S
H2244 C2254 0.930 . S
H2245 C2255 0.930 . S
C2246 H2240 0.930 . S
C2246 C2247 1.355 . S
C2246 C2248 1.415 . S
C2247 C2246 1.355 . S
C2247 C2249 1.419 . S
C2248 C2246 1.415 . S
C2248 C2253 1.425 . S
C2248 C2255 1.409 . S
C2249 H2241 0.930 . S
C2249 C2247 1.419 . S
C2249 C2250 1.362 . S
C2250 H2242 0.930 . S
C2250 C2249 1.362 . S
C2250 C2253 1.409 . S
C2251 H2243 0.930 . S
C2251 C2252 1.355 . S
C2251 C2253 1.415 . S
C2252 C2251 1.355 . S
C2252 C2254 1.419 . S
C2253 C2248 1.425 . S
C2253 C2250 1.409 . S
C2253 C2251 1.415 . S
C2254 H2244 0.930 . S
C2254 C2252 1.419 . S
C2254 C2255 1.362 . S
C2255 H2245 0.930 . S
C2255 C2248 1.409 . S
C2255 C2254 1.362 . S
H2256 C2262 0.930 . S
H2257 C2265 0.930 . S
H2258 C2266 0.930 . S
H2259 C2267 0.930 . S
H2260 C2270 0.930 . S
H2261 C2271 0.930 . S
C2262 H2256 0.930 . S
C2262 C2263 1.355 . S
C2262 C2264 1.415 . S
C2263 C2262 1.355 . S
C2263 C2265 1.419 . S
C2264 C2262 1.415 . S
C2264 C2269 1.425 . S
C2264 C2271 1.409 . S
C2265 H2257 0.930 . S
C2265 C2263 1.419 . S
C2265 C2266 1.362 . S
C2266 H2258 0.930 . S
C2266 C2265 1.362 . S
C2266 C2269 1.409 . S
C2267 H2259 0.930 . S
C2267 C2268 1.355 . S
C2267 C2269 1.415 . S
C2268 C2267 1.355 . S
C2268 C2270 1.419 . S
C2269 C2264 1.425 . S
C2269 C2266 1.409 . S
C2269 C2267 1.415 . S
C2270 H2260 0.930 . S
C2270 C2268 1.419 . S
C2270 C2271 1.362 . S
C2271 H2261 0.930 . S
C2271 C2264 1.409 . S
C2271 C2270 1.362 . S
H2272 C2278 0.930 . S
H2273 C2281 0.930 . S
H2274 C2282 0.930 . S
H2275 C2283 0.930 . S
H2276 C2286 0.930 . S
H2277 C2287 0.930 . S
C2278 H2272 0.930 . S
C2278 C2279 1.355 . S
C2278 C2280 1.415 . S
C2279 C2278 1.355 . S
C2279 C2281 1.419 . S
C2280 C2278 1.415 . S
C2280 C2285 1.425 . S
C2280 C2287 1.409 . S
C2281 H2273 0.930 . S
C2281 C2279 1.419 . S
C2281 C2282 1.362 . S
C2282 H2274 0.930 . S
C2282 C2281 1.362 . S
C2282 C2285 1.409 . S
C2283 H2275 0.930 . S
C2283 C2284 1.355 . S
C2283 C2285 1.415 . S
C2284 C2283 1.355 . S
C2284 C2286 1.419 . S
C2285 C2280 1.425 . S
C2285 C2282 1.409 . S
C2285 C2283 1.415 . S
C2286 H2276 0.930 . S
C2286 C2284 1.419 . S
C2286 C2287 1.362 . S
C2287 H2277 0.930 . S
C2287 C2280 1.409 . S
C2287 C2286 1.362 . S
H2288 C2294 0.930 . S
H2289 C2297 0.930 . S
H2290 C2298 0.930 . S
H2291 C2299 0.930 . S
H2292 C2302 0.930 . S
H2293 C2303 0.930 . S
C2294 H2288 0.930 . S
C2294 C2295 1.355 . S
C2294 C2296 1.415 . S
C2295 C2294 1.355 . S
C2295 C2297 1.419 . S
C2296 C2294 1.415 . S
C2296 C2301 1.425 . S
C2296 C2303 1.409 . S
C2297 H2289 0.930 . S
C2297 C2295 1.419 . S
C2297 C2298 1.362 . S
C2298 H2290 0.930 . S
C2298 C2297 1.362 . S
C2298 C2301 1.409 . S
C2299 H2291 0.930 . S
C2299 C2300 1.355 . S
C2299 C2301 1.415 . S
C2300 C2299 1.355 . S
C2300 C2302 1.419 . S
C2301 C2296 1.425 . S
C2301 C2298 1.409 . S
C2301 C2299 1.415 . S
C2302 H2292 0.930 . S
C2302 C2300 1.419 . S
C2302 C2303 1.362 . S
C2303 H2293 0.930 . S
C2303 C2296 1.409 . S
C2303 C2302 1.362 . S
H2304 C2310 0.930 . S
H2305 C2313 0.930 . S
H2306 C2314 0.930 . S
H2307 C2315 0.930 . S
H2308 C2318 0.930 . S
H2309 C2319 0.930 . S
C2310 H2304 0.930 . S
C2310 C2311 1.355 . S
C2310 C2312 1.415 . S
C2311 C2310 1.355 . S
C2311 C2313 1.419 . S
C2312 C2310 1.415 . S
C2312 C2317 1.425 . S
C2312 C2319 1.409 . S
C2313 H2305 0.930 . S
C2313 C2311 1.419 . S
C2313 C2314 1.362 . S
C2314 H2306 0.930 . S
C2314 C2313 1.362 . S
C2314 C2317 1.409 . S
C2315 H2307 0.930 . S
C2315 C2316 1.355 . S
C2315 C2317 1.415 . S
C2316 C2315 1.355 . S
C2316 C2318 1.419 . S
C2317 C2312 1.425 . S
C2317 C2314 1.409 . S
C2317 C2315 1.415 . S
C2318 H2308 0.930 . S
C2318 C2316 1.419 . S
C2318 C2319 1.362 . S
C2319 H2309 0.930 . S
C2319 C2312 1.409 . S
C2319 C2318 1.362 . S
H2320 C2326 0.930 . S
H2321 C2329 0.930 . S
H2322 C2330 0.930 . S
H2323 C2331 0.930 . S
H2324 C2334 0.930 . S
H2325 C2335 0.930 . S
C2326 H2320 0.930 . S
C2326 C2327 1.355 . S
C2326 C2328 1.415 . S
C2327 C2326 1.355 . S
C2327 C2329 1.419 . S
C2328 C2326 1.415 . S
C2328 C2333 1.425 . S
C2328 C2335 1.409 . S
C2329 H2321 0.930 . S
C2329 C2327 1.419 . S
C2329 C2330 1.362 . S
C2330 H2322 0.930 . S
C2330 C2329 1.362 . S
C2330 C2333 1.409 . S
C2331 H2323 0.930 . S
C2331 C2332 1.355 . S
C2331 C2333 1.415 . S
C2332 C2331 1.355 . S
C2332 C2334 1.419 . S
C2333 C2328 1.425 . S
C2333 C2330 1.409 . S
C2333 C2331 1.415 . S
C2334 H2324 0.930 . S
C2334 C2332 1.419 . S
C2334 C2335 1.362 . S
C2335 H2325 0.930 . S
C2335 C2328 1.409 . S
C2335 C2334 1.362 . S
H2336 C2342 0.930 . S
H2337 C2345 0.930 . S
H2338 C2346 0.930 . S
H2339 C2347 0.930 . S
H2340 C2350 0.930 . S
H2341 C2351 0.930 . S
C2342 H2336 0.930 . S
C2342 C2343 1.355 . S
C2342 C2344 1.415 . S
C2343 C2342 1.355 . S
C2343 C2345 1.419 . S
C2344 C2342 1.415 . S
C2344 C2349 1.425 . S
C2344 C2351 1.409 . S
C2345 H2337 0.930 . S
C2345 C2343 1.419 . S
C2345 C2346 1.362 . S
C2346 H2338 0.930 . S
C2346 C2345 1.362 . S
C2346 C2349 1.409 . S
C2347 H2339 0.930 . S
C2347 C2348 1.355 . S
C2347 C2349 1.415 . S
C2348 C2347 1.355 . S
C2348 C2350 1.419 . S
C2349 C2344 1.425 . S
C2349 C2346 1.409 . S
C2349 C2347 1.415 . S
C2350 H2340 0.930 . S
C2350 C2348 1.419 . S
C2350 C2351 1.362 . S
C2351 H2341 0.930 . S
C2351 C2344 1.409 . S
C2351 C2350 1.362 . S
H2352 C2358 0.930 . S
H2353 C2361 0.930 . S
H2354 C2362 0.930 . S
H2355 C2363 0.930 . S
H2356 C2366 0.930 . S
H2357 C2367 0.930 . S
C2358 H2352 0.930 . S
C2358 C2359 1.355 . S
C2358 C2360 1.415 . S
C2359 C2358 1.355 . S
C2359 C2361 1.419 . S
C2360 C2358 1.415 . S
C2360 C2365 1.425 . S
C2360 C2367 1.409 . S
C2361 H2353 0.930 . S
C2361 C2359 1.419 . S
C2361 C2362 1.362 . S
C2362 H2354 0.930 . S
C2362 C2361 1.362 . S
C2362 C2365 1.409 . S
C2363 H2355 0.930 . S
C2363 C2364 1.355 . S
C2363 C2365 1.415 . S
C2364 C2363 1.355 . S
C2364 C2366 1.419 . S
C2365 C2360 1.425 . S
C2365 C2362 1.409 . S
C2365 C2363 1.415 . S
C2366 H2356 0.930 . S
C2366 C2364 1.419 . S
C2366 C2367 1.362 . S
C2367 H2357 0.930 . S
C2367 C2360 1.409 . S
C2367 C2366 1.362 . S
H2368 C2374 0.930 . S
H2369 C2377 0.930 . S
H2370 C2378 0.930 . S
H2371 C2379 0.930 . S
H2372 C2382 0.930 . S
H2373 C2383 0.930 . S
C2374 H2368 0.930 . S
C2374 C2375 1.355 . S
C2374 C2376 1.415 . S
C2375 C2374 1.355 . S
C2375 C2377 1.419 . S
C2376 C2374 1.415 . S
C2376 C2381 1.425 . S
C2376 C2383 1.409 . S
C2377 H2369 0.930 . S
C2377 C2375 1.419 . S
C2377 C2378 1.362 . S
C2378 H2370 0.930 . S
C2378 C2377 1.362 . S
C2378 C2381 1.409 . S
C2379 H2371 0.930 . S
C2379 C2380 1.355 . S
C2379 C2381 1.415 . S
C2380 C2379 1.355 . S
C2380 C2382 1.419 . S
C2381 C2376 1.425 . S
C2381 C2378 1.409 . S
C2381 C2379 1.415 . S
C2382 H2372 0.930 . S
C2382 C2380 1.419 . S
C2382 C2383 1.362 . S
C2383 H2373 0.930 . S
C2383 C2376 1.409 . S
C2383 C2382 1.362 . S
H2384 C2390 0.930 . S
H2385 C2393 0.930 . S
H2386 C2394 0.930 . S
H2387 C2395 0.930 . S
H2388 C2398 0.930 . S
H2389 C2399 0.930 . S
C2390 H2384 0.930 . S
C2390 C2391 1.355 . S
C2390 C2392 1.415 . S
C2391 C2390 1.355 . S
C2391 C2393 1.419 . S
C2392 C2390 1.415 . S
C2392 C2397 1.425 . S
C2392 C2399 1.409 . S
C2393 H2385 0.930 . S
C2393 C2391 1.419 . S
C2393 C2394 1.362 . S
C2394 H2386 0.930 . S
C2394 C2393 1.362 . S
C2394 C2397 1.409 . S
C2395 H2387 0.930 . S
C2395 C2396 1.355 . S
C2395 C2397 1.415 . S
C2396 C2395 1.355 . S
C2396 C2398 1.419 . S
C2397 C2392 1.425 . S
C2397 C2394 1.409 . S
C2397 C2395 1.415 . S
C2398 H2388 0.930 . S
C2398 C2396 1.419 . S
C2398 C2399 1.362 . S
C2399 H2389 0.930 . S
C2399 C2392 1.409 . S
C2399 C2398 1.362 . S
H2400 C2406 0.930 . S
H2401 C2409 0.930 . S
H2402 C2410 0.930 . S
H2403 C2411 0.930 . S
H2404 C2414 0.930 . S
H2405 C2415 0.930 . S
C2406 H2400 0.930 . S
C2406 C2407 1.355 . S
C2406 C2408 1.415 . S
C2407 C2406 1.355 . S
C2407 C2409 1.419 . S
C2408 C2406 1.415 . S
C2408 C2413 1.425 . S
C2408 C2415 1.409 . S
C2409 H2401 0.930 . S
C2409 C2407 1.419 . S
C2409 C2410 1.362 . S
C2410 H2402 0.930 . S
C2410 C2409 1.362 . S
C2410 C2413 1.409 . S
C2411 H2403 0.930 . S
C2411 C2412 1.355 . S
C2411 C2413 1.415 . S
C2412 C2411 1.355 . S
C2412 C2414 1.419 . S
C2413 C2408 1.425 . S
C2413 C2410 1.409 . S
C2413 C2411 1.415 . S
C2414 H2404 0.930 . S
C2414 C2412 1.419 . S
C2414 C2415 1.362 . S
C2415 H2405 0.930 . S
C2415 C2408 1.409 . S
C2415 C2414 1.362 . S
H2416 C2422 0.930 . S
H2417 C2425 0.930 . S
H2418 C2426 0.930 . S
H2419 C2427 0.930 . S
H2420 C2430 0.930 . S
H2421 C2431 0.930 . S
C2422 H2416 0.930 . S
C2422 C2423 1.355 . S
C2422 C2424 1.415 . S
C2423 C2422 1.355 . S
C2423 C2425 1.419 . S
C2424 C2422 1.415 . S
C2424 C2429 1.425 . S
C2424 C2431 1.409 . S
C2425 H2417 0.930 . S
C2425 C2423 1.419 . S
C2425 C2426 1.362 . S
C2426 H2418 0.930 . S
C2426 C2425 1.362 . S
C2426 C2429 1.409 . S
C2427 H2419 0.930 . S
C2427 C2428 1.355 . S
C2427 C2429 1.415 . S
C2428 C2427 1.355 . S
C2428 C2430 1.419 . S
C2429 C2424 1.425 . S
C2429 C2426 1.409 . S
C2429 C2427 1.415 . S
C2430 H2420 0.930 . S
C2430 C2428 1.419 . S
C2430 C2431 1.362 . S
C2431 H2421 0.930 . S
C2431 C2424 1.409 . S
C2431 C2430 1.362 . S
H2432 C2438 0.930 . S
H2433 C2441 0.930 . S
H2434 C2442 0.930 . S
H2435 C2443 0.930 . S
H2436 C2446 0.930 . S
H2437 C2447 0.930 . S
C2438 H2432 0.930 . S
C2438 C2439 1.355 . S
C2438 C2440 1.415 . S
C2439 C2438 1.355 . S
C2439 C2441 1.419 . S
C2440 C2438 1.415 . S
C2440 C2445 1.425 . S
C2440 C2447 1.409 . S
C2441 H2433 0.930 . S
C2441 C2439 1.419 . S
C2441 C2442 1.362 . S
C2442 H2434 0.930 . S
C2442 C2441 1.362 . S
C2442 C2445 1.409 . S
C2443 H2435 0.930 . S
C2443 C2444 1.355 . S
C2443 C2445 1.415 . S
C2444 C2443 1.355 . S
C2444 C2446 1.419 . S
C2445 C2440 1.425 . S
C2445 C2442 1.409 . S
C2445 C2443 1.415 . S
C2446 H2436 0.930 . S
C2446 C2444 1.419 . S
C2446 C2447 1.362 . S
C2447 H2437 0.930 . S
C2447 C2440 1.409 . S
C2447 C2446 1.362 . S
H2448 C2454 0.930 . S
H2449 C2457 0.930 . S
H2450 C2458 0.930 . S
H2451 C2459 0.930 . S
H2452 C2462 0.930 . S
H2453 C2463 0.930 . S
C2454 H2448 0.930 . S
C2454 C2455 1.355 . S
C2454 C2456 1.415 . S
C2455 C2454 1.355 . S
C2455 C2457 1.419 . S
C2456 C2454 1.415 . S
C2456 C2461 1.425 . S
C2456 C2463 1.409 . S
C2457 H2449 0.930 . S
C2457 C2455 1.419 . S
C2457 C2458 1.362 . S
C2458 H2450 0.930 . S
C2458 C2457 1.362 . S
C2458 C2461 1.409 . S
C2459 H2451 0.930 . S
C2459 C2460 1.355 . S
C2459 C2461 1.415 . S
C2460 C2459 1.355 . S
C2460 C2462 1.419 . S
C2461 C2456 1.425 . S
C2461 C2458 1.409 . S
C2461 C2459 1.415 . S
C2462 H2452 0.930 . S
C2462 C2460 1.419 . S
C2462 C2463 1.362 . S
C2463 H2453 0.930 . S
C2463 C2456 1.409 . S
C2463 C2462 1.362 . S
H2464 C2470 0.930 . S
H2465 C2473 0.930 . S
H2466 C2474 0.930 . S
H2467 C2475 0.930 . S
H2468 C2478 0.930 . S
H2469 C2479 0.930 . S
C2470 H2464 0.930 . S
C2470 C2471 1.355 . S
C2470 C2472 1.415 . S
C2471 C2470 1.355 . S
C2471 C2473 1.419 . S
C2472 C2470 1.415 . S
C2472 C2477 1.425 . S
C2472 C2479 1.409 . S
C2473 H2465 0.930 . S
C2473 C2471 1.419 . S
C2473 C2474 1.362 . S
C2474 H2466 0.930 . S
C2474 C2473 1.362 . S
C2474 C2477 1.409 . S
C2475 H2467 0.930 . S
C2475 C2476 1.355 . S
C2475 C2477 1.415 . S
C2476 C2475 1.355 . S
C2476 C2478 1.419 . S
C2477 C2472 1.425 . S
C2477 C2474 1.409 . S
C2477 C2475 1.415 . S
C2478 H2468 0.930 . S
C2478 C2476 1.419 . S
C2478 C2479 1.362 . S
C2479 H2469 0.930 . S
C2479 C2472 1.409 . S
C2479 C2478 1.362 . S
H2480 C2486 0.930 . S
H2481 C2489 0.930 . S
H2482 C2490 0.930 . S
H2483 C2491 0.930 . S
H2484 C2494 0.930 . S
H2485 C2495 0.930 . S
C2486 H2480 0.930 . S
C2486 C2487 1.355 . S
C2486 C2488 1.415 . S
C2487 C2486 1.355 . S
C2487 C2489 1.419 . S
C2488 C2486 1.415 . S
C2488 C2493 1.425 . S
C2488 C2495 1.409 . S
C2489 H2481 0.930 . S
C2489 C2487 1.419 . S
C2489 C2490 1.362 . S
C2490 H2482 0.930 . S
C2490 C2489 1.362 . S
C2490 C2493 1.409 . S
C2491 H2483 0.930 . S
C2491 C2492 1.355 . S
C2491 C2493 1.415 . S
C2492 C2491 1.355 . S
C2492 C2494 1.419 . S
C2493 C2488 1.425 . S
C2493 C2490 1.409 . S
C2493 C2491 1.415 . S
C2494 H2484 0.930 . S
C2494 C2492 1.419 . S
C2494 C2495 1.362 . S
C2495 H2485 0.930 . S
C2495 C2488 1.409 . S
C2495 C2494 1.362 . S
H2496 C2502 0.930 . S
H2497 C2505 0.930 . S
H2498 C2506 0.930 . S
H2499 C2507 0.930 . S
H2500 C2510 0.930 . S
H2501 C2511 0.930 . S
C2502 H2496 0.930 . S
C2502 C2503 1.355 . S
C2502 C2504 1.415 . S
C2503 C2502 1.355 . S
C2503 C2505 1.419 . S
C2504 C2502 1.415 . S
C2504 C2509 1.425 . S
C2504 C2511 1.409 . S
C2505 H2497 0.930 . S
C2505 C2503 1.419 . S
C2505 C2506 1.362 . S
C2506 H2498 0.930 . S
C2506 C2505 1.362 . S
C2506 C2509 1.409 . S
C2507 H2499 0.930 . S
C2507 C2508 1.355 . S
C2507 C2509 1.415 . S
C2508 C2507 1.355 . S
C2508 C2510 1.419 . S
C2509 C2504 1.425 . S
C2509 C2506 1.409 . S
C2509 C2507 1.415 . S
C2510 H2500 0.930 . S
C2510 C2508 1.419 . S
C2510 C2511 1.362 . S
C2511 H2501 0.930 . S
C2511 C2504 1.409 . S
C2511 C2510 1.362 . S
H2512 C2518 0.930 . S
H2513 C2521 0.930 . S
H2514 C2522 0.930 . S
H2515 C2523 0.930 . S
H2516 C2526 0.930 . S
H2517 C2527 0.930 . S
C2518 H2512 0.930 . S
C2518 C2519 1.355 . S
C2518 C2520 1.415 . S
C2519 C2518 1.355 . S
C2519 C2521 1.419 . S
C2520 C2518 1.415 . S
C2520 C2525 1.425 . S
C2520 C2527 1.409 . S
C2521 H2513 0.930 . S
C2521 C2519 1.419 . S
C2521 C2522 1.362 . S
C2522 H2514 0.930 . S
C2522 C2521 1.362 . S
C2522 C2525 1.409 . S
C2523 H2515 0.930 . S
C2523 C2524 1.355 . S
C2523 C2525 1.415 . S
C2524 C2523 1.355 . S
C2524 C2526 1.419 . S
C2525 C2520 1.425 . S
C2525 C2522 1.409 . S
C2525 C2523 1.415 . S
C2526 H2516 0.930 . S
C2526 C2524 1.419 . S
C2526 C2527 1.362 . S
C2527 H2517 0.930 . S
C2527 C2520 1.409 . S
C2527 C2526 1.362 . S
H2528 C2534 0.930 . S
H2529 C2537 0.930 . S
H2530 C2538 0.930 . S
H2531 C2539 0.930 . S
H2532 C2542 0.930 . S
H2533 C2543 0.930 . S
C2534 H2528 0.930 . S
C2534 C2535 1.355 . S
C2534 C2536 1.415 . S
C2535 C2534 1.355 . S
C2535 C2537 1.419 . S
C2536 C2534 1.415 . S
C2536 C2541 1.425 . S
C2536 C2543 1.409 . S
C2537 H2529 0.930 . S
C2537 C2535 1.419 . S
C2537 C2538 1.362 . S
C2538 H2530 0.930 . S
C2538 C2537 1.362 . S
C2538 C2541 1.409 . S
C2539 H2531 0.930 . S
C2539 C2540 1.355 . S
C2539 C2541 1.415 . S
C2540 C2539 1.355 . S
C2540 C2542 1.419 . S
C2541 C2536 1.425 . S
C2541 C2538 1.409 . S
C2541 C2539 1.415 . S
C2542 H2532 0.930 . S
C2542 C2540 1.419 . S
C2542 C2543 1.362 . S
C2543 H2533 0.930 . S
C2543 C2536 1.409 . S
C2543 C2542 1.362 . S
H2544 C2550 0.930 . S
H2545 C2553 0.930 . S
H2546 C2554 0.930 . S
H2547 C2555 0.930 . S
H2548 C2558 0.930 . S
H2549 C2559 0.930 . S
C2550 H2544 0.930 . S
C2550 C2551 1.355 . S
C2550 C2552 1.415 . S
C2551 C2550 1.355 . S
C2551 C2553 1.419 . S
C2552 C2550 1.415 . S
C2552 C2557 1.425 . S
C2552 C2559 1.409 . S
C2553 H2545 0.930 . S
C2553 C2551 1.419 . S
C2553 C2554 1.362 . S
C2554 H2546 0.930 . S
C2554 C2553 1.362 . S
C2554 C2557 1.409 . S
C2555 H2547 0.930 . S
C2555 C2556 1.355 . S
C2555 C2557 1.415 . S
C2556 C2555 1.355 . S
C2556 C2558 1.419 . S
C2557 C2552 1.425 . S
C2557 C2554 1.409 . S
C2557 C2555 1.415 . S
C2558 H2548 0.930 . S
C2558 C2556 1.419 . S
C2558 C2559 1.362 . S
C2559 H2549 0.930 . S
C2559 C2552 1.409 . S
C2559 C2558 1.362 . S
H2560 C2566 0.930 . S
H2561 C2569 0.930 . S
H2562 C2570 0.930 . S
H2563 C2571 0.930 . S
H2564 C2574 0.930 . S
H2565 C2575 0.930 . S
C2566 H2560 0.930 . S
C2566 C2567 1.355 . S
C2566 C2568 1.415 . S
C2567 C2566 1.355 . S
C2567 C2569 1.419 . S
C2568 C2566 1.415 . S
C2568 C2573 1.425 . S
C2568 C2575 1.409 . S
C2569 H2561 0.930 . S
C2569 C2567 1.419 . S
C2569 C2570 1.362 . S
C2570 H2562 0.930 . S
C2570 C2569 1.362 . S
C2570 C2573 1.409 . S
C2571 H2563 0.930 . S
C2571 C2572 1.355 . S
C2571 C2573 1.415 . S
C2572 C2571 1.355 . S
C2572 C2574 1.419 . S
C2573 C2568 1.425 . S
C2573 C2570 1.409 . S
C2573 C2571 1.415 . S
C2574 H2564 0.930 . S
C2574 C2572 1.419 . S
C2574 C2575 1.362 . S
C2575 H2565 0.930 . S
C2575 C2568 1.409 . S
C2575 C2574 1.362 . S
H2576 C2582 0.930 . S
H2577 C2585 0.930 . S
H2578 C2586 0.930 . S
H2579 C2587 0.930 . S
H2580 C2590 0.930 . S
H2581 C2591 0.930 . S
C2582 H2576 0.930 . S
C2582 C2583 1.355 . S
C2582 C2584 1.415 . S
C2583 C2582 1.355 . S
C2583 C2585 1.419 . S
C2584 C2582 1.415 . S
C2584 C2589 1.425 . S
C2584 C2591 1.409 . S
C2585 H2577 0.930 . S
C2585 C2583 1.419 . S
C2585 C2586 1.362 . S
C2586 H2578 0.930 . S
C2586 C2585 1.362 . S
C2586 C2589 1.409 . S
C2587 H2579 0.930 . S
C2587 C2588 1.355 . S
C2587 C2589 1.415 . S
C2588 C2587 1.355 . S
C2588 C2590 1.419 . S
C2589 C2584 1.425 . S
C2589 C2586 1.409 . S
C2589 C2587 1.415 . S
C2590 H2580 0.930 . S
C2590 C2588 1.419 . S
C2590 C2591 1.362 . S
C2591 H2581 0.930 . S
C2591 C2584 1.409 . S
C2591 C2590 1.362 . S
H2592 C2598 0.930 . S
H2593 C2601 0.930 . S
H2594 C2602 0.930 . S
H2595 C2603 0.930 . S
H2596 C2606 0.930 . S
H2597 C2607 0.930 . S
C2598 H2592 0.930 . S
C2598 C2599 1.355 . S
C2598 C2600 1.415 . S
C2599 C2598 1.355 . S
C2599 C2601 1.419 . S
C2600 C2598 1.415 . S
C2600 C2605 1.425 . S
C2600 C2607 1.409 . S
C2601 H2593 0.930 . S
C2601 C2599 1.419 . S
C2601 C2602 1.362 . S
C2602 H2594 0.930 . S
C2602 C2601 1.362 . S
C2602 C2605 1.409 . S
C2603 H2595 0.930 . S
C2603 C2604 1.355 . S
C2603 C2605 1.415 . S
C2604 C2603 1.355 . S
C2604 C2606 1.419 . S
C2605 C2600 1.425 . S
C2605 C2602 1.409 . S
C2605 C2603 1.415 . S
C2606 H2596 0.930 . S
C2606 C2604 1.419 . S
C2606 C2607 1.362 . S
C2607 H2597 0.930 . S
C2607 C2600 1.409 . S
C2607 C2606 1.362 . S
H2608 C2614 0.930 . S
H2609 C2617 0.930 . S
H2610 C2618 0.930 . S
H2611 C2619 0.930 . S
H2612 C2622 0.930 . S
H2613 C2623 0.930 . S
C2614 H2608 0.930 . S
C2614 C2615 1.355 . S
C2614 C2616 1.415 . S
C2615 C2614 1.355 . S
C2615 C2617 1.419 . S
C2616 C2614 1.415 . S
C2616 C2621 1.425 . S
C2616 C2623 1.409 . S
C2617 H2609 0.930 . S
C2617 C2615 1.419 . S
C2617 C2618 1.362 . S
C2618 H2610 0.930 . S
C2618 C2617 1.362 . S
C2618 C2621 1.409 . S
C2619 H2611 0.930 . S
C2619 C2620 1.355 . S
C2619 C2621 1.415 . S
C2620 C2619 1.355 . S
C2620 C2622 1.419 . S
C2621 C2616 1.425 . S
C2621 C2618 1.409 . S
C2621 C2619 1.415 . S
C2622 H2612 0.930 . S
C2622 C2620 1.419 . S
C2622 C2623 1.362 . S
C2623 H2613 0.930 . S
C2623 C2616 1.409 . S
C2623 C2622 1.362 . S
H2624 C2630 0.930 . S
H2625 C2633 0.930 . S
H2626 C2634 0.930 . S
H2627 C2635 0.930 . S
H2628 C2638 0.930 . S
H2629 C2639 0.930 . S
C2630 H2624 0.930 . S
C2630 C2631 1.355 . S
C2630 C2632 1.415 . S
C2631 C2630 1.355 . S
C2631 C2633 1.419 . S
C2632 C2630 1.415 . S
C2632 C2637 1.425 . S
C2632 C2639 1.409 . S
C2633 H2625 0.930 . S
C2633 C2631 1.419 . S
C2633 C2634 1.362 . S
C2634 H2626 0.930 . S
C2634 C2633 1.362 . S
C2634 C2637 1.409 . S
C2635 H2627 0.930 . S
C2635 C2636 1.355 . S
C2635 C2637 1.415 . S
C2636 C2635 1.355 . S
C2636 C2638 1.419 . S
C2637 C2632 1.425 . S
C2637 C2634 1.409 . S
C2637 C2635 1.415 . S
C2638 H2628 0.930 . S
C2638 C2636 1.419 . S
C2638 C2639 1.362 . S
C2639 H2629 0.930 . S
C2639 C2632 1.409 . S
C2639 C2638 1.362 . S
C1111 C375 1.418 . S
C1116 N12 1.425 . S
C1127 C1088 1.429 . S
C1132 N35 1.407 . S
C1143 N58 1.431 . S
C1148 C1042 1.447 . S
C1159 N81 1.430 . S
C1164 C1065 1.418 . S
C1175 C398 1.451 . S
C1180 N104 1.440 . S
C1191 N127 1.411 . S
C1196 C421 1.418 . S
C1207 N150 1.446 . S
C1212 C444 1.438 . S
C1223 C1019 1.443 . S
C1228 N173 1.421 . S
C1239 N196 1.409 . S
C1244 C7 1.412 . S
C1255 C30 1.424 . S
C1260 N219 1.432 . S
C1271 C53 1.412 . S
C1276 N242 1.412 . S
C1287 C76 1.427 . S
C1292 N265 1.407 . S
C1303 C99 1.415 . S
C1308 N288 1.417 . S
C1319 N311 1.441 . S
C1324 C122 1.443 . S
C1335 C145 1.414 . S
C1340 N334 1.418 . S
C1351 N357 1.443 . S
C1356 C168 1.445 . S
C1367 N380 1.402 . S
C1372 C191 1.414 . S
C1383 C283 1.444 . S
C1388 N403 1.445 . S
C1399 N426 1.411 . S
C1404 C306 1.431 . S
C1415 N449 1.427 . S
C1420 C329 1.446 . S
C1431 C904 1.414 . S
C1436 N472 1.406 . S
C1447 N495 1.418 . S
C1452 C789 1.440 . S
C1463 C812 1.440 . S
C1468 N518 1.447 . S
C1479 C766 1.444 . S
C1484 N541 1.424 . S
C1495 C927 1.440 . S
C1500 N564 1.447 . S
C1511 N587 1.401 . S
C1516 C536 1.410 . S
C1527 N610 1.423 . S
C1532 C490 1.418 . S
C1543 N633 1.432 . S
C1548 C513 1.425 . S
C1559 N656 1.405 . S
C1564 C950 1.412 . S
C1575 C973 1.430 . S
C1580 N679 1.403 . S
C1591 N702 1.420 . S
C1596 C996 1.441 . S
C1607 C467 1.442 . S
C1612 N725 1.447 . S
C1623 C559 1.425 . S
C1628 N748 1.433 . S
C1639 N771 1.444 . S
C1644 C582 1.434 . S
C1655 N794 1.448 . S
C1660 C605 1.449 . S
C1671 N817 1.407 . S
C1676 C628 1.407 . S
C1687 N840 1.441 . S
C1692 C651 1.450 . S
C1703 N863 1.443 . S
C1708 C674 1.451 . S
C1719 C697 1.449 . S
C1724 N886 1.448 . S
C1735 C720 1.427 . S
C1740 N909 1.405 . S
C1751 C743 1.433 . S
C1756 N932 1.442 . S
C1767 C835 1.443 . S
C1772 N955 1.448 . S
C1783 C858 1.442 . S
C1788 N978 1.448 . S
C1799 N1001 1.445 . S
C1804 C881 1.446 . S
C1815 N1024 1.444 . S
C1820 C352 1.445 . S
C1831 N1047 1.420 . S
C1836 C237 1.442 . S
C1847 C260 1.415 . S
C1852 N1070 1.396 . S
C1863 N1093 1.405 . S
C1868 C214 1.406 . S
C1879 C16 1.627 . S
C1884 N623 1.473 . S
C1895 N554 1.556 . S
C1900 C39 1.626 . S
C1911 C62 1.625 . S
C1916 N577 1.485 . S
C1927 C85 1.612 . S
C1932 N600 1.556 . S
C1943 C108 1.596 . S
C1948 N117 1.492 . S
C1959 N140 1.499 . S
C1964 C131 1.653 . S
C1975 C154 1.628 . S
C1980 N163 1.489 . S
C1991 C177 1.648 . S
C1996 N94 1.531 . S
C2007 C200 1.619 . S
C2012 N968 1.447 . S
C2023 C223 1.645 . S
C2028 N991 1.491 . S
C2039 C246 1.632 . S
C2044 N462 1.462 . S
C2055 C269 1.625 . S
C2060 N945 1.572 . S
C2071 C292 1.593 . S
C2076 N1060 1.469 . S
C2087 N370 1.547 . S
C2092 C315 1.640 . S
C2103 C338 1.635 . S
C2108 N1083 1.467 . S
C2119 N1037 1.518 . S
C2124 C361 1.653 . S
C2135 N209 1.514 . S
C2140 C384 1.585 . S
C2151 C407 1.630 . S
C2156 N899 1.461 . S
C2167 C430 1.607 . S
C2172 N830 1.543 . S
C2183 N853 1.474 . S
C2188 C453 1.641 . S
C2199 C476 1.602 . S
C2204 N324 1.525 . S
C2215 N807 1.487 . S
C2220 C499 1.638 . S
C2231 N738 1.528 . S
C2236 C522 1.639 . S
C2247 N784 1.560 . S
C2252 C545 1.621 . S
C2263 C568 1.624 . S
C2268 N71 1.555 . S
C2279 C591 1.641 . S
C2284 N2 1.539 . S
C2295 N25 1.474 . S
C2300 C614 1.641 . S
C2311 C637 1.638 . S
C2316 N48 1.473 . S
C2327 C660 1.607 . S
C2332 N669 1.484 . S
C2343 N692 1.507 . S
C2348 C683 1.602 . S
C2359 N715 1.544 . S
C2364 C706 1.606 . S
C2375 C729 1.633 . S
C2380 N646 1.532 . S
C2391 N416 1.557 . S
C2396 C752 1.621 . S
C2407 C775 1.629 . S
C2412 N439 1.462 . S
C2423 C798 1.606 . S
C2428 N1014 1.453 . S
C2439 C821 1.602 . S
C2444 N393 1.529 . S
C2455 C844 1.629 . S
C2460 N508 1.557 . S
C2471 C867 1.613 . S
C2476 N922 1.484 . S
C2487 N531 1.550 . S
C2492 C890 1.600 . S
C2503 C913 1.630 . S
C2508 N485 1.460 . S
C2519 N761 1.511 . S
C2524 C936 1.641 . S
C2535 N347 1.475 . S
C2540 C959 1.623 . S
C2551 N278 1.556 . S
C2556 C982 1.636 . S
C2567 C1005 1.588 . S
C2572 N301 1.494 . S
C2583 C1028 1.622 . S
C2588 N876 1.490 . S
C2599 N255 1.544 . S
C2604 C1051 1.595 . S
C2615 C1074 1.608 . S
C2620 N186 1.534 . S
C2631 N232 1.475 . S
C2636 C1097 1.610 . S
