# Generated by pormake.
# Topology zft, (5)-cn, num edge types: 1
# Building blocks:
#     Node 0, Type 0, BuildingBlock: XOMCOT_clean_sbu_1, # of connection points: 5
#     Node 1, Type 0, BuildingBlock: XOMCOT_clean_sbu_1, # of connection points: 5
#     Node 2, Type 0, BuildingBlock: XOMCOT_clean_sbu_1, # of connection points: 5
#     Node 3, Type 0, BuildingBlock: XOMCOT_clean_sbu_1, # of connection points: 5
#     Node 4, Type 0, BuildingBlock: XOMCOT_clean_sbu_1, # of connection points: 5
#     Node 5, Type 0, BuildingBlock: XOMCOT_clean_sbu_1, # of connection points: 5
#     Node 6, Type 0, BuildingBlock: XOMCOT_clean_sbu_1, # of connection points: 5
#     Node 7, Type 0, BuildingBlock: XOMCOT_clean_sbu_1, # of connection points: 5
#     Edge 8, Type (0, 0), BuildingBlock: MIFKUJ_clean_linker_0, # of connection points: 2
#     Edge 9, Type (0, 0), BuildingBlock: MIFKUJ_clean_linker_0, # of connection points: 2
#     Edge 10, Type (0, 0), BuildingBlock: MIFKUJ_clean_linker_0, # of connection points: 2
#     Edge 11, Type (0, 0), BuildingBlock: MIFKUJ_clean_linker_0, # of connection points: 2
#     Edge 12, Type (0, 0), BuildingBlock: MIFKUJ_clean_linker_0, # of connection points: 2
#     Edge 13, Type (0, 0), BuildingBlock: MIFKUJ_clean_linker_0, # of connection points: 2
#     Edge 14, Type (0, 0), BuildingBlock: MIFKUJ_clean_linker_0, # of connection points: 2
#     Edge 15, Type (0, 0), BuildingBlock: MIFKUJ_clean_linker_0, # of connection points: 2
#     Edge 16, Type (0, 0), BuildingBlock: MIFKUJ_clean_linker_0, # of connection points: 2
#     Edge 17, Type (0, 0), BuildingBlock: MIFKUJ_clean_linker_0, # of connection points: 2
#     Edge 18, Type (0, 0), BuildingBlock: MIFKUJ_clean_linker_0, # of connection points: 2
#     Edge 19, Type (0, 0), BuildingBlock: MIFKUJ_clean_linker_0, # of connection points: 2
#     Edge 20, Type (0, 0), BuildingBlock: MIFKUJ_clean_linker_0, # of connection points: 2
#     Edge 21, Type (0, 0), BuildingBlock: MIFKUJ_clean_linker_0, # of connection points: 2
#     Edge 22, Type (0, 0), BuildingBlock: MIFKUJ_clean_linker_0, # of connection points: 2
#     Edge 23, Type (0, 0), BuildingBlock: MIFKUJ_clean_linker_0, # of connection points: 2
#     Edge 24, Type (0, 0), BuildingBlock: MIFKUJ_clean_linker_0, # of connection points: 2
#     Edge 25, Type (0, 0), BuildingBlock: MIFKUJ_clean_linker_0, # of connection points: 2
#     Edge 26, Type (0, 0), BuildingBlock: MIFKUJ_clean_linker_0, # of connection points: 2
#     Edge 27, Type (0, 0), BuildingBlock: MIFKUJ_clean_linker_0, # of connection points: 2
# Relax obj value: 0.085
# Max RMSD: 0.118
# Mean RMSD: 0.118
data_MOF--net-zft--node1-XOMCOT_clean_sbu_1--edge1-MIFKUJ_clean_linker_0
_symmetry_space_group_name_H-M    P1
_symmetry_Int_Tables_number       1
_symmetry_cell_setting            triclinic
loop_
_symmetry_equiv_pos_as_xyz
'x, y, z'
_cell_length_a     37.135442
_cell_length_b     37.026124
_cell_length_c     60.430099
_cell_angle_alpha  90.062273
_cell_angle_beta   89.905839
_cell_angle_gamma 89.920122
loop_
_atom_site_label
_atom_site_type_symbol
_atom_site_fract_x
_atom_site_fract_y
_atom_site_fract_z
_atom_type_partial_charge
C0 C 0.07034 0.28294 0.23932 0.0
C1 C 0.04039 0.26422 0.24582 0.0
N2 N 0.02896 0.24445 0.22861 0.0
N3 N 0.07784 0.2758 0.21784 0.0
C4 C 0.0521 0.25162 0.21183 0.0
H5 H 0.08605 0.29991 0.25011 0.0
Co6 Co 0.1179 0.29579 0.20272 0.0
C7 C 0.09144 0.32695 0.16008 0.0
O8 O 0.12305 0.32055 0.15113 0.0
N9 N 0.15891 0.3163 0.1886 0.0
C10 C 0.21268 0.32611 0.17333 0.0
C11 C 0.18946 0.30027 0.18133 0.0
C12 C 0.16475 0.35202 0.18516 0.0
N13 N 0.19709 0.35872 0.17577 0.0
O14 O 0.1143 0.33882 0.22107 0.0
H15 H 0.19516 0.27173 0.18194 0.0
H16 H 0.14516 0.37274 0.18905 0.0
O17 O 0.08518 0.31734 0.18016 0.0
C18 C 0.13963 0.34039 0.23533 0.0
O19 O 0.16418 0.31477 0.2352 0.0
N20 N 0.12358 0.25217 0.18663 0.0
C21 C 0.1439 0.18666 0.16701 0.0
C22 C 0.11916 0.20974 0.15659 0.0
C23 C 0.10889 0.24213 0.16682 0.0
C24 C 0.14557 0.22888 0.19767 0.0
C25 C 0.1564 0.19624 0.18811 0.0
H26 H 0.08888 0.25845 0.15876 0.0
H27 H 0.15616 0.2366 0.21366 0.0
H28 H 0.0504 0.23926 0.19565 0.0
H29 H 0.02872 0.26392 0.26225 0.0
H30 H 0.23932 0.32124 0.16666 0.0
H31 H 0.10767 0.20275 0.14069 0.0
H32 H 0.17542 0.17935 0.19689 0.0
C33 C 0.26436 0.61149 0.48963 0.0
C34 C 0.28748 0.58835 0.50024 0.0
N35 N 0.28287 0.55489 0.4919 0.0
N36 N 0.24497 0.59294 0.47463 0.0
C37 C 0.25645 0.5583 0.47661 0.0
H38 H 0.26295 0.64041 0.49197 0.0
Co39 Co 0.21389 0.61564 0.45446 0.0
C40 C 0.222 0.55784 0.41881 0.0
O41 O 0.24753 0.57517 0.4083 0.0
N42 N 0.18193 0.63821 0.43422 0.0
C43 C 0.15723 0.65643 0.40261 0.0
C44 C 0.1858 0.63885 0.41199 0.0
C45 C 0.15042 0.65585 0.43788 0.0
N46 N 0.13471 0.66705 0.41884 0.0
O47 O 0.17356 0.60163 0.47282 0.0
H48 H 0.20845 0.62812 0.40296 0.0
H49 H 0.1389 0.65995 0.45412 0.0
O50 O 0.20839 0.57071 0.43668 0.0
C51 C 0.17136 0.62406 0.48886 0.0
O52 O 0.19317 0.65197 0.48891 0.0
N53 N 0.25492 0.63342 0.43864 0.0
C54 C 0.31587 0.66791 0.42104 0.0
C55 C 0.31698 0.6313 0.42695 0.0
C56 C 0.28658 0.61483 0.43613 0.0
C57 C 0.25421 0.6696 0.43417 0.0
C58 C 0.28389 0.68709 0.42488 0.0
H59 H 0.2886 0.58689 0.44105 0.0
H60 H 0.23065 0.68548 0.43818 0.0
H61 H 0.24743 0.53653 0.46604 0.0
H62 H 0.30694 0.59589 0.51272 0.0
H63 H 0.15384 0.66157 0.38512 0.0
H64 H 0.34145 0.61563 0.4251 0.0
H65 H 0.28176 0.71553 0.42094 0.0
C66 C 0.91624 0.76489 0.73869 0.0
C67 C 0.9451 0.78193 0.74797 0.0
N68 N 0.97461 0.77381 0.73602 0.0
N69 N 0.92704 0.74563 0.72095 0.0
C70 C 0.96298 0.75193 0.71946 0.0
H71 H 0.88872 0.7668 0.7444 0.0
Co72 Co 0.89171 0.7194 0.70612 0.0
C73 C 0.92065 0.69396 0.66331 0.0
O74 O 0.8893 0.70274 0.6548 0.0
N75 N 0.85407 0.69279 0.69252 0.0
C76 C 0.80161 0.67519 0.67837 0.0
C77 C 0.82038 0.70361 0.68718 0.0
C78 C 0.85442 0.65708 0.68742 0.0
N79 N 0.82305 0.64593 0.67842 0.0
O80 O 0.90055 0.67871 0.72531 0.0
H81 H 0.80919 0.73009 0.68971 0.0
H82 H 0.87762 0.63979 0.68982 0.0
O83 O 0.92688 0.70043 0.68388 0.0
C84 C 0.88004 0.67957 0.74226 0.0
O85 O 0.85623 0.70572 0.74388 0.0
N86 N 0.88165 0.76118 0.68918 0.0
C87 C 0.85982 0.82551 0.66889 0.0
C88 C 0.89092 0.80728 0.66172 0.0
C89 C 0.90196 0.77564 0.6725 0.0
C90 C 0.85353 0.78042 0.69762 0.0
C91 C 0.84152 0.81196 0.68744 0.0
H92 H 0.9271 0.76342 0.66757 0.0
H93 H 0.83968 0.77062 0.71219 0.0
H94 H 0.9802 0.74061 0.70674 0.0
H95 H 0.94434 0.79974 0.76219 0.0
H96 H 0.77394 0.6759 0.67277 0.0
H97 H 0.90702 0.81774 0.64822 0.0
H98 H 0.81773 0.82521 0.69391 0.0
C99 C 0.76307 0.43586 0.99132 0.0
C100 C 0.74521 0.46698 0.99682 0.0
N101 N 0.73479 0.48346 0.97807 0.0
N102 N 0.76467 0.43256 0.9691 0.0
C103 C 0.74673 0.46197 0.96141 0.0
H104 H 0.77323 0.41633 1.00299 0.0
Co105 Co 0.78547 0.39214 0.95522 0.0
C106 C 0.81366 0.41604 0.91143 0.0
O107 O 0.80613 0.38394 0.90341 0.0
N108 N 0.80675 0.35032 0.94218 0.0
C109 C 0.81688 0.29504 0.92893 0.0
C110 C 0.79107 0.31889 0.93614 0.0
C111 C 0.8424 0.34446 0.93858 0.0
N112 N 0.84929 0.31103 0.93052 0.0
O113 O 0.82828 0.39818 0.97305 0.0
H114 H 0.76275 0.31287 0.93696 0.0
H115 H 0.86299 0.36428 0.9421 0.0
O116 O 0.80591 0.4234 0.93166 0.0
C117 C 0.82849 0.37569 0.98906 0.0
O118 O 0.80174 0.35258 0.99053 0.0
N119 N 0.74191 0.38448 0.9399 0.0
C120 C 0.67704 0.36104 0.92192 0.0
C121 C 0.69744 0.38746 0.9111 0.0
C122 C 0.72983 0.39925 0.92054 0.0
C123 C 0.72038 0.36158 0.95159 0.0
C124 C 0.68822 0.34878 0.94266 0.0
H125 H 0.74471 0.42011 0.91218 0.0
H126 H 0.72944 0.35151 0.96743 0.0
H127 H 0.74212 0.46732 0.94405 0.0
H128 H 0.73894 0.47603 0.01344 0.0
H129 H 0.81196 0.268 0.92284 0.0
H130 H 0.68884 0.39826 0.89531 0.0
H131 H 0.67262 0.32889 0.95166 0.0
C132 C 0.60662 0.26969 0.53176 0.0
C133 C 0.58227 0.29332 0.52269 0.0
N134 N 0.54972 0.28696 0.53173 0.0
N135 N 0.58971 0.24842 0.54657 0.0
C136 C 0.55481 0.25922 0.54597 0.0
H137 H 0.6353 0.26934 0.52866 0.0
Co138 Co 0.61476 0.2166 0.5652 0.0
C139 C 0.56164 0.22158 0.60363 0.0
O140 O 0.58108 0.24523 0.61442 0.0
N141 N 0.63988 0.18392 0.58391 0.0
C142 C 0.66301 0.15863 0.61411 0.0
C143 C 0.6445 0.18763 0.60597 0.0
C144 C 0.65618 0.152 0.57909 0.0
N145 N 0.67024 0.13595 0.59727 0.0
O146 O 0.59968 0.17678 0.54669 0.0
H147 H 0.63615 0.21055 0.61568 0.0
H148 H 0.65741 0.14045 0.56268 0.0
O149 O 0.57177 0.20975 0.58463 0.0
C150 C 0.62082 0.17577 0.52997 0.0
O151 O 0.64781 0.19867 0.52938 0.0
N152 N 0.63346 0.2572 0.58095 0.0
C153 C 0.66898 0.31785 0.5981 0.0
C154 C 0.63171 0.3185 0.59435 0.0
C155 C 0.6146 0.2882 0.58537 0.0
C156 C 0.67008 0.25717 0.5832 0.0
C157 C 0.68818 0.28668 0.59226 0.0
H158 H 0.58604 0.28967 0.58216 0.0
H159 H 0.6857 0.23429 0.57755 0.0
H160 H 0.53412 0.24884 0.55686 0.0
H161 H 0.58833 0.31448 0.51091 0.0
H162 H 0.67131 0.15508 0.63112 0.0
H163 H 0.61586 0.34225 0.59827 0.0
H164 H 0.71719 0.28553 0.59394 0.0
C165 C 0.257 0.09034 0.77758 0.0
C166 C 0.24076 0.06033 0.76897 0.0
N167 N 0.23729 0.03561 0.78516 0.0
N168 N 0.26427 0.08492 0.79914 0.0
C169 C 0.25156 0.05132 0.80347 0.0
H170 H 0.26252 0.11504 0.76871 0.0
Co171 Co 0.28559 0.12204 0.81532 0.0
C172 C 0.31154 0.09244 0.85815 0.0
O173 O 0.30238 0.12323 0.86741 0.0
N174 N 0.30743 0.16137 0.83049 0.0
C175 C 0.31875 0.21582 0.84441 0.0
C176 C 0.29282 0.19371 0.83569 0.0
C177 C 0.3427 0.16501 0.83593 0.0
N178 N 0.3503 0.19784 0.84467 0.0
O179 O 0.32843 0.11734 0.79715 0.0
H180 H 0.26545 0.20189 0.83269 0.0
H181 H 0.36234 0.14382 0.83338 0.0
O182 O 0.30509 0.08713 0.8375 0.0
C183 C 0.33026 0.14303 0.78308 0.0
O184 O 0.30544 0.16837 0.78382 0.0
N185 N 0.2418 0.12854 0.83079 0.0
C186 C 0.17663 0.151 0.84947 0.0
C187 C 0.19597 0.12205 0.85867 0.0
C188 C 0.22837 0.11077 0.84883 0.0
C189 C 0.2212 0.1537 0.82031 0.0
C190 C 0.18903 0.16595 0.82959 0.0
H191 H 0.24229 0.08796 0.85584 0.0
H192 H 0.23092 0.16578 0.80514 0.0
H193 H 0.25253 0.0388 0.81964 0.0
H194 H 0.23104 0.05746 0.75218 0.0
H195 H 0.31463 0.24361 0.84934 0.0
H196 H 0.18665 0.10885 0.8736 0.0
H197 H 0.17421 0.18728 0.82138 0.0
C198 C 0.39776 0.73114 0.03939 0.0
C199 C 0.42025 0.71082 0.02632 0.0
N200 N 0.45212 0.72791 0.02477 0.0
N201 N 0.41527 0.76086 0.04652 0.0
C202 C 0.44809 0.75866 0.03673 0.0
H203 H 0.37034 0.72433 0.0437 0.0
Co204 Co 0.39299 0.79548 0.06498 0.0
C205 C 0.46858 0.79329 0.08735 0.0
O206 O 0.48125 0.76369 0.07822 0.0
N207 N 0.37008 0.82967 0.08318 0.0
C208 C 0.35329 0.85832 0.11381 0.0
C209 C 0.37439 0.83128 0.10533 0.0
C210 C 0.34595 0.8561 0.07858 0.0
N211 N 0.33516 0.87394 0.09705 0.0
O212 O 0.40548 0.83295 0.04416 0.0
H213 H 0.39159 0.81356 0.11484 0.0
H214 H 0.33595 0.86163 0.06212 0.0
O215 O 0.43701 0.80458 0.08242 0.0
C216 C 0.38411 0.83179 0.02763 0.0
O217 O 0.35881 0.80699 0.02756 0.0
N218 N 0.37738 0.75829 0.0841 0.0
C219 C 0.34577 0.69863 0.10482 0.0
C220 C 0.38309 0.70446 0.10603 0.0
C221 C 0.39843 0.73437 0.09543 0.0
C222 C 0.34098 0.75373 0.08345 0.0
C223 C 0.32462 0.72426 0.09373 0.0
H224 H 0.42719 0.73699 0.09554 0.0
H225 H 0.32462 0.77241 0.07406 0.0
H226 H 0.46873 0.77908 0.03838 0.0
H227 H 0.41404 0.68469 0.01926 0.0
H228 H 0.35172 0.86601 0.13107 0.0
H229 H 0.40055 0.68513 0.11413 0.0
H230 H 0.29569 0.72116 0.09255 0.0
C231 C 0.74622 0.92446 0.27682 0.0
C232 C 0.76801 0.95174 0.26952 0.0
N233 N 0.77484 0.9738 0.28665 0.0
N234 N 0.73907 0.929 0.29854 0.0
C235 C 0.75701 0.95959 0.30417 0.0
H236 H 0.73788 0.90151 0.26707 0.0
Co237 Co 0.71573 0.89214 0.31405 0.0
C238 C 0.69027 0.92059 0.35713 0.0
O239 O 0.70007 0.88948 0.36568 0.0
N240 N 0.69196 0.85329 0.32843 0.0
C241 C 0.67655 0.79882 0.34086 0.0
C242 C 0.70425 0.81967 0.33291 0.0
C243 C 0.65645 0.85183 0.33362 0.0
N244 N 0.64652 0.8191 0.3413 0.0
O245 O 0.67371 0.89822 0.29525 0.0
H246 H 0.73116 0.80991 0.32997 0.0
H247 H 0.63798 0.87411 0.33117 0.0
O248 O 0.69618 0.9269 0.3365 0.0
C249 C 0.67284 0.87286 0.28087 0.0
O250 O 0.69803 0.84792 0.2818 0.0
N251 N 0.7586 0.8841 0.33015 0.0
C252 C 0.82414 0.86233 0.34876 0.0
C253 C 0.80502 0.89191 0.35747 0.0
C254 C 0.77261 0.90288 0.34763 0.0
C255 C 0.77848 0.85765 0.32033 0.0
C256 C 0.81068 0.8457 0.3296 0.0
H257 H 0.75939 0.92664 0.354 0.0
H258 H 0.76844 0.84474 0.3055 0.0
H259 H 0.75893 0.96985 0.3209 0.0
H260 H 0.77947 0.95432 0.25311 0.0
H261 H 0.6783 0.77074 0.34571 0.0
H262 H 0.81515 0.90674 0.37159 0.0
H263 H 0.82428 0.82292 0.32205 0.0
H264 H 0.19823 0.36304 0.25773 0.0
H265 H 0.20015 0.39847 0.29165 0.0
H266 H 0.08509 0.4136 0.28874 0.0
H267 H 0.08305 0.37807 0.2542 0.0
H268 H 0.12287 0.47572 0.30431 0.0
H269 H 0.11435 0.351 0.32189 0.0
H270 H 0.12899 0.28622 0.31888 0.0
H271 H 0.2375 0.30759 0.33949 0.0
H272 H 0.2237 0.37261 0.34227 0.0
H273 H 0.15014 0.54254 0.41434 0.0
H274 H 0.12351 0.50195 0.38655 0.0
H275 H 0.22979 0.4656 0.36801 0.0
H276 H 0.25621 0.5059 0.3955 0.0
H277 H 0.18044 0.41045 0.3667 0.0
H278 H 0.19023 0.53596 0.34189 0.0
H279 H 0.1757 0.60072 0.34569 0.0
H280 H 0.06299 0.57694 0.33965 0.0
H281 H 0.07687 0.51192 0.33621 0.0
C282 C 0.17333 0.37434 0.26406 0.0
C283 C 0.14044 0.36745 0.25342 0.0
C284 C 0.17446 0.39453 0.28352 0.0
C285 C 0.14268 0.40797 0.29306 0.0
C286 C 0.10992 0.40324 0.28175 0.0
C287 C 0.1088 0.38308 0.26201 0.0
C288 C 0.14429 0.4248 0.31544 0.0
C289 C 0.13462 0.46122 0.31812 0.0
C290 C 0.15963 0.40594 0.33353 0.0
C291 C 0.168 0.36675 0.3322 0.0
C292 C 0.1414 0.34193 0.32566 0.0
C293 C 0.14954 0.30516 0.324 0.0
C294 C 0.18416 0.2928 0.32898 0.0
C295 C 0.21069 0.3172 0.33566 0.0
C296 C 0.2027 0.35402 0.33731 0.0
C297 C 0.1676 0.52484 0.40488 0.0
C298 C 0.20521 0.52722 0.40705 0.0
C299 C 0.15242 0.50198 0.38886 0.0
C300 C 0.1747 0.48111 0.37496 0.0
C301 C 0.21204 0.48143 0.37847 0.0
C302 C 0.22714 0.50444 0.39421 0.0
C303 C 0.1603 0.46164 0.35532 0.0
C304 C 0.16769 0.42466 0.35311 0.0
C305 C 0.14272 0.47996 0.33779 0.0
C306 C 0.13454 0.5191 0.33903 0.0
C307 C 0.16234 0.54455 0.34146 0.0
C308 C 0.15423 0.58128 0.34357 0.0
C309 C 0.11843 0.59293 0.34298 0.0
C310 C 0.0907 0.56787 0.34016 0.0
C311 C 0.09867 0.53108 0.33813 0.0
H312 H 0.1122 0.62136 0.34468 0.0
H313 H 0.19042 0.26432 0.32767 0.0
H314 H 0.90897 0.66091 0.62397 0.0
H315 H 0.953 0.64108 0.5967 0.0
H316 H 0.03916 0.67225 0.64049 0.0
H317 H 0.99469 0.69269 0.6681 0.0
H318 H 0.04805 0.69909 0.59877 0.0
H319 H 0.02075 0.58318 0.62986 0.0
H320 H 0.98109 0.53384 0.64229 0.0
H321 H 0.94061 0.52145 0.57621 0.0
H322 H 0.97954 0.57117 0.56345 0.0
H323 H 0.1866 0.63729 0.53154 0.0
H324 H 0.14508 0.64061 0.56273 0.0
H325 H 0.05803 0.60633 0.52047 0.0
H326 H 0.10035 0.60179 0.48905 0.0
H327 H 0.05007 0.57909 0.56209 0.0
H328 H 0.07122 0.69561 0.5311 0.0
H329 H 0.10756 0.74647 0.51722 0.0
H330 H 0.15526 0.75956 0.58141 0.0
H331 H 0.11956 0.70839 0.5956 0.0
C332 C 0.93729 0.6633 0.62798 0.0
C333 C 0.94832 0.6786 0.64821 0.0
C334 C 0.96249 0.65164 0.61237 0.0
C335 C 0.99947 0.65482 0.61653 0.0
C336 C 0.01073 0.66937 0.63693 0.0
C337 C 0.98536 0.68089 0.65274 0.0
C338 C 0.02596 0.64539 0.59885 0.0
C339 C 0.049 0.67259 0.5911 0.0
C340 C 0.02615 0.61128 0.58811 0.0
C341 C 1.00291 0.58113 0.59573 0.0
C342 C 1.00321 0.57013 0.61801 0.0
C343 C 0.98087 0.54205 0.62511 0.0
C344 C 0.95832 0.52454 0.61005 0.0
C345 C 0.95813 0.53501 0.58785 0.0
C346 C 0.98032 0.56314 0.58067 0.0
C347 C 0.15872 0.62981 0.52895 0.0
C348 C 0.14659 0.61955 0.50785 0.0
C349 C 0.13495 0.63189 0.54679 0.0
C350 C 0.09817 0.62471 0.54389 0.0
C351 C 0.08625 0.61226 0.52311 0.0
C352 C 0.11038 0.60957 0.50518 0.0
C353 C 0.07235 0.63271 0.56223 0.0
C354 C 0.04932 0.60542 0.56995 0.0
C355 C 0.07164 0.66696 0.57277 0.0
C356 C 0.09296 0.69794 0.56435 0.0
C357 C 0.08964 0.70917 0.54222 0.0
C358 C 0.1101 0.73807 0.5343 0.0
C359 C 0.13377 0.75618 0.54841 0.0
C360 C 0.13695 0.74548 0.57049 0.0
C361 C 0.11659 0.71654 0.57848 0.0
H362 H 0.14959 0.77856 0.54225 0.0
H363 H 0.94098 0.50287 0.61559 0.0
H364 H 0.83837 0.40603 0.86946 0.0
H365 H 0.85595 0.4515 0.84253 0.0
H366 H 0.83749 0.53533 0.89086 0.0
H367 H 0.8191 0.4896 0.91806 0.0
H368 H 0.80614 0.55114 0.85184 0.0
H369 H 0.92353 0.51143 0.8743 0.0
H370 H 0.97091 0.4665 0.88206 0.0
H371 H 0.96869 0.43167 0.81428 0.0
H372 H 0.92092 0.47605 0.80617 0.0
H373 H 0.86931 0.69187 0.78578 0.0
H374 H 0.86514 0.64785 0.81561 0.0
H375 H 0.88927 0.56209 0.76948 0.0
H376 H 0.89509 0.60679 0.73951 0.0
H377 H 0.9194 0.5477 0.80818 0.0
H378 H 0.801 0.58329 0.78568 0.0
H379 H 0.75182 0.62582 0.77707 0.0
H380 H 0.75374 0.66538 0.84388 0.0
H381 H 0.80331 0.62346 0.8528 0.0
C382 C 0.83827 0.4341 0.87453 0.0
C383 C 0.82721 0.44413 0.89597 0.0
C384 C 0.84862 0.46011 0.85907 0.0
C385 C 0.84849 0.49689 0.86466 0.0
C386 C 0.83797 0.50708 0.88617 0.0
C387 C 0.8276 0.48093 0.90174 0.0
C388 C 0.85724 0.52456 0.84756 0.0
C389 C 0.83123 0.55082 0.84261 0.0
C390 C 0.8894 0.52335 0.83489 0.0
C391 C 0.91843 0.49691 0.83968 0.0
C392 C 0.93297 0.49403 0.86108 0.0
C393 C 0.95993 0.46868 0.86554 0.0
C394 C 0.97275 0.4462 0.84869 0.0
C395 C 0.95872 0.44909 0.82732 0.0
C396 C 0.93173 0.47438 0.82278 0.0
C397 C 0.87419 0.66366 0.78202 0.0
C398 C 0.88221 0.65267 0.7603 0.0
C399 C 0.87158 0.63846 0.79909 0.0
C400 C 0.87578 0.60143 0.79476 0.0
C401 C 0.8856 0.59046 0.77324 0.0
C402 C 0.88898 0.61595 0.75613 0.0
C403 C 0.86836 0.57444 0.81255 0.0
C404 C 0.89446 0.54821 0.81754 0.0
C405 C 0.83606 0.57535 0.82514 0.0
C406 C 0.80611 0.60047 0.81984 0.0
C407 C 0.7911 0.60124 0.79849 0.0
C408 C 0.76314 0.62521 0.79356 0.0
C409 C 0.74973 0.64835 0.80991 0.0
C410 C 0.76419 0.64749 0.83123 0.0
C411 C 0.79221 0.62361 0.83624 0.0
H412 H 0.72807 0.66689 0.80606 0.0
H413 H 0.9936 0.42657 0.85218 0.0
H414 H 0.89392 0.41123 0.9898 0.0
H415 H 0.9391 0.40988 0.01959 0.0
H416 H 0.87014 0.34021 0.05795 0.0
H417 H 0.82545 0.34131 0.02861 0.0
H418 H 0.89914 0.39405 0.08336 0.0
H419 H 0.93897 0.30559 0.02971 0.0
H420 H 0.95777 0.28517 0.99258 0.0
H421 H 0.04632 0.3596 0.99371 0.0
H422 H 0.02766 0.3809 0.03072 0.0
H423 H 0.01856 0.31356 0.16209 0.0
H424 H 0.97365 0.32839 0.13372 0.0
H425 H 0.05474 0.38546 0.09639 0.0
H426 H 0.09958 0.36986 0.12423 0.0
H427 H 0.02075 0.3431 0.06984 0.0
H428 H 0.98371 0.4294 0.12434 0.0
H429 H 0.96478 0.45073 0.16124 0.0
H430 H 0.87163 0.3823 0.15852 0.0
H431 H 0.89025 0.36019 0.1217 0.0
C432 C 0.88845 0.39577 1.00463 0.0
C433 C 0.85617 0.37625 1.00675 0.0
C434 C 0.91425 0.39495 0.02161 0.0
C435 C 0.90801 0.37484 0.041 0.0
C436 C 0.87553 0.35599 0.04322 0.0
C437 C 0.85006 0.35651 0.0263 0.0
C438 C 0.93538 0.37224 0.0589 0.0
C439 C 0.92571 0.38277 0.08045 0.0
C440 C 0.97026 0.35816 0.05504 0.0
C441 C 0.98166 0.34515 0.03287 0.0
C442 C 0.96227 0.31782 0.02196 0.0
C443 C 0.97292 0.30606 1.00095 0.0
C444 C 1.00316 0.32116 0.99076 0.0
C445 C 0.02286 0.34799 1.0016 0.0
C446 C 0.01226 0.35991 0.0226 0.0
C447 C 0.02652 0.3299 0.14805 0.0
C448 C 0.06257 0.34048 0.14535 0.0
C449 C 1.00087 0.33837 0.13181 0.0
C450 C 0.0107 0.35814 0.11281 0.0
C451 C 0.04642 0.36996 0.11071 0.0
C452 C 0.07202 0.36115 0.12672 0.0
C453 C 0.98458 0.36481 0.09449 0.0
C454 C 0.99441 0.35487 0.07281 0.0
C455 C 0.9499 0.37959 0.09824 0.0
C456 C 0.93856 0.39291 0.12034 0.0
C457 C 0.95932 0.4187 0.13167 0.0
C458 C 0.94862 0.43097 0.15257 0.0
C459 C 0.91707 0.41782 0.16224 0.0
C460 C 0.89609 0.39244 0.15101 0.0
C461 C 0.90668 0.38006 0.13012 0.0
H462 H 0.90883 0.42734 0.17842 0.0
H463 H 0.01137 0.31201 0.97449 0.0
H464 H 0.59118 0.1072 0.53012 0.0
H465 H 0.5937 0.06274 0.49972 0.0
H466 H 0.64517 0.14174 0.45792 0.0
H467 H 0.64266 0.18569 0.48785 0.0
H468 H 0.59681 0.10227 0.43459 0.0
H469 H 0.6942 0.08078 0.48633 0.0
H470 H 0.71913 0.06731 0.52323 0.0
H471 H 0.66147 0.96691 0.52459 0.0
H472 H 0.63568 0.98009 0.48784 0.0
H473 H 0.69196 0.99516 0.35428 0.0
H474 H 0.6721 0.0384 0.38276 0.0
H475 H 0.63303 0.95025 0.42276 0.0
H476 H 0.65344 0.9074 0.39486 0.0
H477 H 0.67014 0.99237 0.4477 0.0
H478 H 0.57564 0.011 0.39519 0.0
H479 H 0.54905 0.02441 0.35874 0.0
H480 H 0.59903 0.12892 0.35898 0.0
H481 H 0.62633 0.11594 0.39531 0.0
C482 C 0.60234 0.11514 0.51429 0.0
C483 C 0.61697 0.1498 0.51143 0.0
C484 C 0.60398 0.08973 0.49698 0.0
C485 C 0.62001 0.09879 0.47656 0.0
C486 C 0.63273 0.13402 0.47344 0.0
C487 C 0.63143 0.15909 0.49067 0.0
C488 C 0.62612 0.07142 0.45881 0.0
C489 C 0.61294 0.07827 0.43742 0.0
C490 C 0.6467 0.0398 0.46252 0.0
C491 C 0.66268 0.03162 0.48445 0.0
C492 C 0.68664 0.05595 0.49456 0.0
C493 C 0.70093 0.04837 0.51545 0.0
C494 C 0.6918 0.01633 0.52628 0.0
C495 C 0.66845 0.99176 0.5162 0.0
C496 C 0.65398 0.99927 0.49535 0.0
C497 C 0.67861 0.98519 0.369 0.0
C498 C 0.67447 0.94788 0.37236 0.0
C499 C 0.66723 0.00988 0.3853 0.0
C500 C 0.65097 0.99769 0.40505 0.0
C501 C 0.64574 0.96048 0.40789 0.0
C502 C 0.65737 0.93596 0.39182 0.0
C503 C 0.6409 0.02315 0.42331 0.0
C504 C 0.65358 0.01606 0.44482 0.0
C505 C 0.6197 0.05443 0.41971 0.0
C506 C 0.60331 0.06235 0.39788 0.0
C507 C 0.58119 0.03673 0.38739 0.0
C508 C 0.56595 0.04427 0.36677 0.0
C509 C 0.57242 0.07746 0.35653 0.0
C510 C 0.59408 0.1032 0.36692 0.0
C511 C 0.60942 0.09578 0.38754 0.0
H512 H 0.5606 0.08325 0.34056 0.0
H513 H 0.70289 0.01049 0.54244 0.0
H514 H 0.37081 0.08724 0.76531 0.0
H515 H 0.40846 0.08985 0.73171 0.0
H516 H 0.38746 0.20414 0.72646 0.0
H517 H 0.35005 0.20163 0.75944 0.0
H518 H 0.37546 0.17192 0.68791 0.0
H519 H 0.46926 0.17005 0.74369 0.0
H520 H 0.50272 0.14401 0.77509 0.0
H521 H 0.52609 0.04918 0.73666 0.0
H522 H 0.49233 0.07451 0.70511 0.0
H523 H 0.51132 0.25781 0.62698 0.0
H524 H 0.46888 0.23295 0.65383 0.0
H525 H 0.50186 0.125 0.63605 0.0
H526 H 0.54433 0.15009 0.60868 0.0
H527 H 0.50472 0.13936 0.68225 0.0
H528 H 0.4192 0.14806 0.62409 0.0
H529 H 0.38727 0.17663 0.59293 0.0
H530 H 0.349 0.26056 0.63608 0.0
H531 H 0.38113 0.23281 0.66745 0.0
C532 C 0.37481 0.11295 0.75715 0.0
C533 C 0.35728 0.14418 0.76497 0.0
C534 C 0.3962 0.11442 0.73791 0.0
C535 C 0.40056 0.14718 0.72637 0.0
C536 C 0.38418 0.17845 0.73481 0.0
C537 C 0.36287 0.17698 0.75379 0.0
C538 C 0.42105 0.14956 0.70516 0.0
C539 C 0.40375 0.16482 0.68671 0.0
C540 C 0.45763 0.13914 0.70323 0.0
C541 C 0.47788 0.12394 0.72217 0.0
C542 C 0.48125 0.1435 0.74201 0.0
C543 C 0.50033 0.12891 0.75982 0.0
C544 C 0.51641 0.0949 0.7579 0.0
C545 C 0.51354 0.07547 0.73815 0.0
C546 C 0.49445 0.08994 0.7203 0.0
C547 C 0.50869 0.22874 0.62829 0.0
C548 C 0.53068 0.20585 0.61557 0.0
C549 C 0.48453 0.21453 0.6437 0.0
C550 C 0.48213 0.17708 0.64698 0.0
C551 C 0.5032 0.15397 0.63375 0.0
C552 C 0.52707 0.16826 0.61795 0.0
C553 C 0.4594 0.16302 0.66539 0.0
C554 C 0.47621 0.14561 0.68327 0.0
C555 C 0.42238 0.17168 0.66691 0.0
C556 C 0.40274 0.1884 0.64812 0.0
C557 C 0.40417 0.17274 0.62691 0.0
C558 C 0.38601 0.18878 0.60921 0.0
C559 C 0.36616 0.22041 0.61252 0.0
C560 C 0.36438 0.23604 0.63355 0.0
C561 C 0.38251 0.22013 0.65131 0.0
H562 H 0.35212 0.23279 0.59879 0.0
H563 H 0.53118 0.08365 0.7717 0.0
H564 H 0.41797 0.89821 0.0256 0.0
H565 H 0.41436 0.94244 0.99527 0.0
H566 H 0.35003 0.86792 0.95733 0.0
H567 H 0.35371 0.824 0.98717 0.0
H568 H 0.39808 0.90273 0.93093 0.0
H569 H 0.31049 0.93447 0.98763 0.0
H570 H 0.29327 0.94999 0.02594 0.0
H571 H 0.3626 0.04265 0.02398 0.0
H572 H 0.38052 0.02744 0.98573 0.0
H573 H 0.3047 0.01836 0.85509 0.0
H574 H 0.32424 0.97354 0.88257 0.0
H575 H 0.37356 0.05827 0.92111 0.0
H576 H 0.35291 0.10282 0.89433 0.0
H577 H 0.33809 0.01937 0.9476 0.0
H578 H 0.42289 0.99166 0.89036 0.0
H579 H 0.44324 0.97581 0.85272 0.0
H580 H 0.38356 0.87669 0.85578 0.0
H581 H 0.36247 0.89217 0.89335 0.0
C582 C 0.40354 0.89115 0.01065 0.0
C583 C 0.38587 0.85772 0.0089 0.0
C584 C 0.40135 0.91646 0.99336 0.0
C585 C 0.38157 0.90866 0.97406 0.0
C586 C 0.36542 0.87465 0.97198 0.0
C587 C 0.36739 0.84961 0.98919 0.0
C588 C 0.37542 0.93633 0.95651 0.0
C589 C 0.38484 0.92821 0.93452 0.0
C590 C 0.35875 0.96986 0.9612 0.0
C591 C 0.34709 0.97964 0.98391 0.0
C592 C 0.32214 0.95809 0.9954 0.0
C593 C 0.31226 0.96682 0.0171 0.0
C594 C 0.32692 0.99722 0.0274 0.0
C595 C 0.3513 0.01909 0.01598 0.0
C596 C 0.3613 0.01046 0.99429 0.0
C597 C 0.32022 0.0272 0.86926 0.0
C598 C 0.32718 0.06409 0.87259 0.0
C599 C 0.33146 1.00159 0.88499 0.0
C600 C 0.35061 0.01233 0.90404 0.0
C601 C 0.35864 0.04911 0.90678 0.0
C602 C 0.34692 0.0746 0.89136 0.0
C603 C 0.36071 0.98595 0.92177 0.0
C604 C 0.35179 0.99419 0.94387 0.0
C605 C 0.37815 0.95269 0.91717 0.0
C606 C 0.39083 0.94325 0.8946 0.0
C607 C 0.41389 0.96661 0.88295 0.0
C608 C 0.42559 0.95767 0.86163 0.0
C609 C 0.41462 0.92531 0.85184 0.0
C610 C 0.392 0.90177 0.86338 0.0
C611 C 0.38019 0.9106 0.88469 0.0
H612 H 0.42371 0.91844 0.83534 0.0
H613 H 0.31937 1.00383 0.0442 0.0
H614 H 0.66871 0.82178 0.24888 0.0
H615 H 0.63002 0.82009 0.21665 0.0
H616 H 0.57801 0.91843 0.23771 0.0
H617 H 0.61757 0.92071 0.27053 0.0
H618 H 0.53004 0.85869 0.22063 0.0
H619 H 0.63089 0.92994 0.1989 0.0
H620 H 0.69527 0.94551 0.19621 0.0
H621 H 0.71545 0.84817 0.15952 0.0
H622 H 0.65129 0.83168 0.16233 0.0
H623 H 0.44952 0.85263 0.11238 0.0
H624 H 0.48024 0.87645 0.14511 0.0
H625 H 0.56376 0.7964 0.13728 0.0
H626 H 0.53337 0.77249 0.10467 0.0
H627 H 0.59205 0.86094 0.1478 0.0
H628 H 0.49462 0.78562 0.17449 0.0
H629 H 0.43093 0.76757 0.17777 0.0
H630 H 0.40468 0.87128 0.20534 0.0
H631 H 0.46818 0.89013 0.20191 0.0
C632 C 0.64904 0.84316 0.24691 0.0
C633 C 0.64655 0.87162 0.26232 0.0
C634 C 0.62687 0.84206 0.22836 0.0
C635 C 0.6014 0.86928 0.22461 0.0
C636 C 0.59762 0.89719 0.24028 0.0
C637 C 0.62024 0.89849 0.25898 0.0
C638 C 0.58018 0.8683 0.20375 0.0
C639 C 0.54331 0.86018 0.20465 0.0
C640 C 0.59766 0.86951 0.18292 0.0
C641 C 0.63626 0.87948 0.18094 0.0
C642 C 0.64909 0.91172 0.19039 0.0
C643 C 0.68555 0.92073 0.18883 0.0
C644 C 0.70944 0.89782 0.17772 0.0
C645 C 0.69691 0.86589 0.16812 0.0
C646 C 0.66048 0.85672 0.16967 0.0
C647 C 0.47448 0.84013 0.11756 0.0
C648 C 0.48867 0.81028 0.10596 0.0
C649 C 0.492 0.8538 0.13633 0.0
C650 C 0.52412 0.83796 0.14389 0.0
C651 C 0.539 0.80909 0.13185 0.0
C652 C 0.52149 0.79537 0.11316 0.0
C653 C 0.54201 0.85044 0.16463 0.0
C654 C 0.57842 0.86047 0.1637 0.0
C655 C 0.52407 0.85089 0.18538 0.0
C656 C 0.48603 0.83943 0.18769 0.0
C657 C 0.47521 0.80467 0.1811 0.0
C658 C 0.43916 0.79428 0.183 0.0
C659 C 0.41375 0.81831 0.19169 0.0
C660 C 0.42437 0.85273 0.19856 0.0
C661 C 0.46039 0.86327 0.19665 0.0
H662 H 0.38585 0.81023 0.19314 0.0
H663 H 0.73766 0.90484 0.17654 0.0
H664 H 0.31767 0.92481 0.06619 0.0
H665 H 0.27787 0.97724 0.07164 0.0
H666 H 0.25633 0.94243 0.13843 0.0
H667 H 0.29417 0.8897 0.1328 0.0
H668 H 0.19688 0.96732 0.12055 0.0
H669 H 0.32174 0.00661 0.12423 0.0
H670 H 0.3827 0.01658 0.10922 0.0
H671 H 0.33898 0.08363 0.0579 0.0
H672 H 0.27764 0.07332 0.07229 0.0
H673 H 0.15607 0.11998 0.1853 0.0
H674 H 0.18228 0.06679 0.16757 0.0
H675 H 0.18816 0.12413 0.10559 0.0
H676 H 0.1628 0.17793 0.12341 0.0
H677 H 0.25013 0.08957 0.11376 0.0
H678 H 0.12645 0.05709 0.11282 0.0
H679 H 0.06538 0.04807 0.12786 0.0
H680 H 0.10616 0.96951 0.17367 0.0
H681 H 0.1676 0.97842 0.15912 0.0
C682 C 0.30395 0.92808 0.08188 0.0
C683 C 0.30967 0.90331 0.09918 0.0
C684 C 0.2815 0.95824 0.08505 0.0
C685 C 0.26463 0.96425 0.10561 0.0
C686 C 0.26913 0.93865 0.12247 0.0
C687 C 0.29123 0.90861 0.11929 0.0
C688 C 0.24346 0.99764 0.11033 0.0
C689 C 0.20859 0.99404 0.11911 0.0
C690 C 0.25816 0.03271 0.10779 0.0
C691 C 0.29505 0.03875 0.09914 0.0
C692 C 0.32508 0.02315 0.1096 0.0
C693 C 0.35971 0.02888 0.10121 0.0
C694 C 0.3647 0.05059 0.08255 0.0
C695 C 0.33508 0.06673 0.07231 0.0
C696 C 0.30037 0.06087 0.08054 0.0
C697 C 0.16291 0.12134 0.16789 0.0
C698 C 0.15734 0.15331 0.15581 0.0
C699 C 0.1776 0.09074 0.1577 0.0
C700 C 0.18689 0.09125 0.13515 0.0
C701 C 0.18108 0.123 0.12297 0.0
C702 C 0.16629 0.15364 0.13316 0.0
C703 C 0.2041 0.05906 0.1247 0.0
C704 C 0.23814 0.06292 0.11482 0.0
C705 C 0.18865 0.02421 0.1262 0.0
C706 C 0.1517 0.01861 0.13496 0.0
C707 C 0.12246 0.03807 0.1262 0.0
C708 C 0.08776 0.03295 0.13463 0.0
C709 C 0.0819 0.00828 0.15173 0.0
C710 C 0.11073 0.98862 0.16042 0.0
C711 C 0.1455 0.99366 0.15207 0.0
H712 H 0.05502 1.00435 0.15823 0.0
H713 H 0.39153 0.055 0.07608 0.0
H714 H 0.61744 0.75315 0.33497 0.0
H715 H 0.5582 0.73234 0.3472 0.0
H716 H 0.53595 0.83764 0.37462 0.0
H717 H 0.5955 0.85866 0.36232 0.0
H718 H 0.52129 0.77949 0.40377 0.0
H719 H 0.49397 0.81557 0.32978 0.0
H720 H 0.50241 0.81814 0.28935 0.0
H721 H 0.48654 0.70352 0.28491 0.0
H722 H 0.47857 0.70016 0.32539 0.0
H723 H 0.3402 0.73653 0.42958 0.0
H724 H 0.39341 0.76625 0.41448 0.0
H725 H 0.41914 0.67031 0.37707 0.0
H726 H 0.36495 0.64093 0.3913 0.0
H727 H 0.43016 0.72868 0.35251 0.0
H728 H 0.46252 0.69113 0.42592 0.0
H729 H 0.45602 0.6868 0.46645 0.0
H730 H 0.46435 0.80211 0.47203 0.0
H731 H 0.47041 0.80717 0.43148 0.0
C732 C 0.59992 0.77186 0.3436 0.0
C733 C 0.61105 0.80748 0.34776 0.0
C734 C 0.56602 0.76003 0.35044 0.0
C735 C 0.54264 0.78351 0.3617 0.0
C736 C 0.55359 0.81916 0.36588 0.0
C737 C 0.58742 0.83117 0.35876 0.0
C738 C 0.50731 0.77017 0.3697 0.0
C739 C 0.50102 0.76902 0.39257 0.0
C740 C 0.48138 0.75566 0.35506 0.0
C741 C 0.48597 0.75758 0.33067 0.0
C742 C 0.49258 0.79086 0.32022 0.0
C743 C 0.49722 0.79247 0.29728 0.0
C744 C 0.49509 0.76101 0.28457 0.0
C745 C 0.48822 0.72787 0.29478 0.0
C746 C 0.48359 0.7261 0.31772 0.0
C747 C 0.35681 0.72186 0.41789 0.0
C748 C 0.34822 0.68623 0.41171 0.0
C749 C 0.38751 0.7388 0.40945 0.0
C750 C 0.4106 0.72037 0.39487 0.0
C751 C 0.40182 0.68505 0.38836 0.0
C752 C 0.371 0.66814 0.3967 0.0
C753 C 0.4442 0.73764 0.38666 0.0
C754 C 0.45023 0.73947 0.36374 0.0
C755 C 0.47006 0.75253 0.40127 0.0
C756 C 0.46652 0.74956 0.42565 0.0
C757 C 0.46268 0.71559 0.43578 0.0
C758 C 0.45912 0.713 0.45875 0.0
C759 C 0.45966 0.74417 0.4718 0.0
C760 C 0.46387 0.778 0.4619 0.0
C761 C 0.46739 0.78074 0.43892 0.0
H762 H 0.45691 0.74211 0.48959 0.0
H763 H 0.49868 0.76231 0.26681 0.0
H764 H 0.67472 0.09307 0.63331 0.0
H765 H 0.71301 0.04044 0.63821 0.0
H766 H 0.74721 0.0475 0.57016 0.0
H767 H 0.70934 0.10152 0.56519 0.0
H768 H 0.72893 0.97241 0.58961 0.0
H769 H 0.80465 0.07583 0.60054 0.0
H770 H 0.81909 0.13626 0.61519 0.0
H771 H 0.80735 0.09692 0.68163 0.0
H772 H 0.79225 0.03638 0.66736 0.0
H773 H 0.85847 0.83962 0.62419 0.0
H774 H 0.83275 0.8924 0.60555 0.0
H775 H 0.80378 0.93789 0.6689 0.0
H776 H 0.83094 0.88647 0.68756 0.0
H777 H 0.82808 0.98876 0.64366 0.0
H778 H 0.74306 0.89053 0.63417 0.0
H779 H 0.72361 0.83036 0.62139 0.0
H780 H 0.74873 0.85938 0.55434 0.0
H781 H 0.76877 0.9196 0.56679 0.0
C782 C 0.69042 0.08374 0.61934 0.0
C783 C 0.68957 0.10218 0.599 0.0
C784 C 0.71209 0.05339 0.62214 0.0
C785 C 0.73326 0.04044 0.60466 0.0
C786 C 0.73109 0.05726 0.58388 0.0
C787 C 0.70942 0.08805 0.58107 0.0
C788 C 0.75891 0.01061 0.60904 0.0
C789 C 0.75126 0.97598 0.60096 0.0
C790 C 0.78751 0.01534 0.62418 0.0
C791 C 0.79714 0.05159 0.63286 0.0
C792 C 0.80491 0.08012 0.61827 0.0
C793 C 0.81325 0.11439 0.62651 0.0
C794 C 0.8141 0.12044 0.64933 0.0
C795 C 0.80669 0.09219 0.66395 0.0
C796 C 0.79829 0.05788 0.6558 0.0
C797 C 0.84717 0.86117 0.63415 0.0
C798 C 0.84644 0.85853 0.6574 0.0
C799 C 0.8321 0.89116 0.62345 0.0
C800 C 0.81573 0.91892 0.63577 0.0
C801 C 0.81606 0.91681 0.65897 0.0
C802 C 0.8313 0.88711 0.66964 0.0
C803 C 0.79748 0.95002 0.62487 0.0
C804 C 0.80648 0.98506 0.63181 0.0
C805 C 0.76987 0.9455 0.6089 0.0
C806 C 0.75788 0.90934 0.60144 0.0
C807 C 0.74473 0.88395 0.61673 0.0
C808 C 0.73354 0.84987 0.60954 0.0
C809 C 0.73506 0.841 0.58708 0.0
C810 C 0.74766 0.86625 0.57174 0.0
C811 C 0.75894 0.90035 0.57885 0.0
H812 H 0.72638 0.81461 0.58154 0.0
H813 H 0.82054 0.14699 0.65568 0.0
H814 H 0.36225 0.25713 0.87033 0.0
H815 H 0.41986 0.28294 0.8807 0.0
H816 H 0.47522 0.19626 0.84729 0.0
H817 H 0.41744 0.17061 0.83592 0.0
H818 H 0.50124 0.21418 0.89181 0.0
H819 H 0.47533 0.27072 0.8221 0.0
H820 H 0.43738 0.30354 0.79538 0.0
H821 H 0.42979 0.39333 0.84018 0.0
H822 H 0.46726 0.3608 0.86733 0.0
H823 H 0.6726 0.29548 0.90243 0.0
H824 H 0.61902 0.26636 0.88694 0.0
H825 H 0.55567 0.3605 0.90354 0.0
H826 H 0.60986 0.39013 0.91817 0.0
H827 H 0.53506 0.33636 0.86529 0.0
H828 H 0.55627 0.281 0.93577 0.0
H829 H 0.59144 0.24909 0.9643 0.0
H830 H 0.60481 0.15847 0.92064 0.0
H831 H 0.57012 0.19006 0.89172 0.0
C832 C 0.38643 0.24355 0.86483 0.0
C833 C 0.38476 0.21186 0.8519 0.0
C834 C 0.41948 0.25836 0.87095 0.0
C835 C 0.45176 0.24174 0.86457 0.0
C836 C 0.45051 0.20954 0.85233 0.0
C837 C 0.41734 0.19485 0.84591 0.0
C838 C 0.48663 0.2585 0.87066 0.0
C839 C 0.50906 0.24059 0.88572 0.0
C840 C 0.49614 0.29341 0.8632 0.0
C841 C 0.47385 0.31318 0.84683 0.0
C842 C 0.46533 0.29734 0.82633 0.0
C843 C 0.44394 0.31592 0.81109 0.0
C844 C 0.43111 0.35047 0.8161 0.0
C845 C 0.43972 0.36655 0.83633 0.0
C846 C 0.46107 0.34807 0.85165 0.0
C847 C 0.64721 0.30995 0.90251 0.0
C848 C 0.64506 0.34488 0.91142 0.0
C849 C 0.61658 0.29326 0.89384 0.0
C850 C 0.58303 0.31087 0.89447 0.0
C851 C 0.58117 0.34627 0.90291 0.0
C852 C 0.61199 0.36319 0.91128 0.0
C853 C 0.54983 0.29222 0.88666 0.0
C854 C 0.52757 0.30981 0.87129 0.0
C855 C 0.54022 0.25719 0.8941 0.0
C856 C 0.56093 0.23805 0.9115 0.0
C857 C 0.56693 0.25437 0.9322 0.0
C858 C 0.58675 0.23633 0.94844 0.0
C859 C 0.60043 0.20181 0.94426 0.0
C860 C 0.59424 0.18523 0.92384 0.0
C861 C 0.57449 0.20318 0.90752 0.0
H862 H 0.61577 0.18789 0.95686 0.0
H863 H 0.41456 0.36481 0.80427 0.0
H864 H 0.72201 0.31916 0.62952 0.0
H865 H 0.7547 0.37177 0.64362 0.0
H866 H 0.692 0.44136 0.60137 0.0
H867 H 0.65958 0.38887 0.58696 0.0
H868 H 0.76478 0.45709 0.6 0.0
H869 H 0.67299 0.43562 0.65547 0.0
H870 H 0.64032 0.39905 0.68303 0.0
H871 H 0.73811 0.3837 0.71967 0.0
H872 H 0.77148 0.4198 0.69215 0.0
H873 H 0.77791 0.63077 0.64476 0.0
H874 H 0.75915 0.57136 0.6319 0.0
H875 H 0.8287 0.52106 0.67999 0.0
H876 H 0.84718 0.58102 0.69332 0.0
H877 H 0.7612 0.49079 0.67948 0.0
H878 H 0.85153 0.51928 0.62711 0.0
H879 H 0.8842 0.55714 0.60029 0.0
H880 H 0.79178 0.55831 0.55773 0.0
H881 H 0.75802 0.52147 0.58464 0.0
C882 C 0.71528 0.34567 0.62318 0.0
C883 C 0.68811 0.34987 0.60717 0.0
C884 C 0.73386 0.3757 0.63134 0.0
C885 C 0.72568 0.4105 0.62362 0.0
C886 C 0.69874 0.41475 0.60755 0.0
C887 C 0.68 0.38477 0.59949 0.0
C888 C 0.74499 0.44262 0.63229 0.0
C889 C 0.7638 0.46464 0.61734 0.0
C890 C 0.74486 0.45167 0.65506 0.0
C891 C 0.7248 0.43003 0.67161 0.0
C892 C 0.68759 0.42417 0.6693 0.0
C893 C 0.66893 0.40359 0.68493 0.0
C894 C 0.68715 0.38896 0.70305 0.0
C895 C 0.72405 0.39498 0.70561 0.0
C896 C 0.74284 0.41551 0.69 0.0
C897 C 0.78918 0.60712 0.65267 0.0
C898 C 0.81387 0.6106 0.67015 0.0
C899 C 0.77869 0.57314 0.64515 0.0
C900 C 0.79275 0.54174 0.65484 0.0
C901 C 0.81762 0.54497 0.67223 0.0
C902 C 0.82834 0.57916 0.67972 0.0
C903 C 0.78019 0.50584 0.64708 0.0
C904 C 0.76269 0.48303 0.66218 0.0
C905 C 0.78174 0.49595 0.62445 0.0
C906 C 0.80211 0.51774 0.60801 0.0
C907 C 0.83802 0.52782 0.61212 0.0
C908 C 0.85677 0.54908 0.59689 0.0
C909 C 0.84013 0.56002 0.57729 0.0
C910 C 0.80465 0.54978 0.57292 0.0
C911 C 0.78566 0.52874 0.58817 0.0
H912 H 0.85474 0.57644 0.56551 0.0
H913 H 0.67266 0.37304 0.71514 0.0
H914 H 0.16068 0.22204 0.85611 0.0
H915 H 0.1064 0.24806 0.87261 0.0
H916 H 0.06481 0.14111 0.88444 0.0
H917 H 0.11922 0.11479 0.86773 0.0
H918 H 0.015 0.18612 0.86474 0.0
H919 H 0.09447 0.19031 0.92682 0.0
H920 H 0.15017 0.20472 0.94711 0.0
H921 H 0.13284 0.31784 0.93565 0.0
H922 H 0.0773 0.30408 0.91498 0.0
H923 H 0.86649 0.2398 0.92984 0.0
H924 H 0.92318 0.21264 0.91813 0.0
H925 H 0.96786 0.31852 0.90705 0.0
H926 H 0.91076 0.34608 0.91855 0.0
H927 H 0.01627 0.27316 0.92726 0.0
H928 H 0.9391 0.26957 0.86392 0.0
H929 H 0.88355 0.25611 0.84322 0.0
H930 H 0.89706 0.14298 0.85644 0.0
H931 H 0.95246 0.15583 0.87751 0.0
C932 C 0.13998 0.20402 0.86222 0.0
C933 C 0.14415 0.16634 0.8605 0.0
C934 C 0.10909 0.21895 0.87182 0.0
C935 C 0.08161 0.19656 0.87991 0.0
C936 C 0.08574 0.15889 0.87836 0.0
C937 C 0.11688 0.14389 0.86893 0.0
C938 C 0.04801 0.21268 0.88906 0.0
C939 C 0.01522 0.20466 0.87866 0.0
C940 C 0.04841 0.23775 0.90679 0.0
C941 C 0.0819 0.24612 0.91913 0.0
C942 C 0.10271 0.21824 0.92843 0.0
C943 C 0.13423 0.2263 0.94004 0.0
C944 C 0.14509 0.26216 0.94262 0.0
C945 C 0.12442 0.29006 0.93362 0.0
C946 C 0.09291 0.28215 0.92196 0.0
C947 C 0.88817 0.25744 0.92477 0.0
C948 C 0.88373 0.29521 0.92486 0.0
C949 C 0.9207 0.2418 0.91815 0.0
C950 C 0.94962 0.26349 0.91137 0.0
C951 C 0.94586 0.30123 0.91217 0.0
C952 C 0.9132 0.31696 0.91879 0.0
C953 C 0.98333 0.24656 0.90293 0.0
C954 C 0.01609 0.2545 0.9134 0.0
C955 C 0.983 0.22154 0.88517 0.0
C956 C 0.94973 0.2137 0.87249 0.0
C957 C 0.93007 0.24185 0.86257 0.0
C958 C 0.89863 0.23433 0.85075 0.0
C959 C 0.88672 0.19873 0.84857 0.0
C960 C 0.90628 0.17056 0.85817 0.0
C961 C 0.93772 0.17794 0.87005 0.0
H962 H 0.86239 0.19296 0.8394 0.0
H963 H 0.16948 0.26835 0.95163 0.0
H964 H 0.36026 0.66402 0.14407 0.0
H965 H 0.33433 0.60737 0.15765 0.0
H966 H 0.26855 0.60018 0.09904 0.0
H967 H 0.29413 0.65665 0.08549 0.0
H968 H 0.23005 0.58156 0.13362 0.0
H969 H 0.34668 0.55046 0.10492 0.0
H970 H 0.41273 0.55479 0.10154 0.0
H971 H 0.42433 0.52642 0.17004 0.0
H972 H 0.35828 0.52241 0.1739 0.0
H973 H 0.24547 0.37228 0.14318 0.0
H974 H 0.2702 0.43083 0.13253 0.0
H975 H 0.20747 0.48251 0.18372 0.0
H976 H 0.18253 0.42394 0.1944 0.0
H977 H 0.31009 0.47905 0.15309 0.0
H978 H 0.18282 0.56681 0.16648 0.0
H979 H 0.1167 0.56028 0.16587 0.0
H980 H 0.12618 0.47116 0.12069 0.0
H981 H 0.19228 0.47751 0.12078 0.0
C982 C 0.3403 0.65033 0.13408 0.0
C983 C 0.32927 0.66494 0.1137 0.0
C984 C 0.32547 0.61795 0.14186 0.0
C985 C 0.29967 0.59925 0.12928 0.0
C986 C 0.28824 0.61412 0.10912 0.0
C987 C 0.30286 0.64652 0.10141 0.0
C988 C 0.28509 0.5638 0.13674 0.0
C989 C 0.24758 0.55922 0.13799 0.0
C990 C 0.30784 0.53433 0.14206 0.0
C991 C 0.34754 0.53651 0.13975 0.0
C992 C 0.36331 0.5454 0.1193 0.0
C993 C 0.40075 0.54776 0.11729 0.0
C994 C 0.42271 0.54098 0.13558 0.0
C995 C 0.40728 0.53172 0.1559 0.0
C996 C 0.36985 0.52938 0.15801 0.0
C997 C 0.23711 0.39603 0.15229 0.0
C998 C 0.21187 0.39336 0.1696 0.0
C999 C 0.25126 0.42955 0.14616 0.0
C1000 C 0.24052 0.46121 0.15717 0.0
C1001 C 0.21574 0.45859 0.1747 0.0
C1002 C 0.20141 0.42507 0.18076 0.0
C1003 C 0.25506 0.49688 0.1501 0.0
C1004 C 0.29256 0.50149 0.14893 0.0
C1005 C 0.23229 0.52609 0.14432 0.0
C1006 C 0.19252 0.52241 0.14385 0.0
C1007 C 0.17077 0.54592 0.15635 0.0
C1008 C 0.1333 0.54224 0.1561 0.0
C1009 C 0.11726 0.51524 0.14331 0.0
C1010 C 0.13865 0.49198 0.13066 0.0
C1011 C 0.17611 0.49559 0.13082 0.0
H1012 H 0.08826 0.51241 0.14317 0.0
H1013 H 0.45168 0.54282 0.13399 0.0
H1014 H 0.88471 0.83453 0.32887 0.0
H1015 H 0.93495 0.80345 0.34649 0.0
H1016 H 0.89085 0.82785 0.41078 0.0
H1017 H 0.83922 0.85768 0.3933 0.0
H1018 H 0.9739 0.83666 0.40258 0.0
H1019 H 0.87463 0.75251 0.39964 0.0
H1020 H 0.8242 0.72172 0.38104 0.0
H1021 H 0.89704 0.67868 0.33242 0.0
H1022 H 0.94783 0.70974 0.35054 0.0
H1023 H 0.09939 0.70952 0.44885 0.0
H1024 H 0.04402 0.74417 0.44261 0.0
H1025 H 0.03948 0.70398 0.37562 0.0
H1026 H 0.09305 0.6681 0.38207 0.0
H1027 H 0.9756 0.70382 0.39154 0.0
H1028 H 0.0727 0.79094 0.39026 0.0
H1029 H 0.12461 0.82384 0.40574 0.0
H1030 H 0.05867 0.8627 0.45916 0.0
H1031 H 0.00645 0.82965 0.44412 0.0
C1032 C 0.88543 0.83329 0.34676 0.0
C1033 C 0.85738 0.84812 0.3596 0.0
C1034 C 0.91443 0.81579 0.3568 0.0
C1035 C 0.91641 0.81317 0.37989 0.0
C1036 C 0.88976 0.8297 0.3929 0.0
C1037 C 0.86035 0.84686 0.38285 0.0
C1038 C 0.94499 0.7907 0.39005 0.0
C1039 C 0.97406 0.80752 0.40064 0.0
C1040 C 0.94536 0.75284 0.38709 0.0
C1041 C 0.91497 0.7337 0.37634 0.0
C1042 C 0.87984 0.73673 0.38488 0.0
C1043 C 0.8512 0.71919 0.37444 0.0
C1044 C 0.8574 0.69832 0.35553 0.0
C1045 C 0.89227 0.69487 0.34706 0.0
C1046 C 0.921 0.71241 0.35742 0.0
C1047 C 0.08632 0.7077 0.43291 0.0
C1048 C 0.10116 0.68633 0.41589 0.0
C1049 C 0.05483 0.72784 0.42927 0.0
C1050 C 0.03779 0.72724 0.40849 0.0
C1051 C 0.05207 0.70513 0.39177 0.0
C1052 C 0.08314 0.68486 0.39543 0.0
C1053 C 0.00539 0.7497 0.40367 0.0
C1054 C 0.9754 0.73286 0.39399 0.0
C1055 C 0.00452 0.78758 0.40721 0.0
C1056 C 0.03582 0.80748 0.41623 0.0
C1057 C 0.06936 0.80628 0.4054 0.0
C1058 C 0.09881 0.82499 0.41408 0.0
C1059 C 0.09497 0.84524 0.43347 0.0
C1060 C 0.06163 0.84693 0.44418 0.0
C1061 C 0.03209 0.82823 0.43558 0.0
H1062 H 0.11781 0.85971 0.44016 0.0
H1063 H 0.83519 0.68476 0.34747 0.0
H1064 H 0.84474 0.96675 0.27699 0.0
H1065 H 0.8871 0.01536 0.2684 0.0
H1066 H 0.80566 0.09425 0.28481 0.0
H1067 H 0.76316 0.04501 0.29348 0.0
H1068 H 0.83636 0.10791 0.24463 0.0
H1069 H 0.87852 0.08551 0.31736 0.0
H1070 H 0.89937 0.04969 0.34922 0.0
H1071 H 0.99078 0.01321 0.31173 0.0
H1072 H 0.97018 0.0484 0.27949 0.0
H1073 H 0.96167 0.2566 0.24294 0.0
H1074 H 0.91639 0.21086 0.2523 0.0
H1075 H 0.98749 0.12732 0.2283 0.0
H1076 H 0.03254 0.17347 0.21843 0.0
H1077 H 0.96106 0.11812 0.27329 0.0
H1078 H 0.91655 0.14103 0.20014 0.0
H1079 H 0.89513 0.17878 0.16926 0.0
H1080 H 0.80732 0.21698 0.20929 0.0
H1081 H 0.82856 0.17984 0.24055 0.0
C1082 C 0.83635 0.99452 0.27934 0.0
C1083 C 0.80103 1.00233 0.28615 0.0
C1084 C 0.86046 0.02229 0.27439 0.0
C1085 C 0.84969 0.05856 0.27601 0.0
C1086 C 0.81461 0.06648 0.28349 0.0
C1087 C 0.79051 0.03851 0.28867 0.0
C1088 C 0.8745 0.08769 0.26844 0.0
C1089 C 0.8634 0.11056 0.25119 0.0
C1090 C 0.91011 0.09069 0.27661 0.0
C1091 C 0.9226 0.06934 0.29592 0.0
C1092 C 0.90289 0.06958 0.31583 0.0
C1093 C 0.9147 0.04944 0.33398 0.0
C1094 C 0.94633 0.02911 0.33249 0.0
C1095 C 0.96625 0.02894 0.31285 0.0
C1096 C 0.95454 0.04901 0.29464 0.0
C1097 C 0.96706 0.22853 0.23909 0.0
C1098 C 1.00027 0.21846 0.22977 0.0
C1099 C 0.94133 0.20245 0.24451 0.0
C1100 C 0.9486 0.16568 0.24107 0.0
C1101 C 0.98134 0.15558 0.23107 0.0
C1102 C 0.00685 0.18184 0.22523 0.0
C1103 C 0.92301 0.13792 0.24937 0.0
C1104 C 0.93397 0.11543 0.26679 0.0
C1105 C 0.88721 0.13555 0.24152 0.0
C1106 C 0.87439 0.15795 0.22277 0.0
C1107 C 0.89289 0.15776 0.20244 0.0
C1108 C 0.88073 0.17898 0.18485 0.0
C1109 C 0.84995 0.20035 0.18733 0.0
C1110 C 0.8312 0.20046 0.2074 0.0
C1111 C 0.84327 0.1793 0.22506 0.0
H1112 H 0.84056 0.21675 0.17369 0.0
H1113 H 0.95544 0.01355 0.34656 0.0
H1114 H 0.54784 0.35921 0.52636 0.0
H1115 H 0.49485 0.39734 0.52135 0.0
H1116 H 0.42628 0.30381 0.52605 0.0
H1117 H 0.47983 0.26516 0.53131 0.0
H1118 H 0.41142 0.35569 0.48871 0.0
H1119 H 0.42312 0.35189 0.56744 0.0
H1120 H 0.45595 0.35463 0.60282 0.0
H1121 H 0.48645 0.46426 0.58937 0.0
H1122 H 0.45428 0.46199 0.55372 0.0
H1123 H 0.26392 0.48395 0.48916 0.0
H1124 H 0.3021 0.43144 0.49756 0.0
H1125 H 0.39037 0.50281 0.51288 0.0
H1126 H 0.35264 0.55476 0.50475 0.0
H1127 H 0.38632 0.45285 0.54322 0.0
H1128 H 0.38346 0.45446 0.46305 0.0
H1129 H 0.35378 0.45279 0.42657 0.0
H1130 H 0.30907 0.3488 0.44172 0.0
H1131 H 0.33813 0.35009 0.47842 0.0
C1132 C 0.52155 0.34664 0.52618 0.0
C1133 C 0.51801 0.30913 0.52908 0.0
C1134 C 0.49126 0.3685 0.52342 0.0
C1135 C 0.45664 0.35344 0.52331 0.0
C1136 C 0.4528 0.31594 0.52604 0.0
C1137 C 0.48328 0.29398 0.52917 0.0
C1138 C 0.42492 0.37759 0.52063 0.0
C1139 C 0.40525 0.37644 0.50083 0.0
C1140 C 0.41739 0.40502 0.53627 0.0
C1141 C 0.43645 0.40668 0.55783 0.0
C1142 C 0.43705 0.3765 0.57194 0.0
C1143 C 0.45551 0.37798 0.59206 0.0
C1144 C 0.47332 0.40958 0.59833 0.0
C1145 C 0.47264 0.4398 0.5845 0.0
C1146 C 0.45425 0.43844 0.56434 0.0
C1147 C 0.29151 0.48832 0.49425 0.0
C1148 C 0.30504 0.52363 0.49649 0.0
C1149 C 0.31333 0.45831 0.49905 0.0
C1150 C 0.34926 0.46305 0.50586 0.0
C1151 C 0.36271 0.49829 0.50791 0.0
C1152 C 0.34097 0.52811 0.5033 0.0
C1153 C 0.37336 0.43182 0.51093 0.0
C1154 C 0.39176 0.43168 0.53124 0.0
C1155 C 0.37986 0.40344 0.49565 0.0
C1156 C 0.36257 0.40258 0.47357 0.0
C1157 C 0.36707 0.43137 0.45866 0.0
C1158 C 0.3504 0.43047 0.43794 0.0
C1159 C 0.32945 0.40076 0.43186 0.0
C1160 C 0.32523 0.37183 0.44647 0.0
C1161 C 0.3418 0.37262 0.46723 0.0
H1162 H 0.31656 0.40012 0.41582 0.0
H1163 H 0.48761 0.41067 0.61391 0.0
H1164 H 0.00494 0.78161 0.77602 0.0
H1165 H 0.05745 0.81834 0.78506 0.0
H1166 H 0.07697 0.83612 0.71558 0.0
H1167 H 0.0237 0.79925 0.70644 0.0
H1168 H 0.14232 0.82757 0.74411 0.0
H1169 H 0.0321 0.89667 0.73903 0.0
H1170 H 0.96828 0.90897 0.7475 0.0
H1171 H 0.99311 0.9158 0.81675 0.0
H1172 H 0.05703 0.90289 0.80871 0.0
H1173 H 0.23568 0.99387 0.74852 0.0
H1174 H 0.19785 0.94142 0.74191 0.0
H1175 H 0.16083 0.94542 0.80958 0.0
H1176 H 0.19794 0.99934 0.81602 0.0
H1177 H 0.1057 0.93981 0.78317 0.0
H1178 H 0.21608 0.87543 0.78902 0.0
H1179 H 0.27986 0.86108 0.78175 0.0
H1180 H 0.2561 0.84361 0.71306 0.0
H1181 H 0.19223 0.85836 0.71984 0.0
C1182 C 0.02086 0.7927 0.76264 0.0
C1183 C 0.01 0.78799 0.74054 0.0
C1184 C 0.05088 0.81364 0.76783 0.0
C1185 C 0.07078 0.83044 0.75103 0.0
C1186 C 0.06191 0.82341 0.7288 0.0
C1187 C 0.03162 0.80229 0.72357 0.0
C1188 C 0.09787 0.85836 0.75699 0.0
C1189 C 0.13441 0.85235 0.75239 0.0
C1190 C 0.08759 0.89013 0.76846 0.0
C1191 C 0.04927 0.89845 0.77329 0.0
C1192 C 0.0239 0.90051 0.75608 0.0
C1193 C 0.98772 0.90762 0.7608 0.0
C1194 C 0.97663 0.91307 0.78265 0.0
C1195 C 1.00173 0.91152 0.79983 0.0
C1196 C 0.03794 0.90432 0.7952 0.0
C1197 C 0.21971 0.98349 0.76209 0.0
C1198 C 0.21951 1.00112 0.78275 0.0
C1199 C 0.19834 0.95311 0.75834 0.0
C1200 C 0.17652 0.93909 0.77524 0.0
C1201 C 0.17743 0.95566 0.79624 0.0
C1202 C 0.19886 0.9863 0.79999 0.0
C1203 C 0.15059 0.90935 0.77028 0.0
C1204 C 0.11399 0.91502 0.77503 0.0
C1205 C 0.16098 0.87721 0.7591 0.0
C1206 C 0.19938 0.8683 0.75492 0.0
C1207 C 0.22449 0.86881 0.77233 0.0
C1208 C 0.26066 0.86055 0.7683 0.0
C1209 C 0.27204 0.85152 0.74695 0.0
C1210 C 0.24725 0.85064 0.72959 0.0
C1211 C 0.21104 0.8589 0.73352 0.0
H1212 H 0.30005 0.84513 0.74386 0.0
H1213 H 0.9486 0.91858 0.78628 0.0
H1214 H 0.67879 0.49684 0.95034 0.0
H1215 H 0.63457 0.546 0.95401 0.0
H1216 H 0.69618 0.59102 1.00784 0.0
H1217 H 0.73971 0.54184 1.00439 0.0
H1218 H 0.62948 0.58395 0.02011 0.0
H1219 H 0.68818 0.63357 0.95651 0.0
H1220 H 0.71244 0.63387 0.91851 0.0
H1221 H 0.60672 0.61373 0.89264 0.0
H1222 H 0.58189 0.6128 0.93053 0.0
H1223 H 0.52089 0.73697 0.03896 0.0
H1224 H 0.57388 0.70284 0.02665 0.0
H1225 H 0.50968 0.64961 0.97701 0.0
H1226 H 0.45686 0.68402 0.98903 0.0
H1227 H 0.57886 0.66337 0.96187 0.0
H1228 H 0.52172 0.60961 0.02553 0.0
H1229 H 0.49733 0.60946 0.06351 0.0
H1230 H 0.60142 0.63751 0.08911 0.0
H1231 H 0.62631 0.63833 0.0512 0.0
C1232 C 0.68326 0.5178 0.96253 0.0
C1233 C 0.71253 0.51542 0.97718 0.0
C1234 C 0.65798 0.54589 0.96467 0.0
C1235 C 0.66186 0.57231 0.9813 0.0
C1236 C 0.69228 0.57091 0.99504 0.0
C1237 C 0.71722 0.54283 0.99302 0.0
C1238 C 0.63301 0.59954 0.98581 0.0
C1239 C 0.61899 0.60173 1.00739 0.0
C1240 C 0.61842 0.62221 0.96919 0.0
C1241 C 0.63324 0.62276 0.94639 0.0
C1242 C 0.67015 0.62889 0.94273 0.0
C1243 C 0.68399 0.62924 0.92121 0.0
C1244 C 0.66115 0.62373 0.90317 0.0
C1245 C 0.6244 0.61795 0.90663 0.0
C1246 C 0.61041 0.61754 0.92812 0.0
C1247 C 0.51829 0.71874 0.02504 0.0
C1248 C 0.48453 0.71292 0.01515 0.0
C1249 C 0.54855 0.69903 0.0181 0.0
C1250 C 0.54567 0.67319 1.00111 0.0
C1251 C 0.5126 0.66923 0.99019 0.0
C1252 C 0.48235 0.68876 0.99719 0.0
C1253 C 0.57592 0.64789 0.99615 0.0
C1254 C 0.58985 0.64583 0.97454 0.0
C1255 C 0.59059 0.62525 0.01272 0.0
C1256 C 0.57577 0.62442 0.03553 0.0
C1257 C 0.53934 0.616 0.03925 0.0
C1258 C 0.52543 0.61576 0.06076 0.0
C1259 C 0.54779 0.62358 0.07871 0.0
C1260 C 0.58413 0.63153 0.07518 0.0
C1261 C 0.59815 0.63187 0.05369 0.0
H1262 H 0.53698 0.62338 0.09535 0.0
H1263 H 0.67192 0.62402 0.88652 0.0
loop_
_geom_bond_atom_site_label_1
_geom_bond_atom_site_label_2
_geom_bond_distance
_geom_bond_site_symmetry_2
_ccdc_geom_bond_type
C0 C1 1.351 . S
C0 N3 1.368 . S
C0 H5 0.931 . S
C1 C0 1.351 . S
C1 N2 1.373 . S
C1 H29 0.930 . S
N2 C1 1.373 . S
N2 C4 1.340 . S
N3 C0 1.368 . S
N3 C4 1.321 . S
N3 Co6 2.135 . S
C4 N2 1.340 . S
C4 N3 1.321 . S
C4 H28 0.930 . S
H5 C0 0.931 . S
Co6 N3 2.135 . S
Co6 N9 2.121 . S
Co6 O14 2.055 . S
Co6 O17 2.039 . S
Co6 N20 2.140 . S
C7 O8 1.227 . S
C7 O17 1.265 . S
O8 C7 1.227 . S
N9 Co6 2.121 . S
N9 C11 1.375 . S
N9 C12 1.313 . S
C10 C11 1.338 . S
C10 N13 1.377 . S
C10 H30 0.930 . S
C11 N9 1.375 . S
C11 C10 1.338 . S
C11 H15 0.931 . S
C12 N9 1.313 . S
C12 N13 1.344 . S
C12 H16 0.930 . S
N13 C10 1.377 . S
N13 C12 1.344 . S
O14 Co6 2.055 . S
O14 C18 1.253 . S
H15 C11 0.931 . S
H16 C12 0.930 . S
O17 Co6 2.039 . S
O17 C7 1.265 . S
C18 O14 1.253 . S
C18 O19 1.227 . S
O19 C18 1.227 . S
N20 Co6 2.140 . S
N20 C23 1.346 . S
N20 C24 1.345 . S
C21 C22 1.387 . S
C21 C25 1.391 . S
C22 C21 1.387 . S
C22 C23 1.369 . S
C22 H31 0.929 . S
C23 N20 1.346 . S
C23 C22 1.369 . S
C23 H26 0.928 . S
C24 N20 1.345 . S
C24 C25 1.371 . S
C24 H27 0.931 . S
C25 C21 1.391 . S
C25 C24 1.371 . S
C25 H32 0.930 . S
H26 C23 0.928 . S
H27 C24 0.931 . S
H28 C4 0.930 . S
H29 C1 0.930 . S
H30 C10 0.930 . S
H31 C22 0.929 . S
H32 C25 0.930 . S
C33 C34 1.351 . S
C33 N36 1.368 . S
C33 H38 0.931 . S
C34 C33 1.351 . S
C34 N35 1.373 . S
C34 H62 0.930 . S
N35 C34 1.373 . S
N35 C37 1.340 . S
N36 C33 1.368 . S
N36 C37 1.321 . S
N36 Co39 2.135 . S
C37 N35 1.340 . S
C37 N36 1.321 . S
C37 H61 0.930 . S
H38 C33 0.931 . S
Co39 N36 2.135 . S
Co39 N42 2.121 . S
Co39 O47 2.055 . S
Co39 O50 2.039 . S
Co39 N53 2.140 . S
C40 O41 1.227 . S
C40 O50 1.265 . S
O41 C40 1.227 . S
N42 Co39 2.121 . S
N42 C44 1.375 . S
N42 C45 1.313 . S
C43 C44 1.338 . S
C43 N46 1.377 . S
C43 H63 0.930 . S
C44 N42 1.375 . S
C44 C43 1.338 . S
C44 H48 0.931 . S
C45 N42 1.313 . S
C45 N46 1.344 . S
C45 H49 0.930 . S
N46 C43 1.377 . S
N46 C45 1.344 . S
O47 Co39 2.055 . S
O47 C51 1.253 . S
H48 C44 0.931 . S
H49 C45 0.930 . S
O50 Co39 2.039 . S
O50 C40 1.265 . S
C51 O47 1.253 . S
C51 O52 1.227 . S
O52 C51 1.227 . S
N53 Co39 2.140 . S
N53 C56 1.346 . S
N53 C57 1.345 . S
C54 C55 1.387 . S
C54 C58 1.391 . S
C55 C54 1.387 . S
C55 C56 1.369 . S
C55 H64 0.929 . S
C56 N53 1.346 . S
C56 C55 1.369 . S
C56 H59 0.928 . S
C57 N53 1.345 . S
C57 C58 1.371 . S
C57 H60 0.931 . S
C58 C54 1.391 . S
C58 C57 1.371 . S
C58 H65 0.930 . S
H59 C56 0.928 . S
H60 C57 0.931 . S
H61 C37 0.930 . S
H62 C34 0.930 . S
H63 C43 0.930 . S
H64 C55 0.929 . S
H65 C58 0.930 . S
C66 C67 1.351 . S
C66 N69 1.368 . S
C66 H71 0.931 . S
C67 C66 1.351 . S
C67 N68 1.373 . S
C67 H95 0.930 . S
N68 C67 1.373 . S
N68 C70 1.340 . S
N69 C66 1.368 . S
N69 C70 1.321 . S
N69 Co72 2.135 . S
C70 N68 1.340 . S
C70 N69 1.321 . S
C70 H94 0.930 . S
H71 C66 0.931 . S
Co72 N69 2.135 . S
Co72 N75 2.121 . S
Co72 O80 2.055 . S
Co72 O83 2.039 . S
Co72 N86 2.140 . S
C73 O74 1.227 . S
C73 O83 1.265 . S
O74 C73 1.227 . S
N75 Co72 2.121 . S
N75 C77 1.375 . S
N75 C78 1.313 . S
C76 C77 1.338 . S
C76 N79 1.377 . S
C76 H96 0.930 . S
C77 N75 1.375 . S
C77 C76 1.338 . S
C77 H81 0.931 . S
C78 N75 1.313 . S
C78 N79 1.344 . S
C78 H82 0.930 . S
N79 C76 1.377 . S
N79 C78 1.344 . S
O80 Co72 2.055 . S
O80 C84 1.253 . S
H81 C77 0.931 . S
H82 C78 0.930 . S
O83 Co72 2.039 . S
O83 C73 1.265 . S
C84 O80 1.253 . S
C84 O85 1.227 . S
O85 C84 1.227 . S
N86 Co72 2.140 . S
N86 C89 1.346 . S
N86 C90 1.345 . S
C87 C88 1.387 . S
C87 C91 1.391 . S
C88 C87 1.387 . S
C88 C89 1.369 . S
C88 H97 0.929 . S
C89 N86 1.346 . S
C89 C88 1.369 . S
C89 H92 0.928 . S
C90 N86 1.345 . S
C90 C91 1.371 . S
C90 H93 0.931 . S
C91 C87 1.391 . S
C91 C90 1.371 . S
C91 H98 0.930 . S
H92 C89 0.928 . S
H93 C90 0.931 . S
H94 C70 0.930 . S
H95 C67 0.930 . S
H96 C76 0.930 . S
H97 C88 0.929 . S
H98 C91 0.930 . S
C99 C100 1.351 . S
C99 N102 1.368 . S
C99 H104 0.931 . S
C100 C99 1.351 . S
C100 N101 1.373 . S
C100 H128 0.930 . S
N101 C100 1.373 . S
N101 C103 1.340 . S
N102 C99 1.368 . S
N102 C103 1.321 . S
N102 Co105 2.135 . S
C103 N101 1.340 . S
C103 N102 1.321 . S
C103 H127 0.930 . S
H104 C99 0.931 . S
Co105 N102 2.135 . S
Co105 N108 2.121 . S
Co105 O113 2.055 . S
Co105 O116 2.039 . S
Co105 N119 2.140 . S
C106 O107 1.227 . S
C106 O116 1.265 . S
O107 C106 1.227 . S
N108 Co105 2.121 . S
N108 C110 1.375 . S
N108 C111 1.313 . S
C109 C110 1.338 . S
C109 N112 1.377 . S
C109 H129 0.930 . S
C110 N108 1.375 . S
C110 C109 1.338 . S
C110 H114 0.931 . S
C111 N108 1.313 . S
C111 N112 1.344 . S
C111 H115 0.930 . S
N112 C109 1.377 . S
N112 C111 1.344 . S
O113 Co105 2.055 . S
O113 C117 1.253 . S
H114 C110 0.931 . S
H115 C111 0.930 . S
O116 Co105 2.039 . S
O116 C106 1.265 . S
C117 O113 1.253 . S
C117 O118 1.227 . S
O118 C117 1.227 . S
N119 Co105 2.140 . S
N119 C122 1.346 . S
N119 C123 1.345 . S
C120 C121 1.387 . S
C120 C124 1.391 . S
C121 C120 1.387 . S
C121 C122 1.369 . S
C121 H130 0.929 . S
C122 N119 1.346 . S
C122 C121 1.369 . S
C122 H125 0.928 . S
C123 N119 1.345 . S
C123 C124 1.371 . S
C123 H126 0.931 . S
C124 C120 1.391 . S
C124 C123 1.371 . S
C124 H131 0.930 . S
H125 C122 0.928 . S
H126 C123 0.931 . S
H127 C103 0.930 . S
H128 C100 0.930 . S
H129 C109 0.930 . S
H130 C121 0.929 . S
H131 C124 0.930 . S
C132 C133 1.351 . S
C132 N135 1.368 . S
C132 H137 0.931 . S
C133 C132 1.351 . S
C133 N134 1.373 . S
C133 H161 0.930 . S
N134 C133 1.373 . S
N134 C136 1.340 . S
N135 C132 1.368 . S
N135 C136 1.321 . S
N135 Co138 2.135 . S
C136 N134 1.340 . S
C136 N135 1.321 . S
C136 H160 0.930 . S
H137 C132 0.931 . S
Co138 N135 2.135 . S
Co138 N141 2.121 . S
Co138 O146 2.055 . S
Co138 O149 2.039 . S
Co138 N152 2.140 . S
C139 O140 1.227 . S
C139 O149 1.265 . S
O140 C139 1.227 . S
N141 Co138 2.121 . S
N141 C143 1.375 . S
N141 C144 1.313 . S
C142 C143 1.338 . S
C142 N145 1.377 . S
C142 H162 0.930 . S
C143 N141 1.375 . S
C143 C142 1.338 . S
C143 H147 0.931 . S
C144 N141 1.313 . S
C144 N145 1.344 . S
C144 H148 0.930 . S
N145 C142 1.377 . S
N145 C144 1.344 . S
O146 Co138 2.055 . S
O146 C150 1.253 . S
H147 C143 0.931 . S
H148 C144 0.930 . S
O149 Co138 2.039 . S
O149 C139 1.265 . S
C150 O146 1.253 . S
C150 O151 1.227 . S
O151 C150 1.227 . S
N152 Co138 2.140 . S
N152 C155 1.346 . S
N152 C156 1.345 . S
C153 C154 1.387 . S
C153 C157 1.391 . S
C154 C153 1.387 . S
C154 C155 1.369 . S
C154 H163 0.929 . S
C155 N152 1.346 . S
C155 C154 1.369 . S
C155 H158 0.928 . S
C156 N152 1.345 . S
C156 C157 1.371 . S
C156 H159 0.931 . S
C157 C153 1.391 . S
C157 C156 1.371 . S
C157 H164 0.930 . S
H158 C155 0.928 . S
H159 C156 0.931 . S
H160 C136 0.930 . S
H161 C133 0.930 . S
H162 C142 0.930 . S
H163 C154 0.929 . S
H164 C157 0.930 . S
C165 C166 1.351 . S
C165 N168 1.368 . S
C165 H170 0.931 . S
C166 C165 1.351 . S
C166 N167 1.373 . S
C166 H194 0.930 . S
N167 C166 1.373 . S
N167 C169 1.340 . S
N168 C165 1.368 . S
N168 C169 1.321 . S
N168 Co171 2.135 . S
C169 N167 1.340 . S
C169 N168 1.321 . S
C169 H193 0.930 . S
H170 C165 0.931 . S
Co171 N168 2.135 . S
Co171 N174 2.121 . S
Co171 O179 2.055 . S
Co171 O182 2.039 . S
Co171 N185 2.140 . S
C172 O173 1.227 . S
C172 O182 1.265 . S
O173 C172 1.227 . S
N174 Co171 2.121 . S
N174 C176 1.375 . S
N174 C177 1.313 . S
C175 C176 1.338 . S
C175 N178 1.377 . S
C175 H195 0.930 . S
C176 N174 1.375 . S
C176 C175 1.338 . S
C176 H180 0.931 . S
C177 N174 1.313 . S
C177 N178 1.344 . S
C177 H181 0.930 . S
N178 C175 1.377 . S
N178 C177 1.344 . S
O179 Co171 2.055 . S
O179 C183 1.253 . S
H180 C176 0.931 . S
H181 C177 0.930 . S
O182 Co171 2.039 . S
O182 C172 1.265 . S
C183 O179 1.253 . S
C183 O184 1.227 . S
O184 C183 1.227 . S
N185 Co171 2.140 . S
N185 C188 1.346 . S
N185 C189 1.345 . S
C186 C187 1.387 . S
C186 C190 1.391 . S
C187 C186 1.387 . S
C187 C188 1.369 . S
C187 H196 0.929 . S
C188 N185 1.346 . S
C188 C187 1.369 . S
C188 H191 0.928 . S
C189 N185 1.345 . S
C189 C190 1.371 . S
C189 H192 0.931 . S
C190 C186 1.391 . S
C190 C189 1.371 . S
C190 H197 0.930 . S
H191 C188 0.928 . S
H192 C189 0.931 . S
H193 C169 0.930 . S
H194 C166 0.930 . S
H195 C175 0.930 . S
H196 C187 0.929 . S
H197 C190 0.930 . S
C198 C199 1.351 . S
C198 N201 1.368 . S
C198 H203 0.931 . S
C199 C198 1.351 . S
C199 N200 1.373 . S
C199 H227 0.930 . S
N200 C199 1.373 . S
N200 C202 1.340 . S
N201 C198 1.368 . S
N201 C202 1.321 . S
N201 Co204 2.135 . S
C202 N200 1.340 . S
C202 N201 1.321 . S
C202 H226 0.930 . S
H203 C198 0.931 . S
Co204 N201 2.135 . S
Co204 N207 2.121 . S
Co204 O212 2.055 . S
Co204 O215 2.039 . S
Co204 N218 2.140 . S
C205 O206 1.227 . S
C205 O215 1.265 . S
O206 C205 1.227 . S
N207 Co204 2.121 . S
N207 C209 1.375 . S
N207 C210 1.313 . S
C208 C209 1.338 . S
C208 N211 1.377 . S
C208 H228 0.930 . S
C209 N207 1.375 . S
C209 C208 1.338 . S
C209 H213 0.931 . S
C210 N207 1.313 . S
C210 N211 1.344 . S
C210 H214 0.930 . S
N211 C208 1.377 . S
N211 C210 1.344 . S
O212 Co204 2.055 . S
O212 C216 1.253 . S
H213 C209 0.931 . S
H214 C210 0.930 . S
O215 Co204 2.039 . S
O215 C205 1.265 . S
C216 O212 1.253 . S
C216 O217 1.227 . S
O217 C216 1.227 . S
N218 Co204 2.140 . S
N218 C221 1.346 . S
N218 C222 1.345 . S
C219 C220 1.387 . S
C219 C223 1.391 . S
C220 C219 1.387 . S
C220 C221 1.369 . S
C220 H229 0.929 . S
C221 N218 1.346 . S
C221 C220 1.369 . S
C221 H224 0.928 . S
C222 N218 1.345 . S
C222 C223 1.371 . S
C222 H225 0.931 . S
C223 C219 1.391 . S
C223 C222 1.371 . S
C223 H230 0.930 . S
H224 C221 0.928 . S
H225 C222 0.931 . S
H226 C202 0.930 . S
H227 C199 0.930 . S
H228 C208 0.930 . S
H229 C220 0.929 . S
H230 C223 0.930 . S
C231 C232 1.351 . S
C231 N234 1.368 . S
C231 H236 0.931 . S
C232 C231 1.351 . S
C232 N233 1.373 . S
C232 H260 0.930 . S
N233 C232 1.373 . S
N233 C235 1.340 . S
N234 C231 1.368 . S
N234 C235 1.321 . S
N234 Co237 2.135 . S
C235 N233 1.340 . S
C235 N234 1.321 . S
C235 H259 0.930 . S
H236 C231 0.931 . S
Co237 N234 2.135 . S
Co237 N240 2.121 . S
Co237 O245 2.055 . S
Co237 O248 2.039 . S
Co237 N251 2.140 . S
C238 O239 1.227 . S
C238 O248 1.265 . S
O239 C238 1.227 . S
N240 Co237 2.121 . S
N240 C242 1.375 . S
N240 C243 1.313 . S
C241 C242 1.338 . S
C241 N244 1.377 . S
C241 H261 0.930 . S
C242 N240 1.375 . S
C242 C241 1.338 . S
C242 H246 0.931 . S
C243 N240 1.313 . S
C243 N244 1.344 . S
C243 H247 0.930 . S
N244 C241 1.377 . S
N244 C243 1.344 . S
O245 Co237 2.055 . S
O245 C249 1.253 . S
H246 C242 0.931 . S
H247 C243 0.930 . S
O248 Co237 2.039 . S
O248 C238 1.265 . S
C249 O245 1.253 . S
C249 O250 1.227 . S
O250 C249 1.227 . S
N251 Co237 2.140 . S
N251 C254 1.346 . S
N251 C255 1.345 . S
C252 C253 1.387 . S
C252 C256 1.391 . S
C253 C252 1.387 . S
C253 C254 1.369 . S
C253 H262 0.929 . S
C254 N251 1.346 . S
C254 C253 1.369 . S
C254 H257 0.928 . S
C255 N251 1.345 . S
C255 C256 1.371 . S
C255 H258 0.931 . S
C256 C252 1.391 . S
C256 C255 1.371 . S
C256 H263 0.930 . S
H257 C254 0.928 . S
H258 C255 0.931 . S
H259 C235 0.930 . S
H260 C232 0.930 . S
H261 C241 0.930 . S
H262 C253 0.929 . S
H263 C256 0.930 . S
H264 C282 0.951 . S
H265 C284 0.951 . S
H266 C286 0.950 . S
H267 C287 0.950 . S
H268 C289 0.950 . S
H269 C292 0.950 . S
H270 C293 0.950 . S
H271 C295 0.950 . S
H272 C296 0.950 . S
H273 C297 0.951 . S
H274 C299 0.951 . S
H275 C301 0.950 . S
H276 C302 0.950 . S
H277 C304 0.950 . S
H278 C307 0.950 . S
H279 C308 0.950 . S
H280 C310 0.950 . S
H281 C311 0.950 . S
C282 H264 0.951 . S
C282 C283 1.366 . S
C282 C284 1.388 . S
C283 C282 1.366 . S
C283 C287 1.385 . S
C284 H265 0.951 . S
C284 C282 1.388 . S
C284 C285 1.366 . S
C285 C284 1.366 . S
C285 C286 1.414 . S
C285 C288 1.499 . S
C286 H266 0.950 . S
C286 C285 1.414 . S
C286 C287 1.374 . S
C287 H267 0.950 . S
C287 C283 1.385 . S
C287 C286 1.374 . S
C288 C285 1.499 . S
C288 C289 1.373 . S
C288 C290 1.389 . S
C289 H268 0.950 . S
C289 C288 1.373 . S
C289 C305 1.377 . S
C290 C288 1.389 . S
C290 C291 1.524 . S
C290 C304 1.377 . S
C291 C290 1.524 . S
C291 C292 1.397 . S
C291 C296 1.363 . S
C292 H269 0.950 . S
C292 C291 1.397 . S
C292 C293 1.334 . S
C293 H270 0.950 . S
C293 C292 1.334 . S
C293 C294 1.287 . S
C294 C293 1.287 . S
C294 C295 1.524 . S
C294 H313 0.913 . S
C295 H271 0.950 . S
C295 C294 1.524 . S
C295 C296 1.415 . S
C296 H272 0.950 . S
C296 C291 1.363 . S
C296 C295 1.415 . S
C297 H273 0.951 . S
C297 C298 1.366 . S
C297 C299 1.388 . S
C298 C297 1.366 . S
C298 C302 1.385 . S
C299 H274 0.951 . S
C299 C297 1.388 . S
C299 C300 1.366 . S
C300 C299 1.366 . S
C300 C301 1.414 . S
C300 C303 1.499 . S
C301 H275 0.950 . S
C301 C300 1.414 . S
C301 C302 1.374 . S
C302 H276 0.950 . S
C302 C298 1.385 . S
C302 C301 1.374 . S
C303 C300 1.499 . S
C303 C304 1.373 . S
C303 C305 1.389 . S
C304 H277 0.950 . S
C304 C290 1.377 . S
C304 C303 1.373 . S
C305 C289 1.377 . S
C305 C303 1.389 . S
C305 C306 1.524 . S
C306 C305 1.524 . S
C306 C307 1.397 . S
C306 C311 1.363 . S
C307 H278 0.950 . S
C307 C306 1.397 . S
C307 C308 1.334 . S
C308 H279 0.950 . S
C308 C307 1.334 . S
C308 C309 1.287 . S
C309 C308 1.287 . S
C309 C310 1.524 . S
C309 H312 0.999 . S
C310 H280 0.950 . S
C310 C309 1.524 . S
C310 C311 1.415 . S
C311 H281 0.950 . S
C311 C306 1.363 . S
C311 C310 1.415 . S
H312 C309 0.999 . S
H313 C294 0.913 . S
H314 C332 0.951 . S
H315 C334 0.951 . S
H316 C336 0.950 . S
H317 C337 0.950 . S
H318 C339 0.950 . S
H319 C342 0.950 . S
H320 C343 0.950 . S
H321 C345 0.950 . S
H322 C346 0.950 1_655 S
H323 C347 0.951 . S
H324 C349 0.951 . S
H325 C351 0.950 . S
H326 C352 0.950 . S
H327 C354 0.950 . S
H328 C357 0.950 . S
H329 C358 0.950 . S
H330 C360 0.950 . S
H331 C361 0.950 . S
C332 H314 0.951 . S
C332 C333 1.366 . S
C332 C334 1.388 . S
C333 C332 1.366 . S
C333 C337 1.385 1_655 S
C334 H315 0.951 . S
C334 C332 1.388 . S
C334 C335 1.366 1_655 S
C335 C334 1.366 1_455 S
C335 C336 1.414 . S
C335 C338 1.499 . S
C336 H316 0.950 . S
C336 C335 1.414 . S
C336 C337 1.374 . S
C337 H317 0.950 . S
C337 C333 1.385 1_455 S
C337 C336 1.374 . S
C338 C335 1.499 . S
C338 C339 1.373 . S
C338 C340 1.389 . S
C339 H318 0.950 . S
C339 C338 1.373 . S
C339 C355 1.377 . S
C340 C338 1.389 . S
C340 C341 1.524 . S
C340 C354 1.377 . S
C341 C340 1.524 . S
C341 C342 1.397 . S
C341 C346 1.363 . S
C342 H319 0.950 . S
C342 C341 1.397 . S
C342 C343 1.334 . S
C343 H320 0.950 . S
C343 C342 1.334 . S
C343 C344 1.287 1_455 S
C344 C343 1.287 1_655 S
C344 C345 1.524 . S
C344 H363 0.913 . S
C345 H321 0.950 . S
C345 C344 1.524 . S
C345 C346 1.415 1_655 S
C346 H322 0.950 1_455 S
C346 C341 1.363 . S
C346 C345 1.415 1_455 S
C347 H323 0.951 . S
C347 C348 1.366 . S
C347 C349 1.388 . S
C348 C347 1.366 . S
C348 C352 1.385 . S
C349 H324 0.951 . S
C349 C347 1.388 . S
C349 C350 1.366 . S
C350 C349 1.366 . S
C350 C351 1.414 . S
C350 C353 1.499 . S
C351 H325 0.950 . S
C351 C350 1.414 . S
C351 C352 1.374 . S
C352 H326 0.950 . S
C352 C348 1.385 . S
C352 C351 1.374 . S
C353 C350 1.499 . S
C353 C354 1.373 . S
C353 C355 1.389 . S
C354 H327 0.950 . S
C354 C340 1.377 . S
C354 C353 1.373 . S
C355 C339 1.377 . S
C355 C353 1.389 . S
C355 C356 1.524 . S
C356 C355 1.524 . S
C356 C357 1.397 . S
C356 C361 1.363 . S
C357 H328 0.950 . S
C357 C356 1.397 . S
C357 C358 1.334 . S
C358 H329 0.950 . S
C358 C357 1.334 . S
C358 C359 1.287 . S
C359 C358 1.287 . S
C359 C360 1.524 . S
C359 H362 0.999 . S
C360 H330 0.950 . S
C360 C359 1.524 . S
C360 C361 1.415 . S
C361 H331 0.950 . S
C361 C356 1.363 . S
C361 C360 1.415 . S
H362 C359 0.999 . S
H363 C344 0.913 . S
H364 C382 0.951 . S
H365 C384 0.951 . S
H366 C386 0.950 . S
H367 C387 0.950 . S
H368 C389 0.950 . S
H369 C392 0.950 . S
H370 C393 0.950 . S
H371 C395 0.950 . S
H372 C396 0.950 . S
H373 C397 0.951 . S
H374 C399 0.951 . S
H375 C401 0.950 . S
H376 C402 0.950 . S
H377 C404 0.950 . S
H378 C407 0.950 . S
H379 C408 0.950 . S
H380 C410 0.950 . S
H381 C411 0.950 . S
C382 H364 0.951 . S
C382 C383 1.366 . S
C382 C384 1.388 . S
C383 C382 1.366 . S
C383 C387 1.385 . S
C384 H365 0.951 . S
C384 C382 1.388 . S
C384 C385 1.366 . S
C385 C384 1.366 . S
C385 C386 1.414 . S
C385 C388 1.499 . S
C386 H366 0.950 . S
C386 C385 1.414 . S
C386 C387 1.374 . S
C387 H367 0.950 . S
C387 C383 1.385 . S
C387 C386 1.374 . S
C388 C385 1.499 . S
C388 C389 1.373 . S
C388 C390 1.389 . S
C389 H368 0.950 . S
C389 C388 1.373 . S
C389 C405 1.377 . S
C390 C388 1.389 . S
C390 C391 1.524 . S
C390 C404 1.377 . S
C391 C390 1.524 . S
C391 C392 1.397 . S
C391 C396 1.363 . S
C392 H369 0.950 . S
C392 C391 1.397 . S
C392 C393 1.334 . S
C393 H370 0.950 . S
C393 C392 1.334 . S
C393 C394 1.287 . S
C394 C393 1.287 . S
C394 C395 1.524 . S
C394 H413 0.913 . S
C395 H371 0.950 . S
C395 C394 1.524 . S
C395 C396 1.415 . S
C396 H372 0.950 . S
C396 C391 1.363 . S
C396 C395 1.415 . S
C397 H373 0.951 . S
C397 C398 1.366 . S
C397 C399 1.388 . S
C398 C397 1.366 . S
C398 C402 1.385 . S
C399 H374 0.951 . S
C399 C397 1.388 . S
C399 C400 1.366 . S
C400 C399 1.366 . S
C400 C401 1.414 . S
C400 C403 1.499 . S
C401 H375 0.950 . S
C401 C400 1.414 . S
C401 C402 1.374 . S
C402 H376 0.950 . S
C402 C398 1.385 . S
C402 C401 1.374 . S
C403 C400 1.499 . S
C403 C404 1.373 . S
C403 C405 1.389 . S
C404 H377 0.950 . S
C404 C390 1.377 . S
C404 C403 1.373 . S
C405 C389 1.377 . S
C405 C403 1.389 . S
C405 C406 1.524 . S
C406 C405 1.524 . S
C406 C407 1.397 . S
C406 C411 1.363 . S
C407 H378 0.950 . S
C407 C406 1.397 . S
C407 C408 1.334 . S
C408 H379 0.950 . S
C408 C407 1.334 . S
C408 C409 1.287 . S
C409 C408 1.287 . S
C409 C410 1.524 . S
C409 H412 0.999 . S
C410 H380 0.950 . S
C410 C409 1.524 . S
C410 C411 1.415 . S
C411 H381 0.950 . S
C411 C406 1.363 . S
C411 C410 1.415 . S
H412 C409 0.999 . S
H413 C394 0.913 . S
H414 C432 0.951 . S
H415 C434 0.951 . S
H416 C436 0.950 . S
H417 C437 0.949 . S
H418 C439 0.950 . S
H419 C442 0.950 . S
H420 C443 0.950 . S
H421 C445 0.950 1_455 S
H422 C446 0.950 . S
H423 C447 0.951 . S
H424 C449 0.951 . S
H425 C451 0.950 . S
H426 C452 0.950 . S
H427 C454 0.950 . S
H428 C457 0.950 . S
H429 C458 0.950 . S
H430 C460 0.950 . S
H431 C461 0.950 . S
C432 H414 0.951 . S
C432 C433 1.366 . S
C432 C434 1.388 . S
C433 C432 1.366 . S
C433 C437 1.372 1_556 S
C434 H415 0.951 . S
C434 C432 1.388 . S
C434 C435 1.366 1_556 S
C435 C434 1.366 1_554 S
C435 C436 1.414 . S
C435 C438 1.499 . S
C436 H416 0.950 . S
C436 C435 1.414 . S
C436 C437 1.386 . S
C437 H417 0.949 . S
C437 C433 1.372 1_554 S
C437 C436 1.386 . S
C438 C435 1.499 . S
C438 C439 1.373 . S
C438 C440 1.389 . S
C439 H418 0.950 . S
C439 C438 1.373 . S
C439 C455 1.377 . S
C440 C438 1.389 . S
C440 C441 1.524 . S
C440 C454 1.377 . S
C441 C440 1.524 . S
C441 C442 1.397 . S
C441 C446 1.363 . S
C442 H419 0.950 . S
C442 C441 1.397 . S
C442 C443 1.334 1_554 S
C443 H420 0.950 . S
C443 C442 1.334 1_556 S
C443 C444 1.287 . S
C444 C443 1.287 . S
C444 C445 1.524 . S
C444 H463 0.913 . S
C445 H421 0.950 1_655 S
C445 C444 1.524 . S
C445 C446 1.415 1_556 S
C446 H422 0.950 . S
C446 C441 1.363 . S
C446 C445 1.415 1_554 S
C447 H423 0.951 . S
C447 C448 1.366 1_655 S
C447 C449 1.388 . S
C448 C447 1.366 1_455 S
C448 C452 1.385 . S
C449 H424 0.951 . S
C449 C447 1.388 . S
C449 C450 1.366 . S
C450 C449 1.366 . S
C450 C451 1.414 1_655 S
C450 C453 1.499 . S
C451 H425 0.950 . S
C451 C450 1.414 1_455 S
C451 C452 1.374 . S
C452 H426 0.950 . S
C452 C448 1.385 . S
C452 C451 1.374 . S
C453 C450 1.499 . S
C453 C454 1.373 . S
C453 C455 1.389 . S
C454 H427 0.950 . S
C454 C440 1.377 . S
C454 C453 1.373 . S
C455 C439 1.377 . S
C455 C453 1.389 . S
C455 C456 1.524 . S
C456 C455 1.524 . S
C456 C457 1.397 . S
C456 C461 1.363 . S
C457 H428 0.950 . S
C457 C456 1.397 . S
C457 C458 1.334 . S
C458 H429 0.950 . S
C458 C457 1.334 . S
C458 C459 1.287 . S
C459 C458 1.287 . S
C459 C460 1.524 . S
C459 H462 0.999 . S
C460 H430 0.950 . S
C460 C459 1.524 . S
C460 C461 1.415 . S
C461 H431 0.950 . S
C461 C456 1.363 . S
C461 C460 1.415 . S
H462 C459 0.999 . S
H463 C444 0.913 . S
H464 C482 0.951 . S
H465 C484 0.951 . S
H466 C486 0.950 . S
H467 C487 0.950 . S
H468 C489 0.950 . S
H469 C492 0.950 . S
H470 C493 0.950 . S
H471 C495 0.950 . S
H472 C496 0.950 . S
H473 C497 0.951 . S
H474 C499 0.951 . S
H475 C501 0.950 . S
H476 C502 0.950 . S
H477 C504 0.950 . S
H478 C507 0.950 . S
H479 C508 0.950 . S
H480 C510 0.950 . S
H481 C511 0.950 . S
C482 H464 0.951 . S
C482 C483 1.366 . S
C482 C484 1.388 . S
C483 C482 1.366 . S
C483 C487 1.385 . S
C484 H465 0.951 . S
C484 C482 1.388 . S
C484 C485 1.366 . S
C485 C484 1.366 . S
C485 C486 1.414 . S
C485 C488 1.499 . S
C486 H466 0.950 . S
C486 C485 1.414 . S
C486 C487 1.374 . S
C487 H467 0.950 . S
C487 C483 1.385 . S
C487 C486 1.374 . S
C488 C485 1.499 . S
C488 C489 1.373 . S
C488 C490 1.389 . S
C489 H468 0.950 . S
C489 C488 1.373 . S
C489 C505 1.377 . S
C490 C488 1.389 . S
C490 C491 1.524 . S
C490 C504 1.377 . S
C491 C490 1.524 . S
C491 C492 1.397 . S
C491 C496 1.363 . S
C492 H469 0.950 . S
C492 C491 1.397 . S
C492 C493 1.334 . S
C493 H470 0.950 . S
C493 C492 1.334 . S
C493 C494 1.287 . S
C494 C493 1.287 . S
C494 C495 1.524 . S
C494 H513 0.913 . S
C495 H471 0.950 . S
C495 C494 1.524 . S
C495 C496 1.415 . S
C496 H472 0.950 . S
C496 C491 1.363 . S
C496 C495 1.415 . S
C497 H473 0.951 . S
C497 C498 1.366 1_545 S
C497 C499 1.388 . S
C498 C497 1.366 1_565 S
C498 C502 1.385 . S
C499 H474 0.951 . S
C499 C497 1.388 . S
C499 C500 1.366 . S
C500 C499 1.366 . S
C500 C501 1.414 1_545 S
C500 C503 1.499 . S
C501 H475 0.950 . S
C501 C500 1.414 1_565 S
C501 C502 1.374 . S
C502 H476 0.950 . S
C502 C498 1.385 . S
C502 C501 1.374 . S
C503 C500 1.499 . S
C503 C504 1.373 . S
C503 C505 1.389 . S
C504 H477 0.950 . S
C504 C490 1.377 . S
C504 C503 1.373 . S
C505 C489 1.377 . S
C505 C503 1.389 . S
C505 C506 1.524 . S
C506 C505 1.524 . S
C506 C507 1.397 . S
C506 C511 1.363 . S
C507 H478 0.950 . S
C507 C506 1.397 . S
C507 C508 1.334 . S
C508 H479 0.950 . S
C508 C507 1.334 . S
C508 C509 1.287 . S
C509 C508 1.287 . S
C509 C510 1.524 . S
C509 H512 0.999 . S
C510 H480 0.950 . S
C510 C509 1.524 . S
C510 C511 1.415 . S
C511 H481 0.950 . S
C511 C506 1.363 . S
C511 C510 1.415 . S
H512 C509 0.999 . S
H513 C494 0.913 . S
H514 C532 0.951 . S
H515 C534 0.951 . S
H516 C536 0.950 . S
H517 C537 0.950 . S
H518 C539 0.950 . S
H519 C542 0.950 . S
H520 C543 0.950 . S
H521 C545 0.950 . S
H522 C546 0.950 . S
H523 C547 0.951 . S
H524 C549 0.951 . S
H525 C551 0.950 . S
H526 C552 0.950 . S
H527 C554 0.950 . S
H528 C557 0.950 . S
H529 C558 0.950 . S
H530 C560 0.950 . S
H531 C561 0.950 . S
C532 H514 0.951 . S
C532 C533 1.366 . S
C532 C534 1.388 . S
C533 C532 1.366 . S
C533 C537 1.385 . S
C534 H515 0.951 . S
C534 C532 1.388 . S
C534 C535 1.366 . S
C535 C534 1.366 . S
C535 C536 1.414 . S
C535 C538 1.499 . S
C536 H516 0.950 . S
C536 C535 1.414 . S
C536 C537 1.374 . S
C537 H517 0.950 . S
C537 C533 1.385 . S
C537 C536 1.374 . S
C538 C535 1.499 . S
C538 C539 1.373 . S
C538 C540 1.389 . S
C539 H518 0.950 . S
C539 C538 1.373 . S
C539 C555 1.377 . S
C540 C538 1.389 . S
C540 C541 1.524 . S
C540 C554 1.377 . S
C541 C540 1.524 . S
C541 C542 1.397 . S
C541 C546 1.363 . S
C542 H519 0.950 . S
C542 C541 1.397 . S
C542 C543 1.334 . S
C543 H520 0.950 . S
C543 C542 1.334 . S
C543 C544 1.287 . S
C544 C543 1.287 . S
C544 C545 1.524 . S
C544 H563 0.913 . S
C545 H521 0.950 . S
C545 C544 1.524 . S
C545 C546 1.415 . S
C546 H522 0.950 . S
C546 C541 1.363 . S
C546 C545 1.415 . S
C547 H523 0.951 . S
C547 C548 1.366 . S
C547 C549 1.388 . S
C548 C547 1.366 . S
C548 C552 1.385 . S
C549 H524 0.951 . S
C549 C547 1.388 . S
C549 C550 1.366 . S
C550 C549 1.366 . S
C550 C551 1.414 . S
C550 C553 1.499 . S
C551 H525 0.950 . S
C551 C550 1.414 . S
C551 C552 1.374 . S
C552 H526 0.950 . S
C552 C548 1.385 . S
C552 C551 1.374 . S
C553 C550 1.499 . S
C553 C554 1.373 . S
C553 C555 1.389 . S
C554 H527 0.950 . S
C554 C540 1.377 . S
C554 C553 1.373 . S
C555 C539 1.377 . S
C555 C553 1.389 . S
C555 C556 1.524 . S
C556 C555 1.524 . S
C556 C557 1.397 . S
C556 C561 1.363 . S
C557 H528 0.950 . S
C557 C556 1.397 . S
C557 C558 1.334 . S
C558 H529 0.950 . S
C558 C557 1.334 . S
C558 C559 1.287 . S
C559 C558 1.287 . S
C559 C560 1.524 . S
C559 H562 0.999 . S
C560 H530 0.950 . S
C560 C559 1.524 . S
C560 C561 1.415 . S
C561 H531 0.950 . S
C561 C556 1.363 . S
C561 C560 1.415 . S
H562 C559 0.999 . S
H563 C544 0.913 . S
H564 C582 0.951 . S
H565 C584 0.951 . S
H566 C586 0.950 . S
H567 C587 0.950 . S
H568 C589 0.950 . S
H569 C592 0.950 1_556 S
H570 C593 0.950 . S
H571 C595 0.950 . S
H572 C596 0.950 . S
H573 C597 0.951 . S
H574 C599 0.951 . S
H575 C601 0.950 . S
H576 C602 0.950 . S
H577 C604 0.950 . S
H578 C607 0.950 . S
H579 C608 0.950 . S
H580 C610 0.950 . S
H581 C611 0.950 . S
C582 H564 0.951 . S
C582 C583 1.366 . S
C582 C584 1.388 1_554 S
C583 C582 1.366 . S
C583 C587 1.385 . S
C584 H565 0.951 . S
C584 C582 1.388 1_556 S
C584 C585 1.366 . S
C585 C584 1.366 . S
C585 C586 1.414 . S
C585 C588 1.499 . S
C586 H566 0.950 . S
C586 C585 1.414 . S
C586 C587 1.374 1_556 S
C587 H567 0.950 . S
C587 C583 1.385 . S
C587 C586 1.374 1_554 S
C588 C585 1.499 . S
C588 C589 1.373 . S
C588 C590 1.389 . S
C589 H568 0.950 . S
C589 C588 1.373 . S
C589 C605 1.377 . S
C590 C588 1.389 . S
C590 C591 1.524 . S
C590 C604 1.377 . S
C591 C590 1.524 . S
C591 C592 1.397 1_556 S
C591 C596 1.363 1_565 S
C592 H569 0.950 1_554 S
C592 C591 1.397 1_554 S
C592 C593 1.333 . S
C593 H570 0.950 . S
C593 C592 1.333 . S
C593 C594 1.257 1_565 S
C594 C593 1.257 1_545 S
C594 C595 1.540 . S
C594 H613 0.928 . S
C595 H571 0.950 . S
C595 C594 1.540 . S
C595 C596 1.415 1_554 S
C596 H572 0.950 . S
C596 C591 1.363 1_545 S
C596 C595 1.415 1_556 S
C597 H573 0.951 . S
C597 C598 1.366 1_565 S
C597 C599 1.388 . S
C598 C597 1.366 1_545 S
C598 C602 1.385 . S
C599 H574 0.951 . S
C599 C597 1.388 . S
C599 C600 1.366 . S
C600 C599 1.366 . S
C600 C601 1.414 1_565 S
C600 C603 1.499 . S
C601 H575 0.950 . S
C601 C600 1.414 1_545 S
C601 C602 1.374 . S
C602 H576 0.950 . S
C602 C598 1.385 . S
C602 C601 1.374 . S
C603 C600 1.499 . S
C603 C604 1.373 . S
C603 C605 1.389 . S
C604 H577 0.950 . S
C604 C590 1.377 . S
C604 C603 1.373 . S
C605 C589 1.377 . S
C605 C603 1.389 . S
C605 C606 1.524 . S
C606 C605 1.524 . S
C606 C607 1.397 . S
C606 C611 1.363 . S
C607 H578 0.950 . S
C607 C606 1.397 . S
C607 C608 1.334 . S
C608 H579 0.950 . S
C608 C607 1.334 . S
C608 C609 1.287 . S
C609 C608 1.287 . S
C609 C610 1.524 . S
C609 H612 0.999 . S
C610 H580 0.950 . S
C610 C609 1.524 . S
C610 C611 1.415 . S
C611 H581 0.950 . S
C611 C606 1.363 . S
C611 C610 1.415 . S
H612 C609 0.999 . S
H613 C594 0.928 . S
H614 C632 0.951 . S
H615 C634 0.951 . S
H616 C636 0.950 . S
H617 C637 0.950 . S
H618 C639 0.950 . S
H619 C642 0.950 . S
H620 C643 0.950 . S
H621 C645 0.950 . S
H622 C646 0.950 . S
H623 C647 0.951 . S
H624 C649 0.951 . S
H625 C651 0.950 . S
H626 C652 0.950 . S
H627 C654 0.950 . S
H628 C657 0.950 . S
H629 C658 0.950 . S
H630 C660 0.950 . S
H631 C661 0.950 . S
C632 H614 0.951 . S
C632 C633 1.366 . S
C632 C634 1.388 . S
C633 C632 1.366 . S
C633 C637 1.385 . S
C634 H615 0.951 . S
C634 C632 1.388 . S
C634 C635 1.366 . S
C635 C634 1.366 . S
C635 C636 1.414 . S
C635 C638 1.499 . S
C636 H616 0.950 . S
C636 C635 1.414 . S
C636 C637 1.374 . S
C637 H617 0.950 . S
C637 C633 1.385 . S
C637 C636 1.374 . S
C638 C635 1.499 . S
C638 C639 1.373 . S
C638 C640 1.389 . S
C639 H618 0.950 . S
C639 C638 1.373 . S
C639 C655 1.377 . S
C640 C638 1.389 . S
C640 C641 1.524 . S
C640 C654 1.377 . S
C641 C640 1.524 . S
C641 C642 1.397 . S
C641 C646 1.363 . S
C642 H619 0.950 . S
C642 C641 1.397 . S
C642 C643 1.334 . S
C643 H620 0.950 . S
C643 C642 1.334 . S
C643 C644 1.287 . S
C644 C643 1.287 . S
C644 C645 1.524 . S
C644 H663 0.913 . S
C645 H621 0.950 . S
C645 C644 1.524 . S
C645 C646 1.415 . S
C646 H622 0.950 . S
C646 C641 1.363 . S
C646 C645 1.415 . S
C647 H623 0.951 . S
C647 C648 1.366 . S
C647 C649 1.388 . S
C648 C647 1.366 . S
C648 C652 1.385 . S
C649 H624 0.951 . S
C649 C647 1.388 . S
C649 C650 1.366 . S
C650 C649 1.366 . S
C650 C651 1.414 . S
C650 C653 1.499 . S
C651 H625 0.950 . S
C651 C650 1.414 . S
C651 C652 1.374 . S
C652 H626 0.950 . S
C652 C648 1.385 . S
C652 C651 1.374 . S
C653 C650 1.499 . S
C653 C654 1.373 . S
C653 C655 1.389 . S
C654 H627 0.950 . S
C654 C640 1.377 . S
C654 C653 1.373 . S
C655 C639 1.377 . S
C655 C653 1.389 . S
C655 C656 1.524 . S
C656 C655 1.524 . S
C656 C657 1.397 . S
C656 C661 1.363 . S
C657 H628 0.950 . S
C657 C656 1.397 . S
C657 C658 1.334 . S
C658 H629 0.950 . S
C658 C657 1.334 . S
C658 C659 1.287 . S
C659 C658 1.287 . S
C659 C660 1.524 . S
C659 H662 0.999 . S
C660 H630 0.950 . S
C660 C659 1.524 . S
C660 C661 1.415 . S
C661 H631 0.950 . S
C661 C656 1.363 . S
C661 C660 1.415 . S
H662 C659 0.999 . S
H663 C644 0.913 . S
H664 C682 0.951 . S
H665 C684 0.951 . S
H666 C686 0.950 . S
H667 C687 0.950 . S
H668 C689 0.950 1_565 S
H669 C692 0.950 . S
H670 C693 0.950 . S
H671 C695 0.950 . S
H672 C696 0.950 . S
H673 C697 0.951 . S
H674 C699 0.951 . S
H675 C701 0.950 . S
H676 C702 0.950 . S
H677 C704 0.950 . S
H678 C707 0.950 . S
H679 C708 0.950 . S
H680 C710 0.950 1_565 S
H681 C711 0.950 . S
C682 H664 0.951 . S
C682 C683 1.366 . S
C682 C684 1.388 . S
C683 C682 1.366 . S
C683 C687 1.385 . S
C684 H665 0.951 . S
C684 C682 1.388 . S
C684 C685 1.366 . S
C685 C684 1.366 . S
C685 C686 1.414 . S
C685 C688 1.499 1_565 S
C686 H666 0.950 . S
C686 C685 1.414 . S
C686 C687 1.374 . S
C687 H667 0.950 . S
C687 C683 1.385 . S
C687 C686 1.374 . S
C688 C685 1.499 1_545 S
C688 C689 1.373 . S
C688 C690 1.389 . S
C689 H668 0.950 1_545 S
C689 C688 1.373 . S
C689 C705 1.377 . S
C690 C688 1.389 . S
C690 C691 1.524 . S
C690 C704 1.377 . S
C691 C690 1.524 . S
C691 C692 1.397 . S
C691 C696 1.363 . S
C692 H669 0.950 . S
C692 C691 1.397 . S
C692 C693 1.334 . S
C693 H670 0.950 . S
C693 C692 1.334 . S
C693 C694 1.287 . S
C694 C693 1.287 . S
C694 C695 1.524 . S
C694 H713 0.913 . S
C695 H671 0.950 . S
C695 C694 1.524 . S
C695 C696 1.415 . S
C696 H672 0.950 . S
C696 C691 1.363 . S
C696 C695 1.415 . S
C697 H673 0.951 . S
C697 C698 1.366 . S
C697 C699 1.388 . S
C698 C697 1.366 . S
C698 C702 1.385 . S
C699 H674 0.951 . S
C699 C697 1.388 . S
C699 C700 1.366 . S
C700 C699 1.366 . S
C700 C701 1.414 . S
C700 C703 1.499 . S
C701 H675 0.950 . S
C701 C700 1.414 . S
C701 C702 1.374 . S
C702 H676 0.950 . S
C702 C698 1.385 . S
C702 C701 1.374 . S
C703 C700 1.499 . S
C703 C704 1.373 . S
C703 C705 1.389 . S
C704 H677 0.950 . S
C704 C690 1.377 . S
C704 C703 1.373 . S
C705 C689 1.377 . S
C705 C703 1.389 . S
C705 C706 1.524 . S
C706 C705 1.524 . S
C706 C707 1.397 . S
C706 C711 1.363 . S
C707 H678 0.950 . S
C707 C706 1.397 . S
C707 C708 1.334 . S
C708 H679 0.950 . S
C708 C707 1.334 . S
C708 C709 1.287 . S
C709 C708 1.287 . S
C709 C710 1.524 . S
C709 H712 0.999 . S
C710 H680 0.950 1_545 S
C710 C709 1.524 . S
C710 C711 1.415 . S
C711 H681 0.950 . S
C711 C706 1.363 . S
C711 C710 1.415 . S
H712 C709 0.999 . S
H713 C694 0.913 . S
H714 C732 0.951 . S
H715 C734 0.951 . S
H716 C736 0.950 . S
H717 C737 0.950 . S
H718 C739 0.950 . S
H719 C742 0.950 . S
H720 C743 0.950 . S
H721 C745 0.950 . S
H722 C746 0.950 . S
H723 C747 0.951 . S
H724 C749 0.951 . S
H725 C751 0.950 . S
H726 C752 0.950 . S
H727 C754 0.950 . S
H728 C757 0.950 . S
H729 C758 0.950 . S
H730 C760 0.950 . S
H731 C761 0.950 . S
C732 H714 0.951 . S
C732 C733 1.366 . S
C732 C734 1.388 . S
C733 C732 1.366 . S
C733 C737 1.385 . S
C734 H715 0.951 . S
C734 C732 1.388 . S
C734 C735 1.366 . S
C735 C734 1.366 . S
C735 C736 1.414 . S
C735 C738 1.499 . S
C736 H716 0.950 . S
C736 C735 1.414 . S
C736 C737 1.374 . S
C737 H717 0.950 . S
C737 C733 1.385 . S
C737 C736 1.374 . S
C738 C735 1.499 . S
C738 C739 1.373 . S
C738 C740 1.389 . S
C739 H718 0.950 . S
C739 C738 1.373 . S
C739 C755 1.377 . S
C740 C738 1.389 . S
C740 C741 1.524 . S
C740 C754 1.377 . S
C741 C740 1.524 . S
C741 C742 1.397 . S
C741 C746 1.363 . S
C742 H719 0.950 . S
C742 C741 1.397 . S
C742 C743 1.334 . S
C743 H720 0.950 . S
C743 C742 1.334 . S
C743 C744 1.287 . S
C744 C743 1.287 . S
C744 C745 1.524 . S
C744 H763 0.913 . S
C745 H721 0.950 . S
C745 C744 1.524 . S
C745 C746 1.415 . S
C746 H722 0.950 . S
C746 C741 1.363 . S
C746 C745 1.415 . S
C747 H723 0.951 . S
C747 C748 1.366 . S
C747 C749 1.388 . S
C748 C747 1.366 . S
C748 C752 1.385 . S
C749 H724 0.951 . S
C749 C747 1.388 . S
C749 C750 1.366 . S
C750 C749 1.366 . S
C750 C751 1.414 . S
C750 C753 1.499 . S
C751 H725 0.950 . S
C751 C750 1.414 . S
C751 C752 1.374 . S
C752 H726 0.950 . S
C752 C748 1.385 . S
C752 C751 1.374 . S
C753 C750 1.499 . S
C753 C754 1.373 . S
C753 C755 1.389 . S
C754 H727 0.950 . S
C754 C740 1.377 . S
C754 C753 1.373 . S
C755 C739 1.377 . S
C755 C753 1.389 . S
C755 C756 1.524 . S
C756 C755 1.524 . S
C756 C757 1.397 . S
C756 C761 1.363 . S
C757 H728 0.950 . S
C757 C756 1.397 . S
C757 C758 1.334 . S
C758 H729 0.950 . S
C758 C757 1.334 . S
C758 C759 1.287 . S
C759 C758 1.287 . S
C759 C760 1.524 . S
C759 H762 0.999 . S
C760 H730 0.950 . S
C760 C759 1.524 . S
C760 C761 1.415 . S
C761 H731 0.950 . S
C761 C756 1.363 . S
C761 C760 1.415 . S
H762 C759 0.999 . S
H763 C744 0.913 . S
H764 C782 0.951 . S
H765 C784 0.951 . S
H766 C786 0.950 . S
H767 C787 0.950 . S
H768 C789 0.950 . S
H769 C792 0.950 . S
H770 C793 0.950 . S
H771 C795 0.950 . S
H772 C796 0.950 . S
H773 C797 0.951 . S
H774 C799 0.951 . S
H775 C801 0.950 . S
H776 C802 0.950 . S
H777 C804 0.950 . S
H778 C807 0.950 . S
H779 C808 0.950 . S
H780 C810 0.950 . S
H781 C811 0.950 . S
C782 H764 0.951 . S
C782 C783 1.366 . S
C782 C784 1.388 . S
C783 C782 1.366 . S
C783 C787 1.385 . S
C784 H765 0.951 . S
C784 C782 1.388 . S
C784 C785 1.366 . S
C785 C784 1.366 . S
C785 C786 1.414 . S
C785 C788 1.499 1_545 S
C786 H766 0.950 . S
C786 C785 1.414 . S
C786 C787 1.374 . S
C787 H767 0.950 . S
C787 C783 1.385 . S
C787 C786 1.374 . S
C788 C785 1.499 1_565 S
C788 C789 1.373 . S
C788 C790 1.389 . S
C789 H768 0.950 . S
C789 C788 1.373 . S
C789 C805 1.377 . S
C790 C788 1.389 . S
C790 C791 1.524 . S
C790 C804 1.377 . S
C791 C790 1.524 . S
C791 C792 1.397 1_565 S
C791 C796 1.363 . S
C792 H769 0.950 . S
C792 C791 1.397 1_545 S
C792 C793 1.334 . S
C793 H770 0.950 . S
C793 C792 1.334 . S
C793 C794 1.287 . S
C794 C793 1.287 . S
C794 C795 1.524 1_545 S
C794 H813 0.913 . S
C795 H771 0.950 . S
C795 C794 1.524 1_565 S
C795 C796 1.415 . S
C796 H772 0.950 . S
C796 C791 1.363 . S
C796 C795 1.415 . S
C797 H773 0.951 . S
C797 C798 1.366 . S
C797 C799 1.388 . S
C798 C797 1.366 . S
C798 C802 1.385 . S
C799 H774 0.951 . S
C799 C797 1.388 . S
C799 C800 1.366 . S
C800 C799 1.366 . S
C800 C801 1.414 . S
C800 C803 1.499 . S
C801 H775 0.950 . S
C801 C800 1.414 . S
C801 C802 1.374 . S
C802 H776 0.950 . S
C802 C798 1.385 . S
C802 C801 1.374 . S
C803 C800 1.499 . S
C803 C804 1.373 . S
C803 C805 1.389 . S
C804 H777 0.950 . S
C804 C790 1.377 . S
C804 C803 1.373 . S
C805 C789 1.377 . S
C805 C803 1.389 . S
C805 C806 1.524 . S
C806 C805 1.524 . S
C806 C807 1.397 . S
C806 C811 1.363 . S
C807 H778 0.950 . S
C807 C806 1.397 . S
C807 C808 1.334 . S
C808 H779 0.950 . S
C808 C807 1.334 . S
C808 C809 1.287 . S
C809 C808 1.287 . S
C809 C810 1.524 . S
C809 H812 0.999 . S
C810 H780 0.950 . S
C810 C809 1.524 . S
C810 C811 1.415 . S
C811 H781 0.950 . S
C811 C806 1.363 . S
C811 C810 1.415 . S
H812 C809 0.999 . S
H813 C794 0.913 . S
H814 C832 0.951 . S
H815 C834 0.951 . S
H816 C836 0.950 . S
H817 C837 0.950 . S
H818 C839 0.950 . S
H819 C842 0.950 . S
H820 C843 0.950 . S
H821 C845 0.950 . S
H822 C846 0.950 . S
H823 C847 0.951 . S
H824 C849 0.951 . S
H825 C851 0.950 . S
H826 C852 0.950 . S
H827 C854 0.950 . S
H828 C857 0.950 . S
H829 C858 0.950 . S
H830 C860 0.950 . S
H831 C861 0.950 . S
C832 H814 0.951 . S
C832 C833 1.366 . S
C832 C834 1.388 . S
C833 C832 1.366 . S
C833 C837 1.385 . S
C834 H815 0.951 . S
C834 C832 1.388 . S
C834 C835 1.366 . S
C835 C834 1.366 . S
C835 C836 1.414 . S
C835 C838 1.499 . S
C836 H816 0.950 . S
C836 C835 1.414 . S
C836 C837 1.374 . S
C837 H817 0.950 . S
C837 C833 1.385 . S
C837 C836 1.374 . S
C838 C835 1.499 . S
C838 C839 1.373 . S
C838 C840 1.389 . S
C839 H818 0.950 . S
C839 C838 1.373 . S
C839 C855 1.377 . S
C840 C838 1.389 . S
C840 C841 1.524 . S
C840 C854 1.377 . S
C841 C840 1.524 . S
C841 C842 1.397 . S
C841 C846 1.363 . S
C842 H819 0.950 . S
C842 C841 1.397 . S
C842 C843 1.334 . S
C843 H820 0.950 . S
C843 C842 1.334 . S
C843 C844 1.287 . S
C844 C843 1.287 . S
C844 C845 1.524 . S
C844 H863 0.913 . S
C845 H821 0.950 . S
C845 C844 1.524 . S
C845 C846 1.415 . S
C846 H822 0.950 . S
C846 C841 1.363 . S
C846 C845 1.415 . S
C847 H823 0.951 . S
C847 C848 1.366 . S
C847 C849 1.388 . S
C848 C847 1.366 . S
C848 C852 1.385 . S
C849 H824 0.951 . S
C849 C847 1.388 . S
C849 C850 1.366 . S
C850 C849 1.366 . S
C850 C851 1.414 . S
C850 C853 1.499 . S
C851 H825 0.950 . S
C851 C850 1.414 . S
C851 C852 1.374 . S
C852 H826 0.950 . S
C852 C848 1.385 . S
C852 C851 1.374 . S
C853 C850 1.499 . S
C853 C854 1.373 . S
C853 C855 1.389 . S
C854 H827 0.950 . S
C854 C840 1.377 . S
C854 C853 1.373 . S
C855 C839 1.377 . S
C855 C853 1.389 . S
C855 C856 1.524 . S
C856 C855 1.524 . S
C856 C857 1.397 . S
C856 C861 1.363 . S
C857 H828 0.950 . S
C857 C856 1.397 . S
C857 C858 1.334 . S
C858 H829 0.950 . S
C858 C857 1.334 . S
C858 C859 1.287 . S
C859 C858 1.287 . S
C859 C860 1.524 . S
C859 H862 0.999 . S
C860 H830 0.950 . S
C860 C859 1.524 . S
C860 C861 1.415 . S
C861 H831 0.950 . S
C861 C856 1.363 . S
C861 C860 1.415 . S
H862 C859 0.999 . S
H863 C844 0.913 . S
H864 C882 0.951 . S
H865 C884 0.951 . S
H866 C886 0.950 . S
H867 C887 0.950 . S
H868 C889 0.950 . S
H869 C892 0.950 . S
H870 C893 0.950 . S
H871 C895 0.950 . S
H872 C896 0.950 . S
H873 C897 0.951 . S
H874 C899 0.951 . S
H875 C901 0.950 . S
H876 C902 0.950 . S
H877 C904 0.950 . S
H878 C907 0.950 . S
H879 C908 0.950 . S
H880 C910 0.950 . S
H881 C911 0.950 . S
C882 H864 0.951 . S
C882 C883 1.366 . S
C882 C884 1.388 . S
C883 C882 1.366 . S
C883 C887 1.385 . S
C884 H865 0.951 . S
C884 C882 1.388 . S
C884 C885 1.366 . S
C885 C884 1.366 . S
C885 C886 1.414 . S
C885 C888 1.499 . S
C886 H866 0.950 . S
C886 C885 1.414 . S
C886 C887 1.374 . S
C887 H867 0.950 . S
C887 C883 1.385 . S
C887 C886 1.374 . S
C888 C885 1.499 . S
C888 C889 1.373 . S
C888 C890 1.389 . S
C889 H868 0.950 . S
C889 C888 1.373 . S
C889 C905 1.377 . S
C890 C888 1.389 . S
C890 C891 1.524 . S
C890 C904 1.377 . S
C891 C890 1.524 . S
C891 C892 1.397 . S
C891 C896 1.363 . S
C892 H869 0.950 . S
C892 C891 1.397 . S
C892 C893 1.334 . S
C893 H870 0.950 . S
C893 C892 1.334 . S
C893 C894 1.287 . S
C894 C893 1.287 . S
C894 C895 1.524 . S
C894 H913 0.913 . S
C895 H871 0.950 . S
C895 C894 1.524 . S
C895 C896 1.415 . S
C896 H872 0.950 . S
C896 C891 1.363 . S
C896 C895 1.415 . S
C897 H873 0.951 . S
C897 C898 1.366 . S
C897 C899 1.388 . S
C898 C897 1.366 . S
C898 C902 1.385 . S
C899 H874 0.951 . S
C899 C897 1.388 . S
C899 C900 1.366 . S
C900 C899 1.366 . S
C900 C901 1.414 . S
C900 C903 1.499 . S
C901 H875 0.950 . S
C901 C900 1.414 . S
C901 C902 1.374 . S
C902 H876 0.950 . S
C902 C898 1.385 . S
C902 C901 1.374 . S
C903 C900 1.499 . S
C903 C904 1.373 . S
C903 C905 1.389 . S
C904 H877 0.950 . S
C904 C890 1.377 . S
C904 C903 1.373 . S
C905 C889 1.377 . S
C905 C903 1.389 . S
C905 C906 1.524 . S
C906 C905 1.524 . S
C906 C907 1.397 . S
C906 C911 1.363 . S
C907 H878 0.950 . S
C907 C906 1.397 . S
C907 C908 1.334 . S
C908 H879 0.950 . S
C908 C907 1.334 . S
C908 C909 1.287 . S
C909 C908 1.287 . S
C909 C910 1.524 . S
C909 H912 0.999 . S
C910 H880 0.950 . S
C910 C909 1.524 . S
C910 C911 1.415 . S
C911 H881 0.950 . S
C911 C906 1.363 . S
C911 C910 1.415 . S
H912 C909 0.999 . S
H913 C894 0.913 . S
H914 C932 0.951 . S
H915 C934 0.951 . S
H916 C936 0.950 . S
H917 C937 0.950 . S
H918 C939 0.950 . S
H919 C942 0.950 . S
H920 C943 0.950 . S
H921 C945 0.950 . S
H922 C946 0.950 . S
H923 C947 0.951 . S
H924 C949 0.951 . S
H925 C951 0.950 1_455 S
H926 C952 0.950 . S
H927 C954 0.950 . S
H928 C957 0.950 . S
H929 C958 0.950 . S
H930 C960 0.950 . S
H931 C961 0.950 . S
C932 H914 0.951 . S
C932 C933 1.366 . S
C932 C934 1.388 . S
C933 C932 1.366 . S
C933 C937 1.385 . S
C934 H915 0.951 . S
C934 C932 1.388 . S
C934 C935 1.366 . S
C935 C934 1.366 . S
C935 C936 1.414 . S
C935 C938 1.499 . S
C936 H916 0.950 . S
C936 C935 1.414 . S
C936 C937 1.374 . S
C937 H917 0.950 . S
C937 C933 1.385 . S
C937 C936 1.374 . S
C938 C935 1.499 . S
C938 C939 1.373 . S
C938 C940 1.389 . S
C939 H918 0.950 . S
C939 C938 1.373 . S
C939 C955 1.377 . S
C940 C938 1.389 . S
C940 C941 1.524 . S
C940 C954 1.377 . S
C941 C940 1.524 . S
C941 C942 1.397 . S
C941 C946 1.363 . S
C942 H919 0.950 . S
C942 C941 1.397 . S
C942 C943 1.334 . S
C943 H920 0.950 . S
C943 C942 1.334 . S
C943 C944 1.287 . S
C944 C943 1.287 . S
C944 C945 1.524 . S
C944 H963 0.913 . S
C945 H921 0.950 . S
C945 C944 1.524 . S
C945 C946 1.415 . S
C946 H922 0.950 . S
C946 C941 1.363 . S
C946 C945 1.415 . S
C947 H923 0.951 . S
C947 C948 1.366 . S
C947 C949 1.388 . S
C948 C947 1.366 . S
C948 C952 1.385 . S
C949 H924 0.951 . S
C949 C947 1.388 . S
C949 C950 1.366 . S
C950 C949 1.366 . S
C950 C951 1.414 . S
C950 C953 1.499 1_655 S
C951 H925 0.950 1_655 S
C951 C950 1.414 . S
C951 C952 1.374 . S
C952 H926 0.950 . S
C952 C948 1.385 . S
C952 C951 1.374 . S
C953 C950 1.499 1_455 S
C953 C954 1.373 . S
C953 C955 1.389 . S
C954 H927 0.950 . S
C954 C940 1.377 . S
C954 C953 1.373 . S
C955 C939 1.377 . S
C955 C953 1.389 . S
C955 C956 1.524 1_455 S
C956 C955 1.524 1_655 S
C956 C957 1.397 . S
C956 C961 1.363 . S
C957 H928 0.950 . S
C957 C956 1.397 . S
C957 C958 1.334 . S
C958 H929 0.950 . S
C958 C957 1.334 . S
C958 C959 1.287 . S
C959 C958 1.287 . S
C959 C960 1.524 . S
C959 H962 0.999 . S
C960 H930 0.950 . S
C960 C959 1.524 . S
C960 C961 1.415 . S
C961 H931 0.950 . S
C961 C956 1.363 . S
C961 C960 1.415 . S
H962 C959 0.999 . S
H963 C944 0.913 . S
H964 C982 0.951 . S
H965 C984 0.951 . S
H966 C986 0.950 . S
H967 C987 0.950 . S
H968 C989 0.950 . S
H969 C992 0.950 . S
H970 C993 0.950 . S
H971 C995 0.950 . S
H972 C996 0.950 . S
H973 C997 0.951 . S
H974 C999 0.951 . S
H975 C1001 0.950 . S
H976 C1002 0.950 . S
H977 C1004 0.950 . S
H978 C1007 0.950 . S
H979 C1008 0.950 . S
H980 C1010 0.950 . S
H981 C1011 0.950 . S
C982 H964 0.951 . S
C982 C983 1.366 . S
C982 C984 1.388 . S
C983 C982 1.366 . S
C983 C987 1.385 . S
C984 H965 0.951 . S
C984 C982 1.388 . S
C984 C985 1.366 . S
C985 C984 1.366 . S
C985 C986 1.414 . S
C985 C988 1.499 . S
C986 H966 0.950 . S
C986 C985 1.414 . S
C986 C987 1.374 . S
C987 H967 0.950 . S
C987 C983 1.385 . S
C987 C986 1.374 . S
C988 C985 1.499 . S
C988 C989 1.373 . S
C988 C990 1.389 . S
C989 H968 0.950 . S
C989 C988 1.373 . S
C989 C1005 1.377 . S
C990 C988 1.389 . S
C990 C991 1.524 . S
C990 C1004 1.377 . S
C991 C990 1.524 . S
C991 C992 1.397 . S
C991 C996 1.363 . S
C992 H969 0.950 . S
C992 C991 1.397 . S
C992 C993 1.334 . S
C993 H970 0.950 . S
C993 C992 1.334 . S
C993 C994 1.287 . S
C994 C993 1.287 . S
C994 C995 1.524 . S
C994 H1013 0.913 . S
C995 H971 0.950 . S
C995 C994 1.524 . S
C995 C996 1.415 . S
C996 H972 0.950 . S
C996 C991 1.363 . S
C996 C995 1.415 . S
C997 H973 0.951 . S
C997 C998 1.366 . S
C997 C999 1.388 . S
C998 C997 1.366 . S
C998 C1002 1.385 . S
C999 H974 0.951 . S
C999 C997 1.388 . S
C999 C1000 1.366 . S
C1000 C999 1.366 . S
C1000 C1001 1.414 . S
C1000 C1003 1.499 . S
C1001 H975 0.950 . S
C1001 C1000 1.414 . S
C1001 C1002 1.374 . S
C1002 H976 0.950 . S
C1002 C998 1.385 . S
C1002 C1001 1.374 . S
C1003 C1000 1.499 . S
C1003 C1004 1.373 . S
C1003 C1005 1.389 . S
C1004 H977 0.950 . S
C1004 C990 1.377 . S
C1004 C1003 1.373 . S
C1005 C989 1.377 . S
C1005 C1003 1.389 . S
C1005 C1006 1.524 . S
C1006 C1005 1.524 . S
C1006 C1007 1.397 . S
C1006 C1011 1.363 . S
C1007 H978 0.950 . S
C1007 C1006 1.397 . S
C1007 C1008 1.334 . S
C1008 H979 0.950 . S
C1008 C1007 1.334 . S
C1008 C1009 1.287 . S
C1009 C1008 1.287 . S
C1009 C1010 1.524 . S
C1009 H1012 0.999 . S
C1010 H980 0.950 . S
C1010 C1009 1.524 . S
C1010 C1011 1.415 . S
C1011 H981 0.950 . S
C1011 C1006 1.363 . S
C1011 C1010 1.415 . S
H1012 C1009 0.999 . S
H1013 C994 0.913 . S
H1014 C1032 0.951 . S
H1015 C1034 0.951 . S
H1016 C1036 0.950 . S
H1017 C1037 0.950 . S
H1018 C1039 0.950 . S
H1019 C1042 0.950 . S
H1020 C1043 0.950 . S
H1021 C1045 0.950 . S
H1022 C1046 0.950 . S
H1023 C1047 0.951 . S
H1024 C1049 0.951 . S
H1025 C1051 0.950 . S
H1026 C1052 0.950 . S
H1027 C1054 0.950 . S
H1028 C1057 0.950 . S
H1029 C1058 0.950 . S
H1030 C1060 0.950 . S
H1031 C1061 0.950 . S
C1032 H1014 0.951 . S
C1032 C1033 1.366 . S
C1032 C1034 1.388 . S
C1033 C1032 1.366 . S
C1033 C1037 1.385 . S
C1034 H1015 0.951 . S
C1034 C1032 1.388 . S
C1034 C1035 1.366 . S
C1035 C1034 1.366 . S
C1035 C1036 1.414 . S
C1035 C1038 1.499 . S
C1036 H1016 0.950 . S
C1036 C1035 1.414 . S
C1036 C1037 1.374 . S
C1037 H1017 0.950 . S
C1037 C1033 1.385 . S
C1037 C1036 1.374 . S
C1038 C1035 1.499 . S
C1038 C1039 1.373 . S
C1038 C1040 1.389 . S
C1039 H1018 0.950 . S
C1039 C1038 1.373 . S
C1039 C1055 1.377 . S
C1040 C1038 1.389 . S
C1040 C1041 1.524 . S
C1040 C1054 1.377 . S
C1041 C1040 1.524 . S
C1041 C1042 1.397 . S
C1041 C1046 1.363 . S
C1042 H1019 0.950 . S
C1042 C1041 1.397 . S
C1042 C1043 1.334 . S
C1043 H1020 0.950 . S
C1043 C1042 1.334 . S
C1043 C1044 1.287 . S
C1044 C1043 1.287 . S
C1044 C1045 1.524 . S
C1044 H1063 0.913 . S
C1045 H1021 0.950 . S
C1045 C1044 1.524 . S
C1045 C1046 1.415 . S
C1046 H1022 0.950 . S
C1046 C1041 1.363 . S
C1046 C1045 1.415 . S
C1047 H1023 0.951 . S
C1047 C1048 1.366 . S
C1047 C1049 1.388 . S
C1048 C1047 1.366 . S
C1048 C1052 1.385 . S
C1049 H1024 0.951 . S
C1049 C1047 1.388 . S
C1049 C1050 1.366 . S
C1050 C1049 1.366 . S
C1050 C1051 1.414 . S
C1050 C1053 1.499 1_455 S
C1051 H1025 0.950 . S
C1051 C1050 1.414 . S
C1051 C1052 1.374 . S
C1052 H1026 0.950 . S
C1052 C1048 1.385 . S
C1052 C1051 1.374 . S
C1053 C1050 1.499 1_655 S
C1053 C1054 1.373 . S
C1053 C1055 1.389 . S
C1054 H1027 0.950 . S
C1054 C1040 1.377 . S
C1054 C1053 1.373 . S
C1055 C1039 1.377 . S
C1055 C1053 1.389 . S
C1055 C1056 1.524 1_655 S
C1056 C1055 1.524 1_455 S
C1056 C1057 1.397 . S
C1056 C1061 1.363 . S
C1057 H1028 0.950 . S
C1057 C1056 1.397 . S
C1057 C1058 1.334 . S
C1058 H1029 0.950 . S
C1058 C1057 1.334 . S
C1058 C1059 1.287 . S
C1059 C1058 1.287 . S
C1059 C1060 1.524 . S
C1059 H1062 0.999 . S
C1060 H1030 0.950 . S
C1060 C1059 1.524 . S
C1060 C1061 1.415 . S
C1061 H1031 0.950 . S
C1061 C1056 1.363 . S
C1061 C1060 1.415 . S
H1062 C1059 0.999 . S
H1063 C1044 0.913 . S
H1064 C1082 0.951 1_565 S
H1065 C1084 0.951 . S
H1066 C1086 0.950 . S
H1067 C1087 0.950 . S
H1068 C1089 0.950 . S
H1069 C1092 0.950 . S
H1070 C1093 0.950 . S
H1071 C1095 0.950 . S
H1072 C1096 0.950 . S
H1073 C1097 0.951 . S
H1074 C1099 0.951 . S
H1075 C1101 0.950 . S
H1076 C1102 0.950 1_455 S
H1077 C1104 0.950 . S
H1078 C1107 0.950 . S
H1079 C1108 0.950 . S
H1080 C1110 0.950 . S
H1081 C1111 0.950 . S
C1082 H1064 0.951 1_545 S
C1082 C1083 1.366 . S
C1082 C1084 1.388 . S
C1083 C1082 1.366 . S
C1083 C1087 1.385 . S
C1084 H1065 0.951 . S
C1084 C1082 1.388 . S
C1084 C1085 1.366 . S
C1085 C1084 1.366 . S
C1085 C1086 1.414 . S
C1085 C1088 1.499 . S
C1086 H1066 0.950 . S
C1086 C1085 1.414 . S
C1086 C1087 1.374 . S
C1087 H1067 0.950 . S
C1087 C1083 1.385 . S
C1087 C1086 1.374 . S
C1088 C1085 1.499 . S
C1088 C1089 1.373 . S
C1088 C1090 1.389 . S
C1089 H1068 0.950 . S
C1089 C1088 1.373 . S
C1089 C1105 1.377 . S
C1090 C1088 1.389 . S
C1090 C1091 1.524 . S
C1090 C1104 1.377 . S
C1091 C1090 1.524 . S
C1091 C1092 1.397 . S
C1091 C1096 1.363 . S
C1092 H1069 0.950 . S
C1092 C1091 1.397 . S
C1092 C1093 1.334 . S
C1093 H1070 0.950 . S
C1093 C1092 1.334 . S
C1093 C1094 1.287 . S
C1094 C1093 1.287 . S
C1094 C1095 1.524 . S
C1094 H1113 0.913 . S
C1095 H1071 0.950 . S
C1095 C1094 1.524 . S
C1095 C1096 1.415 . S
C1096 H1072 0.950 . S
C1096 C1091 1.363 . S
C1096 C1095 1.415 . S
C1097 H1073 0.951 . S
C1097 C1098 1.366 . S
C1097 C1099 1.388 . S
C1098 C1097 1.366 . S
C1098 C1102 1.385 . S
C1099 H1074 0.951 . S
C1099 C1097 1.388 . S
C1099 C1100 1.366 . S
C1100 C1099 1.366 . S
C1100 C1101 1.414 . S
C1100 C1103 1.499 . S
C1101 H1075 0.950 . S
C1101 C1100 1.414 . S
C1101 C1102 1.374 . S
C1102 H1076 0.950 1_655 S
C1102 C1098 1.385 . S
C1102 C1101 1.374 . S
C1103 C1100 1.499 . S
C1103 C1104 1.373 . S
C1103 C1105 1.389 . S
C1104 H1077 0.950 . S
C1104 C1090 1.377 . S
C1104 C1103 1.373 . S
C1105 C1089 1.377 . S
C1105 C1103 1.389 . S
C1105 C1106 1.524 . S
C1106 C1105 1.524 . S
C1106 C1107 1.397 . S
C1106 C1111 1.363 . S
C1107 H1078 0.950 . S
C1107 C1106 1.397 . S
C1107 C1108 1.334 . S
C1108 H1079 0.950 . S
C1108 C1107 1.334 . S
C1108 C1109 1.287 . S
C1109 C1108 1.287 . S
C1109 C1110 1.524 . S
C1109 H1112 0.999 . S
C1110 H1080 0.950 . S
C1110 C1109 1.524 . S
C1110 C1111 1.415 . S
C1111 H1081 0.950 . S
C1111 C1106 1.363 . S
C1111 C1110 1.415 . S
H1112 C1109 0.999 . S
H1113 C1094 0.913 . S
H1114 C1132 0.951 . S
H1115 C1134 0.951 . S
H1116 C1136 0.950 . S
H1117 C1137 0.950 . S
H1118 C1139 0.950 . S
H1119 C1142 0.950 . S
H1120 C1143 0.950 . S
H1121 C1145 0.950 . S
H1122 C1146 0.950 . S
H1123 C1147 0.951 . S
H1124 C1149 0.951 . S
H1125 C1151 0.950 . S
H1126 C1152 0.950 . S
H1127 C1154 0.950 . S
H1128 C1157 0.950 . S
H1129 C1158 0.950 . S
H1130 C1160 0.950 . S
H1131 C1161 0.950 . S
C1132 H1114 0.951 . S
C1132 C1133 1.366 . S
C1132 C1134 1.388 . S
C1133 C1132 1.366 . S
C1133 C1137 1.385 . S
C1134 H1115 0.951 . S
C1134 C1132 1.388 . S
C1134 C1135 1.366 . S
C1135 C1134 1.366 . S
C1135 C1136 1.414 . S
C1135 C1138 1.499 . S
C1136 H1116 0.950 . S
C1136 C1135 1.414 . S
C1136 C1137 1.374 . S
C1137 H1117 0.950 . S
C1137 C1133 1.385 . S
C1137 C1136 1.374 . S
C1138 C1135 1.499 . S
C1138 C1139 1.373 . S
C1138 C1140 1.389 . S
C1139 H1118 0.950 . S
C1139 C1138 1.373 . S
C1139 C1155 1.377 . S
C1140 C1138 1.389 . S
C1140 C1141 1.524 . S
C1140 C1154 1.377 . S
C1141 C1140 1.524 . S
C1141 C1142 1.397 . S
C1141 C1146 1.363 . S
C1142 H1119 0.950 . S
C1142 C1141 1.397 . S
C1142 C1143 1.334 . S
C1143 H1120 0.950 . S
C1143 C1142 1.334 . S
C1143 C1144 1.287 . S
C1144 C1143 1.287 . S
C1144 C1145 1.524 . S
C1144 H1163 0.913 . S
C1145 H1121 0.950 . S
C1145 C1144 1.524 . S
C1145 C1146 1.415 . S
C1146 H1122 0.950 . S
C1146 C1141 1.363 . S
C1146 C1145 1.415 . S
C1147 H1123 0.951 . S
C1147 C1148 1.366 . S
C1147 C1149 1.388 . S
C1148 C1147 1.366 . S
C1148 C1152 1.385 . S
C1149 H1124 0.951 . S
C1149 C1147 1.388 . S
C1149 C1150 1.366 . S
C1150 C1149 1.366 . S
C1150 C1151 1.414 . S
C1150 C1153 1.499 . S
C1151 H1125 0.950 . S
C1151 C1150 1.414 . S
C1151 C1152 1.374 . S
C1152 H1126 0.950 . S
C1152 C1148 1.385 . S
C1152 C1151 1.374 . S
C1153 C1150 1.499 . S
C1153 C1154 1.373 . S
C1153 C1155 1.389 . S
C1154 H1127 0.950 . S
C1154 C1140 1.377 . S
C1154 C1153 1.373 . S
C1155 C1139 1.377 . S
C1155 C1153 1.389 . S
C1155 C1156 1.524 . S
C1156 C1155 1.524 . S
C1156 C1157 1.397 . S
C1156 C1161 1.363 . S
C1157 H1128 0.950 . S
C1157 C1156 1.397 . S
C1157 C1158 1.334 . S
C1158 H1129 0.950 . S
C1158 C1157 1.334 . S
C1158 C1159 1.287 . S
C1159 C1158 1.287 . S
C1159 C1160 1.524 . S
C1159 H1162 0.999 . S
C1160 H1130 0.950 . S
C1160 C1159 1.524 . S
C1160 C1161 1.415 . S
C1161 H1131 0.950 . S
C1161 C1156 1.363 . S
C1161 C1160 1.415 . S
H1162 C1159 0.999 . S
H1163 C1144 0.913 . S
H1164 C1182 0.951 1_655 S
H1165 C1184 0.951 . S
H1166 C1186 0.950 . S
H1167 C1187 0.950 . S
H1168 C1189 0.950 . S
H1169 C1192 0.950 . S
H1170 C1193 0.950 1_655 S
H1171 C1195 0.950 . S
H1172 C1196 0.950 . S
H1173 C1197 0.951 . S
H1174 C1199 0.951 . S
H1175 C1201 0.950 . S
H1176 C1202 0.950 . S
H1177 C1204 0.950 . S
H1178 C1207 0.950 . S
H1179 C1208 0.950 . S
H1180 C1210 0.950 . S
H1181 C1211 0.950 . S
C1182 H1164 0.951 1_455 S
C1182 C1183 1.366 . S
C1182 C1184 1.388 . S
C1183 C1182 1.366 . S
C1183 C1187 1.385 . S
C1184 H1165 0.951 . S
C1184 C1182 1.388 . S
C1184 C1185 1.366 . S
C1185 C1184 1.366 . S
C1185 C1186 1.414 . S
C1185 C1188 1.499 . S
C1186 H1166 0.950 . S
C1186 C1185 1.414 . S
C1186 C1187 1.374 . S
C1187 H1167 0.950 . S
C1187 C1183 1.385 . S
C1187 C1186 1.374 . S
C1188 C1185 1.499 . S
C1188 C1189 1.373 . S
C1188 C1190 1.389 . S
C1189 H1168 0.950 . S
C1189 C1188 1.373 . S
C1189 C1205 1.377 . S
C1190 C1188 1.389 . S
C1190 C1191 1.524 . S
C1190 C1204 1.377 . S
C1191 C1190 1.524 . S
C1191 C1192 1.397 . S
C1191 C1196 1.363 . S
C1192 H1169 0.950 . S
C1192 C1191 1.397 . S
C1192 C1193 1.334 . S
C1193 H1170 0.950 1_455 S
C1193 C1192 1.334 . S
C1193 C1194 1.287 1_455 S
C1194 C1193 1.287 1_655 S
C1194 C1195 1.524 . S
C1194 H1213 0.913 . S
C1195 H1171 0.950 . S
C1195 C1194 1.524 . S
C1195 C1196 1.415 1_655 S
C1196 H1172 0.950 . S
C1196 C1191 1.363 . S
C1196 C1195 1.415 1_455 S
C1197 H1173 0.951 . S
C1197 C1198 1.366 . S
C1197 C1199 1.388 . S
C1198 C1197 1.366 . S
C1198 C1202 1.385 . S
C1199 H1174 0.951 . S
C1199 C1197 1.388 . S
C1199 C1200 1.366 . S
C1200 C1199 1.366 . S
C1200 C1201 1.414 . S
C1200 C1203 1.499 . S
C1201 H1175 0.950 . S
C1201 C1200 1.414 . S
C1201 C1202 1.374 . S
C1202 H1176 0.950 . S
C1202 C1198 1.385 . S
C1202 C1201 1.374 . S
C1203 C1200 1.499 . S
C1203 C1204 1.373 . S
C1203 C1205 1.389 . S
C1204 H1177 0.950 . S
C1204 C1190 1.377 . S
C1204 C1203 1.373 . S
C1205 C1189 1.377 . S
C1205 C1203 1.389 . S
C1205 C1206 1.524 . S
C1206 C1205 1.524 . S
C1206 C1207 1.397 . S
C1206 C1211 1.363 . S
C1207 H1178 0.950 . S
C1207 C1206 1.397 . S
C1207 C1208 1.334 . S
C1208 H1179 0.950 . S
C1208 C1207 1.334 . S
C1208 C1209 1.287 . S
C1209 C1208 1.287 . S
C1209 C1210 1.524 . S
C1209 H1212 0.999 . S
C1210 H1180 0.950 . S
C1210 C1209 1.524 . S
C1210 C1211 1.415 . S
C1211 H1181 0.950 . S
C1211 C1206 1.363 . S
C1211 C1210 1.415 . S
H1212 C1209 0.999 . S
H1213 C1194 0.913 . S
H1214 C1232 0.951 . S
H1215 C1234 0.951 . S
H1216 C1236 0.950 1_554 S
H1217 C1237 0.950 . S
H1218 C1239 0.950 . S
H1219 C1242 0.950 . S
H1220 C1243 0.950 . S
H1221 C1245 0.950 . S
H1222 C1246 0.950 . S
H1223 C1247 0.951 . S
H1224 C1249 0.951 . S
H1225 C1251 0.950 1_556 S
H1226 C1252 0.950 . S
H1227 C1254 0.950 . S
H1228 C1257 0.950 . S
H1229 C1258 0.950 . S
H1230 C1260 0.950 . S
H1231 C1261 0.950 . S
C1232 H1214 0.951 . S
C1232 C1233 1.366 . S
C1232 C1234 1.388 . S
C1233 C1232 1.366 . S
C1233 C1237 1.385 . S
C1234 H1215 0.951 . S
C1234 C1232 1.388 . S
C1234 C1235 1.366 . S
C1235 C1234 1.366 . S
C1235 C1236 1.414 . S
C1235 C1238 1.499 . S
C1236 H1216 0.950 1_556 S
C1236 C1235 1.414 . S
C1236 C1237 1.374 . S
C1237 H1217 0.950 . S
C1237 C1233 1.385 . S
C1237 C1236 1.374 . S
C1238 C1235 1.499 . S
C1238 C1239 1.373 1_556 S
C1238 C1240 1.389 . S
C1239 H1218 0.950 . S
C1239 C1238 1.373 1_554 S
C1239 C1255 1.377 . S
C1240 C1238 1.389 . S
C1240 C1241 1.524 . S
C1240 C1254 1.377 . S
C1241 C1240 1.524 . S
C1241 C1242 1.397 . S
C1241 C1246 1.363 . S
C1242 H1219 0.950 . S
C1242 C1241 1.397 . S
C1242 C1243 1.334 . S
C1243 H1220 0.950 . S
C1243 C1242 1.334 . S
C1243 C1244 1.287 . S
C1244 C1243 1.287 . S
C1244 C1245 1.524 . S
C1244 H1263 0.913 . S
C1245 H1221 0.950 . S
C1245 C1244 1.524 . S
C1245 C1246 1.415 . S
C1246 H1222 0.950 . S
C1246 C1241 1.363 . S
C1246 C1245 1.415 . S
C1247 H1223 0.951 . S
C1247 C1248 1.366 . S
C1247 C1249 1.388 . S
C1248 C1247 1.366 . S
C1248 C1252 1.385 . S
C1249 H1224 0.951 . S
C1249 C1247 1.388 . S
C1249 C1250 1.366 . S
C1250 C1249 1.366 . S
C1250 C1251 1.414 . S
C1250 C1253 1.499 . S
C1251 H1225 0.950 1_554 S
C1251 C1250 1.414 . S
C1251 C1252 1.374 . S
C1252 H1226 0.950 . S
C1252 C1248 1.385 . S
C1252 C1251 1.374 . S
C1253 C1250 1.499 . S
C1253 C1254 1.373 1_554 S
C1253 C1255 1.389 . S
C1254 H1227 0.950 . S
C1254 C1240 1.377 . S
C1254 C1253 1.373 1_556 S
C1255 C1239 1.377 . S
C1255 C1253 1.389 . S
C1255 C1256 1.524 . S
C1256 C1255 1.524 . S
C1256 C1257 1.397 . S
C1256 C1261 1.363 . S
C1257 H1228 0.950 . S
C1257 C1256 1.397 . S
C1257 C1258 1.334 . S
C1258 H1229 0.950 . S
C1258 C1257 1.334 . S
C1258 C1259 1.287 . S
C1259 C1258 1.287 . S
C1259 C1260 1.524 . S
C1259 H1262 0.999 . S
C1260 H1230 0.950 . S
C1260 C1259 1.524 . S
C1260 C1261 1.415 . S
C1261 H1231 0.950 . S
C1261 C1256 1.363 . S
C1261 C1260 1.415 . S
H1262 C1259 0.999 . S
H1263 C1244 0.913 . S
C283 C18 1.084 . S
C298 C40 1.082 . S
C333 C73 1.082 . S
C348 C51 1.084 . S
C383 C106 1.082 . S
C398 C84 1.084 . S
C433 C117 1.084 . S
C448 C7 1.082 . S
C483 C150 1.084 . S
C498 C238 1.082 . S
C533 C183 1.084 . S
C548 C139 1.082 . S
C583 C216 1.084 . S
C598 C172 1.082 . S
C633 C249 1.084 . S
C648 C205 1.083 . S
C683 N211 1.647 . S
C698 C21 1.687 . S
C733 N244 1.647 . S
C748 C54 1.687 . S
C783 N145 1.648 . S
C798 C87 1.687 . S
C833 N178 1.647 . S
C848 C120 1.687 . S
C883 C153 1.687 . S
C898 N79 1.648 . S
C933 C186 1.687 . S
C948 N112 1.648 . S
C983 C219 1.687 . S
C998 N13 1.647 . S
C1033 C252 1.687 . S
C1048 N46 1.647 . S
C1083 N233 1.161 1_545 S
C1098 N2 1.161 1_655 S
C1133 N134 1.161 . S
C1148 N35 1.161 . S
C1183 N68 1.161 1_455 S
C1198 N167 1.161 1_565 S
C1233 N101 1.161 . S
C1248 N200 1.162 . S
