# Generated by pormake.
# Topology yfc, (5)-cn, num edge types: 1
# Building blocks:
#     Node 0, Type 0, BuildingBlock: BEQFEK_clean_sbu_0, # of connection points: 5
#     Node 1, Type 0, BuildingBlock: BEQFEK_clean_sbu_0, # of connection points: 5
#     Node 2, Type 0, BuildingBlock: BEQFEK_clean_sbu_0, # of connection points: 5
#     Node 3, Type 0, BuildingBlock: BEQFEK_clean_sbu_0, # of connection points: 5
#     Node 4, Type 0, BuildingBlock: BEQFEK_clean_sbu_0, # of connection points: 5
#     Node 5, Type 0, BuildingBlock: BEQFEK_clean_sbu_0, # of connection points: 5
#     Node 6, Type 0, BuildingBlock: BEQFEK_clean_sbu_0, # of connection points: 5
#     Node 7, Type 0, BuildingBlock: BEQFEK_clean_sbu_0, # of connection points: 5
#     Node 8, Type 0, BuildingBlock: BEQFEK_clean_sbu_0, # of connection points: 5
#     Node 9, Type 0, BuildingBlock: BEQFEK_clean_sbu_0, # of connection points: 5
#     Node 10, Type 0, BuildingBlock: BEQFEK_clean_sbu_0, # of connection points: 5
#     Node 11, Type 0, BuildingBlock: BEQFEK_clean_sbu_0, # of connection points: 5
#     Node 12, Type 0, BuildingBlock: BEQFEK_clean_sbu_0, # of connection points: 5
#     Node 13, Type 0, BuildingBlock: BEQFEK_clean_sbu_0, # of connection points: 5
#     Node 14, Type 0, BuildingBlock: BEQFEK_clean_sbu_0, # of connection points: 5
#     Node 15, Type 0, BuildingBlock: BEQFEK_clean_sbu_0, # of connection points: 5
#     Edge 16, Type (0, 0), BuildingBlock: OJICUG_clean_linker_0, # of connection points: 2
#     Edge 17, Type (0, 0), BuildingBlock: OJICUG_clean_linker_0, # of connection points: 2
#     Edge 18, Type (0, 0), BuildingBlock: OJICUG_clean_linker_0, # of connection points: 2
#     Edge 19, Type (0, 0), BuildingBlock: OJICUG_clean_linker_0, # of connection points: 2
#     Edge 20, Type (0, 0), BuildingBlock: OJICUG_clean_linker_0, # of connection points: 2
#     Edge 21, Type (0, 0), BuildingBlock: OJICUG_clean_linker_0, # of connection points: 2
#     Edge 22, Type (0, 0), BuildingBlock: OJICUG_clean_linker_0, # of connection points: 2
#     Edge 23, Type (0, 0), BuildingBlock: OJICUG_clean_linker_0, # of connection points: 2
#     Edge 24, Type (0, 0), BuildingBlock: OJICUG_clean_linker_0, # of connection points: 2
#     Edge 25, Type (0, 0), BuildingBlock: OJICUG_clean_linker_0, # of connection points: 2
#     Edge 26, Type (0, 0), BuildingBlock: OJICUG_clean_linker_0, # of connection points: 2
#     Edge 27, Type (0, 0), BuildingBlock: OJICUG_clean_linker_0, # of connection points: 2
#     Edge 28, Type (0, 0), BuildingBlock: OJICUG_clean_linker_0, # of connection points: 2
#     Edge 29, Type (0, 0), BuildingBlock: OJICUG_clean_linker_0, # of connection points: 2
#     Edge 30, Type (0, 0), BuildingBlock: OJICUG_clean_linker_0, # of connection points: 2
#     Edge 31, Type (0, 0), BuildingBlock: OJICUG_clean_linker_0, # of connection points: 2
#     Edge 32, Type (0, 0), BuildingBlock: OJICUG_clean_linker_0, # of connection points: 2
#     Edge 33, Type (0, 0), BuildingBlock: OJICUG_clean_linker_0, # of connection points: 2
#     Edge 34, Type (0, 0), BuildingBlock: OJICUG_clean_linker_0, # of connection points: 2
#     Edge 35, Type (0, 0), BuildingBlock: OJICUG_clean_linker_0, # of connection points: 2
#     Edge 36, Type (0, 0), BuildingBlock: OJICUG_clean_linker_0, # of connection points: 2
#     Edge 37, Type (0, 0), BuildingBlock: OJICUG_clean_linker_0, # of connection points: 2
#     Edge 38, Type (0, 0), BuildingBlock: OJICUG_clean_linker_0, # of connection points: 2
#     Edge 39, Type (0, 0), BuildingBlock: OJICUG_clean_linker_0, # of connection points: 2
#     Edge 40, Type (0, 0), BuildingBlock: OJICUG_clean_linker_0, # of connection points: 2
#     Edge 41, Type (0, 0), BuildingBlock: OJICUG_clean_linker_0, # of connection points: 2
#     Edge 42, Type (0, 0), BuildingBlock: OJICUG_clean_linker_0, # of connection points: 2
#     Edge 43, Type (0, 0), BuildingBlock: OJICUG_clean_linker_0, # of connection points: 2
#     Edge 44, Type (0, 0), BuildingBlock: OJICUG_clean_linker_0, # of connection points: 2
#     Edge 45, Type (0, 0), BuildingBlock: OJICUG_clean_linker_0, # of connection points: 2
#     Edge 46, Type (0, 0), BuildingBlock: OJICUG_clean_linker_0, # of connection points: 2
#     Edge 47, Type (0, 0), BuildingBlock: OJICUG_clean_linker_0, # of connection points: 2
#     Edge 48, Type (0, 0), BuildingBlock: OJICUG_clean_linker_0, # of connection points: 2
#     Edge 49, Type (0, 0), BuildingBlock: OJICUG_clean_linker_0, # of connection points: 2
#     Edge 50, Type (0, 0), BuildingBlock: OJICUG_clean_linker_0, # of connection points: 2
#     Edge 51, Type (0, 0), BuildingBlock: OJICUG_clean_linker_0, # of connection points: 2
#     Edge 52, Type (0, 0), BuildingBlock: OJICUG_clean_linker_0, # of connection points: 2
#     Edge 53, Type (0, 0), BuildingBlock: OJICUG_clean_linker_0, # of connection points: 2
#     Edge 54, Type (0, 0), BuildingBlock: OJICUG_clean_linker_0, # of connection points: 2
#     Edge 55, Type (0, 0), BuildingBlock: OJICUG_clean_linker_0, # of connection points: 2
# Relax obj value: 0.474
# Max RMSD: 0.191
# Mean RMSD: 0.191
data_MOF--net-yfc--node1-BEQFEK_clean_sbu_0--edge1-OJICUG_clean_linker_0
_symmetry_space_group_name_H-M    P1
_symmetry_Int_Tables_number       1
_symmetry_cell_setting            triclinic
loop_
_symmetry_equiv_pos_as_xyz
'x, y, z'
_cell_length_a     36.03286
_cell_length_b     36.015483
_cell_length_c     34.747498
_cell_angle_alpha  89.862188
_cell_angle_beta   90.031314
_cell_angle_gamma 89.969131
loop_
_atom_site_label
_atom_site_type_symbol
_atom_site_fract_x
_atom_site_fract_y
_atom_site_fract_z
_atom_type_partial_charge
Co0 Co 0.74076 0.12388 0.15875 0.0
Co1 Co 0.71905 0.05208 0.20426 0.0
C2 C 0.67236 0.12194 0.20763 0.0
O3 O 0.69384 0.13831 0.18407 0.0
O4 O 0.67862 0.08854 0.21822 0.0
C5 C 0.73179 0.18437 0.10608 0.0
O6 O 0.69663 0.17472 0.10648 0.0
C7 C 0.67099 0.98891 0.22588 0.0
C8 C 0.71174 0.94796 0.24722 0.0
C9 C 0.67408 0.95313 0.24083 0.0
N10 N 0.70514 1.00403 0.22378 0.0
N11 N 0.72932 0.9794 0.23674 0.0
C12 C 0.63678 1.00755 0.21095 0.0
H13 H 0.64409 0.02756 0.18783 0.0
H14 H 0.61674 0.98681 0.19976 0.0
H15 H 0.62343 0.02312 0.23473 0.0
C16 C 0.74608 0.07206 0.0948 0.0
N17 N 0.73697 0.07956 0.1314 0.0
N18 N 0.72748 0.04876 0.14928 0.0
C19 C 0.72953 0.02044 0.12369 0.0
C20 C 0.74159 0.03444 0.08842 0.0
C21 C 0.76092 0.10036 0.06715 0.0
H22 H 0.78303 0.11681 0.08129 0.0
H23 H 0.73821 0.11946 0.05861 0.0
H24 H 0.77261 0.08749 0.04094 0.0
O25 O 0.78042 0.11921 0.19713 0.0
O26 O 0.76593 0.06921 0.23172 0.0
H27 H 0.72515 0.96267 0.1076 0.0
H28 H 0.6936 0.97796 0.14497 0.0
C29 C 0.72212 0.98067 0.1333 0.0
H30 H 0.74178 0.97142 0.15594 0.0
H31 H 0.7579 0.98388 0.23796 0.0
O32 O 0.75509 0.16537 0.12519 0.0
C33 C 0.78728 0.09673 0.22449 0.0
Co34 Co 0.39048 0.75952 0.67822 0.0
Co35 Co 0.46408 0.72405 0.70743 0.0
C36 C 0.39285 0.68188 0.71166 0.0
O37 O 0.37621 0.70889 0.6955 0.0
O38 O 0.42752 0.68343 0.71876 0.0
C39 C 0.33509 0.75883 0.62171 0.0
O40 O 0.35074 0.72686 0.61347 0.0
C41 C 0.52535 0.67481 0.73503 0.0
C42 C 0.57462 0.70697 0.71735 0.0
C43 C 0.56406 0.67392 0.73473 0.0
N44 N 0.51385 0.70653 0.71799 0.0
N45 N 0.54357 0.72567 0.70784 0.0
C46 C 0.49968 0.64768 0.7539 0.0
H47 H 0.47635 0.66271 0.76766 0.0
H48 H 0.48809 0.62881 0.73175 0.0
H49 H 0.51422 0.63102 0.77617 0.0
C50 C 0.43597 0.77969 0.61421 0.0
N51 N 0.43203 0.76123 0.64726 0.0
N52 N 0.46087 0.74023 0.65393 0.0
C53 C 0.48224 0.74064 0.62176 0.0
C54 C 0.46698 0.76591 0.59466 0.0
C55 C 0.41472 0.81495 0.60705 0.0
H56 H 0.40653 0.82762 0.63489 0.0
H57 H 0.38877 0.8089 0.59111 0.0
H58 H 0.4317 0.83531 0.59073 0.0
O59 O 0.39915 0.7908 0.72137 0.0
O60 O 0.45243 0.76804 0.74418 0.0
H61 H 0.54072 0.73199 0.61596 0.0
H62 H 0.51217 0.69998 0.58914 0.0
C63 C 0.5148 0.71539 0.61661 0.0
H64 H 0.5164 0.69494 0.64045 0.0
H65 H 0.54264 0.75145 0.69409 0.0
O66 O 0.34815 0.77838 0.6489 0.0
C67 C 0.42563 0.79157 0.74535 0.0
Co68 Co 0.77179 0.39281 0.15833 0.0
Co69 Co 0.79581 0.46467 0.20275 0.0
C70 C 0.84133 0.39381 0.20534 0.0
O71 O 0.8192 0.37753 0.18242 0.0
O72 O 0.83563 0.42732 0.2156 0.0
C73 C 0.77848 0.33241 0.10563 0.0
O74 O 0.81368 0.34192 0.10476 0.0
C75 C 0.84405 0.52491 0.23385 0.0
C76 C 0.80493 0.57208 0.23501 0.0
C77 C 0.84167 0.56276 0.242 0.0
N78 N 0.81054 0.51294 0.22172 0.0
N79 N 0.78727 0.54127 0.22301 0.0
C80 C 0.8764 0.49966 0.24079 0.0
H81 H 0.86686 0.4745 0.25626 0.0
H82 H 0.88829 0.49096 0.21277 0.0
H83 H 0.89813 0.51294 0.25862 0.0
C84 C 0.76578 0.44445 0.09398 0.0
N85 N 0.77533 0.43713 0.13057 0.0
N86 N 0.78641 0.46779 0.14762 0.0
C87 C 0.78547 0.49564 0.1212 0.0
C88 C 0.77188 0.48167 0.08658 0.0
C89 C 0.74983 0.41625 0.06701 0.0
H90 H 0.72783 0.40019 0.08185 0.0
H91 H 0.77206 0.39683 0.05803 0.0
H92 H 0.73772 0.42917 0.04094 0.0
O93 O 0.73347 0.398 0.19784 0.0
O94 O 0.74933 0.44806 0.23147 0.0
H95 H 0.77329 0.54911 0.14412 0.0
H96 H 0.80181 0.55008 0.1016 0.0
C97 C 0.79632 0.53496 0.12889 0.0
H98 H 0.82137 0.53573 0.14742 0.0
H99 H 0.75935 0.53968 0.21518 0.0
O100 O 0.75593 0.35147 0.1255 0.0
C101 C 0.72759 0.42065 0.22514 0.0
Co102 Co 0.12538 0.77703 0.65998 0.0
Co103 Co 0.05348 0.79984 0.70472 0.0
C104 C 0.12457 0.84421 0.71064 0.0
O105 O 0.14057 0.82255 0.68715 0.0
O106 O 0.09077 0.83902 0.72014 0.0
C107 C 0.18409 0.79069 0.60858 0.0
O108 O 0.17025 0.82444 0.60922 0.0
C109 C 0.9921 0.84696 0.73526 0.0
C110 C 0.94604 0.80661 0.73725 0.0
C111 C 0.95434 0.8437 0.7435 0.0
N112 N 1.00499 0.81357 0.72379 0.0
N113 N 0.97732 0.78957 0.72558 0.0
C114 C 0.01643 0.88014 0.74128 0.0
H115 H 0.04188 0.87163 0.75684 0.0
H116 H 0.02471 0.8917 0.71293 0.0
H117 H 1.00258 0.90184 0.75867 0.0
C118 C 0.07455 0.77305 0.5954 0.0
N119 N 0.08163 0.7824 0.63202 0.0
N120 N 0.05077 0.79267 0.64924 0.0
C121 C 0.02292 0.79126 0.62291 0.0
C122 C 0.03724 0.77853 0.5881 0.0
C123 C 0.10258 0.75591 0.56903 0.0
H124 H 0.11921 0.73503 0.58495 0.0
H125 H 0.12147 0.77784 0.55814 0.0
H126 H 0.08939 0.74201 0.54418 0.0
O127 O 0.1195 0.73632 0.69682 0.0
O128 O 0.06967 0.75191 0.7311 0.0
H129 H 0.97057 0.77593 0.6466 0.0
H130 H 0.96744 0.80449 0.60409 0.0
C131 C 0.98315 0.79978 0.63117 0.0
H132 H 0.98114 0.8247 0.64974 0.0
H133 H 0.97966 0.76159 0.71822 0.0
O134 O 0.16748 0.76494 0.62667 0.0
C135 C 0.09653 0.72976 0.72376 0.0
Co136 Co 0.73972 0.39199 0.86286 0.0
Co137 Co 0.71759 0.4637 0.81725 0.0
C138 C 0.67081 0.39381 0.81478 0.0
O139 O 0.6925 0.37748 0.83822 0.0
O140 O 0.677 0.42716 0.804 0.0
C141 C 0.73213 0.33119 0.91553 0.0
O142 O 0.69676 0.34009 0.91533 0.0
C143 C 0.66943 0.52685 0.79509 0.0
C144 C 0.71011 0.56702 0.77224 0.0
C145 C 0.67247 0.56222 0.77901 0.0
N146 N 0.70356 0.51165 0.79738 0.0
N147 N 0.72769 0.53585 0.78358 0.0
C148 C 0.6353 0.50862 0.81067 0.0
H149 H 0.62162 0.49276 0.78729 0.0
H150 H 0.64278 0.4889 0.83403 0.0
H151 H 0.61549 0.52964 0.82174 0.0
C152 C 0.74551 0.44396 0.92663 0.0
N153 N 0.73626 0.43643 0.89007 0.0
N154 N 0.72677 0.46723 0.87215 0.0
C155 C 0.72908 0.49561 0.89765 0.0
C156 C 0.7413 0.48163 0.93292 0.0
C157 C 0.75978 0.41552 0.9545 0.0
H158 H 0.78248 0.39943 0.94094 0.0
H159 H 0.73701 0.39612 0.962 0.0
H160 H 0.77044 0.42817 0.98129 0.0
O161 O 0.7788 0.39641 0.82386 0.0
O162 O 0.76401 0.44629 0.78922 0.0
H163 H 0.725 0.55345 0.91355 0.0
H164 H 0.69297 0.53808 0.8766 0.0
C165 C 0.72162 0.53535 0.88797 0.0
H166 H 0.741 0.54445 0.86502 0.0
H167 H 0.75625 0.53118 0.78216 0.0
O168 O 0.75489 0.3507 0.89634 0.0
C169 C 0.78534 0.41869 0.79628 0.0
Co170 Co 0.12513 0.73558 0.36482 0.0
Co171 Co 0.05225 0.7151 0.32077 0.0
C172 C 0.12202 0.66864 0.31403 0.0
O173 O 0.13873 0.68958 0.33773 0.0
O174 O 0.08836 0.67496 0.30449 0.0
C175 C 0.18664 0.723 0.41417 0.0
O176 O 0.17499 0.68845 0.41296 0.0
C177 C 0.98914 0.66813 0.29681 0.0
C178 C 0.94615 0.7099 0.28337 0.0
C179 C 0.95257 0.67197 0.28463 0.0
N180 N 1.00363 0.70218 0.30229 0.0
N181 N 0.97778 0.727 0.29398 0.0
C182 C 0.00922 0.63284 0.30598 0.0
H183 H 0.02879 0.63734 0.3302 0.0
H184 H 0.98946 0.61034 0.3135 0.0
H185 H 0.02551 0.62419 0.28042 0.0
C186 C 0.07498 0.74076 0.42995 0.0
N187 N 0.08159 0.7312 0.39331 0.0
N188 N 0.05026 0.72258 0.37606 0.0
C189 C 0.02242 0.72578 0.40213 0.0
C190 C 0.03734 0.73756 0.43706 0.0
C191 C 0.10398 0.75602 0.45644 0.0
H192 H 0.12005 0.77788 0.44135 0.0
H193 H 0.12333 0.73343 0.46477 0.0
H194 H 0.09183 0.76814 0.48278 0.0
O195 O 0.11953 0.77626 0.32767 0.0
O196 O 0.0688 0.7624 0.29404 0.0
H197 H 0.973 0.74306 0.37342 0.0
H198 H 0.96509 0.72133 0.41965 0.0
C199 C 0.98222 0.7206 0.39311 0.0
H200 H 0.97817 0.6937 0.37822 0.0
H201 H 0.98158 0.75565 0.29613 0.0
O202 O 0.1679 0.74807 0.39729 0.0
C203 C 0.09641 0.78363 0.30106 0.0
Co204 Co 0.77396 0.12306 0.86364 0.0
Co205 Co 0.79636 0.05102 0.81924 0.0
C206 C 0.8428 0.12106 0.81552 0.0
O207 O 0.8212 0.13751 0.83885 0.0
O208 O 0.8366 0.08764 0.80515 0.0
C209 C 0.78137 0.18394 0.91597 0.0
O210 O 0.81668 0.17484 0.91634 0.0
C211 C 0.84489 0.989 0.7956 0.0
C212 C 0.80422 0.94523 0.78158 0.0
C213 C 0.84197 0.95239 0.78339 0.0
N214 N 0.81048 1.00282 0.80058 0.0
N215 N 0.78633 0.97652 0.79192 0.0
C216 C 0.87961 0.00966 0.80543 0.0
H217 H 0.88795 0.02689 0.78037 0.0
H218 H 0.87451 0.02841 0.83016 0.0
H219 H 0.90258 0.99026 0.81252 0.0
C220 C 0.76818 0.07162 0.92819 0.0
N221 N 0.77751 0.07891 0.89157 0.0
N222 N 0.78756 0.04807 0.87423 0.0
C223 C 0.78584 0.01999 0.90027 0.0
C224 C 0.77321 0.03413 0.93519 0.0
C225 C 0.75283 0.09999 0.95534 0.0
H226 H 0.73083 0.11628 0.94073 0.0
H227 H 0.77535 0.11921 0.96402 0.0
H228 H 0.74087 0.08719 0.98151 0.0
O229 O 0.73494 0.11808 0.8247 0.0
O230 O 0.74974 0.06773 0.79105 0.0
H231 H 0.77298 0.9694 0.87144 0.0
H232 H 0.79435 0.96311 0.91809 0.0
C233 C 0.79427 0.98029 0.89152 0.0
H234 H 0.82167 0.9783 0.87714 0.0
H235 H 0.7576 0.97974 0.79372 0.0
O236 O 0.75874 0.16459 0.8965 0.0
C237 C 0.72838 0.09538 0.7976 0.0
Co238 Co 0.39608 0.75714 0.35188 0.0
Co239 Co 0.46688 0.79072 0.313 0.0
C240 C 0.39535 0.83249 0.3122 0.0
O241 O 0.3802 0.80646 0.33142 0.0
O242 O 0.42942 0.83062 0.30253 0.0
C243 C 0.3373 0.76137 0.40548 0.0
O244 O 0.34913 0.79571 0.40895 0.0
C245 C 0.52692 0.84002 0.28261 0.0
C246 C 0.57647 0.80603 0.29513 0.0
C247 C 0.5656 0.84022 0.28055 0.0
N248 N 0.51581 0.80755 0.2983 0.0
N249 N 0.54567 0.78734 0.30534 0.0
C250 C 0.50071 0.86887 0.26761 0.0
H251 H 0.47636 0.85527 0.25419 0.0
H252 H 0.49079 0.88619 0.29189 0.0
H253 H 0.51421 0.88688 0.2458 0.0
C254 C 0.4458 0.74903 0.41689 0.0
N255 N 0.43983 0.75889 0.38026 0.0
N256 N 0.46808 0.77821 0.36734 0.0
C257 C 0.49143 0.78437 0.39732 0.0
C258 C 0.47802 0.76584 0.42991 0.0
C259 C 0.4193 0.72634 0.44042 0.0
H260 H 0.4057 0.70513 0.42212 0.0
H261 H 0.39766 0.74464 0.4528 0.0
H262 H 0.43404 0.71241 0.46453 0.0
O263 O 0.40286 0.72294 0.31018 0.0
O264 O 0.45256 0.74532 0.27988 0.0
H265 H 0.54883 0.7953 0.38797 0.0
H266 H 0.52813 0.82348 0.42476 0.0
C267 C 0.5234 0.81077 0.3961 0.0
H268 H 0.5184 0.83278 0.37429 0.0
H269 H 0.54504 0.76097 0.31782 0.0
O270 O 0.35454 0.73924 0.38339 0.0
C271 C 0.42652 0.72124 0.28326 0.0
Co272 Co 0.27314 0.89149 0.87379 0.0
Co273 Co 0.29892 0.96244 0.82878 0.0
C274 C 0.34625 0.8932 0.83214 0.0
O275 O 0.32214 0.87712 0.85305 0.0
O276 O 0.3411 0.92639 0.82023 0.0
C277 C 0.27844 0.83005 0.92584 0.0
O278 O 0.31375 0.83907 0.92729 0.0
C279 C 0.34729 0.02472 0.80359 0.0
C280 C 0.30589 0.06758 0.78851 0.0
C281 C 0.34375 0.06104 0.79032 0.0
N282 N 0.31309 0.01051 0.80916 0.0
N283 N 0.28854 0.03629 0.79985 0.0
C284 C 0.38239 1.00475 0.81364 0.0
H285 H 0.37802 0.98723 0.83956 0.0
H286 H 0.4054 0.02454 0.81902 0.0
H287 H 0.39021 0.98631 0.78942 0.0
C288 C 0.26392 0.94444 0.93617 0.0
N289 N 0.27481 0.93639 0.90026 0.0
N290 N 0.28639 0.96671 0.88281 0.0
C291 C 0.2842 0.9952 0.90816 0.0
C292 C 0.2694 0.98194 0.94259 0.0
C293 C 0.24827 0.91635 0.96358 0.0
H294 H 0.22625 0.90015 0.94898 0.0
H295 H 0.2706 0.8969 0.9724 0.0
H296 H 0.23638 0.9293 0.98964 0.0
O297 O 0.23644 0.89539 0.83249 0.0
O298 O 0.25411 0.94436 0.79799 0.0
H299 H 0.29559 0.0515 0.92587 0.0
H300 H 0.32281 0.03473 0.88555 0.0
C301 C 0.29508 0.03433 0.89939 0.0
H302 H 0.27481 0.04643 0.87886 0.0
H303 H 0.25986 0.0327 0.80181 0.0
O304 O 0.25627 0.85024 0.90658 0.0
C305 C 0.23188 0.9173 0.80418 0.0
Co306 Co 0.62294 0.27379 0.36345 0.0
Co307 Co 0.55102 0.29719 0.31851 0.0
C308 C 0.62178 0.34291 0.31574 0.0
O309 O 0.6381 0.32097 0.33892 0.0
O310 O 0.5883 0.33706 0.30541 0.0
C311 C 0.68367 0.28111 0.41569 0.0
O312 O 0.67427 0.31637 0.41586 0.0
C313 C 0.49039 0.3452 0.28712 0.0
C314 C 0.44372 0.30558 0.28539 0.0
C315 C 0.45262 0.34248 0.27863 0.0
N316 N 0.50269 0.31172 0.29922 0.0
N317 N 0.47464 0.28816 0.29758 0.0
C318 C 0.5153 0.37786 0.28054 0.0
H319 H 0.54075 0.36864 0.26548 0.0
H320 H 0.5235 0.38985 0.30867 0.0
H321 H 0.50196 0.39944 0.26245 0.0
C322 C 0.57146 0.26805 0.42764 0.0
N323 N 0.57869 0.27757 0.39104 0.0
N324 N 0.5479 0.28804 0.37372 0.0
C325 C 0.51996 0.28654 0.39991 0.0
C326 C 0.53408 0.27334 0.4347 0.0
C327 C 0.59987 0.2527 0.45488 0.0
H328 H 0.61561 0.23016 0.4406 0.0
H329 H 0.61954 0.27505 0.46285 0.0
H330 H 0.58725 0.2415 0.4815 0.0
O331 O 0.61775 0.235 0.32447 0.0
O332 O 0.56772 0.25042 0.29042 0.0
H333 H 0.46714 0.27282 0.37629 0.0
H334 H 0.4649 0.30109 0.4189 0.0
C335 C 0.48041 0.2962 0.39178 0.0
H336 H 0.479 0.32132 0.37333 0.0
H337 H 0.47651 0.2602 0.30528 0.0
O338 O 0.66432 0.25825 0.39651 0.0
C339 C 0.59513 0.22874 0.29719 0.0
Co340 Co 0.24063 0.62281 0.86046 0.0
Co341 Co 0.2192 0.5514 0.81395 0.0
C342 C 0.17197 0.62088 0.81201 0.0
O343 O 0.19331 0.63702 0.83583 0.0
O344 O 0.1786 0.58783 0.80075 0.0
C345 C 0.23139 0.68219 0.91432 0.0
O346 O 0.19625 0.67252 0.9135 0.0
C347 C 0.17107 0.48914 0.79025 0.0
C348 C 0.21194 0.44623 0.77412 0.0
C349 C 0.17416 0.45275 0.77738 0.0
N350 N 0.2054 0.50344 0.79425 0.0
N351 N 0.22966 0.47766 0.7843 0.0
C352 C 0.13638 0.50902 0.8018 0.0
H353 H 0.14213 0.52769 0.82646 0.0
H354 H 0.11414 0.48911 0.8097 0.0
H355 H 0.12663 0.52626 0.77729 0.0
C356 C 0.24662 0.56977 0.92353 0.0
N357 N 0.23759 0.57786 0.887 0.0
N358 N 0.22791 0.54737 0.86879 0.0
C359 C 0.2296 0.5187 0.89412 0.0
C360 C 0.24183 0.5321 0.92948 0.0
C361 C 0.26102 0.59767 0.95174 0.0
H362 H 0.28308 0.61458 0.93804 0.0
H363 H 0.23807 0.6164 0.96037 0.0
H364 H 0.27261 0.58442 0.97787 0.0
O365 O 0.27966 0.61933 0.82134 0.0
O366 O 0.26563 0.56952 0.78638 0.0
H367 H 0.24204 0.46902 0.86341 0.0
H368 H 0.22197 0.46127 0.91043 0.0
C369 C 0.22124 0.4792 0.8844 0.0
H370 H 0.19347 0.47744 0.87075 0.0
H371 H 0.25838 0.48127 0.78525 0.0
O372 O 0.25479 0.66381 0.89477 0.0
C373 C 0.28652 0.59735 0.79368 0.0
Co374 Co 0.89236 0.24232 0.36179 0.0
Co375 Co 0.96465 0.22019 0.3175 0.0
C376 C 0.89472 0.17355 0.31379 0.0
O377 O 0.87821 0.19505 0.33714 0.0
O378 O 0.92812 0.17985 0.30339 0.0
C379 C 0.8316 0.2341 0.41391 0.0
O380 O 0.84119 0.1989 0.414 0.0
C381 C 0.02701 0.17139 0.29522 0.0
C382 C 0.07089 0.21189 0.28094 0.0
C383 C 0.0638 0.17415 0.28353 0.0
N384 N 0.01303 0.20588 0.29919 0.0
N385 N 0.03939 0.22992 0.29034 0.0
C386 C 1.00633 0.1368 0.30561 0.0
H387 H 0.98947 0.1279 0.28055 0.0
H388 H 0.98724 0.14236 0.32998 0.0
H389 H 0.02569 0.11402 0.31347 0.0
C390 C 0.94342 0.24821 0.42648 0.0
N391 N 0.93636 0.23895 0.38981 0.0
N392 N 0.96734 0.22925 0.37249 0.0
C393 C 0.99532 0.2313 0.39857 0.0
C394 C 0.98094 0.24371 0.43348 0.0
C395 C 0.91471 0.26259 0.45383 0.0
H396 H 0.8986 0.28509 0.43981 0.0
H397 H 0.89541 0.23976 0.46143 0.0
H398 H 0.92709 0.27354 0.48064 0.0
O399 O 0.89727 0.28125 0.32259 0.0
O400 O 0.94778 0.26668 0.28899 0.0
H401 H 0.0523 0.22389 0.41641 0.0
H402 H 0.03752 0.19576 0.37598 0.0
C403 C 0.03513 0.22335 0.38988 0.0
H404 H 0.04569 0.24451 0.36941 0.0
H405 H 0.03612 0.25869 0.2915 0.0
O406 O 0.85066 0.25719 0.39462 0.0
C407 C 0.91995 0.28785 0.29541 0.0
Co408 Co 0.27201 0.62188 0.15238 0.0
Co409 Co 0.29658 0.55051 0.19742 0.0
C410 C 0.34386 0.61984 0.19621 0.0
O411 O 0.3205 0.63618 0.17458 0.0
O412 O 0.33826 0.58659 0.20764 0.0
C413 C 0.27855 0.68331 0.10052 0.0
O414 O 0.31378 0.67394 0.09966 0.0
C415 C 0.34511 0.4884 0.22221 0.0
C416 C 0.30411 0.44522 0.23723 0.0
C417 C 0.34191 0.45202 0.23529 0.0
N418 N 0.3108 0.50243 0.21686 0.0
N419 N 0.28646 0.47646 0.22613 0.0
C420 C 0.38002 0.50862 0.21203 0.0
H421 H 0.37532 0.52634 0.18632 0.0
H422 H 0.40308 0.48897 0.20627 0.0
H423 H 0.38798 0.52686 0.23636 0.0
C424 C 0.26417 0.56935 0.08932 0.0
N425 N 0.27437 0.57718 0.12552 0.0
N426 N 0.28545 0.5467 0.14305 0.0
C427 C 0.28363 0.51834 0.11753 0.0
C428 C 0.26965 0.53186 0.08283 0.0
C429 C 0.24871 0.59751 0.06186 0.0
H430 H 0.22674 0.61387 0.07637 0.0
H431 H 0.27115 0.6168 0.05304 0.0
H432 H 0.23676 0.58457 0.03581 0.0
O433 O 0.23433 0.61759 0.19272 0.0
O434 O 0.25101 0.56816 0.2271 0.0
H435 H 0.29424 0.46182 0.09998 0.0
H436 H 0.32154 0.47824 0.14041 0.0
C437 C 0.29387 0.47905 0.12643 0.0
H438 H 0.27336 0.46732 0.1469 0.0
H439 H 0.25776 0.47988 0.22429 0.0
O440 O 0.25593 0.66337 0.11946 0.0
C441 C 0.229 0.59536 0.22062 0.0
Co442 Co 0.89174 0.27242 0.65888 0.0
Co443 Co 0.96355 0.29633 0.70362 0.0
C444 C 0.89243 0.34134 0.70673 0.0
O445 O 0.87631 0.31935 0.68357 0.0
O446 O 0.92599 0.33581 0.717 0.0
C447 C 0.8311 0.28003 0.60667 0.0
O448 O 0.84067 0.31524 0.60648 0.0
C449 C 0.02443 0.34472 0.73351 0.0
C450 C 0.07117 0.30512 0.73524 0.0
C451 C 0.06238 0.34214 0.74126 0.0
N452 N 0.01194 0.31103 0.72248 0.0
N453 N 0.04003 0.28749 0.72415 0.0
C454 C 0.99966 0.37758 0.73954 0.0
H455 H 0.97405 0.36868 0.75454 0.0
H456 H 0.99174 0.38946 0.71121 0.0
H457 H 0.01308 0.39916 0.75745 0.0
C458 C 0.94312 0.26772 0.59448 0.0
N459 N 0.93586 0.27674 0.63117 0.0
N460 N 0.96652 0.2876 0.6484 0.0
C461 C 0.99435 0.28692 0.62206 0.0
C462 C 0.98034 0.27383 0.58727 0.0
C463 C 0.9149 0.25219 0.56724 0.0
H464 H 0.89916 0.22966 0.58162 0.0
H465 H 0.89519 0.27447 0.55894 0.0
H466 H 0.92772 0.24092 0.5408 0.0
O467 O 0.89734 0.23351 0.69787 0.0
O468 O 0.94728 0.24933 0.7318 0.0
H469 H 0.04753 0.27431 0.64561 0.0
H470 H 0.04906 0.3026 0.60283 0.0
C471 C 0.03372 0.2974 0.63002 0.0
H472 H 0.03463 0.32255 0.64833 0.0
H473 H 0.03808 0.25943 0.71701 0.0
O474 O 0.85033 0.25698 0.62588 0.0
C475 C 0.92007 0.22743 0.72516 0.0
Co476 Co 0.24099 0.89075 0.16466 0.0
Co477 Co 0.21895 0.96213 0.21157 0.0
C478 C 0.17238 0.89202 0.21269 0.0
O479 O 0.1937 0.87597 0.18882 0.0
O480 O 0.17897 0.92503 0.22401 0.0
C481 C 0.23235 0.83157 0.11058 0.0
O482 O 0.19721 0.84131 0.11111 0.0
C483 C 0.17095 0.02328 0.24136 0.0
C484 C 0.21131 0.06916 0.24565 0.0
C485 C 0.17392 0.06102 0.24996 0.0
N486 N 0.2048 0.01031 0.23146 0.0
N487 N 0.22877 0.03787 0.23467 0.0
C488 C 0.13738 0.9991 0.24533 0.0
H489 H 0.14504 0.97303 0.26029 0.0
H490 H 0.12671 0.99196 0.21631 0.0
H491 H 0.11525 0.01263 0.26242 0.0
C492 C 0.24686 0.94403 0.1019 0.0
N493 N 0.23782 0.93589 0.13841 0.0
N494 N 0.22765 0.96629 0.15655 0.0
C495 C 0.22877 0.99486 0.13102 0.0
C496 C 0.24145 0.98158 0.09581 0.0
C497 C 0.26157 0.91625 0.07374 0.0
H498 H 0.28379 0.89954 0.08749 0.0
H499 H 0.23881 0.89733 0.06505 0.0
H500 H 0.27303 0.92958 0.0476 0.0
O501 O 0.27969 0.89426 0.20403 0.0
O502 O 0.26562 0.94404 0.23908 0.0
H503 H 0.24195 0.0469 0.1567 0.0
H504 H 0.2147 0.0506 0.11337 0.0
C505 C 0.21897 0.03418 0.1401 0.0
H506 H 0.19344 0.03502 0.15787 0.0
H507 H 0.25702 0.03552 0.2285 0.0
O508 O 0.25563 0.84995 0.13029 0.0
C509 C 0.28652 0.91617 0.23175 0.0
Co510 Co 0.62229 0.24146 0.65964 0.0
Co511 Co 0.5504 0.2177 0.70447 0.0
C512 C 0.62147 0.1725 0.70755 0.0
O513 O 0.63767 0.19446 0.68435 0.0
O514 O 0.58797 0.17818 0.71781 0.0
C515 C 0.68285 0.23383 0.60741 0.0
O516 O 0.67325 0.19863 0.60738 0.0
C517 C 0.4905 0.16922 0.73643 0.0
C518 C 0.44315 0.20809 0.7375 0.0
C519 C 0.4527 0.17145 0.74489 0.0
N520 N 0.50222 0.20271 0.72377 0.0
N521 N 0.47376 0.22582 0.725 0.0
C522 C 0.51599 0.1371 0.74367 0.0
H523 H 0.54109 0.14698 0.75892 0.0
H524 H 0.52473 0.125 0.71576 0.0
H525 H 0.50292 0.11544 0.76183 0.0
C526 C 0.57088 0.2467 0.59532 0.0
N527 N 0.5781 0.23733 0.63197 0.0
N528 N 0.54734 0.22666 0.6492 0.0
C529 C 0.51948 0.22785 0.62287 0.0
C530 C 0.53359 0.24107 0.58811 0.0
C531 C 0.59921 0.26226 0.56817 0.0
H532 H 0.61492 0.28474 0.58258 0.0
H533 H 0.61892 0.23998 0.56001 0.0
H534 H 0.58652 0.27362 0.54164 0.0
O535 O 0.61674 0.28033 0.6985 0.0
O536 O 0.56673 0.26469 0.73242 0.0
H537 H 0.46639 0.24121 0.64603 0.0
H538 H 0.46469 0.21257 0.60366 0.0
C539 C 0.48 0.21784 0.63084 0.0
H540 H 0.47879 0.19286 0.64951 0.0
H541 H 0.47514 0.2537 0.71688 0.0
O542 O 0.6637 0.25688 0.62658 0.0
C543 C 0.594 0.28652 0.72568 0.0
C544 C 0.61006 0.93508 0.26371 0.0
C545 C 0.64475 0.92502 0.24842 0.0
H546 H 0.55827 0.91647 0.28702 0.0
C547 C 0.65248 0.8872 0.24275 0.0
H548 H 0.60371 0.96386 0.26972 0.0
C549 C 0.62624 0.86005 0.25212 0.0
C550 C 0.5916 0.86992 0.26765 0.0
H551 H 0.67903 0.87852 0.23123 0.0
H552 H 0.6333 0.83115 0.24757 0.0
C553 C 0.58386 0.90781 0.27346 0.0
C554 C 0.6515 0.6282 0.77308 0.0
C555 C 0.64319 0.59018 0.77029 0.0
H556 H 0.6329 0.68412 0.76479 0.0
C557 C 0.60797 0.57971 0.75663 0.0
H558 H 0.67843 0.63724 0.78326 0.0
C559 C 0.58181 0.6067 0.74581 0.0
C560 C 0.59019 0.64476 0.7487 0.0
H561 H 0.60108 0.55074 0.7527 0.0
H562 H 0.55566 0.59762 0.73375 0.0
C563 C 0.62537 0.65509 0.76248 0.0
C564 C 0.88805 0.64663 0.2872 0.0
C565 C 0.92504 0.64279 0.27518 0.0
H566 H 0.83315 0.62387 0.28698 0.0
C567 C 0.93477 0.61216 0.25236 0.0
H568 H 0.87971 0.67016 0.30453 0.0
C569 C 0.90794 0.58597 0.24164 0.0
C570 C 0.87101 0.58932 0.25437 0.0
H571 H 0.96281 0.60917 0.24159 0.0
H572 H 0.916 0.56389 0.22231 0.0
C573 C 0.86141 0.62012 0.27711 0.0
C574 C 0.92934 0.90936 0.74168 0.0
C575 C 0.92693 0.87253 0.75514 0.0
H576 H 0.90467 0.96363 0.74051 0.0
C577 C 0.89625 0.86247 0.7779 0.0
H578 H 0.95129 0.9177 0.72229 0.0
C579 C 0.86894 0.88854 0.78729 0.0
C580 C 0.87187 0.92545 0.77458 0.0
H581 H 0.8932 0.83426 0.78832 0.0
H582 H 0.84552 0.87986 0.80466 0.0
C583 C 0.90237 0.93565 0.75175 0.0
C584 C 0.36926 0.12554 0.79169 0.0
C585 C 0.37307 0.08834 0.78039 0.0
H586 H 0.39188 0.18049 0.79022 0.0
C587 C 0.40365 0.07825 0.75763 0.0
H588 H 0.34577 0.13416 0.80896 0.0
C589 C 0.42975 0.10497 0.74618 0.0
C590 C 0.42637 0.14216 0.75812 0.0
H591 H 0.40662 0.05001 0.74744 0.0
H592 H 0.45175 0.09662 0.72688 0.0
C593 C 0.39567 0.15206 0.7809 0.0
C594 C 0.39504 0.36153 0.24329 0.0
C595 C 0.42574 0.37155 0.26602 0.0
H596 H 0.3447 0.37913 0.21577 0.0
C597 C 0.42865 0.40861 0.27851 0.0
H598 H 0.39161 0.33318 0.23358 0.0
C599 C 0.4021 0.43511 0.26758 0.0
C600 C 0.37154 0.42491 0.24483 0.0
H601 H 0.45063 0.41701 0.29782 0.0
H602 H 0.40474 0.46326 0.27813 0.0
C603 C 0.36816 0.38782 0.23304 0.0
C604 C 0.12122 0.36195 0.7737 0.0
C605 C 0.08959 0.37151 0.75208 0.0
H606 H 0.17257 0.38013 0.7986 0.0
C607 C 0.08606 0.40834 0.73884 0.0
H608 H 0.12515 0.33379 0.78394 0.0
C609 C 0.11291 0.43507 0.748 0.0
C610 C 0.1444 0.42533 0.76961 0.0
H611 H 0.06334 0.41638 0.72027 0.0
H612 H 0.10971 0.46304 0.73697 0.0
C613 C 0.1484 0.38846 0.78213 0.0
C614 C 0.08171 0.11325 0.25362 0.0
C615 C 0.09106 0.14411 0.27627 0.0
H616 H 0.10073 0.06394 0.22567 0.0
C617 C 0.12743 0.14719 0.29038 0.0
H618 H 0.05418 0.11079 0.24138 0.0
C619 C 0.15381 0.11968 0.28255 0.0
C620 C 0.14463 0.08864 0.25995 0.0
H621 H 0.13546 0.17087 0.30765 0.0
H622 H 0.18156 0.12287 0.29406 0.0
C623 C 0.10836 0.08611 0.24505 0.0
C624 C 0.63377 0.13671 0.26559 0.0
C625 C 0.64346 0.14449 0.22725 0.0
H626 H 0.61058 0.15781 0.318 0.0
C627 C 0.63022 0.17756 0.21029 0.0
H628 H 0.64363 0.11168 0.27959 0.0
C629 C 0.61036 0.20359 0.23212 0.0
C630 C 0.60411 0.19734 0.27146 0.0
H631 H 0.63717 0.18434 0.18078 0.0
H632 H 0.60294 0.22995 0.21914 0.0
C633 C 0.61479 0.16313 0.2876 0.0
C634 C 0.30952 0.62061 0.73058 0.0
C635 C 0.31734 0.60783 0.76788 0.0
H636 H 0.3276 0.65445 0.68327 0.0
C637 C 0.35275 0.61423 0.78348 0.0
H638 H 0.28216 0.6167 0.71828 0.0
C639 C 0.37906 0.63518 0.76321 0.0
C640 C 0.36992 0.65121 0.72752 0.0
H641 H 0.35915 0.60519 0.8125 0.0
H642 H 0.4052 0.64162 0.77707 0.0
C643 C 0.33544 0.64246 0.71072 0.0
C644 C 0.90335 0.3121 0.23024 0.0
C645 C 0.91051 0.31892 0.2693 0.0
H646 H 0.8755 0.33069 0.17908 0.0
C647 C 0.90018 0.35333 0.285 0.0
H648 H 0.91045 0.28554 0.21765 0.0
C649 C 0.88081 0.37947 0.26285 0.0
C650 C 0.87034 0.37121 0.22485 0.0
H651 H 0.90501 0.35904 0.3152 0.0
H652 H 0.87129 0.40469 0.2766 0.0
C653 C 0.88309 0.33786 0.2083 0.0
C654 C 0.16618 0.89895 0.79254 0.0
C655 C 0.20109 0.90863 0.77745 0.0
H656 H 0.11393 0.87217 0.78281 0.0
C657 C 0.20803 0.90253 0.73825 0.0
H658 H 0.16027 0.90314 0.8228 0.0
C659 C 0.18178 0.88393 0.71549 0.0
C660 C 0.14783 0.87182 0.73134 0.0
H661 H 0.23487 0.90925 0.72605 0.0
H662 H 0.18896 0.87711 0.68606 0.0
C663 C 0.13961 0.88123 0.76961 0.0
C664 C 0.60912 0.3119 0.79068 0.0
C665 C 0.6027 0.31804 0.75135 0.0
H666 H 0.63599 0.33136 0.84192 0.0
C667 C 0.61307 0.3523 0.73513 0.0
H668 H 0.60193 0.28551 0.80372 0.0
C669 C 0.63194 0.37886 0.75705 0.0
C670 C 0.64184 0.37118 0.79537 0.0
H671 H 0.60873 0.35754 0.70473 0.0
H672 H 0.6416 0.40392 0.74297 0.0
C673 C 0.62886 0.33808 0.81242 0.0
C674 C 0.20391 0.6083 0.28643 0.0
C675 C 0.19779 0.604 0.24682 0.0
H676 H 0.18438 0.63237 0.3391 0.0
C677 C 0.16354 0.61531 0.23124 0.0
H678 H 0.23022 0.60026 0.29907 0.0
C679 C 0.13695 0.63297 0.2542 0.0
C680 C 0.14456 0.64069 0.29301 0.0
H681 H 0.15824 0.61246 0.20069 0.0
H682 H 0.1119 0.6434 0.24073 0.0
C683 C 0.1777 0.62685 0.30925 0.0
C684 C 0.90476 0.20261 0.79043 0.0
C685 C 0.91125 0.19612 0.7512 0.0
H686 H 0.87771 0.18368 0.84185 0.0
C687 C 0.90076 0.16177 0.73542 0.0
H688 H 0.91203 0.22908 0.80313 0.0
C689 C 0.88173 0.13548 0.75765 0.0
C690 C 0.87178 0.14352 0.79583 0.0
H691 H 0.90514 0.15627 0.70511 0.0
H692 H 0.87203 0.11033 0.74389 0.0
C693 C 0.88486 0.1767 0.81246 0.0
C694 C 0.35298 0.90003 0.24124 0.0
C695 C 0.31765 0.90576 0.25724 0.0
H696 H 0.40589 0.87335 0.24672 0.0
C697 C 0.31032 0.89222 0.29436 0.0
H698 H 0.35901 0.90962 0.21233 0.0
C699 C 0.33677 0.87047 0.31367 0.0
C700 C 0.37125 0.86245 0.29646 0.0
H701 H 0.28302 0.89558 0.30694 0.0
H702 H 0.32939 0.85811 0.34108 0.0
C703 C 0.37976 0.87909 0.26091 0.0
C704 C 0.41974 0.85718 0.76427 0.0
C705 C 0.42197 0.81976 0.77574 0.0
H706 H 0.39433 0.91022 0.77341 0.0
C707 C 0.40587 0.8092 0.81081 0.0
H708 H 0.43127 0.86581 0.73687 0.0
C709 C 0.38397 0.83443 0.83145 0.0
C710 C 0.37784 0.87069 0.81732 0.0
H711 H 0.40641 0.78039 0.81985 0.0
H712 H 0.36926 0.82447 0.85661 0.0
C713 C 0.39807 0.88251 0.78497 0.0
C714 C 0.66203 0.40162 0.23589 0.0
C715 C 0.69661 0.41165 0.25144 0.0
H716 H 0.61057 0.37307 0.24449 0.0
C717 C 0.70358 0.4045 0.2905 0.0
H718 H 0.65618 0.40648 0.20569 0.0
C719 C 0.67781 0.38445 0.31256 0.0
C720 C 0.64433 0.37188 0.29612 0.0
H721 H 0.73025 0.41139 0.30299 0.0
H722 H 0.6851 0.37682 0.34178 0.0
C723 C 0.63591 0.38243 0.25814 0.0
C724 C 0.11005 0.70274 0.78847 0.0
C725 C 0.10471 0.6976 0.74885 0.0
H726 H 0.13586 0.68212 0.8399 0.0
C727 C 0.11555 0.66378 0.73212 0.0
H728 H 0.10241 0.72875 0.80191 0.0
C729 C 0.13404 0.63677 0.75392 0.0
C730 C 0.14304 0.64358 0.79261 0.0
H731 H 0.11195 0.65931 0.70152 0.0
H732 H 0.1442 0.61213 0.73953 0.0
C733 C 0.12943 0.67611 0.8101 0.0
C734 C 0.83965 0.13084 0.31121 0.0
C735 C 0.87224 0.14475 0.294 0.0
H736 H 0.78745 0.10317 0.30268 0.0
C737 C 0.87936 0.13606 0.25531 0.0
H738 H 0.83337 0.13708 0.34099 0.0
C739 C 0.85272 0.11737 0.23331 0.0
C740 C 0.81897 0.10595 0.24981 0.0
H741 H 0.90401 0.14652 0.24111 0.0
H742 H 0.85751 0.11388 0.20274 0.0
C743 C 0.81343 0.11122 0.28939 0.0
C744 C 0.41505 0.65543 0.26695 0.0
C745 C 0.41969 0.69224 0.25423 0.0
H746 H 0.38801 0.60319 0.25816 0.0
C747 C 0.40533 0.70247 0.21822 0.0
H748 H 0.42532 0.64708 0.29499 0.0
C749 C 0.38313 0.6776 0.19744 0.0
C750 C 0.37513 0.64197 0.21224 0.0
H751 H 0.40779 0.73087 0.20817 0.0
H752 H 0.36993 0.68732 0.17127 0.0
C753 C 0.3933 0.6304 0.246 0.0
C754 C 0.81036 0.40278 0.7313 0.0
C755 C 0.81663 0.4092 0.77059 0.0
H756 H 0.82967 0.37591 0.68 0.0
C757 C 0.85082 0.39857 0.78672 0.0
H758 H 0.78401 0.41017 0.71834 0.0
C759 C 0.87728 0.37966 0.7647 0.0
C760 C 0.86956 0.36995 0.72638 0.0
H761 H 0.85614 0.40291 0.81708 0.0
H762 H 0.90235 0.36992 0.77868 0.0
C763 C 0.83642 0.38295 0.70948 0.0
C764 C 0.11625 0.8493 0.29277 0.0
C765 C 0.10506 0.81564 0.27602 0.0
H766 H 0.14518 0.90072 0.28533 0.0
C767 C 0.11027 0.81045 0.23638 0.0
H768 H 0.11277 0.85377 0.32338 0.0
C769 C 0.12975 0.83692 0.21472 0.0
C770 C 0.14358 0.86935 0.23219 0.0
H771 H 0.10236 0.78452 0.22294 0.0
H772 H 0.13603 0.83091 0.18488 0.0
C773 C 0.13481 0.87618 0.27094 0.0
C774 C 0.70338 0.11091 0.73247 0.0
C775 C 0.69706 0.10449 0.77177 0.0
H776 H 0.68415 0.13782 0.68102 0.0
C777 C 0.66283 0.11503 0.78776 0.0
H778 H 0.72978 0.10359 0.71963 0.0
C779 C 0.63641 0.13396 0.7656 0.0
C780 C 0.64421 0.14376 0.72728 0.0
H781 H 0.65749 0.11071 0.81813 0.0
H782 H 0.61135 0.14372 0.77951 0.0
C783 C 0.67735 0.13074 0.7105 0.0
C784 C 0.79266 0.26685 0.0885 0.0
C785 C 0.76657 0.29555 0.09219 0.0
H786 H 0.80173 0.20818 0.08957 0.0
C787 C 0.72854 0.28704 0.09035 0.0
H788 H 0.82216 0.27262 0.08928 0.0
C789 C 0.71683 0.25012 0.09022 0.0
C790 C 0.74306 0.22138 0.09235 0.0
H791 H 0.70783 0.30877 0.09234 0.0
H792 H 0.68741 0.24434 0.09237 0.0
C793 C 0.78096 0.22994 0.08879 0.0
C794 C 0.28634 0.80553 0.60712 0.0
C795 C 0.29871 0.7686 0.6056 0.0
H796 H 0.23948 0.84185 0.60771 0.0
C797 C 0.2738 0.74046 0.5951 0.0
H798 H 0.30528 0.82776 0.61455 0.0
C799 C 0.23606 0.74843 0.59166 0.0
C800 C 0.22308 0.78468 0.59802 0.0
H801 H 0.28276 0.7118 0.5934 0.0
H802 H 0.21675 0.72575 0.58736 0.0
C803 C 0.24872 0.8136 0.60294 0.0
C804 C 0.73103 0.22859 0.93211 0.0
C805 C 0.76915 0.22068 0.92947 0.0
H806 H 0.68911 0.27058 0.93067 0.0
C807 C 0.79481 0.24982 0.93237 0.0
H808 H 0.71066 0.2065 0.93075 0.0
C809 C 0.78246 0.28654 0.93208 0.0
C810 C 0.74434 0.29445 0.92927 0.0
H811 H 0.82438 0.24453 0.93097 0.0
H812 H 0.80283 0.30862 0.93069 0.0
C813 C 0.71867 0.2653 0.93221 0.0
C814 C 0.27376 0.77805 0.42763 0.0
C815 C 0.30046 0.75065 0.41999 0.0
H816 H 0.21588 0.79046 0.43228 0.0
C817 C 0.28977 0.71314 0.41991 0.0
H818 H 0.28128 0.80716 0.42831 0.0
C819 C 0.25237 0.70354 0.42266 0.0
C820 C 0.22522 0.73141 0.42495 0.0
H821 H 0.30998 0.69142 0.41479 0.0
H822 H 0.24465 0.67468 0.41921 0.0
C823 C 0.23631 0.7685 0.42985 0.0
C824 C 0.21651 0.74694 0.93416 0.0
C825 C 0.24271 0.71837 0.93015 0.0
H826 H 0.20759 0.80561 0.93655 0.0
C827 C 0.28058 0.72657 0.93469 0.0
H828 H 0.18709 0.74138 0.93131 0.0
C829 C 0.29232 0.76334 0.93809 0.0
C830 C 0.26631 0.79233 0.93646 0.0
H831 H 0.30133 0.70489 0.93252 0.0
H832 H 0.32183 0.76906 0.93809 0.0
C833 C 0.22826 0.78375 0.9371 0.0
C834 C 0.78635 0.28368 0.43077 0.0
C835 C 0.7948 0.24569 0.42779 0.0
H836 H 0.74372 0.32496 0.43024 0.0
C837 C 0.76611 0.21953 0.43092 0.0
H838 H 0.80809 0.3044 0.42925 0.0
C839 C 0.72923 0.23132 0.43123 0.0
C840 C 0.72071 0.26935 0.42882 0.0
H841 H 0.77184 0.19005 0.42926 0.0
H842 H 0.70745 0.21061 0.43002 0.0
C843 C 0.74947 0.29546 0.43149 0.0
C844 C 0.22889 0.72997 0.08812 0.0
C845 C 0.26686 0.72109 0.08953 0.0
H846 H 0.18794 0.77268 0.09292 0.0
C847 C 0.2931 0.74986 0.08826 0.0
H848 H 0.20808 0.70827 0.08837 0.0
C849 C 0.28157 0.78674 0.09125 0.0
C850 C 0.24368 0.79526 0.09505 0.0
H851 H 0.32256 0.74389 0.08885 0.0
H852 H 0.30243 0.80826 0.09373 0.0
C853 C 0.21735 0.76688 0.09065 0.0
C854 C 0.7484 0.21903 0.59088 0.0
C855 C 0.7198 0.24533 0.59384 0.0
H856 H 0.80701 0.20975 0.59219 0.0
C857 C 0.72846 0.28329 0.59106 0.0
H858 H 0.74252 0.18957 0.59241 0.0
C859 C 0.7654 0.29485 0.59063 0.0
C860 C 0.79403 0.26855 0.59342 0.0
H861 H 0.70681 0.30413 0.59248 0.0
H862 H 0.77129 0.32431 0.59199 0.0
C863 C 0.78535 0.23059 0.59088 0.0
C864 C 0.7288 0.01251 0.98498 0.0
C865 C 0.76573 0.01554 0.97238 0.0
H866 H 0.69194 0.01537 0.03337 0.0
C867 C 0.79445 0.0131 0.99952 0.0
H868 H 0.70621 0.01497 0.96453 0.0
C869 C 0.78627 0.01294 0.03894 0.0
C870 C 0.7493 0.0156 0.05151 0.0
H871 H 0.82309 0.01601 0.9905 0.0
H872 H 0.80883 0.01576 0.05935 0.0
C873 C 0.72061 0.01273 0.02439 0.0
C874 C 0.51171 0.76034 0.49376 0.0
C875 C 0.48314 0.77536 0.47104 0.0
H876 H 0.53123 0.74862 0.5507 0.0
C877 C 0.45302 0.79203 0.48931 0.0
H878 H 0.53544 0.7473 0.48026 0.0
C879 C 0.44827 0.7885 0.52866 0.0
C880 C 0.47554 0.77222 0.55248 0.0
H881 H 0.43049 0.80378 0.47251 0.0
H882 H 0.42136 0.79629 0.53884 0.0
C883 C 0.5085 0.75996 0.53431 0.0
C884 C 0.79398 0.50192 0.02226 0.0
C885 C 0.76503 0.50014 0.04915 0.0
H886 H 0.80871 0.49893 0.96256 0.0
C887 C 0.72826 0.50398 0.03622 0.0
H888 H 0.82248 0.49841 0.03153 0.0
C889 C 0.72033 0.50395 0.99673 0.0
C890 C 0.74914 0.50043 0.96985 0.0
H891 H 0.70548 0.50207 0.05647 0.0
H892 H 0.69168 0.50195 0.98751 0.0
C893 C 0.78607 0.50226 0.98277 0.0
C894 C 0.01788 0.78609 0.48346 0.0
C895 C 0.01898 0.74833 0.47343 0.0
H896 H 0.02207 0.82566 0.52932 0.0
C897 C 0.01458 0.7215 0.5024 0.0
H898 H 0.02188 0.80721 0.46159 0.0
C899 C 0.01417 0.73211 0.54117 0.0
C900 C 0.01866 0.7696 0.55131 0.0
H901 H 0.016 0.69224 0.49538 0.0
H902 H 0.01536 0.71073 0.56313 0.0
C903 C 0.01795 0.79667 0.52223 0.0
C904 C 0.21851 1.00332 0.03252 0.0
C905 C 0.24789 1.00089 0.05888 0.0
H906 H 0.20278 1.00058 0.9731 0.0
C907 C 0.2845 1.00433 0.04542 0.0
H908 H 0.19012 1.00018 0.04225 0.0
C909 C 0.29178 1.0042 1.00584 0.0
C910 C 0.26246 1.00093 0.97952 0.0
H911 H 0.30757 1.00196 0.0653 0.0
H912 H 0.32024 1.00176 0.99614 0.0
C913 C 0.22578 1.00354 0.99295 0.0
C914 C 0.51294 0.22 0.52368 0.0
C915 C 0.51511 0.24863 0.55088 0.0
H916 H 0.51587 0.2059 0.46384 0.0
C917 C 0.51198 0.28563 0.53831 0.0
H918 H 0.51593 0.19133 0.53267 0.0
C919 C 0.51237 0.29401 0.49891 0.0
C920 C 0.51548 0.26543 0.47177 0.0
H921 H 0.51423 0.30815 0.55881 0.0
H922 H 0.51488 0.32274 0.48998 0.0
C923 C 0.51292 0.22837 0.48429 0.0
C924 C 0.29231 0.50999 0.01954 0.0
C925 C 0.26294 0.51296 0.0458 0.0
H926 H 0.30816 0.51236 0.96013 0.0
C927 C 0.2263 0.51005 0.03229 0.0
H928 H 0.32074 0.5127 0.02932 0.0
C929 C 0.21908 0.51014 0.9927 0.0
C930 C 0.24846 0.51282 0.9664 0.0
H931 H 0.20325 0.51279 0.0521 0.0
H932 H 0.19067 0.51302 0.98292 0.0
C933 C 0.28509 0.50976 0.97994 0.0
C934 C 1.00121 0.28829 0.48361 0.0
C935 C 0.99931 0.25138 0.47069 0.0
H936 H 0.99735 0.32459 0.53233 0.0
C937 C 1.00264 0.22247 0.49757 0.0
H938 H 0.99805 0.311 0.46336 0.0
C939 C 1.00258 0.23028 0.53705 0.0
C940 C 0.99886 0.26705 0.54996 0.0
H941 H 1.00061 0.19383 0.48832 0.0
H942 H 1.00054 0.20744 0.55729 0.0
C943 C 1.00079 0.29609 0.52309 0.0
loop_
_geom_bond_atom_site_label_1
_geom_bond_atom_site_label_2
_geom_bond_distance
_geom_bond_site_symmetry_2
_ccdc_geom_bond_type
Co0 O3 1.970 . S
Co0 N17 1.989 . S
Co0 O25 1.967 . S
Co0 O32 1.920 . S
Co1 O4 1.966 . S
Co1 N10 2.022 1_545 S
Co1 N18 1.993 . S
Co1 O26 1.941 . S
C2 O3 1.258 . S
C2 O4 1.263 . S
O3 Co0 1.970 . S
O3 C2 1.258 . S
O4 Co1 1.966 . S
O4 C2 1.263 . S
C5 O6 1.235 . S
C5 O32 1.289 . S
O6 C5 1.235 . S
C7 C9 1.400 . S
C7 N10 1.351 . S
C7 C12 1.501 1_565 S
C8 C9 1.387 . S
C8 N11 1.341 . S
C9 C7 1.400 . S
C9 C8 1.387 . S
N10 Co1 2.022 1_565 S
N10 C7 1.351 . S
N10 N11 1.365 . S
N11 C8 1.341 . S
N11 N10 1.365 . S
N11 H31 0.862 . S
C12 C7 1.501 1_545 S
C12 H13 0.961 . S
C12 H14 0.961 . S
C12 H15 0.961 1_545 S
H13 C12 0.961 . S
H14 C12 0.961 . S
H15 C12 0.961 1_565 S
C16 N17 1.342 . S
C16 C20 1.401 . S
C16 C21 1.499 . S
N17 Co0 1.989 . S
N17 C16 1.342 . S
N17 N18 1.388 . S
N18 Co1 1.993 . S
N18 N17 1.388 . S
N18 C19 1.346 . S
C19 N18 1.346 . S
C19 C20 1.396 . S
C19 C29 1.510 1_545 S
C20 C16 1.401 . S
C20 C19 1.396 . S
C21 C16 1.499 . S
C21 H22 0.959 . S
C21 H23 0.960 . S
C21 H24 0.961 . S
H22 C21 0.959 . S
H23 C21 0.960 . S
H24 C21 0.961 . S
O25 Co0 1.967 . S
O25 C33 1.258 . S
O26 Co1 1.941 . S
O26 C33 1.266 . S
H27 C29 0.959 . S
H28 C29 0.961 . S
C29 C19 1.510 1_565 S
C29 H27 0.959 . S
C29 H28 0.961 . S
C29 H30 0.960 . S
H30 C29 0.960 . S
H31 N11 0.862 . S
O32 Co0 1.920 . S
O32 C5 1.289 . S
C33 O25 1.258 . S
C33 O26 1.266 . S
Co34 O37 1.970 . S
Co34 N51 1.989 . S
Co34 O59 1.967 . S
Co34 O66 1.920 . S
Co35 O38 1.966 . S
Co35 N44 2.022 . S
Co35 N52 1.993 . S
Co35 O60 1.941 . S
C36 O37 1.258 . S
C36 O38 1.263 . S
O37 Co34 1.970 . S
O37 C36 1.258 . S
O38 Co35 1.966 . S
O38 C36 1.263 . S
C39 O40 1.235 . S
C39 O66 1.289 . S
O40 C39 1.235 . S
C41 C43 1.400 . S
C41 N44 1.351 . S
C41 C46 1.501 . S
C42 C43 1.387 . S
C42 N45 1.341 . S
C43 C41 1.400 . S
C43 C42 1.387 . S
N44 Co35 2.022 . S
N44 C41 1.351 . S
N44 N45 1.365 . S
N45 C42 1.341 . S
N45 N44 1.365 . S
N45 H65 0.862 . S
C46 C41 1.501 . S
C46 H47 0.961 . S
C46 H48 0.961 . S
C46 H49 0.960 . S
H47 C46 0.961 . S
H48 C46 0.961 . S
H49 C46 0.960 . S
C50 N51 1.342 . S
C50 C54 1.401 . S
C50 C55 1.499 . S
N51 Co34 1.989 . S
N51 C50 1.342 . S
N51 N52 1.388 . S
N52 Co35 1.993 . S
N52 N51 1.388 . S
N52 C53 1.346 . S
C53 N52 1.346 . S
C53 C54 1.396 . S
C53 C63 1.510 . S
C54 C50 1.401 . S
C54 C53 1.396 . S
C55 C50 1.499 . S
C55 H56 0.959 . S
C55 H57 0.960 . S
C55 H58 0.961 . S
H56 C55 0.959 . S
H57 C55 0.960 . S
H58 C55 0.961 . S
O59 Co34 1.967 . S
O59 C67 1.258 . S
O60 Co35 1.941 . S
O60 C67 1.266 . S
H61 C63 0.959 . S
H62 C63 0.961 . S
C63 C53 1.510 . S
C63 H61 0.959 . S
C63 H62 0.961 . S
C63 H64 0.960 . S
H64 C63 0.960 . S
H65 N45 0.862 . S
O66 Co34 1.920 . S
O66 C39 1.289 . S
C67 O59 1.258 . S
C67 O60 1.266 . S
Co68 O71 1.970 . S
Co68 N85 1.989 . S
Co68 O93 1.967 . S
Co68 O100 1.920 . S
Co69 O72 1.966 . S
Co69 N78 2.022 . S
Co69 N86 1.993 . S
Co69 O94 1.941 . S
C70 O71 1.258 . S
C70 O72 1.263 . S
O71 Co68 1.970 . S
O71 C70 1.258 . S
O72 Co69 1.966 . S
O72 C70 1.263 . S
C73 O74 1.235 . S
C73 O100 1.289 . S
O74 C73 1.235 . S
C75 C77 1.400 . S
C75 N78 1.351 . S
C75 C80 1.501 . S
C76 C77 1.387 . S
C76 N79 1.341 . S
C77 C75 1.400 . S
C77 C76 1.387 . S
N78 Co69 2.022 . S
N78 C75 1.351 . S
N78 N79 1.365 . S
N79 C76 1.341 . S
N79 N78 1.365 . S
N79 H99 0.862 . S
C80 C75 1.501 . S
C80 H81 0.961 . S
C80 H82 0.961 . S
C80 H83 0.960 . S
H81 C80 0.961 . S
H82 C80 0.961 . S
H83 C80 0.960 . S
C84 N85 1.342 . S
C84 C88 1.401 . S
C84 C89 1.499 . S
N85 Co68 1.989 . S
N85 C84 1.342 . S
N85 N86 1.388 . S
N86 Co69 1.993 . S
N86 N85 1.388 . S
N86 C87 1.346 . S
C87 N86 1.346 . S
C87 C88 1.396 . S
C87 C97 1.510 . S
C88 C84 1.401 . S
C88 C87 1.396 . S
C89 C84 1.499 . S
C89 H90 0.959 . S
C89 H91 0.960 . S
C89 H92 0.961 . S
H90 C89 0.959 . S
H91 C89 0.960 . S
H92 C89 0.961 . S
O93 Co68 1.967 . S
O93 C101 1.258 . S
O94 Co69 1.941 . S
O94 C101 1.266 . S
H95 C97 0.959 . S
H96 C97 0.961 . S
C97 C87 1.510 . S
C97 H95 0.959 . S
C97 H96 0.961 . S
C97 H98 0.960 . S
H98 C97 0.960 . S
H99 N79 0.862 . S
O100 Co68 1.920 . S
O100 C73 1.289 . S
C101 O93 1.258 . S
C101 O94 1.266 . S
Co102 O105 1.970 . S
Co102 N119 1.989 . S
Co102 O127 1.967 . S
Co102 O134 1.920 . S
Co103 O106 1.966 . S
Co103 N112 2.022 1_455 S
Co103 N120 1.993 . S
Co103 O128 1.941 . S
C104 O105 1.258 . S
C104 O106 1.263 . S
O105 Co102 1.970 . S
O105 C104 1.258 . S
O106 Co103 1.966 . S
O106 C104 1.263 . S
C107 O108 1.235 . S
C107 O134 1.289 . S
O108 C107 1.235 . S
C109 C111 1.400 . S
C109 N112 1.351 . S
C109 C114 1.501 1_655 S
C110 C111 1.387 . S
C110 N113 1.341 . S
C111 C109 1.400 . S
C111 C110 1.387 . S
N112 Co103 2.022 1_655 S
N112 C109 1.351 . S
N112 N113 1.365 . S
N113 C110 1.341 . S
N113 N112 1.365 . S
N113 H133 0.862 . S
C114 C109 1.501 1_455 S
C114 H115 0.961 . S
C114 H116 0.961 . S
C114 H117 0.960 1_455 S
H115 C114 0.961 . S
H116 C114 0.961 . S
H117 C114 0.960 1_655 S
C118 N119 1.342 . S
C118 C122 1.401 . S
C118 C123 1.499 . S
N119 Co102 1.989 . S
N119 C118 1.342 . S
N119 N120 1.388 . S
N120 Co103 1.993 . S
N120 N119 1.388 . S
N120 C121 1.346 . S
C121 N120 1.346 . S
C121 C122 1.396 . S
C121 C131 1.510 1_455 S
C122 C118 1.401 . S
C122 C121 1.396 . S
C123 C118 1.499 . S
C123 H124 0.959 . S
C123 H125 0.960 . S
C123 H126 0.961 . S
H124 C123 0.959 . S
H125 C123 0.960 . S
H126 C123 0.961 . S
O127 Co102 1.967 . S
O127 C135 1.258 . S
O128 Co103 1.941 . S
O128 C135 1.266 . S
H129 C131 0.959 . S
H130 C131 0.961 . S
C131 C121 1.510 1_655 S
C131 H129 0.959 . S
C131 H130 0.961 . S
C131 H132 0.960 . S
H132 C131 0.960 . S
H133 N113 0.862 . S
O134 Co102 1.920 . S
O134 C107 1.289 . S
C135 O127 1.258 . S
C135 O128 1.266 . S
Co136 O139 1.970 . S
Co136 N153 1.989 . S
Co136 O161 1.967 . S
Co136 O168 1.920 . S
Co137 O140 1.966 . S
Co137 N146 2.022 . S
Co137 N154 1.993 . S
Co137 O162 1.941 . S
C138 O139 1.258 . S
C138 O140 1.263 . S
O139 Co136 1.970 . S
O139 C138 1.258 . S
O140 Co137 1.966 . S
O140 C138 1.263 . S
C141 O142 1.235 . S
C141 O168 1.289 . S
O142 C141 1.235 . S
C143 C145 1.400 . S
C143 N146 1.351 . S
C143 C148 1.501 . S
C144 C145 1.387 . S
C144 N147 1.341 . S
C145 C143 1.400 . S
C145 C144 1.387 . S
N146 Co137 2.022 . S
N146 C143 1.351 . S
N146 N147 1.365 . S
N147 C144 1.341 . S
N147 N146 1.365 . S
N147 H167 0.862 . S
C148 C143 1.501 . S
C148 H149 0.961 . S
C148 H150 0.961 . S
C148 H151 0.960 . S
H149 C148 0.961 . S
H150 C148 0.961 . S
H151 C148 0.960 . S
C152 N153 1.342 . S
C152 C156 1.401 . S
C152 C157 1.499 . S
N153 Co136 1.989 . S
N153 C152 1.342 . S
N153 N154 1.388 . S
N154 Co137 1.993 . S
N154 N153 1.388 . S
N154 C155 1.346 . S
C155 N154 1.346 . S
C155 C156 1.396 . S
C155 C165 1.510 . S
C156 C152 1.401 . S
C156 C155 1.396 . S
C157 C152 1.499 . S
C157 H158 0.959 . S
C157 H159 0.960 . S
C157 H160 0.961 . S
H158 C157 0.959 . S
H159 C157 0.960 . S
H160 C157 0.961 . S
O161 Co136 1.967 . S
O161 C169 1.258 . S
O162 Co137 1.941 . S
O162 C169 1.266 . S
H163 C165 0.959 . S
H164 C165 0.961 . S
C165 C155 1.510 . S
C165 H163 0.959 . S
C165 H164 0.961 . S
C165 H166 0.960 . S
H166 C165 0.960 . S
H167 N147 0.862 . S
O168 Co136 1.920 . S
O168 C141 1.289 . S
C169 O161 1.258 . S
C169 O162 1.266 . S
Co170 O173 1.970 . S
Co170 N187 1.989 . S
Co170 O195 1.967 . S
Co170 O202 1.920 . S
Co171 O174 1.966 . S
Co171 N180 2.022 1_455 S
Co171 N188 1.993 . S
Co171 O196 1.941 . S
C172 O173 1.258 . S
C172 O174 1.263 . S
O173 Co170 1.970 . S
O173 C172 1.258 . S
O174 Co171 1.966 . S
O174 C172 1.263 . S
C175 O176 1.235 . S
C175 O202 1.289 . S
O176 C175 1.235 . S
C177 C179 1.400 . S
C177 N180 1.351 . S
C177 C182 1.501 1_655 S
C178 C179 1.387 . S
C178 N181 1.341 . S
C179 C177 1.400 . S
C179 C178 1.387 . S
N180 Co171 2.022 1_655 S
N180 C177 1.351 . S
N180 N181 1.365 . S
N181 C178 1.341 . S
N181 N180 1.365 . S
N181 H201 0.862 . S
C182 C177 1.501 1_455 S
C182 H183 0.961 . S
C182 H184 0.961 . S
C182 H185 0.961 1_455 S
H183 C182 0.961 . S
H184 C182 0.961 . S
H185 C182 0.961 1_655 S
C186 N187 1.342 . S
C186 C190 1.401 . S
C186 C191 1.499 . S
N187 Co170 1.989 . S
N187 C186 1.342 . S
N187 N188 1.388 . S
N188 Co171 1.993 . S
N188 N187 1.388 . S
N188 C189 1.346 . S
C189 N188 1.346 . S
C189 C190 1.396 . S
C189 C199 1.510 1_455 S
C190 C186 1.401 . S
C190 C189 1.396 . S
C191 C186 1.499 . S
C191 H192 0.959 . S
C191 H193 0.960 . S
C191 H194 0.961 . S
H192 C191 0.959 . S
H193 C191 0.960 . S
H194 C191 0.961 . S
O195 Co170 1.967 . S
O195 C203 1.258 . S
O196 Co171 1.941 . S
O196 C203 1.266 . S
H197 C199 0.959 . S
H198 C199 0.961 . S
C199 C189 1.510 1_655 S
C199 H197 0.959 . S
C199 H198 0.961 . S
C199 H200 0.960 . S
H200 C199 0.960 . S
H201 N181 0.862 . S
O202 Co170 1.920 . S
O202 C175 1.289 . S
C203 O195 1.258 . S
C203 O196 1.266 . S
Co204 O207 1.970 . S
Co204 N221 1.989 . S
Co204 O229 1.967 . S
Co204 O236 1.920 . S
Co205 O208 1.966 . S
Co205 N214 2.022 1_545 S
Co205 N222 1.993 . S
Co205 O230 1.941 . S
C206 O207 1.258 . S
C206 O208 1.263 . S
O207 Co204 1.970 . S
O207 C206 1.258 . S
O208 Co205 1.966 . S
O208 C206 1.263 . S
C209 O210 1.235 . S
C209 O236 1.289 . S
O210 C209 1.235 . S
C211 C213 1.400 . S
C211 N214 1.351 . S
C211 C216 1.501 1_565 S
C212 C213 1.387 . S
C212 N215 1.341 . S
C213 C211 1.400 . S
C213 C212 1.387 . S
N214 Co205 2.022 1_565 S
N214 C211 1.351 . S
N214 N215 1.365 . S
N215 C212 1.341 . S
N215 N214 1.365 . S
N215 H235 0.862 . S
C216 C211 1.501 1_545 S
C216 H217 0.961 . S
C216 H218 0.961 . S
C216 H219 0.960 1_545 S
H217 C216 0.961 . S
H218 C216 0.961 . S
H219 C216 0.960 1_565 S
C220 N221 1.342 . S
C220 C224 1.401 . S
C220 C225 1.499 . S
N221 Co204 1.989 . S
N221 C220 1.342 . S
N221 N222 1.388 . S
N222 Co205 1.993 . S
N222 N221 1.388 . S
N222 C223 1.346 . S
C223 N222 1.346 . S
C223 C224 1.396 . S
C223 C233 1.510 1_545 S
C224 C220 1.401 . S
C224 C223 1.396 . S
C225 C220 1.499 . S
C225 H226 0.959 . S
C225 H227 0.960 . S
C225 H228 0.961 . S
H226 C225 0.959 . S
H227 C225 0.960 . S
H228 C225 0.961 . S
O229 Co204 1.967 . S
O229 C237 1.258 . S
O230 Co205 1.941 . S
O230 C237 1.266 . S
H231 C233 0.959 . S
H232 C233 0.961 . S
C233 C223 1.510 1_565 S
C233 H231 0.959 . S
C233 H232 0.961 . S
C233 H234 0.960 . S
H234 C233 0.960 . S
H235 N215 0.862 . S
O236 Co204 1.920 . S
O236 C209 1.289 . S
C237 O229 1.258 . S
C237 O230 1.266 . S
Co238 O241 1.970 . S
Co238 N255 1.989 . S
Co238 O263 1.967 . S
Co238 O270 1.920 . S
Co239 O242 1.966 . S
Co239 N248 2.022 . S
Co239 N256 1.993 . S
Co239 O264 1.941 . S
C240 O241 1.258 . S
C240 O242 1.263 . S
O241 Co238 1.970 . S
O241 C240 1.258 . S
O242 Co239 1.966 . S
O242 C240 1.263 . S
C243 O244 1.235 . S
C243 O270 1.289 . S
O244 C243 1.235 . S
C245 C247 1.400 . S
C245 N248 1.351 . S
C245 C250 1.501 . S
C246 C247 1.387 . S
C246 N249 1.341 . S
C247 C245 1.400 . S
C247 C246 1.387 . S
N248 Co239 2.022 . S
N248 C245 1.351 . S
N248 N249 1.365 . S
N249 C246 1.341 . S
N249 N248 1.365 . S
N249 H269 0.862 . S
C250 C245 1.501 . S
C250 H251 0.961 . S
C250 H252 0.961 . S
C250 H253 0.960 . S
H251 C250 0.961 . S
H252 C250 0.961 . S
H253 C250 0.960 . S
C254 N255 1.342 . S
C254 C258 1.401 . S
C254 C259 1.499 . S
N255 Co238 1.989 . S
N255 C254 1.342 . S
N255 N256 1.388 . S
N256 Co239 1.993 . S
N256 N255 1.388 . S
N256 C257 1.346 . S
C257 N256 1.346 . S
C257 C258 1.396 . S
C257 C267 1.510 . S
C258 C254 1.401 . S
C258 C257 1.396 . S
C259 C254 1.499 . S
C259 H260 0.959 . S
C259 H261 0.960 . S
C259 H262 0.961 . S
H260 C259 0.959 . S
H261 C259 0.960 . S
H262 C259 0.961 . S
O263 Co238 1.967 . S
O263 C271 1.258 . S
O264 Co239 1.941 . S
O264 C271 1.266 . S
H265 C267 0.959 . S
H266 C267 0.961 . S
C267 C257 1.510 . S
C267 H265 0.959 . S
C267 H266 0.961 . S
C267 H268 0.960 . S
H268 C267 0.960 . S
H269 N249 0.862 . S
O270 Co238 1.920 . S
O270 C243 1.289 . S
C271 O263 1.258 . S
C271 O264 1.266 . S
Co272 O275 1.970 . S
Co272 N289 1.989 . S
Co272 O297 1.967 . S
Co272 O304 1.920 . S
Co273 O276 1.966 . S
Co273 N282 2.022 1_565 S
Co273 N290 1.993 . S
Co273 O298 1.941 . S
C274 O275 1.258 . S
C274 O276 1.263 . S
O275 Co272 1.970 . S
O275 C274 1.258 . S
O276 Co273 1.966 . S
O276 C274 1.263 . S
C277 O278 1.235 . S
C277 O304 1.289 . S
O278 C277 1.235 . S
C279 C281 1.400 . S
C279 N282 1.351 . S
C279 C284 1.501 1_545 S
C280 C281 1.387 . S
C280 N283 1.341 . S
C281 C279 1.400 . S
C281 C280 1.387 . S
N282 Co273 2.022 1_545 S
N282 C279 1.351 . S
N282 N283 1.365 . S
N283 C280 1.341 . S
N283 N282 1.365 . S
N283 H303 0.862 . S
C284 C279 1.501 1_565 S
C284 H285 0.961 . S
C284 H286 0.961 . S
C284 H287 0.961 1_565 S
H285 C284 0.961 . S
H286 C284 0.961 . S
H287 C284 0.961 1_545 S
C288 N289 1.342 . S
C288 C292 1.401 . S
C288 C293 1.499 . S
N289 Co272 1.989 . S
N289 C288 1.342 . S
N289 N290 1.388 . S
N290 Co273 1.993 . S
N290 N289 1.388 . S
N290 C291 1.346 . S
C291 N290 1.346 . S
C291 C292 1.396 . S
C291 C301 1.510 1_565 S
C292 C288 1.401 . S
C292 C291 1.396 . S
C293 C288 1.499 . S
C293 H294 0.959 . S
C293 H295 0.960 . S
C293 H296 0.961 . S
H294 C293 0.959 . S
H295 C293 0.960 . S
H296 C293 0.961 . S
O297 Co272 1.967 . S
O297 C305 1.258 . S
O298 Co273 1.941 . S
O298 C305 1.266 . S
H299 C301 0.959 . S
H300 C301 0.961 . S
C301 C291 1.510 1_545 S
C301 H299 0.959 . S
C301 H300 0.961 . S
C301 H302 0.960 . S
H302 C301 0.960 . S
H303 N283 0.862 . S
O304 Co272 1.920 . S
O304 C277 1.289 . S
C305 O297 1.258 . S
C305 O298 1.266 . S
Co306 O309 1.970 . S
Co306 N323 1.989 . S
Co306 O331 1.967 . S
Co306 O338 1.920 . S
Co307 O310 1.966 . S
Co307 N316 2.022 . S
Co307 N324 1.993 . S
Co307 O332 1.941 . S
C308 O309 1.258 . S
C308 O310 1.263 . S
O309 Co306 1.970 . S
O309 C308 1.258 . S
O310 Co307 1.966 . S
O310 C308 1.263 . S
C311 O312 1.235 . S
C311 O338 1.289 . S
O312 C311 1.235 . S
C313 C315 1.400 . S
C313 N316 1.351 . S
C313 C318 1.501 . S
C314 C315 1.387 . S
C314 N317 1.341 . S
C315 C313 1.400 . S
C315 C314 1.387 . S
N316 Co307 2.022 . S
N316 C313 1.351 . S
N316 N317 1.365 . S
N317 C314 1.341 . S
N317 N316 1.365 . S
N317 H337 0.862 . S
C318 C313 1.501 . S
C318 H319 0.961 . S
C318 H320 0.961 . S
C318 H321 0.960 . S
H319 C318 0.961 . S
H320 C318 0.961 . S
H321 C318 0.960 . S
C322 N323 1.342 . S
C322 C326 1.401 . S
C322 C327 1.499 . S
N323 Co306 1.989 . S
N323 C322 1.342 . S
N323 N324 1.388 . S
N324 Co307 1.993 . S
N324 N323 1.388 . S
N324 C325 1.346 . S
C325 N324 1.346 . S
C325 C326 1.396 . S
C325 C335 1.510 . S
C326 C322 1.401 . S
C326 C325 1.396 . S
C327 C322 1.499 . S
C327 H328 0.959 . S
C327 H329 0.960 . S
C327 H330 0.961 . S
H328 C327 0.959 . S
H329 C327 0.960 . S
H330 C327 0.961 . S
O331 Co306 1.967 . S
O331 C339 1.258 . S
O332 Co307 1.941 . S
O332 C339 1.266 . S
H333 C335 0.959 . S
H334 C335 0.961 . S
C335 C325 1.510 . S
C335 H333 0.959 . S
C335 H334 0.961 . S
C335 H336 0.960 . S
H336 C335 0.960 . S
H337 N317 0.862 . S
O338 Co306 1.920 . S
O338 C311 1.289 . S
C339 O331 1.258 . S
C339 O332 1.266 . S
Co340 O343 1.970 . S
Co340 N357 1.989 . S
Co340 O365 1.967 . S
Co340 O372 1.920 . S
Co341 O344 1.966 . S
Co341 N350 2.022 . S
Co341 N358 1.993 . S
Co341 O366 1.941 . S
C342 O343 1.258 . S
C342 O344 1.263 . S
O343 Co340 1.970 . S
O343 C342 1.258 . S
O344 Co341 1.966 . S
O344 C342 1.263 . S
C345 O346 1.235 . S
C345 O372 1.289 . S
O346 C345 1.235 . S
C347 C349 1.400 . S
C347 N350 1.351 . S
C347 C352 1.501 . S
C348 C349 1.387 . S
C348 N351 1.341 . S
C349 C347 1.400 . S
C349 C348 1.387 . S
N350 Co341 2.022 . S
N350 C347 1.351 . S
N350 N351 1.365 . S
N351 C348 1.341 . S
N351 N350 1.365 . S
N351 H371 0.862 . S
C352 C347 1.501 . S
C352 H353 0.961 . S
C352 H354 0.961 . S
C352 H355 0.960 . S
H353 C352 0.961 . S
H354 C352 0.961 . S
H355 C352 0.960 . S
C356 N357 1.342 . S
C356 C360 1.401 . S
C356 C361 1.499 . S
N357 Co340 1.989 . S
N357 C356 1.342 . S
N357 N358 1.388 . S
N358 Co341 1.993 . S
N358 N357 1.388 . S
N358 C359 1.346 . S
C359 N358 1.346 . S
C359 C360 1.396 . S
C359 C369 1.510 . S
C360 C356 1.401 . S
C360 C359 1.396 . S
C361 C356 1.499 . S
C361 H362 0.959 . S
C361 H363 0.960 . S
C361 H364 0.961 . S
H362 C361 0.959 . S
H363 C361 0.960 . S
H364 C361 0.961 . S
O365 Co340 1.967 . S
O365 C373 1.258 . S
O366 Co341 1.941 . S
O366 C373 1.266 . S
H367 C369 0.959 . S
H368 C369 0.961 . S
C369 C359 1.510 . S
C369 H367 0.959 . S
C369 H368 0.961 . S
C369 H370 0.960 . S
H370 C369 0.960 . S
H371 N351 0.862 . S
O372 Co340 1.920 . S
O372 C345 1.289 . S
C373 O365 1.258 . S
C373 O366 1.266 . S
Co374 O377 1.970 . S
Co374 N391 1.989 . S
Co374 O399 1.967 . S
Co374 O406 1.920 . S
Co375 O378 1.966 . S
Co375 N384 2.022 1_655 S
Co375 N392 1.993 . S
Co375 O400 1.941 . S
C376 O377 1.258 . S
C376 O378 1.263 . S
O377 Co374 1.970 . S
O377 C376 1.258 . S
O378 Co375 1.966 . S
O378 C376 1.263 . S
C379 O380 1.235 . S
C379 O406 1.289 . S
O380 C379 1.235 . S
C381 C383 1.400 . S
C381 N384 1.351 . S
C381 C386 1.501 1_455 S
C382 C383 1.387 . S
C382 N385 1.341 . S
C383 C381 1.400 . S
C383 C382 1.387 . S
N384 Co375 2.022 1_455 S
N384 C381 1.351 . S
N384 N385 1.365 . S
N385 C382 1.341 . S
N385 N384 1.365 . S
N385 H405 0.862 . S
C386 C381 1.501 1_655 S
C386 H387 0.961 . S
C386 H388 0.961 . S
C386 H389 0.960 1_655 S
H387 C386 0.961 . S
H388 C386 0.961 . S
H389 C386 0.960 1_455 S
C390 N391 1.342 . S
C390 C394 1.401 . S
C390 C395 1.499 . S
N391 Co374 1.989 . S
N391 C390 1.342 . S
N391 N392 1.388 . S
N392 Co375 1.993 . S
N392 N391 1.388 . S
N392 C393 1.346 . S
C393 N392 1.346 . S
C393 C394 1.396 . S
C393 C403 1.510 1_655 S
C394 C390 1.401 . S
C394 C393 1.396 . S
C395 C390 1.499 . S
C395 H396 0.959 . S
C395 H397 0.960 . S
C395 H398 0.961 . S
H396 C395 0.959 . S
H397 C395 0.960 . S
H398 C395 0.961 . S
O399 Co374 1.967 . S
O399 C407 1.258 . S
O400 Co375 1.941 . S
O400 C407 1.266 . S
H401 C403 0.959 . S
H402 C403 0.961 . S
C403 C393 1.510 1_455 S
C403 H401 0.959 . S
C403 H402 0.961 . S
C403 H404 0.960 . S
H404 C403 0.960 . S
H405 N385 0.862 . S
O406 Co374 1.920 . S
O406 C379 1.289 . S
C407 O399 1.258 . S
C407 O400 1.266 . S
Co408 O411 1.970 . S
Co408 N425 1.989 . S
Co408 O433 1.967 . S
Co408 O440 1.920 . S
Co409 O412 1.966 . S
Co409 N418 2.022 . S
Co409 N426 1.993 . S
Co409 O434 1.941 . S
C410 O411 1.258 . S
C410 O412 1.263 . S
O411 Co408 1.970 . S
O411 C410 1.258 . S
O412 Co409 1.966 . S
O412 C410 1.263 . S
C413 O414 1.235 . S
C413 O440 1.289 . S
O414 C413 1.235 . S
C415 C417 1.400 . S
C415 N418 1.351 . S
C415 C420 1.501 . S
C416 C417 1.387 . S
C416 N419 1.341 . S
C417 C415 1.400 . S
C417 C416 1.387 . S
N418 Co409 2.022 . S
N418 C415 1.351 . S
N418 N419 1.365 . S
N419 C416 1.341 . S
N419 N418 1.365 . S
N419 H439 0.862 . S
C420 C415 1.501 . S
C420 H421 0.961 . S
C420 H422 0.961 . S
C420 H423 0.960 . S
H421 C420 0.961 . S
H422 C420 0.961 . S
H423 C420 0.960 . S
C424 N425 1.342 . S
C424 C428 1.401 . S
C424 C429 1.499 . S
N425 Co408 1.989 . S
N425 C424 1.342 . S
N425 N426 1.388 . S
N426 Co409 1.993 . S
N426 N425 1.388 . S
N426 C427 1.346 . S
C427 N426 1.346 . S
C427 C428 1.396 . S
C427 C437 1.510 . S
C428 C424 1.401 . S
C428 C427 1.396 . S
C429 C424 1.499 . S
C429 H430 0.959 . S
C429 H431 0.960 . S
C429 H432 0.961 . S
H430 C429 0.959 . S
H431 C429 0.960 . S
H432 C429 0.961 . S
O433 Co408 1.967 . S
O433 C441 1.258 . S
O434 Co409 1.941 . S
O434 C441 1.266 . S
H435 C437 0.959 . S
H436 C437 0.961 . S
C437 C427 1.510 . S
C437 H435 0.959 . S
C437 H436 0.961 . S
C437 H438 0.960 . S
H438 C437 0.960 . S
H439 N419 0.862 . S
O440 Co408 1.920 . S
O440 C413 1.289 . S
C441 O433 1.258 . S
C441 O434 1.266 . S
Co442 O445 1.970 . S
Co442 N459 1.989 . S
Co442 O467 1.967 . S
Co442 O474 1.920 . S
Co443 O446 1.966 . S
Co443 N452 2.022 1_655 S
Co443 N460 1.993 . S
Co443 O468 1.941 . S
C444 O445 1.258 . S
C444 O446 1.263 . S
O445 Co442 1.970 . S
O445 C444 1.258 . S
O446 Co443 1.966 . S
O446 C444 1.263 . S
C447 O448 1.235 . S
C447 O474 1.289 . S
O448 C447 1.235 . S
C449 C451 1.400 . S
C449 N452 1.351 . S
C449 C454 1.501 1_455 S
C450 C451 1.387 . S
C450 N453 1.341 . S
C451 C449 1.400 . S
C451 C450 1.387 . S
N452 Co443 2.022 1_455 S
N452 C449 1.351 . S
N452 N453 1.365 . S
N453 C450 1.341 . S
N453 N452 1.365 . S
N453 H473 0.862 . S
C454 C449 1.501 1_655 S
C454 H455 0.961 . S
C454 H456 0.961 . S
C454 H457 0.961 1_655 S
H455 C454 0.961 . S
H456 C454 0.961 . S
H457 C454 0.961 1_455 S
C458 N459 1.342 . S
C458 C462 1.401 . S
C458 C463 1.499 . S
N459 Co442 1.989 . S
N459 C458 1.342 . S
N459 N460 1.388 . S
N460 Co443 1.993 . S
N460 N459 1.388 . S
N460 C461 1.346 . S
C461 N460 1.346 . S
C461 C462 1.396 . S
C461 C471 1.510 1_655 S
C462 C458 1.401 . S
C462 C461 1.396 . S
C463 C458 1.499 . S
C463 H464 0.959 . S
C463 H465 0.960 . S
C463 H466 0.961 . S
H464 C463 0.959 . S
H465 C463 0.960 . S
H466 C463 0.961 . S
O467 Co442 1.967 . S
O467 C475 1.258 . S
O468 Co443 1.941 . S
O468 C475 1.266 . S
H469 C471 0.959 . S
H470 C471 0.961 . S
C471 C461 1.510 1_455 S
C471 H469 0.959 . S
C471 H470 0.961 . S
C471 H472 0.960 . S
H472 C471 0.960 . S
H473 N453 0.862 . S
O474 Co442 1.920 . S
O474 C447 1.289 . S
C475 O467 1.258 . S
C475 O468 1.266 . S
Co476 O479 1.970 . S
Co476 N493 1.989 . S
Co476 O501 1.967 . S
Co476 O508 1.920 . S
Co477 O480 1.966 . S
Co477 N486 2.022 1_565 S
Co477 N494 1.993 . S
Co477 O502 1.941 . S
C478 O479 1.258 . S
C478 O480 1.263 . S
O479 Co476 1.970 . S
O479 C478 1.258 . S
O480 Co477 1.966 . S
O480 C478 1.263 . S
C481 O482 1.235 . S
C481 O508 1.289 . S
O482 C481 1.235 . S
C483 C485 1.400 . S
C483 N486 1.351 . S
C483 C488 1.501 1_545 S
C484 C485 1.387 . S
C484 N487 1.341 . S
C485 C483 1.400 . S
C485 C484 1.387 . S
N486 Co477 2.022 1_545 S
N486 C483 1.351 . S
N486 N487 1.365 . S
N487 C484 1.341 . S
N487 N486 1.365 . S
N487 H507 0.862 . S
C488 C483 1.501 1_565 S
C488 H489 0.961 . S
C488 H490 0.961 . S
C488 H491 0.960 1_565 S
H489 C488 0.961 . S
H490 C488 0.961 . S
H491 C488 0.960 1_545 S
C492 N493 1.342 . S
C492 C496 1.401 . S
C492 C497 1.499 . S
N493 Co476 1.989 . S
N493 C492 1.342 . S
N493 N494 1.388 . S
N494 Co477 1.993 . S
N494 N493 1.388 . S
N494 C495 1.346 . S
C495 N494 1.346 . S
C495 C496 1.396 . S
C495 C505 1.510 1_565 S
C496 C492 1.401 . S
C496 C495 1.396 . S
C497 C492 1.499 . S
C497 H498 0.959 . S
C497 H499 0.960 . S
C497 H500 0.961 . S
H498 C497 0.959 . S
H499 C497 0.960 . S
H500 C497 0.961 . S
O501 Co476 1.967 . S
O501 C509 1.258 . S
O502 Co477 1.941 . S
O502 C509 1.266 . S
H503 C505 0.959 . S
H504 C505 0.961 . S
C505 C495 1.510 1_545 S
C505 H503 0.959 . S
C505 H504 0.961 . S
C505 H506 0.960 . S
H506 C505 0.960 . S
H507 N487 0.862 . S
O508 Co476 1.920 . S
O508 C481 1.289 . S
C509 O501 1.258 . S
C509 O502 1.266 . S
Co510 O513 1.970 . S
Co510 N527 1.989 . S
Co510 O535 1.967 . S
Co510 O542 1.920 . S
Co511 O514 1.966 . S
Co511 N520 2.022 . S
Co511 N528 1.993 . S
Co511 O536 1.941 . S
C512 O513 1.258 . S
C512 O514 1.263 . S
O513 Co510 1.970 . S
O513 C512 1.258 . S
O514 Co511 1.966 . S
O514 C512 1.263 . S
C515 O516 1.235 . S
C515 O542 1.289 . S
O516 C515 1.235 . S
C517 C519 1.400 . S
C517 N520 1.351 . S
C517 C522 1.501 . S
C518 C519 1.387 . S
C518 N521 1.341 . S
C519 C517 1.400 . S
C519 C518 1.387 . S
N520 Co511 2.022 . S
N520 C517 1.351 . S
N520 N521 1.365 . S
N521 C518 1.341 . S
N521 N520 1.365 . S
N521 H541 0.862 . S
C522 C517 1.501 . S
C522 H523 0.961 . S
C522 H524 0.961 . S
C522 H525 0.960 . S
H523 C522 0.961 . S
H524 C522 0.961 . S
H525 C522 0.960 . S
C526 N527 1.342 . S
C526 C530 1.401 . S
C526 C531 1.499 . S
N527 Co510 1.989 . S
N527 C526 1.342 . S
N527 N528 1.388 . S
N528 Co511 1.993 . S
N528 N527 1.388 . S
N528 C529 1.346 . S
C529 N528 1.346 . S
C529 C530 1.396 . S
C529 C539 1.510 . S
C530 C526 1.401 . S
C530 C529 1.396 . S
C531 C526 1.499 . S
C531 H532 0.959 . S
C531 H533 0.960 . S
C531 H534 0.961 . S
H532 C531 0.959 . S
H533 C531 0.960 . S
H534 C531 0.961 . S
O535 Co510 1.967 . S
O535 C543 1.258 . S
O536 Co511 1.941 . S
O536 C543 1.266 . S
H537 C539 0.959 . S
H538 C539 0.961 . S
C539 C529 1.510 . S
C539 H537 0.959 . S
C539 H538 0.961 . S
C539 H540 0.960 . S
H540 C539 0.960 . S
H541 N521 0.862 . S
O542 Co510 1.920 . S
O542 C515 1.289 . S
C543 O535 1.258 . S
C543 O536 1.266 . S
C544 C545 1.387 . S
C544 H548 0.950 . S
C544 C553 1.390 . S
C545 C544 1.387 . S
C545 C547 1.387 . S
H546 C553 0.950 . S
C547 C545 1.387 . S
C547 C549 1.390 . S
C547 H551 0.950 . S
H548 C544 0.950 . S
C549 C547 1.390 . S
C549 C550 1.387 . S
C549 H552 0.950 . S
C550 C549 1.387 . S
C550 C553 1.387 . S
H551 C547 0.950 . S
H552 C549 0.950 . S
C553 C544 1.390 . S
C553 H546 0.950 . S
C553 C550 1.387 . S
C554 C555 1.387 . S
C554 H558 0.950 . S
C554 C563 1.390 . S
C555 C554 1.387 . S
C555 C557 1.387 . S
H556 C563 0.950 . S
C557 C555 1.387 . S
C557 C559 1.390 . S
C557 H561 0.950 . S
H558 C554 0.950 . S
C559 C557 1.390 . S
C559 C560 1.387 . S
C559 H562 0.950 . S
C560 C559 1.387 . S
C560 C563 1.387 . S
H561 C557 0.950 . S
H562 C559 0.950 . S
C563 C554 1.390 . S
C563 H556 0.950 . S
C563 C560 1.387 . S
C564 C565 1.387 . S
C564 H568 0.950 . S
C564 C573 1.390 . S
C565 C564 1.387 . S
C565 C567 1.387 . S
H566 C573 0.950 . S
C567 C565 1.387 . S
C567 C569 1.390 . S
C567 H571 0.950 . S
H568 C564 0.950 . S
C569 C567 1.390 . S
C569 C570 1.387 . S
C569 H572 0.950 . S
C570 C569 1.387 . S
C570 C573 1.387 . S
H571 C567 0.950 . S
H572 C569 0.950 . S
C573 C564 1.390 . S
C573 H566 0.950 . S
C573 C570 1.387 . S
C574 C575 1.387 . S
C574 H578 0.950 . S
C574 C583 1.390 . S
C575 C574 1.387 . S
C575 C577 1.387 . S
H576 C583 0.950 . S
C577 C575 1.387 . S
C577 C579 1.390 . S
C577 H581 0.950 . S
H578 C574 0.950 . S
C579 C577 1.390 . S
C579 C580 1.387 . S
C579 H582 0.950 . S
C580 C579 1.387 . S
C580 C583 1.387 . S
H581 C577 0.950 . S
H582 C579 0.950 . S
C583 C574 1.390 . S
C583 H576 0.950 . S
C583 C580 1.387 . S
C584 C585 1.387 . S
C584 H588 0.950 . S
C584 C593 1.390 . S
C585 C584 1.387 . S
C585 C587 1.387 . S
H586 C593 0.950 . S
C587 C585 1.387 . S
C587 C589 1.390 . S
C587 H591 0.950 . S
H588 C584 0.950 . S
C589 C587 1.390 . S
C589 C590 1.387 . S
C589 H592 0.950 . S
C590 C589 1.387 . S
C590 C593 1.387 . S
H591 C587 0.950 . S
H592 C589 0.950 . S
C593 C584 1.390 . S
C593 H586 0.950 . S
C593 C590 1.387 . S
C594 C595 1.387 . S
C594 H598 0.950 . S
C594 C603 1.390 . S
C595 C594 1.387 . S
C595 C597 1.387 . S
H596 C603 0.950 . S
C597 C595 1.387 . S
C597 C599 1.390 . S
C597 H601 0.950 . S
H598 C594 0.950 . S
C599 C597 1.390 . S
C599 C600 1.387 . S
C599 H602 0.950 . S
C600 C599 1.387 . S
C600 C603 1.387 . S
H601 C597 0.950 . S
H602 C599 0.950 . S
C603 C594 1.390 . S
C603 H596 0.950 . S
C603 C600 1.387 . S
C604 C605 1.387 . S
C604 H608 0.950 . S
C604 C613 1.390 . S
C605 C604 1.387 . S
C605 C607 1.387 . S
H606 C613 0.950 . S
C607 C605 1.387 . S
C607 C609 1.390 . S
C607 H611 0.950 . S
H608 C604 0.950 . S
C609 C607 1.390 . S
C609 C610 1.387 . S
C609 H612 0.950 . S
C610 C609 1.387 . S
C610 C613 1.387 . S
H611 C607 0.950 . S
H612 C609 0.950 . S
C613 C604 1.390 . S
C613 H606 0.950 . S
C613 C610 1.387 . S
C614 C615 1.387 . S
C614 H618 0.950 . S
C614 C623 1.390 . S
C615 C614 1.387 . S
C615 C617 1.387 . S
H616 C623 0.950 . S
C617 C615 1.387 . S
C617 C619 1.390 . S
C617 H621 0.950 . S
H618 C614 0.950 . S
C619 C617 1.390 . S
C619 C620 1.387 . S
C619 H622 0.950 . S
C620 C619 1.387 . S
C620 C623 1.387 . S
H621 C617 0.950 . S
H622 C619 0.950 . S
C623 C614 1.390 . S
C623 H616 0.950 . S
C623 C620 1.387 . S
C624 C625 1.387 . S
C624 H628 0.950 . S
C624 C633 1.390 . S
C625 C624 1.387 . S
C625 C627 1.387 . S
H626 C633 0.950 . S
C627 C625 1.387 . S
C627 C629 1.390 . S
C627 H631 0.950 . S
H628 C624 0.950 . S
C629 C627 1.390 . S
C629 C630 1.387 . S
C629 H632 0.950 . S
C630 C629 1.387 . S
C630 C633 1.387 . S
H631 C627 0.950 . S
H632 C629 0.950 . S
C633 C624 1.390 . S
C633 H626 0.950 . S
C633 C630 1.387 . S
C634 C635 1.387 . S
C634 H638 0.950 . S
C634 C643 1.390 . S
C635 C634 1.387 . S
C635 C637 1.387 . S
H636 C643 0.950 . S
C637 C635 1.387 . S
C637 C639 1.390 . S
C637 H641 0.950 . S
H638 C634 0.950 . S
C639 C637 1.390 . S
C639 C640 1.387 . S
C639 H642 0.950 . S
C640 C639 1.387 . S
C640 C643 1.387 . S
H641 C637 0.950 . S
H642 C639 0.950 . S
C643 C634 1.390 . S
C643 H636 0.950 . S
C643 C640 1.387 . S
C644 C645 1.387 . S
C644 H648 0.950 . S
C644 C653 1.390 . S
C645 C644 1.387 . S
C645 C647 1.387 . S
H646 C653 0.950 . S
C647 C645 1.387 . S
C647 C649 1.390 . S
C647 H651 0.950 . S
H648 C644 0.950 . S
C649 C647 1.390 . S
C649 C650 1.387 . S
C649 H652 0.950 . S
C650 C649 1.387 . S
C650 C653 1.387 . S
H651 C647 0.950 . S
H652 C649 0.950 . S
C653 C644 1.390 . S
C653 H646 0.950 . S
C653 C650 1.387 . S
C654 C655 1.387 . S
C654 H658 0.950 . S
C654 C663 1.390 . S
C655 C654 1.387 . S
C655 C657 1.387 . S
H656 C663 0.950 . S
C657 C655 1.387 . S
C657 C659 1.390 . S
C657 H661 0.950 . S
H658 C654 0.950 . S
C659 C657 1.390 . S
C659 C660 1.387 . S
C659 H662 0.950 . S
C660 C659 1.387 . S
C660 C663 1.387 . S
H661 C657 0.950 . S
H662 C659 0.950 . S
C663 C654 1.390 . S
C663 H656 0.950 . S
C663 C660 1.387 . S
C664 C665 1.387 . S
C664 H668 0.950 . S
C664 C673 1.390 . S
C665 C664 1.387 . S
C665 C667 1.387 . S
H666 C673 0.950 . S
C667 C665 1.387 . S
C667 C669 1.390 . S
C667 H671 0.950 . S
H668 C664 0.950 . S
C669 C667 1.390 . S
C669 C670 1.387 . S
C669 H672 0.950 . S
C670 C669 1.387 . S
C670 C673 1.387 . S
H671 C667 0.950 . S
H672 C669 0.950 . S
C673 C664 1.390 . S
C673 H666 0.950 . S
C673 C670 1.387 . S
C674 C675 1.387 . S
C674 H678 0.950 . S
C674 C683 1.390 . S
C675 C674 1.387 . S
C675 C677 1.387 . S
H676 C683 0.950 . S
C677 C675 1.387 . S
C677 C679 1.390 . S
C677 H681 0.950 . S
H678 C674 0.950 . S
C679 C677 1.390 . S
C679 C680 1.387 . S
C679 H682 0.950 . S
C680 C679 1.387 . S
C680 C683 1.387 . S
H681 C677 0.950 . S
H682 C679 0.950 . S
C683 C674 1.390 . S
C683 H676 0.950 . S
C683 C680 1.387 . S
C684 C685 1.387 . S
C684 H688 0.950 . S
C684 C693 1.390 . S
C685 C684 1.387 . S
C685 C687 1.387 . S
H686 C693 0.950 . S
C687 C685 1.387 . S
C687 C689 1.390 . S
C687 H691 0.950 . S
H688 C684 0.950 . S
C689 C687 1.390 . S
C689 C690 1.387 . S
C689 H692 0.950 . S
C690 C689 1.387 . S
C690 C693 1.387 . S
H691 C687 0.950 . S
H692 C689 0.950 . S
C693 C684 1.390 . S
C693 H686 0.950 . S
C693 C690 1.387 . S
C694 C695 1.387 . S
C694 H698 0.950 . S
C694 C703 1.390 . S
C695 C694 1.387 . S
C695 C697 1.387 . S
H696 C703 0.950 . S
C697 C695 1.387 . S
C697 C699 1.390 . S
C697 H701 0.950 . S
H698 C694 0.950 . S
C699 C697 1.390 . S
C699 C700 1.387 . S
C699 H702 0.950 . S
C700 C699 1.387 . S
C700 C703 1.387 . S
H701 C697 0.950 . S
H702 C699 0.950 . S
C703 C694 1.390 . S
C703 H696 0.950 . S
C703 C700 1.387 . S
C704 C705 1.387 . S
C704 H708 0.950 . S
C704 C713 1.390 . S
C705 C704 1.387 . S
C705 C707 1.387 . S
H706 C713 0.950 . S
C707 C705 1.387 . S
C707 C709 1.390 . S
C707 H711 0.950 . S
H708 C704 0.950 . S
C709 C707 1.390 . S
C709 C710 1.387 . S
C709 H712 0.950 . S
C710 C709 1.387 . S
C710 C713 1.387 . S
H711 C707 0.950 . S
H712 C709 0.950 . S
C713 C704 1.390 . S
C713 H706 0.950 . S
C713 C710 1.387 . S
C714 C715 1.387 . S
C714 H718 0.950 . S
C714 C723 1.390 . S
C715 C714 1.387 . S
C715 C717 1.387 . S
H716 C723 0.950 . S
C717 C715 1.387 . S
C717 C719 1.390 . S
C717 H721 0.950 . S
H718 C714 0.950 . S
C719 C717 1.390 . S
C719 C720 1.387 . S
C719 H722 0.950 . S
C720 C719 1.387 . S
C720 C723 1.387 . S
H721 C717 0.950 . S
H722 C719 0.950 . S
C723 C714 1.390 . S
C723 H716 0.950 . S
C723 C720 1.387 . S
C724 C725 1.387 . S
C724 H728 0.950 . S
C724 C733 1.390 . S
C725 C724 1.387 . S
C725 C727 1.387 . S
H726 C733 0.950 . S
C727 C725 1.387 . S
C727 C729 1.390 . S
C727 H731 0.950 . S
H728 C724 0.950 . S
C729 C727 1.390 . S
C729 C730 1.387 . S
C729 H732 0.950 . S
C730 C729 1.387 . S
C730 C733 1.387 . S
H731 C727 0.950 . S
H732 C729 0.950 . S
C733 C724 1.390 . S
C733 H726 0.950 . S
C733 C730 1.387 . S
C734 C735 1.387 . S
C734 H738 0.950 . S
C734 C743 1.390 . S
C735 C734 1.387 . S
C735 C737 1.387 . S
H736 C743 0.950 . S
C737 C735 1.387 . S
C737 C739 1.390 . S
C737 H741 0.950 . S
H738 C734 0.950 . S
C739 C737 1.390 . S
C739 C740 1.387 . S
C739 H742 0.950 . S
C740 C739 1.387 . S
C740 C743 1.387 . S
H741 C737 0.950 . S
H742 C739 0.950 . S
C743 C734 1.390 . S
C743 H736 0.950 . S
C743 C740 1.387 . S
C744 C745 1.387 . S
C744 H748 0.950 . S
C744 C753 1.390 . S
C745 C744 1.387 . S
C745 C747 1.387 . S
H746 C753 0.950 . S
C747 C745 1.387 . S
C747 C749 1.390 . S
C747 H751 0.950 . S
H748 C744 0.950 . S
C749 C747 1.390 . S
C749 C750 1.387 . S
C749 H752 0.950 . S
C750 C749 1.387 . S
C750 C753 1.387 . S
H751 C747 0.950 . S
H752 C749 0.950 . S
C753 C744 1.390 . S
C753 H746 0.950 . S
C753 C750 1.387 . S
C754 C755 1.387 . S
C754 H758 0.950 . S
C754 C763 1.390 . S
C755 C754 1.387 . S
C755 C757 1.387 . S
H756 C763 0.950 . S
C757 C755 1.387 . S
C757 C759 1.390 . S
C757 H761 0.950 . S
H758 C754 0.950 . S
C759 C757 1.390 . S
C759 C760 1.387 . S
C759 H762 0.950 . S
C760 C759 1.387 . S
C760 C763 1.387 . S
H761 C757 0.950 . S
H762 C759 0.950 . S
C763 C754 1.390 . S
C763 H756 0.950 . S
C763 C760 1.387 . S
C764 C765 1.387 . S
C764 H768 0.950 . S
C764 C773 1.390 . S
C765 C764 1.387 . S
C765 C767 1.387 . S
H766 C773 0.950 . S
C767 C765 1.387 . S
C767 C769 1.390 . S
C767 H771 0.950 . S
H768 C764 0.950 . S
C769 C767 1.390 . S
C769 C770 1.387 . S
C769 H772 0.950 . S
C770 C769 1.387 . S
C770 C773 1.387 . S
H771 C767 0.950 . S
H772 C769 0.950 . S
C773 C764 1.390 . S
C773 H766 0.950 . S
C773 C770 1.387 . S
C774 C775 1.387 . S
C774 H778 0.950 . S
C774 C783 1.390 . S
C775 C774 1.387 . S
C775 C777 1.387 . S
H776 C783 0.950 . S
C777 C775 1.387 . S
C777 C779 1.390 . S
C777 H781 0.950 . S
H778 C774 0.950 . S
C779 C777 1.390 . S
C779 C780 1.387 . S
C779 H782 0.950 . S
C780 C779 1.387 . S
C780 C783 1.387 . S
H781 C777 0.950 . S
H782 C779 0.950 . S
C783 C774 1.390 . S
C783 H776 0.950 . S
C783 C780 1.387 . S
C784 C785 1.387 . S
C784 H788 0.950 . S
C784 C793 1.390 . S
C785 C784 1.387 . S
C785 C787 1.387 . S
H786 C793 0.950 . S
C787 C785 1.387 . S
C787 C789 1.390 . S
C787 H791 0.950 . S
H788 C784 0.950 . S
C789 C787 1.390 . S
C789 C790 1.387 . S
C789 H792 0.950 . S
C790 C789 1.387 . S
C790 C793 1.387 . S
H791 C787 0.950 . S
H792 C789 0.950 . S
C793 C784 1.390 . S
C793 H786 0.950 . S
C793 C790 1.387 . S
C794 C795 1.387 . S
C794 H798 0.950 . S
C794 C803 1.390 . S
C795 C794 1.387 . S
C795 C797 1.387 . S
H796 C803 0.950 . S
C797 C795 1.387 . S
C797 C799 1.390 . S
C797 H801 0.950 . S
H798 C794 0.950 . S
C799 C797 1.390 . S
C799 C800 1.387 . S
C799 H802 0.950 . S
C800 C799 1.387 . S
C800 C803 1.387 . S
H801 C797 0.950 . S
H802 C799 0.950 . S
C803 C794 1.390 . S
C803 H796 0.950 . S
C803 C800 1.387 . S
C804 C805 1.387 . S
C804 H808 0.950 . S
C804 C813 1.390 . S
C805 C804 1.387 . S
C805 C807 1.387 . S
H806 C813 0.950 . S
C807 C805 1.387 . S
C807 C809 1.390 . S
C807 H811 0.950 . S
H808 C804 0.950 . S
C809 C807 1.390 . S
C809 C810 1.387 . S
C809 H812 0.950 . S
C810 C809 1.387 . S
C810 C813 1.387 . S
H811 C807 0.950 . S
H812 C809 0.950 . S
C813 C804 1.390 . S
C813 H806 0.950 . S
C813 C810 1.387 . S
C814 C815 1.387 . S
C814 H818 0.950 . S
C814 C823 1.390 . S
C815 C814 1.387 . S
C815 C817 1.387 . S
H816 C823 0.950 . S
C817 C815 1.387 . S
C817 C819 1.390 . S
C817 H821 0.950 . S
H818 C814 0.950 . S
C819 C817 1.390 . S
C819 C820 1.387 . S
C819 H822 0.950 . S
C820 C819 1.387 . S
C820 C823 1.387 . S
H821 C817 0.950 . S
H822 C819 0.950 . S
C823 C814 1.390 . S
C823 H816 0.950 . S
C823 C820 1.387 . S
C824 C825 1.387 . S
C824 H828 0.950 . S
C824 C833 1.390 . S
C825 C824 1.387 . S
C825 C827 1.387 . S
H826 C833 0.950 . S
C827 C825 1.387 . S
C827 C829 1.390 . S
C827 H831 0.950 . S
H828 C824 0.950 . S
C829 C827 1.390 . S
C829 C830 1.387 . S
C829 H832 0.950 . S
C830 C829 1.387 . S
C830 C833 1.387 . S
H831 C827 0.950 . S
H832 C829 0.950 . S
C833 C824 1.390 . S
C833 H826 0.950 . S
C833 C830 1.387 . S
C834 C835 1.387 . S
C834 H838 0.950 . S
C834 C843 1.390 . S
C835 C834 1.387 . S
C835 C837 1.387 . S
H836 C843 0.950 . S
C837 C835 1.387 . S
C837 C839 1.390 . S
C837 H841 0.950 . S
H838 C834 0.950 . S
C839 C837 1.390 . S
C839 C840 1.387 . S
C839 H842 0.950 . S
C840 C839 1.387 . S
C840 C843 1.387 . S
H841 C837 0.950 . S
H842 C839 0.950 . S
C843 C834 1.390 . S
C843 H836 0.950 . S
C843 C840 1.387 . S
C844 C845 1.387 . S
C844 H848 0.950 . S
C844 C853 1.390 . S
C845 C844 1.387 . S
C845 C847 1.387 . S
H846 C853 0.950 . S
C847 C845 1.387 . S
C847 C849 1.390 . S
C847 H851 0.950 . S
H848 C844 0.950 . S
C849 C847 1.390 . S
C849 C850 1.387 . S
C849 H852 0.950 . S
C850 C849 1.387 . S
C850 C853 1.387 . S
H851 C847 0.950 . S
H852 C849 0.950 . S
C853 C844 1.390 . S
C853 H846 0.950 . S
C853 C850 1.387 . S
C854 C855 1.387 . S
C854 H858 0.950 . S
C854 C863 1.390 . S
C855 C854 1.387 . S
C855 C857 1.387 . S
H856 C863 0.950 . S
C857 C855 1.387 . S
C857 C859 1.390 . S
C857 H861 0.950 . S
H858 C854 0.950 . S
C859 C857 1.390 . S
C859 C860 1.387 . S
C859 H862 0.950 . S
C860 C859 1.387 . S
C860 C863 1.387 . S
H861 C857 0.950 . S
H862 C859 0.950 . S
C863 C854 1.390 . S
C863 H856 0.950 . S
C863 C860 1.387 . S
C864 C865 1.387 . S
C864 H868 0.950 1_545 S
C864 C873 1.390 1_556 S
C865 C864 1.387 . S
C865 C867 1.387 . S
H866 C873 0.950 1_565 S
C867 C865 1.387 . S
C867 C869 1.390 1_556 S
C867 H871 0.950 . S
H868 C864 0.950 1_565 S
C869 C867 1.390 1_554 S
C869 C870 1.387 . S
C869 H872 0.950 . S
C870 C869 1.387 . S
C870 C873 1.387 . S
H871 C867 0.950 . S
H872 C869 0.950 . S
C873 C864 1.390 1_554 S
C873 H866 0.950 1_545 S
C873 C870 1.387 . S
C874 C875 1.387 . S
C874 H878 0.950 . S
C874 C883 1.390 . S
C875 C874 1.387 . S
C875 C877 1.387 . S
H876 C883 0.950 . S
C877 C875 1.387 . S
C877 C879 1.390 . S
C877 H881 0.950 . S
H878 C874 0.950 . S
C879 C877 1.390 . S
C879 C880 1.387 . S
C879 H882 0.950 . S
C880 C879 1.387 . S
C880 C883 1.387 . S
H881 C877 0.950 . S
H882 C879 0.950 . S
C883 C874 1.390 . S
C883 H876 0.950 . S
C883 C880 1.387 . S
C884 C885 1.387 . S
C884 H888 0.950 . S
C884 C893 1.390 1_554 S
C885 C884 1.387 . S
C885 C887 1.387 . S
H886 C893 0.950 . S
C887 C885 1.387 . S
C887 C889 1.390 1_554 S
C887 H891 0.950 . S
H888 C884 0.950 . S
C889 C887 1.390 1_556 S
C889 C890 1.387 . S
C889 H892 0.950 . S
C890 C889 1.387 . S
C890 C893 1.387 . S
H891 C887 0.950 . S
H892 C889 0.950 . S
C893 C884 1.390 1_556 S
C893 H886 0.950 . S
C893 C890 1.387 . S
C894 C895 1.387 . S
C894 H898 0.950 1_455 S
C894 C903 1.390 . S
C895 C894 1.387 . S
C895 C897 1.387 . S
H896 C903 0.950 1_655 S
C897 C895 1.387 . S
C897 C899 1.390 . S
C897 H901 0.950 . S
H898 C894 0.950 1_655 S
C899 C897 1.390 . S
C899 C900 1.387 . S
C899 H902 0.950 . S
C900 C899 1.387 . S
C900 C903 1.387 . S
H901 C897 0.950 . S
H902 C899 0.950 . S
C903 C894 1.390 . S
C903 H896 0.950 1_455 S
C903 C900 1.387 . S
C904 C905 1.387 . S
C904 H908 0.950 . S
C904 C913 1.390 1_554 S
C905 C904 1.387 . S
C905 C907 1.387 . S
H906 C913 0.950 . S
C907 C905 1.387 . S
C907 C909 1.390 1_554 S
C907 H911 0.950 1_565 S
H908 C904 0.950 . S
C909 C907 1.390 1_556 S
C909 C910 1.387 . S
C909 H912 0.950 1_565 S
C910 C909 1.387 . S
C910 C913 1.387 . S
H911 C907 0.950 1_545 S
H912 C909 0.950 1_545 S
C913 C904 1.390 1_556 S
C913 H906 0.950 . S
C913 C910 1.387 . S
C914 C915 1.387 . S
C914 H918 0.950 . S
C914 C923 1.390 . S
C915 C914 1.387 . S
C915 C917 1.387 . S
H916 C923 0.950 . S
C917 C915 1.387 . S
C917 C919 1.390 . S
C917 H921 0.950 . S
H918 C914 0.950 . S
C919 C917 1.390 . S
C919 C920 1.387 . S
C919 H922 0.950 . S
C920 C919 1.387 . S
C920 C923 1.387 . S
H921 C917 0.950 . S
H922 C919 0.950 . S
C923 C914 1.390 . S
C923 H916 0.950 . S
C923 C920 1.387 . S
C924 C925 1.387 . S
C924 H928 0.950 . S
C924 C933 1.390 1_554 S
C925 C924 1.387 . S
C925 C927 1.387 . S
H926 C933 0.950 . S
C927 C925 1.387 . S
C927 C929 1.390 1_554 S
C927 H931 0.950 . S
H928 C924 0.950 . S
C929 C927 1.390 1_556 S
C929 C930 1.387 . S
C929 H932 0.950 . S
C930 C929 1.387 . S
C930 C933 1.387 . S
H931 C927 0.950 . S
H932 C929 0.950 . S
C933 C924 1.390 1_556 S
C933 H926 0.950 . S
C933 C930 1.387 . S
C934 C935 1.387 . S
C934 H938 0.950 . S
C934 C943 1.390 . S
C935 C934 1.387 . S
C935 C937 1.387 . S
H936 C943 0.950 . S
C937 C935 1.387 . S
C937 C939 1.390 . S
C937 H941 0.950 1_655 S
H938 C934 0.950 . S
C939 C937 1.390 . S
C939 C940 1.387 . S
C939 H942 0.950 1_655 S
C940 C939 1.387 . S
C940 C943 1.387 . S
H941 C937 0.950 1_455 S
H942 C939 0.950 1_455 S
C943 C934 1.390 . S
C943 H936 0.950 . S
C943 C940 1.387 . S
C545 C9 1.885 . S
C550 C247 1.886 . S
C555 C145 1.887 . S
C560 C43 1.886 . S
C565 C179 1.888 . S
C570 C77 1.887 . S
C575 C111 1.886 . S
C580 C213 1.885 . S
C585 C281 1.885 . S
C590 C519 1.886 . S
C595 C315 1.886 . S
C600 C417 1.885 . S
C605 C451 1.885 . S
C610 C349 1.885 . S
C615 C383 1.887 . S
C620 C485 1.886 . S
C625 C2 1.581 . S
C630 C339 1.485 . S
C635 C373 1.488 . S
C640 C36 1.580 . S
C645 C407 1.488 . S
C650 C70 1.580 . S
C655 C305 1.485 . S
C660 C104 1.581 . S
C665 C543 1.489 . S
C670 C138 1.580 . S
C675 C441 1.488 . S
C680 C172 1.580 . S
C685 C475 1.489 . S
C690 C206 1.581 . S
C695 C509 1.485 . S
C700 C240 1.581 . S
C705 C67 1.488 . S
C710 C274 1.580 . S
C715 C101 1.488 . S
C720 C308 1.582 . S
C725 C135 1.484 . S
C730 C342 1.580 . S
C735 C376 1.580 . S
C740 C33 1.484 . S
C745 C271 1.489 . S
C750 C410 1.580 . S
C755 C169 1.485 . S
C760 C444 1.581 . S
C765 C203 1.489 . S
C770 C478 1.580 . S
C775 C237 1.485 . S
C780 C512 1.581 . S
C785 C73 0.887 . S
C790 C5 0.887 . S
C795 C39 0.887 . S
C800 C107 0.887 . S
C805 C209 0.893 . S
C810 C141 0.893 . S
C815 C243 0.887 . S
C820 C175 0.887 . S
C825 C345 0.893 . S
C830 C277 0.893 . S
C835 C379 0.893 . S
C840 C311 0.893 . S
C845 C413 0.893 . S
C850 C481 0.893 . S
C855 C515 0.887 . S
C860 C447 0.887 . S
C865 C224 1.523 . S
C870 C20 1.523 . S
C875 C258 1.523 . S
C880 C54 1.523 . S
C885 C88 1.523 . S
C890 C156 1.523 . S
C895 C190 1.523 . S
C900 C122 1.523 . S
C905 C496 1.523 . S
C910 C292 1.523 . S
C915 C530 1.523 . S
C920 C326 1.523 . S
C925 C428 1.523 . S
C930 C360 1.523 . S
C935 C394 1.523 . S
C940 C462 1.523 . S
