# Generated by pormake.
# Topology whw, (6)-cn, num edge types: 1
# Building blocks:
#     Node 0, Type 0, BuildingBlock: INOVEN_clean_sbu_0, # of connection points: 6
#     Node 1, Type 0, BuildingBlock: INOVEN_clean_sbu_0, # of connection points: 6
#     Node 2, Type 0, BuildingBlock: INOVEN_clean_sbu_0, # of connection points: 6
#     Node 3, Type 0, BuildingBlock: INOVEN_clean_sbu_0, # of connection points: 6
#     Node 4, Type 0, BuildingBlock: INOVEN_clean_sbu_0, # of connection points: 6
#     Node 5, Type 0, BuildingBlock: INOVEN_clean_sbu_0, # of connection points: 6
#     Node 6, Type 0, BuildingBlock: INOVEN_clean_sbu_0, # of connection points: 6
#     Node 7, Type 0, BuildingBlock: INOVEN_clean_sbu_0, # of connection points: 6
#     Node 8, Type 0, BuildingBlock: INOVEN_clean_sbu_0, # of connection points: 6
#     Node 9, Type 0, BuildingBlock: INOVEN_clean_sbu_0, # of connection points: 6
#     Node 10, Type 0, BuildingBlock: INOVEN_clean_sbu_0, # of connection points: 6
#     Node 11, Type 0, BuildingBlock: INOVEN_clean_sbu_0, # of connection points: 6
#     Node 12, Type 0, BuildingBlock: INOVEN_clean_sbu_0, # of connection points: 6
#     Node 13, Type 0, BuildingBlock: INOVEN_clean_sbu_0, # of connection points: 6
#     Node 14, Type 0, BuildingBlock: INOVEN_clean_sbu_0, # of connection points: 6
#     Node 15, Type 0, BuildingBlock: INOVEN_clean_sbu_0, # of connection points: 6
#     Edge 16, Type (0, 0), BuildingBlock: XIVTED_clean_linker_0, # of connection points: 2
#     Edge 17, Type (0, 0), BuildingBlock: XIVTED_clean_linker_0, # of connection points: 2
#     Edge 18, Type (0, 0), BuildingBlock: XIVTED_clean_linker_0, # of connection points: 2
#     Edge 19, Type (0, 0), BuildingBlock: XIVTED_clean_linker_0, # of connection points: 2
#     Edge 20, Type (0, 0), BuildingBlock: XIVTED_clean_linker_0, # of connection points: 2
#     Edge 21, Type (0, 0), BuildingBlock: XIVTED_clean_linker_0, # of connection points: 2
#     Edge 22, Type (0, 0), BuildingBlock: XIVTED_clean_linker_0, # of connection points: 2
#     Edge 23, Type (0, 0), BuildingBlock: XIVTED_clean_linker_0, # of connection points: 2
#     Edge 24, Type (0, 0), BuildingBlock: XIVTED_clean_linker_0, # of connection points: 2
#     Edge 25, Type (0, 0), BuildingBlock: XIVTED_clean_linker_0, # of connection points: 2
#     Edge 26, Type (0, 0), BuildingBlock: XIVTED_clean_linker_0, # of connection points: 2
#     Edge 27, Type (0, 0), BuildingBlock: XIVTED_clean_linker_0, # of connection points: 2
#     Edge 28, Type (0, 0), BuildingBlock: XIVTED_clean_linker_0, # of connection points: 2
#     Edge 29, Type (0, 0), BuildingBlock: XIVTED_clean_linker_0, # of connection points: 2
#     Edge 30, Type (0, 0), BuildingBlock: XIVTED_clean_linker_0, # of connection points: 2
#     Edge 31, Type (0, 0), BuildingBlock: XIVTED_clean_linker_0, # of connection points: 2
#     Edge 32, Type (0, 0), BuildingBlock: XIVTED_clean_linker_0, # of connection points: 2
#     Edge 33, Type (0, 0), BuildingBlock: XIVTED_clean_linker_0, # of connection points: 2
#     Edge 34, Type (0, 0), BuildingBlock: XIVTED_clean_linker_0, # of connection points: 2
#     Edge 35, Type (0, 0), BuildingBlock: XIVTED_clean_linker_0, # of connection points: 2
#     Edge 36, Type (0, 0), BuildingBlock: XIVTED_clean_linker_0, # of connection points: 2
#     Edge 37, Type (0, 0), BuildingBlock: XIVTED_clean_linker_0, # of connection points: 2
#     Edge 38, Type (0, 0), BuildingBlock: XIVTED_clean_linker_0, # of connection points: 2
#     Edge 39, Type (0, 0), BuildingBlock: XIVTED_clean_linker_0, # of connection points: 2
#     Edge 40, Type (0, 0), BuildingBlock: XIVTED_clean_linker_0, # of connection points: 2
#     Edge 41, Type (0, 0), BuildingBlock: XIVTED_clean_linker_0, # of connection points: 2
#     Edge 42, Type (0, 0), BuildingBlock: XIVTED_clean_linker_0, # of connection points: 2
#     Edge 43, Type (0, 0), BuildingBlock: XIVTED_clean_linker_0, # of connection points: 2
#     Edge 44, Type (0, 0), BuildingBlock: XIVTED_clean_linker_0, # of connection points: 2
#     Edge 45, Type (0, 0), BuildingBlock: XIVTED_clean_linker_0, # of connection points: 2
#     Edge 46, Type (0, 0), BuildingBlock: XIVTED_clean_linker_0, # of connection points: 2
#     Edge 47, Type (0, 0), BuildingBlock: XIVTED_clean_linker_0, # of connection points: 2
#     Edge 48, Type (0, 0), BuildingBlock: XIVTED_clean_linker_0, # of connection points: 2
#     Edge 49, Type (0, 0), BuildingBlock: XIVTED_clean_linker_0, # of connection points: 2
#     Edge 50, Type (0, 0), BuildingBlock: XIVTED_clean_linker_0, # of connection points: 2
#     Edge 51, Type (0, 0), BuildingBlock: XIVTED_clean_linker_0, # of connection points: 2
#     Edge 52, Type (0, 0), BuildingBlock: XIVTED_clean_linker_0, # of connection points: 2
#     Edge 53, Type (0, 0), BuildingBlock: XIVTED_clean_linker_0, # of connection points: 2
#     Edge 54, Type (0, 0), BuildingBlock: XIVTED_clean_linker_0, # of connection points: 2
#     Edge 55, Type (0, 0), BuildingBlock: XIVTED_clean_linker_0, # of connection points: 2
#     Edge 56, Type (0, 0), BuildingBlock: XIVTED_clean_linker_0, # of connection points: 2
#     Edge 57, Type (0, 0), BuildingBlock: XIVTED_clean_linker_0, # of connection points: 2
#     Edge 58, Type (0, 0), BuildingBlock: XIVTED_clean_linker_0, # of connection points: 2
#     Edge 59, Type (0, 0), BuildingBlock: XIVTED_clean_linker_0, # of connection points: 2
#     Edge 60, Type (0, 0), BuildingBlock: XIVTED_clean_linker_0, # of connection points: 2
#     Edge 61, Type (0, 0), BuildingBlock: XIVTED_clean_linker_0, # of connection points: 2
#     Edge 62, Type (0, 0), BuildingBlock: XIVTED_clean_linker_0, # of connection points: 2
#     Edge 63, Type (0, 0), BuildingBlock: XIVTED_clean_linker_0, # of connection points: 2
# Relax obj value: 0.409
# Max RMSD: 0.232
# Mean RMSD: 0.210
data_MOF--net-whw--node1-INOVEN_clean_sbu_0--edge1-XIVTED_clean_linker_0
_symmetry_space_group_name_H-M    P1
_symmetry_Int_Tables_number       1
_symmetry_cell_setting            triclinic
loop_
_symmetry_equiv_pos_as_xyz
'x, y, z'
_cell_length_a     47.157535
_cell_length_b     46.219319
_cell_length_c     33.716818
_cell_angle_alpha  90.067772
_cell_angle_beta   77.184807
_cell_angle_gamma 101.38453
loop_
_atom_site_label
_atom_site_type_symbol
_atom_site_fract_x
_atom_site_fract_y
_atom_site_fract_z
_atom_type_partial_charge
Gd0 Gd 0.031 0.11114 0.20533 0.0
Gd1 Gd 0.00622 0.12723 0.12766 0.0
C2 C 0.95895 0.10512 0.21082 0.0
C3 C 0.04409 0.11941 0.27614 0.0
C4 C 0.05056 0.12638 0.31733 0.0
C5 C 0.06876 0.11163 0.33441 0.0
C6 C 0.03966 0.14944 0.33918 0.0
C7 C 0.06552 0.14339 0.39348 0.0
C8 C 0.04693 0.15773 0.37644 0.0
C9 C 0.07607 0.11994 0.37187 0.0
C10 C 0.01988 0.06634 0.15594 0.0
C11 C 0.0754 0.12394 0.12052 0.0
C12 C -0.00695 0.14046 0.05977 0.0
C13 C -0.01402 0.14993 1.02084 0.0
C14 C -0.00696 0.17996 1.00762 0.0
C15 C 0.97043 0.12974 0.99793 0.0
C16 C 0.96875 0.16948 0.95021 0.0
C17 C 0.96208 0.13931 0.96316 0.0
C18 C -0.01548 0.18953 0.97315 0.0
C19 C 0.01617 0.16861 0.18202 0.0
O20 O -0.01874 0.1041 0.22863 0.0
O21 O 0.96241 0.11157 0.1715 0.0
O22 O 0.05447 0.09983 0.25171 0.0
O23 O 0.02595 0.13269 0.26242 0.0
O24 O 0.03819 0.06701 0.18008 0.0
O25 O 0.00579 0.08702 0.16343 0.0
O26 O 0.05229 0.11826 0.1032 0.0
O27 O 0.07287 0.12907 0.15957 0.0
O28 O 0.01121 0.15838 0.07741 0.0
O29 O -0.01697 0.11415 0.07815 0.0
O30 O -0.00585 0.16559 0.16425 0.0
O31 O 0.03215 0.15049 0.16907 0.0
H32 H 0.07779 0.09394 0.31849 0.0
H33 H 0.02564 0.1615 0.32726 0.0
H34 H 0.03772 0.17543 0.392 0.0
H35 H 0.09065 0.10838 0.38335 0.0
H36 H 0.0048 0.19635 1.0244 0.0
H37 H 0.96429 0.1065 1.00721 0.0
H38 H 0.94967 0.12301 0.94705 0.0
H39 H -0.00958 0.21282 0.96447 0.0
Gd40 Gd 0.11638 0.75245 0.48069 0.0
Gd41 Gd 0.12062 0.69042 0.45292 0.0
C42 C 0.11585 0.70023 0.54932 0.0
C43 C 0.11924 0.80035 0.51978 0.0
C44 C 0.119 0.80603 0.56275 0.0
C45 C 0.13295 0.78948 0.58464 0.0
C46 C 0.1052 0.82808 0.58213 0.0
C47 C 0.11832 0.81607 0.6452 0.0
C48 C 0.10492 0.83315 0.62311 0.0
C49 C 0.13252 0.79438 0.62546 0.0
C50 C 0.16334 0.74938 0.41919 0.0
C51 C 0.09602 0.73588 0.39881 0.0
C52 C 0.14402 0.6464 0.42438 0.0
C53 C 0.16103 0.63995 0.38423 0.0
C54 C 0.14762 0.61837 0.36118 0.0
C55 C 0.18925 0.65701 0.36684 0.0
C56 C 0.18749 0.6351 0.30176 0.0
C57 C 0.20225 0.65483 0.3258 0.0
C58 C 0.16073 0.61594 0.3203 0.0
C59 C 0.06417 0.69498 0.48374 0.0
O60 O 0.11508 0.72803 0.5405 0.0
O61 O 0.11862 0.68105 0.52011 0.0
O62 O 0.14264 0.79089 0.5001 0.0
O63 O 0.09432 0.78617 0.51154 0.0
O64 O 0.14756 0.76939 0.42137 0.0
O65 O 0.15386 0.73172 0.45021 0.0
O66 O 0.11108 0.71389 0.39752 0.0
O67 O 0.09131 0.75172 0.4316 0.0
O68 O 0.11631 0.64763 0.42617 0.0
O69 O 0.15718 0.66738 0.44414 0.0
O70 O 0.07183 0.67458 0.45945 0.0
O71 O 0.08693 0.70889 0.49465 0.0
H72 H 0.14425 0.77265 0.5703 0.0
H73 H 0.09445 0.84114 0.56572 0.0
H74 H 0.09346 0.84977 0.63784 0.0
H75 H 0.14319 0.78109 0.64166 0.0
H76 H 0.1261 0.6046 0.37408 0.0
H77 H 0.20066 0.67301 0.3843 0.0
H78 H 0.22312 0.66954 0.31241 0.0
H79 H 0.14871 0.60061 0.30253 0.0
Gd80 Gd 0.45545 0.84863 0.6698 0.0
Gd81 Gd 0.51873 0.86222 0.67642 0.0
C82 C 0.50613 0.82691 0.5992 0.0
C83 C 0.40443 0.84956 0.65435 0.0
C84 C 0.39019 0.85798 0.62314 0.0
C85 C 0.35917 0.85322 0.63152 0.0
C86 C 0.40701 0.87166 0.58602 0.0
C87 C 0.36149 0.87488 0.56506 0.0
C88 C 0.39273 0.88004 0.5571 0.0
C89 C 0.34487 0.8616 0.6027 0.0
C90 C 0.46962 0.80676 0.71263 0.0
C91 C 0.46615 0.86148 0.75921 0.0
C92 C 0.56951 0.87514 0.69566 0.0
C93 C 0.57728 0.8733 0.73501 0.0
C94 C 0.60132 0.89334 0.7437 0.0
C95 C 0.55807 0.85415 0.76596 0.0
C96 C 0.58548 0.87631 0.81482 0.0
C97 C 0.56226 0.85541 0.8054 0.0
C98 C 0.60548 0.89481 0.78349 0.0
C99 C 0.50498 0.90025 0.62637 0.0
O100 O 0.48009 0.83548 0.6076 0.0
O101 O 0.52397 0.83143 0.62489 0.0
O102 O 0.41727 0.82677 0.64763 0.0
O103 O 0.41977 0.87145 0.67016 0.0
O104 O 0.44298 0.81184 0.71878 0.0
O105 O 0.48582 0.82133 0.68164 0.0
O106 O 0.49434 0.86077 0.74342 0.0
O107 O 0.44746 0.86177 0.73531 0.0
O108 O 0.55317 0.89463 0.69344 0.0
O109 O 0.56001 0.8499 0.68052 0.0
O110 O 0.52879 0.88957 0.61878 0.0
O111 O 0.48897 0.89062 0.66102 0.0
H112 H 0.34598 0.84298 0.66039 0.0
H113 H 0.43105 0.87564 0.57938 0.0
H114 H 0.40613 0.88976 0.52808 0.0
H115 H 0.32084 0.85755 0.60977 0.0
H116 H 0.61607 0.90861 0.72016 0.0
H117 H 0.53906 0.83903 0.76011 0.0
H118 H 0.54685 0.84045 0.82871 0.0
H119 H 0.62351 0.91118 0.79002 0.0
Gd120 Gd 0.3964 0.22683 0.86408 0.0
Gd121 Gd 0.40054 0.29087 0.83615 0.0
C122 C 0.39738 0.27774 0.93312 0.0
C123 C 0.3979 0.17684 0.89579 0.0
C124 C 0.40441 0.1676 0.93354 0.0
C125 C 0.39053 0.13958 0.95117 0.0
C126 C 0.42109 0.18788 0.95474 0.0
C127 C 0.40711 0.15321 1.01307 0.0
C128 C 0.42259 0.18066 0.99421 0.0
C129 C 0.39186 0.13238 0.99073 0.0
C130 C 0.35057 0.23648 0.83312 0.0
C131 C 0.42063 0.24419 0.76996 0.0
C132 C 0.38466 0.3397 0.82252 0.0
C133 C 0.36828 0.35001 0.79479 0.0
C134 C 0.38053 0.37655 0.77197 0.0
C135 C 0.34176 0.33269 0.78849 0.0
C136 C 0.34228 0.36627 0.7328 0.0
C137 C 0.32874 0.34082 0.75797 0.0
C138 C 0.36773 0.38461 0.74122 0.0
C139 C 0.4526 0.27725 0.83993 0.0
O140 O 0.3944 0.24917 0.92528 0.0
O141 O 0.40048 0.29795 0.90347 0.0
O142 O 0.37361 0.18751 0.90087 0.0
O143 O 0.42039 0.19222 0.86902 0.0
O144 O 0.36209 0.21331 0.82667 0.0
O145 O 0.36324 0.25302 0.85641 0.0
O146 O 0.40595 0.26631 0.77648 0.0
O147 O 0.42433 0.22876 0.80072 0.0
O148 O 0.41061 0.33406 0.80533 0.0
O149 O 0.36935 0.31995 0.85099 0.0
O150 O 0.4512 0.29921 0.81687 0.0
O151 O 0.42768 0.26796 0.86272 0.0
H152 H 0.37734 0.12386 0.93518 0.0
H153 H 0.43176 0.20975 0.94154 0.0
H154 H 0.4349 0.19695 1.0105 0.0
H155 H 0.37945 0.11119 1.00457 0.0
H156 H 0.40092 0.39029 0.77647 0.0
H157 H 0.33177 0.31223 0.80589 0.0
H158 H 0.30897 0.32638 0.75274 0.0
H159 H 0.37917 0.40413 0.7222 0.0
Gd160 Gd -0.01767 0.8637 0.99461 0.0
Gd161 Gd 0.96417 0.87321 0.90952 0.0
C162 C 0.92911 0.89633 0.99236 0.0
C163 C 0.00834 0.85143 1.05153 0.0
C164 C 0.01052 0.83639 0.09019 0.0
C165 C 0.02397 0.81157 0.08754 0.0
C166 C 0.0031 0.84805 0.12885 0.0
C167 C 0.02382 0.81114 0.16059 0.0
C168 C 0.00933 0.83547 0.16346 0.0
C169 C 0.03054 0.79929 0.1218 0.0
C170 C 0.93422 0.82593 0.97928 0.0
C171 C 0.02058 0.84564 0.91188 0.0
C172 C 0.95086 0.86529 0.83888 0.0
C173 C 0.94272 0.86036 0.79819 0.0
C174 C 0.96151 0.87438 0.76201 0.0
C175 C 0.91751 0.83925 0.79454 0.0
C176 C 0.93053 0.84571 0.71973 0.0
C177 C 0.91159 0.832 0.75609 0.0
C178 C 0.95543 0.86734 0.72353 0.0
C179 C -0.00422 0.92138 0.93804 0.0
O180 O 0.95209 0.896 1.00925 0.0
O181 O 0.92628 0.88394 0.95732 0.0
O182 O 0.00477 0.83485 1.02078 0.0
O183 O -0.00276 0.87548 1.05126 0.0
O184 O 0.93738 0.83341 1.0153 0.0
O185 O 0.95797 0.83663 0.95412 0.0
O186 O -0.00278 0.84375 0.89604 0.0
O187 O 0.02231 0.85902 0.94601 0.0
O188 O 0.97697 0.8796 0.84298 0.0
O189 O 0.9315 0.85728 0.87355 0.0
O190 O 0.97748 0.92279 0.91467 0.0
O191 O -0.00157 0.89496 0.94132 0.0
H192 H 0.03061 0.80216 0.05832 0.0
H193 H -0.00702 0.86726 0.13232 0.0
H194 H 0.00291 0.8452 0.19242 0.0
H195 H 0.04207 0.78111 0.11706 0.0
H196 H -0.01867 0.89047 0.76332 0.0
H197 H 0.90264 0.82768 0.82147 0.0
H198 H 0.892 0.81553 0.75495 0.0
H199 H 0.97084 0.8783 0.69661 0.0
Gd200 Gd 0.38886 0.79157 0.14656 0.0
Gd201 Gd 0.37667 0.72932 0.1215 0.0
C202 C 0.40143 0.73948 0.20311 0.0
C203 C 0.38412 0.84105 0.18027 0.0
C204 C 0.36929 0.85186 0.21867 0.0
C205 C 0.38539 0.87434 0.23741 0.0
C206 C 0.33941 0.8401 0.23689 0.0
C207 C 0.34261 0.87181 0.29395 0.0
C208 C 0.32613 0.8501 0.27413 0.0
C209 C 0.37224 0.88418 0.27476 0.0
C210 C 0.4371 0.77542 0.09845 0.0
C211 C 0.38709 0.78376 0.05296 0.0
C212 C 0.36719 0.67905 0.08825 0.0
C213 C 0.367 0.66874 1.04717 0.0
C214 C 0.34844 0.64192 1.04245 0.0
C215 C 0.3836 0.68617 1.01265 0.0
C216 C 0.36368 0.64943 0.9688 0.0
C217 C 0.38201 0.67656 0.97376 0.0
C218 C 0.34678 0.6323 1.0036 0.0
C219 C 0.33372 0.7425 0.18178 0.0
O220 O 0.39525 0.76639 0.20181 0.0
O221 O 0.39909 0.72158 0.17253 0.0
O222 O 0.40584 0.82755 0.18179 0.0
O223 O 0.36683 0.82838 0.15707 0.0
O224 O 0.43256 0.80227 0.09971 0.0
O225 O 0.4171 0.75994 0.1252 0.0
O226 O 0.38421 0.75508 0.06066 0.0
O227 O 0.38617 0.80236 0.08266 0.0
O228 O 0.34618 0.69331 0.10335 0.0
O229 O 0.39301 0.69121 0.09552 0.0
O230 O 0.34309 0.71803 0.1797 0.0
O231 O 0.34673 0.7593 0.15046 0.0
H232 H 0.40842 0.88377 0.22365 0.0
H233 H 0.32645 0.82288 0.22274 0.0
H234 H 0.30321 0.84029 0.28788 0.0
H235 H 0.38584 0.90047 0.28944 0.0
H236 H 0.3351 0.62846 0.06887 0.0
H237 H 0.39783 0.70712 1.01572 0.0
H238 H 0.39569 0.69006 0.94762 0.0
H239 H 0.33226 0.61147 1.00082 0.0
Gd240 Gd 0.47845 0.11618 0.42548 0.0
Gd241 Gd 0.54253 0.13988 0.42521 0.0
C242 C 0.52903 0.12649 0.33836 0.0
C243 C 0.42673 0.09811 0.41035 0.0
C244 C 0.41479 0.10538 0.37608 0.0
C245 C 0.3883 0.08859 0.36917 0.0
C246 C 0.43116 0.12846 0.34848 0.0
C247 C 0.39536 0.11764 0.30644 0.0
C248 C 0.4214 0.13481 0.31425 0.0
C249 C 0.37871 0.09455 0.33419 0.0
C250 C 0.5013 0.08184 0.46917 0.0
C251 C 0.49107 0.15126 0.50345 0.0
C252 C 0.5959 0.14816 0.43654 0.0
C253 C 0.61082 0.14123 0.46785 0.0
C254 C 0.64148 0.15137 0.46231 0.0
C255 C 0.59491 0.12352 0.5024 0.0
C256 C 0.6404 0.12663 0.52631 0.0
C257 C 0.60961 0.11626 0.53145 0.0
C258 C 0.65621 0.14418 0.49138 0.0
C259 C 0.51522 0.17766 0.39383 0.0
O260 O 0.50075 0.12452 0.35718 0.0
O261 O 0.54943 0.12734 0.35971 0.0
O262 O 0.44817 0.08337 0.40102 0.0
O263 O 0.43253 0.11999 0.43384 0.0
O264 O 0.47476 0.08679 0.47886 0.0
O265 O 0.515 0.09408 0.43463 0.0
O266 O 0.51882 0.14707 0.49092 0.0
O267 O 0.47166 0.14439 0.48013 0.0
O268 O 0.57897 0.16765 0.44531 0.0
O269 O 0.58388 0.12526 0.41883 0.0
O270 O 0.54337 0.17812 0.38074 0.0
O271 O 0.5051 0.15992 0.42359 0.0
H272 H 0.37559 0.07048 0.39011 0.0
H273 H 0.45209 0.14095 0.35262 0.0
H274 H 0.43508 0.15218 0.29278 0.0
H275 H 0.35871 0.08088 0.32838 0.0
H276 H 0.65404 0.16483 0.43547 0.0
H277 H 0.57118 0.11541 0.5069 0.0
H278 H 0.59673 0.10317 0.55842 0.0
H279 H 0.67994 0.15234 0.48656 0.0
Gd280 Gd 0.10989 0.1988 0.75875 0.0
Gd281 Gd 0.11093 0.26232 0.7343 0.0
C282 C 0.09055 0.24595 0.82909 0.0
C283 C 0.1258 0.15308 0.78383 0.0
C284 C 0.14379 0.1479 0.81239 0.0
C285 C 0.13799 0.12051 0.83318 0.0
C286 C 0.1663 0.17052 0.81991 0.0
C287 C 0.17507 0.13944 0.87212 0.0
C288 C 0.18226 0.16617 0.84882 0.0
C289 C 0.15333 0.11632 0.86296 0.0
C290 C 0.05918 0.20637 0.74044 0.0
C291 C 0.11305 0.21273 0.6638 0.0
C292 C 0.10899 0.31296 0.70421 0.0
C293 C 0.1051 0.32311 0.66523 0.0
C294 C 0.11702 0.35242 0.65127 0.0
C295 C 0.09262 0.30285 0.63983 0.0
C296 C 0.10598 0.34063 0.58545 0.0
C297 C 0.09292 0.31156 0.60025 0.0
C298 C 0.11741 0.3612 0.61156 0.0
C299 C 0.15986 0.25306 0.75741 0.0
O300 O 0.10048 0.22097 0.82069 0.0
O301 O 0.08945 0.26443 0.79995 0.0
O302 O 0.10023 0.16018 0.79982 0.0
O303 O 0.14042 0.16912 0.751 0.0
O304 O 0.06828 0.18151 0.7366 0.0
O305 O 0.07554 0.22413 0.75833 0.0
O306 O 0.10966 0.2397 0.67437 0.0
O307 O 0.11641 0.19336 0.69053 0.0
O308 O 0.13369 0.30362 0.70209 0.0
O309 O 0.08587 0.29574 0.72736 0.0
O310 O 0.14766 0.2755 0.76742 0.0
O311 O 0.14601 0.23675 0.73498 0.0
H312 H 0.12069 0.10278 0.82767 0.0
H313 H 0.17076 0.1919 0.80451 0.0
H314 H 0.19908 0.18435 0.85438 0.0
H315 H 0.14654 0.09556 0.88057 0.0
H316 H 0.12704 0.36819 0.67052 0.0
H317 H 0.08358 0.28008 0.65011 0.0
H318 H 0.08349 0.29539 0.58098 0.0
H319 H 0.12781 0.38368 0.60078 0.0
Gd320 Gd 0.88698 0.292 0.64898 0.0
Gd321 Gd 0.87904 0.22999 0.62275 0.0
C322 C 0.90159 0.24114 0.7055 0.0
C323 C 0.87893 0.34058 0.68335 0.0
C324 C 0.86358 0.35078 0.72198 0.0
C325 C 0.87959 0.37211 0.7425 0.0
C326 C 0.83333 0.33957 0.73873 0.0
C327 C 0.8361 0.36895 0.79806 0.0
C328 C 0.81968 0.34861 0.77645 0.0
C329 C 0.86604 0.38109 0.78022 0.0
C330 C 0.93688 0.27943 0.60088 0.0
C331 C 0.88644 0.28388 0.55474 0.0
C332 C 0.87278 0.17963 0.58911 0.0
C333 C 0.87204 0.16907 0.54827 0.0
C334 C 0.85261 0.14263 0.54435 0.0
C335 C 0.88876 0.18589 0.51328 0.0
C336 C 0.86724 0.14923 0.47058 0.0
C337 C 0.88649 0.17598 0.47473 0.0
C338 C 0.85017 0.13279 0.50588 0.0
C339 C 0.83391 0.24034 0.6821 0.0
O340 O 0.89309 0.267 0.70471 0.0
O341 O 0.90178 0.22391 0.67387 0.0
O342 O 0.90185 0.32878 0.68443 0.0
O343 O 0.8621 0.32671 0.66034 0.0
O344 O 0.93072 0.30562 0.60293 0.0
O345 O 0.91793 0.26272 0.62753 0.0
O346 O 0.88507 0.25544 0.5622 0.0
O347 O 0.88431 0.3023 0.58469 0.0
O348 O 0.85051 0.1918 0.60581 0.0
O349 O 0.89834 0.1939 0.59504 0.0
O350 O 0.84505 0.21692 0.68023 0.0
O351 O 0.84653 0.25767 0.65116 0.0
H352 H 0.90288 0.38123 0.72986 0.0
H353 H 0.82034 0.32343 0.72316 0.0
H354 H 0.79653 0.33905 0.78918 0.0
H355 H 0.87955 0.39638 0.79628 0.0
H356 H 0.83912 0.12968 0.57114 0.0
H357 H 0.90358 0.20662 0.51572 0.0
H358 H 0.90032 0.18897 0.44822 0.0
H359 H 0.83487 0.11233 0.5038 0.0
Gd360 Gd 0.60624 0.69759 0.26176 0.0
Gd361 Gd 0.61255 0.76207 0.23596 0.0
C362 C 0.58396 0.74278 0.32858 0.0
C363 C 0.62085 0.64804 0.27521 0.0
C364 C 0.63845 0.63809 0.30158 0.0
C365 C 0.62518 0.61448 0.32981 0.0
C366 C 0.66724 0.65359 0.30175 0.0
C367 C 0.66673 0.62572 0.36298 0.0
C368 C 0.68128 0.64749 0.33221 0.0
C369 C 0.63917 0.6083 0.36023 0.0
C370 C 0.5552 0.71211 0.25407 0.0
C371 C 0.6131 0.71276 0.16469 0.0
C372 C 0.61389 0.81387 0.20711 0.0
C373 C 0.60634 0.8261 0.17199 0.0
C374 C 0.61794 0.85577 0.15971 0.0
C375 C 0.58884 0.80799 0.14944 0.0
C376 C 0.59587 0.84897 0.10107 0.0
C377 C 0.58357 0.81941 0.11418 0.0
C378 C 0.61277 0.86719 0.12434 0.0
C379 C 0.65617 0.75045 0.27042 0.0
O380 O 0.59861 0.72066 0.32252 0.0
O381 O 0.58179 0.75887 0.29747 0.0
O382 O 0.59582 0.65492 0.29407 0.0
O383 O 0.63544 0.66676 0.2451 0.0
O384 O 0.55556 0.68922 0.27618 0.0
O385 O 0.5808 0.72191 0.23356 0.0
O386 O 0.61535 0.74111 0.17368 0.0
O387 O 0.60926 0.69197 0.19374 0.0
O388 O 0.63674 0.80088 0.19872 0.0
O389 O 0.59137 0.79918 0.23445 0.0
O390 O 0.64463 0.77356 0.27695 0.0
O391 O 0.64464 0.73494 0.24522 0.0
H392 H 0.60312 0.60202 0.32997 0.0
H393 H 0.67828 0.67144 0.2797 0.0
H394 H 0.70266 0.66103 0.33314 0.0
H395 H 0.62707 0.59155 0.38358 0.0
H396 H 0.63151 0.8699 0.17697 0.0
H397 H 0.57993 0.78492 0.15854 0.0
H398 H 0.57092 0.80482 0.09629 0.0
H399 H 0.62238 0.89006 0.11477 0.0
Gd400 Gd 0.61448 0.2579 0.97443 0.0
Gd401 Gd 0.60906 0.19524 0.95122 0.0
C402 C 0.60926 0.20624 1.04475 0.0
C403 C 0.62067 0.30841 1.00734 0.0
C404 C 0.62231 0.3179 1.04842 0.0
C405 C 0.64512 0.3413 0.053 0.0
C406 C 0.60391 0.30176 0.08298 0.0
C407 C 0.63137 0.3323 0.12643 0.0
C408 C 0.60829 0.30901 0.12166 0.0
C409 C 0.64968 0.34842 0.09163 0.0
C410 C 0.66 0.24816 0.91525 0.0
C411 C 0.59065 0.24365 0.8937 0.0
C412 C 0.61888 0.14694 0.9174 0.0
C413 C 0.63375 0.13748 0.8779 0.0
C414 C 0.61724 0.11719 0.85661 0.0
C415 C 0.66397 0.14869 0.86079 0.0
C416 C 0.66006 0.1217 0.79972 0.0
C417 C 0.67702 0.14086 0.82203 0.0
C418 C 0.63021 0.10942 0.81786 0.0
C419 C 0.55848 0.20672 0.99911 0.0
O420 O 0.60744 0.23366 1.03608 0.0
O421 O 0.6144 0.18776 1.01532 0.0
O422 O 0.643 0.29679 0.98927 0.0
O423 O 0.59497 0.29399 1.00194 0.0
O424 O 0.64743 0.27058 0.91595 0.0
O425 O 0.64833 0.23133 0.94697 0.0
O426 O 0.60044 0.21845 0.89522 0.0
O427 O 0.5903 0.26168 0.92446 0.0
O428 O 0.59463 0.15691 0.91817 0.0
O429 O 0.636 0.16221 0.93899 0.0
O430 O 0.56574 0.18099 0.9984 0.0
O431 O 0.57689 0.22306 0.97153 0.0
H432 H 0.65991 0.35361 1.02653 0.0
H433 H 0.58643 0.2833 0.08012 0.0
H434 H 0.59333 0.29655 0.14783 0.0
H435 H 0.66779 0.36629 0.09416 0.0
H436 H 0.594 0.10805 0.86944 0.0
H437 H 0.67741 0.16397 0.87687 0.0
H438 H 0.70013 0.15043 0.80911 0.0
H439 H 0.6163 0.095 0.80136 0.0
Gd440 Gd 0.89858 0.73625 0.36823 0.0
Gd441 Gd 0.8971 0.79929 0.34361 0.0
C442 C 0.89389 0.78401 0.44062 0.0
C443 C 0.90548 0.68617 0.39325 0.0
C444 C 0.91528 0.67439 0.42667 0.0
C445 C 0.90976 0.64379 0.43395 0.0
C446 C 0.9287 0.69343 0.45256 0.0
C447 C 0.92897 0.65117 0.49494 0.0
C448 C 0.93561 0.68185 0.48652 0.0
C449 C 0.91656 0.63219 0.46798 0.0
C450 C 0.8513 0.74234 0.33781 0.0
C451 C 0.92195 0.75606 0.27484 0.0
C452 C 0.876 0.84583 0.33434 0.0
C453 C 0.85969 0.85545 0.30634 0.0
C454 C 0.85338 0.83772 0.27445 0.0
C455 C 0.85166 0.88308 0.31012 0.0
C456 C 0.83528 0.87724 0.24647 0.0
C457 C 0.83938 0.89387 0.28049 0.0
C458 C 0.84131 0.84851 0.24473 0.0
C459 C 0.95097 0.7911 0.34701 0.0
O460 O 0.89345 0.75598 0.4311 0.0
O461 O 0.89598 0.80468 0.41188 0.0
O462 O 0.88029 0.69528 0.40351 0.0
O463 O 0.9261 0.70403 0.36685 0.0
O464 O 0.86477 0.72053 0.33048 0.0
O465 O 0.86274 0.75909 0.36186 0.0
O466 O 0.90513 0.77649 0.28212 0.0
O467 O 0.92726 0.7417 0.30528 0.0
O468 O 0.9034 0.84372 0.31823 0.0
O469 O 0.86151 0.82338 0.35898 0.0
O470 O 0.94752 0.81188 0.32363 0.0
O471 O 0.92668 0.77936 0.36981 0.0
H472 H 0.89944 0.62894 0.41397 0.0
H473 H 0.93307 0.71717 0.44711 0.0
H474 H 0.94485 0.69695 0.50715 0.0
H475 H 0.91137 0.60848 0.47385 0.0
H476 H 0.85919 0.81614 0.27146 0.0
H477 H 0.85602 0.8968 0.33503 0.0
H478 H 0.83459 0.91586 0.28308 0.0
H479 H 0.8389 0.83513 0.21884 0.0
Gd480 Gd 0.53212 0.61517 0.70514 0.0
Gd481 Gd 0.50713 0.63112 0.62739 0.0
C482 C 0.4598 0.60713 0.70983 0.0
C483 C 0.54465 0.62322 0.77621 0.0
C484 C 0.55069 0.63002 0.81758 0.0
C485 C 0.57029 0.61663 0.83369 0.0
C486 C 0.53819 0.65186 0.84034 0.0
C487 C 0.56542 0.64751 0.89351 0.0
C488 C 0.54538 0.66041 0.87752 0.0
C489 C 0.57748 0.62517 0.8711 0.0
C490 C 0.52175 0.57059 0.65554 0.0
C491 C 0.57684 0.62964 0.62035 0.0
C492 C 0.49468 0.644 0.55885 0.0
C493 C 0.48759 0.65366 0.52005 0.0
C494 C 0.4886 0.68374 0.51147 0.0
C495 C 0.4788 0.63325 0.4919 0.0
C496 C 0.47169 0.67276 0.44794 0.0
C497 C 0.47121 0.64261 0.4564 0.0
C498 C 0.48069 0.69308 0.47636 0.0
C499 C 0.5153 0.67183 0.68313 0.0
O500 O 0.48216 0.60669 0.72783 0.0
O501 O 0.46329 0.61387 0.67054 0.0
O502 O 0.55669 0.60507 0.75081 0.0
O503 O 0.52508 0.63493 0.76343 0.0
O504 O 0.53983 0.5712 0.68 0.0
O505 O 0.50746 0.59107 0.66294 0.0
O506 O 0.55386 0.6242 0.60284 0.0
O507 O 0.57421 0.63337 0.65975 0.0
O508 O 0.51049 0.66283 0.57856 0.0
O509 O 0.48631 0.61714 0.57579 0.0
O510 O 0.49368 0.66865 0.66454 0.0
O511 O 0.53211 0.6545 0.66974 0.0
H512 H 0.58056 0.59993 0.81701 0.0
H513 H 0.52303 0.66282 0.82915 0.0
H514 H 0.53504 0.67721 0.89381 0.0
H515 H 0.59318 0.61476 0.88187 0.0
H516 H 0.49499 0.70021 0.53244 0.0
H517 H 0.47783 0.60994 0.49725 0.0
H518 H 0.46517 0.62599 0.4355 0.0
H519 H 0.48105 0.71636 0.47227 0.0
Gd520 Gd 0.95301 0.34408 0.17062 0.0
Gd521 Gd 0.01545 0.36511 0.17634 0.0
C522 C 0.00638 0.32784 0.0988 0.0
C523 C 0.90087 0.33883 0.15574 0.0
C524 C 0.88594 0.34616 0.1247 0.0
C525 C 0.85491 0.33898 0.13265 0.0
C526 C 0.90205 0.36187 0.08861 0.0
C527 C 0.85589 0.3627 0.06802 0.0
C528 C 0.88712 0.37004 0.06038 0.0
C529 C 0.83994 0.34716 0.10451 0.0
C530 C 0.97197 0.30655 0.21454 0.0
C531 C 0.9626 0.36053 0.25969 0.0
C532 C 0.0667 0.38399 0.19232 0.0
C533 C 0.07796 0.38582 0.22949 0.0
C534 C 0.06078 0.39355 0.26596 0.0
C535 C 0.10543 0.3784 0.22913 0.0
C536 C 0.09804 0.38566 0.30171 0.0
C537 C 0.1154 0.37822 0.26511 0.0
C538 C 0.07079 0.39358 0.30173 0.0
C539 C -0.00329 0.39954 0.12669 0.0
O540 O 0.97844 0.33173 0.10852 0.0
O541 O 0.0246 0.33606 0.12335 0.0
O542 O 0.91679 0.31842 0.14765 0.0
O543 O 0.91364 0.36152 0.17307 0.0
O544 O 0.94433 0.30841 0.22009 0.0
O545 O -0.01294 0.32136 0.18302 0.0
O546 O -0.00862 0.36292 0.24381 0.0
O547 O 0.94357 0.35776 0.23579 0.0
O548 O 0.0481 0.40115 0.18971 0.0
O549 O 0.05856 0.35729 0.18045 0.0
O550 O 0.02186 0.39133 0.11853 0.0
O551 O -0.0182 0.38894 0.16147 0.0
H552 H 0.84222 0.32721 0.16078 0.0
H553 H 0.92608 0.3678 0.08237 0.0
H554 H 0.90006 0.38152 1.0322 0.0
H555 H 0.81591 0.3414 0.11135 0.0
H556 H 0.03933 0.39904 0.26706 0.0
H557 H 0.11885 0.37224 0.20121 0.0
H558 H 0.13647 0.372 0.26446 0.0
H559 H 0.05669 0.39877 0.32971 0.0
Gd560 Gd 0.49534 0.36336 0.4694 0.0
Gd561 Gd 0.47853 0.38488 0.38674 0.0
C562 C 0.43301 0.38142 0.47439 0.0
C563 C 0.51824 0.35145 0.53002 0.0
C564 C 0.51769 0.33619 0.56994 0.0
C565 C 0.53098 0.31141 0.57022 0.0
C566 C 0.50811 0.34836 0.60774 0.0
C567 C 0.52646 0.31229 0.64444 0.0
C568 C 0.51222 0.33653 0.64425 0.0
C569 C 0.53523 0.29968 0.60661 0.0
C570 C 0.4626 0.32441 0.42893 0.0
C571 C 0.54483 0.37458 0.38323 0.0
C572 C 0.46075 0.38265 0.31852 0.0
C573 C 0.45944 0.36858 0.27836 0.0
C574 C 0.47233 0.38502 0.2414 0.0
C575 C 0.4417 0.34042 0.27644 0.0
C576 C 0.44859 0.34627 0.20212 0.0
C577 C 0.43649 0.32944 0.23908 0.0
C578 C 0.46709 0.37407 0.204 0.0
C579 C 0.49359 0.42784 0.43693 0.0
O580 O 0.45476 0.38166 0.4935 0.0
O581 O 0.43561 0.37717 0.43493 0.0
O582 O 0.51887 0.336 0.49729 0.0
O583 O 0.50505 0.37393 0.52906 0.0
O584 O 0.45934 0.32229 0.4682 0.0
O585 O 0.48391 0.34467 0.41421 0.0
O586 O 0.52479 0.37841 0.36282 0.0
O587 O 0.53932 0.37043 0.42336 0.0
O588 O 0.48506 0.40061 0.32325 0.0
O589 O 0.44601 0.36731 0.35205 0.0
O590 O 0.47717 0.43025 0.41113 0.0
O591 O 0.50382 0.40456 0.43135 0.0
H592 H 0.53926 0.30164 0.54187 0.0
H593 H 0.4981 0.36761 0.60907 0.0
H594 H 0.50444 0.34679 0.67235 0.0
H595 H 0.54662 0.28139 0.60454 0.0
H596 H 0.48578 0.40691 0.24148 0.0
H597 H 0.43083 0.32713 0.30406 0.0
H598 H 0.42188 0.30814 0.23957 0.0
H599 H 0.47739 0.3877 0.17654 0.0
Gd600 Gd -0.01821 0.62754 0.92975 0.0
Gd601 Gd 0.04468 0.63926 0.93992 0.0
C602 C 0.03548 0.6311 0.84709 0.0
C603 C 0.93227 0.61686 0.90741 0.0
C604 C 0.92491 0.61973 0.86786 0.0
C605 C 0.9081 0.59538 0.85306 0.0
C606 C 0.93859 0.6447 0.84206 0.0
C607 C 0.92211 0.6195 0.78575 0.0
C608 C 0.9371 0.64465 0.8014 0.0
C609 C 0.90667 0.59525 0.81216 0.0
C610 C -0.00574 0.5865 0.97677 0.0
C611 C -0.00672 0.65845 1.01126 0.0
C612 C 0.09653 0.63328 0.94774 0.0
C613 C 0.11679 0.64063 0.97501 0.0
C614 C 0.10979 0.65741 1.0091 0.0
C615 C 0.14253 0.62886 0.96829 0.0
C616 C 0.15318 0.64862 1.03135 0.0
C617 C 0.16062 0.63279 0.99627 0.0
C618 C 0.12795 0.66147 1.03707 0.0
C619 C 0.02534 0.68777 0.92295 0.0
O620 O 0.00681 0.62981 0.86297 0.0
O621 O 0.0544 0.63253 0.87124 0.0
O622 O 0.948 0.59666 0.90928 0.0
O623 O 0.94166 0.64154 0.92422 0.0
O624 O 0.97064 0.59742 0.9852 0.0
O625 O 0.01086 0.59793 0.94342 0.0
O626 O 0.01912 0.64932 1.00343 0.0
O627 O 0.97644 0.6557 0.98426 0.0
O628 O 0.0923 0.65525 0.92684 0.0
O629 O 0.07208 0.61396 0.96261 0.0
O630 O 0.04294 0.68769 0.94778 0.0
O631 O 0.02034 0.66285 0.90838 0.0
H632 H 0.89758 0.57582 0.87253 0.0
H633 H 0.95172 0.66369 0.85264 0.0
H634 H 0.94861 0.66391 0.78185 0.0
H635 H 0.89493 0.5756 0.80079 0.0
H636 H 0.08983 0.66649 1.01472 0.0
H637 H 0.14816 0.61584 0.94201 0.0
H638 H 0.18002 0.62285 0.99098 0.0
H639 H 0.12145 0.67344 0.06412 0.0
H640 H 0.12621 0.1659 0.11162 0.0
H641 H 0.18552 0.09078 0.91012 0.0
H642 H 0.09076 0.08008 0.07296 0.0
H643 H 0.18757 0.18409 0.92369 0.0
H644 H 0.17703 0.08437 0.98397 0.0
H645 H 0.17157 0.16821 0.05786 0.0
C646 C 0.12848 0.14721 0.09258 0.0
C647 C 0.10472 0.12321 0.09533 0.0
C648 C 0.18065 0.10641 0.97042 0.0
C649 C 0.15614 0.12527 1.03538 0.0
C650 C 0.18521 0.1101 0.9283 0.0
C651 C 0.18498 0.13761 0.91082 0.0
C652 C 0.17611 0.13047 0.99473 0.0
C653 C 0.18651 0.16211 0.93563 0.0
C654 C 0.15431 0.14842 0.0623 0.0
C655 C 0.10849 0.09932 0.07065 0.0
N656 N 0.18099 0.15781 0.9766 0.0
N657 N 0.1336 0.10111 1.04123 0.0
H658 H 0.08936 0.70611 0.32792 0.0
H659 H 0.03562 0.83948 0.23009 0.0
H660 H 0.07814 0.78737 0.38653 0.0
H661 H 0.03405 0.75474 0.17548 0.0
H662 H 0.05191 0.82035 0.28654 0.0
H663 H 0.07089 0.72317 0.27074 0.0
C664 C 0.0832 0.7275 0.32885 0.0
C665 C 0.08545 0.74517 0.36252 0.0
C666 C 0.04799 0.80587 0.2622 0.0
C667 C 0.06434 0.76505 0.29672 0.0
C668 C 0.03825 0.81677 0.22972 0.0
C669 C 0.03304 0.79902 0.19695 0.0
C670 C 0.0531 0.77688 0.26253 0.0
C671 C 0.03798 0.76984 0.19904 0.0
C672 C 0.07254 0.73723 0.29617 0.0
C673 C 0.07689 0.77272 0.36165 0.0
N674 N 0.04772 0.75985 0.23087 0.0
N675 N 0.06697 0.7817 0.3296 0.0
H676 H 0.35086 0.92534 0.33011 0.0
H677 H 0.31351 0.84014 0.54416 0.0
H678 H 0.30749 0.83373 0.35556 0.0
H679 H 0.37526 0.92339 0.51237 0.0
H680 H 0.29535 0.84573 0.48293 0.0
H681 H 0.34375 0.93221 0.4033 0.0
C682 C 0.33928 0.90684 0.35103 0.0
C683 C 0.33073 0.87865 0.33664 0.0
C684 C 0.31243 0.86309 0.4898 0.0
C685 C 0.32231 0.88647 0.42008 0.0
C686 C 0.32274 0.85999 0.52486 0.0
C687 C 0.34647 0.881 0.53279 0.0
C688 C 0.32613 0.88721 0.46235 0.0
C689 C 0.35756 0.90624 0.50666 0.0
C690 C 0.33512 0.91083 0.39275 0.0
C691 C 0.31483 0.85578 0.36508 0.0
N692 N 0.34767 0.90839 0.47213 0.0
N693 N 0.31171 0.86004 0.40547 0.0
H694 H 0.40136 0.24929 0.69864 0.0
H695 H 0.52064 0.16322 0.56581 0.0
H696 H 0.46817 0.21794 0.74582 0.0
H697 H 0.44101 0.17429 0.52987 0.0
H698 H 0.50528 0.18878 0.62847 0.0
H699 H 0.41951 0.22829 0.63276 0.0
C700 C 0.42005 0.23839 0.69504 0.0
C701 C 0.43302 0.23519 0.72805 0.0
C702 C 0.49116 0.1856 0.60685 0.0
C703 C 0.45394 0.21102 0.65275 0.0
C704 C 0.49994 0.17095 0.571 0.0
C705 C 0.48206 0.16625 0.5424 0.0
C706 C 0.46442 0.19606 0.6142 0.0
C707 C 0.45548 0.17704 0.55102 0.0
C708 C 0.43029 0.22619 0.65752 0.0
C709 C 0.45716 0.22065 0.7215 0.0
N710 N 0.44756 0.1914 0.58589 0.0
N711 N 0.46673 0.20916 0.68488 0.0
H712 H 0.80281 0.85309 0.19129 0.0
H713 H 0.93109 0.9455 1.03656 0.0
H714 H 0.85835 0.93398 0.21605 0.0
H715 H 0.87046 0.8709 1.00575 0.0
H716 H 0.89269 0.95312 0.09481 0.0
H717 H 0.81353 0.86976 0.11991 0.0
C718 C 0.81653 0.87474 0.18203 0.0
C719 C 0.83095 0.89143 0.20933 0.0
C720 C 0.88729 0.93556 0.07477 0.0
C721 C 0.84346 0.91055 0.12778 0.0
C722 C 0.90927 0.93131 1.04146 0.0
C723 C 0.904 0.90711 1.01727 0.0
C724 C 0.8605 0.91457 0.08488 0.0
C725 C 0.87539 0.88957 1.02428 0.0
C726 C 0.82257 0.88434 0.14122 0.0
C727 C 0.84736 0.91986 0.19604 0.0
N728 N 0.85493 0.89299 0.0584 0.0
N729 N 0.85392 0.92812 0.15596 0.0
H730 H 0.90558 0.26986 0.77704 0.0
H731 H 0.96413 0.14133 0.87829 0.0
H732 H 0.92095 0.1899 0.71764 0.0
H733 H 0.95125 0.22216 0.93722 0.0
H734 H 0.94819 0.15871 0.81983 0.0
H735 H 0.92213 0.25306 0.83564 0.0
C736 C 0.91237 0.24877 0.77617 0.0
C737 C 0.91165 0.23135 0.74195 0.0
C738 C 0.94886 0.17269 0.84552 0.0
C739 C 0.93081 0.21179 0.80968 0.0
C740 C 0.95783 0.16265 0.8793 0.0
C741 C 0.95916 0.18007 0.91347 0.0
C742 C 0.94087 0.20049 0.84534 0.0
C743 C 0.9511 0.20785 0.91182 0.0
C744 C 0.92188 0.23916 0.80981 0.0
C745 C 0.92092 0.20421 0.74307 0.0
N746 N 0.94232 0.21704 0.87869 0.0
N747 N 0.92998 0.19536 0.77611 0.0
H748 H 0.69552 0.16302 0.74246 0.0
H749 H 0.63346 0.07495 0.57054 0.0
H750 H 0.65104 0.0713 0.75689 0.0
H751 H 0.68118 0.16553 0.55645 0.0
H752 H 0.65091 0.06909 0.63251 0.0
H753 H 0.70309 0.15981 0.66911 0.0
C754 C 0.68809 0.14191 0.73025 0.0
C755 C 0.67179 0.11761 0.75598 0.0
C756 C 0.65809 0.09007 0.61541 0.0
C757 C 0.67951 0.11412 0.67185 0.0
C758 C 0.64797 0.09347 0.5802 0.0
C759 C 0.65531 0.12097 0.55893 0.0
C760 C 0.67531 0.11448 0.62967 0.0
C761 C 0.6748 0.14399 0.57208 0.0
C762 C 0.69221 0.14016 0.6882 0.0
C763 C 0.66276 0.09089 0.73818 0.0
N764 N 0.68365 0.14039 0.60706 0.0
N765 N 0.66609 0.09004 0.6972 0.0
H766 H 0.55195 0.79705 0.57963 0.0
H767 H 0.53941 0.77345 0.34875 0.0
H768 H 0.48254 0.82161 0.53062 0.0
H769 H 0.59603 0.73134 0.40366 0.0
H770 H 0.5189 0.79131 0.41483 0.0
H771 H 0.56878 0.77345 0.51611 0.0
C772 C 0.54016 0.79752 0.55557 0.0
C773 C 0.51577 0.81164 0.56071 0.0
C774 C 0.53568 0.77806 0.41268 0.0
C775 C 0.53527 0.78448 0.48721 0.0
C776 C 0.54756 0.76783 0.37476 0.0
C777 C 0.56979 0.75095 0.37026 0.0
C778 C 0.54617 0.77181 0.44689 0.0
C779 C 0.57896 0.7442 0.4055 0.0
C780 C 0.54979 0.78385 0.51925 0.0
C781 C 0.50142 0.81113 0.52828 0.0
N782 N 0.56737 0.7549 0.44216 0.0
N783 N 0.5115 0.79806 0.49297 0.0
H784 H 0.68907 0.67306 0.40352 0.0
H785 H 0.59798 0.58097 0.59614 0.0
H786 H 0.66562 0.57782 0.41231 0.0
H787 H 0.62054 0.67598 0.58584 0.0
H788 H 0.63958 0.57889 0.53891 0.0
H789 H 0.68385 0.67358 0.47669 0.0
C790 C 0.684 0.6521 0.42052 0.0
C791 C 0.67633 0.62534 0.40197 0.0
C792 C 0.63614 0.60025 0.54984 0.0
C793 C 0.66913 0.62598 0.4861 0.0
C794 C 0.61244 0.60138 0.58247 0.0
C795 C 0.60596 0.62867 0.59489 0.0
C796 C 0.65264 0.62664 0.52884 0.0
C797 C 0.62497 0.65456 0.57659 0.0
C798 C 0.68072 0.65246 0.4626 0.0
C799 C 0.67035 0.59902 0.42572 0.0
N800 N 0.64715 0.65294 0.54371 0.0
N801 N 0.66585 0.6 0.46683 0.0
H802 H 0.58255 0.21165 0.82562 0.0
H803 H 0.53788 0.34344 0.71183 0.0
H804 H 0.57294 0.29513 0.87846 0.0
H805 H 0.53147 0.25546 0.66675 0.0
H806 H 0.55106 0.32592 0.7722 0.0
H807 H 0.56503 0.22697 0.76686 0.0
C808 C 0.57685 0.23319 0.825 0.0
C809 C 0.57961 0.2521 0.85735 0.0
C810 C 0.54673 0.31037 0.74917 0.0
C811 C 0.55946 0.26999 0.78944 0.0
C812 C 0.53886 0.32035 0.71445 0.0
C813 C 0.53343 0.30118 0.68314 0.0
C814 C 0.54967 0.28087 0.75322 0.0
C815 C 0.53593 0.27155 0.68905 0.0
C816 C 0.56674 0.24193 0.79133 0.0
C817 C 0.57152 0.27971 0.85447 0.0
N818 N 0.54396 0.26247 0.72295 0.0
N819 N 0.56209 0.28776 0.82134 0.0
H820 H 0.80945 0.32716 1.04439 0.0
H821 H 0.844 0.4209 0.83793 0.0
H822 H 0.86684 0.41336 1.02007 0.0
H823 H 0.8005 0.32898 0.8569 0.0
H824 H 0.83662 0.42493 0.91163 0.0
H825 H 0.79058 0.33461 0.98434 0.0
C826 C 0.81758 0.34798 1.027 0.0
C827 C 0.84034 0.36937 1.03659 0.0
C828 C 0.82801 0.4041 0.89962 0.0
C829 C 0.81923 0.37775 0.9674 0.0
C830 C 0.83229 0.40175 0.85759 0.0
C831 C 0.82381 0.3743 0.84119 0.0
C832 C 0.81527 0.37879 0.92523 0.0
C833 C 0.80781 0.35051 0.86804 0.0
C834 C 0.80686 0.35216 0.99259 0.0
C835 C 0.84999 0.3959 1.01293 0.0
N836 N 0.80467 0.35313 0.90875 0.0
N837 N 0.83979 0.39913 0.97892 0.0
H838 H 0.97209 0.73394 0.25097 0.0
H839 H 0.94324 0.68221 1.03386 0.0
H840 H 0.9014 0.7565 0.20305 0.0
H841 H 0.02044 0.67128 0.0764 0.0
H842 H 0.92765 0.70922 0.09449 0.0
H843 H -0.01011 0.71163 0.18719 0.0
C844 C 0.96041 0.73458 0.2268 0.0
C845 C 0.93499 0.7472 0.23285 0.0
C846 C 0.94799 0.70095 0.09068 0.0
C847 C 0.95562 0.72114 0.15861 0.0
C848 C 0.95698 0.6853 0.05595 0.0
C849 C -0.01668 0.67408 1.04961 0.0
C850 C 0.96515 0.70542 0.12011 0.0
C851 C -4e-05 0.67921 0.0797 0.0
C852 C 0.97072 0.72174 0.19016 0.0
C853 C 0.92114 0.74731 0.19994 0.0
N854 N -0.00944 0.6943 0.11348 0.0
N855 N 0.93144 0.73425 0.1645 0.0
H856 H 0.42057 0.42971 0.51402 0.0
H857 H 0.32382 0.32415 0.68151 0.0
H858 H 0.38176 0.34028 0.49284 0.0
H859 H 0.34196 0.41861 0.69376 0.0
H860 H 0.32931 0.33198 0.60903 0.0
H861 H 0.37935 0.42993 0.57223 0.0
C862 C 0.40266 0.41048 0.52097 0.0
C863 C 0.40445 0.38483 0.49939 0.0
C864 C 0.33122 0.35111 0.62758 0.0
C865 C 0.35815 0.38419 0.56689 0.0
C866 C 0.32786 0.34664 0.66936 0.0
C867 C 0.33393 0.37081 0.69363 0.0
C868 C 0.34151 0.37984 0.60995 0.0
C869 C 0.33866 0.3993 0.67583 0.0
C870 C 0.37912 0.4105 0.55422 0.0
C871 C 0.381 0.36039 0.50922 0.0
N872 N 0.3434 0.40307 0.6348 0.0
N873 N 0.35915 0.36032 0.54316 0.0
H874 H 0.4889 0.72753 0.40521 0.0
H875 H 0.4023 0.68278 0.22748 0.0
H876 H 0.43313 0.6416 0.40323 0.0
H877 H 0.42571 0.77312 0.2601 0.0
H878 H 0.41996 0.66669 0.2854 0.0
H879 H 0.4724 0.74375 0.34673 0.0
C880 C 0.47311 0.71193 0.39302 0.0
C881 C 0.46251 0.68291 0.41038 0.0
C882 C 0.42122 0.69004 0.27995 0.0
C883 C 0.44386 0.70165 0.34147 0.0
C884 C 0.41116 0.69931 0.24672 0.0
C885 C 0.41216 0.72944 0.23874 0.0
C886 C 0.43308 0.71097 0.30538 0.0
C887 C 0.42411 0.74967 0.26504 0.0
C888 C 0.46378 0.72134 0.35916 0.0
C889 C 0.44259 0.66397 0.39138 0.0
N890 N 0.4342 0.74013 0.29681 0.0
N891 N 0.4341 0.67359 0.35825 0.0
H892 H 0.1901 0.59066 0.24787 0.0
H893 H 0.17172 0.69553 0.07564 0.0
H894 H 0.20503 0.68559 0.25355 0.0
H895 H 0.17187 0.60276 0.0615 0.0
H896 H 0.1919 0.6937 0.1362 0.0
H897 H 0.19224 0.59558 0.17507 0.0
C898 C 0.19453 0.61255 0.23354 0.0
C899 C 0.19684 0.63771 0.25684 0.0
C900 C 0.18807 0.67386 0.11942 0.0
C901 C 0.1988 0.64355 0.17392 0.0
C902 C 0.1764 0.67489 0.085 0.0
C903 C 0.16978 0.6492 0.06389 0.0
C904 C 0.19265 0.64681 0.13314 0.0
C905 C 0.17668 0.62311 0.07688 0.0
C906 C 0.19574 0.61539 0.19201 0.0
C907 C 0.203 0.66559 0.23676 0.0
N908 N 0.18726 0.62247 0.11108 0.0
N909 N 0.20311 0.66774 0.19659 0.0
H910 H 0.11277 0.29592 0.86353 0.0
H911 H 0.97602 0.28814 0.05317 0.0
H912 H 0.04433 0.21726 0.89063 0.0
H913 H 0.06383 0.33637 0.05486 0.0
H914 H -0.00285 0.26561 0.9898 0.0
H915 H 0.09233 0.31463 0.92968 0.0
C916 C 0.09372 0.28233 0.8838 0.0
C917 C 0.08069 0.25468 0.87184 0.0
C918 C 0.01173 0.28106 1.00419 0.0
C919 C 0.05622 0.27664 0.94727 0.0
C920 C -0.00034 0.29413 1.0402 0.0
C921 C 0.01811 0.31427 0.0596 0.0
C922 C 0.0424 0.28875 0.98671 0.0
C923 C 0.04866 0.32094 1.0413 0.0
C924 C 0.08196 0.2931 0.9215 0.0
C925 C 0.05553 0.23837 0.89898 0.0
N926 N 0.0597 0.30854 1.00593 0.0
N927 N 0.04392 0.24973 0.93516 0.0
H928 H 0.03026 0.30897 0.21378 0.0
H929 H 0.96921 0.1664 0.24591 0.0
H930 H 0.94217 0.27485 0.28502 0.0
H931 H 0.0632 0.20066 0.20803 0.0
H932 H 0.96642 0.20019 0.30117 0.0
H933 H 0.04965 0.27648 0.25242 0.0
C934 C 0.01503 0.29483 0.23796 0.0
C935 C -0.01563 0.29258 0.24391 0.0
C936 C -0.01206 0.2002 0.2814 0.0
C937 C 0.00591 0.2535 0.28557 0.0
C938 C -0.01069 0.18113 0.24946 0.0
C939 C 0.01597 0.18293 0.2206 0.0
C940 C 0.01242 0.22339 0.28072 0.0
C941 C 0.04178 0.20047 0.22813 0.0
C942 C 0.02607 0.27633 0.26051 0.0
C943 C 0.9658 0.27531 0.27724 0.0
N944 N 0.0393 0.22094 0.25693 0.0
N945 N 0.97675 0.25563 0.29629 0.0
H946 H 0.97498 0.82089 0.40426 0.0
H947 H 0.02026 0.67048 0.4473 0.0
H948 H -0.01524 0.75199 0.31931 0.0
H949 H 0.04878 0.74723 0.51195 0.0
H950 H -0.00464 0.69927 0.41143 0.0
H951 H -0.00212 0.79594 0.44928 0.0
C952 C -0.01639 0.80143 0.39405 0.0
C953 C 0.97825 0.78836 0.35815 0.0
C954 C 0.0069 0.70989 0.43367 0.0
C955 C 0.00206 0.75901 0.41016 0.0
C956 C 0.02067 0.69335 0.45472 0.0
C957 C 0.03849 0.70737 0.48008 0.0
C958 C 0.01042 0.74034 0.439 0.0
C959 C 0.03672 0.7364 0.49053 0.0
C960 C -0.00422 0.78681 0.42022 0.0
C961 C -0.01129 0.76272 0.3467 0.0
N962 N 0.02375 0.75253 0.46875 0.0
N963 N -0.00053 0.74839 0.37318 0.0
H964 H 0.56064 0.70047 0.71588 0.0
H965 H 0.43883 0.77771 0.78506 0.0
H966 H 0.46605 0.66844 0.74401 0.0
H967 H 0.52633 0.8017 0.70725 0.0
H968 H 0.45704 0.74327 0.82384 0.0
H969 H 0.55459 0.73322 0.77306 0.0
C970 C 0.53868 0.70001 0.73461 0.0
C971 C 0.5134 0.68446 0.72308 0.0
C972 C 0.47261 0.7573 0.79961 0.0
C973 C 0.50643 0.72198 0.78629 0.0
C974 C 0.46204 0.77628 0.77683 0.0
C975 C 0.48084 0.79096 0.74149 0.0
C976 C 0.50168 0.75251 0.78564 0.0
C977 C 0.51087 0.78968 0.7332 0.0
C978 C 0.53523 0.71799 0.76794 0.0
C979 C 0.48574 0.68259 0.74979 0.0
N980 N 0.52038 0.7706 0.75497 0.0
N981 N 0.48287 0.70142 0.7805 0.0
H982 H 0.53585 0.25371 1.02973 0.0
H983 H 0.47877 0.23059 0.82673 0.0
H984 H 0.51171 0.16894 0.9804 0.0
H985 H 0.48097 0.31209 0.88896 0.0
H986 H 0.49521 0.20918 0.88158 0.0
H987 H 0.51147 0.27552 0.98415 0.0
C988 C 0.52373 0.23928 1.01106 0.0
C989 C 0.52773 0.21013 1.00608 0.0
C990 C 0.49262 0.23194 0.88298 0.0
C991 C 0.50085 0.23462 0.95368 0.0
C992 C 0.48429 0.24445 0.851 0.0
C993 C 0.47853 0.27299 0.85366 0.0
C994 C 0.4953 0.24833 0.91752 0.0
C995 C 0.48552 0.29002 0.88585 0.0
C996 C 0.51074 0.25195 0.98402 0.0
C997 C 0.51059 0.19206 0.98315 0.0
N998 N 0.49294 0.2772 0.91723 0.0
N999 N 0.49927 0.2049 0.95575 0.0
H1000 H 0.90438 0.78096 1.03467 0.0
H1001 H -0.00743 0.69478 0.86878 0.0
H1002 H 0.92158 0.80573 0.90738 0.0
H1003 H 0.00876 0.72302 0.98502 0.0
H1004 H 0.9469 0.71501 0.88319 0.0
H1005 H 0.91431 0.73241 1.01663 0.0
C1006 C 0.90839 0.77566 1.00286 0.0
C1007 C 0.91558 0.79798 0.97215 0.0
C1008 C 0.96028 0.71615 0.90565 0.0
C1009 C 0.92692 0.74358 0.95178 0.0
C1010 C -0.01358 0.70534 0.89721 0.0
C1011 C 0.00385 0.7069 0.92616 0.0
C1012 C 0.95162 0.72809 0.94349 0.0
C1013 C -0.00425 0.72126 0.96208 0.0
C1014 C 0.9143 0.74795 0.99258 0.0
C1015 C 0.91851 0.7895 0.93179 0.0
N1016 N 0.96993 0.73103 0.96996 0.0
N1017 N 0.92599 0.76312 0.92225 0.0
H1018 H 0.52401 0.67398 0.21094 0.0
H1019 H 0.48732 0.81274 0.10818 0.0
H1020 H 0.53463 0.76204 0.25507 0.0
H1021 H 0.45382 0.72338 0.07986 0.0
H1022 H 0.5174 0.79436 0.14846 0.0
H1023 H 0.50382 0.69075 0.156 0.0
C1024 C 0.52059 0.69646 0.21022 0.0
C1025 C 0.53045 0.71668 0.23761 0.0
C1026 C 0.50412 0.77877 0.13246 0.0
C1027 C 0.50971 0.73637 0.17385 0.0
C1028 C 0.48757 0.78935 0.10846 0.0
C1029 C 0.46689 0.76925 0.09286 0.0
C1030 C 0.50029 0.74814 0.13945 0.0
C1031 C 0.4688 0.73936 0.093 0.0
C1032 C 0.51002 0.70624 0.17822 0.0
C1033 C 0.52683 0.74582 0.23466 0.0
N1034 N 0.4842 0.72938 0.11774 0.0
N1035 N 0.51713 0.75497 0.20288 0.0
H1036 H 0.52938 0.21555 0.32544 0.0
H1037 H 0.41528 0.27766 0.45145 0.0
H1038 H 0.45667 0.17254 0.42126 0.0
H1039 H 0.47805 0.32301 0.3466 0.0
H1040 H 0.40872 0.23349 0.4122 0.0
H1041 H 0.49639 0.24557 0.30656 0.0
C1042 C 0.50638 0.21199 0.34184 0.0
C1043 C 0.49598 0.19257 0.37604 0.0
C1044 C 0.4235 0.25333 0.39724 0.0
C1045 C 0.45823 0.22607 0.35477 0.0
C1046 C 0.42721 0.27845 0.41993 0.0
C1047 C 0.44912 0.30288 0.40322 0.0
C1048 C 0.4443 0.25224 0.36021 0.0
C1049 C 0.46254 0.3036 0.36155 0.0
C1050 C 0.48735 0.22865 0.33071 0.0
C1051 C 0.46584 0.18781 0.39538 0.0
N1052 N 0.46088 0.27809 0.34166 0.0
N1053 N 0.44811 0.20448 0.38465 0.0
H1054 H 0.04455 0.17873 0.67398 0.0
H1055 H -0.01359 0.31766 0.61054 0.0
H1056 H 0.03745 0.2566 0.74302 0.0
H1057 H 0.95561 0.22978 0.57412 0.0
H1058 H 0.02445 0.29981 0.63655 0.0
H1059 H 0.02623 0.20047 0.62076 0.0
C1060 C 0.03887 0.2003 0.67807 0.0
C1061 C 0.04298 0.21631 0.71243 0.0
C1062 C 0.01009 0.28469 0.6214 0.0
C1063 C 0.02298 0.24132 0.65163 0.0
C1064 C -0.01124 0.29497 0.60584 0.0
C1065 C 0.96731 0.27475 0.59178 0.0
C1066 C 0.00975 0.25426 0.62223 0.0
C1067 C 0.97142 0.24572 0.58595 0.0
C1068 C 0.02894 0.21281 0.64747 0.0
C1069 C 0.03531 0.24403 0.71639 0.0
N1070 N -0.00836 0.23594 0.60258 0.0
N1071 N 0.02571 0.25575 0.68623 0.0
H1072 H -0.01935 0.06086 0.10658 0.0
H1073 H 0.03114 0.92138 0.99246 0.0
H1074 H 0.05217 0.02371 0.13144 0.0
H1075 H 0.9761 0.97308 0.9501 0.0
H1076 H 0.03803 0.95705 1.04525 0.0
H1077 H 0.97697 0.02708 1.05124 0.0
C1078 C -0.00429 0.0457 0.10018 0.0
C1079 C 0.01691 0.04527 0.12333 0.0
C1080 C 0.02467 0.96073 1.02416 0.0
C1081 C 0.01259 0.00613 0.0604 0.0
C1082 C 0.02079 0.94042 0.99403 0.0
C1083 C 0.00304 0.94432 0.96692 0.0
C1084 C 0.01046 0.98494 1.0274 0.0
C1085 C -0.00994 0.9693 0.97028 0.0
C1086 C -0.00642 0.02636 0.06864 0.0
C1087 C 0.03549 0.02474 0.11429 0.0
N1088 N -0.00617 0.98851 1.00015 0.0
N1089 N 0.03287 0.00592 0.08359 0.0
H1090 H 0.17389 0.77623 0.34442 0.0
H1091 H 0.32422 0.71903 0.25757 0.0
H1092 H 0.21078 0.72175 0.41475 0.0
H1093 H 0.29136 0.77771 0.18782 0.0
H1094 H 0.28356 0.72113 0.3155 0.0
H1095 H 0.21644 0.77758 0.28728 0.0
C1096 C 0.19097 0.76441 0.34779 0.0
C1097 C 0.18865 0.74856 0.38433 0.0
C1098 C 0.2852 0.73379 0.28779 0.0
C1099 C 0.23774 0.75026 0.31883 0.0
C1100 C 0.30851 0.73268 0.25458 0.0
C1101 C 0.31118 0.74819 0.21767 0.0
C1102 C 0.26395 0.75041 0.28437 0.0
C1103 C 0.29023 0.76555 0.21573 0.0
C1104 C 0.2153 0.76527 0.3151 0.0
C1105 C 0.21145 0.73382 0.38695 0.0
N1106 N 0.26732 0.76602 0.24856 0.0
N1107 N 0.23501 0.735 0.35465 0.0
H1108 H 0.48588 0.07215 0.54998 0.0
H1109 H 0.53284 0.91516 0.54804 0.0
H1110 H 0.53242 0.03802 0.44107 0.0
H1111 H 0.4732 0.94421 0.64928 0.0
H1112 H 0.53582 0.96078 0.5095 0.0
H1113 H 0.48623 0.02766 0.58841 0.0
C1114 C 0.49682 0.05545 0.53434 0.0
C1115 C 0.50918 0.05873 0.49232 0.0
C1116 C 0.52194 0.95719 0.54 0.0
C1117 C 0.50893 0.00718 0.53605 0.0
C1118 C 0.5201 0.9311 0.56203 0.0
C1119 C 0.50278 0.92595 0.60199 0.0
C1120 C 0.50656 0.97859 0.55814 0.0
C1121 C 0.4867 0.94725 0.61854 0.0
C1122 C 0.49668 0.02989 0.55625 0.0
C1123 C 0.52294 0.03646 0.47351 0.0
N1124 N 0.48918 0.97278 0.59662 0.0
N1125 N 0.5222 0.01141 0.4955 0.0
H1126 H 0.31194 0.27171 0.86616 0.0
H1127 H 0.19867 0.21815 0.72184 0.0
H1128 H 0.32594 0.20778 0.77442 0.0
H1129 H 0.185 0.28056 0.81586 0.0
H1130 H 0.24547 0.21395 0.73991 0.0
H1131 H 0.2655 0.27551 0.84737 0.0
C1132 C 0.30525 0.25858 0.84192 0.0
C1133 C 0.32286 0.23963 0.82154 0.0
C1134 C 0.23223 0.22857 0.75656 0.0
C1135 C 0.2696 0.24351 0.80008 0.0
C1136 C 0.20556 0.23094 0.74624 0.0
C1137 C 0.18797 0.24963 0.76753 0.0
C1138 C 0.24138 0.24518 0.78816 0.0
C1139 C 0.19791 0.26585 0.79873 0.0
C1140 C 0.2787 0.26065 0.83125 0.0
C1141 C 0.31302 0.22279 0.79073 0.0
N1142 N 0.22388 0.26323 0.80812 0.0
N1143 N 0.28708 0.22515 0.78086 0.0
H1144 H 0.6998 0.2103 0.90956 0.0
H1145 H 0.79506 0.27921 0.68869 0.0
H1146 H 0.67829 0.27992 0.84383 0.0
H1147 H 0.81617 0.20904 0.75383 0.0
H1148 H 0.75264 0.28075 0.74601 0.0
H1149 H 0.7427 0.20926 0.85273 0.0
C1150 C 0.70398 0.22519 0.88319 0.0
C1151 C 0.68543 0.24516 0.8815 0.0
C1152 C 0.76663 0.26504 0.74771 0.0
C1153 C 0.73455 0.24454 0.81668 0.0
C1154 C 0.79091 0.26434 0.71507 0.0
C1155 C 0.80915 0.24401 0.71641 0.0
C1156 C 0.76057 0.24519 0.78178 0.0
C1157 C 0.80261 0.22502 0.7513 0.0
C1158 C 0.72853 0.22476 0.85082 0.0
C1159 C 0.69204 0.26418 0.84663 0.0
N1160 N 0.77895 0.22602 0.78237 0.0
N1161 N 0.71594 0.26344 0.81583 0.0
H1162 H 0.825 0.70806 0.28487 0.0
H1163 H 0.67993 0.77922 0.32933 0.0
H1164 H 0.81353 0.77977 0.36485 0.0
H1165 H 0.6964 0.71696 0.23592 0.0
H1166 H 0.72774 0.77765 0.34524 0.0
H1167 H 0.77713 0.70918 0.26847 0.0
C1168 C 0.81245 0.72414 0.29881 0.0
C1169 C 0.82322 0.7439 0.32619 0.0
C1170 C 0.72091 0.76421 0.32136 0.0
C1171 C 0.76843 0.74521 0.30782 0.0
C1172 C 0.69359 0.76504 0.31236 0.0
C1173 C 0.68416 0.74796 0.28156 0.0
C1174 C 0.739 0.74617 0.29934 0.0
C1175 C 0.70271 0.73011 0.26033 0.0
C1176 C 0.78515 0.72477 0.28945 0.0
C1177 C 0.80613 0.7643 0.34338 0.0
N1178 N 0.72928 0.72964 0.26964 0.0
N1179 N 0.77954 0.76435 0.33404 0.0
H1180 H 0.55385 0.52787 0.63132 0.0
H1181 H 0.46565 0.47339 0.45851 0.0
H1182 H 0.48042 0.56332 0.60952 0.0
H1183 H 0.531 0.42928 0.48895 0.0
H1184 H 0.47223 0.50759 0.51246 0.0
H1185 H 0.54716 0.49231 0.57839 0.0
C1186 C 0.53631 0.52812 0.61539 0.0
C1187 C 0.51777 0.54863 0.62448 0.0
C1188 C 0.48515 0.49044 0.50748 0.0
C1189 C 0.51006 0.50829 0.56402 0.0
C1190 C 0.48146 0.47098 0.47658 0.0
C1191 C 0.49782 0.44855 0.46936 0.0
C1192 C 0.50553 0.48761 0.53123 0.0
C1193 C 0.51789 0.44626 0.49374 0.0
C1194 C 0.53251 0.50787 0.58521 0.0
C1195 C 0.49543 0.54811 0.60303 0.0
N1196 N 0.52125 0.46563 0.5236 0.0
N1197 N 0.49224 0.52833 0.57375 0.0
H1198 H 0.03327 0.54864 0.95483 0.0
H1199 H 0.95729 0.43705 0.14984 0.0
H1200 H 0.95959 0.56294 1.049 0.0
H1201 H 0.0274 0.42069 1.05158 0.0
H1202 H 0.95709 0.48306 0.11323 0.0
H1203 H 0.03217 0.50198 0.99072 0.0
C1204 C 0.01707 0.54208 0.98315 0.0
C1205 C -0.00356 0.55959 0.99884 0.0
C1206 C 0.97239 0.46927 0.09962 0.0
C1207 C -0.00524 0.50626 1.03991 0.0
C1208 C 0.97231 0.44293 0.12042 0.0
C1209 C -0.0075 0.42516 0.10387 0.0
C1210 C -0.00719 0.47778 0.06212 0.0
C1211 C 0.01161 0.43388 0.06565 0.0
C1212 C 0.01627 0.51538 1.00355 0.0
C1213 C 0.97582 0.55001 1.03566 0.0
N1214 N 0.01143 0.45956 1.04627 0.0
N1215 N 0.97545 0.52406 0.05484 0.0
H1216 H 0.07543 0.10964 0.45556 0.0
H1217 H 0.10663 0.2462 0.59977 0.0
H1218 H 0.07516 0.1998 0.42288 0.0
H1219 H 0.10966 0.15689 0.63245 0.0
H1220 H 0.09575 0.22953 0.5349 0.0
H1221 H 0.08859 0.12624 0.51946 0.0
C1222 C 0.07827 0.13294 0.46144 0.0
C1223 C 0.07394 0.15316 0.43312 0.0
C1224 C 0.09898 0.21353 0.55605 0.0
C1225 C 0.08893 0.17247 0.50744 0.0
C1226 C 0.10532 0.2231 0.59332 0.0
C1227 C 0.10931 0.20308 0.62211 0.0
C1228 C 0.09649 0.18354 0.54685 0.0
C1229 C 0.10707 0.17333 0.61143 0.0
C1230 C 0.08566 0.14241 0.4983 0.0
C1231 C 0.07763 0.18307 0.44354 0.0
N1232 N 0.10077 0.16453 0.57498 0.0
N1233 N 0.08482 0.19167 0.4795 0.0
H1234 H 0.12692 0.86713 0.68619 0.0
H1235 H 0.02424 0.79156 0.88339 0.0
H1236 H 0.10327 0.77227 0.7046 0.0
H1237 H 0.07439 0.88044 0.88082 0.0
H1238 H 0.0599 0.78187 0.82297 0.0
H1239 H 0.11457 0.87176 0.76001 0.0
C1240 C 0.11953 0.8473 0.70586 0.0
C1241 C 0.11553 0.81933 0.68941 0.0
C1242 C 0.06379 0.80323 0.83625 0.0
C1243 C 0.10133 0.82435 0.77356 0.0
C1244 C 0.04351 0.80865 0.87082 0.0
C1245 C 0.04654 0.83681 0.88654 0.0
C1246 C 0.0864 0.82659 0.81655 0.0
C1247 C 0.07154 0.85842 0.86931 0.0
C1248 C 0.11278 0.84991 0.74795 0.0
C1249 C 0.10649 0.79428 0.71609 0.0
N1250 N 0.09015 0.85315 0.83433 0.0
N1251 N 0.0991 0.7974 0.75686 0.0
H1252 H 0.37515 0.75759 0.98263 0.0
H1253 H 0.49469 0.87007 0.82324 0.0
H1254 H 0.42152 0.83772 1.02396 0.0
H1255 H 0.40962 0.83366 0.7972 0.0
H1256 H 0.47458 0.85194 0.89475 0.0
H1257 H 0.39357 0.7781 0.91189 0.0
C1258 C 0.38898 0.77952 0.97698 0.0
C1259 C 0.39627 0.79607 1.00966 0.0
C1260 C 0.4603 0.84821 0.87336 0.0
C1261 C 0.41847 0.81921 0.92842 0.0
C1262 C 0.47172 0.85869 0.83254 0.0
C1263 C 0.45374 0.85407 0.80398 0.0
C1264 C 0.43098 0.83194 0.88562 0.0
C1265 C 0.42424 0.83844 0.81802 0.0
C1266 C 0.39952 0.79119 0.93657 0.0
C1267 C 0.41478 0.82427 1.00005 0.0
N1268 N 0.414 0.82765 0.85742 0.0
N1269 N 0.42548 0.83471 0.96054 0.0
H1270 H 0.39169 0.16924 0.2709 0.0
H1271 H 0.40843 0.10159 1.05195 0.0
H1272 H 0.38472 0.07608 0.25162 0.0
H1273 H 0.39833 0.19146 0.07418 0.0
H1274 H 0.39941 0.09171 0.12529 0.0
H1275 H 0.39202 0.17767 0.19926 0.0
C1276 C 0.38954 0.15051 0.25164 0.0
C1277 C 0.38828 0.12198 0.26684 0.0
C1278 C 0.3991 0.11356 0.11408 0.0
C1279 C 0.38936 0.1314 0.18506 0.0
C1280 C 0.40434 0.11923 0.07227 0.0
C1281 C 0.40424 0.1474 0.05697 0.0
C1282 C 0.39387 0.13628 0.14071 0.0
C1283 C 0.39915 0.16956 0.0846 0.0
C1284 C 0.38988 0.1553 0.21081 0.0
C1285 C 0.38553 0.09838 0.24094 0.0
N1286 N 0.3942 0.16352 0.12515 0.0
N1287 N 0.38662 0.10368 0.20102 0.0
H1288 H 0.89006 0.74833 0.5082 0.0
H1289 H 0.93892 0.88123 0.6499 0.0
H1290 H 0.90579 0.84022 0.46998 0.0
H1291 H 0.9087 0.79035 0.69395 0.0
H1292 H 0.92927 0.86665 0.58333 0.0
H1293 H 0.89853 0.76317 0.57512 0.0
C1294 C 0.89501 0.77166 0.51382 0.0
C1295 C 0.89685 0.79295 0.48293 0.0
C1296 C 0.92468 0.84988 0.60756 0.0
C1297 C 0.90719 0.81028 0.56038 0.0
C1298 C 0.93038 0.85818 0.64575 0.0
C1299 C 0.92462 0.83714 0.67831 0.0
C1300 C 0.91334 0.82013 0.60111 0.0
C1301 C 0.91318 0.80762 0.67044 0.0
C1302 C 0.89995 0.78015 0.55225 0.0
C1303 C 0.90377 0.82286 0.49256 0.0
N1304 N 0.9081 0.80009 0.63297 0.0
N1305 N 0.90877 0.83055 0.53006 0.0
H1306 H 0.86375 0.09191 0.44809 0.0
H1307 H 0.92027 0.1421 0.21533 0.0
H1308 H 0.86939 0.17983 0.39962 0.0
H1309 H 0.93268 0.06277 0.27022 0.0
H1310 H 0.88389 0.1484 0.27741 0.0
H1311 H 0.87107 0.07435 0.37924 0.0
C1312 C 0.86584 0.10745 0.4231 0.0
C1313 C 0.86665 0.13758 0.42965 0.0
C1314 C 0.89373 0.12901 0.27527 0.0
C1315 C 0.87568 0.11759 0.35051 0.0
C1316 C 0.91417 0.12522 0.23968 0.0
C1317 C 0.92962 0.10213 0.23822 0.0
C1318 C 0.88882 0.1094 0.30907 0.0
C1319 C 0.92137 0.08105 0.2706 0.0
C1320 C 0.87015 0.09738 0.3837 0.0
C1321 C 0.86957 0.1566 0.39588 0.0
N1322 N 0.9019 0.08547 0.30509 0.0
N1323 N 0.87454 0.1464 0.35766 0.0
H1324 H 0.62222 0.15752 0.07982 0.0
H1325 H 0.50207 0.15489 0.2898 0.0
H1326 H 0.57384 0.22751 0.10976 0.0
H1327 H 0.58009 0.11838 0.28443 0.0
H1328 H 0.52255 0.17462 0.21937 0.0
H1329 H 0.6026 0.13675 0.15017 0.0
C1330 C 0.60772 0.16871 0.10114 0.0
C1331 C 0.60009 0.19463 0.08853 0.0
C1332 C 0.53507 0.16203 0.23344 0.0
C1333 C 0.5765 0.17015 0.16918 0.0
C1334 C 0.52321 0.15042 0.27365 0.0
C1335 C 0.53916 0.1346 0.2934 0.0
C1336 C 0.5629 0.15734 0.21198 0.0
C1337 C 0.56682 0.13021 0.27065 0.0
C1338 C 0.59644 0.15675 0.14135 0.0
C1339 C 0.58082 0.2078 0.11785 0.0
N1340 N 0.57764 0.14126 0.23133 0.0
N1341 N 0.56951 0.1953 0.15631 0.0
H1342 H 0.63573 0.88411 0.84496 0.0
H1343 H 0.54578 0.84297 0.07138 0.0
H1344 H 0.54055 0.87511 0.88183 0.0
H1345 H 0.63999 0.87899 1.04066 0.0
H1346 H 0.54319 0.85566 1.00208 0.0
H1347 H 0.63811 0.88387 0.91667 0.0
C1348 C 0.61542 0.88249 0.86813 0.0
C1349 C 0.58788 0.87909 0.85757 0.0
C1350 C 0.56435 0.86123 1.01068 0.0
C1351 C 0.59034 0.87845 0.93925 0.0
C1352 C 0.56581 0.85389 1.05008 0.0
C1353 C 0.59314 0.85988 0.06142 0.0
C1354 C 0.5905 0.87416 0.98244 0.0
C1355 C 0.61847 0.8742 1.03301 0.0
C1356 C 0.61676 0.8823 0.90899 0.0
C1357 C 0.56218 0.87695 0.88874 0.0
N1358 N 0.61663 0.88052 0.99454 0.0
N1359 N 0.564 0.8763 0.92822 0.0
H1360 H 0.57285 0.70387 0.92307 0.0
H1361 H 0.6089 0.65713 0.13384 0.0
H1362 H 0.57753 0.61477 0.95465 0.0
H1363 H 0.60762 0.7468 0.10024 0.0
H1364 H 0.59825 0.64151 0.06832 0.0
H1365 H 0.58558 0.71984 0.98722 0.0
C1366 C 0.57635 0.6875 0.94344 0.0
C1367 C 0.57385 0.6577 0.93288 0.0
C1368 C 0.60049 0.66464 0.07508 0.0
C1369 C 0.58904 0.67629 1.00719 0.0
C1370 C 0.6067 0.67367 0.11262 0.0
C1371 C 0.60946 0.70348 0.12294 0.0
C1372 C 0.59673 0.68542 1.04719 0.0
C1373 C 0.60604 0.72365 0.09385 0.0
C1374 C 0.58388 0.69679 0.98016 0.0
C1375 C 0.5794 0.63797 0.96077 0.0
N1376 N 0.59979 0.71427 0.05764 0.0
N1377 N 0.58658 0.64755 0.99639 0.0
H1378 H 0.57309 0.32841 0.3778 0.0
H1379 H 0.6457 0.38806 0.15355 0.0
H1380 H 0.58161 0.41717 0.3312 0.0
H1381 H 0.62543 0.29609 0.19369 0.0
H1382 H 0.64149 0.4018 0.2239 0.0
H1383 H 0.6107 0.3201 0.31821 0.0
C1384 C 0.58398 0.34655 0.35592 0.0
C1385 C 0.57421 0.37332 0.35865 0.0
C1386 C 0.63854 0.3786 0.2173 0.0
C1387 C 0.61625 0.36392 0.29053 0.0
C1388 C 0.64106 0.3707 0.177 0.0
C1389 C 0.6349 0.34082 0.16776 0.0
C1390 C 0.62923 0.35651 0.24864 0.0
C1391 C 0.62913 0.3194 0.1996 0.0
C1392 C 0.60521 0.34177 0.32179 0.0
C1393 C 0.58852 0.39611 0.3296 0.0
N1394 N 0.62572 0.32764 0.23876 0.0
N1395 N 0.60846 0.39072 0.29623 0.0
H1396 H -0.00992 0.37381 0.32444 0.0
H1397 H 0.87629 0.25649 0.4845 0.0
H1398 H 0.9079 0.32838 0.29757 0.0
H1399 H 0.91786 0.33914 0.52546 0.0
H1400 H 0.894 0.27677 0.41368 0.0
H1401 H 0.97058 0.35625 0.39637 0.0
C1402 C 0.96786 0.36052 0.33359 0.0
C1403 C 0.95051 0.35318 0.30462 0.0
C1404 C 0.89906 0.29048 0.43826 0.0
C1405 C 0.92855 0.3318 0.38685 0.0
C1406 C 0.88891 0.27893 0.47875 0.0
C1407 C 0.89505 0.29621 0.5114 0.0
C1408 C 0.91651 0.31921 0.42989 0.0
C1409 C 0.91202 0.32509 0.5016 0.0
C1410 C 0.95679 0.3504 0.37467 0.0
C1411 C 0.92202 0.33525 0.31859 0.0
N1412 N 0.92241 0.33547 0.46197 0.0
N1413 N 0.9122 0.32492 0.35823 0.0
H1414 H 0.87798 0.59855 0.74603 0.0
H1415 H 0.9759 0.66506 0.53146 0.0
H1416 H 0.97156 0.63681 0.7252 0.0
H1417 H 0.88785 0.61136 0.54771 0.0
H1418 H 0.97624 0.65151 0.60135 0.0
H1419 H 0.88213 0.59956 0.67245 0.0
C1420 C 0.89942 0.60688 0.72591 0.0
C1421 C 0.92432 0.61816 0.74156 0.0
C1422 C 0.95704 0.64227 0.58941 0.0
C1423 C 0.92926 0.61952 0.65779 0.0
C1424 C 0.95686 0.65005 0.54963 0.0
C1425 C 0.93175 0.63945 0.53412 0.0
C1426 C 0.93173 0.62417 0.61385 0.0
C1427 C 0.9077 0.61988 0.55858 0.0
C1428 C 0.90181 0.60746 0.68399 0.0
C1429 C 0.95163 0.6287 0.71431 0.0
N1430 N 0.9081 0.6132 0.59753 0.0
N1431 N 0.95331 0.62941 0.67371 0.0
H1432 H 0.4381 0.28882 0.17552 0.0
H1433 H 0.40638 0.33439 0.96083 0.0
H1434 H 0.44142 0.37863 0.1369 0.0
H1435 H 0.40112 0.24415 0.99927 0.0
H1436 H 0.41874 0.35062 1.02522 0.0
H1437 H 0.42447 0.272 0.11203 0.0
C1438 C 0.43591 0.30513 0.15398 0.0
C1439 C 0.44108 0.33541 0.16233 0.0
C1440 C 0.41474 0.32723 1.01977 0.0
C1441 C 0.42545 0.31595 0.08839 0.0
C1442 C 0.40751 0.31786 0.98285 0.0
C1443 C 0.40238 0.2877 0.97418 0.0
C1444 C 0.41708 0.30645 1.04878 0.0
C1445 C 0.40458 0.26759 1.00431 0.0
C1446 C 0.4282 0.29541 0.11741 0.0
C1447 C 0.43823 0.35517 0.1322 0.0
N1448 N 0.41177 0.27728 1.03992 0.0
N1449 N 0.43063 0.34515 0.09701 0.0
H1450 H 0.36428 0.68019 0.89875 0.0
H1451 H 0.4346 0.56352 0.76778 0.0
H1452 H 0.36391 0.59295 0.94465 0.0
H1453 H 0.4194 0.6424 0.7153 0.0
H1454 H 0.39716 0.56813 0.82879 0.0
H1455 H 0.37404 0.66292 0.82945 0.0
C1456 C 0.36582 0.6573 0.89429 0.0
C1457 C 0.36399 0.63818 0.9275 0.0
C1458 C 0.40122 0.58402 0.80358 0.0
C1459 C 0.37498 0.61821 0.84835 0.0
C1460 C 0.42243 0.58119 0.7686 0.0
C1461 C 0.43024 0.60286 0.737 0.0
C1462 C 0.38866 0.60933 0.80741 0.0
C1463 C 0.41397 0.62533 0.73931 0.0
C1464 C 0.37111 0.64736 0.85473 0.0
C1465 C 0.36534 0.60855 0.92003 0.0
N1466 N 0.39458 0.62862 0.77464 0.0
N1467 N 0.37132 0.59965 0.88124 0.0
H1468 H 0.12639 0.65037 0.58554 0.0
H1469 H 0.009 0.65473 0.79366 0.0
H1470 H 0.08452 0.72505 0.61439 0.0
H1471 H 0.08906 0.624 0.79701 0.0
H1472 H 0.03002 0.67123 0.72228 0.0
H1473 H 0.10783 0.63202 0.65735 0.0
C1474 C 0.11354 0.66304 0.60684 0.0
C1475 C 0.10734 0.68953 0.5935 0.0
C1476 C 0.04291 0.66064 0.7385 0.0
C1477 C 0.085 0.66792 0.67565 0.0
C1478 C 0.0308 0.6509 0.77933 0.0
C1479 C 0.04711 0.6377 0.80187 0.0
C1480 C 0.0714 0.65664 0.71906 0.0
C1481 C 0.07553 0.63392 0.78113 0.0
C1482 C 0.10292 0.65251 0.64786 0.0
C1483 C 0.09025 0.70473 0.62288 0.0
N1484 N 0.08664 0.64309 0.74099 0.0
N1485 N 0.07941 0.69355 0.66203 0.0
H1486 H 0.09663 0.42464 0.36261 0.0
H1487 H 0.12281 0.30892 0.51921 0.0
H1488 H 0.11864 0.34025 0.32932 0.0
H1489 H 0.09663 0.39146 0.55368 0.0
H1490 H 0.1269 0.3225 0.44803 0.0
H1491 H 0.10315 0.41585 0.43113 0.0
C1492 C 0.1032 0.40442 0.3697 0.0
C1493 C 0.10681 0.38298 0.3406 0.0
C1494 C 0.12041 0.33772 0.47111 0.0
C1495 C 0.11407 0.37267 0.41865 0.0
C1496 C 0.1178 0.32987 0.51175 0.0
C1497 C 0.10901 0.34898 0.54231 0.0
C1498 C 0.1141 0.36484 0.46101 0.0
C1499 C 0.10353 0.37615 0.53097 0.0
C1500 C 0.10691 0.39941 0.40872 0.0
C1501 C 0.11574 0.35736 0.35092 0.0
N1502 N 0.10597 0.3832 0.49116 0.0
N1503 N 0.11872 0.35274 0.38936 0.0
loop_
_geom_bond_atom_site_label_1
_geom_bond_atom_site_label_2
_geom_bond_distance
_geom_bond_site_symmetry_2
_ccdc_geom_bond_type
Gd0 C3 2.818 . S
Gd0 O20 2.377 . S
Gd0 O22 2.448 . S
Gd0 O23 2.506 . S
Gd0 O24 2.435 . S
Gd0 O25 2.717 . S
Gd0 O27 2.395 . S
Gd0 O31 2.327 . S
Gd1 C12 2.818 . S
Gd1 O21 2.395 . S
Gd1 O25 2.327 1_655 S
Gd1 O26 2.377 1_655 S
Gd1 O28 2.448 . S
Gd1 O29 2.506 . S
Gd1 O30 2.435 1_655 S
Gd1 O31 2.717 1_655 S
C2 O20 1.240 1_655 S
C2 O21 1.240 . S
C3 Gd0 2.818 . S
C3 C4 1.510 . S
C3 O22 1.249 . S
C3 O23 1.252 . S
C4 C3 1.510 . S
C4 C5 1.404 . S
C4 C6 1.352 . S
C5 C4 1.404 . S
C5 C9 1.389 . S
C5 H32 0.930 . S
C6 C4 1.352 . S
C6 C8 1.374 . S
C6 H33 0.931 . S
C7 C8 1.359 . S
C7 C9 1.364 . S
C8 C6 1.374 . S
C8 C7 1.359 . S
C8 H34 0.931 . S
C9 C5 1.389 . S
C9 C7 1.364 . S
C9 H35 0.931 . S
C10 O24 1.256 . S
C10 O25 1.257 . S
C11 O26 1.240 . S
C11 O27 1.240 . S
C12 Gd1 2.818 . S
C12 C13 1.510 1_554 S
C12 O28 1.249 . S
C12 O29 1.252 . S
C13 C12 1.510 1_556 S
C13 C14 1.404 . S
C13 C15 1.352 . S
C14 C13 1.404 . S
C14 C18 1.389 . S
C14 H36 0.930 . S
C15 C13 1.352 . S
C15 C17 1.374 . S
C15 H37 0.931 . S
C16 C17 1.359 . S
C16 C18 1.364 . S
C17 C15 1.374 . S
C17 C16 1.359 . S
C17 H38 0.931 . S
C18 C14 1.389 . S
C18 C16 1.364 . S
C18 H39 0.931 . S
C19 O30 1.256 . S
C19 O31 1.257 . S
O20 Gd0 2.377 . S
O20 C2 1.240 1_455 S
O21 Gd1 2.395 . S
O21 C2 1.240 . S
O22 Gd0 2.448 . S
O22 C3 1.249 . S
O23 Gd0 2.506 . S
O23 C3 1.252 . S
O24 Gd0 2.435 . S
O24 C10 1.256 . S
O25 Gd0 2.717 . S
O25 Gd1 2.327 1_455 S
O25 C10 1.257 . S
O26 Gd1 2.377 1_455 S
O26 C11 1.240 . S
O27 Gd0 2.395 . S
O27 C11 1.240 . S
O28 Gd1 2.448 . S
O28 C12 1.249 . S
O29 Gd1 2.506 . S
O29 C12 1.252 . S
O30 Gd1 2.435 1_455 S
O30 C19 1.256 . S
O31 Gd0 2.327 . S
O31 Gd1 2.717 1_455 S
O31 C19 1.257 . S
H32 C5 0.930 . S
H33 C6 0.931 . S
H34 C8 0.931 . S
H35 C9 0.931 . S
H36 C14 0.930 . S
H37 C15 0.931 . S
H38 C17 0.931 . S
H39 C18 0.931 . S
Gd40 C43 2.818 . S
Gd40 O60 2.377 . S
Gd40 O62 2.448 . S
Gd40 O63 2.506 . S
Gd40 O64 2.435 . S
Gd40 O65 2.717 . S
Gd40 O67 2.395 . S
Gd40 O71 2.327 . S
Gd41 C52 2.818 . S
Gd41 O61 2.395 . S
Gd41 O65 2.327 . S
Gd41 O66 2.377 . S
Gd41 O68 2.448 . S
Gd41 O69 2.506 . S
Gd41 O70 2.435 . S
Gd41 O71 2.717 . S
C42 O60 1.240 . S
C42 O61 1.240 . S
C43 Gd40 2.818 . S
C43 C44 1.510 . S
C43 O62 1.249 . S
C43 O63 1.252 . S
C44 C43 1.510 . S
C44 C45 1.404 . S
C44 C46 1.352 . S
C45 C44 1.404 . S
C45 C49 1.389 . S
C45 H72 0.930 . S
C46 C44 1.352 . S
C46 C48 1.374 . S
C46 H73 0.931 . S
C47 C48 1.359 . S
C47 C49 1.364 . S
C48 C46 1.374 . S
C48 C47 1.359 . S
C48 H74 0.931 . S
C49 C45 1.389 . S
C49 C47 1.364 . S
C49 H75 0.931 . S
C50 O64 1.256 . S
C50 O65 1.257 . S
C51 O66 1.240 . S
C51 O67 1.240 . S
C52 Gd41 2.818 . S
C52 C53 1.510 . S
C52 O68 1.249 . S
C52 O69 1.252 . S
C53 C52 1.510 . S
C53 C54 1.404 . S
C53 C55 1.352 . S
C54 C53 1.404 . S
C54 C58 1.389 . S
C54 H76 0.930 . S
C55 C53 1.352 . S
C55 C57 1.374 . S
C55 H77 0.931 . S
C56 C57 1.359 . S
C56 C58 1.364 . S
C57 C55 1.374 . S
C57 C56 1.359 . S
C57 H78 0.931 . S
C58 C54 1.389 . S
C58 C56 1.364 . S
C58 H79 0.931 . S
C59 O70 1.256 . S
C59 O71 1.257 . S
O60 Gd40 2.377 . S
O60 C42 1.240 . S
O61 Gd41 2.395 . S
O61 C42 1.240 . S
O62 Gd40 2.448 . S
O62 C43 1.249 . S
O63 Gd40 2.506 . S
O63 C43 1.252 . S
O64 Gd40 2.435 . S
O64 C50 1.256 . S
O65 Gd40 2.717 . S
O65 Gd41 2.327 . S
O65 C50 1.257 . S
O66 Gd41 2.377 . S
O66 C51 1.240 . S
O67 Gd40 2.395 . S
O67 C51 1.240 . S
O68 Gd41 2.448 . S
O68 C52 1.249 . S
O69 Gd41 2.506 . S
O69 C52 1.252 . S
O70 Gd41 2.435 . S
O70 C59 1.256 . S
O71 Gd40 2.327 . S
O71 Gd41 2.717 . S
O71 C59 1.257 . S
H72 C45 0.930 . S
H73 C46 0.931 . S
H74 C48 0.931 . S
H75 C49 0.931 . S
H76 C54 0.930 . S
H77 C55 0.931 . S
H78 C57 0.931 . S
H79 C58 0.931 . S
Gd80 C83 2.818 . S
Gd80 O100 2.377 . S
Gd80 O102 2.448 . S
Gd80 O103 2.506 . S
Gd80 O104 2.435 . S
Gd80 O105 2.717 . S
Gd80 O107 2.395 . S
Gd80 O111 2.327 . S
Gd81 C92 2.818 . S
Gd81 O101 2.395 . S
Gd81 O105 2.327 . S
Gd81 O106 2.377 . S
Gd81 O108 2.448 . S
Gd81 O109 2.506 . S
Gd81 O110 2.435 . S
Gd81 O111 2.717 . S
C82 O100 1.240 . S
C82 O101 1.240 . S
C83 Gd80 2.818 . S
C83 C84 1.510 . S
C83 O102 1.249 . S
C83 O103 1.252 . S
C84 C83 1.510 . S
C84 C85 1.404 . S
C84 C86 1.352 . S
C85 C84 1.404 . S
C85 C89 1.389 . S
C85 H112 0.930 . S
C86 C84 1.352 . S
C86 C88 1.374 . S
C86 H113 0.931 . S
C87 C88 1.359 . S
C87 C89 1.364 . S
C88 C86 1.374 . S
C88 C87 1.359 . S
C88 H114 0.931 . S
C89 C85 1.389 . S
C89 C87 1.364 . S
C89 H115 0.931 . S
C90 O104 1.256 . S
C90 O105 1.257 . S
C91 O106 1.240 . S
C91 O107 1.240 . S
C92 Gd81 2.818 . S
C92 C93 1.510 . S
C92 O108 1.249 . S
C92 O109 1.252 . S
C93 C92 1.510 . S
C93 C94 1.404 . S
C93 C95 1.352 . S
C94 C93 1.404 . S
C94 C98 1.389 . S
C94 H116 0.930 . S
C95 C93 1.352 . S
C95 C97 1.374 . S
C95 H117 0.931 . S
C96 C97 1.359 . S
C96 C98 1.364 . S
C97 C95 1.374 . S
C97 C96 1.359 . S
C97 H118 0.931 . S
C98 C94 1.389 . S
C98 C96 1.364 . S
C98 H119 0.931 . S
C99 O110 1.256 . S
C99 O111 1.257 . S
O100 Gd80 2.377 . S
O100 C82 1.240 . S
O101 Gd81 2.395 . S
O101 C82 1.240 . S
O102 Gd80 2.448 . S
O102 C83 1.249 . S
O103 Gd80 2.506 . S
O103 C83 1.252 . S
O104 Gd80 2.435 . S
O104 C90 1.256 . S
O105 Gd80 2.717 . S
O105 Gd81 2.327 . S
O105 C90 1.257 . S
O106 Gd81 2.377 . S
O106 C91 1.240 . S
O107 Gd80 2.395 . S
O107 C91 1.240 . S
O108 Gd81 2.448 . S
O108 C92 1.249 . S
O109 Gd81 2.506 . S
O109 C92 1.252 . S
O110 Gd81 2.435 . S
O110 C99 1.256 . S
O111 Gd80 2.327 . S
O111 Gd81 2.717 . S
O111 C99 1.257 . S
H112 C85 0.930 . S
H113 C86 0.931 . S
H114 C88 0.931 . S
H115 C89 0.931 . S
H116 C94 0.930 . S
H117 C95 0.931 . S
H118 C97 0.931 . S
H119 C98 0.931 . S
Gd120 C123 2.818 . S
Gd120 O140 2.377 . S
Gd120 O142 2.448 . S
Gd120 O143 2.506 . S
Gd120 O144 2.435 . S
Gd120 O145 2.717 . S
Gd120 O147 2.395 . S
Gd120 O151 2.327 . S
Gd121 C132 2.818 . S
Gd121 O141 2.395 . S
Gd121 O145 2.327 . S
Gd121 O146 2.377 . S
Gd121 O148 2.448 . S
Gd121 O149 2.506 . S
Gd121 O150 2.435 . S
Gd121 O151 2.717 . S
C122 O140 1.240 . S
C122 O141 1.240 . S
C123 Gd120 2.818 . S
C123 C124 1.510 . S
C123 O142 1.249 . S
C123 O143 1.252 . S
C124 C123 1.510 . S
C124 C125 1.404 . S
C124 C126 1.352 . S
C125 C124 1.404 . S
C125 C129 1.389 1_556 S
C125 H152 0.930 . S
C126 C124 1.352 . S
C126 C128 1.374 1_556 S
C126 H153 0.931 . S
C127 C128 1.359 . S
C127 C129 1.364 . S
C128 C126 1.374 1_554 S
C128 C127 1.359 . S
C128 H154 0.931 . S
C129 C125 1.389 1_554 S
C129 C127 1.364 . S
C129 H155 0.931 . S
C130 O144 1.256 . S
C130 O145 1.257 . S
C131 O146 1.240 . S
C131 O147 1.240 . S
C132 Gd121 2.818 . S
C132 C133 1.510 . S
C132 O148 1.249 . S
C132 O149 1.252 . S
C133 C132 1.510 . S
C133 C134 1.404 . S
C133 C135 1.352 . S
C134 C133 1.404 . S
C134 C138 1.389 . S
C134 H156 0.930 . S
C135 C133 1.352 . S
C135 C137 1.374 . S
C135 H157 0.931 . S
C136 C137 1.359 . S
C136 C138 1.364 . S
C137 C135 1.374 . S
C137 C136 1.359 . S
C137 H158 0.931 . S
C138 C134 1.389 . S
C138 C136 1.364 . S
C138 H159 0.931 . S
C139 O150 1.256 . S
C139 O151 1.257 . S
O140 Gd120 2.377 . S
O140 C122 1.240 . S
O141 Gd121 2.395 . S
O141 C122 1.240 . S
O142 Gd120 2.448 . S
O142 C123 1.249 . S
O143 Gd120 2.506 . S
O143 C123 1.252 . S
O144 Gd120 2.435 . S
O144 C130 1.256 . S
O145 Gd120 2.717 . S
O145 Gd121 2.327 . S
O145 C130 1.257 . S
O146 Gd121 2.377 . S
O146 C131 1.240 . S
O147 Gd120 2.395 . S
O147 C131 1.240 . S
O148 Gd121 2.448 . S
O148 C132 1.249 . S
O149 Gd121 2.506 . S
O149 C132 1.252 . S
O150 Gd121 2.435 . S
O150 C139 1.256 . S
O151 Gd120 2.327 . S
O151 Gd121 2.717 . S
O151 C139 1.257 . S
H152 C125 0.930 . S
H153 C126 0.931 . S
H154 C128 0.931 . S
H155 C129 0.931 . S
H156 C134 0.930 . S
H157 C135 0.931 . S
H158 C137 0.931 . S
H159 C138 0.931 . S
Gd160 C163 2.818 . S
Gd160 O180 2.377 . S
Gd160 O182 2.448 . S
Gd160 O183 2.506 . S
Gd160 O184 2.435 . S
Gd160 O185 2.717 . S
Gd160 O187 2.395 . S
Gd160 O191 2.327 . S
Gd161 C172 2.818 . S
Gd161 O181 2.395 . S
Gd161 O185 2.327 1_655 S
Gd161 O186 2.377 1_655 S
Gd161 O188 2.448 . S
Gd161 O189 2.506 . S
Gd161 O190 2.435 . S
Gd161 O191 2.717 1_655 S
C162 O180 1.240 1_655 S
C162 O181 1.240 . S
C163 Gd160 2.818 . S
C163 C164 1.510 1_556 S
C163 O182 1.249 . S
C163 O183 1.252 . S
C164 C163 1.510 1_554 S
C164 C165 1.404 . S
C164 C166 1.352 . S
C165 C164 1.404 . S
C165 C169 1.389 . S
C165 H192 0.930 . S
C166 C164 1.352 . S
C166 C168 1.374 . S
C166 H193 0.931 . S
C167 C168 1.359 . S
C167 C169 1.364 . S
C168 C166 1.374 . S
C168 C167 1.359 . S
C168 H194 0.931 . S
C169 C165 1.389 . S
C169 C167 1.364 . S
C169 H195 0.931 . S
C170 O184 1.256 . S
C170 O185 1.257 . S
C171 O186 1.240 . S
C171 O187 1.240 . S
C172 Gd161 2.818 . S
C172 C173 1.510 . S
C172 O188 1.249 . S
C172 O189 1.252 . S
C173 C172 1.510 . S
C173 C174 1.404 . S
C173 C175 1.352 . S
C174 C173 1.404 . S
C174 C178 1.389 . S
C174 H196 0.930 . S
C175 C173 1.352 . S
C175 C177 1.374 . S
C175 H197 0.931 . S
C176 C177 1.359 . S
C176 C178 1.364 . S
C177 C175 1.374 . S
C177 C176 1.359 . S
C177 H198 0.931 . S
C178 C174 1.389 . S
C178 C176 1.364 . S
C178 H199 0.931 . S
C179 O190 1.256 1_455 S
C179 O191 1.257 . S
O180 Gd160 2.377 . S
O180 C162 1.240 1_455 S
O181 Gd161 2.395 . S
O181 C162 1.240 . S
O182 Gd160 2.448 . S
O182 C163 1.249 . S
O183 Gd160 2.506 . S
O183 C163 1.252 . S
O184 Gd160 2.435 . S
O184 C170 1.256 . S
O185 Gd160 2.717 . S
O185 Gd161 2.327 1_455 S
O185 C170 1.257 . S
O186 Gd161 2.377 1_455 S
O186 C171 1.240 . S
O187 Gd160 2.395 . S
O187 C171 1.240 . S
O188 Gd161 2.448 . S
O188 C172 1.249 . S
O189 Gd161 2.506 . S
O189 C172 1.252 . S
O190 Gd161 2.435 . S
O190 C179 1.256 1_655 S
O191 Gd160 2.327 . S
O191 Gd161 2.717 1_455 S
O191 C179 1.257 . S
H192 C165 0.930 . S
H193 C166 0.931 . S
H194 C168 0.931 . S
H195 C169 0.931 . S
H196 C174 0.930 . S
H197 C175 0.931 . S
H198 C177 0.931 . S
H199 C178 0.931 . S
Gd200 C203 2.818 . S
Gd200 O220 2.377 . S
Gd200 O222 2.448 . S
Gd200 O223 2.506 . S
Gd200 O224 2.435 . S
Gd200 O225 2.717 . S
Gd200 O227 2.395 . S
Gd200 O231 2.327 . S
Gd201 C212 2.818 . S
Gd201 O221 2.395 . S
Gd201 O225 2.327 . S
Gd201 O226 2.377 . S
Gd201 O228 2.448 . S
Gd201 O229 2.506 . S
Gd201 O230 2.435 . S
Gd201 O231 2.717 . S
C202 O220 1.240 . S
C202 O221 1.240 . S
C203 Gd200 2.818 . S
C203 C204 1.510 . S
C203 O222 1.249 . S
C203 O223 1.252 . S
C204 C203 1.510 . S
C204 C205 1.404 . S
C204 C206 1.352 . S
C205 C204 1.404 . S
C205 C209 1.389 . S
C205 H232 0.930 . S
C206 C204 1.352 . S
C206 C208 1.374 . S
C206 H233 0.931 . S
C207 C208 1.359 . S
C207 C209 1.364 . S
C208 C206 1.374 . S
C208 C207 1.359 . S
C208 H234 0.931 . S
C209 C205 1.389 . S
C209 C207 1.364 . S
C209 H235 0.931 . S
C210 O224 1.256 . S
C210 O225 1.257 . S
C211 O226 1.240 . S
C211 O227 1.240 . S
C212 Gd201 2.818 . S
C212 C213 1.510 1_554 S
C212 O228 1.249 . S
C212 O229 1.252 . S
C213 C212 1.510 1_556 S
C213 C214 1.404 . S
C213 C215 1.352 . S
C214 C213 1.404 . S
C214 C218 1.389 . S
C214 H236 0.930 . S
C215 C213 1.352 . S
C215 C217 1.374 . S
C215 H237 0.931 . S
C216 C217 1.359 . S
C216 C218 1.364 . S
C217 C215 1.374 . S
C217 C216 1.359 . S
C217 H238 0.931 . S
C218 C214 1.389 . S
C218 C216 1.364 . S
C218 H239 0.931 . S
C219 O230 1.256 . S
C219 O231 1.257 . S
O220 Gd200 2.377 . S
O220 C202 1.240 . S
O221 Gd201 2.395 . S
O221 C202 1.240 . S
O222 Gd200 2.448 . S
O222 C203 1.249 . S
O223 Gd200 2.506 . S
O223 C203 1.252 . S
O224 Gd200 2.435 . S
O224 C210 1.256 . S
O225 Gd200 2.717 . S
O225 Gd201 2.327 . S
O225 C210 1.257 . S
O226 Gd201 2.377 . S
O226 C211 1.240 . S
O227 Gd200 2.395 . S
O227 C211 1.240 . S
O228 Gd201 2.448 . S
O228 C212 1.249 . S
O229 Gd201 2.506 . S
O229 C212 1.252 . S
O230 Gd201 2.435 . S
O230 C219 1.256 . S
O231 Gd200 2.327 . S
O231 Gd201 2.717 . S
O231 C219 1.257 . S
H232 C205 0.930 . S
H233 C206 0.931 . S
H234 C208 0.931 . S
H235 C209 0.931 . S
H236 C214 0.930 . S
H237 C215 0.931 . S
H238 C217 0.931 . S
H239 C218 0.931 . S
Gd240 C243 2.818 . S
Gd240 O260 2.377 . S
Gd240 O262 2.448 . S
Gd240 O263 2.506 . S
Gd240 O264 2.435 . S
Gd240 O265 2.717 . S
Gd240 O267 2.395 . S
Gd240 O271 2.327 . S
Gd241 C252 2.818 . S
Gd241 O261 2.395 . S
Gd241 O265 2.327 . S
Gd241 O266 2.377 . S
Gd241 O268 2.448 . S
Gd241 O269 2.506 . S
Gd241 O270 2.435 . S
Gd241 O271 2.717 . S
C242 O260 1.240 . S
C242 O261 1.240 . S
C243 Gd240 2.818 . S
C243 C244 1.510 . S
C243 O262 1.249 . S
C243 O263 1.252 . S
C244 C243 1.510 . S
C244 C245 1.404 . S
C244 C246 1.352 . S
C245 C244 1.404 . S
C245 C249 1.389 . S
C245 H272 0.930 . S
C246 C244 1.352 . S
C246 C248 1.374 . S
C246 H273 0.931 . S
C247 C248 1.359 . S
C247 C249 1.364 . S
C248 C246 1.374 . S
C248 C247 1.359 . S
C248 H274 0.931 . S
C249 C245 1.389 . S
C249 C247 1.364 . S
C249 H275 0.931 . S
C250 O264 1.256 . S
C250 O265 1.257 . S
C251 O266 1.240 . S
C251 O267 1.240 . S
C252 Gd241 2.818 . S
C252 C253 1.510 . S
C252 O268 1.249 . S
C252 O269 1.252 . S
C253 C252 1.510 . S
C253 C254 1.404 . S
C253 C255 1.352 . S
C254 C253 1.404 . S
C254 C258 1.389 . S
C254 H276 0.930 . S
C255 C253 1.352 . S
C255 C257 1.374 . S
C255 H277 0.931 . S
C256 C257 1.359 . S
C256 C258 1.364 . S
C257 C255 1.374 . S
C257 C256 1.359 . S
C257 H278 0.931 . S
C258 C254 1.389 . S
C258 C256 1.364 . S
C258 H279 0.931 . S
C259 O270 1.256 . S
C259 O271 1.257 . S
O260 Gd240 2.377 . S
O260 C242 1.240 . S
O261 Gd241 2.395 . S
O261 C242 1.240 . S
O262 Gd240 2.448 . S
O262 C243 1.249 . S
O263 Gd240 2.506 . S
O263 C243 1.252 . S
O264 Gd240 2.435 . S
O264 C250 1.256 . S
O265 Gd240 2.717 . S
O265 Gd241 2.327 . S
O265 C250 1.257 . S
O266 Gd241 2.377 . S
O266 C251 1.240 . S
O267 Gd240 2.395 . S
O267 C251 1.240 . S
O268 Gd241 2.448 . S
O268 C252 1.249 . S
O269 Gd241 2.506 . S
O269 C252 1.252 . S
O270 Gd241 2.435 . S
O270 C259 1.256 . S
O271 Gd240 2.327 . S
O271 Gd241 2.717 . S
O271 C259 1.257 . S
H272 C245 0.930 . S
H273 C246 0.931 . S
H274 C248 0.931 . S
H275 C249 0.931 . S
H276 C254 0.930 . S
H277 C255 0.931 . S
H278 C257 0.931 . S
H279 C258 0.931 . S
Gd280 C283 2.818 . S
Gd280 O300 2.377 . S
Gd280 O302 2.448 . S
Gd280 O303 2.506 . S
Gd280 O304 2.435 . S
Gd280 O305 2.717 . S
Gd280 O307 2.395 . S
Gd280 O311 2.327 . S
Gd281 C292 2.818 . S
Gd281 O301 2.395 . S
Gd281 O305 2.327 . S
Gd281 O306 2.377 . S
Gd281 O308 2.448 . S
Gd281 O309 2.506 . S
Gd281 O310 2.435 . S
Gd281 O311 2.717 . S
C282 O300 1.240 . S
C282 O301 1.240 . S
C283 Gd280 2.818 . S
C283 C284 1.510 . S
C283 O302 1.249 . S
C283 O303 1.252 . S
C284 C283 1.510 . S
C284 C285 1.404 . S
C284 C286 1.352 . S
C285 C284 1.404 . S
C285 C289 1.389 . S
C285 H312 0.930 . S
C286 C284 1.352 . S
C286 C288 1.374 . S
C286 H313 0.931 . S
C287 C288 1.359 . S
C287 C289 1.364 . S
C288 C286 1.374 . S
C288 C287 1.359 . S
C288 H314 0.931 . S
C289 C285 1.389 . S
C289 C287 1.364 . S
C289 H315 0.931 . S
C290 O304 1.256 . S
C290 O305 1.257 . S
C291 O306 1.240 . S
C291 O307 1.240 . S
C292 Gd281 2.818 . S
C292 C293 1.510 . S
C292 O308 1.249 . S
C292 O309 1.252 . S
C293 C292 1.510 . S
C293 C294 1.404 . S
C293 C295 1.352 . S
C294 C293 1.404 . S
C294 C298 1.389 . S
C294 H316 0.930 . S
C295 C293 1.352 . S
C295 C297 1.374 . S
C295 H317 0.931 . S
C296 C297 1.359 . S
C296 C298 1.364 . S
C297 C295 1.374 . S
C297 C296 1.359 . S
C297 H318 0.931 . S
C298 C294 1.389 . S
C298 C296 1.364 . S
C298 H319 0.931 . S
C299 O310 1.256 . S
C299 O311 1.257 . S
O300 Gd280 2.377 . S
O300 C282 1.240 . S
O301 Gd281 2.395 . S
O301 C282 1.240 . S
O302 Gd280 2.448 . S
O302 C283 1.249 . S
O303 Gd280 2.506 . S
O303 C283 1.252 . S
O304 Gd280 2.435 . S
O304 C290 1.256 . S
O305 Gd280 2.717 . S
O305 Gd281 2.327 . S
O305 C290 1.257 . S
O306 Gd281 2.377 . S
O306 C291 1.240 . S
O307 Gd280 2.395 . S
O307 C291 1.240 . S
O308 Gd281 2.448 . S
O308 C292 1.249 . S
O309 Gd281 2.506 . S
O309 C292 1.252 . S
O310 Gd281 2.435 . S
O310 C299 1.256 . S
O311 Gd280 2.327 . S
O311 Gd281 2.717 . S
O311 C299 1.257 . S
H312 C285 0.930 . S
H313 C286 0.931 . S
H314 C288 0.931 . S
H315 C289 0.931 . S
H316 C294 0.930 . S
H317 C295 0.931 . S
H318 C297 0.931 . S
H319 C298 0.931 . S
Gd320 C323 2.818 . S
Gd320 O340 2.377 . S
Gd320 O342 2.448 . S
Gd320 O343 2.506 . S
Gd320 O344 2.435 . S
Gd320 O345 2.717 . S
Gd320 O347 2.395 . S
Gd320 O351 2.327 . S
Gd321 C332 2.818 . S
Gd321 O341 2.395 . S
Gd321 O345 2.327 . S
Gd321 O346 2.377 . S
Gd321 O348 2.448 . S
Gd321 O349 2.506 . S
Gd321 O350 2.435 . S
Gd321 O351 2.717 . S
C322 O340 1.240 . S
C322 O341 1.240 . S
C323 Gd320 2.818 . S
C323 C324 1.510 . S
C323 O342 1.249 . S
C323 O343 1.252 . S
C324 C323 1.510 . S
C324 C325 1.404 . S
C324 C326 1.352 . S
C325 C324 1.404 . S
C325 C329 1.389 . S
C325 H352 0.930 . S
C326 C324 1.352 . S
C326 C328 1.374 . S
C326 H353 0.931 . S
C327 C328 1.359 . S
C327 C329 1.364 . S
C328 C326 1.374 . S
C328 C327 1.359 . S
C328 H354 0.931 . S
C329 C325 1.389 . S
C329 C327 1.364 . S
C329 H355 0.931 . S
C330 O344 1.256 . S
C330 O345 1.257 . S
C331 O346 1.240 . S
C331 O347 1.240 . S
C332 Gd321 2.818 . S
C332 C333 1.510 . S
C332 O348 1.249 . S
C332 O349 1.252 . S
C333 C332 1.510 . S
C333 C334 1.404 . S
C333 C335 1.352 . S
C334 C333 1.404 . S
C334 C338 1.389 . S
C334 H356 0.930 . S
C335 C333 1.352 . S
C335 C337 1.374 . S
C335 H357 0.931 . S
C336 C337 1.359 . S
C336 C338 1.364 . S
C337 C335 1.374 . S
C337 C336 1.359 . S
C337 H358 0.931 . S
C338 C334 1.389 . S
C338 C336 1.364 . S
C338 H359 0.931 . S
C339 O350 1.256 . S
C339 O351 1.257 . S
O340 Gd320 2.377 . S
O340 C322 1.240 . S
O341 Gd321 2.395 . S
O341 C322 1.240 . S
O342 Gd320 2.448 . S
O342 C323 1.249 . S
O343 Gd320 2.506 . S
O343 C323 1.252 . S
O344 Gd320 2.435 . S
O344 C330 1.256 . S
O345 Gd320 2.717 . S
O345 Gd321 2.327 . S
O345 C330 1.257 . S
O346 Gd321 2.377 . S
O346 C331 1.240 . S
O347 Gd320 2.395 . S
O347 C331 1.240 . S
O348 Gd321 2.448 . S
O348 C332 1.249 . S
O349 Gd321 2.506 . S
O349 C332 1.252 . S
O350 Gd321 2.435 . S
O350 C339 1.256 . S
O351 Gd320 2.327 . S
O351 Gd321 2.717 . S
O351 C339 1.257 . S
H352 C325 0.930 . S
H353 C326 0.931 . S
H354 C328 0.931 . S
H355 C329 0.931 . S
H356 C334 0.930 . S
H357 C335 0.931 . S
H358 C337 0.931 . S
H359 C338 0.931 . S
Gd360 C363 2.818 . S
Gd360 O380 2.377 . S
Gd360 O382 2.448 . S
Gd360 O383 2.506 . S
Gd360 O384 2.435 . S
Gd360 O385 2.717 . S
Gd360 O387 2.395 . S
Gd360 O391 2.327 . S
Gd361 C372 2.818 . S
Gd361 O381 2.395 . S
Gd361 O385 2.327 . S
Gd361 O386 2.377 . S
Gd361 O388 2.448 . S
Gd361 O389 2.506 . S
Gd361 O390 2.435 . S
Gd361 O391 2.717 . S
C362 O380 1.240 . S
C362 O381 1.240 . S
C363 Gd360 2.818 . S
C363 C364 1.510 . S
C363 O382 1.249 . S
C363 O383 1.252 . S
C364 C363 1.510 . S
C364 C365 1.404 . S
C364 C366 1.352 . S
C365 C364 1.404 . S
C365 C369 1.389 . S
C365 H392 0.930 . S
C366 C364 1.352 . S
C366 C368 1.374 . S
C366 H393 0.931 . S
C367 C368 1.359 . S
C367 C369 1.364 . S
C368 C366 1.374 . S
C368 C367 1.359 . S
C368 H394 0.931 . S
C369 C365 1.389 . S
C369 C367 1.364 . S
C369 H395 0.931 . S
C370 O384 1.256 . S
C370 O385 1.257 . S
C371 O386 1.240 . S
C371 O387 1.240 . S
C372 Gd361 2.818 . S
C372 C373 1.510 . S
C372 O388 1.249 . S
C372 O389 1.252 . S
C373 C372 1.510 . S
C373 C374 1.404 . S
C373 C375 1.352 . S
C374 C373 1.404 . S
C374 C378 1.389 1_554 S
C374 H396 0.930 . S
C375 C373 1.352 . S
C375 C377 1.374 1_554 S
C375 H397 0.931 . S
C376 C377 1.359 . S
C376 C378 1.364 . S
C377 C375 1.374 1_556 S
C377 C376 1.359 . S
C377 H398 0.931 . S
C378 C374 1.389 1_556 S
C378 C376 1.364 . S
C378 H399 0.931 . S
C379 O390 1.256 . S
C379 O391 1.257 . S
O380 Gd360 2.377 . S
O380 C362 1.240 . S
O381 Gd361 2.395 . S
O381 C362 1.240 . S
O382 Gd360 2.448 . S
O382 C363 1.249 . S
O383 Gd360 2.506 . S
O383 C363 1.252 . S
O384 Gd360 2.435 . S
O384 C370 1.256 . S
O385 Gd360 2.717 . S
O385 Gd361 2.327 . S
O385 C370 1.257 . S
O386 Gd361 2.377 . S
O386 C371 1.240 . S
O387 Gd360 2.395 . S
O387 C371 1.240 . S
O388 Gd361 2.448 . S
O388 C372 1.249 . S
O389 Gd361 2.506 . S
O389 C372 1.252 . S
O390 Gd361 2.435 . S
O390 C379 1.256 . S
O391 Gd360 2.327 . S
O391 Gd361 2.717 . S
O391 C379 1.257 . S
H392 C365 0.930 . S
H393 C366 0.931 . S
H394 C368 0.931 . S
H395 C369 0.931 . S
H396 C374 0.930 . S
H397 C375 0.931 . S
H398 C377 0.931 . S
H399 C378 0.931 . S
Gd400 C403 2.818 . S
Gd400 O420 2.377 . S
Gd400 O422 2.448 . S
Gd400 O423 2.506 . S
Gd400 O424 2.435 . S
Gd400 O425 2.717 . S
Gd400 O427 2.395 . S
Gd400 O431 2.327 . S
Gd401 C412 2.818 . S
Gd401 O421 2.395 . S
Gd401 O425 2.327 . S
Gd401 O426 2.377 . S
Gd401 O428 2.448 . S
Gd401 O429 2.506 . S
Gd401 O430 2.435 . S
Gd401 O431 2.717 . S
C402 O420 1.240 . S
C402 O421 1.240 . S
C403 Gd400 2.818 . S
C403 C404 1.510 1_556 S
C403 O422 1.249 . S
C403 O423 1.252 . S
C404 C403 1.510 1_554 S
C404 C405 1.404 . S
C404 C406 1.352 . S
C405 C404 1.404 . S
C405 C409 1.389 . S
C405 H432 0.930 . S
C406 C404 1.352 . S
C406 C408 1.374 . S
C406 H433 0.931 . S
C407 C408 1.359 . S
C407 C409 1.364 . S
C408 C406 1.374 . S
C408 C407 1.359 . S
C408 H434 0.931 . S
C409 C405 1.389 . S
C409 C407 1.364 . S
C409 H435 0.931 . S
C410 O424 1.256 . S
C410 O425 1.257 . S
C411 O426 1.240 . S
C411 O427 1.240 . S
C412 Gd401 2.818 . S
C412 C413 1.510 . S
C412 O428 1.249 . S
C412 O429 1.252 . S
C413 C412 1.510 . S
C413 C414 1.404 . S
C413 C415 1.352 . S
C414 C413 1.404 . S
C414 C418 1.389 . S
C414 H436 0.930 . S
C415 C413 1.352 . S
C415 C417 1.374 . S
C415 H437 0.931 . S
C416 C417 1.359 . S
C416 C418 1.364 . S
C417 C415 1.374 . S
C417 C416 1.359 . S
C417 H438 0.931 . S
C418 C414 1.389 . S
C418 C416 1.364 . S
C418 H439 0.931 . S
C419 O430 1.256 . S
C419 O431 1.257 . S
O420 Gd400 2.377 . S
O420 C402 1.240 . S
O421 Gd401 2.395 . S
O421 C402 1.240 . S
O422 Gd400 2.448 . S
O422 C403 1.249 . S
O423 Gd400 2.506 . S
O423 C403 1.252 . S
O424 Gd400 2.435 . S
O424 C410 1.256 . S
O425 Gd400 2.717 . S
O425 Gd401 2.327 . S
O425 C410 1.257 . S
O426 Gd401 2.377 . S
O426 C411 1.240 . S
O427 Gd400 2.395 . S
O427 C411 1.240 . S
O428 Gd401 2.448 . S
O428 C412 1.249 . S
O429 Gd401 2.506 . S
O429 C412 1.252 . S
O430 Gd401 2.435 . S
O430 C419 1.256 . S
O431 Gd400 2.327 . S
O431 Gd401 2.717 . S
O431 C419 1.257 . S
H432 C405 0.930 . S
H433 C406 0.931 . S
H434 C408 0.931 . S
H435 C409 0.931 . S
H436 C414 0.930 . S
H437 C415 0.931 . S
H438 C417 0.931 . S
H439 C418 0.931 . S
Gd440 C443 2.818 . S
Gd440 O460 2.377 . S
Gd440 O462 2.448 . S
Gd440 O463 2.506 . S
Gd440 O464 2.435 . S
Gd440 O465 2.717 . S
Gd440 O467 2.395 . S
Gd440 O471 2.327 . S
Gd441 C452 2.818 . S
Gd441 O461 2.395 . S
Gd441 O465 2.327 . S
Gd441 O466 2.377 . S
Gd441 O468 2.448 . S
Gd441 O469 2.506 . S
Gd441 O470 2.435 . S
Gd441 O471 2.717 . S
C442 O460 1.240 . S
C442 O461 1.240 . S
C443 Gd440 2.818 . S
C443 C444 1.510 . S
C443 O462 1.249 . S
C443 O463 1.252 . S
C444 C443 1.510 . S
C444 C445 1.404 . S
C444 C446 1.352 . S
C445 C444 1.404 . S
C445 C449 1.389 . S
C445 H472 0.930 . S
C446 C444 1.352 . S
C446 C448 1.374 . S
C446 H473 0.931 . S
C447 C448 1.359 . S
C447 C449 1.364 . S
C448 C446 1.374 . S
C448 C447 1.359 . S
C448 H474 0.931 . S
C449 C445 1.389 . S
C449 C447 1.364 . S
C449 H475 0.931 . S
C450 O464 1.256 . S
C450 O465 1.257 . S
C451 O466 1.240 . S
C451 O467 1.240 . S
C452 Gd441 2.818 . S
C452 C453 1.510 . S
C452 O468 1.249 . S
C452 O469 1.252 . S
C453 C452 1.510 . S
C453 C454 1.404 . S
C453 C455 1.352 . S
C454 C453 1.404 . S
C454 C458 1.389 . S
C454 H476 0.930 . S
C455 C453 1.352 . S
C455 C457 1.374 . S
C455 H477 0.931 . S
C456 C457 1.359 . S
C456 C458 1.364 . S
C457 C455 1.374 . S
C457 C456 1.359 . S
C457 H478 0.931 . S
C458 C454 1.389 . S
C458 C456 1.364 . S
C458 H479 0.931 . S
C459 O470 1.256 . S
C459 O471 1.257 . S
O460 Gd440 2.377 . S
O460 C442 1.240 . S
O461 Gd441 2.395 . S
O461 C442 1.240 . S
O462 Gd440 2.448 . S
O462 C443 1.249 . S
O463 Gd440 2.506 . S
O463 C443 1.252 . S
O464 Gd440 2.435 . S
O464 C450 1.256 . S
O465 Gd440 2.717 . S
O465 Gd441 2.327 . S
O465 C450 1.257 . S
O466 Gd441 2.377 . S
O466 C451 1.240 . S
O467 Gd440 2.395 . S
O467 C451 1.240 . S
O468 Gd441 2.448 . S
O468 C452 1.249 . S
O469 Gd441 2.506 . S
O469 C452 1.252 . S
O470 Gd441 2.435 . S
O470 C459 1.256 . S
O471 Gd440 2.327 . S
O471 Gd441 2.717 . S
O471 C459 1.257 . S
H472 C445 0.930 . S
H473 C446 0.931 . S
H474 C448 0.931 . S
H475 C449 0.931 . S
H476 C454 0.930 . S
H477 C455 0.931 . S
H478 C457 0.931 . S
H479 C458 0.931 . S
Gd480 C483 2.818 . S
Gd480 O500 2.377 . S
Gd480 O502 2.448 . S
Gd480 O503 2.506 . S
Gd480 O504 2.435 . S
Gd480 O505 2.717 . S
Gd480 O507 2.395 . S
Gd480 O511 2.327 . S
Gd481 C492 2.818 . S
Gd481 O501 2.395 . S
Gd481 O505 2.327 . S
Gd481 O506 2.377 . S
Gd481 O508 2.448 . S
Gd481 O509 2.506 . S
Gd481 O510 2.435 . S
Gd481 O511 2.717 . S
C482 O500 1.240 . S
C482 O501 1.240 . S
C483 Gd480 2.818 . S
C483 C484 1.510 . S
C483 O502 1.249 . S
C483 O503 1.252 . S
C484 C483 1.510 . S
C484 C485 1.404 . S
C484 C486 1.352 . S
C485 C484 1.404 . S
C485 C489 1.389 . S
C485 H512 0.930 . S
C486 C484 1.352 . S
C486 C488 1.374 . S
C486 H513 0.931 . S
C487 C488 1.359 . S
C487 C489 1.364 . S
C488 C486 1.374 . S
C488 C487 1.359 . S
C488 H514 0.931 . S
C489 C485 1.389 . S
C489 C487 1.364 . S
C489 H515 0.931 . S
C490 O504 1.256 . S
C490 O505 1.257 . S
C491 O506 1.240 . S
C491 O507 1.240 . S
C492 Gd481 2.818 . S
C492 C493 1.510 . S
C492 O508 1.249 . S
C492 O509 1.252 . S
C493 C492 1.510 . S
C493 C494 1.404 . S
C493 C495 1.352 . S
C494 C493 1.404 . S
C494 C498 1.389 . S
C494 H516 0.930 . S
C495 C493 1.352 . S
C495 C497 1.374 . S
C495 H517 0.931 . S
C496 C497 1.359 . S
C496 C498 1.364 . S
C497 C495 1.374 . S
C497 C496 1.359 . S
C497 H518 0.931 . S
C498 C494 1.389 . S
C498 C496 1.364 . S
C498 H519 0.931 . S
C499 O510 1.256 . S
C499 O511 1.257 . S
O500 Gd480 2.377 . S
O500 C482 1.240 . S
O501 Gd481 2.395 . S
O501 C482 1.240 . S
O502 Gd480 2.448 . S
O502 C483 1.249 . S
O503 Gd480 2.506 . S
O503 C483 1.252 . S
O504 Gd480 2.435 . S
O504 C490 1.256 . S
O505 Gd480 2.717 . S
O505 Gd481 2.327 . S
O505 C490 1.257 . S
O506 Gd481 2.377 . S
O506 C491 1.240 . S
O507 Gd480 2.395 . S
O507 C491 1.240 . S
O508 Gd481 2.448 . S
O508 C492 1.249 . S
O509 Gd481 2.506 . S
O509 C492 1.252 . S
O510 Gd481 2.435 . S
O510 C499 1.256 . S
O511 Gd480 2.327 . S
O511 Gd481 2.717 . S
O511 C499 1.257 . S
H512 C485 0.930 . S
H513 C486 0.931 . S
H514 C488 0.931 . S
H515 C489 0.931 . S
H516 C494 0.930 . S
H517 C495 0.931 . S
H518 C497 0.931 . S
H519 C498 0.931 . S
Gd520 C523 2.818 1_455 S
Gd520 O540 2.377 . S
Gd520 O542 2.448 1_455 S
Gd520 O543 2.506 1_455 S
Gd520 O544 2.435 . S
Gd520 O545 2.717 . S
Gd520 O547 2.395 1_455 S
Gd520 O551 2.327 . S
Gd521 C532 2.818 . S
Gd521 O541 2.395 . S
Gd521 O545 2.327 . S
Gd521 O546 2.377 . S
Gd521 O548 2.448 . S
Gd521 O549 2.506 . S
Gd521 O550 2.435 . S
Gd521 O551 2.717 . S
C522 O540 1.240 . S
C522 O541 1.240 . S
C523 Gd520 2.818 1_655 S
C523 C524 1.510 1_554 S
C523 O542 1.249 . S
C523 O543 1.252 . S
C524 C523 1.510 1_556 S
C524 C525 1.404 . S
C524 C526 1.352 . S
C525 C524 1.404 . S
C525 C529 1.389 . S
C525 H552 0.930 . S
C526 C524 1.352 . S
C526 C528 1.374 . S
C526 H553 0.931 . S
C527 C528 1.359 . S
C527 C529 1.364 . S
C528 C526 1.374 . S
C528 C527 1.359 . S
C528 H554 0.931 . S
C529 C525 1.389 . S
C529 C527 1.364 . S
C529 H555 0.931 . S
C530 O544 1.256 . S
C530 O545 1.257 . S
C531 O546 1.240 . S
C531 O547 1.240 1_455 S
C532 Gd521 2.818 . S
C532 C533 1.510 . S
C532 O548 1.249 . S
C532 O549 1.252 . S
C533 C532 1.510 . S
C533 C534 1.404 . S
C533 C535 1.352 . S
C534 C533 1.404 . S
C534 C538 1.389 . S
C534 H556 0.930 . S
C535 C533 1.352 . S
C535 C537 1.374 . S
C535 H557 0.931 . S
C536 C537 1.359 . S
C536 C538 1.364 . S
C537 C535 1.374 . S
C537 C536 1.359 . S
C537 H558 0.931 . S
C538 C534 1.389 . S
C538 C536 1.364 . S
C538 H559 0.931 . S
C539 O550 1.256 . S
C539 O551 1.257 . S
O540 Gd520 2.377 . S
O540 C522 1.240 . S
O541 Gd521 2.395 . S
O541 C522 1.240 . S
O542 Gd520 2.448 1_655 S
O542 C523 1.249 . S
O543 Gd520 2.506 1_655 S
O543 C523 1.252 . S
O544 Gd520 2.435 . S
O544 C530 1.256 . S
O545 Gd520 2.717 . S
O545 Gd521 2.327 . S
O545 C530 1.257 . S
O546 Gd521 2.377 . S
O546 C531 1.240 . S
O547 Gd520 2.395 1_655 S
O547 C531 1.240 1_655 S
O548 Gd521 2.448 . S
O548 C532 1.249 . S
O549 Gd521 2.506 . S
O549 C532 1.252 . S
O550 Gd521 2.435 . S
O550 C539 1.256 . S
O551 Gd520 2.327 . S
O551 Gd521 2.717 . S
O551 C539 1.257 . S
H552 C525 0.930 . S
H553 C526 0.931 . S
H554 C528 0.931 . S
H555 C529 0.931 . S
H556 C534 0.930 . S
H557 C535 0.931 . S
H558 C537 0.931 . S
H559 C538 0.931 . S
Gd560 C563 2.818 . S
Gd560 O580 2.377 . S
Gd560 O582 2.448 . S
Gd560 O583 2.506 . S
Gd560 O584 2.435 . S
Gd560 O585 2.717 . S
Gd560 O587 2.395 . S
Gd560 O591 2.327 . S
Gd561 C572 2.818 . S
Gd561 O581 2.395 . S
Gd561 O585 2.327 . S
Gd561 O586 2.377 . S
Gd561 O588 2.448 . S
Gd561 O589 2.506 . S
Gd561 O590 2.435 . S
Gd561 O591 2.717 . S
C562 O580 1.240 . S
C562 O581 1.240 . S
C563 Gd560 2.818 . S
C563 C564 1.510 . S
C563 O582 1.249 . S
C563 O583 1.252 . S
C564 C563 1.510 . S
C564 C565 1.404 . S
C564 C566 1.352 . S
C565 C564 1.404 . S
C565 C569 1.389 . S
C565 H592 0.930 . S
C566 C564 1.352 . S
C566 C568 1.374 . S
C566 H593 0.931 . S
C567 C568 1.359 . S
C567 C569 1.364 . S
C568 C566 1.374 . S
C568 C567 1.359 . S
C568 H594 0.931 . S
C569 C565 1.389 . S
C569 C567 1.364 . S
C569 H595 0.931 . S
C570 O584 1.256 . S
C570 O585 1.257 . S
C571 O586 1.240 . S
C571 O587 1.240 . S
C572 Gd561 2.818 . S
C572 C573 1.510 . S
C572 O588 1.249 . S
C572 O589 1.252 . S
C573 C572 1.510 . S
C573 C574 1.404 . S
C573 C575 1.352 . S
C574 C573 1.404 . S
C574 C578 1.389 . S
C574 H596 0.930 . S
C575 C573 1.352 . S
C575 C577 1.374 . S
C575 H597 0.931 . S
C576 C577 1.359 . S
C576 C578 1.364 . S
C577 C575 1.374 . S
C577 C576 1.359 . S
C577 H598 0.931 . S
C578 C574 1.389 . S
C578 C576 1.364 . S
C578 H599 0.931 . S
C579 O590 1.256 . S
C579 O591 1.257 . S
O580 Gd560 2.377 . S
O580 C562 1.240 . S
O581 Gd561 2.395 . S
O581 C562 1.240 . S
O582 Gd560 2.448 . S
O582 C563 1.249 . S
O583 Gd560 2.506 . S
O583 C563 1.252 . S
O584 Gd560 2.435 . S
O584 C570 1.256 . S
O585 Gd560 2.717 . S
O585 Gd561 2.327 . S
O585 C570 1.257 . S
O586 Gd561 2.377 . S
O586 C571 1.240 . S
O587 Gd560 2.395 . S
O587 C571 1.240 . S
O588 Gd561 2.448 . S
O588 C572 1.249 . S
O589 Gd561 2.506 . S
O589 C572 1.252 . S
O590 Gd561 2.435 . S
O590 C579 1.256 . S
O591 Gd560 2.327 . S
O591 Gd561 2.717 . S
O591 C579 1.257 . S
H592 C565 0.930 . S
H593 C566 0.931 . S
H594 C568 0.931 . S
H595 C569 0.931 . S
H596 C574 0.930 . S
H597 C575 0.931 . S
H598 C577 0.931 . S
H599 C578 0.931 . S
Gd600 C603 2.818 . S
Gd600 O620 2.377 1_655 S
Gd600 O622 2.448 . S
Gd600 O623 2.506 . S
Gd600 O624 2.435 . S
Gd600 O625 2.717 1_655 S
Gd600 O627 2.395 . S
Gd600 O631 2.327 . S
Gd601 C612 2.818 . S
Gd601 O621 2.395 . S
Gd601 O625 2.327 . S
Gd601 O626 2.377 1_455 S
Gd601 O628 2.448 . S
Gd601 O629 2.506 . S
Gd601 O630 2.435 . S
Gd601 O631 2.717 1_455 S
C602 O620 1.240 . S
C602 O621 1.240 . S
C603 Gd600 2.818 . S
C603 C604 1.510 . S
C603 O622 1.249 . S
C603 O623 1.252 . S
C604 C603 1.510 . S
C604 C605 1.404 . S
C604 C606 1.352 . S
C605 C604 1.404 . S
C605 C609 1.389 . S
C605 H632 0.930 . S
C606 C604 1.352 . S
C606 C608 1.374 . S
C606 H633 0.931 . S
C607 C608 1.359 . S
C607 C609 1.364 . S
C608 C606 1.374 . S
C608 C607 1.359 . S
C608 H634 0.931 . S
C609 C605 1.389 . S
C609 C607 1.364 . S
C609 H635 0.931 . S
C610 O624 1.256 . S
C610 O625 1.257 1_655 S
C611 O626 1.240 . S
C611 O627 1.240 . S
C612 Gd601 2.818 . S
C612 C613 1.510 1_556 S
C612 O628 1.249 . S
C612 O629 1.252 . S
C613 C612 1.510 1_554 S
C613 C614 1.404 . S
C613 C615 1.352 . S
C614 C613 1.404 . S
C614 C618 1.389 . S
C614 H636 0.930 . S
C615 C613 1.352 . S
C615 C617 1.374 . S
C615 H637 0.931 . S
C616 C617 1.359 . S
C616 C618 1.364 . S
C617 C615 1.374 . S
C617 C616 1.359 . S
C617 H638 0.931 . S
C618 C614 1.389 . S
C618 C616 1.364 . S
C618 H639 0.931 . S
C619 O630 1.256 . S
C619 O631 1.257 1_455 S
O620 Gd600 2.377 1_455 S
O620 C602 1.240 . S
O621 Gd601 2.395 . S
O621 C602 1.240 . S
O622 Gd600 2.448 . S
O622 C603 1.249 . S
O623 Gd600 2.506 . S
O623 C603 1.252 . S
O624 Gd600 2.435 . S
O624 C610 1.256 . S
O625 Gd600 2.717 1_455 S
O625 Gd601 2.327 . S
O625 C610 1.257 1_455 S
O626 Gd601 2.377 1_655 S
O626 C611 1.240 . S
O627 Gd600 2.395 . S
O627 C611 1.240 . S
O628 Gd601 2.448 . S
O628 C612 1.249 . S
O629 Gd601 2.506 . S
O629 C612 1.252 . S
O630 Gd601 2.435 . S
O630 C619 1.256 . S
O631 Gd600 2.327 . S
O631 Gd601 2.717 1_655 S
O631 C619 1.257 1_655 S
H632 C605 0.930 . S
H633 C606 0.931 . S
H634 C608 0.931 . S
H635 C609 0.931 . S
H636 C614 0.930 . S
H637 C615 0.931 . S
H638 C617 0.931 . S
H639 C618 0.931 . S
H640 C646 0.930 . S
H641 C650 0.930 . S
H642 C655 0.929 . S
H643 C653 0.929 . S
H644 C648 0.929 . S
H645 C654 0.924 1_556 S
C646 H640 0.930 . S
C646 C647 1.367 . S
C646 C654 1.392 . S
C647 C646 1.367 . S
C647 C655 1.433 . S
C648 H644 0.929 . S
C648 C650 1.378 . S
C648 C652 1.350 . S
C649 C652 1.463 . S
C649 C654 1.341 1_556 S
C649 N657 1.427 . S
C650 H641 0.930 . S
C650 C648 1.378 . S
C650 C651 1.367 . S
C651 C650 1.367 . S
C651 C653 1.433 . S
C652 C648 1.350 . S
C652 C649 1.463 . S
C652 N656 1.427 . S
C653 H643 0.929 . S
C653 C651 1.433 . S
C653 N656 1.384 . S
C654 H645 0.924 1_554 S
C654 C646 1.392 . S
C654 C649 1.341 1_554 S
C655 H642 0.929 . S
C655 C647 1.433 . S
C655 N657 1.384 1_554 S
N656 C652 1.427 . S
N656 C653 1.384 . S
N657 C649 1.427 . S
N657 C655 1.384 1_556 S
H658 C664 0.930 . S
H659 C668 0.930 . S
H660 C673 0.929 . S
H661 C671 0.929 . S
H662 C666 0.929 . S
H663 C672 0.929 . S
C664 H658 0.930 . S
C664 C665 1.367 . S
C664 C672 1.378 . S
C665 C664 1.367 . S
C665 C673 1.433 . S
C666 H662 0.929 . S
C666 C668 1.378 . S
C666 C670 1.350 . S
C667 C670 1.463 . S
C667 C672 1.350 . S
C667 N675 1.427 . S
C668 H659 0.930 . S
C668 C666 1.378 . S
C668 C669 1.367 . S
C669 C668 1.367 . S
C669 C671 1.433 . S
C670 C666 1.350 . S
C670 C667 1.463 . S
C670 N674 1.427 . S
C671 H661 0.929 . S
C671 C669 1.433 . S
C671 N674 1.384 . S
C672 H663 0.929 . S
C672 C664 1.378 . S
C672 C667 1.350 . S
C673 H660 0.929 . S
C673 C665 1.433 . S
C673 N675 1.384 . S
N674 C670 1.427 . S
N674 C671 1.384 . S
N675 C667 1.427 . S
N675 C673 1.384 . S
H676 C682 0.930 . S
H677 C686 0.930 . S
H678 C691 0.929 . S
H679 C689 0.929 . S
H680 C684 0.929 . S
H681 C690 0.929 . S
C682 H676 0.930 . S
C682 C683 1.367 . S
C682 C690 1.378 . S
C683 C682 1.367 . S
C683 C691 1.433 . S
C684 H680 0.929 . S
C684 C686 1.378 . S
C684 C688 1.350 . S
C685 C688 1.463 . S
C685 C690 1.350 . S
C685 N693 1.427 . S
C686 H677 0.930 . S
C686 C684 1.378 . S
C686 C687 1.367 . S
C687 C686 1.367 . S
C687 C689 1.433 . S
C688 C684 1.350 . S
C688 C685 1.463 . S
C688 N692 1.427 . S
C689 H679 0.929 . S
C689 C687 1.433 . S
C689 N692 1.384 . S
C690 H681 0.929 . S
C690 C682 1.378 . S
C690 C685 1.350 . S
C691 H678 0.929 . S
C691 C683 1.433 . S
C691 N693 1.384 . S
N692 C688 1.427 . S
N692 C689 1.384 . S
N693 C685 1.427 . S
N693 C691 1.384 . S
H694 C700 0.930 . S
H695 C704 0.930 . S
H696 C709 0.929 . S
H697 C707 0.929 . S
H698 C702 0.929 . S
H699 C708 0.929 . S
C700 H694 0.930 . S
C700 C701 1.367 . S
C700 C708 1.378 . S
C701 C700 1.367 . S
C701 C709 1.433 . S
C702 H698 0.929 . S
C702 C704 1.378 . S
C702 C706 1.350 . S
C703 C706 1.463 . S
C703 C708 1.350 . S
C703 N711 1.427 . S
C704 H695 0.930 . S
C704 C702 1.378 . S
C704 C705 1.367 . S
C705 C704 1.367 . S
C705 C707 1.433 . S
C706 C702 1.350 . S
C706 C703 1.463 . S
C706 N710 1.427 . S
C707 H697 0.929 . S
C707 C705 1.433 . S
C707 N710 1.384 . S
C708 H699 0.929 . S
C708 C700 1.378 . S
C708 C703 1.350 . S
C709 H696 0.929 . S
C709 C701 1.433 . S
C709 N711 1.384 . S
N710 C706 1.427 . S
N710 C707 1.384 . S
N711 C703 1.427 . S
N711 C709 1.384 . S
H712 C718 0.930 . S
H713 C722 0.930 . S
H714 C727 0.929 . S
H715 C725 0.929 . S
H716 C720 0.929 . S
H717 C726 0.929 . S
C718 H712 0.930 . S
C718 C719 1.367 . S
C718 C726 1.378 . S
C719 C718 1.367 . S
C719 C727 1.433 . S
C720 H716 0.929 . S
C720 C722 1.378 1_554 S
C720 C724 1.350 . S
C721 C724 1.463 . S
C721 C726 1.350 . S
C721 N729 1.427 . S
C722 H713 0.930 . S
C722 C720 1.378 1_556 S
C722 C723 1.367 . S
C723 C722 1.367 . S
C723 C725 1.433 . S
C724 C720 1.350 . S
C724 C721 1.463 . S
C724 N728 1.427 1_554 S
C725 H715 0.929 . S
C725 C723 1.433 . S
C725 N728 1.384 . S
C726 H717 0.929 . S
C726 C718 1.378 . S
C726 C721 1.350 . S
C727 H714 0.929 . S
C727 C719 1.433 . S
C727 N729 1.384 . S
N728 C724 1.427 1_556 S
N728 C725 1.384 . S
N729 C721 1.427 . S
N729 C727 1.384 . S
H730 C736 0.930 . S
H731 C740 0.930 . S
H732 C745 0.929 . S
H733 C743 0.929 . S
H734 C738 0.929 . S
H735 C744 0.929 . S
C736 H730 0.930 . S
C736 C737 1.367 . S
C736 C744 1.378 . S
C737 C736 1.367 . S
C737 C745 1.433 . S
C738 H734 0.929 . S
C738 C740 1.378 . S
C738 C742 1.350 . S
C739 C742 1.463 . S
C739 C744 1.350 . S
C739 N747 1.427 . S
C740 H731 0.930 . S
C740 C738 1.378 . S
C740 C741 1.367 . S
C741 C740 1.367 . S
C741 C743 1.433 . S
C742 C738 1.350 . S
C742 C739 1.463 . S
C742 N746 1.427 . S
C743 H733 0.929 . S
C743 C741 1.433 . S
C743 N746 1.384 . S
C744 H735 0.929 . S
C744 C736 1.378 . S
C744 C739 1.350 . S
C745 H732 0.929 . S
C745 C737 1.433 . S
C745 N747 1.384 . S
N746 C742 1.427 . S
N746 C743 1.384 . S
N747 C739 1.427 . S
N747 C745 1.384 . S
H748 C754 0.930 . S
H749 C758 0.930 . S
H750 C763 0.929 . S
H751 C761 0.929 . S
H752 C756 0.929 . S
H753 C762 0.929 . S
C754 H748 0.930 . S
C754 C755 1.367 . S
C754 C762 1.378 . S
C755 C754 1.367 . S
C755 C763 1.433 . S
C756 H752 0.929 . S
C756 C758 1.378 . S
C756 C760 1.350 . S
C757 C760 1.463 . S
C757 C762 1.350 . S
C757 N765 1.427 . S
C758 H749 0.930 . S
C758 C756 1.378 . S
C758 C759 1.367 . S
C759 C758 1.367 . S
C759 C761 1.433 . S
C760 C756 1.350 . S
C760 C757 1.463 . S
C760 N764 1.427 . S
C761 H751 0.929 . S
C761 C759 1.433 . S
C761 N764 1.384 . S
C762 H753 0.929 . S
C762 C754 1.378 . S
C762 C757 1.350 . S
C763 H750 0.929 . S
C763 C755 1.433 . S
C763 N765 1.384 . S
N764 C760 1.427 . S
N764 C761 1.384 . S
N765 C757 1.427 . S
N765 C763 1.384 . S
H766 C772 0.930 . S
H767 C776 0.930 . S
H768 C781 0.929 . S
H769 C779 0.929 . S
H770 C774 0.929 . S
H771 C780 0.929 . S
C772 H766 0.930 . S
C772 C773 1.367 . S
C772 C780 1.378 . S
C773 C772 1.367 . S
C773 C781 1.433 . S
C774 H770 0.929 . S
C774 C776 1.378 . S
C774 C778 1.350 . S
C775 C778 1.463 . S
C775 C780 1.350 . S
C775 N783 1.427 . S
C776 H767 0.930 . S
C776 C774 1.378 . S
C776 C777 1.367 . S
C777 C776 1.367 . S
C777 C779 1.433 . S
C778 C774 1.350 . S
C778 C775 1.463 . S
C778 N782 1.427 . S
C779 H769 0.929 . S
C779 C777 1.433 . S
C779 N782 1.384 . S
C780 H771 0.929 . S
C780 C772 1.378 . S
C780 C775 1.350 . S
C781 H768 0.929 . S
C781 C773 1.433 . S
C781 N783 1.384 . S
N782 C778 1.427 . S
N782 C779 1.384 . S
N783 C775 1.427 . S
N783 C781 1.384 . S
H784 C790 0.930 . S
H785 C794 0.930 . S
H786 C799 0.929 . S
H787 C797 0.929 . S
H788 C792 0.929 . S
H789 C798 0.929 . S
C790 H784 0.930 . S
C790 C791 1.367 . S
C790 C798 1.378 . S
C791 C790 1.367 . S
C791 C799 1.433 . S
C792 H788 0.929 . S
C792 C794 1.378 . S
C792 C796 1.350 . S
C793 C796 1.463 . S
C793 C798 1.350 . S
C793 N801 1.427 . S
C794 H785 0.930 . S
C794 C792 1.378 . S
C794 C795 1.367 . S
C795 C794 1.367 . S
C795 C797 1.433 . S
C796 C792 1.350 . S
C796 C793 1.463 . S
C796 N800 1.427 . S
C797 H787 0.929 . S
C797 C795 1.433 . S
C797 N800 1.384 . S
C798 H789 0.929 . S
C798 C790 1.378 . S
C798 C793 1.350 . S
C799 H786 0.929 . S
C799 C791 1.433 . S
C799 N801 1.384 . S
N800 C796 1.427 . S
N800 C797 1.384 . S
N801 C793 1.427 . S
N801 C799 1.384 . S
H802 C808 0.930 . S
H803 C812 0.930 . S
H804 C817 0.929 . S
H805 C815 0.929 . S
H806 C810 0.929 . S
H807 C816 0.929 . S
C808 H802 0.930 . S
C808 C809 1.367 . S
C808 C816 1.378 . S
C809 C808 1.367 . S
C809 C817 1.433 . S
C810 H806 0.929 . S
C810 C812 1.378 . S
C810 C814 1.350 . S
C811 C814 1.463 . S
C811 C816 1.350 . S
C811 N819 1.427 . S
C812 H803 0.930 . S
C812 C810 1.378 . S
C812 C813 1.367 . S
C813 C812 1.367 . S
C813 C815 1.433 . S
C814 C810 1.350 . S
C814 C811 1.463 . S
C814 N818 1.427 . S
C815 H805 0.929 . S
C815 C813 1.433 . S
C815 N818 1.384 . S
C816 H807 0.929 . S
C816 C808 1.378 . S
C816 C811 1.350 . S
C817 H804 0.929 . S
C817 C809 1.433 . S
C817 N819 1.384 . S
N818 C814 1.427 . S
N818 C815 1.384 . S
N819 C811 1.427 . S
N819 C817 1.384 . S
H820 C826 0.930 . S
H821 C830 0.930 . S
H822 C835 0.929 . S
H823 C833 0.929 . S
H824 C828 0.929 . S
H825 C834 0.929 . S
C826 H820 0.930 . S
C826 C827 1.367 . S
C826 C834 1.378 . S
C827 C826 1.367 . S
C827 C835 1.433 . S
C828 H824 0.929 . S
C828 C830 1.378 . S
C828 C832 1.350 . S
C829 C832 1.463 . S
C829 C834 1.350 . S
C829 N837 1.427 . S
C830 H821 0.930 . S
C830 C828 1.378 . S
C830 C831 1.367 . S
C831 C830 1.367 . S
C831 C833 1.433 . S
C832 C828 1.350 . S
C832 C829 1.463 . S
C832 N836 1.427 . S
C833 H823 0.929 . S
C833 C831 1.433 . S
C833 N836 1.384 . S
C834 H825 0.929 . S
C834 C826 1.378 . S
C834 C829 1.350 . S
C835 H822 0.929 . S
C835 C827 1.433 . S
C835 N837 1.384 . S
N836 C832 1.427 . S
N836 C833 1.384 . S
N837 C829 1.427 . S
N837 C835 1.384 . S
H838 C844 0.930 . S
H839 C848 0.930 . S
H840 C853 0.929 . S
H841 C851 0.929 . S
H842 C846 0.929 . S
H843 C852 0.929 . S
C844 H838 0.930 . S
C844 C845 1.367 . S
C844 C852 1.378 . S
C845 C844 1.367 . S
C845 C853 1.433 . S
C846 H842 0.929 . S
C846 C848 1.378 . S
C846 C850 1.350 . S
C847 C850 1.463 . S
C847 C852 1.350 . S
C847 N855 1.427 . S
C848 H839 0.930 . S
C848 C846 1.378 . S
C848 C849 1.367 . S
C849 C848 1.367 . S
C849 C851 1.433 . S
C850 C846 1.350 . S
C850 C847 1.463 . S
C850 N854 1.427 . S
C851 H841 0.929 . S
C851 C849 1.433 . S
C851 N854 1.384 . S
C852 H843 0.929 . S
C852 C844 1.378 . S
C852 C847 1.350 . S
C853 H840 0.929 . S
C853 C845 1.433 . S
C853 N855 1.384 . S
N854 C850 1.427 . S
N854 C851 1.384 . S
N855 C847 1.427 . S
N855 C853 1.384 . S
H856 C862 0.930 . S
H857 C866 0.930 . S
H858 C871 0.929 . S
H859 C869 0.929 . S
H860 C864 0.929 . S
H861 C870 0.929 . S
C862 H856 0.930 . S
C862 C863 1.367 . S
C862 C870 1.378 . S
C863 C862 1.367 . S
C863 C871 1.433 . S
C864 H860 0.929 . S
C864 C866 1.378 . S
C864 C868 1.350 . S
C865 C868 1.463 . S
C865 C870 1.350 . S
C865 N873 1.427 . S
C866 H857 0.930 . S
C866 C864 1.378 . S
C866 C867 1.367 . S
C867 C866 1.367 . S
C867 C869 1.433 . S
C868 C864 1.350 . S
C868 C865 1.463 . S
C868 N872 1.427 . S
C869 H859 0.929 . S
C869 C867 1.433 . S
C869 N872 1.384 . S
C870 H861 0.929 . S
C870 C862 1.378 . S
C870 C865 1.350 . S
C871 H858 0.929 . S
C871 C863 1.433 . S
C871 N873 1.384 . S
N872 C868 1.427 . S
N872 C869 1.384 . S
N873 C865 1.427 . S
N873 C871 1.384 . S
H874 C880 0.930 . S
H875 C884 0.930 . S
H876 C889 0.929 . S
H877 C887 0.929 . S
H878 C882 0.929 . S
H879 C888 0.929 . S
C880 H874 0.930 . S
C880 C881 1.367 . S
C880 C888 1.378 . S
C881 C880 1.367 . S
C881 C889 1.433 . S
C882 H878 0.929 . S
C882 C884 1.378 . S
C882 C886 1.350 . S
C883 C886 1.463 . S
C883 C888 1.350 . S
C883 N891 1.427 . S
C884 H875 0.930 . S
C884 C882 1.378 . S
C884 C885 1.367 . S
C885 C884 1.367 . S
C885 C887 1.433 . S
C886 C882 1.350 . S
C886 C883 1.463 . S
C886 N890 1.427 . S
C887 H877 0.929 . S
C887 C885 1.433 . S
C887 N890 1.384 . S
C888 H879 0.929 . S
C888 C880 1.378 . S
C888 C883 1.350 . S
C889 H876 0.929 . S
C889 C881 1.433 . S
C889 N891 1.384 . S
N890 C886 1.427 . S
N890 C887 1.384 . S
N891 C883 1.427 . S
N891 C889 1.384 . S
H892 C898 0.930 . S
H893 C902 0.930 . S
H894 C907 0.929 . S
H895 C905 0.929 . S
H896 C900 0.929 . S
H897 C906 0.929 . S
C898 H892 0.930 . S
C898 C899 1.367 . S
C898 C906 1.378 . S
C899 C898 1.367 . S
C899 C907 1.433 . S
C900 H896 0.929 . S
C900 C902 1.378 . S
C900 C904 1.350 . S
C901 C904 1.463 . S
C901 C906 1.350 . S
C901 N909 1.427 . S
C902 H893 0.930 . S
C902 C900 1.378 . S
C902 C903 1.367 . S
C903 C902 1.367 . S
C903 C905 1.433 . S
C904 C900 1.350 . S
C904 C901 1.463 . S
C904 N908 1.427 . S
C905 H895 0.929 . S
C905 C903 1.433 . S
C905 N908 1.384 . S
C906 H897 0.929 . S
C906 C898 1.378 . S
C906 C901 1.350 . S
C907 H894 0.929 . S
C907 C899 1.433 . S
C907 N909 1.384 . S
N908 C904 1.427 . S
N908 C905 1.384 . S
N909 C901 1.427 . S
N909 C907 1.384 . S
H910 C916 0.930 . S
H911 C920 0.930 . S
H912 C925 0.929 . S
H913 C923 0.929 . S
H914 C918 0.929 . S
H915 C924 0.929 . S
C916 H910 0.930 . S
C916 C917 1.367 . S
C916 C924 1.378 . S
C917 C916 1.367 . S
C917 C925 1.433 . S
C918 H914 0.929 . S
C918 C920 1.378 . S
C918 C922 1.350 . S
C919 C922 1.463 . S
C919 C924 1.350 . S
C919 N927 1.427 . S
C920 H911 0.930 . S
C920 C918 1.378 . S
C920 C921 1.367 . S
C921 C920 1.367 . S
C921 C923 1.433 . S
C922 C918 1.350 . S
C922 C919 1.463 . S
C922 N926 1.427 . S
C923 H913 0.929 . S
C923 C921 1.433 . S
C923 N926 1.384 . S
C924 H915 0.929 . S
C924 C916 1.378 . S
C924 C919 1.350 . S
C925 H912 0.929 . S
C925 C917 1.433 . S
C925 N927 1.384 . S
N926 C922 1.427 . S
N926 C923 1.384 . S
N927 C919 1.427 . S
N927 C925 1.384 . S
H928 C934 0.930 . S
H929 C938 0.930 . S
H930 C943 0.929 . S
H931 C941 0.929 . S
H932 C936 0.929 . S
H933 C942 0.929 . S
C934 H928 0.930 . S
C934 C935 1.367 . S
C934 C942 1.378 . S
C935 C934 1.367 . S
C935 C943 1.433 . S
C936 H932 0.929 . S
C936 C938 1.378 . S
C936 C940 1.350 . S
C937 C940 1.463 . S
C937 C942 1.350 . S
C937 N945 1.427 . S
C938 H929 0.930 . S
C938 C936 1.378 . S
C938 C939 1.367 . S
C939 C938 1.367 . S
C939 C941 1.433 . S
C940 C936 1.350 . S
C940 C937 1.463 . S
C940 N944 1.427 . S
C941 H931 0.929 . S
C941 C939 1.433 . S
C941 N944 1.384 . S
C942 H933 0.929 . S
C942 C934 1.378 . S
C942 C937 1.350 . S
C943 H930 0.929 . S
C943 C935 1.433 . S
C943 N945 1.384 . S
N944 C940 1.427 . S
N944 C941 1.384 . S
N945 C937 1.427 . S
N945 C943 1.384 . S
H946 C952 0.930 . S
H947 C956 0.930 . S
H948 C961 0.929 . S
H949 C959 0.929 . S
H950 C954 0.929 . S
H951 C960 0.929 . S
C952 H946 0.930 . S
C952 C953 1.367 . S
C952 C960 1.378 . S
C953 C952 1.367 . S
C953 C961 1.433 . S
C954 H950 0.929 . S
C954 C956 1.378 . S
C954 C958 1.350 . S
C955 C958 1.455 1_655 S
C955 C960 1.355 . S
C955 N963 1.429 . S
C956 H947 0.930 . S
C956 C954 1.378 . S
C956 C957 1.367 . S
C957 C956 1.367 . S
C957 C959 1.433 . S
C958 C954 1.350 . S
C958 C955 1.455 1_455 S
C958 N962 1.427 . S
C959 H949 0.929 . S
C959 C957 1.433 . S
C959 N962 1.384 . S
C960 H951 0.929 . S
C960 C952 1.378 . S
C960 C955 1.355 . S
C961 H948 0.929 . S
C961 C953 1.433 . S
C961 N963 1.384 . S
N962 C958 1.427 . S
N962 C959 1.384 . S
N963 C955 1.429 . S
N963 C961 1.384 . S
H964 C970 0.930 . S
H965 C974 0.930 . S
H966 C979 0.929 . S
H967 C977 0.929 . S
H968 C972 0.929 . S
H969 C978 0.929 . S
C970 H964 0.930 . S
C970 C971 1.367 . S
C970 C978 1.378 . S
C971 C970 1.367 . S
C971 C979 1.433 . S
C972 H968 0.929 . S
C972 C974 1.378 . S
C972 C976 1.350 . S
C973 C976 1.463 . S
C973 C978 1.350 . S
C973 N981 1.427 . S
C974 H965 0.930 . S
C974 C972 1.378 . S
C974 C975 1.367 . S
C975 C974 1.367 . S
C975 C977 1.433 . S
C976 C972 1.350 . S
C976 C973 1.463 . S
C976 N980 1.427 . S
C977 H967 0.929 . S
C977 C975 1.433 . S
C977 N980 1.384 . S
C978 H969 0.929 . S
C978 C970 1.378 . S
C978 C973 1.350 . S
C979 H966 0.929 . S
C979 C971 1.433 . S
C979 N981 1.384 . S
N980 C976 1.427 . S
N980 C977 1.384 . S
N981 C973 1.427 . S
N981 C979 1.384 . S
H982 C988 0.930 . S
H983 C992 0.930 . S
H984 C997 0.929 . S
H985 C995 0.929 . S
H986 C990 0.929 . S
H987 C996 0.929 . S
C988 H982 0.930 . S
C988 C989 1.367 . S
C988 C996 1.378 . S
C989 C988 1.367 . S
C989 C997 1.433 . S
C990 H986 0.929 . S
C990 C992 1.378 . S
C990 C994 1.350 . S
C991 C994 1.463 . S
C991 C996 1.350 . S
C991 N999 1.427 . S
C992 H983 0.930 . S
C992 C990 1.378 . S
C992 C993 1.367 . S
C993 C992 1.367 . S
C993 C995 1.433 . S
C994 C990 1.350 . S
C994 C991 1.463 . S
C994 N998 1.427 . S
C995 H985 0.929 . S
C995 C993 1.433 . S
C995 N998 1.384 . S
C996 H987 0.929 . S
C996 C988 1.378 . S
C996 C991 1.350 . S
C997 H984 0.929 . S
C997 C989 1.433 . S
C997 N999 1.384 . S
N998 C994 1.427 . S
N998 C995 1.384 . S
N999 C991 1.427 . S
N999 C997 1.384 . S
H1000 C1006 0.930 . S
H1001 C1010 0.930 . S
H1002 C1015 0.929 . S
H1003 C1013 0.929 . S
H1004 C1008 0.929 . S
H1005 C1014 0.929 . S
C1006 H1000 0.930 . S
C1006 C1007 1.367 1_655 S
C1006 C1014 1.378 . S
C1007 C1006 1.367 1_455 S
C1007 C1015 1.433 . S
C1008 H1004 0.929 . S
C1008 C1010 1.378 . S
C1008 C1012 1.350 . S
C1009 C1012 1.463 . S
C1009 C1014 1.350 1_455 S
C1009 N1017 1.427 . S
C1010 H1001 0.930 . S
C1010 C1008 1.378 . S
C1010 C1011 1.359 1_455 S
C1011 C1010 1.359 1_655 S
C1011 C1013 1.442 . S
C1012 C1008 1.350 . S
C1012 C1009 1.463 . S
C1012 N1016 1.427 1_455 S
C1013 H1003 0.929 . S
C1013 C1011 1.442 . S
C1013 N1016 1.384 . S
C1014 H1005 0.929 . S
C1014 C1006 1.378 . S
C1014 C1009 1.350 1_655 S
C1015 H1002 0.929 . S
C1015 C1007 1.433 . S
C1015 N1017 1.384 . S
N1016 C1012 1.427 1_655 S
N1016 C1013 1.384 . S
N1017 C1009 1.427 . S
N1017 C1015 1.384 . S
H1018 C1024 0.930 . S
H1019 C1028 0.930 . S
H1020 C1033 0.929 . S
H1021 C1031 0.929 . S
H1022 C1026 0.929 . S
H1023 C1032 0.929 . S
C1024 H1018 0.930 . S
C1024 C1025 1.367 . S
C1024 C1032 1.378 . S
C1025 C1024 1.367 . S
C1025 C1033 1.433 . S
C1026 H1022 0.929 . S
C1026 C1028 1.378 . S
C1026 C1030 1.350 . S
C1027 C1030 1.463 . S
C1027 C1032 1.350 . S
C1027 N1035 1.427 . S
C1028 H1019 0.930 . S
C1028 C1026 1.378 . S
C1028 C1029 1.367 . S
C1029 C1028 1.367 . S
C1029 C1031 1.433 . S
C1030 C1026 1.350 . S
C1030 C1027 1.463 . S
C1030 N1034 1.427 . S
C1031 H1021 0.929 . S
C1031 C1029 1.433 . S
C1031 N1034 1.384 . S
C1032 H1023 0.929 . S
C1032 C1024 1.378 . S
C1032 C1027 1.350 . S
C1033 H1020 0.929 . S
C1033 C1025 1.433 . S
C1033 N1035 1.384 . S
N1034 C1030 1.427 . S
N1034 C1031 1.384 . S
N1035 C1027 1.427 . S
N1035 C1033 1.384 . S
H1036 C1042 0.930 . S
H1037 C1046 0.930 . S
H1038 C1051 0.929 . S
H1039 C1049 0.929 . S
H1040 C1044 0.929 . S
H1041 C1050 0.929 . S
C1042 H1036 0.930 . S
C1042 C1043 1.367 . S
C1042 C1050 1.378 . S
C1043 C1042 1.367 . S
C1043 C1051 1.433 . S
C1044 H1040 0.929 . S
C1044 C1046 1.378 . S
C1044 C1048 1.350 . S
C1045 C1048 1.463 . S
C1045 C1050 1.350 . S
C1045 N1053 1.427 . S
C1046 H1037 0.930 . S
C1046 C1044 1.378 . S
C1046 C1047 1.367 . S
C1047 C1046 1.367 . S
C1047 C1049 1.433 . S
C1048 C1044 1.350 . S
C1048 C1045 1.463 . S
C1048 N1052 1.427 . S
C1049 H1039 0.929 . S
C1049 C1047 1.433 . S
C1049 N1052 1.384 . S
C1050 H1041 0.929 . S
C1050 C1042 1.378 . S
C1050 C1045 1.350 . S
C1051 H1038 0.929 . S
C1051 C1043 1.433 . S
C1051 N1053 1.384 . S
N1052 C1048 1.427 . S
N1052 C1049 1.384 . S
N1053 C1045 1.427 . S
N1053 C1051 1.384 . S
H1054 C1060 0.930 . S
H1055 C1064 0.930 . S
H1056 C1069 0.929 . S
H1057 C1067 0.929 . S
H1058 C1062 0.929 . S
H1059 C1068 0.929 . S
C1060 H1054 0.930 . S
C1060 C1061 1.367 . S
C1060 C1068 1.378 . S
C1061 C1060 1.367 . S
C1061 C1069 1.433 . S
C1062 H1058 0.929 . S
C1062 C1064 1.378 1_455 S
C1062 C1066 1.350 . S
C1063 C1066 1.463 . S
C1063 C1068 1.350 . S
C1063 N1071 1.427 . S
C1064 H1055 0.930 . S
C1064 C1062 1.378 1_655 S
C1064 C1065 1.367 . S
C1065 C1064 1.367 . S
C1065 C1067 1.433 . S
C1066 C1062 1.350 . S
C1066 C1063 1.463 . S
C1066 N1070 1.427 1_455 S
C1067 H1057 0.929 . S
C1067 C1065 1.433 . S
C1067 N1070 1.384 . S
C1068 H1059 0.929 . S
C1068 C1060 1.378 . S
C1068 C1063 1.350 . S
C1069 H1056 0.929 . S
C1069 C1061 1.433 . S
C1069 N1071 1.384 . S
N1070 C1066 1.427 1_655 S
N1070 C1067 1.384 . S
N1071 C1063 1.427 . S
N1071 C1069 1.384 . S
H1072 C1078 0.933 . S
H1073 C1082 0.930 . S
H1074 C1087 0.929 . S
H1075 C1085 0.929 . S
H1076 C1080 0.924 1_545 S
H1077 C1086 0.941 1_565 S
C1078 H1072 0.933 . S
C1078 C1079 1.363 1_655 S
C1078 C1086 1.380 . S
C1079 C1078 1.363 1_455 S
C1079 C1087 1.433 . S
C1080 H1076 0.924 1_565 S
C1080 C1082 1.381 . S
C1080 C1084 1.351 . S
C1081 C1084 1.463 1_544 S
C1081 C1086 1.337 1_455 S
C1081 N1089 1.427 . S
C1082 H1073 0.930 . S
C1082 C1080 1.381 . S
C1082 C1083 1.367 . S
C1083 C1082 1.367 . S
C1083 C1085 1.433 1_455 S
C1084 C1080 1.351 . S
C1084 C1081 1.463 1_566 S
C1084 N1088 1.427 1_455 S
C1085 H1075 0.929 . S
C1085 C1083 1.433 1_655 S
C1085 N1088 1.384 . S
C1086 H1077 0.941 1_545 S
C1086 C1078 1.380 . S
C1086 C1081 1.337 1_655 S
C1087 H1074 0.929 . S
C1087 C1079 1.433 . S
C1087 N1089 1.384 . S
N1088 C1084 1.427 1_655 S
N1088 C1085 1.384 . S
N1089 C1081 1.427 . S
N1089 C1087 1.384 . S
H1090 C1096 0.930 . S
H1091 C1100 0.930 . S
H1092 C1105 0.929 . S
H1093 C1103 0.929 . S
H1094 C1098 0.929 . S
H1095 C1104 0.929 . S
C1096 H1090 0.930 . S
C1096 C1097 1.367 . S
C1096 C1104 1.378 . S
C1097 C1096 1.367 . S
C1097 C1105 1.433 . S
C1098 H1094 0.929 . S
C1098 C1100 1.378 . S
C1098 C1102 1.350 . S
C1099 C1102 1.463 . S
C1099 C1104 1.350 . S
C1099 N1107 1.427 . S
C1100 H1091 0.930 . S
C1100 C1098 1.378 . S
C1100 C1101 1.367 . S
C1101 C1100 1.367 . S
C1101 C1103 1.433 . S
C1102 C1098 1.350 . S
C1102 C1099 1.463 . S
C1102 N1106 1.427 . S
C1103 H1093 0.929 . S
C1103 C1101 1.433 . S
C1103 N1106 1.384 . S
C1104 H1095 0.929 . S
C1104 C1096 1.378 . S
C1104 C1099 1.350 . S
C1105 H1092 0.929 . S
C1105 C1097 1.433 . S
C1105 N1107 1.384 . S
N1106 C1102 1.427 . S
N1106 C1103 1.384 . S
N1107 C1099 1.427 . S
N1107 C1105 1.384 . S
H1108 C1114 0.930 . S
H1109 C1118 0.930 . S
H1110 C1123 0.929 . S
H1111 C1121 0.929 . S
H1112 C1116 0.929 . S
H1113 C1122 0.929 . S
C1114 H1108 0.930 . S
C1114 C1115 1.367 . S
C1114 C1122 1.378 . S
C1115 C1114 1.367 . S
C1115 C1123 1.433 . S
C1116 H1112 0.929 . S
C1116 C1118 1.378 . S
C1116 C1120 1.350 . S
C1117 C1120 1.463 1_545 S
C1117 C1122 1.350 . S
C1117 N1125 1.427 . S
C1118 H1109 0.930 . S
C1118 C1116 1.378 . S
C1118 C1119 1.367 . S
C1119 C1118 1.367 . S
C1119 C1121 1.433 . S
C1120 C1116 1.350 . S
C1120 C1117 1.463 1_565 S
C1120 N1124 1.427 . S
C1121 H1111 0.929 . S
C1121 C1119 1.433 . S
C1121 N1124 1.384 . S
C1122 H1113 0.929 . S
C1122 C1114 1.378 . S
C1122 C1117 1.350 . S
C1123 H1110 0.929 . S
C1123 C1115 1.433 . S
C1123 N1125 1.384 . S
N1124 C1120 1.427 . S
N1124 C1121 1.384 . S
N1125 C1117 1.427 . S
N1125 C1123 1.384 . S
H1126 C1132 0.930 . S
H1127 C1136 0.930 . S
H1128 C1141 0.929 . S
H1129 C1139 0.929 . S
H1130 C1134 0.929 . S
H1131 C1140 0.929 . S
C1132 H1126 0.930 . S
C1132 C1133 1.367 . S
C1132 C1140 1.378 . S
C1133 C1132 1.367 . S
C1133 C1141 1.433 . S
C1134 H1130 0.929 . S
C1134 C1136 1.378 . S
C1134 C1138 1.350 . S
C1135 C1138 1.463 . S
C1135 C1140 1.350 . S
C1135 N1143 1.427 . S
C1136 H1127 0.930 . S
C1136 C1134 1.378 . S
C1136 C1137 1.367 . S
C1137 C1136 1.367 . S
C1137 C1139 1.433 . S
C1138 C1134 1.350 . S
C1138 C1135 1.463 . S
C1138 N1142 1.427 . S
C1139 H1129 0.929 . S
C1139 C1137 1.433 . S
C1139 N1142 1.384 . S
C1140 H1131 0.929 . S
C1140 C1132 1.378 . S
C1140 C1135 1.350 . S
C1141 H1128 0.929 . S
C1141 C1133 1.433 . S
C1141 N1143 1.384 . S
N1142 C1138 1.427 . S
N1142 C1139 1.384 . S
N1143 C1135 1.427 . S
N1143 C1141 1.384 . S
H1144 C1150 0.930 . S
H1145 C1154 0.930 . S
H1146 C1159 0.929 . S
H1147 C1157 0.929 . S
H1148 C1152 0.929 . S
H1149 C1158 0.929 . S
C1150 H1144 0.930 . S
C1150 C1151 1.367 . S
C1150 C1158 1.378 . S
C1151 C1150 1.367 . S
C1151 C1159 1.433 . S
C1152 H1148 0.929 . S
C1152 C1154 1.378 . S
C1152 C1156 1.350 . S
C1153 C1156 1.463 . S
C1153 C1158 1.350 . S
C1153 N1161 1.427 . S
C1154 H1145 0.930 . S
C1154 C1152 1.378 . S
C1154 C1155 1.367 . S
C1155 C1154 1.367 . S
C1155 C1157 1.433 . S
C1156 C1152 1.350 . S
C1156 C1153 1.463 . S
C1156 N1160 1.427 . S
C1157 H1147 0.929 . S
C1157 C1155 1.433 . S
C1157 N1160 1.384 . S
C1158 H1149 0.929 . S
C1158 C1150 1.378 . S
C1158 C1153 1.350 . S
C1159 H1146 0.929 . S
C1159 C1151 1.433 . S
C1159 N1161 1.384 . S
N1160 C1156 1.427 . S
N1160 C1157 1.384 . S
N1161 C1153 1.427 . S
N1161 C1159 1.384 . S
H1162 C1168 0.930 . S
H1163 C1172 0.930 . S
H1164 C1177 0.929 . S
H1165 C1175 0.929 . S
H1166 C1170 0.929 . S
H1167 C1176 0.929 . S
C1168 H1162 0.930 . S
C1168 C1169 1.367 . S
C1168 C1176 1.378 . S
C1169 C1168 1.367 . S
C1169 C1177 1.433 . S
C1170 H1166 0.929 . S
C1170 C1172 1.378 . S
C1170 C1174 1.350 . S
C1171 C1174 1.463 . S
C1171 C1176 1.350 . S
C1171 N1179 1.427 . S
C1172 H1163 0.930 . S
C1172 C1170 1.378 . S
C1172 C1173 1.367 . S
C1173 C1172 1.367 . S
C1173 C1175 1.433 . S
C1174 C1170 1.350 . S
C1174 C1171 1.463 . S
C1174 N1178 1.427 . S
C1175 H1165 0.929 . S
C1175 C1173 1.433 . S
C1175 N1178 1.384 . S
C1176 H1167 0.929 . S
C1176 C1168 1.378 . S
C1176 C1171 1.350 . S
C1177 H1164 0.929 . S
C1177 C1169 1.433 . S
C1177 N1179 1.384 . S
N1178 C1174 1.427 . S
N1178 C1175 1.384 . S
N1179 C1171 1.427 . S
N1179 C1177 1.384 . S
H1180 C1186 0.930 . S
H1181 C1190 0.930 . S
H1182 C1195 0.929 . S
H1183 C1193 0.929 . S
H1184 C1188 0.929 . S
H1185 C1194 0.929 . S
C1186 H1180 0.930 . S
C1186 C1187 1.367 . S
C1186 C1194 1.378 . S
C1187 C1186 1.367 . S
C1187 C1195 1.433 . S
C1188 H1184 0.929 . S
C1188 C1190 1.378 . S
C1188 C1192 1.350 . S
C1189 C1192 1.463 . S
C1189 C1194 1.350 . S
C1189 N1197 1.427 . S
C1190 H1181 0.930 . S
C1190 C1188 1.378 . S
C1190 C1191 1.367 . S
C1191 C1190 1.367 . S
C1191 C1193 1.433 . S
C1192 C1188 1.350 . S
C1192 C1189 1.463 . S
C1192 N1196 1.427 . S
C1193 H1183 0.929 . S
C1193 C1191 1.433 . S
C1193 N1196 1.384 . S
C1194 H1185 0.929 . S
C1194 C1186 1.378 . S
C1194 C1189 1.350 . S
C1195 H1182 0.929 . S
C1195 C1187 1.433 . S
C1195 N1197 1.384 . S
N1196 C1192 1.427 . S
N1196 C1193 1.384 . S
N1197 C1189 1.427 . S
N1197 C1195 1.384 . S
H1198 C1204 0.930 . S
H1199 C1208 0.930 . S
H1200 C1213 0.929 . S
H1201 C1211 0.929 . S
H1202 C1206 0.929 . S
H1203 C1212 0.929 . S
C1204 H1198 0.930 . S
C1204 C1205 1.367 . S
C1204 C1212 1.378 . S
C1205 C1204 1.367 . S
C1205 C1213 1.433 . S
C1206 H1202 0.929 . S
C1206 C1208 1.378 . S
C1206 C1210 1.350 . S
C1207 C1210 1.463 1_556 S
C1207 C1212 1.350 . S
C1207 N1215 1.427 . S
C1208 H1199 0.930 . S
C1208 C1206 1.378 . S
C1208 C1209 1.367 . S
C1209 C1208 1.367 . S
C1209 C1211 1.433 . S
C1210 C1206 1.350 . S
C1210 C1207 1.463 1_554 S
C1210 N1214 1.427 . S
C1211 H1201 0.929 . S
C1211 C1209 1.433 . S
C1211 N1214 1.384 . S
C1212 H1203 0.929 . S
C1212 C1204 1.378 . S
C1212 C1207 1.350 . S
C1213 H1200 0.929 . S
C1213 C1205 1.433 . S
C1213 N1215 1.384 . S
N1214 C1210 1.427 . S
N1214 C1211 1.384 . S
N1215 C1207 1.427 . S
N1215 C1213 1.384 . S
H1216 C1222 0.930 . S
H1217 C1226 0.930 . S
H1218 C1231 0.929 . S
H1219 C1229 0.929 . S
H1220 C1224 0.929 . S
H1221 C1230 0.929 . S
C1222 H1216 0.930 . S
C1222 C1223 1.367 . S
C1222 C1230 1.378 . S
C1223 C1222 1.367 . S
C1223 C1231 1.433 . S
C1224 H1220 0.929 . S
C1224 C1226 1.378 . S
C1224 C1228 1.350 . S
C1225 C1228 1.463 . S
C1225 C1230 1.350 . S
C1225 N1233 1.427 . S
C1226 H1217 0.930 . S
C1226 C1224 1.378 . S
C1226 C1227 1.367 . S
C1227 C1226 1.367 . S
C1227 C1229 1.433 . S
C1228 C1224 1.350 . S
C1228 C1225 1.463 . S
C1228 N1232 1.427 . S
C1229 H1219 0.929 . S
C1229 C1227 1.433 . S
C1229 N1232 1.384 . S
C1230 H1221 0.929 . S
C1230 C1222 1.378 . S
C1230 C1225 1.350 . S
C1231 H1218 0.929 . S
C1231 C1223 1.433 . S
C1231 N1233 1.384 . S
N1232 C1228 1.427 . S
N1232 C1229 1.384 . S
N1233 C1225 1.427 . S
N1233 C1231 1.384 . S
H1234 C1240 0.930 . S
H1235 C1244 0.930 . S
H1236 C1249 0.929 . S
H1237 C1247 0.929 . S
H1238 C1242 0.929 . S
H1239 C1248 0.929 . S
C1240 H1234 0.930 . S
C1240 C1241 1.367 . S
C1240 C1248 1.378 . S
C1241 C1240 1.367 . S
C1241 C1249 1.433 . S
C1242 H1238 0.929 . S
C1242 C1244 1.378 . S
C1242 C1246 1.350 . S
C1243 C1246 1.463 . S
C1243 C1248 1.350 . S
C1243 N1251 1.427 . S
C1244 H1235 0.930 . S
C1244 C1242 1.378 . S
C1244 C1245 1.367 . S
C1245 C1244 1.367 . S
C1245 C1247 1.433 . S
C1246 C1242 1.350 . S
C1246 C1243 1.463 . S
C1246 N1250 1.427 . S
C1247 H1237 0.929 . S
C1247 C1245 1.433 . S
C1247 N1250 1.384 . S
C1248 H1239 0.929 . S
C1248 C1240 1.378 . S
C1248 C1243 1.350 . S
C1249 H1236 0.929 . S
C1249 C1241 1.433 . S
C1249 N1251 1.384 . S
N1250 C1246 1.427 . S
N1250 C1247 1.384 . S
N1251 C1243 1.427 . S
N1251 C1249 1.384 . S
H1252 C1258 0.930 . S
H1253 C1262 0.930 . S
H1254 C1267 0.929 . S
H1255 C1265 0.929 . S
H1256 C1260 0.929 . S
H1257 C1266 0.929 . S
C1258 H1252 0.930 . S
C1258 C1259 1.367 . S
C1258 C1266 1.378 . S
C1259 C1258 1.367 . S
C1259 C1267 1.433 . S
C1260 H1256 0.929 . S
C1260 C1262 1.378 . S
C1260 C1264 1.350 . S
C1261 C1264 1.463 . S
C1261 C1266 1.350 . S
C1261 N1269 1.427 . S
C1262 H1253 0.930 . S
C1262 C1260 1.378 . S
C1262 C1263 1.367 . S
C1263 C1262 1.367 . S
C1263 C1265 1.433 . S
C1264 C1260 1.350 . S
C1264 C1261 1.463 . S
C1264 N1268 1.427 . S
C1265 H1255 0.929 . S
C1265 C1263 1.433 . S
C1265 N1268 1.384 . S
C1266 H1257 0.929 . S
C1266 C1258 1.378 . S
C1266 C1261 1.350 . S
C1267 H1254 0.929 . S
C1267 C1259 1.433 . S
C1267 N1269 1.384 . S
N1268 C1264 1.427 . S
N1268 C1265 1.384 . S
N1269 C1261 1.427 . S
N1269 C1267 1.384 . S
H1270 C1276 0.930 . S
H1271 C1280 0.930 . S
H1272 C1285 0.929 . S
H1273 C1283 0.929 . S
H1274 C1278 0.929 . S
H1275 C1284 0.929 . S
C1276 H1270 0.930 . S
C1276 C1277 1.367 . S
C1276 C1284 1.378 . S
C1277 C1276 1.367 . S
C1277 C1285 1.433 . S
C1278 H1274 0.929 . S
C1278 C1280 1.378 . S
C1278 C1282 1.350 . S
C1279 C1282 1.463 . S
C1279 C1284 1.350 . S
C1279 N1287 1.427 . S
C1280 H1271 0.930 . S
C1280 C1278 1.378 . S
C1280 C1281 1.367 . S
C1281 C1280 1.367 . S
C1281 C1283 1.433 . S
C1282 C1278 1.350 . S
C1282 C1279 1.463 . S
C1282 N1286 1.427 . S
C1283 H1273 0.929 . S
C1283 C1281 1.433 . S
C1283 N1286 1.384 . S
C1284 H1275 0.929 . S
C1284 C1276 1.378 . S
C1284 C1279 1.350 . S
C1285 H1272 0.929 . S
C1285 C1277 1.433 . S
C1285 N1287 1.384 . S
N1286 C1282 1.427 . S
N1286 C1283 1.384 . S
N1287 C1279 1.427 . S
N1287 C1285 1.384 . S
H1288 C1294 0.930 . S
H1289 C1298 0.930 . S
H1290 C1303 0.929 . S
H1291 C1301 0.929 . S
H1292 C1296 0.929 . S
H1293 C1302 0.929 . S
C1294 H1288 0.930 . S
C1294 C1295 1.367 . S
C1294 C1302 1.378 . S
C1295 C1294 1.367 . S
C1295 C1303 1.433 . S
C1296 H1292 0.929 . S
C1296 C1298 1.378 . S
C1296 C1300 1.350 . S
C1297 C1300 1.463 . S
C1297 C1302 1.350 . S
C1297 N1305 1.427 . S
C1298 H1289 0.930 . S
C1298 C1296 1.378 . S
C1298 C1299 1.367 . S
C1299 C1298 1.367 . S
C1299 C1301 1.433 . S
C1300 C1296 1.350 . S
C1300 C1297 1.463 . S
C1300 N1304 1.427 . S
C1301 H1291 0.929 . S
C1301 C1299 1.433 . S
C1301 N1304 1.384 . S
C1302 H1293 0.929 . S
C1302 C1294 1.378 . S
C1302 C1297 1.350 . S
C1303 H1290 0.929 . S
C1303 C1295 1.433 . S
C1303 N1305 1.384 . S
N1304 C1300 1.427 . S
N1304 C1301 1.384 . S
N1305 C1297 1.427 . S
N1305 C1303 1.384 . S
H1306 C1312 0.930 . S
H1307 C1316 0.930 . S
H1308 C1321 0.929 . S
H1309 C1319 0.929 . S
H1310 C1314 0.929 . S
H1311 C1320 0.929 . S
C1312 H1306 0.930 . S
C1312 C1313 1.367 . S
C1312 C1320 1.378 . S
C1313 C1312 1.367 . S
C1313 C1321 1.433 . S
C1314 H1310 0.929 . S
C1314 C1316 1.378 . S
C1314 C1318 1.350 . S
C1315 C1318 1.463 . S
C1315 C1320 1.350 . S
C1315 N1323 1.427 . S
C1316 H1307 0.930 . S
C1316 C1314 1.378 . S
C1316 C1317 1.367 . S
C1317 C1316 1.367 . S
C1317 C1319 1.433 . S
C1318 C1314 1.350 . S
C1318 C1315 1.463 . S
C1318 N1322 1.427 . S
C1319 H1309 0.929 . S
C1319 C1317 1.433 . S
C1319 N1322 1.384 . S
C1320 H1311 0.929 . S
C1320 C1312 1.378 . S
C1320 C1315 1.350 . S
C1321 H1308 0.929 . S
C1321 C1313 1.433 . S
C1321 N1323 1.384 . S
N1322 C1318 1.427 . S
N1322 C1319 1.384 . S
N1323 C1315 1.427 . S
N1323 C1321 1.384 . S
H1324 C1330 0.930 . S
H1325 C1334 0.930 . S
H1326 C1339 0.929 . S
H1327 C1337 0.929 . S
H1328 C1332 0.929 . S
H1329 C1338 0.929 . S
C1330 H1324 0.930 . S
C1330 C1331 1.367 . S
C1330 C1338 1.378 . S
C1331 C1330 1.367 . S
C1331 C1339 1.433 . S
C1332 H1328 0.929 . S
C1332 C1334 1.378 . S
C1332 C1336 1.350 . S
C1333 C1336 1.463 . S
C1333 C1338 1.350 . S
C1333 N1341 1.427 . S
C1334 H1325 0.930 . S
C1334 C1332 1.378 . S
C1334 C1335 1.367 . S
C1335 C1334 1.367 . S
C1335 C1337 1.433 . S
C1336 C1332 1.350 . S
C1336 C1333 1.463 . S
C1336 N1340 1.427 . S
C1337 H1327 0.929 . S
C1337 C1335 1.433 . S
C1337 N1340 1.384 . S
C1338 H1329 0.929 . S
C1338 C1330 1.378 . S
C1338 C1333 1.350 . S
C1339 H1326 0.929 . S
C1339 C1331 1.433 . S
C1339 N1341 1.384 . S
N1340 C1336 1.427 . S
N1340 C1337 1.384 . S
N1341 C1333 1.427 . S
N1341 C1339 1.384 . S
H1342 C1348 0.930 . S
H1343 C1352 0.930 . S
H1344 C1357 0.929 . S
H1345 C1355 0.929 . S
H1346 C1350 0.929 . S
H1347 C1356 0.929 . S
C1348 H1342 0.930 . S
C1348 C1349 1.367 . S
C1348 C1356 1.378 . S
C1349 C1348 1.367 . S
C1349 C1357 1.433 . S
C1350 H1346 0.929 . S
C1350 C1352 1.378 . S
C1350 C1354 1.350 . S
C1351 C1354 1.463 . S
C1351 C1356 1.350 . S
C1351 N1359 1.427 . S
C1352 H1343 0.930 . S
C1352 C1350 1.378 . S
C1352 C1353 1.367 . S
C1353 C1352 1.367 . S
C1353 C1355 1.433 . S
C1354 C1350 1.350 . S
C1354 C1351 1.463 . S
C1354 N1358 1.427 . S
C1355 H1345 0.929 . S
C1355 C1353 1.433 . S
C1355 N1358 1.384 . S
C1356 H1347 0.929 . S
C1356 C1348 1.378 . S
C1356 C1351 1.350 . S
C1357 H1344 0.929 . S
C1357 C1349 1.433 . S
C1357 N1359 1.384 . S
N1358 C1354 1.427 . S
N1358 C1355 1.384 . S
N1359 C1351 1.427 . S
N1359 C1357 1.384 . S
H1360 C1366 0.930 . S
H1361 C1370 0.930 . S
H1362 C1375 0.929 . S
H1363 C1373 0.929 . S
H1364 C1368 0.929 . S
H1365 C1374 0.929 . S
C1366 H1360 0.930 . S
C1366 C1367 1.367 . S
C1366 C1374 1.378 . S
C1367 C1366 1.367 . S
C1367 C1375 1.433 . S
C1368 H1364 0.929 . S
C1368 C1370 1.378 1_556 S
C1368 C1372 1.350 . S
C1369 C1372 1.463 . S
C1369 C1374 1.350 . S
C1369 N1377 1.427 . S
C1370 H1361 0.930 . S
C1370 C1368 1.378 1_554 S
C1370 C1371 1.367 . S
C1371 C1370 1.367 . S
C1371 C1373 1.433 . S
C1372 C1368 1.350 . S
C1372 C1369 1.463 . S
C1372 N1376 1.427 . S
C1373 H1363 0.929 . S
C1373 C1371 1.433 . S
C1373 N1376 1.384 1_554 S
C1374 H1365 0.929 . S
C1374 C1366 1.378 . S
C1374 C1369 1.350 . S
C1375 H1362 0.929 . S
C1375 C1367 1.433 . S
C1375 N1377 1.384 . S
N1376 C1372 1.427 . S
N1376 C1373 1.384 1_556 S
N1377 C1369 1.427 . S
N1377 C1375 1.384 . S
H1378 C1384 0.930 . S
H1379 C1388 0.930 . S
H1380 C1393 0.929 . S
H1381 C1391 0.929 . S
H1382 C1386 0.929 . S
H1383 C1392 0.929 . S
C1384 H1378 0.930 . S
C1384 C1385 1.367 . S
C1384 C1392 1.378 . S
C1385 C1384 1.367 . S
C1385 C1393 1.433 . S
C1386 H1382 0.929 . S
C1386 C1388 1.378 . S
C1386 C1390 1.350 . S
C1387 C1390 1.463 . S
C1387 C1392 1.350 . S
C1387 N1395 1.427 . S
C1388 H1379 0.930 . S
C1388 C1386 1.378 . S
C1388 C1389 1.367 . S
C1389 C1388 1.367 . S
C1389 C1391 1.433 . S
C1390 C1386 1.350 . S
C1390 C1387 1.463 . S
C1390 N1394 1.427 . S
C1391 H1381 0.929 . S
C1391 C1389 1.433 . S
C1391 N1394 1.384 . S
C1392 H1383 0.929 . S
C1392 C1384 1.378 . S
C1392 C1387 1.350 . S
C1393 H1380 0.929 . S
C1393 C1385 1.433 . S
C1393 N1395 1.384 . S
N1394 C1390 1.427 . S
N1394 C1391 1.384 . S
N1395 C1387 1.427 . S
N1395 C1393 1.384 . S
H1396 C1402 0.930 . S
H1397 C1406 0.930 . S
H1398 C1411 0.929 . S
H1399 C1409 0.929 . S
H1400 C1404 0.929 . S
H1401 C1410 0.929 . S
C1402 H1396 0.930 . S
C1402 C1403 1.367 . S
C1402 C1410 1.378 . S
C1403 C1402 1.367 . S
C1403 C1411 1.433 . S
C1404 H1400 0.929 . S
C1404 C1406 1.378 . S
C1404 C1408 1.350 . S
C1405 C1408 1.463 . S
C1405 C1410 1.350 . S
C1405 N1413 1.427 . S
C1406 H1397 0.930 . S
C1406 C1404 1.378 . S
C1406 C1407 1.367 . S
C1407 C1406 1.367 . S
C1407 C1409 1.433 . S
C1408 C1404 1.350 . S
C1408 C1405 1.463 . S
C1408 N1412 1.427 . S
C1409 H1399 0.929 . S
C1409 C1407 1.433 . S
C1409 N1412 1.384 . S
C1410 H1401 0.929 . S
C1410 C1402 1.378 . S
C1410 C1405 1.350 . S
C1411 H1398 0.929 . S
C1411 C1403 1.433 . S
C1411 N1413 1.384 . S
N1412 C1408 1.427 . S
N1412 C1409 1.384 . S
N1413 C1405 1.427 . S
N1413 C1411 1.384 . S
H1414 C1420 0.930 . S
H1415 C1424 0.930 . S
H1416 C1429 0.929 . S
H1417 C1427 0.929 . S
H1418 C1422 0.929 . S
H1419 C1428 0.929 . S
C1420 H1414 0.930 . S
C1420 C1421 1.367 . S
C1420 C1428 1.378 . S
C1421 C1420 1.367 . S
C1421 C1429 1.433 . S
C1422 H1418 0.929 . S
C1422 C1424 1.378 . S
C1422 C1426 1.350 . S
C1423 C1426 1.463 . S
C1423 C1428 1.350 . S
C1423 N1431 1.427 . S
C1424 H1415 0.930 . S
C1424 C1422 1.378 . S
C1424 C1425 1.367 . S
C1425 C1424 1.367 . S
C1425 C1427 1.433 . S
C1426 C1422 1.350 . S
C1426 C1423 1.463 . S
C1426 N1430 1.427 . S
C1427 H1417 0.929 . S
C1427 C1425 1.433 . S
C1427 N1430 1.384 . S
C1428 H1419 0.929 . S
C1428 C1420 1.378 . S
C1428 C1423 1.350 . S
C1429 H1416 0.929 . S
C1429 C1421 1.433 . S
C1429 N1431 1.384 . S
N1430 C1426 1.427 . S
N1430 C1427 1.384 . S
N1431 C1423 1.427 . S
N1431 C1429 1.384 . S
H1432 C1438 0.930 . S
H1433 C1442 0.930 . S
H1434 C1447 0.929 . S
H1435 C1445 0.929 . S
H1436 C1440 0.927 . S
H1437 C1446 0.929 . S
C1438 H1432 0.930 . S
C1438 C1439 1.367 . S
C1438 C1446 1.378 . S
C1439 C1438 1.367 . S
C1439 C1447 1.433 . S
C1440 H1436 0.927 . S
C1440 C1442 1.389 . S
C1440 C1444 1.341 1_556 S
C1441 C1444 1.463 . S
C1441 C1446 1.350 . S
C1441 N1449 1.427 . S
C1442 H1433 0.930 . S
C1442 C1440 1.389 . S
C1442 C1443 1.367 . S
C1443 C1442 1.367 . S
C1443 C1445 1.433 1_556 S
C1444 C1440 1.341 1_554 S
C1444 C1441 1.463 . S
C1444 N1448 1.427 . S
C1445 H1435 0.929 . S
C1445 C1443 1.433 1_554 S
C1445 N1448 1.384 . S
C1446 H1437 0.929 . S
C1446 C1438 1.378 . S
C1446 C1441 1.350 . S
C1447 H1434 0.929 . S
C1447 C1439 1.433 . S
C1447 N1449 1.384 . S
N1448 C1444 1.427 . S
N1448 C1445 1.384 . S
N1449 C1441 1.427 . S
N1449 C1447 1.384 . S
H1450 C1456 0.930 . S
H1451 C1460 0.930 . S
H1452 C1465 0.929 . S
H1453 C1463 0.929 . S
H1454 C1458 0.929 . S
H1455 C1464 0.929 . S
C1456 H1450 0.930 . S
C1456 C1457 1.367 . S
C1456 C1464 1.378 . S
C1457 C1456 1.367 . S
C1457 C1465 1.433 . S
C1458 H1454 0.929 . S
C1458 C1460 1.378 . S
C1458 C1462 1.350 . S
C1459 C1462 1.463 . S
C1459 C1464 1.350 . S
C1459 N1467 1.427 . S
C1460 H1451 0.930 . S
C1460 C1458 1.378 . S
C1460 C1461 1.367 . S
C1461 C1460 1.367 . S
C1461 C1463 1.433 . S
C1462 C1458 1.350 . S
C1462 C1459 1.463 . S
C1462 N1466 1.427 . S
C1463 H1453 0.929 . S
C1463 C1461 1.433 . S
C1463 N1466 1.384 . S
C1464 H1455 0.929 . S
C1464 C1456 1.378 . S
C1464 C1459 1.350 . S
C1465 H1452 0.929 . S
C1465 C1457 1.433 . S
C1465 N1467 1.384 . S
N1466 C1462 1.427 . S
N1466 C1463 1.384 . S
N1467 C1459 1.427 . S
N1467 C1465 1.384 . S
H1468 C1474 0.930 . S
H1469 C1478 0.930 . S
H1470 C1483 0.929 . S
H1471 C1481 0.929 . S
H1472 C1476 0.929 . S
H1473 C1482 0.929 . S
C1474 H1468 0.930 . S
C1474 C1475 1.367 . S
C1474 C1482 1.378 . S
C1475 C1474 1.367 . S
C1475 C1483 1.433 . S
C1476 H1472 0.929 . S
C1476 C1478 1.378 . S
C1476 C1480 1.350 . S
C1477 C1480 1.463 . S
C1477 C1482 1.350 . S
C1477 N1485 1.427 . S
C1478 H1469 0.930 . S
C1478 C1476 1.378 . S
C1478 C1479 1.367 . S
C1479 C1478 1.367 . S
C1479 C1481 1.433 . S
C1480 C1476 1.350 . S
C1480 C1477 1.463 . S
C1480 N1484 1.427 . S
C1481 H1471 0.929 . S
C1481 C1479 1.433 . S
C1481 N1484 1.384 . S
C1482 H1473 0.929 . S
C1482 C1474 1.378 . S
C1482 C1477 1.350 . S
C1483 H1470 0.929 . S
C1483 C1475 1.433 . S
C1483 N1485 1.384 . S
N1484 C1480 1.427 . S
N1484 C1481 1.384 . S
N1485 C1477 1.427 . S
N1485 C1483 1.384 . S
H1486 C1492 0.930 . S
H1487 C1496 0.930 . S
H1488 C1501 0.929 . S
H1489 C1499 0.929 . S
H1490 C1494 0.929 . S
H1491 C1500 0.929 . S
C1492 H1486 0.930 . S
C1492 C1493 1.367 . S
C1492 C1500 1.378 . S
C1493 C1492 1.367 . S
C1493 C1501 1.433 . S
C1494 H1490 0.929 . S
C1494 C1496 1.378 . S
C1494 C1498 1.350 . S
C1495 C1498 1.463 . S
C1495 C1500 1.350 . S
C1495 N1503 1.427 . S
C1496 H1487 0.930 . S
C1496 C1494 1.378 . S
C1496 C1497 1.367 . S
C1497 C1496 1.367 . S
C1497 C1499 1.433 . S
C1498 C1494 1.350 . S
C1498 C1495 1.463 . S
C1498 N1502 1.427 . S
C1499 H1489 0.929 . S
C1499 C1497 1.433 . S
C1499 N1502 1.384 . S
C1500 H1491 0.929 . S
C1500 C1492 1.378 . S
C1500 C1495 1.350 . S
C1501 H1488 0.929 . S
C1501 C1493 1.433 . S
C1501 N1503 1.384 . S
N1502 C1498 1.427 . S
N1502 C1499 1.384 . S
N1503 C1495 1.427 . S
N1503 C1501 1.384 . S
C647 C11 0.310 . S
C651 C287 0.387 . S
C665 C51 2.044 . S
C669 C167 2.063 . S
C683 C207 0.830 . S
C687 C87 0.737 . S
C701 C131 2.829 . S
C705 C251 2.785 . S
C719 C456 0.373 . S
C723 C162 0.348 . S
C737 C322 2.049 . S
C741 C16 2.061 . S
C755 C416 0.835 . S
C759 C256 0.753 . S
C773 C82 2.783 . S
C777 C362 2.827 . S
C791 C367 0.367 . S
C795 C491 0.347 . S
C809 C411 2.045 . S
C813 C567 2.063 . S
C827 C527 0.742 . S
C831 C327 0.839 . S
C845 C451 2.828 . S
C849 C611 2.785 1_554 S
C863 C562 0.345 . S
C867 C136 0.363 . S
C881 C496 2.057 . S
C885 C202 2.046 . S
C899 C56 0.824 . S
C903 C616 0.737 . S
C917 C282 2.830 . S
C921 C522 2.778 1_556 S
C935 C530 0.443 . S
C939 C19 0.455 . S
C953 C459 0.676 . S
C957 C59 0.708 . S
C971 C499 0.401 . S
C975 C90 0.497 . S
C989 C419 0.732 . S
C993 C139 0.703 . S
C1007 C170 0.448 . S
C1011 C619 0.441 1_655 S
C1025 C370 0.678 . S
C1029 C210 0.718 . S
C1043 C259 0.461 . S
C1047 C570 0.436 . S
C1061 C290 0.682 . S
C1065 C330 0.729 . S
C1079 C10 1.589 . S
C1083 C179 1.589 . S
C1097 C50 1.968 . S
C1101 C219 1.968 . S
C1115 C250 1.510 . S
C1119 C99 1.510 . S
C1133 C130 1.251 . S
C1137 C299 1.251 . S
C1151 C410 1.968 . S
C1155 C339 1.968 . S
C1169 C450 1.243 . S
C1173 C379 1.243 . S
C1187 C490 1.588 . S
C1191 C579 1.588 . S
C1205 C610 1.520 1_455 S
C1209 C539 1.520 . S
C1223 C7 2.797 . S
C1227 C291 2.856 . S
C1241 C47 0.951 . S
C1245 C171 0.990 . S
C1259 C211 3.621 1_556 S
C1263 C91 3.600 . S
C1277 C247 0.614 . S
C1281 C127 0.631 . S
C1295 C442 2.857 . S
C1299 C176 2.796 . S
C1313 C336 0.960 . S
C1317 C2 0.992 . S
C1331 C402 3.621 1_554 S
C1335 C242 3.596 . S
C1349 C96 0.631 . S
C1353 C376 0.616 . S
C1367 C487 2.790 . S
C1371 C371 2.857 . S
C1385 C571 0.992 . S
C1389 C407 0.959 . S
C1403 C531 3.600 1_655 S
C1407 C331 3.621 . S
C1421 C607 0.637 . S
C1425 C447 0.618 . S
C1439 C576 2.792 . S
C1443 C122 2.855 . S
C1457 C216 0.953 . S
C1461 C482 1.000 . S
C1475 C42 3.621 . S
C1479 C602 3.596 . S
C1493 C536 0.644 . S
C1497 C296 0.623 . S
