# Generated by pormake.
# Topology vby, (6)-cn, num edge types: 1
# Building blocks:
#     Node 0, Type 0, BuildingBlock: KUMBOL_clean_sbu_0, # of connection points: 6
#     Node 1, Type 0, BuildingBlock: KUMBOL_clean_sbu_0, # of connection points: 6
#     Node 2, Type 0, BuildingBlock: KUMBOL_clean_sbu_0, # of connection points: 6
#     Node 3, Type 0, BuildingBlock: KUMBOL_clean_sbu_0, # of connection points: 6
#     Node 4, Type 0, BuildingBlock: KUMBOL_clean_sbu_0, # of connection points: 6
#     Node 5, Type 0, BuildingBlock: KUMBOL_clean_sbu_0, # of connection points: 6
#     Node 6, Type 0, BuildingBlock: KUMBOL_clean_sbu_0, # of connection points: 6
#     Node 7, Type 0, BuildingBlock: KUMBOL_clean_sbu_0, # of connection points: 6
#     Edge 8, Type (0, 0), BuildingBlock: ZUJKAS_clean_linker_0, # of connection points: 2
#     Edge 9, Type (0, 0), BuildingBlock: ZUJKAS_clean_linker_0, # of connection points: 2
#     Edge 10, Type (0, 0), BuildingBlock: ZUJKAS_clean_linker_0, # of connection points: 2
#     Edge 11, Type (0, 0), BuildingBlock: ZUJKAS_clean_linker_0, # of connection points: 2
#     Edge 12, Type (0, 0), BuildingBlock: ZUJKAS_clean_linker_0, # of connection points: 2
#     Edge 13, Type (0, 0), BuildingBlock: ZUJKAS_clean_linker_0, # of connection points: 2
#     Edge 14, Type (0, 0), BuildingBlock: ZUJKAS_clean_linker_0, # of connection points: 2
#     Edge 15, Type (0, 0), BuildingBlock: ZUJKAS_clean_linker_0, # of connection points: 2
#     Edge 16, Type (0, 0), BuildingBlock: ZUJKAS_clean_linker_0, # of connection points: 2
#     Edge 17, Type (0, 0), BuildingBlock: ZUJKAS_clean_linker_0, # of connection points: 2
#     Edge 18, Type (0, 0), BuildingBlock: ZUJKAS_clean_linker_0, # of connection points: 2
#     Edge 19, Type (0, 0), BuildingBlock: ZUJKAS_clean_linker_0, # of connection points: 2
#     Edge 20, Type (0, 0), BuildingBlock: ZUJKAS_clean_linker_0, # of connection points: 2
#     Edge 21, Type (0, 0), BuildingBlock: ZUJKAS_clean_linker_0, # of connection points: 2
#     Edge 22, Type (0, 0), BuildingBlock: ZUJKAS_clean_linker_0, # of connection points: 2
#     Edge 23, Type (0, 0), BuildingBlock: ZUJKAS_clean_linker_0, # of connection points: 2
#     Edge 24, Type (0, 0), BuildingBlock: ZUJKAS_clean_linker_0, # of connection points: 2
#     Edge 25, Type (0, 0), BuildingBlock: ZUJKAS_clean_linker_0, # of connection points: 2
#     Edge 26, Type (0, 0), BuildingBlock: ZUJKAS_clean_linker_0, # of connection points: 2
#     Edge 27, Type (0, 0), BuildingBlock: ZUJKAS_clean_linker_0, # of connection points: 2
#     Edge 28, Type (0, 0), BuildingBlock: ZUJKAS_clean_linker_0, # of connection points: 2
#     Edge 29, Type (0, 0), BuildingBlock: ZUJKAS_clean_linker_0, # of connection points: 2
#     Edge 30, Type (0, 0), BuildingBlock: ZUJKAS_clean_linker_0, # of connection points: 2
#     Edge 31, Type (0, 0), BuildingBlock: ZUJKAS_clean_linker_0, # of connection points: 2
# Relax obj value: 0.108
# Max RMSD: 0.192
# Mean RMSD: 0.192
data_MOF--net-vby--node1-KUMBOL_clean_sbu_0--edge1-ZUJKAS_clean_linker_0
_symmetry_space_group_name_H-M    P1
_symmetry_Int_Tables_number       1
_symmetry_cell_setting            triclinic
loop_
_symmetry_equiv_pos_as_xyz
'x, y, z'
_cell_length_a     18.858684
_cell_length_b     115.84559
_cell_length_c     39.182981
_cell_angle_alpha  115.30008
_cell_angle_beta   90.005244
_cell_angle_gamma 90.028907
loop_
_atom_site_label
_atom_site_type_symbol
_atom_site_fract_x
_atom_site_fract_y
_atom_site_fract_z
_atom_type_partial_charge
Gd0 Gd 0.0918 0.36487 0.9914 0.0
Gd1 Gd 0.10746 0.39969 0.03068 0.0
C2 C 0.33402 0.41084 0.01478 0.0
C3 C 0.38257 0.41855 0.07801 0.0
C4 C 0.26107 0.41064 0.06546 0.0
C5 C 0.26922 0.40803 0.02776 0.0
C6 C 0.3175 0.41617 0.0911 0.0
C7 C 0.39062 0.416 0.04002 0.0
C8 C 0.33984 0.40857 0.97689 0.0
C9 C 0.28184 0.40379 0.95303 0.0
N10 N 0.21374 0.40295 0.00386 0.0
C11 C 0.21879 0.40121 0.96712 0.0
H12 H 0.17434 0.3982 0.94834 0.0
C13 C 0.1839 0.4134 0.11565 0.0
N14 N 0.19687 0.40856 0.07756 0.0
C15 C 0.23851 0.41855 0.14188 0.0
C16 C 0.3061 0.41969 0.12948 0.0
H17 H 0.131 0.41376 0.12654 0.0
H18 H 0.44055 0.41825 0.0306 0.0
H19 H 1.00105 0.36575 0.06669 0.0
H20 H 0.38832 0.41072 0.96593 0.0
H21 H 0.28519 0.40228 0.92384 0.0
H22 H 0.42637 0.42273 0.09728 0.0
H23 H 0.10448 0.34762 0.89709 0.0
H24 H 0.79691 0.34965 0.03079 0.0
H25 H 0.88526 0.35969 0.08131 0.0
H26 H 0.79896 0.33723 0.89783 0.0
H27 H 0.22782 0.42199 0.17176 0.0
H28 H 0.34809 0.42393 0.14994 0.0
H29 H 0.76192 0.34269 0.96311 0.0
H30 H 1.02571 0.33677 0.84247 0.0
N31 N 0.97851 0.36034 0.00847 0.0
C32 C 0.84675 0.35291 0.02438 0.0
C33 C 0.89687 0.35841 0.05287 0.0
C34 C 0.86293 0.35108 0.98763 0.0
C35 C 0.93073 0.35467 0.98029 0.0
C36 C 0.96283 0.36199 0.04436 0.0
N37 N 1.02062 0.35335 0.9375 0.0
C38 C 0.95181 0.35146 0.94364 0.0
C39 C 1.00384 0.34102 0.87071 0.0
C40 C 0.93162 0.34 0.87644 0.0
C41 C 0.04812 0.34732 0.90176 0.0
C42 C 0.90532 0.34475 0.9133 0.0
H43 H 0.89759 0.33485 0.85241 0.0
O44 O 0.14497 0.34662 0.96152 0.0
O45 O 0.16788 0.38138 0.01583 0.0
O46 O 0.07099 0.39188 0.96962 0.0
O47 O 0.0978 0.3702 0.94254 0.0
O48 O 0.19725 0.36566 0.96644 0.0
O49 O 0.11786 0.35291 0.02004 0.0
O50 O 0.06845 0.41854 0.06771 0.0
O51 O 1.03184 0.38318 0.00688 0.0
O52 O 0.11055 0.37311 0.05468 0.0
O53 O 0.0896 0.395 0.07981 0.0
O54 O 0.99891 0.39925 0.05389 0.0
O55 O 0.08071 0.41347 0.0083 0.0
C56 C 0.21731 0.37662 0.9917 0.0
C57 C 0.83569 0.3422 0.92073 0.0
C58 C 0.81471 0.34525 0.95785 0.0
C59 C 0.14143 0.34352 0.98969 0.0
C60 C 0.11163 0.3308 0.98135 0.0
C61 C 0.04616 0.32719 0.96286 0.0
C62 C 0.14766 0.32225 0.99218 0.0
C63 C 0.11752 0.31026 0.98489 0.0
C64 C 1.0162 0.31539 0.95562 0.0
C65 C 0.05146 0.30697 0.96656 0.0
C66 C 0.08005 0.38079 0.93997 0.0
C67 C 0.9804 0.388 0.02954 0.0
C68 C 0.06841 0.42264 0.04151 0.0
C69 C 0.10553 0.43488 0.05061 0.0
C70 C 0.16523 0.4382 0.07434 0.0
C71 C 0.08212 0.4433 0.03553 0.0
C72 C 0.11939 0.45475 0.04354 0.0
C73 C 0.20238 0.44941 0.08202 0.0
C74 C 0.17991 0.45762 0.06667 0.0
C75 C 0.09905 0.38432 0.08339 0.0
H76 H 1.0182 0.33341 0.95373 0.0
H77 H 0.19832 0.32496 0.0065 0.0
H78 H 0.96564 0.31274 0.94127 0.0
H79 H 1.02756 0.29776 0.96002 0.0
H80 H 0.18308 0.43223 0.0874 0.0
H81 H 1.03571 0.44093 0.01748 0.0
H82 H 0.24845 0.45181 0.10024 0.0
H83 H 0.20908 0.4664 0.0736 0.0
Gd84 Gd 0.94854 0.61552 0.98928 0.0
Gd85 Gd 0.9613 0.65026 0.02805 0.0
C86 C 0.18172 0.66782 0.06027 0.0
C87 C 0.1767 0.67774 0.12885 0.0
C88 C 0.07477 0.66621 0.09207 0.0
C89 C 0.11232 0.66314 0.05906 0.0
C90 C 0.10571 0.6739 0.12731 0.0
C91 C 0.21443 0.67481 0.09536 0.0
C92 C 0.2146 0.66594 0.02625 0.0
C93 C 0.1778 0.65975 0.99232 0.0
N94 N 0.07838 0.65669 0.0257 0.0
C95 C 0.10916 0.65523 0.99258 0.0
H96 H 0.08109 0.65049 0.96623 0.0
C97 C 0.96166 0.66838 0.12025 0.0
N98 N 1.00505 0.66305 0.08929 0.0
C99 C 0.99037 0.67565 0.15597 0.0
C100 C 0.06303 0.67822 0.15963 0.0
H101 H 0.90534 0.66646 0.11744 0.0
H102 H 0.26782 0.67845 0.09695 0.0
H103 H 0.88851 0.61638 0.0762 0.0
H104 H 0.26743 0.66956 0.02592 0.0
H105 H 0.20229 0.65844 0.96593 0.0
H106 H 0.20165 0.68355 0.15566 0.0
H107 H 0.89886 0.61022 0.89968 0.0
H108 H 0.68326 0.60056 0.05816 0.0
H109 H 0.78518 0.61035 0.0997 0.0
H110 H 0.63323 0.59003 0.92937 0.0
H111 H 0.95638 0.67937 0.18057 0.0
H112 H 0.08492 0.68408 0.18724 0.0
H113 H 0.62932 0.59246 0.99459 0.0
H114 H 0.79787 0.60209 0.85842 0.0
N115 N 0.84777 0.6116 0.02013 0.0
C116 C 0.72882 0.6036 0.04724 0.0
C117 C 0.78601 0.60916 0.07075 0.0
C118 C 0.73122 0.6019 0.00984 0.0
C119 C 0.79146 0.60618 -0.00311 0.0
C120 C 0.84545 0.61286 0.05671 0.0
N121 N 0.84988 0.60949 0.94812 0.0
C122 C 0.7927 0.60508 0.96012 0.0
C123 C 0.79518 0.60302 0.88709 0.0
C124 C 0.73602 0.59867 0.89917 0.0
C125 C 0.85234 0.6081 0.91157 0.0
C126 C 0.73464 0.59946 0.9357 0.0
H127 H 0.69225 0.59451 0.87985 0.0
O128 O 0.98412 0.59909 0.93917 0.0
O129 O 1.02147 0.632 0.00049 0.0
O130 O 0.95686 0.64197 0.96406 0.0
O131 O 0.98678 0.62049 0.94215 0.0
O132 O 0.0622 0.61683 0.00908 0.0
O133 O 0.96291 0.59718 0.99158 0.0
O134 O 0.88854 0.66647 0.04628 0.0
O135 O 0.88696 0.63349 0.00338 0.0
O136 O 0.97772 0.62222 0.05054 0.0
O137 O 0.98435 0.64452 0.07532 0.0
O138 O 0.85638 0.64871 0.05298 0.0
O139 O 0.95784 0.66269 -0.0007 0.0
C140 C 0.07647 0.62795 0.01071 0.0
C141 C 0.67715 0.59464 0.94811 0.0
C142 C 0.67507 0.59597 0.98517 0.0
C143 C 0.9816 0.59158 0.95623 0.0
C144 C 1.00055 0.57788 0.9372 0.0
C145 C 1.01712 0.5724 0.89855 0.0
C146 C 1.00123 0.57011 0.95692 0.0
C147 C 1.0201 0.55711 0.93817 0.0
C148 C 1.03479 0.55951 0.8799 0.0
C149 C 1.03663 0.55193 0.89952 0.0
C150 C 0.97567 0.63088 0.93664 0.0
C151 C 0.83762 0.63772 0.02757 0.0
C152 C 0.91258 0.67062 0.02246 0.0
C153 C 0.93286 0.68424 0.03791 0.0
C154 C 0.98812 0.68884 0.06424 0.0
C155 C 0.90014 0.69258 0.02505 0.0
C156 C 0.92393 0.70532 0.03814 0.0
C157 C 1.01129 0.70141 0.07746 0.0
C158 C 0.97965 0.70961 0.06445 0.0
C159 C 0.98711 0.63366 0.07858 0.0
H160 H 1.01624 0.57807 0.8826 0.0
H161 H 0.98839 0.57417 0.98673 0.0
H162 H 0.04724 0.55538 0.85009 0.0
H163 H 0.05048 0.54194 0.88436 0.0
H164 H 1.01394 0.68273 0.07445 0.0
H165 H 0.8577 0.68913 0.00447 0.0
H166 H 0.05413 0.70478 0.09775 0.0
H167 H 0.99829 0.71938 0.07528 0.0
Gd168 Gd 0.10442 0.65045 0.53319 0.0
Gd169 Gd 0.13227 0.61528 0.48506 0.0
C170 C 0.34754 0.59765 0.43873 0.0
C171 C 0.32802 0.58857 0.37091 0.0
C172 C 0.23305 0.59986 0.41423 0.0
C173 C 0.27754 0.60236 0.44459 0.0
C174 C 0.25699 0.59258 0.37707 0.0
C175 C 0.37321 0.59109 0.40171 0.0
C176 C 0.38866 0.59928 0.47022 0.0
C177 C 0.35903 0.60517 0.50631 0.0
N178 N 0.25064 0.60857 0.47993 0.0
C179 C 0.2892 0.60965 0.51063 0.0
H180 H 0.26662 0.6142 0.53859 0.0
C181 C 0.11494 0.59894 0.39298 0.0
N182 N 0.16407 0.60333 0.42141 0.0
C183 C 0.13632 0.59198 0.35554 0.0
C184 C 0.2079 0.58895 0.34746 0.0
H185 H 0.05945 0.60113 0.39924 0.0
H186 H 0.42716 0.58755 0.39662 0.0
H187 H 0.97681 0.65599 0.48297 0.0
H188 H 0.4427 0.59581 0.46694 0.0
H189 H 0.38997 0.6063 0.53079 0.0
H190 H 0.3477 0.58308 0.34254 0.0
H191 H 0.17518 0.66069 0.62037 0.0
H192 H 0.80311 0.67435 0.55618 0.0
H193 H 0.85727 0.6654 0.49262 0.0
H194 H 0.89406 0.68267 0.67859 0.0
H195 H 0.09753 0.58886 0.33302 0.0
H196 H 0.22419 0.58336 0.3185 0.0
H197 H 0.81693 0.68058 0.6256 0.0
H198 H 0.13763 0.67211 0.68645 0.0
N199 N 0.98954 0.65906 0.54015 0.0
C200 C 0.85552 0.67014 0.55207 0.0
C201 C 0.886 0.66515 0.51621 0.0
C202 C 0.89457 0.67025 0.58255 0.0
C203 C 0.96264 0.66467 0.57563 0.0
C204 C 0.95378 0.65976 0.51083 0.0
N205 N 0.07349 0.6615 0.59761 0.0
C206 C 1.00614 0.66599 0.60542 0.0
C207 C 0.10002 0.67042 0.66394 0.0
C208 C 1.03026 0.67471 0.67237 0.0
C209 C 0.12114 0.66395 0.62627 0.0
C210 C 0.98263 0.6727 0.64298 0.0
H211 H 1.01423 0.67981 0.70159 0.0
O212 O 0.18073 0.666 0.55055 0.0
O213 O 0.18419 0.63458 0.50634 0.0
O214 O 0.14179 0.62383 0.54937 0.0
O215 O 0.06679 0.6414 0.57054 0.0
O216 O 0.2122 0.64971 0.55622 0.0
O217 O 0.10545 0.66352 0.50643 0.0
O218 O 0.06707 0.59822 0.46862 0.0
O219 O 0.05643 0.63123 0.5077 0.0
O220 O 0.08557 0.64285 0.46997 0.0
O221 O 0.14395 0.6231 0.44147 0.0
O222 O 1.01646 0.61453 0.46768 0.0
O223 O 0.13844 0.60354 0.51601 0.0
C224 C 0.23441 0.63922 0.52984 0.0
C225 C 0.91332 0.67757 0.64995 0.0
C226 C 0.86935 0.67636 0.61977 0.0
C227 C 0.15453 0.67081 0.52866 0.0
C228 C 0.13913 0.68461 0.54698 0.0
C229 C 0.08974 0.68936 0.57647 0.0
C230 C 0.17445 0.69316 0.53584 0.0
C231 C 0.16052 0.7064 0.55446 0.0
C232 C 0.07502 0.70236 0.59455 0.0
C233 C 0.10998 0.71083 0.58368 0.0
C234 C 0.09891 0.63204 0.57524 0.0
C235 C 1.00109 0.62622 0.48919 0.0
C236 C 0.09577 0.59479 0.49318 0.0
C237 C 0.12222 0.58151 0.47838 0.0
C238 C 0.17086 0.57715 0.44849 0.0
C239 C 0.10097 0.5732 0.49432 0.0
C240 C 0.13015 0.56079 0.4808 0.0
C241 C 0.20009 0.56499 0.43534 0.0
C242 C 0.18021 0.55687 0.45145 0.0
C243 C 0.11289 0.63318 0.4403 0.0
H244 H 0.06273 0.68305 0.58571 0.0
H245 H 0.21335 0.68956 0.51335 0.0
H246 H 1.03643 0.70588 0.61715 0.0
H247 H 0.09689 0.72088 0.59798 0.0
H248 H 0.18614 0.58309 0.43507 0.0
H249 H 0.06282 0.57637 0.51719 0.0
H250 H 0.23793 0.56183 0.41237 0.0
H251 H 0.20287 0.54737 0.44035 0.0
Gd252 Gd 0.95376 0.39558 0.53047 0.0
Gd253 Gd 0.98187 0.36076 0.48069 0.0
C254 C 0.19166 0.34175 0.42846 0.0
C255 C 0.16681 0.33332 0.36126 0.0
C256 C 0.07592 0.34491 0.40712 0.0
C257 C 0.12251 0.34684 0.43628 0.0
C258 C 0.09707 0.33793 0.36926 0.0
C259 C 0.21403 0.33523 0.39081 0.0
C260 C 0.23532 0.34297 0.45869 0.0
C261 C 0.20874 0.3487 0.49543 0.0
N262 N 0.09858 0.35292 0.47228 0.0
C263 C 0.13949 0.35347 0.50168 0.0
H264 H 0.11958 0.35788 0.5302 0.0
C265 C 0.95869 0.34649 0.38814 0.0
N266 N 1.0085 0.34925 0.41596 0.0
C267 C 0.97734 0.33973 0.35018 0.0
C268 C 0.04697 0.33551 0.34065 0.0
H269 H 0.90471 0.34969 0.3949 0.0
H270 H 0.26713 0.33133 0.38425 0.0
H271 H 0.81932 0.39791 0.4785 0.0
H272 H 0.28887 0.33923 0.4539 0.0
H273 H 0.24157 0.34948 0.51897 0.0
H274 H 0.18421 0.32801 0.33235 0.0
H275 H 1.02659 0.40806 0.61679 0.0
H276 H 0.64243 0.41477 0.55133 0.0
H277 H 0.69531 0.40547 0.48741 0.0
H278 H 0.73889 0.4261 0.67471 0.0
H279 H 0.93795 0.33777 0.3283 0.0
H280 H 0.06114 0.3302 0.31122 0.0
H281 H 0.65878 0.4222 0.62126 0.0
H282 H 0.98877 0.4198 0.68309 0.0
N283 N 0.83547 0.40243 0.53654 0.0
C284 C 0.69674 0.41141 0.54755 0.0
C285 C 0.72648 0.40622 0.51145 0.0
C286 C 0.73831 0.41264 0.57852 0.0
C287 C 0.80861 0.40808 0.57202 0.0
C288 C 0.79674 0.40194 0.50652 0.0
N289 N 0.92236 0.40672 0.5945 0.0
C290 C 0.85344 0.41023 0.60204 0.0
C291 C 0.9501 0.41711 0.66059 0.0
C292 C 0.87871 0.42025 0.66892 0.0
C293 C 0.97134 0.41047 0.62299 0.0
C294 C 0.82959 0.41705 0.63947 0.0
H295 H 0.86249 0.4255 0.69807 0.0
O296 O 1.02109 0.4124 0.54854 0.0
O297 O 1.03268 0.37996 0.50418 0.0
O298 O 1.00245 0.36848 0.54362 0.0
O299 O 0.93252 0.38672 0.57084 0.0
O300 O 0.06679 0.39575 0.55055 0.0
O301 O 0.94641 0.40839 0.50304 0.0
O302 O 0.91012 0.3446 0.46498 0.0
O303 O 0.9023 0.37642 0.50768 0.0
O304 O 0.94205 0.38783 0.46635 0.0
O305 O 1.01298 0.36966 0.44212 0.0
O306 O 0.87074 0.36114 0.45939 0.0
O307 O 0.98723 0.3483 0.50929 0.0
C308 C 0.08575 0.38473 0.52539 0.0
C309 C 0.75846 0.42096 0.64615 0.0
C310 C 0.71287 0.41875 0.61571 0.0
C311 C 0.99126 0.41662 0.52601 0.0
C312 C 0.96747 0.43006 0.54343 0.0
C313 C 0.92434 0.43444 0.57566 0.0
C314 C 0.98611 0.43854 0.52768 0.0
C315 C 0.9599 0.45116 0.54372 0.0
C316 C 0.89826 0.44686 0.59144 0.0
C317 C 0.91552 0.45517 0.57551 0.0
C318 C 0.96813 0.37717 0.57277 0.0
C319 C 0.85062 0.37191 0.4852 0.0
C320 C 0.93907 0.34048 0.48791 0.0
C321 C 0.95758 0.32682 0.47151 0.0
C322 C 1.00675 0.3219 0.44194 0.0
C323 C 0.92691 0.31862 0.4855 0.0
C324 C 0.94646 0.30563 0.47026 0.0
C325 C 1.02612 0.30908 0.42675 0.0
C326 C 0.99639 0.30099 0.4408 0.0
C327 C 0.98096 0.37929 0.43889 0.0
H328 H 0.91091 0.42831 0.58883 0.0
H329 H 1.01991 0.43532 0.50296 0.0
H330 H 0.86478 0.45008 0.61623 0.0
H331 H 0.89525 0.46484 0.58848 0.0
H332 H 1.03005 0.32793 0.43047 0.0
H333 H 0.8888 0.32236 0.50836 0.0
H334 H 0.06412 0.3054 0.40389 0.0
H335 H 1.01161 0.29101 0.42816 0.0
Gd336 Gd 0.6048 0.8647 0.98836 0.0
Gd337 Gd 0.62803 0.89957 0.02667 0.0
C338 C 0.85494 0.91044 0.01141 0.0
C339 C 0.89802 0.92052 0.07592 0.0
C340 C 0.77783 0.91203 0.06273 0.0
C341 C 0.78947 0.90793 0.02443 0.0
C342 C 0.83184 0.91856 0.08892 0.0
C343 C 0.9093 0.91659 0.0373 0.0
C344 C 0.86358 0.90685 0.97277 0.0
C345 C 0.80873 0.9006 0.948 0.0
N346 N 0.73673 0.90164 -0.00012 0.0
C347 C 0.74548 0.89808 0.96204 0.0
H348 H 0.70416 0.89341 0.94214 0.0
C349 C 0.69629 0.91621 0.11223 0.0
N350 N 0.71285 0.91022 0.07455 0.0
C351 C 0.74839 0.92243 0.13918 0.0
C352 C 0.81697 0.92339 0.12749 0.0
H353 H 0.64247 0.91636 0.12186 0.0
H354 H 0.96005 0.91849 0.02778 0.0
H355 H 0.49102 0.8662 0.05645 0.0
H356 H 0.91194 0.90899 0.96175 0.0
H357 H 0.81487 0.89779 0.91804 0.0
H358 H 0.94015 0.92543 0.09562 0.0
H359 H 0.64631 0.84627 0.89781 0.0
H360 H 0.29477 0.8494 0.00501 0.0
H361 H 0.36896 0.86004 0.06211 0.0
H362 H 0.34176 0.83373 0.87312 0.0
H363 H 0.73513 0.92675 0.1689 0.0
H364 H 0.85708 0.9284 0.14842 0.0
H365 H 0.28339 0.84049 0.9348 0.0
H366 H 0.58506 0.83345 0.83755 0.0
N367 N 0.48672 0.85967 -0.00338 0.0
C368 C 0.34829 0.85232 0.00242 0.0
C369 C 0.39017 0.85821 0.03461 0.0
C370 C 0.37689 0.84976 0.96702 0.0
C371 C 0.44752 0.85342 0.96494 0.0
C372 C 0.45978 0.86172 0.03117 0.0
N373 N 0.55096 0.85166 0.9299 0.0
C374 C 0.48034 0.84958 0.93033 0.0
C375 C 0.55482 0.83802 0.86336 0.0
C376 C 0.48126 0.83664 0.86287 0.0
C377 C 0.58926 0.84524 0.89749 0.0
C378 C 0.44343 0.84203 0.89681 0.0
H379 H 0.45478 0.83083 0.83652 0.0
O380 O 0.66956 0.84746 0.9669 0.0
O381 O 0.6835 0.88085 0.01216 0.0
O382 O 0.59071 0.89203 0.96575 0.0
O383 O 0.59488 0.86976 0.93917 0.0
O384 O 0.71263 0.86475 0.96419 0.0
O385 O 0.61386 0.85306 0.01947 0.0
O386 O 0.58751 0.9187 0.05999 0.0
O387 O 0.54977 0.88356 0.00535 0.0
O388 O 0.60702 0.87315 0.05212 0.0
O389 O 0.61924 0.89531 0.07734 0.0
O390 O 0.5198 0.90011 0.05155 0.0
O391 O 0.6125 0.91269 0.00097 0.0
C392 C 0.73366 0.87571 0.9889 0.0
C393 C 0.37129 0.83934 0.89859 0.0
C394 C 0.33813 0.84315 0.9337 0.0
C395 C 0.65144 0.84421 0.99364 0.0
C396 C 0.62574 0.831 0.98161 0.0
C397 C 0.56423 0.82695 0.9596 0.0
C398 C 0.66086 0.82246 0.99285 0.0
C399 C 0.63356 0.81005 0.98238 0.0
C400 C 0.53764 0.81469 0.94881 0.0
C401 C 0.57191 0.80628 0.9601 0.0
C402 C 0.58706 0.88067 0.93663 0.0
C403 C 0.49927 0.88884 0.02829 0.0
C404 C 0.58795 0.9218 0.03171 0.0
C405 C 0.52618 0.92878 0.02735 0.0
C406 C 0.45715 0.92416 0.0263 0.0
C407 C 0.53693 0.94022 0.02376 0.0
C408 C 0.479 0.94718 0.01946 0.0
C409 C 0.39941 0.931 0.02226 0.0
C410 C 0.41003 0.94243 0.01898 0.0
C411 C 0.61146 0.88455 0.0808 0.0
H412 H 0.53637 0.83324 0.9508 0.0
H413 H 0.70814 0.82552 0.01016 0.0
H414 H 0.49016 0.81171 0.9317 0.0
H415 H 0.55048 0.79675 0.95108 0.0
H416 H 0.44787 0.9153 0.02862 0.0
H417 H 0.5906 0.94359 0.0238 0.0
H418 H 0.34612 0.92746 0.02176 0.0
H419 H 0.36407 0.94761 0.01648 0.0
Gd420 Gd 0.4356 0.11625 0.99191 0.0
Gd421 Gd 0.46081 0.15151 0.03186 0.0
C422 C 0.68487 0.16759 0.06312 0.0
C423 C 0.67943 0.17807 0.13163 0.0
C424 C 0.57557 0.16733 0.09513 0.0
C425 C 0.61372 0.16369 0.06207 0.0
C426 C 0.60721 0.17493 0.13022 0.0
C427 C 0.71822 0.1744 0.0981 0.0
C428 C 0.71937 0.16499 0.029 0.0
C429 C 0.68203 0.15913 0.99514 0.0
N430 N 0.57939 0.15733 0.02879 0.0
C431 C 0.61148 0.15546 0.99557 0.0
H432 H 0.58369 0.15089 0.9691 0.0
C433 C 0.46236 0.17005 0.12349 0.0
N434 N 0.50537 0.16455 0.09251 0.0
C435 C 0.49148 0.17743 0.15904 0.0
C436 C 0.56447 0.1797 0.16253 0.0
H437 H 0.40588 0.16829 0.12084 0.0
H438 H 0.77317 0.1773 0.09947 0.0
H439 H 0.36852 0.12092 0.07855 0.0
H440 H 0.77404 0.1678 0.02857 0.0
H441 H 0.70767 0.15733 0.96863 0.0
H442 H 0.70499 0.18377 0.15836 0.0
H443 H 0.40285 0.10421 0.89653 0.0
H444 H 0.15398 0.10876 0.06337 0.0
H445 H 0.25824 0.11745 0.10444 0.0
H446 H 0.11058 0.09585 0.93232 0.0
H447 H 0.45762 0.18141 0.18366 0.0
H448 H 0.58678 0.18557 0.19003 0.0
H449 H 0.09963 0.10087 -0.00045 0.0
H450 H 0.3023 0.09667 0.85404 0.0
N451 N 0.32978 0.11457 0.02196 0.0
C452 C 0.203 0.11027 0.05141 0.0
C453 C 0.26158 0.11521 0.07469 0.0
C454 C 0.20816 0.10735 0.01304 0.0
C455 C 0.27326 0.10949 -0.00129 0.0
C456 C 0.32472 0.11727 0.05952 0.0
N457 N 0.34244 0.10874 0.94713 0.0
C458 C 0.2794 0.10671 0.96058 0.0
C459 C 0.29459 0.09972 0.88403 0.0
C460 C 0.22855 0.09846 0.89781 0.0
C461 C 0.3515 0.10451 0.9089 0.0
C462 C 0.22064 0.10164 0.93623 0.0
H463 H 0.18469 0.09458 0.87835 0.0
O464 O 0.46166 0.09701 0.95119 0.0
O465 O 0.51093 0.13247 0.01027 0.0
O466 O 0.46556 0.14288 0.96811 0.0
O467 O 0.46189 0.12056 0.94261 0.0
O468 O 0.5542 0.11473 0.98104 0.0
O469 O 0.44805 0.10114 0.01036 0.0
O470 O 0.39069 0.16803 0.04963 0.0
O471 O 0.38174 0.13531 0.0077 0.0
O472 O 0.47314 0.1233 0.05249 0.0
O473 O 0.4839 0.14565 0.07858 0.0
O474 O 0.35416 0.1512 0.05671 0.0
O475 O 0.4575 0.16322 0.00091 0.0
C476 C 0.56927 0.12666 -0.00152 0.0
C477 C 0.15606 0.09966 0.95064 0.0
C478 C 0.14989 0.10248 0.98889 0.0
C479 C 0.46424 0.09255 0.97667 0.0
C480 C 0.52268 0.08375 0.97419 0.0
C481 C 0.59114 0.08541 0.96291 0.0
C482 C 0.50922 0.07337 0.98301 0.0
C483 C 0.56387 0.06483 0.98119 0.0
C484 C 0.64561 0.07706 0.96144 0.0
C485 C 0.6323 0.06687 0.9706 0.0
C486 C 0.46765 0.13143 0.93943 0.0
C487 C 0.33244 0.14035 0.03167 0.0
C488 C 0.41405 0.17158 0.02432 0.0
C489 C 0.43622 0.18504 0.03798 0.0
C490 C 0.49563 0.18944 0.06153 0.0
C491 C 0.40047 0.19342 0.02638 0.0
C492 C 0.42528 0.20603 0.03788 0.0
C493 C 0.51971 0.20191 0.07333 0.0
C494 C 0.48501 0.21016 0.06151 0.0
C495 C 0.48601 0.1346 0.08077 0.0
H496 H 0.60283 0.09304 0.9549 0.0
H497 H 0.45631 0.07199 0.99147 0.0
H498 H 0.69828 0.07843 0.9528 0.0
H499 H 0.67526 0.06041 0.96855 0.0
H500 H 0.52394 0.18324 0.0706 0.0
H501 H 0.3548 0.1901 0.00791 0.0
H502 H 0.56567 0.20517 0.09152 0.0
H503 H 0.50454 0.21984 0.07112 0.0
Gd504 Gd 0.61111 0.14949 0.53175 0.0
Gd505 Gd 0.62131 0.11447 0.48596 0.0
C506 C 0.84286 0.10051 0.49779 0.0
C507 C 0.88802 0.09249 0.43391 0.0
C508 C 0.77234 0.10281 0.44929 0.0
C509 C 0.78034 0.10463 0.48642 0.0
C510 C 0.82641 0.09665 0.42265 0.0
C511 C 0.89607 0.09436 0.47134 0.0
C512 C 0.84961 0.10238 0.53528 0.0
C513 C 0.79399 0.10785 0.56025 0.0
N514 N 0.72667 0.11012 0.51124 0.0
C515 C 0.73238 0.11146 0.54761 0.0
H516 H 0.68979 0.11502 0.56737 0.0
C517 C 0.69675 0.10227 0.40065 0.0
N518 N 0.70979 0.10605 0.43844 0.0
C519 C 0.74994 0.09683 0.37379 0.0
C520 C 0.81551 0.09416 0.3849 0.0
H521 H 0.64461 0.10286 0.3902 0.0
H522 H 0.94389 0.09101 0.47956 0.0
H523 H 0.50362 0.15032 0.46462 0.0
H524 H 0.89698 0.09942 0.54504 0.0
H525 H 0.79792 0.10909 0.58918 0.0
H526 H 0.92953 0.08764 0.41373 0.0
H527 H 0.65027 0.16558 0.6237 0.0
H528 H 0.30815 0.16775 0.51537 0.0
H529 H 0.38406 0.15761 0.45888 0.0
H530 H 0.3505 0.1813 0.64729 0.0
H531 H 0.73926 0.09421 0.34425 0.0
H532 H 0.85598 0.08955 0.3638 0.0
H533 H 0.29648 0.17667 0.58587 0.0
H534 H 0.58842 0.17781 0.68409 0.0
N535 N 0.49556 0.15565 0.52371 0.0
C536 C 0.36062 0.16443 0.51808 0.0
C537 C 0.40339 0.15877 0.48617 0.0
C538 C 0.38718 0.16621 0.55332 0.0
C539 C 0.45583 0.16169 0.55527 0.0
C540 C 0.47138 0.15458 0.48958 0.0
N541 N 0.55614 0.16163 0.59057 0.0
C542 C 0.48669 0.16451 0.58989 0.0
C543 C 0.55892 0.17401 0.65788 0.0
C544 C 0.48623 0.17622 0.65791 0.0
C545 C 0.59363 0.16707 0.62368 0.0
C546 C 0.44981 0.17191 0.62357 0.0
H547 H 0.45969 0.18188 0.68436 0.0
O548 O 0.67773 0.16641 0.55776 0.0
O549 O 0.68384 0.13266 0.50377 0.0
O550 O 0.5863 0.12094 0.54686 0.0
O551 O 0.60512 0.14292 0.5781 0.0
O552 O 0.71719 0.14741 0.55423 0.0
O553 O 0.62678 0.16224 0.50461 0.0
O554 O 0.58266 0.09596 0.44598 0.0
O555 O 0.54902 0.13126 0.51253 0.0
O556 O 0.62053 0.14258 0.46839 0.0
O557 O 0.60289 0.12053 0.43953 0.0
O558 O 0.51205 0.11585 0.46491 0.0
O559 O 0.59029 0.10004 0.505 0.0
C560 C 0.73452 0.13659 0.52737 0.0
C561 C 0.37974 0.17566 0.62175 0.0
C562 C 0.34885 0.17297 0.58671 0.0
C563 C 0.66349 0.17052 0.53237 0.0
C564 C 0.64023 0.18394 0.54629 0.0
C565 C 0.58434 0.1885 0.57223 0.0
C566 C 0.67223 0.19221 0.53293 0.0
C567 C 0.6478 0.20488 0.54535 0.0
C568 C 0.56013 0.20097 0.58463 0.0
C569 C 0.59153 0.20913 0.57136 0.0
C570 C 0.59077 0.13176 0.57795 0.0
C571 C 0.49614 0.12705 0.49053 0.0
C572 C 0.57974 0.09129 0.47087 0.0
C573 C 0.61593 0.07893 0.46088 0.0
C574 C 0.67622 0.0757 0.43759 0.0
C575 C 0.59133 0.07034 0.47507 0.0
C576 C 0.62832 0.05888 0.46689 0.0
C577 C 0.71352 0.0645 0.43009 0.0
C578 C 0.69008 0.05617 0.44481 0.0
C579 C 0.61026 0.13166 0.43846 0.0
H580 H 0.55928 0.18248 0.58311 0.0
H581 H 0.71514 0.18875 0.51265 0.0
H582 H 0.517 0.20434 0.60473 0.0
H583 H 0.57243 0.21886 0.58199 0.0
H584 H 0.69443 0.08172 0.42478 0.0
H585 H 0.54417 0.07258 0.49253 0.0
H586 H 0.76034 0.06222 0.41244 0.0
H587 H 0.7192 0.0474 0.43811 0.0
Gd588 Gd 0.463 0.89573 0.52792 0.0
Gd589 Gd 0.48373 0.86082 0.47717 0.0
C590 C 0.68853 0.83995 0.42392 0.0
C591 C 0.66343 0.83187 0.35686 0.0
C592 C 0.57546 0.84448 0.40314 0.0
C593 C 0.62183 0.84601 0.4321 0.0
C594 C 0.59526 0.83721 0.36519 0.0
C595 C 0.70986 0.83317 0.38619 0.0
C596 C 0.73024 0.84031 0.45384 0.0
C597 C 0.70542 0.84664 0.4908 0.0
N598 N 0.59893 0.85235 0.46823 0.0
C599 C 0.63889 0.8525 0.49747 0.0
H600 H 0.61978 0.8572 0.52611 0.0
C601 C 0.45887 0.84679 0.38476 0.0
N602 N 0.50898 0.84928 0.4123 0.0
C603 C 0.4764 0.83984 0.34672 0.0
C604 C 0.54507 0.83511 0.33684 0.0
H605 H 0.40554 0.85035 0.39181 0.0
H606 H 0.76131 0.82859 0.37941 0.0
H607 H 0.3284 0.89874 0.47733 0.0
H608 H 0.78067 0.83539 0.44857 0.0
H609 H 0.73711 0.84688 0.51412 0.0
H610 H 0.6798 0.82632 0.32788 0.0
H611 H 0.53892 0.90641 0.61362 0.0
H612 H 0.16567 0.92076 0.55327 0.0
H613 H 0.21077 0.90903 0.48812 0.0
H614 H 0.26263 0.93014 0.67503 0.0
H615 H 0.43681 0.83809 0.32506 0.0
H616 H 0.55826 0.8296 0.30736 0.0
H617 H 0.18289 0.92772 0.62268 0.0
H618 H 0.50581 0.91888 0.68021 0.0
N619 N 0.34737 0.90385 0.5355 0.0
C620 C 0.21613 0.91586 0.54854 0.0
C621 C 0.24178 0.90939 0.51179 0.0
C622 C 0.25697 0.91636 0.57892 0.0
C623 C 0.32381 0.91034 0.57144 0.0
C624 C 0.3083 0.90354 0.50579 0.0
N625 N 0.43551 0.90701 0.59246 0.0
C626 C 0.36896 0.91185 0.60087 0.0
C627 C 0.46669 0.91692 0.6582 0.0
C628 C 0.39755 0.92149 0.66742 0.0
C629 C 0.48524 0.90984 0.62037 0.0
C630 C 0.3481 0.91921 0.6386 0.0
H631 H 0.38355 0.92709 0.69674 0.0
O632 O 0.53863 0.91129 0.54342 0.0
O633 O 0.53883 0.87963 0.50045 0.0
O634 O 0.50367 0.8683 0.54023 0.0
O635 O 0.43679 0.8869 0.56781 0.0
O636 O 0.5748 0.89491 0.54781 0.0
O637 O 0.45553 0.90941 0.50336 0.0
O638 O 0.40901 0.84508 0.46152 0.0
O639 O 0.40758 0.87697 0.50482 0.0
O640 O 0.4501 0.88835 0.46395 0.0
O641 O 0.51625 0.86961 0.4384 0.0
O642 O 0.37309 0.86201 0.45656 0.0
O643 O 0.48679 0.84813 0.50504 0.0
C644 C 0.59199 0.8839 0.522 0.0
C645 C 0.27985 0.92454 0.64623 0.0
C646 C 0.23446 0.92317 0.61643 0.0
C647 C 0.50667 0.91654 0.52408 0.0
C648 C 0.49159 0.93035 0.54445 0.0
C649 C 0.46492 0.93534 0.58144 0.0
C650 C 0.50549 0.93872 0.52763 0.0
C651 C 0.49398 0.95195 0.54821 0.0
C652 C 0.45173 0.94835 0.60136 0.0
C653 C 0.46649 0.95663 0.58498 0.0
C654 C 0.47042 0.87714 0.56957 0.0
C655 C 0.35527 0.8729 0.48261 0.0
C656 C 0.43721 0.84063 0.48387 0.0
C657 C 0.45324 0.82685 0.46676 0.0
C658 C 0.50398 0.82191 0.43802 0.0
C659 C 0.41782 0.81852 0.47872 0.0
C660 C 0.43296 0.80531 0.46158 0.0
C661 C 0.52008 0.80895 0.4215 0.0
C662 C 0.48496 0.80069 0.43315 0.0
C663 C 0.48677 0.87957 0.4359 0.0
H664 H 0.45537 0.92928 0.59536 0.0
H665 H 0.52693 0.93504 0.49928 0.0
H666 H 0.43103 0.95205 0.62982 0.0
H667 H 0.45685 0.96675 0.60113 0.0
H668 H 0.53106 0.82803 0.42818 0.0
H669 H 0.37796 0.82225 0.50068 0.0
H670 H 0.55982 0.8053 0.39951 0.0
H671 H 0.49892 0.79066 0.42003 0.0
H672 H 0.29566 0.38514 0.05753 0.0
H673 H 0.42516 0.38772 0.06365 0.0
H674 H 0.44242 0.37439 0.94292 0.0
H675 H 0.31365 0.37284 0.93742 0.0
H676 H 0.52464 0.37153 0.04043 0.0
H677 H 0.5719 0.40316 0.97021 0.0
H678 H 0.48375 0.39921 0.97916 0.0
H679 H 0.53143 0.38858 0.93791 0.0
C680 C 0.3272 0.38326 0.03261 0.0
C681 C 0.2944 0.37939 -0.00277 0.0
C682 C 0.40135 0.38456 0.03596 0.0
C683 C 0.44438 0.38165 0.00385 0.0
C684 C 0.41121 0.37731 0.96842 0.0
H685 H 0.90449 0.37821 0.96272 0.0
H686 H 0.7749 0.37554 0.95579 0.0
C687 C 0.33735 0.3763 0.96523 0.0
C688 C 0.52379 0.3822 0.00694 0.0
H689 H 0.67406 0.39229 0.97856 0.0
C690 C 0.55704 0.37621 0.02718 0.0
C691 C 0.56715 0.3881 0.98926 0.0
C692 C 0.53656 0.39522 0.96824 0.0
C693 C 0.63133 0.37579 0.02983 0.0
C694 C 0.67472 0.38167 0.01216 0.0
C695 C 0.64154 0.38764 0.99185 0.0
C696 C 0.75409 0.38226 0.01567 0.0
C697 C 0.66199 0.36867 0.05079 0.0
C698 C 0.7863 0.38695 0.05141 0.0
C699 C 0.86002 0.38808 0.05514 0.0
C700 C 0.90391 0.38472 0.02336 0.0
C701 C 0.87217 0.38035 0.98756 0.0
C702 C 0.79802 0.379 0.98371 0.0
H703 H 0.62591 0.36095 0.04984 0.0
H704 H 0.71359 0.3644 0.03876 0.0
H705 H 0.66962 0.37538 0.08088 0.0
H706 H 0.75436 0.3901 0.07672 0.0
H707 H 0.8829 0.3919 0.0832 0.0
H708 H 0.16266 0.63665 0.07182 0.0
H709 H 0.29169 0.63904 0.07251 0.0
H710 H 0.28815 0.63009 0.9537 0.0
H711 H 0.1592 0.62709 0.95289 0.0
H712 H 0.38486 0.61683 0.9656 0.0
H713 H 0.42372 0.6658 0.07619 0.0
H714 H 0.37584 0.65617 0.094 0.0
H715 H 0.33761 0.65966 0.05738 0.0
C716 C 0.18942 0.63559 0.04618 0.0
C717 C 0.15074 0.63227 0.0127 0.0
C718 C 0.26333 0.63701 0.04657 0.0
C719 C 0.30042 0.63512 0.01339 0.0
C720 C 0.26131 0.6318 0.97987 0.0
H721 H 0.7602 0.63251 0.9631 0.0
H722 H 0.6305 0.63145 0.95686 0.0
C723 C 0.18746 0.63023 0.97944 0.0
C724 C 0.38002 0.63533 0.01275 0.0
H725 H 0.52646 0.65236 0.05883 0.0
C726 C 0.4157 0.62474 0.98557 0.0
C727 C 0.42106 0.64549 0.03915 0.0
C728 C 0.38758 0.65747 0.06812 0.0
C729 C 0.49022 0.62385 0.98471 0.0
C730 C 0.5312 0.63389 0.01153 0.0
C731 C 0.49561 0.64459 0.0383 0.0
C732 C 0.61059 0.63339 0.01354 0.0
C733 C 0.52397 0.61168 0.95719 0.0
C734 C 0.6435 0.63508 0.04757 0.0
C735 C 0.71747 0.63587 0.05126 0.0
C736 C 0.7608 0.63474 0.02083 0.0
C737 C 0.72831 0.63291 0.98658 0.0
C738 C 0.65399 0.63227 0.98299 0.0
H739 H 0.48431 0.60429 0.94077 0.0
H740 H 0.55809 0.6135 0.937 0.0
H741 H 0.55716 0.60787 0.97325 0.0
H742 H 0.61173 0.63611 0.07174 0.0
H743 H 0.74097 0.63762 0.07827 0.0
H744 H 0.91277 0.63524 0.45157 0.0
H745 H 0.78661 0.63965 0.46204 0.0
H746 H 0.79166 0.62524 0.54733 0.0
H747 H 0.92008 0.62405 0.54283 0.0
H748 H 0.68339 0.62964 0.45017 0.0
H749 H 0.65833 0.64927 0.60394 0.0
H750 H 0.74411 0.64735 0.58253 0.0
H751 H 0.70286 0.63437 0.58968 0.0
C752 C 0.88704 0.63393 0.47439 0.0
C753 C 0.9269 0.6304 0.49855 0.0
C754 C 0.81386 0.63604 0.47974 0.0
C755 C 0.77675 0.63324 0.50665 0.0
C756 C 0.81701 0.62862 0.52864 0.0
H757 H 0.30921 0.62674 0.46255 0.0
H758 H 0.43669 0.62312 0.45572 0.0
C759 C 0.89113 0.62771 0.52567 0.0
C760 C 0.69653 0.63425 0.50943 0.0
H761 H 0.55722 0.63776 0.56836 0.0
C762 C 0.65657 0.63211 0.47679 0.0
C763 C 0.65835 0.63738 0.54351 0.0
C764 C 0.69345 0.64238 0.58183 0.0
C765 C 0.58219 0.63352 0.47754 0.0
C766 C 0.54359 0.63516 0.51056 0.0
C767 C 0.58378 0.63666 0.54267 0.0
C768 C 0.46311 0.63602 0.51385 0.0
C769 C 0.54826 0.63397 0.44323 0.0
C770 C 0.43131 0.64343 0.54911 0.0
C771 C 0.35788 0.6437 0.55388 0.0
C772 C 0.31227 0.63739 0.52315 0.0
C773 C 0.34264 0.63091 0.48727 0.0
C774 C 0.41676 0.62947 0.48311 0.0
H775 H 0.58617 0.63754 0.42823 0.0
H776 H 0.53288 0.62418 0.42299 0.0
H777 H 0.50134 0.64035 0.45084 0.0
H778 H 0.46273 0.64919 0.57358 0.0
H779 H 0.3366 0.64927 0.58185 0.0
H780 H 0.77404 0.38035 0.55208 0.0
H781 H 0.64389 0.38214 0.55896 0.0
H782 H 0.62332 0.37119 0.43951 0.0
H783 H 0.75215 0.36925 0.43265 0.0
H784 H 0.54246 0.39647 0.54369 0.0
H785 H 0.49435 0.34543 0.45091 0.0
H786 H 0.58169 0.35158 0.46782 0.0
H787 H 0.54404 0.3533 0.42802 0.0
C788 C 0.74161 0.37852 0.52748 0.0
C789 C 0.77347 0.37486 0.49188 0.0
C790 C 0.66711 0.37944 0.53133 0.0
C791 C 0.62298 0.37649 0.49958 0.0
C792 C 0.65536 0.37318 0.46433 0.0
H793 H 0.16223 0.37517 0.45858 0.0
H794 H 0.29221 0.37296 0.45202 0.0
C795 C 0.72928 0.37221 0.4605 0.0
C796 C 0.54338 0.37684 0.5029 0.0
H797 H 0.39299 0.35895 0.4677 0.0
C798 C 0.50995 0.38823 0.52727 0.0
C799 C 0.50013 0.36613 0.48133 0.0
C800 C 0.53184 0.35338 0.45582 0.0
C801 C 0.43531 0.3893 0.53004 0.0
C802 C 0.39205 0.37859 0.50852 0.0
C803 C 0.42549 0.3672 0.48416 0.0
C804 C 0.3124 0.37896 0.51164 0.0
C805 C 0.40368 0.40209 0.55531 0.0
C806 C 0.27955 0.38254 0.5469 0.0
C807 C 0.20566 0.38376 0.55057 0.0
C808 C 0.16201 0.3811 0.51899 0.0
C809 C 0.19423 0.37703 0.48333 0.0
C810 C 0.26867 0.37587 0.47967 0.0
H811 H 0.44123 0.41002 0.56 0.0
H812 H 0.35385 0.40387 0.54324 0.0
H813 H 0.39154 0.40227 0.58324 0.0
H814 H 0.31121 0.38462 0.57189 0.0
H815 H 0.18248 0.38703 0.57844 0.0
H816 H 0.81022 0.88635 0.05578 0.0
H817 H 0.93977 0.88913 0.06274 0.0
H818 H 0.96176 0.87185 0.94154 0.0
H819 H 0.83329 0.86991 0.93483 0.0
H820 H 0.0432 0.87306 0.04448 0.0
H821 H 0.08799 0.90091 0.96211 0.0
H822 H 1.0008 0.89789 0.97492 0.0
H823 H 0.04439 0.88612 0.93395 0.0
C824 C 0.84281 0.88355 0.03076 0.0
C825 C 0.81125 0.87841 0.99477 0.0
C826 C 0.91705 0.88499 0.03466 0.0
C827 C 0.9615 0.88107 0.00265 0.0
C828 C 0.92956 0.87552 0.96681 0.0
H829 H 0.42183 0.87803 0.96195 0.0
H830 H 0.29231 0.8752 0.95581 0.0
C831 C 0.85576 0.87428 0.96297 0.0
C832 C 0.04107 0.88203 0.00642 0.0
H833 H 0.19021 0.89134 0.97476 0.0
C834 C 0.07511 0.87716 0.02941 0.0
C835 C 0.08389 0.88728 0.98671 0.0
C836 C 0.05236 0.89345 0.96329 0.0
C837 C 0.14965 0.87715 0.03268 0.0
C838 C 0.19242 0.88231 0.01266 0.0
C839 C 0.15835 0.8872 0.98975 0.0
C840 C 0.27194 0.88325 0.01605 0.0
C841 C 0.18094 0.87138 0.05728 0.0
C842 C 0.30455 0.88886 0.0517 0.0
C843 C 0.37838 0.89011 0.05507 0.0
C844 C 0.42207 0.88594 0.02296 0.0
C845 C 0.38982 0.8808 0.98718 0.0
C846 C 0.31562 0.87934 0.98376 0.0
H847 H 0.14719 0.8635 0.05712 0.0
H848 H 0.235 0.86764 0.04828 0.0
H849 H 0.18349 0.87882 0.08682 0.0
H850 H 0.27284 0.89253 0.07716 0.0
H851 H 0.40152 0.89454 0.08304 0.0
H852 H 0.25354 0.1329 0.96601 0.0
H853 H 0.12331 0.1313 0.96009 0.0
H854 H 0.10598 0.14187 0.07946 0.0
H855 H 0.23506 0.14361 0.08537 0.0
H856 H 1.02442 0.11656 0.97591 0.0
H857 H 0.97461 0.16754 0.06877 0.0
H858 H 0.06187 0.16155 0.05119 0.0
H859 H 1.02607 0.15972 0.09117 0.0
C860 C 0.22178 0.1347 0.99081 0.0
C861 C 0.25463 0.13803 0.026 0.0
C862 C 0.1473 0.13389 0.9875 0.0
C863 C 0.10416 0.1367 0.01947 0.0
C864 C 0.13737 0.13994 0.05448 0.0
H865 H 0.6466 0.13775 0.06411 0.0
H866 H 0.77645 0.14029 0.06916 0.0
C867 C 0.21137 0.1408 0.05777 0.0
C868 C 1.02469 0.13621 0.01652 0.0
H869 H 0.87396 0.15385 0.05199 0.0
C870 C 0.99168 0.12474 0.99241 0.0
C871 C 0.98125 0.14685 0.03813 0.0
C872 C 1.01269 0.15965 0.06351 0.0
C873 C 0.91718 0.12349 0.99003 0.0
C874 C 0.87363 0.13416 0.0115 0.0
C875 C 0.9067 0.14565 0.03552 0.0
C876 C 0.79403 0.13359 0.00906 0.0
C877 C 0.88618 0.11057 0.96536 0.0
C878 C 0.75975 0.12945 0.97394 0.0
C879 C 0.68592 0.12798 0.97114 0.0
C880 C 0.64377 0.13117 0.00348 0.0
C881 C 0.67742 0.1357 0.03885 0.0
C882 C 0.75177 0.13702 0.04165 0.0
H883 H 0.92434 0.10276 0.96108 0.0
H884 H 0.83675 0.10877 0.97769 0.0
H885 H 0.87367 0.11016 0.93719 0.0
H886 H 0.79023 0.12708 0.94842 0.0
H887 H 0.66156 0.12413 0.94343 0.0
H888 H 0.4001 0.12621 0.43923 0.0
H889 H 0.27202 0.12895 0.44649 0.0
H890 H 0.29155 0.13687 0.56424 0.0
H891 H 0.42117 0.13496 0.55726 0.0
H892 H 0.18415 0.11525 0.45932 0.0
H893 H 0.14973 0.16327 0.57643 0.0
H894 H 0.23237 0.15778 0.55184 0.0
H895 H 0.20681 0.15325 0.58876 0.0
C896 C 0.3771 0.12894 0.46696 0.0
C897 C 0.42063 0.1308 0.49792 0.0
C898 C 0.30368 0.13042 0.47108 0.0
C899 C 0.27109 0.1333 0.50605 0.0
C900 C 0.31475 0.13511 0.53722 0.0
H901 H 0.83259 0.13675 0.57747 0.0
H902 H 0.96127 0.13494 0.5699 0.0
C903 C 0.38896 0.13396 0.53325 0.0
C904 C 0.19161 0.13327 0.50834 0.0
H905 H 0.04768 0.15012 0.55785 0.0
C906 C 0.15451 0.12297 0.48077 0.0
C907 C 0.15199 0.14325 0.53619 0.0
C908 C 0.1871 0.15509 0.56486 0.0
C909 C 0.08005 0.1223 0.4804 0.0
C910 C 0.04035 0.13212 0.50875 0.0
C911 C 0.07742 0.14245 0.53632 0.0
C912 C 0.96089 0.13184 0.51135 0.0
C913 C 0.04524 0.1108 0.45023 0.0
C914 C 0.9165 0.13047 0.48084 0.0
C915 C 0.84224 0.13118 0.48498 0.0
C916 C 0.81094 0.13342 0.51981 0.0
C917 C 0.8552 0.13474 0.55009 0.0
C918 C 0.92893 0.13382 0.54582 0.0
H919 H 0.08227 0.10259 0.43763 0.0
H920 H 0.99979 0.10788 0.46228 0.0
H921 H 1.02598 0.1132 0.4273 0.0
H922 H 0.93914 0.12934 0.45423 0.0
H923 H 0.80955 0.13055 0.4615 0.0
H924 H 0.66671 0.87451 0.45471 0.0
H925 H 0.79632 0.87248 0.44744 0.0
H926 H 0.81809 0.88351 0.56692 0.0
H927 H 0.68952 0.88585 0.57419 0.0
H928 H 0.90578 0.89697 0.54627 0.0
H929 H 0.93868 0.84632 0.44386 0.0
H930 H 0.87512 0.85513 0.4303 0.0
H931 H 0.85966 0.85239 0.47157 0.0
C932 C 0.69919 0.87611 0.47912 0.0
C933 C 0.66777 0.88005 0.51491 0.0
C934 C 0.77352 0.87495 0.47501 0.0
C935 C 0.81789 0.87765 0.50657 0.0
C936 C 0.7858 0.8813 0.54204 0.0
H937 H 0.28092 0.88195 0.55016 0.0
H938 H 0.15125 0.88374 0.55784 0.0
C939 C 0.71205 0.88256 0.54616 0.0
C940 C 0.89754 0.87763 0.50369 0.0
H941 H 0.04086 0.85915 0.45934 0.0
C942 C 0.9352 0.88865 0.52735 0.0
C943 C 0.93677 0.86686 0.47903 0.0
C944 C 0.90082 0.85444 0.45481 0.0
C945 C 1.00989 0.88926 0.52663 0.0
C946 C 0.04913 0.8785 0.50188 0.0
C947 C 1.01146 0.86747 0.47826 0.0
C948 C 0.12875 0.87851 0.49876 0.0
C949 C 0.04582 0.90166 0.55107 0.0
C950 C 0.16033 0.87487 0.46318 0.0
C951 C 0.23407 0.87375 0.45883 0.0
C952 C 0.27891 0.87637 0.48994 0.0
C953 C 0.24797 0.88024 0.52583 0.0
C954 C 0.17362 0.88128 0.53017 0.0
H955 H 1.00807 0.9098 0.56179 0.0
H956 H 0.07071 0.90094 0.57573 0.0
H957 H 0.08762 0.9037 0.53462 0.0
H958 H 0.12767 0.87262 0.4384 0.0
H959 H 0.2562 0.87051 0.43073 0.0
H960 H 0.13118 0.54252 0.93994 0.0
H961 H 0.13299 0.52621 0.96396 0.0
H962 H 0.91896 0.53609 0.00469 0.0
H963 H 0.91696 0.55254 0.98049 0.0
H964 H 0.10698 0.52768 0.03836 0.0
H965 H 0.91156 0.49718 0.93098 0.0
H966 H 0.95707 0.51024 0.92687 0.0
H967 H 0.88654 0.51342 0.9604 0.0
C968 C 0.08479 0.54132 0.95441 0.0
C969 C 1.02374 0.54871 0.95807 0.0
C970 C 0.08588 0.53201 0.96815 0.0
C971 C 1.02572 0.52978 0.9855 0.0
C972 C 0.96561 0.53754 0.99086 0.0
H973 H 0.98726 0.46525 0.04844 0.0
H974 H 0.95626 0.48364 0.03547 0.0
C975 C 0.96472 0.54699 0.97737 0.0
C976 C 1.02624 0.51894 -0.00369 0.0
H977 H 0.964 0.48855 0.96938 0.0
C978 C 0.07507 0.51919 0.02362 0.0
C979 C 0.98445 0.50787 0.9771 0.0
C980 C 0.93212 0.50703 0.94701 0.0
C981 C 0.08459 0.50856 0.03154 0.0
C982 C 0.04539 0.49726 0.011 0.0
C983 C 0.99428 0.49719 0.98488 0.0
C984 C 0.06044 0.48527 0.01477 0.0
C985 C 0.13726 0.50947 0.0616 0.0
C986 C 0.128 0.47972 0.00568 0.0
C987 C 0.1456 0.46929 0.01295 0.0
C988 C 0.0958 0.46409 0.02917 0.0
C989 C 1.02654 0.46905 0.03581 0.0
C990 C 1.00896 0.47959 0.02864 0.0
H991 H 0.14694 0.51954 0.08187 0.0
H992 H 0.11861 0.50408 0.0775 0.0
H993 H 0.18857 0.50532 0.04804 0.0
H994 H 0.16796 0.48373 0.99402 0.0
H995 H 0.19909 0.46554 0.00711 0.0
H996 H 0.86999 0.46465 0.52052 0.0
H997 H 0.89879 0.48301 0.50764 0.0
H998 H 0.12096 0.47786 0.52357 0.0
H999 H 0.09215 0.45922 0.5354 0.0
H1000 H 0.95754 0.50466 0.5581 0.0
H1001 H 0.12809 0.48452 0.4308 0.0
H1002 H 0.07497 0.47459 0.44592 0.0
H1003 H 0.15866 0.4808 0.46831 0.0
C1004 C 0.92511 0.46725 0.52021 0.0
C1005 C 0.97894 0.46052 0.52873 0.0
C1006 C 0.9415 0.47776 0.51307 0.0
C1007 C 1.01204 0.48182 0.51448 0.0
C1008 C 0.06628 0.47478 0.52152 0.0
H1009 H 0.21554 0.54768 0.5076 0.0
H1010 H 0.18372 0.52914 0.51897 0.0
C1011 C 0.04988 0.46413 0.52827 0.0
C1012 C 1.02765 0.494 0.51186 0.0
H1013 H 0.12518 0.50718 0.46409 0.0
C1014 C 0.99385 0.50519 0.53735 0.0
C1015 C 0.07517 0.49471 0.4849 0.0
C1016 C 0.11081 0.483 0.45569 0.0
C1017 C 1.00713 0.51708 0.53706 0.0
C1018 C 0.05501 0.5178 0.51029 0.0
C1019 C 0.08866 0.50662 0.48472 0.0
C1020 C 0.07177 0.53004 0.50832 0.0
C1021 C 0.97108 0.52881 0.56595 0.0
C1022 C 1.01903 0.53696 0.4997 0.0
C1023 C 1.03709 0.54767 0.4936 0.0
C1024 C 0.10824 0.5515 0.49557 0.0
C1025 C 0.16028 0.54492 0.50595 0.0
C1026 C 0.14223 0.5343 0.51224 0.0
H1027 H 0.95051 0.52719 0.59012 0.0
H1028 H 1.008 0.53707 0.57689 0.0
H1029 H 0.92552 0.53132 0.55252 0.0
H1030 H 0.96447 0.53373 0.49591 0.0
H1031 H 0.99622 0.55246 0.48504 0.0
H1032 H 0.40701 0.95572 0.97385 0.0
H1033 H 0.42161 0.97599 0.96937 0.0
H1034 H 0.5911 0.9864 0.05088 0.0
H1035 H 0.57597 0.96625 0.05627 0.0
H1036 H 0.41058 1.00114 0.0299 0.0
H1037 H 0.67557 0.99199 0.9613 0.0
H1038 H 0.6204 0.97936 0.96204 0.0
H1039 H 0.66926 0.98948 0.0034 0.0
C1040 C 0.44712 0.96233 0.99109 0.0
C1041 C 0.49007 0.95933 0.01557 0.0
C1042 C 0.45563 0.97389 0.98829 0.0
C1043 C 0.50774 0.98265 0.00956 0.0
C1044 C 0.55125 0.97968 0.03376 0.0
H1045 H 0.64295 0.05639 0.02441 0.0
H1046 H 0.62599 0.03691 0.03329 0.0
C1047 C 0.54259 0.96813 0.03673 0.0
C1048 C 0.51496 0.99505 0.00713 0.0
H1049 H 0.62784 0.01267 0.98014 0.0
C1050 C 0.458 1.00367 0.01897 0.0
C1051 C 0.57696 0.99834 0.993 0.0
C1052 C 0.63895 0.98929 0.97889 0.0
C1053 C 0.46172 0.01558 0.01755 0.0
C1054 C 0.52349 0.01883 0.00304 0.0
C1055 C 0.58051 0.0102 0.99129 0.0
C1056 C 0.53039 0.0311 -0.00038 0.0
C1057 C 0.40006 0.02467 0.03245 0.0
C1058 C 0.48202 0.0344 0.97796 0.0
C1059 C 0.49135 0.0456 0.97308 0.0
C1060 C 0.54993 0.0536 0.98925 0.0
C1061 C 0.59767 0.05036 0.01133 0.0
C1062 C 0.58799 0.03924 0.01645 0.0
H1063 H 0.36737 0.02245 0.05249 0.0
H1064 H 0.41849 0.03471 0.04696 0.0
H1065 H 0.36549 0.02377 0.00853 0.0
H1066 H 0.43813 0.02814 0.96391 0.0
H1067 H 0.45425 0.04774 0.95549 0.0
H1068 H 0.70005 0.04923 0.50896 0.0
H1069 H 0.66668 0.03082 0.52092 0.0
H1070 H 0.46759 0.02807 0.46387 0.0
H1071 H 0.5005 0.04666 0.45224 0.0
H1072 H 0.52038 0.02652 0.55533 0.0
H1073 H 0.59158 0.99252 0.40836 0.0
H1074 H 0.63143 0.00819 0.43081 0.0
H1075 H 0.54045 1.00661 0.41639 0.0
C1076 C 0.64858 0.04484 0.49968 0.0
C1077 C 0.60268 0.04933 0.4798 0.0
C1078 C 0.62973 0.03434 0.50639 0.0
C1079 C 0.56514 0.02805 0.49288 0.0
C1080 C 0.51781 0.0328 0.47434 0.0
H1081 H 0.43499 0.95443 0.48784 0.0
H1082 H 0.44939 0.97269 0.47189 0.0
C1083 C 0.53633 0.04344 0.468 0.0
C1084 C 0.54927 0.0162 0.49697 0.0
H1085 H 0.55979 0.9837 0.45029 0.0
C1086 C 0.52833 0.01714 0.53235 0.0
C1087 C 0.55935 1.00402 0.46679 0.0
C1088 C 0.58211 1.00264 0.42834 0.0
C1089 C 0.51808 1.00619 0.53856 0.0
C1090 C 0.5314 0.99398 0.50885 0.0
C1091 C 0.55021 0.99304 0.47309 0.0
C1092 C 0.52833 0.98219 0.51501 0.0
C1093 C 0.4927 0.00783 0.57691 0.0
C1094 C 0.57052 0.98115 0.54307 0.0
C1095 C 0.56204 0.97085 0.55224 0.0
C1096 C 0.51234 0.96123 0.53295 0.0
C1097 C 0.47387 0.96172 0.50292 0.0
C1098 C 0.48181 0.97216 0.494 0.0
H1099 H 0.4639 0.017 0.59185 0.0
H1100 H 0.45715 0.99989 0.57465 0.0
H1101 H 0.53914 0.00796 0.59445 0.0
H1102 H 0.60837 0.98856 0.55883 0.0
H1103 H 0.59246 0.97062 0.5754 0.0
H1104 H 0.06085 0.29638 0.01943 0.0
H1105 H 0.11563 0.27869 0.02799 0.0
H1106 H 0.31134 0.28495 0.98147 0.0
H1107 H 0.25658 0.30273 0.97275 0.0
H1108 H 0.17043 0.25667 0.9684 0.0
H1109 H 0.37486 0.28158 0.07745 0.0
H1110 H 0.30127 0.28988 0.06853 0.0
H1111 H 0.37604 0.28517 0.03715 0.0
C1112 C 0.11583 0.29408 0.0114 0.0
C1113 C 0.15436 0.30088 0.99521 0.0
C1114 C 0.147 0.28398 0.01632 0.0
C1115 C 0.21747 0.28052 0.00541 0.0
C1116 C 0.25712 0.28758 0.99055 0.0
H1117 H 0.48727 0.22026 0.00621 0.0
H1118 H 0.43409 0.2376 0.99515 0.0
C1119 C 0.22589 0.29774 0.98566 0.0
C1120 C 0.24756 0.26903 0.00755 0.0
H1121 H 0.37665 0.259 0.0496 0.0
C1122 C 0.21546 0.25716 0.9862 0.0
C1123 C 0.30633 0.26972 0.03069 0.0
C1124 C 0.34146 0.28227 0.05504 0.0
C1125 C 0.24113 0.2459 0.98702 0.0
C1126 C 0.29964 0.24659 0.01038 0.0
C1127 C 0.33181 0.25848 0.03166 0.0
C1128 C 0.32899 0.23515 0.0132 0.0
C1129 C 0.2063 0.23336 0.96227 0.0
C1130 C 0.28717 0.2278 0.02624 0.0
C1131 C 0.31741 0.21777 0.03221 0.0
C1132 C 0.39011 0.21511 0.02582 0.0
C1133 C 0.43115 0.22218 0.01155 0.0
C1134 C 0.4009 0.2321 0.0053 0.0
H1135 H 0.17623 0.23399 0.93873 0.0
H1136 H 0.24615 0.22561 0.95022 0.0
H1137 H 0.16838 0.23074 0.97944 0.0
H1138 H 0.23187 0.23014 0.03322 0.0
H1139 H 0.2849 0.21256 0.04365 0.0
H1140 H 0.57022 0.79533 0.01211 0.0
H1141 H 0.62222 0.77768 0.02177 0.0
H1142 H 0.8269 0.78603 0.98849 0.0
H1143 H 0.7743 0.8036 0.97773 0.0
H1144 H 0.78851 0.76061 0.95025 0.0
H1145 H 0.74879 0.77678 0.1039 0.0
H1146 H 0.66876 0.77722 0.07976 0.0
H1147 H 0.74172 0.78747 0.08143 0.0
C1148 C 0.62652 0.79351 0.0073 0.0
C1149 C 0.66819 0.80079 0.99398 0.0
C1150 C 0.65629 0.78348 0.01314 0.0
C1151 C 0.72856 0.78061 0.00622 0.0
C1152 C 0.77102 0.78814 0.99418 0.0
H1153 H 0.992 0.72029 0.01088 0.0
H1154 H 0.94223 0.73789 -6e-05 0.0
C1155 C 0.74114 0.79822 0.98832 0.0
C1156 C 0.75797 0.76914 0.00884 0.0
H1157 H 0.77554 0.75468 0.0682 0.0
C1158 C 0.78633 0.75936 0.97612 0.0
C1159 C 0.75444 0.76748 0.04253 0.0
C1160 C 0.72741 0.77785 0.07898 0.0
C1161 C 0.81001 0.74785 0.97601 0.0
C1162 C 0.80594 0.74616 0.00962 0.0
C1163 C 0.77784 0.75595 0.04236 0.0
C1164 C 0.83415 0.73461 0.01211 0.0
C1165 C 0.83796 0.73751 0.93977 0.0
C1166 C 0.78977 0.72685 0.02233 0.0
C1167 C 0.81819 0.71674 0.02857 0.0
C1168 C 0.89152 0.71441 0.02524 0.0
C1169 C 0.93529 0.72191 0.01368 0.0
C1170 C 0.90689 0.73192 0.00724 0.0
H1171 H 0.8195 0.73881 0.9147 0.0
H1172 H 0.89677 0.73784 0.94015 0.0
H1173 H 0.82131 0.72791 0.93666 0.0
H1174 H 0.73349 0.72883 0.02643 0.0
H1175 H 0.78351 0.71119 0.03784 0.0
H1176 H 0.21594 0.72947 0.60178 0.0
H1177 H 0.26099 0.74621 0.58545 0.0
H1178 H 0.23629 0.72127 0.46716 0.0
H1179 H 0.18836 0.70456 0.48341 0.0
H1180 H 0.37351 0.74764 0.54399 0.0
H1181 H 0.12126 0.75231 0.47781 0.0
H1182 H 0.12789 0.74319 0.5052 0.0
H1183 H 0.15895 0.73658 0.45722 0.0
C1184 C 0.21989 0.72754 0.57225 0.0
C1185 C 0.19725 0.71577 0.5439 0.0
C1186 C 0.24604 0.7371 0.56297 0.0
C1187 C 0.25032 0.73512 0.52515 0.0
C1188 C 0.23167 0.72312 0.4966 0.0
H1189 H 0.37818 0.78214 0.41512 0.0
H1190 H 0.33211 0.76569 0.43247 0.0
C1191 C 0.20517 0.71352 0.50589 0.0
C1192 C 0.27299 0.74576 0.51606 0.0
H1193 H 0.21803 0.76479 0.47444 0.0
C1194 C 0.3395 0.75141 0.52885 0.0
C1195 C 0.22826 0.75074 0.49656 0.0
C1196 C 0.15484 0.74549 0.48368 0.0
C1197 C 0.36318 0.76172 0.52197 0.0
C1198 C 0.31855 0.76666 0.50233 0.0
C1199 C 0.25197 0.76103 0.48965 0.0
C1200 C 0.34167 0.77715 0.49266 0.0
C1201 C 0.43652 0.767 0.53491 0.0
C1202 C 0.36007 0.78923 0.5208 0.0
C1203 C 0.38701 0.79867 0.51091 0.0
C1204 C 0.39573 0.79615 0.47273 0.0
C1205 C 0.37347 0.78428 0.44478 0.0
C1206 C 0.34678 0.77489 0.45464 0.0
H1207 H 0.46984 0.76029 0.54141 0.0
H1208 H 0.46385 0.76911 0.51311 0.0
H1209 H 0.4322 0.77604 0.56097 0.0
H1210 H 0.3549 0.79128 0.55036 0.0
H1211 H 0.40357 0.80773 0.53306 0.0
H1212 H 1.01527 0.28835 0.48838 0.0
H1213 H 0.96285 0.27143 0.50183 0.0
H1214 H 0.75376 0.2857 0.49685 0.0
H1215 H 0.80607 0.30258 0.48265 0.0
H1216 H 0.87054 0.27191 0.5591 0.0
H1217 H 0.74853 0.24825 0.41653 0.0
H1218 H 0.81491 0.26059 0.42812 0.0
H1219 H 0.72486 0.26471 0.44339 0.0
C1220 C 0.95811 0.28793 0.49036 0.0
C1221 C 0.91467 0.29667 0.48397 0.0
C1222 C 0.92829 0.27829 0.49816 0.0
C1223 C 0.85447 0.27716 0.49953 0.0
C1224 C 0.81089 0.28627 0.49518 0.0
H1225 H 0.58059 0.22141 0.52332 0.0
H1226 H 0.63344 0.23857 0.51142 0.0
C1227 C 0.84078 0.29598 0.48748 0.0
C1228 C 0.82374 0.26614 0.50416 0.0
H1229 H 0.72564 0.23904 0.45876 0.0
C1230 C 0.83885 0.26471 0.53721 0.0
C1231 C 0.7828 0.25674 0.4754 0.0
C1232 C 0.76714 0.25753 0.43869 0.0
C1233 C 0.81295 0.25425 0.54263 0.0
C1234 C 0.77226 0.24481 0.51378 0.0
C1235 C 0.7572 0.24625 0.48072 0.0
C1236 C 0.74167 0.23372 0.51817 0.0
C1237 C 0.82789 0.25359 0.5796 0.0
C1238 C 0.78511 0.22497 0.52452 0.0
C1239 C 0.75491 0.21517 0.53166 0.0
C1240 C 0.68081 0.21395 0.53236 0.0
C1241 C 0.63782 0.22227 0.52374 0.0
C1242 C 0.66793 0.23205 0.51675 0.0
H1243 H 0.84405 0.26302 0.60195 0.0
H1244 H 0.78062 0.25019 0.58957 0.0
H1245 H 0.87188 0.24677 0.5756 0.0
H1246 H 0.84227 0.22589 0.52476 0.0
H1247 H 0.78938 0.20891 0.53817 0.0
H1248 H 1.03095 0.40245 0.14395 0.0
H1249 H 1.00932 0.40245 0.20528 0.0
H1250 H 0.1262 0.36725 0.17061 0.0
H1251 H 0.14674 0.36702 0.10862 0.0
H1252 H 1.00123 0.36621 0.20229 0.0
H1253 H 0.13882 0.41114 0.29428 0.0
H1254 H 0.07299 0.41329 0.26447 0.0
H1255 H 0.15001 0.40368 0.2437 0.0
C1256 C 0.05336 0.39483 0.14957 0.0
C1257 C 0.09139 0.3848 0.12155 0.0
C1258 C 0.04098 0.39486 0.18474 0.0
C1259 C 0.06727 0.38498 0.19285 0.0
C1260 C 0.10579 0.37501 0.16504 0.0
H1261 H 0.06704 0.36512 0.37985 0.0
H1262 H 0.08133 0.36658 0.32021 0.0
C1263 C 0.11761 0.3749 0.12967 0.0
C1264 C 0.05123 0.38466 0.2295 0.0
H1265 H 0.06727 0.40155 0.32507 0.0
C1266 C 1.01595 0.37392 0.22911 0.0
C1267 C 0.06997 0.39478 0.26453 0.0
C1268 C 0.11062 0.40632 0.26688 0.0
C1269 C 0.99894 0.37302 0.26273 0.0
C1270 C 1.01807 0.38308 0.29764 0.0
C1271 C 0.0523 0.39391 0.29818 0.0
C1272 C 1.00717 0.38215 0.33375 0.0
C1273 C 0.96043 0.36132 0.26068 0.0
C1274 C 0.96143 0.39058 0.36145 0.0
C1275 C 0.95229 0.38967 0.39571 0.0
C1276 C 0.98945 0.3804 0.40283 0.0
C1277 C 1.03618 0.37216 0.37512 0.0
C1278 C 0.04467 0.373 0.34093 0.0
H1279 H 0.93385 0.35609 0.23297 0.0
H1280 H 0.99914 0.35475 0.26449 0.0
H1281 H 0.92011 0.36391 0.28341 0.0
H1282 H 0.93254 0.39779 0.35646 0.0
H1283 H 0.91628 0.39621 0.41651 0.0
H1284 H 0.91855 0.64715 0.14447 0.0
H1285 H 0.94275 0.64728 0.20599 0.0
H1286 H 0.12174 0.62227 0.15825 0.0
H1287 H 0.09342 0.62134 0.09607 0.0
H1288 H 0.05901 0.61447 0.20014 0.0
H1289 H 0.07978 0.6666 0.28396 0.0
H1290 H 0.99426 0.66256 0.26229 0.0
H1291 H 0.07261 0.65955 0.23327 0.0
C1292 C 0.96327 0.64177 0.14739 0.0
C1293 C 1.00445 0.63429 0.1159 0.0
C1294 C 0.97763 0.64194 0.18262 0.0
C1295 C 1.0354 0.63507 0.18733 0.0
C1296 C 0.077 0.6277 0.15562 0.0
H1297 H 0.18175 0.64796 0.41279 0.0
H1298 H 0.16634 0.648 0.35059 0.0
C1299 C 0.06107 0.62718 0.12014 0.0
C1300 C 0.05035 0.635 0.22467 0.0
H1301 H 0.06497 0.65415 0.31913 0.0
C1302 C 0.06118 0.6232 0.22605 0.0
C1303 C 0.05445 0.64634 0.25869 0.0
C1304 C 0.05046 0.65946 0.25941 0.0
C1305 C 0.07503 0.62239 0.2602 0.0
C1306 C 0.07436 0.63365 0.29446 0.0
C1307 C 0.06452 0.64547 0.29307 0.0
C1308 C 0.0845 0.63345 0.33197 0.0
C1309 C 0.09218 0.60946 0.25877 0.0
C1310 C 0.04313 0.62542 0.34266 0.0
C1311 C 0.05317 0.62523 0.37779 0.0
C1312 C 0.10356 0.63325 0.40317 0.0
C1313 C 0.14329 0.64158 0.39327 0.0
C1314 C 0.13422 0.64162 0.35785 0.0
H1315 H 0.11511 0.60299 0.23102 0.0
H1316 H 0.13032 0.61021 0.28122 0.0
H1317 H 0.04268 0.60496 0.26256 0.0
H1318 H 1.00246 0.6194 0.32405 0.0
H1319 H 1.02054 0.61901 0.38543 0.0
H1320 H 0.04415 0.61224 0.87653 0.0
H1321 H 0.06917 0.612 0.8149 0.0
H1322 H 0.95929 0.64784 0.84869 0.0
H1323 H 0.93597 0.64835 0.91055 0.0
H1324 H 0.98396 0.61166 0.75954 0.0
H1325 H 0.14335 0.65608 0.81302 0.0
H1326 H 0.11835 0.64837 0.84264 0.0
H1327 H 0.05656 0.65858 0.83357 0.0
C1328 C 1.02546 0.62009 0.87088 0.0
C1329 C 0.98867 0.63038 0.89866 0.0
C1330 C 0.03982 0.61994 0.83562 0.0
C1331 C 1.01761 0.63005 0.8274 0.0
C1332 C 0.97899 0.64013 0.85471 0.0
H1333 H 1.00494 0.64546 0.6313 0.0
H1334 H 0.98929 0.64465 0.69197 0.0
C1335 C 0.96526 0.64036 0.89004 0.0
C1336 C 1.0337 0.62998 0.79012 0.0
H1337 H 0.10665 0.64782 0.74853 0.0
C1338 C 1.01148 0.61951 0.75715 0.0
C1339 C 0.06982 0.6402 0.78692 0.0
C1340 C 0.09903 0.65138 0.82091 0.0
C1341 C 1.02262 0.61916 0.72125 0.0
C1342 C 0.05712 0.62951 0.71825 0.0
C1343 C 0.08006 0.63991 0.75104 0.0
C1344 C 0.06777 0.62992 0.68133 0.0
C1345 C 0.99586 0.60791 0.68674 0.0
C1346 C 0.11754 0.62194 0.65529 0.0
C1347 C 0.12773 0.62255 0.62067 0.0
C1348 C 0.08807 0.63112 0.61152 0.0
C1349 C 1.03755 0.63894 0.6376 0.0
C1350 C 1.02811 0.63845 0.67228 0.0
H1351 H 0.96168 0.6015 0.69413 0.0
H1352 H 0.96527 0.61125 0.66843 0.0
H1353 H 0.04168 0.60231 0.67011 0.0
H1354 H 0.14889 0.61533 0.66192 0.0
H1355 H 0.16691 0.61636 0.60125 0.0
H1356 H 0.05662 0.36209 0.59154 0.0
H1357 H 0.07186 0.36197 0.65318 0.0
H1358 H 0.91244 0.39126 0.69994 0.0
H1359 H 0.89407 0.39095 0.63785 0.0
H1360 H 0.11599 0.38126 0.71815 0.0
H1361 H 0.84724 0.36572 0.73806 0.0
H1362 H 0.87775 0.3646 0.69309 0.0
H1363 H 0.84618 0.37957 0.72862 0.0
C1364 C 1.02405 0.36841 0.61475 0.0
C1365 C 0.97466 0.37666 0.60979 0.0
C1366 C 1.0331 0.36835 0.65006 0.0
C1367 C 0.99291 0.37652 0.68112 0.0
C1368 C 0.94315 0.3847 0.67624 0.0
H1369 H 0.99997 0.39675 0.92083 0.0
H1370 H 0.98005 0.39549 0.85752 0.0
C1371 C 0.93348 0.38466 0.64081 0.0
C1372 C 1.00522 0.3768 0.71886 0.0
H1373 H 0.92286 0.37361 0.79201 0.0
C1374 C 0.07386 0.3795 0.73419 0.0
C1375 C 0.95023 0.37447 0.73969 0.0
C1376 C 0.87639 0.3708 0.7239 0.0
C1377 C 0.08864 0.38021 0.77014 0.0
C1378 C 1.03341 0.37809 0.79114 0.0
C1379 C 0.96492 0.37531 0.77581 0.0
C1380 C 0.04566 0.37877 0.82924 0.0
C1381 C 0.16289 0.38346 0.78571 0.0
C1382 C 0.08878 0.36973 0.8341 0.0
C1383 C 0.10019 0.37042 0.87014 0.0
C1384 C 0.06844 0.38014 0.9019 0.0
C1385 C 1.02534 0.38919 0.89691 0.0
C1386 C 1.01367 0.38845 0.86081 0.0
H1387 H 0.1954 0.38743 0.76958 0.0
H1388 H 0.16177 0.39048 0.81582 0.0
H1389 H 0.18928 0.37468 0.78407 0.0
H1390 H 0.11345 0.36213 0.81 0.0
H1391 H 0.13455 0.36342 0.87312 0.0
H1392 H 0.64182 0.86621 0.10487 0.0
H1393 H 0.61887 0.86691 0.16728 0.0
H1394 H 0.53465 0.90498 0.2053 0.0
H1395 H 0.55752 0.90439 0.143 0.0
H1396 H 0.66973 0.88714 0.2423 0.0
H1397 H 0.37643 0.88232 0.22548 0.0
H1398 H 0.43574 0.87758 0.18558 0.0
H1399 H 0.41905 0.89419 0.21429 0.0
C1400 C 0.6188 0.87476 0.12659 0.0
C1401 C 0.60204 0.88529 0.11914 0.0
C1402 C 0.60575 0.87514 0.16217 0.0
C1403 C 0.57461 0.88595 0.19068 0.0
C1404 C 0.5584 0.89653 0.18352 0.0
H1405 H 0.4311 0.89788 0.41631 0.0
H1406 H 0.45207 0.90027 0.35786 0.0
C1407 C 0.57219 0.89622 0.14806 0.0
C1408 C 0.55913 0.88611 0.22789 0.0
H1409 H 0.42398 0.88427 0.28338 0.0
C1410 C 0.61605 0.88656 0.25141 0.0
C1411 C 0.48899 0.88545 0.23966 0.0
C1412 C 0.42627 0.88478 0.21498 0.0
C1413 C 0.60476 0.88632 0.28649 0.0
C1414 C 0.53468 0.88524 0.29784 0.0
C1415 C 0.4776 0.88507 0.27461 0.0
C1416 C 0.5201 0.8837 0.3329 0.0
C1417 C 0.66808 0.88734 0.3112 0.0
C1418 C 0.55014 0.87347 0.33792 0.0
C1419 C 0.5392 0.87219 0.37132 0.0
C1420 C 0.49632 0.88092 0.4002 0.0
C1421 C 0.46449 0.89099 0.39471 0.0
C1422 C 0.47626 0.89235 0.3613 0.0
H1423 H 0.71342 0.89213 0.30443 0.0
H1424 H 0.6549 0.89272 0.34157 0.0
H1425 H 0.68557 0.87761 0.30629 0.0
H1426 H 0.58269 0.86649 0.31605 0.0
H1427 H 0.56527 0.8644 0.37451 0.0
H1428 H 0.42675 0.14932 0.14843 0.0
H1429 H 0.45331 0.14921 0.20937 0.0
H1430 H 0.61652 0.12098 0.1567 0.0
H1431 H 0.58588 0.12045 0.09525 0.0
H1432 H 0.54902 0.11439 0.20007 0.0
H1433 H 0.60339 0.16572 0.28294 0.0
H1434 H 0.51551 0.1635 0.26396 0.0
H1435 H 0.59085 0.15889 0.23254 0.0
C1436 C 0.4686 0.14318 0.15012 0.0
C1437 C 0.50455 0.13491 0.1175 0.0
C1438 C 0.48432 0.14321 0.18499 0.0
C1439 C 0.53829 0.13533 0.18805 0.0
C1440 C 0.5748 0.12718 0.15525 0.0
H1441 H 0.68889 0.14527 0.41007 0.0
H1442 H 0.67584 0.14558 0.34818 0.0
C1443 C 0.55745 0.12686 0.12019 0.0
C1444 C 0.55376 0.13495 0.22483 0.0
H1445 H 0.58086 0.15364 0.31864 0.0
C1446 C 0.55701 0.12299 0.22587 0.0
C1447 C 0.56527 0.14613 0.25859 0.0
C1448 C 0.56937 0.15925 0.25935 0.0
C1449 C 0.57052 0.12187 0.25952 0.0
C1450 C 0.57707 0.13307 0.29372 0.0
C1451 C 0.57491 0.14503 0.29263 0.0
C1452 C 0.58614 0.13262 0.33087 0.0
C1453 C 0.57936 0.10864 0.25756 0.0
C1454 C 0.5399 0.12535 0.34205 0.0
C1455 C 0.54899 0.12483 0.37673 0.0
C1456 C 0.60261 0.132 0.40157 0.0
C1457 C 0.64734 0.13963 0.39119 0.0
C1458 C 0.63971 0.13982 0.35593 0.0
H1459 H 0.59864 0.10181 0.22931 0.0
H1460 H 0.61726 0.10858 0.27916 0.0
H1461 H 0.52718 0.10511 0.26218 0.0
H1462 H 0.49628 0.12014 0.32413 0.0
H1463 H 0.51291 0.11909 0.38456 0.0
H1464 H 0.44321 0.15025 0.91657 0.0
H1465 H 0.46401 0.14956 0.85418 0.0
H1466 H 0.53953 0.11085 0.81394 0.0
H1467 H 0.51922 0.11145 0.87647 0.0
H1468 H 0.62826 0.12822 0.79629 0.0
H1469 H 0.34548 0.12877 0.75711 0.0
H1470 H 0.37044 0.14098 0.80249 0.0
H1471 H 0.37304 0.12451 0.79438 0.0
C1472 C 0.46415 0.14157 0.89448 0.0
C1473 C 0.4791 0.13087 0.90141 0.0
C1474 C 0.47562 0.14118 0.8588 0.0
C1475 C 0.50249 0.13012 0.82943 0.0
C1476 C 0.51825 0.11945 0.83625 0.0
H1477 H 0.51766 0.11379 0.5915 0.0
H1478 H 0.4986 0.11307 0.65241 0.0
C1479 C 0.50625 0.11979 0.8719 0.0
C1480 C 0.51528 0.1298 0.79178 0.0
H1481 H 0.43132 0.13152 0.71692 0.0
C1482 C 0.5853 0.12887 0.77879 0.0
C1483 C 0.45896 0.13058 0.76905 0.0
C1484 C 0.38263 0.13116 0.7812 0.0
C1485 C 0.60063 0.12892 0.74379 0.0
C1486 C 0.54439 0.13003 0.72147 0.0
C1487 C 0.4743 0.13073 0.73421 0.0
C1488 C 0.55702 0.13043 0.68469 0.0
C1489 C 0.67676 0.12769 0.73086 0.0
C1490 C 0.59572 0.14048 0.68278 0.0
C1491 C 0.60676 0.14089 0.64808 0.0
C1492 C 0.57867 0.13134 0.61469 0.0
C1493 C 0.53994 0.12129 0.61671 0.0
C1494 C 0.52886 0.12088 0.65146 0.0
H1495 H 0.71093 0.12371 0.74635 0.0
H1496 H 0.68106 0.12147 0.70014 0.0
H1497 H 0.69751 0.13727 0.73617 0.0
H1498 H 0.61719 0.14802 0.70815 0.0
H1499 H 0.63829 0.14859 0.64741 0.0
H1500 H 0.39842 0.89131 0.63518 0.0
H1501 H 0.41842 0.89182 0.6975 0.0
H1502 H 0.5734 0.86178 0.64983 0.0
H1503 H 0.5564 0.86163 0.58795 0.0
H1504 H 0.40329 0.87326 0.72313 0.0
H1505 H 0.68436 0.88877 0.73538 0.0
H1506 H 0.62552 0.88933 0.69981 0.0
H1507 H 0.66588 0.8745 0.69361 0.0
C1508 C 0.43746 0.88493 0.63802 0.0
C1509 C 0.47712 0.87667 0.60668 0.0
C1510 C 0.44841 0.88516 0.67363 0.0
C1511 C 0.49869 0.87706 0.67851 0.0
C1512 C 0.53586 0.86839 0.64696 0.0
H1513 H 0.63368 0.8628 0.86877 0.0
H1514 H 0.60995 0.86172 0.80606 0.0
C1515 C 0.52551 0.86824 0.61147 0.0
C1516 C 0.51203 0.87762 0.71653 0.0
H1517 H 0.64189 0.88257 0.7822 0.0
C1518 C 0.45534 0.87537 0.73614 0.0
C1519 C 0.58007 0.88037 0.73346 0.0
C1520 C 0.64233 0.8835 0.71468 0.0
C1521 C 0.46514 0.87561 0.77197 0.0
C1522 C 0.53312 0.87828 0.7887 0.0
C1523 C 0.58985 0.88051 0.76916 0.0
C1524 C 0.54633 0.87888 0.82664 0.0
C1525 C 0.40314 0.87279 0.79154 0.0
C1526 C 0.51897 0.88897 0.85893 0.0
C1527 C 0.53251 0.88962 0.89482 0.0
C1528 C 0.573 0.88011 0.89887 0.0
C1529 C 0.60074 0.87007 0.86645 0.0
C1530 C 0.58778 0.8695 0.83066 0.0
H1531 H 0.35743 0.86871 0.77219 0.0
H1532 H 0.41895 0.866 0.80337 0.0
H1533 H 0.38564 0.88176 0.81535 0.0
H1534 H 0.48754 0.89638 0.85635 0.0
H1535 H 0.51067 0.89748 0.91933 0.0
loop_
_geom_bond_atom_site_label_1
_geom_bond_atom_site_label_2
_geom_bond_distance
_geom_bond_site_symmetry_2
_ccdc_geom_bond_type
Gd0 N31 2.661 1_456 S
Gd0 N37 2.601 1_455 S
Gd0 O44 2.545 . S
Gd0 O45 2.606 1_556 S
Gd0 O47 2.429 . S
Gd0 O48 2.545 . S
Gd0 O49 2.412 1_556 S
Gd0 O51 2.362 1_456 S
Gd0 O52 2.324 1_556 S
Gd0 C59 2.828 . S
Gd1 N10 2.661 . S
Gd1 N14 2.601 . S
Gd1 O45 2.362 . S
Gd1 O46 2.324 1_554 S
Gd1 O50 2.545 . S
Gd1 O51 2.606 1_455 S
Gd1 O53 2.429 . S
Gd1 O54 2.545 1_455 S
Gd1 O55 2.412 . S
Gd1 C68 2.828 . S
C2 C5 1.417 . S
C2 C7 1.431 . S
C2 C8 1.412 1_554 S
C3 C6 1.437 . S
C3 C7 1.317 . S
C3 H22 0.929 . S
C4 C5 1.426 . S
C4 C6 1.413 . S
C4 N14 1.359 . S
C5 C2 1.417 . S
C5 C4 1.426 . S
C5 N10 1.350 . S
C6 C3 1.437 . S
C6 C4 1.413 . S
C6 C16 1.391 . S
C7 C2 1.431 . S
C7 C3 1.317 . S
C7 H18 0.930 . S
C8 C2 1.412 1_556 S
C8 C9 1.355 . S
C8 H20 0.930 . S
C9 C8 1.355 . S
C9 C11 1.402 . S
C9 H21 0.930 . S
N10 Gd1 2.661 . S
N10 C5 1.350 . S
N10 C11 1.307 1_554 S
C11 C9 1.402 . S
C11 N10 1.307 1_556 S
C11 H12 0.930 . S
H12 C11 0.930 . S
C13 N14 1.334 . S
C13 C15 1.394 . S
C13 H17 0.930 . S
N14 Gd1 2.601 . S
N14 C4 1.359 . S
N14 C13 1.334 . S
C15 C13 1.394 . S
C15 C16 1.359 . S
C15 H27 0.930 . S
C16 C6 1.391 . S
C16 C15 1.359 . S
C16 H28 0.929 . S
H17 C13 0.930 . S
H18 C7 0.930 . S
H19 C36 0.930 . S
H20 C8 0.930 . S
H21 C9 0.930 . S
H22 C3 0.929 . S
H23 C41 0.930 1_455 S
H24 C32 0.930 . S
H25 C33 0.930 . S
H26 C57 0.929 . S
H27 C15 0.930 . S
H28 C16 0.929 . S
H29 C58 0.930 . S
H30 C39 0.930 . S
N31 Gd0 2.661 1_654 S
N31 C35 1.350 1_554 S
N31 C36 1.307 . S
C32 H24 0.930 . S
C32 C33 1.355 . S
C32 C34 1.412 1_554 S
C33 H25 0.930 . S
C33 C32 1.355 . S
C33 C36 1.402 . S
C34 C32 1.412 1_556 S
C34 C35 1.417 . S
C34 C58 1.431 . S
C35 N31 1.350 1_556 S
C35 C34 1.417 . S
C35 C38 1.426 . S
C36 H19 0.930 . S
C36 N31 1.307 . S
C36 C33 1.402 . S
N37 Gd0 2.601 1_655 S
N37 C38 1.359 . S
N37 C41 1.334 . S
C38 C35 1.426 . S
C38 N37 1.359 . S
C38 C42 1.413 . S
C39 H30 0.930 . S
C39 C40 1.359 . S
C39 C41 1.394 . S
C40 C39 1.359 . S
C40 C42 1.391 . S
C40 H43 0.929 . S
C41 H23 0.930 1_655 S
C41 N37 1.334 . S
C41 C39 1.394 . S
C42 C38 1.413 . S
C42 C40 1.391 . S
C42 C57 1.437 . S
H43 C40 0.929 . S
O44 Gd0 2.545 . S
O44 C59 1.258 . S
O45 Gd0 2.606 1_554 S
O45 Gd1 2.362 . S
O45 C56 1.284 . S
O46 Gd1 2.324 1_556 S
O46 C66 1.254 . S
O47 Gd0 2.429 . S
O47 C66 1.268 . S
O48 Gd0 2.545 . S
O48 C56 1.250 1_556 S
O49 Gd0 2.412 1_554 S
O49 C59 1.252 1_554 S
O50 Gd1 2.545 . S
O50 C68 1.258 . S
O51 Gd0 2.362 1_654 S
O51 Gd1 2.606 1_655 S
O51 C67 1.284 . S
O52 Gd0 2.324 1_554 S
O52 C75 1.254 . S
O53 Gd1 2.429 . S
O53 C75 1.268 . S
O54 Gd1 2.545 1_655 S
O54 C67 1.250 . S
O55 Gd1 2.412 . S
O55 C68 1.252 . S
C56 O45 1.284 . S
C56 O48 1.250 1_554 S
C57 H26 0.929 . S
C57 C42 1.437 . S
C57 C58 1.317 . S
C58 H29 0.930 . S
C58 C34 1.431 . S
C58 C57 1.317 . S
C59 Gd0 2.828 . S
C59 O44 1.258 . S
C59 O49 1.252 1_556 S
C59 C60 1.497 . S
C60 C59 1.497 . S
C60 C61 1.395 . S
C60 C62 1.380 . S
C61 C60 1.395 . S
C61 C64 1.398 . S
C61 H76 0.930 . S
C62 C60 1.380 . S
C62 C63 1.391 . S
C62 H77 0.930 1_556 S
C63 C62 1.391 . S
C63 C65 1.387 . S
C64 C61 1.398 . S
C64 C65 1.380 . S
C64 H78 0.930 . S
C65 C63 1.387 . S
C65 C64 1.380 . S
C65 H79 0.930 . S
C66 O46 1.254 . S
C66 O47 1.268 . S
C67 O51 1.284 . S
C67 O54 1.250 . S
C68 Gd1 2.828 . S
C68 O50 1.258 . S
C68 O55 1.252 . S
C68 C69 1.497 . S
C69 C68 1.497 . S
C69 C70 1.395 . S
C69 C71 1.380 1_455 S
C70 C69 1.395 . S
C70 C73 1.398 1_455 S
C70 H80 0.930 . S
C71 C69 1.380 1_655 S
C71 C72 1.391 . S
C71 H81 0.933 . S
C72 C71 1.391 . S
C72 C74 1.387 . S
C73 C70 1.398 1_655 S
C73 C74 1.380 . S
C73 H82 0.930 . S
C74 C72 1.387 . S
C74 C73 1.380 . S
C74 H83 0.930 . S
C75 O52 1.254 . S
C75 O53 1.268 . S
H76 C61 0.930 . S
H77 C62 0.930 1_554 S
H78 C64 0.930 . S
H79 C65 0.930 . S
H80 C70 0.930 . S
H81 C71 0.933 . S
H82 C73 0.930 . S
H83 C74 0.930 . S
Gd84 N115 2.661 1_556 S
Gd84 N121 2.601 . S
Gd84 O128 2.545 . S
Gd84 O129 2.606 1_656 S
Gd84 O131 2.429 . S
Gd84 O132 2.545 1_655 S
Gd84 O133 2.412 1_556 S
Gd84 O135 2.362 1_556 S
Gd84 O136 2.324 1_556 S
Gd84 C143 2.828 . S
Gd85 N94 2.661 1_655 S
Gd85 N98 2.601 1_655 S
Gd85 O129 2.362 1_655 S
Gd85 O130 2.324 1_554 S
Gd85 O134 2.545 . S
Gd85 O135 2.606 . S
Gd85 O137 2.429 . S
Gd85 O138 2.545 . S
Gd85 O139 2.412 . S
Gd85 C152 2.828 . S
C86 C89 1.417 . S
C86 C91 1.431 . S
C86 C92 1.412 . S
C87 C90 1.437 . S
C87 C91 1.317 . S
C87 H106 0.929 . S
C88 C89 1.426 . S
C88 C90 1.413 . S
C88 N98 1.359 . S
C89 C86 1.417 . S
C89 C88 1.426 . S
C89 N94 1.350 . S
C90 C87 1.437 . S
C90 C88 1.413 . S
C90 C100 1.391 . S
C91 C86 1.431 . S
C91 C87 1.317 . S
C91 H102 0.930 . S
C92 C86 1.412 . S
C92 C93 1.355 1_554 S
C92 H104 0.930 1_554 S
C93 C92 1.355 1_556 S
C93 C95 1.402 . S
C93 H105 0.930 . S
N94 Gd85 2.661 1_455 S
N94 C89 1.350 . S
N94 C95 1.307 1_554 S
C95 C93 1.402 . S
C95 N94 1.307 1_556 S
C95 H96 0.930 . S
H96 C95 0.930 . S
C97 N98 1.334 . S
C97 C99 1.394 . S
C97 H101 0.930 1_455 S
N98 Gd85 2.601 1_455 S
N98 C88 1.359 . S
N98 C97 1.334 . S
C99 C97 1.394 . S
C99 C100 1.359 . S
C99 H111 0.930 . S
C100 C90 1.391 . S
C100 C99 1.359 . S
C100 H112 0.929 . S
H101 C97 0.930 1_655 S
H102 C91 0.930 . S
H103 C120 0.930 . S
H104 C92 0.930 1_556 S
H105 C93 0.930 . S
H106 C87 0.929 . S
H107 C125 0.930 . S
H108 C116 0.930 . S
H109 C117 0.930 . S
H110 C141 0.929 . S
H111 C99 0.930 . S
H112 C100 0.929 . S
H113 C142 0.930 . S
H114 C123 0.930 . S
N115 Gd84 2.661 1_554 S
N115 C119 1.350 1_554 S
N115 C120 1.307 . S
C116 H108 0.930 . S
C116 C117 1.355 . S
C116 C118 1.412 1_554 S
C117 H109 0.930 . S
C117 C116 1.355 . S
C117 C120 1.402 . S
C118 C116 1.412 1_556 S
C118 C119 1.417 . S
C118 C142 1.431 . S
C119 N115 1.350 1_556 S
C119 C118 1.417 . S
C119 C122 1.426 . S
C120 H103 0.930 . S
C120 N115 1.307 . S
C120 C117 1.402 . S
N121 Gd84 2.601 . S
N121 C122 1.359 . S
N121 C125 1.334 . S
C122 C119 1.426 . S
C122 N121 1.359 . S
C122 C126 1.413 . S
C123 H114 0.930 . S
C123 C124 1.359 . S
C123 C125 1.394 . S
C124 C123 1.359 . S
C124 C126 1.391 . S
C124 H127 0.929 . S
C125 H107 0.930 . S
C125 N121 1.334 . S
C125 C123 1.394 . S
C126 C122 1.413 . S
C126 C124 1.391 . S
C126 C141 1.437 . S
H127 C124 0.929 . S
O128 Gd84 2.545 . S
O128 C143 1.258 . S
O129 Gd84 2.606 1_454 S
O129 Gd85 2.362 1_455 S
O129 C140 1.284 . S
O130 Gd85 2.324 1_556 S
O130 C150 1.254 . S
O131 Gd84 2.429 . S
O131 C150 1.268 . S
O132 Gd84 2.545 1_455 S
O132 C140 1.250 1_556 S
O133 Gd84 2.412 1_554 S
O133 C143 1.252 1_554 S
O134 Gd85 2.545 . S
O134 C152 1.258 . S
O135 Gd84 2.362 1_554 S
O135 Gd85 2.606 . S
O135 C151 1.284 . S
O136 Gd84 2.324 1_554 S
O136 C159 1.254 . S
O137 Gd85 2.429 . S
O137 C159 1.268 . S
O138 Gd85 2.545 . S
O138 C151 1.250 . S
O139 Gd85 2.412 . S
O139 C152 1.252 . S
C140 O129 1.284 . S
C140 O132 1.250 1_554 S
C141 H110 0.929 . S
C141 C126 1.437 . S
C141 C142 1.317 . S
C142 H113 0.930 . S
C142 C118 1.431 . S
C142 C141 1.317 . S
C143 Gd84 2.828 . S
C143 O128 1.258 . S
C143 O133 1.252 1_556 S
C143 C144 1.497 . S
C144 C143 1.497 . S
C144 C145 1.395 . S
C144 C146 1.380 1_656 S
C145 C144 1.395 . S
C145 C148 1.398 1_655 S
C145 H160 0.930 . S
C146 C144 1.380 1_454 S
C146 C147 1.391 1_554 S
C146 H161 0.930 . S
C147 C146 1.391 1_556 S
C147 C149 1.387 . S
C148 C145 1.398 1_455 S
C148 C149 1.380 . S
C148 H162 0.930 . S
C149 C147 1.387 . S
C149 C148 1.380 . S
C149 H163 0.930 . S
C150 O130 1.254 . S
C150 O131 1.268 . S
C151 O135 1.284 . S
C151 O138 1.250 . S
C152 Gd85 2.828 . S
C152 O134 1.258 . S
C152 O139 1.252 . S
C152 C153 1.497 . S
C153 C152 1.497 . S
C153 C154 1.395 . S
C153 C155 1.380 . S
C154 C153 1.395 . S
C154 C157 1.398 . S
C154 H164 0.930 . S
C155 C153 1.380 . S
C155 C156 1.391 . S
C155 H165 0.930 . S
C156 C155 1.391 . S
C156 C158 1.387 . S
C157 C154 1.398 . S
C157 C158 1.380 . S
C157 H166 0.930 . S
C158 C156 1.387 . S
C158 C157 1.380 . S
C158 H167 0.930 . S
C159 O136 1.254 . S
C159 O137 1.268 . S
H160 C145 0.930 . S
H161 C146 0.930 . S
H162 C148 0.930 . S
H163 C149 0.930 . S
H164 C154 0.930 . S
H165 C155 0.930 . S
H166 C157 0.930 . S
H167 C158 0.930 . S
Gd168 N199 2.661 1_455 S
Gd168 N205 2.601 1_455 S
Gd168 O212 2.545 . S
Gd168 O213 2.606 . S
Gd168 O215 2.429 . S
Gd168 O216 2.545 . S
Gd168 O217 2.412 . S
Gd168 O219 2.362 1_455 S
Gd168 O220 2.324 . S
Gd168 C227 2.828 . S
Gd169 N178 2.661 . S
Gd169 N182 2.601 . S
Gd169 O213 2.362 . S
Gd169 O214 2.324 . S
Gd169 O218 2.545 . S
Gd169 O219 2.606 1_455 S
Gd169 O221 2.429 . S
Gd169 O222 2.545 1_455 S
Gd169 O223 2.412 . S
Gd169 C236 2.828 . S
C170 C173 1.417 . S
C170 C175 1.431 . S
C170 C176 1.412 . S
C171 C174 1.437 . S
C171 C175 1.317 . S
C171 H190 0.929 . S
C172 C173 1.426 . S
C172 C174 1.413 . S
C172 N182 1.359 . S
C173 C170 1.417 . S
C173 C172 1.426 . S
C173 N178 1.350 . S
C174 C171 1.437 . S
C174 C172 1.413 . S
C174 C184 1.391 . S
C175 C170 1.431 . S
C175 C171 1.317 . S
C175 H186 0.930 . S
C176 C170 1.412 . S
C176 C177 1.355 . S
C176 H188 0.930 . S
C177 C176 1.355 . S
C177 C179 1.402 . S
C177 H189 0.930 . S
N178 Gd169 2.661 . S
N178 C173 1.350 . S
N178 C179 1.307 . S
C179 C177 1.402 . S
C179 N178 1.307 . S
C179 H180 0.930 . S
H180 C179 0.930 . S
C181 N182 1.334 . S
C181 C183 1.394 . S
C181 H185 0.930 . S
N182 Gd169 2.601 . S
N182 C172 1.359 . S
N182 C181 1.334 . S
C183 C181 1.394 . S
C183 C184 1.359 . S
C183 H195 0.930 . S
C184 C174 1.391 . S
C184 C183 1.359 . S
C184 H196 0.929 . S
H185 C181 0.930 . S
H186 C175 0.930 . S
H187 C204 0.930 . S
H188 C176 0.930 . S
H189 C177 0.930 . S
H190 C171 0.929 . S
H191 C209 0.930 1_455 S
H192 C200 0.930 . S
H193 C201 0.930 . S
H194 C225 0.929 . S
H195 C183 0.930 . S
H196 C184 0.929 . S
H197 C226 0.930 . S
H198 C207 0.930 . S
N199 Gd168 2.661 1_655 S
N199 C203 1.350 . S
N199 C204 1.307 . S
C200 H192 0.930 . S
C200 C201 1.355 . S
C200 C202 1.412 . S
C201 H193 0.930 . S
C201 C200 1.355 . S
C201 C204 1.402 . S
C202 C200 1.412 . S
C202 C203 1.417 . S
C202 C226 1.431 . S
C203 N199 1.350 . S
C203 C202 1.417 . S
C203 C206 1.426 . S
C204 H187 0.930 . S
C204 N199 1.307 . S
C204 C201 1.402 . S
N205 Gd168 2.601 1_655 S
N205 C206 1.359 . S
N205 C209 1.334 . S
C206 C203 1.426 . S
C206 N205 1.359 . S
C206 C210 1.413 . S
C207 H198 0.930 . S
C207 C208 1.359 . S
C207 C209 1.394 . S
C208 C207 1.359 . S
C208 C210 1.391 . S
C208 H211 0.929 . S
C209 H191 0.930 1_655 S
C209 N205 1.334 . S
C209 C207 1.394 . S
C210 C206 1.413 . S
C210 C208 1.391 . S
C210 C225 1.437 . S
H211 C208 0.929 . S
O212 Gd168 2.545 . S
O212 C227 1.258 . S
O213 Gd168 2.606 . S
O213 Gd169 2.362 . S
O213 C224 1.284 . S
O214 Gd169 2.324 . S
O214 C234 1.254 . S
O215 Gd168 2.429 . S
O215 C234 1.268 . S
O216 Gd168 2.545 . S
O216 C224 1.250 . S
O217 Gd168 2.412 . S
O217 C227 1.252 . S
O218 Gd169 2.545 . S
O218 C236 1.258 . S
O219 Gd168 2.362 1_655 S
O219 Gd169 2.606 1_655 S
O219 C235 1.284 . S
O220 Gd168 2.324 . S
O220 C243 1.254 . S
O221 Gd169 2.429 . S
O221 C243 1.268 . S
O222 Gd169 2.545 1_655 S
O222 C235 1.250 . S
O223 Gd169 2.412 . S
O223 C236 1.252 . S
C224 O213 1.284 . S
C224 O216 1.250 . S
C225 H194 0.929 . S
C225 C210 1.437 . S
C225 C226 1.317 . S
C226 H197 0.930 . S
C226 C202 1.431 . S
C226 C225 1.317 . S
C227 Gd168 2.828 . S
C227 O212 1.258 . S
C227 O217 1.252 . S
C227 C228 1.497 . S
C228 C227 1.497 . S
C228 C229 1.395 . S
C228 C230 1.380 . S
C229 C228 1.395 . S
C229 C232 1.398 . S
C229 H244 0.930 . S
C230 C228 1.380 . S
C230 C231 1.391 . S
C230 H245 0.930 . S
C231 C230 1.391 . S
C231 C233 1.387 . S
C232 C229 1.398 . S
C232 C233 1.380 . S
C232 H246 0.930 . S
C233 C231 1.387 . S
C233 C232 1.380 . S
C233 H247 0.930 . S
C234 O214 1.254 . S
C234 O215 1.268 . S
C235 O219 1.284 . S
C235 O222 1.250 . S
C236 Gd169 2.828 . S
C236 O218 1.258 . S
C236 O223 1.252 . S
C236 C237 1.497 . S
C237 C236 1.497 . S
C237 C238 1.395 . S
C237 C239 1.380 1_455 S
C238 C237 1.395 . S
C238 C241 1.398 1_455 S
C238 H248 0.930 . S
C239 C237 1.380 1_655 S
C239 C240 1.391 . S
C239 H249 0.930 . S
C240 C239 1.391 . S
C240 C242 1.387 . S
C241 C238 1.398 1_655 S
C241 C242 1.380 . S
C241 H250 0.930 . S
C242 C240 1.387 . S
C242 C241 1.380 . S
C242 H251 0.930 . S
C243 O220 1.254 . S
C243 O221 1.268 . S
H244 C229 0.930 . S
H245 C230 0.930 . S
H246 C232 0.930 . S
H247 C233 0.930 . S
H248 C238 0.930 . S
H249 C239 0.930 . S
H250 C241 0.930 . S
H251 C242 0.930 . S
Gd252 N283 2.661 . S
Gd252 N289 2.601 . S
Gd252 O296 2.545 . S
Gd252 O297 2.606 1_655 S
Gd252 O299 2.429 . S
Gd252 O300 2.545 1_655 S
Gd252 O301 2.412 . S
Gd252 O303 2.362 . S
Gd252 O304 2.324 . S
Gd252 C311 2.828 . S
Gd253 N262 2.661 1_655 S
Gd253 N266 2.601 1_655 S
Gd253 O297 2.362 1_655 S
Gd253 O298 2.324 . S
Gd253 O302 2.545 . S
Gd253 O303 2.606 . S
Gd253 O305 2.429 . S
Gd253 O306 2.545 . S
Gd253 O307 2.412 . S
Gd253 C320 2.828 . S
C254 C257 1.417 . S
C254 C259 1.431 . S
C254 C260 1.412 . S
C255 C258 1.437 . S
C255 C259 1.317 . S
C255 H274 0.929 . S
C256 C257 1.426 . S
C256 C258 1.413 . S
C256 N266 1.359 . S
C257 C254 1.417 . S
C257 C256 1.426 . S
C257 N262 1.350 . S
C258 C255 1.437 . S
C258 C256 1.413 . S
C258 C268 1.391 . S
C259 C254 1.431 . S
C259 C255 1.317 . S
C259 H270 0.930 . S
C260 C254 1.412 . S
C260 C261 1.355 . S
C260 H272 0.930 . S
C261 C260 1.355 . S
C261 C263 1.402 . S
C261 H273 0.930 . S
N262 Gd253 2.661 1_455 S
N262 C257 1.350 . S
N262 C263 1.307 . S
C263 C261 1.402 . S
C263 N262 1.307 . S
C263 H264 0.930 . S
H264 C263 0.930 . S
C265 N266 1.334 . S
C265 C267 1.394 . S
C265 H269 0.930 1_455 S
N266 Gd253 2.601 1_455 S
N266 C256 1.359 . S
N266 C265 1.334 . S
C267 C265 1.394 . S
C267 C268 1.359 . S
C267 H279 0.930 . S
C268 C258 1.391 . S
C268 C267 1.359 . S
C268 H280 0.929 . S
H269 C265 0.930 1_655 S
H270 C259 0.930 . S
H271 C288 0.930 . S
H272 C260 0.930 . S
H273 C261 0.930 . S
H274 C255 0.929 . S
H275 C293 0.930 . S
H276 C284 0.930 . S
H277 C285 0.930 . S
H278 C309 0.929 . S
H279 C267 0.930 . S
H280 C268 0.929 . S
H281 C310 0.930 . S
H282 C291 0.930 . S
N283 Gd252 2.661 . S
N283 C287 1.350 . S
N283 C288 1.307 . S
C284 H276 0.930 . S
C284 C285 1.355 . S
C284 C286 1.412 . S
C285 H277 0.930 . S
C285 C284 1.355 . S
C285 C288 1.402 . S
C286 C284 1.412 . S
C286 C287 1.417 . S
C286 C310 1.431 . S
C287 N283 1.350 . S
C287 C286 1.417 . S
C287 C290 1.426 . S
C288 H271 0.930 . S
C288 N283 1.307 . S
C288 C285 1.402 . S
N289 Gd252 2.601 . S
N289 C290 1.359 . S
N289 C293 1.334 . S
C290 C287 1.426 . S
C290 N289 1.359 . S
C290 C294 1.413 . S
C291 H282 0.930 . S
C291 C292 1.359 . S
C291 C293 1.394 . S
C292 C291 1.359 . S
C292 C294 1.391 . S
C292 H295 0.929 . S
C293 H275 0.930 . S
C293 N289 1.334 . S
C293 C291 1.394 . S
C294 C290 1.413 . S
C294 C292 1.391 . S
C294 C309 1.437 . S
H295 C292 0.929 . S
O296 Gd252 2.545 . S
O296 C311 1.258 . S
O297 Gd252 2.606 1_455 S
O297 Gd253 2.362 1_455 S
O297 C308 1.284 . S
O298 Gd253 2.324 . S
O298 C318 1.254 . S
O299 Gd252 2.429 . S
O299 C318 1.268 . S
O300 Gd252 2.545 1_455 S
O300 C308 1.250 . S
O301 Gd252 2.412 . S
O301 C311 1.252 . S
O302 Gd253 2.545 . S
O302 C320 1.258 . S
O303 Gd252 2.362 . S
O303 Gd253 2.606 . S
O303 C319 1.284 . S
O304 Gd252 2.324 . S
O304 C327 1.254 . S
O305 Gd253 2.429 . S
O305 C327 1.268 . S
O306 Gd253 2.545 . S
O306 C319 1.250 . S
O307 Gd253 2.412 . S
O307 C320 1.252 . S
C308 O297 1.284 . S
C308 O300 1.250 . S
C309 H278 0.929 . S
C309 C294 1.437 . S
C309 C310 1.317 . S
C310 H281 0.930 . S
C310 C286 1.431 . S
C310 C309 1.317 . S
C311 Gd252 2.828 . S
C311 O296 1.258 . S
C311 O301 1.252 . S
C311 C312 1.497 . S
C312 C311 1.497 . S
C312 C313 1.395 . S
C312 C314 1.380 1_655 S
C313 C312 1.395 . S
C313 C316 1.398 1_655 S
C313 H328 0.930 . S
C314 C312 1.380 1_455 S
C314 C315 1.391 . S
C314 H329 0.930 . S
C315 C314 1.391 . S
C315 C317 1.387 . S
C316 C313 1.398 1_455 S
C316 C317 1.380 . S
C316 H330 0.930 . S
C317 C315 1.387 . S
C317 C316 1.380 . S
C317 H331 0.930 . S
C318 O298 1.254 . S
C318 O299 1.268 . S
C319 O303 1.284 . S
C319 O306 1.250 . S
C320 Gd253 2.828 . S
C320 O302 1.258 . S
C320 O307 1.252 . S
C320 C321 1.497 . S
C321 C320 1.497 . S
C321 C322 1.395 . S
C321 C323 1.380 . S
C322 C321 1.395 . S
C322 C325 1.398 . S
C322 H332 0.930 . S
C323 C321 1.380 . S
C323 C324 1.391 . S
C323 H333 0.930 . S
C324 C323 1.391 . S
C324 C326 1.387 . S
C325 C322 1.398 . S
C325 C326 1.380 . S
C325 H334 0.930 . S
C326 C324 1.387 . S
C326 C325 1.380 . S
C326 H335 0.930 . S
C327 O304 1.254 . S
C327 O305 1.268 . S
H328 C313 0.930 . S
H329 C314 0.930 . S
H330 C316 0.930 . S
H331 C317 0.930 . S
H332 C322 0.930 . S
H333 C323 0.930 . S
H334 C325 0.930 . S
H335 C326 0.930 . S
Gd336 N367 2.661 1_556 S
Gd336 N373 2.601 . S
Gd336 O380 2.545 . S
Gd336 O381 2.606 1_556 S
Gd336 O383 2.429 . S
Gd336 O384 2.545 . S
Gd336 O385 2.412 1_556 S
Gd336 O387 2.362 1_556 S
Gd336 O388 2.324 1_556 S
Gd336 C395 2.828 . S
Gd337 N346 2.661 . S
Gd337 N350 2.601 . S
Gd337 O381 2.362 . S
Gd337 O382 2.324 1_554 S
Gd337 O386 2.545 . S
Gd337 O387 2.606 . S
Gd337 O389 2.429 . S
Gd337 O390 2.545 . S
Gd337 O391 2.412 . S
Gd337 C404 2.828 . S
C338 C341 1.417 . S
C338 C343 1.431 . S
C338 C344 1.412 1_554 S
C339 C342 1.437 . S
C339 C343 1.317 . S
C339 H358 0.929 . S
C340 C341 1.426 . S
C340 C342 1.413 . S
C340 N350 1.359 . S
C341 C338 1.417 . S
C341 C340 1.426 . S
C341 N346 1.350 . S
C342 C339 1.437 . S
C342 C340 1.413 . S
C342 C352 1.391 . S
C343 C338 1.431 . S
C343 C339 1.317 . S
C343 H354 0.930 . S
C344 C338 1.412 1_556 S
C344 C345 1.355 . S
C344 H356 0.930 . S
C345 C344 1.355 . S
C345 C347 1.402 . S
C345 H357 0.930 . S
N346 Gd337 2.661 . S
N346 C341 1.350 . S
N346 C347 1.307 1_554 S
C347 C345 1.402 . S
C347 N346 1.307 1_556 S
C347 H348 0.930 . S
H348 C347 0.930 . S
C349 N350 1.334 . S
C349 C351 1.394 . S
C349 H353 0.930 . S
N350 Gd337 2.601 . S
N350 C340 1.359 . S
N350 C349 1.334 . S
C351 C349 1.394 . S
C351 C352 1.359 . S
C351 H363 0.930 . S
C352 C342 1.391 . S
C352 C351 1.359 . S
C352 H364 0.929 . S
H353 C349 0.930 . S
H354 C343 0.930 . S
H355 C372 0.930 . S
H356 C344 0.930 . S
H357 C345 0.930 . S
H358 C339 0.929 . S
H359 C377 0.930 . S
H360 C368 0.930 . S
H361 C369 0.930 . S
H362 C393 0.929 . S
H363 C351 0.930 . S
H364 C352 0.929 . S
H365 C394 0.930 . S
H366 C375 0.930 . S
N367 Gd336 2.661 1_554 S
N367 C371 1.350 1_554 S
N367 C372 1.307 . S
C368 H360 0.930 . S
C368 C369 1.355 . S
C368 C370 1.412 1_554 S
C369 H361 0.930 . S
C369 C368 1.355 . S
C369 C372 1.402 . S
C370 C368 1.412 1_556 S
C370 C371 1.417 . S
C370 C394 1.431 . S
C371 N367 1.350 1_556 S
C371 C370 1.417 . S
C371 C374 1.426 . S
C372 H355 0.930 . S
C372 N367 1.307 . S
C372 C369 1.402 . S
N373 Gd336 2.601 . S
N373 C374 1.359 . S
N373 C377 1.334 . S
C374 C371 1.426 . S
C374 N373 1.359 . S
C374 C378 1.413 . S
C375 H366 0.930 . S
C375 C376 1.359 . S
C375 C377 1.394 . S
C376 C375 1.359 . S
C376 C378 1.391 . S
C376 H379 0.929 . S
C377 H359 0.930 . S
C377 N373 1.334 . S
C377 C375 1.394 . S
C378 C374 1.413 . S
C378 C376 1.391 . S
C378 C393 1.437 . S
H379 C376 0.929 . S
O380 Gd336 2.545 . S
O380 C395 1.258 . S
O381 Gd336 2.606 1_554 S
O381 Gd337 2.362 . S
O381 C392 1.284 . S
O382 Gd337 2.324 1_556 S
O382 C402 1.254 . S
O383 Gd336 2.429 . S
O383 C402 1.268 . S
O384 Gd336 2.545 . S
O384 C392 1.250 1_556 S
O385 Gd336 2.412 1_554 S
O385 C395 1.252 1_554 S
O386 Gd337 2.545 . S
O386 C404 1.258 . S
O387 Gd336 2.362 1_554 S
O387 Gd337 2.606 . S
O387 C403 1.284 . S
O388 Gd336 2.324 1_554 S
O388 C411 1.254 . S
O389 Gd337 2.429 . S
O389 C411 1.268 . S
O390 Gd337 2.545 . S
O390 C403 1.250 . S
O391 Gd337 2.412 . S
O391 C404 1.252 . S
C392 O381 1.284 . S
C392 O384 1.250 1_554 S
C393 H362 0.929 . S
C393 C378 1.437 . S
C393 C394 1.317 . S
C394 H365 0.930 . S
C394 C370 1.431 . S
C394 C393 1.317 . S
C395 Gd336 2.828 . S
C395 O380 1.258 . S
C395 O385 1.252 1_556 S
C395 C396 1.497 . S
C396 C395 1.497 . S
C396 C397 1.395 . S
C396 C398 1.380 . S
C397 C396 1.395 . S
C397 C400 1.398 . S
C397 H412 0.930 . S
C398 C396 1.380 . S
C398 C399 1.391 . S
C398 H413 0.930 1_556 S
C399 C398 1.391 . S
C399 C401 1.387 . S
C400 C397 1.398 . S
C400 C401 1.380 . S
C400 H414 0.930 . S
C401 C399 1.387 . S
C401 C400 1.380 . S
C401 H415 0.930 . S
C402 O382 1.254 . S
C402 O383 1.268 . S
C403 O387 1.284 . S
C403 O390 1.250 . S
C404 Gd337 2.828 . S
C404 O386 1.258 . S
C404 O391 1.252 . S
C404 C405 1.497 . S
C405 C404 1.497 . S
C405 C406 1.395 . S
C405 C407 1.380 . S
C406 C405 1.395 . S
C406 C409 1.398 . S
C406 H416 0.930 . S
C407 C405 1.380 . S
C407 C408 1.391 . S
C407 H417 0.933 . S
C408 C407 1.391 . S
C408 C410 1.387 . S
C409 C406 1.398 . S
C409 C410 1.380 . S
C409 H418 0.930 . S
C410 C408 1.387 . S
C410 C409 1.380 . S
C410 H419 0.930 . S
C411 O388 1.254 . S
C411 O389 1.268 . S
H412 C397 0.930 . S
H413 C398 0.930 1_554 S
H414 C400 0.930 . S
H415 C401 0.930 . S
H416 C406 0.930 . S
H417 C407 0.933 . S
H418 C409 0.930 . S
H419 C410 0.930 . S
Gd420 N451 2.661 1_556 S
Gd420 N457 2.601 . S
Gd420 O464 2.545 . S
Gd420 O465 2.606 1_556 S
Gd420 O467 2.429 . S
Gd420 O468 2.545 . S
Gd420 O469 2.412 1_556 S
Gd420 O471 2.362 1_556 S
Gd420 O472 2.324 1_556 S
Gd420 C479 2.828 . S
Gd421 N430 2.661 . S
Gd421 N434 2.601 . S
Gd421 O465 2.362 . S
Gd421 O466 2.324 1_554 S
Gd421 O470 2.545 . S
Gd421 O471 2.606 . S
Gd421 O473 2.429 . S
Gd421 O474 2.545 . S
Gd421 O475 2.412 . S
Gd421 C488 2.828 . S
C422 C425 1.417 . S
C422 C427 1.431 . S
C422 C428 1.412 . S
C423 C426 1.437 . S
C423 C427 1.317 . S
C423 H442 0.929 . S
C424 C425 1.426 . S
C424 C426 1.413 . S
C424 N434 1.359 . S
C425 C422 1.417 . S
C425 C424 1.426 . S
C425 N430 1.350 . S
C426 C423 1.437 . S
C426 C424 1.413 . S
C426 C436 1.391 . S
C427 C422 1.431 . S
C427 C423 1.317 . S
C427 H438 0.930 . S
C428 C422 1.412 . S
C428 C429 1.355 1_554 S
C428 H440 0.930 1_554 S
C429 C428 1.355 1_556 S
C429 C431 1.402 . S
C429 H441 0.930 . S
N430 Gd421 2.661 . S
N430 C425 1.350 . S
N430 C431 1.307 1_554 S
C431 C429 1.402 . S
C431 N430 1.307 1_556 S
C431 H432 0.930 . S
H432 C431 0.930 . S
C433 N434 1.334 . S
C433 C435 1.394 . S
C433 H437 0.930 . S
N434 Gd421 2.601 . S
N434 C424 1.359 . S
N434 C433 1.334 . S
C435 C433 1.394 . S
C435 C436 1.359 . S
C435 H447 0.930 . S
C436 C426 1.391 . S
C436 C435 1.359 . S
C436 H448 0.929 . S
H437 C433 0.930 . S
H438 C427 0.930 . S
H439 C456 0.930 . S
H440 C428 0.930 1_556 S
H441 C429 0.930 . S
H442 C423 0.929 . S
H443 C461 0.930 . S
H444 C452 0.930 . S
H445 C453 0.930 . S
H446 C477 0.929 . S
H447 C435 0.930 . S
H448 C436 0.929 . S
H449 C478 0.930 . S
H450 C459 0.930 . S
N451 Gd420 2.661 1_554 S
N451 C455 1.350 1_554 S
N451 C456 1.307 . S
C452 H444 0.930 . S
C452 C453 1.355 . S
C452 C454 1.412 1_554 S
C453 H445 0.930 . S
C453 C452 1.355 . S
C453 C456 1.402 . S
C454 C452 1.412 1_556 S
C454 C455 1.417 . S
C454 C478 1.431 . S
C455 N451 1.350 1_556 S
C455 C454 1.417 . S
C455 C458 1.426 . S
C456 H439 0.930 . S
C456 N451 1.307 . S
C456 C453 1.402 . S
N457 Gd420 2.601 . S
N457 C458 1.359 . S
N457 C461 1.334 . S
C458 C455 1.426 . S
C458 N457 1.359 . S
C458 C462 1.413 . S
C459 H450 0.930 . S
C459 C460 1.359 . S
C459 C461 1.394 . S
C460 C459 1.359 . S
C460 C462 1.391 . S
C460 H463 0.929 . S
C461 H443 0.930 . S
C461 N457 1.334 . S
C461 C459 1.394 . S
C462 C458 1.413 . S
C462 C460 1.391 . S
C462 C477 1.437 . S
H463 C460 0.929 . S
O464 Gd420 2.545 . S
O464 C479 1.258 . S
O465 Gd420 2.606 1_554 S
O465 Gd421 2.362 . S
O465 C476 1.284 . S
O466 Gd421 2.324 1_556 S
O466 C486 1.254 . S
O467 Gd420 2.429 . S
O467 C486 1.268 . S
O468 Gd420 2.545 . S
O468 C476 1.250 1_556 S
O469 Gd420 2.412 1_554 S
O469 C479 1.252 1_554 S
O470 Gd421 2.545 . S
O470 C488 1.258 . S
O471 Gd420 2.362 1_554 S
O471 Gd421 2.606 . S
O471 C487 1.284 . S
O472 Gd420 2.324 1_554 S
O472 C495 1.254 . S
O473 Gd421 2.429 . S
O473 C495 1.268 . S
O474 Gd421 2.545 . S
O474 C487 1.250 . S
O475 Gd421 2.412 . S
O475 C488 1.252 . S
C476 O465 1.284 . S
C476 O468 1.250 1_554 S
C477 H446 0.929 . S
C477 C462 1.437 . S
C477 C478 1.317 . S
C478 H449 0.930 . S
C478 C454 1.431 . S
C478 C477 1.317 . S
C479 Gd420 2.828 . S
C479 O464 1.258 . S
C479 O469 1.252 1_556 S
C479 C480 1.497 . S
C480 C479 1.497 . S
C480 C481 1.395 . S
C480 C482 1.380 1_556 S
C481 C480 1.395 . S
C481 C484 1.398 . S
C481 H496 0.930 . S
C482 C480 1.380 1_554 S
C482 C483 1.391 1_554 S
C482 H497 0.930 . S
C483 C482 1.391 1_556 S
C483 C485 1.387 . S
C484 C481 1.398 . S
C484 C485 1.380 . S
C484 H498 0.930 . S
C485 C483 1.387 . S
C485 C484 1.380 . S
C485 H499 0.930 . S
C486 O466 1.254 . S
C486 O467 1.268 . S
C487 O471 1.284 . S
C487 O474 1.250 . S
C488 Gd421 2.828 . S
C488 O470 1.258 . S
C488 O475 1.252 . S
C488 C489 1.497 . S
C489 C488 1.497 . S
C489 C490 1.395 . S
C489 C491 1.380 . S
C490 C489 1.395 . S
C490 C493 1.398 . S
C490 H500 0.930 . S
C491 C489 1.380 . S
C491 C492 1.391 . S
C491 H501 0.930 . S
C492 C491 1.391 . S
C492 C494 1.387 . S
C493 C490 1.398 . S
C493 C494 1.380 . S
C493 H502 0.930 . S
C494 C492 1.387 . S
C494 C493 1.380 . S
C494 H503 0.930 . S
C495 O472 1.254 . S
C495 O473 1.268 . S
H496 C481 0.930 . S
H497 C482 0.930 . S
H498 C484 0.930 . S
H499 C485 0.930 . S
H500 C490 0.930 . S
H501 C491 0.930 . S
H502 C493 0.930 . S
H503 C494 0.930 . S
Gd504 N535 2.661 . S
Gd504 N541 2.601 . S
Gd504 O548 2.545 . S
Gd504 O549 2.606 . S
Gd504 O551 2.429 . S
Gd504 O552 2.545 . S
Gd504 O553 2.412 . S
Gd504 O555 2.362 . S
Gd504 O556 2.324 . S
Gd504 C563 2.828 . S
Gd505 N514 2.661 . S
Gd505 N518 2.601 . S
Gd505 O549 2.362 . S
Gd505 O550 2.324 . S
Gd505 O554 2.545 . S
Gd505 O555 2.606 . S
Gd505 O557 2.429 . S
Gd505 O558 2.545 . S
Gd505 O559 2.412 . S
Gd505 C572 2.828 . S
C506 C509 1.417 . S
C506 C511 1.431 . S
C506 C512 1.412 . S
C507 C510 1.437 . S
C507 C511 1.317 . S
C507 H526 0.929 . S
C508 C509 1.426 . S
C508 C510 1.413 . S
C508 N518 1.359 . S
C509 C506 1.417 . S
C509 C508 1.426 . S
C509 N514 1.350 . S
C510 C507 1.437 . S
C510 C508 1.413 . S
C510 C520 1.391 . S
C511 C506 1.431 . S
C511 C507 1.317 . S
C511 H522 0.930 . S
C512 C506 1.412 . S
C512 C513 1.355 . S
C512 H524 0.930 . S
C513 C512 1.355 . S
C513 C515 1.402 . S
C513 H525 0.930 . S
N514 Gd505 2.661 . S
N514 C509 1.350 . S
N514 C515 1.307 . S
C515 C513 1.402 . S
C515 N514 1.307 . S
C515 H516 0.930 . S
H516 C515 0.930 . S
C517 N518 1.334 . S
C517 C519 1.394 . S
C517 H521 0.930 . S
N518 Gd505 2.601 . S
N518 C508 1.359 . S
N518 C517 1.334 . S
C519 C517 1.394 . S
C519 C520 1.359 . S
C519 H531 0.930 . S
C520 C510 1.391 . S
C520 C519 1.359 . S
C520 H532 0.929 . S
H521 C517 0.930 . S
H522 C511 0.930 . S
H523 C540 0.930 . S
H524 C512 0.930 . S
H525 C513 0.930 . S
H526 C507 0.929 . S
H527 C545 0.930 . S
H528 C536 0.930 . S
H529 C537 0.930 . S
H530 C561 0.929 . S
H531 C519 0.930 . S
H532 C520 0.929 . S
H533 C562 0.930 . S
H534 C543 0.930 . S
N535 Gd504 2.661 . S
N535 C539 1.350 . S
N535 C540 1.307 . S
C536 H528 0.930 . S
C536 C537 1.355 . S
C536 C538 1.412 . S
C537 H529 0.930 . S
C537 C536 1.355 . S
C537 C540 1.402 . S
C538 C536 1.412 . S
C538 C539 1.417 . S
C538 C562 1.431 . S
C539 N535 1.350 . S
C539 C538 1.417 . S
C539 C542 1.426 . S
C540 H523 0.930 . S
C540 N535 1.307 . S
C540 C537 1.402 . S
N541 Gd504 2.601 . S
N541 C542 1.359 . S
N541 C545 1.334 . S
C542 C539 1.426 . S
C542 N541 1.359 . S
C542 C546 1.413 . S
C543 H534 0.930 . S
C543 C544 1.359 . S
C543 C545 1.394 . S
C544 C543 1.359 . S
C544 C546 1.391 . S
C544 H547 0.929 . S
C545 H527 0.930 . S
C545 N541 1.334 . S
C545 C543 1.394 . S
C546 C542 1.413 . S
C546 C544 1.391 . S
C546 C561 1.437 . S
H547 C544 0.929 . S
O548 Gd504 2.545 . S
O548 C563 1.258 . S
O549 Gd504 2.606 . S
O549 Gd505 2.362 . S
O549 C560 1.284 . S
O550 Gd505 2.324 . S
O550 C570 1.254 . S
O551 Gd504 2.429 . S
O551 C570 1.268 . S
O552 Gd504 2.545 . S
O552 C560 1.250 . S
O553 Gd504 2.412 . S
O553 C563 1.252 . S
O554 Gd505 2.545 . S
O554 C572 1.258 . S
O555 Gd504 2.362 . S
O555 Gd505 2.606 . S
O555 C571 1.284 . S
O556 Gd504 2.324 . S
O556 C579 1.254 . S
O557 Gd505 2.429 . S
O557 C579 1.268 . S
O558 Gd505 2.545 . S
O558 C571 1.250 . S
O559 Gd505 2.412 . S
O559 C572 1.252 . S
C560 O549 1.284 . S
C560 O552 1.250 . S
C561 H530 0.929 . S
C561 C546 1.437 . S
C561 C562 1.317 . S
C562 H533 0.930 . S
C562 C538 1.431 . S
C562 C561 1.317 . S
C563 Gd504 2.828 . S
C563 O548 1.258 . S
C563 O553 1.252 . S
C563 C564 1.497 . S
C564 C563 1.497 . S
C564 C565 1.395 . S
C564 C566 1.380 . S
C565 C564 1.395 . S
C565 C568 1.398 . S
C565 H580 0.930 . S
C566 C564 1.380 . S
C566 C567 1.391 . S
C566 H581 0.930 . S
C567 C566 1.391 . S
C567 C569 1.387 . S
C568 C565 1.398 . S
C568 C569 1.380 . S
C568 H582 0.930 . S
C569 C567 1.387 . S
C569 C568 1.380 . S
C569 H583 0.930 . S
C570 O550 1.254 . S
C570 O551 1.268 . S
C571 O555 1.284 . S
C571 O558 1.250 . S
C572 Gd505 2.828 . S
C572 O554 1.258 . S
C572 O559 1.252 . S
C572 C573 1.497 . S
C573 C572 1.497 . S
C573 C574 1.395 . S
C573 C575 1.380 . S
C574 C573 1.395 . S
C574 C577 1.398 . S
C574 H584 0.930 . S
C575 C573 1.380 . S
C575 C576 1.391 . S
C575 H585 0.930 . S
C576 C575 1.391 . S
C576 C578 1.387 . S
C577 C574 1.398 . S
C577 C578 1.380 . S
C577 H586 0.930 . S
C578 C576 1.387 . S
C578 C577 1.380 . S
C578 H587 0.930 . S
C579 O556 1.254 . S
C579 O557 1.268 . S
H580 C565 0.930 . S
H581 C566 0.930 . S
H582 C568 0.930 . S
H583 C569 0.930 . S
H584 C574 0.930 . S
H585 C575 0.930 . S
H586 C577 0.930 . S
H587 C578 0.930 . S
Gd588 N619 2.661 . S
Gd588 N625 2.601 . S
Gd588 O632 2.545 . S
Gd588 O633 2.606 . S
Gd588 O635 2.429 . S
Gd588 O636 2.545 . S
Gd588 O637 2.412 . S
Gd588 O639 2.362 . S
Gd588 O640 2.324 . S
Gd588 C647 2.828 . S
Gd589 N598 2.661 . S
Gd589 N602 2.601 . S
Gd589 O633 2.362 . S
Gd589 O634 2.324 . S
Gd589 O638 2.545 . S
Gd589 O639 2.606 . S
Gd589 O641 2.429 . S
Gd589 O642 2.545 . S
Gd589 O643 2.412 . S
Gd589 C656 2.828 . S
C590 C593 1.417 . S
C590 C595 1.431 . S
C590 C596 1.412 . S
C591 C594 1.437 . S
C591 C595 1.317 . S
C591 H610 0.929 . S
C592 C593 1.426 . S
C592 C594 1.413 . S
C592 N602 1.359 . S
C593 C590 1.417 . S
C593 C592 1.426 . S
C593 N598 1.350 . S
C594 C591 1.437 . S
C594 C592 1.413 . S
C594 C604 1.391 . S
C595 C590 1.431 . S
C595 C591 1.317 . S
C595 H606 0.930 . S
C596 C590 1.412 . S
C596 C597 1.355 . S
C596 H608 0.930 . S
C597 C596 1.355 . S
C597 C599 1.402 . S
C597 H609 0.930 . S
N598 Gd589 2.661 . S
N598 C593 1.350 . S
N598 C599 1.307 . S
C599 C597 1.402 . S
C599 N598 1.307 . S
C599 H600 0.930 . S
H600 C599 0.930 . S
C601 N602 1.334 . S
C601 C603 1.394 . S
C601 H605 0.930 . S
N602 Gd589 2.601 . S
N602 C592 1.359 . S
N602 C601 1.334 . S
C603 C601 1.394 . S
C603 C604 1.359 . S
C603 H615 0.930 . S
C604 C594 1.391 . S
C604 C603 1.359 . S
C604 H616 0.929 . S
H605 C601 0.930 . S
H606 C595 0.930 . S
H607 C624 0.930 . S
H608 C596 0.930 . S
H609 C597 0.930 . S
H610 C591 0.929 . S
H611 C629 0.930 . S
H612 C620 0.930 . S
H613 C621 0.930 . S
H614 C645 0.929 . S
H615 C603 0.930 . S
H616 C604 0.929 . S
H617 C646 0.930 . S
H618 C627 0.930 . S
N619 Gd588 2.661 . S
N619 C623 1.350 . S
N619 C624 1.307 . S
C620 H612 0.930 . S
C620 C621 1.355 . S
C620 C622 1.412 . S
C621 H613 0.930 . S
C621 C620 1.355 . S
C621 C624 1.402 . S
C622 C620 1.412 . S
C622 C623 1.417 . S
C622 C646 1.431 . S
C623 N619 1.350 . S
C623 C622 1.417 . S
C623 C626 1.426 . S
C624 H607 0.930 . S
C624 N619 1.307 . S
C624 C621 1.402 . S
N625 Gd588 2.601 . S
N625 C626 1.359 . S
N625 C629 1.334 . S
C626 C623 1.426 . S
C626 N625 1.359 . S
C626 C630 1.413 . S
C627 H618 0.930 . S
C627 C628 1.359 . S
C627 C629 1.394 . S
C628 C627 1.359 . S
C628 C630 1.391 . S
C628 H631 0.929 . S
C629 H611 0.930 . S
C629 N625 1.334 . S
C629 C627 1.394 . S
C630 C626 1.413 . S
C630 C628 1.391 . S
C630 C645 1.437 . S
H631 C628 0.929 . S
O632 Gd588 2.545 . S
O632 C647 1.258 . S
O633 Gd588 2.606 . S
O633 Gd589 2.362 . S
O633 C644 1.284 . S
O634 Gd589 2.324 . S
O634 C654 1.254 . S
O635 Gd588 2.429 . S
O635 C654 1.268 . S
O636 Gd588 2.545 . S
O636 C644 1.250 . S
O637 Gd588 2.412 . S
O637 C647 1.252 . S
O638 Gd589 2.545 . S
O638 C656 1.258 . S
O639 Gd588 2.362 . S
O639 Gd589 2.606 . S
O639 C655 1.284 . S
O640 Gd588 2.324 . S
O640 C663 1.254 . S
O641 Gd589 2.429 . S
O641 C663 1.268 . S
O642 Gd589 2.545 . S
O642 C655 1.250 . S
O643 Gd589 2.412 . S
O643 C656 1.252 . S
C644 O633 1.284 . S
C644 O636 1.250 . S
C645 H614 0.929 . S
C645 C630 1.437 . S
C645 C646 1.317 . S
C646 H617 0.930 . S
C646 C622 1.431 . S
C646 C645 1.317 . S
C647 Gd588 2.828 . S
C647 O632 1.258 . S
C647 O637 1.252 . S
C647 C648 1.497 . S
C648 C647 1.497 . S
C648 C649 1.395 . S
C648 C650 1.380 . S
C649 C648 1.395 . S
C649 C652 1.398 . S
C649 H664 0.930 . S
C650 C648 1.380 . S
C650 C651 1.391 . S
C650 H665 0.930 . S
C651 C650 1.391 . S
C651 C653 1.387 . S
C652 C649 1.398 . S
C652 C653 1.380 . S
C652 H666 0.930 . S
C653 C651 1.387 . S
C653 C652 1.380 . S
C653 H667 0.930 . S
C654 O634 1.254 . S
C654 O635 1.268 . S
C655 O639 1.284 . S
C655 O642 1.250 . S
C656 Gd589 2.828 . S
C656 O638 1.258 . S
C656 O643 1.252 . S
C656 C657 1.497 . S
C657 C656 1.497 . S
C657 C658 1.395 . S
C657 C659 1.380 . S
C658 C657 1.395 . S
C658 C661 1.398 . S
C658 H668 0.930 . S
C659 C657 1.380 . S
C659 C660 1.391 . S
C659 H669 0.930 . S
C660 C659 1.391 . S
C660 C662 1.387 . S
C661 C658 1.398 . S
C661 C662 1.380 . S
C661 H670 0.930 . S
C662 C660 1.387 . S
C662 C661 1.380 . S
C662 H671 0.930 . S
C663 O640 1.254 . S
C663 O641 1.268 . S
H664 C649 0.930 . S
H665 C650 0.930 . S
H666 C652 0.930 . S
H667 C653 0.930 . S
H668 C658 0.930 . S
H669 C659 0.930 . S
H670 C661 0.930 . S
H671 C662 0.930 . S
H672 C680 0.929 . S
H673 C682 0.930 . S
H674 C684 0.930 . S
H675 C687 0.929 . S
H676 C690 0.930 . S
H677 C692 0.960 . S
H678 C692 0.960 . S
H679 C692 0.960 . S
C680 H672 0.929 . S
C680 C681 1.377 . S
C680 C682 1.384 . S
C681 C680 1.377 . S
C681 C687 1.390 1_554 S
C682 H673 0.930 . S
C682 C680 1.384 . S
C682 C683 1.372 . S
C683 C682 1.372 . S
C683 C684 1.400 1_554 S
C683 C688 1.490 . S
C684 H674 0.930 . S
C684 C683 1.400 1_556 S
C684 C687 1.386 . S
H685 C701 0.930 . S
H686 C702 0.931 . S
C687 H675 0.929 . S
C687 C681 1.390 1_556 S
C687 C684 1.386 . S
C688 C683 1.490 . S
C688 C690 1.395 . S
C688 C691 1.403 1_554 S
H689 C695 0.930 . S
C690 H676 0.930 . S
C690 C688 1.395 . S
C690 C693 1.403 . S
C691 C688 1.403 1_556 S
C691 C692 1.524 . S
C691 C695 1.400 . S
C692 H677 0.960 . S
C692 H678 0.960 . S
C692 H679 0.960 . S
C692 C691 1.524 . S
C693 C690 1.403 . S
C693 C694 1.392 . S
C693 C697 1.495 . S
C694 C693 1.392 . S
C694 C695 1.385 1_554 S
C694 C696 1.478 . S
C695 H689 0.930 . S
C695 C691 1.400 . S
C695 C694 1.385 1_556 S
C696 C694 1.478 . S
C696 C698 1.381 . S
C696 C702 1.383 1_554 S
C697 C693 1.495 . S
C697 H703 0.959 . S
C697 H704 0.961 . S
C697 H705 0.960 . S
C698 C696 1.381 . S
C698 C699 1.394 . S
C698 H706 0.930 . S
C699 C698 1.394 . S
C699 C700 1.383 . S
C699 H707 0.929 . S
C700 C699 1.383 . S
C700 C701 1.377 1_554 S
C701 H685 0.930 . S
C701 C700 1.377 1_556 S
C701 C702 1.379 . S
C702 H686 0.931 . S
C702 C696 1.383 1_556 S
C702 C701 1.379 . S
H703 C697 0.959 . S
H704 C697 0.961 . S
H705 C697 0.960 . S
H706 C698 0.930 . S
H707 C699 0.929 . S
H708 C716 0.929 . S
H709 C718 0.930 . S
H710 C720 0.930 1_556 S
H711 C723 0.929 1_556 S
H712 C726 0.930 1_556 S
H713 C728 0.960 . S
H714 C728 0.960 . S
H715 C728 0.960 . S
C716 H708 0.929 . S
C716 C717 1.377 . S
C716 C718 1.384 . S
C717 C716 1.377 . S
C717 C723 1.390 . S
C718 H709 0.930 . S
C718 C716 1.384 . S
C718 C719 1.372 . S
C719 C718 1.372 . S
C719 C720 1.400 . S
C719 C724 1.490 . S
C720 H710 0.930 1_554 S
C720 C719 1.400 . S
C720 C723 1.386 . S
H721 C737 0.930 . S
H722 C738 0.931 . S
C723 H711 0.929 1_554 S
C723 C717 1.390 . S
C723 C720 1.386 . S
C724 C719 1.490 . S
C724 C726 1.395 . S
C724 C727 1.403 . S
H725 C731 0.930 . S
C726 H712 0.930 1_554 S
C726 C724 1.395 . S
C726 C729 1.405 . S
C727 C724 1.403 . S
C727 C728 1.524 . S
C727 C731 1.400 . S
C728 H713 0.960 . S
C728 H714 0.960 . S
C728 H715 0.960 . S
C728 C727 1.524 . S
C729 C726 1.405 . S
C729 C730 1.391 . S
C729 C733 1.495 1_554 S
C730 C729 1.391 . S
C730 C731 1.385 . S
C730 C732 1.478 . S
C731 H725 0.930 . S
C731 C727 1.400 . S
C731 C730 1.385 . S
C732 C730 1.478 . S
C732 C734 1.381 . S
C732 C738 1.383 1_554 S
C733 C729 1.495 1_556 S
C733 H739 0.959 . S
C733 H740 0.961 . S
C733 H741 0.960 1_556 S
C734 C732 1.381 . S
C734 C735 1.394 . S
C734 H742 0.930 . S
C735 C734 1.394 . S
C735 C736 1.383 . S
C735 H743 0.929 . S
C736 C735 1.383 . S
C736 C737 1.377 1_554 S
C737 H721 0.930 . S
C737 C736 1.377 1_556 S
C737 C738 1.379 . S
C738 H722 0.931 . S
C738 C732 1.383 1_556 S
C738 C737 1.379 . S
H739 C733 0.959 . S
H740 C733 0.961 . S
H741 C733 0.960 1_554 S
H742 C734 0.930 . S
H743 C735 0.929 . S
H744 C752 0.929 . S
H745 C754 0.930 . S
H746 C756 0.930 . S
H747 C759 0.929 . S
H748 C762 0.930 . S
H749 C764 0.960 . S
H750 C764 0.960 . S
H751 C764 0.960 . S
C752 H744 0.929 . S
C752 C753 1.377 . S
C752 C754 1.384 . S
C753 C752 1.377 . S
C753 C759 1.390 . S
C754 H745 0.930 . S
C754 C752 1.384 . S
C754 C755 1.372 . S
C755 C754 1.372 . S
C755 C756 1.400 . S
C755 C760 1.490 . S
C756 H746 0.930 . S
C756 C755 1.400 . S
C756 C759 1.386 . S
H757 C773 0.930 . S
H758 C774 0.931 . S
C759 H747 0.929 . S
C759 C753 1.390 . S
C759 C756 1.386 . S
C760 C755 1.490 . S
C760 C762 1.395 . S
C760 C763 1.403 . S
H761 C767 0.930 . S
C762 H748 0.930 . S
C762 C760 1.395 . S
C762 C765 1.403 . S
C763 C760 1.403 . S
C763 C764 1.524 . S
C763 C767 1.400 . S
C764 H749 0.960 . S
C764 H750 0.960 . S
C764 H751 0.960 . S
C764 C763 1.524 . S
C765 C762 1.403 . S
C765 C766 1.392 . S
C765 C769 1.495 . S
C766 C765 1.392 . S
C766 C767 1.385 . S
C766 C768 1.478 . S
C767 H761 0.930 . S
C767 C763 1.400 . S
C767 C766 1.385 . S
C768 C766 1.478 . S
C768 C770 1.381 . S
C768 C774 1.383 . S
C769 C765 1.495 . S
C769 H775 0.959 . S
C769 H776 0.961 . S
C769 H777 0.960 . S
C770 C768 1.381 . S
C770 C771 1.394 . S
C770 H778 0.930 . S
C771 C770 1.394 . S
C771 C772 1.383 . S
C771 H779 0.929 . S
C772 C771 1.383 . S
C772 C773 1.377 . S
C773 H757 0.930 . S
C773 C772 1.377 . S
C773 C774 1.379 . S
C774 H758 0.931 . S
C774 C768 1.383 . S
C774 C773 1.379 . S
H775 C769 0.959 . S
H776 C769 0.961 . S
H777 C769 0.960 . S
H778 C770 0.930 . S
H779 C771 0.929 . S
H780 C788 0.929 . S
H781 C790 0.930 . S
H782 C792 0.930 . S
H783 C795 0.929 . S
H784 C798 0.930 . S
H785 C800 0.960 . S
H786 C800 0.960 . S
H787 C800 0.960 . S
C788 H780 0.929 . S
C788 C789 1.377 . S
C788 C790 1.384 . S
C789 C788 1.377 . S
C789 C795 1.390 . S
C790 H781 0.930 . S
C790 C788 1.384 . S
C790 C791 1.372 . S
C791 C790 1.372 . S
C791 C792 1.400 . S
C791 C796 1.490 . S
C792 H782 0.930 . S
C792 C791 1.400 . S
C792 C795 1.386 . S
H793 C809 0.930 . S
H794 C810 0.931 . S
C795 H783 0.929 . S
C795 C789 1.390 . S
C795 C792 1.386 . S
C796 C791 1.490 . S
C796 C798 1.395 . S
C796 C799 1.403 . S
H797 C803 0.930 . S
C798 H784 0.930 . S
C798 C796 1.395 . S
C798 C801 1.403 . S
C799 C796 1.403 . S
C799 C800 1.524 . S
C799 C803 1.400 . S
C800 H785 0.960 . S
C800 H786 0.960 . S
C800 H787 0.960 . S
C800 C799 1.524 . S
C801 C798 1.403 . S
C801 C802 1.392 . S
C801 C805 1.495 . S
C802 C801 1.392 . S
C802 C803 1.385 . S
C802 C804 1.478 . S
C803 H797 0.930 . S
C803 C799 1.400 . S
C803 C802 1.385 . S
C804 C802 1.478 . S
C804 C806 1.381 . S
C804 C810 1.383 . S
C805 C801 1.495 . S
C805 H811 0.959 . S
C805 H812 0.961 . S
C805 H813 0.960 . S
C806 C804 1.381 . S
C806 C807 1.394 . S
C806 H814 0.930 . S
C807 C806 1.394 . S
C807 C808 1.383 . S
C807 H815 0.929 . S
C808 C807 1.383 . S
C808 C809 1.377 . S
C809 H793 0.930 . S
C809 C808 1.377 . S
C809 C810 1.379 . S
C810 H794 0.931 . S
C810 C804 1.383 . S
C810 C809 1.379 . S
H811 C805 0.959 . S
H812 C805 0.961 . S
H813 C805 0.960 . S
H814 C806 0.930 . S
H815 C807 0.929 . S
H816 C824 0.929 . S
H817 C826 0.930 . S
H818 C828 0.930 . S
H819 C831 0.929 . S
H820 C834 0.930 . S
H821 C836 0.960 1_455 S
H822 C836 0.960 . S
H823 C836 0.960 . S
C824 H816 0.929 . S
C824 C825 1.377 . S
C824 C826 1.384 . S
C825 C824 1.377 . S
C825 C831 1.390 1_554 S
C826 H817 0.930 . S
C826 C824 1.384 . S
C826 C827 1.372 . S
C827 C826 1.372 . S
C827 C828 1.400 1_554 S
C827 C832 1.490 . S
C828 H818 0.930 . S
C828 C827 1.400 1_556 S
C828 C831 1.386 . S
H829 C845 0.930 . S
H830 C846 0.931 . S
C831 H819 0.929 . S
C831 C825 1.390 1_556 S
C831 C828 1.386 . S
C832 C827 1.490 . S
C832 C834 1.395 1_655 S
C832 C835 1.403 1_654 S
H833 C839 0.930 . S
C834 H820 0.930 . S
C834 C832 1.395 1_455 S
C834 C837 1.403 . S
C835 C832 1.403 1_456 S
C835 C836 1.524 1_455 S
C835 C839 1.400 . S
C836 H821 0.960 1_655 S
C836 H822 0.960 . S
C836 H823 0.960 . S
C836 C835 1.524 1_655 S
C837 C834 1.403 . S
C837 C838 1.392 . S
C837 C841 1.495 . S
C838 C837 1.392 . S
C838 C839 1.385 1_554 S
C838 C840 1.478 . S
C839 H833 0.930 . S
C839 C835 1.400 . S
C839 C838 1.385 1_556 S
C840 C838 1.478 . S
C840 C842 1.381 . S
C840 C846 1.383 1_554 S
C841 C837 1.495 . S
C841 H847 0.959 . S
C841 H848 0.961 . S
C841 H849 0.960 . S
C842 C840 1.381 . S
C842 C843 1.394 . S
C842 H850 0.930 . S
C843 C842 1.394 . S
C843 C844 1.383 . S
C843 H851 0.929 . S
C844 C843 1.383 . S
C844 C845 1.377 1_554 S
C845 H829 0.930 . S
C845 C844 1.377 1_556 S
C845 C846 1.379 . S
C846 H830 0.931 . S
C846 C840 1.383 1_556 S
C846 C845 1.379 . S
H847 C841 0.959 . S
H848 C841 0.961 . S
H849 C841 0.960 . S
H850 C842 0.930 . S
H851 C843 0.929 . S
H852 C860 0.929 . S
H853 C862 0.930 . S
H854 C864 0.930 . S
H855 C867 0.929 . S
H856 C870 0.930 . S
H857 C872 0.960 1_655 S
H858 C872 0.960 . S
H859 C872 0.960 . S
C860 H852 0.929 . S
C860 C861 1.377 . S
C860 C862 1.384 . S
C861 C860 1.377 . S
C861 C867 1.390 . S
C862 H853 0.930 . S
C862 C860 1.384 . S
C862 C863 1.372 . S
C863 C862 1.372 . S
C863 C864 1.400 . S
C863 C868 1.490 . S
C864 H854 0.930 . S
C864 C863 1.400 . S
C864 C867 1.386 . S
H865 C881 0.930 . S
H866 C882 0.931 . S
C867 H855 0.929 . S
C867 C861 1.390 . S
C867 C864 1.386 . S
C868 C863 1.490 . S
C868 C870 1.395 1_454 S
C868 C871 1.403 1_455 S
H869 C875 0.930 . S
C870 H856 0.930 . S
C870 C868 1.395 1_656 S
C870 C873 1.403 . S
C871 C868 1.403 1_655 S
C871 C872 1.524 1_655 S
C871 C875 1.400 . S
C872 H857 0.960 1_455 S
C872 H858 0.960 . S
C872 H859 0.960 . S
C872 C871 1.524 1_455 S
C873 C870 1.403 . S
C873 C874 1.392 1_556 S
C873 C877 1.495 . S
C874 C873 1.392 1_554 S
C874 C875 1.385 . S
C874 C876 1.478 . S
C875 H869 0.930 . S
C875 C871 1.400 . S
C875 C874 1.385 . S
C876 C874 1.478 . S
C876 C878 1.381 . S
C876 C882 1.383 . S
C877 C873 1.495 . S
C877 H883 0.959 . S
C877 H884 0.961 . S
C877 H885 0.960 . S
C878 C876 1.381 . S
C878 C879 1.394 . S
C878 H886 0.930 . S
C879 C878 1.394 . S
C879 C880 1.383 . S
C879 H887 0.929 . S
C880 C879 1.383 . S
C880 C881 1.377 . S
C881 H865 0.930 . S
C881 C880 1.377 . S
C881 C882 1.379 . S
C882 H866 0.931 . S
C882 C876 1.383 . S
C882 C881 1.379 . S
H883 C877 0.959 . S
H884 C877 0.961 . S
H885 C877 0.960 . S
H886 C878 0.930 . S
H887 C879 0.929 . S
H888 C896 0.929 . S
H889 C898 0.930 . S
H890 C900 0.930 . S
H891 C903 0.929 . S
H892 C906 0.930 . S
H893 C908 0.960 . S
H894 C908 0.960 . S
H895 C908 0.960 . S
C896 H888 0.929 . S
C896 C897 1.377 . S
C896 C898 1.384 . S
C897 C896 1.377 . S
C897 C903 1.390 . S
C898 H889 0.930 . S
C898 C896 1.384 . S
C898 C899 1.372 . S
C899 C898 1.372 . S
C899 C900 1.400 . S
C899 C904 1.490 . S
C900 H890 0.930 . S
C900 C899 1.400 . S
C900 C903 1.386 . S
H901 C917 0.930 . S
H902 C918 0.931 . S
C903 H891 0.929 . S
C903 C897 1.390 . S
C903 C900 1.386 . S
C904 C899 1.490 . S
C904 C906 1.395 . S
C904 C907 1.403 . S
H905 C911 0.930 . S
C906 H892 0.930 . S
C906 C904 1.395 . S
C906 C909 1.403 . S
C907 C904 1.403 . S
C907 C908 1.524 . S
C907 C911 1.400 . S
C908 H893 0.960 . S
C908 H894 0.960 . S
C908 H895 0.960 . S
C908 C907 1.524 . S
C909 C906 1.403 . S
C909 C910 1.392 1_455 S
C909 C913 1.495 1_455 S
C910 C909 1.392 1_655 S
C910 C911 1.385 1_655 S
C910 C912 1.478 . S
C911 H905 0.930 . S
C911 C907 1.400 . S
C911 C910 1.385 1_455 S
C912 C910 1.478 . S
C912 C914 1.381 . S
C912 C918 1.383 . S
C913 C909 1.495 1_655 S
C913 H919 0.959 1_655 S
C913 H920 0.961 . S
C913 H921 0.960 . S
C914 C912 1.381 . S
C914 C915 1.394 . S
C914 H922 0.930 . S
C915 C914 1.394 . S
C915 C916 1.383 . S
C915 H923 0.929 . S
C916 C915 1.383 . S
C916 C917 1.377 . S
C917 H901 0.930 . S
C917 C916 1.377 . S
C917 C918 1.379 . S
C918 H902 0.931 . S
C918 C912 1.383 . S
C918 C917 1.379 . S
H919 C913 0.959 1_455 S
H920 C913 0.961 . S
H921 C913 0.960 . S
H922 C914 0.930 . S
H923 C915 0.929 . S
H924 C932 0.929 . S
H925 C934 0.930 . S
H926 C936 0.930 . S
H927 C939 0.929 . S
H928 C942 0.930 . S
H929 C944 0.960 . S
H930 C944 0.960 . S
H931 C944 0.960 . S
C932 H924 0.929 . S
C932 C933 1.377 . S
C932 C934 1.384 . S
C933 C932 1.377 . S
C933 C939 1.390 . S
C934 H925 0.930 . S
C934 C932 1.384 . S
C934 C935 1.372 . S
C935 C934 1.372 . S
C935 C936 1.400 . S
C935 C940 1.490 . S
C936 H926 0.930 . S
C936 C935 1.400 . S
C936 C939 1.386 . S
H937 C953 0.930 . S
H938 C954 0.931 . S
C939 H927 0.929 . S
C939 C933 1.390 . S
C939 C936 1.386 . S
C940 C935 1.490 . S
C940 C942 1.395 . S
C940 C943 1.403 . S
H941 C947 0.930 . S
C942 H928 0.930 . S
C942 C940 1.395 . S
C942 C945 1.403 . S
C943 C940 1.403 . S
C943 C944 1.524 . S
C943 C947 1.400 . S
C944 H929 0.960 . S
C944 H930 0.960 . S
C944 H931 0.960 . S
C944 C943 1.524 . S
C945 C942 1.403 . S
C945 C946 1.392 1_655 S
C945 C949 1.495 1_655 S
C946 C945 1.392 1_455 S
C946 C947 1.385 1_455 S
C946 C948 1.478 . S
C947 H941 0.930 . S
C947 C943 1.400 . S
C947 C946 1.385 1_655 S
C948 C946 1.478 . S
C948 C950 1.381 . S
C948 C954 1.383 . S
C949 C945 1.495 1_455 S
C949 H955 0.959 1_455 S
C949 H956 0.961 . S
C949 H957 0.960 . S
C950 C948 1.381 . S
C950 C951 1.394 . S
C950 H958 0.930 . S
C951 C950 1.394 . S
C951 C952 1.383 . S
C951 H959 0.929 . S
C952 C951 1.383 . S
C952 C953 1.377 . S
C953 H937 0.930 . S
C953 C952 1.377 . S
C953 C954 1.379 . S
C954 H938 0.931 . S
C954 C948 1.383 . S
C954 C953 1.379 . S
H955 C949 0.959 1_655 S
H956 C949 0.961 . S
H957 C949 0.960 . S
H958 C950 0.930 . S
H959 C951 0.929 . S
H960 C968 0.929 1_556 S
H961 C970 0.934 1_556 S
H962 C972 0.930 . S
H963 C975 0.929 . S
H964 C978 0.930 . S
H965 C980 0.960 . S
H966 C980 0.960 . S
H967 C980 0.960 . S
C968 H960 0.929 1_554 S
C968 C969 1.377 . S
C968 C970 1.384 . S
C969 C968 1.377 . S
C969 C975 1.390 1_455 S
C970 H961 0.934 1_554 S
C970 C968 1.384 . S
C970 C971 1.372 . S
C971 C970 1.372 . S
C971 C972 1.400 1_455 S
C971 C976 1.490 . S
C972 H962 0.930 . S
C972 C971 1.400 1_655 S
C972 C975 1.386 . S
H973 C989 0.930 . S
H974 C990 0.931 . S
C975 H963 0.929 . S
C975 C969 1.390 1_655 S
C975 C972 1.386 . S
C976 C971 1.490 . S
C976 C978 1.395 . S
C976 C979 1.403 1_454 S
H977 C983 0.930 . S
C978 H964 0.930 . S
C978 C976 1.395 . S
C978 C981 1.403 . S
C979 C976 1.403 1_656 S
C979 C980 1.524 . S
C979 C983 1.400 . S
C980 H965 0.960 . S
C980 H966 0.960 . S
C980 H967 0.960 . S
C980 C979 1.524 . S
C981 C978 1.403 . S
C981 C982 1.392 1_455 S
C981 C985 1.495 . S
C982 C981 1.392 1_655 S
C982 C983 1.385 1_554 S
C982 C984 1.478 . S
C983 H977 0.930 . S
C983 C979 1.400 . S
C983 C982 1.385 1_556 S
C984 C982 1.478 . S
C984 C986 1.381 1_655 S
C984 C990 1.383 . S
C985 C981 1.495 . S
C985 H991 0.959 . S
C985 H992 0.961 . S
C985 H993 0.960 . S
C986 C984 1.381 1_455 S
C986 C987 1.394 . S
C986 H994 0.918 1_554 S
C987 C986 1.394 . S
C987 C988 1.383 1_455 S
C987 H995 0.929 1_554 S
C988 C987 1.383 1_655 S
C988 C989 1.377 . S
C989 H973 0.930 . S
C989 C988 1.377 . S
C989 C990 1.379 . S
C990 H974 0.931 . S
C990 C984 1.383 . S
C990 C989 1.379 . S
H991 C985 0.959 . S
H992 C985 0.961 . S
H993 C985 0.960 . S
H994 C986 0.918 1_556 S
H995 C987 0.929 1_556 S
H996 C1004 0.929 1_655 S
H997 C1006 0.930 . S
H998 C1008 0.930 . S
H999 C1011 0.929 . S
H1000 C1014 0.930 . S
H1001 C1016 0.960 . S
H1002 C1016 0.960 . S
H1003 C1016 0.960 . S
C1004 H996 0.929 1_455 S
C1004 C1005 1.377 . S
C1004 C1006 1.384 1_455 S
C1005 C1004 1.377 . S
C1005 C1011 1.390 . S
C1006 H997 0.930 . S
C1006 C1004 1.384 1_655 S
C1006 C1007 1.372 1_655 S
C1007 C1006 1.372 1_455 S
C1007 C1008 1.400 . S
C1007 C1012 1.490 . S
C1008 H998 0.930 . S
C1008 C1007 1.400 . S
C1008 C1011 1.386 . S
H1009 C1025 0.930 1_455 S
H1010 C1026 0.931 1_455 S
C1011 H999 0.929 . S
C1011 C1005 1.390 . S
C1011 C1008 1.386 . S
C1012 C1007 1.490 . S
C1012 C1014 1.395 1_455 S
C1012 C1015 1.403 . S
H1013 C1019 0.930 . S
C1014 H1000 0.930 . S
C1014 C1012 1.395 1_655 S
C1014 C1017 1.403 . S
C1015 C1012 1.403 . S
C1015 C1016 1.524 . S
C1015 C1019 1.400 . S
C1016 H1001 0.960 . S
C1016 H1002 0.960 . S
C1016 H1003 0.960 . S
C1016 C1015 1.524 . S
C1017 C1014 1.403 . S
C1017 C1018 1.392 . S
C1017 C1021 1.495 . S
C1018 C1017 1.392 . S
C1018 C1019 1.385 1_655 S
C1018 C1020 1.478 . S
C1019 H1013 0.930 . S
C1019 C1015 1.400 . S
C1019 C1018 1.385 1_455 S
C1020 C1018 1.478 . S
C1020 C1022 1.381 . S
C1020 C1026 1.383 . S
C1021 C1017 1.495 . S
C1021 H1027 0.959 . S
C1021 H1028 0.961 . S
C1021 H1029 0.960 . S
C1022 C1020 1.381 . S
C1022 C1023 1.394 . S
C1022 H1030 0.930 . S
C1023 C1022 1.394 . S
C1023 C1024 1.383 . S
C1023 H1031 0.929 . S
C1024 C1023 1.383 . S
C1024 C1025 1.377 . S
C1025 H1009 0.930 1_655 S
C1025 C1024 1.377 . S
C1025 C1026 1.379 . S
C1026 H1010 0.931 1_655 S
C1026 C1020 1.383 . S
C1026 C1025 1.379 . S
H1027 C1021 0.959 . S
H1028 C1021 0.961 . S
H1029 C1021 0.960 . S
H1030 C1022 0.930 . S
H1031 C1023 0.929 . S
H1032 C1040 0.929 . S
H1033 C1042 0.930 . S
H1034 C1044 0.930 . S
H1035 C1047 0.929 . S
H1036 C1050 0.930 . S
H1037 C1052 0.960 . S
H1038 C1052 0.960 1_556 S
H1039 C1052 0.960 . S
C1040 H1032 0.929 . S
C1040 C1041 1.377 1_556 S
C1040 C1042 1.384 . S
C1041 C1040 1.377 1_554 S
C1041 C1047 1.390 . S
C1042 H1033 0.930 . S
C1042 C1040 1.384 . S
C1042 C1043 1.372 1_556 S
C1043 C1042 1.372 1_554 S
C1043 C1044 1.400 . S
C1043 C1048 1.490 . S
C1044 H1034 0.930 . S
C1044 C1043 1.400 . S
C1044 C1047 1.386 . S
H1045 C1061 0.930 . S
H1046 C1062 0.931 . S
C1047 H1035 0.929 . S
C1047 C1041 1.390 . S
C1047 C1044 1.386 . S
C1048 C1043 1.490 . S
C1048 C1050 1.395 . S
C1048 C1051 1.403 . S
H1049 C1055 0.930 . S
C1050 H1036 0.930 . S
C1050 C1048 1.395 . S
C1050 C1053 1.403 1_565 S
C1051 C1048 1.403 . S
C1051 C1052 1.524 . S
C1051 C1055 1.400 1_565 S
C1052 H1037 0.960 . S
C1052 H1038 0.960 1_554 S
C1052 H1039 0.960 . S
C1052 C1051 1.524 . S
C1053 C1050 1.403 1_545 S
C1053 C1054 1.392 . S
C1053 C1057 1.495 1_554 S
C1054 C1053 1.392 . S
C1054 C1055 1.385 . S
C1054 C1056 1.478 . S
C1055 H1049 0.930 . S
C1055 C1051 1.400 1_545 S
C1055 C1054 1.385 . S
C1056 C1054 1.478 . S
C1056 C1058 1.381 1_554 S
C1056 C1062 1.383 . S
C1057 C1053 1.495 1_556 S
C1057 H1063 0.959 . S
C1057 H1064 0.961 1_556 S
C1057 H1065 0.960 . S
C1058 C1056 1.381 1_556 S
C1058 C1059 1.394 . S
C1058 H1066 0.930 . S
C1059 C1058 1.394 . S
C1059 C1060 1.383 1_556 S
C1059 H1067 0.929 . S
C1060 C1059 1.383 1_554 S
C1060 C1061 1.377 . S
C1061 H1045 0.930 . S
C1061 C1060 1.377 . S
C1061 C1062 1.379 . S
C1062 H1046 0.931 . S
C1062 C1056 1.383 . S
C1062 C1061 1.379 . S
H1063 C1057 0.959 . S
H1064 C1057 0.961 1_554 S
H1065 C1057 0.960 . S
H1066 C1058 0.930 . S
H1067 C1059 0.929 . S
H1068 C1076 0.929 . S
H1069 C1078 0.930 . S
H1070 C1080 0.930 . S
H1071 C1083 0.929 . S
H1072 C1086 0.930 . S
H1073 C1088 0.960 1_565 S
H1074 C1088 0.960 . S
H1075 C1088 0.960 . S
C1076 H1068 0.929 . S
C1076 C1077 1.377 . S
C1076 C1078 1.384 . S
C1077 C1076 1.377 . S
C1077 C1083 1.390 . S
C1078 H1069 0.930 . S
C1078 C1076 1.384 . S
C1078 C1079 1.372 . S
C1079 C1078 1.372 . S
C1079 C1080 1.400 . S
C1079 C1084 1.490 . S
C1080 H1070 0.930 . S
C1080 C1079 1.400 . S
C1080 C1083 1.386 . S
H1081 C1097 0.930 . S
H1082 C1098 0.931 . S
C1083 H1071 0.929 . S
C1083 C1077 1.390 . S
C1083 C1080 1.386 . S
C1084 C1079 1.490 . S
C1084 C1086 1.395 . S
C1084 C1087 1.403 . S
H1085 C1091 0.930 . S
C1086 H1072 0.930 . S
C1086 C1084 1.395 . S
C1086 C1089 1.403 1_545 S
C1087 C1084 1.403 . S
C1087 C1088 1.524 . S
C1087 C1091 1.400 1_545 S
C1088 H1073 0.960 1_545 S
C1088 H1074 0.960 . S
C1088 H1075 0.960 . S
C1088 C1087 1.524 . S
C1089 C1086 1.403 1_565 S
C1089 C1090 1.392 . S
C1089 C1093 1.495 . S
C1090 C1089 1.392 . S
C1090 C1091 1.385 . S
C1090 C1092 1.478 . S
C1091 H1085 0.930 . S
C1091 C1087 1.400 1_565 S
C1091 C1090 1.385 . S
C1092 C1090 1.478 . S
C1092 C1094 1.381 . S
C1092 C1098 1.383 . S
C1093 C1089 1.495 . S
C1093 H1099 0.959 1_565 S
C1093 H1100 0.961 . S
C1093 H1101 0.960 . S
C1094 C1092 1.381 . S
C1094 C1095 1.394 . S
C1094 H1102 0.930 . S
C1095 C1094 1.394 . S
C1095 C1096 1.383 . S
C1095 H1103 0.929 . S
C1096 C1095 1.383 . S
C1096 C1097 1.377 . S
C1097 H1081 0.930 . S
C1097 C1096 1.377 . S
C1097 C1098 1.379 . S
C1098 H1082 0.931 . S
C1098 C1092 1.383 . S
C1098 C1097 1.379 . S
H1099 C1093 0.959 1_545 S
H1100 C1093 0.961 . S
H1101 C1093 0.960 . S
H1102 C1094 0.930 . S
H1103 C1095 0.929 . S
H1104 C1112 0.929 . S
H1105 C1114 0.930 . S
H1106 C1116 0.930 . S
H1107 C1119 0.929 . S
H1108 C1122 0.930 . S
H1109 C1124 0.960 . S
H1110 C1124 0.960 . S
H1111 C1124 0.960 . S
C1112 H1104 0.929 . S
C1112 C1113 1.377 . S
C1112 C1114 1.384 . S
C1113 C1112 1.377 . S
C1113 C1119 1.390 1_554 S
C1114 H1105 0.930 . S
C1114 C1112 1.384 . S
C1114 C1115 1.372 . S
C1115 C1114 1.372 . S
C1115 C1116 1.400 1_554 S
C1115 C1120 1.490 . S
C1116 H1106 0.930 . S
C1116 C1115 1.400 1_556 S
C1116 C1119 1.386 . S
H1117 C1133 0.930 . S
H1118 C1134 0.931 . S
C1119 H1107 0.929 . S
C1119 C1113 1.390 1_556 S
C1119 C1116 1.386 . S
C1120 C1115 1.490 . S
C1120 C1122 1.395 1_554 S
C1120 C1123 1.403 . S
H1121 C1127 0.930 . S
C1122 H1108 0.930 . S
C1122 C1120 1.395 1_556 S
C1122 C1125 1.403 . S
C1123 C1120 1.403 . S
C1123 C1124 1.524 . S
C1123 C1127 1.400 . S
C1124 H1109 0.960 . S
C1124 H1110 0.960 . S
C1124 H1111 0.960 . S
C1124 C1123 1.524 . S
C1125 C1122 1.403 . S
C1125 C1126 1.392 1_556 S
C1125 C1129 1.495 . S
C1126 C1125 1.392 1_554 S
C1126 C1127 1.385 . S
C1126 C1128 1.478 . S
C1127 H1121 0.930 . S
C1127 C1123 1.400 . S
C1127 C1126 1.385 . S
C1128 C1126 1.478 . S
C1128 C1130 1.381 . S
C1128 C1134 1.383 1_554 S
C1129 C1125 1.495 . S
C1129 H1135 0.959 . S
C1129 H1136 0.961 . S
C1129 H1137 0.960 . S
C1130 C1128 1.381 . S
C1130 C1131 1.394 . S
C1130 H1138 0.930 . S
C1131 C1130 1.394 . S
C1131 C1132 1.383 . S
C1131 H1139 0.929 . S
C1132 C1131 1.383 . S
C1132 C1133 1.377 1_554 S
C1133 H1117 0.930 . S
C1133 C1132 1.377 1_556 S
C1133 C1134 1.379 . S
C1134 H1118 0.931 . S
C1134 C1128 1.383 1_556 S
C1134 C1133 1.379 . S
H1135 C1129 0.959 . S
H1136 C1129 0.961 . S
H1137 C1129 0.960 . S
H1138 C1130 0.930 . S
H1139 C1131 0.929 . S
H1140 C1148 0.929 . S
H1141 C1150 0.930 . S
H1142 C1152 0.930 . S
H1143 C1155 0.929 . S
H1144 C1158 0.930 . S
H1145 C1160 0.960 . S
H1146 C1160 0.960 . S
H1147 C1160 0.960 . S
C1148 H1140 0.929 . S
C1148 C1149 1.377 1_556 S
C1148 C1150 1.384 . S
C1149 C1148 1.377 1_554 S
C1149 C1155 1.390 . S
C1150 H1141 0.930 . S
C1150 C1148 1.384 . S
C1150 C1151 1.372 1_556 S
C1151 C1150 1.372 1_554 S
C1151 C1152 1.400 . S
C1151 C1156 1.490 . S
C1152 H1142 0.930 . S
C1152 C1151 1.400 . S
C1152 C1155 1.386 . S
H1153 C1169 0.930 . S
H1154 C1170 0.931 . S
C1155 H1143 0.929 . S
C1155 C1149 1.390 . S
C1155 C1152 1.386 . S
C1156 C1151 1.490 . S
C1156 C1158 1.395 1_554 S
C1156 C1159 1.403 . S
H1157 C1163 0.930 . S
C1158 H1144 0.930 . S
C1158 C1156 1.395 1_556 S
C1158 C1161 1.403 . S
C1159 C1156 1.403 . S
C1159 C1160 1.524 . S
C1159 C1163 1.400 . S
C1160 H1145 0.960 . S
C1160 H1146 0.960 . S
C1160 H1147 0.960 . S
C1160 C1159 1.524 . S
C1161 C1158 1.403 . S
C1161 C1162 1.392 1_556 S
C1161 C1165 1.495 . S
C1162 C1161 1.392 1_554 S
C1162 C1163 1.385 . S
C1162 C1164 1.478 . S
C1163 H1157 0.930 . S
C1163 C1159 1.400 . S
C1163 C1162 1.385 . S
C1164 C1162 1.478 . S
C1164 C1166 1.381 1_554 S
C1164 C1170 1.383 . S
C1165 C1161 1.495 . S
C1165 H1171 0.959 . S
C1165 H1172 0.961 . S
C1165 H1173 0.960 . S
C1166 C1164 1.381 1_556 S
C1166 C1167 1.394 . S
C1166 H1174 0.930 . S
C1167 C1166 1.394 . S
C1167 C1168 1.383 1_556 S
C1167 H1175 0.929 . S
C1168 C1167 1.383 1_554 S
C1168 C1169 1.377 . S
C1169 H1153 0.930 . S
C1169 C1168 1.377 . S
C1169 C1170 1.379 . S
C1170 H1154 0.931 . S
C1170 C1164 1.383 . S
C1170 C1169 1.379 . S
H1171 C1165 0.959 . S
H1172 C1165 0.961 . S
H1173 C1165 0.960 . S
H1174 C1166 0.930 . S
H1175 C1167 0.929 . S
H1176 C1184 0.929 . S
H1177 C1186 0.930 . S
H1178 C1188 0.930 . S
H1179 C1191 0.929 . S
H1180 C1194 0.930 . S
H1181 C1196 0.960 . S
H1182 C1196 0.960 . S
H1183 C1196 0.960 . S
C1184 H1176 0.929 . S
C1184 C1185 1.377 . S
C1184 C1186 1.384 . S
C1185 C1184 1.377 . S
C1185 C1191 1.390 . S
C1186 H1177 0.930 . S
C1186 C1184 1.384 . S
C1186 C1187 1.372 . S
C1187 C1186 1.372 . S
C1187 C1188 1.400 . S
C1187 C1192 1.490 . S
C1188 H1178 0.930 . S
C1188 C1187 1.400 . S
C1188 C1191 1.386 . S
H1189 C1205 0.930 . S
H1190 C1206 0.931 . S
C1191 H1179 0.929 . S
C1191 C1185 1.390 . S
C1191 C1188 1.386 . S
C1192 C1187 1.490 . S
C1192 C1194 1.395 . S
C1192 C1195 1.403 . S
H1193 C1199 0.930 . S
C1194 H1180 0.930 . S
C1194 C1192 1.395 . S
C1194 C1197 1.403 . S
C1195 C1192 1.403 . S
C1195 C1196 1.524 . S
C1195 C1199 1.400 . S
C1196 H1181 0.960 . S
C1196 H1182 0.960 . S
C1196 H1183 0.960 . S
C1196 C1195 1.524 . S
C1197 C1194 1.403 . S
C1197 C1198 1.392 . S
C1197 C1201 1.495 . S
C1198 C1197 1.392 . S
C1198 C1199 1.385 . S
C1198 C1200 1.478 . S
C1199 H1193 0.930 . S
C1199 C1195 1.400 . S
C1199 C1198 1.385 . S
C1200 C1198 1.478 . S
C1200 C1202 1.381 . S
C1200 C1206 1.383 . S
C1201 C1197 1.495 . S
C1201 H1207 0.959 . S
C1201 H1208 0.961 . S
C1201 H1209 0.960 . S
C1202 C1200 1.381 . S
C1202 C1203 1.394 . S
C1202 H1210 0.930 . S
C1203 C1202 1.394 . S
C1203 C1204 1.383 . S
C1203 H1211 0.929 . S
C1204 C1203 1.383 . S
C1204 C1205 1.377 . S
C1205 H1189 0.930 . S
C1205 C1204 1.377 . S
C1205 C1206 1.379 . S
C1206 H1190 0.931 . S
C1206 C1200 1.383 . S
C1206 C1205 1.379 . S
H1207 C1201 0.959 . S
H1208 C1201 0.961 . S
H1209 C1201 0.960 . S
H1210 C1202 0.930 . S
H1211 C1203 0.929 . S
H1212 C1220 0.929 . S
H1213 C1222 0.930 . S
H1214 C1224 0.930 . S
H1215 C1227 0.929 . S
H1216 C1230 0.930 . S
H1217 C1232 0.960 . S
H1218 C1232 0.960 . S
H1219 C1232 0.960 . S
C1220 H1212 0.929 . S
C1220 C1221 1.377 . S
C1220 C1222 1.384 . S
C1221 C1220 1.377 . S
C1221 C1227 1.390 . S
C1222 H1213 0.930 . S
C1222 C1220 1.384 . S
C1222 C1223 1.372 . S
C1223 C1222 1.372 . S
C1223 C1224 1.400 . S
C1223 C1228 1.490 . S
C1224 H1214 0.930 . S
C1224 C1223 1.400 . S
C1224 C1227 1.386 . S
H1225 C1241 0.930 . S
H1226 C1242 0.931 . S
C1227 H1215 0.929 . S
C1227 C1221 1.390 . S
C1227 C1224 1.386 . S
C1228 C1223 1.490 . S
C1228 C1230 1.395 . S
C1228 C1231 1.403 . S
H1229 C1235 0.930 . S
C1230 H1216 0.930 . S
C1230 C1228 1.395 . S
C1230 C1233 1.403 . S
C1231 C1228 1.403 . S
C1231 C1232 1.524 . S
C1231 C1235 1.400 . S
C1232 H1217 0.960 . S
C1232 H1218 0.960 . S
C1232 H1219 0.960 . S
C1232 C1231 1.524 . S
C1233 C1230 1.403 . S
C1233 C1234 1.392 . S
C1233 C1237 1.495 . S
C1234 C1233 1.392 . S
C1234 C1235 1.385 . S
C1234 C1236 1.478 . S
C1235 H1229 0.930 . S
C1235 C1231 1.400 . S
C1235 C1234 1.385 . S
C1236 C1234 1.478 . S
C1236 C1238 1.381 . S
C1236 C1242 1.383 . S
C1237 C1233 1.495 . S
C1237 H1243 0.959 . S
C1237 H1244 0.961 . S
C1237 H1245 0.960 . S
C1238 C1236 1.381 . S
C1238 C1239 1.394 . S
C1238 H1246 0.930 . S
C1239 C1238 1.394 . S
C1239 C1240 1.383 . S
C1239 H1247 0.929 . S
C1240 C1239 1.383 . S
C1240 C1241 1.377 . S
C1241 H1225 0.930 . S
C1241 C1240 1.377 . S
C1241 C1242 1.379 . S
C1242 H1226 0.931 . S
C1242 C1236 1.383 . S
C1242 C1241 1.379 . S
H1243 C1237 0.959 . S
H1244 C1237 0.961 . S
H1245 C1237 0.960 . S
H1246 C1238 0.930 . S
H1247 C1239 0.929 . S
H1248 C1256 0.929 1_655 S
H1249 C1258 0.930 . S
H1250 C1260 0.930 . S
H1251 C1263 0.929 . S
H1252 C1266 0.930 . S
H1253 C1268 0.960 . S
H1254 C1268 0.960 . S
H1255 C1268 0.960 . S
C1256 H1248 0.929 1_455 S
C1256 C1257 1.377 . S
C1256 C1258 1.384 1_455 S
C1257 C1256 1.377 . S
C1257 C1263 1.390 . S
C1258 H1249 0.930 . S
C1258 C1256 1.384 1_655 S
C1258 C1259 1.372 1_655 S
C1259 C1258 1.372 1_455 S
C1259 C1260 1.400 . S
C1259 C1264 1.490 . S
C1260 H1250 0.930 . S
C1260 C1259 1.400 . S
C1260 C1263 1.386 . S
H1261 C1277 0.930 . S
H1262 C1278 0.931 . S
C1263 H1251 0.929 . S
C1263 C1257 1.390 . S
C1263 C1260 1.386 . S
C1264 C1259 1.490 . S
C1264 C1266 1.395 1_455 S
C1264 C1267 1.403 . S
H1265 C1271 0.930 . S
C1266 H1252 0.930 . S
C1266 C1264 1.395 1_655 S
C1266 C1269 1.403 . S
C1267 C1264 1.403 . S
C1267 C1268 1.524 . S
C1267 C1271 1.400 . S
C1268 H1253 0.960 . S
C1268 H1254 0.960 . S
C1268 H1255 0.960 . S
C1268 C1267 1.524 . S
C1269 C1266 1.403 . S
C1269 C1270 1.392 . S
C1269 C1273 1.495 . S
C1270 C1269 1.392 . S
C1270 C1271 1.385 1_655 S
C1270 C1272 1.478 . S
C1271 H1265 0.930 . S
C1271 C1267 1.400 . S
C1271 C1270 1.385 1_455 S
C1272 C1270 1.478 . S
C1272 C1274 1.381 . S
C1272 C1278 1.383 1_655 S
C1273 C1269 1.495 . S
C1273 H1279 0.959 . S
C1273 H1280 0.961 . S
C1273 H1281 0.960 . S
C1274 C1272 1.381 . S
C1274 C1275 1.394 . S
C1274 H1282 0.930 . S
C1275 C1274 1.394 . S
C1275 C1276 1.383 . S
C1275 H1283 0.929 . S
C1276 C1275 1.383 . S
C1276 C1277 1.377 1_655 S
C1277 H1261 0.930 . S
C1277 C1276 1.377 1_455 S
C1277 C1278 1.379 . S
C1278 H1262 0.931 . S
C1278 C1272 1.383 1_455 S
C1278 C1277 1.379 . S
H1279 C1273 0.959 . S
H1280 C1273 0.961 . S
H1281 C1273 0.960 . S
H1282 C1274 0.930 . S
H1283 C1275 0.929 . S
H1284 C1292 0.929 . S
H1285 C1294 0.930 . S
H1286 C1296 0.930 . S
H1287 C1299 0.929 . S
H1288 C1302 0.930 . S
H1289 C1304 0.960 . S
H1290 C1304 0.960 . S
H1291 C1304 0.960 . S
C1292 H1284 0.929 . S
C1292 C1293 1.377 . S
C1292 C1294 1.384 . S
C1293 C1292 1.377 . S
C1293 C1299 1.390 1_655 S
C1294 H1285 0.930 . S
C1294 C1292 1.384 . S
C1294 C1295 1.372 . S
C1295 C1294 1.372 . S
C1295 C1296 1.400 1_655 S
C1295 C1300 1.490 1_655 S
C1296 H1286 0.930 . S
C1296 C1295 1.400 1_455 S
C1296 C1299 1.386 . S
H1297 C1313 0.930 . S
H1298 C1314 0.931 . S
C1299 H1287 0.929 . S
C1299 C1293 1.390 1_455 S
C1299 C1296 1.386 . S
C1300 C1295 1.490 1_455 S
C1300 C1302 1.395 1_455 S
C1300 C1303 1.403 . S
H1301 C1307 0.930 . S
C1302 H1288 0.930 . S
C1302 C1300 1.395 1_655 S
C1302 C1305 1.403 . S
C1303 C1300 1.403 . S
C1303 C1304 1.524 . S
C1303 C1307 1.400 . S
C1304 H1289 0.960 . S
C1304 H1290 0.960 . S
C1304 H1291 0.960 . S
C1304 C1303 1.524 . S
C1305 C1302 1.403 . S
C1305 C1306 1.392 1_655 S
C1305 C1309 1.495 . S
C1306 C1305 1.392 1_455 S
C1306 C1307 1.385 . S
C1306 C1308 1.478 . S
C1307 H1301 0.930 . S
C1307 C1303 1.400 . S
C1307 C1306 1.385 . S
C1308 C1306 1.478 . S
C1308 C1310 1.381 1_455 S
C1308 C1314 1.383 . S
C1309 C1305 1.495 . S
C1309 H1315 0.959 . S
C1309 H1316 0.961 1_655 S
C1309 H1317 0.960 . S
C1310 C1308 1.381 1_655 S
C1310 C1311 1.394 1_655 S
C1310 H1318 0.930 . S
C1311 C1310 1.394 1_455 S
C1311 C1312 1.383 . S
C1311 H1319 0.929 1_455 S
C1312 C1311 1.383 . S
C1312 C1313 1.377 . S
C1313 H1297 0.930 . S
C1313 C1312 1.377 . S
C1313 C1314 1.379 . S
C1314 H1298 0.931 . S
C1314 C1308 1.383 . S
C1314 C1313 1.379 . S
H1315 C1309 0.959 . S
H1316 C1309 0.961 1_455 S
H1317 C1309 0.960 . S
H1318 C1310 0.930 . S
H1319 C1311 0.929 1_655 S
H1320 C1328 0.929 1_455 S
H1321 C1330 0.931 1_455 S
H1322 C1332 0.930 . S
H1323 C1335 0.929 . S
H1324 C1338 0.930 . S
H1325 C1340 0.960 . S
H1326 C1340 0.960 1_455 S
H1327 C1340 0.960 . S
C1328 H1320 0.929 1_655 S
C1328 C1329 1.377 . S
C1328 C1330 1.383 . S
C1329 C1328 1.377 . S
C1329 C1335 1.390 . S
C1330 H1321 0.931 1_655 S
C1330 C1328 1.383 . S
C1330 C1331 1.371 . S
C1331 C1330 1.371 . S
C1331 C1332 1.400 . S
C1331 C1336 1.490 . S
C1332 H1322 0.930 . S
C1332 C1331 1.400 . S
C1332 C1335 1.386 . S
H1333 C1349 0.930 . S
H1334 C1350 0.931 . S
C1335 H1323 0.929 . S
C1335 C1329 1.390 . S
C1335 C1332 1.386 . S
C1336 C1331 1.490 . S
C1336 C1338 1.395 . S
C1336 C1339 1.403 . S
H1337 C1343 0.930 . S
C1338 H1324 0.930 . S
C1338 C1336 1.395 . S
C1338 C1341 1.403 . S
C1339 C1336 1.403 . S
C1339 C1340 1.524 . S
C1339 C1343 1.400 . S
C1340 H1325 0.960 . S
C1340 H1326 0.960 1_655 S
C1340 H1327 0.960 . S
C1340 C1339 1.524 . S
C1341 C1338 1.403 . S
C1341 C1342 1.392 . S
C1341 C1345 1.495 . S
C1342 C1341 1.392 . S
C1342 C1343 1.385 . S
C1342 C1344 1.478 1_655 S
C1343 H1337 0.930 . S
C1343 C1339 1.400 . S
C1343 C1342 1.385 . S
C1344 C1342 1.478 1_455 S
C1344 C1346 1.381 . S
C1344 C1350 1.383 1_455 S
C1345 C1341 1.495 . S
C1345 H1351 0.959 . S
C1345 H1352 0.961 . S
C1345 H1353 0.960 1_655 S
C1346 C1344 1.381 . S
C1346 C1347 1.394 . S
C1346 H1354 0.930 . S
C1347 C1346 1.394 . S
C1347 C1348 1.383 . S
C1347 H1355 0.929 . S
C1348 C1347 1.383 . S
C1348 C1349 1.377 1_455 S
C1349 H1333 0.930 . S
C1349 C1348 1.377 1_655 S
C1349 C1350 1.379 . S
C1350 H1334 0.931 . S
C1350 C1344 1.383 1_655 S
C1350 C1349 1.379 . S
H1351 C1345 0.959 . S
H1352 C1345 0.961 . S
H1353 C1345 0.960 1_455 S
H1354 C1346 0.930 . S
H1355 C1347 0.929 . S
H1356 C1364 0.929 1_455 S
H1357 C1366 0.930 1_455 S
H1358 C1368 0.930 . S
H1359 C1371 0.929 . S
H1360 C1374 0.930 . S
H1361 C1376 0.960 . S
H1362 C1376 0.960 . S
H1363 C1376 0.960 . S
C1364 H1356 0.929 1_655 S
C1364 C1365 1.377 . S
C1364 C1366 1.384 . S
C1365 C1364 1.377 . S
C1365 C1371 1.390 . S
C1366 H1357 0.930 1_655 S
C1366 C1364 1.384 . S
C1366 C1367 1.372 . S
C1367 C1366 1.372 . S
C1367 C1368 1.400 . S
C1367 C1372 1.490 . S
C1368 H1358 0.930 . S
C1368 C1367 1.400 . S
C1368 C1371 1.386 . S
H1369 C1385 0.930 . S
H1370 C1386 0.931 . S
C1371 H1359 0.929 . S
C1371 C1365 1.390 . S
C1371 C1368 1.386 . S
C1372 C1367 1.490 . S
C1372 C1374 1.395 1_655 S
C1372 C1375 1.403 . S
H1373 C1379 0.930 . S
C1374 H1360 0.930 . S
C1374 C1372 1.395 1_455 S
C1374 C1377 1.403 . S
C1375 C1372 1.403 . S
C1375 C1376 1.524 . S
C1375 C1379 1.400 . S
C1376 H1361 0.960 . S
C1376 H1362 0.960 . S
C1376 H1363 0.960 . S
C1376 C1375 1.524 . S
C1377 C1374 1.403 . S
C1377 C1378 1.392 . S
C1377 C1381 1.495 . S
C1378 C1377 1.392 . S
C1378 C1379 1.385 1_455 S
C1378 C1380 1.478 . S
C1379 H1373 0.930 . S
C1379 C1375 1.400 . S
C1379 C1378 1.385 1_655 S
C1380 C1378 1.478 . S
C1380 C1382 1.381 . S
C1380 C1386 1.383 1_455 S
C1381 C1377 1.495 . S
C1381 H1387 0.959 . S
C1381 H1388 0.961 . S
C1381 H1389 0.960 . S
C1382 C1380 1.381 . S
C1382 C1383 1.394 . S
C1382 H1390 0.930 . S
C1383 C1382 1.394 . S
C1383 C1384 1.383 . S
C1383 H1391 0.929 . S
C1384 C1383 1.383 . S
C1384 C1385 1.377 1_455 S
C1385 H1369 0.930 . S
C1385 C1384 1.377 1_655 S
C1385 C1386 1.379 . S
C1386 H1370 0.931 . S
C1386 C1380 1.383 1_655 S
C1386 C1385 1.379 . S
H1387 C1381 0.959 . S
H1388 C1381 0.961 . S
H1389 C1381 0.960 . S
H1390 C1382 0.930 . S
H1391 C1383 0.929 . S
H1392 C1400 0.929 . S
H1393 C1402 0.930 . S
H1394 C1404 0.930 . S
H1395 C1407 0.929 . S
H1396 C1410 0.930 . S
H1397 C1412 0.960 . S
H1398 C1412 0.960 . S
H1399 C1412 0.960 . S
C1400 H1392 0.929 . S
C1400 C1401 1.377 . S
C1400 C1402 1.384 . S
C1401 C1400 1.377 . S
C1401 C1407 1.390 . S
C1402 H1393 0.930 . S
C1402 C1400 1.384 . S
C1402 C1403 1.372 . S
C1403 C1402 1.372 . S
C1403 C1404 1.400 . S
C1403 C1408 1.490 . S
C1404 H1394 0.930 . S
C1404 C1403 1.400 . S
C1404 C1407 1.386 . S
H1405 C1421 0.930 . S
H1406 C1422 0.931 . S
C1407 H1395 0.929 . S
C1407 C1401 1.390 . S
C1407 C1404 1.386 . S
C1408 C1403 1.490 . S
C1408 C1410 1.395 . S
C1408 C1411 1.403 . S
H1409 C1415 0.930 . S
C1410 H1396 0.930 . S
C1410 C1408 1.395 . S
C1410 C1413 1.403 . S
C1411 C1408 1.403 . S
C1411 C1412 1.524 . S
C1411 C1415 1.400 . S
C1412 H1397 0.960 . S
C1412 H1398 0.960 . S
C1412 H1399 0.960 . S
C1412 C1411 1.524 . S
C1413 C1410 1.403 . S
C1413 C1414 1.392 . S
C1413 C1417 1.495 . S
C1414 C1413 1.392 . S
C1414 C1415 1.385 . S
C1414 C1416 1.478 . S
C1415 H1409 0.930 . S
C1415 C1411 1.400 . S
C1415 C1414 1.385 . S
C1416 C1414 1.478 . S
C1416 C1418 1.381 . S
C1416 C1422 1.383 . S
C1417 C1413 1.495 . S
C1417 H1423 0.959 . S
C1417 H1424 0.961 . S
C1417 H1425 0.960 . S
C1418 C1416 1.381 . S
C1418 C1419 1.394 . S
C1418 H1426 0.930 . S
C1419 C1418 1.394 . S
C1419 C1420 1.383 . S
C1419 H1427 0.929 . S
C1420 C1419 1.383 . S
C1420 C1421 1.377 . S
C1421 H1405 0.930 . S
C1421 C1420 1.377 . S
C1421 C1422 1.379 . S
C1422 H1406 0.931 . S
C1422 C1416 1.383 . S
C1422 C1421 1.379 . S
H1423 C1417 0.959 . S
H1424 C1417 0.961 . S
H1425 C1417 0.960 . S
H1426 C1418 0.930 . S
H1427 C1419 0.929 . S
H1428 C1436 0.929 . S
H1429 C1438 0.930 . S
H1430 C1440 0.930 . S
H1431 C1443 0.929 . S
H1432 C1446 0.930 . S
H1433 C1448 0.960 . S
H1434 C1448 0.960 . S
H1435 C1448 0.960 . S
C1436 H1428 0.929 . S
C1436 C1437 1.377 . S
C1436 C1438 1.384 . S
C1437 C1436 1.377 . S
C1437 C1443 1.390 . S
C1438 H1429 0.930 . S
C1438 C1436 1.384 . S
C1438 C1439 1.372 . S
C1439 C1438 1.372 . S
C1439 C1440 1.400 . S
C1439 C1444 1.490 . S
C1440 H1430 0.930 . S
C1440 C1439 1.400 . S
C1440 C1443 1.386 . S
H1441 C1457 0.930 . S
H1442 C1458 0.931 . S
C1443 H1431 0.929 . S
C1443 C1437 1.390 . S
C1443 C1440 1.386 . S
C1444 C1439 1.490 . S
C1444 C1446 1.395 . S
C1444 C1447 1.403 . S
H1445 C1451 0.930 . S
C1446 H1432 0.930 . S
C1446 C1444 1.395 . S
C1446 C1449 1.403 . S
C1447 C1444 1.403 . S
C1447 C1448 1.524 . S
C1447 C1451 1.400 . S
C1448 H1433 0.960 . S
C1448 H1434 0.960 . S
C1448 H1435 0.960 . S
C1448 C1447 1.524 . S
C1449 C1446 1.403 . S
C1449 C1450 1.392 . S
C1449 C1453 1.495 . S
C1450 C1449 1.392 . S
C1450 C1451 1.385 . S
C1450 C1452 1.478 . S
C1451 H1445 0.930 . S
C1451 C1447 1.400 . S
C1451 C1450 1.385 . S
C1452 C1450 1.478 . S
C1452 C1454 1.381 . S
C1452 C1458 1.383 . S
C1453 C1449 1.495 . S
C1453 H1459 0.959 . S
C1453 H1460 0.961 . S
C1453 H1461 0.960 . S
C1454 C1452 1.381 . S
C1454 C1455 1.394 . S
C1454 H1462 0.930 . S
C1455 C1454 1.394 . S
C1455 C1456 1.383 . S
C1455 H1463 0.929 . S
C1456 C1455 1.383 . S
C1456 C1457 1.377 . S
C1457 H1441 0.930 . S
C1457 C1456 1.377 . S
C1457 C1458 1.379 . S
C1458 H1442 0.931 . S
C1458 C1452 1.383 . S
C1458 C1457 1.379 . S
H1459 C1453 0.959 . S
H1460 C1453 0.961 . S
H1461 C1453 0.960 . S
H1462 C1454 0.930 . S
H1463 C1455 0.929 . S
H1464 C1472 0.929 . S
H1465 C1474 0.930 . S
H1466 C1476 0.930 . S
H1467 C1479 0.929 . S
H1468 C1482 0.930 . S
H1469 C1484 0.960 . S
H1470 C1484 0.960 . S
H1471 C1484 0.960 . S
C1472 H1464 0.929 . S
C1472 C1473 1.377 . S
C1472 C1474 1.384 . S
C1473 C1472 1.377 . S
C1473 C1479 1.390 . S
C1474 H1465 0.930 . S
C1474 C1472 1.384 . S
C1474 C1475 1.372 . S
C1475 C1474 1.372 . S
C1475 C1476 1.400 . S
C1475 C1480 1.490 . S
C1476 H1466 0.930 . S
C1476 C1475 1.400 . S
C1476 C1479 1.386 . S
H1477 C1493 0.930 . S
H1478 C1494 0.931 . S
C1479 H1467 0.929 . S
C1479 C1473 1.390 . S
C1479 C1476 1.386 . S
C1480 C1475 1.490 . S
C1480 C1482 1.395 . S
C1480 C1483 1.403 . S
H1481 C1487 0.930 . S
C1482 H1468 0.930 . S
C1482 C1480 1.395 . S
C1482 C1485 1.403 . S
C1483 C1480 1.403 . S
C1483 C1484 1.524 . S
C1483 C1487 1.400 . S
C1484 H1469 0.960 . S
C1484 H1470 0.960 . S
C1484 H1471 0.960 . S
C1484 C1483 1.524 . S
C1485 C1482 1.403 . S
C1485 C1486 1.392 . S
C1485 C1489 1.495 . S
C1486 C1485 1.392 . S
C1486 C1487 1.385 . S
C1486 C1488 1.478 . S
C1487 H1481 0.930 . S
C1487 C1483 1.400 . S
C1487 C1486 1.385 . S
C1488 C1486 1.478 . S
C1488 C1490 1.381 . S
C1488 C1494 1.383 . S
C1489 C1485 1.495 . S
C1489 H1495 0.959 . S
C1489 H1496 0.961 . S
C1489 H1497 0.960 . S
C1490 C1488 1.381 . S
C1490 C1491 1.394 . S
C1490 H1498 0.930 . S
C1491 C1490 1.394 . S
C1491 C1492 1.383 . S
C1491 H1499 0.929 . S
C1492 C1491 1.383 . S
C1492 C1493 1.377 . S
C1493 H1477 0.930 . S
C1493 C1492 1.377 . S
C1493 C1494 1.379 . S
C1494 H1478 0.931 . S
C1494 C1488 1.383 . S
C1494 C1493 1.379 . S
H1495 C1489 0.959 . S
H1496 C1489 0.961 . S
H1497 C1489 0.960 . S
H1498 C1490 0.930 . S
H1499 C1491 0.929 . S
H1500 C1508 0.929 . S
H1501 C1510 0.930 . S
H1502 C1512 0.930 . S
H1503 C1515 0.929 . S
H1504 C1518 0.930 . S
H1505 C1520 0.960 . S
H1506 C1520 0.960 . S
H1507 C1520 0.960 . S
C1508 H1500 0.929 . S
C1508 C1509 1.377 . S
C1508 C1510 1.384 . S
C1509 C1508 1.377 . S
C1509 C1515 1.390 . S
C1510 H1501 0.930 . S
C1510 C1508 1.384 . S
C1510 C1511 1.372 . S
C1511 C1510 1.372 . S
C1511 C1512 1.400 . S
C1511 C1516 1.490 . S
C1512 H1502 0.930 . S
C1512 C1511 1.400 . S
C1512 C1515 1.386 . S
H1513 C1529 0.930 . S
H1514 C1530 0.931 . S
C1515 H1503 0.929 . S
C1515 C1509 1.390 . S
C1515 C1512 1.386 . S
C1516 C1511 1.490 . S
C1516 C1518 1.395 . S
C1516 C1519 1.403 . S
H1517 C1523 0.930 . S
C1518 H1504 0.930 . S
C1518 C1516 1.395 . S
C1518 C1521 1.403 . S
C1519 C1516 1.403 . S
C1519 C1520 1.524 . S
C1519 C1523 1.400 . S
C1520 H1505 0.960 . S
C1520 H1506 0.960 . S
C1520 H1507 0.960 . S
C1520 C1519 1.524 . S
C1521 C1518 1.403 . S
C1521 C1522 1.392 . S
C1521 C1525 1.495 . S
C1522 C1521 1.392 . S
C1522 C1523 1.385 . S
C1522 C1524 1.478 . S
C1523 H1517 0.930 . S
C1523 C1519 1.400 . S
C1523 C1522 1.385 . S
C1524 C1522 1.478 . S
C1524 C1526 1.381 . S
C1524 C1530 1.383 . S
C1525 C1521 1.495 . S
C1525 H1531 0.959 . S
C1525 H1532 0.961 . S
C1525 H1533 0.960 . S
C1526 C1524 1.381 . S
C1526 C1527 1.394 . S
C1526 H1534 0.930 . S
C1527 C1526 1.394 . S
C1527 C1528 1.383 . S
C1527 H1535 0.929 . S
C1528 C1527 1.383 . S
C1528 C1529 1.377 . S
C1529 H1513 0.930 . S
C1529 C1528 1.377 . S
C1529 C1530 1.379 . S
C1530 H1514 0.931 . S
C1530 C1524 1.383 . S
C1530 C1529 1.379 . S
H1531 C1525 0.959 . S
H1532 C1525 0.961 . S
H1533 C1525 0.960 . S
H1534 C1526 0.930 . S
H1535 C1527 0.929 . S
C681 C56 2.094 . S
C700 C67 2.086 . S
C717 C140 2.094 . S
C736 C151 2.101 . S
C753 C235 2.095 . S
C772 C224 2.098 . S
C789 C319 2.089 . S
C808 C308 2.069 . S
C825 C392 2.094 . S
C844 C403 2.085 . S
C861 C487 2.087 . S
C880 C476 2.074 . S
C897 C571 2.089 . S
C916 C560 2.096 . S
C933 C644 2.095 . S
C952 C655 2.096 . S
C969 C147 1.721 1_554 S
C988 C72 1.681 . S
C1005 C315 1.732 . S
C1024 C240 1.760 . S
C1041 C408 1.729 . S
C1060 C483 1.696 1_554 S
C1077 C576 1.721 . S
C1096 C651 1.680 . S
C1113 C63 1.396 1_554 S
C1132 C492 1.427 . S
C1149 C399 1.380 1_554 S
C1168 C156 1.393 . S
C1185 C231 1.379 . S
C1204 C660 1.356 . S
C1221 C324 1.384 . S
C1240 C567 1.410 . S
C1257 C75 1.519 . S
C1276 C327 1.577 . S
C1293 C159 1.591 . S
C1312 C243 1.502 . S
C1329 C150 1.516 . S
C1348 C234 1.597 . S
C1365 C318 1.522 . S
C1384 C66 1.582 . S
C1401 C411 1.521 . S
C1420 C663 1.605 . S
C1437 C495 1.591 . S
C1456 C579 1.501 . S
C1473 C486 1.528 . S
C1492 C570 1.577 . S
C1509 C654 1.522 . S
C1528 C402 1.599 . S
