# Generated by pormake.
# Topology ilc, (8)-cn, num edge types: 1
# Building blocks:
#     Node 0, Type 0, BuildingBlock: NUHRAL_clean_sbu_3, # of connection points: 8
#     Node 1, Type 0, BuildingBlock: NUHRAL_clean_sbu_3, # of connection points: 8
#     Node 2, Type 0, BuildingBlock: NUHRAL_clean_sbu_3, # of connection points: 8
#     Edge 3, Type (0, 0), BuildingBlock: FUNLAD_clean_linker_1, # of connection points: 2
#     Edge 4, Type (0, 0), BuildingBlock: FUNLAD_clean_linker_1, # of connection points: 2
#     Edge 5, Type (0, 0), BuildingBlock: FUNLAD_clean_linker_1, # of connection points: 2
#     Edge 6, Type (0, 0), BuildingBlock: FUNLAD_clean_linker_1, # of connection points: 2
#     Edge 7, Type (0, 0), BuildingBlock: FUNLAD_clean_linker_1, # of connection points: 2
#     Edge 8, Type (0, 0), BuildingBlock: FUNLAD_clean_linker_1, # of connection points: 2
#     Edge 9, Type (0, 0), BuildingBlock: FUNLAD_clean_linker_1, # of connection points: 2
#     Edge 10, Type (0, 0), BuildingBlock: FUNLAD_clean_linker_1, # of connection points: 2
#     Edge 11, Type (0, 0), BuildingBlock: FUNLAD_clean_linker_1, # of connection points: 2
#     Edge 12, Type (0, 0), BuildingBlock: FUNLAD_clean_linker_1, # of connection points: 2
#     Edge 13, Type (0, 0), BuildingBlock: FUNLAD_clean_linker_1, # of connection points: 2
#     Edge 14, Type (0, 0), BuildingBlock: FUNLAD_clean_linker_1, # of connection points: 2
# Relax obj value: 0.160
# Max RMSD: 0.202
# Mean RMSD: 0.202
data_MOF--net-ilc--node1-NUHRAL_clean_sbu_3--edge1-FUNLAD_clean_linker_1
_symmetry_space_group_name_H-M    P1
_symmetry_Int_Tables_number       1
_symmetry_cell_setting            triclinic
loop_
_symmetry_equiv_pos_as_xyz
'x, y, z'
_cell_length_a     22.510998
_cell_length_b     31.955229
_cell_length_c     19.838787
_cell_angle_alpha  100.95265
_cell_angle_beta   76.256017
_cell_angle_gamma 141.21443
loop_
_atom_site_label
_atom_site_type_symbol
_atom_site_fract_x
_atom_site_fract_y
_atom_site_fract_z
_atom_type_partial_charge
C0 C 0.21018 0.04572 0.17875 0.0
C1 C 0.24684 0.10019 0.22133 0.0
C2 C 0.28122 0.11332 0.28163 0.0
C3 C 0.28883 0.07632 0.29512 0.0
C4 C 0.25269 0.02149 0.25308 0.0
C5 C 0.21425 1.00675 0.19394 0.0
O6 O 0.96252 0.99478 0.07576 0.0
Tb7 Tb 0.11086 0.07075 0.09686 0.0
O8 O 0.15337 0.14648 0.17357 0.0
O9 O 0.85549 0.88932 0.02932 0.0
Eu10 Eu 0.91294 0.93006 0.92055 0.0
O11 O 0.20412 0.06855 0.07666 0.0
C12 C 0.82933 0.94701 0.88455 0.0
O13 O 0.07324 1.00091 0.15116 0.0
O14 O 0.05064 0.02012 0.96131 0.0
O15 O 0.18624 0.11757 0.99395 0.0
C16 C 0.15491 0.02494 0.12597 0.0
C17 C 0.86865 0.81852 0.82836 0.0
O18 O 0.78246 0.77978 0.8636 0.0
C19 C 0.89738 0.92988 0.08304 0.0
C20 C 0.13734 0.07937 0.94226 0.0
O21 O 0.93701 0.88335 0.83902 0.0
C22 C 0.80799 0.94387 0.81824 0.0
C23 C 0.75858 0.96576 0.74832 0.0
C24 C 0.76706 0.96079 0.81368 0.0
C25 C 0.8408 0.93236 0.75774 0.0
C26 C 0.83222 0.93695 0.69291 0.0
C27 C 0.78597 0.94945 0.68861 0.0
C28 C 0.09966 0.15177 0.19783 0.0
O29 O 1.01783 0.11089 0.17496 0.0
O30 O 0.78197 0.88969 0.90736 0.0
O31 O 0.92137 0.99631 0.88966 0.0
H32 H 0.23902 0.12789 0.21168 0.0
H33 H 0.31426 0.0862 0.34247 0.0
H34 H 0.18269 0.96309 0.16248 0.0
H35 H 0.74715 0.97373 0.86034 0.0
H36 H 0.87799 0.92365 0.76099 0.0
H37 H 0.77919 0.95211 0.63776 0.0
C38 C 0.78463 0.32693 0.50402 0.0
C39 C 0.82514 0.37571 0.55711 0.0
C40 C 0.84938 0.37304 0.61339 0.0
C41 C 0.82707 0.31888 0.6194 0.0
C42 C 0.78178 0.26749 0.56937 0.0
C43 C 0.76329 0.27284 0.51041 0.0
O44 O 0.54877 0.28902 0.44773 0.0
Tb45 Tb 0.70164 0.36274 0.41195 0.0
O46 O 0.72058 0.42739 0.4933 0.0
O47 O 0.48087 0.19779 0.37632 0.0
Eu48 Eu 0.56305 0.24965 0.27247 0.0
O49 O 0.82109 0.39636 0.42983 0.0
C50 C 0.51514 0.29087 0.22741 0.0
O51 O 0.68401 0.28916 0.42459 0.0
O52 O 0.72249 0.32614 0.24364 0.0
O53 O 0.7627 0.40968 0.31182 0.0
C54 C 0.77153 0.33552 0.4402 0.0
C55 C 0.55424 0.14664 0.21313 0.0
O56 O 0.59612 0.16844 0.26775 0.0
C57 C 0.48016 0.22413 0.43584 0.0
C58 C 0.78257 0.38997 0.25719 0.0
O59 O 0.5289 0.17004 0.20123 0.0
C60 C 0.55831 0.33515 0.17003 0.0
C61 C 0.55536 0.38668 0.0956 0.0
C62 C 0.51354 0.34587 0.15257 0.0
C63 C 0.64391 0.36451 0.12993 0.0
C64 C 0.68369 0.40243 0.07181 0.0
C65 C 0.64004 0.41394 0.05555 0.0
C66 C 0.80262 0.49111 0.50038 0.0
O67 O 0.88052 0.51951 0.4575 0.0
O68 O 0.48117 0.23422 0.20798 0.0
O69 O 0.56528 0.31984 0.27888 0.0
H70 H 0.84042 0.417 0.55402 0.0
H71 H 0.84436 0.31665 0.66403 0.0
H72 H 0.73228 0.23509 0.46985 0.0
H73 H 0.44672 0.32258 0.18299 0.0
H74 H 0.67744 0.35535 0.14234 0.0
H75 H 0.67173 0.44326 1.0103 0.0
C76 C 0.5411 0.70794 0.82136 0.0
C77 C 0.5504 0.73731 0.88706 0.0
C78 C 0.55894 0.7218 0.94278 0.0
C79 C 0.55644 0.67616 0.93355 0.0
C80 C 0.54189 0.64341 0.87008 0.0
C81 C 0.53644 0.66041 0.81307 0.0
O82 O 0.31583 0.68031 0.79621 0.0
Tb83 Tb 0.46023 0.75085 0.73903 0.0
O84 O 0.49439 0.82804 0.80762 0.0
O85 O 0.24406 0.58347 0.73742 0.0
Eu86 Eu 0.28874 0.62151 0.63071 0.0
O87 O 0.57933 0.78774 0.76543 0.0
C88 C 0.23011 0.66329 0.61292 0.0
O89 O 0.45594 0.68236 0.73694 0.0
O90 O 0.43982 0.6896 0.57663 0.0
O91 O 0.50209 0.7844 0.6334 0.0
C92 C 0.53789 0.72778 0.7617 0.0
C93 C 0.25013 0.5086 0.54704 0.0
O94 O 0.31807 0.53449 0.57936 0.0
C95 C 0.25158 0.61515 0.79443 0.0
C96 C 0.5041 0.75474 0.57863 0.0
O97 O 0.22302 0.53412 0.55765 0.0
C98 C 0.23715 0.6868 0.5509 0.0
C99 C 0.22397 0.74062 0.49429 0.0
C100 C 0.21923 0.72109 0.55549 0.0
C101 C 0.26079 0.67327 0.48545 0.0
C102 C 0.26092 0.68988 0.42516 0.0
C103 C 0.23987 0.72137 0.42995 0.0
C104 C 0.45404 0.84211 0.80225 0.0
O105 O 0.39952 0.81186 0.7538 0.0
O106 O 0.17635 0.60009 0.61049 0.0
O107 O 0.31098 0.70206 0.63609 0.0
H108 H 0.55177 0.77256 0.89493 0.0
H109 H 0.56244 0.66412 0.97717 0.0
H110 H 0.52793 0.63662 0.76311 0.0
H111 H 0.20338 0.73326 0.6058 0.0
H112 H 0.27666 0.64831 0.48149 0.0
H113 H 0.23918 0.73303 0.38243 0.0
H114 H 0.85884 0.92642 0.58128 0.0
C115 C 0.88822 0.94369 0.62919 0.0
H116 H 1.01464 1.01081 0.67369 0.0
H117 H 0.08762 1.00388 0.32213 0.0
H118 H 0.9886 0.88854 0.32988 0.0
H119 H 0.91907 0.83522 0.44362 0.0
H120 H 0.94863 0.89782 0.55054 0.0
C121 C 0.983 0.98926 0.62612 0.0
C122 C 0.04672 0.02598 0.56045 0.0
C123 C 0.03716 0.99088 0.49943 0.0
C124 C 0.08204 0.0228 0.43424 0.0
C125 C 0.06121 0.98396 0.37337 0.0
C126 C 1.00311 0.91713 0.37704 0.0
C127 C 0.96391 0.88714 0.44109 0.0
C128 C 0.98076 0.9234 0.50184 0.0
H129 H 0.32446 0.16846 0.37921 0.0
C130 C 0.28063 0.14903 0.34047 0.0
H131 H 0.15237 0.10622 0.32536 0.0
H132 H 0.07131 0.10654 0.66608 0.0
H133 H 0.17234 0.22239 0.65694 0.0
H134 H 0.27158 0.28243 0.54629 0.0
H135 H 0.26198 0.22438 0.44192 0.0
C136 C 0.19781 0.12582 0.36298 0.0
C137 C 0.14529 0.09198 0.43106 0.0
C138 C 0.15859 0.12798 0.49221 0.0
C139 C 0.10637 0.09438 0.55683 0.0
C140 C 0.11196 0.1297 0.6159 0.0
C141 C 0.16998 0.19649 0.61149 0.0
C142 C 0.22557 0.23025 0.54912 0.0
C143 C 0.21976 0.1965 0.48979 0.0
H144 H 0.85123 0.43299 0.69076 0.0
C145 C 0.88837 0.42281 0.67019 0.0
H146 H 0.99169 0.43529 0.68231 0.0
H147 H 0.89274 0.55629 0.93775 0.0
H148 H 0.97748 0.64442 0.85764 0.0
H149 H 0.05089 0.6495 0.7398 0.0
H150 H 0.04157 0.56728 0.70218 0.0
C151 C 0.95462 0.44529 0.70408 0.0
C152 C 0.95492 0.46446 0.77847 0.0
C153 C 0.96212 0.51294 0.79951 0.0
C154 C 0.91839 0.50917 0.86646 0.0
C155 C 0.92437 0.55712 0.88663 0.0
C156 C 0.97295 0.60776 0.84143 0.0
C157 C 1.01434 0.61066 0.77509 0.0
C158 C 1.00864 0.56352 0.75399 0.0
H159 H 0.82026 0.44028 0.05054 0.0
C160 C 0.76945 0.42793 0.02708 0.0
H161 H 0.72898 0.41657 0.93361 0.0
H162 H 0.96976 0.38566 0.76442 0.0
H163 H 0.90445 0.3081 0.84959 0.0
H164 H 0.8181 0.2959 0.96334 0.0
H165 H 0.79664 0.36079 0.99234 0.0
C166 C 0.78146 0.43107 0.95806 0.0
C167 C 0.86544 0.45583 0.91054 0.0
C168 C 0.8757 0.41637 0.89503 0.0
C169 C 0.92326 0.42214 0.82887 0.0
C170 C 0.93246 0.38215 0.81334 0.0
C171 C 0.89585 0.33778 0.86194 0.0
C172 C 0.84729 0.33094 0.92597 0.0
C173 C 0.83574 0.36884 0.94216 0.0
H174 H 0.60254 0.7554 0.04644 0.0
C175 C 0.56148 0.74702 0.01355 0.0
H176 H 0.44505 0.72404 1.01251 0.0
H177 H 0.24876 0.57344 0.29606 0.0
H178 H 0.1583 0.48047 0.21444 0.0
H179 H 0.20818 0.50018 0.08848 0.0
H180 H 0.34574 0.61251 0.04292 0.0
C181 C 0.4938 0.73956 0.04346 0.0
C182 C 0.46372 0.72907 0.1193 0.0
C183 C 0.38121 0.66283 0.14453 0.0
C184 C 0.35268 0.65138 0.21702 0.0
C185 C 0.27176 0.58482 0.24127 0.0
C186 C 0.21979 0.53106 0.19505 0.0
C187 C 0.24771 0.54215 0.12407 0.0
C188 C 0.32714 0.60705 0.09872 0.0
H189 H 0.25049 0.66616 0.31432 0.0
C190 C 0.28654 0.67798 0.35544 0.0
H191 H 0.40775 0.71387 0.3776 0.0
H192 H 0.63002 0.8611 0.08713 0.0
H193 H 0.72654 0.95311 0.16891 0.0
H194 H 0.67703 0.93324 0.29511 0.0
H195 H 0.53101 0.82154 0.34031 0.0
C196 C 0.36536 0.69598 0.33823 0.0
C197 C 0.40581 0.70616 0.26387 0.0
C198 C 0.49151 0.772 0.23871 0.0
C199 C 0.52038 0.78349 0.16608 0.0
C200 C 0.60545 0.84965 0.14191 0.0
C201 C 0.66121 0.90289 0.18826 0.0
C202 C 0.63323 0.89172 0.25931 0.0
C203 C 0.54909 0.82725 0.28457 0.0
H204 H 0.15602 0.7685 0.53056 0.0
C205 C 0.21263 0.78083 0.4946 0.0
H206 H 0.32675 0.8425 0.41268 0.0
H207 H 0.09077 0.84339 0.28769 0.0
H208 H 0.98861 0.7275 0.25891 0.0
H209 H 1.00318 0.67019 0.30629 0.0
H210 H 0.11892 0.72808 0.38351 0.0
C211 C 0.2668 0.82794 0.44558 0.0
C212 C 0.24598 0.85834 0.42748 0.0
C213 C 0.17807 0.82382 0.38193 0.0
C214 C 0.17137 0.85742 0.35299 0.0
C215 C 0.10115 0.82112 0.30931 0.0
C216 C 0.04156 0.75437 0.29267 0.0
C217 C 0.04968 0.72207 0.31942 0.0
C218 C 0.11677 0.75604 0.36362 0.0
H219 H 0.26224 0.95587 0.23543 0.0
C220 C 0.24769 0.97664 0.27484 0.0
H221 H 0.20749 0.98043 0.38142 0.0
H222 H 0.38282 0.93851 0.51261 0.0
H223 H 0.49258 0.05672 0.53573 0.0
H224 H 0.48595 0.11633 0.48195 0.0
H225 H 0.36927 0.05833 0.40552 0.0
C226 C 0.22515 0.9614 0.34228 0.0
C227 C 0.23397 0.92588 0.36849 0.0
C228 C 0.30246 0.96047 0.41343 0.0
C229 C 0.3078 0.92653 0.44333 0.0
C230 C 0.37685 0.96235 0.48793 0.0
C231 C 0.44002 0.03004 0.50172 0.0
C232 C 0.43626 0.0636 0.47146 0.0
C233 C 0.36846 0.02953 0.42789 0.0
H234 H 0.14682 0.43096 0.47421 0.0
C235 C 0.20517 0.45212 0.49751 0.0
H236 H 0.29281 0.44782 0.50292 0.0
H237 H 1.03212 0.15717 0.38509 0.0
H238 H 1.01666 0.14208 0.50612 0.0
H239 H 0.08244 0.23232 0.59156 0.0
H240 H 0.16229 0.33774 0.55744 0.0
C241 C 0.23619 0.42813 0.47857 0.0
C242 C 0.19283 0.37254 0.42665 0.0
C243 C 0.14773 0.31155 0.44727 0.0
C244 C 0.11105 0.25967 0.39761 0.0
C245 C 0.06337 0.1986 0.42033 0.0
C246 C 0.0532 0.1891 0.48968 0.0
C247 C 0.08994 0.23988 0.53791 0.0
C248 C 0.13642 0.30038 0.51741 0.0
H249 H 0.19675 0.23266 0.27189 0.0
C250 C 0.13199 0.20337 0.25116 0.0
H251 H 1.02216 0.18832 0.25225 0.0
H252 H 0.27878 0.4838 0.36714 0.0
H253 H 0.28165 0.49426 0.24905 0.0
H254 H 0.21316 0.40293 0.16406 0.0
H255 H 0.14053 0.29988 0.19786 0.0
C256 C 0.08506 0.2155 0.27417 0.0
C257 C 0.12039 0.26885 0.32701 0.0
C258 C 0.16186 0.3286 0.30684 0.0
C259 C 0.19952 0.38089 0.35626 0.0
C260 C 0.24488 0.44115 0.33326 0.0
C261 C 0.24812 0.44821 0.26499 0.0
C262 C 0.20963 0.3968 0.21724 0.0
C263 C 0.168 0.3379 0.2374 0.0
H264 H 0.59782 0.8393 0.50791 0.0
C265 C 0.57225 0.7942 0.51568 0.0
H266 H 0.57807 0.73125 0.47752 0.0
H267 H 0.67985 0.79654 0.16168 0.0
H268 H 0.53223 0.67813 0.16515 0.0
H269 H 0.44136 0.61814 0.27665 0.0
H270 H 0.49819 0.67766 0.38485 0.0
C271 C 0.60329 0.77603 0.46873 0.0
C272 C 0.66503 0.81191 0.4015 0.0
C273 C 0.63195 0.77592 0.33813 0.0
C274 C 0.68628 0.80993 0.27355 0.0
C275 C 0.64675 0.77327 0.21182 0.0
C276 C 0.56049 0.7048 0.2131 0.0
C277 C 0.50926 0.67125 0.27577 0.0
C278 C 0.54323 0.70625 0.3377 0.0
H279 H 0.84298 0.85839 0.15586 0.0
C280 C 0.86081 0.90078 0.15184 0.0
H281 H 0.84811 0.95849 0.2002 0.0
H282 H 0.75746 0.89452 0.51216 0.0
H283 H 0.91057 1.01296 0.50834 0.0
H284 H 1.00525 0.07121 0.39659 0.0
H285 H 0.94733 1.01201 0.28816 0.0
C286 C 0.83219 0.91711 0.20538 0.0
C287 C 0.7763 0.87959 0.27216 0.0
C288 C 0.81102 0.91495 0.33538 0.0
C289 C 0.75578 0.8812 0.39999 0.0
C290 C 0.79428 0.9178 0.46188 0.0
C291 C 0.8827 0.9858 0.46041 0.0
C292 C 0.93597 0.01868 0.39751 0.0
C293 C 0.90148 0.98397 0.33559 0.0
H294 H 0.76971 0.19115 0.53133 0.0
C295 C 0.76007 0.21095 0.57734 0.0
H296 H 0.72359 0.20556 0.68669 0.0
H297 H 0.58938 0.93575 0.67032 0.0
H298 H 0.44143 0.88146 0.64267 0.0
H299 H 0.42912 0.94791 0.62127 0.0
H300 H 0.56588 0.06939 0.62505 0.0
C301 C 0.73638 0.18772 0.64049 0.0
C302 C 0.74295 0.14684 0.65211 0.0
C303 C 0.66227 0.07611 0.6508 0.0
C304 C 0.66864 0.03773 0.66514 0.0
C305 C 0.58796 0.96723 0.66108 0.0
C306 C 0.50266 0.93547 0.64525 0.0
C307 C 0.49582 0.97291 0.63292 0.0
C308 C 0.57461 0.04246 0.63533 0.0
H309 H 0.68858 0.9916 0.78598 0.0
C310 C 0.73194 0.99528 0.74222 0.0
H311 H 0.81986 0.042 0.64583 0.0
H312 H 0.90924 0.28164 0.66405 0.0
H313 H 0.05316 0.33567 0.69927 0.0
H314 H 0.0624 0.26912 0.72775 0.0
H315 H 0.92787 0.14807 0.7204 0.0
C316 C 0.76858 0.03218 0.6868 0.0
C317 C 0.75514 0.07032 0.68231 0.0
C318 C 0.83437 0.14103 0.6867 0.0
C319 C 0.82854 0.17932 0.67122 0.0
C320 C 0.90919 0.24994 0.67577 0.0
C321 C 0.99242 0.28168 0.69593 0.0
C322 C 0.99761 0.24422 0.71195 0.0
C323 C 0.92 0.17477 0.70715 0.0
H324 H 0.73476 0.50461 0.58438 0.0
C325 C 0.8034 0.53009 0.55488 0.0
H326 H 0.95228 0.62171 0.53805 0.0
H327 H 0.89916 0.79237 0.6468 0.0
H328 H 0.97255 0.82806 0.52814 0.0
H329 H 0.99783 0.77278 0.44815 0.0
H330 H 0.95683 0.68447 0.4877 0.0
C331 C 0.88337 0.595 0.56819 0.0
C332 C 0.87773 0.63324 0.619 0.0
C333 C 0.90435 0.68599 0.5953 0.0
C334 C 0.88852 0.71749 0.64146 0.0
C335 C 0.91209 0.76798 0.61526 0.0
C336 C 0.95309 0.78843 0.54664 0.0
C337 C 0.96825 0.75769 0.50173 0.0
C338 C 0.94404 0.7069 0.52527 0.0
H339 H 0.96618 0.82332 0.75874 0.0
C340 C 0.89144 0.79019 0.77937 0.0
H341 H 0.749 0.692 0.78093 0.0
H342 H 0.83668 0.54348 0.6848 0.0
H343 H 0.77277 0.51246 0.8061 0.0
H344 H 0.74346 0.5659 0.88569 0.0
H345 H 0.77543 0.64941 0.84418 0.0
C346 C 0.82359 0.7257 0.75949 0.0
C347 C 0.84742 0.69688 0.7117 0.0
C348 C 0.82545 0.64652 0.73621 0.0
C349 C 0.84169 0.61528 0.69013 0.0
C350 C 0.82273 0.56718 0.7169 0.0
C351 C 0.78708 0.54947 0.78662 0.0
C352 C 0.7705 0.57951 0.83143 0.0
C353 C 0.78895 0.62728 0.80682 0.0
H354 H 0.3264 0.13288 0.47489 0.0
C355 C 0.39585 0.17955 0.49026 0.0
H356 H 0.47523 0.24295 0.57188 0.0
H357 H 0.18085 0.17291 0.81416 0.0
H358 H 0.28073 0.28577 0.78675 0.0
H359 H 0.39768 0.33999 0.67961 0.0
H360 H 0.41738 0.28282 0.60051 0.0
C361 C 0.4048 0.19607 0.5579 0.0
C362 C 0.32259 0.15762 0.61607 0.0
C363 C 0.31208 0.19185 0.66246 0.0
C364 C 0.24528 0.16078 0.72469 0.0
C365 C 0.23412 0.19549 0.76827 0.0
C366 C 0.29013 0.25999 0.75271 0.0
C367 C 0.35636 0.2907 0.69263 0.0
C368 C 0.36706 0.2572 0.64766 0.0
H369 H 0.25681 0.15285 0.86265 0.0
C370 C 0.18136 0.10379 0.87 0.0
H371 H 0.06185 0.01908 0.82016 0.0
H372 H 0.32033 0.07531 0.53888 0.0
H373 H 0.21239 0.96029 0.5622 0.0
H374 H 0.09346 0.90567 0.66794 0.0
H375 H 0.08255 0.96626 0.75091 0.0
C376 C 0.13631 0.06888 0.81382 0.0
C377 C 0.19054 0.09595 0.74196 0.0
C378 C 0.19407 0.05921 0.69238 0.0
C379 C 0.26123 0.09032 0.63001 0.0
C380 C 0.26789 0.05374 0.58474 0.0
C381 C 0.20695 0.98762 0.59802 0.0
C382 C 0.14005 0.95689 0.65764 0.0
C383 C 0.13436 0.99228 0.70484 0.0
H384 H 0.43112 0.36039 0.0895 0.0
C385 C 0.50807 0.39749 0.0749 0.0
H386 H 0.63504 0.48999 0.02443 0.0
H387 H 0.48655 0.48922 0.79939 0.0
H388 H 0.53156 0.44357 0.73158 0.0
H389 H 0.56094 0.39976 0.78863 0.0
H390 H 0.55198 0.40564 0.91403 0.0
C391 C 0.55772 0.45087 0.03709 0.0
C392 C 0.51335 0.45947 1.00613 0.0
C393 C 0.5161 0.45421 0.93303 0.0
C394 C 0.49721 0.4783 0.90005 0.0
C395 C 0.5019 0.47293 0.827 0.0
C396 C 0.52617 0.44583 0.78749 0.0
C397 C 0.54316 0.42145 0.81963 0.0
C398 C 0.53831 0.42546 0.89152 0.0
H399 H 0.59922 0.6088 0.84814 0.0
C400 C 0.53437 0.59264 0.86688 0.0
H401 H 0.39891 0.52417 0.92726 0.0
H402 H 0.49603 0.47329 0.1471 0.0
H403 H 0.45303 0.52008 0.21567 0.0
H404 H 0.41682 0.55964 0.15937 0.0
H405 H 0.42498 0.55424 0.03565 0.0
C406 C 0.4616 0.5378 0.907 0.0
C407 C 0.47423 0.50703 0.94032 0.0
C408 C 0.46549 0.50833 0.01405 0.0
C409 C 0.48575 0.485 0.04674 0.0
C410 C 0.48102 0.48998 0.11983 0.0
C411 C 0.4565 0.51676 0.15982 0.0
C412 C 0.43627 0.53914 0.12824 0.0
C413 C 0.44074 0.53528 0.05653 0.0
H414 H 0.43141 0.89887 0.83956 0.0
C415 C 0.46399 0.88841 0.85051 0.0
H416 H 0.53498 0.9027 0.92169 0.0
H417 H 0.60452 0.15114 1.00065 0.0
H418 H 0.69259 0.19181 0.88464 0.0
H419 H 0.70052 0.12762 0.80281 0.0
H420 H 0.6173 0.02087 0.83484 0.0
C421 C 0.50617 0.91516 0.90801 0.0
C422 C 0.50464 0.95603 0.95835 0.0
C423 C 0.55532 0.01928 0.93928 0.0
C424 C 0.5526 0.0573 0.98747 0.0
C425 C 0.60363 0.12 0.96646 0.0
C426 C 0.65521 0.14432 0.90015 0.0
C427 C 0.65925 0.10795 0.85382 0.0
C428 C 0.61058 0.04642 0.87292 0.0
H429 H 0.57044 0.08594 0.1764 0.0
C430 C 0.54236 0.09956 0.16461 0.0
H431 H 0.47627 0.08971 0.09287 0.0
H432 H 0.39549 0.83583 1.01124 0.0
H433 H 0.29991 0.79213 0.12497 0.0
H434 H 0.2938 0.85729 0.2077 0.0
H435 H 0.38349 0.96656 0.17727 0.0
C436 C 0.50204 0.07494 0.10641 0.0
C437 C 0.50083 0.03297 0.05543 0.0
C438 C 0.44827 0.969 0.07396 0.0
C439 C 0.45085 0.93092 0.02572 0.0
C440 C 0.39671 0.86704 0.04572 0.0
C441 C 0.34121 0.84121 0.11083 0.0
C442 C 0.33782 0.8779 0.15742 0.0
C443 C 0.39031 0.9409 0.13943 0.0
H444 H 0.1173 0.52225 0.84987 0.0
C445 C 0.18224 0.57545 0.85661 0.0
H446 H 0.26376 0.65551 0.9278 0.0
H447 H 0.90551 0.52384 0.15343 0.0
H448 H 0.9714 0.62548 0.12685 0.0
H449 H 0.10773 0.69947 0.03374 0.0
H450 H 0.17873 0.67186 0.96699 0.0
C451 C 0.19833 0.60237 0.92069 0.0
C452 C 0.12467 0.56172 0.98253 0.0
C453 C 0.08573 0.57962 0.02291 0.0
C454 C 1.00803 0.53735 0.07752 0.0
C455 C 0.96737 0.55501 0.11388 0.0
C456 C 1.00363 0.61305 0.09837 0.0
C457 C 0.08013 0.65458 0.04586 0.0
C458 C 0.12046 0.63811 1.00807 0.0
H459 H 0.93162 0.49084 0.22987 0.0
C460 C 0.87261 0.44073 0.20975 0.0
H461 H 0.82123 0.37693 0.12267 0.0
H462 H 0.19561 0.51988 0.92468 0.0
H463 H 0.12971 0.41751 0.95001 0.0
H464 H 0.99187 0.34215 0.0419 0.0
H465 H 0.91956 0.3689 0.10891 0.0
C466 C 0.88077 0.42725 0.14221 0.0
C467 C 0.97002 0.47727 0.09197 0.0
C468 C 1.01216 0.46118 0.05341 0.0
C469 C 0.0903 0.50384 0.99942 0.0
C470 C 0.13298 0.4876 0.9637 0.0
C471 C 0.09661 0.42932 0.97831 0.0
C472 C 1.01924 0.38702 0.03016 0.0
C473 C 0.978 0.40287 0.06797 0.0
loop_
_geom_bond_atom_site_label_1
_geom_bond_atom_site_label_2
_geom_bond_distance
_geom_bond_site_symmetry_2
_ccdc_geom_bond_type
C0 C1 1.387 . S
C0 C5 1.380 1_545 S
C0 C16 1.494 . S
C1 C0 1.387 . S
C1 C2 1.386 1_545 S
C1 H32 0.930 . S
C2 C1 1.386 1_565 S
C2 C3 1.397 . S
C3 C2 1.397 . S
C3 C4 1.393 . S
C3 H33 0.930 . S
C4 C3 1.393 . S
C4 C5 1.395 . S
C5 C0 1.380 1_565 S
C5 C4 1.395 . S
C5 H34 0.930 . S
O6 Tb7 2.295 1_655 S
O6 C19 1.242 1_545 S
Tb7 O6 2.295 1_455 S
Tb7 O8 2.312 . S
Tb7 O11 2.438 . S
Tb7 O13 2.472 . S
Tb7 O15 2.308 1_554 S
Tb7 C16 2.821 . S
O8 Tb7 2.312 . S
O8 C28 1.264 . S
O9 Eu10 2.308 1_554 S
O9 C19 1.243 . S
Eu10 O9 2.308 1_556 S
Eu10 C12 2.821 . S
Eu10 O14 2.295 1_655 S
Eu10 O21 2.312 . S
Eu10 O30 2.438 . S
Eu10 O31 2.472 . S
O11 Tb7 2.438 . S
O11 C16 1.263 . S
C12 Eu10 2.821 . S
C12 C22 1.494 . S
C12 O30 1.263 . S
C12 O31 1.264 . S
O13 Tb7 2.472 . S
O13 C16 1.264 . S
O14 Eu10 2.295 1_455 S
O14 C20 1.242 1_565 S
O15 Tb7 2.308 1_556 S
O15 C20 1.243 . S
C16 C0 1.494 . S
C16 Tb7 2.821 . S
C16 O11 1.263 . S
C16 O13 1.264 . S
C17 O18 1.260 . S
C17 O21 1.264 . S
O18 C17 1.260 . S
C19 O6 1.242 1_565 S
C19 O9 1.243 . S
C20 O14 1.242 1_545 S
C20 O15 1.243 . S
O21 Eu10 2.312 . S
O21 C17 1.264 . S
C22 C12 1.494 . S
C22 C24 1.380 1_565 S
C22 C25 1.387 . S
C23 C24 1.395 . S
C23 C27 1.393 . S
C24 C22 1.380 1_545 S
C24 C23 1.395 . S
C24 H35 0.930 . S
C25 C22 1.387 . S
C25 C26 1.386 1_565 S
C25 H36 0.930 . S
C26 C25 1.386 1_545 S
C26 C27 1.397 . S
C27 C23 1.393 . S
C27 C26 1.397 . S
C27 H37 0.930 . S
C28 O8 1.264 . S
C28 O29 1.260 . S
O29 C28 1.260 . S
O30 Eu10 2.438 . S
O30 C12 1.263 . S
O31 Eu10 2.472 . S
O31 C12 1.264 . S
H32 C1 0.930 . S
H33 C3 0.930 . S
H34 C5 0.930 . S
H35 C24 0.930 . S
H36 C25 0.930 . S
H37 C27 0.930 . S
C38 C39 1.387 . S
C38 C43 1.380 . S
C38 C54 1.494 . S
C39 C38 1.387 . S
C39 C40 1.386 . S
C39 H70 0.930 . S
C40 C39 1.386 . S
C40 C41 1.397 . S
C41 C40 1.397 . S
C41 C42 1.393 . S
C41 H71 0.930 . S
C42 C41 1.393 . S
C42 C43 1.395 . S
C43 C38 1.380 . S
C43 C42 1.395 . S
C43 H72 0.930 . S
O44 Tb45 2.295 . S
O44 C57 1.242 . S
Tb45 O44 2.295 . S
Tb45 O46 2.312 . S
Tb45 O49 2.438 . S
Tb45 O51 2.472 . S
Tb45 O53 2.308 . S
Tb45 C54 2.821 . S
O46 Tb45 2.312 . S
O46 C66 1.264 . S
O47 Eu48 2.308 . S
O47 C57 1.243 . S
Eu48 O47 2.308 . S
Eu48 C50 2.821 . S
Eu48 O52 2.295 . S
Eu48 O59 2.312 . S
Eu48 O68 2.438 . S
Eu48 O69 2.472 . S
O49 Tb45 2.438 . S
O49 C54 1.263 . S
C50 Eu48 2.821 . S
C50 C60 1.494 . S
C50 O68 1.263 . S
C50 O69 1.264 . S
O51 Tb45 2.472 . S
O51 C54 1.264 . S
O52 Eu48 2.295 . S
O52 C58 1.242 . S
O53 Tb45 2.308 . S
O53 C58 1.243 . S
C54 C38 1.494 . S
C54 Tb45 2.821 . S
C54 O49 1.263 . S
C54 O51 1.264 . S
C55 O56 1.260 . S
C55 O59 1.264 . S
O56 C55 1.260 . S
C57 O44 1.242 . S
C57 O47 1.243 . S
C58 O52 1.242 . S
C58 O53 1.243 . S
O59 Eu48 2.312 . S
O59 C55 1.264 . S
C60 C50 1.494 . S
C60 C62 1.380 . S
C60 C63 1.387 . S
C61 C62 1.395 . S
C61 C65 1.393 . S
C62 C60 1.380 . S
C62 C61 1.395 . S
C62 H73 0.930 . S
C63 C60 1.387 . S
C63 C64 1.386 . S
C63 H74 0.930 . S
C64 C63 1.386 . S
C64 C65 1.397 . S
C65 C61 1.393 . S
C65 C64 1.397 . S
C65 H75 0.930 . S
C66 O46 1.264 . S
C66 O67 1.260 . S
O67 C66 1.260 . S
O68 Eu48 2.438 . S
O68 C50 1.263 . S
O69 Eu48 2.472 . S
O69 C50 1.264 . S
H70 C39 0.930 . S
H71 C41 0.930 . S
H72 C43 0.930 . S
H73 C62 0.930 . S
H74 C63 0.930 . S
H75 C65 0.930 . S
C76 C77 1.387 . S
C76 C81 1.380 . S
C76 C92 1.494 . S
C77 C76 1.387 . S
C77 C78 1.386 . S
C77 H108 0.930 . S
C78 C77 1.386 . S
C78 C79 1.397 . S
C79 C78 1.397 . S
C79 C80 1.393 . S
C79 H109 0.930 . S
C80 C79 1.393 . S
C80 C81 1.395 . S
C81 C76 1.380 . S
C81 C80 1.395 . S
C81 H110 0.930 . S
O82 Tb83 2.295 . S
O82 C95 1.242 . S
Tb83 O82 2.295 . S
Tb83 O84 2.312 . S
Tb83 O87 2.438 . S
Tb83 O89 2.472 . S
Tb83 O91 2.308 . S
Tb83 C92 2.821 . S
O84 Tb83 2.312 . S
O84 C104 1.264 . S
O85 Eu86 2.308 . S
O85 C95 1.243 . S
Eu86 O85 2.308 . S
Eu86 C88 2.821 . S
Eu86 O90 2.295 . S
Eu86 O97 2.312 . S
Eu86 O106 2.438 . S
Eu86 O107 2.472 . S
O87 Tb83 2.438 . S
O87 C92 1.263 . S
C88 Eu86 2.821 . S
C88 C98 1.494 . S
C88 O106 1.263 . S
C88 O107 1.264 . S
O89 Tb83 2.472 . S
O89 C92 1.264 . S
O90 Eu86 2.295 . S
O90 C96 1.242 . S
O91 Tb83 2.308 . S
O91 C96 1.243 . S
C92 C76 1.494 . S
C92 Tb83 2.821 . S
C92 O87 1.263 . S
C92 O89 1.264 . S
C93 O94 1.260 . S
C93 O97 1.264 . S
O94 C93 1.260 . S
C95 O82 1.242 . S
C95 O85 1.243 . S
C96 O90 1.242 . S
C96 O91 1.243 . S
O97 Eu86 2.312 . S
O97 C93 1.264 . S
C98 C88 1.494 . S
C98 C100 1.380 . S
C98 C101 1.387 . S
C99 C100 1.395 . S
C99 C103 1.393 . S
C100 C98 1.380 . S
C100 C99 1.395 . S
C100 H111 0.930 . S
C101 C98 1.387 . S
C101 C102 1.386 . S
C101 H112 0.930 . S
C102 C101 1.386 . S
C102 C103 1.397 . S
C103 C99 1.393 . S
C103 C102 1.397 . S
C103 H113 0.930 . S
C104 O84 1.264 . S
C104 O105 1.260 . S
O105 C104 1.260 . S
O106 Eu86 2.438 . S
O106 C88 1.263 . S
O107 Eu86 2.472 . S
O107 C88 1.264 . S
H108 C77 0.930 . S
H109 C79 0.930 . S
H110 C81 0.930 . S
H111 C100 0.930 . S
H112 C101 0.930 . S
H113 C103 0.930 . S
H114 C115 0.951 . S
C115 H114 0.951 . S
C115 C121 1.265 1_545 S
H116 C121 0.950 . S
H117 C125 0.949 . S
H118 C126 0.950 . S
H119 C127 0.951 . S
H120 C128 0.951 . S
C121 C115 1.265 1_565 S
C121 H116 0.950 . S
C121 C122 1.478 . S
C122 C121 1.478 . S
C122 C123 1.397 . S
C122 C139 1.394 1_665 S
C123 C122 1.397 . S
C123 C124 1.438 . S
C123 C128 1.429 . S
C124 C123 1.438 . S
C124 C125 1.428 . S
C124 C137 1.394 1_665 S
C125 H117 0.949 . S
C125 C124 1.428 . S
C125 C126 1.345 . S
C126 H118 0.950 . S
C126 C125 1.345 . S
C126 C127 1.424 . S
C127 H119 0.951 . S
C127 C126 1.424 . S
C127 C128 1.347 . S
C128 H120 0.951 . S
C128 C123 1.429 . S
C128 C127 1.347 . S
H129 C130 0.951 . S
C130 H129 0.951 . S
C130 C136 1.265 1_565 S
H131 C136 0.950 . S
H132 C140 0.949 . S
H133 C141 0.950 . S
H134 C142 0.951 . S
H135 C143 0.951 . S
C136 C130 1.265 1_545 S
C136 H131 0.950 . S
C136 C137 1.478 . S
C137 C124 1.394 1_445 S
C137 C136 1.478 . S
C137 C138 1.397 . S
C138 C137 1.397 . S
C138 C139 1.438 . S
C138 C143 1.429 . S
C139 C122 1.394 1_445 S
C139 C138 1.438 . S
C139 C140 1.428 . S
C140 H132 0.949 . S
C140 C139 1.428 . S
C140 C141 1.345 . S
C141 H133 0.950 . S
C141 C140 1.345 . S
C141 C142 1.424 . S
C142 H134 0.951 . S
C142 C141 1.424 . S
C142 C143 1.347 . S
C143 H135 0.951 . S
C143 C138 1.429 . S
C143 C142 1.347 . S
H144 C145 0.951 . S
C145 H144 0.951 . S
C145 C151 1.265 . S
H146 C151 0.950 . S
H147 C155 0.949 . S
H148 C156 0.950 . S
H149 C157 0.951 . S
H150 C158 0.951 . S
C151 C145 1.265 . S
C151 H146 0.950 . S
C151 C152 1.478 . S
C152 C151 1.478 . S
C152 C153 1.397 . S
C152 C169 1.394 . S
C153 C152 1.397 . S
C153 C154 1.438 . S
C153 C158 1.429 . S
C154 C153 1.438 . S
C154 C155 1.428 . S
C154 C167 1.394 . S
C155 H147 0.949 . S
C155 C154 1.428 . S
C155 C156 1.345 . S
C156 H148 0.950 . S
C156 C155 1.345 . S
C156 C157 1.424 . S
C157 H149 0.951 . S
C157 C156 1.424 . S
C157 C158 1.347 . S
C158 H150 0.951 . S
C158 C153 1.429 . S
C158 C157 1.347 . S
H159 C160 0.951 . S
C160 H159 0.951 . S
C160 C166 1.265 1_554 S
H161 C166 0.950 . S
H162 C170 0.949 . S
H163 C171 0.950 . S
H164 C172 0.951 . S
H165 C173 0.951 . S
C166 C160 1.265 1_556 S
C166 H161 0.950 . S
C166 C167 1.478 . S
C167 C154 1.394 . S
C167 C166 1.478 . S
C167 C168 1.397 . S
C168 C167 1.397 . S
C168 C169 1.438 . S
C168 C173 1.429 . S
C169 C152 1.394 . S
C169 C168 1.438 . S
C169 C170 1.428 . S
C170 H162 0.949 . S
C170 C169 1.428 . S
C170 C171 1.345 . S
C171 H163 0.950 . S
C171 C170 1.345 . S
C171 C172 1.424 . S
C172 H164 0.951 . S
C172 C171 1.424 . S
C172 C173 1.347 . S
C173 H165 0.951 . S
C173 C168 1.429 . S
C173 C172 1.347 . S
H174 C175 0.951 1_554 S
C175 H174 0.951 1_556 S
C175 C181 1.265 1_556 S
H176 C181 0.950 1_556 S
H177 C185 0.949 . S
H178 C186 0.950 . S
H179 C187 0.951 . S
H180 C188 0.951 . S
C181 C175 1.265 1_554 S
C181 H176 0.950 1_554 S
C181 C182 1.478 . S
C182 C181 1.478 . S
C182 C183 1.397 . S
C182 C199 1.394 . S
C183 C182 1.397 . S
C183 C184 1.438 . S
C183 C188 1.429 . S
C184 C183 1.438 . S
C184 C185 1.428 . S
C184 C197 1.394 . S
C185 H177 0.949 . S
C185 C184 1.428 . S
C185 C186 1.345 . S
C186 H178 0.950 . S
C186 C185 1.345 . S
C186 C187 1.424 . S
C187 H179 0.951 . S
C187 C186 1.424 . S
C187 C188 1.347 . S
C188 H180 0.951 . S
C188 C183 1.429 . S
C188 C187 1.347 . S
H189 C190 0.951 . S
C190 H189 0.951 . S
C190 C196 1.265 . S
H191 C196 0.950 . S
H192 C200 0.949 . S
H193 C201 0.950 . S
H194 C202 0.951 . S
H195 C203 0.951 . S
C196 C190 1.265 . S
C196 H191 0.950 . S
C196 C197 1.478 . S
C197 C184 1.394 . S
C197 C196 1.478 . S
C197 C198 1.397 . S
C198 C197 1.397 . S
C198 C199 1.438 . S
C198 C203 1.429 . S
C199 C182 1.394 . S
C199 C198 1.438 . S
C199 C200 1.428 . S
C200 H192 0.949 . S
C200 C199 1.428 . S
C200 C201 1.345 . S
C201 H193 0.950 . S
C201 C200 1.345 . S
C201 C202 1.424 . S
C202 H194 0.951 . S
C202 C201 1.424 . S
C202 C203 1.347 . S
C203 H195 0.951 . S
C203 C198 1.429 . S
C203 C202 1.347 . S
H204 C205 0.951 . S
C205 H204 0.951 . S
C205 C211 1.265 . S
H206 C211 0.950 . S
H207 C215 0.949 . S
H208 C216 0.950 . S
H209 C217 0.951 . S
H210 C218 0.951 . S
C211 C205 1.265 . S
C211 H206 0.950 . S
C211 C212 1.478 . S
C212 C211 1.478 . S
C212 C213 1.397 . S
C212 C229 1.394 . S
C213 C212 1.397 . S
C213 C214 1.438 . S
C213 C218 1.429 . S
C214 C213 1.438 . S
C214 C215 1.428 . S
C214 C227 1.394 . S
C215 H207 0.949 . S
C215 C214 1.428 . S
C215 C216 1.345 . S
C216 H208 0.950 . S
C216 C215 1.345 . S
C216 C217 1.424 . S
C217 H209 0.951 . S
C217 C216 1.424 . S
C217 C218 1.347 . S
C218 H210 0.951 . S
C218 C213 1.429 . S
C218 C217 1.347 . S
H219 C220 0.951 . S
C220 H219 0.951 . S
C220 C226 1.265 . S
H221 C226 0.950 . S
H222 C230 0.949 . S
H223 C231 0.950 . S
H224 C232 0.951 1_545 S
H225 C233 0.951 . S
C226 C220 1.265 . S
C226 H221 0.950 . S
C226 C227 1.478 . S
C227 C214 1.394 . S
C227 C226 1.478 . S
C227 C228 1.397 . S
C228 C227 1.397 . S
C228 C229 1.438 . S
C228 C233 1.429 . S
C229 C212 1.394 . S
C229 C228 1.438 . S
C229 C230 1.428 . S
C230 H222 0.949 . S
C230 C229 1.428 . S
C230 C231 1.345 . S
C231 H223 0.950 . S
C231 C230 1.345 . S
C231 C232 1.424 . S
C232 H224 0.951 1_565 S
C232 C231 1.424 . S
C232 C233 1.347 . S
C233 H225 0.951 . S
C233 C228 1.429 . S
C233 C232 1.347 . S
H234 C235 0.951 . S
C235 H234 0.951 . S
C235 C241 1.265 . S
H236 C241 0.950 . S
H237 C245 0.949 . S
H238 C246 0.950 . S
H239 C247 0.951 . S
H240 C248 0.951 . S
C241 C235 1.265 . S
C241 H236 0.950 . S
C241 C242 1.478 . S
C242 C241 1.478 . S
C242 C243 1.397 . S
C242 C259 1.394 . S
C243 C242 1.397 . S
C243 C244 1.438 . S
C243 C248 1.429 . S
C244 C243 1.438 . S
C244 C245 1.428 . S
C244 C257 1.394 . S
C245 H237 0.949 . S
C245 C244 1.428 . S
C245 C246 1.345 . S
C246 H238 0.950 . S
C246 C245 1.345 . S
C246 C247 1.424 . S
C247 H239 0.951 . S
C247 C246 1.424 . S
C247 C248 1.347 . S
C248 H240 0.951 . S
C248 C243 1.429 . S
C248 C247 1.347 . S
H249 C250 0.951 . S
C250 H249 0.951 . S
C250 C256 1.265 . S
H251 C256 0.950 1_655 S
H252 C260 0.949 . S
H253 C261 0.950 . S
H254 C262 0.951 . S
H255 C263 0.951 . S
C256 C250 1.265 . S
C256 H251 0.950 1_455 S
C256 C257 1.478 . S
C257 C244 1.394 . S
C257 C256 1.478 . S
C257 C258 1.397 . S
C258 C257 1.397 . S
C258 C259 1.438 . S
C258 C263 1.429 . S
C259 C242 1.394 . S
C259 C258 1.438 . S
C259 C260 1.428 . S
C260 H252 0.949 . S
C260 C259 1.428 . S
C260 C261 1.345 . S
C261 H253 0.950 . S
C261 C260 1.345 . S
C261 C262 1.424 . S
C262 H254 0.951 . S
C262 C261 1.424 . S
C262 C263 1.347 . S
C263 H255 0.951 . S
C263 C258 1.429 . S
C263 C262 1.347 . S
H264 C265 0.951 . S
C265 H264 0.951 . S
C265 C271 1.265 . S
H266 C271 0.950 . S
H267 C275 0.949 . S
H268 C276 0.950 . S
H269 C277 0.951 . S
H270 C278 0.951 . S
C271 C265 1.265 . S
C271 H266 0.950 . S
C271 C272 1.478 . S
C272 C271 1.478 . S
C272 C273 1.397 . S
C272 C289 1.394 . S
C273 C272 1.397 . S
C273 C274 1.438 . S
C273 C278 1.429 . S
C274 C273 1.438 . S
C274 C275 1.428 . S
C274 C287 1.394 . S
C275 H267 0.949 . S
C275 C274 1.428 . S
C275 C276 1.345 . S
C276 H268 0.950 . S
C276 C275 1.345 . S
C276 C277 1.424 . S
C277 H269 0.951 . S
C277 C276 1.424 . S
C277 C278 1.347 . S
C278 H270 0.951 . S
C278 C273 1.429 . S
C278 C277 1.347 . S
H279 C280 0.951 . S
C280 H279 0.951 . S
C280 C286 1.265 . S
H281 C286 0.950 . S
H282 C290 0.949 . S
H283 C291 0.950 . S
H284 C292 0.951 1_545 S
H285 C293 0.951 . S
C286 C280 1.265 . S
C286 H281 0.950 . S
C286 C287 1.478 . S
C287 C274 1.394 . S
C287 C286 1.478 . S
C287 C288 1.397 . S
C288 C287 1.397 . S
C288 C289 1.438 . S
C288 C293 1.429 . S
C289 C272 1.394 . S
C289 C288 1.438 . S
C289 C290 1.428 . S
C290 H282 0.949 . S
C290 C289 1.428 . S
C290 C291 1.345 . S
C291 H283 0.950 . S
C291 C290 1.345 . S
C291 C292 1.424 . S
C292 H284 0.951 1_565 S
C292 C291 1.424 . S
C292 C293 1.347 . S
C293 H285 0.951 . S
C293 C288 1.429 . S
C293 C292 1.347 . S
H294 C295 0.951 . S
C295 H294 0.951 . S
C295 C301 1.265 . S
H296 C301 0.950 . S
H297 C305 0.949 . S
H298 C306 0.950 . S
H299 C307 0.951 1_565 S
H300 C308 0.951 . S
C301 C295 1.265 . S
C301 H296 0.950 . S
C301 C302 1.478 . S
C302 C301 1.478 . S
C302 C303 1.397 . S
C302 C319 1.394 . S
C303 C302 1.397 . S
C303 C304 1.438 . S
C303 C308 1.429 . S
C304 C303 1.438 . S
C304 C305 1.428 . S
C304 C317 1.394 . S
C305 H297 0.949 . S
C305 C304 1.428 . S
C305 C306 1.345 1_545 S
C306 H298 0.950 . S
C306 C305 1.345 1_565 S
C306 C307 1.424 1_565 S
C307 H299 0.951 1_545 S
C307 C306 1.424 1_545 S
C307 C308 1.347 . S
C308 H300 0.951 . S
C308 C303 1.429 . S
C308 C307 1.347 . S
H309 C310 0.951 . S
C310 H309 0.951 . S
C310 C316 1.265 . S
H311 C316 0.950 . S
H312 C320 0.949 . S
H313 C321 0.950 . S
H314 C322 0.951 . S
H315 C323 0.951 . S
C316 C310 1.265 . S
C316 H311 0.950 . S
C316 C317 1.478 . S
C317 C304 1.394 . S
C317 C316 1.478 . S
C317 C318 1.397 . S
C318 C317 1.397 . S
C318 C319 1.438 . S
C318 C323 1.429 1_655 S
C319 C302 1.394 . S
C319 C318 1.438 . S
C319 C320 1.428 . S
C320 H312 0.949 . S
C320 C319 1.428 . S
C320 C321 1.345 1_655 S
C321 H313 0.950 . S
C321 C320 1.345 1_455 S
C321 C322 1.424 . S
C322 H314 0.951 . S
C322 C321 1.424 . S
C322 C323 1.347 . S
C323 H315 0.951 . S
C323 C318 1.429 1_455 S
C323 C322 1.347 . S
H324 C325 0.951 . S
C325 H324 0.951 . S
C325 C331 1.265 . S
H326 C331 0.950 . S
H327 C335 0.949 . S
H328 C336 0.950 . S
H329 C337 0.951 . S
H330 C338 0.951 . S
C331 C325 1.265 . S
C331 H326 0.950 . S
C331 C332 1.478 . S
C332 C331 1.478 . S
C332 C333 1.397 . S
C332 C349 1.394 . S
C333 C332 1.397 . S
C333 C334 1.438 . S
C333 C338 1.429 . S
C334 C333 1.438 . S
C334 C335 1.428 . S
C334 C347 1.394 . S
C335 H327 0.949 . S
C335 C334 1.428 . S
C335 C336 1.345 . S
C336 H328 0.950 . S
C336 C335 1.345 . S
C336 C337 1.424 . S
C337 H329 0.951 . S
C337 C336 1.424 . S
C337 C338 1.347 . S
C338 H330 0.951 . S
C338 C333 1.429 . S
C338 C337 1.347 . S
H339 C340 0.951 . S
C340 H339 0.951 . S
C340 C346 1.265 . S
H341 C346 0.950 . S
H342 C350 0.949 . S
H343 C351 0.950 . S
H344 C352 0.951 . S
H345 C353 0.951 . S
C346 C340 1.265 . S
C346 H341 0.950 . S
C346 C347 1.478 . S
C347 C334 1.394 . S
C347 C346 1.478 . S
C347 C348 1.397 . S
C348 C347 1.397 . S
C348 C349 1.438 . S
C348 C353 1.429 . S
C349 C332 1.394 . S
C349 C348 1.438 . S
C349 C350 1.428 . S
C350 H342 0.949 . S
C350 C349 1.428 . S
C350 C351 1.345 . S
C351 H343 0.950 . S
C351 C350 1.345 . S
C351 C352 1.424 . S
C352 H344 0.951 . S
C352 C351 1.424 . S
C352 C353 1.347 . S
C353 H345 0.951 . S
C353 C348 1.429 . S
C353 C352 1.347 . S
H354 C355 0.951 . S
C355 H354 0.951 . S
C355 C361 1.265 . S
H356 C361 0.950 . S
H357 C365 0.949 . S
H358 C366 0.950 . S
H359 C367 0.951 . S
H360 C368 0.951 . S
C361 C355 1.265 . S
C361 H356 0.950 . S
C361 C362 1.478 . S
C362 C361 1.478 . S
C362 C363 1.397 . S
C362 C379 1.394 . S
C363 C362 1.397 . S
C363 C364 1.438 . S
C363 C368 1.429 . S
C364 C363 1.438 . S
C364 C365 1.428 . S
C364 C377 1.394 . S
C365 H357 0.949 . S
C365 C364 1.428 . S
C365 C366 1.345 . S
C366 H358 0.950 . S
C366 C365 1.345 . S
C366 C367 1.424 . S
C367 H359 0.951 . S
C367 C366 1.424 . S
C367 C368 1.347 . S
C368 H360 0.951 . S
C368 C363 1.429 . S
C368 C367 1.347 . S
H369 C370 0.951 . S
C370 H369 0.951 . S
C370 C376 1.265 . S
H371 C376 0.950 . S
H372 C380 0.949 . S
H373 C381 0.950 . S
H374 C382 0.951 . S
H375 C383 0.951 . S
C376 C370 1.265 . S
C376 H371 0.950 . S
C376 C377 1.478 . S
C377 C364 1.394 . S
C377 C376 1.478 . S
C377 C378 1.397 . S
C378 C377 1.397 . S
C378 C379 1.438 . S
C378 C383 1.429 . S
C379 C362 1.394 . S
C379 C378 1.438 . S
C379 C380 1.428 . S
C380 H372 0.949 . S
C380 C379 1.428 . S
C380 C381 1.345 . S
C381 H373 0.950 . S
C381 C380 1.345 . S
C381 C382 1.424 . S
C382 H374 0.951 . S
C382 C381 1.424 . S
C382 C383 1.347 . S
C383 H375 0.951 . S
C383 C378 1.429 . S
C383 C382 1.347 . S
H384 C385 0.951 . S
C385 H384 0.951 . S
C385 C391 1.265 . S
H386 C391 0.950 . S
H387 C395 0.949 . S
H388 C396 0.950 . S
H389 C397 0.951 . S
H390 C398 0.951 . S
C391 C385 1.265 . S
C391 H386 0.950 . S
C391 C392 1.478 . S
C392 C391 1.478 . S
C392 C393 1.397 1_554 S
C392 C409 1.394 . S
C393 C392 1.397 1_556 S
C393 C394 1.438 . S
C393 C398 1.429 . S
C394 C393 1.438 . S
C394 C395 1.428 . S
C394 C407 1.394 . S
C395 H387 0.949 . S
C395 C394 1.428 . S
C395 C396 1.345 . S
C396 H388 0.950 . S
C396 C395 1.345 . S
C396 C397 1.424 . S
C397 H389 0.951 . S
C397 C396 1.424 . S
C397 C398 1.347 . S
C398 H390 0.951 . S
C398 C393 1.429 . S
C398 C397 1.347 . S
H399 C400 0.951 . S
C400 H399 0.951 . S
C400 C406 1.265 . S
H401 C406 0.950 . S
H402 C410 0.949 . S
H403 C411 0.950 . S
H404 C412 0.951 . S
H405 C413 0.951 . S
C406 C400 1.265 . S
C406 H401 0.950 . S
C406 C407 1.478 . S
C407 C394 1.394 . S
C407 C406 1.478 . S
C407 C408 1.397 1_556 S
C408 C407 1.397 1_554 S
C408 C409 1.438 . S
C408 C413 1.429 . S
C409 C392 1.394 . S
C409 C408 1.438 . S
C409 C410 1.428 . S
C410 H402 0.949 . S
C410 C409 1.428 . S
C410 C411 1.345 . S
C411 H403 0.950 . S
C411 C410 1.345 . S
C411 C412 1.424 . S
C412 H404 0.951 . S
C412 C411 1.424 . S
C412 C413 1.347 . S
C413 H405 0.951 . S
C413 C408 1.429 . S
C413 C412 1.347 . S
H414 C415 0.951 . S
C415 H414 0.951 . S
C415 C421 1.265 . S
H416 C421 0.950 . S
H417 C425 0.949 1_554 S
H418 C426 0.950 . S
H419 C427 0.951 . S
H420 C428 0.951 . S
C421 C415 1.265 . S
C421 H416 0.950 . S
C421 C422 1.478 . S
C422 C421 1.478 . S
C422 C423 1.397 1_565 S
C422 C439 1.394 1_556 S
C423 C422 1.397 1_545 S
C423 C424 1.438 . S
C423 C428 1.429 . S
C424 C423 1.438 . S
C424 C425 1.428 . S
C424 C437 1.394 1_556 S
C425 H417 0.949 1_556 S
C425 C424 1.428 . S
C425 C426 1.345 . S
C426 H418 0.950 . S
C426 C425 1.345 . S
C426 C427 1.424 . S
C427 H419 0.951 . S
C427 C426 1.424 . S
C427 C428 1.347 . S
C428 H420 0.951 . S
C428 C423 1.429 . S
C428 C427 1.347 . S
H429 C430 0.951 . S
C430 H429 0.951 . S
C430 C436 1.265 . S
H431 C436 0.950 . S
H432 C440 0.949 1_556 S
H433 C441 0.950 . S
H434 C442 0.951 . S
H435 C443 0.951 . S
C436 C430 1.265 . S
C436 H431 0.950 . S
C436 C437 1.478 . S
C437 C424 1.394 1_554 S
C437 C436 1.478 . S
C437 C438 1.397 1_545 S
C438 C437 1.397 1_565 S
C438 C439 1.438 . S
C438 C443 1.429 . S
C439 C422 1.394 1_554 S
C439 C438 1.438 . S
C439 C440 1.428 . S
C440 H432 0.949 1_554 S
C440 C439 1.428 . S
C440 C441 1.345 . S
C441 H433 0.950 . S
C441 C440 1.345 . S
C441 C442 1.424 . S
C442 H434 0.951 . S
C442 C441 1.424 . S
C442 C443 1.347 . S
C443 H435 0.951 . S
C443 C438 1.429 . S
C443 C442 1.347 . S
H444 C445 0.951 . S
C445 H444 0.951 . S
C445 C451 1.265 . S
H446 C451 0.950 . S
H447 C455 0.949 . S
H448 C456 0.950 . S
H449 C457 0.951 . S
H450 C458 0.951 . S
C451 C445 1.265 . S
C451 H446 0.950 . S
C451 C452 1.478 . S
C452 C451 1.478 . S
C452 C453 1.397 1_455 S
C452 C469 1.394 . S
C453 C452 1.397 1_655 S
C453 C454 1.438 1_556 S
C453 C458 1.429 . S
C454 C453 1.438 1_554 S
C454 C455 1.428 . S
C454 C467 1.394 . S
C455 H447 0.949 . S
C455 C454 1.428 . S
C455 C456 1.345 . S
C456 H448 0.950 . S
C456 C455 1.345 . S
C456 C457 1.424 1_554 S
C457 H449 0.951 . S
C457 C456 1.424 1_556 S
C457 C458 1.347 . S
C458 H450 0.951 . S
C458 C453 1.429 . S
C458 C457 1.347 . S
H459 C460 0.951 . S
C460 H459 0.951 . S
C460 C466 1.265 . S
H461 C466 0.950 . S
H462 C470 0.949 . S
H463 C471 0.950 . S
H464 C472 0.951 . S
H465 C473 0.951 . S
C466 C460 1.265 . S
C466 H461 0.950 . S
C466 C467 1.478 . S
C467 C454 1.394 . S
C467 C466 1.478 . S
C467 C468 1.397 1_655 S
C468 C467 1.397 1_455 S
C468 C469 1.438 1_554 S
C468 C473 1.429 . S
C469 C452 1.394 . S
C469 C468 1.438 1_556 S
C469 C470 1.428 . S
C470 H462 0.949 . S
C470 C469 1.428 . S
C470 C471 1.345 . S
C471 H463 0.950 . S
C471 C470 1.345 . S
C471 C472 1.424 1_556 S
C472 H464 0.951 . S
C472 C471 1.424 1_554 S
C472 C473 1.347 . S
C473 H465 0.951 . S
C473 C468 1.429 . S
C473 C472 1.347 . S
C115 C26 0.739 . S
C130 C2 0.739 . S
C145 C40 0.597 . S
C160 C64 0.597 . S
C175 C78 0.742 . S
C190 C102 0.742 . S
C205 C99 2.465 . S
C220 C4 2.465 . S
C235 C93 1.215 . S
C250 C28 1.212 . S
C265 C96 1.531 . S
C280 C19 1.530 . S
C295 C42 2.468 . S
C310 C23 2.468 . S
C325 C66 1.347 . S
C340 C17 1.349 . S
C355 C57 1.534 . S
C370 C20 1.535 . S
C385 C61 2.414 . S
C400 C80 2.414 . S
C415 C104 1.344 . S
C430 C55 1.344 . S
C445 C95 1.527 . S
C460 C58 1.527 . S
