# Generated by pormake.
# Topology yfq, (5)-cn, num edge types: 1
# Building blocks:
#     Node 0, Type 0, BuildingBlock: XOMCOT_clean_sbu_1, # of connection points: 5
#     Node 1, Type 0, BuildingBlock: XOMCOT_clean_sbu_1, # of connection points: 5
#     Node 2, Type 0, BuildingBlock: XOMCOT_clean_sbu_1, # of connection points: 5
#     Node 3, Type 0, BuildingBlock: XOMCOT_clean_sbu_1, # of connection points: 5
#     Node 4, Type 0, BuildingBlock: XOMCOT_clean_sbu_1, # of connection points: 5
#     Node 5, Type 0, BuildingBlock: XOMCOT_clean_sbu_1, # of connection points: 5
#     Node 6, Type 0, BuildingBlock: XOMCOT_clean_sbu_1, # of connection points: 5
#     Node 7, Type 0, BuildingBlock: XOMCOT_clean_sbu_1, # of connection points: 5
#     Node 8, Type 0, BuildingBlock: XOMCOT_clean_sbu_1, # of connection points: 5
#     Node 9, Type 0, BuildingBlock: XOMCOT_clean_sbu_1, # of connection points: 5
#     Node 10, Type 0, BuildingBlock: XOMCOT_clean_sbu_1, # of connection points: 5
#     Node 11, Type 0, BuildingBlock: XOMCOT_clean_sbu_1, # of connection points: 5
#     Node 12, Type 0, BuildingBlock: XOMCOT_clean_sbu_1, # of connection points: 5
#     Node 13, Type 0, BuildingBlock: XOMCOT_clean_sbu_1, # of connection points: 5
#     Node 14, Type 0, BuildingBlock: XOMCOT_clean_sbu_1, # of connection points: 5
#     Node 15, Type 0, BuildingBlock: XOMCOT_clean_sbu_1, # of connection points: 5
#     Node 16, Type 0, BuildingBlock: XOMCOT_clean_sbu_1, # of connection points: 5
#     Node 17, Type 0, BuildingBlock: XOMCOT_clean_sbu_1, # of connection points: 5
#     Node 18, Type 0, BuildingBlock: XOMCOT_clean_sbu_1, # of connection points: 5
#     Node 19, Type 0, BuildingBlock: XOMCOT_clean_sbu_1, # of connection points: 5
#     Node 20, Type 0, BuildingBlock: XOMCOT_clean_sbu_1, # of connection points: 5
#     Node 21, Type 0, BuildingBlock: XOMCOT_clean_sbu_1, # of connection points: 5
#     Node 22, Type 0, BuildingBlock: XOMCOT_clean_sbu_1, # of connection points: 5
#     Node 23, Type 0, BuildingBlock: XOMCOT_clean_sbu_1, # of connection points: 5
#     Node 24, Type 0, BuildingBlock: XOMCOT_clean_sbu_1, # of connection points: 5
#     Node 25, Type 0, BuildingBlock: XOMCOT_clean_sbu_1, # of connection points: 5
#     Node 26, Type 0, BuildingBlock: XOMCOT_clean_sbu_1, # of connection points: 5
#     Node 27, Type 0, BuildingBlock: XOMCOT_clean_sbu_1, # of connection points: 5
#     Node 28, Type 0, BuildingBlock: XOMCOT_clean_sbu_1, # of connection points: 5
#     Node 29, Type 0, BuildingBlock: XOMCOT_clean_sbu_1, # of connection points: 5
#     Node 30, Type 0, BuildingBlock: XOMCOT_clean_sbu_1, # of connection points: 5
#     Node 31, Type 0, BuildingBlock: XOMCOT_clean_sbu_1, # of connection points: 5
#     Edge 32, Type (0, 0), BuildingBlock: KIFKEQ_clean_linker_1, # of connection points: 2
#     Edge 33, Type (0, 0), BuildingBlock: KIFKEQ_clean_linker_1, # of connection points: 2
#     Edge 34, Type (0, 0), BuildingBlock: KIFKEQ_clean_linker_1, # of connection points: 2
#     Edge 35, Type (0, 0), BuildingBlock: KIFKEQ_clean_linker_1, # of connection points: 2
#     Edge 36, Type (0, 0), BuildingBlock: KIFKEQ_clean_linker_1, # of connection points: 2
#     Edge 37, Type (0, 0), BuildingBlock: KIFKEQ_clean_linker_1, # of connection points: 2
#     Edge 38, Type (0, 0), BuildingBlock: KIFKEQ_clean_linker_1, # of connection points: 2
#     Edge 39, Type (0, 0), BuildingBlock: KIFKEQ_clean_linker_1, # of connection points: 2
#     Edge 40, Type (0, 0), BuildingBlock: KIFKEQ_clean_linker_1, # of connection points: 2
#     Edge 41, Type (0, 0), BuildingBlock: KIFKEQ_clean_linker_1, # of connection points: 2
#     Edge 42, Type (0, 0), BuildingBlock: KIFKEQ_clean_linker_1, # of connection points: 2
#     Edge 43, Type (0, 0), BuildingBlock: KIFKEQ_clean_linker_1, # of connection points: 2
#     Edge 44, Type (0, 0), BuildingBlock: KIFKEQ_clean_linker_1, # of connection points: 2
#     Edge 45, Type (0, 0), BuildingBlock: KIFKEQ_clean_linker_1, # of connection points: 2
#     Edge 46, Type (0, 0), BuildingBlock: KIFKEQ_clean_linker_1, # of connection points: 2
#     Edge 47, Type (0, 0), BuildingBlock: KIFKEQ_clean_linker_1, # of connection points: 2
#     Edge 48, Type (0, 0), BuildingBlock: KIFKEQ_clean_linker_1, # of connection points: 2
#     Edge 49, Type (0, 0), BuildingBlock: KIFKEQ_clean_linker_1, # of connection points: 2
#     Edge 50, Type (0, 0), BuildingBlock: KIFKEQ_clean_linker_1, # of connection points: 2
#     Edge 51, Type (0, 0), BuildingBlock: KIFKEQ_clean_linker_1, # of connection points: 2
#     Edge 52, Type (0, 0), BuildingBlock: KIFKEQ_clean_linker_1, # of connection points: 2
#     Edge 53, Type (0, 0), BuildingBlock: KIFKEQ_clean_linker_1, # of connection points: 2
#     Edge 54, Type (0, 0), BuildingBlock: KIFKEQ_clean_linker_1, # of connection points: 2
#     Edge 55, Type (0, 0), BuildingBlock: KIFKEQ_clean_linker_1, # of connection points: 2
#     Edge 56, Type (0, 0), BuildingBlock: KIFKEQ_clean_linker_1, # of connection points: 2
#     Edge 57, Type (0, 0), BuildingBlock: KIFKEQ_clean_linker_1, # of connection points: 2
#     Edge 58, Type (0, 0), BuildingBlock: KIFKEQ_clean_linker_1, # of connection points: 2
#     Edge 59, Type (0, 0), BuildingBlock: KIFKEQ_clean_linker_1, # of connection points: 2
#     Edge 60, Type (0, 0), BuildingBlock: KIFKEQ_clean_linker_1, # of connection points: 2
#     Edge 61, Type (0, 0), BuildingBlock: KIFKEQ_clean_linker_1, # of connection points: 2
#     Edge 62, Type (0, 0), BuildingBlock: KIFKEQ_clean_linker_1, # of connection points: 2
#     Edge 63, Type (0, 0), BuildingBlock: KIFKEQ_clean_linker_1, # of connection points: 2
#     Edge 64, Type (0, 0), BuildingBlock: KIFKEQ_clean_linker_1, # of connection points: 2
#     Edge 65, Type (0, 0), BuildingBlock: KIFKEQ_clean_linker_1, # of connection points: 2
#     Edge 66, Type (0, 0), BuildingBlock: KIFKEQ_clean_linker_1, # of connection points: 2
#     Edge 67, Type (0, 0), BuildingBlock: KIFKEQ_clean_linker_1, # of connection points: 2
#     Edge 68, Type (0, 0), BuildingBlock: KIFKEQ_clean_linker_1, # of connection points: 2
#     Edge 69, Type (0, 0), BuildingBlock: KIFKEQ_clean_linker_1, # of connection points: 2
#     Edge 70, Type (0, 0), BuildingBlock: KIFKEQ_clean_linker_1, # of connection points: 2
#     Edge 71, Type (0, 0), BuildingBlock: KIFKEQ_clean_linker_1, # of connection points: 2
#     Edge 72, Type (0, 0), BuildingBlock: KIFKEQ_clean_linker_1, # of connection points: 2
#     Edge 73, Type (0, 0), BuildingBlock: KIFKEQ_clean_linker_1, # of connection points: 2
#     Edge 74, Type (0, 0), BuildingBlock: KIFKEQ_clean_linker_1, # of connection points: 2
#     Edge 75, Type (0, 0), BuildingBlock: KIFKEQ_clean_linker_1, # of connection points: 2
#     Edge 76, Type (0, 0), BuildingBlock: KIFKEQ_clean_linker_1, # of connection points: 2
#     Edge 77, Type (0, 0), BuildingBlock: KIFKEQ_clean_linker_1, # of connection points: 2
#     Edge 78, Type (0, 0), BuildingBlock: KIFKEQ_clean_linker_1, # of connection points: 2
#     Edge 79, Type (0, 0), BuildingBlock: KIFKEQ_clean_linker_1, # of connection points: 2
#     Edge 80, Type (0, 0), BuildingBlock: KIFKEQ_clean_linker_1, # of connection points: 2
#     Edge 81, Type (0, 0), BuildingBlock: KIFKEQ_clean_linker_1, # of connection points: 2
#     Edge 82, Type (0, 0), BuildingBlock: KIFKEQ_clean_linker_1, # of connection points: 2
#     Edge 83, Type (0, 0), BuildingBlock: KIFKEQ_clean_linker_1, # of connection points: 2
#     Edge 84, Type (0, 0), BuildingBlock: KIFKEQ_clean_linker_1, # of connection points: 2
#     Edge 85, Type (0, 0), BuildingBlock: KIFKEQ_clean_linker_1, # of connection points: 2
#     Edge 86, Type (0, 0), BuildingBlock: KIFKEQ_clean_linker_1, # of connection points: 2
#     Edge 87, Type (0, 0), BuildingBlock: KIFKEQ_clean_linker_1, # of connection points: 2
#     Edge 88, Type (0, 0), BuildingBlock: KIFKEQ_clean_linker_1, # of connection points: 2
#     Edge 89, Type (0, 0), BuildingBlock: KIFKEQ_clean_linker_1, # of connection points: 2
#     Edge 90, Type (0, 0), BuildingBlock: KIFKEQ_clean_linker_1, # of connection points: 2
#     Edge 91, Type (0, 0), BuildingBlock: KIFKEQ_clean_linker_1, # of connection points: 2
#     Edge 92, Type (0, 0), BuildingBlock: KIFKEQ_clean_linker_1, # of connection points: 2
#     Edge 93, Type (0, 0), BuildingBlock: KIFKEQ_clean_linker_1, # of connection points: 2
#     Edge 94, Type (0, 0), BuildingBlock: KIFKEQ_clean_linker_1, # of connection points: 2
#     Edge 95, Type (0, 0), BuildingBlock: KIFKEQ_clean_linker_1, # of connection points: 2
#     Edge 96, Type (0, 0), BuildingBlock: KIFKEQ_clean_linker_1, # of connection points: 2
#     Edge 97, Type (0, 0), BuildingBlock: KIFKEQ_clean_linker_1, # of connection points: 2
#     Edge 98, Type (0, 0), BuildingBlock: KIFKEQ_clean_linker_1, # of connection points: 2
#     Edge 99, Type (0, 0), BuildingBlock: KIFKEQ_clean_linker_1, # of connection points: 2
#     Edge 100, Type (0, 0), BuildingBlock: KIFKEQ_clean_linker_1, # of connection points: 2
#     Edge 101, Type (0, 0), BuildingBlock: KIFKEQ_clean_linker_1, # of connection points: 2
#     Edge 102, Type (0, 0), BuildingBlock: KIFKEQ_clean_linker_1, # of connection points: 2
#     Edge 103, Type (0, 0), BuildingBlock: KIFKEQ_clean_linker_1, # of connection points: 2
#     Edge 104, Type (0, 0), BuildingBlock: KIFKEQ_clean_linker_1, # of connection points: 2
#     Edge 105, Type (0, 0), BuildingBlock: KIFKEQ_clean_linker_1, # of connection points: 2
#     Edge 106, Type (0, 0), BuildingBlock: KIFKEQ_clean_linker_1, # of connection points: 2
#     Edge 107, Type (0, 0), BuildingBlock: KIFKEQ_clean_linker_1, # of connection points: 2
#     Edge 108, Type (0, 0), BuildingBlock: KIFKEQ_clean_linker_1, # of connection points: 2
#     Edge 109, Type (0, 0), BuildingBlock: KIFKEQ_clean_linker_1, # of connection points: 2
#     Edge 110, Type (0, 0), BuildingBlock: KIFKEQ_clean_linker_1, # of connection points: 2
#     Edge 111, Type (0, 0), BuildingBlock: KIFKEQ_clean_linker_1, # of connection points: 2
# Relax obj value: 0.542
# Max RMSD: 0.296
# Mean RMSD: 0.296
data_MOF--net-yfq--node1-XOMCOT_clean_sbu_1--edge1-KIFKEQ_clean_linker_1
_symmetry_space_group_name_H-M    P1
_symmetry_Int_Tables_number       1
_symmetry_cell_setting            triclinic
loop_
_symmetry_equiv_pos_as_xyz
'x, y, z'
_cell_length_a     53.152536
_cell_length_b     53.138138
_cell_length_c     61.028205
_cell_angle_alpha  89.971461
_cell_angle_beta   89.994619
_cell_angle_gamma 90.00507
loop_
_atom_site_label
_atom_site_type_symbol
_atom_site_fract_x
_atom_site_fract_y
_atom_site_fract_z
_atom_type_partial_charge
C0 C 0.17459 0.20928 0.28522 0.0
C1 C 0.17878 0.2286 0.29959 0.0
N2 N 0.15825 0.24346 0.29975 0.0
N3 N 0.15162 0.21193 0.27624 0.0
C4 C 0.14206 0.23303 0.28527 0.0
H5 H 0.18744 0.19408 0.28151 0.0
Co6 Co 0.14052 0.18885 0.25608 0.0
C7 C 0.0873 0.19941 0.24586 0.0
O8 O 0.08418 0.17489 0.2464 0.0
N9 N 0.13105 0.16477 0.23496 0.0
C10 C 0.12455 0.12995 0.21552 0.0
C11 C 0.13004 0.13937 0.23593 0.0
C12 C 0.12624 0.17017 0.21372 0.0
N13 N 0.12225 0.14938 0.2015 0.0
O14 O 0.15888 0.20711 0.23454 0.0
H15 H 0.13375 0.12799 0.25015 0.0
H16 H 0.12588 0.18916 0.20734 0.0
O17 O 0.10931 0.20866 0.24944 0.0
C18 C 0.18115 0.19914 0.23123 0.0
O19 O 0.18635 0.17567 0.23629 0.0
N20 N 0.12469 0.17141 0.27919 0.0
C21 C 0.11004 0.15016 0.31904 0.0
C22 C 0.09777 0.17139 0.31075 0.0
C23 C 0.10577 0.18207 0.29121 0.0
C24 C 0.13753 0.15129 0.28748 0.0
C25 C 0.13008 0.13988 0.30712 0.0
H26 H 0.09761 0.19989 0.28678 0.0
H27 H 0.15437 0.14475 0.27933 0.0
H28 H 0.12337 0.24009 0.28185 0.0
H29 H 0.19559 0.23133 0.3093 0.0
H30 H 0.12345 0.11023 0.21123 0.0
H31 H 0.08244 0.18018 0.3196 0.0
H32 H 0.14054 0.12393 0.31337 0.0
C33 C 0.07611 0.90116 0.55417 0.0
C34 C 0.05851 0.90491 0.57019 0.0
N35 N 0.03762 0.89189 0.56486 0.0
N36 N 0.06664 0.8857 0.53878 0.0
C37 C 0.04302 0.88043 0.54559 0.0
H38 H 0.09436 0.91009 0.55329 0.0
Co39 Co 0.08406 0.87989 0.51309 0.0
C40 C 0.068 0.83047 0.49491 0.0
O41 O 0.09128 0.82721 0.48828 0.0
N42 N 0.10243 0.87571 0.48685 0.0
C43 C 0.13272 0.87039 0.46216 0.0
C44 C 0.12749 0.87294 0.48402 0.0
C45 C 0.09299 0.87539 0.46624 0.0
N46 N 0.11101 0.87188 0.45088 0.0
O47 O 0.06177 0.90285 0.49879 0.0
H48 H 0.14147 0.87243 0.49676 0.0
H49 H 0.07315 0.87739 0.46268 0.0
O50 O 0.06203 0.85054 0.5055 0.0
C51 C 0.07046 0.92512 0.50063 0.0
O52 O 0.09364 0.92779 0.50778 0.0
N53 N 0.1065 0.85958 0.52903 0.0
C54 C 0.1375 0.83861 0.56096 0.0
C55 C 0.11649 0.82546 0.55322 0.0
C56 C 0.10078 0.83659 0.53776 0.0
C57 C 0.12696 0.87256 0.53645 0.0
C58 C 0.14283 0.86239 0.55236 0.0
H59 H 0.08318 0.82739 0.53443 0.0
H60 H 0.13024 0.89156 0.53074 0.0
H61 H 0.02995 0.86896 0.53638 0.0
H62 H 0.06064 0.9172 0.58419 0.0
H63 H 0.15118 0.86707 0.45529 0.0
H64 H 0.1111 0.80758 0.56037 0.0
H65 H 0.15848 0.87338 0.55851 0.0
C66 C 0.32621 0.79793 0.78931 0.0
C67 C 0.32114 0.78074 0.80544 0.0
N68 N 0.34064 0.76467 0.80658 0.0
N69 N 0.34882 0.79279 0.78039 0.0
C70 C 0.35718 0.77222 0.7911 0.0
H71 H 0.31457 0.81379 0.78479 0.0
Co72 Co 0.36173 0.81422 0.75967 0.0
C73 C 0.4143 0.79971 0.74963 0.0
O74 O 0.41888 0.82399 0.74946 0.0
N75 N 0.37313 0.8371 0.73802 0.0
C76 C 0.38569 0.87086 0.71941 0.0
C77 C 0.37893 0.86181 0.7396 0.0
C78 C 0.37631 0.83181 0.71649 0.0
N79 N 0.38394 0.85203 0.70474 0.0
O80 O 0.34213 0.79652 0.73849 0.0
H81 H 0.37864 0.87299 0.75427 0.0
H82 H 0.37283 0.81341 0.7096 0.0
O83 O 0.39179 0.79199 0.75381 0.0
C84 C 0.32046 0.80599 0.735 0.0
O85 O 0.31704 0.82995 0.7394 0.0
N86 N 0.37845 0.8313 0.78245 0.0
C87 C 0.39527 0.85436 0.82079 0.0
C88 C 0.40605 0.83184 0.81353 0.0
C89 C 0.39701 0.82034 0.79468 0.0
C90 C 0.3666 0.85232 0.79012 0.0
C91 C 0.37523 0.86467 0.80891 0.0
H92 H 0.4043 0.80199 0.7908 0.0
H93 H 0.35017 0.85942 0.78166 0.0
H94 H 0.37554 0.76391 0.78858 0.0
H95 H 0.30484 0.7806 0.81608 0.0
H96 H 0.39159 0.88994 0.71604 0.0
H97 H 0.42129 0.82298 0.82244 0.0
H98 H 0.36594 0.88169 0.81438 0.0
C99 C 0.4509 0.09261 0.03454 0.0
C100 C 0.46974 0.08674 0.04895 0.0
N101 N 0.48618 0.10604 0.04933 0.0
N102 N 0.45539 0.11545 0.02584 0.0
C103 C 0.47711 0.12321 0.03502 0.0
H104 H 0.43487 0.08097 0.0305 0.0
Co105 Co 0.43402 0.12832 0.00514 0.0
C106 C 0.44574 0.1822 -0.00133 0.0
O107 O 0.42128 0.18577 -0.00114 0.0
N108 N 0.41167 0.13979 0.98335 0.0
C109 C 0.37877 0.15024 0.96268 0.0
C110 C 0.38645 0.14319 0.98328 0.0
C111 C 0.41872 0.14493 0.96255 0.0
N112 N 0.39913 0.15122 0.94961 0.0
O113 O 0.45389 0.11149 0.98374 0.0
H114 H 0.37399 0.14064 -0.003 0.0
H115 H 0.43793 0.14344 0.95688 0.0
O116 O 0.45448 0.15979 0.0013 0.0
C117 C 0.44692 0.08909 0.97949 0.0
O118 O 0.42368 0.08259 0.9842 0.0
N119 N 0.41502 0.14244 0.02801 0.0
C120 C 0.39118 0.15353 0.06741 0.0
C121 C 0.41335 0.16586 0.06155 0.0
C122 C 0.42524 0.15973 0.04203 0.0
C123 C 0.39397 0.12942 0.03406 0.0
C124 C 0.38122 0.13521 0.05347 0.0
H125 H 0.44357 0.16773 0.03916 0.0
H126 H 0.38761 0.11376 0.02419 0.0
H127 H 0.48572 0.14126 0.03168 0.0
H128 H 0.47119 0.06958 0.05842 0.0
H129 H 0.35962 0.15419 0.95775 0.0
H130 H 0.4219 0.17956 0.0724 0.0
H131 H 0.36448 0.12481 0.05799 0.0
C132 C 0.154 0.82488 0.19304 0.0
C133 C 0.16205 0.80757 0.17801 0.0
N134 N 0.14813 0.78656 0.18038 0.0
N135 N 0.13497 0.815 0.20478 0.0
C136 C 0.13182 0.79151 0.19686 0.0
H137 H 0.16197 0.84333 0.19576 0.0
Co138 Co 0.12239 0.83245 0.22833 0.0
C139 C 0.06976 0.81702 0.23605 0.0
O140 O 0.06527 0.84113 0.23866 0.0
N141 N 0.11123 0.85109 0.25303 0.0
C142 C 0.09756 0.88059 0.27613 0.0
C143 C 0.10346 0.8753 0.25475 0.0
C144 C 0.11 0.84228 0.27384 0.0
N145 N 0.10176 0.85982 0.28812 0.0
O146 O 0.14176 0.81063 0.24656 0.0
H147 H 0.10174 0.88863 0.24157 0.0
H148 H 0.11494 0.82328 0.2785 0.0
O149 O 0.09224 0.8098 0.23124 0.0
C150 C 0.16436 0.81788 0.24949 0.0
O151 O 0.16983 0.84162 0.24575 0.0
N152 N 0.10577 0.8537 0.2083 0.0
C153 C 0.09196 0.88109 0.17128 0.0
C154 C 0.08099 0.85774 0.17566 0.0
C155 C 0.0885 0.84413 0.19393 0.0
C156 C 0.11714 0.87621 0.20389 0.0
C157 C 0.10996 0.89066 0.18575 0.0
H158 H 0.08182 0.82505 0.19529 0.0
H159 H 0.13263 0.88249 0.21401 0.0
H160 H 0.11813 0.77831 0.2032 0.0
H161 H 0.17745 0.81006 0.16661 0.0
H162 H 0.09136 0.89857 0.28248 0.0
H163 H 0.06748 0.84952 0.16445 0.0
H164 H 0.11931 0.90837 0.18242 0.0
C165 C 0.46442 0.91694 0.45533 0.0
C166 C 0.48189 0.91825 0.4389 0.0
N167 N 0.49484 0.89644 0.43853 0.0
N168 N 0.4663 0.8945 0.46543 0.0
C169 C 0.48506 0.88236 0.45493 0.0
H170 H 0.45044 0.93105 0.45913 0.0
Co171 Co 0.44375 0.88556 0.48693 0.0
C172 C 0.45573 0.83391 0.50203 0.0
O173 O 0.43132 0.83039 0.50332 0.0
N174 N 0.42015 0.87801 0.50907 0.0
C175 C 0.38579 0.86901 0.52842 0.0
C176 C 0.39502 0.8742 0.50787 0.0
C177 C 0.42554 0.87559 0.53063 0.0
N178 N 0.40505 0.86988 0.54269 0.0
O179 O 0.46194 0.90695 0.50656 0.0
H180 H 0.38379 0.87492 0.4932 0.0
H181 H 0.44433 0.87728 0.53728 0.0
O182 O 0.4642 0.85539 0.49553 0.0
C183 C 0.4518 0.9287 0.50721 0.0
O184 O 0.42829 0.93072 0.50075 0.0
N185 N 0.42596 0.86732 0.46565 0.0
C186 C 0.40469 0.85148 0.42623 0.0
C187 C 0.42419 0.83779 0.43599 0.0
C188 C 0.43495 0.84631 0.45536 0.0
C189 C 0.40705 0.88094 0.45628 0.0
C190 C 0.39576 0.87311 0.43678 0.0
H191 H 0.45175 0.8369 0.46077 0.0
H192 H 0.40154 0.89872 0.46347 0.0
H193 H 0.49082 0.86334 0.45876 0.0
H194 H 0.4838 0.93353 0.4273 0.0
H195 H 0.36636 0.86523 0.53259 0.0
H196 H 0.4318 0.82108 0.42828 0.0
H197 H 0.38112 0.88454 0.42948 0.0
C198 C 0.34697 0.20339 0.69458 0.0
C199 C 0.33575 0.21885 0.67943 0.0
N200 N 0.34525 0.2422 0.6819 0.0
N201 N 0.36354 0.21689 0.70641 0.0
C202 C 0.36202 0.24048 0.69846 0.0
H203 H 0.3432 0.18358 0.69701 0.0
Co204 Co 0.38124 0.20409 0.72986 0.0
C205 C 0.41463 0.24465 0.74506 0.0
O206 O 0.40324 0.24381 0.76416 0.0
N207 N 0.39872 0.19061 0.75365 0.0
C208 C 0.42966 0.1785 0.77571 0.0
C209 C 0.42369 0.18615 0.75486 0.0
C210 C 0.3899 0.18523 0.77382 0.0
N211 N 0.40836 0.17806 0.78768 0.0
O212 O 0.35894 0.22245 0.74847 0.0
H213 H 0.43692 0.18934 0.74167 0.0
H214 H 0.37038 0.18707 0.77843 0.0
O215 O 0.4059 0.23162 0.72919 0.0
C216 C 0.33809 0.21062 0.74961 0.0
O217 O 0.33815 0.18657 0.74451 0.0
N218 N 0.4008 0.18556 0.71045 0.0
C219 C 0.41866 0.15749 0.6755 0.0
C220 C 0.42273 0.18347 0.67633 0.0
C221 C 0.41355 0.19722 0.6939 0.0
C222 C 0.39761 0.1601 0.71046 0.0
C223 C 0.40672 0.14552 0.69311 0.0
H224 H 0.41503 0.21745 0.6932 0.0
H225 H 0.38674 0.1513 0.72334 0.0
H226 H 0.3733 0.25595 0.70446 0.0
H227 H 0.32174 0.21328 0.66752 0.0
H228 H 0.44841 0.17475 0.78179 0.0
H229 H 0.43203 0.19324 0.663 0.0
H230 H 0.40326 0.12544 0.69287 0.0
C231 C 0.05276 0.08556 0.9497 0.0
C232 C 0.03272 0.08315 0.93569 0.0
N233 N 0.01793 0.10352 0.93809 0.0
N234 N 0.05053 0.10727 0.96089 0.0
C235 C 0.02912 0.11788 0.9535 0.0
H236 H 0.06804 0.07232 0.95172 0.0
Co237 Co 0.07322 0.11618 0.98218 0.0
C238 C 0.06121 0.16794 -0.00315 0.0
O239 O 0.08563 0.17171 -0.00242 0.0
N240 N 0.09672 0.12362 0.00434 0.0
C241 C 0.13082 0.12941 0.02487 0.0
C242 C 0.1221 0.12496 0.00402 0.0
C243 C 0.09061 0.12694 0.02566 0.0
N244 N 0.11094 0.13066 0.0385 0.0
O245 O 0.05499 0.09496 0.00176 0.0
H246 H 0.13392 0.12249 0.98985 0.0
H247 H 0.07141 0.1269 0.03154 0.0
O248 O 0.05279 0.14624 0.99098 0.0
C249 C 0.06406 0.07284 0.00363 0.0
O250 O 0.08774 0.06922 -0.0017 0.0
N251 N 0.09081 0.1348 0.96085 0.0
C252 C 0.11109 0.15195 0.92149 0.0
C253 C 0.09018 0.16379 0.93068 0.0
C254 C 0.08005 0.1547 0.95011 0.0
C255 C 0.11101 0.1228 0.9518 0.0
C256 C 0.12195 0.1315 0.93237 0.0
H257 H 0.06229 0.16248 0.95515 0.0
H258 H 0.11766 0.10537 0.9589 0.0
H259 H 0.02183 0.13569 0.95928 0.0
H260 H 0.02965 0.06797 0.92417 0.0
H261 H 0.15037 0.13091 0.02963 0.0
H262 H 0.08092 0.17921 0.9223 0.0
H263 H 0.13765 0.12143 0.92522 0.0
C264 C 0.82625 0.80879 0.68982 0.0
C265 C 0.82325 0.79039 0.67436 0.0
N266 N 0.84243 0.77394 0.67633 0.0
N267 N 0.84712 0.80403 0.70157 0.0
C268 C 0.85659 0.78257 0.69314 0.0
H269 H 0.81397 0.82473 0.69246 0.0
Co270 Co 0.85576 0.82501 0.72418 0.0
C271 C 0.90647 0.81149 0.7404 0.0
O272 O 0.91064 0.83578 0.74194 0.0
N273 N 0.8626 0.84695 0.7477 0.0
C274 C 0.87009 0.87928 0.76996 0.0
C275 C 0.86481 0.87227 0.74875 0.0
C276 C 0.86584 0.83923 0.76862 0.0
N277 N 0.87092 0.85839 0.78243 0.0
O278 O 0.83374 0.80574 0.7424 0.0
H279 H 0.86308 0.88513 0.73521 0.0
H280 H 0.86495 0.81968 0.7735 0.0
O281 O 0.8852 0.80346 0.73306 0.0
C282 C 0.81098 0.81308 0.74386 0.0
O283 O 0.80536 0.83604 0.73753 0.0
N284 N 0.87594 0.84344 0.70418 0.0
C285 C 0.89879 0.86563 0.66775 0.0
C286 C 0.90755 0.84281 0.67606 0.0
C287 C 0.89565 0.83185 0.69386 0.0
C288 C 0.86655 0.86535 0.69575 0.0
C289 C 0.8782 0.87725 0.67787 0.0
H290 H 0.90141 0.81308 0.69806 0.0
H291 H 0.84918 0.87299 0.70213 0.0
H292 H 0.87376 0.77384 0.69886 0.0
H293 H 0.80807 0.78928 0.6626 0.0
H294 H 0.87374 0.89825 0.77556 0.0
H295 H 0.92308 0.833 0.66834 0.0
H296 H 0.87049 0.89459 0.67139 0.0
C297 C 0.96091 0.08429 0.45093 0.0
C298 C 0.97983 0.07988 0.43622 0.0
N299 N 0.99599 0.09939 0.437 0.0
N300 N 0.96504 0.10642 0.46101 0.0
C301 C 0.98666 0.11524 0.45233 0.0
H302 H 0.94503 0.07212 0.4542 0.0
Co303 Co 0.94306 0.11705 0.48225 0.0
C304 C 0.95408 0.16996 0.49346 0.0
O305 O 0.92956 0.17305 0.49357 0.0
N306 N 0.92002 0.12609 0.50448 0.0
C307 C 0.88652 0.13578 0.52477 0.0
C308 C 0.8949 0.13033 0.504 0.0
C309 C 0.92624 0.12883 0.52584 0.0
N310 N 0.90629 0.1347 0.53845 0.0
O311 O 0.96236 0.09798 0.50268 0.0
H312 H 0.88301 0.12964 0.48975 0.0
H313 H 0.94521 0.12685 0.53205 0.0
O314 O 0.96324 0.14817 0.48876 0.0
C315 C 0.9545 0.07559 0.50572 0.0
O316 O 0.93129 0.07011 0.50002 0.0
N317 N 0.92456 0.13345 0.4602 0.0
C318 C 0.9019 0.14807 0.42109 0.0
C319 C 0.92361 0.16015 0.42851 0.0
C320 C 0.9349 0.1523 0.44785 0.0
C321 C 0.90387 0.12088 0.4527 0.0
C322 C 0.8917 0.12839 0.43344 0.0
H323 H 0.95296 0.16028 0.45179 0.0
H324 H 0.89737 0.10426 0.46124 0.0
H325 H 0.99503 0.13308 0.45677 0.0
H326 H 0.98153 0.06352 0.42576 0.0
H327 H 0.86728 0.13961 0.52952 0.0
H328 H 0.93235 0.17494 0.41893 0.0
H329 H 0.87535 0.11818 0.42771 0.0
C330 C 0.67001 0.20353 0.19751 0.0
C331 C 0.67454 0.22234 0.1827 0.0
N332 N 0.65595 0.23945 0.18439 0.0
N333 N 0.64875 0.2087 0.2086 0.0
C334 C 0.64053 0.23079 0.20035 0.0
H335 H 0.6815 0.187 0.20009 0.0
Co336 Co 0.63794 0.18706 0.23011 0.0
C337 C 0.58787 0.20374 0.2462 0.0
O338 O 0.58205 0.17988 0.24855 0.0
N339 N 0.62873 0.16418 0.25225 0.0
C340 C 0.62002 0.12999 0.27192 0.0
C341 C 0.62462 0.13909 0.25124 0.0
C342 C 0.6268 0.16972 0.27382 0.0
N343 N 0.62134 0.14932 0.28608 0.0
O344 O 0.66042 0.20362 0.24969 0.0
H345 H 0.62514 0.12772 0.23665 0.0
H346 H 0.62967 0.18839 0.28043 0.0
O347 O 0.60962 0.20997 0.23864 0.0
C348 C 0.68177 0.19273 0.25011 0.0
O349 O 0.68304 0.16936 0.24312 0.0
N350 N 0.61823 0.17078 0.20898 0.0
C351 C 0.59939 0.1507 0.17014 0.0
C352 C 0.58786 0.1715 0.17997 0.0
C353 C 0.5979 0.18162 0.19903 0.0
C354 C 0.62986 0.15067 0.19946 0.0
C355 C 0.62043 0.13993 0.18026 0.0
H356 H 0.59028 0.19925 0.20448 0.0
H357 H 0.64731 0.14368 0.20627 0.0
H358 H 0.62337 0.23998 0.20554 0.0
H359 H 0.69036 0.2233 0.17157 0.0
H360 H 0.61599 0.11063 0.27619 0.0
H361 H 0.57173 0.18056 0.17251 0.0
H362 H 0.63023 0.12424 0.17283 0.0
C363 C 0.5628 0.92215 0.93254 0.0
C364 C 0.54356 0.92532 0.91788 0.0
N365 N 0.52491 0.90921 0.92317 0.0
N366 N 0.55642 0.90418 0.94703 0.0
C367 C 0.53319 0.89663 0.94106 0.0
H368 H 0.58027 0.93257 0.9329 0.0
Co369 Co 0.57719 0.89683 0.97019 0.0
C370 C 0.56373 0.84671 0.98783 0.0
O371 O 0.588 0.84297 0.99022 0.0
N372 N 0.59884 0.89121 -0.00588 0.0
C373 C 0.63118 0.8865 0.01694 0.0
C374 C 0.6242 0.8898 -0.00457 0.0
C375 C 0.59101 0.88922 0.01514 0.0
N376 N 0.61022 0.88602 0.02929 0.0
O377 O 0.55789 0.91978 0.98739 0.0
H378 H 0.63713 0.8911 0.98191 0.0
H379 H 0.57143 0.89009 0.01994 0.0
O380 O 0.55573 0.8676 0.97969 0.0
C381 C 0.56669 0.94204 0.98598 0.0
O382 O 0.58933 0.94492 0.97768 0.0
N383 N 0.59604 0.87621 0.95115 0.0
C384 C 0.61808 0.8547 0.91419 0.0
C385 C 0.59599 0.84475 0.92298 0.0
C386 C 0.58501 0.85604 0.94107 0.0
C387 C 0.61745 0.88643 0.9425 0.0
C388 C 0.62925 0.87551 0.9243 0.0
H389 H 0.56647 0.84976 0.94543 0.0
H390 H 0.62444 0.90414 0.94872 0.0
H391 H 0.5227 0.88217 0.94955 0.0
H392 H 0.54326 0.93877 0.90458 0.0
H393 H 0.65021 0.88428 0.02295 0.0
H394 H 0.58654 0.82901 0.91524 0.0
H395 H 0.64598 0.88409 0.91744 0.0
C396 C 0.83986 0.21106 0.78556 0.0
C397 C 0.83688 0.23159 0.79892 0.0
N398 N 0.85735 0.24633 0.79677 0.0
N399 N 0.86204 0.21286 0.77502 0.0
C400 C 0.87231 0.23459 0.78209 0.0
H401 H 0.82683 0.19556 0.78377 0.0
Co402 Co 0.87224 0.18887 0.75519 0.0
C403 C 0.92492 0.19947 0.74317 0.0
O404 O 0.92827 0.17503 0.74464 0.0
N405 N 0.88119 0.16405 0.7344 0.0
C406 C 0.89076 0.12936 0.71575 0.0
C407 C 0.88497 0.13896 0.73604 0.0
C408 C 0.88456 0.16902 0.71287 0.0
N409 N 0.89045 0.14832 0.7011 0.0
O410 O 0.85202 0.2057 0.73393 0.0
H411 H 0.88387 0.12791 0.75078 0.0
H412 H 0.88253 0.18766 0.70603 0.0
O413 O 0.90289 0.20871 0.74675 0.0
C414 C 0.83013 0.1959 0.73318 0.0
O415 O 0.82741 0.17293 0.74082 0.0
N416 N 0.88943 0.17261 0.7781 0.0
C417 C 0.90587 0.15209 0.81754 0.0
C418 C 0.91705 0.17385 0.80917 0.0
C419 C 0.9083 0.18405 0.78965 0.0
C420 C 0.87748 0.15214 0.78674 0.0
C421 C 0.88596 0.14099 0.80613 0.0
H422 H 0.91581 0.20201 0.78474 0.0
H423 H 0.86071 0.14492 0.77891 0.0
H424 H 0.89045 0.24155 0.77679 0.0
H425 H 0.82135 0.23488 0.81003 0.0
H426 H 0.895 0.10987 0.71228 0.0
H427 H 0.93203 0.18328 0.81797 0.0
H428 H 0.8764 0.1246 0.81262 0.0
C429 C 0.55545 0.09073 0.53771 0.0
C430 C 0.53638 0.08632 0.55232 0.0
N431 N 0.5193 0.10492 0.55028 0.0
N432 N 0.55049 0.11199 0.52654 0.0
C433 C 0.52829 0.12022 0.53439 0.0
H434 H 0.57214 0.07937 0.53549 0.0
Co435 Co 0.57211 0.12335 0.50537 0.0
C436 C 0.55886 0.17605 0.49476 0.0
O437 O 0.58322 0.18009 0.49387 0.0
N438 N 0.59492 0.13325 0.48323 0.0
C439 C 0.62894 0.14182 0.46327 0.0
C440 C 0.62009 0.137 0.48396 0.0
C441 C 0.58906 0.13599 0.46177 0.0
N442 N 0.60941 0.14106 0.44931 0.0
O443 O 0.55352 0.10363 0.48496 0.0
H444 H 0.63185 0.13606 0.49826 0.0
H445 H 0.57028 0.1335 0.45529 0.0
O446 O 0.55078 0.1537 0.49894 0.0
C447 C 0.56163 0.0812 0.48281 0.0
O448 O 0.58522 0.07659 0.48783 0.0
N449 N 0.5899 0.14045 0.52752 0.0
C450 C 0.61254 0.1575 0.56586 0.0
C451 C 0.59001 0.16807 0.55858 0.0
C452 C 0.57873 0.15895 0.5397 0.0
C453 C 0.61111 0.12893 0.5352 0.0
C454 C 0.62333 0.13776 0.554 0.0
H455 H 0.56015 0.16579 0.53596 0.0
H456 H 0.61816 0.11227 0.52708 0.0
H457 H 0.51909 0.13717 0.52874 0.0
H458 H 0.53575 0.07117 0.56417 0.0
H459 H 0.64835 0.14533 0.45884 0.0
H460 H 0.58075 0.18282 0.56783 0.0
H461 H 0.64031 0.12861 0.55971 0.0
C462 C 0.66102 0.78533 0.2676 0.0
C463 C 0.66354 0.76565 0.28196 0.0
N464 N 0.6407 0.75524 0.28492 0.0
N465 N 0.63676 0.78723 0.2614 0.0
C466 C 0.62475 0.76872 0.2723 0.0
H467 H 0.67585 0.79795 0.26247 0.0
Co468 Co 0.62517 0.81142 0.24216 0.0
C469 C 0.58563 0.77784 0.22127 0.0
O470 O 0.59906 0.77264 0.20379 0.0
N471 N 0.61435 0.83618 0.22257 0.0
C472 C 0.60702 0.87357 0.20757 0.0
C473 C 0.61219 0.86103 0.22674 0.0
C474 C 0.61062 0.83412 0.20076 0.0
N475 N 0.60621 0.85661 0.19119 0.0
O476 O 0.64451 0.79504 0.21981 0.0
H477 H 0.61524 0.86969 0.24254 0.0
H478 H 0.61292 0.81675 0.1918 0.0
O479 O 0.59488 0.79167 0.23631 0.0
C480 C 0.66585 0.80564 0.21718 0.0
O481 O 0.66801 0.82928 0.22322 0.0
N482 N 0.6084 0.82747 0.26514 0.0
C483 C 0.5871 0.84653 0.30318 0.0
C484 C 0.57188 0.8403 0.28523 0.0
C485 C 0.58295 0.83076 0.26623 0.0
C486 C 0.62354 0.83526 0.28183 0.0
C487 C 0.61324 0.84447 0.3012 0.0
H488 H 0.57103 0.82578 0.25257 0.0
H489 H 0.64373 0.8335 0.28036 0.0
H490 H 0.60471 0.7654 0.27121 0.0
H491 H 0.68065 0.76015 0.2903 0.0
H492 H 0.60485 0.89372 0.20577 0.0
H493 H 0.5516 0.84199 0.28614 0.0
H494 H 0.62557 0.84969 0.31458 0.0
C495 C 0.94851 0.90706 0.03112 0.0
C496 C 0.96207 0.91858 0.0474 0.0
N497 N 0.98568 0.90933 0.047 0.0
N498 N 0.96343 0.89055 0.02058 0.0
C499 C 0.98602 0.89241 0.03047 0.0
H500 H 0.92901 0.91054 0.02706 0.0
Co501 Co 0.95288 0.87235 -0.00348 0.0
C502 C 0.99595 0.83895 0.98619 0.0
O503 O 0.99905 0.85015 0.96719 0.0
N504 N 0.94159 0.8545 0.97212 0.0
C505 C 0.92968 0.82345 0.95011 0.0
C506 C 0.93888 0.82932 0.9705 0.0
C507 C 0.93372 0.86354 0.95262 0.0
N508 N 0.92639 0.84502 0.93885 0.0
O509 O 0.97326 0.89402 0.97887 0.0
H510 H 0.9433 0.81604 0.98336 0.0
H511 H 0.933 0.88336 0.94872 0.0
O512 O 0.97986 0.84762 -0.00025 0.0
C513 C 0.96246 0.91532 0.97675 0.0
O514 O 0.9381 0.91639 0.98044 0.0
N515 N 0.93242 0.85314 0.0149 0.0
C516 C 0.90153 0.83533 0.04809 0.0
C517 C 0.92756 0.83188 0.04916 0.0
C518 C 0.9427 0.84103 0.03249 0.0
C519 C 0.90697 0.8557 0.01302 0.0
C520 C 0.891 0.8466 0.02948 0.0
H521 H 0.96281 0.84002 0.03473 0.0
H522 H 0.89917 0.86603 -0.00066 0.0
H523 H 1.00222 0.88127 0.02588 0.0
H524 H 0.95506 0.93266 0.05865 0.0
H525 H 0.92602 0.80468 0.94404 0.0
H526 H 0.93625 0.82312 0.06331 0.0
H527 H 0.87089 0.84956 0.02826 0.0
C528 C 0.64751 0.68162 0.79703 0.0
C529 C 0.65309 0.6992 0.81262 0.0
N530 N 0.63973 0.72017 0.8083 0.0
N531 N 0.63054 0.69121 0.78294 0.0
C532 C 0.62621 0.71486 0.79007 0.0
H533 H 0.65623 0.66334 0.79545 0.0
Co534 Co 0.62229 0.67385 0.75781 0.0
C535 C 0.57051 0.68905 0.74405 0.0
O536 O 0.56731 0.66591 0.73712 0.0
N537 N 0.61564 0.65514 0.73195 0.0
C538 C 0.60667 0.62417 0.70864 0.0
C539 C 0.6076 0.63103 0.7302 0.0
C540 C 0.61945 0.66238 0.7109 0.0
N541 N 0.61432 0.64379 0.69644 0.0
O542 O 0.64305 0.69704 0.7419 0.0
H543 H 0.60198 0.6189 0.74345 0.0
H544 H 0.62627 0.68078 0.70623 0.0
O545 O 0.59167 0.6953 0.75279 0.0
C546 C 0.66585 0.6896 0.74265 0.0
O547 O 0.6702 0.66654 0.74949 0.0
N548 N 0.60454 0.65086 0.7753 0.0
C549 C 0.58745 0.61822 0.80768 0.0
C550 C 0.57332 0.63938 0.80176 0.0
C551 C 0.58255 0.65591 0.786 0.0
C552 C 0.61859 0.63035 0.78101 0.0
C553 C 0.61035 0.61368 0.79716 0.0
H554 H 0.57275 0.67344 0.78378 0.0
H555 H 0.63672 0.62742 0.77338 0.0
H556 H 0.61396 0.72803 0.78177 0.0
H557 H 0.66681 0.69701 0.82558 0.0
H558 H 0.60037 0.60616 0.70247 0.0
H559 H 0.55613 0.64409 0.8104 0.0
H560 H 0.62205 0.59787 0.80182 0.0
C561 C 0.55329 0.42718 0.0356 0.0
C562 C 0.53427 0.43312 0.04982 0.0
N563 N 0.51766 0.41396 0.04991 0.0
N564 N 0.5487 0.40447 0.0267 0.0
C565 C 0.52678 0.39684 0.03558 0.0
H566 H 0.56958 0.43862 0.03193 0.0
Co567 Co 0.57063 0.39124 0.00661 0.0
C568 C 0.55658 0.33842 -0.00219 0.0
O569 O 0.58089 0.33399 -0.00155 0.0
N570 N 0.59371 0.37944 0.98548 0.0
C571 C 0.62715 0.36727 0.96633 0.0
C572 C 0.6186 0.37447 0.98661 0.0
C573 C 0.58778 0.37527 0.96425 0.0
N574 N 0.60774 0.36786 0.95212 0.0
O575 O 0.55344 0.41055 0.98492 0.0
H576 H 0.63022 0.37591 0.00099 0.0
H577 H 0.56902 0.37797 0.95787 0.0
O578 O 0.54858 0.36108 0.00073 0.0
C579 C 0.56297 0.43219 0.98138 0.0
O580 O 0.58692 0.43556 0.98588 0.0
N581 N 0.58712 0.37477 0.02992 0.0
C582 C 0.60803 0.35912 0.06962 0.0
C583 C 0.58551 0.34872 0.062 0.0
C584 C 0.57506 0.35725 0.04254 0.0
C585 C 0.60846 0.38601 0.03761 0.0
C586 C 0.61968 0.37798 0.05716 0.0
H587 H 0.5565 0.35059 0.03853 0.0
H588 H 0.61638 0.40188 0.0289 0.0
H589 H 0.51817 0.37881 0.0322 0.0
H590 H 0.53295 0.45012 0.0595 0.0
H591 H 0.64635 0.36219 0.96255 0.0
H592 H 0.57566 0.33435 0.07123 0.0
H593 H 0.63673 0.38703 0.06285 0.0
C594 C 0.84005 0.29152 0.28547 0.0
C595 C 0.83652 0.27115 0.29894 0.0
N596 N 0.85721 0.25657 0.29783 0.0
N597 N 0.86281 0.28978 0.27592 0.0
C598 C 0.87288 0.26827 0.28367 0.0
H599 H 0.82695 0.3068 0.28283 0.0
Co600 Co 0.87372 0.31349 0.25618 0.0
C601 C 0.92771 0.30468 0.24781 0.0
O602 O 0.93036 0.32921 0.24914 0.0
N603 N 0.88343 0.33801 0.23545 0.0
C604 C 0.89114 0.37298 0.21648 0.0
C605 C 0.88515 0.36338 0.23672 0.0
C606 C 0.88857 0.33282 0.21423 0.0
N607 N 0.8932 0.3537 0.20233 0.0
O608 O 0.85679 0.29477 0.23413 0.0
H609 H 0.88197 0.37465 0.25109 0.0
H610 H 0.88811 0.31402 0.20746 0.0
O611 O 0.90575 0.2949 0.25039 0.0
C612 C 0.83446 0.30245 0.23059 0.0
O613 O 0.82891 0.32583 0.23568 0.0
N614 N 0.88776 0.33134 0.2797 0.0
C615 C 0.89837 0.35301 0.3201 0.0
C616 C 0.91193 0.33211 0.31285 0.0
C617 C 0.90606 0.32127 0.29279 0.0
C618 C 0.87362 0.35103 0.2871 0.0
C619 C 0.87915 0.36276 0.30701 0.0
H620 H 0.91515 0.30377 0.28874 0.0
H621 H 0.85729 0.35702 0.2779 0.0
H622 H 0.8913 0.26139 0.27912 0.0
H623 H 0.82036 0.26782 0.30933 0.0
H624 H 0.89349 0.39268 0.21247 0.0
H625 H 0.92644 0.32371 0.32297 0.0
H626 H 0.86784 0.37846 0.31258 0.0
C627 C 0.95391 0.58762 0.53014 0.0
C628 C 0.96927 0.58229 0.54751 0.0
N629 N 0.98527 0.60166 0.55007 0.0
N630 N 0.96017 0.61022 0.52171 0.0
C631 C 0.9795 0.6184 0.53416 0.0
H632 H 0.93835 0.57621 0.52454 0.0
Co633 Co 0.94063 0.62391 0.49982 0.0
C634 C 0.96184 0.67361 0.48619 0.0
O635 O 0.93893 0.68078 0.4812 0.0
N636 N 0.91938 0.63611 0.47729 0.0
C637 C 0.88685 0.65134 0.45855 0.0
C638 C 0.8957 0.6452 0.47895 0.0
C639 C 0.92424 0.63665 0.45549 0.0
N640 N 0.90477 0.64592 0.4437 0.0
O641 O 0.9575 0.6022 0.47969 0.0
H642 H 0.88522 0.64768 0.4939 0.0
H643 H 0.94177 0.63025 0.44844 0.0
O644 O 0.96568 0.65149 0.49414 0.0
C645 C 0.94632 0.58114 0.47737 0.0
O646 O 0.92225 0.58006 0.48224 0.0
N647 N 0.92401 0.64279 0.52135 0.0
C648 C 0.90159 0.66072 0.55955 0.0
C649 C 0.92279 0.67263 0.55075 0.0
C650 C 0.93399 0.66314 0.53192 0.0
C651 C 0.90357 0.63072 0.52989 0.0
C652 C 0.89172 0.63966 0.54878 0.0
H653 H 0.95153 0.67141 0.52703 0.0
H654 H 0.89684 0.61365 0.52222 0.0
H655 H 0.98807 0.63678 0.53252 0.0
H656 H 0.96819 0.56588 0.55799 0.0
H657 H 0.86864 0.65952 0.45509 0.0
H658 H 0.9311 0.68888 0.55867 0.0
H659 H 0.87561 0.62968 0.55531 0.0
C660 C 0.67434 0.30823 0.69971 0.0
C661 C 0.67779 0.2898 0.68427 0.0
N662 N 0.65629 0.27653 0.68266 0.0
N663 N 0.65076 0.30669 0.70773 0.0
C664 C 0.64016 0.28721 0.69701 0.0
H665 H 0.68836 0.32154 0.70524 0.0
Co666 Co 0.63999 0.32572 0.73125 0.0
C667 C 0.60051 0.28778 0.74513 0.0
O668 O 0.61518 0.27652 0.75941 0.0
N669 N 0.63022 0.34503 0.75518 0.0
C670 C 0.62243 0.3775 0.77707 0.0
C671 C 0.62882 0.37037 0.75615 0.0
C672 C 0.6251 0.3372 0.77573 0.0
N673 N 0.62024 0.35657 0.78935 0.0
O674 O 0.65824 0.3032 0.74956 0.0
H675 H 0.63286 0.38295 0.74267 0.0
H676 H 0.62552 0.31772 0.78079 0.0
O677 O 0.60902 0.30598 0.73368 0.0
C678 C 0.68066 0.30992 0.75398 0.0
O679 O 0.6866 0.3338 0.75186 0.0
N680 N 0.62362 0.34792 0.71218 0.0
C681 C 0.6015 0.37473 0.67823 0.0
C682 C 0.58674 0.36502 0.69529 0.0
C683 C 0.59821 0.35172 0.71225 0.0
C684 C 0.63843 0.3595 0.69698 0.0
C685 C 0.62772 0.37269 0.67959 0.0
H686 H 0.58656 0.34391 0.72506 0.0
H687 H 0.65864 0.35754 0.69778 0.0
H688 H 0.62137 0.28035 0.70024 0.0
H689 H 0.69484 0.28641 0.67504 0.0
H690 H 0.62068 0.3966 0.78303 0.0
H691 H 0.56642 0.36645 0.69494 0.0
H692 H 0.63974 0.38051 0.66697 0.0
C693 C 0.96394 0.41429 0.95513 0.0
C694 C 0.98313 0.41896 0.94075 0.0
N695 N 0.99825 0.39862 0.9403 0.0
N696 N 0.96691 0.3912 0.96382 0.0
C697 C 0.98807 0.38204 0.9546 0.0
H698 H 0.94864 0.42691 0.95909 0.0
Co699 Co 0.94426 0.37984 0.98419 0.0
C700 C 0.95525 0.32663 -0.00547 0.0
O701 O 0.93077 0.32324 -0.00561 0.0
N702 N 0.92051 0.37007 0.00553 0.0
C703 C 0.88587 0.36217 0.02487 0.0
C704 C 0.89523 0.36732 0.00438 0.0
C705 C 0.92589 0.36642 0.02696 0.0
N706 N 0.9052 0.36172 0.03907 0.0
O707 O 0.96304 0.39789 0.0056 0.0
H708 H 0.88385 0.36923 0.9899 0.0
H709 H 0.94465 0.36801 0.0337 0.0
O710 O 0.96421 0.34862 0.99028 0.0
C711 C 0.95559 0.4203 0.00912 0.0
O712 O 0.93244 0.42631 0.00365 0.0
N713 N 0.92638 0.36436 0.96127 0.0
C714 C 0.90455 0.3512 0.92144 0.0
C715 C 0.9257 0.3384 0.92914 0.0
C716 C 0.93659 0.34551 0.94888 0.0
C717 C 0.9063 0.37767 0.95348 0.0
C718 C 0.89453 0.37089 0.93385 0.0
H719 H 0.95427 0.33692 0.95312 0.0
H720 H 0.9 0.39428 0.96213 0.0
H721 H 0.99543 0.36341 0.95783 0.0
H722 H 0.98565 0.43601 0.93131 0.0
H723 H 0.86627 0.3593 0.02899 0.0
H724 H 0.93431 0.32355 0.91955 0.0
H725 H 0.87861 0.38165 0.92793 0.0
C726 C 0.83219 0.70181 0.18897 0.0
C727 C 0.82798 0.71941 0.17298 0.0
N728 N 0.84604 0.73714 0.17441 0.0
N729 N 0.8528 0.7083 0.20043 0.0
C730 C 0.86084 0.72998 0.19135 0.0
H731 H 0.82117 0.68504 0.19193 0.0
Co732 Co 0.86377 0.68857 0.22318 0.0
C733 C 0.91564 0.70375 0.23489 0.0
O734 O 0.92024 0.67955 0.23677 0.0
N735 N 0.8733 0.66772 0.24691 0.0
C736 C 0.88411 0.63585 0.26868 0.0
C737 C 0.87748 0.64262 0.24777 0.0
C738 C 0.87699 0.67556 0.26779 0.0
N739 N 0.88384 0.65659 0.28126 0.0
O740 O 0.84285 0.70816 0.24195 0.0
H741 H 0.87593 0.6296 0.23435 0.0
H742 H 0.87523 0.69498 0.2729 0.0
O743 O 0.89341 0.71104 0.22931 0.0
C744 C 0.8205 0.69979 0.24403 0.0
O745 O 0.81641 0.67584 0.24008 0.0
N746 N 0.88222 0.66961 0.20256 0.0
C747 C 0.90148 0.64493 0.16588 0.0
C748 C 0.9112 0.66816 0.17244 0.0
C749 C 0.90097 0.68042 0.19042 0.0
C750 C 0.87158 0.64762 0.19562 0.0
C751 C 0.88149 0.63445 0.17771 0.0
H752 H 0.90727 0.69936 0.19345 0.0
H753 H 0.85474 0.64068 0.20353 0.0
H754 H 0.8773 0.74009 0.1969 0.0
H755 H 0.81333 0.71857 0.16069 0.0
H756 H 0.88833 0.61698 0.2743 0.0
H757 H 0.92631 0.67714 0.16343 0.0
H758 H 0.87299 0.61687 0.17264 0.0
C759 C 0.54368 0.59031 0.4485 0.0
C760 C 0.52326 0.58843 0.43487 0.0
N761 N 0.50946 0.60953 0.43701 0.0
N762 N 0.54272 0.61241 0.45927 0.0
C763 C 0.52163 0.62379 0.45197 0.0
H764 H 0.55855 0.57659 0.45028 0.0
Co765 Co 0.56713 0.62118 0.47928 0.0
C766 C 0.5571 0.67293 0.49459 0.0
O767 O 0.58154 0.67623 0.49327 0.0
N768 N 0.59237 0.62862 0.50006 0.0
C769 C 0.62735 0.63754 0.51867 0.0
C770 C 0.61743 0.63277 0.49824 0.0
C771 C 0.58777 0.6306 0.52176 0.0
N772 N 0.6086 0.63606 0.53338 0.0
O773 O 0.55054 0.59966 0.49983 0.0
H774 H 0.62814 0.63256 0.48326 0.0
H775 H 0.56924 0.6286 0.5289 0.0
O776 O 0.54764 0.65142 0.48937 0.0
C777 C 0.56053 0.57783 0.4998 0.0
O778 O 0.58316 0.57549 0.49135 0.0
N779 N 0.58314 0.63961 0.4571 0.0
C780 C 0.60112 0.65594 0.41673 0.0
C781 C 0.581 0.66825 0.42681 0.0
C782 C 0.57201 0.65957 0.44678 0.0
C783 C 0.60262 0.62724 0.44729 0.0
C784 C 0.61242 0.63552 0.4273 0.0
H785 H 0.55481 0.66777 0.45276 0.0
H786 H 0.60969 0.61001 0.45445 0.0
H787 H 0.51543 0.64219 0.45729 0.0
H788 H 0.5194 0.57319 0.42359 0.0
H789 H 0.6469 0.64128 0.52245 0.0
H790 H 0.5715 0.68377 0.41878 0.0
H791 H 0.62758 0.62519 0.41958 0.0
C792 C 0.34662 0.30373 0.19646 0.0
C793 C 0.34124 0.28381 0.183 0.0
N794 N 0.35782 0.2653 0.18731 0.0
N795 N 0.36649 0.29783 0.20915 0.0
C796 C 0.37304 0.27428 0.20321 0.0
H797 H 0.33641 0.3213 0.19732 0.0
Co798 Co 0.37648 0.3188 0.23137 0.0
C799 C 0.4277 0.30398 0.24566 0.0
O800 O 0.43257 0.32807 0.24794 0.0
N801 N 0.38496 0.34069 0.25441 0.0
C802 C 0.39245 0.3735 0.27603 0.0
C803 C 0.38715 0.36601 0.255 0.0
C804 C 0.38854 0.33339 0.27539 0.0
N805 N 0.39342 0.35291 0.28888 0.0
O806 O 0.35486 0.30027 0.25034 0.0
H807 H 0.38473 0.37862 0.24134 0.0
H808 H 0.38798 0.3139 0.28048 0.0
O809 O 0.40595 0.29685 0.23877 0.0
C810 C 0.33313 0.31042 0.25034 0.0
O811 O 0.3313 0.33377 0.24338 0.0
N812 N 0.39516 0.3371 0.21083 0.0
C813 C 0.41209 0.36021 0.17259 0.0
C814 C 0.4243 0.33891 0.18091 0.0
C815 C 0.41517 0.32726 0.19967 0.0
C816 C 0.38288 0.35766 0.20278 0.0
C817 C 0.39135 0.36989 0.18392 0.0
H818 H 0.42313 0.3093 0.20392 0.0
H819 H 0.36547 0.3637 0.2103 0.0
H820 H 0.38816 0.26371 0.21072 0.0
H821 H 0.32651 0.28312 0.17077 0.0
H822 H 0.39475 0.39275 0.28145 0.0
H823 H 0.4402 0.33064 0.17246 0.0
H824 H 0.38094 0.38586 0.17762 0.0
C825 C 0.45415 0.60026 0.95182 0.0
C826 C 0.4687 0.58843 0.93641 0.0
N827 N 0.49246 0.5971 0.93822 0.0
N828 N 0.46855 0.61647 0.96318 0.0
C829 C 0.49183 0.61409 0.9547 0.0
H830 H 0.43427 0.5973 0.95463 0.0
Co831 Co 0.45657 0.63468 0.9866 0.0
C832 C 0.49809 0.66915 -0.00139 0.0
O833 O 0.50018 0.65834 0.01788 0.0
N834 N 0.44384 0.65274 0.01033 0.0
C835 C 0.42987 0.68418 0.03098 0.0
C836 C 0.43898 0.67768 0.01073 0.0
C837 C 0.43744 0.64448 0.03049 0.0
N838 N 0.42894 0.66326 0.04343 0.0
O839 O 0.47625 0.61339 0.00517 0.0
H840 H 0.44189 0.6904 -0.00287 0.0
H841 H 0.43938 0.62516 0.03573 0.0
O842 O 0.48332 0.65975 0.9843 0.0
C843 C 0.46496 0.59231 0.00707 0.0
O844 O 0.44069 0.59178 0.00291 0.0
N845 N 0.43677 0.65326 0.96726 0.0
C846 C 0.40706 0.67058 0.93291 0.0
C847 C 0.43278 0.67624 0.93376 0.0
C848 C 0.44738 0.66698 0.95076 0.0
C849 C 0.41156 0.64859 0.96744 0.0
C850 C 0.39623 0.65716 0.95036 0.0
H851 H 0.46746 0.66957 0.94969 0.0
H852 H 0.4036 0.63696 0.98024 0.0
H853 H 0.50795 0.62447 0.96064 0.0
H854 H 0.46201 0.57509 0.92435 0.0
H855 H 0.42409 0.70283 0.03599 0.0
H856 H 0.44188 0.68696 0.9209 0.0
H857 H 0.37646 0.65228 0.95027 0.0
C858 C 0.14743 0.69723 0.7016 0.0
C859 C 0.1591 0.71174 0.68606 0.0
N860 N 0.15181 0.73582 0.68891 0.0
N861 N 0.1327 0.712 0.71409 0.0
C862 C 0.13575 0.73545 0.70609 0.0
H863 H 0.14959 0.67715 0.70379 0.0
Co864 Co 0.11573 0.69987 0.73817 0.0
C865 C 0.08251 0.74193 0.75238 0.0
O866 O 0.0936 0.7433 0.77158 0.0
N867 N 0.09907 0.68688 0.76259 0.0
C868 C 0.06927 0.67383 0.78544 0.0
C869 C 0.0741 0.68305 0.76482 0.0
C870 C 0.10902 0.67964 0.78193 0.0
N871 N 0.09128 0.67172 0.79624 0.0
O872 O 0.13876 0.71853 0.75606 0.0
H873 H 0.06022 0.68704 0.75236 0.0
H874 H 0.12892 0.68012 0.78545 0.0
O875 O 0.09138 0.72736 0.73768 0.0
C876 C 0.15991 0.70718 0.75666 0.0
O877 O 0.16033 0.68325 0.75119 0.0
N878 N 0.09514 0.68126 0.71929 0.0
C879 C 0.07607 0.65445 0.68384 0.0
C880 C 0.07112 0.68016 0.68617 0.0
C881 C 0.08126 0.6933 0.70363 0.0
C882 C 0.09878 0.65589 0.71824 0.0
C883 C 0.0893 0.64198 0.70054 0.0
H884 H 0.07954 0.7135 0.70331 0.0
H885 H 0.11053 0.64674 0.73033 0.0
H886 H 0.12667 0.75188 0.71294 0.0
H887 H 0.17144 0.7049 0.67329 0.0
H888 H 0.05086 0.66965 0.79207 0.0
H889 H 0.06059 0.69046 0.67388 0.0
H890 H 0.09355 0.62211 0.6993 0.0
C891 C 0.04244 0.41488 0.45018 0.0
C892 C 0.02147 0.41785 0.43737 0.0
N893 N 0.00617 0.39806 0.44089 0.0
N894 N 0.04034 0.39337 0.4617 0.0
C895 C 0.01807 0.38341 0.4557 0.0
H896 H 0.05817 0.42772 0.45133 0.0
Co897 Co 0.06377 0.38494 0.4824 0.0
C898 C 0.05436 0.33242 0.49669 0.0
O899 O 0.07893 0.32983 0.49738 0.0
N900 N 0.08815 0.3781 0.504 0.0
C901 C 0.12325 0.37335 0.52347 0.0
C902 C 0.11353 0.37682 0.50283 0.0
C903 C 0.08306 0.37546 0.52559 0.0
N904 N 0.10402 0.37255 0.53778 0.0
O905 O 0.045 0.40487 0.50257 0.0
H906 H 0.12468 0.3786 0.48818 0.0
H907 H 0.06423 0.37626 0.5323 0.0
O908 O 0.0449 0.35377 0.49102 0.0
C909 C 0.05301 0.4274 0.50417 0.0
O910 O 0.0764 0.43208 0.49848 0.0
N911 N 0.08166 0.36771 0.46051 0.0
C912 C 0.10301 0.35151 0.42121 0.0
C913 C 0.08281 0.3385 0.43058 0.0
C914 C 0.07199 0.34726 0.44984 0.0
C915 C 0.10091 0.38101 0.45128 0.0
C916 C 0.11232 0.3729 0.43189 0.0
H917 H 0.05473 0.33849 0.45498 0.0
H918 H 0.10665 0.39871 0.45846 0.0
H919 H 0.01055 0.36604 0.46223 0.0
H920 H 0.01799 0.43309 0.42599 0.0
H921 H 0.14298 0.37164 0.52758 0.0
H922 H 0.07477 0.32211 0.42269 0.0
H923 H 0.12741 0.38391 0.42478 0.0
C924 C 0.32757 0.71709 0.2862 0.0
C925 C 0.32478 0.73585 0.30131 0.0
N926 N 0.34583 0.74997 0.30123 0.0
N927 N 0.35011 0.71939 0.27636 0.0
C928 C 0.36087 0.73972 0.28572 0.0
H929 H 0.31411 0.70236 0.28275 0.0
Co930 Co 0.35908 0.69617 0.25549 0.0
C931 C 0.41063 0.70663 0.23996 0.0
O932 O 0.41377 0.68214 0.24128 0.0
N933 N 0.36617 0.6719 0.23383 0.0
C934 C 0.37252 0.63739 0.2139 0.0
C935 C 0.36738 0.64649 0.23452 0.0
C936 C 0.36997 0.6776 0.2125 0.0
N937 N 0.37417 0.65705 0.20008 0.0
O938 O 0.33737 0.71364 0.2355 0.0
H939 H 0.36468 0.63494 0.24882 0.0
H940 H 0.37042 0.6967 0.20638 0.0
O941 O 0.38937 0.71633 0.24571 0.0
C942 C 0.31545 0.70386 0.23473 0.0
O943 O 0.31275 0.68072 0.24198 0.0
N944 N 0.37802 0.67925 0.2771 0.0
C945 C 0.39723 0.65865 0.31563 0.0
C946 C 0.40817 0.68003 0.30638 0.0
C947 C 0.39809 0.69028 0.28737 0.0
C948 C 0.3666 0.65887 0.28642 0.0
C949 C 0.37638 0.64773 0.30539 0.0
H950 H 0.40557 0.70806 0.282 0.0
H951 H 0.34903 0.65201 0.2798 0.0
H952 H 0.37964 0.74624 0.28185 0.0
H953 H 0.30857 0.73857 0.31177 0.0
H954 H 0.37461 0.61779 0.20944 0.0
H955 H 0.42393 0.68931 0.31425 0.0
H956 H 0.36697 0.63165 0.3126 0.0
C957 C 0.07351 0.59044 0.05424 0.0
C958 C 0.05505 0.58613 0.06943 0.0
N959 N 0.03469 0.59987 0.06389 0.0
N960 N 0.06497 0.60685 0.03918 0.0
C961 C 0.04121 0.61225 0.04534 0.0
H962 H 0.09188 0.58172 0.05384 0.0
Co963 Co 0.08407 0.61456 0.015 0.0
C964 C 0.06795 0.66402 -0.00239 0.0
O965 O 0.09191 0.66853 -0.00586 0.0
N966 N 0.10409 0.6206 0.99006 0.0
C967 C 0.13472 0.62762 0.96596 0.0
C968 C 0.12918 0.6237 0.9877 0.0
C969 C 0.095 0.62206 0.9694 0.0
N970 N 0.11314 0.62673 0.95445 0.0
O971 O 0.06443 0.59089 -0.00113 0.0
H972 H 0.14287 0.62354 0.0007 0.0
H973 H 0.07524 0.62013 0.96551 0.0
O974 O 0.06113 0.64299 0.0063 0.0
C975 C 0.0735 0.56878 0.00063 0.0
O976 O 0.09637 0.56639 0.00856 0.0
N977 N 0.10341 0.63596 0.03299 0.0
C978 C 0.12636 0.65767 0.06945 0.0
C979 C 0.10385 0.66734 0.06122 0.0
C980 C 0.09242 0.65592 0.04341 0.0
C981 C 0.12544 0.62626 0.04087 0.0
C982 C 0.13764 0.63725 0.05884 0.0
H983 H 0.07357 0.66181 0.03968 0.0
H984 H 0.13261 0.60878 0.03431 0.0
H985 H 0.02901 0.62489 0.03639 0.0
H986 H 0.05641 0.57338 0.0832 0.0
H987 H 0.15318 0.63153 0.9593 0.0
H988 H 0.09434 0.68279 0.06933 0.0
H989 H 0.15471 0.62889 0.06523 0.0
C990 C 0.17033 0.29143 0.78121 0.0
C991 C 0.1734 0.27098 0.79465 0.0
N992 N 0.15205 0.25734 0.79412 0.0
N993 N 0.14725 0.29064 0.77216 0.0
C994 C 0.13647 0.26964 0.78028 0.0
H995 H 0.18393 0.30621 0.77836 0.0
Co996 Co 0.13684 0.31536 0.75316 0.0
C997 C 0.08369 0.30582 0.74157 0.0
O998 O 0.08064 0.33029 0.74325 0.0
N999 N 0.12782 0.34101 0.73332 0.0
C1000 C 0.12092 0.37706 0.71573 0.0
C1001 C 0.1264 0.36628 0.73565 0.0
C1002 C 0.12324 0.33706 0.71181 0.0
N1003 N 0.11896 0.35861 0.70074 0.0
O1004 O 0.15588 0.2988 0.73097 0.0
H1005 H 0.12951 0.37662 0.75058 0.0
H1006 H 0.12372 0.31863 0.70429 0.0
O1007 O 0.10563 0.29628 0.745 0.0
C1008 C 0.17763 0.30831 0.72793 0.0
O1009 O 0.18138 0.33177 0.7339 0.0
N1010 N 0.12076 0.33119 0.77685 0.0
C1011 C 0.10674 0.34992 0.81776 0.0
C1012 C 0.0936 0.32992 0.80821 0.0
C1013 C 0.10128 0.32043 0.78811 0.0
C1014 C 0.13425 0.35018 0.78624 0.0
C1015 C 0.12721 0.3603 0.80647 0.0
H1016 H 0.09244 0.30336 0.7826 0.0
H1017 H 0.15129 0.35677 0.77842 0.0
H1018 H 0.11753 0.26366 0.77639 0.0
H1019 H 0.18966 0.26706 0.80477 0.0
H1020 H 0.11875 0.39698 0.71254 0.0
H1021 H 0.07786 0.32112 0.81649 0.0
H1022 H 0.1383 0.37528 0.81363 0.0
C1023 C 0.44752 0.41756 0.54288 0.0
C1024 C 0.46582 0.42317 0.55788 0.0
N1025 N 0.48425 0.40587 0.5561 0.0
N1026 N 0.45422 0.39676 0.53177 0.0
C1027 C 0.47673 0.38999 0.54007 0.0
H1028 H 0.43033 0.42798 0.54011 0.0
Co1029 Co 0.43457 0.38508 0.5093 0.0
C1030 C 0.44723 0.33158 0.50176 0.0
O1031 O 0.42284 0.32767 0.50063 0.0
N1032 N 0.41401 0.37469 0.48582 0.0
C1033 C 0.38228 0.3661 0.46327 0.0
C1034 C 0.38869 0.37302 0.48415 0.0
C1035 C 0.42242 0.36888 0.46553 0.0
N1036 N 0.40352 0.3635 0.45151 0.0
O1037 O 0.45583 0.40317 0.48977 0.0
H1038 H 0.37523 0.37705 0.49681 0.0
H1039 H 0.44214 0.36868 0.46116 0.0
O1040 O 0.45547 0.35395 0.5055 0.0
C1041 C 0.44842 0.42561 0.48628 0.0
O1042 O 0.42475 0.43112 0.4902 0.0
N1043 N 0.41382 0.36981 0.53039 0.0
C1044 C 0.38579 0.35618 0.56704 0.0
C1045 C 0.4086 0.34421 0.56241 0.0
C1046 C 0.4226 0.35167 0.54432 0.0
C1047 C 0.3924 0.3827 0.53553 0.0
C1048 C 0.37753 0.37559 0.55338 0.0
H1049 H 0.44119 0.34385 0.5425 0.0
H1050 H 0.38732 0.39927 0.52623 0.0
H1051 H 0.48746 0.37402 0.5343 0.0
H1052 H 0.46527 0.4385 0.56954 0.0
H1053 H 0.36331 0.36416 0.45705 0.0
H1054 H 0.41592 0.32963 0.57308 0.0
H1055 H 0.36045 0.38588 0.55705 0.0
H1056 H 0.07504 0.11719 0.068 0.0
H1057 H 0.14779 0.15296 0.06235 0.0
H1058 H 0.07596 0.12353 0.10743 0.0
H1059 H 0.14929 0.15805 0.10189 0.0
H1060 H 0.13539 0.18434 0.17102 0.0
H1061 H 0.13077 0.18113 0.13153 0.0
H1062 H 0.09744 0.10746 0.13903 0.0
H1063 H 0.10081 0.11123 0.17862 0.0
C1064 C 0.0912 0.12649 0.07509 0.0
C1065 C 0.11136 0.13454 0.06189 0.0
C1066 C 0.09186 0.12984 0.09778 0.0
C1067 C 0.11272 0.14124 0.10786 0.0
C1068 C 0.13278 0.14948 0.09466 0.0
C1069 C 0.13208 0.14623 0.07197 0.0
C1070 C 0.12664 0.16764 0.16435 0.0
C1071 C 0.11854 0.148 0.17811 0.0
C1072 C 0.12431 0.16566 0.14162 0.0
C1073 C 0.11392 0.14396 0.13207 0.0
C1074 C 0.10534 0.12454 0.14583 0.0
C1075 C 0.10757 0.12657 0.16856 0.0
H1076 H 0.14709 0.87741 0.41972 0.0
H1077 H 0.06812 0.86035 0.42842 0.0
H1078 H 0.14279 0.87109 0.38059 0.0
H1079 H 0.06381 0.85494 0.38884 0.0
H1080 H 0.06787 0.88254 0.31448 0.0
H1081 H 0.0684 0.88364 0.35458 0.0
H1082 H 0.13284 0.83418 0.35487 0.0
H1083 H 0.13234 0.83317 0.3148 0.0
C1084 C 0.12883 0.87213 0.41343 0.0
C1085 C 0.10801 0.86921 0.42747 0.0
C1086 C 0.12641 0.86853 0.39092 0.0
C1087 C 0.10305 0.86226 0.38176 0.0
C1088 C 0.08205 0.85979 0.39555 0.0
C1089 C 0.08452 0.86305 0.41821 0.0
C1090 C 0.08196 0.87172 0.32317 0.0
C1091 C 0.10018 0.85792 0.31159 0.0
C1092 C 0.08214 0.8722 0.34606 0.0
C1093 C 0.10077 0.85915 0.35775 0.0
C1094 C 0.11839 0.84457 0.34619 0.0
C1095 C 0.11799 0.84382 0.32332 0.0
H1096 H 0.3882 0.89453 0.67998 0.0
H1097 H 0.39004 0.8132 0.67586 0.0
H1098 H 0.39548 0.89729 0.64092 0.0
H1099 H 0.39657 0.81629 0.63643 0.0
H1100 H 0.37415 0.83787 0.56413 0.0
H1101 H 0.37064 0.83227 0.60379 0.0
H1102 H 0.42992 0.8867 0.6135 0.0
H1103 H 0.43328 0.89241 0.57383 0.0
C1104 C 0.39038 0.87718 0.67096 0.0
C1105 C 0.38852 0.85359 0.68141 0.0
C1106 C 0.39453 0.87885 0.64845 0.0
C1107 C 0.39665 0.85702 0.63569 0.0
C1108 C 0.39482 0.83342 0.64592 0.0
C1109 C 0.39097 0.83171 0.66855 0.0
C1110 C 0.38641 0.84861 0.57477 0.0
C1111 C 0.40387 0.8657 0.56595 0.0
C1112 C 0.38458 0.84522 0.59741 0.0
C1113 C 0.39998 0.8591 0.61167 0.0
C1114 C 0.41772 0.87589 0.60285 0.0
C1115 C 0.41976 0.87903 0.58019 0.0
H1116 H 0.37149 0.19453 0.81504 0.0
H1117 H 0.44044 0.15137 0.81327 0.0
H1118 H 0.36879 0.18804 0.85439 0.0
H1119 H 0.43791 0.14545 0.85281 0.0
H1120 H 0.43901 0.16761 0.92578 0.0
H1121 H 0.44083 0.17341 0.88624 0.0
H1122 H 0.36264 0.15226 0.88106 0.0
H1123 H 0.36084 0.14585 0.92053 0.0
C1124 C 0.38592 0.1834 0.8229 0.0
C1125 C 0.40621 0.17345 0.81088 0.0
C1126 C 0.38439 0.1798 0.84551 0.0
C1127 C 0.40319 0.16636 0.85661 0.0
C1128 C 0.42335 0.15621 0.84466 0.0
C1129 C 0.42479 0.15963 0.82202 0.0
C1130 C 0.42224 0.16395 0.91625 0.0
C1131 C 0.39982 0.15609 0.9264 0.0
C1132 C 0.42331 0.16732 0.8936 0.0
C1133 C 0.40192 0.16313 0.88063 0.0
C1134 C 0.37935 0.1558 0.89073 0.0
C1135 C 0.37833 0.15223 0.91337 0.0
H1136 H 0.8974 0.81184 0.91635 0.0
H1137 H 0.93425 0.88411 0.91088 0.0
H1138 H 0.88314 0.81541 0.87861 0.0
H1139 H 0.91953 0.88778 0.8732 0.0
H1140 H 0.89091 0.81803 0.80344 0.0
H1141 H 0.90315 0.81531 0.84172 0.0
H1142 H 0.87954 0.89219 0.85174 0.0
H1143 H 0.86679 0.89487 0.81339 0.0
C1144 C 0.9026 0.82844 0.90713 0.0
C1145 C 0.91715 0.84761 0.91672 0.0
C1146 C 0.89434 0.83049 0.8855 0.0
C1147 C 0.90028 0.85183 0.87295 0.0
C1148 C 0.91442 0.87123 0.88258 0.0
C1149 C 0.92283 0.86912 0.9042 0.0
C1150 C 0.88788 0.83426 0.8138 0.0
C1151 C 0.87769 0.85665 0.80527 0.0
C1152 C 0.89499 0.83269 0.83577 0.0
C1153 C 0.89226 0.85352 0.84973 0.0
C1154 C 0.88211 0.87592 0.84128 0.0
C1155 C 0.87483 0.87745 0.81931 0.0
H1156 H 0.89145 0.10602 0.67582 0.0
H1157 H 0.89935 0.18706 0.6727 0.0
H1158 H 0.89737 0.10364 0.63643 0.0
H1159 H 0.90435 0.18442 0.6332 0.0
H1160 H 0.87729 0.16684 0.56152 0.0
H1161 H 0.87514 0.17078 0.60143 0.0
H1162 H 0.93211 0.11335 0.60805 0.0
H1163 H 0.93423 0.10945 0.56813 0.0
C1164 C 0.89462 0.12334 0.66695 0.0
C1165 C 0.89472 0.14677 0.67773 0.0
C1166 C 0.89798 0.1219 0.6443 0.0
C1167 C 0.90122 0.14385 0.63184 0.0
C1168 C 0.90159 0.16724 0.64246 0.0
C1169 C 0.89859 0.16868 0.66516 0.0
C1170 C 0.88936 0.15514 0.57155 0.0
C1171 C 0.90589 0.13783 0.56182 0.0
C1172 C 0.88828 0.15751 0.59431 0.0
C1173 C 0.90345 0.14233 0.60774 0.0
C1174 C 0.92014 0.12517 0.59802 0.0
C1175 C 0.92149 0.12308 0.57524 0.0
H1176 H 0.60318 0.18588 0.31261 0.0
H1177 H 0.63297 0.11028 0.31254 0.0
H1178 H 0.59952 0.18433 0.35257 0.0
H1179 H 0.62887 0.10854 0.35229 0.0
H1180 H 0.64813 0.12734 0.4233 0.0
H1181 H 0.65017 0.12993 0.38354 0.0
H1182 H 0.57513 0.16103 0.38203 0.0
H1183 H 0.57326 0.15887 0.42211 0.0
C1184 C 0.60894 0.16897 0.32114 0.0
C1185 C 0.61846 0.14824 0.30949 0.0
C1186 C 0.60661 0.16799 0.34394 0.0
C1187 C 0.61401 0.14635 0.35549 0.0
C1188 C 0.62327 0.12556 0.34381 0.0
C1189 C 0.62539 0.12646 0.32105 0.0
C1190 C 0.63216 0.13499 0.41454 0.0
C1191 C 0.61055 0.14296 0.42582 0.0
C1192 C 0.63323 0.13621 0.39175 0.0
C1193 C 0.61276 0.14556 0.37971 0.0
C1194 C 0.59122 0.15384 0.39094 0.0
C1195 C 0.59006 0.15242 0.41381 0.0
H1196 H 0.64495 0.89898 0.05964 0.0
H1197 H 0.57191 0.86455 0.05184 0.0
H1198 H 0.64269 0.89201 0.09906 0.0
H1199 H 0.56926 0.85827 0.0914 0.0
H1200 H 0.58925 0.82515 0.15953 0.0
H1201 H 0.58951 0.8326 0.12005 0.0
H1202 H 0.61917 0.90725 0.1309 0.0
H1203 H 0.61972 0.89952 0.17018 0.0
C1204 C 0.62841 0.88994 0.06635 0.0
C1205 C 0.60861 0.88236 0.05263 0.0
C1206 C 0.62698 0.88619 0.08896 0.0
C1207 C 0.60574 0.87469 0.09835 0.0
C1208 C 0.58593 0.86705 0.08463 0.0
C1209 C 0.58733 0.8709 0.06201 0.0
C1210 C 0.59586 0.84311 0.15347 0.0
C1211 C 0.60456 0.86167 0.16803 0.0
C1212 C 0.59578 0.84748 0.13088 0.0
C1213 C 0.60449 0.87047 0.12237 0.0
C1214 C 0.61265 0.88922 0.13695 0.0
C1215 C 0.61267 0.88489 0.1595 0.0
H1216 H 0.5819 0.61049 0.56352 0.0
H1217 H 0.63923 0.66738 0.55604 0.0
H1218 H 0.58499 0.6141 0.60324 0.0
H1219 H 0.6424 0.671 0.59609 0.0
H1220 H 0.61216 0.68461 0.66948 0.0
H1221 H 0.61237 0.68417 0.6293 0.0
H1222 H 0.62118 0.60346 0.63007 0.0
H1223 H 0.62174 0.60382 0.66983 0.0
C1224 C 0.59501 0.62392 0.5704 0.0
C1225 C 0.61035 0.63864 0.55676 0.0
C1226 C 0.59691 0.62586 0.5931 0.0
C1227 C 0.61401 0.64274 0.60263 0.0
C1228 C 0.62904 0.65789 0.58906 0.0
C1229 C 0.62738 0.65568 0.56625 0.0
C1230 C 0.61457 0.66685 0.66107 0.0
C1231 C 0.61645 0.6442 0.67291 0.0
C1232 C 0.61465 0.66662 0.63812 0.0
C1233 C 0.61641 0.64373 0.62672 0.0
C1234 C 0.6193 0.62129 0.63852 0.0
C1235 C 0.61946 0.62153 0.66131 0.0
H1236 H 0.56786 0.36451 0.92386 0.0
H1237 H 0.64922 0.36021 0.92648 0.0
H1238 H 0.5695 0.35969 0.88438 0.0
H1239 H 0.65042 0.35481 0.88712 0.0
H1240 H 0.64089 0.32354 0.81783 0.0
H1241 H 0.63646 0.3236 0.85772 0.0
H1242 H 0.58648 0.38747 0.85336 0.0
H1243 H 0.59085 0.3873 0.81346 0.0
C1244 C 0.58611 0.36257 0.91629 0.0
C1245 C 0.60844 0.36315 0.92876 0.0
C1246 C 0.58695 0.35971 0.89355 0.0
C1247 C 0.61007 0.35696 0.88275 0.0
C1248 C 0.63231 0.35667 0.8951 0.0
C1249 C 0.63153 0.35983 0.91779 0.0
C1250 C 0.62866 0.33731 0.82539 0.0
C1251 C 0.61624 0.35546 0.81262 0.0
C1252 C 0.62629 0.33747 0.84818 0.0
C1253 C 0.61118 0.35557 0.85856 0.0
C1254 C 0.59811 0.3732 0.84574 0.0
C1255 C 0.60076 0.37325 0.82298 0.0
H1256 H 0.88055 0.3923 0.17558 0.0
H1257 H 0.9141 0.31826 0.17612 0.0
H1258 H 0.88458 0.39381 0.13589 0.0
H1259 H 0.91741 0.31945 0.13621 0.0
H1260 H 0.94124 0.34357 0.06623 0.0
H1261 H 0.93973 0.34188 0.10622 0.0
H1262 H 0.86435 0.37221 0.10493 0.0
H1263 H 0.86615 0.37463 0.06517 0.0
C1264 C 0.889 0.37643 0.16726 0.0
C1265 C 0.89692 0.35512 0.179 0.0
C1266 C 0.89102 0.37717 0.14449 0.0
C1267 C 0.90107 0.35664 0.13294 0.0
C1268 C 0.90965 0.33558 0.14469 0.0
C1269 C 0.90754 0.33481 0.1675 0.0
C1270 C 0.92442 0.34997 0.07452 0.0
C1271 C 0.90385 0.35931 0.06253 0.0
C1272 C 0.92347 0.3488 0.09738 0.0
C1273 C 0.90199 0.35708 0.10869 0.0
C1274 C 0.8813 0.36603 0.09668 0.0
C1275 C 0.88221 0.36711 0.07387 0.0
H1276 H 0.91693 0.62791 0.30373 0.0
H1277 H 0.86285 0.6879 0.31108 0.0
H1278 H 0.92345 0.62725 0.34332 0.0
H1279 H 0.8696 0.68749 0.35074 0.0
H1280 H 0.8622 0.65054 0.41935 0.0
H1281 H 0.85908 0.65598 0.38002 0.0
H1282 H 0.93999 0.65338 0.37464 0.0
H1283 H 0.94335 0.64855 0.41431 0.0
C1284 C 0.90655 0.64105 0.31382 0.0
C1285 C 0.88919 0.65779 0.30435 0.0
C1286 C 0.91048 0.64084 0.33645 0.0
C1287 C 0.89695 0.65723 0.35011 0.0
C1288 C 0.88012 0.67449 0.3406 0.0
C1289 C 0.87639 0.67487 0.31791 0.0
C1290 C 0.87944 0.65154 0.41 0.0
C1291 C 0.90306 0.64914 0.42022 0.0
C1292 C 0.87759 0.65467 0.38736 0.0
C1293 C 0.89928 0.65524 0.37427 0.0
C1294 C 0.92293 0.65284 0.38434 0.0
C1295 C 0.92482 0.64995 0.40709 0.0
H1296 H 0.44134 0.37644 0.4237 0.0
H1297 H 0.36942 0.33865 0.42671 0.0
H1298 H 0.44209 0.37075 0.38412 0.0
H1299 H 0.36946 0.3343 0.38718 0.0
H1300 H 0.38164 0.31496 0.31705 0.0
H1301 H 0.38793 0.31425 0.35639 0.0
H1302 H 0.4206 0.38865 0.35344 0.0
H1303 H 0.41581 0.38874 0.31393 0.0
C1304 C 0.4258 0.36671 0.416 0.0
C1305 C 0.40517 0.35826 0.4284 0.0
C1306 C 0.42609 0.36372 0.39325 0.0
C1307 C 0.40572 0.3523 0.38242 0.0
C1308 C 0.38558 0.34299 0.39495 0.0
C1309 C 0.38538 0.34582 0.41764 0.0
C1310 C 0.39062 0.331 0.32463 0.0
C1311 C 0.39799 0.35202 0.31217 0.0
C1312 C 0.39397 0.33068 0.34731 0.0
C1313 C 0.40457 0.35147 0.35813 0.0
C1314 C 0.41259 0.3722 0.34564 0.0
C1315 C 0.40944 0.37242 0.32294 0.0
H1316 H 0.42907 0.7005 0.07371 0.0
H1317 H 0.4103 0.62211 0.0643 0.0
H1318 H 0.41455 0.69801 0.11141 0.0
H1319 H 0.39601 0.61959 0.10224 0.0
H1320 H 0.40099 0.62137 0.1785 0.0
H1321 H 0.41363 0.62203 0.14008 0.0
H1322 H 0.37432 0.69242 0.13117 0.0
H1323 H 0.36147 0.69167 0.16944 0.0
C1324 C 0.42165 0.68278 0.07959 0.0
C1325 C 0.42074 0.66154 0.06589 0.0
C1326 C 0.41335 0.68136 0.10122 0.0
C1327 C 0.40401 0.65864 0.10972 0.0
C1328 C 0.40333 0.63729 0.09617 0.0
C1329 C 0.41156 0.63874 0.07445 0.0
C1330 C 0.39472 0.63679 0.16828 0.0
C1331 C 0.38039 0.65658 0.17711 0.0
C1332 C 0.402 0.63717 0.14628 0.0
C1333 C 0.39514 0.65738 0.1327 0.0
C1334 C 0.38029 0.67683 0.14137 0.0
C1335 C 0.37296 0.67642 0.16331 0.0
H1336 H 0.0709 0.64329 0.93396 0.0
H1337 H 0.14808 0.62139 0.92234 0.0
H1338 H 0.06588 0.65264 0.89519 0.0
H1339 H 0.14309 0.63125 0.88356 0.0
H1340 H 0.13091 0.68246 0.82284 0.0
H1341 H 0.13636 0.66992 0.86089 0.0
H1342 H 0.06528 0.63069 0.85897 0.0
H1343 H 0.05993 0.64277 0.82076 0.0
C1344 C 0.08671 0.64012 0.92315 0.0
C1345 C 0.10991 0.6315 0.93135 0.0
C1346 C 0.08383 0.64556 0.90091 0.0
C1347 C 0.1041 0.64269 0.88636 0.0
C1348 C 0.12723 0.63393 0.89446 0.0
C1349 C 0.13008 0.62832 0.91669 0.0
C1350 C 0.11658 0.67084 0.83033 0.0
C1351 C 0.09493 0.6637 0.81862 0.0
C1352 C 0.11972 0.66369 0.85219 0.0
C1353 C 0.10122 0.64938 0.8629 0.0
C1354 C 0.07969 0.64202 0.85121 0.0
C1355 C 0.07662 0.64901 0.82931 0.0
H1356 H 0.131 0.39875 0.67544 0.0
H1357 H 0.09809 0.32446 0.67326 0.0
H1358 H 0.12611 0.40248 0.6359 0.0
H1359 H 0.09405 0.32781 0.63357 0.0
H1360 H 0.06879 0.35329 0.56518 0.0
H1361 H 0.071 0.35077 0.60506 0.0
H1362 H 0.1453 0.38368 0.60342 0.0
H1363 H 0.14271 0.38703 0.56372 0.0
C1364 C 0.12256 0.38328 0.66657 0.0
C1365 C 0.11503 0.36126 0.67751 0.0
C1366 C 0.12004 0.3853 0.64387 0.0
C1367 C 0.10988 0.36536 0.6316 0.0
C1368 C 0.10182 0.34356 0.64258 0.0
C1369 C 0.10439 0.34153 0.66529 0.0
C1370 C 0.08548 0.36019 0.57336 0.0
C1371 C 0.10555 0.3704 0.56127 0.0
C1372 C 0.08685 0.35852 0.59618 0.0
C1373 C 0.10829 0.3671 0.60738 0.0
C1374 C 0.12839 0.37721 0.59529 0.0
C1375 C 0.12704 0.37883 0.5725 0.0
H1376 H 0.97561 0.31906 0.25699 0.0
H1377 H 0.93231 0.25497 0.23544 0.0
H1378 H 0.01378 0.29431 0.25567 0.0
H1379 H 0.97098 0.23025 0.23282 0.0
H1380 H 0.03913 0.18478 0.25327 0.0
H1381 H 1.00123 0.20979 0.25299 0.0
H1382 H 0.04478 0.27538 0.23494 0.0
H1383 H 0.08331 0.25019 0.23651 0.0
C1384 C 0.97427 0.29967 0.25163 0.0
C1385 C 0.95081 0.28899 0.24633 0.0
C1386 C 0.99636 0.28546 0.25068 0.0
C1387 C 0.99584 0.26013 0.24404 0.0
C1388 C 0.9723 0.24952 0.23842 0.0
C1389 C 0.95004 0.2637 0.23977 0.0
C1390 C 0.04074 0.20455 0.24915 0.0
C1391 C 0.06438 0.21545 0.24485 0.0
C1392 C 0.01878 0.21895 0.2488 0.0
C1393 C 0.01955 0.24475 0.24378 0.0
C1394 C 0.04326 0.25568 0.23923 0.0
C1395 C 0.06543 0.24124 0.23997 0.0
H1396 H 0.9701 0.70768 0.4543 0.0
H1397 H 0.99618 0.68543 0.51836 0.0
H1398 H 0.99528 0.74602 0.45641 0.0
H1399 H 0.02111 0.7244 0.52075 0.0
H1400 H 0.03259 0.81321 0.52428 0.0
H1401 H 0.00917 0.77327 0.5222 0.0
H1402 H 0.04185 0.75862 0.45875 0.0
H1403 H 0.06538 0.79798 0.46099 0.0
C1404 C 0.98171 0.71076 0.46864 0.0
C1405 C 0.98145 0.69341 0.48602 0.0
C1406 C 0.99598 0.73281 0.46992 0.0
C1407 C 0.00994 0.73839 0.48884 0.0
C1408 C 0.0103 0.72071 0.50605 0.0
C1409 C 0.99638 0.69824 0.50456 0.0
C1410 C 0.03437 0.80161 0.50977 0.0
C1411 C 0.05062 0.80879 0.49271 0.0
C1412 C 0.0213 0.77861 0.50871 0.0
C1413 C 0.02386 0.7627 0.49038 0.0
C1414 C 0.03947 0.77042 0.47307 0.0
C1415 C 0.05285 0.79302 0.47432 0.0
H1416 H 0.41676 0.74807 0.75655 0.0
H1417 H 0.46236 0.81236 0.7392 0.0
H1418 H 0.4546 0.72149 0.75587 0.0
H1419 H 0.49959 0.78613 0.73851 0.0
H1420 H 0.56598 0.73722 0.761 0.0
H1421 H 0.52782 0.76309 0.76286 0.0
H1422 H 0.48588 0.70448 0.73025 0.0
H1423 H 0.52356 0.67881 0.72846 0.0
C1424 C 0.4347 0.7565 0.75243 0.0
C1425 C 0.43636 0.7824 0.74797 0.0
C1426 C 0.45643 0.74131 0.75207 0.0
C1427 C 0.48031 0.75171 0.74736 0.0
C1428 C 0.48175 0.77751 0.74266 0.0
C1429 C 0.46019 0.79255 0.74289 0.0
C1430 C 0.54865 0.72994 0.75413 0.0
C1431 C 0.54802 0.70591 0.74454 0.0
C1432 C 0.52673 0.74475 0.75519 0.0
C1433 C 0.50361 0.73583 0.74679 0.0
C1434 C 0.50311 0.71184 0.73721 0.0
C1435 C 0.52494 0.69719 0.73603 0.0
H1436 H 0.49642 0.18515 0.98895 0.0
H1437 H 0.43237 0.23071 0.00671 0.0
H1438 H 0.5224 0.22306 0.98705 0.0
H1439 H 0.45828 0.26816 0.006 0.0
H1440 H 0.50596 0.33596 0.98697 0.0
H1441 H 0.47948 0.29821 0.98557 0.0
H1442 H 0.54234 0.25326 0.00777 0.0
H1443 H 0.56862 0.29027 0.00801 0.0
C1444 C 0.48795 0.20319 0.99264 0.0
C1445 C 0.46231 0.20479 -0.00208 0.0
C1446 C 0.50285 0.22504 0.99168 0.0
C1447 C 0.4926 0.24902 -0.00361 0.0
C1448 C 0.46692 0.25038 0.00178 0.0
C1449 C 0.45203 0.22869 0.00238 0.0
C1450 C 0.51401 0.31795 0.99144 0.0
C1451 C 0.53946 0.31622 -0.00261 0.0
C1452 C 0.49884 0.29623 0.99077 0.0
C1453 C 0.50866 0.27232 -0.00359 0.0
C1454 C 0.53406 0.27093 0.00268 0.0
C1455 C 0.54918 0.29241 0.00299 0.0
H1456 H 0.96273 0.69306 0.24959 0.0
H1457 H 0.91847 0.75388 0.22274 0.0
H1458 H 0.99984 0.71964 0.24948 0.0
H1459 H 0.95604 0.78066 0.22247 0.0
H1460 H 0.02172 0.82843 0.24757 0.0
H1461 H 0.98478 0.8018 0.24719 0.0
H1462 H 0.03001 0.73937 0.22487 0.0
H1463 H 0.06755 0.76629 0.22543 0.0
C1464 C 0.96085 0.71218 0.24365 0.0
C1465 C 0.93746 0.7213 0.23617 0.0
C1466 C 0.98232 0.72738 0.24343 0.0
C1467 C 0.98114 0.75226 0.23579 0.0
C1468 C 0.95766 0.76162 0.22862 0.0
C1469 C 0.93606 0.74631 0.2288 0.0
C1470 C 0.02399 0.80902 0.24255 0.0
C1471 C 0.04779 0.79957 0.2365 0.0
C1472 C 1.0026 0.79376 0.24218 0.0
C1473 C 0.00421 0.76845 0.23583 0.0
C1474 C 0.02806 0.75877 0.23 0.0
C1475 C 0.04961 0.77417 0.2303 0.0
H1476 H 0.57289 0.71839 0.50955 0.0
H1477 H 0.5059 0.67929 0.48836 0.0
H1478 H 0.54928 0.75731 0.51256 0.0
H1479 H 0.48207 0.71868 0.4914 0.0
H1480 H 0.44295 0.78845 0.51908 0.0
H1481 H 0.46678 0.74947 0.51846 0.0
H1482 H 0.52919 0.78831 0.48832 0.0
H1483 H 0.50516 0.8277 0.48895 0.0
C1484 C 0.55302 0.71802 0.50561 0.0
C1485 C 0.54133 0.69561 0.49862 0.0
C1486 C 0.53953 0.74049 0.50721 0.0
C1487 C 0.51385 0.74129 0.502 0.0
C1488 C 0.50185 0.71872 0.49565 0.0
C1489 C 0.51545 0.69612 0.49394 0.0
C1490 C 0.46184 0.78884 0.51243 0.0
C1491 C 0.4721 0.8113 0.50399 0.0
C1492 C 0.47542 0.76634 0.51193 0.0
C1493 C 0.49978 0.7656 0.50312 0.0
C1494 C 0.51048 0.78823 0.49534 0.0
C1495 C 0.49677 0.81084 0.49574 0.0
H1496 H 0.44548 0.24804 0.70889 0.0
H1497 H 0.44343 0.26372 0.77832 0.0
H1498 H 0.49025 0.25855 0.70816 0.0
H1499 H 0.488 0.27432 0.7775 0.0
H1500 H 0.5728 0.25921 0.77371 0.0
H1501 H 0.52768 0.25077 0.77284 0.0
H1502 H 0.52114 0.29328 0.71281 0.0
H1503 H 0.56637 0.30157 0.71356 0.0
C1504 C 0.45442 0.25409 0.72393 0.0
C1505 C 0.44072 0.2549 0.74368 0.0
C1506 C 0.48014 0.26014 0.7235 0.0
C1507 C 0.49287 0.26695 0.74284 0.0
C1508 C 0.47895 0.26869 0.76238 0.0
C1509 C 0.45325 0.26285 0.76278 0.0
C1510 C 0.56182 0.26663 0.76022 0.0
C1511 C 0.5733 0.28117 0.74377 0.0
C1512 C 0.53586 0.26198 0.75983 0.0
C1513 C 0.52066 0.27156 0.74287 0.0
C1514 C 0.53224 0.28556 0.72609 0.0
C1515 C 0.55819 0.29041 0.72659 0.0
H1516 H 0.07375 0.21403 0.01286 0.0
H1517 H 0.01113 0.17289 0.98548 0.0
H1518 H 0.04876 0.25229 0.01316 0.0
H1519 H 0.98604 0.21153 0.98552 0.0
H1520 H 0.94092 0.2799 0.00768 0.0
H1521 H 0.96577 0.24166 0.00936 0.0
H1522 H 0.03129 0.28304 0.98804 0.0
H1523 H 0.00627 0.32176 0.9866 0.0
C1524 C 0.05455 0.21308 0.00696 0.0
C1525 C 0.04449 0.19028 -0.00091 0.0
C1526 C 0.04028 0.23518 0.00697 0.0
C1527 C 0.01544 0.2352 -0.00085 0.0
C1528 C 0.00507 0.21223 0.99183 0.0
C1529 C 0.01942 0.19002 0.99181 0.0
C1530 C 0.96067 0.281 0.00339 0.0
C1531 C 0.97156 0.30402 -0.00306 0.0
C1532 C 0.97489 0.2589 0.00422 0.0
C1533 C 1.00051 0.25907 -0.00134 0.0
C1534 C 0.01163 0.2822 0.99262 0.0
C1535 C 0.99732 0.30444 0.99178 0.0
H1536 H 0.93506 0.80854 0.77679 0.0
H1537 H 0.92832 0.77896 0.71137 0.0
H1538 H 0.97694 0.7904 0.78002 0.0
H1539 H 0.97098 0.76237 0.71363 0.0
H1540 H 0.04454 0.72243 0.72747 0.0
H1541 H 1.0009 0.73525 0.72604 0.0
H1542 H 0.01756 0.79724 0.76963 0.0
H1543 H 0.06112 0.78311 0.77207 0.0
C1544 C 0.94247 0.79765 0.76324 0.0
C1545 C 0.92833 0.79482 0.74398 0.0
C1546 C 0.96678 0.7877 0.76484 0.0
C1547 C 0.97803 0.77533 0.74691 0.0
C1548 C 0.96322 0.7715 0.72796 0.0
C1549 C 0.93858 0.78093 0.7266 0.0
C1550 C 0.03902 0.73901 0.73653 0.0
C1551 C 0.05651 0.7519 0.74971 0.0
C1552 C 0.01377 0.74643 0.73573 0.0
C1553 C 0.00519 0.76734 0.74776 0.0
C1554 C 0.02296 0.78064 0.76053 0.0
C1555 C 0.04816 0.7728 0.76172 0.0
H1556 H 0.00416 0.32561 0.48644 0.0
H1557 H 0.06951 0.28625 0.51084 0.0
H1558 H 0.98071 0.28594 0.48624 0.0
H1559 H 0.04617 0.24694 0.51083 0.0
H1560 H 0.00465 0.17661 0.484 0.0
H1561 H 0.02852 0.21612 0.48554 0.0
H1562 H 0.96288 0.25451 0.51044 0.0
H1563 H 0.93923 0.21556 0.50874 0.0
C1564 C 0.01342 0.30863 0.49204 0.0
C1565 C 0.03875 0.30923 0.49861 0.0
C1566 C 1.00001 0.28583 0.49191 0.0
C1567 C 0.01161 0.26309 0.49835 0.0
C1568 C 0.03674 0.26389 0.50536 0.0
C1569 C 0.05007 0.28659 0.50553 0.0
C1570 C 0.99546 0.19344 0.49001 0.0
C1571 C 0.96999 0.19284 0.49613 0.0
C1572 C 0.0091 0.21612 0.4909 0.0
C1573 C 0.99755 0.23867 0.4979 0.0
C1574 C 0.97228 0.23777 0.50451 0.0
C1575 C 0.95876 0.21525 0.50367 0.0
H1576 H 0.46166 0.30286 0.27851 0.0
H1577 H 0.44293 0.267 0.21726 0.0
H1578 H 0.50163 0.27995 0.27957 0.0
H1579 H 0.48353 0.24466 0.21792 0.0
H1580 H 0.57347 0.24083 0.21752 0.0
H1581 H 0.53316 0.26364 0.21784 0.0
H1582 H 0.5147 0.22985 0.28007 0.0
H1583 H 0.55436 0.20641 0.27935 0.0
C1584 C 0.46595 0.2897 0.26547 0.0
C1585 C 0.44909 0.2864 0.24797 0.0
C1586 C 0.48887 0.27677 0.26601 0.0
C1587 C 0.49578 0.26084 0.24869 0.0
C1588 C 0.47871 0.25706 0.23136 0.0
C1589 C 0.45539 0.26952 0.23113 0.0
C1590 C 0.56104 0.23876 0.23146 0.0
C1591 C 0.56711 0.22207 0.24853 0.0
C1592 C 0.53787 0.25149 0.2315 0.0
C1593 C 0.52074 0.24822 0.24886 0.0
C1594 C 0.52751 0.23263 0.26647 0.0
C1595 C 0.55026 0.21941 0.26613 0.0
H1596 H 0.56054 0.81773 0.02399 0.0
H1597 H 0.53179 0.82469 0.95828 0.0
H1598 H 0.54319 0.77548 0.02663 0.0
H1599 H 0.51613 0.78163 0.95995 0.0
H1600 H 0.47826 0.7063 0.9728 0.0
H1601 H 0.48989 0.7504 0.97153 0.0
H1602 H 0.55159 0.7354 0.01591 0.0
H1603 H 0.53861 0.69155 0.01824 0.0
C1604 C 0.55003 0.81028 0.01023 0.0
C1605 C 0.54729 0.82457 0.99104 0.0
C1606 C 0.54055 0.78575 0.01149 0.0
C1607 C 0.52879 0.77443 -0.00671 0.0
C1608 C 0.52487 0.78941 0.97444 0.0
C1609 C 0.5338 0.81427 0.97343 0.0
C1610 C 0.4945 0.71234 0.9821 0.0
C1611 C 0.50759 0.69527 -0.00445 0.0
C1612 C 0.50123 0.73783 0.98138 0.0
C1613 C 0.52163 0.747 -0.00623 0.0
C1614 C 0.53527 0.72957 0.00662 0.0
C1615 C 0.52812 0.70419 0.00773 0.0
H1616 H 0.9285 0.24951 0.731 0.0
H1617 H 0.97321 0.18571 0.75104 0.0
H1618 H 0.96685 0.27478 0.72788 0.0
H1619 H 0.01093 0.21088 0.74925 0.0
H1620 H 0.07973 0.25546 0.73076 0.0
H1621 H 0.04127 0.2303 0.7285 0.0
H1622 H 0.99749 0.29534 0.74753 0.0
H1623 H 0.03536 0.32039 0.74844 0.0
C1624 C 0.94645 0.24095 0.73485 0.0
C1625 C 0.9477 0.21557 0.74113 0.0
C1626 C 0.96853 0.25543 0.73321 0.0
C1627 C 0.99235 0.24501 0.73827 0.0
C1628 C 0.99332 0.21962 0.74463 0.0
C1629 C 0.97144 0.20513 0.74586 0.0
C1630 C 0.06182 0.26432 0.73425 0.0
C1631 C 0.06072 0.28994 0.73969 0.0
C1632 C 0.03968 0.24989 0.73313 0.0
C1633 C 0.01593 0.26062 0.73788 0.0
C1634 C 0.01507 0.28632 0.74324 0.0
C1635 C 0.03702 0.30074 0.74395 0.0
H1636 H 0.43534 0.28323 0.51174 0.0
H1637 H 0.49723 0.32933 0.48982 0.0
H1638 H 0.46163 0.24606 0.50985 0.0
H1639 H 0.52348 0.29175 0.48657 0.0
H1640 H 0.57214 0.2245 0.50279 0.0
H1641 H 0.54584 0.26146 0.50469 0.0
H1642 H 0.48085 0.21614 0.48847 0.0
H1643 H 0.50743 0.17852 0.48792 0.0
C1644 C 0.45461 0.28539 0.50627 0.0
C1645 C 0.46418 0.30932 0.50093 0.0
C1646 C 0.46972 0.26388 0.50497 0.0
C1647 C 0.49485 0.26546 0.49787 0.0
C1648 C 0.50442 0.28955 0.49249 0.0
C1649 C 0.48936 0.31121 0.49423 0.0
C1650 C 0.55223 0.22231 0.49954 0.0
C1651 C 0.54195 0.19842 0.49509 0.0
C1652 C 0.53705 0.24375 0.50047 0.0
C1653 C 0.51102 0.24224 0.49659 0.0
C1654 C 0.5007 0.21826 0.49194 0.0
C1655 C 0.51594 0.19659 0.49143 0.0
H1656 H 0.44721 0.69292 0.21196 0.0
H1657 H 0.42557 0.75363 0.25488 0.0
H1658 H 0.4882 0.7118 0.20678 0.0
H1659 H 0.467 0.77334 0.24922 0.0
H1660 H 0.55426 0.77973 0.25705 0.0
H1661 H 0.51045 0.76627 0.25957 0.0
H1662 H 0.51221 0.74443 0.19141 0.0
H1663 H 0.55612 0.75724 0.1891 0.0
C1664 C 0.45106 0.71074 0.21992 0.0
C1665 C 0.43308 0.72176 0.23383 0.0
C1666 C 0.47467 0.7217 0.21685 0.0
C1667 C 0.48121 0.74415 0.22761 0.0
C1668 C 0.4628 0.75587 0.24085 0.0
C1669 C 0.43891 0.74483 0.24387 0.0
C1670 C 0.5453 0.77208 0.24258 0.0
C1671 C 0.55891 0.76938 0.2229 0.0
C1672 C 0.52001 0.76456 0.24398 0.0
C1673 C 0.50756 0.75417 0.22573 0.0
C1674 C 0.52113 0.75191 0.20596 0.0
C1675 C 0.54642 0.75929 0.2046 0.0
H1676 H 0.06206 0.69221 0.96128 0.0
H1677 H 0.03661 0.68542 0.02803 0.0
H1678 H 0.04318 0.7338 0.95875 0.0
H1679 H 0.01921 0.72789 0.02632 0.0
H1680 H 0.97772 0.80164 0.01285 0.0
H1681 H 0.99096 0.75793 0.01461 0.0
H1682 H 0.05146 0.77424 0.96936 0.0
H1683 H 0.03707 0.81759 0.96666 0.0
C1684 C 0.05192 0.69953 0.97531 0.0
C1685 C 0.05058 0.6855 -0.00525 0.0
C1686 C 0.04155 0.72368 0.97407 0.0
C1687 C 0.03021 0.7349 0.99252 0.0
C1688 C 0.02763 0.72014 0.01166 0.0
C1689 C 0.03753 0.69563 0.01269 0.0
C1690 C 0.99403 0.79596 0.00345 0.0
C1691 C 0.00635 0.81323 0.98961 0.0
C1692 C 1.00168 0.77073 0.00446 0.0
C1693 C 0.02218 0.76205 0.99193 0.0
C1694 C 0.03509 0.77971 0.97876 0.0
C1695 C 0.0271 0.80481 0.97743 0.0
H1696 H 0.12731 0.2833 0.29284 0.0
H1697 H 0.17865 0.2507 0.33981 0.0
H1698 H 0.11675 0.3163 0.31919 0.0
H1699 H 0.16809 0.28318 0.36594 0.0
H1700 H 0.15244 0.347 0.40937 0.0
H1701 H 0.16896 0.32681 0.37637 0.0
H1702 H 0.09304 0.31604 0.35273 0.0
H1703 H 0.07679 0.33713 0.38503 0.0
C1704 C 0.13644 0.28327 0.30869 0.0
C1705 C 0.15366 0.26428 0.31428 0.0
C1706 C 0.13048 0.30219 0.32374 0.0
C1707 C 0.14156 0.30236 0.34468 0.0
C1708 C 0.15957 0.28397 0.34983 0.0
C1709 C 0.16557 0.26519 0.33482 0.0
C1710 C 0.13941 0.3409 0.3968 0.0
C1711 C 0.11335 0.34305 0.39996 0.0
C1712 C 0.14881 0.32919 0.37801 0.0
C1713 C 0.13229 0.31944 0.3621 0.0
C1714 C 0.10632 0.3234 0.36456 0.0
C1715 C 0.09697 0.33514 0.38325 0.0
H1716 H 0.90389 0.84312 0.62823 0.0
H1717 H 0.92248 0.91086 0.66359 0.0
H1718 H 0.93454 0.85383 0.60004 0.0
H1719 H 0.95304 0.92199 0.63511 0.0
H1720 H 0.03206 0.90072 0.60822 0.0
H1721 H 0.99353 0.90051 0.62925 0.0
H1722 H 0.95142 0.88159 0.57102 0.0
H1723 H 0.99038 0.88222 0.5496 0.0
C1724 C 0.91394 0.86081 0.62947 0.0
C1725 C 0.91115 0.87607 0.6481 0.0
C1726 C 0.93142 0.867 0.6133 0.0
C1727 C 0.94653 0.88851 0.61556 0.0
C1728 C 0.94192 0.90505 0.63315 0.0
C1729 C 0.92431 0.89887 0.64932 0.0
C1730 C 0.01462 0.89702 0.59968 0.0
C1731 C 0.01442 0.89156 0.57714 0.0
C1732 C 0.99242 0.89703 0.61178 0.0
C1733 C 0.96934 0.8914 0.60176 0.0
C1734 C 0.96896 0.88604 0.57918 0.0
C1735 C 0.99129 0.88618 0.56697 0.0
H1736 H 0.35865 0.68864 0.93106 0.0
H1737 H 0.42199 0.66851 0.89029 0.0
H1738 H 0.33707 0.70563 0.89904 0.0
H1739 H 0.4017 0.68731 0.85895 0.0
H1740 H 0.36124 0.71858 0.80232 0.0
H1741 H 0.37147 0.68933 0.83199 0.0
H1742 H 0.34137 0.74245 0.87896 0.0
H1743 H 0.33001 0.77048 0.84925 0.0
C1744 C 0.36787 0.68765 0.91526 0.0
C1745 C 0.39232 0.67794 0.91333 0.0
C1746 C 0.35565 0.69765 0.89693 0.0
C1747 C 0.36782 0.69843 0.87641 0.0
C1748 C 0.39155 0.68704 0.87432 0.0
C1749 C 0.40349 0.67668 0.89248 0.0
C1750 C 0.35655 0.72358 0.81903 0.0
C1751 C 0.34498 0.74666 0.82362 0.0
C1752 C 0.36243 0.70698 0.83604 0.0
C1753 C 0.35748 0.71355 0.858 0.0
C1754 C 0.34505 0.73637 0.86234 0.0
C1755 C 0.33869 0.75261 0.84533 0.0
H1756 H 0.49212 0.08452 0.08909 0.0
H1757 H 0.52843 0.13345 0.04222 0.0
H1758 H 0.52573 0.09194 0.11499 0.0
H1759 H 0.56252 0.14086 0.06832 0.0
H1760 H 0.58645 0.17847 0.13449 0.0
H1761 H 0.56399 0.16427 0.10215 0.0
H1762 H 0.56949 0.08738 0.12487 0.0
H1763 H 0.59117 0.1019 0.15789 0.0
C1764 C 0.50763 0.09637 0.08408 0.0
C1765 C 0.50748 0.1086 0.06366 0.0
C1766 C 0.52703 0.10054 0.09894 0.0
C1767 C 0.54681 0.11701 0.09373 0.0
C1768 C 0.54735 0.1283 0.07289 0.0
C1769 C 0.52782 0.12417 0.058 0.0
C1770 C 0.58302 0.1585 0.13248 0.0
C1771 C 0.58989 0.14132 0.14892 0.0
C1772 C 0.57049 0.15031 0.11378 0.0
C1773 C 0.5647 0.12472 0.11107 0.0
C1774 C 0.57336 0.10728 0.12671 0.0
C1775 C 0.58588 0.11553 0.14551 0.0
H1776 H 0.17265 0.67829 0.07686 0.0
H1777 H 0.10196 0.66098 0.10812 0.0
H1778 H 0.18411 0.70513 0.10798 0.0
H1779 H 0.1128 0.6881 0.13872 0.0
H1780 H 0.1364 0.73882 0.19269 0.0
H1781 H 0.13788 0.70117 0.16964 0.0
H1782 H 0.16635 0.74598 0.11596 0.0
H1783 H 0.16491 0.78312 0.13877 0.0
C1784 C 0.15997 0.67966 0.09071 0.0
C1785 C 0.1363 0.6681 0.09007 0.0
C1786 C 0.16637 0.69512 0.10841 0.0
C1787 C 0.14912 0.69917 0.1256 0.0
C1788 C 0.12658 0.6854 0.12586 0.0
C1789 C 0.12024 0.67001 0.10825 0.0
C1790 C 0.14306 0.7405 0.17599 0.0
C1791 C 0.15032 0.76399 0.1675 0.0
C1792 C 0.1441 0.71895 0.16285 0.0
C1793 C 0.15234 0.72054 0.14097 0.0
C1794 C 0.16048 0.74389 0.13285 0.0
C1795 C 0.15948 0.7653 0.14594 0.0
H1796 H 0.59671 0.82736 0.34362 0.0
H1797 H 0.5519 0.88296 0.30985 0.0
H1798 H 0.5771 0.83935 0.37843 0.0
H1799 H 0.53246 0.89508 0.34465 0.0
H1800 H 0.50562 0.84877 0.42526 0.0
H1801 H 0.53074 0.83682 0.39345 0.0
H1802 H 0.54815 0.91492 0.3814 0.0
H1803 H 0.52387 0.92694 0.41358 0.0
C1804 C 0.58283 0.8423 0.34374 0.0
C1805 C 0.57578 0.85433 0.32417 0.0
C1806 C 0.57158 0.84901 0.36355 0.0
C1807 C 0.55342 0.86816 0.36413 0.0
C1808 C 0.54662 0.88041 0.3446 0.0
C1809 C 0.55756 0.87341 0.32474 0.0
C1810 C 0.51531 0.86337 0.41623 0.0
C1811 C 0.51238 0.88888 0.4218 0.0
C1812 C 0.5296 0.8565 0.39796 0.0
C1813 C 0.54099 0.87502 0.38489 0.0
C1814 C 0.53915 0.90036 0.39105 0.0
C1815 C 0.52517 0.9072 0.40942 0.0
H1816 H 0.33041 0.24169 0.63949 0.0
H1817 H 0.35028 0.29144 0.69271 0.0
H1818 H 0.33142 0.27675 0.6142 0.0
H1819 H 0.35135 0.32683 0.66719 0.0
H1820 H 0.40283 0.35532 0.60874 0.0
H1821 H 0.38391 0.33338 0.63953 0.0
H1822 H 0.31784 0.31796 0.60044 0.0
H1823 H 0.33725 0.33987 0.56935 0.0
C1824 C 0.33419 0.26025 0.64596 0.0
C1825 C 0.34094 0.26365 0.66801 0.0
C1826 C 0.33463 0.28047 0.63142 0.0
C1827 C 0.3418 0.30452 0.63865 0.0
C1828 C 0.34617 0.3084 0.6611 0.0
C1829 C 0.34575 0.28813 0.67566 0.0
C1830 C 0.38396 0.34785 0.60699 0.0
C1831 C 0.37161 0.34875 0.58671 0.0
C1832 C 0.37297 0.3355 0.62467 0.0
C1833 C 0.34948 0.32366 0.62232 0.0
C1834 C 0.33609 0.32668 0.6026 0.0
C1835 C 0.34708 0.33925 0.58489 0.0
H1836 H 1.00353 0.14975 0.92493 0.0
H1837 H 0.98364 0.07112 0.92167 0.0
H1838 H 0.97064 0.15965 0.89871 0.0
H1839 H 0.95007 0.08096 0.89571 0.0
H1840 H 0.9058 0.17572 0.85681 0.0
H1841 H 0.92733 0.16232 0.89016 0.0
H1842 H 0.94893 0.09299 0.8581 0.0
H1843 H 0.92633 0.10613 0.8252 0.0
C1844 C 0.99161 0.13468 0.91904 0.0
C1845 C 0.99626 0.10966 0.92511 0.0
C1846 C 0.97265 0.14032 0.90405 0.0
C1847 C 0.95775 0.12106 0.89498 0.0
C1848 C 0.96151 0.09617 0.90206 0.0
C1849 C 0.98067 0.09052 0.91692 0.0
C1850 C 0.91466 0.15735 0.85723 0.0
C1851 C 0.91472 0.14195 0.83858 0.0
C1852 C 0.92712 0.14974 0.8762 0.0
C1853 C 0.94027 0.1268 0.87669 0.0
C1854 C 0.93884 0.11068 0.8584 0.0
C1855 C 0.92601 0.11818 0.83952 0.0
H1856 H 0.82666 0.76802 0.63449 0.0
H1857 H 0.87022 0.73233 0.68561 0.0
H1858 H 0.83783 0.73469 0.60943 0.0
H1859 H 0.88163 0.69869 0.66017 0.0
H1860 H 0.9261 0.67479 0.59675 0.0
H1861 H 0.90872 0.69757 0.62781 0.0
H1862 H 0.83418 0.69025 0.60024 0.0
H1863 H 0.85182 0.66819 0.56863 0.0
C1864 C 0.83815 0.75276 0.6406 0.0
C1865 C 0.84763 0.75297 0.6621 0.0
C1866 C 0.8445 0.73352 0.62617 0.0
C1867 C 0.86055 0.714 0.63283 0.0
C1868 C 0.86938 0.71364 0.65454 0.0
C1869 C 0.86296 0.73295 0.66906 0.0
C1870 C 0.90596 0.67785 0.59744 0.0
C1871 C 0.89035 0.67031 0.58007 0.0
C1872 C 0.89596 0.69059 0.61539 0.0
C1873 C 0.87012 0.69597 0.61633 0.0
C1874 C 0.85424 0.68669 0.59975 0.0
C1875 C 0.86427 0.67394 0.58176 0.0
H1876 H 0.03819 0.12628 0.44591 0.0
H1877 H 1.00223 0.08118 0.39608 0.0
H1878 H 0.07304 0.13482 0.42078 0.0
H1879 H 0.03649 0.08975 0.37115 0.0
H1880 H 0.10179 0.10075 0.32928 0.0
H1881 H 0.07997 0.08464 0.36165 0.0
H1882 H 0.07703 0.15995 0.38833 0.0
H1883 H 0.09975 0.17563 0.35664 0.0
C1884 C 0.03779 0.11811 0.42967 0.0
C1885 C 0.0174 0.10317 0.42296 0.0
C1886 C 0.05776 0.12288 0.41533 0.0
C1887 C 0.05761 0.1129 0.39397 0.0
C1888 C 0.0376 0.09727 0.38762 0.0
C1889 C 0.01779 0.09245 0.40193 0.0
C1890 C 0.09717 0.11363 0.34243 0.0
C1891 C 0.10184 0.13949 0.34026 0.0
C1892 C 0.08449 0.1045 0.36086 0.0
C1893 C 0.07626 0.12111 0.37734 0.0
C1894 C 0.08308 0.14659 0.37602 0.0
C1895 C 0.09582 0.15566 0.3577 0.0
H1896 H 0.58333 0.35019 0.10797 0.0
H1897 H 0.65707 0.34729 0.07836 0.0
H1898 H 0.59849 0.32566 0.13882 0.0
H1899 H 0.67273 0.32375 0.10992 0.0
H1900 H 0.67231 0.2453 0.14284 0.0
H1901 H 0.66483 0.28057 0.11873 0.0
H1902 H 0.62443 0.31879 0.17041 0.0
H1903 H 0.63186 0.28292 0.19473 0.0
C1904 C 0.60298 0.34479 0.10835 0.0
C1905 C 0.61886 0.34995 0.09048 0.0
C1906 C 0.61177 0.33101 0.1262 0.0
C1907 C 0.6367 0.32228 0.12663 0.0
C1908 C 0.65325 0.32971 0.10979 0.0
C1909 C 0.64437 0.34339 0.09182 0.0
C1910 C 0.6623 0.2614 0.1493 0.0
C1911 C 0.6526 0.26125 0.17071 0.0
C1912 C 0.65812 0.28178 0.13545 0.0
C1913 C 0.64415 0.30263 0.14265 0.0
C1914 C 0.63509 0.30291 0.16432 0.0
C1915 C 0.63923 0.28236 0.17821 0.0
H1916 H 0.51581 0.9208 0.88072 0.0
H1917 H 0.48112 0.88951 0.93874 0.0
H1918 H 0.47801 0.91255 0.86004 0.0
H1919 H 0.44296 0.88091 0.91769 0.0
H1920 H 0.407 0.83291 0.86003 0.0
H1921 H 0.43385 0.85072 0.88834 0.0
H1922 H 0.43354 0.92214 0.85443 0.0
H1923 H 0.40729 0.90394 0.82563 0.0
C1924 C 0.49994 0.91267 0.88926 0.0
C1925 C 0.50166 0.9057 0.91143 0.0
C1926 C 0.47811 0.90804 0.87736 0.0
C1927 C 0.45741 0.89621 0.88725 0.0
C1928 C 0.4587 0.88994 0.9096 0.0
C1929 C 0.48061 0.8947 0.9216 0.0
C1930 C 0.41227 0.85256 0.85888 0.0
C1931 C 0.40566 0.8669 0.84041 0.0
C1932 C 0.42742 0.86285 0.87522 0.0
C1933 C 0.43619 0.88769 0.87338 0.0
C1934 C 0.42742 0.90278 0.85603 0.0
C1935 C 0.41225 0.89245 0.83966 0.0
H1936 H 0.92792 0.35508 0.88226 0.0
H1937 H 0.85852 0.33152 0.91254 0.0
H1938 H 0.91474 0.3361 0.84769 0.0
H1939 H 0.84556 0.31152 0.87831 0.0
H1940 H 0.90339 0.26089 0.81043 0.0
H1941 H 0.9127 0.29293 0.83755 0.0
H1942 H 0.83391 0.31296 0.84028 0.0
H1943 H 0.82463 0.28037 0.81324 0.0
C1944 C 0.9096 0.34621 0.88127 0.0
C1945 C 0.89422 0.34448 0.89988 0.0
C1946 C 0.90212 0.33521 0.8616 0.0
C1947 C 0.87932 0.32188 0.86033 0.0
C1948 C 0.86314 0.3218 0.87863 0.0
C1949 C 0.87053 0.33313 0.89825 0.0
C1950 C 0.88816 0.27257 0.81637 0.0
C1951 C 0.86326 0.26795 0.80993 0.0
C1952 C 0.89347 0.29103 0.83192 0.0
C1953 C 0.87399 0.30543 0.84124 0.0
C1954 C 0.84926 0.30188 0.83372 0.0
C1955 C 0.84395 0.28327 0.81825 0.0
H1956 H 0.49318 0.06998 0.5734 0.0
H1957 H 0.49742 0.14967 0.55962 0.0
H1958 H 0.46234 0.07822 0.60216 0.0
H1959 H 0.4665 0.15775 0.58789 0.0
H1960 H 0.40472 0.16826 0.63396 0.0
H1961 H 0.4229 0.15139 0.60033 0.0
H1962 H 0.46735 0.09932 0.63858 0.0
H1963 H 0.44872 0.11605 0.67225 0.0
C1964 C 0.48734 0.08919 0.5763 0.0
C1965 C 0.49811 0.10921 0.56445 0.0
C1966 C 0.46963 0.09386 0.59269 0.0
C1967 C 0.46215 0.1186 0.59733 0.0
C1968 C 0.47165 0.13841 0.5845 0.0
C1969 C 0.48944 0.13378 0.56825 0.0
C1970 C 0.41798 0.15282 0.63506 0.0
C1971 C 0.42579 0.14368 0.65555 0.0
C1972 C 0.42836 0.1432 0.61588 0.0
C1973 C 0.44683 0.12438 0.61689 0.0
C1974 C 0.45305 0.11376 0.63732 0.0
C1975 C 0.44251 0.12334 0.65657 0.0
H1976 H 0.59674 0.74949 0.30656 0.0
H1977 H 0.67072 0.71719 0.29846 0.0
H1978 H 0.588 0.7199 0.33587 0.0
H1979 H 0.66194 0.6873 0.3279 0.0
H1980 H 0.57141 0.65762 0.38088 0.0
H1981 H 0.58131 0.67641 0.34544 0.0
H1982 H 0.65722 0.69094 0.36757 0.0
H1983 H 0.64732 0.67132 0.40284 0.0
C1984 C 0.61091 0.73565 0.31068 0.0
C1985 C 0.63448 0.73579 0.30034 0.0
C1986 C 0.60591 0.71863 0.32748 0.0
C1987 C 0.62434 0.70129 0.33424 0.0
C1988 C 0.64753 0.70068 0.32324 0.0
C1989 C 0.65254 0.71778 0.30644 0.0
C1990 C 0.59032 0.66444 0.37791 0.0
C1991 C 0.60857 0.66347 0.39449 0.0
C1992 C 0.59596 0.67524 0.35773 0.0
C1993 C 0.61989 0.68555 0.35387 0.0
C1994 C 0.63865 0.68302 0.37001 0.0
C1995 C 0.63304 0.67193 0.39019 0.0
H1996 H 0.09745 0.863 0.1303 0.0
H1997 H 0.07115 0.92769 0.16624 0.0
H1998 H 0.07658 0.87819 0.09748 0.0
H1999 H 0.05044 0.94353 0.13306 0.0
H2000 H 0.98021 0.92443 0.08904 0.0
H2001 H 0.01261 0.92631 0.11681 0.0
H2002 H 0.06879 0.90768 0.06826 0.0
H2003 H 0.036 0.90564 0.04026 0.0
C2004 C 0.08787 0.88099 0.13086 0.0
C2005 C 0.08543 0.89403 0.15072 0.0
C2006 C 0.07606 0.88985 0.11202 0.0
C2007 C 0.06149 0.91191 0.11273 0.0
C2008 C 0.06121 0.92626 0.13213 0.0
C2009 C 0.07315 0.91736 0.15105 0.0
C2010 C 0.99952 0.92144 0.08408 0.0
C2011 C 0.00545 0.91436 0.06251 0.0
C2012 C 0.01821 0.92268 0.10005 0.0
C2013 C 0.0433 0.91693 0.09482 0.0
C2014 C 0.04955 0.91182 0.07287 0.0
C2015 C 0.03078 0.91049 0.05687 0.0
H2016 H 0.62922 0.76751 0.79376 0.0
H2017 H 0.6526 0.72542 0.85085 0.0
H2018 H 0.63028 0.80631 0.81538 0.0
H2019 H 0.654 0.76374 0.87205 0.0
H2020 H 0.664 0.83327 0.90745 0.0
H2021 H 0.67477 0.80456 0.87746 0.0
H2022 H 0.60408 0.82184 0.84584 0.0
H2023 H 0.59377 0.8507 0.87547 0.0
C2024 C 0.63466 0.7665 0.81082 0.0
C2025 C 0.64079 0.74331 0.82056 0.0
C2026 C 0.6355 0.78873 0.82313 0.0
C2027 C 0.64259 0.78813 0.84533 0.0
C2028 C 0.64919 0.76501 0.85484 0.0
C2029 C 0.64822 0.74293 0.84266 0.0
C2030 C 0.65135 0.83161 0.8936 0.0
C2031 C 0.62796 0.84373 0.89378 0.0
C2032 C 0.65736 0.81509 0.87656 0.0
C2033 C 0.64001 0.81057 0.85956 0.0
C2034 C 0.61787 0.82492 0.85864 0.0
C2035 C 0.61188 0.84133 0.87565 0.0
H2036 H 0.41813 0.40995 0.16226 0.0
H2037 H 0.4242 0.33507 0.13528 0.0
H2038 H 0.43712 0.42721 0.12899 0.0
H2039 H 0.4441 0.35198 0.10268 0.0
H2040 H 0.47547 0.38642 0.04303 0.0
H2041 H 0.4427 0.37711 0.06994 0.0
H2042 H 0.48014 0.42525 0.1168 0.0
H2043 H 0.51237 0.43461 0.09009 0.0
C2044 C 0.42318 0.39726 0.14909 0.0
C2045 C 0.42033 0.37116 0.15152 0.0
C2046 C 0.43415 0.40709 0.13012 0.0
C2047 C 0.44243 0.39093 0.11334 0.0
C2048 C 0.43782 0.365 0.11519 0.0
C2049 C 0.42681 0.35524 0.13405 0.0
C2050 C 0.47645 0.39519 0.05901 0.0
C2051 C 0.49666 0.41098 0.06452 0.0
C2052 C 0.45768 0.38995 0.07438 0.0
C2053 C 0.45891 0.40031 0.09556 0.0
C2054 C 0.47834 0.41727 0.10055 0.0
C2055 C 0.49696 0.42257 0.08521 0.0
H2056 H 0.92427 0.14378 0.38155 0.0
H2057 H 0.85643 0.16956 0.4131 0.0
H2058 H 0.91137 0.16412 0.34747 0.0
H2059 H 0.84373 0.19078 0.37929 0.0
H2060 H 0.90272 0.24094 0.3121 0.0
H2061 H 0.91096 0.2082 0.33884 0.0
H2062 H 0.8317 0.19012 0.34087 0.0
H2063 H 0.82347 0.22322 0.31402 0.0
C2064 C 0.9063 0.15339 0.38093 0.0
C2065 C 0.89134 0.15539 0.39978 0.0
C2066 C 0.89899 0.16516 0.36155 0.0
C2067 C 0.87678 0.17946 0.36079 0.0
C2068 C 0.86087 0.17977 0.37926 0.0
C2069 C 0.8681 0.16773 0.39863 0.0
C2070 C 0.88714 0.22958 0.31779 0.0
C2071 C 0.86243 0.23486 0.31115 0.0
C2072 C 0.89184 0.21072 0.33312 0.0
C2073 C 0.87194 0.1966 0.34208 0.0
C2074 C 0.84736 0.20093 0.33452 0.0
C2075 C 0.84266 0.21988 0.31919 0.0
H2076 H 0.97574 0.59013 0.59209 0.0
H2077 H 0.03204 0.62132 0.54912 0.0
H2078 H 1.00231 0.5984 0.62357 0.0
H2079 H 0.05971 0.62846 0.58055 0.0
H2080 H 0.08088 0.67261 0.64247 0.0
H2081 H 0.06211 0.65634 0.60939 0.0
H2082 H 0.03786 0.58994 0.64465 0.0
H2083 H 0.05514 0.60752 0.67847 0.0
C2084 C 0.99417 0.59825 0.58942 0.0
C2085 C 1.00189 0.60527 0.5683 0.0
C2086 C 0.00957 0.60279 0.60745 0.0
C2087 C 0.03327 0.61411 0.60474 0.0
C2088 C 0.04139 0.62017 0.58337 0.0
C2089 C 0.02567 0.61609 0.56535 0.0
C2090 C 0.07147 0.65454 0.64321 0.0
C2091 C 0.06867 0.64174 0.66322 0.0
C2092 C 0.06107 0.64493 0.62406 0.0
C2093 C 0.04804 0.62194 0.62429 0.0
C2094 C 0.04715 0.60805 0.64398 0.0
C2095 C 0.05729 0.61793 0.66332 0.0
H2096 H 0.61147 0.2613 0.66659 0.0
H2097 H 0.69074 0.24332 0.66718 0.0
H2098 H 0.60387 0.22677 0.64142 0.0
H2099 H 0.68313 0.20866 0.64178 0.0
H2100 H 0.59137 0.15656 0.60608 0.0
H2101 H 0.60438 0.1811 0.63793 0.0
H2102 H 0.67077 0.20546 0.6029 0.0
H2103 H 0.6579 0.18024 0.57126 0.0
C2104 C 0.62721 0.2497 0.66165 0.0
C2105 C 0.6517 0.25518 0.66876 0.0
C2106 C 0.62287 0.22983 0.64727 0.0
C2107 C 0.64293 0.21493 0.6397 0.0
C2108 C 0.66736 0.21997 0.64721 0.0
C2109 C 0.67171 0.23988 0.66165 0.0
C2110 C 0.60913 0.16657 0.60555 0.0
C2111 C 0.62362 0.16683 0.58635 0.0
C2112 C 0.61647 0.18073 0.62364 0.0
C2113 C 0.63829 0.19561 0.62271 0.0
C2114 C 0.6539 0.19411 0.60412 0.0
C2115 C 0.6466 0.17973 0.58603 0.0
H2116 H 0.09425 0.32205 0.8536 0.0
H2117 H 0.10206 0.39877 0.8312 0.0
H2118 H 0.07326 0.33667 0.88655 0.0
H2119 H 0.08209 0.41364 0.86484 0.0
H2120 H 0.00536 0.42007 0.90066 0.0
H2121 H 0.03844 0.41113 0.8747 0.0
H2122 H 0.07224 0.35927 0.92067 0.0
H2123 H 0.0386 0.36823 0.94689 0.0
C2124 C 0.09191 0.34212 0.85598 0.0
C2125 C 0.09907 0.35926 0.83958 0.0
C2126 C 0.08021 0.35053 0.87503 0.0
C2127 C 0.07562 0.3763 0.87815 0.0
C2128 C 0.08492 0.39361 0.86267 0.0
C2129 C 0.09652 0.38514 0.8435 0.0
C2130 C 0.02012 0.40722 0.90554 0.0
C2131 C 0.01924 0.39474 0.92582 0.0
C2132 C 0.03925 0.40217 0.89062 0.0
C2133 C 0.05806 0.38453 0.8956 0.0
C2134 C 0.05784 0.37278 0.91627 0.0
C2135 C 0.03856 0.3778 0.93123 0.0
H2136 H 0.81142 0.75956 0.14812 0.0
H2137 H 0.89021 0.76066 0.16573 0.0
H2138 H 0.81985 0.78904 0.11834 0.0
H2139 H 0.89837 0.7904 0.13645 0.0
H2140 H 0.9074 0.85194 0.08955 0.0
H2141 H 0.88949 0.83351 0.12269 0.0
H2142 H 0.84413 0.78379 0.08297 0.0
H2143 H 0.86198 0.8026 0.04973 0.0
C2144 C 0.83047 0.76622 0.14581 0.0
C2145 C 0.85022 0.75738 0.15914 0.0
C2146 C 0.83522 0.78318 0.12882 0.0
C2147 C 0.85973 0.79191 0.12505 0.0
C2148 C 0.87919 0.78424 0.13915 0.0
C2149 C 0.8745 0.76715 0.15599 0.0
C2150 C 0.8931 0.83752 0.08798 0.0
C2151 C 0.88624 0.82832 0.06726 0.0
C2152 C 0.88293 0.82695 0.10688 0.0
C2153 C 0.8658 0.80695 0.10537 0.0
C2154 C 0.85726 0.79928 0.08458 0.0
C2155 C 0.86743 0.80995 0.06559 0.0
H2156 H 0.41676 0.61234 0.32412 0.0
H2157 H 0.39999 0.6839 0.35402 0.0
H2158 H 0.43996 0.59966 0.35689 0.0
H2159 H 0.42216 0.67106 0.3872 0.0
H2160 H 0.47355 0.57843 0.42138 0.0
H2161 H 0.44078 0.58897 0.39488 0.0
H2162 H 0.4654 0.66655 0.39569 0.0
H2163 H 0.49756 0.65598 0.42247 0.0
C2164 C 0.41746 0.62499 0.33802 0.0
C2165 C 0.40696 0.6491 0.33663 0.0
C2166 C 0.43064 0.61777 0.35683 0.0
C2167 C 0.43323 0.63451 0.3746 0.0
C2168 C 0.42106 0.65796 0.37364 0.0
C2169 C 0.40823 0.66526 0.35476 0.0
C2170 C 0.47164 0.59777 0.41604 0.0
C2171 C 0.48815 0.61637 0.42382 0.0
C2172 C 0.45296 0.60381 0.40084 0.0
C2173 C 0.45056 0.62855 0.39299 0.0
C2174 C 0.46639 0.64736 0.4016 0.0
C2175 C 0.4849 0.64134 0.41694 0.0
H2176 H 0.4091 0.14183 0.10757 0.0
H2177 H 0.34849 0.18002 0.07448 0.0
H2178 H 0.39716 0.16187 0.14208 0.0
H2179 H 0.33694 0.20088 0.10861 0.0
H2180 H 0.40025 0.23986 0.17759 0.0
H2181 H 0.40395 0.20475 0.15227 0.0
H2182 H 0.32295 0.20211 0.14597 0.0
H2183 H 0.31947 0.23771 0.17106 0.0
C2184 C 0.39269 0.15393 0.10796 0.0
C2185 C 0.37964 0.15956 0.0886 0.0
C2186 C 0.386 0.16557 0.12759 0.0
C2187 C 0.36643 0.18335 0.12802 0.0
C2188 C 0.35198 0.18715 0.10895 0.0
C2189 C 0.35854 0.17527 0.08936 0.0
C2190 C 0.38325 0.23131 0.17126 0.0
C2191 C 0.35964 0.24176 0.17589 0.0
C2192 C 0.3853 0.21108 0.1568 0.0
C2193 C 0.36371 0.20078 0.14687 0.0
C2194 C 0.33995 0.20995 0.15299 0.0
C2195 C 0.33795 0.23031 0.16731 0.0
H2196 H 0.54289 0.59434 0.81374 0.0
H2197 H 0.614 0.60999 0.84497 0.0
H2198 H 0.52565 0.58028 0.8487 0.0
H2199 H 0.59671 0.59611 0.88016 0.0
H2200 H 0.4984 0.55555 0.91282 0.0
H2201 H 0.52744 0.55124 0.88212 0.0
H2202 H 0.56274 0.62143 0.90005 0.0
H2203 H 0.53343 0.62621 0.93021 0.0
C2204 C 0.55505 0.59384 0.82798 0.0
C2205 C 0.57961 0.60333 0.82684 0.0
C2206 C 0.54528 0.58569 0.84796 0.0
C2207 C 0.55984 0.58732 0.86713 0.0
C2208 C 0.58513 0.59476 0.8656 0.0
C2209 C 0.59502 0.60256 0.84551 0.0
C2210 C 0.51253 0.56993 0.91039 0.0
C2211 C 0.51301 0.59166 0.92357 0.0
C2212 C 0.5293 0.56728 0.89296 0.0
C2213 C 0.5471 0.58611 0.88862 0.0
C2214 C 0.54931 0.6065 0.90313 0.0
C2215 C 0.53239 0.60929 0.92042 0.0
H2216 H 0.15923 0.79268 0.56568 0.0
H2217 H 0.14484 0.8623 0.59984 0.0
H2218 H 0.171 0.77272 0.60018 0.0
H2219 H 0.15652 0.8423 0.63452 0.0
H2220 H 0.12402 0.77787 0.68202 0.0
H2221 H 0.12994 0.80831 0.65275 0.0
H2222 H 0.199 0.77139 0.63394 0.0
H2223 H 0.19343 0.74117 0.66364 0.0
C2224 C 0.15948 0.80389 0.58051 0.0
C2225 C 0.15104 0.82888 0.58024 0.0
C2226 C 0.16632 0.79256 0.60023 0.0
C2227 C 0.16445 0.80596 0.62002 0.0
C2228 C 0.158 0.83158 0.61948 0.0
C2229 C 0.15149 0.84302 0.59967 0.0
C2230 C 0.14091 0.7767 0.67219 0.0
C2231 C 0.15788 0.75666 0.67479 0.0
C2232 C 0.14436 0.79423 0.65543 0.0
C2233 C 0.16478 0.79197 0.64094 0.0
C2234 C 0.18293 0.77332 0.64474 0.0
C2235 C 0.17959 0.75591 0.66161 0.0
H2236 H 0.91784 0.39897 0.32902 0.0
H2237 H 0.89264 0.33019 0.3594 0.0
H2238 H 0.93754 0.41183 0.36334 0.0
H2239 H 0.9113 0.34332 0.39414 0.0
H2240 H 0.97203 0.43181 0.42639 0.0
H2241 H 0.93732 0.42346 0.4012 0.0
H2242 H 0.95463 0.34398 0.40373 0.0
H2243 H 0.98873 0.35241 0.42913 0.0
C2244 C 0.91571 0.38715 0.34337 0.0
C2245 C 0.90412 0.36359 0.34174 0.0
C2246 C 0.92686 0.39448 0.36307 0.0
C2247 C 0.92635 0.37837 0.38141 0.0
C2248 C 0.91252 0.35587 0.38019 0.0
C2249 C 0.9017 0.34842 0.36042 0.0
C2250 C 0.96803 0.41255 0.42178 0.0
C2251 C 0.98326 0.39277 0.42936 0.0
C2252 C 0.94819 0.40776 0.4074 0.0
C2253 C 0.94337 0.38312 0.40021 0.0
C2254 C 0.95753 0.36318 0.4091 0.0
C2255 C 0.9772 0.36797 0.42362 0.0
H2256 H 0.32636 0.75628 0.34181 0.0
H2257 H 0.37935 0.78811 0.29575 0.0
H2258 H 0.33856 0.78698 0.36885 0.0
H2259 H 0.39177 0.81922 0.32325 0.0
H2260 H 0.43133 0.83589 0.39062 0.0
H2261 H 0.41499 0.81634 0.35755 0.0
H2262 H 0.33905 0.83081 0.37956 0.0
H2263 H 0.35551 0.84942 0.41323 0.0
C2264 C 0.34019 0.77023 0.33719 0.0
C2265 C 0.3519 0.76965 0.31654 0.0
C2266 C 0.34715 0.78797 0.35278 0.0
C2267 C 0.36605 0.80563 0.34819 0.0
C2268 C 0.37726 0.80569 0.3273 0.0
C2269 C 0.37024 0.78784 0.31161 0.0
C2270 C 0.41113 0.83499 0.38833 0.0
C2271 C 0.39465 0.84351 0.40474 0.0
C2272 C 0.40178 0.82416 0.36922 0.0
C2273 C 0.37573 0.82175 0.36608 0.0
C2274 C 0.35924 0.83205 0.38173 0.0
C2275 C 0.36863 0.84283 0.40092 0.0
H2276 H 0.91841 0.59662 0.16289 0.0
H2277 H 0.90978 0.66515 0.12567 0.0
H2278 H 0.94616 0.57983 0.13442 0.0
H2279 H 0.93786 0.64884 0.0976 0.0
H2280 H 0.98868 0.61338 0.04818 0.0
H2281 H 0.94997 0.61834 0.06938 0.0
H2282 H 0.98921 0.59421 0.12771 0.0
H2283 H 0.02754 0.58957 0.10686 0.0
C2284 C 0.92184 0.60773 0.1483 0.0
C2285 C 0.91248 0.63231 0.1466 0.0
C2286 C 0.93784 0.59825 0.1321 0.0
C2287 C 0.94459 0.61323 0.114 0.0
C2288 C 0.93303 0.63679 0.11129 0.0
C2289 C 0.91713 0.64624 0.12745 0.0
C2290 C 0.98899 0.60906 0.0655 0.0
C2291 C 0.01133 0.60125 0.07581 0.0
C2292 C 0.96678 0.61171 0.07759 0.0
C2293 C 0.96649 0.6065 0.10018 0.0
C2294 C 0.98859 0.5978 0.11024 0.0
C2295 C 0.0107 0.59526 0.09824 0.0
H2296 H 0.15674 0.17133 0.91032 0.0
H2297 H 0.08434 0.15088 0.8839 0.0
H2298 H 0.16749 0.19215 0.87579 0.0
H2299 H 0.0952 0.17075 0.8491 0.0
H2300 H 0.10671 0.24542 0.81117 0.0
H2301 H 0.09828 0.21415 0.83925 0.0
H2302 H 0.17599 0.19026 0.83696 0.0
H2303 H 0.18441 0.22198 0.80892 0.0
C2304 C 0.14351 0.17067 0.89682 0.0
C2305 C 0.11969 0.1599 0.89965 0.0
C2306 C 0.14961 0.18247 0.87704 0.0
C2307 C 0.13202 0.18342 0.85979 0.0
C2308 C 0.10893 0.17085 0.86222 0.0
C2309 C 0.10276 0.15936 0.88203 0.0
C2310 C 0.12182 0.23307 0.81624 0.0
C2311 C 0.14626 0.23629 0.80803 0.0
C2312 C 0.11702 0.21508 0.83235 0.0
C2313 C 0.13653 0.19979 0.84048 0.0
C2314 C 0.16067 0.20204 0.83132 0.0
C2315 C 0.16549 0.22015 0.81528 0.0
H2316 H 0.61265 0.3625 0.6361 0.0
H2317 H 0.56262 0.40813 0.67523 0.0
H2318 H 0.58843 0.37295 0.6033 0.0
H2319 H 0.53831 0.41842 0.64246 0.0
H2320 H 0.50761 0.44385 0.57759 0.0
H2321 H 0.54041 0.43978 0.60527 0.0
H2322 H 0.54396 0.35982 0.59315 0.0
H2323 H 0.51076 0.36371 0.56583 0.0
C2324 C 0.59686 0.37528 0.63758 0.0
C2325 C 0.58939 0.38447 0.65817 0.0
C2326 C 0.58292 0.38106 0.61886 0.0
C2327 C 0.56148 0.39635 0.62041 0.0
C2328 C 0.55489 0.40674 0.6408 0.0
C2329 C 0.56866 0.40073 0.65955 0.0
C2330 C 0.51542 0.42541 0.58076 0.0
C2331 C 0.50619 0.40401 0.56982 0.0
C2332 C 0.53428 0.42314 0.59651 0.0
C2333 C 0.54451 0.39949 0.60144 0.0
C2334 C 0.53651 0.37834 0.58952 0.0
C2335 C 0.51749 0.38057 0.57387 0.0
H2336 H 0.22942 0.19049 0.21812 0.0
H2337 H 0.18078 0.24841 0.2439 0.0
H2338 H 0.2658 0.21769 0.22378 0.0
H2339 H 0.21702 0.27496 0.25082 0.0
H2340 H 0.285 0.32581 0.24346 0.0
H2341 H 0.24842 0.29996 0.23666 0.0
H2342 H 0.29181 0.23328 0.25163 0.0
H2343 H 0.32909 0.25935 0.25717 0.0
C2344 C 0.22649 0.20919 0.22473 0.0
C2345 C 0.20221 0.21734 0.23038 0.0
C2346 C 0.24739 0.22464 0.22837 0.0
C2347 C 0.24458 0.24848 0.23815 0.0
C2348 C 0.22009 0.25694 0.24302 0.0
C2349 C 0.19917 0.24169 0.23897 0.0
C2350 C 0.28676 0.30565 0.2456 0.0
C2351 C 0.31009 0.29468 0.2508 0.0
C2352 C 0.26561 0.29074 0.24173 0.0
C2353 C 0.26701 0.26438 0.24333 0.0
C2354 C 0.29008 0.25346 0.24966 0.0
C2355 C 0.31141 0.26842 0.25323 0.0
H2356 H 0.08327 0.97358 0.50943 0.0
H2357 H 0.02009 0.92753 0.49009 0.0
H2358 H 0.05592 0.00974 0.51272 0.0
H2359 H 0.99262 0.96434 0.49231 0.0
H2360 H 0.9449 0.02773 0.51949 0.0
H2361 H 0.97304 0.99153 0.51775 0.0
H2362 H 0.03261 0.03977 0.49394 0.0
H2363 H 0.00482 0.07593 0.49669 0.0
C2364 C 0.06355 0.97124 0.50543 0.0
C2365 C 0.0539 0.94756 0.49948 0.0
C2366 C 0.0478 0.99215 0.50725 0.0
C2367 C 0.02192 0.99014 0.5029 0.0
C2368 C 0.01235 0.96657 0.49625 0.0
C2369 C 0.02814 0.94549 0.49467 0.0
C2370 C 0.9642 0.03062 0.51438 0.0
C2371 C 0.97269 0.05473 0.50847 0.0
C2372 C 0.98025 0.0098 0.51303 0.0
C2373 C 0.00511 0.01251 0.50543 0.0
C2374 C 0.01376 0.03685 0.50016 0.0
C2375 C 0.99782 0.0577 0.50182 0.0
H2376 H 0.20698 0.68825 0.75105 0.0
H2377 H 0.16737 0.75838 0.76046 0.0
H2378 H 0.24539 0.71096 0.74359 0.0
H2379 H 0.20653 0.7814 0.75429 0.0
H2380 H 0.27319 0.81767 0.72089 0.0
H2381 H 0.23468 0.79371 0.72692 0.0
H2382 H 0.27828 0.73425 0.75696 0.0
H2383 H 0.31663 0.75753 0.74967 0.0
C2384 C 0.20657 0.70859 0.75208 0.0
C2385 C 0.18396 0.72145 0.75636 0.0
C2386 C 0.22881 0.72171 0.74784 0.0
C2387 C 0.22932 0.74817 0.74813 0.0
C2388 C 0.20688 0.76106 0.75337 0.0
C2389 C 0.18444 0.74787 0.7573 0.0
C2390 C 0.27452 0.79916 0.72825 0.0
C2391 C 0.298 0.78943 0.73458 0.0
C2392 C 0.25237 0.78557 0.7321 0.0
C2393 C 0.25308 0.76208 0.74279 0.0
C2394 C 0.27677 0.75204 0.74843 0.0
C2395 C 0.29892 0.7654 0.74417 0.0
H2396 H 0.57905 0.99105 0.97874 0.0
H2397 H 0.51641 0.94346 -0.00337 0.0
H2398 H 0.55095 0.02673 0.97537 0.0
H2399 H 0.48823 0.97965 -0.00575 0.0
H2400 H 0.43978 0.04108 0.96503 0.0
H2401 H 0.46911 0.00593 0.96765 0.0
H2402 H 0.5258 0.05609 -0.00638 0.0
H2403 H 0.49684 0.09124 0.99007 0.0
C2404 C 0.55931 0.98829 0.98244 0.0
C2405 C 0.55 0.9643 0.98789 0.0
C2406 C 0.54313 0.00888 0.98055 0.0
C2407 C 0.51718 0.00617 0.98429 0.0
C2408 C 0.50801 0.98238 0.99072 0.0
C2409 C 0.52422 0.96166 0.99242 0.0
C2410 C 0.45871 0.04464 0.97082 0.0
C2411 C 0.46602 0.06898 0.97715 0.0
C2412 C 0.47543 0.02442 0.97267 0.0
C2413 C 0.49979 0.02797 0.98118 0.0
C2414 C 0.50734 0.05255 0.98678 0.0
C2415 C 0.49073 0.07282 0.98465 0.0
H2416 H 0.31277 0.75504 0.22783 0.0
H2417 H 0.26649 0.68935 0.23847 0.0
H2418 H 0.27567 0.78178 0.23144 0.0
H2419 H 0.2299 0.71588 0.24324 0.0
H2420 H 0.16374 0.76937 0.23452 0.0
H2421 H 0.19979 0.74217 0.2281 0.0
H2422 H 0.24843 0.79735 0.25842 0.0
H2423 H 0.21241 0.82506 0.2637 0.0
C2424 C 0.29467 0.74627 0.23065 0.0
C2425 C 0.29271 0.72002 0.23287 0.0
C2426 C 0.27339 0.76163 0.2331 0.0
C2427 C 0.24966 0.75115 0.23805 0.0
C2428 C 0.24764 0.7248 0.23928 0.0
C2429 C 0.26879 0.70948 0.23658 0.0
C2430 C 0.18206 0.77547 0.24021 0.0
C2431 C 0.18518 0.79933 0.24977 0.0
C2432 C 0.20286 0.75987 0.23645 0.0
C2433 C 0.22729 0.76753 0.24249 0.0
C2434 C 0.23013 0.79098 0.25296 0.0
C2435 C 0.20939 0.80674 0.25636 0.0
H2436 H 0.57019 0.03252 0.47087 0.0
H2437 H 0.51307 0.08145 0.49748 0.0
H2438 H 0.54358 0.9961 0.4782 0.0
H2439 H 0.48717 0.04521 0.50617 0.0
H2440 H 0.43619 0.97699 0.50142 0.0
H2441 H 0.46167 0.01358 0.4938 0.0
H2442 H 0.52898 0.97009 0.50618 0.0
H2443 H 0.50318 0.93276 0.51246 0.0
C2444 C 0.55179 0.03549 0.47805 0.0
C2445 C 0.54365 0.05989 0.48334 0.0
C2446 C 0.53668 0.01456 0.48267 0.0
C2447 C 0.51323 0.01744 0.49314 0.0
C2448 C 0.50485 0.04203 0.49783 0.0
C2449 C 0.51973 0.06297 0.49277 0.0
C2450 C 0.45643 0.97519 0.50282 0.0
C2451 C 0.46759 0.95178 0.50747 0.0
C2452 C 0.47115 0.99638 0.49848 0.0
C2453 C 0.49757 0.99499 0.49906 0.0
C2454 C 0.50874 0.97186 0.50495 0.0
C2455 C 0.49394 0.95047 0.50896 0.0
H2456 H 0.22471 0.32069 0.71406 0.0
H2457 H 0.18113 0.25888 0.73986 0.0
H2458 H 0.26324 0.29666 0.71961 0.0
H2459 H 0.21948 0.23552 0.74685 0.0
H2460 H 0.29166 0.19098 0.74215 0.0
H2461 H 0.25321 0.21326 0.73394 0.0
H2462 H 0.29039 0.28399 0.74745 0.0
H2463 H 0.32965 0.26148 0.75429 0.0
C2464 C 0.22337 0.30179 0.72061 0.0
C2465 C 0.19988 0.29167 0.72642 0.0
C2466 C 0.2455 0.28816 0.72422 0.0
C2467 C 0.24474 0.26424 0.73416 0.0
C2468 C 0.22103 0.2537 0.73897 0.0
C2469 C 0.19889 0.26711 0.73489 0.0
C2470 C 0.29167 0.21129 0.74364 0.0
C2471 C 0.31385 0.22442 0.7489 0.0
C2472 C 0.26943 0.22415 0.73895 0.0
C2473 C 0.26848 0.25056 0.7398 0.0
C2474 C 0.29043 0.26368 0.74604 0.0
C2475 C 0.3129 0.25078 0.75037 0.0
H2476 H 0.01388 0.92165 0.9744 0.0
H2477 H 0.9444 0.96263 0.98307 0.0
H2478 H 0.03755 0.96007 0.98193 0.0
H2479 H 0.9677 1.00021 0.99201 0.0
H2480 H 0.01574 0.07059 0.9887 0.0
H2481 H 0.99181 0.03299 0.98021 0.0
H2482 H 0.05 0.98718 0.0097 0.0
H2483 H 0.07469 0.02499 0.01674 0.0
C2484 C 1.00366 0.93887 0.97771 0.0
C2485 C 0.97723 0.939 0.97799 0.0
C2486 C 0.01722 0.96088 0.98243 0.0
C2487 C 0.00467 0.98344 0.98789 0.0
C2488 C 0.97822 0.98353 0.98759 0.0
C2489 C 0.96475 0.96177 0.98249 0.0
C2490 C 0.02317 0.05253 -0.00619 0.0
C2491 C 0.04706 0.05077 0.00351 0.0
C2492 C 0.00943 0.03081 0.98888 0.0
C2493 C 0.01894 0.00673 -0.00599 0.0
C2494 C 0.04227 0.00519 0.00488 0.0
C2495 C 0.05627 0.02692 0.00933 0.0
H2496 H 0.81313 0.76245 0.73673 0.0
H2497 H 0.7621 0.82182 0.75546 0.0
H2498 H 0.77822 0.73311 0.73471 0.0
H2499 H 0.72708 0.79213 0.75466 0.0
H2500 H 0.66527 0.73964 0.73045 0.0
H2501 H 0.7005 0.76925 0.73133 0.0
H2502 H 0.74943 0.70964 0.75398 0.0
H2503 H 0.71494 0.6802 0.75186 0.0
C2504 C 0.79451 0.76906 0.74108 0.0
C2505 C 0.79044 0.79444 0.74646 0.0
C2506 C 0.77435 0.7522 0.73989 0.0
C2507 C 0.74957 0.7601 0.74444 0.0
C2508 C 0.7457 0.78536 0.75055 0.0
C2509 C 0.76585 0.80235 0.75136 0.0
C2510 C 0.68369 0.73287 0.73523 0.0
C2511 C 0.68724 0.70749 0.74092 0.0
C2512 C 0.70388 0.7499 0.73604 0.0
C2513 C 0.72801 0.74201 0.74284 0.0
C2514 C 0.73143 0.71652 0.74825 0.0
C2515 C 0.71145 0.69953 0.74712 0.0
H2516 H 0.7864 0.31069 0.21699 0.0
H2517 H 0.83504 0.25316 0.24346 0.0
H2518 H 0.75005 0.28359 0.22293 0.0
H2519 H 0.79874 0.22661 0.25057 0.0
H2520 H 0.72968 0.1763 0.24332 0.0
H2521 H 0.76677 0.20156 0.23652 0.0
H2522 H 0.72459 0.2689 0.25175 0.0
H2523 H 0.68692 0.24352 0.25743 0.0
C2524 C 0.78934 0.29208 0.22378 0.0
C2525 C 0.8136 0.28405 0.22963 0.0
C2526 C 0.76845 0.27669 0.22758 0.0
C2527 C 0.77125 0.25303 0.23769 0.0
C2528 C 0.79573 0.24457 0.2426 0.0
C2529 C 0.81666 0.25979 0.23843 0.0
C2530 C 0.72832 0.19648 0.24554 0.0
C2531 C 0.7052 0.20787 0.25081 0.0
C2532 C 0.74973 0.21103 0.24164 0.0
C2533 C 0.74876 0.23741 0.24321 0.0
C2534 C 0.72595 0.24871 0.24975 0.0
C2535 C 0.7044 0.23412 0.25339 0.0
H2536 H 0.82777 0.2473 0.72803 0.0
H2537 H 0.78115 0.18133 0.73599 0.0
H2538 H 0.79091 0.27401 0.73316 0.0
H2539 H 0.74478 0.20779 0.74224 0.0
H2540 H 0.67924 0.26255 0.73659 0.0
H2541 H 0.71487 0.23546 0.7285 0.0
H2542 H 0.76438 0.28759 0.76168 0.0
H2543 H 0.72876 0.31533 0.7687 0.0
C2544 C 0.80962 0.23848 0.73052 0.0
C2545 C 0.80749 0.21215 0.73165 0.0
C2546 C 0.7885 0.2538 0.73386 0.0
C2547 C 0.76481 0.24316 0.73859 0.0
C2548 C 0.76255 0.2168 0.73854 0.0
C2549 C 0.78354 0.20154 0.73497 0.0
C2550 C 0.69765 0.26798 0.74257 0.0
C2551 C 0.70116 0.29106 0.7534 0.0
C2552 C 0.71819 0.25245 0.73783 0.0
C2553 C 0.74273 0.25937 0.74416 0.0
C2554 C 0.74596 0.2819 0.75597 0.0
C2555 C 0.72547 0.29764 0.76037 0.0
H2556 H 0.71428 0.82216 0.21916 0.0
H2557 H 0.67032 0.75403 0.21419 0.0
H2558 H 0.75148 0.79768 0.22698 0.0
H2559 H 0.70818 0.72915 0.2206 0.0
H2560 H 0.7721 0.69156 0.25696 0.0
H2561 H 0.73521 0.71703 0.24848 0.0
H2562 H 0.78306 0.77148 0.21614 0.0
H2563 H 0.81978 0.74684 0.22603 0.0
C2564 C 0.71266 0.80184 0.21906 0.0
C2565 C 0.68914 0.79014 0.21619 0.0
C2566 C 0.7342 0.78767 0.22353 0.0
C2567 C 0.73307 0.76126 0.22482 0.0
C2568 C 0.70981 0.74945 0.22044 0.0
C2569 C 0.6881 0.76371 0.2163 0.0
C2570 C 0.77469 0.70933 0.24854 0.0
C2571 C 0.79888 0.71732 0.24246 0.0
C2572 C 0.75348 0.72376 0.24327 0.0
C2573 C 0.75584 0.74631 0.23127 0.0
C2574 C 0.78025 0.75453 0.22566 0.0
C2575 C 0.80146 0.74038 0.23141 0.0
H2576 H 0.44586 0.5454 0.00089 0.0
H2577 H 0.51625 0.58479 0.00951 0.0
H2578 H 0.46827 0.50728 0.99207 0.0
H2579 H 0.53904 0.54579 0.00211 0.0
H2580 H 0.57473 0.47968 0.9678 0.0
H2581 H 0.55093 0.51814 0.9745 0.0
H2582 H 0.49149 0.47402 0.00405 0.0
H2583 H 0.51447 0.4358 -0.00412 0.0
C2584 C 0.46622 0.5458 0.00149 0.0
C2585 C 0.47922 0.56829 0.00595 0.0
C2586 C 0.47918 0.52371 -0.00355 0.0
C2587 C 0.50563 0.52317 -0.00381 0.0
C2588 C 0.51869 0.54546 0.00159 0.0
C2589 C 0.50564 0.5678 0.00624 0.0
C2590 C 0.55623 0.47825 0.97516 0.0
C2591 C 0.54645 0.45467 0.98115 0.0
C2592 C 0.54275 0.50036 0.97941 0.0
C2593 C 0.51934 0.49949 0.99022 0.0
C2594 C 0.50921 0.4757 -0.00456 0.0
C2595 C 0.52243 0.45361 0.9907 0.0
H2596 H 0.92903 0.53352 0.4845 0.0
H2597 H 0.99735 0.57518 0.47207 0.0
H2598 H 0.95347 0.49637 0.49302 0.0
H2599 H 0.02198 0.53739 0.47937 0.0
H2600 H 0.0618 0.47592 0.51613 0.0
H2601 H 0.03552 0.51245 0.50851 0.0
H2602 H 0.97847 0.46353 0.48129 0.0
H2603 H 0.00414 0.42711 0.49022 0.0
C2604 C 0.94931 0.53461 0.48298 0.0
C2605 C 0.9612 0.55748 0.47769 0.0
C2606 C 0.96341 0.51314 0.48788 0.0
C2607 C 0.98985 0.51375 0.48726 0.0
C2608 C 1.0017 0.53628 0.48069 0.0
C2609 C 0.98756 0.55791 0.47611 0.0
C2610 C 0.04332 0.47301 0.50908 0.0
C2611 C 0.03499 0.44864 0.50396 0.0
C2612 C 0.0284 0.49399 0.50429 0.0
C2613 C 0.00495 0.49118 0.49381 0.0
C2614 C 0.99623 0.46662 0.48953 0.0
C2615 C 0.01095 0.44561 0.49475 0.0
H2616 H 0.08626 0.52029 0.0097 0.0
H2617 H 0.02333 0.56635 0.98974 0.0
H2618 H 0.05856 0.48441 0.01381 0.0
H2619 H 0.99557 0.52991 0.99283 0.0
H2620 H 0.94729 0.4686 0.02234 0.0
H2621 H 0.97616 0.50413 0.01955 0.0
H2622 H 0.03433 0.45409 -0.00399 0.0
H2623 H 0.00584 0.41861 -0.00021 0.0
C2624 C 0.06654 0.52266 0.00571 0.0
C2625 C 0.05703 0.54629 -0.00058 0.0
C2626 C 0.05059 0.50195 0.00803 0.0
C2627 C 0.02468 0.50415 0.00387 0.0
C2628 C 0.01531 0.52758 -0.0033 0.0
C2629 C 0.03128 0.54843 -0.00541 0.0
C2630 C 0.96645 0.46517 0.01707 0.0
C2631 C 0.97431 0.44077 0.01148 0.0
C2632 C 0.98291 0.4856 0.01511 0.0
C2633 C 0.00756 0.48217 0.00721 0.0
C2634 C 0.01564 0.45755 0.00238 0.0
C2635 C 0.99929 0.43709 0.00464 0.0
H2636 H 0.44103 0.47331 0.47131 0.0
H2637 H 0.49684 0.42546 0.50137 0.0
H2638 H 0.46838 0.50965 0.47649 0.0
H2639 H 0.5237 0.46182 0.5076 0.0
H2640 H 0.5758 0.5291 0.49652 0.0
H2641 H 0.54974 0.4921 0.49202 0.0
H2642 H 0.4833 0.53702 0.50388 0.0
H2643 H 0.50954 0.57452 0.50727 0.0
C2644 C 0.45931 0.47054 0.47879 0.0
C2645 C 0.46687 0.44648 0.48569 0.0
C2646 C 0.47485 0.49144 0.48213 0.0
C2647 C 0.49819 0.48891 0.49281 0.0
C2648 C 0.50604 0.46462 0.4991 0.0
C2649 C 0.49066 0.44366 0.49543 0.0
C2650 C 0.55565 0.53111 0.4985 0.0
C2651 C 0.54479 0.5549 0.50212 0.0
C2652 C 0.54062 0.50974 0.49596 0.0
C2653 C 0.51427 0.51144 0.49724 0.0
C2654 C 0.50348 0.53502 0.50218 0.0
C2655 C 0.51855 0.55651 0.50451 0.0
loop_
_geom_bond_atom_site_label_1
_geom_bond_atom_site_label_2
_geom_bond_distance
_geom_bond_site_symmetry_2
_ccdc_geom_bond_type
C0 C1 1.351 . S
C0 N3 1.368 . S
C0 H5 0.931 . S
C1 C0 1.351 . S
C1 N2 1.373 . S
C1 H29 0.930 . S
N2 C1 1.373 . S
N2 C4 1.340 . S
N3 C0 1.368 . S
N3 C4 1.321 . S
N3 Co6 2.135 . S
C4 N2 1.340 . S
C4 N3 1.321 . S
C4 H28 0.930 . S
H5 C0 0.931 . S
Co6 N3 2.135 . S
Co6 N9 2.121 . S
Co6 O14 2.055 . S
Co6 O17 2.039 . S
Co6 N20 2.140 . S
C7 O8 1.227 . S
C7 O17 1.265 . S
O8 C7 1.227 . S
N9 Co6 2.121 . S
N9 C11 1.375 . S
N9 C12 1.313 . S
C10 C11 1.338 . S
C10 N13 1.377 . S
C10 H30 0.930 . S
C11 N9 1.375 . S
C11 C10 1.338 . S
C11 H15 0.931 . S
C12 N9 1.313 . S
C12 N13 1.344 . S
C12 H16 0.930 . S
N13 C10 1.377 . S
N13 C12 1.344 . S
O14 Co6 2.055 . S
O14 C18 1.253 . S
H15 C11 0.931 . S
H16 C12 0.930 . S
O17 Co6 2.039 . S
O17 C7 1.265 . S
C18 O14 1.253 . S
C18 O19 1.227 . S
O19 C18 1.227 . S
N20 Co6 2.140 . S
N20 C23 1.346 . S
N20 C24 1.345 . S
C21 C22 1.387 . S
C21 C25 1.391 . S
C22 C21 1.387 . S
C22 C23 1.369 . S
C22 H31 0.929 . S
C23 N20 1.346 . S
C23 C22 1.369 . S
C23 H26 0.928 . S
C24 N20 1.345 . S
C24 C25 1.371 . S
C24 H27 0.931 . S
C25 C21 1.391 . S
C25 C24 1.371 . S
C25 H32 0.930 . S
H26 C23 0.928 . S
H27 C24 0.931 . S
H28 C4 0.930 . S
H29 C1 0.930 . S
H30 C10 0.930 . S
H31 C22 0.929 . S
H32 C25 0.930 . S
C33 C34 1.351 . S
C33 N36 1.368 . S
C33 H38 0.931 . S
C34 C33 1.351 . S
C34 N35 1.373 . S
C34 H62 0.930 . S
N35 C34 1.373 . S
N35 C37 1.340 . S
N36 C33 1.368 . S
N36 C37 1.321 . S
N36 Co39 2.135 . S
C37 N35 1.340 . S
C37 N36 1.321 . S
C37 H61 0.930 . S
H38 C33 0.931 . S
Co39 N36 2.135 . S
Co39 N42 2.121 . S
Co39 O47 2.055 . S
Co39 O50 2.039 . S
Co39 N53 2.140 . S
C40 O41 1.227 . S
C40 O50 1.265 . S
O41 C40 1.227 . S
N42 Co39 2.121 . S
N42 C44 1.375 . S
N42 C45 1.313 . S
C43 C44 1.338 . S
C43 N46 1.377 . S
C43 H63 0.930 . S
C44 N42 1.375 . S
C44 C43 1.338 . S
C44 H48 0.931 . S
C45 N42 1.313 . S
C45 N46 1.344 . S
C45 H49 0.930 . S
N46 C43 1.377 . S
N46 C45 1.344 . S
O47 Co39 2.055 . S
O47 C51 1.253 . S
H48 C44 0.931 . S
H49 C45 0.930 . S
O50 Co39 2.039 . S
O50 C40 1.265 . S
C51 O47 1.253 . S
C51 O52 1.227 . S
O52 C51 1.227 . S
N53 Co39 2.140 . S
N53 C56 1.346 . S
N53 C57 1.345 . S
C54 C55 1.387 . S
C54 C58 1.391 . S
C55 C54 1.387 . S
C55 C56 1.369 . S
C55 H64 0.929 . S
C56 N53 1.346 . S
C56 C55 1.369 . S
C56 H59 0.928 . S
C57 N53 1.345 . S
C57 C58 1.371 . S
C57 H60 0.931 . S
C58 C54 1.391 . S
C58 C57 1.371 . S
C58 H65 0.930 . S
H59 C56 0.928 . S
H60 C57 0.931 . S
H61 C37 0.930 . S
H62 C34 0.930 . S
H63 C43 0.930 . S
H64 C55 0.929 . S
H65 C58 0.930 . S
C66 C67 1.351 . S
C66 N69 1.368 . S
C66 H71 0.931 . S
C67 C66 1.351 . S
C67 N68 1.373 . S
C67 H95 0.930 . S
N68 C67 1.373 . S
N68 C70 1.340 . S
N69 C66 1.368 . S
N69 C70 1.321 . S
N69 Co72 2.135 . S
C70 N68 1.340 . S
C70 N69 1.321 . S
C70 H94 0.930 . S
H71 C66 0.931 . S
Co72 N69 2.135 . S
Co72 N75 2.121 . S
Co72 O80 2.055 . S
Co72 O83 2.039 . S
Co72 N86 2.140 . S
C73 O74 1.227 . S
C73 O83 1.265 . S
O74 C73 1.227 . S
N75 Co72 2.121 . S
N75 C77 1.375 . S
N75 C78 1.313 . S
C76 C77 1.338 . S
C76 N79 1.377 . S
C76 H96 0.930 . S
C77 N75 1.375 . S
C77 C76 1.338 . S
C77 H81 0.931 . S
C78 N75 1.313 . S
C78 N79 1.344 . S
C78 H82 0.930 . S
N79 C76 1.377 . S
N79 C78 1.344 . S
O80 Co72 2.055 . S
O80 C84 1.253 . S
H81 C77 0.931 . S
H82 C78 0.930 . S
O83 Co72 2.039 . S
O83 C73 1.265 . S
C84 O80 1.253 . S
C84 O85 1.227 . S
O85 C84 1.227 . S
N86 Co72 2.140 . S
N86 C89 1.346 . S
N86 C90 1.345 . S
C87 C88 1.387 . S
C87 C91 1.391 . S
C88 C87 1.387 . S
C88 C89 1.369 . S
C88 H97 0.929 . S
C89 N86 1.346 . S
C89 C88 1.369 . S
C89 H92 0.928 . S
C90 N86 1.345 . S
C90 C91 1.371 . S
C90 H93 0.931 . S
C91 C87 1.391 . S
C91 C90 1.371 . S
C91 H98 0.930 . S
H92 C89 0.928 . S
H93 C90 0.931 . S
H94 C70 0.930 . S
H95 C67 0.930 . S
H96 C76 0.930 . S
H97 C88 0.929 . S
H98 C91 0.930 . S
C99 C100 1.351 . S
C99 N102 1.368 . S
C99 H104 0.931 . S
C100 C99 1.351 . S
C100 N101 1.373 . S
C100 H128 0.930 . S
N101 C100 1.373 . S
N101 C103 1.340 . S
N102 C99 1.368 . S
N102 C103 1.321 . S
N102 Co105 2.135 . S
C103 N101 1.340 . S
C103 N102 1.321 . S
C103 H127 0.930 . S
H104 C99 0.931 . S
Co105 N102 2.135 . S
Co105 N108 2.121 1_554 S
Co105 O113 2.055 . S
Co105 O116 2.039 . S
Co105 N119 2.140 . S
C106 O107 1.227 . S
C106 O116 1.265 . S
O107 C106 1.227 . S
N108 Co105 2.121 1_556 S
N108 C110 1.375 . S
N108 C111 1.313 . S
C109 C110 1.338 . S
C109 N112 1.377 . S
C109 H129 0.930 . S
C110 N108 1.375 . S
C110 C109 1.338 . S
C110 H114 0.931 . S
C111 N108 1.313 . S
C111 N112 1.344 . S
C111 H115 0.930 . S
N112 C109 1.377 . S
N112 C111 1.344 . S
O113 Co105 2.055 . S
O113 C117 1.253 . S
H114 C110 0.931 . S
H115 C111 0.930 . S
O116 Co105 2.039 . S
O116 C106 1.265 . S
C117 O113 1.253 . S
C117 O118 1.227 . S
O118 C117 1.227 . S
N119 Co105 2.140 . S
N119 C122 1.346 . S
N119 C123 1.345 . S
C120 C121 1.387 . S
C120 C124 1.391 . S
C121 C120 1.387 . S
C121 C122 1.369 . S
C121 H130 0.929 . S
C122 N119 1.346 . S
C122 C121 1.369 . S
C122 H125 0.928 . S
C123 N119 1.345 . S
C123 C124 1.371 . S
C123 H126 0.931 . S
C124 C120 1.391 . S
C124 C123 1.371 . S
C124 H131 0.930 . S
H125 C122 0.928 . S
H126 C123 0.931 . S
H127 C103 0.930 . S
H128 C100 0.930 . S
H129 C109 0.930 . S
H130 C121 0.929 . S
H131 C124 0.930 . S
C132 C133 1.351 . S
C132 N135 1.368 . S
C132 H137 0.931 . S
C133 C132 1.351 . S
C133 N134 1.373 . S
C133 H161 0.930 . S
N134 C133 1.373 . S
N134 C136 1.340 . S
N135 C132 1.368 . S
N135 C136 1.321 . S
N135 Co138 2.135 . S
C136 N134 1.340 . S
C136 N135 1.321 . S
C136 H160 0.930 . S
H137 C132 0.931 . S
Co138 N135 2.135 . S
Co138 N141 2.121 . S
Co138 O146 2.055 . S
Co138 O149 2.039 . S
Co138 N152 2.140 . S
C139 O140 1.227 . S
C139 O149 1.265 . S
O140 C139 1.227 . S
N141 Co138 2.121 . S
N141 C143 1.375 . S
N141 C144 1.313 . S
C142 C143 1.338 . S
C142 N145 1.377 . S
C142 H162 0.930 . S
C143 N141 1.375 . S
C143 C142 1.338 . S
C143 H147 0.931 . S
C144 N141 1.313 . S
C144 N145 1.344 . S
C144 H148 0.930 . S
N145 C142 1.377 . S
N145 C144 1.344 . S
O146 Co138 2.055 . S
O146 C150 1.253 . S
H147 C143 0.931 . S
H148 C144 0.930 . S
O149 Co138 2.039 . S
O149 C139 1.265 . S
C150 O146 1.253 . S
C150 O151 1.227 . S
O151 C150 1.227 . S
N152 Co138 2.140 . S
N152 C155 1.346 . S
N152 C156 1.345 . S
C153 C154 1.387 . S
C153 C157 1.391 . S
C154 C153 1.387 . S
C154 C155 1.369 . S
C154 H163 0.929 . S
C155 N152 1.346 . S
C155 C154 1.369 . S
C155 H158 0.928 . S
C156 N152 1.345 . S
C156 C157 1.371 . S
C156 H159 0.931 . S
C157 C153 1.391 . S
C157 C156 1.371 . S
C157 H164 0.930 . S
H158 C155 0.928 . S
H159 C156 0.931 . S
H160 C136 0.930 . S
H161 C133 0.930 . S
H162 C142 0.930 . S
H163 C154 0.929 . S
H164 C157 0.930 . S
C165 C166 1.351 . S
C165 N168 1.368 . S
C165 H170 0.931 . S
C166 C165 1.351 . S
C166 N167 1.373 . S
C166 H194 0.930 . S
N167 C166 1.373 . S
N167 C169 1.340 . S
N168 C165 1.368 . S
N168 C169 1.321 . S
N168 Co171 2.135 . S
C169 N167 1.340 . S
C169 N168 1.321 . S
C169 H193 0.930 . S
H170 C165 0.931 . S
Co171 N168 2.135 . S
Co171 N174 2.121 . S
Co171 O179 2.055 . S
Co171 O182 2.039 . S
Co171 N185 2.140 . S
C172 O173 1.227 . S
C172 O182 1.265 . S
O173 C172 1.227 . S
N174 Co171 2.121 . S
N174 C176 1.375 . S
N174 C177 1.313 . S
C175 C176 1.338 . S
C175 N178 1.377 . S
C175 H195 0.930 . S
C176 N174 1.375 . S
C176 C175 1.338 . S
C176 H180 0.931 . S
C177 N174 1.313 . S
C177 N178 1.344 . S
C177 H181 0.930 . S
N178 C175 1.377 . S
N178 C177 1.344 . S
O179 Co171 2.055 . S
O179 C183 1.253 . S
H180 C176 0.931 . S
H181 C177 0.930 . S
O182 Co171 2.039 . S
O182 C172 1.265 . S
C183 O179 1.253 . S
C183 O184 1.227 . S
O184 C183 1.227 . S
N185 Co171 2.140 . S
N185 C188 1.346 . S
N185 C189 1.345 . S
C186 C187 1.387 . S
C186 C190 1.391 . S
C187 C186 1.387 . S
C187 C188 1.369 . S
C187 H196 0.929 . S
C188 N185 1.346 . S
C188 C187 1.369 . S
C188 H191 0.928 . S
C189 N185 1.345 . S
C189 C190 1.371 . S
C189 H192 0.931 . S
C190 C186 1.391 . S
C190 C189 1.371 . S
C190 H197 0.930 . S
H191 C188 0.928 . S
H192 C189 0.931 . S
H193 C169 0.930 . S
H194 C166 0.930 . S
H195 C175 0.930 . S
H196 C187 0.929 . S
H197 C190 0.930 . S
C198 C199 1.351 . S
C198 N201 1.368 . S
C198 H203 0.931 . S
C199 C198 1.351 . S
C199 N200 1.373 . S
C199 H227 0.930 . S
N200 C199 1.373 . S
N200 C202 1.340 . S
N201 C198 1.368 . S
N201 C202 1.321 . S
N201 Co204 2.135 . S
C202 N200 1.340 . S
C202 N201 1.321 . S
C202 H226 0.930 . S
H203 C198 0.931 . S
Co204 N201 2.135 . S
Co204 N207 2.121 . S
Co204 O212 2.055 . S
Co204 O215 2.039 . S
Co204 N218 2.140 . S
C205 O206 1.227 . S
C205 O215 1.265 . S
O206 C205 1.227 . S
N207 Co204 2.121 . S
N207 C209 1.375 . S
N207 C210 1.313 . S
C208 C209 1.338 . S
C208 N211 1.377 . S
C208 H228 0.930 . S
C209 N207 1.375 . S
C209 C208 1.338 . S
C209 H213 0.931 . S
C210 N207 1.313 . S
C210 N211 1.344 . S
C210 H214 0.930 . S
N211 C208 1.377 . S
N211 C210 1.344 . S
O212 Co204 2.055 . S
O212 C216 1.253 . S
H213 C209 0.931 . S
H214 C210 0.930 . S
O215 Co204 2.039 . S
O215 C205 1.265 . S
C216 O212 1.253 . S
C216 O217 1.227 . S
O217 C216 1.227 . S
N218 Co204 2.140 . S
N218 C221 1.346 . S
N218 C222 1.345 . S
C219 C220 1.387 . S
C219 C223 1.391 . S
C220 C219 1.387 . S
C220 C221 1.369 . S
C220 H229 0.929 . S
C221 N218 1.346 . S
C221 C220 1.369 . S
C221 H224 0.928 . S
C222 N218 1.345 . S
C222 C223 1.371 . S
C222 H225 0.931 . S
C223 C219 1.391 . S
C223 C222 1.371 . S
C223 H230 0.930 . S
H224 C221 0.928 . S
H225 C222 0.931 . S
H226 C202 0.930 . S
H227 C199 0.930 . S
H228 C208 0.930 . S
H229 C220 0.929 . S
H230 C223 0.930 . S
C231 C232 1.351 . S
C231 N234 1.368 . S
C231 H236 0.931 . S
C232 C231 1.351 . S
C232 N233 1.373 . S
C232 H260 0.930 . S
N233 C232 1.373 . S
N233 C235 1.340 . S
N234 C231 1.368 . S
N234 C235 1.321 . S
N234 Co237 2.135 . S
C235 N233 1.340 . S
C235 N234 1.321 . S
C235 H259 0.930 . S
H236 C231 0.931 . S
Co237 N234 2.135 . S
Co237 N240 2.121 1_556 S
Co237 O245 2.055 . S
Co237 O248 2.039 . S
Co237 N251 2.140 . S
C238 O239 1.227 . S
C238 O248 1.265 . S
O239 C238 1.227 . S
N240 Co237 2.121 1_554 S
N240 C242 1.375 . S
N240 C243 1.313 . S
C241 C242 1.338 . S
C241 N244 1.377 . S
C241 H261 0.930 . S
C242 N240 1.375 . S
C242 C241 1.338 . S
C242 H246 0.931 . S
C243 N240 1.313 . S
C243 N244 1.344 . S
C243 H247 0.930 . S
N244 C241 1.377 . S
N244 C243 1.344 . S
O245 Co237 2.055 . S
O245 C249 1.253 . S
H246 C242 0.931 . S
H247 C243 0.930 . S
O248 Co237 2.039 . S
O248 C238 1.265 . S
C249 O245 1.253 . S
C249 O250 1.227 . S
O250 C249 1.227 . S
N251 Co237 2.140 . S
N251 C254 1.346 . S
N251 C255 1.345 . S
C252 C253 1.387 . S
C252 C256 1.391 . S
C253 C252 1.387 . S
C253 C254 1.369 . S
C253 H262 0.929 . S
C254 N251 1.346 . S
C254 C253 1.369 . S
C254 H257 0.928 . S
C255 N251 1.345 . S
C255 C256 1.371 . S
C255 H258 0.931 . S
C256 C252 1.391 . S
C256 C255 1.371 . S
C256 H263 0.930 . S
H257 C254 0.928 . S
H258 C255 0.931 . S
H259 C235 0.930 . S
H260 C232 0.930 . S
H261 C241 0.930 . S
H262 C253 0.929 . S
H263 C256 0.930 . S
C264 C265 1.351 . S
C264 N267 1.368 . S
C264 H269 0.931 . S
C265 C264 1.351 . S
C265 N266 1.373 . S
C265 H293 0.930 . S
N266 C265 1.373 . S
N266 C268 1.340 . S
N267 C264 1.368 . S
N267 C268 1.321 . S
N267 Co270 2.135 . S
C268 N266 1.340 . S
C268 N267 1.321 . S
C268 H292 0.930 . S
H269 C264 0.931 . S
Co270 N267 2.135 . S
Co270 N273 2.121 . S
Co270 O278 2.055 . S
Co270 O281 2.039 . S
Co270 N284 2.140 . S
C271 O272 1.227 . S
C271 O281 1.265 . S
O272 C271 1.227 . S
N273 Co270 2.121 . S
N273 C275 1.375 . S
N273 C276 1.313 . S
C274 C275 1.338 . S
C274 N277 1.377 . S
C274 H294 0.930 . S
C275 N273 1.375 . S
C275 C274 1.338 . S
C275 H279 0.931 . S
C276 N273 1.313 . S
C276 N277 1.344 . S
C276 H280 0.930 . S
N277 C274 1.377 . S
N277 C276 1.344 . S
O278 Co270 2.055 . S
O278 C282 1.253 . S
H279 C275 0.931 . S
H280 C276 0.930 . S
O281 Co270 2.039 . S
O281 C271 1.265 . S
C282 O278 1.253 . S
C282 O283 1.227 . S
O283 C282 1.227 . S
N284 Co270 2.140 . S
N284 C287 1.346 . S
N284 C288 1.345 . S
C285 C286 1.387 . S
C285 C289 1.391 . S
C286 C285 1.387 . S
C286 C287 1.369 . S
C286 H295 0.929 . S
C287 N284 1.346 . S
C287 C286 1.369 . S
C287 H290 0.928 . S
C288 N284 1.345 . S
C288 C289 1.371 . S
C288 H291 0.931 . S
C289 C285 1.391 . S
C289 C288 1.371 . S
C289 H296 0.930 . S
H290 C287 0.928 . S
H291 C288 0.931 . S
H292 C268 0.930 . S
H293 C265 0.930 . S
H294 C274 0.930 . S
H295 C286 0.929 . S
H296 C289 0.930 . S
C297 C298 1.351 . S
C297 N300 1.368 . S
C297 H302 0.931 . S
C298 C297 1.351 . S
C298 N299 1.373 . S
C298 H326 0.930 . S
N299 C298 1.373 . S
N299 C301 1.340 . S
N300 C297 1.368 . S
N300 C301 1.321 . S
N300 Co303 2.135 . S
C301 N299 1.340 . S
C301 N300 1.321 . S
C301 H325 0.930 . S
H302 C297 0.931 . S
Co303 N300 2.135 . S
Co303 N306 2.121 . S
Co303 O311 2.055 . S
Co303 O314 2.039 . S
Co303 N317 2.140 . S
C304 O305 1.227 . S
C304 O314 1.265 . S
O305 C304 1.227 . S
N306 Co303 2.121 . S
N306 C308 1.375 . S
N306 C309 1.313 . S
C307 C308 1.338 . S
C307 N310 1.377 . S
C307 H327 0.930 . S
C308 N306 1.375 . S
C308 C307 1.338 . S
C308 H312 0.931 . S
C309 N306 1.313 . S
C309 N310 1.344 . S
C309 H313 0.930 . S
N310 C307 1.377 . S
N310 C309 1.344 . S
O311 Co303 2.055 . S
O311 C315 1.253 . S
H312 C308 0.931 . S
H313 C309 0.930 . S
O314 Co303 2.039 . S
O314 C304 1.265 . S
C315 O311 1.253 . S
C315 O316 1.227 . S
O316 C315 1.227 . S
N317 Co303 2.140 . S
N317 C320 1.346 . S
N317 C321 1.345 . S
C318 C319 1.387 . S
C318 C322 1.391 . S
C319 C318 1.387 . S
C319 C320 1.369 . S
C319 H328 0.929 . S
C320 N317 1.346 . S
C320 C319 1.369 . S
C320 H323 0.928 . S
C321 N317 1.345 . S
C321 C322 1.371 . S
C321 H324 0.931 . S
C322 C318 1.391 . S
C322 C321 1.371 . S
C322 H329 0.930 . S
H323 C320 0.928 . S
H324 C321 0.931 . S
H325 C301 0.930 . S
H326 C298 0.930 . S
H327 C307 0.930 . S
H328 C319 0.929 . S
H329 C322 0.930 . S
C330 C331 1.351 . S
C330 N333 1.368 . S
C330 H335 0.931 . S
C331 C330 1.351 . S
C331 N332 1.373 . S
C331 H359 0.930 . S
N332 C331 1.373 . S
N332 C334 1.340 . S
N333 C330 1.368 . S
N333 C334 1.321 . S
N333 Co336 2.135 . S
C334 N332 1.340 . S
C334 N333 1.321 . S
C334 H358 0.930 . S
H335 C330 0.931 . S
Co336 N333 2.135 . S
Co336 N339 2.121 . S
Co336 O344 2.055 . S
Co336 O347 2.039 . S
Co336 N350 2.140 . S
C337 O338 1.227 . S
C337 O347 1.265 . S
O338 C337 1.227 . S
N339 Co336 2.121 . S
N339 C341 1.375 . S
N339 C342 1.313 . S
C340 C341 1.338 . S
C340 N343 1.377 . S
C340 H360 0.930 . S
C341 N339 1.375 . S
C341 C340 1.338 . S
C341 H345 0.931 . S
C342 N339 1.313 . S
C342 N343 1.344 . S
C342 H346 0.930 . S
N343 C340 1.377 . S
N343 C342 1.344 . S
O344 Co336 2.055 . S
O344 C348 1.253 . S
H345 C341 0.931 . S
H346 C342 0.930 . S
O347 Co336 2.039 . S
O347 C337 1.265 . S
C348 O344 1.253 . S
C348 O349 1.227 . S
O349 C348 1.227 . S
N350 Co336 2.140 . S
N350 C353 1.346 . S
N350 C354 1.345 . S
C351 C352 1.387 . S
C351 C355 1.391 . S
C352 C351 1.387 . S
C352 C353 1.369 . S
C352 H361 0.929 . S
C353 N350 1.346 . S
C353 C352 1.369 . S
C353 H356 0.928 . S
C354 N350 1.345 . S
C354 C355 1.371 . S
C354 H357 0.931 . S
C355 C351 1.391 . S
C355 C354 1.371 . S
C355 H362 0.930 . S
H356 C353 0.928 . S
H357 C354 0.931 . S
H358 C334 0.930 . S
H359 C331 0.930 . S
H360 C340 0.930 . S
H361 C352 0.929 . S
H362 C355 0.930 . S
C363 C364 1.351 . S
C363 N366 1.368 . S
C363 H368 0.931 . S
C364 C363 1.351 . S
C364 N365 1.373 . S
C364 H392 0.930 . S
N365 C364 1.373 . S
N365 C367 1.340 . S
N366 C363 1.368 . S
N366 C367 1.321 . S
N366 Co369 2.135 . S
C367 N365 1.340 . S
C367 N366 1.321 . S
C367 H391 0.930 . S
H368 C363 0.931 . S
Co369 N366 2.135 . S
Co369 N372 2.121 1_556 S
Co369 O377 2.055 . S
Co369 O380 2.039 . S
Co369 N383 2.140 . S
C370 O371 1.227 . S
C370 O380 1.265 . S
O371 C370 1.227 . S
N372 Co369 2.121 1_554 S
N372 C374 1.375 . S
N372 C375 1.313 . S
C373 C374 1.338 . S
C373 N376 1.377 . S
C373 H393 0.930 . S
C374 N372 1.375 . S
C374 C373 1.338 . S
C374 H378 0.931 . S
C375 N372 1.313 . S
C375 N376 1.344 . S
C375 H379 0.930 . S
N376 C373 1.377 . S
N376 C375 1.344 . S
O377 Co369 2.055 . S
O377 C381 1.253 . S
H378 C374 0.931 . S
H379 C375 0.930 . S
O380 Co369 2.039 . S
O380 C370 1.265 . S
C381 O377 1.253 . S
C381 O382 1.227 . S
O382 C381 1.227 . S
N383 Co369 2.140 . S
N383 C386 1.346 . S
N383 C387 1.345 . S
C384 C385 1.387 . S
C384 C388 1.391 . S
C385 C384 1.387 . S
C385 C386 1.369 . S
C385 H394 0.929 . S
C386 N383 1.346 . S
C386 C385 1.369 . S
C386 H389 0.928 . S
C387 N383 1.345 . S
C387 C388 1.371 . S
C387 H390 0.931 . S
C388 C384 1.391 . S
C388 C387 1.371 . S
C388 H395 0.930 . S
H389 C386 0.928 . S
H390 C387 0.931 . S
H391 C367 0.930 . S
H392 C364 0.930 . S
H393 C373 0.930 . S
H394 C385 0.929 . S
H395 C388 0.930 . S
C396 C397 1.351 . S
C396 N399 1.368 . S
C396 H401 0.931 . S
C397 C396 1.351 . S
C397 N398 1.373 . S
C397 H425 0.930 . S
N398 C397 1.373 . S
N398 C400 1.340 . S
N399 C396 1.368 . S
N399 C400 1.321 . S
N399 Co402 2.135 . S
C400 N398 1.340 . S
C400 N399 1.321 . S
C400 H424 0.930 . S
H401 C396 0.931 . S
Co402 N399 2.135 . S
Co402 N405 2.121 . S
Co402 O410 2.055 . S
Co402 O413 2.039 . S
Co402 N416 2.140 . S
C403 O404 1.227 . S
C403 O413 1.265 . S
O404 C403 1.227 . S
N405 Co402 2.121 . S
N405 C407 1.375 . S
N405 C408 1.313 . S
C406 C407 1.338 . S
C406 N409 1.377 . S
C406 H426 0.930 . S
C407 N405 1.375 . S
C407 C406 1.338 . S
C407 H411 0.931 . S
C408 N405 1.313 . S
C408 N409 1.344 . S
C408 H412 0.930 . S
N409 C406 1.377 . S
N409 C408 1.344 . S
O410 Co402 2.055 . S
O410 C414 1.253 . S
H411 C407 0.931 . S
H412 C408 0.930 . S
O413 Co402 2.039 . S
O413 C403 1.265 . S
C414 O410 1.253 . S
C414 O415 1.227 . S
O415 C414 1.227 . S
N416 Co402 2.140 . S
N416 C419 1.346 . S
N416 C420 1.345 . S
C417 C418 1.387 . S
C417 C421 1.391 . S
C418 C417 1.387 . S
C418 C419 1.369 . S
C418 H427 0.929 . S
C419 N416 1.346 . S
C419 C418 1.369 . S
C419 H422 0.928 . S
C420 N416 1.345 . S
C420 C421 1.371 . S
C420 H423 0.931 . S
C421 C417 1.391 . S
C421 C420 1.371 . S
C421 H428 0.930 . S
H422 C419 0.928 . S
H423 C420 0.931 . S
H424 C400 0.930 . S
H425 C397 0.930 . S
H426 C406 0.930 . S
H427 C418 0.929 . S
H428 C421 0.930 . S
C429 C430 1.351 . S
C429 N432 1.368 . S
C429 H434 0.931 . S
C430 C429 1.351 . S
C430 N431 1.373 . S
C430 H458 0.930 . S
N431 C430 1.373 . S
N431 C433 1.340 . S
N432 C429 1.368 . S
N432 C433 1.321 . S
N432 Co435 2.135 . S
C433 N431 1.340 . S
C433 N432 1.321 . S
C433 H457 0.930 . S
H434 C429 0.931 . S
Co435 N432 2.135 . S
Co435 N438 2.121 . S
Co435 O443 2.055 . S
Co435 O446 2.039 . S
Co435 N449 2.140 . S
C436 O437 1.227 . S
C436 O446 1.265 . S
O437 C436 1.227 . S
N438 Co435 2.121 . S
N438 C440 1.375 . S
N438 C441 1.313 . S
C439 C440 1.338 . S
C439 N442 1.377 . S
C439 H459 0.930 . S
C440 N438 1.375 . S
C440 C439 1.338 . S
C440 H444 0.931 . S
C441 N438 1.313 . S
C441 N442 1.344 . S
C441 H445 0.930 . S
N442 C439 1.377 . S
N442 C441 1.344 . S
O443 Co435 2.055 . S
O443 C447 1.253 . S
H444 C440 0.931 . S
H445 C441 0.930 . S
O446 Co435 2.039 . S
O446 C436 1.265 . S
C447 O443 1.253 . S
C447 O448 1.227 . S
O448 C447 1.227 . S
N449 Co435 2.140 . S
N449 C452 1.346 . S
N449 C453 1.345 . S
C450 C451 1.387 . S
C450 C454 1.391 . S
C451 C450 1.387 . S
C451 C452 1.369 . S
C451 H460 0.929 . S
C452 N449 1.346 . S
C452 C451 1.369 . S
C452 H455 0.928 . S
C453 N449 1.345 . S
C453 C454 1.371 . S
C453 H456 0.931 . S
C454 C450 1.391 . S
C454 C453 1.371 . S
C454 H461 0.930 . S
H455 C452 0.928 . S
H456 C453 0.931 . S
H457 C433 0.930 . S
H458 C430 0.930 . S
H459 C439 0.930 . S
H460 C451 0.929 . S
H461 C454 0.930 . S
C462 C463 1.351 . S
C462 N465 1.368 . S
C462 H467 0.931 . S
C463 C462 1.351 . S
C463 N464 1.373 . S
C463 H491 0.930 . S
N464 C463 1.373 . S
N464 C466 1.340 . S
N465 C462 1.368 . S
N465 C466 1.321 . S
N465 Co468 2.135 . S
C466 N464 1.340 . S
C466 N465 1.321 . S
C466 H490 0.930 . S
H467 C462 0.931 . S
Co468 N465 2.135 . S
Co468 N471 2.121 . S
Co468 O476 2.055 . S
Co468 O479 2.039 . S
Co468 N482 2.140 . S
C469 O470 1.227 . S
C469 O479 1.265 . S
O470 C469 1.227 . S
N471 Co468 2.121 . S
N471 C473 1.375 . S
N471 C474 1.313 . S
C472 C473 1.338 . S
C472 N475 1.377 . S
C472 H492 0.930 . S
C473 N471 1.375 . S
C473 C472 1.338 . S
C473 H477 0.931 . S
C474 N471 1.313 . S
C474 N475 1.344 . S
C474 H478 0.930 . S
N475 C472 1.377 . S
N475 C474 1.344 . S
O476 Co468 2.055 . S
O476 C480 1.253 . S
H477 C473 0.931 . S
H478 C474 0.930 . S
O479 Co468 2.039 . S
O479 C469 1.265 . S
C480 O476 1.253 . S
C480 O481 1.227 . S
O481 C480 1.227 . S
N482 Co468 2.140 . S
N482 C485 1.346 . S
N482 C486 1.345 . S
C483 C484 1.387 . S
C483 C487 1.391 . S
C484 C483 1.387 . S
C484 C485 1.369 . S
C484 H493 0.929 . S
C485 N482 1.346 . S
C485 C484 1.369 . S
C485 H488 0.928 . S
C486 N482 1.345 . S
C486 C487 1.371 . S
C486 H489 0.931 . S
C487 C483 1.391 . S
C487 C486 1.371 . S
C487 H494 0.930 . S
H488 C485 0.928 . S
H489 C486 0.931 . S
H490 C466 0.930 . S
H491 C463 0.930 . S
H492 C472 0.930 . S
H493 C484 0.929 . S
H494 C487 0.930 . S
C495 C496 1.351 . S
C495 N498 1.368 . S
C495 H500 0.931 . S
C496 C495 1.351 . S
C496 N497 1.373 . S
C496 H524 0.930 . S
N497 C496 1.373 . S
N497 C499 1.340 . S
N498 C495 1.368 . S
N498 C499 1.321 . S
N498 Co501 2.135 . S
C499 N497 1.340 . S
C499 N498 1.321 . S
C499 H523 0.930 . S
H500 C495 0.931 . S
Co501 N498 2.135 . S
Co501 N504 2.121 1_554 S
Co501 O509 2.055 . S
Co501 O512 2.039 . S
Co501 N515 2.140 . S
C502 O503 1.227 . S
C502 O512 1.265 . S
O503 C502 1.227 . S
N504 Co501 2.121 1_556 S
N504 C506 1.375 . S
N504 C507 1.313 . S
C505 C506 1.338 . S
C505 N508 1.377 . S
C505 H525 0.930 . S
C506 N504 1.375 . S
C506 C505 1.338 . S
C506 H510 0.931 . S
C507 N504 1.313 . S
C507 N508 1.344 . S
C507 H511 0.930 . S
N508 C505 1.377 . S
N508 C507 1.344 . S
O509 Co501 2.055 . S
O509 C513 1.253 . S
H510 C506 0.931 . S
H511 C507 0.930 . S
O512 Co501 2.039 . S
O512 C502 1.265 . S
C513 O509 1.253 . S
C513 O514 1.227 . S
O514 C513 1.227 . S
N515 Co501 2.140 . S
N515 C518 1.346 . S
N515 C519 1.345 . S
C516 C517 1.387 . S
C516 C520 1.391 . S
C517 C516 1.387 . S
C517 C518 1.369 . S
C517 H526 0.929 . S
C518 N515 1.346 . S
C518 C517 1.369 . S
C518 H521 0.928 . S
C519 N515 1.345 . S
C519 C520 1.371 . S
C519 H522 0.931 . S
C520 C516 1.391 . S
C520 C519 1.371 . S
C520 H527 0.930 . S
H521 C518 0.928 . S
H522 C519 0.931 . S
H523 C499 0.930 . S
H524 C496 0.930 . S
H525 C505 0.930 . S
H526 C517 0.929 . S
H527 C520 0.930 . S
C528 C529 1.351 . S
C528 N531 1.368 . S
C528 H533 0.931 . S
C529 C528 1.351 . S
C529 N530 1.373 . S
C529 H557 0.930 . S
N530 C529 1.373 . S
N530 C532 1.340 . S
N531 C528 1.368 . S
N531 C532 1.321 . S
N531 Co534 2.135 . S
C532 N530 1.340 . S
C532 N531 1.321 . S
C532 H556 0.930 . S
H533 C528 0.931 . S
Co534 N531 2.135 . S
Co534 N537 2.121 . S
Co534 O542 2.055 . S
Co534 O545 2.039 . S
Co534 N548 2.140 . S
C535 O536 1.227 . S
C535 O545 1.265 . S
O536 C535 1.227 . S
N537 Co534 2.121 . S
N537 C539 1.375 . S
N537 C540 1.313 . S
C538 C539 1.338 . S
C538 N541 1.377 . S
C538 H558 0.930 . S
C539 N537 1.375 . S
C539 C538 1.338 . S
C539 H543 0.931 . S
C540 N537 1.313 . S
C540 N541 1.344 . S
C540 H544 0.930 . S
N541 C538 1.377 . S
N541 C540 1.344 . S
O542 Co534 2.055 . S
O542 C546 1.253 . S
H543 C539 0.931 . S
H544 C540 0.930 . S
O545 Co534 2.039 . S
O545 C535 1.265 . S
C546 O542 1.253 . S
C546 O547 1.227 . S
O547 C546 1.227 . S
N548 Co534 2.140 . S
N548 C551 1.346 . S
N548 C552 1.345 . S
C549 C550 1.387 . S
C549 C553 1.391 . S
C550 C549 1.387 . S
C550 C551 1.369 . S
C550 H559 0.929 . S
C551 N548 1.346 . S
C551 C550 1.369 . S
C551 H554 0.928 . S
C552 N548 1.345 . S
C552 C553 1.371 . S
C552 H555 0.931 . S
C553 C549 1.391 . S
C553 C552 1.371 . S
C553 H560 0.930 . S
H554 C551 0.928 . S
H555 C552 0.931 . S
H556 C532 0.930 . S
H557 C529 0.930 . S
H558 C538 0.930 . S
H559 C550 0.929 . S
H560 C553 0.930 . S
C561 C562 1.351 . S
C561 N564 1.368 . S
C561 H566 0.931 . S
C562 C561 1.351 . S
C562 N563 1.373 . S
C562 H590 0.930 . S
N563 C562 1.373 . S
N563 C565 1.340 . S
N564 C561 1.368 . S
N564 C565 1.321 . S
N564 Co567 2.135 . S
C565 N563 1.340 . S
C565 N564 1.321 . S
C565 H589 0.930 . S
H566 C561 0.931 . S
Co567 N564 2.135 . S
Co567 N570 2.121 1_554 S
Co567 O575 2.055 . S
Co567 O578 2.039 . S
Co567 N581 2.140 . S
C568 O569 1.227 . S
C568 O578 1.265 . S
O569 C568 1.227 . S
N570 Co567 2.121 1_556 S
N570 C572 1.375 . S
N570 C573 1.313 . S
C571 C572 1.338 . S
C571 N574 1.377 . S
C571 H591 0.930 . S
C572 N570 1.375 . S
C572 C571 1.338 . S
C572 H576 0.931 . S
C573 N570 1.313 . S
C573 N574 1.344 . S
C573 H577 0.930 . S
N574 C571 1.377 . S
N574 C573 1.344 . S
O575 Co567 2.055 . S
O575 C579 1.253 . S
H576 C572 0.931 . S
H577 C573 0.930 . S
O578 Co567 2.039 . S
O578 C568 1.265 . S
C579 O575 1.253 . S
C579 O580 1.227 . S
O580 C579 1.227 . S
N581 Co567 2.140 . S
N581 C584 1.346 . S
N581 C585 1.345 . S
C582 C583 1.387 . S
C582 C586 1.391 . S
C583 C582 1.387 . S
C583 C584 1.369 . S
C583 H592 0.929 . S
C584 N581 1.346 . S
C584 C583 1.369 . S
C584 H587 0.928 . S
C585 N581 1.345 . S
C585 C586 1.371 . S
C585 H588 0.931 . S
C586 C582 1.391 . S
C586 C585 1.371 . S
C586 H593 0.930 . S
H587 C584 0.928 . S
H588 C585 0.931 . S
H589 C565 0.930 . S
H590 C562 0.930 . S
H591 C571 0.930 . S
H592 C583 0.929 . S
H593 C586 0.930 . S
C594 C595 1.351 . S
C594 N597 1.368 . S
C594 H599 0.931 . S
C595 C594 1.351 . S
C595 N596 1.373 . S
C595 H623 0.930 . S
N596 C595 1.373 . S
N596 C598 1.340 . S
N597 C594 1.368 . S
N597 C598 1.321 . S
N597 Co600 2.135 . S
C598 N596 1.340 . S
C598 N597 1.321 . S
C598 H622 0.930 . S
H599 C594 0.931 . S
Co600 N597 2.135 . S
Co600 N603 2.121 . S
Co600 O608 2.055 . S
Co600 O611 2.039 . S
Co600 N614 2.140 . S
C601 O602 1.227 . S
C601 O611 1.265 . S
O602 C601 1.227 . S
N603 Co600 2.121 . S
N603 C605 1.375 . S
N603 C606 1.313 . S
C604 C605 1.338 . S
C604 N607 1.377 . S
C604 H624 0.930 . S
C605 N603 1.375 . S
C605 C604 1.338 . S
C605 H609 0.931 . S
C606 N603 1.313 . S
C606 N607 1.344 . S
C606 H610 0.930 . S
N607 C604 1.377 . S
N607 C606 1.344 . S
O608 Co600 2.055 . S
O608 C612 1.253 . S
H609 C605 0.931 . S
H610 C606 0.930 . S
O611 Co600 2.039 . S
O611 C601 1.265 . S
C612 O608 1.253 . S
C612 O613 1.227 . S
O613 C612 1.227 . S
N614 Co600 2.140 . S
N614 C617 1.346 . S
N614 C618 1.345 . S
C615 C616 1.387 . S
C615 C619 1.391 . S
C616 C615 1.387 . S
C616 C617 1.369 . S
C616 H625 0.929 . S
C617 N614 1.346 . S
C617 C616 1.369 . S
C617 H620 0.928 . S
C618 N614 1.345 . S
C618 C619 1.371 . S
C618 H621 0.931 . S
C619 C615 1.391 . S
C619 C618 1.371 . S
C619 H626 0.930 . S
H620 C617 0.928 . S
H621 C618 0.931 . S
H622 C598 0.930 . S
H623 C595 0.930 . S
H624 C604 0.930 . S
H625 C616 0.929 . S
H626 C619 0.930 . S
C627 C628 1.351 . S
C627 N630 1.368 . S
C627 H632 0.931 . S
C628 C627 1.351 . S
C628 N629 1.373 . S
C628 H656 0.930 . S
N629 C628 1.373 . S
N629 C631 1.340 . S
N630 C627 1.368 . S
N630 C631 1.321 . S
N630 Co633 2.135 . S
C631 N629 1.340 . S
C631 N630 1.321 . S
C631 H655 0.930 . S
H632 C627 0.931 . S
Co633 N630 2.135 . S
Co633 N636 2.121 . S
Co633 O641 2.055 . S
Co633 O644 2.039 . S
Co633 N647 2.140 . S
C634 O635 1.227 . S
C634 O644 1.265 . S
O635 C634 1.227 . S
N636 Co633 2.121 . S
N636 C638 1.375 . S
N636 C639 1.313 . S
C637 C638 1.338 . S
C637 N640 1.377 . S
C637 H657 0.930 . S
C638 N636 1.375 . S
C638 C637 1.338 . S
C638 H642 0.931 . S
C639 N636 1.313 . S
C639 N640 1.344 . S
C639 H643 0.930 . S
N640 C637 1.377 . S
N640 C639 1.344 . S
O641 Co633 2.055 . S
O641 C645 1.253 . S
H642 C638 0.931 . S
H643 C639 0.930 . S
O644 Co633 2.039 . S
O644 C634 1.265 . S
C645 O641 1.253 . S
C645 O646 1.227 . S
O646 C645 1.227 . S
N647 Co633 2.140 . S
N647 C650 1.346 . S
N647 C651 1.345 . S
C648 C649 1.387 . S
C648 C652 1.391 . S
C649 C648 1.387 . S
C649 C650 1.369 . S
C649 H658 0.929 . S
C650 N647 1.346 . S
C650 C649 1.369 . S
C650 H653 0.928 . S
C651 N647 1.345 . S
C651 C652 1.371 . S
C651 H654 0.931 . S
C652 C648 1.391 . S
C652 C651 1.371 . S
C652 H659 0.930 . S
H653 C650 0.928 . S
H654 C651 0.931 . S
H655 C631 0.930 . S
H656 C628 0.930 . S
H657 C637 0.930 . S
H658 C649 0.929 . S
H659 C652 0.930 . S
C660 C661 1.351 . S
C660 N663 1.368 . S
C660 H665 0.931 . S
C661 C660 1.351 . S
C661 N662 1.373 . S
C661 H689 0.930 . S
N662 C661 1.373 . S
N662 C664 1.340 . S
N663 C660 1.368 . S
N663 C664 1.321 . S
N663 Co666 2.135 . S
C664 N662 1.340 . S
C664 N663 1.321 . S
C664 H688 0.930 . S
H665 C660 0.931 . S
Co666 N663 2.135 . S
Co666 N669 2.121 . S
Co666 O674 2.055 . S
Co666 O677 2.039 . S
Co666 N680 2.140 . S
C667 O668 1.227 . S
C667 O677 1.265 . S
O668 C667 1.227 . S
N669 Co666 2.121 . S
N669 C671 1.375 . S
N669 C672 1.313 . S
C670 C671 1.338 . S
C670 N673 1.377 . S
C670 H690 0.930 . S
C671 N669 1.375 . S
C671 C670 1.338 . S
C671 H675 0.931 . S
C672 N669 1.313 . S
C672 N673 1.344 . S
C672 H676 0.930 . S
N673 C670 1.377 . S
N673 C672 1.344 . S
O674 Co666 2.055 . S
O674 C678 1.253 . S
H675 C671 0.931 . S
H676 C672 0.930 . S
O677 Co666 2.039 . S
O677 C667 1.265 . S
C678 O674 1.253 . S
C678 O679 1.227 . S
O679 C678 1.227 . S
N680 Co666 2.140 . S
N680 C683 1.346 . S
N680 C684 1.345 . S
C681 C682 1.387 . S
C681 C685 1.391 . S
C682 C681 1.387 . S
C682 C683 1.369 . S
C682 H691 0.929 . S
C683 N680 1.346 . S
C683 C682 1.369 . S
C683 H686 0.928 . S
C684 N680 1.345 . S
C684 C685 1.371 . S
C684 H687 0.931 . S
C685 C681 1.391 . S
C685 C684 1.371 . S
C685 H692 0.930 . S
H686 C683 0.928 . S
H687 C684 0.931 . S
H688 C664 0.930 . S
H689 C661 0.930 . S
H690 C670 0.930 . S
H691 C682 0.929 . S
H692 C685 0.930 . S
C693 C694 1.351 . S
C693 N696 1.368 . S
C693 H698 0.931 . S
C694 C693 1.351 . S
C694 N695 1.373 . S
C694 H722 0.930 . S
N695 C694 1.373 . S
N695 C697 1.340 . S
N696 C693 1.368 . S
N696 C697 1.321 . S
N696 Co699 2.135 . S
C697 N695 1.340 . S
C697 N696 1.321 . S
C697 H721 0.930 . S
H698 C693 0.931 . S
Co699 N696 2.135 . S
Co699 N702 2.121 1_556 S
Co699 O707 2.055 . S
Co699 O710 2.039 . S
Co699 N713 2.140 . S
C700 O701 1.227 . S
C700 O710 1.265 . S
O701 C700 1.227 . S
N702 Co699 2.121 1_554 S
N702 C704 1.375 . S
N702 C705 1.313 . S
C703 C704 1.338 . S
C703 N706 1.377 . S
C703 H723 0.930 . S
C704 N702 1.375 . S
C704 C703 1.338 . S
C704 H708 0.931 . S
C705 N702 1.313 . S
C705 N706 1.344 . S
C705 H709 0.930 . S
N706 C703 1.377 . S
N706 C705 1.344 . S
O707 Co699 2.055 . S
O707 C711 1.253 . S
H708 C704 0.931 . S
H709 C705 0.930 . S
O710 Co699 2.039 . S
O710 C700 1.265 . S
C711 O707 1.253 . S
C711 O712 1.227 . S
O712 C711 1.227 . S
N713 Co699 2.140 . S
N713 C716 1.346 . S
N713 C717 1.345 . S
C714 C715 1.387 . S
C714 C718 1.391 . S
C715 C714 1.387 . S
C715 C716 1.369 . S
C715 H724 0.929 . S
C716 N713 1.346 . S
C716 C715 1.369 . S
C716 H719 0.928 . S
C717 N713 1.345 . S
C717 C718 1.371 . S
C717 H720 0.931 . S
C718 C714 1.391 . S
C718 C717 1.371 . S
C718 H725 0.930 . S
H719 C716 0.928 . S
H720 C717 0.931 . S
H721 C697 0.930 . S
H722 C694 0.930 . S
H723 C703 0.930 . S
H724 C715 0.929 . S
H725 C718 0.930 . S
C726 C727 1.351 . S
C726 N729 1.368 . S
C726 H731 0.931 . S
C727 C726 1.351 . S
C727 N728 1.373 . S
C727 H755 0.930 . S
N728 C727 1.373 . S
N728 C730 1.340 . S
N729 C726 1.368 . S
N729 C730 1.321 . S
N729 Co732 2.135 . S
C730 N728 1.340 . S
C730 N729 1.321 . S
C730 H754 0.930 . S
H731 C726 0.931 . S
Co732 N729 2.135 . S
Co732 N735 2.121 . S
Co732 O740 2.055 . S
Co732 O743 2.039 . S
Co732 N746 2.140 . S
C733 O734 1.227 . S
C733 O743 1.265 . S
O734 C733 1.227 . S
N735 Co732 2.121 . S
N735 C737 1.375 . S
N735 C738 1.313 . S
C736 C737 1.338 . S
C736 N739 1.377 . S
C736 H756 0.930 . S
C737 N735 1.375 . S
C737 C736 1.338 . S
C737 H741 0.931 . S
C738 N735 1.313 . S
C738 N739 1.344 . S
C738 H742 0.930 . S
N739 C736 1.377 . S
N739 C738 1.344 . S
O740 Co732 2.055 . S
O740 C744 1.253 . S
H741 C737 0.931 . S
H742 C738 0.930 . S
O743 Co732 2.039 . S
O743 C733 1.265 . S
C744 O740 1.253 . S
C744 O745 1.227 . S
O745 C744 1.227 . S
N746 Co732 2.140 . S
N746 C749 1.346 . S
N746 C750 1.345 . S
C747 C748 1.387 . S
C747 C751 1.391 . S
C748 C747 1.387 . S
C748 C749 1.369 . S
C748 H757 0.929 . S
C749 N746 1.346 . S
C749 C748 1.369 . S
C749 H752 0.928 . S
C750 N746 1.345 . S
C750 C751 1.371 . S
C750 H753 0.931 . S
C751 C747 1.391 . S
C751 C750 1.371 . S
C751 H758 0.930 . S
H752 C749 0.928 . S
H753 C750 0.931 . S
H754 C730 0.930 . S
H755 C727 0.930 . S
H756 C736 0.930 . S
H757 C748 0.929 . S
H758 C751 0.930 . S
C759 C760 1.351 . S
C759 N762 1.368 . S
C759 H764 0.931 . S
C760 C759 1.351 . S
C760 N761 1.373 . S
C760 H788 0.930 . S
N761 C760 1.373 . S
N761 C763 1.340 . S
N762 C759 1.368 . S
N762 C763 1.321 . S
N762 Co765 2.135 . S
C763 N761 1.340 . S
C763 N762 1.321 . S
C763 H787 0.930 . S
H764 C759 0.931 . S
Co765 N762 2.135 . S
Co765 N768 2.121 . S
Co765 O773 2.055 . S
Co765 O776 2.039 . S
Co765 N779 2.140 . S
C766 O767 1.227 . S
C766 O776 1.265 . S
O767 C766 1.227 . S
N768 Co765 2.121 . S
N768 C770 1.375 . S
N768 C771 1.313 . S
C769 C770 1.338 . S
C769 N772 1.377 . S
C769 H789 0.930 . S
C770 N768 1.375 . S
C770 C769 1.338 . S
C770 H774 0.931 . S
C771 N768 1.313 . S
C771 N772 1.344 . S
C771 H775 0.930 . S
N772 C769 1.377 . S
N772 C771 1.344 . S
O773 Co765 2.055 . S
O773 C777 1.253 . S
H774 C770 0.931 . S
H775 C771 0.930 . S
O776 Co765 2.039 . S
O776 C766 1.265 . S
C777 O773 1.253 . S
C777 O778 1.227 . S
O778 C777 1.227 . S
N779 Co765 2.140 . S
N779 C782 1.346 . S
N779 C783 1.345 . S
C780 C781 1.387 . S
C780 C784 1.391 . S
C781 C780 1.387 . S
C781 C782 1.369 . S
C781 H790 0.929 . S
C782 N779 1.346 . S
C782 C781 1.369 . S
C782 H785 0.928 . S
C783 N779 1.345 . S
C783 C784 1.371 . S
C783 H786 0.931 . S
C784 C780 1.391 . S
C784 C783 1.371 . S
C784 H791 0.930 . S
H785 C782 0.928 . S
H786 C783 0.931 . S
H787 C763 0.930 . S
H788 C760 0.930 . S
H789 C769 0.930 . S
H790 C781 0.929 . S
H791 C784 0.930 . S
C792 C793 1.351 . S
C792 N795 1.368 . S
C792 H797 0.931 . S
C793 C792 1.351 . S
C793 N794 1.373 . S
C793 H821 0.930 . S
N794 C793 1.373 . S
N794 C796 1.340 . S
N795 C792 1.368 . S
N795 C796 1.321 . S
N795 Co798 2.135 . S
C796 N794 1.340 . S
C796 N795 1.321 . S
C796 H820 0.930 . S
H797 C792 0.931 . S
Co798 N795 2.135 . S
Co798 N801 2.121 . S
Co798 O806 2.055 . S
Co798 O809 2.039 . S
Co798 N812 2.140 . S
C799 O800 1.227 . S
C799 O809 1.265 . S
O800 C799 1.227 . S
N801 Co798 2.121 . S
N801 C803 1.375 . S
N801 C804 1.313 . S
C802 C803 1.338 . S
C802 N805 1.377 . S
C802 H822 0.930 . S
C803 N801 1.375 . S
C803 C802 1.338 . S
C803 H807 0.931 . S
C804 N801 1.313 . S
C804 N805 1.344 . S
C804 H808 0.930 . S
N805 C802 1.377 . S
N805 C804 1.344 . S
O806 Co798 2.055 . S
O806 C810 1.253 . S
H807 C803 0.931 . S
H808 C804 0.930 . S
O809 Co798 2.039 . S
O809 C799 1.265 . S
C810 O806 1.253 . S
C810 O811 1.227 . S
O811 C810 1.227 . S
N812 Co798 2.140 . S
N812 C815 1.346 . S
N812 C816 1.345 . S
C813 C814 1.387 . S
C813 C817 1.391 . S
C814 C813 1.387 . S
C814 C815 1.369 . S
C814 H823 0.929 . S
C815 N812 1.346 . S
C815 C814 1.369 . S
C815 H818 0.928 . S
C816 N812 1.345 . S
C816 C817 1.371 . S
C816 H819 0.931 . S
C817 C813 1.391 . S
C817 C816 1.371 . S
C817 H824 0.930 . S
H818 C815 0.928 . S
H819 C816 0.931 . S
H820 C796 0.930 . S
H821 C793 0.930 . S
H822 C802 0.930 . S
H823 C814 0.929 . S
H824 C817 0.930 . S
C825 C826 1.351 . S
C825 N828 1.368 . S
C825 H830 0.931 . S
C826 C825 1.351 . S
C826 N827 1.373 . S
C826 H854 0.930 . S
N827 C826 1.373 . S
N827 C829 1.340 . S
N828 C825 1.368 . S
N828 C829 1.321 . S
N828 Co831 2.135 . S
C829 N827 1.340 . S
C829 N828 1.321 . S
C829 H853 0.930 . S
H830 C825 0.931 . S
Co831 N828 2.135 . S
Co831 N834 2.121 1_556 S
Co831 O839 2.055 . S
Co831 O842 2.039 . S
Co831 N845 2.140 . S
C832 O833 1.227 . S
C832 O842 1.265 . S
O833 C832 1.227 . S
N834 Co831 2.121 1_554 S
N834 C836 1.375 . S
N834 C837 1.313 . S
C835 C836 1.338 . S
C835 N838 1.377 . S
C835 H855 0.930 . S
C836 N834 1.375 . S
C836 C835 1.338 . S
C836 H840 0.931 . S
C837 N834 1.313 . S
C837 N838 1.344 . S
C837 H841 0.930 . S
N838 C835 1.377 . S
N838 C837 1.344 . S
O839 Co831 2.055 . S
O839 C843 1.253 . S
H840 C836 0.931 . S
H841 C837 0.930 . S
O842 Co831 2.039 . S
O842 C832 1.265 . S
C843 O839 1.253 . S
C843 O844 1.227 . S
O844 C843 1.227 . S
N845 Co831 2.140 . S
N845 C848 1.346 . S
N845 C849 1.345 . S
C846 C847 1.387 . S
C846 C850 1.391 . S
C847 C846 1.387 . S
C847 C848 1.369 . S
C847 H856 0.929 . S
C848 N845 1.346 . S
C848 C847 1.369 . S
C848 H851 0.928 . S
C849 N845 1.345 . S
C849 C850 1.371 . S
C849 H852 0.931 . S
C850 C846 1.391 . S
C850 C849 1.371 . S
C850 H857 0.930 . S
H851 C848 0.928 . S
H852 C849 0.931 . S
H853 C829 0.930 . S
H854 C826 0.930 . S
H855 C835 0.930 . S
H856 C847 0.929 . S
H857 C850 0.930 . S
C858 C859 1.351 . S
C858 N861 1.368 . S
C858 H863 0.931 . S
C859 C858 1.351 . S
C859 N860 1.373 . S
C859 H887 0.930 . S
N860 C859 1.373 . S
N860 C862 1.340 . S
N861 C858 1.368 . S
N861 C862 1.321 . S
N861 Co864 2.135 . S
C862 N860 1.340 . S
C862 N861 1.321 . S
C862 H886 0.930 . S
H863 C858 0.931 . S
Co864 N861 2.135 . S
Co864 N867 2.121 . S
Co864 O872 2.055 . S
Co864 O875 2.039 . S
Co864 N878 2.140 . S
C865 O866 1.227 . S
C865 O875 1.265 . S
O866 C865 1.227 . S
N867 Co864 2.121 . S
N867 C869 1.375 . S
N867 C870 1.313 . S
C868 C869 1.338 . S
C868 N871 1.377 . S
C868 H888 0.930 . S
C869 N867 1.375 . S
C869 C868 1.338 . S
C869 H873 0.931 . S
C870 N867 1.313 . S
C870 N871 1.344 . S
C870 H874 0.930 . S
N871 C868 1.377 . S
N871 C870 1.344 . S
O872 Co864 2.055 . S
O872 C876 1.253 . S
H873 C869 0.931 . S
H874 C870 0.930 . S
O875 Co864 2.039 . S
O875 C865 1.265 . S
C876 O872 1.253 . S
C876 O877 1.227 . S
O877 C876 1.227 . S
N878 Co864 2.140 . S
N878 C881 1.346 . S
N878 C882 1.345 . S
C879 C880 1.387 . S
C879 C883 1.391 . S
C880 C879 1.387 . S
C880 C881 1.369 . S
C880 H889 0.929 . S
C881 N878 1.346 . S
C881 C880 1.369 . S
C881 H884 0.928 . S
C882 N878 1.345 . S
C882 C883 1.371 . S
C882 H885 0.931 . S
C883 C879 1.391 . S
C883 C882 1.371 . S
C883 H890 0.930 . S
H884 C881 0.928 . S
H885 C882 0.931 . S
H886 C862 0.930 . S
H887 C859 0.930 . S
H888 C868 0.930 . S
H889 C880 0.929 . S
H890 C883 0.930 . S
C891 C892 1.351 . S
C891 N894 1.368 . S
C891 H896 0.931 . S
C892 C891 1.351 . S
C892 N893 1.373 . S
C892 H920 0.930 . S
N893 C892 1.373 . S
N893 C895 1.340 . S
N894 C891 1.368 . S
N894 C895 1.321 . S
N894 Co897 2.135 . S
C895 N893 1.340 . S
C895 N894 1.321 . S
C895 H919 0.930 . S
H896 C891 0.931 . S
Co897 N894 2.135 . S
Co897 N900 2.121 . S
Co897 O905 2.055 . S
Co897 O908 2.039 . S
Co897 N911 2.140 . S
C898 O899 1.227 . S
C898 O908 1.265 . S
O899 C898 1.227 . S
N900 Co897 2.121 . S
N900 C902 1.375 . S
N900 C903 1.313 . S
C901 C902 1.338 . S
C901 N904 1.377 . S
C901 H921 0.930 . S
C902 N900 1.375 . S
C902 C901 1.338 . S
C902 H906 0.931 . S
C903 N900 1.313 . S
C903 N904 1.344 . S
C903 H907 0.930 . S
N904 C901 1.377 . S
N904 C903 1.344 . S
O905 Co897 2.055 . S
O905 C909 1.253 . S
H906 C902 0.931 . S
H907 C903 0.930 . S
O908 Co897 2.039 . S
O908 C898 1.265 . S
C909 O905 1.253 . S
C909 O910 1.227 . S
O910 C909 1.227 . S
N911 Co897 2.140 . S
N911 C914 1.346 . S
N911 C915 1.345 . S
C912 C913 1.387 . S
C912 C916 1.391 . S
C913 C912 1.387 . S
C913 C914 1.369 . S
C913 H922 0.929 . S
C914 N911 1.346 . S
C914 C913 1.369 . S
C914 H917 0.928 . S
C915 N911 1.345 . S
C915 C916 1.371 . S
C915 H918 0.931 . S
C916 C912 1.391 . S
C916 C915 1.371 . S
C916 H923 0.930 . S
H917 C914 0.928 . S
H918 C915 0.931 . S
H919 C895 0.930 . S
H920 C892 0.930 . S
H921 C901 0.930 . S
H922 C913 0.929 . S
H923 C916 0.930 . S
C924 C925 1.351 . S
C924 N927 1.368 . S
C924 H929 0.931 . S
C925 C924 1.351 . S
C925 N926 1.373 . S
C925 H953 0.930 . S
N926 C925 1.373 . S
N926 C928 1.340 . S
N927 C924 1.368 . S
N927 C928 1.321 . S
N927 Co930 2.135 . S
C928 N926 1.340 . S
C928 N927 1.321 . S
C928 H952 0.930 . S
H929 C924 0.931 . S
Co930 N927 2.135 . S
Co930 N933 2.121 . S
Co930 O938 2.055 . S
Co930 O941 2.039 . S
Co930 N944 2.140 . S
C931 O932 1.227 . S
C931 O941 1.265 . S
O932 C931 1.227 . S
N933 Co930 2.121 . S
N933 C935 1.375 . S
N933 C936 1.313 . S
C934 C935 1.338 . S
C934 N937 1.377 . S
C934 H954 0.930 . S
C935 N933 1.375 . S
C935 C934 1.338 . S
C935 H939 0.931 . S
C936 N933 1.313 . S
C936 N937 1.344 . S
C936 H940 0.930 . S
N937 C934 1.377 . S
N937 C936 1.344 . S
O938 Co930 2.055 . S
O938 C942 1.253 . S
H939 C935 0.931 . S
H940 C936 0.930 . S
O941 Co930 2.039 . S
O941 C931 1.265 . S
C942 O938 1.253 . S
C942 O943 1.227 . S
O943 C942 1.227 . S
N944 Co930 2.140 . S
N944 C947 1.346 . S
N944 C948 1.345 . S
C945 C946 1.387 . S
C945 C949 1.391 . S
C946 C945 1.387 . S
C946 C947 1.369 . S
C946 H955 0.929 . S
C947 N944 1.346 . S
C947 C946 1.369 . S
C947 H950 0.928 . S
C948 N944 1.345 . S
C948 C949 1.371 . S
C948 H951 0.931 . S
C949 C945 1.391 . S
C949 C948 1.371 . S
C949 H956 0.930 . S
H950 C947 0.928 . S
H951 C948 0.931 . S
H952 C928 0.930 . S
H953 C925 0.930 . S
H954 C934 0.930 . S
H955 C946 0.929 . S
H956 C949 0.930 . S
C957 C958 1.351 . S
C957 N960 1.368 . S
C957 H962 0.931 . S
C958 C957 1.351 . S
C958 N959 1.373 . S
C958 H986 0.930 . S
N959 C958 1.373 . S
N959 C961 1.340 . S
N960 C957 1.368 . S
N960 C961 1.321 . S
N960 Co963 2.135 . S
C961 N959 1.340 . S
C961 N960 1.321 . S
C961 H985 0.930 . S
H962 C957 0.931 . S
Co963 N960 2.135 . S
Co963 N966 2.121 1_554 S
Co963 O971 2.055 . S
Co963 O974 2.039 . S
Co963 N977 2.140 . S
C964 O965 1.227 . S
C964 O974 1.265 . S
O965 C964 1.227 . S
N966 Co963 2.121 1_556 S
N966 C968 1.375 . S
N966 C969 1.313 . S
C967 C968 1.338 . S
C967 N970 1.377 . S
C967 H987 0.930 . S
C968 N966 1.375 . S
C968 C967 1.338 . S
C968 H972 0.931 . S
C969 N966 1.313 . S
C969 N970 1.344 . S
C969 H973 0.930 . S
N970 C967 1.377 . S
N970 C969 1.344 . S
O971 Co963 2.055 . S
O971 C975 1.253 . S
H972 C968 0.931 . S
H973 C969 0.930 . S
O974 Co963 2.039 . S
O974 C964 1.265 . S
C975 O971 1.253 . S
C975 O976 1.227 . S
O976 C975 1.227 . S
N977 Co963 2.140 . S
N977 C980 1.346 . S
N977 C981 1.345 . S
C978 C979 1.387 . S
C978 C982 1.391 . S
C979 C978 1.387 . S
C979 C980 1.369 . S
C979 H988 0.929 . S
C980 N977 1.346 . S
C980 C979 1.369 . S
C980 H983 0.928 . S
C981 N977 1.345 . S
C981 C982 1.371 . S
C981 H984 0.931 . S
C982 C978 1.391 . S
C982 C981 1.371 . S
C982 H989 0.930 . S
H983 C980 0.928 . S
H984 C981 0.931 . S
H985 C961 0.930 . S
H986 C958 0.930 . S
H987 C967 0.930 . S
H988 C979 0.929 . S
H989 C982 0.930 . S
C990 C991 1.351 . S
C990 N993 1.368 . S
C990 H995 0.931 . S
C991 C990 1.351 . S
C991 N992 1.373 . S
C991 H1019 0.930 . S
N992 C991 1.373 . S
N992 C994 1.340 . S
N993 C990 1.368 . S
N993 C994 1.321 . S
N993 Co996 2.135 . S
C994 N992 1.340 . S
C994 N993 1.321 . S
C994 H1018 0.930 . S
H995 C990 0.931 . S
Co996 N993 2.135 . S
Co996 N999 2.121 . S
Co996 O1004 2.055 . S
Co996 O1007 2.039 . S
Co996 N1010 2.140 . S
C997 O998 1.227 . S
C997 O1007 1.265 . S
O998 C997 1.227 . S
N999 Co996 2.121 . S
N999 C1001 1.375 . S
N999 C1002 1.313 . S
C1000 C1001 1.338 . S
C1000 N1003 1.377 . S
C1000 H1020 0.930 . S
C1001 N999 1.375 . S
C1001 C1000 1.338 . S
C1001 H1005 0.931 . S
C1002 N999 1.313 . S
C1002 N1003 1.344 . S
C1002 H1006 0.930 . S
N1003 C1000 1.377 . S
N1003 C1002 1.344 . S
O1004 Co996 2.055 . S
O1004 C1008 1.253 . S
H1005 C1001 0.931 . S
H1006 C1002 0.930 . S
O1007 Co996 2.039 . S
O1007 C997 1.265 . S
C1008 O1004 1.253 . S
C1008 O1009 1.227 . S
O1009 C1008 1.227 . S
N1010 Co996 2.140 . S
N1010 C1013 1.346 . S
N1010 C1014 1.345 . S
C1011 C1012 1.387 . S
C1011 C1015 1.391 . S
C1012 C1011 1.387 . S
C1012 C1013 1.369 . S
C1012 H1021 0.929 . S
C1013 N1010 1.346 . S
C1013 C1012 1.369 . S
C1013 H1016 0.928 . S
C1014 N1010 1.345 . S
C1014 C1015 1.371 . S
C1014 H1017 0.931 . S
C1015 C1011 1.391 . S
C1015 C1014 1.371 . S
C1015 H1022 0.930 . S
H1016 C1013 0.928 . S
H1017 C1014 0.931 . S
H1018 C994 0.930 . S
H1019 C991 0.930 . S
H1020 C1000 0.930 . S
H1021 C1012 0.929 . S
H1022 C1015 0.930 . S
C1023 C1024 1.351 . S
C1023 N1026 1.368 . S
C1023 H1028 0.931 . S
C1024 C1023 1.351 . S
C1024 N1025 1.373 . S
C1024 H1052 0.930 . S
N1025 C1024 1.373 . S
N1025 C1027 1.340 . S
N1026 C1023 1.368 . S
N1026 C1027 1.321 . S
N1026 Co1029 2.135 . S
C1027 N1025 1.340 . S
C1027 N1026 1.321 . S
C1027 H1051 0.930 . S
H1028 C1023 0.931 . S
Co1029 N1026 2.135 . S
Co1029 N1032 2.121 . S
Co1029 O1037 2.055 . S
Co1029 O1040 2.039 . S
Co1029 N1043 2.140 . S
C1030 O1031 1.227 . S
C1030 O1040 1.265 . S
O1031 C1030 1.227 . S
N1032 Co1029 2.121 . S
N1032 C1034 1.375 . S
N1032 C1035 1.313 . S
C1033 C1034 1.338 . S
C1033 N1036 1.377 . S
C1033 H1053 0.930 . S
C1034 N1032 1.375 . S
C1034 C1033 1.338 . S
C1034 H1038 0.931 . S
C1035 N1032 1.313 . S
C1035 N1036 1.344 . S
C1035 H1039 0.930 . S
N1036 C1033 1.377 . S
N1036 C1035 1.344 . S
O1037 Co1029 2.055 . S
O1037 C1041 1.253 . S
H1038 C1034 0.931 . S
H1039 C1035 0.930 . S
O1040 Co1029 2.039 . S
O1040 C1030 1.265 . S
C1041 O1037 1.253 . S
C1041 O1042 1.227 . S
O1042 C1041 1.227 . S
N1043 Co1029 2.140 . S
N1043 C1046 1.346 . S
N1043 C1047 1.345 . S
C1044 C1045 1.387 . S
C1044 C1048 1.391 . S
C1045 C1044 1.387 . S
C1045 C1046 1.369 . S
C1045 H1054 0.929 . S
C1046 N1043 1.346 . S
C1046 C1045 1.369 . S
C1046 H1049 0.928 . S
C1047 N1043 1.345 . S
C1047 C1048 1.371 . S
C1047 H1050 0.931 . S
C1048 C1044 1.391 . S
C1048 C1047 1.371 . S
C1048 H1055 0.930 . S
H1049 C1046 0.928 . S
H1050 C1047 0.931 . S
H1051 C1027 0.930 . S
H1052 C1024 0.930 . S
H1053 C1033 0.930 . S
H1054 C1045 0.929 . S
H1055 C1048 0.930 . S
H1056 C1064 0.950 . S
H1057 C1069 0.950 . S
H1058 C1066 0.950 . S
H1059 C1068 0.950 . S
H1060 C1070 0.950 . S
H1061 C1072 0.950 . S
H1062 C1074 0.950 . S
H1063 C1075 0.950 . S
C1064 H1056 0.950 . S
C1064 C1065 1.386 . S
C1064 C1066 1.391 . S
C1065 C1064 1.386 . S
C1065 C1069 1.393 . S
C1066 H1058 0.950 . S
C1066 C1064 1.391 . S
C1066 C1067 1.400 . S
C1067 C1066 1.400 . S
C1067 C1068 1.398 . S
C1067 C1073 1.491 . S
C1068 H1059 0.950 . S
C1068 C1067 1.398 . S
C1068 C1069 1.391 . S
C1069 H1057 0.950 . S
C1069 C1065 1.393 . S
C1069 C1068 1.391 . S
C1070 H1060 0.950 . S
C1070 C1071 1.386 . S
C1070 C1072 1.391 . S
C1071 C1070 1.386 . S
C1071 C1075 1.393 . S
C1072 H1061 0.950 . S
C1072 C1070 1.391 . S
C1072 C1073 1.400 . S
C1073 C1067 1.491 . S
C1073 C1072 1.400 . S
C1073 C1074 1.398 . S
C1074 H1062 0.950 . S
C1074 C1073 1.398 . S
C1074 C1075 1.391 . S
C1075 H1063 0.950 . S
C1075 C1071 1.393 . S
C1075 C1074 1.391 . S
H1076 C1084 0.950 . S
H1077 C1089 0.950 . S
H1078 C1086 0.950 . S
H1079 C1088 0.950 . S
H1080 C1090 0.950 . S
H1081 C1092 0.950 . S
H1082 C1094 0.950 . S
H1083 C1095 0.950 . S
C1084 H1076 0.950 . S
C1084 C1085 1.386 . S
C1084 C1086 1.391 . S
C1085 C1084 1.386 . S
C1085 C1089 1.393 . S
C1086 H1078 0.950 . S
C1086 C1084 1.391 . S
C1086 C1087 1.400 . S
C1087 C1086 1.400 . S
C1087 C1088 1.398 . S
C1087 C1093 1.491 . S
C1088 H1079 0.950 . S
C1088 C1087 1.398 . S
C1088 C1089 1.391 . S
C1089 H1077 0.950 . S
C1089 C1085 1.393 . S
C1089 C1088 1.391 . S
C1090 H1080 0.950 . S
C1090 C1091 1.386 . S
C1090 C1092 1.391 . S
C1091 C1090 1.386 . S
C1091 C1095 1.393 . S
C1092 H1081 0.950 . S
C1092 C1090 1.391 . S
C1092 C1093 1.400 . S
C1093 C1087 1.491 . S
C1093 C1092 1.400 . S
C1093 C1094 1.398 . S
C1094 H1082 0.950 . S
C1094 C1093 1.398 . S
C1094 C1095 1.391 . S
C1095 H1083 0.950 . S
C1095 C1091 1.393 . S
C1095 C1094 1.391 . S
H1096 C1104 0.950 . S
H1097 C1109 0.950 . S
H1098 C1106 0.950 . S
H1099 C1108 0.950 . S
H1100 C1110 0.950 . S
H1101 C1112 0.950 . S
H1102 C1114 0.950 . S
H1103 C1115 0.950 . S
C1104 H1096 0.950 . S
C1104 C1105 1.386 . S
C1104 C1106 1.391 . S
C1105 C1104 1.386 . S
C1105 C1109 1.393 . S
C1106 H1098 0.950 . S
C1106 C1104 1.391 . S
C1106 C1107 1.400 . S
C1107 C1106 1.400 . S
C1107 C1108 1.398 . S
C1107 C1113 1.491 . S
C1108 H1099 0.950 . S
C1108 C1107 1.398 . S
C1108 C1109 1.391 . S
C1109 H1097 0.950 . S
C1109 C1105 1.393 . S
C1109 C1108 1.391 . S
C1110 H1100 0.950 . S
C1110 C1111 1.386 . S
C1110 C1112 1.391 . S
C1111 C1110 1.386 . S
C1111 C1115 1.393 . S
C1112 H1101 0.950 . S
C1112 C1110 1.391 . S
C1112 C1113 1.400 . S
C1113 C1107 1.491 . S
C1113 C1112 1.400 . S
C1113 C1114 1.398 . S
C1114 H1102 0.950 . S
C1114 C1113 1.398 . S
C1114 C1115 1.391 . S
C1115 H1103 0.950 . S
C1115 C1111 1.393 . S
C1115 C1114 1.391 . S
H1116 C1124 0.950 . S
H1117 C1129 0.950 . S
H1118 C1126 0.950 . S
H1119 C1128 0.950 . S
H1120 C1130 0.950 . S
H1121 C1132 0.950 . S
H1122 C1134 0.950 . S
H1123 C1135 0.950 . S
C1124 H1116 0.950 . S
C1124 C1125 1.386 . S
C1124 C1126 1.391 . S
C1125 C1124 1.386 . S
C1125 C1129 1.393 . S
C1126 H1118 0.950 . S
C1126 C1124 1.391 . S
C1126 C1127 1.400 . S
C1127 C1126 1.400 . S
C1127 C1128 1.398 . S
C1127 C1133 1.491 . S
C1128 H1119 0.950 . S
C1128 C1127 1.398 . S
C1128 C1129 1.391 . S
C1129 H1117 0.950 . S
C1129 C1125 1.393 . S
C1129 C1128 1.391 . S
C1130 H1120 0.950 . S
C1130 C1131 1.386 . S
C1130 C1132 1.391 . S
C1131 C1130 1.386 . S
C1131 C1135 1.393 . S
C1132 H1121 0.950 . S
C1132 C1130 1.391 . S
C1132 C1133 1.400 . S
C1133 C1127 1.491 . S
C1133 C1132 1.400 . S
C1133 C1134 1.398 . S
C1134 H1122 0.950 . S
C1134 C1133 1.398 . S
C1134 C1135 1.391 . S
C1135 H1123 0.950 . S
C1135 C1131 1.393 . S
C1135 C1134 1.391 . S
H1136 C1144 0.950 . S
H1137 C1149 0.950 . S
H1138 C1146 0.950 . S
H1139 C1148 0.950 . S
H1140 C1150 0.950 . S
H1141 C1152 0.950 . S
H1142 C1154 0.950 . S
H1143 C1155 0.950 . S
C1144 H1136 0.950 . S
C1144 C1145 1.386 . S
C1144 C1146 1.391 . S
C1145 C1144 1.386 . S
C1145 C1149 1.393 . S
C1146 H1138 0.950 . S
C1146 C1144 1.391 . S
C1146 C1147 1.400 . S
C1147 C1146 1.400 . S
C1147 C1148 1.398 . S
C1147 C1153 1.491 . S
C1148 H1139 0.950 . S
C1148 C1147 1.398 . S
C1148 C1149 1.391 . S
C1149 H1137 0.950 . S
C1149 C1145 1.393 . S
C1149 C1148 1.391 . S
C1150 H1140 0.950 . S
C1150 C1151 1.386 . S
C1150 C1152 1.391 . S
C1151 C1150 1.386 . S
C1151 C1155 1.393 . S
C1152 H1141 0.950 . S
C1152 C1150 1.391 . S
C1152 C1153 1.400 . S
C1153 C1147 1.491 . S
C1153 C1152 1.400 . S
C1153 C1154 1.398 . S
C1154 H1142 0.950 . S
C1154 C1153 1.398 . S
C1154 C1155 1.391 . S
C1155 H1143 0.950 . S
C1155 C1151 1.393 . S
C1155 C1154 1.391 . S
H1156 C1164 0.950 . S
H1157 C1169 0.950 . S
H1158 C1166 0.950 . S
H1159 C1168 0.950 . S
H1160 C1170 0.950 . S
H1161 C1172 0.950 . S
H1162 C1174 0.950 . S
H1163 C1175 0.950 . S
C1164 H1156 0.950 . S
C1164 C1165 1.386 . S
C1164 C1166 1.391 . S
C1165 C1164 1.386 . S
C1165 C1169 1.393 . S
C1166 H1158 0.950 . S
C1166 C1164 1.391 . S
C1166 C1167 1.400 . S
C1167 C1166 1.400 . S
C1167 C1168 1.398 . S
C1167 C1173 1.491 . S
C1168 H1159 0.950 . S
C1168 C1167 1.398 . S
C1168 C1169 1.391 . S
C1169 H1157 0.950 . S
C1169 C1165 1.393 . S
C1169 C1168 1.391 . S
C1170 H1160 0.950 . S
C1170 C1171 1.386 . S
C1170 C1172 1.391 . S
C1171 C1170 1.386 . S
C1171 C1175 1.393 . S
C1172 H1161 0.950 . S
C1172 C1170 1.391 . S
C1172 C1173 1.400 . S
C1173 C1167 1.491 . S
C1173 C1172 1.400 . S
C1173 C1174 1.398 . S
C1174 H1162 0.950 . S
C1174 C1173 1.398 . S
C1174 C1175 1.391 . S
C1175 H1163 0.950 . S
C1175 C1171 1.393 . S
C1175 C1174 1.391 . S
H1176 C1184 0.950 . S
H1177 C1189 0.950 . S
H1178 C1186 0.950 . S
H1179 C1188 0.950 . S
H1180 C1190 0.950 . S
H1181 C1192 0.950 . S
H1182 C1194 0.950 . S
H1183 C1195 0.950 . S
C1184 H1176 0.950 . S
C1184 C1185 1.386 . S
C1184 C1186 1.391 . S
C1185 C1184 1.386 . S
C1185 C1189 1.393 . S
C1186 H1178 0.950 . S
C1186 C1184 1.391 . S
C1186 C1187 1.400 . S
C1187 C1186 1.400 . S
C1187 C1188 1.398 . S
C1187 C1193 1.491 . S
C1188 H1179 0.950 . S
C1188 C1187 1.398 . S
C1188 C1189 1.391 . S
C1189 H1177 0.950 . S
C1189 C1185 1.393 . S
C1189 C1188 1.391 . S
C1190 H1180 0.950 . S
C1190 C1191 1.386 . S
C1190 C1192 1.391 . S
C1191 C1190 1.386 . S
C1191 C1195 1.393 . S
C1192 H1181 0.950 . S
C1192 C1190 1.391 . S
C1192 C1193 1.400 . S
C1193 C1187 1.491 . S
C1193 C1192 1.400 . S
C1193 C1194 1.398 . S
C1194 H1182 0.950 . S
C1194 C1193 1.398 . S
C1194 C1195 1.391 . S
C1195 H1183 0.950 . S
C1195 C1191 1.393 . S
C1195 C1194 1.391 . S
H1196 C1204 0.950 . S
H1197 C1209 0.950 . S
H1198 C1206 0.950 . S
H1199 C1208 0.950 . S
H1200 C1210 0.950 . S
H1201 C1212 0.950 . S
H1202 C1214 0.950 . S
H1203 C1215 0.950 . S
C1204 H1196 0.950 . S
C1204 C1205 1.386 . S
C1204 C1206 1.391 . S
C1205 C1204 1.386 . S
C1205 C1209 1.393 . S
C1206 H1198 0.950 . S
C1206 C1204 1.391 . S
C1206 C1207 1.400 . S
C1207 C1206 1.400 . S
C1207 C1208 1.398 . S
C1207 C1213 1.491 . S
C1208 H1199 0.950 . S
C1208 C1207 1.398 . S
C1208 C1209 1.391 . S
C1209 H1197 0.950 . S
C1209 C1205 1.393 . S
C1209 C1208 1.391 . S
C1210 H1200 0.950 . S
C1210 C1211 1.386 . S
C1210 C1212 1.391 . S
C1211 C1210 1.386 . S
C1211 C1215 1.393 . S
C1212 H1201 0.950 . S
C1212 C1210 1.391 . S
C1212 C1213 1.400 . S
C1213 C1207 1.491 . S
C1213 C1212 1.400 . S
C1213 C1214 1.398 . S
C1214 H1202 0.950 . S
C1214 C1213 1.398 . S
C1214 C1215 1.391 . S
C1215 H1203 0.950 . S
C1215 C1211 1.393 . S
C1215 C1214 1.391 . S
H1216 C1224 0.950 . S
H1217 C1229 0.950 . S
H1218 C1226 0.950 . S
H1219 C1228 0.950 . S
H1220 C1230 0.950 . S
H1221 C1232 0.950 . S
H1222 C1234 0.950 . S
H1223 C1235 0.950 . S
C1224 H1216 0.950 . S
C1224 C1225 1.386 . S
C1224 C1226 1.391 . S
C1225 C1224 1.386 . S
C1225 C1229 1.393 . S
C1226 H1218 0.950 . S
C1226 C1224 1.391 . S
C1226 C1227 1.400 . S
C1227 C1226 1.400 . S
C1227 C1228 1.398 . S
C1227 C1233 1.491 . S
C1228 H1219 0.950 . S
C1228 C1227 1.398 . S
C1228 C1229 1.391 . S
C1229 H1217 0.950 . S
C1229 C1225 1.393 . S
C1229 C1228 1.391 . S
C1230 H1220 0.950 . S
C1230 C1231 1.386 . S
C1230 C1232 1.391 . S
C1231 C1230 1.386 . S
C1231 C1235 1.393 . S
C1232 H1221 0.950 . S
C1232 C1230 1.391 . S
C1232 C1233 1.400 . S
C1233 C1227 1.491 . S
C1233 C1232 1.400 . S
C1233 C1234 1.398 . S
C1234 H1222 0.950 . S
C1234 C1233 1.398 . S
C1234 C1235 1.391 . S
C1235 H1223 0.950 . S
C1235 C1231 1.393 . S
C1235 C1234 1.391 . S
H1236 C1244 0.950 . S
H1237 C1249 0.950 . S
H1238 C1246 0.950 . S
H1239 C1248 0.950 . S
H1240 C1250 0.950 . S
H1241 C1252 0.950 . S
H1242 C1254 0.950 . S
H1243 C1255 0.950 . S
C1244 H1236 0.950 . S
C1244 C1245 1.386 . S
C1244 C1246 1.391 . S
C1245 C1244 1.386 . S
C1245 C1249 1.393 . S
C1246 H1238 0.950 . S
C1246 C1244 1.391 . S
C1246 C1247 1.400 . S
C1247 C1246 1.400 . S
C1247 C1248 1.398 . S
C1247 C1253 1.491 . S
C1248 H1239 0.950 . S
C1248 C1247 1.398 . S
C1248 C1249 1.391 . S
C1249 H1237 0.950 . S
C1249 C1245 1.393 . S
C1249 C1248 1.391 . S
C1250 H1240 0.950 . S
C1250 C1251 1.386 . S
C1250 C1252 1.391 . S
C1251 C1250 1.386 . S
C1251 C1255 1.393 . S
C1252 H1241 0.950 . S
C1252 C1250 1.391 . S
C1252 C1253 1.400 . S
C1253 C1247 1.491 . S
C1253 C1252 1.400 . S
C1253 C1254 1.398 . S
C1254 H1242 0.950 . S
C1254 C1253 1.398 . S
C1254 C1255 1.391 . S
C1255 H1243 0.950 . S
C1255 C1251 1.393 . S
C1255 C1254 1.391 . S
H1256 C1264 0.950 . S
H1257 C1269 0.950 . S
H1258 C1266 0.950 . S
H1259 C1268 0.950 . S
H1260 C1270 0.950 . S
H1261 C1272 0.950 . S
H1262 C1274 0.950 . S
H1263 C1275 0.950 . S
C1264 H1256 0.950 . S
C1264 C1265 1.386 . S
C1264 C1266 1.391 . S
C1265 C1264 1.386 . S
C1265 C1269 1.393 . S
C1266 H1258 0.950 . S
C1266 C1264 1.391 . S
C1266 C1267 1.400 . S
C1267 C1266 1.400 . S
C1267 C1268 1.398 . S
C1267 C1273 1.491 . S
C1268 H1259 0.950 . S
C1268 C1267 1.398 . S
C1268 C1269 1.391 . S
C1269 H1257 0.950 . S
C1269 C1265 1.393 . S
C1269 C1268 1.391 . S
C1270 H1260 0.950 . S
C1270 C1271 1.386 . S
C1270 C1272 1.391 . S
C1271 C1270 1.386 . S
C1271 C1275 1.393 . S
C1272 H1261 0.950 . S
C1272 C1270 1.391 . S
C1272 C1273 1.400 . S
C1273 C1267 1.491 . S
C1273 C1272 1.400 . S
C1273 C1274 1.398 . S
C1274 H1262 0.950 . S
C1274 C1273 1.398 . S
C1274 C1275 1.391 . S
C1275 H1263 0.950 . S
C1275 C1271 1.393 . S
C1275 C1274 1.391 . S
H1276 C1284 0.950 . S
H1277 C1289 0.950 . S
H1278 C1286 0.950 . S
H1279 C1288 0.950 . S
H1280 C1290 0.950 . S
H1281 C1292 0.950 . S
H1282 C1294 0.950 . S
H1283 C1295 0.950 . S
C1284 H1276 0.950 . S
C1284 C1285 1.386 . S
C1284 C1286 1.391 . S
C1285 C1284 1.386 . S
C1285 C1289 1.393 . S
C1286 H1278 0.950 . S
C1286 C1284 1.391 . S
C1286 C1287 1.400 . S
C1287 C1286 1.400 . S
C1287 C1288 1.398 . S
C1287 C1293 1.491 . S
C1288 H1279 0.950 . S
C1288 C1287 1.398 . S
C1288 C1289 1.391 . S
C1289 H1277 0.950 . S
C1289 C1285 1.393 . S
C1289 C1288 1.391 . S
C1290 H1280 0.950 . S
C1290 C1291 1.386 . S
C1290 C1292 1.391 . S
C1291 C1290 1.386 . S
C1291 C1295 1.393 . S
C1292 H1281 0.950 . S
C1292 C1290 1.391 . S
C1292 C1293 1.400 . S
C1293 C1287 1.491 . S
C1293 C1292 1.400 . S
C1293 C1294 1.398 . S
C1294 H1282 0.950 . S
C1294 C1293 1.398 . S
C1294 C1295 1.391 . S
C1295 H1283 0.950 . S
C1295 C1291 1.393 . S
C1295 C1294 1.391 . S
H1296 C1304 0.950 . S
H1297 C1309 0.950 . S
H1298 C1306 0.950 . S
H1299 C1308 0.950 . S
H1300 C1310 0.950 . S
H1301 C1312 0.950 . S
H1302 C1314 0.950 . S
H1303 C1315 0.950 . S
C1304 H1296 0.950 . S
C1304 C1305 1.386 . S
C1304 C1306 1.391 . S
C1305 C1304 1.386 . S
C1305 C1309 1.393 . S
C1306 H1298 0.950 . S
C1306 C1304 1.391 . S
C1306 C1307 1.400 . S
C1307 C1306 1.400 . S
C1307 C1308 1.398 . S
C1307 C1313 1.491 . S
C1308 H1299 0.950 . S
C1308 C1307 1.398 . S
C1308 C1309 1.391 . S
C1309 H1297 0.950 . S
C1309 C1305 1.393 . S
C1309 C1308 1.391 . S
C1310 H1300 0.950 . S
C1310 C1311 1.386 . S
C1310 C1312 1.391 . S
C1311 C1310 1.386 . S
C1311 C1315 1.393 . S
C1312 H1301 0.950 . S
C1312 C1310 1.391 . S
C1312 C1313 1.400 . S
C1313 C1307 1.491 . S
C1313 C1312 1.400 . S
C1313 C1314 1.398 . S
C1314 H1302 0.950 . S
C1314 C1313 1.398 . S
C1314 C1315 1.391 . S
C1315 H1303 0.950 . S
C1315 C1311 1.393 . S
C1315 C1314 1.391 . S
H1316 C1324 0.950 . S
H1317 C1329 0.950 . S
H1318 C1326 0.950 . S
H1319 C1328 0.950 . S
H1320 C1330 0.950 . S
H1321 C1332 0.950 . S
H1322 C1334 0.950 . S
H1323 C1335 0.950 . S
C1324 H1316 0.950 . S
C1324 C1325 1.386 . S
C1324 C1326 1.391 . S
C1325 C1324 1.386 . S
C1325 C1329 1.393 . S
C1326 H1318 0.950 . S
C1326 C1324 1.391 . S
C1326 C1327 1.400 . S
C1327 C1326 1.400 . S
C1327 C1328 1.398 . S
C1327 C1333 1.491 . S
C1328 H1319 0.950 . S
C1328 C1327 1.398 . S
C1328 C1329 1.391 . S
C1329 H1317 0.950 . S
C1329 C1325 1.393 . S
C1329 C1328 1.391 . S
C1330 H1320 0.950 . S
C1330 C1331 1.386 . S
C1330 C1332 1.391 . S
C1331 C1330 1.386 . S
C1331 C1335 1.393 . S
C1332 H1321 0.950 . S
C1332 C1330 1.391 . S
C1332 C1333 1.400 . S
C1333 C1327 1.491 . S
C1333 C1332 1.400 . S
C1333 C1334 1.398 . S
C1334 H1322 0.950 . S
C1334 C1333 1.398 . S
C1334 C1335 1.391 . S
C1335 H1323 0.950 . S
C1335 C1331 1.393 . S
C1335 C1334 1.391 . S
H1336 C1344 0.950 . S
H1337 C1349 0.950 . S
H1338 C1346 0.950 . S
H1339 C1348 0.950 . S
H1340 C1350 0.950 . S
H1341 C1352 0.950 . S
H1342 C1354 0.950 . S
H1343 C1355 0.950 . S
C1344 H1336 0.950 . S
C1344 C1345 1.386 . S
C1344 C1346 1.391 . S
C1345 C1344 1.386 . S
C1345 C1349 1.393 . S
C1346 H1338 0.950 . S
C1346 C1344 1.391 . S
C1346 C1347 1.400 . S
C1347 C1346 1.400 . S
C1347 C1348 1.398 . S
C1347 C1353 1.491 . S
C1348 H1339 0.950 . S
C1348 C1347 1.398 . S
C1348 C1349 1.391 . S
C1349 H1337 0.950 . S
C1349 C1345 1.393 . S
C1349 C1348 1.391 . S
C1350 H1340 0.950 . S
C1350 C1351 1.386 . S
C1350 C1352 1.391 . S
C1351 C1350 1.386 . S
C1351 C1355 1.393 . S
C1352 H1341 0.950 . S
C1352 C1350 1.391 . S
C1352 C1353 1.400 . S
C1353 C1347 1.491 . S
C1353 C1352 1.400 . S
C1353 C1354 1.398 . S
C1354 H1342 0.950 . S
C1354 C1353 1.398 . S
C1354 C1355 1.391 . S
C1355 H1343 0.950 . S
C1355 C1351 1.393 . S
C1355 C1354 1.391 . S
H1356 C1364 0.950 . S
H1357 C1369 0.950 . S
H1358 C1366 0.950 . S
H1359 C1368 0.950 . S
H1360 C1370 0.950 . S
H1361 C1372 0.950 . S
H1362 C1374 0.950 . S
H1363 C1375 0.950 . S
C1364 H1356 0.950 . S
C1364 C1365 1.386 . S
C1364 C1366 1.391 . S
C1365 C1364 1.386 . S
C1365 C1369 1.393 . S
C1366 H1358 0.950 . S
C1366 C1364 1.391 . S
C1366 C1367 1.400 . S
C1367 C1366 1.400 . S
C1367 C1368 1.398 . S
C1367 C1373 1.491 . S
C1368 H1359 0.950 . S
C1368 C1367 1.398 . S
C1368 C1369 1.391 . S
C1369 H1357 0.950 . S
C1369 C1365 1.393 . S
C1369 C1368 1.391 . S
C1370 H1360 0.950 . S
C1370 C1371 1.386 . S
C1370 C1372 1.391 . S
C1371 C1370 1.386 . S
C1371 C1375 1.393 . S
C1372 H1361 0.950 . S
C1372 C1370 1.391 . S
C1372 C1373 1.400 . S
C1373 C1367 1.491 . S
C1373 C1372 1.400 . S
C1373 C1374 1.398 . S
C1374 H1362 0.950 . S
C1374 C1373 1.398 . S
C1374 C1375 1.391 . S
C1375 H1363 0.950 . S
C1375 C1371 1.393 . S
C1375 C1374 1.391 . S
H1376 C1384 0.950 . S
H1377 C1389 0.950 . S
H1378 C1386 0.950 . S
H1379 C1388 0.950 . S
H1380 C1390 0.950 . S
H1381 C1392 0.950 . S
H1382 C1394 0.950 . S
H1383 C1395 0.950 . S
C1384 H1376 0.950 . S
C1384 C1385 1.386 . S
C1384 C1386 1.391 . S
C1385 C1384 1.386 . S
C1385 C1389 1.393 . S
C1386 H1378 0.950 . S
C1386 C1384 1.391 . S
C1386 C1387 1.400 . S
C1387 C1386 1.400 . S
C1387 C1388 1.398 . S
C1387 C1393 1.491 1_655 S
C1388 H1379 0.950 . S
C1388 C1387 1.398 . S
C1388 C1389 1.391 . S
C1389 H1377 0.950 . S
C1389 C1385 1.393 . S
C1389 C1388 1.391 . S
C1390 H1380 0.950 . S
C1390 C1391 1.386 . S
C1390 C1392 1.391 . S
C1391 C1390 1.386 . S
C1391 C1395 1.393 . S
C1392 H1381 0.950 . S
C1392 C1390 1.391 . S
C1392 C1393 1.400 . S
C1393 C1387 1.491 1_455 S
C1393 C1392 1.400 . S
C1393 C1394 1.398 . S
C1394 H1382 0.950 . S
C1394 C1393 1.398 . S
C1394 C1395 1.391 . S
C1395 H1383 0.950 . S
C1395 C1391 1.393 . S
C1395 C1394 1.391 . S
H1396 C1404 0.950 . S
H1397 C1409 0.950 . S
H1398 C1406 0.950 . S
H1399 C1408 0.950 . S
H1400 C1410 0.950 . S
H1401 C1412 0.950 . S
H1402 C1414 0.950 . S
H1403 C1415 0.950 . S
C1404 H1396 0.950 . S
C1404 C1405 1.386 . S
C1404 C1406 1.391 . S
C1405 C1404 1.386 . S
C1405 C1409 1.393 . S
C1406 H1398 0.950 . S
C1406 C1404 1.391 . S
C1406 C1407 1.400 . S
C1407 C1406 1.400 . S
C1407 C1408 1.398 . S
C1407 C1413 1.491 1_655 S
C1408 H1399 0.950 . S
C1408 C1407 1.398 . S
C1408 C1409 1.391 . S
C1409 H1397 0.950 . S
C1409 C1405 1.393 . S
C1409 C1408 1.391 . S
C1410 H1400 0.950 . S
C1410 C1411 1.386 . S
C1410 C1412 1.391 . S
C1411 C1410 1.386 . S
C1411 C1415 1.393 . S
C1412 H1401 0.950 . S
C1412 C1410 1.391 . S
C1412 C1413 1.400 . S
C1413 C1407 1.491 1_455 S
C1413 C1412 1.400 . S
C1413 C1414 1.398 . S
C1414 H1402 0.950 . S
C1414 C1413 1.398 . S
C1414 C1415 1.391 . S
C1415 H1403 0.950 . S
C1415 C1411 1.393 . S
C1415 C1414 1.391 . S
H1416 C1424 0.950 . S
H1417 C1429 0.950 . S
H1418 C1426 0.950 . S
H1419 C1428 0.950 . S
H1420 C1430 0.950 . S
H1421 C1432 0.950 . S
H1422 C1434 0.950 . S
H1423 C1435 0.950 . S
C1424 H1416 0.950 . S
C1424 C1425 1.386 . S
C1424 C1426 1.391 . S
C1425 C1424 1.386 . S
C1425 C1429 1.393 . S
C1426 H1418 0.950 . S
C1426 C1424 1.391 . S
C1426 C1427 1.400 . S
C1427 C1426 1.400 . S
C1427 C1428 1.398 . S
C1427 C1433 1.491 . S
C1428 H1419 0.950 . S
C1428 C1427 1.398 . S
C1428 C1429 1.391 . S
C1429 H1417 0.950 . S
C1429 C1425 1.393 . S
C1429 C1428 1.391 . S
C1430 H1420 0.950 . S
C1430 C1431 1.386 . S
C1430 C1432 1.391 . S
C1431 C1430 1.386 . S
C1431 C1435 1.393 . S
C1432 H1421 0.950 . S
C1432 C1430 1.391 . S
C1432 C1433 1.400 . S
C1433 C1427 1.491 . S
C1433 C1432 1.400 . S
C1433 C1434 1.398 . S
C1434 H1422 0.950 . S
C1434 C1433 1.398 . S
C1434 C1435 1.391 . S
C1435 H1423 0.950 . S
C1435 C1431 1.393 . S
C1435 C1434 1.391 . S
H1436 C1444 0.950 . S
H1437 C1449 0.950 1_556 S
H1438 C1446 0.950 . S
H1439 C1448 0.950 1_556 S
H1440 C1450 0.950 1_556 S
H1441 C1452 0.950 1_556 S
H1442 C1454 0.950 . S
H1443 C1455 0.950 . S
C1444 H1436 0.950 . S
C1444 C1445 1.386 . S
C1444 C1446 1.391 . S
C1445 C1444 1.386 . S
C1445 C1449 1.393 . S
C1446 H1438 0.950 . S
C1446 C1444 1.391 . S
C1446 C1447 1.400 . S
C1447 C1446 1.400 . S
C1447 C1448 1.398 . S
C1447 C1453 1.491 . S
C1448 H1439 0.950 1_554 S
C1448 C1447 1.398 . S
C1448 C1449 1.391 . S
C1449 H1437 0.950 1_554 S
C1449 C1445 1.393 . S
C1449 C1448 1.391 . S
C1450 H1440 0.950 1_554 S
C1450 C1451 1.386 . S
C1450 C1452 1.391 . S
C1451 C1450 1.386 . S
C1451 C1455 1.393 . S
C1452 H1441 0.950 1_554 S
C1452 C1450 1.391 . S
C1452 C1453 1.400 . S
C1453 C1447 1.491 . S
C1453 C1452 1.400 . S
C1453 C1454 1.398 . S
C1454 H1442 0.950 . S
C1454 C1453 1.398 . S
C1454 C1455 1.391 . S
C1455 H1443 0.950 . S
C1455 C1451 1.393 . S
C1455 C1454 1.391 . S
H1456 C1464 0.950 . S
H1457 C1469 0.950 . S
H1458 C1466 0.950 . S
H1459 C1468 0.950 . S
H1460 C1470 0.950 . S
H1461 C1472 0.950 . S
H1462 C1474 0.950 . S
H1463 C1475 0.950 . S
C1464 H1456 0.950 . S
C1464 C1465 1.386 . S
C1464 C1466 1.391 . S
C1465 C1464 1.386 . S
C1465 C1469 1.393 . S
C1466 H1458 0.950 . S
C1466 C1464 1.391 . S
C1466 C1467 1.400 . S
C1467 C1466 1.400 . S
C1467 C1468 1.398 . S
C1467 C1473 1.491 1_655 S
C1468 H1459 0.950 . S
C1468 C1467 1.398 . S
C1468 C1469 1.391 . S
C1469 H1457 0.950 . S
C1469 C1465 1.393 . S
C1469 C1468 1.391 . S
C1470 H1460 0.950 . S
C1470 C1471 1.386 . S
C1470 C1472 1.391 . S
C1471 C1470 1.386 . S
C1471 C1475 1.393 . S
C1472 H1461 0.950 . S
C1472 C1470 1.391 . S
C1472 C1473 1.400 . S
C1473 C1467 1.491 1_455 S
C1473 C1472 1.400 . S
C1473 C1474 1.398 . S
C1474 H1462 0.950 . S
C1474 C1473 1.398 . S
C1474 C1475 1.391 . S
C1475 H1463 0.950 . S
C1475 C1471 1.393 . S
C1475 C1474 1.391 . S
H1476 C1484 0.950 . S
H1477 C1489 0.950 . S
H1478 C1486 0.950 . S
H1479 C1488 0.950 . S
H1480 C1490 0.950 . S
H1481 C1492 0.950 . S
H1482 C1494 0.950 . S
H1483 C1495 0.950 . S
C1484 H1476 0.950 . S
C1484 C1485 1.386 . S
C1484 C1486 1.391 . S
C1485 C1484 1.386 . S
C1485 C1489 1.393 . S
C1486 H1478 0.950 . S
C1486 C1484 1.391 . S
C1486 C1487 1.400 . S
C1487 C1486 1.400 . S
C1487 C1488 1.398 . S
C1487 C1493 1.491 . S
C1488 H1479 0.950 . S
C1488 C1487 1.398 . S
C1488 C1489 1.391 . S
C1489 H1477 0.950 . S
C1489 C1485 1.393 . S
C1489 C1488 1.391 . S
C1490 H1480 0.950 . S
C1490 C1491 1.386 . S
C1490 C1492 1.391 . S
C1491 C1490 1.386 . S
C1491 C1495 1.393 . S
C1492 H1481 0.950 . S
C1492 C1490 1.391 . S
C1492 C1493 1.400 . S
C1493 C1487 1.491 . S
C1493 C1492 1.400 . S
C1493 C1494 1.398 . S
C1494 H1482 0.950 . S
C1494 C1493 1.398 . S
C1494 C1495 1.391 . S
C1495 H1483 0.950 . S
C1495 C1491 1.393 . S
C1495 C1494 1.391 . S
H1496 C1504 0.950 . S
H1497 C1509 0.950 . S
H1498 C1506 0.950 . S
H1499 C1508 0.950 . S
H1500 C1510 0.950 . S
H1501 C1512 0.950 . S
H1502 C1514 0.950 . S
H1503 C1515 0.950 . S
C1504 H1496 0.950 . S
C1504 C1505 1.386 . S
C1504 C1506 1.391 . S
C1505 C1504 1.386 . S
C1505 C1509 1.393 . S
C1506 H1498 0.950 . S
C1506 C1504 1.391 . S
C1506 C1507 1.400 . S
C1507 C1506 1.400 . S
C1507 C1508 1.398 . S
C1507 C1513 1.491 . S
C1508 H1499 0.950 . S
C1508 C1507 1.398 . S
C1508 C1509 1.391 . S
C1509 H1497 0.950 . S
C1509 C1505 1.393 . S
C1509 C1508 1.391 . S
C1510 H1500 0.950 . S
C1510 C1511 1.386 . S
C1510 C1512 1.391 . S
C1511 C1510 1.386 . S
C1511 C1515 1.393 . S
C1512 H1501 0.950 . S
C1512 C1510 1.391 . S
C1512 C1513 1.400 . S
C1513 C1507 1.491 . S
C1513 C1512 1.400 . S
C1513 C1514 1.398 . S
C1514 H1502 0.950 . S
C1514 C1513 1.398 . S
C1514 C1515 1.391 . S
C1515 H1503 0.950 . S
C1515 C1511 1.393 . S
C1515 C1514 1.391 . S
H1516 C1524 0.937 1_554 S
H1517 C1529 0.950 . S
H1518 C1526 0.950 1_554 S
H1519 C1528 0.950 . S
H1520 C1530 0.950 . S
H1521 C1532 0.950 . S
H1522 C1534 0.950 1_554 S
H1523 C1535 0.950 1_554 S
C1524 H1516 0.937 1_556 S
C1524 C1525 1.386 . S
C1524 C1526 1.391 . S
C1525 C1524 1.386 . S
C1525 C1529 1.393 1_455 S
C1526 H1518 0.950 1_556 S
C1526 C1524 1.391 . S
C1526 C1527 1.400 . S
C1527 C1526 1.400 . S
C1527 C1528 1.398 1_455 S
C1527 C1533 1.491 1_455 S
C1528 H1519 0.950 . S
C1528 C1527 1.398 1_655 S
C1528 C1529 1.391 . S
C1529 H1517 0.950 . S
C1529 C1525 1.393 1_655 S
C1529 C1528 1.391 . S
C1530 H1520 0.950 . S
C1530 C1531 1.386 . S
C1530 C1532 1.391 . S
C1531 C1530 1.386 . S
C1531 C1535 1.393 1_655 S
C1532 H1521 0.950 . S
C1532 C1530 1.391 . S
C1532 C1533 1.400 . S
C1533 C1527 1.491 1_655 S
C1533 C1532 1.400 . S
C1533 C1534 1.398 1_655 S
C1534 H1522 0.950 1_556 S
C1534 C1533 1.398 1_455 S
C1534 C1535 1.391 . S
C1535 H1523 0.950 1_556 S
C1535 C1531 1.393 1_455 S
C1535 C1534 1.391 . S
H1536 C1544 0.950 . S
H1537 C1549 0.950 . S
H1538 C1546 0.950 . S
H1539 C1548 0.950 . S
H1540 C1550 0.950 . S
H1541 C1552 0.950 . S
H1542 C1554 0.950 . S
H1543 C1555 0.950 . S
C1544 H1536 0.950 . S
C1544 C1545 1.386 . S
C1544 C1546 1.391 . S
C1545 C1544 1.386 . S
C1545 C1549 1.393 . S
C1546 H1538 0.950 . S
C1546 C1544 1.391 . S
C1546 C1547 1.400 . S
C1547 C1546 1.400 . S
C1547 C1548 1.398 . S
C1547 C1553 1.491 1_655 S
C1548 H1539 0.950 . S
C1548 C1547 1.398 . S
C1548 C1549 1.391 . S
C1549 H1537 0.950 . S
C1549 C1545 1.393 . S
C1549 C1548 1.391 . S
C1550 H1540 0.950 . S
C1550 C1551 1.386 . S
C1550 C1552 1.391 . S
C1551 C1550 1.386 . S
C1551 C1555 1.393 . S
C1552 H1541 0.950 . S
C1552 C1550 1.391 . S
C1552 C1553 1.400 . S
C1553 C1547 1.491 1_455 S
C1553 C1552 1.400 . S
C1553 C1554 1.398 . S
C1554 H1542 0.950 . S
C1554 C1553 1.398 . S
C1554 C1555 1.391 . S
C1555 H1543 0.950 . S
C1555 C1551 1.393 . S
C1555 C1554 1.391 . S
H1556 C1564 0.950 . S
H1557 C1569 0.950 . S
H1558 C1566 0.950 . S
H1559 C1568 0.950 . S
H1560 C1570 0.950 . S
H1561 C1572 0.950 . S
H1562 C1574 0.950 . S
H1563 C1575 0.950 . S
C1564 H1556 0.950 . S
C1564 C1565 1.386 1_655 S
C1564 C1566 1.391 . S
C1565 C1564 1.386 1_455 S
C1565 C1569 1.393 . S
C1566 H1558 0.950 . S
C1566 C1564 1.391 . S
C1566 C1567 1.400 1_655 S
C1567 C1566 1.400 1_455 S
C1567 C1568 1.398 . S
C1567 C1573 1.491 1_455 S
C1568 H1559 0.950 . S
C1568 C1567 1.398 . S
C1568 C1569 1.391 . S
C1569 H1557 0.950 . S
C1569 C1565 1.393 . S
C1569 C1568 1.391 . S
C1570 H1560 0.950 . S
C1570 C1571 1.386 1_455 S
C1570 C1572 1.391 . S
C1571 C1570 1.386 1_655 S
C1571 C1575 1.393 . S
C1572 H1561 0.950 . S
C1572 C1570 1.391 . S
C1572 C1573 1.400 1_455 S
C1573 C1567 1.491 1_655 S
C1573 C1572 1.400 1_655 S
C1573 C1574 1.398 . S
C1574 H1562 0.950 . S
C1574 C1573 1.398 . S
C1574 C1575 1.391 . S
C1575 H1563 0.950 . S
C1575 C1571 1.393 . S
C1575 C1574 1.391 . S
H1576 C1584 0.950 . S
H1577 C1589 0.950 . S
H1578 C1586 0.950 . S
H1579 C1588 0.950 . S
H1580 C1590 0.950 . S
H1581 C1592 0.950 . S
H1582 C1594 0.950 . S
H1583 C1595 0.950 . S
C1584 H1576 0.950 . S
C1584 C1585 1.386 . S
C1584 C1586 1.391 . S
C1585 C1584 1.386 . S
C1585 C1589 1.393 . S
C1586 H1578 0.950 . S
C1586 C1584 1.391 . S
C1586 C1587 1.400 . S
C1587 C1586 1.400 . S
C1587 C1588 1.398 . S
C1587 C1593 1.491 . S
C1588 H1579 0.950 . S
C1588 C1587 1.398 . S
C1588 C1589 1.391 . S
C1589 H1577 0.950 . S
C1589 C1585 1.393 . S
C1589 C1588 1.391 . S
C1590 H1580 0.950 . S
C1590 C1591 1.386 . S
C1590 C1592 1.391 . S
C1591 C1590 1.386 . S
C1591 C1595 1.393 . S
C1592 H1581 0.950 . S
C1592 C1590 1.391 . S
C1592 C1593 1.400 . S
C1593 C1587 1.491 . S
C1593 C1592 1.400 . S
C1593 C1594 1.398 . S
C1594 H1582 0.950 . S
C1594 C1593 1.398 . S
C1594 C1595 1.391 . S
C1595 H1583 0.950 . S
C1595 C1591 1.393 . S
C1595 C1594 1.391 . S
H1596 C1604 0.950 . S
H1597 C1609 0.950 . S
H1598 C1606 0.950 . S
H1599 C1608 0.950 . S
H1600 C1610 0.950 . S
H1601 C1612 0.950 . S
H1602 C1614 0.950 . S
H1603 C1615 0.950 . S
C1604 H1596 0.950 . S
C1604 C1605 1.386 . S
C1604 C1606 1.391 . S
C1605 C1604 1.386 . S
C1605 C1609 1.393 . S
C1606 H1598 0.950 . S
C1606 C1604 1.391 . S
C1606 C1607 1.400 . S
C1607 C1606 1.400 . S
C1607 C1608 1.398 . S
C1607 C1613 1.491 . S
C1608 H1599 0.950 . S
C1608 C1607 1.398 . S
C1608 C1609 1.391 . S
C1609 H1597 0.950 . S
C1609 C1605 1.393 . S
C1609 C1608 1.391 . S
C1610 H1600 0.950 . S
C1610 C1611 1.386 . S
C1610 C1612 1.391 . S
C1611 C1610 1.386 . S
C1611 C1615 1.393 . S
C1612 H1601 0.950 . S
C1612 C1610 1.391 . S
C1612 C1613 1.400 . S
C1613 C1607 1.491 . S
C1613 C1612 1.400 . S
C1613 C1614 1.398 . S
C1614 H1602 0.950 . S
C1614 C1613 1.398 . S
C1614 C1615 1.391 . S
C1615 H1603 0.950 . S
C1615 C1611 1.393 . S
C1615 C1614 1.391 . S
H1616 C1624 0.950 . S
H1617 C1629 0.950 . S
H1618 C1626 0.950 . S
H1619 C1628 0.950 . S
H1620 C1630 0.950 . S
H1621 C1632 0.950 . S
H1622 C1634 0.950 . S
H1623 C1635 0.950 . S
C1624 H1616 0.950 . S
C1624 C1625 1.386 . S
C1624 C1626 1.391 . S
C1625 C1624 1.386 . S
C1625 C1629 1.393 . S
C1626 H1618 0.950 . S
C1626 C1624 1.391 . S
C1626 C1627 1.400 . S
C1627 C1626 1.400 . S
C1627 C1628 1.398 . S
C1627 C1633 1.491 1_655 S
C1628 H1619 0.950 . S
C1628 C1627 1.398 . S
C1628 C1629 1.391 . S
C1629 H1617 0.950 . S
C1629 C1625 1.393 . S
C1629 C1628 1.391 . S
C1630 H1620 0.950 . S
C1630 C1631 1.386 . S
C1630 C1632 1.391 . S
C1631 C1630 1.386 . S
C1631 C1635 1.393 . S
C1632 H1621 0.950 . S
C1632 C1630 1.391 . S
C1632 C1633 1.400 . S
C1633 C1627 1.491 1_455 S
C1633 C1632 1.400 . S
C1633 C1634 1.398 . S
C1634 H1622 0.950 . S
C1634 C1633 1.398 . S
C1634 C1635 1.391 . S
C1635 H1623 0.950 . S
C1635 C1631 1.393 . S
C1635 C1634 1.391 . S
H1636 C1644 0.950 . S
H1637 C1649 0.950 . S
H1638 C1646 0.950 . S
H1639 C1648 0.950 . S
H1640 C1650 0.950 . S
H1641 C1652 0.950 . S
H1642 C1654 0.950 . S
H1643 C1655 0.950 . S
C1644 H1636 0.950 . S
C1644 C1645 1.386 . S
C1644 C1646 1.391 . S
C1645 C1644 1.386 . S
C1645 C1649 1.393 . S
C1646 H1638 0.950 . S
C1646 C1644 1.391 . S
C1646 C1647 1.400 . S
C1647 C1646 1.400 . S
C1647 C1648 1.398 . S
C1647 C1653 1.491 . S
C1648 H1639 0.950 . S
C1648 C1647 1.398 . S
C1648 C1649 1.391 . S
C1649 H1637 0.950 . S
C1649 C1645 1.393 . S
C1649 C1648 1.391 . S
C1650 H1640 0.950 . S
C1650 C1651 1.386 . S
C1650 C1652 1.391 . S
C1651 C1650 1.386 . S
C1651 C1655 1.393 . S
C1652 H1641 0.950 . S
C1652 C1650 1.391 . S
C1652 C1653 1.400 . S
C1653 C1647 1.491 . S
C1653 C1652 1.400 . S
C1653 C1654 1.398 . S
C1654 H1642 0.950 . S
C1654 C1653 1.398 . S
C1654 C1655 1.391 . S
C1655 H1643 0.950 . S
C1655 C1651 1.393 . S
C1655 C1654 1.391 . S
H1656 C1664 0.950 . S
H1657 C1669 0.950 . S
H1658 C1666 0.950 . S
H1659 C1668 0.950 . S
H1660 C1670 0.950 . S
H1661 C1672 0.950 . S
H1662 C1674 0.950 . S
H1663 C1675 0.950 . S
C1664 H1656 0.950 . S
C1664 C1665 1.386 . S
C1664 C1666 1.391 . S
C1665 C1664 1.386 . S
C1665 C1669 1.393 . S
C1666 H1658 0.950 . S
C1666 C1664 1.391 . S
C1666 C1667 1.400 . S
C1667 C1666 1.400 . S
C1667 C1668 1.398 . S
C1667 C1673 1.491 . S
C1668 H1659 0.950 . S
C1668 C1667 1.398 . S
C1668 C1669 1.391 . S
C1669 H1657 0.950 . S
C1669 C1665 1.393 . S
C1669 C1668 1.391 . S
C1670 H1660 0.950 . S
C1670 C1671 1.386 . S
C1670 C1672 1.391 . S
C1671 C1670 1.386 . S
C1671 C1675 1.393 . S
C1672 H1661 0.950 . S
C1672 C1670 1.391 . S
C1672 C1673 1.400 . S
C1673 C1667 1.491 . S
C1673 C1672 1.400 . S
C1673 C1674 1.398 . S
C1674 H1662 0.950 . S
C1674 C1673 1.398 . S
C1674 C1675 1.391 . S
C1675 H1663 0.950 . S
C1675 C1671 1.393 . S
C1675 C1674 1.391 . S
H1676 C1684 0.950 . S
H1677 C1689 0.950 . S
H1678 C1686 0.950 . S
H1679 C1688 0.950 . S
H1680 C1690 0.950 . S
H1681 C1692 0.950 . S
H1682 C1694 0.950 . S
H1683 C1695 0.950 . S
C1684 H1676 0.950 . S
C1684 C1685 1.386 . S
C1684 C1686 1.391 . S
C1685 C1684 1.386 . S
C1685 C1689 1.393 1_455 S
C1686 H1678 0.950 . S
C1686 C1684 1.391 . S
C1686 C1687 1.400 . S
C1687 C1686 1.400 . S
C1687 C1688 1.398 1_455 S
C1687 C1693 1.491 1_455 S
C1688 H1679 0.950 . S
C1688 C1687 1.398 1_655 S
C1688 C1689 1.391 . S
C1689 H1677 0.950 . S
C1689 C1685 1.393 1_655 S
C1689 C1688 1.391 . S
C1690 H1680 0.950 . S
C1690 C1691 1.386 . S
C1690 C1692 1.391 . S
C1691 C1690 1.386 . S
C1691 C1695 1.393 1_655 S
C1692 H1681 0.950 . S
C1692 C1690 1.391 . S
C1692 C1693 1.400 . S
C1693 C1687 1.491 1_655 S
C1693 C1692 1.400 . S
C1693 C1694 1.398 1_655 S
C1694 H1682 0.950 . S
C1694 C1693 1.398 1_455 S
C1694 C1695 1.391 . S
C1695 H1683 0.950 . S
C1695 C1691 1.393 1_455 S
C1695 C1694 1.391 . S
H1696 C1704 0.950 . S
H1697 C1709 0.950 . S
H1698 C1706 0.950 . S
H1699 C1708 0.950 . S
H1700 C1710 0.950 . S
H1701 C1712 0.950 . S
H1702 C1714 0.950 . S
H1703 C1715 0.950 . S
C1704 H1696 0.950 . S
C1704 C1705 1.386 . S
C1704 C1706 1.391 . S
C1705 C1704 1.386 . S
C1705 C1709 1.393 . S
C1706 H1698 0.950 . S
C1706 C1704 1.391 . S
C1706 C1707 1.400 . S
C1707 C1706 1.400 . S
C1707 C1708 1.398 . S
C1707 C1713 1.491 . S
C1708 H1699 0.950 . S
C1708 C1707 1.398 . S
C1708 C1709 1.391 . S
C1709 H1697 0.950 . S
C1709 C1705 1.393 . S
C1709 C1708 1.391 . S
C1710 H1700 0.950 . S
C1710 C1711 1.386 . S
C1710 C1712 1.391 . S
C1711 C1710 1.386 . S
C1711 C1715 1.393 . S
C1712 H1701 0.950 . S
C1712 C1710 1.391 . S
C1712 C1713 1.400 . S
C1713 C1707 1.491 . S
C1713 C1712 1.400 . S
C1713 C1714 1.398 . S
C1714 H1702 0.950 . S
C1714 C1713 1.398 . S
C1714 C1715 1.391 . S
C1715 H1703 0.950 . S
C1715 C1711 1.393 . S
C1715 C1714 1.391 . S
H1716 C1724 0.950 . S
H1717 C1729 0.950 . S
H1718 C1726 0.950 . S
H1719 C1728 0.950 . S
H1720 C1730 0.975 . S
H1721 C1732 0.950 . S
H1722 C1734 0.950 . S
H1723 C1735 0.950 . S
C1724 H1716 0.950 . S
C1724 C1725 1.386 . S
C1724 C1726 1.391 . S
C1725 C1724 1.386 . S
C1725 C1729 1.393 . S
C1726 H1718 0.950 . S
C1726 C1724 1.391 . S
C1726 C1727 1.400 . S
C1727 C1726 1.400 . S
C1727 C1728 1.398 . S
C1727 C1733 1.491 . S
C1728 H1719 0.950 . S
C1728 C1727 1.398 . S
C1728 C1729 1.391 . S
C1729 H1717 0.950 . S
C1729 C1725 1.393 . S
C1729 C1728 1.391 . S
C1730 H1720 0.975 . S
C1730 C1731 1.383 1_455 S
C1730 C1732 1.369 1_455 S
C1731 C1730 1.383 1_655 S
C1731 C1735 1.393 . S
C1732 H1721 0.950 . S
C1732 C1730 1.369 1_655 S
C1732 C1733 1.400 . S
C1733 C1727 1.491 . S
C1733 C1732 1.400 . S
C1733 C1734 1.398 . S
C1734 H1722 0.950 . S
C1734 C1733 1.398 . S
C1734 C1735 1.391 . S
C1735 H1723 0.950 . S
C1735 C1731 1.393 . S
C1735 C1734 1.391 . S
H1736 C1744 0.950 . S
H1737 C1749 0.950 . S
H1738 C1746 0.950 . S
H1739 C1748 0.950 . S
H1740 C1750 0.950 . S
H1741 C1752 0.950 . S
H1742 C1754 0.950 . S
H1743 C1755 0.950 . S
C1744 H1736 0.950 . S
C1744 C1745 1.386 . S
C1744 C1746 1.391 . S
C1745 C1744 1.386 . S
C1745 C1749 1.393 . S
C1746 H1738 0.950 . S
C1746 C1744 1.391 . S
C1746 C1747 1.400 . S
C1747 C1746 1.400 . S
C1747 C1748 1.398 . S
C1747 C1753 1.491 . S
C1748 H1739 0.950 . S
C1748 C1747 1.398 . S
C1748 C1749 1.391 . S
C1749 H1737 0.950 . S
C1749 C1745 1.393 . S
C1749 C1748 1.391 . S
C1750 H1740 0.950 . S
C1750 C1751 1.386 . S
C1750 C1752 1.391 . S
C1751 C1750 1.386 . S
C1751 C1755 1.393 . S
C1752 H1741 0.950 . S
C1752 C1750 1.391 . S
C1752 C1753 1.400 . S
C1753 C1747 1.491 . S
C1753 C1752 1.400 . S
C1753 C1754 1.398 . S
C1754 H1742 0.950 . S
C1754 C1753 1.398 . S
C1754 C1755 1.391 . S
C1755 H1743 0.950 . S
C1755 C1751 1.393 . S
C1755 C1754 1.391 . S
H1756 C1764 0.950 . S
H1757 C1769 0.950 . S
H1758 C1766 0.950 . S
H1759 C1768 0.950 . S
H1760 C1770 0.950 . S
H1761 C1772 0.950 . S
H1762 C1774 0.950 . S
H1763 C1775 0.950 . S
C1764 H1756 0.950 . S
C1764 C1765 1.386 . S
C1764 C1766 1.391 . S
C1765 C1764 1.386 . S
C1765 C1769 1.393 . S
C1766 H1758 0.950 . S
C1766 C1764 1.391 . S
C1766 C1767 1.400 . S
C1767 C1766 1.400 . S
C1767 C1768 1.398 . S
C1767 C1773 1.491 . S
C1768 H1759 0.950 . S
C1768 C1767 1.398 . S
C1768 C1769 1.391 . S
C1769 H1757 0.950 . S
C1769 C1765 1.393 . S
C1769 C1768 1.391 . S
C1770 H1760 0.950 . S
C1770 C1771 1.386 . S
C1770 C1772 1.391 . S
C1771 C1770 1.386 . S
C1771 C1775 1.393 . S
C1772 H1761 0.950 . S
C1772 C1770 1.391 . S
C1772 C1773 1.400 . S
C1773 C1767 1.491 . S
C1773 C1772 1.400 . S
C1773 C1774 1.398 . S
C1774 H1762 0.950 . S
C1774 C1773 1.398 . S
C1774 C1775 1.391 . S
C1775 H1763 0.950 . S
C1775 C1771 1.393 . S
C1775 C1774 1.391 . S
H1776 C1784 0.950 . S
H1777 C1789 0.950 . S
H1778 C1786 0.950 . S
H1779 C1788 0.950 . S
H1780 C1790 0.950 . S
H1781 C1792 0.950 . S
H1782 C1794 0.950 . S
H1783 C1795 0.950 . S
C1784 H1776 0.950 . S
C1784 C1785 1.386 . S
C1784 C1786 1.391 . S
C1785 C1784 1.386 . S
C1785 C1789 1.393 . S
C1786 H1778 0.950 . S
C1786 C1784 1.391 . S
C1786 C1787 1.400 . S
C1787 C1786 1.400 . S
C1787 C1788 1.398 . S
C1787 C1793 1.491 . S
C1788 H1779 0.950 . S
C1788 C1787 1.398 . S
C1788 C1789 1.391 . S
C1789 H1777 0.950 . S
C1789 C1785 1.393 . S
C1789 C1788 1.391 . S
C1790 H1780 0.950 . S
C1790 C1791 1.386 . S
C1790 C1792 1.391 . S
C1791 C1790 1.386 . S
C1791 C1795 1.393 . S
C1792 H1781 0.950 . S
C1792 C1790 1.391 . S
C1792 C1793 1.400 . S
C1793 C1787 1.491 . S
C1793 C1792 1.400 . S
C1793 C1794 1.398 . S
C1794 H1782 0.950 . S
C1794 C1793 1.398 . S
C1794 C1795 1.391 . S
C1795 H1783 0.950 . S
C1795 C1791 1.393 . S
C1795 C1794 1.391 . S
H1796 C1804 0.950 . S
H1797 C1809 0.950 . S
H1798 C1806 0.950 . S
H1799 C1808 0.950 . S
H1800 C1810 0.950 . S
H1801 C1812 0.950 . S
H1802 C1814 0.950 . S
H1803 C1815 0.950 . S
C1804 H1796 0.950 . S
C1804 C1805 1.386 . S
C1804 C1806 1.391 . S
C1805 C1804 1.386 . S
C1805 C1809 1.393 . S
C1806 H1798 0.950 . S
C1806 C1804 1.391 . S
C1806 C1807 1.400 . S
C1807 C1806 1.400 . S
C1807 C1808 1.398 . S
C1807 C1813 1.491 . S
C1808 H1799 0.950 . S
C1808 C1807 1.398 . S
C1808 C1809 1.391 . S
C1809 H1797 0.950 . S
C1809 C1805 1.393 . S
C1809 C1808 1.391 . S
C1810 H1800 0.950 . S
C1810 C1811 1.386 . S
C1810 C1812 1.391 . S
C1811 C1810 1.386 . S
C1811 C1815 1.393 . S
C1812 H1801 0.950 . S
C1812 C1810 1.391 . S
C1812 C1813 1.400 . S
C1813 C1807 1.491 . S
C1813 C1812 1.400 . S
C1813 C1814 1.398 . S
C1814 H1802 0.950 . S
C1814 C1813 1.398 . S
C1814 C1815 1.391 . S
C1815 H1803 0.950 . S
C1815 C1811 1.393 . S
C1815 C1814 1.391 . S
H1816 C1824 0.950 . S
H1817 C1829 0.950 . S
H1818 C1826 0.950 . S
H1819 C1828 0.950 . S
H1820 C1830 0.950 . S
H1821 C1832 0.950 . S
H1822 C1834 0.950 . S
H1823 C1835 0.950 . S
C1824 H1816 0.950 . S
C1824 C1825 1.386 . S
C1824 C1826 1.391 . S
C1825 C1824 1.386 . S
C1825 C1829 1.393 . S
C1826 H1818 0.950 . S
C1826 C1824 1.391 . S
C1826 C1827 1.400 . S
C1827 C1826 1.400 . S
C1827 C1828 1.398 . S
C1827 C1833 1.491 . S
C1828 H1819 0.950 . S
C1828 C1827 1.398 . S
C1828 C1829 1.391 . S
C1829 H1817 0.950 . S
C1829 C1825 1.393 . S
C1829 C1828 1.391 . S
C1830 H1820 0.950 . S
C1830 C1831 1.386 . S
C1830 C1832 1.391 . S
C1831 C1830 1.386 . S
C1831 C1835 1.393 . S
C1832 H1821 0.950 . S
C1832 C1830 1.391 . S
C1832 C1833 1.400 . S
C1833 C1827 1.491 . S
C1833 C1832 1.400 . S
C1833 C1834 1.398 . S
C1834 H1822 0.950 . S
C1834 C1833 1.398 . S
C1834 C1835 1.391 . S
C1835 H1823 0.950 . S
C1835 C1831 1.393 . S
C1835 C1834 1.391 . S
H1836 C1844 0.950 1_455 S
H1837 C1849 0.950 . S
H1838 C1846 0.950 . S
H1839 C1848 0.950 . S
H1840 C1850 0.950 . S
H1841 C1852 0.950 . S
H1842 C1854 0.950 . S
H1843 C1855 0.950 . S
C1844 H1836 0.950 1_655 S
C1844 C1845 1.391 . S
C1844 C1846 1.391 . S
C1845 C1844 1.391 . S
C1845 C1849 1.413 . S
C1846 H1838 0.950 . S
C1846 C1844 1.391 . S
C1846 C1847 1.400 . S
C1847 C1846 1.400 . S
C1847 C1848 1.398 . S
C1847 C1853 1.491 . S
C1848 H1839 0.950 . S
C1848 C1847 1.398 . S
C1848 C1849 1.391 . S
C1849 H1837 0.950 . S
C1849 C1845 1.413 . S
C1849 C1848 1.391 . S
C1850 H1840 0.950 . S
C1850 C1851 1.386 . S
C1850 C1852 1.391 . S
C1851 C1850 1.386 . S
C1851 C1855 1.393 . S
C1852 H1841 0.950 . S
C1852 C1850 1.391 . S
C1852 C1853 1.400 . S
C1853 C1847 1.491 . S
C1853 C1852 1.400 . S
C1853 C1854 1.398 . S
C1854 H1842 0.950 . S
C1854 C1853 1.398 . S
C1854 C1855 1.391 . S
C1855 H1843 0.950 . S
C1855 C1851 1.393 . S
C1855 C1854 1.391 . S
H1856 C1864 0.950 . S
H1857 C1869 0.950 . S
H1858 C1866 0.950 . S
H1859 C1868 0.950 . S
H1860 C1870 0.950 . S
H1861 C1872 0.950 . S
H1862 C1874 0.950 . S
H1863 C1875 0.950 . S
C1864 H1856 0.950 . S
C1864 C1865 1.386 . S
C1864 C1866 1.391 . S
C1865 C1864 1.386 . S
C1865 C1869 1.393 . S
C1866 H1858 0.950 . S
C1866 C1864 1.391 . S
C1866 C1867 1.400 . S
C1867 C1866 1.400 . S
C1867 C1868 1.398 . S
C1867 C1873 1.491 . S
C1868 H1859 0.950 . S
C1868 C1867 1.398 . S
C1868 C1869 1.391 . S
C1869 H1857 0.950 . S
C1869 C1865 1.393 . S
C1869 C1868 1.391 . S
C1870 H1860 0.950 . S
C1870 C1871 1.386 . S
C1870 C1872 1.391 . S
C1871 C1870 1.386 . S
C1871 C1875 1.393 . S
C1872 H1861 0.950 . S
C1872 C1870 1.391 . S
C1872 C1873 1.400 . S
C1873 C1867 1.491 . S
C1873 C1872 1.400 . S
C1873 C1874 1.398 . S
C1874 H1862 0.950 . S
C1874 C1873 1.398 . S
C1874 C1875 1.391 . S
C1875 H1863 0.950 . S
C1875 C1871 1.393 . S
C1875 C1874 1.391 . S
H1876 C1884 0.950 . S
H1877 C1889 0.972 . S
H1878 C1886 0.950 . S
H1879 C1888 0.950 . S
H1880 C1890 0.950 . S
H1881 C1892 0.950 . S
H1882 C1894 0.950 . S
H1883 C1895 0.950 . S
C1884 H1876 0.950 . S
C1884 C1885 1.416 . S
C1884 C1886 1.391 . S
C1885 C1884 1.416 . S
C1885 C1889 1.391 1_455 S
C1886 H1878 0.950 . S
C1886 C1884 1.391 . S
C1886 C1887 1.400 . S
C1887 C1886 1.400 . S
C1887 C1888 1.398 . S
C1887 C1893 1.491 . S
C1888 H1879 0.950 . S
C1888 C1887 1.398 . S
C1888 C1889 1.370 1_455 S
C1889 H1877 0.972 . S
C1889 C1885 1.391 1_655 S
C1889 C1888 1.370 1_655 S
C1890 H1880 0.950 . S
C1890 C1891 1.386 . S
C1890 C1892 1.391 . S
C1891 C1890 1.386 . S
C1891 C1895 1.393 . S
C1892 H1881 0.950 . S
C1892 C1890 1.391 . S
C1892 C1893 1.400 . S
C1893 C1887 1.491 . S
C1893 C1892 1.400 . S
C1893 C1894 1.398 . S
C1894 H1882 0.950 . S
C1894 C1893 1.398 . S
C1894 C1895 1.391 . S
C1895 H1883 0.950 . S
C1895 C1891 1.393 . S
C1895 C1894 1.391 . S
H1896 C1904 0.950 . S
H1897 C1909 0.950 . S
H1898 C1906 0.950 . S
H1899 C1908 0.950 . S
H1900 C1910 0.950 . S
H1901 C1912 0.950 . S
H1902 C1914 0.950 . S
H1903 C1915 0.950 . S
C1904 H1896 0.950 . S
C1904 C1905 1.386 . S
C1904 C1906 1.391 . S
C1905 C1904 1.386 . S
C1905 C1909 1.393 . S
C1906 H1898 0.950 . S
C1906 C1904 1.391 . S
C1906 C1907 1.400 . S
C1907 C1906 1.400 . S
C1907 C1908 1.398 . S
C1907 C1913 1.491 . S
C1908 H1899 0.950 . S
C1908 C1907 1.398 . S
C1908 C1909 1.391 . S
C1909 H1897 0.950 . S
C1909 C1905 1.393 . S
C1909 C1908 1.391 . S
C1910 H1900 0.950 . S
C1910 C1911 1.386 . S
C1910 C1912 1.391 . S
C1911 C1910 1.386 . S
C1911 C1915 1.393 . S
C1912 H1901 0.950 . S
C1912 C1910 1.391 . S
C1912 C1913 1.400 . S
C1913 C1907 1.491 . S
C1913 C1912 1.400 . S
C1913 C1914 1.398 . S
C1914 H1902 0.950 . S
C1914 C1913 1.398 . S
C1914 C1915 1.391 . S
C1915 H1903 0.950 . S
C1915 C1911 1.393 . S
C1915 C1914 1.391 . S
H1916 C1924 0.950 . S
H1917 C1929 0.950 . S
H1918 C1926 0.950 . S
H1919 C1928 0.950 . S
H1920 C1930 0.950 . S
H1921 C1932 0.950 . S
H1922 C1934 0.950 . S
H1923 C1935 0.950 . S
C1924 H1916 0.950 . S
C1924 C1925 1.386 . S
C1924 C1926 1.391 . S
C1925 C1924 1.386 . S
C1925 C1929 1.393 . S
C1926 H1918 0.950 . S
C1926 C1924 1.391 . S
C1926 C1927 1.400 . S
C1927 C1926 1.400 . S
C1927 C1928 1.398 . S
C1927 C1933 1.491 . S
C1928 H1919 0.950 . S
C1928 C1927 1.398 . S
C1928 C1929 1.391 . S
C1929 H1917 0.950 . S
C1929 C1925 1.393 . S
C1929 C1928 1.391 . S
C1930 H1920 0.950 . S
C1930 C1931 1.386 . S
C1930 C1932 1.391 . S
C1931 C1930 1.386 . S
C1931 C1935 1.393 . S
C1932 H1921 0.950 . S
C1932 C1930 1.391 . S
C1932 C1933 1.400 . S
C1933 C1927 1.491 . S
C1933 C1932 1.400 . S
C1933 C1934 1.398 . S
C1934 H1922 0.950 . S
C1934 C1933 1.398 . S
C1934 C1935 1.391 . S
C1935 H1923 0.950 . S
C1935 C1931 1.393 . S
C1935 C1934 1.391 . S
H1936 C1944 0.950 . S
H1937 C1949 0.950 . S
H1938 C1946 0.950 . S
H1939 C1948 0.950 . S
H1940 C1950 0.950 . S
H1941 C1952 0.950 . S
H1942 C1954 0.950 . S
H1943 C1955 0.950 . S
C1944 H1936 0.950 . S
C1944 C1945 1.386 . S
C1944 C1946 1.391 . S
C1945 C1944 1.386 . S
C1945 C1949 1.393 . S
C1946 H1938 0.950 . S
C1946 C1944 1.391 . S
C1946 C1947 1.400 . S
C1947 C1946 1.400 . S
C1947 C1948 1.398 . S
C1947 C1953 1.491 . S
C1948 H1939 0.950 . S
C1948 C1947 1.398 . S
C1948 C1949 1.391 . S
C1949 H1937 0.950 . S
C1949 C1945 1.393 . S
C1949 C1948 1.391 . S
C1950 H1940 0.950 . S
C1950 C1951 1.386 . S
C1950 C1952 1.391 . S
C1951 C1950 1.386 . S
C1951 C1955 1.393 . S
C1952 H1941 0.950 . S
C1952 C1950 1.391 . S
C1952 C1953 1.400 . S
C1953 C1947 1.491 . S
C1953 C1952 1.400 . S
C1953 C1954 1.398 . S
C1954 H1942 0.950 . S
C1954 C1953 1.398 . S
C1954 C1955 1.391 . S
C1955 H1943 0.950 . S
C1955 C1951 1.393 . S
C1955 C1954 1.391 . S
H1956 C1964 0.950 . S
H1957 C1969 0.950 . S
H1958 C1966 0.950 . S
H1959 C1968 0.950 . S
H1960 C1970 0.950 . S
H1961 C1972 0.950 . S
H1962 C1974 0.950 . S
H1963 C1975 0.950 . S
C1964 H1956 0.950 . S
C1964 C1965 1.386 . S
C1964 C1966 1.391 . S
C1965 C1964 1.386 . S
C1965 C1969 1.393 . S
C1966 H1958 0.950 . S
C1966 C1964 1.391 . S
C1966 C1967 1.400 . S
C1967 C1966 1.400 . S
C1967 C1968 1.398 . S
C1967 C1973 1.491 . S
C1968 H1959 0.950 . S
C1968 C1967 1.398 . S
C1968 C1969 1.391 . S
C1969 H1957 0.950 . S
C1969 C1965 1.393 . S
C1969 C1968 1.391 . S
C1970 H1960 0.950 . S
C1970 C1971 1.386 . S
C1970 C1972 1.391 . S
C1971 C1970 1.386 . S
C1971 C1975 1.393 . S
C1972 H1961 0.950 . S
C1972 C1970 1.391 . S
C1972 C1973 1.400 . S
C1973 C1967 1.491 . S
C1973 C1972 1.400 . S
C1973 C1974 1.398 . S
C1974 H1962 0.950 . S
C1974 C1973 1.398 . S
C1974 C1975 1.391 . S
C1975 H1963 0.950 . S
C1975 C1971 1.393 . S
C1975 C1974 1.391 . S
H1976 C1984 0.950 . S
H1977 C1989 0.950 . S
H1978 C1986 0.950 . S
H1979 C1988 0.950 . S
H1980 C1990 0.950 . S
H1981 C1992 0.950 . S
H1982 C1994 0.950 . S
H1983 C1995 0.950 . S
C1984 H1976 0.950 . S
C1984 C1985 1.386 . S
C1984 C1986 1.391 . S
C1985 C1984 1.386 . S
C1985 C1989 1.393 . S
C1986 H1978 0.950 . S
C1986 C1984 1.391 . S
C1986 C1987 1.400 . S
C1987 C1986 1.400 . S
C1987 C1988 1.398 . S
C1987 C1993 1.491 . S
C1988 H1979 0.950 . S
C1988 C1987 1.398 . S
C1988 C1989 1.391 . S
C1989 H1977 0.950 . S
C1989 C1985 1.393 . S
C1989 C1988 1.391 . S
C1990 H1980 0.950 . S
C1990 C1991 1.386 . S
C1990 C1992 1.391 . S
C1991 C1990 1.386 . S
C1991 C1995 1.393 . S
C1992 H1981 0.950 . S
C1992 C1990 1.391 . S
C1992 C1993 1.400 . S
C1993 C1987 1.491 . S
C1993 C1992 1.400 . S
C1993 C1994 1.398 . S
C1994 H1982 0.950 . S
C1994 C1993 1.398 . S
C1994 C1995 1.391 . S
C1995 H1983 0.950 . S
C1995 C1991 1.393 . S
C1995 C1994 1.391 . S
H1996 C2004 0.950 . S
H1997 C2009 0.950 . S
H1998 C2006 0.950 . S
H1999 C2008 0.950 . S
H2000 C2010 0.943 1_655 S
H2001 C2012 0.950 . S
H2002 C2014 0.950 . S
H2003 C2015 0.950 . S
C2004 H1996 0.950 . S
C2004 C2005 1.386 . S
C2004 C2006 1.391 . S
C2005 C2004 1.386 . S
C2005 C2009 1.393 . S
C2006 H1998 0.950 . S
C2006 C2004 1.391 . S
C2006 C2007 1.400 . S
C2007 C2006 1.400 . S
C2007 C2008 1.398 . S
C2007 C2013 1.491 . S
C2008 H1999 0.950 . S
C2008 C2007 1.398 . S
C2008 C2009 1.391 . S
C2009 H1997 0.950 . S
C2009 C2005 1.393 . S
C2009 C2008 1.391 . S
C2010 H2000 0.943 1_455 S
C2010 C2011 1.385 . S
C2010 C2012 1.398 . S
C2011 C2010 1.385 . S
C2011 C2015 1.425 . S
C2012 H2001 0.950 . S
C2012 C2010 1.398 . S
C2012 C2013 1.400 . S
C2013 C2007 1.491 . S
C2013 C2012 1.400 . S
C2013 C2014 1.398 . S
C2014 H2002 0.950 . S
C2014 C2013 1.398 . S
C2014 C2015 1.391 . S
C2015 H2003 0.950 . S
C2015 C2011 1.425 . S
C2015 C2014 1.391 . S
H2016 C2024 0.950 . S
H2017 C2029 0.950 . S
H2018 C2026 0.950 . S
H2019 C2028 0.950 . S
H2020 C2030 0.950 . S
H2021 C2032 0.950 . S
H2022 C2034 0.950 . S
H2023 C2035 0.950 . S
C2024 H2016 0.950 . S
C2024 C2025 1.386 . S
C2024 C2026 1.391 . S
C2025 C2024 1.386 . S
C2025 C2029 1.393 . S
C2026 H2018 0.950 . S
C2026 C2024 1.391 . S
C2026 C2027 1.400 . S
C2027 C2026 1.400 . S
C2027 C2028 1.398 . S
C2027 C2033 1.491 . S
C2028 H2019 0.950 . S
C2028 C2027 1.398 . S
C2028 C2029 1.391 . S
C2029 H2017 0.950 . S
C2029 C2025 1.393 . S
C2029 C2028 1.391 . S
C2030 H2020 0.950 . S
C2030 C2031 1.386 . S
C2030 C2032 1.391 . S
C2031 C2030 1.386 . S
C2031 C2035 1.393 . S
C2032 H2021 0.950 . S
C2032 C2030 1.391 . S
C2032 C2033 1.400 . S
C2033 C2027 1.491 . S
C2033 C2032 1.400 . S
C2033 C2034 1.398 . S
C2034 H2022 0.950 . S
C2034 C2033 1.398 . S
C2034 C2035 1.391 . S
C2035 H2023 0.950 . S
C2035 C2031 1.393 . S
C2035 C2034 1.391 . S
H2036 C2044 0.950 . S
H2037 C2049 0.950 . S
H2038 C2046 0.950 . S
H2039 C2048 0.950 . S
H2040 C2050 0.950 . S
H2041 C2052 0.950 . S
H2042 C2054 0.950 . S
H2043 C2055 0.950 . S
C2044 H2036 0.950 . S
C2044 C2045 1.386 . S
C2044 C2046 1.391 . S
C2045 C2044 1.386 . S
C2045 C2049 1.393 . S
C2046 H2038 0.950 . S
C2046 C2044 1.391 . S
C2046 C2047 1.400 . S
C2047 C2046 1.400 . S
C2047 C2048 1.398 . S
C2047 C2053 1.491 . S
C2048 H2039 0.950 . S
C2048 C2047 1.398 . S
C2048 C2049 1.391 . S
C2049 H2037 0.950 . S
C2049 C2045 1.393 . S
C2049 C2048 1.391 . S
C2050 H2040 0.950 . S
C2050 C2051 1.386 . S
C2050 C2052 1.391 . S
C2051 C2050 1.386 . S
C2051 C2055 1.393 . S
C2052 H2041 0.950 . S
C2052 C2050 1.391 . S
C2052 C2053 1.400 . S
C2053 C2047 1.491 . S
C2053 C2052 1.400 . S
C2053 C2054 1.398 . S
C2054 H2042 0.950 . S
C2054 C2053 1.398 . S
C2054 C2055 1.391 . S
C2055 H2043 0.950 . S
C2055 C2051 1.393 . S
C2055 C2054 1.391 . S
H2056 C2064 0.950 . S
H2057 C2069 0.950 . S
H2058 C2066 0.950 . S
H2059 C2068 0.950 . S
H2060 C2070 0.950 . S
H2061 C2072 0.950 . S
H2062 C2074 0.950 . S
H2063 C2075 0.950 . S
C2064 H2056 0.950 . S
C2064 C2065 1.386 . S
C2064 C2066 1.391 . S
C2065 C2064 1.386 . S
C2065 C2069 1.393 . S
C2066 H2058 0.950 . S
C2066 C2064 1.391 . S
C2066 C2067 1.400 . S
C2067 C2066 1.400 . S
C2067 C2068 1.398 . S
C2067 C2073 1.491 . S
C2068 H2059 0.950 . S
C2068 C2067 1.398 . S
C2068 C2069 1.391 . S
C2069 H2057 0.950 . S
C2069 C2065 1.393 . S
C2069 C2068 1.391 . S
C2070 H2060 0.950 . S
C2070 C2071 1.386 . S
C2070 C2072 1.391 . S
C2071 C2070 1.386 . S
C2071 C2075 1.393 . S
C2072 H2061 0.950 . S
C2072 C2070 1.391 . S
C2072 C2073 1.400 . S
C2073 C2067 1.491 . S
C2073 C2072 1.400 . S
C2073 C2074 1.398 . S
C2074 H2062 0.950 . S
C2074 C2073 1.398 . S
C2074 C2075 1.391 . S
C2075 H2063 0.950 . S
C2075 C2071 1.393 . S
C2075 C2074 1.391 . S
H2076 C2084 0.977 . S
H2077 C2089 0.950 . S
H2078 C2086 0.950 . S
H2079 C2088 0.950 . S
H2080 C2090 0.950 . S
H2081 C2092 0.950 . S
H2082 C2094 0.950 . S
H2083 C2095 0.950 . S
C2084 H2076 0.977 . S
C2084 C2085 1.383 1_655 S
C2084 C2086 1.367 1_655 S
C2085 C2084 1.383 1_455 S
C2085 C2089 1.393 . S
C2086 H2078 0.950 . S
C2086 C2084 1.367 1_455 S
C2086 C2087 1.400 . S
C2087 C2086 1.400 . S
C2087 C2088 1.398 . S
C2087 C2093 1.491 . S
C2088 H2079 0.950 . S
C2088 C2087 1.398 . S
C2088 C2089 1.391 . S
C2089 H2077 0.950 . S
C2089 C2085 1.393 . S
C2089 C2088 1.391 . S
C2090 H2080 0.950 . S
C2090 C2091 1.386 . S
C2090 C2092 1.391 . S
C2091 C2090 1.386 . S
C2091 C2095 1.393 . S
C2092 H2081 0.950 . S
C2092 C2090 1.391 . S
C2092 C2093 1.400 . S
C2093 C2087 1.491 . S
C2093 C2092 1.400 . S
C2093 C2094 1.398 . S
C2094 H2082 0.950 . S
C2094 C2093 1.398 . S
C2094 C2095 1.391 . S
C2095 H2083 0.950 . S
C2095 C2091 1.393 . S
C2095 C2094 1.391 . S
H2096 C2104 0.950 . S
H2097 C2109 0.950 . S
H2098 C2106 0.950 . S
H2099 C2108 0.950 . S
H2100 C2110 0.950 . S
H2101 C2112 0.950 . S
H2102 C2114 0.950 . S
H2103 C2115 0.950 . S
C2104 H2096 0.950 . S
C2104 C2105 1.386 . S
C2104 C2106 1.391 . S
C2105 C2104 1.386 . S
C2105 C2109 1.393 . S
C2106 H2098 0.950 . S
C2106 C2104 1.391 . S
C2106 C2107 1.400 . S
C2107 C2106 1.400 . S
C2107 C2108 1.398 . S
C2107 C2113 1.491 . S
C2108 H2099 0.950 . S
C2108 C2107 1.398 . S
C2108 C2109 1.391 . S
C2109 H2097 0.950 . S
C2109 C2105 1.393 . S
C2109 C2108 1.391 . S
C2110 H2100 0.950 . S
C2110 C2111 1.386 . S
C2110 C2112 1.391 . S
C2111 C2110 1.386 . S
C2111 C2115 1.393 . S
C2112 H2101 0.950 . S
C2112 C2110 1.391 . S
C2112 C2113 1.400 . S
C2113 C2107 1.491 . S
C2113 C2112 1.400 . S
C2113 C2114 1.398 . S
C2114 H2102 0.950 . S
C2114 C2113 1.398 . S
C2114 C2115 1.391 . S
C2115 H2103 0.950 . S
C2115 C2111 1.393 . S
C2115 C2114 1.391 . S
H2116 C2124 0.950 . S
H2117 C2129 0.950 . S
H2118 C2126 0.950 . S
H2119 C2128 0.950 . S
H2120 C2130 0.950 . S
H2121 C2132 0.950 . S
H2122 C2134 0.950 . S
H2123 C2135 0.950 . S
C2124 H2116 0.950 . S
C2124 C2125 1.386 . S
C2124 C2126 1.391 . S
C2125 C2124 1.386 . S
C2125 C2129 1.393 . S
C2126 H2118 0.950 . S
C2126 C2124 1.391 . S
C2126 C2127 1.400 . S
C2127 C2126 1.400 . S
C2127 C2128 1.398 . S
C2127 C2133 1.491 . S
C2128 H2119 0.950 . S
C2128 C2127 1.398 . S
C2128 C2129 1.391 . S
C2129 H2117 0.950 . S
C2129 C2125 1.393 . S
C2129 C2128 1.391 . S
C2130 H2120 0.950 . S
C2130 C2131 1.386 1_655 S
C2130 C2132 1.391 1_655 S
C2131 C2130 1.386 1_455 S
C2131 C2135 1.393 . S
C2132 H2121 0.950 . S
C2132 C2130 1.391 1_455 S
C2132 C2133 1.400 . S
C2133 C2127 1.491 . S
C2133 C2132 1.400 . S
C2133 C2134 1.398 . S
C2134 H2122 0.950 . S
C2134 C2133 1.398 . S
C2134 C2135 1.391 . S
C2135 H2123 0.950 . S
C2135 C2131 1.393 . S
C2135 C2134 1.391 . S
H2136 C2144 0.950 . S
H2137 C2149 0.950 . S
H2138 C2146 0.950 . S
H2139 C2148 0.950 . S
H2140 C2150 0.950 . S
H2141 C2152 0.950 . S
H2142 C2154 0.950 . S
H2143 C2155 0.950 . S
C2144 H2136 0.950 . S
C2144 C2145 1.386 . S
C2144 C2146 1.391 . S
C2145 C2144 1.386 . S
C2145 C2149 1.393 . S
C2146 H2138 0.950 . S
C2146 C2144 1.391 . S
C2146 C2147 1.400 . S
C2147 C2146 1.400 . S
C2147 C2148 1.398 . S
C2147 C2153 1.491 . S
C2148 H2139 0.950 . S
C2148 C2147 1.398 . S
C2148 C2149 1.391 . S
C2149 H2137 0.950 . S
C2149 C2145 1.393 . S
C2149 C2148 1.391 . S
C2150 H2140 0.950 . S
C2150 C2151 1.386 . S
C2150 C2152 1.391 . S
C2151 C2150 1.386 . S
C2151 C2155 1.393 . S
C2152 H2141 0.950 . S
C2152 C2150 1.391 . S
C2152 C2153 1.400 . S
C2153 C2147 1.491 . S
C2153 C2152 1.400 . S
C2153 C2154 1.398 . S
C2154 H2142 0.950 . S
C2154 C2153 1.398 . S
C2154 C2155 1.391 . S
C2155 H2143 0.950 . S
C2155 C2151 1.393 . S
C2155 C2154 1.391 . S
H2156 C2164 0.950 . S
H2157 C2169 0.950 . S
H2158 C2166 0.950 . S
H2159 C2168 0.950 . S
H2160 C2170 0.950 . S
H2161 C2172 0.950 . S
H2162 C2174 0.950 . S
H2163 C2175 0.950 . S
C2164 H2156 0.950 . S
C2164 C2165 1.386 . S
C2164 C2166 1.391 . S
C2165 C2164 1.386 . S
C2165 C2169 1.393 . S
C2166 H2158 0.950 . S
C2166 C2164 1.391 . S
C2166 C2167 1.400 . S
C2167 C2166 1.400 . S
C2167 C2168 1.398 . S
C2167 C2173 1.491 . S
C2168 H2159 0.950 . S
C2168 C2167 1.398 . S
C2168 C2169 1.391 . S
C2169 H2157 0.950 . S
C2169 C2165 1.393 . S
C2169 C2168 1.391 . S
C2170 H2160 0.950 . S
C2170 C2171 1.386 . S
C2170 C2172 1.391 . S
C2171 C2170 1.386 . S
C2171 C2175 1.393 . S
C2172 H2161 0.950 . S
C2172 C2170 1.391 . S
C2172 C2173 1.400 . S
C2173 C2167 1.491 . S
C2173 C2172 1.400 . S
C2173 C2174 1.398 . S
C2174 H2162 0.950 . S
C2174 C2173 1.398 . S
C2174 C2175 1.391 . S
C2175 H2163 0.950 . S
C2175 C2171 1.393 . S
C2175 C2174 1.391 . S
H2176 C2184 0.950 . S
H2177 C2189 0.950 . S
H2178 C2186 0.950 . S
H2179 C2188 0.950 . S
H2180 C2190 0.950 . S
H2181 C2192 0.950 . S
H2182 C2194 0.950 . S
H2183 C2195 0.950 . S
C2184 H2176 0.950 . S
C2184 C2185 1.386 . S
C2184 C2186 1.391 . S
C2185 C2184 1.386 . S
C2185 C2189 1.393 . S
C2186 H2178 0.950 . S
C2186 C2184 1.391 . S
C2186 C2187 1.400 . S
C2187 C2186 1.400 . S
C2187 C2188 1.398 . S
C2187 C2193 1.491 . S
C2188 H2179 0.950 . S
C2188 C2187 1.398 . S
C2188 C2189 1.391 . S
C2189 H2177 0.950 . S
C2189 C2185 1.393 . S
C2189 C2188 1.391 . S
C2190 H2180 0.950 . S
C2190 C2191 1.386 . S
C2190 C2192 1.391 . S
C2191 C2190 1.386 . S
C2191 C2195 1.393 . S
C2192 H2181 0.950 . S
C2192 C2190 1.391 . S
C2192 C2193 1.400 . S
C2193 C2187 1.491 . S
C2193 C2192 1.400 . S
C2193 C2194 1.398 . S
C2194 H2182 0.950 . S
C2194 C2193 1.398 . S
C2194 C2195 1.391 . S
C2195 H2183 0.950 . S
C2195 C2191 1.393 . S
C2195 C2194 1.391 . S
H2196 C2204 0.950 . S
H2197 C2209 0.950 . S
H2198 C2206 0.950 . S
H2199 C2208 0.950 . S
H2200 C2210 0.950 . S
H2201 C2212 0.950 . S
H2202 C2214 0.950 . S
H2203 C2215 0.950 . S
C2204 H2196 0.950 . S
C2204 C2205 1.386 . S
C2204 C2206 1.391 . S
C2205 C2204 1.386 . S
C2205 C2209 1.393 . S
C2206 H2198 0.950 . S
C2206 C2204 1.391 . S
C2206 C2207 1.400 . S
C2207 C2206 1.400 . S
C2207 C2208 1.398 . S
C2207 C2213 1.491 . S
C2208 H2199 0.950 . S
C2208 C2207 1.398 . S
C2208 C2209 1.391 . S
C2209 H2197 0.950 . S
C2209 C2205 1.393 . S
C2209 C2208 1.391 . S
C2210 H2200 0.950 . S
C2210 C2211 1.386 . S
C2210 C2212 1.391 . S
C2211 C2210 1.386 . S
C2211 C2215 1.393 . S
C2212 H2201 0.950 . S
C2212 C2210 1.391 . S
C2212 C2213 1.400 . S
C2213 C2207 1.491 . S
C2213 C2212 1.400 . S
C2213 C2214 1.398 . S
C2214 H2202 0.950 . S
C2214 C2213 1.398 . S
C2214 C2215 1.391 . S
C2215 H2203 0.950 . S
C2215 C2211 1.393 . S
C2215 C2214 1.391 . S
H2216 C2224 0.950 . S
H2217 C2229 0.950 . S
H2218 C2226 0.950 . S
H2219 C2228 0.950 . S
H2220 C2230 0.950 . S
H2221 C2232 0.950 . S
H2222 C2234 0.950 . S
H2223 C2235 0.950 . S
C2224 H2216 0.950 . S
C2224 C2225 1.386 . S
C2224 C2226 1.391 . S
C2225 C2224 1.386 . S
C2225 C2229 1.393 . S
C2226 H2218 0.950 . S
C2226 C2224 1.391 . S
C2226 C2227 1.400 . S
C2227 C2226 1.400 . S
C2227 C2228 1.398 . S
C2227 C2233 1.491 . S
C2228 H2219 0.950 . S
C2228 C2227 1.398 . S
C2228 C2229 1.391 . S
C2229 H2217 0.950 . S
C2229 C2225 1.393 . S
C2229 C2228 1.391 . S
C2230 H2220 0.950 . S
C2230 C2231 1.386 . S
C2230 C2232 1.391 . S
C2231 C2230 1.386 . S
C2231 C2235 1.393 . S
C2232 H2221 0.950 . S
C2232 C2230 1.391 . S
C2232 C2233 1.400 . S
C2233 C2227 1.491 . S
C2233 C2232 1.400 . S
C2233 C2234 1.398 . S
C2234 H2222 0.950 . S
C2234 C2233 1.398 . S
C2234 C2235 1.391 . S
C2235 H2223 0.950 . S
C2235 C2231 1.393 . S
C2235 C2234 1.391 . S
H2236 C2244 0.950 . S
H2237 C2249 0.950 . S
H2238 C2246 0.950 . S
H2239 C2248 0.950 . S
H2240 C2250 0.950 . S
H2241 C2252 0.950 . S
H2242 C2254 0.950 . S
H2243 C2255 0.950 1_455 S
C2244 H2236 0.950 . S
C2244 C2245 1.386 . S
C2244 C2246 1.391 . S
C2245 C2244 1.386 . S
C2245 C2249 1.393 . S
C2246 H2238 0.950 . S
C2246 C2244 1.391 . S
C2246 C2247 1.400 . S
C2247 C2246 1.400 . S
C2247 C2248 1.398 . S
C2247 C2253 1.491 . S
C2248 H2239 0.950 . S
C2248 C2247 1.398 . S
C2248 C2249 1.391 . S
C2249 H2237 0.950 . S
C2249 C2245 1.393 . S
C2249 C2248 1.391 . S
C2250 H2240 0.950 . S
C2250 C2251 1.386 . S
C2250 C2252 1.391 . S
C2251 C2250 1.386 . S
C2251 C2255 1.393 . S
C2252 H2241 0.950 . S
C2252 C2250 1.391 . S
C2252 C2253 1.400 . S
C2253 C2247 1.491 . S
C2253 C2252 1.400 . S
C2253 C2254 1.398 . S
C2254 H2242 0.950 . S
C2254 C2253 1.398 . S
C2254 C2255 1.391 . S
C2255 H2243 0.950 1_655 S
C2255 C2251 1.393 . S
C2255 C2254 1.391 . S
H2256 C2264 0.950 . S
H2257 C2269 0.950 . S
H2258 C2266 0.950 . S
H2259 C2268 0.950 . S
H2260 C2270 0.950 . S
H2261 C2272 0.950 . S
H2262 C2274 0.950 . S
H2263 C2275 0.950 . S
C2264 H2256 0.950 . S
C2264 C2265 1.386 . S
C2264 C2266 1.391 . S
C2265 C2264 1.386 . S
C2265 C2269 1.393 . S
C2266 H2258 0.950 . S
C2266 C2264 1.391 . S
C2266 C2267 1.400 . S
C2267 C2266 1.400 . S
C2267 C2268 1.398 . S
C2267 C2273 1.491 . S
C2268 H2259 0.950 . S
C2268 C2267 1.398 . S
C2268 C2269 1.391 . S
C2269 H2257 0.950 . S
C2269 C2265 1.393 . S
C2269 C2268 1.391 . S
C2270 H2260 0.950 . S
C2270 C2271 1.386 . S
C2270 C2272 1.391 . S
C2271 C2270 1.386 . S
C2271 C2275 1.393 . S
C2272 H2261 0.950 . S
C2272 C2270 1.391 . S
C2272 C2273 1.400 . S
C2273 C2267 1.491 . S
C2273 C2272 1.400 . S
C2273 C2274 1.398 . S
C2274 H2262 0.950 . S
C2274 C2273 1.398 . S
C2274 C2275 1.391 . S
C2275 H2263 0.950 . S
C2275 C2271 1.393 . S
C2275 C2274 1.391 . S
H2276 C2284 0.950 . S
H2277 C2289 0.950 . S
H2278 C2286 0.950 . S
H2279 C2288 0.950 . S
H2280 C2290 0.950 . S
H2281 C2292 0.950 . S
H2282 C2294 0.950 . S
H2283 C2295 0.950 . S
C2284 H2276 0.950 . S
C2284 C2285 1.386 . S
C2284 C2286 1.391 . S
C2285 C2284 1.386 . S
C2285 C2289 1.393 . S
C2286 H2278 0.950 . S
C2286 C2284 1.391 . S
C2286 C2287 1.400 . S
C2287 C2286 1.400 . S
C2287 C2288 1.398 . S
C2287 C2293 1.491 . S
C2288 H2279 0.950 . S
C2288 C2287 1.398 . S
C2288 C2289 1.391 . S
C2289 H2277 0.950 . S
C2289 C2285 1.393 . S
C2289 C2288 1.391 . S
C2290 H2280 0.950 . S
C2290 C2291 1.386 . S
C2290 C2292 1.391 . S
C2291 C2290 1.386 . S
C2291 C2295 1.393 1_655 S
C2292 H2281 0.950 . S
C2292 C2290 1.391 . S
C2292 C2293 1.400 . S
C2293 C2287 1.491 . S
C2293 C2292 1.400 . S
C2293 C2294 1.398 . S
C2294 H2282 0.950 . S
C2294 C2293 1.398 . S
C2294 C2295 1.391 1_655 S
C2295 H2283 0.950 . S
C2295 C2291 1.393 1_455 S
C2295 C2294 1.391 1_455 S
H2296 C2304 0.950 . S
H2297 C2309 0.950 . S
H2298 C2306 0.950 . S
H2299 C2308 0.950 . S
H2300 C2310 0.950 . S
H2301 C2312 0.950 . S
H2302 C2314 0.950 . S
H2303 C2315 0.950 . S
C2304 H2296 0.950 . S
C2304 C2305 1.386 . S
C2304 C2306 1.391 . S
C2305 C2304 1.386 . S
C2305 C2309 1.393 . S
C2306 H2298 0.950 . S
C2306 C2304 1.391 . S
C2306 C2307 1.400 . S
C2307 C2306 1.400 . S
C2307 C2308 1.398 . S
C2307 C2313 1.491 . S
C2308 H2299 0.950 . S
C2308 C2307 1.398 . S
C2308 C2309 1.391 . S
C2309 H2297 0.950 . S
C2309 C2305 1.393 . S
C2309 C2308 1.391 . S
C2310 H2300 0.950 . S
C2310 C2311 1.386 . S
C2310 C2312 1.391 . S
C2311 C2310 1.386 . S
C2311 C2315 1.393 . S
C2312 H2301 0.950 . S
C2312 C2310 1.391 . S
C2312 C2313 1.400 . S
C2313 C2307 1.491 . S
C2313 C2312 1.400 . S
C2313 C2314 1.398 . S
C2314 H2302 0.950 . S
C2314 C2313 1.398 . S
C2314 C2315 1.391 . S
C2315 H2303 0.950 . S
C2315 C2311 1.393 . S
C2315 C2314 1.391 . S
H2316 C2324 0.950 . S
H2317 C2329 0.950 . S
H2318 C2326 0.950 . S
H2319 C2328 0.950 . S
H2320 C2330 0.950 . S
H2321 C2332 0.950 . S
H2322 C2334 0.950 . S
H2323 C2335 0.950 . S
C2324 H2316 0.950 . S
C2324 C2325 1.386 . S
C2324 C2326 1.391 . S
C2325 C2324 1.386 . S
C2325 C2329 1.393 . S
C2326 H2318 0.950 . S
C2326 C2324 1.391 . S
C2326 C2327 1.400 . S
C2327 C2326 1.400 . S
C2327 C2328 1.398 . S
C2327 C2333 1.491 . S
C2328 H2319 0.950 . S
C2328 C2327 1.398 . S
C2328 C2329 1.391 . S
C2329 H2317 0.950 . S
C2329 C2325 1.393 . S
C2329 C2328 1.391 . S
C2330 H2320 0.950 . S
C2330 C2331 1.386 . S
C2330 C2332 1.391 . S
C2331 C2330 1.386 . S
C2331 C2335 1.393 . S
C2332 H2321 0.950 . S
C2332 C2330 1.391 . S
C2332 C2333 1.400 . S
C2333 C2327 1.491 . S
C2333 C2332 1.400 . S
C2333 C2334 1.398 . S
C2334 H2322 0.950 . S
C2334 C2333 1.398 . S
C2334 C2335 1.391 . S
C2335 H2323 0.950 . S
C2335 C2331 1.393 . S
C2335 C2334 1.391 . S
H2336 C2344 0.950 . S
H2337 C2349 0.950 . S
H2338 C2346 0.950 . S
H2339 C2348 0.950 . S
H2340 C2350 0.950 . S
H2341 C2352 0.950 . S
H2342 C2354 0.950 . S
H2343 C2355 0.950 . S
C2344 H2336 0.950 . S
C2344 C2345 1.386 . S
C2344 C2346 1.391 . S
C2345 C2344 1.386 . S
C2345 C2349 1.393 . S
C2346 H2338 0.950 . S
C2346 C2344 1.391 . S
C2346 C2347 1.400 . S
C2347 C2346 1.400 . S
C2347 C2348 1.398 . S
C2347 C2353 1.491 . S
C2348 H2339 0.950 . S
C2348 C2347 1.398 . S
C2348 C2349 1.391 . S
C2349 H2337 0.950 . S
C2349 C2345 1.393 . S
C2349 C2348 1.391 . S
C2350 H2340 0.950 . S
C2350 C2351 1.386 . S
C2350 C2352 1.391 . S
C2351 C2350 1.386 . S
C2351 C2355 1.393 . S
C2352 H2341 0.950 . S
C2352 C2350 1.391 . S
C2352 C2353 1.400 . S
C2353 C2347 1.491 . S
C2353 C2352 1.400 . S
C2353 C2354 1.398 . S
C2354 H2342 0.950 . S
C2354 C2353 1.398 . S
C2354 C2355 1.391 . S
C2355 H2343 0.950 . S
C2355 C2351 1.393 . S
C2355 C2354 1.391 . S
H2356 C2364 0.950 . S
H2357 C2369 0.950 . S
H2358 C2366 0.962 . S
H2359 C2368 0.950 1_655 S
H2360 C2370 0.950 . S
H2361 C2372 0.962 . S
H2362 C2374 0.950 1_455 S
H2363 C2375 0.950 . S
C2364 H2356 0.950 . S
C2364 C2365 1.386 . S
C2364 C2366 1.391 . S
C2365 C2364 1.386 . S
C2365 C2369 1.393 . S
C2366 H2358 0.962 . S
C2366 C2364 1.391 . S
C2366 C2367 1.400 . S
C2367 C2366 1.400 . S
C2367 C2368 1.398 . S
C2367 C2373 1.491 1_465 S
C2368 H2359 0.950 1_455 S
C2368 C2367 1.398 . S
C2368 C2369 1.391 . S
C2369 H2357 0.950 . S
C2369 C2365 1.393 . S
C2369 C2368 1.391 . S
C2370 H2360 0.950 . S
C2370 C2371 1.386 . S
C2370 C2372 1.391 . S
C2371 C2370 1.386 . S
C2371 C2375 1.393 . S
C2372 H2361 0.962 . S
C2372 C2370 1.391 . S
C2372 C2373 1.400 . S
C2373 C2367 1.491 1_645 S
C2373 C2372 1.400 . S
C2373 C2374 1.398 . S
C2374 H2362 0.950 1_655 S
C2374 C2373 1.398 . S
C2374 C2375 1.391 . S
C2375 H2363 0.950 . S
C2375 C2371 1.393 . S
C2375 C2374 1.391 . S
H2376 C2384 0.950 . S
H2377 C2389 0.950 . S
H2378 C2386 0.950 . S
H2379 C2388 0.950 . S
H2380 C2390 0.950 . S
H2381 C2392 0.950 . S
H2382 C2394 0.950 . S
H2383 C2395 0.950 . S
C2384 H2376 0.950 . S
C2384 C2385 1.386 . S
C2384 C2386 1.391 . S
C2385 C2384 1.386 . S
C2385 C2389 1.393 . S
C2386 H2378 0.950 . S
C2386 C2384 1.391 . S
C2386 C2387 1.400 . S
C2387 C2386 1.400 . S
C2387 C2388 1.398 . S
C2387 C2393 1.491 . S
C2388 H2379 0.950 . S
C2388 C2387 1.398 . S
C2388 C2389 1.391 . S
C2389 H2377 0.950 . S
C2389 C2385 1.393 . S
C2389 C2388 1.391 . S
C2390 H2380 0.950 . S
C2390 C2391 1.386 . S
C2390 C2392 1.391 . S
C2391 C2390 1.386 . S
C2391 C2395 1.393 . S
C2392 H2381 0.950 . S
C2392 C2390 1.391 . S
C2392 C2393 1.400 . S
C2393 C2387 1.491 . S
C2393 C2392 1.400 . S
C2393 C2394 1.398 . S
C2394 H2382 0.950 . S
C2394 C2393 1.398 . S
C2394 C2395 1.391 . S
C2395 H2383 0.950 . S
C2395 C2391 1.393 . S
C2395 C2394 1.391 . S
H2396 C2404 0.950 . S
H2397 C2409 0.951 . S
H2398 C2406 0.950 1_545 S
H2399 C2408 0.954 . S
H2400 C2410 0.950 . S
H2401 C2412 0.950 1_565 S
H2402 C2414 0.954 . S
H2403 C2415 0.951 . S
C2404 H2396 0.950 . S
C2404 C2405 1.386 . S
C2404 C2406 1.391 . S
C2405 C2404 1.386 . S
C2405 C2409 1.393 . S
C2406 H2398 0.950 1_565 S
C2406 C2404 1.391 . S
C2406 C2407 1.400 . S
C2407 C2406 1.400 . S
C2407 C2408 1.397 1_556 S
C2407 C2413 1.491 1_566 S
C2408 H2399 0.954 . S
C2408 C2407 1.397 1_554 S
C2408 C2409 1.389 1_554 S
C2409 H2397 0.951 . S
C2409 C2405 1.393 . S
C2409 C2408 1.389 1_556 S
C2410 H2400 0.950 . S
C2410 C2411 1.386 . S
C2410 C2412 1.391 . S
C2411 C2410 1.386 . S
C2411 C2415 1.393 . S
C2412 H2401 0.950 1_545 S
C2412 C2410 1.391 . S
C2412 C2413 1.400 . S
C2413 C2407 1.491 1_544 S
C2413 C2412 1.400 . S
C2413 C2414 1.397 1_554 S
C2414 H2402 0.954 . S
C2414 C2413 1.397 1_556 S
C2414 C2415 1.389 1_556 S
C2415 H2403 0.951 . S
C2415 C2411 1.393 . S
C2415 C2414 1.389 1_554 S
H2416 C2424 0.950 . S
H2417 C2429 0.950 . S
H2418 C2426 0.950 . S
H2419 C2428 0.950 . S
H2420 C2430 0.950 . S
H2421 C2432 0.950 . S
H2422 C2434 0.950 . S
H2423 C2435 0.950 . S
C2424 H2416 0.950 . S
C2424 C2425 1.386 . S
C2424 C2426 1.391 . S
C2425 C2424 1.386 . S
C2425 C2429 1.393 . S
C2426 H2418 0.950 . S
C2426 C2424 1.391 . S
C2426 C2427 1.400 . S
C2427 C2426 1.400 . S
C2427 C2428 1.398 . S
C2427 C2433 1.491 . S
C2428 H2419 0.950 . S
C2428 C2427 1.398 . S
C2428 C2429 1.391 . S
C2429 H2417 0.950 . S
C2429 C2425 1.393 . S
C2429 C2428 1.391 . S
C2430 H2420 0.950 . S
C2430 C2431 1.386 . S
C2430 C2432 1.391 . S
C2431 C2430 1.386 . S
C2431 C2435 1.393 . S
C2432 H2421 0.950 . S
C2432 C2430 1.391 . S
C2432 C2433 1.400 . S
C2433 C2427 1.491 . S
C2433 C2432 1.400 . S
C2433 C2434 1.398 . S
C2434 H2422 0.950 . S
C2434 C2433 1.398 . S
C2434 C2435 1.391 . S
C2435 H2423 0.950 . S
C2435 C2431 1.393 . S
C2435 C2434 1.391 . S
H2436 C2444 0.950 . S
H2437 C2449 0.950 . S
H2438 C2446 0.950 1_565 S
H2439 C2448 0.950 . S
H2440 C2450 0.950 . S
H2441 C2452 0.950 1_545 S
H2442 C2454 0.950 . S
H2443 C2455 0.950 . S
C2444 H2436 0.950 . S
C2444 C2445 1.386 . S
C2444 C2446 1.391 . S
C2445 C2444 1.386 . S
C2445 C2449 1.393 . S
C2446 H2438 0.950 1_545 S
C2446 C2444 1.391 . S
C2446 C2447 1.400 . S
C2447 C2446 1.400 . S
C2447 C2448 1.398 . S
C2447 C2453 1.491 1_545 S
C2448 H2439 0.950 . S
C2448 C2447 1.398 . S
C2448 C2449 1.391 . S
C2449 H2437 0.950 . S
C2449 C2445 1.393 . S
C2449 C2448 1.391 . S
C2450 H2440 0.950 . S
C2450 C2451 1.386 . S
C2450 C2452 1.391 . S
C2451 C2450 1.386 . S
C2451 C2455 1.393 . S
C2452 H2441 0.950 1_565 S
C2452 C2450 1.391 . S
C2452 C2453 1.400 . S
C2453 C2447 1.491 1_565 S
C2453 C2452 1.400 . S
C2453 C2454 1.398 . S
C2454 H2442 0.950 . S
C2454 C2453 1.398 . S
C2454 C2455 1.391 . S
C2455 H2443 0.950 . S
C2455 C2451 1.393 . S
C2455 C2454 1.391 . S
H2456 C2464 0.950 . S
H2457 C2469 0.950 . S
H2458 C2466 0.950 . S
H2459 C2468 0.950 . S
H2460 C2470 0.950 . S
H2461 C2472 0.950 . S
H2462 C2474 0.950 . S
H2463 C2475 0.950 . S
C2464 H2456 0.950 . S
C2464 C2465 1.386 . S
C2464 C2466 1.391 . S
C2465 C2464 1.386 . S
C2465 C2469 1.393 . S
C2466 H2458 0.950 . S
C2466 C2464 1.391 . S
C2466 C2467 1.400 . S
C2467 C2466 1.400 . S
C2467 C2468 1.398 . S
C2467 C2473 1.491 . S
C2468 H2459 0.950 . S
C2468 C2467 1.398 . S
C2468 C2469 1.391 . S
C2469 H2457 0.950 . S
C2469 C2465 1.393 . S
C2469 C2468 1.391 . S
C2470 H2460 0.950 . S
C2470 C2471 1.386 . S
C2470 C2472 1.391 . S
C2471 C2470 1.386 . S
C2471 C2475 1.393 . S
C2472 H2461 0.950 . S
C2472 C2470 1.391 . S
C2472 C2473 1.400 . S
C2473 C2467 1.491 . S
C2473 C2472 1.400 . S
C2473 C2474 1.398 . S
C2474 H2462 0.950 . S
C2474 C2473 1.398 . S
C2474 C2475 1.391 . S
C2475 H2463 0.950 . S
C2475 C2471 1.393 . S
C2475 C2474 1.391 . S
H2476 C2484 0.950 . S
H2477 C2489 0.950 . S
H2478 C2486 0.950 1_455 S
H2479 C2488 0.950 1_545 S
H2480 C2490 0.950 . S
H2481 C2492 0.950 1_655 S
H2482 C2494 0.950 1_565 S
H2483 C2495 0.950 . S
C2484 H2476 0.950 . S
C2484 C2485 1.386 1_556 S
C2484 C2486 1.391 . S
C2485 C2484 1.386 1_554 S
C2485 C2489 1.393 . S
C2486 H2478 0.950 1_655 S
C2486 C2484 1.391 . S
C2486 C2487 1.400 1_556 S
C2487 C2486 1.400 1_554 S
C2487 C2488 1.398 . S
C2487 C2493 1.491 1_664 S
C2488 H2479 0.950 1_565 S
C2488 C2487 1.398 . S
C2488 C2489 1.391 . S
C2489 H2477 0.950 . S
C2489 C2485 1.393 . S
C2489 C2488 1.391 . S
C2490 H2480 0.950 . S
C2490 C2491 1.386 1_554 S
C2490 C2492 1.391 . S
C2491 C2490 1.386 1_556 S
C2491 C2495 1.393 . S
C2492 H2481 0.950 1_455 S
C2492 C2490 1.391 . S
C2492 C2493 1.400 1_554 S
C2493 C2487 1.491 1_446 S
C2493 C2492 1.400 1_556 S
C2493 C2494 1.398 . S
C2494 H2482 0.950 1_545 S
C2494 C2493 1.398 . S
C2494 C2495 1.391 . S
C2495 H2483 0.950 . S
C2495 C2491 1.393 . S
C2495 C2494 1.391 . S
H2496 C2504 0.950 . S
H2497 C2509 0.950 . S
H2498 C2506 0.950 . S
H2499 C2508 0.950 . S
H2500 C2510 0.950 . S
H2501 C2512 0.950 . S
H2502 C2514 0.950 . S
H2503 C2515 0.950 . S
C2504 H2496 0.950 . S
C2504 C2505 1.386 . S
C2504 C2506 1.391 . S
C2505 C2504 1.386 . S
C2505 C2509 1.393 . S
C2506 H2498 0.950 . S
C2506 C2504 1.391 . S
C2506 C2507 1.400 . S
C2507 C2506 1.400 . S
C2507 C2508 1.398 . S
C2507 C2513 1.491 . S
C2508 H2499 0.950 . S
C2508 C2507 1.398 . S
C2508 C2509 1.391 . S
C2509 H2497 0.950 . S
C2509 C2505 1.393 . S
C2509 C2508 1.391 . S
C2510 H2500 0.950 . S
C2510 C2511 1.386 . S
C2510 C2512 1.391 . S
C2511 C2510 1.386 . S
C2511 C2515 1.393 . S
C2512 H2501 0.950 . S
C2512 C2510 1.391 . S
C2512 C2513 1.400 . S
C2513 C2507 1.491 . S
C2513 C2512 1.400 . S
C2513 C2514 1.398 . S
C2514 H2502 0.950 . S
C2514 C2513 1.398 . S
C2514 C2515 1.391 . S
C2515 H2503 0.950 . S
C2515 C2511 1.393 . S
C2515 C2514 1.391 . S
H2516 C2524 0.950 . S
H2517 C2529 0.950 . S
H2518 C2526 0.950 . S
H2519 C2528 0.950 . S
H2520 C2530 0.950 . S
H2521 C2532 0.950 . S
H2522 C2534 0.950 . S
H2523 C2535 0.950 . S
C2524 H2516 0.950 . S
C2524 C2525 1.386 . S
C2524 C2526 1.391 . S
C2525 C2524 1.386 . S
C2525 C2529 1.393 . S
C2526 H2518 0.950 . S
C2526 C2524 1.391 . S
C2526 C2527 1.400 . S
C2527 C2526 1.400 . S
C2527 C2528 1.398 . S
C2527 C2533 1.491 . S
C2528 H2519 0.950 . S
C2528 C2527 1.398 . S
C2528 C2529 1.391 . S
C2529 H2517 0.950 . S
C2529 C2525 1.393 . S
C2529 C2528 1.391 . S
C2530 H2520 0.950 . S
C2530 C2531 1.386 . S
C2530 C2532 1.391 . S
C2531 C2530 1.386 . S
C2531 C2535 1.393 . S
C2532 H2521 0.950 . S
C2532 C2530 1.391 . S
C2532 C2533 1.400 . S
C2533 C2527 1.491 . S
C2533 C2532 1.400 . S
C2533 C2534 1.398 . S
C2534 H2522 0.950 . S
C2534 C2533 1.398 . S
C2534 C2535 1.391 . S
C2535 H2523 0.950 . S
C2535 C2531 1.393 . S
C2535 C2534 1.391 . S
H2536 C2544 0.950 . S
H2537 C2549 0.950 . S
H2538 C2546 0.950 . S
H2539 C2548 0.950 . S
H2540 C2550 0.950 . S
H2541 C2552 0.950 . S
H2542 C2554 0.950 . S
H2543 C2555 0.950 . S
C2544 H2536 0.950 . S
C2544 C2545 1.386 . S
C2544 C2546 1.391 . S
C2545 C2544 1.386 . S
C2545 C2549 1.393 . S
C2546 H2538 0.950 . S
C2546 C2544 1.391 . S
C2546 C2547 1.400 . S
C2547 C2546 1.400 . S
C2547 C2548 1.398 . S
C2547 C2553 1.491 . S
C2548 H2539 0.950 . S
C2548 C2547 1.398 . S
C2548 C2549 1.391 . S
C2549 H2537 0.950 . S
C2549 C2545 1.393 . S
C2549 C2548 1.391 . S
C2550 H2540 0.950 . S
C2550 C2551 1.386 . S
C2550 C2552 1.391 . S
C2551 C2550 1.386 . S
C2551 C2555 1.393 . S
C2552 H2541 0.950 . S
C2552 C2550 1.391 . S
C2552 C2553 1.400 . S
C2553 C2547 1.491 . S
C2553 C2552 1.400 . S
C2553 C2554 1.398 . S
C2554 H2542 0.950 . S
C2554 C2553 1.398 . S
C2554 C2555 1.391 . S
C2555 H2543 0.950 . S
C2555 C2551 1.393 . S
C2555 C2554 1.391 . S
H2556 C2564 0.950 . S
H2557 C2569 0.950 . S
H2558 C2566 0.950 . S
H2559 C2568 0.950 . S
H2560 C2570 0.950 . S
H2561 C2572 0.950 . S
H2562 C2574 0.950 . S
H2563 C2575 0.950 . S
C2564 H2556 0.950 . S
C2564 C2565 1.386 . S
C2564 C2566 1.391 . S
C2565 C2564 1.386 . S
C2565 C2569 1.393 . S
C2566 H2558 0.950 . S
C2566 C2564 1.391 . S
C2566 C2567 1.400 . S
C2567 C2566 1.400 . S
C2567 C2568 1.398 . S
C2567 C2573 1.491 . S
C2568 H2559 0.950 . S
C2568 C2567 1.398 . S
C2568 C2569 1.391 . S
C2569 H2557 0.950 . S
C2569 C2565 1.393 . S
C2569 C2568 1.391 . S
C2570 H2560 0.950 . S
C2570 C2571 1.386 . S
C2570 C2572 1.391 . S
C2571 C2570 1.386 . S
C2571 C2575 1.393 . S
C2572 H2561 0.950 . S
C2572 C2570 1.391 . S
C2572 C2573 1.400 . S
C2573 C2567 1.491 . S
C2573 C2572 1.400 . S
C2573 C2574 1.398 . S
C2574 H2562 0.950 . S
C2574 C2573 1.398 . S
C2574 C2575 1.391 . S
C2575 H2563 0.950 . S
C2575 C2571 1.393 . S
C2575 C2574 1.391 . S
H2576 C2584 0.958 . S
H2577 C2589 0.950 . S
H2578 C2586 0.950 . S
H2579 C2588 0.950 . S
H2580 C2590 0.958 . S
H2581 C2592 0.950 . S
H2582 C2594 0.950 . S
H2583 C2595 0.950 . S
C2584 H2576 0.958 . S
C2584 C2585 1.373 1_554 S
C2584 C2586 1.396 . S
C2585 C2584 1.373 1_556 S
C2585 C2589 1.393 . S
C2586 H2578 0.950 . S
C2586 C2584 1.396 . S
C2586 C2587 1.400 1_554 S
C2587 C2586 1.400 1_556 S
C2587 C2588 1.398 . S
C2587 C2593 1.491 1_556 S
C2588 H2579 0.950 . S
C2588 C2587 1.398 . S
C2588 C2589 1.391 . S
C2589 H2577 0.950 . S
C2589 C2585 1.393 . S
C2589 C2588 1.391 . S
C2590 H2580 0.958 . S
C2590 C2591 1.373 1_556 S
C2590 C2592 1.396 . S
C2591 C2590 1.373 1_554 S
C2591 C2595 1.393 . S
C2592 H2581 0.950 . S
C2592 C2590 1.396 . S
C2592 C2593 1.400 1_556 S
C2593 C2587 1.491 1_554 S
C2593 C2592 1.400 1_554 S
C2593 C2594 1.398 . S
C2594 H2582 0.950 . S
C2594 C2593 1.398 . S
C2594 C2595 1.391 . S
C2595 H2583 0.950 . S
C2595 C2591 1.393 . S
C2595 C2594 1.391 . S
H2596 C2604 0.950 . S
H2597 C2609 0.950 . S
H2598 C2606 0.950 . S
H2599 C2608 0.950 . S
H2600 C2610 0.950 . S
H2601 C2612 0.950 . S
H2602 C2614 0.950 . S
H2603 C2615 0.950 . S
C2604 H2596 0.950 . S
C2604 C2605 1.386 . S
C2604 C2606 1.391 . S
C2605 C2604 1.386 . S
C2605 C2609 1.393 . S
C2606 H2598 0.950 . S
C2606 C2604 1.391 . S
C2606 C2607 1.400 . S
C2607 C2606 1.400 . S
C2607 C2608 1.398 . S
C2607 C2613 1.491 1_655 S
C2608 H2599 0.950 . S
C2608 C2607 1.398 . S
C2608 C2609 1.391 . S
C2609 H2597 0.950 . S
C2609 C2605 1.393 . S
C2609 C2608 1.391 . S
C2610 H2600 0.950 . S
C2610 C2611 1.386 . S
C2610 C2612 1.391 . S
C2611 C2610 1.386 . S
C2611 C2615 1.393 . S
C2612 H2601 0.950 . S
C2612 C2610 1.391 . S
C2612 C2613 1.400 . S
C2613 C2607 1.491 1_455 S
C2613 C2612 1.400 . S
C2613 C2614 1.398 . S
C2614 H2602 0.950 . S
C2614 C2613 1.398 . S
C2614 C2615 1.391 . S
C2615 H2603 0.950 . S
C2615 C2611 1.393 . S
C2615 C2614 1.391 . S
H2616 C2624 0.950 . S
H2617 C2629 0.949 1_556 S
H2618 C2626 0.950 . S
H2619 C2628 0.988 . S
H2620 C2630 0.950 . S
H2621 C2632 0.950 . S
H2622 C2634 0.988 . S
H2623 C2635 0.949 1_554 S
C2624 H2616 0.950 . S
C2624 C2625 1.386 . S
C2624 C2626 1.391 . S
C2625 C2624 1.386 . S
C2625 C2629 1.393 . S
C2626 H2618 0.950 . S
C2626 C2624 1.391 . S
C2626 C2627 1.400 . S
C2627 C2626 1.400 . S
C2627 C2628 1.385 1_454 S
C2627 C2633 1.491 1_454 S
C2628 H2619 0.988 . S
C2628 C2627 1.385 1_656 S
C2628 C2629 1.369 1_656 S
C2629 H2617 0.949 1_554 S
C2629 C2625 1.393 . S
C2629 C2628 1.369 1_454 S
C2630 H2620 0.950 . S
C2630 C2631 1.386 . S
C2630 C2632 1.391 . S
C2631 C2630 1.386 . S
C2631 C2635 1.393 . S
C2632 H2621 0.950 . S
C2632 C2630 1.391 . S
C2632 C2633 1.400 . S
C2633 C2627 1.491 1_656 S
C2633 C2632 1.400 . S
C2633 C2634 1.385 1_656 S
C2634 H2622 0.988 . S
C2634 C2633 1.385 1_454 S
C2634 C2635 1.369 1_454 S
C2635 H2623 0.949 1_556 S
C2635 C2631 1.393 . S
C2635 C2634 1.369 1_656 S
H2636 C2644 0.950 . S
H2637 C2649 0.950 . S
H2638 C2646 0.950 . S
H2639 C2648 0.950 . S
H2640 C2650 0.950 . S
H2641 C2652 0.950 . S
H2642 C2654 0.950 . S
H2643 C2655 0.950 . S
C2644 H2636 0.950 . S
C2644 C2645 1.386 . S
C2644 C2646 1.391 . S
C2645 C2644 1.386 . S
C2645 C2649 1.393 . S
C2646 H2638 0.950 . S
C2646 C2644 1.391 . S
C2646 C2647 1.400 . S
C2647 C2646 1.400 . S
C2647 C2648 1.398 . S
C2647 C2653 1.491 . S
C2648 H2639 0.950 . S
C2648 C2647 1.398 . S
C2648 C2649 1.391 . S
C2649 H2637 0.950 . S
C2649 C2645 1.393 . S
C2649 C2648 1.391 . S
C2650 H2640 0.950 . S
C2650 C2651 1.386 . S
C2650 C2652 1.391 . S
C2651 C2650 1.386 . S
C2651 C2655 1.393 . S
C2652 H2641 0.950 . S
C2652 C2650 1.391 . S
C2652 C2653 1.400 . S
C2653 C2647 1.491 . S
C2653 C2652 1.400 . S
C2653 C2654 1.398 . S
C2654 H2642 0.950 . S
C2654 C2653 1.398 . S
C2654 C2655 1.391 . S
C2655 H2643 0.950 . S
C2655 C2651 1.393 . S
C2655 C2654 1.391 . S
C1065 N244 1.946 . S
C1071 N13 1.921 . S
C1085 N46 1.921 . S
C1091 N145 1.946 . S
C1105 N79 1.922 . S
C1111 N178 1.946 . S
C1125 N211 1.946 . S
C1131 N112 1.922 . S
C1145 N508 1.938 . S
C1151 N277 1.933 . S
C1165 N409 1.945 . S
C1171 N310 1.924 . S
C1185 N343 1.937 . S
C1191 N442 1.928 . S
C1205 N376 1.936 . S
C1211 N475 1.935 . S
C1225 N772 1.943 . S
C1231 N541 1.923 . S
C1245 N574 1.946 . S
C1251 N673 1.922 . S
C1265 N607 1.930 . S
C1271 N706 1.934 . S
C1285 N739 1.924 . S
C1291 N640 1.945 . S
C1305 N1036 1.921 . S
C1311 N805 1.946 . S
C1325 N838 1.937 . S
C1331 N937 1.927 . S
C1345 N970 1.924 . S
C1351 N871 1.941 . S
C1365 N1003 1.928 . S
C1371 N904 1.942 . S
C1385 C601 0.980 . S
C1391 C7 0.992 . S
C1405 C634 0.961 . S
C1411 C40 0.970 . S
C1425 C73 0.990 . S
C1431 C535 0.961 . S
C1445 C106 0.994 . S
C1451 C568 0.970 . S
C1465 C733 0.958 . S
C1471 C139 0.986 . S
C1485 C766 0.963 . S
C1491 C172 0.992 . S
C1505 C205 0.972 . S
C1511 C667 0.994 . S
C1525 C238 0.958 . S
C1531 C700 0.985 . S
C1545 C271 0.994 . S
C1551 C865 0.970 . S
C1565 C898 0.958 . S
C1571 C304 0.982 . S
C1585 C799 0.991 . S
C1591 C337 0.981 . S
C1605 C370 0.993 . S
C1611 C832 0.964 . S
C1625 C403 0.960 . S
C1631 C997 0.974 . S
C1645 C1030 0.993 . S
C1651 C436 0.978 . S
C1665 C931 0.990 . S
C1671 C469 0.982 . S
C1685 C964 0.994 . S
C1691 C502 0.969 . S
C1705 N2 0.938 . S
C1711 C912 0.888 . S
C1725 C285 0.879 . S
C1731 N35 0.932 1_655 S
C1745 C846 0.821 . S
C1751 N68 0.900 . S
C1765 N101 0.900 . S
C1771 C351 0.819 . S
C1785 C978 0.825 . S
C1791 N134 0.905 . S
C1805 C483 0.863 . S
C1811 N167 0.922 . S
C1825 N200 0.901 . S
C1831 C1044 0.823 . S
C1845 N233 0.901 1_655 S
C1851 C417 0.846 . S
C1865 N266 0.932 . S
C1871 C648 0.880 . S
C1885 N299 0.894 1_455 S
C1891 C21 0.839 . S
C1905 C582 0.819 . S
C1911 N332 0.900 . S
C1925 N365 0.941 . S
C1931 C87 0.892 . S
C1945 C714 0.853 . S
C1951 N398 0.922 . S
C1965 N431 0.944 . S
C1971 C219 0.895 . S
C1985 N464 0.915 . S
C1991 C780 0.850 . S
C2005 C153 0.834 . S
C2011 N497 0.888 1_455 S
C2025 N530 0.937 . S
C2031 C384 0.887 . S
C2045 C813 0.839 . S
C2051 N563 0.914 . S
C2065 C318 0.866 . S
C2071 N596 0.924 . S
C2085 N629 0.901 1_455 S
C2091 C879 0.823 . S
C2105 N662 0.922 . S
C2111 C450 0.854 . S
C2125 C1011 0.891 . S
C2131 N695 0.940 1_455 S
C2145 N728 0.914 . S
C2151 C516 0.848 . S
C2165 C945 0.847 . S
C2171 N761 0.918 . S
C2185 C120 0.854 . S
C2191 N794 0.923 . S
C2205 C549 0.867 . S
C2211 N827 0.924 . S
C2225 C54 0.871 . S
C2231 N860 0.932 . S
C2245 C615 0.865 . S
C2251 N893 0.924 1_655 S
C2265 N926 0.943 . S
C2271 C186 0.895 . S
C2285 C747 0.895 . S
C2291 N959 0.944 1_655 S
C2305 C252 0.874 . S
C2311 N992 0.934 . S
C2325 C681 0.829 . S
C2331 N1025 0.904 . S
C2345 C18 1.389 . S
C2351 C810 1.389 . S
C2365 C51 1.374 . S
C2371 C315 1.374 . S
C2385 C876 1.369 . S
C2391 C84 1.369 . S
C2405 C381 1.371 . S
C2411 C117 1.371 . S
C2425 C942 1.380 . S
C2431 C150 1.380 . S
C2445 C447 1.368 . S
C2451 C183 1.368 . S
C2465 C1008 1.379 . S
C2471 C216 1.379 . S
C2485 C513 1.389 . S
C2491 C249 1.389 . S
C2505 C282 1.389 . S
C2511 C546 1.389 . S
C2525 C612 1.376 . S
C2531 C348 1.376 . S
C2545 C414 1.390 . S
C2551 C678 1.390 . S
C2565 C480 1.375 . S
C2571 C744 1.375 . S
C2585 C843 1.377 . S
C2591 C579 1.377 . S
C2605 C645 1.369 . S
C2611 C909 1.369 . S
C2625 C975 1.371 . S
C2631 C711 1.371 . S
C2645 C1041 1.368 . S
C2651 C777 1.368 . S
