# Generated by pormake.
# Topology lcy-e, (6)-cn, num edge types: 1
# Building blocks:
#     Node 0, Type 0, BuildingBlock: MIFKUJ_clean_sbu_0, # of connection points: 6
#     Node 1, Type 0, BuildingBlock: MIFKUJ_clean_sbu_0, # of connection points: 6
#     Node 2, Type 0, BuildingBlock: MIFKUJ_clean_sbu_0, # of connection points: 6
#     Node 3, Type 0, BuildingBlock: MIFKUJ_clean_sbu_0, # of connection points: 6
#     Node 4, Type 0, BuildingBlock: MIFKUJ_clean_sbu_0, # of connection points: 6
#     Node 5, Type 0, BuildingBlock: MIFKUJ_clean_sbu_0, # of connection points: 6
#     Node 6, Type 0, BuildingBlock: MIFKUJ_clean_sbu_0, # of connection points: 6
#     Node 7, Type 0, BuildingBlock: MIFKUJ_clean_sbu_0, # of connection points: 6
#     Node 8, Type 0, BuildingBlock: MIFKUJ_clean_sbu_0, # of connection points: 6
#     Node 9, Type 0, BuildingBlock: MIFKUJ_clean_sbu_0, # of connection points: 6
#     Node 10, Type 0, BuildingBlock: MIFKUJ_clean_sbu_0, # of connection points: 6
#     Node 11, Type 0, BuildingBlock: MIFKUJ_clean_sbu_0, # of connection points: 6
#     Edge 12, Type (0, 0), BuildingBlock: MIFKUJ_clean_linker_0, # of connection points: 2
#     Edge 13, Type (0, 0), BuildingBlock: MIFKUJ_clean_linker_0, # of connection points: 2
#     Edge 14, Type (0, 0), BuildingBlock: MIFKUJ_clean_linker_0, # of connection points: 2
#     Edge 15, Type (0, 0), BuildingBlock: MIFKUJ_clean_linker_0, # of connection points: 2
#     Edge 16, Type (0, 0), BuildingBlock: MIFKUJ_clean_linker_0, # of connection points: 2
#     Edge 17, Type (0, 0), BuildingBlock: MIFKUJ_clean_linker_0, # of connection points: 2
#     Edge 18, Type (0, 0), BuildingBlock: MIFKUJ_clean_linker_0, # of connection points: 2
#     Edge 19, Type (0, 0), BuildingBlock: MIFKUJ_clean_linker_0, # of connection points: 2
#     Edge 20, Type (0, 0), BuildingBlock: MIFKUJ_clean_linker_0, # of connection points: 2
#     Edge 21, Type (0, 0), BuildingBlock: MIFKUJ_clean_linker_0, # of connection points: 2
#     Edge 22, Type (0, 0), BuildingBlock: MIFKUJ_clean_linker_0, # of connection points: 2
#     Edge 23, Type (0, 0), BuildingBlock: MIFKUJ_clean_linker_0, # of connection points: 2
#     Edge 24, Type (0, 0), BuildingBlock: MIFKUJ_clean_linker_0, # of connection points: 2
#     Edge 25, Type (0, 0), BuildingBlock: MIFKUJ_clean_linker_0, # of connection points: 2
#     Edge 26, Type (0, 0), BuildingBlock: MIFKUJ_clean_linker_0, # of connection points: 2
#     Edge 27, Type (0, 0), BuildingBlock: MIFKUJ_clean_linker_0, # of connection points: 2
#     Edge 28, Type (0, 0), BuildingBlock: MIFKUJ_clean_linker_0, # of connection points: 2
#     Edge 29, Type (0, 0), BuildingBlock: MIFKUJ_clean_linker_0, # of connection points: 2
#     Edge 30, Type (0, 0), BuildingBlock: MIFKUJ_clean_linker_0, # of connection points: 2
#     Edge 31, Type (0, 0), BuildingBlock: MIFKUJ_clean_linker_0, # of connection points: 2
#     Edge 32, Type (0, 0), BuildingBlock: MIFKUJ_clean_linker_0, # of connection points: 2
#     Edge 33, Type (0, 0), BuildingBlock: MIFKUJ_clean_linker_0, # of connection points: 2
#     Edge 34, Type (0, 0), BuildingBlock: MIFKUJ_clean_linker_0, # of connection points: 2
#     Edge 35, Type (0, 0), BuildingBlock: MIFKUJ_clean_linker_0, # of connection points: 2
#     Edge 36, Type (0, 0), BuildingBlock: MIFKUJ_clean_linker_0, # of connection points: 2
#     Edge 37, Type (0, 0), BuildingBlock: MIFKUJ_clean_linker_0, # of connection points: 2
#     Edge 38, Type (0, 0), BuildingBlock: MIFKUJ_clean_linker_0, # of connection points: 2
#     Edge 39, Type (0, 0), BuildingBlock: MIFKUJ_clean_linker_0, # of connection points: 2
#     Edge 40, Type (0, 0), BuildingBlock: MIFKUJ_clean_linker_0, # of connection points: 2
#     Edge 41, Type (0, 0), BuildingBlock: MIFKUJ_clean_linker_0, # of connection points: 2
#     Edge 42, Type (0, 0), BuildingBlock: MIFKUJ_clean_linker_0, # of connection points: 2
#     Edge 43, Type (0, 0), BuildingBlock: MIFKUJ_clean_linker_0, # of connection points: 2
#     Edge 44, Type (0, 0), BuildingBlock: MIFKUJ_clean_linker_0, # of connection points: 2
#     Edge 45, Type (0, 0), BuildingBlock: MIFKUJ_clean_linker_0, # of connection points: 2
#     Edge 46, Type (0, 0), BuildingBlock: MIFKUJ_clean_linker_0, # of connection points: 2
#     Edge 47, Type (0, 0), BuildingBlock: MIFKUJ_clean_linker_0, # of connection points: 2
# Relax obj value: 0.171
# Max RMSD: 0.274
# Mean RMSD: 0.237
data_MOF--net-lcy-e--node1-MIFKUJ_clean_sbu_0--edge1-MIFKUJ_clean_linker_0
_symmetry_space_group_name_H-M    P1
_symmetry_Int_Tables_number       1
_symmetry_cell_setting            triclinic
loop_
_symmetry_equiv_pos_as_xyz
'x, y, z'
_cell_length_a     46.878094
_cell_length_b     50.428923
_cell_length_c     50.456651
_cell_angle_alpha  87.625337
_cell_angle_beta   88.811538
_cell_angle_gamma 88.684467
loop_
_atom_site_label
_atom_site_type_symbol
_atom_site_fract_x
_atom_site_fract_y
_atom_site_fract_z
_atom_type_partial_charge
Zn0 Zn 0.1134 0.23278 0.43565 0.0
Zn1 Zn 0.11269 0.17881 0.47001 0.0
C2 C 0.12973 0.27606 0.46292 0.0
O3 O 0.10342 0.28206 0.45603 0.0
C4 C 0.08452 0.15281 0.42951 0.0
O5 O 0.10721 0.13732 0.43278 0.0
O6 O 0.10345 0.25683 0.40425 0.0
O7 O 0.13484 0.20156 0.41879 0.0
O8 O 0.15118 0.17755 0.45283 0.0
C9 C 0.12554 0.26328 0.39065 0.0
O10 O 0.15049 0.25351 0.39809 0.0
O11 O 0.14103 0.25426 0.45577 0.0
C12 C 0.0867 0.13619 0.50043 0.0
O13 O 0.06383 0.14462 0.48775 0.0
O14 O 0.11029 0.14764 0.49596 0.0
O15 O 0.10462 0.20997 0.49184 0.0
O16 O 0.07883 0.23024 0.46112 0.0
O17 O 0.08229 0.17379 0.44266 0.0
C18 C 0.15284 0.18475 0.42851 0.0
C19 C 0.08487 0.22642 0.4855 0.0
Zn20 Zn 0.00841 0.87382 0.68508 0.0
Zn21 Zn 0.05204 0.88089 0.72768 0.0
C22 C 0.95677 0.89106 0.70645 0.0
O23 O 0.95115 0.86722 0.69866 0.0
C24 C 0.09342 0.85183 0.6974 0.0
O25 O 0.11039 0.87013 0.70543 0.0
O26 O 0.98759 0.86689 0.65127 0.0
O27 O 0.04386 0.89288 0.6722 0.0
O28 O 0.05163 0.9157 0.70744 0.0
C29 C 0.98124 0.88863 0.63877 0.0
O30 O 0.98942 0.91096 0.64845 0.0
O31 O 0.982 0.89952 0.70333 0.0
C32 C 0.08764 0.85701 0.76635 0.0
O33 O 0.07552 0.83637 0.75666 0.0
O34 O 0.08019 0.8802 0.7578 0.0
O35 O 0.01475 0.86867 0.74272 0.0
O36 O 0.01026 0.84124 0.71034 0.0
O37 O 0.06708 0.85307 0.70358 0.0
C38 C 0.05233 0.91386 0.68241 0.0
C39 C 0.0066 0.84658 0.73466 0.0
Zn40 Zn 0.37092 0.75651 0.94713 0.0
Zn41 Zn 0.36984 0.82115 0.97389 0.0
C42 C 0.37172 0.70696 0.97514 0.0
O43 O 0.39737 0.70675 0.96413 0.0
C44 C 0.39909 0.84784 0.93211 0.0
O45 O 0.37419 0.86034 0.93161 0.0
O46 O 0.38156 0.73835 0.9129 0.0
O47 O 0.33798 0.78165 0.93723 0.0
O48 O 0.33292 0.82096 0.95489 0.0
C49 C 0.36047 0.72517 0.9055 0.0
O50 O 0.33679 0.72565 0.91989 0.0
O51 O 0.35544 0.72719 0.97121 0.0
C52 C 0.39295 0.85628 0.00949 0.0
O53 O 0.41372 0.83842 0.00788 0.0
O54 O 0.37022 0.85304 0.99677 0.0
O55 O 0.37767 0.78919 0.99786 0.0
O56 O 0.40434 0.76941 0.96785 0.0
O57 O 0.40224 0.82773 0.9479 0.0
C58 C 0.32421 0.80347 0.93978 0.0
C59 C 0.39748 0.77275 0.99204 0.0
Zn60 Zn 0.42917 0.11489 0.22527 0.0
Zn61 Zn 0.47437 0.12658 0.18236 0.0
C62 C 0.4427 0.1399 0.27109 0.0
O63 O 0.43519 0.11622 0.28011 0.0
C64 C 0.44533 0.09355 0.14774 0.0
O65 O 0.44344 0.11623 0.13404 0.0
O66 O 0.39475 0.1014 0.24663 0.0
O67 O 0.41289 0.13015 0.19006 0.0
O68 O 0.44772 0.15748 0.18101 0.0
C69 C 0.37273 0.11661 0.24531 0.0
O70 O 0.37328 0.1377 0.22915 0.0
O71 O 0.44187 0.14541 0.24629 0.0
C72 C 0.52842 0.11984 0.15628 0.0
O73 O 0.53332 0.10422 0.17725 0.0
O74 O 0.50497 0.1329 0.15483 0.0
O75 O 0.49276 0.1208 0.21699 0.0
O76 O 0.46364 0.08875 0.22891 0.0
O77 O 0.45652 0.093 0.17052 0.0
C78 C 0.42144 0.15243 0.18063 0.0
C79 C 0.48809 0.09929 0.23004 0.0
Zn80 Zn 0.62182 0.30327 0.50157 0.0
Zn81 Zn 0.6263 0.27073 0.56324 0.0
C82 C 0.57985 0.27141 0.4766 0.0
O83 O 0.57155 0.26545 0.50111 0.0
C84 C 0.65674 0.31263 0.58267 0.0
O85 O 0.63289 0.31389 0.59675 0.0
O86 O 0.63539 0.33853 0.48511 0.0
O87 O 0.59126 0.31293 0.52947 0.0
O88 O 0.58985 0.28979 0.56764 0.0
C89 C 0.61589 0.35072 0.47186 0.0
O90 O 0.59069 0.33999 0.47082 0.0
O91 O 0.60051 0.28697 0.47241 0.0
C92 C 0.65555 0.23765 0.6016 0.0
O93 O 0.67777 0.24527 0.58717 0.0
O94 O 0.63076 0.24586 0.59501 0.0
O95 O 0.62719 0.24819 0.53215 0.0
O96 O 0.65389 0.27515 0.50761 0.0
O97 O 0.65889 0.29599 0.56443 0.0
C98 C 0.57968 0.30776 0.55211 0.0
C99 C 0.64599 0.25171 0.51408 0.0
Zn100 Zn 0.95046 0.37632 0.75507 0.0
Zn101 Zn 0.96936 0.38822 0.829 0.0
C102 C 0.98246 0.37437 0.7064 0.0
O103 O 0.97056 0.39814 0.70352 0.0
C104 C 0.92986 0.41749 0.85918 0.0
O105 O 0.9347 0.39624 0.87452 0.0
O106 O 0.91409 0.38437 0.735 0.0
O107 O 0.94033 0.34761 0.78301 0.0
O108 O 0.95005 0.35362 0.82542 0.0
C109 C 0.90731 0.36572 0.72025 0.0
O110 O 0.92348 0.3441 0.71997 0.0
O111 O 0.97821 0.36102 0.72803 0.0
C112 C 0.00785 0.40476 0.86679 0.0
O113 O 0.00571 0.42625 0.85125 0.0
O114 O 0.99374 0.38453 0.86136 0.0
O115 O 0.99735 0.396 0.79977 0.0
O116 O 0.96811 0.40925 0.76819 0.0
O117 O 0.94144 0.41868 0.83612 0.0
C118 C 0.94009 0.33979 0.80737 0.0
C119 C 0.99331 0.40581 0.77662 0.0
Zn120 Zn 0.87073 0.70177 0.00782 0.0
Zn121 Zn 0.86923 0.73186 0.06846 0.0
C122 C 0.9102 0.70263 0.96395 0.0
O123 O 0.91272 0.67728 0.97083 0.0
C124 C 0.83906 0.68449 0.0833 0.0
O125 O 0.86303 0.67829 0.09534 0.0
O126 O 0.85411 0.66915 0.99221 0.0
O127 O 0.90139 0.69015 0.03393 0.0
O128 O 0.90647 0.71275 0.07012 0.0
C129 C 0.85872 0.64587 0.0021 0.0
O130 O 0.87093 0.64307 0.02528 0.0
O131 O 0.89351 0.71742 0.97729 0.0
C132 C 0.84227 0.76799 0.10387 0.0
O133 O 0.82401 0.7698 0.08443 0.0
O134 O 0.86412 0.75276 0.10165 0.0
O135 O 0.86543 0.75768 0.0377 0.0
O136 O 0.84047 0.73063 0.01451 0.0
O137 O 0.83733 0.70602 0.06936 0.0
C138 C 0.91468 0.69453 0.05498 0.0
C139 C 0.84705 0.75408 0.02017 0.0
Zn140 Zn 0.54492 0.62486 0.2674 0.0
Zn141 Zn 0.51073 0.62665 0.32083 0.0
C142 C 0.50685 0.63833 0.22549 0.0
O143 O 0.50954 0.61256 0.22314 0.0
C144 C 0.55813 0.60086 0.34839 0.0
O145 O 0.55565 0.62185 0.36292 0.0
O146 O 0.57755 0.61569 0.24244 0.0
O147 O 0.56401 0.64615 0.2957 0.0
O148 O 0.52532 0.66316 0.31429 0.0
C149 C 0.58631 0.63568 0.22865 0.0
O150 O 0.57439 0.65909 0.2324 0.0
O151 O 0.5193 0.64911 0.24435 0.0
C152 C 0.48275 0.6038 0.36611 0.0
O153 O 0.49286 0.58228 0.3551 0.0
O154 O 0.48705 0.6263 0.35458 0.0
O155 O 0.48589 0.61378 0.29296 0.0
O156 O 0.52206 0.5914 0.2759 0.0
O157 O 0.54264 0.59957 0.32809 0.0
C158 C 0.5516 0.66461 0.30827 0.0
C159 C 0.4953 0.59422 0.28013 0.0
Zn160 Zn 0.22937 0.43584 0.13312 0.0
Zn161 Zn 0.18491 0.48102 0.13761 0.0
C162 C 0.2825 0.44762 0.15331 0.0
O163 O 0.28967 0.43696 0.13074 0.0
C164 C 0.14556 0.45501 0.10638 0.0
O165 O 0.12826 0.46495 0.12443 0.0
O166 O 0.24645 0.40031 0.12323 0.0
O167 O 0.19183 0.42542 0.15191 0.0
O168 O 0.18031 0.46194 0.17226 0.0
C169 C 0.24931 0.38478 0.14358 0.0
O170 O 0.24097 0.39329 0.16683 0.0
O171 O 0.25621 0.44943 0.15996 0.0
C172 C 0.15621 0.52509 0.11428 0.0
O173 O 0.17238 0.51743 0.09431 0.0
O174 O 0.15811 0.51252 0.13655 0.0
O175 O 0.22326 0.49492 0.12985 0.0
O176 O 0.23332 0.4633 0.10223 0.0
O177 O 0.17224 0.45828 0.10817 0.0
C178 C 0.17951 0.43695 0.17112 0.0
C179 C 0.23559 0.48728 0.10885 0.0
Zn180 Zn 0.69295 0.03356 0.87807 0.0
Zn181 Zn 0.73847 0.07564 0.88578 0.0
C182 C 0.7162 0.98358 0.89009 0.0
O183 O 0.70515 0.98093 0.86665 0.0
C184 C 0.7083 0.11788 0.85716 0.0
O185 O 0.72148 0.13275 0.87358 0.0
O186 O 0.6564 0.01517 0.86988 0.0
O187 O 0.68016 0.06466 0.90014 0.0
O188 O 0.72033 0.06734 0.9211 0.0
C189 C 0.63916 0.0123 0.88956 0.0
O190 O 0.64571 0.02206 0.91232 0.0
O191 O 0.7143 0.00609 0.90057 0.0
C192 C 0.79456 0.10069 0.88457 0.0
O193 O 0.80492 0.07746 0.8778 0.0
O194 O 0.76811 0.10328 0.89008 0.0
O195 O 0.75645 0.04557 0.86715 0.0
O196 O 0.71757 0.03842 0.8447 0.0
O197 O 0.71063 0.09278 0.85998 0.0
C198 C 0.69334 0.06896 0.92121 0.0
C199 C 0.74466 0.03783 0.84647 0.0
Zn200 Zn 0.78954 0.97962 0.37786 0.0
Zn201 Zn 0.74964 0.92648 0.38546 0.0
C202 C 0.75395 0.00317 0.42304 0.0
O203 O 0.73745 0.98246 0.42505 0.0
C204 C 0.77874 0.89143 0.35058 0.0
O205 O 0.77279 0.87481 0.37056 0.0
O206 O 0.82318 0.00157 0.36426 0.0
O207 O 0.80845 0.94566 0.39399 0.0
O208 O 0.77305 0.92885 0.41787 0.0
C209 C 0.83994 0.00458 0.38343 0.0
O210 O 0.83395 0.99253 0.4064 0.0
O211 O 0.77465 0.00361 0.40639 0.0
C212 C 0.70238 0.89427 0.37547 0.0
O213 O 0.69934 0.91255 0.35637 0.0
O214 O 0.72234 0.89635 0.39189 0.0
O215 O 0.72592 0.95861 0.3764 0.0
O216 O 0.75741 0.97987 0.35072 0.0
O217 O 0.77284 0.91601 0.3529 0.0
C218 C 0.79935 0.93368 0.41504 0.0
C219 C 0.73156 0.97512 0.35744 0.0
Zn220 Zn 0.29851 0.50731 0.63531 0.0
Zn221 Zn 0.26792 0.56592 0.63732 0.0
C222 C 0.26213 0.46998 0.61631 0.0
O223 O 0.26638 0.4615 0.64091 0.0
C224 C 0.31007 0.59043 0.66794 0.0
O225 O 0.31456 0.60333 0.64513 0.0
O226 O 0.32884 0.47879 0.64136 0.0
O227 O 0.32233 0.53725 0.61865 0.0
O228 O 0.2905 0.56658 0.60366 0.0
C229 C 0.34119 0.47444 0.6192 0.0
O230 O 0.33186 0.48724 0.59776 0.0
O231 O 0.27361 0.49147 0.60796 0.0
C232 C 0.2234 0.60033 0.65369 0.0
O233 O 0.22126 0.58164 0.67251 0.0
O234 O 0.2422 0.59787 0.63543 0.0
O235 O 0.24226 0.5354 0.6438 0.0
O236 O 0.27244 0.51122 0.66783 0.0
O237 O 0.29221 0.57177 0.66913 0.0
C238 C 0.31518 0.55597 0.60236 0.0
C239 C 0.24689 0.5184 0.66252 0.0
H240 H 0.18716 0.28494 0.46309 0.0
H241 H 0.21128 0.31897 0.48723 0.0
H242 H 0.13082 0.34181 0.52389 0.0
H243 H 0.10669 0.30891 0.49893 0.0
H244 H 0.1556 0.38378 0.50793 0.0
H245 H 0.18605 0.30496 0.55733 0.0
H246 H 0.20813 0.26036 0.56379 0.0
H247 H 0.28819 0.28971 0.5335 0.0
H248 H 0.26647 0.33443 0.52656 0.0
H249 H 0.22602 0.43026 0.63045 0.0
H250 H 0.2043 0.39904 0.60151 0.0
H251 H 0.24268 0.43922 0.53312 0.0
H252 H 0.26386 0.47117 0.56192 0.0
H253 H 0.24165 0.36744 0.56227 0.0
H254 H 0.20152 0.44655 0.50613 0.0
H255 H 0.17443 0.48909 0.50322 0.0
H256 H 0.10758 0.45542 0.55244 0.0
H257 H 0.13485 0.41299 0.55635 0.0
C258 C 0.1748 0.29713 0.4765 0.0
C259 C 0.14512 0.2945 0.47907 0.0
C260 C 0.18856 0.3165 0.49034 0.0
C261 C 0.17291 0.33297 0.50749 0.0
C262 C 0.14336 0.32961 0.5106 0.0
C263 C 0.12959 0.31074 0.49639 0.0
C264 C 0.18679 0.3544 0.52154 0.0
C265 C 0.17448 0.38006 0.51973 0.0
C266 C 0.21146 0.34981 0.53695 0.0
C267 C 0.22455 0.32296 0.54114 0.0
C268 C 0.2083 0.30185 0.55186 0.0
C269 C 0.22076 0.27656 0.55564 0.0
C270 C 0.24952 0.27218 0.54898 0.0
C271 C 0.2659 0.29311 0.5386 0.0
C272 C 0.25354 0.31844 0.53476 0.0
C273 C 0.22951 0.43273 0.6092 0.0
C274 C 0.24661 0.45318 0.59842 0.0
C275 C 0.21707 0.41488 0.59273 0.0
C276 C 0.22162 0.41705 0.56521 0.0
C277 C 0.23832 0.43765 0.55427 0.0
C278 C 0.25049 0.45581 0.57074 0.0
C279 C 0.21045 0.3965 0.54842 0.0
C280 C 0.22314 0.37102 0.54996 0.0
C281 C 0.18586 0.40104 0.53312 0.0
C282 C 0.17045 0.42692 0.53202 0.0
C283 C 0.18137 0.44846 0.51683 0.0
C284 C 0.16593 0.47249 0.51489 0.0
C285 C 0.13935 0.47499 0.52772 0.0
C286 C 0.12819 0.45348 0.54257 0.0
C287 C 0.14372 0.42953 0.54482 0.0
H288 H 0.12736 0.49357 0.52611 0.0
H289 H 0.25913 0.25259 0.55193 0.0
H290 H 0.73293 0.997 0.81488 0.0
H291 H 0.76679 0.97417 0.78532 0.0
H292 H 0.83082 0.03128 0.80097 0.0
H293 H 0.79732 0.05383 0.83074 0.0
H294 H 0.83099 0.01526 0.74725 0.0
H295 H 0.83247 0.97938 0.83689 0.0
H296 H 0.81301 0.95956 0.87875 0.0
H297 H 0.78416 0.89285 0.8373 0.0
H298 H 0.80296 0.91256 0.79504 0.0
H299 H 0.96033 0.94159 0.72393 0.0
H300 H 0.92174 0.96874 0.74301 0.0
H301 H 0.86285 0.90548 0.73347 0.0
H302 H 0.9012 0.87815 0.71484 0.0
H303 H 0.85838 0.92493 0.78202 0.0
H304 H 0.86224 0.96048 0.69208 0.0
H305 H 0.88619 0.98008 0.65219 0.0
H306 H 0.9083 0.04785 0.69562 0.0
H307 H 0.8849 0.02845 0.73592 0.0
C308 C 0.75402 0.00496 0.81151 0.0
C309 C 0.76278 0.02684 0.82532 0.0
C310 C 0.7733 0.99194 0.7947 0.0
C311 C 0.8013 0.00097 0.79125 0.0
C312 C 0.8093 0.02404 0.80344 0.0
C313 C 0.79026 0.03674 0.82057 0.0
C314 C 0.8232 0.98481 0.77755 0.0
C315 C 0.83709 0.99553 0.75479 0.0
C316 C 0.83098 0.9591 0.78751 0.0
C317 C 0.81879 0.94762 0.81273 0.0
C318 C 0.82159 0.96069 0.83661 0.0
C319 C 0.81076 0.94944 0.86043 0.0
C320 C 0.79739 0.92497 0.86066 0.0
C321 C 0.79453 0.91182 0.83706 0.0
C322 C 0.80524 0.92303 0.81317 0.0
C323 C 0.93915 0.9335 0.72589 0.0
C324 C 0.9338 0.90772 0.71794 0.0
C325 C 0.91711 0.94908 0.73662 0.0
C326 C 0.8894 0.93918 0.73937 0.0
C327 C 0.88408 0.91348 0.73146 0.0
C328 C 0.90604 0.89791 0.72081 0.0
C329 C 0.86606 0.95515 0.75141 0.0
C330 C 0.85202 0.94446 0.77409 0.0
C331 C 0.85841 0.98094 0.74146 0.0
C332 C 0.872 0.99289 0.7171 0.0
C333 C 0.87236 0.97948 0.69318 0.0
C334 C 0.88583 0.99057 0.67049 0.0
C335 C 0.8988 0.01517 0.67139 0.0
C336 C 0.89826 0.02878 0.69496 0.0
C337 C 0.88487 0.01776 0.71773 0.0
H338 H 0.90923 0.02372 0.65381 0.0
H339 H 0.78947 0.91609 0.87916 0.0
H340 H 0.32186 0.70211 0.00373 0.0
H341 H 0.3037 0.6622 0.02679 0.0
H342 H 0.37983 0.61845 0.004 0.0
H343 H 0.3982 0.6583 0.98085 0.0
H344 H 0.32979 0.59199 0.99435 0.0
H345 H 0.37163 0.63592 0.0658 0.0
H346 H 0.38049 0.67366 0.09397 0.0
H347 H 0.29189 0.67668 0.11711 0.0
H348 H 0.2825 0.63926 0.08879 0.0
H349 H 0.28304 0.4797 0.07673 0.0
H350 H 0.31134 0.51455 0.05383 0.0
H351 H 0.25079 0.57397 0.08064 0.0
H352 H 0.22371 0.53978 0.10433 0.0
H353 H 0.30067 0.58969 0.08944 0.0
H354 H 0.25607 0.55226 0.01436 0.0
H355 H 0.24431 0.51664 0.98462 0.0
H356 H 0.33338 0.50346 0.96695 0.0
H357 H 0.34569 0.5388 0.99686 0.0
C358 C 0.33483 0.68405 0.00375 0.0
C359 C 0.36143 0.68333 0.99042 0.0
C360 C 0.32447 0.66129 0.01699 0.0
C361 C 0.34051 0.63743 0.01717 0.0
C362 C 0.36715 0.63668 0.00407 0.0
C363 C 0.37764 0.6595 0.99096 0.0
C364 C 0.32899 0.61318 0.03056 0.0
C365 C 0.32383 0.59123 0.01526 0.0
C366 C 0.32079 0.61252 0.05769 0.0
C367 C 0.32641 0.63487 0.07502 0.0
C368 C 0.35407 0.64476 0.07678 0.0
C369 C 0.35917 0.66607 0.09277 0.0
C370 C 0.33676 0.67758 0.10727 0.0
C371 C 0.30923 0.66775 0.10586 0.0
C372 C 0.30403 0.64646 0.08986 0.0
C373 C 0.27574 0.50021 0.07737 0.0
C374 C 0.25124 0.50707 0.09227 0.0
C375 C 0.29186 0.52009 0.06431 0.0
C376 C 0.28322 0.54697 0.06551 0.0
C377 C 0.25814 0.5535 0.07963 0.0
C378 C 0.24253 0.53387 0.09304 0.0
C379 C 0.30034 0.56873 0.05302 0.0
C380 C 0.3068 0.59023 0.06857 0.0
C381 C 0.30918 0.56918 0.02601 0.0
C382 C 0.30181 0.54792 0.00809 0.0
C383 C 0.27316 0.5416 0.0043 0.0
C384 C 0.26639 0.5215 0.98738 0.0
C385 C 0.28809 0.50773 0.97398 0.0
C386 C 0.3166 0.51409 0.9774 0.0
C387 C 0.32348 0.53416 0.99432 0.0
H388 H 0.28281 0.49218 0.96088 0.0
H389 H 0.34075 0.69408 0.11963 0.0
H390 H 0.54192 0.11759 0.23325 0.0
H391 H 0.58252 0.09682 0.25553 0.0
H392 H 0.53003 0.03225 0.28416 0.0
H393 H 0.48869 0.0529 0.2613 0.0
H394 H 0.56874 0.05468 0.32297 0.0
H395 H 0.57045 0.02059 0.23447 0.0
H396 H 0.56897 0.026 0.18571 0.0
H397 H 0.64404 0.07323 0.18527 0.0
H398 H 0.64572 0.06843 0.2341 0.0
H399 H 0.67531 0.96342 0.36266 0.0
H400 H 0.63489 0.98555 0.34132 0.0
H401 H 0.69149 0.04004 0.2998 0.0
H402 H 0.73267 0.01729 0.32076 0.0
H403 H 0.65107 0.02462 0.26749 0.0
H404 H 0.65209 0.05913 0.35332 0.0
H405 H 0.65458 0.05782 0.4021 0.0
H406 H 0.57609 0.01559 0.40819 0.0
H407 H 0.57343 0.01608 0.35939 0.0
C408 C 0.53874 0.09897 0.24425 0.0
C409 C 0.51199 0.08672 0.24517 0.0
C410 C 0.5621 0.08717 0.25704 0.0
C411 C 0.55934 0.06293 0.27125 0.0
C412 C 0.53253 0.05098 0.27316 0.0
C413 C 0.509 0.06272 0.26005 0.0
C414 C 0.58492 0.04993 0.28322 0.0
C415 C 0.58655 0.04761 0.31092 0.0
C416 C 0.60865 0.042 0.26738 0.0
C417 C 0.6081 0.04429 0.23796 0.0
C418 C 0.58656 0.03225 0.22399 0.0
C419 C 0.58569 0.03519 0.19634 0.0
C420 C 0.60639 0.04996 0.18241 0.0
C421 C 0.62803 0.06177 0.19609 0.0
C422 C 0.62898 0.05892 0.22375 0.0
C423 C 0.67937 0.98004 0.34893 0.0
C424 C 0.70735 0.9886 0.3435 0.0
C425 C 0.6561 0.9928 0.33684 0.0
C426 C 0.66003 0.01478 0.31932 0.0
C427 C 0.68793 0.02317 0.31336 0.0
C428 C 0.71143 0.01018 0.32536 0.0
C429 C 0.63478 0.02872 0.3074 0.0
C430 C 0.63326 0.03148 0.27967 0.0
C431 C 0.61137 0.03754 0.32325 0.0
C432 C 0.6127 0.03743 0.35265 0.0
C433 C 0.63546 0.04938 0.36504 0.0
C434 C 0.6369 0.04881 0.3927 0.0
C435 C 0.61553 0.03662 0.40823 0.0
C436 C 0.59265 0.02501 0.39612 0.0
C437 C 0.59116 0.02542 0.36846 0.0
H438 H 0.61668 0.03622 0.42964 0.0
H439 H 0.60567 0.05223 0.161 0.0
H440 H 0.62395 0.20262 0.51451 0.0
H441 H 0.64647 0.16185 0.49969 0.0
H442 H 0.72028 0.20527 0.4721 0.0
H443 H 0.69748 0.2468 0.48686 0.0
H444 H 0.70391 0.16623 0.4374 0.0
H445 H 0.72377 0.17198 0.52937 0.0
H446 H 0.71136 0.17972 0.57619 0.0
H447 H 0.65598 0.11299 0.57862 0.0
H448 H 0.66759 0.10517 0.53164 0.0
H449 H 0.78524 0.04799 0.42446 0.0
H450 H 0.77039 0.09073 0.44162 0.0
H451 H 0.69094 0.05747 0.46992 0.0
H452 H 0.70562 0.01436 0.4527 0.0
H453 H 0.71494 0.09281 0.5054 0.0
H454 H 0.69066 0.09016 0.41344 0.0
H455 H 0.70064 0.08266 0.36611 0.0
H456 H 0.76324 0.14362 0.36386 0.0
H457 H 0.75388 0.15116 0.41132 0.0
C458 C 0.64495 0.20366 0.5052 0.0
C459 C 0.65915 0.22791 0.50223 0.0
C460 C 0.65779 0.18027 0.49676 0.0
C461 C 0.68529 0.18043 0.48538 0.0
C462 C 0.69911 0.20474 0.48109 0.0
C463 C 0.6861 0.2284 0.48948 0.0
C464 C 0.69948 0.15486 0.47885 0.0
C465 C 0.70692 0.15037 0.45234 0.0
C466 C 0.70278 0.13399 0.49833 0.0
C467 C 0.69644 0.13808 0.52688 0.0
C468 C 0.70884 0.15902 0.53983 0.0
C469 C 0.70194 0.16344 0.56641 0.0
C470 C 0.68287 0.14688 0.58036 0.0
C471 C 0.67075 0.12581 0.56779 0.0
C472 C 0.67751 0.12136 0.54118 0.0
C473 C 0.76473 0.04957 0.43463 0.0
C474 C 0.74646 0.02778 0.43695 0.0
C475 C 0.7563 0.07407 0.4444 0.0
C476 C 0.72943 0.07734 0.4567 0.0
C477 C 0.71177 0.05532 0.46044 0.0
C478 C 0.72018 0.03072 0.45058 0.0
C479 C 0.7191 0.10416 0.46393 0.0
C480 C 0.71233 0.10882 0.49055 0.0
C481 C 0.71638 0.12519 0.44458 0.0
C482 C 0.72178 0.12101 0.41597 0.0
C483 C 0.70668 0.10182 0.40287 0.0
C484 C 0.7122 0.09758 0.37603 0.0
C485 C 0.73261 0.11261 0.362 0.0
C486 C 0.74746 0.13197 0.37477 0.0
C487 C 0.74204 0.13624 0.40164 0.0
H488 H 0.73688 0.10931 0.34122 0.0
H489 H 0.6775 0.15038 0.60091 0.0
H490 H 0.04581 0.38251 0.77841 0.0
H491 H 0.08945 0.39768 0.75615 0.0
H492 H 0.04177 0.46098 0.71593 0.0
H493 H 0.99756 0.4451 0.73755 0.0
H494 H 0.08343 0.44328 0.68444 0.0
H495 H 0.07625 0.47103 0.77371 0.0
H496 H 0.06914 0.46483 0.82211 0.0
H497 H 0.14424 0.41461 0.82637 0.0
H498 H 0.15151 0.4201 0.77786 0.0
H499 H 0.19156 0.53526 0.66109 0.0
H500 H 0.14977 0.51279 0.67924 0.0
H501 H 0.2035 0.44926 0.71137 0.0
H502 H 0.24598 0.47224 0.6938 0.0
H503 H 0.16032 0.46411 0.74605 0.0
H504 H 0.16726 0.44224 0.65293 0.0
H505 H 0.17271 0.45585 0.60551 0.0
H506 H 0.09536 0.50268 0.60993 0.0
H507 H 0.08946 0.48962 0.65732 0.0
C508 C 0.04454 0.39944 0.76453 0.0
C509 C 0.01844 0.41298 0.76004 0.0
C510 C 0.06951 0.40812 0.75187 0.0
C511 C 0.06902 0.43093 0.73501 0.0
C512 C 0.04266 0.44346 0.72908 0.0
C513 C 0.01746 0.43444 0.74143 0.0
C514 C 0.09618 0.44267 0.72522 0.0
C515 C 0.10018 0.44794 0.69791 0.0
C516 C 0.11814 0.44863 0.74282 0.0
C517 C 0.11424 0.44573 0.77209 0.0
C518 C 0.09116 0.45852 0.78493 0.0
C519 C 0.08709 0.45514 0.81238 0.0
C520 C 0.10616 0.43925 0.82728 0.0
C521 C 0.12944 0.42685 0.81478 0.0
C522 C 0.13355 0.43009 0.7873 0.0
C523 C 0.19465 0.51659 0.67216 0.0
C524 C 0.22214 0.50539 0.67576 0.0
C525 C 0.17065 0.50368 0.68239 0.0
C526 C 0.17345 0.47901 0.69601 0.0
C527 C 0.20089 0.46817 0.70062 0.0
C528 C 0.2251 0.48131 0.69061 0.0
C529 C 0.14756 0.46473 0.70529 0.0
C530 C 0.14377 0.45902 0.73255 0.0
C531 C 0.12552 0.45899 0.68771 0.0
C532 C 0.12806 0.46513 0.65874 0.0
C533 C 0.15138 0.45539 0.64377 0.0
C534 C 0.15459 0.46303 0.61694 0.0
C535 C 0.13458 0.48029 0.60488 0.0
C536 C 0.11091 0.48941 0.61938 0.0
C537 C 0.10757 0.48184 0.64619 0.0
H538 H 0.1375 0.48677 0.58435 0.0
H539 H 0.10288 0.4366 0.84851 0.0
H540 H 0.71201 0.93175 0.87819 0.0
H541 H 0.73352 0.89298 0.9011 0.0
H542 H 0.77251 0.94367 0.95615 0.0
H543 H 0.75071 0.98281 0.93336 0.0
H544 H 0.80999 0.90517 0.93608 0.0
H545 H 0.71578 0.90945 0.97585 0.0
H546 H 0.66321 0.91232 0.97519 0.0
H547 H 0.66133 0.83898 0.93502 0.0
H548 H 0.71393 0.83587 0.93509 0.0
H549 H 0.85277 0.80629 0.03093 0.0
H550 H 0.83007 0.84489 0.00881 0.0
H551 H 0.78636 0.7937 0.95741 0.0
H552 H 0.80879 0.75476 0.97971 0.0
H553 H 0.75107 0.83237 0.9752 0.0
H554 H 0.84374 0.82734 0.93459 0.0
H555 H 0.89629 0.82385 0.93307 0.0
H556 H 0.90128 0.89761 0.97212 0.0
H557 H 0.84872 0.90134 0.97425 0.0
C558 C 0.72511 0.93471 0.8952 0.0
C559 C 0.7296 0.96033 0.90406 0.0
C560 C 0.73725 0.9125 0.90836 0.0
C561 C 0.75435 0.91545 0.93046 0.0
C562 C 0.75928 0.94102 0.93915 0.0
C563 C 0.74678 0.9633 0.92619 0.0
C564 C 0.76731 0.89177 0.94422 0.0
C565 C 0.79715 0.88944 0.94505 0.0
C566 C 0.75047 0.87088 0.95503 0.0
C567 C 0.71882 0.87255 0.95528 0.0
C568 C 0.70417 0.89403 0.96671 0.0
C569 C 0.67436 0.89569 0.96647 0.0
C570 C 0.65894 0.87588 0.95502 0.0
C571 C 0.6733 0.85432 0.94386 0.0
C572 C 0.70311 0.85259 0.94402 0.0
C573 C 0.83834 0.80316 0.01492 0.0
C574 C 0.83272 0.7774 0.00699 0.0
C575 C 0.82545 0.8253 0.00223 0.0
C576 C 0.80684 0.8222 0.98122 0.0
C577 C 0.80073 0.79653 0.97355 0.0
C578 C 0.8136 0.77431 0.98628 0.0
C579 C 0.79381 0.84584 0.96732 0.0
C580 C 0.76396 0.84813 0.96636 0.0
C581 C 0.81064 0.8666 0.95615 0.0
C582 C 0.84228 0.86449 0.95482 0.0
C583 C 0.85604 0.84271 0.94305 0.0
C584 C 0.88583 0.84071 0.94205 0.0
C585 C 0.90212 0.86047 0.95255 0.0
C586 C 0.88864 0.88231 0.96402 0.0
C587 C 0.85884 0.88439 0.96512 0.0
H588 H 0.92518 0.85888 0.95175 0.0
H589 H 0.63587 0.87721 0.95483 0.0
H590 H 0.50704 0.55033 0.25093 0.0
H591 H 0.47264 0.52154 0.23111 0.0
H592 H 0.40324 0.56881 0.26309 0.0
H593 H 0.43724 0.59718 0.28333 0.0
H594 H 0.39277 0.51751 0.27032 0.0
H595 H 0.42372 0.57504 0.1948 0.0
H596 H 0.45872 0.59466 0.16281 0.0
H597 H 0.48856 0.51684 0.14276 0.0
H598 H 0.45341 0.49672 0.17418 0.0
H599 H 0.27605 0.48404 0.19185 0.0
H600 H 0.31392 0.505 0.21561 0.0
H601 H 0.37704 0.4564 0.17573 0.0
H602 H 0.3394 0.43615 0.15129 0.0
H603 H 0.3934 0.50461 0.17342 0.0
H604 H 0.35884 0.44676 0.24344 0.0
H605 H 0.32304 0.42592 0.2736 0.0
H606 H 0.30148 0.50176 0.30511 0.0
H607 H 0.33688 0.52313 0.27487 0.0
C608 C 0.48445 0.5545 0.25382 0.0
C609 C 0.4749 0.57607 0.26869 0.0
C610 C 0.46482 0.53814 0.24234 0.0
C611 C 0.43536 0.54322 0.24536 0.0
C612 C 0.42585 0.56451 0.2605 0.0
C613 C 0.44538 0.58075 0.27203 0.0
C614 C 0.41418 0.52648 0.23293 0.0
C615 C 0.39274 0.51484 0.24909 0.0
C616 C 0.41468 0.52226 0.20539 0.0
C617 C 0.43619 0.53441 0.18702 0.0
C618 C 0.4379 0.56214 0.18371 0.0
C619 C 0.4577 0.57335 0.16566 0.0
C620 C 0.47602 0.55704 0.15101 0.0
C621 C 0.47443 0.52946 0.15419 0.0
C622 C 0.45449 0.51814 0.172 0.0
C623 C 0.29798 0.47762 0.18843 0.0
C624 C 0.3048 0.45853 0.16968 0.0
C625 C 0.31962 0.48952 0.20209 0.0
C626 C 0.34838 0.48211 0.19766 0.0
C627 C 0.35506 0.46251 0.17945 0.0
C628 C 0.33351 0.45092 0.16552 0.0
C629 C 0.37161 0.49589 0.21072 0.0
C630 C 0.39348 0.50699 0.19469 0.0
C631 C 0.37161 0.49938 0.23842 0.0
C632 C 0.35037 0.48658 0.25672 0.0
C633 C 0.34633 0.45903 0.25667 0.0
C634 C 0.32612 0.44711 0.2738 0.0
C635 C 0.30995 0.46251 0.29122 0.0
C636 C 0.314 0.48986 0.29159 0.0
C637 C 0.33416 0.50188 0.27448 0.0
H638 H 0.29432 0.45325 0.30446 0.0
H639 H 0.49134 0.56578 0.13708 0.0
H640 H 0.48008 0.18004 0.26048 0.0
H641 H 0.50276 0.20722 0.29308 0.0
H642 H 0.45292 0.169 0.35589 0.0
H643 H 0.43057 0.14168 0.32365 0.0
H644 H 0.4572 0.22452 0.36038 0.0
H645 H 0.51614 0.14639 0.34579 0.0
H646 H 0.54428 0.11538 0.31852 0.0
H647 H 0.60012 0.17822 0.29321 0.0
H648 H 0.57198 0.20974 0.31995 0.0
H649 H 0.53312 0.23986 0.478 0.0
H650 H 0.50917 0.22182 0.44035 0.0
H651 H 0.56964 0.25982 0.38644 0.0
H652 H 0.59386 0.27782 0.42394 0.0
H653 H 0.5608 0.20848 0.3742 0.0
H654 H 0.50395 0.28581 0.39238 0.0
H655 H 0.47569 0.31626 0.42012 0.0
H656 H 0.41585 0.25477 0.439 0.0
H657 H 0.44399 0.22381 0.41169 0.0
C658 C 0.47367 0.17782 0.28119 0.0
C659 C 0.45376 0.15871 0.28965 0.0
C660 C 0.48667 0.19323 0.29974 0.0
C661 C 0.47958 0.1899 0.32683 0.0
C662 C 0.45863 0.17181 0.33506 0.0
C663 C 0.446 0.15617 0.31665 0.0
C664 C 0.49517 0.20386 0.347 0.0
C665 C 0.47982 0.22099 0.36351 0.0
C666 C 0.52476 0.19947 0.35065 0.0
C667 C 0.54173 0.18051 0.3346 0.0
C668 C 0.53424 0.15367 0.33419 0.0
C669 C 0.55021 0.13598 0.31887 0.0
C670 C 0.57392 0.14485 0.3041 0.0
C671 C 0.58171 0.1714 0.30463 0.0
C672 C 0.56575 0.18919 0.31985 0.0
C673 C 0.54133 0.2444 0.45815 0.0
C674 C 0.56533 0.26033 0.45396 0.0
C675 C 0.52755 0.23416 0.43666 0.0
C676 C 0.53748 0.23974 0.41062 0.0
C677 C 0.56163 0.25536 0.40639 0.0
C678 C 0.57537 0.26567 0.42785 0.0
C679 C 0.52278 0.22901 0.38784 0.0
C680 C 0.53827 0.21238 0.37087 0.0
C681 C 0.4933 0.23382 0.3838 0.0
C682 C 0.47622 0.25242 0.40016 0.0
C683 C 0.48489 0.27871 0.40261 0.0
C684 C 0.46887 0.29608 0.41823 0.0
C685 C 0.44403 0.28744 0.43136 0.0
C686 C 0.43511 0.26143 0.42884 0.0
C687 C 0.45107 0.24397 0.41327 0.0
H688 H 0.43166 0.30092 0.44345 0.0
H689 H 0.58633 0.13112 0.29233 0.0
H690 H 0.08795 0.21732 0.53877 0.0
H691 H 0.07004 0.24531 0.57387 0.0
H692 H 0.03458 0.30087 0.51554 0.0
H693 H 0.05206 0.27247 0.4799 0.0
H694 H 0.06847 0.32384 0.5577 0.0
H695 H 0.98969 0.26643 0.5469 0.0
H696 H 0.96696 0.2233 0.54229 0.0
H697 H 0.99649 0.19689 0.61915 0.0
H698 H 0.01979 0.23974 0.62405 0.0
H699 H 0.98793 0.39491 0.65557 0.0
H700 H 0.00614 0.37231 0.61663 0.0
H701 H 0.02798 0.30328 0.66608 0.0
H702 H 0.00915 0.32554 0.70507 0.0
H703 H 0.99906 0.28926 0.62544 0.0
H704 H 0.07886 0.34536 0.63656 0.0
H705 H 0.10378 0.38741 0.6413 0.0
H706 H 0.07471 0.41566 0.56488 0.0
H707 H 0.0493 0.37395 0.55982 0.0
C708 C 0.07618 0.23539 0.53326 0.0
C709 C 0.07158 0.24271 0.50644 0.0
C710 C 0.06601 0.25139 0.55341 0.0
C711 C 0.05111 0.27518 0.5473 0.0
C712 C 0.0462 0.2826 0.52061 0.0
C713 C 0.05605 0.26631 0.50032 0.0
C714 C 0.04061 0.29184 0.56915 0.0
C715 C 0.05287 0.31662 0.5723 0.0
C716 C 0.02093 0.28195 0.5885 0.0
C717 C 0.00669 0.25624 0.58574 0.0
C718 C 0.99153 0.25136 0.56274 0.0
C719 C 0.97851 0.22697 0.56008 0.0
C720 C 0.98033 0.20735 0.58039 0.0
C721 C 0.99511 0.2121 0.60343 0.0
C722 C 0.00821 0.23645 0.60616 0.0
C723 C 0.99698 0.37505 0.65826 0.0
C724 C 0.99693 0.36197 0.68345 0.0
C725 C 0.00752 0.36218 0.63593 0.0
C726 C 0.01855 0.33609 0.63836 0.0
C727 C 0.01948 0.32338 0.66366 0.0
C728 C 0.00879 0.33616 0.68597 0.0
C729 C 0.02715 0.32131 0.61444 0.0
C730 C 0.01451 0.29676 0.61085 0.0
C731 C 0.04664 0.33142 0.59485 0.0
C732 C 0.06185 0.35661 0.59795 0.0
C733 C 0.07754 0.36063 0.62087 0.0
C734 C 0.09182 0.38439 0.62359 0.0
C735 C 0.09077 0.40423 0.60344 0.0
C736 C 0.07548 0.40031 0.5805 0.0
C737 C 0.06115 0.3766 0.57768 0.0
H738 H 0.10187 0.42259 0.60557 0.0
H739 H 0.97024 0.18848 0.5783 0.0
H740 H 0.98187 0.85676 0.78208 0.0
H741 H 0.96927 0.825 0.81775 0.0
H742 H 0.99345 0.76021 0.76816 0.0
H743 H 0.00596 0.79225 0.73183 0.0
H744 H 0.94381 0.75055 0.80086 0.0
H745 H 0.03951 0.77424 0.8101 0.0
H746 H 0.08009 0.80429 0.80946 0.0
H747 H 0.04256 0.84557 0.87474 0.0
H748 H 0.00138 0.81593 0.87552 0.0
H749 H 0.93909 0.67521 0.92594 0.0
H750 H 0.96029 0.69317 0.88431 0.0
H751 H 0.93645 0.77244 0.90647 0.0
H752 H 0.91488 0.75469 0.94779 0.0
H753 H 0.99418 0.76556 0.88442 0.0
H754 H 0.89469 0.7432 0.86805 0.0
H755 H 0.85583 0.71107 0.86762 0.0
H756 H 0.90528 0.66312 0.81445 0.0
H757 H 0.94467 0.69472 0.81501 0.0
C758 C 0.98421 0.83576 0.77858 0.0
C759 C 0.99525 0.82694 0.75433 0.0
C760 C 0.97701 0.81764 0.79898 0.0
C761 C 0.98101 0.79033 0.79572 0.0
C762 C 0.99038 0.78126 0.77102 0.0
C763 C 0.99748 0.79953 0.75036 0.0
C764 C 0.97699 0.77194 0.81901 0.0
C765 C 0.95526 0.75332 0.81897 0.0
C766 C 0.99218 0.77543 0.84253 0.0
C767 C 0.01723 0.79295 0.84274 0.0
C768 C 0.03977 0.78986 0.82419 0.0
C769 C 0.06284 0.80691 0.82373 0.0
C770 C 0.06381 0.82702 0.84189 0.0
C771 C 0.04173 0.83003 0.86063 0.0
C772 C 0.01852 0.81308 0.86111 0.0
C773 C 0.93854 0.69645 0.92198 0.0
C774 C 0.92508 0.7135 0.93997 0.0
C775 C 0.95065 0.70664 0.89826 0.0
C776 C 0.94974 0.73404 0.89238 0.0
C777 C 0.93735 0.7512 0.91075 0.0
C778 C 0.92494 0.74102 0.93428 0.0
C779 C 0.96022 0.74504 0.86652 0.0
C780 C 0.98325 0.76228 0.86614 0.0
C781 C 0.94667 0.73976 0.84255 0.0
C782 C 0.92273 0.72114 0.84181 0.0
C783 C 0.89735 0.72569 0.85644 0.0
C784 C 0.87524 0.70758 0.85617 0.0
C785 C 0.87814 0.685 0.84111 0.0
C786 C 0.9031 0.68057 0.82618 0.0
C787 C 0.92533 0.69856 0.82647 0.0
H788 H 0.86101 0.67097 0.84096 0.0
H789 H 0.08179 0.84008 0.84166 0.0
H790 H 0.52242 0.68676 0.20443 0.0
H791 H 0.50414 0.7093 0.16411 0.0
H792 H 0.44158 0.64842 0.1581 0.0
H793 H 0.46048 0.62557 0.198 0.0
H794 H 0.46524 0.65641 0.11222 0.0
H795 H 0.42429 0.71398 0.17643 0.0
H796 H 0.4237 0.74322 0.21443 0.0
H797 H 0.4808 0.79613 0.17224 0.0
H798 H 0.48203 0.76702 0.1341 0.0
H799 H 0.36911 0.74251 0.02909 0.0
H800 H 0.3892 0.71784 0.06758 0.0
H801 H 0.4736 0.74205 0.04291 0.0
H802 H 0.45367 0.76563 0.00353 0.0
H803 H 0.44018 0.75235 0.10265 0.0
H804 H 0.47726 0.69239 0.03635 0.0
H805 H 0.47229 0.66293 0.99912 0.0
H806 H 0.41763 0.61257 0.04716 0.0
H807 H 0.4216 0.64222 0.08449 0.0
C808 C 0.50438 0.67856 0.19477 0.0
C809 C 0.49285 0.65442 0.20417 0.0
C810 C 0.49394 0.69141 0.17169 0.0
C811 C 0.47137 0.68064 0.15796 0.0
C812 C 0.45914 0.65705 0.1681 0.0
C813 C 0.46986 0.64404 0.19091 0.0
C814 C 0.46132 0.69321 0.13244 0.0
C815 C 0.45953 0.67735 0.11026 0.0
C816 C 0.45418 0.72062 0.12962 0.0
C817 C 0.45349 0.73817 0.15252 0.0
C818 C 0.4369 0.73174 0.17534 0.0
C819 C 0.43642 0.74832 0.19689 0.0
C820 C 0.45227 0.77148 0.19578 0.0
C821 C 0.46857 0.77816 0.17308 0.0
C822 C 0.46915 0.76164 0.15149 0.0
C823 C 0.39202 0.74202 0.03162 0.0
C824 C 0.40997 0.75569 0.01337 0.0
C825 C 0.40343 0.72794 0.05353 0.0
C826 C 0.43287 0.7279 0.05786 0.0
C827 C 0.45086 0.74151 0.03961 0.0
C828 C 0.43954 0.75489 0.01718 0.0
C829 C 0.44433 0.71556 0.08268 0.0
C830 C 0.44614 0.73145 0.10471 0.0
C831 C 0.45102 0.68812 0.08543 0.0
C832 C 0.44887 0.67017 0.06297 0.0
C833 C 0.46355 0.67548 0.0388 0.0
C834 C 0.46109 0.6586 0.01772 0.0
C835 C 0.44443 0.63603 0.02068 0.0
C836 C 0.43036 0.63019 0.04481 0.0
C837 C 0.43263 0.64709 0.06591 0.0
H838 H 0.44255 0.62297 0.00434 0.0
H839 H 0.45186 0.78429 0.21248 0.0
H840 H 0.16978 0.28211 0.36043 0.0
H841 H 0.16819 0.31482 0.32369 0.0
H842 H 0.0765 0.32053 0.3316 0.0
H843 H 0.07783 0.28746 0.36879 0.0
H844 H 0.09703 0.31806 0.27825 0.0
H845 H 0.11076 0.36883 0.35405 0.0
H846 H 0.1322 0.3797 0.39635 0.0
H847 H 0.21403 0.38765 0.35737 0.0
H848 H 0.19318 0.3764 0.3149 0.0
H849 H 0.14826 0.45515 0.21328 0.0
H850 H 0.12725 0.42887 0.25019 0.0
H851 H 0.15709 0.35689 0.21427 0.0
H852 H 0.17764 0.38292 0.17713 0.0
H853 H 0.15494 0.39864 0.28467 0.0
H854 H 0.11541 0.30577 0.23191 0.0
H855 H 0.09256 0.29572 0.19002 0.0
H856 H 0.05752 0.37509 0.18372 0.0
H857 H 0.07978 0.38552 0.22578 0.0
C858 C 0.1492 0.29018 0.35441 0.0
C859 C 0.12392 0.2823 0.36765 0.0
C860 C 0.14836 0.30894 0.33342 0.0
C861 C 0.12227 0.32029 0.32521 0.0
C862 C 0.09684 0.31201 0.33779 0.0
C863 C 0.09765 0.29322 0.35902 0.0
C864 C 0.12221 0.34106 0.30367 0.0
C865 C 0.10939 0.33586 0.27962 0.0
C866 C 0.13776 0.36454 0.30584 0.0
C867 C 0.15039 0.37165 0.33129 0.0
C868 C 0.13336 0.37274 0.35452 0.0
C869 C 0.14541 0.37898 0.37853 0.0
C870 C 0.17447 0.38434 0.37955 0.0
C871 C 0.19152 0.38351 0.35655 0.0
C872 C 0.17959 0.37724 0.33249 0.0
C873 C 0.15001 0.43371 0.21305 0.0
C874 C 0.16476 0.42112 0.19233 0.0
C875 C 0.13796 0.41873 0.23415 0.0
C876 C 0.14038 0.39093 0.23489 0.0
C877 C 0.15445 0.3783 0.21388 0.0
C878 C 0.16639 0.39324 0.19273 0.0
C879 C 0.1308 0.37515 0.25873 0.0
C880 C 0.14196 0.38123 0.28329 0.0
C881 C 0.11337 0.35274 0.25706 0.0
C882 C 0.09943 0.34646 0.23197 0.0
C883 C 0.10267 0.32103 0.2217 0.0
C884 C 0.08985 0.31528 0.19789 0.0
C885 C 0.07365 0.33477 0.18419 0.0
C886 C 0.07015 0.36003 0.19431 0.0
C887 C 0.08289 0.36588 0.21813 0.0
H888 H 0.06378 0.33029 0.16574 0.0
H889 H 0.18376 0.38915 0.39817 0.0
H890 H 0.9586 0.93249 0.61359 0.0
H891 H 0.92962 0.93517 0.57425 0.0
H892 H 0.93597 0.85003 0.5688 0.0
H893 H 0.96463 0.84712 0.6091 0.0
H894 H 0.94055 0.92432 0.52586 0.0
H895 H 0.87516 0.82924 0.53819 0.0
H896 H 0.85731 0.79845 0.57374 0.0
H897 H 0.85667 0.86112 0.62885 0.0
H898 H 0.87416 0.89232 0.59356 0.0
H899 H 0.85676 0.92321 0.41047 0.0
H900 H 0.88967 0.91026 0.44594 0.0
H901 H 0.82027 0.91463 0.50335 0.0
H902 H 0.78714 0.9258 0.46773 0.0
H903 H 0.85052 0.87585 0.51786 0.0
H904 H 0.87731 0.96754 0.49459 0.0
H905 H 0.89409 0.00522 0.46611 0.0
H906 H 0.96605 0.95816 0.44003 0.0
H907 H 0.95011 0.92051 0.46907 0.0
C908 C 0.95391 0.91425 0.60412 0.0
C909 C 0.96396 0.88956 0.61451 0.0
C910 C 0.93734 0.91584 0.5815 0.0
C911 C 0.93049 0.89282 0.56852 0.0
C912 C 0.94067 0.86805 0.57865 0.0
C913 C 0.95713 0.86641 0.6016 0.0
C914 C 0.91273 0.89532 0.5444 0.0
C915 C 0.92094 0.91355 0.52406 0.0
C916 C 0.88705 0.88148 0.54201 0.0
C917 C 0.87631 0.86298 0.56332 0.0
C918 C 0.87115 0.83643 0.55789 0.0
C919 C 0.8611 0.81892 0.57798 0.0
C920 C 0.85597 0.82779 0.60356 0.0
C921 C 0.86077 0.85423 0.60906 0.0
C922 C 0.87078 0.87183 0.58903 0.0
C923 C 0.84857 0.92126 0.43067 0.0
C924 C 0.81938 0.92552 0.43633 0.0
C925 C 0.86745 0.91409 0.45102 0.0
C926 C 0.85773 0.91193 0.47758 0.0
C927 C 0.82846 0.91601 0.48312 0.0
C928 C 0.80949 0.92248 0.46273 0.0
C929 C 0.87778 0.90568 0.49972 0.0
C930 C 0.87024 0.88645 0.5195 0.0
C931 C 0.90365 0.91927 0.50215 0.0
C932 C 0.91232 0.9412 0.4836 0.0
C933 C 0.89654 0.96521 0.48255 0.0
C934 C 0.90599 0.98658 0.46644 0.0
C935 C 0.93096 0.98399 0.45103 0.0
C936 C 0.94666 0.96009 0.45187 0.0
C937 C 0.93754 0.93881 0.46828 0.0
H938 H 0.93831 0.00052 0.43857 0.0
H939 H 0.84821 0.8142 0.61909 0.0
H940 H 0.35341 0.6253 0.67232 0.0
H941 H 0.36782 0.64698 0.71236 0.0
H942 H 0.30687 0.60121 0.75891 0.0
H943 H 0.29257 0.57922 0.71913 0.0
H944 H 0.30167 0.6572 0.76381 0.0
H945 H 0.37424 0.58748 0.7668 0.0
H946 H 0.41454 0.56119 0.74866 0.0
H947 H 0.4643 0.63151 0.73919 0.0
H948 H 0.42411 0.6583 0.75694 0.0
H949 H 0.32585 0.68523 0.8941 0.0
H950 H 0.32322 0.66209 0.85296 0.0
H951 H 0.3939 0.70682 0.82018 0.0
H952 H 0.39709 0.72994 0.86206 0.0
H953 H 0.39679 0.65519 0.80533 0.0
H954 H 0.32721 0.72497 0.80375 0.0
H955 H 0.28762 0.75304 0.82054 0.0
H956 H 0.23272 0.68596 0.82446 0.0
H957 H 0.27214 0.65734 0.80819 0.0
C958 C 0.34344 0.6195 0.69117 0.0
C959 C 0.32177 0.60059 0.69253 0.0
C960 C 0.35173 0.63189 0.71401 0.0
C961 C 0.33834 0.62575 0.73856 0.0
C962 C 0.31743 0.60624 0.74013 0.0
C963 C 0.30939 0.59359 0.71739 0.0
C964 C 0.3445 0.64099 0.76223 0.0
C965 C 0.32236 0.65652 0.7731 0.0
C966 C 0.37188 0.64104 0.77353 0.0
C967 C 0.39605 0.62494 0.76291 0.0
C968 C 0.39367 0.59738 0.76061 0.0
C969 C 0.41652 0.58238 0.75046 0.0
C970 C 0.44194 0.59468 0.7427 0.0
C971 C 0.44458 0.62201 0.74516 0.0
C972 C 0.42178 0.63711 0.75529 0.0
C973 C 0.34102 0.69011 0.87825 0.0
C974 C 0.36144 0.7097 0.88119 0.0
C975 C 0.33943 0.67686 0.85469 0.0
C976 C 0.35788 0.68317 0.83323 0.0
C977 C 0.37929 0.70181 0.83643 0.0
C978 C 0.38109 0.71499 0.86031 0.0
C979 C 0.35368 0.67081 0.8074 0.0
C980 C 0.37614 0.656 0.79599 0.0
C981 C 0.32666 0.67175 0.79525 0.0
C982 C 0.30275 0.68894 0.80493 0.0
C983 C 0.30677 0.71614 0.80839 0.0
C984 C 0.28434 0.73216 0.8178 0.0
C985 C 0.25768 0.72128 0.8236 0.0
C986 C 0.25339 0.69435 0.81998 0.0
C987 C 0.27577 0.67822 0.81064 0.0
H988 H 0.24035 0.73372 0.83087 0.0
H989 H 0.4596 0.58303 0.73485 0.0
H990 H 0.5839 0.10221 0.1545 0.0
H991 H 0.61374 0.09549 0.11473 0.0
H992 H 0.54583 0.12725 0.06563 0.0
H993 H 0.51608 0.13438 0.10515 0.0
H994 H 0.56917 0.07519 0.05261 0.0
H995 H 0.59835 0.16402 0.07012 0.0
H996 H 0.61727 0.19841 0.09787 0.0
H997 H 0.69515 0.15286 0.10755 0.0
H998 H 0.67651 0.118 0.08014 0.0
H999 H 0.63667 0.08188 0.92633 0.0
H1000 H 0.60998 0.09147 0.96701 0.0
H1001 H 0.68668 0.07895 0.01217 0.0
H1002 H 0.71369 0.07018 0.97143 0.0
H1003 H 0.65953 0.1204 0.02864 0.0
H1004 H 0.63347 0.03257 0.01042 0.0
H1005 H 0.61549 0.99579 0.98525 0.0
H1006 H 0.53332 0.03482 0.98029 0.0
H1007 H 0.55096 0.07218 0.00486 0.0
C1008 C 0.57553 0.1081 0.13524 0.0
C1009 C 0.5477 0.11879 0.13289 0.0
C1010 C 0.59256 0.10428 0.11261 0.0
C1011 C 0.58184 0.11085 0.08738 0.0
C1012 C 0.55436 0.12208 0.08501 0.0
C1013 C 0.5375 0.12628 0.1076 0.0
C1014 C 0.59868 0.10476 0.06331 0.0
C1015 C 0.58877 0.08522 0.04706 0.0
C1016 C 0.62466 0.11731 0.05689 0.0
C1017 C 0.6359 0.13827 0.07332 0.0
C1018 C 0.61939 0.16121 0.07838 0.0
C1019 C 0.6301 0.18082 0.094 0.0
C1020 C 0.65736 0.17779 0.10454 0.0
C1021 C 0.67402 0.15517 0.09941 0.0
C1022 C 0.6634 0.13549 0.08382 0.0
C1023 C 0.64786 0.08122 0.94492 0.0
C1024 C 0.67727 0.07525 0.9457 0.0
C1025 C 0.63254 0.08654 0.96818 0.0
C1026 C 0.64624 0.08551 0.9927 0.0
C1027 C 0.67567 0.07982 0.99347 0.0
C1028 C 0.69107 0.0748 0.97018 0.0
C1029 C 0.62998 0.09082 0.0175 0.0
C1030 C 0.63999 0.11019 0.03402 0.0
C1031 C 0.60428 0.07771 0.02442 0.0
C1032 C 0.5937 0.05542 0.00921 0.0
C1033 C 0.61167 0.03351 0.00367 0.0
C1034 C 0.60152 0.01252 0.98955 0.0
C1035 C 0.57331 0.013 0.98112 0.0
C1036 C 0.55519 0.0345 0.98677 0.0
C1037 C 0.56528 0.05562 0.00076 0.0
H1038 H 0.56546 0.99667 0.97029 0.0
H1039 H 0.66562 0.193 0.11661 0.0
H1040 H 0.6155 0.20904 0.62958 0.0
H1041 H 0.62126 0.18493 0.67223 0.0
H1042 H 0.70988 0.20634 0.67249 0.0
H1043 H 0.70449 0.22961 0.62938 0.0
H1044 H 0.70524 0.15807 0.69211 0.0
H1045 H 0.65791 0.24111 0.70682 0.0
H1046 H 0.62103 0.27635 0.70053 0.0
H1047 H 0.55635 0.22229 0.72803 0.0
H1048 H 0.59284 0.18662 0.73416 0.0
H1049 H 0.71746 0.16738 0.83546 0.0
H1050 H 0.7041 0.18444 0.79129 0.0
H1051 H 0.65825 0.113 0.77911 0.0
H1052 H 0.67233 0.09523 0.82305 0.0
H1053 H 0.63965 0.18366 0.76572 0.0
H1054 H 0.69437 0.09876 0.74583 0.0
H1055 H 0.73611 0.06928 0.75486 0.0
H1056 H 0.79208 0.13455 0.73915 0.0
H1057 H 0.75056 0.16458 0.731 0.0
C1058 C 0.63627 0.20838 0.63863 0.0
C1059 C 0.65948 0.2214 0.6263 0.0
C1060 C 0.63952 0.19467 0.66303 0.0
C1061 C 0.66586 0.19425 0.67581 0.0
C1062 C 0.68934 0.2064 0.66302 0.0
C1063 C 0.68622 0.21975 0.63842 0.0
C1064 C 0.66865 0.18229 0.70303 0.0
C1065 C 0.69074 0.1636 0.70809 0.0
C1066 C 0.65002 0.18969 0.72409 0.0
C1067 C 0.62806 0.21114 0.72069 0.0
C1068 C 0.6358 0.23671 0.71138 0.0
C1069 C 0.61497 0.25676 0.70786 0.0
C1070 C 0.58635 0.25154 0.71382 0.0
C1071 C 0.57852 0.22629 0.72339 0.0
C1072 C 0.59927 0.20615 0.72691 0.0
C1073 C 0.70413 0.15543 0.82361 0.0
C1074 C 0.69609 0.12988 0.83263 0.0
C1075 C 0.69663 0.16519 0.79837 0.0
C1076 C 0.68066 0.14973 0.78195 0.0
C1077 C 0.67099 0.12496 0.79147 0.0
C1078 C 0.67893 0.11494 0.81655 0.0
C1079 C 0.67558 0.1591 0.75436 0.0
C1080 C 0.65347 0.17766 0.74942 0.0
C1081 C 0.69452 0.15206 0.73355 0.0
C1082 C 0.71938 0.13395 0.73826 0.0
C1083 C 0.71555 0.10689 0.74473 0.0
C1084 C 0.73917 0.09008 0.74967 0.0
C1085 C 0.76673 0.10008 0.74779 0.0
C1086 C 0.77072 0.12687 0.74085 0.0
C1087 C 0.74716 0.1438 0.73613 0.0
H1088 H 0.78499 0.08704 0.75157 0.0
H1089 H 0.57025 0.26708 0.71107 0.0
H1090 H 0.09057 0.45749 0.09012 0.0
H1091 H 0.07165 0.44104 0.04954 0.0
H1092 H 0.15467 0.40826 0.02895 0.0
H1093 H 0.1741 0.42575 0.06926 0.0
H1094 H 0.13422 0.43185 0.98765 0.0
H1095 H 0.09726 0.36786 0.04916 0.0
H1096 H 0.07342 0.35051 0.09009 0.0
H1097 H 0.99519 0.39011 0.06706 0.0
H1098 H 0.01866 0.40804 0.02617 0.0
H1099 H 0.02037 0.36283 0.90122 0.0
H1100 H 0.04905 0.36327 0.94121 0.0
H1101 H 0.06322 0.44692 0.92664 0.0
H1102 H 0.03551 0.44643 0.88639 0.0
H1103 H 0.04124 0.38708 0.98497 0.0
H1104 H 0.1251 0.46549 0.94876 0.0
H1105 H 0.15171 0.47787 0.90759 0.0
H1106 H 0.14191 0.39943 0.87957 0.0
H1107 H 0.11558 0.38644 0.9207 0.0
C1108 C 0.10477 0.4465 0.07715 0.0
C1109 C 0.13382 0.44285 0.08292 0.0
C1110 C 0.09387 0.43695 0.05397 0.0
C1111 C 0.11159 0.42298 0.03632 0.0
C1112 C 0.14055 0.41891 0.04227 0.0
C1113 C 0.15161 0.42884 0.06533 0.0
C1114 C 0.10005 0.41418 0.01098 0.0
C1115 C 0.11403 0.42184 0.98709 0.0
C1116 C 0.07416 0.40032 0.01015 0.0
C1117 C 0.05979 0.3894 0.03463 0.0
C1118 C 0.07502 0.373 0.05288 0.0
C1119 C 0.06156 0.36304 0.07608 0.0
C1120 C 0.03282 0.36923 0.08118 0.0
C1121 C 0.01745 0.38533 0.06307 0.0
C1122 C 0.03081 0.39536 0.03985 0.0
C1123 C 0.02984 0.38125 0.90644 0.0
C1124 C 0.0257 0.40459 0.89062 0.0
C1125 C 0.04618 0.38147 0.92931 0.0
C1126 C 0.05864 0.40503 0.93678 0.0
C1127 C 0.05444 0.42833 0.92099 0.0
C1128 C 0.03838 0.42807 0.89805 0.0
C1129 C 0.07481 0.40582 0.96174 0.0
C1130 C 0.06169 0.39666 0.98555 0.0
C1131 C 0.10197 0.41747 0.96246 0.0
C1132 C 0.1182 0.42505 0.9378 0.0
C1133 C 0.12878 0.45082 0.9339 0.0
C1134 C 0.14378 0.45796 0.91054 0.0
C1135 C 0.14848 0.43946 0.89097 0.0
C1136 C 0.13823 0.41375 0.89474 0.0
C1137 C 0.12321 0.40651 0.91805 0.0
H1138 H 0.16003 0.44504 0.87287 0.0
H1139 H 0.02245 0.36152 0.09916 0.0
H1140 H 0.79656 0.91946 0.30557 0.0
H1141 H 0.80806 0.90179 0.26188 0.0
H1142 H 0.79281 0.82247 0.29319 0.0
H1143 H 0.78176 0.83972 0.33681 0.0
H1144 H 0.84962 0.86354 0.24586 0.0
H1145 H 0.75324 0.79199 0.24258 0.0
H1146 H 0.70269 0.78989 0.25686 0.0
H1147 H 0.69912 0.87451 0.26339 0.0
H1148 H 0.74933 0.87725 0.24836 0.0
H1149 H 0.87241 0.76522 0.14995 0.0
H1150 H 0.86272 0.78959 0.1902 0.0
H1151 H 0.79097 0.82974 0.15277 0.0
H1152 H 0.80022 0.80515 0.11269 0.0
H1153 H 0.7763 0.81342 0.20061 0.0
H1154 H 0.85397 0.86181 0.16229 0.0
H1155 H 0.902 0.86826 0.14258 0.0
H1156 H 0.93985 0.83694 0.2144 0.0
H1157 H 0.89201 0.82996 0.23443 0.0
C1158 C 0.79596 0.89823 0.30321 0.0
C1159 C 0.7882 0.88102 0.32469 0.0
C1160 C 0.80251 0.88818 0.27826 0.0
C1161 C 0.8009 0.86086 0.27428 0.0
C1162 C 0.79383 0.84364 0.2958 0.0
C1163 C 0.78768 0.85357 0.32076 0.0
C1164 C 0.80633 0.85013 0.24765 0.0
C1165 C 0.83361 0.85257 0.23594 0.0
C1166 C 0.78521 0.83631 0.23448 0.0
C1167 C 0.75527 0.83477 0.24465 0.0
C1168 C 0.74168 0.81017 0.24702 0.0
C1169 C 0.71301 0.80888 0.25506 0.0
C1170 C 0.69769 0.83206 0.26095 0.0
C1171 C 0.71102 0.85657 0.25885 0.0
C1172 C 0.73962 0.85799 0.25058 0.0
C1173 C 0.85466 0.77934 0.15023 0.0
C1174 C 0.8371 0.78324 0.12808 0.0
C1175 C 0.84922 0.79336 0.17323 0.0
C1176 C 0.82629 0.81174 0.17446 0.0
C1177 C 0.80881 0.8157 0.15232 0.0
C1178 C 0.81417 0.80165 0.12937 0.0
C1179 C 0.81984 0.82612 0.19912 0.0
C1180 C 0.79235 0.82433 0.21053 0.0
C1181 C 0.84058 0.84095 0.21172 0.0
C1182 C 0.86939 0.84515 0.19977 0.0
C1183 C 0.87253 0.85611 0.17381 0.0
C1184 C 0.89972 0.85989 0.1626 0.0
C1185 C 0.92396 0.85296 0.17721 0.0
C1186 C 0.92105 0.84228 0.2031 0.0
C1187 C 0.8939 0.83843 0.2144 0.0
H1188 H 0.945 0.85591 0.16849 0.0
H1189 H 0.67552 0.83102 0.26726 0.0
H1190 H 0.36468 0.53104 0.58638 0.0
H1191 H 0.39537 0.54327 0.54846 0.0
H1192 H 0.34305 0.61353 0.53286 0.0
H1193 H 0.31149 0.60075 0.5701 0.0
H1194 H 0.35188 0.59032 0.48936 0.0
H1195 H 0.41228 0.61417 0.55867 0.0
H1196 H 0.43961 0.609 0.59983 0.0
H1197 H 0.49164 0.54762 0.56566 0.0
H1198 H 0.46401 0.5517 0.52464 0.0
H1199 H 0.44879 0.64152 0.38935 0.0
H1200 H 0.42242 0.63713 0.43174 0.0
H1201 H 0.45606 0.5573 0.44359 0.0
H1202 H 0.48204 0.56132 0.40116 0.0
H1203 H 0.45771 0.58946 0.4894 0.0
H1204 H 0.39265 0.56323 0.42238 0.0
H1205 H 0.36592 0.56985 0.38096 0.0
H1206 H 0.32395 0.63906 0.41156 0.0
H1207 H 0.35078 0.63305 0.45304 0.0
C1208 C 0.3598 0.54921 0.57503 0.0
C1209 C 0.33547 0.5648 0.58112 0.0
C1210 C 0.37754 0.5563 0.55343 0.0
C1211 C 0.37173 0.57948 0.53788 0.0
C1212 C 0.34795 0.59552 0.54449 0.0
C1213 C 0.32995 0.58821 0.56582 0.0
C1214 C 0.38919 0.586 0.51366 0.0
C1215 C 0.37501 0.59064 0.48959 0.0
C1216 C 0.41944 0.58594 0.51372 0.0
C1217 C 0.43581 0.58307 0.53862 0.0
C1218 C 0.42927 0.59929 0.56005 0.0
C1219 C 0.44482 0.59654 0.58338 0.0
C1220 C 0.46722 0.57785 0.58544 0.0
C1221 C 0.47413 0.56191 0.56414 0.0
C1222 C 0.4585 0.56441 0.54085 0.0
C1223 C 0.45061 0.62307 0.40104 0.0
C1224 C 0.46731 0.6017 0.39188 0.0
C1225 C 0.43557 0.62061 0.4252 0.0
C1226 C 0.4373 0.59687 0.44067 0.0
C1227 C 0.45452 0.57578 0.43191 0.0
C1228 C 0.46919 0.57807 0.4076 0.0
C1229 C 0.42029 0.59354 0.46553 0.0
C1230 C 0.43457 0.58943 0.48954 0.0
C1231 C 0.39016 0.59432 0.46554 0.0
C1232 C 0.37396 0.59788 0.44067 0.0
C1233 C 0.37792 0.58 0.42018 0.0
C1234 C 0.36272 0.58361 0.39671 0.0
C1235 C 0.34332 0.60491 0.39359 0.0
C1236 C 0.33903 0.6226 0.41398 0.0
C1237 C 0.35421 0.6191 0.43747 0.0
H1238 H 0.33156 0.60767 0.37542 0.0
H1239 H 0.4793 0.57581 0.60348 0.0
H1240 H 0.1959 0.14948 0.44252 0.0
H1241 H 0.23259 0.13012 0.41352 0.0
H1242 H 0.19677 0.17341 0.34613 0.0
H1243 H 0.16 0.19278 0.37487 0.0
H1244 H 0.20998 0.12181 0.3351 0.0
H1245 H 0.25534 0.19508 0.37491 0.0
H1246 H 0.27152 0.22075 0.41212 0.0
H1247 H 0.32244 0.15394 0.44025 0.0
H1248 H 0.30623 0.12773 0.40338 0.0
H1249 H 0.31888 0.13569 0.23879 0.0
H1250 H 0.28089 0.13841 0.27237 0.0
H1251 H 0.33332 0.09357 0.32822 0.0
H1252 H 0.37189 0.09129 0.29458 0.0
H1253 H 0.31242 0.13815 0.34915 0.0
H1254 H 0.27204 0.06705 0.30486 0.0
H1255 H 0.25647 0.04247 0.26668 0.0
H1256 H 0.19663 0.10537 0.24622 0.0
H1257 H 0.21209 0.13051 0.28407 0.0
C1258 C 0.19579 0.15487 0.42152 0.0
C1259 C 0.17504 0.17278 0.41105 0.0
C1260 C 0.21681 0.1438 0.40499 0.0
C1261 C 0.21749 0.15042 0.37768 0.0
C1262 C 0.19659 0.16797 0.36713 0.0
C1263 C 0.17565 0.17912 0.38363 0.0
C1264 C 0.24028 0.1396 0.36004 0.0
C1265 C 0.23238 0.12545 0.33808 0.0
C1266 C 0.26957 0.14362 0.36443 0.0
C1267 C 0.27928 0.15934 0.3866 0.0
C1268 C 0.26977 0.18578 0.38918 0.0
C1269 C 0.27899 0.20045 0.41017 0.0
C1270 C 0.29791 0.18896 0.42859 0.0
C1271 C 0.30772 0.16279 0.426 0.0
C1272 C 0.29854 0.14803 0.40506 0.0
C1273 C 0.32215 0.12605 0.25809 0.0
C1274 C 0.34835 0.11344 0.26412 0.0
C1275 C 0.30033 0.12744 0.27721 0.0
C1276 C 0.30413 0.11607 0.30278 0.0
C1277 C 0.32989 0.10242 0.30858 0.0
C1278 C 0.3518 0.10095 0.28932 0.0
C1279 C 0.28212 0.12081 0.32379 0.0
C1280 C 0.2901 0.13392 0.34641 0.0
C1281 C 0.2529 0.11586 0.31997 0.0
C1282 C 0.24333 0.10072 0.29727 0.0
C1283 C 0.25567 0.07572 0.29213 0.0
C1284 C 0.24684 0.06167 0.27056 0.0
C1285 C 0.22559 0.07236 0.25402 0.0
C1286 C 0.21308 0.0971 0.25906 0.0
C1287 C 0.22182 0.11124 0.28061 0.0
H1288 H 0.2188 0.06146 0.23732 0.0
H1289 H 0.30504 0.20035 0.44482 0.0
H1290 H 0.11821 0.12739 0.54472 0.0
H1291 H 0.11431 0.09059 0.57755 0.0
H1292 H 0.04827 0.0569 0.53176 0.0
H1293 H 0.05087 0.09467 0.49991 0.0
H1294 H 0.03355 0.05098 0.57927 0.0
H1295 H 0.12114 0.03285 0.53322 0.0
H1296 H 0.16923 0.04135 0.51451 0.0
H1297 H 0.20035 0.05251 0.59262 0.0
H1298 H 0.15232 0.04442 0.61178 0.0
H1299 H 0.04759 0.91835 0.62877 0.0
H1300 H 0.05662 0.95724 0.59985 0.0
H1301 H 0.08548 0.99946 0.66647 0.0
H1302 H 0.07596 0.96059 0.69602 0.0
H1303 H 0.11971 0.00133 0.61116 0.0
H1304 H 0.02631 0.01686 0.65469 0.0
H1305 H 0.97871 0.00088 0.66866 0.0
H1306 H 0.95958 0.98652 0.58772 0.0
H1307 H 0.00716 0.00222 0.57332 0.0
C1308 C 0.10291 0.11207 0.54173 0.0
C1309 C 0.08491 0.1137 0.51982 0.0
C1310 C 0.10079 0.09096 0.56039 0.0
C1311 C 0.08139 0.07061 0.55693 0.0
C1312 C 0.06339 0.07233 0.53496 0.0
C1313 C 0.06493 0.09384 0.51671 0.0
C1314 C 0.07955 0.0477 0.57631 0.0
C1315 C 0.05247 0.04014 0.58601 0.0
C1316 C 0.10415 0.03339 0.58534 0.0
C1317 C 0.13305 0.03833 0.5739 0.0
C1318 C 0.13818 0.03733 0.54639 0.0
C1319 C 0.16544 0.04204 0.5357 0.0
C1320 C 0.18781 0.04755 0.55235 0.0
C1321 C 0.18298 0.04829 0.57974 0.0
C1322 C 0.15575 0.04363 0.59053 0.0
C1323 C 0.05614 0.93575 0.63736 0.0
C1324 C 0.06083 0.93649 0.66477 0.0
C1325 C 0.06131 0.9579 0.62075 0.0
C1326 C 0.07155 0.98105 0.63117 0.0
C1327 C 0.07757 0.98161 0.65823 0.0
C1328 C 0.07204 0.95948 0.67502 0.0
C1329 C 0.074 0.00511 0.61384 0.0
C1330 C 0.10105 0.01265 0.6045 0.0
C1331 C 0.0494 0.01882 0.60443 0.0
C1332 C 0.02032 0.0106 0.61296 0.0
C1333 C 0.01196 0.01025 0.63989 0.0
C1334 C 0.98499 0.00126 0.64788 0.0
C1335 C 0.96616 0.99266 0.62909 0.0
C1336 C 0.97418 0.99323 0.60225 0.0
C1337 C 0.0011 0.00224 0.59415 0.0
H1338 H 0.94538 0.98552 0.63532 0.0
H1339 H 0.2089 0.05118 0.54404 0.0
H1340 H 0.12449 0.81506 0.76919 0.0
H1341 H 0.1631 0.80656 0.80026 0.0
H1342 H 0.14278 0.88058 0.8371 0.0
H1343 H 0.10456 0.88956 0.80513 0.0
H1344 H 0.19771 0.87505 0.83201 0.0
H1345 H 0.1256 0.81563 0.86974 0.0
H1346 H 0.09049 0.77982 0.86995 0.0
H1347 H 0.15436 0.72652 0.83891 0.0
H1348 H 0.18997 0.76179 0.83909 0.0
H1349 H 0.28639 0.84569 0.94247 0.0
H1350 H 0.24504 0.85537 0.91466 0.0
H1351 H 0.26259 0.78381 0.87263 0.0
H1352 H 0.30344 0.77365 0.90072 0.0
H1353 H 0.20767 0.78879 0.88225 0.0
H1354 H 0.28019 0.84619 0.84634 0.0
H1355 H 0.3168 0.88043 0.84758 0.0
H1356 H 0.25342 0.93712 0.87328 0.0
H1357 H 0.21648 0.90309 0.87255 0.0
C1358 C 0.12811 0.8294 0.78408 0.0
C1359 C 0.11126 0.85273 0.78508 0.0
C1360 C 0.15008 0.82445 0.80198 0.0
C1361 C 0.15537 0.8425 0.82165 0.0
C1362 C 0.13895 0.86619 0.82229 0.0
C1363 C 0.11717 0.87136 0.80403 0.0
C1364 C 0.17881 0.83704 0.84074 0.0
C1365 C 0.19955 0.85638 0.84339 0.0
C1366 C 0.18188 0.81236 0.855 0.0
C1367 C 0.16032 0.79139 0.85422 0.0
C1368 C 0.13207 0.79631 0.86281 0.0
C1369 C 0.11213 0.7761 0.86295 0.0
C1370 C 0.12011 0.75101 0.85421 0.0
C1371 C 0.14817 0.74596 0.84564 0.0
C1372 C 0.16828 0.766 0.84576 0.0
C1373 C 0.28138 0.83194 0.9274 0.0
C1374 C 0.29831 0.80891 0.92384 0.0
C1375 C 0.25781 0.83759 0.9114 0.0
C1376 C 0.25092 0.82054 0.89126 0.0
C1377 C 0.26747 0.7973 0.88801 0.0
C1378 C 0.29088 0.79153 0.90411 0.0
C1379 C 0.22649 0.8268 0.87355 0.0
C1380 C 0.20566 0.80758 0.87108 0.0
C1381 C 0.22349 0.85149 0.85933 0.0
C1382 C 0.24563 0.87202 0.85967 0.0
C1383 C 0.2741 0.8659 0.85245 0.0
C1384 C 0.29491 0.88528 0.85303 0.0
C1385 C 0.28746 0.91091 0.86058 0.0
C1386 C 0.25917 0.91724 0.86748 0.0
C1387 C 0.23828 0.89793 0.86698 0.0
H1388 H 0.3036 0.92589 0.86101 0.0
H1389 H 0.10458 0.73546 0.85419 0.0
H1390 H 0.46625 0.04338 0.15873 0.0
H1391 H 0.45662 0.00313 0.13503 0.0
H1392 H 0.39712 0.04739 0.08537 0.0
H1393 H 0.40721 0.08789 0.10845 0.0
H1394 H 0.37823 0.99525 0.10891 0.0
H1395 H 0.45412 0.03669 0.05769 0.0
H1396 H 0.50135 0.05642 0.04971 0.0
H1397 H 0.5422 0.98393 0.07797 0.0
H1398 H 0.4952 0.96387 0.08651 0.0
H1399 H 0.3595 0.90156 0.00957 0.0
H1400 H 0.36741 0.94181 0.03359 0.0
H1401 H 0.44285 0.90545 0.06825 0.0
H1402 H 0.43541 0.86543 0.04389 0.0
H1403 H 0.45355 0.95434 0.05228 0.0
H1404 H 0.37903 0.91256 0.10401 0.0
H1405 H 0.33237 0.89181 0.11217 0.0
H1406 H 0.28961 0.96363 0.08457 0.0
H1407 H 0.33606 0.9847 0.07592 0.0
C1408 C 0.4509 0.04447 0.14295 0.0
C1409 C 0.43744 0.06874 0.13542 0.0
C1410 C 0.44557 0.02153 0.12935 0.0
C1411 C 0.42633 0.02242 0.10838 0.0
C1412 C 0.4121 0.04639 0.10146 0.0
C1413 C 0.41788 0.06945 0.11464 0.0
C1414 C 0.42122 0.99834 0.09352 0.0
C1415 C 0.39454 0.98642 0.09627 0.0
C1416 C 0.44281 0.98661 0.07757 0.0
C1417 C 0.47109 0.99889 0.0731 0.0
C1418 C 0.47315 0.02507 0.06258 0.0
C1419 C 0.49989 0.03629 0.05785 0.0
C1420 C 0.52475 0.02147 0.06341 0.0
C1421 C 0.52292 0.9954 0.07372 0.0
C1422 C 0.49624 0.9841 0.07851 0.0
C1423 C 0.37765 0.90207 0.02246 0.0
C1424 C 0.39676 0.88026 0.0249 0.0
C1425 C 0.38213 0.92509 0.03624 0.0
C1426 C 0.40556 0.92659 0.05301 0.0
C1427 C 0.42462 0.90479 0.05547 0.0
C1428 C 0.42026 0.88187 0.04159 0.0
C1429 C 0.4105 0.95098 0.06771 0.0
C1430 C 0.43719 0.96304 0.06495 0.0
C1431 C 0.38899 0.96271 0.08385 0.0
C1432 C 0.36103 0.95011 0.08907 0.0
C1433 C 0.35968 0.92385 0.09949 0.0
C1434 C 0.33327 0.91205 0.10424 0.0
C1435 C 0.30804 0.92636 0.09882 0.0
C1436 C 0.30917 0.95255 0.08872 0.0
C1437 C 0.33553 0.96444 0.08391 0.0
H1438 H 0.28762 0.91719 0.10252 0.0
H1439 H 0.54543 0.03012 0.05963 0.0
H1440 H 0.89856 0.33982 0.67528 0.0
H1441 H 0.8552 0.3396 0.64932 0.0
H1442 H 0.81449 0.39484 0.7019 0.0
H1443 H 0.85832 0.39555 0.72788 0.0
H1444 H 0.78356 0.34658 0.69294 0.0
H1445 H 0.8288 0.41788 0.64385 0.0
H1446 H 0.86848 0.43998 0.61968 0.0
H1447 H 0.87016 0.37944 0.56225 0.0
H1448 H 0.83075 0.35675 0.5863 0.0
H1449 H 0.65835 0.35061 0.61943 0.0
H1450 H 0.70057 0.3676 0.63992 0.0
H1451 H 0.75466 0.32278 0.58708 0.0
H1452 H 0.71245 0.30584 0.56621 0.0
H1453 H 0.77737 0.37098 0.59686 0.0
H1454 H 0.73856 0.29677 0.64665 0.0
H1455 H 0.70094 0.27122 0.6703 0.0
H1456 H 0.6897 0.33294 0.72596 0.0
H1457 H 0.72698 0.35905 0.70237 0.0
C1458 C 0.88049 0.35216 0.68119 0.0
C1459 C 0.88173 0.36764 0.70365 0.0
C1460 C 0.85581 0.3521 0.66626 0.0
C1461 C 0.83175 0.36727 0.67366 0.0
C1462 C 0.83295 0.38308 0.69586 0.0
C1463 C 0.85794 0.38353 0.71059 0.0
C1464 C 0.80493 0.36499 0.65903 0.0
C1465 C 0.78189 0.35252 0.6721 0.0
C1466 C 0.80332 0.37184 0.63162 0.0
C1467 C 0.82694 0.3855 0.61701 0.0
C1468 C 0.83778 0.40915 0.62619 0.0
C1469 C 0.8602 0.42181 0.61249 0.0
C1470 C 0.87187 0.41109 0.58947 0.0
C1471 C 0.8611 0.38772 0.58008 0.0
C1472 C 0.83869 0.37497 0.59373 0.0
C1473 C 0.67921 0.34474 0.61179 0.0
C1474 C 0.68206 0.32659 0.59143 0.0
C1475 C 0.70331 0.35444 0.62357 0.0
C1476 C 0.7307 0.34603 0.61536 0.0
C1477 C 0.73368 0.32943 0.59377 0.0
C1478 C 0.70954 0.31975 0.58189 0.0
C1479 C 0.75597 0.3526 0.63079 0.0
C1480 C 0.77879 0.36558 0.61783 0.0
C1481 C 0.75765 0.34575 0.65824 0.0
C1482 C 0.73533 0.33002 0.67256 0.0
C1483 C 0.7279 0.305 0.6638 0.0
C1484 C 0.70667 0.2904 0.67721 0.0
C1485 C 0.69288 0.3005 0.69957 0.0
C1486 C 0.70036 0.32518 0.7086 0.0
C1487 C 0.72155 0.33988 0.69523 0.0
H1488 H 0.67647 0.28918 0.70995 0.0
H1489 H 0.88923 0.42092 0.57889 0.0
H1490 H 0.91488 0.4247 0.91075 0.0
H1491 H 0.89366 0.46391 0.9301 0.0
H1492 H 0.88756 0.50219 0.85225 0.0
H1493 H 0.91031 0.46303 0.83272 0.0
H1494 H 0.90642 0.53564 0.88316 0.0
H1495 H 0.82656 0.48049 0.89076 0.0
H1496 H 0.79913 0.44008 0.90097 0.0
H1497 H 0.81838 0.44425 0.9835 0.0
H1498 H 0.84628 0.48448 0.97376 0.0
H1499 H 0.8434 0.6451 0.94989 0.0
H1500 H 0.8457 0.60712 0.92118 0.0
H1501 H 0.87044 0.55592 0.98775 0.0
H1502 H 0.86783 0.59361 0.01661 0.0
H1503 H 0.83369 0.53155 0.95594 0.0
H1504 H 0.9203 0.5842 0.94342 0.0
H1505 H 0.94633 0.62487 0.93056 0.0
H1506 H 0.9094 0.62606 0.85333 0.0
H1507 H 0.88298 0.58555 0.86584 0.0
C1508 C 0.90872 0.44127 0.8976 0.0
C1509 C 0.91425 0.44066 0.87013 0.0
C1510 C 0.8963 0.46373 0.90874 0.0
C1511 C 0.88834 0.48599 0.89269 0.0
C1512 C 0.89334 0.48527 0.86511 0.0
C1513 C 0.90627 0.46286 0.85394 0.0
C1514 C 0.87693 0.51051 0.90516 0.0
C1515 C 0.89 0.53477 0.89862 0.0
C1516 C 0.85551 0.50965 0.92544 0.0
C1517 C 0.83866 0.48547 0.93148 0.0
C1518 C 0.82511 0.47271 0.91107 0.0
C1519 C 0.80945 0.44984 0.91678 0.0
C1520 C 0.80705 0.43959 0.94286 0.0
C1521 C 0.82025 0.45222 0.9633 0.0
C1522 C 0.83595 0.47509 0.9577 0.0
C1523 C 0.84881 0.62567 0.95855 0.0
C1524 C 0.85565 0.62246 0.98556 0.0
C1525 C 0.85028 0.604 0.94204 0.0
C1526 C 0.85873 0.57873 0.95219 0.0
C1527 C 0.86397 0.57523 0.97943 0.0
C1528 C 0.86251 0.59684 0.99592 0.0
C1529 C 0.8639 0.55617 0.93447 0.0
C1530 C 0.84965 0.53235 0.94007 0.0
C1531 C 0.88376 0.55755 0.91295 0.0
C1532 C 0.89946 0.58204 0.90565 0.0
C1533 C 0.91756 0.59329 0.92378 0.0
C1534 C 0.93241 0.61629 0.91653 0.0
C1535 C 0.92943 0.62812 0.89116 0.0
C1536 C 0.91161 0.61696 0.87299 0.0
C1537 C 0.89674 0.59396 0.88013 0.0
H1538 H 0.94101 0.64584 0.8855 0.0
H1539 H 0.79492 0.42188 0.94723 0.0
H1540 H 0.78515 0.6951 0.06566 0.0
H1541 H 0.74088 0.67829 0.08548 0.0
H1542 H 0.78889 0.6245 0.13709 0.0
H1543 H 0.83347 0.64118 0.1174 0.0
H1544 H 0.73361 0.60477 0.1197 0.0
H1545 H 0.77559 0.67939 0.1606 0.0
H1546 H 0.79667 0.7238 0.16011 0.0
H1547 H 0.71968 0.7584 0.1279 0.0
H1548 H 0.69834 0.71412 0.12771 0.0
H1549 H 0.63059 0.59914 0.22829 0.0
H1550 H 0.67287 0.6001 0.19874 0.0
H1551 H 0.63668 0.66779 0.15511 0.0
H1552 H 0.59523 0.66748 0.18502 0.0
H1553 H 0.68773 0.67814 0.16882 0.0
H1554 H 0.64447 0.60415 0.12916 0.0
H1555 H 0.6233 0.55986 0.12869 0.0
H1556 H 0.70115 0.52413 0.1579 0.0
H1557 H 0.72267 0.56826 0.15887 0.0
C1558 C 0.78637 0.67917 0.08071 0.0
C1559 C 0.81283 0.66991 0.09042 0.0
C1560 C 0.76103 0.66955 0.09194 0.0
C1561 C 0.76175 0.65051 0.11299 0.0
C1562 C 0.78799 0.63925 0.12088 0.0
C1563 C 0.81342 0.64892 0.10969 0.0
C1564 C 0.73578 0.64582 0.12941 0.0
C1565 C 0.72358 0.62066 0.13065 0.0
C1566 C 0.72278 0.6667 0.14348 0.0
C1567 C 0.73548 0.6934 0.14389 0.0
C1568 C 0.76325 0.69644 0.15319 0.0
C1569 C 0.77524 0.72158 0.15307 0.0
C1570 C 0.75954 0.74389 0.14394 0.0
C1571 C 0.73182 0.7411 0.13494 0.0
C1572 C 0.71977 0.71598 0.13494 0.0
C1573 C 0.63157 0.61391 0.2121 0.0
C1574 C 0.6099 0.63343 0.20908 0.0
C1575 C 0.65564 0.61439 0.19517 0.0
C1576 C 0.65797 0.63406 0.17469 0.0
C1577 C 0.6355 0.65259 0.17089 0.0
C1578 C 0.61182 0.6524 0.188 0.0
C1579 C 0.6847 0.63716 0.15869 0.0
C1580 C 0.69741 0.66213 0.15778 0.0
C1581 C 0.69796 0.61609 0.14496 0.0
C1582 C 0.68507 0.58954 0.14434 0.0
C1583 C 0.657 0.58687 0.13569 0.0
C1584 C 0.64495 0.56179 0.13529 0.0
C1585 C 0.66084 0.5392 0.14333 0.0
C1586 C 0.68885 0.54164 0.15171 0.0
C1587 C 0.70099 0.56668 0.15216 0.0
H1588 H 0.65148 0.5198 0.14301 0.0
H1589 H 0.7688 0.76334 0.14394 0.0
H1590 H 0.59096 0.36859 0.4266 0.0
H1591 H 0.5934 0.41272 0.40512 0.0
H1592 H 0.6524 0.43606 0.46385 0.0
H1593 H 0.65052 0.39125 0.4853 0.0
H1594 H 0.60136 0.47027 0.45598 0.0
H1595 H 0.67862 0.43271 0.40578 0.0
H1596 H 0.70296 0.39888 0.37898 0.0
H1597 H 0.63932 0.40977 0.31928 0.0
H1598 H 0.61433 0.44338 0.3459 0.0
H1599 H 0.5949 0.59687 0.38994 0.0
H1600 H 0.61595 0.5563 0.41023 0.0
H1601 H 0.57806 0.51025 0.35051 0.0
H1602 H 0.55772 0.55071 0.32972 0.0
H1603 H 0.6282 0.48975 0.36166 0.0
H1604 H 0.54624 0.51839 0.41314 0.0
H1605 H 0.51699 0.54922 0.43965 0.0
H1606 H 0.584 0.55244 0.49606 0.0
H1607 H 0.61378 0.52178 0.46976 0.0
C1608 C 0.60483 0.38295 0.43474 0.0
C1609 C 0.62054 0.37653 0.45763 0.0
C1610 C 0.60628 0.40814 0.42237 0.0
C1611 C 0.62314 0.42762 0.43283 0.0
C1612 C 0.63936 0.42121 0.45543 0.0
C1613 C 0.63839 0.39566 0.46756 0.0
C1614 C 0.62171 0.45504 0.42098 0.0
C1615 C 0.60797 0.47483 0.43559 0.0
C1616 C 0.62945 0.46059 0.39411 0.0
C1617 C 0.64451 0.44049 0.37793 0.0
C1618 C 0.66969 0.42776 0.38703 0.0
C1619 C 0.68363 0.40864 0.37185 0.0
C1620 C 0.67268 0.40216 0.34746 0.0
C1621 C 0.64779 0.41482 0.33817 0.0
C1622 C 0.63375 0.43394 0.35328 0.0
C1623 C 0.59146 0.57815 0.38086 0.0
C1624 C 0.5744 0.57703 0.35833 0.0
C1625 C 0.60338 0.55493 0.39258 0.0
C1626 C 0.59811 0.53009 0.38227 0.0
C1627 C 0.5824 0.52912 0.35893 0.0
C1628 C 0.57073 0.55233 0.34705 0.0
C1629 C 0.60732 0.50495 0.39649 0.0
C1630 C 0.62231 0.48552 0.38227 0.0
C1631 C 0.60015 0.49949 0.42359 0.0
C1632 C 0.58238 0.51809 0.43931 0.0
C1633 C 0.55483 0.52586 0.43108 0.0
C1634 C 0.53814 0.54326 0.44608 0.0
C1635 C 0.54867 0.55288 0.46945 0.0
C1636 C 0.5759 0.54504 0.47791 0.0
C1637 C 0.59269 0.52764 0.46298 0.0
H1638 H 0.53569 0.56632 0.48105 0.0
H1639 H 0.6835 0.38735 0.33574 0.0
H1640 H 0.26482 0.35158 0.18468 0.0
H1641 H 0.28926 0.30874 0.18305 0.0
H1642 H 0.28857 0.31392 0.09745 0.0
H1643 H 0.2647 0.35772 0.09896 0.0
H1644 H 0.27696 0.26296 0.16627 0.0
H1645 H 0.34868 0.28092 0.07421 0.0
H1646 H 0.36961 0.31797 0.04745 0.0
H1647 H 0.36896 0.36568 0.11603 0.0
H1648 H 0.34836 0.3288 0.14321 0.0
H1649 H 0.36663 0.14636 0.16373 0.0
H1650 H 0.333 0.1816 0.14873 0.0
H1651 H 0.3964 0.24023 0.16178 0.0
H1652 H 0.43019 0.2053 0.1752 0.0
H1653 H 0.37106 0.25493 0.12031 0.0
H1654 H 0.33769 0.22207 0.20782 0.0
H1655 H 0.31858 0.18922 0.24081 0.0
H1656 H 0.24741 0.17664 0.19095 0.0
H1657 H 0.26621 0.20928 0.15761 0.0
C1658 C 0.26973 0.34367 0.16543 0.0
C1659 C 0.26298 0.35816 0.14193 0.0
C1660 C 0.2836 0.31902 0.16454 0.0
C1661 C 0.2909 0.30807 0.14015 0.0
C1662 C 0.28348 0.32211 0.11653 0.0
C1663 C 0.26981 0.34709 0.1174 0.0
C1664 C 0.30739 0.28255 0.14005 0.0
C1665 C 0.29743 0.26109 0.15599 0.0
C1666 C 0.33407 0.28004 0.12667 0.0
C1667 C 0.34663 0.30226 0.1106 0.0
C1668 C 0.35304 0.29932 0.08354 0.0
C1669 C 0.36485 0.32027 0.06832 0.0
C1670 C 0.37049 0.3442 0.08 0.0
C1671 C 0.36446 0.34718 0.10697 0.0
C1672 C 0.35271 0.32627 0.12229 0.0
C1673 C 0.37335 0.16679 0.16312 0.0
C1674 C 0.40102 0.17308 0.17066 0.0
C1675 C 0.3541 0.18693 0.15467 0.0
C1676 C 0.36196 0.21372 0.15439 0.0
C1677 C 0.38976 0.2198 0.16157 0.0
C1678 C 0.4091 0.19975 0.16938 0.0
C1679 C 0.34138 0.23582 0.14778 0.0
C1680 C 0.35036 0.25651 0.13022 0.0
C1681 C 0.31424 0.23804 0.16047 0.0
C1682 C 0.30353 0.21782 0.18011 0.0
C1683 C 0.31812 0.21209 0.20381 0.0
C1684 C 0.3073 0.19358 0.22259 0.0
C1685 C 0.28182 0.18084 0.21794 0.0
C1686 C 0.26715 0.1865 0.19449 0.0
C1687 C 0.27787 0.205 0.17566 0.0
H1688 H 0.27334 0.16664 0.23251 0.0
H1689 H 0.37961 0.36041 0.06818 0.0
H1690 H 0.89951 0.31347 0.78131 0.0
H1691 H 0.87582 0.2726 0.79613 0.0
H1692 H 0.92894 0.2666 0.8651 0.0
H1693 H 0.95159 0.3081 0.85107 0.0
H1694 H 0.88974 0.22408 0.80399 0.0
H1695 H 0.89489 0.23904 0.91763 0.0
H1696 H 0.89503 0.27584 0.94837 0.0
H1697 H 0.8522 0.32684 0.8909 0.0
H1698 H 0.85146 0.29026 0.85998 0.0
H1699 H 0.85062 0.10378 0.86848 0.0
H1700 H 0.87725 0.14409 0.85766 0.0
H1701 H 0.80472 0.19197 0.88215 0.0
H1702 H 0.77823 0.15192 0.89352 0.0
H1703 H 0.85185 0.21403 0.89635 0.0
H1704 H 0.81595 0.17994 0.81793 0.0
H1705 H 0.80728 0.14597 0.78555 0.0
H1706 H 0.89722 0.13937 0.76838 0.0
H1707 H 0.9065 0.17292 0.80123 0.0
C1708 C 0.90614 0.30338 0.79961 0.0
C1709 C 0.92716 0.31412 0.81519 0.0
C1710 C 0.89264 0.27998 0.80804 0.0
C1711 C 0.90018 0.26672 0.83201 0.0
C1712 C 0.92212 0.27683 0.84694 0.0
C1713 C 0.93517 0.30049 0.83883 0.0
C1714 C 0.88482 0.24259 0.84163 0.0
C1715 C 0.88157 0.2219 0.82421 0.0
C1716 C 0.87335 0.23993 0.86781 0.0
C1717 C 0.87341 0.26197 0.8864 0.0
C1718 C 0.88541 0.25808 0.9116 0.0
C1719 C 0.88561 0.27891 0.92905 0.0
C1720 C 0.87372 0.30369 0.92156 0.0
C1721 C 0.8615 0.30767 0.89664 0.0
C1722 C 0.86121 0.2869 0.87914 0.0
C1723 C 0.84052 0.12287 0.872 0.0
C1724 C 0.8122 0.12463 0.88161 0.0
C1725 C 0.85571 0.14589 0.86569 0.0
C1726 C 0.84278 0.17103 0.86866 0.0
C1727 C 0.8151 0.17279 0.87963 0.0
C1728 C 0.79995 0.14983 0.88605 0.0
C1729 C 0.85732 0.19546 0.85887 0.0
C1730 C 0.86031 0.21619 0.87622 0.0
C1731 C 0.86736 0.19866 0.8323 0.0
C1732 C 0.86195 0.17872 0.81227 0.0
C1733 C 0.83391 0.1711 0.80741 0.0
C1734 C 0.82888 0.15193 0.78894 0.0
C1735 C 0.85168 0.14048 0.7749 0.0
C1736 C 0.87958 0.14823 0.7793 0.0
C1737 C 0.88474 0.16731 0.79787 0.0
H1738 H 0.84773 0.12565 0.7606 0.0
H1739 H 0.87393 0.31979 0.93508 0.0
H1740 H 0.11523 0.54186 0.14959 0.0
H1741 H 0.07561 0.57314 0.14068 0.0
H1742 H 0.10717 0.58648 0.06043 0.0
H1743 H 0.14698 0.5555 0.0692 0.0
H1744 H 0.08742 0.63239 0.08169 0.0
H1745 H 0.05575 0.54323 0.07236 0.0
H1746 H 0.04839 0.49662 0.08717 0.0
H1747 H 0.99555 0.52225 0.15221 0.0
H1748 H 0.00295 0.56905 0.13799 0.0
H1749 H 0.93287 0.64863 0.03255 0.0
H1750 H 0.97511 0.62145 0.0436 0.0
H1751 H 0.99671 0.67602 0.10326 0.0
H1752 H 0.95434 0.70331 0.09252 0.0
H1753 H 0.99 0.59622 0.09165 0.0
H1754 H 0.07095 0.6803 0.09979 0.0
H1755 H 0.07903 0.72559 0.08114 0.0
H1756 H 0.03354 0.70779 0.01128 0.0
H1757 H 0.02557 0.66232 0.02933 0.0
C1758 C 0.11396 0.55171 0.13016 0.0
C1759 C 0.13406 0.54602 0.11001 0.0
C1760 C 0.09129 0.56952 0.1251 0.0
C1761 C 0.08832 0.58181 0.09981 0.0
C1762 C 0.1091 0.57715 0.08007 0.0
C1763 C 0.13175 0.55935 0.08509 0.0
C1764 C 0.06267 0.59823 0.09337 0.0
C1765 C 0.06611 0.62457 0.08402 0.0
C1766 C 0.03494 0.58776 0.09589 0.0
C1767 C 0.03013 0.55964 0.10426 0.0
C1768 C 0.04272 0.53892 0.08992 0.0
C1769 C 0.03852 0.51247 0.0982 0.0
C1770 C 0.02157 0.50648 0.12066 0.0
C1771 C 0.00871 0.52693 0.13484 0.0
C1772 C 0.01288 0.55342 0.12667 0.0
C1773 C 0.94658 0.65489 0.04803 0.0
C1774 C 0.94028 0.67817 0.06164 0.0
C1775 C 0.97061 0.63927 0.05438 0.0
C1776 C 0.98899 0.64683 0.07415 0.0
C1777 C 0.98281 0.66999 0.08782 0.0
C1778 C 0.95859 0.6855 0.08169 0.0
C1779 C 0.01473 0.63049 0.08034 0.0
C1780 C 0.01129 0.60414 0.0896 0.0
C1781 C 0.04246 0.64079 0.07722 0.0
C1782 C 0.04737 0.66802 0.06608 0.0
C1783 C 0.06274 0.68605 0.08043 0.0
C1784 C 0.0673 0.71174 0.06996 0.0
C1785 C 0.05671 0.71959 0.04509 0.0
C1786 C 0.04162 0.70173 0.03059 0.0
C1787 C 0.03703 0.67601 0.04096 0.0
H1788 H 0.06025 0.73949 0.03703 0.0
H1789 H 0.01836 0.48599 0.12705 0.0
H1790 H 0.71386 0.84583 0.40002 0.0
H1791 H 0.68824 0.80452 0.39489 0.0
H1792 H 0.62652 0.8469 0.34602 0.0
H1793 H 0.65204 0.88809 0.35081 0.0
H1794 H 0.60326 0.8078 0.38427 0.0
H1795 H 0.68226 0.81914 0.31997 0.0
H1796 H 0.73349 0.82374 0.30949 0.0
H1797 H 0.75099 0.74707 0.34643 0.0
H1798 H 0.70001 0.74256 0.35839 0.0
H1799 H 0.53434 0.71621 0.30972 0.0
H1800 H 0.56075 0.75335 0.32561 0.0
H1801 H 0.63134 0.70008 0.3454 0.0
H1802 H 0.60561 0.66325 0.32747 0.0
H1803 H 0.65281 0.74175 0.3283 0.0
H1804 H 0.5808 0.72673 0.39359 0.0
H1805 H 0.53254 0.71937 0.41243 0.0
H1806 H 0.50527 0.79671 0.3829 0.0
H1807 H 0.55327 0.80441 0.36354 0.0
C1808 C 0.69452 0.84642 0.38861 0.0
C1809 C 0.68504 0.87015 0.37565 0.0
C1810 C 0.67998 0.82282 0.38567 0.0
C1811 C 0.65565 0.8227 0.36992 0.0
C1812 C 0.64526 0.84663 0.35825 0.0
C1813 C 0.65994 0.8701 0.36091 0.0
C1814 C 0.64221 0.79751 0.36356 0.0
C1815 C 0.61394 0.79333 0.37195 0.0
C1816 C 0.65676 0.77816 0.3485 0.0
C1817 C 0.68728 0.78067 0.3404 0.0
C1818 C 0.69703 0.80338 0.32616 0.0
C1819 C 0.72606 0.806 0.31999 0.0
C1820 C 0.74548 0.7857 0.32723 0.0
C1821 C 0.73592 0.76279 0.34083 0.0
C1822 C 0.70698 0.76026 0.34744 0.0
C1823 C 0.55555 0.71252 0.31738 0.0
C1824 C 0.56796 0.68695 0.31748 0.0
C1825 C 0.57057 0.7337 0.32674 0.0
C1826 C 0.59782 0.72954 0.33754 0.0
C1827 C 0.61035 0.70392 0.33732 0.0
C1828 C 0.59566 0.68287 0.32711 0.0
C1829 C 0.6133 0.75205 0.3485 0.0
C1830 C 0.64201 0.75584 0.34095 0.0
C1831 C 0.59954 0.77052 0.36527 0.0
C1832 C 0.57061 0.76606 0.37694 0.0
C1833 C 0.56447 0.74211 0.39096 0.0
C1834 C 0.53716 0.73788 0.40175 0.0
C1835 C 0.51584 0.75754 0.39882 0.0
C1836 C 0.52181 0.78149 0.38514 0.0
C1837 C 0.54907 0.78582 0.37428 0.0
H1838 H 0.49471 0.75423 0.40718 0.0
H1839 H 0.76792 0.78769 0.32231 0.0
H1840 H 0.54893 0.30091 0.59838 0.0
H1841 H 0.50894 0.32808 0.61428 0.0
H1842 H 0.51327 0.37725 0.54236 0.0
H1843 H 0.55357 0.35029 0.52628 0.0
H1844 H 0.50947 0.40648 0.58672 0.0
H1845 H 0.46149 0.33231 0.55166 0.0
H1846 H 0.45133 0.28494 0.54733 0.0
H1847 H 0.42792 0.2781 0.63002 0.0
H1848 H 0.43831 0.32539 0.63491 0.0
H1849 H 0.37764 0.47143 0.57716 0.0
H1850 H 0.41896 0.44205 0.57201 0.0
H1851 H 0.40362 0.40732 0.65042 0.0
H1852 H 0.36166 0.43708 0.65589 0.0
H1853 H 0.41441 0.36986 0.61012 0.0
H1854 H 0.45728 0.44571 0.64374 0.0
H1855 H 0.4666 0.49332 0.64736 0.0
H1856 H 0.49931 0.49718 0.5672 0.0
H1857 H 0.48974 0.4497 0.56294 0.0
C1858 C 0.54132 0.3174 0.58581 0.0
C1859 C 0.55445 0.32342 0.56101 0.0
C1860 C 0.5184 0.33286 0.59495 0.0
C1861 C 0.50808 0.35456 0.57944 0.0
C1862 C 0.52099 0.36057 0.55463 0.0
C1863 C 0.54392 0.34508 0.54542 0.0
C1864 C 0.48415 0.37133 0.58927 0.0
C1865 C 0.48862 0.39852 0.59164 0.0
C1866 C 0.4573 0.3607 0.59664 0.0
C1867 C 0.451 0.3323 0.59372 0.0
C1868 C 0.45442 0.32065 0.56897 0.0
C1869 C 0.44857 0.29382 0.5664 0.0
C1870 C 0.43907 0.2785 0.58841 0.0
C1871 C 0.43533 0.28999 0.61301 0.0
C1872 C 0.44118 0.3168 0.61568 0.0
C1873 C 0.38292 0.45758 0.5934 0.0
C1874 C 0.36636 0.45652 0.61695 0.0
C1875 C 0.40668 0.4409 0.59044 0.0
C1876 C 0.41445 0.42275 0.61092 0.0
C1877 C 0.39793 0.42135 0.63446 0.0
C1878 C 0.37411 0.43834 0.63757 0.0
C1879 C 0.43959 0.40506 0.60692 0.0
C1880 C 0.4354 0.37772 0.60564 0.0
C1881 C 0.46672 0.41553 0.60053 0.0
C1882 C 0.47263 0.44414 0.60298 0.0
C1883 C 0.46625 0.45675 0.62681 0.0
C1884 C 0.4716 0.48372 0.62899 0.0
C1885 C 0.4835 0.49828 0.60752 0.0
C1886 C 0.49008 0.4859 0.58382 0.0
C1887 C 0.48473 0.45893 0.58153 0.0
H1888 H 0.4877 0.51913 0.60931 0.0
H1889 H 0.43455 0.25774 0.58638 0.0
H1890 H 0.17636 0.609 0.68517 0.0
H1891 H 0.14844 0.65031 0.68865 0.0
H1892 H 0.20296 0.68807 0.62903 0.0
H1893 H 0.23031 0.64672 0.62485 0.0
H1894 H 0.16361 0.69551 0.70488 0.0
H1895 H 0.16834 0.73653 0.59492 0.0
H1896 H 0.1675 0.71927 0.54992 0.0
H1897 H 0.12421 0.64995 0.58026 0.0
H1898 H 0.12442 0.66695 0.62537 0.0
H1899 H 0.14844 0.8334 0.69907 0.0
H1900 H 0.16594 0.78912 0.68795 0.0
H1901 H 0.08265 0.77045 0.66015 0.0
H1902 H 0.06482 0.81467 0.67144 0.0
H1903 H 0.12833 0.751 0.62831 0.0
H1904 H 0.09496 0.74946 0.71751 0.0
H1905 H 0.08948 0.76429 0.76332 0.0
H1906 H 0.17891 0.74996 0.77578 0.0
H1907 H 0.18508 0.73548 0.7298 0.0
C1908 C 0.18217 0.62604 0.67259 0.0
C1909 C 0.2055 0.62466 0.65474 0.0
C1910 C 0.16624 0.64961 0.67463 0.0
C1911 C 0.17345 0.67219 0.65894 0.0
C1912 C 0.1966 0.67074 0.64093 0.0
C1913 C 0.21232 0.64712 0.63866 0.0
C1914 C 0.15799 0.69775 0.6625 0.0
C1915 C 0.15579 0.70754 0.68813 0.0
C1916 C 0.14712 0.71319 0.64074 0.0
C1917 C 0.14662 0.70294 0.61358 0.0
C1918 C 0.15852 0.71767 0.59198 0.0
C1919 C 0.15818 0.70791 0.56645 0.0
C1920 C 0.14588 0.6835 0.56225 0.0
C1921 C 0.13382 0.66882 0.58356 0.0
C1922 C 0.13408 0.67848 0.60912 0.0
C1923 C 0.13401 0.82011 0.69003 0.0
C1924 C 0.10524 0.82735 0.68626 0.0
C1925 C 0.14399 0.79481 0.68385 0.0
C1926 C 0.12542 0.77658 0.6736 0.0
C1927 C 0.0972 0.78433 0.66813 0.0
C1928 C 0.08709 0.80952 0.67462 0.0
C1929 C 0.13503 0.74887 0.67041 0.0
C1930 C 0.13607 0.73877 0.64496 0.0
C1931 C 0.14397 0.73277 0.69243 0.0
C1932 C 0.14053 0.74162 0.72008 0.0
C1933 C 0.11354 0.74971 0.7299 0.0
C1934 C 0.11028 0.75796 0.75592 0.0
C1935 C 0.13382 0.758 0.77243 0.0
C1936 C 0.16069 0.74986 0.76294 0.0
C1937 C 0.16408 0.74163 0.7369 0.0
H1938 H 0.13121 0.76445 0.79253 0.0
H1939 H 0.14566 0.67598 0.54248 0.0
H1940 H 0.45523 0.83189 0.93542 0.0
H1941 H 0.49681 0.8577 0.92138 0.0
H1942 H 0.44152 0.91827 0.88605 0.0
H1943 H 0.3999 0.89247 0.8996 0.0
H1944 H 0.4907 0.91381 0.85751 0.0
H1945 H 0.46189 0.92462 0.94801 0.0
H1946 H 0.44907 0.91009 0.99388 0.0
H1947 H 0.53231 0.87403 0.00339 0.0
H1948 H 0.54552 0.88815 0.95741 0.0
H1949 H 0.59138 0.01586 0.92046 0.0
H1950 H 0.55019 0.98716 0.92138 0.0
H1951 H 0.5879 0.9431 0.85744 0.0
H1952 H 0.62871 0.9727 0.8557 0.0
H1953 H 0.54745 0.9384 0.93433 0.0
H1954 H 0.53619 0.91229 0.8241 0.0
H1955 H 0.54356 0.93305 0.7794 0.0
H1956 H 0.53198 0.01039 0.81105 0.0
H1957 H 0.52418 0.99009 0.85584 0.0
C1958 C 0.45192 0.85038 0.92408 0.0
C1959 C 0.42422 0.86034 0.91901 0.0
C1960 C 0.47572 0.86514 0.91614 0.0
C1961 C 0.4722 0.89014 0.90314 0.0
C1962 C 0.44472 0.89908 0.89614 0.0
C1963 C 0.42092 0.88433 0.90402 0.0
C1964 C 0.4966 0.90823 0.89959 0.0
C1965 C 0.50331 0.91907 0.87421 0.0
C1966 C 0.5124 0.91575 0.92155 0.0
C1967 C 0.50458 0.90717 0.94919 0.0
C1968 C 0.47738 0.9134 0.95981 0.0
C1969 C 0.47005 0.90527 0.98585 0.0
C1970 C 0.48983 0.89105 0.00152 0.0
C1971 C 0.517 0.885 0.9912 0.0
C1972 C 0.52443 0.89308 0.96517 0.0
C1973 C 0.59068 0.0003 0.90632 0.0
C1974 C 0.61319 0.9965 0.88799 0.0
C1975 C 0.56718 0.98381 0.90694 0.0
C1976 C 0.56586 0.96288 0.88953 0.0
C1977 C 0.58814 0.95935 0.87081 0.0
C1978 C 0.61148 0.97623 0.86984 0.0
C1979 C 0.54185 0.9441 0.89212 0.0
C1980 C 0.53518 0.93303 0.91744 0.0
C1981 C 0.52545 0.93724 0.87024 0.0
C1982 C 0.52994 0.94965 0.84336 0.0
C1983 C 0.53515 0.93372 0.82149 0.0
C1984 C 0.53941 0.9454 0.79615 0.0
C1985 C 0.53835 0.97302 0.79241 0.0
C1986 C 0.53292 0.989 0.81399 0.0
C1987 C 0.52862 0.97742 0.83937 0.0
H1988 H 0.54166 0.98203 0.77277 0.0
H1989 H 0.48415 0.88481 0.02168 0.0
H1990 H 0.85701 0.03851 0.34163 0.0
H1991 H 0.89673 0.06973 0.34138 0.0
H1992 H 0.91768 0.04208 0.4208 0.0
H1993 H 0.87862 0.01144 0.42113 0.0
H1994 H 0.91833 0.09297 0.4186 0.0
H1995 H 0.95644 0.02279 0.36502 0.0
H1996 H 0.95767 0.99354 0.32701 0.0
H1997 H 0.96228 0.06153 0.27308 0.0
H1998 H 0.96074 0.09121 0.31083 0.0
H1999 H 0.07936 0.10482 0.40727 0.0
H2000 H 0.03622 0.0859 0.3907 0.0
H2001 H 0.99073 0.16018 0.40125 0.0
H2002 H 0.03378 0.17906 0.41884 0.0
H2003 H 0.99871 0.09247 0.35313 0.0
H2004 H 0.9249 0.14757 0.4263 0.0
H2005 H 0.9278 0.17028 0.46857 0.0
H2006 H 0.00058 0.12147 0.49028 0.0
H2007 H 0.99785 0.09828 0.44835 0.0
C2008 C 0.87031 0.03901 0.35888 0.0
C2009 C 0.86467 0.02245 0.38143 0.0
C2010 C 0.89296 0.05685 0.35875 0.0
C2011 C 0.91025 0.05827 0.38112 0.0
C2012 C 0.90466 0.0415 0.40336 0.0
C2013 C 0.8823 0.02385 0.40347 0.0
C2014 C 0.93434 0.07693 0.38209 0.0
C2015 C 0.93569 0.09312 0.40402 0.0
C2016 C 0.95724 0.07697 0.36336 0.0
C2017 C 0.95807 0.05921 0.34069 0.0
C2018 C 0.95746 0.0315 0.34504 0.0
C2019 C 0.95826 0.01485 0.32356 0.0
C2020 C 0.95994 0.02567 0.29764 0.0
C2021 C 0.9609 0.05318 0.29317 0.0
C2022 C 0.96007 0.06992 0.31459 0.0
C2023 C 0.06035 0.11735 0.40568 0.0
C2024 C 0.05989 0.14333 0.41486 0.0
C2025 C 0.03566 0.1065 0.39602 0.0
C2026 C 0.01003 0.12141 0.39515 0.0
C2027 C 0.01012 0.14811 0.4022 0.0
C2028 C 0.03476 0.1589 0.41221 0.0
C2029 C 0.98289 0.10796 0.38993 0.0
C2030 C 0.98096 0.09287 0.36725 0.0
C2031 C 0.95987 0.108 0.40856 0.0
C2032 C 0.96137 0.12148 0.43405 0.0
C2033 C 0.94145 0.14166 0.44015 0.0
C2034 C 0.94307 0.15461 0.46404 0.0
C2035 C 0.96444 0.1474 0.48204 0.0
C2036 C 0.98412 0.12711 0.47628 0.0
C2037 C 0.98254 0.11407 0.45246 0.0
H2038 H 0.96569 0.15749 0.50049 0.0
H2039 H 0.96058 0.01275 0.28103 0.0
loop_
_geom_bond_atom_site_label_1
_geom_bond_atom_site_label_2
_geom_bond_distance
_geom_bond_site_symmetry_2
_ccdc_geom_bond_type
Zn0 O6 1.969 . S
Zn0 O7 1.965 . S
Zn0 O11 2.024 . S
Zn0 O16 1.969 . S
Zn1 O8 1.969 . S
Zn1 O14 1.969 . S
Zn1 O15 1.965 . S
Zn1 O17 2.024 . S
C2 O3 1.229 . S
C2 O11 1.058 . S
O3 C2 1.229 . S
C4 O5 1.229 . S
C4 O17 1.058 . S
O5 C4 1.229 . S
O6 Zn0 1.969 . S
O6 C9 1.267 . S
O7 Zn0 1.965 . S
O7 C18 1.260 . S
O8 Zn1 1.969 . S
O8 C18 1.258 . S
C9 O6 1.267 . S
C9 O10 1.228 . S
O10 C9 1.228 . S
O11 Zn0 2.024 . S
O11 C2 1.058 . S
C12 O13 1.228 . S
C12 O14 1.267 . S
O13 C12 1.228 . S
O14 Zn1 1.969 . S
O14 C12 1.267 . S
O15 Zn1 1.965 . S
O15 C19 1.260 . S
O16 Zn0 1.969 . S
O16 C19 1.258 . S
O17 Zn1 2.024 . S
O17 C4 1.058 . S
C18 O7 1.260 . S
C18 O8 1.258 . S
C19 O15 1.260 . S
C19 O16 1.258 . S
Zn20 O26 1.969 . S
Zn20 O27 1.965 1_655 S
Zn20 O31 2.024 . S
Zn20 O36 1.969 . S
Zn21 O28 1.969 . S
Zn21 O34 1.969 . S
Zn21 O35 1.965 . S
Zn21 O37 2.024 . S
C22 O23 1.229 . S
C22 O31 1.058 . S
O23 C22 1.229 . S
C24 O25 1.229 . S
C24 O37 1.058 . S
O25 C24 1.229 . S
O26 Zn20 1.969 . S
O26 C29 1.267 . S
O27 Zn20 1.965 1_455 S
O27 C38 1.260 . S
O28 Zn21 1.969 . S
O28 C38 1.258 . S
C29 O26 1.267 . S
C29 O30 1.228 . S
O30 C29 1.228 . S
O31 Zn20 2.024 . S
O31 C22 1.058 . S
C32 O33 1.228 . S
C32 O34 1.267 . S
O33 C32 1.228 . S
O34 Zn21 1.969 . S
O34 C32 1.267 . S
O35 Zn21 1.965 . S
O35 C39 1.260 . S
O36 Zn20 1.969 . S
O36 C39 1.258 1_655 S
O37 Zn21 2.024 . S
O37 C24 1.058 . S
C38 O27 1.260 . S
C38 O28 1.258 . S
C39 O35 1.260 . S
C39 O36 1.258 1_455 S
Zn40 O46 1.969 . S
Zn40 O47 1.965 . S
Zn40 O51 2.024 . S
Zn40 O56 1.969 . S
Zn41 O48 1.969 . S
Zn41 O54 1.969 . S
Zn41 O55 1.965 . S
Zn41 O57 2.024 . S
C42 O43 1.229 . S
C42 O51 1.058 . S
O43 C42 1.229 . S
C44 O45 1.229 . S
C44 O57 1.058 . S
O45 C44 1.229 . S
O46 Zn40 1.969 . S
O46 C49 1.267 . S
O47 Zn40 1.965 . S
O47 C58 1.260 . S
O48 Zn41 1.969 . S
O48 C58 1.258 . S
C49 O46 1.267 . S
C49 O50 1.228 . S
O50 C49 1.228 . S
O51 Zn40 2.024 . S
O51 C42 1.058 . S
C52 O53 1.228 . S
C52 O54 1.267 1_554 S
O53 C52 1.228 . S
O54 Zn41 1.969 . S
O54 C52 1.267 1_556 S
O55 Zn41 1.965 . S
O55 C59 1.260 . S
O56 Zn40 1.969 . S
O56 C59 1.258 . S
O57 Zn41 2.024 . S
O57 C44 1.058 . S
C58 O47 1.260 . S
C58 O48 1.258 . S
C59 O55 1.260 . S
C59 O56 1.258 . S
Zn60 O66 1.969 . S
Zn60 O67 1.965 . S
Zn60 O71 2.024 . S
Zn60 O76 1.969 . S
Zn61 O68 1.969 . S
Zn61 O74 1.969 . S
Zn61 O75 1.965 . S
Zn61 O77 2.024 . S
C62 O63 1.229 . S
C62 O71 1.058 . S
O63 C62 1.229 . S
C64 O65 1.229 . S
C64 O77 1.058 . S
O65 C64 1.229 . S
O66 Zn60 1.969 . S
O66 C69 1.267 . S
O67 Zn60 1.965 . S
O67 C78 1.260 . S
O68 Zn61 1.969 . S
O68 C78 1.258 . S
C69 O66 1.267 . S
C69 O70 1.228 . S
O70 C69 1.228 . S
O71 Zn60 2.024 . S
O71 C62 1.058 . S
C72 O73 1.228 . S
C72 O74 1.267 . S
O73 C72 1.228 . S
O74 Zn61 1.969 . S
O74 C72 1.267 . S
O75 Zn61 1.965 . S
O75 C79 1.260 . S
O76 Zn60 1.969 . S
O76 C79 1.258 . S
O77 Zn61 2.024 . S
O77 C64 1.058 . S
C78 O67 1.260 . S
C78 O68 1.258 . S
C79 O75 1.260 . S
C79 O76 1.258 . S
Zn80 O86 1.969 . S
Zn80 O87 1.965 . S
Zn80 O91 2.024 . S
Zn80 O96 1.969 . S
Zn81 O88 1.969 . S
Zn81 O94 1.969 . S
Zn81 O95 1.965 . S
Zn81 O97 2.024 . S
C82 O83 1.229 . S
C82 O91 1.058 . S
O83 C82 1.229 . S
C84 O85 1.229 . S
C84 O97 1.058 . S
O85 C84 1.229 . S
O86 Zn80 1.969 . S
O86 C89 1.267 . S
O87 Zn80 1.965 . S
O87 C98 1.260 . S
O88 Zn81 1.969 . S
O88 C98 1.258 . S
C89 O86 1.267 . S
C89 O90 1.228 . S
O90 C89 1.228 . S
O91 Zn80 2.024 . S
O91 C82 1.058 . S
C92 O93 1.228 . S
C92 O94 1.267 . S
O93 C92 1.228 . S
O94 Zn81 1.969 . S
O94 C92 1.267 . S
O95 Zn81 1.965 . S
O95 C99 1.260 . S
O96 Zn80 1.969 . S
O96 C99 1.258 . S
O97 Zn81 2.024 . S
O97 C84 1.058 . S
C98 O87 1.260 . S
C98 O88 1.258 . S
C99 O95 1.260 . S
C99 O96 1.258 . S
Zn100 O106 1.969 . S
Zn100 O107 1.965 . S
Zn100 O111 2.024 . S
Zn100 O116 1.969 . S
Zn101 O108 1.969 . S
Zn101 O114 1.969 1_655 S
Zn101 O115 1.965 . S
Zn101 O117 2.024 . S
C102 O103 1.229 . S
C102 O111 1.058 . S
O103 C102 1.229 . S
C104 O105 1.229 . S
C104 O117 1.058 . S
O105 C104 1.229 . S
O106 Zn100 1.969 . S
O106 C109 1.267 . S
O107 Zn100 1.965 . S
O107 C118 1.260 . S
O108 Zn101 1.969 . S
O108 C118 1.258 . S
C109 O106 1.267 . S
C109 O110 1.228 . S
O110 C109 1.228 . S
O111 Zn100 2.024 . S
O111 C102 1.058 . S
C112 O113 1.228 . S
C112 O114 1.267 . S
O113 C112 1.228 . S
O114 Zn101 1.969 1_455 S
O114 C112 1.267 . S
O115 Zn101 1.965 . S
O115 C119 1.260 . S
O116 Zn100 1.969 . S
O116 C119 1.258 . S
O117 Zn101 2.024 . S
O117 C104 1.058 . S
C118 O107 1.260 . S
C118 O108 1.258 . S
C119 O115 1.260 . S
C119 O116 1.258 . S
Zn120 O126 1.969 . S
Zn120 O127 1.965 1_556 S
Zn120 O131 2.024 . S
Zn120 O136 1.969 . S
Zn121 O128 1.969 . S
Zn121 O134 1.969 . S
Zn121 O135 1.965 . S
Zn121 O137 2.024 . S
C122 O123 1.229 . S
C122 O131 1.058 . S
O123 C122 1.229 . S
C124 O125 1.229 . S
C124 O137 1.058 . S
O125 C124 1.229 . S
O126 Zn120 1.969 . S
O126 C129 1.267 . S
O127 Zn120 1.965 1_554 S
O127 C138 1.260 . S
O128 Zn121 1.969 . S
O128 C138 1.258 . S
C129 O126 1.267 . S
C129 O130 1.228 . S
O130 C129 1.228 . S
O131 Zn120 2.024 . S
O131 C122 1.058 . S
C132 O133 1.228 . S
C132 O134 1.267 . S
O133 C132 1.228 . S
O134 Zn121 1.969 . S
O134 C132 1.267 . S
O135 Zn121 1.965 . S
O135 C139 1.260 . S
O136 Zn120 1.969 . S
O136 C139 1.258 1_556 S
O137 Zn121 2.024 . S
O137 C124 1.058 . S
C138 O127 1.260 . S
C138 O128 1.258 . S
C139 O135 1.260 . S
C139 O136 1.258 1_554 S
Zn140 O146 1.969 . S
Zn140 O147 1.965 . S
Zn140 O151 2.024 . S
Zn140 O156 1.969 . S
Zn141 O148 1.969 . S
Zn141 O154 1.969 . S
Zn141 O155 1.965 . S
Zn141 O157 2.024 . S
C142 O143 1.229 . S
C142 O151 1.058 . S
O143 C142 1.229 . S
C144 O145 1.229 . S
C144 O157 1.058 . S
O145 C144 1.229 . S
O146 Zn140 1.969 . S
O146 C149 1.267 . S
O147 Zn140 1.965 . S
O147 C158 1.260 . S
O148 Zn141 1.969 . S
O148 C158 1.258 . S
C149 O146 1.267 . S
C149 O150 1.228 . S
O150 C149 1.228 . S
O151 Zn140 2.024 . S
O151 C142 1.058 . S
C152 O153 1.228 . S
C152 O154 1.267 . S
O153 C152 1.228 . S
O154 Zn141 1.969 . S
O154 C152 1.267 . S
O155 Zn141 1.965 . S
O155 C159 1.260 . S
O156 Zn140 1.969 . S
O156 C159 1.258 . S
O157 Zn141 2.024 . S
O157 C144 1.058 . S
C158 O147 1.260 . S
C158 O148 1.258 . S
C159 O155 1.260 . S
C159 O156 1.258 . S
Zn160 O166 1.969 . S
Zn160 O167 1.965 . S
Zn160 O171 2.024 . S
Zn160 O176 1.969 . S
Zn161 O168 1.969 . S
Zn161 O174 1.969 . S
Zn161 O175 1.965 . S
Zn161 O177 2.024 . S
C162 O163 1.229 . S
C162 O171 1.058 . S
O163 C162 1.229 . S
C164 O165 1.229 . S
C164 O177 1.058 . S
O165 C164 1.229 . S
O166 Zn160 1.969 . S
O166 C169 1.267 . S
O167 Zn160 1.965 . S
O167 C178 1.260 . S
O168 Zn161 1.969 . S
O168 C178 1.258 . S
C169 O166 1.267 . S
C169 O170 1.228 . S
O170 C169 1.228 . S
O171 Zn160 2.024 . S
O171 C162 1.058 . S
C172 O173 1.228 . S
C172 O174 1.267 . S
O173 C172 1.228 . S
O174 Zn161 1.969 . S
O174 C172 1.267 . S
O175 Zn161 1.965 . S
O175 C179 1.260 . S
O176 Zn160 1.969 . S
O176 C179 1.258 . S
O177 Zn161 2.024 . S
O177 C164 1.058 . S
C178 O167 1.260 . S
C178 O168 1.258 . S
C179 O175 1.260 . S
C179 O176 1.258 . S
Zn180 O186 1.969 1_545 S
Zn180 O187 1.965 . S
Zn180 O191 2.024 . S
Zn180 O196 1.969 . S
Zn181 O188 1.969 . S
Zn181 O194 1.969 . S
Zn181 O195 1.965 . S
Zn181 O197 2.024 . S
C182 O183 1.229 . S
C182 O191 1.058 1_565 S
O183 C182 1.229 . S
C184 O185 1.229 . S
C184 O197 1.058 . S
O185 C184 1.229 . S
O186 Zn180 1.969 1_565 S
O186 C189 1.267 . S
O187 Zn180 1.965 . S
O187 C198 1.260 . S
O188 Zn181 1.969 . S
O188 C198 1.258 . S
C189 O186 1.267 . S
C189 O190 1.228 . S
O190 C189 1.228 . S
O191 Zn180 2.024 . S
O191 C182 1.058 1_545 S
C192 O193 1.228 . S
C192 O194 1.267 . S
O193 C192 1.228 . S
O194 Zn181 1.969 . S
O194 C192 1.267 . S
O195 Zn181 1.965 . S
O195 C199 1.260 . S
O196 Zn180 1.969 . S
O196 C199 1.258 . S
O197 Zn181 2.024 . S
O197 C184 1.058 . S
C198 O187 1.260 . S
C198 O188 1.258 . S
C199 O195 1.260 . S
C199 O196 1.258 . S
Zn200 O206 1.969 1_565 S
Zn200 O207 1.965 . S
Zn200 O211 2.024 . S
Zn200 O216 1.969 . S
Zn201 O208 1.969 . S
Zn201 O214 1.969 . S
Zn201 O215 1.965 . S
Zn201 O217 2.024 . S
C202 O203 1.229 . S
C202 O211 1.058 1_545 S
O203 C202 1.229 . S
C204 O205 1.229 . S
C204 O217 1.058 . S
O205 C204 1.229 . S
O206 Zn200 1.969 1_545 S
O206 C209 1.267 . S
O207 Zn200 1.965 . S
O207 C218 1.260 . S
O208 Zn201 1.969 . S
O208 C218 1.258 . S
C209 O206 1.267 . S
C209 O210 1.228 . S
O210 C209 1.228 . S
O211 Zn200 2.024 . S
O211 C202 1.058 1_565 S
C212 O213 1.228 . S
C212 O214 1.267 . S
O213 C212 1.228 . S
O214 Zn201 1.969 . S
O214 C212 1.267 . S
O215 Zn201 1.965 . S
O215 C219 1.260 . S
O216 Zn200 1.969 . S
O216 C219 1.258 . S
O217 Zn201 2.024 . S
O217 C204 1.058 . S
C218 O207 1.260 . S
C218 O208 1.258 . S
C219 O215 1.260 . S
C219 O216 1.258 . S
Zn220 O226 1.969 . S
Zn220 O227 1.965 . S
Zn220 O231 2.024 . S
Zn220 O236 1.969 . S
Zn221 O228 1.969 . S
Zn221 O234 1.969 . S
Zn221 O235 1.965 . S
Zn221 O237 2.024 . S
C222 O223 1.229 . S
C222 O231 1.058 . S
O223 C222 1.229 . S
C224 O225 1.229 . S
C224 O237 1.058 . S
O225 C224 1.229 . S
O226 Zn220 1.969 . S
O226 C229 1.267 . S
O227 Zn220 1.965 . S
O227 C238 1.260 . S
O228 Zn221 1.969 . S
O228 C238 1.258 . S
C229 O226 1.267 . S
C229 O230 1.228 . S
O230 C229 1.228 . S
O231 Zn220 2.024 . S
O231 C222 1.058 . S
C232 O233 1.228 . S
C232 O234 1.267 . S
O233 C232 1.228 . S
O234 Zn221 1.969 . S
O234 C232 1.267 . S
O235 Zn221 1.965 . S
O235 C239 1.260 . S
O236 Zn220 1.969 . S
O236 C239 1.258 . S
O237 Zn221 2.024 . S
O237 C224 1.058 . S
C238 O227 1.260 . S
C238 O228 1.258 . S
C239 O235 1.260 . S
C239 O236 1.258 . S
H240 C258 0.951 . S
H241 C260 0.951 . S
H242 C262 0.950 . S
H243 C263 0.950 . S
H244 C265 0.950 . S
H245 C268 0.950 . S
H246 C269 0.950 . S
H247 C271 0.950 . S
H248 C272 0.950 . S
H249 C273 0.951 . S
H250 C275 0.951 . S
H251 C277 0.950 . S
H252 C278 0.950 . S
H253 C280 0.950 . S
H254 C283 0.950 . S
H255 C284 0.950 . S
H256 C286 0.950 . S
H257 C287 0.950 . S
C258 H240 0.951 . S
C258 C259 1.366 . S
C258 C260 1.388 . S
C259 C258 1.366 . S
C259 C263 1.385 . S
C260 H241 0.951 . S
C260 C258 1.388 . S
C260 C261 1.366 . S
C261 C260 1.366 . S
C261 C262 1.414 . S
C261 C264 1.499 . S
C262 H242 0.950 . S
C262 C261 1.414 . S
C262 C263 1.374 . S
C263 H243 0.950 . S
C263 C259 1.385 . S
C263 C262 1.374 . S
C264 C261 1.499 . S
C264 C265 1.373 . S
C264 C266 1.389 . S
C265 H244 0.950 . S
C265 C264 1.373 . S
C265 C281 1.377 . S
C266 C264 1.389 . S
C266 C267 1.524 . S
C266 C280 1.377 . S
C267 C266 1.524 . S
C267 C268 1.397 . S
C267 C272 1.363 . S
C268 H245 0.950 . S
C268 C267 1.397 . S
C268 C269 1.334 . S
C269 H246 0.950 . S
C269 C268 1.334 . S
C269 C270 1.287 . S
C270 C269 1.287 . S
C270 C271 1.524 . S
C270 H289 0.913 . S
C271 H247 0.950 . S
C271 C270 1.524 . S
C271 C272 1.415 . S
C272 H248 0.950 . S
C272 C267 1.363 . S
C272 C271 1.415 . S
C273 H249 0.951 . S
C273 C274 1.366 . S
C273 C275 1.388 . S
C274 C273 1.366 . S
C274 C278 1.385 . S
C275 H250 0.951 . S
C275 C273 1.388 . S
C275 C276 1.366 . S
C276 C275 1.366 . S
C276 C277 1.414 . S
C276 C279 1.499 . S
C277 H251 0.950 . S
C277 C276 1.414 . S
C277 C278 1.374 . S
C278 H252 0.950 . S
C278 C274 1.385 . S
C278 C277 1.374 . S
C279 C276 1.499 . S
C279 C280 1.373 . S
C279 C281 1.389 . S
C280 H253 0.950 . S
C280 C266 1.377 . S
C280 C279 1.373 . S
C281 C265 1.377 . S
C281 C279 1.389 . S
C281 C282 1.524 . S
C282 C281 1.524 . S
C282 C283 1.397 . S
C282 C287 1.363 . S
C283 H254 0.950 . S
C283 C282 1.397 . S
C283 C284 1.334 . S
C284 H255 0.950 . S
C284 C283 1.334 . S
C284 C285 1.287 . S
C285 C284 1.287 . S
C285 C286 1.524 . S
C285 H288 0.999 . S
C286 H256 0.950 . S
C286 C285 1.524 . S
C286 C287 1.415 . S
C287 H257 0.950 . S
C287 C282 1.363 . S
C287 C286 1.415 . S
H288 C285 0.999 . S
H289 C270 0.913 . S
H290 C308 0.951 . S
H291 C310 0.951 . S
H292 C312 0.950 . S
H293 C313 0.950 . S
H294 C315 0.950 . S
H295 C318 0.950 . S
H296 C319 0.950 . S
H297 C321 0.950 . S
H298 C322 0.950 . S
H299 C323 0.951 . S
H300 C325 0.951 . S
H301 C327 0.950 . S
H302 C328 0.950 . S
H303 C330 0.950 . S
H304 C333 0.950 . S
H305 C334 0.950 1_565 S
H306 C336 0.950 . S
H307 C337 0.950 . S
C308 H290 0.951 . S
C308 C309 1.366 1_565 S
C308 C310 1.388 . S
C309 C308 1.366 1_545 S
C309 C313 1.385 . S
C310 H291 0.951 . S
C310 C308 1.388 . S
C310 C311 1.366 1_565 S
C311 C310 1.366 1_545 S
C311 C312 1.414 . S
C311 C314 1.499 1_545 S
C312 H292 0.950 . S
C312 C311 1.414 . S
C312 C313 1.374 . S
C313 H293 0.950 . S
C313 C309 1.385 . S
C313 C312 1.374 . S
C314 C311 1.499 1_565 S
C314 C315 1.373 1_565 S
C314 C316 1.389 . S
C315 H294 0.950 . S
C315 C314 1.373 1_545 S
C315 C331 1.377 1_545 S
C316 C314 1.389 . S
C316 C317 1.524 . S
C316 C330 1.377 . S
C317 C316 1.524 . S
C317 C318 1.397 . S
C317 C322 1.363 . S
C318 H295 0.950 . S
C318 C317 1.397 . S
C318 C319 1.334 . S
C319 H296 0.950 . S
C319 C318 1.334 . S
C319 C320 1.287 . S
C320 C319 1.287 . S
C320 C321 1.524 . S
C320 H339 0.913 . S
C321 H297 0.950 . S
C321 C320 1.524 . S
C321 C322 1.415 . S
C322 H298 0.950 . S
C322 C317 1.363 . S
C322 C321 1.415 . S
C323 H299 0.951 . S
C323 C324 1.366 . S
C323 C325 1.388 . S
C324 C323 1.366 . S
C324 C328 1.385 . S
C325 H300 0.951 . S
C325 C323 1.388 . S
C325 C326 1.366 . S
C326 C325 1.366 . S
C326 C327 1.414 . S
C326 C329 1.499 . S
C327 H301 0.950 . S
C327 C326 1.414 . S
C327 C328 1.374 . S
C328 H302 0.950 . S
C328 C324 1.385 . S
C328 C327 1.374 . S
C329 C326 1.499 . S
C329 C330 1.373 . S
C329 C331 1.389 . S
C330 H303 0.950 . S
C330 C316 1.377 . S
C330 C329 1.373 . S
C331 C315 1.377 1_565 S
C331 C329 1.389 . S
C331 C332 1.524 1_565 S
C332 C331 1.524 1_545 S
C332 C333 1.397 1_545 S
C332 C337 1.363 . S
C333 H304 0.950 . S
C333 C332 1.397 1_565 S
C333 C334 1.334 1_565 S
C334 H305 0.950 1_545 S
C334 C333 1.334 1_545 S
C334 C335 1.287 . S
C335 C334 1.287 . S
C335 C336 1.524 . S
C335 H338 0.999 . S
C336 H306 0.950 . S
C336 C335 1.524 . S
C336 C337 1.415 . S
C337 H307 0.950 . S
C337 C332 1.363 . S
C337 C336 1.415 . S
H338 C335 0.999 . S
H339 C320 0.913 . S
H340 C358 0.951 . S
H341 C360 0.951 . S
H342 C362 0.950 . S
H343 C363 0.950 . S
H344 C365 0.950 1_556 S
H345 C368 0.950 . S
H346 C369 0.950 . S
H347 C371 0.950 . S
H348 C372 0.950 . S
H349 C373 0.951 . S
H350 C375 0.951 . S
H351 C377 0.950 . S
H352 C378 0.950 . S
H353 C380 0.950 . S
H354 C383 0.950 . S
H355 C384 0.950 . S
H356 C386 0.950 . S
H357 C387 0.950 . S
C358 H340 0.951 . S
C358 C359 1.366 1_554 S
C358 C360 1.388 . S
C359 C358 1.366 1_556 S
C359 C363 1.385 . S
C360 H341 0.951 . S
C360 C358 1.388 . S
C360 C361 1.366 . S
C361 C360 1.366 . S
C361 C362 1.414 1_554 S
C361 C364 1.499 . S
C362 H342 0.950 . S
C362 C361 1.414 1_556 S
C362 C363 1.374 . S
C363 H343 0.950 . S
C363 C359 1.385 . S
C363 C362 1.374 . S
C364 C361 1.499 . S
C364 C365 1.373 . S
C364 C366 1.389 . S
C365 H344 0.950 1_554 S
C365 C364 1.373 . S
C365 C381 1.377 . S
C366 C364 1.389 . S
C366 C367 1.524 . S
C366 C380 1.377 . S
C367 C366 1.524 . S
C367 C368 1.397 . S
C367 C372 1.363 . S
C368 H345 0.950 . S
C368 C367 1.397 . S
C368 C369 1.334 . S
C369 H346 0.950 . S
C369 C368 1.334 . S
C369 C370 1.287 . S
C370 C369 1.287 . S
C370 C371 1.524 . S
C370 H389 0.913 . S
C371 H347 0.950 . S
C371 C370 1.524 . S
C371 C372 1.415 . S
C372 H348 0.950 . S
C372 C367 1.363 . S
C372 C371 1.415 . S
C373 H349 0.951 . S
C373 C374 1.366 . S
C373 C375 1.388 . S
C374 C373 1.366 . S
C374 C378 1.385 . S
C375 H350 0.951 . S
C375 C373 1.388 . S
C375 C376 1.366 . S
C376 C375 1.366 . S
C376 C377 1.414 . S
C376 C379 1.499 . S
C377 H351 0.950 . S
C377 C376 1.414 . S
C377 C378 1.374 . S
C378 H352 0.950 . S
C378 C374 1.385 . S
C378 C377 1.374 . S
C379 C376 1.499 . S
C379 C380 1.373 . S
C379 C381 1.389 . S
C380 H353 0.950 . S
C380 C366 1.377 . S
C380 C379 1.373 . S
C381 C365 1.377 . S
C381 C379 1.389 . S
C381 C382 1.524 . S
C382 C381 1.524 . S
C382 C383 1.397 . S
C382 C387 1.363 1_554 S
C383 H354 0.950 . S
C383 C382 1.397 . S
C383 C384 1.334 1_554 S
C384 H355 0.950 . S
C384 C383 1.334 1_556 S
C384 C385 1.287 . S
C385 C384 1.287 . S
C385 C386 1.524 . S
C385 H388 0.999 . S
C386 H356 0.950 . S
C386 C385 1.524 . S
C386 C387 1.415 . S
C387 H357 0.950 . S
C387 C382 1.363 1_556 S
C387 C386 1.415 . S
H388 C385 0.999 . S
H389 C370 0.913 . S
H390 C408 0.951 . S
H391 C410 0.951 . S
H392 C412 0.950 . S
H393 C413 0.950 . S
H394 C415 0.950 . S
H395 C418 0.950 . S
H396 C419 0.950 . S
H397 C421 0.950 . S
H398 C422 0.950 . S
H399 C423 0.951 . S
H400 C425 0.951 . S
H401 C427 0.950 . S
H402 C428 0.950 . S
H403 C430 0.950 . S
H404 C433 0.950 . S
H405 C434 0.950 . S
H406 C436 0.950 . S
H407 C437 0.950 . S
C408 H390 0.951 . S
C408 C409 1.366 . S
C408 C410 1.388 . S
C409 C408 1.366 . S
C409 C413 1.385 . S
C410 H391 0.951 . S
C410 C408 1.388 . S
C410 C411 1.366 . S
C411 C410 1.366 . S
C411 C412 1.414 . S
C411 C414 1.499 . S
C412 H392 0.950 . S
C412 C411 1.414 . S
C412 C413 1.374 . S
C413 H393 0.950 . S
C413 C409 1.385 . S
C413 C412 1.374 . S
C414 C411 1.499 . S
C414 C415 1.373 . S
C414 C416 1.389 . S
C415 H394 0.950 . S
C415 C414 1.373 . S
C415 C431 1.377 . S
C416 C414 1.389 . S
C416 C417 1.524 . S
C416 C430 1.377 . S
C417 C416 1.524 . S
C417 C418 1.397 . S
C417 C422 1.363 . S
C418 H395 0.950 . S
C418 C417 1.397 . S
C418 C419 1.334 . S
C419 H396 0.950 . S
C419 C418 1.334 . S
C419 C420 1.287 . S
C420 C419 1.287 . S
C420 C421 1.524 . S
C420 H439 0.913 . S
C421 H397 0.950 . S
C421 C420 1.524 . S
C421 C422 1.415 . S
C422 H398 0.950 . S
C422 C417 1.363 . S
C422 C421 1.415 . S
C423 H399 0.951 . S
C423 C424 1.366 . S
C423 C425 1.388 . S
C424 C423 1.366 . S
C424 C428 1.385 1_565 S
C425 H400 0.951 . S
C425 C423 1.388 . S
C425 C426 1.366 1_565 S
C426 C425 1.366 1_545 S
C426 C427 1.414 . S
C426 C429 1.499 . S
C427 H401 0.950 . S
C427 C426 1.414 . S
C427 C428 1.374 . S
C428 H402 0.950 . S
C428 C424 1.385 1_545 S
C428 C427 1.374 . S
C429 C426 1.499 . S
C429 C430 1.373 . S
C429 C431 1.389 . S
C430 H403 0.950 . S
C430 C416 1.377 . S
C430 C429 1.373 . S
C431 C415 1.377 . S
C431 C429 1.389 . S
C431 C432 1.524 . S
C432 C431 1.524 . S
C432 C433 1.397 . S
C432 C437 1.363 1_545 S
C433 H404 0.950 . S
C433 C432 1.397 . S
C433 C434 1.334 . S
C434 H405 0.950 . S
C434 C433 1.334 . S
C434 C435 1.287 1_545 S
C435 C434 1.287 1_565 S
C435 C436 1.524 . S
C435 H438 0.999 . S
C436 H406 0.950 . S
C436 C435 1.524 . S
C436 C437 1.415 . S
C437 H407 0.950 . S
C437 C432 1.363 1_565 S
C437 C436 1.415 . S
H438 C435 0.999 . S
H439 C420 0.913 . S
H440 C458 0.951 . S
H441 C460 0.951 . S
H442 C462 0.950 . S
H443 C463 0.950 . S
H444 C465 0.950 . S
H445 C468 0.950 . S
H446 C469 0.950 . S
H447 C471 0.950 . S
H448 C472 0.950 . S
H449 C473 0.951 . S
H450 C475 0.951 . S
H451 C477 0.950 . S
H452 C478 0.950 . S
H453 C480 0.950 . S
H454 C483 0.950 . S
H455 C484 0.950 . S
H456 C486 0.950 . S
H457 C487 0.950 . S
C458 H440 0.951 . S
C458 C459 1.366 . S
C458 C460 1.388 . S
C459 C458 1.366 . S
C459 C463 1.385 . S
C460 H441 0.951 . S
C460 C458 1.388 . S
C460 C461 1.366 . S
C461 C460 1.366 . S
C461 C462 1.414 . S
C461 C464 1.499 . S
C462 H442 0.950 . S
C462 C461 1.414 . S
C462 C463 1.374 . S
C463 H443 0.950 . S
C463 C459 1.385 . S
C463 C462 1.374 . S
C464 C461 1.499 . S
C464 C465 1.373 . S
C464 C466 1.389 . S
C465 H444 0.950 . S
C465 C464 1.373 . S
C465 C481 1.377 . S
C466 C464 1.389 . S
C466 C467 1.524 . S
C466 C480 1.377 . S
C467 C466 1.524 . S
C467 C468 1.397 . S
C467 C472 1.363 . S
C468 H445 0.950 . S
C468 C467 1.397 . S
C468 C469 1.334 . S
C469 H446 0.950 . S
C469 C468 1.334 . S
C469 C470 1.287 . S
C470 C469 1.287 . S
C470 C471 1.524 . S
C470 H489 0.913 . S
C471 H447 0.950 . S
C471 C470 1.524 . S
C471 C472 1.415 . S
C472 H448 0.950 . S
C472 C467 1.363 . S
C472 C471 1.415 . S
C473 H449 0.951 . S
C473 C474 1.366 . S
C473 C475 1.388 . S
C474 C473 1.366 . S
C474 C478 1.385 . S
C475 H450 0.951 . S
C475 C473 1.388 . S
C475 C476 1.366 . S
C476 C475 1.366 . S
C476 C477 1.414 . S
C476 C479 1.499 . S
C477 H451 0.950 . S
C477 C476 1.414 . S
C477 C478 1.374 . S
C478 H452 0.950 . S
C478 C474 1.385 . S
C478 C477 1.374 . S
C479 C476 1.499 . S
C479 C480 1.373 . S
C479 C481 1.389 . S
C480 H453 0.950 . S
C480 C466 1.377 . S
C480 C479 1.373 . S
C481 C465 1.377 . S
C481 C479 1.389 . S
C481 C482 1.524 . S
C482 C481 1.524 . S
C482 C483 1.397 . S
C482 C487 1.363 . S
C483 H454 0.950 . S
C483 C482 1.397 . S
C483 C484 1.334 . S
C484 H455 0.950 . S
C484 C483 1.334 . S
C484 C485 1.287 . S
C485 C484 1.287 . S
C485 C486 1.524 . S
C485 H488 0.999 . S
C486 H456 0.950 . S
C486 C485 1.524 . S
C486 C487 1.415 . S
C487 H457 0.950 . S
C487 C482 1.363 . S
C487 C486 1.415 . S
H488 C485 0.999 . S
H489 C470 0.913 . S
H490 C508 0.951 . S
H491 C510 0.951 . S
H492 C512 0.950 . S
H493 C513 0.950 . S
H494 C515 0.950 . S
H495 C518 0.950 . S
H496 C519 0.950 . S
H497 C521 0.950 . S
H498 C522 0.950 . S
H499 C523 0.951 . S
H500 C525 0.951 . S
H501 C527 0.950 . S
H502 C528 0.950 . S
H503 C530 0.950 . S
H504 C533 0.950 . S
H505 C534 0.950 . S
H506 C536 0.950 . S
H507 C537 0.950 . S
C508 H490 0.951 . S
C508 C509 1.366 . S
C508 C510 1.388 . S
C509 C508 1.366 . S
C509 C513 1.385 . S
C510 H491 0.951 . S
C510 C508 1.388 . S
C510 C511 1.366 . S
C511 C510 1.366 . S
C511 C512 1.414 . S
C511 C514 1.499 . S
C512 H492 0.950 . S
C512 C511 1.414 . S
C512 C513 1.374 . S
C513 H493 0.950 . S
C513 C509 1.385 . S
C513 C512 1.374 . S
C514 C511 1.499 . S
C514 C515 1.373 . S
C514 C516 1.389 . S
C515 H494 0.950 . S
C515 C514 1.373 . S
C515 C531 1.377 . S
C516 C514 1.389 . S
C516 C517 1.524 . S
C516 C530 1.377 . S
C517 C516 1.524 . S
C517 C518 1.397 . S
C517 C522 1.363 . S
C518 H495 0.950 . S
C518 C517 1.397 . S
C518 C519 1.334 . S
C519 H496 0.950 . S
C519 C518 1.334 . S
C519 C520 1.287 . S
C520 C519 1.287 . S
C520 C521 1.524 . S
C520 H539 0.913 . S
C521 H497 0.950 . S
C521 C520 1.524 . S
C521 C522 1.415 . S
C522 H498 0.950 . S
C522 C517 1.363 . S
C522 C521 1.415 . S
C523 H499 0.951 . S
C523 C524 1.366 . S
C523 C525 1.388 . S
C524 C523 1.366 . S
C524 C528 1.385 . S
C525 H500 0.951 . S
C525 C523 1.388 . S
C525 C526 1.366 . S
C526 C525 1.366 . S
C526 C527 1.414 . S
C526 C529 1.499 . S
C527 H501 0.950 . S
C527 C526 1.414 . S
C527 C528 1.374 . S
C528 H502 0.950 . S
C528 C524 1.385 . S
C528 C527 1.374 . S
C529 C526 1.499 . S
C529 C530 1.373 . S
C529 C531 1.389 . S
C530 H503 0.950 . S
C530 C516 1.377 . S
C530 C529 1.373 . S
C531 C515 1.377 . S
C531 C529 1.389 . S
C531 C532 1.524 . S
C532 C531 1.524 . S
C532 C533 1.397 . S
C532 C537 1.363 . S
C533 H504 0.950 . S
C533 C532 1.397 . S
C533 C534 1.334 . S
C534 H505 0.950 . S
C534 C533 1.334 . S
C534 C535 1.287 . S
C535 C534 1.287 . S
C535 C536 1.524 . S
C535 H538 0.999 . S
C536 H506 0.950 . S
C536 C535 1.524 . S
C536 C537 1.415 . S
C537 H507 0.950 . S
C537 C532 1.363 . S
C537 C536 1.415 . S
H538 C535 0.999 . S
H539 C520 0.913 . S
H540 C558 0.951 . S
H541 C560 0.951 . S
H542 C562 0.950 . S
H543 C563 0.950 . S
H544 C565 0.950 . S
H545 C568 0.950 . S
H546 C569 0.950 . S
H547 C571 0.950 . S
H548 C572 0.950 . S
H549 C573 0.951 . S
H550 C575 0.951 . S
H551 C577 0.950 . S
H552 C578 0.950 . S
H553 C580 0.950 . S
H554 C583 0.950 . S
H555 C584 0.950 . S
H556 C586 0.950 . S
H557 C587 0.950 . S
C558 H540 0.951 . S
C558 C559 1.366 . S
C558 C560 1.388 . S
C559 C558 1.366 . S
C559 C563 1.385 . S
C560 H541 0.951 . S
C560 C558 1.388 . S
C560 C561 1.366 . S
C561 C560 1.366 . S
C561 C562 1.414 . S
C561 C564 1.499 . S
C562 H542 0.950 . S
C562 C561 1.414 . S
C562 C563 1.374 . S
C563 H543 0.950 . S
C563 C559 1.385 . S
C563 C562 1.374 . S
C564 C561 1.499 . S
C564 C565 1.373 . S
C564 C566 1.389 . S
C565 H544 0.950 . S
C565 C564 1.373 . S
C565 C581 1.377 . S
C566 C564 1.389 . S
C566 C567 1.524 . S
C566 C580 1.377 . S
C567 C566 1.524 . S
C567 C568 1.397 . S
C567 C572 1.363 . S
C568 H545 0.950 . S
C568 C567 1.397 . S
C568 C569 1.334 . S
C569 H546 0.950 . S
C569 C568 1.334 . S
C569 C570 1.287 . S
C570 C569 1.287 . S
C570 C571 1.524 . S
C570 H589 0.913 . S
C571 H547 0.950 . S
C571 C570 1.524 . S
C571 C572 1.415 . S
C572 H548 0.950 . S
C572 C567 1.363 . S
C572 C571 1.415 . S
C573 H549 0.951 . S
C573 C574 1.366 . S
C573 C575 1.388 . S
C574 C573 1.366 . S
C574 C578 1.385 1_554 S
C575 H550 0.951 . S
C575 C573 1.388 . S
C575 C576 1.366 1_554 S
C576 C575 1.366 1_556 S
C576 C577 1.414 . S
C576 C579 1.499 . S
C577 H551 0.950 . S
C577 C576 1.414 . S
C577 C578 1.374 . S
C578 H552 0.950 . S
C578 C574 1.385 1_556 S
C578 C577 1.374 . S
C579 C576 1.499 . S
C579 C580 1.373 . S
C579 C581 1.389 . S
C580 H553 0.950 . S
C580 C566 1.377 . S
C580 C579 1.373 . S
C581 C565 1.377 . S
C581 C579 1.389 . S
C581 C582 1.524 . S
C582 C581 1.524 . S
C582 C583 1.397 . S
C582 C587 1.363 1_556 S
C583 H554 0.950 . S
C583 C582 1.397 . S
C583 C584 1.334 . S
C584 H555 0.950 . S
C584 C583 1.334 . S
C584 C585 1.287 1_556 S
C585 C584 1.287 1_554 S
C585 C586 1.524 . S
C585 H588 0.999 . S
C586 H556 0.950 . S
C586 C585 1.524 . S
C586 C587 1.415 . S
C587 H557 0.950 . S
C587 C582 1.363 1_554 S
C587 C586 1.415 . S
H588 C585 0.999 . S
H589 C570 0.913 . S
H590 C608 0.951 . S
H591 C610 0.951 . S
H592 C612 0.950 . S
H593 C613 0.950 . S
H594 C615 0.950 . S
H595 C618 0.950 . S
H596 C619 0.950 . S
H597 C621 0.950 . S
H598 C622 0.950 . S
H599 C623 0.951 . S
H600 C625 0.951 . S
H601 C627 0.950 . S
H602 C628 0.950 . S
H603 C630 0.950 . S
H604 C633 0.950 . S
H605 C634 0.950 . S
H606 C636 0.950 . S
H607 C637 0.950 . S
C608 H590 0.951 . S
C608 C609 1.366 . S
C608 C610 1.388 . S
C609 C608 1.366 . S
C609 C613 1.385 . S
C610 H591 0.951 . S
C610 C608 1.388 . S
C610 C611 1.366 . S
C611 C610 1.366 . S
C611 C612 1.414 . S
C611 C614 1.499 . S
C612 H592 0.950 . S
C612 C611 1.414 . S
C612 C613 1.374 . S
C613 H593 0.950 . S
C613 C609 1.385 . S
C613 C612 1.374 . S
C614 C611 1.499 . S
C614 C615 1.373 . S
C614 C616 1.389 . S
C615 H594 0.950 . S
C615 C614 1.373 . S
C615 C631 1.377 . S
C616 C614 1.389 . S
C616 C617 1.524 . S
C616 C630 1.377 . S
C617 C616 1.524 . S
C617 C618 1.397 . S
C617 C622 1.363 . S
C618 H595 0.950 . S
C618 C617 1.397 . S
C618 C619 1.334 . S
C619 H596 0.950 . S
C619 C618 1.334 . S
C619 C620 1.287 . S
C620 C619 1.287 . S
C620 C621 1.524 . S
C620 H639 0.913 . S
C621 H597 0.950 . S
C621 C620 1.524 . S
C621 C622 1.415 . S
C622 H598 0.950 . S
C622 C617 1.363 . S
C622 C621 1.415 . S
C623 H599 0.951 . S
C623 C624 1.366 . S
C623 C625 1.388 . S
C624 C623 1.366 . S
C624 C628 1.385 . S
C625 H600 0.951 . S
C625 C623 1.388 . S
C625 C626 1.366 . S
C626 C625 1.366 . S
C626 C627 1.414 . S
C626 C629 1.499 . S
C627 H601 0.950 . S
C627 C626 1.414 . S
C627 C628 1.374 . S
C628 H602 0.950 . S
C628 C624 1.385 . S
C628 C627 1.374 . S
C629 C626 1.499 . S
C629 C630 1.373 . S
C629 C631 1.389 . S
C630 H603 0.950 . S
C630 C616 1.377 . S
C630 C629 1.373 . S
C631 C615 1.377 . S
C631 C629 1.389 . S
C631 C632 1.524 . S
C632 C631 1.524 . S
C632 C633 1.397 . S
C632 C637 1.363 . S
C633 H604 0.950 . S
C633 C632 1.397 . S
C633 C634 1.334 . S
C634 H605 0.950 . S
C634 C633 1.334 . S
C634 C635 1.287 . S
C635 C634 1.287 . S
C635 C636 1.524 . S
C635 H638 0.999 . S
C636 H606 0.950 . S
C636 C635 1.524 . S
C636 C637 1.415 . S
C637 H607 0.950 . S
C637 C632 1.363 . S
C637 C636 1.415 . S
H638 C635 0.999 . S
H639 C620 0.913 . S
H640 C658 0.951 . S
H641 C660 0.951 . S
H642 C662 0.950 . S
H643 C663 0.950 . S
H644 C665 0.950 . S
H645 C668 0.950 . S
H646 C669 0.950 . S
H647 C671 0.950 . S
H648 C672 0.950 . S
H649 C673 0.951 . S
H650 C675 0.951 . S
H651 C677 0.950 . S
H652 C678 0.950 . S
H653 C680 0.950 . S
H654 C683 0.950 . S
H655 C684 0.950 . S
H656 C686 0.950 . S
H657 C687 0.950 . S
C658 H640 0.951 . S
C658 C659 1.366 . S
C658 C660 1.388 . S
C659 C658 1.366 . S
C659 C663 1.385 . S
C660 H641 0.951 . S
C660 C658 1.388 . S
C660 C661 1.366 . S
C661 C660 1.366 . S
C661 C662 1.414 . S
C661 C664 1.499 . S
C662 H642 0.950 . S
C662 C661 1.414 . S
C662 C663 1.374 . S
C663 H643 0.950 . S
C663 C659 1.385 . S
C663 C662 1.374 . S
C664 C661 1.499 . S
C664 C665 1.373 . S
C664 C666 1.389 . S
C665 H644 0.950 . S
C665 C664 1.373 . S
C665 C681 1.377 . S
C666 C664 1.389 . S
C666 C667 1.524 . S
C666 C680 1.377 . S
C667 C666 1.524 . S
C667 C668 1.397 . S
C667 C672 1.363 . S
C668 H645 0.950 . S
C668 C667 1.397 . S
C668 C669 1.334 . S
C669 H646 0.950 . S
C669 C668 1.334 . S
C669 C670 1.287 . S
C670 C669 1.287 . S
C670 C671 1.524 . S
C670 H689 0.913 . S
C671 H647 0.950 . S
C671 C670 1.524 . S
C671 C672 1.415 . S
C672 H648 0.950 . S
C672 C667 1.363 . S
C672 C671 1.415 . S
C673 H649 0.951 . S
C673 C674 1.366 . S
C673 C675 1.388 . S
C674 C673 1.366 . S
C674 C678 1.385 . S
C675 H650 0.951 . S
C675 C673 1.388 . S
C675 C676 1.366 . S
C676 C675 1.366 . S
C676 C677 1.414 . S
C676 C679 1.499 . S
C677 H651 0.950 . S
C677 C676 1.414 . S
C677 C678 1.374 . S
C678 H652 0.950 . S
C678 C674 1.385 . S
C678 C677 1.374 . S
C679 C676 1.499 . S
C679 C680 1.373 . S
C679 C681 1.389 . S
C680 H653 0.950 . S
C680 C666 1.377 . S
C680 C679 1.373 . S
C681 C665 1.377 . S
C681 C679 1.389 . S
C681 C682 1.524 . S
C682 C681 1.524 . S
C682 C683 1.397 . S
C682 C687 1.363 . S
C683 H654 0.950 . S
C683 C682 1.397 . S
C683 C684 1.334 . S
C684 H655 0.950 . S
C684 C683 1.334 . S
C684 C685 1.287 . S
C685 C684 1.287 . S
C685 C686 1.524 . S
C685 H688 0.999 . S
C686 H656 0.950 . S
C686 C685 1.524 . S
C686 C687 1.415 . S
C687 H657 0.950 . S
C687 C682 1.363 . S
C687 C686 1.415 . S
H688 C685 0.999 . S
H689 C670 0.913 . S
H690 C708 0.951 . S
H691 C710 0.951 . S
H692 C712 0.950 . S
H693 C713 0.950 . S
H694 C715 0.950 . S
H695 C718 0.950 . S
H696 C719 0.950 . S
H697 C721 0.950 . S
H698 C722 0.950 . S
H699 C723 0.951 . S
H700 C725 0.951 . S
H701 C727 0.950 . S
H702 C728 0.950 1_655 S
H703 C730 0.950 1_655 S
H704 C733 0.950 . S
H705 C734 0.950 . S
H706 C736 0.950 . S
H707 C737 0.950 . S
C708 H690 0.951 . S
C708 C709 1.366 . S
C708 C710 1.388 . S
C709 C708 1.366 . S
C709 C713 1.385 . S
C710 H691 0.951 . S
C710 C708 1.388 . S
C710 C711 1.366 . S
C711 C710 1.366 . S
C711 C712 1.414 . S
C711 C714 1.499 . S
C712 H692 0.950 . S
C712 C711 1.414 . S
C712 C713 1.374 . S
C713 H693 0.950 . S
C713 C709 1.385 . S
C713 C712 1.374 . S
C714 C711 1.499 . S
C714 C715 1.373 . S
C714 C716 1.389 . S
C715 H694 0.950 . S
C715 C714 1.373 . S
C715 C731 1.377 . S
C716 C714 1.389 . S
C716 C717 1.536 . S
C716 C730 1.377 . S
C717 C716 1.536 . S
C717 C718 1.391 1_455 S
C717 C722 1.356 1_455 S
C718 H695 0.950 . S
C718 C717 1.391 1_655 S
C718 C719 1.334 . S
C719 H696 0.950 . S
C719 C718 1.334 . S
C719 C720 1.287 . S
C720 C719 1.287 . S
C720 C721 1.524 . S
C720 H739 0.913 . S
C721 H697 0.950 . S
C721 C720 1.524 . S
C721 C722 1.415 . S
C722 H698 0.950 . S
C722 C717 1.356 1_655 S
C722 C721 1.415 . S
C723 H699 0.951 . S
C723 C724 1.366 . S
C723 C725 1.388 . S
C724 C723 1.366 . S
C724 C728 1.385 . S
C725 H700 0.951 . S
C725 C723 1.388 . S
C725 C726 1.366 . S
C726 C725 1.366 . S
C726 C727 1.414 . S
C726 C729 1.499 . S
C727 H701 0.950 . S
C727 C726 1.414 . S
C727 C728 1.374 . S
C728 H702 0.950 1_455 S
C728 C724 1.385 . S
C728 C727 1.374 . S
C729 C726 1.499 . S
C729 C730 1.373 . S
C729 C731 1.389 . S
C730 H703 0.950 1_455 S
C730 C716 1.377 . S
C730 C729 1.373 . S
C731 C715 1.377 . S
C731 C729 1.389 . S
C731 C732 1.524 . S
C732 C731 1.524 . S
C732 C733 1.397 . S
C732 C737 1.363 . S
C733 H704 0.950 . S
C733 C732 1.397 . S
C733 C734 1.334 . S
C734 H705 0.950 . S
C734 C733 1.334 . S
C734 C735 1.287 . S
C735 C734 1.287 . S
C735 C736 1.524 . S
C735 H738 0.999 . S
C736 H706 0.950 . S
C736 C735 1.524 . S
C736 C737 1.415 . S
C737 H707 0.950 . S
C737 C732 1.363 . S
C737 C736 1.415 . S
H738 C735 0.999 . S
H739 C720 0.913 . S
H740 C758 0.951 . S
H741 C760 0.951 . S
H742 C762 0.950 . S
H743 C763 0.950 . S
H744 C765 0.950 . S
H745 C768 0.950 . S
H746 C769 0.950 . S
H747 C771 0.950 . S
H748 C772 0.950 . S
H749 C773 0.951 . S
H750 C775 0.951 . S
H751 C777 0.950 . S
H752 C778 0.950 . S
H753 C780 0.950 . S
H754 C783 0.950 . S
H755 C784 0.950 . S
H756 C786 0.950 . S
H757 C787 0.950 . S
C758 H740 0.951 . S
C758 C759 1.366 . S
C758 C760 1.388 1_455 S
C759 C758 1.366 . S
C759 C763 1.385 1_455 S
C760 H741 0.951 . S
C760 C758 1.388 1_655 S
C760 C761 1.366 . S
C761 C760 1.366 . S
C761 C762 1.414 . S
C761 C764 1.499 . S
C762 H742 0.950 . S
C762 C761 1.414 . S
C762 C763 1.374 . S
C763 H743 0.950 . S
C763 C759 1.385 1_655 S
C763 C762 1.374 . S
C764 C761 1.499 . S
C764 C765 1.373 . S
C764 C766 1.389 . S
C765 H744 0.950 . S
C765 C764 1.373 . S
C765 C781 1.377 . S
C766 C764 1.389 . S
C766 C767 1.524 1_655 S
C766 C780 1.377 . S
C767 C766 1.524 1_455 S
C767 C768 1.397 . S
C767 C772 1.363 . S
C768 H745 0.950 . S
C768 C767 1.397 . S
C768 C769 1.334 . S
C769 H746 0.950 . S
C769 C768 1.334 . S
C769 C770 1.287 . S
C770 C769 1.287 . S
C770 C771 1.524 . S
C770 H789 0.913 . S
C771 H747 0.950 . S
C771 C770 1.524 . S
C771 C772 1.415 . S
C772 H748 0.950 . S
C772 C767 1.363 . S
C772 C771 1.415 . S
C773 H749 0.951 . S
C773 C774 1.366 . S
C773 C775 1.388 . S
C774 C773 1.366 . S
C774 C778 1.385 . S
C775 H750 0.951 . S
C775 C773 1.388 . S
C775 C776 1.366 . S
C776 C775 1.366 . S
C776 C777 1.414 . S
C776 C779 1.499 . S
C777 H751 0.950 . S
C777 C776 1.414 . S
C777 C778 1.374 . S
C778 H752 0.950 . S
C778 C774 1.385 . S
C778 C777 1.374 . S
C779 C776 1.499 . S
C779 C780 1.373 . S
C779 C781 1.389 . S
C780 H753 0.950 . S
C780 C766 1.377 . S
C780 C779 1.373 . S
C781 C765 1.377 . S
C781 C779 1.389 . S
C781 C782 1.524 . S
C782 C781 1.524 . S
C782 C783 1.397 . S
C782 C787 1.363 . S
C783 H754 0.950 . S
C783 C782 1.397 . S
C783 C784 1.334 . S
C784 H755 0.950 . S
C784 C783 1.334 . S
C784 C785 1.287 . S
C785 C784 1.287 . S
C785 C786 1.524 . S
C785 H788 0.999 . S
C786 H756 0.950 . S
C786 C785 1.524 . S
C786 C787 1.415 . S
C787 H757 0.950 . S
C787 C782 1.363 . S
C787 C786 1.415 . S
H788 C785 0.999 . S
H789 C770 0.913 . S
H790 C808 0.951 . S
H791 C810 0.951 . S
H792 C812 0.950 . S
H793 C813 0.950 . S
H794 C815 0.950 . S
H795 C818 0.950 . S
H796 C819 0.950 . S
H797 C821 0.950 . S
H798 C822 0.950 . S
H799 C823 0.951 . S
H800 C825 0.951 . S
H801 C827 0.950 . S
H802 C828 0.950 . S
H803 C830 0.950 . S
H804 C833 0.950 . S
H805 C834 0.950 . S
H806 C836 0.950 . S
H807 C837 0.950 . S
C808 H790 0.951 . S
C808 C809 1.366 . S
C808 C810 1.388 . S
C809 C808 1.366 . S
C809 C813 1.385 . S
C810 H791 0.951 . S
C810 C808 1.388 . S
C810 C811 1.366 . S
C811 C810 1.366 . S
C811 C812 1.414 . S
C811 C814 1.499 . S
C812 H792 0.950 . S
C812 C811 1.414 . S
C812 C813 1.374 . S
C813 H793 0.950 . S
C813 C809 1.385 . S
C813 C812 1.374 . S
C814 C811 1.499 . S
C814 C815 1.373 . S
C814 C816 1.389 . S
C815 H794 0.950 . S
C815 C814 1.373 . S
C815 C831 1.377 . S
C816 C814 1.389 . S
C816 C817 1.524 . S
C816 C830 1.377 . S
C817 C816 1.524 . S
C817 C818 1.397 . S
C817 C822 1.363 . S
C818 H795 0.950 . S
C818 C817 1.397 . S
C818 C819 1.334 . S
C819 H796 0.950 . S
C819 C818 1.334 . S
C819 C820 1.287 . S
C820 C819 1.287 . S
C820 C821 1.524 . S
C820 H839 0.913 . S
C821 H797 0.950 . S
C821 C820 1.524 . S
C821 C822 1.415 . S
C822 H798 0.950 . S
C822 C817 1.363 . S
C822 C821 1.415 . S
C823 H799 0.951 . S
C823 C824 1.366 . S
C823 C825 1.388 . S
C824 C823 1.366 . S
C824 C828 1.385 . S
C825 H800 0.951 . S
C825 C823 1.388 . S
C825 C826 1.366 . S
C826 C825 1.366 . S
C826 C827 1.414 . S
C826 C829 1.499 . S
C827 H801 0.950 . S
C827 C826 1.414 . S
C827 C828 1.374 . S
C828 H802 0.950 . S
C828 C824 1.385 . S
C828 C827 1.374 . S
C829 C826 1.499 . S
C829 C830 1.373 . S
C829 C831 1.389 . S
C830 H803 0.950 . S
C830 C816 1.377 . S
C830 C829 1.373 . S
C831 C815 1.377 . S
C831 C829 1.389 . S
C831 C832 1.524 . S
C832 C831 1.524 . S
C832 C833 1.397 . S
C832 C837 1.363 . S
C833 H804 0.950 . S
C833 C832 1.397 . S
C833 C834 1.334 . S
C834 H805 0.950 . S
C834 C833 1.334 . S
C834 C835 1.287 . S
C835 C834 1.287 . S
C835 C836 1.524 . S
C835 H838 0.999 . S
C836 H806 0.950 . S
C836 C835 1.524 . S
C836 C837 1.415 . S
C837 H807 0.950 . S
C837 C832 1.363 . S
C837 C836 1.415 . S
H838 C835 0.999 . S
H839 C820 0.913 . S
H840 C858 0.951 . S
H841 C860 0.951 . S
H842 C862 0.950 . S
H843 C863 0.950 . S
H844 C865 0.950 . S
H845 C868 0.950 . S
H846 C869 0.950 . S
H847 C871 0.950 . S
H848 C872 0.950 . S
H849 C873 0.951 . S
H850 C875 0.951 . S
H851 C877 0.950 . S
H852 C878 0.950 . S
H853 C880 0.950 . S
H854 C883 0.950 . S
H855 C884 0.950 . S
H856 C886 0.950 . S
H857 C887 0.950 . S
C858 H840 0.951 . S
C858 C859 1.366 . S
C858 C860 1.388 . S
C859 C858 1.366 . S
C859 C863 1.385 . S
C860 H841 0.951 . S
C860 C858 1.388 . S
C860 C861 1.366 . S
C861 C860 1.366 . S
C861 C862 1.414 . S
C861 C864 1.499 . S
C862 H842 0.950 . S
C862 C861 1.414 . S
C862 C863 1.374 . S
C863 H843 0.950 . S
C863 C859 1.385 . S
C863 C862 1.374 . S
C864 C861 1.499 . S
C864 C865 1.373 . S
C864 C866 1.389 . S
C865 H844 0.950 . S
C865 C864 1.373 . S
C865 C881 1.377 . S
C866 C864 1.389 . S
C866 C867 1.524 . S
C866 C880 1.377 . S
C867 C866 1.524 . S
C867 C868 1.397 . S
C867 C872 1.363 . S
C868 H845 0.950 . S
C868 C867 1.397 . S
C868 C869 1.334 . S
C869 H846 0.950 . S
C869 C868 1.334 . S
C869 C870 1.287 . S
C870 C869 1.287 . S
C870 C871 1.524 . S
C870 H889 0.913 . S
C871 H847 0.950 . S
C871 C870 1.524 . S
C871 C872 1.415 . S
C872 H848 0.950 . S
C872 C867 1.363 . S
C872 C871 1.415 . S
C873 H849 0.951 . S
C873 C874 1.366 . S
C873 C875 1.388 . S
C874 C873 1.366 . S
C874 C878 1.385 . S
C875 H850 0.951 . S
C875 C873 1.388 . S
C875 C876 1.366 . S
C876 C875 1.366 . S
C876 C877 1.414 . S
C876 C879 1.499 . S
C877 H851 0.950 . S
C877 C876 1.414 . S
C877 C878 1.374 . S
C878 H852 0.950 . S
C878 C874 1.385 . S
C878 C877 1.374 . S
C879 C876 1.499 . S
C879 C880 1.373 . S
C879 C881 1.389 . S
C880 H853 0.950 . S
C880 C866 1.377 . S
C880 C879 1.373 . S
C881 C865 1.377 . S
C881 C879 1.389 . S
C881 C882 1.524 . S
C882 C881 1.524 . S
C882 C883 1.397 . S
C882 C887 1.363 . S
C883 H854 0.950 . S
C883 C882 1.397 . S
C883 C884 1.334 . S
C884 H855 0.950 . S
C884 C883 1.334 . S
C884 C885 1.287 . S
C885 C884 1.287 . S
C885 C886 1.524 . S
C885 H888 0.999 . S
C886 H856 0.950 . S
C886 C885 1.524 . S
C886 C887 1.415 . S
C887 H857 0.950 . S
C887 C882 1.363 . S
C887 C886 1.415 . S
H888 C885 0.999 . S
H889 C870 0.913 . S
H890 C908 0.951 . S
H891 C910 0.951 . S
H892 C912 0.950 . S
H893 C913 0.950 . S
H894 C915 0.950 . S
H895 C918 0.950 . S
H896 C919 0.950 . S
H897 C921 0.950 . S
H898 C922 0.950 . S
H899 C923 0.951 . S
H900 C925 0.951 . S
H901 C927 0.950 . S
H902 C928 0.950 . S
H903 C930 0.950 . S
H904 C933 0.950 . S
H905 C934 0.950 . S
H906 C936 0.950 . S
H907 C937 0.950 . S
C908 H890 0.951 . S
C908 C909 1.366 . S
C908 C910 1.388 . S
C909 C908 1.366 . S
C909 C913 1.385 . S
C910 H891 0.951 . S
C910 C908 1.388 . S
C910 C911 1.366 . S
C911 C910 1.366 . S
C911 C912 1.414 . S
C911 C914 1.499 . S
C912 H892 0.950 . S
C912 C911 1.414 . S
C912 C913 1.374 . S
C913 H893 0.950 . S
C913 C909 1.385 . S
C913 C912 1.374 . S
C914 C911 1.499 . S
C914 C915 1.373 . S
C914 C916 1.389 . S
C915 H894 0.950 . S
C915 C914 1.373 . S
C915 C931 1.377 . S
C916 C914 1.389 . S
C916 C917 1.524 . S
C916 C930 1.377 . S
C917 C916 1.524 . S
C917 C918 1.397 . S
C917 C922 1.363 . S
C918 H895 0.950 . S
C918 C917 1.397 . S
C918 C919 1.334 . S
C919 H896 0.950 . S
C919 C918 1.334 . S
C919 C920 1.287 . S
C920 C919 1.287 . S
C920 C921 1.524 . S
C920 H939 0.913 . S
C921 H897 0.950 . S
C921 C920 1.524 . S
C921 C922 1.415 . S
C922 H898 0.950 . S
C922 C917 1.363 . S
C922 C921 1.415 . S
C923 H899 0.951 . S
C923 C924 1.366 . S
C923 C925 1.388 . S
C924 C923 1.366 . S
C924 C928 1.385 . S
C925 H900 0.951 . S
C925 C923 1.388 . S
C925 C926 1.366 . S
C926 C925 1.366 . S
C926 C927 1.414 . S
C926 C929 1.499 . S
C927 H901 0.950 . S
C927 C926 1.414 . S
C927 C928 1.374 . S
C928 H902 0.950 . S
C928 C924 1.385 . S
C928 C927 1.374 . S
C929 C926 1.499 . S
C929 C930 1.373 . S
C929 C931 1.389 . S
C930 H903 0.950 . S
C930 C916 1.377 . S
C930 C929 1.373 . S
C931 C915 1.377 . S
C931 C929 1.389 . S
C931 C932 1.524 . S
C932 C931 1.524 . S
C932 C933 1.397 . S
C932 C937 1.363 . S
C933 H904 0.950 . S
C933 C932 1.397 . S
C933 C934 1.334 . S
C934 H905 0.950 . S
C934 C933 1.334 . S
C934 C935 1.287 . S
C935 C934 1.287 . S
C935 C936 1.524 . S
C935 H938 0.999 . S
C936 H906 0.950 . S
C936 C935 1.524 . S
C936 C937 1.415 . S
C937 H907 0.950 . S
C937 C932 1.363 . S
C937 C936 1.415 . S
H938 C935 0.999 . S
H939 C920 0.913 . S
H940 C958 0.951 . S
H941 C960 0.951 . S
H942 C962 0.950 . S
H943 C963 0.950 . S
H944 C965 0.950 . S
H945 C968 0.950 . S
H946 C969 0.950 . S
H947 C971 0.950 . S
H948 C972 0.950 . S
H949 C973 0.951 . S
H950 C975 0.951 . S
H951 C977 0.950 . S
H952 C978 0.950 . S
H953 C980 0.950 . S
H954 C983 0.950 . S
H955 C984 0.950 . S
H956 C986 0.950 . S
H957 C987 0.950 . S
C958 H940 0.951 . S
C958 C959 1.366 . S
C958 C960 1.388 . S
C959 C958 1.366 . S
C959 C963 1.385 . S
C960 H941 0.951 . S
C960 C958 1.388 . S
C960 C961 1.366 . S
C961 C960 1.366 . S
C961 C962 1.414 . S
C961 C964 1.499 . S
C962 H942 0.950 . S
C962 C961 1.414 . S
C962 C963 1.374 . S
C963 H943 0.950 . S
C963 C959 1.385 . S
C963 C962 1.374 . S
C964 C961 1.499 . S
C964 C965 1.373 . S
C964 C966 1.389 . S
C965 H944 0.950 . S
C965 C964 1.373 . S
C965 C981 1.377 . S
C966 C964 1.389 . S
C966 C967 1.524 . S
C966 C980 1.377 . S
C967 C966 1.524 . S
C967 C968 1.397 . S
C967 C972 1.363 . S
C968 H945 0.950 . S
C968 C967 1.397 . S
C968 C969 1.334 . S
C969 H946 0.950 . S
C969 C968 1.334 . S
C969 C970 1.287 . S
C970 C969 1.287 . S
C970 C971 1.524 . S
C970 H989 0.913 . S
C971 H947 0.950 . S
C971 C970 1.524 . S
C971 C972 1.415 . S
C972 H948 0.950 . S
C972 C967 1.363 . S
C972 C971 1.415 . S
C973 H949 0.951 . S
C973 C974 1.366 . S
C973 C975 1.388 . S
C974 C973 1.366 . S
C974 C978 1.385 . S
C975 H950 0.951 . S
C975 C973 1.388 . S
C975 C976 1.366 . S
C976 C975 1.366 . S
C976 C977 1.414 . S
C976 C979 1.499 . S
C977 H951 0.950 . S
C977 C976 1.414 . S
C977 C978 1.374 . S
C978 H952 0.950 . S
C978 C974 1.385 . S
C978 C977 1.374 . S
C979 C976 1.499 . S
C979 C980 1.373 . S
C979 C981 1.389 . S
C980 H953 0.950 . S
C980 C966 1.377 . S
C980 C979 1.373 . S
C981 C965 1.377 . S
C981 C979 1.389 . S
C981 C982 1.524 . S
C982 C981 1.524 . S
C982 C983 1.397 . S
C982 C987 1.363 . S
C983 H954 0.950 . S
C983 C982 1.397 . S
C983 C984 1.334 . S
C984 H955 0.950 . S
C984 C983 1.334 . S
C984 C985 1.287 . S
C985 C984 1.287 . S
C985 C986 1.524 . S
C985 H988 0.999 . S
C986 H956 0.950 . S
C986 C985 1.524 . S
C986 C987 1.415 . S
C987 H957 0.950 . S
C987 C982 1.363 . S
C987 C986 1.415 . S
H988 C985 0.999 . S
H989 C970 0.913 . S
H990 C1008 0.951 . S
H991 C1010 0.951 . S
H992 C1012 0.950 . S
H993 C1013 0.950 . S
H994 C1015 0.950 . S
H995 C1018 0.950 . S
H996 C1019 0.950 . S
H997 C1021 0.950 . S
H998 C1022 0.950 . S
H999 C1023 0.951 . S
H1000 C1025 0.951 . S
H1001 C1027 0.950 . S
H1002 C1028 0.950 . S
H1003 C1030 0.950 . S
H1004 C1033 0.959 . S
H1005 C1034 0.950 1_565 S
H1006 C1036 0.950 . S
H1007 C1037 0.950 . S
C1008 H990 0.951 . S
C1008 C1009 1.366 . S
C1008 C1010 1.388 . S
C1009 C1008 1.366 . S
C1009 C1013 1.385 . S
C1010 H991 0.951 . S
C1010 C1008 1.388 . S
C1010 C1011 1.366 . S
C1011 C1010 1.366 . S
C1011 C1012 1.414 . S
C1011 C1014 1.499 . S
C1012 H992 0.950 . S
C1012 C1011 1.414 . S
C1012 C1013 1.374 . S
C1013 H993 0.950 . S
C1013 C1009 1.385 . S
C1013 C1012 1.374 . S
C1014 C1011 1.499 . S
C1014 C1015 1.373 . S
C1014 C1016 1.389 . S
C1015 H994 0.950 . S
C1015 C1014 1.373 . S
C1015 C1031 1.377 . S
C1016 C1014 1.389 . S
C1016 C1017 1.524 . S
C1016 C1030 1.377 . S
C1017 C1016 1.524 . S
C1017 C1018 1.397 . S
C1017 C1022 1.363 . S
C1018 H995 0.950 . S
C1018 C1017 1.397 . S
C1018 C1019 1.334 . S
C1019 H996 0.950 . S
C1019 C1018 1.334 . S
C1019 C1020 1.287 . S
C1020 C1019 1.287 . S
C1020 C1021 1.524 . S
C1020 H1039 0.913 . S
C1021 H997 0.950 . S
C1021 C1020 1.524 . S
C1021 C1022 1.415 . S
C1022 H998 0.950 . S
C1022 C1017 1.363 . S
C1022 C1021 1.415 . S
C1023 H999 0.951 . S
C1023 C1024 1.366 . S
C1023 C1025 1.388 . S
C1024 C1023 1.366 . S
C1024 C1028 1.385 . S
C1025 H1000 0.951 . S
C1025 C1023 1.388 . S
C1025 C1026 1.366 . S
C1026 C1025 1.366 . S
C1026 C1027 1.414 . S
C1026 C1029 1.469 1_556 S
C1027 H1001 0.950 . S
C1027 C1026 1.414 . S
C1027 C1028 1.374 . S
C1028 H1002 0.950 . S
C1028 C1024 1.385 . S
C1028 C1027 1.374 . S
C1029 C1026 1.469 1_554 S
C1029 C1030 1.395 . S
C1029 C1031 1.398 . S
C1030 H1003 0.950 . S
C1030 C1016 1.377 . S
C1030 C1029 1.395 . S
C1031 C1015 1.377 . S
C1031 C1029 1.398 . S
C1031 C1032 1.524 1_554 S
C1032 C1031 1.524 1_556 S
C1032 C1033 1.397 . S
C1032 C1037 1.363 . S
C1033 H1004 0.959 . S
C1033 C1032 1.397 . S
C1033 C1034 1.334 . S
C1034 H1005 0.950 1_545 S
C1034 C1033 1.334 . S
C1034 C1035 1.287 . S
C1035 C1034 1.287 . S
C1035 C1036 1.524 . S
C1035 H1038 0.999 1_545 S
C1036 H1006 0.950 . S
C1036 C1035 1.524 . S
C1036 C1037 1.415 . S
C1037 H1007 0.950 . S
C1037 C1032 1.363 . S
C1037 C1036 1.415 . S
H1038 C1035 0.999 1_565 S
H1039 C1020 0.913 . S
H1040 C1058 0.951 . S
H1041 C1060 0.951 . S
H1042 C1062 0.950 . S
H1043 C1063 0.950 . S
H1044 C1065 0.950 . S
H1045 C1068 0.950 . S
H1046 C1069 0.950 . S
H1047 C1071 0.950 . S
H1048 C1072 0.950 . S
H1049 C1073 0.951 . S
H1050 C1075 0.951 . S
H1051 C1077 0.950 . S
H1052 C1078 0.950 . S
H1053 C1080 0.950 . S
H1054 C1083 0.950 . S
H1055 C1084 0.950 . S
H1056 C1086 0.950 . S
H1057 C1087 0.950 . S
C1058 H1040 0.951 . S
C1058 C1059 1.366 . S
C1058 C1060 1.388 . S
C1059 C1058 1.366 . S
C1059 C1063 1.385 . S
C1060 H1041 0.951 . S
C1060 C1058 1.388 . S
C1060 C1061 1.366 . S
C1061 C1060 1.366 . S
C1061 C1062 1.414 . S
C1061 C1064 1.499 . S
C1062 H1042 0.950 . S
C1062 C1061 1.414 . S
C1062 C1063 1.374 . S
C1063 H1043 0.950 . S
C1063 C1059 1.385 . S
C1063 C1062 1.374 . S
C1064 C1061 1.499 . S
C1064 C1065 1.373 . S
C1064 C1066 1.389 . S
C1065 H1044 0.950 . S
C1065 C1064 1.373 . S
C1065 C1081 1.377 . S
C1066 C1064 1.389 . S
C1066 C1067 1.524 . S
C1066 C1080 1.377 . S
C1067 C1066 1.524 . S
C1067 C1068 1.397 . S
C1067 C1072 1.363 . S
C1068 H1045 0.950 . S
C1068 C1067 1.397 . S
C1068 C1069 1.334 . S
C1069 H1046 0.950 . S
C1069 C1068 1.334 . S
C1069 C1070 1.287 . S
C1070 C1069 1.287 . S
C1070 C1071 1.524 . S
C1070 H1089 0.913 . S
C1071 H1047 0.950 . S
C1071 C1070 1.524 . S
C1071 C1072 1.415 . S
C1072 H1048 0.950 . S
C1072 C1067 1.363 . S
C1072 C1071 1.415 . S
C1073 H1049 0.951 . S
C1073 C1074 1.366 . S
C1073 C1075 1.388 . S
C1074 C1073 1.366 . S
C1074 C1078 1.385 . S
C1075 H1050 0.951 . S
C1075 C1073 1.388 . S
C1075 C1076 1.366 . S
C1076 C1075 1.366 . S
C1076 C1077 1.414 . S
C1076 C1079 1.499 . S
C1077 H1051 0.950 . S
C1077 C1076 1.414 . S
C1077 C1078 1.374 . S
C1078 H1052 0.950 . S
C1078 C1074 1.385 . S
C1078 C1077 1.374 . S
C1079 C1076 1.499 . S
C1079 C1080 1.373 . S
C1079 C1081 1.389 . S
C1080 H1053 0.950 . S
C1080 C1066 1.377 . S
C1080 C1079 1.373 . S
C1081 C1065 1.377 . S
C1081 C1079 1.389 . S
C1081 C1082 1.524 . S
C1082 C1081 1.524 . S
C1082 C1083 1.397 . S
C1082 C1087 1.363 . S
C1083 H1054 0.950 . S
C1083 C1082 1.397 . S
C1083 C1084 1.334 . S
C1084 H1055 0.950 . S
C1084 C1083 1.334 . S
C1084 C1085 1.287 . S
C1085 C1084 1.287 . S
C1085 C1086 1.524 . S
C1085 H1088 0.999 . S
C1086 H1056 0.950 . S
C1086 C1085 1.524 . S
C1086 C1087 1.415 . S
C1087 H1057 0.950 . S
C1087 C1082 1.363 . S
C1087 C1086 1.415 . S
H1088 C1085 0.999 . S
H1089 C1070 0.913 . S
H1090 C1108 0.951 . S
H1091 C1110 0.951 . S
H1092 C1112 0.950 . S
H1093 C1113 0.950 . S
H1094 C1115 0.950 . S
H1095 C1118 0.950 . S
H1096 C1119 0.950 . S
H1097 C1121 0.950 1_655 S
H1098 C1122 0.943 1_556 S
H1099 C1123 0.951 . S
H1100 C1125 0.951 . S
H1101 C1127 0.950 . S
H1102 C1128 0.950 . S
H1103 C1130 0.950 . S
H1104 C1133 0.950 . S
H1105 C1134 0.950 . S
H1106 C1136 0.950 . S
H1107 C1137 0.950 . S
C1108 H1090 0.951 . S
C1108 C1109 1.366 . S
C1108 C1110 1.388 . S
C1109 C1108 1.366 . S
C1109 C1113 1.385 . S
C1110 H1091 0.951 . S
C1110 C1108 1.388 . S
C1110 C1111 1.366 . S
C1111 C1110 1.366 . S
C1111 C1112 1.414 . S
C1111 C1114 1.499 1_554 S
C1112 H1092 0.950 . S
C1112 C1111 1.414 . S
C1112 C1113 1.374 . S
C1113 H1093 0.950 . S
C1113 C1109 1.385 . S
C1113 C1112 1.374 . S
C1114 C1111 1.499 1_556 S
C1114 C1115 1.373 . S
C1114 C1116 1.389 . S
C1115 H1094 0.950 . S
C1115 C1114 1.373 . S
C1115 C1131 1.377 . S
C1116 C1114 1.389 . S
C1116 C1117 1.524 1_556 S
C1116 C1130 1.377 . S
C1117 C1116 1.524 1_554 S
C1117 C1118 1.397 . S
C1117 C1122 1.364 . S
C1118 H1095 0.950 . S
C1118 C1117 1.397 . S
C1118 C1119 1.334 . S
C1119 H1096 0.950 . S
C1119 C1118 1.334 . S
C1119 C1120 1.287 . S
C1120 C1119 1.287 . S
C1120 C1121 1.524 . S
C1120 H1139 0.913 1_455 S
C1121 H1097 0.950 1_455 S
C1121 C1120 1.524 . S
C1121 C1122 1.421 . S
C1122 H1098 0.943 1_554 S
C1122 C1117 1.364 . S
C1122 C1121 1.421 . S
C1123 H1099 0.951 . S
C1123 C1124 1.366 . S
C1123 C1125 1.388 . S
C1124 C1123 1.366 . S
C1124 C1128 1.385 . S
C1125 H1100 0.951 . S
C1125 C1123 1.388 . S
C1125 C1126 1.366 . S
C1126 C1125 1.366 . S
C1126 C1127 1.414 . S
C1126 C1129 1.499 . S
C1127 H1101 0.950 . S
C1127 C1126 1.414 . S
C1127 C1128 1.374 . S
C1128 H1102 0.950 . S
C1128 C1124 1.385 . S
C1128 C1127 1.374 . S
C1129 C1126 1.499 . S
C1129 C1130 1.373 . S
C1129 C1131 1.389 . S
C1130 H1103 0.950 . S
C1130 C1116 1.377 . S
C1130 C1129 1.373 . S
C1131 C1115 1.377 . S
C1131 C1129 1.389 . S
C1131 C1132 1.524 . S
C1132 C1131 1.524 . S
C1132 C1133 1.397 . S
C1132 C1137 1.363 . S
C1133 H1104 0.950 . S
C1133 C1132 1.397 . S
C1133 C1134 1.334 . S
C1134 H1105 0.950 . S
C1134 C1133 1.334 . S
C1134 C1135 1.287 . S
C1135 C1134 1.287 . S
C1135 C1136 1.524 . S
C1135 H1138 0.999 . S
C1136 H1106 0.950 . S
C1136 C1135 1.524 . S
C1136 C1137 1.415 . S
C1137 H1107 0.950 . S
C1137 C1132 1.363 . S
C1137 C1136 1.415 . S
H1138 C1135 0.999 . S
H1139 C1120 0.913 1_655 S
H1140 C1158 0.951 . S
H1141 C1160 0.951 . S
H1142 C1162 0.950 . S
H1143 C1163 0.950 . S
H1144 C1165 0.950 . S
H1145 C1168 0.950 . S
H1146 C1169 0.950 . S
H1147 C1171 0.950 . S
H1148 C1172 0.950 . S
H1149 C1173 0.951 . S
H1150 C1175 0.951 . S
H1151 C1177 0.950 . S
H1152 C1178 0.950 . S
H1153 C1180 0.950 . S
H1154 C1183 0.950 . S
H1155 C1184 0.950 . S
H1156 C1186 0.950 . S
H1157 C1187 0.950 . S
C1158 H1140 0.951 . S
C1158 C1159 1.366 . S
C1158 C1160 1.388 . S
C1159 C1158 1.366 . S
C1159 C1163 1.385 . S
C1160 H1141 0.951 . S
C1160 C1158 1.388 . S
C1160 C1161 1.366 . S
C1161 C1160 1.366 . S
C1161 C1162 1.414 . S
C1161 C1164 1.499 . S
C1162 H1142 0.950 . S
C1162 C1161 1.414 . S
C1162 C1163 1.374 . S
C1163 H1143 0.950 . S
C1163 C1159 1.385 . S
C1163 C1162 1.374 . S
C1164 C1161 1.499 . S
C1164 C1165 1.373 . S
C1164 C1166 1.389 . S
C1165 H1144 0.950 . S
C1165 C1164 1.373 . S
C1165 C1181 1.377 . S
C1166 C1164 1.389 . S
C1166 C1167 1.524 . S
C1166 C1180 1.377 . S
C1167 C1166 1.524 . S
C1167 C1168 1.397 . S
C1167 C1172 1.363 . S
C1168 H1145 0.950 . S
C1168 C1167 1.397 . S
C1168 C1169 1.334 . S
C1169 H1146 0.950 . S
C1169 C1168 1.334 . S
C1169 C1170 1.287 . S
C1170 C1169 1.287 . S
C1170 C1171 1.524 . S
C1170 H1189 0.913 . S
C1171 H1147 0.950 . S
C1171 C1170 1.524 . S
C1171 C1172 1.415 . S
C1172 H1148 0.950 . S
C1172 C1167 1.363 . S
C1172 C1171 1.415 . S
C1173 H1149 0.951 . S
C1173 C1174 1.366 . S
C1173 C1175 1.388 . S
C1174 C1173 1.366 . S
C1174 C1178 1.385 . S
C1175 H1150 0.951 . S
C1175 C1173 1.388 . S
C1175 C1176 1.366 . S
C1176 C1175 1.366 . S
C1176 C1177 1.414 . S
C1176 C1179 1.499 . S
C1177 H1151 0.950 . S
C1177 C1176 1.414 . S
C1177 C1178 1.374 . S
C1178 H1152 0.950 . S
C1178 C1174 1.385 . S
C1178 C1177 1.374 . S
C1179 C1176 1.499 . S
C1179 C1180 1.373 . S
C1179 C1181 1.389 . S
C1180 H1153 0.950 . S
C1180 C1166 1.377 . S
C1180 C1179 1.373 . S
C1181 C1165 1.377 . S
C1181 C1179 1.389 . S
C1181 C1182 1.524 . S
C1182 C1181 1.524 . S
C1182 C1183 1.397 . S
C1182 C1187 1.363 . S
C1183 H1154 0.950 . S
C1183 C1182 1.397 . S
C1183 C1184 1.334 . S
C1184 H1155 0.950 . S
C1184 C1183 1.334 . S
C1184 C1185 1.287 . S
C1185 C1184 1.287 . S
C1185 C1186 1.524 . S
C1185 H1188 0.999 . S
C1186 H1156 0.950 . S
C1186 C1185 1.524 . S
C1186 C1187 1.415 . S
C1187 H1157 0.950 . S
C1187 C1182 1.363 . S
C1187 C1186 1.415 . S
H1188 C1185 0.999 . S
H1189 C1170 0.913 . S
H1190 C1208 0.951 . S
H1191 C1210 0.951 . S
H1192 C1212 0.950 . S
H1193 C1213 0.950 . S
H1194 C1215 0.950 . S
H1195 C1218 0.950 . S
H1196 C1219 0.950 . S
H1197 C1221 0.950 . S
H1198 C1222 0.950 . S
H1199 C1223 0.951 . S
H1200 C1225 0.951 . S
H1201 C1227 0.950 . S
H1202 C1228 0.950 . S
H1203 C1230 0.950 . S
H1204 C1233 0.950 . S
H1205 C1234 0.950 . S
H1206 C1236 0.950 . S
H1207 C1237 0.950 . S
C1208 H1190 0.951 . S
C1208 C1209 1.366 . S
C1208 C1210 1.388 . S
C1209 C1208 1.366 . S
C1209 C1213 1.385 . S
C1210 H1191 0.951 . S
C1210 C1208 1.388 . S
C1210 C1211 1.366 . S
C1211 C1210 1.366 . S
C1211 C1212 1.414 . S
C1211 C1214 1.499 . S
C1212 H1192 0.950 . S
C1212 C1211 1.414 . S
C1212 C1213 1.374 . S
C1213 H1193 0.950 . S
C1213 C1209 1.385 . S
C1213 C1212 1.374 . S
C1214 C1211 1.499 . S
C1214 C1215 1.373 . S
C1214 C1216 1.389 . S
C1215 H1194 0.950 . S
C1215 C1214 1.373 . S
C1215 C1231 1.377 . S
C1216 C1214 1.389 . S
C1216 C1217 1.524 . S
C1216 C1230 1.377 . S
C1217 C1216 1.524 . S
C1217 C1218 1.397 . S
C1217 C1222 1.363 . S
C1218 H1195 0.950 . S
C1218 C1217 1.397 . S
C1218 C1219 1.334 . S
C1219 H1196 0.950 . S
C1219 C1218 1.334 . S
C1219 C1220 1.287 . S
C1220 C1219 1.287 . S
C1220 C1221 1.524 . S
C1220 H1239 0.913 . S
C1221 H1197 0.950 . S
C1221 C1220 1.524 . S
C1221 C1222 1.415 . S
C1222 H1198 0.950 . S
C1222 C1217 1.363 . S
C1222 C1221 1.415 . S
C1223 H1199 0.951 . S
C1223 C1224 1.366 . S
C1223 C1225 1.388 . S
C1224 C1223 1.366 . S
C1224 C1228 1.385 . S
C1225 H1200 0.951 . S
C1225 C1223 1.388 . S
C1225 C1226 1.366 . S
C1226 C1225 1.366 . S
C1226 C1227 1.414 . S
C1226 C1229 1.499 . S
C1227 H1201 0.950 . S
C1227 C1226 1.414 . S
C1227 C1228 1.374 . S
C1228 H1202 0.950 . S
C1228 C1224 1.385 . S
C1228 C1227 1.374 . S
C1229 C1226 1.499 . S
C1229 C1230 1.373 . S
C1229 C1231 1.389 . S
C1230 H1203 0.950 . S
C1230 C1216 1.377 . S
C1230 C1229 1.373 . S
C1231 C1215 1.377 . S
C1231 C1229 1.389 . S
C1231 C1232 1.524 . S
C1232 C1231 1.524 . S
C1232 C1233 1.397 . S
C1232 C1237 1.363 . S
C1233 H1204 0.950 . S
C1233 C1232 1.397 . S
C1233 C1234 1.334 . S
C1234 H1205 0.950 . S
C1234 C1233 1.334 . S
C1234 C1235 1.287 . S
C1235 C1234 1.287 . S
C1235 C1236 1.524 . S
C1235 H1238 0.999 . S
C1236 H1206 0.950 . S
C1236 C1235 1.524 . S
C1236 C1237 1.415 . S
C1237 H1207 0.950 . S
C1237 C1232 1.363 . S
C1237 C1236 1.415 . S
H1238 C1235 0.999 . S
H1239 C1220 0.913 . S
H1240 C1258 0.951 . S
H1241 C1260 0.951 . S
H1242 C1262 0.950 . S
H1243 C1263 0.950 . S
H1244 C1265 0.950 . S
H1245 C1268 0.950 . S
H1246 C1269 0.950 . S
H1247 C1271 0.950 . S
H1248 C1272 0.950 . S
H1249 C1273 0.951 . S
H1250 C1275 0.951 . S
H1251 C1277 0.950 . S
H1252 C1278 0.950 . S
H1253 C1280 0.950 . S
H1254 C1283 0.950 . S
H1255 C1284 0.950 . S
H1256 C1286 0.950 . S
H1257 C1287 0.950 . S
C1258 H1240 0.951 . S
C1258 C1259 1.366 . S
C1258 C1260 1.388 . S
C1259 C1258 1.366 . S
C1259 C1263 1.385 . S
C1260 H1241 0.951 . S
C1260 C1258 1.388 . S
C1260 C1261 1.366 . S
C1261 C1260 1.366 . S
C1261 C1262 1.414 . S
C1261 C1264 1.499 . S
C1262 H1242 0.950 . S
C1262 C1261 1.414 . S
C1262 C1263 1.374 . S
C1263 H1243 0.950 . S
C1263 C1259 1.385 . S
C1263 C1262 1.374 . S
C1264 C1261 1.499 . S
C1264 C1265 1.373 . S
C1264 C1266 1.389 . S
C1265 H1244 0.950 . S
C1265 C1264 1.373 . S
C1265 C1281 1.377 . S
C1266 C1264 1.389 . S
C1266 C1267 1.524 . S
C1266 C1280 1.377 . S
C1267 C1266 1.524 . S
C1267 C1268 1.397 . S
C1267 C1272 1.363 . S
C1268 H1245 0.950 . S
C1268 C1267 1.397 . S
C1268 C1269 1.334 . S
C1269 H1246 0.950 . S
C1269 C1268 1.334 . S
C1269 C1270 1.287 . S
C1270 C1269 1.287 . S
C1270 C1271 1.524 . S
C1270 H1289 0.913 . S
C1271 H1247 0.950 . S
C1271 C1270 1.524 . S
C1271 C1272 1.415 . S
C1272 H1248 0.950 . S
C1272 C1267 1.363 . S
C1272 C1271 1.415 . S
C1273 H1249 0.951 . S
C1273 C1274 1.366 . S
C1273 C1275 1.388 . S
C1274 C1273 1.366 . S
C1274 C1278 1.385 . S
C1275 H1250 0.951 . S
C1275 C1273 1.388 . S
C1275 C1276 1.366 . S
C1276 C1275 1.366 . S
C1276 C1277 1.414 . S
C1276 C1279 1.499 . S
C1277 H1251 0.950 . S
C1277 C1276 1.414 . S
C1277 C1278 1.374 . S
C1278 H1252 0.950 . S
C1278 C1274 1.385 . S
C1278 C1277 1.374 . S
C1279 C1276 1.499 . S
C1279 C1280 1.373 . S
C1279 C1281 1.389 . S
C1280 H1253 0.950 . S
C1280 C1266 1.377 . S
C1280 C1279 1.373 . S
C1281 C1265 1.377 . S
C1281 C1279 1.389 . S
C1281 C1282 1.524 . S
C1282 C1281 1.524 . S
C1282 C1283 1.397 . S
C1282 C1287 1.363 . S
C1283 H1254 0.950 . S
C1283 C1282 1.397 . S
C1283 C1284 1.334 . S
C1284 H1255 0.950 . S
C1284 C1283 1.334 . S
C1284 C1285 1.287 . S
C1285 C1284 1.287 . S
C1285 C1286 1.524 . S
C1285 H1288 0.999 . S
C1286 H1256 0.950 . S
C1286 C1285 1.524 . S
C1286 C1287 1.415 . S
C1287 H1257 0.950 . S
C1287 C1282 1.363 . S
C1287 C1286 1.415 . S
H1288 C1285 0.999 . S
H1289 C1270 0.913 . S
H1290 C1308 0.951 . S
H1291 C1310 0.951 . S
H1292 C1312 0.950 . S
H1293 C1313 0.950 . S
H1294 C1315 0.950 . S
H1295 C1318 0.950 . S
H1296 C1319 0.950 . S
H1297 C1321 0.950 . S
H1298 C1322 0.950 . S
H1299 C1323 0.951 . S
H1300 C1325 0.951 . S
H1301 C1327 0.950 . S
H1302 C1328 0.950 . S
H1303 C1330 0.950 . S
H1304 C1333 0.950 . S
H1305 C1334 0.950 . S
H1306 C1336 0.950 . S
H1307 C1337 0.950 . S
C1308 H1290 0.951 . S
C1308 C1309 1.366 . S
C1308 C1310 1.388 . S
C1309 C1308 1.366 . S
C1309 C1313 1.385 . S
C1310 H1291 0.951 . S
C1310 C1308 1.388 . S
C1310 C1311 1.366 . S
C1311 C1310 1.366 . S
C1311 C1312 1.414 . S
C1311 C1314 1.499 . S
C1312 H1292 0.950 . S
C1312 C1311 1.414 . S
C1312 C1313 1.374 . S
C1313 H1293 0.950 . S
C1313 C1309 1.385 . S
C1313 C1312 1.374 . S
C1314 C1311 1.499 . S
C1314 C1315 1.373 . S
C1314 C1316 1.389 . S
C1315 H1294 0.950 . S
C1315 C1314 1.373 . S
C1315 C1331 1.377 . S
C1316 C1314 1.389 . S
C1316 C1317 1.524 . S
C1316 C1330 1.377 1_545 S
C1317 C1316 1.524 . S
C1317 C1318 1.397 . S
C1317 C1322 1.363 . S
C1318 H1295 0.950 . S
C1318 C1317 1.397 . S
C1318 C1319 1.334 . S
C1319 H1296 0.950 . S
C1319 C1318 1.334 . S
C1319 C1320 1.287 . S
C1320 C1319 1.287 . S
C1320 C1321 1.524 . S
C1320 H1339 0.913 . S
C1321 H1297 0.950 . S
C1321 C1320 1.524 . S
C1321 C1322 1.415 . S
C1322 H1298 0.950 . S
C1322 C1317 1.363 . S
C1322 C1321 1.415 . S
C1323 H1299 0.951 . S
C1323 C1324 1.366 . S
C1323 C1325 1.388 . S
C1324 C1323 1.366 . S
C1324 C1328 1.385 . S
C1325 H1300 0.951 . S
C1325 C1323 1.388 . S
C1325 C1326 1.366 . S
C1326 C1325 1.366 . S
C1326 C1327 1.414 . S
C1326 C1329 1.499 . S
C1327 H1301 0.950 . S
C1327 C1326 1.414 . S
C1327 C1328 1.374 . S
C1328 H1302 0.950 . S
C1328 C1324 1.385 . S
C1328 C1327 1.374 . S
C1329 C1326 1.499 . S
C1329 C1330 1.373 . S
C1329 C1331 1.389 1_565 S
C1330 H1303 0.950 . S
C1330 C1316 1.377 1_565 S
C1330 C1329 1.373 . S
C1331 C1315 1.377 . S
C1331 C1329 1.389 1_545 S
C1331 C1332 1.524 . S
C1332 C1331 1.524 . S
C1332 C1333 1.397 . S
C1332 C1337 1.363 . S
C1333 H1304 0.950 . S
C1333 C1332 1.397 . S
C1333 C1334 1.334 1_455 S
C1334 H1305 0.950 . S
C1334 C1333 1.334 1_655 S
C1334 C1335 1.287 . S
C1335 C1334 1.287 . S
C1335 C1336 1.524 . S
C1335 H1338 0.999 . S
C1336 H1306 0.950 . S
C1336 C1335 1.524 . S
C1336 C1337 1.415 1_655 S
C1337 H1307 0.950 . S
C1337 C1332 1.363 . S
C1337 C1336 1.415 1_455 S
H1338 C1335 0.999 . S
H1339 C1320 0.913 . S
H1340 C1358 0.951 . S
H1341 C1360 0.951 . S
H1342 C1362 0.950 . S
H1343 C1363 0.950 . S
H1344 C1365 0.950 . S
H1345 C1368 0.950 . S
H1346 C1369 0.950 . S
H1347 C1371 0.950 . S
H1348 C1372 0.950 . S
H1349 C1373 0.951 . S
H1350 C1375 0.951 . S
H1351 C1377 0.950 . S
H1352 C1378 0.950 . S
H1353 C1380 0.950 . S
H1354 C1383 0.950 . S
H1355 C1384 0.950 . S
H1356 C1386 0.950 . S
H1357 C1387 0.950 . S
C1358 H1340 0.951 . S
C1358 C1359 1.366 . S
C1358 C1360 1.388 . S
C1359 C1358 1.366 . S
C1359 C1363 1.385 . S
C1360 H1341 0.951 . S
C1360 C1358 1.388 . S
C1360 C1361 1.366 . S
C1361 C1360 1.366 . S
C1361 C1362 1.414 . S
C1361 C1364 1.499 . S
C1362 H1342 0.950 . S
C1362 C1361 1.414 . S
C1362 C1363 1.374 . S
C1363 H1343 0.950 . S
C1363 C1359 1.385 . S
C1363 C1362 1.374 . S
C1364 C1361 1.499 . S
C1364 C1365 1.373 . S
C1364 C1366 1.389 . S
C1365 H1344 0.950 . S
C1365 C1364 1.373 . S
C1365 C1381 1.377 . S
C1366 C1364 1.389 . S
C1366 C1367 1.524 . S
C1366 C1380 1.377 . S
C1367 C1366 1.524 . S
C1367 C1368 1.397 . S
C1367 C1372 1.363 . S
C1368 H1345 0.950 . S
C1368 C1367 1.397 . S
C1368 C1369 1.334 . S
C1369 H1346 0.950 . S
C1369 C1368 1.334 . S
C1369 C1370 1.287 . S
C1370 C1369 1.287 . S
C1370 C1371 1.524 . S
C1370 H1389 0.913 . S
C1371 H1347 0.950 . S
C1371 C1370 1.524 . S
C1371 C1372 1.415 . S
C1372 H1348 0.950 . S
C1372 C1367 1.363 . S
C1372 C1371 1.415 . S
C1373 H1349 0.951 . S
C1373 C1374 1.366 . S
C1373 C1375 1.388 . S
C1374 C1373 1.366 . S
C1374 C1378 1.385 . S
C1375 H1350 0.951 . S
C1375 C1373 1.388 . S
C1375 C1376 1.366 . S
C1376 C1375 1.366 . S
C1376 C1377 1.414 . S
C1376 C1379 1.499 . S
C1377 H1351 0.950 . S
C1377 C1376 1.414 . S
C1377 C1378 1.374 . S
C1378 H1352 0.950 . S
C1378 C1374 1.385 . S
C1378 C1377 1.374 . S
C1379 C1376 1.499 . S
C1379 C1380 1.373 . S
C1379 C1381 1.389 . S
C1380 H1353 0.950 . S
C1380 C1366 1.377 . S
C1380 C1379 1.373 . S
C1381 C1365 1.377 . S
C1381 C1379 1.389 . S
C1381 C1382 1.524 . S
C1382 C1381 1.524 . S
C1382 C1383 1.397 . S
C1382 C1387 1.363 . S
C1383 H1354 0.950 . S
C1383 C1382 1.397 . S
C1383 C1384 1.334 . S
C1384 H1355 0.950 . S
C1384 C1383 1.334 . S
C1384 C1385 1.287 . S
C1385 C1384 1.287 . S
C1385 C1386 1.524 . S
C1385 H1388 0.999 . S
C1386 H1356 0.950 . S
C1386 C1385 1.524 . S
C1386 C1387 1.415 . S
C1387 H1357 0.950 . S
C1387 C1382 1.363 . S
C1387 C1386 1.415 . S
H1388 C1385 0.999 . S
H1389 C1370 0.913 . S
H1390 C1408 0.951 . S
H1391 C1410 0.951 . S
H1392 C1412 0.950 . S
H1393 C1413 0.950 . S
H1394 C1415 0.950 . S
H1395 C1418 0.950 . S
H1396 C1419 0.950 . S
H1397 C1421 0.950 . S
H1398 C1422 0.950 . S
H1399 C1423 0.951 . S
H1400 C1425 0.951 . S
H1401 C1427 0.950 . S
H1402 C1428 0.950 . S
H1403 C1430 0.950 . S
H1404 C1433 0.950 . S
H1405 C1434 0.950 . S
H1406 C1436 0.950 . S
H1407 C1437 0.950 . S
C1408 H1390 0.951 . S
C1408 C1409 1.366 . S
C1408 C1410 1.388 . S
C1409 C1408 1.366 . S
C1409 C1413 1.385 . S
C1410 H1391 0.951 . S
C1410 C1408 1.388 . S
C1410 C1411 1.366 . S
C1411 C1410 1.366 . S
C1411 C1412 1.414 . S
C1411 C1414 1.499 1_545 S
C1412 H1392 0.950 . S
C1412 C1411 1.414 . S
C1412 C1413 1.374 . S
C1413 H1393 0.950 . S
C1413 C1409 1.385 . S
C1413 C1412 1.374 . S
C1414 C1411 1.499 1_565 S
C1414 C1415 1.373 . S
C1414 C1416 1.389 . S
C1415 H1394 0.950 . S
C1415 C1414 1.373 . S
C1415 C1431 1.377 . S
C1416 C1414 1.389 . S
C1416 C1417 1.524 . S
C1416 C1430 1.377 . S
C1417 C1416 1.524 . S
C1417 C1418 1.397 1_565 S
C1417 C1422 1.363 . S
C1418 H1395 0.950 . S
C1418 C1417 1.397 1_545 S
C1418 C1419 1.334 . S
C1419 H1396 0.950 . S
C1419 C1418 1.334 . S
C1419 C1420 1.287 . S
C1420 C1419 1.287 . S
C1420 C1421 1.524 1_545 S
C1420 H1439 0.913 . S
C1421 H1397 0.950 . S
C1421 C1420 1.524 1_565 S
C1421 C1422 1.415 . S
C1422 H1398 0.950 . S
C1422 C1417 1.363 . S
C1422 C1421 1.415 . S
C1423 H1399 0.951 . S
C1423 C1424 1.366 . S
C1423 C1425 1.388 . S
C1424 C1423 1.366 . S
C1424 C1428 1.385 . S
C1425 H1400 0.951 . S
C1425 C1423 1.388 . S
C1425 C1426 1.366 . S
C1426 C1425 1.366 . S
C1426 C1427 1.414 . S
C1426 C1429 1.499 . S
C1427 H1401 0.950 . S
C1427 C1426 1.414 . S
C1427 C1428 1.374 . S
C1428 H1402 0.950 . S
C1428 C1424 1.385 . S
C1428 C1427 1.374 . S
C1429 C1426 1.499 . S
C1429 C1430 1.373 . S
C1429 C1431 1.389 . S
C1430 H1403 0.950 . S
C1430 C1416 1.377 . S
C1430 C1429 1.373 . S
C1431 C1415 1.377 . S
C1431 C1429 1.389 . S
C1431 C1432 1.524 . S
C1432 C1431 1.524 . S
C1432 C1433 1.397 . S
C1432 C1437 1.363 . S
C1433 H1404 0.950 . S
C1433 C1432 1.397 . S
C1433 C1434 1.334 . S
C1434 H1405 0.950 . S
C1434 C1433 1.334 . S
C1434 C1435 1.287 . S
C1435 C1434 1.287 . S
C1435 C1436 1.524 . S
C1435 H1438 0.999 . S
C1436 H1406 0.950 . S
C1436 C1435 1.524 . S
C1436 C1437 1.415 . S
C1437 H1407 0.950 . S
C1437 C1432 1.363 . S
C1437 C1436 1.415 . S
H1438 C1435 0.999 . S
H1439 C1420 0.913 . S
H1440 C1458 0.951 . S
H1441 C1460 0.951 . S
H1442 C1462 0.950 . S
H1443 C1463 0.950 . S
H1444 C1465 0.950 . S
H1445 C1468 0.950 . S
H1446 C1469 0.950 . S
H1447 C1471 0.950 . S
H1448 C1472 0.950 . S
H1449 C1473 0.951 . S
H1450 C1475 0.951 . S
H1451 C1477 0.950 . S
H1452 C1478 0.950 . S
H1453 C1480 0.950 . S
H1454 C1483 0.950 . S
H1455 C1484 0.950 . S
H1456 C1486 0.950 . S
H1457 C1487 0.950 . S
C1458 H1440 0.951 . S
C1458 C1459 1.366 . S
C1458 C1460 1.388 . S
C1459 C1458 1.366 . S
C1459 C1463 1.385 . S
C1460 H1441 0.951 . S
C1460 C1458 1.388 . S
C1460 C1461 1.366 . S
C1461 C1460 1.366 . S
C1461 C1462 1.414 . S
C1461 C1464 1.499 . S
C1462 H1442 0.950 . S
C1462 C1461 1.414 . S
C1462 C1463 1.374 . S
C1463 H1443 0.950 . S
C1463 C1459 1.385 . S
C1463 C1462 1.374 . S
C1464 C1461 1.499 . S
C1464 C1465 1.373 . S
C1464 C1466 1.389 . S
C1465 H1444 0.950 . S
C1465 C1464 1.373 . S
C1465 C1481 1.377 . S
C1466 C1464 1.389 . S
C1466 C1467 1.524 . S
C1466 C1480 1.377 . S
C1467 C1466 1.524 . S
C1467 C1468 1.397 . S
C1467 C1472 1.363 . S
C1468 H1445 0.950 . S
C1468 C1467 1.397 . S
C1468 C1469 1.334 . S
C1469 H1446 0.950 . S
C1469 C1468 1.334 . S
C1469 C1470 1.287 . S
C1470 C1469 1.287 . S
C1470 C1471 1.524 . S
C1470 H1489 0.913 . S
C1471 H1447 0.950 . S
C1471 C1470 1.524 . S
C1471 C1472 1.415 . S
C1472 H1448 0.950 . S
C1472 C1467 1.363 . S
C1472 C1471 1.415 . S
C1473 H1449 0.951 . S
C1473 C1474 1.366 . S
C1473 C1475 1.388 . S
C1474 C1473 1.366 . S
C1474 C1478 1.385 . S
C1475 H1450 0.951 . S
C1475 C1473 1.388 . S
C1475 C1476 1.366 . S
C1476 C1475 1.366 . S
C1476 C1477 1.414 . S
C1476 C1479 1.499 . S
C1477 H1451 0.950 . S
C1477 C1476 1.414 . S
C1477 C1478 1.374 . S
C1478 H1452 0.950 . S
C1478 C1474 1.385 . S
C1478 C1477 1.374 . S
C1479 C1476 1.499 . S
C1479 C1480 1.373 . S
C1479 C1481 1.389 . S
C1480 H1453 0.950 . S
C1480 C1466 1.377 . S
C1480 C1479 1.373 . S
C1481 C1465 1.377 . S
C1481 C1479 1.389 . S
C1481 C1482 1.524 . S
C1482 C1481 1.524 . S
C1482 C1483 1.397 . S
C1482 C1487 1.363 . S
C1483 H1454 0.950 . S
C1483 C1482 1.397 . S
C1483 C1484 1.334 . S
C1484 H1455 0.950 . S
C1484 C1483 1.334 . S
C1484 C1485 1.287 . S
C1485 C1484 1.287 . S
C1485 C1486 1.524 . S
C1485 H1488 0.999 . S
C1486 H1456 0.950 . S
C1486 C1485 1.524 . S
C1486 C1487 1.415 . S
C1487 H1457 0.950 . S
C1487 C1482 1.363 . S
C1487 C1486 1.415 . S
H1488 C1485 0.999 . S
H1489 C1470 0.913 . S
H1490 C1508 0.951 . S
H1491 C1510 0.951 . S
H1492 C1512 0.950 . S
H1493 C1513 0.950 . S
H1494 C1515 0.950 . S
H1495 C1518 0.950 . S
H1496 C1519 0.950 . S
H1497 C1521 0.950 . S
H1498 C1522 0.950 . S
H1499 C1523 0.951 . S
H1500 C1525 0.951 . S
H1501 C1527 0.950 . S
H1502 C1528 0.950 . S
H1503 C1530 0.950 . S
H1504 C1533 0.950 . S
H1505 C1534 0.950 . S
H1506 C1536 0.950 . S
H1507 C1537 0.950 . S
C1508 H1490 0.951 . S
C1508 C1509 1.366 . S
C1508 C1510 1.388 . S
C1509 C1508 1.366 . S
C1509 C1513 1.385 . S
C1510 H1491 0.951 . S
C1510 C1508 1.388 . S
C1510 C1511 1.366 . S
C1511 C1510 1.366 . S
C1511 C1512 1.414 . S
C1511 C1514 1.499 . S
C1512 H1492 0.950 . S
C1512 C1511 1.414 . S
C1512 C1513 1.374 . S
C1513 H1493 0.950 . S
C1513 C1509 1.385 . S
C1513 C1512 1.374 . S
C1514 C1511 1.499 . S
C1514 C1515 1.373 . S
C1514 C1516 1.389 . S
C1515 H1494 0.950 . S
C1515 C1514 1.373 . S
C1515 C1531 1.377 . S
C1516 C1514 1.389 . S
C1516 C1517 1.524 . S
C1516 C1530 1.377 . S
C1517 C1516 1.524 . S
C1517 C1518 1.397 . S
C1517 C1522 1.363 . S
C1518 H1495 0.950 . S
C1518 C1517 1.397 . S
C1518 C1519 1.334 . S
C1519 H1496 0.950 . S
C1519 C1518 1.334 . S
C1519 C1520 1.287 . S
C1520 C1519 1.287 . S
C1520 C1521 1.524 . S
C1520 H1539 0.913 . S
C1521 H1497 0.950 . S
C1521 C1520 1.524 . S
C1521 C1522 1.415 . S
C1522 H1498 0.950 . S
C1522 C1517 1.363 . S
C1522 C1521 1.415 . S
C1523 H1499 0.951 . S
C1523 C1524 1.366 . S
C1523 C1525 1.388 . S
C1524 C1523 1.366 . S
C1524 C1528 1.385 . S
C1525 H1500 0.951 . S
C1525 C1523 1.388 . S
C1525 C1526 1.366 . S
C1526 C1525 1.366 . S
C1526 C1527 1.414 . S
C1526 C1529 1.499 . S
C1527 H1501 0.950 . S
C1527 C1526 1.414 . S
C1527 C1528 1.374 . S
C1528 H1502 0.950 . S
C1528 C1524 1.385 . S
C1528 C1527 1.374 . S
C1529 C1526 1.499 . S
C1529 C1530 1.373 . S
C1529 C1531 1.389 . S
C1530 H1503 0.950 . S
C1530 C1516 1.377 . S
C1530 C1529 1.373 . S
C1531 C1515 1.377 . S
C1531 C1529 1.389 . S
C1531 C1532 1.524 . S
C1532 C1531 1.524 . S
C1532 C1533 1.397 . S
C1532 C1537 1.363 . S
C1533 H1504 0.950 . S
C1533 C1532 1.397 . S
C1533 C1534 1.334 . S
C1534 H1505 0.950 . S
C1534 C1533 1.334 . S
C1534 C1535 1.287 . S
C1535 C1534 1.287 . S
C1535 C1536 1.524 . S
C1535 H1538 0.999 . S
C1536 H1506 0.950 . S
C1536 C1535 1.524 . S
C1536 C1537 1.415 . S
C1537 H1507 0.950 . S
C1537 C1532 1.363 . S
C1537 C1536 1.415 . S
H1538 C1535 0.999 . S
H1539 C1520 0.913 . S
H1540 C1558 0.951 . S
H1541 C1560 0.951 . S
H1542 C1562 0.950 . S
H1543 C1563 0.950 . S
H1544 C1565 0.950 . S
H1545 C1568 0.950 . S
H1546 C1569 0.950 . S
H1547 C1571 0.950 . S
H1548 C1572 0.950 . S
H1549 C1573 0.951 . S
H1550 C1575 0.951 . S
H1551 C1577 0.950 . S
H1552 C1578 0.950 . S
H1553 C1580 0.950 . S
H1554 C1583 0.950 . S
H1555 C1584 0.950 . S
H1556 C1586 0.950 . S
H1557 C1587 0.950 . S
C1558 H1540 0.951 . S
C1558 C1559 1.366 . S
C1558 C1560 1.388 . S
C1559 C1558 1.366 . S
C1559 C1563 1.385 . S
C1560 H1541 0.951 . S
C1560 C1558 1.388 . S
C1560 C1561 1.366 . S
C1561 C1560 1.366 . S
C1561 C1562 1.414 . S
C1561 C1564 1.499 . S
C1562 H1542 0.950 . S
C1562 C1561 1.414 . S
C1562 C1563 1.374 . S
C1563 H1543 0.950 . S
C1563 C1559 1.385 . S
C1563 C1562 1.374 . S
C1564 C1561 1.499 . S
C1564 C1565 1.373 . S
C1564 C1566 1.389 . S
C1565 H1544 0.950 . S
C1565 C1564 1.373 . S
C1565 C1581 1.377 . S
C1566 C1564 1.389 . S
C1566 C1567 1.524 . S
C1566 C1580 1.377 . S
C1567 C1566 1.524 . S
C1567 C1568 1.397 . S
C1567 C1572 1.363 . S
C1568 H1545 0.950 . S
C1568 C1567 1.397 . S
C1568 C1569 1.334 . S
C1569 H1546 0.950 . S
C1569 C1568 1.334 . S
C1569 C1570 1.287 . S
C1570 C1569 1.287 . S
C1570 C1571 1.524 . S
C1570 H1589 0.913 . S
C1571 H1547 0.950 . S
C1571 C1570 1.524 . S
C1571 C1572 1.415 . S
C1572 H1548 0.950 . S
C1572 C1567 1.363 . S
C1572 C1571 1.415 . S
C1573 H1549 0.951 . S
C1573 C1574 1.366 . S
C1573 C1575 1.388 . S
C1574 C1573 1.366 . S
C1574 C1578 1.385 . S
C1575 H1550 0.951 . S
C1575 C1573 1.388 . S
C1575 C1576 1.366 . S
C1576 C1575 1.366 . S
C1576 C1577 1.414 . S
C1576 C1579 1.499 . S
C1577 H1551 0.950 . S
C1577 C1576 1.414 . S
C1577 C1578 1.374 . S
C1578 H1552 0.950 . S
C1578 C1574 1.385 . S
C1578 C1577 1.374 . S
C1579 C1576 1.499 . S
C1579 C1580 1.373 . S
C1579 C1581 1.389 . S
C1580 H1553 0.950 . S
C1580 C1566 1.377 . S
C1580 C1579 1.373 . S
C1581 C1565 1.377 . S
C1581 C1579 1.389 . S
C1581 C1582 1.524 . S
C1582 C1581 1.524 . S
C1582 C1583 1.397 . S
C1582 C1587 1.363 . S
C1583 H1554 0.950 . S
C1583 C1582 1.397 . S
C1583 C1584 1.334 . S
C1584 H1555 0.950 . S
C1584 C1583 1.334 . S
C1584 C1585 1.287 . S
C1585 C1584 1.287 . S
C1585 C1586 1.524 . S
C1585 H1588 0.999 . S
C1586 H1556 0.950 . S
C1586 C1585 1.524 . S
C1586 C1587 1.415 . S
C1587 H1557 0.950 . S
C1587 C1582 1.363 . S
C1587 C1586 1.415 . S
H1588 C1585 0.999 . S
H1589 C1570 0.913 . S
H1590 C1608 0.951 . S
H1591 C1610 0.951 . S
H1592 C1612 0.950 . S
H1593 C1613 0.950 . S
H1594 C1615 0.950 . S
H1595 C1618 0.950 . S
H1596 C1619 0.950 . S
H1597 C1621 0.950 . S
H1598 C1622 0.950 . S
H1599 C1623 0.951 . S
H1600 C1625 0.951 . S
H1601 C1627 0.950 . S
H1602 C1628 0.950 . S
H1603 C1630 0.950 . S
H1604 C1633 0.950 . S
H1605 C1634 0.950 . S
H1606 C1636 0.950 . S
H1607 C1637 0.950 . S
C1608 H1590 0.951 . S
C1608 C1609 1.366 . S
C1608 C1610 1.388 . S
C1609 C1608 1.366 . S
C1609 C1613 1.385 . S
C1610 H1591 0.951 . S
C1610 C1608 1.388 . S
C1610 C1611 1.366 . S
C1611 C1610 1.366 . S
C1611 C1612 1.414 . S
C1611 C1614 1.499 . S
C1612 H1592 0.950 . S
C1612 C1611 1.414 . S
C1612 C1613 1.374 . S
C1613 H1593 0.950 . S
C1613 C1609 1.385 . S
C1613 C1612 1.374 . S
C1614 C1611 1.499 . S
C1614 C1615 1.373 . S
C1614 C1616 1.389 . S
C1615 H1594 0.950 . S
C1615 C1614 1.373 . S
C1615 C1631 1.377 . S
C1616 C1614 1.389 . S
C1616 C1617 1.524 . S
C1616 C1630 1.377 . S
C1617 C1616 1.524 . S
C1617 C1618 1.397 . S
C1617 C1622 1.363 . S
C1618 H1595 0.950 . S
C1618 C1617 1.397 . S
C1618 C1619 1.334 . S
C1619 H1596 0.950 . S
C1619 C1618 1.334 . S
C1619 C1620 1.287 . S
C1620 C1619 1.287 . S
C1620 C1621 1.524 . S
C1620 H1639 0.913 . S
C1621 H1597 0.950 . S
C1621 C1620 1.524 . S
C1621 C1622 1.415 . S
C1622 H1598 0.950 . S
C1622 C1617 1.363 . S
C1622 C1621 1.415 . S
C1623 H1599 0.951 . S
C1623 C1624 1.366 . S
C1623 C1625 1.388 . S
C1624 C1623 1.366 . S
C1624 C1628 1.385 . S
C1625 H1600 0.951 . S
C1625 C1623 1.388 . S
C1625 C1626 1.366 . S
C1626 C1625 1.366 . S
C1626 C1627 1.414 . S
C1626 C1629 1.499 . S
C1627 H1601 0.950 . S
C1627 C1626 1.414 . S
C1627 C1628 1.374 . S
C1628 H1602 0.950 . S
C1628 C1624 1.385 . S
C1628 C1627 1.374 . S
C1629 C1626 1.499 . S
C1629 C1630 1.373 . S
C1629 C1631 1.389 . S
C1630 H1603 0.950 . S
C1630 C1616 1.377 . S
C1630 C1629 1.373 . S
C1631 C1615 1.377 . S
C1631 C1629 1.389 . S
C1631 C1632 1.524 . S
C1632 C1631 1.524 . S
C1632 C1633 1.397 . S
C1632 C1637 1.363 . S
C1633 H1604 0.950 . S
C1633 C1632 1.397 . S
C1633 C1634 1.334 . S
C1634 H1605 0.950 . S
C1634 C1633 1.334 . S
C1634 C1635 1.287 . S
C1635 C1634 1.287 . S
C1635 C1636 1.524 . S
C1635 H1638 0.999 . S
C1636 H1606 0.950 . S
C1636 C1635 1.524 . S
C1636 C1637 1.415 . S
C1637 H1607 0.950 . S
C1637 C1632 1.363 . S
C1637 C1636 1.415 . S
H1638 C1635 0.999 . S
H1639 C1620 0.913 . S
H1640 C1658 0.951 . S
H1641 C1660 0.951 . S
H1642 C1662 0.950 . S
H1643 C1663 0.950 . S
H1644 C1665 0.950 . S
H1645 C1668 0.950 . S
H1646 C1669 0.950 . S
H1647 C1671 0.950 . S
H1648 C1672 0.950 . S
H1649 C1673 0.951 . S
H1650 C1675 0.951 . S
H1651 C1677 0.950 . S
H1652 C1678 0.950 . S
H1653 C1680 0.950 . S
H1654 C1683 0.950 . S
H1655 C1684 0.950 . S
H1656 C1686 0.950 . S
H1657 C1687 0.950 . S
C1658 H1640 0.951 . S
C1658 C1659 1.366 . S
C1658 C1660 1.388 . S
C1659 C1658 1.366 . S
C1659 C1663 1.385 . S
C1660 H1641 0.951 . S
C1660 C1658 1.388 . S
C1660 C1661 1.366 . S
C1661 C1660 1.366 . S
C1661 C1662 1.414 . S
C1661 C1664 1.499 . S
C1662 H1642 0.950 . S
C1662 C1661 1.414 . S
C1662 C1663 1.374 . S
C1663 H1643 0.950 . S
C1663 C1659 1.385 . S
C1663 C1662 1.374 . S
C1664 C1661 1.499 . S
C1664 C1665 1.373 . S
C1664 C1666 1.389 . S
C1665 H1644 0.950 . S
C1665 C1664 1.373 . S
C1665 C1681 1.377 . S
C1666 C1664 1.389 . S
C1666 C1667 1.524 . S
C1666 C1680 1.377 . S
C1667 C1666 1.524 . S
C1667 C1668 1.397 . S
C1667 C1672 1.363 . S
C1668 H1645 0.950 . S
C1668 C1667 1.397 . S
C1668 C1669 1.334 . S
C1669 H1646 0.950 . S
C1669 C1668 1.334 . S
C1669 C1670 1.287 . S
C1670 C1669 1.287 . S
C1670 C1671 1.524 . S
C1670 H1689 0.913 . S
C1671 H1647 0.950 . S
C1671 C1670 1.524 . S
C1671 C1672 1.415 . S
C1672 H1648 0.950 . S
C1672 C1667 1.363 . S
C1672 C1671 1.415 . S
C1673 H1649 0.951 . S
C1673 C1674 1.366 . S
C1673 C1675 1.388 . S
C1674 C1673 1.366 . S
C1674 C1678 1.385 . S
C1675 H1650 0.951 . S
C1675 C1673 1.388 . S
C1675 C1676 1.366 . S
C1676 C1675 1.366 . S
C1676 C1677 1.414 . S
C1676 C1679 1.499 . S
C1677 H1651 0.950 . S
C1677 C1676 1.414 . S
C1677 C1678 1.374 . S
C1678 H1652 0.950 . S
C1678 C1674 1.385 . S
C1678 C1677 1.374 . S
C1679 C1676 1.499 . S
C1679 C1680 1.373 . S
C1679 C1681 1.389 . S
C1680 H1653 0.950 . S
C1680 C1666 1.377 . S
C1680 C1679 1.373 . S
C1681 C1665 1.377 . S
C1681 C1679 1.389 . S
C1681 C1682 1.524 . S
C1682 C1681 1.524 . S
C1682 C1683 1.397 . S
C1682 C1687 1.363 . S
C1683 H1654 0.950 . S
C1683 C1682 1.397 . S
C1683 C1684 1.334 . S
C1684 H1655 0.950 . S
C1684 C1683 1.334 . S
C1684 C1685 1.287 . S
C1685 C1684 1.287 . S
C1685 C1686 1.524 . S
C1685 H1688 0.999 . S
C1686 H1656 0.950 . S
C1686 C1685 1.524 . S
C1686 C1687 1.415 . S
C1687 H1657 0.950 . S
C1687 C1682 1.363 . S
C1687 C1686 1.415 . S
H1688 C1685 0.999 . S
H1689 C1670 0.913 . S
H1690 C1708 0.951 . S
H1691 C1710 0.951 . S
H1692 C1712 0.950 . S
H1693 C1713 0.950 . S
H1694 C1715 0.950 . S
H1695 C1718 0.950 . S
H1696 C1719 0.950 . S
H1697 C1721 0.950 . S
H1698 C1722 0.950 . S
H1699 C1723 0.951 . S
H1700 C1725 0.951 . S
H1701 C1727 0.950 . S
H1702 C1728 0.950 . S
H1703 C1730 0.950 . S
H1704 C1733 0.950 . S
H1705 C1734 0.950 . S
H1706 C1736 0.950 . S
H1707 C1737 0.950 . S
C1708 H1690 0.951 . S
C1708 C1709 1.366 . S
C1708 C1710 1.388 . S
C1709 C1708 1.366 . S
C1709 C1713 1.385 . S
C1710 H1691 0.951 . S
C1710 C1708 1.388 . S
C1710 C1711 1.366 . S
C1711 C1710 1.366 . S
C1711 C1712 1.414 . S
C1711 C1714 1.499 . S
C1712 H1692 0.950 . S
C1712 C1711 1.414 . S
C1712 C1713 1.374 . S
C1713 H1693 0.950 . S
C1713 C1709 1.385 . S
C1713 C1712 1.374 . S
C1714 C1711 1.499 . S
C1714 C1715 1.373 . S
C1714 C1716 1.389 . S
C1715 H1694 0.950 . S
C1715 C1714 1.373 . S
C1715 C1731 1.377 . S
C1716 C1714 1.389 . S
C1716 C1717 1.524 . S
C1716 C1730 1.377 . S
C1717 C1716 1.524 . S
C1717 C1718 1.397 . S
C1717 C1722 1.363 . S
C1718 H1695 0.950 . S
C1718 C1717 1.397 . S
C1718 C1719 1.334 . S
C1719 H1696 0.950 . S
C1719 C1718 1.334 . S
C1719 C1720 1.287 . S
C1720 C1719 1.287 . S
C1720 C1721 1.524 . S
C1720 H1739 0.913 . S
C1721 H1697 0.950 . S
C1721 C1720 1.524 . S
C1721 C1722 1.415 . S
C1722 H1698 0.950 . S
C1722 C1717 1.363 . S
C1722 C1721 1.415 . S
C1723 H1699 0.951 . S
C1723 C1724 1.366 . S
C1723 C1725 1.388 . S
C1724 C1723 1.366 . S
C1724 C1728 1.385 . S
C1725 H1700 0.951 . S
C1725 C1723 1.388 . S
C1725 C1726 1.366 . S
C1726 C1725 1.366 . S
C1726 C1727 1.414 . S
C1726 C1729 1.499 . S
C1727 H1701 0.950 . S
C1727 C1726 1.414 . S
C1727 C1728 1.374 . S
C1728 H1702 0.950 . S
C1728 C1724 1.385 . S
C1728 C1727 1.374 . S
C1729 C1726 1.499 . S
C1729 C1730 1.373 . S
C1729 C1731 1.389 . S
C1730 H1703 0.950 . S
C1730 C1716 1.377 . S
C1730 C1729 1.373 . S
C1731 C1715 1.377 . S
C1731 C1729 1.389 . S
C1731 C1732 1.524 . S
C1732 C1731 1.524 . S
C1732 C1733 1.397 . S
C1732 C1737 1.363 . S
C1733 H1704 0.950 . S
C1733 C1732 1.397 . S
C1733 C1734 1.334 . S
C1734 H1705 0.950 . S
C1734 C1733 1.334 . S
C1734 C1735 1.287 . S
C1735 C1734 1.287 . S
C1735 C1736 1.524 . S
C1735 H1738 0.999 . S
C1736 H1706 0.950 . S
C1736 C1735 1.524 . S
C1736 C1737 1.415 . S
C1737 H1707 0.950 . S
C1737 C1732 1.363 . S
C1737 C1736 1.415 . S
H1738 C1735 0.999 . S
H1739 C1720 0.913 . S
H1740 C1758 0.951 . S
H1741 C1760 0.951 . S
H1742 C1762 0.950 . S
H1743 C1763 0.950 . S
H1744 C1765 0.950 . S
H1745 C1768 0.950 . S
H1746 C1769 0.950 1_455 S
H1747 C1771 0.950 . S
H1748 C1772 0.950 . S
H1749 C1773 0.951 . S
H1750 C1775 0.951 . S
H1751 C1777 0.950 . S
H1752 C1778 0.950 . S
H1753 C1780 0.950 . S
H1754 C1783 0.950 . S
H1755 C1784 0.950 . S
H1756 C1786 0.950 1_556 S
H1757 C1787 0.950 . S
C1758 H1740 0.951 . S
C1758 C1759 1.366 . S
C1758 C1760 1.388 . S
C1759 C1758 1.366 . S
C1759 C1763 1.385 . S
C1760 H1741 0.951 . S
C1760 C1758 1.388 . S
C1760 C1761 1.366 . S
C1761 C1760 1.366 . S
C1761 C1762 1.414 . S
C1761 C1764 1.499 . S
C1762 H1742 0.950 . S
C1762 C1761 1.414 . S
C1762 C1763 1.374 . S
C1763 H1743 0.950 . S
C1763 C1759 1.385 . S
C1763 C1762 1.374 . S
C1764 C1761 1.499 . S
C1764 C1765 1.373 . S
C1764 C1766 1.389 . S
C1765 H1744 0.950 . S
C1765 C1764 1.373 . S
C1765 C1781 1.377 . S
C1766 C1764 1.389 . S
C1766 C1767 1.524 1_455 S
C1766 C1780 1.377 1_455 S
C1767 C1766 1.524 1_655 S
C1767 C1768 1.397 1_655 S
C1767 C1772 1.363 . S
C1768 H1745 0.950 . S
C1768 C1767 1.397 1_455 S
C1768 C1769 1.334 1_455 S
C1769 H1746 0.950 1_655 S
C1769 C1768 1.334 1_655 S
C1769 C1770 1.287 . S
C1770 C1769 1.287 . S
C1770 C1771 1.524 . S
C1770 H1789 0.913 . S
C1771 H1747 0.950 . S
C1771 C1770 1.524 . S
C1771 C1772 1.415 . S
C1772 H1748 0.950 . S
C1772 C1767 1.363 . S
C1772 C1771 1.415 . S
C1773 H1749 0.951 . S
C1773 C1774 1.366 . S
C1773 C1775 1.388 . S
C1774 C1773 1.366 . S
C1774 C1778 1.385 . S
C1775 H1750 0.951 . S
C1775 C1773 1.388 . S
C1775 C1776 1.366 . S
C1776 C1775 1.366 . S
C1776 C1777 1.414 . S
C1776 C1779 1.499 . S
C1777 H1751 0.950 . S
C1777 C1776 1.414 . S
C1777 C1778 1.374 . S
C1778 H1752 0.950 . S
C1778 C1774 1.385 . S
C1778 C1777 1.374 . S
C1779 C1776 1.499 . S
C1779 C1780 1.373 . S
C1779 C1781 1.389 1_655 S
C1780 H1753 0.950 . S
C1780 C1766 1.377 1_655 S
C1780 C1779 1.373 . S
C1781 C1765 1.377 . S
C1781 C1779 1.389 1_455 S
C1781 C1782 1.524 . S
C1782 C1781 1.524 . S
C1782 C1783 1.397 . S
C1782 C1787 1.363 . S
C1783 H1754 0.950 . S
C1783 C1782 1.397 . S
C1783 C1784 1.334 . S
C1784 H1755 0.950 . S
C1784 C1783 1.334 . S
C1784 C1785 1.287 . S
C1785 C1784 1.287 . S
C1785 C1786 1.524 . S
C1785 H1788 0.977 1_554 S
C1786 H1756 0.950 1_554 S
C1786 C1785 1.524 . S
C1786 C1787 1.415 . S
C1787 H1757 0.950 . S
C1787 C1782 1.363 . S
C1787 C1786 1.415 . S
H1788 C1785 0.977 1_556 S
H1789 C1770 0.913 . S
H1790 C1808 0.951 . S
H1791 C1810 0.951 . S
H1792 C1812 0.950 . S
H1793 C1813 0.950 . S
H1794 C1815 0.950 . S
H1795 C1818 0.950 . S
H1796 C1819 0.950 . S
H1797 C1821 0.950 . S
H1798 C1822 0.950 . S
H1799 C1823 0.951 . S
H1800 C1825 0.951 . S
H1801 C1827 0.950 . S
H1802 C1828 0.950 . S
H1803 C1830 0.950 . S
H1804 C1833 0.950 . S
H1805 C1834 0.950 . S
H1806 C1836 0.950 . S
H1807 C1837 0.950 . S
C1808 H1790 0.951 . S
C1808 C1809 1.366 . S
C1808 C1810 1.388 . S
C1809 C1808 1.366 . S
C1809 C1813 1.385 . S
C1810 H1791 0.951 . S
C1810 C1808 1.388 . S
C1810 C1811 1.366 . S
C1811 C1810 1.366 . S
C1811 C1812 1.414 . S
C1811 C1814 1.499 . S
C1812 H1792 0.950 . S
C1812 C1811 1.414 . S
C1812 C1813 1.374 . S
C1813 H1793 0.950 . S
C1813 C1809 1.385 . S
C1813 C1812 1.374 . S
C1814 C1811 1.499 . S
C1814 C1815 1.373 . S
C1814 C1816 1.389 . S
C1815 H1794 0.950 . S
C1815 C1814 1.373 . S
C1815 C1831 1.377 . S
C1816 C1814 1.389 . S
C1816 C1817 1.524 . S
C1816 C1830 1.377 . S
C1817 C1816 1.524 . S
C1817 C1818 1.397 . S
C1817 C1822 1.363 . S
C1818 H1795 0.950 . S
C1818 C1817 1.397 . S
C1818 C1819 1.334 . S
C1819 H1796 0.950 . S
C1819 C1818 1.334 . S
C1819 C1820 1.287 . S
C1820 C1819 1.287 . S
C1820 C1821 1.524 . S
C1820 H1839 0.913 . S
C1821 H1797 0.950 . S
C1821 C1820 1.524 . S
C1821 C1822 1.415 . S
C1822 H1798 0.950 . S
C1822 C1817 1.363 . S
C1822 C1821 1.415 . S
C1823 H1799 0.951 . S
C1823 C1824 1.366 . S
C1823 C1825 1.388 . S
C1824 C1823 1.366 . S
C1824 C1828 1.385 . S
C1825 H1800 0.951 . S
C1825 C1823 1.388 . S
C1825 C1826 1.366 . S
C1826 C1825 1.366 . S
C1826 C1827 1.414 . S
C1826 C1829 1.499 . S
C1827 H1801 0.950 . S
C1827 C1826 1.414 . S
C1827 C1828 1.374 . S
C1828 H1802 0.950 . S
C1828 C1824 1.385 . S
C1828 C1827 1.374 . S
C1829 C1826 1.499 . S
C1829 C1830 1.373 . S
C1829 C1831 1.389 . S
C1830 H1803 0.950 . S
C1830 C1816 1.377 . S
C1830 C1829 1.373 . S
C1831 C1815 1.377 . S
C1831 C1829 1.389 . S
C1831 C1832 1.524 . S
C1832 C1831 1.524 . S
C1832 C1833 1.397 . S
C1832 C1837 1.363 . S
C1833 H1804 0.950 . S
C1833 C1832 1.397 . S
C1833 C1834 1.334 . S
C1834 H1805 0.950 . S
C1834 C1833 1.334 . S
C1834 C1835 1.287 . S
C1835 C1834 1.287 . S
C1835 C1836 1.524 . S
C1835 H1838 0.999 . S
C1836 H1806 0.950 . S
C1836 C1835 1.524 . S
C1836 C1837 1.415 . S
C1837 H1807 0.950 . S
C1837 C1832 1.363 . S
C1837 C1836 1.415 . S
H1838 C1835 0.999 . S
H1839 C1820 0.913 . S
H1840 C1858 0.951 . S
H1841 C1860 0.951 . S
H1842 C1862 0.950 . S
H1843 C1863 0.950 . S
H1844 C1865 0.950 . S
H1845 C1868 0.950 . S
H1846 C1869 0.950 . S
H1847 C1871 0.950 . S
H1848 C1872 0.950 . S
H1849 C1873 0.951 . S
H1850 C1875 0.951 . S
H1851 C1877 0.950 . S
H1852 C1878 0.950 . S
H1853 C1880 0.950 . S
H1854 C1883 0.950 . S
H1855 C1884 0.950 . S
H1856 C1886 0.950 . S
H1857 C1887 0.950 . S
C1858 H1840 0.951 . S
C1858 C1859 1.366 . S
C1858 C1860 1.388 . S
C1859 C1858 1.366 . S
C1859 C1863 1.385 . S
C1860 H1841 0.951 . S
C1860 C1858 1.388 . S
C1860 C1861 1.366 . S
C1861 C1860 1.366 . S
C1861 C1862 1.414 . S
C1861 C1864 1.499 . S
C1862 H1842 0.950 . S
C1862 C1861 1.414 . S
C1862 C1863 1.374 . S
C1863 H1843 0.950 . S
C1863 C1859 1.385 . S
C1863 C1862 1.374 . S
C1864 C1861 1.499 . S
C1864 C1865 1.373 . S
C1864 C1866 1.389 . S
C1865 H1844 0.950 . S
C1865 C1864 1.373 . S
C1865 C1881 1.377 . S
C1866 C1864 1.389 . S
C1866 C1867 1.524 . S
C1866 C1880 1.377 . S
C1867 C1866 1.524 . S
C1867 C1868 1.397 . S
C1867 C1872 1.363 . S
C1868 H1845 0.950 . S
C1868 C1867 1.397 . S
C1868 C1869 1.334 . S
C1869 H1846 0.950 . S
C1869 C1868 1.334 . S
C1869 C1870 1.287 . S
C1870 C1869 1.287 . S
C1870 C1871 1.524 . S
C1870 H1889 0.913 . S
C1871 H1847 0.950 . S
C1871 C1870 1.524 . S
C1871 C1872 1.415 . S
C1872 H1848 0.950 . S
C1872 C1867 1.363 . S
C1872 C1871 1.415 . S
C1873 H1849 0.951 . S
C1873 C1874 1.366 . S
C1873 C1875 1.388 . S
C1874 C1873 1.366 . S
C1874 C1878 1.385 . S
C1875 H1850 0.951 . S
C1875 C1873 1.388 . S
C1875 C1876 1.366 . S
C1876 C1875 1.366 . S
C1876 C1877 1.414 . S
C1876 C1879 1.499 . S
C1877 H1851 0.950 . S
C1877 C1876 1.414 . S
C1877 C1878 1.374 . S
C1878 H1852 0.950 . S
C1878 C1874 1.385 . S
C1878 C1877 1.374 . S
C1879 C1876 1.499 . S
C1879 C1880 1.373 . S
C1879 C1881 1.389 . S
C1880 H1853 0.950 . S
C1880 C1866 1.377 . S
C1880 C1879 1.373 . S
C1881 C1865 1.377 . S
C1881 C1879 1.389 . S
C1881 C1882 1.524 . S
C1882 C1881 1.524 . S
C1882 C1883 1.397 . S
C1882 C1887 1.363 . S
C1883 H1854 0.950 . S
C1883 C1882 1.397 . S
C1883 C1884 1.334 . S
C1884 H1855 0.950 . S
C1884 C1883 1.334 . S
C1884 C1885 1.287 . S
C1885 C1884 1.287 . S
C1885 C1886 1.524 . S
C1885 H1888 0.999 . S
C1886 H1856 0.950 . S
C1886 C1885 1.524 . S
C1886 C1887 1.415 . S
C1887 H1857 0.950 . S
C1887 C1882 1.363 . S
C1887 C1886 1.415 . S
H1888 C1885 0.999 . S
H1889 C1870 0.913 . S
H1890 C1908 0.951 . S
H1891 C1910 0.951 . S
H1892 C1912 0.950 . S
H1893 C1913 0.950 . S
H1894 C1915 0.950 . S
H1895 C1918 0.950 . S
H1896 C1919 0.950 . S
H1897 C1921 0.950 . S
H1898 C1922 0.950 . S
H1899 C1923 0.951 . S
H1900 C1925 0.951 . S
H1901 C1927 0.950 . S
H1902 C1928 0.950 . S
H1903 C1930 0.950 . S
H1904 C1933 0.950 . S
H1905 C1934 0.950 . S
H1906 C1936 0.950 . S
H1907 C1937 0.950 . S
C1908 H1890 0.951 . S
C1908 C1909 1.366 . S
C1908 C1910 1.388 . S
C1909 C1908 1.366 . S
C1909 C1913 1.385 . S
C1910 H1891 0.951 . S
C1910 C1908 1.388 . S
C1910 C1911 1.366 . S
C1911 C1910 1.366 . S
C1911 C1912 1.414 . S
C1911 C1914 1.499 . S
C1912 H1892 0.950 . S
C1912 C1911 1.414 . S
C1912 C1913 1.374 . S
C1913 H1893 0.950 . S
C1913 C1909 1.385 . S
C1913 C1912 1.374 . S
C1914 C1911 1.499 . S
C1914 C1915 1.373 . S
C1914 C1916 1.389 . S
C1915 H1894 0.950 . S
C1915 C1914 1.373 . S
C1915 C1931 1.377 . S
C1916 C1914 1.389 . S
C1916 C1917 1.524 . S
C1916 C1930 1.377 . S
C1917 C1916 1.524 . S
C1917 C1918 1.397 . S
C1917 C1922 1.363 . S
C1918 H1895 0.950 . S
C1918 C1917 1.397 . S
C1918 C1919 1.334 . S
C1919 H1896 0.950 . S
C1919 C1918 1.334 . S
C1919 C1920 1.287 . S
C1920 C1919 1.287 . S
C1920 C1921 1.524 . S
C1920 H1939 0.913 . S
C1921 H1897 0.950 . S
C1921 C1920 1.524 . S
C1921 C1922 1.415 . S
C1922 H1898 0.950 . S
C1922 C1917 1.363 . S
C1922 C1921 1.415 . S
C1923 H1899 0.951 . S
C1923 C1924 1.366 . S
C1923 C1925 1.388 . S
C1924 C1923 1.366 . S
C1924 C1928 1.385 . S
C1925 H1900 0.951 . S
C1925 C1923 1.388 . S
C1925 C1926 1.366 . S
C1926 C1925 1.366 . S
C1926 C1927 1.414 . S
C1926 C1929 1.499 . S
C1927 H1901 0.950 . S
C1927 C1926 1.414 . S
C1927 C1928 1.374 . S
C1928 H1902 0.950 . S
C1928 C1924 1.385 . S
C1928 C1927 1.374 . S
C1929 C1926 1.499 . S
C1929 C1930 1.373 . S
C1929 C1931 1.389 . S
C1930 H1903 0.950 . S
C1930 C1916 1.377 . S
C1930 C1929 1.373 . S
C1931 C1915 1.377 . S
C1931 C1929 1.389 . S
C1931 C1932 1.524 . S
C1932 C1931 1.524 . S
C1932 C1933 1.397 . S
C1932 C1937 1.363 . S
C1933 H1904 0.950 . S
C1933 C1932 1.397 . S
C1933 C1934 1.334 . S
C1934 H1905 0.950 . S
C1934 C1933 1.334 . S
C1934 C1935 1.287 . S
C1935 C1934 1.287 . S
C1935 C1936 1.524 . S
C1935 H1938 0.999 . S
C1936 H1906 0.950 . S
C1936 C1935 1.524 . S
C1936 C1937 1.415 . S
C1937 H1907 0.950 . S
C1937 C1932 1.363 . S
C1937 C1936 1.415 . S
H1938 C1935 0.999 . S
H1939 C1920 0.913 . S
H1940 C1958 0.951 . S
H1941 C1960 0.951 . S
H1942 C1962 0.950 . S
H1943 C1963 0.950 . S
H1944 C1965 0.950 . S
H1945 C1968 0.950 . S
H1946 C1969 0.950 1_554 S
H1947 C1971 0.950 . S
H1948 C1972 0.950 . S
H1949 C1973 0.951 1_545 S
H1950 C1975 0.951 . S
H1951 C1977 0.950 . S
H1952 C1978 0.950 . S
H1953 C1980 0.950 . S
H1954 C1983 0.950 . S
H1955 C1984 0.950 . S
H1956 C1986 0.941 1_545 S
H1957 C1987 0.950 . S
C1958 H1940 0.951 . S
C1958 C1959 1.366 . S
C1958 C1960 1.388 . S
C1959 C1958 1.366 . S
C1959 C1963 1.385 . S
C1960 H1941 0.951 . S
C1960 C1958 1.388 . S
C1960 C1961 1.366 . S
C1961 C1960 1.366 . S
C1961 C1962 1.414 . S
C1961 C1964 1.499 . S
C1962 H1942 0.950 . S
C1962 C1961 1.414 . S
C1962 C1963 1.374 . S
C1963 H1943 0.950 . S
C1963 C1959 1.385 . S
C1963 C1962 1.374 . S
C1964 C1961 1.499 . S
C1964 C1965 1.373 . S
C1964 C1966 1.389 . S
C1965 H1944 0.950 . S
C1965 C1964 1.373 . S
C1965 C1981 1.377 . S
C1966 C1964 1.389 . S
C1966 C1967 1.524 . S
C1966 C1980 1.377 . S
C1967 C1966 1.524 . S
C1967 C1968 1.397 . S
C1967 C1972 1.363 . S
C1968 H1945 0.950 . S
C1968 C1967 1.397 . S
C1968 C1969 1.334 . S
C1969 H1946 0.950 1_556 S
C1969 C1968 1.334 . S
C1969 C1970 1.287 . S
C1970 C1969 1.287 . S
C1970 C1971 1.524 . S
C1970 H1989 0.913 1_556 S
C1971 H1947 0.950 . S
C1971 C1970 1.524 . S
C1971 C1972 1.415 . S
C1972 H1948 0.950 . S
C1972 C1967 1.363 . S
C1972 C1971 1.415 . S
C1973 H1949 0.951 1_565 S
C1973 C1974 1.366 . S
C1973 C1975 1.388 . S
C1974 C1973 1.366 . S
C1974 C1978 1.385 . S
C1975 H1950 0.951 . S
C1975 C1973 1.388 . S
C1975 C1976 1.366 . S
C1976 C1975 1.366 . S
C1976 C1977 1.414 . S
C1976 C1979 1.499 . S
C1977 H1951 0.950 . S
C1977 C1976 1.414 . S
C1977 C1978 1.374 . S
C1978 H1952 0.950 . S
C1978 C1974 1.385 . S
C1978 C1977 1.374 . S
C1979 C1976 1.499 . S
C1979 C1980 1.373 . S
C1979 C1981 1.389 . S
C1980 H1953 0.950 . S
C1980 C1966 1.377 . S
C1980 C1979 1.373 . S
C1981 C1965 1.377 . S
C1981 C1979 1.389 . S
C1981 C1982 1.524 . S
C1982 C1981 1.524 . S
C1982 C1983 1.397 . S
C1982 C1987 1.363 . S
C1983 H1954 0.950 . S
C1983 C1982 1.397 . S
C1983 C1984 1.334 . S
C1984 H1955 0.950 . S
C1984 C1983 1.334 . S
C1984 C1985 1.287 . S
C1985 C1984 1.287 . S
C1985 C1986 1.524 . S
C1985 H1988 0.999 . S
C1986 H1956 0.941 1_565 S
C1986 C1985 1.524 . S
C1986 C1987 1.415 . S
C1987 H1957 0.950 . S
C1987 C1982 1.363 . S
C1987 C1986 1.415 . S
H1988 C1985 0.999 . S
H1989 C1970 0.913 1_554 S
H1990 C2008 0.951 . S
H1991 C2010 0.951 . S
H1992 C2012 0.950 . S
H1993 C2013 0.950 . S
H1994 C2015 0.950 . S
H1995 C2018 0.950 . S
H1996 C2019 0.950 1_565 S
H1997 C2021 0.950 . S
H1998 C2022 0.950 . S
H1999 C2023 0.951 . S
H2000 C2025 0.951 1_655 S
H2001 C2027 0.950 1_655 S
H2002 C2028 0.950 . S
H2003 C2030 0.950 . S
H2004 C2033 0.950 . S
H2005 C2034 0.950 . S
H2006 C2036 0.950 . S
H2007 C2037 0.950 . S
C2008 H1990 0.951 . S
C2008 C2009 1.366 . S
C2008 C2010 1.388 . S
C2009 C2008 1.366 . S
C2009 C2013 1.385 . S
C2010 H1991 0.951 . S
C2010 C2008 1.388 . S
C2010 C2011 1.366 . S
C2011 C2010 1.366 . S
C2011 C2012 1.414 . S
C2011 C2014 1.499 . S
C2012 H1992 0.950 . S
C2012 C2011 1.414 . S
C2012 C2013 1.374 . S
C2013 H1993 0.950 . S
C2013 C2009 1.385 . S
C2013 C2012 1.374 . S
C2014 C2011 1.499 . S
C2014 C2015 1.373 . S
C2014 C2016 1.389 . S
C2015 H1994 0.950 . S
C2015 C2014 1.373 . S
C2015 C2031 1.377 . S
C2016 C2014 1.389 . S
C2016 C2017 1.524 . S
C2016 C2030 1.377 . S
C2017 C2016 1.524 . S
C2017 C2018 1.397 . S
C2017 C2022 1.363 . S
C2018 H1995 0.950 . S
C2018 C2017 1.397 . S
C2018 C2019 1.334 . S
C2019 H1996 0.950 1_545 S
C2019 C2018 1.334 . S
C2019 C2020 1.287 . S
C2020 C2019 1.287 . S
C2020 C2021 1.524 . S
C2020 H2039 0.913 . S
C2021 H1997 0.950 . S
C2021 C2020 1.524 . S
C2021 C2022 1.415 . S
C2022 H1998 0.950 . S
C2022 C2017 1.363 . S
C2022 C2021 1.415 . S
C2023 H1999 0.951 . S
C2023 C2024 1.366 . S
C2023 C2025 1.388 . S
C2024 C2023 1.366 . S
C2024 C2028 1.385 . S
C2025 H2000 0.951 1_455 S
C2025 C2023 1.388 . S
C2025 C2026 1.366 1_455 S
C2026 C2025 1.366 1_655 S
C2026 C2027 1.414 1_655 S
C2026 C2029 1.499 . S
C2027 H2001 0.950 1_455 S
C2027 C2026 1.414 1_455 S
C2027 C2028 1.374 . S
C2028 H2002 0.950 . S
C2028 C2024 1.385 . S
C2028 C2027 1.374 . S
C2029 C2026 1.499 . S
C2029 C2030 1.373 . S
C2029 C2031 1.389 . S
C2030 H2003 0.950 . S
C2030 C2016 1.377 . S
C2030 C2029 1.373 . S
C2031 C2015 1.377 . S
C2031 C2029 1.389 . S
C2031 C2032 1.524 . S
C2032 C2031 1.524 . S
C2032 C2033 1.397 . S
C2032 C2037 1.363 . S
C2033 H2004 0.950 . S
C2033 C2032 1.397 . S
C2033 C2034 1.334 . S
C2034 H2005 0.950 . S
C2034 C2033 1.334 . S
C2034 C2035 1.287 . S
C2035 C2034 1.287 . S
C2035 C2036 1.524 . S
C2035 H2038 0.999 . S
C2036 H2006 0.950 . S
C2036 C2035 1.524 . S
C2036 C2037 1.415 . S
C2037 H2007 0.950 . S
C2037 C2032 1.363 . S
C2037 C2036 1.415 . S
H2038 C2035 0.999 . S
H2039 C2020 0.913 . S
C259 C2 0.936 . S
C274 C222 0.942 . S
C309 C199 1.263 . S
C324 C22 1.202 . S
C359 C42 1.409 . S
C374 C179 1.506 . S
C409 C79 1.827 . S
C424 C219 1.842 . S
C459 C99 1.449 . S
C474 C202 1.345 . S
C509 C119 1.704 1_455 S
C524 C239 1.689 . S
C559 C182 1.342 . S
C574 C139 1.456 . S
C609 C159 1.186 . S
C624 C162 1.116 . S
C659 C62 0.944 . S
C674 C82 0.933 . S
C709 C19 1.434 . S
C724 C102 1.352 1_455 S
C759 C39 1.483 . S
C774 C122 1.380 . S
C809 C142 1.349 . S
C824 C59 1.461 1_554 S
C859 C9 1.651 . S
C874 C178 1.712 . S
C909 C29 1.611 . S
C924 C218 1.656 . S
C959 C224 1.223 . S
C974 C49 1.227 . S
C1009 C72 1.311 . S
C1024 C198 1.379 . S
C1059 C92 0.914 . S
C1074 C184 0.934 . S
C1109 C164 1.261 . S
C1124 C112 1.228 . S
C1159 C204 1.680 . S
C1174 C132 1.647 . S
C1209 C238 1.453 . S
C1224 C152 1.365 . S
C1259 C18 1.515 . S
C1274 C69 1.475 . S
C1309 C12 1.572 . S
C1324 C38 1.646 . S
C1359 C32 1.641 . S
C1374 C58 1.701 . S
C1409 C64 1.642 . S
C1424 C52 1.622 . S
C1459 C109 0.935 . S
C1474 C84 0.950 . S
C1509 C104 1.268 . S
C1524 C129 1.257 . S
C1559 C124 0.735 . S
C1574 C149 0.732 . S
C1609 C89 0.968 . S
C1624 C144 0.979 . S
C1659 C169 1.430 . S
C1674 C78 1.473 . S
C1709 C118 1.574 . S
C1724 C192 1.490 . S
C1759 C172 1.419 . S
C1774 C138 1.487 . S
C1809 C212 1.506 . S
C1824 C158 1.606 . S
C1859 C98 1.010 . S
C1874 C229 0.977 . S
C1909 C232 1.093 . S
C1924 C24 1.090 . S
C1959 C44 0.921 . S
C1974 C189 0.940 . S
C2009 C209 1.369 . S
C2024 C4 1.347 . S
