# Generated by pormake.
# Topology wje, (4)-cn, num edge types: 1
# Building blocks:
#     Node 0, Type 0, BuildingBlock: TATPOV_clean_sbu_0, # of connection points: 4
#     Node 1, Type 0, BuildingBlock: TATPOV_clean_sbu_0, # of connection points: 4
#     Node 2, Type 0, BuildingBlock: TATPOV_clean_sbu_0, # of connection points: 4
#     Node 3, Type 0, BuildingBlock: TATPOV_clean_sbu_0, # of connection points: 4
#     Node 4, Type 0, BuildingBlock: TATPOV_clean_sbu_0, # of connection points: 4
#     Node 5, Type 0, BuildingBlock: TATPOV_clean_sbu_0, # of connection points: 4
#     Node 6, Type 0, BuildingBlock: TATPOV_clean_sbu_0, # of connection points: 4
#     Node 7, Type 0, BuildingBlock: TATPOV_clean_sbu_0, # of connection points: 4
#     Node 8, Type 0, BuildingBlock: TATPOV_clean_sbu_0, # of connection points: 4
#     Node 9, Type 0, BuildingBlock: TATPOV_clean_sbu_0, # of connection points: 4
#     Node 10, Type 0, BuildingBlock: TATPOV_clean_sbu_0, # of connection points: 4
#     Node 11, Type 0, BuildingBlock: TATPOV_clean_sbu_0, # of connection points: 4
#     Edge 12, Type (0, 0), BuildingBlock: ZUJKAS_clean_linker_0, # of connection points: 2
#     Edge 13, Type (0, 0), BuildingBlock: ZUJKAS_clean_linker_0, # of connection points: 2
#     Edge 14, Type (0, 0), BuildingBlock: ZUJKAS_clean_linker_0, # of connection points: 2
#     Edge 15, Type (0, 0), BuildingBlock: ZUJKAS_clean_linker_0, # of connection points: 2
#     Edge 16, Type (0, 0), BuildingBlock: ZUJKAS_clean_linker_0, # of connection points: 2
#     Edge 17, Type (0, 0), BuildingBlock: ZUJKAS_clean_linker_0, # of connection points: 2
#     Edge 18, Type (0, 0), BuildingBlock: ZUJKAS_clean_linker_0, # of connection points: 2
#     Edge 19, Type (0, 0), BuildingBlock: ZUJKAS_clean_linker_0, # of connection points: 2
#     Edge 20, Type (0, 0), BuildingBlock: ZUJKAS_clean_linker_0, # of connection points: 2
#     Edge 21, Type (0, 0), BuildingBlock: ZUJKAS_clean_linker_0, # of connection points: 2
#     Edge 22, Type (0, 0), BuildingBlock: ZUJKAS_clean_linker_0, # of connection points: 2
#     Edge 23, Type (0, 0), BuildingBlock: ZUJKAS_clean_linker_0, # of connection points: 2
#     Edge 24, Type (0, 0), BuildingBlock: ZUJKAS_clean_linker_0, # of connection points: 2
#     Edge 25, Type (0, 0), BuildingBlock: ZUJKAS_clean_linker_0, # of connection points: 2
#     Edge 26, Type (0, 0), BuildingBlock: ZUJKAS_clean_linker_0, # of connection points: 2
#     Edge 27, Type (0, 0), BuildingBlock: ZUJKAS_clean_linker_0, # of connection points: 2
#     Edge 28, Type (0, 0), BuildingBlock: ZUJKAS_clean_linker_0, # of connection points: 2
#     Edge 29, Type (0, 0), BuildingBlock: ZUJKAS_clean_linker_0, # of connection points: 2
#     Edge 30, Type (0, 0), BuildingBlock: ZUJKAS_clean_linker_0, # of connection points: 2
#     Edge 31, Type (0, 0), BuildingBlock: ZUJKAS_clean_linker_0, # of connection points: 2
#     Edge 32, Type (0, 0), BuildingBlock: ZUJKAS_clean_linker_0, # of connection points: 2
#     Edge 33, Type (0, 0), BuildingBlock: ZUJKAS_clean_linker_0, # of connection points: 2
#     Edge 34, Type (0, 0), BuildingBlock: ZUJKAS_clean_linker_0, # of connection points: 2
#     Edge 35, Type (0, 0), BuildingBlock: ZUJKAS_clean_linker_0, # of connection points: 2
# Relax obj value: 0.115
# Max RMSD: 0.100
# Mean RMSD: 0.100
data_MOF--net-wje--node1-TATPOV_clean_sbu_0--edge1-ZUJKAS_clean_linker_0
_symmetry_space_group_name_H-M    P1
_symmetry_Int_Tables_number       1
_symmetry_cell_setting            triclinic
loop_
_symmetry_equiv_pos_as_xyz
'x, y, z'
_cell_length_a     56.125605
_cell_length_b     56.119936
_cell_length_c     43.169848
_cell_angle_alpha  89.823701
_cell_angle_beta   90.093255
_cell_angle_gamma 119.94208
loop_
_atom_site_label
_atom_site_type_symbol
_atom_site_fract_x
_atom_site_fract_y
_atom_site_fract_z
_atom_type_partial_charge
Zn0 Zn 0.30019 0.94686 0.2832 0.0
Zn1 Zn 0.30947 -0.00603 0.26576 0.0
O2 O 0.26722 0.96523 0.2615 0.0
O3 O 0.26363 0.92448 0.26316 0.0
O4 O 0.31406 0.02854 0.24398 0.0
O5 O 0.3334 0.94858 0.26508 0.0
O6 O 0.34136 0.98853 0.24697 0.0
C7 C 0.25248 0.93907 0.25978 0.0
C8 C 0.30933 0.98535 0.33345 0.0
O9 O 0.31592 0.0032 0.312 0.0
O10 O 0.30107 0.96041 0.32701 0.0
C11 C 0.29671 0.03667 0.24747 0.0
O12 O 0.27567 0.02275 0.26605 0.0
C13 C 0.34833 0.97006 0.24953 0.0
Zn14 Zn 0.35412 0.31115 0.60699 0.0
Zn15 Zn 0.31264 0.31518 0.59397 0.0
O16 O 0.30329 0.27402 0.58868 0.0
O17 O 0.34208 0.27358 0.59168 0.0
O18 O 0.28028 0.31534 0.57187 0.0
O19 O 0.38275 0.34361 0.5848 0.0
O20 O 0.34813 0.35057 0.57595 0.0
C21 C 0.31632 0.26072 0.58813 0.0
C22 C 0.32527 0.31748 0.6607 0.0
O23 O 0.30945 0.31934 0.64077 0.0
O24 O 0.34512 0.31445 0.65173 0.0
C25 C 0.2636 0.32205 0.5835 0.0
O26 O 0.26676 0.33008 0.61251 0.0
C27 C 0.37383 0.35857 0.5739 0.0
Zn28 Zn 0.02044 0.35295 0.95549 0.0
Zn29 Zn 0.98028 0.31019 0.93278 0.0
O30 O 0.0135 0.30265 0.9305 0.0
O31 O 0.04739 0.34039 0.95055 0.0
O32 O 0.94934 0.27837 0.90822 0.0
O33 O 0.02158 0.38072 0.9268 0.0
O34 O 0.98211 0.34569 0.912 0.0
C35 C 0.03858 0.31672 0.93924 0.0
C36 C 0.97847 0.32241 0.00055 0.0
O37 O 0.96785 0.30502 0.97861 0.0
O38 O -4e-05 0.34535 -0.00414 0.0
C39 C 0.93174 0.25519 0.91964 0.0
O40 O 0.93302 0.25063 0.9493 0.0
C41 C -0.00014 0.37143 0.91097 0.0
Zn42 Zn 0.66092 0.0367 0.2834 0.0
Zn43 Zn 0.66005 -0.00678 0.26485 0.0
O44 O 0.70105 0.02481 0.25915 0.0
O45 O 0.70011 0.06196 0.2731 0.0
O46 O 0.65832 0.95996 0.24316 0.0
O47 O 0.63149 0.03516 0.25691 0.0
O48 O 0.62574 -0.00551 0.24546 0.0
C49 C 0.71355 0.05074 0.26401 0.0
C50 C 0.65214 -0.00179 0.33286 0.0
O51 O 0.65535 0.98442 0.3115 0.0
O52 O 0.65209 0.02023 0.32643 0.0
C53 C 0.66773 0.9453 0.25443 0.0
O54 O 0.67945 0.95152 0.28185 0.0
C55 C 0.61777 0.01223 0.24362 0.0
Zn56 Zn 0.61283 0.66945 0.64971 0.0
Zn57 Zn 0.66974 0.66395 0.59892 0.0
O58 O 0.68296 0.70608 0.59551 0.0
O59 O 0.647 0.68845 0.62362 0.0
O60 O 0.69323 0.65625 0.56867 0.0
O61 O 0.59155 0.63813 0.6193 0.0
O62 O 0.62558 0.63642 0.59275 0.0
C63 C 0.66701 0.71 0.61266 0.0
C64 C 0.6653 0.66178 0.66149 0.0
O65 O 0.68124 0.65903 0.64304 0.0
O66 O 0.64657 0.66491 0.64933 0.0
C67 C 0.71895 0.67342 0.56986 0.0
O68 O 0.72768 0.69391 0.58954 0.0
C69 C 0.59975 0.62742 0.59859 0.0
Zn70 Zn 0.94012 0.62693 0.94223 0.0
Zn71 Zn -0.01387 0.66475 0.92674 0.0
O72 O 0.95596 0.67629 0.92009 0.0
O73 O 0.91664 0.63763 0.91839 0.0
O74 O 0.02035 0.69534 0.90493 0.0
O75 O 0.94345 0.59537 0.92827 0.0
O76 O 0.9827 0.62767 0.90929 0.0
C77 C 0.92991 0.66348 0.91599 0.0
C78 C 0.97508 0.65789 0.99409 0.0
O79 O -0.00601 0.66841 0.97364 0.0
O80 O 0.95057 0.64103 0.98612 0.0
C81 C 0.03317 0.72013 0.91442 0.0
O82 O 0.02463 0.72645 0.93977 0.0
C83 C 0.96504 0.60212 0.91295 0.0
Zn84 Zn 0.03503 0.67392 0.37974 0.0
Zn85 Zn -0.01333 0.66335 0.38982 0.0
O86 O 0.01368 0.70573 0.39609 0.0
O87 O 0.05517 0.71125 0.39833 0.0
O88 O 0.95011 0.65707 0.40757 0.0
O89 O 0.03418 0.64227 0.40057 0.0
O90 O -0.00855 0.63122 0.41001 0.0
C91 C 0.03957 0.72142 0.39958 0.0
C92 C 0.00157 0.66369 0.32384 0.0
O93 O 0.98205 0.65847 0.34268 0.0
O94 O 0.02538 0.67079 0.3341 0.0
C95 C 0.9407 0.67307 0.40148 0.0
O96 O 0.95448 0.69375 0.38236 0.0
C97 C 0.01094 0.62562 0.41181 0.0
Zn98 Zn 0.35076 0.0329 0.712 0.0
Zn99 Zn 0.30936 0.9881 0.72847 0.0
O100 O 0.29773 0.01848 0.73131 0.0
O101 O 0.33568 0.05727 0.7213 0.0
O102 O 0.27793 0.95433 0.75003 0.0
O103 O 0.37905 0.0331 0.73907 0.0
O104 O 0.34539 -0.00858 0.74954 0.0
C105 C 0.31035 0.0446 0.72771 0.0
C106 C 0.32479 -0.00595 0.66151 0.0
O107 O 0.30752 0.97895 0.68213 0.0
O108 O 0.34524 0.01705 0.66884 0.0
C109 C 0.2533 0.9413 0.73996 0.0
O110 O 0.24733 0.94945 0.71399 0.0
C111 C 0.37069 0.01017 0.75218 0.0
Zn112 Zn 0.31251 0.35738 0.03639 0.0
Zn113 Zn 0.31595 0.31656 0.05672 0.0
O114 O 0.27481 0.30629 0.06305 0.0
O115 O 0.274 0.34371 0.0497 0.0
O116 O 0.31882 0.28586 0.07926 0.0
O117 O 0.34323 0.38693 0.05935 0.0
O118 O 0.34999 0.35335 0.07445 0.0
C119 C 0.26153 0.3191 0.05913 0.0
C120 C 0.32084 0.32671 0.98803 0.0
O121 O 0.31982 0.31114 0.01017 0.0
O122 O 0.31922 0.34802 0.99342 0.0
C123 C 0.30079 0.26057 0.07605 0.0
O124 O 0.27999 0.25401 0.05726 0.0
C125 C 0.35764 0.37904 0.07376 0.0
Zn126 Zn 0.94355 0.30945 0.38639 0.0
Zn127 Zn -0.00991 0.31529 0.39435 0.0
O128 O 0.96033 0.27319 0.39859 0.0
O129 O 0.92027 0.27106 0.40058 0.0
O130 O 0.02476 0.31808 0.41389 0.0
O131 O 0.94569 0.33992 0.41103 0.0
O132 O -0.0116 0.34894 0.41493 0.0
C133 C 0.93413 0.25897 0.40089 0.0
C134 C 0.97665 0.31971 0.3295 0.0
O135 O -0.00446 0.32141 0.34743 0.0
O136 O 0.95394 0.31533 0.3408 0.0
C137 C 0.03827 0.30706 0.40366 0.0
O138 O 0.03045 0.29311 0.37766 0.0
C139 C 0.97001 0.35564 0.42002 0.0
Zn140 Zn 0.61851 0.94436 0.71272 0.0
Zn141 Zn 0.65984 0.98939 0.72848 0.0
O142 O 0.66999 0.95823 0.73484 0.0
O143 O 0.63135 0.91941 0.72785 0.0
O144 O 0.69178 0.02276 0.74991 0.0
O145 O 0.58969 0.94708 0.73541 0.0
O146 O 0.62404 0.98767 0.74814 0.0
C147 C 0.65668 0.93194 0.73418 0.0
C148 C 0.64682 0.98077 0.66073 0.0
O149 O 0.66267 -0.0027 0.68144 0.0
O150 O 0.6268 0.95761 0.66854 0.0
C151 C 0.71392 0.04078 0.73691 0.0
O152 O 0.71712 0.03886 0.70705 0.0
C153 C 0.5983 0.96984 0.74888 0.0
Zn154 Zn 0.66377 0.61567 0.01419 0.0
Zn155 Zn 0.65789 0.67543 0.05362 0.0
O156 O 0.69958 0.68959 0.05696 0.0
O157 O 0.69112 0.65229 0.03251 0.0
O158 O 0.65044 0.7009 0.08092 0.0
O159 O 0.63415 0.59662 0.04603 0.0
O160 O 0.63146 0.63261 0.06554 0.0
C161 C 0.70829 0.67517 0.04392 0.0
C162 C 0.6567 0.66609 0.9926 0.0
O163 O 0.65297 0.68311 0.00797 0.0
O164 O 0.65945 0.64868 0.00833 0.0
C165 C 0.6637 0.72646 0.07423 0.0
O166 O 0.68036 0.73441 0.05027 0.0
C167 C 0.62325 0.60658 0.06406 0.0
H168 H 0.26173 0.05739 0.24807 0.0
H169 H 0.26543 0.09647 0.21896 0.0
H170 H 0.34195 0.11087 0.17925 0.0
H171 H 0.33816 0.07136 0.20796 0.0
H172 H 0.30453 0.15102 0.2197 0.0
H173 H 0.29833 0.1077 0.10259 0.0
H174 H 0.2903 0.08718 0.13735 0.0
H175 H 0.32552 0.10966 0.12638 0.0
C176 C 0.27937 0.06879 0.23314 0.0
C177 C 0.29957 0.06104 0.23027 0.0
C178 C 0.28147 0.09122 0.21651 0.0
C179 C 0.30375 0.10645 0.1965 0.0
C180 C 0.32425 0.09912 0.19399 0.0
H181 H 0.34069 0.26631 0.11746 0.0
H182 H 0.34301 0.22999 0.14668 0.0
C183 C 0.32213 0.07659 0.21059 0.0
C184 C 0.30536 0.12997 0.17848 0.0
H185 H 0.30671 0.15336 0.10486 0.0
C186 C 0.3051 0.15157 0.19459 0.0
C187 C 0.30577 0.13059 0.14567 0.0
C188 C 0.30474 0.10746 0.1269 0.0
C189 C 0.3052 0.17365 0.17888 0.0
C190 C 0.30602 0.17447 0.14609 0.0
C191 C 0.30633 0.1529 0.12998 0.0
C192 C 0.30519 0.19676 0.12799 0.0
C193 C 0.30354 0.19546 0.19756 0.0
C194 C 0.2836 0.19023 0.10711 0.0
C195 C 0.28231 0.21091 0.09023 0.0
C196 C 0.30269 0.2387 0.09369 0.0
C197 C 0.32456 0.24519 0.11431 0.0
C198 C 0.32583 0.22443 0.1312 0.0
H199 H 0.29635 0.18844 0.22159 0.0
H200 H 0.32427 0.214 0.1989 0.0
H201 H 0.28943 0.20145 0.18647 0.0
H202 H 0.26747 0.16907 0.10411 0.0
H203 H 0.2652 0.20507 0.07456 0.0
H204 H 0.24973 0.30459 0.52334 0.0
H205 H 0.21204 0.30248 0.49247 0.0
H206 H 0.18757 0.33375 0.56982 0.0
H207 H 0.22523 0.33612 0.60077 0.0
H208 H 0.15473 0.27314 0.50448 0.0
H209 H 0.19411 0.38552 0.49871 0.0
H210 H 0.21543 0.37131 0.51016 0.0
H211 H 0.19155 0.37218 0.53719 0.0
C212 C 0.23642 0.31114 0.53379 0.0
C213 C 0.2407 0.32069 0.56456 0.0
C214 C 0.21482 0.30987 0.51609 0.0
C215 C 0.19717 0.31834 0.52862 0.0
C216 C 0.20121 0.32761 0.5594 0.0
H217 H 0.05641 0.32915 0.46143 0.0
H218 H 0.09446 0.33107 0.49123 0.0
C219 C 0.22273 0.32882 0.57714 0.0
C220 C 0.17425 0.31703 0.50972 0.0
H221 H 0.14898 0.35651 0.47983 0.0
C222 C 0.15354 0.29138 0.49894 0.0
C223 C 0.1726 0.34081 0.50257 0.0
C224 C 0.19471 0.36907 0.51249 0.0
C225 C 0.13095 0.28876 0.48184 0.0
C226 C 0.12931 0.31257 0.47461 0.0
C227 C 0.15013 0.33823 0.48532 0.0
C228 C 0.10613 0.31133 0.45618 0.0
C229 C 0.10867 0.26037 0.47253 0.0
C230 C 0.10015 0.30001 0.42625 0.0
C231 C 0.07825 0.29873 0.4092 0.0
C232 C 0.062 0.30908 0.42148 0.0
C233 C 0.06841 0.32095 0.45119 0.0
C234 C 0.09021 0.32206 0.4683 0.0
H235 H 0.10884 0.2442 0.48729 0.0
H236 H 0.08802 0.25842 0.47406 0.0
H237 H 0.11212 0.25645 0.44823 0.0
H238 H 0.11252 0.29227 0.41594 0.0
H239 H 0.07411 0.28966 0.38632 0.0
H240 H 0.76153 0.08502 0.71557 0.0
H241 H 0.79864 0.1216 0.74587 0.0
H242 H 0.75442 0.08442 0.83014 0.0
H243 H 0.71706 0.04781 0.80007 0.0
H244 H 0.79314 0.15863 0.79275 0.0
H245 H 0.83422 0.09416 0.84061 0.0
H246 H 0.81394 0.08521 0.80557 0.0
H247 H 0.79759 0.08022 0.84257 0.0
C248 C 0.75961 0.08458 0.74055 0.0
C249 C 0.73625 0.06335 0.75533 0.0
C250 C 0.78088 0.10556 0.75783 0.0
C251 C 0.77944 0.10563 0.79028 0.0
C252 C 0.7561 0.08463 0.80514 0.0
H253 H 0.88885 0.2054 0.93792 0.0
H254 H 0.85239 0.17016 0.90597 0.0
C255 C 0.7347 0.06375 0.78787 0.0
C256 C 0.80227 0.12771 0.8086 0.0
H257 H 0.85397 0.13961 0.85918 0.0
C258 C 0.80653 0.15455 0.8072 0.0
C259 C 0.81965 0.12231 0.82749 0.0
C260 C 0.8164 0.09399 0.82917 0.0
C261 C 0.82731 0.17603 0.82476 0.0
C262 C 0.84486 0.1707 0.84362 0.0
C263 C 0.84062 0.14381 0.84478 0.0
C264 C 0.86732 0.19251 0.86285 0.0
C265 C 0.82963 0.20398 0.82365 0.0
C266 C 0.88826 0.21684 0.84936 0.0
C267 C 0.90913 0.23721 0.86769 0.0
C268 C 0.90976 0.2336 0.89991 0.0
C269 C 0.88905 0.209 0.91324 0.0
C270 C 0.86814 0.18874 0.89494 0.0
H271 H 0.81022 0.20271 0.81556 0.0
H272 H 0.83486 0.21394 0.84677 0.0
H273 H 0.84614 0.21731 0.80718 0.0
H274 H 0.88861 0.22002 0.82458 0.0
H275 H 0.92484 0.25574 0.85656 0.0
H276 H 0.68869 0.78176 0.06395 0.0
H277 H 0.6874 0.81679 0.09599 0.0
H278 H 0.63317 0.75435 0.16031 0.0
H279 H 0.63407 0.71882 0.12799 0.0
H280 H 0.61735 0.79362 0.14707 0.0
H281 H 0.72774 0.84457 0.17835 0.0
H282 H 0.72184 0.84115 0.13731 0.0
H283 H 0.70981 0.81086 0.161 0.0
C284 C 0.67642 0.77533 0.08488 0.0
C285 C 0.66166 0.74739 0.09347 0.0
C286 C 0.67585 0.7955 0.1033 0.0
C287 C 0.66066 0.78835 0.13092 0.0
C288 C 0.64523 0.76041 0.13922 0.0
H289 H 0.68378 0.9087 0.27302 0.0
H290 H 0.68057 0.86976 0.24421 0.0
C291 C 0.64578 0.74011 0.12072 0.0
C292 C 0.66104 0.81016 0.15095 0.0
H293 H 0.70438 0.86908 0.19008 0.0
C294 C 0.63634 0.81002 0.15665 0.0
C295 C 0.68576 0.83141 0.16384 0.0
C296 C 0.71276 0.83195 0.16011 0.0
C297 C 0.63582 0.83093 0.17412 0.0
C298 C 0.66074 0.85284 0.18586 0.0
C299 C 0.6853 0.85252 0.18084 0.0
C300 C 0.66186 0.8762 0.20356 0.0
C301 C 0.6085 0.82913 0.18018 0.0
C302 C 0.65268 0.8931 0.1903 0.0
C303 C 0.6544 0.9154 0.2068 0.0
C304 C 0.66561 0.92149 0.23687 0.0
C305 C 0.67499 0.90465 0.24997 0.0
C306 C 0.67318 0.88234 0.2335 0.0
H307 H 0.59115 0.80775 0.17755 0.0
H308 H 0.60775 0.83645 0.20383 0.0
H309 H 0.60547 0.84226 0.1632 0.0
H310 H 0.64449 0.88928 0.16697 0.0
H311 H 0.64716 0.928 0.19586 0.0
H312 H 0.91636 0.70457 0.39439 0.0
H313 H 0.87627 0.70034 0.42157 0.0
H314 H 0.86694 0.62898 0.47023 0.0
H315 H 0.9074 0.63332 0.44346 0.0
H316 H 0.82201 0.65879 0.42441 0.0
H317 H 0.87037 0.67859 0.54082 0.0
H318 H 0.8898 0.68449 0.50559 0.0
H319 H 0.86939 0.65019 0.52061 0.0
C320 C 0.9058 0.68791 0.41082 0.0
C321 C 0.91533 0.66942 0.41688 0.0
C322 C 0.88278 0.68549 0.42631 0.0
C323 C 0.86875 0.6646 0.44834 0.0
C324 C 0.87771 0.64561 0.45382 0.0
H325 H 0.7105 0.63062 0.53135 0.0
H326 H 0.74522 0.62628 0.50115 0.0
C327 C 0.90079 0.64804 0.43835 0.0
C328 C 0.8452 0.66324 0.46589 0.0
H329 H 0.82411 0.66796 0.53873 0.0
C330 C 0.82239 0.66066 0.44943 0.0
C331 C 0.8458 0.666 0.49852 0.0
C332 C 0.87022 0.67023 0.51748 0.0
C333 C 0.80034 0.66097 0.46463 0.0
C334 C 0.80086 0.6635 0.4973 0.0
C335 C 0.82356 0.6658 0.51374 0.0
C336 C 0.77919 0.66583 0.51482 0.0
C337 C 0.77718 0.65959 0.44548 0.0
C338 C 0.78665 0.68924 0.53294 0.0
C339 C 0.76699 0.69163 0.55036 0.0
C340 C 0.73923 0.67065 0.5502 0.0
C341 C 0.73164 0.64723 0.53187 0.0
C342 C 0.75147 0.64479 0.51446 0.0
H343 H 0.7829 0.66412 0.42065 0.0
H344 H 0.7591 0.63857 0.44709 0.0
H345 H 0.771 0.67431 0.45417 0.0
H346 H 0.80783 0.70577 0.53365 0.0
H347 H 0.77367 0.71001 0.56409 0.0
H348 H 0.19911 0.90874 0.72409 0.0
H349 H 0.16276 0.87064 0.75342 0.0
H350 H 0.22088 0.88194 0.82528 0.0
H351 H 0.25757 0.91993 0.79582 0.0
H352 H 0.18657 0.82693 0.81081 0.0
H353 H 0.12522 0.87816 0.83034 0.0
H354 H 0.13234 0.876 0.79025 0.0
H355 H 0.16016 0.89645 0.81632 0.0
C356 C 0.20425 0.90319 0.74614 0.0
C357 C 0.23133 0.91763 0.75763 0.0
C358 C 0.18334 0.88143 0.76299 0.0
C359 C 0.18888 0.87366 0.79189 0.0
C360 C 0.21601 0.88762 0.80314 0.0
H361 H 0.06619 0.77417 0.93025 0.0
H362 H 0.10437 0.81037 0.90093 0.0
C363 C 0.23698 0.9094 0.78627 0.0
C364 C 0.16642 0.85102 0.81031 0.0
H365 H 0.10421 0.83102 0.84434 0.0
C366 C 0.16859 0.82785 0.8182 0.0
C367 C 0.14306 0.85229 0.82036 0.0
C368 C 0.14008 0.87716 0.81418 0.0
C369 C 0.14794 0.80585 0.83539 0.0
C370 C 0.12418 0.80676 0.84462 0.0
C371 C 0.12223 0.83011 0.83708 0.0
C372 C 0.1014 0.78413 0.86276 0.0
C373 C 0.15207 0.7821 0.84407 0.0
C374 C 0.08676 0.75716 0.85116 0.0
C375 C 0.06488 0.73627 0.86802 0.0
C376 C 0.05696 0.74193 0.89676 0.0
C377 C 0.07165 0.76897 0.90826 0.0
C378 C 0.09353 0.78977 0.89146 0.0
H379 H 0.17408 0.78785 0.84277 0.0
H380 H 0.14445 0.77463 0.86786 0.0
H381 H 0.14042 0.76489 0.82771 0.0
H382 H 0.09193 0.75232 0.82879 0.0
H383 H 0.05395 0.71578 0.85831 0.0
H384 H 0.36553 0.93247 0.24753 0.0
H385 H 0.41127 0.94037 0.23565 0.0
H386 H 0.43749 0.02448 0.21134 0.0
H387 H 0.39157 0.01692 0.22404 0.0
H388 H 0.44542 0.95719 0.1851 0.0
H389 H 0.49041 0.03326 0.28056 0.0
H390 H 0.45381 0.01178 0.2754 0.0
H391 H 0.47294 0.0416 0.25133 0.0
C392 C 0.38086 0.95265 0.23936 0.0
C393 C 0.3749 0.97421 0.23721 0.0
C394 C 0.40707 0.95708 0.23246 0.0
C395 C 0.42805 0.98315 0.22322 0.0
C396 C 0.42179 0.00432 0.2191 0.0
H397 H 0.60434 0.04796 0.21745 0.0
H398 H 0.55829 0.04007 0.20656 0.0
C399 C 0.39546 -7e-05 0.22613 0.0
C400 C 0.45667 0.98825 0.22014 0.0
H401 H 0.52071 0.0244 0.25213 0.0
C402 C 0.46196 0.97204 0.19957 0.0
C403 C 0.47821 0.00739 0.23929 0.0
C404 C 0.47363 0.02435 0.2631 0.0
C405 C 0.48818 0.97455 0.19756 0.0
C406 C 0.5096 -0.00646 0.2169 0.0
C407 C 0.50436 0.00995 0.23714 0.0
C408 C 0.53757 -0.00337 0.21739 0.0
C409 C 0.49273 0.957 0.17463 0.0
C410 C 0.5415 0.9746 0.22593 0.0
C411 C 0.56803 0.97902 0.23182 0.0
C412 C 0.59098 0.00563 0.22974 0.0
C413 C 0.58707 0.02722 0.21931 0.0
C414 C 0.56072 0.02276 0.21316 0.0
H415 H 0.47719 0.94966 0.15577 0.0
H416 H 0.51356 0.96847 0.16421 0.0
H417 H 0.49086 0.93868 0.18677 0.0
H418 H 0.52398 0.95434 0.22994 0.0
H419 H 0.57034 0.96207 0.24022 0.0
H420 H 0.54537 0.6112 0.59364 0.0
H421 H 0.50788 0.5663 0.57846 0.0
H422 H 0.56628 0.54104 0.55336 0.0
H423 H 0.60428 0.58612 0.56934 0.0
H424 H 0.49164 0.53402 0.52613 0.0
H425 H 0.52065 0.48569 0.62045 0.0
H426 H 0.53563 0.52243 0.61688 0.0
H427 H 0.54711 0.50435 0.59231 0.0
C428 C 0.55042 0.59628 0.58453 0.0
C429 C 0.57793 0.60218 0.58324 0.0
C430 C 0.52884 0.57058 0.57572 0.0
C431 C 0.53414 0.55002 0.56543 0.0
C432 C 0.56165 0.5564 0.56189 0.0
H433 H 0.42395 0.37424 0.54917 0.0
H434 H 0.46197 0.42098 0.54181 0.0
C435 C 0.58339 0.58227 0.57075 0.0
C436 C 0.51072 0.52153 0.561 0.0
H437 H 0.4822 0.4564 0.5904 0.0
C438 C 0.48966 0.51697 0.54 0.0
C439 C 0.50788 0.49934 0.57943 0.0
C440 C 0.52884 0.50311 0.60375 0.0
C441 C 0.46604 0.49084 0.53677 0.0
C442 C 0.46323 0.46874 0.55529 0.0
C443 C 0.4844 0.47328 0.57604 0.0
C444 C 0.43858 0.44065 0.55411 0.0
C445 C 0.44442 0.48707 0.51344 0.0
C446 C 0.41232 0.43597 0.56239 0.0
C447 C 0.39028 0.40902 0.56634 0.0
C448 C 0.3943 0.3864 0.56249 0.0
C449 C 0.42016 0.39121 0.55241 0.0
C450 C 0.44199 0.41796 0.54826 0.0
H451 H 0.45278 0.50358 0.4956 0.0
H452 H 0.43581 0.46685 0.50171 0.0
H453 H 0.42738 0.4878 0.52555 0.0
H454 H 0.40923 0.4531 0.56757 0.0
H455 H 0.37073 0.40602 0.5745 0.0
H456 H 0.01286 0.60574 0.89042 0.0
H457 H 0.02027 0.56724 0.87737 0.0
H458 H 0.93517 0.50981 0.89757 0.0
H459 H 0.92754 0.54762 0.90992 0.0
H460 H 0.01358 0.52647 0.91767 0.0
H461 H 0.94455 0.47864 0.81756 0.0
H462 H 0.95476 0.51299 0.83055 0.0
H463 H 0.92705 0.48355 0.84945 0.0
C464 C -0.00436 0.58493 0.89136 0.0
C465 C 0.96963 0.57984 0.90122 0.0
C466 C -0.00011 0.56294 0.88398 0.0
C467 C 0.97814 0.53558 0.88596 0.0
C468 C 0.9521 0.53065 0.89501 0.0
H469 H 0.9513 0.37183 0.90761 0.0
H470 H 0.94664 0.41228 0.89631 0.0
C471 C 0.94787 0.55243 0.90238 0.0
C472 C 0.98287 0.51192 0.88183 0.0
H473 H 0.9572 0.44951 0.84605 0.0
C474 C 0.00166 0.5099 0.90157 0.0
C475 C 0.96707 0.49011 0.86105 0.0
C476 C 0.94743 0.49153 0.83825 0.0
C477 C 0.0042 0.48623 0.90216 0.0
C478 C -0.0121 0.46411 0.88192 0.0
C479 C 0.96962 0.4664 0.86158 0.0
C480 C -0.01089 0.43821 0.88257 0.0
C481 C 0.02342 0.48464 0.92553 0.0
C482 C 0.01399 0.43884 0.87675 0.0
C483 C 0.01669 0.41591 0.88334 0.0
C484 C -0.0056 0.3917 0.89529 0.0
C485 C 0.96872 0.39011 0.89812 0.0
C486 C 0.96612 0.41329 0.89189 0.0
H487 H 0.02922 0.50022 0.94412 0.0
H488 H 0.01392 0.46394 0.93641 0.0
H489 H 0.04255 0.48851 0.91365 0.0
H490 H 0.03181 0.4576 0.86883 0.0
H491 H 0.03671 0.41767 0.88086 0.0
H492 H 0.04802 0.60782 0.41332 0.0
H493 H 0.03984 0.56197 0.42447 0.0
H494 H 0.95584 0.53592 0.44889 0.0
H495 H 0.96358 0.58199 0.43628 0.0
H496 H 0.02546 0.52906 0.47293 0.0
H497 H 0.94389 0.48085 0.38334 0.0
H498 H 0.96468 0.51761 0.38743 0.0
H499 H 0.93637 0.49811 0.41338 0.0
C500 C 0.02776 0.59251 0.42127 0.0
C501 C 0.00632 0.59863 0.42347 0.0
C502 C 0.02316 0.56618 0.42774 0.0
C503 C -0.00293 0.54517 0.43685 0.0
C504 C 0.97597 0.55153 0.441 0.0
H505 H 0.9357 0.36923 0.44936 0.0
H506 H 0.94318 0.4153 0.45885 0.0
C507 C 0.98048 0.57797 0.43409 0.0
C508 C -0.00784 0.51659 0.4404 0.0
H509 H 0.95464 0.45154 0.41137 0.0
C510 C 0.00984 0.51207 0.4596 0.0
C511 C 0.97196 0.49437 0.42282 0.0
C512 C 0.9533 0.49793 0.40036 0.0
C513 C 0.00796 0.48614 0.46157 0.0
C514 C -0.01205 0.46408 0.44377 0.0
C515 C 0.96992 0.46843 0.42512 0.0
C516 C 0.98545 0.43638 0.44332 0.0
C517 C 0.02738 0.48258 0.48271 0.0
C518 C 0.00706 0.43275 0.43244 0.0
C519 C 0.0029 0.40624 0.42726 0.0
C520 C 0.97694 0.38298 0.43245 0.0
C521 C 0.95592 0.38671 0.44504 0.0
C522 C 0.96014 0.41307 0.45041 0.0
H523 H 0.036 0.49872 0.50087 0.0
H524 H 0.01694 0.46208 0.4941 0.0
H525 H 0.04478 0.48422 0.46885 0.0
H526 H 0.02664 0.45038 0.42626 0.0
H527 H 0.01937 0.40407 0.41717 0.0
H528 H 0.6035 0.02014 0.76348 0.0
H529 H 0.566 0.02904 0.77659 0.0
H530 H 0.50844 0.94185 0.77575 0.0
H531 H 0.54544 0.93289 0.76367 0.0
H532 H 0.52289 0.01652 0.73953 0.0
H533 H 0.4821 0.96308 0.85097 0.0
H534 H 0.51519 0.97048 0.83621 0.0
H535 H 0.48419 0.94062 0.82307 0.0
C536 C 0.583 0.00289 0.76709 0.0
C537 C 0.57752 0.97583 0.76246 0.0
C538 C 0.56154 0.00798 0.77442 0.0
C539 C 0.53434 0.98609 0.77758 0.0
C540 C 0.52921 0.95909 0.7743 0.0
H541 H 0.37028 0.96107 0.75721 0.0
H542 H 0.41035 0.95558 0.7679 0.0
C543 C 0.55049 0.95402 0.76706 0.0
C544 C 0.51078 -0.00881 0.78049 0.0
H545 H 0.45081 0.97115 0.82001 0.0
C546 C 0.50743 0.00702 0.75749 0.0
C547 C 0.49034 0.97855 0.80372 0.0
C548 C 0.49328 0.96247 0.83004 0.0
C549 C 0.48385 0.00969 0.75636 0.0
C550 C 0.46312 -0.00352 0.7791 0.0
C551 C 0.46663 0.98111 0.8025 0.0
C552 C 0.4377 -0.00148 0.77848 0.0
C553 C 0.48087 0.02589 0.73015 0.0
C554 C 0.43944 0.0241 0.7825 0.0
C555 C 0.41672 0.02726 0.77644 0.0
C556 C 0.39166 0.00483 0.76645 0.0
C557 C 0.38922 0.97867 0.76506 0.0
C558 C 0.41215 0.97556 0.77098 0.0
H559 H 0.49564 0.02973 0.71106 0.0
H560 H 0.45968 0.01494 0.72057 0.0
H561 H 0.48485 0.0461 0.739 0.0
H562 H 0.45881 0.04198 0.78877 0.0
H563 H 0.41922 0.04765 0.77794 0.0
H564 H 0.37539 0.43352 0.08042 0.0
H565 H 0.4218 0.47044 0.09073 0.0
H566 H 0.44802 0.41106 0.10633 0.0
H567 H 0.40129 0.37357 0.09479 0.0
H568 H 0.45807 0.48649 0.13759 0.0
H569 H 0.49813 0.45603 0.03647 0.0
H570 H 0.46186 0.44075 0.04417 0.0
H571 H 0.48237 0.43024 0.06603 0.0
C572 C 0.39085 0.42811 0.08637 0.0
C573 C 0.38462 0.40048 0.08626 0.0
C574 C 0.41748 0.44937 0.09238 0.0
C575 C 0.43864 0.44367 0.09859 0.0
C576 C 0.43217 0.41603 0.10078 0.0
H577 H 0.6145 0.5588 0.08975 0.0
H578 H 0.5703 0.51956 0.10459 0.0
C579 C 0.40539 0.39458 0.09452 0.0
C580 C 0.46748 0.46694 0.10047 0.0
H581 H 0.52942 0.49563 0.06329 0.0
C582 C 0.47377 0.48836 0.12156 0.0
C583 C 0.48796 0.46957 0.07935 0.0
C584 C 0.4823 0.4481 0.05503 0.0
C585 C 0.49978 0.51235 0.1219 0.0
C586 C 0.51999 0.51515 0.10039 0.0
C587 C 0.51395 0.49345 0.07988 0.0
C588 C 0.54727 0.54063 0.09764 0.0
C589 C 0.50533 0.53445 0.14527 0.0
C590 C 0.54933 0.56599 0.08997 0.0
C591 C 0.5748 0.58871 0.08192 0.0
C592 C 0.59845 0.5862 0.08091 0.0
C593 C 0.59659 0.56134 0.09043 0.0
C594 C 0.57131 0.53884 0.09877 0.0
H595 H 0.49145 0.526 0.16561 0.0
H596 H 0.52697 0.54468 0.15345 0.0
H597 H 0.50165 0.55023 0.13429 0.0
H598 H 0.53103 0.56777 0.08826 0.0
H599 H 0.57556 0.60744 0.0741 0.0
H600 H 0.02202 0.74879 0.36232 0.0
H601 H 0.05236 0.79322 0.33784 0.0
H602 H 0.11717 0.80642 0.40133 0.0
H603 H 0.08733 0.76148 0.42496 0.0
H604 H 0.08929 0.8499 0.34935 0.0
H605 H 0.14324 0.79334 0.31784 0.0
H606 H 0.11013 0.77688 0.33655 0.0
H607 H 0.14099 0.79658 0.3589 0.0
C608 C 0.0423 0.76172 0.37206 0.0
C609 C 0.05247 0.7515 0.39526 0.0
C610 C 0.0597 0.7871 0.35787 0.0
C611 C 0.0873 0.80269 0.36709 0.0
C612 C 0.09613 0.79437 0.39335 0.0
H613 H 0.22428 0.9529 0.29974 0.0
H614 H 0.17957 0.92084 0.32189 0.0
C615 C 0.07897 0.7688 0.40707 0.0
C616 C 0.10784 0.82442 0.34631 0.0
H617 H 0.16526 0.84029 0.30427 0.0
C618 C 0.10588 0.84786 0.33932 0.0
C619 C 0.12891 0.82128 0.33232 0.0
C620 C 0.13084 0.79555 0.33647 0.0
C621 C 0.1251 0.8687 0.31963 0.0
C622 C 0.14715 0.86626 0.30716 0.0
C623 C 0.14849 0.8424 0.31363 0.0
C624 C 0.17014 0.88836 0.28877 0.0
C625 C 0.12126 0.89282 0.3121 0.0
C626 C 0.17962 0.88147 0.26196 0.0
C627 C 0.20565 0.89955 0.24986 0.0
C628 C 0.22236 0.92522 0.26373 0.0
C629 C 0.21158 0.93346 0.28814 0.0
C630 C 0.18587 0.91504 0.30089 0.0
H631 H 0.09919 0.88687 0.31304 0.0
H632 H 0.13229 0.90919 0.32958 0.0
H633 H 0.12941 0.90139 0.28879 0.0
H634 H 0.16789 0.86114 0.25197 0.0
H635 H 0.2136 0.89259 0.23125 0.0
H636 H 0.33682 0.22639 0.57882 0.0
H637 H 0.31884 0.1806 0.60069 0.0
H638 H 0.24504 0.18037 0.62884 0.0
H639 H 0.26325 0.22671 0.60735 0.0
H640 H 0.26962 0.17148 0.67717 0.0
H641 H 0.26263 0.10215 0.58317 0.0
H642 H 0.29552 0.13291 0.58224 0.0
H643 H 0.2648 0.13485 0.57558 0.0
C644 C 0.3163 0.21623 0.58857 0.0
C645 C 0.30158 0.23034 0.59147 0.0
C646 C 0.30594 0.18989 0.60103 0.0
C647 C 0.2805 0.17687 0.61639 0.0
C648 C 0.26469 0.18995 0.61704 0.0
H649 H 0.25912 0.02581 0.70309 0.0
H650 H 0.24252 0.05469 0.67955 0.0
C651 C 0.27504 0.21638 0.60446 0.0
C652 C 0.27287 0.152 0.63565 0.0
H653 H 0.27287 0.0912 0.63466 0.0
C654 C 0.26958 0.15357 0.66773 0.0
C655 C 0.27234 0.12835 0.62352 0.0
C656 C 0.27372 0.12435 0.58917 0.0
C657 C 0.26817 0.13333 0.68813 0.0
C658 C 0.27052 0.11114 0.67623 0.0
C659 C 0.27138 0.10834 0.64396 0.0
C660 C 0.27619 0.09303 0.69652 0.0
C661 C 0.26517 0.13647 0.72235 0.0
C662 C 0.29993 0.10481 0.71504 0.0
C663 C 0.30936 0.08839 0.72851 0.0
C664 C 0.29531 0.05982 0.72371 0.0
C665 C 0.27017 0.04771 0.70761 0.0
C666 C 0.26082 0.06424 0.69385 0.0
H667 H 0.25342 0.14726 0.72656 0.0
H668 H 0.25464 0.11622 0.7343 0.0
H669 H 0.28587 0.14908 0.73274 0.0
H670 H 0.31248 0.12694 0.71703 0.0
H671 H 0.32891 0.09832 0.74055 0.0
H672 H 0.22722 0.26647 0.03988 0.0
H673 H 0.18073 0.2493 0.01915 0.0
H674 H 0.18142 0.32194 0.05256 0.0
H675 H 0.22777 0.33925 0.07299 0.0
H676 H 0.12727 0.26979 0.05402 0.0
H677 H 0.18219 0.29556 0.94066 0.0
H678 H 0.18598 0.27231 0.96632 0.0
H679 H 0.20038 0.30776 0.97684 0.0
C680 C 0.21693 0.27813 0.0441 0.0
C681 C 0.23116 0.30428 0.0579 0.0
C682 C 0.19049 0.26843 0.03195 0.0
C683 C 0.17788 0.2846 0.03384 0.0
C684 C 0.19082 0.30918 0.05075 0.0
H685 H 0.09414 0.34425 0.93648 0.0
H686 H 0.12464 0.32828 0.95535 0.0
C687 C 0.21728 0.31901 0.06254 0.0
C688 C 0.15365 0.27867 0.01452 0.0
H689 H 0.13727 0.28786 0.94087 0.0
C690 C 0.12906 0.27296 0.02914 0.0
C691 C 0.15629 0.28315 0.98211 0.0
C692 C 0.1826 0.29017 0.96536 0.0
C693 C 0.10758 0.27316 0.0125 0.0
C694 C 0.11079 0.27906 0.98032 0.0
C695 C 0.13475 0.2831 0.96543 0.0
C696 C 0.09226 0.28636 0.96325 0.0
C697 C 0.08254 0.26914 0.02993 0.0
C698 C 0.06398 0.26772 0.95967 0.0
C699 C 0.04635 0.27688 0.94866 0.0
C700 C 0.05684 0.30478 0.9412 0.0
C701 C 0.08542 0.32266 0.94217 0.0
C702 C 0.10291 0.31355 0.95302 0.0
H703 H 0.08484 0.26816 0.05539 0.0
H704 H 0.07845 0.28616 0.02473 0.0
H705 H 0.06435 0.24962 0.02249 0.0
H706 H 0.05539 0.24649 0.96683 0.0
H707 H 0.0244 0.26267 0.94831 0.0
H708 H 0.95293 0.22803 0.37196 0.0
H709 H 0.92388 0.18364 0.34667 0.0
H710 H 0.8522 0.17848 0.38978 0.0
H711 H 0.88099 0.22226 0.41551 0.0
H712 H 0.8472 0.12748 0.38222 0.0
H713 H 0.88096 0.18832 0.27277 0.0
H714 H 0.90729 0.1877 0.29589 0.0
H715 H 0.88939 0.20443 0.31031 0.0
C716 C 0.93114 0.21686 0.37712 0.0
C717 C 0.9192 0.22888 0.39539 0.0
C718 C 0.91449 0.19165 0.36226 0.0
C719 C 0.88575 0.17818 0.36549 0.0
C720 C 0.87427 0.1886 0.38662 0.0
H721 H 0.74537 0.1063 0.26045 0.0
H722 H 0.7918 0.13382 0.28062 0.0
C723 C 0.89081 0.21367 0.40143 0.0
C724 C 0.86709 0.1555 0.34442 0.0
H725 H 0.84356 0.14376 0.26977 0.0
C726 C 0.84673 0.13071 0.35749 0.0
C727 C 0.86636 0.15992 0.31216 0.0
C728 C 0.88699 0.18654 0.29682 0.0
C729 C 0.82474 0.11099 0.33966 0.0
C730 C 0.82339 0.11592 0.30764 0.0
C731 C 0.84473 0.13991 0.29421 0.0
C732 C 0.79787 0.0992 0.28928 0.0
C733 C 0.80205 0.0861 0.35582 0.0
C734 C 0.78638 0.07067 0.28543 0.0
C735 C 0.75956 0.05473 0.27382 0.0
C736 C 0.74397 0.06719 0.26584 0.0
C737 C 0.75673 0.09603 0.26661 0.0
C738 C 0.78334 0.11183 0.27822 0.0
H739 H 0.8042 0.08761 0.38144 0.0
H740 H 0.78164 0.08337 0.34956 0.0
H741 H 0.80257 0.06745 0.34842 0.0
H742 H 0.79749 0.06054 0.29302 0.0
H743 H 0.75034 0.03256 0.27353 0.0
H744 H 0.63467 0.72167 0.64889 0.0
H745 H 0.64562 0.76575 0.67129 0.0
H746 H 0.72325 0.80504 0.62312 0.0
H747 H 0.71241 0.76055 0.60039 0.0
H748 H 0.69532 0.79974 0.70916 0.0
H749 H 0.68593 0.85312 0.60461 0.0
H750 H 0.66936 0.81608 0.60666 0.0
H751 H 0.70593 0.83614 0.60217 0.0
C752 C 0.65397 0.73967 0.64266 0.0
C753 C 0.67267 0.73757 0.62279 0.0
C754 C 0.66023 0.76486 0.65563 0.0
C755 C 0.68524 0.78863 0.64894 0.0
C756 C 0.70375 0.78693 0.62843 0.0
H757 H 0.70761 0.94734 0.71083 0.0
H758 H 0.72326 0.91577 0.69364 0.0
C759 C 0.6975 0.76154 0.61542 0.0
C760 C 0.69172 0.81475 0.66443 0.0
H761 H 0.69118 0.87462 0.6526 0.0
C762 C 0.69495 0.81639 0.69676 0.0
C763 C 0.69152 0.83654 0.64818 0.0
C764 C 0.68792 0.83559 0.61349 0.0
C765 C 0.69653 0.83859 0.71344 0.0
C766 C 0.69429 0.8594 0.69744 0.0
C767 C 0.69292 0.85867 0.66489 0.0
C768 C 0.68901 0.87956 0.71388 0.0
C769 C 0.69976 0.8391 0.74815 0.0
C770 C 0.66522 0.86991 0.73205 0.0
C771 C 0.6563 0.88784 0.74184 0.0
C772 C 0.67096 0.91581 0.73366 0.0
C773 C 0.69611 0.92597 0.71789 0.0
C774 C 0.70492 0.90789 0.70778 0.0
H775 H 0.7111 0.82846 0.75531 0.0
H776 H 0.7108 0.86048 0.75712 0.0
H777 H 0.67911 0.82808 0.75905 0.0
H778 H 0.6523 0.84813 0.7366 0.0
H779 H 0.63674 0.8794 0.75373 0.0
H780 H 0.74036 0.65645 0.06762 0.0
H781 H 0.78343 0.66335 0.04533 0.0
H782 H 0.78129 0.71925 0.9779 0.0
H783 H 0.73922 0.71358 0.00162 0.0
H784 H 0.78845 0.64808 0.99214 0.0
H785 H 0.86078 0.75995 -0.00445 0.0
H786 H 0.82891 0.74409 0.01688 0.0
H787 H 0.82946 0.75252 0.97645 0.0
C788 C 0.75006 0.67139 0.04919 0.0
C789 C 0.73735 0.68547 0.03717 0.0
C790 C 0.7744 0.67502 0.03609 0.0
C791 C 0.78604 0.6922 0.01012 0.0
C792 C 0.77351 0.70674 -0.00144 0.0
H793 H 0.88255 0.6518 0.88599 0.0
H794 H 0.84831 0.66311 0.905 0.0
C795 C 0.7495 0.7036 0.01219 0.0
C796 C 0.80925 0.69236 0.9932 0.0
H797 H 0.87203 0.73407 0.96012 0.0
C798 C 0.80681 0.66695 0.98543 0.0
C799 C 0.83339 0.71689 0.98454 0.0
C800 C 0.83843 0.74486 0.9941 0.0
C801 C 0.82765 0.66531 0.96939 0.0
C802 C 0.85114 0.68982 0.9592 0.0
C803 C 0.85376 0.71528 0.96719 0.0
C804 C 0.87389 0.6892 0.94217 0.0
C805 C 0.82457 0.63723 0.96463 0.0
C806 C 0.90067 0.70263 0.9544 0.0
C807 C 0.92068 0.69717 0.94259 0.0
C808 C 0.91402 0.67784 0.91875 0.0
C809 C 0.8882 0.66679 0.90436 0.0
C810 C 0.86848 0.67286 0.91561 0.0
H811 H 0.80989 0.62194 0.98145 0.0
H812 H 0.81644 0.6298 0.94103 0.0
H813 H 0.8446 0.63793 0.9671 0.0
H814 H 0.90551 0.7156 0.97465 0.0
H815 H 0.94029 0.70573 0.9544 0.0
H816 H 0.265 0.97141 0.36907 0.0
H817 H 0.26396 0.97483 0.4256 0.0
H818 H 0.35263 0.01611 0.42778 0.0
H819 H 0.35359 0.01347 0.37107 0.0
H820 H 0.28193 0.94975 0.46405 0.0
H821 H 0.3379 0.06125 0.48911 0.0
H822 H 0.32504 0.04784 0.45097 0.0
H823 H 0.35712 0.05148 0.46424 0.0
C824 C 0.28423 0.98204 0.38168 0.0
C825 C 0.30939 -0.0074 0.36602 0.0
C826 C 0.28364 0.98384 0.41388 0.0
C827 C 0.3082 -0.00406 0.43094 0.0
C828 C 0.33345 0.00734 0.41509 0.0
H829 H 0.36332 0.00716 0.61701 0.0
H830 H 0.35635 0.00474 0.56103 0.0
C831 C 0.33403 0.00582 0.38277 0.0
C832 C 0.30734 -0.00612 0.46523 0.0
H833 H 0.33355 0.03133 0.53118 0.0
C834 C 0.29293 0.96761 0.4788 0.0
C835 C 0.32155 0.01719 0.48441 0.0
C836 C 0.33603 0.04604 0.47146 0.0
C837 C 0.2935 0.9639 0.51093 0.0
C838 C 0.30866 0.98714 0.52997 0.0
C839 C 0.32221 0.01348 0.51649 0.0
C840 C 0.31199 0.9848 0.56374 0.0
C841 C 0.27878 0.93509 0.52399 0.0
C842 C 0.28927 0.97346 0.58388 0.0
C843 C 0.29322 0.97431 0.61601 0.0
C844 C 0.31995 0.98703 0.62835 0.0
C845 C 0.3425 -0.00278 0.60809 0.0
C846 C 0.33855 -0.004 0.57613 0.0
H847 H 0.27372 0.91936 0.50572 0.0
H848 H 0.29139 0.93247 0.54205 0.0
H849 H 0.25922 0.93116 0.53482 0.0
H850 H 0.26862 0.96516 0.57488 0.0
H851 H 0.27552 0.96675 0.63115 0.0
H852 H 0.35583 0.35838 0.9431 0.0
H853 H 0.34939 0.35069 0.88724 0.0
H854 H 0.27727 0.27166 0.90366 0.0
H855 H 0.28465 0.27881 0.95982 0.0
H856 H 0.30451 0.26944 0.85437 0.0
H857 H 0.29235 0.36067 0.84267 0.0
H858 H 0.32491 0.37007 0.85993 0.0
H859 H 0.29359 0.34665 0.87991 0.0
C860 C 0.33911 0.33905 0.9347 0.0
C861 C 0.32083 0.31911 0.95552 0.0
C862 C 0.33514 0.33485 0.90285 0.0
C863 C 0.3122 0.3111 0.89129 0.0
C864 C 0.29489 0.29031 0.91208 0.0
H865 H 0.2821 0.31809 0.69067 0.0
H866 H 0.27242 0.31265 0.74665 0.0
C867 C 0.29925 0.29426 0.94408 0.0
C868 C 0.30625 0.30859 0.85756 0.0
H869 H 0.30368 0.34515 0.79551 0.0
C870 C 0.30388 0.28577 0.84158 0.0
C871 C 0.30425 0.32932 0.84086 0.0
C872 C 0.30356 0.35286 0.85683 0.0
C873 C 0.30201 0.28438 0.80913 0.0
C874 C 0.30333 0.30671 0.79232 0.0
C875 C 0.30328 0.32833 0.80839 0.0
C876 C 0.30832 0.30963 0.75847 0.0
C877 C 0.29933 0.25931 0.7931 0.0
C878 C 0.33209 0.31067 0.74685 0.0
C879 C 0.33778 0.31402 0.71527 0.0
C880 C 0.31985 0.31653 0.69441 0.0
C881 C 0.29632 0.31623 0.70612 0.0
C882 C 0.29067 0.31295 0.73801 0.0
H883 H 0.2888 0.24083 0.80818 0.0
H884 H 0.28772 0.25519 0.77105 0.0
H885 H 0.32014 0.26269 0.78783 0.0
H886 H 0.34644 0.30902 0.7623 0.0
H887 H 0.35619 0.31431 0.70724 0.0
H888 H 0.94223 0.32229 0.28707 0.0
H889 H 0.94279 0.31773 0.23115 0.0
H890 H 0.01732 0.31366 0.23774 0.0
H891 H 0.01691 0.31806 0.29446 0.0
H892 H 0.01555 0.35026 0.18972 0.0
H893 H 0.92558 0.2448 0.18572 0.0
H894 H 0.92066 0.26812 0.20971 0.0
H895 H 0.94626 0.25922 0.22008 0.0
C896 C 0.95889 0.32055 0.27681 0.0
C897 C 0.97946 0.32036 0.29534 0.0
C898 C 0.95903 0.31775 0.24479 0.0
C899 C 0.97969 0.31469 0.23047 0.0
C900 C 0.00099 0.31564 0.24854 0.0
H901 H 0.96878 0.27636 0.032 0.0
H902 H 0.96836 0.27179 0.08865 0.0
C903 C 0.00083 0.31835 0.28084 0.0
C904 C 0.97889 0.31117 0.19647 0.0
H905 H 0.93744 0.2704 0.13823 0.0
C906 C -0.00127 0.33265 0.1784 0.0
C907 C 0.95717 0.28794 0.18183 0.0
C908 C 0.93631 0.26354 0.20028 0.0
C909 C -0.0034 0.33221 0.14599 0.0
C910 C 0.97361 0.30999 0.13141 0.0
C911 C 0.95467 0.28771 0.14944 0.0
C912 C 0.96887 0.30999 0.09758 0.0
C913 C 0.01897 0.35571 0.12776 0.0
C914 C 0.96742 0.33196 0.08393 0.0
C915 C 0.96799 0.33473 0.05178 0.0
C916 C 0.96908 0.31509 0.03274 0.0
C917 C 0.96756 0.29157 0.04627 0.0
C918 C 0.96759 0.28909 0.07857 0.0
H919 H 0.03861 0.36601 0.14089 0.0
H920 H 0.02267 0.34856 0.10527 0.0
H921 H 0.01273 0.37128 0.12307 0.0
H922 H 0.96743 0.34782 0.09817 0.0
H923 H 0.96918 0.35304 0.0418 0.0
H924 H 0.68314 0.97944 0.36116 0.0
H925 H 0.69018 0.97816 0.41715 0.0
H926 H 0.62801 0.00034 0.43439 0.0
H927 H 0.62197 0.00291 0.37869 0.0
H928 H 0.67428 0.03301 0.4655 0.0
H929 H 0.6464 0.92388 0.48375 0.0
H930 H 0.67317 0.94273 0.45601 0.0
H931 H 0.63876 0.93556 0.44811 0.0
C932 C 0.67048 0.98325 0.37702 0.0
C933 C 0.65187 -0.00893 0.36576 0.0
C934 C 0.67456 0.9826 0.40898 0.0
C935 C 0.65957 0.98909 0.43003 0.0
C936 C 0.63996 -0.00454 0.41862 0.0
H937 H 0.61082 0.95595 0.61376 0.0
H938 H 0.61995 0.96107 0.55845 0.0
C939 C 0.63631 -0.00333 0.38684 0.0
C940 C 0.66493 -0.00917 0.46387 0.0
H941 H 0.65921 0.95226 0.52765 0.0
C942 C 0.67126 0.01543 0.4791 0.0
C943 C 0.66137 0.968 0.48151 0.0
C944 C 0.65436 0.94097 0.46663 0.0
C945 C 0.6723 0.01725 0.51154 0.0
C946 C 0.66739 -0.00599 0.52917 0.0
C947 C 0.6629 0.97002 0.51395 0.0
C948 C 0.66262 -0.0074 0.56303 0.0
C949 C 0.6769 0.0434 0.52672 0.0
C950 C 0.68351 0.00917 0.58406 0.0
C951 C 0.67826 0.00646 0.61605 0.0
C952 C 0.65213 0.98697 0.62728 0.0
C953 C 0.63122 0.97106 0.60596 0.0
C954 C 0.63642 0.97385 0.57428 0.0
H955 H 0.67689 0.05828 0.50969 0.0
H956 H 0.66071 0.03876 0.54429 0.0
H957 H 0.69704 0.05335 0.53879 0.0
H958 H 0.70396 0.02365 0.57582 0.0
H959 H 0.69483 0.01881 0.63193 0.0
H960 H 0.66935 0.63464 0.95585 0.0
H961 H 0.67307 0.63578 0.89944 0.0
H962 H 0.65097 0.6991 0.89541 0.0
H963 H 0.64718 0.69812 0.95212 0.0
H964 H 0.62173 0.65327 0.85302 0.0
H965 H 0.73516 0.69893 0.84734 0.0
H966 H 0.71775 0.66962 0.87255 0.0
H967 H 0.71769 0.70082 0.88155 0.0
C968 C 0.66518 0.64877 0.94301 0.0
C969 C 0.6579 0.66628 0.95841 0.0
C970 C 0.66752 0.64952 0.9108 0.0
C971 C 0.66265 0.66777 0.89337 0.0
C972 C 0.65497 0.68499 0.90856 0.0
H973 H 0.68746 0.70706 0.69718 0.0
H974 H 0.6882 0.70896 0.75408 0.0
C975 C 0.65278 0.68438 0.94088 0.0
C976 C 0.66499 0.66832 0.85922 0.0
H977 H 0.71048 0.68157 0.80021 0.0
C978 C 0.64113 0.65956 0.84144 0.0
C979 C 0.6904 0.67673 0.84427 0.0
C980 C 0.7168 0.6873 0.86232 0.0
C981 C 0.6419 0.65836 0.80902 0.0
C982 C 0.66714 0.66601 0.79416 0.0
C983 C 0.69113 0.6754 0.81184 0.0
C984 C 0.66892 0.66491 0.76011 0.0
C985 C 0.6158 0.64903 0.79074 0.0
C986 C 0.65842 0.63953 0.74491 0.0
C987 C 0.65838 0.63847 0.71253 0.0
C988 C 0.66873 0.66277 0.69516 0.0
C989 C 0.67972 0.68815 0.71035 0.0
C990 C 0.68007 0.68924 0.74268 0.0
H991 H 0.59883 0.64755 0.80533 0.0
H992 H 0.61945 0.66344 0.77127 0.0
H993 H 0.60918 0.62847 0.78067 0.0
H994 H 0.64972 0.62057 0.7581 0.0
H995 H 0.64944 0.61871 0.70107 0.0
H996 H 0.03591 0.66406 0.27933 0.0
H997 H 0.0319 0.66663 0.22343 0.0
H998 H 0.95463 0.66464 0.23494 0.0
H999 H 0.95854 0.66222 0.29147 0.0
H1000 H -0.01099 0.62874 0.1847 0.0
H1001 H 0.00163 0.73352 0.17939 0.0
H1002 H 0.01116 0.72092 0.21303 0.0
H1003 H 0.97563 0.70954 0.2054 0.0
C1004 C 0.01797 0.6641 0.2701 0.0
C1005 C -0.00246 0.66299 0.28989 0.0
C1006 C 0.01577 0.6656 0.2381 0.0
C1007 C -0.00678 0.66625 0.22512 0.0
C1008 C 0.97244 0.66462 0.24462 0.0
H1009 H 0.93957 0.6567 0.03724 0.0
H1010 H 0.94629 0.6622 0.09319 0.0
C1011 C 0.97455 0.66295 0.27683 0.0
C1012 C -0.00851 0.66794 0.19104 0.0
H1013 H -0.00721 0.70929 0.132 0.0
C1014 C -0.01008 0.64637 0.17316 0.0
C1015 C -0.00717 0.69108 0.17616 0.0
C1016 C -0.00438 0.71524 0.19435 0.0
C1017 C -0.01071 0.64713 0.14073 0.0
C1018 C -0.00939 0.67021 0.12584 0.0
C1019 C -0.00791 0.69179 0.14363 0.0
C1020 C -0.01158 0.67104 0.0918 0.0
C1021 C -0.01336 0.62303 0.12249 0.0
C1022 C 0.01025 0.67503 0.07249 0.0
C1023 C 0.00656 0.67211 0.04031 0.0
C1024 C 0.98085 0.66473 0.02727 0.0
C1025 C 0.95951 0.66202 0.04669 0.0
C1026 C 0.96332 0.66531 0.07863 0.0
H1027 H 0.98272 0.6054 0.13764 0.0
H1028 H 0.96962 0.61607 0.10545 0.0
H1029 H 0.00592 0.62948 0.10938 0.0
H1030 H 0.02979 0.6795 0.0824 0.0
H1031 H 0.02332 0.67434 0.02587 0.0
loop_
_geom_bond_atom_site_label_1
_geom_bond_atom_site_label_2
_geom_bond_distance
_geom_bond_site_symmetry_2
_ccdc_geom_bond_type
Zn0 O3 2.031 . S
Zn0 O5 2.049 . S
Zn0 O10 2.067 . S
Zn1 O2 1.962 1_545 S
Zn1 O4 1.986 . S
Zn1 O6 1.996 1_545 S
Zn1 O9 1.943 . S
O2 Zn1 1.962 1_565 S
O2 C7 1.254 . S
O3 Zn0 2.031 . S
O3 C7 1.269 . S
O4 Zn1 1.986 . S
O4 C11 1.262 . S
O5 Zn0 2.049 . S
O5 C13 1.260 . S
O6 Zn1 1.996 1_565 S
O6 C13 1.257 . S
C7 O2 1.254 . S
C7 O3 1.269 . S
C8 O9 1.249 . S
C8 O10 1.270 1_545 S
O9 Zn1 1.943 . S
O9 C8 1.249 . S
O10 Zn0 2.067 . S
O10 C8 1.270 1_565 S
C11 O4 1.262 . S
C11 O12 1.232 . S
O12 C11 1.232 . S
C13 O5 1.260 . S
C13 O6 1.257 . S
Zn14 O17 2.031 . S
Zn14 O19 2.049 . S
Zn14 O24 2.067 . S
Zn15 O16 1.962 . S
Zn15 O18 1.986 . S
Zn15 O20 1.996 . S
Zn15 O23 1.943 . S
O16 Zn15 1.962 . S
O16 C21 1.254 . S
O17 Zn14 2.031 . S
O17 C21 1.269 . S
O18 Zn15 1.986 . S
O18 C25 1.262 . S
O19 Zn14 2.049 . S
O19 C27 1.260 . S
O20 Zn15 1.996 . S
O20 C27 1.257 . S
C21 O16 1.254 . S
C21 O17 1.269 . S
C22 O23 1.249 . S
C22 O24 1.270 . S
O23 Zn15 1.943 . S
O23 C22 1.249 . S
O24 Zn14 2.067 . S
O24 C22 1.270 . S
C25 O18 1.262 . S
C25 O26 1.232 . S
O26 C25 1.232 . S
C27 O19 1.260 . S
C27 O20 1.257 . S
Zn28 O31 2.031 . S
Zn28 O33 2.049 . S
Zn28 O38 2.067 1_556 S
Zn29 O30 1.962 1_655 S
Zn29 O32 1.986 . S
Zn29 O34 1.996 1_655 S
Zn29 O37 1.943 . S
O30 Zn29 1.962 1_455 S
O30 C35 1.254 . S
O31 Zn28 2.031 . S
O31 C35 1.269 . S
O32 Zn29 1.986 . S
O32 C39 1.262 . S
O33 Zn28 2.049 . S
O33 C41 1.260 . S
O34 Zn29 1.996 1_455 S
O34 C41 1.257 . S
C35 O30 1.254 . S
C35 O31 1.269 . S
C36 O37 1.249 1_554 S
C36 O38 1.270 1_655 S
O37 Zn29 1.943 . S
O37 C36 1.249 1_556 S
O38 Zn28 2.067 1_554 S
O38 C36 1.270 1_455 S
C39 O32 1.262 . S
C39 O40 1.232 . S
O40 C39 1.232 . S
C41 O33 1.260 . S
C41 O34 1.257 . S
Zn42 O45 2.031 . S
Zn42 O47 2.049 . S
Zn42 O52 2.067 . S
Zn43 O44 1.962 1_565 S
Zn43 O46 1.986 . S
Zn43 O48 1.996 1_565 S
Zn43 O51 1.943 . S
O44 Zn43 1.962 1_545 S
O44 C49 1.254 . S
O45 Zn42 2.031 . S
O45 C49 1.269 . S
O46 Zn43 1.986 . S
O46 C53 1.262 . S
O47 Zn42 2.049 . S
O47 C55 1.260 . S
O48 Zn43 1.996 1_545 S
O48 C55 1.257 . S
C49 O44 1.254 . S
C49 O45 1.269 . S
C50 O51 1.249 . S
C50 O52 1.270 1_565 S
O51 Zn43 1.943 . S
O51 C50 1.249 . S
O52 Zn42 2.067 . S
O52 C50 1.270 1_545 S
C53 O46 1.262 . S
C53 O54 1.232 . S
O54 C53 1.232 . S
C55 O47 1.260 . S
C55 O48 1.257 . S
Zn56 O59 2.031 . S
Zn56 O61 2.049 . S
Zn56 O66 2.067 . S
Zn57 O58 1.962 . S
Zn57 O60 1.986 . S
Zn57 O62 1.996 . S
Zn57 O65 1.943 . S
O58 Zn57 1.962 . S
O58 C63 1.254 . S
O59 Zn56 2.031 . S
O59 C63 1.269 . S
O60 Zn57 1.986 . S
O60 C67 1.262 . S
O61 Zn56 2.049 . S
O61 C69 1.260 . S
O62 Zn57 1.996 . S
O62 C69 1.257 . S
C63 O58 1.254 . S
C63 O59 1.269 . S
C64 O65 1.249 . S
C64 O66 1.270 . S
O65 Zn57 1.943 . S
O65 C64 1.249 . S
O66 Zn56 2.067 . S
O66 C64 1.270 . S
C67 O60 1.262 . S
C67 O68 1.232 . S
O68 C67 1.232 . S
C69 O61 1.260 . S
C69 O62 1.257 . S
Zn70 O73 2.031 . S
Zn70 O75 2.049 . S
Zn70 O80 2.067 1_556 S
Zn71 O72 1.962 1_455 S
Zn71 O74 1.986 . S
Zn71 O76 1.996 1_455 S
Zn71 O79 1.943 . S
O72 Zn71 1.962 1_655 S
O72 C77 1.254 . S
O73 Zn70 2.031 . S
O73 C77 1.269 . S
O74 Zn71 1.986 . S
O74 C81 1.262 . S
O75 Zn70 2.049 . S
O75 C83 1.260 . S
O76 Zn71 1.996 1_655 S
O76 C83 1.257 . S
C77 O72 1.254 . S
C77 O73 1.269 . S
C78 O79 1.249 1_554 S
C78 O80 1.270 1_455 S
O79 Zn71 1.943 . S
O79 C78 1.249 1_556 S
O80 Zn70 2.067 1_554 S
O80 C78 1.270 1_655 S
C81 O74 1.262 . S
C81 O82 1.232 . S
O82 C81 1.232 . S
C83 O75 1.260 . S
C83 O76 1.257 . S
Zn84 O87 2.031 . S
Zn84 O89 2.049 . S
Zn84 O94 2.067 . S
Zn85 O86 1.962 1_655 S
Zn85 O88 1.986 . S
Zn85 O90 1.996 1_655 S
Zn85 O93 1.943 . S
O86 Zn85 1.962 1_455 S
O86 C91 1.254 . S
O87 Zn84 2.031 . S
O87 C91 1.269 . S
O88 Zn85 1.986 . S
O88 C95 1.262 . S
O89 Zn84 2.049 . S
O89 C97 1.260 . S
O90 Zn85 1.996 1_455 S
O90 C97 1.257 . S
C91 O86 1.254 . S
C91 O87 1.269 . S
C92 O93 1.249 . S
C92 O94 1.270 1_655 S
O93 Zn85 1.943 . S
O93 C92 1.249 . S
O94 Zn84 2.067 . S
O94 C92 1.270 1_455 S
C95 O88 1.262 . S
C95 O96 1.232 . S
O96 C95 1.232 . S
C97 O89 1.260 . S
C97 O90 1.257 . S
Zn98 O101 2.031 . S
Zn98 O103 2.049 . S
Zn98 O108 2.067 . S
Zn99 O100 1.962 1_565 S
Zn99 O102 1.986 . S
Zn99 O104 1.996 1_565 S
Zn99 O107 1.943 . S
O100 Zn99 1.962 1_545 S
O100 C105 1.254 . S
O101 Zn98 2.031 . S
O101 C105 1.269 . S
O102 Zn99 1.986 . S
O102 C109 1.262 . S
O103 Zn98 2.049 . S
O103 C111 1.260 . S
O104 Zn99 1.996 1_545 S
O104 C111 1.257 . S
C105 O100 1.254 . S
C105 O101 1.269 . S
C106 O107 1.249 . S
C106 O108 1.270 1_565 S
O107 Zn99 1.943 . S
O107 C106 1.249 . S
O108 Zn98 2.067 . S
O108 C106 1.270 1_545 S
C109 O102 1.262 . S
C109 O110 1.232 . S
O110 C109 1.232 . S
C111 O103 1.260 . S
C111 O104 1.257 . S
Zn112 O115 2.031 . S
Zn112 O117 2.049 . S
Zn112 O122 2.067 1_554 S
Zn113 O114 1.962 . S
Zn113 O116 1.986 . S
Zn113 O118 1.996 . S
Zn113 O121 1.943 . S
O114 Zn113 1.962 . S
O114 C119 1.254 . S
O115 Zn112 2.031 . S
O115 C119 1.269 . S
O116 Zn113 1.986 . S
O116 C123 1.262 . S
O117 Zn112 2.049 . S
O117 C125 1.260 . S
O118 Zn113 1.996 . S
O118 C125 1.257 . S
C119 O114 1.254 . S
C119 O115 1.269 . S
C120 O121 1.249 1_556 S
C120 O122 1.270 . S
O121 Zn113 1.943 . S
O121 C120 1.249 1_554 S
O122 Zn112 2.067 1_556 S
O122 C120 1.270 . S
C123 O116 1.262 . S
C123 O124 1.232 . S
O124 C123 1.232 . S
C125 O117 1.260 . S
C125 O118 1.257 . S
Zn126 O129 2.031 . S
Zn126 O131 2.049 . S
Zn126 O136 2.067 . S
Zn127 O128 1.962 1_455 S
Zn127 O130 1.986 . S
Zn127 O132 1.996 1_455 S
Zn127 O135 1.943 . S
O128 Zn127 1.962 1_655 S
O128 C133 1.254 . S
O129 Zn126 2.031 . S
O129 C133 1.269 . S
O130 Zn127 1.986 . S
O130 C137 1.262 . S
O131 Zn126 2.049 . S
O131 C139 1.260 . S
O132 Zn127 1.996 1_655 S
O132 C139 1.257 . S
C133 O128 1.254 . S
C133 O129 1.269 . S
C134 O135 1.249 . S
C134 O136 1.270 1_455 S
O135 Zn127 1.943 . S
O135 C134 1.249 . S
O136 Zn126 2.067 . S
O136 C134 1.270 1_655 S
C137 O130 1.262 . S
C137 O138 1.232 . S
O138 C137 1.232 . S
C139 O131 1.260 . S
C139 O132 1.257 . S
Zn140 O143 2.031 . S
Zn140 O145 2.049 . S
Zn140 O150 2.067 . S
Zn141 O142 1.962 1_545 S
Zn141 O144 1.986 . S
Zn141 O146 1.996 1_545 S
Zn141 O149 1.943 . S
O142 Zn141 1.962 1_565 S
O142 C147 1.254 . S
O143 Zn140 2.031 . S
O143 C147 1.269 . S
O144 Zn141 1.986 . S
O144 C151 1.262 . S
O145 Zn140 2.049 . S
O145 C153 1.260 . S
O146 Zn141 1.996 1_565 S
O146 C153 1.257 . S
C147 O142 1.254 . S
C147 O143 1.269 . S
C148 O149 1.249 . S
C148 O150 1.270 1_545 S
O149 Zn141 1.943 . S
O149 C148 1.249 . S
O150 Zn140 2.067 . S
O150 C148 1.270 1_565 S
C151 O144 1.262 . S
C151 O152 1.232 . S
O152 C151 1.232 . S
C153 O145 1.260 . S
C153 O146 1.257 . S
Zn154 O157 2.031 . S
Zn154 O159 2.049 . S
Zn154 O164 2.067 1_554 S
Zn155 O156 1.962 . S
Zn155 O158 1.986 . S
Zn155 O160 1.996 . S
Zn155 O163 1.943 . S
O156 Zn155 1.962 . S
O156 C161 1.254 . S
O157 Zn154 2.031 . S
O157 C161 1.269 . S
O158 Zn155 1.986 . S
O158 C165 1.262 . S
O159 Zn154 2.049 . S
O159 C167 1.260 . S
O160 Zn155 1.996 . S
O160 C167 1.257 . S
C161 O156 1.254 . S
C161 O157 1.269 . S
C162 O163 1.249 1_556 S
C162 O164 1.270 . S
O163 Zn155 1.943 . S
O163 C162 1.249 1_554 S
O164 Zn154 2.067 1_556 S
O164 C162 1.270 . S
C165 O158 1.262 . S
C165 O166 1.232 . S
O166 C165 1.232 . S
C167 O159 1.260 . S
C167 O160 1.257 . S
H168 C176 0.929 . S
H169 C178 0.930 . S
H170 C180 0.930 . S
H171 C183 0.929 . S
H172 C186 0.930 . S
H173 C188 0.960 . S
H174 C188 0.960 . S
H175 C188 0.960 . S
C176 H168 0.929 . S
C176 C177 1.377 . S
C176 C178 1.384 . S
C177 C176 1.377 . S
C177 C183 1.390 . S
C178 H169 0.930 . S
C178 C176 1.384 . S
C178 C179 1.372 . S
C179 C178 1.372 . S
C179 C180 1.400 . S
C179 C184 1.490 . S
C180 H170 0.930 . S
C180 C179 1.400 . S
C180 C183 1.386 . S
H181 C197 0.930 . S
H182 C198 0.931 . S
C183 H171 0.929 . S
C183 C177 1.390 . S
C183 C180 1.386 . S
C184 C179 1.490 . S
C184 C186 1.395 . S
C184 C187 1.403 . S
H185 C191 0.930 . S
C186 H172 0.930 . S
C186 C184 1.395 . S
C186 C189 1.403 . S
C187 C184 1.403 . S
C187 C188 1.524 . S
C187 C191 1.400 . S
C188 H173 0.960 . S
C188 H174 0.960 . S
C188 H175 0.960 . S
C188 C187 1.524 . S
C189 C186 1.403 . S
C189 C190 1.392 . S
C189 C193 1.495 . S
C190 C189 1.392 . S
C190 C191 1.385 . S
C190 C192 1.478 . S
C191 H185 0.930 . S
C191 C187 1.400 . S
C191 C190 1.385 . S
C192 C190 1.478 . S
C192 C194 1.381 . S
C192 C198 1.383 . S
C193 C189 1.495 . S
C193 H199 0.959 . S
C193 H200 0.961 . S
C193 H201 0.960 . S
C194 C192 1.381 . S
C194 C195 1.394 . S
C194 H202 0.930 . S
C195 C194 1.394 . S
C195 C196 1.383 . S
C195 H203 0.929 . S
C196 C195 1.383 . S
C196 C197 1.377 . S
C197 H181 0.930 . S
C197 C196 1.377 . S
C197 C198 1.379 . S
C198 H182 0.931 . S
C198 C192 1.383 . S
C198 C197 1.379 . S
H199 C193 0.959 . S
H200 C193 0.961 . S
H201 C193 0.960 . S
H202 C194 0.930 . S
H203 C195 0.929 . S
H204 C212 0.929 . S
H205 C214 0.930 . S
H206 C216 0.930 . S
H207 C219 0.929 . S
H208 C222 0.930 . S
H209 C224 0.960 . S
H210 C224 0.960 . S
H211 C224 0.960 . S
C212 H204 0.929 . S
C212 C213 1.377 . S
C212 C214 1.384 . S
C213 C212 1.377 . S
C213 C219 1.390 . S
C214 H205 0.930 . S
C214 C212 1.384 . S
C214 C215 1.372 . S
C215 C214 1.372 . S
C215 C216 1.400 . S
C215 C220 1.490 . S
C216 H206 0.930 . S
C216 C215 1.400 . S
C216 C219 1.386 . S
H217 C233 0.930 . S
H218 C234 0.931 . S
C219 H207 0.929 . S
C219 C213 1.390 . S
C219 C216 1.386 . S
C220 C215 1.490 . S
C220 C222 1.395 . S
C220 C223 1.403 . S
H221 C227 0.930 . S
C222 H208 0.930 . S
C222 C220 1.395 . S
C222 C225 1.403 . S
C223 C220 1.403 . S
C223 C224 1.524 . S
C223 C227 1.400 . S
C224 H209 0.960 . S
C224 H210 0.960 . S
C224 H211 0.960 . S
C224 C223 1.524 . S
C225 C222 1.403 . S
C225 C226 1.392 . S
C225 C229 1.495 . S
C226 C225 1.392 . S
C226 C227 1.385 . S
C226 C228 1.478 . S
C227 H221 0.930 . S
C227 C223 1.400 . S
C227 C226 1.385 . S
C228 C226 1.478 . S
C228 C230 1.381 . S
C228 C234 1.383 . S
C229 C225 1.495 . S
C229 H235 0.959 . S
C229 H236 0.961 . S
C229 H237 0.960 . S
C230 C228 1.381 . S
C230 C231 1.394 . S
C230 H238 0.930 . S
C231 C230 1.394 . S
C231 C232 1.383 . S
C231 H239 0.929 . S
C232 C231 1.383 . S
C232 C233 1.377 . S
C233 H217 0.930 . S
C233 C232 1.377 . S
C233 C234 1.379 . S
C234 H218 0.931 . S
C234 C228 1.383 . S
C234 C233 1.379 . S
H235 C229 0.959 . S
H236 C229 0.961 . S
H237 C229 0.960 . S
H238 C230 0.930 . S
H239 C231 0.929 . S
H240 C248 0.929 . S
H241 C250 0.930 . S
H242 C252 0.930 . S
H243 C255 0.929 . S
H244 C258 0.930 . S
H245 C260 0.960 . S
H246 C260 0.960 . S
H247 C260 0.960 . S
C248 H240 0.929 . S
C248 C249 1.377 . S
C248 C250 1.384 . S
C249 C248 1.377 . S
C249 C255 1.390 . S
C250 H241 0.930 . S
C250 C248 1.384 . S
C250 C251 1.372 . S
C251 C250 1.372 . S
C251 C252 1.400 . S
C251 C256 1.490 . S
C252 H242 0.930 . S
C252 C251 1.400 . S
C252 C255 1.386 . S
H253 C269 0.930 . S
H254 C270 0.931 . S
C255 H243 0.929 . S
C255 C249 1.390 . S
C255 C252 1.386 . S
C256 C251 1.490 . S
C256 C258 1.395 . S
C256 C259 1.403 . S
H257 C263 0.930 . S
C258 H244 0.930 . S
C258 C256 1.395 . S
C258 C261 1.403 . S
C259 C256 1.403 . S
C259 C260 1.524 . S
C259 C263 1.400 . S
C260 H245 0.960 . S
C260 H246 0.960 . S
C260 H247 0.960 . S
C260 C259 1.524 . S
C261 C258 1.403 . S
C261 C262 1.392 . S
C261 C265 1.495 . S
C262 C261 1.392 . S
C262 C263 1.385 . S
C262 C264 1.478 . S
C263 H257 0.930 . S
C263 C259 1.400 . S
C263 C262 1.385 . S
C264 C262 1.478 . S
C264 C266 1.381 . S
C264 C270 1.383 . S
C265 C261 1.495 . S
C265 H271 0.959 . S
C265 H272 0.961 . S
C265 H273 0.960 . S
C266 C264 1.381 . S
C266 C267 1.394 . S
C266 H274 0.930 . S
C267 C266 1.394 . S
C267 C268 1.383 . S
C267 H275 0.929 . S
C268 C267 1.383 . S
C268 C269 1.377 . S
C269 H253 0.930 . S
C269 C268 1.377 . S
C269 C270 1.379 . S
C270 H254 0.931 . S
C270 C264 1.383 . S
C270 C269 1.379 . S
H271 C265 0.959 . S
H272 C265 0.961 . S
H273 C265 0.960 . S
H274 C266 0.930 . S
H275 C267 0.929 . S
H276 C284 0.929 . S
H277 C286 0.930 . S
H278 C288 0.930 . S
H279 C291 0.929 . S
H280 C294 0.930 . S
H281 C296 0.960 . S
H282 C296 0.960 . S
H283 C296 0.960 . S
C284 H276 0.929 . S
C284 C285 1.377 . S
C284 C286 1.384 . S
C285 C284 1.377 . S
C285 C291 1.390 . S
C286 H277 0.930 . S
C286 C284 1.384 . S
C286 C287 1.372 . S
C287 C286 1.372 . S
C287 C288 1.400 . S
C287 C292 1.490 . S
C288 H278 0.930 . S
C288 C287 1.400 . S
C288 C291 1.386 . S
H289 C305 0.930 . S
H290 C306 0.931 . S
C291 H279 0.929 . S
C291 C285 1.390 . S
C291 C288 1.386 . S
C292 C287 1.490 . S
C292 C294 1.395 . S
C292 C295 1.403 . S
H293 C299 0.930 . S
C294 H280 0.930 . S
C294 C292 1.395 . S
C294 C297 1.403 . S
C295 C292 1.403 . S
C295 C296 1.524 . S
C295 C299 1.400 . S
C296 H281 0.960 . S
C296 H282 0.960 . S
C296 H283 0.960 . S
C296 C295 1.524 . S
C297 C294 1.403 . S
C297 C298 1.392 . S
C297 C301 1.495 . S
C298 C297 1.392 . S
C298 C299 1.385 . S
C298 C300 1.478 . S
C299 H293 0.930 . S
C299 C295 1.400 . S
C299 C298 1.385 . S
C300 C298 1.478 . S
C300 C302 1.381 . S
C300 C306 1.383 . S
C301 C297 1.495 . S
C301 H307 0.959 . S
C301 H308 0.961 . S
C301 H309 0.960 . S
C302 C300 1.381 . S
C302 C303 1.394 . S
C302 H310 0.930 . S
C303 C302 1.394 . S
C303 C304 1.383 . S
C303 H311 0.929 . S
C304 C303 1.383 . S
C304 C305 1.377 . S
C305 H289 0.930 . S
C305 C304 1.377 . S
C305 C306 1.379 . S
C306 H290 0.931 . S
C306 C300 1.383 . S
C306 C305 1.379 . S
H307 C301 0.959 . S
H308 C301 0.961 . S
H309 C301 0.960 . S
H310 C302 0.930 . S
H311 C303 0.929 . S
H312 C320 0.929 . S
H313 C322 0.930 . S
H314 C324 0.930 . S
H315 C327 0.929 . S
H316 C330 0.930 . S
H317 C332 0.960 . S
H318 C332 0.960 . S
H319 C332 0.960 . S
C320 H312 0.929 . S
C320 C321 1.377 . S
C320 C322 1.384 . S
C321 C320 1.377 . S
C321 C327 1.390 . S
C322 H313 0.930 . S
C322 C320 1.384 . S
C322 C323 1.372 . S
C323 C322 1.372 . S
C323 C324 1.400 . S
C323 C328 1.490 . S
C324 H314 0.930 . S
C324 C323 1.400 . S
C324 C327 1.386 . S
H325 C341 0.930 . S
H326 C342 0.931 . S
C327 H315 0.929 . S
C327 C321 1.390 . S
C327 C324 1.386 . S
C328 C323 1.490 . S
C328 C330 1.395 . S
C328 C331 1.403 . S
H329 C335 0.930 . S
C330 H316 0.930 . S
C330 C328 1.395 . S
C330 C333 1.403 . S
C331 C328 1.403 . S
C331 C332 1.524 . S
C331 C335 1.400 . S
C332 H317 0.960 . S
C332 H318 0.960 . S
C332 H319 0.960 . S
C332 C331 1.524 . S
C333 C330 1.403 . S
C333 C334 1.392 . S
C333 C337 1.495 . S
C334 C333 1.392 . S
C334 C335 1.385 . S
C334 C336 1.478 . S
C335 H329 0.930 . S
C335 C331 1.400 . S
C335 C334 1.385 . S
C336 C334 1.478 . S
C336 C338 1.381 . S
C336 C342 1.383 . S
C337 C333 1.495 . S
C337 H343 0.959 . S
C337 H344 0.961 . S
C337 H345 0.960 . S
C338 C336 1.381 . S
C338 C339 1.394 . S
C338 H346 0.930 . S
C339 C338 1.394 . S
C339 C340 1.383 . S
C339 H347 0.929 . S
C340 C339 1.383 . S
C340 C341 1.377 . S
C341 H325 0.930 . S
C341 C340 1.377 . S
C341 C342 1.379 . S
C342 H326 0.931 . S
C342 C336 1.383 . S
C342 C341 1.379 . S
H343 C337 0.959 . S
H344 C337 0.961 . S
H345 C337 0.960 . S
H346 C338 0.930 . S
H347 C339 0.929 . S
H348 C356 0.929 . S
H349 C358 0.930 . S
H350 C360 0.930 . S
H351 C363 0.929 . S
H352 C366 0.930 . S
H353 C368 0.960 . S
H354 C368 0.960 . S
H355 C368 0.960 . S
C356 H348 0.929 . S
C356 C357 1.377 . S
C356 C358 1.384 . S
C357 C356 1.377 . S
C357 C363 1.390 . S
C358 H349 0.930 . S
C358 C356 1.384 . S
C358 C359 1.372 . S
C359 C358 1.372 . S
C359 C360 1.400 . S
C359 C364 1.490 . S
C360 H350 0.930 . S
C360 C359 1.400 . S
C360 C363 1.386 . S
H361 C377 0.930 . S
H362 C378 0.931 . S
C363 H351 0.929 . S
C363 C357 1.390 . S
C363 C360 1.386 . S
C364 C359 1.490 . S
C364 C366 1.395 . S
C364 C367 1.403 . S
H365 C371 0.930 . S
C366 H352 0.930 . S
C366 C364 1.395 . S
C366 C369 1.403 . S
C367 C364 1.403 . S
C367 C368 1.524 . S
C367 C371 1.400 . S
C368 H353 0.960 . S
C368 H354 0.960 . S
C368 H355 0.960 . S
C368 C367 1.524 . S
C369 C366 1.403 . S
C369 C370 1.392 . S
C369 C373 1.495 . S
C370 C369 1.392 . S
C370 C371 1.385 . S
C370 C372 1.478 . S
C371 H365 0.930 . S
C371 C367 1.400 . S
C371 C370 1.385 . S
C372 C370 1.478 . S
C372 C374 1.381 . S
C372 C378 1.383 . S
C373 C369 1.495 . S
C373 H379 0.959 . S
C373 H380 0.961 . S
C373 H381 0.960 . S
C374 C372 1.381 . S
C374 C375 1.394 . S
C374 H382 0.930 . S
C375 C374 1.394 . S
C375 C376 1.383 . S
C375 H383 0.929 . S
C376 C375 1.383 . S
C376 C377 1.377 . S
C377 H361 0.930 . S
C377 C376 1.377 . S
C377 C378 1.379 . S
C378 H362 0.931 . S
C378 C372 1.383 . S
C378 C377 1.379 . S
H379 C373 0.959 . S
H380 C373 0.961 . S
H381 C373 0.960 . S
H382 C374 0.930 . S
H383 C375 0.929 . S
H384 C392 0.929 . S
H385 C394 0.930 . S
H386 C396 0.930 . S
H387 C399 0.929 . S
H388 C402 0.930 . S
H389 C404 0.960 . S
H390 C404 0.960 . S
H391 C404 0.960 . S
C392 H384 0.929 . S
C392 C393 1.377 . S
C392 C394 1.384 . S
C393 C392 1.377 . S
C393 C399 1.390 1_565 S
C394 H385 0.930 . S
C394 C392 1.384 . S
C394 C395 1.372 . S
C395 C394 1.372 . S
C395 C396 1.400 1_565 S
C395 C400 1.490 . S
C396 H386 0.930 . S
C396 C395 1.400 1_545 S
C396 C399 1.386 . S
H397 C413 0.930 . S
H398 C414 0.931 . S
C399 H387 0.929 . S
C399 C393 1.390 1_545 S
C399 C396 1.386 . S
C400 C395 1.490 . S
C400 C402 1.395 . S
C400 C403 1.403 1_565 S
H401 C407 0.930 . S
C402 H388 0.930 . S
C402 C400 1.395 . S
C402 C405 1.403 . S
C403 C400 1.403 1_545 S
C403 C404 1.524 . S
C403 C407 1.400 . S
C404 H389 0.960 . S
C404 H390 0.960 . S
C404 H391 0.960 . S
C404 C403 1.524 . S
C405 C402 1.403 . S
C405 C406 1.392 . S
C405 C409 1.495 . S
C406 C405 1.392 . S
C406 C407 1.385 1_565 S
C406 C408 1.478 . S
C407 H401 0.930 . S
C407 C403 1.400 . S
C407 C406 1.385 1_545 S
C408 C406 1.478 . S
C408 C410 1.381 . S
C408 C414 1.383 1_565 S
C409 C405 1.495 . S
C409 H415 0.959 . S
C409 H416 0.961 . S
C409 H417 0.960 . S
C410 C408 1.381 . S
C410 C411 1.394 . S
C410 H418 0.930 . S
C411 C410 1.394 . S
C411 C412 1.384 1_565 S
C411 H419 0.929 . S
C412 C411 1.384 1_545 S
C412 C413 1.376 . S
C413 H397 0.930 . S
C413 C412 1.376 . S
C413 C414 1.379 . S
C414 H398 0.931 . S
C414 C408 1.383 1_545 S
C414 C413 1.379 . S
H415 C409 0.959 . S
H416 C409 0.961 . S
H417 C409 0.960 . S
H418 C410 0.930 . S
H419 C411 0.929 . S
H420 C428 0.929 . S
H421 C430 0.930 . S
H422 C432 0.930 . S
H423 C435 0.929 . S
H424 C438 0.930 . S
H425 C440 0.960 . S
H426 C440 0.960 . S
H427 C440 0.960 . S
C428 H420 0.929 . S
C428 C429 1.377 . S
C428 C430 1.384 . S
C429 C428 1.377 . S
C429 C435 1.390 . S
C430 H421 0.930 . S
C430 C428 1.384 . S
C430 C431 1.372 . S
C431 C430 1.372 . S
C431 C432 1.400 . S
C431 C436 1.490 . S
C432 H422 0.930 . S
C432 C431 1.400 . S
C432 C435 1.386 . S
H433 C449 0.930 . S
H434 C450 0.931 . S
C435 H423 0.929 . S
C435 C429 1.390 . S
C435 C432 1.386 . S
C436 C431 1.490 . S
C436 C438 1.395 . S
C436 C439 1.403 . S
H437 C443 0.930 . S
C438 H424 0.930 . S
C438 C436 1.395 . S
C438 C441 1.403 . S
C439 C436 1.403 . S
C439 C440 1.524 . S
C439 C443 1.400 . S
C440 H425 0.960 . S
C440 H426 0.960 . S
C440 H427 0.960 . S
C440 C439 1.524 . S
C441 C438 1.403 . S
C441 C442 1.392 . S
C441 C445 1.495 . S
C442 C441 1.392 . S
C442 C443 1.385 . S
C442 C444 1.478 . S
C443 H437 0.930 . S
C443 C439 1.400 . S
C443 C442 1.385 . S
C444 C442 1.478 . S
C444 C446 1.381 . S
C444 C450 1.383 . S
C445 C441 1.495 . S
C445 H451 0.959 . S
C445 H452 0.961 . S
C445 H453 0.960 . S
C446 C444 1.381 . S
C446 C447 1.394 . S
C446 H454 0.930 . S
C447 C446 1.394 . S
C447 C448 1.383 . S
C447 H455 0.929 . S
C448 C447 1.383 . S
C448 C449 1.377 . S
C449 H433 0.930 . S
C449 C448 1.377 . S
C449 C450 1.379 . S
C450 H434 0.931 . S
C450 C444 1.383 . S
C450 C449 1.379 . S
H451 C445 0.959 . S
H452 C445 0.961 . S
H453 C445 0.960 . S
H454 C446 0.930 . S
H455 C447 0.929 . S
H456 C464 0.929 . S
H457 C466 0.930 . S
H458 C468 0.930 . S
H459 C471 0.929 . S
H460 C474 0.930 . S
H461 C476 0.960 . S
H462 C476 0.960 . S
H463 C476 0.960 . S
C464 H456 0.929 . S
C464 C465 1.377 1_455 S
C464 C466 1.384 . S
C465 C464 1.377 1_655 S
C465 C471 1.390 . S
C466 H457 0.930 . S
C466 C464 1.384 . S
C466 C467 1.381 . S
C467 C466 1.381 . S
C467 C468 1.378 1_455 S
C467 C472 1.503 . S
C468 H458 0.930 . S
C468 C467 1.378 1_655 S
C468 C471 1.386 . S
H469 C485 0.930 . S
H470 C486 0.931 . S
C471 H459 0.929 . S
C471 C465 1.390 . S
C471 C468 1.386 . S
C472 C467 1.503 . S
C472 C474 1.395 . S
C472 C475 1.403 1_455 S
H473 C479 0.930 . S
C474 H460 0.930 . S
C474 C472 1.395 . S
C474 C477 1.403 . S
C475 C472 1.403 1_655 S
C475 C476 1.524 . S
C475 C479 1.400 . S
C476 H461 0.960 . S
C476 H462 0.960 . S
C476 H463 0.960 . S
C476 C475 1.524 . S
C477 C474 1.403 . S
C477 C478 1.392 . S
C477 C481 1.495 . S
C478 C477 1.392 . S
C478 C479 1.385 1_455 S
C478 C480 1.478 . S
C479 H473 0.930 . S
C479 C475 1.400 . S
C479 C478 1.385 1_655 S
C480 C478 1.478 . S
C480 C482 1.381 . S
C480 C486 1.383 1_455 S
C481 C477 1.495 . S
C481 H487 0.959 . S
C481 H488 0.961 . S
C481 H489 0.960 . S
C482 C480 1.381 . S
C482 C483 1.394 . S
C482 H490 0.930 . S
C483 C482 1.394 . S
C483 C484 1.383 . S
C483 H491 0.929 . S
C484 C483 1.383 . S
C484 C485 1.377 1_455 S
C485 H469 0.930 . S
C485 C484 1.377 1_655 S
C485 C486 1.379 . S
C486 H470 0.931 . S
C486 C480 1.383 1_655 S
C486 C485 1.379 . S
H487 C481 0.959 . S
H488 C481 0.961 . S
H489 C481 0.960 . S
H490 C482 0.930 . S
H491 C483 0.929 . S
H492 C500 0.929 . S
H493 C502 0.930 . S
H494 C504 0.930 . S
H495 C507 0.929 . S
H496 C510 0.930 . S
H497 C512 0.960 . S
H498 C512 0.960 . S
H499 C512 0.960 . S
C500 H492 0.929 . S
C500 C501 1.377 . S
C500 C502 1.384 . S
C501 C500 1.377 . S
C501 C507 1.390 1_455 S
C502 H493 0.930 . S
C502 C500 1.384 . S
C502 C503 1.372 . S
C503 C502 1.372 . S
C503 C504 1.400 1_455 S
C503 C508 1.490 . S
C504 H494 0.930 . S
C504 C503 1.400 1_655 S
C504 C507 1.386 . S
H505 C521 0.930 . S
H506 C522 0.931 . S
C507 H495 0.929 . S
C507 C501 1.390 1_655 S
C507 C504 1.386 . S
C508 C503 1.490 . S
C508 C510 1.395 . S
C508 C511 1.403 1_455 S
H509 C515 0.930 . S
C510 H496 0.930 . S
C510 C508 1.395 . S
C510 C513 1.403 . S
C511 C508 1.403 1_655 S
C511 C512 1.524 . S
C511 C515 1.400 . S
C512 H497 0.960 . S
C512 H498 0.960 . S
C512 H499 0.960 . S
C512 C511 1.524 . S
C513 C510 1.403 . S
C513 C514 1.392 . S
C513 C517 1.495 . S
C514 C513 1.392 . S
C514 C515 1.385 1_455 S
C514 C516 1.478 . S
C515 H509 0.930 . S
C515 C511 1.400 . S
C515 C514 1.385 1_655 S
C516 C514 1.478 . S
C516 C518 1.381 . S
C516 C522 1.383 1_455 S
C517 C513 1.495 . S
C517 H523 0.959 . S
C517 H524 0.961 . S
C517 H525 0.960 . S
C518 C516 1.381 . S
C518 C519 1.394 . S
C518 H526 0.930 . S
C519 C518 1.394 . S
C519 C520 1.386 . S
C519 H527 0.929 . S
C520 C519 1.386 . S
C520 C521 1.367 1_455 S
C521 H505 0.930 . S
C521 C520 1.367 1_655 S
C521 C522 1.379 . S
C522 H506 0.931 . S
C522 C516 1.383 1_655 S
C522 C521 1.379 . S
H523 C517 0.959 . S
H524 C517 0.961 . S
H525 C517 0.960 . S
H526 C518 0.930 . S
H527 C519 0.929 . S
H528 C536 0.929 . S
H529 C538 0.930 . S
H530 C540 0.930 . S
H531 C543 0.929 . S
H532 C546 0.930 . S
H533 C548 0.960 . S
H534 C548 0.960 . S
H535 C548 0.960 . S
C536 H528 0.929 . S
C536 C537 1.377 1_545 S
C536 C538 1.384 . S
C537 C536 1.377 1_565 S
C537 C543 1.390 . S
C538 H529 0.930 . S
C538 C536 1.384 . S
C538 C539 1.376 . S
C539 C538 1.376 . S
C539 C540 1.389 1_545 S
C539 C544 1.496 . S
C540 H530 0.930 . S
C540 C539 1.389 1_565 S
C540 C543 1.386 . S
H541 C557 0.930 . S
H542 C558 0.931 . S
C543 H531 0.929 . S
C543 C537 1.390 . S
C543 C540 1.386 . S
C544 C539 1.496 . S
C544 C546 1.395 . S
C544 C547 1.403 1_545 S
H545 C551 0.930 . S
C546 H532 0.930 . S
C546 C544 1.395 . S
C546 C549 1.403 . S
C547 C544 1.403 1_565 S
C547 C548 1.524 . S
C547 C551 1.400 . S
C548 H533 0.960 . S
C548 H534 0.960 . S
C548 H535 0.960 . S
C548 C547 1.524 . S
C549 C546 1.403 . S
C549 C550 1.392 . S
C549 C553 1.495 . S
C550 C549 1.392 . S
C550 C551 1.385 1_545 S
C550 C552 1.478 . S
C551 H545 0.930 . S
C551 C547 1.400 . S
C551 C550 1.385 1_565 S
C552 C550 1.478 . S
C552 C554 1.381 . S
C552 C558 1.383 1_545 S
C553 C549 1.495 . S
C553 H559 0.959 . S
C553 H560 0.961 . S
C553 H561 0.960 . S
C554 C552 1.381 . S
C554 C555 1.394 . S
C554 H562 0.930 . S
C555 C554 1.394 . S
C555 C556 1.383 . S
C555 H563 0.929 . S
C556 C555 1.383 . S
C556 C557 1.377 1_545 S
C557 H541 0.930 . S
C557 C556 1.377 1_565 S
C557 C558 1.379 . S
C558 H542 0.931 . S
C558 C552 1.383 1_565 S
C558 C557 1.379 . S
H559 C553 0.959 . S
H560 C553 0.961 . S
H561 C553 0.960 . S
H562 C554 0.930 . S
H563 C555 0.929 . S
H564 C572 0.929 . S
H565 C574 0.930 . S
H566 C576 0.930 . S
H567 C579 0.929 . S
H568 C582 0.930 . S
H569 C584 0.960 . S
H570 C584 0.960 . S
H571 C584 0.960 . S
C572 H564 0.929 . S
C572 C573 1.377 . S
C572 C574 1.384 . S
C573 C572 1.377 . S
C573 C579 1.390 . S
C574 H565 0.930 . S
C574 C572 1.384 . S
C574 C575 1.372 . S
C575 C574 1.372 . S
C575 C576 1.400 . S
C575 C580 1.490 . S
C576 H566 0.930 . S
C576 C575 1.400 . S
C576 C579 1.386 . S
H577 C593 0.930 . S
H578 C594 0.931 . S
C579 H567 0.929 . S
C579 C573 1.390 . S
C579 C576 1.386 . S
C580 C575 1.490 . S
C580 C582 1.395 . S
C580 C583 1.403 . S
H581 C587 0.930 . S
C582 H568 0.930 . S
C582 C580 1.395 . S
C582 C585 1.403 . S
C583 C580 1.403 . S
C583 C584 1.524 . S
C583 C587 1.400 . S
C584 H569 0.960 . S
C584 H570 0.960 . S
C584 H571 0.960 . S
C584 C583 1.524 . S
C585 C582 1.403 . S
C585 C586 1.392 . S
C585 C589 1.495 . S
C586 C585 1.392 . S
C586 C587 1.385 . S
C586 C588 1.478 . S
C587 H581 0.930 . S
C587 C583 1.400 . S
C587 C586 1.385 . S
C588 C586 1.478 . S
C588 C590 1.381 . S
C588 C594 1.383 . S
C589 C585 1.495 . S
C589 H595 0.959 . S
C589 H596 0.961 . S
C589 H597 0.960 . S
C590 C588 1.381 . S
C590 C591 1.394 . S
C590 H598 0.930 . S
C591 C590 1.394 . S
C591 C592 1.383 . S
C591 H599 0.929 . S
C592 C591 1.383 . S
C592 C593 1.377 . S
C593 H577 0.930 . S
C593 C592 1.377 . S
C593 C594 1.379 . S
C594 H578 0.931 . S
C594 C588 1.383 . S
C594 C593 1.379 . S
H595 C589 0.959 . S
H596 C589 0.961 . S
H597 C589 0.960 . S
H598 C590 0.930 . S
H599 C591 0.929 . S
H600 C608 0.929 . S
H601 C610 0.930 . S
H602 C612 0.930 . S
H603 C615 0.929 . S
H604 C618 0.930 . S
H605 C620 0.960 . S
H606 C620 0.960 . S
H607 C620 0.960 . S
C608 H600 0.929 . S
C608 C609 1.377 . S
C608 C610 1.384 . S
C609 C608 1.377 . S
C609 C615 1.390 . S
C610 H601 0.930 . S
C610 C608 1.384 . S
C610 C611 1.372 . S
C611 C610 1.372 . S
C611 C612 1.400 . S
C611 C616 1.490 . S
C612 H602 0.930 . S
C612 C611 1.400 . S
C612 C615 1.386 . S
H613 C629 0.930 . S
H614 C630 0.931 . S
C615 H603 0.929 . S
C615 C609 1.390 . S
C615 C612 1.386 . S
C616 C611 1.490 . S
C616 C618 1.395 . S
C616 C619 1.403 . S
H617 C623 0.930 . S
C618 H604 0.930 . S
C618 C616 1.395 . S
C618 C621 1.403 . S
C619 C616 1.403 . S
C619 C620 1.524 . S
C619 C623 1.400 . S
C620 H605 0.960 . S
C620 H606 0.960 . S
C620 H607 0.960 . S
C620 C619 1.524 . S
C621 C618 1.403 . S
C621 C622 1.392 . S
C621 C625 1.495 . S
C622 C621 1.392 . S
C622 C623 1.385 . S
C622 C624 1.478 . S
C623 H617 0.930 . S
C623 C619 1.400 . S
C623 C622 1.385 . S
C624 C622 1.478 . S
C624 C626 1.381 . S
C624 C630 1.383 . S
C625 C621 1.495 . S
C625 H631 0.959 . S
C625 H632 0.961 . S
C625 H633 0.960 . S
C626 C624 1.381 . S
C626 C627 1.394 . S
C626 H634 0.930 . S
C627 C626 1.394 . S
C627 C628 1.383 . S
C627 H635 0.929 . S
C628 C627 1.383 . S
C628 C629 1.377 . S
C629 H613 0.930 . S
C629 C628 1.377 . S
C629 C630 1.379 . S
C630 H614 0.931 . S
C630 C624 1.383 . S
C630 C629 1.379 . S
H631 C625 0.959 . S
H632 C625 0.961 . S
H633 C625 0.960 . S
H634 C626 0.930 . S
H635 C627 0.929 . S
H636 C644 0.929 . S
H637 C646 0.930 . S
H638 C648 0.930 . S
H639 C651 0.929 . S
H640 C654 0.930 . S
H641 C656 0.960 . S
H642 C656 0.960 . S
H643 C656 0.960 . S
C644 H636 0.929 . S
C644 C645 1.377 . S
C644 C646 1.384 . S
C645 C644 1.377 . S
C645 C651 1.390 . S
C646 H637 0.930 . S
C646 C644 1.384 . S
C646 C647 1.372 . S
C647 C646 1.372 . S
C647 C648 1.400 . S
C647 C652 1.490 . S
C648 H638 0.930 . S
C648 C647 1.400 . S
C648 C651 1.386 . S
H649 C665 0.930 . S
H650 C666 0.931 . S
C651 H639 0.929 . S
C651 C645 1.390 . S
C651 C648 1.386 . S
C652 C647 1.490 . S
C652 C654 1.395 . S
C652 C655 1.403 . S
H653 C659 0.930 . S
C654 H640 0.930 . S
C654 C652 1.395 . S
C654 C657 1.403 . S
C655 C652 1.403 . S
C655 C656 1.524 . S
C655 C659 1.400 . S
C656 H641 0.960 . S
C656 H642 0.960 . S
C656 H643 0.960 . S
C656 C655 1.524 . S
C657 C654 1.403 . S
C657 C658 1.392 . S
C657 C661 1.495 . S
C658 C657 1.392 . S
C658 C659 1.385 . S
C658 C660 1.478 . S
C659 H653 0.930 . S
C659 C655 1.400 . S
C659 C658 1.385 . S
C660 C658 1.478 . S
C660 C662 1.381 . S
C660 C666 1.383 . S
C661 C657 1.495 . S
C661 H667 0.959 . S
C661 H668 0.961 . S
C661 H669 0.960 . S
C662 C660 1.381 . S
C662 C663 1.394 . S
C662 H670 0.930 . S
C663 C662 1.394 . S
C663 C664 1.383 . S
C663 H671 0.929 . S
C664 C663 1.383 . S
C664 C665 1.377 . S
C665 H649 0.930 . S
C665 C664 1.377 . S
C665 C666 1.379 . S
C666 H650 0.931 . S
C666 C660 1.383 . S
C666 C665 1.379 . S
H667 C661 0.959 . S
H668 C661 0.961 . S
H669 C661 0.960 . S
H670 C662 0.930 . S
H671 C663 0.929 . S
H672 C680 0.929 . S
H673 C682 0.930 1_556 S
H674 C684 0.930 . S
H675 C687 0.929 . S
H676 C690 0.930 . S
H677 C692 0.960 . S
H678 C692 0.960 . S
H679 C692 0.960 1_554 S
C680 H672 0.929 . S
C680 C681 1.377 . S
C680 C682 1.384 . S
C681 C680 1.377 . S
C681 C687 1.390 . S
C682 H673 0.930 1_554 S
C682 C680 1.384 . S
C682 C683 1.372 . S
C683 C682 1.372 . S
C683 C684 1.400 . S
C683 C688 1.490 . S
C684 H674 0.930 . S
C684 C683 1.400 . S
C684 C687 1.386 . S
H685 C701 0.930 . S
H686 C702 0.931 1_554 S
C687 H675 0.929 . S
C687 C681 1.390 . S
C687 C684 1.386 . S
C688 C683 1.490 . S
C688 C690 1.395 . S
C688 C691 1.403 1_554 S
H689 C695 0.930 . S
C690 H676 0.930 . S
C690 C688 1.395 . S
C690 C693 1.403 . S
C691 C688 1.403 1_556 S
C691 C692 1.524 . S
C691 C695 1.400 . S
C692 H677 0.960 . S
C692 H678 0.960 . S
C692 H679 0.960 1_556 S
C692 C691 1.524 . S
C693 C690 1.403 . S
C693 C694 1.392 1_554 S
C693 C697 1.495 . S
C694 C693 1.392 1_556 S
C694 C695 1.385 . S
C694 C696 1.478 . S
C695 H689 0.930 . S
C695 C691 1.400 . S
C695 C694 1.385 . S
C696 C694 1.478 . S
C696 C698 1.381 . S
C696 C702 1.383 . S
C697 C693 1.495 . S
C697 H703 0.959 . S
C697 H704 0.961 . S
C697 H705 0.960 1_554 S
C698 C696 1.381 . S
C698 C699 1.394 . S
C698 H706 0.930 . S
C699 C698 1.394 . S
C699 C700 1.383 . S
C699 H707 0.929 . S
C700 C699 1.383 . S
C700 C701 1.377 . S
C701 H685 0.930 . S
C701 C700 1.377 . S
C701 C702 1.379 . S
C702 H686 0.931 1_556 S
C702 C696 1.383 . S
C702 C701 1.379 . S
H703 C697 0.959 . S
H704 C697 0.961 . S
H705 C697 0.960 1_556 S
H706 C698 0.930 . S
H707 C699 0.929 . S
H708 C716 0.929 . S
H709 C718 0.930 . S
H710 C720 0.930 . S
H711 C723 0.929 . S
H712 C726 0.930 . S
H713 C728 0.960 . S
H714 C728 0.960 . S
H715 C728 0.960 . S
C716 H708 0.929 . S
C716 C717 1.377 . S
C716 C718 1.384 . S
C717 C716 1.377 . S
C717 C723 1.390 . S
C718 H709 0.930 . S
C718 C716 1.384 . S
C718 C719 1.372 . S
C719 C718 1.372 . S
C719 C720 1.400 . S
C719 C724 1.490 . S
C720 H710 0.930 . S
C720 C719 1.400 . S
C720 C723 1.386 . S
H721 C737 0.930 . S
H722 C738 0.931 . S
C723 H711 0.929 . S
C723 C717 1.390 . S
C723 C720 1.386 . S
C724 C719 1.490 . S
C724 C726 1.395 . S
C724 C727 1.403 . S
H725 C731 0.930 . S
C726 H712 0.930 . S
C726 C724 1.395 . S
C726 C729 1.403 . S
C727 C724 1.403 . S
C727 C728 1.524 . S
C727 C731 1.400 . S
C728 H713 0.960 . S
C728 H714 0.960 . S
C728 H715 0.960 . S
C728 C727 1.524 . S
C729 C726 1.403 . S
C729 C730 1.392 . S
C729 C733 1.495 . S
C730 C729 1.392 . S
C730 C731 1.385 . S
C730 C732 1.478 . S
C731 H725 0.930 . S
C731 C727 1.400 . S
C731 C730 1.385 . S
C732 C730 1.478 . S
C732 C734 1.381 . S
C732 C738 1.383 . S
C733 C729 1.495 . S
C733 H739 0.959 . S
C733 H740 0.961 . S
C733 H741 0.960 . S
C734 C732 1.381 . S
C734 C735 1.394 . S
C734 H742 0.930 . S
C735 C734 1.394 . S
C735 C736 1.383 . S
C735 H743 0.929 . S
C736 C735 1.383 . S
C736 C737 1.377 . S
C737 H721 0.930 . S
C737 C736 1.377 . S
C737 C738 1.379 . S
C738 H722 0.931 . S
C738 C732 1.383 . S
C738 C737 1.379 . S
H739 C733 0.959 . S
H740 C733 0.961 . S
H741 C733 0.960 . S
H742 C734 0.930 . S
H743 C735 0.929 . S
H744 C752 0.929 . S
H745 C754 0.930 . S
H746 C756 0.930 . S
H747 C759 0.929 . S
H748 C762 0.930 . S
H749 C764 0.960 . S
H750 C764 0.960 . S
H751 C764 0.960 . S
C752 H744 0.929 . S
C752 C753 1.377 . S
C752 C754 1.384 . S
C753 C752 1.377 . S
C753 C759 1.390 . S
C754 H745 0.930 . S
C754 C752 1.384 . S
C754 C755 1.372 . S
C755 C754 1.372 . S
C755 C756 1.400 . S
C755 C760 1.490 . S
C756 H746 0.930 . S
C756 C755 1.400 . S
C756 C759 1.386 . S
H757 C773 0.930 . S
H758 C774 0.931 . S
C759 H747 0.929 . S
C759 C753 1.390 . S
C759 C756 1.386 . S
C760 C755 1.490 . S
C760 C762 1.395 . S
C760 C763 1.403 . S
H761 C767 0.930 . S
C762 H748 0.930 . S
C762 C760 1.395 . S
C762 C765 1.403 . S
C763 C760 1.403 . S
C763 C764 1.524 . S
C763 C767 1.400 . S
C764 H749 0.960 . S
C764 H750 0.960 . S
C764 H751 0.960 . S
C764 C763 1.524 . S
C765 C762 1.403 . S
C765 C766 1.392 . S
C765 C769 1.495 . S
C766 C765 1.392 . S
C766 C767 1.385 . S
C766 C768 1.478 . S
C767 H761 0.930 . S
C767 C763 1.400 . S
C767 C766 1.385 . S
C768 C766 1.478 . S
C768 C770 1.381 . S
C768 C774 1.383 . S
C769 C765 1.495 . S
C769 H775 0.959 . S
C769 H776 0.961 . S
C769 H777 0.960 . S
C770 C768 1.381 . S
C770 C771 1.394 . S
C770 H778 0.930 . S
C771 C770 1.394 . S
C771 C772 1.383 . S
C771 H779 0.929 . S
C772 C771 1.383 . S
C772 C773 1.377 . S
C773 H757 0.930 . S
C773 C772 1.377 . S
C773 C774 1.379 . S
C774 H758 0.931 . S
C774 C768 1.383 . S
C774 C773 1.379 . S
H775 C769 0.959 . S
H776 C769 0.961 . S
H777 C769 0.960 . S
H778 C770 0.930 . S
H779 C771 0.929 . S
H780 C788 0.929 . S
H781 C790 0.930 . S
H782 C792 0.930 1_556 S
H783 C795 0.929 . S
H784 C798 0.930 . S
H785 C800 0.960 . S
H786 C800 0.960 . S
H787 C800 0.960 1_556 S
C788 H780 0.929 . S
C788 C789 1.377 . S
C788 C790 1.384 . S
C789 C788 1.377 . S
C789 C795 1.390 . S
C790 H781 0.930 . S
C790 C788 1.384 . S
C790 C791 1.372 . S
C791 C790 1.372 . S
C791 C792 1.400 . S
C791 C796 1.490 . S
C792 H782 0.930 1_554 S
C792 C791 1.400 . S
C792 C795 1.386 . S
H793 C809 0.930 . S
H794 C810 0.931 . S
C795 H783 0.929 . S
C795 C789 1.390 . S
C795 C792 1.386 . S
C796 C791 1.490 . S
C796 C798 1.395 . S
C796 C799 1.403 . S
H797 C803 0.930 . S
C798 H784 0.930 . S
C798 C796 1.395 . S
C798 C801 1.403 1_554 S
C799 C796 1.403 . S
C799 C800 1.524 . S
C799 C803 1.400 1_554 S
C800 H785 0.960 . S
C800 H786 0.960 . S
C800 H787 0.960 1_554 S
C800 C799 1.524 . S
C801 C798 1.403 1_556 S
C801 C802 1.392 . S
C801 C805 1.495 . S
C802 C801 1.392 . S
C802 C803 1.385 . S
C802 C804 1.478 . S
C803 H797 0.930 . S
C803 C799 1.400 1_556 S
C803 C802 1.385 . S
C804 C802 1.478 . S
C804 C806 1.381 . S
C804 C810 1.383 . S
C805 C801 1.495 . S
C805 H811 0.959 1_556 S
C805 H812 0.961 . S
C805 H813 0.960 1_556 S
C806 C804 1.381 . S
C806 C807 1.394 . S
C806 H814 0.930 1_556 S
C807 C806 1.394 . S
C807 C808 1.383 . S
C807 H815 0.941 . S
C808 C807 1.383 . S
C808 C809 1.377 . S
C809 H793 0.930 . S
C809 C808 1.377 . S
C809 C810 1.379 . S
C810 H794 0.931 . S
C810 C804 1.383 . S
C810 C809 1.379 . S
H811 C805 0.959 1_554 S
H812 C805 0.961 . S
H813 C805 0.960 1_554 S
H814 C806 0.930 1_554 S
H815 C807 0.941 . S
H816 C824 0.929 . S
H817 C826 0.930 . S
H818 C828 0.930 1_565 S
H819 C831 0.955 . S
H820 C834 0.930 . S
H821 C836 0.960 . S
H822 C836 0.960 . S
H823 C836 0.960 . S
C824 H816 0.929 . S
C824 C825 1.377 . S
C824 C826 1.384 . S
C825 C824 1.377 . S
C825 C831 1.390 . S
C826 H817 0.930 . S
C826 C824 1.384 . S
C826 C827 1.372 . S
C827 C826 1.372 . S
C827 C828 1.400 . S
C827 C832 1.490 . S
C828 H818 0.930 1_545 S
C828 C827 1.400 . S
C828 C831 1.386 . S
H829 C845 0.930 . S
H830 C846 0.931 . S
C831 H819 0.955 . S
C831 C825 1.390 . S
C831 C828 1.386 . S
C832 C827 1.490 . S
C832 C834 1.395 1_545 S
C832 C835 1.403 . S
H833 C839 0.930 . S
C834 H820 0.930 . S
C834 C832 1.395 1_565 S
C834 C837 1.403 . S
C835 C832 1.403 . S
C835 C836 1.524 . S
C835 C839 1.400 . S
C836 H821 0.960 . S
C836 H822 0.960 . S
C836 H823 0.960 . S
C836 C835 1.524 . S
C837 C834 1.403 . S
C837 C838 1.392 . S
C837 C841 1.495 . S
C838 C837 1.392 . S
C838 C839 1.385 1_565 S
C838 C840 1.478 . S
C839 H833 0.930 . S
C839 C835 1.400 . S
C839 C838 1.385 1_545 S
C840 C838 1.478 . S
C840 C842 1.381 . S
C840 C846 1.383 . S
C841 C837 1.495 . S
C841 H847 0.959 . S
C841 H848 0.961 . S
C841 H849 0.960 . S
C842 C840 1.381 . S
C842 C843 1.394 . S
C842 H850 0.930 1_565 S
C843 C842 1.394 . S
C843 C844 1.383 . S
C843 H851 0.929 1_565 S
C844 C843 1.383 . S
C844 C845 1.377 . S
C845 H829 0.930 . S
C845 C844 1.377 . S
C845 C846 1.379 . S
C846 H830 0.931 . S
C846 C840 1.383 . S
C846 C845 1.379 . S
H847 C841 0.959 . S
H848 C841 0.961 . S
H849 C841 0.960 . S
H850 C842 0.930 1_545 S
H851 C843 0.929 1_545 S
H852 C860 0.929 . S
H853 C862 0.930 . S
H854 C864 0.930 . S
H855 C867 0.929 . S
H856 C870 0.930 . S
H857 C872 0.960 . S
H858 C872 0.960 . S
H859 C872 0.960 . S
C860 H852 0.929 . S
C860 C861 1.377 . S
C860 C862 1.384 . S
C861 C860 1.377 . S
C861 C867 1.390 . S
C862 H853 0.930 . S
C862 C860 1.384 . S
C862 C863 1.372 . S
C863 C862 1.372 . S
C863 C864 1.400 . S
C863 C868 1.490 . S
C864 H854 0.930 . S
C864 C863 1.400 . S
C864 C867 1.386 . S
H865 C881 0.930 . S
H866 C882 0.931 . S
C867 H855 0.929 . S
C867 C861 1.390 . S
C867 C864 1.386 . S
C868 C863 1.490 . S
C868 C870 1.395 . S
C868 C871 1.403 . S
H869 C875 0.930 . S
C870 H856 0.930 . S
C870 C868 1.395 . S
C870 C873 1.403 . S
C871 C868 1.403 . S
C871 C872 1.524 . S
C871 C875 1.400 . S
C872 H857 0.960 . S
C872 H858 0.960 . S
C872 H859 0.960 . S
C872 C871 1.524 . S
C873 C870 1.403 . S
C873 C874 1.392 . S
C873 C877 1.495 . S
C874 C873 1.392 . S
C874 C875 1.385 . S
C874 C876 1.478 . S
C875 H869 0.930 . S
C875 C871 1.400 . S
C875 C874 1.385 . S
C876 C874 1.478 . S
C876 C878 1.381 . S
C876 C882 1.383 . S
C877 C873 1.495 . S
C877 H883 0.959 . S
C877 H884 0.961 . S
C877 H885 0.960 . S
C878 C876 1.381 . S
C878 C879 1.394 . S
C878 H886 0.930 . S
C879 C878 1.394 . S
C879 C880 1.383 . S
C879 H887 0.929 . S
C880 C879 1.383 . S
C880 C881 1.377 . S
C881 H865 0.930 . S
C881 C880 1.377 . S
C881 C882 1.379 . S
C882 H866 0.931 . S
C882 C876 1.383 . S
C882 C881 1.379 . S
H883 C877 0.959 . S
H884 C877 0.961 . S
H885 C877 0.960 . S
H886 C878 0.930 . S
H887 C879 0.929 . S
H888 C896 0.929 . S
H889 C898 0.930 . S
H890 C900 0.930 . S
H891 C903 0.929 . S
H892 C906 0.911 . S
H893 C908 0.967 . S
H894 C908 0.962 . S
H895 C908 0.958 1_455 S
C896 H888 0.929 . S
C896 C897 1.377 1_655 S
C896 C898 1.384 . S
C897 C896 1.377 1_455 S
C897 C903 1.390 . S
C898 H889 0.930 . S
C898 C896 1.384 . S
C898 C899 1.372 1_655 S
C899 C898 1.372 1_455 S
C899 C900 1.400 . S
C899 C904 1.492 . S
C900 H890 0.930 . S
C900 C899 1.400 . S
C900 C903 1.386 . S
H901 C917 0.930 . S
H902 C918 0.931 . S
C903 H891 0.929 . S
C903 C897 1.390 . S
C903 C900 1.386 . S
C904 C899 1.492 . S
C904 C906 1.384 1_455 S
C904 C907 1.414 1_455 S
H905 C911 0.930 . S
C906 H892 0.911 . S
C906 C904 1.384 1_655 S
C906 C909 1.403 . S
C907 C904 1.414 1_655 S
C907 C908 1.523 . S
C907 C911 1.400 . S
C908 H893 0.967 . S
C908 H894 0.962 . S
C908 H895 0.958 1_655 S
C908 C907 1.523 . S
C909 C906 1.403 . S
C909 C910 1.392 . S
C909 C913 1.495 . S
C910 C909 1.392 . S
C910 C911 1.385 . S
C910 C912 1.478 . S
C911 H905 0.930 . S
C911 C907 1.400 . S
C911 C910 1.385 . S
C912 C910 1.478 . S
C912 C914 1.381 . S
C912 C918 1.383 1_655 S
C913 C909 1.495 . S
C913 H919 0.959 . S
C913 H920 0.961 1_655 S
C913 H921 0.960 . S
C914 C912 1.381 . S
C914 C915 1.394 . S
C914 H922 0.930 . S
C915 C914 1.394 . S
C915 C916 1.383 . S
C915 H923 0.929 . S
C916 C915 1.383 . S
C916 C917 1.377 1_655 S
C917 H901 0.930 . S
C917 C916 1.377 1_455 S
C917 C918 1.379 . S
C918 H902 0.931 . S
C918 C912 1.383 1_455 S
C918 C917 1.379 . S
H919 C913 0.959 . S
H920 C913 0.961 1_455 S
H921 C913 0.960 . S
H922 C914 0.930 . S
H923 C915 0.929 . S
H924 C932 0.929 . S
H925 C934 0.930 . S
H926 C936 0.930 . S
H927 C939 0.929 . S
H928 C942 0.930 . S
H929 C944 0.960 . S
H930 C944 0.960 . S
H931 C944 0.960 . S
C932 H924 0.929 . S
C932 C933 1.377 1_545 S
C932 C934 1.384 . S
C933 C932 1.377 1_565 S
C933 C939 1.390 . S
C934 H925 0.930 . S
C934 C932 1.384 . S
C934 C935 1.372 1_545 S
C935 C934 1.372 1_565 S
C935 C936 1.400 . S
C935 C940 1.490 1_565 S
C936 H926 0.930 . S
C936 C935 1.400 . S
C936 C939 1.386 . S
H937 C953 0.930 . S
H938 C954 0.931 . S
C939 H927 0.929 . S
C939 C933 1.390 . S
C939 C936 1.386 . S
C940 C935 1.490 1_545 S
C940 C942 1.395 . S
C940 C943 1.403 1_545 S
H941 C947 0.930 . S
C942 H928 0.930 . S
C942 C940 1.395 . S
C942 C945 1.403 . S
C943 C940 1.403 1_565 S
C943 C944 1.524 . S
C943 C947 1.400 . S
C944 H929 0.960 . S
C944 H930 0.960 . S
C944 H931 0.960 . S
C944 C943 1.524 . S
C945 C942 1.403 . S
C945 C946 1.392 . S
C945 C949 1.495 . S
C946 C945 1.392 . S
C946 C947 1.385 1_545 S
C946 C948 1.478 . S
C947 H941 0.930 . S
C947 C943 1.400 . S
C947 C946 1.385 1_565 S
C948 C946 1.478 . S
C948 C950 1.381 . S
C948 C954 1.383 1_545 S
C949 C945 1.495 . S
C949 H955 0.959 . S
C949 H956 0.961 . S
C949 H957 0.960 . S
C950 C948 1.381 . S
C950 C951 1.394 . S
C950 H958 0.930 . S
C951 C950 1.394 . S
C951 C952 1.383 . S
C951 H959 0.929 . S
C952 C951 1.383 . S
C952 C953 1.377 1_545 S
C953 H937 0.930 . S
C953 C952 1.377 1_565 S
C953 C954 1.379 . S
C954 H938 0.931 . S
C954 C948 1.383 1_565 S
C954 C953 1.379 . S
H955 C949 0.959 . S
H956 C949 0.961 . S
H957 C949 0.960 . S
H958 C950 0.930 . S
H959 C951 0.929 . S
H960 C968 0.929 . S
H961 C970 0.930 . S
H962 C972 0.930 . S
H963 C975 0.929 . S
H964 C978 0.930 . S
H965 C980 0.960 . S
H966 C980 0.960 . S
H967 C980 0.960 . S
C968 H960 0.929 . S
C968 C969 1.377 . S
C968 C970 1.384 . S
C969 C968 1.377 . S
C969 C975 1.390 . S
C970 H961 0.930 . S
C970 C968 1.384 . S
C970 C971 1.372 . S
C971 C970 1.372 . S
C971 C972 1.400 . S
C971 C976 1.490 . S
C972 H962 0.930 . S
C972 C971 1.400 . S
C972 C975 1.386 . S
H973 C989 0.930 . S
H974 C990 0.931 . S
C975 H963 0.929 . S
C975 C969 1.390 . S
C975 C972 1.386 . S
C976 C971 1.490 . S
C976 C978 1.395 . S
C976 C979 1.403 . S
H977 C983 0.930 . S
C978 H964 0.930 . S
C978 C976 1.395 . S
C978 C981 1.403 . S
C979 C976 1.403 . S
C979 C980 1.524 . S
C979 C983 1.400 . S
C980 H965 0.960 . S
C980 H966 0.960 . S
C980 H967 0.960 . S
C980 C979 1.524 . S
C981 C978 1.403 . S
C981 C982 1.392 . S
C981 C985 1.495 . S
C982 C981 1.392 . S
C982 C983 1.385 . S
C982 C984 1.478 . S
C983 H977 0.930 . S
C983 C979 1.400 . S
C983 C982 1.385 . S
C984 C982 1.478 . S
C984 C986 1.381 . S
C984 C990 1.383 . S
C985 C981 1.495 . S
C985 H991 0.959 . S
C985 H992 0.961 . S
C985 H993 0.960 . S
C986 C984 1.381 . S
C986 C987 1.394 . S
C986 H994 0.930 . S
C987 C986 1.394 . S
C987 C988 1.383 . S
C987 H995 0.929 . S
C988 C987 1.383 . S
C988 C989 1.377 . S
C989 H973 0.930 . S
C989 C988 1.377 . S
C989 C990 1.379 . S
C990 H974 0.931 . S
C990 C984 1.383 . S
C990 C989 1.379 . S
H991 C985 0.959 . S
H992 C985 0.961 . S
H993 C985 0.960 . S
H994 C986 0.930 . S
H995 C987 0.929 . S
H996 C1004 0.929 . S
H997 C1006 0.930 . S
H998 C1008 0.930 . S
H999 C1011 0.929 . S
H1000 C1014 0.930 . S
H1001 C1016 0.960 . S
H1002 C1016 0.960 . S
H1003 C1016 0.960 1_655 S
C1004 H996 0.929 . S
C1004 C1005 1.377 1_455 S
C1004 C1006 1.384 . S
C1005 C1004 1.377 1_655 S
C1005 C1011 1.390 . S
C1006 H997 0.930 . S
C1006 C1004 1.384 . S
C1006 C1007 1.372 1_455 S
C1007 C1006 1.372 1_655 S
C1007 C1008 1.400 . S
C1007 C1012 1.493 . S
C1008 H998 0.930 . S
C1008 C1007 1.400 . S
C1008 C1011 1.386 . S
H1009 C1025 0.930 . S
H1010 C1026 0.931 . S
C1011 H999 0.929 . S
C1011 C1005 1.390 . S
C1011 C1008 1.386 . S
C1012 C1007 1.493 . S
C1012 C1014 1.382 . S
C1012 C1015 1.413 1_655 S
H1013 C1019 0.930 . S
C1014 H1000 0.930 . S
C1014 C1012 1.382 . S
C1014 C1017 1.403 . S
C1015 C1012 1.413 1_455 S
C1015 C1016 1.524 . S
C1015 C1019 1.400 . S
C1016 H1001 0.960 . S
C1016 H1002 0.960 . S
C1016 H1003 0.960 1_455 S
C1016 C1015 1.524 . S
C1017 C1014 1.403 . S
C1017 C1018 1.392 1_655 S
C1017 C1021 1.495 . S
C1018 C1017 1.392 1_455 S
C1018 C1019 1.385 . S
C1018 C1020 1.478 . S
C1019 H1013 0.930 . S
C1019 C1015 1.400 . S
C1019 C1018 1.385 . S
C1020 C1018 1.478 . S
C1020 C1022 1.381 . S
C1020 C1026 1.383 1_455 S
C1021 C1017 1.495 . S
C1021 H1027 0.959 . S
C1021 H1028 0.961 . S
C1021 H1029 0.960 1_655 S
C1022 C1020 1.381 . S
C1022 C1023 1.394 . S
C1022 H1030 0.930 . S
C1023 C1022 1.394 . S
C1023 C1024 1.383 . S
C1023 H1031 0.929 . S
C1024 C1023 1.383 . S
C1024 C1025 1.377 1_455 S
C1025 H1009 0.930 . S
C1025 C1024 1.377 1_655 S
C1025 C1026 1.379 . S
C1026 H1010 0.931 . S
C1026 C1020 1.383 1_655 S
C1026 C1025 1.379 . S
H1027 C1021 0.959 . S
H1028 C1021 0.961 . S
H1029 C1021 0.960 1_455 S
H1030 C1022 0.930 . S
H1031 C1023 0.929 . S
C177 C11 1.763 . S
C196 C123 1.759 . S
C213 C25 1.765 . S
C232 C137 1.752 . S
C249 C151 1.763 . S
C268 C39 1.765 . S
C285 C165 1.763 . S
C304 C53 1.765 . S
C321 C95 1.763 . S
C340 C67 1.761 . S
C357 C109 1.763 . S
C376 C81 1.765 . S
C393 C13 1.306 . S
C412 C55 1.353 . S
C429 C69 1.304 . S
C448 C27 1.349 . S
C465 C83 1.320 . S
C484 C41 1.265 . S
C501 C97 1.310 . S
C520 C139 1.348 1_455 S
C537 C153 1.319 . S
C556 C111 1.266 . S
C573 C125 1.309 . S
C592 C167 1.349 . S
C609 C91 0.887 . S
C628 C7 0.910 . S
C645 C21 0.891 . S
C664 C105 0.936 . S
C681 C119 0.888 . S
C700 C35 0.898 . S
C717 C133 0.889 . S
C736 C49 0.885 . S
C753 C63 0.894 . S
C772 C147 0.937 . S
C789 C161 0.904 . S
C808 C77 0.882 . S
C825 C8 0.887 . S
C844 C106 0.922 . S
C861 C120 0.874 . S
C880 C22 0.897 . S
C897 C134 0.877 . S
C916 C36 0.836 . S
C933 C50 0.883 . S
C952 C148 0.862 . S
C969 C162 0.870 . S
C988 C64 0.829 . S
C1005 C92 0.875 . S
C1024 C78 0.833 . S
