# Generated by pormake.
# Topology afw, (4)-cn, num edge types: 1
# Building blocks:
#     Node 0, Type 0, BuildingBlock: GALJAG_clean_sbu_0, # of connection points: 4
#     Node 1, Type 0, BuildingBlock: GALJAG_clean_sbu_0, # of connection points: 4
#     Node 2, Type 0, BuildingBlock: GALJAG_clean_sbu_0, # of connection points: 4
#     Node 3, Type 0, BuildingBlock: GALJAG_clean_sbu_0, # of connection points: 4
#     Node 4, Type 0, BuildingBlock: GALJAG_clean_sbu_0, # of connection points: 4
#     Node 5, Type 0, BuildingBlock: GALJAG_clean_sbu_0, # of connection points: 4
#     Node 6, Type 0, BuildingBlock: GALJAG_clean_sbu_0, # of connection points: 4
#     Node 7, Type 0, BuildingBlock: GALJAG_clean_sbu_0, # of connection points: 4
#     Node 8, Type 0, BuildingBlock: GALJAG_clean_sbu_0, # of connection points: 4
#     Edge 9, Type (0, 0), BuildingBlock: UVAHIK_clean_linker_0, # of connection points: 2
#     Edge 10, Type (0, 0), BuildingBlock: UVAHIK_clean_linker_0, # of connection points: 2
#     Edge 11, Type (0, 0), BuildingBlock: UVAHIK_clean_linker_0, # of connection points: 2
#     Edge 12, Type (0, 0), BuildingBlock: UVAHIK_clean_linker_0, # of connection points: 2
#     Edge 13, Type (0, 0), BuildingBlock: UVAHIK_clean_linker_0, # of connection points: 2
#     Edge 14, Type (0, 0), BuildingBlock: UVAHIK_clean_linker_0, # of connection points: 2
#     Edge 15, Type (0, 0), BuildingBlock: UVAHIK_clean_linker_0, # of connection points: 2
#     Edge 16, Type (0, 0), BuildingBlock: UVAHIK_clean_linker_0, # of connection points: 2
#     Edge 17, Type (0, 0), BuildingBlock: UVAHIK_clean_linker_0, # of connection points: 2
#     Edge 18, Type (0, 0), BuildingBlock: UVAHIK_clean_linker_0, # of connection points: 2
#     Edge 19, Type (0, 0), BuildingBlock: UVAHIK_clean_linker_0, # of connection points: 2
#     Edge 20, Type (0, 0), BuildingBlock: UVAHIK_clean_linker_0, # of connection points: 2
#     Edge 21, Type (0, 0), BuildingBlock: UVAHIK_clean_linker_0, # of connection points: 2
#     Edge 22, Type (0, 0), BuildingBlock: UVAHIK_clean_linker_0, # of connection points: 2
#     Edge 23, Type (0, 0), BuildingBlock: UVAHIK_clean_linker_0, # of connection points: 2
#     Edge 24, Type (0, 0), BuildingBlock: UVAHIK_clean_linker_0, # of connection points: 2
#     Edge 25, Type (0, 0), BuildingBlock: UVAHIK_clean_linker_0, # of connection points: 2
#     Edge 26, Type (0, 0), BuildingBlock: UVAHIK_clean_linker_0, # of connection points: 2
# Relax obj value: 0.092
# Max RMSD: 0.157
# Mean RMSD: 0.157
data_MOF--net-afw--node1-GALJAG_clean_sbu_0--edge1-UVAHIK_clean_linker_0
_symmetry_space_group_name_H-M    P1
_symmetry_Int_Tables_number       1
_symmetry_cell_setting            triclinic
loop_
_symmetry_equiv_pos_as_xyz
'x, y, z'
_cell_length_a     59.773133
_cell_length_b     59.61765
_cell_length_c     34.966325
_cell_angle_alpha  90.189012
_cell_angle_beta   89.811121
_cell_angle_gamma 120.01514
loop_
_atom_site_label
_atom_site_type_symbol
_atom_site_fract_x
_atom_site_fract_y
_atom_site_fract_z
_atom_type_partial_charge
In0 In 0.01623 0.20134 0.0242 0.0
O1 O 0.01838 0.21893 0.96559 0.0
O2 O 0.04205 0.24344 0.01083 0.0
C3 C 0.97857 0.15167 0.01956 0.0
C4 C -0.00744 0.21968 0.06844 0.0
C5 C 0.05901 0.19787 0.03181 0.0
O6 O 0.98676 0.16602 -0.00968 0.0
O7 O -0.01033 0.16234 0.05046 0.0
O8 O 0.0494 0.20372 0.05973 0.0
O9 O 0.04672 0.19334 0.00084 0.0
C10 C 0.03485 0.24157 0.97651 0.0
O11 O 0.01035 0.21617 0.08134 0.0
O12 O 0.98654 0.21331 0.03394 0.0
In13 In 0.81268 0.83043 -0.00076 0.0
O14 O 0.7964 0.81331 0.94069 0.0
O15 O 0.77123 0.81508 0.98258 0.0
C16 C 0.86145 0.83969 -0.00399 0.0
C17 C 0.79168 0.79147 0.0492 0.0
C18 C 0.82135 0.87916 0.00373 0.0
O19 O 0.84751 0.83419 0.9665 0.0
O20 O 0.85061 0.84009 0.02676 0.0
O21 O 0.81467 0.86443 0.0325 0.0
O22 O 0.82315 0.8691 0.97298 0.0
C23 C 0.77382 0.80834 0.94938 0.0
O24 O 0.79505 0.81367 0.05717 0.0
O25 O 0.79939 0.78928 0.01647 0.0
In26 In 0.18674 0.02344 0.0037 0.0
O27 O 0.20244 0.01705 0.05947 0.0
O28 O 0.22868 0.03703 0.01363 0.0
C29 C 0.13534 0.9926 0.00655 0.0
C30 C 0.19601 -0.00066 0.94668 0.0
C31 C 0.19272 0.07091 0.01203 0.0
O32 O 0.14971 -0.00667 0.03358 0.0
O33 O 0.14692 0.00782 0.97922 0.0
O34 O 0.19389 0.06209 0.9796 0.0
O35 O 0.18864 0.05583 0.0397 0.0
C36 C 0.22547 0.02818 0.04717 0.0
O37 O 0.19991 0.02215 0.94284 0.0
O38 O 0.18718 0.98898 0.97877 0.0
In39 In 0.68261 0.53628 0.35003 0.0
O40 O 0.68086 0.55093 0.29063 0.0
O41 O 0.7012 0.5784 0.33506 0.0
C42 C 0.6491 0.48521 0.34682 0.0
C43 C 0.65741 0.55173 0.39656 0.0
C44 C 0.72875 0.53896 0.35306 0.0
O45 O 0.65433 0.49961 0.31781 0.0
O46 O 0.66115 0.49655 0.37684 0.0
O47 O 0.71708 0.53929 0.38312 0.0
O48 O 0.71699 0.537 0.3223 0.0
C49 C 0.69375 0.57448 0.30071 0.0
O50 O 0.67894 0.55407 0.40591 0.0
O51 O 0.64854 0.54078 0.36482 0.0
In52 In 0.49269 0.1634 0.31908 0.0
O53 O 0.47444 0.14337 0.26291 0.0
O54 O 0.45077 0.14803 0.30429 0.0
C55 C 0.54171 0.17429 0.30933 0.0
C56 C 0.47528 0.12528 0.37057 0.0
C57 C 0.49998 0.21151 0.32673 0.0
O58 O 0.52673 0.16985 0.28138 0.0
O59 O 0.53185 0.17302 0.34171 0.0
O60 O 0.49476 0.19646 0.35485 0.0
O61 O 0.50098 0.20207 0.2949 0.0
C62 C 0.45223 0.13926 0.27205 0.0
O63 O 0.47842 0.14736 0.37869 0.0
O64 O 0.48123 0.12273 0.33682 0.0
In65 In 0.86247 0.36527 0.33306 0.0
O66 O 0.87298 0.36081 0.39407 0.0
O67 O 0.90306 0.38522 0.35521 0.0
C68 C 0.81259 0.32924 0.32487 0.0
C69 C 0.88248 0.34462 0.28588 0.0
C70 C 0.86192 0.40997 0.3348 0.0
O71 O 0.82449 0.33226 0.356 0.0
O72 O 0.82575 0.34468 0.29855 0.0
O73 O 0.87027 0.40345 0.30603 0.0
O74 O 0.85376 0.39387 0.36186 0.0
C75 C 0.89693 0.37553 0.38825 0.0
O76 O 0.8812 0.36446 0.27645 0.0
O77 O 0.87331 0.33534 0.31834 0.0
In78 In 0.33477 0.86831 0.67258 0.0
O79 O 0.34114 0.88584 0.61327 0.0
O80 O 0.36292 0.91021 0.66 0.0
C81 C 0.29651 0.81912 0.66419 0.0
C82 C 0.31056 0.88779 0.71322 0.0
C83 C 0.3748 0.86092 0.68581 0.0
O84 O 0.30613 0.83414 0.6359 0.0
O85 O 0.30608 0.82907 0.69614 0.0
O86 O 0.3639 0.86612 0.7127 0.0
O87 O 0.36555 0.85968 0.65305 0.0
C88 C 0.35788 0.90823 0.62467 0.0
O89 O 0.32712 0.88324 0.72828 0.0
O90 O 0.30622 0.88224 0.67818 0.0
In91 In 0.15955 0.49534 0.6715 0.0
O92 O 0.13767 0.47632 0.61688 0.0
O93 O 0.1182 0.48456 0.66133 0.0
C94 C 0.20471 0.49642 0.6632 0.0
C95 C 0.13841 0.45925 0.72576 0.0
C96 C 0.17332 0.5456 0.6681 0.0
O97 O 0.18856 0.48965 0.63625 0.0
O98 O 0.19812 0.50286 0.69376 0.0
O99 O 0.16637 0.53306 0.69912 0.0
O100 O 0.17354 0.53283 0.63945 0.0
C101 C 0.117 0.47502 0.62861 0.0
O102 O 0.1468 0.48295 0.73318 0.0
O103 O 0.14126 0.45426 0.69161 0.0
In104 In 0.51035 0.67521 0.66257 0.0
O105 O 0.52894 0.67522 0.71932 0.0
O106 O 0.54979 0.70651 0.68022 0.0
C107 C 0.46646 0.62943 0.65911 0.0
C108 C 0.53763 0.66604 0.61082 0.0
C109 C 0.49453 0.70993 0.66976 0.0
O110 O 0.47914 0.63769 0.68982 0.0
O111 O 0.47579 0.64437 0.6308 0.0
O112 O 0.50495 0.70803 0.63929 0.0
O113 O 0.49163 0.69398 0.69556 0.0
C114 C 0.54955 0.69614 0.71175 0.0
O115 O 0.52677 0.67896 0.60225 0.0
O116 O 0.53413 0.65763 0.64465 0.0
C117 C 0.19526 0.10577 0.0543 0.0
C118 C 0.19336 0.09573 0.01731 0.0
C119 C 0.19111 0.12653 0.06051 0.0
C120 C 0.17865 0.17485 0.0118 0.0
H121 H 0.12676 0.15513 0.09128 0.0
C122 C 0.09329 0.19176 0.00157 0.0
C123 C 0.08261 0.19601 0.03472 0.0
C124 C 0.11445 0.18804 0.00398 0.0
C125 C 0.1417 0.16146 0.06964 0.0
H126 H 0.18778 0.10073 0.95743 0.0
H127 H 0.17974 0.13647 0.96827 0.0
H128 H 0.15172 0.13339 0.08698 0.0
H129 H 0.08646 0.20108 0.09621 0.0
H130 H 0.12354 0.1943 0.10055 0.0
H131 H 0.1673 0.20189 -0.00682 0.0
C132 C 0.18484 0.12868 -0.0075 0.0
C133 C 0.15609 0.14896 0.06714 0.0
C134 C 0.18927 0.10806 0.98626 0.0
C135 C 0.09421 0.19762 0.07025 0.0
C136 C 0.11539 0.19376 0.07271 0.0
C137 C 0.16419 0.18734 0.01428 0.0
C138 C 0.18467 0.13742 0.0299 0.0
C139 C 0.17397 0.15477 0.03726 0.0
C140 C 0.12539 0.18841 0.03964 0.0
C141 C 0.14481 0.17997 0.04226 0.0
H142 H 0.19881 0.09685 0.07871 0.0
H143 H 0.19166 0.13318 0.08954 0.0
H144 H 0.19263 0.18008 -0.01109 0.0
H145 H 0.08487 0.19061 0.97373 0.0
H146 H 0.12139 0.18355 0.97804 0.0
C147 C 0.831 0.91851 0.04185 0.0
C148 C 0.82904 0.90676 0.00622 0.0
C149 C 0.84203 0.94536 0.04453 0.0
C150 C 0.86391 0.00558 -0.01155 0.0
H151 H 0.91803 0.03528 0.06486 0.0
C152 C 0.94831 0.11149 0.98332 0.0
C153 C 0.95759 0.12448 0.01829 0.0
C154 C 0.92919 0.08533 0.98276 0.0
C155 C 0.9027 0.0274 0.04381 0.0
H156 H 0.83539 0.91354 0.9452 0.0
H157 H 0.85479 0.96037 0.94991 0.0
H158 H 0.88917 0.98875 0.06301 0.0
H159 H 0.95345 0.12076 0.07996 0.0
H160 H 0.91986 0.07543 0.07898 0.0
H161 H 0.87791 0.04437 0.96882 0.0
C162 C 0.84774 0.94892 0.97575 0.0
C163 C 0.88612 0.0007 0.04281 0.0
C164 C 0.83678 0.92211 0.97309 0.0
C165 C 0.9469 0.11114 0.05257 0.0
C166 C 0.92771 0.08514 0.05202 0.0
C167 C 0.88049 0.0324 -0.01046 0.0
C168 C 0.85121 0.96089 0.0116 0.0
C169 C 0.86675 0.98945 0.01487 0.0
C170 C 0.91894 0.07179 0.01717 0.0
C171 C 0.90026 0.04356 0.01699 0.0
H172 H 0.82504 0.9071 0.06782 0.0
H173 H 0.84414 0.95407 0.07249 0.0
H174 H 0.84903 -0.00257 0.96675 0.0
H175 H 0.95622 0.12137 0.95648 0.0
H176 H 0.92304 0.07552 0.95544 0.0
C177 C 0.90258 0.85491 0.95979 0.0
C178 C 0.88908 0.8478 -0.00538 0.0
C179 C 0.92949 0.86678 0.95942 0.0
C180 C 0.98696 0.88081 0.01596 0.0
H181 H 0.01834 0.94672 0.96302 0.0
C182 C 0.0939 0.95996 0.03769 0.0
C183 C 0.10731 0.97445 0.00543 0.0
C184 C 0.06731 0.94257 0.03572 0.0
C185 C 0.01002 0.92819 0.97742 0.0
H186 H 0.89272 0.84559 0.05601 0.0
H187 H 0.93971 0.86611 0.05527 0.0
H188 H 0.972 0.91765 0.95872 0.0
H189 H 0.10373 0.98176 0.94565 0.0
H190 H 0.0578 0.95111 0.9419 0.0
H191 H 0.02508 0.89136 0.0346 0.0
C192 C 0.92956 0.86265 0.02835 0.0
C193 C 0.98345 0.91154 0.97489 0.0
C194 C 0.90271 0.85105 0.02876 0.0
C195 C 0.09383 0.97108 0.97115 0.0
C196 C 0.06744 0.95357 0.96905 0.0
C197 C 0.01368 0.89739 0.01815 0.0
C198 C 0.94323 0.87141 -0.00618 0.0
C199 C 0.97166 0.88778 -0.00573 0.0
C200 C 0.05379 0.93924 0.00134 0.0
C201 C 0.02549 0.92133 -0.00098 0.0
H202 H 0.89251 0.85256 0.93307 0.0
H203 H 0.93964 0.87317 0.93239 0.0
H204 H 0.97826 0.86255 0.03115 0.0
H205 H 0.10389 0.9622 0.06446 0.0
H206 H 0.05731 0.93206 0.06126 0.0
C207 C 0.86563 0.44965 0.3042 0.0
C208 C 0.8605 0.43392 0.33656 0.0
C209 C 0.8612 0.47056 0.30522 0.0
C210 C 0.84485 0.51015 0.37024 0.0
H211 H 0.80006 0.5052 0.28685 0.0
C212 C 0.76149 0.53123 0.38555 0.0
C213 C 0.75343 0.53909 0.35318 0.0
C214 C 0.78252 0.5271 0.38309 0.0
C215 C 0.81305 0.50748 0.30997 0.0
H216 H 0.84853 0.42872 0.39605 0.0
H217 H 0.84042 0.46471 0.39764 0.0
H218 H 0.82387 0.4823 0.28254 0.0
H219 H 0.76238 0.55139 0.2941 0.0
H220 H 0.79941 0.54489 0.29008 0.0
H221 H 0.83282 0.53434 0.39846 0.0
C222 C 0.84808 0.46123 0.37159 0.0
C223 C 0.82677 0.49431 0.30744 0.0
C224 C 0.85243 0.44038 0.37053 0.0
C225 C 0.76795 0.54485 0.31931 0.0
C226 C 0.78911 0.54108 0.31699 0.0
C227 C 0.83109 0.52339 0.37278 0.0
C228 C 0.85166 0.4761 0.33865 0.0
C229 C 0.84205 0.4947 0.33811 0.0
C230 C 0.79594 0.53107 0.34831 0.0
C231 C 0.81434 0.52143 0.3432 0.0
H232 H 0.87208 0.44521 0.27774 0.0
H233 H 0.86438 0.48186 0.2795 0.0
H234 H 0.85681 0.51113 0.3941 0.0
H235 H 0.75062 0.52672 0.41201 0.0
H236 H 0.78714 0.51921 0.4077 0.0
C237 C 0.5129 0.25468 0.29856 0.0
C238 C 0.50706 0.23887 0.33101 0.0
C239 C 0.52333 0.28136 0.30254 0.0
C240 C 0.56406 0.3326 0.36868 0.0
H241 H 0.54993 0.37612 0.30253 0.0
C242 C 0.62225 0.4434 0.38068 0.0
C243 C 0.62991 0.45735 0.34628 0.0
C244 C 0.60416 0.41701 0.3806 0.0
C245 C 0.5542 0.36421 0.32101 0.0
H246 H 0.5059 0.23821 0.393 0.0
H247 H 0.52417 0.28496 0.39996 0.0
H248 H 0.52217 0.32905 0.29976 0.0
H249 H 0.62452 0.45483 0.28484 0.0
H250 H 0.59338 0.40843 0.28449 0.0
H251 H 0.59655 0.36742 0.38901 0.0
C252 C 0.52093 0.27671 0.37148 0.0
C253 C 0.53825 0.33731 0.31955 0.0
C254 C 0.51038 0.24998 0.3675 0.0
C255 C 0.61894 0.4445 0.31177 0.0
C256 C 0.60096 0.41799 0.31164 0.0
C257 C 0.58006 0.35941 0.36999 0.0
C258 C 0.5282 0.29273 0.33905 0.0
C259 C 0.54321 0.32126 0.34311 0.0
C260 C 0.5935 0.40392 0.34606 0.0
C261 C 0.5755 0.37553 0.34591 0.0
H262 H 0.51043 0.2466 0.27006 0.0
H263 H 0.52891 0.29323 0.27704 0.0
H264 H 0.56868 0.32071 0.38664 0.0
H265 H 0.63018 0.45288 0.40779 0.0
H266 H 0.59851 0.40686 0.40767 0.0
C267 C 0.58405 0.18489 0.33737 0.0
C268 C 0.5692 0.18233 0.3049 0.0
C269 C 0.61072 0.19567 0.33434 0.0
C270 C 0.66381 0.24288 0.27678 0.0
H271 H 0.70458 0.22246 0.33818 0.0
C272 C 0.77439 0.3049 0.28259 0.0
C273 C 0.78548 0.309 0.31911 0.0
C274 C 0.74863 0.28606 0.27687 0.0
C275 C 0.69343 0.22843 0.32099 0.0
H276 H 0.57023 0.1876 0.24348 0.0
H277 H 0.61711 0.20663 0.23817 0.0
H278 H 0.65781 0.19396 0.33406 0.0
H279 H 0.77859 0.29639 0.37818 0.0
H280 H 0.73328 0.26383 0.36845 0.0
H281 H 0.69909 0.27776 0.26489 0.0
C282 C 0.60806 0.20043 0.26597 0.0
C283 C 0.66672 0.21209 0.31851 0.0
C284 C 0.58128 0.18947 0.26898 0.0
C285 C 0.77049 0.29363 0.34974 0.0
C286 C 0.74463 0.27485 0.34406 0.0
C287 C 0.69046 0.25925 0.27937 0.0
C288 C 0.62308 0.2042 0.2988 0.0
C289 C 0.65161 0.21942 0.297 0.0
C290 C 0.73338 0.27103 0.30761 0.0
C291 C 0.70549 0.25244 0.30211 0.0
H292 H 0.5752 0.17943 0.36541 0.0
H293 H 0.6218 0.19857 0.3602 0.0
H294 H 0.65262 0.24925 0.26051 0.0
H295 H 0.7856 0.3163 0.25834 0.0
H296 H 0.74064 0.28333 0.24835 0.0
C297 C 0.39939 0.84691 0.72783 0.0
C298 C 0.39533 0.85452 0.69178 0.0
C299 C 0.41575 0.83658 0.73154 0.0
C300 C 0.46497 0.82674 0.68085 0.0
H301 H 0.42985 0.75932 0.72943 0.0
C302 C 0.48835 0.74606 0.64599 0.0
C303 C 0.48695 0.72971 0.67579 0.0
C304 C 0.48093 0.76461 0.65225 0.0
C305 C 0.44023 0.7783 0.71638 0.0
H306 H 0.40662 0.85933 0.63203 0.0
H307 H 0.43505 0.84142 0.63847 0.0
H308 H 0.41194 0.78787 0.73497 0.0
H309 H 0.47748 0.72037 0.73575 0.0
H310 H 0.46495 0.75286 0.74677 0.0
H311 H 0.4929 0.81679 0.66136 0.0
C312 C 0.42573 0.84335 0.66388 0.0
C313 C 0.42998 0.79471 0.71967 0.0
C314 C 0.40927 0.85342 0.66013 0.0
C315 C 0.47849 0.73252 0.71208 0.0
C316 C 0.47125 0.75111 0.71839 0.0
C317 C 0.47529 0.81034 0.67765 0.0
C318 C 0.42847 0.834 0.69933 0.0
C319 C 0.4419 0.81884 0.7012 0.0
C320 C 0.47213 0.7672 0.68849 0.0
C321 C 0.4627 0.7857 0.69467 0.0
H322 H 0.3889 0.84763 0.75268 0.0
H323 H 0.41773 0.82973 0.75928 0.0
H324 H 0.47467 0.84536 0.66662 0.0
H325 H 0.49485 0.74432 0.61776 0.0
H326 H 0.48149 0.77647 0.62847 0.0
C327 C 0.26612 0.77656 0.69354 0.0
C328 C 0.2769 0.79152 0.6605 0.0
C329 C 0.24988 0.74985 0.69083 0.0
C330 C 0.2393 0.6962 0.62926 0.0
H331 H 0.18123 0.65613 0.69697 0.0
C332 C 0.18614 0.58508 0.62908 0.0
C333 C 0.18077 0.57312 0.6651 0.0
C334 C 0.19407 0.61131 0.62586 0.0
C335 C 0.19748 0.66708 0.67802 0.0
H336 H 0.27812 0.79058 0.59859 0.0
H337 H 0.24959 0.74364 0.59378 0.0
H338 H 0.20098 0.70325 0.69502 0.0
H339 H 0.1789 0.579 0.72596 0.0
H340 H 0.19332 0.62512 0.72047 0.0
H341 H 0.23646 0.6603 0.61311 0.0
C342 C 0.25394 0.75264 0.6218 0.0
C343 C 0.20871 0.69401 0.6768 0.0
C344 C 0.27015 0.77946 0.62452 0.0
C345 C 0.18295 0.58776 0.69784 0.0
C346 C 0.19101 0.61409 0.69464 0.0
C347 C 0.22813 0.66934 0.63052 0.0
C348 C 0.24413 0.73751 0.65501 0.0
C349 C 0.23002 0.70886 0.65287 0.0
C350 C 0.19693 0.6262 0.65862 0.0
C351 C 0.20736 0.65451 0.65535 0.0
H352 H 0.27091 0.78537 0.72168 0.0
H353 H 0.24287 0.73872 0.71695 0.0
H354 H 0.25599 0.70714 0.61104 0.0
H355 H 0.18438 0.57421 0.60328 0.0
H356 H 0.19808 0.61997 0.59767 0.0
C357 C 0.23888 0.49512 0.6233 0.0
C358 C 0.22996 0.49793 0.65919 0.0
C359 C 0.26406 0.49961 0.61921 0.0
C360 C 0.32249 0.51111 0.6732 0.0
H361 H 0.35881 0.56344 0.59579 0.0
C362 C 0.42707 0.59322 0.68935 0.0
C363 C 0.44176 0.60494 0.65647 0.0
C364 C 0.40192 0.57232 0.68602 0.0
C365 C 0.34909 0.54835 0.61694 0.0
H366 H 0.23955 0.50578 0.71935 0.0
H367 H 0.28342 0.51388 0.71218 0.0
H368 H 0.31208 0.53954 0.59602 0.0
H369 H 0.44291 0.60264 0.59467 0.0
H370 H 0.39936 0.56572 0.58887 0.0
H371 H 0.35971 0.52088 0.69512 0.0
C372 C 0.27107 0.50804 0.68722 0.0
C373 C 0.32219 0.53461 0.61704 0.0
C374 C 0.24601 0.5037 0.69126 0.0
C375 C 0.43175 0.59421 0.62045 0.0
C376 C 0.4068 0.57311 0.61714 0.0
C377 C 0.3495 0.52481 0.673 0.0
C378 C 0.28062 0.50681 0.65099 0.0
C379 C 0.30861 0.5166 0.64604 0.0
C380 C 0.3912 0.56261 0.64975 0.0
C381 C 0.36307 0.5443 0.64574 0.0
H382 H 0.22679 0.49048 0.59817 0.0
H383 H 0.27089 0.49834 0.59099 0.0
H384 H 0.31248 0.49705 0.69558 0.0
H385 H 0.43441 0.60113 0.71745 0.0
H386 H 0.3904 0.56489 0.71174 0.0
C387 C 0.03833 0.26212 0.9129 0.0
C388 C 0.04429 0.26454 0.95198 0.0
C389 C 0.04715 0.28421 0.89021 0.0
C390 C 0.09662 0.35367 0.88793 0.0
H391 H 0.05351 0.35596 0.80715 0.0
C392 C 0.1274 0.44401 0.79346 0.0
C393 C 0.12564 0.43851 0.75417 0.0
C394 C 0.11582 0.42382 0.81994 0.0
C395 C 0.06569 0.35554 0.8297 0.0
H396 H 0.06372 0.29177 -0.00174 0.0
H397 H 0.07856 0.33018 0.95898 0.0
H398 H 0.03652 0.31816 0.84884 0.0
H399 H 0.10986 0.40789 0.71154 0.0
H400 H 0.08955 0.37283 0.75763 0.0
H401 H 0.12577 0.39109 0.86858 0.0
C402 C 0.06764 0.31134 0.94554 0.0
C403 C 0.05607 0.33388 0.85336 0.0
C404 C 0.05904 0.28932 0.96807 0.0
C405 C 0.11164 0.41267 0.74171 0.0
C406 C 0.09983 0.39261 0.76802 0.0
C407 C 0.10613 0.37543 0.86447 0.0
C408 C 0.06188 0.30906 0.90634 0.0
C409 C 0.07158 0.33254 0.88235 0.0
C410 C 0.10201 0.39797 0.80734 0.0
C411 C 0.0909 0.37634 0.8348 0.0
H412 H 0.027 0.2432 0.89983 0.0
H413 H 0.04272 0.28179 0.85995 0.0
H414 H 0.10919 0.35311 0.90967 0.0
H415 H 0.13808 0.4638 0.8037 0.0
H416 H 0.11767 0.42835 0.8502 0.0
C417 C 0.72656 0.78241 0.9385 0.0
C418 C 0.75173 0.79493 0.92346 0.0
C419 C 0.70534 0.76984 0.91432 0.0
C420 C 0.68378 0.77338 0.82089 0.0
H421 H 0.62959 0.70224 0.83687 0.0
C422 C 0.5968 0.72416 0.72025 0.0
C423 C 0.57261 0.70681 0.73606 0.0
C424 C 0.61907 0.73375 0.74227 0.0
C425 C 0.64435 0.72223 0.83237 0.0
H426 H 0.77467 0.80409 0.87168 0.0
H427 H 0.73718 0.78269 0.82895 0.0
H428 H 0.66828 0.72079 0.87673 0.0
H429 H 0.55249 0.68596 0.78714 0.0
H430 H 0.59139 0.70375 0.82651 0.0
H431 H 0.65965 0.77556 0.77805 0.0
C432 C 0.73409 0.7824 0.85953 0.0
C433 C 0.66654 0.7327 0.85492 0.0
C434 C 0.7554 0.79456 0.88386 0.0
C435 C 0.57098 0.69932 0.77438 0.0
C436 C 0.59329 0.70933 0.79673 0.0
C437 C 0.66143 0.76311 0.79882 0.0
C438 C 0.70895 0.77001 0.87469 0.0
C439 C 0.68634 0.75834 0.84933 0.0
C440 C 0.61762 0.72662 0.78085 0.0
C441 C 0.64142 0.73741 0.80431 0.0
H442 H 0.72326 0.78228 0.96901 0.0
H443 H 0.68607 0.76055 0.9265 0.0
H444 H 0.69871 0.79336 0.81659 0.0
H445 H 0.59862 0.72994 0.69054 0.0
H446 H 0.63748 0.74651 0.72879 0.0
C447 C 0.29498 0.89692 0.77439 0.0
C448 C 0.29735 0.89909 0.73446 0.0
C449 C 0.28164 0.90704 0.79408 0.0
C450 C 0.26576 0.95726 0.79338 0.0
H451 H 0.20598 0.91156 0.85468 0.0
C452 C 0.21071 -0.00341 0.88056 0.0
C453 C 0.20315 0.98626 0.91742 0.0
C454 C 0.21928 0.98484 0.85417 0.0
C455 C 0.22279 0.92466 0.83804 0.0
H456 H 0.28838 0.91397 0.68377 0.0
H457 H 0.2658 0.93247 0.71858 0.0
H458 H 0.22828 0.89374 0.81798 0.0
H459 H 0.19815 0.95543 0.95553 0.0
H460 H 0.21393 0.93569 0.9105 0.0
H461 H 0.2614 0.98843 0.81486 0.0
C462 C 0.27387 0.92257 0.73436 0.0
C463 C 0.23541 0.91439 0.81697 0.0
C464 C 0.28667 0.91195 0.71459 0.0
C465 C 0.20372 0.96375 0.9272 0.0
C466 C 0.21259 0.95228 0.90117 0.0
C467 C 0.25348 0.96766 0.81509 0.0
C468 C 0.27108 0.91995 0.77414 0.0
C469 C 0.25712 0.93067 0.79491 0.0
C470 C 0.22073 0.96279 0.86444 0.0
C471 C 0.23207 0.95151 0.83815 0.0
H472 H 0.30303 0.88703 0.79025 0.0
H473 H 0.27974 0.905 0.82489 0.0
H474 H 0.28256 0.97009 0.77646 0.0
H475 H 0.2103 0.01388 0.87229 0.0
H476 H 0.22501 -0.00679 0.82591 0.0
C477 C 0.43183 0.11665 0.21085 0.0
C478 C 0.42935 0.1242 0.24796 0.0
C479 C 0.40992 0.10197 0.18846 0.0
C480 C 0.33962 0.05876 0.19366 0.0
H481 H 0.33947 0.08469 0.09222 0.0
C482 C 0.24647 0.03183 0.11025 0.0
C483 C 0.24746 0.03166 0.0702 0.0
C484 C 0.2687 0.03864 0.1316 0.0
C485 C 0.33929 0.07675 0.12011 0.0
H486 H 0.40217 0.1221 0.29109 0.0
H487 H 0.36396 0.0965 0.25194 0.0
H488 H 0.37881 0.10522 0.12994 0.0
H489 H 0.2715 0.03624 0.02095 0.0
H490 H 0.30997 0.04715 0.0581 0.0
H491 H 0.29998 0.03041 0.18398 0.0
C492 C 0.38277 0.10177 0.24027 0.0
C493 C 0.36185 0.08862 0.14173 0.0
C494 C 0.40465 0.11663 0.26248 0.0
C495 C 0.27041 0.03669 0.05186 0.0
C496 C 0.29245 0.04305 0.07313 0.0
C497 C 0.31706 0.04669 0.17186 0.0
C498 C 0.38522 0.09441 0.20304 0.0
C499 C 0.36207 0.08004 0.17893 0.0
C500 C 0.29212 0.04501 0.11315 0.0
C501 C 0.31653 0.05586 0.13509 0.0
H502 H 0.45067 0.12215 0.19908 0.0
H503 H 0.41226 0.09645 0.15982 0.0
H504 H 0.33945 0.05164 0.22219 0.0
H505 H 0.22893 0.02801 0.12496 0.0
H506 H 0.26782 0.04017 0.16237 0.0
C507 C 0.96688 0.24191 0.07186 0.0
C508 C 0.98071 0.23196 0.09078 0.0
C509 C 0.95668 0.25484 0.09222 0.0
C510 C 0.96265 0.28779 0.18472 0.0
H511 H 0.89704 0.2808 0.15444 0.0
C512 C 0.90267 0.31729 0.27883 0.0
C513 C 0.89462 0.33339 0.26192 0.0
C514 C 0.91419 0.30635 0.25681 0.0
C515 C 0.91551 0.2831 0.16283 0.0
H516 H -0.00571 0.22709 0.14577 0.0
H517 H 0.97547 0.24878 0.18186 0.0
H518 H 0.91422 0.25727 0.11933 0.0
H519 H 0.89212 0.35073 0.20891 0.0
H520 H 0.91179 0.33078 0.16981 0.0
H521 H 0.96319 0.31278 0.2293 0.0
C522 C 0.97318 0.24732 0.15109 0.0
C523 C 0.92541 0.2697 0.14278 0.0
C524 C 0.98378 0.23472 0.13055 0.0
C525 C 0.89822 0.33838 0.22252 0.0
C526 C 0.90935 0.32698 0.20026 0.0
C527 C 0.95252 0.30083 0.20511 0.0
C528 C 0.95971 0.25774 0.13208 0.0
C529 C 0.94909 0.27186 0.15352 0.0
C530 C 0.91748 0.31098 0.21737 0.0
C531 C 0.92888 0.29852 0.19434 0.0
H532 H 0.96446 0.24027 0.0411 0.0
H533 H 0.94688 0.26302 0.07651 0.0
H534 H 0.98118 0.29036 0.19328 0.0
H535 H 0.90022 0.31323 0.30922 0.0
H536 H 0.92014 0.29389 0.27048 0.0
C537 C 0.69819 0.59264 0.23502 0.0
C538 C 0.69982 0.59612 0.27479 0.0
C539 C 0.70558 0.61383 0.21084 0.0
C540 C 0.74592 0.68513 0.21129 0.0
H541 H 0.71211 0.67972 0.11448 0.0
C542 C 0.77424 0.77309 0.1137 0.0
C543 C 0.77908 0.76941 0.07556 0.0
C544 C 0.76246 0.75201 0.13856 0.0
C545 C 0.72169 0.68142 0.14146 0.0
H546 H 0.70905 0.62392 0.32072 0.0
H547 H 0.7211 0.66062 0.27874 0.0
H548 H 0.69471 0.64233 0.15717 0.0
H549 H 0.77499 0.74097 0.03312 0.0
H550 H 0.75429 0.70416 0.07654 0.0
H551 H 0.77281 0.72424 0.19559 0.0
C552 C 0.71501 0.64185 0.26602 0.0
C553 C 0.71184 0.66004 0.16579 0.0
C554 C 0.70799 0.62081 0.29008 0.0
C555 C 0.77158 0.74434 0.06247 0.0
C556 C 0.75956 0.72327 0.08716 0.0
C557 C 0.75557 0.70653 0.18719 0.0
C558 C 0.7144 0.63873 0.22614 0.0
C559 C 0.724 0.66161 0.20083 0.0
C560 C 0.75508 0.72695 0.12545 0.0
C561 C 0.7437 0.70478 0.15193 0.0
H562 H 0.69195 0.57374 0.22262 0.0
H563 H 0.70513 0.61082 0.18023 0.0
H564 H 0.75609 0.68687 0.23771 0.0
H565 H 0.77978 0.79224 0.12442 0.0
H566 H 0.75907 0.75525 0.16798 0.0
C567 C 0.09257 0.45477 0.56868 0.0
C568 C 0.09276 0.46208 0.60687 0.0
C569 C 0.06935 0.44193 0.54858 0.0
C570 C 0.00256 0.43016 0.54974 0.0
H571 H -0.00779 0.3782 0.47394 0.0
C572 C 0.91056 0.37708 0.45623 0.0
C573 C 0.91669 0.38064 0.41712 0.0
C574 C 0.93001 0.38326 0.48324 0.0
C575 C -0.00518 0.39254 0.49527 0.0
H576 H 0.06899 0.46147 0.65433 0.0
H577 H 0.02841 0.43851 0.6196 0.0
H578 H 0.0306 0.39663 0.51432 0.0
H579 H 0.9474 0.39234 0.37526 0.0
H580 H 0.98113 0.40264 0.42228 0.0
H581 H 0.96675 0.42606 0.53028 0.0
C582 C 0.04616 0.44317 0.60481 0.0
C583 C 0.01685 0.40326 0.51811 0.0
C584 C 0.0694 0.45625 0.62473 0.0
C585 C 0.94223 0.38961 0.4053 0.0
C586 C 0.96147 0.39528 0.43212 0.0
C587 C 0.98037 0.41919 0.52718 0.0
C588 C 0.04587 0.4359 0.56648 0.0
C589 C 0.0213 0.42269 0.54489 0.0
C590 C 0.9556 0.39246 0.47127 0.0
C591 C 0.9767 0.4008 0.49915 0.0
H592 H 0.11035 0.45911 0.55426 0.0
H593 H 0.06987 0.43707 0.51885 0.0
H594 H 0.00551 0.44528 0.56979 0.0
H595 H 0.89096 0.37017 0.46592 0.0
H596 H 0.92515 0.38099 0.51338 0.0
C597 C 0.62378 0.56439 0.40227 0.0
C598 C 0.64477 0.56344 0.41844 0.0
C599 C 0.61321 0.57773 0.42055 0.0
C600 C 0.62843 0.62829 0.49368 0.0
H601 H 0.55442 0.60137 0.49129 0.0
C602 C 0.57275 0.6565 0.5985 0.0
C603 C 0.55333 0.66076 0.58399 0.0
C604 C 0.58602 0.64857 0.57439 0.0
C605 C 0.57516 0.60933 0.49154 0.0
H606 H 0.6707 0.57497 0.46692 0.0
H607 H 0.65154 0.59755 0.49985 0.0
H608 H 0.57246 0.57762 0.45926 0.0
H609 H 0.53304 0.6611 0.533 0.0
H610 H 0.55597 0.6463 0.4905 0.0
H611 H 0.63077 0.65936 0.52769 0.0
C612 C 0.64374 0.58859 0.47243 0.0
C613 C 0.58552 0.59573 0.47331 0.0
C614 C 0.65453 0.57544 0.45385 0.0
C615 C 0.54801 0.65795 0.54468 0.0
C616 C 0.561 0.64945 0.52054 0.0
C617 C 0.618 0.6417 0.51234 0.0
C618 C 0.62318 0.59017 0.45569 0.0
C619 C 0.61226 0.60492 0.47448 0.0
C620 C 0.5798 0.64432 0.53543 0.0
C621 C 0.59127 0.63218 0.5117 0.0
H622 H 0.61597 0.55549 0.3748 0.0
H623 H 0.59767 0.57884 0.40655 0.0
H624 H 0.64915 0.63621 0.49442 0.0
H625 H 0.57727 0.65873 0.62875 0.0
H626 H 0.60027 0.64452 0.58657 0.0
C627 C 0.36895 0.92721 0.55914 0.0
C628 C 0.37048 0.93064 0.59896 0.0
C629 C 0.38115 0.94863 0.53498 0.0
C630 C 0.40313 0.01735 0.52984 0.0
H631 H 0.4489 0.01896 0.44968 0.0
C632 C 0.46238 0.10792 0.43681 0.0
C633 C 0.46471 0.10369 0.39788 0.0
C634 C 0.45188 0.08716 0.46234 0.0
C635 C 0.43591 0.01868 0.47159 0.0
H636 H 0.38558 0.95894 0.64489 0.0
H637 H 0.40651 -0.0036 0.60253 0.0
H638 H 0.42769 0.98143 0.49173 0.0
H639 H 0.4578 0.07463 0.35489 0.0
H640 H 0.43872 0.03838 0.39902 0.0
H641 H 0.4106 0.05416 0.50921 0.0
C642 C 0.39603 0.97718 0.59012 0.0
C643 C 0.42388 -0.00276 0.49566 0.0
C644 C 0.38417 0.95578 0.61425 0.0
C645 C 0.45641 0.07845 0.38486 0.0
C646 C 0.44563 0.05769 0.41022 0.0
C647 C 0.41488 0.03865 0.50544 0.0
C648 C 0.39468 0.97376 0.55033 0.0
C649 C 0.40739 -0.00358 0.52491 0.0
C650 C 0.44325 0.06179 0.44927 0.0
C651 C 0.43137 0.03954 0.47597 0.0
H652 H 0.35851 0.90801 0.54669 0.0
H653 H 0.37976 0.94561 0.5043 0.0
H654 H 0.3903 0.01699 0.55208 0.0
H655 H 0.46878 0.12726 0.44755 0.0
H656 H 0.45068 0.09104 0.49233 0.0
loop_
_geom_bond_atom_site_label_1
_geom_bond_atom_site_label_2
_geom_bond_distance
_geom_bond_site_symmetry_2
_ccdc_geom_bond_type
In0 O1 2.294 1_554 S
In0 O2 2.326 . S
In0 O6 2.266 1_454 S
In0 O7 2.326 1_455 S
In0 O8 2.266 . S
In0 O9 2.326 1_554 S
In0 O11 2.294 . S
In0 O12 2.326 1_455 S
O1 In0 2.294 1_556 S
O1 C10 1.240 . S
O2 In0 2.326 . S
O2 C10 1.252 1_554 S
C3 O6 1.252 1_554 S
C3 O7 1.260 . S
C4 O11 1.277 . S
C4 O12 1.242 1_455 S
C5 O8 1.252 . S
C5 O9 1.260 1_554 S
O6 In0 2.266 1_656 S
O6 C3 1.252 1_556 S
O7 In0 2.326 1_655 S
O7 C3 1.260 . S
O8 In0 2.266 . S
O8 C5 1.252 . S
O9 In0 2.326 1_556 S
O9 C5 1.260 1_556 S
C10 O1 1.240 . S
C10 O2 1.252 1_556 S
O11 In0 2.294 . S
O11 C4 1.277 . S
O12 In0 2.326 1_655 S
O12 C4 1.242 1_655 S
In13 O14 2.294 1_554 S
In13 O15 2.326 . S
In13 O19 2.266 1_554 S
In13 O20 2.326 . S
In13 O21 2.266 . S
In13 O22 2.326 1_554 S
In13 O24 2.294 . S
In13 O25 2.326 . S
O14 In13 2.294 1_556 S
O14 C23 1.240 . S
O15 In13 2.326 . S
O15 C23 1.252 1_554 S
C16 O19 1.252 1_554 S
C16 O20 1.260 . S
C17 O24 1.240 . S
C17 O25 1.252 . S
C18 O21 1.252 . S
C18 O22 1.260 1_554 S
O19 In13 2.266 1_556 S
O19 C16 1.252 1_556 S
O20 In13 2.326 . S
O20 C16 1.260 . S
O21 In13 2.266 . S
O21 C18 1.252 . S
O22 In13 2.326 1_556 S
O22 C18 1.260 1_556 S
C23 O14 1.240 . S
C23 O15 1.252 1_556 S
O24 In13 2.294 . S
O24 C17 1.240 . S
O25 In13 2.326 . S
O25 C17 1.252 . S
In26 O27 2.294 . S
In26 O28 2.326 . S
In26 O32 2.266 1_545 S
In26 O33 2.328 1_554 S
In26 O34 2.266 1_554 S
In26 O35 2.326 . S
In26 O37 2.294 1_554 S
In26 O38 2.326 1_545 S
O27 In26 2.294 . S
O27 C36 1.240 . S
O28 In26 2.326 . S
O28 C36 1.252 . S
C29 O32 1.252 . S
C29 O33 1.251 1_564 S
C30 O37 1.240 . S
C30 O38 1.252 1_546 S
C31 O34 1.252 1_554 S
C31 O35 1.260 . S
O32 In26 2.266 1_565 S
O32 C29 1.252 . S
O33 In26 2.328 1_556 S
O33 C29 1.251 1_546 S
O34 In26 2.266 1_556 S
O34 C31 1.252 1_556 S
O35 In26 2.326 . S
O35 C31 1.260 . S
C36 O27 1.240 . S
C36 O28 1.252 . S
O37 In26 2.294 1_556 S
O37 C30 1.240 . S
O38 In26 2.326 1_565 S
O38 C30 1.252 1_564 S
In39 O40 2.294 . S
In39 O41 2.326 . S
In39 O45 2.266 . S
In39 O46 2.326 . S
In39 O47 2.266 . S
In39 O48 2.326 . S
In39 O50 2.294 . S
In39 O51 2.326 . S
O40 In39 2.294 . S
O40 C49 1.240 . S
O41 In39 2.326 . S
O41 C49 1.252 . S
C42 O45 1.252 . S
C42 O46 1.260 . S
C43 O50 1.240 . S
C43 O51 1.252 . S
C44 O47 1.252 . S
C44 O48 1.260 . S
O45 In39 2.266 . S
O45 C42 1.252 . S
O46 In39 2.326 . S
O46 C42 1.260 . S
O47 In39 2.266 . S
O47 C44 1.252 . S
O48 In39 2.326 . S
O48 C44 1.260 . S
C49 O40 1.240 . S
C49 O41 1.252 . S
O50 In39 2.294 . S
O50 C43 1.240 . S
O51 In39 2.326 . S
O51 C43 1.252 . S
In52 O53 2.294 . S
In52 O54 2.326 . S
In52 O58 2.266 . S
In52 O59 2.326 . S
In52 O60 2.266 . S
In52 O61 2.326 . S
In52 O63 2.294 . S
In52 O64 2.326 . S
O53 In52 2.294 . S
O53 C62 1.240 . S
O54 In52 2.326 . S
O54 C62 1.252 . S
C55 O58 1.252 . S
C55 O59 1.260 . S
C56 O63 1.240 . S
C56 O64 1.252 . S
C57 O60 1.252 . S
C57 O61 1.260 . S
O58 In52 2.266 . S
O58 C55 1.252 . S
O59 In52 2.326 . S
O59 C55 1.260 . S
O60 In52 2.266 . S
O60 C57 1.252 . S
O61 In52 2.326 . S
O61 C57 1.260 . S
C62 O53 1.240 . S
C62 O54 1.252 . S
O63 In52 2.294 . S
O63 C56 1.240 . S
O64 In52 2.326 . S
O64 C56 1.252 . S
In65 O66 2.294 . S
In65 O67 2.326 . S
In65 O71 2.266 . S
In65 O72 2.326 . S
In65 O73 2.266 . S
In65 O74 2.326 . S
In65 O76 2.294 . S
In65 O77 2.326 . S
O66 In65 2.294 . S
O66 C75 1.240 . S
O67 In65 2.326 . S
O67 C75 1.252 . S
C68 O71 1.252 . S
C68 O72 1.260 . S
C69 O76 1.240 . S
C69 O77 1.252 . S
C70 O73 1.252 . S
C70 O74 1.260 . S
O71 In65 2.266 . S
O71 C68 1.252 . S
O72 In65 2.326 . S
O72 C68 1.260 . S
O73 In65 2.266 . S
O73 C70 1.252 . S
O74 In65 2.326 . S
O74 C70 1.260 . S
C75 O66 1.240 . S
C75 O67 1.252 . S
O76 In65 2.294 . S
O76 C69 1.240 . S
O77 In65 2.326 . S
O77 C69 1.252 . S
In78 O79 2.294 . S
In78 O80 2.326 . S
In78 O84 2.266 . S
In78 O85 2.326 . S
In78 O86 2.266 . S
In78 O87 2.326 . S
In78 O89 2.294 . S
In78 O90 2.326 . S
O79 In78 2.294 . S
O79 C88 1.240 . S
O80 In78 2.326 . S
O80 C88 1.252 . S
C81 O84 1.252 . S
C81 O85 1.260 . S
C82 O89 1.240 . S
C82 O90 1.252 . S
C83 O86 1.252 . S
C83 O87 1.260 . S
O84 In78 2.266 . S
O84 C81 1.252 . S
O85 In78 2.326 . S
O85 C81 1.260 . S
O86 In78 2.266 . S
O86 C83 1.252 . S
O87 In78 2.326 . S
O87 C83 1.260 . S
C88 O79 1.240 . S
C88 O80 1.252 . S
O89 In78 2.294 . S
O89 C82 1.240 . S
O90 In78 2.326 . S
O90 C82 1.252 . S
In91 O92 2.294 . S
In91 O93 2.326 . S
In91 O97 2.266 . S
In91 O98 2.326 . S
In91 O99 2.266 . S
In91 O100 2.326 . S
In91 O102 2.294 . S
In91 O103 2.326 . S
O92 In91 2.294 . S
O92 C101 1.240 . S
O93 In91 2.326 . S
O93 C101 1.252 . S
C94 O97 1.252 . S
C94 O98 1.260 . S
C95 O102 1.240 . S
C95 O103 1.252 . S
C96 O99 1.252 . S
C96 O100 1.260 . S
O97 In91 2.266 . S
O97 C94 1.252 . S
O98 In91 2.326 . S
O98 C94 1.260 . S
O99 In91 2.266 . S
O99 C96 1.252 . S
O100 In91 2.326 . S
O100 C96 1.260 . S
C101 O92 1.240 . S
C101 O93 1.252 . S
O102 In91 2.294 . S
O102 C95 1.240 . S
O103 In91 2.326 . S
O103 C95 1.252 . S
In104 O105 2.294 . S
In104 O106 2.326 . S
In104 O110 2.266 . S
In104 O111 2.326 . S
In104 O112 2.266 . S
In104 O113 2.326 . S
In104 O115 2.294 . S
In104 O116 2.326 . S
O105 In104 2.294 . S
O105 C114 1.240 . S
O106 In104 2.326 . S
O106 C114 1.252 . S
C107 O110 1.252 . S
C107 O111 1.260 . S
C108 O115 1.240 . S
C108 O116 1.252 . S
C109 O112 1.252 . S
C109 O113 1.260 . S
O110 In104 2.266 . S
O110 C107 1.252 . S
O111 In104 2.326 . S
O111 C107 1.260 . S
O112 In104 2.266 . S
O112 C109 1.252 . S
O113 In104 2.326 . S
O113 C109 1.260 . S
C114 O105 1.240 . S
C114 O106 1.252 . S
O115 In104 2.294 . S
O115 C108 1.240 . S
O116 In104 2.326 . S
O116 C108 1.252 . S
C117 C118 1.349 . S
C117 C119 1.327 . S
C117 H142 0.950 . S
C118 C117 1.349 . S
C118 C134 1.349 1_554 S
C119 C117 1.327 . S
C119 C138 1.429 . S
C119 H143 0.950 . S
C120 C137 1.574 . S
C120 C139 1.368 1_556 S
C120 H144 0.949 . S
H121 C125 0.949 . S
C122 C123 1.349 1_556 S
C122 C124 1.327 . S
C122 H145 0.950 . S
C123 C122 1.349 1_554 S
C123 C135 1.349 . S
C124 C122 1.327 . S
C124 C140 1.429 1_556 S
C124 H146 0.950 . S
C125 H121 0.949 . S
C125 C133 1.574 . S
C125 C141 1.368 . S
H126 C134 0.950 . S
H127 C132 0.950 . S
H128 C133 0.949 . S
H129 C135 0.950 . S
H130 C136 0.950 . S
H131 C137 0.949 . S
C132 H127 0.950 . S
C132 C134 1.327 . S
C132 C138 1.429 1_556 S
C133 C125 1.574 . S
C133 H128 0.949 . S
C133 C139 1.368 . S
C134 C118 1.349 1_556 S
C134 H126 0.950 . S
C134 C132 1.327 . S
C135 C123 1.349 . S
C135 H129 0.950 . S
C135 C136 1.327 . S
C136 H130 0.950 . S
C136 C135 1.327 . S
C136 C140 1.429 . S
C137 C120 1.574 . S
C137 H131 0.949 . S
C137 C141 1.368 1_556 S
C138 C119 1.429 . S
C138 C132 1.429 1_554 S
C138 C139 1.523 . S
C139 C120 1.368 1_554 S
C139 C133 1.368 . S
C139 C138 1.523 . S
C140 C124 1.429 1_554 S
C140 C136 1.429 . S
C140 C141 1.523 . S
C141 C125 1.368 . S
C141 C137 1.368 1_554 S
C141 C140 1.523 . S
H142 C117 0.950 . S
H143 C119 0.950 . S
H144 C120 0.949 . S
H145 C122 0.950 . S
H146 C124 0.950 . S
C147 C148 1.349 . S
C147 C149 1.327 . S
C147 H172 0.950 . S
C148 C147 1.349 . S
C148 C164 1.349 1_554 S
C149 C147 1.327 . S
C149 C168 1.429 . S
C149 H173 0.950 . S
C150 C167 1.574 . S
C150 C169 1.368 1_546 S
C150 H174 0.949 1_545 S
H151 C155 0.949 . S
C152 C153 1.349 1_556 S
C152 C154 1.327 . S
C152 H175 0.950 . S
C153 C152 1.349 1_554 S
C153 C165 1.349 . S
C154 C152 1.327 . S
C154 C170 1.429 1_556 S
C154 H176 0.950 . S
C155 H151 0.949 . S
C155 C163 1.574 . S
C155 C171 1.368 . S
H156 C164 0.950 . S
H157 C162 0.950 . S
H158 C163 0.959 . S
H159 C165 0.950 . S
H160 C166 0.950 . S
H161 C167 0.949 . S
C162 H157 0.950 . S
C162 C164 1.327 . S
C162 C168 1.429 1_556 S
C163 C155 1.574 . S
C163 H158 0.959 . S
C163 C169 1.368 1_545 S
C164 C148 1.349 1_556 S
C164 H156 0.950 . S
C164 C162 1.327 . S
C165 C153 1.349 . S
C165 H159 0.950 . S
C165 C166 1.327 . S
C166 H160 0.950 . S
C166 C165 1.327 . S
C166 C170 1.429 . S
C167 C150 1.574 . S
C167 H161 0.949 . S
C167 C171 1.368 1_556 S
C168 C149 1.429 . S
C168 C162 1.429 1_554 S
C168 C169 1.523 . S
C169 C150 1.368 1_564 S
C169 C163 1.368 1_565 S
C169 C168 1.523 . S
C170 C154 1.429 1_554 S
C170 C166 1.429 . S
C170 C171 1.523 . S
C171 C155 1.368 . S
C171 C167 1.368 1_554 S
C171 C170 1.523 . S
H172 C147 0.950 . S
H173 C149 0.950 . S
H174 C150 0.949 1_565 S
H175 C152 0.950 . S
H176 C154 0.950 . S
C177 C178 1.349 1_556 S
C177 C179 1.327 . S
C177 H202 0.950 . S
C178 C177 1.349 1_554 S
C178 C194 1.349 . S
C179 C177 1.327 . S
C179 C198 1.429 1_556 S
C179 H203 0.950 . S
C180 C197 1.574 . S
C180 C199 1.368 1_455 S
C180 H204 0.949 1_455 S
H181 C185 0.949 . S
C182 C183 1.349 . S
C182 C184 1.327 . S
C182 H205 0.950 . S
C183 C182 1.349 . S
C183 C195 1.363 . S
C184 C182 1.327 . S
C184 C200 1.429 . S
C184 H206 0.950 . S
C185 H181 0.949 . S
C185 C193 1.574 . S
C185 C201 1.368 1_556 S
H186 C194 0.950 . S
H187 C192 0.950 . S
H188 C193 0.949 1_655 S
H189 C195 0.903 1_546 S
H190 C196 0.950 . S
H191 C197 0.949 . S
C192 H187 0.950 . S
C192 C194 1.327 . S
C192 C198 1.429 . S
C193 C185 1.574 . S
C193 H188 0.949 1_455 S
C193 C199 1.368 1_456 S
C194 C178 1.349 . S
C194 H186 0.950 . S
C194 C192 1.327 . S
C195 C183 1.363 . S
C195 H189 0.903 1_564 S
C195 C196 1.326 1_554 S
C196 H190 0.950 . S
C196 C195 1.326 1_556 S
C196 C200 1.429 1_556 S
C197 C180 1.574 . S
C197 H191 0.949 . S
C197 C201 1.368 . S
C198 C179 1.429 1_554 S
C198 C192 1.429 . S
C198 C199 1.523 . S
C199 C180 1.368 1_655 S
C199 C193 1.368 1_654 S
C199 C198 1.523 . S
C200 C184 1.429 . S
C200 C196 1.429 1_554 S
C200 C201 1.523 . S
C201 C185 1.368 1_554 S
C201 C197 1.368 . S
C201 C200 1.523 . S
H202 C177 0.950 . S
H203 C179 0.950 . S
H204 C180 0.949 1_655 S
H205 C182 0.950 . S
H206 C184 0.950 . S
C207 C208 1.349 . S
C207 C209 1.327 . S
C207 H232 0.950 . S
C208 C207 1.349 . S
C208 C224 1.349 . S
C209 C207 1.327 . S
C209 C228 1.429 . S
C209 H233 0.950 . S
C210 C227 1.574 . S
C210 C229 1.368 . S
C210 H234 0.949 . S
H211 C215 0.949 . S
C212 C213 1.349 . S
C212 C214 1.327 . S
C212 H235 0.950 . S
C213 C212 1.349 . S
C213 C225 1.349 . S
C214 C212 1.327 . S
C214 C230 1.429 . S
C214 H236 0.950 . S
C215 H211 0.949 . S
C215 C223 1.574 . S
C215 C231 1.368 . S
H216 C224 0.950 . S
H217 C222 0.950 . S
H218 C223 0.949 . S
H219 C225 0.950 . S
H220 C226 0.950 . S
H221 C227 0.949 . S
C222 H217 0.950 . S
C222 C224 1.327 . S
C222 C228 1.429 . S
C223 C215 1.574 . S
C223 H218 0.949 . S
C223 C229 1.368 . S
C224 C208 1.349 . S
C224 H216 0.950 . S
C224 C222 1.327 . S
C225 C213 1.349 . S
C225 H219 0.950 . S
C225 C226 1.327 . S
C226 H220 0.950 . S
C226 C225 1.327 . S
C226 C230 1.429 . S
C227 C210 1.574 . S
C227 H221 0.949 . S
C227 C231 1.368 . S
C228 C209 1.429 . S
C228 C222 1.429 . S
C228 C229 1.523 . S
C229 C210 1.368 . S
C229 C223 1.368 . S
C229 C228 1.523 . S
C230 C214 1.429 . S
C230 C226 1.429 . S
C230 C231 1.523 . S
C231 C215 1.368 . S
C231 C227 1.368 . S
C231 C230 1.523 . S
H232 C207 0.950 . S
H233 C209 0.950 . S
H234 C210 0.949 . S
H235 C212 0.950 . S
H236 C214 0.950 . S
C237 C238 1.349 . S
C237 C239 1.327 . S
C237 H262 0.950 . S
C238 C237 1.349 . S
C238 C254 1.349 . S
C239 C237 1.327 . S
C239 C258 1.429 . S
C239 H263 0.950 . S
C240 C257 1.574 . S
C240 C259 1.368 . S
C240 H264 0.949 . S
H241 C245 0.949 . S
C242 C243 1.349 . S
C242 C244 1.327 . S
C242 H265 0.950 . S
C243 C242 1.349 . S
C243 C255 1.349 . S
C244 C242 1.327 . S
C244 C260 1.429 . S
C244 H266 0.950 . S
C245 H241 0.949 . S
C245 C253 1.574 . S
C245 C261 1.368 . S
H246 C254 0.950 . S
H247 C252 0.950 . S
H248 C253 0.949 . S
H249 C255 0.950 . S
H250 C256 0.950 . S
H251 C257 0.949 . S
C252 H247 0.950 . S
C252 C254 1.327 . S
C252 C258 1.429 . S
C253 C245 1.574 . S
C253 H248 0.949 . S
C253 C259 1.368 . S
C254 C238 1.349 . S
C254 H246 0.950 . S
C254 C252 1.327 . S
C255 C243 1.349 . S
C255 H249 0.950 . S
C255 C256 1.327 . S
C256 H250 0.950 . S
C256 C255 1.327 . S
C256 C260 1.429 . S
C257 C240 1.574 . S
C257 H251 0.949 . S
C257 C261 1.368 . S
C258 C239 1.429 . S
C258 C252 1.429 . S
C258 C259 1.523 . S
C259 C240 1.368 . S
C259 C253 1.368 . S
C259 C258 1.523 . S
C260 C244 1.429 . S
C260 C256 1.429 . S
C260 C261 1.523 . S
C261 C245 1.368 . S
C261 C257 1.368 . S
C261 C260 1.523 . S
H262 C237 0.950 . S
H263 C239 0.950 . S
H264 C240 0.949 . S
H265 C242 0.950 . S
H266 C244 0.950 . S
C267 C268 1.349 . S
C267 C269 1.327 . S
C267 H292 0.950 . S
C268 C267 1.349 . S
C268 C284 1.349 . S
C269 C267 1.327 . S
C269 C288 1.429 . S
C269 H293 0.950 . S
C270 C287 1.574 . S
C270 C289 1.368 . S
C270 H294 0.949 . S
H271 C275 0.949 . S
C272 C273 1.349 . S
C272 C274 1.327 . S
C272 H295 0.950 . S
C273 C272 1.349 . S
C273 C285 1.349 . S
C274 C272 1.327 . S
C274 C290 1.429 . S
C274 H296 0.950 . S
C275 H271 0.949 . S
C275 C283 1.574 . S
C275 C291 1.368 . S
H276 C284 0.950 . S
H277 C282 0.950 . S
H278 C283 0.949 . S
H279 C285 0.950 . S
H280 C286 0.950 . S
H281 C287 0.949 . S
C282 H277 0.950 . S
C282 C284 1.327 . S
C282 C288 1.429 . S
C283 C275 1.574 . S
C283 H278 0.949 . S
C283 C289 1.368 . S
C284 C268 1.349 . S
C284 H276 0.950 . S
C284 C282 1.327 . S
C285 C273 1.349 . S
C285 H279 0.950 . S
C285 C286 1.327 . S
C286 H280 0.950 . S
C286 C285 1.327 . S
C286 C290 1.429 . S
C287 C270 1.574 . S
C287 H281 0.949 . S
C287 C291 1.368 . S
C288 C269 1.429 . S
C288 C282 1.429 . S
C288 C289 1.523 . S
C289 C270 1.368 . S
C289 C283 1.368 . S
C289 C288 1.523 . S
C290 C274 1.429 . S
C290 C286 1.429 . S
C290 C291 1.523 . S
C291 C275 1.368 . S
C291 C287 1.368 . S
C291 C290 1.523 . S
H292 C267 0.950 . S
H293 C269 0.950 . S
H294 C270 0.949 . S
H295 C272 0.950 . S
H296 C274 0.950 . S
C297 C298 1.349 . S
C297 C299 1.327 . S
C297 H322 0.950 . S
C298 C297 1.349 . S
C298 C314 1.349 . S
C299 C297 1.327 . S
C299 C318 1.429 . S
C299 H323 0.950 . S
C300 C317 1.574 . S
C300 C319 1.368 . S
C300 H324 0.949 . S
H301 C305 0.949 . S
C302 C303 1.349 . S
C302 C304 1.327 . S
C302 H325 0.950 . S
C303 C302 1.349 . S
C303 C315 1.349 . S
C304 C302 1.327 . S
C304 C320 1.429 . S
C304 H326 0.950 . S
C305 H301 0.949 . S
C305 C313 1.574 . S
C305 C321 1.368 . S
H306 C314 0.950 . S
H307 C312 0.950 . S
H308 C313 0.949 . S
H309 C315 0.950 . S
H310 C316 0.950 . S
H311 C317 0.949 . S
C312 H307 0.950 . S
C312 C314 1.327 . S
C312 C318 1.429 . S
C313 C305 1.574 . S
C313 H308 0.949 . S
C313 C319 1.368 . S
C314 C298 1.349 . S
C314 H306 0.950 . S
C314 C312 1.327 . S
C315 C303 1.349 . S
C315 H309 0.950 . S
C315 C316 1.327 . S
C316 H310 0.950 . S
C316 C315 1.327 . S
C316 C320 1.429 . S
C317 C300 1.574 . S
C317 H311 0.949 . S
C317 C321 1.368 . S
C318 C299 1.429 . S
C318 C312 1.429 . S
C318 C319 1.523 . S
C319 C300 1.368 . S
C319 C313 1.368 . S
C319 C318 1.523 . S
C320 C304 1.429 . S
C320 C316 1.429 . S
C320 C321 1.523 . S
C321 C305 1.368 . S
C321 C317 1.368 . S
C321 C320 1.523 . S
H322 C297 0.950 . S
H323 C299 0.950 . S
H324 C300 0.949 . S
H325 C302 0.950 . S
H326 C304 0.950 . S
C327 C328 1.349 . S
C327 C329 1.327 . S
C327 H352 0.950 . S
C328 C327 1.349 . S
C328 C344 1.349 . S
C329 C327 1.327 . S
C329 C348 1.429 . S
C329 H353 0.950 . S
C330 C347 1.574 . S
C330 C349 1.368 . S
C330 H354 0.949 . S
H331 C335 0.949 . S
C332 C333 1.349 . S
C332 C334 1.327 . S
C332 H355 0.950 . S
C333 C332 1.349 . S
C333 C345 1.349 . S
C334 C332 1.327 . S
C334 C350 1.429 . S
C334 H356 0.950 . S
C335 H331 0.949 . S
C335 C343 1.574 . S
C335 C351 1.368 . S
H336 C344 0.950 . S
H337 C342 0.950 . S
H338 C343 0.949 . S
H339 C345 0.950 . S
H340 C346 0.950 . S
H341 C347 0.949 . S
C342 H337 0.950 . S
C342 C344 1.327 . S
C342 C348 1.429 . S
C343 C335 1.574 . S
C343 H338 0.949 . S
C343 C349 1.368 . S
C344 C328 1.349 . S
C344 H336 0.950 . S
C344 C342 1.327 . S
C345 C333 1.349 . S
C345 H339 0.950 . S
C345 C346 1.327 . S
C346 H340 0.950 . S
C346 C345 1.327 . S
C346 C350 1.429 . S
C347 C330 1.574 . S
C347 H341 0.949 . S
C347 C351 1.368 . S
C348 C329 1.429 . S
C348 C342 1.429 . S
C348 C349 1.523 . S
C349 C330 1.368 . S
C349 C343 1.368 . S
C349 C348 1.523 . S
C350 C334 1.429 . S
C350 C346 1.429 . S
C350 C351 1.523 . S
C351 C335 1.368 . S
C351 C347 1.368 . S
C351 C350 1.523 . S
H352 C327 0.950 . S
H353 C329 0.950 . S
H354 C330 0.949 . S
H355 C332 0.950 . S
H356 C334 0.950 . S
C357 C358 1.349 . S
C357 C359 1.327 . S
C357 H382 0.950 . S
C358 C357 1.349 . S
C358 C374 1.349 . S
C359 C357 1.327 . S
C359 C378 1.429 . S
C359 H383 0.950 . S
C360 C377 1.574 . S
C360 C379 1.368 . S
C360 H384 0.949 . S
H361 C365 0.949 . S
C362 C363 1.349 . S
C362 C364 1.327 . S
C362 H385 0.950 . S
C363 C362 1.349 . S
C363 C375 1.349 . S
C364 C362 1.327 . S
C364 C380 1.429 . S
C364 H386 0.950 . S
C365 H361 0.949 . S
C365 C373 1.574 . S
C365 C381 1.368 . S
H366 C374 0.950 . S
H367 C372 0.950 . S
H368 C373 0.949 . S
H369 C375 0.950 . S
H370 C376 0.950 . S
H371 C377 0.949 . S
C372 H367 0.950 . S
C372 C374 1.327 . S
C372 C378 1.429 . S
C373 C365 1.574 . S
C373 H368 0.949 . S
C373 C379 1.368 . S
C374 C358 1.349 . S
C374 H366 0.950 . S
C374 C372 1.327 . S
C375 C363 1.349 . S
C375 H369 0.950 . S
C375 C376 1.327 . S
C376 H370 0.950 . S
C376 C375 1.327 . S
C376 C380 1.429 . S
C377 C360 1.574 . S
C377 H371 0.949 . S
C377 C381 1.368 . S
C378 C359 1.429 . S
C378 C372 1.429 . S
C378 C379 1.523 . S
C379 C360 1.368 . S
C379 C373 1.368 . S
C379 C378 1.523 . S
C380 C364 1.429 . S
C380 C376 1.429 . S
C380 C381 1.523 . S
C381 C365 1.368 . S
C381 C377 1.368 . S
C381 C380 1.523 . S
H382 C357 0.950 . S
H383 C359 0.950 . S
H384 C360 0.949 . S
H385 C362 0.950 . S
H386 C364 0.950 . S
C387 C388 1.349 . S
C387 C389 1.327 . S
C387 H412 0.950 . S
C388 C387 1.349 . S
C388 C404 1.349 . S
C389 C387 1.327 . S
C389 C408 1.429 . S
C389 H413 0.950 . S
C390 C407 1.574 . S
C390 C409 1.368 . S
C390 H414 0.949 . S
H391 C395 0.949 . S
C392 C393 1.349 . S
C392 C394 1.327 . S
C392 H415 0.950 . S
C393 C392 1.349 . S
C393 C405 1.349 . S
C394 C392 1.327 . S
C394 C410 1.429 . S
C394 H416 0.950 . S
C395 H391 0.949 . S
C395 C403 1.574 . S
C395 C411 1.368 . S
H396 C404 0.950 . S
H397 C402 0.950 . S
H398 C403 0.949 . S
H399 C405 0.950 . S
H400 C406 0.950 . S
H401 C407 0.949 . S
C402 H397 0.950 . S
C402 C404 1.327 . S
C402 C408 1.429 . S
C403 C395 1.574 . S
C403 H398 0.949 . S
C403 C409 1.368 . S
C404 C388 1.349 . S
C404 H396 0.950 . S
C404 C402 1.327 . S
C405 C393 1.349 . S
C405 H399 0.950 . S
C405 C406 1.327 . S
C406 H400 0.950 . S
C406 C405 1.327 . S
C406 C410 1.429 . S
C407 C390 1.574 . S
C407 H401 0.949 . S
C407 C411 1.368 . S
C408 C389 1.429 . S
C408 C402 1.429 . S
C408 C409 1.523 . S
C409 C390 1.368 . S
C409 C403 1.368 . S
C409 C408 1.523 . S
C410 C394 1.429 . S
C410 C406 1.429 . S
C410 C411 1.523 . S
C411 C395 1.368 . S
C411 C407 1.368 . S
C411 C410 1.523 . S
H412 C387 0.950 . S
H413 C389 0.950 . S
H414 C390 0.949 . S
H415 C392 0.950 . S
H416 C394 0.950 . S
C417 C418 1.349 . S
C417 C419 1.327 . S
C417 H442 0.950 . S
C418 C417 1.349 . S
C418 C434 1.349 . S
C419 C417 1.327 . S
C419 C438 1.429 . S
C419 H443 0.950 . S
C420 C437 1.574 . S
C420 C439 1.368 . S
C420 H444 0.949 . S
H421 C425 0.949 . S
C422 C423 1.349 . S
C422 C424 1.327 . S
C422 H445 0.950 . S
C423 C422 1.349 . S
C423 C435 1.349 . S
C424 C422 1.327 . S
C424 C440 1.429 . S
C424 H446 0.950 . S
C425 H421 0.949 . S
C425 C433 1.574 . S
C425 C441 1.368 . S
H426 C434 0.950 . S
H427 C432 0.950 . S
H428 C433 0.949 . S
H429 C435 0.950 . S
H430 C436 0.950 . S
H431 C437 0.949 . S
C432 H427 0.950 . S
C432 C434 1.327 . S
C432 C438 1.429 . S
C433 C425 1.574 . S
C433 H428 0.949 . S
C433 C439 1.368 . S
C434 C418 1.349 . S
C434 H426 0.950 . S
C434 C432 1.327 . S
C435 C423 1.349 . S
C435 H429 0.950 . S
C435 C436 1.327 . S
C436 H430 0.950 . S
C436 C435 1.327 . S
C436 C440 1.429 . S
C437 C420 1.574 . S
C437 H431 0.949 . S
C437 C441 1.368 . S
C438 C419 1.429 . S
C438 C432 1.429 . S
C438 C439 1.523 . S
C439 C420 1.368 . S
C439 C433 1.368 . S
C439 C438 1.523 . S
C440 C424 1.429 . S
C440 C436 1.429 . S
C440 C441 1.523 . S
C441 C425 1.368 . S
C441 C437 1.368 . S
C441 C440 1.523 . S
H442 C417 0.950 . S
H443 C419 0.950 . S
H444 C420 0.949 . S
H445 C422 0.950 . S
H446 C424 0.950 . S
C447 C448 1.349 . S
C447 C449 1.327 . S
C447 H472 0.950 . S
C448 C447 1.349 . S
C448 C464 1.349 . S
C449 C447 1.327 . S
C449 C468 1.429 . S
C449 H473 0.950 . S
C450 C467 1.574 . S
C450 C469 1.368 . S
C450 H474 0.949 . S
H451 C455 0.949 . S
C452 C453 1.349 1_545 S
C452 C454 1.327 1_545 S
C452 H475 0.950 . S
C453 C452 1.349 1_565 S
C453 C465 1.349 . S
C454 C452 1.327 1_565 S
C454 C470 1.429 . S
C454 H476 0.950 1_565 S
C455 H451 0.949 . S
C455 C463 1.574 . S
C455 C471 1.368 . S
H456 C464 0.950 . S
H457 C462 0.950 . S
H458 C463 0.949 . S
H459 C465 0.950 . S
H460 C466 0.950 . S
H461 C467 0.949 . S
C462 H457 0.950 . S
C462 C464 1.327 . S
C462 C468 1.429 . S
C463 C455 1.574 . S
C463 H458 0.949 . S
C463 C469 1.368 . S
C464 C448 1.349 . S
C464 H456 0.950 . S
C464 C462 1.327 . S
C465 C453 1.349 . S
C465 H459 0.950 . S
C465 C466 1.327 . S
C466 H460 0.950 . S
C466 C465 1.327 . S
C466 C470 1.429 . S
C467 C450 1.574 . S
C467 H461 0.949 . S
C467 C471 1.368 . S
C468 C449 1.429 . S
C468 C462 1.429 . S
C468 C469 1.523 . S
C469 C450 1.368 . S
C469 C463 1.368 . S
C469 C468 1.523 . S
C470 C454 1.429 . S
C470 C466 1.429 . S
C470 C471 1.523 . S
C471 C455 1.368 . S
C471 C467 1.368 . S
C471 C470 1.523 . S
H472 C447 0.950 . S
H473 C449 0.950 . S
H474 C450 0.949 . S
H475 C452 0.950 . S
H476 C454 0.950 1_545 S
C477 C478 1.349 . S
C477 C479 1.327 . S
C477 H502 0.950 . S
C478 C477 1.349 . S
C478 C494 1.349 . S
C479 C477 1.327 . S
C479 C498 1.429 . S
C479 H503 0.950 . S
C480 C497 1.574 . S
C480 C499 1.368 . S
C480 H504 0.949 . S
H481 C485 0.949 . S
C482 C483 1.349 . S
C482 C484 1.327 . S
C482 H505 0.950 . S
C483 C482 1.349 . S
C483 C495 1.349 . S
C484 C482 1.327 . S
C484 C500 1.429 . S
C484 H506 0.950 . S
C485 H481 0.949 . S
C485 C493 1.574 . S
C485 C501 1.368 . S
H486 C494 0.950 . S
H487 C492 0.950 . S
H488 C493 0.949 . S
H489 C495 0.950 . S
H490 C496 0.950 . S
H491 C497 0.949 . S
C492 H487 0.950 . S
C492 C494 1.327 . S
C492 C498 1.429 . S
C493 C485 1.574 . S
C493 H488 0.949 . S
C493 C499 1.368 . S
C494 C478 1.349 . S
C494 H486 0.950 . S
C494 C492 1.327 . S
C495 C483 1.349 . S
C495 H489 0.950 . S
C495 C496 1.327 . S
C496 H490 0.950 . S
C496 C495 1.327 . S
C496 C500 1.429 . S
C497 C480 1.574 . S
C497 H491 0.949 . S
C497 C501 1.368 . S
C498 C479 1.429 . S
C498 C492 1.429 . S
C498 C499 1.523 . S
C499 C480 1.368 . S
C499 C493 1.368 . S
C499 C498 1.523 . S
C500 C484 1.429 . S
C500 C496 1.429 . S
C500 C501 1.523 . S
C501 C485 1.368 . S
C501 C497 1.368 . S
C501 C500 1.523 . S
H502 C477 0.950 . S
H503 C479 0.950 . S
H504 C480 0.949 . S
H505 C482 0.950 . S
H506 C484 0.950 . S
C507 C508 1.349 . S
C507 C509 1.327 . S
C507 H532 0.950 . S
C508 C507 1.349 . S
C508 C524 1.349 . S
C509 C507 1.327 . S
C509 C528 1.429 . S
C509 H533 0.950 . S
C510 C527 1.574 . S
C510 C529 1.368 . S
C510 H534 0.949 . S
H511 C515 0.949 . S
C512 C513 1.349 . S
C512 C514 1.327 . S
C512 H535 0.950 . S
C513 C512 1.349 . S
C513 C525 1.349 . S
C514 C512 1.327 . S
C514 C530 1.429 . S
C514 H536 0.950 . S
C515 H511 0.949 . S
C515 C523 1.574 . S
C515 C531 1.368 . S
H516 C524 0.950 1_455 S
H517 C522 0.950 . S
H518 C523 0.949 . S
H519 C525 0.950 . S
H520 C526 0.950 . S
H521 C527 0.949 . S
C522 H517 0.950 . S
C522 C524 1.327 . S
C522 C528 1.429 . S
C523 C515 1.574 . S
C523 H518 0.949 . S
C523 C529 1.368 . S
C524 C508 1.349 . S
C524 H516 0.950 1_655 S
C524 C522 1.327 . S
C525 C513 1.349 . S
C525 H519 0.950 . S
C525 C526 1.327 . S
C526 H520 0.950 . S
C526 C525 1.327 . S
C526 C530 1.429 . S
C527 C510 1.574 . S
C527 H521 0.949 . S
C527 C531 1.368 . S
C528 C509 1.429 . S
C528 C522 1.429 . S
C528 C529 1.523 . S
C529 C510 1.368 . S
C529 C523 1.368 . S
C529 C528 1.523 . S
C530 C514 1.429 . S
C530 C526 1.429 . S
C530 C531 1.523 . S
C531 C515 1.368 . S
C531 C527 1.368 . S
C531 C530 1.523 . S
H532 C507 0.950 . S
H533 C509 0.950 . S
H534 C510 0.949 . S
H535 C512 0.950 . S
H536 C514 0.950 . S
C537 C538 1.349 . S
C537 C539 1.327 . S
C537 H562 0.950 . S
C538 C537 1.349 . S
C538 C554 1.349 . S
C539 C537 1.327 . S
C539 C558 1.429 . S
C539 H563 0.950 . S
C540 C557 1.574 . S
C540 C559 1.368 . S
C540 H564 0.949 . S
H541 C545 0.949 . S
C542 C543 1.349 . S
C542 C544 1.327 . S
C542 H565 0.950 . S
C543 C542 1.349 . S
C543 C555 1.349 . S
C544 C542 1.327 . S
C544 C560 1.429 . S
C544 H566 0.950 . S
C545 H541 0.949 . S
C545 C553 1.574 . S
C545 C561 1.368 . S
H546 C554 0.950 . S
H547 C552 0.950 . S
H548 C553 0.949 . S
H549 C555 0.950 . S
H550 C556 0.950 . S
H551 C557 0.949 . S
C552 H547 0.950 . S
C552 C554 1.327 . S
C552 C558 1.429 . S
C553 C545 1.574 . S
C553 H548 0.949 . S
C553 C559 1.368 . S
C554 C538 1.349 . S
C554 H546 0.950 . S
C554 C552 1.327 . S
C555 C543 1.349 . S
C555 H549 0.950 . S
C555 C556 1.327 . S
C556 H550 0.950 . S
C556 C555 1.327 . S
C556 C560 1.429 . S
C557 C540 1.574 . S
C557 H551 0.949 . S
C557 C561 1.368 . S
C558 C539 1.429 . S
C558 C552 1.429 . S
C558 C559 1.523 . S
C559 C540 1.368 . S
C559 C553 1.368 . S
C559 C558 1.523 . S
C560 C544 1.429 . S
C560 C556 1.429 . S
C560 C561 1.523 . S
C561 C545 1.368 . S
C561 C557 1.368 . S
C561 C560 1.523 . S
H562 C537 0.950 . S
H563 C539 0.950 . S
H564 C540 0.949 . S
H565 C542 0.950 . S
H566 C544 0.950 . S
C567 C568 1.349 . S
C567 C569 1.327 . S
C567 H592 0.950 . S
C568 C567 1.349 . S
C568 C584 1.349 . S
C569 C567 1.327 . S
C569 C588 1.429 . S
C569 H593 0.950 . S
C570 C587 1.574 1_455 S
C570 C589 1.368 . S
C570 H594 0.949 . S
H571 C575 0.949 . S
C572 C573 1.349 . S
C572 C574 1.327 . S
C572 H595 0.950 . S
C573 C572 1.349 . S
C573 C585 1.349 . S
C574 C572 1.327 . S
C574 C590 1.429 . S
C574 H596 0.950 . S
C575 H571 0.949 . S
C575 C583 1.574 . S
C575 C591 1.368 1_455 S
H576 C584 0.950 . S
H577 C582 0.950 . S
H578 C583 0.949 . S
H579 C585 0.950 . S
H580 C586 0.950 . S
H581 C587 0.949 . S
C582 H577 0.950 . S
C582 C584 1.327 . S
C582 C588 1.429 . S
C583 C575 1.574 . S
C583 H578 0.949 . S
C583 C589 1.368 . S
C584 C568 1.349 . S
C584 H576 0.950 . S
C584 C582 1.327 . S
C585 C573 1.349 . S
C585 H579 0.950 . S
C585 C586 1.327 . S
C586 H580 0.950 . S
C586 C585 1.327 . S
C586 C590 1.429 . S
C587 C570 1.574 1_655 S
C587 H581 0.949 . S
C587 C591 1.368 . S
C588 C569 1.429 . S
C588 C582 1.429 . S
C588 C589 1.523 . S
C589 C570 1.368 . S
C589 C583 1.368 . S
C589 C588 1.523 . S
C590 C574 1.429 . S
C590 C586 1.429 . S
C590 C591 1.523 . S
C591 C575 1.368 1_655 S
C591 C587 1.368 . S
C591 C590 1.523 . S
H592 C567 0.950 . S
H593 C569 0.950 . S
H594 C570 0.949 . S
H595 C572 0.950 . S
H596 C574 0.950 . S
C597 C598 1.349 . S
C597 C599 1.327 . S
C597 H622 0.950 . S
C598 C597 1.349 . S
C598 C614 1.349 . S
C599 C597 1.327 . S
C599 C618 1.429 . S
C599 H623 0.950 . S
C600 C617 1.574 . S
C600 C619 1.368 . S
C600 H624 0.949 . S
H601 C605 0.949 . S
C602 C603 1.349 . S
C602 C604 1.327 . S
C602 H625 0.950 . S
C603 C602 1.349 . S
C603 C615 1.349 . S
C604 C602 1.327 . S
C604 C620 1.429 . S
C604 H626 0.950 . S
C605 H601 0.949 . S
C605 C613 1.574 . S
C605 C621 1.368 . S
H606 C614 0.950 . S
H607 C612 0.950 . S
H608 C613 0.949 . S
H609 C615 0.950 . S
H610 C616 0.950 . S
H611 C617 0.949 . S
C612 H607 0.950 . S
C612 C614 1.327 . S
C612 C618 1.429 . S
C613 C605 1.574 . S
C613 H608 0.949 . S
C613 C619 1.368 . S
C614 C598 1.349 . S
C614 H606 0.950 . S
C614 C612 1.327 . S
C615 C603 1.349 . S
C615 H609 0.950 . S
C615 C616 1.327 . S
C616 H610 0.950 . S
C616 C615 1.327 . S
C616 C620 1.429 . S
C617 C600 1.574 . S
C617 H611 0.949 . S
C617 C621 1.368 . S
C618 C599 1.429 . S
C618 C612 1.429 . S
C618 C619 1.523 . S
C619 C600 1.368 . S
C619 C613 1.368 . S
C619 C618 1.523 . S
C620 C604 1.429 . S
C620 C616 1.429 . S
C620 C621 1.523 . S
C621 C605 1.368 . S
C621 C617 1.368 . S
C621 C620 1.523 . S
H622 C597 0.950 . S
H623 C599 0.950 . S
H624 C600 0.949 . S
H625 C602 0.950 . S
H626 C604 0.950 . S
C627 C628 1.349 . S
C627 C629 1.327 . S
C627 H652 0.950 . S
C628 C627 1.349 . S
C628 C644 1.349 . S
C629 C627 1.327 . S
C629 C648 1.429 . S
C629 H653 0.950 . S
C630 C647 1.574 . S
C630 C649 1.368 . S
C630 H654 0.949 . S
H631 C635 0.949 . S
C632 C633 1.349 . S
C632 C634 1.327 . S
C632 H655 0.950 . S
C633 C632 1.349 . S
C633 C645 1.349 . S
C634 C632 1.327 . S
C634 C650 1.429 . S
C634 H656 0.950 . S
C635 H631 0.949 . S
C635 C643 1.574 1_545 S
C635 C651 1.368 . S
H636 C644 0.950 . S
H637 C642 0.950 . S
H638 C643 0.949 . S
H639 C645 0.950 . S
H640 C646 0.950 . S
H641 C647 0.949 . S
C642 H637 0.950 . S
C642 C644 1.327 . S
C642 C648 1.429 . S
C643 C635 1.574 1_565 S
C643 H638 0.949 . S
C643 C649 1.368 1_565 S
C644 C628 1.349 . S
C644 H636 0.950 . S
C644 C642 1.327 . S
C645 C633 1.349 . S
C645 H639 0.950 . S
C645 C646 1.327 . S
C646 H640 0.950 . S
C646 C645 1.327 . S
C646 C650 1.429 . S
C647 C630 1.574 . S
C647 H641 0.949 . S
C647 C651 1.368 . S
C648 C629 1.429 . S
C648 C642 1.429 . S
C648 C649 1.523 1_565 S
C649 C630 1.368 . S
C649 C643 1.368 1_545 S
C649 C648 1.523 1_545 S
C650 C634 1.429 . S
C650 C646 1.429 . S
C650 C651 1.523 . S
C651 C635 1.368 . S
C651 C647 1.368 . S
C651 C650 1.523 . S
H652 C627 0.950 . S
H653 C629 0.950 . S
H654 C630 0.949 . S
H655 C632 0.950 . S
H656 C634 0.950 . S
C118 C31 0.975 . S
C123 C5 0.975 . S
C148 C18 0.975 . S
C153 C3 0.975 . S
C178 C16 0.975 . S
C183 C29 0.975 . S
C208 C70 0.975 . S
C213 C44 0.975 . S
C238 C57 0.975 . S
C243 C42 0.975 . S
C268 C55 0.975 . S
C273 C68 0.975 . S
C298 C83 0.975 . S
C303 C109 0.975 . S
C328 C81 0.975 . S
C333 C96 0.975 . S
C358 C94 0.975 . S
C363 C107 0.975 . S
C388 C10 1.394 . S
C393 C95 1.394 . S
C418 C23 1.394 . S
C423 C114 1.394 . S
C448 C82 1.393 . S
C453 C30 1.393 1_565 S
C478 C62 1.394 . S
C483 C36 1.394 . S
C508 C4 1.367 1_655 S
C513 C69 1.393 . S
C538 C49 1.394 . S
C543 C17 1.394 . S
C568 C101 1.394 . S
C573 C75 1.394 . S
C598 C43 1.393 . S
C603 C108 1.393 . S
C628 C88 1.394 . S
C633 C56 1.394 . S
