# Generated by pormake.
# Topology lcy-e, (6)-cn, num edge types: 1
# Building blocks:
#     Node 0, Type 0, BuildingBlock: KUMBUR_clean_sbu_1, # of connection points: 6
#     Node 1, Type 0, BuildingBlock: KUMBUR_clean_sbu_1, # of connection points: 6
#     Node 2, Type 0, BuildingBlock: KUMBUR_clean_sbu_1, # of connection points: 6
#     Node 3, Type 0, BuildingBlock: KUMBUR_clean_sbu_1, # of connection points: 6
#     Node 4, Type 0, BuildingBlock: KUMBUR_clean_sbu_1, # of connection points: 6
#     Node 5, Type 0, BuildingBlock: KUMBUR_clean_sbu_1, # of connection points: 6
#     Node 6, Type 0, BuildingBlock: KUMBUR_clean_sbu_1, # of connection points: 6
#     Node 7, Type 0, BuildingBlock: KUMBUR_clean_sbu_1, # of connection points: 6
#     Node 8, Type 0, BuildingBlock: KUMBUR_clean_sbu_1, # of connection points: 6
#     Node 9, Type 0, BuildingBlock: KUMBUR_clean_sbu_1, # of connection points: 6
#     Node 10, Type 0, BuildingBlock: KUMBUR_clean_sbu_1, # of connection points: 6
#     Node 11, Type 0, BuildingBlock: KUMBUR_clean_sbu_1, # of connection points: 6
#     Edge 12, Type (0, 0), BuildingBlock: KIFKEQ_clean_linker_1, # of connection points: 2
#     Edge 13, Type (0, 0), BuildingBlock: KIFKEQ_clean_linker_1, # of connection points: 2
#     Edge 14, Type (0, 0), BuildingBlock: KIFKEQ_clean_linker_1, # of connection points: 2
#     Edge 15, Type (0, 0), BuildingBlock: KIFKEQ_clean_linker_1, # of connection points: 2
#     Edge 16, Type (0, 0), BuildingBlock: KIFKEQ_clean_linker_1, # of connection points: 2
#     Edge 17, Type (0, 0), BuildingBlock: KIFKEQ_clean_linker_1, # of connection points: 2
#     Edge 18, Type (0, 0), BuildingBlock: KIFKEQ_clean_linker_1, # of connection points: 2
#     Edge 19, Type (0, 0), BuildingBlock: KIFKEQ_clean_linker_1, # of connection points: 2
#     Edge 20, Type (0, 0), BuildingBlock: KIFKEQ_clean_linker_1, # of connection points: 2
#     Edge 21, Type (0, 0), BuildingBlock: KIFKEQ_clean_linker_1, # of connection points: 2
#     Edge 22, Type (0, 0), BuildingBlock: KIFKEQ_clean_linker_1, # of connection points: 2
#     Edge 23, Type (0, 0), BuildingBlock: KIFKEQ_clean_linker_1, # of connection points: 2
#     Edge 24, Type (0, 0), BuildingBlock: KIFKEQ_clean_linker_1, # of connection points: 2
#     Edge 25, Type (0, 0), BuildingBlock: KIFKEQ_clean_linker_1, # of connection points: 2
#     Edge 26, Type (0, 0), BuildingBlock: KIFKEQ_clean_linker_1, # of connection points: 2
#     Edge 27, Type (0, 0), BuildingBlock: KIFKEQ_clean_linker_1, # of connection points: 2
#     Edge 28, Type (0, 0), BuildingBlock: KIFKEQ_clean_linker_1, # of connection points: 2
#     Edge 29, Type (0, 0), BuildingBlock: KIFKEQ_clean_linker_1, # of connection points: 2
#     Edge 30, Type (0, 0), BuildingBlock: KIFKEQ_clean_linker_1, # of connection points: 2
#     Edge 31, Type (0, 0), BuildingBlock: KIFKEQ_clean_linker_1, # of connection points: 2
#     Edge 32, Type (0, 0), BuildingBlock: KIFKEQ_clean_linker_1, # of connection points: 2
#     Edge 33, Type (0, 0), BuildingBlock: KIFKEQ_clean_linker_1, # of connection points: 2
#     Edge 34, Type (0, 0), BuildingBlock: KIFKEQ_clean_linker_1, # of connection points: 2
#     Edge 35, Type (0, 0), BuildingBlock: KIFKEQ_clean_linker_1, # of connection points: 2
#     Edge 36, Type (0, 0), BuildingBlock: KIFKEQ_clean_linker_1, # of connection points: 2
#     Edge 37, Type (0, 0), BuildingBlock: KIFKEQ_clean_linker_1, # of connection points: 2
#     Edge 38, Type (0, 0), BuildingBlock: KIFKEQ_clean_linker_1, # of connection points: 2
#     Edge 39, Type (0, 0), BuildingBlock: KIFKEQ_clean_linker_1, # of connection points: 2
#     Edge 40, Type (0, 0), BuildingBlock: KIFKEQ_clean_linker_1, # of connection points: 2
#     Edge 41, Type (0, 0), BuildingBlock: KIFKEQ_clean_linker_1, # of connection points: 2
#     Edge 42, Type (0, 0), BuildingBlock: KIFKEQ_clean_linker_1, # of connection points: 2
#     Edge 43, Type (0, 0), BuildingBlock: KIFKEQ_clean_linker_1, # of connection points: 2
#     Edge 44, Type (0, 0), BuildingBlock: KIFKEQ_clean_linker_1, # of connection points: 2
#     Edge 45, Type (0, 0), BuildingBlock: KIFKEQ_clean_linker_1, # of connection points: 2
#     Edge 46, Type (0, 0), BuildingBlock: KIFKEQ_clean_linker_1, # of connection points: 2
#     Edge 47, Type (0, 0), BuildingBlock: KIFKEQ_clean_linker_1, # of connection points: 2
# Relax obj value: 0.093
# Max RMSD: 0.241
# Mean RMSD: 0.240
data_MOF--net-lcy-e--node1-KUMBUR_clean_sbu_1--edge1-KIFKEQ_clean_linker_1
_symmetry_space_group_name_H-M    P1
_symmetry_Int_Tables_number       1
_symmetry_cell_setting            triclinic
loop_
_symmetry_equiv_pos_as_xyz
'x, y, z'
_cell_length_a     44.529561
_cell_length_b     44.444805
_cell_length_c     44.612646
_cell_angle_alpha  89.999469
_cell_angle_beta   89.983779
_cell_angle_gamma 89.817157
loop_
_atom_site_label
_atom_site_type_symbol
_atom_site_fract_x
_atom_site_fract_y
_atom_site_fract_z
_atom_type_partial_charge
Tb0 Tb 0.14847 0.21278 0.521 0.0
C1 C 0.05404 0.30407 0.47022 0.0
N2 N 0.06826 0.28005 0.45777 0.0
C3 C 0.02183 0.26392 0.43563 0.0
C4 C 0.02274 0.30796 0.46726 0.0
C5 C 0.0529 0.26131 0.43897 0.0
C6 C 1.00655 0.28704 0.45032 0.0
C7 C 0.05745 0.35141 0.49705 0.0
C8 C 0.07121 0.32574 0.48458 0.0
C9 C 0.02612 0.35477 0.49523 0.0
C10 C 0.00882 0.33314 0.48029 0.0
Tb11 Tb 0.11926 0.27911 0.46383 0.0
N12 N 0.10152 0.32181 0.48582 0.0
C13 C 0.0757 0.37321 0.5104 0.0
C14 C 0.1195 0.34381 0.49712 0.0
C15 C 0.10689 0.36956 0.51011 0.0
H16 H 0.06466 0.24509 0.42541 0.0
H17 H 0.12124 0.38679 0.51942 0.0
H18 H 0.2012 0.24383 0.56508 0.0
H19 H 0.14731 0.11258 0.45419 0.0
H20 H 0.14355 0.34199 0.49537 0.0
H21 H 0.066 0.39331 0.52023 0.0
H22 H 0.12512 0.1579 0.47797 0.0
H23 H 0.00985 0.24856 0.42112 0.0
H24 H 0.01511 0.37433 0.50473 0.0
H25 H 0.98478 0.33644 0.47837 0.0
H26 H 0.25506 0.23644 0.57406 0.0
H27 H 0.9825 0.28932 0.44736 0.0
H28 H 0.20179 0.10246 0.45918 0.0
N29 N 0.19854 0.21004 0.53106 0.0
C30 C 0.21293 0.18675 0.51738 0.0
C31 C 0.24358 0.22258 0.55777 0.0
C32 C 0.24347 0.18072 0.52319 0.0
C33 C 0.21308 0.22718 0.55198 0.0
C34 C 0.25892 0.19939 0.54316 0.0
N35 N 0.16707 0.17405 0.49383 0.0
C36 C 0.14904 0.15393 0.47933 0.0
C37 C 0.21016 0.14231 0.4858 0.0
C38 C 0.19662 0.16796 0.49852 0.0
C39 C 0.19226 0.12259 0.4691 0.0
C40 C 0.16149 0.12824 0.46616 0.0
H41 H 0.28243 0.19554 0.54814 0.0
H42 H 0.28083 0.15083 0.51379 0.0
H43 H 0.25159 0.11701 0.48142 0.0
O44 O 0.11701 0.18226 0.54018 0.0
O45 O 0.15935 0.21301 0.47308 0.0
O46 O 0.16489 0.26131 0.45657 0.0
O47 O 0.16072 0.18815 0.55925 0.0
O48 O 0.10236 0.21248 0.50428 0.0
O49 O 0.10817 0.23133 0.45676 0.0
O50 O 0.13227 0.31682 0.43664 0.0
O51 O 0.09694 0.27619 0.50919 0.0
O52 O 0.12896 0.25125 0.54279 0.0
O53 O 0.1092 0.27895 0.41842 0.0
O54 O 0.1614 0.28914 0.48716 0.0
O55 O 0.16418 0.25974 0.53098 0.0
C56 C 0.17523 0.23378 0.45971 0.0
C57 C 0.12512 0.16344 0.59034 0.0
C58 C 0.10628 0.12358 0.62365 0.0
C59 C 0.11159 0.14261 0.64824 0.0
C60 C 0.12985 0.18189 0.6154 0.0
C61 C 0.12326 0.1714 0.64412 0.0
C62 C 0.11342 0.13407 0.59457 0.0
C63 C 0.09361 0.21455 0.47632 0.0
C64 C 0.13593 0.17296 0.56039 0.0
C65 C 0.25738 0.15583 0.50957 0.0
C66 C 0.24074 0.13659 0.49107 0.0
C67 C 0.10583 0.26879 0.53676 0.0
C68 C 0.13611 0.30777 0.38264 0.0
C69 C 0.15768 0.33811 0.34169 0.0
C70 C 0.15423 0.31352 0.32233 0.0
C71 C 0.13374 0.28355 0.36234 0.0
C72 C 0.14823 0.33543 0.37202 0.0
C73 C 0.14244 0.28656 0.33258 0.0
C74 C 0.17019 0.28448 0.51503 0.0
C75 C 0.12099 0.30493 0.4125 0.0
H76 H 0.10692 0.13501 0.67084 0.0
H77 H 0.13935 0.20415 0.61283 0.0
H78 H 0.12747 0.18559 0.66338 0.0
H79 H 0.11008 0.11946 0.57541 0.0
H80 H 0.1606 0.31529 0.29894 0.0
H81 H 0.12404 0.26228 0.36904 0.0
H82 H 0.14975 0.35465 0.38688 0.0
H83 H 0.13967 0.26793 0.31721 0.0
Tb84 Tb 0.05551 0.89854 0.77619 0.0
C85 C 0.96692 0.80955 0.71176 0.0
N86 N 0.99008 0.82604 0.70062 0.0
C87 C 1.00785 0.78289 0.67349 0.0
C88 C 0.96452 0.77852 0.70578 0.0
C89 C 0.00915 0.81367 0.67998 0.0
C90 C 0.98586 0.76509 0.68698 0.0
C91 C 0.92018 0.80804 0.73984 0.0
C92 C 0.94471 0.82414 0.72811 0.0
C93 C 0.91845 0.77685 0.73512 0.0
C94 C 0.94051 0.76214 0.71806 0.0
Tb95 Tb 0.99071 0.87525 0.71562 0.0
N96 N 0.94741 0.85424 0.73274 0.0
C97 C 0.89812 0.82385 0.75582 0.0
C98 C 0.92536 0.86998 0.74704 0.0
C99 C 0.90053 0.85503 0.75908 0.0
H100 H 0.0257 0.82733 0.6687 0.0
H101 H 0.88334 0.86755 0.77092 0.0
H102 H 0.02051 0.95363 0.81613 0.0
H103 H 0.15859 0.89677 0.71424 0.0
H104 H 0.92698 0.89393 0.74915 0.0
H105 H 0.87894 0.8123 0.7653 0.0
H106 H 0.11268 0.87455 0.73644 0.0
H107 H 0.02373 0.77295 0.658 0.0
H108 H 0.89989 0.76399 0.74415 0.0
H109 H 0.93851 0.73819 0.71402 0.0
H110 H 0.02542 1.00797 0.82149 0.0
H111 H 0.98488 0.74128 0.68187 0.0
H112 H 0.16706 0.95171 0.71761 0.0
N113 N 0.05526 0.94952 0.78306 0.0
C114 C 0.07894 0.96373 0.76991 0.0
C115 C 0.04022 0.99591 0.80641 0.0
C116 C 0.08354 0.99485 0.77389 0.0
C117 C 0.03695 0.96492 0.80247 0.0
C118 C 0.06336 0.01102 0.79177 0.0
N119 N 0.09502 0.91677 0.75033 0.0
C120 C 0.11612 0.8986 0.7373 0.0
C121 C 0.12574 0.96031 0.74184 0.0
C122 C 0.09987 0.94674 0.75387 0.0
C123 C 0.14685 0.9421 0.72709 0.0
C124 C 0.14211 0.91108 0.72502 0.0
H125 H 0.06618 0.03494 0.79542 0.0
H126 H 0.11256 0.03254 0.76378 0.0
H127 H 0.14947 1.00233 0.73582 0.0
O128 O 0.09045 0.87157 0.79426 0.0
O129 O 0.05732 0.9103 0.72805 0.0
O130 O 0.00873 0.92077 0.71815 0.0
O131 O 0.07592 0.91181 0.81651 0.0
O132 O 0.05672 0.85269 0.75844 0.0
O133 O 0.03737 0.85938 0.71106 0.0
O134 O 0.9527 0.8867 0.68882 0.0
O135 O 0.98723 0.85254 0.76003 0.0
O136 O 0.02203 0.86954 0.79605 0.0
O137 O 0.99754 0.88605 0.6706 0.0
O138 O 0.9833 0.91498 0.74352 0.0
O139 O 1.00846 0.91132 0.78904 0.0
C140 C 0.03713 0.92682 0.71436 0.0
C141 C 0.10453 0.87717 0.84569 0.0
C142 C 0.14446 0.85665 0.87767 0.0
C143 C 0.12509 0.85929 0.90242 0.0
C144 C 0.08563 0.87923 0.87077 0.0
C145 C 0.09599 0.87048 0.89896 0.0
C146 C 0.13409 0.86591 0.84923 0.0
C147 C 0.0519 0.84312 0.73105 0.0
C148 C 0.09513 0.88975 0.81653 0.0
C149 C 0.10875 0.00865 0.76097 0.0
C150 C 0.12984 0.99142 0.74512 0.0
C151 C 0.99964 0.85242 0.78708 0.0
C152 C 0.95784 0.88518 0.63479 0.0
C153 C 0.92601 0.89913 0.59195 0.0
C154 C 0.94285 0.87952 0.57385 0.0
C155 C 0.97384 0.86539 0.61606 0.0
C156 C 0.93374 0.90218 0.62255 0.0
C157 C 0.96649 0.86282 0.58582 0.0
C158 C 0.98441 0.91854 0.77281 0.0
C159 C 0.96928 0.89177 0.66533 0.0
H160 H 0.13263 0.85295 0.92463 0.0
H161 H 0.06309 0.88822 0.86871 0.0
H162 H 0.08148 0.87262 0.91831 0.0
H163 H 0.14895 0.86453 0.83002 0.0
H164 H 0.93778 0.87728 0.5502 0.0
H165 H 0.99274 0.85259 0.62453 0.0
H166 H 0.9215 0.91795 0.63653 0.0
H167 H 0.97943 0.84804 0.57145 0.0
Tb168 Tb 0.39469 0.73508 0.96424 0.0
C169 C 0.30946 0.80397 0.05017 0.0
N170 N 0.32571 0.81557 0.02722 0.0
C171 C 0.28227 0.84306 0.01061 0.0
C172 C 0.27849 0.80977 0.05315 0.0
C173 C 0.31307 0.83689 0.00911 0.0
C174 C 0.26469 0.82878 0.03226 0.0
C175 C 0.3096 0.77796 0.09782 0.0
C176 C 0.32468 0.78885 0.07233 0.0
C177 C 0.27834 0.78174 0.10001 0.0
C178 C 0.26279 0.79772 0.07771 0.0
Tb179 Tb 0.37545 0.80171 0.02497 0.0
N180 N 0.3548 0.78584 0.06923 0.0
C181 C 0.32656 0.76438 0.12056 0.0
C182 C 0.37169 0.77459 0.09222 0.0
C183 C 0.35784 0.76316 0.11796 0.0
H184 H 0.32679 0.84947 0.99369 0.0
H185 H 0.37128 0.75348 0.13574 0.0
H186 H 0.4479 0.69235 0.99454 0.0
H187 H 0.39377 0.81137 0.86929 0.0
H188 H 0.39575 0.77407 0.09043 0.0
H189 H 0.31585 0.75561 0.14052 0.0
H190 H 0.37163 0.78588 0.91242 0.0
H191 H 0.27224 0.85922 0.99544 0.0
H192 H 0.26617 0.77328 0.11927 0.0
H193 H 0.23888 0.80155 0.0802 0.0
H194 H 0.50069 0.67977 0.98339 0.0
H195 H 0.24093 0.83388 0.03369 0.0
H196 H 0.44614 0.80041 0.85442 0.0
N197 N 0.44353 0.72252 0.95769 0.0
C198 C 0.45652 0.73438 0.93277 0.0
C199 C 0.48855 0.69525 0.96907 0.0
C200 C 0.48649 0.72743 0.92535 0.0
C201 C 0.45874 0.70274 0.97554 0.0
C202 C 0.5025 0.70764 0.9439 0.0
N203 N 0.41161 0.76221 0.92421 0.0
C204 C 0.39479 0.78168 0.90745 0.0
C205 C 0.45355 0.76871 0.89052 0.0
C206 C 0.44019 0.75501 0.91566 0.0
C207 C 0.43669 0.78945 0.87394 0.0
C208 C 0.40718 0.79584 0.88238 0.0
H209 H 0.52564 0.70184 0.93902 0.0
H210 H 0.52271 0.73578 0.89405 0.0
H211 H 0.49386 0.77171 0.86348 0.0
O212 O 0.38184 0.71537 0.92304 0.0
O213 O 0.42904 0.76816 0.97614 0.0
O214 O 0.40149 0.81068 0.98392 0.0
O215 O 0.39377 0.68764 0.96171 0.0
O216 O 0.35259 0.75997 0.95768 0.0
O217 O 0.35891 0.80724 0.97856 0.0
O218 O 0.40479 0.82298 0.05616 0.0
O219 O 0.35843 0.75549 0.03476 0.0
O220 O 0.35173 0.73551 0.98804 0.0
O221 O 0.37571 0.84864 0.02825 0.0
O222 O 0.41518 0.7724 0.03123 0.0
O223 O 0.40679 0.72447 0.01143 0.0
C224 C 0.4271 0.79757 0.97733 0.0
C225 C 0.38098 0.66095 0.91534 0.0
C226 C 0.3615 0.63467 0.87094 0.0
C227 C 0.37639 0.60848 0.88065 0.0
C228 C 0.39522 0.63426 0.92436 0.0
C229 C 0.3931 0.60835 0.90702 0.0
C230 C 0.36428 0.66127 0.88818 0.0
C231 C 0.34385 0.78806 0.96184 0.0
C232 C 0.38605 0.68842 0.93345 0.0
C233 C 0.49969 0.74088 0.90014 0.0
C234 C 0.48327 0.76141 0.88277 0.0
C235 C 0.34791 0.73418 0.01709 0.0
C236 C 0.38723 0.87063 0.07429 0.0
C237 C 0.39866 0.91516 0.10451 0.0
C238 C 0.36889 0.91542 0.1148 0.0
C239 C 0.35765 0.8713 0.08522 0.0
C240 C 0.40783 0.89273 0.08402 0.0
C241 C 0.34857 0.89367 0.1052 0.0
C242 C 0.41698 0.74265 0.03288 0.0
C243 C 0.39517 0.84981 0.04969 0.0
H244 H 0.37507 0.58791 0.86769 0.0
H245 H 0.40865 0.63357 0.9446 0.0
H246 H 0.40451 0.588 0.91404 0.0
H247 H 0.35323 0.68173 0.88081 0.0
H248 H 0.36132 0.93269 0.13023 0.0
H249 H 0.34128 0.85509 0.07758 0.0
H250 H 0.43059 0.89276 0.07539 0.0
H251 H 0.32557 0.89434 0.11304 0.0
Tb252 Tb 0.46337 0.12131 0.27701 0.0
C253 C 0.55345 0.2081 0.20509 0.0
N254 N 0.53096 0.19106 0.19371 0.0
C255 C 0.51579 0.23223 0.1621 0.0
C256 C 0.5569 0.23849 0.19687 0.0
C257 C 0.51325 0.20218 0.17108 0.0
C258 C 0.5372 0.25069 0.17563 0.0
C259 C 0.59953 0.21031 0.23389 0.0
C260 C 0.57452 0.19427 0.22315 0.0
C261 C 0.60193 0.24118 0.22764 0.0
C262 C 0.58063 0.25526 0.20913 0.0
Tb263 Tb 0.52737 0.14335 0.21332 0.0
N264 N 0.57139 0.16449 0.22865 0.0
C265 C 0.6218 0.19458 0.24965 0.0
C266 C 0.59394 0.14862 0.24224 0.0
C267 C 0.6193 0.16344 0.25325 0.0
H268 H 0.49654 0.18799 0.16064 0.0
H269 H 0.63674 0.15089 0.26468 0.0
H270 H 0.49516 0.06944 0.32067 0.0
H271 H 0.37145 0.11578 0.19708 0.0
H272 H 0.59198 0.12469 0.24507 0.0
H273 H 0.6414 0.20607 0.25828 0.0
H274 H 0.41325 0.13998 0.22261 0.0
H275 H 0.50108 0.24117 0.14496 0.0
H276 H 0.62069 0.25409 0.23611 0.0
H277 H 0.58334 0.27882 0.20356 0.0
H278 H 0.48842 0.0155 0.33085 0.0
H279 H 0.53907 0.27398 0.16872 0.0
H280 H 0.35903 0.06277 0.20796 0.0
N281 N 0.45935 0.07176 0.28901 0.0
C282 C 0.436 0.05702 0.276 0.0
C283 C 0.47364 0.02688 0.31525 0.0
C284 C 0.43107 0.02624 0.28164 0.0
C285 C 0.47763 0.05743 0.30906 0.0
C286 C 0.45035 0.01117 0.30139 0.0
N287 N 0.42466 0.10178 0.24927 0.0
C288 C 0.40824 0.11718 0.22839 0.0
C289 C 0.39444 0.05754 0.24079 0.0
C290 C 0.41796 0.07254 0.25568 0.0
C291 C 0.37737 0.07346 0.21977 0.0
C292 C 0.38436 0.10336 0.21353 0.0
H293 H 0.44739 0.98746 0.30618 0.0
H294 H 0.40323 0.98774 0.2712 0.0
H295 H 0.37108 0.01517 0.23561 0.0
O296 O 0.42177 0.13359 0.29703 0.0
O297 O 0.47588 0.0891 0.24229 0.0
O298 O 0.48386 0.12192 0.20442 0.0
O299 O 0.46064 0.12152 0.32417 0.0
O300 O 0.45139 0.16156 0.25054 0.0
O301 O 0.48872 0.17379 0.2153 0.0
O302 O 0.56382 0.1212 0.19169 0.0
O303 O 0.5361 0.15819 0.26019 0.0
O304 O 0.48841 0.16383 0.27935 0.0
O305 O 0.52354 0.13072 0.16801 0.0
O306 O 0.53121 0.10216 0.24053 0.0
O307 O 0.51064 0.10938 0.28787 0.0
C308 C 0.47814 0.09457 0.21364 0.0
C309 C 0.41463 0.13384 0.35164 0.0
C310 C 0.37112 0.15344 0.3796 0.0
C311 C 0.3824 0.13951 0.40553 0.0
C312 C 0.42512 0.12037 0.37811 0.0
C313 C 0.40903 0.12306 0.40472 0.0
C314 C 0.38714 0.15022 0.35231 0.0
C315 C 0.46264 0.1783 0.22868 0.0
C316 C 0.43241 0.12943 0.3238 0.0
C317 C 0.4074 0.0114 0.26712 0.0
C318 C 0.38907 0.02703 0.24685 0.0
C319 C 0.51757 0.16781 0.28138 0.0
C320 C 0.56796 0.12935 0.13899 0.0
C321 C 0.60004 0.11763 0.09574 0.0
C322 C 0.59681 0.1475 0.08597 0.0
C323 C 0.56602 0.15914 0.12879 0.0
C324 C 0.58512 0.10835 0.1222 0.0
C325 C 0.57995 0.16803 0.10237 0.0
C326 C 0.5324 0.09946 0.26994 0.0
C327 C 0.55059 0.12004 0.16587 0.0
H328 H 0.37043 0.14134 0.42661 0.0
H329 H 0.44573 0.10735 0.37821 0.0
H330 H 0.4173 0.11237 0.4249 0.0
H331 H 0.37865 0.16075 0.3321 0.0
H332 H 0.60745 0.155 0.06544 0.0
H333 H 0.55343 0.17566 0.14094 0.0
H334 H 0.58697 0.08522 0.12969 0.0
H335 H 0.57769 0.19099 0.09459 0.0
Tb336 Tb 0.64689 0.30289 0.48508 0.0
C337 C 0.55867 0.21603 0.55513 0.0
N338 N 0.57537 0.23934 0.56558 0.0
C339 C 0.53451 0.25518 0.59687 0.0
C340 C 0.52855 0.21234 0.56403 0.0
C341 C 0.56418 0.25818 0.58704 0.0
C342 C 0.51645 0.2325 0.58493 0.0
C343 C 0.55537 0.17109 0.52431 0.0
C344 C 0.57204 0.19531 0.53596 0.0
C345 C 0.52503 0.16795 0.53229 0.0
C346 C 0.5117 0.18843 0.55222 0.0
Tb347 Tb 0.62324 0.24116 0.54794 0.0
N348 N 0.60136 0.19923 0.52841 0.0
C349 C 0.56973 0.15076 0.50504 0.0
C350 C 0.61574 0.17887 0.51054 0.0
C351 C 0.60012 0.15454 0.49834 0.0
H352 H 0.57811 0.27547 0.59678 0.0
H353 H 0.61154 0.13875 0.48376 0.0
H354 H 0.70349 0.269 0.44674 0.0
H355 H 0.6394 0.40894 0.5421 0.0
H356 H 0.63907 0.18134 0.50546 0.0
H357 H 0.55766 0.13192 0.4955 0.0
H358 H 0.62048 0.36018 0.52302 0.0
H359 H 0.52557 0.2704 0.6136 0.0
H360 H 0.51179 0.14957 0.52346 0.0
H361 H 0.48842 0.18541 0.55856 0.0
H362 H 0.75654 0.27863 0.43735 0.0
H363 H 0.49342 0.23035 0.59247 0.0
H364 H 0.69231 0.42329 0.53296 0.0
N365 N 0.69708 0.3076 0.47482 0.0
C366 C 0.70935 0.33401 0.48409 0.0
C367 C 0.74368 0.29414 0.45101 0.0
C368 C 0.73958 0.34105 0.47795 0.0
C369 C 0.71351 0.28832 0.45726 0.0
C370 C 0.75688 0.32045 0.46166 0.0
N371 N 0.66267 0.34646 0.5059 0.0
C372 C 0.6437 0.36604 0.51996 0.0
C373 C 0.70295 0.38229 0.50889 0.0
C374 C 0.69128 0.3545 0.49921 0.0
C375 C 0.68411 0.40186 0.52485 0.0
C376 C 0.65429 0.39374 0.53027 0.0
H377 H 0.78019 0.32504 0.45646 0.0
H378 H 0.77464 0.37432 0.48332 0.0
H379 H 0.74264 0.41031 0.51061 0.0
O380 O 0.61528 0.33235 0.46309 0.0
O381 O 0.66322 0.30802 0.53183 0.0
O382 O 0.66868 0.25927 0.54664 0.0
O383 O 0.65736 0.31868 0.44247 0.0
O384 O 0.60173 0.30552 0.50485 0.0
O385 O 0.60966 0.28851 0.55292 0.0
O386 O 0.63524 0.2024 0.57294 0.0
O387 O 0.5961 0.2429 0.50554 0.0
O388 O 0.62669 0.26209 0.46768 0.0
O389 O 0.63181 0.24601 0.59396 0.0
O390 O 0.66318 0.22998 0.5221 0.0
O391 O 0.6633 0.25604 0.47662 0.0
C392 C 0.67641 0.28749 0.54864 0.0
C393 C 0.62713 0.35185 0.41219 0.0
C394 C 0.60631 0.39436 0.38364 0.0
C395 C 0.62089 0.3833 0.35793 0.0
C396 C 0.64105 0.3415 0.38585 0.0
C397 C 0.63802 0.35715 0.35907 0.0
C398 C 0.60965 0.37862 0.41113 0.0
C399 C 0.59344 0.30325 0.53305 0.0
C400 C 0.63333 0.33506 0.44029 0.0
C401 C 0.75142 0.36861 0.48774 0.0
C402 C 0.73315 0.38919 0.50313 0.0
C403 C 0.60338 0.2466 0.47691 0.0
C404 C 0.63077 0.20339 0.62653 0.0
C405 C 0.64483 0.17157 0.6693 0.0
C406 C 0.61827 0.18044 0.68382 0.0
C407 C 0.60442 0.21168 0.64167 0.0
C408 C 0.65118 0.18328 0.64055 0.0
C409 C 0.5983 0.20033 0.67012 0.0
C410 C 0.67154 0.23311 0.49396 0.0
C411 C 0.63869 0.21765 0.59762 0.0
H412 H 0.61916 0.39513 0.33676 0.0
H413 H 0.65466 0.32125 0.38594 0.0
H414 H 0.64914 0.34902 0.33906 0.0
H415 H 0.59899 0.38711 0.43128 0.0
H416 H 0.61308 0.17207 0.70604 0.0
H417 H 0.5888 0.22742 0.63187 0.0
H418 H 0.67184 0.17696 0.6293 0.0
H419 H 0.57807 0.20716 0.68175 0.0
Tb420 Tb 0.02673 0.36741 0.80331 0.0
C421 C 0.96004 0.45754 0.71375 0.0
N422 N 0.94912 0.44102 0.73695 0.0
C423 C 0.91727 0.4821 0.75153 0.0
C424 C 0.95104 0.48765 0.70946 0.0
C425 C 0.92709 0.45238 0.75505 0.0
C426 C 0.92966 0.49998 0.72897 0.0
C427 C 0.9913 0.46023 0.66919 0.0
C428 C 0.97953 0.44388 0.69354 0.0
C429 C 0.98328 0.49059 0.66551 0.0
C430 C 0.9631 0.50422 0.68551 0.0
Tb431 Tb 0.96671 0.39298 0.73944 0.0
N432 N 0.98692 0.41449 0.69781 0.0
C433 C 0.01057 0.44548 0.64916 0.0
C434 C 1.00471 0.39968 0.67772 0.0
C435 C 0.01708 0.41499 0.65331 0.0
H436 H 0.91685 0.43857 0.77214 0.0
H437 H 0.0315 0.40323 0.63765 0.0
H438 H 0.06912 0.31368 0.76924 0.0
H439 H 0.97248 0.37009 0.90999 0.0
H440 H 0.00935 0.37617 0.68035 0.0
H441 H 0.02015 0.45727 0.63019 0.0
H442 H 0.99055 0.39108 0.86176 0.0
H443 H 0.90013 0.49117 0.76619 0.0
H444 H 0.9922 0.50359 0.64701 0.0
H445 H 0.95666 0.52749 0.68202 0.0
H446 H 0.07856 0.26003 0.7759 0.0
H447 H 0.92205 0.523 0.72635 0.0
H448 H 0.97972 0.31589 0.92081 0.0
N449 N 0.03742 0.31693 0.80533 0.0
C450 C 0.02647 0.30277 0.83006 0.0
C451 C 0.06342 0.27163 0.791 0.0
C452 C 0.03329 0.27233 0.83594 0.0
C453 C 0.05707 0.30213 0.78675 0.0
C454 C 0.05124 0.25656 0.81553 0.0
N455 N 1.0046 0.34888 0.84483 0.0
C456 C 0.99236 0.36731 0.86604 0.0
C457 C 1.00133 0.30661 0.87827 0.0
C458 C 0.01041 0.31953 0.8509 0.0
C459 C 0.98695 0.32494 0.89945 0.0
C460 C 0.98268 0.35552 0.8934 0.0
H461 H 0.05691 0.23313 0.81921 0.0
H462 H 0.0283 0.23564 0.86752 0.0
H463 H 1.00054 0.26573 0.90467 0.0
O464 O 0.04741 0.3999 0.83177 0.0
O465 O 0.97894 0.3555 0.80759 0.0
O466 O 0.96743 0.34799 0.75879 0.0
O467 O 0.06701 0.35611 0.82479 0.0
O468 O 1.0083 0.4132 0.80554 0.0
O469 O 0.96068 0.408 0.78603 0.0
O470 O 0.94228 0.38068 0.70065 0.0
O471 O 0.01025 0.4187 0.74109 0.0
O472 O 0.0457 0.38723 0.76365 0.0
O473 O 0.92041 0.3849 0.74362 0.0
O474 O 0.99171 0.35208 0.72889 0.0
O475 O 0.03634 0.3516 0.75644 0.0
C476 C 0.96337 0.34149 0.78697 0.0
C477 C 0.0977 0.39122 0.85093 0.0
C478 C 0.12841 0.41023 0.89237 0.0
C479 C 0.1543 0.40332 0.87573 0.0
C480 C 0.12395 0.38469 0.83477 0.0
C481 C 0.15206 0.39064 0.84721 0.0
C482 C 0.1 0.40394 0.87992 0.0
C483 C 0.98069 0.42299 0.80174 0.0
C484 C 0.06822 0.38101 0.83989 0.0
C485 C 0.02321 0.25898 0.86263 0.0
C486 C 1.00744 0.27613 0.88383 0.0
C487 C 0.03843 0.41064 0.74711 0.0
C488 C 0.88866 0.38519 0.70053 0.0
C489 C 0.8446 0.36913 0.6718 0.0
C490 C 0.83172 0.3976 0.67639 0.0
C491 C 0.87533 0.41352 0.70451 0.0
C492 C 0.87323 0.36295 0.6839 0.0
C493 C 0.84702 0.41961 0.69255 0.0
C494 C 0.01979 0.34368 0.73281 0.0
C495 C 0.91729 0.37751 0.71547 0.0
H496 H 0.17639 0.40749 0.885 0.0
H497 H 0.12275 0.3743 0.81283 0.0
H498 H 0.17224 0.38511 0.83484 0.0
H499 H 0.07986 0.40855 0.89281 0.0
H500 H 0.80971 0.40279 0.66736 0.0
H501 H 0.88651 0.43082 0.71718 0.0
H502 H 0.8832 0.34088 0.68078 0.0
H503 H 0.83678 0.44146 0.69598 0.0
Tb504 Tb 0.86907 0.71181 0.98916 0.0
C505 C 0.9585 0.80058 0.05337 0.0
N506 N 0.94171 0.77771 0.06449 0.0
C507 C 0.98419 0.75964 0.09227 0.0
C508 C 0.98937 0.80283 0.05981 0.0
C509 C 0.95353 0.75875 0.08548 0.0
C510 C 1.00236 0.78137 0.07883 0.0
C511 C 0.96034 0.84767 0.02597 0.0
C512 C 0.9442 0.82282 0.03692 0.0
C513 C 0.99143 0.84931 0.03106 0.0
C514 C 1.00593 0.82691 0.04794 0.0
Tb515 Tb 0.89274 0.77718 0.04945 0.0
N516 N 0.91422 0.82019 0.03209 0.0
C517 C 0.94461 0.87028 0.01069 0.0
C518 C 0.8985 0.84278 0.01856 0.0
C519 C 0.91347 0.86803 1.00737 0.0
H520 H 0.93935 0.74295 0.09711 0.0
H521 H 0.90096 0.88579 0.99638 0.0
H522 H 0.81391 0.74374 0.94757 0.0
H523 H 0.87447 0.61095 0.05471 0.0
H524 H 0.87439 0.84161 0.0169 0.0
H525 H 0.95615 0.88986 1.00201 0.0
H526 H 0.8947 0.6576 0.03212 0.0
H527 H 0.99368 0.74382 0.10812 0.0
H528 H 1.00435 0.86809 0.02258 0.0
H529 H 0.02977 0.82885 0.05232 0.0
H530 H 0.76064 0.73431 0.93858 0.0
H531 H 0.02605 0.78219 0.08428 0.0
H532 H 0.82074 0.59832 0.04835 0.0
N533 N 0.81886 0.70836 0.97984 0.0
C534 C 0.80577 0.68371 0.99237 0.0
C535 C 0.77296 0.72017 0.95408 0.0
C536 C 0.77555 0.67656 0.98632 0.0
C537 C 0.80318 0.72595 0.96001 0.0
C538 C 0.75903 0.69547 0.96736 0.0
N539 N 0.85227 0.67202 0.01562 0.0
C540 C 0.87105 0.6526 0.03024 0.0
C541 C 0.81071 0.63828 0.02238 0.0
C542 C 0.82306 0.66481 0.01046 0.0
C543 C 0.82937 0.61904 0.03897 0.0
C544 C 0.85972 0.62612 0.0427 0.0
H545 H 0.73574 0.69075 0.96222 0.0
H546 H 0.7398 0.64462 0.99432 0.0
H547 H 0.7706 0.61102 0.02562 0.0
O548 O 0.90006 0.68108 0.96841 0.0
O549 O 0.85489 0.71128 0.0364 0.0
O550 O 0.84677 0.76022 0.04896 0.0
O551 O 0.85619 0.68935 0.95025 0.0
O552 O 0.91451 0.711 1.00766 0.0
O553 O 0.90576 0.72961 0.05484 0.0
O554 O 0.87772 0.81487 0.07386 0.0
O555 O 0.91803 0.77724 1.00572 0.0
O556 O 0.8913 0.74985 0.96938 0.0
O557 O 0.88741 0.77327 0.09639 0.0
O558 O 0.85442 0.78869 0.02121 0.0
O559 O 0.85355 0.75839 0.97788 0.0
C560 C 0.8382 0.73219 0.04872 0.0
C561 C 0.88923 0.66257 0.91784 0.0
C562 C 0.90909 0.6222 0.88555 0.0
C563 C 0.89582 0.63648 0.86075 0.0
C564 C 0.87678 0.67639 0.89234 0.0
C565 C 0.87988 0.66327 0.86414 0.0
C566 C 0.90541 0.63521 0.91432 0.0
C567 C 0.92278 0.71483 0.03562 0.0
C568 C 0.8805 0.6734 0.94815 0.0
C569 C 0.76297 0.65049 0.9988 0.0
C570 C 0.78051 0.63136 0.01667 0.0
C571 C 0.91229 0.76901 0.97758 0.0
C572 C 0.88772 0.81831 0.12578 0.0
C573 C 0.87532 0.84931 0.1696 0.0
C574 C 0.90608 0.85179 0.17585 0.0
C575 C 0.9183 0.82137 0.13243 0.0
C576 C 0.86614 0.83247 0.14443 0.0
C577 C 0.92736 0.83797 0.15738 0.0
C578 C 0.84683 0.78329 0.9932 0.0
C579 C 0.87783 0.80089 0.0994 0.0
H580 H 0.89743 0.62658 0.8386 0.0
H581 H 0.86362 0.69683 0.8943 0.0
H582 H 0.86946 0.67368 0.84481 0.0
H583 H 0.91451 0.62387 0.93382 0.0
H584 H 0.91363 0.86447 0.19517 0.0
H585 H 0.93517 0.811 0.11835 0.0
H586 H 0.84241 0.83029 0.13946 0.0
H587 H 0.95102 0.84012 0.16247 0.0
Tb588 Tb 0.48393 0.64976 0.30482 0.0
C589 C 0.55772 0.56157 0.21468 0.0
N590 N 0.56787 0.57798 0.23827 0.0
C591 C 0.59971 0.53675 0.25293 0.0
C592 C 0.56672 0.53147 0.21033 0.0
C593 C 0.58996 0.56653 0.25637 0.0
C594 C 0.58749 0.5189 0.23027 0.0
C595 C 0.52974 0.56023 0.16809 0.0
C596 C 0.53988 0.57572 0.19369 0.0
C597 C 0.53701 0.52967 0.16458 0.0
C598 C 0.55555 0.51532 0.18564 0.0
Tb599 Tb 0.54891 0.62597 0.24222 0.0
N600 N 0.53305 0.60512 0.19814 0.0
C601 C 0.51301 0.57609 0.14666 0.0
C602 C 0.51848 0.62114 0.17643 0.0
C603 C 0.50773 0.60684 0.15068 0.0
H604 H 0.59997 0.58023 0.2737 0.0
H605 H 0.49551 0.61955 0.13393 0.0
H606 H 0.44289 0.7035 0.2729 0.0
H607 H 0.56596 0.65105 0.39409 0.0
H608 H 0.51532 0.64491 0.17893 0.0
H609 H 0.50464 0.56499 0.12674 0.0
H610 H 0.53973 0.62904 0.3509 0.0
H611 H 0.61658 0.52757 0.26783 0.0
H612 H 0.52906 0.51718 0.14531 0.0
H613 H 0.56178 0.49199 0.18218 0.0
H614 H 0.43231 0.7572 0.28233 0.0
H615 H 0.59503 0.49585 0.22769 0.0
H616 H 0.5545 0.70322 0.40983 0.0
N617 N 0.47245 0.69911 0.31016 0.0
C618 C 0.48536 0.71265 0.33422 0.0
C619 C 0.44726 0.74492 0.29707 0.0
C620 C 0.47971 0.74317 0.34058 0.0
C621 C 0.45351 0.71456 0.29164 0.0
C622 C 0.46033 0.75927 0.32169 0.0
N623 N 0.51286 0.66762 0.34278 0.0
C624 C 0.53412 0.65145 0.35773 0.0
C625 C 0.5211 0.71018 0.37524 0.0
C626 C 0.5061 0.69635 0.35116 0.0
C627 C 0.54258 0.69347 0.39105 0.0
C628 C 0.54918 0.66403 0.38218 0.0
H629 H 0.45556 0.78284 0.32572 0.0
H630 H 0.49007 0.78024 0.37031 0.0
H631 H 0.526 0.75131 0.40083 0.0
O632 O 0.46496 0.63224 0.34519 0.0
O633 O 0.51777 0.68209 0.29084 0.0
O634 O 0.55818 0.65173 0.2835 0.0
O635 O 0.43761 0.65459 0.31132 0.0
O636 O 0.50647 0.60643 0.31242 0.0
O637 O 0.55163 0.60348 0.28578 0.0
O638 O 0.56995 0.65059 0.20694 0.0
O639 O 0.50446 0.60336 0.23538 0.0
O640 O 0.47226 0.61335 0.27562 0.0
O641 O 0.59538 0.63324 0.24339 0.0
O642 O 0.51986 0.66561 0.23653 0.0
O643 O 0.47248 0.65919 0.25728 0.0
C644 C 0.54686 0.6785 0.28884 0.0
C645 C 0.41044 0.63626 0.35503 0.0
C646 C 0.38188 0.6142 0.39688 0.0
C647 C 0.35565 0.62712 0.38487 0.0
C648 C 0.38356 0.64848 0.34385 0.0
C649 C 0.35653 0.64402 0.3587 0.0
C650 C 0.40964 0.61915 0.38199 0.0
C651 C 0.53146 0.59259 0.30444 0.0
C652 C 0.4382 0.6408 0.33706 0.0
C653 C 0.4942 0.75681 0.36497 0.0
C654 C 0.51472 0.74033 0.38233 0.0
C655 C 0.47924 0.59923 0.25079 0.0
C656 C 0.62161 0.63751 0.19778 0.0
C657 C 0.66494 0.64933 0.16574 0.0
C658 C 0.67305 0.61878 0.16616 0.0
C659 C 0.6301 0.60704 0.19687 0.0
C660 C 0.6393 0.65883 0.18207 0.0
C661 C 0.65576 0.59787 0.18155 0.0
C662 C 0.49032 0.66683 0.23466 0.0
C663 C 0.59674 0.64713 0.21792 0.0
H664 H 0.33418 0.62424 0.39591 0.0
H665 H 0.38327 0.66151 0.32334 0.0
H666 H 0.33604 0.65363 0.34976 0.0
H667 H 0.43007 0.60922 0.39081 0.0
H668 H 0.69296 0.61104 0.15445 0.0
H669 H 0.61739 0.59023 0.20863 0.0
H670 H 0.63325 0.68246 0.1826 0.0
H671 H 0.66236 0.57441 0.18171 0.0
Tb672 Tb 0.27417 0.46219 0.11555 0.0
C673 C 0.21615 0.55413 0.20607 0.0
N674 N 0.20386 0.5307 0.19097 0.0
C675 C 0.17728 0.51561 0.23518 0.0
C676 C 0.21086 0.55818 0.23695 0.0
C677 C 0.18292 0.51292 0.20446 0.0
C678 C 0.19181 0.53798 0.25166 0.0
C679 C 0.245 0.60032 0.20469 0.0
C680 C 0.23277 0.57507 0.1901 0.0
C681 C 0.24091 0.60377 0.23573 0.0
C682 C 0.22387 0.58276 0.25182 0.0
Tb683 Tb 0.21662 0.52751 0.14167 0.0
N684 N 0.2365 0.57084 0.16014 0.0
C685 C 0.2609 0.62133 0.18758 0.0
C686 C 0.25071 0.59194 0.14315 0.0
C687 C 0.26348 0.61727 0.15662 0.0
H688 H 0.17032 0.49678 0.19156 0.0
H689 H 0.27504 0.63379 0.14307 0.0
H690 H 0.31518 0.49459 0.06052 0.0
H691 H 0.21309 0.35866 0.11926 0.0
H692 H 0.25165 0.58978 0.11921 0.0
H693 H 0.27075 0.64101 0.19794 0.0
H694 H 0.23555 0.40501 0.14046 0.0
H695 H 0.16139 0.50077 0.246 0.0
H696 H 0.25039 0.62288 0.24742 0.0
H697 H 0.2203 0.5861 0.27562 0.0
H698 H 0.32041 0.48893 1.00628 0.0
H699 H 0.18718 0.54025 0.2754 0.0
H700 H 0.2154 0.34939 0.06456 0.0
N701 N 0.28149 0.46055 0.06483 0.0
C702 C 0.26775 0.43709 0.05089 0.0
C703 C 0.30508 0.47455 0.01846 0.0
C704 C 0.27164 0.43194 0.01995 0.0
C705 C 0.30128 0.47824 0.04932 0.0
C706 C 0.28989 0.45156 1.00361 0.0
N707 N 0.24844 0.42218 0.09793 0.0
C708 C 0.23593 0.40125 0.11652 0.0
C709 C 0.23935 0.39066 0.05509 0.0
C710 C 0.25154 0.41677 0.06813 0.0
C711 C 0.22495 0.36981 0.07372 0.0
C712 C 0.22349 0.375 0.10461 0.0
H713 H 0.29344 0.44836 0.9798 0.0
H714 H 0.26101 0.40242 0.9828 0.0
H715 H 0.23295 0.3662 0.0136 0.0
O716 O 0.29588 0.43356 0.14711 0.0
O717 O 0.22589 0.46049 0.10559 0.0
O718 O 0.21617 0.50944 0.09606 0.0
O719 O 0.31186 0.43744 0.10191 0.0
O720 O 0.25672 0.45989 0.16157 0.0
O721 O 0.20972 0.48084 0.15655 0.0
O722 O 0.18807 0.56571 0.13324 0.0
O723 O 0.26031 0.52359 0.16728 0.0
O724 O 0.29479 0.50123 0.13495 0.0
O725 O 0.17114 0.52 0.13479 0.0
O726 O 0.24173 0.53808 0.1009 0.0
O727 O 0.28586 0.50931 0.10077 0.0
C728 C 0.2121 0.48105 0.08973 0.0
C729 C 0.34573 0.41542 0.1366 0.0
C730 C 0.38029 0.37735 0.15673 0.0
C731 C 0.4045 0.39487 0.14654 0.0
C732 C 0.37036 0.43257 0.12713 0.0
C733 C 0.39953 0.42222 0.13199 0.0
C734 C 0.35077 0.38773 0.15142 0.0
C735 C 0.22926 0.46438 0.17148 0.0
C736 C 0.31501 0.42372 0.12737 0.0
C737 C 0.25832 0.40667 1.00657 0.0
C738 C 0.24239 0.38599 0.02412 0.0
C739 C 0.28825 0.5156 0.15981 0.0
C740 C 0.13312 0.55822 0.13217 0.0
C741 C 0.09095 0.59009 0.11568 0.0
C742 C 0.07112 0.57057 0.13038 0.0
C743 C 0.11247 0.53955 0.14704 0.0
C744 C 0.12216 0.58376 0.11633 0.0
C745 C 0.08179 0.54561 0.14592 0.0
C746 C 0.27008 0.53388 0.09344 0.0
C747 C 0.16493 0.54819 0.12948 0.0
H748 H 0.42742 0.38717 0.14944 0.0
H749 H 0.36703 0.45353 0.11517 0.0
H750 H 0.41842 0.43524 0.12404 0.0
H751 H 0.33181 0.37419 0.15841 0.0
H752 H 0.04712 0.57471 0.12979 0.0
H753 H 0.11992 0.51961 0.15889 0.0
H754 H 0.13761 0.59817 0.10429 0.0
H755 H 0.06612 0.5307 0.15696 0.0
Tb756 Tb 0.71075 0.98957 0.86563 0.0
C757 C 0.80514 0.05134 0.95242 0.0
N758 N 0.78127 0.06296 0.9374 0.0
C759 C 0.76705 0.09123 0.98097 0.0
C760 C 0.80972 0.0576 0.98303 0.0
C761 C 0.76366 0.08435 0.95057 0.0
C762 C 0.78974 0.07718 0.9975 0.0
C763 C 0.8517 0.02294 0.95088 0.0
C764 C 0.826 0.03452 0.93653 0.0
C765 C 0.85556 0.02769 0.98179 0.0
C766 C 0.83462 0.04501 0.99783 0.0
Tb767 Tb 0.77692 0.04822 0.88864 0.0
N768 N 0.82116 0.02991 0.9068 0.0
C769 C 0.87282 1.00718 0.93363 0.0
C770 C 0.8423 0.01592 0.88961 0.0
C771 C 0.86826 1.00401 0.90278 0.0
H772 H 0.74768 0.09688 0.93741 0.0
H773 H 0.88482 0.99257 0.88909 0.0
H774 H 0.74598 0.94892 0.81117 0.0
H775 H 0.608 0.05251 0.86586 0.0
H776 H 0.83952 0.01464 0.86572 0.0
H777 H 0.89289 0.99788 0.94379 0.0
H778 H 0.65393 0.03046 0.88847 0.0
H779 H 0.75254 0.10774 0.99145 0.0
H780 H 0.87496 0.01861 0.99336 0.0
H781 H 0.83829 0.04918 0.02147 0.0
H782 H 0.74161 0.94345 0.75706 0.0
H783 H 0.79249 0.08267 0.021 0.0
H784 H 0.59948 0.04826 0.81118 0.0
N785 N 0.711 0.98203 0.81487 0.0
C786 C 0.68749 0.99525 0.80034 0.0
C787 C 0.72657 0.95853 0.76887 0.0
C788 C 0.68308 0.99104 0.76933 0.0
C789 C 0.72952 0.96255 0.79977 0.0
C790 C 0.70347 0.97308 0.7535 0.0
N791 N 0.67147 0.01557 0.84669 0.0
C792 C 0.65045 0.02914 0.86451 0.0
C793 C 0.6408 0.0237 0.8031 0.0
C794 C 0.66662 0.01168 0.8169 0.0
C795 C 0.61969 0.03883 0.82095 0.0
C796 C 0.62445 0.04138 0.85182 0.0
H797 H 0.70087 0.96933 0.72965 0.0
H798 H 0.6542 1.00086 0.73147 0.0
H799 H 0.61711 0.02924 0.76106 0.0
O800 O 0.67683 0.97305 0.8944 0.0
O801 O 0.70995 0.03775 0.85395 0.0
O802 O 0.75869 0.04577 0.84328 0.0
O803 O 0.68851 0.94952 0.85408 0.0
O804 O 0.71031 1.00844 0.91069 0.0
O805 O 0.7306 0.05581 0.90508 0.0
O806 O 0.8143 0.07372 0.87442 0.0
O807 O 0.77627 1.0055 0.9154 0.0
O808 O 0.74586 0.96911 0.89211 0.0
O809 O 0.77086 0.09444 0.88054 0.0
O810 O 0.78299 0.01958 0.84927 0.0
O811 O 0.75737 0.97458 0.8542 0.0
C812 C 0.73043 0.05068 0.83737 0.0
C813 C 0.66254 0.92163 0.89144 0.0
C814 C 0.62326 0.88807 0.91038 0.0
C815 C 0.6447 0.86483 0.91201 0.0
C816 C 0.68349 0.89813 0.89358 0.0
C817 C 0.67456 0.86993 0.90394 0.0
C818 C 0.63247 0.9167 0.9004 0.0
C819 C 0.71362 0.03634 0.91965 0.0
C820 C 0.67069 0.95038 0.87716 0.0
C821 C 0.6579 1.0039 0.75527 0.0
C822 C 0.63673 0.02001 0.77214 0.0
C823 C 0.76513 0.97786 0.91279 0.0
C824 C 0.81331 0.12698 0.88055 0.0
C825 C 0.84333 0.1707 0.86616 0.0
C826 C 0.83799 0.18328 0.89451 0.0
C827 C 0.80843 0.14002 0.90875 0.0
C828 C 0.83089 0.14246 0.85914 0.0
C829 C 0.82067 0.16803 0.91561 0.0
C830 C 0.78183 0.99013 0.84719 0.0
C831 C 0.7987 0.09842 0.87224 0.0
H832 H 0.63826 0.84257 0.91949 0.0
H833 H 0.70656 0.9014 0.8866 0.0
H834 H 0.69075 0.85176 0.90521 0.0
H835 H 0.61606 0.93466 0.89833 0.0
H836 H 0.84723 0.20505 0.90027 0.0
H837 H 0.79486 0.12885 0.92535 0.0
H838 H 0.83468 0.13272 0.83718 0.0
H839 H 0.81659 0.17805 0.93735 0.0
Tb840 Tb 0.74194 0.96173 0.39618 0.0
C841 C 0.80401 0.05163 0.307 0.0
N842 N 0.81526 0.02825 0.32316 0.0
C843 C 0.84146 0.01025 0.27969 0.0
C844 C 0.80948 0.05411 0.276 0.0
C845 C 0.8356 0.009 0.31047 0.0
C846 C 0.82779 0.0325 0.26223 0.0
C847 C 0.77671 0.09901 0.30625 0.0
C848 C 0.7881 0.07398 0.32192 0.0
C849 C 0.78093 0.1009 0.2751 0.0
C850 C 0.79726 0.07849 0.26 0.0
Tb851 Tb 0.80075 0.02733 0.37229 0.0
N852 N 0.78388 0.07108 0.35195 0.0
C853 C 0.76167 0.12146 0.32247 0.0
C854 C 0.77033 0.09335 0.3681 0.0
C855 C 0.75883 0.11879 0.35359 0.0
H856 H 0.84716 0.99236 0.32388 0.0
H857 H 0.74782 0.13633 0.3664 0.0
H858 H 0.70056 0.99505 0.45105 0.0
H859 H 0.80734 0.86044 0.39418 0.0
H860 H 0.7687 0.09162 0.39215 0.0
H861 H 0.75264 0.14114 0.31128 0.0
H862 H 0.78336 0.90576 0.37212 0.0
H863 H 0.85667 0.99419 0.26951 0.0
H864 H 0.77208 0.11982 0.26255 0.0
H865 H 0.80089 0.08058 0.23608 0.0
H866 H 0.69585 0.99013 0.50533 0.0
H867 H 0.83245 0.03349 0.23841 0.0
H868 H 0.80461 0.85174 0.44895 0.0
N869 N 0.73478 0.96124 0.44692 0.0
C870 C 0.74895 0.93803 0.46108 0.0
C871 C 0.7113 0.97571 0.49325 0.0
C872 C 0.74537 0.93336 0.49213 0.0
C873 C 0.71483 0.97898 0.46232 0.0
C874 C 0.72691 0.95305 0.5083 0.0
N875 N 0.76908 0.92285 0.41425 0.0
C876 C 0.78276 0.90222 0.39609 0.0
C877 C 0.77887 0.89225 0.45761 0.0
C878 C 0.76577 0.91773 0.44411 0.0
C879 C 0.79433 0.87168 0.43941 0.0
C880 C 0.79604 0.87655 0.40848 0.0
H881 H 0.72361 0.9502 0.53219 0.0
H882 H 0.75691 0.90471 0.52971 0.0
H883 H 0.78604 0.86868 0.49951 0.0
O884 O 0.72335 0.92839 0.36754 0.0
O885 O 0.78994 0.96183 0.40753 0.0
O886 O 0.79917 0.01048 0.41835 0.0
O887 O 0.7033 0.93887 0.41001 0.0
O888 O 0.75889 0.96126 0.35018 0.0
O889 O 0.80611 0.98052 0.35716 0.0
O890 O 0.82802 0.06506 0.38295 0.0
O891 O 0.75614 0.02931 0.34836 0.0
O892 O 0.72072 0.99733 0.37108 0.0
O893 O 0.8461 0.02005 0.38243 0.0
O894 O 0.77271 0.03736 0.4111 0.0
O895 O 0.72879 1.00837 0.40987 0.0
C896 C 0.80172 0.98205 0.42522 0.0
C897 C 0.6725 0.9123 0.3756 0.0
C898 C 0.64004 0.87303 0.35463 0.0
C899 C 0.6149 0.89057 0.36254 0.0
C900 C 0.64695 0.92946 0.38265 0.0
C901 C 0.61837 0.9185 0.37632 0.0
C902 C 0.66897 0.88395 0.36156 0.0
C903 C 0.78645 0.96572 0.3409 0.0
C904 C 0.70237 0.92157 0.38658 0.0
C905 C 0.75938 0.90859 0.50587 0.0
C906 C 0.77591 0.888 0.48865 0.0
C907 C 0.7284 0.01865 0.35199 0.0
C908 C 0.88186 0.05989 0.38063 0.0
C909 C 0.92536 0.09108 0.3939 0.0
C910 C 0.94212 0.0762 0.37173 0.0
C911 C 0.89925 0.0457 0.35848 0.0
C912 C 0.8951 0.0827 0.39852 0.0
C913 C 0.92918 0.05374 0.35423 0.0
C914 C 0.74394 0.03332 0.41643 0.0
C915 C 0.85153 0.04836 0.38791 0.0
H916 H 0.59237 0.88249 0.3583 0.0
H917 H 0.64902 0.95098 0.39386 0.0
H918 H 0.59876 0.93156 0.38246 0.0
H919 H 0.68856 0.87038 0.35635 0.0
H920 H 0.9655 0.08187 0.36809 0.0
H921 H 0.88996 0.0278 0.34494 0.0
H922 H 0.88213 0.09352 0.41605 0.0
H923 H 0.94254 0.04229 0.33745 0.0
Tb924 Tb 0.30235 0.48534 0.64626 0.0
C925 C 0.21753 0.5575 0.55794 0.0
N926 N 0.24144 0.56732 0.57407 0.0
C927 C 0.26002 0.59347 0.53087 0.0
C928 C 0.21458 0.56416 0.52722 0.0
C929 C 0.26168 0.5865 0.56142 0.0
C930 C 0.23664 0.58183 0.51356 0.0
C931 C 0.16948 0.53201 0.55737 0.0
C932 C 0.1953 0.5418 0.5727 0.0
C933 C 0.16689 0.53752 0.52648 0.0
C934 C 0.18942 0.55355 0.51141 0.0
Tb935 Tb 0.24322 0.55221 0.62311 0.0
N936 N 0.1992 0.53607 0.60233 0.0
C937 C 0.147 0.51733 0.57369 0.0
C938 C 0.17669 0.52336 0.61863 0.0
C939 C 0.15043 0.51344 0.60459 0.0
H940 H 0.27909 0.59656 0.57489 0.0
H941 H 0.13286 0.50289 0.61762 0.0
H942 H 0.27118 0.44542 0.70087 0.0
H943 H 0.39699 0.56116 0.64284 0.0
H944 H 0.17871 0.52143 0.64245 0.0
H945 H 0.12675 0.50946 0.56279 0.0
H946 H 0.35219 0.53668 0.62236 0.0
H947 H 0.27663 0.60803 0.52078 0.0
H948 H 0.14738 0.5299 0.51415 0.0
H949 H 0.18689 0.55814 0.48769 0.0
H950 H 0.28373 0.43255 0.75322 0.0
H951 H 0.2353 0.58739 0.48995 0.0
H952 H 0.41406 0.54923 0.69425 0.0
N953 N 0.30972 0.47302 0.69482 0.0
C954 C 0.33521 0.48437 0.70701 0.0
C955 C 0.29836 0.44715 0.74047 0.0
C956 C 0.34337 0.47735 0.73668 0.0
C957 C 0.29116 0.45474 0.71094 0.0
C958 C 0.32466 0.45836 0.75336 0.0
N959 N 0.34237 0.51253 0.6623 0.0
C960 C 0.35848 0.53201 0.64508 0.0
C961 C 0.37785 0.518 0.70277 0.0
C962 C 0.35202 0.50481 0.69028 0.0
C963 C 0.394 0.53866 0.6855 0.0
C964 C 0.38432 0.54561 0.65653 0.0
H965 H 0.33011 0.45252 0.7763 0.0
H966 H 0.37611 0.48494 0.77174 0.0
H967 H 0.40645 0.52021 0.742 0.0
O968 O 0.34001 0.46542 0.62352 0.0
O969 O 0.29164 0.52042 0.67901 0.0
O970 O 0.28301 0.56254 0.65077 0.0
O971 O 0.31071 0.43961 0.65277 0.0
O972 O 0.30655 0.5062 0.60185 0.0
O973 O 0.29057 0.5544 0.61028 0.0
O974 O 0.21078 0.57454 0.6503 0.0
O975 O 0.23912 0.50877 0.59701 0.0
O976 O 0.26571 0.46917 0.61969 0.0
O977 O 0.24051 0.59923 0.62185 0.0
O978 O 0.23444 0.52535 0.66345 0.0
O979 O 0.25484 0.47724 0.6584 0.0
C980 C 0.28953 0.54979 0.67659 0.0
C981 C 0.35202 0.41125 0.63113 0.0
C982 C 0.39385 0.38174 0.60987 0.0
C983 C 0.38315 0.3564 0.62533 0.0
C984 C 0.3422 0.3852 0.64603 0.0
C985 C 0.35767 0.35817 0.64321 0.0
C986 C 0.37831 0.40956 0.61305 0.0
C987 C 0.30337 0.53419 0.59304 0.0
C988 C 0.33445 0.43945 0.63585 0.0
C989 C 0.36937 0.49016 0.74899 0.0
C990 C 0.38659 0.51034 0.73207 0.0
C991 C 0.24757 0.48003 0.59919 0.0
C992 C 0.19418 0.62277 0.63239 0.0
C993 C 0.16108 0.66501 0.64576 0.0
C994 C 0.15413 0.6687 0.61531 0.0
C995 C 0.18646 0.62693 0.60213 0.0
C996 C 0.18139 0.64202 0.65431 0.0
C997 C 0.16674 0.64984 0.59372 0.0
C998 C 0.23299 0.49593 0.66669 0.0
C999 C 0.21823 0.60109 0.64052 0.0
H1000 H 0.39484 0.33503 0.62382 0.0
H1001 H 0.32245 0.38562 0.6602 0.0
H1002 H 0.34988 0.33843 0.65505 0.0
H1003 H 0.3864 0.42938 0.60148 0.0
H1004 H 0.1391 0.68655 0.60819 0.0
H1005 H 0.19635 0.61302 0.58483 0.0
H1006 H 0.18754 0.63947 0.67768 0.0
H1007 H 0.16145 0.65323 0.57028 0.0
H1008 H 0.14654 0.31981 0.55897 0.0
H1009 H 0.22359 0.31058 0.50157 0.0
H1010 H 0.16397 0.36905 0.57547 0.0
H1011 H 0.24119 0.36008 0.51738 0.0
H1012 H 0.27968 0.4352 0.57507 0.0
H1013 H 0.2618 0.38745 0.55664 0.0
H1014 H 0.17051 0.42051 0.56051 0.0
H1015 H 0.18886 0.46832 0.58119 0.0
C1016 C 0.16792 0.32774 0.55091 0.0
C1017 C 0.1843 0.31074 0.5299 0.0
C1018 C 0.17752 0.35651 0.55963 0.0
C1019 C 0.20402 0.36897 0.54775 0.0
C1020 C 0.22083 0.35138 0.52736 0.0
C1021 C 0.21094 0.32283 0.51838 0.0
C1022 C 0.25576 0.43271 0.57124 0.0
C1023 C 0.23571 0.45593 0.57931 0.0
C1024 C 0.24545 0.40509 0.56062 0.0
C1025 C 0.21461 0.39969 0.55705 0.0
C1026 C 0.19444 0.42355 0.56341 0.0
C1027 C 0.20491 0.45134 0.57456 0.0
H1028 H 0.8124 0.00938 0.799 0.0
H1029 H 0.81277 0.94015 0.86657 0.0
H1030 H 0.86277 0.99601 0.78454 0.0
H1031 H 0.86321 0.92458 0.85058 0.0
H1032 H 0.96397 0.91708 0.83171 0.0
H1033 H 0.91442 0.9335 0.84966 0.0
H1034 H 0.8936 0.96585 0.7605 0.0
H1035 H 0.94312 0.95298 0.74424 0.0
C1036 C 0.82297 0.9903 0.80992 0.0
C1037 C 0.80835 0.97542 0.83346 0.0
C1038 C 0.85215 0.98245 0.80161 0.0
C1039 C 0.86768 0.95883 0.81604 0.0
C1040 C 0.85245 0.94307 0.83899 0.0
C1041 C 0.82314 0.95136 0.84767 0.0
C1042 C 0.94902 0.9287 0.81643 0.0
C1043 C 0.95755 0.93334 0.78646 0.0
C1044 C 0.92025 0.93755 0.82648 0.0
C1045 C 0.89925 0.95084 0.80663 0.0
C1046 C 0.9087 0.95649 0.77705 0.0
C1047 C 0.93747 0.94874 0.76748 0.0
H1048 H 0.31497 0.69222 0.98756 0.0
H1049 H 0.35196 0.71149 0.07485 0.0
H1050 H 0.29838 0.64349 1.00502 0.0
H1051 H 0.33438 0.66246 0.09293 0.0
H1052 H 0.32494 0.55913 0.10596 0.0
H1053 H 0.34296 0.60864 0.08939 0.0
H1054 H 0.2634 0.61892 0.03482 0.0
H1055 H 0.24633 0.56959 0.05056 0.0
C1056 C 0.31924 0.68623 0.01071 0.0
C1057 C 0.33484 0.70597 0.02973 0.0
C1058 C 0.30952 0.65814 0.02086 0.0
C1059 C 0.31497 0.64865 0.05048 0.0
C1060 C 0.33007 0.66866 0.06985 0.0
C1061 C 0.33979 0.69703 0.05962 0.0
C1062 C 0.31203 0.57158 0.0895 0.0
C1063 C 0.28469 0.56005 0.07881 0.0
C1064 C 0.32194 0.6003 0.08054 0.0
C1065 C 0.30479 0.61803 0.06056 0.0
C1066 C 0.2777 0.60597 0.04964 0.0
C1067 C 0.26789 0.57749 0.05855 0.0
H1068 H 0.55647 0.10954 0.32549 0.0
H1069 H 0.57253 0.06188 0.24265 0.0
H1070 H 0.60585 0.09388 0.34365 0.0
H1071 H 0.62178 0.04599 0.26088 0.0
H1072 H 0.72067 0.04409 0.29518 0.0
H1073 H 0.67322 0.06444 0.27451 0.0
H1074 H 0.62935 0.04783 0.35923 0.0
H1075 H 0.67509 0.02729 0.37902 0.0
C1076 C 0.57032 0.09531 0.31138 0.0
C1077 C 0.56049 0.08685 0.28274 0.0
C1078 C 0.59875 0.08652 0.32163 0.0
C1079 C 0.618 0.0689 0.30356 0.0
C1080 C 0.60789 0.06004 0.27511 0.0
C1081 C 0.57944 0.06877 0.26489 0.0
C1082 C 0.70093 0.04531 0.30932 0.0
C1083 C 0.7019 0.0343 0.33881 0.0
C1084 C 0.67374 0.05672 0.29752 0.0
C1085 C 0.64747 0.05804 0.31537 0.0
C1086 C 0.649 0.04766 0.34492 0.0
C1087 C 0.67545 0.0356 0.35619 0.0
H1088 H 0.69911 0.18883 0.52547 0.0
H1089 H 0.68128 0.21741 0.43464 0.0
H1090 H 0.71297 0.13998 0.50819 0.0
H1091 H 0.69956 0.16901 0.41638 0.0
H1092 H 0.70446 0.07193 0.39074 0.0
H1093 H 0.68894 0.12068 0.40877 0.0
H1094 H 0.74265 0.10624 0.48857 0.0
H1095 H 0.75463 0.056 0.47137 0.0
C1096 C 0.69922 0.18503 0.50148 0.0
C1097 C 0.68834 0.20703 0.48151 0.0
C1098 C 0.7076 0.15665 0.49138 0.0
C1099 C 0.70721 0.14962 0.46066 0.0
C1100 C 0.69912 0.17273 0.44032 0.0
C1101 C 0.68936 0.20098 0.45067 0.0
C1102 C 0.71072 0.0782 0.41313 0.0
C1103 C 0.72886 0.05921 0.43052 0.0
C1104 C 0.7031 0.10706 0.42307 0.0
C1105 C 0.71437 0.11821 0.45038 0.0
C1106 C 0.73251 0.09881 0.46787 0.0
C1107 C 0.73944 0.06971 0.45812 0.0
H1108 H 0.09297 0.38536 0.73908 0.0
H1109 H 0.04492 0.4684 0.72252 0.0
H1110 H 0.13801 0.4065 0.71988 0.0
H1111 H 0.09195 0.49043 0.70281 0.0
H1112 H 0.19252 0.52434 0.70363 0.0
H1113 H 0.14343 0.50583 0.71991 0.0
H1114 H 0.16098 0.42156 0.6748 0.0
H1115 H 0.2099 0.43984 0.65902 0.0
C1116 C 0.09163 0.40811 0.73065 0.0
C1117 C 0.06472 0.42489 0.73204 0.0
C1118 C 0.11794 0.42033 0.71954 0.0
C1119 C 0.11879 0.45007 0.70939 0.0
C1120 C 0.09202 0.46731 0.71047 0.0
C1121 C 0.06505 0.4547 0.72146 0.0
C1122 C 0.18599 0.50167 0.6976 0.0
C1123 C 0.20522 0.48342 0.68017 0.0
C1124 C 0.15764 0.4913 0.7065 0.0
C1125 C 0.14804 0.46231 0.69851 0.0
C1126 C 0.16764 0.44395 0.68161 0.0
C1127 C 0.19588 0.45429 0.67272 0.0
H1128 H 0.73354 0.92953 0.93014 0.0
H1129 H 0.822 0.96812 0.93606 0.0
H1130 H 0.75253 0.88199 0.94779 0.0
H1131 H 0.8411 0.92083 0.95681 0.0
H1132 H 0.87392 0.82465 0.95825 0.0
H1133 H 0.85427 0.87276 0.94193 0.0
H1134 H 0.76986 0.85202 0.98527 0.0
H1135 H 0.78943 0.80265 0.99916 0.0
C1136 C 0.75708 0.9281 0.93617 0.0
C1137 C 0.77637 0.95265 0.93143 0.0
C1138 C 0.768 0.90069 0.94663 0.0
C1139 C 0.79853 0.89707 0.95361 0.0
C1140 C 0.81756 0.92237 0.95097 0.0
C1141 C 0.80658 0.94984 0.93976 0.0
C1142 C 0.85054 0.82945 0.96223 0.0
C1143 C 0.83255 0.80899 0.978 0.0
C1144 C 0.83955 0.85777 0.95411 0.0
C1145 C 0.81032 0.86669 0.96216 0.0
C1146 C 0.79224 0.84597 0.97794 0.0
C1147 C 0.80327 0.8175 0.98578 0.0
H1148 H 0.47187 0.573 0.19445 0.0
H1149 H 0.42611 0.58695 0.27879 0.0
H1150 H 0.42534 0.55256 0.17338 0.0
H1151 H 0.38049 0.56739 0.25792 0.0
H1152 H 0.29424 0.56178 0.20168 0.0
H1153 H 0.34127 0.58084 0.22291 0.0
H1154 H 0.39053 0.51069 0.17715 0.0
H1155 H 0.34427 0.49207 0.15612 0.0
C1156 C 0.45229 0.5715 0.20856 0.0
C1157 C 0.45321 0.58207 0.23819 0.0
C1158 C 0.42546 0.5599 0.19653 0.0
C1159 C 0.39886 0.55893 0.21383 0.0
C1160 C 0.40015 0.56848 0.24366 0.0
C1161 C 0.42678 0.57953 0.25567 0.0
C1162 C 0.31501 0.55042 0.19636 0.0
C1163 C 0.31523 0.52577 0.17676 0.0
C1164 C 0.34208 0.56128 0.20847 0.0
C1165 C 0.3699 0.54759 0.20129 0.0
C1166 C 0.36982 0.52234 0.18255 0.0
C1167 C 0.343 0.51155 0.17066 0.0
H1168 H 0.48594 0.19043 0.32907 0.0
H1169 H 0.5766 0.17372 0.29918 0.0
H1170 H 0.5047 0.20707 0.37726 0.0
H1171 H 0.59573 0.19192 0.34686 0.0
H1172 H 0.62338 0.19991 0.4436 0.0
H1173 H 0.60266 0.18124 0.39667 0.0
H1174 H 0.52779 0.24284 0.40605 0.0
H1175 H 0.54821 0.26008 0.45389 0.0
C1176 C 0.51001 0.19067 0.33256 0.0
C1177 C 0.52971 0.18062 0.30994 0.0
C1178 C 0.52088 0.2005 0.36038 0.0
C1179 C 0.5519 0.20084 0.36659 0.0
C1180 C 0.57166 0.19147 0.34359 0.0
C1181 C 0.56071 0.18138 0.31581 0.0
C1182 C 0.60195 0.20862 0.43603 0.0
C1183 C 0.5869 0.23072 0.45285 0.0
C1184 C 0.59028 0.19842 0.40868 0.0
C1185 C 0.56348 0.21057 0.39688 0.0
C1186 C 0.54813 0.23234 0.41428 0.0
C1187 C 0.55967 0.2422 0.44193 0.0
H1188 H 0.0485 0.29312 0.54571 0.0
H1189 H 0.13293 0.27547 0.59039 0.0
H1190 H 0.02752 0.31068 0.59379 0.0
H1191 H 0.11228 0.29099 0.63705 0.0
H1192 H 0.0788 0.34292 0.71553 0.0
H1193 H 0.09806 0.32969 0.66649 0.0
H1194 H 0.01098 0.2947 0.64168 0.0
H1195 H 0.99134 0.31025 0.69019 0.0
C1196 C 0.06261 0.29326 0.56549 0.0
C1197 C 0.09236 0.28277 0.56396 0.0
C1198 C 0.05058 0.30293 0.59315 0.0
C1199 C 0.06819 0.30239 0.61961 0.0
C1200 C 0.09798 0.2925 0.61749 0.0
C1201 C 0.10979 0.28307 0.59035 0.0
C1202 C 0.06387 0.33223 0.69978 0.0
C1203 C 0.03355 0.32809 0.70677 0.0
C1204 C 0.07487 0.32445 0.67145 0.0
C1205 C 0.05604 0.31125 0.64963 0.0
C1206 C 0.02603 0.30551 0.65737 0.0
C1207 C 0.01493 0.31386 0.68551 0.0
H1208 H 0.0238 0.80909 0.82229 0.0
H1209 H 0.94399 0.86246 0.80917 0.0
H1210 H 1.00409 0.79103 0.87035 0.0
H1211 H 0.92472 0.84582 0.85748 0.0
H1212 H 0.8846 0.78329 0.92607 0.0
H1213 H 0.90542 0.8023 0.8804 0.0
H1214 H 0.99286 0.80759 0.92202 0.0
H1215 H 0.97124 0.7884 0.96932 0.0
C1216 C 1.00167 0.81631 0.82946 0.0
C1217 C 0.98482 0.8362 0.81163 0.0
C1218 C 0.99071 0.80658 0.85723 0.0
C1219 C 0.96292 0.81708 0.86798 0.0
C1220 C 0.94598 0.83677 0.84977 0.0
C1221 C 0.95674 0.84606 0.82184 0.0
C1222 C 0.90823 0.78903 0.92603 0.0
C1223 C 0.92614 0.78478 0.95173 0.0
C1224 C 0.92018 0.80007 0.89957 0.0
C1225 C 0.95078 0.80671 0.89738 0.0
C1226 C 0.96908 0.80268 0.923 0.0
C1227 C 0.95675 0.79207 0.95016 0.0
H1228 H 0.51657 0.70808 0.19822 0.0
H1229 H 0.43576 0.65571 0.20801 0.0
H1230 H 0.50075 0.72399 0.14884 0.0
H1231 H 0.41864 0.67321 0.15877 0.0
H1232 H 0.40873 0.68632 0.05744 0.0
H1233 H 0.42552 0.66867 0.10666 0.0
H1234 H 0.46979 0.75389 0.12133 0.0
H1235 H 0.45474 0.77037 0.07194 0.0
C1236 C 0.49493 0.70058 0.19008 0.0
C1237 C 0.47739 0.68065 0.20715 0.0
C1238 C 0.48571 0.70982 0.16159 0.0
C1239 C 0.45828 0.69999 0.14936 0.0
C1240 C 0.44014 0.68092 0.16701 0.0
C1241 C 0.44961 0.67133 0.19556 0.0
C1242 C 0.42265 0.70091 0.07099 0.0
C1243 C 0.43029 0.7298 0.06072 0.0
C1244 C 0.43187 0.69103 0.09951 0.0
C1245 C 0.44891 0.70983 0.11848 0.0
C1246 C 0.45719 0.73836 0.10757 0.0
C1247 C 0.44839 0.74798 0.07907 0.0
H1248 H 0.12829 0.38863 0.32224 0.0
H1249 H 0.21587 0.34767 0.32733 0.0
H1250 H 0.14653 0.42317 0.28356 0.0
H1251 H 0.23404 0.38112 0.28818 0.0
H1252 H 0.26332 0.45165 0.22087 0.0
H1253 H 0.24751 0.42788 0.26769 0.0
H1254 H 0.15789 0.41783 0.23196 0.0
H1255 H 0.17379 0.44193 0.18553 0.0
C1256 C 0.1518 0.3879 0.316 0.0
C1257 C 0.17078 0.36577 0.32822 0.0
C1258 C 0.16215 0.40722 0.29329 0.0
C1259 C 0.19168 0.40464 0.282 0.0
C1260 C 0.21126 0.38413 0.29615 0.0
C1261 C 0.20093 0.365 0.31889 0.0
C1262 C 0.24025 0.4443 0.22309 0.0
C1263 C 0.21974 0.44896 0.19957 0.0
C1264 C 0.23111 0.43067 0.24999 0.0
C1265 C 0.20123 0.42105 0.25406 0.0
C1266 C 0.18086 0.42555 0.23025 0.0
C1267 C 0.19001 0.4392 0.20342 0.0
H1268 H 0.92229 0.95949 0.57878 0.0
H1269 H 0.87445 0.8758 0.57033 0.0
H1270 H 0.88923 0.98232 0.54087 0.0
H1271 H 0.84135 0.8984 0.53292 0.0
H1272 H 0.83081 0.9291 0.43516 0.0
H1273 H 0.85495 0.91177 0.48088 0.0
H1274 H 0.83699 0.99757 0.52268 0.0
H1275 H 0.8113 0.01446 0.47684 0.0
C1276 C 0.90392 0.94639 0.56974 0.0
C1277 C 0.9009 0.91586 0.57747 0.0
C1278 C 0.88509 0.95938 0.5479 0.0
C1279 C 0.86311 0.94195 0.53331 0.0
C1280 C 0.85847 0.91226 0.54319 0.0
C1281 C 0.87717 0.8994 0.5649 0.0
C1282 C 0.83137 0.94406 0.45428 0.0
C1283 C 0.81828 0.97275 0.45264 0.0
C1284 C 0.84532 0.93418 0.48054 0.0
C1285 C 0.84746 0.95306 0.50577 0.0
C1286 C 0.83552 0.98236 0.50378 0.0
C1287 C 0.82092 0.99206 0.47752 0.0
H1288 H 0.29085 0.61229 0.68499 0.0
H1289 H 0.30261 0.52812 0.73187 0.0
H1290 H 0.30292 0.63941 0.73185 0.0
H1291 H 0.31713 0.55422 0.77628 0.0
H1292 H 0.31482 0.59732 0.86181 0.0
H1293 H 0.29315 0.58226 0.81427 0.0
H1294 H 0.34544 0.64998 0.76873 0.0
H1295 H 0.3667 0.66573 0.81727 0.0
C1296 C 0.29644 0.59953 0.70491 0.0
C1297 C 0.29647 0.5678 0.70413 0.0
C1298 C 0.30349 0.61505 0.73172 0.0
C1299 C 0.31075 0.59909 0.75815 0.0
C1300 C 0.31097 0.56754 0.75689 0.0
C1301 C 0.30332 0.55234 0.73078 0.0
C1302 C 0.321 0.60969 0.84181 0.0
C1303 C 0.34275 0.63242 0.84329 0.0
C1304 C 0.30883 0.60084 0.81439 0.0
C1305 C 0.31832 0.61411 0.78734 0.0
C1306 C 0.33785 0.63899 0.78901 0.0
C1307 C 0.34999 0.64809 0.81682 0.0
H1308 H 0.5841 0.06646 0.06495 0.0
H1309 H 0.65892 0.12494 0.08342 0.0
H1310 H 0.61247 0.04359 0.02333 0.0
H1311 H 0.68693 0.1026 0.04191 0.0
H1312 H 0.69759 0.09347 0.93798 0.0
H1313 H 0.67352 0.10805 0.98496 0.0
H1314 H 0.66297 0.0146 1.0086 0.0
H1315 H 0.6894 0.99993 0.96277 0.0
C1316 C 0.60697 0.0736 0.06083 0.0
C1317 C 0.61935 0.09747 0.07736 0.0
C1318 C 0.62311 0.06074 0.03689 0.0
C1319 C 0.65165 0.07182 0.02901 0.0
C1320 C 0.66479 0.094 0.04711 0.0
C1321 C 0.64889 0.10655 0.07105 0.0
C1322 C 0.69124 0.07602 0.95362 0.0
C1323 C 0.69684 0.04561 0.94711 0.0
C1324 C 0.67702 0.08436 0.98038 0.0
C1325 C 0.66677 0.06245 1.0007 0.0
C1326 C 0.67086 0.03198 0.99352 0.0
C1327 C 0.68597 0.02366 0.96719 0.0
H1328 H 0.7008 0.18191 0.69311 0.0
H1329 H 0.63293 0.11369 0.68324 0.0
H1330 H 0.72567 0.15127 0.73191 0.0
H1331 H 0.65749 0.08328 0.72179 0.0
H1332 H 0.67552 0.07479 0.8243 0.0
H1333 H 0.65955 0.09954 0.77835 0.0
H1334 H 0.75057 0.09691 0.74532 0.0
H1335 H 0.76616 0.06946 0.7906 0.0
C1336 C 0.69192 0.15987 0.69837 0.0
C1337 C 0.66494 0.15011 0.68522 0.0
C1338 C 0.70603 0.14242 0.72066 0.0
C1339 C 0.69317 0.11515 0.73021 0.0
C1340 C 0.66765 0.1044 0.71519 0.0
C1341 C 0.65373 0.12166 0.69296 0.0
C1342 C 0.69196 0.07845 0.80689 0.0
C1343 C 0.72172 0.06871 0.81059 0.0
C1344 C 0.6829 0.09303 0.78067 0.0
C1345 C 0.70369 0.09965 0.75792 0.0
C1346 C 0.73397 0.09171 0.76228 0.0
C1347 C 0.74285 0.07609 0.78824 0.0
H1348 H 0.19297 0.51707 0.04371 0.0
H1349 H 0.18878 0.42576 0.07578 0.0
H1350 H 0.16608 0.50253 0.99873 0.0
H1351 H 0.16584 0.40999 0.02909 0.0
H1352 H 0.11197 0.38728 0.94722 0.0
H1353 H 0.12711 0.40587 0.99655 0.0
H1354 H 0.17137 0.48118 0.9538 0.0
H1355 H 0.15467 0.46328 0.90543 0.0
C1356 C 0.18676 0.49369 0.04093 0.0
C1357 C 0.19422 0.47232 0.0629 0.0
C1358 C 0.17163 0.48512 0.01476 0.0
C1359 C 0.16417 0.45474 0.00931 0.0
C1360 C 0.17078 0.43362 0.03199 0.0
C1361 C 0.18486 0.44249 0.05864 0.0
C1362 C 0.12412 0.4083 0.94872 0.0
C1363 C 0.13214 0.42391 0.92256 0.0
C1364 C 0.13337 0.41879 0.97699 0.0
C1365 C 0.15105 0.44504 0.97971 0.0
C1366 C 0.15758 0.46122 0.95331 0.0
C1367 C 0.14816 0.45087 0.92529 0.0
H1368 H 0.83286 0.92596 0.33756 0.0
H1369 H 0.76298 0.96697 0.28452 0.0
H1370 H 0.84896 0.89639 0.29408 0.0
H1371 H 0.77956 0.93795 0.24051 0.0
H1372 H 0.85104 0.90575 0.16579 0.0
H1373 H 0.82623 0.93391 0.20631 0.0
H1374 H 0.82823 0.85439 0.26181 0.0
H1375 H 0.85294 0.82648 0.22133 0.0
C1376 C 0.82107 0.92869 0.31649 0.0
C1377 C 0.79666 0.94856 0.31434 0.0
C1378 C 0.8301 0.91164 0.29164 0.0
C1379 C 0.81536 0.91456 0.26385 0.0
C1380 C 0.7913 0.93506 0.26158 0.0
C1381 C 0.78176 0.95156 0.28672 0.0
C1382 C 0.84522 0.89414 0.18633 0.0
C1383 C 0.85368 0.86392 0.19043 0.0
C1384 C 0.83115 0.91025 0.20957 0.0
C1385 C 0.82571 0.89652 0.23749 0.0
C1386 C 0.83257 0.86576 0.24078 0.0
C1387 C 0.8464 0.84967 0.21753 0.0
H1388 H 0.33586 0.58555 0.58227 0.0
H1389 H 0.30616 0.50341 0.54065 0.0
H1390 H 0.35928 0.60116 0.53526 0.0
H1391 H 0.33061 0.5179 0.4941 0.0
H1392 H 0.34296 0.56842 0.40621 0.0
H1393 H 0.32633 0.54821 0.45363 0.0
H1394 H 0.39667 0.59731 0.49901 0.0
H1395 H 0.41194 0.61927 0.45092 0.0
C1396 C 0.33454 0.57076 0.56302 0.0
C1397 C 0.31891 0.54342 0.56501 0.0
C1398 C 0.34832 0.57949 0.53606 0.0
C1399 C 0.347 0.56099 0.51036 0.0
C1400 C 0.33187 0.53323 0.51289 0.0
C1401 C 0.31805 0.52463 0.53977 0.0
C1402 C 0.35525 0.57453 0.42626 0.0
C1403 C 0.37854 0.59578 0.42474 0.0
C1404 C 0.34578 0.56274 0.45371 0.0
C1405 C 0.35972 0.57123 0.48074 0.0
C1406 C 0.38471 0.59073 0.47895 0.0
C1407 C 0.39396 0.60292 0.45128 0.0
H1408 H 0.18312 0.21434 0.4021 0.0
H1409 H 0.23135 0.23527 0.48294 0.0
H1410 H 0.23022 0.19941 0.37775 0.0
H1411 H 0.27768 0.21715 0.46056 0.0
H1412 H 0.36309 0.20363 0.41294 0.0
H1413 H 0.31601 0.22612 0.42894 0.0
H1414 H 0.26759 0.16388 0.3723 0.0
H1415 H 0.3154 0.14266 0.35517 0.0
C1416 C 0.20386 0.21527 0.41475 0.0
C1417 C 0.20362 0.22531 0.44457 0.0
C1418 C 0.23091 0.20643 0.40095 0.0
C1419 C 0.25833 0.20687 0.41689 0.0
C1420 C 0.25762 0.21706 0.44689 0.0
C1421 C 0.23083 0.22684 0.46018 0.0
C1422 C 0.34237 0.19546 0.40321 0.0
C1423 C 0.34298 0.17147 0.38273 0.0
C1424 C 0.31513 0.20791 0.41287 0.0
C1425 C 0.28742 0.19636 0.40289 0.0
C1426 C 0.28817 0.17359 0.38075 0.0
C1427 C 0.31564 0.16138 0.37072 0.0
H1428 H 0.05494 0.11098 0.65353 0.0
H1429 H 0.12881 0.06761 0.60838 0.0
H1430 H 0.03797 0.06297 0.67247 0.0
H1431 H 0.11105 0.01856 0.62601 0.0
H1432 H 0.09237 0.94018 0.69029 0.0
H1433 H 0.10802 0.98659 0.66608 0.0
H1434 H 0.01591 0.01792 0.66775 0.0
H1435 H 1.0015 0.97325 0.69537 0.0
C1436 C 0.06715 0.09088 0.64706 0.0
C1437 C 0.09324 0.09318 0.62954 0.0
C1438 C 0.05728 0.06304 0.65777 0.0
C1439 C 0.07301 0.03627 0.65114 0.0
C1440 C 0.09846 0.03846 0.63228 0.0
C1441 C 0.10846 0.06657 0.62164 0.0
C1442 C 0.07575 0.95748 0.68637 0.0
C1443 C 0.04606 0.95356 0.69624 0.0
C1444 C 0.08453 0.98396 0.67164 0.0
C1445 C 0.06348 1.00683 0.66507 0.0
C1446 C 0.03327 1.00175 0.6732 0.0
C1447 C 0.02479 0.97574 0.6888 0.0
H1448 H 0.19908 0.88187 0.86311 0.0
H1449 H 0.15918 0.80395 0.90428 0.0
H1450 H 0.24889 0.86468 0.87911 0.0
H1451 H 0.20791 0.78751 0.92173 0.0
H1452 H 0.29862 0.75278 0.94133 0.0
H1453 H 0.25353 0.7674 0.91489 0.0
H1454 H 0.28099 0.86062 0.91915 0.0
H1455 H 0.32806 0.84514 0.94249 0.0
C1456 C 0.20106 0.86081 0.87518 0.0
C1457 C 0.17524 0.8443 0.88258 0.0
C1458 C 0.22958 0.85113 0.88486 0.0
C1459 C 0.23291 0.82472 0.90221 0.0
C1460 C 0.20693 0.80767 0.9082 0.0
C1461 C 0.17868 0.81723 0.89839 0.0
C1462 C 0.29528 0.77641 0.93628 0.0
C1463 C 0.31664 0.79792 0.94499 0.0
C1464 C 0.26898 0.78495 0.9214 0.0
C1465 C 0.26271 0.81546 0.9153 0.0
C1466 C 0.28467 0.8369 0.92318 0.0
C1467 C 0.3115 0.82815 0.93732 0.0
H1468 H 0.4459 0.09376 0.16124 0.0
H1469 H 0.49827 0.03764 0.22027 0.0
H1470 H 0.43134 0.04934 0.13232 0.0
H1471 H 0.48572 0.99361 0.1906 0.0
H1472 H 0.42397 0.91789 0.15939 0.0
H1473 H 0.44679 0.96134 0.18313 0.0
H1474 H 0.44158 0.01001 0.09925 0.0
H1475 H 0.41739 0.96634 0.07608 0.0
C1476 C 0.4551 0.07202 0.16735 0.0
C1477 C 0.47334 0.06914 0.1928 0.0
C1478 C 0.44683 0.04644 0.15078 0.0
C1479 C 0.45711 0.01747 0.15902 0.0
C1480 C 0.4766 0.01515 0.18378 0.0
C1481 C 0.48419 0.04051 0.20065 0.0
C1482 C 0.42848 0.93765 0.14591 0.0
C1483 C 0.41927 0.93868 0.1159 0.0
C1484 C 0.44165 0.96274 0.15947 0.0
C1485 C 0.44606 0.98967 0.14332 0.0
C1486 C 0.43816 0.99003 0.11268 0.0
C1487 C 0.42479 0.96484 0.09917 0.0
H1488 H 0.80325 0.32885 0.69214 0.0
H1489 H 0.84554 0.36119 0.61155 0.0
H1490 H 0.76467 0.30368 0.66202 0.0
H1491 H 0.80735 0.33591 0.58131 0.0
H1492 H 0.70865 0.33995 0.55021 0.0
H1493 H 0.75428 0.35127 0.57659 0.0
H1494 H 0.74846 0.26604 0.62248 0.0
H1495 H 0.70369 0.25347 0.59286 0.0
C1496 C 0.80491 0.32952 0.66792 0.0
C1497 C 0.82738 0.3468 0.6541 0.0
C1498 C 0.7828 0.31517 0.65065 0.0
C1499 C 0.78257 0.3182 0.61924 0.0
C1500 C 0.80656 0.33351 0.60546 0.0
C1501 C 0.82864 0.34773 0.62271 0.0
C1502 C 0.7176 0.32297 0.56448 0.0
C1503 C 0.703 0.29531 0.56772 0.0
C1504 C 0.74383 0.32959 0.58021 0.0
C1505 C 0.75564 0.3093 0.60128 0.0
C1506 C 0.74035 0.28201 0.606 0.0
C1507 C 0.71462 0.27487 0.58904 0.0
H1508 H 0.98195 0.47897 0.77745 0.0
H1509 H 0.96112 0.43223 0.85928 0.0
H1510 H 0.96647 0.52619 0.80006 0.0
H1511 H 0.94974 0.47978 0.88378 0.0
H1512 H 0.89939 0.56646 0.91081 0.0
H1513 H 0.91799 0.51822 0.89232 0.0
H1514 H 0.97557 0.56517 0.82973 0.0
H1515 H 0.9553 0.61272 0.84706 0.0
C1516 C 0.97427 0.47892 0.80049 0.0
C1517 C 0.97209 0.45179 0.81631 0.0
C1518 C 0.96601 0.50624 0.81391 0.0
C1519 C 0.95689 0.50757 0.84427 0.0
C1520 C 0.95586 0.4802 0.86033 0.0
C1521 C 0.96291 0.45272 0.84639 0.0
C1522 C 0.91641 0.5663 0.89346 0.0
C1523 C 0.92561 0.59339 0.88017 0.0
C1524 C 0.92721 0.53851 0.88267 0.0
C1525 C 0.94787 0.53712 0.85856 0.0
C1526 C 0.95878 0.56463 0.84724 0.0
C1527 C 0.94758 0.59219 0.8576 0.0
H1528 H 0.83354 0.72149 0.10861 0.0
H1529 H 0.78114 0.72763 0.02783 0.0
H1530 H 0.78842 0.70762 0.13688 0.0
H1531 H 0.73619 0.71282 0.05533 0.0
H1532 H 0.67493 0.64651 0.10618 0.0
H1533 H 0.71539 0.66986 0.07812 0.0
H1534 H 0.73998 0.7214 0.15648 0.0
H1535 H 0.69952 0.69693 0.18487 0.0
C1536 C 0.81234 0.71943 0.09688 0.0
C1537 C 0.81097 0.72405 0.06581 0.0
C1538 C 0.78638 0.71184 0.11307 0.0
C1539 C 0.7585 0.70857 0.09843 0.0
C1540 C 0.75724 0.71433 0.06738 0.0
C1541 C 0.78307 0.72241 0.05142 0.0
C1542 C 0.68845 0.66348 0.11715 0.0
C1543 C 0.68397 0.66998 0.14764 0.0
C1544 C 0.71175 0.67694 0.10106 0.0
C1545 C 0.73136 0.69742 0.11497 0.0
C1546 C 0.72571 0.70536 0.14511 0.0
C1547 C 0.70223 0.69177 0.16129 0.0
H1548 H 0.55974 0.40321 0.34578 0.0
H1549 H 0.61328 0.44913 0.41182 0.0
H1550 H 0.53859 0.45086 0.32933 0.0
H1551 H 0.59276 0.49751 0.39481 0.0
H1552 H 0.53885 0.58066 0.3649 0.0
H1553 H 0.55297 0.53289 0.38804 0.0
H1554 H 0.55422 0.49113 0.3005 0.0
H1555 H 0.53832 0.53837 0.27804 0.0
C1556 C 0.56644 0.42359 0.35727 0.0
C1557 C 0.58815 0.42239 0.3801 0.0
C1558 C 0.55471 0.45108 0.34748 0.0
C1559 C 0.56448 0.47841 0.36003 0.0
C1560 C 0.58463 0.47707 0.38447 0.0
C1561 C 0.59633 0.44931 0.39442 0.0
C1562 C 0.54218 0.5613 0.35063 0.0
C1563 C 0.5387 0.5636 0.31939 0.0
C1564 C 0.55044 0.53381 0.36393 0.0
C1565 C 0.55502 0.50785 0.34633 0.0
C1566 C 0.55068 0.51027 0.31509 0.0
C1567 C 0.54223 0.5376 0.30197 0.0
H1568 H 0.35475 0.32155 0.1471 0.0
H1569 H 0.42051 0.36726 0.20138 0.0
H1570 H 0.37209 0.27309 0.16696 0.0
H1571 H 0.43711 0.31952 0.22191 0.0
H1572 H 0.48862 0.23261 0.22205 0.0
H1573 H 0.46604 0.27953 0.20617 0.0
H1574 H 0.37853 0.23758 0.20658 0.0
H1575 H 0.40192 0.18977 0.22071 0.0
C1576 C 0.37246 0.3213 0.16374 0.0
C1577 C 0.38669 0.34822 0.1722 0.0
C1578 C 0.38244 0.2935 0.17518 0.0
C1579 C 0.40666 0.29211 0.19553 0.0
C1580 C 0.41922 0.31936 0.20548 0.0
C1581 C 0.40953 0.34689 0.19387 0.0
C1582 C 0.46465 0.23319 0.21806 0.0
C1583 C 0.44733 0.20711 0.22146 0.0
C1584 C 0.45146 0.2604 0.2096 0.0
C1585 C 0.42023 0.2627 0.20505 0.0
C1586 C 0.40266 0.23671 0.2094 0.0
C1587 C 0.41605 0.20925 0.21771 0.0
H1588 H 0.93055 0.30537 0.74921 0.0
H1589 H 0.95155 0.31812 0.84266 0.0
H1590 H 0.90238 0.2598 0.76203 0.0
H1591 H 0.92682 0.27111 0.85488 0.0
H1592 H 0.90391 0.17438 0.86566 0.0
H1593 H 0.93392 0.21382 0.84188 0.0
H1594 H 0.85483 0.24694 0.79662 0.0
H1595 H 0.82479 0.20737 0.82063 0.0
C1596 C 0.92991 0.29815 0.7724 0.0
C1597 C 0.94492 0.3147 0.79482 0.0
C1598 C 0.91385 0.27199 0.77964 0.0
C1599 C 0.91326 0.26136 0.80929 0.0
C1600 C 0.92769 0.2782 0.83166 0.0
C1601 C 0.94246 0.30495 0.82461 0.0
C1602 C 0.89323 0.18942 0.84976 0.0
C1603 C 0.86216 0.18785 0.84483 0.0
C1604 C 0.91029 0.21211 0.83637 0.0
C1605 C 0.89659 0.23369 0.81778 0.0
C1606 C 0.86597 0.23054 0.81077 0.0
C1607 C 0.84882 0.20787 0.82437 0.0
H1608 H 0.07928 0.59751 0.05576 0.0
H1609 H 0.06911 0.64047 0.14171 0.0
H1610 H 0.04066 0.63086 0.03474 0.0
H1611 H 0.03089 0.67397 0.12095 0.0
H1612 H 0.93343 0.68815 0.08991 0.0
H1613 H 0.9794 0.66356 0.10703 0.0
H1614 H 0.02088 0.68084 0.02123 0.0
H1615 H 0.97467 0.70565 1.00423 0.0
C1616 C 0.06978 0.61503 0.06978 0.0
C1617 C 0.07737 0.61656 0.10034 0.0
C1618 C 0.04741 0.634 0.05784 0.0
C1619 C 0.03199 0.65463 0.07634 0.0
C1620 C 0.04168 0.65788 0.10619 0.0
C1621 C 0.06401 0.63907 0.11801 0.0
C1622 C 0.95248 0.68698 0.07484 0.0
C1623 C 0.95056 0.69925 0.04591 0.0
C1624 C 0.97895 0.673 0.08465 0.0
C1625 C 1.00419 0.67053 0.0657 0.0
C1626 C 1.002 0.68229 0.03647 0.0
C1627 C 0.9755 0.69646 0.02672 0.0
H1628 H 0.60555 0.86265 0.30582 0.0
H1629 H 0.66259 0.81671 0.36922 0.0
H1630 H 0.58837 0.81475 0.28642 0.0
H1631 H 0.64447 0.76799 0.35036 0.0
H1632 H 0.60869 0.6829 0.29879 0.0
H1633 H 0.637 0.72896 0.31113 0.0
H1634 H 0.55458 0.78034 0.3066 0.0
H1635 H 0.52756 0.73607 0.29252 0.0
C1636 C 0.61469 0.84217 0.31541 0.0
C1637 C 0.63495 0.84353 0.33945 0.0
C1638 C 0.60465 0.81458 0.30444 0.0
C1639 C 0.61415 0.7873 0.31747 0.0
C1640 C 0.63642 0.78848 0.33992 0.0
C1641 C 0.64681 0.81638 0.35076 0.0
C1642 C 0.59689 0.7042 0.30008 0.0
C1643 C 0.56571 0.70554 0.29493 0.0
C1644 C 0.61303 0.73055 0.30738 0.0
C1645 C 0.59825 0.75865 0.30955 0.0
C1646 C 0.56714 0.75955 0.3044 0.0
C1647 C 0.55137 0.73372 0.29678 0.0
H1648 H 0.58325 0.35864 0.55812 0.0
H1649 H 0.53779 0.279 0.52789 0.0
H1650 H 0.53565 0.3821 0.56984 0.0
H1651 H 0.49027 0.29986 0.54376 0.0
H1652 H 0.40264 0.34177 0.56472 0.0
H1653 H 0.44952 0.32555 0.54308 0.0
H1654 H 0.49588 0.39377 0.59485 0.0
H1655 H 0.44805 0.41093 0.61446 0.0
C1656 C 0.56291 0.34598 0.55431 0.0
C1657 C 0.56431 0.31697 0.54207 0.0
C1658 C 0.53517 0.35929 0.56159 0.0
C1659 C 0.50783 0.34348 0.55815 0.0
C1660 C 0.50979 0.31396 0.54619 0.0
C1661 C 0.53741 0.3014 0.53748 0.0
C1662 C 0.4229 0.35381 0.57069 0.0
C1663 C 0.42156 0.3776 0.59139 0.0
C1664 C 0.45034 0.34399 0.55879 0.0
C1665 C 0.47784 0.35704 0.56774 0.0
C1666 C 0.476 0.3824 0.58701 0.0
C1667 C 0.44828 0.39263 0.59842 0.0
H1668 H 0.10303 0.66677 0.66425 0.0
H1669 H 0.1875 0.71276 0.67375 0.0
H1670 H 0.07707 0.709 0.68827 0.0
H1671 H 0.16161 0.75529 0.69773 0.0
H1672 H 0.09778 0.83905 0.69092 0.0
H1673 H 0.12601 0.79389 0.67635 0.0
H1674 H 0.07052 0.74022 0.73489 0.0
H1675 H 0.0429 0.78574 0.74997 0.0
C1676 C 0.11613 0.68553 0.67246 0.0
C1677 C 0.14728 0.68637 0.66745 0.0
C1678 C 0.10128 0.70981 0.6861 0.0
C1679 C 0.11717 0.73576 0.69457 0.0
C1680 C 0.14864 0.73583 0.69109 0.0
C1681 C 0.16355 0.71134 0.67776 0.0
C1682 C 0.09176 0.81756 0.70065 0.0
C1683 C 0.06826 0.81574 0.72149 0.0
C1684 C 0.10804 0.79175 0.69257 0.0
C1685 C 0.10073 0.7634 0.70464 0.0
C1686 C 0.07682 0.76164 0.72524 0.0
C1687 C 0.06105 0.78763 0.73389 0.0
H1688 H 0.43373 0.85935 0.96909 0.0
H1689 H 0.48366 0.77592 0.96942 0.0
H1690 H 0.47935 0.88595 0.9523 0.0
H1691 H 0.52765 0.80167 0.95121 0.0
H1692 H 0.58856 0.84506 0.88518 0.0
H1693 H 0.53951 0.82728 0.90164 0.0
H1694 H 0.53651 0.89688 0.96903 0.0
H1695 H 0.58603 0.91501 0.95211 0.0
C1696 C 0.45419 0.84663 0.96541 0.0
C1697 C 0.45453 0.81519 0.96947 0.0
C1698 C 0.48027 0.86185 0.95582 0.0
C1699 C 0.5069 0.84577 0.94963 0.0
C1700 C 0.50736 0.81466 0.95495 0.0
C1701 C 0.48184 0.79978 0.96514 0.0
C1702 C 0.57727 0.85687 0.90321 0.0
C1703 C 0.59129 0.88117 0.91758 0.0
C1704 C 0.54919 0.84667 0.9127 0.0
C1705 C 0.5343 0.86036 0.93695 0.0
C1706 C 0.54738 0.88591 0.95023 0.0
C1707 C 0.57568 0.89627 0.94058 0.0
H1708 H 0.94422 0.1451 0.3736 0.0
H1709 H 0.94314 0.08981 0.45292 0.0
H1710 H 0.98241 0.17722 0.39612 0.0
H1711 H 0.98189 0.12183 0.47562 0.0
H1712 H 0.0451 0.19841 0.51045 0.0
H1713 H 0.99943 0.17235 0.49418 0.0
H1714 H 0.03572 0.16572 0.40465 0.0
H1715 H 0.08128 0.19119 0.42102 0.0
C1716 C 0.95152 0.14043 0.39629 0.0
C1717 C 0.94073 0.11498 0.41147 0.0
C1718 C 0.9737 0.15857 0.40908 0.0
C1719 C 0.98588 0.15163 0.43734 0.0
C1720 C 0.97313 0.12775 0.45374 0.0
C1721 C 0.9508 0.10949 0.44085 0.0
C1722 C 0.04335 0.19113 0.48734 0.0
C1723 C 0.06665 0.19724 0.46688 0.0
C1724 C 0.01714 0.1763 0.47801 0.0
C1725 C 0.01359 0.16737 0.44796 0.0
C1726 C 0.03729 0.1729 0.42779 0.0
C1727 C 0.06354 0.18733 0.43718 0.0
loop_
_geom_bond_atom_site_label_1
_geom_bond_atom_site_label_2
_geom_bond_distance
_geom_bond_site_symmetry_2
_ccdc_geom_bond_type
Tb0 N29 2.617 . S
Tb0 N35 2.572 . S
Tb0 O44 2.465 . S
Tb0 O45 2.387 . S
Tb0 O47 2.428 . S
Tb0 O48 2.308 . S
Tb0 O52 2.349 . S
Tb0 O55 2.393 . S
Tb0 C64 2.802 . S
C1 N2 1.379 . S
C1 C4 1.416 . S
C1 C8 1.424 . S
N2 C1 1.379 . S
N2 C5 1.334 . S
N2 Tb11 2.617 . S
C3 C5 1.390 . S
C3 C6 1.339 1_455 S
C3 H23 0.930 1_455 S
C4 C1 1.416 . S
C4 C6 1.416 1_455 S
C4 C10 1.448 1_455 S
C5 N2 1.334 . S
C5 C3 1.390 . S
C5 H16 0.930 . S
C6 C3 1.339 1_655 S
C6 C4 1.416 1_655 S
C6 H27 0.930 . S
C7 C8 1.413 . S
C7 C9 1.427 . S
C7 C13 1.416 . S
C8 C1 1.424 . S
C8 C7 1.413 . S
C8 N12 1.361 . S
C9 C7 1.427 . S
C9 C10 1.328 1_455 S
C9 H24 0.947 . S
C10 C4 1.448 1_655 S
C10 C9 1.328 1_655 S
C10 H25 0.930 . S
Tb11 N2 2.617 . S
Tb11 N12 2.572 . S
Tb11 O46 2.349 . S
Tb11 O49 2.393 . S
Tb11 O50 2.465 . S
Tb11 O51 2.387 . S
Tb11 O53 2.428 . S
Tb11 O54 2.308 . S
Tb11 C75 2.802 . S
N12 C8 1.361 . S
N12 Tb11 2.572 . S
N12 C14 1.340 . S
C13 C7 1.416 . S
C13 C15 1.332 . S
C13 H21 0.931 . S
C14 N12 1.340 . S
C14 C15 1.407 . S
C14 H20 0.930 . S
C15 C13 1.332 . S
C15 C14 1.407 . S
C15 H17 0.929 . S
H16 C5 0.930 . S
H17 C15 0.929 . S
H18 C33 0.930 . S
H19 C40 0.929 . S
H20 C14 0.930 . S
H21 C13 0.931 . S
H22 C36 0.930 . S
H23 C3 0.930 1_655 S
H24 C9 0.947 . S
H25 C10 0.930 . S
H26 C31 0.930 . S
H27 C6 0.930 . S
H28 C39 0.931 . S
N29 Tb0 2.617 . S
N29 C30 1.379 . S
N29 C33 1.334 . S
C30 N29 1.379 . S
C30 C32 1.416 . S
C30 C38 1.424 . S
C31 H26 0.930 . S
C31 C33 1.390 . S
C31 C34 1.339 . S
C32 C30 1.416 . S
C32 C34 1.416 . S
C32 C65 1.448 . S
C33 H18 0.930 . S
C33 N29 1.334 . S
C33 C31 1.390 . S
C34 C31 1.339 . S
C34 C32 1.416 . S
C34 H41 0.930 . S
N35 Tb0 2.572 . S
N35 C36 1.340 . S
N35 C38 1.361 . S
C36 H22 0.930 . S
C36 N35 1.340 . S
C36 C40 1.407 . S
C37 C38 1.413 . S
C37 C39 1.416 . S
C37 C66 1.427 . S
C38 C30 1.424 . S
C38 N35 1.361 . S
C38 C37 1.413 . S
C39 H28 0.931 . S
C39 C37 1.416 . S
C39 C40 1.332 . S
C40 H19 0.929 . S
C40 C36 1.407 . S
C40 C39 1.332 . S
H41 C34 0.930 . S
H42 C65 0.930 . S
H43 C66 0.929 . S
O44 Tb0 2.465 . S
O44 C64 1.264 . S
O45 Tb0 2.387 . S
O45 C56 1.264 . S
O46 Tb11 2.349 . S
O46 C56 1.243 . S
O47 Tb0 2.428 . S
O47 C64 1.256 . S
O48 Tb0 2.308 . S
O48 C63 1.266 . S
O49 Tb11 2.393 . S
O49 C63 1.248 . S
O50 Tb11 2.465 . S
O50 C75 1.264 . S
O51 Tb11 2.387 . S
O51 C67 1.264 . S
O52 Tb0 2.349 . S
O52 C67 1.243 . S
O53 Tb11 2.428 . S
O53 C75 1.256 . S
O54 Tb11 2.308 . S
O54 C74 1.266 . S
O55 Tb0 2.393 . S
O55 C74 1.248 . S
C56 O45 1.264 . S
C56 O46 1.243 . S
C57 C60 1.399 . S
C57 C62 1.383 . S
C57 C64 1.496 . S
C58 C59 1.399 . S
C58 C62 1.389 . S
C59 C58 1.399 . S
C59 C61 1.380 . S
C59 H76 0.929 . S
C60 C57 1.399 . S
C60 C61 1.392 . S
C60 H77 0.929 . S
C61 C59 1.380 . S
C61 C60 1.392 . S
C61 H78 0.929 . S
C62 C57 1.383 . S
C62 C58 1.389 . S
C62 H79 0.931 . S
C63 O48 1.266 . S
C63 O49 1.248 . S
C64 Tb0 2.802 . S
C64 O44 1.264 . S
C64 O47 1.256 . S
C64 C57 1.496 . S
C65 C32 1.448 . S
C65 H42 0.930 . S
C65 C66 1.328 . S
C66 C37 1.427 . S
C66 H43 0.929 . S
C66 C65 1.328 . S
C67 O51 1.264 . S
C67 O52 1.243 . S
C68 C71 1.399 . S
C68 C72 1.383 . S
C68 C75 1.496 . S
C69 C70 1.399 . S
C69 C72 1.389 . S
C70 C69 1.399 . S
C70 C73 1.380 . S
C70 H80 0.929 . S
C71 C68 1.399 . S
C71 C73 1.392 . S
C71 H81 0.929 . S
C72 C68 1.383 . S
C72 C69 1.389 . S
C72 H82 0.931 . S
C73 C70 1.380 . S
C73 C71 1.392 . S
C73 H83 0.929 . S
C74 O54 1.266 . S
C74 O55 1.248 . S
C75 Tb11 2.802 . S
C75 O50 1.264 . S
C75 O53 1.256 . S
C75 C68 1.496 . S
H76 C59 0.929 . S
H77 C60 0.929 . S
H78 C61 0.929 . S
H79 C62 0.931 . S
H80 C70 0.929 . S
H81 C71 0.929 . S
H82 C72 0.931 . S
H83 C73 0.929 . S
Tb84 N113 2.617 . S
Tb84 N119 2.572 . S
Tb84 O128 2.465 . S
Tb84 O129 2.387 . S
Tb84 O131 2.428 . S
Tb84 O132 2.308 . S
Tb84 O136 2.349 . S
Tb84 O139 2.393 1_455 S
Tb84 C148 2.802 . S
C85 N86 1.379 . S
C85 C88 1.416 . S
C85 C92 1.424 . S
N86 C85 1.379 . S
N86 C89 1.334 . S
N86 Tb95 2.617 . S
C87 C89 1.390 . S
C87 C90 1.339 . S
C87 H107 0.930 1_655 S
C88 C85 1.416 . S
C88 C90 1.416 . S
C88 C94 1.448 . S
C89 N86 1.334 . S
C89 C87 1.390 . S
C89 H100 0.930 1_655 S
C90 C87 1.339 . S
C90 C88 1.416 . S
C90 H111 0.930 . S
C91 C92 1.413 . S
C91 C93 1.427 . S
C91 C97 1.416 . S
C92 C85 1.424 . S
C92 C91 1.413 . S
C92 N96 1.361 . S
C93 C91 1.427 . S
C93 C94 1.328 . S
C93 H108 0.929 . S
C94 C88 1.448 . S
C94 C93 1.328 . S
C94 H109 0.930 . S
Tb95 N86 2.617 . S
Tb95 N96 2.572 . S
Tb95 O130 2.349 1_655 S
Tb95 O133 2.393 1_655 S
Tb95 O134 2.465 . S
Tb95 O135 2.387 . S
Tb95 O137 2.428 . S
Tb95 O138 2.308 . S
Tb95 C159 2.802 . S
N96 C92 1.361 . S
N96 Tb95 2.572 . S
N96 C98 1.340 . S
C97 C91 1.416 . S
C97 C99 1.332 . S
C97 H105 0.931 . S
C98 N96 1.340 . S
C98 C99 1.407 . S
C98 H104 0.930 . S
C99 C97 1.332 . S
C99 C98 1.407 . S
C99 H101 0.929 . S
H100 C89 0.930 1_455 S
H101 C99 0.929 . S
H102 C117 0.930 . S
H103 C124 0.929 . S
H104 C98 0.930 . S
H105 C97 0.931 . S
H106 C120 0.930 . S
H107 C87 0.930 1_455 S
H108 C93 0.929 . S
H109 C94 0.930 . S
H110 C115 0.930 1_545 S
H111 C90 0.930 . S
H112 C123 0.931 . S
N113 Tb84 2.617 . S
N113 C114 1.379 . S
N113 C117 1.334 . S
C114 N113 1.379 . S
C114 C116 1.416 . S
C114 C122 1.424 . S
C115 H110 0.930 1_565 S
C115 C117 1.390 . S
C115 C118 1.339 1_565 S
C116 C114 1.416 . S
C116 C118 1.416 1_565 S
C116 C149 1.448 1_565 S
C117 H102 0.930 . S
C117 N113 1.334 . S
C117 C115 1.390 . S
C118 C115 1.339 1_545 S
C118 C116 1.416 1_545 S
C118 H125 0.930 . S
N119 Tb84 2.572 . S
N119 C120 1.340 . S
N119 C122 1.361 . S
C120 H106 0.930 . S
C120 N119 1.340 . S
C120 C124 1.407 . S
C121 C122 1.413 . S
C121 C123 1.416 . S
C121 C150 1.427 . S
C122 C114 1.424 . S
C122 N119 1.361 . S
C122 C121 1.413 . S
C123 H112 0.931 . S
C123 C121 1.416 . S
C123 C124 1.332 . S
C124 H103 0.929 . S
C124 C120 1.407 . S
C124 C123 1.332 . S
H125 C118 0.930 . S
H126 C149 0.930 . S
H127 C150 0.947 . S
O128 Tb84 2.465 . S
O128 C148 1.264 . S
O129 Tb84 2.387 . S
O129 C140 1.264 . S
O130 Tb95 2.349 1_455 S
O130 C140 1.243 . S
O131 Tb84 2.428 . S
O131 C148 1.256 . S
O132 Tb84 2.308 . S
O132 C147 1.266 . S
O133 Tb95 2.393 1_455 S
O133 C147 1.248 . S
O134 Tb95 2.465 . S
O134 C159 1.264 . S
O135 Tb95 2.387 . S
O135 C151 1.272 . S
O136 Tb84 2.349 . S
O136 C151 1.224 1_455 S
O137 Tb95 2.428 . S
O137 C159 1.256 . S
O138 Tb95 2.308 . S
O138 C158 1.266 . S
O139 Tb84 2.393 1_655 S
O139 C158 1.248 . S
C140 O129 1.264 . S
C140 O130 1.243 . S
C141 C144 1.399 . S
C141 C146 1.383 . S
C141 C148 1.496 . S
C142 C143 1.399 . S
C142 C146 1.389 . S
C143 C142 1.399 . S
C143 C145 1.380 . S
C143 H160 0.929 . S
C144 C141 1.399 . S
C144 C145 1.392 . S
C144 H161 0.929 . S
C145 C143 1.380 . S
C145 C144 1.392 . S
C145 H162 0.929 . S
C146 C141 1.383 . S
C146 C142 1.389 . S
C146 H163 0.931 . S
C147 O132 1.266 . S
C147 O133 1.248 . S
C148 Tb84 2.802 . S
C148 O128 1.264 . S
C148 O131 1.256 . S
C148 C141 1.496 . S
C149 C116 1.448 1_545 S
C149 H126 0.930 . S
C149 C150 1.328 1_545 S
C150 C121 1.427 . S
C150 H127 0.947 . S
C150 C149 1.328 1_565 S
C151 O135 1.272 . S
C151 O136 1.224 1_655 S
C152 C155 1.399 . S
C152 C156 1.383 . S
C152 C159 1.496 . S
C153 C154 1.399 . S
C153 C156 1.389 . S
C154 C153 1.399 . S
C154 C157 1.380 . S
C154 H164 0.929 . S
C155 C152 1.399 . S
C155 C157 1.392 . S
C155 H165 0.929 . S
C156 C152 1.383 . S
C156 C153 1.389 . S
C156 H166 0.931 . S
C157 C154 1.380 . S
C157 C155 1.392 . S
C157 H167 0.929 . S
C158 O138 1.266 . S
C158 O139 1.248 . S
C159 Tb95 2.802 . S
C159 O134 1.264 . S
C159 O137 1.256 . S
C159 C152 1.496 . S
H160 C143 0.929 . S
H161 C144 0.929 . S
H162 C145 0.929 . S
H163 C146 0.931 . S
H164 C154 0.929 . S
H165 C155 0.929 . S
H166 C156 0.931 . S
H167 C157 0.929 . S
Tb168 N197 2.617 . S
Tb168 N203 2.572 . S
Tb168 O212 2.465 . S
Tb168 O213 2.387 . S
Tb168 O215 2.428 . S
Tb168 O216 2.308 . S
Tb168 O220 2.349 . S
Tb168 O223 2.393 1_556 S
Tb168 C232 2.802 . S
C169 N170 1.379 . S
C169 C172 1.416 . S
C169 C176 1.424 . S
N170 C169 1.379 . S
N170 C173 1.334 . S
N170 Tb179 2.617 . S
C171 C173 1.390 . S
C171 C174 1.339 . S
C171 H191 0.930 1_554 S
C172 C169 1.416 . S
C172 C174 1.416 . S
C172 C178 1.448 . S
C173 N170 1.334 . S
C173 C171 1.390 . S
C173 H184 0.930 1_554 S
C174 C171 1.339 . S
C174 C172 1.416 . S
C174 H195 0.930 . S
C175 C176 1.413 . S
C175 C177 1.427 . S
C175 C181 1.416 . S
C176 C169 1.424 . S
C176 C175 1.413 . S
C176 N180 1.361 . S
C177 C175 1.427 . S
C177 C178 1.328 . S
C177 H192 0.929 . S
C178 C172 1.448 . S
C178 C177 1.328 . S
C178 H193 0.930 . S
Tb179 N170 2.617 . S
Tb179 N180 2.572 . S
Tb179 O214 2.349 1_554 S
Tb179 O217 2.393 1_554 S
Tb179 O218 2.465 . S
Tb179 O219 2.387 . S
Tb179 O221 2.428 . S
Tb179 O222 2.308 . S
Tb179 C243 2.802 . S
N180 C176 1.361 . S
N180 Tb179 2.572 . S
N180 C182 1.340 . S
C181 C175 1.416 . S
C181 C183 1.332 . S
C181 H189 0.931 . S
C182 N180 1.340 . S
C182 C183 1.407 . S
C182 H188 0.930 . S
C183 C181 1.332 . S
C183 C182 1.407 . S
C183 H185 0.929 . S
H184 C173 0.930 1_556 S
H185 C183 0.929 . S
H186 C201 0.930 . S
H187 C208 0.929 . S
H188 C182 0.930 . S
H189 C181 0.931 . S
H190 C204 0.930 . S
H191 C171 0.930 1_556 S
H192 C177 0.929 . S
H193 C178 0.930 . S
H194 C199 0.930 . S
H195 C174 0.930 . S
H196 C207 0.931 . S
N197 Tb168 2.617 . S
N197 C198 1.379 . S
N197 C201 1.334 . S
C198 N197 1.379 . S
C198 C200 1.416 . S
C198 C206 1.424 . S
C199 H194 0.930 . S
C199 C201 1.390 . S
C199 C202 1.339 . S
C200 C198 1.416 . S
C200 C202 1.416 . S
C200 C233 1.448 . S
C201 H186 0.930 . S
C201 N197 1.334 . S
C201 C199 1.390 . S
C202 C199 1.339 . S
C202 C200 1.416 . S
C202 H209 0.930 . S
N203 Tb168 2.572 . S
N203 C204 1.340 . S
N203 C206 1.361 . S
C204 H190 0.930 . S
C204 N203 1.340 . S
C204 C208 1.407 . S
C205 C206 1.413 . S
C205 C207 1.416 . S
C205 C234 1.427 . S
C206 C198 1.424 . S
C206 N203 1.361 . S
C206 C205 1.413 . S
C207 H196 0.931 . S
C207 C205 1.416 . S
C207 C208 1.332 . S
C208 H187 0.929 . S
C208 C204 1.407 . S
C208 C207 1.332 . S
H209 C202 0.930 . S
H210 C233 0.930 . S
H211 C234 0.929 . S
O212 Tb168 2.465 . S
O212 C232 1.264 . S
O213 Tb168 2.387 . S
O213 C224 1.264 . S
O214 Tb179 2.349 1_556 S
O214 C224 1.243 . S
O215 Tb168 2.428 . S
O215 C232 1.256 . S
O216 Tb168 2.308 . S
O216 C231 1.266 . S
O217 Tb179 2.393 1_556 S
O217 C231 1.248 . S
O218 Tb179 2.465 . S
O218 C243 1.264 . S
O219 Tb179 2.387 . S
O219 C235 1.270 . S
O220 Tb168 2.349 . S
O220 C235 1.230 1_556 S
O221 Tb179 2.428 . S
O221 C243 1.256 . S
O222 Tb179 2.308 . S
O222 C242 1.266 . S
O223 Tb168 2.393 1_554 S
O223 C242 1.248 . S
C224 O213 1.264 . S
C224 O214 1.243 . S
C225 C228 1.399 . S
C225 C230 1.383 . S
C225 C232 1.496 . S
C226 C227 1.399 . S
C226 C230 1.389 . S
C227 C226 1.399 . S
C227 C229 1.380 . S
C227 H244 0.929 . S
C228 C225 1.399 . S
C228 C229 1.392 . S
C228 H245 0.929 . S
C229 C227 1.380 . S
C229 C228 1.392 . S
C229 H246 0.929 . S
C230 C225 1.383 . S
C230 C226 1.389 . S
C230 H247 0.931 . S
C231 O216 1.266 . S
C231 O217 1.248 . S
C232 Tb168 2.802 . S
C232 O212 1.264 . S
C232 O215 1.256 . S
C232 C225 1.496 . S
C233 C200 1.448 . S
C233 H210 0.930 . S
C233 C234 1.328 . S
C234 C205 1.427 . S
C234 H211 0.929 . S
C234 C233 1.328 . S
C235 O219 1.270 . S
C235 O220 1.230 1_554 S
C236 C239 1.399 . S
C236 C240 1.383 . S
C236 C243 1.496 . S
C237 C238 1.399 . S
C237 C240 1.389 . S
C238 C237 1.399 . S
C238 C241 1.380 . S
C238 H248 0.929 . S
C239 C236 1.399 . S
C239 C241 1.392 . S
C239 H249 0.929 . S
C240 C236 1.383 . S
C240 C237 1.389 . S
C240 H250 0.931 . S
C241 C238 1.380 . S
C241 C239 1.392 . S
C241 H251 0.929 . S
C242 O222 1.266 . S
C242 O223 1.248 . S
C243 Tb179 2.802 . S
C243 O218 1.264 . S
C243 O221 1.256 . S
C243 C236 1.496 . S
H244 C227 0.929 . S
H245 C228 0.929 . S
H246 C229 0.929 . S
H247 C230 0.931 . S
H248 C238 0.929 . S
H249 C239 0.929 . S
H250 C240 0.931 . S
H251 C241 0.929 . S
Tb252 N281 2.617 . S
Tb252 N287 2.572 . S
Tb252 O296 2.465 . S
Tb252 O297 2.387 . S
Tb252 O299 2.428 . S
Tb252 O300 2.308 . S
Tb252 O304 2.349 . S
Tb252 O307 2.393 . S
Tb252 C316 2.802 . S
C253 N254 1.379 . S
C253 C256 1.416 . S
C253 C260 1.424 . S
N254 C253 1.379 . S
N254 C257 1.334 . S
N254 Tb263 2.617 . S
C255 C257 1.390 . S
C255 C258 1.339 . S
C255 H275 0.930 . S
C256 C253 1.416 . S
C256 C258 1.416 . S
C256 C262 1.448 . S
C257 N254 1.334 . S
C257 C255 1.390 . S
C257 H268 0.930 . S
C258 C255 1.339 . S
C258 C256 1.416 . S
C258 H279 0.930 . S
C259 C260 1.413 . S
C259 C261 1.427 . S
C259 C265 1.416 . S
C260 C253 1.424 . S
C260 C259 1.413 . S
C260 N264 1.361 . S
C261 C259 1.427 . S
C261 C262 1.328 . S
C261 H276 0.929 . S
C262 C256 1.448 . S
C262 C261 1.328 . S
C262 H277 0.930 . S
Tb263 N254 2.617 . S
Tb263 N264 2.572 . S
Tb263 O298 2.349 . S
Tb263 O301 2.393 . S
Tb263 O302 2.465 . S
Tb263 O303 2.387 . S
Tb263 O305 2.428 . S
Tb263 O306 2.308 . S
Tb263 C327 2.802 . S
N264 C260 1.361 . S
N264 Tb263 2.572 . S
N264 C266 1.340 . S
C265 C259 1.416 . S
C265 C267 1.332 . S
C265 H273 0.931 . S
C266 N264 1.340 . S
C266 C267 1.407 . S
C266 H272 0.930 . S
C267 C265 1.332 . S
C267 C266 1.407 . S
C267 H269 0.929 . S
H268 C257 0.930 . S
H269 C267 0.929 . S
H270 C285 0.930 . S
H271 C292 0.929 . S
H272 C266 0.930 . S
H273 C265 0.931 . S
H274 C288 0.930 . S
H275 C255 0.930 . S
H276 C261 0.929 . S
H277 C262 0.930 . S
H278 C283 0.930 1_565 S
H279 C258 0.930 . S
H280 C291 0.931 . S
N281 Tb252 2.617 . S
N281 C282 1.379 . S
N281 C285 1.334 . S
C282 N281 1.379 . S
C282 C284 1.416 . S
C282 C290 1.424 . S
C283 H278 0.930 1_545 S
C283 C285 1.390 . S
C283 C286 1.339 1_545 S
C284 C282 1.416 . S
C284 C286 1.416 1_545 S
C284 C317 1.448 1_545 S
C285 H270 0.930 . S
C285 N281 1.334 . S
C285 C283 1.390 . S
C286 C283 1.339 1_565 S
C286 C284 1.416 1_565 S
C286 H293 0.930 . S
N287 Tb252 2.572 . S
N287 C288 1.340 . S
N287 C290 1.361 . S
C288 H274 0.930 . S
C288 N287 1.340 . S
C288 C292 1.407 . S
C289 C290 1.413 . S
C289 C291 1.416 . S
C289 C318 1.427 . S
C290 C282 1.424 . S
C290 N287 1.361 . S
C290 C289 1.413 . S
C291 H280 0.931 . S
C291 C289 1.416 . S
C291 C292 1.332 . S
C292 H271 0.929 . S
C292 C288 1.407 . S
C292 C291 1.332 . S
H293 C286 0.930 . S
H294 C317 0.930 . S
H295 C318 0.929 . S
O296 Tb252 2.465 . S
O296 C316 1.264 . S
O297 Tb252 2.387 . S
O297 C308 1.264 . S
O298 Tb263 2.349 . S
O298 C308 1.243 . S
O299 Tb252 2.428 . S
O299 C316 1.256 . S
O300 Tb252 2.308 . S
O300 C315 1.266 . S
O301 Tb263 2.393 . S
O301 C315 1.248 . S
O302 Tb263 2.465 . S
O302 C327 1.264 . S
O303 Tb263 2.387 . S
O303 C319 1.264 . S
O304 Tb252 2.349 . S
O304 C319 1.243 . S
O305 Tb263 2.428 . S
O305 C327 1.256 . S
O306 Tb263 2.308 . S
O306 C326 1.266 . S
O307 Tb252 2.393 . S
O307 C326 1.248 . S
C308 O297 1.264 . S
C308 O298 1.243 . S
C309 C312 1.399 . S
C309 C314 1.383 . S
C309 C316 1.496 . S
C310 C311 1.399 . S
C310 C314 1.389 . S
C311 C310 1.399 . S
C311 C313 1.380 . S
C311 H328 0.929 . S
C312 C309 1.399 . S
C312 C313 1.392 . S
C312 H329 0.929 . S
C313 C311 1.380 . S
C313 C312 1.392 . S
C313 H330 0.929 . S
C314 C309 1.383 . S
C314 C310 1.389 . S
C314 H331 0.931 . S
C315 O300 1.266 . S
C315 O301 1.248 . S
C316 Tb252 2.802 . S
C316 O296 1.264 . S
C316 O299 1.256 . S
C316 C309 1.496 . S
C317 C284 1.448 1_565 S
C317 H294 0.930 . S
C317 C318 1.328 1_565 S
C318 C289 1.427 . S
C318 H295 0.929 . S
C318 C317 1.328 1_545 S
C319 O303 1.264 . S
C319 O304 1.243 . S
C320 C323 1.399 . S
C320 C324 1.383 . S
C320 C327 1.496 . S
C321 C322 1.399 . S
C321 C324 1.389 . S
C322 C321 1.399 . S
C322 C325 1.380 . S
C322 H332 0.929 . S
C323 C320 1.399 . S
C323 C325 1.392 . S
C323 H333 0.929 . S
C324 C320 1.383 . S
C324 C321 1.389 . S
C324 H334 0.931 . S
C325 C322 1.380 . S
C325 C323 1.392 . S
C325 H335 0.929 . S
C326 O306 1.266 . S
C326 O307 1.248 . S
C327 Tb263 2.802 . S
C327 O302 1.264 . S
C327 O305 1.256 . S
C327 C320 1.496 . S
H328 C311 0.929 . S
H329 C312 0.929 . S
H330 C313 0.929 . S
H331 C314 0.931 . S
H332 C322 0.929 . S
H333 C323 0.929 . S
H334 C324 0.931 . S
H335 C325 0.929 . S
Tb336 N365 2.617 . S
Tb336 N371 2.572 . S
Tb336 O380 2.465 . S
Tb336 O381 2.387 . S
Tb336 O383 2.428 . S
Tb336 O384 2.308 . S
Tb336 O388 2.349 . S
Tb336 O391 2.393 . S
Tb336 C400 2.802 . S
C337 N338 1.379 . S
C337 C340 1.416 . S
C337 C344 1.424 . S
N338 C337 1.379 . S
N338 C341 1.334 . S
N338 Tb347 2.617 . S
C339 C341 1.390 . S
C339 C342 1.339 . S
C339 H359 0.930 . S
C340 C337 1.416 . S
C340 C342 1.416 . S
C340 C346 1.448 . S
C341 N338 1.334 . S
C341 C339 1.390 . S
C341 H352 0.930 . S
C342 C339 1.339 . S
C342 C340 1.416 . S
C342 H363 0.930 . S
C343 C344 1.413 . S
C343 C345 1.427 . S
C343 C349 1.416 . S
C344 C337 1.424 . S
C344 C343 1.413 . S
C344 N348 1.361 . S
C345 C343 1.427 . S
C345 C346 1.328 . S
C345 H360 0.929 . S
C346 C340 1.448 . S
C346 C345 1.328 . S
C346 H361 0.930 . S
Tb347 N338 2.617 . S
Tb347 N348 2.572 . S
Tb347 O382 2.349 . S
Tb347 O385 2.393 . S
Tb347 O386 2.465 . S
Tb347 O387 2.387 . S
Tb347 O389 2.428 . S
Tb347 O390 2.308 . S
Tb347 C411 2.802 . S
N348 C344 1.361 . S
N348 Tb347 2.572 . S
N348 C350 1.340 . S
C349 C343 1.416 . S
C349 C351 1.332 . S
C349 H357 0.931 . S
C350 N348 1.340 . S
C350 C351 1.407 . S
C350 H356 0.930 . S
C351 C349 1.332 . S
C351 C350 1.407 . S
C351 H353 0.929 . S
H352 C341 0.930 . S
H353 C351 0.929 . S
H354 C369 0.930 . S
H355 C376 0.929 . S
H356 C350 0.930 . S
H357 C349 0.931 . S
H358 C372 0.930 . S
H359 C339 0.930 . S
H360 C345 0.929 . S
H361 C346 0.930 . S
H362 C367 0.930 . S
H363 C342 0.930 . S
H364 C375 0.931 . S
N365 Tb336 2.617 . S
N365 C366 1.379 . S
N365 C369 1.334 . S
C366 N365 1.379 . S
C366 C368 1.416 . S
C366 C374 1.424 . S
C367 H362 0.930 . S
C367 C369 1.390 . S
C367 C370 1.339 . S
C368 C366 1.416 . S
C368 C370 1.416 . S
C368 C401 1.448 . S
C369 H354 0.930 . S
C369 N365 1.334 . S
C369 C367 1.390 . S
C370 C367 1.339 . S
C370 C368 1.416 . S
C370 H377 0.930 . S
N371 Tb336 2.572 . S
N371 C372 1.340 . S
N371 C374 1.361 . S
C372 H358 0.930 . S
C372 N371 1.340 . S
C372 C376 1.407 . S
C373 C374 1.413 . S
C373 C375 1.416 . S
C373 C402 1.427 . S
C374 C366 1.424 . S
C374 N371 1.361 . S
C374 C373 1.413 . S
C375 H364 0.931 . S
C375 C373 1.416 . S
C375 C376 1.332 . S
C376 H355 0.929 . S
C376 C372 1.407 . S
C376 C375 1.332 . S
H377 C370 0.930 . S
H378 C401 0.930 . S
H379 C402 0.929 . S
O380 Tb336 2.465 . S
O380 C400 1.264 . S
O381 Tb336 2.387 . S
O381 C392 1.264 . S
O382 Tb347 2.349 . S
O382 C392 1.243 . S
O383 Tb336 2.428 . S
O383 C400 1.256 . S
O384 Tb336 2.308 . S
O384 C399 1.266 . S
O385 Tb347 2.393 . S
O385 C399 1.248 . S
O386 Tb347 2.465 . S
O386 C411 1.264 . S
O387 Tb347 2.387 . S
O387 C403 1.264 . S
O388 Tb336 2.349 . S
O388 C403 1.243 . S
O389 Tb347 2.428 . S
O389 C411 1.256 . S
O390 Tb347 2.308 . S
O390 C410 1.266 . S
O391 Tb336 2.393 . S
O391 C410 1.248 . S
C392 O381 1.264 . S
C392 O382 1.243 . S
C393 C396 1.399 . S
C393 C398 1.383 . S
C393 C400 1.496 . S
C394 C395 1.399 . S
C394 C398 1.389 . S
C395 C394 1.399 . S
C395 C397 1.380 . S
C395 H412 0.929 . S
C396 C393 1.399 . S
C396 C397 1.392 . S
C396 H413 0.929 . S
C397 C395 1.380 . S
C397 C396 1.392 . S
C397 H414 0.929 . S
C398 C393 1.383 . S
C398 C394 1.389 . S
C398 H415 0.931 . S
C399 O384 1.266 . S
C399 O385 1.248 . S
C400 Tb336 2.802 . S
C400 O380 1.264 . S
C400 O383 1.256 . S
C400 C393 1.496 . S
C401 C368 1.448 . S
C401 H378 0.930 . S
C401 C402 1.328 . S
C402 C373 1.427 . S
C402 H379 0.929 . S
C402 C401 1.328 . S
C403 O387 1.264 . S
C403 O388 1.243 . S
C404 C407 1.399 . S
C404 C408 1.383 . S
C404 C411 1.496 . S
C405 C406 1.399 . S
C405 C408 1.389 . S
C406 C405 1.399 . S
C406 C409 1.380 . S
C406 H416 0.929 . S
C407 C404 1.399 . S
C407 C409 1.392 . S
C407 H417 0.929 . S
C408 C404 1.383 . S
C408 C405 1.389 . S
C408 H418 0.931 . S
C409 C406 1.380 . S
C409 C407 1.392 . S
C409 H419 0.929 . S
C410 O390 1.266 . S
C410 O391 1.248 . S
C411 Tb347 2.802 . S
C411 O386 1.264 . S
C411 O389 1.256 . S
C411 C404 1.496 . S
H412 C395 0.929 . S
H413 C396 0.929 . S
H414 C397 0.929 . S
H415 C398 0.931 . S
H416 C406 0.929 . S
H417 C407 0.929 . S
H418 C408 0.931 . S
H419 C409 0.929 . S
Tb420 N449 2.617 . S
Tb420 N455 2.572 . S
Tb420 O464 2.465 . S
Tb420 O465 2.387 1_455 S
Tb420 O467 2.428 . S
Tb420 O468 2.308 1_455 S
Tb420 O472 2.349 . S
Tb420 O475 2.393 . S
Tb420 C484 2.802 . S
C421 N422 1.379 . S
C421 C424 1.416 . S
C421 C428 1.424 . S
N422 C421 1.379 . S
N422 C425 1.334 . S
N422 Tb431 2.617 . S
C423 C425 1.390 . S
C423 C426 1.339 . S
C423 H443 0.930 . S
C424 C421 1.416 . S
C424 C426 1.416 . S
C424 C430 1.448 . S
C425 N422 1.334 . S
C425 C423 1.390 . S
C425 H436 0.930 . S
C426 C423 1.339 . S
C426 C424 1.416 . S
C426 H447 0.930 . S
C427 C428 1.413 . S
C427 C429 1.427 . S
C427 C433 1.416 . S
C428 C421 1.424 . S
C428 C427 1.413 . S
C428 N432 1.361 . S
C429 C427 1.427 . S
C429 C430 1.328 . S
C429 H444 0.929 . S
C430 C424 1.448 . S
C430 C429 1.328 . S
C430 H445 0.930 . S
Tb431 N422 2.617 . S
Tb431 N432 2.572 . S
Tb431 O466 2.349 . S
Tb431 O469 2.393 . S
Tb431 O470 2.465 . S
Tb431 O471 2.407 . S
Tb431 O473 2.428 . S
Tb431 O474 2.308 . S
Tb431 C495 2.802 . S
N432 C428 1.361 . S
N432 Tb431 2.572 . S
N432 C434 1.340 . S
C433 C427 1.416 . S
C433 C435 1.332 . S
C433 H441 0.931 1_655 S
C434 N432 1.340 . S
C434 C435 1.407 . S
C434 H440 0.930 . S
C435 C433 1.332 . S
C435 C434 1.407 . S
C435 H437 0.929 1_655 S
H436 C425 0.930 . S
H437 C435 0.929 1_455 S
H438 C453 0.930 . S
H439 C460 0.929 . S
H440 C434 0.930 . S
H441 C433 0.931 1_455 S
H442 C456 0.930 . S
H443 C423 0.930 . S
H444 C429 0.929 . S
H445 C430 0.930 . S
H446 C451 0.930 . S
H447 C426 0.930 . S
H448 C459 0.931 . S
N449 Tb420 2.617 . S
N449 C450 1.379 . S
N449 C453 1.334 . S
C450 N449 1.379 . S
C450 C452 1.416 . S
C450 C458 1.424 . S
C451 H446 0.930 . S
C451 C453 1.390 . S
C451 C454 1.339 . S
C452 C450 1.416 . S
C452 C454 1.416 . S
C452 C485 1.448 . S
C453 H438 0.930 . S
C453 N449 1.334 . S
C453 C451 1.390 . S
C454 C451 1.339 . S
C454 C452 1.416 . S
C454 H461 0.930 . S
N455 Tb420 2.572 . S
N455 C456 1.340 1_455 S
N455 C458 1.361 . S
C456 H442 0.930 . S
C456 N455 1.340 1_655 S
C456 C460 1.407 . S
C457 C458 1.413 1_655 S
C457 C459 1.416 . S
C457 C486 1.427 . S
C458 C450 1.424 . S
C458 N455 1.361 . S
C458 C457 1.413 1_455 S
C459 H448 0.931 . S
C459 C457 1.416 . S
C459 C460 1.332 . S
C460 H439 0.929 . S
C460 C456 1.407 . S
C460 C459 1.332 . S
H461 C454 0.930 . S
H462 C485 0.930 . S
H463 C486 0.929 . S
O464 Tb420 2.465 . S
O464 C484 1.264 . S
O465 Tb420 2.387 1_655 S
O465 C476 1.264 . S
O466 Tb431 2.349 . S
O466 C476 1.243 . S
O467 Tb420 2.428 . S
O467 C484 1.256 . S
O468 Tb420 2.308 1_655 S
O468 C483 1.266 . S
O469 Tb431 2.393 . S
O469 C483 1.248 . S
O470 Tb431 2.465 . S
O470 C495 1.264 . S
O471 Tb431 2.407 . S
O471 C487 1.241 1_655 S
O472 Tb420 2.349 . S
O472 C487 1.243 . S
O473 Tb431 2.428 . S
O473 C495 1.256 . S
O474 Tb431 2.308 . S
O474 C494 1.266 1_655 S
O475 Tb420 2.393 . S
O475 C494 1.248 . S
C476 O465 1.264 . S
C476 O466 1.243 . S
C477 C480 1.399 . S
C477 C482 1.383 . S
C477 C484 1.496 . S
C478 C479 1.399 . S
C478 C482 1.389 . S
C479 C478 1.399 . S
C479 C481 1.380 . S
C479 H496 0.929 . S
C480 C477 1.399 . S
C480 C481 1.392 . S
C480 H497 0.929 . S
C481 C479 1.380 . S
C481 C480 1.392 . S
C481 H498 0.929 . S
C482 C477 1.383 . S
C482 C478 1.389 . S
C482 H499 0.931 . S
C483 O468 1.266 . S
C483 O469 1.248 . S
C484 Tb420 2.802 . S
C484 O464 1.264 . S
C484 O467 1.256 . S
C484 C477 1.496 . S
C485 C452 1.448 . S
C485 H462 0.930 . S
C485 C486 1.328 1_455 S
C486 C457 1.427 . S
C486 H463 0.929 . S
C486 C485 1.328 1_655 S
C487 O471 1.241 1_455 S
C487 O472 1.243 . S
C488 C491 1.399 . S
C488 C492 1.383 . S
C488 C495 1.496 . S
C489 C490 1.399 . S
C489 C492 1.389 . S
C490 C489 1.399 . S
C490 C493 1.380 . S
C490 H500 0.929 . S
C491 C488 1.399 . S
C491 C493 1.392 . S
C491 H501 0.929 . S
C492 C488 1.383 . S
C492 C489 1.389 . S
C492 H502 0.931 . S
C493 C490 1.380 . S
C493 C491 1.392 . S
C493 H503 0.929 . S
C494 O474 1.266 1_455 S
C494 O475 1.248 . S
C495 Tb431 2.802 . S
C495 O470 1.264 . S
C495 O473 1.256 . S
C495 C488 1.496 . S
H496 C479 0.929 . S
H497 C480 0.929 . S
H498 C481 0.929 . S
H499 C482 0.931 . S
H500 C490 0.929 . S
H501 C491 0.929 . S
H502 C492 0.931 . S
H503 C493 0.929 . S
Tb504 N533 2.617 . S
Tb504 N539 2.572 . S
Tb504 O548 2.465 . S
Tb504 O549 2.387 1_556 S
Tb504 O551 2.428 . S
Tb504 O552 2.308 1_556 S
Tb504 O556 2.349 . S
Tb504 O559 2.393 . S
Tb504 C568 2.802 . S
C505 N506 1.379 . S
C505 C508 1.416 . S
C505 C512 1.424 . S
N506 C505 1.379 . S
N506 C509 1.334 . S
N506 Tb515 2.617 . S
C507 C509 1.390 . S
C507 C510 1.339 1_655 S
C507 H527 0.930 1_655 S
C508 C505 1.416 . S
C508 C510 1.416 1_655 S
C508 C514 1.448 1_655 S
C509 N506 1.334 . S
C509 C507 1.390 . S
C509 H520 0.930 . S
C510 C507 1.339 1_455 S
C510 C508 1.416 1_455 S
C510 H531 0.930 . S
C511 C512 1.413 . S
C511 C513 1.427 . S
C511 C517 1.416 . S
C512 C505 1.424 . S
C512 C511 1.413 . S
C512 N516 1.361 . S
C513 C511 1.427 . S
C513 C514 1.328 1_655 S
C513 H528 0.929 . S
C514 C508 1.448 1_455 S
C514 C513 1.328 1_455 S
C514 H529 0.930 . S
Tb515 N506 2.617 . S
Tb515 N516 2.572 . S
Tb515 O550 2.349 . S
Tb515 O553 2.393 . S
Tb515 O554 2.465 . S
Tb515 O555 2.352 1_554 S
Tb515 O557 2.428 . S
Tb515 O558 2.308 . S
Tb515 C579 2.802 . S
N516 C512 1.361 . S
N516 Tb515 2.572 . S
N516 C518 1.340 . S
C517 C511 1.416 . S
C517 C519 1.335 . S
C517 H525 0.931 1_554 S
C518 N516 1.340 . S
C518 C519 1.422 . S
C518 H524 0.930 . S
C519 C517 1.335 . S
C519 C518 1.422 . S
C519 H521 0.913 1_554 S
H520 C509 0.930 . S
H521 C519 0.913 1_556 S
H522 C537 0.930 . S
H523 C544 0.929 . S
H524 C518 0.930 . S
H525 C517 0.931 1_556 S
H526 C540 0.930 . S
H527 C507 0.930 1_455 S
H528 C513 0.929 . S
H529 C514 0.930 . S
H530 C535 0.930 . S
H531 C510 0.930 . S
H532 C543 0.931 . S
N533 Tb504 2.617 . S
N533 C534 1.379 . S
N533 C537 1.334 . S
C534 N533 1.379 . S
C534 C536 1.416 . S
C534 C542 1.424 . S
C535 H530 0.930 . S
C535 C537 1.390 . S
C535 C538 1.339 . S
C536 C534 1.416 . S
C536 C538 1.416 . S
C536 C569 1.448 . S
C537 H522 0.930 . S
C537 N533 1.334 . S
C537 C535 1.390 . S
C538 C535 1.339 . S
C538 C536 1.416 . S
C538 H545 0.930 . S
N539 Tb504 2.572 . S
N539 C540 1.340 1_556 S
N539 C542 1.361 . S
C540 H526 0.930 . S
C540 N539 1.340 1_554 S
C540 C544 1.407 . S
C541 C542 1.413 1_554 S
C541 C543 1.416 . S
C541 C570 1.427 . S
C542 C534 1.424 . S
C542 N539 1.361 . S
C542 C541 1.413 1_556 S
C543 H532 0.931 . S
C543 C541 1.416 . S
C543 C544 1.332 . S
C544 H523 0.929 . S
C544 C540 1.407 . S
C544 C543 1.332 . S
H545 C538 0.930 . S
H546 C569 0.930 . S
H547 C570 0.929 . S
O548 Tb504 2.465 . S
O548 C568 1.264 . S
O549 Tb504 2.387 1_554 S
O549 C560 1.264 . S
O550 Tb515 2.349 . S
O550 C560 1.243 . S
O551 Tb504 2.428 . S
O551 C568 1.256 . S
O552 Tb504 2.308 1_554 S
O552 C567 1.266 . S
O553 Tb515 2.393 . S
O553 C567 1.248 . S
O554 Tb515 2.465 . S
O554 C579 1.264 . S
O555 Tb515 2.352 1_556 S
O555 C571 1.302 . S
O556 Tb504 2.349 . S
O556 C571 1.243 . S
O557 Tb515 2.428 . S
O557 C579 1.256 . S
O558 Tb515 2.308 . S
O558 C578 1.266 1_554 S
O559 Tb504 2.393 . S
O559 C578 1.248 . S
C560 O549 1.264 . S
C560 O550 1.243 . S
C561 C564 1.399 . S
C561 C566 1.383 . S
C561 C568 1.496 . S
C562 C563 1.399 . S
C562 C566 1.389 . S
C563 C562 1.399 . S
C563 C565 1.380 . S
C563 H580 0.929 . S
C564 C561 1.399 . S
C564 C565 1.392 . S
C564 H581 0.929 . S
C565 C563 1.380 . S
C565 C564 1.392 . S
C565 H582 0.929 . S
C566 C561 1.383 . S
C566 C562 1.389 . S
C566 H583 0.931 . S
C567 O552 1.266 . S
C567 O553 1.248 . S
C568 Tb504 2.802 . S
C568 O548 1.264 . S
C568 O551 1.256 . S
C568 C561 1.496 . S
C569 C536 1.448 . S
C569 H546 0.930 . S
C569 C570 1.328 1_556 S
C570 C541 1.427 . S
C570 H547 0.929 . S
C570 C569 1.328 1_554 S
C571 O555 1.302 . S
C571 O556 1.243 . S
C572 C575 1.399 . S
C572 C576 1.383 . S
C572 C579 1.496 . S
C573 C574 1.399 . S
C573 C576 1.389 . S
C574 C573 1.399 . S
C574 C577 1.380 . S
C574 H584 0.929 . S
C575 C572 1.399 . S
C575 C577 1.392 . S
C575 H585 0.929 . S
C576 C572 1.383 . S
C576 C573 1.389 . S
C576 H586 0.931 . S
C577 C574 1.380 . S
C577 C575 1.392 . S
C577 H587 0.929 . S
C578 O558 1.266 1_556 S
C578 O559 1.248 . S
C579 Tb515 2.802 . S
C579 O554 1.264 . S
C579 O557 1.256 . S
C579 C572 1.496 . S
H580 C563 0.929 . S
H581 C564 0.929 . S
H582 C565 0.929 . S
H583 C566 0.931 . S
H584 C574 0.929 . S
H585 C575 0.929 . S
H586 C576 0.931 . S
H587 C577 0.929 . S
Tb588 N617 2.617 . S
Tb588 N623 2.572 . S
Tb588 O632 2.465 . S
Tb588 O633 2.387 . S
Tb588 O635 2.428 . S
Tb588 O636 2.308 . S
Tb588 O640 2.349 . S
Tb588 O643 2.393 . S
Tb588 C652 2.802 . S
C589 N590 1.379 . S
C589 C592 1.416 . S
C589 C596 1.424 . S
N590 C589 1.379 . S
N590 C593 1.334 . S
N590 Tb599 2.617 . S
C591 C593 1.390 . S
C591 C594 1.339 . S
C591 H611 0.930 . S
C592 C589 1.416 . S
C592 C594 1.416 . S
C592 C598 1.448 . S
C593 N590 1.334 . S
C593 C591 1.390 . S
C593 H604 0.930 . S
C594 C591 1.339 . S
C594 C592 1.416 . S
C594 H615 0.930 . S
C595 C596 1.413 . S
C595 C597 1.427 . S
C595 C601 1.416 . S
C596 C589 1.424 . S
C596 C595 1.413 . S
C596 N600 1.361 . S
C597 C595 1.427 . S
C597 C598 1.328 . S
C597 H612 0.929 . S
C598 C592 1.448 . S
C598 C597 1.328 . S
C598 H613 0.930 . S
Tb599 N590 2.617 . S
Tb599 N600 2.572 . S
Tb599 O634 2.349 . S
Tb599 O637 2.393 . S
Tb599 O638 2.465 . S
Tb599 O639 2.387 . S
Tb599 O641 2.428 . S
Tb599 O642 2.308 . S
Tb599 C663 2.802 . S
N600 C596 1.361 . S
N600 Tb599 2.572 . S
N600 C602 1.340 . S
C601 C595 1.416 . S
C601 C603 1.332 . S
C601 H609 0.931 . S
C602 N600 1.340 . S
C602 C603 1.407 . S
C602 H608 0.930 . S
C603 C601 1.332 . S
C603 C602 1.407 . S
C603 H605 0.929 . S
H604 C593 0.930 . S
H605 C603 0.929 . S
H606 C621 0.930 . S
H607 C628 0.929 . S
H608 C602 0.930 . S
H609 C601 0.931 . S
H610 C624 0.930 . S
H611 C591 0.930 . S
H612 C597 0.929 . S
H613 C598 0.930 . S
H614 C619 0.930 . S
H615 C594 0.930 . S
H616 C627 0.931 . S
N617 Tb588 2.617 . S
N617 C618 1.379 . S
N617 C621 1.334 . S
C618 N617 1.379 . S
C618 C620 1.416 . S
C618 C626 1.424 . S
C619 H614 0.930 . S
C619 C621 1.390 . S
C619 C622 1.339 . S
C620 C618 1.416 . S
C620 C622 1.416 . S
C620 C653 1.448 . S
C621 H606 0.930 . S
C621 N617 1.334 . S
C621 C619 1.390 . S
C622 C619 1.339 . S
C622 C620 1.416 . S
C622 H629 0.930 . S
N623 Tb588 2.572 . S
N623 C624 1.340 . S
N623 C626 1.361 . S
C624 H610 0.930 . S
C624 N623 1.340 . S
C624 C628 1.407 . S
C625 C626 1.413 . S
C625 C627 1.416 . S
C625 C654 1.427 . S
C626 C618 1.424 . S
C626 N623 1.361 . S
C626 C625 1.413 . S
C627 H616 0.931 . S
C627 C625 1.416 . S
C627 C628 1.332 . S
C628 H607 0.929 . S
C628 C624 1.407 . S
C628 C627 1.332 . S
H629 C622 0.930 . S
H630 C653 0.930 . S
H631 C654 0.929 . S
O632 Tb588 2.465 . S
O632 C652 1.264 . S
O633 Tb588 2.387 . S
O633 C644 1.264 . S
O634 Tb599 2.349 . S
O634 C644 1.243 . S
O635 Tb588 2.428 . S
O635 C652 1.256 . S
O636 Tb588 2.308 . S
O636 C651 1.266 . S
O637 Tb599 2.393 . S
O637 C651 1.248 . S
O638 Tb599 2.465 . S
O638 C663 1.264 . S
O639 Tb599 2.387 . S
O639 C655 1.264 . S
O640 Tb588 2.349 . S
O640 C655 1.243 . S
O641 Tb599 2.428 . S
O641 C663 1.256 . S
O642 Tb599 2.308 . S
O642 C662 1.266 . S
O643 Tb588 2.393 . S
O643 C662 1.248 . S
C644 O633 1.264 . S
C644 O634 1.243 . S
C645 C648 1.399 . S
C645 C650 1.383 . S
C645 C652 1.496 . S
C646 C647 1.399 . S
C646 C650 1.389 . S
C647 C646 1.399 . S
C647 C649 1.380 . S
C647 H664 0.929 . S
C648 C645 1.399 . S
C648 C649 1.392 . S
C648 H665 0.929 . S
C649 C647 1.380 . S
C649 C648 1.392 . S
C649 H666 0.929 . S
C650 C645 1.383 . S
C650 C646 1.389 . S
C650 H667 0.931 . S
C651 O636 1.266 . S
C651 O637 1.248 . S
C652 Tb588 2.802 . S
C652 O632 1.264 . S
C652 O635 1.256 . S
C652 C645 1.496 . S
C653 C620 1.448 . S
C653 H630 0.930 . S
C653 C654 1.328 . S
C654 C625 1.427 . S
C654 H631 0.929 . S
C654 C653 1.328 . S
C655 O639 1.264 . S
C655 O640 1.243 . S
C656 C659 1.399 . S
C656 C660 1.383 . S
C656 C663 1.496 . S
C657 C658 1.399 . S
C657 C660 1.389 . S
C658 C657 1.399 . S
C658 C661 1.380 . S
C658 H668 0.929 . S
C659 C656 1.399 . S
C659 C661 1.392 . S
C659 H669 0.929 . S
C660 C656 1.383 . S
C660 C657 1.389 . S
C660 H670 0.931 . S
C661 C658 1.380 . S
C661 C659 1.392 . S
C661 H671 0.929 . S
C662 O642 1.266 . S
C662 O643 1.248 . S
C663 Tb599 2.802 . S
C663 O638 1.264 . S
C663 O641 1.256 . S
C663 C656 1.496 . S
H664 C647 0.929 . S
H665 C648 0.929 . S
H666 C649 0.929 . S
H667 C650 0.931 . S
H668 C658 0.929 . S
H669 C659 0.929 . S
H670 C660 0.931 . S
H671 C661 0.929 . S
Tb672 N701 2.617 . S
Tb672 N707 2.572 . S
Tb672 O716 2.465 . S
Tb672 O717 2.387 . S
Tb672 O719 2.428 . S
Tb672 O720 2.308 . S
Tb672 O724 2.349 . S
Tb672 O727 2.393 . S
Tb672 C736 2.802 . S
C673 N674 1.379 . S
C673 C676 1.416 . S
C673 C680 1.424 . S
N674 C673 1.379 . S
N674 C677 1.334 . S
N674 Tb683 2.617 . S
C675 C677 1.390 . S
C675 C678 1.339 . S
C675 H695 0.930 . S
C676 C673 1.416 . S
C676 C678 1.416 . S
C676 C682 1.448 . S
C677 N674 1.334 . S
C677 C675 1.390 . S
C677 H688 0.930 . S
C678 C675 1.339 . S
C678 C676 1.416 . S
C678 H699 0.930 . S
C679 C680 1.413 . S
C679 C681 1.427 . S
C679 C685 1.416 . S
C680 C673 1.424 . S
C680 C679 1.413 . S
C680 N684 1.361 . S
C681 C679 1.427 . S
C681 C682 1.328 . S
C681 H696 0.929 . S
C682 C676 1.448 . S
C682 C681 1.328 . S
C682 H697 0.930 . S
Tb683 N674 2.617 . S
Tb683 N684 2.572 . S
Tb683 O718 2.349 . S
Tb683 O721 2.393 . S
Tb683 O722 2.465 . S
Tb683 O723 2.387 . S
Tb683 O725 2.428 . S
Tb683 O726 2.308 . S
Tb683 C747 2.802 . S
N684 C680 1.361 . S
N684 Tb683 2.572 . S
N684 C686 1.340 . S
C685 C679 1.416 . S
C685 C687 1.332 . S
C685 H693 0.931 . S
C686 N684 1.340 . S
C686 C687 1.407 . S
C686 H692 0.930 . S
C687 C685 1.332 . S
C687 C686 1.407 . S
C687 H689 0.929 . S
H688 C677 0.930 . S
H689 C687 0.929 . S
H690 C705 0.930 . S
H691 C712 0.929 . S
H692 C686 0.930 . S
H693 C685 0.931 . S
H694 C708 0.930 . S
H695 C675 0.930 . S
H696 C681 0.929 . S
H697 C682 0.930 . S
H698 C703 0.930 1_556 S
H699 C678 0.930 . S
H700 C711 0.931 . S
N701 Tb672 2.617 . S
N701 C702 1.379 . S
N701 C705 1.334 . S
C702 N701 1.379 . S
C702 C704 1.416 . S
C702 C710 1.424 . S
C703 H698 0.930 1_554 S
C703 C705 1.390 . S
C703 C706 1.339 1_554 S
C704 C702 1.416 . S
C704 C706 1.416 1_554 S
C704 C737 1.448 1_554 S
C705 H690 0.930 . S
C705 N701 1.334 . S
C705 C703 1.390 . S
C706 C703 1.339 1_556 S
C706 C704 1.416 1_556 S
C706 H713 0.930 . S
N707 Tb672 2.572 . S
N707 C708 1.340 . S
N707 C710 1.361 . S
C708 H694 0.930 . S
C708 N707 1.340 . S
C708 C712 1.407 . S
C709 C710 1.413 . S
C709 C711 1.416 . S
C709 C738 1.427 . S
C710 C702 1.424 . S
C710 N707 1.361 . S
C710 C709 1.413 . S
C711 H700 0.931 . S
C711 C709 1.416 . S
C711 C712 1.332 . S
C712 H691 0.929 . S
C712 C708 1.407 . S
C712 C711 1.332 . S
H713 C706 0.930 . S
H714 C737 0.930 . S
H715 C738 0.929 1_556 S
O716 Tb672 2.465 . S
O716 C736 1.264 . S
O717 Tb672 2.387 . S
O717 C728 1.264 . S
O718 Tb683 2.349 . S
O718 C728 1.243 . S
O719 Tb672 2.428 . S
O719 C736 1.256 . S
O720 Tb672 2.308 . S
O720 C735 1.266 . S
O721 Tb683 2.393 . S
O721 C735 1.248 . S
O722 Tb683 2.465 . S
O722 C747 1.264 . S
O723 Tb683 2.387 . S
O723 C739 1.264 . S
O724 Tb672 2.349 . S
O724 C739 1.243 . S
O725 Tb683 2.428 . S
O725 C747 1.256 . S
O726 Tb683 2.308 . S
O726 C746 1.266 . S
O727 Tb672 2.393 . S
O727 C746 1.248 . S
C728 O717 1.264 . S
C728 O718 1.243 . S
C729 C732 1.399 . S
C729 C734 1.383 . S
C729 C736 1.496 . S
C730 C731 1.399 . S
C730 C734 1.389 . S
C731 C730 1.399 . S
C731 C733 1.380 . S
C731 H748 0.929 . S
C732 C729 1.399 . S
C732 C733 1.392 . S
C732 H749 0.929 . S
C733 C731 1.380 . S
C733 C732 1.392 . S
C733 H750 0.929 . S
C734 C729 1.383 . S
C734 C730 1.389 . S
C734 H751 0.931 . S
C735 O720 1.266 . S
C735 O721 1.248 . S
C736 Tb672 2.802 . S
C736 O716 1.264 . S
C736 O719 1.256 . S
C736 C729 1.496 . S
C737 C704 1.448 1_556 S
C737 H714 0.930 . S
C737 C738 1.328 1_556 S
C738 C709 1.427 . S
C738 H715 0.929 1_554 S
C738 C737 1.328 1_554 S
C739 O723 1.264 . S
C739 O724 1.243 . S
C740 C743 1.399 . S
C740 C744 1.383 . S
C740 C747 1.496 . S
C741 C742 1.399 . S
C741 C744 1.389 . S
C742 C741 1.399 . S
C742 C745 1.380 . S
C742 H752 0.929 . S
C743 C740 1.399 . S
C743 C745 1.392 . S
C743 H753 0.929 . S
C744 C740 1.383 . S
C744 C741 1.389 . S
C744 H754 0.931 . S
C745 C742 1.380 . S
C745 C743 1.392 . S
C745 H755 0.929 . S
C746 O726 1.266 . S
C746 O727 1.248 . S
C747 Tb683 2.802 . S
C747 O722 1.264 . S
C747 O725 1.256 . S
C747 C740 1.496 . S
H748 C731 0.929 . S
H749 C732 0.929 . S
H750 C733 0.929 . S
H751 C734 0.931 . S
H752 C742 0.929 . S
H753 C743 0.929 . S
H754 C744 0.931 . S
H755 C745 0.929 . S
Tb756 N785 2.617 . S
Tb756 N791 2.572 . S
Tb756 O800 2.465 . S
Tb756 O801 2.387 1_565 S
Tb756 O803 2.428 . S
Tb756 O804 2.308 1_565 S
Tb756 O808 2.349 . S
Tb756 O811 2.393 . S
Tb756 C820 2.802 . S
C757 N758 1.379 . S
C757 C760 1.416 . S
C757 C764 1.424 . S
N758 C757 1.379 . S
N758 C761 1.334 . S
N758 Tb767 2.617 . S
C759 C761 1.390 . S
C759 C762 1.339 1_556 S
C759 H779 0.930 1_556 S
C760 C757 1.416 . S
C760 C762 1.416 1_556 S
C760 C766 1.448 1_556 S
C761 N758 1.334 . S
C761 C759 1.390 . S
C761 H772 0.930 . S
C762 C759 1.339 1_554 S
C762 C760 1.416 1_554 S
C762 H783 0.930 . S
C763 C764 1.413 . S
C763 C765 1.427 . S
C763 C769 1.416 . S
C764 C757 1.424 . S
C764 C763 1.413 . S
C764 N768 1.361 . S
C765 C763 1.427 . S
C765 C766 1.328 1_556 S
C765 H780 0.929 . S
C766 C760 1.448 1_554 S
C766 C765 1.328 1_554 S
C766 H781 0.930 . S
Tb767 N758 2.617 . S
Tb767 N768 2.572 . S
Tb767 O802 2.349 . S
Tb767 O805 2.393 . S
Tb767 O806 2.465 . S
Tb767 O807 2.387 1_545 S
Tb767 O809 2.428 . S
Tb767 O810 2.308 . S
Tb767 C831 2.802 . S
N768 C764 1.361 . S
N768 Tb767 2.572 . S
N768 C770 1.340 . S
C769 C763 1.416 . S
C769 C771 1.334 . S
C769 H777 0.931 1_545 S
C770 N768 1.340 . S
C770 C771 1.414 . S
C770 H776 0.930 . S
C771 C769 1.334 . S
C771 C770 1.414 . S
C771 H773 0.922 1_545 S
H772 C761 0.930 . S
H773 C771 0.922 1_565 S
H774 C789 0.930 . S
H775 C796 0.929 . S
H776 C770 0.930 . S
H777 C769 0.931 1_565 S
H778 C792 0.930 . S
H779 C759 0.930 1_554 S
H780 C765 0.929 . S
H781 C766 0.930 . S
H782 C787 0.930 . S
H783 C762 0.930 . S
H784 C795 0.931 . S
N785 Tb756 2.617 . S
N785 C786 1.379 . S
N785 C789 1.334 . S
C786 N785 1.379 . S
C786 C788 1.416 . S
C786 C794 1.424 . S
C787 H782 0.930 . S
C787 C789 1.390 . S
C787 C790 1.339 . S
C788 C786 1.416 . S
C788 C790 1.416 . S
C788 C821 1.448 . S
C789 H774 0.930 . S
C789 N785 1.334 . S
C789 C787 1.390 . S
C790 C787 1.339 . S
C790 C788 1.416 . S
C790 H797 0.930 . S
N791 Tb756 2.572 . S
N791 C792 1.340 1_565 S
N791 C794 1.361 . S
C792 H778 0.930 . S
C792 N791 1.340 1_545 S
C792 C796 1.407 . S
C793 C794 1.413 1_545 S
C793 C795 1.416 . S
C793 C822 1.427 . S
C794 C786 1.424 . S
C794 N791 1.361 . S
C794 C793 1.413 1_565 S
C795 H784 0.931 . S
C795 C793 1.416 . S
C795 C796 1.332 . S
C796 H775 0.929 . S
C796 C792 1.407 . S
C796 C795 1.332 . S
H797 C790 0.930 . S
H798 C821 0.930 . S
H799 C822 0.929 . S
O800 Tb756 2.465 . S
O800 C820 1.264 . S
O801 Tb756 2.387 1_545 S
O801 C812 1.264 . S
O802 Tb767 2.349 . S
O802 C812 1.243 . S
O803 Tb756 2.428 . S
O803 C820 1.256 . S
O804 Tb756 2.308 1_545 S
O804 C819 1.266 . S
O805 Tb767 2.393 . S
O805 C819 1.248 . S
O806 Tb767 2.465 . S
O806 C831 1.264 . S
O807 Tb767 2.387 1_565 S
O807 C823 1.264 . S
O808 Tb756 2.349 . S
O808 C823 1.243 . S
O809 Tb767 2.428 . S
O809 C831 1.256 . S
O810 Tb767 2.308 . S
O810 C830 1.266 1_545 S
O811 Tb756 2.393 . S
O811 C830 1.248 . S
C812 O801 1.264 . S
C812 O802 1.243 . S
C813 C816 1.399 . S
C813 C818 1.383 . S
C813 C820 1.496 . S
C814 C815 1.399 . S
C814 C818 1.389 . S
C815 C814 1.399 . S
C815 C817 1.380 . S
C815 H832 0.929 . S
C816 C813 1.399 . S
C816 C817 1.392 . S
C816 H833 0.929 . S
C817 C815 1.380 . S
C817 C816 1.392 . S
C817 H834 0.929 . S
C818 C813 1.383 . S
C818 C814 1.389 . S
C818 H835 0.931 . S
C819 O804 1.266 . S
C819 O805 1.248 . S
C820 Tb756 2.802 . S
C820 O800 1.264 . S
C820 O803 1.256 . S
C820 C813 1.496 . S
C821 C788 1.448 . S
C821 H798 0.930 . S
C821 C822 1.328 1_565 S
C822 C793 1.427 . S
C822 H799 0.929 . S
C822 C821 1.328 1_545 S
C823 O807 1.264 . S
C823 O808 1.243 . S
C824 C827 1.399 . S
C824 C828 1.383 . S
C824 C831 1.496 . S
C825 C826 1.399 . S
C825 C828 1.389 . S
C826 C825 1.399 . S
C826 C829 1.380 . S
C826 H836 0.929 . S
C827 C824 1.399 . S
C827 C829 1.392 . S
C827 H837 0.929 . S
C828 C824 1.383 . S
C828 C825 1.389 . S
C828 H838 0.931 . S
C829 C826 1.380 . S
C829 C827 1.392 . S
C829 H839 0.929 . S
C830 O810 1.266 1_565 S
C830 O811 1.248 . S
C831 Tb767 2.802 . S
C831 O806 1.264 . S
C831 O809 1.256 . S
C831 C824 1.496 . S
H832 C815 0.929 . S
H833 C816 0.929 . S
H834 C817 0.929 . S
H835 C818 0.931 . S
H836 C826 0.929 . S
H837 C827 0.929 . S
H838 C828 0.931 . S
H839 C829 0.929 . S
Tb840 N869 2.617 . S
Tb840 N875 2.572 . S
Tb840 O884 2.465 . S
Tb840 O885 2.387 . S
Tb840 O887 2.428 . S
Tb840 O888 2.308 . S
Tb840 O892 2.349 . S
Tb840 O895 2.393 1_565 S
Tb840 C904 2.802 . S
C841 N842 1.379 . S
C841 C844 1.416 . S
C841 C848 1.424 . S
N842 C841 1.379 . S
N842 C845 1.334 . S
N842 Tb851 2.617 . S
C843 C845 1.390 . S
C843 C846 1.339 . S
C843 H863 0.930 1_545 S
C844 C841 1.416 . S
C844 C846 1.416 . S
C844 C850 1.448 . S
C845 N842 1.334 . S
C845 C843 1.390 . S
C845 H856 0.930 1_545 S
C846 C843 1.339 . S
C846 C844 1.416 . S
C846 H867 0.930 . S
C847 C848 1.413 . S
C847 C849 1.427 . S
C847 C853 1.416 . S
C848 C841 1.424 . S
C848 C847 1.413 . S
C848 N852 1.361 . S
C849 C847 1.427 . S
C849 C850 1.328 . S
C849 H864 0.929 . S
C850 C844 1.448 . S
C850 C849 1.328 . S
C850 H865 0.930 . S
Tb851 N842 2.617 . S
Tb851 N852 2.572 . S
Tb851 O886 2.349 1_545 S
Tb851 O889 2.393 1_545 S
Tb851 O890 2.465 . S
Tb851 O891 2.387 . S
Tb851 O893 2.428 . S
Tb851 O894 2.308 . S
Tb851 C915 2.802 . S
N852 C848 1.361 . S
N852 Tb851 2.572 . S
N852 C854 1.340 . S
C853 C847 1.416 . S
C853 C855 1.332 . S
C853 H861 0.931 . S
C854 N852 1.340 . S
C854 C855 1.407 . S
C854 H860 0.930 . S
C855 C853 1.332 . S
C855 C854 1.407 . S
C855 H857 0.929 . S
H856 C845 0.930 1_565 S
H857 C855 0.929 . S
H858 C873 0.930 . S
H859 C880 0.929 . S
H860 C854 0.930 . S
H861 C853 0.931 . S
H862 C876 0.930 . S
H863 C843 0.930 1_565 S
H864 C849 0.929 . S
H865 C850 0.930 . S
H866 C871 0.930 . S
H867 C846 0.930 . S
H868 C879 0.931 . S
N869 Tb840 2.617 . S
N869 C870 1.379 . S
N869 C873 1.334 . S
C870 N869 1.379 . S
C870 C872 1.416 . S
C870 C878 1.424 . S
C871 H866 0.930 . S
C871 C873 1.390 . S
C871 C874 1.339 . S
C872 C870 1.416 . S
C872 C874 1.416 . S
C872 C905 1.448 . S
C873 H858 0.930 . S
C873 N869 1.334 . S
C873 C871 1.390 . S
C874 C871 1.339 . S
C874 C872 1.416 . S
C874 H881 0.930 . S
N875 Tb840 2.572 . S
N875 C876 1.340 . S
N875 C878 1.361 . S
C876 H862 0.930 . S
C876 N875 1.340 . S
C876 C880 1.407 . S
C877 C878 1.413 . S
C877 C879 1.416 . S
C877 C906 1.427 . S
C878 C870 1.424 . S
C878 N875 1.361 . S
C878 C877 1.413 . S
C879 H868 0.931 . S
C879 C877 1.416 . S
C879 C880 1.332 . S
C880 H859 0.929 . S
C880 C876 1.407 . S
C880 C879 1.332 . S
H881 C874 0.930 . S
H882 C905 0.930 . S
H883 C906 0.929 . S
O884 Tb840 2.465 . S
O884 C904 1.264 . S
O885 Tb840 2.387 . S
O885 C896 1.264 . S
O886 Tb851 2.349 1_565 S
O886 C896 1.243 . S
O887 Tb840 2.428 . S
O887 C904 1.256 . S
O888 Tb840 2.308 . S
O888 C903 1.266 . S
O889 Tb851 2.393 1_565 S
O889 C903 1.248 . S
O890 Tb851 2.465 . S
O890 C915 1.264 . S
O891 Tb851 2.387 . S
O891 C907 1.264 . S
O892 Tb840 2.349 . S
O892 C907 1.243 1_565 S
O893 Tb851 2.428 . S
O893 C915 1.256 . S
O894 Tb851 2.308 . S
O894 C914 1.266 . S
O895 Tb840 2.393 1_545 S
O895 C914 1.248 . S
C896 O885 1.264 . S
C896 O886 1.243 . S
C897 C900 1.399 . S
C897 C902 1.383 . S
C897 C904 1.496 . S
C898 C899 1.399 . S
C898 C902 1.389 . S
C899 C898 1.399 . S
C899 C901 1.380 . S
C899 H916 0.929 . S
C900 C897 1.399 . S
C900 C901 1.392 . S
C900 H917 0.929 . S
C901 C899 1.380 . S
C901 C900 1.392 . S
C901 H918 0.929 . S
C902 C897 1.383 . S
C902 C898 1.389 . S
C902 H919 0.931 . S
C903 O888 1.266 . S
C903 O889 1.248 . S
C904 Tb840 2.802 . S
C904 O884 1.264 . S
C904 O887 1.256 . S
C904 C897 1.496 . S
C905 C872 1.448 . S
C905 H882 0.930 . S
C905 C906 1.328 . S
C906 C877 1.427 . S
C906 H883 0.929 . S
C906 C905 1.328 . S
C907 O891 1.264 . S
C907 O892 1.243 1_545 S
C908 C911 1.399 . S
C908 C912 1.383 . S
C908 C915 1.496 . S
C909 C910 1.399 . S
C909 C912 1.389 . S
C910 C909 1.399 . S
C910 C913 1.380 . S
C910 H920 0.929 . S
C911 C908 1.399 . S
C911 C913 1.392 . S
C911 H921 0.929 . S
C912 C908 1.383 . S
C912 C909 1.389 . S
C912 H922 0.931 . S
C913 C910 1.380 . S
C913 C911 1.392 . S
C913 H923 0.929 . S
C914 O894 1.266 . S
C914 O895 1.248 . S
C915 Tb851 2.802 . S
C915 O890 1.264 . S
C915 O893 1.256 . S
C915 C908 1.496 . S
H916 C899 0.929 . S
H917 C900 0.929 . S
H918 C901 0.929 . S
H919 C902 0.931 . S
H920 C910 0.929 . S
H921 C911 0.929 . S
H922 C912 0.931 . S
H923 C913 0.929 . S
Tb924 N953 2.617 . S
Tb924 N959 2.572 . S
Tb924 O968 2.465 . S
Tb924 O969 2.387 . S
Tb924 O971 2.428 . S
Tb924 O972 2.308 . S
Tb924 O976 2.349 . S
Tb924 O979 2.393 . S
Tb924 C988 2.802 . S
C925 N926 1.379 . S
C925 C928 1.416 . S
C925 C932 1.424 . S
N926 C925 1.379 . S
N926 C929 1.334 . S
N926 Tb935 2.617 . S
C927 C929 1.390 . S
C927 C930 1.339 . S
C927 H947 0.930 . S
C928 C925 1.416 . S
C928 C930 1.416 . S
C928 C934 1.448 . S
C929 N926 1.334 . S
C929 C927 1.390 . S
C929 H940 0.930 . S
C930 C927 1.339 . S
C930 C928 1.416 . S
C930 H951 0.930 . S
C931 C932 1.413 . S
C931 C933 1.427 . S
C931 C937 1.416 . S
C932 C925 1.424 . S
C932 C931 1.413 . S
C932 N936 1.361 . S
C933 C931 1.427 . S
C933 C934 1.328 . S
C933 H948 0.929 . S
C934 C928 1.448 . S
C934 C933 1.328 . S
C934 H949 0.930 . S
Tb935 N926 2.617 . S
Tb935 N936 2.572 . S
Tb935 O970 2.349 . S
Tb935 O973 2.393 . S
Tb935 O974 2.465 . S
Tb935 O975 2.387 . S
Tb935 O977 2.428 . S
Tb935 O978 2.308 . S
Tb935 C999 2.802 . S
N936 C932 1.361 . S
N936 Tb935 2.572 . S
N936 C938 1.340 . S
C937 C931 1.416 . S
C937 C939 1.332 . S
C937 H945 0.931 . S
C938 N936 1.340 . S
C938 C939 1.407 . S
C938 H944 0.930 . S
C939 C937 1.332 . S
C939 C938 1.407 . S
C939 H941 0.929 . S
H940 C929 0.930 . S
H941 C939 0.929 . S
H942 C957 0.930 . S
H943 C964 0.929 . S
H944 C938 0.930 . S
H945 C937 0.931 . S
H946 C960 0.930 . S
H947 C927 0.930 . S
H948 C933 0.929 . S
H949 C934 0.930 . S
H950 C955 0.930 . S
H951 C930 0.930 . S
H952 C963 0.931 . S
N953 Tb924 2.617 . S
N953 C954 1.379 . S
N953 C957 1.334 . S
C954 N953 1.379 . S
C954 C956 1.416 . S
C954 C962 1.424 . S
C955 H950 0.930 . S
C955 C957 1.390 . S
C955 C958 1.339 . S
C956 C954 1.416 . S
C956 C958 1.416 . S
C956 C989 1.448 . S
C957 H942 0.930 . S
C957 N953 1.334 . S
C957 C955 1.390 . S
C958 C955 1.339 . S
C958 C956 1.416 . S
C958 H965 0.930 . S
N959 Tb924 2.572 . S
N959 C960 1.340 . S
N959 C962 1.361 . S
C960 H946 0.930 . S
C960 N959 1.340 . S
C960 C964 1.407 . S
C961 C962 1.413 . S
C961 C963 1.416 . S
C961 C990 1.427 . S
C962 C954 1.424 . S
C962 N959 1.361 . S
C962 C961 1.413 . S
C963 H952 0.931 . S
C963 C961 1.416 . S
C963 C964 1.332 . S
C964 H943 0.929 . S
C964 C960 1.407 . S
C964 C963 1.332 . S
H965 C958 0.930 . S
H966 C989 0.930 . S
H967 C990 0.929 . S
O968 Tb924 2.465 . S
O968 C988 1.264 . S
O969 Tb924 2.387 . S
O969 C980 1.264 . S
O970 Tb935 2.349 . S
O970 C980 1.243 . S
O971 Tb924 2.428 . S
O971 C988 1.256 . S
O972 Tb924 2.308 . S
O972 C987 1.266 . S
O973 Tb935 2.393 . S
O973 C987 1.248 . S
O974 Tb935 2.465 . S
O974 C999 1.264 . S
O975 Tb935 2.387 . S
O975 C991 1.264 . S
O976 Tb924 2.349 . S
O976 C991 1.243 . S
O977 Tb935 2.428 . S
O977 C999 1.256 . S
O978 Tb935 2.308 . S
O978 C998 1.266 . S
O979 Tb924 2.393 . S
O979 C998 1.248 . S
C980 O969 1.264 . S
C980 O970 1.243 . S
C981 C984 1.399 . S
C981 C986 1.383 . S
C981 C988 1.496 . S
C982 C983 1.399 . S
C982 C986 1.389 . S
C983 C982 1.399 . S
C983 C985 1.380 . S
C983 H1000 0.929 . S
C984 C981 1.399 . S
C984 C985 1.392 . S
C984 H1001 0.929 . S
C985 C983 1.380 . S
C985 C984 1.392 . S
C985 H1002 0.929 . S
C986 C981 1.383 . S
C986 C982 1.389 . S
C986 H1003 0.931 . S
C987 O972 1.266 . S
C987 O973 1.248 . S
C988 Tb924 2.802 . S
C988 O968 1.264 . S
C988 O971 1.256 . S
C988 C981 1.496 . S
C989 C956 1.448 . S
C989 H966 0.930 . S
C989 C990 1.328 . S
C990 C961 1.427 . S
C990 H967 0.929 . S
C990 C989 1.328 . S
C991 O975 1.264 . S
C991 O976 1.243 . S
C992 C995 1.399 . S
C992 C996 1.383 . S
C992 C999 1.496 . S
C993 C994 1.399 . S
C993 C996 1.389 . S
C994 C993 1.399 . S
C994 C997 1.380 . S
C994 H1004 0.929 . S
C995 C992 1.399 . S
C995 C997 1.392 . S
C995 H1005 0.929 . S
C996 C992 1.383 . S
C996 C993 1.389 . S
C996 H1006 0.931 . S
C997 C994 1.380 . S
C997 C995 1.392 . S
C997 H1007 0.929 . S
C998 O978 1.266 . S
C998 O979 1.248 . S
C999 Tb935 2.802 . S
C999 O974 1.264 . S
C999 O977 1.256 . S
C999 C992 1.496 . S
H1000 C983 0.929 . S
H1001 C984 0.929 . S
H1002 C985 0.929 . S
H1003 C986 0.931 . S
H1004 C994 0.929 . S
H1005 C995 0.929 . S
H1006 C996 0.931 . S
H1007 C997 0.929 . S
H1008 C1016 0.950 . S
H1009 C1021 0.950 . S
H1010 C1018 0.950 . S
H1011 C1020 0.950 . S
H1012 C1022 0.950 . S
H1013 C1024 0.950 . S
H1014 C1026 0.950 . S
H1015 C1027 0.950 . S
C1016 H1008 0.950 . S
C1016 C1017 1.386 . S
C1016 C1018 1.391 . S
C1017 C1016 1.386 . S
C1017 C1021 1.393 . S
C1018 H1010 0.950 . S
C1018 C1016 1.391 . S
C1018 C1019 1.400 . S
C1019 C1018 1.400 . S
C1019 C1020 1.398 . S
C1019 C1025 1.491 . S
C1020 H1011 0.950 . S
C1020 C1019 1.398 . S
C1020 C1021 1.391 . S
C1021 H1009 0.950 . S
C1021 C1017 1.393 . S
C1021 C1020 1.391 . S
C1022 H1012 0.950 . S
C1022 C1023 1.386 . S
C1022 C1024 1.391 . S
C1023 C1022 1.386 . S
C1023 C1027 1.393 . S
C1024 H1013 0.950 . S
C1024 C1022 1.391 . S
C1024 C1025 1.400 . S
C1025 C1019 1.491 . S
C1025 C1024 1.400 . S
C1025 C1026 1.398 . S
C1026 H1014 0.950 . S
C1026 C1025 1.398 . S
C1026 C1027 1.391 . S
C1027 H1015 0.950 . S
C1027 C1023 1.393 . S
C1027 C1026 1.391 . S
H1028 C1036 0.950 . S
H1029 C1041 0.950 . S
H1030 C1038 0.950 . S
H1031 C1040 0.950 . S
H1032 C1042 0.950 . S
H1033 C1044 0.950 . S
H1034 C1046 0.950 . S
H1035 C1047 0.950 . S
C1036 H1028 0.950 . S
C1036 C1037 1.386 . S
C1036 C1038 1.391 . S
C1037 C1036 1.386 . S
C1037 C1041 1.393 . S
C1038 H1030 0.950 . S
C1038 C1036 1.391 . S
C1038 C1039 1.400 . S
C1039 C1038 1.400 . S
C1039 C1040 1.398 . S
C1039 C1045 1.491 . S
C1040 H1031 0.950 . S
C1040 C1039 1.398 . S
C1040 C1041 1.391 . S
C1041 H1029 0.950 . S
C1041 C1037 1.393 . S
C1041 C1040 1.391 . S
C1042 H1032 0.950 . S
C1042 C1043 1.386 . S
C1042 C1044 1.391 . S
C1043 C1042 1.386 . S
C1043 C1047 1.393 . S
C1044 H1033 0.950 . S
C1044 C1042 1.391 . S
C1044 C1045 1.400 . S
C1045 C1039 1.491 . S
C1045 C1044 1.400 . S
C1045 C1046 1.398 . S
C1046 H1034 0.950 . S
C1046 C1045 1.398 . S
C1046 C1047 1.391 . S
C1047 H1035 0.950 . S
C1047 C1043 1.393 . S
C1047 C1046 1.391 . S
H1048 C1056 0.950 . S
H1049 C1061 0.950 . S
H1050 C1058 0.950 1_556 S
H1051 C1060 0.950 . S
H1052 C1062 0.950 . S
H1053 C1064 0.950 . S
H1054 C1066 0.950 . S
H1055 C1067 0.950 . S
C1056 H1048 0.950 . S
C1056 C1057 1.386 1_556 S
C1056 C1058 1.391 1_556 S
C1057 C1056 1.386 1_554 S
C1057 C1061 1.393 . S
C1058 H1050 0.950 1_554 S
C1058 C1056 1.391 1_554 S
C1058 C1059 1.400 . S
C1059 C1058 1.400 . S
C1059 C1060 1.398 . S
C1059 C1065 1.491 . S
C1060 H1051 0.950 . S
C1060 C1059 1.398 . S
C1060 C1061 1.391 . S
C1061 H1049 0.950 . S
C1061 C1057 1.393 . S
C1061 C1060 1.391 . S
C1062 H1052 0.950 . S
C1062 C1063 1.386 . S
C1062 C1064 1.391 . S
C1063 C1062 1.386 . S
C1063 C1067 1.393 . S
C1064 H1053 0.950 . S
C1064 C1062 1.391 . S
C1064 C1065 1.400 . S
C1065 C1059 1.491 . S
C1065 C1064 1.400 . S
C1065 C1066 1.398 . S
C1066 H1054 0.950 . S
C1066 C1065 1.398 . S
C1066 C1067 1.391 . S
C1067 H1055 0.950 . S
C1067 C1063 1.393 . S
C1067 C1066 1.391 . S
H1068 C1076 0.950 . S
H1069 C1081 0.950 . S
H1070 C1078 0.950 . S
H1071 C1080 0.950 . S
H1072 C1082 0.950 . S
H1073 C1084 0.950 . S
H1074 C1086 0.950 . S
H1075 C1087 0.950 . S
C1076 H1068 0.950 . S
C1076 C1077 1.386 . S
C1076 C1078 1.391 . S
C1077 C1076 1.386 . S
C1077 C1081 1.393 . S
C1078 H1070 0.950 . S
C1078 C1076 1.391 . S
C1078 C1079 1.400 . S
C1079 C1078 1.400 . S
C1079 C1080 1.398 . S
C1079 C1085 1.491 . S
C1080 H1071 0.950 . S
C1080 C1079 1.398 . S
C1080 C1081 1.391 . S
C1081 H1069 0.950 . S
C1081 C1077 1.393 . S
C1081 C1080 1.391 . S
C1082 H1072 0.950 . S
C1082 C1083 1.386 . S
C1082 C1084 1.391 . S
C1083 C1082 1.386 . S
C1083 C1087 1.393 . S
C1084 H1073 0.950 . S
C1084 C1082 1.391 . S
C1084 C1085 1.400 . S
C1085 C1079 1.491 . S
C1085 C1084 1.400 . S
C1085 C1086 1.398 . S
C1086 H1074 0.950 . S
C1086 C1085 1.398 . S
C1086 C1087 1.391 . S
C1087 H1075 0.950 . S
C1087 C1083 1.393 . S
C1087 C1086 1.391 . S
H1088 C1096 0.950 . S
H1089 C1101 0.950 . S
H1090 C1098 0.950 . S
H1091 C1100 0.950 . S
H1092 C1102 0.950 . S
H1093 C1104 0.950 . S
H1094 C1106 0.950 . S
H1095 C1107 0.950 . S
C1096 H1088 0.950 . S
C1096 C1097 1.386 . S
C1096 C1098 1.391 . S
C1097 C1096 1.386 . S
C1097 C1101 1.393 . S
C1098 H1090 0.950 . S
C1098 C1096 1.391 . S
C1098 C1099 1.400 . S
C1099 C1098 1.400 . S
C1099 C1100 1.398 . S
C1099 C1105 1.491 . S
C1100 H1091 0.950 . S
C1100 C1099 1.398 . S
C1100 C1101 1.391 . S
C1101 H1089 0.950 . S
C1101 C1097 1.393 . S
C1101 C1100 1.391 . S
C1102 H1092 0.950 . S
C1102 C1103 1.386 . S
C1102 C1104 1.391 . S
C1103 C1102 1.386 . S
C1103 C1107 1.393 . S
C1104 H1093 0.950 . S
C1104 C1102 1.391 . S
C1104 C1105 1.400 . S
C1105 C1099 1.491 . S
C1105 C1104 1.400 . S
C1105 C1106 1.398 . S
C1106 H1094 0.950 . S
C1106 C1105 1.398 . S
C1106 C1107 1.391 . S
C1107 H1095 0.950 . S
C1107 C1103 1.393 . S
C1107 C1106 1.391 . S
H1108 C1116 0.950 . S
H1109 C1121 0.950 . S
H1110 C1118 0.950 . S
H1111 C1120 0.950 . S
H1112 C1122 0.950 . S
H1113 C1124 0.950 . S
H1114 C1126 0.950 . S
H1115 C1127 0.950 . S
C1116 H1108 0.950 . S
C1116 C1117 1.386 . S
C1116 C1118 1.391 . S
C1117 C1116 1.386 . S
C1117 C1121 1.393 . S
C1118 H1110 0.950 . S
C1118 C1116 1.391 . S
C1118 C1119 1.400 . S
C1119 C1118 1.400 . S
C1119 C1120 1.398 . S
C1119 C1125 1.491 . S
C1120 H1111 0.950 . S
C1120 C1119 1.398 . S
C1120 C1121 1.391 . S
C1121 H1109 0.950 . S
C1121 C1117 1.393 . S
C1121 C1120 1.391 . S
C1122 H1112 0.950 . S
C1122 C1123 1.386 . S
C1122 C1124 1.391 . S
C1123 C1122 1.386 . S
C1123 C1127 1.393 . S
C1124 H1113 0.950 . S
C1124 C1122 1.391 . S
C1124 C1125 1.400 . S
C1125 C1119 1.491 . S
C1125 C1124 1.400 . S
C1125 C1126 1.398 . S
C1126 H1114 0.950 . S
C1126 C1125 1.398 . S
C1126 C1127 1.391 . S
C1127 H1115 0.950 . S
C1127 C1123 1.393 . S
C1127 C1126 1.391 . S
H1128 C1136 0.950 . S
H1129 C1141 0.950 . S
H1130 C1138 0.950 . S
H1131 C1140 0.950 . S
H1132 C1142 0.950 . S
H1133 C1144 0.950 . S
H1134 C1146 0.950 . S
H1135 C1147 0.950 . S
C1136 H1128 0.950 . S
C1136 C1137 1.386 . S
C1136 C1138 1.391 . S
C1137 C1136 1.386 . S
C1137 C1141 1.393 . S
C1138 H1130 0.950 . S
C1138 C1136 1.391 . S
C1138 C1139 1.400 . S
C1139 C1138 1.400 . S
C1139 C1140 1.398 . S
C1139 C1145 1.491 . S
C1140 H1131 0.950 . S
C1140 C1139 1.398 . S
C1140 C1141 1.391 . S
C1141 H1129 0.950 . S
C1141 C1137 1.393 . S
C1141 C1140 1.391 . S
C1142 H1132 0.950 . S
C1142 C1143 1.386 . S
C1142 C1144 1.391 . S
C1143 C1142 1.386 . S
C1143 C1147 1.393 . S
C1144 H1133 0.950 . S
C1144 C1142 1.391 . S
C1144 C1145 1.400 . S
C1145 C1139 1.491 . S
C1145 C1144 1.400 . S
C1145 C1146 1.398 . S
C1146 H1134 0.950 . S
C1146 C1145 1.398 . S
C1146 C1147 1.391 . S
C1147 H1135 0.950 . S
C1147 C1143 1.393 . S
C1147 C1146 1.391 . S
H1148 C1156 0.950 . S
H1149 C1161 0.950 . S
H1150 C1158 0.950 . S
H1151 C1160 0.950 . S
H1152 C1162 0.950 . S
H1153 C1164 0.950 . S
H1154 C1166 0.950 . S
H1155 C1167 0.950 . S
C1156 H1148 0.950 . S
C1156 C1157 1.386 . S
C1156 C1158 1.391 . S
C1157 C1156 1.386 . S
C1157 C1161 1.393 . S
C1158 H1150 0.950 . S
C1158 C1156 1.391 . S
C1158 C1159 1.400 . S
C1159 C1158 1.400 . S
C1159 C1160 1.398 . S
C1159 C1165 1.491 . S
C1160 H1151 0.950 . S
C1160 C1159 1.398 . S
C1160 C1161 1.391 . S
C1161 H1149 0.950 . S
C1161 C1157 1.393 . S
C1161 C1160 1.391 . S
C1162 H1152 0.950 . S
C1162 C1163 1.386 . S
C1162 C1164 1.391 . S
C1163 C1162 1.386 . S
C1163 C1167 1.393 . S
C1164 H1153 0.950 . S
C1164 C1162 1.391 . S
C1164 C1165 1.400 . S
C1165 C1159 1.491 . S
C1165 C1164 1.400 . S
C1165 C1166 1.398 . S
C1166 H1154 0.950 . S
C1166 C1165 1.398 . S
C1166 C1167 1.391 . S
C1167 H1155 0.950 . S
C1167 C1163 1.393 . S
C1167 C1166 1.391 . S
H1168 C1176 0.950 . S
H1169 C1181 0.950 . S
H1170 C1178 0.950 . S
H1171 C1180 0.950 . S
H1172 C1182 0.950 . S
H1173 C1184 0.950 . S
H1174 C1186 0.950 . S
H1175 C1187 0.950 . S
C1176 H1168 0.950 . S
C1176 C1177 1.386 . S
C1176 C1178 1.391 . S
C1177 C1176 1.386 . S
C1177 C1181 1.393 . S
C1178 H1170 0.950 . S
C1178 C1176 1.391 . S
C1178 C1179 1.400 . S
C1179 C1178 1.400 . S
C1179 C1180 1.398 . S
C1179 C1185 1.491 . S
C1180 H1171 0.950 . S
C1180 C1179 1.398 . S
C1180 C1181 1.391 . S
C1181 H1169 0.950 . S
C1181 C1177 1.393 . S
C1181 C1180 1.391 . S
C1182 H1172 0.950 . S
C1182 C1183 1.386 . S
C1182 C1184 1.391 . S
C1183 C1182 1.386 . S
C1183 C1187 1.393 . S
C1184 H1173 0.950 . S
C1184 C1182 1.391 . S
C1184 C1185 1.400 . S
C1185 C1179 1.491 . S
C1185 C1184 1.400 . S
C1185 C1186 1.398 . S
C1186 H1174 0.950 . S
C1186 C1185 1.398 . S
C1186 C1187 1.391 . S
C1187 H1175 0.950 . S
C1187 C1183 1.393 . S
C1187 C1186 1.391 . S
H1188 C1196 0.950 . S
H1189 C1201 0.950 . S
H1190 C1198 0.950 . S
H1191 C1200 0.950 . S
H1192 C1202 0.950 . S
H1193 C1204 0.950 . S
H1194 C1206 0.950 1_655 S
H1195 C1207 0.950 . S
C1196 H1188 0.950 . S
C1196 C1197 1.386 . S
C1196 C1198 1.391 . S
C1197 C1196 1.386 . S
C1197 C1201 1.393 . S
C1198 H1190 0.950 . S
C1198 C1196 1.391 . S
C1198 C1199 1.400 . S
C1199 C1198 1.400 . S
C1199 C1200 1.398 . S
C1199 C1205 1.491 . S
C1200 H1191 0.950 . S
C1200 C1199 1.398 . S
C1200 C1201 1.391 . S
C1201 H1189 0.950 . S
C1201 C1197 1.393 . S
C1201 C1200 1.391 . S
C1202 H1192 0.950 . S
C1202 C1203 1.386 . S
C1202 C1204 1.391 . S
C1203 C1202 1.386 . S
C1203 C1207 1.393 1_455 S
C1204 H1193 0.950 . S
C1204 C1202 1.391 . S
C1204 C1205 1.400 . S
C1205 C1199 1.491 . S
C1205 C1204 1.400 . S
C1205 C1206 1.398 . S
C1206 H1194 0.950 1_455 S
C1206 C1205 1.398 . S
C1206 C1207 1.391 1_455 S
C1207 H1195 0.950 . S
C1207 C1203 1.393 1_655 S
C1207 C1206 1.391 1_655 S
H1208 C1216 0.950 . S
H1209 C1221 0.950 . S
H1210 C1218 0.950 1_455 S
H1211 C1220 0.950 . S
H1212 C1222 0.950 . S
H1213 C1224 0.950 . S
H1214 C1226 0.950 . S
H1215 C1227 0.950 . S
C1216 H1208 0.950 . S
C1216 C1217 1.386 1_455 S
C1216 C1218 1.391 1_455 S
C1217 C1216 1.386 1_655 S
C1217 C1221 1.393 . S
C1218 H1210 0.950 1_655 S
C1218 C1216 1.391 1_655 S
C1218 C1219 1.400 . S
C1219 C1218 1.400 . S
C1219 C1220 1.398 . S
C1219 C1225 1.491 . S
C1220 H1211 0.950 . S
C1220 C1219 1.398 . S
C1220 C1221 1.391 . S
C1221 H1209 0.950 . S
C1221 C1217 1.393 . S
C1221 C1220 1.391 . S
C1222 H1212 0.950 . S
C1222 C1223 1.386 . S
C1222 C1224 1.391 . S
C1223 C1222 1.386 . S
C1223 C1227 1.393 . S
C1224 H1213 0.950 . S
C1224 C1222 1.391 . S
C1224 C1225 1.400 . S
C1225 C1219 1.491 . S
C1225 C1224 1.400 . S
C1225 C1226 1.398 . S
C1226 H1214 0.950 . S
C1226 C1225 1.398 . S
C1226 C1227 1.391 . S
C1227 H1215 0.950 . S
C1227 C1223 1.393 . S
C1227 C1226 1.391 . S
H1228 C1236 0.950 . S
H1229 C1241 0.950 . S
H1230 C1238 0.950 . S
H1231 C1240 0.950 . S
H1232 C1242 0.950 . S
H1233 C1244 0.950 . S
H1234 C1246 0.950 . S
H1235 C1247 0.950 . S
C1236 H1228 0.950 . S
C1236 C1237 1.386 . S
C1236 C1238 1.391 . S
C1237 C1236 1.386 . S
C1237 C1241 1.393 . S
C1238 H1230 0.950 . S
C1238 C1236 1.391 . S
C1238 C1239 1.400 . S
C1239 C1238 1.400 . S
C1239 C1240 1.398 . S
C1239 C1245 1.491 . S
C1240 H1231 0.950 . S
C1240 C1239 1.398 . S
C1240 C1241 1.391 . S
C1241 H1229 0.950 . S
C1241 C1237 1.393 . S
C1241 C1240 1.391 . S
C1242 H1232 0.950 . S
C1242 C1243 1.386 . S
C1242 C1244 1.391 . S
C1243 C1242 1.386 . S
C1243 C1247 1.393 . S
C1244 H1233 0.950 . S
C1244 C1242 1.391 . S
C1244 C1245 1.400 . S
C1245 C1239 1.491 . S
C1245 C1244 1.400 . S
C1245 C1246 1.398 . S
C1246 H1234 0.950 . S
C1246 C1245 1.398 . S
C1246 C1247 1.391 . S
C1247 H1235 0.950 . S
C1247 C1243 1.393 . S
C1247 C1246 1.391 . S
H1248 C1256 0.950 . S
H1249 C1261 0.950 . S
H1250 C1258 0.950 . S
H1251 C1260 0.950 . S
H1252 C1262 0.950 . S
H1253 C1264 0.950 . S
H1254 C1266 0.950 . S
H1255 C1267 0.950 . S
C1256 H1248 0.950 . S
C1256 C1257 1.386 . S
C1256 C1258 1.391 . S
C1257 C1256 1.386 . S
C1257 C1261 1.393 . S
C1258 H1250 0.950 . S
C1258 C1256 1.391 . S
C1258 C1259 1.400 . S
C1259 C1258 1.400 . S
C1259 C1260 1.398 . S
C1259 C1265 1.491 . S
C1260 H1251 0.950 . S
C1260 C1259 1.398 . S
C1260 C1261 1.391 . S
C1261 H1249 0.950 . S
C1261 C1257 1.393 . S
C1261 C1260 1.391 . S
C1262 H1252 0.950 . S
C1262 C1263 1.386 . S
C1262 C1264 1.391 . S
C1263 C1262 1.386 . S
C1263 C1267 1.393 . S
C1264 H1253 0.950 . S
C1264 C1262 1.391 . S
C1264 C1265 1.400 . S
C1265 C1259 1.491 . S
C1265 C1264 1.400 . S
C1265 C1266 1.398 . S
C1266 H1254 0.950 . S
C1266 C1265 1.398 . S
C1266 C1267 1.391 . S
C1267 H1255 0.950 . S
C1267 C1263 1.393 . S
C1267 C1266 1.391 . S
H1268 C1276 0.950 . S
H1269 C1281 0.950 . S
H1270 C1278 0.950 . S
H1271 C1280 0.950 . S
H1272 C1282 0.950 . S
H1273 C1284 0.950 . S
H1274 C1286 0.950 . S
H1275 C1287 0.949 . S
C1276 H1268 0.950 . S
C1276 C1277 1.386 . S
C1276 C1278 1.391 . S
C1277 C1276 1.386 . S
C1277 C1281 1.393 . S
C1278 H1270 0.950 . S
C1278 C1276 1.391 . S
C1278 C1279 1.400 . S
C1279 C1278 1.400 . S
C1279 C1280 1.398 . S
C1279 C1285 1.491 . S
C1280 H1271 0.950 . S
C1280 C1279 1.398 . S
C1280 C1281 1.391 . S
C1281 H1269 0.950 . S
C1281 C1277 1.393 . S
C1281 C1280 1.391 . S
C1282 H1272 0.950 . S
C1282 C1283 1.386 . S
C1282 C1284 1.391 . S
C1283 C1282 1.386 . S
C1283 C1287 1.393 . S
C1284 H1273 0.950 . S
C1284 C1282 1.391 . S
C1284 C1285 1.400 . S
C1285 C1279 1.491 . S
C1285 C1284 1.400 . S
C1285 C1286 1.398 . S
C1286 H1274 0.950 . S
C1286 C1285 1.398 . S
C1286 C1287 1.391 . S
C1287 H1275 0.949 . S
C1287 C1283 1.393 . S
C1287 C1286 1.391 . S
H1288 C1296 0.950 . S
H1289 C1301 0.950 . S
H1290 C1298 0.950 . S
H1291 C1300 0.950 . S
H1292 C1302 0.950 . S
H1293 C1304 0.950 . S
H1294 C1306 0.950 . S
H1295 C1307 0.950 . S
C1296 H1288 0.950 . S
C1296 C1297 1.386 . S
C1296 C1298 1.391 . S
C1297 C1296 1.386 . S
C1297 C1301 1.393 . S
C1298 H1290 0.950 . S
C1298 C1296 1.391 . S
C1298 C1299 1.400 . S
C1299 C1298 1.400 . S
C1299 C1300 1.398 . S
C1299 C1305 1.491 . S
C1300 H1291 0.950 . S
C1300 C1299 1.398 . S
C1300 C1301 1.391 . S
C1301 H1289 0.950 . S
C1301 C1297 1.393 . S
C1301 C1300 1.391 . S
C1302 H1292 0.950 . S
C1302 C1303 1.386 . S
C1302 C1304 1.391 . S
C1303 C1302 1.386 . S
C1303 C1307 1.393 . S
C1304 H1293 0.950 . S
C1304 C1302 1.391 . S
C1304 C1305 1.400 . S
C1305 C1299 1.491 . S
C1305 C1304 1.400 . S
C1305 C1306 1.398 . S
C1306 H1294 0.950 . S
C1306 C1305 1.398 . S
C1306 C1307 1.391 . S
C1307 H1295 0.950 . S
C1307 C1303 1.393 . S
C1307 C1306 1.391 . S
H1308 C1316 0.950 . S
H1309 C1321 0.950 . S
H1310 C1318 0.950 . S
H1311 C1320 0.950 . S
H1312 C1322 0.950 . S
H1313 C1324 0.950 . S
H1314 C1326 0.950 . S
H1315 C1327 0.950 . S
C1316 H1308 0.950 . S
C1316 C1317 1.386 . S
C1316 C1318 1.391 . S
C1317 C1316 1.386 . S
C1317 C1321 1.393 . S
C1318 H1310 0.950 . S
C1318 C1316 1.391 . S
C1318 C1319 1.400 . S
C1319 C1318 1.400 . S
C1319 C1320 1.398 . S
C1319 C1325 1.491 1_554 S
C1320 H1311 0.950 . S
C1320 C1319 1.398 . S
C1320 C1321 1.391 . S
C1321 H1309 0.950 . S
C1321 C1317 1.393 . S
C1321 C1320 1.391 . S
C1322 H1312 0.950 . S
C1322 C1323 1.386 . S
C1322 C1324 1.391 . S
C1323 C1322 1.386 . S
C1323 C1327 1.393 . S
C1324 H1313 0.950 . S
C1324 C1322 1.391 . S
C1324 C1325 1.400 . S
C1325 C1319 1.491 1_556 S
C1325 C1324 1.400 . S
C1325 C1326 1.398 . S
C1326 H1314 0.950 . S
C1326 C1325 1.398 . S
C1326 C1327 1.391 . S
C1327 H1315 0.950 . S
C1327 C1323 1.393 . S
C1327 C1326 1.391 . S
H1328 C1336 0.950 . S
H1329 C1341 0.950 . S
H1330 C1338 0.950 . S
H1331 C1340 0.950 . S
H1332 C1342 0.950 . S
H1333 C1344 0.950 . S
H1334 C1346 0.950 . S
H1335 C1347 0.950 . S
C1336 H1328 0.950 . S
C1336 C1337 1.386 . S
C1336 C1338 1.391 . S
C1337 C1336 1.386 . S
C1337 C1341 1.393 . S
C1338 H1330 0.950 . S
C1338 C1336 1.391 . S
C1338 C1339 1.400 . S
C1339 C1338 1.400 . S
C1339 C1340 1.398 . S
C1339 C1345 1.491 . S
C1340 H1331 0.950 . S
C1340 C1339 1.398 . S
C1340 C1341 1.391 . S
C1341 H1329 0.950 . S
C1341 C1337 1.393 . S
C1341 C1340 1.391 . S
C1342 H1332 0.950 . S
C1342 C1343 1.386 . S
C1342 C1344 1.391 . S
C1343 C1342 1.386 . S
C1343 C1347 1.393 . S
C1344 H1333 0.950 . S
C1344 C1342 1.391 . S
C1344 C1345 1.400 . S
C1345 C1339 1.491 . S
C1345 C1344 1.400 . S
C1345 C1346 1.398 . S
C1346 H1334 0.950 . S
C1346 C1345 1.398 . S
C1346 C1347 1.391 . S
C1347 H1335 0.950 . S
C1347 C1343 1.393 . S
C1347 C1346 1.391 . S
H1348 C1356 0.950 . S
H1349 C1361 0.950 . S
H1350 C1358 0.950 1_556 S
H1351 C1360 0.950 . S
H1352 C1362 0.950 . S
H1353 C1364 0.950 . S
H1354 C1366 0.950 . S
H1355 C1367 0.950 . S
C1356 H1348 0.950 . S
C1356 C1357 1.386 . S
C1356 C1358 1.391 . S
C1357 C1356 1.386 . S
C1357 C1361 1.393 . S
C1358 H1350 0.950 1_554 S
C1358 C1356 1.391 . S
C1358 C1359 1.400 1_554 S
C1359 C1358 1.400 1_556 S
C1359 C1360 1.398 1_556 S
C1359 C1365 1.491 . S
C1360 H1351 0.950 . S
C1360 C1359 1.398 1_554 S
C1360 C1361 1.391 . S
C1361 H1349 0.950 . S
C1361 C1357 1.393 . S
C1361 C1360 1.391 . S
C1362 H1352 0.950 . S
C1362 C1363 1.386 . S
C1362 C1364 1.391 . S
C1363 C1362 1.386 . S
C1363 C1367 1.393 . S
C1364 H1353 0.950 . S
C1364 C1362 1.391 . S
C1364 C1365 1.400 . S
C1365 C1359 1.491 . S
C1365 C1364 1.400 . S
C1365 C1366 1.398 . S
C1366 H1354 0.950 . S
C1366 C1365 1.398 . S
C1366 C1367 1.391 . S
C1367 H1355 0.950 . S
C1367 C1363 1.393 . S
C1367 C1366 1.391 . S
H1368 C1376 0.950 . S
H1369 C1381 0.950 . S
H1370 C1378 0.950 . S
H1371 C1380 0.950 . S
H1372 C1382 0.950 . S
H1373 C1384 0.950 . S
H1374 C1386 0.950 . S
H1375 C1387 0.950 . S
C1376 H1368 0.950 . S
C1376 C1377 1.386 . S
C1376 C1378 1.391 . S
C1377 C1376 1.386 . S
C1377 C1381 1.393 . S
C1378 H1370 0.950 . S
C1378 C1376 1.391 . S
C1378 C1379 1.400 . S
C1379 C1378 1.400 . S
C1379 C1380 1.398 . S
C1379 C1385 1.491 . S
C1380 H1371 0.950 . S
C1380 C1379 1.398 . S
C1380 C1381 1.391 . S
C1381 H1369 0.950 . S
C1381 C1377 1.393 . S
C1381 C1380 1.391 . S
C1382 H1372 0.950 . S
C1382 C1383 1.386 . S
C1382 C1384 1.391 . S
C1383 C1382 1.386 . S
C1383 C1387 1.393 . S
C1384 H1373 0.950 . S
C1384 C1382 1.391 . S
C1384 C1385 1.400 . S
C1385 C1379 1.491 . S
C1385 C1384 1.400 . S
C1385 C1386 1.398 . S
C1386 H1374 0.950 . S
C1386 C1385 1.398 . S
C1386 C1387 1.391 . S
C1387 H1375 0.950 . S
C1387 C1383 1.393 . S
C1387 C1386 1.391 . S
H1388 C1396 0.950 . S
H1389 C1401 0.950 . S
H1390 C1398 0.950 . S
H1391 C1400 0.950 . S
H1392 C1402 0.950 . S
H1393 C1404 0.950 . S
H1394 C1406 0.950 . S
H1395 C1407 0.950 . S
C1396 H1388 0.950 . S
C1396 C1397 1.386 . S
C1396 C1398 1.391 . S
C1397 C1396 1.386 . S
C1397 C1401 1.393 . S
C1398 H1390 0.950 . S
C1398 C1396 1.391 . S
C1398 C1399 1.400 . S
C1399 C1398 1.400 . S
C1399 C1400 1.398 . S
C1399 C1405 1.491 . S
C1400 H1391 0.950 . S
C1400 C1399 1.398 . S
C1400 C1401 1.391 . S
C1401 H1389 0.950 . S
C1401 C1397 1.393 . S
C1401 C1400 1.391 . S
C1402 H1392 0.950 . S
C1402 C1403 1.386 . S
C1402 C1404 1.391 . S
C1403 C1402 1.386 . S
C1403 C1407 1.393 . S
C1404 H1393 0.950 . S
C1404 C1402 1.391 . S
C1404 C1405 1.400 . S
C1405 C1399 1.491 . S
C1405 C1404 1.400 . S
C1405 C1406 1.398 . S
C1406 H1394 0.950 . S
C1406 C1405 1.398 . S
C1406 C1407 1.391 . S
C1407 H1395 0.950 . S
C1407 C1403 1.393 . S
C1407 C1406 1.391 . S
H1408 C1416 0.950 . S
H1409 C1421 0.950 . S
H1410 C1418 0.950 . S
H1411 C1420 0.950 . S
H1412 C1422 0.950 . S
H1413 C1424 0.950 . S
H1414 C1426 0.950 . S
H1415 C1427 0.950 . S
C1416 H1408 0.950 . S
C1416 C1417 1.386 . S
C1416 C1418 1.391 . S
C1417 C1416 1.386 . S
C1417 C1421 1.393 . S
C1418 H1410 0.950 . S
C1418 C1416 1.391 . S
C1418 C1419 1.400 . S
C1419 C1418 1.400 . S
C1419 C1420 1.398 . S
C1419 C1425 1.491 . S
C1420 H1411 0.950 . S
C1420 C1419 1.398 . S
C1420 C1421 1.391 . S
C1421 H1409 0.950 . S
C1421 C1417 1.393 . S
C1421 C1420 1.391 . S
C1422 H1412 0.950 . S
C1422 C1423 1.386 . S
C1422 C1424 1.391 . S
C1423 C1422 1.386 . S
C1423 C1427 1.393 . S
C1424 H1413 0.950 . S
C1424 C1422 1.391 . S
C1424 C1425 1.400 . S
C1425 C1419 1.491 . S
C1425 C1424 1.400 . S
C1425 C1426 1.398 . S
C1426 H1414 0.950 . S
C1426 C1425 1.398 . S
C1426 C1427 1.391 . S
C1427 H1415 0.950 . S
C1427 C1423 1.393 . S
C1427 C1426 1.391 . S
H1428 C1436 0.950 . S
H1429 C1441 0.950 . S
H1430 C1438 0.950 . S
H1431 C1440 0.950 . S
H1432 C1442 0.950 . S
H1433 C1444 0.950 . S
H1434 C1446 0.950 1_545 S
H1435 C1447 0.952 1_655 S
C1436 H1428 0.950 . S
C1436 C1437 1.386 . S
C1436 C1438 1.391 . S
C1437 C1436 1.386 . S
C1437 C1441 1.393 . S
C1438 H1430 0.950 . S
C1438 C1436 1.391 . S
C1438 C1439 1.400 . S
C1439 C1438 1.400 . S
C1439 C1440 1.398 . S
C1439 C1445 1.491 . S
C1440 H1431 0.950 . S
C1440 C1439 1.398 . S
C1440 C1441 1.391 . S
C1441 H1429 0.950 . S
C1441 C1437 1.393 . S
C1441 C1440 1.391 . S
C1442 H1432 0.950 . S
C1442 C1443 1.386 . S
C1442 C1444 1.391 . S
C1443 C1442 1.386 . S
C1443 C1447 1.393 . S
C1444 H1433 0.950 . S
C1444 C1442 1.391 . S
C1444 C1445 1.400 1_565 S
C1445 C1439 1.491 . S
C1445 C1444 1.400 1_545 S
C1445 C1446 1.398 1_545 S
C1446 H1434 0.950 1_565 S
C1446 C1445 1.398 1_565 S
C1446 C1447 1.391 . S
C1447 H1435 0.952 1_455 S
C1447 C1443 1.393 . S
C1447 C1446 1.391 . S
H1448 C1456 0.950 . S
H1449 C1461 0.950 . S
H1450 C1458 0.950 . S
H1451 C1460 0.950 . S
H1452 C1462 0.950 . S
H1453 C1464 0.950 . S
H1454 C1466 0.950 . S
H1455 C1467 0.950 . S
C1456 H1448 0.950 . S
C1456 C1457 1.386 . S
C1456 C1458 1.391 . S
C1457 C1456 1.386 . S
C1457 C1461 1.393 . S
C1458 H1450 0.950 . S
C1458 C1456 1.391 . S
C1458 C1459 1.400 . S
C1459 C1458 1.400 . S
C1459 C1460 1.398 . S
C1459 C1465 1.491 . S
C1460 H1451 0.950 . S
C1460 C1459 1.398 . S
C1460 C1461 1.391 . S
C1461 H1449 0.950 . S
C1461 C1457 1.393 . S
C1461 C1460 1.391 . S
C1462 H1452 0.950 . S
C1462 C1463 1.386 . S
C1462 C1464 1.391 . S
C1463 C1462 1.386 . S
C1463 C1467 1.393 . S
C1464 H1453 0.950 . S
C1464 C1462 1.391 . S
C1464 C1465 1.400 . S
C1465 C1459 1.491 . S
C1465 C1464 1.400 . S
C1465 C1466 1.398 . S
C1466 H1454 0.950 . S
C1466 C1465 1.398 . S
C1466 C1467 1.391 . S
C1467 H1455 0.950 . S
C1467 C1463 1.393 . S
C1467 C1466 1.391 . S
H1468 C1476 0.950 . S
H1469 C1481 0.950 . S
H1470 C1478 0.950 . S
H1471 C1480 0.950 1_565 S
H1472 C1482 0.950 . S
H1473 C1484 0.950 . S
H1474 C1486 0.950 . S
H1475 C1487 0.950 . S
C1476 H1468 0.950 . S
C1476 C1477 1.386 . S
C1476 C1478 1.391 . S
C1477 C1476 1.386 . S
C1477 C1481 1.393 . S
C1478 H1470 0.950 . S
C1478 C1476 1.391 . S
C1478 C1479 1.402 . S
C1479 C1478 1.402 . S
C1479 C1480 1.399 . S
C1479 C1485 1.489 1_545 S
C1480 H1471 0.950 1_545 S
C1480 C1479 1.399 . S
C1480 C1481 1.391 . S
C1481 H1469 0.950 . S
C1481 C1477 1.393 . S
C1481 C1480 1.391 . S
C1482 H1472 0.950 . S
C1482 C1483 1.386 . S
C1482 C1484 1.391 . S
C1483 C1482 1.386 . S
C1483 C1487 1.393 . S
C1484 H1473 0.950 . S
C1484 C1482 1.391 . S
C1484 C1485 1.400 . S
C1485 C1479 1.489 1_565 S
C1485 C1484 1.400 . S
C1485 C1486 1.398 . S
C1486 H1474 0.950 . S
C1486 C1485 1.398 . S
C1486 C1487 1.391 . S
C1487 H1475 0.950 . S
C1487 C1483 1.393 . S
C1487 C1486 1.391 . S
H1488 C1496 0.950 . S
H1489 C1501 0.950 . S
H1490 C1498 0.950 . S
H1491 C1500 0.950 . S
H1492 C1502 0.950 . S
H1493 C1504 0.950 . S
H1494 C1506 0.950 . S
H1495 C1507 0.950 . S
C1496 H1488 0.950 . S
C1496 C1497 1.386 . S
C1496 C1498 1.391 . S
C1497 C1496 1.386 . S
C1497 C1501 1.393 . S
C1498 H1490 0.950 . S
C1498 C1496 1.391 . S
C1498 C1499 1.400 . S
C1499 C1498 1.400 . S
C1499 C1500 1.398 . S
C1499 C1505 1.491 . S
C1500 H1491 0.950 . S
C1500 C1499 1.398 . S
C1500 C1501 1.391 . S
C1501 H1489 0.950 . S
C1501 C1497 1.393 . S
C1501 C1500 1.391 . S
C1502 H1492 0.950 . S
C1502 C1503 1.386 . S
C1502 C1504 1.391 . S
C1503 C1502 1.386 . S
C1503 C1507 1.393 . S
C1504 H1493 0.950 . S
C1504 C1502 1.391 . S
C1504 C1505 1.400 . S
C1505 C1499 1.491 . S
C1505 C1504 1.400 . S
C1505 C1506 1.398 . S
C1506 H1494 0.950 . S
C1506 C1505 1.398 . S
C1506 C1507 1.391 . S
C1507 H1495 0.950 . S
C1507 C1503 1.393 . S
C1507 C1506 1.391 . S
H1508 C1516 0.950 . S
H1509 C1521 0.950 . S
H1510 C1518 0.950 . S
H1511 C1520 0.950 . S
H1512 C1522 0.950 . S
H1513 C1524 0.950 . S
H1514 C1526 0.950 . S
H1515 C1527 0.950 . S
C1516 H1508 0.950 . S
C1516 C1517 1.386 . S
C1516 C1518 1.391 . S
C1517 C1516 1.386 . S
C1517 C1521 1.393 . S
C1518 H1510 0.950 . S
C1518 C1516 1.391 . S
C1518 C1519 1.400 . S
C1519 C1518 1.400 . S
C1519 C1520 1.398 . S
C1519 C1525 1.491 . S
C1520 H1511 0.950 . S
C1520 C1519 1.398 . S
C1520 C1521 1.391 . S
C1521 H1509 0.950 . S
C1521 C1517 1.393 . S
C1521 C1520 1.391 . S
C1522 H1512 0.950 . S
C1522 C1523 1.386 . S
C1522 C1524 1.391 . S
C1523 C1522 1.386 . S
C1523 C1527 1.393 . S
C1524 H1513 0.950 . S
C1524 C1522 1.391 . S
C1524 C1525 1.400 . S
C1525 C1519 1.491 . S
C1525 C1524 1.400 . S
C1525 C1526 1.398 . S
C1526 H1514 0.950 . S
C1526 C1525 1.398 . S
C1526 C1527 1.391 . S
C1527 H1515 0.950 . S
C1527 C1523 1.393 . S
C1527 C1526 1.391 . S
H1528 C1536 0.950 . S
H1529 C1541 0.950 . S
H1530 C1538 0.950 . S
H1531 C1540 0.950 . S
H1532 C1542 0.950 . S
H1533 C1544 0.950 . S
H1534 C1546 0.950 . S
H1535 C1547 0.950 . S
C1536 H1528 0.950 . S
C1536 C1537 1.386 . S
C1536 C1538 1.391 . S
C1537 C1536 1.386 . S
C1537 C1541 1.393 . S
C1538 H1530 0.950 . S
C1538 C1536 1.391 . S
C1538 C1539 1.400 . S
C1539 C1538 1.400 . S
C1539 C1540 1.398 . S
C1539 C1545 1.491 . S
C1540 H1531 0.950 . S
C1540 C1539 1.398 . S
C1540 C1541 1.391 . S
C1541 H1529 0.950 . S
C1541 C1537 1.393 . S
C1541 C1540 1.391 . S
C1542 H1532 0.950 . S
C1542 C1543 1.386 . S
C1542 C1544 1.391 . S
C1543 C1542 1.386 . S
C1543 C1547 1.393 . S
C1544 H1533 0.950 . S
C1544 C1542 1.391 . S
C1544 C1545 1.400 . S
C1545 C1539 1.491 . S
C1545 C1544 1.400 . S
C1545 C1546 1.398 . S
C1546 H1534 0.950 . S
C1546 C1545 1.398 . S
C1546 C1547 1.391 . S
C1547 H1535 0.950 . S
C1547 C1543 1.393 . S
C1547 C1546 1.391 . S
H1548 C1556 0.950 . S
H1549 C1561 0.950 . S
H1550 C1558 0.950 . S
H1551 C1560 0.950 . S
H1552 C1562 0.950 . S
H1553 C1564 0.950 . S
H1554 C1566 0.950 . S
H1555 C1567 0.950 . S
C1556 H1548 0.950 . S
C1556 C1557 1.386 . S
C1556 C1558 1.391 . S
C1557 C1556 1.386 . S
C1557 C1561 1.393 . S
C1558 H1550 0.950 . S
C1558 C1556 1.391 . S
C1558 C1559 1.400 . S
C1559 C1558 1.400 . S
C1559 C1560 1.398 . S
C1559 C1565 1.491 . S
C1560 H1551 0.950 . S
C1560 C1559 1.398 . S
C1560 C1561 1.391 . S
C1561 H1549 0.950 . S
C1561 C1557 1.393 . S
C1561 C1560 1.391 . S
C1562 H1552 0.950 . S
C1562 C1563 1.386 . S
C1562 C1564 1.391 . S
C1563 C1562 1.386 . S
C1563 C1567 1.393 . S
C1564 H1553 0.950 . S
C1564 C1562 1.391 . S
C1564 C1565 1.400 . S
C1565 C1559 1.491 . S
C1565 C1564 1.400 . S
C1565 C1566 1.398 . S
C1566 H1554 0.950 . S
C1566 C1565 1.398 . S
C1566 C1567 1.391 . S
C1567 H1555 0.950 . S
C1567 C1563 1.393 . S
C1567 C1566 1.391 . S
H1568 C1576 0.950 . S
H1569 C1581 0.950 . S
H1570 C1578 0.950 . S
H1571 C1580 0.950 . S
H1572 C1582 0.950 . S
H1573 C1584 0.950 . S
H1574 C1586 0.950 . S
H1575 C1587 0.950 . S
C1576 H1568 0.950 . S
C1576 C1577 1.386 . S
C1576 C1578 1.391 . S
C1577 C1576 1.386 . S
C1577 C1581 1.393 . S
C1578 H1570 0.950 . S
C1578 C1576 1.391 . S
C1578 C1579 1.400 . S
C1579 C1578 1.400 . S
C1579 C1580 1.398 . S
C1579 C1585 1.491 . S
C1580 H1571 0.950 . S
C1580 C1579 1.398 . S
C1580 C1581 1.391 . S
C1581 H1569 0.950 . S
C1581 C1577 1.393 . S
C1581 C1580 1.391 . S
C1582 H1572 0.950 . S
C1582 C1583 1.386 . S
C1582 C1584 1.391 . S
C1583 C1582 1.386 . S
C1583 C1587 1.393 . S
C1584 H1573 0.950 . S
C1584 C1582 1.391 . S
C1584 C1585 1.400 . S
C1585 C1579 1.491 . S
C1585 C1584 1.400 . S
C1585 C1586 1.398 . S
C1586 H1574 0.950 . S
C1586 C1585 1.398 . S
C1586 C1587 1.391 . S
C1587 H1575 0.950 . S
C1587 C1583 1.393 . S
C1587 C1586 1.391 . S
H1588 C1596 0.950 . S
H1589 C1601 0.950 . S
H1590 C1598 0.950 . S
H1591 C1600 0.950 . S
H1592 C1602 0.950 . S
H1593 C1604 0.950 . S
H1594 C1606 0.950 . S
H1595 C1607 0.950 . S
C1596 H1588 0.950 . S
C1596 C1597 1.386 . S
C1596 C1598 1.391 . S
C1597 C1596 1.386 . S
C1597 C1601 1.393 . S
C1598 H1590 0.950 . S
C1598 C1596 1.391 . S
C1598 C1599 1.400 . S
C1599 C1598 1.400 . S
C1599 C1600 1.398 . S
C1599 C1605 1.491 . S
C1600 H1591 0.950 . S
C1600 C1599 1.398 . S
C1600 C1601 1.391 . S
C1601 H1589 0.950 . S
C1601 C1597 1.393 . S
C1601 C1600 1.391 . S
C1602 H1592 0.950 . S
C1602 C1603 1.386 . S
C1602 C1604 1.391 . S
C1603 C1602 1.386 . S
C1603 C1607 1.393 . S
C1604 H1593 0.950 . S
C1604 C1602 1.391 . S
C1604 C1605 1.400 . S
C1605 C1599 1.491 . S
C1605 C1604 1.400 . S
C1605 C1606 1.398 . S
C1606 H1594 0.950 . S
C1606 C1605 1.398 . S
C1606 C1607 1.391 . S
C1607 H1595 0.950 . S
C1607 C1603 1.393 . S
C1607 C1606 1.391 . S
H1608 C1616 0.950 . S
H1609 C1621 0.950 . S
H1610 C1618 0.950 . S
H1611 C1620 0.950 . S
H1612 C1622 0.950 . S
H1613 C1624 0.950 . S
H1614 C1626 0.950 1_455 S
H1615 C1627 0.950 . S
C1616 H1608 0.950 . S
C1616 C1617 1.386 . S
C1616 C1618 1.391 . S
C1617 C1616 1.386 . S
C1617 C1621 1.393 . S
C1618 H1610 0.950 . S
C1618 C1616 1.391 . S
C1618 C1619 1.400 . S
C1619 C1618 1.400 . S
C1619 C1620 1.398 . S
C1619 C1625 1.491 1_455 S
C1620 H1611 0.950 . S
C1620 C1619 1.398 . S
C1620 C1621 1.391 . S
C1621 H1609 0.950 . S
C1621 C1617 1.393 . S
C1621 C1620 1.391 . S
C1622 H1612 0.950 . S
C1622 C1623 1.386 . S
C1622 C1624 1.391 . S
C1623 C1622 1.386 . S
C1623 C1627 1.393 . S
C1624 H1613 0.950 . S
C1624 C1622 1.391 . S
C1624 C1625 1.400 . S
C1625 C1619 1.491 1_655 S
C1625 C1624 1.400 . S
C1625 C1626 1.398 . S
C1626 H1614 0.950 1_655 S
C1626 C1625 1.398 . S
C1626 C1627 1.391 . S
C1627 H1615 0.950 . S
C1627 C1623 1.393 . S
C1627 C1626 1.391 . S
H1628 C1636 0.950 . S
H1629 C1641 0.950 . S
H1630 C1638 0.950 . S
H1631 C1640 0.950 . S
H1632 C1642 0.950 . S
H1633 C1644 0.950 . S
H1634 C1646 0.950 . S
H1635 C1647 0.950 . S
C1636 H1628 0.950 . S
C1636 C1637 1.386 . S
C1636 C1638 1.391 . S
C1637 C1636 1.386 . S
C1637 C1641 1.393 . S
C1638 H1630 0.950 . S
C1638 C1636 1.391 . S
C1638 C1639 1.400 . S
C1639 C1638 1.400 . S
C1639 C1640 1.398 . S
C1639 C1645 1.491 . S
C1640 H1631 0.950 . S
C1640 C1639 1.398 . S
C1640 C1641 1.391 . S
C1641 H1629 0.950 . S
C1641 C1637 1.393 . S
C1641 C1640 1.391 . S
C1642 H1632 0.950 . S
C1642 C1643 1.386 . S
C1642 C1644 1.391 . S
C1643 C1642 1.386 . S
C1643 C1647 1.393 . S
C1644 H1633 0.950 . S
C1644 C1642 1.391 . S
C1644 C1645 1.400 . S
C1645 C1639 1.491 . S
C1645 C1644 1.400 . S
C1645 C1646 1.398 . S
C1646 H1634 0.950 . S
C1646 C1645 1.398 . S
C1646 C1647 1.391 . S
C1647 H1635 0.950 . S
C1647 C1643 1.393 . S
C1647 C1646 1.391 . S
H1648 C1656 0.950 . S
H1649 C1661 0.950 . S
H1650 C1658 0.950 . S
H1651 C1660 0.950 . S
H1652 C1662 0.950 . S
H1653 C1664 0.950 . S
H1654 C1666 0.950 . S
H1655 C1667 0.950 . S
C1656 H1648 0.950 . S
C1656 C1657 1.386 . S
C1656 C1658 1.391 . S
C1657 C1656 1.386 . S
C1657 C1661 1.393 . S
C1658 H1650 0.950 . S
C1658 C1656 1.391 . S
C1658 C1659 1.400 . S
C1659 C1658 1.400 . S
C1659 C1660 1.398 . S
C1659 C1665 1.491 . S
C1660 H1651 0.950 . S
C1660 C1659 1.398 . S
C1660 C1661 1.391 . S
C1661 H1649 0.950 . S
C1661 C1657 1.393 . S
C1661 C1660 1.391 . S
C1662 H1652 0.950 . S
C1662 C1663 1.386 . S
C1662 C1664 1.391 . S
C1663 C1662 1.386 . S
C1663 C1667 1.393 . S
C1664 H1653 0.950 . S
C1664 C1662 1.391 . S
C1664 C1665 1.400 . S
C1665 C1659 1.491 . S
C1665 C1664 1.400 . S
C1665 C1666 1.398 . S
C1666 H1654 0.950 . S
C1666 C1665 1.398 . S
C1666 C1667 1.391 . S
C1667 H1655 0.950 . S
C1667 C1663 1.393 . S
C1667 C1666 1.391 . S
H1668 C1676 0.950 . S
H1669 C1681 0.950 . S
H1670 C1678 0.950 . S
H1671 C1680 0.950 . S
H1672 C1682 0.950 . S
H1673 C1684 0.950 . S
H1674 C1686 0.950 . S
H1675 C1687 0.950 . S
C1676 H1668 0.950 . S
C1676 C1677 1.386 . S
C1676 C1678 1.391 . S
C1677 C1676 1.386 . S
C1677 C1681 1.393 . S
C1678 H1670 0.950 . S
C1678 C1676 1.391 . S
C1678 C1679 1.400 . S
C1679 C1678 1.400 . S
C1679 C1680 1.398 . S
C1679 C1685 1.491 . S
C1680 H1671 0.950 . S
C1680 C1679 1.398 . S
C1680 C1681 1.391 . S
C1681 H1669 0.950 . S
C1681 C1677 1.393 . S
C1681 C1680 1.391 . S
C1682 H1672 0.950 . S
C1682 C1683 1.386 . S
C1682 C1684 1.391 . S
C1683 C1682 1.386 . S
C1683 C1687 1.393 . S
C1684 H1673 0.950 . S
C1684 C1682 1.391 . S
C1684 C1685 1.400 . S
C1685 C1679 1.491 . S
C1685 C1684 1.400 . S
C1685 C1686 1.398 . S
C1686 H1674 0.950 . S
C1686 C1685 1.398 . S
C1686 C1687 1.391 . S
C1687 H1675 0.950 . S
C1687 C1683 1.393 . S
C1687 C1686 1.391 . S
H1688 C1696 0.950 . S
H1689 C1701 0.950 . S
H1690 C1698 0.950 . S
H1691 C1700 0.950 . S
H1692 C1702 0.950 . S
H1693 C1704 0.950 . S
H1694 C1706 0.950 . S
H1695 C1707 0.950 . S
C1696 H1688 0.950 . S
C1696 C1697 1.386 . S
C1696 C1698 1.391 . S
C1697 C1696 1.386 . S
C1697 C1701 1.393 . S
C1698 H1690 0.950 . S
C1698 C1696 1.391 . S
C1698 C1699 1.400 . S
C1699 C1698 1.400 . S
C1699 C1700 1.398 . S
C1699 C1705 1.491 . S
C1700 H1691 0.950 . S
C1700 C1699 1.398 . S
C1700 C1701 1.391 . S
C1701 H1689 0.950 . S
C1701 C1697 1.393 . S
C1701 C1700 1.391 . S
C1702 H1692 0.950 . S
C1702 C1703 1.386 . S
C1702 C1704 1.391 . S
C1703 C1702 1.386 . S
C1703 C1707 1.393 . S
C1704 H1693 0.950 . S
C1704 C1702 1.391 . S
C1704 C1705 1.400 . S
C1705 C1699 1.491 . S
C1705 C1704 1.400 . S
C1705 C1706 1.398 . S
C1706 H1694 0.950 . S
C1706 C1705 1.398 . S
C1706 C1707 1.391 . S
C1707 H1695 0.950 . S
C1707 C1703 1.393 . S
C1707 C1706 1.391 . S
H1708 C1716 0.950 . S
H1709 C1721 0.950 . S
H1710 C1718 0.950 . S
H1711 C1720 0.950 . S
H1712 C1722 0.950 . S
H1713 C1724 0.950 1_655 S
H1714 C1726 0.950 . S
H1715 C1727 0.950 . S
C1716 H1708 0.950 . S
C1716 C1717 1.386 . S
C1716 C1718 1.391 . S
C1717 C1716 1.386 . S
C1717 C1721 1.393 . S
C1718 H1710 0.950 . S
C1718 C1716 1.391 . S
C1718 C1719 1.400 . S
C1719 C1718 1.400 . S
C1719 C1720 1.398 . S
C1719 C1725 1.491 1_655 S
C1720 H1711 0.950 . S
C1720 C1719 1.398 . S
C1720 C1721 1.391 . S
C1721 H1709 0.950 . S
C1721 C1717 1.393 . S
C1721 C1720 1.391 . S
C1722 H1712 0.950 . S
C1722 C1723 1.386 . S
C1722 C1724 1.391 . S
C1723 C1722 1.386 . S
C1723 C1727 1.393 . S
C1724 H1713 0.950 1_455 S
C1724 C1722 1.391 . S
C1724 C1725 1.400 . S
C1725 C1719 1.491 1_455 S
C1725 C1724 1.400 . S
C1725 C1726 1.398 . S
C1726 H1714 0.950 . S
C1726 C1725 1.398 . S
C1726 C1727 1.391 . S
C1727 H1715 0.950 . S
C1727 C1723 1.393 . S
C1727 C1726 1.391 . S
C1017 C74 1.626 . S
C1023 C991 1.677 . S
C1037 C830 1.681 . S
C1043 C158 1.667 . S
C1057 C235 1.677 . S
C1063 C746 1.636 . S
C1077 C326 1.659 . S
C1083 C907 1.696 . S
C1097 C410 1.660 . S
C1103 C914 1.678 . S
C1117 C487 1.683 . S
C1123 C998 1.649 . S
C1137 C823 1.685 . S
C1143 C578 1.655 . S
C1157 C655 1.660 . S
C1163 C739 1.655 . S
C1177 C319 1.658 . S
C1183 C403 1.661 . S
C1197 C67 1.696 . S
C1203 C494 1.654 . S
C1217 C151 1.676 . S
C1223 C571 1.667 . S
C1237 C662 1.669 . S
C1243 C242 1.670 . S
C1257 C69 1.429 . S
C1263 C735 1.658 . S
C1277 C153 1.418 . S
C1283 C896 1.643 . S
C1297 C980 1.638 . S
C1303 C226 1.618 . S
C1317 C321 1.364 . S
C1323 C819 1.611 . S
C1337 C405 1.379 . S
C1343 C812 1.610 . S
C1357 C728 1.625 . S
C1363 C478 1.620 . S
C1377 C903 1.634 . S
C1383 C573 1.388 . S
C1397 C987 1.689 . S
C1403 C646 1.631 . S
C1417 C56 1.630 . S
C1423 C310 1.595 . S
C1437 C58 1.599 . S
C1443 C140 1.608 . S
C1457 C142 1.617 . S
C1463 C231 1.671 . S
C1477 C308 1.632 . S
C1483 C237 1.410 . S
C1497 C489 1.380 . S
C1503 C392 1.607 . S
C1517 C483 1.644 . S
C1523 C562 1.609 . S
C1537 C560 1.608 . S
C1543 C657 1.376 . S
C1557 C394 1.626 . S
C1563 C651 1.650 . S
C1577 C730 1.547 . S
C1583 C315 1.608 . S
C1597 C476 1.594 . S
C1603 C825 1.365 . S
C1617 C741 1.374 . S
C1623 C567 1.604 . S
C1637 C898 1.638 . S
C1643 C644 1.655 . S
C1657 C399 1.645 . S
C1663 C982 1.600 . S
C1677 C993 1.410 . S
C1683 C147 1.629 . S
C1697 C224 1.635 . S
C1703 C814 1.615 . S
C1717 C909 1.431 . S
C1723 C63 1.650 . S
