# Generated by pormake.
# Topology vma, (5)-cn, num edge types: 1
# Building blocks:
#     Node 0, Type 0, BuildingBlock: XOMCOT_clean_sbu_0, # of connection points: 5
#     Node 1, Type 0, BuildingBlock: XOMCOT_clean_sbu_0, # of connection points: 5
#     Node 2, Type 0, BuildingBlock: XOMCOT_clean_sbu_0, # of connection points: 5
#     Node 3, Type 0, BuildingBlock: XOMCOT_clean_sbu_0, # of connection points: 5
#     Node 4, Type 0, BuildingBlock: XOMCOT_clean_sbu_0, # of connection points: 5
#     Node 5, Type 0, BuildingBlock: XOMCOT_clean_sbu_0, # of connection points: 5
#     Node 6, Type 0, BuildingBlock: XOMCOT_clean_sbu_0, # of connection points: 5
#     Node 7, Type 0, BuildingBlock: XOMCOT_clean_sbu_0, # of connection points: 5
#     Edge 8, Type (0, 0), BuildingBlock: MIFKUJ_clean_linker_0, # of connection points: 2
#     Edge 9, Type (0, 0), BuildingBlock: MIFKUJ_clean_linker_0, # of connection points: 2
#     Edge 10, Type (0, 0), BuildingBlock: MIFKUJ_clean_linker_0, # of connection points: 2
#     Edge 11, Type (0, 0), BuildingBlock: MIFKUJ_clean_linker_0, # of connection points: 2
#     Edge 12, Type (0, 0), BuildingBlock: MIFKUJ_clean_linker_0, # of connection points: 2
#     Edge 13, Type (0, 0), BuildingBlock: MIFKUJ_clean_linker_0, # of connection points: 2
#     Edge 14, Type (0, 0), BuildingBlock: MIFKUJ_clean_linker_0, # of connection points: 2
#     Edge 15, Type (0, 0), BuildingBlock: MIFKUJ_clean_linker_0, # of connection points: 2
#     Edge 16, Type (0, 0), BuildingBlock: MIFKUJ_clean_linker_0, # of connection points: 2
#     Edge 17, Type (0, 0), BuildingBlock: MIFKUJ_clean_linker_0, # of connection points: 2
#     Edge 18, Type (0, 0), BuildingBlock: MIFKUJ_clean_linker_0, # of connection points: 2
#     Edge 19, Type (0, 0), BuildingBlock: MIFKUJ_clean_linker_0, # of connection points: 2
#     Edge 20, Type (0, 0), BuildingBlock: MIFKUJ_clean_linker_0, # of connection points: 2
#     Edge 21, Type (0, 0), BuildingBlock: MIFKUJ_clean_linker_0, # of connection points: 2
#     Edge 22, Type (0, 0), BuildingBlock: MIFKUJ_clean_linker_0, # of connection points: 2
#     Edge 23, Type (0, 0), BuildingBlock: MIFKUJ_clean_linker_0, # of connection points: 2
#     Edge 24, Type (0, 0), BuildingBlock: MIFKUJ_clean_linker_0, # of connection points: 2
#     Edge 25, Type (0, 0), BuildingBlock: MIFKUJ_clean_linker_0, # of connection points: 2
#     Edge 26, Type (0, 0), BuildingBlock: MIFKUJ_clean_linker_0, # of connection points: 2
#     Edge 27, Type (0, 0), BuildingBlock: MIFKUJ_clean_linker_0, # of connection points: 2
# Relax obj value: 0.102
# Max RMSD: 0.195
# Mean RMSD: 0.195
data_MOF--net-vma--node1-XOMCOT_clean_sbu_0--edge1-MIFKUJ_clean_linker_0
_symmetry_space_group_name_H-M    P1
_symmetry_Int_Tables_number       1
_symmetry_cell_setting            triclinic
loop_
_symmetry_equiv_pos_as_xyz
'x, y, z'
_cell_length_a     55.903503
_cell_length_b     32.799023
_cell_length_c     48.340079
_cell_angle_alpha  89.7091
_cell_angle_beta   108.50705
_cell_angle_gamma 90.274404
loop_
_atom_site_label
_atom_site_type_symbol
_atom_site_fract_x
_atom_site_fract_y
_atom_site_fract_z
_atom_type_partial_charge
Co0 Co 0.36994 0.12893 0.37159 0.0
C1 C 0.40984 0.11098 0.34289 0.0
C2 C 0.40501 0.17447 0.34949 0.0
C3 C 0.42502 0.17033 0.33916 0.0
N4 N 0.39475 0.13751 0.35113 0.0
N5 N 0.42809 0.13048 0.33499 0.0
H6 H 0.40918 0.07826 0.3449 0.0
H7 H 0.3994 0.2027 0.35702 0.0
C8 C 0.34829 0.19882 0.33266 0.0
O9 O 0.35057 0.17619 0.31128 0.0
N10 N 0.34637 0.12265 0.39332 0.0
C11 C 0.33549 0.08813 0.39869 0.0
C12 C 0.32021 0.09767 0.41524 0.0
C13 C 0.33779 0.15254 0.40677 0.0
N14 N 0.3216 0.13828 0.42032 0.0
C15 C 0.35238 0.06944 0.32629 0.0
C16 C 0.3023 0.09246 0.30788 0.0
C17 C 0.30954 0.05813 0.29534 0.0
C18 C 0.33498 0.04703 0.30459 0.0
C19 C 0.32052 0.11465 0.3292 0.0
N20 N 0.34537 0.10338 0.33793 0.0
H21 H 0.37114 0.05769 0.33492 0.0
H22 H 0.31448 0.14008 0.33945 0.0
H23 H 0.33845 0.05819 0.39111 0.0
H24 H 0.34317 0.18418 0.40634 0.0
O25 O 0.38685 0.08011 0.38919 0.0
O26 O 0.39648 0.1421 0.40766 0.0
O27 O 0.35562 0.18516 0.35884 0.0
C28 C 0.40101 0.10296 0.40979 0.0
H29 H 0.43691 0.19475 0.33577 0.0
H30 H 0.3092 0.07607 0.42316 0.0
H31 H 0.2827 0.10153 0.30171 0.0
H32 H 0.34118 0.01971 0.29639 0.0
Co33 Co 0.65343 0.12609 0.14143 0.0
C34 C 0.62235 0.1075 0.18044 0.0
C35 C 0.62816 0.17167 0.17594 0.0
C36 C 0.61399 0.16656 0.19423 0.0
N37 N 0.63374 0.13477 0.16753 0.0
N38 N 0.61028 0.12636 0.19706 0.0
H39 H 0.62294 0.07479 0.17786 0.0
H40 H 0.63362 0.20061 0.16896 0.0
C41 C 0.69327 0.19028 0.16157 0.0
O42 O 0.71005 0.16197 0.16239 0.0
N43 N 0.67256 0.1196 0.11398 0.0
C44 C 0.67717 0.08554 0.10093 0.0
C45 C 0.68919 0.09608 0.08102 0.0
C46 C 0.68061 0.15041 0.10027 0.0
N47 N 0.69151 0.137 0.08072 0.0
C48 C 0.68378 0.0586 0.1691 0.0
C49 C 0.70443 0.0925 0.22376 0.0
C50 C 0.70949 0.05157 0.2195 0.0
C51 C 0.69908 0.03492 0.19169 0.0
C52 C 0.68864 0.11522 0.20038 0.0
N53 N 0.67906 0.09851 0.17313 0.0
H54 H 0.67458 0.04371 0.1488 0.0
H55 H 0.68353 0.1458 0.20447 0.0
H56 H 0.67113 0.05511 0.10409 0.0
H57 H 0.67758 0.18227 0.10358 0.0
O58 O 0.63366 0.07875 0.12597 0.0
O59 O 0.62407 0.14113 0.1084 0.0
O60 O 0.66975 0.18137 0.15299 0.0
C61 C 0.61831 0.10235 0.107 0.0
H62 H 0.60635 0.19068 0.20412 0.0
H63 H 0.69541 0.07505 0.06756 0.0
H64 H 0.71172 0.10623 0.24514 0.0
H65 H 0.70228 1.00332 0.18748 0.0
Co66 Co 0.65662 0.88664 0.63595 0.0
C67 C 0.61881 0.90494 0.6666 0.0
C68 C 0.64421 0.85715 0.68775 0.0
C69 C 0.62781 0.86378 0.70324 0.0
N70 N 0.63888 0.8832 0.66484 0.0
N71 N 0.6119 0.89363 0.68989 0.0
H72 H 0.60936 0.9285 0.65137 0.0
H73 H 0.65882 0.83433 0.69299 0.0
C74 C 0.69441 0.81891 0.6529 0.0
O75 O 0.71138 0.8444 0.64923 0.0
N76 N 0.67383 0.88923 0.60644 0.0
C77 C 0.68191 0.92254 0.59546 0.0
C78 C 0.69253 0.91066 0.57475 0.0
C79 C 0.67858 0.85772 0.59091 0.0
N80 N 0.69078 0.86975 0.57209 0.0
C81 C 0.68674 0.95634 0.66007 0.0
C82 C 0.71724 0.92153 0.71107 0.0
C83 C 0.72085 0.96263 0.70537 0.0
C84 C 0.70509 0.97999 0.67964 0.0
C85 C 0.69869 0.89864 0.69056 0.0
N86 N 0.68426 0.91564 0.6647 0.0
H87 H 0.67407 0.97167 0.64153 0.0
H88 H 0.69594 0.86751 0.69599 0.0
H89 H 0.67977 0.95368 0.60112 0.0
H90 H 0.67368 0.82643 0.59382 0.0
O91 O 0.63722 0.93351 0.61846 0.0
O92 O 0.62591 0.86992 0.60543 0.0
O93 O 0.67179 0.83096 0.64879 0.0
C94 C 0.62109 0.90879 0.60143 0.0
H95 H 0.62719 0.84732 0.72248 0.0
H96 H 0.70061 0.9309 0.56234 0.0
H97 H 0.72865 0.9072 0.73112 0.0
H98 H 0.7064 0.01212 0.67497 0.0
Co99 Co 0.37033 0.8797 0.8664 0.0
C100 C 0.40511 0.89348 0.83003 0.0
C101 C 0.40025 0.83059 0.83905 0.0
C102 C 0.41634 0.83289 0.8228 0.0
N103 N 0.39211 0.86834 0.8426 0.0
N104 N 0.41937 0.87236 0.81711 0.0
H105 H 0.40516 0.9263 0.83106 0.0
H106 H 0.39549 0.80298 0.84846 0.0
C107 C 0.3445 0.80862 0.83102 0.0
O108 O 0.34573 0.82896 0.808 0.0
N109 N 0.34958 0.88871 0.8911 0.0
C110 C 0.33894 0.92356 0.89588 0.0
C111 C 0.32505 0.91522 0.91436 0.0
C112 C 0.34231 0.85989 0.90682 0.0
N113 N 0.32718 0.87508 0.92122 0.0
C114 C 0.35137 0.94047 0.82265 0.0
C115 C 0.30123 0.91752 0.8052 0.0
C116 C 0.30828 0.95244 0.79264 0.0
C117 C 0.33377 0.96368 0.80185 0.0
C118 C 0.31965 0.89498 0.8262 0.0
N119 N 0.34459 0.90583 0.83402 0.0
H120 H 0.37022 0.95219 0.83088 0.0
H121 H 0.3137 0.86956 0.83677 0.0
H122 H 0.34089 0.9528 0.88636 0.0
H123 H 0.34762 0.82818 0.90715 0.0
O124 O 0.38937 0.92791 0.88134 0.0
O125 O 0.39878 0.86661 0.90101 0.0
O126 O 0.35396 0.82402 0.85646 0.0
C127 C 0.4043 0.90544 0.90155 0.0
H128 H 0.42594 0.80762 0.81662 0.0
H129 H 0.31433 0.93715 0.92217 0.0
H130 H 0.28167 0.90808 0.79929 0.0
H131 H 0.34008 0.99157 0.79422 0.0
Co132 Co 0.86995 0.62986 0.36848 0.0
C133 C 0.9093 0.61774 0.3383 0.0
C134 C 0.90239 0.68035 0.3452 0.0
C135 C 0.92194 0.67866 0.33392 0.0
N136 N 0.89363 0.64235 0.34715 0.0
N137 N 0.92642 0.63931 0.32965 0.0
H138 H 0.90983 0.58495 0.34041 0.0
H139 H 0.8962 0.70771 0.3532 0.0
C140 C 0.84591 0.70195 0.333 0.0
O141 O 0.84773 0.6821 0.3102 0.0
N142 N 0.84745 0.61959 0.39106 0.0
C143 C 0.83745 0.58389 0.39587 0.0
C144 C 0.822 0.5912 0.41264 0.0
C145 C 0.83822 0.64789 0.40507 0.0
N146 N 0.82244 0.63158 0.41839 0.0
C147 C 0.85245 0.57289 0.32162 0.0
C148 C 0.8018 0.59164 0.30677 0.0
C149 C 0.80916 0.55815 0.29348 0.0
C150 C 0.83491 0.54947 0.30077 0.0
C151 C 0.82011 0.6148 0.32731 0.0
N152 N 0.84518 0.60533 0.33455 0.0
H153 H 0.87165 0.5628 0.32877 0.0
H154 H 0.81398 0.63913 0.33844 0.0
H155 H 0.84094 0.55475 0.38753 0.0
H156 H 0.84267 0.67997 0.40497 0.0
O157 O 0.88813 0.58104 0.3838 0.0
O158 O 0.89702 0.64186 0.4044 0.0
O159 O 0.85432 0.68583 0.35839 0.0
C160 C 0.9023 0.60304 0.40495 0.0
H161 H 0.93257 0.7045 0.33004 0.0
H162 H 0.81137 0.56835 0.42002 0.0
H163 H 0.78205 0.59912 0.30202 0.0
H164 H 0.84142 0.52302 0.29192 0.0
Co165 Co 0.15508 0.62927 0.13701 0.0
C166 C 0.12106 0.61377 0.17445 0.0
C167 C 0.11609 0.67182 0.15277 0.0
C168 C 0.0999 0.66961 0.16889 0.0
N169 N 0.12988 0.63735 0.15663 0.0
N170 N 0.103 0.63321 0.18245 0.0
H171 H 0.1275 0.5835 0.18179 0.0
H172 H 0.11791 0.69721 0.1392 0.0
C173 C 0.17279 0.70168 0.17496 0.0
O174 O 0.16757 0.68102 0.19572 0.0
N175 N 0.17931 0.62353 0.11632 0.0
C176 C 0.19149 0.58975 0.11264 0.0
C177 C 0.20651 0.59967 0.09574 0.0
C178 C 0.18685 0.65333 0.10158 0.0
N179 N 0.20357 0.63973 0.08876 0.0
C180 C 0.17272 0.56454 0.17788 0.0
C181 C 0.22004 0.59561 0.20653 0.0
C182 C 0.21375 0.55657 0.2143 0.0
C183 C 0.18966 0.54128 0.1994 0.0
C184 C 0.20248 0.6178 0.18439 0.0
N185 N 0.17877 0.60278 0.17098 0.0
H186 H 0.15499 0.55067 0.16584 0.0
H187 H 0.20842 0.64633 0.1774 0.0
H188 H 0.18947 0.56001 0.12143 0.0
H189 H 0.18025 0.68441 0.10049 0.0
O190 O 0.13782 0.58109 0.1185 0.0
O191 O 0.12918 0.64345 0.10047 0.0
O192 O 0.16932 0.68537 0.15001 0.0
C193 C 0.12408 0.60451 0.098 0.0
H194 H 0.08663 0.6928 0.17034 0.0
H195 H 0.21831 0.57868 0.08879 0.0
H196 H 0.23851 0.60869 0.21694 0.0
H197 H 0.18413 0.51064 0.20322 0.0
Co198 Co 0.15379 0.38392 0.64015 0.0
C199 C 0.11903 0.40218 0.6749 0.0
C200 C 0.12581 0.33825 0.67175 0.0
C201 C 0.10799 0.34263 0.68543 0.0
N202 N 0.13295 0.3754 0.66517 0.0
N203 N 0.10346 0.38266 0.6872 0.0
H204 H 0.11906 0.43479 0.6714 0.0
H205 H 0.13184 0.30956 0.66544 0.0
C206 C 0.19241 0.31841 0.66116 0.0
O207 O 0.20983 0.34597 0.66225 0.0
N208 N 0.17372 0.39025 0.6134 0.0
C209 C 0.1779 0.42432 0.59971 0.0
C210 C 0.19037 0.41415 0.5803 0.0
C211 C 0.18223 0.35963 0.60024 0.0
N212 N 0.19318 0.37339 0.58071 0.0
C213 C 0.18732 0.44834 0.66825 0.0
C214 C 0.20393 0.41439 0.72347 0.0
C215 C 0.21291 0.45291 0.71875 0.0
C216 C 0.20441 0.46977 0.69078 0.0
C217 C 0.18719 0.39333 0.69992 0.0
N218 N 0.17956 0.40999 0.67246 0.0
H219 H 0.17949 0.46373 0.6478 0.0
H220 H 0.18 0.36399 0.70388 0.0
H221 H 0.17097 0.45439 0.60185 0.0
H222 H 0.1799 0.32767 0.60422 0.0
O223 O 0.13509 0.43206 0.62433 0.0
O224 O 0.12478 0.36988 0.60665 0.0
O225 O 0.16908 0.32815 0.65208 0.0
C226 C 0.11967 0.40883 0.60508 0.0
H227 H 0.09827 0.31805 0.6925 0.0
H228 H 0.19583 0.43503 0.56594 0.0
H229 H 0.20966 0.4009 0.74507 0.0
H230 H 0.21012 0.50021 0.68661 0.0
Co231 Co 0.87068 0.38619 0.87319 0.0
C232 C 0.90587 0.40362 0.83721 0.0
C233 C 0.90826 0.3432 0.85497 0.0
C234 C 0.92494 0.34622 0.83952 0.0
N235 N 0.89565 0.37865 0.85302 0.0
N236 N 0.92347 0.38412 0.82839 0.0
H237 H 0.90097 0.43509 0.83213 0.0
H238 H 0.90549 0.31667 0.86699 0.0
C239 C 0.85161 0.31597 0.83371 0.0
O240 O 0.85569 0.33836 0.81301 0.0
N241 N 0.84666 0.3912 0.89433 0.0
C242 C 0.83617 0.42545 0.90044 0.0
C243 C 0.82051 0.41502 0.91648 0.0
C244 C 0.83731 0.36052 0.90663 0.0
N245 N 0.8212 0.37415 0.92027 0.0
C246 C 0.85346 0.45138 0.83259 0.0
C247 C 0.80512 0.42292 0.8057 0.0
C248 C 0.81225 0.4608 0.79705 0.0
C249 C 0.83678 0.47488 0.811 0.0
C250 C 0.82263 0.40007 0.82745 0.0
N251 N 0.84684 0.41373 0.83989 0.0
H252 H 0.87141 0.4647 0.8444 0.0
H253 H 0.81642 0.37207 0.83489 0.0
H254 H 0.83965 0.4558 0.89372 0.0
H255 H 0.84256 0.3289 0.90609 0.0
O256 O 0.88819 0.43384 0.8922 0.0
O257 O 0.8968 0.37096 0.90926 0.0
O258 O 0.85622 0.33055 0.85935 0.0
C259 C 0.90205 0.40984 0.9122 0.0
H260 H 0.93757 0.32259 0.83706 0.0
H261 H 0.80925 0.43589 0.9244 0.0
H262 H 0.78613 0.41132 0.79607 0.0
H263 H 0.84279 0.50482 0.80625 0.0
H264 H 0.23102 0.39755 0.56049 0.0
H265 H 0.25191 0.35739 0.53253 0.0
H266 H 0.20355 0.25505 0.53394 0.0
H267 H 0.18282 0.29501 0.5623 0.0
H268 H 0.24928 0.22893 0.54456 0.0
H269 H 0.19627 0.31666 0.47179 0.0
H270 H 0.17807 0.38132 0.44839 0.0
H271 H 0.25109 0.4208 0.44725 0.0
H272 H 0.26984 0.35668 0.47116 0.0
H273 H 0.28002 0.1153 0.43468 0.0
H274 H 0.25806 0.15446 0.46189 0.0
H275 H 0.31053 0.25376 0.46979 0.0
H276 H 0.33298 0.21466 0.44311 0.0
H277 H 0.26192 0.2805 0.45357 0.0
H278 H 0.31448 0.19165 0.52718 0.0
H279 H 0.3316 0.12573 0.54928 0.0
H280 H 0.25751 0.08701 0.54697 0.0
H281 H 0.23987 0.15247 0.5244 0.0
C282 C 0.22462 0.36666 0.55458 0.0
C283 C 0.20512 0.34967 0.5636 0.0
C284 C 0.23659 0.34365 0.53852 0.0
C285 C 0.22913 0.30322 0.53062 0.0
C286 C 0.20972 0.28612 0.53969 0.0
C287 C 0.19787 0.30902 0.556 0.0
C288 C 0.242 0.2785 0.51361 0.0
C289 C 0.25165 0.24003 0.52442 0.0
C290 C 0.24567 0.29311 0.48757 0.0
C291 C 0.23451 0.332 0.47358 0.0
C292 C 0.2085 0.3393 0.46685 0.0
C293 C 0.19808 0.37584 0.45345 0.0
C294 C 0.21343 0.4052 0.44642 0.0
C295 C 0.23923 0.39808 0.45277 0.0
C296 C 0.24977 0.36164 0.46626 0.0
C297 C 0.2872 0.14522 0.44243 0.0
C298 C 0.30849 0.16149 0.43655 0.0
C299 C 0.27449 0.16769 0.45799 0.0
C300 C 0.28271 0.20701 0.46813 0.0
C301 C 0.30377 0.22353 0.46216 0.0
C302 C 0.31658 0.20103 0.44672 0.0
C303 C 0.26919 0.23118 0.48461 0.0
C304 C 0.25944 0.26948 0.47369 0.0
C305 C 0.26524 0.2163 0.51038 0.0
C306 C 0.27581 0.17681 0.52379 0.0
C307 C 0.30179 0.16893 0.53111 0.0
C308 C 0.3116 0.13167 0.54377 0.0
C309 C 0.29564 0.10215 0.54944 0.0
C310 C 0.26984 0.10987 0.54251 0.0
C311 C 0.25993 0.14705 0.52978 0.0
H312 H 0.30328 0.07335 0.55928 0.0
H313 H 0.20531 0.43343 0.43599 0.0
H314 H 0.69957 0.11558 0.02995 0.0
H315 H 0.72085 0.15564 1.00197 0.0
H316 H 0.73144 0.25404 0.06352 0.0
H317 H 0.71044 0.21403 0.09187 0.0
H318 H 0.71627 0.28248 0.00786 0.0
H319 H 0.77995 0.1903 0.06478 0.0
H320 H 0.79769 0.12299 0.08304 0.0
H321 H 0.78977 0.08534 0.99562 0.0
H322 H 0.77165 0.15227 0.97679 0.0
H323 H 0.80727 0.39749 0.96667 0.0
H324 H 0.78445 0.35711 0.99282 0.0
H325 H 0.78106 0.25606 0.93488 0.0
H326 H 0.80444 0.29619 0.90908 0.0
H327 H 0.7917 0.22817 0.98769 0.0
H328 H 0.72865 0.31928 0.93021 0.0
H329 H 0.71011 0.38573 0.91091 0.0
H330 H 0.71554 0.4244 0.99743 0.0
H331 H 0.73443 0.35836 0.01731 0.0
C332 C 0.70652 0.14559 0.03775 0.0
C333 C 0.70325 0.16131 0.06338 0.0
C334 C 0.7187 0.16857 0.02162 0.0
C335 C 0.72805 0.20779 0.03075 0.0
C336 C 0.72439 0.22392 0.05596 0.0
C337 C 0.71224 0.20095 0.07213 0.0
C338 C 0.74181 0.23186 0.01418 0.0
C339 C 0.73295 0.27081 1.00376 0.0
C340 C 0.76319 0.2163 0.00806 0.0
C341 C 0.77422 0.17614 0.01936 0.0
C342 C 0.78182 0.16756 0.04943 0.0
C343 C 0.79197 0.1295 0.05989 0.0
C344 C 0.7948 0.09987 0.04049 0.0
C345 C 0.78754 0.10829 0.01061 0.0
C346 C 0.77735 0.1463 1.00004 0.0
C347 C 0.80151 0.36679 0.95936 0.0
C348 C 0.80763 0.35018 0.93569 0.0
C349 C 0.78838 0.34366 0.97431 0.0
C350 C 0.78055 0.30358 0.96563 0.0
C351 C 0.78682 0.28683 0.9421 0.0
C352 C 0.80024 0.30981 0.92736 0.0
C353 C 0.76622 0.27899 0.98136 0.0
C354 C 0.77498 0.2399 0.99166 0.0
C355 C 0.74462 0.29431 0.98718 0.0
C356 C 0.73317 0.334 0.97528 0.0
C357 C 0.72605 0.34206 0.94515 0.0
C358 C 0.71546 0.37964 0.9341 0.0
C359 C 0.71171 0.4093 0.95294 0.0
C360 C 0.71848 0.40141 0.98287 0.0
C361 C 0.72911 0.36389 0.99404 0.0
H362 H 0.70351 0.43838 0.94435 0.0
H363 H 0.80266 0.07042 0.04863 0.0
H364 H 0.72879 0.88964 0.55064 0.0
H365 H 0.74776 0.84691 0.52243 0.0
H366 H 0.69711 0.74877 0.52561 0.0
H367 H 0.6777 0.79169 0.55382 0.0
H368 H 0.74397 0.72106 0.53769 0.0
H369 H 0.68996 0.80337 0.46274 0.0
H370 H 0.67046 0.86541 0.43628 0.0
H371 H 0.74239 0.90506 0.43163 0.0
H372 H 0.76246 0.84367 0.45864 0.0
H373 H 0.78131 0.60459 0.43227 0.0
H374 H 0.75709 0.64214 0.45778 0.0
H375 H 0.8066 0.74561 0.46584 0.0
H376 H 0.83131 0.70826 0.44112 0.0
H377 H 0.75671 0.7672 0.44549 0.0
H378 H 0.81068 0.68598 0.52363 0.0
H379 H 0.82929 0.62252 0.54871 0.0
H380 H 0.75578 0.57959 0.54549 0.0
H381 H 0.73666 0.64254 0.51992 0.0
C382 C 0.72123 0.8593 0.54499 0.0
C383 C 0.70144 0.84446 0.55447 0.0
C384 C 0.73222 0.83476 0.5288 0.0
C385 C 0.72369 0.79471 0.52147 0.0
C386 C 0.70401 0.7796 0.53091 0.0
C387 C 0.69295 0.80422 0.54715 0.0
C388 C 0.73612 0.76838 0.50499 0.0
C389 C 0.74632 0.73085 0.51724 0.0
C390 C 0.73965 0.78137 0.47852 0.0
C391 C 0.72778 0.81902 0.46303 0.0
C392 C 0.7017 0.82555 0.45644 0.0
C393 C 0.69053 0.86058 0.44127 0.0
C394 C 0.70519 0.88921 0.43235 0.0
C395 C 0.73107 0.8829 0.43862 0.0
C396 C 0.74235 0.848 0.45387 0.0
C397 C 0.78737 0.63509 0.43975 0.0
C398 C 0.8084 0.65317 0.43433 0.0
C399 C 0.77338 0.6566 0.45432 0.0
C400 C 0.78002 0.69671 0.46378 0.0
C401 C 0.801 0.71478 0.45859 0.0
C402 C 0.8151 0.69327 0.44426 0.0
C403 C 0.76488 0.72041 0.47848 0.0
C404 C 0.75415 0.75739 0.46584 0.0
C405 C 0.76075 0.70683 0.50445 0.0
C406 C 0.7722 0.66876 0.51951 0.0
C407 C 0.79844 0.66281 0.52795 0.0
C408 C 0.80909 0.62697 0.54232 0.0
C409 C 0.79372 0.59698 0.5486 0.0
C410 C 0.76766 0.6028 0.54054 0.0
C411 C 0.75691 0.63855 0.52611 0.0
H412 H 0.802 0.56929 0.55977 0.0
H413 H 0.69649 0.91622 0.4205 0.0
H414 H 0.34195 0.80267 0.94907 0.0
H415 H 0.32072 0.76348 0.97745 0.0
H416 H 0.26405 0.85685 0.96335 0.0
H417 H 0.28503 0.89619 0.93458 0.0
H418 H 0.27845 0.82977 0.01942 0.0
H419 H 0.25134 0.76967 0.92456 0.0
H420 H 0.25677 0.73901 0.88057 0.0
H421 H 0.29823 0.63988 0.93192 0.0
H422 H 0.29335 0.67037 0.97639 0.0
H423 H 0.18812 0.71197 0.06073 0.0
H424 H 0.20917 0.75202 0.03259 0.0
H425 H 0.26738 0.66105 0.04811 0.0
H426 H 0.2467 0.62096 0.07674 0.0
H427 H 0.25186 0.68725 0.99119 0.0
H428 H 0.27749 0.74745 0.08621 0.0
H429 H 0.27007 0.77761 0.12928 0.0
H430 H 0.23049 0.8774 0.07701 0.0
H431 H 0.23695 0.84709 0.03331 0.0
C432 C 0.32488 0.81489 0.95173 0.0
C433 C 0.31517 0.85263 0.93916 0.0
C434 C 0.31277 0.7924 0.96811 0.0
C435 C 0.29057 0.80689 0.97229 0.0
C436 C 0.28115 0.84498 0.96046 0.0
C437 C 0.29325 0.86753 0.94402 0.0
C438 C 0.27701 0.78194 0.98855 0.0
C439 C 0.27235 0.7988 0.01301 0.0
C440 C 0.2694 0.74122 0.98057 0.0
C441 C 0.27218 0.72252 0.95386 0.0
C442 C 0.26178 0.74149 0.92652 0.0
C443 C 0.26474 0.7241 0.90148 0.0
C444 C 0.2779 0.68753 0.90343 0.0
C445 C 0.28807 0.66823 0.93044 0.0
C446 C 0.28519 0.68554 0.95558 0.0
C447 C 0.2055 0.70047 0.05849 0.0
C448 C 0.2157 0.66311 0.07136 0.0
C449 C 0.21749 0.72345 0.04221 0.0
C450 C 0.24002 0.7098 0.03842 0.0
C451 C 0.25 0.67222 0.05067 0.0
C452 C 0.23806 0.64923 0.06704 0.0
C453 C 0.25336 0.73503 0.02209 0.0
C454 C 0.25798 0.71821 0.99761 0.0
C455 C 0.26083 0.77583 0.03 0.0
C456 C 0.2575 0.79475 0.05639 0.0
C457 C 0.26705 0.77568 0.08382 0.0
C458 C 0.26302 0.79282 0.10838 0.0
C459 C 0.24984 0.82944 0.10593 0.0
C460 C 0.24068 0.84901 0.07888 0.0
C461 C 0.24448 0.83182 0.05419 0.0
H462 H 0.24674 0.84267 0.12497 0.0
H463 H 0.28016 0.67406 0.88402 0.0
H464 H 0.61029 0.14967 0.25019 0.0
H465 H 0.58027 0.12959 0.27504 0.0
H466 H 0.54538 0.04487 0.20584 0.0
H467 H 0.57574 0.06532 0.18077 0.0
H468 H 0.5109 0.0949 0.21708 0.0
H469 H 0.57574 0.00875 0.27353 0.0
H470 H 0.61874 0.98851 0.30292 0.0
H471 H 0.61813 0.07669 0.36803 0.0
H472 H 0.57527 0.09796 0.33884 0.0
H473 H 0.42412 0.06754 0.29762 0.0
H474 H 0.45609 0.04647 0.27535 0.0
H475 H 0.50821 0.13454 0.32806 0.0
H476 H 0.47651 0.15534 0.35013 0.0
H477 H 0.53214 0.06335 0.32261 0.0
H478 H 0.47225 0.1588 0.2602 0.0
H479 H 0.42972 0.18113 0.23059 0.0
H480 H 0.42176 0.07511 0.1766 0.0
H481 H 0.46416 0.05188 0.20619 0.0
C482 C 0.59653 0.12617 0.24059 0.0
C483 C 0.59531 0.10905 0.21359 0.0
C484 C 0.57945 0.11451 0.25487 0.0
C485 C 0.56061 0.08547 0.24247 0.0
C486 C 0.55983 0.06718 0.21592 0.0
C487 C 0.57724 0.07859 0.20172 0.0
C488 C 0.54055 0.07773 0.25614 0.0
C489 C 0.51546 0.08677 0.23995 0.0
C490 C 0.54646 0.06776 0.28612 0.0
C491 C 0.57227 0.05509 0.30387 0.0
C492 C 0.58483 0.02406 0.29401 0.0
C493 C 0.60918 0.01236 0.31066 0.0
C494 C 0.62117 0.03133 0.3373 0.0
C495 C 0.60881 0.06201 0.34738 0.0
C496 C 0.58446 0.07385 0.33081 0.0
C497 C 0.44261 0.08162 0.30482 0.0
C498 C 0.44777 0.11338 0.32531 0.0
C499 C 0.4608 0.06978 0.29202 0.0
C500 C 0.48449 0.08927 0.29978 0.0
C501 C 0.49011 0.11911 0.32163 0.0
C502 C 0.47192 0.1312 0.33409 0.0
C503 C 0.50279 0.08171 0.28372 0.0
C504 C 0.52753 0.0701 0.29952 0.0
C505 C 0.49661 0.08936 0.2534 0.0
C506 C 0.47118 0.10333 0.23562 0.0
C507 C 0.46133 0.14008 0.24217 0.0
C508 C 0.43727 0.15293 0.22537 0.0
C509 C 0.423 0.12948 0.2018 0.0
C510 C 0.4328 0.09318 0.19492 0.0
C511 C 0.45684 0.08016 0.21169 0.0
H512 H 0.40439 0.13948 0.18881 0.0
H513 H 0.64002 0.02222 0.35016 0.0
H514 H 0.5626 0.88163 0.66149 0.0
H515 H 0.52777 0.89292 0.68117 0.0
H516 H 0.57978 0.94872 0.75764 0.0
H517 H 0.61461 0.93488 0.73847 0.0
H518 H 0.55496 0.89889 0.77548 0.0
H519 H 0.52908 1.00151 0.70318 0.0
H520 H 0.51707 0.03517 0.65503 0.0
H521 H 0.45481 0.95233 0.62309 0.0
H522 H 0.4667 0.91759 0.67086 0.0
H523 H 0.4531 0.93444 0.83268 0.0
H524 H 0.4846 0.95337 0.80886 0.0
H525 H 0.45346 0.86315 0.74243 0.0
H526 H 0.42253 0.84377 0.7665 0.0
H527 H 0.46755 0.94163 0.72151 0.0
H528 H 0.50044 0.83462 0.79467 0.0
H529 H 0.51176 0.80712 0.84476 0.0
H530 H 0.56122 0.90901 0.8765 0.0
H531 H 0.54995 0.93734 0.82659 0.0
C532 C 0.56628 0.89723 0.68212 0.0
C533 C 0.59105 0.90779 0.69846 0.0
C534 C 0.5464 0.90389 0.69338 0.0
C535 C 0.5509 0.92208 0.72093 0.0
C536 C 0.57565 0.93451 0.73645 0.0
C537 C 0.59553 0.92697 0.72547 0.0
C538 C 0.53059 0.92394 0.73494 0.0
C539 C 0.53606 0.90929 0.76371 0.0
C540 C 0.50564 0.93688 0.71979 0.0
C541 C 0.4989 0.95676 0.69064 0.0
C542 C 0.51298 0.99016 0.68582 0.0
C543 C 0.50613 0.00956 0.65862 0.0
C544 C 0.48511 0.99604 0.63608 0.0
C545 C 0.47099 0.96293 0.64063 0.0
C546 C 0.4778 0.94333 0.66776 0.0
C547 C 0.45276 0.91938 0.81268 0.0
C548 C 0.43554 0.88761 0.8014 0.0
C549 C 0.47072 0.93006 0.79915 0.0
C550 C 0.47135 0.90961 0.77388 0.0
C551 C 0.45324 0.87944 0.76179 0.0
C552 C 0.4357 0.86825 0.7756 0.0
C553 C 0.49219 0.91646 0.76148 0.0
C554 C 0.48672 0.93228 0.73313 0.0
C555 C 0.51726 0.90548 0.77709 0.0
C556 C 0.52418 0.88828 0.807 0.0
C557 C 0.51359 0.8513 0.81237 0.0
C558 C 0.52002 0.83553 0.84071 0.0
C559 C 0.53719 0.85633 0.86379 0.0
C560 C 0.54794 0.89294 0.85859 0.0
C561 C 0.54155 0.90885 0.83029 0.0
H562 H 0.5422 0.84401 0.88568 0.0
H563 H 0.47987 0.01104 0.61501 0.0
H564 H 0.09549 0.67573 0.2261 0.0
H565 H 0.06818 0.65715 0.25496 0.0
H566 H 0.05156 0.54192 0.21017 0.0
H567 H 0.07954 0.56048 0.18147 0.0
H568 H 1.00811 0.58893 0.21055 0.0
H569 H 0.08313 0.53643 0.27808 0.0
H570 H 0.12801 0.5364 0.3079 0.0
H571 H 0.11579 0.64033 0.3553 0.0
H572 H 0.07091 0.64142 0.32547 0.0
H573 H 0.92638 0.5707 0.29827 0.0
H574 H 0.95887 0.55036 0.2767 0.0
H575 H 1.0038 0.6548 0.31612 0.0
H576 H 0.9721 0.67418 0.33823 0.0
H577 H 0.03357 0.59217 0.31861 0.0
H578 H 0.96314 0.65496 0.24422 0.0
H579 H 0.9187 0.66024 0.21323 0.0
H580 H 0.9228 0.54144 0.1781 0.0
H581 H 0.96722 0.5353 0.20919 0.0
C582 C 0.08635 0.64615 0.22284 0.0
C583 C 0.08958 0.61947 0.20171 0.0
C584 C 0.07083 0.63549 0.23934 0.0
C585 C 0.05791 0.59808 0.23481 0.0
C586 C 0.06147 0.57085 0.21409 0.0
C587 C 0.0775 0.58128 0.19789 0.0
C588 C 0.03939 0.58959 0.25041 0.0
C589 C 0.01366 0.58839 0.23419 0.0
C590 C 0.04665 0.58969 0.28123 0.0
C591 C 0.07363 0.58909 0.29941 0.0
C592 C 0.09004 0.55946 0.29472 0.0
C593 C 0.11548 0.55923 0.31166 0.0
C594 C 0.12475 0.58836 0.33347 0.0
C595 C 0.10858 0.61776 0.33841 0.0
C596 C 0.08312 0.61816 0.32152 0.0
C597 C 0.94343 0.58876 0.30272 0.0
C598 C 0.94645 0.62442 0.31956 0.0
C599 C 0.9619 0.57733 0.29023 0.0
C600 C 0.98367 0.6014 0.29439 0.0
C601 C 0.9872 0.63574 0.31245 0.0
C602 C 0.96887 0.64709 0.32485 0.0
C603 C 1.00222 0.59307 0.27876 0.0
C604 C 0.02798 0.59131 0.29498 0.0
C605 C 0.995 0.59076 0.24792 0.0
C606 C 0.96834 0.59443 0.22929 0.0
C607 C 0.95449 0.62984 0.23005 0.0
C608 C 0.92933 0.63301 0.21245 0.0
C609 C 0.9179 0.60113 0.19379 0.0
C610 C 0.93165 0.56606 0.19263 0.0
C611 C 0.95681 0.56271 0.21023 0.0
H612 H 0.89842 0.60364 0.18017 0.0
H613 H 0.14446 0.58814 0.34655 0.0
H614 H 0.10477 0.4512 0.71923 0.0
H615 H 0.07239 0.47259 0.74094 0.0
H616 H 0.02546 0.37132 0.69909 0.0
H617 H 0.05714 0.35085 0.67724 0.0
H618 H 0.99697 0.43543 0.69742 0.0
H619 H 0.06607 0.36736 0.77103 0.0
H620 H 0.11028 0.36029 0.80244 0.0
H621 H 0.10689 0.47752 0.84017 0.0
H622 H 0.06272 0.48546 0.80868 0.0
H623 H 0.932 0.3452 0.78383 0.0
H624 H 0.96062 0.36595 0.75716 0.0
H625 H 0.97769 0.47707 0.80703 0.0
H626 H 0.94845 0.45631 0.83363 0.0
H627 H 0.02109 0.43119 0.80539 0.0
H628 H 0.94697 0.48794 0.73884 0.0
H629 H 0.90229 0.48979 0.70836 0.0
H630 H 0.91458 0.38967 0.65766 0.0
H631 H 0.95924 0.38675 0.68811 0.0
C632 C 0.08728 0.4342 0.71432 0.0
C633 C 0.08361 0.39905 0.69692 0.0
C634 C 0.06889 0.44619 0.72685 0.0
C635 C 0.04655 0.42324 0.722 0.0
C636 C 0.04244 0.38956 0.70328 0.0
C637 C 0.0607 0.37763 0.69097 0.0
C638 C 0.02792 0.43171 0.73754 0.0
C639 C 1.00228 0.43474 0.72104 0.0
C640 C 0.03477 0.43202 0.7684 0.0
C641 C 0.06127 0.42726 0.78725 0.0
C642 C 0.07484 0.39176 0.78586 0.0
C643 C 0.09986 0.38757 0.8037 0.0
C644 C 0.11142 0.41851 0.82321 0.0
C645 C 0.09794 0.45364 0.82498 0.0
C646 C 0.07292 0.45801 0.80715 0.0
C647 C 0.94157 0.37433 0.78877 0.0
C648 C 0.93804 0.3992 0.81069 0.0
C649 C 0.95786 0.38624 0.7735 0.0
C650 C 0.97123 0.42315 0.77999 0.0
C651 C 0.96746 0.44856 0.80159 0.0
C652 C 0.9507 0.43688 0.81659 0.0
C653 C 0.99017 0.4331 0.7652 0.0
C654 C 0.01583 0.43336 0.78181 0.0
C655 C 0.98333 0.43532 0.73443 0.0
C656 C 0.95648 0.43706 0.71586 0.0
C657 C 0.94012 0.46613 0.72131 0.0
C658 C 0.91479 0.4674 0.70402 0.0
C659 C 0.9056 0.43985 0.6811 0.0
C660 C 0.92173 0.41101 0.67541 0.0
C661 C 0.94707 0.40959 0.69265 0.0
H662 H 0.88598 0.44087 0.66774 0.0
H663 H 0.13079 0.4152 0.83701 0.0
H664 H 0.19752 0.74593 0.14397 0.0
H665 H 0.21745 0.81314 0.15629 0.0
H666 H 0.19244 0.81812 0.23193 0.0
H667 H 0.1727 0.75116 0.21995 0.0
H668 H 0.18588 0.89199 0.20084 0.0
H669 H 0.24988 0.7886 0.2388 0.0
H670 H 0.27604 0.72997 0.23494 0.0
H671 H 0.306 0.79857 0.17748 0.0
H672 H 0.27945 0.85724 0.18032 0.0
H673 H 0.26654 0.02668 0.30215 0.0
H674 H 0.23972 0.97302 0.27329 0.0
H675 H 0.28336 0.97463 0.2139 0.0
H676 H 0.31078 0.02742 0.24343 0.0
H677 H 0.27909 0.90107 0.22856 0.0
H678 H 0.21944 0.00695 0.19375 0.0
H679 H 0.19351 0.06649 0.19635 0.0
H680 H 0.15563 0.9962 0.24515 0.0
H681 H 0.18158 0.93635 0.24322 0.0
C682 C 0.1961 0.76153 0.16309 0.0
C683 C 0.18369 0.74313 0.18112 0.0
C684 C 0.20751 0.79987 0.1701 0.0
C685 C 0.20648 0.82051 0.19509 0.0
C686 C 0.1934 0.80275 0.21252 0.0
C687 C 0.18227 0.76435 0.20574 0.0
C688 C 0.22008 0.8596 0.20421 0.0
C689 C 0.20627 0.8941 0.20699 0.0
C690 C 0.24659 0.86257 0.21131 0.0
C691 C 0.26237 0.82711 0.20942 0.0
C692 C 0.26177 0.791 0.22502 0.0
C693 C 0.2767 0.75776 0.22304 0.0
C694 C 0.29258 0.76046 0.20586 0.0
C695 C 0.29361 0.79645 0.19069 0.0
C696 C 0.27858 0.82967 0.1924 0.0
C697 C 0.26998 0.01632 0.28251 0.0
C698 C 0.2907 0.03119 0.27499 0.0
C699 C 0.2546 0.98564 0.26594 0.0
C700 C 0.25931 0.96984 0.24117 0.0
C701 C 0.27933 0.98616 0.23291 0.0
C702 C 0.29494 0.01639 0.24972 0.0
C703 C 0.24499 0.93374 0.22574 0.0
C704 C 0.25865 0.89958 0.22185 0.0
C705 C 0.21832 0.9313 0.2173 0.0
C706 C 0.20261 0.96721 0.2185 0.0
C707 C 0.20571 1.00425 0.20522 0.0
C708 C 0.19098 0.03805 0.20655 0.0
C709 C 0.17297 0.03515 0.22095 0.0
C710 C 0.1696 0.9984 0.23401 0.0
C711 C 0.18429 0.96451 0.23277 0.0
H712 H 0.16158 0.06136 0.22195 0.0
H713 H 0.30416 0.73473 0.20439 0.0
H714 H 0.69686 0.97651 0.23445 0.0
H715 H 0.72424 0.92731 0.26735 0.0
H716 H 0.78396 0.01696 0.29207 0.0
H717 H 0.75647 0.06638 0.2584 0.0
H718 H 0.80088 0.95077 0.2763 0.0
H719 H 0.75787 0.97756 0.34285 0.0
H720 H 0.72291 0.98964 0.36254 0.0
H721 H 0.69513 0.86831 0.33873 0.0
H722 H 0.72963 0.85566 0.3184 0.0
H723 H 0.84019 0.75377 0.37503 0.0
H724 H 0.82202 0.82247 0.36786 0.0
H725 H 0.80781 0.81176 0.27511 0.0
H726 H 0.82623 0.74392 0.28207 0.0
H727 H 0.77658 0.85011 0.33961 0.0
H728 H 0.81473 0.89957 0.24486 0.0
H729 H 0.85322 0.89047 0.23108 0.0
H730 H 0.89604 0.867 0.32053 0.0
H731 H 0.85792 0.87657 0.33495 0.0
C732 C 0.71569 0.98599 0.24731 0.0
C733 C 0.72466 0.02509 0.24364 0.0
C734 C 0.73128 0.95794 0.26638 0.0
C735 C 0.7562 0.96835 0.2824 0.0
C736 C 0.76479 0.00822 0.28 0.0
C737 C 0.74907 0.03649 0.2609 0.0
C738 C 0.77386 0.93583 0.29819 0.0
C739 C 0.7957 0.92909 0.29045 0.0
C740 C 0.76763 0.90806 0.31743 0.0
C741 C 0.74636 0.91573 0.32895 0.0
C742 C 0.74417 0.95356 0.34152 0.0
C743 C 0.72445 0.96048 0.35286 0.0
C744 C 0.70681 0.92977 0.35188 0.0
C745 C 0.70882 0.89207 0.33949 0.0
C746 C 0.72848 0.88499 0.32808 0.0
C747 C 0.83331 0.76618 0.35313 0.0
C748 C 0.83483 0.74341 0.32913 0.0
C749 C 0.82289 0.80542 0.34908 0.0
C750 C 0.81393 0.82263 0.321 0.0
C751 C 0.81513 0.79962 0.29706 0.0
C752 C 0.82556 0.76062 0.30107 0.0
C753 C 0.80253 0.86403 0.31616 0.0
C754 C 0.78195 0.87231 0.32595 0.0
C755 C 0.81028 0.89382 0.29946 0.0
C756 C 0.83339 0.8886 0.29096 0.0
C757 C 0.83238 0.89275 0.26163 0.0
C758 C 0.85414 0.88744 0.2537 0.0
C759 C 0.87705 0.87809 0.2749 0.0
C760 C 0.87827 0.87413 0.30411 0.0
C761 C 0.85659 0.87945 0.31217 0.0
H762 H 0.89386 0.87396 0.26871 0.0
H763 H 0.69159 0.93516 0.36074 0.0
H764 H 0.75383 0.01473 0.69274 0.0
H765 H 0.78111 0.06486 0.72474 0.0
H766 H 0.75893 0.01972 0.79704 0.0
H767 H 0.73091 0.96968 0.76459 0.0
H768 H 0.75518 0.10091 0.79333 0.0
H769 H 0.81953 0.00672 0.79674 0.0
H770 H 0.84394 0.95744 0.77831 0.0
H771 H 0.8635 0.05174 0.72734 0.0
H772 H 0.83891 0.10151 0.74511 0.0
H773 H 0.83753 0.2623 0.86961 0.0
H774 H 0.82049 0.19324 0.85774 0.0
H775 H 0.82593 0.20607 0.77108 0.0
H776 H 0.84314 0.27454 0.78277 0.0
H777 H 0.84255 0.13168 0.79479 0.0
H778 H 0.76994 0.22039 0.78482 0.0
H779 H 0.7461 0.26931 0.80443 0.0
H780 H 0.74359 0.18287 0.87048 0.0
H781 H 0.76766 0.13358 0.8514 0.0
C782 C 0.75499 0.01511 0.71554 0.0
C783 C 0.74016 0.98845 0.72615 0.0
C784 C 0.77077 0.04357 0.73391 0.0
C785 C 0.77229 0.04588 0.76341 0.0
C786 C 0.75814 0.01837 0.77438 0.0
C787 C 0.7423 0.98964 0.75591 0.0
C788 C 0.78709 0.07939 0.78167 0.0
C789 C 0.77453 0.10704 0.79433 0.0
C790 C 0.8123 0.08761 0.78293 0.0
C791 C 0.82726 0.05786 0.77221 0.0
C792 C 0.8289 0.01693 0.78146 0.0
C793 C 0.84279 0.9889 0.77115 0.0
C794 C 0.85524 1.00145 0.75165 0.0
C795 C 0.85386 0.04207 0.74247 0.0
C796 C 0.83998 0.07023 0.7527 0.0
C797 C 0.83519 0.25032 0.84807 0.0
C798 C 0.8416 0.27402 0.82708 0.0
C799 C 0.82542 0.21088 0.84133 0.0
C800 C 0.82184 0.19458 0.81348 0.0
C801 C 0.82863 0.21796 0.79274 0.0
C802 C 0.83833 0.25726 0.79942 0.0
C803 C 0.81023 0.1538 0.80514 0.0
C804 C 0.82344 0.12487 0.79442 0.0
C805 C 0.78573 0.14426 0.80589 0.0
C806 C 0.7708 0.17352 0.81689 0.0
C807 C 0.76439 0.21192 0.8036 0.0
C808 C 0.75084 0.23969 0.81461 0.0
C809 C 0.7434 0.22925 0.83875 0.0
C810 C 0.7494 0.19093 0.85182 0.0
C811 C 0.76297 0.16306 0.84091 0.0
H812 H 0.73295 0.25082 0.84727 0.0
H813 H 0.86599 0.97969 0.74369 0.0
H814 H 0.1652 0.25987 0.67866 0.0
H815 H 0.17865 0.19073 0.69586 0.0
H816 H 0.24974 0.21152 0.68084 0.0
H817 H 0.23661 0.28093 0.66404 0.0
H818 H 0.22517 0.13261 0.66078 0.0
H819 H 0.25004 0.22134 0.74576 0.0
H820 H 0.24139 0.27182 0.77899 0.0
H821 H 0.1882 0.18971 0.79727 0.0
H822 H 0.19628 0.13897 0.76377 0.0
H823 H 0.3133 0.99361 0.74543 0.0
H824 H 0.28706 0.04842 0.71832 0.0
H825 H 0.23343 0.02655 0.7643 0.0
H826 H 0.26083 0.97351 0.79334 0.0
H827 H 0.24208 0.10195 0.76585 0.0
H828 H 0.2208 0.00872 0.68724 0.0
H829 H 0.22714 0.95766 0.653 0.0
H830 H 0.2695 0.04475 0.62073 0.0
H831 H 0.26379 0.09617 0.6551 0.0
C832 C 0.1836 0.24963 0.67877 0.0
C833 C 0.19989 0.27591 0.67011 0.0
C834 C 0.19125 0.21016 0.68863 0.0
C835 C 0.21517 0.19612 0.68962 0.0
C836 C 0.23117 0.22181 0.68014 0.0
C837 C 0.2237 0.2615 0.67074 0.0
C838 C 0.22416 0.15548 0.70198 0.0
C839 C 0.22903 0.12574 0.68376 0.0
C840 C 0.22819 0.14625 0.73169 0.0
C841 C 0.22353 0.17659 0.752 0.0
C842 C 0.23633 0.21421 0.75666 0.0
C843 C 0.23157 0.24284 0.77558 0.0
C844 C 0.2142 0.23404 0.79016 0.0
C845 C 0.20162 0.19653 0.78591 0.0
C846 C 0.20628 0.16782 0.76698 0.0
C847 C 0.29586 1.00022 0.74974 0.0
C848 C 0.28946 0.9795 0.772 0.0
C849 C 0.28057 0.03129 0.73379 0.0
C850 C 0.25802 0.04168 0.73895 0.0
C851 C 0.25074 0.01927 0.75988 0.0
C852 C 0.26632 0.98855 0.77628 0.0
C853 C 0.24372 0.07858 0.72481 0.0
C854 C 0.23784 0.10798 0.7427 0.0
C855 C 0.23841 0.08715 0.69464 0.0
C856 C 0.24198 0.05627 0.67393 0.0
C857 C 0.23163 0.01692 0.67301 0.0
C858 C 0.2351 0.98791 0.65355 0.0
C859 C 0.24875 0.99793 0.63474 0.0
C860 C 0.25894 0.03701 0.63533 0.0
C861 C 0.25556 0.06613 0.65477 0.0
H862 H 0.2514 0.97543 0.61969 0.0
H863 H 0.21053 0.25624 0.80479 0.0
H864 H 0.80961 0.52329 0.24235 0.0
H865 H 0.78332 0.46688 0.21646 0.0
H866 H 0.7404 0.47074 0.27645 0.0
H867 H 0.76695 0.52676 0.30276 0.0
H868 H 0.75729 0.39537 0.27256 0.0
H869 H 0.71321 0.49755 0.20549 0.0
H870 H 0.70847 0.55655 0.1724 0.0
H871 H 0.74123 0.48817 0.11807 0.0
H872 H 0.74652 0.42892 0.15107 0.0
H873 H 0.66436 0.25894 0.15681 0.0
H874 H 0.67847 0.32706 0.176 0.0
H875 H 0.75517 0.28418 0.20843 0.0
H876 H 0.74135 0.21629 0.18927 0.0
H877 H 0.71454 0.38224 0.166 0.0
H878 H 0.78054 0.32408 0.27695 0.0
H879 H 0.78388 0.26534 0.31003 0.0
H880 H 0.70362 0.24805 0.27717 0.0
H881 H 0.69976 0.30705 0.24425 0.0
C882 C 0.79429 0.51257 0.24972 0.0
C883 C 0.79041 0.52939 0.27466 0.0
C884 C 0.77917 0.48048 0.2348 0.0
C885 C 0.75984 0.46459 0.24448 0.0
C886 C 0.75519 0.48255 0.26858 0.0
C887 C 0.77024 0.5148 0.28344 0.0
C888 C 0.74625 0.42687 0.23121 0.0
C889 C 0.74778 0.39268 0.24929 0.0
C890 C 0.73364 0.42334 0.20087 0.0
C891 C 0.73042 0.45886 0.18089 0.0
C892 C 0.71958 0.49518 0.18661 0.0
C893 C 0.71676 0.52866 0.16785 0.0
C894 C 0.72458 0.52614 0.14318 0.0
C895 C 0.73519 0.49009 0.13719 0.0
C896 C 0.73807 0.45652 0.1559 0.0
C897 C 0.68425 0.26408 0.16787 0.0
C898 C 0.70172 0.2321 0.17165 0.0
C899 C 0.69227 0.30305 0.1787 0.0
C900 C 0.71781 0.31053 0.19382 0.0
C901 C 0.73533 0.27894 0.19702 0.0
C902 C 0.72739 0.24015 0.186 0.0
C903 C 0.72622 0.35082 0.2073 0.0
C904 C 0.72381 0.38527 0.18929 0.0
C905 C 0.73785 0.35479 0.23775 0.0
C906 C 0.73991 0.31979 0.25795 0.0
C907 C 0.76359 0.30788 0.2769 0.0
C908 C 0.76558 0.27452 0.29561 0.0
C909 C 0.74399 0.25291 0.29564 0.0
C910 C 0.72034 0.26472 0.27705 0.0
C911 C 0.71825 0.2981 0.25834 0.0
H912 H 0.74557 0.22705 0.31011 0.0
H913 H 0.72239 0.55209 0.12868 0.0
H914 H 0.2048 0.49978 0.25192 0.0
H915 H 0.23327 0.4477 0.27928 0.0
H916 H 0.29442 0.5028 0.25574 0.0
H917 H 0.26531 0.55259 0.22563 0.0
H918 H 0.29674 0.43009 0.24712 0.0
H919 H 0.29008 0.49829 0.32958 0.0
H920 H 0.27067 0.53262 0.36235 0.0
H921 H 0.23208 0.42196 0.3705 0.0
H922 H 0.25086 0.38711 0.33733 0.0
H923 H 0.35506 0.26471 0.36921 0.0
H924 H 0.33843 0.33388 0.35645 0.0
H925 H 0.29888 0.29374 0.26885 0.0
H926 H 0.31639 0.22572 0.28106 0.0
H927 H 0.29536 0.36801 0.34034 0.0
H928 H 0.29437 0.36321 0.219 0.0
H929 H 0.31986 0.33389 0.19075 0.0
H930 H 0.38436 0.3291 0.26806 0.0
H931 H 0.35938 0.35893 0.2967 0.0
C932 C 0.22427 0.50091 0.25237 0.0
C933 C 0.23245 0.53011 0.23583 0.0
C934 C 0.24079 0.4714 0.26869 0.0
C935 C 0.26623 0.47113 0.26992 0.0
C936 C 0.27489 0.50199 0.2551 0.0
C937 C 0.25819 0.53094 0.2381 0.0
C938 C 0.28283 0.43613 0.28373 0.0
C939 C 0.29659 0.41697 0.26769 0.0
C940 C 0.28344 0.41921 0.31104 0.0
C941 C 0.27181 0.44012 0.33078 0.0
C942 C 0.27728 0.48134 0.33814 0.0
C943 C 0.2664 0.50089 0.35682 0.0
C944 C 0.25012 0.4795 0.36845 0.0
C945 C 0.24468 0.4385 0.36144 0.0
C946 C 0.25546 0.41882 0.34272 0.0
C947 C 0.34287 0.27084 0.34723 0.0
C948 C 0.33732 0.24003 0.326 0.0
C949 C 0.33334 0.31032 0.33996 0.0
C950 C 0.31788 0.31946 0.31144 0.0
C951 C 0.31147 0.28804 0.2907 0.0
C952 C 0.32138 0.24901 0.29775 0.0
C953 C 0.30817 0.3615 0.30305 0.0
C954 C 0.29577 0.3818 0.32006 0.0
C955 C 0.30965 0.38048 0.27726 0.0
C956 C 0.32492 0.3631 0.26003 0.0
C957 C 0.31403 0.35616 0.22994 0.0
C958 C 0.32839 0.33938 0.21387 0.0
C959 C 0.3537 0.32956 0.22761 0.0
C960 C 0.36473 0.33661 0.25745 0.0
C961 C 0.35048 0.35342 0.27362 0.0
H962 H 0.36476 0.31653 0.21513 0.0
H963 H 0.24175 0.49468 0.38295 0.0
H964 H 0.26005 0.47966 0.72388 0.0
H965 H 0.28381 0.53308 0.75644 0.0
H966 H 0.22636 0.538 0.79843 0.0
H967 H 0.20268 0.4839 0.76596 0.0
H968 H 0.23502 0.61207 0.77689 0.0
H969 H 0.28382 0.51006 0.83846 0.0
H970 H 0.30919 0.44743 0.85151 0.0
H971 H 0.36534 0.49966 0.81851 0.0
H972 H 0.34014 0.5624 0.80484 0.0
H973 H 0.34187 0.75368 0.87323 0.0
H974 H 0.32 0.68748 0.86581 0.0
H975 H 0.29629 0.70683 0.77275 0.0
H976 H 0.31803 0.77236 0.77983 0.0
H977 H 0.32617 0.61807 0.83343 0.0
H978 H 0.23508 0.67519 0.74512 0.0
H979 H 0.20959 0.73785 0.73322 0.0
H980 H 0.23699 0.77431 0.82304 0.0
H981 H 0.26236 0.71163 0.83548 0.0
C982 C 0.253 0.49119 0.74076 0.0
C983 C 0.22972 0.4776 0.74266 0.0
C984 C 0.26655 0.52167 0.75936 0.0
C985 C 0.25691 0.53949 0.77995 0.0
C986 C 0.2342 0.52451 0.78282 0.0
C987 C 0.2208 0.4935 0.76445 0.0
C988 C 0.26888 0.57707 0.79537 0.0
C989 C 0.25487 0.61328 0.78958 0.0
C990 C 0.29469 0.57858 0.81232 0.0
C991 C 0.30999 0.54091 0.82049 0.0
C992 C 0.30148 0.5081 0.83378 0.0
C993 C 0.31586 0.47258 0.84133 0.0
C994 C 0.33885 0.46955 0.83581 0.0
C995 C 0.34753 0.50206 0.82278 0.0
C996 C 0.33322 0.53764 0.81517 0.0
C997 C 0.33203 0.74374 0.8512 0.0
C998 C 0.33171 0.76835 0.82711 0.0
C999 C 0.31961 0.70591 0.84702 0.0
C1000 C 0.30636 0.69244 0.81874 0.0
C1001 C 0.30619 0.71683 0.79476 0.0
C1002 C 0.31872 0.75429 0.79888 0.0
C1003 C 0.29251 0.65302 0.81374 0.0
C1004 C 0.30619 0.61663 0.82132 0.0
C1005 C 0.26633 0.65125 0.79855 0.0
C1006 C 0.25072 0.68872 0.79124 0.0
C1007 C 0.23554 0.69642 0.76237 0.0
C1008 C 0.22113 0.73199 0.75551 0.0
C1009 C 0.22169 0.76008 0.77735 0.0
C1010 C 0.2366 0.75259 0.80611 0.0
C1011 C 0.25101 0.71706 0.81308 0.0
H1012 H 0.21055 0.78762 0.77198 0.0
H1013 H 0.34995 0.44203 0.84168 0.0
H1014 H 0.66746 0.76214 0.67275 0.0
H1015 H 0.68111 0.69384 0.69188 0.0
H1016 H 0.75172 0.71204 0.67511 0.0
H1017 H 0.73829 0.7802 0.65602 0.0
H1018 H 0.73134 0.63465 0.65916 0.0
H1019 H 0.74884 0.72608 0.74189 0.0
H1020 H 0.7371 0.77655 0.77292 0.0
H1021 H 0.68438 0.69147 0.78906 0.0
H1022 H 0.69557 0.64069 0.75775 0.0
H1023 H 0.82118 0.50647 0.75397 0.0
H1024 H 0.79446 0.55915 0.7242 0.0
H1025 H 0.73537 0.52822 0.76041 0.0
H1026 H 0.76265 0.47641 0.7914 0.0
H1027 H 0.74266 0.60645 0.76345 0.0
H1028 H 0.72985 0.51078 0.68693 0.0
H1029 H 0.74082 0.46032 0.65536 0.0
H1030 H 0.78302 0.55134 0.62634 0.0
H1031 H 0.77269 0.60221 0.65813 0.0
C1032 C 0.68583 0.75151 0.67296 0.0
C1033 C 0.70189 0.77677 0.66308 0.0
C1034 C 0.6936 0.71249 0.68392 0.0
C1035 C 0.7175 0.69798 0.68509 0.0
C1036 C 0.73319 0.72262 0.67438 0.0
C1037 C 0.72554 0.76169 0.66364 0.0
C1038 C 0.72681 0.65798 0.69869 0.0
C1039 C 0.73395 0.62841 0.68199 0.0
C1040 C 0.72937 0.64942 0.7282 0.0
C1041 C 0.72281 0.67979 0.74721 0.0
C1042 C 0.7346 0.71827 0.75187 0.0
C1043 C 0.72807 0.74691 0.76954 0.0
C1044 C 0.70994 0.73728 0.78288 0.0
C1045 C 0.69837 0.69892 0.77866 0.0
C1046 C 0.70481 0.6702 0.76097 0.0
C1047 C 0.8024 0.51056 0.75542 0.0
C1048 C 0.79416 0.48746 0.7753 0.0
C1049 C 0.78698 0.54045 0.73808 0.0
C1050 C 0.76274 0.5476 0.7398 0.0
C1051 C 0.75397 0.52326 0.75863 0.0
C1052 C 0.7695 0.49338 0.77616 0.0
C1053 C 0.74782 0.58304 0.72412 0.0
C1054 C 0.73964 0.612 0.74045 0.0
C1055 C 0.7442 0.59087 0.69419 0.0
C1056 C 0.75061 0.56029 0.67512 0.0
C1057 C 0.74165 0.51998 0.67403 0.0
C1058 C 0.74774 0.4913 0.65605 0.0
C1059 C 0.76265 0.50259 0.6389 0.0
C1060 C 0.77149 0.54262 0.63966 0.0
C1061 C 0.7655 0.57141 0.65764 0.0
H1062 H 0.76731 0.48034 0.62498 0.0
H1063 H 0.70491 0.75949 0.79655 0.0
H1064 H 0.44403 0.13979 0.44509 0.0
H1065 H 0.48089 0.10559 0.47898 0.0
H1066 H 0.44181 0.99019 0.46077 0.0
H1067 H 0.40522 0.02394 0.42705 0.0
H1068 H 0.46941 0.99846 0.51934 0.0
H1069 H 0.48063 0.01483 0.42508 0.0
H1070 H 0.48314 0.05331 0.38209 0.0
H1071 H 0.54499 0.12367 0.43665 0.0
H1072 H 0.54254 0.08617 0.48005 0.0
H1073 H 0.57735 0.86869 0.57051 0.0
H1074 H 0.53887 0.89977 0.5372 0.0
H1075 H 0.5755 0.01743 0.55006 0.0
H1076 H 0.6136 0.9869 0.5828 0.0
H1077 H 0.54844 1.00594 0.49347 0.0
H1078 H 0.53732 0.99028 0.58774 0.0
H1079 H 0.53662 0.94972 0.63051 0.0
H1080 H 0.4751 0.87818 0.57652 0.0
H1081 H 0.47592 0.9176 0.53319 0.0
C1082 C 0.44319 0.10729 0.44879 0.0
C1083 C 0.42188 0.08447 0.43331 0.0
C1084 C 0.46424 0.08776 0.46801 0.0
C1085 C 0.46414 0.04526 0.47212 0.0
C1086 C 0.44231 0.02294 0.45791 0.0
C1087 C 0.42147 0.04229 0.43855 0.0
C1088 C 0.48726 0.02343 0.48947 0.0
C1089 C 0.48664 0.99981 0.51357 0.0
C1090 C 0.50975 0.02538 0.482 0.0
C1091 C 0.51122 0.04797 0.45587 0.0
C1092 C 0.49461 0.03878 0.42795 0.0
C1093 C 0.49604 0.06037 0.4035 0.0
C1094 C 0.5142 0.09094 0.40666 0.0
C1095 C 0.53093 0.10001 0.43425 0.0
C1096 C 0.52952 0.07861 0.45878 0.0
C1097 C 0.5772 0.90105 0.56589 0.0
C1098 C 0.59838 0.9254 0.57943 0.0
C1099 C 0.55524 0.9188 0.54699 0.0
C1100 C 0.55428 0.96103 0.54138 0.0
C1101 C 0.57579 0.98487 0.55404 0.0
C1102 C 0.59753 0.96732 0.57292 0.0
C1103 C 0.53071 0.98127 0.52351 0.0
C1104 C 0.53122 1.00456 0.49926 0.0
C1105 C 0.50818 0.9791 0.53092 0.0
C1106 C 0.50692 0.95653 0.55713 0.0
C1107 C 0.52378 0.96567 0.58492 0.0
C1108 C 0.52344 0.94277 0.60925 0.0
C1109 C 0.50598 0.91114 0.60619 0.0
C1110 C 0.48871 0.90254 0.57882 0.0
C1111 C 0.48914 0.92511 0.55435 0.0
H1112 H 0.50568 0.89353 0.62507 0.0
H1113 H 0.51538 0.10752 0.38773 0.0
H1114 H 0.58369 0.13928 0.05954 0.0
H1115 H 0.54701 0.1068 0.0239 0.0
H1116 H 0.56522 0.99299 0.0709 0.0
H1117 H 0.60163 0.02462 0.10583 0.0
H1118 H 0.55451 0.97989 0.01445 0.0
H1119 H 0.5168 0.05495 0.07585 0.0
H1120 H 0.50739 0.11669 0.09938 0.0
H1121 H 0.47287 0.1716 0.01538 0.0
H1122 H 0.48237 0.11035 0.99136 0.0
H1123 H 0.43929 0.87013 0.94944 0.0
H1124 H 0.47561 0.90397 0.98468 0.0
H1125 H 0.45553 0.01709 0.93717 0.0
H1126 H 0.41943 0.98411 0.90264 0.0
H1127 H 0.46723 0.03131 0.99322 0.0
H1128 H 0.50433 0.9576 0.9315 0.0
H1129 H 0.51367 0.89674 0.90706 0.0
H1130 H 0.54953 0.84053 0.99029 0.0
H1131 H 0.54007 0.90089 0.01523 0.0
C1132 C 0.57976 0.10741 0.06221 0.0
C1133 C 0.59561 0.08458 0.08546 0.0
C1134 C 0.5588 0.08887 0.04191 0.0
C1135 C 0.5533 0.04738 0.04477 0.0
C1136 C 0.56911 0.02487 0.06807 0.0
C1137 C 0.58994 0.04317 0.08813 0.0
C1138 C 0.53126 0.02679 0.02367 0.0
C1139 C 0.53539 0.99094 0.01004 0.0
C1140 C 0.50636 0.04155 0.0174 0.0
C1141 C 0.50052 0.07825 0.03183 0.0
C1142 C 0.50736 0.08031 0.06241 0.0
C1143 C 0.50198 0.11519 0.07583 0.0
C1144 C 0.4896 0.14809 0.05888 0.0
C1145 C 0.4825 0.14612 0.02848 0.0
C1146 C 0.48785 0.11132 0.01495 0.0
C1147 C 0.44268 0.90218 0.94662 0.0
C1148 C 0.42646 0.92436 0.92327 0.0
C1149 C 0.46345 0.92149 0.96667 0.0
C1150 C 0.46839 0.96312 0.96349 0.0
C1151 C 0.4521 0.98509 0.94023 0.0
C1152 C 0.43145 0.96601 0.9204 0.0
C1153 C 0.49046 0.98428 0.98412 0.0
C1154 C 0.48634 0.02025 0.99763 0.0
C1155 C 0.51539 0.96977 0.99015 0.0
C1156 C 0.52126 0.93358 0.97522 0.0
C1157 C 0.51405 0.93214 0.94459 0.0
C1158 C 0.5194 0.89776 0.93064 0.0
C1159 C 0.53213 0.86474 0.94712 0.0
C1160 C 0.53963 0.86611 0.97756 0.0
C1161 C 0.5343 0.90041 0.99161 0.0
H1162 H 0.53623 0.8381 0.93631 0.0
H1163 H 0.48546 0.17507 0.06931 0.0
H1164 H 0.07909 0.36969 0.5663 0.0
H1165 H 0.04132 0.4017 0.53248 0.0
H1166 H 0.07241 0.52066 0.56104 0.0
H1167 H 0.10962 0.4892 0.59485 0.0
H1168 H 0.02475 0.5176 0.55922 0.0
H1169 H 0.07168 0.48071 0.49495 0.0
H1170 H 0.09393 0.43363 0.47194 0.0
H1171 H 0.02621 0.36284 0.43762 0.0
H1172 H 1.00365 0.40923 0.46077 0.0
H1173 H 0.94215 0.64038 0.44595 0.0
H1174 H 0.97883 0.60686 0.4806 0.0
H1175 H 0.94694 0.48918 0.44954 0.0
H1176 H 0.91086 0.52223 0.41477 0.0
H1177 H 0.99454 0.49056 0.45288 0.0
H1178 H 0.94734 0.52802 0.51646 0.0
H1179 H 0.92511 0.57496 0.53958 0.0
H1180 H 0.99316 0.64447 0.57532 0.0
H1181 H 0.01573 0.59823 0.55208 0.0
C1182 C 0.07787 0.40263 0.56516 0.0
C1183 C 0.09731 0.42687 0.58325 0.0
C1184 C 0.05632 0.42091 0.54584 0.0
C1185 C 0.05405 0.46367 0.54416 0.0
C1186 C 0.07362 0.48769 0.56204 0.0
C1187 C 0.09496 0.46956 0.58131 0.0
C1188 C 0.0313 0.48385 0.52418 0.0
C1189 C 0.01829 0.51199 0.53591 0.0
C1190 C 0.02255 0.47599 0.49387 0.0
C1191 C 0.03606 0.44819 0.47985 0.0
C1192 C 0.06159 0.45492 0.48268 0.0
C1193 C 0.07425 0.4284 0.46958 0.0
C1194 C 0.06151 0.3952 0.45339 0.0
C1195 C 0.03607 0.38853 0.4502 0.0
C1196 C 0.02333 0.41494 0.46329 0.0
C1197 C 0.94293 0.60739 0.44677 0.0
C1198 C 0.92367 0.58398 0.42762 0.0
C1199 C 0.96384 0.58824 0.46658 0.0
C1200 C 0.96562 0.54541 0.46776 0.0
C1201 C 0.94612 0.52219 0.44896 0.0
C1202 C 0.92543 0.54121 0.42913 0.0
C1203 C 0.98798 0.52441 0.4879 0.0
C1204 C 1.00094 0.49613 0.4762 0.0
C1205 C 0.99667 0.53213 0.51825 0.0
C1206 C 0.98315 0.5599 0.53228 0.0
C1207 C 0.95751 0.5535 0.52906 0.0
C1208 C 0.94486 0.57995 0.54222 0.0
C1209 C 0.95769 0.61274 0.55884 0.0
C1210 C 0.98323 0.61909 0.5624 0.0
C1211 C 0.99597 0.59275 0.54926 0.0
H1212 H 0.94787 0.63318 0.56901 0.0
H1213 H 0.07134 0.37469 0.44327 0.0
H1214 H 0.11809 0.52577 0.08071 0.0
H1215 H 0.08043 0.49342 0.04807 0.0
H1216 H 0.04341 0.61024 0.03061 0.0
H1217 H 0.08138 0.64305 0.06362 0.0
H1218 H 0.01481 0.55154 0.04659 0.0
H1219 H 0.06003 0.56352 0.97804 0.0
H1220 H 0.09631 0.55677 0.95982 0.0
H1221 H 0.09448 0.42669 0.96948 0.0
H1222 H 0.0584 0.43269 0.98817 0.0
H1223 H 0.90861 0.48822 0.93017 0.0
H1224 H 0.94657 0.51977 0.96273 0.0
H1225 H 0.98303 0.40242 0.97886 0.0
H1226 H 0.94475 0.37041 0.94582 0.0
H1227 H 1.01205 0.46087 0.96377 0.0
H1228 H 0.9668 0.44873 0.03215 0.0
H1229 H 0.9305 0.45533 0.05034 0.0
H1230 H 0.93242 0.58547 0.04112 0.0
H1231 H 0.96852 0.57963 0.02246 0.0
C1232 C 0.1021 0.54476 0.06955 0.0
C1233 C 0.10264 0.58696 0.07469 0.0
C1234 C 0.0806 0.52619 0.05082 0.0
C1235 C 0.05913 0.54939 0.03683 0.0
C1236 C 0.05983 0.59181 0.04119 0.0
C1237 C 0.08154 0.61055 0.05983 0.0
C1238 C 0.03557 0.52862 0.01934 0.0
C1239 C 0.01405 0.53229 0.02814 0.0
C1240 C 0.0349 0.50234 0.99595 0.0
C1241 C 0.05665 0.4986 0.98478 0.0
C1242 C 0.0675 0.5335 0.97654 0.0
C1243 C 0.088 0.5298 0.96607 0.0
C1244 C 0.09773 0.49133 0.96356 0.0
C1245 C 0.08694 0.45647 0.97147 0.0
C1246 C 0.06645 0.46 0.98197 0.0
C1247 C 0.92454 0.46893 0.94101 0.0
C1248 C 0.92374 0.42682 0.93548 0.0
C1249 C 0.94622 0.48704 0.9597 0.0
C1250 C 0.96761 0.46348 0.97333 0.0
C1251 C 0.96668 0.42114 0.96857 0.0
C1252 C 0.94479 0.40284 0.94992 0.0
C1253 C 0.99127 0.48386 0.99099 0.0
C1254 C 0.01281 0.4801 0.98223 0.0
C1255 C 0.99198 0.51003 0.01444 0.0
C1256 C 0.97025 0.51369 0.02565 0.0
C1257 C 0.95935 0.47874 0.03376 0.0
C1258 C 0.93883 0.48235 0.0442 0.0
C1259 C 0.92912 0.52079 0.04682 0.0
C1260 C 0.93995 0.55571 0.03905 0.0
C1261 C 0.96046 0.55227 0.02857 0.0
H1262 H 0.91324 0.52352 0.05492 0.0
H1263 H 0.1136 0.48853 0.95544 0.0
loop_
_geom_bond_atom_site_label_1
_geom_bond_atom_site_label_2
_geom_bond_distance
_geom_bond_site_symmetry_2
_ccdc_geom_bond_type
Co0 N4 2.148 . S
Co0 N10 2.128 . S
Co0 N20 2.194 . S
Co0 O25 2.351 . S
Co0 O26 2.155 . S
Co0 O27 2.096 . S
C1 N4 1.301 . S
C1 N5 1.328 . S
C1 H6 0.930 . S
C2 C3 1.333 . S
C2 N4 1.317 . S
C2 H7 0.930 . S
C3 C2 1.333 . S
C3 N5 1.350 . S
C3 H29 0.931 . S
N4 Co0 2.148 . S
N4 C1 1.301 . S
N4 C2 1.317 . S
N5 C1 1.328 . S
N5 C3 1.350 . S
H6 C1 0.930 . S
H7 C2 0.930 . S
C8 O9 1.224 . S
C8 O27 1.247 . S
O9 C8 1.224 . S
N10 Co0 2.128 . S
N10 C11 1.355 . S
N10 C13 1.311 . S
C11 N10 1.355 . S
C11 C12 1.363 . S
C11 H23 0.929 . S
C12 C11 1.363 . S
C12 N14 1.375 . S
C12 H30 0.931 . S
C13 N10 1.311 . S
C13 N14 1.347 . S
C13 H24 0.929 . S
N14 C12 1.375 . S
N14 C13 1.347 . S
C15 C18 1.365 1_545 S
C15 N20 1.328 . S
C15 H21 0.929 . S
C16 C17 1.362 1_545 S
C16 C19 1.378 . S
C16 H31 0.929 . S
C17 C16 1.362 1_565 S
C17 C18 1.366 . S
C18 C15 1.365 1_565 S
C18 C17 1.366 . S
C18 H32 0.930 . S
C19 C16 1.378 . S
C19 N20 1.315 . S
C19 H22 0.930 . S
N20 Co0 2.194 . S
N20 C15 1.328 . S
N20 C19 1.315 . S
H21 C15 0.929 . S
H22 C19 0.930 . S
H23 C11 0.929 . S
H24 C13 0.929 . S
O25 Co0 2.351 . S
O25 C28 1.244 . S
O26 Co0 2.155 . S
O26 C28 1.240 . S
O27 Co0 2.096 . S
O27 C8 1.247 . S
C28 O25 1.244 . S
C28 O26 1.240 . S
H29 C3 0.931 . S
H30 C12 0.931 . S
H31 C16 0.929 . S
H32 C18 0.930 . S
Co33 N37 2.148 . S
Co33 N43 2.128 . S
Co33 N53 2.194 . S
Co33 O58 2.351 . S
Co33 O59 2.155 . S
Co33 O60 2.096 . S
C34 N37 1.301 . S
C34 N38 1.328 . S
C34 H39 0.930 . S
C35 C36 1.333 . S
C35 N37 1.317 . S
C35 H40 0.930 . S
C36 C35 1.333 . S
C36 N38 1.350 . S
C36 H62 0.931 . S
N37 Co33 2.148 . S
N37 C34 1.301 . S
N37 C35 1.317 . S
N38 C34 1.328 . S
N38 C36 1.350 . S
H39 C34 0.930 . S
H40 C35 0.930 . S
C41 O42 1.224 . S
C41 O60 1.247 . S
O42 C41 1.224 . S
N43 Co33 2.128 . S
N43 C44 1.355 . S
N43 C46 1.311 . S
C44 N43 1.355 . S
C44 C45 1.363 . S
C44 H56 0.929 . S
C45 C44 1.363 . S
C45 N47 1.375 . S
C45 H63 0.931 . S
C46 N43 1.311 . S
C46 N47 1.347 . S
C46 H57 0.929 . S
N47 C45 1.375 . S
N47 C46 1.347 . S
C48 C51 1.365 1_545 S
C48 N53 1.328 . S
C48 H54 0.929 . S
C49 C50 1.362 1_545 S
C49 C52 1.378 . S
C49 H64 0.929 . S
C50 C49 1.362 1_565 S
C50 C51 1.366 . S
C51 C48 1.365 1_565 S
C51 C50 1.366 . S
C51 H65 0.930 . S
C52 C49 1.378 . S
C52 N53 1.315 . S
C52 H55 0.930 . S
N53 Co33 2.194 . S
N53 C48 1.328 . S
N53 C52 1.315 . S
H54 C48 0.929 . S
H55 C52 0.930 . S
H56 C44 0.929 . S
H57 C46 0.929 . S
O58 Co33 2.351 . S
O58 C61 1.244 . S
O59 Co33 2.155 . S
O59 C61 1.240 . S
O60 Co33 2.096 . S
O60 C41 1.247 . S
C61 O58 1.244 . S
C61 O59 1.240 . S
H62 C36 0.931 . S
H63 C45 0.931 . S
H64 C49 0.929 . S
H65 C51 0.930 . S
Co66 N70 2.148 . S
Co66 N76 2.128 . S
Co66 N86 2.194 . S
Co66 O91 2.351 . S
Co66 O92 2.155 . S
Co66 O93 2.096 . S
C67 N70 1.301 . S
C67 N71 1.328 . S
C67 H72 0.930 . S
C68 C69 1.333 . S
C68 N70 1.317 . S
C68 H73 0.930 . S
C69 C68 1.333 . S
C69 N71 1.350 . S
C69 H95 0.931 . S
N70 Co66 2.148 . S
N70 C67 1.301 . S
N70 C68 1.317 . S
N71 C67 1.328 . S
N71 C69 1.350 . S
H72 C67 0.930 . S
H73 C68 0.930 . S
C74 O75 1.224 . S
C74 O93 1.247 . S
O75 C74 1.224 . S
N76 Co66 2.128 . S
N76 C77 1.355 . S
N76 C79 1.311 . S
C77 N76 1.355 . S
C77 C78 1.363 . S
C77 H89 0.929 . S
C78 C77 1.363 . S
C78 N80 1.375 . S
C78 H96 0.931 . S
C79 N76 1.311 . S
C79 N80 1.347 . S
C79 H90 0.929 . S
N80 C78 1.375 . S
N80 C79 1.347 . S
C81 C84 1.365 1_565 S
C81 N86 1.328 . S
C81 H87 0.929 . S
C82 C83 1.362 1_565 S
C82 C85 1.378 . S
C82 H97 0.929 . S
C83 C82 1.362 1_545 S
C83 C84 1.366 . S
C84 C81 1.365 1_545 S
C84 C83 1.366 . S
C84 H98 0.930 . S
C85 C82 1.378 . S
C85 N86 1.315 . S
C85 H88 0.930 . S
N86 Co66 2.194 . S
N86 C81 1.328 . S
N86 C85 1.315 . S
H87 C81 0.929 . S
H88 C85 0.930 . S
H89 C77 0.929 . S
H90 C79 0.929 . S
O91 Co66 2.351 . S
O91 C94 1.244 . S
O92 Co66 2.155 . S
O92 C94 1.240 . S
O93 Co66 2.096 . S
O93 C74 1.247 . S
C94 O91 1.244 . S
C94 O92 1.240 . S
H95 C69 0.931 . S
H96 C78 0.931 . S
H97 C82 0.929 . S
H98 C84 0.930 . S
Co99 N103 2.148 . S
Co99 N109 2.128 . S
Co99 N119 2.194 . S
Co99 O124 2.351 . S
Co99 O125 2.155 . S
Co99 O126 2.096 . S
C100 N103 1.301 . S
C100 N104 1.328 . S
C100 H105 0.930 . S
C101 C102 1.333 . S
C101 N103 1.317 . S
C101 H106 0.930 . S
C102 C101 1.333 . S
C102 N104 1.350 . S
C102 H128 0.931 . S
N103 Co99 2.148 . S
N103 C100 1.301 . S
N103 C101 1.317 . S
N104 C100 1.328 . S
N104 C102 1.350 . S
H105 C100 0.930 . S
H106 C101 0.930 . S
C107 O108 1.224 . S
C107 O126 1.247 . S
O108 C107 1.224 . S
N109 Co99 2.128 . S
N109 C110 1.355 . S
N109 C112 1.311 . S
C110 N109 1.355 . S
C110 C111 1.363 . S
C110 H122 0.929 . S
C111 C110 1.363 . S
C111 N113 1.375 . S
C111 H129 0.931 . S
C112 N109 1.311 . S
C112 N113 1.347 . S
C112 H123 0.929 . S
N113 C111 1.375 . S
N113 C112 1.347 . S
C114 C117 1.365 1_565 S
C114 N119 1.328 . S
C114 H120 0.929 . S
C115 C116 1.362 1_565 S
C115 C118 1.378 . S
C115 H130 0.929 . S
C116 C115 1.362 1_545 S
C116 C117 1.366 . S
C117 C114 1.365 1_545 S
C117 C116 1.366 . S
C117 H131 0.930 . S
C118 C115 1.378 . S
C118 N119 1.315 . S
C118 H121 0.930 . S
N119 Co99 2.194 . S
N119 C114 1.328 . S
N119 C118 1.315 . S
H120 C114 0.929 . S
H121 C118 0.930 . S
H122 C110 0.929 . S
H123 C112 0.929 . S
O124 Co99 2.351 . S
O124 C127 1.244 . S
O125 Co99 2.155 . S
O125 C127 1.240 . S
O126 Co99 2.096 . S
O126 C107 1.247 . S
C127 O124 1.244 . S
C127 O125 1.240 . S
H128 C102 0.931 . S
H129 C111 0.931 . S
H130 C115 0.929 . S
H131 C117 0.930 . S
Co132 N136 2.148 . S
Co132 N142 2.128 . S
Co132 N152 2.194 . S
Co132 O157 2.351 . S
Co132 O158 2.155 . S
Co132 O159 2.096 . S
C133 N136 1.301 . S
C133 N137 1.328 . S
C133 H138 0.930 . S
C134 C135 1.333 . S
C134 N136 1.317 . S
C134 H139 0.930 . S
C135 C134 1.333 . S
C135 N137 1.350 . S
C135 H161 0.931 . S
N136 Co132 2.148 . S
N136 C133 1.301 . S
N136 C134 1.317 . S
N137 C133 1.328 . S
N137 C135 1.350 . S
H138 C133 0.930 . S
H139 C134 0.930 . S
C140 O141 1.224 . S
C140 O159 1.247 . S
O141 C140 1.224 . S
N142 Co132 2.128 . S
N142 C143 1.355 . S
N142 C145 1.311 . S
C143 N142 1.355 . S
C143 C144 1.363 . S
C143 H155 0.929 . S
C144 C143 1.363 . S
C144 N146 1.375 . S
C144 H162 0.931 . S
C145 N142 1.311 . S
C145 N146 1.347 . S
C145 H156 0.929 . S
N146 C144 1.375 . S
N146 C145 1.347 . S
C147 C150 1.365 . S
C147 N152 1.328 . S
C147 H153 0.929 . S
C148 C149 1.362 . S
C148 C151 1.378 . S
C148 H163 0.929 . S
C149 C148 1.362 . S
C149 C150 1.366 . S
C150 C147 1.365 . S
C150 C149 1.366 . S
C150 H164 0.930 . S
C151 C148 1.378 . S
C151 N152 1.315 . S
C151 H154 0.930 . S
N152 Co132 2.194 . S
N152 C147 1.328 . S
N152 C151 1.315 . S
H153 C147 0.929 . S
H154 C151 0.930 . S
H155 C143 0.929 . S
H156 C145 0.929 . S
O157 Co132 2.351 . S
O157 C160 1.244 . S
O158 Co132 2.155 . S
O158 C160 1.240 . S
O159 Co132 2.096 . S
O159 C140 1.247 . S
C160 O157 1.244 . S
C160 O158 1.240 . S
H161 C135 0.931 . S
H162 C144 0.931 . S
H163 C148 0.929 . S
H164 C150 0.930 . S
Co165 N169 2.148 . S
Co165 N175 2.128 . S
Co165 N185 2.194 . S
Co165 O190 2.351 . S
Co165 O191 2.155 . S
Co165 O192 2.096 . S
C166 N169 1.301 . S
C166 N170 1.328 . S
C166 H171 0.930 . S
C167 C168 1.333 . S
C167 N169 1.317 . S
C167 H172 0.930 . S
C168 C167 1.333 . S
C168 N170 1.350 . S
C168 H194 0.931 . S
N169 Co165 2.148 . S
N169 C166 1.301 . S
N169 C167 1.317 . S
N170 C166 1.328 . S
N170 C168 1.350 . S
H171 C166 0.930 . S
H172 C167 0.930 . S
C173 O174 1.224 . S
C173 O192 1.247 . S
O174 C173 1.224 . S
N175 Co165 2.128 . S
N175 C176 1.355 . S
N175 C178 1.311 . S
C176 N175 1.355 . S
C176 C177 1.363 . S
C176 H188 0.929 . S
C177 C176 1.363 . S
C177 N179 1.375 . S
C177 H195 0.931 . S
C178 N175 1.311 . S
C178 N179 1.347 . S
C178 H189 0.929 . S
N179 C177 1.375 . S
N179 C178 1.347 . S
C180 C183 1.365 . S
C180 N185 1.328 . S
C180 H186 0.929 . S
C181 C182 1.362 . S
C181 C184 1.378 . S
C181 H196 0.929 . S
C182 C181 1.362 . S
C182 C183 1.366 . S
C183 C180 1.365 . S
C183 C182 1.366 . S
C183 H197 0.930 . S
C184 C181 1.378 . S
C184 N185 1.315 . S
C184 H187 0.930 . S
N185 Co165 2.194 . S
N185 C180 1.328 . S
N185 C184 1.315 . S
H186 C180 0.929 . S
H187 C184 0.930 . S
H188 C176 0.929 . S
H189 C178 0.929 . S
O190 Co165 2.351 . S
O190 C193 1.244 . S
O191 Co165 2.155 . S
O191 C193 1.240 . S
O192 Co165 2.096 . S
O192 C173 1.247 . S
C193 O190 1.244 . S
C193 O191 1.240 . S
H194 C168 0.931 . S
H195 C177 0.931 . S
H196 C181 0.929 . S
H197 C183 0.930 . S
Co198 N202 2.148 . S
Co198 N208 2.128 . S
Co198 N218 2.194 . S
Co198 O223 2.351 . S
Co198 O224 2.155 . S
Co198 O225 2.096 . S
C199 N202 1.301 . S
C199 N203 1.328 . S
C199 H204 0.930 . S
C200 C201 1.333 . S
C200 N202 1.317 . S
C200 H205 0.930 . S
C201 C200 1.333 . S
C201 N203 1.350 . S
C201 H227 0.931 . S
N202 Co198 2.148 . S
N202 C199 1.301 . S
N202 C200 1.317 . S
N203 C199 1.328 . S
N203 C201 1.350 . S
H204 C199 0.930 . S
H205 C200 0.930 . S
C206 O207 1.224 . S
C206 O225 1.247 . S
O207 C206 1.224 . S
N208 Co198 2.128 . S
N208 C209 1.355 . S
N208 C211 1.311 . S
C209 N208 1.355 . S
C209 C210 1.363 . S
C209 H221 0.929 . S
C210 C209 1.363 . S
C210 N212 1.375 . S
C210 H228 0.931 . S
C211 N208 1.311 . S
C211 N212 1.347 . S
C211 H222 0.929 . S
N212 C210 1.375 . S
N212 C211 1.347 . S
C213 C216 1.365 . S
C213 N218 1.328 . S
C213 H219 0.929 . S
C214 C215 1.362 . S
C214 C217 1.378 . S
C214 H229 0.929 . S
C215 C214 1.362 . S
C215 C216 1.366 . S
C216 C213 1.365 . S
C216 C215 1.366 . S
C216 H230 0.930 . S
C217 C214 1.378 . S
C217 N218 1.315 . S
C217 H220 0.930 . S
N218 Co198 2.194 . S
N218 C213 1.328 . S
N218 C217 1.315 . S
H219 C213 0.929 . S
H220 C217 0.930 . S
H221 C209 0.929 . S
H222 C211 0.929 . S
O223 Co198 2.351 . S
O223 C226 1.244 . S
O224 Co198 2.155 . S
O224 C226 1.240 . S
O225 Co198 2.096 . S
O225 C206 1.247 . S
C226 O223 1.244 . S
C226 O224 1.240 . S
H227 C201 0.931 . S
H228 C210 0.931 . S
H229 C214 0.929 . S
H230 C216 0.930 . S
Co231 N235 2.148 . S
Co231 N241 2.128 . S
Co231 N251 2.194 . S
Co231 O256 2.351 . S
Co231 O257 2.155 . S
Co231 O258 2.096 . S
C232 N235 1.301 . S
C232 N236 1.328 . S
C232 H237 0.930 . S
C233 C234 1.333 . S
C233 N235 1.317 . S
C233 H238 0.930 . S
C234 C233 1.333 . S
C234 N236 1.350 . S
C234 H260 0.931 . S
N235 Co231 2.148 . S
N235 C232 1.301 . S
N235 C233 1.317 . S
N236 C232 1.328 . S
N236 C234 1.350 . S
H237 C232 0.930 . S
H238 C233 0.930 . S
C239 O240 1.224 . S
C239 O258 1.247 . S
O240 C239 1.224 . S
N241 Co231 2.128 . S
N241 C242 1.355 . S
N241 C244 1.311 . S
C242 N241 1.355 . S
C242 C243 1.363 . S
C242 H254 0.929 . S
C243 C242 1.363 . S
C243 N245 1.375 . S
C243 H261 0.931 . S
C244 N241 1.311 . S
C244 N245 1.347 . S
C244 H255 0.929 . S
N245 C243 1.375 . S
N245 C244 1.347 . S
C246 C249 1.365 . S
C246 N251 1.328 . S
C246 H252 0.929 . S
C247 C248 1.362 . S
C247 C250 1.378 . S
C247 H262 0.929 . S
C248 C247 1.362 . S
C248 C249 1.366 . S
C249 C246 1.365 . S
C249 C248 1.366 . S
C249 H263 0.930 . S
C250 C247 1.378 . S
C250 N251 1.315 . S
C250 H253 0.930 . S
N251 Co231 2.194 . S
N251 C246 1.328 . S
N251 C250 1.315 . S
H252 C246 0.929 . S
H253 C250 0.930 . S
H254 C242 0.929 . S
H255 C244 0.929 . S
O256 Co231 2.351 . S
O256 C259 1.244 . S
O257 Co231 2.155 . S
O257 C259 1.240 . S
O258 Co231 2.096 . S
O258 C239 1.247 . S
C259 O256 1.244 . S
C259 O257 1.240 . S
H260 C234 0.931 . S
H261 C243 0.931 . S
H262 C247 0.929 . S
H263 C249 0.930 . S
H264 C282 0.951 . S
H265 C284 0.951 . S
H266 C286 0.950 . S
H267 C287 0.950 . S
H268 C289 0.950 . S
H269 C292 0.950 . S
H270 C293 0.950 . S
H271 C295 0.950 . S
H272 C296 0.950 . S
H273 C297 0.951 . S
H274 C299 0.951 . S
H275 C301 0.950 . S
H276 C302 0.950 . S
H277 C304 0.950 . S
H278 C307 0.950 . S
H279 C308 0.950 . S
H280 C310 0.950 . S
H281 C311 0.950 . S
C282 H264 0.951 . S
C282 C283 1.366 . S
C282 C284 1.388 . S
C283 C282 1.366 . S
C283 C287 1.385 . S
C284 H265 0.951 . S
C284 C282 1.388 . S
C284 C285 1.366 . S
C285 C284 1.366 . S
C285 C286 1.414 . S
C285 C288 1.499 . S
C286 H266 0.950 . S
C286 C285 1.414 . S
C286 C287 1.374 . S
C287 H267 0.950 . S
C287 C283 1.385 . S
C287 C286 1.374 . S
C288 C285 1.499 . S
C288 C289 1.373 . S
C288 C290 1.389 . S
C289 H268 0.950 . S
C289 C288 1.373 . S
C289 C305 1.377 . S
C290 C288 1.389 . S
C290 C291 1.524 . S
C290 C304 1.377 . S
C291 C290 1.524 . S
C291 C292 1.397 . S
C291 C296 1.363 . S
C292 H269 0.950 . S
C292 C291 1.397 . S
C292 C293 1.334 . S
C293 H270 0.950 . S
C293 C292 1.334 . S
C293 C294 1.287 . S
C294 C293 1.287 . S
C294 C295 1.524 . S
C294 H313 0.913 . S
C295 H271 0.950 . S
C295 C294 1.524 . S
C295 C296 1.415 . S
C296 H272 0.950 . S
C296 C291 1.363 . S
C296 C295 1.415 . S
C297 H273 0.951 . S
C297 C298 1.366 . S
C297 C299 1.388 . S
C298 C297 1.366 . S
C298 C302 1.385 . S
C299 H274 0.951 . S
C299 C297 1.388 . S
C299 C300 1.366 . S
C300 C299 1.366 . S
C300 C301 1.414 . S
C300 C303 1.499 . S
C301 H275 0.950 . S
C301 C300 1.414 . S
C301 C302 1.374 . S
C302 H276 0.950 . S
C302 C298 1.385 . S
C302 C301 1.374 . S
C303 C300 1.499 . S
C303 C304 1.373 . S
C303 C305 1.389 . S
C304 H277 0.950 . S
C304 C290 1.377 . S
C304 C303 1.373 . S
C305 C289 1.377 . S
C305 C303 1.389 . S
C305 C306 1.524 . S
C306 C305 1.524 . S
C306 C307 1.397 . S
C306 C311 1.363 . S
C307 H278 0.950 . S
C307 C306 1.397 . S
C307 C308 1.334 . S
C308 H279 0.950 . S
C308 C307 1.334 . S
C308 C309 1.287 . S
C309 C308 1.287 . S
C309 C310 1.524 . S
C309 H312 0.999 . S
C310 H280 0.950 . S
C310 C309 1.524 . S
C310 C311 1.415 . S
C311 H281 0.950 . S
C311 C306 1.363 . S
C311 C310 1.415 . S
H312 C309 0.999 . S
H313 C294 0.913 . S
H314 C332 0.951 . S
H315 C334 0.951 . S
H316 C336 0.950 . S
H317 C337 0.950 . S
H318 C339 0.950 . S
H319 C342 0.950 1_554 S
H320 C343 0.950 1_554 S
H321 C345 0.950 . S
H322 C346 0.950 . S
H323 C347 0.951 . S
H324 C349 0.951 . S
H325 C351 0.950 . S
H326 C352 0.950 . S
H327 C354 0.950 . S
H328 C357 0.950 1_556 S
H329 C358 0.950 1_556 S
H330 C360 0.950 . S
H331 C361 0.950 . S
C332 H314 0.951 . S
C332 C333 1.366 . S
C332 C334 1.388 . S
C333 C332 1.366 . S
C333 C337 1.385 . S
C334 H315 0.951 . S
C334 C332 1.388 . S
C334 C335 1.366 . S
C335 C334 1.366 . S
C335 C336 1.414 . S
C335 C338 1.499 . S
C336 H316 0.950 . S
C336 C335 1.414 . S
C336 C337 1.374 . S
C337 H317 0.950 . S
C337 C333 1.385 . S
C337 C336 1.374 . S
C338 C335 1.499 . S
C338 C339 1.373 . S
C338 C340 1.389 1_554 S
C339 H318 0.950 . S
C339 C338 1.373 . S
C339 C355 1.377 . S
C340 C338 1.389 1_556 S
C340 C341 1.524 . S
C340 C354 1.377 . S
C341 C340 1.524 . S
C341 C342 1.397 . S
C341 C346 1.363 . S
C342 H319 0.950 1_556 S
C342 C341 1.397 . S
C342 C343 1.334 . S
C343 H320 0.950 1_556 S
C343 C342 1.334 . S
C343 C344 1.287 . S
C344 C343 1.287 . S
C344 C345 1.524 . S
C344 H363 0.913 . S
C345 H321 0.950 . S
C345 C344 1.524 . S
C345 C346 1.415 . S
C346 H322 0.950 . S
C346 C341 1.363 . S
C346 C345 1.415 . S
C347 H323 0.951 . S
C347 C348 1.366 . S
C347 C349 1.388 . S
C348 C347 1.366 . S
C348 C352 1.385 . S
C349 H324 0.951 . S
C349 C347 1.388 . S
C349 C350 1.366 . S
C350 C349 1.366 . S
C350 C351 1.414 . S
C350 C353 1.499 . S
C351 H325 0.950 . S
C351 C350 1.414 . S
C351 C352 1.374 . S
C352 H326 0.950 . S
C352 C348 1.385 . S
C352 C351 1.374 . S
C353 C350 1.499 . S
C353 C354 1.373 . S
C353 C355 1.389 1_556 S
C354 H327 0.950 . S
C354 C340 1.377 . S
C354 C353 1.373 . S
C355 C339 1.377 . S
C355 C353 1.389 1_554 S
C355 C356 1.524 . S
C356 C355 1.524 . S
C356 C357 1.397 . S
C356 C361 1.363 . S
C357 H328 0.950 1_554 S
C357 C356 1.397 . S
C357 C358 1.334 . S
C358 H329 0.950 1_554 S
C358 C357 1.334 . S
C358 C359 1.287 . S
C359 C358 1.287 . S
C359 C360 1.524 . S
C359 H362 0.999 . S
C360 H330 0.950 . S
C360 C359 1.524 . S
C360 C361 1.415 . S
C361 H331 0.950 . S
C361 C356 1.363 . S
C361 C360 1.415 . S
H362 C359 0.999 . S
H363 C344 0.913 . S
H364 C382 0.951 . S
H365 C384 0.951 . S
H366 C386 0.950 . S
H367 C387 0.950 . S
H368 C389 0.950 . S
H369 C392 0.950 . S
H370 C393 0.950 . S
H371 C395 0.950 . S
H372 C396 0.950 . S
H373 C397 0.951 . S
H374 C399 0.951 . S
H375 C401 0.950 . S
H376 C402 0.950 . S
H377 C404 0.950 . S
H378 C407 0.950 . S
H379 C408 0.950 . S
H380 C410 0.950 . S
H381 C411 0.950 . S
C382 H364 0.951 . S
C382 C383 1.366 . S
C382 C384 1.388 . S
C383 C382 1.366 . S
C383 C387 1.385 . S
C384 H365 0.951 . S
C384 C382 1.388 . S
C384 C385 1.366 . S
C385 C384 1.366 . S
C385 C386 1.414 . S
C385 C388 1.499 . S
C386 H366 0.950 . S
C386 C385 1.414 . S
C386 C387 1.374 . S
C387 H367 0.950 . S
C387 C383 1.385 . S
C387 C386 1.374 . S
C388 C385 1.499 . S
C388 C389 1.373 . S
C388 C390 1.389 . S
C389 H368 0.950 . S
C389 C388 1.373 . S
C389 C405 1.377 . S
C390 C388 1.389 . S
C390 C391 1.524 . S
C390 C404 1.377 . S
C391 C390 1.524 . S
C391 C392 1.397 . S
C391 C396 1.363 . S
C392 H369 0.950 . S
C392 C391 1.397 . S
C392 C393 1.334 . S
C393 H370 0.950 . S
C393 C392 1.334 . S
C393 C394 1.287 . S
C394 C393 1.287 . S
C394 C395 1.524 . S
C394 H413 0.913 . S
C395 H371 0.950 . S
C395 C394 1.524 . S
C395 C396 1.415 . S
C396 H372 0.950 . S
C396 C391 1.363 . S
C396 C395 1.415 . S
C397 H373 0.951 . S
C397 C398 1.366 . S
C397 C399 1.388 . S
C398 C397 1.366 . S
C398 C402 1.385 . S
C399 H374 0.951 . S
C399 C397 1.388 . S
C399 C400 1.366 . S
C400 C399 1.366 . S
C400 C401 1.414 . S
C400 C403 1.499 . S
C401 H375 0.950 . S
C401 C400 1.414 . S
C401 C402 1.374 . S
C402 H376 0.950 . S
C402 C398 1.385 . S
C402 C401 1.374 . S
C403 C400 1.499 . S
C403 C404 1.373 . S
C403 C405 1.389 . S
C404 H377 0.950 . S
C404 C390 1.377 . S
C404 C403 1.373 . S
C405 C389 1.377 . S
C405 C403 1.389 . S
C405 C406 1.524 . S
C406 C405 1.524 . S
C406 C407 1.397 . S
C406 C411 1.363 . S
C407 H378 0.950 . S
C407 C406 1.397 . S
C407 C408 1.334 . S
C408 H379 0.950 . S
C408 C407 1.334 . S
C408 C409 1.287 . S
C409 C408 1.287 . S
C409 C410 1.524 . S
C409 H412 0.999 . S
C410 H380 0.950 . S
C410 C409 1.524 . S
C410 C411 1.415 . S
C411 H381 0.950 . S
C411 C406 1.363 . S
C411 C410 1.415 . S
H412 C409 0.999 . S
H413 C394 0.913 . S
H414 C432 0.951 . S
H415 C434 0.951 . S
H416 C436 0.950 . S
H417 C437 0.950 . S
H418 C439 0.950 . S
H419 C442 0.950 . S
H420 C443 0.950 . S
H421 C445 0.950 . S
H422 C446 0.950 . S
H423 C447 0.951 . S
H424 C449 0.951 . S
H425 C451 0.950 . S
H426 C452 0.950 . S
H427 C454 0.950 . S
H428 C457 0.950 . S
H429 C458 0.950 . S
H430 C460 0.950 . S
H431 C461 0.950 . S
C432 H414 0.951 . S
C432 C433 1.366 . S
C432 C434 1.388 . S
C433 C432 1.366 . S
C433 C437 1.385 . S
C434 H415 0.951 . S
C434 C432 1.388 . S
C434 C435 1.366 . S
C435 C434 1.366 . S
C435 C436 1.414 . S
C435 C438 1.499 . S
C436 H416 0.950 . S
C436 C435 1.414 . S
C436 C437 1.374 . S
C437 H417 0.950 . S
C437 C433 1.385 . S
C437 C436 1.374 . S
C438 C435 1.499 . S
C438 C439 1.373 . S
C438 C440 1.389 . S
C439 H418 0.950 . S
C439 C438 1.373 . S
C439 C455 1.377 1_556 S
C440 C438 1.389 . S
C440 C441 1.524 . S
C440 C454 1.377 1_556 S
C441 C440 1.524 . S
C441 C442 1.397 . S
C441 C446 1.363 1_556 S
C442 H419 0.950 . S
C442 C441 1.397 . S
C442 C443 1.334 . S
C443 H420 0.950 . S
C443 C442 1.334 . S
C443 C444 1.287 . S
C444 C443 1.287 . S
C444 C445 1.524 1_556 S
C444 H463 0.913 . S
C445 H421 0.950 . S
C445 C444 1.524 1_554 S
C445 C446 1.415 . S
C446 H422 0.950 . S
C446 C441 1.363 1_554 S
C446 C445 1.415 . S
C447 H423 0.951 . S
C447 C448 1.366 . S
C447 C449 1.388 . S
C448 C447 1.366 . S
C448 C452 1.385 . S
C449 H424 0.951 . S
C449 C447 1.388 . S
C449 C450 1.366 . S
C450 C449 1.366 . S
C450 C451 1.414 . S
C450 C453 1.499 . S
C451 H425 0.950 . S
C451 C450 1.414 . S
C451 C452 1.374 . S
C452 H426 0.950 . S
C452 C448 1.385 . S
C452 C451 1.374 . S
C453 C450 1.499 . S
C453 C454 1.373 . S
C453 C455 1.389 . S
C454 H427 0.950 . S
C454 C440 1.377 1_554 S
C454 C453 1.373 . S
C455 C439 1.377 1_554 S
C455 C453 1.389 . S
C455 C456 1.524 . S
C456 C455 1.524 . S
C456 C457 1.397 . S
C456 C461 1.363 1_554 S
C457 H428 0.950 . S
C457 C456 1.397 . S
C457 C458 1.334 . S
C458 H429 0.950 . S
C458 C457 1.334 . S
C458 C459 1.287 . S
C459 C458 1.287 . S
C459 C460 1.524 1_554 S
C459 H462 0.999 . S
C460 H430 0.950 . S
C460 C459 1.524 1_556 S
C460 C461 1.415 . S
C461 H431 0.950 . S
C461 C456 1.363 1_556 S
C461 C460 1.415 . S
H462 C459 0.999 . S
H463 C444 0.913 . S
H464 C482 0.951 . S
H465 C484 0.951 . S
H466 C486 0.950 . S
H467 C487 0.950 . S
H468 C489 0.950 . S
H469 C492 0.960 . S
H470 C493 0.968 . S
H471 C495 0.950 . S
H472 C496 0.950 . S
H473 C497 0.951 . S
H474 C499 0.951 . S
H475 C501 0.950 . S
H476 C502 0.950 . S
H477 C504 0.950 . S
H478 C507 0.950 . S
H479 C508 0.950 . S
H480 C510 0.950 . S
H481 C511 0.950 . S
C482 H464 0.951 . S
C482 C483 1.366 . S
C482 C484 1.388 . S
C483 C482 1.366 . S
C483 C487 1.385 . S
C484 H465 0.951 . S
C484 C482 1.388 . S
C484 C485 1.366 . S
C485 C484 1.366 . S
C485 C486 1.414 . S
C485 C488 1.499 . S
C486 H466 0.950 . S
C486 C485 1.414 . S
C486 C487 1.374 . S
C487 H467 0.950 . S
C487 C483 1.385 . S
C487 C486 1.374 . S
C488 C485 1.499 . S
C488 C489 1.373 . S
C488 C490 1.389 . S
C489 H468 0.950 . S
C489 C488 1.373 . S
C489 C505 1.377 . S
C490 C488 1.389 . S
C490 C491 1.524 . S
C490 C504 1.377 . S
C491 C490 1.524 . S
C491 C492 1.397 . S
C491 C496 1.363 . S
C492 H469 0.960 . S
C492 C491 1.397 . S
C492 C493 1.326 1_545 S
C493 H470 0.968 . S
C493 C492 1.326 1_565 S
C493 C494 1.277 1_565 S
C494 C493 1.277 1_545 S
C494 C495 1.524 . S
C494 H513 0.913 . S
C495 H471 0.950 . S
C495 C494 1.524 . S
C495 C496 1.415 . S
C496 H472 0.950 . S
C496 C491 1.363 . S
C496 C495 1.415 . S
C497 H473 0.951 . S
C497 C498 1.366 . S
C497 C499 1.388 . S
C498 C497 1.366 . S
C498 C502 1.385 . S
C499 H474 0.951 . S
C499 C497 1.388 . S
C499 C500 1.366 . S
C500 C499 1.366 . S
C500 C501 1.414 . S
C500 C503 1.499 . S
C501 H475 0.950 . S
C501 C500 1.414 . S
C501 C502 1.374 . S
C502 H476 0.950 . S
C502 C498 1.385 . S
C502 C501 1.374 . S
C503 C500 1.499 . S
C503 C504 1.373 . S
C503 C505 1.389 . S
C504 H477 0.950 . S
C504 C490 1.377 . S
C504 C503 1.373 . S
C505 C489 1.377 . S
C505 C503 1.389 . S
C505 C506 1.524 . S
C506 C505 1.524 . S
C506 C507 1.397 . S
C506 C511 1.363 . S
C507 H478 0.950 . S
C507 C506 1.397 . S
C507 C508 1.334 . S
C508 H479 0.950 . S
C508 C507 1.334 . S
C508 C509 1.287 . S
C509 C508 1.287 . S
C509 C510 1.524 . S
C509 H512 0.999 . S
C510 H480 0.950 . S
C510 C509 1.524 . S
C510 C511 1.415 . S
C511 H481 0.950 . S
C511 C506 1.363 . S
C511 C510 1.415 . S
H512 C509 0.999 . S
H513 C494 0.913 . S
H514 C532 0.951 . S
H515 C534 0.951 . S
H516 C536 0.950 . S
H517 C537 0.950 . S
H518 C539 0.950 . S
H519 C542 0.950 . S
H520 C543 0.935 1_545 S
H521 C545 0.950 . S
H522 C546 0.950 . S
H523 C547 0.951 . S
H524 C549 0.951 . S
H525 C551 0.950 . S
H526 C552 0.950 . S
H527 C554 0.950 . S
H528 C557 0.950 . S
H529 C558 0.950 . S
H530 C560 0.950 . S
H531 C561 0.950 . S
C532 H514 0.951 . S
C532 C533 1.366 . S
C532 C534 1.388 . S
C533 C532 1.366 . S
C533 C537 1.385 . S
C534 H515 0.951 . S
C534 C532 1.388 . S
C534 C535 1.366 . S
C535 C534 1.366 . S
C535 C536 1.414 . S
C535 C538 1.499 . S
C536 H516 0.950 . S
C536 C535 1.414 . S
C536 C537 1.374 . S
C537 H517 0.950 . S
C537 C533 1.385 . S
C537 C536 1.374 . S
C538 C535 1.499 . S
C538 C539 1.373 . S
C538 C540 1.389 . S
C539 H518 0.950 . S
C539 C538 1.373 . S
C539 C555 1.377 . S
C540 C538 1.389 . S
C540 C541 1.524 . S
C540 C554 1.377 . S
C541 C540 1.524 . S
C541 C542 1.397 . S
C541 C546 1.363 . S
C542 H519 0.950 . S
C542 C541 1.397 . S
C542 C543 1.341 . S
C543 H520 0.935 1_565 S
C543 C542 1.341 . S
C543 C544 1.296 . S
C544 C543 1.296 . S
C544 C545 1.524 . S
C544 H563 0.913 . S
C545 H521 0.950 . S
C545 C544 1.524 . S
C545 C546 1.415 . S
C546 H522 0.950 . S
C546 C541 1.363 . S
C546 C545 1.415 . S
C547 H523 0.951 . S
C547 C548 1.366 . S
C547 C549 1.388 . S
C548 C547 1.366 . S
C548 C552 1.385 . S
C549 H524 0.951 . S
C549 C547 1.388 . S
C549 C550 1.366 . S
C550 C549 1.366 . S
C550 C551 1.414 . S
C550 C553 1.499 . S
C551 H525 0.950 . S
C551 C550 1.414 . S
C551 C552 1.374 . S
C552 H526 0.950 . S
C552 C548 1.385 . S
C552 C551 1.374 . S
C553 C550 1.499 . S
C553 C554 1.373 . S
C553 C555 1.389 . S
C554 H527 0.950 . S
C554 C540 1.377 . S
C554 C553 1.373 . S
C555 C539 1.377 . S
C555 C553 1.389 . S
C555 C556 1.524 . S
C556 C555 1.524 . S
C556 C557 1.397 . S
C556 C561 1.363 . S
C557 H528 0.950 . S
C557 C556 1.397 . S
C557 C558 1.334 . S
C558 H529 0.950 . S
C558 C557 1.334 . S
C558 C559 1.287 . S
C559 C558 1.287 . S
C559 C560 1.524 . S
C559 H562 0.999 . S
C560 H530 0.950 . S
C560 C559 1.524 . S
C560 C561 1.415 . S
C561 H531 0.950 . S
C561 C556 1.363 . S
C561 C560 1.415 . S
H562 C559 0.999 . S
H563 C544 0.913 . S
H564 C582 0.951 . S
H565 C584 0.951 . S
H566 C586 0.950 . S
H567 C587 0.950 . S
H568 C589 0.950 . S
H569 C592 0.950 . S
H570 C593 0.950 . S
H571 C595 0.950 . S
H572 C596 0.950 . S
H573 C597 0.951 . S
H574 C599 0.951 . S
H575 C601 0.950 . S
H576 C602 0.950 . S
H577 C604 0.950 . S
H578 C607 0.950 . S
H579 C608 0.950 . S
H580 C610 0.950 . S
H581 C611 0.950 . S
C582 H564 0.951 . S
C582 C583 1.366 . S
C582 C584 1.388 . S
C583 C582 1.366 . S
C583 C587 1.385 . S
C584 H565 0.951 . S
C584 C582 1.388 . S
C584 C585 1.366 . S
C585 C584 1.366 . S
C585 C586 1.414 . S
C585 C588 1.499 . S
C586 H566 0.950 . S
C586 C585 1.414 . S
C586 C587 1.374 . S
C587 H567 0.950 . S
C587 C583 1.385 . S
C587 C586 1.374 . S
C588 C585 1.499 . S
C588 C589 1.373 1_455 S
C588 C590 1.389 . S
C589 H568 0.950 . S
C589 C588 1.373 1_655 S
C589 C605 1.377 . S
C590 C588 1.389 . S
C590 C591 1.524 . S
C590 C604 1.377 . S
C591 C590 1.524 . S
C591 C592 1.397 . S
C591 C596 1.363 . S
C592 H569 0.950 . S
C592 C591 1.397 . S
C592 C593 1.334 . S
C593 H570 0.950 . S
C593 C592 1.334 . S
C593 C594 1.287 . S
C594 C593 1.287 . S
C594 C595 1.524 . S
C594 H613 0.913 . S
C595 H571 0.950 . S
C595 C594 1.524 . S
C595 C596 1.415 . S
C596 H572 0.950 . S
C596 C591 1.363 . S
C596 C595 1.415 . S
C597 H573 0.951 . S
C597 C598 1.366 . S
C597 C599 1.388 . S
C598 C597 1.366 . S
C598 C602 1.385 . S
C599 H574 0.951 . S
C599 C597 1.388 . S
C599 C600 1.366 . S
C600 C599 1.366 . S
C600 C601 1.414 . S
C600 C603 1.499 . S
C601 H575 0.950 . S
C601 C600 1.414 . S
C601 C602 1.374 . S
C602 H576 0.950 . S
C602 C598 1.385 . S
C602 C601 1.374 . S
C603 C600 1.499 . S
C603 C604 1.373 1_655 S
C603 C605 1.389 . S
C604 H577 0.950 . S
C604 C590 1.377 . S
C604 C603 1.373 1_455 S
C605 C589 1.377 . S
C605 C603 1.389 . S
C605 C606 1.524 . S
C606 C605 1.524 . S
C606 C607 1.397 . S
C606 C611 1.363 . S
C607 H578 0.950 . S
C607 C606 1.397 . S
C607 C608 1.334 . S
C608 H579 0.950 . S
C608 C607 1.334 . S
C608 C609 1.287 . S
C609 C608 1.287 . S
C609 C610 1.524 . S
C609 H612 0.999 . S
C610 H580 0.950 . S
C610 C609 1.524 . S
C610 C611 1.415 . S
C611 H581 0.950 . S
C611 C606 1.363 . S
C611 C610 1.415 . S
H612 C609 0.999 . S
H613 C594 0.913 . S
H614 C632 0.951 . S
H615 C634 0.951 . S
H616 C636 0.950 . S
H617 C637 0.950 . S
H618 C639 0.950 . S
H619 C642 0.950 . S
H620 C643 0.950 . S
H621 C645 0.950 . S
H622 C646 0.950 . S
H623 C647 0.951 . S
H624 C649 0.951 . S
H625 C651 0.950 . S
H626 C652 0.950 . S
H627 C654 0.950 . S
H628 C657 0.950 . S
H629 C658 0.950 . S
H630 C660 0.950 . S
H631 C661 0.950 . S
C632 H614 0.951 . S
C632 C633 1.366 . S
C632 C634 1.388 . S
C633 C632 1.366 . S
C633 C637 1.385 . S
C634 H615 0.951 . S
C634 C632 1.388 . S
C634 C635 1.366 . S
C635 C634 1.366 . S
C635 C636 1.414 . S
C635 C638 1.499 . S
C636 H616 0.950 . S
C636 C635 1.414 . S
C636 C637 1.374 . S
C637 H617 0.950 . S
C637 C633 1.385 . S
C637 C636 1.374 . S
C638 C635 1.499 . S
C638 C639 1.373 1_455 S
C638 C640 1.389 . S
C639 H618 0.950 . S
C639 C638 1.373 1_655 S
C639 C655 1.377 . S
C640 C638 1.389 . S
C640 C641 1.524 . S
C640 C654 1.377 . S
C641 C640 1.524 . S
C641 C642 1.397 . S
C641 C646 1.363 . S
C642 H619 0.950 . S
C642 C641 1.397 . S
C642 C643 1.334 . S
C643 H620 0.950 . S
C643 C642 1.334 . S
C643 C644 1.287 . S
C644 C643 1.287 . S
C644 C645 1.524 . S
C644 H663 0.913 . S
C645 H621 0.950 . S
C645 C644 1.524 . S
C645 C646 1.415 . S
C646 H622 0.950 . S
C646 C641 1.363 . S
C646 C645 1.415 . S
C647 H623 0.951 . S
C647 C648 1.366 . S
C647 C649 1.388 . S
C648 C647 1.366 . S
C648 C652 1.385 . S
C649 H624 0.951 . S
C649 C647 1.388 . S
C649 C650 1.366 . S
C650 C649 1.366 . S
C650 C651 1.414 . S
C650 C653 1.499 . S
C651 H625 0.950 . S
C651 C650 1.414 . S
C651 C652 1.374 . S
C652 H626 0.950 . S
C652 C648 1.385 . S
C652 C651 1.374 . S
C653 C650 1.499 . S
C653 C654 1.373 1_655 S
C653 C655 1.389 . S
C654 H627 0.950 . S
C654 C640 1.377 . S
C654 C653 1.373 1_455 S
C655 C639 1.377 . S
C655 C653 1.389 . S
C655 C656 1.524 . S
C656 C655 1.524 . S
C656 C657 1.397 . S
C656 C661 1.363 . S
C657 H628 0.950 . S
C657 C656 1.397 . S
C657 C658 1.334 . S
C658 H629 0.950 . S
C658 C657 1.334 . S
C658 C659 1.287 . S
C659 C658 1.287 . S
C659 C660 1.524 . S
C659 H662 0.999 . S
C660 H630 0.950 . S
C660 C659 1.524 . S
C660 C661 1.415 . S
C661 H631 0.950 . S
C661 C656 1.363 . S
C661 C660 1.415 . S
H662 C659 0.999 . S
H663 C644 0.913 . S
H664 C682 0.951 . S
H665 C684 0.951 . S
H666 C686 0.950 . S
H667 C687 0.950 . S
H668 C689 0.950 . S
H669 C692 0.950 . S
H670 C693 0.950 . S
H671 C695 0.950 . S
H672 C696 0.950 . S
H673 C697 0.951 . S
H674 C699 0.951 . S
H675 C701 0.950 . S
H676 C702 0.950 . S
H677 C704 0.950 . S
H678 C707 0.950 . S
H679 C708 0.950 . S
H680 C710 0.950 . S
H681 C711 0.950 . S
C682 H664 0.951 . S
C682 C683 1.366 . S
C682 C684 1.388 . S
C683 C682 1.366 . S
C683 C687 1.385 . S
C684 H665 0.951 . S
C684 C682 1.388 . S
C684 C685 1.366 . S
C685 C684 1.366 . S
C685 C686 1.414 . S
C685 C688 1.499 . S
C686 H666 0.950 . S
C686 C685 1.414 . S
C686 C687 1.374 . S
C687 H667 0.950 . S
C687 C683 1.385 . S
C687 C686 1.374 . S
C688 C685 1.499 . S
C688 C689 1.373 . S
C688 C690 1.389 . S
C689 H668 0.950 . S
C689 C688 1.373 . S
C689 C705 1.377 . S
C690 C688 1.389 . S
C690 C691 1.524 . S
C690 C704 1.377 . S
C691 C690 1.524 . S
C691 C692 1.397 . S
C691 C696 1.363 . S
C692 H669 0.950 . S
C692 C691 1.397 . S
C692 C693 1.334 . S
C693 H670 0.950 . S
C693 C692 1.334 . S
C693 C694 1.287 . S
C694 C693 1.287 . S
C694 C695 1.524 . S
C694 H713 0.913 . S
C695 H671 0.950 . S
C695 C694 1.524 . S
C695 C696 1.415 . S
C696 H672 0.950 . S
C696 C691 1.363 . S
C696 C695 1.415 . S
C697 H673 0.951 . S
C697 C698 1.366 . S
C697 C699 1.388 . S
C698 C697 1.366 . S
C698 C702 1.385 . S
C699 H674 0.951 . S
C699 C697 1.388 . S
C699 C700 1.366 . S
C700 C699 1.366 . S
C700 C701 1.414 . S
C700 C703 1.499 . S
C701 H675 0.950 . S
C701 C700 1.414 . S
C701 C702 1.374 . S
C702 H676 0.950 . S
C702 C698 1.385 . S
C702 C701 1.374 . S
C703 C700 1.499 . S
C703 C704 1.373 . S
C703 C705 1.389 . S
C704 H677 0.950 . S
C704 C690 1.377 . S
C704 C703 1.373 . S
C705 C689 1.377 . S
C705 C703 1.389 . S
C705 C706 1.524 . S
C706 C705 1.524 . S
C706 C707 1.397 . S
C706 C711 1.363 . S
C707 H678 0.950 . S
C707 C706 1.397 . S
C707 C708 1.334 . S
C708 H679 0.950 . S
C708 C707 1.334 . S
C708 C709 1.287 . S
C709 C708 1.287 . S
C709 C710 1.524 . S
C709 H712 0.999 1_565 S
C710 H680 0.950 . S
C710 C709 1.524 . S
C710 C711 1.415 . S
C711 H681 0.950 . S
C711 C706 1.363 . S
C711 C710 1.415 . S
H712 C709 0.999 1_545 S
H713 C694 0.913 . S
H714 C732 0.951 . S
H715 C734 0.951 . S
H716 C736 0.950 . S
H717 C737 0.950 . S
H718 C739 0.950 . S
H719 C742 0.950 . S
H720 C743 0.950 . S
H721 C745 0.950 . S
H722 C746 0.950 . S
H723 C747 0.951 . S
H724 C749 0.951 . S
H725 C751 0.950 . S
H726 C752 0.950 . S
H727 C754 0.950 . S
H728 C757 0.950 . S
H729 C758 0.950 . S
H730 C760 0.950 . S
H731 C761 0.950 . S
C732 H714 0.951 . S
C732 C733 1.366 . S
C732 C734 1.388 . S
C733 C732 1.366 . S
C733 C737 1.385 . S
C734 H715 0.951 . S
C734 C732 1.388 . S
C734 C735 1.366 . S
C735 C734 1.366 . S
C735 C736 1.414 . S
C735 C738 1.499 . S
C736 H716 0.950 . S
C736 C735 1.414 . S
C736 C737 1.374 . S
C737 H717 0.950 . S
C737 C733 1.385 . S
C737 C736 1.374 . S
C738 C735 1.499 . S
C738 C739 1.373 . S
C738 C740 1.389 . S
C739 H718 0.950 . S
C739 C738 1.373 . S
C739 C755 1.377 . S
C740 C738 1.389 . S
C740 C741 1.524 . S
C740 C754 1.377 . S
C741 C740 1.524 . S
C741 C742 1.397 . S
C741 C746 1.363 . S
C742 H719 0.950 . S
C742 C741 1.397 . S
C742 C743 1.334 . S
C743 H720 0.950 . S
C743 C742 1.334 . S
C743 C744 1.287 . S
C744 C743 1.287 . S
C744 C745 1.524 . S
C744 H763 0.913 . S
C745 H721 0.950 . S
C745 C744 1.524 . S
C745 C746 1.415 . S
C746 H722 0.950 . S
C746 C741 1.363 . S
C746 C745 1.415 . S
C747 H723 0.951 . S
C747 C748 1.366 . S
C747 C749 1.388 . S
C748 C747 1.366 . S
C748 C752 1.385 . S
C749 H724 0.951 . S
C749 C747 1.388 . S
C749 C750 1.366 . S
C750 C749 1.366 . S
C750 C751 1.414 . S
C750 C753 1.499 . S
C751 H725 0.950 . S
C751 C750 1.414 . S
C751 C752 1.374 . S
C752 H726 0.950 . S
C752 C748 1.385 . S
C752 C751 1.374 . S
C753 C750 1.499 . S
C753 C754 1.373 . S
C753 C755 1.389 . S
C754 H727 0.950 . S
C754 C740 1.377 . S
C754 C753 1.373 . S
C755 C739 1.377 . S
C755 C753 1.389 . S
C755 C756 1.524 . S
C756 C755 1.524 . S
C756 C757 1.397 . S
C756 C761 1.363 . S
C757 H728 0.950 . S
C757 C756 1.397 . S
C757 C758 1.334 . S
C758 H729 0.950 . S
C758 C757 1.334 . S
C758 C759 1.287 . S
C759 C758 1.287 . S
C759 C760 1.524 . S
C759 H762 0.999 . S
C760 H730 0.950 . S
C760 C759 1.524 . S
C760 C761 1.415 . S
C761 H731 0.950 . S
C761 C756 1.363 . S
C761 C760 1.415 . S
H762 C759 0.999 . S
H763 C744 0.913 . S
H764 C782 0.951 . S
H765 C784 0.951 . S
H766 C786 0.950 . S
H767 C787 0.950 . S
H768 C789 0.950 . S
H769 C792 0.950 . S
H770 C793 0.950 . S
H771 C795 0.950 . S
H772 C796 0.950 . S
H773 C797 0.951 . S
H774 C799 0.951 . S
H775 C801 0.950 . S
H776 C802 0.950 . S
H777 C804 0.950 . S
H778 C807 0.950 . S
H779 C808 0.950 . S
H780 C810 0.950 . S
H781 C811 0.950 . S
C782 H764 0.951 . S
C782 C783 1.366 . S
C782 C784 1.388 . S
C783 C782 1.366 . S
C783 C787 1.385 . S
C784 H765 0.951 . S
C784 C782 1.388 . S
C784 C785 1.366 . S
C785 C784 1.366 . S
C785 C786 1.414 . S
C785 C788 1.499 . S
C786 H766 0.950 . S
C786 C785 1.414 . S
C786 C787 1.374 . S
C787 H767 0.950 . S
C787 C783 1.385 . S
C787 C786 1.374 . S
C788 C785 1.499 . S
C788 C789 1.373 . S
C788 C790 1.389 . S
C789 H768 0.950 . S
C789 C788 1.373 . S
C789 C805 1.377 . S
C790 C788 1.389 . S
C790 C791 1.524 . S
C790 C804 1.377 . S
C791 C790 1.524 . S
C791 C792 1.397 . S
C791 C796 1.363 . S
C792 H769 0.950 . S
C792 C791 1.397 . S
C792 C793 1.334 . S
C793 H770 0.950 . S
C793 C792 1.334 . S
C793 C794 1.287 . S
C794 C793 1.287 . S
C794 C795 1.524 . S
C794 H813 0.913 . S
C795 H771 0.950 . S
C795 C794 1.524 . S
C795 C796 1.415 . S
C796 H772 0.950 . S
C796 C791 1.363 . S
C796 C795 1.415 . S
C797 H773 0.951 . S
C797 C798 1.366 . S
C797 C799 1.388 . S
C798 C797 1.366 . S
C798 C802 1.385 . S
C799 H774 0.951 . S
C799 C797 1.388 . S
C799 C800 1.366 . S
C800 C799 1.366 . S
C800 C801 1.414 . S
C800 C803 1.499 . S
C801 H775 0.950 . S
C801 C800 1.414 . S
C801 C802 1.374 . S
C802 H776 0.950 . S
C802 C798 1.385 . S
C802 C801 1.374 . S
C803 C800 1.499 . S
C803 C804 1.373 . S
C803 C805 1.389 . S
C804 H777 0.950 . S
C804 C790 1.377 . S
C804 C803 1.373 . S
C805 C789 1.377 . S
C805 C803 1.389 . S
C805 C806 1.524 . S
C806 C805 1.524 . S
C806 C807 1.397 . S
C806 C811 1.363 . S
C807 H778 0.950 . S
C807 C806 1.397 . S
C807 C808 1.334 . S
C808 H779 0.950 . S
C808 C807 1.334 . S
C808 C809 1.287 . S
C809 C808 1.287 . S
C809 C810 1.524 . S
C809 H812 0.999 . S
C810 H780 0.950 . S
C810 C809 1.524 . S
C810 C811 1.415 . S
C811 H781 0.950 . S
C811 C806 1.363 . S
C811 C810 1.415 . S
H812 C809 0.999 . S
H813 C794 0.913 . S
H814 C832 0.951 . S
H815 C834 0.951 . S
H816 C836 0.950 . S
H817 C837 0.950 . S
H818 C839 0.950 . S
H819 C842 0.950 . S
H820 C843 0.950 . S
H821 C845 0.950 . S
H822 C846 0.950 . S
H823 C847 0.951 . S
H824 C849 0.951 . S
H825 C851 0.950 . S
H826 C852 0.950 . S
H827 C854 0.950 . S
H828 C857 0.950 . S
H829 C858 0.950 . S
H830 C860 0.950 . S
H831 C861 0.950 . S
C832 H814 0.951 . S
C832 C833 1.366 . S
C832 C834 1.388 . S
C833 C832 1.366 . S
C833 C837 1.385 . S
C834 H815 0.951 . S
C834 C832 1.388 . S
C834 C835 1.366 . S
C835 C834 1.366 . S
C835 C836 1.414 . S
C835 C838 1.499 . S
C836 H816 0.950 . S
C836 C835 1.414 . S
C836 C837 1.374 . S
C837 H817 0.950 . S
C837 C833 1.385 . S
C837 C836 1.374 . S
C838 C835 1.499 . S
C838 C839 1.373 . S
C838 C840 1.389 . S
C839 H818 0.950 . S
C839 C838 1.373 . S
C839 C855 1.377 . S
C840 C838 1.389 . S
C840 C841 1.524 . S
C840 C854 1.377 . S
C841 C840 1.524 . S
C841 C842 1.397 . S
C841 C846 1.363 . S
C842 H819 0.950 . S
C842 C841 1.397 . S
C842 C843 1.334 . S
C843 H820 0.950 . S
C843 C842 1.334 . S
C843 C844 1.287 . S
C844 C843 1.287 . S
C844 C845 1.524 . S
C844 H863 0.913 . S
C845 H821 0.950 . S
C845 C844 1.524 . S
C845 C846 1.415 . S
C846 H822 0.950 . S
C846 C841 1.363 . S
C846 C845 1.415 . S
C847 H823 0.951 . S
C847 C848 1.366 . S
C847 C849 1.388 . S
C848 C847 1.366 . S
C848 C852 1.385 . S
C849 H824 0.951 . S
C849 C847 1.388 . S
C849 C850 1.366 . S
C850 C849 1.366 . S
C850 C851 1.414 . S
C850 C853 1.499 . S
C851 H825 0.950 . S
C851 C850 1.414 . S
C851 C852 1.374 . S
C852 H826 0.950 . S
C852 C848 1.385 . S
C852 C851 1.374 . S
C853 C850 1.499 . S
C853 C854 1.373 . S
C853 C855 1.389 . S
C854 H827 0.950 . S
C854 C840 1.377 . S
C854 C853 1.373 . S
C855 C839 1.377 . S
C855 C853 1.389 . S
C855 C856 1.524 . S
C856 C855 1.524 . S
C856 C857 1.397 . S
C856 C861 1.363 . S
C857 H828 0.950 . S
C857 C856 1.397 . S
C857 C858 1.334 . S
C858 H829 0.950 . S
C858 C857 1.334 . S
C858 C859 1.287 . S
C859 C858 1.287 . S
C859 C860 1.524 . S
C859 H862 0.999 . S
C860 H830 0.950 . S
C860 C859 1.524 . S
C860 C861 1.415 . S
C861 H831 0.950 . S
C861 C856 1.363 . S
C861 C860 1.415 . S
H862 C859 0.999 . S
H863 C844 0.913 . S
H864 C882 0.951 . S
H865 C884 0.951 . S
H866 C886 0.950 . S
H867 C887 0.950 . S
H868 C889 0.950 . S
H869 C892 0.950 . S
H870 C893 0.950 . S
H871 C895 0.950 . S
H872 C896 0.950 . S
H873 C897 0.951 . S
H874 C899 0.951 . S
H875 C901 0.950 . S
H876 C902 0.950 . S
H877 C904 0.950 . S
H878 C907 0.950 . S
H879 C908 0.950 . S
H880 C910 0.950 . S
H881 C911 0.950 . S
C882 H864 0.951 . S
C882 C883 1.366 . S
C882 C884 1.388 . S
C883 C882 1.366 . S
C883 C887 1.385 . S
C884 H865 0.951 . S
C884 C882 1.388 . S
C884 C885 1.366 . S
C885 C884 1.366 . S
C885 C886 1.414 . S
C885 C888 1.499 . S
C886 H866 0.950 . S
C886 C885 1.414 . S
C886 C887 1.374 . S
C887 H867 0.950 . S
C887 C883 1.385 . S
C887 C886 1.374 . S
C888 C885 1.499 . S
C888 C889 1.373 . S
C888 C890 1.389 . S
C889 H868 0.950 . S
C889 C888 1.373 . S
C889 C905 1.377 . S
C890 C888 1.389 . S
C890 C891 1.524 . S
C890 C904 1.377 . S
C891 C890 1.524 . S
C891 C892 1.397 . S
C891 C896 1.363 . S
C892 H869 0.950 . S
C892 C891 1.397 . S
C892 C893 1.334 . S
C893 H870 0.950 . S
C893 C892 1.334 . S
C893 C894 1.287 . S
C894 C893 1.287 . S
C894 C895 1.524 . S
C894 H913 0.913 . S
C895 H871 0.950 . S
C895 C894 1.524 . S
C895 C896 1.415 . S
C896 H872 0.950 . S
C896 C891 1.363 . S
C896 C895 1.415 . S
C897 H873 0.951 . S
C897 C898 1.366 . S
C897 C899 1.388 . S
C898 C897 1.366 . S
C898 C902 1.385 . S
C899 H874 0.951 . S
C899 C897 1.388 . S
C899 C900 1.366 . S
C900 C899 1.366 . S
C900 C901 1.414 . S
C900 C903 1.499 . S
C901 H875 0.950 . S
C901 C900 1.414 . S
C901 C902 1.374 . S
C902 H876 0.950 . S
C902 C898 1.385 . S
C902 C901 1.374 . S
C903 C900 1.499 . S
C903 C904 1.373 . S
C903 C905 1.389 . S
C904 H877 0.950 . S
C904 C890 1.377 . S
C904 C903 1.373 . S
C905 C889 1.377 . S
C905 C903 1.389 . S
C905 C906 1.524 . S
C906 C905 1.524 . S
C906 C907 1.397 . S
C906 C911 1.363 . S
C907 H878 0.950 . S
C907 C906 1.397 . S
C907 C908 1.334 . S
C908 H879 0.950 . S
C908 C907 1.334 . S
C908 C909 1.287 . S
C909 C908 1.287 . S
C909 C910 1.524 . S
C909 H912 0.999 . S
C910 H880 0.950 . S
C910 C909 1.524 . S
C910 C911 1.415 . S
C911 H881 0.950 . S
C911 C906 1.363 . S
C911 C910 1.415 . S
H912 C909 0.999 . S
H913 C894 0.913 . S
H914 C932 0.951 . S
H915 C934 0.951 . S
H916 C936 0.950 . S
H917 C937 0.950 . S
H918 C939 0.950 . S
H919 C942 0.950 . S
H920 C943 0.950 . S
H921 C945 0.950 . S
H922 C946 0.950 . S
H923 C947 0.951 . S
H924 C949 0.951 . S
H925 C951 0.950 . S
H926 C952 0.950 . S
H927 C954 0.950 . S
H928 C957 0.950 . S
H929 C958 0.950 . S
H930 C960 0.950 . S
H931 C961 0.950 . S
C932 H914 0.951 . S
C932 C933 1.366 . S
C932 C934 1.388 . S
C933 C932 1.366 . S
C933 C937 1.385 . S
C934 H915 0.951 . S
C934 C932 1.388 . S
C934 C935 1.366 . S
C935 C934 1.366 . S
C935 C936 1.414 . S
C935 C938 1.499 . S
C936 H916 0.950 . S
C936 C935 1.414 . S
C936 C937 1.374 . S
C937 H917 0.950 . S
C937 C933 1.385 . S
C937 C936 1.374 . S
C938 C935 1.499 . S
C938 C939 1.373 . S
C938 C940 1.389 . S
C939 H918 0.950 . S
C939 C938 1.373 . S
C939 C955 1.377 . S
C940 C938 1.389 . S
C940 C941 1.524 . S
C940 C954 1.377 . S
C941 C940 1.524 . S
C941 C942 1.397 . S
C941 C946 1.363 . S
C942 H919 0.950 . S
C942 C941 1.397 . S
C942 C943 1.334 . S
C943 H920 0.950 . S
C943 C942 1.334 . S
C943 C944 1.287 . S
C944 C943 1.287 . S
C944 C945 1.524 . S
C944 H963 0.913 . S
C945 H921 0.950 . S
C945 C944 1.524 . S
C945 C946 1.415 . S
C946 H922 0.950 . S
C946 C941 1.363 . S
C946 C945 1.415 . S
C947 H923 0.951 . S
C947 C948 1.366 . S
C947 C949 1.388 . S
C948 C947 1.366 . S
C948 C952 1.385 . S
C949 H924 0.951 . S
C949 C947 1.388 . S
C949 C950 1.366 . S
C950 C949 1.366 . S
C950 C951 1.414 . S
C950 C953 1.499 . S
C951 H925 0.950 . S
C951 C950 1.414 . S
C951 C952 1.374 . S
C952 H926 0.950 . S
C952 C948 1.385 . S
C952 C951 1.374 . S
C953 C950 1.499 . S
C953 C954 1.373 . S
C953 C955 1.389 . S
C954 H927 0.950 . S
C954 C940 1.377 . S
C954 C953 1.373 . S
C955 C939 1.377 . S
C955 C953 1.389 . S
C955 C956 1.524 . S
C956 C955 1.524 . S
C956 C957 1.397 . S
C956 C961 1.363 . S
C957 H928 0.950 . S
C957 C956 1.397 . S
C957 C958 1.334 . S
C958 H929 0.950 . S
C958 C957 1.334 . S
C958 C959 1.287 . S
C959 C958 1.287 . S
C959 C960 1.524 . S
C959 H962 0.999 . S
C960 H930 0.950 . S
C960 C959 1.524 . S
C960 C961 1.415 . S
C961 H931 0.950 . S
C961 C956 1.363 . S
C961 C960 1.415 . S
H962 C959 0.999 . S
H963 C944 0.913 . S
H964 C982 0.951 . S
H965 C984 0.951 . S
H966 C986 0.950 . S
H967 C987 0.950 . S
H968 C989 0.950 . S
H969 C992 0.950 . S
H970 C993 0.950 . S
H971 C995 0.950 . S
H972 C996 0.950 . S
H973 C997 0.951 . S
H974 C999 0.951 . S
H975 C1001 0.950 . S
H976 C1002 0.950 . S
H977 C1004 0.950 . S
H978 C1007 0.950 . S
H979 C1008 0.950 . S
H980 C1010 0.950 . S
H981 C1011 0.950 . S
C982 H964 0.951 . S
C982 C983 1.366 . S
C982 C984 1.388 . S
C983 C982 1.366 . S
C983 C987 1.385 . S
C984 H965 0.951 . S
C984 C982 1.388 . S
C984 C985 1.366 . S
C985 C984 1.366 . S
C985 C986 1.414 . S
C985 C988 1.499 . S
C986 H966 0.950 . S
C986 C985 1.414 . S
C986 C987 1.374 . S
C987 H967 0.950 . S
C987 C983 1.385 . S
C987 C986 1.374 . S
C988 C985 1.499 . S
C988 C989 1.373 . S
C988 C990 1.389 . S
C989 H968 0.950 . S
C989 C988 1.373 . S
C989 C1005 1.377 . S
C990 C988 1.389 . S
C990 C991 1.524 . S
C990 C1004 1.377 . S
C991 C990 1.524 . S
C991 C992 1.397 . S
C991 C996 1.363 . S
C992 H969 0.950 . S
C992 C991 1.397 . S
C992 C993 1.334 . S
C993 H970 0.950 . S
C993 C992 1.334 . S
C993 C994 1.287 . S
C994 C993 1.287 . S
C994 C995 1.524 . S
C994 H1013 0.913 . S
C995 H971 0.950 . S
C995 C994 1.524 . S
C995 C996 1.415 . S
C996 H972 0.950 . S
C996 C991 1.363 . S
C996 C995 1.415 . S
C997 H973 0.951 . S
C997 C998 1.366 . S
C997 C999 1.388 . S
C998 C997 1.366 . S
C998 C1002 1.385 . S
C999 H974 0.951 . S
C999 C997 1.388 . S
C999 C1000 1.366 . S
C1000 C999 1.366 . S
C1000 C1001 1.414 . S
C1000 C1003 1.499 . S
C1001 H975 0.950 . S
C1001 C1000 1.414 . S
C1001 C1002 1.374 . S
C1002 H976 0.950 . S
C1002 C998 1.385 . S
C1002 C1001 1.374 . S
C1003 C1000 1.499 . S
C1003 C1004 1.373 . S
C1003 C1005 1.389 . S
C1004 H977 0.950 . S
C1004 C990 1.377 . S
C1004 C1003 1.373 . S
C1005 C989 1.377 . S
C1005 C1003 1.389 . S
C1005 C1006 1.524 . S
C1006 C1005 1.524 . S
C1006 C1007 1.397 . S
C1006 C1011 1.363 . S
C1007 H978 0.950 . S
C1007 C1006 1.397 . S
C1007 C1008 1.334 . S
C1008 H979 0.950 . S
C1008 C1007 1.334 . S
C1008 C1009 1.287 . S
C1009 C1008 1.287 . S
C1009 C1010 1.524 . S
C1009 H1012 0.999 . S
C1010 H980 0.950 . S
C1010 C1009 1.524 . S
C1010 C1011 1.415 . S
C1011 H981 0.950 . S
C1011 C1006 1.363 . S
C1011 C1010 1.415 . S
H1012 C1009 0.999 . S
H1013 C994 0.913 . S
H1014 C1032 0.951 . S
H1015 C1034 0.951 . S
H1016 C1036 0.950 . S
H1017 C1037 0.950 . S
H1018 C1039 0.950 . S
H1019 C1042 0.950 . S
H1020 C1043 0.950 . S
H1021 C1045 0.950 . S
H1022 C1046 0.950 . S
H1023 C1047 0.951 . S
H1024 C1049 0.951 . S
H1025 C1051 0.950 . S
H1026 C1052 0.950 . S
H1027 C1054 0.950 . S
H1028 C1057 0.950 . S
H1029 C1058 0.950 . S
H1030 C1060 0.950 . S
H1031 C1061 0.950 . S
C1032 H1014 0.951 . S
C1032 C1033 1.366 . S
C1032 C1034 1.388 . S
C1033 C1032 1.366 . S
C1033 C1037 1.385 . S
C1034 H1015 0.951 . S
C1034 C1032 1.388 . S
C1034 C1035 1.366 . S
C1035 C1034 1.366 . S
C1035 C1036 1.414 . S
C1035 C1038 1.499 . S
C1036 H1016 0.950 . S
C1036 C1035 1.414 . S
C1036 C1037 1.374 . S
C1037 H1017 0.950 . S
C1037 C1033 1.385 . S
C1037 C1036 1.374 . S
C1038 C1035 1.499 . S
C1038 C1039 1.373 . S
C1038 C1040 1.389 . S
C1039 H1018 0.950 . S
C1039 C1038 1.373 . S
C1039 C1055 1.377 . S
C1040 C1038 1.389 . S
C1040 C1041 1.524 . S
C1040 C1054 1.377 . S
C1041 C1040 1.524 . S
C1041 C1042 1.397 . S
C1041 C1046 1.363 . S
C1042 H1019 0.950 . S
C1042 C1041 1.397 . S
C1042 C1043 1.334 . S
C1043 H1020 0.950 . S
C1043 C1042 1.334 . S
C1043 C1044 1.287 . S
C1044 C1043 1.287 . S
C1044 C1045 1.524 . S
C1044 H1063 0.913 . S
C1045 H1021 0.950 . S
C1045 C1044 1.524 . S
C1045 C1046 1.415 . S
C1046 H1022 0.950 . S
C1046 C1041 1.363 . S
C1046 C1045 1.415 . S
C1047 H1023 0.951 . S
C1047 C1048 1.366 . S
C1047 C1049 1.388 . S
C1048 C1047 1.366 . S
C1048 C1052 1.385 . S
C1049 H1024 0.951 . S
C1049 C1047 1.388 . S
C1049 C1050 1.366 . S
C1050 C1049 1.366 . S
C1050 C1051 1.414 . S
C1050 C1053 1.499 . S
C1051 H1025 0.950 . S
C1051 C1050 1.414 . S
C1051 C1052 1.374 . S
C1052 H1026 0.950 . S
C1052 C1048 1.385 . S
C1052 C1051 1.374 . S
C1053 C1050 1.499 . S
C1053 C1054 1.373 . S
C1053 C1055 1.389 . S
C1054 H1027 0.950 . S
C1054 C1040 1.377 . S
C1054 C1053 1.373 . S
C1055 C1039 1.377 . S
C1055 C1053 1.389 . S
C1055 C1056 1.524 . S
C1056 C1055 1.524 . S
C1056 C1057 1.397 . S
C1056 C1061 1.363 . S
C1057 H1028 0.950 . S
C1057 C1056 1.397 . S
C1057 C1058 1.334 . S
C1058 H1029 0.950 . S
C1058 C1057 1.334 . S
C1058 C1059 1.287 . S
C1059 C1058 1.287 . S
C1059 C1060 1.524 . S
C1059 H1062 0.999 . S
C1060 H1030 0.950 . S
C1060 C1059 1.524 . S
C1060 C1061 1.415 . S
C1061 H1031 0.950 . S
C1061 C1056 1.363 . S
C1061 C1060 1.415 . S
H1062 C1059 0.999 . S
H1063 C1044 0.913 . S
H1064 C1082 0.951 . S
H1065 C1084 0.951 . S
H1066 C1086 0.950 . S
H1067 C1087 0.950 . S
H1068 C1089 0.950 . S
H1069 C1092 0.950 . S
H1070 C1093 0.950 . S
H1071 C1095 0.950 . S
H1072 C1096 0.950 . S
H1073 C1097 0.951 . S
H1074 C1099 0.951 . S
H1075 C1101 0.950 . S
H1076 C1102 0.950 . S
H1077 C1104 0.950 . S
H1078 C1107 0.950 . S
H1079 C1108 0.950 . S
H1080 C1110 0.950 . S
H1081 C1111 0.950 . S
C1082 H1064 0.951 . S
C1082 C1083 1.366 . S
C1082 C1084 1.388 . S
C1083 C1082 1.366 . S
C1083 C1087 1.385 . S
C1084 H1065 0.951 . S
C1084 C1082 1.388 . S
C1084 C1085 1.366 . S
C1085 C1084 1.366 . S
C1085 C1086 1.414 . S
C1085 C1088 1.499 . S
C1086 H1066 0.950 . S
C1086 C1085 1.414 . S
C1086 C1087 1.374 . S
C1087 H1067 0.950 . S
C1087 C1083 1.385 . S
C1087 C1086 1.374 . S
C1088 C1085 1.499 . S
C1088 C1089 1.373 . S
C1088 C1090 1.389 . S
C1089 H1068 0.950 . S
C1089 C1088 1.373 . S
C1089 C1105 1.377 1_545 S
C1090 C1088 1.389 . S
C1090 C1091 1.524 1_545 S
C1090 C1104 1.377 1_545 S
C1091 C1090 1.524 1_565 S
C1091 C1092 1.402 . S
C1091 C1096 1.359 1_565 S
C1092 H1069 0.950 . S
C1092 C1091 1.402 . S
C1092 C1093 1.334 . S
C1093 H1070 0.950 . S
C1093 C1092 1.334 . S
C1093 C1094 1.287 . S
C1094 C1093 1.287 . S
C1094 C1095 1.524 1_565 S
C1094 H1113 0.913 . S
C1095 H1071 0.950 . S
C1095 C1094 1.524 1_545 S
C1095 C1096 1.415 . S
C1096 H1072 0.950 . S
C1096 C1091 1.359 1_545 S
C1096 C1095 1.415 . S
C1097 H1073 0.951 . S
C1097 C1098 1.366 . S
C1097 C1099 1.388 . S
C1098 C1097 1.366 . S
C1098 C1102 1.385 . S
C1099 H1074 0.951 . S
C1099 C1097 1.388 . S
C1099 C1100 1.366 . S
C1100 C1099 1.366 . S
C1100 C1101 1.414 . S
C1100 C1103 1.499 . S
C1101 H1075 0.950 . S
C1101 C1100 1.414 . S
C1101 C1102 1.374 . S
C1102 H1076 0.950 . S
C1102 C1098 1.385 . S
C1102 C1101 1.374 . S
C1103 C1100 1.499 . S
C1103 C1104 1.373 . S
C1103 C1105 1.389 . S
C1104 H1077 0.950 . S
C1104 C1090 1.377 1_565 S
C1104 C1103 1.373 . S
C1105 C1089 1.377 1_565 S
C1105 C1103 1.389 . S
C1105 C1106 1.524 1_565 S
C1106 C1105 1.524 1_545 S
C1106 C1107 1.402 . S
C1106 C1111 1.359 1_545 S
C1107 H1078 0.950 . S
C1107 C1106 1.402 . S
C1107 C1108 1.334 . S
C1108 H1079 0.950 . S
C1108 C1107 1.334 . S
C1108 C1109 1.287 . S
C1109 C1108 1.287 . S
C1109 C1110 1.524 1_545 S
C1109 H1112 0.999 . S
C1110 H1080 0.950 . S
C1110 C1109 1.524 1_565 S
C1110 C1111 1.415 . S
C1111 H1081 0.950 . S
C1111 C1106 1.359 1_565 S
C1111 C1110 1.415 . S
H1112 C1109 0.999 . S
H1113 C1094 0.913 . S
H1114 C1132 0.951 . S
H1115 C1134 0.951 . S
H1116 C1136 0.950 . S
H1117 C1137 0.950 . S
H1118 C1139 0.950 . S
H1119 C1142 0.950 . S
H1120 C1143 0.950 . S
H1121 C1145 0.950 . S
H1122 C1146 0.950 . S
H1123 C1147 0.951 . S
H1124 C1149 0.951 . S
H1125 C1151 0.950 . S
H1126 C1152 0.950 . S
H1127 C1154 0.950 . S
H1128 C1157 0.950 . S
H1129 C1158 0.950 . S
H1130 C1160 0.950 . S
H1131 C1161 0.950 . S
C1132 H1114 0.951 . S
C1132 C1133 1.366 . S
C1132 C1134 1.388 . S
C1133 C1132 1.366 . S
C1133 C1137 1.385 . S
C1134 H1115 0.951 . S
C1134 C1132 1.388 . S
C1134 C1135 1.366 . S
C1135 C1134 1.366 . S
C1135 C1136 1.414 . S
C1135 C1138 1.499 . S
C1136 H1116 0.950 . S
C1136 C1135 1.414 . S
C1136 C1137 1.374 . S
C1137 H1117 0.950 . S
C1137 C1133 1.385 . S
C1137 C1136 1.374 . S
C1138 C1135 1.499 . S
C1138 C1139 1.373 1_545 S
C1138 C1140 1.389 1_554 S
C1139 H1118 0.950 . S
C1139 C1138 1.373 1_565 S
C1139 C1155 1.377 . S
C1140 C1138 1.389 1_556 S
C1140 C1141 1.524 . S
C1140 C1154 1.377 . S
C1141 C1140 1.524 . S
C1141 C1142 1.397 1_556 S
C1141 C1146 1.363 . S
C1142 H1119 0.950 . S
C1142 C1141 1.397 1_554 S
C1142 C1143 1.334 . S
C1143 H1120 0.950 . S
C1143 C1142 1.334 . S
C1143 C1144 1.287 1_554 S
C1144 C1143 1.287 1_556 S
C1144 C1145 1.524 . S
C1144 H1163 0.913 . S
C1145 H1121 0.950 . S
C1145 C1144 1.524 . S
C1145 C1146 1.415 . S
C1146 H1122 0.950 . S
C1146 C1141 1.363 . S
C1146 C1145 1.415 . S
C1147 H1123 0.951 . S
C1147 C1148 1.366 . S
C1147 C1149 1.388 . S
C1148 C1147 1.366 . S
C1148 C1152 1.385 . S
C1149 H1124 0.951 . S
C1149 C1147 1.388 . S
C1149 C1150 1.366 . S
C1150 C1149 1.366 . S
C1150 C1151 1.414 . S
C1150 C1153 1.499 . S
C1151 H1125 0.950 . S
C1151 C1150 1.414 . S
C1151 C1152 1.374 . S
C1152 H1126 0.950 . S
C1152 C1148 1.385 . S
C1152 C1151 1.374 . S
C1153 C1150 1.499 . S
C1153 C1154 1.373 1_565 S
C1153 C1155 1.389 1_556 S
C1154 H1127 0.950 . S
C1154 C1140 1.377 . S
C1154 C1153 1.373 1_545 S
C1155 C1139 1.377 . S
C1155 C1153 1.389 1_554 S
C1155 C1156 1.524 . S
C1156 C1155 1.524 . S
C1156 C1157 1.397 1_554 S
C1156 C1161 1.363 . S
C1157 H1128 0.950 . S
C1157 C1156 1.397 1_556 S
C1157 C1158 1.334 . S
C1158 H1129 0.950 . S
C1158 C1157 1.334 . S
C1158 C1159 1.287 1_556 S
C1159 C1158 1.287 1_554 S
C1159 C1160 1.524 . S
C1159 H1162 0.999 . S
C1160 H1130 0.950 . S
C1160 C1159 1.524 . S
C1160 C1161 1.415 . S
C1161 H1131 0.950 . S
C1161 C1156 1.363 . S
C1161 C1160 1.415 . S
H1162 C1159 0.999 . S
H1163 C1144 0.913 . S
H1164 C1182 0.951 . S
H1165 C1184 0.951 . S
H1166 C1186 0.950 . S
H1167 C1187 0.950 . S
H1168 C1189 0.950 . S
H1169 C1192 0.950 . S
H1170 C1193 0.950 . S
H1171 C1195 0.950 . S
H1172 C1196 0.950 . S
H1173 C1197 0.951 . S
H1174 C1199 0.951 . S
H1175 C1201 0.950 . S
H1176 C1202 0.950 . S
H1177 C1204 0.950 . S
H1178 C1207 0.950 . S
H1179 C1208 0.950 . S
H1180 C1210 0.950 . S
H1181 C1211 0.950 . S
C1182 H1164 0.951 . S
C1182 C1183 1.366 . S
C1182 C1184 1.388 . S
C1183 C1182 1.366 . S
C1183 C1187 1.385 . S
C1184 H1165 0.951 . S
C1184 C1182 1.388 . S
C1184 C1185 1.366 . S
C1185 C1184 1.366 . S
C1185 C1186 1.414 . S
C1185 C1188 1.499 . S
C1186 H1166 0.950 . S
C1186 C1185 1.414 . S
C1186 C1187 1.374 . S
C1187 H1167 0.950 . S
C1187 C1183 1.385 . S
C1187 C1186 1.374 . S
C1188 C1185 1.499 . S
C1188 C1189 1.373 . S
C1188 C1190 1.418 . S
C1189 H1168 0.950 . S
C1189 C1188 1.373 . S
C1189 C1205 1.348 1_455 S
C1190 C1188 1.418 . S
C1190 C1191 1.524 . S
C1190 C1204 1.348 1_455 S
C1191 C1190 1.524 . S
C1191 C1192 1.438 . S
C1191 C1196 1.324 1_455 S
C1192 H1169 0.950 . S
C1192 C1191 1.438 . S
C1192 C1193 1.334 . S
C1193 H1170 0.950 . S
C1193 C1192 1.334 . S
C1193 C1194 1.287 . S
C1194 C1193 1.287 . S
C1194 C1195 1.524 1_455 S
C1194 H1213 0.913 . S
C1195 H1171 0.950 . S
C1195 C1194 1.524 1_655 S
C1195 C1196 1.415 . S
C1196 H1172 0.950 . S
C1196 C1191 1.324 1_655 S
C1196 C1195 1.415 . S
C1197 H1173 0.951 . S
C1197 C1198 1.366 . S
C1197 C1199 1.388 . S
C1198 C1197 1.366 . S
C1198 C1202 1.385 . S
C1199 H1174 0.951 . S
C1199 C1197 1.388 . S
C1199 C1200 1.366 . S
C1200 C1199 1.366 . S
C1200 C1201 1.414 . S
C1200 C1203 1.499 . S
C1201 H1175 0.950 . S
C1201 C1200 1.414 . S
C1201 C1202 1.374 . S
C1202 H1176 0.950 . S
C1202 C1198 1.385 . S
C1202 C1201 1.374 . S
C1203 C1200 1.499 . S
C1203 C1204 1.373 . S
C1203 C1205 1.418 . S
C1204 H1177 0.950 . S
C1204 C1190 1.348 1_655 S
C1204 C1203 1.373 . S
C1205 C1189 1.348 1_655 S
C1205 C1203 1.418 . S
C1205 C1206 1.524 . S
C1206 C1205 1.524 . S
C1206 C1207 1.438 . S
C1206 C1211 1.324 1_655 S
C1207 H1178 0.950 . S
C1207 C1206 1.438 . S
C1207 C1208 1.334 . S
C1208 H1179 0.950 . S
C1208 C1207 1.334 . S
C1208 C1209 1.287 . S
C1209 C1208 1.287 . S
C1209 C1210 1.524 1_655 S
C1209 H1212 0.999 . S
C1210 H1180 0.950 . S
C1210 C1209 1.524 1_455 S
C1210 C1211 1.415 . S
C1211 H1181 0.950 . S
C1211 C1206 1.324 1_455 S
C1211 C1210 1.415 . S
H1212 C1209 0.999 . S
H1213 C1194 0.913 . S
H1214 C1232 0.951 . S
H1215 C1234 0.951 . S
H1216 C1236 0.950 . S
H1217 C1237 0.950 . S
H1218 C1239 0.950 . S
H1219 C1242 0.950 1_554 S
H1220 C1243 0.950 . S
H1221 C1245 0.950 . S
H1222 C1246 0.950 . S
H1223 C1247 0.951 . S
H1224 C1249 0.951 . S
H1225 C1251 0.950 . S
H1226 C1252 0.950 . S
H1227 C1254 0.950 . S
H1228 C1257 0.950 1_556 S
H1229 C1258 0.950 . S
H1230 C1260 0.950 . S
H1231 C1261 0.950 . S
C1232 H1214 0.951 . S
C1232 C1233 1.366 . S
C1232 C1234 1.388 . S
C1233 C1232 1.366 . S
C1233 C1237 1.385 . S
C1234 H1215 0.951 . S
C1234 C1232 1.388 . S
C1234 C1235 1.366 . S
C1235 C1234 1.366 . S
C1235 C1236 1.414 . S
C1235 C1238 1.499 . S
C1236 H1216 0.950 . S
C1236 C1235 1.414 . S
C1236 C1237 1.374 . S
C1237 H1217 0.950 . S
C1237 C1233 1.385 . S
C1237 C1236 1.374 . S
C1238 C1235 1.499 . S
C1238 C1239 1.373 . S
C1238 C1240 1.389 1_554 S
C1239 H1218 0.950 . S
C1239 C1238 1.373 . S
C1239 C1255 1.377 1_455 S
C1240 C1238 1.389 1_556 S
C1240 C1241 1.524 . S
C1240 C1254 1.377 1_455 S
C1241 C1240 1.524 . S
C1241 C1242 1.397 . S
C1241 C1246 1.363 . S
C1242 H1219 0.950 1_556 S
C1242 C1241 1.397 . S
C1242 C1243 1.334 . S
C1243 H1220 0.950 . S
C1243 C1242 1.334 . S
C1243 C1244 1.287 . S
C1244 C1243 1.287 . S
C1244 C1245 1.524 . S
C1244 H1263 0.913 . S
C1245 H1221 0.950 . S
C1245 C1244 1.524 . S
C1245 C1246 1.415 . S
C1246 H1222 0.950 . S
C1246 C1241 1.363 . S
C1246 C1245 1.415 . S
C1247 H1223 0.951 . S
C1247 C1248 1.366 . S
C1247 C1249 1.388 . S
C1248 C1247 1.366 . S
C1248 C1252 1.385 . S
C1249 H1224 0.951 . S
C1249 C1247 1.388 . S
C1249 C1250 1.366 . S
C1250 C1249 1.366 . S
C1250 C1251 1.414 . S
C1250 C1253 1.499 . S
C1251 H1225 0.950 . S
C1251 C1250 1.414 . S
C1251 C1252 1.374 . S
C1252 H1226 0.950 . S
C1252 C1248 1.385 . S
C1252 C1251 1.374 . S
C1253 C1250 1.499 . S
C1253 C1254 1.373 . S
C1253 C1255 1.389 1_556 S
C1254 H1227 0.950 . S
C1254 C1240 1.377 1_655 S
C1254 C1253 1.373 . S
C1255 C1239 1.377 1_655 S
C1255 C1253 1.389 1_554 S
C1255 C1256 1.524 . S
C1256 C1255 1.524 . S
C1256 C1257 1.397 . S
C1256 C1261 1.363 . S
C1257 H1228 0.950 1_554 S
C1257 C1256 1.397 . S
C1257 C1258 1.334 . S
C1258 H1229 0.950 . S
C1258 C1257 1.334 . S
C1258 C1259 1.287 . S
C1259 C1258 1.287 . S
C1259 C1260 1.524 . S
C1259 H1262 0.999 . S
C1260 H1230 0.950 . S
C1260 C1259 1.524 . S
C1260 C1261 1.415 . S
C1261 H1231 0.950 . S
C1261 C1256 1.363 . S
C1261 C1260 1.415 . S
H1262 C1259 0.999 . S
H1263 C1244 0.913 . S
C283 N212 2.132 . S
C298 N14 2.132 . S
C333 N47 2.132 . S
C348 N245 2.132 . S
C383 N80 2.132 . S
C398 N146 2.132 . S
C433 N113 2.132 . S
C448 N179 2.132 . S
C483 N38 1.482 . S
C498 N5 1.483 . S
C533 N71 1.482 . S
C548 N104 1.483 . S
C583 N170 1.482 . S
C598 N137 1.483 . S
C633 N203 1.483 . S
C648 N236 1.482 . S
C683 C173 1.003 . S
C698 C17 1.008 . S
C733 C50 1.008 . S
C748 C140 1.002 . S
C783 C83 1.008 . S
C798 C239 1.003 . S
C833 C206 1.003 . S
C848 C116 1.008 . S
C883 C149 1.008 . S
C898 C41 1.003 . S
C933 C182 1.009 . S
C948 C8 1.002 . S
C983 C215 1.008 . S
C998 C107 1.003 . S
C1033 C74 1.003 . S
C1048 C248 1.008 . S
C1083 C28 1.244 . S
C1098 C94 1.244 . S
C1133 C61 1.243 . S
C1148 C127 1.243 . S
C1183 C226 1.244 . S
C1198 C160 1.244 . S
C1233 C193 1.244 . S
C1248 C259 1.244 . S
