# Generated by pormake.
# Topology upb, (4)-cn, num edge types: 1
# Building blocks:
#     Node 0, Type 0, BuildingBlock: UXUYUI_clean_sbu_0, # of connection points: 4
#     Node 1, Type 0, BuildingBlock: UXUYUI_clean_sbu_0, # of connection points: 4
#     Node 2, Type 0, BuildingBlock: UXUYUI_clean_sbu_0, # of connection points: 4
#     Node 3, Type 0, BuildingBlock: UXUYUI_clean_sbu_0, # of connection points: 4
#     Node 4, Type 0, BuildingBlock: UXUYUI_clean_sbu_0, # of connection points: 4
#     Node 5, Type 0, BuildingBlock: UXUYUI_clean_sbu_0, # of connection points: 4
#     Node 6, Type 0, BuildingBlock: UXUYUI_clean_sbu_0, # of connection points: 4
#     Node 7, Type 0, BuildingBlock: UXUYUI_clean_sbu_0, # of connection points: 4
#     Node 8, Type 0, BuildingBlock: UXUYUI_clean_sbu_0, # of connection points: 4
#     Node 9, Type 0, BuildingBlock: UXUYUI_clean_sbu_0, # of connection points: 4
#     Node 10, Type 0, BuildingBlock: UXUYUI_clean_sbu_0, # of connection points: 4
#     Node 11, Type 0, BuildingBlock: UXUYUI_clean_sbu_0, # of connection points: 4
#     Node 12, Type 0, BuildingBlock: UXUYUI_clean_sbu_0, # of connection points: 4
#     Node 13, Type 0, BuildingBlock: UXUYUI_clean_sbu_0, # of connection points: 4
#     Node 14, Type 0, BuildingBlock: UXUYUI_clean_sbu_0, # of connection points: 4
#     Node 15, Type 0, BuildingBlock: UXUYUI_clean_sbu_0, # of connection points: 4
#     Edge 16, Type (0, 0), BuildingBlock: OJICUG_clean_linker_0, # of connection points: 2
#     Edge 17, Type (0, 0), BuildingBlock: OJICUG_clean_linker_0, # of connection points: 2
#     Edge 18, Type (0, 0), BuildingBlock: OJICUG_clean_linker_0, # of connection points: 2
#     Edge 19, Type (0, 0), BuildingBlock: OJICUG_clean_linker_0, # of connection points: 2
#     Edge 20, Type (0, 0), BuildingBlock: OJICUG_clean_linker_0, # of connection points: 2
#     Edge 21, Type (0, 0), BuildingBlock: OJICUG_clean_linker_0, # of connection points: 2
#     Edge 22, Type (0, 0), BuildingBlock: OJICUG_clean_linker_0, # of connection points: 2
#     Edge 23, Type (0, 0), BuildingBlock: OJICUG_clean_linker_0, # of connection points: 2
#     Edge 24, Type (0, 0), BuildingBlock: OJICUG_clean_linker_0, # of connection points: 2
#     Edge 25, Type (0, 0), BuildingBlock: OJICUG_clean_linker_0, # of connection points: 2
#     Edge 26, Type (0, 0), BuildingBlock: OJICUG_clean_linker_0, # of connection points: 2
#     Edge 27, Type (0, 0), BuildingBlock: OJICUG_clean_linker_0, # of connection points: 2
#     Edge 28, Type (0, 0), BuildingBlock: OJICUG_clean_linker_0, # of connection points: 2
#     Edge 29, Type (0, 0), BuildingBlock: OJICUG_clean_linker_0, # of connection points: 2
#     Edge 30, Type (0, 0), BuildingBlock: OJICUG_clean_linker_0, # of connection points: 2
#     Edge 31, Type (0, 0), BuildingBlock: OJICUG_clean_linker_0, # of connection points: 2
#     Edge 32, Type (0, 0), BuildingBlock: OJICUG_clean_linker_0, # of connection points: 2
#     Edge 33, Type (0, 0), BuildingBlock: OJICUG_clean_linker_0, # of connection points: 2
#     Edge 34, Type (0, 0), BuildingBlock: OJICUG_clean_linker_0, # of connection points: 2
#     Edge 35, Type (0, 0), BuildingBlock: OJICUG_clean_linker_0, # of connection points: 2
#     Edge 36, Type (0, 0), BuildingBlock: OJICUG_clean_linker_0, # of connection points: 2
#     Edge 37, Type (0, 0), BuildingBlock: OJICUG_clean_linker_0, # of connection points: 2
#     Edge 38, Type (0, 0), BuildingBlock: OJICUG_clean_linker_0, # of connection points: 2
#     Edge 39, Type (0, 0), BuildingBlock: OJICUG_clean_linker_0, # of connection points: 2
#     Edge 40, Type (0, 0), BuildingBlock: OJICUG_clean_linker_0, # of connection points: 2
#     Edge 41, Type (0, 0), BuildingBlock: OJICUG_clean_linker_0, # of connection points: 2
#     Edge 42, Type (0, 0), BuildingBlock: OJICUG_clean_linker_0, # of connection points: 2
#     Edge 43, Type (0, 0), BuildingBlock: OJICUG_clean_linker_0, # of connection points: 2
#     Edge 44, Type (0, 0), BuildingBlock: OJICUG_clean_linker_0, # of connection points: 2
#     Edge 45, Type (0, 0), BuildingBlock: OJICUG_clean_linker_0, # of connection points: 2
#     Edge 46, Type (0, 0), BuildingBlock: OJICUG_clean_linker_0, # of connection points: 2
#     Edge 47, Type (0, 0), BuildingBlock: OJICUG_clean_linker_0, # of connection points: 2
# Relax obj value: 0.322
# Max RMSD: 0.141
# Mean RMSD: 0.140
data_MOF--net-upb--node1-UXUYUI_clean_sbu_0--edge1-OJICUG_clean_linker_0
_symmetry_space_group_name_H-M    P1
_symmetry_Int_Tables_number       1
_symmetry_cell_setting            triclinic
loop_
_symmetry_equiv_pos_as_xyz
'x, y, z'
_cell_length_a     42.277367
_cell_length_b     42.229699
_cell_length_c     59.52873
_cell_angle_alpha  89.999456
_cell_angle_beta   90.001706
_cell_angle_gamma 90.008526
loop_
_atom_site_label
_atom_site_type_symbol
_atom_site_fract_x
_atom_site_fract_y
_atom_site_fract_z
_atom_type_partial_charge
Li0 Li 0.03269 0.27809 0.34626 0.0
Li1 Li 0.00394 0.31042 0.37376 0.0
Li2 Li 0.97539 0.28173 0.34429 0.0
Li3 Li 0.00723 0.32831 0.33592 0.0
C4 C 0.98406 0.23994 0.37657 0.0
N5 N 0.94508 0.19155 0.39104 0.0
C6 C 0.96386 0.24464 0.39486 0.0
C7 C 0.98462 0.21057 0.36575 0.0
C8 C 0.94433 0.21987 0.40192 0.0
C9 C 0.96465 0.18644 0.37327 0.0
C10 C 0.0613 0.33339 0.37336 0.0
C11 C 0.07304 0.37455 0.40019 0.0
N12 N 0.09699 0.3566 0.40859 0.0
C13 C 0.08614 0.31542 0.38217 0.0
C14 C 0.05478 0.36328 0.38234 0.0
C15 C 0.10388 0.32756 0.4 0.0
C16 C 0.09098 0.25624 0.32709 0.0
N17 N 0.06857 0.25111 0.34309 0.0
C18 C 0.09729 0.20671 0.3573 0.0
C19 C 0.07144 0.22716 0.35821 0.0
C20 C 0.12018 0.2108 0.34051 0.0
C21 C 0.11688 0.23584 0.32521 0.0
H22 H 0.08874 0.27611 0.31577 0.0
H23 H 0.05374 0.22409 0.37112 0.0
C24 C 0.98552 0.3427 0.41431 0.0
N25 N 0.00394 0.31995 0.40484 0.0
C26 C 0.98515 0.34651 0.43767 0.0
C27 C 0.02319 0.30395 0.44074 0.0
C28 C 0.02274 0.30092 0.41748 0.0
C29 C 0.00376 0.32654 0.45118 0.0
H30 H 0.97058 0.35728 0.40381 0.0
H31 H 0.03694 0.2829 0.40942 0.0
C32 C 0.02199 0.27352 0.3023 0.0
N33 N 0.0563 0.24559 0.26809 0.0
C34 C 0.03776 0.29229 0.28652 0.0
C35 C 0.02367 0.24053 0.30065 0.0
C36 C 0.05495 0.27772 0.26935 0.0
C37 C 0.04116 0.22687 0.28326 0.0
C38 C 0.95207 0.35089 0.34714 0.0
C39 C 0.92789 0.34619 0.33149 0.0
C40 C 0.95985 0.3816 0.35392 0.0
C41 C 0.91202 0.37244 0.3227 0.0
C42 C 0.94347 0.40722 0.34471 0.0
N43 N 0.9201 0.40215 0.32942 0.0
C44 C 0.91347 0.26039 0.35298 0.0
C45 C 0.93771 0.23656 0.32131 0.0
C46 C 0.88792 0.23952 0.35153 0.0
N47 N 0.93806 0.25792 0.33837 0.0
C48 C 0.91272 0.21517 0.31927 0.0
C49 C 0.88779 0.21596 0.33486 0.0
H50 H 0.91445 0.2776 0.36642 0.0
H51 H 0.95734 0.23534 0.30978 0.0
C52 C 0.03622 0.38398 0.32053 0.0
N53 N 0.01178 0.36384 0.31663 0.0
C54 C 0.04393 0.40721 0.30482 0.0
C55 C 0.00022 0.38951 0.28183 0.0
C56 C 0.99336 0.36657 0.29801 0.0
C57 C 0.02644 0.40957 0.28481 0.0
H58 H 0.05085 0.3809 0.33523 0.0
H59 H 0.97441 0.34984 0.29517 0.0
O60 O 0.00263 0.26419 0.36894 0.0
O61 O 0.04321 0.32165 0.35622 0.0
O62 O 0.00501 0.28735 0.31925 0.0
O63 O 0.96819 0.32555 0.35567 0.0
H64 H 0.96291 0.2673 0.40331 0.0
H65 H 1.00003 0.20659 0.35152 0.0
H66 H 0.92844 0.22322 0.41596 0.0
H67 H 0.96462 0.16368 0.36493 0.0
H68 H 0.0681 0.39752 0.40742 0.0
H69 H 0.09153 0.29226 0.37544 0.0
H70 H 0.03553 0.37742 0.37581 0.0
H71 H 0.12307 0.31384 0.40706 0.0
H72 H 0.09914 0.1876 0.36936 0.0
H73 H 0.13435 0.23981 0.3122 0.0
H74 H 0.96962 0.36402 0.44509 0.0
H75 H 0.03826 0.2884 0.45047 0.0
H76 H 0.03699 0.31782 0.28758 0.0
H77 H 0.01211 0.2256 0.31291 0.0
H78 H 0.06731 0.29197 0.25706 0.0
H79 H 0.04283 0.20138 0.28189 0.0
H80 H 0.92165 0.32256 0.32602 0.0
H81 H 0.97856 0.3856 0.36599 0.0
H82 H 0.89335 0.36919 0.31049 0.0
H83 H 0.94936 0.43114 0.34969 0.0
H84 H 0.86931 0.24081 0.36399 0.0
H85 H 0.91325 0.19772 0.30594 0.0
H86 H 0.06467 0.4217 0.30768 0.0
H87 H 0.98602 0.39063 0.26671 0.0
Li88 Li 0.6721 0.00913 0.33607 0.0
Li89 Li 0.71891 0.03503 0.34839 0.0
Li90 Li 0.71875 0.97677 0.34725 0.0
Li91 Li 0.68753 0.00777 0.37541 0.0
C92 C 0.72844 0.02367 0.30514 0.0
N93 N 0.75837 0.05925 0.27248 0.0
C94 C 0.71191 0.04735 0.29368 0.0
C95 C 0.76017 0.01803 0.29992 0.0
C96 C 0.72745 0.06507 0.27721 0.0
C97 C 0.7749 0.03631 0.2834 0.0
C98 C 0.67303 0.07688 0.35597 0.0
C99 C 0.68678 0.12874 0.36993 0.0
N100 N 0.66985 0.14214 0.353 0.0
C101 C 0.65578 0.0912 0.33869 0.0
C102 C 0.68865 0.09581 0.37174 0.0
C103 C 0.65444 0.12421 0.33749 0.0
C104 C 0.60869 0.02136 0.32476 0.0
N105 N 0.63677 0.01111 0.31641 0.0
C106 C 0.617 0.01371 0.27892 0.0
C107 C 0.64083 0.00568 0.29411 0.0
C108 C 0.58859 0.02699 0.28686 0.0
C109 C 0.58402 0.02922 0.31022 0.0
H110 H 0.60613 0.02525 0.34263 0.0
H111 H 0.66333 0.99711 0.28799 0.0
C112 C 0.77679 0.06629 0.35375 0.0
N113 N 0.74791 0.06971 0.34401 0.0
C114 C 0.79967 0.08991 0.35158 0.0
C115 C 0.76294 0.12019 0.32913 0.0
C116 C 0.74083 0.09587 0.33162 0.0
C117 C 0.79282 0.11737 0.33921 0.0
H118 H 0.78216 0.04514 0.36322 0.0
H119 H 0.71805 0.09798 0.3236 0.0
C120 C 0.64613 0.95699 0.3515 0.0
N121 N 0.58894 0.93029 0.33956 0.0
C122 C 0.61936 0.96205 0.36478 0.0
C123 C 0.64391 0.93829 0.3322 0.0
C124 C 0.59064 0.94833 0.35845 0.0
C125 C 0.61474 0.92503 0.32643 0.0
C126 C 0.7443 0.0007 0.3926 0.0
C127 C 0.7497 0.97004 0.40056 0.0
C128 C 0.74811 0.02653 0.40703 0.0
C129 C 0.75856 0.96572 0.42297 0.0
C130 C 0.75689 0.02121 0.42933 0.0
N131 N 0.76188 0.99117 0.43678 0.0
C132 C 0.77585 0.94586 0.34092 0.0
C133 C 0.73225 0.91067 0.34323 0.0
C134 C 0.7968 0.92055 0.3389 0.0
N135 N 0.74429 0.94052 0.3429 0.0
C136 C 0.75245 0.88456 0.34148 0.0
C137 C 0.7852 0.8894 0.33929 0.0
H138 H 0.78478 0.96984 0.34146 0.0
H139 H 0.70708 0.90714 0.34528 0.0
C140 C 0.6671 0.03474 0.41632 0.0
N141 N 0.67377 0.00698 0.40582 0.0
C142 C 0.66174 0.03533 0.43942 0.0
C143 C 0.66802 0.97843 0.44023 0.0
C144 C 0.67355 0.97898 0.41709 0.0
C145 C 0.66286 0.00701 0.45172 0.0
H146 H 0.66693 0.05655 0.40693 0.0
H147 H 0.67898 0.95727 0.40826 0.0
O148 O 0.71369 0.00624 0.32145 0.0
O149 O 0.67427 0.04457 0.35758 0.0
O150 O 0.67426 0.97083 0.35712 0.0
O151 O 0.7346 0.00538 0.37094 0.0
H152 H 0.68753 0.05251 0.29776 0.0
H153 H 0.77333 0.99979 0.30856 0.0
H154 H 0.71498 0.0836 0.26833 0.0
H155 H 0.79948 0.03226 0.27925 0.0
H156 H 0.69894 0.14364 0.38193 0.0
H157 H 0.64374 0.07707 0.32621 0.0
H158 H 0.70261 0.08523 0.38498 0.0
H159 H 0.64123 0.13558 0.32417 0.0
H160 H 0.62183 0.01168 0.26112 0.0
H161 H 0.56229 0.03858 0.31717 0.0
H162 H 0.82234 0.08686 0.35977 0.0
H163 H 0.75687 0.14078 0.31918 0.0
H164 H 0.62071 0.97664 0.37971 0.0
H165 H 0.66439 0.93444 0.32164 0.0
H166 H 0.56967 0.95212 0.36851 0.0
H167 H 0.6126 0.91065 0.31147 0.0
H168 H 0.74666 0.94977 0.38967 0.0
H169 H 0.74397 0.0504 0.40111 0.0
H170 H 0.76262 0.94212 0.42941 0.0
H171 H 0.75966 0.04096 0.44074 0.0
H172 H 0.82193 0.9253 0.33775 0.0
H173 H 0.74262 0.86088 0.34189 0.0
H174 H 0.65742 0.05778 0.44768 0.0
H175 H 0.66928 0.95614 0.44917 0.0
Li176 Li 0.96641 0.7232 0.34771 0.0
Li177 Li 0.99719 0.68687 0.37544 0.0
Li178 Li 0.02373 0.71986 0.34716 0.0
Li179 Li 0.99547 0.67546 0.33563 0.0
C180 C 0.01119 0.75991 0.3807 0.0
N181 N 0.04353 0.81217 0.39653 0.0
C182 C 0.03785 0.75597 0.39429 0.0
C183 C 0.0008 0.79038 0.3753 0.0
C184 C 0.05394 0.78271 0.40207 0.0
C185 C 0.0175 0.81651 0.38346 0.0
C186 C 0.94048 0.65359 0.35043 0.0
C187 C 0.92451 0.59896 0.35352 0.0
N188 N 0.90491 0.60288 0.33561 0.0
C189 C 0.91997 0.6572 0.3322 0.0
C190 C 0.94269 0.62434 0.36129 0.0
C191 C 0.90228 0.63121 0.3249 0.0
C192 C 0.91822 0.75577 0.32416 0.0
N193 N 0.9302 0.74906 0.3448 0.0
C194 C 0.89153 0.78188 0.36246 0.0
C195 C 0.91726 0.76126 0.3638 0.0
C196 C 0.87917 0.79006 0.34133 0.0
C197 C 0.89264 0.77649 0.32201 0.0
H198 H 0.92882 0.74535 0.30937 0.0
H199 H 0.92737 0.75543 0.37998 0.0
C200 C 0.02383 0.67058 0.4175 0.0
N201 N 0.9965 0.67299 0.40561 0.0
C202 C 0.02292 0.66419 0.44051 0.0
C203 C 0.96584 0.66187 0.43835 0.0
C204 C 0.96786 0.66836 0.41541 0.0
C205 C 0.99359 0.6604 0.45132 0.0
H206 H 0.04625 0.67463 0.40923 0.0
H207 H 0.94653 0.67066 0.40551 0.0
C208 C 0.00969 0.73192 0.30428 0.0
N209 N 0.0423 0.76095 0.26974 0.0
C210 C 0.0355 0.71677 0.29432 0.0
C211 C 0.00018 0.76165 0.2965 0.0
C212 C 0.05176 0.73189 0.27693 0.0
C213 C 0.01705 0.776 0.27906 0.0
C214 C 0.04763 0.64722 0.35278 0.0
C215 C 0.06917 0.64322 0.33521 0.0
C216 C 0.04152 0.62206 0.36742 0.0
C217 C 0.08382 0.61385 0.33229 0.0
C218 C 0.05672 0.59309 0.36398 0.0
N219 N 0.07733 0.5896 0.34661 0.0
C220 C 0.08929 0.73476 0.34843 0.0
C221 C 0.05614 0.7765 0.33602 0.0
C222 C 0.1158 0.75448 0.34722 0.0
N223 N 0.06018 0.7461 0.34299 0.0
C224 C 0.08196 0.79685 0.33428 0.0
C225 C 0.11222 0.78602 0.34014 0.0
H226 H 0.09178 0.71061 0.35422 0.0
H227 H 0.03268 0.78528 0.33248 0.0
C228 C 0.98115 0.65152 0.29332 0.0
N229 N 0.99086 0.64198 0.31399 0.0
C230 C 0.97219 0.62941 0.27719 0.0
C231 C 0.98392 0.58763 0.30361 0.0
C232 C 0.99271 0.61067 0.31929 0.0
C233 C 0.97295 0.59696 0.28234 0.0
H234 H 0.97869 0.67642 0.28966 0.0
H235 H 0.99928 0.60348 0.33602 0.0
O236 O 0.9956 0.73405 0.37244 0.0
O237 O 0.95875 0.67843 0.35734 0.0
O238 O 0.99361 0.71753 0.32143 0.0
O239 O 0.03333 0.67589 0.35605 0.0
H240 H 0.0463 0.73254 0.39848 0.0
H241 H 0.9803 0.79381 0.36468 0.0
H242 H 0.07478 0.78003 0.41245 0.0
H243 H 0.00985 0.84025 0.37931 0.0
H244 H 0.92614 0.57611 0.36164 0.0
H245 H 0.91813 0.6797 0.32359 0.0
H246 H 0.9586 0.62118 0.37536 0.0
H247 H 0.88654 0.63354 0.31067 0.0
H248 H 0.88209 0.7921 0.37774 0.0
H249 H 0.88358 0.78194 0.30544 0.0
H250 H 0.04487 0.66365 0.44989 0.0
H251 H 0.94277 0.65873 0.44593 0.0
H252 H 0.04285 0.69359 0.29996 0.0
H253 H 0.98031 0.77376 0.30406 0.0
H254 H 0.07187 0.72049 0.26914 0.0
H255 H 0.01013 0.79912 0.27299 0.0
H256 H 0.07467 0.66261 0.32402 0.0
H257 H 0.0249 0.62468 0.38109 0.0
H258 H 0.10044 0.61037 0.3187 0.0
H259 H 0.05204 0.57334 0.37507 0.0
H260 H 0.13879 0.74529 0.35191 0.0
H261 H 0.0781 0.82118 0.32921 0.0
H262 H 0.96308 0.63784 0.26128 0.0
H263 H 0.98481 0.56289 0.30833 0.0
Li264 Li 0.31259 0.99759 0.37478 0.0
Li265 Li 0.28105 0.02611 0.3468 0.0
Li266 Li 0.27813 0.96828 0.35037 0.0
Li267 Li 0.32554 0.99418 0.33492 0.0
C268 C 0.25787 0.00849 0.39399 0.0
N269 N 0.24525 0.02531 0.43798 0.0
C270 C 0.25095 0.03994 0.39943 0.0
C271 C 0.25816 0.98556 0.41095 0.0
C272 C 0.24464 0.04797 0.42175 0.0
C273 C 0.25182 0.99456 0.43308 0.0
C274 C 0.35428 0.04638 0.35029 0.0
C275 C 0.38709 0.08114 0.32817 0.0
N276 N 0.41236 0.0735 0.34124 0.0
C277 C 0.3805 0.03901 0.3636 0.0
C278 C 0.3575 0.06773 0.33251 0.0
C279 C 0.40969 0.05292 0.35871 0.0
C280 C 0.33567 0.974 0.41631 0.0
N281 N 0.32888 0.00061 0.40445 0.0
C282 C 0.33675 0.03282 0.43691 0.0
C283 C 0.33015 0.02975 0.41406 0.0
C284 C 0.34176 0.00556 0.45002 0.0
C285 C 0.34204 0.97591 0.43928 0.0
H286 H 0.33458 0.95116 0.40822 0.0
H287 H 0.32467 0.05051 0.40414 0.0
C288 C 0.2253 0.05827 0.33564 0.0
N289 N 0.25606 0.06273 0.34147 0.0
C290 C 0.20511 0.08411 0.33315 0.0
C291 C 0.24828 0.11871 0.34357 0.0
C292 C 0.26793 0.09218 0.34529 0.0
C293 C 0.21647 0.11469 0.33747 0.0
H294 H 0.21624 0.03453 0.3335 0.0
H295 H 0.29232 0.09493 0.3504 0.0
C296 C 0.32315 0.92727 0.35513 0.0
N297 N 0.3198 0.86239 0.34944 0.0
C298 C 0.3344 0.91333 0.33538 0.0
C299 C 0.31023 0.90817 0.37199 0.0
C300 C 0.33253 0.88049 0.33284 0.0
C301 C 0.3087 0.87544 0.36878 0.0
C302 C 0.26646 0.00702 0.30512 0.0
C303 C 0.23734 0.99469 0.29826 0.0
C304 C 0.27881 0.0337 0.29434 0.0
C305 C 0.22095 0.00943 0.28076 0.0
C306 C 0.26168 0.04779 0.27695 0.0
N307 N 0.23334 0.03546 0.27057 0.0
C308 C 0.23073 0.92593 0.36496 0.0
C309 C 0.25051 0.9153 0.32847 0.0
C310 C 0.21028 0.9001 0.3636 0.0
N311 N 0.2504 0.9329 0.3476 0.0
C312 C 0.2301 0.88943 0.32627 0.0
C313 C 0.20971 0.88156 0.34405 0.0
H314 H 0.23072 0.94056 0.3798 0.0
H315 H 0.26638 0.92147 0.3149 0.0
C316 C 0.38871 0.98316 0.32145 0.0
N317 N 0.35897 0.98907 0.31383 0.0
C318 C 0.41256 0.97429 0.30649 0.0
C319 C 0.37485 0.9783 0.27611 0.0
C320 C 0.35183 0.98727 0.29162 0.0
C321 C 0.40554 0.97087 0.28353 0.0
H322 H 0.39352 0.98375 0.33927 0.0
H323 H 0.32784 0.99099 0.28605 0.0
O324 O 0.26501 0.00032 0.3723 0.0
O325 O 0.32553 0.03293 0.35474 0.0
O326 O 0.32407 0.95946 0.35773 0.0
O327 O 0.28273 0.99311 0.32235 0.0
H328 H 0.25071 0.05807 0.38663 0.0
H329 H 0.26412 0.96123 0.40721 0.0
H330 H 0.23939 0.07224 0.42619 0.0
H331 H 0.25237 0.97712 0.44639 0.0
H332 H 0.38996 0.09765 0.31442 0.0
H333 H 0.37846 0.02244 0.37737 0.0
H334 H 0.33738 0.07393 0.32219 0.0
H335 H 0.43023 0.04729 0.36878 0.0
H336 H 0.33694 0.05622 0.44433 0.0
H337 H 0.34546 0.95421 0.44865 0.0
H338 H 0.18052 0.08015 0.32885 0.0
H339 H 0.25767 0.14202 0.34722 0.0
H340 H 0.34422 0.92765 0.32206 0.0
H341 H 0.30077 0.91855 0.38718 0.0
H342 H 0.34108 0.86941 0.31762 0.0
H343 H 0.29851 0.86043 0.3816 0.0
H344 H 0.22741 0.9741 0.30647 0.0
H345 H 0.30132 0.0435 0.29945 0.0
H346 H 0.19834 0.00021 0.27532 0.0
H347 H 0.2709 0.06852 0.26852 0.0
H348 H 0.19452 0.89515 0.37751 0.0
H349 H 0.23036 0.87564 0.31093 0.0
H350 H 0.43588 0.96894 0.31297 0.0
H351 H 0.36805 0.97526 0.25871 0.0
Li352 Li 0.00311 0.67345 0.66421 0.0
Li353 Li 0.97328 0.71738 0.65356 0.0
Li354 Li 0.99772 0.68411 0.6245 0.0
Li355 Li 0.03048 0.72114 0.65054 0.0
C356 C 0.94924 0.64457 0.64918 0.0
N357 N 0.91942 0.58713 0.65595 0.0
C358 C 0.92769 0.64097 0.66679 0.0
C359 C 0.95527 0.61911 0.63479 0.0
C360 C 0.91299 0.61169 0.67001 0.0
C361 C 0.94002 0.59023 0.63854 0.0
C362 C 0.99033 0.72854 0.69617 0.0
C363 C 0.98381 0.77041 0.72333 0.0
N364 N 0.95963 0.75403 0.73293 0.0
C365 C 0.96561 0.71201 0.70642 0.0
C366 C 0.99971 0.75787 0.70477 0.0
C367 C 0.95031 0.72533 0.72494 0.0
C368 C 0.02161 0.65065 0.706 0.0
N369 N 0.00969 0.64054 0.68605 0.0
C370 C 0.0157 0.58648 0.69744 0.0
C371 C 0.0065 0.60908 0.68156 0.0
C372 C 0.02846 0.59639 0.71806 0.0
C373 C 0.031 0.629 0.7223 0.0
H374 H 0.02526 0.6756 0.70893 0.0
H375 H 0.99829 0.60136 0.66534 0.0
C376 C 0.90792 0.73264 0.65307 0.0
N377 N 0.93712 0.74347 0.65878 0.0
C378 C 0.88169 0.75271 0.65437 0.0
C379 C 0.91597 0.79424 0.66811 0.0
C380 C 0.94152 0.77357 0.66625 0.0
C381 C 0.88567 0.78402 0.66182 0.0
H382 H 0.90519 0.70875 0.64682 0.0
H383 H 0.96508 0.78199 0.66987 0.0
C384 C 0.0564 0.65134 0.64717 0.0
N385 N 0.09253 0.6004 0.66082 0.0
C386 C 0.07859 0.655 0.66437 0.0
C387 C 0.05279 0.62194 0.63672 0.0
C388 C 0.09654 0.62889 0.6711 0.0
C389 C 0.07127 0.59644 0.6439 0.0
C390 C 0.98265 0.75691 0.61933 0.0
C391 C 0.95542 0.7526 0.60638 0.0
C392 C 0.99266 0.78753 0.6247 0.0
C393 C 0.93837 0.77909 0.59923 0.0
C394 C 0.97501 0.81341 0.61718 0.0
N395 N 0.94844 0.80868 0.60474 0.0
C396 C 0.96679 0.66608 0.58445 0.0
C397 C 0.0228 0.66771 0.58261 0.0
C398 C 0.96492 0.66009 0.56142 0.0
N399 N 0.99541 0.67019 0.59441 0.0
C400 C 0.02205 0.66182 0.55955 0.0
C401 C 0.99278 0.65861 0.54856 0.0
H402 H 0.9454 0.66844 0.59429 0.0
H403 H 0.04517 0.67157 0.591 0.0
C404 C 0.07957 0.75626 0.67139 0.0
N405 N 0.06624 0.74787 0.6515 0.0
C406 C 0.10441 0.7781 0.67189 0.0
C407 C 0.10199 0.78111 0.63135 0.0
C408 C 0.07716 0.75936 0.63166 0.0
C409 C 0.1156 0.79124 0.65168 0.0
H410 H 0.07046 0.7465 0.6869 0.0
H411 H 0.06611 0.75207 0.61611 0.0
O412 O 0.96351 0.67319 0.64558 0.0
O413 O 0.00546 0.71593 0.67793 0.0
O414 O 0.03787 0.6763 0.64087 0.0
O415 O 0.99911 0.73128 0.62705 0.0
H416 H 0.92217 0.66062 0.67776 0.0
H417 H 0.97191 0.62141 0.6211 0.0
H418 H 0.89635 0.60852 0.68364 0.0
H419 H 0.94466 0.57025 0.62765 0.0
H420 H 0.99065 0.7932 0.73006 0.0
H421 H 0.95839 0.68912 0.70013 0.0
H422 H 0.01876 0.77103 0.69701 0.0
H423 H 0.93105 0.71284 0.73298 0.0
H424 H 0.01353 0.56156 0.69342 0.0
H425 H 0.04159 0.6378 0.73764 0.0
H426 H 0.85865 0.74402 0.64933 0.0
H427 H 0.92013 0.81841 0.67344 0.0
H428 H 0.08154 0.67764 0.67264 0.0
H429 H 0.03563 0.61878 0.62341 0.0
H430 H 0.11359 0.63126 0.68455 0.0
H431 H 0.06859 0.57346 0.63609 0.0
H432 H 0.94726 0.72904 0.60222 0.0
H433 H 0.0136 0.79124 0.63483 0.0
H434 H 0.91709 0.77611 0.58937 0.0
H435 H 0.98235 0.83724 0.62132 0.0
H436 H 0.94189 0.65741 0.55369 0.0
H437 H 0.04408 0.66134 0.55028 0.0
H438 H 0.11398 0.78538 0.68795 0.0
H439 H 0.11022 0.79012 0.61535 0.0
Li440 Li 0.27658 0.03576 0.64757 0.0
Li441 Li 0.3228 0.00724 0.66242 0.0
Li442 Li 0.31136 0.00736 0.62237 0.0
Li443 Li 0.27841 0.97773 0.64886 0.0
C444 C 0.32436 0.07588 0.64396 0.0
N445 N 0.32708 0.14076 0.64981 0.0
C446 C 0.33973 0.08869 0.66267 0.0
C447 C 0.31045 0.0961 0.6282 0.0
C448 C 0.34085 0.12155 0.66532 0.0
C449 C 0.31203 0.12882 0.63148 0.0
C450 C 0.25805 0.99483 0.68857 0.0
C451 C 0.24382 0.95437 0.71531 0.0
N452 N 0.21381 0.96595 0.71589 0.0
C453 C 0.22713 0.00647 0.68953 0.0
C454 C 0.26656 0.9687 0.70165 0.0
C455 C 0.20509 0.99149 0.70343 0.0
C456 C 0.22284 0.07204 0.63761 0.0
N457 N 0.24874 0.07091 0.6511 0.0
C458 C 0.23276 0.11839 0.66983 0.0
C459 C 0.25385 0.09316 0.66723 0.0
C460 C 0.2058 0.12008 0.65611 0.0
C461 C 0.20094 0.09651 0.63986 0.0
H462 H 0.21894 0.05367 0.6253 0.0
H463 H 0.27419 0.09122 0.67815 0.0
C464 C 0.386 0.01372 0.67739 0.0
N465 N 0.3555 0.01027 0.68417 0.0
C466 C 0.40953 0.02127 0.69294 0.0
C467 C 0.36985 0.02114 0.72217 0.0
C468 C 0.34719 0.01315 0.7061 0.0
C469 C 0.40143 0.02616 0.71559 0.0
H470 H 0.3918 0.01218 0.65974 0.0
H471 H 0.32264 0.01105 0.71095 0.0
C472 C 0.25669 0.00108 0.60219 0.0
N473 N 0.24431 0.99136 0.55714 0.0
C474 C 0.25189 0.97041 0.59403 0.0
C475 C 0.255 0.02682 0.58747 0.0
C476 C 0.24565 0.966 0.5712 0.0
C477 C 0.24882 0.0214 0.56474 0.0
C478 C 0.3504 0.95546 0.64704 0.0
C479 C 0.37721 0.95831 0.63346 0.0
C480 C 0.35195 0.93771 0.66683 0.0
C481 C 0.4053 0.94355 0.64003 0.0
C482 C 0.38049 0.92336 0.67284 0.0
N483 N 0.40635 0.92656 0.65943 0.0
C484 C 0.33473 0.03517 0.58255 0.0
C485 C 0.32926 0.97932 0.5813 0.0
C486 C 0.34137 0.03612 0.55962 0.0
N487 N 0.32789 0.00718 0.59269 0.0
C488 C 0.33608 0.97912 0.55835 0.0
C489 C 0.3413 0.00792 0.54715 0.0
H490 H 0.3337 0.05691 0.59204 0.0
H491 H 0.32351 0.95743 0.58982 0.0
C492 C 0.22004 0.94826 0.64998 0.0
N493 N 0.25143 0.94209 0.65199 0.0
C494 C 0.19809 0.92371 0.65071 0.0
C495 C 0.24115 0.88667 0.65561 0.0
C496 C 0.26236 0.91209 0.65488 0.0
C497 C 0.20852 0.89233 0.65323 0.0
H498 H 0.21211 0.97236 0.6475 0.0
H499 H 0.28751 0.90785 0.65614 0.0
O500 O 0.32291 0.04374 0.6411 0.0
O501 O 0.27978 0.00868 0.67468 0.0
O502 O 0.26388 0.00581 0.62435 0.0
O503 O 0.32276 0.96992 0.64098 0.0
H504 H 0.35058 0.07352 0.67509 0.0
H505 H 0.29798 0.08665 0.61383 0.0
H506 H 0.35262 0.13177 0.67973 0.0
H507 H 0.30115 0.14471 0.6195 0.0
H508 H 0.25002 0.934 0.72541 0.0
H509 H 0.22012 0.02662 0.67949 0.0
H510 H 0.2904 0.95943 0.7011 0.0
H511 H 0.18103 0.00012 0.70424 0.0
H512 H 0.23704 0.13593 0.68275 0.0
H513 H 0.18044 0.09705 0.62895 0.0
H514 H 0.43356 0.02451 0.68708 0.0
H515 H 0.36221 0.02525 0.73928 0.0
H516 H 0.25343 0.95019 0.60513 0.0
H517 H 0.25895 0.05068 0.59347 0.0
H518 H 0.24206 0.94239 0.56462 0.0
H519 H 0.24776 0.04106 0.55312 0.0
H520 H 0.37643 0.97202 0.61811 0.0
H521 H 0.33141 0.93529 0.67752 0.0
H522 H 0.42628 0.94567 0.62974 0.0
H523 H 0.38209 0.90971 0.68817 0.0
H524 H 0.3456 0.05874 0.55159 0.0
H525 H 0.33555 0.95692 0.54925 0.0
H526 H 0.17318 0.92928 0.64918 0.0
H527 H 0.25024 0.86283 0.65735 0.0
Li528 Li 0.99375 0.33285 0.66366 0.0
Li529 Li 0.02558 0.28623 0.65543 0.0
Li530 Li 0.99666 0.3145 0.62592 0.0
Li531 Li 0.96816 0.28246 0.65377 0.0
C532 C 0.0487 0.35551 0.65187 0.0
N533 N 0.08068 0.40729 0.66883 0.0
C534 C 0.07299 0.35127 0.6675 0.0
C535 C 0.0408 0.38602 0.64473 0.0
C536 C 0.08887 0.37777 0.6759 0.0
C537 C 0.05719 0.41191 0.65356 0.0
C538 C 0.97947 0.2785 0.69781 0.0
C539 C 0.96026 0.23217 0.71724 0.0
N540 N 0.94596 0.25114 0.73266 0.0
C541 C 0.96451 0.29752 0.71383 0.0
C542 C 0.97731 0.24553 0.69951 0.0
C543 C 0.94773 0.28324 0.73133 0.0
C544 C 0.96452 0.3884 0.67897 0.0
N545 N 0.98929 0.36864 0.68273 0.0
C546 C 0.0011 0.39473 0.71733 0.0
C547 C 0.00803 0.3718 0.70115 0.0
C548 C 0.97448 0.41431 0.71453 0.0
C549 C 0.95673 0.4116 0.69467 0.0
H550 H 0.94967 0.38499 0.66441 0.0
H551 H 0.02723 0.35534 0.70392 0.0
C552 C 0.08816 0.26609 0.64717 0.0
N553 N 0.06299 0.26237 0.66114 0.0
C554 C 0.11361 0.24502 0.64817 0.0
C555 C 0.08732 0.2177 0.6786 0.0
C556 C 0.06259 0.23946 0.67715 0.0
C557 C 0.11283 0.21987 0.66359 0.0
H558 H 0.0877 0.28442 0.63448 0.0
H559 H 0.04248 0.23717 0.68816 0.0
C560 C 0.93928 0.33754 0.62652 0.0
N561 N 0.90317 0.36059 0.59146 0.0
C562 C 0.91419 0.31964 0.61801 0.0
C563 C 0.94584 0.3673 0.61733 0.0
C564 C 0.89624 0.33169 0.60026 0.0
C565 C 0.92737 0.37849 0.59956 0.0
C566 C 0.01665 0.24411 0.62347 0.0
C567 C 0.03746 0.24902 0.60557 0.0
C568 C 0.01553 0.21455 0.63401 0.0
C569 C 0.05704 0.22425 0.59859 0.0
C570 C 0.03558 0.19042 0.62658 0.0
N571 N 0.05575 0.19573 0.60918 0.0
C572 C 0.01476 0.34566 0.58483 0.0
C573 C 0.97719 0.30407 0.58253 0.0
C574 C 0.01494 0.3487 0.56141 0.0
N575 N 0.99627 0.32335 0.59475 0.0
C576 C 0.97652 0.30636 0.55923 0.0
C577 C 0.99606 0.32841 0.54832 0.0
H578 H 0.02995 0.36044 0.59501 0.0
H579 H 0.96296 0.2864 0.59094 0.0
C580 C 0.91045 0.25968 0.67356 0.0
N581 N 0.93236 0.25538 0.65708 0.0
C582 C 0.88481 0.23896 0.67548 0.0
C583 C 0.90345 0.21138 0.64244 0.0
C584 C 0.92911 0.23207 0.6415 0.0
C585 C 0.8812 0.21454 0.65974 0.0
H586 H 0.91295 0.27907 0.68527 0.0
H587 H 0.94637 0.22968 0.62822 0.0
O588 O 0.03259 0.32991 0.64372 0.0
O589 O 0.99613 0.29205 0.68059 0.0
O590 O 0.95755 0.32588 0.64359 0.0
O591 O 0.99809 0.26838 0.63108 0.0
H592 H 0.07932 0.3278 0.67325 0.0
H593 H 0.02203 0.38967 0.63266 0.0
H594 H 0.10762 0.37489 0.68809 0.0
H595 H 0.05121 0.43569 0.64829 0.0
H596 H 0.95823 0.20671 0.71866 0.0
H597 H 0.96563 0.32303 0.71275 0.0
H598 H 0.98806 0.23041 0.68701 0.0
H599 H 0.93603 0.29769 0.74383 0.0
H600 H 0.01551 0.39613 0.73233 0.0
H601 H 0.9357 0.42573 0.69196 0.0
H602 H 0.13278 0.24731 0.63622 0.0
H603 H 0.08609 0.19882 0.69088 0.0
H604 H 0.90874 0.29659 0.62492 0.0
H605 H 0.96525 0.3814 0.62365 0.0
H606 H 0.87684 0.31802 0.59344 0.0
H607 H 0.93233 0.40136 0.59218 0.0
H608 H 0.03883 0.27183 0.59736 0.0
H609 H 0.99968 0.21043 0.64797 0.0
H610 H 0.07341 0.22775 0.58485 0.0
H611 H 0.03519 0.16751 0.63471 0.0
H612 H 0.03055 0.36582 0.55363 0.0
H613 H 0.96125 0.2906 0.54983 0.0
H614 H 0.86781 0.24216 0.68891 0.0
H615 H 0.90128 0.19276 0.63001 0.0
Li616 Li 0.72229 0.02799 0.65245 0.0
Li617 Li 0.69063 0.99936 0.62453 0.0
Li618 Li 0.67776 0.9969 0.66439 0.0
Li619 Li 0.72469 0.97015 0.64933 0.0
C620 C 0.6498 0.04886 0.64993 0.0
N621 N 0.59267 0.07574 0.66189 0.0
C622 C 0.62313 0.04441 0.63642 0.0
C623 C 0.64751 0.06719 0.66941 0.0
C624 C 0.59444 0.05816 0.64278 0.0
C625 C 0.61838 0.0805 0.67521 0.0
C626 C 0.74555 0.00975 0.60551 0.0
C627 C 0.75252 0.99549 0.56655 0.0
N628 N 0.75842 0.02634 0.56151 0.0
C629 C 0.75174 0.04131 0.59992 0.0
C630 C 0.74605 0.98661 0.58869 0.0
C631 C 0.75821 0.0492 0.5776 0.0
C632 C 0.77894 0.06005 0.66115 0.0
N633 N 0.7475 0.06454 0.65757 0.0
C634 C 0.75433 0.12072 0.65804 0.0
C635 C 0.73488 0.09408 0.65605 0.0
C636 C 0.7868 0.11666 0.66198 0.0
C637 C 0.79904 0.08593 0.66381 0.0
H638 H 0.78849 0.03632 0.66145 0.0
H639 H 0.7099 0.09693 0.6527 0.0
C640 C 0.66847 0.97475 0.58308 0.0
N641 N 0.67471 0.00171 0.59472 0.0
C642 C 0.66257 0.97606 0.56004 0.0
C643 C 0.66718 0.03307 0.5618 0.0
C644 C 0.67333 0.03061 0.58476 0.0
C645 C 0.66273 0.00546 0.54895 0.0
H646 H 0.66964 0.95212 0.59144 0.0
H647 H 0.6784 0.05164 0.59448 0.0
C648 C 0.74009 0.00826 0.69296 0.0
N649 N 0.7802 0.03464 0.72446 0.0
C650 C 0.77019 0.99546 0.6964 0.0
C651 C 0.7303 0.03431 0.70566 0.0
C652 C 0.79014 0.00917 0.71239 0.0
C653 C 0.75095 0.04737 0.72146 0.0
C654 C 0.67893 0.92957 0.64472 0.0
C655 C 0.66654 0.91602 0.66426 0.0
C656 C 0.69215 0.91006 0.62822 0.0
C657 C 0.66759 0.88317 0.66697 0.0
C658 C 0.69284 0.87733 0.63159 0.0
N659 N 0.68064 0.86467 0.65072 0.0
C660 C 0.61448 0.98713 0.67823 0.0
C661 C 0.652 0.99051 0.70771 0.0
C662 C 0.5908 0.9785 0.6934 0.0
N663 N 0.64445 0.99246 0.68558 0.0
C664 C 0.62918 0.98165 0.72341 0.0
C665 C 0.59826 0.97464 0.71626 0.0
H666 H 0.60932 0.988 0.66046 0.0
H667 H 0.67617 0.99399 0.71303 0.0
C668 C 0.77219 0.92733 0.63558 0.0
N669 N 0.75173 0.93435 0.65245 0.0
C670 C 0.79196 0.90102 0.63721 0.0
C671 C 0.76988 0.89004 0.67387 0.0
C672 C 0.75021 0.9164 0.67139 0.0
C673 C 0.79101 0.88206 0.65657 0.0
H674 H 0.77331 0.94226 0.6209 0.0
H675 H 0.73377 0.92267 0.68458 0.0
O676 O 0.67801 0.03532 0.64413 0.0
O677 O 0.73824 0.00167 0.62718 0.0
O678 O 0.72035 0.99541 0.67719 0.0
O679 O 0.67872 0.96175 0.64195 0.0
H680 H 0.62449 0.03021 0.62133 0.0
H681 H 0.66797 0.07096 0.67998 0.0
H682 H 0.57356 0.05478 0.63256 0.0
H683 H 0.61622 0.09461 0.69029 0.0
H684 H 0.75261 0.97788 0.55335 0.0
H685 H 0.75124 0.05961 0.61259 0.0
H686 H 0.74063 0.96218 0.59255 0.0
H687 H 0.76291 0.07355 0.57304 0.0
H688 H 0.74424 0.14418 0.65634 0.0
H689 H 0.8241 0.082 0.66638 0.0
H690 H 0.65957 0.95412 0.55088 0.0
H691 H 0.66687 0.0563 0.55411 0.0
H692 H 0.77824 0.9754 0.68666 0.0
H693 H 0.70708 0.04449 0.7032 0.0
H694 H 0.81356 0.99962 0.71515 0.0
H695 H 0.74375 0.06765 0.73131 0.0
H696 H 0.65643 0.93064 0.67731 0.0
H697 H 0.70252 0.9201 0.61322 0.0
H698 H 0.65815 0.8724 0.68203 0.0
H699 H 0.70326 0.862 0.61905 0.0
H700 H 0.56726 0.97362 0.68712 0.0
H701 H 0.63632 0.97837 0.74072 0.0
H702 H 0.80834 0.89596 0.62369 0.0
H703 H 0.76847 0.87595 0.68903 0.0
Li704 Li 0.5329 0.77739 0.84929 0.0
Li705 Li 0.49922 0.81423 0.87485 0.0
Li706 Li 0.47552 0.77961 0.84623 0.0
Li707 Li 0.50446 0.82396 0.83499 0.0
C708 C 0.48592 0.74138 0.88114 0.0
N709 N 0.45288 0.6894 0.89671 0.0
C710 C 0.45854 0.74555 0.89395 0.0
C711 C 0.49669 0.71081 0.87641 0.0
C712 C 0.4421 0.71895 0.9016 0.0
C713 C 0.47962 0.68482 0.88442 0.0
C714 C 0.55698 0.84797 0.85175 0.0
C715 C 0.56964 0.90354 0.85389 0.0
N716 N 0.59146 0.89963 0.83732 0.0
C717 C 0.57973 0.8444 0.83491 0.0
C718 C 0.55198 0.87767 0.86145 0.0
C719 C 0.59683 0.87086 0.82778 0.0
C720 C 0.58211 0.7422 0.82873 0.0
N721 N 0.56911 0.75126 0.84859 0.0
C722 C 0.60563 0.7192 0.86902 0.0
C723 C 0.58057 0.74067 0.86853 0.0
C724 C 0.61892 0.70842 0.84876 0.0
C725 C 0.60719 0.72063 0.82842 0.0
H726 H 0.57254 0.75119 0.81314 0.0
H727 H 0.56972 0.74843 0.88405 0.0
C728 C 0.46791 0.83285 0.91473 0.0
N729 N 0.49657 0.82867 0.90484 0.0
C730 C 0.46596 0.83918 0.93771 0.0
C731 C 0.52307 0.83755 0.9397 0.0
C732 C 0.52391 0.83137 0.91667 0.0
C733 C 0.49377 0.84088 0.95063 0.0
H734 H 0.44656 0.83026 0.90488 0.0
H735 H 0.54632 0.82743 0.90836 0.0
C736 C 0.49256 0.76924 0.80338 0.0
N737 N 0.46197 0.74515 0.76611 0.0
C738 C 0.46784 0.78612 0.79344 0.0
C739 C 0.50195 0.74023 0.79426 0.0
C740 C 0.45262 0.77353 0.77464 0.0
C741 C 0.48611 0.7284 0.77544 0.0
C742 C 0.44962 0.85195 0.85002 0.0
C743 C 0.42726 0.85466 0.83284 0.0
C744 C 0.45552 0.87782 0.86407 0.0
C745 C 0.41164 0.88347 0.82969 0.0
C746 C 0.43934 0.9062 0.86041 0.0
N747 N 0.41796 0.90843 0.84342 0.0
C748 C 0.41058 0.76176 0.84667 0.0
C749 C 0.44631 0.72212 0.83441 0.0
C750 C 0.38545 0.74024 0.84588 0.0
N751 N 0.44034 0.75221 0.84129 0.0
C752 C 0.42198 0.69997 0.83326 0.0
C753 C 0.39116 0.70868 0.83954 0.0
H754 H 0.40661 0.78572 0.85244 0.0
H755 H 0.47027 0.71493 0.83075 0.0
C756 C 0.52401 0.84588 0.79324 0.0
N757 N 0.51048 0.85628 0.81259 0.0
C758 C 0.533 0.8672 0.77661 0.0
C759 C 0.51405 0.90998 0.7999 0.0
C760 C 0.50532 0.8877 0.81615 0.0
C761 C 0.52839 0.89979 0.77988 0.0
H762 H 0.52923 0.82105 0.79108 0.0
H763 H 0.49584 0.89576 0.83193 0.0
O764 O 0.50175 0.76709 0.87288 0.0
O765 O 0.53925 0.8226 0.8584 0.0
O766 O 0.5076 0.78112 0.82191 0.0
O767 O 0.46476 0.82378 0.85358 0.0
H768 H 0.44979 0.76906 0.89761 0.0
H769 H 0.51775 0.7072 0.8664 0.0
H770 H 0.42071 0.7218 0.91136 0.0
H771 H 0.48754 0.66102 0.88076 0.0
H772 H 0.56589 0.92673 0.86112 0.0
H773 H 0.58375 0.82152 0.82722 0.0
H774 H 0.53441 0.88076 0.8745 0.0
H775 H 0.6143 0.86855 0.8146 0.0
H776 H 0.61425 0.71088 0.8851 0.0
H777 H 0.6165 0.71281 0.81241 0.0
H778 H 0.44289 0.84196 0.94537 0.0
H779 H 0.54508 0.83815 0.94898 0.0
H780 H 0.46059 0.80875 0.80017 0.0
H781 H 0.52099 0.7268 0.80179 0.0
H782 H 0.43339 0.78632 0.76681 0.0
H783 H 0.49298 0.70589 0.76828 0.0
H784 H 0.42183 0.83467 0.82215 0.0
H785 H 0.47276 0.87621 0.87743 0.0
H786 H 0.39437 0.88594 0.81639 0.0
H787 H 0.44386 0.92648 0.87104 0.0
H788 H 0.36214 0.74789 0.85112 0.0
H789 H 0.42743 0.67604 0.828 0.0
H790 H 0.54487 0.85826 0.76178 0.0
H791 H 0.51027 0.93491 0.8032 0.0
Li792 Li 0.17538 0.50172 0.83607 0.0
Li793 Li 0.22059 0.52982 0.85263 0.0
Li794 Li 0.21893 0.47204 0.85081 0.0
Li795 Li 0.18413 0.50141 0.87636 0.0
C796 C 0.24124 0.48966 0.81158 0.0
N797 N 0.28636 0.46127 0.78474 0.0
C798 C 0.27227 0.50109 0.81143 0.0
C799 C 0.23308 0.46399 0.79795 0.0
C800 C 0.29475 0.48637 0.79777 0.0
C801 C 0.25626 0.44989 0.78455 0.0
C802 C 0.17423 0.57018 0.85404 0.0
C803 C 0.18714 0.62301 0.86648 0.0
N804 N 0.17563 0.63484 0.84687 0.0
C805 C 0.16252 0.58288 0.83401 0.0
C806 C 0.18659 0.59041 0.87045 0.0
C807 C 0.16342 0.61562 0.83071 0.0
C808 C 0.11314 0.50894 0.82009 0.0
N809 N 0.14371 0.50503 0.81361 0.0
C810 C 0.13032 0.51636 0.7755 0.0
C811 C 0.15252 0.50786 0.79177 0.0
C812 C 0.09873 0.52196 0.78181 0.0
C813 C 0.09007 0.51698 0.80434 0.0
H814 H 0.10696 0.50744 0.83767 0.0
H815 H 0.17714 0.50543 0.78719 0.0
C816 C 0.27024 0.56905 0.86686 0.0
N817 N 0.2487 0.56491 0.8502 0.0
C818 C 0.29249 0.5933 0.86551 0.0
C819 C 0.27013 0.60871 0.82977 0.0
C820 C 0.24818 0.5841 0.83185 0.0
C821 C 0.29293 0.61331 0.84666 0.0
H822 H 0.27057 0.55314 0.88103 0.0
H823 H 0.23107 0.57992 0.81867 0.0
C824 C 0.1469 0.44963 0.85026 0.0
N825 N 0.09182 0.42077 0.836 0.0
C826 C 0.11929 0.45227 0.86303 0.0
C827 C 0.1466 0.43208 0.83036 0.0
C828 C 0.09166 0.43754 0.85551 0.0
C829 C 0.11848 0.41775 0.8234 0.0
C830 C 0.23714 0.49351 0.89843 0.0
C831 C 0.24271 0.4625 0.90565 0.0
C832 C 0.23626 0.51808 0.91417 0.0
C833 C 0.24729 0.45661 0.92852 0.0
C834 C 0.24082 0.51119 0.9369 0.0
N835 N 0.24621 0.48086 0.94354 0.0
C836 C 0.27754 0.44336 0.85069 0.0
C837 C 0.23608 0.40658 0.84444 0.0
C838 C 0.29996 0.41925 0.85001 0.0
N839 N 0.24635 0.43668 0.84797 0.0
C840 C 0.25779 0.38157 0.84376 0.0
C841 C 0.29022 0.38777 0.84682 0.0
H842 H 0.28492 0.46752 0.85366 0.0
H843 H 0.21107 0.40193 0.84259 0.0
C844 C 0.15703 0.52925 0.91481 0.0
N845 N 0.16534 0.5012 0.90533 0.0
C846 C 0.14946 0.53071 0.93758 0.0
C847 C 0.15658 0.47398 0.93993 0.0
C848 C 0.16427 0.47365 0.91712 0.0
C849 C 0.15016 0.50297 0.95055 0.0
H850 H 0.15782 0.5507 0.90499 0.0
H851 H 0.17116 0.45173 0.9091 0.0
O852 O 0.21903 0.50331 0.82519 0.0
O853 O 0.174 0.53812 0.85748 0.0
O854 O 0.17411 0.46409 0.85724 0.0
O855 O 0.23172 0.49966 0.87617 0.0
H856 H 0.27903 0.52085 0.82195 0.0
H857 H 0.20917 0.45488 0.79787 0.0
H858 H 0.3189 0.49483 0.79758 0.0
H859 H 0.25033 0.42988 0.77401 0.0
H860 H 0.19688 0.63889 0.87895 0.0
H861 H 0.15298 0.56769 0.82107 0.0
H862 H 0.19631 0.58101 0.88587 0.0
H863 H 0.15449 0.62575 0.81527 0.0
H864 H 0.13835 0.52049 0.75849 0.0
H865 H 0.066 0.52064 0.80998 0.0
H866 H 0.30933 0.59619 0.87907 0.0
H867 H 0.26986 0.62332 0.81482 0.0
H868 H 0.11912 0.4658 0.87846 0.0
H869 H 0.16779 0.42977 0.82031 0.0
H870 H 0.07006 0.43952 0.86515 0.0
H871 H 0.11784 0.40425 0.80796 0.0
H872 H 0.24308 0.4431 0.89381 0.0
H873 H 0.23139 0.54214 0.90897 0.0
H874 H 0.2515 0.43271 0.93434 0.0
H875 H 0.23986 0.52993 0.94927 0.0
H876 H 0.32469 0.42526 0.85205 0.0
H877 H 0.24922 0.35763 0.84147 0.0
H878 H 0.14429 0.55345 0.94516 0.0
H879 H 0.15762 0.45213 0.94942 0.0
Li880 Li 0.472 0.22041 0.84859 0.0
Li881 Li 0.50406 0.18245 0.87445 0.0
Li882 Li 0.52926 0.21659 0.84619 0.0
Li883 Li 0.49975 0.17313 0.83448 0.0
C884 C 0.51928 0.2547 0.88129 0.0
N885 N 0.55343 0.30527 0.89793 0.0
C886 C 0.54635 0.2494 0.89422 0.0
C887 C 0.50938 0.28568 0.87698 0.0
C888 C 0.56337 0.2753 0.90241 0.0
C889 C 0.527 0.31095 0.88553 0.0
C890 C 0.44579 0.15064 0.85064 0.0
C891 C 0.42999 0.09594 0.85339 0.0
N892 N 0.40941 0.10036 0.8361 0.0
C893 C 0.42429 0.15477 0.83306 0.0
C894 C 0.44859 0.12109 0.86101 0.0
C895 C 0.40619 0.129 0.82588 0.0
C896 C 0.42268 0.25538 0.82785 0.0
N897 N 0.43603 0.24685 0.8477 0.0
C898 C 0.39935 0.27879 0.86806 0.0
C899 C 0.42469 0.25766 0.86761 0.0
C900 C 0.38566 0.28904 0.84779 0.0
C901 C 0.39736 0.27666 0.82749 0.0
H902 H 0.43208 0.24612 0.81228 0.0
H903 H 0.43572 0.2502 0.88314 0.0
C904 C 0.53362 0.16231 0.9146 0.0
N905 N 0.50539 0.16764 0.90437 0.0
C906 C 0.53474 0.15568 0.93756 0.0
C907 C 0.47768 0.15937 0.93881 0.0
C908 C 0.47767 0.16583 0.91582 0.0
C909 C 0.50654 0.15487 0.9501 0.0
H910 H 0.55531 0.16422 0.90505 0.0
H911 H 0.45564 0.17068 0.90724 0.0
C912 C 0.51281 0.23095 0.80412 0.0
N913 N 0.54369 0.26122 0.76931 0.0
C914 C 0.53788 0.21604 0.79308 0.0
C915 C 0.50316 0.2611 0.79727 0.0
C916 C 0.55327 0.23177 0.77558 0.0
C917 C 0.51916 0.27606 0.77968 0.0
C918 C 0.55282 0.14366 0.84913 0.0
C919 C 0.57362 0.14078 0.831 0.0
C920 C 0.54717 0.11755 0.863 0.0
C921 C 0.58798 0.11159 0.82678 0.0
C922 C 0.56206 0.08879 0.85826 0.0
N923 N 0.58194 0.08641 0.84037 0.0
C924 C 0.59486 0.23095 0.84686 0.0
C925 C 0.56178 0.27344 0.83569 0.0
C926 C 0.62145 0.25062 0.84604 0.0
N927 N 0.56575 0.24271 0.84188 0.0
C928 C 0.58768 0.29376 0.83435 0.0
C929 C 0.61793 0.28252 0.83984 0.0
H930 H 0.59729 0.20655 0.8521 0.0
H931 H 0.53832 0.28254 0.8326 0.0
C932 C 0.48303 0.15157 0.79194 0.0
N933 N 0.49362 0.14086 0.81211 0.0
C934 C 0.47341 0.13039 0.77538 0.0
C935 C 0.4862 0.08715 0.80032 0.0
C936 C 0.49558 0.10928 0.81648 0.0
C937 C 0.47445 0.09768 0.77954 0.0
H938 H 0.48046 0.17666 0.78905 0.0
H939 H 0.5028 0.10114 0.83285 0.0
O940 O 0.50282 0.22969 0.87259 0.0
O941 O 0.46443 0.17528 0.85741 0.0
O942 O 0.49757 0.21594 0.82137 0.0
O943 O 0.53883 0.17214 0.85368 0.0
H944 H 0.55441 0.22555 0.89757 0.0
H945 H 0.48854 0.29016 0.8669 0.0
H946 H 0.58454 0.27157 0.91227 0.0
H947 H 0.51975 0.33506 0.88221 0.0
H948 H 0.43203 0.07286 0.86113 0.0
H949 H 0.42197 0.17753 0.82484 0.0
H950 H 0.46522 0.11756 0.87461 0.0
H951 H 0.38967 0.13173 0.81214 0.0
H952 H 0.39075 0.28718 0.88413 0.0
H953 H 0.38776 0.28406 0.81146 0.0
H954 H 0.55748 0.152 0.94551 0.0
H955 H 0.45542 0.15949 0.94781 0.0
H956 H 0.54531 0.19255 0.79799 0.0
H957 H 0.48385 0.27303 0.80566 0.0
H958 H 0.57281 0.22055 0.76695 0.0
H959 H 0.51212 0.29949 0.77432 0.0
H960 H 0.57879 0.16091 0.82039 0.0
H961 H 0.53108 0.11929 0.87706 0.0
H962 H 0.60403 0.10898 0.81275 0.0
H963 H 0.55771 0.06832 0.86874 0.0
H964 H 0.64442 0.24112 0.85043 0.0
H965 H 0.58387 0.31837 0.82998 0.0
H966 H 0.46369 0.13973 0.75991 0.0
H967 H 0.48731 0.06216 0.8043 0.0
Li968 Li 0.78329 0.52316 0.85257 0.0
Li969 Li 0.81782 0.49432 0.87851 0.0
Li970 Li 0.82744 0.49393 0.83837 0.0
Li971 Li 0.78237 0.46538 0.85439 0.0
C972 C 0.85542 0.54535 0.85222 0.0
N973 N 0.91123 0.57219 0.83738 0.0
C974 C 0.88339 0.54087 0.86433 0.0
C975 C 0.85578 0.56361 0.83264 0.0
C976 C 0.91137 0.55463 0.85654 0.0
C977 C 0.88425 0.57692 0.82538 0.0
C978 C 0.76465 0.50265 0.89997 0.0
C979 C 0.76019 0.48678 0.9388 0.0
N980 N 0.75572 0.51754 0.94476 0.0
C981 C 0.76006 0.53412 0.90652 0.0
C982 C 0.76471 0.47877 0.91625 0.0
C983 C 0.75553 0.54115 0.92923 0.0
C984 C 0.72454 0.55224 0.85183 0.0
N985 N 0.75586 0.55859 0.84947 0.0
C986 C 0.74513 0.61386 0.84536 0.0
C987 C 0.76653 0.58861 0.84621 0.0
C988 C 0.71258 0.60802 0.84804 0.0
C989 C 0.70241 0.57663 0.85102 0.0
H990 H 0.71683 0.52815 0.85464 0.0
H991 H 0.79162 0.59303 0.84472 0.0
C992 C 0.84219 0.46894 0.91918 0.0
N993 N 0.83602 0.49601 0.90767 0.0
C994 C 0.84965 0.47019 0.942 0.0
C995 C 0.84683 0.52731 0.94015 0.0
C996 C 0.83904 0.52491 0.91745 0.0
C997 C 0.85114 0.49965 0.95296 0.0
H998 H 0.83963 0.44631 0.91098 0.0
H999 H 0.83394 0.54605 0.90784 0.0
C1000 C 0.7615 0.50547 0.81348 0.0
N1001 N 0.71566 0.53361 0.78709 0.0
C1002 C 0.73079 0.49321 0.81305 0.0
C1003 C 0.76893 0.53196 0.80042 0.0
C1004 C 0.70795 0.50778 0.7996 0.0
C1005 C 0.74541 0.54588 0.78723 0.0
C1006 C 0.82895 0.42566 0.85624 0.0
C1007 C 0.83961 0.41336 0.83579 0.0
C1008 C 0.81756 0.40507 0.87278 0.0
C1009 C 0.83878 0.38066 0.83225 0.0
C1010 C 0.81702 0.37253 0.86856 0.0
N1011 N 0.82758 0.3611 0.84857 0.0
C1012 C 0.88956 0.48373 0.82331 0.0
C1013 C 0.85256 0.49373 0.79424 0.0
C1014 C 0.91312 0.47704 0.8076 0.0
N1015 N 0.85989 0.49136 0.81639 0.0
C1016 C 0.87537 0.48716 0.77795 0.0
C1017 C 0.9059 0.47783 0.78457 0.0
H1018 H 0.89452 0.48144 0.84106 0.0
H1019 H 0.82861 0.49914 0.78922 0.0
C1020 C 0.73617 0.42119 0.86858 0.0
N1021 N 0.75561 0.42928 0.85134 0.0
C1022 C 0.71599 0.39521 0.86662 0.0
C1023 C 0.73569 0.38666 0.82898 0.0
C1024 C 0.7558 0.41264 0.83177 0.0
C1025 C 0.71544 0.37771 0.84657 0.0
H1026 H 0.73598 0.43516 0.88373 0.0
H1027 H 0.77135 0.41979 0.81827 0.0
O1028 O 0.8279 0.53162 0.85936 0.0
O1029 O 0.77015 0.49539 0.87788 0.0
O1030 O 0.78404 0.49195 0.8269 0.0
O1031 O 0.82896 0.45768 0.85988 0.0
H1032 H 0.88358 0.52661 0.87942 0.0
H1033 H 0.83439 0.56715 0.82301 0.0
H1034 H 0.93323 0.55124 0.86567 0.0
H1035 H 0.88492 0.59094 0.81019 0.0
H1036 H 0.76051 0.46857 0.95157 0.0
H1037 H 0.76048 0.55304 0.8943 0.0
H1038 H 0.7691 0.45439 0.91165 0.0
H1039 H 0.75208 0.56541 0.93452 0.0
H1040 H 0.75402 0.63773 0.84328 0.0
H1041 H 0.67756 0.57093 0.85281 0.0
H1042 H 0.85243 0.44821 0.95114 0.0
H1043 H 0.84838 0.55056 0.94773 0.0
H1044 H 0.72451 0.47293 0.82319 0.0
H1045 H 0.79249 0.54191 0.80068 0.0
H1046 H 0.68406 0.49864 0.79918 0.0
H1047 H 0.75078 0.56651 0.77715 0.0
H1048 H 0.84815 0.42882 0.82267 0.0
H1049 H 0.80844 0.41414 0.88848 0.0
H1050 H 0.8469 0.37086 0.81649 0.0
H1051 H 0.80802 0.35639 0.88114 0.0
H1052 H 0.93638 0.47013 0.81344 0.0
H1053 H 0.86855 0.48748 0.76042 0.0
H1054 H 0.70031 0.38943 0.88042 0.0
H1055 H 0.73595 0.37373 0.81327 0.0
Li1056 Li 0.47125 0.21664 0.15002 0.0
Li1057 Li 0.50165 0.17382 0.16276 0.0
Li1058 Li 0.52882 0.22059 0.14947 0.0
Li1059 Li 0.49898 0.18307 0.12287 0.0
C1060 C 0.48379 0.21896 0.19529 0.0
N1061 N 0.44934 0.22236 0.23466 0.0
C1062 C 0.45783 0.19903 0.19862 0.0
C1063 C 0.49221 0.24067 0.21197 0.0
C1064 C 0.44073 0.20108 0.21864 0.0
C1065 C 0.4745 0.24202 0.23176 0.0
C1066 C 0.44963 0.14251 0.14224 0.0
C1067 C 0.44795 0.08866 0.12876 0.0
N1068 N 0.42077 0.08383 0.1405 0.0
C1069 C 0.42149 0.1371 0.15398 0.0
C1070 C 0.46284 0.11818 0.12938 0.0
C1071 C 0.40736 0.10723 0.15297 0.0
C1072 C 0.40713 0.23346 0.14324 0.0
N1073 N 0.43446 0.24194 0.15364 0.0
C1074 C 0.41128 0.2902 0.16649 0.0
C1075 C 0.43689 0.26947 0.16533 0.0
C1076 C 0.38295 0.28257 0.15541 0.0
C1077 C 0.38092 0.25359 0.14388 0.0
H1078 H 0.40603 0.21149 0.13392 0.0
H1079 H 0.45912 0.27585 0.17309 0.0
C1080 C 0.52552 0.15311 0.20318 0.0
N1081 N 0.50741 0.1425 0.18589 0.0
C1082 C 0.5339 0.13298 0.22067 0.0
C1083 C 0.50483 0.09091 0.20251 0.0
C1084 C 0.49689 0.11203 0.18529 0.0
C1085 C 0.52369 0.10135 0.22047 0.0
H1086 H 0.53438 0.17711 0.20303 0.0
H1087 H 0.48302 0.10372 0.17133 0.0
C1088 C 0.48423 0.25716 0.11774 0.0
N1089 N 0.45235 0.31137 0.10507 0.0
C1090 C 0.45965 0.25543 0.1021 0.0
C1091 C 0.49279 0.28646 0.12682 0.0
C1092 C 0.44375 0.28311 0.09596 0.0
C1093 C 0.47635 0.3136 0.1202 0.0
C1094 C 0.55804 0.15397 0.14987 0.0
C1095 C 0.5812 0.16322 0.16528 0.0
C1096 C 0.55524 0.12208 0.1439 0.0
C1097 C 0.60087 0.14027 0.17479 0.0
C1098 C 0.57534 0.09984 0.15381 0.0
N1099 N 0.59752 0.10931 0.16894 0.0
C1100 C 0.57383 0.25973 0.17141 0.0
C1101 C 0.5784 0.25621 0.13179 0.0
C1102 C 0.59884 0.28135 0.17229 0.0
N1103 N 0.56404 0.24798 0.15133 0.0
C1104 C 0.60344 0.27772 0.13188 0.0
C1105 C 0.61373 0.29092 0.15229 0.0
H1106 H 0.56191 0.25265 0.18668 0.0
H1107 H 0.57004 0.24636 0.1161 0.0
C1108 C 0.47269 0.16727 0.08064 0.0
N1109 N 0.49977 0.16829 0.09291 0.0
C1110 C 0.4739 0.16063 0.05767 0.0
C1111 C 0.53068 0.15504 0.0607 0.0
C1112 C 0.52836 0.1618 0.08359 0.0
C1113 C 0.50329 0.15516 0.04731 0.0
H1114 H 0.45032 0.17277 0.08856 0.0
H1115 H 0.54949 0.16296 0.09381 0.0
O1116 O 0.50085 0.21754 0.17576 0.0
O1117 O 0.4634 0.17182 0.14278 0.0
O1118 O 0.49931 0.23021 0.12459 0.0
O1119 O 0.53794 0.17598 0.14094 0.0
H1120 H 0.45101 0.18211 0.18594 0.0
H1121 H 0.51216 0.25638 0.20962 0.0
H1122 H 0.42061 0.18575 0.22144 0.0
H1123 H 0.48074 0.25873 0.24481 0.0
H1124 H 0.45803 0.06958 0.11898 0.0
H1125 H 0.4106 0.15582 0.16369 0.0
H1126 H 0.48447 0.12187 0.12013 0.0
H1127 H 0.38566 0.10269 0.16205 0.0
H1128 H 0.41406 0.31252 0.17523 0.0
H1129 H 0.35945 0.24674 0.13523 0.0
H1130 H 0.54922 0.14188 0.23381 0.0
H1131 H 0.49653 0.06668 0.20169 0.0
H1132 H 0.45262 0.2329 0.09504 0.0
H1133 H 0.51162 0.28815 0.13907 0.0
H1134 H 0.42449 0.28211 0.08401 0.0
H1135 H 0.48257 0.33641 0.12719 0.0
H1136 H 0.58365 0.1878 0.1701 0.0
H1137 H 0.53761 0.11455 0.13189 0.0
H1138 H 0.61871 0.14704 0.1869 0.0
H1139 H 0.57327 0.07505 0.14949 0.0
H1140 H 0.60579 0.29115 0.18836 0.0
H1141 H 0.61453 0.28406 0.1161 0.0
H1142 H 0.45225 0.16133 0.04796 0.0
H1143 H 0.55375 0.15057 0.05346 0.0
Li1144 Li 0.78156 0.53035 0.1471 0.0
Li1145 Li 0.82582 0.50167 0.16443 0.0
Li1146 Li 0.81778 0.5006 0.12402 0.0
Li1147 Li 0.78187 0.47263 0.14954 0.0
C1148 C 0.82889 0.56961 0.14559 0.0
N1149 N 0.82881 0.63447 0.15191 0.0
C1150 C 0.84046 0.58258 0.16558 0.0
C1151 C 0.81737 0.58969 0.12879 0.0
C1152 C 0.84023 0.61541 0.16845 0.0
C1153 C 0.81747 0.62239 0.13232 0.0
C1154 C 0.75908 0.4914 0.18816 0.0
C1155 C 0.74254 0.45269 0.21553 0.0
N1156 N 0.71251 0.46413 0.21433 0.0
C1157 C 0.7281 0.50288 0.18727 0.0
C1158 C 0.76644 0.46622 0.20247 0.0
C1159 C 0.70488 0.48874 0.20062 0.0
C1160 C 0.73412 0.5721 0.13196 0.0
N1161 N 0.7546 0.56638 0.14906 0.0
C1162 C 0.73493 0.61103 0.16943 0.0
C1163 C 0.75534 0.58511 0.16764 0.0
C1164 C 0.71363 0.6176 0.15191 0.0
C1165 C 0.71349 0.5978 0.13297 0.0
H1166 H 0.73341 0.55639 0.11768 0.0
H1167 H 0.77163 0.57974 0.18112 0.0
C1168 C 0.88796 0.5078 0.18102 0.0
N1169 N 0.85714 0.50501 0.18717 0.0
C1170 C 0.91086 0.51591 0.19689 0.0
C1171 C 0.86989 0.51777 0.22517 0.0
C1172 C 0.84786 0.50912 0.20882 0.0
C1173 C 0.9018 0.52218 0.21918 0.0
H1174 H 0.89454 0.50533 0.16357 0.0
H1175 H 0.82307 0.50759 0.21312 0.0
C1176 C 0.765 0.49367 0.10149 0.0
N1177 N 0.7565 0.48062 0.05638 0.0
C1178 C 0.75883 0.46271 0.09442 0.0
C1179 C 0.7668 0.518 0.08559 0.0
C1180 C 0.75455 0.45662 0.07155 0.0
C1181 C 0.76251 0.51091 0.06287 0.0
C1182 C 0.85349 0.44877 0.15105 0.0
C1183 C 0.88121 0.45022 0.1383 0.0
C1184 C 0.8533 0.43211 0.17133 0.0
C1185 C 0.90846 0.43518 0.14621 0.0
C1186 C 0.88105 0.41744 0.17868 0.0
N1187 N 0.90782 0.41927 0.16607 0.0
C1188 C 0.84635 0.52699 0.0856 0.0
C1189 C 0.83747 0.47161 0.08362 0.0
C1190 C 0.85407 0.52795 0.06285 0.0
N1191 N 0.83709 0.49934 0.09522 0.0
C1192 C 0.84529 0.47142 0.06083 0.0
C1193 C 0.85256 0.50008 0.05005 0.0
H1194 H 0.84612 0.54859 0.09528 0.0
H1195 H 0.82985 0.45 0.09175 0.0
C1196 C 0.72283 0.44454 0.14845 0.0
N1197 N 0.75371 0.43781 0.15253 0.0
C1198 C 0.70014 0.42067 0.14908 0.0
C1199 C 0.74136 0.38319 0.15838 0.0
C1200 C 0.76337 0.40794 0.15756 0.0
C1201 C 0.7093 0.38941 0.15382 0.0
H1202 H 0.71593 0.46853 0.14439 0.0
H1203 H 0.78814 0.40323 0.16054 0.0
O1204 O 0.82842 0.53747 0.14259 0.0
O1205 O 0.78199 0.50441 0.17484 0.0
O1206 O 0.77011 0.5 0.12376 0.0
O1207 O 0.82666 0.46354 0.14368 0.0
H1208 H 0.84936 0.56753 0.17882 0.0
H1209 H 0.80776 0.58011 0.11338 0.0
H1210 H 0.84905 0.62574 0.18385 0.0
H1211 H 0.80836 0.63816 0.11955 0.0
H1212 H 0.74785 0.43307 0.22658 0.0
H1213 H 0.72196 0.52224 0.1762 0.0
H1214 H 0.7903 0.45705 0.20333 0.0
H1215 H 0.68076 0.49725 0.20002 0.0
H1216 H 0.73582 0.62576 0.1843 0.0
H1217 H 0.69698 0.6016 0.11932 0.0
H1218 H 0.93517 0.5186 0.19149 0.0
H1219 H 0.86154 0.52291 0.24197 0.0
H1220 H 0.7578 0.44348 0.10638 0.0
H1221 H 0.7722 0.542 0.09066 0.0
H1222 H 0.74988 0.43275 0.06584 0.0
H1223 H 0.76418 0.52945 0.05038 0.0
H1224 H 0.88176 0.46305 0.12258 0.0
H1225 H 0.83204 0.43079 0.18139 0.0
H1226 H 0.93013 0.43623 0.13658 0.0
H1227 H 0.88131 0.40463 0.19441 0.0
H1228 H 0.85991 0.55043 0.05513 0.0
H1229 H 0.84362 0.4495 0.05146 0.0
H1230 H 0.67565 0.42663 0.14582 0.0
H1231 H 0.74945 0.35938 0.16191 0.0
Li1232 Li 0.49756 0.82184 0.16351 0.0
Li1233 Li 0.52692 0.77842 0.15051 0.0
Li1234 Li 0.49895 0.81205 0.1235 0.0
Li1235 Li 0.46924 0.77491 0.15087 0.0
C1236 C 0.54974 0.85192 0.14373 0.0
N1237 N 0.58036 0.90973 0.14469 0.0
C1238 C 0.57611 0.85632 0.15756 0.0
C1239 C 0.53927 0.87678 0.13012 0.0
C1240 C 0.59114 0.88577 0.1579 0.0
C1241 C 0.555 0.90585 0.1309 0.0
C1242 C 0.5156 0.77289 0.19543 0.0
C1243 C 0.52779 0.74071 0.22776 0.0
N1244 N 0.55174 0.76084 0.23314 0.0
C1245 C 0.54032 0.79323 0.20127 0.0
C1246 C 0.50923 0.7464 0.20876 0.0
C1247 C 0.55832 0.78676 0.2204 0.0
C1248 C 0.47773 0.84311 0.2052 0.0
N1249 N 0.49245 0.85374 0.18634 0.0
C1250 C 0.4909 0.90694 0.20022 0.0
C1251 C 0.4993 0.88501 0.18364 0.0
C1252 C 0.47529 0.89653 0.21969 0.0
C1253 C 0.46911 0.86407 0.22215 0.0
H1254 H 0.47129 0.81845 0.20665 0.0
H1255 H 0.50997 0.8933 0.16832 0.0
C1256 C 0.59165 0.76282 0.14514 0.0
N1257 N 0.56368 0.75288 0.15389 0.0
C1258 C 0.61819 0.74313 0.14591 0.0
C1259 C 0.58671 0.70377 0.16518 0.0
C1260 C 0.5608 0.72411 0.1639 0.0
C1261 C 0.6158 0.71305 0.15589 0.0
H1262 H 0.59314 0.78575 0.13709 0.0
H1263 H 0.53809 0.71655 0.17028 0.0
C1264 C 0.44221 0.84357 0.15027 0.0
N1265 N 0.40643 0.89229 0.1679 0.0
C1266 C 0.42035 0.83747 0.16734 0.0
C1267 C 0.44559 0.87431 0.14194 0.0
C1268 C 0.40256 0.86247 0.1761 0.0
C1269 C 0.42733 0.89866 0.15113 0.0
C1270 C 0.51287 0.73803 0.11822 0.0
C1271 C 0.53813 0.74028 0.10316 0.0
C1272 C 0.5034 0.70837 0.12615 0.0
C1273 C 0.55379 0.71272 0.09647 0.0
C1274 C 0.51962 0.68136 0.11901 0.0
N1275 N 0.5443 0.68408 0.10448 0.0
C1276 C 0.52511 0.82831 0.08143 0.0
C1277 C 0.46927 0.83236 0.08394 0.0
C1278 C 0.52411 0.83498 0.05846 0.0
N1279 N 0.49788 0.82665 0.09349 0.0
C1280 C 0.46715 0.83908 0.06103 0.0
C1281 C 0.49476 0.83976 0.04787 0.0
H1282 H 0.54749 0.82336 0.08951 0.0
H1283 H 0.44802 0.83064 0.09398 0.0
C1284 C 0.42465 0.73792 0.17459 0.0
N1285 N 0.43352 0.74846 0.15396 0.0
C1286 C 0.39911 0.71716 0.17675 0.0
C1287 C 0.39184 0.71933 0.13648 0.0
C1288 C 0.41763 0.73988 0.13508 0.0
C1289 C 0.38249 0.70743 0.1575 0.0
H1290 H 0.4376 0.74545 0.18931 0.0
H1291 H 0.42536 0.74866 0.11891 0.0
O1292 O 0.53514 0.82303 0.14289 0.0
O1293 O 0.49801 0.77851 0.17655 0.0
O1294 O 0.46065 0.81963 0.14208 0.0
O1295 O 0.49791 0.76479 0.12553 0.0
H1296 H 0.58503 0.83713 0.1678 0.0
H1297 H 0.519 0.87386 0.11928 0.0
H1298 H 0.61149 0.88954 0.1686 0.0
H1299 H 0.54699 0.92536 0.12059 0.0
H1300 H 0.5232 0.72025 0.23819 0.0
H1301 H 0.54551 0.8138 0.19115 0.0
H1302 H 0.49035 0.73024 0.20436 0.0
H1303 H 0.57753 0.80233 0.22512 0.0
H1304 H 0.49594 0.93181 0.1976 0.0
H1305 H 0.45627 0.85505 0.23654 0.0
H1306 H 0.64024 0.75121 0.13864 0.0
H1307 H 0.58367 0.68058 0.17263 0.0
H1308 H 0.41754 0.81378 0.17398 0.0
H1309 H 0.46235 0.87936 0.12868 0.0
H1310 H 0.38578 0.85819 0.18948 0.0
H1311 H 0.42987 0.92263 0.14498 0.0
H1312 H 0.54584 0.7631 0.09698 0.0
H1313 H 0.48398 0.70627 0.13791 0.0
H1314 H 0.57356 0.7141 0.08498 0.0
H1315 H 0.51269 0.65825 0.12511 0.0
H1316 H 0.54592 0.83489 0.04893 0.0
H1317 H 0.4441 0.84295 0.05359 0.0
H1318 H 0.39245 0.70878 0.19328 0.0
H1319 H 0.37994 0.71212 0.1212 0.0
Li1320 Li 0.21698 0.52486 0.14921 0.0
Li1321 Li 0.18346 0.4967 0.12225 0.0
Li1322 Li 0.17299 0.49432 0.16223 0.0
Li1323 Li 0.21885 0.46718 0.14604 0.0
C1324 C 0.14441 0.54579 0.14914 0.0
N1325 N 0.08765 0.57075 0.16377 0.0
C1326 C 0.11682 0.54096 0.13667 0.0
C1327 C 0.1432 0.56346 0.16897 0.0
C1328 C 0.08834 0.55376 0.14436 0.0
C1329 C 0.11425 0.57582 0.17612 0.0
C1330 C 0.23707 0.50636 0.10158 0.0
C1331 C 0.24254 0.4915 0.06263 0.0
N1332 N 0.24702 0.52243 0.05712 0.0
C1333 C 0.24175 0.53801 0.09552 0.0
C1334 C 0.23753 0.48289 0.08501 0.0
C1335 C 0.24678 0.54563 0.07296 0.0
C1336 C 0.27534 0.55441 0.15255 0.0
N1337 N 0.24381 0.56046 0.1535 0.0
C1338 C 0.25365 0.6157 0.15875 0.0
C1339 C 0.23259 0.59033 0.1565 0.0
C1340 C 0.28641 0.61004 0.15802 0.0
C1341 C 0.29715 0.57889 0.15497 0.0
H1342 H 0.28351 0.53048 0.14967 0.0
H1343 H 0.20737 0.59449 0.15689 0.0
C1344 C 0.15942 0.47216 0.08136 0.0
N1345 N 0.16583 0.49912 0.09295 0.0
C1346 C 0.15214 0.47358 0.05853 0.0
C1347 C 0.15572 0.53065 0.06047 0.0
C1348 C 0.16326 0.52809 0.08321 0.0
C1349 C 0.1511 0.50309 0.04761 0.0
H1350 H 0.16153 0.44948 0.08955 0.0
H1351 H 0.16848 0.54912 0.0929 0.0
C1352 C 0.23819 0.50528 0.18824 0.0
N1353 N 0.28303 0.53213 0.21613 0.0
C1354 C 0.26865 0.49251 0.18936 0.0
C1355 C 0.23047 0.53157 0.20141 0.0
C1356 C 0.29099 0.50644 0.20356 0.0
C1357 C 0.2535 0.54486 0.21536 0.0
C1358 C 0.17261 0.42685 0.14244 0.0
C1359 C 0.16064 0.41309 0.16204 0.0
C1360 C 0.18523 0.4075 0.12561 0.0
C1361 C 0.16143 0.38019 0.16444 0.0
C1362 C 0.18568 0.37471 0.12868 0.0
N1363 N 0.17385 0.36185 0.14787 0.0
C1364 C 0.1108 0.48228 0.17678 0.0
C1365 C 0.14737 0.49242 0.20611 0.0
C1366 C 0.08727 0.47473 0.19233 0.0
N1367 N 0.14027 0.49036 0.18391 0.0
C1368 C 0.12458 0.48505 0.22223 0.0
C1369 C 0.0943 0.47523 0.21539 0.0
H1370 H 0.10602 0.48032 0.15899 0.0
H1371 H 0.17114 0.49827 0.21129 0.0
C1372 C 0.268 0.42686 0.13171 0.0
N1373 N 0.24633 0.43155 0.14821 0.0
C1374 C 0.28866 0.40117 0.13272 0.0
C1375 C 0.26477 0.38585 0.16798 0.0
C1376 C 0.24445 0.41184 0.16623 0.0
C1377 C 0.28722 0.38025 0.15103 0.0
H1378 H 0.26954 0.4433 0.11788 0.0
H1379 H 0.22722 0.4164 0.17927 0.0
O1380 O 0.1724 0.53297 0.1421 0.0
O1381 O 0.23107 0.49852 0.12349 0.0
O1382 O 0.21616 0.49237 0.17411 0.0
O1383 O 0.17248 0.45908 0.13989 0.0
H1384 H 0.1173 0.52717 0.12135 0.0
H1385 H 0.16432 0.5673 0.17885 0.0
H1386 H 0.06676 0.55009 0.13495 0.0
H1387 H 0.11292 0.58938 0.1915 0.0
H1388 H 0.24262 0.47362 0.04962 0.0
H1389 H 0.24108 0.55657 0.10801 0.0
H1390 H 0.23329 0.45836 0.08929 0.0
H1391 H 0.25029 0.57004 0.06803 0.0
H1392 H 0.24447 0.63941 0.16108 0.0
H1393 H 0.32217 0.5736 0.15387 0.0
H1394 H 0.1491 0.45167 0.04935 0.0
H1395 H 0.15454 0.55394 0.05291 0.0
H1396 H 0.27512 0.47229 0.17921 0.0
H1397 H 0.20709 0.54189 0.20063 0.0
H1398 H 0.3147 0.49691 0.20451 0.0
H1399 H 0.24791 0.56535 0.22551 0.0
H1400 H 0.1511 0.42758 0.17537 0.0
H1401 H 0.19532 0.41771 0.11057 0.0
H1402 H 0.1523 0.36925 0.17954 0.0
H1403 H 0.19562 0.35951 0.11588 0.0
H1404 H 0.06421 0.46743 0.18634 0.0
H1405 H 0.13124 0.4852 0.2398 0.0
H1406 H 0.30606 0.39814 0.11954 0.0
H1407 H 0.26283 0.37026 0.18236 0.0
C1408 C 0.16633 0.18291 0.35768 0.0
C1409 C 0.14703 0.18855 0.33891 0.0
H1410 H 0.20411 0.15536 0.37167 0.0
C1411 C 0.15224 0.17136 0.31906 0.0
H1412 H 0.16269 0.19596 0.37314 0.0
C1413 C 0.1755 0.14785 0.31835 0.0
C1414 C 0.19434 0.14175 0.33729 0.0
H1415 H 0.13748 0.17524 0.30444 0.0
H1416 H 0.17843 0.13403 0.30315 0.0
C1417 C 0.19004 0.1599 0.3568 0.0
C1418 C 0.83109 0.19869 0.33849 0.0
C1419 C 0.863 0.19107 0.33469 0.0
H1420 H 0.78384 0.18136 0.34287 0.0
C1421 C 0.87145 0.15915 0.3317 0.0
H1422 H 0.82386 0.22309 0.34074 0.0
C1423 C 0.8486 0.13534 0.33286 0.0
C1424 C 0.81676 0.14288 0.33698 0.0
H1425 H 0.8959 0.15246 0.32903 0.0
H1426 H 0.8559 0.11096 0.33059 0.0
C1427 C 0.80817 0.17484 0.33952 0.0
C1428 C 0.80477 0.83716 0.35374 0.0
C1429 C 0.80753 0.86234 0.33843 0.0
H1430 H 0.82526 0.79444 0.36661 0.0
C1431 C 0.83289 0.86247 0.32317 0.0
H1432 H 0.78559 0.83656 0.36579 0.0
C1433 C 0.85556 0.83842 0.32364 0.0
C1434 C 0.85348 0.81385 0.3395 0.0
H1435 H 0.83546 0.88145 0.31107 0.0
H1436 H 0.87533 0.83967 0.31211 0.0
C1437 C 0.82761 0.81324 0.35434 0.0
C1438 C 0.15933 0.81036 0.35889 0.0
C1439 C 0.13936 0.80823 0.34009 0.0
H1440 H 0.19736 0.83527 0.37483 0.0
C1441 C 0.14415 0.82898 0.32194 0.0
H1442 H 0.15601 0.79483 0.37318 0.0
C1443 C 0.16785 0.85202 0.32285 0.0
C1444 C 0.18695 0.855 0.34205 0.0
H1445 H 0.12918 0.82772 0.3072 0.0
H1446 H 0.17043 0.8683 0.3089 0.0
C1447 C 0.18278 0.83363 0.35991 0.0
C1448 C 0.16584 0.81537 0.66681 0.0
C1449 C 0.14016 0.81645 0.65179 0.0
H1450 H 0.20749 0.83851 0.67918 0.0
C1451 C 0.1376 0.84236 0.63707 0.0
H1452 H 0.16868 0.79561 0.67823 0.0
C1453 C 0.15996 0.86662 0.63742 0.0
C1454 C 0.18541 0.86581 0.65261 0.0
H1455 H 0.11794 0.84424 0.62549 0.0
H1456 H 0.1573 0.88606 0.6257 0.0
C1457 C 0.18826 0.83977 0.66719 0.0
C1458 C 0.19193 0.17763 0.66002 0.0
C1459 C 0.18233 0.1458 0.65898 0.0
H1460 H 0.17732 0.22624 0.66215 0.0
C1461 C 0.14995 0.13857 0.66019 0.0
H1462 H 0.21676 0.18381 0.659 0.0
C1463 C 0.12756 0.16267 0.66218 0.0
C1464 C 0.13704 0.19454 0.66278 0.0
H1465 H 0.14194 0.11422 0.65959 0.0
H1466 H 0.10272 0.1564 0.66271 0.0
C1467 C 0.16943 0.20184 0.66169 0.0
C1468 C 0.83385 0.18789 0.64331 0.0
C1469 C 0.85476 0.19186 0.66141 0.0
H1470 H 0.79523 0.16117 0.62964 0.0
C1471 C 0.85171 0.17248 0.68044 0.0
H1472 H 0.83588 0.20262 0.62848 0.0
C1473 C 0.82894 0.14847 0.68092 0.0
C1474 C 0.80846 0.14406 0.66262 0.0
H1475 H 0.86778 0.17507 0.6945 0.0
H1476 H 0.82768 0.13297 0.6954 0.0
C1477 C 0.81061 0.16438 0.64402 0.0
C1478 C 0.8173 0.83369 0.64093 0.0
C1479 C 0.81291 0.85487 0.65887 0.0
H1480 H 0.84361 0.7944 0.62794 0.0
C1481 C 0.83098 0.85105 0.67848 0.0
H1482 H 0.80349 0.83599 0.62568 0.0
C1483 C 0.85399 0.82735 0.67974 0.0
C1484 C 0.85903 0.80679 0.66153 0.0
H1485 H 0.8282 0.86717 0.6925 0.0
H1486 H 0.86825 0.82545 0.6948 0.0
C1487 C 0.84002 0.80976 0.6423 0.0
C1488 C 0.64158 0.65798 0.86404 0.0
C1489 C 0.6437 0.68342 0.84888 0.0
H1490 H 0.66178 0.61477 0.87591 0.0
C1491 C 0.66912 0.68422 0.83363 0.0
H1492 H 0.62213 0.65633 0.87581 0.0
C1493 C 0.69171 0.65998 0.83345 0.0
C1494 C 0.6893 0.63439 0.84846 0.0
H1495 H 0.6716 0.70362 0.82186 0.0
H1496 H 0.71073 0.661 0.82128 0.0
C1497 C 0.66411 0.63386 0.86387 0.0
C1498 C 0.33464 0.69119 0.83411 0.0
C1499 C 0.36579 0.68438 0.84085 0.0
H1500 H 0.28708 0.67416 0.83073 0.0
C1501 C 0.37267 0.65409 0.84932 0.0
H1502 H 0.32862 0.71425 0.8274 0.0
C1503 C 0.34909 0.63114 0.85098 0.0
C1504 C 0.31789 0.63789 0.84439 0.0
H1505 H 0.39626 0.64816 0.85502 0.0
H1506 H 0.35542 0.60796 0.85734 0.0
C1507 C 0.31093 0.66814 0.83581 0.0
C1508 C 0.31198 0.33609 0.83235 0.0
C1509 C 0.31386 0.36172 0.84737 0.0
H1510 H 0.33292 0.29282 0.82082 0.0
C1511 C 0.33895 0.36268 0.86285 0.0
H1512 H 0.29306 0.33472 0.82013 0.0
C1513 C 0.36196 0.33902 0.86303 0.0
C1514 C 0.36039 0.31356 0.84786 0.0
H1515 H 0.34088 0.38178 0.87491 0.0
H1516 H 0.38134 0.34109 0.87483 0.0
C1517 C 0.33502 0.31227 0.83258 0.0
C1518 C 0.68843 0.32896 0.86107 0.0
C1519 C 0.69268 0.35129 0.84382 0.0
H1520 H 0.66159 0.28946 0.87319 0.0
C1521 C 0.67366 0.34937 0.82452 0.0
H1522 H 0.70294 0.32977 0.87606 0.0
C1523 C 0.64996 0.32641 0.82291 0.0
C1524 C 0.6451 0.30467 0.84045 0.0
H1525 H 0.67628 0.36641 0.81104 0.0
H1526 H 0.63505 0.32596 0.80811 0.0
C1527 C 0.66499 0.30575 0.85934 0.0
C1528 C 0.68543 0.33955 0.16968 0.0
C1529 C 0.68551 0.36352 0.15329 0.0
H1530 H 0.6628 0.29768 0.18219 0.0
C1531 C 0.66231 0.36295 0.13639 0.0
H1532 H 0.7029 0.33944 0.18299 0.0
C1533 C 0.63929 0.33929 0.13603 0.0
C1534 C 0.6389 0.3155 0.15254 0.0
H1535 H 0.66195 0.38081 0.12333 0.0
H1536 H 0.62143 0.34 0.123 0.0
C1537 C 0.66229 0.31583 0.16935 0.0
C1538 C 0.64986 0.67205 0.17452 0.0
C1539 C 0.64285 0.69068 0.15559 0.0
H1540 H 0.67779 0.63441 0.18822 0.0
C1541 C 0.66071 0.68647 0.13591 0.0
H1542 H 0.63668 0.67496 0.18999 0.0
C1543 C 0.6843 0.66334 0.13493 0.0
C1544 C 0.69065 0.64405 0.15363 0.0
H1545 H 0.65571 0.70027 0.12099 0.0
H1546 H 0.69729 0.66025 0.11939 0.0
C1547 C 0.67359 0.64904 0.17358 0.0
C1548 C 0.36013 0.65673 0.17254 0.0
C1549 C 0.35654 0.68388 0.15912 0.0
H1550 H 0.34063 0.61225 0.18284 0.0
C1551 C 0.32869 0.6875 0.14646 0.0
H1552 H 0.38141 0.65314 0.18235 0.0
C1553 C 0.30533 0.66405 0.14674 0.0
C1554 C 0.30951 0.63639 0.15952 0.0
H1555 H 0.32513 0.70831 0.13614 0.0
H1556 H 0.28453 0.66706 0.13633 0.0
C1557 C 0.33692 0.6332 0.17267 0.0
C1558 C 0.31744 0.33547 0.13353 0.0
C1559 C 0.30982 0.35344 0.15266 0.0
H1560 H 0.34649 0.29908 0.1194 0.0
C1561 C 0.32508 0.34658 0.17306 0.0
H1562 H 0.30583 0.33996 0.11762 0.0
C1563 C 0.34823 0.32299 0.17412 0.0
C1564 C 0.35648 0.30565 0.15483 0.0
H1565 H 0.31988 0.36014 0.18806 0.0
H1566 H 0.35995 0.31858 0.18999 0.0
C1567 C 0.34047 0.31181 0.13461 0.0
C1568 C 0.05223 0.4593 0.27046 0.0
C1569 C 0.0383 0.42967 0.26615 0.0
H1570 H 0.08039 0.49741 0.25762 0.0
C1571 C 0.03943 0.41745 0.2442 0.0
H1572 H 0.05131 0.46959 0.28711 0.0
C1573 C 0.05599 0.43335 0.22736 0.0
C1574 C 0.07185 0.46184 0.23207 0.0
H1575 H 0.02937 0.3945 0.24033 0.0
H1576 H 0.05811 0.42216 0.21106 0.0
C1577 C 0.06888 0.47521 0.25359 0.0
C1578 C 0.5617 0.03084 0.2491 0.0
C1579 C 0.56633 0.04264 0.27097 0.0
H1580 H 0.54464 0.04021 0.21586 0.0
C1581 C 0.5527 0.07194 0.27671 0.0
H1582 H 0.57135 0.00812 0.2442 0.0
C1583 C 0.53691 0.08997 0.26062 0.0
C1584 C 0.53462 0.07938 0.23832 0.0
H1585 H 0.5559 0.08208 0.29326 0.0
H1586 H 0.52777 0.11296 0.26542 0.0
C1587 C 0.54606 0.04907 0.23291 0.0
C1588 C 0.94605 0.55992 0.22775 0.0
C1589 C 0.92432 0.53702 0.23529 0.0
H1590 H 0.9792 0.59601 0.23663 0.0
C1591 C 0.92209 0.53115 0.25851 0.0
H1592 H 0.94836 0.56542 0.21006 0.0
C1593 C 0.93934 0.54937 0.27384 0.0
C1594 C 0.9594 0.5737 0.26626 0.0
H1595 H 0.90608 0.51329 0.26492 0.0
H1596 H 0.93552 0.54557 0.29162 0.0
C1597 C 0.96349 0.57787 0.24303 0.0
C1598 C 0.42982 0.96485 0.24515 0.0
C1599 C 0.42845 0.9558 0.26788 0.0
H1600 H 0.44571 0.95317 0.21203 0.0
C1601 C 0.44642 0.92963 0.27499 0.0
H1602 H 0.41669 0.9852 0.23919 0.0
C1603 C 0.46344 0.91162 0.2595 0.0
C1604 C 0.46277 0.91921 0.23653 0.0
H1605 H 0.44582 0.92176 0.2923 0.0
H1606 H 0.47599 0.89085 0.26539 0.0
C1607 C 0.44677 0.94671 0.22962 0.0
C1608 C 0.05575 0.56096 0.77303 0.0
C1609 C 0.07627 0.53685 0.7657 0.0
H1610 H 0.02385 0.59797 0.76379 0.0
C1611 C 0.07749 0.52977 0.74261 0.0
H1612 H 0.05428 0.56739 0.7906 0.0
C1613 C 0.06045 0.54793 0.72713 0.0
C1614 C 0.04169 0.57341 0.73443 0.0
H1615 H 0.09258 0.511 0.7364 0.0
H1616 H 0.06344 0.54312 0.70938 0.0
C1617 C 0.03856 0.57887 0.7576 0.0
C1618 C 0.44097 0.05031 0.77022 0.0
C1619 C 0.46045 0.07531 0.76302 0.0
H1620 H 0.40776 0.01442 0.76086 0.0
C1621 C 0.46358 0.08094 0.73987 0.0
H1622 H 0.43789 0.04535 0.78794 0.0
C1623 C 0.44572 0.06375 0.72439 0.0
C1624 C 0.42453 0.04018 0.73165 0.0
H1625 H 0.47886 0.09962 0.73372 0.0
H1626 H 0.44724 0.07035 0.70685 0.0
C1627 C 0.42331 0.03284 0.7547 0.0
C1628 C 0.96182 0.42162 0.75523 0.0
C1629 C 0.96245 0.43405 0.73333 0.0
H1630 H 0.94333 0.42558 0.78846 0.0
C1631 C 0.94779 0.46338 0.72921 0.0
H1632 H 0.97242 0.39888 0.75896 0.0
C1633 C 0.93094 0.47876 0.74623 0.0
C1634 C 0.92848 0.46513 0.76771 0.0
H1635 H 0.94829 0.47382 0.7126 0.0
H1636 H 0.91888 0.50071 0.74236 0.0
C1637 C 0.94504 0.43698 0.77221 0.0
C1638 C 0.5567 0.93401 0.72475 0.0
C1639 C 0.57549 0.95953 0.73202 0.0
H1640 H 0.52637 0.89572 0.7341 0.0
C1641 C 0.57498 0.96782 0.75492 0.0
H1642 H 0.5566 0.9267 0.70732 0.0
C1643 C 0.55808 0.94952 0.77039 0.0
C1644 C 0.54118 0.92267 0.76326 0.0
H1645 H 0.58872 0.98767 0.76104 0.0
H1646 H 0.55982 0.95537 0.78806 0.0
C1647 C 0.53965 0.91592 0.74017 0.0
C1648 C 0.00083 0.35662 0.48771 0.0
C1649 C 0.00171 0.32766 0.47606 0.0
H1650 H 0.99837 0.37966 0.51982 0.0
C1651 C 0.00057 0.29928 0.48834 0.0
H1652 H 0.00184 0.37887 0.47869 0.0
C1653 C 0.99884 0.29974 0.51169 0.0
C1654 C 0.998 0.32858 0.52343 0.0
H1655 H 0.00073 0.27657 0.47988 0.0
H1656 H 0.99847 0.27735 0.52057 0.0
C1657 C 0.99914 0.35707 0.51122 0.0
C1658 C 0.67951 0.02896 0.51212 0.0
C1659 C 0.66079 0.0071 0.52401 0.0
H1660 H 0.69477 0.04594 0.48006 0.0
C1661 C 0.64178 0.9858 0.5118 0.0
H1662 H 0.69506 0.04519 0.52087 0.0
C1663 C 0.64207 0.98593 0.4883 0.0
C1664 C 0.66104 0.00763 0.47655 0.0
H1665 H 0.62678 0.9689 0.52038 0.0
H1666 H 0.62747 0.96909 0.4793 0.0
C1667 C 0.67948 0.02933 0.4887 0.0
C1668 C 0.96871 0.67404 0.51169 0.0
C1669 C 0.99135 0.65645 0.52366 0.0
H1670 H 0.95192 0.68935 0.47965 0.0
C1671 C 0.01371 0.6386 0.51158 0.0
H1672 H 0.95153 0.68854 0.52042 0.0
C1673 C 0.01396 0.63911 0.48808 0.0
C1674 C 0.99184 0.65743 0.47616 0.0
H1675 H 0.03122 0.62448 0.52029 0.0
H1676 H 0.03165 0.62536 0.47924 0.0
C1677 C 0.96895 0.67452 0.48825 0.0
C1678 C 0.36311 0.98736 0.51073 0.0
C1679 C 0.34373 0.00881 0.52236 0.0
H1680 H 0.37862 0.97018 0.47874 0.0
C1681 C 0.32504 0.03016 0.5101 0.0
H1682 H 0.37788 0.97077 0.51982 0.0
C1683 C 0.32504 0.02956 0.48668 0.0
C1684 C 0.34401 0.00778 0.47491 0.0
H1685 H 0.30942 0.04656 0.51864 0.0
H1686 H 0.30921 0.04541 0.47785 0.0
C1687 C 0.36341 0.98698 0.48723 0.0
C1688 C 0.46934 0.82631 0.9876 0.0
C1689 C 0.49227 0.84341 0.97553 0.0
H1690 H 0.45234 0.81158 0.01974 0.0
C1691 C 0.51489 0.86104 0.98754 0.0
H1692 H 0.45193 0.81197 0.97896 0.0
C1693 C 0.51519 0.8607 0.01104 0.0
C1694 C 0.49282 0.8428 0.02304 0.0
H1695 H 0.53261 0.87483 0.97877 0.0
H1696 H 0.53315 0.87418 0.01981 0.0
C1697 C 0.46959 0.82605 0.01105 0.0
C1698 C 0.12908 0.48297 0.98734 0.0
C1699 C 0.14764 0.5047 0.97531 0.0
H1700 H 0.11462 0.4661 0.01966 0.0
C1701 C 0.16577 0.52699 0.98715 0.0
H1702 H 0.11477 0.46565 0.97857 0.0
C1703 C 0.16612 0.52698 0.01057 0.0
C1704 C 0.14809 0.50487 0.02275 0.0
H1705 H 0.18079 0.54361 0.9783 0.0
H1706 H 0.18161 0.54352 0.01907 0.0
C1707 C 0.12912 0.48319 0.01084 0.0
C1708 C 0.48299 0.13527 0.01014 0.0
C1709 C 0.50564 0.15233 0.02249 0.0
H1710 H 0.46592 0.12198 0.97759 0.0
C1711 C 0.52965 0.16848 0.01085 0.0
H1712 H 0.46443 0.12227 0.01864 0.0
C1713 C 0.53046 0.1684 0.98742 0.0
C1714 C 0.50731 0.15212 0.975 0.0
H1715 H 0.54712 0.18235 0.01981 0.0
H1716 H 0.54851 0.18225 0.97905 0.0
C1717 C 0.48385 0.13512 0.98664 0.0
C1718 C 0.87277 0.47937 0.98975 0.0
C1719 C 0.8542 0.50137 0.97783 0.0
H1720 H 0.88694 0.46175 0.02205 0.0
C1721 C 0.83664 0.52388 0.99 0.0
H1722 H 0.88689 0.46195 0.98095 0.0
C1723 C 0.83715 0.52404 0.01341 0.0
C1724 C 0.85493 0.5015 0.02527 0.0
H1725 H 0.82142 0.54066 0.9815 0.0
H1726 H 0.82252 0.54102 0.02225 0.0
C1727 C 0.87295 0.4793 0.01326 0.0
loop_
_geom_bond_atom_site_label_1
_geom_bond_atom_site_label_2
_geom_bond_distance
_geom_bond_site_symmetry_2
_ccdc_geom_bond_type
Li0 N17 1.990 . S
Li0 O60 1.956 1_455 S
Li0 O61 1.970 . S
Li0 O62 1.961 . S
Li1 N25 1.990 . S
Li1 O60 1.970 1_455 S
Li1 O61 1.956 . S
Li1 O63 1.961 1_455 S
Li2 N47 1.990 . S
Li2 O60 1.961 . S
Li2 O62 1.956 1_655 S
Li2 O63 1.970 . S
Li3 N53 1.990 . S
Li3 O61 1.961 . S
Li3 O62 1.970 . S
Li3 O63 1.956 1_455 S
C4 C6 1.348 . S
C4 C7 1.356 . S
C4 O60 1.325 . S
N5 C8 1.314 . S
N5 C9 1.279 . S
C6 C4 1.348 . S
C6 C8 1.353 . S
C6 H64 0.929 1_655 S
C7 C4 1.356 . S
C7 C9 1.358 . S
C7 H65 0.930 . S
C8 N5 1.314 . S
C8 C6 1.353 . S
C8 H66 0.930 . S
C9 N5 1.279 . S
C9 C7 1.358 . S
C9 H67 0.930 . S
C10 C13 1.348 . S
C10 C14 1.356 . S
C10 O61 1.325 . S
C11 N12 1.279 . S
C11 C14 1.358 . S
C11 H68 0.930 . S
N12 C11 1.279 . S
N12 C15 1.314 . S
C13 C10 1.348 . S
C13 C15 1.353 . S
C13 H69 0.929 . S
C14 C10 1.356 . S
C14 C11 1.358 . S
C14 H70 0.930 . S
C15 N12 1.314 . S
C15 C13 1.353 . S
C15 H71 0.930 . S
C16 N17 1.314 . S
C16 C21 1.353 . S
C16 H22 0.930 . S
N17 Li0 1.990 . S
N17 C16 1.314 . S
N17 C19 1.279 . S
C18 C19 1.358 . S
C18 C20 1.356 . S
C18 H72 0.930 . S
C19 N17 1.279 . S
C19 C18 1.358 . S
C19 H23 0.930 . S
C20 C18 1.356 . S
C20 C21 1.348 . S
C21 C16 1.353 . S
C21 C20 1.348 . S
C21 H73 0.929 . S
H22 C16 0.930 . S
H23 C19 0.930 . S
C24 N25 1.314 1_655 S
C24 C26 1.353 . S
C24 H30 0.930 . S
N25 Li1 1.990 . S
N25 C24 1.314 1_455 S
N25 C28 1.279 . S
C26 C24 1.353 . S
C26 C29 1.348 . S
C26 H74 0.929 . S
C27 C28 1.358 . S
C27 C29 1.356 1_455 S
C27 H75 0.930 . S
C28 N25 1.279 . S
C28 C27 1.358 . S
C28 H31 0.930 . S
C29 C26 1.348 . S
C29 C27 1.356 1_655 S
H30 C24 0.930 . S
H31 C28 0.930 . S
C32 C34 1.348 . S
C32 C35 1.356 . S
C32 O62 1.325 . S
N33 C36 1.314 . S
N33 C37 1.279 . S
C34 C32 1.348 . S
C34 C36 1.353 . S
C34 H76 0.925 1_455 S
C35 C32 1.356 . S
C35 C37 1.358 . S
C35 H77 0.930 . S
C36 N33 1.314 . S
C36 C34 1.353 . S
C36 H78 0.930 . S
C37 N33 1.279 . S
C37 C35 1.358 . S
C37 H79 0.930 . S
C38 C39 1.348 . S
C38 C40 1.356 . S
C38 O63 1.325 . S
C39 C38 1.348 . S
C39 C41 1.353 . S
C39 H80 0.929 . S
C40 C38 1.356 . S
C40 C42 1.358 . S
C40 H81 0.930 . S
C41 C39 1.353 . S
C41 N43 1.314 . S
C41 H82 0.930 . S
C42 C40 1.358 . S
C42 N43 1.279 . S
C42 H83 0.930 . S
N43 C41 1.314 . S
N43 C42 1.279 . S
C44 C46 1.353 . S
C44 N47 1.314 . S
C44 H50 0.930 . S
C45 N47 1.279 . S
C45 C48 1.358 . S
C45 H51 0.930 . S
C46 C44 1.353 . S
C46 C49 1.348 . S
C46 H84 0.929 . S
N47 Li2 1.990 . S
N47 C44 1.314 . S
N47 C45 1.279 . S
C48 C45 1.358 . S
C48 C49 1.356 . S
C48 H85 0.930 . S
C49 C46 1.348 . S
C49 C48 1.356 . S
H50 C44 0.930 . S
H51 C45 0.930 . S
C52 N53 1.314 . S
C52 C54 1.353 . S
C52 H58 0.930 . S
N53 Li3 1.990 . S
N53 C52 1.314 . S
N53 C56 1.279 1_455 S
C54 C52 1.353 . S
C54 C57 1.348 . S
C54 H86 0.929 . S
C55 C56 1.355 1_455 S
C55 C57 1.381 . S
C55 H87 0.909 1_455 S
C56 N53 1.279 1_655 S
C56 C55 1.355 1_655 S
C56 H59 0.930 . S
C57 C54 1.348 . S
C57 C55 1.381 . S
H58 C52 0.930 . S
H59 C56 0.930 . S
O60 Li0 1.956 1_655 S
O60 Li1 1.970 1_655 S
O60 Li2 1.961 . S
O60 C4 1.325 . S
O61 Li0 1.970 . S
O61 Li1 1.956 . S
O61 Li3 1.961 . S
O61 C10 1.325 . S
O62 Li0 1.961 . S
O62 Li2 1.956 1_455 S
O62 Li3 1.970 . S
O62 C32 1.325 . S
O63 Li1 1.961 1_655 S
O63 Li2 1.970 . S
O63 Li3 1.956 1_655 S
O63 C38 1.325 . S
H64 C6 0.929 1_455 S
H65 C7 0.930 . S
H66 C8 0.930 . S
H67 C9 0.930 . S
H68 C11 0.930 . S
H69 C13 0.929 . S
H70 C14 0.930 . S
H71 C15 0.930 . S
H72 C18 0.930 . S
H73 C21 0.929 . S
H74 C26 0.929 . S
H75 C27 0.930 . S
H76 C34 0.925 1_655 S
H77 C35 0.930 . S
H78 C36 0.930 . S
H79 C37 0.930 . S
H80 C39 0.929 . S
H81 C40 0.930 . S
H82 C41 0.930 . S
H83 C42 0.930 . S
H84 C46 0.929 . S
H85 C48 0.930 . S
H86 C54 0.929 . S
H87 C55 0.909 1_655 S
Li88 N105 1.990 . S
Li88 O148 1.956 . S
Li88 O149 1.970 . S
Li88 O150 1.961 1_545 S
Li89 N113 1.990 . S
Li89 O148 1.970 . S
Li89 O149 1.956 . S
Li89 O151 1.961 1_545 S
Li90 N135 1.990 . S
Li90 O148 1.961 1_565 S
Li90 O150 1.956 . S
Li90 O151 1.970 . S
Li91 N141 1.990 . S
Li91 O149 1.961 . S
Li91 O150 1.970 1_545 S
Li91 O151 1.956 1_545 S
C92 C94 1.348 . S
C92 C95 1.356 1_545 S
C92 O148 1.325 . S
N93 C96 1.314 . S
N93 C97 1.279 1_545 S
C94 C92 1.348 . S
C94 C96 1.353 . S
C94 H152 0.929 . S
C95 C92 1.356 1_565 S
C95 C97 1.358 . S
C95 H153 0.930 . S
C96 N93 1.314 . S
C96 C94 1.353 . S
C96 H154 0.930 . S
C97 N93 1.279 1_565 S
C97 C95 1.358 . S
C97 H155 0.930 . S
C98 C101 1.348 . S
C98 C102 1.356 . S
C98 O149 1.325 . S
C99 N100 1.279 . S
C99 C102 1.358 . S
C99 H156 0.930 . S
N100 C99 1.279 . S
N100 C103 1.314 . S
C101 C98 1.348 . S
C101 C103 1.353 . S
C101 H157 0.929 . S
C102 C98 1.356 . S
C102 C99 1.358 . S
C102 H158 0.930 . S
C103 N100 1.314 . S
C103 C101 1.353 . S
C103 H159 0.930 . S
C104 N105 1.314 . S
C104 C109 1.353 . S
C104 H110 0.930 . S
N105 Li88 1.990 . S
N105 C104 1.314 . S
N105 C107 1.279 . S
C106 C107 1.358 . S
C106 C108 1.356 . S
C106 H160 0.930 . S
C107 N105 1.279 . S
C107 C106 1.358 . S
C107 H111 0.930 . S
C108 C106 1.356 . S
C108 C109 1.348 . S
C109 C104 1.353 . S
C109 C108 1.348 . S
C109 H161 0.929 . S
H110 C104 0.930 . S
H111 C107 0.930 . S
C112 N113 1.314 . S
C112 C114 1.353 . S
C112 H118 0.930 . S
N113 Li89 1.990 . S
N113 C112 1.314 . S
N113 C116 1.279 . S
C114 C112 1.353 . S
C114 C117 1.348 . S
C114 H162 0.929 . S
C115 C116 1.358 . S
C115 C117 1.356 . S
C115 H163 0.930 . S
C116 N113 1.279 . S
C116 C115 1.358 . S
C116 H119 0.930 . S
C117 C114 1.348 . S
C117 C115 1.356 . S
H118 C112 0.930 . S
H119 C116 0.930 . S
C120 C122 1.348 . S
C120 C123 1.356 . S
C120 O150 1.325 . S
N121 C124 1.314 . S
N121 C125 1.279 . S
C122 C120 1.348 . S
C122 C124 1.353 . S
C122 H164 0.929 . S
C123 C120 1.356 . S
C123 C125 1.358 . S
C123 H165 0.930 . S
C124 N121 1.314 . S
C124 C122 1.353 . S
C124 H166 0.930 . S
C125 N121 1.279 . S
C125 C123 1.358 . S
C125 H167 0.930 . S
C126 C127 1.348 . S
C126 C128 1.356 1_565 S
C126 O151 1.325 . S
C127 C126 1.348 . S
C127 C129 1.353 . S
C127 H168 0.929 . S
C128 C126 1.356 1_545 S
C128 C130 1.358 . S
C128 H169 0.930 . S
C129 C127 1.353 . S
C129 N131 1.314 . S
C129 H170 0.930 . S
C130 C128 1.358 . S
C130 N131 1.279 1_545 S
C130 H171 0.930 . S
N131 C129 1.314 . S
N131 C130 1.279 1_565 S
C132 C134 1.353 . S
C132 N135 1.314 . S
C132 H138 0.930 . S
C133 N135 1.279 . S
C133 C136 1.358 . S
C133 H139 0.930 . S
C134 C132 1.353 . S
C134 C137 1.348 . S
C134 H172 0.929 . S
N135 Li90 1.990 . S
N135 C132 1.314 . S
N135 C133 1.279 . S
C136 C133 1.358 . S
C136 C137 1.356 . S
C136 H173 0.930 . S
C137 C134 1.348 . S
C137 C136 1.356 . S
H138 C132 0.930 . S
H139 C133 0.930 . S
C140 N141 1.314 . S
C140 C142 1.353 . S
C140 H146 0.930 . S
N141 Li91 1.990 . S
N141 C140 1.314 . S
N141 C144 1.279 1_545 S
C142 C140 1.353 . S
C142 C145 1.348 1_545 S
C142 H174 0.929 . S
C143 C144 1.358 . S
C143 C145 1.356 . S
C143 H175 0.930 . S
C144 N141 1.279 1_565 S
C144 C143 1.358 . S
C144 H147 0.930 . S
C145 C142 1.348 1_565 S
C145 C143 1.356 . S
H146 C140 0.930 . S
H147 C144 0.930 . S
O148 Li88 1.956 . S
O148 Li89 1.970 . S
O148 Li90 1.961 1_545 S
O148 C92 1.325 . S
O149 Li88 1.970 . S
O149 Li89 1.956 . S
O149 Li91 1.961 . S
O149 C98 1.325 . S
O150 Li88 1.961 1_565 S
O150 Li90 1.956 . S
O150 Li91 1.970 1_565 S
O150 C120 1.325 . S
O151 Li89 1.961 1_565 S
O151 Li90 1.970 . S
O151 Li91 1.956 1_565 S
O151 C126 1.325 . S
H152 C94 0.929 . S
H153 C95 0.930 . S
H154 C96 0.930 . S
H155 C97 0.930 . S
H156 C99 0.930 . S
H157 C101 0.929 . S
H158 C102 0.930 . S
H159 C103 0.930 . S
H160 C106 0.930 . S
H161 C109 0.929 . S
H162 C114 0.929 . S
H163 C115 0.930 . S
H164 C122 0.929 . S
H165 C123 0.930 . S
H166 C124 0.930 . S
H167 C125 0.930 . S
H168 C127 0.929 . S
H169 C128 0.930 . S
H170 C129 0.930 . S
H171 C130 0.930 . S
H172 C134 0.929 . S
H173 C136 0.930 . S
H174 C142 0.929 . S
H175 C143 0.930 . S
Li176 N193 1.990 . S
Li176 O236 1.956 1_655 S
Li176 O237 1.970 . S
Li176 O238 1.961 . S
Li177 N201 1.990 . S
Li177 O236 1.970 1_655 S
Li177 O237 1.956 . S
Li177 O239 1.961 1_655 S
Li178 N223 1.990 . S
Li178 O236 1.961 . S
Li178 O238 1.956 1_455 S
Li178 O239 1.970 . S
Li179 N229 1.990 . S
Li179 O237 1.961 . S
Li179 O238 1.970 . S
Li179 O239 1.956 1_655 S
C180 C182 1.348 . S
C180 C183 1.356 . S
C180 O236 1.325 . S
N181 C184 1.314 . S
N181 C185 1.279 . S
C182 C180 1.348 . S
C182 C184 1.353 . S
C182 H240 0.929 1_455 S
C183 C180 1.356 . S
C183 C185 1.358 . S
C183 H241 0.930 . S
C184 N181 1.314 . S
C184 C182 1.353 . S
C184 H242 0.930 . S
C185 N181 1.279 . S
C185 C183 1.358 . S
C185 H243 0.930 . S
C186 C189 1.348 . S
C186 C190 1.356 . S
C186 O237 1.325 . S
C187 N188 1.279 . S
C187 C190 1.358 . S
C187 H244 0.930 . S
N188 C187 1.279 . S
N188 C191 1.314 . S
C189 C186 1.348 . S
C189 C191 1.353 . S
C189 H245 0.929 . S
C190 C186 1.356 . S
C190 C187 1.358 . S
C190 H246 0.930 . S
C191 N188 1.314 . S
C191 C189 1.353 . S
C191 H247 0.930 . S
C192 N193 1.314 . S
C192 C197 1.353 . S
C192 H198 0.930 . S
N193 Li176 1.990 . S
N193 C192 1.314 . S
N193 C195 1.279 . S
C194 C195 1.358 . S
C194 C196 1.356 . S
C194 H248 0.930 . S
C195 N193 1.279 . S
C195 C194 1.358 . S
C195 H199 0.930 . S
C196 C194 1.356 . S
C196 C197 1.348 . S
C197 C192 1.353 . S
C197 C196 1.348 . S
C197 H249 0.929 . S
H198 C192 0.930 . S
H199 C195 0.930 . S
C200 N201 1.314 1_455 S
C200 C202 1.353 . S
C200 H206 0.930 . S
N201 Li177 1.990 . S
N201 C200 1.314 1_655 S
N201 C204 1.279 . S
C202 C200 1.353 . S
C202 C205 1.348 . S
C202 H250 0.929 . S
C203 C204 1.358 . S
C203 C205 1.356 1_655 S
C203 H251 0.930 . S
C204 N201 1.279 . S
C204 C203 1.358 . S
C204 H207 0.930 . S
C205 C202 1.348 . S
C205 C203 1.356 1_455 S
H206 C200 0.930 . S
H207 C204 0.930 . S
C208 C210 1.348 . S
C208 C211 1.356 . S
C208 O238 1.325 . S
N209 C212 1.314 . S
N209 C213 1.279 . S
C210 C208 1.348 . S
C210 C212 1.353 . S
C210 H252 0.925 1_655 S
C211 C208 1.356 . S
C211 C213 1.358 . S
C211 H253 0.930 . S
C212 N209 1.314 . S
C212 C210 1.353 . S
C212 H254 0.930 . S
C213 N209 1.279 . S
C213 C211 1.358 . S
C213 H255 0.930 . S
C214 C215 1.348 . S
C214 C216 1.356 . S
C214 O239 1.325 . S
C215 C214 1.348 . S
C215 C217 1.353 . S
C215 H256 0.929 . S
C216 C214 1.356 . S
C216 C218 1.358 . S
C216 H257 0.930 . S
C217 C215 1.353 . S
C217 N219 1.314 . S
C217 H258 0.930 . S
C218 C216 1.358 . S
C218 N219 1.279 . S
C218 H259 0.930 . S
N219 C217 1.314 . S
N219 C218 1.279 . S
C220 C222 1.353 . S
C220 N223 1.314 . S
C220 H226 0.930 . S
C221 N223 1.279 . S
C221 C224 1.358 . S
C221 H227 0.930 . S
C222 C220 1.353 . S
C222 C225 1.348 . S
C222 H260 0.929 . S
N223 Li178 1.990 . S
N223 C220 1.314 . S
N223 C221 1.279 . S
C224 C221 1.358 . S
C224 C225 1.356 . S
C224 H261 0.930 . S
C225 C222 1.348 . S
C225 C224 1.356 . S
H226 C220 0.930 . S
H227 C221 0.930 . S
C228 N229 1.314 . S
C228 C230 1.353 . S
C228 H234 0.930 . S
N229 Li179 1.990 . S
N229 C228 1.314 . S
N229 C232 1.279 1_655 S
C230 C228 1.353 . S
C230 C233 1.348 . S
C230 H262 0.929 . S
C231 C232 1.355 1_655 S
C231 C233 1.381 . S
C231 H263 0.909 1_655 S
C232 N229 1.279 1_455 S
C232 C231 1.355 1_455 S
C232 H235 0.930 . S
C233 C230 1.348 . S
C233 C231 1.381 . S
H234 C228 0.930 . S
H235 C232 0.930 . S
O236 Li176 1.956 1_455 S
O236 Li177 1.970 1_455 S
O236 Li178 1.961 . S
O236 C180 1.325 . S
O237 Li176 1.970 . S
O237 Li177 1.956 . S
O237 Li179 1.961 . S
O237 C186 1.325 . S
O238 Li176 1.961 . S
O238 Li178 1.956 1_655 S
O238 Li179 1.970 . S
O238 C208 1.325 . S
O239 Li177 1.961 1_455 S
O239 Li178 1.970 . S
O239 Li179 1.956 1_455 S
O239 C214 1.325 . S
H240 C182 0.929 1_655 S
H241 C183 0.930 . S
H242 C184 0.930 . S
H243 C185 0.930 . S
H244 C187 0.930 . S
H245 C189 0.929 . S
H246 C190 0.930 . S
H247 C191 0.930 . S
H248 C194 0.930 . S
H249 C197 0.929 . S
H250 C202 0.929 . S
H251 C203 0.930 . S
H252 C210 0.925 1_455 S
H253 C211 0.930 . S
H254 C212 0.930 . S
H255 C213 0.930 . S
H256 C215 0.929 . S
H257 C216 0.930 . S
H258 C217 0.930 . S
H259 C218 0.930 . S
H260 C222 0.929 . S
H261 C224 0.930 . S
H262 C230 0.929 . S
H263 C231 0.909 1_455 S
Li264 N281 1.990 . S
Li264 O324 1.956 1_565 S
Li264 O325 1.970 1_565 S
Li264 O326 1.961 . S
Li265 N289 1.990 . S
Li265 O324 1.970 . S
Li265 O325 1.956 . S
Li265 O327 1.961 1_545 S
Li266 N311 1.990 . S
Li266 O324 1.961 1_565 S
Li266 O326 1.956 . S
Li266 O327 1.970 . S
Li267 N317 1.990 . S
Li267 O325 1.961 1_565 S
Li267 O326 1.970 . S
Li267 O327 1.956 . S
C268 C270 1.348 . S
C268 C271 1.356 1_545 S
C268 O324 1.325 . S
N269 C272 1.314 . S
N269 C273 1.279 1_545 S
C270 C268 1.348 . S
C270 C272 1.353 . S
C270 H328 0.929 . S
C271 C268 1.356 1_565 S
C271 C273 1.358 . S
C271 H329 0.930 . S
C272 N269 1.314 . S
C272 C270 1.353 . S
C272 H330 0.930 . S
C273 N269 1.279 1_565 S
C273 C271 1.358 . S
C273 H331 0.930 . S
C274 C277 1.348 . S
C274 C278 1.356 . S
C274 O325 1.325 . S
C275 N276 1.279 . S
C275 C278 1.358 . S
C275 H332 0.930 . S
N276 C275 1.279 . S
N276 C279 1.314 . S
C277 C274 1.348 . S
C277 C279 1.353 . S
C277 H333 0.929 . S
C278 C274 1.356 . S
C278 C275 1.358 . S
C278 H334 0.930 . S
C279 N276 1.314 . S
C279 C277 1.353 . S
C279 H335 0.930 . S
C280 N281 1.314 . S
C280 C285 1.353 . S
C280 H286 0.930 . S
N281 Li264 1.990 . S
N281 C280 1.314 . S
N281 C283 1.279 1_565 S
C282 C283 1.358 . S
C282 C284 1.356 . S
C282 H336 0.930 . S
C283 N281 1.279 1_545 S
C283 C282 1.358 . S
C283 H287 0.930 . S
C284 C282 1.356 . S
C284 C285 1.348 1_545 S
C285 C280 1.353 . S
C285 C284 1.348 1_565 S
C285 H337 0.929 . S
H286 C280 0.930 . S
H287 C283 0.930 . S
C288 N289 1.314 . S
C288 C290 1.353 . S
C288 H294 0.930 . S
N289 Li265 1.990 . S
N289 C288 1.314 . S
N289 C292 1.279 . S
C290 C288 1.353 . S
C290 C293 1.348 . S
C290 H338 0.929 . S
C291 C292 1.358 . S
C291 C293 1.356 . S
C291 H339 0.930 . S
C292 N289 1.279 . S
C292 C291 1.358 . S
C292 H295 0.930 . S
C293 C290 1.348 . S
C293 C291 1.356 . S
H294 C288 0.930 . S
H295 C292 0.930 . S
C296 C298 1.348 . S
C296 C299 1.356 . S
C296 O326 1.325 . S
N297 C300 1.314 . S
N297 C301 1.279 . S
C298 C296 1.348 . S
C298 C300 1.353 . S
C298 H340 0.929 . S
C299 C296 1.356 . S
C299 C301 1.358 . S
C299 H341 0.930 . S
C300 N297 1.314 . S
C300 C298 1.353 . S
C300 H342 0.930 . S
C301 N297 1.279 . S
C301 C299 1.358 . S
C301 H343 0.930 . S
C302 C303 1.348 . S
C302 C304 1.356 1_565 S
C302 O327 1.325 . S
C303 C302 1.348 . S
C303 C305 1.353 . S
C303 H344 0.929 . S
C304 C302 1.356 1_545 S
C304 C306 1.358 . S
C304 H345 0.930 . S
C305 C303 1.353 . S
C305 N307 1.314 . S
C305 H346 0.930 . S
C306 C304 1.358 . S
C306 N307 1.279 1_545 S
C306 H347 0.930 . S
N307 C305 1.314 . S
N307 C306 1.279 1_565 S
C308 C310 1.353 . S
C308 N311 1.314 . S
C308 H314 0.930 . S
C309 N311 1.279 . S
C309 C312 1.358 . S
C309 H315 0.930 . S
C310 C308 1.353 . S
C310 C313 1.348 . S
C310 H348 0.929 . S
N311 Li266 1.990 . S
N311 C308 1.314 . S
N311 C309 1.279 . S
C312 C309 1.358 . S
C312 C313 1.356 . S
C312 H349 0.930 . S
C313 C310 1.348 . S
C313 C312 1.356 . S
H314 C308 0.930 . S
H315 C309 0.930 . S
C316 N317 1.314 . S
C316 C318 1.353 . S
C316 H322 0.930 . S
N317 Li267 1.990 . S
N317 C316 1.314 . S
N317 C320 1.279 . S
C318 C316 1.353 . S
C318 C321 1.348 . S
C318 H350 0.929 . S
C319 C320 1.358 . S
C319 C321 1.356 . S
C319 H351 0.930 . S
C320 N317 1.279 . S
C320 C319 1.358 . S
C320 H323 0.930 . S
C321 C318 1.348 . S
C321 C319 1.356 . S
H322 C316 0.930 . S
H323 C320 0.930 . S
O324 Li264 1.956 1_545 S
O324 Li265 1.970 . S
O324 Li266 1.961 1_545 S
O324 C268 1.325 . S
O325 Li264 1.970 1_545 S
O325 Li265 1.956 . S
O325 Li267 1.961 1_545 S
O325 C274 1.325 . S
O326 Li264 1.961 . S
O326 Li266 1.956 . S
O326 Li267 1.970 . S
O326 C296 1.325 . S
O327 Li265 1.961 1_565 S
O327 Li266 1.970 . S
O327 Li267 1.956 . S
O327 C302 1.325 . S
H328 C270 0.929 . S
H329 C271 0.930 . S
H330 C272 0.930 . S
H331 C273 0.930 . S
H332 C275 0.930 . S
H333 C277 0.929 . S
H334 C278 0.930 . S
H335 C279 0.930 . S
H336 C282 0.930 . S
H337 C285 0.929 . S
H338 C290 0.929 . S
H339 C291 0.930 . S
H340 C298 0.929 . S
H341 C299 0.930 . S
H342 C300 0.930 . S
H343 C301 0.930 . S
H344 C303 0.929 . S
H345 C304 0.930 . S
H346 C305 0.930 . S
H347 C306 0.930 . S
H348 C310 0.929 . S
H349 C312 0.930 . S
H350 C318 0.929 . S
H351 C319 0.930 . S
Li352 N369 1.990 . S
Li352 O412 1.956 1_455 S
Li352 O413 1.970 . S
Li352 O414 1.961 . S
Li353 N377 1.990 . S
Li353 O412 1.970 . S
Li353 O413 1.956 1_655 S
Li353 O415 1.961 . S
Li354 N399 1.990 . S
Li354 O412 1.961 1_455 S
Li354 O414 1.956 . S
Li354 O415 1.970 1_455 S
Li355 N405 1.990 . S
Li355 O413 1.961 . S
Li355 O414 1.970 . S
Li355 O415 1.956 1_455 S
C356 C358 1.348 . S
C356 C359 1.356 . S
C356 O412 1.325 . S
N357 C360 1.314 . S
N357 C361 1.279 . S
C358 C356 1.348 . S
C358 C360 1.353 . S
C358 H416 0.929 . S
C359 C356 1.356 . S
C359 C361 1.358 . S
C359 H417 0.930 . S
C360 N357 1.314 . S
C360 C358 1.353 . S
C360 H418 0.930 . S
C361 N357 1.279 . S
C361 C359 1.358 . S
C361 H419 0.930 . S
C362 C365 1.348 . S
C362 C366 1.356 . S
C362 O413 1.325 . S
C363 N364 1.279 . S
C363 C366 1.358 . S
C363 H420 0.930 . S
N364 C363 1.279 . S
N364 C367 1.314 . S
C365 C362 1.348 . S
C365 C367 1.353 . S
C365 H421 0.925 1_455 S
C366 C362 1.356 . S
C366 C363 1.358 . S
C366 H422 0.930 . S
C367 N364 1.314 . S
C367 C365 1.353 . S
C367 H423 0.930 . S
C368 N369 1.314 . S
C368 C373 1.353 . S
C368 H374 0.930 . S
N369 Li352 1.990 . S
N369 C368 1.314 . S
N369 C371 1.279 1_455 S
C370 C371 1.355 1_455 S
C370 C372 1.381 . S
C370 H424 0.909 1_455 S
C371 N369 1.279 1_655 S
C371 C370 1.355 1_655 S
C371 H375 0.930 . S
C372 C370 1.381 . S
C372 C373 1.348 . S
C373 C368 1.353 . S
C373 C372 1.348 . S
C373 H425 0.929 . S
H374 C368 0.930 . S
H375 C371 0.930 . S
C376 N377 1.314 . S
C376 C378 1.353 . S
C376 H382 0.930 . S
N377 Li353 1.990 . S
N377 C376 1.314 . S
N377 C380 1.279 . S
C378 C376 1.353 . S
C378 C381 1.348 . S
C378 H426 0.929 . S
C379 C380 1.358 . S
C379 C381 1.356 . S
C379 H427 0.930 . S
C380 N377 1.279 . S
C380 C379 1.358 . S
C380 H383 0.930 . S
C381 C378 1.348 . S
C381 C379 1.356 . S
H382 C376 0.930 . S
H383 C380 0.930 . S
C384 C386 1.348 . S
C384 C387 1.356 . S
C384 O414 1.325 . S
N385 C388 1.314 . S
N385 C389 1.279 . S
C386 C384 1.348 . S
C386 C388 1.353 . S
C386 H428 0.929 . S
C387 C384 1.356 . S
C387 C389 1.358 . S
C387 H429 0.930 . S
C388 N385 1.314 . S
C388 C386 1.353 . S
C388 H430 0.930 . S
C389 N385 1.279 . S
C389 C387 1.358 . S
C389 H431 0.930 . S
C390 C391 1.348 . S
C390 C392 1.356 . S
C390 O415 1.325 . S
C391 C390 1.348 . S
C391 C393 1.353 . S
C391 H432 0.929 1_655 S
C392 C390 1.356 . S
C392 C394 1.358 . S
C392 H433 0.930 . S
C393 C391 1.353 . S
C393 N395 1.314 . S
C393 H434 0.930 . S
C394 C392 1.358 . S
C394 N395 1.279 . S
C394 H435 0.930 . S
N395 C393 1.314 . S
N395 C394 1.279 . S
C396 C398 1.353 . S
C396 N399 1.314 1_655 S
C396 H402 0.930 . S
C397 N399 1.279 . S
C397 C400 1.358 . S
C397 H403 0.930 . S
C398 C396 1.353 . S
C398 C401 1.348 . S
C398 H436 0.929 . S
N399 Li354 1.990 . S
N399 C396 1.314 1_455 S
N399 C397 1.279 . S
C400 C397 1.358 . S
C400 C401 1.356 1_455 S
C400 H437 0.930 . S
C401 C398 1.348 . S
C401 C400 1.356 1_655 S
H402 C396 0.930 . S
H403 C397 0.930 . S
C404 N405 1.314 . S
C404 C406 1.353 . S
C404 H410 0.930 . S
N405 Li355 1.990 . S
N405 C404 1.314 . S
N405 C408 1.279 . S
C406 C404 1.353 . S
C406 C409 1.348 . S
C406 H438 0.929 . S
C407 C408 1.358 . S
C407 C409 1.356 . S
C407 H439 0.930 . S
C408 N405 1.279 . S
C408 C407 1.358 . S
C408 H411 0.930 . S
C409 C406 1.348 . S
C409 C407 1.356 . S
H410 C404 0.930 . S
H411 C408 0.930 . S
O412 Li352 1.956 1_655 S
O412 Li353 1.970 . S
O412 Li354 1.961 1_655 S
O412 C356 1.325 . S
O413 Li352 1.970 . S
O413 Li353 1.956 1_455 S
O413 Li355 1.961 . S
O413 C362 1.325 . S
O414 Li352 1.961 . S
O414 Li354 1.956 . S
O414 Li355 1.970 . S
O414 C384 1.325 . S
O415 Li353 1.961 . S
O415 Li354 1.970 1_655 S
O415 Li355 1.956 1_655 S
O415 C390 1.325 . S
H416 C358 0.929 . S
H417 C359 0.930 . S
H418 C360 0.930 . S
H419 C361 0.930 . S
H420 C363 0.930 . S
H421 C365 0.925 1_655 S
H422 C366 0.930 . S
H423 C367 0.930 . S
H424 C370 0.909 1_655 S
H425 C373 0.929 . S
H426 C378 0.929 . S
H427 C379 0.930 . S
H428 C386 0.929 . S
H429 C387 0.930 . S
H430 C388 0.930 . S
H431 C389 0.930 . S
H432 C391 0.929 1_455 S
H433 C392 0.930 . S
H434 C393 0.930 . S
H435 C394 0.930 . S
H436 C398 0.929 . S
H437 C400 0.930 . S
H438 C406 0.929 . S
H439 C407 0.930 . S
Li440 N457 1.990 . S
Li440 O500 1.956 . S
Li440 O501 1.970 . S
Li440 O502 1.961 1_545 S
Li441 N465 1.990 . S
Li441 O500 1.970 . S
Li441 O501 1.956 . S
Li441 O503 1.961 1_545 S
Li442 N487 1.990 . S
Li442 O500 1.961 . S
Li442 O502 1.956 1_545 S
Li442 O503 1.970 1_545 S
Li443 N493 1.990 . S
Li443 O501 1.961 1_565 S
Li443 O502 1.970 . S
Li443 O503 1.956 . S
C444 C446 1.348 . S
C444 C447 1.356 . S
C444 O500 1.325 . S
N445 C448 1.314 . S
N445 C449 1.279 . S
C446 C444 1.348 . S
C446 C448 1.353 . S
C446 H504 0.929 . S
C447 C444 1.356 . S
C447 C449 1.358 . S
C447 H505 0.930 . S
C448 N445 1.314 . S
C448 C446 1.353 . S
C448 H506 0.930 . S
C449 N445 1.279 . S
C449 C447 1.358 . S
C449 H507 0.930 . S
C450 C453 1.348 . S
C450 C454 1.356 1_545 S
C450 O501 1.325 . S
C451 N452 1.279 1_565 S
C451 C454 1.358 . S
C451 H508 0.930 . S
N452 C451 1.279 1_545 S
N452 C455 1.314 . S
C453 C450 1.348 . S
C453 C455 1.353 . S
C453 H509 0.929 . S
C454 C450 1.356 1_565 S
C454 C451 1.358 . S
C454 H510 0.930 . S
C455 N452 1.314 . S
C455 C453 1.353 . S
C455 H511 0.930 . S
C456 N457 1.314 . S
C456 C461 1.353 . S
C456 H462 0.930 . S
N457 Li440 1.990 . S
N457 C456 1.314 . S
N457 C459 1.279 . S
C458 C459 1.358 . S
C458 C460 1.356 . S
C458 H512 0.930 . S
C459 N457 1.279 . S
C459 C458 1.358 . S
C459 H463 0.930 . S
C460 C458 1.356 . S
C460 C461 1.348 . S
C461 C456 1.353 . S
C461 C460 1.348 . S
C461 H513 0.929 . S
H462 C456 0.930 . S
H463 C459 0.930 . S
C464 N465 1.314 . S
C464 C466 1.353 . S
C464 H470 0.930 . S
N465 Li441 1.990 . S
N465 C464 1.314 . S
N465 C468 1.279 . S
C466 C464 1.353 . S
C466 C469 1.348 . S
C466 H514 0.929 . S
C467 C468 1.358 . S
C467 C469 1.356 . S
C467 H515 0.930 . S
C468 N465 1.279 . S
C468 C467 1.358 . S
C468 H471 0.930 . S
C469 C466 1.348 . S
C469 C467 1.356 . S
H470 C464 0.930 . S
H471 C468 0.930 . S
C472 C474 1.348 . S
C472 C475 1.356 1_565 S
C472 O502 1.325 . S
N473 C476 1.314 . S
N473 C477 1.279 1_565 S
C474 C472 1.348 . S
C474 C476 1.353 . S
C474 H516 0.929 . S
C475 C472 1.356 1_545 S
C475 C477 1.358 . S
C475 H517 0.930 . S
C476 N473 1.314 . S
C476 C474 1.353 . S
C476 H518 0.930 . S
C477 N473 1.279 1_545 S
C477 C475 1.358 . S
C477 H519 0.930 . S
C478 C479 1.348 . S
C478 C480 1.356 . S
C478 O503 1.325 . S
C479 C478 1.348 . S
C479 C481 1.353 . S
C479 H520 0.929 . S
C480 C478 1.356 . S
C480 C482 1.358 . S
C480 H521 0.930 . S
C481 C479 1.353 . S
C481 N483 1.314 . S
C481 H522 0.930 . S
C482 C480 1.358 . S
C482 N483 1.279 . S
C482 H523 0.930 . S
N483 C481 1.314 . S
N483 C482 1.279 . S
C484 C486 1.353 . S
C484 N487 1.314 . S
C484 H490 0.930 . S
C485 N487 1.279 1_565 S
C485 C488 1.358 . S
C485 H491 0.930 . S
C486 C484 1.353 . S
C486 C489 1.348 1_545 S
C486 H524 0.929 . S
N487 Li442 1.990 . S
N487 C484 1.314 . S
N487 C485 1.279 1_545 S
C488 C485 1.358 . S
C488 C489 1.356 . S
C488 H525 0.930 . S
C489 C486 1.348 1_565 S
C489 C488 1.356 . S
H490 C484 0.930 . S
H491 C485 0.930 . S
C492 N493 1.314 . S
C492 C494 1.353 . S
C492 H498 0.930 . S
N493 Li443 1.990 . S
N493 C492 1.314 . S
N493 C496 1.279 . S
C494 C492 1.353 . S
C494 C497 1.348 . S
C494 H526 0.929 . S
C495 C496 1.358 . S
C495 C497 1.356 . S
C495 H527 0.930 . S
C496 N493 1.279 . S
C496 C495 1.358 . S
C496 H499 0.930 . S
C497 C494 1.348 . S
C497 C495 1.356 . S
H498 C492 0.930 . S
H499 C496 0.930 . S
O500 Li440 1.956 . S
O500 Li441 1.970 . S
O500 Li442 1.961 . S
O500 C444 1.325 . S
O501 Li440 1.970 . S
O501 Li441 1.956 . S
O501 Li443 1.961 1_545 S
O501 C450 1.325 . S
O502 Li440 1.961 1_565 S
O502 Li442 1.956 1_565 S
O502 Li443 1.970 . S
O502 C472 1.325 . S
O503 Li441 1.961 1_565 S
O503 Li442 1.970 1_565 S
O503 Li443 1.956 . S
O503 C478 1.325 . S
H504 C446 0.929 . S
H505 C447 0.930 . S
H506 C448 0.930 . S
H507 C449 0.930 . S
H508 C451 0.930 . S
H509 C453 0.929 . S
H510 C454 0.930 . S
H511 C455 0.930 . S
H512 C458 0.930 . S
H513 C461 0.929 . S
H514 C466 0.929 . S
H515 C467 0.930 . S
H516 C474 0.929 . S
H517 C475 0.930 . S
H518 C476 0.930 . S
H519 C477 0.930 . S
H520 C479 0.929 . S
H521 C480 0.930 . S
H522 C481 0.930 . S
H523 C482 0.930 . S
H524 C486 0.929 . S
H525 C488 0.930 . S
H526 C494 0.929 . S
H527 C495 0.930 . S
Li528 N545 1.990 . S
Li528 O588 1.956 1_655 S
Li528 O589 1.970 . S
Li528 O590 1.961 . S
Li529 N553 1.990 . S
Li529 O588 1.970 . S
Li529 O589 1.956 1_455 S
Li529 O591 1.961 . S
Li530 N575 1.990 . S
Li530 O588 1.961 1_655 S
Li530 O590 1.956 . S
Li530 O591 1.970 1_655 S
Li531 N581 1.990 . S
Li531 O589 1.961 . S
Li531 O590 1.970 . S
Li531 O591 1.956 1_655 S
C532 C534 1.348 . S
C532 C535 1.356 . S
C532 O588 1.325 . S
N533 C536 1.314 . S
N533 C537 1.279 . S
C534 C532 1.348 . S
C534 C536 1.353 . S
C534 H592 0.929 . S
C535 C532 1.356 . S
C535 C537 1.358 . S
C535 H593 0.930 . S
C536 N533 1.314 . S
C536 C534 1.353 . S
C536 H594 0.930 . S
C537 N533 1.279 . S
C537 C535 1.358 . S
C537 H595 0.930 . S
C538 C541 1.348 . S
C538 C542 1.356 . S
C538 O589 1.325 . S
C539 N540 1.279 . S
C539 C542 1.358 . S
C539 H596 0.930 . S
N540 C539 1.279 . S
N540 C543 1.314 . S
C541 C538 1.348 . S
C541 C543 1.353 . S
C541 H597 0.925 1_655 S
C542 C538 1.356 . S
C542 C539 1.358 . S
C542 H598 0.930 . S
C543 N540 1.314 . S
C543 C541 1.353 . S
C543 H599 0.930 . S
C544 N545 1.314 . S
C544 C549 1.353 . S
C544 H550 0.930 . S
N545 Li528 1.990 . S
N545 C544 1.314 . S
N545 C547 1.279 1_655 S
C546 C547 1.355 1_655 S
C546 C548 1.381 . S
C546 H600 0.909 1_655 S
C547 N545 1.279 1_455 S
C547 C546 1.355 1_455 S
C547 H551 0.930 . S
C548 C546 1.381 . S
C548 C549 1.348 . S
C549 C544 1.353 . S
C549 C548 1.348 . S
C549 H601 0.929 . S
H550 C544 0.930 . S
H551 C547 0.930 . S
C552 N553 1.314 . S
C552 C554 1.353 . S
C552 H558 0.930 . S
N553 Li529 1.990 . S
N553 C552 1.314 . S
N553 C556 1.279 . S
C554 C552 1.353 . S
C554 C557 1.348 . S
C554 H602 0.929 . S
C555 C556 1.358 . S
C555 C557 1.356 . S
C555 H603 0.930 . S
C556 N553 1.279 . S
C556 C555 1.358 . S
C556 H559 0.930 . S
C557 C554 1.348 . S
C557 C555 1.356 . S
H558 C552 0.930 . S
H559 C556 0.930 . S
C560 C562 1.348 . S
C560 C563 1.356 . S
C560 O590 1.325 . S
N561 C564 1.314 . S
N561 C565 1.279 . S
C562 C560 1.348 . S
C562 C564 1.353 . S
C562 H604 0.929 . S
C563 C560 1.356 . S
C563 C565 1.358 . S
C563 H605 0.930 . S
C564 N561 1.314 . S
C564 C562 1.353 . S
C564 H606 0.930 . S
C565 N561 1.279 . S
C565 C563 1.358 . S
C565 H607 0.930 . S
C566 C567 1.348 . S
C566 C568 1.356 . S
C566 O591 1.325 . S
C567 C566 1.348 . S
C567 C569 1.353 . S
C567 H608 0.929 1_455 S
C568 C566 1.356 . S
C568 C570 1.358 . S
C568 H609 0.930 . S
C569 C567 1.353 . S
C569 N571 1.314 . S
C569 H610 0.930 . S
C570 C568 1.358 . S
C570 N571 1.279 . S
C570 H611 0.930 . S
N571 C569 1.314 . S
N571 C570 1.279 . S
C572 C574 1.353 . S
C572 N575 1.314 1_455 S
C572 H578 0.930 . S
C573 N575 1.279 . S
C573 C576 1.358 . S
C573 H579 0.930 . S
C574 C572 1.353 . S
C574 C577 1.348 . S
C574 H612 0.929 . S
N575 Li530 1.990 . S
N575 C572 1.314 1_655 S
N575 C573 1.279 . S
C576 C573 1.358 . S
C576 C577 1.356 1_655 S
C576 H613 0.930 . S
C577 C574 1.348 . S
C577 C576 1.356 1_455 S
H578 C572 0.930 . S
H579 C573 0.930 . S
C580 N581 1.314 . S
C580 C582 1.353 . S
C580 H586 0.930 . S
N581 Li531 1.990 . S
N581 C580 1.314 . S
N581 C584 1.279 . S
C582 C580 1.353 . S
C582 C585 1.348 . S
C582 H614 0.929 . S
C583 C584 1.358 . S
C583 C585 1.356 . S
C583 H615 0.930 . S
C584 N581 1.279 . S
C584 C583 1.358 . S
C584 H587 0.930 . S
C585 C582 1.348 . S
C585 C583 1.356 . S
H586 C580 0.930 . S
H587 C584 0.930 . S
O588 Li528 1.956 1_455 S
O588 Li529 1.970 . S
O588 Li530 1.961 1_455 S
O588 C532 1.325 . S
O589 Li528 1.970 . S
O589 Li529 1.956 1_655 S
O589 Li531 1.961 . S
O589 C538 1.325 . S
O590 Li528 1.961 . S
O590 Li530 1.956 . S
O590 Li531 1.970 . S
O590 C560 1.325 . S
O591 Li529 1.961 . S
O591 Li530 1.970 1_455 S
O591 Li531 1.956 1_455 S
O591 C566 1.325 . S
H592 C534 0.929 . S
H593 C535 0.930 . S
H594 C536 0.930 . S
H595 C537 0.930 . S
H596 C539 0.930 . S
H597 C541 0.925 1_455 S
H598 C542 0.930 . S
H599 C543 0.930 . S
H600 C546 0.909 1_455 S
H601 C549 0.929 . S
H602 C554 0.929 . S
H603 C555 0.930 . S
H604 C562 0.929 . S
H605 C563 0.930 . S
H606 C564 0.930 . S
H607 C565 0.930 . S
H608 C567 0.929 1_655 S
H609 C568 0.930 . S
H610 C569 0.930 . S
H611 C570 0.930 . S
H612 C574 0.929 . S
H613 C576 0.930 . S
H614 C582 0.929 . S
H615 C583 0.930 . S
Li616 N633 1.990 . S
Li616 O676 1.956 . S
Li616 O677 1.970 . S
Li616 O678 1.961 1_545 S
Li617 N641 1.990 . S
Li617 O676 1.970 1_565 S
Li617 O677 1.956 1_565 S
Li617 O679 1.961 . S
Li618 N663 1.990 . S
Li618 O676 1.961 1_565 S
Li618 O678 1.956 . S
Li618 O679 1.970 . S
Li619 N669 1.990 . S
Li619 O677 1.961 1_565 S
Li619 O678 1.970 . S
Li619 O679 1.956 . S
C620 C622 1.348 . S
C620 C623 1.356 . S
C620 O676 1.325 . S
N621 C624 1.314 . S
N621 C625 1.279 . S
C622 C620 1.348 . S
C622 C624 1.353 . S
C622 H680 0.929 . S
C623 C620 1.356 . S
C623 C625 1.358 . S
C623 H681 0.930 . S
C624 N621 1.314 . S
C624 C622 1.353 . S
C624 H682 0.930 . S
C625 N621 1.279 . S
C625 C623 1.358 . S
C625 H683 0.930 . S
C626 C629 1.348 . S
C626 C630 1.356 1_545 S
C626 O677 1.325 . S
C627 N628 1.279 1_565 S
C627 C630 1.358 . S
C627 H684 0.930 . S
N628 C627 1.279 1_545 S
N628 C631 1.314 . S
C629 C626 1.348 . S
C629 C631 1.353 . S
C629 H685 0.929 . S
C630 C626 1.356 1_565 S
C630 C627 1.358 . S
C630 H686 0.930 . S
C631 N628 1.314 . S
C631 C629 1.353 . S
C631 H687 0.930 . S
C632 N633 1.314 . S
C632 C637 1.353 . S
C632 H638 0.930 . S
N633 Li616 1.990 . S
N633 C632 1.314 . S
N633 C635 1.279 . S
C634 C635 1.358 . S
C634 C636 1.356 . S
C634 H688 0.930 . S
C635 N633 1.279 . S
C635 C634 1.358 . S
C635 H639 0.930 . S
C636 C634 1.356 . S
C636 C637 1.348 . S
C637 C632 1.353 . S
C637 C636 1.348 . S
C637 H689 0.929 . S
H638 C632 0.930 . S
H639 C635 0.930 . S
C640 N641 1.314 . S
C640 C642 1.353 . S
C640 H646 0.930 . S
N641 Li617 1.990 . S
N641 C640 1.314 . S
N641 C644 1.279 1_565 S
C642 C640 1.353 . S
C642 C645 1.348 1_565 S
C642 H690 0.929 . S
C643 C644 1.358 . S
C643 C645 1.356 . S
C643 H691 0.930 . S
C644 N641 1.279 1_545 S
C644 C643 1.358 . S
C644 H647 0.930 . S
C645 C642 1.348 1_545 S
C645 C643 1.356 . S
H646 C640 0.930 . S
H647 C644 0.930 . S
C648 C650 1.348 . S
C648 C651 1.356 1_565 S
C648 O678 1.325 . S
N649 C652 1.314 . S
N649 C653 1.279 1_565 S
C650 C648 1.348 . S
C650 C652 1.353 . S
C650 H692 0.929 . S
C651 C648 1.356 1_545 S
C651 C653 1.358 . S
C651 H693 0.930 . S
C652 N649 1.314 . S
C652 C650 1.353 . S
C652 H694 0.930 . S
C653 N649 1.279 1_545 S
C653 C651 1.358 . S
C653 H695 0.930 . S
C654 C655 1.348 . S
C654 C656 1.356 . S
C654 O679 1.325 . S
C655 C654 1.348 . S
C655 C657 1.353 . S
C655 H696 0.929 . S
C656 C654 1.356 . S
C656 C658 1.358 . S
C656 H697 0.930 . S
C657 C655 1.353 . S
C657 N659 1.314 . S
C657 H698 0.930 . S
C658 C656 1.358 . S
C658 N659 1.279 . S
C658 H699 0.930 . S
N659 C657 1.314 . S
N659 C658 1.279 . S
C660 C662 1.353 . S
C660 N663 1.314 . S
C660 H666 0.930 . S
C661 N663 1.279 . S
C661 C664 1.358 . S
C661 H667 0.930 . S
C662 C660 1.353 . S
C662 C665 1.348 . S
C662 H700 0.929 . S
N663 Li618 1.990 . S
N663 C660 1.314 . S
N663 C661 1.279 . S
C664 C661 1.358 . S
C664 C665 1.356 . S
C664 H701 0.930 . S
C665 C662 1.348 . S
C665 C664 1.356 . S
H666 C660 0.930 . S
H667 C661 0.930 . S
C668 N669 1.314 . S
C668 C670 1.353 . S
C668 H674 0.930 . S
N669 Li619 1.990 . S
N669 C668 1.314 . S
N669 C672 1.279 . S
C670 C668 1.353 . S
C670 C673 1.348 . S
C670 H702 0.929 . S
C671 C672 1.358 . S
C671 C673 1.356 . S
C671 H703 0.930 . S
C672 N669 1.279 . S
C672 C671 1.358 . S
C672 H675 0.930 . S
C673 C670 1.348 . S
C673 C671 1.356 . S
H674 C668 0.930 . S
H675 C672 0.930 . S
O676 Li616 1.956 . S
O676 Li617 1.970 1_545 S
O676 Li618 1.961 1_545 S
O676 C620 1.325 . S
O677 Li616 1.970 . S
O677 Li617 1.956 1_545 S
O677 Li619 1.961 1_545 S
O677 C626 1.325 . S
O678 Li616 1.961 1_565 S
O678 Li618 1.956 . S
O678 Li619 1.970 . S
O678 C648 1.325 . S
O679 Li617 1.961 . S
O679 Li618 1.970 . S
O679 Li619 1.956 . S
O679 C654 1.325 . S
H680 C622 0.929 . S
H681 C623 0.930 . S
H682 C624 0.930 . S
H683 C625 0.930 . S
H684 C627 0.930 . S
H685 C629 0.929 . S
H686 C630 0.930 . S
H687 C631 0.930 . S
H688 C634 0.930 . S
H689 C637 0.929 . S
H690 C642 0.929 . S
H691 C643 0.930 . S
H692 C650 0.929 . S
H693 C651 0.930 . S
H694 C652 0.930 . S
H695 C653 0.930 . S
H696 C655 0.929 . S
H697 C656 0.930 . S
H698 C657 0.930 . S
H699 C658 0.930 . S
H700 C662 0.929 . S
H701 C664 0.930 . S
H702 C670 0.929 . S
H703 C671 0.930 . S
Li704 N721 1.990 . S
Li704 O764 1.956 . S
Li704 O765 1.970 . S
Li704 O766 1.961 . S
Li705 N729 1.990 . S
Li705 O764 1.970 . S
Li705 O765 1.956 . S
Li705 O767 1.961 . S
Li706 N751 1.990 . S
Li706 O764 1.961 . S
Li706 O766 1.956 . S
Li706 O767 1.970 . S
Li707 N757 1.990 . S
Li707 O765 1.961 . S
Li707 O766 1.970 . S
Li707 O767 1.956 . S
C708 C710 1.348 . S
C708 C711 1.356 . S
C708 O764 1.325 . S
N709 C712 1.314 . S
N709 C713 1.279 . S
C710 C708 1.348 . S
C710 C712 1.353 . S
C710 H768 0.929 . S
C711 C708 1.356 . S
C711 C713 1.358 . S
C711 H769 0.930 . S
C712 N709 1.314 . S
C712 C710 1.353 . S
C712 H770 0.930 . S
C713 N709 1.279 . S
C713 C711 1.358 . S
C713 H771 0.930 . S
C714 C717 1.348 . S
C714 C718 1.356 . S
C714 O765 1.325 . S
C715 N716 1.279 . S
C715 C718 1.358 . S
C715 H772 0.930 . S
N716 C715 1.279 . S
N716 C719 1.314 . S
C717 C714 1.348 . S
C717 C719 1.353 . S
C717 H773 0.929 . S
C718 C714 1.356 . S
C718 C715 1.358 . S
C718 H774 0.930 . S
C719 N716 1.314 . S
C719 C717 1.353 . S
C719 H775 0.930 . S
C720 N721 1.314 . S
C720 C725 1.353 . S
C720 H726 0.930 . S
N721 Li704 1.990 . S
N721 C720 1.314 . S
N721 C723 1.279 . S
C722 C723 1.358 . S
C722 C724 1.356 . S
C722 H776 0.930 . S
C723 N721 1.279 . S
C723 C722 1.358 . S
C723 H727 0.930 . S
C724 C722 1.356 . S
C724 C725 1.348 . S
C725 C720 1.353 . S
C725 C724 1.348 . S
C725 H777 0.929 . S
H726 C720 0.930 . S
H727 C723 0.930 . S
C728 N729 1.314 . S
C728 C730 1.353 . S
C728 H734 0.930 . S
N729 Li705 1.990 . S
N729 C728 1.314 . S
N729 C732 1.279 . S
C730 C728 1.353 . S
C730 C733 1.348 . S
C730 H778 0.929 . S
C731 C732 1.358 . S
C731 C733 1.356 . S
C731 H779 0.930 . S
C732 N729 1.279 . S
C732 C731 1.358 . S
C732 H735 0.930 . S
C733 C730 1.348 . S
C733 C731 1.356 . S
H734 C728 0.930 . S
H735 C732 0.930 . S
C736 C738 1.348 . S
C736 C739 1.356 . S
C736 O766 1.325 . S
N737 C740 1.314 . S
N737 C741 1.279 . S
C738 C736 1.348 . S
C738 C740 1.353 . S
C738 H780 0.929 . S
C739 C736 1.356 . S
C739 C741 1.358 . S
C739 H781 0.930 . S
C740 N737 1.314 . S
C740 C738 1.353 . S
C740 H782 0.930 . S
C741 N737 1.279 . S
C741 C739 1.358 . S
C741 H783 0.930 . S
C742 C743 1.348 . S
C742 C744 1.356 . S
C742 O767 1.325 . S
C743 C742 1.348 . S
C743 C745 1.353 . S
C743 H784 0.929 . S
C744 C742 1.356 . S
C744 C746 1.358 . S
C744 H785 0.930 . S
C745 C743 1.353 . S
C745 N747 1.314 . S
C745 H786 0.930 . S
C746 C744 1.358 . S
C746 N747 1.279 . S
C746 H787 0.930 . S
N747 C745 1.314 . S
N747 C746 1.279 . S
C748 C750 1.353 . S
C748 N751 1.314 . S
C748 H754 0.930 . S
C749 N751 1.279 . S
C749 C752 1.358 . S
C749 H755 0.930 . S
C750 C748 1.353 . S
C750 C753 1.348 . S
C750 H788 0.929 . S
N751 Li706 1.990 . S
N751 C748 1.314 . S
N751 C749 1.279 . S
C752 C749 1.358 . S
C752 C753 1.356 . S
C752 H789 0.930 . S
C753 C750 1.348 . S
C753 C752 1.356 . S
H754 C748 0.930 . S
H755 C749 0.930 . S
C756 N757 1.314 . S
C756 C758 1.353 . S
C756 H762 0.930 . S
N757 Li707 1.990 . S
N757 C756 1.314 . S
N757 C760 1.279 . S
C758 C756 1.353 . S
C758 C761 1.348 . S
C758 H790 0.929 . S
C759 C760 1.358 . S
C759 C761 1.356 . S
C759 H791 0.930 . S
C760 N757 1.279 . S
C760 C759 1.358 . S
C760 H763 0.930 . S
C761 C758 1.348 . S
C761 C759 1.356 . S
H762 C756 0.930 . S
H763 C760 0.930 . S
O764 Li704 1.956 . S
O764 Li705 1.970 . S
O764 Li706 1.961 . S
O764 C708 1.325 . S
O765 Li704 1.970 . S
O765 Li705 1.956 . S
O765 Li707 1.961 . S
O765 C714 1.325 . S
O766 Li704 1.961 . S
O766 Li706 1.956 . S
O766 Li707 1.970 . S
O766 C736 1.325 . S
O767 Li705 1.961 . S
O767 Li706 1.970 . S
O767 Li707 1.956 . S
O767 C742 1.325 . S
H768 C710 0.929 . S
H769 C711 0.930 . S
H770 C712 0.930 . S
H771 C713 0.930 . S
H772 C715 0.930 . S
H773 C717 0.929 . S
H774 C718 0.930 . S
H775 C719 0.930 . S
H776 C722 0.930 . S
H777 C725 0.929 . S
H778 C730 0.929 . S
H779 C731 0.930 . S
H780 C738 0.929 . S
H781 C739 0.930 . S
H782 C740 0.930 . S
H783 C741 0.930 . S
H784 C743 0.929 . S
H785 C744 0.930 . S
H786 C745 0.930 . S
H787 C746 0.930 . S
H788 C750 0.929 . S
H789 C752 0.930 . S
H790 C758 0.929 . S
H791 C759 0.930 . S
Li792 N809 1.990 . S
Li792 O852 1.956 . S
Li792 O853 1.970 . S
Li792 O854 1.961 . S
Li793 N817 1.990 . S
Li793 O852 1.970 . S
Li793 O853 1.956 . S
Li793 O855 1.961 . S
Li794 N839 1.990 . S
Li794 O852 1.961 . S
Li794 O854 1.956 . S
Li794 O855 1.970 . S
Li795 N845 1.990 . S
Li795 O853 1.961 . S
Li795 O854 1.970 . S
Li795 O855 1.956 . S
C796 C798 1.348 . S
C796 C799 1.356 . S
C796 O852 1.325 . S
N797 C800 1.314 . S
N797 C801 1.279 . S
C798 C796 1.348 . S
C798 C800 1.353 . S
C798 H856 0.929 . S
C799 C796 1.356 . S
C799 C801 1.358 . S
C799 H857 0.930 . S
C800 N797 1.314 . S
C800 C798 1.353 . S
C800 H858 0.930 . S
C801 N797 1.279 . S
C801 C799 1.358 . S
C801 H859 0.930 . S
C802 C805 1.348 . S
C802 C806 1.356 . S
C802 O853 1.325 . S
C803 N804 1.279 . S
C803 C806 1.358 . S
C803 H860 0.930 . S
N804 C803 1.279 . S
N804 C807 1.314 . S
C805 C802 1.348 . S
C805 C807 1.353 . S
C805 H861 0.929 . S
C806 C802 1.356 . S
C806 C803 1.358 . S
C806 H862 0.930 . S
C807 N804 1.314 . S
C807 C805 1.353 . S
C807 H863 0.930 . S
C808 N809 1.314 . S
C808 C813 1.353 . S
C808 H814 0.930 . S
N809 Li792 1.990 . S
N809 C808 1.314 . S
N809 C811 1.279 . S
C810 C811 1.358 . S
C810 C812 1.356 . S
C810 H864 0.930 . S
C811 N809 1.279 . S
C811 C810 1.358 . S
C811 H815 0.930 . S
C812 C810 1.356 . S
C812 C813 1.348 . S
C813 C808 1.353 . S
C813 C812 1.348 . S
C813 H865 0.929 . S
H814 C808 0.930 . S
H815 C811 0.930 . S
C816 N817 1.314 . S
C816 C818 1.353 . S
C816 H822 0.930 . S
N817 Li793 1.990 . S
N817 C816 1.314 . S
N817 C820 1.279 . S
C818 C816 1.353 . S
C818 C821 1.348 . S
C818 H866 0.929 . S
C819 C820 1.358 . S
C819 C821 1.356 . S
C819 H867 0.930 . S
C820 N817 1.279 . S
C820 C819 1.358 . S
C820 H823 0.930 . S
C821 C818 1.348 . S
C821 C819 1.356 . S
H822 C816 0.930 . S
H823 C820 0.930 . S
C824 C826 1.348 . S
C824 C827 1.356 . S
C824 O854 1.325 . S
N825 C828 1.314 . S
N825 C829 1.279 . S
C826 C824 1.348 . S
C826 C828 1.353 . S
C826 H868 0.929 . S
C827 C824 1.356 . S
C827 C829 1.358 . S
C827 H869 0.930 . S
C828 N825 1.314 . S
C828 C826 1.353 . S
C828 H870 0.930 . S
C829 N825 1.279 . S
C829 C827 1.358 . S
C829 H871 0.930 . S
C830 C831 1.348 . S
C830 C832 1.356 . S
C830 O855 1.325 . S
C831 C830 1.348 . S
C831 C833 1.353 . S
C831 H872 0.929 . S
C832 C830 1.356 . S
C832 C834 1.358 . S
C832 H873 0.930 . S
C833 C831 1.353 . S
C833 N835 1.314 . S
C833 H874 0.930 . S
C834 C832 1.358 . S
C834 N835 1.279 . S
C834 H875 0.930 . S
N835 C833 1.314 . S
N835 C834 1.279 . S
C836 C838 1.353 . S
C836 N839 1.314 . S
C836 H842 0.930 . S
C837 N839 1.279 . S
C837 C840 1.358 . S
C837 H843 0.930 . S
C838 C836 1.353 . S
C838 C841 1.348 . S
C838 H876 0.929 . S
N839 Li794 1.990 . S
N839 C836 1.314 . S
N839 C837 1.279 . S
C840 C837 1.358 . S
C840 C841 1.356 . S
C840 H877 0.930 . S
C841 C838 1.348 . S
C841 C840 1.356 . S
H842 C836 0.930 . S
H843 C837 0.930 . S
C844 N845 1.314 . S
C844 C846 1.353 . S
C844 H850 0.930 . S
N845 Li795 1.990 . S
N845 C844 1.314 . S
N845 C848 1.279 . S
C846 C844 1.353 . S
C846 C849 1.348 . S
C846 H878 0.929 . S
C847 C848 1.358 . S
C847 C849 1.356 . S
C847 H879 0.930 . S
C848 N845 1.279 . S
C848 C847 1.358 . S
C848 H851 0.930 . S
C849 C846 1.348 . S
C849 C847 1.356 . S
H850 C844 0.930 . S
H851 C848 0.930 . S
O852 Li792 1.956 . S
O852 Li793 1.970 . S
O852 Li794 1.961 . S
O852 C796 1.325 . S
O853 Li792 1.970 . S
O853 Li793 1.956 . S
O853 Li795 1.961 . S
O853 C802 1.325 . S
O854 Li792 1.961 . S
O854 Li794 1.956 . S
O854 Li795 1.970 . S
O854 C824 1.325 . S
O855 Li793 1.961 . S
O855 Li794 1.970 . S
O855 Li795 1.956 . S
O855 C830 1.325 . S
H856 C798 0.929 . S
H857 C799 0.930 . S
H858 C800 0.930 . S
H859 C801 0.930 . S
H860 C803 0.930 . S
H861 C805 0.929 . S
H862 C806 0.930 . S
H863 C807 0.930 . S
H864 C810 0.930 . S
H865 C813 0.929 . S
H866 C818 0.929 . S
H867 C819 0.930 . S
H868 C826 0.929 . S
H869 C827 0.930 . S
H870 C828 0.930 . S
H871 C829 0.930 . S
H872 C831 0.929 . S
H873 C832 0.930 . S
H874 C833 0.930 . S
H875 C834 0.930 . S
H876 C838 0.929 . S
H877 C840 0.930 . S
H878 C846 0.929 . S
H879 C847 0.930 . S
Li880 N897 1.990 . S
Li880 O940 1.956 . S
Li880 O941 1.970 . S
Li880 O942 1.961 . S
Li881 N905 1.990 . S
Li881 O940 1.970 . S
Li881 O941 1.956 . S
Li881 O943 1.961 . S
Li882 N927 1.990 . S
Li882 O940 1.961 . S
Li882 O942 1.956 . S
Li882 O943 1.970 . S
Li883 N933 1.990 . S
Li883 O941 1.961 . S
Li883 O942 1.970 . S
Li883 O943 1.956 . S
C884 C886 1.348 . S
C884 C887 1.356 . S
C884 O940 1.325 . S
N885 C888 1.314 . S
N885 C889 1.279 . S
C886 C884 1.348 . S
C886 C888 1.353 . S
C886 H944 0.929 . S
C887 C884 1.356 . S
C887 C889 1.358 . S
C887 H945 0.930 . S
C888 N885 1.314 . S
C888 C886 1.353 . S
C888 H946 0.930 . S
C889 N885 1.279 . S
C889 C887 1.358 . S
C889 H947 0.930 . S
C890 C893 1.348 . S
C890 C894 1.356 . S
C890 O941 1.325 . S
C891 N892 1.279 . S
C891 C894 1.358 . S
C891 H948 0.930 . S
N892 C891 1.279 . S
N892 C895 1.314 . S
C893 C890 1.348 . S
C893 C895 1.353 . S
C893 H949 0.929 . S
C894 C890 1.356 . S
C894 C891 1.358 . S
C894 H950 0.930 . S
C895 N892 1.314 . S
C895 C893 1.353 . S
C895 H951 0.930 . S
C896 N897 1.314 . S
C896 C901 1.353 . S
C896 H902 0.930 . S
N897 Li880 1.990 . S
N897 C896 1.314 . S
N897 C899 1.279 . S
C898 C899 1.358 . S
C898 C900 1.356 . S
C898 H952 0.930 . S
C899 N897 1.279 . S
C899 C898 1.358 . S
C899 H903 0.930 . S
C900 C898 1.356 . S
C900 C901 1.348 . S
C901 C896 1.353 . S
C901 C900 1.348 . S
C901 H953 0.929 . S
H902 C896 0.930 . S
H903 C899 0.930 . S
C904 N905 1.314 . S
C904 C906 1.353 . S
C904 H910 0.930 . S
N905 Li881 1.990 . S
N905 C904 1.314 . S
N905 C908 1.279 . S
C906 C904 1.353 . S
C906 C909 1.348 . S
C906 H954 0.929 . S
C907 C908 1.358 . S
C907 C909 1.356 . S
C907 H955 0.930 . S
C908 N905 1.279 . S
C908 C907 1.358 . S
C908 H911 0.930 . S
C909 C906 1.348 . S
C909 C907 1.356 . S
H910 C904 0.930 . S
H911 C908 0.930 . S
C912 C914 1.348 . S
C912 C915 1.356 . S
C912 O942 1.325 . S
N913 C916 1.314 . S
N913 C917 1.279 . S
C914 C912 1.348 . S
C914 C916 1.353 . S
C914 H956 0.929 . S
C915 C912 1.356 . S
C915 C917 1.358 . S
C915 H957 0.930 . S
C916 N913 1.314 . S
C916 C914 1.353 . S
C916 H958 0.930 . S
C917 N913 1.279 . S
C917 C915 1.358 . S
C917 H959 0.930 . S
C918 C919 1.348 . S
C918 C920 1.356 . S
C918 O943 1.325 . S
C919 C918 1.348 . S
C919 C921 1.353 . S
C919 H960 0.929 . S
C920 C918 1.356 . S
C920 C922 1.358 . S
C920 H961 0.930 . S
C921 C919 1.353 . S
C921 N923 1.314 . S
C921 H962 0.930 . S
C922 C920 1.358 . S
C922 N923 1.279 . S
C922 H963 0.930 . S
N923 C921 1.314 . S
N923 C922 1.279 . S
C924 C926 1.353 . S
C924 N927 1.314 . S
C924 H930 0.930 . S
C925 N927 1.279 . S
C925 C928 1.358 . S
C925 H931 0.930 . S
C926 C924 1.353 . S
C926 C929 1.348 . S
C926 H964 0.929 . S
N927 Li882 1.990 . S
N927 C924 1.314 . S
N927 C925 1.279 . S
C928 C925 1.358 . S
C928 C929 1.356 . S
C928 H965 0.930 . S
C929 C926 1.348 . S
C929 C928 1.356 . S
H930 C924 0.930 . S
H931 C925 0.930 . S
C932 N933 1.314 . S
C932 C934 1.353 . S
C932 H938 0.930 . S
N933 Li883 1.990 . S
N933 C932 1.314 . S
N933 C936 1.279 . S
C934 C932 1.353 . S
C934 C937 1.348 . S
C934 H966 0.929 . S
C935 C936 1.358 . S
C935 C937 1.356 . S
C935 H967 0.930 . S
C936 N933 1.279 . S
C936 C935 1.358 . S
C936 H939 0.930 . S
C937 C934 1.348 . S
C937 C935 1.356 . S
H938 C932 0.930 . S
H939 C936 0.930 . S
O940 Li880 1.956 . S
O940 Li881 1.970 . S
O940 Li882 1.961 . S
O940 C884 1.325 . S
O941 Li880 1.970 . S
O941 Li881 1.956 . S
O941 Li883 1.961 . S
O941 C890 1.325 . S
O942 Li880 1.961 . S
O942 Li882 1.956 . S
O942 Li883 1.970 . S
O942 C912 1.325 . S
O943 Li881 1.961 . S
O943 Li882 1.970 . S
O943 Li883 1.956 . S
O943 C918 1.325 . S
H944 C886 0.929 . S
H945 C887 0.930 . S
H946 C888 0.930 . S
H947 C889 0.930 . S
H948 C891 0.930 . S
H949 C893 0.929 . S
H950 C894 0.930 . S
H951 C895 0.930 . S
H952 C898 0.930 . S
H953 C901 0.929 . S
H954 C906 0.929 . S
H955 C907 0.930 . S
H956 C914 0.929 . S
H957 C915 0.930 . S
H958 C916 0.930 . S
H959 C917 0.930 . S
H960 C919 0.929 . S
H961 C920 0.930 . S
H962 C921 0.930 . S
H963 C922 0.930 . S
H964 C926 0.929 . S
H965 C928 0.930 . S
H966 C934 0.929 . S
H967 C935 0.930 . S
Li968 N985 1.990 . S
Li968 O1028 1.956 . S
Li968 O1029 1.970 . S
Li968 O1030 1.961 . S
Li969 N993 1.990 . S
Li969 O1028 1.970 . S
Li969 O1029 1.956 . S
Li969 O1031 1.961 . S
Li970 N1015 1.990 . S
Li970 O1028 1.961 . S
Li970 O1030 1.956 . S
Li970 O1031 1.970 . S
Li971 N1021 1.990 . S
Li971 O1029 1.961 . S
Li971 O1030 1.970 . S
Li971 O1031 1.956 . S
C972 C974 1.348 . S
C972 C975 1.356 . S
C972 O1028 1.325 . S
N973 C976 1.314 . S
N973 C977 1.279 . S
C974 C972 1.348 . S
C974 C976 1.353 . S
C974 H1032 0.929 . S
C975 C972 1.356 . S
C975 C977 1.358 . S
C975 H1033 0.930 . S
C976 N973 1.314 . S
C976 C974 1.353 . S
C976 H1034 0.930 . S
C977 N973 1.279 . S
C977 C975 1.358 . S
C977 H1035 0.930 . S
C978 C981 1.348 . S
C978 C982 1.356 . S
C978 O1029 1.325 . S
C979 N980 1.279 . S
C979 C982 1.358 . S
C979 H1036 0.930 . S
N980 C979 1.279 . S
N980 C983 1.314 . S
C981 C978 1.348 . S
C981 C983 1.353 . S
C981 H1037 0.929 . S
C982 C978 1.356 . S
C982 C979 1.358 . S
C982 H1038 0.930 . S
C983 N980 1.314 . S
C983 C981 1.353 . S
C983 H1039 0.930 . S
C984 N985 1.314 . S
C984 C989 1.353 . S
C984 H990 0.930 . S
N985 Li968 1.990 . S
N985 C984 1.314 . S
N985 C987 1.279 . S
C986 C987 1.358 . S
C986 C988 1.356 . S
C986 H1040 0.930 . S
C987 N985 1.279 . S
C987 C986 1.358 . S
C987 H991 0.930 . S
C988 C986 1.356 . S
C988 C989 1.348 . S
C989 C984 1.353 . S
C989 C988 1.348 . S
C989 H1041 0.929 . S
H990 C984 0.930 . S
H991 C987 0.930 . S
C992 N993 1.314 . S
C992 C994 1.353 . S
C992 H998 0.930 . S
N993 Li969 1.990 . S
N993 C992 1.314 . S
N993 C996 1.279 . S
C994 C992 1.353 . S
C994 C997 1.348 . S
C994 H1042 0.929 . S
C995 C996 1.358 . S
C995 C997 1.356 . S
C995 H1043 0.930 . S
C996 N993 1.279 . S
C996 C995 1.358 . S
C996 H999 0.930 . S
C997 C994 1.348 . S
C997 C995 1.356 . S
H998 C992 0.930 . S
H999 C996 0.930 . S
C1000 C1002 1.348 . S
C1000 C1003 1.356 . S
C1000 O1030 1.325 . S
N1001 C1004 1.314 . S
N1001 C1005 1.279 . S
C1002 C1000 1.348 . S
C1002 C1004 1.353 . S
C1002 H1044 0.929 . S
C1003 C1000 1.356 . S
C1003 C1005 1.358 . S
C1003 H1045 0.930 . S
C1004 N1001 1.314 . S
C1004 C1002 1.353 . S
C1004 H1046 0.930 . S
C1005 N1001 1.279 . S
C1005 C1003 1.358 . S
C1005 H1047 0.930 . S
C1006 C1007 1.348 . S
C1006 C1008 1.356 . S
C1006 O1031 1.325 . S
C1007 C1006 1.348 . S
C1007 C1009 1.353 . S
C1007 H1048 0.929 . S
C1008 C1006 1.356 . S
C1008 C1010 1.358 . S
C1008 H1049 0.930 . S
C1009 C1007 1.353 . S
C1009 N1011 1.314 . S
C1009 H1050 0.930 . S
C1010 C1008 1.358 . S
C1010 N1011 1.279 . S
C1010 H1051 0.930 . S
N1011 C1009 1.314 . S
N1011 C1010 1.279 . S
C1012 C1014 1.353 . S
C1012 N1015 1.314 . S
C1012 H1018 0.930 . S
C1013 N1015 1.279 . S
C1013 C1016 1.358 . S
C1013 H1019 0.930 . S
C1014 C1012 1.353 . S
C1014 C1017 1.348 . S
C1014 H1052 0.929 . S
N1015 Li970 1.990 . S
N1015 C1012 1.314 . S
N1015 C1013 1.279 . S
C1016 C1013 1.358 . S
C1016 C1017 1.356 . S
C1016 H1053 0.930 . S
C1017 C1014 1.348 . S
C1017 C1016 1.356 . S
H1018 C1012 0.930 . S
H1019 C1013 0.930 . S
C1020 N1021 1.314 . S
C1020 C1022 1.353 . S
C1020 H1026 0.930 . S
N1021 Li971 1.990 . S
N1021 C1020 1.314 . S
N1021 C1024 1.279 . S
C1022 C1020 1.353 . S
C1022 C1025 1.348 . S
C1022 H1054 0.929 . S
C1023 C1024 1.358 . S
C1023 C1025 1.356 . S
C1023 H1055 0.930 . S
C1024 N1021 1.279 . S
C1024 C1023 1.358 . S
C1024 H1027 0.930 . S
C1025 C1022 1.348 . S
C1025 C1023 1.356 . S
H1026 C1020 0.930 . S
H1027 C1024 0.930 . S
O1028 Li968 1.956 . S
O1028 Li969 1.970 . S
O1028 Li970 1.961 . S
O1028 C972 1.325 . S
O1029 Li968 1.970 . S
O1029 Li969 1.956 . S
O1029 Li971 1.961 . S
O1029 C978 1.325 . S
O1030 Li968 1.961 . S
O1030 Li970 1.956 . S
O1030 Li971 1.970 . S
O1030 C1000 1.325 . S
O1031 Li969 1.961 . S
O1031 Li970 1.970 . S
O1031 Li971 1.956 . S
O1031 C1006 1.325 . S
H1032 C974 0.929 . S
H1033 C975 0.930 . S
H1034 C976 0.930 . S
H1035 C977 0.930 . S
H1036 C979 0.930 . S
H1037 C981 0.929 . S
H1038 C982 0.930 . S
H1039 C983 0.930 . S
H1040 C986 0.930 . S
H1041 C989 0.929 . S
H1042 C994 0.929 . S
H1043 C995 0.930 . S
H1044 C1002 0.929 . S
H1045 C1003 0.930 . S
H1046 C1004 0.930 . S
H1047 C1005 0.930 . S
H1048 C1007 0.929 . S
H1049 C1008 0.930 . S
H1050 C1009 0.930 . S
H1051 C1010 0.930 . S
H1052 C1014 0.929 . S
H1053 C1016 0.930 . S
H1054 C1022 0.929 . S
H1055 C1023 0.930 . S
Li1056 N1073 1.990 . S
Li1056 O1116 1.956 . S
Li1056 O1117 1.970 . S
Li1056 O1118 1.961 . S
Li1057 N1081 1.990 . S
Li1057 O1116 1.970 . S
Li1057 O1117 1.956 . S
Li1057 O1119 1.961 . S
Li1058 N1103 1.990 . S
Li1058 O1116 1.961 . S
Li1058 O1118 1.956 . S
Li1058 O1119 1.970 . S
Li1059 N1109 1.990 . S
Li1059 O1117 1.961 . S
Li1059 O1118 1.970 . S
Li1059 O1119 1.956 . S
C1060 C1062 1.348 . S
C1060 C1063 1.356 . S
C1060 O1116 1.325 . S
N1061 C1064 1.314 . S
N1061 C1065 1.279 . S
C1062 C1060 1.348 . S
C1062 C1064 1.353 . S
C1062 H1120 0.929 . S
C1063 C1060 1.356 . S
C1063 C1065 1.358 . S
C1063 H1121 0.930 . S
C1064 N1061 1.314 . S
C1064 C1062 1.353 . S
C1064 H1122 0.930 . S
C1065 N1061 1.279 . S
C1065 C1063 1.358 . S
C1065 H1123 0.930 . S
C1066 C1069 1.348 . S
C1066 C1070 1.356 . S
C1066 O1117 1.325 . S
C1067 N1068 1.279 . S
C1067 C1070 1.358 . S
C1067 H1124 0.930 . S
N1068 C1067 1.279 . S
N1068 C1071 1.314 . S
C1069 C1066 1.348 . S
C1069 C1071 1.353 . S
C1069 H1125 0.929 . S
C1070 C1066 1.356 . S
C1070 C1067 1.358 . S
C1070 H1126 0.930 . S
C1071 N1068 1.314 . S
C1071 C1069 1.353 . S
C1071 H1127 0.930 . S
C1072 N1073 1.314 . S
C1072 C1077 1.353 . S
C1072 H1078 0.930 . S
N1073 Li1056 1.990 . S
N1073 C1072 1.314 . S
N1073 C1075 1.279 . S
C1074 C1075 1.358 . S
C1074 C1076 1.356 . S
C1074 H1128 0.930 . S
C1075 N1073 1.279 . S
C1075 C1074 1.358 . S
C1075 H1079 0.930 . S
C1076 C1074 1.356 . S
C1076 C1077 1.348 . S
C1077 C1072 1.353 . S
C1077 C1076 1.348 . S
C1077 H1129 0.929 . S
H1078 C1072 0.930 . S
H1079 C1075 0.930 . S
C1080 N1081 1.314 . S
C1080 C1082 1.353 . S
C1080 H1086 0.930 . S
N1081 Li1057 1.990 . S
N1081 C1080 1.314 . S
N1081 C1084 1.279 . S
C1082 C1080 1.353 . S
C1082 C1085 1.348 . S
C1082 H1130 0.929 . S
C1083 C1084 1.358 . S
C1083 C1085 1.356 . S
C1083 H1131 0.930 . S
C1084 N1081 1.279 . S
C1084 C1083 1.358 . S
C1084 H1087 0.930 . S
C1085 C1082 1.348 . S
C1085 C1083 1.356 . S
H1086 C1080 0.930 . S
H1087 C1084 0.930 . S
C1088 C1090 1.348 . S
C1088 C1091 1.356 . S
C1088 O1118 1.325 . S
N1089 C1092 1.314 . S
N1089 C1093 1.279 . S
C1090 C1088 1.348 . S
C1090 C1092 1.353 . S
C1090 H1132 0.929 . S
C1091 C1088 1.356 . S
C1091 C1093 1.358 . S
C1091 H1133 0.930 . S
C1092 N1089 1.314 . S
C1092 C1090 1.353 . S
C1092 H1134 0.930 . S
C1093 N1089 1.279 . S
C1093 C1091 1.358 . S
C1093 H1135 0.930 . S
C1094 C1095 1.348 . S
C1094 C1096 1.356 . S
C1094 O1119 1.325 . S
C1095 C1094 1.348 . S
C1095 C1097 1.353 . S
C1095 H1136 0.929 . S
C1096 C1094 1.356 . S
C1096 C1098 1.358 . S
C1096 H1137 0.930 . S
C1097 C1095 1.353 . S
C1097 N1099 1.314 . S
C1097 H1138 0.930 . S
C1098 C1096 1.358 . S
C1098 N1099 1.279 . S
C1098 H1139 0.930 . S
N1099 C1097 1.314 . S
N1099 C1098 1.279 . S
C1100 C1102 1.353 . S
C1100 N1103 1.314 . S
C1100 H1106 0.930 . S
C1101 N1103 1.279 . S
C1101 C1104 1.358 . S
C1101 H1107 0.930 . S
C1102 C1100 1.353 . S
C1102 C1105 1.348 . S
C1102 H1140 0.929 . S
N1103 Li1058 1.990 . S
N1103 C1100 1.314 . S
N1103 C1101 1.279 . S
C1104 C1101 1.358 . S
C1104 C1105 1.356 . S
C1104 H1141 0.930 . S
C1105 C1102 1.348 . S
C1105 C1104 1.356 . S
H1106 C1100 0.930 . S
H1107 C1101 0.930 . S
C1108 N1109 1.314 . S
C1108 C1110 1.353 . S
C1108 H1114 0.930 . S
N1109 Li1059 1.990 . S
N1109 C1108 1.314 . S
N1109 C1112 1.279 . S
C1110 C1108 1.353 . S
C1110 C1113 1.348 . S
C1110 H1142 0.929 . S
C1111 C1112 1.358 . S
C1111 C1113 1.356 . S
C1111 H1143 0.930 . S
C1112 N1109 1.279 . S
C1112 C1111 1.358 . S
C1112 H1115 0.930 . S
C1113 C1110 1.348 . S
C1113 C1111 1.356 . S
H1114 C1108 0.930 . S
H1115 C1112 0.930 . S
O1116 Li1056 1.956 . S
O1116 Li1057 1.970 . S
O1116 Li1058 1.961 . S
O1116 C1060 1.325 . S
O1117 Li1056 1.970 . S
O1117 Li1057 1.956 . S
O1117 Li1059 1.961 . S
O1117 C1066 1.325 . S
O1118 Li1056 1.961 . S
O1118 Li1058 1.956 . S
O1118 Li1059 1.970 . S
O1118 C1088 1.325 . S
O1119 Li1057 1.961 . S
O1119 Li1058 1.970 . S
O1119 Li1059 1.956 . S
O1119 C1094 1.325 . S
H1120 C1062 0.929 . S
H1121 C1063 0.930 . S
H1122 C1064 0.930 . S
H1123 C1065 0.930 . S
H1124 C1067 0.930 . S
H1125 C1069 0.929 . S
H1126 C1070 0.930 . S
H1127 C1071 0.930 . S
H1128 C1074 0.930 . S
H1129 C1077 0.929 . S
H1130 C1082 0.929 . S
H1131 C1083 0.930 . S
H1132 C1090 0.929 . S
H1133 C1091 0.930 . S
H1134 C1092 0.930 . S
H1135 C1093 0.930 . S
H1136 C1095 0.929 . S
H1137 C1096 0.930 . S
H1138 C1097 0.930 . S
H1139 C1098 0.930 . S
H1140 C1102 0.929 . S
H1141 C1104 0.930 . S
H1142 C1110 0.929 . S
H1143 C1111 0.930 . S
Li1144 N1161 1.990 . S
Li1144 O1204 1.956 . S
Li1144 O1205 1.970 . S
Li1144 O1206 1.961 . S
Li1145 N1169 1.990 . S
Li1145 O1204 1.970 . S
Li1145 O1205 1.956 . S
Li1145 O1207 1.961 . S
Li1146 N1191 1.990 . S
Li1146 O1204 1.961 . S
Li1146 O1206 1.956 . S
Li1146 O1207 1.970 . S
Li1147 N1197 1.990 . S
Li1147 O1205 1.961 . S
Li1147 O1206 1.970 . S
Li1147 O1207 1.956 . S
C1148 C1150 1.348 . S
C1148 C1151 1.356 . S
C1148 O1204 1.325 . S
N1149 C1152 1.314 . S
N1149 C1153 1.279 . S
C1150 C1148 1.348 . S
C1150 C1152 1.353 . S
C1150 H1208 0.929 . S
C1151 C1148 1.356 . S
C1151 C1153 1.358 . S
C1151 H1209 0.930 . S
C1152 N1149 1.314 . S
C1152 C1150 1.353 . S
C1152 H1210 0.930 . S
C1153 N1149 1.279 . S
C1153 C1151 1.358 . S
C1153 H1211 0.930 . S
C1154 C1157 1.348 . S
C1154 C1158 1.356 . S
C1154 O1205 1.325 . S
C1155 N1156 1.279 . S
C1155 C1158 1.358 . S
C1155 H1212 0.930 . S
N1156 C1155 1.279 . S
N1156 C1159 1.314 . S
C1157 C1154 1.348 . S
C1157 C1159 1.353 . S
C1157 H1213 0.929 . S
C1158 C1154 1.356 . S
C1158 C1155 1.358 . S
C1158 H1214 0.930 . S
C1159 N1156 1.314 . S
C1159 C1157 1.353 . S
C1159 H1215 0.930 . S
C1160 N1161 1.314 . S
C1160 C1165 1.353 . S
C1160 H1166 0.930 . S
N1161 Li1144 1.990 . S
N1161 C1160 1.314 . S
N1161 C1163 1.279 . S
C1162 C1163 1.358 . S
C1162 C1164 1.356 . S
C1162 H1216 0.930 . S
C1163 N1161 1.279 . S
C1163 C1162 1.358 . S
C1163 H1167 0.930 . S
C1164 C1162 1.356 . S
C1164 C1165 1.348 . S
C1165 C1160 1.353 . S
C1165 C1164 1.348 . S
C1165 H1217 0.929 . S
H1166 C1160 0.930 . S
H1167 C1163 0.930 . S
C1168 N1169 1.314 . S
C1168 C1170 1.353 . S
C1168 H1174 0.930 . S
N1169 Li1145 1.990 . S
N1169 C1168 1.314 . S
N1169 C1172 1.279 . S
C1170 C1168 1.353 . S
C1170 C1173 1.348 . S
C1170 H1218 0.929 . S
C1171 C1172 1.358 . S
C1171 C1173 1.356 . S
C1171 H1219 0.930 . S
C1172 N1169 1.279 . S
C1172 C1171 1.358 . S
C1172 H1175 0.930 . S
C1173 C1170 1.348 . S
C1173 C1171 1.356 . S
H1174 C1168 0.930 . S
H1175 C1172 0.930 . S
C1176 C1178 1.348 . S
C1176 C1179 1.356 . S
C1176 O1206 1.325 . S
N1177 C1180 1.314 . S
N1177 C1181 1.279 . S
C1178 C1176 1.348 . S
C1178 C1180 1.353 . S
C1178 H1220 0.929 . S
C1179 C1176 1.356 . S
C1179 C1181 1.358 . S
C1179 H1221 0.930 . S
C1180 N1177 1.314 . S
C1180 C1178 1.353 . S
C1180 H1222 0.930 . S
C1181 N1177 1.279 . S
C1181 C1179 1.358 . S
C1181 H1223 0.930 . S
C1182 C1183 1.348 . S
C1182 C1184 1.356 . S
C1182 O1207 1.325 . S
C1183 C1182 1.348 . S
C1183 C1185 1.353 . S
C1183 H1224 0.929 . S
C1184 C1182 1.356 . S
C1184 C1186 1.358 . S
C1184 H1225 0.930 . S
C1185 C1183 1.353 . S
C1185 N1187 1.314 . S
C1185 H1226 0.930 . S
C1186 C1184 1.358 . S
C1186 N1187 1.279 . S
C1186 H1227 0.930 . S
N1187 C1185 1.314 . S
N1187 C1186 1.279 . S
C1188 C1190 1.353 . S
C1188 N1191 1.314 . S
C1188 H1194 0.930 . S
C1189 N1191 1.279 . S
C1189 C1192 1.358 . S
C1189 H1195 0.930 . S
C1190 C1188 1.353 . S
C1190 C1193 1.348 . S
C1190 H1228 0.929 . S
N1191 Li1146 1.990 . S
N1191 C1188 1.314 . S
N1191 C1189 1.279 . S
C1192 C1189 1.358 . S
C1192 C1193 1.356 . S
C1192 H1229 0.930 . S
C1193 C1190 1.348 . S
C1193 C1192 1.356 . S
H1194 C1188 0.930 . S
H1195 C1189 0.930 . S
C1196 N1197 1.314 . S
C1196 C1198 1.353 . S
C1196 H1202 0.930 . S
N1197 Li1147 1.990 . S
N1197 C1196 1.314 . S
N1197 C1200 1.279 . S
C1198 C1196 1.353 . S
C1198 C1201 1.348 . S
C1198 H1230 0.929 . S
C1199 C1200 1.358 . S
C1199 C1201 1.356 . S
C1199 H1231 0.930 . S
C1200 N1197 1.279 . S
C1200 C1199 1.358 . S
C1200 H1203 0.930 . S
C1201 C1198 1.348 . S
C1201 C1199 1.356 . S
H1202 C1196 0.930 . S
H1203 C1200 0.930 . S
O1204 Li1144 1.956 . S
O1204 Li1145 1.970 . S
O1204 Li1146 1.961 . S
O1204 C1148 1.325 . S
O1205 Li1144 1.970 . S
O1205 Li1145 1.956 . S
O1205 Li1147 1.961 . S
O1205 C1154 1.325 . S
O1206 Li1144 1.961 . S
O1206 Li1146 1.956 . S
O1206 Li1147 1.970 . S
O1206 C1176 1.325 . S
O1207 Li1145 1.961 . S
O1207 Li1146 1.970 . S
O1207 Li1147 1.956 . S
O1207 C1182 1.325 . S
H1208 C1150 0.929 . S
H1209 C1151 0.930 . S
H1210 C1152 0.930 . S
H1211 C1153 0.930 . S
H1212 C1155 0.930 . S
H1213 C1157 0.929 . S
H1214 C1158 0.930 . S
H1215 C1159 0.930 . S
H1216 C1162 0.930 . S
H1217 C1165 0.929 . S
H1218 C1170 0.929 . S
H1219 C1171 0.930 . S
H1220 C1178 0.929 . S
H1221 C1179 0.930 . S
H1222 C1180 0.930 . S
H1223 C1181 0.930 . S
H1224 C1183 0.929 . S
H1225 C1184 0.930 . S
H1226 C1185 0.930 . S
H1227 C1186 0.930 . S
H1228 C1190 0.929 . S
H1229 C1192 0.930 . S
H1230 C1198 0.929 . S
H1231 C1199 0.930 . S
Li1232 N1249 1.990 . S
Li1232 O1292 1.956 . S
Li1232 O1293 1.970 . S
Li1232 O1294 1.961 . S
Li1233 N1257 1.990 . S
Li1233 O1292 1.970 . S
Li1233 O1293 1.956 . S
Li1233 O1295 1.961 . S
Li1234 N1279 1.990 . S
Li1234 O1292 1.961 . S
Li1234 O1294 1.956 . S
Li1234 O1295 1.970 . S
Li1235 N1285 1.990 . S
Li1235 O1293 1.961 . S
Li1235 O1294 1.970 . S
Li1235 O1295 1.956 . S
C1236 C1238 1.348 . S
C1236 C1239 1.356 . S
C1236 O1292 1.325 . S
N1237 C1240 1.314 . S
N1237 C1241 1.279 . S
C1238 C1236 1.348 . S
C1238 C1240 1.353 . S
C1238 H1296 0.929 . S
C1239 C1236 1.356 . S
C1239 C1241 1.358 . S
C1239 H1297 0.930 . S
C1240 N1237 1.314 . S
C1240 C1238 1.353 . S
C1240 H1298 0.930 . S
C1241 N1237 1.279 . S
C1241 C1239 1.358 . S
C1241 H1299 0.930 . S
C1242 C1245 1.348 . S
C1242 C1246 1.356 . S
C1242 O1293 1.325 . S
C1243 N1244 1.279 . S
C1243 C1246 1.358 . S
C1243 H1300 0.930 . S
N1244 C1243 1.279 . S
N1244 C1247 1.314 . S
C1245 C1242 1.348 . S
C1245 C1247 1.353 . S
C1245 H1301 0.929 . S
C1246 C1242 1.356 . S
C1246 C1243 1.358 . S
C1246 H1302 0.930 . S
C1247 N1244 1.314 . S
C1247 C1245 1.353 . S
C1247 H1303 0.930 . S
C1248 N1249 1.314 . S
C1248 C1253 1.353 . S
C1248 H1254 0.930 . S
N1249 Li1232 1.990 . S
N1249 C1248 1.314 . S
N1249 C1251 1.279 . S
C1250 C1251 1.358 . S
C1250 C1252 1.356 . S
C1250 H1304 0.930 . S
C1251 N1249 1.279 . S
C1251 C1250 1.358 . S
C1251 H1255 0.930 . S
C1252 C1250 1.356 . S
C1252 C1253 1.348 . S
C1253 C1248 1.353 . S
C1253 C1252 1.348 . S
C1253 H1305 0.929 . S
H1254 C1248 0.930 . S
H1255 C1251 0.930 . S
C1256 N1257 1.314 . S
C1256 C1258 1.353 . S
C1256 H1262 0.930 . S
N1257 Li1233 1.990 . S
N1257 C1256 1.314 . S
N1257 C1260 1.279 . S
C1258 C1256 1.353 . S
C1258 C1261 1.348 . S
C1258 H1306 0.929 . S
C1259 C1260 1.358 . S
C1259 C1261 1.356 . S
C1259 H1307 0.930 . S
C1260 N1257 1.279 . S
C1260 C1259 1.358 . S
C1260 H1263 0.930 . S
C1261 C1258 1.348 . S
C1261 C1259 1.356 . S
H1262 C1256 0.930 . S
H1263 C1260 0.930 . S
C1264 C1266 1.348 . S
C1264 C1267 1.356 . S
C1264 O1294 1.325 . S
N1265 C1268 1.314 . S
N1265 C1269 1.279 . S
C1266 C1264 1.348 . S
C1266 C1268 1.353 . S
C1266 H1308 0.929 . S
C1267 C1264 1.356 . S
C1267 C1269 1.358 . S
C1267 H1309 0.930 . S
C1268 N1265 1.314 . S
C1268 C1266 1.353 . S
C1268 H1310 0.930 . S
C1269 N1265 1.279 . S
C1269 C1267 1.358 . S
C1269 H1311 0.930 . S
C1270 C1271 1.348 . S
C1270 C1272 1.356 . S
C1270 O1295 1.325 . S
C1271 C1270 1.348 . S
C1271 C1273 1.353 . S
C1271 H1312 0.929 . S
C1272 C1270 1.356 . S
C1272 C1274 1.358 . S
C1272 H1313 0.930 . S
C1273 C1271 1.353 . S
C1273 N1275 1.314 . S
C1273 H1314 0.930 . S
C1274 C1272 1.358 . S
C1274 N1275 1.279 . S
C1274 H1315 0.930 . S
N1275 C1273 1.314 . S
N1275 C1274 1.279 . S
C1276 C1278 1.353 . S
C1276 N1279 1.314 . S
C1276 H1282 0.930 . S
C1277 N1279 1.279 . S
C1277 C1280 1.358 . S
C1277 H1283 0.930 . S
C1278 C1276 1.353 . S
C1278 C1281 1.348 . S
C1278 H1316 0.929 . S
N1279 Li1234 1.990 . S
N1279 C1276 1.314 . S
N1279 C1277 1.279 . S
C1280 C1277 1.358 . S
C1280 C1281 1.356 . S
C1280 H1317 0.930 . S
C1281 C1278 1.348 . S
C1281 C1280 1.356 . S
H1282 C1276 0.930 . S
H1283 C1277 0.930 . S
C1284 N1285 1.314 . S
C1284 C1286 1.353 . S
C1284 H1290 0.930 . S
N1285 Li1235 1.990 . S
N1285 C1284 1.314 . S
N1285 C1288 1.279 . S
C1286 C1284 1.353 . S
C1286 C1289 1.348 . S
C1286 H1318 0.929 . S
C1287 C1288 1.358 . S
C1287 C1289 1.356 . S
C1287 H1319 0.930 . S
C1288 N1285 1.279 . S
C1288 C1287 1.358 . S
C1288 H1291 0.930 . S
C1289 C1286 1.348 . S
C1289 C1287 1.356 . S
H1290 C1284 0.930 . S
H1291 C1288 0.930 . S
O1292 Li1232 1.956 . S
O1292 Li1233 1.970 . S
O1292 Li1234 1.961 . S
O1292 C1236 1.325 . S
O1293 Li1232 1.970 . S
O1293 Li1233 1.956 . S
O1293 Li1235 1.961 . S
O1293 C1242 1.325 . S
O1294 Li1232 1.961 . S
O1294 Li1234 1.956 . S
O1294 Li1235 1.970 . S
O1294 C1264 1.325 . S
O1295 Li1233 1.961 . S
O1295 Li1234 1.970 . S
O1295 Li1235 1.956 . S
O1295 C1270 1.325 . S
H1296 C1238 0.929 . S
H1297 C1239 0.930 . S
H1298 C1240 0.930 . S
H1299 C1241 0.930 . S
H1300 C1243 0.930 . S
H1301 C1245 0.929 . S
H1302 C1246 0.930 . S
H1303 C1247 0.930 . S
H1304 C1250 0.930 . S
H1305 C1253 0.929 . S
H1306 C1258 0.929 . S
H1307 C1259 0.930 . S
H1308 C1266 0.929 . S
H1309 C1267 0.930 . S
H1310 C1268 0.930 . S
H1311 C1269 0.930 . S
H1312 C1271 0.929 . S
H1313 C1272 0.930 . S
H1314 C1273 0.930 . S
H1315 C1274 0.930 . S
H1316 C1278 0.929 . S
H1317 C1280 0.930 . S
H1318 C1286 0.929 . S
H1319 C1287 0.930 . S
Li1320 N1337 1.990 . S
Li1320 O1380 1.956 . S
Li1320 O1381 1.970 . S
Li1320 O1382 1.961 . S
Li1321 N1345 1.990 . S
Li1321 O1380 1.970 . S
Li1321 O1381 1.956 . S
Li1321 O1383 1.961 . S
Li1322 N1367 1.990 . S
Li1322 O1380 1.961 . S
Li1322 O1382 1.956 . S
Li1322 O1383 1.970 . S
Li1323 N1373 1.990 . S
Li1323 O1381 1.961 . S
Li1323 O1382 1.970 . S
Li1323 O1383 1.956 . S
C1324 C1326 1.348 . S
C1324 C1327 1.356 . S
C1324 O1380 1.325 . S
N1325 C1328 1.314 . S
N1325 C1329 1.279 . S
C1326 C1324 1.348 . S
C1326 C1328 1.353 . S
C1326 H1384 0.929 . S
C1327 C1324 1.356 . S
C1327 C1329 1.358 . S
C1327 H1385 0.930 . S
C1328 N1325 1.314 . S
C1328 C1326 1.353 . S
C1328 H1386 0.930 . S
C1329 N1325 1.279 . S
C1329 C1327 1.358 . S
C1329 H1387 0.930 . S
C1330 C1333 1.348 . S
C1330 C1334 1.356 . S
C1330 O1381 1.325 . S
C1331 N1332 1.279 . S
C1331 C1334 1.358 . S
C1331 H1388 0.930 . S
N1332 C1331 1.279 . S
N1332 C1335 1.314 . S
C1333 C1330 1.348 . S
C1333 C1335 1.353 . S
C1333 H1389 0.929 . S
C1334 C1330 1.356 . S
C1334 C1331 1.358 . S
C1334 H1390 0.930 . S
C1335 N1332 1.314 . S
C1335 C1333 1.353 . S
C1335 H1391 0.930 . S
C1336 N1337 1.314 . S
C1336 C1341 1.353 . S
C1336 H1342 0.930 . S
N1337 Li1320 1.990 . S
N1337 C1336 1.314 . S
N1337 C1339 1.279 . S
C1338 C1339 1.358 . S
C1338 C1340 1.356 . S
C1338 H1392 0.930 . S
C1339 N1337 1.279 . S
C1339 C1338 1.358 . S
C1339 H1343 0.930 . S
C1340 C1338 1.356 . S
C1340 C1341 1.348 . S
C1341 C1336 1.353 . S
C1341 C1340 1.348 . S
C1341 H1393 0.929 . S
H1342 C1336 0.930 . S
H1343 C1339 0.930 . S
C1344 N1345 1.314 . S
C1344 C1346 1.353 . S
C1344 H1350 0.930 . S
N1345 Li1321 1.990 . S
N1345 C1344 1.314 . S
N1345 C1348 1.279 . S
C1346 C1344 1.353 . S
C1346 C1349 1.348 . S
C1346 H1394 0.929 . S
C1347 C1348 1.358 . S
C1347 C1349 1.356 . S
C1347 H1395 0.930 . S
C1348 N1345 1.279 . S
C1348 C1347 1.358 . S
C1348 H1351 0.930 . S
C1349 C1346 1.348 . S
C1349 C1347 1.356 . S
H1350 C1344 0.930 . S
H1351 C1348 0.930 . S
C1352 C1354 1.348 . S
C1352 C1355 1.356 . S
C1352 O1382 1.325 . S
N1353 C1356 1.314 . S
N1353 C1357 1.279 . S
C1354 C1352 1.348 . S
C1354 C1356 1.353 . S
C1354 H1396 0.929 . S
C1355 C1352 1.356 . S
C1355 C1357 1.358 . S
C1355 H1397 0.930 . S
C1356 N1353 1.314 . S
C1356 C1354 1.353 . S
C1356 H1398 0.930 . S
C1357 N1353 1.279 . S
C1357 C1355 1.358 . S
C1357 H1399 0.930 . S
C1358 C1359 1.348 . S
C1358 C1360 1.356 . S
C1358 O1383 1.325 . S
C1359 C1358 1.348 . S
C1359 C1361 1.353 . S
C1359 H1400 0.929 . S
C1360 C1358 1.356 . S
C1360 C1362 1.358 . S
C1360 H1401 0.930 . S
C1361 C1359 1.353 . S
C1361 N1363 1.314 . S
C1361 H1402 0.930 . S
C1362 C1360 1.358 . S
C1362 N1363 1.279 . S
C1362 H1403 0.930 . S
N1363 C1361 1.314 . S
N1363 C1362 1.279 . S
C1364 C1366 1.353 . S
C1364 N1367 1.314 . S
C1364 H1370 0.930 . S
C1365 N1367 1.279 . S
C1365 C1368 1.358 . S
C1365 H1371 0.930 . S
C1366 C1364 1.353 . S
C1366 C1369 1.348 . S
C1366 H1404 0.929 . S
N1367 Li1322 1.990 . S
N1367 C1364 1.314 . S
N1367 C1365 1.279 . S
C1368 C1365 1.358 . S
C1368 C1369 1.356 . S
C1368 H1405 0.930 . S
C1369 C1366 1.348 . S
C1369 C1368 1.356 . S
H1370 C1364 0.930 . S
H1371 C1365 0.930 . S
C1372 N1373 1.314 . S
C1372 C1374 1.353 . S
C1372 H1378 0.930 . S
N1373 Li1323 1.990 . S
N1373 C1372 1.314 . S
N1373 C1376 1.279 . S
C1374 C1372 1.353 . S
C1374 C1377 1.348 . S
C1374 H1406 0.929 . S
C1375 C1376 1.358 . S
C1375 C1377 1.356 . S
C1375 H1407 0.930 . S
C1376 N1373 1.279 . S
C1376 C1375 1.358 . S
C1376 H1379 0.930 . S
C1377 C1374 1.348 . S
C1377 C1375 1.356 . S
H1378 C1372 0.930 . S
H1379 C1376 0.930 . S
O1380 Li1320 1.956 . S
O1380 Li1321 1.970 . S
O1380 Li1322 1.961 . S
O1380 C1324 1.325 . S
O1381 Li1320 1.970 . S
O1381 Li1321 1.956 . S
O1381 Li1323 1.961 . S
O1381 C1330 1.325 . S
O1382 Li1320 1.961 . S
O1382 Li1322 1.956 . S
O1382 Li1323 1.970 . S
O1382 C1352 1.325 . S
O1383 Li1321 1.961 . S
O1383 Li1322 1.970 . S
O1383 Li1323 1.956 . S
O1383 C1358 1.325 . S
H1384 C1326 0.929 . S
H1385 C1327 0.930 . S
H1386 C1328 0.930 . S
H1387 C1329 0.930 . S
H1388 C1331 0.930 . S
H1389 C1333 0.929 . S
H1390 C1334 0.930 . S
H1391 C1335 0.930 . S
H1392 C1338 0.930 . S
H1393 C1341 0.929 . S
H1394 C1346 0.929 . S
H1395 C1347 0.930 . S
H1396 C1354 0.929 . S
H1397 C1355 0.930 . S
H1398 C1356 0.930 . S
H1399 C1357 0.930 . S
H1400 C1359 0.929 . S
H1401 C1360 0.930 . S
H1402 C1361 0.930 . S
H1403 C1362 0.930 . S
H1404 C1366 0.929 . S
H1405 C1368 0.930 . S
H1406 C1374 0.929 . S
H1407 C1375 0.930 . S
C1408 C1409 1.387 . S
C1408 H1412 0.950 . S
C1408 C1417 1.390 . S
C1409 C1408 1.387 . S
C1409 C1411 1.387 . S
H1410 C1417 0.950 . S
C1411 C1409 1.387 . S
C1411 C1413 1.390 . S
C1411 H1415 0.950 . S
H1412 C1408 0.950 . S
C1413 C1411 1.390 . S
C1413 C1414 1.387 . S
C1413 H1416 0.950 . S
C1414 C1413 1.387 . S
C1414 C1417 1.387 . S
H1415 C1411 0.950 . S
H1416 C1413 0.950 . S
C1417 C1408 1.390 . S
C1417 H1410 0.950 . S
C1417 C1414 1.387 . S
C1418 C1419 1.387 . S
C1418 H1422 0.950 . S
C1418 C1427 1.390 . S
C1419 C1418 1.387 . S
C1419 C1421 1.387 . S
H1420 C1427 0.950 . S
C1421 C1419 1.387 . S
C1421 C1423 1.390 . S
C1421 H1425 0.950 . S
H1422 C1418 0.950 . S
C1423 C1421 1.390 . S
C1423 C1424 1.387 . S
C1423 H1426 0.950 . S
C1424 C1423 1.387 . S
C1424 C1427 1.387 . S
H1425 C1421 0.950 . S
H1426 C1423 0.950 . S
C1427 C1418 1.390 . S
C1427 H1420 0.950 . S
C1427 C1424 1.387 . S
C1428 C1429 1.387 . S
C1428 H1432 0.950 . S
C1428 C1437 1.390 . S
C1429 C1428 1.387 . S
C1429 C1431 1.387 . S
H1430 C1437 0.950 . S
C1431 C1429 1.387 . S
C1431 C1433 1.390 . S
C1431 H1435 0.950 . S
H1432 C1428 0.950 . S
C1433 C1431 1.390 . S
C1433 C1434 1.387 . S
C1433 H1436 0.950 . S
C1434 C1433 1.387 . S
C1434 C1437 1.387 . S
H1435 C1431 0.950 . S
H1436 C1433 0.950 . S
C1437 C1428 1.390 . S
C1437 H1430 0.950 . S
C1437 C1434 1.387 . S
C1438 C1439 1.387 . S
C1438 H1442 0.950 . S
C1438 C1447 1.390 . S
C1439 C1438 1.387 . S
C1439 C1441 1.387 . S
H1440 C1447 0.950 . S
C1441 C1439 1.387 . S
C1441 C1443 1.390 . S
C1441 H1445 0.950 . S
H1442 C1438 0.950 . S
C1443 C1441 1.390 . S
C1443 C1444 1.387 . S
C1443 H1446 0.950 . S
C1444 C1443 1.387 . S
C1444 C1447 1.387 . S
H1445 C1441 0.950 . S
H1446 C1443 0.950 . S
C1447 C1438 1.390 . S
C1447 H1440 0.950 . S
C1447 C1444 1.387 . S
C1448 C1449 1.387 . S
C1448 H1452 0.950 . S
C1448 C1457 1.390 . S
C1449 C1448 1.387 . S
C1449 C1451 1.387 . S
H1450 C1457 0.950 . S
C1451 C1449 1.387 . S
C1451 C1453 1.390 . S
C1451 H1455 0.950 . S
H1452 C1448 0.950 . S
C1453 C1451 1.390 . S
C1453 C1454 1.387 . S
C1453 H1456 0.950 . S
C1454 C1453 1.387 . S
C1454 C1457 1.387 . S
H1455 C1451 0.950 . S
H1456 C1453 0.950 . S
C1457 C1448 1.390 . S
C1457 H1450 0.950 . S
C1457 C1454 1.387 . S
C1458 C1459 1.387 . S
C1458 H1462 0.950 . S
C1458 C1467 1.390 . S
C1459 C1458 1.387 . S
C1459 C1461 1.387 . S
H1460 C1467 0.950 . S
C1461 C1459 1.387 . S
C1461 C1463 1.390 . S
C1461 H1465 0.950 . S
H1462 C1458 0.950 . S
C1463 C1461 1.390 . S
C1463 C1464 1.387 . S
C1463 H1466 0.950 . S
C1464 C1463 1.387 . S
C1464 C1467 1.387 . S
H1465 C1461 0.950 . S
H1466 C1463 0.950 . S
C1467 C1458 1.390 . S
C1467 H1460 0.950 . S
C1467 C1464 1.387 . S
C1468 C1469 1.387 . S
C1468 H1472 0.950 . S
C1468 C1477 1.390 . S
C1469 C1468 1.387 . S
C1469 C1471 1.387 . S
H1470 C1477 0.950 . S
C1471 C1469 1.387 . S
C1471 C1473 1.390 . S
C1471 H1475 0.950 . S
H1472 C1468 0.950 . S
C1473 C1471 1.390 . S
C1473 C1474 1.387 . S
C1473 H1476 0.950 . S
C1474 C1473 1.387 . S
C1474 C1477 1.387 . S
H1475 C1471 0.950 . S
H1476 C1473 0.950 . S
C1477 C1468 1.390 . S
C1477 H1470 0.950 . S
C1477 C1474 1.387 . S
C1478 C1479 1.387 . S
C1478 H1482 0.950 . S
C1478 C1487 1.390 . S
C1479 C1478 1.387 . S
C1479 C1481 1.387 . S
H1480 C1487 0.950 . S
C1481 C1479 1.387 . S
C1481 C1483 1.390 . S
C1481 H1485 0.950 . S
H1482 C1478 0.950 . S
C1483 C1481 1.390 . S
C1483 C1484 1.387 . S
C1483 H1486 0.950 . S
C1484 C1483 1.387 . S
C1484 C1487 1.387 . S
H1485 C1481 0.950 . S
H1486 C1483 0.950 . S
C1487 C1478 1.390 . S
C1487 H1480 0.950 . S
C1487 C1484 1.387 . S
C1488 C1489 1.387 . S
C1488 H1492 0.950 . S
C1488 C1497 1.390 . S
C1489 C1488 1.387 . S
C1489 C1491 1.387 . S
H1490 C1497 0.950 . S
C1491 C1489 1.387 . S
C1491 C1493 1.390 . S
C1491 H1495 0.950 . S
H1492 C1488 0.950 . S
C1493 C1491 1.390 . S
C1493 C1494 1.387 . S
C1493 H1496 0.950 . S
C1494 C1493 1.387 . S
C1494 C1497 1.387 . S
H1495 C1491 0.950 . S
H1496 C1493 0.950 . S
C1497 C1488 1.390 . S
C1497 H1490 0.950 . S
C1497 C1494 1.387 . S
C1498 C1499 1.387 . S
C1498 H1502 0.950 . S
C1498 C1507 1.390 . S
C1499 C1498 1.387 . S
C1499 C1501 1.387 . S
H1500 C1507 0.950 . S
C1501 C1499 1.387 . S
C1501 C1503 1.390 . S
C1501 H1505 0.950 . S
H1502 C1498 0.950 . S
C1503 C1501 1.390 . S
C1503 C1504 1.387 . S
C1503 H1506 0.950 . S
C1504 C1503 1.387 . S
C1504 C1507 1.387 . S
H1505 C1501 0.950 . S
H1506 C1503 0.950 . S
C1507 C1498 1.390 . S
C1507 H1500 0.950 . S
C1507 C1504 1.387 . S
C1508 C1509 1.387 . S
C1508 H1512 0.950 . S
C1508 C1517 1.390 . S
C1509 C1508 1.387 . S
C1509 C1511 1.387 . S
H1510 C1517 0.950 . S
C1511 C1509 1.387 . S
C1511 C1513 1.390 . S
C1511 H1515 0.950 . S
H1512 C1508 0.950 . S
C1513 C1511 1.390 . S
C1513 C1514 1.387 . S
C1513 H1516 0.950 . S
C1514 C1513 1.387 . S
C1514 C1517 1.387 . S
H1515 C1511 0.950 . S
H1516 C1513 0.950 . S
C1517 C1508 1.390 . S
C1517 H1510 0.950 . S
C1517 C1514 1.387 . S
C1518 C1519 1.387 . S
C1518 H1522 0.950 . S
C1518 C1527 1.390 . S
C1519 C1518 1.387 . S
C1519 C1521 1.387 . S
H1520 C1527 0.950 . S
C1521 C1519 1.387 . S
C1521 C1523 1.390 . S
C1521 H1525 0.950 . S
H1522 C1518 0.950 . S
C1523 C1521 1.390 . S
C1523 C1524 1.387 . S
C1523 H1526 0.950 . S
C1524 C1523 1.387 . S
C1524 C1527 1.387 . S
H1525 C1521 0.950 . S
H1526 C1523 0.950 . S
C1527 C1518 1.390 . S
C1527 H1520 0.950 . S
C1527 C1524 1.387 . S
C1528 C1529 1.387 . S
C1528 H1532 0.950 . S
C1528 C1537 1.390 . S
C1529 C1528 1.387 . S
C1529 C1531 1.387 . S
H1530 C1537 0.950 . S
C1531 C1529 1.387 . S
C1531 C1533 1.390 . S
C1531 H1535 0.950 . S
H1532 C1528 0.950 . S
C1533 C1531 1.390 . S
C1533 C1534 1.387 . S
C1533 H1536 0.950 . S
C1534 C1533 1.387 . S
C1534 C1537 1.387 . S
H1535 C1531 0.950 . S
H1536 C1533 0.950 . S
C1537 C1528 1.390 . S
C1537 H1530 0.950 . S
C1537 C1534 1.387 . S
C1538 C1539 1.387 . S
C1538 H1542 0.950 . S
C1538 C1547 1.390 . S
C1539 C1538 1.387 . S
C1539 C1541 1.387 . S
H1540 C1547 0.950 . S
C1541 C1539 1.387 . S
C1541 C1543 1.390 . S
C1541 H1545 0.950 . S
H1542 C1538 0.950 . S
C1543 C1541 1.390 . S
C1543 C1544 1.387 . S
C1543 H1546 0.950 . S
C1544 C1543 1.387 . S
C1544 C1547 1.387 . S
H1545 C1541 0.950 . S
H1546 C1543 0.950 . S
C1547 C1538 1.390 . S
C1547 H1540 0.950 . S
C1547 C1544 1.387 . S
C1548 C1549 1.387 . S
C1548 H1552 0.950 . S
C1548 C1557 1.390 . S
C1549 C1548 1.387 . S
C1549 C1551 1.387 . S
H1550 C1557 0.950 . S
C1551 C1549 1.387 . S
C1551 C1553 1.390 . S
C1551 H1555 0.950 . S
H1552 C1548 0.950 . S
C1553 C1551 1.390 . S
C1553 C1554 1.387 . S
C1553 H1556 0.950 . S
C1554 C1553 1.387 . S
C1554 C1557 1.387 . S
H1555 C1551 0.950 . S
H1556 C1553 0.950 . S
C1557 C1548 1.390 . S
C1557 H1550 0.950 . S
C1557 C1554 1.387 . S
C1558 C1559 1.387 . S
C1558 H1562 0.950 . S
C1558 C1567 1.390 . S
C1559 C1558 1.387 . S
C1559 C1561 1.387 . S
H1560 C1567 0.950 . S
C1561 C1559 1.387 . S
C1561 C1563 1.390 . S
C1561 H1565 0.950 . S
H1562 C1558 0.950 . S
C1563 C1561 1.390 . S
C1563 C1564 1.387 . S
C1563 H1566 0.950 . S
C1564 C1563 1.387 . S
C1564 C1567 1.387 . S
H1565 C1561 0.950 . S
H1566 C1563 0.950 . S
C1567 C1558 1.390 . S
C1567 H1560 0.950 . S
C1567 C1564 1.387 . S
C1568 C1569 1.387 . S
C1568 H1572 0.950 . S
C1568 C1577 1.390 . S
C1569 C1568 1.387 . S
C1569 C1571 1.387 . S
H1570 C1577 0.950 . S
C1571 C1569 1.387 . S
C1571 C1573 1.390 . S
C1571 H1575 0.950 . S
H1572 C1568 0.950 . S
C1573 C1571 1.390 . S
C1573 C1574 1.387 . S
C1573 H1576 0.950 . S
C1574 C1573 1.387 . S
C1574 C1577 1.387 . S
H1575 C1571 0.950 . S
H1576 C1573 0.950 . S
C1577 C1568 1.390 . S
C1577 H1570 0.950 . S
C1577 C1574 1.387 . S
C1578 C1579 1.387 . S
C1578 H1582 0.950 . S
C1578 C1587 1.390 . S
C1579 C1578 1.387 . S
C1579 C1581 1.387 . S
H1580 C1587 0.950 . S
C1581 C1579 1.387 . S
C1581 C1583 1.390 . S
C1581 H1585 0.950 . S
H1582 C1578 0.950 . S
C1583 C1581 1.390 . S
C1583 C1584 1.387 . S
C1583 H1586 0.950 . S
C1584 C1583 1.387 . S
C1584 C1587 1.387 . S
H1585 C1581 0.950 . S
H1586 C1583 0.950 . S
C1587 C1578 1.390 . S
C1587 H1580 0.950 . S
C1587 C1584 1.387 . S
C1588 C1589 1.387 . S
C1588 H1592 0.950 . S
C1588 C1597 1.390 . S
C1589 C1588 1.387 . S
C1589 C1591 1.387 . S
H1590 C1597 0.950 . S
C1591 C1589 1.387 . S
C1591 C1593 1.390 . S
C1591 H1595 0.950 . S
H1592 C1588 0.950 . S
C1593 C1591 1.390 . S
C1593 C1594 1.387 . S
C1593 H1596 0.950 . S
C1594 C1593 1.387 . S
C1594 C1597 1.387 . S
H1595 C1591 0.950 . S
H1596 C1593 0.950 . S
C1597 C1588 1.390 . S
C1597 H1590 0.950 . S
C1597 C1594 1.387 . S
C1598 C1599 1.387 . S
C1598 H1602 0.950 . S
C1598 C1607 1.390 . S
C1599 C1598 1.387 . S
C1599 C1601 1.387 . S
H1600 C1607 0.950 . S
C1601 C1599 1.387 . S
C1601 C1603 1.390 . S
C1601 H1605 0.950 . S
H1602 C1598 0.950 . S
C1603 C1601 1.390 . S
C1603 C1604 1.387 . S
C1603 H1606 0.950 . S
C1604 C1603 1.387 . S
C1604 C1607 1.387 . S
H1605 C1601 0.950 . S
H1606 C1603 0.950 . S
C1607 C1598 1.390 . S
C1607 H1600 0.950 . S
C1607 C1604 1.387 . S
C1608 C1609 1.387 . S
C1608 H1612 0.950 . S
C1608 C1617 1.390 . S
C1609 C1608 1.387 . S
C1609 C1611 1.387 . S
H1610 C1617 0.950 . S
C1611 C1609 1.387 . S
C1611 C1613 1.390 . S
C1611 H1615 0.950 . S
H1612 C1608 0.950 . S
C1613 C1611 1.390 . S
C1613 C1614 1.387 . S
C1613 H1616 0.950 . S
C1614 C1613 1.387 . S
C1614 C1617 1.387 . S
H1615 C1611 0.950 . S
H1616 C1613 0.950 . S
C1617 C1608 1.390 . S
C1617 H1610 0.950 . S
C1617 C1614 1.387 . S
C1618 C1619 1.387 . S
C1618 H1622 0.950 . S
C1618 C1627 1.390 . S
C1619 C1618 1.387 . S
C1619 C1621 1.387 . S
H1620 C1627 0.950 1_565 S
C1621 C1619 1.387 . S
C1621 C1623 1.390 . S
C1621 H1625 0.950 . S
H1622 C1618 0.950 . S
C1623 C1621 1.390 . S
C1623 C1624 1.387 . S
C1623 H1626 0.950 . S
C1624 C1623 1.387 . S
C1624 C1627 1.387 . S
H1625 C1621 0.950 . S
H1626 C1623 0.950 . S
C1627 C1618 1.390 . S
C1627 H1620 0.950 1_545 S
C1627 C1624 1.387 . S
C1628 C1629 1.387 . S
C1628 H1632 0.950 . S
C1628 C1637 1.390 . S
C1629 C1628 1.387 . S
C1629 C1631 1.387 . S
H1630 C1637 0.950 . S
C1631 C1629 1.387 . S
C1631 C1633 1.390 . S
C1631 H1635 0.950 . S
H1632 C1628 0.950 . S
C1633 C1631 1.390 . S
C1633 C1634 1.387 . S
C1633 H1636 0.950 . S
C1634 C1633 1.387 . S
C1634 C1637 1.387 . S
H1635 C1631 0.950 . S
H1636 C1633 0.950 . S
C1637 C1628 1.390 . S
C1637 H1630 0.950 . S
C1637 C1634 1.387 . S
C1638 C1639 1.387 . S
C1638 H1642 0.950 . S
C1638 C1647 1.390 . S
C1639 C1638 1.387 . S
C1639 C1641 1.387 . S
H1640 C1647 0.950 . S
C1641 C1639 1.387 . S
C1641 C1643 1.390 . S
C1641 H1645 0.950 1_565 S
H1642 C1638 0.950 . S
C1643 C1641 1.390 . S
C1643 C1644 1.387 . S
C1643 H1646 0.950 . S
C1644 C1643 1.387 . S
C1644 C1647 1.387 . S
H1645 C1641 0.950 1_545 S
H1646 C1643 0.950 . S
C1647 C1638 1.390 . S
C1647 H1640 0.950 . S
C1647 C1644 1.387 . S
C1648 C1649 1.387 . S
C1648 H1652 0.950 . S
C1648 C1657 1.390 1_655 S
C1649 C1648 1.387 . S
C1649 C1651 1.387 . S
H1650 C1657 0.950 . S
C1651 C1649 1.387 . S
C1651 C1653 1.390 1_655 S
C1651 H1655 0.950 . S
H1652 C1648 0.950 . S
C1653 C1651 1.390 1_455 S
C1653 C1654 1.387 . S
C1653 H1656 0.950 . S
C1654 C1653 1.387 . S
C1654 C1657 1.387 . S
H1655 C1651 0.950 . S
H1656 C1653 0.950 . S
C1657 C1648 1.390 1_455 S
C1657 H1650 0.950 . S
C1657 C1654 1.387 . S
C1658 C1659 1.387 . S
C1658 H1662 0.950 . S
C1658 C1667 1.390 1_545 S
C1659 C1658 1.387 . S
C1659 C1661 1.387 . S
H1660 C1667 0.950 . S
C1661 C1659 1.387 . S
C1661 C1663 1.390 1_545 S
C1661 H1665 0.950 . S
H1662 C1658 0.950 . S
C1663 C1661 1.390 1_565 S
C1663 C1664 1.387 . S
C1663 H1666 0.950 . S
C1664 C1663 1.387 . S
C1664 C1667 1.387 . S
H1665 C1661 0.950 . S
H1666 C1663 0.950 . S
C1667 C1658 1.390 1_565 S
C1667 H1660 0.950 . S
C1667 C1664 1.387 . S
C1668 C1669 1.387 . S
C1668 H1672 0.950 . S
C1668 C1677 1.390 1_655 S
C1669 C1668 1.387 . S
C1669 C1671 1.387 . S
H1670 C1677 0.950 . S
C1671 C1669 1.387 . S
C1671 C1673 1.390 1_655 S
C1671 H1675 0.950 . S
H1672 C1668 0.950 . S
C1673 C1671 1.390 1_455 S
C1673 C1674 1.387 . S
C1673 H1676 0.950 . S
C1674 C1673 1.387 . S
C1674 C1677 1.387 . S
H1675 C1671 0.950 . S
H1676 C1673 0.950 . S
C1677 C1668 1.390 1_455 S
C1677 H1670 0.950 . S
C1677 C1674 1.387 . S
C1678 C1679 1.387 . S
C1678 H1682 0.950 . S
C1678 C1687 1.390 1_565 S
C1679 C1678 1.387 . S
C1679 C1681 1.387 . S
H1680 C1687 0.950 . S
C1681 C1679 1.387 . S
C1681 C1683 1.390 1_565 S
C1681 H1685 0.950 . S
H1682 C1678 0.950 . S
C1683 C1681 1.390 1_545 S
C1683 C1684 1.387 . S
C1683 H1686 0.950 . S
C1684 C1683 1.387 . S
C1684 C1687 1.387 . S
H1685 C1681 0.950 . S
H1686 C1683 0.950 . S
C1687 C1678 1.390 1_545 S
C1687 H1680 0.950 . S
C1687 C1684 1.387 . S
C1688 C1689 1.387 . S
C1688 H1692 0.950 . S
C1688 C1697 1.390 1_556 S
C1689 C1688 1.387 . S
C1689 C1691 1.387 . S
H1690 C1697 0.950 . S
C1691 C1689 1.387 . S
C1691 C1693 1.390 1_556 S
C1691 H1695 0.950 . S
H1692 C1688 0.950 . S
C1693 C1691 1.390 1_554 S
C1693 C1694 1.387 . S
C1693 H1696 0.950 . S
C1694 C1693 1.387 . S
C1694 C1697 1.387 . S
H1695 C1691 0.950 . S
H1696 C1693 0.950 . S
C1697 C1688 1.390 1_554 S
C1697 H1690 0.950 . S
C1697 C1694 1.387 . S
C1698 C1699 1.387 . S
C1698 H1702 0.950 . S
C1698 C1707 1.390 1_556 S
C1699 C1698 1.387 . S
C1699 C1701 1.387 . S
H1700 C1707 0.950 . S
C1701 C1699 1.387 . S
C1701 C1703 1.390 1_556 S
C1701 H1705 0.950 . S
H1702 C1698 0.950 . S
C1703 C1701 1.390 1_554 S
C1703 C1704 1.387 . S
C1703 H1706 0.950 . S
C1704 C1703 1.387 . S
C1704 C1707 1.387 . S
H1705 C1701 0.950 . S
H1706 C1703 0.950 . S
C1707 C1698 1.390 1_554 S
C1707 H1700 0.950 . S
C1707 C1704 1.387 . S
C1708 C1709 1.387 . S
C1708 H1712 0.950 . S
C1708 C1717 1.390 1_554 S
C1709 C1708 1.387 . S
C1709 C1711 1.387 . S
H1710 C1717 0.950 . S
C1711 C1709 1.387 . S
C1711 C1713 1.390 1_554 S
C1711 H1715 0.950 . S
H1712 C1708 0.950 . S
C1713 C1711 1.390 1_556 S
C1713 C1714 1.387 . S
C1713 H1716 0.950 . S
C1714 C1713 1.387 . S
C1714 C1717 1.387 . S
H1715 C1711 0.950 . S
H1716 C1713 0.950 . S
C1717 C1708 1.390 1_556 S
C1717 H1710 0.950 . S
C1717 C1714 1.387 . S
C1718 C1719 1.387 . S
C1718 H1722 0.950 . S
C1718 C1727 1.390 1_556 S
C1719 C1718 1.387 . S
C1719 C1721 1.387 . S
H1720 C1727 0.950 . S
C1721 C1719 1.387 . S
C1721 C1723 1.390 1_556 S
C1721 H1725 0.950 . S
H1722 C1718 0.950 . S
C1723 C1721 1.390 1_554 S
C1723 C1724 1.387 . S
C1723 H1726 0.950 . S
C1724 C1723 1.387 . S
C1724 C1727 1.387 . S
H1725 C1721 0.950 . S
H1726 C1723 0.950 . S
C1727 C1718 1.390 1_554 S
C1727 H1720 0.950 . S
C1727 C1724 1.387 . S
C1409 C20 1.755 . S
C1414 C293 1.652 . S
C1419 C49 1.630 . S
C1424 C117 1.744 . S
C1429 C137 1.653 . S
C1434 C196 1.755 . S
C1439 C225 1.629 . S
C1444 C313 1.744 . S
C1449 C409 1.756 . S
C1454 C497 1.655 . S
C1459 C460 1.744 . S
C1464 C557 1.629 . S
C1469 C585 1.755 . S
C1474 C636 1.653 . S
C1479 C673 1.744 . S
C1484 C381 1.630 . S
C1489 C724 1.756 . S
C1494 C988 1.654 . S
C1499 C753 1.629 . S
C1504 C821 1.744 . S
C1509 C841 1.652 . S
C1514 C900 1.755 . S
C1519 C1025 1.744 . S
C1524 C929 1.630 . S
C1529 C1201 1.654 . S
C1534 C1105 1.755 . S
C1539 C1261 1.631 . S
C1544 C1164 1.745 . S
C1549 C1289 1.756 . S
C1554 C1340 1.655 . S
C1559 C1377 1.744 . S
C1564 C1076 1.629 . S
C1569 C57 1.050 . S
C1574 C1369 1.041 . S
C1579 C108 1.042 . S
C1584 C1085 1.048 . S
C1589 C1173 1.044 . S
C1594 C233 1.048 . S
C1599 C321 1.042 . S
C1604 C1252 1.048 . S
C1609 C812 1.044 . S
C1614 C372 1.048 . S
C1619 C937 1.049 . S
C1624 C469 1.041 . S
C1629 C548 1.047 . S
C1634 C1017 1.045 . S
C1639 C665 1.044 . S
C1644 C761 1.048 . S
C1649 C29 1.557 . S
C1654 C577 1.557 . S
C1659 C645 1.557 . S
C1664 C145 1.557 . S
C1669 C401 1.558 . S
C1674 C205 1.558 . S
C1679 C489 1.556 . S
C1684 C284 1.556 . S
C1689 C733 1.558 . S
C1694 C1281 1.558 . S
C1699 C849 1.556 . S
C1704 C1349 1.556 . S
C1709 C1113 1.557 . S
C1714 C909 1.557 . S
C1719 C997 1.556 . S
C1724 C1193 1.556 . S
