# Generated by pormake.
# Topology acs-f, (3)-cn, num edge types: 1
# Building blocks:
#     Node 0, Type 0, BuildingBlock: OLANEW_clean_sbu_2, # of connection points: 3
#     Node 1, Type 0, BuildingBlock: OLANEW_clean_sbu_2, # of connection points: 3
#     Node 2, Type 0, BuildingBlock: OLANEW_clean_sbu_2, # of connection points: 3
#     Node 3, Type 0, BuildingBlock: OLANEW_clean_sbu_2, # of connection points: 3
#     Node 4, Type 0, BuildingBlock: OLANEW_clean_sbu_2, # of connection points: 3
#     Node 5, Type 0, BuildingBlock: OLANEW_clean_sbu_2, # of connection points: 3
#     Node 6, Type 0, BuildingBlock: OLANEW_clean_sbu_2, # of connection points: 3
#     Node 7, Type 0, BuildingBlock: OLANEW_clean_sbu_2, # of connection points: 3
#     Node 8, Type 0, BuildingBlock: OLANEW_clean_sbu_2, # of connection points: 3
#     Node 9, Type 0, BuildingBlock: OLANEW_clean_sbu_2, # of connection points: 3
#     Node 10, Type 0, BuildingBlock: OLANEW_clean_sbu_2, # of connection points: 3
#     Node 11, Type 0, BuildingBlock: OLANEW_clean_sbu_2, # of connection points: 3
#     Edge 12, Type (0, 0), BuildingBlock: XUDNAN_clean_linker_2, # of connection points: 2
#     Edge 13, Type (0, 0), BuildingBlock: XUDNAN_clean_linker_2, # of connection points: 2
#     Edge 14, Type (0, 0), BuildingBlock: XUDNAN_clean_linker_2, # of connection points: 2
#     Edge 15, Type (0, 0), BuildingBlock: XUDNAN_clean_linker_2, # of connection points: 2
#     Edge 16, Type (0, 0), BuildingBlock: XUDNAN_clean_linker_2, # of connection points: 2
#     Edge 17, Type (0, 0), BuildingBlock: XUDNAN_clean_linker_2, # of connection points: 2
#     Edge 18, Type (0, 0), BuildingBlock: XUDNAN_clean_linker_2, # of connection points: 2
#     Edge 19, Type (0, 0), BuildingBlock: XUDNAN_clean_linker_2, # of connection points: 2
#     Edge 20, Type (0, 0), BuildingBlock: XUDNAN_clean_linker_2, # of connection points: 2
#     Edge 21, Type (0, 0), BuildingBlock: XUDNAN_clean_linker_2, # of connection points: 2
#     Edge 22, Type (0, 0), BuildingBlock: XUDNAN_clean_linker_2, # of connection points: 2
#     Edge 23, Type (0, 0), BuildingBlock: XUDNAN_clean_linker_2, # of connection points: 2
#     Edge 24, Type (0, 0), BuildingBlock: XUDNAN_clean_linker_2, # of connection points: 2
#     Edge 25, Type (0, 0), BuildingBlock: XUDNAN_clean_linker_2, # of connection points: 2
#     Edge 26, Type (0, 0), BuildingBlock: XUDNAN_clean_linker_2, # of connection points: 2
#     Edge 27, Type (0, 0), BuildingBlock: XUDNAN_clean_linker_2, # of connection points: 2
#     Edge 28, Type (0, 0), BuildingBlock: XUDNAN_clean_linker_2, # of connection points: 2
#     Edge 29, Type (0, 0), BuildingBlock: XUDNAN_clean_linker_2, # of connection points: 2
# Relax obj value: 0.062
# Max RMSD: 0.033
# Mean RMSD: 0.033
data_MOF--net-acs-f--node1-OLANEW_clean_sbu_2--edge1-XUDNAN_clean_linker_2
_symmetry_space_group_name_H-M    P1
_symmetry_Int_Tables_number       1
_symmetry_cell_setting            triclinic
loop_
_symmetry_equiv_pos_as_xyz
'x, y, z'
_cell_length_a     37.091116
_cell_length_b     37.154939
_cell_length_c     51.059811
_cell_angle_alpha  90.052846
_cell_angle_beta   89.945983
_cell_angle_gamma 120.01115
loop_
_atom_site_label
_atom_site_type_symbol
_atom_site_fract_x
_atom_site_fract_y
_atom_site_fract_z
_atom_type_partial_charge
O0 O 0.94452 0.44227 0.14998 0.0
Cd1 Cd 0.93927 0.40256 0.11064 0.0
O2 O 0.97827 0.41562 0.16977 0.0
Cd3 Cd 0.01619 0.41383 0.20194 0.0
O4 O 0.06492 0.42007 0.22865 0.0
C5 C 0.08891 0.40679 0.22128 0.0
O6 O 0.08284 0.38895 0.19821 0.0
C7 C 0.96299 0.43955 0.17017 0.0
C8 C 0.9875 0.45563 0.07046 0.0
O9 O 0.94928 0.44563 0.07337 0.0
O10 O 0.0028 0.4402 0.08644 0.0
O11 O 0.46342 0.49442 0.12832 0.0
Cd12 Cd 0.46054 0.5321 0.08985 0.0
O13 O 0.47926 0.55227 0.14856 0.0
Cd14 Cd 0.50047 0.59766 0.18043 0.0
O15 O 0.52337 0.65304 0.20483 0.0
C16 C 0.56229 0.67653 0.20817 0.0
O17 O 0.58802 0.66606 0.19756 0.0
C18 C 0.47269 0.51525 0.14946 0.0
C19 C 0.43986 0.48846 0.04266 0.0
O20 O 0.4778 0.50921 0.05034 0.0
O21 O 0.41164 0.4875 0.05765 0.0
O22 O 0.52442 0.08813 0.14882 0.0
Cd23 Cd 0.49847 0.07973 0.10392 0.0
O24 O 0.46862 0.0297 0.15946 0.0
Cd25 Cd 0.42468 0.98312 0.18682 0.0
O26 O 0.37943 0.93644 0.21342 0.0
C27 C 0.34112 0.9173 0.20725 0.0
O28 O 0.32974 0.92621 0.18494 0.0
C29 C 0.50295 0.06127 0.16611 0.0
C30 C 0.50135 0.01688 0.07572 0.0
O31 O 0.53185 0.05435 0.07513 0.0
O32 O 0.46979 0.00905 0.08998 0.0
O33 O 0.58143 0.07973 0.36911 0.0
Cd34 Cd 0.60521 0.06591 0.4106 0.0
O35 O 0.58109 0.02412 0.35483 0.0
Cd36 Cd 0.57915 0.97929 0.32626 0.0
O37 O 0.57946 0.9297 0.30355 0.0
C38 C 0.6139 0.93131 0.29891 0.0
O39 O 0.64852 0.96341 0.30737 0.0
C40 C 0.57583 0.05488 0.35041 0.0
C41 C 0.56315 0.06759 0.45547 0.0
O42 O 0.59458 0.1008 0.44668 0.0
O43 O 0.55094 0.03378 0.44261 0.0
O44 O 0.91894 0.523 0.35353 0.0
Cd45 Cd 0.90444 0.54172 0.39655 0.0
O46 O 0.97308 0.58585 0.35259 0.0
Cd47 Cd 0.03033 0.63526 0.33511 0.0
O48 O 0.09101 0.68289 0.32065 0.0
C49 C 0.09483 0.6995 0.29832 0.0
O50 O 0.06152 0.68766 0.2838 0.0
C51 C 0.9504 0.55105 0.34142 0.0
C52 C 0.89819 0.48871 0.43706 0.0
O53 O 0.86591 0.48243 0.42416 0.0
O54 O 0.9335 0.51962 0.43044 0.0
O55 O 0.5198 0.42472 0.33833 0.0
Cd56 Cd 0.52019 0.40977 0.38491 0.0
O57 O 0.46622 0.4333 0.34488 0.0
Cd58 Cd 0.41371 0.44063 0.33284 0.0
O59 O 0.35884 0.44429 0.32183 0.0
C60 C 0.33758 0.42425 0.302 0.0
O61 O 0.34931 0.40178 0.28846 0.0
C62 C 0.49262 0.43262 0.32926 0.0
C63 C 0.54658 0.47924 0.41705 0.0
O64 O 0.57265 0.46965 0.4075 0.0
O65 O 0.50804 0.4562 0.41115 0.0
O66 O 0.11198 0.65888 0.83994 0.0
Cd67 Cd 0.12958 0.70121 0.87952 0.0
O68 O 0.07496 0.68564 0.82524 0.0
Cd69 Cd 0.03066 0.68924 0.79855 0.0
O70 O 0.98822 0.6943 0.77113 0.0
C71 C 0.95044 0.68109 0.77733 0.0
O72 O 0.93714 0.66413 0.80048 0.0
C73 C 0.08876 0.66068 0.82233 0.0
C74 C 0.1109 0.65062 0.92357 0.0
O75 O 0.08378 0.65826 0.91352 0.0
O76 O 0.14705 0.66737 0.91297 0.0
O77 O 0.4793 0.4609 0.7845 0.0
Cd78 Cd 0.4476 0.39433 0.80766 0.0
O79 O 0.42573 0.44288 0.75843 0.0
Cd80 Cd 0.3926 0.37877 0.77219 0.0
O81 O 0.36903 0.312 0.77068 0.0
C82 C 0.34353 0.2909 0.75264 0.0
O83 O 0.3306 0.30963 0.73653 0.0
C84 C 0.46181 0.46995 0.76629 0.0
C85 C 0.4316 0.40341 0.85991 0.0
O86 O 0.46708 0.40867 0.85282 0.0
O87 O 0.40359 0.39362 0.8423 0.0
O88 O 0.5372 0.82391 0.86337 0.0
Cd89 Cd 0.56509 0.8127 0.90394 0.0
O90 O 0.60063 0.86827 0.85053 0.0
Cd91 Cd 0.64666 0.91818 0.82571 0.0
O92 O 0.69233 0.97203 0.80354 0.0
C93 C 0.69232 0.97261 0.77864 0.0
O94 O 0.66425 0.93979 0.76586 0.0
C95 C 0.56159 0.8495 0.84638 0.0
C96 C 0.54362 0.84553 0.94645 0.0
O97 O 0.57732 0.8678 0.93359 0.0
O98 O 0.52032 0.80763 0.93936 0.0
O99 O 0.42426 0.94587 0.69878 0.0
Cd100 Cd 0.38566 0.97212 0.67405 0.0
O101 O 0.38183 0.92616 0.73261 0.0
Cd102 Cd 0.34642 0.95415 0.71775 0.0
O103 O 0.32637 0.00015 0.71561 0.0
C104 C 0.33965 0.02698 0.73389 0.0
O105 O 0.36323 0.02461 0.75222 0.0
C106 C 0.41355 0.92879 0.72119 0.0
C107 C 0.42459 0.00668 0.62644 0.0
O108 O 0.4327 0.02922 0.64702 0.0
O109 O 0.39786 0.96786 0.62835 0.0
O110 O 0.98412 0.42421 0.67539 0.0
Cd111 Cd 0.9579 0.36045 0.64968 0.0
O112 O 0.99007 0.39631 0.71192 0.0
Cd113 Cd 0.95979 0.33307 0.69646 0.0
O114 O 0.91636 0.26617 0.6967 0.0
C115 C 0.90615 0.24954 0.71923 0.0
O116 O 0.92295 0.27302 0.73998 0.0
C117 C 0.99479 0.42789 0.69932 0.0
C118 C 0.93143 0.37175 0.60088 0.0
O119 O 0.96961 0.38251 0.60493 0.0
O120 O 0.90557 0.35496 0.6198 0.0
O121 O 0.55379 0.70016 0.6265 0.0
Cd122 Cd 0.57195 0.73811 0.58511 0.0
O123 O 0.61861 0.71508 0.63045 0.0
Cd124 Cd 0.6702 0.70973 0.64699 0.0
O125 O 0.72526 0.70876 0.6612 0.0
C126 C 0.72564 0.69358 0.68343 0.0
O127 O 0.69203 0.67793 0.6981 0.0
C128 C 0.58154 0.69712 0.63926 0.0
C129 C 0.58008 0.69026 0.54593 0.0
O130 O 0.61158 0.71604 0.55949 0.0
O131 O 0.54486 0.68751 0.55068 0.0
H132 H 0.28962 0.39115 0.25809 0.0
H133 H 0.30064 0.46142 0.32857 0.0
H134 H 0.23755 0.46371 0.31599 0.0
H135 H 0.25557 0.4456 0.21595 0.0
H136 H 0.22027 0.39985 0.19766 0.0
H137 H 0.26598 0.40335 0.21245 0.0
H138 H 0.2198 0.33427 0.23718 0.0
H139 H 0.17394 0.3306 0.22251 0.0
H140 H 0.17793 0.32935 0.25764 0.0
H141 H 0.17295 0.45801 0.29577 0.0
H142 H 0.11286 0.44648 0.26875 0.0
H143 H 0.14479 0.38059 0.21137 0.0
C144 C 0.27876 0.40696 0.27093 0.0
C145 C 0.30001 0.426 0.29437 0.0
C146 C 0.28488 0.4466 0.31052 0.0
C147 C 0.24903 0.44801 0.30357 0.0
C148 C 0.22876 0.42881 0.28037 0.0
C149 C 0.24316 0.40881 0.26425 0.0
C150 C 0.216 0.39112 0.24021 0.0
C151 C 0.24095 0.41119 0.21509 0.0
C152 C 0.19572 0.34351 0.23935 0.0
C153 C 0.18404 0.40427 0.24534 0.0
C154 C 0.19185 0.42586 0.26863 0.0
C155 C 0.16653 0.44116 0.27748 0.0
C156 C 0.13245 0.43441 0.26201 0.0
C157 C 0.1241 0.41266 0.23793 0.0
C158 C 0.15028 0.39733 0.22965 0.0
H159 H 0.51741 0.70969 0.22957 0.0
H160 H 0.64371 0.73368 0.21882 0.0
H161 H 0.67076 0.8015 0.24093 0.0
H162 H 0.5393 0.8132 0.21751 0.0
H163 H 0.50335 0.81169 0.24186 0.0
H164 H 0.49384 0.76449 0.22591 0.0
H165 H 0.49029 0.73097 0.27105 0.0
H166 H 0.49957 0.778 0.28714 0.0
H167 H 0.53317 0.75696 0.29358 0.0
H168 H 0.68404 0.86734 0.26349 0.0
H169 H 0.6825 0.92573 0.28555 0.0
H170 H 0.54747 0.85859 0.28115 0.0
C171 C 0.55076 0.72904 0.23199 0.0
C172 C 0.57845 0.71633 0.22247 0.0
C173 C 0.62188 0.74271 0.22596 0.0
C174 C 0.63755 0.78131 0.23848 0.0
C175 C 0.6094 0.79304 0.24739 0.0
C176 C 0.56693 0.76763 0.24437 0.0
C177 C 0.54334 0.78771 0.25543 0.0
C178 C 0.5185 0.79469 0.23389 0.0
C179 C 0.51492 0.76187 0.27815 0.0
C180 C 0.5792 0.82848 0.26505 0.0
C181 C 0.61704 0.83096 0.26026 0.0
C182 C 0.65458 0.86573 0.26738 0.0
C183 C 0.65338 0.89876 0.27988 0.0
C184 C 0.61489 0.89678 0.28509 0.0
C185 C 0.57741 0.86113 0.27744 0.0
H186 H 0.11356 0.74357 0.25236 0.0
H187 H 0.16993 0.72872 0.32301 0.0
H188 H 0.23905 0.78279 0.30742 0.0
H189 H 0.19585 0.75961 0.20826 0.0
H190 H 0.19163 0.79782 0.18884 0.0
H191 H 0.14656 0.75792 0.20557 0.0
H192 H 0.1364 0.81427 0.22882 0.0
H193 H 0.18145 0.85435 0.21216 0.0
H194 H 0.17873 0.85446 0.24741 0.0
H195 H 0.30209 0.83849 0.28416 0.0
H196 H 0.35449 0.89193 0.25485 0.0
H197 H 0.25679 0.87041 0.19953 0.0
C198 C 0.14041 0.75162 0.26457 0.0
C199 C 0.13629 0.73186 0.28892 0.0
C200 C 0.17226 0.74341 0.30429 0.0
C201 C 0.21169 0.77409 0.29561 0.0
C202 C 0.21462 0.79296 0.27154 0.0
C203 C 0.17997 0.78221 0.25623 0.0
C204 C 0.19161 0.80734 0.23118 0.0
C205 C 0.18078 0.77897 0.20704 0.0
C206 C 0.17082 0.8342 0.22983 0.0
C207 C 0.23825 0.83384 0.23476 0.0
C208 C 0.25091 0.82509 0.25817 0.0
C209 C 0.29256 0.84562 0.26577 0.0
C210 C 0.32208 0.87592 0.24899 0.0
C211 C 0.30978 0.88537 0.22488 0.0
C212 C 0.26724 0.86395 0.2178 0.0
H213 H 0.73758 0.66527 0.73049 0.0
H214 H 0.79993 0.72332 0.65759 0.0
H215 H 0.86375 0.72531 0.67338 0.0
H216 H 0.82506 0.72354 0.77241 0.0
H217 H 0.81299 0.68049 0.7939 0.0
H218 H 0.77183 0.68267 0.77662 0.0
H219 H 0.74786 0.61 0.75665 0.0
H220 H 0.78894 0.60757 0.77388 0.0
H221 H 0.7847 0.60116 0.73882 0.0
H222 H 0.92118 0.72213 0.69734 0.0
H223 H 0.9682 0.71399 0.72784 0.0
H224 H 0.86838 0.65801 0.78509 0.0
C225 C 0.76458 0.67828 0.71778 0.0
C226 C 0.7637 0.69412 0.69277 0.0
C227 C 0.7998 0.71097 0.67681 0.0
C228 C 0.83622 0.71223 0.6856 0.0
C229 C 0.83606 0.69648 0.71037 0.0
C230 C 0.8012 0.67979 0.72623 0.0
C231 C 0.80941 0.66541 0.75215 0.0
C232 C 0.80454 0.68948 0.77512 0.0
C233 C 0.78104 0.61823 0.75556 0.0
C234 C 0.85442 0.67687 0.74844 0.0
C235 C 0.86917 0.69466 0.72418 0.0
C236 C 0.90997 0.70815 0.71637 0.0
C237 C 0.93644 0.7034 0.73385 0.0
C238 C 0.92203 0.68535 0.75887 0.0
C239 C 0.88038 0.67186 0.76611 0.0
H240 H 0.37043 0.2451 0.77977 0.0
H241 H 0.29147 0.23792 0.71491 0.0
H242 H 0.27778 0.16719 0.70475 0.0
H243 H 0.41806 0.19657 0.74819 0.0
H244 H 0.42018 0.16899 0.77664 0.0
H245 H 0.42024 0.21714 0.78052 0.0
H246 H 0.3556 0.18075 0.81079 0.0
H247 H 0.35548 0.13244 0.80713 0.0
H248 H 0.30945 0.13503 0.79931 0.0
H249 H 0.27773 0.09967 0.69934 0.0
H250 H 0.29012 0.04017 0.69981 0.0
H251 H 0.36885 0.09198 0.76832 0.0
C252 C 0.34964 0.22842 0.76372 0.0
C253 C 0.33197 0.24705 0.74817 0.0
C254 C 0.3053 0.22427 0.72716 0.0
C255 C 0.29729 0.18404 0.72124 0.0
C256 C 0.31597 0.16696 0.73662 0.0
C257 C 0.34134 0.18832 0.75755 0.0
C258 C 0.35942 0.164 0.77015 0.0
C259 C 0.4073 0.18812 0.76877 0.0
C260 C 0.34405 0.15236 0.79853 0.0
C261 C 0.34109 0.12606 0.75265 0.0
C262 C 0.31586 0.12814 0.73354 0.0
C263 C 0.29703 0.09746 0.71441 0.0
C264 C 0.30434 0.06386 0.71479 0.0
C265 C 0.33034 0.06133 0.73414 0.0
C266 C 0.34855 0.09277 0.75338 0.0
H267 H 0.87743 0.20628 0.765 0.0
H268 H 0.86284 0.19242 0.68061 0.0
H269 H 0.80772 0.11907 0.68641 0.0
H270 H 0.86088 0.10328 0.77857 0.0
H271 H 0.83289 0.09809 0.80851 0.0
H272 H 0.87226 0.14877 0.79748 0.0
H273 H 0.81852 0.17396 0.79897 0.0
H274 H 0.77898 0.12337 0.80992 0.0
H275 H 0.77051 0.14582 0.78094 0.0
H276 H 0.7521 0.04774 0.7018 0.0
H277 H 0.70128 0.98436 0.72542 0.0
H278 H 0.75312 0.04597 0.79954 0.0
C279 C 0.86294 0.18782 0.74768 0.0
C280 C 0.87449 0.2051 0.72234 0.0
C281 C 0.85456 0.17983 0.70022 0.0
C282 C 0.82323 0.13815 0.70332 0.0
C283 C 0.81234 0.12226 0.72864 0.0
C284 C 0.83174 0.14633 0.75041 0.0
C285 C 0.81376 0.1223 0.7755 0.0
C286 C 0.84693 0.11784 0.79092 0.0
C287 C 0.79428 0.14257 0.79231 0.0
C288 C 0.78086 0.08101 0.7645 0.0
C289 C 0.78055 0.08147 0.73744 0.0
C290 C 0.75222 0.04698 0.72299 0.0
C291 C 0.72345 0.01114 0.73658 0.0
C292 C 0.72322 0.01013 0.76434 0.0
C293 C 0.7525 0.04561 0.77833 0.0
H294 H 0.96402 0.49427 0.03414 0.0
H295 H 0.06938 0.48242 0.05936 0.0
H296 H 0.11265 0.53138 0.02467 0.0
H297 H 0.98498 0.49969 0.96503 0.0
H298 H 0.9687 0.53716 0.95876 0.0
H299 H 0.94612 0.50112 0.98553 0.0
H300 H 0.96795 0.56261 0.0177 0.0
H301 H 0.99069 0.59885 0.99104 0.0
H302 H 0.02176 0.60313 0.01926 0.0
H303 H 0.14445 0.58181 0.98725 0.0
H304 H 0.16223 0.62952 0.94962 0.0
H305 H 0.03601 0.60837 0.94916 0.0
C306 C 0.99617 0.50188 0.03237 0.0
C307 C 0.01331 0.48449 0.04946 0.0
C308 C 0.05555 0.49534 0.04648 0.0
C309 C 0.08039 0.52313 0.02685 0.0
C310 C 0.06253 0.5398 0.0104 0.0
C311 C 0.02138 0.52955 0.01293 0.0
C312 C 0.00972 0.5518 0.99275 0.0
C313 C 0.97535 0.52057 0.97443 0.0
C314 C 0.99678 0.58082 0.00599 0.0
C315 C 0.05076 0.5762 0.97846 0.0
C316 C 0.08083 0.56886 0.98892 0.0
C317 C 0.12116 0.58781 0.97889 0.0
C318 C 0.13096 0.61487 0.95753 0.0
C319 C 0.10055 0.62273 0.94646 0.0
C320 C 0.06 0.60312 0.9572 0.0
H321 H 0.48794 0.43525 0.90015 0.0
H322 H 0.35711 0.38537 0.88204 0.0
H323 H 0.34411 0.3974 0.9278 0.0
H324 H 0.47374 0.39437 0.96675 0.0
H325 H 0.51889 0.44023 0.97907 0.0
H326 H 0.51729 0.4249 0.94541 0.0
H327 H 0.53188 0.4975 0.93014 0.0
H328 H 0.53355 0.51303 0.96371 0.0
H329 H 0.49823 0.51655 0.94103 0.0
H330 H 0.34595 0.4176 0.97501 0.0
H331 H 0.36291 0.44682 0.01969 0.0
H332 H 0.49279 0.48458 0.00665 0.0
C333 C 0.45645 0.42638 0.90586 0.0
C334 C 0.42348 0.40918 0.88754 0.0
C335 C 0.38283 0.39852 0.89574 0.0
C336 C 0.37512 0.40512 0.92171 0.0
C337 C 0.40838 0.42242 0.93921 0.0
C338 C 0.44825 0.43297 0.93163 0.0
C339 C 0.47892 0.45309 0.95388 0.0
C340 C 0.49834 0.42655 0.96174 0.0
C341 C 0.51262 0.49768 0.94676 0.0
C342 C 0.45018 0.45282 0.97505 0.0
C343 C 0.40955 0.43459 0.96629 0.0
C344 C 0.37762 0.43173 0.98213 0.0
C345 C 0.38757 0.44841 0.0075 0.0
C346 C 0.42916 0.46796 0.0167 0.0
C347 C 0.46067 0.46968 0.00027 0.0
H348 H 0.56048 0.02543 0.04003 0.0
H349 H 0.44333 0.93388 0.07501 0.0
H350 H 0.44275 0.87945 0.04691 0.0
H351 H 0.53611 0.98647 0.97516 0.0
H352 H 0.58798 0.99713 0.96748 0.0
H353 H 0.58039 0.0284 0.99137 0.0
H354 H 0.62112 0.01142 0.02573 0.0
H355 H 0.62892 0.98015 0.00192 0.0
H356 H 0.60481 0.95792 0.03292 0.0
H357 H 0.45352 0.83558 0.01374 0.0
H358 H 0.47488 0.80547 0.97795 0.0
H359 H 0.58484 0.92584 0.9646 0.0
C360 C 0.5349 0.99387 0.042 0.0
C361 C 0.50199 0.98389 0.05979 0.0
C362 C 0.46891 0.94226 0.06156 0.0
C363 C 0.46832 0.91111 0.0457 0.0
C364 C 0.50104 0.92209 0.0282 0.0
C365 C 0.53375 0.96244 0.02629 0.0
C366 C 0.56437 0.96633 0.00529 0.0
C367 C 0.56736 0.99635 0.98354 0.0
C368 C 0.60735 0.97974 0.01718 0.0
C369 C 0.54357 0.92193 0.99551 0.0
C370 C 0.50717 0.89686 0.00905 0.0
C371 C 0.48209 0.85485 0.0031 0.0
C372 C 0.49447 0.83805 0.98272 0.0
C373 C 0.53157 0.86324 0.96849 0.0
C374 C 0.55642 0.90568 0.97516 0.0
H375 H 0.41977 0.96545 0.58083 0.0
H376 H 0.47865 0.08868 0.61545 0.0
H377 H 0.51694 0.11841 0.57421 0.0
H378 H 0.50828 0.97829 0.54701 0.0
H379 H 0.47996 0.94864 0.5187 0.0
H380 H 0.45477 0.93756 0.55016 0.0
H381 H 0.39633 0.94845 0.53083 0.0
H382 H 0.42138 0.9596 0.49926 0.0
H383 H 0.40986 0.99653 0.51441 0.0
H384 H 0.55175 0.13417 0.53008 0.0
H385 H 0.58145 0.1346 0.4867 0.0
H386 H 0.49992 0.00099 0.48107 0.0
C387 C 0.44031 0.99876 0.57966 0.0
C388 C 0.44611 0.02477 0.60135 0.0
C389 C 0.47365 0.06815 0.59908 0.0
C390 C 0.49546 0.08535 0.57572 0.0
C391 C 0.48932 0.05877 0.55479 0.0
C392 C 0.46239 0.01641 0.55653 0.0
C393 C 0.46291 0.99442 0.53167 0.0
C394 C 0.47735 0.96288 0.53723 0.0
C395 C 0.42007 0.97352 0.51825 0.0
C396 C 0.4949 0.03093 0.51584 0.0
C397 C 0.5095 0.06782 0.52943 0.0
C398 C 0.54031 0.10552 0.51917 0.0
C399 C 0.557 0.10544 0.49451 0.0
C400 C 0.54295 0.06787 0.48043 0.0
C401 C 0.51111 0.03029 0.49121 0.0
H402 H 0.98073 0.42275 0.56162 0.0
H403 H 0.85163 0.34017 0.58301 0.0
H404 H 0.8291 0.35716 0.54156 0.0
H405 H 0.96559 0.50143 0.53513 0.0
H406 H 0.00319 0.51502 0.50918 0.0
H407 H 0.0092 0.49317 0.53916 0.0
H408 H 0.01125 0.43444 0.51295 0.0
H409 H 0.00531 0.45619 0.48283 0.0
H410 H 0.9692 0.40272 0.4909 0.0
H411 H 0.82066 0.38595 0.49888 0.0
H412 H 0.82679 0.42643 0.45912 0.0
H413 H 0.96145 0.49164 0.46643 0.0
C414 C 0.94773 0.40767 0.55739 0.0
C415 C 0.91791 0.37989 0.57543 0.0
C416 C 0.875 0.36145 0.56942 0.0
C417 C 0.86192 0.3708 0.5459 0.0
C418 C 0.89214 0.39874 0.52868 0.0
C419 C 0.93415 0.41697 0.53417 0.0
C420 C 0.96023 0.44808 0.51327 0.0
C421 C 0.98606 0.49202 0.52489 0.0
C422 C 0.98814 0.43453 0.49915 0.0
C423 C 0.9263 0.44501 0.49537 0.0
C424 C 0.88726 0.41601 0.50442 0.0
C425 C 0.85108 0.40855 0.49152 0.0
C426 C 0.85489 0.4317 0.46895 0.0
C427 C 0.89459 0.4622 0.45966 0.0
C428 C 0.93066 0.46848 0.47297 0.0
H429 H 0.49832 0.50602 0.44154 0.0
H430 H 0.62616 0.53361 0.43312 0.0
H431 H 0.64901 0.59207 0.46412 0.0
H432 H 0.52128 0.61297 0.44646 0.0
H433 H 0.48112 0.60104 0.47041 0.0
H434 H 0.47509 0.56234 0.44681 0.0
H435 H 0.46415 0.5111 0.48446 0.0
H436 H 0.4702 0.54963 0.50817 0.0
H437 H 0.50296 0.52667 0.5098 0.0
H438 H 0.65757 0.64591 0.4973 0.0
H439 H 0.65125 0.69152 0.52997 0.0
H440 H 0.51786 0.62883 0.51648 0.0
C441 C 0.53118 0.52452 0.44604 0.0
C442 C 0.56047 0.51526 0.43486 0.0
C443 C 0.60315 0.54013 0.4414 0.0
C444 C 0.61644 0.57343 0.45898 0.0
C445 C 0.5867 0.5815 0.4698 0.0
C446 C 0.54498 0.55784 0.46353 0.0
C447 C 0.51922 0.57243 0.47833 0.0
C448 C 0.49793 0.58814 0.45937 0.0
C449 C 0.48726 0.5379 0.49625 0.0
C450 C 0.55293 0.60777 0.49408 0.0
C451 C 0.59165 0.61257 0.48883 0.0
C452 C 0.62744 0.6426 0.50146 0.0
C453 C 0.62353 0.66833 0.52 0.0
C454 C 0.5841 0.66385 0.52574 0.0
C455 C 0.54847 0.63323 0.51244 0.0
H456 H 0.94354 0.47954 0.32151 0.0
H457 H 0.97599 0.60526 0.30053 0.0
H458 H 0.98659 0.59165 0.2546 0.0
H459 H 0.01874 0.47338 0.27698 0.0
H460 H 0.98387 0.41941 0.26943 0.0
H461 H 0.98126 0.43985 0.30096 0.0
H462 H 0.90288 0.41397 0.29365 0.0
H463 H 0.90526 0.39355 0.26213 0.0
H464 H 0.88683 0.43004 0.26472 0.0
H465 H 0.98617 0.56198 0.21036 0.0
H466 H 0.98104 0.52008 0.17133 0.0
H467 H 0.9528 0.41497 0.22133 0.0
C468 C 0.95341 0.50428 0.30725 0.0
C469 C 0.95955 0.54362 0.31451 0.0
C470 C 0.97216 0.57526 0.29542 0.0
C471 C 0.97793 0.5677 0.26928 0.0
C472 C 0.97142 0.5285 0.26268 0.0
C473 C 0.96004 0.49748 0.28116 0.0
C474 C 0.95449 0.45791 0.26883 0.0
C475 C 0.9865 0.44701 0.2797 0.0
C476 C 0.9097 0.42175 0.27256 0.0
C477 C 0.96334 0.47117 0.24043 0.0
C478 C 0.97292 0.51197 0.23728 0.0
C479 C 0.9795 0.53028 0.21262 0.0
C480 C 0.97637 0.50628 0.19061 0.0
C481 C 0.96738 0.46474 0.1935 0.0
C482 C 0.96093 0.44708 0.21872 0.0
H483 H 0.47093 0.48477 0.30443 0.0
H484 H 0.51266 0.39635 0.28995 0.0
H485 H 0.51108 0.40701 0.24228 0.0
H486 H 0.40021 0.45599 0.2489 0.0
H487 H 0.41311 0.5088 0.24258 0.0
H488 H 0.41649 0.49304 0.27539 0.0
H489 H 0.49342 0.55242 0.27776 0.0
H490 H 0.49033 0.56775 0.24476 0.0
H491 H 0.52988 0.5552 0.25334 0.0
H492 H 0.50434 0.42674 0.19626 0.0
H493 H 0.49592 0.45671 0.15506 0.0
H494 H 0.45767 0.53143 0.19961 0.0
C495 C 0.47875 0.46691 0.29122 0.0
C496 C 0.49103 0.43902 0.30082 0.0
C497 C 0.50295 0.4177 0.28294 0.0
C498 C 0.50202 0.42344 0.25587 0.0
C499 C 0.48945 0.4509 0.24701 0.0
C500 C 0.47817 0.47243 0.26413 0.0
C501 C 0.46714 0.5011 0.24951 0.0
C502 C 0.42152 0.48898 0.25439 0.0
C503 C 0.49698 0.54682 0.25678 0.0
C504 C 0.47382 0.49217 0.22153 0.0
C505 C 0.48659 0.46306 0.22052 0.0
C506 C 0.4945 0.44968 0.19682 0.0
C507 C 0.48953 0.46676 0.17354 0.0
C508 C 0.47711 0.49711 0.17417 0.0
C509 C 0.46871 0.5095 0.19851 0.0
H510 H 0.49245 0.00294 0.20312 0.0
H511 H 0.54656 0.13562 0.19103 0.0
H512 H 0.56951 0.14826 0.23721 0.0
H513 H 0.45392 0.00021 0.26882 0.0
H514 H 0.46581 0.9614 0.28022 0.0
H515 H 0.45349 0.96266 0.24624 0.0
H516 H 0.5231 0.9677 0.23259 0.0
H517 H 0.53579 0.96649 0.2665 0.0
H518 H 0.57131 0.00875 0.24581 0.0
H519 H 0.58587 0.14647 0.28465 0.0
H520 H 0.59807 0.13062 0.32965 0.0
H521 H 0.53126 0.99895 0.31127 0.0
C522 C 0.50824 0.03455 0.21034 0.0
C523 C 0.51689 0.06827 0.19368 0.0
C524 C 0.53946 0.10935 0.20354 0.0
C525 C 0.55244 0.11682 0.22974 0.0
C526 C 0.54284 0.08286 0.24577 0.0
C527 C 0.52144 0.04254 0.23645 0.0
C528 C 0.51594 0.01166 0.25766 0.0
C529 C 0.46953 0.98226 0.26359 0.0
C530 C 0.53785 0.98722 0.25019 0.0
C531 C 0.53771 0.04097 0.28031 0.0
C532 C 0.55286 0.08187 0.27304 0.0
C533 C 0.57425 0.11457 0.29056 0.0
C534 C 0.58088 0.10525 0.31608 0.0
C535 C 0.56645 0.06363 0.3238 0.0
C536 C 0.54399 0.03113 0.30573 0.0
H537 H 0.07539 0.58173 0.82168 0.0
H538 H 0.07607 0.67626 0.77161 0.0
H539 H 0.05359 0.6275 0.73416 0.0
H540 H 0.1146 0.5385 0.77319 0.0
H541 H 0.08234 0.4859 0.78454 0.0
H542 H 0.09923 0.52864 0.80711 0.0
H543 H 0.02247 0.50307 0.81981 0.0
H544 H 0.00535 0.46026 0.79732 0.0
H545 H 0.98538 0.49546 0.79454 0.0
H546 H 0.02977 0.56755 0.70243 0.0
H547 H 0.0054 0.50104 0.67911 0.0
H548 H 0.02118 0.44637 0.75024 0.0
C549 C 0.07102 0.59222 0.80279 0.0
C550 C 0.07656 0.63241 0.79961 0.0
C551 C 0.07059 0.6451 0.77464 0.0
C552 C 0.05836 0.61781 0.7532 0.0
C553 C 0.05254 0.57811 0.7571 0.0
C554 C 0.05873 0.56539 0.78128 0.0
C555 C 0.04951 0.52087 0.7805 0.0
C556 C 0.08876 0.51835 0.7867 0.0
C557 C 0.01354 0.4933 0.79914 0.0
C558 C 0.03681 0.51034 0.75214 0.0
C559 C 0.03899 0.5438 0.73891 0.0
C560 C 0.02809 0.54119 0.71258 0.0
C561 C 0.01429 0.50327 0.6995 0.0
C562 C 0.01136 0.46843 0.71282 0.0
C563 C 0.02312 0.47236 0.73944 0.0
H564 H 0.50736 0.62736 0.64886 0.0
H565 H 0.62863 0.70777 0.68324 0.0
H566 H 0.60966 0.66036 0.7212 0.0
H567 H 0.4487 0.59845 0.71055 0.0
H568 H 0.41408 0.54595 0.69981 0.0
H569 H 0.43655 0.5876 0.67626 0.0
H570 H 0.46639 0.54832 0.65029 0.0
H571 H 0.44404 0.50662 0.67372 0.0
H572 H 0.49906 0.53244 0.66686 0.0
H573 H 0.57867 0.60152 0.75397 0.0
H574 H 0.53844 0.53618 0.77879 0.0
H575 H 0.43691 0.49564 0.72316 0.0
C576 C 0.52974 0.63527 0.66454 0.0
C577 C 0.56981 0.6707 0.66288 0.0
C578 C 0.5983 0.67999 0.6837 0.0
C579 C 0.58757 0.65356 0.7055 0.0
C580 C 0.54808 0.6183 0.70624 0.0
C581 C 0.51953 0.60928 0.68636 0.0
C582 C 0.47984 0.5686 0.69124 0.0
C583 C 0.4426 0.57559 0.69468 0.0
C584 C 0.4719 0.53715 0.66923 0.0
C585 C 0.49078 0.55564 0.71673 0.0
C586 C 0.53011 0.58483 0.7252 0.0
C587 C 0.54765 0.57865 0.74767 0.0
C588 C 0.52457 0.54141 0.76162 0.0
C589 C 0.48443 0.51079 0.75301 0.0
C590 C 0.46729 0.51851 0.73046 0.0
H591 H 0.48888 0.85058 0.84343 0.0
H592 H 0.59444 0.86881 0.79676 0.0
H593 H 0.56668 0.88851 0.75877 0.0
H594 H 0.41167 0.80681 0.79118 0.0
H595 H 0.38398 0.83225 0.80247 0.0
H596 H 0.41155 0.81811 0.82552 0.0
H597 H 0.45323 0.89448 0.84156 0.0
H598 H 0.42581 0.90883 0.8186 0.0
H599 H 0.4819 0.93536 0.81816 0.0
H600 H 0.52842 0.90899 0.72648 0.0
H601 H 0.48325 0.92909 0.70261 0.0
H602 H 0.40222 0.89589 0.77053 0.0
C603 C 0.50592 0.85832 0.82513 0.0
C604 C 0.54425 0.85909 0.82314 0.0
C605 C 0.56574 0.86944 0.79893 0.0
C606 C 0.54992 0.88011 0.77717 0.0
C607 C 0.51239 0.87984 0.77994 0.0
C608 C 0.4906 0.86905 0.80329 0.0
C609 C 0.45173 0.8725 0.80148 0.0
C610 C 0.41241 0.82988 0.80539 0.0
C611 C 0.45329 0.90471 0.82111 0.0
C612 C 0.45527 0.88743 0.77354 0.0
C613 C 0.4903 0.89124 0.76136 0.0
C614 C 0.50073 0.90582 0.73576 0.0
C615 C 0.47488 0.91717 0.72237 0.0
C616 C 0.43909 0.91398 0.73464 0.0
C617 C 0.42913 0.89846 0.76048 0.0
loop_
_geom_bond_atom_site_label_1
_geom_bond_atom_site_label_2
_geom_bond_distance
_geom_bond_site_symmetry_2
_ccdc_geom_bond_type
O0 Cd1 2.300 1_655 S
O0 C7 1.275 . S
Cd1 O0 2.300 1_455 S
Cd1 O9 2.381 1_455 S
Cd1 O10 2.378 . S
O2 Cd3 2.385 . S
O2 C7 1.255 1_455 S
Cd3 O2 2.385 . S
Cd3 O4 2.317 . S
O4 Cd3 2.317 . S
O4 C5 1.232 . S
C5 O4 1.232 . S
C5 O6 1.218 . S
O6 C5 1.218 . S
C7 O0 1.275 . S
C7 O2 1.255 1_655 S
C8 O9 1.258 . S
C8 O10 1.256 1_655 S
O9 Cd1 2.381 1_655 S
O9 C8 1.258 . S
O10 Cd1 2.378 . S
O10 C8 1.256 1_455 S
O11 Cd12 2.300 . S
O11 C18 1.275 . S
Cd12 O11 2.300 . S
Cd12 O20 2.381 . S
Cd12 O21 2.378 . S
O13 Cd14 2.385 . S
O13 C18 1.255 . S
Cd14 O13 2.385 . S
Cd14 O15 2.317 . S
O15 Cd14 2.317 . S
O15 C16 1.232 . S
C16 O15 1.232 . S
C16 O17 1.218 . S
O17 C16 1.218 . S
C18 O11 1.275 . S
C18 O13 1.255 . S
C19 O20 1.258 . S
C19 O21 1.256 . S
O20 Cd12 2.381 . S
O20 C19 1.258 . S
O21 Cd12 2.378 . S
O21 C19 1.256 . S
O22 Cd23 2.300 1_545 S
O22 C29 1.275 . S
Cd23 O22 2.300 1_565 S
Cd23 O31 2.381 1_565 S
Cd23 O32 2.378 . S
O24 Cd25 2.385 . S
O24 C29 1.255 1_565 S
Cd25 O24 2.385 . S
Cd25 O26 2.317 . S
O26 Cd25 2.317 . S
O26 C27 1.232 . S
C27 O26 1.232 . S
C27 O28 1.218 . S
O28 C27 1.218 . S
C29 O22 1.275 . S
C29 O24 1.255 1_545 S
C30 O31 1.258 . S
C30 O32 1.256 1_545 S
O31 Cd23 2.381 1_545 S
O31 C30 1.258 . S
O32 Cd23 2.378 . S
O32 C30 1.256 1_565 S
O33 Cd34 2.300 1_545 S
O33 C40 1.275 . S
Cd34 O33 2.300 1_565 S
Cd34 O42 2.381 1_565 S
Cd34 O43 2.378 . S
O35 Cd36 2.385 . S
O35 C40 1.255 1_565 S
Cd36 O35 2.385 . S
Cd36 O37 2.317 . S
O37 Cd36 2.317 . S
O37 C38 1.232 . S
C38 O37 1.232 . S
C38 O39 1.218 . S
O39 C38 1.218 . S
C40 O33 1.275 . S
C40 O35 1.255 1_545 S
C41 O42 1.258 . S
C41 O43 1.256 1_545 S
O42 Cd34 2.381 1_545 S
O42 C41 1.258 . S
O43 Cd34 2.378 . S
O43 C41 1.256 1_565 S
O44 Cd45 2.300 1_655 S
O44 C51 1.275 . S
Cd45 O44 2.300 1_455 S
Cd45 O53 2.381 1_455 S
Cd45 O54 2.378 . S
O46 Cd47 2.385 . S
O46 C51 1.255 1_455 S
Cd47 O46 2.385 . S
Cd47 O48 2.317 . S
O48 Cd47 2.317 . S
O48 C49 1.232 . S
C49 O48 1.232 . S
C49 O50 1.218 . S
O50 C49 1.218 . S
C51 O44 1.275 . S
C51 O46 1.255 1_655 S
C52 O53 1.258 . S
C52 O54 1.256 1_655 S
O53 Cd45 2.381 1_655 S
O53 C52 1.258 . S
O54 Cd45 2.378 . S
O54 C52 1.256 1_455 S
O55 Cd56 2.300 . S
O55 C62 1.275 . S
Cd56 O55 2.300 . S
Cd56 O64 2.381 . S
Cd56 O65 2.378 . S
O57 Cd58 2.385 . S
O57 C62 1.255 . S
Cd58 O57 2.385 . S
Cd58 O59 2.317 . S
O59 Cd58 2.317 . S
O59 C60 1.232 . S
C60 O59 1.232 . S
C60 O61 1.218 . S
O61 C60 1.218 . S
C62 O55 1.275 . S
C62 O57 1.255 . S
C63 O64 1.258 . S
C63 O65 1.256 . S
O64 Cd56 2.381 . S
O64 C63 1.258 . S
O65 Cd56 2.378 . S
O65 C63 1.256 . S
O66 Cd67 2.300 . S
O66 C73 1.275 . S
Cd67 O66 2.300 . S
Cd67 O75 2.381 . S
Cd67 O76 2.378 . S
O68 Cd69 2.385 . S
O68 C73 1.255 . S
Cd69 O68 2.385 . S
Cd69 O70 2.317 1_455 S
O70 Cd69 2.317 1_655 S
O70 C71 1.232 . S
C71 O70 1.232 . S
C71 O72 1.218 . S
O72 C71 1.218 . S
C73 O66 1.275 . S
C73 O68 1.255 . S
C74 O75 1.258 . S
C74 O76 1.256 . S
O75 Cd67 2.381 . S
O75 C74 1.258 . S
O76 Cd67 2.378 . S
O76 C74 1.256 . S
O77 Cd78 2.300 . S
O77 C84 1.275 . S
Cd78 O77 2.300 . S
Cd78 O86 2.381 . S
Cd78 O87 2.378 . S
O79 Cd80 2.385 . S
O79 C84 1.255 . S
Cd80 O79 2.385 . S
Cd80 O81 2.317 . S
O81 Cd80 2.317 . S
O81 C82 1.232 . S
C82 O81 1.232 . S
C82 O83 1.218 . S
O83 C82 1.218 . S
C84 O77 1.275 . S
C84 O79 1.255 . S
C85 O86 1.258 . S
C85 O87 1.256 . S
O86 Cd78 2.381 . S
O86 C85 1.258 . S
O87 Cd78 2.378 . S
O87 C85 1.256 . S
O88 Cd89 2.300 . S
O88 C95 1.275 . S
Cd89 O88 2.300 . S
Cd89 O97 2.381 . S
Cd89 O98 2.378 . S
O90 Cd91 2.385 . S
O90 C95 1.255 . S
Cd91 O90 2.385 . S
Cd91 O92 2.317 1_565 S
O92 Cd91 2.317 1_545 S
O92 C93 1.232 . S
C93 O92 1.232 . S
C93 O94 1.218 . S
O94 C93 1.218 . S
C95 O88 1.275 . S
C95 O90 1.255 . S
C96 O97 1.258 . S
C96 O98 1.256 . S
O97 Cd89 2.381 . S
O97 C96 1.258 . S
O98 Cd89 2.378 . S
O98 C96 1.256 . S
O99 Cd100 2.300 . S
O99 C106 1.275 . S
Cd100 O99 2.300 . S
Cd100 O108 2.381 . S
Cd100 O109 2.378 . S
O101 Cd102 2.385 . S
O101 C106 1.255 . S
Cd102 O101 2.385 . S
Cd102 O103 2.317 1_565 S
O103 Cd102 2.317 1_545 S
O103 C104 1.232 . S
C104 O103 1.232 . S
C104 O105 1.218 . S
O105 C104 1.218 . S
C106 O99 1.275 . S
C106 O101 1.255 . S
C107 O108 1.258 . S
C107 O109 1.256 . S
O108 Cd100 2.381 . S
O108 C107 1.258 . S
O109 Cd100 2.378 . S
O109 C107 1.256 . S
O110 Cd111 2.300 . S
O110 C117 1.275 . S
Cd111 O110 2.300 . S
Cd111 O119 2.381 . S
Cd111 O120 2.378 . S
O112 Cd113 2.385 . S
O112 C117 1.255 . S
Cd113 O112 2.385 . S
Cd113 O114 2.317 1_455 S
O114 Cd113 2.317 1_655 S
O114 C115 1.232 . S
C115 O114 1.232 . S
C115 O116 1.218 . S
O116 C115 1.218 . S
C117 O110 1.275 . S
C117 O112 1.255 . S
C118 O119 1.258 . S
C118 O120 1.256 . S
O119 Cd111 2.381 . S
O119 C118 1.258 . S
O120 Cd111 2.378 . S
O120 C118 1.256 . S
O121 Cd122 2.300 . S
O121 C128 1.275 . S
Cd122 O121 2.300 . S
Cd122 O130 2.381 . S
Cd122 O131 2.378 . S
O123 Cd124 2.385 . S
O123 C128 1.255 . S
Cd124 O123 2.385 . S
Cd124 O125 2.317 . S
O125 Cd124 2.317 . S
O125 C126 1.232 . S
C126 O125 1.232 . S
C126 O127 1.218 . S
O127 C126 1.218 . S
C128 O121 1.275 . S
C128 O123 1.255 . S
C129 O130 1.258 . S
C129 O131 1.256 . S
O130 Cd122 2.381 . S
O130 C129 1.258 . S
O131 Cd122 2.378 . S
O131 C129 1.256 . S
H132 C144 0.930 . S
H133 C146 0.930 . S
H134 C147 0.930 . S
H135 C151 0.959 . S
H136 C151 0.959 . S
H137 C151 0.961 . S
H138 C152 0.960 . S
H139 C152 0.961 . S
H140 C152 0.959 . S
H141 C155 0.929 . S
H142 C156 0.931 . S
H143 C158 0.930 . S
C144 H132 0.930 . S
C144 C145 1.399 . S
C144 C149 1.399 . S
C145 C144 1.399 . S
C145 C146 1.376 . S
C146 H133 0.930 . S
C146 C145 1.376 . S
C146 C147 1.388 . S
C147 H134 0.930 . S
C147 C146 1.388 . S
C147 C148 1.390 . S
C148 C147 1.390 . S
C148 C149 1.394 . S
C148 C154 1.465 . S
C149 C144 1.399 . S
C149 C148 1.394 . S
C149 C150 1.516 . S
C150 C149 1.516 . S
C150 C151 1.502 . S
C150 C152 1.561 . S
C150 C153 1.526 . S
C151 H135 0.959 . S
C151 H136 0.959 . S
C151 H137 0.961 . S
C151 C150 1.502 . S
C152 H138 0.960 . S
C152 H139 0.961 . S
C152 H140 0.959 . S
C152 C150 1.561 . S
C153 C150 1.526 . S
C153 C154 1.396 . S
C153 C158 1.390 . S
C154 C148 1.465 . S
C154 C153 1.396 . S
C154 C155 1.399 . S
C155 H141 0.929 . S
C155 C154 1.399 . S
C155 C156 1.385 . S
C156 H142 0.931 . S
C156 C155 1.385 . S
C156 C157 1.389 . S
C157 C156 1.389 . S
C157 C158 1.387 . S
C158 H143 0.930 . S
C158 C153 1.390 . S
C158 C157 1.387 . S
H159 C171 0.930 . S
H160 C173 0.930 . S
H161 C174 0.930 . S
H162 C178 0.959 . S
H163 C178 0.959 . S
H164 C178 0.961 . S
H165 C179 0.960 . S
H166 C179 0.961 . S
H167 C179 0.959 . S
H168 C182 0.929 . S
H169 C183 0.931 . S
H170 C185 0.930 . S
C171 H159 0.930 . S
C171 C172 1.399 . S
C171 C176 1.399 . S
C172 C171 1.399 . S
C172 C173 1.376 . S
C173 H160 0.930 . S
C173 C172 1.376 . S
C173 C174 1.388 . S
C174 H161 0.930 . S
C174 C173 1.388 . S
C174 C175 1.390 . S
C175 C174 1.390 . S
C175 C176 1.394 . S
C175 C181 1.465 . S
C176 C171 1.399 . S
C176 C175 1.394 . S
C176 C177 1.516 . S
C177 C176 1.516 . S
C177 C178 1.502 . S
C177 C179 1.561 . S
C177 C180 1.526 . S
C178 H162 0.959 . S
C178 H163 0.959 . S
C178 H164 0.961 . S
C178 C177 1.502 . S
C179 H165 0.960 . S
C179 H166 0.961 . S
C179 H167 0.959 . S
C179 C177 1.561 . S
C180 C177 1.526 . S
C180 C181 1.396 . S
C180 C185 1.390 . S
C181 C175 1.465 . S
C181 C180 1.396 . S
C181 C182 1.399 . S
C182 H168 0.929 . S
C182 C181 1.399 . S
C182 C183 1.385 . S
C183 H169 0.931 . S
C183 C182 1.385 . S
C183 C184 1.389 . S
C184 C183 1.389 . S
C184 C185 1.387 . S
C185 H170 0.930 . S
C185 C180 1.390 . S
C185 C184 1.387 . S
H186 C198 0.930 . S
H187 C200 0.930 . S
H188 C201 0.930 . S
H189 C205 0.959 . S
H190 C205 0.959 . S
H191 C205 0.961 . S
H192 C206 0.960 . S
H193 C206 0.961 . S
H194 C206 0.959 . S
H195 C209 0.929 . S
H196 C210 0.931 . S
H197 C212 0.930 . S
C198 H186 0.930 . S
C198 C199 1.399 . S
C198 C203 1.399 . S
C199 C198 1.399 . S
C199 C200 1.376 . S
C200 H187 0.930 . S
C200 C199 1.376 . S
C200 C201 1.388 . S
C201 H188 0.930 . S
C201 C200 1.388 . S
C201 C202 1.390 . S
C202 C201 1.390 . S
C202 C203 1.394 . S
C202 C208 1.465 . S
C203 C198 1.399 . S
C203 C202 1.394 . S
C203 C204 1.516 . S
C204 C203 1.516 . S
C204 C205 1.502 . S
C204 C206 1.561 . S
C204 C207 1.526 . S
C205 H189 0.959 . S
C205 H190 0.959 . S
C205 H191 0.961 . S
C205 C204 1.502 . S
C206 H192 0.960 . S
C206 H193 0.961 . S
C206 H194 0.959 . S
C206 C204 1.561 . S
C207 C204 1.526 . S
C207 C208 1.396 . S
C207 C212 1.390 . S
C208 C202 1.465 . S
C208 C207 1.396 . S
C208 C209 1.399 . S
C209 H195 0.929 . S
C209 C208 1.399 . S
C209 C210 1.385 . S
C210 H196 0.931 . S
C210 C209 1.385 . S
C210 C211 1.389 . S
C211 C210 1.389 . S
C211 C212 1.387 . S
C212 H197 0.930 . S
C212 C207 1.390 . S
C212 C211 1.387 . S
H213 C225 0.930 . S
H214 C227 0.930 . S
H215 C228 0.930 . S
H216 C232 0.959 . S
H217 C232 0.959 . S
H218 C232 0.961 . S
H219 C233 0.960 . S
H220 C233 0.961 . S
H221 C233 0.959 . S
H222 C236 0.929 . S
H223 C237 0.931 . S
H224 C239 0.930 . S
C225 H213 0.930 . S
C225 C226 1.399 . S
C225 C230 1.399 . S
C226 C225 1.399 . S
C226 C227 1.376 . S
C227 H214 0.930 . S
C227 C226 1.376 . S
C227 C228 1.388 . S
C228 H215 0.930 . S
C228 C227 1.388 . S
C228 C229 1.390 . S
C229 C228 1.390 . S
C229 C230 1.394 . S
C229 C235 1.465 . S
C230 C225 1.399 . S
C230 C229 1.394 . S
C230 C231 1.516 . S
C231 C230 1.516 . S
C231 C232 1.502 . S
C231 C233 1.561 . S
C231 C234 1.526 . S
C232 H216 0.959 . S
C232 H217 0.959 . S
C232 H218 0.961 . S
C232 C231 1.502 . S
C233 H219 0.960 . S
C233 H220 0.961 . S
C233 H221 0.959 . S
C233 C231 1.561 . S
C234 C231 1.526 . S
C234 C235 1.396 . S
C234 C239 1.390 . S
C235 C229 1.465 . S
C235 C234 1.396 . S
C235 C236 1.399 . S
C236 H222 0.929 . S
C236 C235 1.399 . S
C236 C237 1.385 . S
C237 H223 0.931 . S
C237 C236 1.385 . S
C237 C238 1.389 . S
C238 C237 1.389 . S
C238 C239 1.387 . S
C239 H224 0.930 . S
C239 C234 1.390 . S
C239 C238 1.387 . S
H240 C252 0.930 . S
H241 C254 0.930 . S
H242 C255 0.930 . S
H243 C259 0.959 . S
H244 C259 0.959 . S
H245 C259 0.961 . S
H246 C260 0.960 . S
H247 C260 0.961 . S
H248 C260 0.959 . S
H249 C263 0.929 . S
H250 C264 0.931 . S
H251 C266 0.930 . S
C252 H240 0.930 . S
C252 C253 1.399 . S
C252 C257 1.399 . S
C253 C252 1.399 . S
C253 C254 1.376 . S
C254 H241 0.930 . S
C254 C253 1.376 . S
C254 C255 1.388 . S
C255 H242 0.930 . S
C255 C254 1.388 . S
C255 C256 1.390 . S
C256 C255 1.390 . S
C256 C257 1.394 . S
C256 C262 1.465 . S
C257 C252 1.399 . S
C257 C256 1.394 . S
C257 C258 1.516 . S
C258 C257 1.516 . S
C258 C259 1.502 . S
C258 C260 1.561 . S
C258 C261 1.526 . S
C259 H243 0.959 . S
C259 H244 0.959 . S
C259 H245 0.961 . S
C259 C258 1.502 . S
C260 H246 0.960 . S
C260 H247 0.961 . S
C260 H248 0.959 . S
C260 C258 1.561 . S
C261 C258 1.526 . S
C261 C262 1.396 . S
C261 C266 1.390 . S
C262 C256 1.465 . S
C262 C261 1.396 . S
C262 C263 1.399 . S
C263 H249 0.929 . S
C263 C262 1.399 . S
C263 C264 1.385 . S
C264 H250 0.931 . S
C264 C263 1.385 . S
C264 C265 1.389 . S
C265 C264 1.389 . S
C265 C266 1.387 . S
C266 H251 0.930 . S
C266 C261 1.390 . S
C266 C265 1.387 . S
H267 C279 0.930 . S
H268 C281 0.930 . S
H269 C282 0.930 . S
H270 C286 0.959 . S
H271 C286 0.959 . S
H272 C286 0.961 . S
H273 C287 0.960 . S
H274 C287 0.961 . S
H275 C287 0.959 . S
H276 C290 0.929 . S
H277 C291 0.931 . S
H278 C293 0.930 . S
C279 H267 0.930 . S
C279 C280 1.399 . S
C279 C284 1.399 . S
C280 C279 1.399 . S
C280 C281 1.376 . S
C281 H268 0.930 . S
C281 C280 1.376 . S
C281 C282 1.388 . S
C282 H269 0.930 . S
C282 C281 1.388 . S
C282 C283 1.390 . S
C283 C282 1.390 . S
C283 C284 1.394 . S
C283 C289 1.465 . S
C284 C279 1.399 . S
C284 C283 1.394 . S
C284 C285 1.516 . S
C285 C284 1.516 . S
C285 C286 1.502 . S
C285 C287 1.561 . S
C285 C288 1.526 . S
C286 H270 0.959 . S
C286 H271 0.959 . S
C286 H272 0.961 . S
C286 C285 1.502 . S
C287 H273 0.960 . S
C287 H274 0.961 . S
C287 H275 0.959 . S
C287 C285 1.561 . S
C288 C285 1.526 . S
C288 C289 1.396 . S
C288 C293 1.390 . S
C289 C283 1.465 . S
C289 C288 1.396 . S
C289 C290 1.399 . S
C290 H276 0.929 . S
C290 C289 1.399 . S
C290 C291 1.385 . S
C291 H277 0.931 . S
C291 C290 1.385 . S
C291 C292 1.389 . S
C292 C291 1.389 . S
C292 C293 1.387 . S
C293 H278 0.930 . S
C293 C288 1.390 . S
C293 C292 1.387 . S
H294 C306 0.930 . S
H295 C308 0.930 . S
H296 C309 0.930 . S
H297 C313 0.959 . S
H298 C313 0.959 . S
H299 C313 0.961 . S
H300 C314 0.960 . S
H301 C314 0.961 . S
H302 C314 0.959 . S
H303 C317 0.929 1_554 S
H304 C318 0.931 . S
H305 C320 0.930 . S
C306 H294 0.930 . S
C306 C307 1.399 . S
C306 C311 1.399 . S
C307 C306 1.399 . S
C307 C308 1.376 1_655 S
C308 H295 0.930 . S
C308 C307 1.376 1_455 S
C308 C309 1.388 . S
C309 H296 0.930 . S
C309 C308 1.388 . S
C309 C310 1.390 . S
C310 C309 1.390 . S
C310 C311 1.394 1_455 S
C310 C316 1.465 1_554 S
C311 C306 1.399 . S
C311 C310 1.394 1_655 S
C311 C312 1.516 1_554 S
C312 C311 1.516 1_556 S
C312 C313 1.502 . S
C312 C314 1.561 . S
C312 C315 1.526 . S
C313 H297 0.959 . S
C313 H298 0.959 . S
C313 H299 0.961 . S
C313 C312 1.502 . S
C314 H300 0.960 . S
C314 H301 0.961 . S
C314 H302 0.959 . S
C314 C312 1.561 . S
C315 C312 1.526 . S
C315 C316 1.396 1_655 S
C315 C320 1.390 . S
C316 C310 1.465 1_556 S
C316 C315 1.396 1_455 S
C316 C317 1.399 . S
C317 H303 0.929 1_556 S
C317 C316 1.399 . S
C317 C318 1.385 . S
C318 H304 0.931 . S
C318 C317 1.385 . S
C318 C319 1.389 . S
C319 C318 1.389 . S
C319 C320 1.387 1_455 S
C320 H305 0.930 . S
C320 C315 1.390 . S
C320 C319 1.387 1_655 S
H321 C333 0.930 . S
H322 C335 0.930 . S
H323 C336 0.930 1_554 S
H324 C340 0.959 . S
H325 C340 0.959 . S
H326 C340 0.961 . S
H327 C341 0.960 . S
H328 C341 0.961 . S
H329 C341 0.959 . S
H330 C344 0.929 . S
H331 C345 0.931 . S
H332 C347 0.930 . S
C333 H321 0.930 . S
C333 C334 1.399 . S
C333 C338 1.399 . S
C334 C333 1.399 . S
C334 C335 1.376 . S
C335 H322 0.930 . S
C335 C334 1.376 . S
C335 C336 1.388 . S
C336 H323 0.930 1_556 S
C336 C335 1.388 . S
C336 C337 1.390 . S
C337 C336 1.390 . S
C337 C338 1.394 . S
C337 C343 1.465 1_556 S
C338 C333 1.399 . S
C338 C337 1.394 . S
C338 C339 1.516 . S
C339 C338 1.516 . S
C339 C340 1.502 . S
C339 C341 1.561 . S
C339 C342 1.526 1_556 S
C340 H324 0.959 . S
C340 H325 0.959 . S
C340 H326 0.961 . S
C340 C339 1.502 . S
C341 H327 0.960 . S
C341 H328 0.961 . S
C341 H329 0.959 . S
C341 C339 1.561 . S
C342 C339 1.526 1_554 S
C342 C343 1.396 . S
C342 C347 1.390 . S
C343 C337 1.465 1_554 S
C343 C342 1.396 . S
C343 C344 1.399 . S
C344 H330 0.929 . S
C344 C343 1.399 . S
C344 C345 1.385 . S
C345 H331 0.931 . S
C345 C344 1.385 . S
C345 C346 1.389 . S
C346 C345 1.389 . S
C346 C347 1.387 . S
C347 H332 0.930 . S
C347 C342 1.390 . S
C347 C346 1.387 . S
H348 C360 0.930 . S
H349 C362 0.930 . S
H350 C363 0.930 . S
H351 C367 0.959 . S
H352 C367 0.959 . S
H353 C367 0.961 . S
H354 C368 0.960 1_554 S
H355 C368 0.961 . S
H356 C368 0.959 1_554 S
H357 C371 0.929 1_554 S
H358 C372 0.931 . S
H359 C374 0.930 . S
C360 H348 0.930 . S
C360 C361 1.399 . S
C360 C365 1.399 . S
C361 C360 1.399 . S
C361 C362 1.376 1_545 S
C362 H349 0.930 . S
C362 C361 1.376 1_565 S
C362 C363 1.388 . S
C363 H350 0.930 . S
C363 C362 1.388 . S
C363 C364 1.390 . S
C364 C363 1.390 . S
C364 C365 1.394 1_565 S
C364 C370 1.465 1_554 S
C365 C360 1.399 . S
C365 C364 1.394 1_545 S
C365 C366 1.516 1_554 S
C366 C365 1.516 1_556 S
C366 C367 1.502 . S
C366 C368 1.561 . S
C366 C369 1.526 . S
C367 H351 0.959 . S
C367 H352 0.959 . S
C367 H353 0.961 . S
C367 C366 1.502 . S
C368 H354 0.960 1_556 S
C368 H355 0.961 . S
C368 H356 0.959 1_556 S
C368 C366 1.561 . S
C369 C366 1.526 . S
C369 C370 1.396 1_545 S
C369 C374 1.390 . S
C370 C364 1.465 1_556 S
C370 C369 1.396 1_565 S
C370 C371 1.399 . S
C371 H357 0.929 1_556 S
C371 C370 1.399 . S
C371 C372 1.385 . S
C372 H358 0.931 . S
C372 C371 1.385 . S
C372 C373 1.389 . S
C373 C372 1.389 . S
C373 C374 1.387 1_565 S
C374 H359 0.930 . S
C374 C369 1.390 . S
C374 C373 1.387 1_545 S
H375 C387 0.930 . S
H376 C389 0.930 . S
H377 C390 0.930 . S
H378 C394 0.959 . S
H379 C394 0.959 . S
H380 C394 0.961 . S
H381 C395 0.960 . S
H382 C395 0.961 . S
H383 C395 0.959 . S
H384 C398 0.929 . S
H385 C399 0.931 . S
H386 C401 0.930 . S
C387 H375 0.930 . S
C387 C388 1.399 . S
C387 C392 1.399 . S
C388 C387 1.399 . S
C388 C389 1.376 1_565 S
C389 H376 0.930 . S
C389 C388 1.376 1_545 S
C389 C390 1.388 . S
C390 H377 0.930 . S
C390 C389 1.388 . S
C390 C391 1.390 . S
C391 C390 1.390 . S
C391 C392 1.394 1_545 S
C391 C397 1.465 . S
C392 C387 1.399 . S
C392 C391 1.394 1_565 S
C392 C393 1.516 . S
C393 C392 1.516 . S
C393 C394 1.502 . S
C393 C395 1.561 . S
C393 C396 1.526 . S
C394 H378 0.959 . S
C394 H379 0.959 . S
C394 H380 0.961 . S
C394 C393 1.502 . S
C395 H381 0.960 . S
C395 H382 0.961 . S
C395 H383 0.959 . S
C395 C393 1.561 . S
C396 C393 1.526 . S
C396 C397 1.396 1_565 S
C396 C401 1.390 . S
C397 C391 1.465 . S
C397 C396 1.396 1_545 S
C397 C398 1.399 . S
C398 H384 0.929 . S
C398 C397 1.399 . S
C398 C399 1.385 . S
C399 H385 0.931 . S
C399 C398 1.385 . S
C399 C400 1.389 . S
C400 C399 1.389 . S
C400 C401 1.387 1_545 S
C401 H386 0.930 . S
C401 C396 1.390 . S
C401 C400 1.387 1_565 S
H402 C414 0.930 . S
H403 C416 0.930 . S
H404 C417 0.930 . S
H405 C421 0.959 . S
H406 C421 0.959 . S
H407 C421 0.961 . S
H408 C422 0.960 . S
H409 C422 0.961 . S
H410 C422 0.959 . S
H411 C425 0.929 . S
H412 C426 0.931 . S
H413 C428 0.930 . S
C414 H402 0.930 . S
C414 C415 1.399 . S
C414 C419 1.399 . S
C415 C414 1.399 . S
C415 C416 1.376 1_455 S
C416 H403 0.930 . S
C416 C415 1.376 1_655 S
C416 C417 1.388 . S
C417 H404 0.930 . S
C417 C416 1.388 . S
C417 C418 1.390 . S
C418 C417 1.390 . S
C418 C419 1.394 1_655 S
C418 C424 1.465 . S
C419 C414 1.399 . S
C419 C418 1.394 1_455 S
C419 C420 1.516 . S
C420 C419 1.516 . S
C420 C421 1.502 . S
C420 C422 1.561 . S
C420 C423 1.526 . S
C421 H405 0.959 . S
C421 H406 0.959 . S
C421 H407 0.961 . S
C421 C420 1.502 . S
C422 H408 0.960 . S
C422 H409 0.961 . S
C422 H410 0.959 . S
C422 C420 1.561 . S
C423 C420 1.526 . S
C423 C424 1.396 1_455 S
C423 C428 1.390 . S
C424 C418 1.465 . S
C424 C423 1.396 1_655 S
C424 C425 1.399 . S
C425 H411 0.929 . S
C425 C424 1.399 . S
C425 C426 1.385 . S
C426 H412 0.931 . S
C426 C425 1.385 . S
C426 C427 1.389 . S
C427 C426 1.389 . S
C427 C428 1.387 1_655 S
C428 H413 0.930 . S
C428 C423 1.390 . S
C428 C427 1.387 1_455 S
H429 C441 0.930 . S
H430 C443 0.930 . S
H431 C444 0.930 . S
H432 C448 0.959 . S
H433 C448 0.959 . S
H434 C448 0.961 . S
H435 C449 0.960 . S
H436 C449 0.961 . S
H437 C449 0.959 . S
H438 C452 0.929 . S
H439 C453 0.931 . S
H440 C455 0.930 . S
C441 H429 0.930 . S
C441 C442 1.399 . S
C441 C446 1.399 . S
C442 C441 1.399 . S
C442 C443 1.376 . S
C443 H430 0.930 . S
C443 C442 1.376 . S
C443 C444 1.388 . S
C444 H431 0.930 . S
C444 C443 1.388 . S
C444 C445 1.390 . S
C445 C444 1.390 . S
C445 C446 1.394 . S
C445 C451 1.465 . S
C446 C441 1.399 . S
C446 C445 1.394 . S
C446 C447 1.516 . S
C447 C446 1.516 . S
C447 C448 1.502 . S
C447 C449 1.561 . S
C447 C450 1.526 . S
C448 H432 0.959 . S
C448 H433 0.959 . S
C448 H434 0.961 . S
C448 C447 1.502 . S
C449 H435 0.960 . S
C449 H436 0.961 . S
C449 H437 0.959 . S
C449 C447 1.561 . S
C450 C447 1.526 . S
C450 C451 1.396 . S
C450 C455 1.390 . S
C451 C445 1.465 . S
C451 C450 1.396 . S
C451 C452 1.399 . S
C452 H438 0.929 . S
C452 C451 1.399 . S
C452 C453 1.385 . S
C453 H439 0.931 . S
C453 C452 1.385 . S
C453 C454 1.389 . S
C454 C453 1.389 . S
C454 C455 1.387 . S
C455 H440 0.930 . S
C455 C450 1.390 . S
C455 C454 1.387 . S
H456 C468 0.930 . S
H457 C470 0.930 . S
H458 C471 0.930 . S
H459 C475 0.959 1_455 S
H460 C475 0.959 . S
H461 C475 0.961 . S
H462 C476 0.960 . S
H463 C476 0.961 . S
H464 C476 0.959 . S
H465 C479 0.929 . S
H466 C480 0.931 . S
H467 C482 0.930 . S
C468 H456 0.930 . S
C468 C469 1.399 . S
C468 C473 1.399 . S
C469 C468 1.399 . S
C469 C470 1.376 . S
C470 H457 0.930 . S
C470 C469 1.376 . S
C470 C471 1.388 . S
C471 H458 0.930 . S
C471 C470 1.388 . S
C471 C472 1.390 . S
C472 C471 1.390 . S
C472 C473 1.394 . S
C472 C478 1.465 . S
C473 C468 1.399 . S
C473 C472 1.394 . S
C473 C474 1.516 . S
C474 C473 1.516 . S
C474 C475 1.502 . S
C474 C476 1.561 . S
C474 C477 1.526 . S
C475 H459 0.959 1_655 S
C475 H460 0.959 . S
C475 H461 0.961 . S
C475 C474 1.502 . S
C476 H462 0.960 . S
C476 H463 0.961 . S
C476 H464 0.959 . S
C476 C474 1.561 . S
C477 C474 1.526 . S
C477 C478 1.396 . S
C477 C482 1.390 . S
C478 C472 1.465 . S
C478 C477 1.396 . S
C478 C479 1.399 . S
C479 H465 0.929 . S
C479 C478 1.399 . S
C479 C480 1.385 . S
C480 H466 0.931 . S
C480 C479 1.385 . S
C480 C481 1.389 . S
C481 C480 1.389 . S
C481 C482 1.387 . S
C482 H467 0.930 . S
C482 C477 1.390 . S
C482 C481 1.387 . S
H483 C495 0.930 . S
H484 C497 0.930 . S
H485 C498 0.930 . S
H486 C502 0.959 . S
H487 C502 0.959 . S
H488 C502 0.961 . S
H489 C503 0.960 . S
H490 C503 0.961 . S
H491 C503 0.959 . S
H492 C506 0.929 . S
H493 C507 0.931 . S
H494 C509 0.930 . S
C495 H483 0.930 . S
C495 C496 1.399 . S
C495 C500 1.399 . S
C496 C495 1.399 . S
C496 C497 1.376 . S
C497 H484 0.930 . S
C497 C496 1.376 . S
C497 C498 1.388 . S
C498 H485 0.930 . S
C498 C497 1.388 . S
C498 C499 1.390 . S
C499 C498 1.390 . S
C499 C500 1.394 . S
C499 C505 1.465 . S
C500 C495 1.399 . S
C500 C499 1.394 . S
C500 C501 1.516 . S
C501 C500 1.516 . S
C501 C502 1.502 . S
C501 C503 1.561 . S
C501 C504 1.526 . S
C502 H486 0.959 . S
C502 H487 0.959 . S
C502 H488 0.961 . S
C502 C501 1.502 . S
C503 H489 0.960 . S
C503 H490 0.961 . S
C503 H491 0.959 . S
C503 C501 1.561 . S
C504 C501 1.526 . S
C504 C505 1.396 . S
C504 C509 1.390 . S
C505 C499 1.465 . S
C505 C504 1.396 . S
C505 C506 1.399 . S
C506 H492 0.929 . S
C506 C505 1.399 . S
C506 C507 1.385 . S
C507 H493 0.931 . S
C507 C506 1.385 . S
C507 C508 1.389 . S
C508 C507 1.389 . S
C508 C509 1.387 . S
C509 H494 0.930 . S
C509 C504 1.390 . S
C509 C508 1.387 . S
H510 C522 0.930 . S
H511 C524 0.930 . S
H512 C525 0.930 . S
H513 C529 0.959 . S
H514 C529 0.959 . S
H515 C529 0.961 . S
H516 C530 0.960 . S
H517 C530 0.961 . S
H518 C530 0.959 . S
H519 C533 0.929 . S
H520 C534 0.931 . S
H521 C536 0.930 . S
C522 H510 0.930 . S
C522 C523 1.399 1_565 S
C522 C527 1.399 . S
C523 C522 1.399 1_545 S
C523 C524 1.376 . S
C524 H511 0.930 . S
C524 C523 1.376 . S
C524 C525 1.388 . S
C525 H512 0.930 . S
C525 C524 1.388 . S
C525 C526 1.390 . S
C526 C525 1.390 . S
C526 C527 1.394 1_545 S
C526 C532 1.465 . S
C527 C522 1.399 . S
C527 C526 1.394 1_565 S
C527 C528 1.516 . S
C528 C527 1.516 . S
C528 C529 1.502 . S
C528 C530 1.561 . S
C528 C531 1.526 . S
C529 H513 0.959 . S
C529 H514 0.959 . S
C529 H515 0.961 . S
C529 C528 1.502 . S
C530 H516 0.960 . S
C530 H517 0.961 . S
C530 H518 0.959 . S
C530 C528 1.561 . S
C531 C528 1.526 . S
C531 C532 1.396 1_565 S
C531 C536 1.390 . S
C532 C526 1.465 . S
C532 C531 1.396 1_545 S
C532 C533 1.399 . S
C533 H519 0.929 . S
C533 C532 1.399 . S
C533 C534 1.385 . S
C534 H520 0.931 . S
C534 C533 1.385 . S
C534 C535 1.389 . S
C535 C534 1.389 . S
C535 C536 1.387 1_545 S
C536 H521 0.930 . S
C536 C531 1.390 . S
C536 C535 1.387 1_565 S
H537 C549 0.930 . S
H538 C551 0.929 1_655 S
H539 C552 0.930 . S
H540 C556 0.959 . S
H541 C556 0.959 . S
H542 C556 0.961 . S
H543 C557 0.960 . S
H544 C557 0.961 . S
H545 C557 0.959 . S
H546 C560 0.929 . S
H547 C561 0.931 1_655 S
H548 C563 0.930 . S
C549 H537 0.930 . S
C549 C550 1.399 . S
C549 C554 1.399 . S
C550 C549 1.399 . S
C550 C551 1.377 . S
C551 H538 0.929 1_455 S
C551 C550 1.377 . S
C551 C552 1.389 1_455 S
C552 H539 0.930 . S
C552 C551 1.389 1_655 S
C552 C553 1.390 1_655 S
C553 C552 1.390 1_455 S
C553 C554 1.394 . S
C553 C559 1.465 . S
C554 C549 1.399 . S
C554 C553 1.394 . S
C554 C555 1.516 . S
C555 C554 1.516 . S
C555 C556 1.502 . S
C555 C557 1.561 1_455 S
C555 C558 1.526 . S
C556 H540 0.959 . S
C556 H541 0.959 . S
C556 H542 0.961 . S
C556 C555 1.502 . S
C557 H543 0.960 . S
C557 H544 0.961 . S
C557 H545 0.959 . S
C557 C555 1.561 1_655 S
C558 C555 1.526 . S
C558 C559 1.396 . S
C558 C563 1.390 . S
C559 C553 1.465 . S
C559 C558 1.396 . S
C559 C560 1.399 1_455 S
C560 H546 0.929 . S
C560 C559 1.399 1_655 S
C560 C561 1.385 1_655 S
C561 H547 0.931 1_455 S
C561 C560 1.385 1_455 S
C561 C562 1.389 . S
C562 C561 1.389 . S
C562 C563 1.387 . S
C563 H548 0.930 . S
C563 C558 1.390 . S
C563 C562 1.387 . S
H564 C576 0.930 . S
H565 C578 0.930 . S
H566 C579 0.930 . S
H567 C583 0.959 . S
H568 C583 0.959 . S
H569 C583 0.961 . S
H570 C584 0.960 . S
H571 C584 0.961 . S
H572 C584 0.959 . S
H573 C587 0.929 . S
H574 C588 0.931 . S
H575 C590 0.930 . S
C576 H564 0.930 . S
C576 C577 1.399 . S
C576 C581 1.399 . S
C577 C576 1.399 . S
C577 C578 1.376 . S
C578 H565 0.930 . S
C578 C577 1.376 . S
C578 C579 1.388 . S
C579 H566 0.930 . S
C579 C578 1.388 . S
C579 C580 1.390 . S
C580 C579 1.390 . S
C580 C581 1.394 . S
C580 C586 1.465 . S
C581 C576 1.399 . S
C581 C580 1.394 . S
C581 C582 1.516 . S
C582 C581 1.516 . S
C582 C583 1.502 . S
C582 C584 1.561 . S
C582 C585 1.526 . S
C583 H567 0.959 . S
C583 H568 0.959 . S
C583 H569 0.961 . S
C583 C582 1.502 . S
C584 H570 0.960 . S
C584 H571 0.961 . S
C584 H572 0.959 . S
C584 C582 1.561 . S
C585 C582 1.526 . S
C585 C586 1.396 . S
C585 C590 1.390 . S
C586 C580 1.465 . S
C586 C585 1.396 . S
C586 C587 1.399 . S
C587 H573 0.929 . S
C587 C586 1.399 . S
C587 C588 1.385 . S
C588 H574 0.931 . S
C588 C587 1.385 . S
C588 C589 1.389 . S
C589 C588 1.389 . S
C589 C590 1.387 . S
C590 H575 0.930 . S
C590 C585 1.390 . S
C590 C589 1.387 . S
H591 C603 0.930 . S
H592 C605 0.930 . S
H593 C606 0.930 . S
H594 C610 0.959 . S
H595 C610 0.959 . S
H596 C610 0.961 . S
H597 C611 0.960 . S
H598 C611 0.961 . S
H599 C611 0.959 . S
H600 C614 0.929 . S
H601 C615 0.931 . S
H602 C617 0.930 . S
C603 H591 0.930 . S
C603 C604 1.399 1_545 S
C603 C608 1.399 . S
C604 C603 1.399 1_565 S
C604 C605 1.376 . S
C605 H592 0.930 . S
C605 C604 1.376 . S
C605 C606 1.388 . S
C606 H593 0.930 . S
C606 C605 1.388 . S
C606 C607 1.390 . S
C607 C606 1.390 . S
C607 C608 1.394 1_565 S
C607 C613 1.465 . S
C608 C603 1.399 . S
C608 C607 1.394 1_545 S
C608 C609 1.516 . S
C609 C608 1.516 . S
C609 C610 1.502 . S
C609 C611 1.561 . S
C609 C612 1.536 . S
C610 H594 0.959 . S
C610 H595 0.959 . S
C610 H596 0.961 . S
C610 C609 1.502 . S
C611 H597 0.960 . S
C611 H598 0.961 . S
C611 H599 0.959 . S
C611 C609 1.561 . S
C612 C609 1.536 . S
C612 C613 1.364 1_545 S
C612 C617 1.407 . S
C613 C607 1.465 . S
C613 C612 1.364 1_565 S
C613 C614 1.399 . S
C614 H600 0.929 . S
C614 C613 1.399 . S
C614 C615 1.385 . S
C615 H601 0.931 . S
C615 C614 1.385 . S
C615 C616 1.389 . S
C616 C615 1.389 . S
C616 C617 1.387 1_565 S
C617 H602 0.930 . S
C617 C612 1.407 . S
C617 C616 1.387 1_545 S
C145 C60 1.423 . S
C157 C5 1.394 . S
C172 C16 1.524 . S
C184 C38 1.531 . S
C199 C49 1.417 . S
C211 C27 1.391 . S
C226 C126 1.706 . S
C238 C71 1.654 . S
C253 C82 1.653 . S
C265 C104 1.729 . S
C280 C115 1.740 . S
C292 C93 1.714 . S
C307 C8 1.884 . S
C319 C74 2.048 . S
C334 C85 2.048 . S
C346 C19 1.888 . S
C361 C30 1.879 . S
C373 C96 2.045 . S
C388 C107 2.025 . S
C400 C41 1.949 . S
C415 C118 2.044 . S
C427 C52 1.910 . S
C442 C63 1.945 . S
C454 C129 2.009 . S
C469 C51 1.079 . S
C481 C7 0.931 . S
C496 C62 1.047 . S
C508 C18 1.026 . S
C523 C29 0.986 . S
C535 C40 1.071 . S
C550 C73 1.100 . S
C562 C117 1.040 . S
C577 C128 1.084 . S
C589 C84 1.061 . S
C604 C95 1.092 . S
C616 C106 1.038 . S
