# Generated by pormake.
# Topology wmi, (6)-cn, num edge types: 1
# Building blocks:
#     Node 0, Type 0, BuildingBlock: BETDEL_clean_sbu_0, # of connection points: 6
#     Node 1, Type 0, BuildingBlock: BETDEL_clean_sbu_0, # of connection points: 6
#     Node 2, Type 0, BuildingBlock: BETDEL_clean_sbu_0, # of connection points: 6
#     Node 3, Type 0, BuildingBlock: BETDEL_clean_sbu_0, # of connection points: 6
#     Node 4, Type 0, BuildingBlock: BETDEL_clean_sbu_0, # of connection points: 6
#     Node 5, Type 0, BuildingBlock: BETDEL_clean_sbu_0, # of connection points: 6
#     Node 6, Type 0, BuildingBlock: BETDEL_clean_sbu_0, # of connection points: 6
#     Node 7, Type 0, BuildingBlock: BETDEL_clean_sbu_0, # of connection points: 6
#     Node 8, Type 0, BuildingBlock: BETDEL_clean_sbu_0, # of connection points: 6
#     Node 9, Type 0, BuildingBlock: BETDEL_clean_sbu_0, # of connection points: 6
#     Node 10, Type 0, BuildingBlock: BETDEL_clean_sbu_0, # of connection points: 6
#     Node 11, Type 0, BuildingBlock: BETDEL_clean_sbu_0, # of connection points: 6
#     Node 12, Type 0, BuildingBlock: BETDEL_clean_sbu_0, # of connection points: 6
#     Node 13, Type 0, BuildingBlock: BETDEL_clean_sbu_0, # of connection points: 6
#     Node 14, Type 0, BuildingBlock: BETDEL_clean_sbu_0, # of connection points: 6
#     Node 15, Type 0, BuildingBlock: BETDEL_clean_sbu_0, # of connection points: 6
#     Node 16, Type 0, BuildingBlock: BETDEL_clean_sbu_0, # of connection points: 6
#     Node 17, Type 0, BuildingBlock: BETDEL_clean_sbu_0, # of connection points: 6
#     Edge 18, Type (0, 0), None
#     Edge 19, Type (0, 0), None
#     Edge 20, Type (0, 0), None
#     Edge 21, Type (0, 0), None
#     Edge 22, Type (0, 0), None
#     Edge 23, Type (0, 0), None
#     Edge 24, Type (0, 0), None
#     Edge 25, Type (0, 0), None
#     Edge 26, Type (0, 0), None
#     Edge 27, Type (0, 0), None
#     Edge 28, Type (0, 0), None
#     Edge 29, Type (0, 0), None
#     Edge 30, Type (0, 0), None
#     Edge 31, Type (0, 0), None
#     Edge 32, Type (0, 0), None
#     Edge 33, Type (0, 0), None
#     Edge 34, Type (0, 0), None
#     Edge 35, Type (0, 0), None
#     Edge 36, Type (0, 0), None
#     Edge 37, Type (0, 0), None
#     Edge 38, Type (0, 0), None
#     Edge 39, Type (0, 0), None
#     Edge 40, Type (0, 0), None
#     Edge 41, Type (0, 0), None
#     Edge 42, Type (0, 0), None
#     Edge 43, Type (0, 0), None
#     Edge 44, Type (0, 0), None
#     Edge 45, Type (0, 0), None
#     Edge 46, Type (0, 0), None
#     Edge 47, Type (0, 0), None
#     Edge 48, Type (0, 0), None
#     Edge 49, Type (0, 0), None
#     Edge 50, Type (0, 0), None
#     Edge 51, Type (0, 0), None
#     Edge 52, Type (0, 0), None
#     Edge 53, Type (0, 0), None
#     Edge 54, Type (0, 0), None
#     Edge 55, Type (0, 0), None
#     Edge 56, Type (0, 0), None
#     Edge 57, Type (0, 0), None
#     Edge 58, Type (0, 0), None
#     Edge 59, Type (0, 0), None
#     Edge 60, Type (0, 0), None
#     Edge 61, Type (0, 0), None
#     Edge 62, Type (0, 0), None
#     Edge 63, Type (0, 0), None
#     Edge 64, Type (0, 0), None
#     Edge 65, Type (0, 0), None
#     Edge 66, Type (0, 0), None
#     Edge 67, Type (0, 0), None
#     Edge 68, Type (0, 0), None
#     Edge 69, Type (0, 0), None
#     Edge 70, Type (0, 0), None
#     Edge 71, Type (0, 0), None
# Relax obj value: 0.100
# Max RMSD: 0.204
# Mean RMSD: 0.204
data_MOF--net-wmi--node1-BETDEL_clean_sbu_0--edge1-none
_symmetry_space_group_name_H-M    P1
_symmetry_Int_Tables_number       1
_symmetry_cell_setting            triclinic
loop_
_symmetry_equiv_pos_as_xyz
'x, y, z'
_cell_length_a     15.871698
_cell_length_b     15.872885
_cell_length_c     34.438981
_cell_angle_alpha  90.00423
_cell_angle_beta   89.991959
_cell_angle_gamma 120.00705
loop_
_atom_site_label
_atom_site_type_symbol
_atom_site_fract_x
_atom_site_fract_y
_atom_site_fract_z
_atom_type_partial_charge
Dy0 Dy 0.60388 0.1099 0.12846 0.0
C1 C 0.25085 0.80274 0.11143 0.0
C2 C 0.80623 0.21833 0.12291 0.0
Dy3 Dy 0.41551 0.96829 0.09997 0.0
O4 O 0.75285 0.21592 0.15267 0.0
O5 O 0.74615 0.16245 0.09642 0.0
O6 O 0.50848 0.11654 0.17959 0.0
O7 O 0.47391 0.98692 0.15534 0.0
C8 C 0.44277 1.0239 0.17944 0.0
C9 C 0.53435 1.02429 0.04015 0.0
O10 O 0.40911 0.11163 0.11124 0.0
O11 O 0.57467 0.22131 0.10965 0.0
O12 O 0.26242 0.86199 0.08278 0.0
O13 O 0.32539 0.83661 0.13389 0.0
O14 O 0.46143 0.93704 0.04456 0.0
O15 O 0.53883 0.0796 0.06836 0.0
O16 O 0.64028 0.99594 0.13071 0.0
O17 O 0.49925 0.88775 0.09961 0.0
C18 C 0.48547 0.20372 0.11189 0.0
C19 C 0.58809 0.9155 0.11204 0.0
Dy20 Dy 0.98784 0.52231 0.12849 0.0
C21 C 0.29511 0.47666 0.11143 0.0
C22 C 0.87943 0.61623 0.1229 0.0
Dy23 Dy 0.12957 0.47578 0.09998 0.0
O24 O 0.88174 0.56519 0.15266 0.0
O25 O 0.93538 0.61206 0.09643 0.0
O26 O 0.98124 0.42028 0.1796 0.0
O27 O 0.11087 0.51543 0.15537 0.0
C28 C 0.0739 0.44728 0.17945 0.0
C29 C 0.07346 0.53846 0.04016 0.0
O30 O 0.9863 0.32595 0.11123 0.0
O31 O 0.87647 0.38163 0.10969 0.0
O32 O 0.23583 0.42895 0.0828 0.0
O33 O 0.26131 0.51743 0.13387 0.0
O34 O 0.16076 0.55291 0.04457 0.0
O35 O 1.01818 0.48761 0.06838 0.0
O36 O 0.10176 0.67269 0.1308 0.0
O37 O 0.20997 0.64008 0.09959 0.0
C38 C 0.89417 0.3101 0.11189 0.0
C39 C 0.18212 0.70107 0.11206 0.0
Dy40 Dy 0.57548 0.49394 0.12847 0.0
C41 C 0.62091 0.84669 0.11139 0.0
C42 C 0.48182 0.29175 0.12291 0.0
Dy43 Dy 0.62212 0.68225 0.09998 0.0
O44 O 0.53278 0.34505 0.15268 0.0
O45 O 0.48571 0.35169 0.09643 0.0
O46 O 0.67754 0.58941 0.17958 0.0
O47 O 0.58241 0.62388 0.15535 0.0
C48 C 0.65057 0.65507 0.17944 0.0
C49 C 0.55933 0.56341 0.04016 0.0
O50 O 0.77192 0.68878 0.11123 0.0
O51 O 0.71614 0.52326 0.10962 0.0
O52 O 0.66888 0.83533 0.0828 0.0
O53 O 0.58026 0.77218 0.13385 0.0
O54 O 0.54495 0.63629 0.04457 0.0
O55 O 0.61019 0.55898 0.06837 0.0
O56 O 0.42508 0.45747 0.13076 0.0
O57 O 0.45781 0.59838 0.0996 0.0
C58 C 0.78771 0.61248 0.11186 0.0
C59 C 0.39677 0.50953 0.11205 0.0
Dy60 Dy 0.12357 0.59023 0.91191 0.0
C61 C 0.81642 0.23721 0.92894 0.0
C62 C 0.23199 0.79257 0.91749 0.0
Dy63 Dy 0.98193 0.40192 0.94041 0.0
O64 O 0.22963 0.73921 0.88773 0.0
O65 O 0.17608 0.73245 0.94397 0.0
O66 O 0.13022 0.49482 0.8608 0.0
O67 O 1.00058 0.46027 0.88503 0.0
C68 C 1.03756 0.42912 0.86095 0.0
C69 C 1.03788 0.5206 1.00022 0.0
O70 O 0.12526 0.39547 0.92917 0.0
O71 O 0.23499 0.561 0.9307 0.0
O72 O 0.87566 0.24881 0.95759 0.0
O73 O 0.85026 0.31176 0.9065 0.0
O74 O 0.95058 0.44774 0.99583 0.0
O75 O 0.09329 0.52521 0.97202 0.0
O76 O 1.00963 0.62665 0.90963 0.0
O77 O 0.90144 0.48571 0.94078 0.0
C78 C 0.21736 0.47179 0.92849 0.0
C79 C 0.92921 0.57454 0.92832 0.0
Dy80 Dy 0.50758 0.56175 0.91192 0.0
C81 C 0.86043 0.6074 0.92898 0.0
C82 C 0.30537 0.46808 0.91748 0.0
Dy83 Dy 0.69594 0.60853 0.94042 0.0
O84 O 0.35868 0.519 0.8877 0.0
O85 O 0.36531 0.47201 0.94398 0.0
O86 O 0.60302 0.66383 0.86081 0.0
O87 O 0.63757 0.56877 0.88505 0.0
C88 C 0.66872 0.63691 0.86096 0.0
C89 C 0.5772 0.54569 1.00022 0.0
O90 O 0.70236 0.75827 0.92916 0.0
O91 O 0.53681 0.70237 0.93077 0.0
O92 O 0.84903 0.6553 0.95759 0.0
O93 O 0.78592 0.56679 0.90651 0.0
O94 O 0.65009 0.53132 0.99583 0.0
O95 O 0.57259 0.59649 0.97203 0.0
O96 O 0.47115 0.41137 0.90967 0.0
O97 O 0.61218 0.44424 0.94077 0.0
C98 C 0.626 0.774 0.92852 0.0
C99 C 0.52334 0.38313 0.92833 0.0
Dy100 Dy 0.53597 0.97418 0.9119 0.0
C101 C 0.49055 0.2815 0.92898 0.0
C102 C 0.62963 0.86566 0.91749 0.0
Dy103 Dy 0.48943 0.11589 0.94041 0.0
O104 O 0.57866 0.86796 0.88771 0.0
O105 O 0.62574 0.92174 0.94396 0.0
O106 O 0.4339 0.96759 0.8608 0.0
O107 O 0.52907 0.0972 0.88502 0.0
C108 C 0.46089 0.06023 0.86095 0.0
C109 C 0.5521 0.05988 1.00021 0.0
O110 O 0.33959 0.97263 0.92917 0.0
O111 O 0.39529 0.86284 0.93074 0.0
O112 O 0.4426 0.22217 0.95758 0.0
O113 O 0.53127 0.24767 0.90653 0.0
O114 O 0.56659 0.14718 0.99582 0.0
O115 O 0.50127 1.0045 0.97201 0.0
O116 O 0.68637 0.08809 0.90958 0.0
O117 O 0.65374 0.19628 0.94079 0.0
C118 C 0.32375 0.88052 0.92852 0.0
C119 C 0.71474 0.16845 0.92831 0.0
Dy120 Dy 0.27055 0.44325 0.46179 0.0
C121 C 0.91751 0.13608 0.44479 0.0
C122 C 0.47291 0.55168 0.45623 0.0
Dy123 Dy 0.08217 0.30162 0.43331 0.0
O124 O 0.41952 0.54929 0.48599 0.0
O125 O 0.41281 0.49578 0.42975 0.0
O126 O 0.17515 0.44991 0.51291 0.0
O127 O 0.14058 0.32028 0.48868 0.0
C128 C 0.10944 0.35727 0.51277 0.0
C129 C 0.201 0.35756 0.37349 0.0
O130 O 0.07578 0.44497 0.44457 0.0
O131 O 0.24133 0.55464 0.44296 0.0
O132 O 0.92907 0.19531 0.41614 0.0
O133 O 0.99206 0.16995 0.46723 0.0
O134 O 0.12805 0.27032 0.3779 0.0
O135 O 0.20549 0.41289 0.4017 0.0
O136 O 0.30695 0.3293 0.46405 0.0
O137 O 0.1659 0.22107 0.43297 0.0
C138 C 0.15213 0.53705 0.44521 0.0
C139 C 0.25475 0.24884 0.4454 0.0
Dy140 Dy 0.6545 0.85564 0.46182 0.0
C141 C 0.96179 0.81 0.44479 0.0
C142 C 0.54609 0.94956 0.45623 0.0
Dy143 Dy 0.79626 0.80912 0.43332 0.0
O144 O 0.54838 0.89851 0.48598 0.0
O145 O 0.60205 0.9454 0.42976 0.0
O146 O 0.64787 0.75359 0.51292 0.0
O147 O 0.77751 0.84875 0.48871 0.0
C148 C 0.74053 0.78059 0.51279 0.0
C149 C 0.7402 0.87185 0.3735 0.0
O150 O 0.65297 0.65929 0.44456 0.0
O151 O 0.54315 0.71497 0.443 0.0
O152 O 0.90252 0.76228 0.41615 0.0
O153 O 0.92798 0.85078 0.46721 0.0
O154 O 0.82749 0.88626 0.37791 0.0
O155 O 0.6849 0.82099 0.40171 0.0
O156 O 0.76841 1.00602 0.46414 0.0
O157 O 0.87665 0.97342 0.43295 0.0
C158 C 0.56085 0.64344 0.44521 0.0
C159 C 0.84879 0.0344 0.44542 0.0
Dy160 Dy 0.24216 0.82728 0.46181 0.0
C161 C 0.28758 0.18003 0.44474 0.0
C162 C 0.14849 0.62508 0.45623 0.0
Dy163 Dy 0.28879 1.01561 0.43332 0.0
O164 O 0.19947 0.67838 0.48601 0.0
O165 O 0.15238 0.68503 0.42975 0.0
O166 O 0.34424 0.92275 0.51291 0.0
O167 O 0.2491 0.95722 0.48869 0.0
C168 C 0.31727 0.98841 0.51277 0.0
C169 C 0.22596 0.89677 0.3735 0.0
O170 O 0.43858 1.02212 0.44456 0.0
O171 O 0.3828 0.8566 0.44293 0.0
O172 O 0.33556 0.16869 0.41615 0.0
O173 O 0.24691 0.1055 0.4672 0.0
O174 O 0.21162 0.96967 0.37791 0.0
O175 O 0.27682 0.89233 0.40171 0.0
O176 O 0.09177 0.79081 0.46411 0.0
O177 O 0.12448 0.93173 0.43296 0.0
C178 C 0.45438 0.94582 0.44518 0.0
C179 C 0.06345 0.84288 0.44541 0.0
Dy180 Dy 0.79021 0.92354 0.24522 0.0
C181 C 0.48308 0.57055 0.26231 0.0
C182 C 0.89862 0.12589 0.25081 0.0
Dy183 Dy 0.64861 0.73524 0.27378 0.0
O184 O 0.89618 0.07255 0.22103 0.0
O185 O 0.84278 0.06576 0.2773 0.0
O186 O 0.79681 0.82811 0.19409 0.0
O187 O 0.6672 0.79351 0.2184 0.0
C188 C 0.70418 0.76232 0.19434 0.0
C189 C 0.70461 0.85399 0.33356 0.0
O190 O 0.79195 0.7288 0.26253 0.0
O191 O 0.90169 0.89435 0.26394 0.0
O192 O 0.54232 0.58214 0.29096 0.0
O193 O 0.51692 0.64512 0.23988 0.0
O194 O 0.61731 0.78113 0.32918 0.0
O195 O 0.76 0.85859 0.30535 0.0
O196 O 0.67623 0.95991 0.24294 0.0
O197 O 0.56813 0.81905 0.27417 0.0
C198 C 0.88405 0.80513 0.26179 0.0
C199 C 0.59587 0.90785 0.26168 0.0
Dy200 Dy 0.17426 0.89506 0.24523 0.0
C201 C 0.52707 0.9407 0.26236 0.0
C202 C 0.97205 0.80138 0.2508 0.0
Dy203 Dy 0.36261 0.94187 0.27379 0.0
O204 O 1.02535 0.8522 0.221 0.0
O205 O 1.03201 0.8054 0.27731 0.0
O206 O 0.26973 0.99711 0.19411 0.0
O207 O 0.30432 0.90213 0.21842 0.0
C208 C 0.33553 0.97032 0.19435 0.0
C209 C 0.24381 0.87903 0.33356 0.0
O210 O 0.36903 0.09162 0.26252 0.0
O211 O 0.20346 0.03571 0.26401 0.0
O212 O 0.5157 0.98862 0.29096 0.0
O213 O 0.45256 0.90008 0.23989 0.0
O214 O 0.3167 0.86465 0.32918 0.0
O215 O 0.23921 0.92982 0.30536 0.0
O216 O 0.13789 0.7447 0.24298 0.0
O217 O 0.27883 0.77758 0.27416 0.0
C218 C 0.29266 0.10734 0.26181 0.0
C219 C 0.19002 0.71647 0.26169 0.0
Dy220 Dy 0.20266 0.30755 0.24521 0.0
C221 C 0.15725 0.61484 0.26236 0.0
C222 C 0.29633 0.19903 0.25081 0.0
Dy223 Dy 0.15608 0.44922 0.27378 0.0
O224 O 0.24546 0.20141 0.22101 0.0
O225 O 0.29235 0.25504 0.27729 0.0
O226 O 0.10062 0.301 0.1941 0.0
O227 O 0.19571 0.43058 0.21839 0.0
C228 C 0.12748 0.39361 0.19434 0.0
C229 C 0.21877 0.39315 0.33355 0.0
O230 O 1.00624 0.30594 0.26253 0.0
O231 O 0.06196 0.19614 0.26398 0.0
O232 O 0.10929 0.55551 0.29095 0.0
O233 O 0.19796 0.58101 0.23991 0.0
O234 O 0.23327 0.48046 0.32918 0.0
O235 O 0.16795 0.33778 0.30534 0.0
O236 O 0.35305 0.42149 0.24289 0.0
O237 O 0.3204 0.52958 0.27418 0.0
C238 C 0.99041 0.21383 0.26181 0.0
C239 C 0.38141 0.50179 0.26167 0.0
Dy240 Dy 0.9372 0.77655 0.79515 0.0
C241 C 0.58419 0.4694 0.77808 0.0
C242 C 0.13956 0.88497 0.78958 0.0
Dy243 Dy 0.74882 0.63496 0.76661 0.0
O244 O 0.08619 0.8825 0.81936 0.0
O245 O 0.07944 0.82915 0.76308 0.0
O246 O 0.84177 0.78316 0.84628 0.0
O247 O 0.80715 0.65356 0.82198 0.0
C248 C 0.77597 0.69055 0.84605 0.0
C249 C 0.86772 0.69095 0.70681 0.0
O250 O 0.74244 0.77832 0.77787 0.0
O251 O 0.90801 0.888 0.77639 0.0
O252 O 0.59573 0.52863 0.74943 0.0
O253 O 0.65875 0.50327 0.80053 0.0
O254 O 0.79478 0.60371 0.71122 0.0
O255 O 0.87221 0.74626 0.73503 0.0
O256 O 0.97354 0.66255 0.7974 0.0
O257 O 0.83257 0.55443 0.76625 0.0
C258 C 0.8188 0.8704 0.77858 0.0
C259 C 0.9214 0.58216 0.77871 0.0
Dy260 Dy 0.32119 0.18899 0.79517 0.0
C261 C 0.62845 0.14336 0.77808 0.0
C262 C 0.21279 0.28292 0.78957 0.0
Dy263 Dy 0.46291 0.14244 0.76662 0.0
O264 O 0.21516 0.23197 0.81935 0.0
O265 O 0.26868 0.27866 0.76309 0.0
O266 O 0.31462 0.08696 0.84629 0.0
O267 O 0.44422 0.18205 0.82201 0.0
C268 C 0.40725 0.11384 0.84606 0.0
C269 C 0.4068 0.20519 0.70682 0.0
O270 O 0.31962 0.99261 0.77786 0.0
O271 O 0.20978 0.04829 0.77642 0.0
O272 O 0.56919 0.09563 0.74944 0.0
O273 O 0.59465 0.18413 0.80051 0.0
O274 O 0.49409 0.2196 0.71122 0.0
O275 O 0.35152 0.15433 0.73505 0.0
O276 O 0.43514 0.33936 0.7975 0.0
O277 O 0.54329 0.30674 0.76623 0.0
C278 C 0.22749 0.97676 0.77858 0.0
C279 C 0.51546 0.36773 0.77872 0.0
Dy280 Dy 0.9088 0.16063 0.79516 0.0
C281 C 0.95421 0.51334 0.77804 0.0
C282 C 0.81512 0.95843 0.78958 0.0
Dy283 Dy 0.95546 0.34894 0.76661 0.0
O284 O 0.866 1.01171 0.81937 0.0
O285 O 0.8191 1.01839 0.76309 0.0
O286 O 1.01085 0.25612 0.84628 0.0
O287 O 0.91579 0.29063 0.82199 0.0
C288 C 0.98401 0.32187 0.84605 0.0
C289 C 0.89262 0.23004 0.70682 0.0
O290 O 0.10526 0.35545 0.77787 0.0
O291 O 0.04947 0.18992 0.77635 0.0
O292 O 1.0022 0.50202 0.74945 0.0
O293 O 0.91354 0.43881 0.80049 0.0
O294 O 0.87827 0.30294 0.71122 0.0
O295 O 0.94347 0.22561 0.73504 0.0
O296 O 0.75842 0.1242 0.79746 0.0
O297 O 0.79115 0.26505 0.76623 0.0
C298 C 0.12105 0.27914 0.77855 0.0
C299 C 0.73011 0.17623 0.77872 0.0
Dy300 Dy 0.45689 0.25688 0.57856 0.0
C301 C 0.14974 0.90388 0.59563 0.0
C302 C 0.5653 0.45923 0.58415 0.0
Dy303 Dy 0.31526 0.06856 0.60711 0.0
O304 O 0.56287 0.40589 0.55437 0.0
O305 O 0.50945 0.39909 0.61064 0.0
O306 O 0.46351 0.16145 0.52743 0.0
O307 O 0.33389 0.12685 0.55173 0.0
C308 C 0.37089 0.09566 0.52767 0.0
C309 C 0.37121 0.18731 0.66689 0.0
O310 O 0.45861 0.06213 0.59586 0.0
O311 O 0.56835 0.22768 0.5973 0.0
O312 O 0.20897 0.91546 0.62428 0.0
O313 O 0.18359 0.97846 0.57319 0.0
O314 O 0.28392 0.11443 0.66251 0.0
O315 O 0.42662 0.19192 0.63868 0.0
O316 O 0.34291 0.29325 0.57627 0.0
O317 O 0.23479 0.15238 0.60748 0.0
C318 C 0.55071 0.13847 0.59514 0.0
C319 C 0.26254 0.24118 0.59499 0.0
Dy320 Dy 0.84093 0.22841 0.57857 0.0
C321 C 0.19375 0.27404 0.59567 0.0
C322 C 0.63872 0.13473 0.58414 0.0
Dy323 Dy 1.0293 0.27521 0.60712 0.0
O324 O 0.69201 0.18556 0.55434 0.0
O325 O 0.69868 0.13874 0.61065 0.0
O326 O 0.9364 0.33049 0.52745 0.0
O327 O 0.97099 0.23549 0.55175 0.0
C328 C 1.0022 0.3037 0.52769 0.0
C329 C 0.9105 0.21232 0.66689 0.0
O330 O 1.0357 0.42496 0.59586 0.0
O331 O 0.87013 0.36904 0.59737 0.0
O332 O 0.18239 0.32197 0.62427 0.0
O333 O 0.11923 0.23341 0.57321 0.0
O334 O 0.98341 0.19798 0.66251 0.0
O335 O 0.90589 0.26312 0.63869 0.0
O336 O 0.80456 0.07805 0.5763 0.0
O337 O 0.94551 0.11092 0.60747 0.0
C338 C 0.95934 0.44067 0.59516 0.0
C339 C 0.8567 0.04981 0.595 0.0
Dy340 Dy 0.86932 0.64088 0.57855 0.0
C341 C 0.82392 0.94818 0.59567 0.0
C342 C 0.96299 0.53236 0.58415 0.0
Dy343 Dy 0.82275 0.78257 0.60711 0.0
O344 O 0.91211 0.53472 0.55435 0.0
O345 O 0.95902 0.58838 0.61063 0.0
O346 O 0.76725 0.63431 0.52744 0.0
O347 O 0.86235 0.7639 0.55172 0.0
C348 C 0.79412 0.72692 0.52767 0.0
C349 C 0.88548 0.72656 0.66688 0.0
O350 O 0.67291 0.63929 0.59587 0.0
O351 O 0.72863 0.52949 0.59734 0.0
O352 O 0.77595 0.88887 0.62426 0.0
O353 O 0.86465 0.91435 0.57323 0.0
O354 O 0.89995 0.81385 0.6625 0.0
O355 O 0.83466 0.67117 0.63868 0.0
O356 O 1.01971 0.75482 0.57621 0.0
O357 O 0.98707 0.86293 0.60749 0.0
C358 C 0.65708 0.54717 0.59516 0.0
C359 C 0.04807 0.83513 0.59499 0.0
loop_
_geom_bond_atom_site_label_1
_geom_bond_atom_site_label_2
_geom_bond_distance
_geom_bond_site_symmetry_2
_ccdc_geom_bond_type
Dy0 O4 2.398 . S
Dy0 O5 2.491 . S
Dy0 O6 2.403 . S
Dy0 O7 2.664 1_545 S
Dy0 O11 2.326 . S
Dy0 O15 2.310 . S
Dy0 O16 2.351 1_545 S
C1 O12 1.185 . S
C1 O13 1.355 . S
C2 O4 1.185 . S
C2 O5 1.355 . S
Dy3 O7 2.310 . S
Dy3 O10 2.351 1_565 S
Dy3 O12 2.398 . S
Dy3 O13 2.491 . S
Dy3 O14 2.403 . S
Dy3 O15 2.664 1_565 S
Dy3 O17 2.326 . S
O4 Dy0 2.398 . S
O4 C2 1.185 . S
O5 Dy0 2.491 . S
O5 C2 1.355 . S
O6 Dy0 2.403 . S
O6 C8 1.254 1_545 S
O7 Dy0 2.664 1_565 S
O7 Dy3 2.310 . S
O7 C8 1.268 . S
C8 O6 1.254 1_565 S
C8 O7 1.268 . S
C9 O14 1.254 1_545 S
C9 O15 1.268 . S
O10 Dy3 2.351 1_545 S
O10 C18 1.249 . S
O11 Dy0 2.326 . S
O11 C18 1.267 . S
O12 C1 1.185 . S
O12 Dy3 2.398 . S
O13 C1 1.355 . S
O13 Dy3 2.491 . S
O14 Dy3 2.403 . S
O14 C9 1.254 1_565 S
O15 Dy0 2.310 . S
O15 Dy3 2.664 1_545 S
O15 C9 1.268 . S
O16 Dy0 2.351 1_565 S
O16 C19 1.249 . S
O17 Dy3 2.326 . S
O17 C19 1.267 . S
C18 O10 1.249 . S
C18 O11 1.267 . S
C19 O16 1.249 . S
C19 O17 1.267 . S
Dy20 O24 2.398 . S
Dy20 O25 2.491 . S
Dy20 O26 2.403 . S
Dy20 O27 2.664 1_655 S
Dy20 O31 2.326 . S
Dy20 O35 2.310 . S
Dy20 O36 2.351 1_655 S
C21 O32 1.185 . S
C21 O33 1.355 . S
C22 O24 1.185 . S
C22 O25 1.355 . S
Dy23 O27 2.310 . S
Dy23 O30 2.351 1_455 S
Dy23 O32 2.398 . S
Dy23 O33 2.491 . S
Dy23 O34 2.403 . S
Dy23 O35 2.664 1_455 S
Dy23 O37 2.326 . S
O24 Dy20 2.398 . S
O24 C22 1.185 . S
O25 Dy20 2.491 . S
O25 C22 1.355 . S
O26 Dy20 2.403 . S
O26 C28 1.254 1_655 S
O27 Dy20 2.664 1_455 S
O27 Dy23 2.310 . S
O27 C28 1.268 . S
C28 O26 1.254 1_455 S
C28 O27 1.268 . S
C29 O34 1.254 . S
C29 O35 1.268 1_455 S
O30 Dy23 2.351 1_655 S
O30 C38 1.249 . S
O31 Dy20 2.326 . S
O31 C38 1.267 . S
O32 C21 1.185 . S
O32 Dy23 2.398 . S
O33 C21 1.355 . S
O33 Dy23 2.491 . S
O34 Dy23 2.403 . S
O34 C29 1.254 . S
O35 Dy20 2.310 . S
O35 Dy23 2.664 1_655 S
O35 C29 1.268 1_655 S
O36 Dy20 2.351 1_455 S
O36 C39 1.249 . S
O37 Dy23 2.326 . S
O37 C39 1.267 . S
C38 O30 1.249 . S
C38 O31 1.267 . S
C39 O36 1.249 . S
C39 O37 1.267 . S
Dy40 O44 2.398 . S
Dy40 O45 2.491 . S
Dy40 O46 2.403 . S
Dy40 O47 2.664 . S
Dy40 O51 2.326 . S
Dy40 O55 2.310 . S
Dy40 O56 2.351 . S
C41 O52 1.185 . S
C41 O53 1.355 . S
C42 O44 1.185 . S
C42 O45 1.355 . S
Dy43 O47 2.310 . S
Dy43 O50 2.351 . S
Dy43 O52 2.398 . S
Dy43 O53 2.491 . S
Dy43 O54 2.403 . S
Dy43 O55 2.664 . S
Dy43 O57 2.326 . S
O44 Dy40 2.398 . S
O44 C42 1.185 . S
O45 Dy40 2.491 . S
O45 C42 1.355 . S
O46 Dy40 2.403 . S
O46 C48 1.254 . S
O47 Dy40 2.664 . S
O47 Dy43 2.310 . S
O47 C48 1.268 . S
C48 O46 1.254 . S
C48 O47 1.268 . S
C49 O54 1.254 . S
C49 O55 1.268 . S
O50 Dy43 2.351 . S
O50 C58 1.249 . S
O51 Dy40 2.326 . S
O51 C58 1.267 . S
O52 C41 1.185 . S
O52 Dy43 2.398 . S
O53 C41 1.355 . S
O53 Dy43 2.491 . S
O54 Dy43 2.403 . S
O54 C49 1.254 . S
O55 Dy40 2.310 . S
O55 Dy43 2.664 . S
O55 C49 1.268 . S
O56 Dy40 2.351 . S
O56 C59 1.249 . S
O57 Dy43 2.326 . S
O57 C59 1.267 . S
C58 O50 1.249 . S
C58 O51 1.267 . S
C59 O56 1.249 . S
C59 O57 1.267 . S
Dy60 O64 2.398 . S
Dy60 O65 2.491 . S
Dy60 O66 2.403 . S
Dy60 O67 2.664 1_455 S
Dy60 O71 2.326 . S
Dy60 O75 2.310 . S
Dy60 O76 2.351 1_455 S
C61 O72 1.185 . S
C61 O73 1.355 . S
C62 O64 1.185 . S
C62 O65 1.355 . S
Dy63 O67 2.310 . S
Dy63 O70 2.351 1_655 S
Dy63 O72 2.398 . S
Dy63 O73 2.491 . S
Dy63 O74 2.403 . S
Dy63 O75 2.664 1_655 S
Dy63 O77 2.326 . S
O64 Dy60 2.398 . S
O64 C62 1.185 . S
O65 Dy60 2.491 . S
O65 C62 1.355 . S
O66 Dy60 2.403 . S
O66 C68 1.254 1_455 S
O67 Dy60 2.664 1_655 S
O67 Dy63 2.310 . S
O67 C68 1.268 . S
C68 O66 1.254 1_655 S
C68 O67 1.268 . S
C69 O74 1.254 1_455 S
C69 O75 1.268 . S
O70 Dy63 2.351 1_455 S
O70 C78 1.249 . S
O71 Dy60 2.326 . S
O71 C78 1.267 . S
O72 C61 1.185 . S
O72 Dy63 2.398 . S
O73 C61 1.355 . S
O73 Dy63 2.491 . S
O74 Dy63 2.403 . S
O74 C69 1.254 1_655 S
O75 Dy60 2.310 . S
O75 Dy63 2.664 1_455 S
O75 C69 1.268 . S
O76 Dy60 2.351 1_655 S
O76 C79 1.249 . S
O77 Dy63 2.326 . S
O77 C79 1.267 . S
C78 O70 1.249 . S
C78 O71 1.267 . S
C79 O76 1.249 . S
C79 O77 1.267 . S
Dy80 O84 2.398 . S
Dy80 O85 2.491 . S
Dy80 O86 2.403 . S
Dy80 O87 2.664 . S
Dy80 O91 2.326 . S
Dy80 O95 2.310 . S
Dy80 O96 2.351 . S
C81 O92 1.185 . S
C81 O93 1.355 . S
C82 O84 1.185 . S
C82 O85 1.355 . S
Dy83 O87 2.310 . S
Dy83 O90 2.351 . S
Dy83 O92 2.398 . S
Dy83 O93 2.491 . S
Dy83 O94 2.403 . S
Dy83 O95 2.664 . S
Dy83 O97 2.326 . S
O84 Dy80 2.398 . S
O84 C82 1.185 . S
O85 Dy80 2.491 . S
O85 C82 1.355 . S
O86 Dy80 2.403 . S
O86 C88 1.254 . S
O87 Dy80 2.664 . S
O87 Dy83 2.310 . S
O87 C88 1.268 . S
C88 O86 1.254 . S
C88 O87 1.268 . S
C89 O94 1.254 . S
C89 O95 1.268 . S
O90 Dy83 2.351 . S
O90 C98 1.249 . S
O91 Dy80 2.326 . S
O91 C98 1.267 . S
O92 C81 1.185 . S
O92 Dy83 2.398 . S
O93 C81 1.355 . S
O93 Dy83 2.491 . S
O94 Dy83 2.403 . S
O94 C89 1.254 . S
O95 Dy80 2.310 . S
O95 Dy83 2.664 . S
O95 C89 1.268 . S
O96 Dy80 2.351 . S
O96 C99 1.249 . S
O97 Dy83 2.326 . S
O97 C99 1.267 . S
C98 O90 1.249 . S
C98 O91 1.267 . S
C99 O96 1.249 . S
C99 O97 1.267 . S
Dy100 O104 2.398 . S
Dy100 O105 2.491 . S
Dy100 O106 2.403 . S
Dy100 O107 2.664 1_565 S
Dy100 O111 2.326 . S
Dy100 O115 2.310 . S
Dy100 O116 2.351 1_565 S
C101 O112 1.185 . S
C101 O113 1.355 . S
C102 O104 1.185 . S
C102 O105 1.355 . S
Dy103 O107 2.310 . S
Dy103 O110 2.351 1_545 S
Dy103 O112 2.398 . S
Dy103 O113 2.491 . S
Dy103 O114 2.403 . S
Dy103 O115 2.664 1_545 S
Dy103 O117 2.326 . S
O104 Dy100 2.398 . S
O104 C102 1.185 . S
O105 Dy100 2.491 . S
O105 C102 1.355 . S
O106 Dy100 2.403 . S
O106 C108 1.254 1_565 S
O107 Dy100 2.664 1_545 S
O107 Dy103 2.310 . S
O107 C108 1.268 . S
C108 O106 1.254 1_545 S
C108 O107 1.268 . S
C109 O114 1.254 . S
C109 O115 1.268 1_545 S
O110 Dy103 2.351 1_565 S
O110 C118 1.249 . S
O111 Dy100 2.326 . S
O111 C118 1.267 . S
O112 C101 1.185 . S
O112 Dy103 2.398 . S
O113 C101 1.355 . S
O113 Dy103 2.491 . S
O114 Dy103 2.403 . S
O114 C109 1.254 . S
O115 Dy100 2.310 . S
O115 Dy103 2.664 1_565 S
O115 C109 1.268 1_565 S
O116 Dy100 2.351 1_545 S
O116 C119 1.249 . S
O117 Dy103 2.326 . S
O117 C119 1.267 . S
C118 O110 1.249 . S
C118 O111 1.267 . S
C119 O116 1.249 . S
C119 O117 1.267 . S
Dy120 O124 2.398 . S
Dy120 O125 2.491 . S
Dy120 O126 2.403 . S
Dy120 O127 2.664 . S
Dy120 O131 2.326 . S
Dy120 O135 2.310 . S
Dy120 O136 2.351 . S
C121 O132 1.185 . S
C121 O133 1.355 . S
C122 O124 1.185 . S
C122 O125 1.355 . S
Dy123 O127 2.310 . S
Dy123 O130 2.351 . S
Dy123 O132 2.398 1_455 S
Dy123 O133 2.491 1_455 S
Dy123 O134 2.403 . S
Dy123 O135 2.664 . S
Dy123 O137 2.326 . S
O124 Dy120 2.398 . S
O124 C122 1.185 . S
O125 Dy120 2.491 . S
O125 C122 1.355 . S
O126 Dy120 2.403 . S
O126 C128 1.254 . S
O127 Dy120 2.664 . S
O127 Dy123 2.310 . S
O127 C128 1.268 . S
C128 O126 1.254 . S
C128 O127 1.268 . S
C129 O134 1.254 . S
C129 O135 1.268 . S
O130 Dy123 2.351 . S
O130 C138 1.249 . S
O131 Dy120 2.326 . S
O131 C138 1.267 . S
O132 C121 1.185 . S
O132 Dy123 2.398 1_655 S
O133 C121 1.355 . S
O133 Dy123 2.491 1_655 S
O134 Dy123 2.403 . S
O134 C129 1.254 . S
O135 Dy120 2.310 . S
O135 Dy123 2.664 . S
O135 C129 1.268 . S
O136 Dy120 2.351 . S
O136 C139 1.249 . S
O137 Dy123 2.326 . S
O137 C139 1.267 . S
C138 O130 1.249 . S
C138 O131 1.267 . S
C139 O136 1.249 . S
C139 O137 1.267 . S
Dy140 O144 2.398 . S
Dy140 O145 2.491 . S
Dy140 O146 2.403 . S
Dy140 O147 2.664 . S
Dy140 O151 2.326 . S
Dy140 O155 2.310 . S
Dy140 O156 2.351 . S
C141 O152 1.185 . S
C141 O153 1.355 . S
C142 O144 1.185 . S
C142 O145 1.355 . S
Dy143 O147 2.310 . S
Dy143 O150 2.351 . S
Dy143 O152 2.398 . S
Dy143 O153 2.491 . S
Dy143 O154 2.403 . S
Dy143 O155 2.664 . S
Dy143 O157 2.326 . S
O144 Dy140 2.398 . S
O144 C142 1.185 . S
O145 Dy140 2.491 . S
O145 C142 1.355 . S
O146 Dy140 2.403 . S
O146 C148 1.254 . S
O147 Dy140 2.664 . S
O147 Dy143 2.310 . S
O147 C148 1.268 . S
C148 O146 1.254 . S
C148 O147 1.268 . S
C149 O154 1.254 . S
C149 O155 1.268 . S
O150 Dy143 2.351 . S
O150 C158 1.249 . S
O151 Dy140 2.326 . S
O151 C158 1.267 . S
O152 C141 1.185 . S
O152 Dy143 2.398 . S
O153 C141 1.355 . S
O153 Dy143 2.491 . S
O154 Dy143 2.403 . S
O154 C149 1.254 . S
O155 Dy140 2.310 . S
O155 Dy143 2.664 . S
O155 C149 1.268 . S
O156 Dy140 2.351 . S
O156 C159 1.249 . S
O157 Dy143 2.326 . S
O157 C159 1.267 . S
C158 O150 1.249 . S
C158 O151 1.267 . S
C159 O156 1.249 . S
C159 O157 1.267 . S
Dy160 O164 2.398 . S
Dy160 O165 2.491 . S
Dy160 O166 2.403 . S
Dy160 O167 2.664 . S
Dy160 O171 2.326 . S
Dy160 O175 2.310 . S
Dy160 O176 2.351 . S
C161 O172 1.185 . S
C161 O173 1.355 . S
C162 O164 1.185 . S
C162 O165 1.355 . S
Dy163 O167 2.310 1_545 S
Dy163 O170 2.351 1_545 S
Dy163 O172 2.398 . S
Dy163 O173 2.491 . S
Dy163 O174 2.403 1_545 S
Dy163 O175 2.664 1_545 S
Dy163 O177 2.326 1_545 S
O164 Dy160 2.398 . S
O164 C162 1.185 . S
O165 Dy160 2.491 . S
O165 C162 1.355 . S
O166 Dy160 2.403 . S
O166 C168 1.254 . S
O167 Dy160 2.664 . S
O167 Dy163 2.310 1_565 S
O167 C168 1.268 . S
C168 O166 1.254 . S
C168 O167 1.268 . S
C169 O174 1.254 . S
C169 O175 1.268 . S
O170 Dy163 2.351 1_565 S
O170 C178 1.249 . S
O171 Dy160 2.326 . S
O171 C178 1.267 . S
O172 C161 1.185 . S
O172 Dy163 2.398 . S
O173 C161 1.355 . S
O173 Dy163 2.491 . S
O174 Dy163 2.403 1_565 S
O174 C169 1.254 . S
O175 Dy160 2.310 . S
O175 Dy163 2.664 1_565 S
O175 C169 1.268 . S
O176 Dy160 2.351 . S
O176 C179 1.249 . S
O177 Dy163 2.326 1_565 S
O177 C179 1.267 . S
C178 O170 1.249 . S
C178 O171 1.267 . S
C179 O176 1.249 . S
C179 O177 1.267 . S
Dy180 O184 2.398 1_565 S
Dy180 O185 2.491 1_565 S
Dy180 O186 2.403 . S
Dy180 O187 2.664 . S
Dy180 O191 2.326 . S
Dy180 O195 2.310 . S
Dy180 O196 2.351 . S
C181 O192 1.185 . S
C181 O193 1.355 . S
C182 O184 1.185 . S
C182 O185 1.355 . S
Dy183 O187 2.310 . S
Dy183 O190 2.351 . S
Dy183 O192 2.398 . S
Dy183 O193 2.491 . S
Dy183 O194 2.403 . S
Dy183 O195 2.664 . S
Dy183 O197 2.326 . S
O184 Dy180 2.398 1_545 S
O184 C182 1.185 . S
O185 Dy180 2.491 1_545 S
O185 C182 1.355 . S
O186 Dy180 2.403 . S
O186 C188 1.254 . S
O187 Dy180 2.664 . S
O187 Dy183 2.310 . S
O187 C188 1.268 . S
C188 O186 1.254 . S
C188 O187 1.268 . S
C189 O194 1.254 . S
C189 O195 1.268 . S
O190 Dy183 2.351 . S
O190 C198 1.249 . S
O191 Dy180 2.326 . S
O191 C198 1.267 . S
O192 C181 1.185 . S
O192 Dy183 2.398 . S
O193 C181 1.355 . S
O193 Dy183 2.491 . S
O194 Dy183 2.403 . S
O194 C189 1.254 . S
O195 Dy180 2.310 . S
O195 Dy183 2.664 . S
O195 C189 1.268 . S
O196 Dy180 2.351 . S
O196 C199 1.249 . S
O197 Dy183 2.326 . S
O197 C199 1.267 . S
C198 O190 1.249 . S
C198 O191 1.267 . S
C199 O196 1.249 . S
C199 O197 1.267 . S
Dy200 O204 2.398 1_455 S
Dy200 O205 2.491 1_455 S
Dy200 O206 2.403 . S
Dy200 O207 2.664 . S
Dy200 O211 2.326 . S
Dy200 O215 2.310 . S
Dy200 O216 2.351 . S
C201 O212 1.185 . S
C201 O213 1.355 . S
C202 O204 1.185 . S
C202 O205 1.355 . S
Dy203 O207 2.310 . S
Dy203 O210 2.351 1_565 S
Dy203 O212 2.398 . S
Dy203 O213 2.491 . S
Dy203 O214 2.403 . S
Dy203 O215 2.664 . S
Dy203 O217 2.326 . S
O204 Dy200 2.398 1_655 S
O204 C202 1.185 . S
O205 Dy200 2.491 1_655 S
O205 C202 1.355 . S
O206 Dy200 2.403 . S
O206 C208 1.254 . S
O207 Dy200 2.664 . S
O207 Dy203 2.310 . S
O207 C208 1.268 . S
C208 O206 1.254 . S
C208 O207 1.268 . S
C209 O214 1.254 . S
C209 O215 1.268 . S
O210 Dy203 2.351 1_545 S
O210 C218 1.249 . S
O211 Dy200 2.326 . S
O211 C218 1.267 1_565 S
O212 C201 1.185 . S
O212 Dy203 2.398 . S
O213 C201 1.355 . S
O213 Dy203 2.491 . S
O214 Dy203 2.403 . S
O214 C209 1.254 . S
O215 Dy200 2.310 . S
O215 Dy203 2.664 . S
O215 C209 1.268 . S
O216 Dy200 2.351 . S
O216 C219 1.249 . S
O217 Dy203 2.326 . S
O217 C219 1.267 . S
C218 O210 1.249 . S
C218 O211 1.267 1_545 S
C219 O216 1.249 . S
C219 O217 1.267 . S
Dy220 O224 2.398 . S
Dy220 O225 2.491 . S
Dy220 O226 2.403 . S
Dy220 O227 2.664 . S
Dy220 O231 2.326 . S
Dy220 O235 2.310 . S
Dy220 O236 2.351 . S
C221 O232 1.185 . S
C221 O233 1.355 . S
C222 O224 1.185 . S
C222 O225 1.355 . S
Dy223 O227 2.310 . S
Dy223 O230 2.351 1_455 S
Dy223 O232 2.398 . S
Dy223 O233 2.491 . S
Dy223 O234 2.403 . S
Dy223 O235 2.664 . S
Dy223 O237 2.326 . S
O224 Dy220 2.398 . S
O224 C222 1.185 . S
O225 Dy220 2.491 . S
O225 C222 1.355 . S
O226 Dy220 2.403 . S
O226 C228 1.254 . S
O227 Dy220 2.664 . S
O227 Dy223 2.310 . S
O227 C228 1.268 . S
C228 O226 1.254 . S
C228 O227 1.268 . S
C229 O234 1.254 . S
C229 O235 1.268 . S
O230 Dy223 2.351 1_655 S
O230 C238 1.249 . S
O231 Dy220 2.326 . S
O231 C238 1.267 1_455 S
O232 C221 1.185 . S
O232 Dy223 2.398 . S
O233 C221 1.355 . S
O233 Dy223 2.491 . S
O234 Dy223 2.403 . S
O234 C229 1.254 . S
O235 Dy220 2.310 . S
O235 Dy223 2.664 . S
O235 C229 1.268 . S
O236 Dy220 2.351 . S
O236 C239 1.249 . S
O237 Dy223 2.326 . S
O237 C239 1.267 . S
C238 O230 1.249 . S
C238 O231 1.267 1_655 S
C239 O236 1.249 . S
C239 O237 1.267 . S
Dy240 O244 2.398 1_655 S
Dy240 O245 2.491 1_655 S
Dy240 O246 2.403 . S
Dy240 O247 2.664 . S
Dy240 O251 2.326 . S
Dy240 O255 2.310 . S
Dy240 O256 2.351 . S
C241 O252 1.185 . S
C241 O253 1.355 . S
C242 O244 1.185 . S
C242 O245 1.355 . S
Dy243 O247 2.310 . S
Dy243 O250 2.351 . S
Dy243 O252 2.398 . S
Dy243 O253 2.491 . S
Dy243 O254 2.403 . S
Dy243 O255 2.664 . S
Dy243 O257 2.326 . S
O244 Dy240 2.398 1_455 S
O244 C242 1.185 . S
O245 Dy240 2.491 1_455 S
O245 C242 1.355 . S
O246 Dy240 2.403 . S
O246 C248 1.254 . S
O247 Dy240 2.664 . S
O247 Dy243 2.310 . S
O247 C248 1.268 . S
C248 O246 1.254 . S
C248 O247 1.268 . S
C249 O254 1.254 . S
C249 O255 1.268 . S
O250 Dy243 2.351 . S
O250 C258 1.249 . S
O251 Dy240 2.326 . S
O251 C258 1.267 . S
O252 C241 1.185 . S
O252 Dy243 2.398 . S
O253 C241 1.355 . S
O253 Dy243 2.491 . S
O254 Dy243 2.403 . S
O254 C249 1.254 . S
O255 Dy240 2.310 . S
O255 Dy243 2.664 . S
O255 C249 1.268 . S
O256 Dy240 2.351 . S
O256 C259 1.249 . S
O257 Dy243 2.326 . S
O257 C259 1.267 . S
C258 O250 1.249 . S
C258 O251 1.267 . S
C259 O256 1.249 . S
C259 O257 1.267 . S
Dy260 O264 2.398 . S
Dy260 O265 2.491 . S
Dy260 O266 2.403 . S
Dy260 O267 2.664 . S
Dy260 O271 2.326 . S
Dy260 O275 2.310 . S
Dy260 O276 2.351 . S
C261 O272 1.185 . S
C261 O273 1.355 . S
C262 O264 1.185 . S
C262 O265 1.355 . S
Dy263 O267 2.310 . S
Dy263 O270 2.351 1_545 S
Dy263 O272 2.398 . S
Dy263 O273 2.491 . S
Dy263 O274 2.403 . S
Dy263 O275 2.664 . S
Dy263 O277 2.326 . S
O264 Dy260 2.398 . S
O264 C262 1.185 . S
O265 Dy260 2.491 . S
O265 C262 1.355 . S
O266 Dy260 2.403 . S
O266 C268 1.254 . S
O267 Dy260 2.664 . S
O267 Dy263 2.310 . S
O267 C268 1.268 . S
C268 O266 1.254 . S
C268 O267 1.268 . S
C269 O274 1.254 . S
C269 O275 1.268 . S
O270 Dy263 2.351 1_565 S
O270 C278 1.249 . S
O271 Dy260 2.326 . S
O271 C278 1.267 1_545 S
O272 C261 1.185 . S
O272 Dy263 2.398 . S
O273 C261 1.355 . S
O273 Dy263 2.491 . S
O274 Dy263 2.403 . S
O274 C269 1.254 . S
O275 Dy260 2.310 . S
O275 Dy263 2.664 . S
O275 C269 1.268 . S
O276 Dy260 2.351 . S
O276 C279 1.249 . S
O277 Dy263 2.326 . S
O277 C279 1.267 . S
C278 O270 1.249 . S
C278 O271 1.267 1_565 S
C279 O276 1.249 . S
C279 O277 1.267 . S
Dy280 O284 2.398 1_545 S
Dy280 O285 2.491 1_545 S
Dy280 O286 2.403 . S
Dy280 O287 2.664 . S
Dy280 O291 2.326 . S
Dy280 O295 2.310 . S
Dy280 O296 2.351 . S
C281 O292 1.185 . S
C281 O293 1.355 . S
C282 O284 1.185 . S
C282 O285 1.355 . S
Dy283 O287 2.310 . S
Dy283 O290 2.351 1_655 S
Dy283 O292 2.398 . S
Dy283 O293 2.491 . S
Dy283 O294 2.403 . S
Dy283 O295 2.664 . S
Dy283 O297 2.326 . S
O284 Dy280 2.398 1_565 S
O284 C282 1.185 . S
O285 Dy280 2.491 1_565 S
O285 C282 1.355 . S
O286 Dy280 2.403 . S
O286 C288 1.254 . S
O287 Dy280 2.664 . S
O287 Dy283 2.310 . S
O287 C288 1.268 . S
C288 O286 1.254 . S
C288 O287 1.268 . S
C289 O294 1.254 . S
C289 O295 1.268 . S
O290 Dy283 2.351 1_455 S
O290 C298 1.249 . S
O291 Dy280 2.326 . S
O291 C298 1.267 1_655 S
O292 C281 1.185 . S
O292 Dy283 2.398 . S
O293 C281 1.355 . S
O293 Dy283 2.491 . S
O294 Dy283 2.403 . S
O294 C289 1.254 . S
O295 Dy280 2.310 . S
O295 Dy283 2.664 . S
O295 C289 1.268 . S
O296 Dy280 2.351 . S
O296 C299 1.249 . S
O297 Dy283 2.326 . S
O297 C299 1.267 . S
C298 O290 1.249 . S
C298 O291 1.267 1_455 S
C299 O296 1.249 . S
C299 O297 1.267 . S
Dy300 O304 2.398 . S
Dy300 O305 2.491 . S
Dy300 O306 2.403 . S
Dy300 O307 2.664 . S
Dy300 O311 2.326 . S
Dy300 O315 2.310 . S
Dy300 O316 2.351 . S
C301 O312 1.185 . S
C301 O313 1.355 . S
C302 O304 1.185 . S
C302 O305 1.355 . S
Dy303 O307 2.310 . S
Dy303 O310 2.351 . S
Dy303 O312 2.398 1_545 S
Dy303 O313 2.491 1_545 S
Dy303 O314 2.403 . S
Dy303 O315 2.664 . S
Dy303 O317 2.326 . S
O304 Dy300 2.398 . S
O304 C302 1.185 . S
O305 Dy300 2.491 . S
O305 C302 1.355 . S
O306 Dy300 2.403 . S
O306 C308 1.254 . S
O307 Dy300 2.664 . S
O307 Dy303 2.310 . S
O307 C308 1.268 . S
C308 O306 1.254 . S
C308 O307 1.268 . S
C309 O314 1.254 . S
C309 O315 1.268 . S
O310 Dy303 2.351 . S
O310 C318 1.249 . S
O311 Dy300 2.326 . S
O311 C318 1.267 . S
O312 C301 1.185 . S
O312 Dy303 2.398 1_565 S
O313 C301 1.355 . S
O313 Dy303 2.491 1_565 S
O314 Dy303 2.403 . S
O314 C309 1.254 . S
O315 Dy300 2.310 . S
O315 Dy303 2.664 . S
O315 C309 1.268 . S
O316 Dy300 2.351 . S
O316 C319 1.249 . S
O317 Dy303 2.326 . S
O317 C319 1.267 . S
C318 O310 1.249 . S
C318 O311 1.267 . S
C319 O316 1.249 . S
C319 O317 1.267 . S
Dy320 O324 2.398 . S
Dy320 O325 2.491 . S
Dy320 O326 2.403 . S
Dy320 O327 2.664 . S
Dy320 O331 2.326 . S
Dy320 O335 2.310 . S
Dy320 O336 2.351 . S
C321 O332 1.185 . S
C321 O333 1.355 . S
C322 O324 1.185 . S
C322 O325 1.355 . S
Dy323 O327 2.310 1_455 S
Dy323 O330 2.351 1_455 S
Dy323 O332 2.398 . S
Dy323 O333 2.491 . S
Dy323 O334 2.403 1_455 S
Dy323 O335 2.664 1_455 S
Dy323 O337 2.326 1_455 S
O324 Dy320 2.398 . S
O324 C322 1.185 . S
O325 Dy320 2.491 . S
O325 C322 1.355 . S
O326 Dy320 2.403 . S
O326 C328 1.254 . S
O327 Dy320 2.664 . S
O327 Dy323 2.310 1_655 S
O327 C328 1.268 . S
C328 O326 1.254 . S
C328 O327 1.268 . S
C329 O334 1.254 . S
C329 O335 1.268 . S
O330 Dy323 2.351 1_655 S
O330 C338 1.249 . S
O331 Dy320 2.326 . S
O331 C338 1.267 . S
O332 C321 1.185 . S
O332 Dy323 2.398 . S
O333 C321 1.355 . S
O333 Dy323 2.491 . S
O334 Dy323 2.403 1_655 S
O334 C329 1.254 . S
O335 Dy320 2.310 . S
O335 Dy323 2.664 1_655 S
O335 C329 1.268 . S
O336 Dy320 2.351 . S
O336 C339 1.249 . S
O337 Dy323 2.326 1_655 S
O337 C339 1.267 . S
C338 O330 1.249 . S
C338 O331 1.267 . S
C339 O336 1.249 . S
C339 O337 1.267 . S
Dy340 O344 2.398 . S
Dy340 O345 2.491 . S
Dy340 O346 2.403 . S
Dy340 O347 2.664 . S
Dy340 O351 2.326 . S
Dy340 O355 2.310 . S
Dy340 O356 2.351 . S
C341 O352 1.185 . S
C341 O353 1.355 . S
C342 O344 1.185 . S
C342 O345 1.355 . S
Dy343 O347 2.310 . S
Dy343 O350 2.351 . S
Dy343 O352 2.398 . S
Dy343 O353 2.491 . S
Dy343 O354 2.403 . S
Dy343 O355 2.664 . S
Dy343 O357 2.326 . S
O344 Dy340 2.398 . S
O344 C342 1.185 . S
O345 Dy340 2.491 . S
O345 C342 1.355 . S
O346 Dy340 2.403 . S
O346 C348 1.254 . S
O347 Dy340 2.664 . S
O347 Dy343 2.310 . S
O347 C348 1.268 . S
C348 O346 1.254 . S
C348 O347 1.268 . S
C349 O354 1.254 . S
C349 O355 1.268 . S
O350 Dy343 2.351 . S
O350 C358 1.249 . S
O351 Dy340 2.326 . S
O351 C358 1.267 . S
O352 C341 1.185 . S
O352 Dy343 2.398 . S
O353 C341 1.355 . S
O353 Dy343 2.491 . S
O354 Dy343 2.403 . S
O354 C349 1.254 . S
O355 Dy340 2.310 . S
O355 Dy343 2.664 . S
O355 C349 1.268 . S
O356 Dy340 2.351 . S
O356 C359 1.249 . S
O357 Dy343 2.326 . S
O357 C359 1.267 . S
C358 O350 1.249 . S
C358 O351 1.267 . S
C359 O356 1.249 . S
C359 O357 1.267 . S
C19 C41 1.497 . S
C1 C39 1.498 . S
C21 C59 1.498 . S
C79 C81 1.497 . S
C101 C99 1.498 . S
C119 C61 1.498 . S
C161 C139 1.498 . S
C121 C159 1.498 1_545 S
C179 C141 1.498 1_455 S
C201 C199 1.498 . S
C219 C221 1.498 . S
C181 C239 1.498 . S
C259 C281 1.498 . S
C241 C279 1.498 . S
C261 C299 1.498 . S
C321 C319 1.498 . S
C341 C339 1.497 1_565 S
C301 C359 1.498 1_455 S
C9 C109 1.459 1_554 S
C69 C29 1.459 1_556 S
C89 C49 1.459 1_556 S
C129 C229 1.459 . S
C149 C189 1.459 . S
C209 C169 1.459 . S
C249 C349 1.459 . S
C309 C269 1.459 . S
C329 C289 1.459 . S
C208 C8 3.486 . S
C28 C228 3.486 . S
C188 C48 3.487 . S
C68 C288 3.486 . S
C88 C248 3.487 . S
C268 C108 3.486 . S
C328 C128 3.486 1_655 S
C148 C348 3.486 . S
C168 C308 3.486 1_565 S
C42 C18 1.750 . S
C2 C38 1.750 . S
C58 C22 1.750 . S
C82 C78 1.750 . S
C102 C98 1.750 . S
C118 C62 1.750 . S
C162 C138 1.750 . S
C158 C122 1.750 . S
C142 C178 1.750 . S
C198 C202 1.750 . S
C218 C222 1.750 . S
C182 C238 1.750 . S
C258 C282 1.750 . S
C278 C242 1.750 . S
C262 C298 1.750 . S
C318 C322 1.750 . S
C338 C342 1.750 . S
C302 C358 1.750 . S
