# Generated by pormake.
# Topology sml, (6)-cn, num edge types: 1
# Building blocks:
#     Node 0, Type 0, BuildingBlock: BETDIP_clean_sbu_0, # of connection points: 6
#     Node 1, Type 0, BuildingBlock: BETDIP_clean_sbu_0, # of connection points: 6
#     Node 2, Type 0, BuildingBlock: BETDIP_clean_sbu_0, # of connection points: 6
#     Node 3, Type 0, BuildingBlock: BETDIP_clean_sbu_0, # of connection points: 6
#     Node 4, Type 0, BuildingBlock: BETDIP_clean_sbu_0, # of connection points: 6
#     Node 5, Type 0, BuildingBlock: BETDIP_clean_sbu_0, # of connection points: 6
#     Edge 6, Type (0, 0), BuildingBlock: ZUJKAS_clean_linker_0, # of connection points: 2
#     Edge 7, Type (0, 0), BuildingBlock: ZUJKAS_clean_linker_0, # of connection points: 2
#     Edge 8, Type (0, 0), BuildingBlock: ZUJKAS_clean_linker_0, # of connection points: 2
#     Edge 9, Type (0, 0), BuildingBlock: ZUJKAS_clean_linker_0, # of connection points: 2
#     Edge 10, Type (0, 0), BuildingBlock: ZUJKAS_clean_linker_0, # of connection points: 2
#     Edge 11, Type (0, 0), BuildingBlock: ZUJKAS_clean_linker_0, # of connection points: 2
#     Edge 12, Type (0, 0), BuildingBlock: ZUJKAS_clean_linker_0, # of connection points: 2
#     Edge 13, Type (0, 0), BuildingBlock: ZUJKAS_clean_linker_0, # of connection points: 2
#     Edge 14, Type (0, 0), BuildingBlock: ZUJKAS_clean_linker_0, # of connection points: 2
#     Edge 15, Type (0, 0), BuildingBlock: ZUJKAS_clean_linker_0, # of connection points: 2
#     Edge 16, Type (0, 0), BuildingBlock: ZUJKAS_clean_linker_0, # of connection points: 2
#     Edge 17, Type (0, 0), BuildingBlock: ZUJKAS_clean_linker_0, # of connection points: 2
#     Edge 18, Type (0, 0), BuildingBlock: ZUJKAS_clean_linker_0, # of connection points: 2
#     Edge 19, Type (0, 0), BuildingBlock: ZUJKAS_clean_linker_0, # of connection points: 2
#     Edge 20, Type (0, 0), BuildingBlock: ZUJKAS_clean_linker_0, # of connection points: 2
#     Edge 21, Type (0, 0), BuildingBlock: ZUJKAS_clean_linker_0, # of connection points: 2
#     Edge 22, Type (0, 0), BuildingBlock: ZUJKAS_clean_linker_0, # of connection points: 2
#     Edge 23, Type (0, 0), BuildingBlock: ZUJKAS_clean_linker_0, # of connection points: 2
# Relax obj value: 0.224
# Max RMSD: 0.234
# Mean RMSD: 0.234
data_MOF--net-sml--node1-BETDIP_clean_sbu_0--edge1-ZUJKAS_clean_linker_0
_symmetry_space_group_name_H-M    P1
_symmetry_Int_Tables_number       1
_symmetry_cell_setting            triclinic
loop_
_symmetry_equiv_pos_as_xyz
'x, y, z'
_cell_length_a     44.062616
_cell_length_b     44.087759
_cell_length_c     29.821035
_cell_angle_alpha  89.986756
_cell_angle_beta   90.011124
_cell_angle_gamma 120.01629
loop_
_atom_site_label
_atom_site_type_symbol
_atom_site_fract_x
_atom_site_fract_y
_atom_site_fract_z
_atom_type_partial_charge
Tb0 Tb 0.1935 0.43274 0.96653 0.0
Tb1 Tb 0.21649 0.40978 0.05015 0.0
C2 C 0.18828 0.4528 0.88936 0.0
C3 C 0.19215 0.44562 0.84172 0.0
C4 C 0.22455 0.46447 0.81953 0.0
C5 C 0.22723 0.45976 0.77355 0.0
C6 C 0.19749 0.43637 0.74865 0.0
C7 C 0.16529 0.41707 0.77107 0.0
C8 C 0.16263 0.42172 0.81695 0.0
C9 C 0.14314 0.39124 0.02095 0.0
C10 C 0.21167 0.37059 0.96218 0.0
C11 C 0.22148 0.38979 0.12749 0.0
C12 C 0.21825 0.39732 0.17518 0.0
C13 C 0.18565 0.38072 0.19723 0.0
C14 C 0.18353 0.38557 0.24331 0.0
C15 C 0.21395 0.40696 0.26841 0.0
C16 C 0.24638 0.42412 0.24604 0.0
C17 C 0.24851 0.41923 0.20012 0.0
C18 C 0.26674 0.45236 0.99582 0.0
C19 C 0.19953 0.47239 0.05497 0.0
O20 O 0.21677 0.46867 0.91381 0.0
O21 O 0.16188 0.42791 0.9115 0.0
O22 O 0.16977 0.38894 0.01129 0.0
O23 O 0.14292 0.41596 0.99768 0.0
O24 O 0.20762 0.3947 0.94066 0.0
O25 O 0.21153 0.36858 0.00638 0.0
O26 O 0.19279 0.37433 0.10329 0.0
O27 O 0.248 0.41428 0.10512 0.0
O28 O 0.23955 0.45334 0.00556 0.0
O29 O 0.26855 0.42903 0.02025 0.0
O30 O 0.20175 0.44715 0.07622 0.0
O31 O 0.20064 0.47494 0.01071 0.0
H32 H 0.2477 0.4835 0.83741 0.0
H33 H 0.25235 0.47533 0.75724 0.0
H34 H 0.14197 0.3985 0.75305 0.0
H35 H 0.1372 0.40702 0.83283 0.0
H36 H 0.16185 0.36333 0.17917 0.0
H37 H 0.15817 0.37164 0.2595 0.0
H38 H 0.27027 0.44121 0.26412 0.0
H39 H 0.27407 0.43216 0.1843 0.0
Tb40 Tb 0.75775 0.18722 0.29423 0.0
Tb41 Tb 0.80263 0.21385 0.3781 0.0
C42 C 0.73274 0.17914 0.21639 0.0
C43 C 0.74481 0.18441 0.16915 0.0
C44 C 0.75778 0.21714 0.14804 0.0
C45 C 0.76612 0.22102 0.10235 0.0
C46 C 0.76162 0.19227 0.07672 0.0
C47 C 0.74934 0.15976 0.09808 0.0
C48 C 0.7409 0.15585 0.14368 0.0
C49 C 0.75134 0.13861 0.35024 0.0
C50 C 0.83962 0.21109 0.29153 0.0
C51 C 0.82791 0.2227 0.45585 0.0
C52 C 0.81636 0.2171 0.50328 0.0
C53 C 0.80309 0.18418 0.52396 0.0
C54 C 0.7955 0.18024 0.5699 0.0
C55 C 0.80101 0.2091 0.5961 0.0
C56 C 0.81356 0.24178 0.57514 0.0
C57 C 0.82129 0.24576 0.52937 0.0
C58 C 0.80673 0.26215 0.32241 0.0
C59 C 0.72148 0.19127 0.38121 0.0
O60 O 0.74217 0.20716 0.24076 0.0
O61 O 0.73414 0.15435 0.23889 0.0
O62 O 0.7795 0.16629 0.34087 0.0
O63 O 0.72603 0.13638 0.32569 0.0
O64 O 0.81101 0.20502 0.26936 0.0
O65 O 0.84123 0.21176 0.33575 0.0
O66 O 0.81973 0.19499 0.43129 0.0
O67 O 0.82482 0.24666 0.43372 0.0
O68 O 0.77975 0.23388 0.33249 0.0
O69 O 0.83285 0.26549 0.34617 0.0
O70 O 0.74929 0.19494 0.4032 0.0
O71 O 0.72053 0.19213 0.33689 0.0
H72 H 0.76089 0.23966 0.16655 0.0
H73 H 0.77586 0.2465 0.08701 0.0
H74 H 0.74508 0.13697 0.07921 0.0
H75 H 0.73049 0.13018 0.15874 0.0
H76 H 0.79918 0.16157 0.50494 0.0
H77 H 0.78555 0.15464 0.58498 0.0
H78 H 0.8186 0.26466 0.59443 0.0
H79 H 0.83198 0.27156 0.5146 0.0
Tb80 Tb 0.56671 0.75941 0.63124 0.0
Tb81 Tb 0.58769 0.80406 0.71553 0.0
C82 C 0.54812 0.73391 0.55381 0.0
C83 C 0.55522 0.74434 0.50623 0.0
C84 C 0.55782 0.77552 0.49012 0.0
C85 C 0.56298 0.78356 0.44425 0.0
C86 C 0.56587 0.76069 0.41381 0.0
C87 C 0.56374 0.72982 0.43038 0.0
C88 C 0.55843 0.72175 0.47602 0.0
C89 C 0.61001 0.75243 0.68477 0.0
C90 C 0.62631 0.84052 0.62806 0.0
C91 C 0.60687 0.82956 0.79286 0.0
C92 C 0.59924 0.81953 0.84052 0.0
C93 C 0.5964 0.78845 0.85744 0.0
C94 C 0.59116 0.78097 0.90343 0.0
C95 C 0.58845 0.8043 0.93321 0.0
C96 C 0.59071 0.83503 0.91584 0.0
C97 C 0.59611 0.84254 0.87007 0.0
C98 C 0.54288 0.80935 0.66233 0.0
C99 C 0.52696 0.72347 0.71901 0.0
O100 O 0.53167 0.74627 0.57746 0.0
O101 O 0.57355 0.73373 0.57622 0.0
O102 O 0.61067 0.78072 0.67594 0.0
O103 O 0.5859 0.7272 0.66123 0.0
O104 O 0.60194 0.81269 0.60629 0.0
O105 O 0.62895 0.84117 0.67222 0.0
O106 O 0.62221 0.8158 0.76962 0.0
O107 O 0.58234 0.83115 0.77007 0.0
O108 O 0.54363 0.78195 0.67158 0.0
O109 O 0.56674 0.83525 0.68536 0.0
O110 O 0.55135 0.75123 0.74086 0.0
O111 O 0.52501 0.72249 0.67467 0.0
H112 H 0.5556 0.79349 0.51283 0.0
H113 H 0.56485 0.80771 0.43263 0.0
H114 H 0.56533 0.71137 0.40789 0.0
H115 H 0.55636 0.69751 0.48771 0.0
H116 H 0.59857 0.77015 0.83529 0.0
H117 H 0.58917 0.75691 0.91567 0.0
H118 H 0.58924 0.8538 0.93782 0.0
H119 H 0.59839 0.86673 0.85778 0.0
Tb120 Tb 0.80825 0.56904 0.9611 0.0
Tb121 Tb 0.78336 0.58985 0.04478 0.0
C122 C 0.81774 0.55238 0.8838 0.0
C123 C 0.81168 0.55758 0.83619 0.0
C124 C 0.78007 0.53445 0.81445 0.0
C125 C 0.776 0.53774 0.76843 0.0
C126 C 0.80359 0.56397 0.74308 0.0
C127 C 0.83486 0.58751 0.76508 0.0
C128 C 0.83889 0.58428 0.81098 0.0
C129 C 0.85748 0.60964 0.01775 0.0
C130 C 0.78793 0.62937 0.95731 0.0
C131 C 0.77714 0.60866 0.12235 0.0
C132 C 0.78047 0.60095 0.16994 0.0
C133 C 0.81177 0.62172 0.19366 0.0
C134 C 0.81376 0.61671 0.23969 0.0
C135 C 0.78441 0.59098 0.26313 0.0
C136 C 0.75339 0.5697 0.23914 0.0
C137 C 0.75139 0.5747 0.19319 0.0
C138 C 0.73384 0.54857 0.98859 0.0
C139 C 0.80028 0.52719 0.04822 0.0
O140 O 0.79038 0.53228 0.90865 0.0
O141 O 0.84114 0.58005 0.90557 0.0
O142 O 0.83088 0.6118 0.00755 0.0
O143 O 0.85821 0.58544 0.99403 0.0
O144 O 0.79076 0.60458 0.93574 0.0
O145 O 0.78955 0.63193 1.00151 0.0
O146 O 0.80594 0.62485 0.09857 0.0
O147 O 0.7511 0.58409 0.09945 0.0
O148 O 0.76105 0.54746 0.99815 0.0
O149 O 0.7315 0.57084 0.0146 0.0
O150 O 0.79759 0.55192 0.07013 0.0
O151 O 0.80041 0.52588 1.00389 0.0
H152 H 0.75876 0.51325 0.83268 0.0
H153 H 0.75169 0.51897 0.75242 0.0
H154 H 0.85644 0.60831 0.7467 0.0
H155 H 0.86371 0.60234 0.82652 0.0
H156 H 0.83452 0.64248 0.17692 0.0
H157 H 0.83794 0.63383 0.25719 0.0
H158 H 0.73045 0.54931 0.25598 0.0
H159 H 0.72676 0.5584 0.17612 0.0
Tb160 Tb 0.24194 0.80877 0.29156 0.0
Tb161 Tb 0.19723 0.78936 0.37584 0.0
C162 C 0.26629 0.8121 0.21415 0.0
C163 C 0.25507 0.80871 0.16666 0.0
C164 C 0.23285 0.77584 0.14707 0.0
C165 C 0.22479 0.7732 0.10128 0.0
C166 C 0.23871 0.80333 0.07413 0.0
C167 C 0.26047 0.83616 0.09397 0.0
C168 C 0.26866 0.83878 0.13959 0.0
C169 C 0.2502 0.86129 0.34128 0.0
C170 C 0.16125 0.78922 0.28708 0.0
C171 C 0.17328 0.78766 0.45305 0.0
C172 C 0.18405 0.79051 0.50069 0.0
C173 C 0.20543 0.82325 0.52108 0.0
C174 C 0.21291 0.82546 0.56702 0.0
C175 C 0.19921 0.79501 0.59356 0.0
C176 C 0.17828 0.76232 0.57293 0.0
C177 C 0.17069 0.76013 0.52715 0.0
C178 C 0.19117 0.73674 0.32719 0.0
C179 C 0.27716 0.80682 0.38074 0.0
O180 O 0.25231 0.78373 0.23886 0.0
O181 O 0.26956 0.83931 0.23604 0.0
O182 O 0.22152 0.83387 0.33321 0.0
O183 O 0.27525 0.86083 0.31917 0.0
O184 O 0.18879 0.79122 0.26619 0.0
O185 O 0.16073 0.79301 0.33095 0.0
O186 O 0.18876 0.81599 0.42829 0.0
O187 O 0.16839 0.75979 0.43128 0.0
O188 O 0.21871 0.76508 0.33511 0.0
O189 O 0.16539 0.73592 0.34922 0.0
O190 O 0.24988 0.80539 0.40167 0.0
O191 O 0.27786 0.80367 0.33663 0.0
H192 H 0.22206 0.75209 0.16689 0.0
H193 H 0.20771 0.74754 0.08709 0.0
H194 H 0.27208 0.85984 0.07395 0.0
H195 H 0.28623 0.8644 0.15355 0.0
H196 H 0.21596 0.84724 0.50179 0.0
H197 H 0.22936 0.85103 0.5818 0.0
H198 H 0.16681 0.7384 0.59244 0.0
H199 H 0.15368 0.73457 0.51263 0.0
Tb200 Tb 0.43077 0.24021 0.6291 0.0
Tb201 Tb 0.40982 0.19458 0.71276 0.0
C202 C 0.44895 0.26621 0.55188 0.0
C203 C 0.44171 0.25586 0.50418 0.0
C204 C 0.44596 0.22878 0.48601 0.0
C205 C 0.44137 0.22156 0.43993 0.0
C206 C 0.43247 0.24128 0.41116 0.0
C207 C 0.42734 0.26767 0.42985 0.0
C208 C 0.43203 0.27492 0.47573 0.0
C209 C 0.38888 0.2476 0.68443 0.0
C210 C 0.37112 0.15905 0.62487 0.0
C211 C 0.39017 0.16873 0.78977 0.0
C212 C 0.39639 0.17842 0.83776 0.0
C213 C 0.39054 0.20436 0.85638 0.0
C214 C 0.39408 0.21075 0.90269 0.0
C215 C 0.40345 0.19128 0.93123 0.0
C216 C 0.41009 0.166 0.91216 0.0
C217 C 0.40648 0.1596 0.86606 0.0
C218 C 0.45389 0.18913 0.65835 0.0
C219 C 0.47137 0.27482 0.71681 0.0
O220 O 0.46582 0.25415 0.57525 0.0
O221 O 0.42357 0.26618 0.57468 0.0
O222 O 0.38731 0.21906 0.67448 0.0
O223 O 0.41316 0.27294 0.66121 0.0
O224 O 0.39453 0.18755 0.60331 0.0
O225 O 0.36927 0.15716 0.66906 0.0
O226 O 0.37398 0.1812 0.76567 0.0
O227 O 0.41586 0.16858 0.76796 0.0
O228 O 0.45341 0.21656 0.66818 0.0
O229 O 0.43036 0.16326 0.68179 0.0
O230 O 0.44674 0.24713 0.73856 0.0
O231 O 0.47314 0.27608 0.67247 0.0
H232 H 0.45343 0.2136 0.50715 0.0
H233 H 0.44576 0.2012 0.42668 0.0
H234 H 0.41979 0.2829 0.40897 0.0
H235 H 0.42856 0.29589 0.48895 0.0
H236 H 0.38262 0.21927 0.83539 0.0
H237 H 0.38852 0.23023 0.91626 0.0
H238 H 0.41801 0.15099 0.93291 0.0
H239 H 0.41109 0.13944 0.85254 0.0
H240 H 0.4083 0.30588 0.73305 0.0
H241 H 0.37236 0.3177 0.78433 0.0
H242 H 0.2854 0.21336 0.76209 0.0
H243 H 0.32231 0.20087 0.71237 0.0
H244 H 0.31751 0.32086 0.76119 0.0
H245 H 0.27822 0.22065 0.89483 0.0
H246 H 0.3123 0.22913 0.85485 0.0
H247 H 0.26693 0.20234 0.83951 0.0
C248 C 0.38169 0.28527 0.73977 0.0
C249 C 0.36785 0.25259 0.71872 0.0
C250 C 0.36115 0.29203 0.76903 0.0
C251 C 0.32611 0.26646 0.77719 0.0
C252 C 0.31252 0.23329 0.75711 0.0
H253 H 0.19388 0.34895 0.87538 0.0
H254 H 0.21537 0.31754 0.82949 0.0
C255 C 0.33348 0.22623 0.72851 0.0
C256 C 0.30354 0.27613 0.80342 0.0
H257 H 0.25021 0.2548 0.89505 0.0
C258 C 0.30284 0.3064 0.79052 0.0
C259 C 0.28451 0.25736 0.84178 0.0
C260 C 0.28573 0.22577 0.85889 0.0
C261 C 0.28466 0.31913 0.81549 0.0
C262 C 0.26491 0.29998 0.85332 0.0
C263 C 0.26493 0.26921 0.86572 0.0
C264 C 0.24667 0.31321 0.88244 0.0
C265 C 0.28845 0.35394 0.8022 0.0
C266 C 0.25488 0.31877 0.92829 0.0
C267 C 0.24165 0.33558 0.95486 0.0
C268 C 0.2204 0.34762 0.93592 0.0
C269 C 0.21059 0.34033 0.89067 0.0
C270 C 0.22309 0.32265 0.86437 0.0
H271 H 0.31197 0.36948 0.78094 0.0
H272 H 0.26518 0.34935 0.78246 0.0
H273 H 0.29053 0.36985 0.83212 0.0
H274 H 0.27286 0.31159 0.94312 0.0
H275 H 0.24975 0.34092 0.98963 0.0
H276 H 0.12587 0.32583 0.05131 0.0
H277 H 0.07478 0.28676 0.09761 0.0
H278 H 0.04827 0.36831 0.10967 0.0
H279 H 0.09804 0.40654 0.06225 0.0
H280 H 0.05217 0.28855 0.1811 0.0
H281 H 0.95924 0.29016 0.05834 0.0
H282 H 0.00506 0.30781 0.04569 0.0
H283 H 0.99048 0.33381 0.07547 0.0
C284 C 0.10909 0.33528 0.06411 0.0
C285 C 0.1153 0.36881 0.05264 0.0
C286 C 0.08 0.31303 0.09047 0.0
C287 C 0.05707 0.32425 0.10587 0.0
C288 C 0.06481 0.35862 0.09678 0.0
H289 H 0.90713 0.2531 0.31809 0.0
H290 H 0.95984 0.27489 0.27245 0.0
C291 C 0.09336 0.38051 0.06993 0.0
C292 C 0.02454 0.30017 0.13055 0.0
H293 H 0.93705 0.27191 0.13298 0.0
C294 C 0.02686 0.28442 0.17033 0.0
C295 C 0.99134 0.29385 0.11581 0.0
C296 C 0.98631 0.30698 0.07121 0.0
C297 C 0.99713 0.26416 0.19703 0.0
C298 C 0.96449 0.26061 0.18432 0.0
C299 C 0.962 0.27487 0.14329 0.0
C300 C 0.93299 0.24415 0.21373 0.0
C301 C 0.00115 0.24675 0.23837 0.0
C302 C 0.89998 0.2201 0.19591 0.0
C303 C 0.86959 0.20854 0.22156 0.0
C304 C 0.87171 0.22028 0.26582 0.0
C305 C 0.90477 0.24318 0.28427 0.0
C306 C 0.93504 0.25542 0.25827 0.0
H307 H 0.02227 0.24022 0.23379 0.0
H308 H 0.00873 0.26511 0.26711 0.0
H309 H 0.97646 0.22237 0.24681 0.0
H310 H 0.89759 0.21106 0.16162 0.0
H311 H 0.84442 0.19087 0.20653 0.0
H312 H 0.80205 0.13175 0.3953 0.0
H313 H 0.79254 0.08623 0.45046 0.0
H314 H 0.68073 0.04092 0.43563 0.0
H315 H 0.69001 0.08632 0.3817 0.0
H316 H 0.70391 0.0479 0.5257 0.0
H317 H 0.75641 0.98209 0.4167 0.0
H318 H 0.78422 0.02819 0.42723 0.0
H319 H 0.745 0.01326 0.39478 0.0
C320 C 0.77552 0.11224 0.4043 0.0
C321 C 0.74675 0.11246 0.38433 0.0
C322 C 0.77013 0.08616 0.43545 0.0
C323 C 0.73592 0.06005 0.44673 0.0
C324 C 0.70732 0.0608 0.42735 0.0
H325 H 0.62443 0.85187 0.53816 0.0
H326 H 0.6574 0.90719 0.49786 0.0
C327 C 0.71267 0.08667 0.3964 0.0
C328 C 0.72907 0.03116 0.4779 0.0
H329 H 0.72952 0.95404 0.48414 0.0
C330 C 0.71003 0.02764 0.51714 0.0
C331 C 0.73687 0.00471 0.46624 0.0
C332 C 0.75657 0.0069 0.42386 0.0
C333 C 0.69716 0.99761 0.54407 0.0
C334 C 0.70411 0.97066 0.53177 0.0
C335 C 0.72441 0.97484 0.49352 0.0
C336 C 0.68748 0.9366 0.55559 0.0
C337 C 0.67451 0.99409 0.58396 0.0
C338 C 0.69425 0.93455 0.60112 0.0
C339 C 0.67528 0.90296 0.62441 0.0
C340 C 0.64939 0.87279 0.60243 0.0
C341 C 0.64406 0.87456 0.55622 0.0
C342 C 0.66293 0.90617 0.53306 0.0
H343 H 0.66627 0.01414 0.58377 0.0
H344 H 0.65067 0.96773 0.58469 0.0
H345 H 0.68947 0.99737 0.61526 0.0
H346 H 0.71355 0.9576 0.61892 0.0
H347 H 0.68029 0.90247 0.65988 0.0
H348 H 0.6694 0.80306 0.72666 0.0
H349 H 0.70672 0.79362 0.77971 0.0
H350 H 0.63879 0.68187 0.76755 0.0
H351 H 0.60136 0.6911 0.71569 0.0
H352 H 0.65716 0.70569 0.85663 0.0
H353 H 0.7733 0.75655 0.7439 0.0
H354 H 0.75579 0.78492 0.75512 0.0
H355 H 0.73038 0.74547 0.72352 0.0
C356 C 0.66239 0.77656 0.73576 0.0
C357 C 0.63254 0.74779 0.71724 0.0
C358 C 0.68381 0.7712 0.76568 0.0
C359 C 0.67564 0.73703 0.77717 0.0
C360 C 0.64556 0.70843 0.75909 0.0
H361 H 0.77433 0.627 0.86751 0.0
H362 H 0.75163 0.6596 0.82713 0.0
C363 C 0.62428 0.71374 0.72935 0.0
C364 C 0.6982 0.73029 0.80755 0.0
H365 H 0.77609 0.7312 0.81195 0.0
C366 C 0.68341 0.71175 0.84734 0.0
C367 C 0.73227 0.73803 0.79496 0.0
C368 C 0.74898 0.75714 0.75195 0.0
C369 C 0.70116 0.69938 0.874 0.0
C370 C 0.73492 0.70636 0.86087 0.0
C371 C 0.7503 0.7261 0.82198 0.0
C372 C 0.75294 0.69025 0.88452 0.0
C373 C 0.68277 0.67724 0.91455 0.0
C374 C 0.76231 0.69753 0.92985 0.0
C375 C 0.77515 0.67877 0.95319 0.0
C376 C 0.77906 0.65259 0.93147 0.0
C377 C 0.77155 0.64686 0.88538 0.0
C378 C 0.75861 0.66553 0.86217 0.0
H379 H 0.6544 0.66878 0.91499 0.0
H380 H 0.68554 0.65356 0.91558 0.0
H381 H 0.69482 0.69267 0.94541 0.0
H382 H 0.75874 0.717 0.94748 0.0
H383 H 0.78097 0.68409 0.98856 0.0
H384 H 0.09979 0.78341 0.31723 0.0
H385 H 0.0445 0.76026 0.27629 0.0
H386 H 0.09399 0.74906 0.15768 0.0
H387 H 0.14949 0.77262 0.19796 0.0
H388 H 0.0474 0.77425 0.14038 0.0
H389 H 0.98721 0.65506 0.24797 0.0
H390 H 0.00451 0.69619 0.27685 0.0
H391 H 0.03372 0.68566 0.2477 0.0
C392 C 0.09909 0.77646 0.28226 0.0
C393 C 0.12903 0.77953 0.26103 0.0
C394 C 0.0674 0.7631 0.259 0.0
C395 C 0.06503 0.75237 0.21425 0.0
C396 C 0.09525 0.75708 0.1923 0.0
H397 H 0.90863 0.59905 0.05006 0.0
H398 H 0.95605 0.63629 0.10117 0.0
C399 C 0.12697 0.77053 0.21544 0.0
C400 C 0.0308 0.73417 0.19086 0.0
H401 H 0.95276 0.65727 0.18946 0.0
C402 C 0.02647 0.74888 0.15133 0.0
C403 C 0.00371 0.70096 0.2052 0.0
C404 C 0.00743 0.68328 0.24654 0.0
C405 C 0.99615 0.73074 0.12495 0.0
C406 C 0.96942 0.69724 0.13885 0.0
C407 C 0.97325 0.68309 0.17917 0.0
C408 C 0.93944 0.67458 0.10944 0.0
C409 C 0.99373 0.74671 0.08129 0.0
C410 C 0.91406 0.68356 0.09759 0.0
C411 C 0.88688 0.66226 0.0681 0.0
C412 C 0.88474 0.63172 0.05039 0.0
C413 C 0.90975 0.62253 0.06308 0.0
C414 C 0.93677 0.6437 0.09239 0.0
H415 H 0.01894 0.77032 0.07217 0.0
H416 H 0.98582 0.72734 0.05364 0.0
H417 H 0.97344 0.75449 0.08428 0.0
H418 H 0.91545 0.70708 0.11086 0.0
H419 H 0.868 0.66999 0.05856 0.0
H420 H 0.34453 0.09135 0.65124 0.0
H421 H 0.31622 0.03912 0.60408 0.0
H422 H 0.3176 0.10217 0.49251 0.0
H423 H 0.34793 0.15487 0.53893 0.0
H424 H 0.25874 0.00366 0.55713 0.0
H425 H 0.37176 0.06111 0.44022 0.0
H426 H 0.37208 0.08198 0.49222 0.0
H427 H 0.35042 0.08657 0.44358 0.0
C428 C 0.33839 0.09402 0.6168 0.0
C429 C 0.34881 0.12718 0.59853 0.0
C430 C 0.32218 0.06412 0.58985 0.0
C431 C 0.31564 0.0668 0.54435 0.0
C432 C 0.3235 0.0996 0.52706 0.0
H433 H 0.2038 0.88094 0.37108 0.0
H434 H 0.21657 0.92974 0.42203 0.0
C435 C 0.34056 0.12965 0.55368 0.0
C436 C 0.30294 0.03574 0.51463 0.0
H437 H 0.32354 0.00666 0.41977 0.0
C438 C 0.27288 0.00427 0.52706 0.0
C439 C 0.32179 0.03634 0.47584 0.0
C440 C 0.35598 0.06818 0.4624 0.0
C441 C 0.26136 0.97338 0.50202 0.0
C442 C 0.27969 0.97435 0.4626 0.0
C443 C 0.30936 0.00595 0.44986 0.0
C444 C 0.27018 0.94281 0.43497 0.0
C445 C 0.23059 0.93981 0.51903 0.0
C446 C 0.29601 0.93405 0.42501 0.0
C447 C 0.28905 0.90707 0.39512 0.0
C448 C 0.25594 0.88787 0.37513 0.0
C449 C 0.2295 0.89543 0.38634 0.0
C450 C 0.23671 0.92308 0.41567 0.0
H451 H 0.22595 0.9414 0.55536 0.0
H452 H 0.2066 0.93481 0.5007 0.0
H453 H 0.23465 0.91718 0.51352 0.0
H454 H 0.32194 0.9487 0.43964 0.0
H455 H 0.30975 0.90143 0.38736 0.0
H456 H 0.15098 0.43238 0.68493 0.0
H457 H 0.15411 0.42675 0.60375 0.0
H458 H 0.2523 0.42853 0.6188 0.0
H459 H 0.24897 0.4333 0.70034 0.0
H460 H 0.20721 0.47314 0.54463 0.0
H461 H 0.19285 0.34056 0.54189 0.0
H462 H 0.18206 0.35773 0.59049 0.0
H463 H 0.22702 0.37173 0.57774 0.0
C464 C 0.17303 0.43107 0.67109 0.0
C465 C 0.19959 0.43298 0.69922 0.0
C466 C 0.17488 0.42811 0.62464 0.0
C467 C 0.20318 0.42676 0.60529 0.0
C468 C 0.22993 0.42895 0.63311 0.0
H469 H 0.25925 0.408 0.33208 0.0
H470 H 0.25682 0.41412 0.41319 0.0
C471 C 0.22816 0.43202 0.67965 0.0
C472 C 0.20495 0.42383 0.55589 0.0
H473 H 0.20556 0.37087 0.47274 0.0
C474 C 0.20675 0.45075 0.52884 0.0
C475 C 0.20437 0.3946 0.53544 0.0
C476 C 0.20117 0.36432 0.56276 0.0
C477 C 0.20858 0.44952 0.48189 0.0
C478 C 0.20785 0.42021 0.4614 0.0
C479 C 0.20608 0.3933 0.48848 0.0
C480 C 0.20929 0.41709 0.41194 0.0
C481 C 0.21211 0.48002 0.45474 0.0
C482 C 0.18317 0.41639 0.38421 0.0
C483 C 0.18466 0.41323 0.33765 0.0
C484 C 0.2122 0.41049 0.31791 0.0
C485 C 0.23805 0.41076 0.34596 0.0
C486 C 0.23656 0.41396 0.39242 0.0
H487 H 0.22161 0.504 0.47552 0.0
H488 H 0.23043 0.48594 0.42621 0.0
H489 H 0.18609 0.47331 0.44097 0.0
H490 H 0.16149 0.41806 0.39859 0.0
H491 H 0.16441 0.41326 0.3171 0.0
H492 H 0.74389 0.2274 0.01603 0.0
H493 H 0.75142 0.23006 0.93459 0.0
H494 H 0.80112 0.16732 0.94443 0.0
H495 H 0.7938 0.1646 0.02598 0.0
H496 H 0.81206 0.25507 0.88223 0.0
H497 H 0.72205 0.11289 0.85415 0.0
H498 H 0.72371 0.13417 0.90655 0.0
H499 H 0.75672 0.12297 0.89345 0.0
C500 C 0.7568 0.2145 1.00096 0.0
C501 C 0.76808 0.19562 0.02751 0.0
C502 C 0.7609 0.21589 0.95438 0.0
C503 C 0.77623 0.19835 0.93339 0.0
C504 C 0.78844 0.18033 0.95985 0.0
H505 H 0.81903 0.17338 0.65548 0.0
H506 H 0.81296 0.17092 0.73718 0.0
C507 C 0.78428 0.17885 0.00643 0.0
C508 C 0.77939 0.19896 0.88382 0.0
H509 H 0.75367 0.14646 0.79105 0.0
C510 C 0.79923 0.23136 0.86225 0.0
C511 C 0.76262 0.16795 0.85787 0.0
C512 C 0.73981 0.13252 0.87904 0.0
C513 C 0.8032 0.23357 0.81542 0.0
C514 C 0.78631 0.20258 0.78945 0.0
C515 C 0.76657 0.17017 0.81104 0.0
C516 C 0.78884 0.20324 0.73979 0.0
C517 C 0.82606 0.26901 0.79429 0.0
C518 C 0.77651 0.22151 0.71407 0.0
C519 C 0.77984 0.22288 0.66738 0.0
C520 C 0.79531 0.20573 0.64545 0.0
C521 C 0.80669 0.18658 0.67126 0.0
C522 C 0.80343 0.18532 0.71797 0.0
H523 H 0.84426 0.28842 0.81906 0.0
H524 H 0.84169 0.26728 0.76623 0.0
H525 H 0.80921 0.27891 0.78068 0.0
H526 H 0.76433 0.23477 0.73013 0.0
H527 H 0.77028 0.23735 0.64842 0.0
H528 H 0.60889 0.75213 0.35524 0.0
H529 H 0.61285 0.76046 0.27392 0.0
H530 H 0.5363 0.79403 0.27981 0.0
H531 H 0.53216 0.78573 0.36123 0.0
H532 H 0.55953 0.72685 0.21192 0.0
H533 H 0.61373 0.87064 0.20412 0.0
H534 H 0.61389 0.8485 0.25497 0.0
H535 H 0.57454 0.8477 0.23706 0.0
C536 C 0.59295 0.76138 0.33927 0.0
C537 C 0.57018 0.76825 0.36479 0.0
C538 C 0.59533 0.76623 0.29279 0.0
C539 C 0.57516 0.77821 0.27077 0.0
C540 C 0.55269 0.78548 0.29614 0.0
H541 H 0.54584 0.8139 0.9914 0.0
H542 H 0.5419 0.80619 0.07285 0.0
C543 C 0.55035 0.78073 0.34272 0.0
C544 C 0.57651 0.7815 0.22108 0.0
H545 H 0.59477 0.83958 0.13538 0.0
C546 C 0.5674 0.75153 0.19517 0.0
C547 C 0.58666 0.81369 0.19926 0.0
C548 C 0.59808 0.84706 0.22521 0.0
C549 C 0.56762 0.75273 0.14806 0.0
C550 C 0.57783 0.78493 0.12622 0.0
C551 C 0.58689 0.81489 0.15214 0.0
C552 C 0.57939 0.78821 0.07654 0.0
C553 C 0.55615 0.71933 0.12214 0.0
C554 C 0.6018 0.78068 0.05144 0.0
C555 C 0.60411 0.78505 0.00482 0.0
C556 C 0.58432 0.79741 0.98239 0.0
C557 C 0.56172 0.80468 0.00764 0.0
C558 C 0.55936 0.80021 0.0542 0.0
H559 H 0.54029 0.69577 0.14318 0.0
H560 H 0.54051 0.71799 0.09222 0.0
H561 H 0.57966 0.71853 0.11056 0.0
H562 H 0.61811 0.77215 0.06802 0.0
H563 H 0.62221 0.77978 0.98653 0.0
H564 H 0.74735 0.55694 0.6947 0.0
H565 H 0.74266 0.55989 0.61301 0.0
H566 H 0.84823 0.57928 0.59821 0.0
H567 H 0.85287 0.57557 0.67941 0.0
H568 H 0.78598 0.61672 0.5548 0.0
H569 H 0.79102 0.4967 0.51252 0.0
H570 H 0.78175 0.50562 0.56842 0.0
H571 H 0.82606 0.52702 0.54802 0.0
C572 C 0.76943 0.56149 0.67399 0.0
C573 C 0.80048 0.56601 0.6936 0.0
C574 C 0.76677 0.56334 0.62739 0.0
C575 C 0.79494 0.56934 0.59955 0.0
C576 C 0.82599 0.57407 0.61901 0.0
H577 H 0.83786 0.59388 0.31379 0.0
H578 H 0.84011 0.58934 0.39547 0.0
C579 C 0.82872 0.57235 0.6655 0.0
C580 C 0.79229 0.57148 0.55018 0.0
H581 H 0.79603 0.5338 0.45179 0.0
C582 C 0.78791 0.59847 0.53224 0.0
C583 C 0.795 0.54771 0.52087 0.0
C584 C 0.79841 0.51742 0.53832 0.0
C585 C 0.78696 0.60282 0.48568 0.0
C586 C 0.78978 0.57911 0.45634 0.0
C587 C 0.79397 0.552 0.47432 0.0
C588 C 0.78832 0.58189 0.40686 0.0
C589 C 0.78388 0.63333 0.4683 0.0
C590 C 0.75829 0.57874 0.38613 0.0
C591 C 0.757 0.58152 0.33956 0.0
C592 C 0.78565 0.58726 0.31265 0.0
C593 C 0.81554 0.58992 0.33352 0.0
C594 C 0.81678 0.58713 0.38016 0.0
H595 H 0.79132 0.65398 0.4942 0.0
H596 H 0.80069 0.64517 0.43833 0.0
H597 H 0.7563 0.62396 0.45849 0.0
H598 H 0.73578 0.57407 0.40599 0.0
H599 H 0.73372 0.5797 0.32472 0.0
H600 H 0.19805 0.84172 0.65318 0.0
H601 H 0.20551 0.84334 0.73468 0.0
H602 H 0.22042 0.75398 0.72723 0.0
H603 H 0.21395 0.75276 0.64568 0.0
H604 H 0.16448 0.79012 0.79593 0.0
H605 H 0.30362 0.8233 0.8036 0.0
H606 H 0.28398 0.82861 0.75325 0.0
H607 H 0.27631 0.78601 0.76919 0.0
C608 C 0.20357 0.82282 0.66877 0.0
C609 C 0.20552 0.79718 0.64284 0.0
C610 C 0.20755 0.82361 0.71539 0.0
C611 C 0.21389 0.79902 0.737 0.0
C612 C 0.21611 0.77357 0.71123 0.0
H613 H 0.23848 0.75561 0.01508 0.0
H614 H 0.23036 0.75337 0.93365 0.0
C615 C 0.21206 0.7727 0.66464 0.0
C616 C 0.21682 0.79915 0.78663 0.0
H617 H 0.27187 0.80672 0.87206 0.0
C618 C 0.18802 0.79393 0.81261 0.0
C619 C 0.2475 0.80399 0.80831 0.0
C620 C 0.27976 0.81111 0.78225 0.0
C621 C 0.18886 0.79286 0.85968 0.0
C622 C 0.21954 0.7977 0.88134 0.0
C623 C 0.24833 0.80289 0.85537 0.0
C624 C 0.22257 0.79803 0.93096 0.0
C625 C 0.15665 0.78583 0.88579 0.0
C626 C 0.22085 0.82387 0.95649 0.0
C627 C 0.22533 0.82514 1.00302 0.0
C628 C 0.23176 0.80066 0.02499 0.0
C629 C 0.23309 0.77456 0.99933 0.0
C630 C 0.22871 0.77339 0.95276 0.0
H631 H 0.13278 0.77378 0.86445 0.0
H632 H 0.15237 0.76826 0.91471 0.0
H633 H 0.16024 0.81095 0.89898 0.0
H634 H 0.21667 0.84349 0.94032 0.0
H635 H 0.22392 0.84543 0.0218 0.0
H636 H 0.40328 0.17849 0.36592 0.0
H637 H 0.3981 0.16914 0.28463 0.0
H638 H 0.44913 0.2807 0.26332 0.0
H639 H 0.45488 0.29035 0.34424 0.0
H640 H 0.38739 0.24213 0.21266 0.0
H641 H 0.4769 0.18817 0.19517 0.0
H642 H 0.44263 0.1665 0.23596 0.0
H643 H 0.47607 0.21129 0.24471 0.0
C644 C 0.41379 0.20107 0.34395 0.0
C645 C 0.42944 0.23518 0.36175 0.0
C646 C 0.41078 0.19567 0.29748 0.0
C647 C 0.42354 0.22425 0.2679 0.0
C648 C 0.43909 0.25826 0.28552 0.0
H649 H 0.43056 0.25319 0.97802 0.0
H650 H 0.4346 0.26128 0.0595 0.0
C651 C 0.44215 0.2637 0.33186 0.0
C652 C 0.42009 0.21888 0.21857 0.0
H653 H 0.44554 0.1874 0.1303 0.0
C654 C 0.40017 0.23025 0.1946 0.0
C655 C 0.43676 0.20335 0.19512 0.0
C656 C 0.45956 0.19186 0.21887 0.0
C657 C 0.39606 0.22606 0.14787 0.0
C658 C 0.41288 0.2107 0.12436 0.0
C659 C 0.4327 0.19921 0.14837 0.0
C660 C 0.41002 0.20599 0.0749 0.0
C661 C 0.37313 0.23744 0.1242 0.0
C662 C 0.3954 0.1723 0.05643 0.0
C663 C 0.39305 0.1676 0.00994 0.0
C664 C 0.40555 0.19653 0.98078 0.0
C665 C 0.42023 0.2303 0.99942 0.0
C666 C 0.42256 0.23498 0.04601 0.0
H667 H 0.35522 0.24024 0.14787 0.0
H668 H 0.38995 0.26325 0.10808 0.0
H669 H 0.3572 0.21843 0.09766 0.0
H670 H 0.38555 0.14956 0.07806 0.0
H671 H 0.3811 0.14118 0.99686 0.0
H672 H 0.17756 0.46563 0.14165 0.0
H673 H 0.17114 0.50815 0.18697 0.0
H674 H 0.20682 0.58041 0.07568 0.0
H675 H 0.21207 0.53737 0.02952 0.0
H676 H 0.21915 0.57023 0.21377 0.0
H677 H 0.12222 0.58547 0.11277 0.0
H678 H 0.13212 0.55102 0.10241 0.0
H679 H 0.16025 0.59444 0.08074 0.0
C680 C 0.18383 0.49049 0.12668 0.0
C681 C 0.19532 0.49816 0.08198 0.0
C682 C 0.18008 0.51475 0.15263 0.0
C683 C 0.18795 0.5473 0.1346 0.0
C684 C 0.19961 0.55511 0.08999 0.0
H685 H 0.24572 0.73255 0.29191 0.0
H686 H 0.24338 0.68621 0.24476 0.0
C687 C 0.20289 0.5306 0.06374 0.0
C688 C 0.18591 0.57369 0.16344 0.0
H689 H 0.15233 0.62862 0.16969 0.0
C690 C 0.20428 0.58275 0.20424 0.0
C691 C 0.16607 0.58968 0.15144 0.0
C692 C 0.14375 0.57939 0.10968 0.0
C693 C 0.204 0.60782 0.23288 0.0
C694 C 0.18577 0.62522 0.21971 0.0
C695 C 0.16667 0.61559 0.17947 0.0
C696 C 0.18684 0.65391 0.24689 0.0
C697 C 0.22289 0.61503 0.27724 0.0
C698 C 0.15575 0.65185 0.26238 0.0
C699 C 0.15701 0.67883 0.28855 0.0
C700 C 0.18938 0.70825 0.29942 0.0
C701 C 0.22038 0.71034 0.28363 0.0
C702 C 0.21911 0.68365 0.25716 0.0
H703 H 0.22548 0.59237 0.28835 0.0
H704 H 0.24971 0.63785 0.27356 0.0
H705 H 0.20905 0.62106 0.30381 0.0
H706 H 0.13055 0.62921 0.25463 0.0
H707 H 0.13273 0.67666 0.30028 0.0
H708 H 0.66925 0.20338 0.35369 0.0
H709 H 0.62187 0.20093 0.39933 0.0
H710 H 0.65711 0.16604 0.5128 0.0
H711 H 0.70519 0.16966 0.46795 0.0
H712 H 0.56737 0.14995 0.44391 0.0
H713 H 0.65737 0.25003 0.5648 0.0
H714 H 0.67259 0.24102 0.51312 0.0
H715 H 0.66421 0.21328 0.56131 0.0
C716 C 0.66681 0.19509 0.38833 0.0
C717 C 0.69121 0.18719 0.40743 0.0
C718 C 0.63973 0.19368 0.41436 0.0
C719 C 0.63644 0.1841 0.45979 0.0
C720 C 0.65978 0.17456 0.47824 0.0
H721 H 0.45464 0.13091 0.62895 0.0
H722 H 0.49796 0.12875 0.57944 0.0
C723 C 0.68714 0.17647 0.45249 0.0
C724 C 0.60904 0.18473 0.48806 0.0
H725 H 0.59707 0.21901 0.58458 0.0
C726 C 0.57384 0.16515 0.47459 0.0
C727 C 0.61757 0.20509 0.52767 0.0
C728 C 0.655 0.22883 0.54236 0.0
C729 C 0.54689 0.16499 0.49997 0.0
C730 C 0.55533 0.18415 0.54057 0.0
C731 C 0.59056 0.204 0.55372 0.0
C732 C 0.52832 0.18492 0.56953 0.0
C733 C 0.50981 0.14503 0.48244 0.0
C734 C 0.53155 0.21719 0.58155 0.0
C735 C 0.50736 0.21847 0.61054 0.0
C736 C 0.47923 0.18749 0.62768 0.0
C737 C 0.47595 0.15516 0.61582 0.0
C738 C 0.50046 0.1539 0.58719 0.0
H739 H 0.50921 0.14064 0.44568 0.0
H740 H 0.49582 0.119 0.49895 0.0
H741 H 0.49538 0.15912 0.48968 0.0
H742 H 0.55299 0.24149 0.56872 0.0
H743 H 0.51099 0.24379 0.61998 0.0
H744 H 0.32774 0.51005 0.0185 0.0
H745 H 0.37221 0.55312 0.96743 0.0
H746 H 0.3119 0.4919 0.85392 0.0
H747 H 0.26728 0.44924 0.90502 0.0
H748 H 0.41288 0.54569 0.90224 0.0
H749 H 0.32496 0.58813 0.82627 0.0
H750 H 0.31323 0.56139 0.8761 0.0
H751 H 0.3095 0.54206 0.82184 0.0
C752 C 0.3242 0.50593 0.98261 0.0
C753 C 0.29417 0.47686 0.96537 0.0
C754 C 0.34948 0.53041 0.95354 0.0
C755 C 0.34501 0.52605 0.90687 0.0
C756 C 0.31544 0.49623 0.88975 0.0
H757 H 0.47122 0.66257 0.68755 0.0
H758 H 0.42774 0.61286 0.73153 0.0
C759 C 0.29008 0.47187 0.91886 0.0
C760 C 0.37129 0.5529 0.87636 0.0
H761 H 0.38213 0.61289 0.79623 0.0
C762 C 0.40617 0.56038 0.87902 0.0
C763 C 0.3624 0.57187 0.84591 0.0
C764 C 0.32557 0.56575 0.84249 0.0
C765 C 0.43247 0.58639 0.85215 0.0
C766 C 0.42373 0.60587 0.82244 0.0
C767 C 0.38874 0.59792 0.81909 0.0
C768 C 0.4507 0.6355 0.79577 0.0
C769 C 0.46932 0.59259 0.85553 0.0
C770 C 0.47781 0.66484 0.81736 0.0
C771 C 0.50268 0.69326 0.79241 0.0
C772 C 0.50079 0.69303 0.74529 0.0
C773 C 0.47351 0.66361 0.72375 0.0
C774 C 0.44862 0.63517 0.7488 0.0
H775 H 0.46969 0.5694 0.86948 0.0
H776 H 0.48235 0.59889 0.82224 0.0
H777 H 0.48482 0.61506 0.87827 0.0
H778 H 0.47947 0.66597 0.85362 0.0
H779 H 0.52323 0.7155 0.81017 0.0
H780 H 0.86378 0.3228 0.29458 0.0
H781 H 0.86437 0.36847 0.24693 0.0
H782 H 0.75188 0.30709 0.23405 0.0
H783 H 0.75104 0.26251 0.28351 0.0
H784 H 0.84399 0.36813 0.16153 0.0
H785 H 0.76428 0.39915 0.27598 0.0
H786 H 0.78206 0.37186 0.2927 0.0
H787 H 0.74229 0.35382 0.26027 0.0
C788 C 0.83922 0.31921 0.28167 0.0
C789 C 0.80738 0.2891 0.29251 0.0
C790 C 0.83958 0.3452 0.25435 0.0
C791 C 0.8081 0.34147 0.2375 0.0
C792 C 0.7764 0.31093 0.24745 0.0
H793 H 0.78866 0.46308 0.0201 0.0
H794 H 0.79172 0.41827 0.06513 0.0
C795 C 0.776 0.28521 0.27517 0.0
C796 C 0.80836 0.36955 0.20977 0.0
H797 H 0.77345 0.4232 0.20249 0.0
C798 C 0.82873 0.38034 0.17057 0.0
C799 C 0.78889 0.38587 0.22199 0.0
C800 C 0.76845 0.37736 0.26527 0.0
C801 C 0.82974 0.40662 0.14287 0.0
C802 C 0.80902 0.42182 0.15407 0.0
C803 C 0.78905 0.41132 0.19361 0.0
C804 C 0.80809 0.44919 0.12601 0.0
C805 C 0.85358 0.41832 0.1025 0.0
C806 C 0.81531 0.48111 0.14546 0.0
C807 C 0.81284 0.50641 0.12009 0.0
C808 C 0.80332 0.50042 0.07459 0.0
C809 C 0.79638 0.46859 0.05497 0.0
C810 C 0.79838 0.44305 0.0806 0.0
H811 H 0.87503 0.41219 0.10631 0.0
H812 H 0.83818 0.40428 0.07236 0.0
H813 H 0.8654 0.4469 0.09669 0.0
H814 H 0.82277 0.48644 0.18044 0.0
H815 H 0.81853 0.53073 0.13619 0.0
H816 H 0.29259 0.82951 0.46721 0.0
H817 H 0.34049 0.83424 0.51348 0.0
H818 H 0.37618 0.79677 0.40322 0.0
H819 H 0.32891 0.79301 0.35622 0.0
H820 H 0.35185 0.78374 0.54018 0.0
H821 H 0.46689 0.87985 0.44239 0.0
H822 H 0.42312 0.87158 0.4314 0.0
H823 H 0.43725 0.84258 0.40958 0.0
C824 C 0.31082 0.82256 0.45264 0.0
C825 C 0.30699 0.81091 0.40802 0.0
C826 C 0.33821 0.82532 0.47914 0.0
C827 C 0.36227 0.81634 0.46169 0.0
C828 C 0.35855 0.80475 0.41709 0.0
H829 H 0.48546 0.75478 0.62411 0.0
H830 H 0.44269 0.75735 0.57444 0.0
C831 C 0.33136 0.80238 0.39034 0.0
C832 C 0.38983 0.81712 0.49112 0.0
H833 H 0.47795 0.84875 0.49982 0.0
C834 C 0.37945 0.79817 0.53146 0.0
C835 C 0.4259 0.83632 0.48008 0.0
C836 C 0.43902 0.85902 0.43874 0.0
C837 C 0.40398 0.79739 0.56068 0.0
C838 C 0.43986 0.81521 0.54862 0.0
C839 C 0.45039 0.83474 0.50874 0.0
C840 C 0.46679 0.81383 0.57701 0.0
C841 C 0.39121 0.77795 0.60453 0.0
C842 C 0.49534 0.84481 0.59358 0.0
C843 C 0.52029 0.84342 0.6212 0.0
C844 C 0.51709 0.81103 0.63252 0.0
C845 C 0.48876 0.78012 0.61551 0.0
C846 C 0.46405 0.78153 0.58761 0.0
H847 H 0.36567 0.77517 0.61465 0.0
H848 H 0.3874 0.75123 0.60071 0.0
H849 H 0.41044 0.79148 0.63187 0.0
H850 H 0.49805 0.87003 0.58563 0.0
H851 H 0.54196 0.86763 0.63383 0.0
H852 H 0.73786 0.54065 0.89904 0.0
H853 H 0.6923 0.4968 0.85012 0.0
H854 H 0.62124 0.45747 0.96262 0.0
H855 H 0.66689 0.5016 0.01132 0.0
H856 H 0.66077 0.42637 0.85666 0.0
H857 H 0.56061 0.46689 0.86877 0.0
H858 H 0.60512 0.49437 0.88778 0.0
H859 H 0.57376 0.45928 0.92258 0.0
C860 C 0.71262 0.52236 0.91321 0.0
C861 C 0.7059 0.52376 0.95886 0.0
C862 C 0.68651 0.49761 0.88526 0.0
C863 C 0.65324 0.47401 0.9026 0.0
C864 C 0.64643 0.47586 0.94826 0.0
H865 H 0.47183 0.28567 0.8072 0.0
H866 H 0.51631 0.33492 0.85073 0.0
C867 C 0.67249 0.50085 0.97609 0.0
C868 C 0.62641 0.44625 0.87349 0.0
H869 H 0.54183 0.41042 0.83702 0.0
C870 C 0.63488 0.4231 0.85203 0.0
C871 C 0.59263 0.44203 0.86745 0.0
C872 C 0.58256 0.46718 0.8875 0.0
C873 C 0.61023 0.39531 0.82565 0.0
C874 C 0.57632 0.39073 0.82036 0.0
C875 C 0.56786 0.41399 0.84139 0.0
C876 C 0.54912 0.36154 0.79356 0.0
C877 C 0.6203 0.3705 0.80449 0.0
C878 C 0.5527 0.36053 0.74694 0.0
C879 C 0.52731 0.33249 0.72189 0.0
C880 C 0.49793 0.30492 0.7431 0.0
C881 C 0.49424 0.30632 0.78981 0.0
C882 C 0.51955 0.33447 0.81476 0.0
H883 H 0.64507 0.3737 0.81863 0.0
H884 H 0.59918 0.3429 0.80924 0.0
H885 H 0.62401 0.37565 0.7679 0.0
H886 H 0.57519 0.38144 0.72996 0.0
H887 H 0.53092 0.33231 0.68599 0.0
loop_
_geom_bond_atom_site_label_1
_geom_bond_atom_site_label_2
_geom_bond_distance
_geom_bond_site_symmetry_2
_ccdc_geom_bond_type
Tb0 C2 2.809 . S
Tb0 O20 2.484 . S
Tb0 O21 2.440 . S
Tb0 O22 2.658 1_556 S
Tb0 O23 2.409 . S
Tb0 O24 2.378 . S
Tb0 O28 2.325 . S
Tb0 O31 2.341 1_556 S
Tb1 C11 2.809 . S
Tb1 O22 2.325 . S
Tb1 O25 2.341 1_554 S
Tb1 O26 2.484 . S
Tb1 O27 2.440 . S
Tb1 O28 2.658 1_554 S
Tb1 O29 2.409 . S
Tb1 O30 2.378 . S
C2 Tb0 2.809 . S
C2 C3 1.514 . S
C2 O20 1.248 . S
C2 O21 1.266 . S
C3 C2 1.514 . S
C3 C4 1.359 . S
C3 C8 1.348 . S
C4 C3 1.359 . S
C4 C5 1.380 . S
C4 H32 0.929 . S
C5 C4 1.380 . S
C5 C6 1.347 . S
C5 H33 0.931 . S
C6 C5 1.347 . S
C6 C7 1.369 . S
C7 C6 1.369 . S
C7 C8 1.408 . S
C7 H34 0.930 . S
C8 C3 1.348 . S
C8 C7 1.408 . S
C8 H35 0.930 . S
C9 O22 1.281 . S
C9 O23 1.254 1_554 S
C10 O24 1.236 . S
C10 O25 1.266 . S
C11 Tb1 2.809 . S
C11 C12 1.514 . S
C11 O26 1.248 . S
C11 O27 1.266 . S
C12 C11 1.514 . S
C12 C13 1.359 . S
C12 C17 1.348 . S
C13 C12 1.359 . S
C13 C14 1.380 . S
C13 H36 0.929 . S
C14 C13 1.380 . S
C14 C15 1.347 . S
C14 H37 0.931 . S
C15 C14 1.347 . S
C15 C16 1.369 . S
C16 C15 1.369 . S
C16 C17 1.408 . S
C16 H38 0.930 . S
C17 C12 1.348 . S
C17 C16 1.408 . S
C17 H39 0.930 . S
C18 O28 1.281 . S
C18 O29 1.254 1_556 S
C19 O30 1.236 . S
C19 O31 1.266 . S
O20 Tb0 2.484 . S
O20 C2 1.248 . S
O21 Tb0 2.440 . S
O21 C2 1.266 . S
O22 Tb0 2.658 1_554 S
O22 Tb1 2.325 . S
O22 C9 1.281 . S
O23 Tb0 2.409 . S
O23 C9 1.254 1_556 S
O24 Tb0 2.378 . S
O24 C10 1.236 . S
O25 Tb1 2.341 1_556 S
O25 C10 1.266 . S
O26 Tb1 2.484 . S
O26 C11 1.248 . S
O27 Tb1 2.440 . S
O27 C11 1.266 . S
O28 Tb0 2.325 . S
O28 Tb1 2.658 1_556 S
O28 C18 1.281 . S
O29 Tb1 2.409 . S
O29 C18 1.254 1_554 S
O30 Tb1 2.378 . S
O30 C19 1.236 . S
O31 Tb0 2.341 1_554 S
O31 C19 1.266 . S
H32 C4 0.929 . S
H33 C5 0.931 . S
H34 C7 0.930 . S
H35 C8 0.930 . S
H36 C13 0.929 . S
H37 C14 0.931 . S
H38 C16 0.930 . S
H39 C17 0.930 . S
Tb40 C42 2.809 . S
Tb40 O60 2.484 . S
Tb40 O61 2.440 . S
Tb40 O62 2.658 . S
Tb40 O63 2.409 . S
Tb40 O64 2.378 . S
Tb40 O68 2.325 . S
Tb40 O71 2.341 . S
Tb41 C51 2.809 . S
Tb41 O62 2.325 . S
Tb41 O65 2.341 . S
Tb41 O66 2.484 . S
Tb41 O67 2.440 . S
Tb41 O68 2.658 . S
Tb41 O69 2.409 . S
Tb41 O70 2.378 . S
C42 Tb40 2.809 . S
C42 C43 1.514 . S
C42 O60 1.248 . S
C42 O61 1.266 . S
C43 C42 1.514 . S
C43 C44 1.359 . S
C43 C48 1.348 . S
C44 C43 1.359 . S
C44 C45 1.380 . S
C44 H72 0.929 . S
C45 C44 1.380 . S
C45 C46 1.347 . S
C45 H73 0.931 . S
C46 C45 1.347 . S
C46 C47 1.369 . S
C47 C46 1.369 . S
C47 C48 1.408 . S
C47 H74 0.930 . S
C48 C43 1.348 . S
C48 C47 1.408 . S
C48 H75 0.930 . S
C49 O62 1.281 . S
C49 O63 1.254 . S
C50 O64 1.236 . S
C50 O65 1.266 . S
C51 Tb41 2.809 . S
C51 C52 1.514 . S
C51 O66 1.248 . S
C51 O67 1.266 . S
C52 C51 1.514 . S
C52 C53 1.359 . S
C52 C57 1.348 . S
C53 C52 1.359 . S
C53 C54 1.380 . S
C53 H76 0.929 . S
C54 C53 1.380 . S
C54 C55 1.347 . S
C54 H77 0.931 . S
C55 C54 1.347 . S
C55 C56 1.369 . S
C56 C55 1.369 . S
C56 C57 1.408 . S
C56 H78 0.930 . S
C57 C52 1.348 . S
C57 C56 1.408 . S
C57 H79 0.930 . S
C58 O68 1.281 . S
C58 O69 1.254 . S
C59 O70 1.236 . S
C59 O71 1.266 . S
O60 Tb40 2.484 . S
O60 C42 1.248 . S
O61 Tb40 2.440 . S
O61 C42 1.266 . S
O62 Tb40 2.658 . S
O62 Tb41 2.325 . S
O62 C49 1.281 . S
O63 Tb40 2.409 . S
O63 C49 1.254 . S
O64 Tb40 2.378 . S
O64 C50 1.236 . S
O65 Tb41 2.341 . S
O65 C50 1.266 . S
O66 Tb41 2.484 . S
O66 C51 1.248 . S
O67 Tb41 2.440 . S
O67 C51 1.266 . S
O68 Tb40 2.325 . S
O68 Tb41 2.658 . S
O68 C58 1.281 . S
O69 Tb41 2.409 . S
O69 C58 1.254 . S
O70 Tb41 2.378 . S
O70 C59 1.236 . S
O71 Tb40 2.341 . S
O71 C59 1.266 . S
H72 C44 0.929 . S
H73 C45 0.931 . S
H74 C47 0.930 . S
H75 C48 0.930 . S
H76 C53 0.929 . S
H77 C54 0.931 . S
H78 C56 0.930 . S
H79 C57 0.930 . S
Tb80 C82 2.809 . S
Tb80 O100 2.484 . S
Tb80 O101 2.440 . S
Tb80 O102 2.658 . S
Tb80 O103 2.409 . S
Tb80 O104 2.378 . S
Tb80 O108 2.325 . S
Tb80 O111 2.341 . S
Tb81 C91 2.809 . S
Tb81 O102 2.325 . S
Tb81 O105 2.341 . S
Tb81 O106 2.484 . S
Tb81 O107 2.440 . S
Tb81 O108 2.658 . S
Tb81 O109 2.409 . S
Tb81 O110 2.378 . S
C82 Tb80 2.809 . S
C82 C83 1.514 . S
C82 O100 1.248 . S
C82 O101 1.266 . S
C83 C82 1.514 . S
C83 C84 1.359 . S
C83 C88 1.348 . S
C84 C83 1.359 . S
C84 C85 1.380 . S
C84 H112 0.929 . S
C85 C84 1.380 . S
C85 C86 1.347 . S
C85 H113 0.931 . S
C86 C85 1.347 . S
C86 C87 1.369 . S
C87 C86 1.369 . S
C87 C88 1.408 . S
C87 H114 0.930 . S
C88 C83 1.348 . S
C88 C87 1.408 . S
C88 H115 0.930 . S
C89 O102 1.281 . S
C89 O103 1.254 . S
C90 O104 1.236 . S
C90 O105 1.266 . S
C91 Tb81 2.809 . S
C91 C92 1.514 . S
C91 O106 1.248 . S
C91 O107 1.266 . S
C92 C91 1.514 . S
C92 C93 1.359 . S
C92 C97 1.348 . S
C93 C92 1.359 . S
C93 C94 1.380 . S
C93 H116 0.929 . S
C94 C93 1.380 . S
C94 C95 1.347 . S
C94 H117 0.931 . S
C95 C94 1.347 . S
C95 C96 1.369 . S
C96 C95 1.369 . S
C96 C97 1.408 . S
C96 H118 0.930 . S
C97 C92 1.348 . S
C97 C96 1.408 . S
C97 H119 0.930 . S
C98 O108 1.281 . S
C98 O109 1.254 . S
C99 O110 1.236 . S
C99 O111 1.266 . S
O100 Tb80 2.484 . S
O100 C82 1.248 . S
O101 Tb80 2.440 . S
O101 C82 1.266 . S
O102 Tb80 2.658 . S
O102 Tb81 2.325 . S
O102 C89 1.281 . S
O103 Tb80 2.409 . S
O103 C89 1.254 . S
O104 Tb80 2.378 . S
O104 C90 1.236 . S
O105 Tb81 2.341 . S
O105 C90 1.266 . S
O106 Tb81 2.484 . S
O106 C91 1.248 . S
O107 Tb81 2.440 . S
O107 C91 1.266 . S
O108 Tb80 2.325 . S
O108 Tb81 2.658 . S
O108 C98 1.281 . S
O109 Tb81 2.409 . S
O109 C98 1.254 . S
O110 Tb81 2.378 . S
O110 C99 1.236 . S
O111 Tb80 2.341 . S
O111 C99 1.266 . S
H112 C84 0.929 . S
H113 C85 0.931 . S
H114 C87 0.930 . S
H115 C88 0.930 . S
H116 C93 0.929 . S
H117 C94 0.931 . S
H118 C96 0.930 . S
H119 C97 0.930 . S
Tb120 C122 2.809 . S
Tb120 O140 2.484 . S
Tb120 O141 2.440 . S
Tb120 O142 2.658 1_556 S
Tb120 O143 2.409 . S
Tb120 O144 2.378 . S
Tb120 O148 2.325 . S
Tb120 O151 2.341 1_556 S
Tb121 C131 2.809 . S
Tb121 O142 2.325 . S
Tb121 O145 2.341 1_554 S
Tb121 O146 2.484 . S
Tb121 O147 2.440 . S
Tb121 O148 2.658 1_554 S
Tb121 O149 2.409 . S
Tb121 O150 2.378 . S
C122 Tb120 2.809 . S
C122 C123 1.514 . S
C122 O140 1.248 . S
C122 O141 1.266 . S
C123 C122 1.514 . S
C123 C124 1.359 . S
C123 C128 1.348 . S
C124 C123 1.359 . S
C124 C125 1.380 . S
C124 H152 0.929 . S
C125 C124 1.380 . S
C125 C126 1.347 . S
C125 H153 0.931 . S
C126 C125 1.347 . S
C126 C127 1.369 . S
C127 C126 1.369 . S
C127 C128 1.408 . S
C127 H154 0.930 . S
C128 C123 1.348 . S
C128 C127 1.408 . S
C128 H155 0.930 . S
C129 O142 1.281 . S
C129 O143 1.254 1_554 S
C130 O144 1.236 . S
C130 O145 1.266 . S
C131 Tb121 2.809 . S
C131 C132 1.514 . S
C131 O146 1.248 . S
C131 O147 1.266 . S
C132 C131 1.514 . S
C132 C133 1.359 . S
C132 C137 1.348 . S
C133 C132 1.359 . S
C133 C134 1.380 . S
C133 H156 0.929 . S
C134 C133 1.380 . S
C134 C135 1.347 . S
C134 H157 0.931 . S
C135 C134 1.347 . S
C135 C136 1.369 . S
C136 C135 1.369 . S
C136 C137 1.408 . S
C136 H158 0.930 . S
C137 C132 1.348 . S
C137 C136 1.408 . S
C137 H159 0.930 . S
C138 O148 1.281 . S
C138 O149 1.254 1_556 S
C139 O150 1.236 . S
C139 O151 1.266 . S
O140 Tb120 2.484 . S
O140 C122 1.248 . S
O141 Tb120 2.440 . S
O141 C122 1.266 . S
O142 Tb120 2.658 1_554 S
O142 Tb121 2.325 . S
O142 C129 1.281 . S
O143 Tb120 2.409 . S
O143 C129 1.254 1_556 S
O144 Tb120 2.378 . S
O144 C130 1.236 . S
O145 Tb121 2.341 1_556 S
O145 C130 1.266 . S
O146 Tb121 2.484 . S
O146 C131 1.248 . S
O147 Tb121 2.440 . S
O147 C131 1.266 . S
O148 Tb120 2.325 . S
O148 Tb121 2.658 1_556 S
O148 C138 1.281 . S
O149 Tb121 2.409 . S
O149 C138 1.254 1_554 S
O150 Tb121 2.378 . S
O150 C139 1.236 . S
O151 Tb120 2.341 1_554 S
O151 C139 1.266 . S
H152 C124 0.929 . S
H153 C125 0.931 . S
H154 C127 0.930 . S
H155 C128 0.930 . S
H156 C133 0.929 . S
H157 C134 0.931 . S
H158 C136 0.930 . S
H159 C137 0.930 . S
Tb160 C162 2.809 . S
Tb160 O180 2.484 . S
Tb160 O181 2.440 . S
Tb160 O182 2.658 . S
Tb160 O183 2.409 . S
Tb160 O184 2.378 . S
Tb160 O188 2.325 . S
Tb160 O191 2.341 . S
Tb161 C171 2.809 . S
Tb161 O182 2.325 . S
Tb161 O185 2.341 . S
Tb161 O186 2.484 . S
Tb161 O187 2.440 . S
Tb161 O188 2.658 . S
Tb161 O189 2.409 . S
Tb161 O190 2.378 . S
C162 Tb160 2.809 . S
C162 C163 1.514 . S
C162 O180 1.248 . S
C162 O181 1.266 . S
C163 C162 1.514 . S
C163 C164 1.359 . S
C163 C168 1.348 . S
C164 C163 1.359 . S
C164 C165 1.380 . S
C164 H192 0.929 . S
C165 C164 1.380 . S
C165 C166 1.347 . S
C165 H193 0.931 . S
C166 C165 1.347 . S
C166 C167 1.369 . S
C167 C166 1.369 . S
C167 C168 1.408 . S
C167 H194 0.930 . S
C168 C163 1.348 . S
C168 C167 1.408 . S
C168 H195 0.930 . S
C169 O182 1.281 . S
C169 O183 1.254 . S
C170 O184 1.236 . S
C170 O185 1.266 . S
C171 Tb161 2.809 . S
C171 C172 1.514 . S
C171 O186 1.248 . S
C171 O187 1.266 . S
C172 C171 1.514 . S
C172 C173 1.359 . S
C172 C177 1.348 . S
C173 C172 1.359 . S
C173 C174 1.380 . S
C173 H196 0.929 . S
C174 C173 1.380 . S
C174 C175 1.347 . S
C174 H197 0.931 . S
C175 C174 1.347 . S
C175 C176 1.369 . S
C176 C175 1.369 . S
C176 C177 1.408 . S
C176 H198 0.930 . S
C177 C172 1.348 . S
C177 C176 1.408 . S
C177 H199 0.930 . S
C178 O188 1.281 . S
C178 O189 1.254 . S
C179 O190 1.236 . S
C179 O191 1.266 . S
O180 Tb160 2.484 . S
O180 C162 1.248 . S
O181 Tb160 2.440 . S
O181 C162 1.266 . S
O182 Tb160 2.658 . S
O182 Tb161 2.325 . S
O182 C169 1.281 . S
O183 Tb160 2.409 . S
O183 C169 1.254 . S
O184 Tb160 2.378 . S
O184 C170 1.236 . S
O185 Tb161 2.341 . S
O185 C170 1.266 . S
O186 Tb161 2.484 . S
O186 C171 1.248 . S
O187 Tb161 2.440 . S
O187 C171 1.266 . S
O188 Tb160 2.325 . S
O188 Tb161 2.658 . S
O188 C178 1.281 . S
O189 Tb161 2.409 . S
O189 C178 1.254 . S
O190 Tb161 2.378 . S
O190 C179 1.236 . S
O191 Tb160 2.341 . S
O191 C179 1.266 . S
H192 C164 0.929 . S
H193 C165 0.931 . S
H194 C167 0.930 . S
H195 C168 0.930 . S
H196 C173 0.929 . S
H197 C174 0.931 . S
H198 C176 0.930 . S
H199 C177 0.930 . S
Tb200 C202 2.809 . S
Tb200 O220 2.484 . S
Tb200 O221 2.440 . S
Tb200 O222 2.658 . S
Tb200 O223 2.409 . S
Tb200 O224 2.378 . S
Tb200 O228 2.325 . S
Tb200 O231 2.341 . S
Tb201 C211 2.809 . S
Tb201 O222 2.325 . S
Tb201 O225 2.341 . S
Tb201 O226 2.484 . S
Tb201 O227 2.440 . S
Tb201 O228 2.658 . S
Tb201 O229 2.409 . S
Tb201 O230 2.378 . S
C202 Tb200 2.809 . S
C202 C203 1.514 . S
C202 O220 1.248 . S
C202 O221 1.266 . S
C203 C202 1.514 . S
C203 C204 1.359 . S
C203 C208 1.348 . S
C204 C203 1.359 . S
C204 C205 1.380 . S
C204 H232 0.929 . S
C205 C204 1.380 . S
C205 C206 1.347 . S
C205 H233 0.931 . S
C206 C205 1.347 . S
C206 C207 1.369 . S
C207 C206 1.369 . S
C207 C208 1.408 . S
C207 H234 0.930 . S
C208 C203 1.348 . S
C208 C207 1.408 . S
C208 H235 0.930 . S
C209 O222 1.281 . S
C209 O223 1.254 . S
C210 O224 1.236 . S
C210 O225 1.266 . S
C211 Tb201 2.809 . S
C211 C212 1.514 . S
C211 O226 1.248 . S
C211 O227 1.266 . S
C212 C211 1.514 . S
C212 C213 1.359 . S
C212 C217 1.348 . S
C213 C212 1.359 . S
C213 C214 1.380 . S
C213 H236 0.929 . S
C214 C213 1.380 . S
C214 C215 1.347 . S
C214 H237 0.931 . S
C215 C214 1.347 . S
C215 C216 1.369 . S
C216 C215 1.369 . S
C216 C217 1.408 . S
C216 H238 0.930 . S
C217 C212 1.348 . S
C217 C216 1.408 . S
C217 H239 0.930 . S
C218 O228 1.281 . S
C218 O229 1.254 . S
C219 O230 1.236 . S
C219 O231 1.266 . S
O220 Tb200 2.484 . S
O220 C202 1.248 . S
O221 Tb200 2.440 . S
O221 C202 1.266 . S
O222 Tb200 2.658 . S
O222 Tb201 2.325 . S
O222 C209 1.281 . S
O223 Tb200 2.409 . S
O223 C209 1.254 . S
O224 Tb200 2.378 . S
O224 C210 1.236 . S
O225 Tb201 2.341 . S
O225 C210 1.266 . S
O226 Tb201 2.484 . S
O226 C211 1.248 . S
O227 Tb201 2.440 . S
O227 C211 1.266 . S
O228 Tb200 2.325 . S
O228 Tb201 2.658 . S
O228 C218 1.281 . S
O229 Tb201 2.409 . S
O229 C218 1.254 . S
O230 Tb201 2.378 . S
O230 C219 1.236 . S
O231 Tb200 2.341 . S
O231 C219 1.266 . S
H232 C204 0.929 . S
H233 C205 0.931 . S
H234 C207 0.930 . S
H235 C208 0.930 . S
H236 C213 0.929 . S
H237 C214 0.931 . S
H238 C216 0.930 . S
H239 C217 0.930 . S
H240 C248 0.929 . S
H241 C250 0.930 . S
H242 C252 0.930 . S
H243 C255 0.929 . S
H244 C258 0.930 . S
H245 C260 0.960 . S
H246 C260 0.960 . S
H247 C260 0.960 . S
C248 H240 0.929 . S
C248 C249 1.377 . S
C248 C250 1.384 . S
C249 C248 1.377 . S
C249 C255 1.390 . S
C250 H241 0.930 . S
C250 C248 1.384 . S
C250 C251 1.372 . S
C251 C250 1.372 . S
C251 C252 1.400 . S
C251 C256 1.490 . S
C252 H242 0.930 . S
C252 C251 1.400 . S
C252 C255 1.386 . S
H253 C269 0.930 . S
H254 C270 0.931 . S
C255 H243 0.929 . S
C255 C249 1.390 . S
C255 C252 1.386 . S
C256 C251 1.490 . S
C256 C258 1.395 . S
C256 C259 1.403 . S
H257 C263 0.930 . S
C258 H244 0.930 . S
C258 C256 1.395 . S
C258 C261 1.403 . S
C259 C256 1.403 . S
C259 C260 1.524 . S
C259 C263 1.400 . S
C260 H245 0.960 . S
C260 H246 0.960 . S
C260 H247 0.960 . S
C260 C259 1.524 . S
C261 C258 1.403 . S
C261 C262 1.392 . S
C261 C265 1.495 . S
C262 C261 1.392 . S
C262 C263 1.385 . S
C262 C264 1.478 . S
C263 H257 0.930 . S
C263 C259 1.400 . S
C263 C262 1.385 . S
C264 C262 1.478 . S
C264 C266 1.381 . S
C264 C270 1.383 . S
C265 C261 1.495 . S
C265 H271 0.959 . S
C265 H272 0.961 . S
C265 H273 0.960 . S
C266 C264 1.381 . S
C266 C267 1.394 . S
C266 H274 0.930 . S
C267 C266 1.394 . S
C267 C268 1.383 . S
C267 H275 0.929 . S
C268 C267 1.383 . S
C268 C269 1.377 . S
C269 H253 0.930 . S
C269 C268 1.377 . S
C269 C270 1.379 . S
C270 H254 0.931 . S
C270 C264 1.383 . S
C270 C269 1.379 . S
H271 C265 0.959 . S
H272 C265 0.961 . S
H273 C265 0.960 . S
H274 C266 0.930 . S
H275 C267 0.929 . S
H276 C284 0.929 . S
H277 C286 0.930 . S
H278 C288 0.930 . S
H279 C291 0.929 . S
H280 C294 0.930 . S
H281 C296 0.960 1_655 S
H282 C296 0.960 . S
H283 C296 0.960 . S
C284 H276 0.929 . S
C284 C285 1.377 . S
C284 C286 1.384 . S
C285 C284 1.377 . S
C285 C291 1.390 . S
C286 H277 0.930 . S
C286 C284 1.384 . S
C286 C287 1.372 . S
C287 C286 1.372 . S
C287 C288 1.400 . S
C287 C292 1.490 . S
C288 H278 0.930 . S
C288 C287 1.400 . S
C288 C291 1.386 . S
H289 C305 0.930 . S
H290 C306 0.931 . S
C291 H279 0.929 . S
C291 C285 1.390 . S
C291 C288 1.386 . S
C292 C287 1.490 . S
C292 C294 1.395 . S
C292 C295 1.403 . S
H293 C299 0.930 . S
C294 H280 0.930 . S
C294 C292 1.395 . S
C294 C297 1.403 1_455 S
C295 C292 1.403 . S
C295 C296 1.524 . S
C295 C299 1.400 1_455 S
C296 H281 0.960 1_455 S
C296 H282 0.960 . S
C296 H283 0.960 . S
C296 C295 1.524 . S
C297 C294 1.403 1_655 S
C297 C298 1.392 . S
C297 C301 1.495 . S
C298 C297 1.392 . S
C298 C299 1.385 . S
C298 C300 1.478 . S
C299 H293 0.930 . S
C299 C295 1.400 1_655 S
C299 C298 1.385 . S
C300 C298 1.478 . S
C300 C302 1.381 . S
C300 C306 1.383 . S
C301 C297 1.495 . S
C301 H307 0.959 1_655 S
C301 H308 0.961 . S
C301 H309 0.960 . S
C302 C300 1.381 . S
C302 C303 1.394 . S
C302 H310 0.930 . S
C303 C302 1.394 . S
C303 C304 1.383 . S
C303 H311 0.929 . S
C304 C303 1.383 . S
C304 C305 1.377 . S
C305 H289 0.930 . S
C305 C304 1.377 . S
C305 C306 1.379 . S
C306 H290 0.931 . S
C306 C300 1.383 . S
C306 C305 1.379 . S
H307 C301 0.959 1_455 S
H308 C301 0.961 . S
H309 C301 0.960 . S
H310 C302 0.930 . S
H311 C303 0.929 . S
H312 C320 0.929 . S
H313 C322 0.930 . S
H314 C324 0.930 . S
H315 C327 0.929 . S
H316 C330 0.930 . S
H317 C332 0.960 1_565 S
H318 C332 0.960 . S
H319 C332 0.960 . S
C320 H312 0.929 . S
C320 C321 1.377 . S
C320 C322 1.384 . S
C321 C320 1.377 . S
C321 C327 1.390 . S
C322 H313 0.930 . S
C322 C320 1.384 . S
C322 C323 1.372 . S
C323 C322 1.372 . S
C323 C324 1.400 . S
C323 C328 1.490 . S
C324 H314 0.930 . S
C324 C323 1.400 . S
C324 C327 1.386 . S
H325 C341 0.930 . S
H326 C342 0.931 . S
C327 H315 0.929 . S
C327 C321 1.390 . S
C327 C324 1.386 . S
C328 C323 1.490 . S
C328 C330 1.395 . S
C328 C331 1.403 . S
H329 C335 0.930 . S
C330 H316 0.930 . S
C330 C328 1.395 . S
C330 C333 1.403 1_545 S
C331 C328 1.403 . S
C331 C332 1.524 . S
C331 C335 1.400 1_545 S
C332 H317 0.960 1_545 S
C332 H318 0.960 . S
C332 H319 0.960 . S
C332 C331 1.524 . S
C333 C330 1.403 1_565 S
C333 C334 1.392 . S
C333 C337 1.495 . S
C334 C333 1.392 . S
C334 C335 1.385 . S
C334 C336 1.478 . S
C335 H329 0.930 . S
C335 C331 1.400 1_565 S
C335 C334 1.385 . S
C336 C334 1.478 . S
C336 C338 1.381 . S
C336 C342 1.383 . S
C337 C333 1.495 . S
C337 H343 0.959 1_565 S
C337 H344 0.961 . S
C337 H345 0.960 . S
C338 C336 1.381 . S
C338 C339 1.394 . S
C338 H346 0.930 . S
C339 C338 1.394 . S
C339 C340 1.383 . S
C339 H347 0.929 . S
C340 C339 1.383 . S
C340 C341 1.377 . S
C341 H325 0.930 . S
C341 C340 1.377 . S
C341 C342 1.379 . S
C342 H326 0.931 . S
C342 C336 1.383 . S
C342 C341 1.379 . S
H343 C337 0.959 1_545 S
H344 C337 0.961 . S
H345 C337 0.960 . S
H346 C338 0.930 . S
H347 C339 0.929 . S
H348 C356 0.929 . S
H349 C358 0.930 . S
H350 C360 0.930 . S
H351 C363 0.929 . S
H352 C366 0.930 . S
H353 C368 0.960 . S
H354 C368 0.960 . S
H355 C368 0.960 . S
C356 H348 0.929 . S
C356 C357 1.377 . S
C356 C358 1.384 . S
C357 C356 1.377 . S
C357 C363 1.390 . S
C358 H349 0.930 . S
C358 C356 1.384 . S
C358 C359 1.372 . S
C359 C358 1.372 . S
C359 C360 1.400 . S
C359 C364 1.490 . S
C360 H350 0.930 . S
C360 C359 1.400 . S
C360 C363 1.386 . S
H361 C377 0.930 . S
H362 C378 0.931 . S
C363 H351 0.929 . S
C363 C357 1.390 . S
C363 C360 1.386 . S
C364 C359 1.490 . S
C364 C366 1.395 . S
C364 C367 1.403 . S
H365 C371 0.930 . S
C366 H352 0.930 . S
C366 C364 1.395 . S
C366 C369 1.403 . S
C367 C364 1.403 . S
C367 C368 1.524 . S
C367 C371 1.400 . S
C368 H353 0.960 . S
C368 H354 0.960 . S
C368 H355 0.960 . S
C368 C367 1.524 . S
C369 C366 1.403 . S
C369 C370 1.392 . S
C369 C373 1.495 . S
C370 C369 1.392 . S
C370 C371 1.385 . S
C370 C372 1.478 . S
C371 H365 0.930 . S
C371 C367 1.400 . S
C371 C370 1.385 . S
C372 C370 1.478 . S
C372 C374 1.381 . S
C372 C378 1.383 . S
C373 C369 1.495 . S
C373 H379 0.959 . S
C373 H380 0.961 . S
C373 H381 0.960 . S
C374 C372 1.381 . S
C374 C375 1.394 . S
C374 H382 0.930 . S
C375 C374 1.394 . S
C375 C376 1.383 . S
C375 H383 0.929 . S
C376 C375 1.383 . S
C376 C377 1.377 . S
C377 H361 0.930 . S
C377 C376 1.377 . S
C377 C378 1.379 . S
C378 H362 0.931 . S
C378 C372 1.383 . S
C378 C377 1.379 . S
H379 C373 0.959 . S
H380 C373 0.961 . S
H381 C373 0.960 . S
H382 C374 0.930 . S
H383 C375 0.929 . S
H384 C392 0.929 . S
H385 C394 0.930 . S
H386 C396 0.930 . S
H387 C399 0.929 . S
H388 C402 0.930 . S
H389 C404 0.960 . S
H390 C404 0.960 . S
H391 C404 0.960 . S
C392 H384 0.929 . S
C392 C393 1.377 . S
C392 C394 1.384 . S
C393 C392 1.377 . S
C393 C399 1.390 . S
C394 H385 0.930 . S
C394 C392 1.384 . S
C394 C395 1.372 . S
C395 C394 1.372 . S
C395 C396 1.400 . S
C395 C400 1.490 . S
C396 H386 0.930 . S
C396 C395 1.400 . S
C396 C399 1.386 . S
H397 C413 0.930 1_556 S
H398 C414 0.931 . S
C399 H387 0.929 . S
C399 C393 1.390 . S
C399 C396 1.386 . S
C400 C395 1.490 . S
C400 C402 1.395 . S
C400 C403 1.403 . S
H401 C407 0.930 . S
C402 H388 0.930 . S
C402 C400 1.395 . S
C402 C405 1.403 1_455 S
C403 C400 1.403 . S
C403 C404 1.524 . S
C403 C407 1.400 1_455 S
C404 H389 0.960 . S
C404 H390 0.960 . S
C404 H391 0.960 . S
C404 C403 1.524 . S
C405 C402 1.403 1_655 S
C405 C406 1.392 . S
C405 C409 1.495 . S
C406 C405 1.392 . S
C406 C407 1.385 . S
C406 C408 1.478 . S
C407 H401 0.930 . S
C407 C403 1.400 1_655 S
C407 C406 1.385 . S
C408 C406 1.478 . S
C408 C410 1.381 . S
C408 C414 1.383 . S
C409 C405 1.495 . S
C409 H415 0.959 . S
C409 H416 0.961 . S
C409 H417 0.960 . S
C410 C408 1.381 . S
C410 C411 1.394 . S
C410 H418 0.930 . S
C411 C410 1.394 . S
C411 C412 1.383 . S
C411 H419 0.929 . S
C412 C411 1.383 . S
C412 C413 1.377 . S
C413 H397 0.930 1_554 S
C413 C412 1.377 . S
C413 C414 1.379 . S
C414 H398 0.931 . S
C414 C408 1.383 . S
C414 C413 1.379 . S
H415 C409 0.959 . S
H416 C409 0.961 . S
H417 C409 0.960 . S
H418 C410 0.930 . S
H419 C411 0.929 . S
H420 C428 0.929 . S
H421 C430 0.930 . S
H422 C432 0.930 . S
H423 C435 0.929 . S
H424 C438 0.930 . S
H425 C440 0.960 . S
H426 C440 0.960 . S
H427 C440 0.960 . S
C428 H420 0.929 . S
C428 C429 1.377 . S
C428 C430 1.384 . S
C429 C428 1.377 . S
C429 C435 1.390 . S
C430 H421 0.930 . S
C430 C428 1.384 . S
C430 C431 1.372 . S
C431 C430 1.372 . S
C431 C432 1.400 . S
C431 C436 1.490 . S
C432 H422 0.930 . S
C432 C431 1.400 . S
C432 C435 1.386 . S
H433 C449 0.930 . S
H434 C450 0.931 . S
C435 H423 0.929 . S
C435 C429 1.390 . S
C435 C432 1.386 . S
C436 C431 1.490 . S
C436 C438 1.395 1_545 S
C436 C439 1.403 . S
H437 C443 0.931 . S
C438 H424 0.930 . S
C438 C436 1.395 1_565 S
C438 C441 1.403 . S
C439 C436 1.403 . S
C439 C440 1.524 . S
C439 C443 1.373 1_545 S
C440 H425 0.960 . S
C440 H426 0.960 . S
C440 H427 0.960 . S
C440 C439 1.524 . S
C441 C438 1.403 . S
C441 C442 1.392 . S
C441 C445 1.495 . S
C442 C441 1.392 . S
C442 C443 1.409 . S
C442 C444 1.478 . S
C443 H437 0.931 . S
C443 C439 1.373 1_565 S
C443 C442 1.409 . S
C444 C442 1.478 . S
C444 C446 1.381 . S
C444 C450 1.383 . S
C445 C441 1.495 . S
C445 H451 0.959 . S
C445 H452 0.961 . S
C445 H453 0.960 . S
C446 C444 1.381 . S
C446 C447 1.394 . S
C446 H454 0.930 . S
C447 C446 1.394 . S
C447 C448 1.383 . S
C447 H455 0.929 . S
C448 C447 1.383 . S
C448 C449 1.377 . S
C449 H433 0.930 . S
C449 C448 1.377 . S
C449 C450 1.379 . S
C450 H434 0.931 . S
C450 C444 1.383 . S
C450 C449 1.379 . S
H451 C445 0.959 . S
H452 C445 0.961 . S
H453 C445 0.960 . S
H454 C446 0.930 . S
H455 C447 0.929 . S
H456 C464 0.929 . S
H457 C466 0.930 . S
H458 C468 0.930 . S
H459 C471 0.929 . S
H460 C474 0.930 . S
H461 C476 0.960 . S
H462 C476 0.960 . S
H463 C476 0.960 . S
C464 H456 0.929 . S
C464 C465 1.377 . S
C464 C466 1.384 . S
C465 C464 1.377 . S
C465 C471 1.390 . S
C466 H457 0.930 . S
C466 C464 1.384 . S
C466 C467 1.372 . S
C467 C466 1.372 . S
C467 C468 1.400 . S
C467 C472 1.490 . S
C468 H458 0.930 . S
C468 C467 1.400 . S
C468 C471 1.386 . S
H469 C485 0.930 . S
H470 C486 0.931 . S
C471 H459 0.929 . S
C471 C465 1.390 . S
C471 C468 1.386 . S
C472 C467 1.490 . S
C472 C474 1.395 . S
C472 C475 1.403 . S
H473 C479 0.930 . S
C474 H460 0.930 . S
C474 C472 1.395 . S
C474 C477 1.403 . S
C475 C472 1.403 . S
C475 C476 1.524 . S
C475 C479 1.400 . S
C476 H461 0.960 . S
C476 H462 0.960 . S
C476 H463 0.960 . S
C476 C475 1.524 . S
C477 C474 1.403 . S
C477 C478 1.392 . S
C477 C481 1.495 . S
C478 C477 1.392 . S
C478 C479 1.385 . S
C478 C480 1.478 . S
C479 H473 0.930 . S
C479 C475 1.400 . S
C479 C478 1.385 . S
C480 C478 1.478 . S
C480 C482 1.381 . S
C480 C486 1.383 . S
C481 C477 1.495 . S
C481 H487 0.959 . S
C481 H488 0.961 . S
C481 H489 0.960 . S
C482 C480 1.381 . S
C482 C483 1.394 . S
C482 H490 0.930 . S
C483 C482 1.394 . S
C483 C484 1.383 . S
C483 H491 0.929 . S
C484 C483 1.383 . S
C484 C485 1.377 . S
C485 H469 0.930 . S
C485 C484 1.377 . S
C485 C486 1.379 . S
C486 H470 0.931 . S
C486 C480 1.383 . S
C486 C485 1.379 . S
H487 C481 0.959 . S
H488 C481 0.961 . S
H489 C481 0.960 . S
H490 C482 0.930 . S
H491 C483 0.929 . S
H492 C500 0.929 . S
H493 C502 0.930 . S
H494 C504 0.930 . S
H495 C507 0.929 . S
H496 C510 0.930 . S
H497 C512 0.960 . S
H498 C512 0.960 . S
H499 C512 0.960 . S
C500 H492 0.929 . S
C500 C501 1.377 . S
C500 C502 1.384 1_554 S
C501 C500 1.377 . S
C501 C507 1.390 1_554 S
C502 H493 0.930 . S
C502 C500 1.384 1_556 S
C502 C503 1.372 . S
C503 C502 1.372 . S
C503 C504 1.400 . S
C503 C508 1.490 . S
C504 H494 0.930 . S
C504 C503 1.400 . S
C504 C507 1.386 . S
H505 C521 0.930 . S
H506 C522 0.931 . S
C507 H495 0.929 . S
C507 C501 1.390 1_556 S
C507 C504 1.386 . S
C508 C503 1.490 . S
C508 C510 1.395 . S
C508 C511 1.403 . S
H509 C515 0.930 . S
C510 H496 0.930 . S
C510 C508 1.395 . S
C510 C513 1.403 . S
C511 C508 1.403 . S
C511 C512 1.524 . S
C511 C515 1.400 . S
C512 H497 0.960 . S
C512 H498 0.960 . S
C512 H499 0.960 . S
C512 C511 1.524 . S
C513 C510 1.403 . S
C513 C514 1.392 . S
C513 C517 1.495 . S
C514 C513 1.392 . S
C514 C515 1.385 . S
C514 C516 1.478 . S
C515 H509 0.930 . S
C515 C511 1.400 . S
C515 C514 1.385 . S
C516 C514 1.478 . S
C516 C518 1.381 . S
C516 C522 1.383 . S
C517 C513 1.495 . S
C517 H523 0.959 . S
C517 H524 0.961 . S
C517 H525 0.960 . S
C518 C516 1.381 . S
C518 C519 1.394 . S
C518 H526 0.930 . S
C519 C518 1.394 . S
C519 C520 1.383 . S
C519 H527 0.929 . S
C520 C519 1.383 . S
C520 C521 1.377 . S
C521 H505 0.930 . S
C521 C520 1.377 . S
C521 C522 1.379 . S
C522 H506 0.931 . S
C522 C516 1.383 . S
C522 C521 1.379 . S
H523 C517 0.959 . S
H524 C517 0.961 . S
H525 C517 0.960 . S
H526 C518 0.930 . S
H527 C519 0.929 . S
H528 C536 0.929 . S
H529 C538 0.930 . S
H530 C540 0.930 . S
H531 C543 0.929 . S
H532 C546 0.930 . S
H533 C548 0.960 . S
H534 C548 0.960 . S
H535 C548 0.960 . S
C536 H528 0.929 . S
C536 C537 1.377 . S
C536 C538 1.384 . S
C537 C536 1.377 . S
C537 C543 1.390 . S
C538 H529 0.930 . S
C538 C536 1.384 . S
C538 C539 1.372 . S
C539 C538 1.372 . S
C539 C540 1.400 . S
C539 C544 1.490 . S
C540 H530 0.930 . S
C540 C539 1.400 . S
C540 C543 1.386 . S
H541 C557 0.930 . S
H542 C558 0.931 . S
C543 H531 0.929 . S
C543 C537 1.390 . S
C543 C540 1.386 . S
C544 C539 1.490 . S
C544 C546 1.395 . S
C544 C547 1.403 . S
H545 C551 0.930 . S
C546 H532 0.930 . S
C546 C544 1.395 . S
C546 C549 1.403 . S
C547 C544 1.403 . S
C547 C548 1.524 . S
C547 C551 1.400 . S
C548 H533 0.960 . S
C548 H534 0.960 . S
C548 H535 0.960 . S
C548 C547 1.524 . S
C549 C546 1.403 . S
C549 C550 1.392 . S
C549 C553 1.495 . S
C550 C549 1.392 . S
C550 C551 1.385 . S
C550 C552 1.478 . S
C551 H545 0.930 . S
C551 C547 1.400 . S
C551 C550 1.385 . S
C552 C550 1.478 . S
C552 C554 1.381 . S
C552 C558 1.383 . S
C553 C549 1.495 . S
C553 H559 0.959 . S
C553 H560 0.961 . S
C553 H561 0.960 . S
C554 C552 1.381 . S
C554 C555 1.394 1_554 S
C554 H562 0.930 . S
C555 C554 1.394 1_556 S
C555 C556 1.383 . S
C555 H563 0.929 . S
C556 C555 1.383 . S
C556 C557 1.377 1_556 S
C557 H541 0.930 . S
C557 C556 1.377 1_554 S
C557 C558 1.379 . S
C558 H542 0.931 . S
C558 C552 1.383 . S
C558 C557 1.379 . S
H559 C553 0.959 . S
H560 C553 0.961 . S
H561 C553 0.960 . S
H562 C554 0.930 . S
H563 C555 0.929 . S
H564 C572 0.929 . S
H565 C574 0.930 . S
H566 C576 0.930 . S
H567 C579 0.929 . S
H568 C582 0.930 . S
H569 C584 0.960 . S
H570 C584 0.960 . S
H571 C584 0.960 . S
C572 H564 0.929 . S
C572 C573 1.377 . S
C572 C574 1.384 . S
C573 C572 1.377 . S
C573 C579 1.390 . S
C574 H565 0.930 . S
C574 C572 1.384 . S
C574 C575 1.372 . S
C575 C574 1.372 . S
C575 C576 1.400 . S
C575 C580 1.490 . S
C576 H566 0.930 . S
C576 C575 1.400 . S
C576 C579 1.386 . S
H577 C593 0.930 . S
H578 C594 0.931 . S
C579 H567 0.929 . S
C579 C573 1.390 . S
C579 C576 1.386 . S
C580 C575 1.490 . S
C580 C582 1.395 . S
C580 C583 1.403 . S
H581 C587 0.930 . S
C582 H568 0.930 . S
C582 C580 1.395 . S
C582 C585 1.403 . S
C583 C580 1.403 . S
C583 C584 1.524 . S
C583 C587 1.400 . S
C584 H569 0.960 . S
C584 H570 0.960 . S
C584 H571 0.960 . S
C584 C583 1.524 . S
C585 C582 1.403 . S
C585 C586 1.392 . S
C585 C589 1.495 . S
C586 C585 1.392 . S
C586 C587 1.385 . S
C586 C588 1.478 . S
C587 H581 0.930 . S
C587 C583 1.400 . S
C587 C586 1.385 . S
C588 C586 1.478 . S
C588 C590 1.381 . S
C588 C594 1.383 . S
C589 C585 1.495 . S
C589 H595 0.959 . S
C589 H596 0.961 . S
C589 H597 0.960 . S
C590 C588 1.381 . S
C590 C591 1.394 . S
C590 H598 0.930 . S
C591 C590 1.394 . S
C591 C592 1.383 . S
C591 H599 0.929 . S
C592 C591 1.383 . S
C592 C593 1.377 . S
C593 H577 0.930 . S
C593 C592 1.377 . S
C593 C594 1.379 . S
C594 H578 0.931 . S
C594 C588 1.383 . S
C594 C593 1.379 . S
H595 C589 0.959 . S
H596 C589 0.961 . S
H597 C589 0.960 . S
H598 C590 0.930 . S
H599 C591 0.929 . S
H600 C608 0.929 . S
H601 C610 0.930 . S
H602 C612 0.930 . S
H603 C615 0.929 . S
H604 C618 0.930 . S
H605 C620 0.960 . S
H606 C620 0.960 . S
H607 C620 0.960 . S
C608 H600 0.929 . S
C608 C609 1.377 . S
C608 C610 1.384 . S
C609 C608 1.377 . S
C609 C615 1.390 . S
C610 H601 0.930 . S
C610 C608 1.384 . S
C610 C611 1.372 . S
C611 C610 1.372 . S
C611 C612 1.400 . S
C611 C616 1.490 . S
C612 H602 0.930 . S
C612 C611 1.400 . S
C612 C615 1.386 . S
H613 C629 0.946 . S
H614 C630 0.931 . S
C615 H603 0.929 . S
C615 C609 1.390 . S
C615 C612 1.386 . S
C616 C611 1.490 . S
C616 C618 1.395 . S
C616 C619 1.403 . S
H617 C623 0.930 . S
C618 H604 0.930 . S
C618 C616 1.395 . S
C618 C621 1.403 . S
C619 C616 1.403 . S
C619 C620 1.524 . S
C619 C623 1.400 . S
C620 H605 0.960 . S
C620 H606 0.960 . S
C620 H607 0.960 . S
C620 C619 1.524 . S
C621 C618 1.403 . S
C621 C622 1.392 . S
C621 C625 1.495 . S
C622 C621 1.392 . S
C622 C623 1.385 . S
C622 C624 1.478 . S
C623 H617 0.930 . S
C623 C619 1.400 . S
C623 C622 1.385 . S
C624 C622 1.478 . S
C624 C626 1.381 . S
C624 C630 1.383 . S
C625 C621 1.495 . S
C625 H631 0.959 . S
C625 H632 0.961 . S
C625 H633 0.960 . S
C626 C624 1.381 . S
C626 C627 1.394 . S
C626 H634 0.930 . S
C627 C626 1.394 . S
C627 C628 1.383 1_556 S
C627 H635 0.929 . S
C628 C627 1.383 1_554 S
C628 C629 1.383 . S
C629 H613 0.946 . S
C629 C628 1.383 . S
C629 C630 1.357 1_554 S
C630 H614 0.931 . S
C630 C624 1.383 . S
C630 C629 1.357 1_556 S
H631 C625 0.959 . S
H632 C625 0.961 . S
H633 C625 0.960 . S
H634 C626 0.930 . S
H635 C627 0.929 . S
H636 C644 0.929 . S
H637 C646 0.930 . S
H638 C648 0.930 . S
H639 C651 0.929 . S
H640 C654 0.930 . S
H641 C656 0.960 . S
H642 C656 0.960 . S
H643 C656 0.960 . S
C644 H636 0.929 . S
C644 C645 1.377 . S
C644 C646 1.384 . S
C645 C644 1.377 . S
C645 C651 1.390 . S
C646 H637 0.930 . S
C646 C644 1.384 . S
C646 C647 1.372 . S
C647 C646 1.372 . S
C647 C648 1.400 . S
C647 C652 1.490 . S
C648 H638 0.930 . S
C648 C647 1.400 . S
C648 C651 1.386 . S
H649 C665 0.930 . S
H650 C666 0.931 . S
C651 H639 0.929 . S
C651 C645 1.390 . S
C651 C648 1.386 . S
C652 C647 1.490 . S
C652 C654 1.395 . S
C652 C655 1.403 . S
H653 C659 0.930 . S
C654 H640 0.930 . S
C654 C652 1.395 . S
C654 C657 1.403 . S
C655 C652 1.403 . S
C655 C656 1.524 . S
C655 C659 1.400 . S
C656 H641 0.960 . S
C656 H642 0.960 . S
C656 H643 0.960 . S
C656 C655 1.524 . S
C657 C654 1.403 . S
C657 C658 1.392 . S
C657 C661 1.495 . S
C658 C657 1.392 . S
C658 C659 1.385 . S
C658 C660 1.478 . S
C659 H653 0.930 . S
C659 C655 1.400 . S
C659 C658 1.385 . S
C660 C658 1.478 . S
C660 C662 1.381 . S
C660 C666 1.383 . S
C661 C657 1.495 . S
C661 H667 0.959 . S
C661 H668 0.961 . S
C661 H669 0.960 . S
C662 C660 1.381 . S
C662 C663 1.394 . S
C662 H670 0.930 . S
C663 C662 1.394 . S
C663 C664 1.383 1_554 S
C663 H671 0.929 1_554 S
C664 C663 1.383 1_556 S
C664 C665 1.377 1_556 S
C665 H649 0.930 . S
C665 C664 1.377 1_554 S
C665 C666 1.379 . S
C666 H650 0.931 . S
C666 C660 1.383 . S
C666 C665 1.379 . S
H667 C661 0.959 . S
H668 C661 0.961 . S
H669 C661 0.960 . S
H670 C662 0.930 . S
H671 C663 0.929 1_556 S
H672 C680 0.929 . S
H673 C682 0.930 . S
H674 C684 0.930 . S
H675 C687 0.929 . S
H676 C690 0.930 . S
H677 C692 0.960 . S
H678 C692 0.960 . S
H679 C692 0.960 . S
C680 H672 0.929 . S
C680 C681 1.377 . S
C680 C682 1.384 . S
C681 C680 1.377 . S
C681 C687 1.390 . S
C682 H673 0.930 . S
C682 C680 1.384 . S
C682 C683 1.372 . S
C683 C682 1.372 . S
C683 C684 1.400 . S
C683 C688 1.490 . S
C684 H674 0.930 . S
C684 C683 1.400 . S
C684 C687 1.386 . S
H685 C701 0.930 . S
H686 C702 0.931 . S
C687 H675 0.929 . S
C687 C681 1.390 . S
C687 C684 1.386 . S
C688 C683 1.490 . S
C688 C690 1.395 . S
C688 C691 1.403 . S
H689 C695 0.930 . S
C690 H676 0.930 . S
C690 C688 1.395 . S
C690 C693 1.403 . S
C691 C688 1.403 . S
C691 C692 1.524 . S
C691 C695 1.400 . S
C692 H677 0.960 . S
C692 H678 0.960 . S
C692 H679 0.960 . S
C692 C691 1.524 . S
C693 C690 1.403 . S
C693 C694 1.392 . S
C693 C697 1.495 . S
C694 C693 1.392 . S
C694 C695 1.385 . S
C694 C696 1.478 . S
C695 H689 0.930 . S
C695 C691 1.400 . S
C695 C694 1.385 . S
C696 C694 1.478 . S
C696 C698 1.381 . S
C696 C702 1.383 . S
C697 C693 1.495 . S
C697 H703 0.959 . S
C697 H704 0.961 . S
C697 H705 0.960 . S
C698 C696 1.381 . S
C698 C699 1.394 . S
C698 H706 0.930 . S
C699 C698 1.394 . S
C699 C700 1.383 . S
C699 H707 0.929 . S
C700 C699 1.383 . S
C700 C701 1.377 . S
C701 H685 0.930 . S
C701 C700 1.377 . S
C701 C702 1.379 . S
C702 H686 0.931 . S
C702 C696 1.383 . S
C702 C701 1.379 . S
H703 C697 0.959 . S
H704 C697 0.961 . S
H705 C697 0.960 . S
H706 C698 0.930 . S
H707 C699 0.929 . S
H708 C716 0.929 . S
H709 C718 0.930 . S
H710 C720 0.930 . S
H711 C723 0.929 . S
H712 C726 0.930 . S
H713 C728 0.960 . S
H714 C728 0.960 . S
H715 C728 0.960 . S
C716 H708 0.929 . S
C716 C717 1.377 . S
C716 C718 1.384 . S
C717 C716 1.377 . S
C717 C723 1.390 . S
C718 H709 0.930 . S
C718 C716 1.384 . S
C718 C719 1.372 . S
C719 C718 1.372 . S
C719 C720 1.400 . S
C719 C724 1.490 . S
C720 H710 0.930 . S
C720 C719 1.400 . S
C720 C723 1.386 . S
H721 C737 0.930 . S
H722 C738 0.931 . S
C723 H711 0.929 . S
C723 C717 1.390 . S
C723 C720 1.386 . S
C724 C719 1.490 . S
C724 C726 1.395 . S
C724 C727 1.403 . S
H725 C731 0.930 . S
C726 H712 0.930 . S
C726 C724 1.395 . S
C726 C729 1.403 . S
C727 C724 1.403 . S
C727 C728 1.524 . S
C727 C731 1.400 . S
C728 H713 0.960 . S
C728 H714 0.960 . S
C728 H715 0.960 . S
C728 C727 1.524 . S
C729 C726 1.403 . S
C729 C730 1.392 . S
C729 C733 1.495 . S
C730 C729 1.392 . S
C730 C731 1.385 . S
C730 C732 1.478 . S
C731 H725 0.930 . S
C731 C727 1.400 . S
C731 C730 1.385 . S
C732 C730 1.478 . S
C732 C734 1.381 . S
C732 C738 1.383 . S
C733 C729 1.495 . S
C733 H739 0.959 . S
C733 H740 0.961 . S
C733 H741 0.960 . S
C734 C732 1.381 . S
C734 C735 1.394 . S
C734 H742 0.930 . S
C735 C734 1.394 . S
C735 C736 1.383 . S
C735 H743 0.929 . S
C736 C735 1.383 . S
C736 C737 1.377 . S
C737 H721 0.930 . S
C737 C736 1.377 . S
C737 C738 1.379 . S
C738 H722 0.931 . S
C738 C732 1.383 . S
C738 C737 1.379 . S
H739 C733 0.959 . S
H740 C733 0.961 . S
H741 C733 0.960 . S
H742 C734 0.930 . S
H743 C735 0.929 . S
H744 C752 0.929 1_554 S
H745 C754 0.930 . S
H746 C756 0.930 . S
H747 C759 0.929 . S
H748 C762 0.930 . S
H749 C764 0.960 . S
H750 C764 0.960 . S
H751 C764 0.960 . S
C752 H744 0.929 1_556 S
C752 C753 1.377 . S
C752 C754 1.384 . S
C753 C752 1.377 . S
C753 C759 1.390 . S
C754 H745 0.930 . S
C754 C752 1.384 . S
C754 C755 1.372 . S
C755 C754 1.372 . S
C755 C756 1.400 . S
C755 C760 1.490 . S
C756 H746 0.930 . S
C756 C755 1.400 . S
C756 C759 1.386 . S
H757 C773 0.930 . S
H758 C774 0.931 . S
C759 H747 0.929 . S
C759 C753 1.390 . S
C759 C756 1.386 . S
C760 C755 1.490 . S
C760 C762 1.395 . S
C760 C763 1.403 . S
H761 C767 0.930 . S
C762 H748 0.930 . S
C762 C760 1.395 . S
C762 C765 1.403 . S
C763 C760 1.403 . S
C763 C764 1.524 . S
C763 C767 1.400 . S
C764 H749 0.960 . S
C764 H750 0.960 . S
C764 H751 0.960 . S
C764 C763 1.524 . S
C765 C762 1.403 . S
C765 C766 1.392 . S
C765 C769 1.495 . S
C766 C765 1.392 . S
C766 C767 1.385 . S
C766 C768 1.478 . S
C767 H761 0.930 . S
C767 C763 1.400 . S
C767 C766 1.385 . S
C768 C766 1.478 . S
C768 C770 1.381 . S
C768 C774 1.383 . S
C769 C765 1.495 . S
C769 H775 0.959 . S
C769 H776 0.961 . S
C769 H777 0.960 . S
C770 C768 1.381 . S
C770 C771 1.394 . S
C770 H778 0.930 . S
C771 C770 1.394 . S
C771 C772 1.383 . S
C771 H779 0.929 . S
C772 C771 1.383 . S
C772 C773 1.377 . S
C773 H757 0.930 . S
C773 C772 1.377 . S
C773 C774 1.379 . S
C774 H758 0.931 . S
C774 C768 1.383 . S
C774 C773 1.379 . S
H775 C769 0.959 . S
H776 C769 0.961 . S
H777 C769 0.960 . S
H778 C770 0.930 . S
H779 C771 0.929 . S
H780 C788 0.929 . S
H781 C790 0.930 . S
H782 C792 0.930 . S
H783 C795 0.929 . S
H784 C798 0.930 . S
H785 C800 0.960 . S
H786 C800 0.960 . S
H787 C800 0.960 . S
C788 H780 0.929 . S
C788 C789 1.377 . S
C788 C790 1.384 . S
C789 C788 1.377 . S
C789 C795 1.390 . S
C790 H781 0.930 . S
C790 C788 1.384 . S
C790 C791 1.372 . S
C791 C790 1.372 . S
C791 C792 1.400 . S
C791 C796 1.490 . S
C792 H782 0.930 . S
C792 C791 1.400 . S
C792 C795 1.386 . S
H793 C809 0.930 . S
H794 C810 0.931 . S
C795 H783 0.929 . S
C795 C789 1.390 . S
C795 C792 1.386 . S
C796 C791 1.490 . S
C796 C798 1.395 . S
C796 C799 1.403 . S
H797 C803 0.930 . S
C798 H784 0.930 . S
C798 C796 1.395 . S
C798 C801 1.403 . S
C799 C796 1.403 . S
C799 C800 1.524 . S
C799 C803 1.400 . S
C800 H785 0.960 . S
C800 H786 0.960 . S
C800 H787 0.960 . S
C800 C799 1.524 . S
C801 C798 1.403 . S
C801 C802 1.392 . S
C801 C805 1.495 . S
C802 C801 1.392 . S
C802 C803 1.385 . S
C802 C804 1.478 . S
C803 H797 0.930 . S
C803 C799 1.400 . S
C803 C802 1.385 . S
C804 C802 1.478 . S
C804 C806 1.381 . S
C804 C810 1.383 . S
C805 C801 1.495 . S
C805 H811 0.959 . S
C805 H812 0.961 . S
C805 H813 0.960 . S
C806 C804 1.381 . S
C806 C807 1.394 . S
C806 H814 0.930 . S
C807 C806 1.394 . S
C807 C808 1.383 . S
C807 H815 0.929 . S
C808 C807 1.383 . S
C808 C809 1.377 . S
C809 H793 0.930 . S
C809 C808 1.377 . S
C809 C810 1.379 . S
C810 H794 0.931 . S
C810 C804 1.383 . S
C810 C809 1.379 . S
H811 C805 0.959 . S
H812 C805 0.961 . S
H813 C805 0.960 . S
H814 C806 0.930 . S
H815 C807 0.929 . S
H816 C824 0.929 . S
H817 C826 0.930 . S
H818 C828 0.930 . S
H819 C831 0.929 . S
H820 C834 0.930 . S
H821 C836 0.960 . S
H822 C836 0.960 . S
H823 C836 0.960 . S
C824 H816 0.929 . S
C824 C825 1.377 . S
C824 C826 1.384 . S
C825 C824 1.377 . S
C825 C831 1.390 . S
C826 H817 0.930 . S
C826 C824 1.384 . S
C826 C827 1.372 . S
C827 C826 1.372 . S
C827 C828 1.400 . S
C827 C832 1.490 . S
C828 H818 0.930 . S
C828 C827 1.400 . S
C828 C831 1.386 . S
H829 C845 0.930 . S
H830 C846 0.931 . S
C831 H819 0.929 . S
C831 C825 1.390 . S
C831 C828 1.386 . S
C832 C827 1.490 . S
C832 C834 1.395 . S
C832 C835 1.403 . S
H833 C839 0.930 . S
C834 H820 0.930 . S
C834 C832 1.395 . S
C834 C837 1.403 . S
C835 C832 1.403 . S
C835 C836 1.524 . S
C835 C839 1.400 . S
C836 H821 0.960 . S
C836 H822 0.960 . S
C836 H823 0.960 . S
C836 C835 1.524 . S
C837 C834 1.403 . S
C837 C838 1.392 . S
C837 C841 1.495 . S
C838 C837 1.392 . S
C838 C839 1.385 . S
C838 C840 1.478 . S
C839 H833 0.930 . S
C839 C835 1.400 . S
C839 C838 1.385 . S
C840 C838 1.478 . S
C840 C842 1.381 . S
C840 C846 1.383 . S
C841 C837 1.495 . S
C841 H847 0.959 . S
C841 H848 0.961 . S
C841 H849 0.960 . S
C842 C840 1.381 . S
C842 C843 1.394 . S
C842 H850 0.930 . S
C843 C842 1.394 . S
C843 C844 1.383 . S
C843 H851 0.929 . S
C844 C843 1.383 . S
C844 C845 1.377 . S
C845 H829 0.930 . S
C845 C844 1.377 . S
C845 C846 1.379 . S
C846 H830 0.931 . S
C846 C840 1.383 . S
C846 C845 1.379 . S
H847 C841 0.959 . S
H848 C841 0.961 . S
H849 C841 0.960 . S
H850 C842 0.930 . S
H851 C843 0.929 . S
H852 C860 0.929 . S
H853 C862 0.930 . S
H854 C864 0.930 . S
H855 C867 0.929 . S
H856 C870 0.930 . S
H857 C872 0.960 . S
H858 C872 0.960 . S
H859 C872 0.960 . S
C860 H852 0.929 . S
C860 C861 1.377 . S
C860 C862 1.384 . S
C861 C860 1.377 . S
C861 C867 1.390 . S
C862 H853 0.930 . S
C862 C860 1.384 . S
C862 C863 1.372 . S
C863 C862 1.372 . S
C863 C864 1.400 . S
C863 C868 1.490 . S
C864 H854 0.930 . S
C864 C863 1.400 . S
C864 C867 1.386 . S
H865 C881 0.930 . S
H866 C882 0.931 . S
C867 H855 0.929 . S
C867 C861 1.390 . S
C867 C864 1.386 . S
C868 C863 1.490 . S
C868 C870 1.395 . S
C868 C871 1.403 . S
H869 C875 0.930 . S
C870 H856 0.930 . S
C870 C868 1.395 . S
C870 C873 1.403 . S
C871 C868 1.403 . S
C871 C872 1.524 . S
C871 C875 1.400 . S
C872 H857 0.960 . S
C872 H858 0.960 . S
C872 H859 0.960 . S
C872 C871 1.524 . S
C873 C870 1.403 . S
C873 C874 1.392 . S
C873 C877 1.495 . S
C874 C873 1.392 . S
C874 C875 1.385 . S
C874 C876 1.478 . S
C875 H869 0.930 . S
C875 C871 1.400 . S
C875 C874 1.385 . S
C876 C874 1.478 . S
C876 C878 1.381 . S
C876 C882 1.383 . S
C877 C873 1.495 . S
C877 H883 0.959 . S
C877 H884 0.961 . S
C877 H885 0.960 . S
C878 C876 1.381 . S
C878 C879 1.394 . S
C878 H886 0.930 . S
C879 C878 1.394 . S
C879 C880 1.383 . S
C879 H887 0.929 . S
C880 C879 1.383 . S
C880 C881 1.377 . S
C881 H865 0.930 . S
C881 C880 1.377 . S
C881 C882 1.379 . S
C882 H866 0.931 . S
C882 C876 1.383 . S
C882 C881 1.379 . S
H883 C877 0.959 . S
H884 C877 0.961 . S
H885 C877 0.960 . S
H886 C878 0.930 . S
H887 C879 0.929 . S
C249 C209 1.233 . S
C268 C10 1.282 . S
C285 C9 1.228 . S
C304 C50 1.286 . S
C321 C49 1.236 . S
C340 C90 1.277 . S
C357 C89 1.236 . S
C376 C130 1.280 . S
C393 C170 1.285 . S
C412 C129 1.262 . S
C429 C210 1.286 . S
C448 C169 1.250 . S
C465 C6 1.285 . S
C484 C15 1.300 . S
C501 C46 1.278 . S
C520 C55 1.299 . S
C537 C86 1.285 . S
C556 C95 1.273 . S
C573 C126 1.274 . S
C592 C135 1.254 . S
C609 C175 1.274 . S
C628 C166 1.277 . S
C645 C206 1.278 . S
C664 C215 1.247 . S
C681 C19 1.667 . S
C700 C178 1.674 . S
C717 C59 1.661 . S
C736 C218 1.675 . S
C753 C18 1.676 . S
C772 C99 1.675 . S
C789 C58 1.674 . S
C808 C139 1.664 . S
C825 C179 1.666 . S
C844 C98 1.671 . S
C861 C138 1.675 . S
C880 C219 1.645 . S
