# Generated by pormake.
# Topology umn, (4)-cn, num edge types: 1
# Building blocks:
#     Node 0, Type 0, BuildingBlock: QUQFOY_clean_sbu_1, # of connection points: 4
#     Node 1, Type 0, BuildingBlock: QUQFOY_clean_sbu_1, # of connection points: 4
#     Node 2, Type 0, BuildingBlock: QUQFOY_clean_sbu_1, # of connection points: 4
#     Node 3, Type 0, BuildingBlock: QUQFOY_clean_sbu_1, # of connection points: 4
#     Node 4, Type 0, BuildingBlock: QUQFOY_clean_sbu_1, # of connection points: 4
#     Node 5, Type 0, BuildingBlock: QUQFOY_clean_sbu_1, # of connection points: 4
#     Node 6, Type 0, BuildingBlock: QUQFOY_clean_sbu_1, # of connection points: 4
#     Node 7, Type 0, BuildingBlock: QUQFOY_clean_sbu_1, # of connection points: 4
#     Node 8, Type 0, BuildingBlock: QUQFOY_clean_sbu_1, # of connection points: 4
#     Node 9, Type 0, BuildingBlock: QUQFOY_clean_sbu_1, # of connection points: 4
#     Node 10, Type 0, BuildingBlock: QUQFOY_clean_sbu_1, # of connection points: 4
#     Node 11, Type 0, BuildingBlock: QUQFOY_clean_sbu_1, # of connection points: 4
#     Node 12, Type 0, BuildingBlock: QUQFOY_clean_sbu_1, # of connection points: 4
#     Node 13, Type 0, BuildingBlock: QUQFOY_clean_sbu_1, # of connection points: 4
#     Node 14, Type 0, BuildingBlock: QUQFOY_clean_sbu_1, # of connection points: 4
#     Node 15, Type 0, BuildingBlock: QUQFOY_clean_sbu_1, # of connection points: 4
#     Node 16, Type 0, BuildingBlock: QUQFOY_clean_sbu_1, # of connection points: 4
#     Node 17, Type 0, BuildingBlock: QUQFOY_clean_sbu_1, # of connection points: 4
#     Node 18, Type 0, BuildingBlock: QUQFOY_clean_sbu_1, # of connection points: 4
#     Node 19, Type 0, BuildingBlock: QUQFOY_clean_sbu_1, # of connection points: 4
#     Node 20, Type 0, BuildingBlock: QUQFOY_clean_sbu_1, # of connection points: 4
#     Node 21, Type 0, BuildingBlock: QUQFOY_clean_sbu_1, # of connection points: 4
#     Node 22, Type 0, BuildingBlock: QUQFOY_clean_sbu_1, # of connection points: 4
#     Node 23, Type 0, BuildingBlock: QUQFOY_clean_sbu_1, # of connection points: 4
#     Node 24, Type 0, BuildingBlock: QUQFOY_clean_sbu_1, # of connection points: 4
#     Node 25, Type 0, BuildingBlock: QUQFOY_clean_sbu_1, # of connection points: 4
#     Node 26, Type 0, BuildingBlock: QUQFOY_clean_sbu_1, # of connection points: 4
#     Node 27, Type 0, BuildingBlock: QUQFOY_clean_sbu_1, # of connection points: 4
#     Node 28, Type 0, BuildingBlock: QUQFOY_clean_sbu_1, # of connection points: 4
#     Node 29, Type 0, BuildingBlock: QUQFOY_clean_sbu_1, # of connection points: 4
#     Node 30, Type 0, BuildingBlock: QUQFOY_clean_sbu_1, # of connection points: 4
#     Node 31, Type 0, BuildingBlock: QUQFOY_clean_sbu_1, # of connection points: 4
#     Node 32, Type 0, BuildingBlock: QUQFOY_clean_sbu_1, # of connection points: 4
#     Node 33, Type 0, BuildingBlock: QUQFOY_clean_sbu_1, # of connection points: 4
#     Node 34, Type 0, BuildingBlock: QUQFOY_clean_sbu_1, # of connection points: 4
#     Node 35, Type 0, BuildingBlock: QUQFOY_clean_sbu_1, # of connection points: 4
#     Edge 36, Type (0, 0), BuildingBlock: UVAHIK_clean_linker_0, # of connection points: 2
#     Edge 37, Type (0, 0), BuildingBlock: UVAHIK_clean_linker_0, # of connection points: 2
#     Edge 38, Type (0, 0), BuildingBlock: UVAHIK_clean_linker_0, # of connection points: 2
#     Edge 39, Type (0, 0), BuildingBlock: UVAHIK_clean_linker_0, # of connection points: 2
#     Edge 40, Type (0, 0), BuildingBlock: UVAHIK_clean_linker_0, # of connection points: 2
#     Edge 41, Type (0, 0), BuildingBlock: UVAHIK_clean_linker_0, # of connection points: 2
#     Edge 42, Type (0, 0), BuildingBlock: UVAHIK_clean_linker_0, # of connection points: 2
#     Edge 43, Type (0, 0), BuildingBlock: UVAHIK_clean_linker_0, # of connection points: 2
#     Edge 44, Type (0, 0), BuildingBlock: UVAHIK_clean_linker_0, # of connection points: 2
#     Edge 45, Type (0, 0), BuildingBlock: UVAHIK_clean_linker_0, # of connection points: 2
#     Edge 46, Type (0, 0), BuildingBlock: UVAHIK_clean_linker_0, # of connection points: 2
#     Edge 47, Type (0, 0), BuildingBlock: UVAHIK_clean_linker_0, # of connection points: 2
#     Edge 48, Type (0, 0), BuildingBlock: UVAHIK_clean_linker_0, # of connection points: 2
#     Edge 49, Type (0, 0), BuildingBlock: UVAHIK_clean_linker_0, # of connection points: 2
#     Edge 50, Type (0, 0), BuildingBlock: UVAHIK_clean_linker_0, # of connection points: 2
#     Edge 51, Type (0, 0), BuildingBlock: UVAHIK_clean_linker_0, # of connection points: 2
#     Edge 52, Type (0, 0), BuildingBlock: UVAHIK_clean_linker_0, # of connection points: 2
#     Edge 53, Type (0, 0), BuildingBlock: UVAHIK_clean_linker_0, # of connection points: 2
#     Edge 54, Type (0, 0), BuildingBlock: UVAHIK_clean_linker_0, # of connection points: 2
#     Edge 55, Type (0, 0), BuildingBlock: UVAHIK_clean_linker_0, # of connection points: 2
#     Edge 56, Type (0, 0), BuildingBlock: UVAHIK_clean_linker_0, # of connection points: 2
#     Edge 57, Type (0, 0), BuildingBlock: UVAHIK_clean_linker_0, # of connection points: 2
#     Edge 58, Type (0, 0), BuildingBlock: UVAHIK_clean_linker_0, # of connection points: 2
#     Edge 59, Type (0, 0), BuildingBlock: UVAHIK_clean_linker_0, # of connection points: 2
#     Edge 60, Type (0, 0), BuildingBlock: UVAHIK_clean_linker_0, # of connection points: 2
#     Edge 61, Type (0, 0), BuildingBlock: UVAHIK_clean_linker_0, # of connection points: 2
#     Edge 62, Type (0, 0), BuildingBlock: UVAHIK_clean_linker_0, # of connection points: 2
#     Edge 63, Type (0, 0), BuildingBlock: UVAHIK_clean_linker_0, # of connection points: 2
#     Edge 64, Type (0, 0), BuildingBlock: UVAHIK_clean_linker_0, # of connection points: 2
#     Edge 65, Type (0, 0), BuildingBlock: UVAHIK_clean_linker_0, # of connection points: 2
#     Edge 66, Type (0, 0), BuildingBlock: UVAHIK_clean_linker_0, # of connection points: 2
#     Edge 67, Type (0, 0), BuildingBlock: UVAHIK_clean_linker_0, # of connection points: 2
#     Edge 68, Type (0, 0), BuildingBlock: UVAHIK_clean_linker_0, # of connection points: 2
#     Edge 69, Type (0, 0), BuildingBlock: UVAHIK_clean_linker_0, # of connection points: 2
#     Edge 70, Type (0, 0), BuildingBlock: UVAHIK_clean_linker_0, # of connection points: 2
#     Edge 71, Type (0, 0), BuildingBlock: UVAHIK_clean_linker_0, # of connection points: 2
#     Edge 72, Type (0, 0), BuildingBlock: UVAHIK_clean_linker_0, # of connection points: 2
#     Edge 73, Type (0, 0), BuildingBlock: UVAHIK_clean_linker_0, # of connection points: 2
#     Edge 74, Type (0, 0), BuildingBlock: UVAHIK_clean_linker_0, # of connection points: 2
#     Edge 75, Type (0, 0), BuildingBlock: UVAHIK_clean_linker_0, # of connection points: 2
#     Edge 76, Type (0, 0), BuildingBlock: UVAHIK_clean_linker_0, # of connection points: 2
#     Edge 77, Type (0, 0), BuildingBlock: UVAHIK_clean_linker_0, # of connection points: 2
#     Edge 78, Type (0, 0), BuildingBlock: UVAHIK_clean_linker_0, # of connection points: 2
#     Edge 79, Type (0, 0), BuildingBlock: UVAHIK_clean_linker_0, # of connection points: 2
#     Edge 80, Type (0, 0), BuildingBlock: UVAHIK_clean_linker_0, # of connection points: 2
#     Edge 81, Type (0, 0), BuildingBlock: UVAHIK_clean_linker_0, # of connection points: 2
#     Edge 82, Type (0, 0), BuildingBlock: UVAHIK_clean_linker_0, # of connection points: 2
#     Edge 83, Type (0, 0), BuildingBlock: UVAHIK_clean_linker_0, # of connection points: 2
#     Edge 84, Type (0, 0), BuildingBlock: UVAHIK_clean_linker_0, # of connection points: 2
#     Edge 85, Type (0, 0), BuildingBlock: UVAHIK_clean_linker_0, # of connection points: 2
#     Edge 86, Type (0, 0), BuildingBlock: UVAHIK_clean_linker_0, # of connection points: 2
#     Edge 87, Type (0, 0), BuildingBlock: UVAHIK_clean_linker_0, # of connection points: 2
#     Edge 88, Type (0, 0), BuildingBlock: UVAHIK_clean_linker_0, # of connection points: 2
#     Edge 89, Type (0, 0), BuildingBlock: UVAHIK_clean_linker_0, # of connection points: 2
#     Edge 90, Type (0, 0), BuildingBlock: UVAHIK_clean_linker_0, # of connection points: 2
#     Edge 91, Type (0, 0), BuildingBlock: UVAHIK_clean_linker_0, # of connection points: 2
#     Edge 92, Type (0, 0), BuildingBlock: UVAHIK_clean_linker_0, # of connection points: 2
#     Edge 93, Type (0, 0), BuildingBlock: UVAHIK_clean_linker_0, # of connection points: 2
#     Edge 94, Type (0, 0), BuildingBlock: UVAHIK_clean_linker_0, # of connection points: 2
#     Edge 95, Type (0, 0), BuildingBlock: UVAHIK_clean_linker_0, # of connection points: 2
#     Edge 96, Type (0, 0), BuildingBlock: UVAHIK_clean_linker_0, # of connection points: 2
#     Edge 97, Type (0, 0), BuildingBlock: UVAHIK_clean_linker_0, # of connection points: 2
#     Edge 98, Type (0, 0), BuildingBlock: UVAHIK_clean_linker_0, # of connection points: 2
#     Edge 99, Type (0, 0), BuildingBlock: UVAHIK_clean_linker_0, # of connection points: 2
#     Edge 100, Type (0, 0), BuildingBlock: UVAHIK_clean_linker_0, # of connection points: 2
#     Edge 101, Type (0, 0), BuildingBlock: UVAHIK_clean_linker_0, # of connection points: 2
#     Edge 102, Type (0, 0), BuildingBlock: UVAHIK_clean_linker_0, # of connection points: 2
#     Edge 103, Type (0, 0), BuildingBlock: UVAHIK_clean_linker_0, # of connection points: 2
#     Edge 104, Type (0, 0), BuildingBlock: UVAHIK_clean_linker_0, # of connection points: 2
#     Edge 105, Type (0, 0), BuildingBlock: UVAHIK_clean_linker_0, # of connection points: 2
#     Edge 106, Type (0, 0), BuildingBlock: UVAHIK_clean_linker_0, # of connection points: 2
#     Edge 107, Type (0, 0), BuildingBlock: UVAHIK_clean_linker_0, # of connection points: 2
# Relax obj value: 0.078
# Max RMSD: 0.126
# Mean RMSD: 0.126
data_MOF--net-umn--node1-QUQFOY_clean_sbu_1--edge1-UVAHIK_clean_linker_0
_symmetry_space_group_name_H-M    P1
_symmetry_Int_Tables_number       1
_symmetry_cell_setting            triclinic
loop_
_symmetry_equiv_pos_as_xyz
'x, y, z'
_cell_length_a     115.23642
_cell_length_b     115.19308
_cell_length_c     49.457803
_cell_angle_alpha  89.989166
_cell_angle_beta   90.022964
_cell_angle_gamma 119.98763
loop_
_atom_site_label
_atom_site_type_symbol
_atom_site_fract_x
_atom_site_fract_y
_atom_site_fract_z
_atom_type_partial_charge
O0 O 0.33733 0.0917 0.26494 0.0
Cd1 Cd 0.33219 0.08813 0.22493 0.0
Cd2 Cd 0.34821 0.07717 0.22926 0.0
O3 O 0.35168 0.08443 0.26859 0.0
O4 O 0.32154 0.09727 0.22167 0.0
O5 O 0.33982 0.10329 0.19773 0.0
C6 C 0.33005 0.1052 0.20418 0.0
C7 C 0.36477 0.08136 0.19745 0.0
C8 C 0.34525 0.08959 0.27921 0.0
C9 C 0.31904 0.05853 0.21801 0.0
O10 O 0.33033 0.05966 0.22348 0.0
O11 O 0.31778 0.06883 0.21612 0.0
O12 O 0.36262 0.07347 0.21772 0.0
O13 O 0.35799 0.08753 0.19616 0.0
O14 O 0.90294 0.2514 0.27199 0.0
Cd15 Cd 0.90458 0.24621 0.23309 0.0
Cd16 Cd 0.91981 0.2742 0.22881 0.0
O17 O 0.91548 0.27342 0.26967 0.0
O18 O 0.89391 0.22641 0.23656 0.0
O19 O 0.88863 0.23759 0.20768 0.0
C20 C 0.88605 0.22626 0.218 0.0
C21 C 0.91793 0.289 0.19918 0.0
C22 C 0.90845 0.26281 0.28334 0.0
C23 C 0.93391 0.25863 0.21919 0.0
O24 O 0.9348 0.27007 0.21982 0.0
O25 O 0.92278 0.24806 0.22347 0.0
O26 O 0.92696 0.29324 0.21781 0.0
O27 O 0.90953 0.27628 0.19795 0.0
O28 O 0.73965 0.64886 0.27441 0.0
Cd29 Cd 0.74422 0.65403 0.23453 0.0
Cd30 Cd 0.71651 0.64148 0.23199 0.0
O31 O 0.71757 0.63872 0.27325 0.0
O32 O 0.76407 0.66303 0.2369 0.0
O33 O 0.75227 0.64546 0.21088 0.0
C34 C 0.7638 0.65446 0.21995 0.0
C35 C 0.7032 0.62456 0.20143 0.0
C36 C 0.72843 0.64309 0.28652 0.0
C37 C 0.73183 0.67073 0.21886 0.0
O38 O 0.72035 0.66038 0.22178 0.0
O39 O 0.74241 0.67007 0.22209 0.0
O40 O 0.69792 0.62855 0.21955 0.0
O41 O 0.71607 0.62972 0.20145 0.0
O42 O 0.08968 0.34482 0.23853 0.0
Cd43 Cd 0.08798 0.33768 0.27716 0.0
Cd44 Cd 0.07282 0.35 0.28257 0.0
O45 O 0.07686 0.35395 0.2417 0.0
O46 O 0.09944 0.32938 0.2742 0.0
O47 O 0.10355 0.34544 0.30342 0.0
C48 C 0.10682 0.33717 0.29321 0.0
C49 C 0.07544 0.36641 0.31368 0.0
C50 C 0.084 0.35065 0.22762 0.0
C51 C 0.05881 0.32027 0.29088 0.0
O52 O 0.05788 0.33081 0.29119 0.0
O53 O 0.06994 0.32095 0.28601 0.0
O54 O 0.06608 0.36192 0.29571 0.0
O55 O 0.08376 0.36197 0.31332 0.0
O56 O 0.64963 0.74461 0.23907 0.0
Cd57 Cd 0.65685 0.7495 0.27778 0.0
Cd58 Cd 0.64431 0.72169 0.2813 0.0
O59 O 0.64078 0.72263 0.24033 0.0
O60 O 0.66582 0.76933 0.27508 0.0
O61 O 0.64986 0.75784 0.30469 0.0
C62 C 0.65842 0.76928 0.29451 0.0
C63 C 0.628 0.70762 0.31243 0.0
C64 C 0.64405 0.73333 0.22718 0.0
C65 C 0.67399 0.73716 0.28989 0.0
O66 O 0.66342 0.72573 0.28984 0.0
O67 O 0.67341 0.74772 0.28571 0.0
O68 O 0.63232 0.70288 0.29385 0.0
O69 O 0.63243 0.72039 0.31247 0.0
O70 O 0.25061 0.90139 0.23427 0.0
Cd71 Cd 0.24505 0.90195 0.27342 0.0
Cd72 Cd 0.27262 0.91656 0.27913 0.0
O73 O 0.27261 0.9134 0.23784 0.0
O74 O 0.22527 0.89121 0.2694 0.0
O75 O 0.23645 0.88541 0.2972 0.0
C76 C 0.22514 0.88294 0.28699 0.0
C77 C 0.28582 0.91296 0.31005 0.0
C78 C 0.26214 0.90699 0.22344 0.0
C79 C 0.25739 0.93085 0.29006 0.0
O80 O 0.26877 0.9316 0.28929 0.0
O81 O 0.24679 0.91988 0.285 0.0
O82 O 0.29107 0.9226 0.29271 0.0
O83 O 0.27303 0.90486 0.30896 0.0
O84 O 0.64685 0.9072 0.73863 0.0
Cd85 Cd 0.6528 0.9081 0.77805 0.0
Cd86 Cd 0.64141 0.92462 0.78148 0.0
O87 O 0.63887 0.92108 0.73999 0.0
O88 O 0.66129 0.89681 0.77475 0.0
O89 O 0.64473 0.89193 0.80303 0.0
C90 C 0.65331 0.88902 0.79304 0.0
C91 C 0.62452 0.9227 0.81079 0.0
C92 C 0.64207 0.91364 0.72665 0.0
C93 C 0.67074 0.93716 0.79333 0.0
O94 O 0.66062 0.93877 0.79223 0.0
O95 O 0.66954 0.92577 0.78876 0.0
O96 O 0.6298 0.9321 0.79294 0.0
O97 O 0.62838 0.91392 0.81123 0.0
O98 O 0.09449 0.74972 0.73947 0.0
Cd99 Cd 0.09334 0.75143 0.78052 0.0
Cd100 Cd 0.08466 0.72474 0.77561 0.0
O101 O 0.09018 0.72888 0.73511 0.0
O102 O 0.10156 0.77114 0.78396 0.0
O103 O 0.10995 0.75981 0.80388 0.0
C104 C 0.11072 0.77117 0.79884 0.0
C105 C 0.08991 0.71275 0.80645 0.0
C106 C 0.0931 0.74012 0.72459 0.0
C107 C 0.06492 0.733 0.79387 0.0
O108 O 0.06687 0.72373 0.78522 0.0
O109 O 0.07451 0.74498 0.79543 0.0
O110 O 0.08201 0.70686 0.78627 0.0
O111 O 0.0959 0.7257 0.80752 0.0
O112 O 0.24968 0.34632 0.73689 0.0
Cd113 Cd 0.24415 0.33853 0.77505 0.0
Cd114 Cd 0.27154 0.35104 0.78112 0.0
O115 O 0.2716 0.35537 0.74047 0.0
O116 O 0.2244 0.33008 0.77192 0.0
O117 O 0.23611 0.34567 0.80217 0.0
C118 C 0.22463 0.33747 0.7916 0.0
C119 C 0.2851 0.36732 0.81261 0.0
C120 C 0.26125 0.35229 0.72626 0.0
C121 C 0.2562 0.32123 0.78766 0.0
O122 O 0.26756 0.33185 0.78893 0.0
O123 O 0.24571 0.32182 0.78257 0.0
O124 O 0.29011 0.36303 0.79454 0.0
O125 O 0.27231 0.3627 0.81222 0.0
O126 O 0.89912 0.65348 0.76614 0.0
Cd127 Cd 0.90397 0.65712 0.72587 0.0
Cd128 Cd 0.90861 0.63711 0.73476 0.0
O129 O 0.89925 0.63459 0.7719 0.0
O130 O 0.89784 0.67007 0.71765 0.0
O131 O 0.8895 0.65043 0.69738 0.0
C132 C 0.8894 0.66149 0.70083 0.0
C133 C 0.90422 0.62138 0.70089 0.0
C134 C 0.89744 0.64386 0.78129 0.0
C135 C 0.93231 0.66453 0.72644 0.0
O136 O 0.92798 0.65265 0.73485 0.0
O137 O 0.92417 0.66821 0.7185 0.0
O138 O 0.90945 0.62089 0.72367 0.0
O139 O 0.90042 0.63016 0.69827 0.0
O140 O 0.343 0.25251 0.77074 0.0
Cd141 Cd 0.33729 0.2479 0.73114 0.0
Cd142 Cd 0.35007 0.27548 0.72806 0.0
O143 O 0.35306 0.27457 0.76911 0.0
O144 O 0.3286 0.22809 0.73297 0.0
O145 O 0.34598 0.24032 0.70675 0.0
C146 C 0.33721 0.22867 0.71575 0.0
C147 C 0.36728 0.28961 0.69883 0.0
C148 C 0.34894 0.2638 0.78253 0.0
C149 C 0.32067 0.26036 0.71589 0.0
O150 O 0.33122 0.27175 0.71785 0.0
O151 O 0.3211 0.24969 0.71972 0.0
O152 O 0.3626 0.2943 0.71678 0.0
O153 O 0.36252 0.2768 0.69811 0.0
O154 O 0.74298 0.09049 0.77438 0.0
Cd155 Cd 0.74739 0.08896 0.73484 0.0
Cd156 Cd 0.71939 0.07304 0.73285 0.0
O157 O 0.72104 0.077 0.77425 0.0
O158 O 0.76721 0.10016 0.73677 0.0
O159 O 0.75511 0.10479 0.70907 0.0
C160 C 0.76673 0.10779 0.71842 0.0
C161 C 0.70396 0.07461 0.70421 0.0
C162 C 0.73191 0.08441 0.78695 0.0
C163 C 0.7355 0.05973 0.72069 0.0
O164 O 0.72395 0.05854 0.72211 0.0
O165 O 0.74595 0.07097 0.7248 0.0
O166 O 0.70013 0.06549 0.72259 0.0
O167 O 0.71658 0.08338 0.70295 0.0
O168 O 0.00794 0.427 0.60444 0.0
Cd169 Cd 0.00068 0.42415 0.56568 0.0
Cd170 Cd 0.0143 0.40999 0.56236 0.0
O171 O 0.01795 0.41493 0.60299 0.0
O172 O 0.99139 0.43474 0.5671 0.0
O173 O 0.00756 0.43911 0.53802 0.0
C174 C -0.00116 0.44194 0.54754 0.0
C175 C 0.03105 0.41229 0.5325 0.0
C176 C 0.01418 0.42194 0.61619 0.0
C177 C 0.98457 0.39456 0.5541 0.0
O178 O 0.99545 0.39427 0.55425 0.0
O179 O 0.9846 0.40546 0.558 0.0
O180 O 0.0268 0.40353 0.55165 0.0
O181 O 0.02617 0.42022 0.5309 0.0
O182 O 0.57006 0.57956 0.60212 0.0
Cd183 Cd 0.57446 0.57835 0.5625 0.0
Cd184 Cd 0.58604 0.60561 0.56793 0.0
O185 O 0.57819 0.6013 0.60692 0.0
O186 O 0.56533 0.55857 0.55894 0.0
O187 O 0.55984 0.57097 0.53408 0.0
C188 C 0.55777 0.55925 0.54068 0.0
C189 C 0.58312 0.61911 0.53658 0.0
C190 C 0.57236 0.58952 0.61682 0.0
C191 C 0.60426 0.59445 0.55776 0.0
O192 O 0.60333 0.60476 0.56295 0.0
O193 O 0.59385 0.58301 0.55545 0.0
O194 O 0.59054 0.62417 0.55774 0.0
O195 O 0.57666 0.6062 0.53406 0.0
O196 O 0.40958 0.98089 0.60681 0.0
Cd197 Cd 0.41465 0.98605 0.56709 0.0
Cd198 Cd 0.38692 0.97332 0.56303 0.0
O199 O 0.38753 0.97069 0.60438 0.0
O200 O 0.43446 0.99492 0.57015 0.0
O201 O 0.42273 0.97719 0.54443 0.0
C202 C 0.43422 0.98617 0.55373 0.0
C203 C 0.37264 0.9562 0.5337 0.0
C204 C 0.3982 0.97507 0.61827 0.0
C205 C 0.40245 0.00264 0.54987 0.0
O206 O 0.391 0.9922 0.5521 0.0
O207 O 0.41305 0.00213 0.55409 0.0
O208 O 0.36806 0.96107 0.55146 0.0
O209 O 0.38539 0.96063 0.53336 0.0
O210 O 0.759 0.68379 0.56973 0.0
Cd211 Cd 0.75936 0.67834 0.6091 0.0
Cd212 Cd 0.74395 0.69079 0.61479 0.0
O213 O 0.74653 0.69332 0.57318 0.0
O214 O 0.76999 0.66924 0.6041 0.0
O215 O 0.77654 0.68662 0.63108 0.0
C216 C 0.77871 0.67761 0.62074 0.0
C217 C 0.74747 0.70786 0.64505 0.0
C218 C 0.75298 0.68929 0.5588 0.0
C219 C 0.73077 0.6615 0.62793 0.0
O220 O 0.72956 0.67185 0.62639 0.0
O221 O 0.74186 0.66218 0.62256 0.0
O222 O 0.73758 0.70299 0.62826 0.0
O223 O 0.75585 0.7035 0.64371 0.0
O224 O 0.32535 0.08571 0.57764 0.0
Cd225 Cd 0.33032 0.08703 0.61771 0.0
Cd226 Cd 0.31407 0.06001 0.61296 0.0
O227 O 0.31075 0.06416 0.57378 0.0
O228 O 0.34105 0.10679 0.62147 0.0
O229 O 0.3226 0.09446 0.6449 0.0
C230 C 0.33244 0.10616 0.63879 0.0
C231 C 0.29719 0.04674 0.64356 0.0
C232 C 0.31734 0.07577 0.56329 0.0
C233 C 0.34325 0.07037 0.62418 0.0
O234 O 0.33192 0.06029 0.61855 0.0
O235 O 0.34461 0.08196 0.6264 0.0
O236 O 0.29964 0.04158 0.6227 0.0
O237 O 0.30387 0.05963 0.64627 0.0
O238 O 0.9151 0.23666 0.57104 0.0
Cd239 Cd 0.91004 0.23847 0.60994 0.0
Cd240 Cd 0.93753 0.25307 0.61458 0.0
O241 O 0.93711 0.24904 0.57362 0.0
O242 O 0.89024 0.22738 0.60753 0.0
O243 O 0.90212 0.22291 0.63622 0.0
C244 C 0.89057 0.2199 0.62641 0.0
C245 C 0.95089 0.24981 0.64568 0.0
C246 C 0.92653 0.24212 0.55979 0.0
C247 C 0.92254 0.26773 0.62378 0.0
O248 O 0.93387 0.26837 0.62357 0.0
O249 O 0.9119 0.25672 0.61918 0.0
O250 O 0.95606 0.25918 0.62776 0.0
O251 O 0.93807 0.24181 0.64517 0.0
O252 O 0.3162 0.23891 0.06933 0.0
Cd253 Cd 0.32316 0.24062 0.1081 0.0
Cd254 Cd 0.31063 0.2556 0.11317 0.0
O255 O 0.30655 0.25126 0.07248 0.0
O256 O 0.33164 0.22932 0.10538 0.0
O257 O 0.31517 0.22482 0.13377 0.0
C258 C 0.32359 0.22168 0.1238 0.0
C259 C 0.2941 0.2532 0.14367 0.0
C260 C 0.31008 0.2443 0.05844 0.0
C261 C 0.34035 0.26989 0.12148 0.0
O262 O 0.32979 0.27076 0.12133 0.0
O263 O 0.33974 0.25873 0.11726 0.0
O264 O 0.29859 0.26235 0.12528 0.0
O265 O 0.29871 0.24502 0.14429 0.0
O266 O 0.7656 0.0771 0.06928 0.0
Cd267 Cd 0.76219 0.07881 0.10947 0.0
Cd268 Cd 0.75429 0.05256 0.10755 0.0
O269 O 0.76122 0.05615 0.06796 0.0
O270 O 0.76977 0.0985 0.1123 0.0
O271 O 0.77734 0.08758 0.13647 0.0
C272 C 0.77813 0.0988 0.1299 0.0
C273 C 0.75933 0.04217 0.14239 0.0
C274 C 0.76459 0.06719 0.05604 0.0
C275 C 0.73306 0.05987 0.11597 0.0
O276 O 0.73574 0.05067 0.1108 0.0
O277 O 0.74242 0.07192 0.11871 0.0
O278 O 0.75269 0.0355 0.12138 0.0
O279 O 0.76404 0.05499 0.14263 0.0
O280 O 0.90843 0.67124 0.07618 0.0
Cd281 Cd 0.9067 0.6656 0.11592 0.0
Cd282 Cd 0.93417 0.68134 0.11164 0.0
O283 O 0.93023 0.68477 0.07218 0.0
O284 O 0.88688 0.65513 0.11897 0.0
O285 O 0.89926 0.67303 0.14382 0.0
C286 C 0.88754 0.66342 0.13708 0.0
C287 C 0.94771 0.69775 0.14309 0.0
C288 C 0.91854 0.67882 0.06179 0.0
C289 C 0.92271 0.65188 0.12225 0.0
O290 O 0.93307 0.66313 0.11739 0.0
O291 O 0.91123 0.65083 0.12373 0.0
O292 O 0.95279 0.69515 0.12229 0.0
O293 O 0.93479 0.69163 0.14505 0.0
O294 O 0.57292 0.99528 0.09902 0.0
Cd295 Cd 0.57339 0.99633 0.05763 0.0
Cd296 Cd 0.57852 0.97648 0.06558 0.0
O297 O 0.57191 0.97584 0.1052 0.0
O298 O 0.56597 0.00831 0.05081 0.0
O299 O 0.55639 0.98747 0.03574 0.0
C300 C 0.55623 -0.00144 0.03809 0.0
C301 C 0.57266 0.95918 0.03457 0.0
C302 C 0.5718 0.98606 0.11476 0.0
C303 C 0.60082 0.00309 0.04608 0.0
O304 O 0.59748 0.992 0.05763 0.0
O305 O 0.59215 0.00652 0.04122 0.0
O306 O 0.57948 0.96013 0.05603 0.0
O307 O 0.56789 0.96719 0.03234 0.0
O308 O 0.01603 0.59069 0.10725 0.0
Cd309 Cd 0.01071 0.58547 0.06763 0.0
Cd310 Cd 0.02227 0.61312 0.06331 0.0
O311 O 0.02453 0.61259 0.10498 0.0
O312 O 0.00249 0.56572 0.07111 0.0
O313 O 0.01938 0.57764 0.04364 0.0
C314 C 0.01083 0.5661 0.05345 0.0
C315 C 0.0394 0.62745 0.03385 0.0
C316 C 0.02091 0.60201 0.11884 0.0
C317 C 0.99306 0.59653 0.05031 0.0
O318 O 0.00323 0.60823 0.05167 0.0
O319 O 0.99411 0.5863 0.0554 0.0
O320 O 0.03422 0.63198 0.05103 0.0
O321 O 0.0353 0.61475 0.03423 0.0
O322 O 0.41315 0.42524 0.10195 0.0
Cd323 Cd 0.41788 0.42429 0.06238 0.0
Cd324 Cd 0.39008 0.40985 0.05905 0.0
O325 O 0.39107 0.41382 0.10008 0.0
O326 O 0.43772 0.43495 0.06482 0.0
O327 O 0.42606 0.44088 0.03871 0.0
C328 C 0.43753 0.44334 0.04798 0.0
C329 C 0.37549 0.41245 0.03018 0.0
C330 C 0.40184 0.42016 0.11362 0.0
C331 C 0.40491 0.39518 0.04707 0.0
O332 O 0.39363 0.39458 0.0491 0.0
O333 O 0.41572 0.40617 0.05074 0.0
O334 O 0.3711 0.40327 0.0485 0.0
O335 O 0.38826 0.42061 0.02886 0.0
O336 O 0.68031 0.76478 0.94146 0.0
Cd337 Cd 0.67514 0.76376 0.90145 0.0
Cd338 Cd 0.69206 0.75279 0.89876 0.0
O339 O 0.69394 0.75649 0.94014 0.0
O340 O 0.66439 0.77289 0.9025 0.0
O341 O 0.68255 0.78014 0.87745 0.0
C342 C 0.67268 0.78153 0.88559 0.0
C343 C 0.70964 0.75663 0.86966 0.0
C344 C 0.68771 0.76114 0.95347 0.0
C345 C 0.66293 0.73523 0.88376 0.0
O346 O 0.67437 0.73638 0.8873 0.0
O347 O 0.66112 0.7451 0.88773 0.0
O348 O 0.70579 0.74781 0.88866 0.0
O349 O 0.70418 0.76405 0.8684 0.0
O350 O 0.23972 0.92172 0.93843 0.0
Cd351 Cd 0.24116 0.91641 0.89953 0.0
Cd352 Cd 0.25696 0.94397 0.89509 0.0
O353 O 0.25308 0.94363 0.93612 0.0
O354 O 0.22994 0.89665 0.90283 0.0
O355 O 0.22527 0.90831 0.87396 0.0
C356 C 0.22231 0.89684 0.88414 0.0
C357 C 0.2543 0.9579 0.86441 0.0
C358 C 0.24571 0.93312 0.94982 0.0
C359 C 0.27031 0.92778 0.88543 0.0
O360 O 0.2716 0.93939 0.88575 0.0
O361 O 0.25902 0.91748 0.89004 0.0
O362 O 0.2638 0.96267 0.8821 0.0
O363 O 0.24587 0.94516 0.86487 0.0
O364 O 0.07611 0.31706 0.94014 0.0
Cd365 Cd 0.08094 0.32351 0.90096 0.0
Cd366 Cd 0.05332 0.31084 0.89715 0.0
O367 O 0.0541 0.30759 0.93816 0.0
O368 O 0.10074 0.33215 0.90329 0.0
O369 O 0.08877 0.3156 0.87506 0.0
C370 C 0.10034 0.32416 0.88473 0.0
C371 C 0.03903 0.29394 0.86742 0.0
C372 C 0.06477 0.31129 0.95173 0.0
C373 C 0.06862 0.3404 0.88672 0.0
O374 O 0.05721 0.32982 0.88756 0.0
O375 O 0.07922 0.33991 0.89107 0.0
O376 O 0.03444 0.29857 0.88569 0.0
O377 O 0.0518 0.29853 0.86667 0.0
O378 O 0.42262 0.01321 0.90344 0.0
Cd379 Cd 0.42179 0.00737 0.94291 0.0
Cd380 Cd 0.40589 0.01913 0.9466 0.0
O381 O 0.40962 0.02218 0.90544 0.0
O382 O 0.43319 -0.00099 0.94036 0.0
O383 O 0.4381 0.01608 0.96733 0.0
C384 C 0.44109 0.00745 0.95796 0.0
C385 C 0.40794 0.03601 0.9758 0.0
C386 C 0.41669 0.01863 0.89183 0.0
C387 C 0.39285 0.98973 0.95842 0.0
O388 O 0.39143 -3e-05 0.9569 0.0
O389 O 0.40416 0.99073 0.95415 0.0
O390 O 0.3986 0.03085 0.95784 0.0
O391 O 0.41656 0.03194 0.97655 0.0
O392 O 0.9849 0.41565 0.90522 0.0
Cd393 Cd 0.99275 0.42073 0.94345 0.0
Cd394 Cd 0.97917 0.39306 0.94864 0.0
O395 O 0.9749 0.39361 0.90808 0.0
O396 O 0.00196 0.44057 0.94081 0.0
O397 O 0.98619 0.42919 0.97091 0.0
C398 C 0.99475 0.4406 0.96057 0.0
C399 C 0.96289 0.37949 0.98019 0.0
C400 C 0.97848 0.40418 0.89425 0.0
C401 C 0.00901 0.40745 0.95529 0.0
O402 O -0.00188 0.39631 0.95607 0.0
O403 O 0.00895 0.41827 0.95076 0.0
O404 O 0.96681 0.37444 0.96149 0.0
O405 O 0.96781 0.39233 0.9803 0.0
O406 O 0.57841 0.56959 0.91099 0.0
Cd407 Cd 0.58013 0.57475 0.95112 0.0
Cd408 Cd 0.60443 0.5793 0.94126 0.0
O409 O 0.59707 0.56903 0.90517 0.0
O410 O 0.56113 0.56836 0.96066 0.0
O411 O 0.57299 0.56028 0.97954 0.0
C412 C 0.56166 0.55991 0.97688 0.0
C413 C 0.61462 0.57485 0.97717 0.0
C414 C 0.58602 0.56738 0.89594 0.0
C415 C 0.60091 0.60309 0.94839 0.0
O416 O 0.6083 0.5987 0.93927 0.0
O417 O 0.58941 0.59503 0.95795 0.0
O418 O 0.62085 0.57936 0.95449 0.0
O419 O 0.60222 0.57188 0.97864 0.0
O420 O 0.97687 0.57076 0.40026 0.0
Cd421 Cd 0.98279 0.57061 0.43935 0.0
Cd422 Cd 0.97195 0.5874 0.44567 0.0
O423 O 0.96937 0.58496 0.404 0.0
O424 O 0.99062 0.55881 0.43442 0.0
O425 O 0.97434 0.55411 0.46334 0.0
C426 C 0.98258 0.55096 0.45259 0.0
C427 C 0.95517 0.58519 0.47554 0.0
C428 C 0.97233 0.57769 0.38947 0.0
C429 C 0.00124 0.59912 0.45717 0.0
O430 O 0.99123 0.60094 0.45716 0.0
O431 O -0.00018 0.58779 0.45097 0.0
O432 O 0.96082 0.5951 0.45887 0.0
O433 O 0.95862 0.57611 0.47442 0.0
O434 O 0.42547 0.41154 0.40027 0.0
Cd435 Cd 0.42389 0.41718 0.43878 0.0
Cd436 Cd 0.40895 0.38986 0.44486 0.0
O437 O 0.41293 0.38959 0.40411 0.0
O438 O 0.43537 0.43691 0.43559 0.0
O439 O 0.43964 0.42496 0.46455 0.0
C440 C 0.44289 0.43649 0.45428 0.0
C441 C 0.41215 0.37679 0.47673 0.0
C442 C 0.41994 0.39994 0.38974 0.0
C443 C 0.39478 0.40542 0.45289 0.0
O444 O 0.39389 0.39397 0.45322 0.0
O445 O 0.4059 0.41589 0.44797 0.0
O446 O 0.40266 0.37148 0.45906 0.0
O447 O 0.42025 0.38958 0.47563 0.0
O448 O 0.57768 0.00503 0.41493 0.0
Cd449 Cd 0.57885 0.0018 0.45544 0.0
Cd450 Cd 0.60316 0.0219 0.44596 0.0
O451 O 0.59596 0.02459 0.40929 0.0
O452 O 0.55979 0.98879 0.46359 0.0
O453 O 0.57081 0.00867 0.48301 0.0
C454 C 0.55973 0.99752 0.4797 0.0
C455 C 0.61446 0.03715 0.48068 0.0
C456 C 0.58519 0.01487 0.3998 0.0
C457 C 0.59969 0.99453 0.45423 0.0
O458 O 0.60691 0.00628 0.44483 0.0
O459 O 0.58813 0.99096 0.46361 0.0
O460 O 0.62023 0.03794 0.45781 0.0
O461 O 0.60184 0.02839 0.48288 0.0
O462 O 0.23733 0.32047 0.43836 0.0
Cd463 Cd 0.2393 0.32719 0.39931 0.0
Cd464 Cd 0.25367 0.31415 0.39547 0.0
O465 O 0.24957 0.31067 0.43638 0.0
O466 O 0.22818 0.33588 0.40107 0.0
O467 O 0.2238 0.31935 0.37291 0.0
C468 C 0.22072 0.32791 0.38236 0.0
C469 C 0.25015 0.29733 0.36474 0.0
C470 C 0.24266 0.31445 0.44991 0.0
C471 C 0.26855 0.34375 0.38569 0.0
O472 O 0.26909 0.33301 0.38624 0.0
O473 O 0.25758 0.34351 0.39004 0.0
O474 O 0.25955 0.30152 0.3826 0.0
O475 O 0.24228 0.30231 0.36509 0.0
O476 O 0.68473 0.92041 0.44445 0.0
Cd477 Cd 0.68041 0.91626 0.40413 0.0
Cd478 Cd 0.69604 0.94401 0.40192 0.0
O479 O 0.69764 0.94243 0.44354 0.0
O480 O 0.67007 0.89637 0.40543 0.0
O481 O 0.68845 0.90752 0.38116 0.0
C482 C 0.67864 0.89617 0.38914 0.0
C483 C 0.71347 0.9565 0.37166 0.0
C484 C 0.69153 0.93149 0.45675 0.0
C485 C 0.66715 0.93156 0.3856 0.0
O486 O 0.6782 0.94223 0.38993 0.0
O487 O 0.66606 0.92015 0.38919 0.0
O488 O 0.71019 0.96229 0.39001 0.0
O489 O 0.70752 0.94355 0.37174 0.0
O490 O 0.07891 0.75516 0.42842 0.0
Cd491 Cd 0.08067 0.75212 0.38818 0.0
Cd492 Cd 0.05304 0.7392 0.39362 0.0
O493 O 0.05707 0.74612 0.43337 0.0
O494 O 0.10051 0.76161 0.38579 0.0
O495 O 0.08833 0.76754 0.36141 0.0
C496 C 0.09999 0.76954 0.36822 0.0
C497 C 0.03861 0.74168 0.36389 0.0
C498 C 0.06883 0.75204 0.44339 0.0
C499 C 0.06554 0.72239 0.38044 0.0
O500 O 0.05494 0.72263 0.38643 0.0
O501 O 0.07671 0.73316 0.3787 0.0
O502 O 0.03409 0.73377 0.38449 0.0
O503 O 0.05147 0.74886 0.36106 0.0
C504 C 0.26778 0.95509 0.30166 0.0
C505 C 0.25681 0.94332 0.29157 0.0
C506 C 0.269 0.96753 0.29617 0.0
C507 C 0.26768 0.99295 0.28309 0.0
H508 H 0.27168 0.9955 0.205 0.0
C509 C 0.29482 0.04358 0.22808 0.0
C510 C 0.30698 0.04515 0.21826 0.0
C511 C 0.28426 0.03086 0.23457 0.0
C512 C 0.27028 0.99488 0.22673 0.0
H513 H 0.23785 0.93522 0.27024 0.0
H514 H 0.24027 0.95705 0.25995 0.0
H515 H 0.26018 0.97346 0.22664 0.0
H516 H 0.31724 0.03469 0.20516 0.0
H517 H 0.29855 0.01238 0.21558 0.0
H518 H 0.27845 0.01442 0.2832 0.0
C519 C 0.2478 0.95659 0.27229 0.0
C520 C 0.26367 0.98233 0.2391 0.0
C521 C 0.24644 0.94412 0.27826 0.0
C522 C 0.30798 0.03374 0.21274 0.0
C523 C 0.29729 0.021 0.21859 0.0
C524 C 0.27404 0.00552 0.27066 0.0
C525 C 0.25938 0.96838 0.28016 0.0
C526 C 0.26285 0.98129 0.26744 0.0
C527 C 0.28559 0.01954 0.23057 0.0
C528 C 0.2759 0.00654 0.2425 0.0
H529 H 0.27587 0.95475 0.3121 0.0
H530 H 0.27807 0.97651 0.30232 0.0
H531 H 0.26722 0.99236 0.30496 0.0
H532 H 0.29382 0.05223 0.2327 0.0
H533 H 0.27531 0.02991 0.24388 0.0
C534 C 0.03449 0.30588 0.30121 0.0
C535 C 0.04647 0.30707 0.2914 0.0
C536 C 0.02225 0.29447 0.29543 0.0
C537 C 0.99723 0.26783 0.28236 0.0
H538 H 0.99495 0.26797 0.20407 0.0
C539 C 0.94664 0.24701 0.23062 0.0
C540 C 0.94628 0.25782 0.21819 0.0
C541 C 0.9589 0.24785 0.2364 0.0
C542 C 0.99546 0.26754 0.22589 0.0
H543 H 0.05515 0.29676 0.27006 0.0
H544 H 0.03366 0.27698 0.25932 0.0
H545 H 0.01688 0.27861 0.22598 0.0
H546 H 0.95828 0.27722 0.19926 0.0
H547 H 0.97966 0.27855 0.20882 0.0
H548 H 0.97582 0.25759 0.28232 0.0
C549 C 0.0338 0.28483 0.27164 0.0
C550 C 0.00799 0.27355 0.23845 0.0
C551 C 0.04608 0.29614 0.27787 0.0
C552 C 0.95828 0.2688 0.20902 0.0
C553 C 0.9705 0.26952 0.21436 0.0
C554 C 0.98471 0.26164 0.2698 0.0
C555 C 0.02178 0.28417 0.2794 0.0
C556 C 0.00895 0.27436 0.2668 0.0
C557 C 0.97094 0.25936 0.2293 0.0
C558 C 0.98375 0.26208 0.24152 0.0
H559 H 0.03451 0.31411 0.31183 0.0
H560 H 0.01311 0.29425 0.30149 0.0
H561 H -0.00225 0.26833 0.30424 0.0
H562 H 0.93754 0.2384 0.23791 0.0
H563 H 0.95901 0.23989 0.24788 0.0
C564 C 0.74422 0.69541 0.22678 0.0
C565 C 0.73286 0.68398 0.21653 0.0
C566 C 0.74385 0.70715 0.23172 0.0
C567 C 0.73145 0.72038 0.26584 0.0
H568 H 0.71368 0.73504 0.22284 0.0
C569 C 0.68831 0.72711 0.29983 0.0
C570 C 0.68713 0.73788 0.28987 0.0
C571 C 0.69952 0.72603 0.29344 0.0
C572 C 0.71899 0.73137 0.23502 0.0
H573 H 0.71286 0.67635 0.20042 0.0
H574 H 0.71232 0.69695 0.20845 0.0
H575 H 0.72335 0.7229 0.2006 0.0
H576 H 0.69726 0.75661 0.26761 0.0
H577 H 0.71667 0.75445 0.25575 0.0
H578 H 0.72589 0.72768 0.30049 0.0
C579 C 0.72144 0.69679 0.21295 0.0
C580 C 0.72445 0.72438 0.22229 0.0
C581 C 0.72171 0.68497 0.2085 0.0
C582 C 0.6979 0.74819 0.27557 0.0
C583 C 0.709 0.74696 0.26871 0.0
C584 C 0.7258 0.72718 0.27861 0.0
C585 C 0.73223 0.70772 0.22589 0.0
C586 C 0.73017 0.71831 0.23773 0.0
C587 C 0.7096 0.73559 0.27663 0.0
C588 C 0.71899 0.73218 0.26338 0.0
H589 H 0.75298 0.69496 0.23315 0.0
H590 H 0.75228 0.71547 0.24167 0.0
H591 H 0.73572 0.71569 0.27823 0.0
H592 H 0.68018 0.71907 0.31101 0.0
H593 H 0.6997 0.7171 0.29963 0.0
C594 C 0.69521 0.94867 0.78322 0.0
C595 C 0.68427 0.94905 0.79492 0.0
C596 C 0.70705 0.96056 0.77747 0.0
C597 C 0.72533 0.99731 0.7862 0.0
H598 H 0.72648 -0.00144 0.70776 0.0
C599 C 0.72575 0.03548 0.70997 0.0
C600 C 0.73658 0.04752 0.71941 0.0
C601 C 0.72505 0.02329 0.71573 0.0
C602 C 0.72659 0.99832 0.72966 0.0
H603 H 0.67771 0.96197 0.81285 0.0
H604 H 0.69848 0.98269 0.80335 0.0
H605 H 0.7149 0.97693 0.73081 0.0
H606 H 0.75583 0.0564 0.73981 0.0
H607 H 0.75435 0.035 0.75055 0.0
H608 H 0.73614 0.01873 0.78498 0.0
C609 C 0.69786 0.97324 0.79833 0.0
C610 C 0.72002 0.98597 0.74288 0.0
C611 C 0.68594 0.96139 0.80363 0.0
C612 C 0.74733 0.04726 0.7323 0.0
C613 C 0.7465 0.03504 0.73853 0.0
C614 C 0.73208 0.00965 0.77299 0.0
C615 C 0.70822 0.97296 0.7839 0.0
C616 C 0.7187 0.98541 0.77118 0.0
C617 C 0.73506 0.02295 0.73138 0.0
C618 C 0.73208 0.01026 0.74459 0.0
H619 H 0.69424 0.9393 0.77633 0.0
H620 H 0.71493 0.96011 0.76641 0.0
H621 H 0.72445 0.99711 0.80802 0.0
H622 H 0.71737 0.0354 0.69985 0.0
H623 H 0.71606 0.0141 0.71012 0.0
C624 C 0.04116 0.71675 0.80446 0.0
C625 C 0.05111 0.72996 0.79879 0.0
C626 C 0.0277 0.71308 0.80307 0.0
C627 C 0.00721 0.72131 0.76211 0.0
H628 H 0.97886 0.69205 0.80253 0.0
C629 C 0.95103 0.68837 0.72851 0.0
C630 C 0.94654 0.67457 0.73065 0.0
C631 C 0.96361 0.69781 0.7386 0.0
C632 C 0.98667 0.70032 0.79121 0.0
H633 H 0.05492 0.74998 0.7895 0.0
H634 H 0.03122 0.74344 0.78662 0.0
H635 H 0.00118 0.7048 0.82235 0.0
H636 H 0.95218 0.65993 0.74272 0.0
H637 H 0.97402 0.67637 0.76016 0.0
H638 H 0.99276 0.71631 0.73041 0.0
C639 C 0.03389 0.73598 0.79217 0.0
C640 C -0.00062 0.70763 0.80256 0.0
C641 C 0.04741 0.73971 0.79394 0.0
C642 C 0.95525 0.67046 0.74107 0.0
C643 C 0.9677 0.67985 0.75129 0.0
C644 C 0.99443 0.71402 0.7508 0.0
C645 C 0.02394 0.72252 0.79571 0.0
C646 C 0.00993 0.71772 0.78755 0.0
C647 C 0.97175 0.69353 0.75106 0.0
C648 C 0.98429 0.70306 0.76477 0.0
H649 H 0.04377 0.70908 0.80844 0.0
H650 H 0.02027 0.7026 0.80567 0.0
H651 H 0.01519 0.72899 0.75001 0.0
H652 H 0.94455 0.69185 0.72051 0.0
H653 H 0.96666 0.70836 0.73795 0.0
C654 C 0.29616 0.24873 0.72547 0.0
C655 C 0.30756 0.25967 0.71402 0.0
C656 C 0.28472 0.24962 0.73078 0.0
C657 C 0.26827 0.26972 0.72046 0.0
H658 H 0.26573 0.26945 0.79875 0.0
C659 C 0.26632 0.30692 0.79734 0.0
C660 C 0.25556 0.30812 0.78736 0.0
C661 C 0.26738 0.2957 0.79099 0.0
C662 C 0.26604 0.26925 0.77687 0.0
H663 H 0.31541 0.27938 0.69623 0.0
H664 H 0.29534 0.28079 0.70492 0.0
H665 H 0.27714 0.25892 0.77685 0.0
H666 H 0.23684 0.29797 0.76504 0.0
H667 H 0.23896 0.27852 0.75332 0.0
H668 H 0.25797 0.28085 0.72059 0.0
C669 C 0.29528 0.27162 0.71008 0.0
C670 C 0.2725 0.26318 0.76431 0.0
C671 C 0.3068 0.27085 0.70523 0.0
C672 C 0.24527 0.29734 0.773 0.0
C673 C 0.24647 0.28622 0.76621 0.0
C674 C 0.26162 0.2756 0.733 0.0
C675 C 0.28442 0.2613 0.72415 0.0
C676 C 0.27425 0.26398 0.73611 0.0
C677 C 0.25781 0.28559 0.77423 0.0
C678 C 0.26108 0.27601 0.76135 0.0
H679 H 0.29644 0.23997 0.73246 0.0
H680 H 0.27645 0.24154 0.74159 0.0
H681 H 0.26951 0.27045 0.6987 0.0
H682 H 0.27434 0.31504 0.80858 0.0
H683 H 0.27629 0.29549 0.79727 0.0
C684 C 0.97116 0.37006 0.54442 0.0
C685 C 0.97173 0.38182 0.5539 0.0
C686 C 0.96004 0.35758 0.55008 0.0
C687 C 0.93348 0.33206 0.56162 0.0
H688 H 0.93266 0.32902 0.63985 0.0
C689 C 0.91148 0.28092 0.61183 0.0
C690 C 0.92202 0.28025 0.62474 0.0
C691 C 0.91263 0.29333 0.60616 0.0
C692 C 0.9325 0.32975 0.61803 0.0
H693 H 0.96067 0.38983 0.57474 0.0
H694 H 0.9414 0.36792 0.58529 0.0
H695 H 0.94347 0.35118 0.61879 0.0
H696 H 0.94125 0.29185 0.64456 0.0
H697 H 0.94311 0.3135 0.63519 0.0
H698 H 0.92328 0.31064 0.56083 0.0
C699 C 0.9495 0.36842 0.57328 0.0
C700 C 0.93861 0.34239 0.60597 0.0
C701 C 0.96051 0.38093 0.56716 0.0
C702 C 0.93303 0.29209 0.63443 0.0
C703 C 0.93405 0.30447 0.6292 0.0
C704 C 0.92717 0.31942 0.57368 0.0
C705 C 0.94942 0.35666 0.56566 0.0
C706 C 0.93972 0.34363 0.57768 0.0
C707 C 0.92418 0.30521 0.61385 0.0
C708 C 0.92722 0.31818 0.60195 0.0
H709 H 0.97964 0.37047 0.53405 0.0
H710 H 0.96026 0.34864 0.54415 0.0
H711 H 0.93423 0.3328 0.53978 0.0
H712 H 0.90286 0.27196 0.60413 0.0
H713 H 0.90489 0.29369 0.59435 0.0
C714 C 0.62907 0.60768 0.55273 0.0
C715 C 0.6175 0.59548 0.55868 0.0
C716 C 0.64169 0.60951 0.55896 0.0
C717 C 0.66745 0.60814 0.56819 0.0
H718 H 0.66997 0.60913 0.64653 0.0
C719 C 0.71815 0.63696 0.61866 0.0
C720 C 0.71862 0.64825 0.63075 0.0
C721 C 0.70584 0.62547 0.61365 0.0
C722 C 0.66938 0.60855 0.62466 0.0
H723 H 0.60999 0.57537 0.57437 0.0
H724 H 0.63213 0.57883 0.58627 0.0
H725 H 0.64792 0.59794 0.62476 0.0
H726 H 0.70685 0.65574 0.65033 0.0
H727 H 0.68538 0.63554 0.64217 0.0
H728 H 0.68885 0.61943 0.56802 0.0
C729 C 0.63139 0.58681 0.57629 0.0
C730 C 0.65682 0.60214 0.61223 0.0
C731 C 0.61878 0.58486 0.56941 0.0
C732 C 0.70675 0.64723 0.64078 0.0
C733 C 0.69448 0.63564 0.63624 0.0
C734 C 0.68 0.61429 0.58059 0.0
C735 C 0.64288 0.59927 0.57176 0.0
C736 C 0.65579 0.60248 0.58397 0.0
C737 C 0.69389 0.625 0.62125 0.0
C738 C 0.68104 0.61511 0.60893 0.0
H739 H 0.62834 0.616 0.54447 0.0
H740 H 0.65044 0.61925 0.55555 0.0
H741 H 0.66684 0.60854 0.54638 0.0
H742 H 0.72714 0.63743 0.61076 0.0
H743 H 0.70559 0.61735 0.60211 0.0
C744 C 0.36735 0.07943 0.6133 0.0
C745 C 0.35524 0.06894 0.62354 0.0
C746 C 0.37775 0.07712 0.60625 0.0
C747 C 0.39156 0.05495 0.61299 0.0
H748 H 0.39328 0.05477 0.53459 0.0
C749 C 0.39222 0.01665 0.53841 0.0
C750 C 0.40327 0.0158 0.54779 0.0
C751 C 0.39129 0.02805 0.54375 0.0
C752 C 0.3932 0.05511 0.55648 0.0
H753 H 0.34494 0.04825 0.63683 0.0
H754 H 0.36337 0.04437 0.62548 0.0
H755 H 0.3826 0.06597 0.55706 0.0
H756 H 0.42264 0.0267 0.56759 0.0
H757 H 0.42074 0.04643 0.57766 0.0
H758 H 0.40148 0.04346 0.61243 0.0
C759 C 0.3647 0.05429 0.62255 0.0
C760 C 0.38715 0.06151 0.56931 0.0
C761 C 0.35417 0.05648 0.62895 0.0
C762 C 0.41399 0.02706 0.56013 0.0
C763 C 0.41292 0.03835 0.56597 0.0
C764 C 0.39787 0.0488 0.6002 0.0
C765 C 0.37633 0.06442 0.61013 0.0
C766 C 0.38577 0.06094 0.59758 0.0
C767 C 0.40129 0.03864 0.55892 0.0
C768 C 0.39819 0.04832 0.57182 0.0
H769 H 0.3684 0.08911 0.60874 0.0
H770 H 0.38663 0.08503 0.59658 0.0
H771 H 0.39051 0.05435 0.63479 0.0
H772 H 0.38386 0.00815 0.52873 0.0
H773 H 0.38218 0.02803 0.53824 0.0
C774 C 0.39401 0.37078 0.0366 0.0
C775 C 0.40528 0.38258 0.04566 0.0
C776 C 0.39274 0.35832 0.04218 0.0
C777 C 0.3996 0.34378 0.0983 0.0
H778 H 0.38201 0.31134 0.05528 0.0
C779 C 0.36448 0.28253 0.10846 0.0
C780 C 0.35353 0.28228 0.12161 0.0
C781 C 0.37577 0.29474 0.1018 0.0
C782 C 0.38722 0.32031 0.06753 0.0
H783 H 0.42465 0.3907 0.06532 0.0
H784 H 0.4222 0.36885 0.07573 0.0
H785 H 0.39325 0.33315 0.03279 0.0
H786 H 0.34643 0.29447 0.14084 0.0
H787 H 0.36629 0.31577 0.12979 0.0
H788 H 0.39246 0.33097 0.13306 0.0
C789 C 0.41444 0.36929 0.06414 0.0
C790 C 0.39358 0.33276 0.05465 0.0
C791 C 0.41583 0.38176 0.05808 0.0
C792 C 0.35468 0.29437 0.13056 0.0
C793 C 0.36608 0.30656 0.12435 0.0
C794 C 0.39303 0.33134 0.11118 0.0
C795 C 0.40263 0.35748 0.05727 0.0
C796 C 0.39934 0.34459 0.06996 0.0
C797 C 0.37641 0.30684 0.10875 0.0
C798 C 0.38633 0.31954 0.09589 0.0
H799 H 0.38576 0.37112 0.02688 0.0
H800 H 0.38349 0.34936 0.0368 0.0
H801 H 0.40385 0.35277 0.11057 0.0
H802 H 0.36389 0.27336 0.1013 0.0
H803 H 0.38364 0.29473 0.08981 0.0
C804 C 0.62008 0.02648 0.04331 0.0
C805 C 0.6151 0.0126 0.04155 0.0
C806 C 0.63386 0.03531 0.04547 0.0
C807 C 0.66695 0.03736 0.04104 0.0
H808 H 0.67445 0.05677 0.1089 0.0
C809 C 0.70892 0.04366 0.10842 0.0
C810 C 0.71909 0.0569 0.11335 0.0
C811 C 0.6966 0.04108 0.09832 0.0
C812 C 0.67253 0.05162 0.08968 0.0
H813 H 0.62049 0.99715 0.03786 0.0
H814 H 0.64443 0.01245 0.04129 0.0
H815 H 0.65237 0.0478 0.08783 0.0
H816 H 0.7238 0.07767 0.11448 0.0
H817 H 0.70194 0.07298 0.09725 0.0
H818 H 0.68677 0.04034 0.04394 0.0
C819 C 0.63781 0.0166 0.04116 0.0
C820 C 0.65997 0.04657 0.0775 0.0
C821 C 0.62409 0.0078 0.0394 0.0
C822 C 0.71618 0.06736 0.11072 0.0
C823 C 0.70374 0.06473 0.10076 0.0
C824 C 0.67941 0.04229 0.05329 0.0
C825 C 0.64279 0.03036 0.04538 0.0
C826 C 0.6569 0.03886 0.05374 0.0
C827 C 0.69416 0.05165 0.09328 0.0
C828 C 0.68204 0.04891 0.07826 0.0
H829 H 0.61332 0.03042 0.04503 0.0
H830 H 0.63748 0.04588 0.04854 0.0
H831 H 0.66489 0.03162 0.02253 0.0
H832 H 0.71076 0.03536 0.11058 0.0
H833 H 0.68916 0.03086 0.09321 0.0
C834 C 0.91349 0.62787 0.11022 0.0
C835 C 0.92382 0.63971 0.12174 0.0
C836 C 0.91574 0.6174 0.10334 0.0
C837 C 0.93783 0.60339 0.11155 0.0
H838 H 0.93942 0.6029 0.03317 0.0
C839 C 0.97815 0.60573 0.03862 0.0
C840 C 0.97961 0.59503 0.04798 0.0
C841 C 0.96631 0.6059 0.04347 0.0
C842 C 0.93869 0.60262 0.05503 0.0
H843 H 0.94406 0.64942 0.13751 0.0
H844 H 0.94782 0.6309 0.12639 0.0
H845 H 0.92737 0.61275 0.05536 0.0
H846 H 0.96935 0.57546 0.0672 0.0
H847 H 0.94883 0.57601 0.07638 0.0
H848 H 0.94985 0.59404 0.11129 0.0
C849 C 0.93808 0.6298 0.12237 0.0
C850 C 0.93178 0.60819 0.06771 0.0
C851 C 0.93596 0.6404 0.12862 0.0
C852 C 0.96854 0.58388 0.0598 0.0
C853 C 0.9568 0.58417 0.06512 0.0
C854 C 0.9445 0.59758 0.09888 0.0
C855 C 0.9282 0.61849 0.10862 0.0
C856 C 0.93189 0.6092 0.09603 0.0
C857 C 0.95585 0.59546 0.0581 0.0
C858 C 0.94554 0.59776 0.07055 0.0
H859 H 0.90406 0.62713 0.10454 0.0
H860 H 0.90803 0.60877 0.09264 0.0
H861 H 0.93807 0.60413 0.13341 0.0
H862 H 0.98648 0.6144 0.0293 0.0
H863 H 0.96584 0.61476 0.03799 0.0
C864 C 0.59593 0.62194 0.94961 0.0
C865 C 0.60477 0.61721 0.94343 0.0
C866 C 0.59845 0.63441 0.94001 0.0
C867 C 0.61545 0.65738 0.88421 0.0
H868 H 0.61893 0.68593 0.93099 0.0
C869 C 0.65355 0.71169 0.86853 0.0
C870 C 0.65139 0.72181 0.87872 0.0
C871 C 0.64348 0.69832 0.8701 0.0
C872 C 0.61758 0.67797 0.91742 0.0
H873 H 0.62359 0.62223 0.92391 0.0
H874 H 0.62791 0.64387 0.90732 0.0
H875 H 0.60999 0.66335 0.94919 0.0
H876 H 0.63663 0.72611 0.89597 0.0
H877 H 0.61899 0.70261 0.89895 0.0
H878 H 0.62363 0.67206 0.85276 0.0
C879 C 0.61894 0.63784 0.9191 0.0
C880 C 0.61255 0.66508 0.92793 0.0
C881 C 0.61652 0.6255 0.92888 0.0
C882 C 0.63857 0.71847 0.88806 0.0
C883 C 0.62851 0.70504 0.8899 0.0
C884 C 0.62038 0.67021 0.87366 0.0
C885 C 0.60974 0.64221 0.92389 0.0
C886 C 0.61212 0.65489 0.91172 0.0
C887 C 0.6311 0.69483 0.88208 0.0
C888 C 0.62217 0.68078 0.89053 0.0
H889 H 0.58679 0.61579 0.96082 0.0
H890 H 0.59131 0.6377 0.94419 0.0
H891 H 0.61492 0.64956 0.87122 0.0
H892 H 0.6633 0.71401 0.86098 0.0
H893 H 0.64585 0.69071 0.86404 0.0
C894 C 0.38092 0.96525 0.94832 0.0
C895 C 0.38082 0.97632 0.96015 0.0
C896 C 0.36888 0.95356 0.94262 0.0
C897 C 0.34346 0.94127 0.90811 0.0
H898 H 0.31075 0.92576 0.95023 0.0
C899 C 0.2946 0.93719 0.87547 0.0
C900 C 0.2824 0.92648 0.88462 0.0
C901 C 0.30662 0.93755 0.88131 0.0
C902 C 0.31979 0.92966 0.93822 0.0
H903 H 0.36828 0.98324 0.97841 0.0
H904 H 0.3473 0.96273 0.96902 0.0
H905 H 0.33238 0.93679 0.97328 0.0
H906 H 0.27308 0.90711 0.90464 0.0
H907 H 0.29417 0.90799 0.91551 0.0
H908 H 0.33088 0.93535 0.873 0.0
C909 C 0.35663 0.96313 0.96385 0.0
C910 C 0.33215 0.93601 0.95144 0.0
C911 C 0.36863 0.97491 0.96909 0.0
C912 C 0.28234 0.91553 0.89738 0.0
C913 C 0.29438 0.91601 0.90367 0.0
C914 C 0.33111 0.9351 0.89488 0.0
C915 C 0.35663 0.95266 0.94924 0.0
C916 C 0.34406 0.94244 0.93644 0.0
C917 C 0.30663 0.9273 0.89673 0.0
C918 C 0.3192 0.92984 0.90984 0.0
H919 H 0.39018 0.96603 0.94125 0.0
H920 H 0.36911 0.94559 0.93141 0.0
H921 H 0.35251 0.94625 0.89605 0.0
H922 H 0.29493 0.94571 0.86544 0.0
H923 H 0.31594 0.94642 0.87588 0.0
C924 C 0.05834 0.35445 0.87589 0.0
C925 C 0.06936 0.35354 0.88524 0.0
C926 C 0.05762 0.36601 0.88063 0.0
C927 C 0.0598 0.3932 0.89047 0.0
H928 H 0.05927 0.39583 0.96866 0.0
C929 C 0.03287 0.41755 0.94095 0.0
C930 C 0.02183 0.40751 0.95516 0.0
C931 C 0.04375 0.41588 0.9346 0.0
C932 C 0.05969 0.39548 0.94681 0.0
H933 H 0.08881 0.36443 0.90473 0.0
H934 H 0.08732 0.3845 0.91367 0.0
H935 H 0.06964 0.38402 0.94779 0.0
H936 H 0.01415 0.38862 0.9764 0.0
H937 H 0.0333 0.38586 0.96587 0.0
H938 H 0.04906 0.4039 0.88957 0.0
C939 C 0.07934 0.37631 0.9025 0.0
C940 C 0.06567 0.3888 0.93485 0.0
C941 C 0.08018 0.36483 0.8973 0.0
C942 C 0.02249 0.39647 0.9653 0.0
C943 C 0.03348 0.39494 0.9594 0.0
C944 C 0.05401 0.40008 0.90241 0.0
C945 C 0.06781 0.37676 0.89516 0.0
C946 C 0.06516 0.38703 0.90666 0.0
C947 C 0.04389 0.40431 0.94291 0.0
C948 C 0.05333 0.40068 0.93072 0.0
H949 H 0.04991 0.34594 0.8664 0.0
H950 H 0.04857 0.36608 0.87493 0.0
H951 H 0.0593 0.39196 0.86871 0.0
H952 H 0.03264 0.42617 0.93285 0.0
H953 H 0.05169 0.42323 0.9219 0.0
C954 C 0.07635 0.70873 0.38975 0.0
C955 C 0.06523 0.70946 0.38021 0.0
C956 C 0.07507 0.69636 0.39638 0.0
C957 C 0.05401 0.65993 0.39098 0.0
H958 H 0.05553 0.65922 0.46935 0.0
C959 C 0.01673 0.6231 0.46879 0.0
C960 C 0.01485 0.61085 0.45892 0.0
C961 C 0.0285 0.63501 0.46293 0.0
C962 C 0.05542 0.65929 0.44745 0.0
H963 H 0.04451 0.69787 0.36748 0.0
H964 H 0.0424 0.6762 0.37817 0.0
H965 H 0.06609 0.68073 0.44558 0.0
H966 H 0.02442 0.60128 0.43802 0.0
H967 H 0.04479 0.62218 0.42711 0.0
H968 H 0.04256 0.63856 0.39289 0.0
C969 C 0.05204 0.68519 0.38085 0.0
C970 C 0.06147 0.67155 0.43385 0.0
C971 C 0.05321 0.69757 0.37485 0.0
C972 C 0.02554 0.61058 0.44578 0.0
C973 C 0.03721 0.62252 0.43949 0.0
C974 C 0.04818 0.64768 0.40453 0.0
C975 C 0.06276 0.68455 0.3928 0.0
C976 C 0.06018 0.67194 0.40566 0.0
C977 C 0.03845 0.63485 0.44679 0.0
C978 C 0.04822 0.64729 0.43294 0.0
H979 H 0.08573 0.71776 0.39421 0.0
H980 H 0.08343 0.69606 0.40566 0.0
H981 H 0.05287 0.66004 0.36925 0.0
H982 H 0.00871 0.6236 0.47917 0.0
H983 H 0.0292 0.64442 0.4687 0.0
C984 C 0.29287 0.3574 0.37477 0.0
C985 C 0.28113 0.35673 0.38457 0.0
C986 C 0.30532 0.36869 0.37981 0.0
C987 C 0.32059 0.39058 0.43509 0.0
H988 H 0.3522 0.40531 0.38965 0.0
C989 C 0.38198 0.41682 0.44036 0.0
C990 C 0.38243 0.40625 0.45367 0.0
C991 C 0.36969 0.41592 0.43465 0.0
C992 C 0.34347 0.40161 0.40258 0.0
H993 H 0.27306 0.36779 0.40523 0.0
H994 H 0.29491 0.38737 0.4147 0.0
H995 H 0.33 0.3944 0.36883 0.0
H996 H 0.37057 0.38724 0.47414 0.0
H997 H 0.34913 0.38581 0.4647 0.0
H998 H 0.33404 0.39667 0.46886 0.0
C999 C 0.29443 0.37921 0.40293 0.0
C1000 C 0.3308 0.39531 0.39065 0.0
C1001 C 0.28195 0.36802 0.39742 0.0
C1002 C 0.37051 0.39548 0.46369 0.0
C1003 C 0.35825 0.39471 0.45842 0.0
C1004 C 0.33326 0.39669 0.44702 0.0
C1005 C 0.30622 0.3794 0.3951 0.0
C1006 C 0.31927 0.38925 0.40684 0.0
C1007 C 0.3577 0.40459 0.44271 0.0
C1008 C 0.34477 0.40172 0.43085 0.0
H1009 H 0.29252 0.34888 0.36468 0.0
H1010 H 0.31427 0.36854 0.37373 0.0
H1011 H 0.31184 0.38587 0.44803 0.0
H1012 H 0.39102 0.42526 0.43239 0.0
H1013 H 0.36949 0.42366 0.42256 0.0
C1014 C 0.64242 0.92217 0.38836 0.0
C1015 C 0.6551 0.93255 0.38032 0.0
C1016 C 0.63164 0.92448 0.39025 0.0
C1017 C 0.62123 0.94973 0.37663 0.0
H1018 H 0.61032 0.94408 0.45198 0.0
C1019 C 0.61605 0.98834 0.43655 0.0
C1020 C 0.60379 0.98445 0.44948 0.0
C1021 C 0.61879 0.97874 0.42622 0.0
C1022 C 0.613 0.94546 0.43075 0.0
H1023 H 0.6661 0.95283 0.36478 0.0
H1024 H 0.6474 0.95685 0.3679 0.0
H1025 H 0.62049 0.93183 0.43226 0.0
H1026 H 0.58527 0.9674 0.46375 0.0
H1027 H 0.59037 0.95053 0.44619 0.0
H1028 H 0.61476 0.9642 0.37588 0.0
C1029 C 0.64569 0.94696 0.37292 0.0
C1030 C 0.61874 0.9384 0.41937 0.0
C1031 C 0.65647 0.94471 0.37133 0.0
C1032 C 0.59479 0.97071 0.4538 0.0
C1033 C 0.59763 0.96107 0.44364 0.0
C1034 C 0.6156 0.95683 0.38806 0.0
C1035 C 0.63338 0.93711 0.38373 0.0
C1036 C 0.62357 0.94105 0.39262 0.0
C1037 C 0.60941 0.96507 0.42887 0.0
C1038 C 0.61211 0.95524 0.41554 0.0
H1039 H 0.64107 0.91266 0.39531 0.0
H1040 H 0.62221 0.91669 0.39839 0.0
H1041 H 0.62467 0.95179 0.35587 0.0
H1042 H 0.62328 -0.00118 0.43312 0.0
H1043 H 0.62811 0.98202 0.41548 0.0
C1044 C 0.32535 0.09061 0.52274 0.0
C1045 C 0.3175 0.07768 0.53361 0.0
C1046 C 0.32798 0.09245 0.4951 0.0
C1047 C 0.32899 0.074 0.43465 0.0
H1048 H 0.33581 0.10663 0.39832 0.0
C1049 C 0.3509 0.08606 0.32659 0.0
C1050 C 0.34516 0.09134 0.30889 0.0
C1051 C 0.34839 0.08542 0.35445 0.0
C1052 C 0.33385 0.0974 0.40799 0.0
H1053 H 0.30542 0.05661 0.52354 0.0
H1054 H 0.30957 0.05987 0.47491 0.0
H1055 H 0.32745 0.10252 0.4443 0.0
H1056 H 0.33299 0.10086 0.30686 0.0
H1057 H 0.32839 0.09944 0.35471 0.0
H1058 H 0.33476 0.06858 0.39777 0.0
C1059 C 0.31408 0.06856 0.48801 0.0
C1060 C 0.32919 0.0951 0.43459 0.0
C1061 C 0.31154 0.0667 0.51585 0.0
C1062 C 0.33756 0.09668 0.31983 0.0
C1063 C 0.33497 0.09594 0.34748 0.0
C1064 C 0.33347 0.07621 0.40784 0.0
C1065 C 0.32268 0.08143 0.47739 0.0
C1066 C 0.32676 0.08341 0.44839 0.0
C1067 C 0.34005 0.08999 0.36513 0.0
C1068 C 0.33598 0.08795 0.39415 0.0
H1069 H 0.33009 0.09933 0.53575 0.0
H1070 H 0.33475 0.1025 0.48791 0.0
H1071 H 0.32747 0.065 0.44468 0.0
H1072 H 0.35682 0.08188 0.31885 0.0
H1073 H 0.35274 0.08105 0.36751 0.0
C1074 C 0.91576 0.23331 0.515 0.0
C1075 C 0.927 0.24256 0.5299 0.0
C1076 C 0.91435 0.23572 0.48789 0.0
C1077 C 0.93159 0.25733 0.42849 0.0
H1078 H 0.89573 0.25027 0.41173 0.0
C1079 C 0.91953 0.27366 0.32704 0.0
C1080 C 0.90863 0.26324 0.31325 0.0
C1081 C 0.92162 0.27232 0.35448 0.0
C1082 C 0.90578 0.25227 0.41607 0.0
H1083 H 0.94609 0.26103 0.5274 0.0
H1084 H 0.94357 0.26529 0.48006 0.0
H1085 H 0.90045 0.24451 0.45617 0.0
H1086 H 0.89077 0.24378 0.3179 0.0
H1087 H 0.89428 0.24155 0.36568 0.0
H1088 H 0.93686 0.26511 0.38824 0.0
C1089 C 0.93587 0.25614 0.48929 0.0
C1090 C 0.90848 0.24887 0.44147 0.0
C1091 C 0.93734 0.25367 0.51644 0.0
C1092 C 0.89927 0.25198 0.32795 0.0
C1093 C 0.90128 0.2507 0.35536 0.0
C1094 C 0.92889 0.26078 0.40306 0.0
C1095 C 0.92407 0.24749 0.47508 0.0
C1096 C 0.92137 0.2512 0.4479 0.0
C1097 C 0.91275 0.26061 0.36867 0.0
C1098 C 0.91591 0.25815 0.39648 0.0
H1099 H 0.90768 0.22459 0.52474 0.0
H1100 H 0.90533 0.22863 0.47728 0.0
H1101 H 0.9416 0.25921 0.43272 0.0
H1102 H 0.92696 0.28243 0.31627 0.0
H1103 H 0.93044 0.28021 0.36434 0.0
C1104 C 0.76074 0.68668 0.51331 0.0
C1105 C 0.75166 0.6886 0.52897 0.0
C1106 C 0.7579 0.68264 0.48636 0.0
C1107 C 0.72901 0.6635 0.44196 0.0
H1108 H 0.75617 0.67492 0.38621 0.0
C1109 C 0.71837 0.64506 0.33001 0.0
C1110 C 0.72852 0.64401 0.3164 0.0
C1111 C 0.72032 0.6498 0.35668 0.0
C1112 C 0.74849 0.67148 0.40166 0.0
H1113 H 0.73285 0.6886 0.52807 0.0
H1114 H 0.72792 0.68162 0.48073 0.0
H1115 H 0.76176 0.6864 0.42962 0.0
H1116 H 0.74805 0.64576 0.32095 0.0
H1117 H 0.75124 0.65355 0.36754 0.0
H1118 H 0.71577 0.64846 0.41397 0.0
C1119 C 0.73718 0.68311 0.48951 0.0
C1120 C 0.75169 0.67813 0.42649 0.0
C1121 C 0.7401 0.68729 0.5165 0.0
C1122 C 0.74009 0.64659 0.33078 0.0
C1123 C 0.74199 0.65122 0.3574 0.0
C1124 C 0.7258 0.65681 0.41705 0.0
C1125 C 0.74586 0.68034 0.47441 0.0
C1126 C 0.74205 0.67413 0.44708 0.0
C1127 C 0.73242 0.65348 0.37025 0.0
C1128 C 0.73557 0.66059 0.39673 0.0
H1129 H 0.76973 0.68759 0.52233 0.0
H1130 H 0.76478 0.68054 0.4754 0.0
H1131 H 0.72139 0.66005 0.45753 0.0
H1132 H 0.70939 0.64325 0.31943 0.0
H1133 H 0.71272 0.65138 0.36599 0.0
C1134 C 0.09314 0.34946 0.18267 0.0
C1135 C 0.08372 0.35109 0.19775 0.0
C1136 C 0.09103 0.34623 0.15524 0.0
C1137 C 0.06317 0.32831 0.10831 0.0
H1138 H 0.09128 0.34066 0.05444 0.0
C1139 C 0.05418 0.31224 0.99523 0.0
C1140 C 0.0645 0.3115 0.98163 0.0
C1141 C 0.05579 0.31636 0.02228 0.0
C1142 C 0.08335 0.33695 0.06936 0.0
H1143 H 0.06519 0.35161 0.19538 0.0
H1144 H 0.06155 0.34603 0.14728 0.0
H1145 H 0.09617 0.35129 0.09874 0.0
H1146 H 0.08395 0.3131 0.98646 0.0
H1147 H 0.08654 0.3198 0.03374 0.0
H1148 H 0.0504 0.31383 0.07901 0.0
C1149 C 0.07048 0.3471 0.15685 0.0
C1150 C 0.08614 0.34313 0.09467 0.0
C1151 C 0.07267 0.35047 0.18431 0.0
C1152 C 0.07588 0.31371 0.9963 0.0
C1153 C 0.07743 0.31771 0.02332 0.0
C1154 C 0.06038 0.32209 0.08296 0.0
C1155 C 0.07941 0.34447 0.14229 0.0
C1156 C 0.07612 0.33881 0.11454 0.0
C1157 C 0.0677 0.31971 0.03624 0.0
C1158 C 0.07049 0.32623 0.06329 0.0
H1159 H 0.10177 0.34989 0.19244 0.0
H1160 H 0.09809 0.34425 0.14464 0.0
H1161 H 0.05529 0.3246 0.12334 0.0
H1162 H 0.04533 0.31068 0.98446 0.0
H1163 H 0.04808 0.31775 0.03163 0.0
C1164 C 0.6465 0.72415 0.18305 0.0
C1165 C 0.64418 0.73337 0.19724 0.0
C1166 C 0.65081 0.72658 0.1561 0.0
C1167 C 0.66888 0.75567 0.11038 0.0
H1168 H 0.66125 0.72874 0.05557 0.0
C1169 C 0.68282 0.76799 0.99795 0.0
C1170 C 0.68695 0.76022 0.98335 0.0
C1171 C 0.67885 0.76503 0.02493 0.0
C1172 C 0.66363 0.73635 0.07083 0.0
H1173 H 0.64318 0.75159 0.19353 0.0
H1174 H 0.65008 0.75552 0.14633 0.0
H1175 H 0.64991 0.72202 0.09929 0.0
H1176 H 0.69087 0.7437 0.98608 0.0
H1177 H 0.68393 0.73853 0.03341 0.0
H1178 H 0.68241 0.77 0.08179 0.0
C1179 C 0.64914 0.7467 0.15623 0.0
C1180 C 0.65708 0.73251 0.09586 0.0
C1181 C 0.64499 0.74435 0.18319 0.0
C1182 C 0.68784 0.74995 0.99684 0.0
C1183 C 0.68369 0.74687 0.02382 0.0
C1184 C 0.67534 0.7595 0.08536 0.0
C1185 C 0.65276 0.73823 0.14275 0.0
C1186 C 0.65953 0.74214 0.11588 0.0
C1187 C 0.67878 0.75414 0.03788 0.0
C1188 C 0.67273 0.74991 0.06522 0.0
H1189 H 0.64609 0.71566 0.19339 0.0
H1190 H 0.65348 0.71982 0.14639 0.0
H1191 H 0.67133 0.76334 0.12552 0.0
H1192 H 0.68199 0.77594 0.98809 0.0
H1193 H 0.67508 0.7708 0.03513 0.0
C1194 C 0.27347 0.91954 0.18121 0.0
C1195 C 0.26288 0.90821 0.19362 0.0
C1196 C 0.27228 0.9228 0.15445 0.0
C1197 C 0.24544 0.91761 0.10706 0.0
H1198 H 0.27388 0.93369 0.05392 0.0
C1199 C 0.2363 0.92245 0.99439 0.0
C1200 C 0.246 0.9335 0.97973 0.0
C1201 C 0.23829 0.92089 0.02169 0.0
C1202 C 0.2659 0.92943 0.06874 0.0
H1203 H 0.24339 0.89068 0.18688 0.0
H1204 H 0.2415 0.89612 0.14012 0.0
H1205 H 0.27824 0.9268 0.09771 0.0
H1206 H 0.26493 0.95212 0.98273 0.0
H1207 H 0.26835 0.94944 0.03063 0.0
H1208 H 0.23305 0.92009 0.07808 0.0
C1209 C 0.25051 0.90276 0.15127 0.0
C1210 C 0.26838 0.92541 0.09376 0.0
C1211 C 0.25166 0.89955 0.17797 0.0
C1212 C 0.25724 0.94352 0.99349 0.0
C1213 C 0.25929 0.94189 0.02082 0.0
C1214 C 0.24296 0.92161 0.0821 0.0
C1215 C 0.26051 0.91475 0.13962 0.0
C1216 C 0.25811 0.91926 0.11306 0.0
C1217 C 0.25006 0.93032 0.03494 0.0
C1218 C 0.2531 0.92741 0.06251 0.0
H1219 H 0.28221 0.92646 0.19276 0.0
H1220 H 0.28018 0.93209 0.14605 0.0
H1221 H 0.2374 0.91326 0.12174 0.0
H1222 H 0.22753 0.91456 0.98437 0.0
H1223 H 0.23099 0.91183 0.0319 0.0
C1224 C 0.64536 0.92608 0.68312 0.0
C1225 C 0.64288 0.91434 0.69672 0.0
C1226 C 0.64983 0.92828 0.65624 0.0
C1227 C 0.65371 0.91174 0.59518 0.0
H1228 H 0.68562 0.94612 0.58236 0.0
C1229 C 0.68567 0.91961 0.50113 0.0
C1230 C 0.68995 0.93153 0.48649 0.0
C1231 C 0.68062 0.91825 0.52733 0.0
C1232 C 0.67664 0.93652 0.58547 0.0
H1233 H 0.64211 0.89525 0.69212 0.0
H1234 H 0.64961 0.89894 0.64532 0.0
H1235 H 0.67364 0.94197 0.62522 0.0
H1236 H 0.69313 0.9517 0.48863 0.0
H1237 H 0.68423 0.94933 0.53439 0.0
H1238 H 0.65664 0.90624 0.55559 0.0
C1239 C 0.64822 0.90652 0.65534 0.0
C1240 C 0.66974 0.93416 0.61001 0.0
C1241 C 0.64391 0.90439 0.68221 0.0
C1242 C 0.69003 0.94243 0.49945 0.0
C1243 C 0.68485 0.94103 0.52567 0.0
C1244 C 0.66057 0.91411 0.57067 0.0
C1245 C 0.65172 0.91869 0.64234 0.0
C1246 C 0.65828 0.92167 0.61529 0.0
C1247 C 0.67958 0.92873 0.5395 0.0
C1248 C 0.67224 0.92646 0.5656 0.0
H1249 H 0.64477 0.93399 0.69377 0.0
H1250 H 0.65225 0.93767 0.64664 0.0
H1251 H 0.64482 0.90208 0.59844 0.0
H1252 H 0.68556 0.91105 0.49179 0.0
H1253 H 0.67706 0.90878 0.53767 0.0
C1254 C 0.06037 0.74693 0.49145 0.0
C1255 C 0.07102 0.75356 0.47309 0.0
C1256 C 0.06293 0.74627 0.519 0.0
C1257 C 0.09045 0.76062 0.57071 0.0
H1258 H 0.06792 0.72704 0.60773 0.0
C1259 C 0.09636 0.75447 0.68429 0.0
C1260 C 0.09316 0.74186 0.6948 0.0
C1261 C 0.09423 0.75599 0.6571 0.0
C1262 C 0.07445 0.73642 0.59759 0.0
H1263 H 0.09269 0.76536 0.46971 0.0
H1264 H 0.09709 0.76393 0.51691 0.0
H1265 H 0.06256 0.73006 0.56157 0.0
H1266 H 0.08585 0.72107 0.68438 0.0
H1267 H 0.08262 0.72382 0.63637 0.0
H1268 H 0.10273 0.76676 0.60601 0.0
C1269 C 0.08675 0.75938 0.51048 0.0
C1270 C 0.07121 0.73826 0.57122 0.0
C1271 C 0.0842 0.76014 0.48317 0.0
C1272 C 0.08844 0.73092 0.67697 0.0
C1273 C 0.08641 0.73248 0.64951 0.0
C1274 C 0.0938 0.75871 0.59682 0.0
C1275 C 0.07619 0.75218 0.52875 0.0
C1276 C 0.07916 0.7504 0.55739 0.0
C1277 C 0.08899 0.74499 0.63935 0.0
C1278 C 0.08582 0.74662 0.61077 0.0
H1279 H 0.0501 0.74175 0.4844 0.0
H1280 H 0.05452 0.74088 0.53253 0.0
H1281 H 0.09675 0.77019 0.56101 0.0
H1282 H 0.10001 0.76316 0.69733 0.0
H1283 H 0.09618 0.76574 0.65036 0.0
C1284 C 0.23367 0.31653 0.49433 0.0
C1285 C 0.24294 0.31444 0.4798 0.0
C1286 C 0.23597 0.3204 0.52142 0.0
C1287 C 0.25716 0.32466 0.5814 0.0
H1288 H 0.25038 0.35374 0.59718 0.0
C1289 C 0.27272 0.35265 0.68307 0.0
C1290 C 0.26215 0.35305 0.69642 0.0
C1291 C 0.2717 0.34948 0.65554 0.0
C1292 C 0.25231 0.34562 0.5931 0.0
H1293 H 0.26131 0.31366 0.4829 0.0
H1294 H 0.26538 0.32052 0.53021 0.0
H1295 H 0.24484 0.34324 0.55274 0.0
H1296 H 0.24285 0.35171 0.6909 0.0
H1297 H 0.24119 0.34642 0.64295 0.0
H1298 H 0.26462 0.32709 0.6219 0.0
C1299 C 0.2563 0.31913 0.52071 0.0
C1300 C 0.24904 0.33951 0.56772 0.0
C1301 C 0.25394 0.31513 0.49358 0.0
C1302 C 0.25114 0.35145 0.6812 0.0
C1303 C 0.25019 0.34841 0.65369 0.0
C1304 C 0.26048 0.33082 0.60681 0.0
C1305 C 0.24765 0.32238 0.53455 0.0
C1306 C 0.25125 0.32883 0.56166 0.0
C1307 C 0.26019 0.34684 0.64083 0.0
C1308 C 0.25795 0.34127 0.61302 0.0
H1309 H 0.22503 0.31595 0.48432 0.0
H1310 H 0.22887 0.32241 0.53176 0.0
H1311 H 0.25895 0.31643 0.57745 0.0
H1312 H 0.28131 0.35379 0.69425 0.0
H1313 H 0.27966 0.34856 0.64602 0.0
C1314 C 0.90345 0.67287 0.02174 0.0
C1315 C 0.91655 0.67876 0.03212 0.0
C1316 C 0.90094 0.66983 0.99431 0.0
C1317 C 0.89774 0.66761 0.93372 0.0
H1318 H 0.91863 0.65391 0.89912 0.0
C1319 C 0.89321 0.65512 0.82002 0.0
C1320 C 0.89573 0.64505 0.81072 0.0
C1321 C 0.89468 0.65867 0.84729 0.0
C1322 C 0.91255 0.65751 0.90858 0.0
H1323 H 0.93743 0.68697 0.02127 0.0
H1324 H 0.93311 0.68207 0.97299 0.0
H1325 H 0.92407 0.66257 0.94504 0.0
H1326 H 0.90084 0.63014 0.82331 0.0
H1327 H 0.90295 0.63601 0.87127 0.0
H1328 H 0.88587 0.66205 0.89776 0.0
C1329 C 0.92471 0.67944 0.98635 0.0
C1330 C 0.91586 0.66276 0.93479 0.0
C1331 C 0.92722 0.68244 0.01397 0.0
C1332 C 0.89881 0.63793 0.82976 0.0
C1333 C 0.90022 0.64145 0.85721 0.0
C1334 C 0.89435 0.66225 0.90765 0.0
C1335 C 0.91148 0.6727 0.97632 0.0
C1336 C 0.90849 0.66788 0.94775 0.0
C1337 C 0.8986 0.65217 0.86619 0.0
C1338 C 0.90172 0.65715 0.89465 0.0
H1339 H 0.89497 0.66992 0.03508 0.0
H1340 H 0.89062 0.66456 0.98757 0.0
H1341 H 0.8919 0.67157 0.94283 0.0
H1342 H 0.89079 0.66082 0.80597 0.0
H1343 H 0.89343 0.66703 0.85322 0.0
C1344 C 0.30978 0.25535 0.01512 0.0
C1345 C 0.30951 0.24447 0.02859 0.0
C1346 C 0.313 0.2575 0.98761 0.0
C1347 C 0.31709 0.24204 0.9254 0.0
H1348 H 0.3462 0.27789 0.90976 0.0
C1349 C 0.34638 0.25254 0.82691 0.0
C1350 C 0.34861 0.26396 0.81239 0.0
C1351 C 0.34237 0.25093 0.85391 0.0
C1352 C 0.33799 0.26788 0.9137 0.0
H1353 H 0.31116 0.22666 0.02335 0.0
H1354 H 0.31653 0.23028 0.97542 0.0
H1355 H 0.33549 0.27291 0.95414 0.0
H1356 H 0.34941 0.28312 0.81538 0.0
H1357 H 0.34228 0.28026 0.86253 0.0
H1358 H 0.31953 0.23696 0.8851 0.0
C1359 C 0.3144 0.23723 0.98605 0.0
C1360 C 0.3318 0.26504 0.93907 0.0
C1361 C 0.31132 0.23515 0.01354 0.0
C1362 C 0.34784 0.27425 0.82608 0.0
C1363 C 0.3437 0.27257 0.8531 0.0
C1364 C 0.32321 0.24489 0.90004 0.0
C1365 C 0.31582 0.24872 0.97306 0.0
C1366 C 0.32139 0.25204 0.94528 0.0
C1367 C 0.34037 0.26063 0.86694 0.0
C1368 C 0.33387 0.25779 0.89399 0.0
H1369 H 0.30848 0.26274 0.02618 0.0
H1370 H 0.31382 0.26633 0.97798 0.0
H1371 H 0.309 0.23198 0.9295 0.0
H1372 H 0.34702 0.2445 0.81697 0.0
H1373 H 0.34031 0.2418 0.86425 0.0
C1374 C 0.72382 0.07211 0.83083 0.0
C1375 C 0.73245 0.08398 0.81684 0.0
C1376 C 0.72673 0.07021 0.85743 0.0
C1377 C 0.74705 0.08729 0.91785 0.0
H1378 H 0.74814 0.05447 0.92831 0.0
C1379 C 0.77114 0.08046 0.0133 0.0
C1380 C 0.76434 0.06792 0.02617 0.0
C1381 C 0.76788 0.08204 0.98685 0.0
C1382 C 0.74776 0.06362 0.92593 0.0
H1383 H 0.75022 0.10356 0.8205 0.0
H1384 H 0.75503 0.10041 0.86708 0.0
H1385 H 0.7395 0.05812 0.88602 0.0
H1386 H 0.7494 0.04701 0.0207 0.0
H1387 H 0.74353 0.04976 0.97475 0.0
H1388 H 0.75506 0.09277 0.95774 0.0
C1389 C 0.74613 0.09251 0.85745 0.0
C1390 C 0.74277 0.06569 0.90168 0.0
C1391 C 0.74336 0.09432 0.83077 0.0
C1392 C 0.75496 0.05677 0.01124 0.0
C1393 C 0.75154 0.05839 0.98486 0.0
C1394 C 0.75191 0.08517 0.94218 0.0
C1395 C 0.73817 0.08023 0.8707 0.0
C1396 C 0.74245 0.07759 0.89729 0.0
C1397 C 0.75756 0.07117 0.97273 0.0
C1398 C 0.75247 0.07337 0.9465 0.0
H1399 H 0.71542 0.0639 0.82058 0.0
H1400 H 0.72031 0.06071 0.86729 0.0
H1401 H 0.74684 0.09651 0.91517 0.0
H1402 H 0.77845 0.08923 0.02428 0.0
H1403 H 0.77309 0.09194 0.97791 0.0
C1404 C 0.01226 0.43134 0.66032 0.0
C1405 C 0.01442 0.42202 0.6461 0.0
C1406 C 0.0087 0.42934 0.68761 0.0
C1407 C 0.00534 0.40872 0.74831 0.0
H1408 H 0.9766 0.41579 0.76559 0.0
C1409 C 0.97781 0.39296 0.85051 0.0
C1410 C 0.97768 0.40354 0.86438 0.0
C1411 C 0.9809 0.39413 0.82292 0.0
C1412 C 0.98463 0.41378 0.76108 0.0
H1413 H 0.01557 0.40387 0.64992 0.0
H1414 H 0.0092 0.40029 0.69746 0.0
H1415 H 0.98659 0.42108 0.72068 0.0
H1416 H 0.97946 0.42309 0.85976 0.0
H1417 H 0.98455 0.42499 0.81164 0.0
H1418 H 0.00325 0.40133 0.78881 0.0
C1419 C 0.01034 0.4092 0.68763 0.0
C1420 C 0.99046 0.41692 0.73541 0.0
C1421 C 0.01405 0.41128 0.66034 0.0
C1422 C 0.9795 0.41477 0.84964 0.0
C1423 C 0.98243 0.41586 0.82205 0.0
C1424 C -0.00056 0.40549 0.77396 0.0
C1425 C 0.00706 0.4179 0.70126 0.0
C1426 C 0.001 0.41458 0.72877 0.0
C1427 C 0.98371 0.4058 0.80865 0.0
C1428 C 0.9891 0.4081 0.78069 0.0
H1429 H 0.01258 0.43978 0.64996 0.0
H1430 H 0.00668 0.43649 0.69771 0.0
H1431 H 0.01348 0.40686 0.74399 0.0
H1432 H 0.97652 0.38421 0.86131 0.0
H1433 H 0.98162 0.38613 0.81299 0.0
C1434 C 0.59292 0.56812 0.84743 0.0
C1435 C 0.58287 0.56531 0.86665 0.0
C1436 C 0.59069 0.56942 0.82 0.0
C1437 C 0.56402 0.56395 0.76995 0.0
H1438 H 0.59347 0.59387 0.73313 0.0
C1439 C 0.5628 0.57403 0.65618 0.0
C1440 C 0.57011 0.58724 0.64635 0.0
C1441 C 0.56316 0.57127 0.68353 0.0
C1442 C 0.58507 0.5856 0.74323 0.0
H1443 H 0.56226 0.56057 0.8718 0.0
H1444 H 0.55847 0.56299 0.82453 0.0
H1445 H 0.59669 0.58806 0.77871 0.0
H1446 H 0.58269 0.60802 0.65804 0.0
H1447 H 0.58297 0.60323 0.70614 0.0
H1448 H 0.55224 0.56181 0.7349 0.0
C1449 C 0.56805 0.56415 0.83031 0.0
C1450 C 0.587 0.58208 0.76923 0.0
C1451 C 0.57026 0.56281 0.85758 0.0
C1452 C 0.57695 0.59774 0.66493 0.0
C1453 C 0.57727 0.59496 0.69244 0.0
C1454 C 0.56205 0.56754 0.74407 0.0
C1455 C 0.57838 0.56793 0.81126 0.0
C1456 C 0.57651 0.57119 0.78294 0.0
C1457 C 0.57075 0.58164 0.70192 0.0
C1458 C 0.57256 0.57839 0.73027 0.0
H1459 H 0.60276 0.57012 0.85372 0.0
H1460 H 0.59877 0.57203 0.80579 0.0
H1461 H 0.55572 0.55544 0.77972 0.0
H1462 H 0.55737 0.56569 0.64248 0.0
H1463 H 0.55807 0.56088 0.68988 0.0
C1464 C 0.40501 0.01735 0.84828 0.0
C1465 C 0.4162 0.0184 0.86193 0.0
C1466 C 0.4028 0.01358 0.82102 0.0
C1467 C 0.4187 0.0093 0.75953 0.0
H1468 H 0.3832 0.97946 0.74431 0.0
C1469 C 0.40922 0.97856 0.66326 0.0
C1470 C 0.39784 0.9759 0.64808 0.0
C1471 C 0.41061 0.98302 0.68993 0.0
C1472 C 0.39312 0.98786 0.74813 0.0
H1473 H 0.43441 0.01745 0.85716 0.0
H1474 H 0.43068 0.0111 0.80971 0.0
H1475 H 0.38785 0.99069 0.78815 0.0
H1476 H 0.37852 0.97481 0.64968 0.0
H1477 H 0.38098 0.98268 0.6963 0.0
H1478 H 0.42403 0.0065 0.71969 0.0
C1479 C 0.42354 0.01307 0.81999 0.0
C1480 C 0.39577 0.99435 0.7732 0.0
C1481 C 0.42568 0.0167 0.84723 0.0
C1482 C 0.38737 0.9767 0.66089 0.0
C1483 C 0.38882 0.98128 0.6876 0.0
C1484 C 0.41605 0.00285 0.73451 0.0
C1485 C 0.41183 0.01097 0.80685 0.0
C1486 C 0.40864 0.00503 0.77929 0.0
C1487 C 0.40071 0.98503 0.70201 0.0
C1488 C 0.40329 0.99192 0.72863 0.0
H1489 H 0.39748 0.01852 0.85908 0.0
H1490 H 0.39378 0.01223 0.81129 0.0
H1491 H 0.42866 0.0176 0.76347 0.0
H1492 H 0.41741 0.97792 0.65404 0.0
H1493 H 0.41972 0.98542 0.70074 0.0
C1494 C 0.5673 0.97786 0.16324 0.0
C1495 C 0.57192 0.98836 0.14432 0.0
C1496 C 0.56798 0.98061 0.19108 0.0
C1497 C 0.58742 0.00576 0.24086 0.0
H1498 H 0.55538 0.99276 0.28444 0.0
C1499 C 0.59084 0.02323 0.35165 0.0
C1500 C 0.58217 0.01361 0.37036 0.0
C1501 C 0.58893 0.02067 0.32377 0.0
C1502 C 0.56449 0.99633 0.27281 0.0
H1503 H 0.58108 0.00996 0.13989 0.0
H1504 H 0.58258 0.01463 0.18806 0.0
H1505 H 0.55352 0.98594 0.2372 0.0
H1506 H 0.56432 0.994 0.37415 0.0
H1507 H 0.56139 0.9894 0.3264 0.0
H1508 H 0.59853 0.01576 0.27629 0.0
C1509 C 0.57826 0.00433 0.18142 0.0
C1510 C 0.56336 0.9924 0.2457 0.0
C1511 C 0.57731 0.00159 0.15382 0.0
C1512 C 0.57124 0.0017 0.36045 0.0
C1513 C 0.56947 -0.00094 0.33279 0.0
C1514 C 0.58859 0.00946 0.2681 0.0
C1515 C 0.57362 0.9939 0.2003 0.0
C1516 C 0.57481 0.99714 0.22949 0.0
C1517 C 0.57843 0.00836 0.31396 0.0
C1518 C 0.57714 0.00484 0.28453 0.0
H1519 H 0.56314 0.96758 0.15655 0.0
H1520 H 0.56434 0.97241 0.2054 0.0
H1521 H 0.5964 0.00956 0.22866 0.0
H1522 H 0.59933 0.03252 0.35854 0.0
H1523 H 0.59587 0.02827 0.30996 0.0
C1524 C 0.97476 0.56989 0.34382 0.0
C1525 C 0.97313 0.57912 0.35961 0.0
C1526 C 0.979 0.57279 0.31698 0.0
C1527 C -0.00117 0.6019 0.27306 0.0
H1528 H 0.98796 0.57472 0.21744 0.0
C1529 C 0.01811 0.61221 0.16145 0.0
C1530 C 0.01964 0.60215 0.14867 0.0
C1531 C 0.01309 0.61037 0.18789 0.0
C1532 C 0.99123 0.58241 0.23285 0.0
H1533 H 0.97378 0.59826 0.35892 0.0
H1534 H 0.981 0.60325 0.31177 0.0
H1535 H 0.97604 0.56914 0.26034 0.0
H1536 H 0.01839 0.5829 0.15459 0.0
H1537 H 0.00999 0.57986 0.20068 0.0
H1538 H 0.01409 0.61515 0.24541 0.0
C1539 C 0.97921 0.59385 0.32039 0.0
C1540 C 0.98434 0.57921 0.25742 0.0
C1541 C 0.97488 0.5909 0.34729 0.0
C1542 C 0.01721 0.59079 0.16372 0.0
C1543 C 0.01224 0.58897 0.19006 0.0
C1544 C 0.00572 0.60511 0.24837 0.0
C1545 C 0.98175 0.58502 0.3052 0.0
C1546 C 0.98817 0.58885 0.27802 0.0
C1547 C 0.00954 0.59844 0.20202 0.0
C1548 C 0.00214 0.59533 0.22815 0.0
H1549 H 0.97351 0.56073 0.35267 0.0
H1550 H 0.9809 0.56578 0.30601 0.0
H1551 H 0.00218 0.60953 0.2886 0.0
H1552 H 0.01981 0.62104 0.15038 0.0
H1553 H 0.01117 0.61788 0.19656 0.0
C1554 C 0.39107 0.40864 0.15699 0.0
C1555 C 0.40161 0.41955 0.14347 0.0
C1556 C 0.39256 0.40596 0.18399 0.0
C1557 C 0.41985 0.41204 0.23112 0.0
H1558 H 0.39176 0.39721 0.28515 0.0
C1559 C 0.42929 0.40987 0.34468 0.0
C1560 C 0.41973 0.39899 0.35994 0.0
C1561 C 0.4273 0.41082 0.31713 0.0
C1562 C 0.39964 0.40113 0.27009 0.0
H1563 H 0.42135 0.43698 0.14835 0.0
H1564 H 0.42374 0.43261 0.19557 0.0
H1565 H 0.38714 0.4032 0.24067 0.0
H1566 H 0.40108 0.38005 0.35787 0.0
H1567 H 0.3976 0.3817 0.30955 0.0
H1568 H 0.43241 0.4102 0.26068 0.0
C1569 C 0.41455 0.42581 0.18512 0.0
C1570 C 0.39701 0.40462 0.24467 0.0
C1571 C 0.41311 0.42842 0.15815 0.0
C1572 C 0.40865 0.38854 0.34663 0.0
C1573 C 0.40657 0.38956 0.31906 0.0
C1574 C 0.42248 0.4086 0.25652 0.0
C1575 C 0.40456 0.41421 0.19797 0.0
C1576 C 0.40714 0.4103 0.225 0.0
C1577 C 0.41564 0.40094 0.30428 0.0
C1578 C 0.41246 0.40324 0.27639 0.0
H1579 H 0.38212 0.40157 0.14618 0.0
H1580 H 0.38466 0.39695 0.19329 0.0
H1581 H 0.42779 0.41603 0.2162 0.0
H1582 H 0.43794 0.41808 0.35437 0.0
H1583 H 0.43445 0.41973 0.30634 0.0
C1584 C 0.31434 0.20024 0.15014 0.0
C1585 C 0.32404 0.20966 0.13255 0.0
C1586 C 0.31468 0.18867 0.15737 0.0
C1587 C 0.32845 0.16729 0.13497 0.0
H1588 H 0.32117 0.15428 0.20879 0.0
C1589 C 0.33862 0.12602 0.17596 0.0
C1590 C 0.3288 0.11643 0.19314 0.0
C1591 C 0.33775 0.13715 0.16746 0.0
C1592 C 0.3231 0.15772 0.18802 0.0
H1593 H 0.34184 0.21449 0.10916 0.0
H1594 H 0.34256 0.19454 0.12212 0.0
H1595 H 0.32009 0.17423 0.19665 0.0
H1596 H 0.31015 0.11075 0.21413 0.0
H1597 H 0.30864 0.13003 0.1992 0.0
H1598 H 0.33159 0.15083 0.12648 0.0
C1599 C 0.33453 0.19589 0.1299 0.0
C1600 C 0.32245 0.16913 0.18107 0.0
C1601 C 0.33416 0.20738 0.12263 0.0
C1602 C 0.31794 0.118 0.20103 0.0
C1603 C 0.3171 0.12909 0.19263 0.0
C1604 C 0.32915 0.15591 0.14197 0.0
C1605 C 0.32475 0.18635 0.14717 0.0
C1606 C 0.32514 0.17405 0.15448 0.0
C1607 C 0.32708 0.13888 0.17609 0.0
C1608 C 0.32646 0.151 0.16855 0.0
H1609 H 0.3064 0.20171 0.15802 0.0
H1610 H 0.30693 0.18144 0.17055 0.0
H1611 H 0.33037 0.17071 0.1142 0.0
H1612 H 0.3471 0.12508 0.16957 0.0
H1613 H 0.34562 0.14459 0.15479 0.0
C1614 C 0.78926 0.12372 0.13249 0.0
C1615 C 0.7885 0.11174 0.14121 0.0
C1616 C 0.79943 0.13608 0.14176 0.0
C1617 C 0.83334 0.15213 0.17085 0.0
H1618 H 0.82658 0.18125 0.18629 0.0
C1619 C 0.87286 0.20133 0.21986 0.0
C1620 C 0.87457 0.21338 0.20907 0.0
C1621 C 0.86218 0.18905 0.21167 0.0
C1622 C 0.82863 0.17325 0.18176 0.0
H1623 H 0.79763 0.10332 0.16704 0.0
H1624 H 0.81535 0.12497 0.18363 0.0
H1625 H 0.80802 0.15934 0.17328 0.0
H1626 H 0.86636 0.22201 0.18135 0.0
H1627 H 0.84757 0.20039 0.16695 0.0
H1628 H 0.85392 0.16601 0.17947 0.0
C1629 C 0.80817 0.12478 0.16924 0.0
C1630 C 0.81801 0.1607 0.17436 0.0
C1631 C 0.79798 0.11237 0.15988 0.0
C1632 C 0.8653 0.21288 0.19 0.0
C1633 C 0.85453 0.20053 0.18187 0.0
C1634 C 0.84393 0.16465 0.17834 0.0
C1635 C 0.80908 0.13677 0.16006 0.0
C1636 C 0.82025 0.15 0.1688 0.0
C1637 C 0.85292 0.18849 0.19256 0.0
C1638 C 0.84168 0.17533 0.18391 0.0
H1639 H 0.78213 0.12359 0.11805 0.0
H1640 H 0.79993 0.14511 0.134 0.0
H1641 H 0.83545 0.14419 0.16618 0.0
H1642 H 0.87979 0.20134 0.23466 0.0
H1643 H 0.8611 0.17996 0.22056 0.0
C1644 C 0.77642 0.64541 0.19441 0.0
C1645 C 0.77642 0.65509 0.21166 0.0
C1646 C 0.7885 0.64611 0.18719 0.0
C1647 C 0.82486 0.66982 0.18289 0.0
H1648 H 0.82775 0.6377 0.18317 0.0
C1649 C 0.87542 0.67173 0.16644 0.0
C1650 C 0.87511 0.66207 0.14868 0.0
C1651 C 0.86347 0.6707 0.17573 0.0
C1652 C 0.82707 0.64674 0.1828 0.0
H1653 H 0.78907 0.67311 0.23481 0.0
H1654 H 0.80999 0.67426 0.22234 0.0
H1655 H 0.80648 0.6362 0.19493 0.0
H1656 H 0.86204 0.6436 0.12723 0.0
H1657 H 0.84135 0.64191 0.14314 0.0
H1658 H 0.8454 0.68035 0.17054 0.0
C1659 C 0.80073 0.66622 0.21416 0.0
C1660 C 0.81488 0.64587 0.18947 0.0
C1661 C 0.7887 0.66549 0.22142 0.0
C1662 C 0.86265 0.65122 0.14092 0.0
C1663 C 0.85076 0.65019 0.15019 0.0
C1664 C 0.83704 0.67068 0.17618 0.0
C1665 C 0.80078 0.65655 0.19699 0.0
C1666 C 0.81364 0.6574 0.18954 0.0
C1667 C 0.85101 0.65997 0.16748 0.0
C1668 C 0.83827 0.65915 0.17597 0.0
H1669 H 0.76711 0.63728 0.18657 0.0
H1670 H 0.78825 0.63858 0.17371 0.0
H1671 H 0.82417 0.67885 0.18244 0.0
H1672 H 0.88487 0.68019 0.17279 0.0
H1673 H 0.86398 0.67832 0.1893 0.0
C1674 C 0.12152 0.32706 0.29106 0.0
C1675 C 0.1186 0.33644 0.30269 0.0
C1676 C 0.13256 0.32617 0.29969 0.0
C1677 C 0.16511 0.34522 0.33359 0.0
H1678 H 0.1615 0.31016 0.34365 0.0
C1679 C 0.2062 0.33822 0.38362 0.0
C1680 C 0.20906 0.32872 0.37243 0.0
C1681 C 0.19523 0.33914 0.37468 0.0
C1682 C 0.16271 0.32001 0.34059 0.0
H1683 H 0.12498 0.35228 0.33248 0.0
H1684 H 0.14434 0.35068 0.34776 0.0
H1685 H 0.14212 0.31188 0.32972 0.0
H1686 H 0.20266 0.31271 0.34301 0.0
H1687 H 0.18343 0.31439 0.32714 0.0
H1688 H 0.1857 0.35336 0.34444 0.0
C1689 C 0.13809 0.34409 0.33177 0.0
C1690 C 0.15161 0.32101 0.33268 0.0
C1691 C 0.12699 0.34496 0.32314 0.0
C1692 C 0.20069 0.32013 0.35204 0.0
C1693 C 0.18966 0.32105 0.34307 0.0
C1694 C 0.17622 0.34423 0.34147 0.0
C1695 C 0.14096 0.33465 0.32015 0.0
C1696 C 0.15269 0.33362 0.3291 0.0
C1697 C 0.18684 0.33059 0.3543 0.0
C1698 C 0.17513 0.33161 0.34512 0.0
H1699 H 0.11529 0.32037 0.27518 0.0
H1700 H 0.13461 0.31895 0.29005 0.0
H1701 H 0.16631 0.35508 0.33056 0.0
H1702 H 0.21241 0.34497 0.39946 0.0
H1703 H 0.1932 0.34645 0.38405 0.0
C1704 C 0.68542 0.88268 0.36005 0.0
C1705 C 0.67701 0.88324 0.37993 0.0
C1706 C 0.68343 0.8703 0.35104 0.0
C1707 C 0.66779 0.83466 0.37041 0.0
H1708 H 0.66868 0.82878 0.29346 0.0
C1709 C 0.65187 0.78237 0.32544 0.0
C1710 C 0.65999 0.78206 0.3046 0.0
C1711 C 0.65366 0.79464 0.33479 0.0
C1712 C 0.66852 0.8303 0.31503 0.0
H1713 H 0.66003 0.87127 0.40617 0.0
H1714 H 0.65659 0.84979 0.39044 0.0
H1715 H 0.67299 0.85056 0.30969 0.0
H1716 H 0.67637 0.79435 0.27731 0.0
H1717 H 0.67957 0.81557 0.29382 0.0
H1718 H 0.6634 0.81443 0.37578 0.0
C1719 C 0.66476 0.85888 0.38195 0.0
C1720 C 0.67102 0.84279 0.32431 0.0
C1721 C 0.6667 0.8712 0.39083 0.0
C1722 C 0.66988 0.79421 0.29332 0.0
C1723 C 0.67168 0.80641 0.30266 0.0
C1724 C 0.66533 0.82218 0.36114 0.0
C1725 C 0.67306 0.85828 0.36189 0.0
C1726 C 0.67069 0.8451 0.35209 0.0
C1727 C 0.66359 0.80679 0.32346 0.0
C1728 C 0.66571 0.81987 0.33335 0.0
H1729 H 0.69344 0.89178 0.3513 0.0
H1730 H 0.69006 0.87014 0.33572 0.0
H1731 H 0.6676 0.8362 0.39197 0.0
H1732 H 0.64415 0.77317 0.33448 0.0
H1733 H 0.64718 0.7946 0.3507 0.0
C1734 C 0.11237 0.79006 0.33917 0.0
C1735 C 0.11252 0.78069 0.35713 0.0
C1736 C 0.12442 0.8009 0.32995 0.0
C1737 C 0.16073 0.81274 0.32347 0.0
H1738 H 0.16433 0.84804 0.32226 0.0
C1739 C 0.21192 0.86142 0.31268 0.0
C1740 C 0.21232 0.8711 0.29486 0.0
C1741 C 0.19965 0.85021 0.31963 0.0
C1742 C 0.16343 0.83822 0.32226 0.0
H1743 H 0.12538 0.77522 0.37922 0.0
H1744 H 0.14621 0.79407 0.3635 0.0
H1745 H 0.14285 0.82862 0.33423 0.0
H1746 H 0.20019 0.87666 0.27041 0.0
H1747 H 0.17892 0.85719 0.28246 0.0
H1748 H 0.18137 0.82239 0.3118 0.0
C1749 C 0.13687 0.79302 0.35617 0.0
C1750 C 0.15112 0.8271 0.329 0.0
C1751 C 0.1249 0.78224 0.36534 0.0
C1752 C 0.20024 0.8694 0.28424 0.0
C1753 C 0.18803 0.85827 0.29125 0.0
C1754 C 0.17305 0.82387 0.31681 0.0
C1755 C 0.1368 0.80252 0.3385 0.0
C1756 C 0.14965 0.81424 0.32983 0.0
C1757 C 0.18759 0.84855 0.30899 0.0
C1758 C 0.17454 0.83673 0.31623 0.0
H1759 H 0.10299 0.78912 0.33247 0.0
H1760 H 0.12405 0.80799 0.31612 0.0
H1761 H 0.15986 0.80293 0.32353 0.0
H1762 H 0.22106 0.86247 0.32119 0.0
H1763 H 0.19959 0.84292 0.33356 0.0
C1764 C 0.66405 0.8749 0.7908 0.0
C1765 C 0.65431 0.87735 0.80226 0.0
C1766 C 0.66547 0.8642 0.79962 0.0
C1767 C 0.65856 0.84162 0.85745 0.0
H1768 H 0.66625 0.82107 0.80565 0.0
C1769 C 0.66026 0.7941 0.88683 0.0
C1770 C 0.6707 0.79257 0.87601 0.0
C1771 C 0.65812 0.80435 0.87784 0.0
C1772 C 0.66425 0.82681 0.82036 0.0
H1773 H 0.63832 0.87039 0.83179 0.0
H1774 H 0.64071 0.85147 0.84711 0.0
H1775 H 0.66206 0.83868 0.78972 0.0
H1776 H 0.68711 0.80061 0.84732 0.0
H1777 H 0.68337 0.81863 0.83157 0.0
H1778 H 0.66073 0.82971 0.88808 0.0
C1779 C 0.64735 0.85799 0.83147 0.0
C1780 C 0.66183 0.83688 0.81126 0.0
C1781 C 0.64592 0.86876 0.82262 0.0
C1782 C 0.67899 0.80154 0.85601 0.0
C1783 C 0.6768 0.81179 0.84691 0.0
C1784 C 0.66094 0.83152 0.86655 0.0
C1785 C 0.65717 0.85562 0.82008 0.0
C1786 C 0.65904 0.84446 0.82971 0.0
C1787 C 0.66633 0.81329 0.85776 0.0
C1788 C 0.66387 0.82405 0.8481 0.0
H1789 H 0.67072 0.88135 0.77513 0.0
H1790 H 0.67328 0.86281 0.79074 0.0
H1791 H 0.65665 0.84742 0.87221 0.0
H1792 H 0.65367 0.78734 0.90225 0.0
H1793 H 0.64988 0.80514 0.88634 0.0
C1794 C 0.13181 0.78427 0.82582 0.0
C1795 C 0.12186 0.78397 0.80895 0.0
C1796 C 0.14254 0.79653 0.83442 0.0
C1797 C 0.15323 0.83258 0.84141 0.0
H1798 H 0.1889 0.83711 0.84234 0.0
C1799 C 0.20137 0.88409 0.85642 0.0
C1800 C 0.21068 0.88418 0.87487 0.0
C1801 C 0.19039 0.87193 0.84808 0.0
C1802 C 0.17898 0.83596 0.84233 0.0
H1803 H 0.11531 0.79624 0.78794 0.0
H1804 H 0.13404 0.81749 0.80247 0.0
H1805 H 0.16988 0.81556 0.82931 0.0
H1806 H 0.21583 0.87163 0.89899 0.0
H1807 H 0.1968 0.85057 0.88445 0.0
H1808 H 0.1624 0.85306 0.8542 0.0
C1809 C 0.13348 0.80833 0.80952 0.0
C1810 C 0.16808 0.8236 0.83501 0.0
C1811 C 0.12278 0.79612 0.80105 0.0
C1812 C 0.20885 0.87193 0.88472 0.0
C1813 C 0.19798 0.85983 0.87628 0.0
C1814 C 0.16414 0.84496 0.8486 0.0
C1815 C 0.14352 0.8087 0.82622 0.0
C1816 C 0.15507 0.82176 0.83452 0.0
C1817 C 0.18865 0.85969 0.85788 0.0
C1818 C 0.17712 0.84675 0.84923 0.0
H1819 H 0.13135 0.77507 0.8323 0.0
H1820 H 0.15002 0.79648 0.84758 0.0
H1821 H 0.14331 0.83144 0.8416 0.0
H1822 H 0.20253 0.89338 0.84851 0.0
H1823 H 0.18337 0.87209 0.83374 0.0
C1824 C 0.11284 0.31683 0.85404 0.0
C1825 C 0.11288 0.32501 0.87511 0.0
C1826 C 0.12488 0.31795 0.84505 0.0
C1827 C 0.15989 0.33026 0.86613 0.0
H1828 H 0.16658 0.33084 0.78921 0.0
C1829 C 0.21193 0.34428 0.82295 0.0
C1830 C 0.21202 0.33635 0.80147 0.0
C1831 C 0.19984 0.34297 0.83205 0.0
C1832 C 0.16481 0.33057 0.81076 0.0
H1833 H 0.12552 0.34076 0.90334 0.0
H1834 H 0.14638 0.34275 0.88757 0.0
H1835 H 0.14519 0.32783 0.80491 0.0
H1836 H 0.19951 0.32082 0.77274 0.0
H1837 H 0.17854 0.31847 0.78877 0.0
H1838 H 0.1795 0.33299 0.872 0.0
C1839 C 0.1371 0.33537 0.87818 0.0
C1840 C 0.15255 0.32881 0.81973 0.0
C1841 C 0.12513 0.33427 0.88708 0.0
C1842 C 0.19981 0.32713 0.78928 0.0
C1843 C 0.18777 0.32583 0.79835 0.0
C1844 C 0.17214 0.332 0.85716 0.0
C1845 C 0.13713 0.32724 0.85707 0.0
C1846 C 0.14997 0.32866 0.84751 0.0
C1847 C 0.18763 0.33373 0.8198 0.0
C1848 C 0.17474 0.33218 0.82938 0.0
H1849 H 0.10355 0.3096 0.84447 0.0
H1850 H 0.12459 0.31148 0.82888 0.0
H1851 H 0.15812 0.33001 0.88769 0.0
H1852 H 0.22118 0.35148 0.83269 0.0
H1853 H 0.20005 0.34929 0.84848 0.0
C1854 C 0.87926 0.67592 0.69314 0.0
C1855 C 0.87939 0.66402 0.68757 0.0
C1856 C 0.869 0.67783 0.6833 0.0
C1857 C 0.83399 0.65851 0.66071 0.0
H1858 H 0.83978 0.6934 0.63909 0.0
C1859 C 0.79184 0.66584 0.61744 0.0
C1860 C 0.79068 0.67662 0.62752 0.0
C1861 C 0.80298 0.66463 0.62365 0.0
C1862 C 0.83803 0.68363 0.64531 0.0
H1863 H 0.8692 0.64505 0.66626 0.0
H1864 H 0.85135 0.6485 0.64857 0.0
H1865 H 0.85897 0.69067 0.64988 0.0
H1866 H 0.80036 0.69468 0.65184 0.0
H1867 H 0.81997 0.69256 0.66274 0.0
H1868 H 0.81306 0.65147 0.65607 0.0
C1869 C 0.85907 0.65624 0.66104 0.0
C1870 C 0.849 0.68205 0.65144 0.0
C1871 C 0.86934 0.6543 0.67099 0.0
C1872 C 0.80098 0.68626 0.64382 0.0
C1873 C 0.81222 0.68509 0.64991 0.0
C1874 C 0.82305 0.66008 0.65443 0.0
C1875 C 0.85864 0.66792 0.66755 0.0
C1876 C 0.8471 0.66948 0.65935 0.0
C1877 C 0.81326 0.6742 0.63999 0.0
C1878 C 0.82494 0.67266 0.64677 0.0
H1879 H 0.88686 0.68362 0.70587 0.0
H1880 H 0.86892 0.68687 0.68897 0.0
H1881 H 0.83214 0.64876 0.66727 0.0
H1882 H 0.7841 0.65824 0.60476 0.0
H1883 H 0.80359 0.65623 0.61543 0.0
C1884 C 0.32664 0.2038 0.71636 0.0
C1885 C 0.33701 0.21627 0.70734 0.0
C1886 C 0.3265 0.192 0.70953 0.0
C1887 C 0.33997 0.17767 0.66069 0.0
H1888 H 0.32953 0.14998 0.71526 0.0
C1889 C 0.3447 0.13104 0.64274 0.0
C1890 C 0.33364 0.11861 0.64988 0.0
C1891 C 0.34546 0.14296 0.65095 0.0
C1892 C 0.33235 0.15758 0.69977 0.0
H1893 H 0.35533 0.22617 0.68388 0.0
H1894 H 0.35518 0.20547 0.67211 0.0
H1895 H 0.33041 0.171 0.72677 0.0
H1896 H 0.31488 0.10891 0.67196 0.0
H1897 H 0.3162 0.12987 0.68637 0.0
H1898 H 0.34193 0.16424 0.63372 0.0
C1899 C 0.34707 0.20485 0.68426 0.0
C1900 C 0.33285 0.16961 0.70633 0.0
C1901 C 0.34719 0.2167 0.69105 0.0
C1902 C 0.32353 0.11834 0.66619 0.0
C1903 C 0.32431 0.13033 0.67447 0.0
C1904 C 0.33951 0.16566 0.65417 0.0
C1905 C 0.33676 0.19238 0.6936 0.0
C1906 C 0.33661 0.17977 0.68682 0.0
C1907 C 0.33518 0.14275 0.66651 0.0
C1908 C 0.33568 0.15548 0.67363 0.0
H1909 H 0.31858 0.20311 0.72881 0.0
H1910 H 0.31828 0.18256 0.71661 0.0
H1911 H 0.34269 0.1852 0.6451 0.0
H1912 H 0.35271 0.1316 0.63035 0.0
H1913 H 0.35407 0.15237 0.64494 0.0
C1914 C 0.87803 0.19995 0.65683 0.0
C1915 C 0.87799 0.20833 0.63625 0.0
C1916 C 0.86598 0.18909 0.66588 0.0
C1917 C 0.82951 0.17636 0.66758 0.0
H1918 H 0.82701 0.14198 0.68029 0.0
C1919 C 0.7791 0.12786 0.68821 0.0
C1920 C 0.77923 0.11947 0.70866 0.0
C1921 C 0.79111 0.13879 0.67912 0.0
C1922 C 0.82759 0.15155 0.67707 0.0
H1923 H 0.86531 0.21186 0.60892 0.0
H1924 H 0.84444 0.19294 0.62449 0.0
H1925 H 0.84825 0.16098 0.66571 0.0
H1926 H 0.79203 0.11602 0.7358 0.0
H1927 H 0.81281 0.13504 0.72021 0.0
H1928 H 0.80884 0.16694 0.67897 0.0
C1929 C 0.85371 0.19483 0.63393 0.0
C1930 C 0.83976 0.16243 0.66878 0.0
C1931 C 0.8657 0.20563 0.6249 0.0
C1932 C 0.79156 0.12225 0.7199 0.0
C1933 C 0.80351 0.13311 0.71085 0.0
C1934 C 0.81734 0.16548 0.67589 0.0
C1935 C 0.85369 0.18644 0.65454 0.0
C1936 C 0.84085 0.17495 0.66393 0.0
C1937 C 0.80344 0.14148 0.6903 0.0
C1938 C 0.81625 0.15297 0.68077 0.0
H1939 H 0.88734 0.2018 0.66598 0.0
H1940 H 0.86626 0.18285 0.68197 0.0
H1941 H 0.83009 0.18594 0.66435 0.0
H1942 H 0.76975 0.12596 0.67914 0.0
H1943 H 0.79076 0.14501 0.66309 0.0
C1944 C 0.00498 0.46084 0.51485 0.0
C1945 C 0.99721 0.45299 0.53664 0.0
C1946 C 0.00318 0.47119 0.50475 0.0
C1947 C 0.97865 0.48302 0.50335 0.0
H1948 H 0.00959 0.51734 0.48559 0.0
C1949 C 0.97537 0.5308 0.48232 0.0
C1950 C 0.98328 0.53901 0.46104 0.0
C1951 C 0.97671 0.51994 0.49086 0.0
C1952 C 0.00084 0.50776 0.49019 0.0
H1953 H 0.98154 0.44987 0.56504 0.0
H1954 H 0.97855 0.46791 0.54771 0.0
H1955 H 0.01279 0.49906 0.50123 0.0
H1956 H -0.00147 0.54209 0.43157 0.0
H1957 H 0.00074 0.52318 0.44627 0.0
H1958 H 0.96671 0.49177 0.49248 0.0
C1959 C 0.98587 0.46599 0.53809 0.0
C1960 C 0.00268 0.49729 0.49909 0.0
C1961 C 0.98766 0.45569 0.54814 0.0
C1962 C 0.99234 0.53602 0.44816 0.0
C1963 C 0.99368 0.52522 0.45668 0.0
C1964 C 0.97681 0.4935 0.49448 0.0
C1965 C 0.99357 0.47383 0.51625 0.0
C1966 C 0.99161 0.48482 0.50586 0.0
C1967 C 0.986 0.51714 0.47829 0.0
C1968 C 0.98789 0.50599 0.48783 0.0
H1969 H 0.0124 0.45898 0.50554 0.0
H1970 H 0.00919 0.477 0.48774 0.0
H1971 H 0.9699 0.47346 0.50805 0.0
H1972 H 0.96832 0.53288 0.49265 0.0
H1973 H 0.97071 0.51393 0.50771 0.0
C1974 C 0.53753 0.54714 0.51084 0.0
C1975 C 0.54676 0.54683 0.52896 0.0
C1976 C 0.52657 0.53518 0.50166 0.0
C1977 C 0.5056 0.4999 0.52145 0.0
H1978 H 0.49419 0.49435 0.44654 0.0
C1979 C 0.464 0.44868 0.48164 0.0
C1980 C 0.45488 0.44895 0.46318 0.0
C1981 C 0.47544 0.46059 0.48934 0.0
C1982 C 0.49717 0.4958 0.4676 0.0
H1983 H 0.552 0.53376 0.55093 0.0
H1984 H 0.53303 0.51304 0.53483 0.0
H1985 H 0.51375 0.51545 0.46003 0.0
H1986 H 0.45049 0.46191 0.43859 0.0
H1987 H 0.47022 0.48258 0.45235 0.0
H1988 H 0.48898 0.48036 0.52915 0.0
C1989 C 0.53411 0.52248 0.52803 0.0
C1990 C 0.50836 0.50788 0.47528 0.0
C1991 C 0.54503 0.53437 0.53712 0.0
C1992 C 0.45736 0.46134 0.45275 0.0
C1993 C 0.46873 0.4732 0.46049 0.0
C1994 C 0.49438 0.48785 0.5138 0.0
C1995 C 0.52466 0.52274 0.51054 0.0
C1996 C 0.5127 0.51003 0.50227 0.0
C1997 C 0.47794 0.47297 0.47876 0.0
C1998 C 0.49003 0.48567 0.48679 0.0
H1999 H 0.5386 0.55659 0.50424 0.0
H2000 H 0.51939 0.53567 0.48825 0.0
H2001 H 0.5086 0.50137 0.5425 0.0
H2002 H 0.46237 0.43927 0.48994 0.0
H2003 H 0.48242 0.46007 0.50328 0.0
C2004 C 0.54641 0.00512 0.50701 0.0
C2005 C 0.54704 0.99508 0.49208 0.0
C2006 C 0.53404 0.00325 0.51578 0.0
C2007 C 0.49849 0.9846 0.49743 0.0
H2008 H 0.4929 0.99565 0.56794 0.0
C2009 C 0.44676 0.97604 0.53182 0.0
C2010 C 0.44681 0.98651 0.54644 0.0
C2011 C 0.45881 0.97636 0.52603 0.0
C2012 C 0.49434 0.99263 0.54806 0.0
H2013 H 0.53531 0.97496 0.47578 0.0
H2014 H 0.51384 0.97172 0.49116 0.0
H2015 H 0.51447 0.99759 0.55727 0.0
H2016 H 0.45953 0.00566 0.56598 0.0
H2017 H 0.48042 0.00635 0.55542 0.0
H2018 H 0.4785 0.9799 0.48794 0.0
C2019 C 0.52284 0.9811 0.49574 0.0
C2020 C 0.50669 0.99373 0.54201 0.0
C2021 C 0.53516 0.98294 0.48708 0.0
C2022 C 0.45912 0.99737 0.55483 0.0
C2023 C 0.47112 0.99772 0.54897 0.0
C2024 C 0.48617 0.98357 0.50342 0.0
C2025 C 0.52212 0.99132 0.50968 0.0
C2026 C 0.50891 0.98978 0.51659 0.0
C2027 C 0.47112 0.98719 0.5347 0.0
C2028 C 0.48398 0.98766 0.52874 0.0
H2029 H 0.55538 0.01458 0.51115 0.0
H2030 H 0.53377 0.01133 0.5264 0.0
H2031 H 0.49998 0.98166 0.47751 0.0
H2032 H 0.43742 0.96752 0.52518 0.0
H2033 H 0.45846 0.96803 0.51517 0.0
C2034 C 0.45488 0.99636 0.95853 0.0
C2035 C 0.45315 0.00708 0.96669 0.0
C2036 C 0.46632 0.99592 0.96592 0.0
C2037 C 0.49419 0.0095 0.01482 0.0
H2038 H 0.5101 0.99649 0.96244 0.0
C2039 C 0.54459 0.01177 0.03328 0.0
C2040 C 0.54501 2e-05 0.02773 0.0
C2041 C 0.53367 0.01299 0.02512 0.0
C2042 C 0.5057 4e-05 0.97732 0.0
H2043 H 0.462 0.02572 0.98913 0.0
H2044 H 0.48222 0.0251 1.00175 0.0
H2045 H 0.49063 0.99834 0.94977 0.0
H2046 H 0.53447 0.98045 0.00875 0.0
H2047 H 0.51535 0.98264 0.99426 0.0
H2048 H 0.50938 0.01131 0.04226 0.0
C2049 C 0.4746 0.01693 0.98991 0.0
C2050 C 0.49455 0.00109 0.97011 0.0
C2051 C 0.46306 0.01732 0.98262 0.0
C2052 C 0.53442 0.98962 0.01329 0.0
C2053 C 0.52352 0.9909 0.00494 0.0
C2054 C 0.50541 0.00854 0.02195 0.0
C2055 C 0.47637 0.00624 0.98148 0.0
C2056 C 0.48859 0.00573 0.98885 0.0
C2057 C 0.52298 0.00254 0.01108 0.0
C2058 C 0.51121 0.00373 1.00332 0.0
H2059 H 0.44738 0.98823 0.94643 0.0
H2060 H 0.46721 0.9874 0.95959 0.0
H2061 H 0.48974 0.01292 0.02984 0.0
H2062 H 0.5526 0.01999 0.04434 0.0
H2063 H 0.5336 0.02215 0.0298 0.0
C2064 C 0.01846 0.55348 0.02379 0.0
C2065 C 0.01025 0.55356 0.04469 0.0
C2066 C 0.01733 0.54139 0.01513 0.0
C2067 C 0.00455 0.50622 0.03623 0.0
H2068 H 0.0037 0.49952 0.95925 0.0
C2069 C 0.98876 0.45378 0.99241 0.0
C2070 C 0.99646 0.45341 0.97078 0.0
C2071 C 0.99059 0.46605 1.00179 0.0
C2072 C 0.00406 0.50129 0.98083 0.0
H2073 H 0.99458 0.54107 0.07315 0.0
H2074 H 0.99258 0.52011 0.05796 0.0
H2075 H 0.00731 0.52111 0.97511 0.0
H2076 H 0.01215 0.46561 0.94211 0.0
H2077 H 0.0154 0.48688 0.95857 0.0
H2078 H 0.00125 0.48637 0.04194 0.0
C2079 C -3e-05 0.52934 0.04842 0.0
C2080 C 0.00616 0.51367 0.98989 0.0
C2081 C 0.00107 0.54137 0.057 0.0
C2082 C 0.00601 0.46552 0.95875 0.0
C2083 C 0.00783 0.47773 0.96807 0.0
C2084 C 0.00245 0.49383 0.02717 0.0
C2085 C 0.00802 0.52919 0.02731 0.0
C2086 C 0.00639 0.51626 0.01769 0.0
C2087 C 0.00014 0.47816 0.98965 0.0
C2088 C 0.00217 0.49123 0.99936 0.0
H2089 H 0.02564 0.56272 0.01396 0.0
H2090 H 0.02377 0.54159 0.99896 0.0
H2091 H 0.00485 0.50798 0.0578 0.0
H2092 H 0.98131 0.44461 1.00206 0.0
H2093 H 0.98443 0.46606 0.0183 0.0
C2094 C 0.46245 0.45685 0.0488 0.0
C2095 C 0.45017 0.45548 0.04041 0.0
C2096 C 0.47447 0.46846 0.04297 0.0
C2097 C 0.48872 0.50407 0.02723 0.0
H2098 H 0.5191 0.50123 1.00219 0.0
C2099 C 0.53705 0.54886 0.98505 0.0
C2100 C 0.54932 0.54936 0.98981 0.0
C2101 C 0.52504 0.53791 0.99371 0.0
C2102 C 0.51079 0.50221 0.00963 0.0
H2103 H 0.44087 0.46518 0.01912 0.0
H2104 H 0.46204 0.4856 0.00883 0.0
H2105 H 0.49779 0.48096 0.01063 0.0
H2106 H 0.55869 0.53914 0.00876 0.0
H2107 H 0.53769 0.52008 0.02438 0.0
H2108 H 0.50174 0.52534 0.02627 0.0
C2109 C 0.46227 0.47765 0.02009 0.0
C2110 C 0.49856 0.4906 0.0143 0.0
C2111 C 0.45018 0.46595 0.0258 0.0
C2112 C 0.54939 0.53901 0.00468 0.0
C2113 C 0.53735 0.52805 0.01342 0.0
C2114 C 0.50099 0.51571 0.02265 0.0
C2115 C 0.47453 0.47901 0.0287 0.0
C2116 C 0.48739 0.4914 0.02312 0.0
C2117 C 0.52502 0.52722 0.00741 0.0
C2118 C 0.51216 0.51491 0.01375 0.0
H2119 H 0.4628 0.44898 0.06012 0.0
H2120 H 0.48374 0.46927 0.05012 0.0
H2121 H 0.48033 0.50498 0.0344 0.0
H2122 H 0.53664 0.55668 0.97366 0.0
H2123 H 0.51573 0.53755 0.98853 0.0
C2124 C 0.40112 0.05242 0.99094 0.0
C2125 C 0.40794 0.04541 0.99619 0.0
C2126 C 0.39932 0.05976 0.01136 0.0
C2127 C 0.40888 0.0722 0.08264 0.0
H2128 H 0.37351 0.06845 0.08267 0.0
C2129 C 0.38165 0.0761 0.17775 0.0
C2130 C 0.37363 0.08206 0.17502 0.0
C2131 C 0.38826 0.07469 0.15536 0.0
C2132 C 0.38352 0.06981 0.08278 0.0
H2133 H 0.41871 0.04103 0.02665 0.0
H2134 H 0.41514 0.05337 0.06264 0.0
H2135 H 0.38048 0.06018 0.04454 0.0
H2136 H 0.3669 0.09192 0.14691 0.0
H2137 H 0.37836 0.08935 0.10776 0.0
H2138 H 0.41148 0.08121 0.12182 0.0
C2139 C 0.41145 0.05354 0.0426 0.0
C2140 C 0.38758 0.0651 0.06079 0.0
C2141 C 0.41347 0.0464 0.02197 0.0
C2142 C 0.37298 0.08727 0.14971 0.0
C2143 C 0.37947 0.08572 0.12725 0.0
C2144 C 0.40473 0.07678 0.10485 0.0
C2145 C 0.40402 0.06002 0.03776 0.0
C2146 C 0.40026 0.06609 0.06046 0.0
C2147 C 0.38687 0.07908 0.12968 0.0
C2148 C 0.39195 0.07551 0.10525 0.0
H2149 H 0.39687 0.05197 0.97115 0.0
H2150 H 0.39391 0.06494 0.00654 0.0
H2151 H 0.41879 0.07335 0.083 0.0
H2152 H 0.38239 0.07202 0.19699 0.0
H2153 H 0.39382 0.06947 0.15787 0.0
C2154 C 0.92436 0.3122 0.18442 0.0
C2155 C 0.91809 0.29844 0.17867 0.0
C2156 C 0.92631 0.32143 0.16408 0.0
C2157 C 0.91813 0.32446 0.09172 0.0
H2158 H 0.95263 0.35712 0.09502 0.0
C2159 C 0.94703 0.35683 0.99916 0.0
C2160 C 0.95399 0.37085 1.00209 0.0
C2161 C 0.94021 0.34852 0.02107 0.0
C2162 C 0.94286 0.34816 0.09397 0.0
H2163 H 0.90845 0.28347 0.14737 0.0
H2164 H 0.91232 0.29955 0.11155 0.0
H2165 H 0.94533 0.34158 0.13272 0.0
H2166 H 0.95873 0.38715 0.02996 0.0
H2167 H 0.94698 0.37259 0.0684 0.0
H2168 H 0.91618 0.33086 0.05204 0.0
C2169 C 0.91545 0.30328 0.13189 0.0
C2170 C 0.93861 0.33922 0.1157 0.0
C2171 C 0.91325 0.29402 0.15242 0.0
C2172 C 0.95345 0.37639 0.02705 0.0
C2173 C 0.94679 0.36807 0.04909 0.0
C2174 C 0.9225 0.33334 0.06977 0.0
C2175 C 0.92232 0.31716 0.13727 0.0
C2176 C 0.92624 0.32715 0.11484 0.0
C2177 C 0.94036 0.35404 0.04647 0.0
C2178 C 0.93498 0.34522 0.07058 0.0
H2179 H 0.92806 0.31588 0.20457 0.0
H2180 H 0.93126 0.33195 0.16932 0.0
H2181 H 0.90845 0.31542 0.09041 0.0
H2182 H 0.94722 0.35226 0.98016 0.0
H2183 H 0.93543 0.33776 0.01847 0.0
C2184 C 0.61878 0.57813 0.02679 0.0
C2185 C 0.62203 0.57489 1.00164 0.0
C2186 C 0.62712 0.58064 0.04918 0.0
C2187 C 0.66221 0.5887 0.06639 0.0
H2188 H 0.64928 0.58847 0.13866 0.0
C2189 C 0.69896 0.61825 0.15272 0.0
C2190 C 0.69477 0.61543 0.17971 0.0
C2191 C 0.69012 0.61112 0.13166 0.0
C2192 C 0.65319 0.58837 0.11886 0.0
H2193 H 0.63606 0.57083 0.98056 0.0
H2194 H 0.65003 0.57403 0.01999 0.0
H2195 H 0.63352 0.57886 0.10217 0.0
H2196 H 0.67846 0.60239 0.2061 0.0
H2197 H 0.66346 0.58907 0.16978 0.0
H2198 H 0.68178 0.59722 0.08343 0.0
C2199 C 0.64148 0.57544 0.02237 0.0
C2200 C 0.64404 0.58309 0.09749 0.0
C2201 C 0.63336 0.57338 0.99972 0.0
C2202 C 0.68189 0.6048 0.18538 0.0
C2203 C 0.67321 0.5973 0.16437 0.0
C2204 C 0.67132 0.59354 0.08793 0.0
C2205 C 0.63878 0.57956 0.04733 0.0
C2206 C 0.6484 0.58356 0.07069 0.0
C2207 C 0.67697 0.60063 0.13705 0.0
C2208 C 0.66706 0.59389 0.11447 0.0
H2209 H 0.61022 0.57957 0.02879 0.0
H2210 H 0.62466 0.58404 0.06752 0.0
H2211 H 0.6662 0.58944 0.04628 0.0
H2212 H 0.70879 0.62655 0.14782 0.0
H2213 H 0.69353 0.61434 0.11121 0.0
C2214 C 0.08242 0.37662 0.35984 0.0
C2215 C 0.07579 0.37549 0.33529 0.0
C2216 C 0.08093 0.38348 0.38174 0.0
C2217 C 0.06994 0.4074 0.40208 0.0
H2218 H 0.05699 0.38553 0.46664 0.0
C2219 C 0.04022 0.41664 0.48534 0.0
C2220 C 0.04032 0.41228 0.5118 0.0
C2221 C 0.04725 0.41448 0.4647 0.0
C2222 C 0.0609 0.392 0.44915 0.0
H2223 H 0.06312 0.38139 0.31387 0.0
H2224 H 0.06073 0.39352 0.35189 0.0
H2225 H 0.06496 0.378 0.42888 0.0
H2226 H 0.04868 0.40322 0.53791 0.0
H2227 H 0.06149 0.40008 0.50243 0.0
H2228 H 0.06588 0.42142 0.42228 0.0
C2229 C 0.067 0.38906 0.35429 0.0
C2230 C 0.06543 0.38761 0.42739 0.0
C2231 C 0.06832 0.38204 0.33256 0.0
C2232 C 0.04829 0.40654 0.51761 0.0
C2233 C 0.05553 0.40463 0.49714 0.0
C2234 C 0.06559 0.41191 0.42405 0.0
C2235 C 0.07296 0.38952 0.37935 0.0
C2236 C 0.06976 0.39512 0.40343 0.0
C2237 C 0.05473 0.40811 0.47018 0.0
C2238 C 0.06074 0.40413 0.44773 0.0
H2239 H 0.08822 0.37167 0.36259 0.0
H2240 H 0.08571 0.38376 0.40078 0.0
H2241 H 0.07332 0.41344 0.3839 0.0
H2242 H 0.03409 0.42102 0.48023 0.0
H2243 H 0.04622 0.4172 0.44426 0.0
C2244 C 0.58826 0.64169 0.51963 0.0
C2245 C 0.58322 0.62798 0.51471 0.0
C2246 C 0.59031 0.65051 0.49831 0.0
C2247 C 0.58408 0.65205 0.42413 0.0
H2248 H 0.61692 0.68632 0.42927 0.0
C2249 C 0.61319 0.68478 0.33202 0.0
C2250 C 0.61924 0.69879 0.33436 0.0
C2251 C 0.60651 0.67645 0.354 0.0
C2252 C 0.6076 0.67689 0.42764 0.0
H2253 H 0.57587 0.61268 0.48364 0.0
H2254 H 0.57982 0.62804 0.44637 0.0
H2255 H 0.6095 0.6712 0.46773 0.0
H2256 H 0.62251 0.71498 0.36134 0.0
H2257 H 0.61095 0.70041 0.39986 0.0
H2258 H 0.58266 0.65763 0.38336 0.0
C2259 C 0.58193 0.63203 0.46672 0.0
C2260 C 0.60328 0.66818 0.44979 0.0
C2261 C 0.5797 0.62318 0.48813 0.0
C2262 C 0.61795 0.70424 0.35885 0.0
C2263 C 0.6114 0.6959 0.38097 0.0
C2264 C 0.5885 0.66072 0.40182 0.0
C2265 C 0.58759 0.64589 0.47141 0.0
C2266 C 0.59153 0.65556 0.44833 0.0
C2267 C 0.60585 0.68193 0.37896 0.0
C2268 C 0.60039 0.67318 0.40324 0.0
H2269 H 0.59097 0.6457 0.53992 0.0
H2270 H 0.59431 0.66102 0.50293 0.0
H2271 H 0.57486 0.64256 0.42228 0.0
H2272 H 0.61398 0.68026 0.31342 0.0
H2273 H 0.60242 0.66574 0.35182 0.0
C2274 C 0.34977 0.93915 0.51785 0.0
C2275 C 0.36359 0.94681 0.51289 0.0
C2276 C 0.34088 0.9319 0.49702 0.0
C2277 C 0.33904 0.92143 0.42431 0.0
H2278 H 0.30613 0.92284 0.42591 0.0
C2279 C 0.30818 0.91943 0.33017 0.0
C2280 C 0.29413 0.91217 0.33205 0.0
C2281 C 0.31614 0.92052 0.35247 0.0
C2282 C 0.31516 0.92215 0.42533 0.0
H2283 H 0.37901 0.95248 0.48248 0.0
H2284 H 0.36353 0.94037 0.4458 0.0
H2285 H 0.32102 0.93068 0.46465 0.0
H2286 H 0.2774 0.89981 0.35841 0.0
H2287 H 0.29133 0.90193 0.39757 0.0
H2288 H 0.33338 0.91365 0.38403 0.0
C2289 C 0.35948 0.93956 0.4659 0.0
C2290 C 0.32373 0.9266 0.44766 0.0
C2291 C 0.36841 0.94658 0.48694 0.0
C2292 C 0.2882 0.90546 0.3563 0.0
C2293 C 0.29616 0.90673 0.37875 0.0
C2294 C 0.33054 0.91717 0.40175 0.0
C2295 C 0.34554 0.93241 0.47047 0.0
C2296 C 0.3359 0.92647 0.44742 0.0
C2297 C 0.3102 0.91454 0.37724 0.0
C2298 C 0.31858 0.91763 0.40194 0.0
H2299 H 0.34579 0.93903 0.53775 0.0
H2300 H 0.33029 0.92619 0.50165 0.0
H2301 H 0.34816 0.92091 0.42345 0.0
H2302 H 0.31305 0.92469 0.31174 0.0
H2303 H 0.32692 0.92668 0.35074 0.0
C2304 C 0.61336 0.91627 0.85634 0.0
C2305 C 0.61515 0.92275 0.83134 0.0
C2306 C 0.60602 0.91794 0.87709 0.0
C2307 C 0.59468 0.94174 0.89832 0.0
H2308 H 0.57578 0.91524 0.95411 0.0
C2309 C 0.56866 0.95279 0.98551 0.0
C2310 C 0.57235 0.95077 0.01144 0.0
C2311 C 0.57127 0.94727 0.96268 0.0
C2312 C 0.58101 0.92274 0.93865 0.0
H2313 H 0.6099 0.93535 0.8079 0.0
H2314 H 0.59665 0.93778 0.84339 0.0
H2315 H 0.58514 0.90952 0.91538 0.0
H2316 H 0.58074 0.94049 0.03381 0.0
H2317 H 0.58512 0.93074 0.99403 0.0
H2318 H 0.59058 0.95494 0.92157 0.0
C2319 C 0.60133 0.93183 0.84756 0.0
C2320 C 0.58645 0.91949 0.91648 0.0
C2321 C 0.60883 0.93033 0.82704 0.0
C2322 C 0.57777 0.94226 0.01415 0.0
C2323 C 0.58027 0.93664 0.99132 0.0
C2324 C 0.58912 0.94491 0.92025 0.0
C2325 C 0.60013 0.926 0.8732 0.0
C2326 C 0.59351 0.92901 0.8961 0.0
C2327 C 0.57752 0.93949 0.96523 0.0
C2328 C 0.58234 0.93552 0.94085 0.0
H2329 H 0.61816 0.91041 0.86036 0.0
H2330 H 0.60548 0.91338 0.89652 0.0
H2331 H 0.60029 0.9495 0.88357 0.0
H2332 H 0.56447 0.95929 0.98264 0.0
H2333 H 0.56884 0.94949 0.94288 0.0
C2334 C 0.05573 0.65041 0.01687 0.0
C2335 C 0.04888 0.63646 0.01301 0.0
C2336 C 0.06327 0.65909 0.99595 0.0
C2337 C 0.07688 0.66035 0.9262 0.0
H2338 H 0.07414 0.69248 0.92094 0.0
C2339 C 0.08417 0.69071 0.82757 0.0
C2340 C 0.09035 0.70475 0.82957 0.0
C2341 C 0.08196 0.68284 0.85068 0.0
C2342 C 0.07521 0.68367 0.9223 0.0
H2343 H 0.04493 0.62066 0.98442 0.0
H2344 H 0.05762 0.63575 0.94756 0.0
H2345 H 0.06471 0.67787 0.95981 0.0
H2346 H 0.09983 0.72155 0.85726 0.0
H2347 H 0.09592 0.70781 0.89756 0.0
H2348 H 0.0868 0.66597 0.88768 0.0
C2349 C 0.05751 0.64007 0.96693 0.0
C2350 C 0.06982 0.67526 0.94472 0.0
C2351 C 0.05017 0.63137 0.98808 0.0
C2352 C 0.09506 0.71078 0.85496 0.0
C2353 C 0.09272 0.7029 0.87811 0.0
C2354 C 0.08212 0.66871 0.90351 0.0
C2355 C 0.06392 0.65408 0.97035 0.0
C2356 C 0.07048 0.66341 0.94701 0.0
C2357 C 0.08576 0.68883 0.87634 0.0
C2358 C 0.08127 0.68043 0.90125 0.0
H2359 H 0.05505 0.65464 0.03595 0.0
H2360 H 0.06836 0.66977 0.99978 0.0
H2361 H 0.0778 0.65146 0.92731 0.0
H2362 H 0.08042 0.68573 0.80833 0.0
H2363 H 0.07654 0.67203 0.84863 0.0
C2364 C 0.28816 0.37732 0.85892 0.0
C2365 C 0.29372 0.3764 0.8343 0.0
C2366 C 0.29645 0.3842 0.88086 0.0
C2367 C 0.33121 0.40843 0.90139 0.0
H2368 H 0.32272 0.38612 0.96522 0.0
C2369 C 0.37051 0.41738 0.98364 0.0
C2370 C 0.36615 0.4127 0.00999 0.0
C2371 C 0.36124 0.41537 0.96329 0.0
C2372 C 0.32516 0.39271 0.94795 0.0
H2373 H 0.31234 0.3827 0.8128 0.0
H2374 H 0.32678 0.39486 0.8509 0.0
H2375 H 0.30716 0.37867 0.92757 0.0
H2376 H 0.34883 0.40327 0.03629 0.0
H2377 H 0.33274 0.40043 1.00134 0.0
H2378 H 0.34924 0.42248 0.9217 0.0
C2379 C 0.31602 0.39022 0.85332 0.0
C2380 C 0.3162 0.38837 0.92626 0.0
C2381 C 0.30774 0.38318 0.83154 0.0
C2382 C 0.35246 0.40684 0.01605 0.0
C2383 C 0.34322 0.40509 0.99589 0.0
C2384 C 0.34011 0.41289 0.9233 0.0
C2385 C 0.31047 0.39047 0.87844 0.0
C2386 C 0.31924 0.39604 0.90254 0.0
C2387 C 0.3474 0.40885 0.96898 0.0
C2388 C 0.33734 0.40496 0.94671 0.0
H2389 H 0.27739 0.37219 0.86168 0.0
H2390 H 0.29191 0.38432 0.89995 0.0
H2391 H 0.33376 0.41459 0.8834 0.0
H2392 H 0.38101 0.42186 0.97836 0.0
H2393 H 0.3649 0.41831 0.94286 0.0
C2394 C 0.90305 0.61697 0.651 0.0
C2395 C 0.90427 0.61332 0.67751 0.0
C2396 C 0.90569 0.6111 0.62878 0.0
C2397 C 0.92484 0.59398 0.61213 0.0
H2398 H 0.90911 0.59062 0.54122 0.0
C2399 C 0.94267 0.57658 0.51935 0.0
C2400 C 0.94588 0.58496 0.49661 0.0
C2401 C 0.93539 0.57771 0.54087 0.0
C2402 C 0.91359 0.5915 0.56092 0.0
H2403 H 0.90824 0.5999 0.7014 0.0
H2404 H 0.91232 0.58931 0.66277 0.0
H2405 H 0.89993 0.59641 0.58009 0.0
H2406 H 0.94334 0.60062 0.47808 0.0
H2407 H 0.93055 0.60248 0.5154 0.0
H2408 H 0.93855 0.58917 0.59289 0.0
C2409 C 0.90979 0.59705 0.65904 0.0
C2410 C 0.90837 0.59487 0.58322 0.0
C2411 C 0.90731 0.60303 0.68125 0.0
C2412 C 0.94107 0.59402 0.49531 0.0
C2413 C 0.93367 0.59504 0.51666 0.0
C2414 C 0.92996 0.59048 0.5899 0.0
C2415 C 0.90948 0.60132 0.6325 0.0
C2416 C 0.91407 0.5964 0.6091 0.0
C2417 C 0.931 0.58713 0.53999 0.0
C2418 C 0.92457 0.58943 0.56394 0.0
H2419 H 0.90082 0.62492 0.64739 0.0
H2420 H 0.90544 0.61478 0.60877 0.0
H2421 H 0.92971 0.5953 0.63151 0.0
H2422 H 0.94623 0.56951 0.52101 0.0
H2423 H 0.93338 0.57137 0.55845 0.0
C2424 C 0.38482 0.31242 0.68377 0.0
C2425 C 0.3769 0.29866 0.67837 0.0
C2426 C 0.39238 0.32137 0.66327 0.0
C2427 C 0.40326 0.32345 0.59089 0.0
H2428 H 0.4022 0.35656 0.5927 0.0
C2429 C 0.40563 0.35445 0.49695 0.0
C2430 C 0.41285 0.3685 0.49887 0.0
C2431 C 0.40453 0.3465 0.51925 0.0
C2432 C 0.40281 0.34747 0.59207 0.0
H2433 H 0.37111 0.28338 0.64758 0.0
H2434 H 0.38378 0.29899 0.61146 0.0
H2435 H 0.39409 0.34154 0.63121 0.0
H2436 H 0.42512 0.38525 0.52527 0.0
H2437 H 0.42299 0.37133 0.56445 0.0
H2438 H 0.41124 0.32919 0.55078 0.0
C2439 C 0.38453 0.30292 0.63165 0.0
C2440 C 0.39819 0.33883 0.61427 0.0
C2441 C 0.37719 0.29393 0.65236 0.0
C2442 C 0.41951 0.37445 0.52316 0.0
C2443 C 0.41824 0.36649 0.54561 0.0
C2444 C 0.4077 0.33203 0.56847 0.0
C2445 C 0.39193 0.31683 0.63664 0.0
C2446 C 0.39816 0.32658 0.6139 0.0
C2447 C 0.41047 0.35244 0.54405 0.0
C2448 C 0.40734 0.34405 0.56873 0.0
H2449 H 0.38491 0.31632 0.70374 0.0
H2450 H 0.39826 0.33192 0.6682 0.0
H2451 H 0.40366 0.31426 0.58996 0.0
H2452 H 0.40043 0.34956 0.47848 0.0
H2453 H 0.39841 0.33571 0.51749 0.0
C2454 C 0.6169 0.04168 0.53065 0.0
C2455 C 0.62249 0.04479 0.50456 0.0
C2456 C 0.62504 0.04701 0.55356 0.0
C2457 C 0.65882 0.0729 0.57776 0.0
H2458 H 0.65311 0.04608 0.63154 0.0
C2459 C 0.69864 0.08082 0.65895 0.0
C2460 C 0.69425 0.07421 0.68392 0.0
C2461 C 0.68942 0.0788 0.63839 0.0
C2462 C 0.65474 0.05383 0.61712 0.0
H2463 H 0.64092 0.05665 0.48215 0.0
H2464 H 0.65505 0.06599 0.52204 0.0
H2465 H 0.63775 0.04012 0.59371 0.0
H2466 H 0.67667 0.06099 0.70747 0.0
H2467 H 0.66063 0.05789 0.67223 0.0
H2468 H 0.67589 0.0866 0.60116 0.0
C2469 C 0.64439 0.05942 0.52483 0.0
C2470 C 0.6459 0.05037 0.5953 0.0
C2471 C 0.63627 0.05402 0.50192 0.0
C2472 C 0.68041 0.06613 0.68837 0.0
C2473 C 0.6712 0.06425 0.668 0.0
C2474 C 0.66763 0.07641 0.59977 0.0
C2475 C 0.63895 0.05565 0.55095 0.0
C2476 C 0.64787 0.0598 0.57518 0.0
C2477 C 0.67557 0.07023 0.64241 0.0
C2478 C 0.6658 0.06688 0.61967 0.0
H2479 H 0.60634 0.03462 0.53347 0.0
H2480 H 0.62049 0.04406 0.57338 0.0
H2481 H 0.66057 0.08044 0.56273 0.0
H2482 H 0.70924 0.08705 0.65481 0.0
H2483 H 0.69324 0.08351 0.61897 0.0
C2484 C 0.75571 0.71872 0.69038 0.0
C2485 C 0.74834 0.71718 0.66667 0.0
C2486 C 0.75478 0.72581 0.7125 0.0
C2487 C 0.74434 0.74995 0.73428 0.0
H2488 H 0.73384 0.72935 0.80068 0.0
C2489 C 0.71781 0.76088 0.82178 0.0
C2490 C 0.71868 0.75683 0.84813 0.0
C2491 C 0.72417 0.75841 0.80022 0.0
C2492 C 0.73708 0.73548 0.78263 0.0
H2493 H 0.73487 0.72257 0.647 0.0
H2494 H 0.73347 0.73515 0.68538 0.0
H2495 H 0.74038 0.72108 0.76182 0.0
H2496 H 0.72779 0.74806 0.87294 0.0
H2497 H 0.73949 0.74445 0.83579 0.0
H2498 H 0.74108 0.76439 0.75502 0.0
C2499 C 0.73989 0.73081 0.68694 0.0
C2500 C 0.74079 0.73066 0.76024 0.0
C2501 C 0.74065 0.72355 0.665 0.0
C2502 C 0.72684 0.75119 0.8528 0.0
C2503 C 0.73342 0.74897 0.83137 0.0
C2504 C 0.74083 0.7549 0.75685 0.0
C2505 C 0.74664 0.7317 0.7112 0.0
C2506 C 0.74422 0.7377 0.73566 0.0
C2507 C 0.73175 0.75204 0.80458 0.0
C2508 C 0.73689 0.74761 0.78125 0.0
H2509 H 0.76169 0.71391 0.69234 0.0
H2510 H 0.76017 0.72642 0.73088 0.0
H2511 H 0.74704 0.75565 0.71564 0.0
H2512 H 0.7115 0.76515 0.81749 0.0
H2513 H 0.72249 0.76084 0.77998 0.0
C2514 C 0.27896 0.02437 0.65948 0.0
C2515 C 0.28801 0.03793 0.66494 0.0
C2516 C 0.27185 0.01548 0.68043 0.0
C2517 C 0.26412 0.01349 0.75466 0.0
H2518 H 0.26234 0.97909 0.74817 0.0
C2519 C 0.26185 0.98069 0.84525 0.0
C2520 C 0.2539 0.96669 0.84298 0.0
C2521 C 0.26302 0.98901 0.82359 0.0
C2522 C 0.26253 0.98855 0.75017 0.0
H2523 H 0.29623 0.05295 0.69652 0.0
H2524 H 0.28423 0.03744 0.7332 0.0
H2525 H 0.26989 0.99437 0.71 0.0
H2526 H 0.24046 0.95047 0.8166 0.0
H2527 H 0.24265 0.96503 0.77856 0.0
H2528 H 0.25742 0.00779 0.79553 0.0
C2529 C 0.28233 0.03363 0.7127 0.0
C2530 C 0.26684 0.99735 0.72818 0.0
C2531 C 0.28928 0.04257 0.69164 0.0
C2532 C 0.24666 0.96122 0.81899 0.0
C2533 C 0.24797 0.96954 0.79717 0.0
C2534 C 0.25996 0.00473 0.77679 0.0
C2535 C 0.27379 0.01988 0.70748 0.0
C2536 C 0.26789 0.01004 0.73019 0.0
C2537 C 0.2564 0.98351 0.79904 0.0
C2538 C 0.25931 0.99224 0.77489 0.0
H2539 H 0.27766 0.02052 0.63905 0.0
H2540 H 0.2651 0.00507 0.67544 0.0
H2541 H 0.26455 0.02305 0.75689 0.0
H2542 H 0.26753 0.98523 0.86349 0.0
H2543 H 0.26967 -0.00028 0.82561 0.0
C2544 C 0.95359 0.24262 0.69202 0.0
C2545 C 0.95935 0.24919 0.66757 0.0
C2546 C 0.9617 0.24399 0.71427 0.0
C2547 C 0.9963 0.25462 0.73625 0.0
H2548 H 0.98704 0.26808 0.79956 0.0
C2549 C 0.0346 0.28443 0.82055 0.0
C2550 C 0.02991 0.28457 0.84667 0.0
C2551 C 0.02558 0.27734 0.79969 0.0
C2552 C 0.98969 0.26403 0.78244 0.0
H2553 H 0.97813 0.26158 0.64668 0.0
H2554 H 0.99226 0.26377 0.68532 0.0
H2555 H 0.9719 0.2601 0.76122 0.0
H2556 H 0.01225 0.27655 0.87202 0.0
H2557 H 0.9966 0.26362 0.8362 0.0
H2558 H 0.01412 0.25855 0.75741 0.0
C2559 C 0.98149 0.25764 0.68738 0.0
C2560 C 0.98097 0.25949 0.76034 0.0
C2561 C 0.97339 0.25643 0.66528 0.0
C2562 C 0.01614 0.27675 0.85198 0.0
C2563 C 0.00715 0.26944 0.83131 0.0
C2564 C 0.00496 0.25898 0.75857 0.0
C2565 C 0.97573 0.25178 0.71235 0.0
C2566 C 0.98429 0.25497 0.73681 0.0
C2567 C 0.01167 0.27003 0.80462 0.0
C2568 C 0.0019 0.26401 0.78182 0.0
H2569 H 0.9428 0.23698 0.69444 0.0
H2570 H 0.957 0.23928 0.73323 0.0
H2571 H -0.00093 0.2511 0.71841 0.0
H2572 H 0.04517 0.29043 0.81583 0.0
H2573 H 0.02951 0.27819 0.77946 0.0
C2574 C 0.28476 0.2482 0.19067 0.0
C2575 C 0.28477 0.25292 0.16451 0.0
C2576 C 0.27761 0.25004 0.21151 0.0
C2577 C 0.26391 0.2723 0.22846 0.0
H2578 H 0.25123 0.2501 0.29268 0.0
C2579 C 0.24268 0.28717 0.31871 0.0
C2580 C 0.24936 0.28809 0.34308 0.0
C2581 C 0.24394 0.2803 0.29658 0.0
C2582 C 0.25467 0.25635 0.27479 0.0
H2583 H 0.27646 0.26226 0.13903 0.0
H2584 H 0.26344 0.26483 0.17481 0.0
H2585 H 0.25877 0.24255 0.25376 0.0
H2586 H 0.26179 0.28174 0.364 0.0
H2587 H 0.26381 0.2696 0.32554 0.0
H2588 H 0.25985 0.2861 0.24955 0.0
C2589 C 0.26941 0.26026 0.17975 0.0
C2590 C 0.25908 0.25208 0.25252 0.0
C2591 C 0.27678 0.25868 0.15912 0.0
C2592 C 0.25657 0.28125 0.34545 0.0
C2593 C 0.25767 0.27424 0.32346 0.0
C2594 C 0.25932 0.27645 0.25051 0.0
C2595 C 0.27011 0.25644 0.20648 0.0
C2596 C 0.26402 0.26014 0.22921 0.0
C2597 C 0.25173 0.27406 0.29854 0.0
C2598 C 0.2549 0.26866 0.27411 0.0
H2599 H 0.2909 0.24378 0.19542 0.0
H2600 H 0.27855 0.24706 0.23178 0.0
H2601 H 0.2679 0.27898 0.21129 0.0
H2602 H 0.23706 0.29233 0.31625 0.0
H2603 H 0.23917 0.28022 0.27765 0.0
C2604 C 0.76041 0.02317 0.16459 0.0
C2605 C 0.7598 0.03499 0.16679 0.0
C2606 C 0.75871 0.01527 0.18744 0.0
C2607 C 0.75343 0.01406 0.26353 0.0
H2608 H 0.73792 0.976 0.25097 0.0
C2609 C 0.73324 0.97735 0.35373 0.0
C2610 C 0.72234 0.96447 0.34918 0.0
C2611 C 0.7403 0.98571 0.33197 0.0
C2612 C 0.74199 0.98655 0.25511 0.0
H2613 H 0.75702 0.04789 0.19456 0.0
H2614 H 0.75309 0.03386 0.23379 0.0
H2615 H 0.74494 0.99106 0.2131 0.0
H2616 H 0.7103 0.95016 0.31841 0.0
H2617 H 0.72174 0.96484 0.28066 0.0
H2618 H 0.74916 0.00944 0.30526 0.0
C2619 C 0.75557 0.03081 0.21502 0.0
C2620 C 0.74641 0.99537 0.23308 0.0
C2621 C 0.75778 0.03894 0.19235 0.0
C2622 C 0.71883 0.95997 0.32249 0.0
C2623 C 0.72553 0.96848 0.30072 0.0
C2624 C 0.74854 0.00519 0.28546 0.0
C2625 C 0.75576 0.01867 0.21297 0.0
C2626 C 0.75207 0.00931 0.23679 0.0
C2627 C 0.73626 0.98163 0.305 0.0
C2628 C 0.74255 0.99123 0.2817 0.0
H2629 H 0.76199 0.01991 0.14507 0.0
H2630 H 0.75947 0.00635 0.18476 0.0
H2631 H 0.75809 0.02466 0.26779 0.0
H2632 H 0.73617 0.98105 0.37418 0.0
H2633 H 0.74875 0.99547 0.33654 0.0
C2634 C 0.01549 0.7354 0.34841 0.0
C2635 C 0.02926 0.74141 0.34291 0.0
C2636 C 0.00635 0.73329 0.32773 0.0
C2637 C 0.00358 0.74108 0.25501 0.0
H2638 H 0.97065 0.70683 0.25845 0.0
C2639 C 0.9705 0.71355 0.16195 0.0
C2640 C 0.9565 0.70635 0.16528 0.0
C2641 C 0.97896 0.71997 0.18395 0.0
C2642 C 0.97968 0.71653 0.25732 0.0
H2643 H 0.04429 0.75041 0.31149 0.0
H2644 H 0.02837 0.74638 0.27526 0.0
H2645 H 0.98618 0.71404 0.29619 0.0
H2646 H 0.94043 0.70081 0.19417 0.0
H2647 H 0.95521 0.71197 0.2326 0.0
H2648 H 0.99721 0.74317 0.21541 0.0
C2649 C 0.02458 0.74353 0.29564 0.0
C2650 C 0.98863 0.72072 0.27908 0.0
C2651 C 0.03375 0.74581 0.31645 0.0
C2652 C 0.95115 0.70627 0.19087 0.0
C2653 C 0.95963 0.71258 0.21295 0.0
C2654 C 0.99467 0.73681 0.23308 0.0
C2655 C 0.0107 0.73692 0.30084 0.0
C2656 C 0.00078 0.73301 0.27821 0.0
C2657 C 0.97364 0.71924 0.20988 0.0
C2658 C 0.98266 0.72442 0.23388 0.0
H2659 H 0.01171 0.732 0.36863 0.0
H2660 H 0.99581 0.72853 0.33278 0.0
H2661 H 0.0127 0.75069 0.25367 0.0
H2662 H 0.97496 0.71383 0.14251 0.0
H2663 H 0.9897 0.72493 0.18089 0.0
loop_
_geom_bond_atom_site_label_1
_geom_bond_atom_site_label_2
_geom_bond_distance
_geom_bond_site_symmetry_2
_ccdc_geom_bond_type
O0 Cd1 2.223 . S
O0 C8 1.315 . S
Cd1 O0 2.223 . S
Cd1 O4 2.297 . S
Cd1 O5 2.439 . S
Cd1 O11 2.240 . S
Cd2 O3 2.240 . S
Cd2 O10 2.223 . S
Cd2 O12 2.297 . S
Cd2 O13 2.439 . S
O3 Cd2 2.240 . S
O3 C8 1.279 . S
O4 Cd1 2.297 . S
O4 C6 1.247 . S
O5 Cd1 2.439 . S
O5 C6 1.208 . S
C6 O4 1.247 . S
C6 O5 1.208 . S
C7 O12 1.247 . S
C7 O13 1.208 . S
C8 O0 1.315 . S
C8 O3 1.279 . S
C9 O10 1.315 . S
C9 O11 1.279 . S
O10 Cd2 2.223 . S
O10 C9 1.315 . S
O11 Cd1 2.240 . S
O11 C9 1.279 . S
O12 Cd2 2.297 . S
O12 C7 1.247 . S
O13 Cd2 2.439 . S
O13 C7 1.208 . S
O14 Cd15 2.223 . S
O14 C22 1.315 . S
Cd15 O14 2.223 . S
Cd15 O18 2.297 . S
Cd15 O19 2.439 . S
Cd15 O25 2.240 . S
Cd16 O17 2.240 . S
Cd16 O24 2.223 . S
Cd16 O26 2.297 . S
Cd16 O27 2.439 . S
O17 Cd16 2.240 . S
O17 C22 1.279 . S
O18 Cd15 2.297 . S
O18 C20 1.247 . S
O19 Cd15 2.439 . S
O19 C20 1.208 . S
C20 O18 1.247 . S
C20 O19 1.208 . S
C21 O26 1.247 . S
C21 O27 1.208 . S
C22 O14 1.315 . S
C22 O17 1.279 . S
C23 O24 1.315 . S
C23 O25 1.279 . S
O24 Cd16 2.223 . S
O24 C23 1.315 . S
O25 Cd15 2.240 . S
O25 C23 1.279 . S
O26 Cd16 2.297 . S
O26 C21 1.247 . S
O27 Cd16 2.439 . S
O27 C21 1.208 . S
O28 Cd29 2.223 . S
O28 C36 1.315 . S
Cd29 O28 2.223 . S
Cd29 O32 2.297 . S
Cd29 O33 2.439 . S
Cd29 O39 2.240 . S
Cd30 O31 2.240 . S
Cd30 O38 2.223 . S
Cd30 O40 2.297 . S
Cd30 O41 2.439 . S
O31 Cd30 2.240 . S
O31 C36 1.279 . S
O32 Cd29 2.297 . S
O32 C34 1.247 . S
O33 Cd29 2.439 . S
O33 C34 1.208 . S
C34 O32 1.247 . S
C34 O33 1.208 . S
C35 O40 1.247 . S
C35 O41 1.208 . S
C36 O28 1.315 . S
C36 O31 1.279 . S
C37 O38 1.315 . S
C37 O39 1.279 . S
O38 Cd30 2.223 . S
O38 C37 1.315 . S
O39 Cd29 2.240 . S
O39 C37 1.279 . S
O40 Cd30 2.297 . S
O40 C35 1.247 . S
O41 Cd30 2.439 . S
O41 C35 1.208 . S
O42 Cd43 2.223 . S
O42 C50 1.315 . S
Cd43 O42 2.223 . S
Cd43 O46 2.297 . S
Cd43 O47 2.439 . S
Cd43 O53 2.240 . S
Cd44 O45 2.240 . S
Cd44 O52 2.223 . S
Cd44 O54 2.297 . S
Cd44 O55 2.439 . S
O45 Cd44 2.240 . S
O45 C50 1.279 . S
O46 Cd43 2.297 . S
O46 C48 1.247 . S
O47 Cd43 2.439 . S
O47 C48 1.208 . S
C48 O46 1.247 . S
C48 O47 1.208 . S
C49 O54 1.247 . S
C49 O55 1.208 . S
C50 O42 1.315 . S
C50 O45 1.279 . S
C51 O52 1.315 . S
C51 O53 1.279 . S
O52 Cd44 2.223 . S
O52 C51 1.315 . S
O53 Cd43 2.240 . S
O53 C51 1.279 . S
O54 Cd44 2.297 . S
O54 C49 1.247 . S
O55 Cd44 2.439 . S
O55 C49 1.208 . S
O56 Cd57 2.223 . S
O56 C64 1.315 . S
Cd57 O56 2.223 . S
Cd57 O60 2.297 . S
Cd57 O61 2.439 . S
Cd57 O67 2.240 . S
Cd58 O59 2.240 . S
Cd58 O66 2.223 . S
Cd58 O68 2.297 . S
Cd58 O69 2.439 . S
O59 Cd58 2.240 . S
O59 C64 1.279 . S
O60 Cd57 2.297 . S
O60 C62 1.247 . S
O61 Cd57 2.439 . S
O61 C62 1.208 . S
C62 O60 1.247 . S
C62 O61 1.208 . S
C63 O68 1.247 . S
C63 O69 1.208 . S
C64 O56 1.315 . S
C64 O59 1.279 . S
C65 O66 1.315 . S
C65 O67 1.279 . S
O66 Cd58 2.223 . S
O66 C65 1.315 . S
O67 Cd57 2.240 . S
O67 C65 1.279 . S
O68 Cd58 2.297 . S
O68 C63 1.247 . S
O69 Cd58 2.439 . S
O69 C63 1.208 . S
O70 Cd71 2.223 . S
O70 C78 1.315 . S
Cd71 O70 2.223 . S
Cd71 O74 2.297 . S
Cd71 O75 2.439 . S
Cd71 O81 2.240 . S
Cd72 O73 2.240 . S
Cd72 O80 2.223 . S
Cd72 O82 2.297 . S
Cd72 O83 2.439 . S
O73 Cd72 2.240 . S
O73 C78 1.279 . S
O74 Cd71 2.297 . S
O74 C76 1.247 . S
O75 Cd71 2.439 . S
O75 C76 1.208 . S
C76 O74 1.247 . S
C76 O75 1.208 . S
C77 O82 1.247 . S
C77 O83 1.208 . S
C78 O70 1.315 . S
C78 O73 1.279 . S
C79 O80 1.315 . S
C79 O81 1.279 . S
O80 Cd72 2.223 . S
O80 C79 1.315 . S
O81 Cd71 2.240 . S
O81 C79 1.279 . S
O82 Cd72 2.297 . S
O82 C77 1.247 . S
O83 Cd72 2.439 . S
O83 C77 1.208 . S
O84 Cd85 2.223 . S
O84 C92 1.315 . S
Cd85 O84 2.223 . S
Cd85 O88 2.297 . S
Cd85 O89 2.439 . S
Cd85 O95 2.240 . S
Cd86 O87 2.240 . S
Cd86 O94 2.223 . S
Cd86 O96 2.297 . S
Cd86 O97 2.439 . S
O87 Cd86 2.240 . S
O87 C92 1.279 . S
O88 Cd85 2.297 . S
O88 C90 1.247 . S
O89 Cd85 2.439 . S
O89 C90 1.208 . S
C90 O88 1.247 . S
C90 O89 1.208 . S
C91 O96 1.247 . S
C91 O97 1.208 . S
C92 O84 1.315 . S
C92 O87 1.279 . S
C93 O94 1.315 . S
C93 O95 1.279 . S
O94 Cd86 2.223 . S
O94 C93 1.315 . S
O95 Cd85 2.240 . S
O95 C93 1.279 . S
O96 Cd86 2.297 . S
O96 C91 1.247 . S
O97 Cd86 2.439 . S
O97 C91 1.208 . S
O98 Cd99 2.223 . S
O98 C106 1.315 . S
Cd99 O98 2.223 . S
Cd99 O102 2.297 . S
Cd99 O103 2.439 . S
Cd99 O109 2.240 . S
Cd100 O101 2.240 . S
Cd100 O108 2.223 . S
Cd100 O110 2.297 . S
Cd100 O111 2.439 . S
O101 Cd100 2.240 . S
O101 C106 1.279 . S
O102 Cd99 2.297 . S
O102 C104 1.247 . S
O103 Cd99 2.439 . S
O103 C104 1.208 . S
C104 O102 1.247 . S
C104 O103 1.208 . S
C105 O110 1.247 . S
C105 O111 1.208 . S
C106 O98 1.315 . S
C106 O101 1.279 . S
C107 O108 1.315 . S
C107 O109 1.279 . S
O108 Cd100 2.223 . S
O108 C107 1.315 . S
O109 Cd99 2.240 . S
O109 C107 1.279 . S
O110 Cd100 2.297 . S
O110 C105 1.247 . S
O111 Cd100 2.439 . S
O111 C105 1.208 . S
O112 Cd113 2.223 . S
O112 C120 1.315 . S
Cd113 O112 2.223 . S
Cd113 O116 2.297 . S
Cd113 O117 2.439 . S
Cd113 O123 2.240 . S
Cd114 O115 2.240 . S
Cd114 O122 2.223 . S
Cd114 O124 2.297 . S
Cd114 O125 2.439 . S
O115 Cd114 2.240 . S
O115 C120 1.279 . S
O116 Cd113 2.297 . S
O116 C118 1.247 . S
O117 Cd113 2.439 . S
O117 C118 1.208 . S
C118 O116 1.247 . S
C118 O117 1.208 . S
C119 O124 1.247 . S
C119 O125 1.208 . S
C120 O112 1.315 . S
C120 O115 1.279 . S
C121 O122 1.315 . S
C121 O123 1.279 . S
O122 Cd114 2.223 . S
O122 C121 1.315 . S
O123 Cd113 2.240 . S
O123 C121 1.279 . S
O124 Cd114 2.297 . S
O124 C119 1.247 . S
O125 Cd114 2.439 . S
O125 C119 1.208 . S
O126 Cd127 2.223 . S
O126 C134 1.315 . S
Cd127 O126 2.223 . S
Cd127 O130 2.297 . S
Cd127 O131 2.439 . S
Cd127 O137 2.240 . S
Cd128 O129 2.240 . S
Cd128 O136 2.223 . S
Cd128 O138 2.297 . S
Cd128 O139 2.439 . S
O129 Cd128 2.240 . S
O129 C134 1.279 . S
O130 Cd127 2.297 . S
O130 C132 1.247 . S
O131 Cd127 2.439 . S
O131 C132 1.208 . S
C132 O130 1.247 . S
C132 O131 1.208 . S
C133 O138 1.247 . S
C133 O139 1.208 . S
C134 O126 1.315 . S
C134 O129 1.279 . S
C135 O136 1.315 . S
C135 O137 1.279 . S
O136 Cd128 2.223 . S
O136 C135 1.315 . S
O137 Cd127 2.240 . S
O137 C135 1.279 . S
O138 Cd128 2.297 . S
O138 C133 1.247 . S
O139 Cd128 2.439 . S
O139 C133 1.208 . S
O140 Cd141 2.223 . S
O140 C148 1.315 . S
Cd141 O140 2.223 . S
Cd141 O144 2.297 . S
Cd141 O145 2.439 . S
Cd141 O151 2.240 . S
Cd142 O143 2.240 . S
Cd142 O150 2.223 . S
Cd142 O152 2.297 . S
Cd142 O153 2.439 . S
O143 Cd142 2.240 . S
O143 C148 1.279 . S
O144 Cd141 2.297 . S
O144 C146 1.247 . S
O145 Cd141 2.439 . S
O145 C146 1.208 . S
C146 O144 1.247 . S
C146 O145 1.208 . S
C147 O152 1.247 . S
C147 O153 1.208 . S
C148 O140 1.315 . S
C148 O143 1.279 . S
C149 O150 1.315 . S
C149 O151 1.279 . S
O150 Cd142 2.223 . S
O150 C149 1.315 . S
O151 Cd141 2.240 . S
O151 C149 1.279 . S
O152 Cd142 2.297 . S
O152 C147 1.247 . S
O153 Cd142 2.439 . S
O153 C147 1.208 . S
O154 Cd155 2.223 . S
O154 C162 1.315 . S
Cd155 O154 2.223 . S
Cd155 O158 2.297 . S
Cd155 O159 2.439 . S
Cd155 O165 2.240 . S
Cd156 O157 2.240 . S
Cd156 O164 2.223 . S
Cd156 O166 2.297 . S
Cd156 O167 2.439 . S
O157 Cd156 2.240 . S
O157 C162 1.279 . S
O158 Cd155 2.297 . S
O158 C160 1.247 . S
O159 Cd155 2.439 . S
O159 C160 1.208 . S
C160 O158 1.247 . S
C160 O159 1.208 . S
C161 O166 1.247 . S
C161 O167 1.208 . S
C162 O154 1.315 . S
C162 O157 1.279 . S
C163 O164 1.315 . S
C163 O165 1.279 . S
O164 Cd156 2.223 . S
O164 C163 1.315 . S
O165 Cd155 2.240 . S
O165 C163 1.279 . S
O166 Cd156 2.297 . S
O166 C161 1.247 . S
O167 Cd156 2.439 . S
O167 C161 1.208 . S
O168 Cd169 2.223 . S
O168 C176 1.315 . S
Cd169 O168 2.223 . S
Cd169 O172 2.297 . S
Cd169 O173 2.439 . S
Cd169 O179 2.240 . S
Cd170 O171 2.240 . S
Cd170 O178 2.223 . S
Cd170 O180 2.297 . S
Cd170 O181 2.439 . S
O171 Cd170 2.240 . S
O171 C176 1.279 . S
O172 Cd169 2.297 . S
O172 C174 1.247 . S
O173 Cd169 2.439 . S
O173 C174 1.208 . S
C174 O172 1.247 . S
C174 O173 1.208 . S
C175 O180 1.247 . S
C175 O181 1.208 . S
C176 O168 1.315 . S
C176 O171 1.279 . S
C177 O178 1.315 . S
C177 O179 1.279 . S
O178 Cd170 2.223 . S
O178 C177 1.315 . S
O179 Cd169 2.240 . S
O179 C177 1.279 . S
O180 Cd170 2.297 . S
O180 C175 1.247 . S
O181 Cd170 2.439 . S
O181 C175 1.208 . S
O182 Cd183 2.223 . S
O182 C190 1.315 . S
Cd183 O182 2.223 . S
Cd183 O186 2.297 . S
Cd183 O187 2.439 . S
Cd183 O193 2.240 . S
Cd184 O185 2.240 . S
Cd184 O192 2.223 . S
Cd184 O194 2.297 . S
Cd184 O195 2.439 . S
O185 Cd184 2.240 . S
O185 C190 1.279 . S
O186 Cd183 2.297 . S
O186 C188 1.247 . S
O187 Cd183 2.439 . S
O187 C188 1.208 . S
C188 O186 1.247 . S
C188 O187 1.208 . S
C189 O194 1.247 . S
C189 O195 1.208 . S
C190 O182 1.315 . S
C190 O185 1.279 . S
C191 O192 1.315 . S
C191 O193 1.279 . S
O192 Cd184 2.223 . S
O192 C191 1.315 . S
O193 Cd183 2.240 . S
O193 C191 1.279 . S
O194 Cd184 2.297 . S
O194 C189 1.247 . S
O195 Cd184 2.439 . S
O195 C189 1.208 . S
O196 Cd197 2.223 . S
O196 C204 1.315 . S
Cd197 O196 2.223 . S
Cd197 O200 2.297 . S
Cd197 O201 2.439 . S
Cd197 O207 2.240 . S
Cd198 O199 2.240 . S
Cd198 O206 2.223 . S
Cd198 O208 2.297 . S
Cd198 O209 2.439 . S
O199 Cd198 2.240 . S
O199 C204 1.279 . S
O200 Cd197 2.297 . S
O200 C202 1.247 . S
O201 Cd197 2.439 . S
O201 C202 1.208 . S
C202 O200 1.247 . S
C202 O201 1.208 . S
C203 O208 1.247 . S
C203 O209 1.208 . S
C204 O196 1.315 . S
C204 O199 1.279 . S
C205 O206 1.315 . S
C205 O207 1.279 . S
O206 Cd198 2.223 . S
O206 C205 1.315 . S
O207 Cd197 2.240 . S
O207 C205 1.279 . S
O208 Cd198 2.297 . S
O208 C203 1.247 . S
O209 Cd198 2.439 . S
O209 C203 1.208 . S
O210 Cd211 2.223 . S
O210 C218 1.315 . S
Cd211 O210 2.223 . S
Cd211 O214 2.297 . S
Cd211 O215 2.439 . S
Cd211 O221 2.240 . S
Cd212 O213 2.240 . S
Cd212 O220 2.223 . S
Cd212 O222 2.297 . S
Cd212 O223 2.439 . S
O213 Cd212 2.240 . S
O213 C218 1.279 . S
O214 Cd211 2.297 . S
O214 C216 1.247 . S
O215 Cd211 2.439 . S
O215 C216 1.208 . S
C216 O214 1.247 . S
C216 O215 1.208 . S
C217 O222 1.247 . S
C217 O223 1.208 . S
C218 O210 1.315 . S
C218 O213 1.279 . S
C219 O220 1.315 . S
C219 O221 1.279 . S
O220 Cd212 2.223 . S
O220 C219 1.315 . S
O221 Cd211 2.240 . S
O221 C219 1.279 . S
O222 Cd212 2.297 . S
O222 C217 1.247 . S
O223 Cd212 2.439 . S
O223 C217 1.208 . S
O224 Cd225 2.223 . S
O224 C232 1.315 . S
Cd225 O224 2.223 . S
Cd225 O228 2.297 . S
Cd225 O229 2.439 . S
Cd225 O235 2.240 . S
Cd226 O227 2.240 . S
Cd226 O234 2.223 . S
Cd226 O236 2.297 . S
Cd226 O237 2.439 . S
O227 Cd226 2.240 . S
O227 C232 1.279 . S
O228 Cd225 2.297 . S
O228 C230 1.247 . S
O229 Cd225 2.439 . S
O229 C230 1.208 . S
C230 O228 1.247 . S
C230 O229 1.208 . S
C231 O236 1.247 . S
C231 O237 1.208 . S
C232 O224 1.315 . S
C232 O227 1.279 . S
C233 O234 1.315 . S
C233 O235 1.279 . S
O234 Cd226 2.223 . S
O234 C233 1.315 . S
O235 Cd225 2.240 . S
O235 C233 1.279 . S
O236 Cd226 2.297 . S
O236 C231 1.247 . S
O237 Cd226 2.439 . S
O237 C231 1.208 . S
O238 Cd239 2.223 . S
O238 C246 1.315 . S
Cd239 O238 2.223 . S
Cd239 O242 2.297 . S
Cd239 O243 2.439 . S
Cd239 O249 2.240 . S
Cd240 O241 2.240 . S
Cd240 O248 2.223 . S
Cd240 O250 2.297 . S
Cd240 O251 2.439 . S
O241 Cd240 2.240 . S
O241 C246 1.279 . S
O242 Cd239 2.297 . S
O242 C244 1.247 . S
O243 Cd239 2.439 . S
O243 C244 1.208 . S
C244 O242 1.247 . S
C244 O243 1.208 . S
C245 O250 1.247 . S
C245 O251 1.208 . S
C246 O238 1.315 . S
C246 O241 1.279 . S
C247 O248 1.315 . S
C247 O249 1.279 . S
O248 Cd240 2.223 . S
O248 C247 1.315 . S
O249 Cd239 2.240 . S
O249 C247 1.279 . S
O250 Cd240 2.297 . S
O250 C245 1.247 . S
O251 Cd240 2.439 . S
O251 C245 1.208 . S
O252 Cd253 2.223 . S
O252 C260 1.315 . S
Cd253 O252 2.223 . S
Cd253 O256 2.297 . S
Cd253 O257 2.439 . S
Cd253 O263 2.240 . S
Cd254 O255 2.240 . S
Cd254 O262 2.223 . S
Cd254 O264 2.297 . S
Cd254 O265 2.439 . S
O255 Cd254 2.240 . S
O255 C260 1.279 . S
O256 Cd253 2.297 . S
O256 C258 1.247 . S
O257 Cd253 2.439 . S
O257 C258 1.208 . S
C258 O256 1.247 . S
C258 O257 1.208 . S
C259 O264 1.247 . S
C259 O265 1.208 . S
C260 O252 1.315 . S
C260 O255 1.279 . S
C261 O262 1.315 . S
C261 O263 1.279 . S
O262 Cd254 2.223 . S
O262 C261 1.315 . S
O263 Cd253 2.240 . S
O263 C261 1.279 . S
O264 Cd254 2.297 . S
O264 C259 1.247 . S
O265 Cd254 2.439 . S
O265 C259 1.208 . S
O266 Cd267 2.223 . S
O266 C274 1.315 . S
Cd267 O266 2.223 . S
Cd267 O270 2.297 . S
Cd267 O271 2.439 . S
Cd267 O277 2.240 . S
Cd268 O269 2.240 . S
Cd268 O276 2.223 . S
Cd268 O278 2.297 . S
Cd268 O279 2.439 . S
O269 Cd268 2.240 . S
O269 C274 1.279 . S
O270 Cd267 2.297 . S
O270 C272 1.247 . S
O271 Cd267 2.439 . S
O271 C272 1.208 . S
C272 O270 1.247 . S
C272 O271 1.208 . S
C273 O278 1.247 . S
C273 O279 1.208 . S
C274 O266 1.315 . S
C274 O269 1.279 . S
C275 O276 1.315 . S
C275 O277 1.279 . S
O276 Cd268 2.223 . S
O276 C275 1.315 . S
O277 Cd267 2.240 . S
O277 C275 1.279 . S
O278 Cd268 2.297 . S
O278 C273 1.247 . S
O279 Cd268 2.439 . S
O279 C273 1.208 . S
O280 Cd281 2.223 . S
O280 C288 1.315 . S
Cd281 O280 2.223 . S
Cd281 O284 2.297 . S
Cd281 O285 2.439 . S
Cd281 O291 2.240 . S
Cd282 O283 2.240 . S
Cd282 O290 2.223 . S
Cd282 O292 2.297 . S
Cd282 O293 2.439 . S
O283 Cd282 2.240 . S
O283 C288 1.279 . S
O284 Cd281 2.297 . S
O284 C286 1.247 . S
O285 Cd281 2.439 . S
O285 C286 1.208 . S
C286 O284 1.247 . S
C286 O285 1.208 . S
C287 O292 1.247 . S
C287 O293 1.208 . S
C288 O280 1.315 . S
C288 O283 1.279 . S
C289 O290 1.315 . S
C289 O291 1.279 . S
O290 Cd282 2.223 . S
O290 C289 1.315 . S
O291 Cd281 2.240 . S
O291 C289 1.279 . S
O292 Cd282 2.297 . S
O292 C287 1.247 . S
O293 Cd282 2.439 . S
O293 C287 1.208 . S
O294 Cd295 2.223 . S
O294 C302 1.315 . S
Cd295 O294 2.223 . S
Cd295 O298 2.297 . S
Cd295 O299 2.439 . S
Cd295 O305 2.240 . S
Cd296 O297 2.240 . S
Cd296 O304 2.223 . S
Cd296 O306 2.297 . S
Cd296 O307 2.439 . S
O297 Cd296 2.240 . S
O297 C302 1.279 . S
O298 Cd295 2.297 . S
O298 C300 1.247 . S
O299 Cd295 2.439 . S
O299 C300 1.208 . S
C300 O298 1.247 . S
C300 O299 1.208 . S
C301 O306 1.247 . S
C301 O307 1.208 . S
C302 O294 1.315 . S
C302 O297 1.279 . S
C303 O304 1.315 . S
C303 O305 1.279 . S
O304 Cd296 2.223 . S
O304 C303 1.315 . S
O305 Cd295 2.240 . S
O305 C303 1.279 . S
O306 Cd296 2.297 . S
O306 C301 1.247 . S
O307 Cd296 2.439 . S
O307 C301 1.208 . S
O308 Cd309 2.223 . S
O308 C316 1.315 . S
Cd309 O308 2.223 . S
Cd309 O312 2.297 . S
Cd309 O313 2.439 . S
Cd309 O319 2.240 . S
Cd310 O311 2.240 . S
Cd310 O318 2.223 . S
Cd310 O320 2.297 . S
Cd310 O321 2.439 . S
O311 Cd310 2.240 . S
O311 C316 1.279 . S
O312 Cd309 2.297 . S
O312 C314 1.247 . S
O313 Cd309 2.439 . S
O313 C314 1.208 . S
C314 O312 1.247 . S
C314 O313 1.208 . S
C315 O320 1.247 . S
C315 O321 1.208 . S
C316 O308 1.315 . S
C316 O311 1.279 . S
C317 O318 1.315 . S
C317 O319 1.279 . S
O318 Cd310 2.223 . S
O318 C317 1.315 . S
O319 Cd309 2.240 . S
O319 C317 1.279 . S
O320 Cd310 2.297 . S
O320 C315 1.247 . S
O321 Cd310 2.439 . S
O321 C315 1.208 . S
O322 Cd323 2.223 . S
O322 C330 1.315 . S
Cd323 O322 2.223 . S
Cd323 O326 2.297 . S
Cd323 O327 2.439 . S
Cd323 O333 2.240 . S
Cd324 O325 2.240 . S
Cd324 O332 2.223 . S
Cd324 O334 2.297 . S
Cd324 O335 2.439 . S
O325 Cd324 2.240 . S
O325 C330 1.279 . S
O326 Cd323 2.297 . S
O326 C328 1.247 . S
O327 Cd323 2.439 . S
O327 C328 1.208 . S
C328 O326 1.247 . S
C328 O327 1.208 . S
C329 O334 1.247 . S
C329 O335 1.208 . S
C330 O322 1.315 . S
C330 O325 1.279 . S
C331 O332 1.315 . S
C331 O333 1.279 . S
O332 Cd324 2.223 . S
O332 C331 1.315 . S
O333 Cd323 2.240 . S
O333 C331 1.279 . S
O334 Cd324 2.297 . S
O334 C329 1.247 . S
O335 Cd324 2.439 . S
O335 C329 1.208 . S
O336 Cd337 2.223 . S
O336 C344 1.315 . S
Cd337 O336 2.223 . S
Cd337 O340 2.297 . S
Cd337 O341 2.439 . S
Cd337 O347 2.240 . S
Cd338 O339 2.240 . S
Cd338 O346 2.223 . S
Cd338 O348 2.297 . S
Cd338 O349 2.439 . S
O339 Cd338 2.240 . S
O339 C344 1.279 . S
O340 Cd337 2.297 . S
O340 C342 1.247 . S
O341 Cd337 2.439 . S
O341 C342 1.208 . S
C342 O340 1.247 . S
C342 O341 1.208 . S
C343 O348 1.247 . S
C343 O349 1.208 . S
C344 O336 1.315 . S
C344 O339 1.279 . S
C345 O346 1.315 . S
C345 O347 1.279 . S
O346 Cd338 2.223 . S
O346 C345 1.315 . S
O347 Cd337 2.240 . S
O347 C345 1.279 . S
O348 Cd338 2.297 . S
O348 C343 1.247 . S
O349 Cd338 2.439 . S
O349 C343 1.208 . S
O350 Cd351 2.223 . S
O350 C358 1.315 . S
Cd351 O350 2.223 . S
Cd351 O354 2.297 . S
Cd351 O355 2.439 . S
Cd351 O361 2.240 . S
Cd352 O353 2.240 . S
Cd352 O360 2.223 . S
Cd352 O362 2.297 . S
Cd352 O363 2.439 . S
O353 Cd352 2.240 . S
O353 C358 1.279 . S
O354 Cd351 2.297 . S
O354 C356 1.247 . S
O355 Cd351 2.439 . S
O355 C356 1.208 . S
C356 O354 1.247 . S
C356 O355 1.208 . S
C357 O362 1.247 . S
C357 O363 1.208 . S
C358 O350 1.315 . S
C358 O353 1.279 . S
C359 O360 1.315 . S
C359 O361 1.279 . S
O360 Cd352 2.223 . S
O360 C359 1.315 . S
O361 Cd351 2.240 . S
O361 C359 1.279 . S
O362 Cd352 2.297 . S
O362 C357 1.247 . S
O363 Cd352 2.439 . S
O363 C357 1.208 . S
O364 Cd365 2.223 . S
O364 C372 1.315 . S
Cd365 O364 2.223 . S
Cd365 O368 2.297 . S
Cd365 O369 2.439 . S
Cd365 O375 2.240 . S
Cd366 O367 2.240 . S
Cd366 O374 2.223 . S
Cd366 O376 2.297 . S
Cd366 O377 2.439 . S
O367 Cd366 2.240 . S
O367 C372 1.279 . S
O368 Cd365 2.297 . S
O368 C370 1.247 . S
O369 Cd365 2.439 . S
O369 C370 1.208 . S
C370 O368 1.247 . S
C370 O369 1.208 . S
C371 O376 1.247 . S
C371 O377 1.208 . S
C372 O364 1.315 . S
C372 O367 1.279 . S
C373 O374 1.315 . S
C373 O375 1.279 . S
O374 Cd366 2.223 . S
O374 C373 1.315 . S
O375 Cd365 2.240 . S
O375 C373 1.279 . S
O376 Cd366 2.297 . S
O376 C371 1.247 . S
O377 Cd366 2.439 . S
O377 C371 1.208 . S
O378 Cd379 2.223 . S
O378 C386 1.315 . S
Cd379 O378 2.223 . S
Cd379 O382 2.297 . S
Cd379 O383 2.439 . S
Cd379 O389 2.240 . S
Cd380 O381 2.240 . S
Cd380 O388 2.223 . S
Cd380 O390 2.297 . S
Cd380 O391 2.439 . S
O381 Cd380 2.240 . S
O381 C386 1.279 . S
O382 Cd379 2.297 . S
O382 C384 1.247 . S
O383 Cd379 2.439 . S
O383 C384 1.208 . S
C384 O382 1.247 . S
C384 O383 1.208 . S
C385 O390 1.247 . S
C385 O391 1.208 . S
C386 O378 1.315 . S
C386 O381 1.279 . S
C387 O388 1.315 . S
C387 O389 1.279 . S
O388 Cd380 2.223 . S
O388 C387 1.315 . S
O389 Cd379 2.240 . S
O389 C387 1.279 . S
O390 Cd380 2.297 . S
O390 C385 1.247 . S
O391 Cd380 2.439 . S
O391 C385 1.208 . S
O392 Cd393 2.223 . S
O392 C400 1.315 . S
Cd393 O392 2.223 . S
Cd393 O396 2.297 . S
Cd393 O397 2.439 . S
Cd393 O403 2.240 . S
Cd394 O395 2.240 . S
Cd394 O402 2.223 . S
Cd394 O404 2.297 . S
Cd394 O405 2.439 . S
O395 Cd394 2.240 . S
O395 C400 1.279 . S
O396 Cd393 2.297 . S
O396 C398 1.247 . S
O397 Cd393 2.439 . S
O397 C398 1.208 . S
C398 O396 1.247 . S
C398 O397 1.208 . S
C399 O404 1.247 . S
C399 O405 1.208 . S
C400 O392 1.315 . S
C400 O395 1.279 . S
C401 O402 1.315 . S
C401 O403 1.279 . S
O402 Cd394 2.223 . S
O402 C401 1.315 . S
O403 Cd393 2.240 . S
O403 C401 1.279 . S
O404 Cd394 2.297 . S
O404 C399 1.247 . S
O405 Cd394 2.439 . S
O405 C399 1.208 . S
O406 Cd407 2.223 . S
O406 C414 1.315 . S
Cd407 O406 2.223 . S
Cd407 O410 2.297 . S
Cd407 O411 2.439 . S
Cd407 O417 2.240 . S
Cd408 O409 2.240 . S
Cd408 O416 2.223 . S
Cd408 O418 2.297 . S
Cd408 O419 2.439 . S
O409 Cd408 2.240 . S
O409 C414 1.279 . S
O410 Cd407 2.297 . S
O410 C412 1.247 . S
O411 Cd407 2.439 . S
O411 C412 1.208 . S
C412 O410 1.247 . S
C412 O411 1.208 . S
C413 O418 1.247 . S
C413 O419 1.208 . S
C414 O406 1.315 . S
C414 O409 1.279 . S
C415 O416 1.315 . S
C415 O417 1.279 . S
O416 Cd408 2.223 . S
O416 C415 1.315 . S
O417 Cd407 2.240 . S
O417 C415 1.279 . S
O418 Cd408 2.297 . S
O418 C413 1.247 . S
O419 Cd408 2.439 . S
O419 C413 1.208 . S
O420 Cd421 2.223 . S
O420 C428 1.315 . S
Cd421 O420 2.223 . S
Cd421 O424 2.297 . S
Cd421 O425 2.439 . S
Cd421 O431 2.240 . S
Cd422 O423 2.240 . S
Cd422 O430 2.223 . S
Cd422 O432 2.297 . S
Cd422 O433 2.439 . S
O423 Cd422 2.240 . S
O423 C428 1.279 . S
O424 Cd421 2.297 . S
O424 C426 1.247 . S
O425 Cd421 2.439 . S
O425 C426 1.208 . S
C426 O424 1.247 . S
C426 O425 1.208 . S
C427 O432 1.247 . S
C427 O433 1.208 . S
C428 O420 1.315 . S
C428 O423 1.279 . S
C429 O430 1.315 . S
C429 O431 1.279 . S
O430 Cd422 2.223 . S
O430 C429 1.315 . S
O431 Cd421 2.240 . S
O431 C429 1.279 . S
O432 Cd422 2.297 . S
O432 C427 1.247 . S
O433 Cd422 2.439 . S
O433 C427 1.208 . S
O434 Cd435 2.223 . S
O434 C442 1.315 . S
Cd435 O434 2.223 . S
Cd435 O438 2.297 . S
Cd435 O439 2.439 . S
Cd435 O445 2.240 . S
Cd436 O437 2.240 . S
Cd436 O444 2.223 . S
Cd436 O446 2.297 . S
Cd436 O447 2.439 . S
O437 Cd436 2.240 . S
O437 C442 1.279 . S
O438 Cd435 2.297 . S
O438 C440 1.247 . S
O439 Cd435 2.439 . S
O439 C440 1.208 . S
C440 O438 1.247 . S
C440 O439 1.208 . S
C441 O446 1.247 . S
C441 O447 1.208 . S
C442 O434 1.315 . S
C442 O437 1.279 . S
C443 O444 1.315 . S
C443 O445 1.279 . S
O444 Cd436 2.223 . S
O444 C443 1.315 . S
O445 Cd435 2.240 . S
O445 C443 1.279 . S
O446 Cd436 2.297 . S
O446 C441 1.247 . S
O447 Cd436 2.439 . S
O447 C441 1.208 . S
O448 Cd449 2.223 . S
O448 C456 1.315 . S
Cd449 O448 2.223 . S
Cd449 O452 2.297 . S
Cd449 O453 2.439 . S
Cd449 O459 2.240 . S
Cd450 O451 2.240 . S
Cd450 O458 2.223 . S
Cd450 O460 2.297 . S
Cd450 O461 2.439 . S
O451 Cd450 2.240 . S
O451 C456 1.279 . S
O452 Cd449 2.297 . S
O452 C454 1.247 . S
O453 Cd449 2.439 . S
O453 C454 1.208 . S
C454 O452 1.247 . S
C454 O453 1.208 . S
C455 O460 1.247 . S
C455 O461 1.208 . S
C456 O448 1.315 . S
C456 O451 1.279 . S
C457 O458 1.315 . S
C457 O459 1.279 . S
O458 Cd450 2.223 . S
O458 C457 1.315 . S
O459 Cd449 2.240 . S
O459 C457 1.279 . S
O460 Cd450 2.297 . S
O460 C455 1.247 . S
O461 Cd450 2.439 . S
O461 C455 1.208 . S
O462 Cd463 2.223 . S
O462 C470 1.315 . S
Cd463 O462 2.223 . S
Cd463 O466 2.297 . S
Cd463 O467 2.439 . S
Cd463 O473 2.240 . S
Cd464 O465 2.240 . S
Cd464 O472 2.223 . S
Cd464 O474 2.297 . S
Cd464 O475 2.439 . S
O465 Cd464 2.240 . S
O465 C470 1.279 . S
O466 Cd463 2.297 . S
O466 C468 1.247 . S
O467 Cd463 2.439 . S
O467 C468 1.208 . S
C468 O466 1.247 . S
C468 O467 1.208 . S
C469 O474 1.247 . S
C469 O475 1.208 . S
C470 O462 1.315 . S
C470 O465 1.279 . S
C471 O472 1.315 . S
C471 O473 1.279 . S
O472 Cd464 2.223 . S
O472 C471 1.315 . S
O473 Cd463 2.240 . S
O473 C471 1.279 . S
O474 Cd464 2.297 . S
O474 C469 1.247 . S
O475 Cd464 2.439 . S
O475 C469 1.208 . S
O476 Cd477 2.223 . S
O476 C484 1.315 . S
Cd477 O476 2.223 . S
Cd477 O480 2.297 . S
Cd477 O481 2.439 . S
Cd477 O487 2.240 . S
Cd478 O479 2.240 . S
Cd478 O486 2.223 . S
Cd478 O488 2.297 . S
Cd478 O489 2.439 . S
O479 Cd478 2.240 . S
O479 C484 1.279 . S
O480 Cd477 2.297 . S
O480 C482 1.247 . S
O481 Cd477 2.439 . S
O481 C482 1.208 . S
C482 O480 1.247 . S
C482 O481 1.208 . S
C483 O488 1.247 . S
C483 O489 1.208 . S
C484 O476 1.315 . S
C484 O479 1.279 . S
C485 O486 1.315 . S
C485 O487 1.279 . S
O486 Cd478 2.223 . S
O486 C485 1.315 . S
O487 Cd477 2.240 . S
O487 C485 1.279 . S
O488 Cd478 2.297 . S
O488 C483 1.247 . S
O489 Cd478 2.439 . S
O489 C483 1.208 . S
O490 Cd491 2.223 . S
O490 C498 1.315 . S
Cd491 O490 2.223 . S
Cd491 O494 2.297 . S
Cd491 O495 2.439 . S
Cd491 O501 2.240 . S
Cd492 O493 2.240 . S
Cd492 O500 2.223 . S
Cd492 O502 2.297 . S
Cd492 O503 2.439 . S
O493 Cd492 2.240 . S
O493 C498 1.279 . S
O494 Cd491 2.297 . S
O494 C496 1.247 . S
O495 Cd491 2.439 . S
O495 C496 1.208 . S
C496 O494 1.247 . S
C496 O495 1.208 . S
C497 O502 1.247 . S
C497 O503 1.208 . S
C498 O490 1.315 . S
C498 O493 1.279 . S
C499 O500 1.315 . S
C499 O501 1.279 . S
O500 Cd492 2.223 . S
O500 C499 1.315 . S
O501 Cd491 2.240 . S
O501 C499 1.279 . S
O502 Cd492 2.297 . S
O502 C497 1.247 . S
O503 Cd492 2.439 . S
O503 C497 1.208 . S
C504 C505 1.349 . S
C504 C506 1.327 . S
C504 H529 0.950 . S
C505 C504 1.349 . S
C505 C521 1.349 . S
C506 C504 1.327 . S
C506 C525 1.429 . S
C506 H530 0.950 . S
C507 C524 1.574 1_565 S
C507 C526 1.368 . S
C507 H531 0.949 . S
H508 C512 0.949 . S
C509 C510 1.349 . S
C509 C511 1.327 . S
C509 H532 0.950 . S
C510 C509 1.349 . S
C510 C522 1.349 . S
C511 C509 1.327 . S
C511 C527 1.429 . S
C511 H533 0.950 . S
C512 H508 0.949 . S
C512 C520 1.574 1_545 S
C512 C528 1.368 . S
H513 C521 0.950 . S
H514 C519 0.950 . S
H515 C520 0.949 . S
H516 C522 0.950 . S
H517 C523 0.950 . S
H518 C524 0.949 . S
C519 H514 0.950 . S
C519 C521 1.327 . S
C519 C525 1.429 . S
C520 C512 1.574 1_565 S
C520 H515 0.949 . S
C520 C526 1.368 . S
C521 C505 1.349 . S
C521 H513 0.950 . S
C521 C519 1.327 . S
C522 C510 1.349 . S
C522 H516 0.950 . S
C522 C523 1.327 . S
C523 H517 0.950 . S
C523 C522 1.327 . S
C523 C527 1.429 . S
C524 C507 1.574 1_545 S
C524 H518 0.949 . S
C524 C528 1.368 . S
C525 C506 1.429 . S
C525 C519 1.429 . S
C525 C526 1.523 . S
C526 C507 1.368 . S
C526 C520 1.368 . S
C526 C525 1.523 . S
C527 C511 1.429 . S
C527 C523 1.429 . S
C527 C528 1.523 . S
C528 C512 1.368 . S
C528 C524 1.368 . S
C528 C527 1.523 . S
H529 C504 0.950 . S
H530 C506 0.950 . S
H531 C507 0.949 . S
H532 C509 0.950 . S
H533 C511 0.950 . S
C534 C535 1.349 . S
C534 C536 1.327 . S
C534 H559 0.950 . S
C535 C534 1.349 . S
C535 C551 1.349 . S
C536 C534 1.327 . S
C536 C555 1.429 . S
C536 H560 0.950 . S
C537 C554 1.574 1_455 S
C537 C556 1.368 . S
C537 H561 0.949 . S
H538 C542 0.949 . S
C539 C540 1.349 . S
C539 C541 1.327 . S
C539 H562 0.950 . S
C540 C539 1.349 . S
C540 C552 1.349 . S
C541 C539 1.327 . S
C541 C557 1.429 . S
C541 H563 0.950 . S
C542 H538 0.949 . S
C542 C550 1.574 1_655 S
C542 C558 1.368 . S
H543 C551 0.950 . S
H544 C549 0.950 . S
H545 C550 0.949 . S
H546 C552 0.950 . S
H547 C553 0.950 . S
H548 C554 0.949 . S
C549 H544 0.950 . S
C549 C551 1.327 . S
C549 C555 1.429 . S
C550 C542 1.574 1_455 S
C550 H545 0.949 . S
C550 C556 1.368 . S
C551 C535 1.349 . S
C551 H543 0.950 . S
C551 C549 1.327 . S
C552 C540 1.349 . S
C552 H546 0.950 . S
C552 C553 1.327 . S
C553 H547 0.950 . S
C553 C552 1.327 . S
C553 C557 1.429 . S
C554 C537 1.574 1_655 S
C554 H548 0.949 . S
C554 C558 1.368 . S
C555 C536 1.429 . S
C555 C549 1.429 . S
C555 C556 1.523 . S
C556 C537 1.368 . S
C556 C550 1.368 . S
C556 C555 1.523 . S
C557 C541 1.429 . S
C557 C553 1.429 . S
C557 C558 1.523 . S
C558 C542 1.368 . S
C558 C554 1.368 . S
C558 C557 1.523 . S
H559 C534 0.950 . S
H560 C536 0.950 . S
H561 C537 0.949 . S
H562 C539 0.950 . S
H563 C541 0.950 . S
C564 C565 1.349 . S
C564 C566 1.327 . S
C564 H589 0.950 . S
C565 C564 1.349 . S
C565 C581 1.349 . S
C566 C564 1.327 . S
C566 C585 1.429 . S
C566 H590 0.950 . S
C567 C584 1.574 . S
C567 C586 1.368 . S
C567 H591 0.949 . S
H568 C572 0.949 . S
C569 C570 1.349 . S
C569 C571 1.327 . S
C569 H592 0.950 . S
C570 C569 1.349 . S
C570 C582 1.349 . S
C571 C569 1.327 . S
C571 C587 1.429 . S
C571 H593 0.950 . S
C572 H568 0.949 . S
C572 C580 1.574 . S
C572 C588 1.368 . S
H573 C581 0.950 . S
H574 C579 0.950 . S
H575 C580 0.949 . S
H576 C582 0.950 . S
H577 C583 0.950 . S
H578 C584 0.949 . S
C579 H574 0.950 . S
C579 C581 1.327 . S
C579 C585 1.429 . S
C580 C572 1.574 . S
C580 H575 0.949 . S
C580 C586 1.368 . S
C581 C565 1.349 . S
C581 H573 0.950 . S
C581 C579 1.327 . S
C582 C570 1.349 . S
C582 H576 0.950 . S
C582 C583 1.327 . S
C583 H577 0.950 . S
C583 C582 1.327 . S
C583 C587 1.429 . S
C584 C567 1.574 . S
C584 H578 0.949 . S
C584 C588 1.368 . S
C585 C566 1.429 . S
C585 C579 1.429 . S
C585 C586 1.523 . S
C586 C567 1.368 . S
C586 C580 1.368 . S
C586 C585 1.523 . S
C587 C571 1.429 . S
C587 C583 1.429 . S
C587 C588 1.523 . S
C588 C572 1.368 . S
C588 C584 1.368 . S
C588 C587 1.523 . S
H589 C564 0.950 . S
H590 C566 0.950 . S
H591 C567 0.949 . S
H592 C569 0.950 . S
H593 C571 0.950 . S
C594 C595 1.349 . S
C594 C596 1.327 . S
C594 H619 0.950 . S
C595 C594 1.349 . S
C595 C611 1.349 . S
C596 C594 1.327 . S
C596 C615 1.429 . S
C596 H620 0.950 . S
C597 C614 1.574 1_565 S
C597 C616 1.368 . S
C597 H621 0.949 . S
H598 C602 0.949 . S
C599 C600 1.349 . S
C599 C601 1.327 . S
C599 H622 0.950 . S
C600 C599 1.349 . S
C600 C612 1.349 . S
C601 C599 1.327 . S
C601 C617 1.429 . S
C601 H623 0.950 . S
C602 H598 0.949 . S
C602 C610 1.574 1_545 S
C602 C618 1.368 . S
H603 C611 0.950 . S
H604 C609 0.950 . S
H605 C610 0.949 . S
H606 C612 0.950 . S
H607 C613 0.950 . S
H608 C614 0.949 . S
C609 H604 0.950 . S
C609 C611 1.327 . S
C609 C615 1.429 . S
C610 C602 1.574 1_565 S
C610 H605 0.949 . S
C610 C616 1.368 . S
C611 C595 1.349 . S
C611 H603 0.950 . S
C611 C609 1.327 . S
C612 C600 1.349 . S
C612 H606 0.950 . S
C612 C613 1.327 . S
C613 H607 0.950 . S
C613 C612 1.327 . S
C613 C617 1.429 . S
C614 C597 1.574 1_545 S
C614 H608 0.949 . S
C614 C618 1.368 . S
C615 C596 1.429 . S
C615 C609 1.429 . S
C615 C616 1.523 . S
C616 C597 1.368 . S
C616 C610 1.368 . S
C616 C615 1.523 . S
C617 C601 1.429 . S
C617 C613 1.429 . S
C617 C618 1.523 . S
C618 C602 1.368 . S
C618 C614 1.368 . S
C618 C617 1.523 . S
H619 C594 0.950 . S
H620 C596 0.950 . S
H621 C597 0.949 . S
H622 C599 0.950 . S
H623 C601 0.950 . S
C624 C625 1.349 . S
C624 C626 1.327 . S
C624 H649 0.950 . S
C625 C624 1.349 . S
C625 C641 1.349 . S
C626 C624 1.327 . S
C626 C645 1.429 . S
C626 H650 0.950 . S
C627 C644 1.574 1_455 S
C627 C646 1.368 . S
C627 H651 0.949 . S
H628 C632 0.949 . S
C629 C630 1.349 . S
C629 C631 1.327 . S
C629 H652 0.950 . S
C630 C629 1.349 . S
C630 C642 1.349 . S
C631 C629 1.327 . S
C631 C647 1.429 . S
C631 H653 0.950 . S
C632 H628 0.949 . S
C632 C640 1.574 1_655 S
C632 C648 1.368 . S
H633 C641 0.950 . S
H634 C639 0.950 . S
H635 C640 0.949 . S
H636 C642 0.950 . S
H637 C643 0.950 . S
H638 C644 0.949 . S
C639 H634 0.950 . S
C639 C641 1.327 . S
C639 C645 1.429 . S
C640 C632 1.574 1_455 S
C640 H635 0.949 . S
C640 C646 1.368 . S
C641 C625 1.349 . S
C641 H633 0.950 . S
C641 C639 1.327 . S
C642 C630 1.349 . S
C642 H636 0.950 . S
C642 C643 1.327 . S
C643 H637 0.950 . S
C643 C642 1.327 . S
C643 C647 1.429 . S
C644 C627 1.574 1_655 S
C644 H638 0.949 . S
C644 C648 1.368 . S
C645 C626 1.429 . S
C645 C639 1.429 . S
C645 C646 1.523 . S
C646 C627 1.368 . S
C646 C640 1.368 . S
C646 C645 1.523 . S
C647 C631 1.429 . S
C647 C643 1.429 . S
C647 C648 1.523 . S
C648 C632 1.368 . S
C648 C644 1.368 . S
C648 C647 1.523 . S
H649 C624 0.950 . S
H650 C626 0.950 . S
H651 C627 0.949 . S
H652 C629 0.950 . S
H653 C631 0.950 . S
C654 C655 1.349 . S
C654 C656 1.327 . S
C654 H679 0.950 . S
C655 C654 1.349 . S
C655 C671 1.349 . S
C656 C654 1.327 . S
C656 C675 1.429 . S
C656 H680 0.950 . S
C657 C674 1.574 . S
C657 C676 1.368 . S
C657 H681 0.949 . S
H658 C662 0.949 . S
C659 C660 1.349 . S
C659 C661 1.327 . S
C659 H682 0.950 . S
C660 C659 1.349 . S
C660 C672 1.349 . S
C661 C659 1.327 . S
C661 C677 1.429 . S
C661 H683 0.950 . S
C662 H658 0.949 . S
C662 C670 1.574 . S
C662 C678 1.368 . S
H663 C671 0.950 . S
H664 C669 0.950 . S
H665 C670 0.949 . S
H666 C672 0.950 . S
H667 C673 0.950 . S
H668 C674 0.949 . S
C669 H664 0.950 . S
C669 C671 1.327 . S
C669 C675 1.429 . S
C670 C662 1.574 . S
C670 H665 0.949 . S
C670 C676 1.368 . S
C671 C655 1.349 . S
C671 H663 0.950 . S
C671 C669 1.327 . S
C672 C660 1.349 . S
C672 H666 0.950 . S
C672 C673 1.327 . S
C673 H667 0.950 . S
C673 C672 1.327 . S
C673 C677 1.429 . S
C674 C657 1.574 . S
C674 H668 0.949 . S
C674 C678 1.368 . S
C675 C656 1.429 . S
C675 C669 1.429 . S
C675 C676 1.523 . S
C676 C657 1.368 . S
C676 C670 1.368 . S
C676 C675 1.523 . S
C677 C661 1.429 . S
C677 C673 1.429 . S
C677 C678 1.523 . S
C678 C662 1.368 . S
C678 C674 1.368 . S
C678 C677 1.523 . S
H679 C654 0.950 . S
H680 C656 0.950 . S
H681 C657 0.949 . S
H682 C659 0.950 . S
H683 C661 0.950 . S
C684 C685 1.349 . S
C684 C686 1.327 1_455 S
C684 H709 0.950 . S
C685 C684 1.349 . S
C685 C701 1.349 1_455 S
C686 C684 1.327 1_655 S
C686 C705 1.429 . S
C686 H710 0.913 1_655 S
C687 C704 1.574 . S
C687 C706 1.368 . S
C687 H711 0.949 . S
H688 C692 0.949 . S
C689 C690 1.349 . S
C689 C691 1.327 . S
C689 H712 0.950 . S
C690 C689 1.349 . S
C690 C702 1.349 . S
C691 C689 1.327 . S
C691 C707 1.429 . S
C691 H713 0.950 . S
C692 H688 0.949 . S
C692 C700 1.574 . S
C692 C708 1.368 . S
H693 C701 0.950 . S
H694 C699 0.950 . S
H695 C700 0.949 . S
H696 C702 0.950 . S
H697 C703 0.950 . S
H698 C704 0.949 . S
C699 H694 0.950 . S
C699 C701 1.327 . S
C699 C705 1.429 . S
C700 C692 1.574 . S
C700 H695 0.949 . S
C700 C706 1.368 . S
C701 C685 1.349 1_655 S
C701 H693 0.950 . S
C701 C699 1.327 . S
C702 C690 1.349 . S
C702 H696 0.950 . S
C702 C703 1.327 . S
C703 H697 0.950 . S
C703 C702 1.327 . S
C703 C707 1.429 . S
C704 C687 1.574 . S
C704 H698 0.949 . S
C704 C708 1.368 . S
C705 C686 1.429 . S
C705 C699 1.429 . S
C705 C706 1.523 . S
C706 C687 1.368 . S
C706 C700 1.368 . S
C706 C705 1.523 . S
C707 C691 1.429 . S
C707 C703 1.429 . S
C707 C708 1.523 . S
C708 C692 1.368 . S
C708 C704 1.368 . S
C708 C707 1.523 . S
H709 C684 0.950 . S
H710 C686 0.913 1_455 S
H711 C687 0.949 . S
H712 C689 0.950 . S
H713 C691 0.950 . S
C714 C715 1.349 . S
C714 C716 1.327 . S
C714 H739 0.950 . S
C715 C714 1.349 . S
C715 C731 1.349 . S
C716 C714 1.327 . S
C716 C735 1.429 . S
C716 H740 0.950 . S
C717 C734 1.574 . S
C717 C736 1.368 . S
C717 H741 0.949 . S
H718 C722 0.949 . S
C719 C720 1.349 . S
C719 C721 1.327 . S
C719 H742 0.950 . S
C720 C719 1.349 . S
C720 C732 1.349 . S
C721 C719 1.327 . S
C721 C737 1.429 . S
C721 H743 0.950 . S
C722 H718 0.949 . S
C722 C730 1.574 . S
C722 C738 1.368 . S
H723 C731 0.950 . S
H724 C729 0.950 . S
H725 C730 0.949 . S
H726 C732 0.950 . S
H727 C733 0.950 . S
H728 C734 0.949 . S
C729 H724 0.950 . S
C729 C731 1.327 . S
C729 C735 1.429 . S
C730 C722 1.574 . S
C730 H725 0.949 . S
C730 C736 1.368 . S
C731 C715 1.349 . S
C731 H723 0.950 . S
C731 C729 1.327 . S
C732 C720 1.349 . S
C732 H726 0.950 . S
C732 C733 1.327 . S
C733 H727 0.950 . S
C733 C732 1.327 . S
C733 C737 1.429 . S
C734 C717 1.574 . S
C734 H728 0.949 . S
C734 C738 1.368 . S
C735 C716 1.429 . S
C735 C729 1.429 . S
C735 C736 1.523 . S
C736 C717 1.368 . S
C736 C730 1.368 . S
C736 C735 1.523 . S
C737 C721 1.429 . S
C737 C733 1.429 . S
C737 C738 1.523 . S
C738 C722 1.368 . S
C738 C734 1.368 . S
C738 C737 1.523 . S
H739 C714 0.950 . S
H740 C716 0.950 . S
H741 C717 0.949 . S
H742 C719 0.950 . S
H743 C721 0.950 . S
C744 C745 1.349 . S
C744 C746 1.327 . S
C744 H769 0.950 . S
C745 C744 1.349 . S
C745 C761 1.349 . S
C746 C744 1.327 . S
C746 C765 1.429 . S
C746 H770 0.950 . S
C747 C764 1.574 . S
C747 C766 1.368 . S
C747 H771 0.949 . S
H748 C752 0.949 . S
C749 C750 1.349 1_545 S
C749 C751 1.327 . S
C749 H772 0.950 . S
C750 C749 1.349 1_565 S
C750 C762 1.384 . S
C751 C749 1.327 . S
C751 C767 1.429 . S
C751 H773 0.950 . S
C752 H748 0.949 . S
C752 C760 1.574 . S
C752 C768 1.368 . S
H753 C761 0.950 . S
H754 C759 0.950 . S
H755 C760 0.949 . S
H756 C762 0.994 . S
H757 C763 0.950 . S
H758 C764 0.949 . S
C759 H754 0.950 . S
C759 C761 1.327 . S
C759 C765 1.429 . S
C760 C752 1.574 . S
C760 H755 0.949 . S
C760 C766 1.368 . S
C761 C745 1.349 . S
C761 H753 0.950 . S
C761 C759 1.327 . S
C762 C750 1.384 . S
C762 H756 0.994 . S
C762 C763 1.253 1_565 S
C763 H757 0.950 . S
C763 C762 1.253 1_545 S
C763 C767 1.429 . S
C764 C747 1.574 . S
C764 H758 0.949 . S
C764 C768 1.368 . S
C765 C746 1.429 . S
C765 C759 1.429 . S
C765 C766 1.523 . S
C766 C747 1.368 . S
C766 C760 1.368 . S
C766 C765 1.523 . S
C767 C751 1.429 . S
C767 C763 1.429 . S
C767 C768 1.523 . S
C768 C752 1.368 . S
C768 C764 1.368 . S
C768 C767 1.523 . S
H769 C744 0.950 . S
H770 C746 0.950 . S
H771 C747 0.949 . S
H772 C749 0.950 . S
H773 C751 0.950 . S
C774 C775 1.349 . S
C774 C776 1.327 . S
C774 H799 0.950 . S
C775 C774 1.349 . S
C775 C791 1.349 . S
C776 C774 1.327 . S
C776 C795 1.429 . S
C776 H800 0.950 . S
C777 C794 1.574 . S
C777 C796 1.368 . S
C777 H801 0.949 . S
H778 C782 0.949 . S
C779 C780 1.349 . S
C779 C781 1.327 . S
C779 H802 0.950 . S
C780 C779 1.349 . S
C780 C792 1.349 . S
C781 C779 1.327 . S
C781 C797 1.429 . S
C781 H803 0.950 . S
C782 H778 0.949 . S
C782 C790 1.574 . S
C782 C798 1.368 . S
H783 C791 0.950 . S
H784 C789 0.950 . S
H785 C790 0.949 . S
H786 C792 0.950 . S
H787 C793 0.950 . S
H788 C794 0.949 . S
C789 H784 0.950 . S
C789 C791 1.327 . S
C789 C795 1.429 . S
C790 C782 1.574 . S
C790 H785 0.949 . S
C790 C796 1.368 . S
C791 C775 1.349 . S
C791 H783 0.950 . S
C791 C789 1.327 . S
C792 C780 1.349 . S
C792 H786 0.950 . S
C792 C793 1.327 . S
C793 H787 0.950 . S
C793 C792 1.327 . S
C793 C797 1.429 . S
C794 C777 1.574 . S
C794 H788 0.949 . S
C794 C798 1.368 . S
C795 C776 1.429 . S
C795 C789 1.429 . S
C795 C796 1.523 . S
C796 C777 1.368 . S
C796 C790 1.368 . S
C796 C795 1.523 . S
C797 C781 1.429 . S
C797 C793 1.429 . S
C797 C798 1.523 . S
C798 C782 1.368 . S
C798 C794 1.368 . S
C798 C797 1.523 . S
H799 C774 0.950 . S
H800 C776 0.950 . S
H801 C777 0.949 . S
H802 C779 0.950 . S
H803 C781 0.950 . S
C804 C805 1.349 1_545 S
C804 C806 1.327 . S
C804 H829 0.950 . S
C805 C804 1.349 1_565 S
C805 C821 1.349 . S
C806 C804 1.327 . S
C806 C825 1.429 . S
C806 H830 0.950 . S
C807 C824 1.574 . S
C807 C826 1.368 . S
C807 H831 0.949 . S
H808 C812 0.949 . S
C809 C810 1.349 . S
C809 C811 1.327 . S
C809 H832 0.950 . S
C810 C809 1.349 . S
C810 C822 1.349 . S
C811 C809 1.327 . S
C811 C827 1.429 . S
C811 H833 0.950 . S
C812 H808 0.949 . S
C812 C820 1.574 . S
C812 C828 1.368 . S
H813 C821 0.950 . S
H814 C819 0.919 1_565 S
H815 C820 0.949 . S
H816 C822 0.950 . S
H817 C823 0.950 . S
H818 C824 0.949 . S
C819 H814 0.919 1_545 S
C819 C821 1.329 1_545 S
C819 C825 1.460 . S
C820 C812 1.574 . S
C820 H815 0.949 . S
C820 C826 1.368 . S
C821 C805 1.349 . S
C821 H813 0.950 . S
C821 C819 1.329 1_565 S
C822 C810 1.349 . S
C822 H816 0.950 . S
C822 C823 1.327 . S
C823 H817 0.950 . S
C823 C822 1.327 . S
C823 C827 1.429 . S
C824 C807 1.574 . S
C824 H818 0.949 . S
C824 C828 1.368 . S
C825 C806 1.429 . S
C825 C819 1.460 . S
C825 C826 1.523 . S
C826 C807 1.368 . S
C826 C820 1.368 . S
C826 C825 1.523 . S
C827 C811 1.429 . S
C827 C823 1.429 . S
C827 C828 1.523 . S
C828 C812 1.368 . S
C828 C824 1.368 . S
C828 C827 1.523 . S
H829 C804 0.950 . S
H830 C806 0.950 . S
H831 C807 0.949 . S
H832 C809 0.950 . S
H833 C811 0.950 . S
C834 C835 1.349 . S
C834 C836 1.327 . S
C834 H859 0.950 . S
C835 C834 1.349 . S
C835 C851 1.349 . S
C836 C834 1.327 . S
C836 C855 1.429 . S
C836 H860 0.950 . S
C837 C854 1.574 . S
C837 C856 1.368 . S
C837 H861 0.949 . S
H838 C842 0.949 . S
C839 C840 1.349 . S
C839 C841 1.327 1_455 S
C839 H862 0.950 . S
C840 C839 1.349 . S
C840 C852 1.349 1_455 S
C841 C839 1.327 1_655 S
C841 C857 1.429 . S
C841 H863 0.935 . S
C842 H838 0.949 . S
C842 C850 1.574 . S
C842 C858 1.368 . S
H843 C851 0.950 . S
H844 C849 0.950 . S
H845 C850 0.949 . S
H846 C852 0.950 . S
H847 C853 0.950 . S
H848 C854 0.949 . S
C849 H844 0.950 . S
C849 C851 1.327 . S
C849 C855 1.429 . S
C850 C842 1.574 . S
C850 H845 0.949 . S
C850 C856 1.368 . S
C851 C835 1.349 . S
C851 H843 0.950 . S
C851 C849 1.327 . S
C852 C840 1.349 1_655 S
C852 H846 0.950 . S
C852 C853 1.327 . S
C853 H847 0.950 . S
C853 C852 1.327 . S
C853 C857 1.429 . S
C854 C837 1.574 . S
C854 H848 0.949 . S
C854 C858 1.368 . S
C855 C836 1.429 . S
C855 C849 1.429 . S
C855 C856 1.523 . S
C856 C837 1.368 . S
C856 C850 1.368 . S
C856 C855 1.523 . S
C857 C841 1.429 . S
C857 C853 1.429 . S
C857 C858 1.523 . S
C858 C842 1.368 . S
C858 C854 1.368 . S
C858 C857 1.523 . S
H859 C834 0.950 . S
H860 C836 0.950 . S
H861 C837 0.949 . S
H862 C839 0.950 . S
H863 C841 0.935 . S
C864 C865 1.349 . S
C864 C866 1.327 . S
C864 H889 0.950 . S
C865 C864 1.349 . S
C865 C881 1.349 . S
C866 C864 1.327 . S
C866 C885 1.429 . S
C866 H890 0.950 . S
C867 C884 1.574 . S
C867 C886 1.368 . S
C867 H891 0.949 . S
H868 C872 0.949 . S
C869 C870 1.349 . S
C869 C871 1.327 . S
C869 H892 0.950 . S
C870 C869 1.349 . S
C870 C882 1.349 . S
C871 C869 1.327 . S
C871 C887 1.429 . S
C871 H893 0.950 . S
C872 H868 0.949 . S
C872 C880 1.574 . S
C872 C888 1.368 . S
H873 C881 0.950 . S
H874 C879 0.950 . S
H875 C880 0.949 . S
H876 C882 0.950 . S
H877 C883 0.950 . S
H878 C884 0.949 . S
C879 H874 0.950 . S
C879 C881 1.327 . S
C879 C885 1.429 . S
C880 C872 1.574 . S
C880 H875 0.949 . S
C880 C886 1.368 . S
C881 C865 1.349 . S
C881 H873 0.950 . S
C881 C879 1.327 . S
C882 C870 1.349 . S
C882 H876 0.950 . S
C882 C883 1.327 . S
C883 H877 0.950 . S
C883 C882 1.327 . S
C883 C887 1.429 . S
C884 C867 1.574 . S
C884 H878 0.949 . S
C884 C888 1.368 . S
C885 C866 1.429 . S
C885 C879 1.429 . S
C885 C886 1.523 . S
C886 C867 1.368 . S
C886 C880 1.368 . S
C886 C885 1.523 . S
C887 C871 1.429 . S
C887 C883 1.429 . S
C887 C888 1.523 . S
C888 C872 1.368 . S
C888 C884 1.368 . S
C888 C887 1.523 . S
H889 C864 0.950 . S
H890 C866 0.950 . S
H891 C867 0.949 . S
H892 C869 0.950 . S
H893 C871 0.950 . S
C894 C895 1.349 1_565 S
C894 C896 1.327 . S
C894 H919 0.950 . S
C895 C894 1.349 1_545 S
C895 C911 1.349 . S
C896 C894 1.327 . S
C896 C915 1.429 . S
C896 H920 0.950 . S
C897 C914 1.574 . S
C897 C916 1.368 . S
C897 H921 0.949 . S
H898 C902 0.949 . S
C899 C900 1.349 . S
C899 C901 1.327 . S
C899 H922 0.950 . S
C900 C899 1.349 . S
C900 C912 1.349 . S
C901 C899 1.327 . S
C901 C917 1.429 . S
C901 H923 0.950 . S
C902 H898 0.949 . S
C902 C910 1.574 . S
C902 C918 1.368 . S
H903 C911 0.950 . S
H904 C909 0.950 . S
H905 C910 0.949 . S
H906 C912 0.950 . S
H907 C913 0.950 . S
H908 C914 0.949 . S
C909 H904 0.950 . S
C909 C911 1.327 1_565 S
C909 C915 1.429 . S
C910 C902 1.574 . S
C910 H905 0.949 . S
C910 C916 1.368 . S
C911 C895 1.349 . S
C911 H903 0.950 . S
C911 C909 1.327 1_545 S
C912 C900 1.349 . S
C912 H906 0.950 . S
C912 C913 1.327 . S
C913 H907 0.950 . S
C913 C912 1.327 . S
C913 C917 1.429 . S
C914 C897 1.574 . S
C914 H908 0.949 . S
C914 C918 1.368 . S
C915 C896 1.429 . S
C915 C909 1.429 . S
C915 C916 1.523 . S
C916 C897 1.368 . S
C916 C910 1.368 . S
C916 C915 1.523 . S
C917 C901 1.429 . S
C917 C913 1.429 . S
C917 C918 1.523 . S
C918 C902 1.368 . S
C918 C914 1.368 . S
C918 C917 1.523 . S
H919 C894 0.950 . S
H920 C896 0.950 . S
H921 C897 0.949 . S
H922 C899 0.950 . S
H923 C901 0.950 . S
C924 C925 1.349 . S
C924 C926 1.327 . S
C924 H949 0.950 . S
C925 C924 1.349 . S
C925 C941 1.349 . S
C926 C924 1.327 . S
C926 C945 1.429 . S
C926 H950 0.950 . S
C927 C944 1.574 . S
C927 C946 1.368 . S
C927 H951 0.949 . S
H928 C932 0.949 . S
C929 C930 1.349 1_455 S
C929 C931 1.327 . S
C929 H952 0.950 . S
C930 C929 1.349 1_655 S
C930 C942 1.349 . S
C931 C929 1.327 . S
C931 C947 1.429 . S
C931 H953 0.950 . S
C932 H928 0.949 . S
C932 C940 1.574 . S
C932 C948 1.368 . S
H933 C941 0.950 . S
H934 C939 0.950 . S
H935 C940 0.949 . S
H936 C942 0.950 . S
H937 C943 0.950 . S
H938 C944 0.949 . S
C939 H934 0.950 . S
C939 C941 1.327 . S
C939 C945 1.429 . S
C940 C932 1.574 . S
C940 H935 0.949 . S
C940 C946 1.368 . S
C941 C925 1.349 . S
C941 H933 0.950 . S
C941 C939 1.327 . S
C942 C930 1.349 . S
C942 H936 0.950 . S
C942 C943 1.327 1_655 S
C943 H937 0.950 . S
C943 C942 1.327 1_455 S
C943 C947 1.429 . S
C944 C927 1.574 . S
C944 H938 0.949 . S
C944 C948 1.368 . S
C945 C926 1.429 . S
C945 C939 1.429 . S
C945 C946 1.523 . S
C946 C927 1.368 . S
C946 C940 1.368 . S
C946 C945 1.523 . S
C947 C931 1.429 . S
C947 C943 1.429 . S
C947 C948 1.523 . S
C948 C932 1.368 . S
C948 C944 1.368 . S
C948 C947 1.523 . S
H949 C924 0.950 . S
H950 C926 0.950 . S
H951 C927 0.949 . S
H952 C929 0.950 . S
H953 C931 0.950 . S
C954 C955 1.349 . S
C954 C956 1.327 . S
C954 H979 0.950 . S
C955 C954 1.349 . S
C955 C971 1.349 . S
C956 C954 1.327 . S
C956 C975 1.429 . S
C956 H980 0.950 . S
C957 C974 1.574 . S
C957 C976 1.368 . S
C957 H981 0.949 . S
H958 C962 0.949 . S
C959 C960 1.349 . S
C959 C961 1.327 1_655 S
C959 H982 0.950 . S
C960 C959 1.349 . S
C960 C972 1.349 1_655 S
C961 C959 1.327 1_455 S
C961 C977 1.429 . S
C961 H983 0.959 . S
C962 H958 0.949 . S
C962 C970 1.574 . S
C962 C978 1.368 . S
H963 C971 0.950 . S
H964 C969 0.950 . S
H965 C970 0.949 . S
H966 C972 0.950 . S
H967 C973 0.950 . S
H968 C974 0.949 . S
C969 H964 0.950 . S
C969 C971 1.327 . S
C969 C975 1.429 . S
C970 C962 1.574 . S
C970 H965 0.949 . S
C970 C976 1.368 . S
C971 C955 1.349 . S
C971 H963 0.950 . S
C971 C969 1.327 . S
C972 C960 1.349 1_455 S
C972 H966 0.950 . S
C972 C973 1.327 . S
C973 H967 0.950 . S
C973 C972 1.327 . S
C973 C977 1.429 . S
C974 C957 1.574 . S
C974 H968 0.949 . S
C974 C978 1.368 . S
C975 C956 1.429 . S
C975 C969 1.429 . S
C975 C976 1.523 . S
C976 C957 1.368 . S
C976 C970 1.368 . S
C976 C975 1.523 . S
C977 C961 1.429 . S
C977 C973 1.429 . S
C977 C978 1.523 . S
C978 C962 1.368 . S
C978 C974 1.368 . S
C978 C977 1.523 . S
H979 C954 0.950 . S
H980 C956 0.950 . S
H981 C957 0.949 . S
H982 C959 0.950 . S
H983 C961 0.959 . S
C984 C985 1.349 . S
C984 C986 1.327 . S
C984 H1009 0.950 . S
C985 C984 1.349 . S
C985 C1001 1.349 . S
C986 C984 1.327 . S
C986 C1005 1.429 . S
C986 H1010 0.950 . S
C987 C1004 1.574 . S
C987 C1006 1.368 . S
C987 H1011 0.949 . S
H988 C992 0.949 . S
C989 C990 1.349 . S
C989 C991 1.327 . S
C989 H1012 0.950 . S
C990 C989 1.349 . S
C990 C1002 1.349 . S
C991 C989 1.327 . S
C991 C1007 1.429 . S
C991 H1013 0.950 . S
C992 H988 0.949 . S
C992 C1000 1.574 . S
C992 C1008 1.368 . S
H993 C1001 0.950 . S
H994 C999 0.950 . S
H995 C1000 0.949 . S
H996 C1002 0.950 . S
H997 C1003 0.950 . S
H998 C1004 0.949 . S
C999 H994 0.950 . S
C999 C1001 1.327 . S
C999 C1005 1.429 . S
C1000 C992 1.574 . S
C1000 H995 0.949 . S
C1000 C1006 1.368 . S
C1001 C985 1.349 . S
C1001 H993 0.950 . S
C1001 C999 1.327 . S
C1002 C990 1.349 . S
C1002 H996 0.950 . S
C1002 C1003 1.327 . S
C1003 H997 0.950 . S
C1003 C1002 1.327 . S
C1003 C1007 1.429 . S
C1004 C987 1.574 . S
C1004 H998 0.949 . S
C1004 C1008 1.368 . S
C1005 C986 1.429 . S
C1005 C999 1.429 . S
C1005 C1006 1.523 . S
C1006 C987 1.368 . S
C1006 C1000 1.368 . S
C1006 C1005 1.523 . S
C1007 C991 1.429 . S
C1007 C1003 1.429 . S
C1007 C1008 1.523 . S
C1008 C992 1.368 . S
C1008 C1004 1.368 . S
C1008 C1007 1.523 . S
H1009 C984 0.950 . S
H1010 C986 0.950 . S
H1011 C987 0.949 . S
H1012 C989 0.950 . S
H1013 C991 0.950 . S
C1014 C1015 1.349 . S
C1014 C1016 1.327 . S
C1014 H1039 0.950 . S
C1015 C1014 1.349 . S
C1015 C1031 1.349 . S
C1016 C1014 1.327 . S
C1016 C1035 1.429 . S
C1016 H1040 0.950 . S
C1017 C1034 1.574 . S
C1017 C1036 1.368 . S
C1017 H1041 0.949 . S
H1018 C1022 0.949 . S
C1019 C1020 1.349 . S
C1019 C1021 1.327 . S
C1019 H1042 0.950 . S
C1020 C1019 1.349 . S
C1020 C1032 1.349 1_545 S
C1021 C1019 1.327 . S
C1021 C1037 1.429 1_545 S
C1021 H1043 0.950 . S
C1022 H1018 0.949 . S
C1022 C1030 1.574 . S
C1022 C1038 1.368 . S
H1023 C1031 0.950 . S
H1024 C1029 0.950 . S
H1025 C1030 0.949 . S
H1026 C1032 0.950 . S
H1027 C1033 0.950 . S
H1028 C1034 0.949 . S
C1029 H1024 0.950 . S
C1029 C1031 1.327 . S
C1029 C1035 1.429 . S
C1030 C1022 1.574 . S
C1030 H1025 0.949 . S
C1030 C1036 1.368 . S
C1031 C1015 1.349 . S
C1031 H1023 0.950 . S
C1031 C1029 1.327 . S
C1032 C1020 1.349 1_565 S
C1032 H1026 0.950 . S
C1032 C1033 1.327 . S
C1033 H1027 0.950 . S
C1033 C1032 1.327 . S
C1033 C1037 1.429 . S
C1034 C1017 1.574 . S
C1034 H1028 0.949 . S
C1034 C1038 1.368 . S
C1035 C1016 1.429 . S
C1035 C1029 1.429 . S
C1035 C1036 1.523 . S
C1036 C1017 1.368 . S
C1036 C1030 1.368 . S
C1036 C1035 1.523 . S
C1037 C1021 1.429 1_565 S
C1037 C1033 1.429 . S
C1037 C1038 1.523 . S
C1038 C1022 1.368 . S
C1038 C1034 1.368 . S
C1038 C1037 1.523 . S
H1039 C1014 0.950 . S
H1040 C1016 0.950 . S
H1041 C1017 0.949 . S
H1042 C1019 0.950 . S
H1043 C1021 0.950 . S
C1044 C1045 1.349 . S
C1044 C1046 1.327 . S
C1044 H1069 0.950 . S
C1045 C1044 1.349 . S
C1045 C1061 1.349 . S
C1046 C1044 1.327 . S
C1046 C1065 1.429 . S
C1046 H1070 0.950 . S
C1047 C1064 1.574 . S
C1047 C1066 1.368 . S
C1047 H1071 0.949 . S
H1048 C1052 0.949 . S
C1049 C1050 1.349 . S
C1049 C1051 1.327 . S
C1049 H1072 0.950 . S
C1050 C1049 1.349 . S
C1050 C1062 1.349 . S
C1051 C1049 1.327 . S
C1051 C1067 1.429 . S
C1051 H1073 0.950 . S
C1052 H1048 0.949 . S
C1052 C1060 1.574 . S
C1052 C1068 1.368 . S
H1053 C1061 0.950 . S
H1054 C1059 0.950 . S
H1055 C1060 0.949 . S
H1056 C1062 0.950 . S
H1057 C1063 0.950 . S
H1058 C1064 0.949 . S
C1059 H1054 0.950 . S
C1059 C1061 1.327 . S
C1059 C1065 1.429 . S
C1060 C1052 1.574 . S
C1060 H1055 0.949 . S
C1060 C1066 1.368 . S
C1061 C1045 1.349 . S
C1061 H1053 0.950 . S
C1061 C1059 1.327 . S
C1062 C1050 1.349 . S
C1062 H1056 0.950 . S
C1062 C1063 1.327 . S
C1063 H1057 0.950 . S
C1063 C1062 1.327 . S
C1063 C1067 1.429 . S
C1064 C1047 1.574 . S
C1064 H1058 0.949 . S
C1064 C1068 1.368 . S
C1065 C1046 1.429 . S
C1065 C1059 1.429 . S
C1065 C1066 1.523 . S
C1066 C1047 1.368 . S
C1066 C1060 1.368 . S
C1066 C1065 1.523 . S
C1067 C1051 1.429 . S
C1067 C1063 1.429 . S
C1067 C1068 1.523 . S
C1068 C1052 1.368 . S
C1068 C1064 1.368 . S
C1068 C1067 1.523 . S
H1069 C1044 0.950 . S
H1070 C1046 0.950 . S
H1071 C1047 0.949 . S
H1072 C1049 0.950 . S
H1073 C1051 0.950 . S
C1074 C1075 1.349 . S
C1074 C1076 1.327 . S
C1074 H1099 0.950 . S
C1075 C1074 1.349 . S
C1075 C1091 1.349 . S
C1076 C1074 1.327 . S
C1076 C1095 1.429 . S
C1076 H1100 0.950 . S
C1077 C1094 1.574 . S
C1077 C1096 1.368 . S
C1077 H1101 0.949 . S
H1078 C1082 0.949 . S
C1079 C1080 1.349 . S
C1079 C1081 1.327 . S
C1079 H1102 0.950 . S
C1080 C1079 1.349 . S
C1080 C1092 1.349 . S
C1081 C1079 1.327 . S
C1081 C1097 1.429 . S
C1081 H1103 0.950 . S
C1082 H1078 0.949 . S
C1082 C1090 1.574 . S
C1082 C1098 1.368 . S
H1083 C1091 0.950 . S
H1084 C1089 0.950 . S
H1085 C1090 0.949 . S
H1086 C1092 0.950 . S
H1087 C1093 0.950 . S
H1088 C1094 0.949 . S
C1089 H1084 0.950 . S
C1089 C1091 1.327 . S
C1089 C1095 1.429 . S
C1090 C1082 1.574 . S
C1090 H1085 0.949 . S
C1090 C1096 1.368 . S
C1091 C1075 1.349 . S
C1091 H1083 0.950 . S
C1091 C1089 1.327 . S
C1092 C1080 1.349 . S
C1092 H1086 0.950 . S
C1092 C1093 1.327 . S
C1093 H1087 0.950 . S
C1093 C1092 1.327 . S
C1093 C1097 1.429 . S
C1094 C1077 1.574 . S
C1094 H1088 0.949 . S
C1094 C1098 1.368 . S
C1095 C1076 1.429 . S
C1095 C1089 1.429 . S
C1095 C1096 1.523 . S
C1096 C1077 1.368 . S
C1096 C1090 1.368 . S
C1096 C1095 1.523 . S
C1097 C1081 1.429 . S
C1097 C1093 1.429 . S
C1097 C1098 1.523 . S
C1098 C1082 1.368 . S
C1098 C1094 1.368 . S
C1098 C1097 1.523 . S
H1099 C1074 0.950 . S
H1100 C1076 0.950 . S
H1101 C1077 0.949 . S
H1102 C1079 0.950 . S
H1103 C1081 0.950 . S
C1104 C1105 1.349 . S
C1104 C1106 1.327 . S
C1104 H1129 0.950 . S
C1105 C1104 1.349 . S
C1105 C1121 1.349 . S
C1106 C1104 1.327 . S
C1106 C1125 1.429 . S
C1106 H1130 0.950 . S
C1107 C1124 1.574 . S
C1107 C1126 1.368 . S
C1107 H1131 0.949 . S
H1108 C1112 0.949 . S
C1109 C1110 1.349 . S
C1109 C1111 1.327 . S
C1109 H1132 0.950 . S
C1110 C1109 1.349 . S
C1110 C1122 1.349 . S
C1111 C1109 1.327 . S
C1111 C1127 1.429 . S
C1111 H1133 0.950 . S
C1112 H1108 0.949 . S
C1112 C1120 1.574 . S
C1112 C1128 1.368 . S
H1113 C1121 0.950 . S
H1114 C1119 0.950 . S
H1115 C1120 0.949 . S
H1116 C1122 0.950 . S
H1117 C1123 0.950 . S
H1118 C1124 0.949 . S
C1119 H1114 0.950 . S
C1119 C1121 1.327 . S
C1119 C1125 1.429 . S
C1120 C1112 1.574 . S
C1120 H1115 0.949 . S
C1120 C1126 1.368 . S
C1121 C1105 1.349 . S
C1121 H1113 0.950 . S
C1121 C1119 1.327 . S
C1122 C1110 1.349 . S
C1122 H1116 0.950 . S
C1122 C1123 1.327 . S
C1123 H1117 0.950 . S
C1123 C1122 1.327 . S
C1123 C1127 1.429 . S
C1124 C1107 1.574 . S
C1124 H1118 0.949 . S
C1124 C1128 1.368 . S
C1125 C1106 1.429 . S
C1125 C1119 1.429 . S
C1125 C1126 1.523 . S
C1126 C1107 1.368 . S
C1126 C1120 1.368 . S
C1126 C1125 1.523 . S
C1127 C1111 1.429 . S
C1127 C1123 1.429 . S
C1127 C1128 1.523 . S
C1128 C1112 1.368 . S
C1128 C1124 1.368 . S
C1128 C1127 1.523 . S
H1129 C1104 0.950 . S
H1130 C1106 0.950 . S
H1131 C1107 0.949 . S
H1132 C1109 0.950 . S
H1133 C1111 0.950 . S
C1134 C1135 1.349 . S
C1134 C1136 1.327 . S
C1134 H1159 0.950 . S
C1135 C1134 1.349 . S
C1135 C1151 1.349 . S
C1136 C1134 1.327 . S
C1136 C1155 1.429 . S
C1136 H1160 0.950 . S
C1137 C1154 1.574 . S
C1137 C1156 1.368 . S
C1137 H1161 0.949 . S
H1138 C1142 0.949 . S
C1139 C1140 1.349 . S
C1139 C1141 1.327 1_556 S
C1139 H1162 0.950 . S
C1140 C1139 1.349 . S
C1140 C1152 1.349 . S
C1141 C1139 1.327 1_554 S
C1141 C1157 1.429 . S
C1141 H1163 0.950 . S
C1142 H1138 0.949 . S
C1142 C1150 1.574 . S
C1142 C1158 1.368 . S
H1143 C1151 0.950 . S
H1144 C1149 0.950 . S
H1145 C1150 0.949 . S
H1146 C1152 0.950 . S
H1147 C1153 0.950 . S
H1148 C1154 0.949 . S
C1149 H1144 0.950 . S
C1149 C1151 1.327 . S
C1149 C1155 1.429 . S
C1150 C1142 1.574 . S
C1150 H1145 0.949 . S
C1150 C1156 1.368 . S
C1151 C1135 1.349 . S
C1151 H1143 0.950 . S
C1151 C1149 1.327 . S
C1152 C1140 1.349 . S
C1152 H1146 0.950 . S
C1152 C1153 1.327 1_556 S
C1153 H1147 0.950 . S
C1153 C1152 1.327 1_554 S
C1153 C1157 1.429 . S
C1154 C1137 1.574 . S
C1154 H1148 0.949 . S
C1154 C1158 1.368 . S
C1155 C1136 1.429 . S
C1155 C1149 1.429 . S
C1155 C1156 1.523 . S
C1156 C1137 1.368 . S
C1156 C1150 1.368 . S
C1156 C1155 1.523 . S
C1157 C1141 1.429 . S
C1157 C1153 1.429 . S
C1157 C1158 1.523 . S
C1158 C1142 1.368 . S
C1158 C1154 1.368 . S
C1158 C1157 1.523 . S
H1159 C1134 0.950 . S
H1160 C1136 0.950 . S
H1161 C1137 0.949 . S
H1162 C1139 0.950 . S
H1163 C1141 0.950 . S
C1164 C1165 1.349 . S
C1164 C1166 1.327 . S
C1164 H1189 0.950 . S
C1165 C1164 1.349 . S
C1165 C1181 1.349 . S
C1166 C1164 1.327 . S
C1166 C1185 1.429 . S
C1166 H1190 0.950 . S
C1167 C1184 1.574 . S
C1167 C1186 1.368 . S
C1167 H1191 0.949 . S
H1168 C1172 0.949 . S
C1169 C1170 1.349 . S
C1169 C1171 1.327 1_556 S
C1169 H1192 0.950 . S
C1170 C1169 1.349 . S
C1170 C1182 1.349 . S
C1171 C1169 1.327 1_554 S
C1171 C1187 1.429 . S
C1171 H1193 0.950 . S
C1172 H1168 0.949 . S
C1172 C1180 1.574 . S
C1172 C1188 1.368 . S
H1173 C1181 0.950 . S
H1174 C1179 0.950 . S
H1175 C1180 0.949 . S
H1176 C1182 0.950 . S
H1177 C1183 0.950 . S
H1178 C1184 0.949 . S
C1179 H1174 0.950 . S
C1179 C1181 1.327 . S
C1179 C1185 1.429 . S
C1180 C1172 1.574 . S
C1180 H1175 0.949 . S
C1180 C1186 1.368 . S
C1181 C1165 1.349 . S
C1181 H1173 0.950 . S
C1181 C1179 1.327 . S
C1182 C1170 1.349 . S
C1182 H1176 0.950 . S
C1182 C1183 1.327 1_556 S
C1183 H1177 0.950 . S
C1183 C1182 1.327 1_554 S
C1183 C1187 1.429 . S
C1184 C1167 1.574 . S
C1184 H1178 0.949 . S
C1184 C1188 1.368 . S
C1185 C1166 1.429 . S
C1185 C1179 1.429 . S
C1185 C1186 1.523 . S
C1186 C1167 1.368 . S
C1186 C1180 1.368 . S
C1186 C1185 1.523 . S
C1187 C1171 1.429 . S
C1187 C1183 1.429 . S
C1187 C1188 1.523 . S
C1188 C1172 1.368 . S
C1188 C1184 1.368 . S
C1188 C1187 1.523 . S
H1189 C1164 0.950 . S
H1190 C1166 0.950 . S
H1191 C1167 0.949 . S
H1192 C1169 0.950 . S
H1193 C1171 0.950 . S
C1194 C1195 1.349 . S
C1194 C1196 1.327 . S
C1194 H1219 0.950 . S
C1195 C1194 1.349 . S
C1195 C1211 1.349 . S
C1196 C1194 1.327 . S
C1196 C1215 1.429 . S
C1196 H1220 0.950 . S
C1197 C1214 1.574 . S
C1197 C1216 1.368 . S
C1197 H1221 0.949 . S
H1198 C1202 0.949 . S
C1199 C1200 1.349 . S
C1199 C1201 1.327 1_556 S
C1199 H1222 0.950 . S
C1200 C1199 1.349 . S
C1200 C1212 1.349 . S
C1201 C1199 1.327 1_554 S
C1201 C1217 1.429 . S
C1201 H1223 0.950 . S
C1202 H1198 0.949 . S
C1202 C1210 1.574 . S
C1202 C1218 1.368 . S
H1203 C1211 0.950 . S
H1204 C1209 0.950 . S
H1205 C1210 0.949 . S
H1206 C1212 0.950 . S
H1207 C1213 0.950 . S
H1208 C1214 0.949 . S
C1209 H1204 0.950 . S
C1209 C1211 1.327 . S
C1209 C1215 1.429 . S
C1210 C1202 1.574 . S
C1210 H1205 0.949 . S
C1210 C1216 1.368 . S
C1211 C1195 1.349 . S
C1211 H1203 0.950 . S
C1211 C1209 1.327 . S
C1212 C1200 1.349 . S
C1212 H1206 0.950 . S
C1212 C1213 1.327 1_556 S
C1213 H1207 0.950 . S
C1213 C1212 1.327 1_554 S
C1213 C1217 1.429 . S
C1214 C1197 1.574 . S
C1214 H1208 0.949 . S
C1214 C1218 1.368 . S
C1215 C1196 1.429 . S
C1215 C1209 1.429 . S
C1215 C1216 1.523 . S
C1216 C1197 1.368 . S
C1216 C1210 1.368 . S
C1216 C1215 1.523 . S
C1217 C1201 1.429 . S
C1217 C1213 1.429 . S
C1217 C1218 1.523 . S
C1218 C1202 1.368 . S
C1218 C1214 1.368 . S
C1218 C1217 1.523 . S
H1219 C1194 0.950 . S
H1220 C1196 0.950 . S
H1221 C1197 0.949 . S
H1222 C1199 0.950 . S
H1223 C1201 0.950 . S
C1224 C1225 1.349 . S
C1224 C1226 1.327 . S
C1224 H1249 0.950 . S
C1225 C1224 1.349 . S
C1225 C1241 1.349 . S
C1226 C1224 1.327 . S
C1226 C1245 1.429 . S
C1226 H1250 0.950 . S
C1227 C1244 1.574 . S
C1227 C1246 1.368 . S
C1227 H1251 0.949 . S
H1228 C1232 0.949 . S
C1229 C1230 1.349 . S
C1229 C1231 1.327 . S
C1229 H1252 0.950 . S
C1230 C1229 1.349 . S
C1230 C1242 1.349 . S
C1231 C1229 1.327 . S
C1231 C1247 1.429 . S
C1231 H1253 0.950 . S
C1232 H1228 0.949 . S
C1232 C1240 1.574 . S
C1232 C1248 1.368 . S
H1233 C1241 0.950 . S
H1234 C1239 0.950 . S
H1235 C1240 0.949 . S
H1236 C1242 0.950 . S
H1237 C1243 0.950 . S
H1238 C1244 0.949 . S
C1239 H1234 0.950 . S
C1239 C1241 1.327 . S
C1239 C1245 1.429 . S
C1240 C1232 1.574 . S
C1240 H1235 0.949 . S
C1240 C1246 1.368 . S
C1241 C1225 1.349 . S
C1241 H1233 0.950 . S
C1241 C1239 1.327 . S
C1242 C1230 1.349 . S
C1242 H1236 0.950 . S
C1242 C1243 1.327 . S
C1243 H1237 0.950 . S
C1243 C1242 1.327 . S
C1243 C1247 1.429 . S
C1244 C1227 1.574 . S
C1244 H1238 0.949 . S
C1244 C1248 1.368 . S
C1245 C1226 1.429 . S
C1245 C1239 1.429 . S
C1245 C1246 1.523 . S
C1246 C1227 1.368 . S
C1246 C1240 1.368 . S
C1246 C1245 1.523 . S
C1247 C1231 1.429 . S
C1247 C1243 1.429 . S
C1247 C1248 1.523 . S
C1248 C1232 1.368 . S
C1248 C1244 1.368 . S
C1248 C1247 1.523 . S
H1249 C1224 0.950 . S
H1250 C1226 0.950 . S
H1251 C1227 0.949 . S
H1252 C1229 0.950 . S
H1253 C1231 0.950 . S
C1254 C1255 1.349 . S
C1254 C1256 1.327 . S
C1254 H1279 0.950 . S
C1255 C1254 1.349 . S
C1255 C1271 1.349 . S
C1256 C1254 1.327 . S
C1256 C1275 1.429 . S
C1256 H1280 0.950 . S
C1257 C1274 1.574 . S
C1257 C1276 1.368 . S
C1257 H1281 0.949 . S
H1258 C1262 0.949 . S
C1259 C1260 1.349 . S
C1259 C1261 1.327 . S
C1259 H1282 0.950 . S
C1260 C1259 1.349 . S
C1260 C1272 1.349 . S
C1261 C1259 1.327 . S
C1261 C1277 1.429 . S
C1261 H1283 0.950 . S
C1262 H1258 0.949 . S
C1262 C1270 1.574 . S
C1262 C1278 1.368 . S
H1263 C1271 0.950 . S
H1264 C1269 0.950 . S
H1265 C1270 0.949 . S
H1266 C1272 0.950 . S
H1267 C1273 0.950 . S
H1268 C1274 0.949 . S
C1269 H1264 0.950 . S
C1269 C1271 1.327 . S
C1269 C1275 1.429 . S
C1270 C1262 1.574 . S
C1270 H1265 0.949 . S
C1270 C1276 1.368 . S
C1271 C1255 1.349 . S
C1271 H1263 0.950 . S
C1271 C1269 1.327 . S
C1272 C1260 1.349 . S
C1272 H1266 0.950 . S
C1272 C1273 1.327 . S
C1273 H1267 0.950 . S
C1273 C1272 1.327 . S
C1273 C1277 1.429 . S
C1274 C1257 1.574 . S
C1274 H1268 0.949 . S
C1274 C1278 1.368 . S
C1275 C1256 1.429 . S
C1275 C1269 1.429 . S
C1275 C1276 1.523 . S
C1276 C1257 1.368 . S
C1276 C1270 1.368 . S
C1276 C1275 1.523 . S
C1277 C1261 1.429 . S
C1277 C1273 1.429 . S
C1277 C1278 1.523 . S
C1278 C1262 1.368 . S
C1278 C1274 1.368 . S
C1278 C1277 1.523 . S
H1279 C1254 0.950 . S
H1280 C1256 0.950 . S
H1281 C1257 0.949 . S
H1282 C1259 0.950 . S
H1283 C1261 0.950 . S
C1284 C1285 1.349 . S
C1284 C1286 1.327 . S
C1284 H1309 0.950 . S
C1285 C1284 1.349 . S
C1285 C1301 1.349 . S
C1286 C1284 1.327 . S
C1286 C1305 1.429 . S
C1286 H1310 0.950 . S
C1287 C1304 1.574 . S
C1287 C1306 1.368 . S
C1287 H1311 0.949 . S
H1288 C1292 0.949 . S
C1289 C1290 1.349 . S
C1289 C1291 1.327 . S
C1289 H1312 0.950 . S
C1290 C1289 1.349 . S
C1290 C1302 1.349 . S
C1291 C1289 1.327 . S
C1291 C1307 1.429 . S
C1291 H1313 0.950 . S
C1292 H1288 0.949 . S
C1292 C1300 1.574 . S
C1292 C1308 1.368 . S
H1293 C1301 0.950 . S
H1294 C1299 0.950 . S
H1295 C1300 0.949 . S
H1296 C1302 0.950 . S
H1297 C1303 0.950 . S
H1298 C1304 0.949 . S
C1299 H1294 0.950 . S
C1299 C1301 1.327 . S
C1299 C1305 1.429 . S
C1300 C1292 1.574 . S
C1300 H1295 0.949 . S
C1300 C1306 1.368 . S
C1301 C1285 1.349 . S
C1301 H1293 0.950 . S
C1301 C1299 1.327 . S
C1302 C1290 1.349 . S
C1302 H1296 0.950 . S
C1302 C1303 1.327 . S
C1303 H1297 0.950 . S
C1303 C1302 1.327 . S
C1303 C1307 1.429 . S
C1304 C1287 1.574 . S
C1304 H1298 0.949 . S
C1304 C1308 1.368 . S
C1305 C1286 1.429 . S
C1305 C1299 1.429 . S
C1305 C1306 1.523 . S
C1306 C1287 1.368 . S
C1306 C1300 1.368 . S
C1306 C1305 1.523 . S
C1307 C1291 1.429 . S
C1307 C1303 1.429 . S
C1307 C1308 1.523 . S
C1308 C1292 1.368 . S
C1308 C1304 1.368 . S
C1308 C1307 1.523 . S
H1309 C1284 0.950 . S
H1310 C1286 0.950 . S
H1311 C1287 0.949 . S
H1312 C1289 0.950 . S
H1313 C1291 0.950 . S
C1314 C1315 1.349 . S
C1314 C1316 1.327 1_554 S
C1314 H1339 0.950 . S
C1315 C1314 1.349 . S
C1315 C1331 1.349 . S
C1316 C1314 1.327 1_556 S
C1316 C1335 1.429 . S
C1316 H1340 0.950 . S
C1317 C1334 1.574 . S
C1317 C1336 1.368 . S
C1317 H1341 0.949 . S
H1318 C1322 0.949 . S
C1319 C1320 1.349 . S
C1319 C1321 1.327 . S
C1319 H1342 0.950 . S
C1320 C1319 1.349 . S
C1320 C1332 1.349 . S
C1321 C1319 1.327 . S
C1321 C1337 1.429 . S
C1321 H1343 0.950 . S
C1322 H1318 0.949 . S
C1322 C1330 1.574 . S
C1322 C1338 1.368 . S
H1323 C1331 0.950 . S
H1324 C1329 0.950 . S
H1325 C1330 0.949 . S
H1326 C1332 0.950 . S
H1327 C1333 0.950 . S
H1328 C1334 0.949 . S
C1329 H1324 0.950 . S
C1329 C1331 1.327 1_556 S
C1329 C1335 1.429 . S
C1330 C1322 1.574 . S
C1330 H1325 0.949 . S
C1330 C1336 1.368 . S
C1331 C1315 1.349 . S
C1331 H1323 0.950 . S
C1331 C1329 1.327 1_554 S
C1332 C1320 1.349 . S
C1332 H1326 0.950 . S
C1332 C1333 1.327 . S
C1333 H1327 0.950 . S
C1333 C1332 1.327 . S
C1333 C1337 1.429 . S
C1334 C1317 1.574 . S
C1334 H1328 0.949 . S
C1334 C1338 1.368 . S
C1335 C1316 1.429 . S
C1335 C1329 1.429 . S
C1335 C1336 1.523 . S
C1336 C1317 1.368 . S
C1336 C1330 1.368 . S
C1336 C1335 1.523 . S
C1337 C1321 1.429 . S
C1337 C1333 1.429 . S
C1337 C1338 1.523 . S
C1338 C1322 1.368 . S
C1338 C1334 1.368 . S
C1338 C1337 1.523 . S
H1339 C1314 0.950 . S
H1340 C1316 0.950 . S
H1341 C1317 0.949 . S
H1342 C1319 0.950 . S
H1343 C1321 0.950 . S
C1344 C1345 1.349 . S
C1344 C1346 1.327 1_554 S
C1344 H1369 0.950 . S
C1345 C1344 1.349 . S
C1345 C1361 1.349 . S
C1346 C1344 1.327 1_556 S
C1346 C1365 1.429 . S
C1346 H1370 0.950 . S
C1347 C1364 1.574 . S
C1347 C1366 1.368 . S
C1347 H1371 0.949 . S
H1348 C1352 0.949 . S
C1349 C1350 1.349 . S
C1349 C1351 1.327 . S
C1349 H1372 0.950 . S
C1350 C1349 1.349 . S
C1350 C1362 1.349 . S
C1351 C1349 1.327 . S
C1351 C1367 1.429 . S
C1351 H1373 0.950 . S
C1352 H1348 0.949 . S
C1352 C1360 1.574 . S
C1352 C1368 1.368 . S
H1353 C1361 0.950 . S
H1354 C1359 0.950 . S
H1355 C1360 0.949 . S
H1356 C1362 0.950 . S
H1357 C1363 0.950 . S
H1358 C1364 0.949 . S
C1359 H1354 0.950 . S
C1359 C1361 1.327 1_556 S
C1359 C1365 1.429 . S
C1360 C1352 1.574 . S
C1360 H1355 0.949 . S
C1360 C1366 1.368 . S
C1361 C1345 1.349 . S
C1361 H1353 0.950 . S
C1361 C1359 1.327 1_554 S
C1362 C1350 1.349 . S
C1362 H1356 0.950 . S
C1362 C1363 1.327 . S
C1363 H1357 0.950 . S
C1363 C1362 1.327 . S
C1363 C1367 1.429 . S
C1364 C1347 1.574 . S
C1364 H1358 0.949 . S
C1364 C1368 1.368 . S
C1365 C1346 1.429 . S
C1365 C1359 1.429 . S
C1365 C1366 1.523 . S
C1366 C1347 1.368 . S
C1366 C1360 1.368 . S
C1366 C1365 1.523 . S
C1367 C1351 1.429 . S
C1367 C1363 1.429 . S
C1367 C1368 1.523 . S
C1368 C1352 1.368 . S
C1368 C1364 1.368 . S
C1368 C1367 1.523 . S
H1369 C1344 0.950 . S
H1370 C1346 0.950 . S
H1371 C1347 0.949 . S
H1372 C1349 0.950 . S
H1373 C1351 0.950 . S
C1374 C1375 1.349 . S
C1374 C1376 1.327 . S
C1374 H1399 0.950 . S
C1375 C1374 1.349 . S
C1375 C1391 1.349 . S
C1376 C1374 1.327 . S
C1376 C1395 1.429 . S
C1376 H1400 0.950 . S
C1377 C1394 1.574 . S
C1377 C1396 1.368 . S
C1377 H1401 0.949 . S
H1378 C1382 0.949 . S
C1379 C1380 1.349 . S
C1379 C1381 1.327 1_554 S
C1379 H1402 0.950 . S
C1380 C1379 1.349 . S
C1380 C1392 1.349 . S
C1381 C1379 1.327 1_556 S
C1381 C1397 1.429 . S
C1381 H1403 0.950 . S
C1382 H1378 0.949 . S
C1382 C1390 1.574 . S
C1382 C1398 1.368 . S
H1383 C1391 0.950 . S
H1384 C1389 0.950 . S
H1385 C1390 0.949 . S
H1386 C1392 0.950 . S
H1387 C1393 0.950 . S
H1388 C1394 0.949 . S
C1389 H1384 0.950 . S
C1389 C1391 1.327 . S
C1389 C1395 1.429 . S
C1390 C1382 1.574 . S
C1390 H1385 0.949 . S
C1390 C1396 1.368 . S
C1391 C1375 1.349 . S
C1391 H1383 0.950 . S
C1391 C1389 1.327 . S
C1392 C1380 1.349 . S
C1392 H1386 0.950 . S
C1392 C1393 1.327 1_554 S
C1393 H1387 0.950 . S
C1393 C1392 1.327 1_556 S
C1393 C1397 1.429 . S
C1394 C1377 1.574 . S
C1394 H1388 0.949 . S
C1394 C1398 1.368 . S
C1395 C1376 1.429 . S
C1395 C1389 1.429 . S
C1395 C1396 1.523 . S
C1396 C1377 1.368 . S
C1396 C1390 1.368 . S
C1396 C1395 1.523 . S
C1397 C1381 1.429 . S
C1397 C1393 1.429 . S
C1397 C1398 1.523 . S
C1398 C1382 1.368 . S
C1398 C1394 1.368 . S
C1398 C1397 1.523 . S
H1399 C1374 0.950 . S
H1400 C1376 0.950 . S
H1401 C1377 0.949 . S
H1402 C1379 0.950 . S
H1403 C1381 0.950 . S
C1404 C1405 1.349 . S
C1404 C1406 1.327 . S
C1404 H1429 0.950 . S
C1405 C1404 1.349 . S
C1405 C1421 1.349 . S
C1406 C1404 1.327 . S
C1406 C1425 1.429 . S
C1406 H1430 0.950 . S
C1407 C1424 1.574 1_455 S
C1407 C1426 1.368 . S
C1407 H1431 0.949 . S
H1408 C1412 0.949 . S
C1409 C1410 1.349 . S
C1409 C1411 1.327 . S
C1409 H1432 0.950 . S
C1410 C1409 1.349 . S
C1410 C1422 1.349 . S
C1411 C1409 1.327 . S
C1411 C1427 1.429 . S
C1411 H1433 0.950 . S
C1412 H1408 0.949 . S
C1412 C1420 1.574 1_655 S
C1412 C1428 1.368 . S
H1413 C1421 0.950 . S
H1414 C1419 0.950 . S
H1415 C1420 0.949 . S
H1416 C1422 0.950 . S
H1417 C1423 0.950 . S
H1418 C1424 0.949 . S
C1419 H1414 0.950 . S
C1419 C1421 1.327 . S
C1419 C1425 1.429 . S
C1420 C1412 1.574 1_455 S
C1420 H1415 0.949 . S
C1420 C1426 1.368 . S
C1421 C1405 1.349 . S
C1421 H1413 0.950 . S
C1421 C1419 1.327 . S
C1422 C1410 1.349 . S
C1422 H1416 0.950 . S
C1422 C1423 1.327 . S
C1423 H1417 0.950 . S
C1423 C1422 1.327 . S
C1423 C1427 1.429 . S
C1424 C1407 1.574 1_655 S
C1424 H1418 0.949 . S
C1424 C1428 1.368 . S
C1425 C1406 1.429 . S
C1425 C1419 1.429 . S
C1425 C1426 1.523 . S
C1426 C1407 1.368 . S
C1426 C1420 1.368 . S
C1426 C1425 1.523 . S
C1427 C1411 1.429 . S
C1427 C1423 1.429 . S
C1427 C1428 1.523 . S
C1428 C1412 1.368 . S
C1428 C1424 1.368 . S
C1428 C1427 1.523 . S
H1429 C1404 0.950 . S
H1430 C1406 0.950 . S
H1431 C1407 0.949 . S
H1432 C1409 0.950 . S
H1433 C1411 0.950 . S
C1434 C1435 1.349 . S
C1434 C1436 1.327 . S
C1434 H1459 0.950 . S
C1435 C1434 1.349 . S
C1435 C1451 1.349 . S
C1436 C1434 1.327 . S
C1436 C1455 1.429 . S
C1436 H1460 0.950 . S
C1437 C1454 1.574 . S
C1437 C1456 1.368 . S
C1437 H1461 0.949 . S
H1438 C1442 0.949 . S
C1439 C1440 1.349 . S
C1439 C1441 1.327 . S
C1439 H1462 0.950 . S
C1440 C1439 1.349 . S
C1440 C1452 1.349 . S
C1441 C1439 1.327 . S
C1441 C1457 1.429 . S
C1441 H1463 0.950 . S
C1442 H1438 0.949 . S
C1442 C1450 1.574 . S
C1442 C1458 1.368 . S
H1443 C1451 0.950 . S
H1444 C1449 0.950 . S
H1445 C1450 0.949 . S
H1446 C1452 0.950 . S
H1447 C1453 0.950 . S
H1448 C1454 0.949 . S
C1449 H1444 0.950 . S
C1449 C1451 1.327 . S
C1449 C1455 1.429 . S
C1450 C1442 1.574 . S
C1450 H1445 0.949 . S
C1450 C1456 1.368 . S
C1451 C1435 1.349 . S
C1451 H1443 0.950 . S
C1451 C1449 1.327 . S
C1452 C1440 1.349 . S
C1452 H1446 0.950 . S
C1452 C1453 1.327 . S
C1453 H1447 0.950 . S
C1453 C1452 1.327 . S
C1453 C1457 1.429 . S
C1454 C1437 1.574 . S
C1454 H1448 0.949 . S
C1454 C1458 1.368 . S
C1455 C1436 1.429 . S
C1455 C1449 1.429 . S
C1455 C1456 1.523 . S
C1456 C1437 1.368 . S
C1456 C1450 1.368 . S
C1456 C1455 1.523 . S
C1457 C1441 1.429 . S
C1457 C1453 1.429 . S
C1457 C1458 1.523 . S
C1458 C1442 1.368 . S
C1458 C1454 1.368 . S
C1458 C1457 1.523 . S
H1459 C1434 0.950 . S
H1460 C1436 0.950 . S
H1461 C1437 0.949 . S
H1462 C1439 0.950 . S
H1463 C1441 0.950 . S
C1464 C1465 1.349 . S
C1464 C1466 1.327 . S
C1464 H1489 0.950 . S
C1465 C1464 1.349 . S
C1465 C1481 1.349 . S
C1466 C1464 1.327 . S
C1466 C1485 1.429 . S
C1466 H1490 0.950 . S
C1467 C1484 1.574 . S
C1467 C1486 1.368 . S
C1467 H1491 0.949 . S
H1468 C1472 0.949 . S
C1469 C1470 1.349 . S
C1469 C1471 1.327 . S
C1469 H1492 0.950 . S
C1470 C1469 1.349 . S
C1470 C1482 1.349 . S
C1471 C1469 1.327 . S
C1471 C1487 1.429 . S
C1471 H1493 0.950 . S
C1472 H1468 0.949 . S
C1472 C1480 1.574 . S
C1472 C1488 1.368 . S
H1473 C1481 0.950 . S
H1474 C1479 0.950 . S
H1475 C1480 0.949 . S
H1476 C1482 0.950 . S
H1477 C1483 0.950 . S
H1478 C1484 0.949 . S
C1479 H1474 0.950 . S
C1479 C1481 1.327 . S
C1479 C1485 1.429 . S
C1480 C1472 1.574 . S
C1480 H1475 0.949 . S
C1480 C1486 1.368 1_565 S
C1481 C1465 1.349 . S
C1481 H1473 0.950 . S
C1481 C1479 1.327 . S
C1482 C1470 1.349 . S
C1482 H1476 0.950 . S
C1482 C1483 1.327 . S
C1483 H1477 0.950 . S
C1483 C1482 1.327 . S
C1483 C1487 1.429 . S
C1484 C1467 1.574 . S
C1484 H1478 0.949 . S
C1484 C1488 1.368 1_545 S
C1485 C1466 1.429 . S
C1485 C1479 1.429 . S
C1485 C1486 1.523 . S
C1486 C1467 1.368 . S
C1486 C1480 1.368 1_545 S
C1486 C1485 1.523 . S
C1487 C1471 1.429 . S
C1487 C1483 1.429 . S
C1487 C1488 1.523 . S
C1488 C1472 1.368 . S
C1488 C1484 1.368 1_565 S
C1488 C1487 1.523 . S
H1489 C1464 0.950 . S
H1490 C1466 0.950 . S
H1491 C1467 0.949 . S
H1492 C1469 0.950 . S
H1493 C1471 0.950 . S
C1494 C1495 1.349 . S
C1494 C1496 1.327 . S
C1494 H1519 0.950 . S
C1495 C1494 1.349 . S
C1495 C1511 1.349 . S
C1496 C1494 1.327 . S
C1496 C1515 1.429 . S
C1496 H1520 0.950 . S
C1497 C1514 1.574 . S
C1497 C1516 1.368 1_545 S
C1497 H1521 0.949 . S
H1498 C1502 0.949 . S
C1499 C1500 1.349 . S
C1499 C1501 1.327 . S
C1499 H1522 0.950 . S
C1500 C1499 1.349 . S
C1500 C1512 1.349 . S
C1501 C1499 1.327 . S
C1501 C1517 1.429 . S
C1501 H1523 0.950 . S
C1502 H1498 0.949 . S
C1502 C1510 1.574 . S
C1502 C1518 1.368 1_565 S
H1503 C1511 0.901 1_545 S
H1504 C1509 0.904 1_545 S
H1505 C1510 0.949 . S
H1506 C1512 0.903 1_565 S
H1507 C1513 0.900 1_565 S
H1508 C1514 0.949 . S
C1509 H1504 0.904 1_565 S
C1509 C1511 1.344 . S
C1509 C1515 1.458 . S
C1510 C1502 1.574 . S
C1510 H1505 0.949 . S
C1510 C1516 1.368 . S
C1511 C1495 1.349 . S
C1511 H1503 0.901 1_565 S
C1511 C1509 1.344 . S
C1512 C1500 1.349 . S
C1512 H1506 0.903 1_545 S
C1512 C1513 1.346 . S
C1513 H1507 0.900 1_545 S
C1513 C1512 1.346 . S
C1513 C1517 1.460 . S
C1514 C1497 1.574 . S
C1514 H1508 0.949 . S
C1514 C1518 1.368 . S
C1515 C1496 1.429 . S
C1515 C1509 1.458 . S
C1515 C1516 1.523 . S
C1516 C1497 1.368 1_565 S
C1516 C1510 1.368 . S
C1516 C1515 1.523 . S
C1517 C1501 1.429 . S
C1517 C1513 1.460 . S
C1517 C1518 1.523 . S
C1518 C1502 1.368 1_545 S
C1518 C1514 1.368 . S
C1518 C1517 1.523 . S
H1519 C1494 0.950 . S
H1520 C1496 0.950 . S
H1521 C1497 0.949 . S
H1522 C1499 0.950 . S
H1523 C1501 0.950 . S
C1524 C1525 1.349 . S
C1524 C1526 1.327 . S
C1524 H1549 0.950 . S
C1525 C1524 1.349 . S
C1525 C1541 1.349 . S
C1526 C1524 1.327 . S
C1526 C1545 1.429 . S
C1526 H1550 0.950 . S
C1527 C1544 1.574 . S
C1527 C1546 1.368 1_455 S
C1527 H1551 0.949 . S
H1528 C1532 0.949 . S
C1529 C1530 1.349 . S
C1529 C1531 1.327 . S
C1529 H1552 0.950 . S
C1530 C1529 1.349 . S
C1530 C1542 1.349 . S
C1531 C1529 1.327 . S
C1531 C1547 1.429 . S
C1531 H1553 0.950 . S
C1532 H1528 0.949 . S
C1532 C1540 1.574 . S
C1532 C1548 1.368 1_655 S
H1533 C1541 0.955 . S
H1534 C1539 0.950 1_455 S
H1535 C1540 0.949 . S
H1536 C1542 0.956 . S
H1537 C1543 0.950 1_655 S
H1538 C1544 0.949 . S
C1539 H1534 0.950 1_655 S
C1539 C1541 1.327 . S
C1539 C1545 1.429 . S
C1540 C1532 1.574 . S
C1540 H1535 0.949 . S
C1540 C1546 1.368 . S
C1541 C1525 1.349 . S
C1541 H1533 0.955 . S
C1541 C1539 1.327 . S
C1542 C1530 1.349 . S
C1542 H1536 0.956 . S
C1542 C1543 1.327 . S
C1543 H1537 0.950 1_455 S
C1543 C1542 1.327 . S
C1543 C1547 1.429 . S
C1544 C1527 1.574 . S
C1544 H1538 0.949 . S
C1544 C1548 1.368 . S
C1545 C1526 1.429 . S
C1545 C1539 1.429 . S
C1545 C1546 1.523 . S
C1546 C1527 1.368 1_655 S
C1546 C1540 1.368 . S
C1546 C1545 1.523 . S
C1547 C1531 1.429 . S
C1547 C1543 1.429 . S
C1547 C1548 1.523 . S
C1548 C1532 1.368 1_455 S
C1548 C1544 1.368 . S
C1548 C1547 1.523 . S
H1549 C1524 0.950 . S
H1550 C1526 0.950 . S
H1551 C1527 0.949 . S
H1552 C1529 0.950 . S
H1553 C1531 0.950 . S
C1554 C1555 1.349 . S
C1554 C1556 1.327 . S
C1554 H1579 0.950 . S
C1555 C1554 1.349 . S
C1555 C1571 1.349 . S
C1556 C1554 1.327 . S
C1556 C1575 1.429 . S
C1556 H1580 0.950 . S
C1557 C1574 1.574 . S
C1557 C1576 1.368 . S
C1557 H1581 0.949 . S
H1558 C1562 0.949 . S
C1559 C1560 1.349 . S
C1559 C1561 1.327 . S
C1559 H1582 0.950 . S
C1560 C1559 1.349 . S
C1560 C1572 1.349 . S
C1561 C1559 1.327 . S
C1561 C1577 1.429 . S
C1561 H1583 0.950 . S
C1562 H1558 0.949 . S
C1562 C1570 1.574 . S
C1562 C1578 1.368 . S
H1563 C1571 0.950 . S
H1564 C1569 0.950 . S
H1565 C1570 0.949 . S
H1566 C1572 0.950 . S
H1567 C1573 0.950 . S
H1568 C1574 0.949 . S
C1569 H1564 0.950 . S
C1569 C1571 1.327 . S
C1569 C1575 1.429 . S
C1570 C1562 1.574 . S
C1570 H1565 0.949 . S
C1570 C1576 1.368 . S
C1571 C1555 1.349 . S
C1571 H1563 0.950 . S
C1571 C1569 1.327 . S
C1572 C1560 1.349 . S
C1572 H1566 0.950 . S
C1572 C1573 1.327 . S
C1573 H1567 0.950 . S
C1573 C1572 1.327 . S
C1573 C1577 1.429 . S
C1574 C1557 1.574 . S
C1574 H1568 0.949 . S
C1574 C1578 1.368 . S
C1575 C1556 1.429 . S
C1575 C1569 1.429 . S
C1575 C1576 1.523 . S
C1576 C1557 1.368 . S
C1576 C1570 1.368 . S
C1576 C1575 1.523 . S
C1577 C1561 1.429 . S
C1577 C1573 1.429 . S
C1577 C1578 1.523 . S
C1578 C1562 1.368 . S
C1578 C1574 1.368 . S
C1578 C1577 1.523 . S
H1579 C1554 0.950 . S
H1580 C1556 0.950 . S
H1581 C1557 0.949 . S
H1582 C1559 0.950 . S
H1583 C1561 0.950 . S
C1584 C1585 1.349 . S
C1584 C1586 1.327 . S
C1584 H1609 0.950 . S
C1585 C1584 1.349 . S
C1585 C1601 1.349 . S
C1586 C1584 1.327 . S
C1586 C1605 1.429 . S
C1586 H1610 0.950 . S
C1587 C1604 1.574 . S
C1587 C1606 1.368 . S
C1587 H1611 0.949 . S
H1588 C1592 0.949 . S
C1589 C1590 1.349 . S
C1589 C1591 1.327 . S
C1589 H1612 0.950 . S
C1590 C1589 1.349 . S
C1590 C1602 1.349 . S
C1591 C1589 1.327 . S
C1591 C1607 1.429 . S
C1591 H1613 0.950 . S
C1592 H1588 0.949 . S
C1592 C1600 1.574 . S
C1592 C1608 1.368 . S
H1593 C1601 0.950 . S
H1594 C1599 0.950 . S
H1595 C1600 0.949 . S
H1596 C1602 0.950 . S
H1597 C1603 0.950 . S
H1598 C1604 0.949 . S
C1599 H1594 0.950 . S
C1599 C1601 1.327 . S
C1599 C1605 1.429 . S
C1600 C1592 1.574 . S
C1600 H1595 0.949 . S
C1600 C1606 1.368 . S
C1601 C1585 1.349 . S
C1601 H1593 0.950 . S
C1601 C1599 1.327 . S
C1602 C1590 1.349 . S
C1602 H1596 0.950 . S
C1602 C1603 1.327 . S
C1603 H1597 0.950 . S
C1603 C1602 1.327 . S
C1603 C1607 1.429 . S
C1604 C1587 1.574 . S
C1604 H1598 0.949 . S
C1604 C1608 1.368 . S
C1605 C1586 1.429 . S
C1605 C1599 1.429 . S
C1605 C1606 1.523 . S
C1606 C1587 1.368 . S
C1606 C1600 1.368 . S
C1606 C1605 1.523 . S
C1607 C1591 1.429 . S
C1607 C1603 1.429 . S
C1607 C1608 1.523 . S
C1608 C1592 1.368 . S
C1608 C1604 1.368 . S
C1608 C1607 1.523 . S
H1609 C1584 0.950 . S
H1610 C1586 0.950 . S
H1611 C1587 0.949 . S
H1612 C1589 0.950 . S
H1613 C1591 0.950 . S
C1614 C1615 1.349 . S
C1614 C1616 1.327 . S
C1614 H1639 0.950 . S
C1615 C1614 1.349 . S
C1615 C1631 1.349 . S
C1616 C1614 1.327 . S
C1616 C1635 1.429 . S
C1616 H1640 0.950 . S
C1617 C1634 1.574 . S
C1617 C1636 1.368 . S
C1617 H1641 0.949 . S
H1618 C1622 0.949 . S
C1619 C1620 1.349 . S
C1619 C1621 1.327 . S
C1619 H1642 0.950 . S
C1620 C1619 1.349 . S
C1620 C1632 1.349 . S
C1621 C1619 1.327 . S
C1621 C1637 1.429 . S
C1621 H1643 0.950 . S
C1622 H1618 0.949 . S
C1622 C1630 1.574 . S
C1622 C1638 1.368 . S
H1623 C1631 0.950 . S
H1624 C1629 0.950 . S
H1625 C1630 0.949 . S
H1626 C1632 0.950 . S
H1627 C1633 0.950 . S
H1628 C1634 0.949 . S
C1629 H1624 0.950 . S
C1629 C1631 1.327 . S
C1629 C1635 1.429 . S
C1630 C1622 1.574 . S
C1630 H1625 0.949 . S
C1630 C1636 1.368 . S
C1631 C1615 1.349 . S
C1631 H1623 0.950 . S
C1631 C1629 1.327 . S
C1632 C1620 1.349 . S
C1632 H1626 0.950 . S
C1632 C1633 1.327 . S
C1633 H1627 0.950 . S
C1633 C1632 1.327 . S
C1633 C1637 1.429 . S
C1634 C1617 1.574 . S
C1634 H1628 0.949 . S
C1634 C1638 1.368 . S
C1635 C1616 1.429 . S
C1635 C1629 1.429 . S
C1635 C1636 1.523 . S
C1636 C1617 1.368 . S
C1636 C1630 1.368 . S
C1636 C1635 1.523 . S
C1637 C1621 1.429 . S
C1637 C1633 1.429 . S
C1637 C1638 1.523 . S
C1638 C1622 1.368 . S
C1638 C1634 1.368 . S
C1638 C1637 1.523 . S
H1639 C1614 0.950 . S
H1640 C1616 0.950 . S
H1641 C1617 0.949 . S
H1642 C1619 0.950 . S
H1643 C1621 0.950 . S
C1644 C1645 1.349 . S
C1644 C1646 1.327 . S
C1644 H1669 0.950 . S
C1645 C1644 1.349 . S
C1645 C1661 1.349 . S
C1646 C1644 1.327 . S
C1646 C1665 1.429 . S
C1646 H1670 0.950 . S
C1647 C1664 1.574 . S
C1647 C1666 1.368 . S
C1647 H1671 0.949 . S
H1648 C1652 0.949 . S
C1649 C1650 1.349 . S
C1649 C1651 1.327 . S
C1649 H1672 0.950 . S
C1650 C1649 1.349 . S
C1650 C1662 1.349 . S
C1651 C1649 1.327 . S
C1651 C1667 1.429 . S
C1651 H1673 0.950 . S
C1652 H1648 0.949 . S
C1652 C1660 1.574 . S
C1652 C1668 1.368 . S
H1653 C1661 0.950 . S
H1654 C1659 0.950 . S
H1655 C1660 0.949 . S
H1656 C1662 0.950 . S
H1657 C1663 0.950 . S
H1658 C1664 0.949 . S
C1659 H1654 0.950 . S
C1659 C1661 1.327 . S
C1659 C1665 1.429 . S
C1660 C1652 1.574 . S
C1660 H1655 0.949 . S
C1660 C1666 1.368 . S
C1661 C1645 1.349 . S
C1661 H1653 0.950 . S
C1661 C1659 1.327 . S
C1662 C1650 1.349 . S
C1662 H1656 0.950 . S
C1662 C1663 1.327 . S
C1663 H1657 0.950 . S
C1663 C1662 1.327 . S
C1663 C1667 1.429 . S
C1664 C1647 1.574 . S
C1664 H1658 0.949 . S
C1664 C1668 1.368 . S
C1665 C1646 1.429 . S
C1665 C1659 1.429 . S
C1665 C1666 1.523 . S
C1666 C1647 1.368 . S
C1666 C1660 1.368 . S
C1666 C1665 1.523 . S
C1667 C1651 1.429 . S
C1667 C1663 1.429 . S
C1667 C1668 1.523 . S
C1668 C1652 1.368 . S
C1668 C1664 1.368 . S
C1668 C1667 1.523 . S
H1669 C1644 0.950 . S
H1670 C1646 0.950 . S
H1671 C1647 0.949 . S
H1672 C1649 0.950 . S
H1673 C1651 0.950 . S
C1674 C1675 1.349 . S
C1674 C1676 1.327 . S
C1674 H1699 0.950 . S
C1675 C1674 1.349 . S
C1675 C1691 1.349 . S
C1676 C1674 1.327 . S
C1676 C1695 1.429 . S
C1676 H1700 0.950 . S
C1677 C1694 1.574 . S
C1677 C1696 1.368 . S
C1677 H1701 0.949 . S
H1678 C1682 0.949 . S
C1679 C1680 1.349 . S
C1679 C1681 1.327 . S
C1679 H1702 0.950 . S
C1680 C1679 1.349 . S
C1680 C1692 1.349 . S
C1681 C1679 1.327 . S
C1681 C1697 1.429 . S
C1681 H1703 0.950 . S
C1682 H1678 0.949 . S
C1682 C1690 1.574 . S
C1682 C1698 1.368 . S
H1683 C1691 0.950 . S
H1684 C1689 0.950 . S
H1685 C1690 0.949 . S
H1686 C1692 0.950 . S
H1687 C1693 0.950 . S
H1688 C1694 0.949 . S
C1689 H1684 0.950 . S
C1689 C1691 1.327 . S
C1689 C1695 1.429 . S
C1690 C1682 1.574 . S
C1690 H1685 0.949 . S
C1690 C1696 1.368 . S
C1691 C1675 1.349 . S
C1691 H1683 0.950 . S
C1691 C1689 1.327 . S
C1692 C1680 1.349 . S
C1692 H1686 0.950 . S
C1692 C1693 1.327 . S
C1693 H1687 0.950 . S
C1693 C1692 1.327 . S
C1693 C1697 1.429 . S
C1694 C1677 1.574 . S
C1694 H1688 0.949 . S
C1694 C1698 1.368 . S
C1695 C1676 1.429 . S
C1695 C1689 1.429 . S
C1695 C1696 1.523 . S
C1696 C1677 1.368 . S
C1696 C1690 1.368 . S
C1696 C1695 1.523 . S
C1697 C1681 1.429 . S
C1697 C1693 1.429 . S
C1697 C1698 1.523 . S
C1698 C1682 1.368 . S
C1698 C1694 1.368 . S
C1698 C1697 1.523 . S
H1699 C1674 0.950 . S
H1700 C1676 0.950 . S
H1701 C1677 0.949 . S
H1702 C1679 0.950 . S
H1703 C1681 0.950 . S
C1704 C1705 1.349 . S
C1704 C1706 1.327 . S
C1704 H1729 0.950 . S
C1705 C1704 1.349 . S
C1705 C1721 1.349 . S
C1706 C1704 1.327 . S
C1706 C1725 1.429 . S
C1706 H1730 0.950 . S
C1707 C1724 1.574 . S
C1707 C1726 1.368 . S
C1707 H1731 0.949 . S
H1708 C1712 0.949 . S
C1709 C1710 1.349 . S
C1709 C1711 1.327 . S
C1709 H1732 0.950 . S
C1710 C1709 1.349 . S
C1710 C1722 1.349 . S
C1711 C1709 1.327 . S
C1711 C1727 1.429 . S
C1711 H1733 0.950 . S
C1712 H1708 0.949 . S
C1712 C1720 1.574 . S
C1712 C1728 1.368 . S
H1713 C1721 0.950 . S
H1714 C1719 0.950 . S
H1715 C1720 0.949 . S
H1716 C1722 0.950 . S
H1717 C1723 0.950 . S
H1718 C1724 0.949 . S
C1719 H1714 0.950 . S
C1719 C1721 1.327 . S
C1719 C1725 1.429 . S
C1720 C1712 1.574 . S
C1720 H1715 0.949 . S
C1720 C1726 1.368 . S
C1721 C1705 1.349 . S
C1721 H1713 0.950 . S
C1721 C1719 1.327 . S
C1722 C1710 1.349 . S
C1722 H1716 0.950 . S
C1722 C1723 1.327 . S
C1723 H1717 0.950 . S
C1723 C1722 1.327 . S
C1723 C1727 1.429 . S
C1724 C1707 1.574 . S
C1724 H1718 0.949 . S
C1724 C1728 1.368 . S
C1725 C1706 1.429 . S
C1725 C1719 1.429 . S
C1725 C1726 1.523 . S
C1726 C1707 1.368 . S
C1726 C1720 1.368 . S
C1726 C1725 1.523 . S
C1727 C1711 1.429 . S
C1727 C1723 1.429 . S
C1727 C1728 1.523 . S
C1728 C1712 1.368 . S
C1728 C1724 1.368 . S
C1728 C1727 1.523 . S
H1729 C1704 0.950 . S
H1730 C1706 0.950 . S
H1731 C1707 0.949 . S
H1732 C1709 0.950 . S
H1733 C1711 0.950 . S
C1734 C1735 1.349 . S
C1734 C1736 1.327 . S
C1734 H1759 0.950 . S
C1735 C1734 1.349 . S
C1735 C1751 1.349 . S
C1736 C1734 1.327 . S
C1736 C1755 1.429 . S
C1736 H1760 0.950 . S
C1737 C1754 1.574 . S
C1737 C1756 1.368 . S
C1737 H1761 0.949 . S
H1738 C1742 0.949 . S
C1739 C1740 1.349 . S
C1739 C1741 1.327 . S
C1739 H1762 0.950 . S
C1740 C1739 1.349 . S
C1740 C1752 1.349 . S
C1741 C1739 1.327 . S
C1741 C1757 1.429 . S
C1741 H1763 0.950 . S
C1742 H1738 0.949 . S
C1742 C1750 1.574 . S
C1742 C1758 1.368 . S
H1743 C1751 0.950 . S
H1744 C1749 0.950 . S
H1745 C1750 0.949 . S
H1746 C1752 0.950 . S
H1747 C1753 0.950 . S
H1748 C1754 0.949 . S
C1749 H1744 0.950 . S
C1749 C1751 1.327 . S
C1749 C1755 1.429 . S
C1750 C1742 1.574 . S
C1750 H1745 0.949 . S
C1750 C1756 1.368 . S
C1751 C1735 1.349 . S
C1751 H1743 0.950 . S
C1751 C1749 1.327 . S
C1752 C1740 1.349 . S
C1752 H1746 0.950 . S
C1752 C1753 1.327 . S
C1753 H1747 0.950 . S
C1753 C1752 1.327 . S
C1753 C1757 1.429 . S
C1754 C1737 1.574 . S
C1754 H1748 0.949 . S
C1754 C1758 1.368 . S
C1755 C1736 1.429 . S
C1755 C1749 1.429 . S
C1755 C1756 1.523 . S
C1756 C1737 1.368 . S
C1756 C1750 1.368 . S
C1756 C1755 1.523 . S
C1757 C1741 1.429 . S
C1757 C1753 1.429 . S
C1757 C1758 1.523 . S
C1758 C1742 1.368 . S
C1758 C1754 1.368 . S
C1758 C1757 1.523 . S
H1759 C1734 0.950 . S
H1760 C1736 0.950 . S
H1761 C1737 0.949 . S
H1762 C1739 0.950 . S
H1763 C1741 0.950 . S
C1764 C1765 1.349 . S
C1764 C1766 1.327 . S
C1764 H1789 0.950 . S
C1765 C1764 1.349 . S
C1765 C1781 1.349 . S
C1766 C1764 1.327 . S
C1766 C1785 1.429 . S
C1766 H1790 0.950 . S
C1767 C1784 1.574 . S
C1767 C1786 1.368 . S
C1767 H1791 0.949 . S
H1768 C1772 0.949 . S
C1769 C1770 1.349 . S
C1769 C1771 1.327 . S
C1769 H1792 0.950 . S
C1770 C1769 1.349 . S
C1770 C1782 1.349 . S
C1771 C1769 1.327 . S
C1771 C1787 1.429 . S
C1771 H1793 0.950 . S
C1772 H1768 0.949 . S
C1772 C1780 1.574 . S
C1772 C1788 1.368 . S
H1773 C1781 0.950 . S
H1774 C1779 0.950 . S
H1775 C1780 0.949 . S
H1776 C1782 0.950 . S
H1777 C1783 0.950 . S
H1778 C1784 0.949 . S
C1779 H1774 0.950 . S
C1779 C1781 1.327 . S
C1779 C1785 1.429 . S
C1780 C1772 1.574 . S
C1780 H1775 0.949 . S
C1780 C1786 1.368 . S
C1781 C1765 1.349 . S
C1781 H1773 0.950 . S
C1781 C1779 1.327 . S
C1782 C1770 1.349 . S
C1782 H1776 0.950 . S
C1782 C1783 1.327 . S
C1783 H1777 0.950 . S
C1783 C1782 1.327 . S
C1783 C1787 1.429 . S
C1784 C1767 1.574 . S
C1784 H1778 0.949 . S
C1784 C1788 1.368 . S
C1785 C1766 1.429 . S
C1785 C1779 1.429 . S
C1785 C1786 1.523 . S
C1786 C1767 1.368 . S
C1786 C1780 1.368 . S
C1786 C1785 1.523 . S
C1787 C1771 1.429 . S
C1787 C1783 1.429 . S
C1787 C1788 1.523 . S
C1788 C1772 1.368 . S
C1788 C1784 1.368 . S
C1788 C1787 1.523 . S
H1789 C1764 0.950 . S
H1790 C1766 0.950 . S
H1791 C1767 0.949 . S
H1792 C1769 0.950 . S
H1793 C1771 0.950 . S
C1794 C1795 1.349 . S
C1794 C1796 1.327 . S
C1794 H1819 0.950 . S
C1795 C1794 1.349 . S
C1795 C1811 1.349 . S
C1796 C1794 1.327 . S
C1796 C1815 1.429 . S
C1796 H1820 0.950 . S
C1797 C1814 1.574 . S
C1797 C1816 1.368 . S
C1797 H1821 0.949 . S
H1798 C1802 0.949 . S
C1799 C1800 1.349 . S
C1799 C1801 1.327 . S
C1799 H1822 0.950 . S
C1800 C1799 1.349 . S
C1800 C1812 1.349 . S
C1801 C1799 1.327 . S
C1801 C1817 1.429 . S
C1801 H1823 0.950 . S
C1802 H1798 0.949 . S
C1802 C1810 1.574 . S
C1802 C1818 1.368 . S
H1803 C1811 0.950 . S
H1804 C1809 0.950 . S
H1805 C1810 0.949 . S
H1806 C1812 0.950 . S
H1807 C1813 0.950 . S
H1808 C1814 0.949 . S
C1809 H1804 0.950 . S
C1809 C1811 1.327 . S
C1809 C1815 1.429 . S
C1810 C1802 1.574 . S
C1810 H1805 0.949 . S
C1810 C1816 1.368 . S
C1811 C1795 1.349 . S
C1811 H1803 0.950 . S
C1811 C1809 1.327 . S
C1812 C1800 1.349 . S
C1812 H1806 0.950 . S
C1812 C1813 1.327 . S
C1813 H1807 0.950 . S
C1813 C1812 1.327 . S
C1813 C1817 1.429 . S
C1814 C1797 1.574 . S
C1814 H1808 0.949 . S
C1814 C1818 1.368 . S
C1815 C1796 1.429 . S
C1815 C1809 1.429 . S
C1815 C1816 1.523 . S
C1816 C1797 1.368 . S
C1816 C1810 1.368 . S
C1816 C1815 1.523 . S
C1817 C1801 1.429 . S
C1817 C1813 1.429 . S
C1817 C1818 1.523 . S
C1818 C1802 1.368 . S
C1818 C1814 1.368 . S
C1818 C1817 1.523 . S
H1819 C1794 0.950 . S
H1820 C1796 0.950 . S
H1821 C1797 0.949 . S
H1822 C1799 0.950 . S
H1823 C1801 0.950 . S
C1824 C1825 1.349 . S
C1824 C1826 1.327 . S
C1824 H1849 0.950 . S
C1825 C1824 1.349 . S
C1825 C1841 1.349 . S
C1826 C1824 1.327 . S
C1826 C1845 1.429 . S
C1826 H1850 0.950 . S
C1827 C1844 1.574 . S
C1827 C1846 1.368 . S
C1827 H1851 0.949 . S
H1828 C1832 0.949 . S
C1829 C1830 1.349 . S
C1829 C1831 1.327 . S
C1829 H1852 0.950 . S
C1830 C1829 1.349 . S
C1830 C1842 1.349 . S
C1831 C1829 1.327 . S
C1831 C1847 1.429 . S
C1831 H1853 0.950 . S
C1832 H1828 0.949 . S
C1832 C1840 1.574 . S
C1832 C1848 1.368 . S
H1833 C1841 0.950 . S
H1834 C1839 0.950 . S
H1835 C1840 0.949 . S
H1836 C1842 0.950 . S
H1837 C1843 0.950 . S
H1838 C1844 0.949 . S
C1839 H1834 0.950 . S
C1839 C1841 1.327 . S
C1839 C1845 1.429 . S
C1840 C1832 1.574 . S
C1840 H1835 0.949 . S
C1840 C1846 1.368 . S
C1841 C1825 1.349 . S
C1841 H1833 0.950 . S
C1841 C1839 1.327 . S
C1842 C1830 1.349 . S
C1842 H1836 0.950 . S
C1842 C1843 1.327 . S
C1843 H1837 0.950 . S
C1843 C1842 1.327 . S
C1843 C1847 1.429 . S
C1844 C1827 1.574 . S
C1844 H1838 0.949 . S
C1844 C1848 1.368 . S
C1845 C1826 1.429 . S
C1845 C1839 1.429 . S
C1845 C1846 1.523 . S
C1846 C1827 1.368 . S
C1846 C1840 1.368 . S
C1846 C1845 1.523 . S
C1847 C1831 1.429 . S
C1847 C1843 1.429 . S
C1847 C1848 1.523 . S
C1848 C1832 1.368 . S
C1848 C1844 1.368 . S
C1848 C1847 1.523 . S
H1849 C1824 0.950 . S
H1850 C1826 0.950 . S
H1851 C1827 0.949 . S
H1852 C1829 0.950 . S
H1853 C1831 0.950 . S
C1854 C1855 1.349 . S
C1854 C1856 1.327 . S
C1854 H1879 0.950 . S
C1855 C1854 1.349 . S
C1855 C1871 1.349 . S
C1856 C1854 1.327 . S
C1856 C1875 1.429 . S
C1856 H1880 0.950 . S
C1857 C1874 1.574 . S
C1857 C1876 1.368 . S
C1857 H1881 0.949 . S
H1858 C1862 0.949 . S
C1859 C1860 1.349 . S
C1859 C1861 1.327 . S
C1859 H1882 0.950 . S
C1860 C1859 1.349 . S
C1860 C1872 1.349 . S
C1861 C1859 1.327 . S
C1861 C1877 1.429 . S
C1861 H1883 0.950 . S
C1862 H1858 0.949 . S
C1862 C1870 1.574 . S
C1862 C1878 1.368 . S
H1863 C1871 0.950 . S
H1864 C1869 0.950 . S
H1865 C1870 0.949 . S
H1866 C1872 0.950 . S
H1867 C1873 0.950 . S
H1868 C1874 0.949 . S
C1869 H1864 0.950 . S
C1869 C1871 1.327 . S
C1869 C1875 1.429 . S
C1870 C1862 1.574 . S
C1870 H1865 0.949 . S
C1870 C1876 1.368 . S
C1871 C1855 1.349 . S
C1871 H1863 0.950 . S
C1871 C1869 1.327 . S
C1872 C1860 1.349 . S
C1872 H1866 0.950 . S
C1872 C1873 1.327 . S
C1873 H1867 0.950 . S
C1873 C1872 1.327 . S
C1873 C1877 1.429 . S
C1874 C1857 1.574 . S
C1874 H1868 0.949 . S
C1874 C1878 1.368 . S
C1875 C1856 1.429 . S
C1875 C1869 1.429 . S
C1875 C1876 1.523 . S
C1876 C1857 1.368 . S
C1876 C1870 1.368 . S
C1876 C1875 1.523 . S
C1877 C1861 1.429 . S
C1877 C1873 1.429 . S
C1877 C1878 1.523 . S
C1878 C1862 1.368 . S
C1878 C1874 1.368 . S
C1878 C1877 1.523 . S
H1879 C1854 0.950 . S
H1880 C1856 0.950 . S
H1881 C1857 0.949 . S
H1882 C1859 0.950 . S
H1883 C1861 0.950 . S
C1884 C1885 1.349 . S
C1884 C1886 1.327 . S
C1884 H1909 0.950 . S
C1885 C1884 1.349 . S
C1885 C1901 1.349 . S
C1886 C1884 1.327 . S
C1886 C1905 1.429 . S
C1886 H1910 0.950 . S
C1887 C1904 1.574 . S
C1887 C1906 1.368 . S
C1887 H1911 0.949 . S
H1888 C1892 0.949 . S
C1889 C1890 1.349 . S
C1889 C1891 1.327 . S
C1889 H1912 0.950 . S
C1890 C1889 1.349 . S
C1890 C1902 1.349 . S
C1891 C1889 1.327 . S
C1891 C1907 1.429 . S
C1891 H1913 0.950 . S
C1892 H1888 0.949 . S
C1892 C1900 1.574 . S
C1892 C1908 1.368 . S
H1893 C1901 0.950 . S
H1894 C1899 0.950 . S
H1895 C1900 0.949 . S
H1896 C1902 0.950 . S
H1897 C1903 0.950 . S
H1898 C1904 0.949 . S
C1899 H1894 0.950 . S
C1899 C1901 1.327 . S
C1899 C1905 1.429 . S
C1900 C1892 1.574 . S
C1900 H1895 0.949 . S
C1900 C1906 1.368 . S
C1901 C1885 1.349 . S
C1901 H1893 0.950 . S
C1901 C1899 1.327 . S
C1902 C1890 1.349 . S
C1902 H1896 0.950 . S
C1902 C1903 1.327 . S
C1903 H1897 0.950 . S
C1903 C1902 1.327 . S
C1903 C1907 1.429 . S
C1904 C1887 1.574 . S
C1904 H1898 0.949 . S
C1904 C1908 1.368 . S
C1905 C1886 1.429 . S
C1905 C1899 1.429 . S
C1905 C1906 1.523 . S
C1906 C1887 1.368 . S
C1906 C1900 1.368 . S
C1906 C1905 1.523 . S
C1907 C1891 1.429 . S
C1907 C1903 1.429 . S
C1907 C1908 1.523 . S
C1908 C1892 1.368 . S
C1908 C1904 1.368 . S
C1908 C1907 1.523 . S
H1909 C1884 0.950 . S
H1910 C1886 0.950 . S
H1911 C1887 0.949 . S
H1912 C1889 0.950 . S
H1913 C1891 0.950 . S
C1914 C1915 1.349 . S
C1914 C1916 1.327 . S
C1914 H1939 0.950 . S
C1915 C1914 1.349 . S
C1915 C1931 1.349 . S
C1916 C1914 1.327 . S
C1916 C1935 1.429 . S
C1916 H1940 0.950 . S
C1917 C1934 1.574 . S
C1917 C1936 1.368 . S
C1917 H1941 0.949 . S
H1918 C1922 0.949 . S
C1919 C1920 1.349 . S
C1919 C1921 1.327 . S
C1919 H1942 0.950 . S
C1920 C1919 1.349 . S
C1920 C1932 1.349 . S
C1921 C1919 1.327 . S
C1921 C1937 1.429 . S
C1921 H1943 0.950 . S
C1922 H1918 0.949 . S
C1922 C1930 1.574 . S
C1922 C1938 1.368 . S
H1923 C1931 0.950 . S
H1924 C1929 0.950 . S
H1925 C1930 0.949 . S
H1926 C1932 0.950 . S
H1927 C1933 0.950 . S
H1928 C1934 0.949 . S
C1929 H1924 0.950 . S
C1929 C1931 1.327 . S
C1929 C1935 1.429 . S
C1930 C1922 1.574 . S
C1930 H1925 0.949 . S
C1930 C1936 1.368 . S
C1931 C1915 1.349 . S
C1931 H1923 0.950 . S
C1931 C1929 1.327 . S
C1932 C1920 1.349 . S
C1932 H1926 0.950 . S
C1932 C1933 1.327 . S
C1933 H1927 0.950 . S
C1933 C1932 1.327 . S
C1933 C1937 1.429 . S
C1934 C1917 1.574 . S
C1934 H1928 0.949 . S
C1934 C1938 1.368 . S
C1935 C1916 1.429 . S
C1935 C1929 1.429 . S
C1935 C1936 1.523 . S
C1936 C1917 1.368 . S
C1936 C1930 1.368 . S
C1936 C1935 1.523 . S
C1937 C1921 1.429 . S
C1937 C1933 1.429 . S
C1937 C1938 1.523 . S
C1938 C1922 1.368 . S
C1938 C1934 1.368 . S
C1938 C1937 1.523 . S
H1939 C1914 0.950 . S
H1940 C1916 0.950 . S
H1941 C1917 0.949 . S
H1942 C1919 0.950 . S
H1943 C1921 0.950 . S
C1944 C1945 1.349 . S
C1944 C1946 1.327 . S
C1944 H1969 0.950 . S
C1945 C1944 1.349 . S
C1945 C1961 1.349 . S
C1946 C1944 1.327 . S
C1946 C1965 1.429 . S
C1946 H1970 0.950 . S
C1947 C1964 1.574 . S
C1947 C1966 1.368 1_655 S
C1947 H1971 0.949 . S
H1948 C1952 0.949 . S
C1949 C1950 1.349 . S
C1949 C1951 1.327 . S
C1949 H1972 0.950 . S
C1950 C1949 1.349 . S
C1950 C1962 1.349 . S
C1951 C1949 1.327 . S
C1951 C1967 1.429 . S
C1951 H1973 0.950 . S
C1952 H1948 0.949 . S
C1952 C1960 1.574 . S
C1952 C1968 1.368 1_455 S
H1953 C1961 0.950 1_655 S
H1954 C1959 0.950 . S
H1955 C1960 0.949 . S
H1956 C1962 0.950 1_455 S
H1957 C1963 0.950 . S
H1958 C1964 0.949 . S
C1959 H1954 0.950 . S
C1959 C1961 1.327 1_655 S
C1959 C1965 1.429 1_655 S
C1960 C1952 1.574 . S
C1960 H1955 0.949 . S
C1960 C1966 1.368 . S
C1961 C1945 1.349 . S
C1961 H1953 0.950 1_455 S
C1961 C1959 1.327 1_455 S
C1962 C1950 1.349 . S
C1962 H1956 0.950 1_655 S
C1962 C1963 1.327 1_655 S
C1963 H1957 0.950 . S
C1963 C1962 1.327 1_455 S
C1963 C1967 1.429 1_455 S
C1964 C1947 1.574 . S
C1964 H1958 0.949 . S
C1964 C1968 1.368 . S
C1965 C1946 1.429 . S
C1965 C1959 1.429 1_455 S
C1965 C1966 1.523 . S
C1966 C1947 1.368 1_455 S
C1966 C1960 1.368 . S
C1966 C1965 1.523 . S
C1967 C1951 1.429 . S
C1967 C1963 1.429 1_655 S
C1967 C1968 1.523 . S
C1968 C1952 1.368 1_655 S
C1968 C1964 1.368 . S
C1968 C1967 1.523 . S
H1969 C1944 0.950 . S
H1970 C1946 0.950 . S
H1971 C1947 0.949 . S
H1972 C1949 0.950 . S
H1973 C1951 0.950 . S
C1974 C1975 1.349 . S
C1974 C1976 1.327 . S
C1974 H1999 0.950 . S
C1975 C1974 1.349 . S
C1975 C1991 1.349 . S
C1976 C1974 1.327 . S
C1976 C1995 1.429 . S
C1976 H2000 0.950 . S
C1977 C1994 1.574 . S
C1977 C1996 1.368 . S
C1977 H2001 0.949 . S
H1978 C1982 0.949 . S
C1979 C1980 1.349 . S
C1979 C1981 1.327 . S
C1979 H2002 0.950 . S
C1980 C1979 1.349 . S
C1980 C1992 1.349 . S
C1981 C1979 1.327 . S
C1981 C1997 1.429 . S
C1981 H2003 0.950 . S
C1982 H1978 0.949 . S
C1982 C1990 1.574 . S
C1982 C1998 1.368 . S
H1983 C1991 0.950 . S
H1984 C1989 0.950 . S
H1985 C1990 0.949 . S
H1986 C1992 0.950 . S
H1987 C1993 0.950 . S
H1988 C1994 0.949 . S
C1989 H1984 0.950 . S
C1989 C1991 1.327 . S
C1989 C1995 1.429 . S
C1990 C1982 1.574 . S
C1990 H1985 0.949 . S
C1990 C1996 1.368 . S
C1991 C1975 1.349 . S
C1991 H1983 0.950 . S
C1991 C1989 1.327 . S
C1992 C1980 1.349 . S
C1992 H1986 0.950 . S
C1992 C1993 1.327 . S
C1993 H1987 0.950 . S
C1993 C1992 1.327 . S
C1993 C1997 1.429 . S
C1994 C1977 1.574 . S
C1994 H1988 0.949 . S
C1994 C1998 1.368 . S
C1995 C1976 1.429 . S
C1995 C1989 1.429 . S
C1995 C1996 1.523 . S
C1996 C1977 1.368 . S
C1996 C1990 1.368 . S
C1996 C1995 1.523 . S
C1997 C1981 1.429 . S
C1997 C1993 1.429 . S
C1997 C1998 1.523 . S
C1998 C1982 1.368 . S
C1998 C1994 1.368 . S
C1998 C1997 1.523 . S
H1999 C1974 0.950 . S
H2000 C1976 0.950 . S
H2001 C1977 0.949 . S
H2002 C1979 0.950 . S
H2003 C1981 0.950 . S
C2004 C2005 1.349 . S
C2004 C2006 1.327 . S
C2004 H2029 0.950 . S
C2005 C2004 1.349 . S
C2005 C2021 1.349 . S
C2006 C2004 1.327 . S
C2006 C2025 1.429 . S
C2006 H2030 0.964 . S
C2007 C2024 1.574 . S
C2007 C2026 1.368 . S
C2007 H2031 0.949 . S
H2008 C2012 0.949 . S
C2009 C2010 1.349 . S
C2009 C2011 1.327 . S
C2009 H2032 0.950 . S
C2010 C2009 1.349 . S
C2010 C2022 1.349 . S
C2011 C2009 1.327 . S
C2011 C2027 1.429 . S
C2011 H2033 0.964 . S
C2012 H2008 0.949 . S
C2012 C2020 1.574 . S
C2012 C2028 1.368 . S
H2013 C2021 0.950 . S
H2014 C2019 0.950 . S
H2015 C2020 0.949 . S
H2016 C2022 0.950 . S
H2017 C2023 0.950 . S
H2018 C2024 0.949 . S
C2019 H2014 0.950 . S
C2019 C2021 1.327 . S
C2019 C2025 1.429 . S
C2020 C2012 1.574 . S
C2020 H2015 0.949 . S
C2020 C2026 1.368 1_565 S
C2021 C2005 1.349 . S
C2021 H2013 0.950 . S
C2021 C2019 1.327 . S
C2022 C2010 1.349 . S
C2022 H2016 0.950 . S
C2022 C2023 1.327 . S
C2023 H2017 0.950 . S
C2023 C2022 1.327 . S
C2023 C2027 1.429 . S
C2024 C2007 1.574 . S
C2024 H2018 0.949 . S
C2024 C2028 1.368 1_545 S
C2025 C2006 1.429 . S
C2025 C2019 1.429 . S
C2025 C2026 1.523 . S
C2026 C2007 1.368 . S
C2026 C2020 1.368 1_545 S
C2026 C2025 1.523 . S
C2027 C2011 1.429 . S
C2027 C2023 1.429 . S
C2027 C2028 1.523 . S
C2028 C2012 1.368 . S
C2028 C2024 1.368 1_565 S
C2028 C2027 1.523 . S
H2029 C2004 0.950 . S
H2030 C2006 0.964 . S
H2031 C2007 0.949 . S
H2032 C2009 0.950 . S
H2033 C2011 0.964 . S
C2034 C2035 1.349 . S
C2034 C2036 1.327 . S
C2034 H2059 0.950 . S
C2035 C2034 1.349 . S
C2035 C2051 1.349 . S
C2036 C2034 1.327 . S
C2036 C2055 1.429 . S
C2036 H2060 0.950 . S
C2037 C2054 1.574 . S
C2037 C2056 1.368 1_554 S
C2037 H2061 0.949 . S
H2038 C2042 0.949 . S
C2039 C2040 1.349 . S
C2039 C2041 1.327 . S
C2039 H2062 0.950 . S
C2040 C2039 1.349 . S
C2040 C2052 1.349 . S
C2041 C2039 1.327 . S
C2041 C2057 1.429 . S
C2041 H2063 0.950 . S
C2042 H2038 0.949 . S
C2042 C2050 1.574 . S
C2042 C2058 1.368 1_556 S
H2043 C2051 0.977 . S
H2044 C2049 0.950 1_554 S
H2045 C2050 0.949 . S
H2046 C2052 0.977 . S
H2047 C2053 0.950 1_556 S
H2048 C2054 0.949 . S
C2049 H2044 0.950 1_556 S
C2049 C2051 1.327 . S
C2049 C2055 1.429 . S
C2050 C2042 1.574 . S
C2050 H2045 0.949 . S
C2050 C2056 1.368 1_565 S
C2051 C2035 1.349 . S
C2051 H2043 0.977 . S
C2051 C2049 1.327 . S
C2052 C2040 1.349 . S
C2052 H2046 0.977 . S
C2052 C2053 1.327 . S
C2053 H2047 0.950 1_554 S
C2053 C2052 1.327 . S
C2053 C2057 1.429 . S
C2054 C2037 1.574 . S
C2054 H2048 0.949 . S
C2054 C2058 1.368 1_545 S
C2055 C2036 1.429 . S
C2055 C2049 1.429 . S
C2055 C2056 1.523 . S
C2056 C2037 1.368 1_556 S
C2056 C2050 1.368 1_545 S
C2056 C2055 1.523 . S
C2057 C2041 1.429 . S
C2057 C2053 1.429 . S
C2057 C2058 1.523 . S
C2058 C2042 1.368 1_554 S
C2058 C2054 1.368 1_565 S
C2058 C2057 1.523 . S
H2059 C2034 0.950 . S
H2060 C2036 0.950 . S
H2061 C2037 0.949 . S
H2062 C2039 0.950 . S
H2063 C2041 0.950 . S
C2064 C2065 1.349 . S
C2064 C2066 1.327 . S
C2064 H2089 0.950 . S
C2065 C2064 1.349 . S
C2065 C2081 1.349 . S
C2066 C2064 1.327 . S
C2066 C2085 1.429 . S
C2066 H2090 0.950 1_554 S
C2067 C2084 1.574 . S
C2067 C2086 1.368 1_655 S
C2067 H2091 0.949 . S
H2068 C2072 0.949 . S
C2069 C2070 1.349 . S
C2069 C2071 1.327 . S
C2069 H2092 0.950 . S
C2070 C2069 1.349 . S
C2070 C2082 1.349 . S
C2071 C2069 1.327 . S
C2071 C2087 1.429 . S
C2071 H2093 0.950 1_556 S
C2072 H2068 0.949 . S
C2072 C2080 1.574 . S
C2072 C2088 1.368 1_455 S
H2073 C2081 0.950 . S
H2074 C2079 0.950 1_655 S
H2075 C2080 0.949 . S
H2076 C2082 0.950 . S
H2077 C2083 0.950 1_455 S
H2078 C2084 0.949 . S
C2079 H2074 0.950 1_455 S
C2079 C2081 1.327 . S
C2079 C2085 1.429 . S
C2080 C2072 1.574 . S
C2080 H2075 0.949 . S
C2080 C2086 1.368 1_556 S
C2081 C2065 1.349 . S
C2081 H2073 0.950 . S
C2081 C2079 1.327 . S
C2082 C2070 1.349 . S
C2082 H2076 0.950 . S
C2082 C2083 1.327 . S
C2083 H2077 0.950 1_655 S
C2083 C2082 1.327 . S
C2083 C2087 1.429 . S
C2084 C2067 1.574 . S
C2084 H2078 0.949 . S
C2084 C2088 1.368 1_554 S
C2085 C2066 1.429 . S
C2085 C2079 1.429 . S
C2085 C2086 1.523 . S
C2086 C2067 1.368 1_455 S
C2086 C2080 1.368 1_554 S
C2086 C2085 1.523 . S
C2087 C2071 1.429 . S
C2087 C2083 1.429 . S
C2087 C2088 1.523 . S
C2088 C2072 1.368 1_655 S
C2088 C2084 1.368 1_556 S
C2088 C2087 1.523 . S
H2089 C2064 0.950 . S
H2090 C2066 0.950 1_556 S
H2091 C2067 0.949 . S
H2092 C2069 0.950 . S
H2093 C2071 0.950 1_554 S
C2094 C2095 1.349 . S
C2094 C2096 1.327 . S
C2094 H2119 0.950 . S
C2095 C2094 1.349 . S
C2095 C2111 1.349 . S
C2096 C2094 1.327 . S
C2096 C2115 1.429 . S
C2096 H2120 0.950 1_554 S
C2097 C2114 1.574 . S
C2097 C2116 1.368 . S
C2097 H2121 0.949 . S
H2098 C2102 0.949 . S
C2099 C2100 1.349 . S
C2099 C2101 1.327 . S
C2099 H2122 0.950 . S
C2100 C2099 1.349 . S
C2100 C2112 1.349 . S
C2101 C2099 1.327 . S
C2101 C2117 1.429 . S
C2101 H2123 0.950 1_556 S
C2102 H2098 0.949 . S
C2102 C2110 1.574 . S
C2102 C2118 1.368 . S
H2103 C2111 0.950 . S
H2104 C2109 0.950 . S
H2105 C2110 0.949 . S
H2106 C2112 0.950 . S
H2107 C2113 0.950 . S
H2108 C2114 0.949 . S
C2109 H2104 0.950 . S
C2109 C2111 1.327 . S
C2109 C2115 1.429 . S
C2110 C2102 1.574 . S
C2110 H2105 0.949 . S
C2110 C2116 1.368 1_556 S
C2111 C2095 1.349 . S
C2111 H2103 0.950 . S
C2111 C2109 1.327 . S
C2112 C2100 1.349 . S
C2112 H2106 0.950 . S
C2112 C2113 1.327 . S
C2113 H2107 0.950 . S
C2113 C2112 1.327 . S
C2113 C2117 1.429 . S
C2114 C2097 1.574 . S
C2114 H2108 0.949 . S
C2114 C2118 1.368 1_554 S
C2115 C2096 1.429 . S
C2115 C2109 1.429 . S
C2115 C2116 1.523 . S
C2116 C2097 1.368 . S
C2116 C2110 1.368 1_554 S
C2116 C2115 1.523 . S
C2117 C2101 1.429 . S
C2117 C2113 1.429 . S
C2117 C2118 1.523 . S
C2118 C2102 1.368 . S
C2118 C2114 1.368 1_556 S
C2118 C2117 1.523 . S
H2119 C2094 0.950 . S
H2120 C2096 0.950 1_556 S
H2121 C2097 0.949 . S
H2122 C2099 0.950 . S
H2123 C2101 0.950 1_554 S
C2124 C2125 1.351 . S
C2124 C2126 1.327 . S
C2124 H2149 0.950 1_554 S
C2125 C2124 1.351 . S
C2125 C2141 1.357 . S
C2126 C2124 1.327 . S
C2126 C2145 1.429 . S
C2126 H2150 0.950 . S
C2127 C2144 1.574 . S
C2127 C2146 1.368 . S
C2127 H2151 0.949 . S
H2128 C2132 0.949 . S
C2129 C2130 1.349 . S
C2129 C2131 1.327 . S
C2129 H2152 0.950 . S
C2130 C2129 1.349 . S
C2130 C2142 1.349 . S
C2131 C2129 1.327 . S
C2131 C2147 1.429 . S
C2131 H2153 0.950 . S
C2132 H2128 0.949 . S
C2132 C2140 1.574 . S
C2132 C2148 1.368 . S
H2133 C2141 0.950 . S
H2134 C2139 0.950 . S
H2135 C2140 0.949 . S
H2136 C2142 0.950 . S
H2137 C2143 0.950 . S
H2138 C2144 0.949 . S
C2139 H2134 0.950 . S
C2139 C2141 1.327 . S
C2139 C2145 1.429 . S
C2140 C2132 1.574 . S
C2140 H2135 0.949 . S
C2140 C2146 1.368 . S
C2141 C2125 1.357 . S
C2141 H2133 0.950 . S
C2141 C2139 1.327 . S
C2142 C2130 1.349 . S
C2142 H2136 0.950 . S
C2142 C2143 1.327 . S
C2143 H2137 0.950 . S
C2143 C2142 1.327 . S
C2143 C2147 1.429 . S
C2144 C2127 1.574 . S
C2144 H2138 0.949 . S
C2144 C2148 1.368 . S
C2145 C2126 1.429 . S
C2145 C2139 1.429 . S
C2145 C2146 1.523 . S
C2146 C2127 1.368 . S
C2146 C2140 1.368 . S
C2146 C2145 1.523 . S
C2147 C2131 1.429 . S
C2147 C2143 1.429 . S
C2147 C2148 1.523 . S
C2148 C2132 1.368 . S
C2148 C2144 1.368 . S
C2148 C2147 1.523 . S
H2149 C2124 0.950 1_556 S
H2150 C2126 0.950 . S
H2151 C2127 0.949 . S
H2152 C2129 0.950 . S
H2153 C2131 0.950 . S
C2154 C2155 1.349 . S
C2154 C2156 1.327 . S
C2154 H2179 0.950 . S
C2155 C2154 1.349 . S
C2155 C2171 1.349 . S
C2156 C2154 1.327 . S
C2156 C2175 1.429 . S
C2156 H2180 0.950 . S
C2157 C2174 1.574 . S
C2157 C2176 1.368 . S
C2157 H2181 0.949 . S
H2158 C2162 0.949 . S
C2159 C2160 1.348 1_556 S
C2159 C2161 1.327 1_556 S
C2159 H2182 0.950 . S
C2160 C2159 1.348 1_554 S
C2160 C2172 1.362 . S
C2161 C2159 1.327 1_554 S
C2161 C2177 1.429 . S
C2161 H2183 0.950 . S
C2162 H2158 0.949 . S
C2162 C2170 1.574 . S
C2162 C2178 1.368 . S
H2163 C2171 0.950 . S
H2164 C2169 0.950 . S
H2165 C2170 0.949 . S
H2166 C2172 0.950 . S
H2167 C2173 0.950 . S
H2168 C2174 0.949 . S
C2169 H2164 0.950 . S
C2169 C2171 1.327 . S
C2169 C2175 1.429 . S
C2170 C2162 1.574 . S
C2170 H2165 0.949 . S
C2170 C2176 1.368 . S
C2171 C2155 1.349 . S
C2171 H2163 0.950 . S
C2171 C2169 1.327 . S
C2172 C2160 1.362 . S
C2172 H2166 0.950 . S
C2172 C2173 1.327 . S
C2173 H2167 0.950 . S
C2173 C2172 1.327 . S
C2173 C2177 1.429 . S
C2174 C2157 1.574 . S
C2174 H2168 0.949 . S
C2174 C2178 1.368 . S
C2175 C2156 1.429 . S
C2175 C2169 1.429 . S
C2175 C2176 1.523 . S
C2176 C2157 1.368 . S
C2176 C2170 1.368 . S
C2176 C2175 1.523 . S
C2177 C2161 1.429 . S
C2177 C2173 1.429 . S
C2177 C2178 1.523 . S
C2178 C2162 1.368 . S
C2178 C2174 1.368 . S
C2178 C2177 1.523 . S
H2179 C2154 0.950 . S
H2180 C2156 0.950 . S
H2181 C2157 0.949 . S
H2182 C2159 0.950 . S
H2183 C2161 0.950 . S
C2184 C2185 1.363 . S
C2184 C2186 1.327 . S
C2184 H2209 0.950 . S
C2185 C2184 1.363 . S
C2185 C2201 1.346 1_554 S
C2186 C2184 1.327 . S
C2186 C2205 1.429 . S
C2186 H2210 0.950 . S
C2187 C2204 1.574 . S
C2187 C2206 1.368 . S
C2187 H2211 0.949 . S
H2188 C2192 0.949 . S
C2189 C2190 1.349 . S
C2189 C2191 1.327 . S
C2189 H2212 0.950 . S
C2190 C2189 1.349 . S
C2190 C2202 1.349 . S
C2191 C2189 1.327 . S
C2191 C2207 1.429 . S
C2191 H2213 0.950 . S
C2192 H2188 0.949 . S
C2192 C2200 1.574 . S
C2192 C2208 1.368 . S
H2193 C2201 0.950 . S
H2194 C2199 0.950 . S
H2195 C2200 0.949 . S
H2196 C2202 0.950 . S
H2197 C2203 0.950 . S
H2198 C2204 0.949 . S
C2199 H2194 0.950 . S
C2199 C2201 1.327 1_554 S
C2199 C2205 1.429 . S
C2200 C2192 1.574 . S
C2200 H2195 0.949 . S
C2200 C2206 1.368 . S
C2201 C2185 1.346 1_556 S
C2201 H2193 0.950 . S
C2201 C2199 1.327 1_556 S
C2202 C2190 1.349 . S
C2202 H2196 0.950 . S
C2202 C2203 1.327 . S
C2203 H2197 0.950 . S
C2203 C2202 1.327 . S
C2203 C2207 1.429 . S
C2204 C2187 1.574 . S
C2204 H2198 0.949 . S
C2204 C2208 1.368 . S
C2205 C2186 1.429 . S
C2205 C2199 1.429 . S
C2205 C2206 1.523 . S
C2206 C2187 1.368 . S
C2206 C2200 1.368 . S
C2206 C2205 1.523 . S
C2207 C2191 1.429 . S
C2207 C2203 1.429 . S
C2207 C2208 1.523 . S
C2208 C2192 1.368 . S
C2208 C2204 1.368 . S
C2208 C2207 1.523 . S
H2209 C2184 0.950 . S
H2210 C2186 0.950 . S
H2211 C2187 0.949 . S
H2212 C2189 0.950 . S
H2213 C2191 0.950 . S
C2214 C2215 1.349 . S
C2214 C2216 1.327 . S
C2214 H2239 0.950 . S
C2215 C2214 1.349 . S
C2215 C2231 1.349 . S
C2216 C2214 1.327 . S
C2216 C2235 1.429 . S
C2216 H2240 0.950 . S
C2217 C2234 1.574 . S
C2217 C2236 1.368 . S
C2217 H2241 0.949 . S
H2218 C2222 0.949 . S
C2219 C2220 1.349 . S
C2219 C2221 1.327 . S
C2219 H2242 0.950 . S
C2220 C2219 1.349 . S
C2220 C2232 1.349 . S
C2221 C2219 1.327 . S
C2221 C2237 1.429 . S
C2221 H2243 0.950 . S
C2222 H2218 0.949 . S
C2222 C2230 1.574 . S
C2222 C2238 1.368 . S
H2223 C2231 0.950 . S
H2224 C2229 0.950 . S
H2225 C2230 0.949 . S
H2226 C2232 0.950 . S
H2227 C2233 0.950 . S
H2228 C2234 0.949 . S
C2229 H2224 0.950 . S
C2229 C2231 1.327 . S
C2229 C2235 1.429 . S
C2230 C2222 1.574 . S
C2230 H2225 0.949 . S
C2230 C2236 1.368 . S
C2231 C2215 1.349 . S
C2231 H2223 0.950 . S
C2231 C2229 1.327 . S
C2232 C2220 1.349 . S
C2232 H2226 0.950 . S
C2232 C2233 1.327 . S
C2233 H2227 0.950 . S
C2233 C2232 1.327 . S
C2233 C2237 1.429 . S
C2234 C2217 1.574 . S
C2234 H2228 0.949 . S
C2234 C2238 1.368 . S
C2235 C2216 1.429 . S
C2235 C2229 1.429 . S
C2235 C2236 1.523 . S
C2236 C2217 1.368 . S
C2236 C2230 1.368 . S
C2236 C2235 1.523 . S
C2237 C2221 1.429 . S
C2237 C2233 1.429 . S
C2237 C2238 1.523 . S
C2238 C2222 1.368 . S
C2238 C2234 1.368 . S
C2238 C2237 1.523 . S
H2239 C2214 0.950 . S
H2240 C2216 0.950 . S
H2241 C2217 0.949 . S
H2242 C2219 0.950 . S
H2243 C2221 0.950 . S
C2244 C2245 1.349 . S
C2244 C2246 1.327 . S
C2244 H2269 0.950 . S
C2245 C2244 1.349 . S
C2245 C2261 1.349 . S
C2246 C2244 1.327 . S
C2246 C2265 1.429 . S
C2246 H2270 0.950 . S
C2247 C2264 1.574 . S
C2247 C2266 1.368 . S
C2247 H2271 0.949 . S
H2248 C2252 0.949 . S
C2249 C2250 1.349 . S
C2249 C2251 1.327 . S
C2249 H2272 0.950 . S
C2250 C2249 1.349 . S
C2250 C2262 1.349 . S
C2251 C2249 1.327 . S
C2251 C2267 1.429 . S
C2251 H2273 0.950 . S
C2252 H2248 0.949 . S
C2252 C2260 1.574 . S
C2252 C2268 1.368 . S
H2253 C2261 0.950 . S
H2254 C2259 0.950 . S
H2255 C2260 0.949 . S
H2256 C2262 0.950 . S
H2257 C2263 0.950 . S
H2258 C2264 0.949 . S
C2259 H2254 0.950 . S
C2259 C2261 1.327 . S
C2259 C2265 1.429 . S
C2260 C2252 1.574 . S
C2260 H2255 0.949 . S
C2260 C2266 1.368 . S
C2261 C2245 1.349 . S
C2261 H2253 0.950 . S
C2261 C2259 1.327 . S
C2262 C2250 1.349 . S
C2262 H2256 0.950 . S
C2262 C2263 1.327 . S
C2263 H2257 0.950 . S
C2263 C2262 1.327 . S
C2263 C2267 1.429 . S
C2264 C2247 1.574 . S
C2264 H2258 0.949 . S
C2264 C2268 1.368 . S
C2265 C2246 1.429 . S
C2265 C2259 1.429 . S
C2265 C2266 1.523 . S
C2266 C2247 1.368 . S
C2266 C2260 1.368 . S
C2266 C2265 1.523 . S
C2267 C2251 1.429 . S
C2267 C2263 1.429 . S
C2267 C2268 1.523 . S
C2268 C2252 1.368 . S
C2268 C2264 1.368 . S
C2268 C2267 1.523 . S
H2269 C2244 0.950 . S
H2270 C2246 0.950 . S
H2271 C2247 0.949 . S
H2272 C2249 0.950 . S
H2273 C2251 0.950 . S
C2274 C2275 1.349 . S
C2274 C2276 1.327 . S
C2274 H2299 0.950 . S
C2275 C2274 1.349 . S
C2275 C2291 1.349 . S
C2276 C2274 1.327 . S
C2276 C2295 1.429 . S
C2276 H2300 0.950 . S
C2277 C2294 1.574 . S
C2277 C2296 1.368 . S
C2277 H2301 0.949 . S
H2278 C2282 0.949 . S
C2279 C2280 1.349 . S
C2279 C2281 1.327 . S
C2279 H2302 0.950 . S
C2280 C2279 1.349 . S
C2280 C2292 1.349 . S
C2281 C2279 1.327 . S
C2281 C2297 1.429 . S
C2281 H2303 0.950 . S
C2282 H2278 0.949 . S
C2282 C2290 1.574 . S
C2282 C2298 1.368 . S
H2283 C2291 0.950 . S
H2284 C2289 0.950 . S
H2285 C2290 0.949 . S
H2286 C2292 0.950 . S
H2287 C2293 0.950 . S
H2288 C2294 0.949 . S
C2289 H2284 0.950 . S
C2289 C2291 1.327 . S
C2289 C2295 1.429 . S
C2290 C2282 1.574 . S
C2290 H2285 0.949 . S
C2290 C2296 1.368 . S
C2291 C2275 1.349 . S
C2291 H2283 0.950 . S
C2291 C2289 1.327 . S
C2292 C2280 1.349 . S
C2292 H2286 0.950 . S
C2292 C2293 1.327 . S
C2293 H2287 0.950 . S
C2293 C2292 1.327 . S
C2293 C2297 1.429 . S
C2294 C2277 1.574 . S
C2294 H2288 0.949 . S
C2294 C2298 1.368 . S
C2295 C2276 1.429 . S
C2295 C2289 1.429 . S
C2295 C2296 1.523 . S
C2296 C2277 1.368 . S
C2296 C2290 1.368 . S
C2296 C2295 1.523 . S
C2297 C2281 1.429 . S
C2297 C2293 1.429 . S
C2297 C2298 1.523 . S
C2298 C2282 1.368 . S
C2298 C2294 1.368 . S
C2298 C2297 1.523 . S
H2299 C2274 0.950 . S
H2300 C2276 0.950 . S
H2301 C2277 0.949 . S
H2302 C2279 0.950 . S
H2303 C2281 0.950 . S
C2304 C2305 1.349 . S
C2304 C2306 1.327 . S
C2304 H2329 0.950 . S
C2305 C2304 1.349 . S
C2305 C2321 1.349 . S
C2306 C2304 1.327 . S
C2306 C2325 1.429 . S
C2306 H2330 0.950 . S
C2307 C2324 1.574 . S
C2307 C2326 1.368 . S
C2307 H2331 0.949 . S
H2308 C2312 0.949 . S
C2309 C2310 1.361 . S
C2309 C2311 1.327 . S
C2309 H2332 0.950 . S
C2310 C2309 1.361 . S
C2310 C2322 1.347 1_556 S
C2311 C2309 1.327 . S
C2311 C2327 1.429 . S
C2311 H2333 0.950 . S
C2312 H2308 0.949 . S
C2312 C2320 1.574 . S
C2312 C2328 1.368 . S
H2313 C2321 0.950 . S
H2314 C2319 0.950 . S
H2315 C2320 0.949 . S
H2316 C2322 0.950 . S
H2317 C2323 0.950 . S
H2318 C2324 0.949 . S
C2319 H2314 0.950 . S
C2319 C2321 1.327 . S
C2319 C2325 1.429 . S
C2320 C2312 1.574 . S
C2320 H2315 0.949 . S
C2320 C2326 1.368 . S
C2321 C2305 1.349 . S
C2321 H2313 0.950 . S
C2321 C2319 1.327 . S
C2322 C2310 1.347 1_554 S
C2322 H2316 0.950 . S
C2322 C2323 1.327 1_554 S
C2323 H2317 0.950 . S
C2323 C2322 1.327 1_556 S
C2323 C2327 1.429 . S
C2324 C2307 1.574 . S
C2324 H2318 0.949 . S
C2324 C2328 1.368 . S
C2325 C2306 1.429 . S
C2325 C2319 1.429 . S
C2325 C2326 1.523 . S
C2326 C2307 1.368 . S
C2326 C2320 1.368 . S
C2326 C2325 1.523 . S
C2327 C2311 1.429 . S
C2327 C2323 1.429 . S
C2327 C2328 1.523 . S
C2328 C2312 1.368 . S
C2328 C2324 1.368 . S
C2328 C2327 1.523 . S
H2329 C2304 0.950 . S
H2330 C2306 0.950 . S
H2331 C2307 0.949 . S
H2332 C2309 0.950 . S
H2333 C2311 0.950 . S
C2334 C2335 1.347 1_554 S
C2334 C2336 1.327 1_554 S
C2334 H2359 0.950 . S
C2335 C2334 1.347 1_556 S
C2335 C2351 1.363 . S
C2336 C2334 1.327 1_556 S
C2336 C2355 1.429 . S
C2336 H2360 0.950 . S
C2337 C2354 1.574 . S
C2337 C2356 1.368 . S
C2337 H2361 0.949 . S
H2338 C2342 0.949 . S
C2339 C2340 1.349 . S
C2339 C2341 1.327 . S
C2339 H2362 0.950 . S
C2340 C2339 1.349 . S
C2340 C2352 1.349 . S
C2341 C2339 1.327 . S
C2341 C2357 1.429 . S
C2341 H2363 0.950 . S
C2342 H2338 0.949 . S
C2342 C2350 1.574 . S
C2342 C2358 1.368 . S
H2343 C2351 0.950 . S
H2344 C2349 0.950 . S
H2345 C2350 0.949 . S
H2346 C2352 0.950 . S
H2347 C2353 0.950 . S
H2348 C2354 0.949 . S
C2349 H2344 0.950 . S
C2349 C2351 1.327 . S
C2349 C2355 1.429 . S
C2350 C2342 1.574 . S
C2350 H2345 0.949 . S
C2350 C2356 1.368 . S
C2351 C2335 1.363 . S
C2351 H2343 0.950 . S
C2351 C2349 1.327 . S
C2352 C2340 1.349 . S
C2352 H2346 0.950 . S
C2352 C2353 1.327 . S
C2353 H2347 0.950 . S
C2353 C2352 1.327 . S
C2353 C2357 1.429 . S
C2354 C2337 1.574 . S
C2354 H2348 0.949 . S
C2354 C2358 1.368 . S
C2355 C2336 1.429 . S
C2355 C2349 1.429 . S
C2355 C2356 1.523 . S
C2356 C2337 1.368 . S
C2356 C2350 1.368 . S
C2356 C2355 1.523 . S
C2357 C2341 1.429 . S
C2357 C2353 1.429 . S
C2357 C2358 1.523 . S
C2358 C2342 1.368 . S
C2358 C2354 1.368 . S
C2358 C2357 1.523 . S
H2359 C2334 0.950 . S
H2360 C2336 0.950 . S
H2361 C2337 0.949 . S
H2362 C2339 0.950 . S
H2363 C2341 0.950 . S
C2364 C2365 1.349 . S
C2364 C2366 1.327 . S
C2364 H2389 0.950 . S
C2365 C2364 1.349 . S
C2365 C2381 1.349 . S
C2366 C2364 1.327 . S
C2366 C2385 1.429 . S
C2366 H2390 0.950 . S
C2367 C2384 1.574 . S
C2367 C2386 1.368 . S
C2367 H2391 0.949 . S
H2368 C2372 0.949 . S
C2369 C2370 1.357 . S
C2369 C2371 1.327 . S
C2369 H2392 0.950 . S
C2370 C2369 1.357 . S
C2370 C2382 1.352 . S
C2371 C2369 1.327 . S
C2371 C2387 1.429 . S
C2371 H2393 0.950 . S
C2372 H2368 0.949 . S
C2372 C2380 1.574 . S
C2372 C2388 1.368 . S
H2373 C2381 0.950 . S
H2374 C2379 0.950 . S
H2375 C2380 0.949 . S
H2376 C2382 0.950 1_554 S
H2377 C2383 0.950 . S
H2378 C2384 0.949 . S
C2379 H2374 0.950 . S
C2379 C2381 1.327 . S
C2379 C2385 1.429 . S
C2380 C2372 1.574 . S
C2380 H2375 0.949 . S
C2380 C2386 1.368 . S
C2381 C2365 1.349 . S
C2381 H2373 0.950 . S
C2381 C2379 1.327 . S
C2382 C2370 1.352 . S
C2382 H2376 0.950 1_556 S
C2382 C2383 1.327 . S
C2383 H2377 0.950 . S
C2383 C2382 1.327 . S
C2383 C2387 1.429 . S
C2384 C2367 1.574 . S
C2384 H2378 0.949 . S
C2384 C2388 1.368 . S
C2385 C2366 1.429 . S
C2385 C2379 1.429 . S
C2385 C2386 1.523 . S
C2386 C2367 1.368 . S
C2386 C2380 1.368 . S
C2386 C2385 1.523 . S
C2387 C2371 1.429 . S
C2387 C2383 1.429 . S
C2387 C2388 1.523 . S
C2388 C2372 1.368 . S
C2388 C2384 1.368 . S
C2388 C2387 1.523 . S
H2389 C2364 0.950 . S
H2390 C2366 0.950 . S
H2391 C2367 0.949 . S
H2392 C2369 0.950 . S
H2393 C2371 0.950 . S
C2394 C2395 1.349 . S
C2394 C2396 1.327 . S
C2394 H2419 0.950 . S
C2395 C2394 1.349 . S
C2395 C2411 1.349 . S
C2396 C2394 1.327 . S
C2396 C2415 1.429 . S
C2396 H2420 0.950 . S
C2397 C2414 1.574 . S
C2397 C2416 1.368 . S
C2397 H2421 0.949 . S
H2398 C2402 0.949 . S
C2399 C2400 1.349 . S
C2399 C2401 1.327 . S
C2399 H2422 0.950 . S
C2400 C2399 1.349 . S
C2400 C2412 1.349 . S
C2401 C2399 1.327 . S
C2401 C2417 1.429 . S
C2401 H2423 0.950 . S
C2402 H2398 0.949 . S
C2402 C2410 1.574 . S
C2402 C2418 1.368 . S
H2403 C2411 0.950 . S
H2404 C2409 0.950 . S
H2405 C2410 0.949 . S
H2406 C2412 0.950 . S
H2407 C2413 0.950 . S
H2408 C2414 0.949 . S
C2409 H2404 0.950 . S
C2409 C2411 1.327 . S
C2409 C2415 1.429 . S
C2410 C2402 1.574 . S
C2410 H2405 0.949 . S
C2410 C2416 1.368 . S
C2411 C2395 1.349 . S
C2411 H2403 0.950 . S
C2411 C2409 1.327 . S
C2412 C2400 1.349 . S
C2412 H2406 0.950 . S
C2412 C2413 1.327 . S
C2413 H2407 0.950 . S
C2413 C2412 1.327 . S
C2413 C2417 1.429 . S
C2414 C2397 1.574 . S
C2414 H2408 0.949 . S
C2414 C2418 1.368 . S
C2415 C2396 1.429 . S
C2415 C2409 1.429 . S
C2415 C2416 1.523 . S
C2416 C2397 1.368 . S
C2416 C2410 1.368 . S
C2416 C2415 1.523 . S
C2417 C2401 1.429 . S
C2417 C2413 1.429 . S
C2417 C2418 1.523 . S
C2418 C2402 1.368 . S
C2418 C2414 1.368 . S
C2418 C2417 1.523 . S
H2419 C2394 0.950 . S
H2420 C2396 0.950 . S
H2421 C2397 0.949 . S
H2422 C2399 0.950 . S
H2423 C2401 0.950 . S
C2424 C2425 1.349 . S
C2424 C2426 1.327 . S
C2424 H2449 0.950 . S
C2425 C2424 1.349 . S
C2425 C2441 1.349 . S
C2426 C2424 1.327 . S
C2426 C2445 1.429 . S
C2426 H2450 0.950 . S
C2427 C2444 1.574 . S
C2427 C2446 1.368 . S
C2427 H2451 0.949 . S
H2428 C2432 0.949 . S
C2429 C2430 1.349 . S
C2429 C2431 1.327 . S
C2429 H2452 0.950 . S
C2430 C2429 1.349 . S
C2430 C2442 1.349 . S
C2431 C2429 1.327 . S
C2431 C2447 1.429 . S
C2431 H2453 0.950 . S
C2432 H2428 0.949 . S
C2432 C2440 1.574 . S
C2432 C2448 1.368 . S
H2433 C2441 0.950 . S
H2434 C2439 0.950 . S
H2435 C2440 0.949 . S
H2436 C2442 0.950 . S
H2437 C2443 0.950 . S
H2438 C2444 0.949 . S
C2439 H2434 0.950 . S
C2439 C2441 1.327 . S
C2439 C2445 1.429 . S
C2440 C2432 1.574 . S
C2440 H2435 0.949 . S
C2440 C2446 1.368 . S
C2441 C2425 1.349 . S
C2441 H2433 0.950 . S
C2441 C2439 1.327 . S
C2442 C2430 1.349 . S
C2442 H2436 0.950 . S
C2442 C2443 1.327 . S
C2443 H2437 0.950 . S
C2443 C2442 1.327 . S
C2443 C2447 1.429 . S
C2444 C2427 1.574 . S
C2444 H2438 0.949 . S
C2444 C2448 1.368 . S
C2445 C2426 1.429 . S
C2445 C2439 1.429 . S
C2445 C2446 1.523 . S
C2446 C2427 1.368 . S
C2446 C2440 1.368 . S
C2446 C2445 1.523 . S
C2447 C2431 1.429 . S
C2447 C2443 1.429 . S
C2447 C2448 1.523 . S
C2448 C2432 1.368 . S
C2448 C2444 1.368 . S
C2448 C2447 1.523 . S
H2449 C2424 0.950 . S
H2450 C2426 0.950 . S
H2451 C2427 0.949 . S
H2452 C2429 0.950 . S
H2453 C2431 0.950 . S
C2454 C2455 1.349 . S
C2454 C2456 1.327 . S
C2454 H2479 0.950 . S
C2455 C2454 1.349 . S
C2455 C2471 1.349 . S
C2456 C2454 1.327 . S
C2456 C2475 1.429 . S
C2456 H2480 0.950 . S
C2457 C2474 1.574 . S
C2457 C2476 1.368 . S
C2457 H2481 0.949 . S
H2458 C2462 0.949 . S
C2459 C2460 1.349 . S
C2459 C2461 1.327 . S
C2459 H2482 0.950 . S
C2460 C2459 1.349 . S
C2460 C2472 1.349 . S
C2461 C2459 1.327 . S
C2461 C2477 1.429 . S
C2461 H2483 0.950 . S
C2462 H2458 0.949 . S
C2462 C2470 1.574 . S
C2462 C2478 1.368 . S
H2463 C2471 0.950 . S
H2464 C2469 0.950 . S
H2465 C2470 0.949 . S
H2466 C2472 0.950 . S
H2467 C2473 0.950 . S
H2468 C2474 0.949 . S
C2469 H2464 0.950 . S
C2469 C2471 1.327 . S
C2469 C2475 1.429 . S
C2470 C2462 1.574 . S
C2470 H2465 0.949 . S
C2470 C2476 1.368 . S
C2471 C2455 1.349 . S
C2471 H2463 0.950 . S
C2471 C2469 1.327 . S
C2472 C2460 1.349 . S
C2472 H2466 0.950 . S
C2472 C2473 1.327 . S
C2473 H2467 0.950 . S
C2473 C2472 1.327 . S
C2473 C2477 1.429 . S
C2474 C2457 1.574 . S
C2474 H2468 0.949 . S
C2474 C2478 1.368 . S
C2475 C2456 1.429 . S
C2475 C2469 1.429 . S
C2475 C2476 1.523 . S
C2476 C2457 1.368 . S
C2476 C2470 1.368 . S
C2476 C2475 1.523 . S
C2477 C2461 1.429 . S
C2477 C2473 1.429 . S
C2477 C2478 1.523 . S
C2478 C2462 1.368 . S
C2478 C2474 1.368 . S
C2478 C2477 1.523 . S
H2479 C2454 0.950 . S
H2480 C2456 0.950 . S
H2481 C2457 0.949 . S
H2482 C2459 0.950 . S
H2483 C2461 0.950 . S
C2484 C2485 1.349 . S
C2484 C2486 1.327 . S
C2484 H2509 0.950 . S
C2485 C2484 1.349 . S
C2485 C2501 1.349 . S
C2486 C2484 1.327 . S
C2486 C2505 1.429 . S
C2486 H2510 0.950 . S
C2487 C2504 1.574 . S
C2487 C2506 1.368 . S
C2487 H2511 0.949 . S
H2488 C2492 0.949 . S
C2489 C2490 1.349 . S
C2489 C2491 1.327 . S
C2489 H2512 0.950 . S
C2490 C2489 1.349 . S
C2490 C2502 1.349 . S
C2491 C2489 1.327 . S
C2491 C2507 1.429 . S
C2491 H2513 0.950 . S
C2492 H2488 0.949 . S
C2492 C2500 1.574 . S
C2492 C2508 1.368 . S
H2493 C2501 0.950 . S
H2494 C2499 0.950 . S
H2495 C2500 0.949 . S
H2496 C2502 0.950 . S
H2497 C2503 0.950 . S
H2498 C2504 0.949 . S
C2499 H2494 0.950 . S
C2499 C2501 1.327 . S
C2499 C2505 1.429 . S
C2500 C2492 1.574 . S
C2500 H2495 0.949 . S
C2500 C2506 1.368 . S
C2501 C2485 1.349 . S
C2501 H2493 0.950 . S
C2501 C2499 1.327 . S
C2502 C2490 1.349 . S
C2502 H2496 0.950 . S
C2502 C2503 1.327 . S
C2503 H2497 0.950 . S
C2503 C2502 1.327 . S
C2503 C2507 1.429 . S
C2504 C2487 1.574 . S
C2504 H2498 0.949 . S
C2504 C2508 1.368 . S
C2505 C2486 1.429 . S
C2505 C2499 1.429 . S
C2505 C2506 1.523 . S
C2506 C2487 1.368 . S
C2506 C2500 1.368 . S
C2506 C2505 1.523 . S
C2507 C2491 1.429 . S
C2507 C2503 1.429 . S
C2507 C2508 1.523 . S
C2508 C2492 1.368 . S
C2508 C2504 1.368 . S
C2508 C2507 1.523 . S
H2509 C2484 0.950 . S
H2510 C2486 0.950 . S
H2511 C2487 0.949 . S
H2512 C2489 0.950 . S
H2513 C2491 0.950 . S
C2514 C2515 1.349 . S
C2514 C2516 1.327 . S
C2514 H2539 0.950 . S
C2515 C2514 1.349 . S
C2515 C2531 1.349 . S
C2516 C2514 1.327 . S
C2516 C2535 1.429 . S
C2516 H2540 0.950 . S
C2517 C2534 1.574 . S
C2517 C2536 1.368 . S
C2517 H2541 0.949 . S
H2518 C2522 0.949 . S
C2519 C2520 1.349 . S
C2519 C2521 1.327 . S
C2519 H2542 0.950 . S
C2520 C2519 1.349 . S
C2520 C2532 1.349 . S
C2521 C2519 1.327 . S
C2521 C2537 1.429 . S
C2521 H2543 0.950 . S
C2522 H2518 0.949 . S
C2522 C2530 1.574 . S
C2522 C2538 1.368 . S
H2523 C2531 0.950 . S
H2524 C2529 0.950 . S
H2525 C2530 0.949 . S
H2526 C2532 0.950 . S
H2527 C2533 0.950 . S
H2528 C2534 0.949 . S
C2529 H2524 0.950 . S
C2529 C2531 1.327 . S
C2529 C2535 1.429 . S
C2530 C2522 1.574 . S
C2530 H2525 0.949 . S
C2530 C2536 1.368 1_565 S
C2531 C2515 1.349 . S
C2531 H2523 0.950 . S
C2531 C2529 1.327 . S
C2532 C2520 1.349 . S
C2532 H2526 0.950 . S
C2532 C2533 1.327 . S
C2533 H2527 0.950 . S
C2533 C2532 1.327 . S
C2533 C2537 1.429 . S
C2534 C2517 1.574 . S
C2534 H2528 0.949 . S
C2534 C2538 1.368 1_545 S
C2535 C2516 1.429 . S
C2535 C2529 1.429 . S
C2535 C2536 1.523 . S
C2536 C2517 1.368 . S
C2536 C2530 1.368 1_545 S
C2536 C2535 1.523 . S
C2537 C2521 1.429 . S
C2537 C2533 1.429 . S
C2537 C2538 1.523 . S
C2538 C2522 1.368 . S
C2538 C2534 1.368 1_565 S
C2538 C2537 1.523 . S
H2539 C2514 0.950 . S
H2540 C2516 0.950 . S
H2541 C2517 0.949 . S
H2542 C2519 0.950 . S
H2543 C2521 0.950 . S
C2544 C2545 1.349 . S
C2544 C2546 1.327 . S
C2544 H2569 0.950 . S
C2545 C2544 1.349 . S
C2545 C2561 1.349 . S
C2546 C2544 1.327 . S
C2546 C2565 1.429 . S
C2546 H2570 0.950 . S
C2547 C2564 1.574 1_655 S
C2547 C2566 1.368 . S
C2547 H2571 0.949 . S
H2548 C2552 0.949 . S
C2549 C2550 1.349 . S
C2549 C2551 1.327 . S
C2549 H2572 0.950 . S
C2550 C2549 1.349 . S
C2550 C2562 1.349 . S
C2551 C2549 1.327 . S
C2551 C2567 1.429 . S
C2551 H2573 0.950 . S
C2552 H2548 0.949 . S
C2552 C2560 1.574 1_455 S
C2552 C2568 1.368 . S
H2553 C2561 0.950 . S
H2554 C2559 0.950 . S
H2555 C2560 0.949 . S
H2556 C2562 0.950 . S
H2557 C2563 0.950 . S
H2558 C2564 0.949 . S
C2559 H2554 0.950 . S
C2559 C2561 1.327 . S
C2559 C2565 1.429 . S
C2560 C2552 1.574 1_655 S
C2560 H2555 0.949 . S
C2560 C2566 1.368 . S
C2561 C2545 1.349 . S
C2561 H2553 0.950 . S
C2561 C2559 1.327 . S
C2562 C2550 1.349 . S
C2562 H2556 0.950 . S
C2562 C2563 1.327 . S
C2563 H2557 0.950 . S
C2563 C2562 1.327 . S
C2563 C2567 1.429 . S
C2564 C2547 1.574 1_455 S
C2564 H2558 0.949 . S
C2564 C2568 1.368 . S
C2565 C2546 1.429 . S
C2565 C2559 1.429 . S
C2565 C2566 1.523 . S
C2566 C2547 1.368 . S
C2566 C2560 1.368 . S
C2566 C2565 1.523 . S
C2567 C2551 1.429 . S
C2567 C2563 1.429 . S
C2567 C2568 1.523 . S
C2568 C2552 1.368 . S
C2568 C2564 1.368 . S
C2568 C2567 1.523 . S
H2569 C2544 0.950 . S
H2570 C2546 0.950 . S
H2571 C2547 0.949 . S
H2572 C2549 0.950 . S
H2573 C2551 0.950 . S
C2574 C2575 1.349 . S
C2574 C2576 1.327 . S
C2574 H2599 0.950 . S
C2575 C2574 1.349 . S
C2575 C2591 1.349 . S
C2576 C2574 1.327 . S
C2576 C2595 1.429 . S
C2576 H2600 0.950 . S
C2577 C2594 1.574 . S
C2577 C2596 1.368 . S
C2577 H2601 0.949 . S
H2578 C2582 0.949 . S
C2579 C2580 1.349 . S
C2579 C2581 1.327 . S
C2579 H2602 0.950 . S
C2580 C2579 1.349 . S
C2580 C2592 1.349 . S
C2581 C2579 1.327 . S
C2581 C2597 1.429 . S
C2581 H2603 0.950 . S
C2582 H2578 0.949 . S
C2582 C2590 1.574 . S
C2582 C2598 1.368 . S
H2583 C2591 0.950 . S
H2584 C2589 0.950 . S
H2585 C2590 0.949 . S
H2586 C2592 0.950 . S
H2587 C2593 0.950 . S
H2588 C2594 0.949 . S
C2589 H2584 0.950 . S
C2589 C2591 1.327 . S
C2589 C2595 1.429 . S
C2590 C2582 1.574 . S
C2590 H2585 0.949 . S
C2590 C2596 1.368 . S
C2591 C2575 1.349 . S
C2591 H2583 0.950 . S
C2591 C2589 1.327 . S
C2592 C2580 1.349 . S
C2592 H2586 0.950 . S
C2592 C2593 1.327 . S
C2593 H2587 0.950 . S
C2593 C2592 1.327 . S
C2593 C2597 1.429 . S
C2594 C2577 1.574 . S
C2594 H2588 0.949 . S
C2594 C2598 1.368 . S
C2595 C2576 1.429 . S
C2595 C2589 1.429 . S
C2595 C2596 1.523 . S
C2596 C2577 1.368 . S
C2596 C2590 1.368 . S
C2596 C2595 1.523 . S
C2597 C2581 1.429 . S
C2597 C2593 1.429 . S
C2597 C2598 1.523 . S
C2598 C2582 1.368 . S
C2598 C2594 1.368 . S
C2598 C2597 1.523 . S
H2599 C2574 0.950 . S
H2600 C2576 0.950 . S
H2601 C2577 0.949 . S
H2602 C2579 0.950 . S
H2603 C2581 0.950 . S
C2604 C2605 1.349 . S
C2604 C2606 1.327 . S
C2604 H2629 0.950 . S
C2605 C2604 1.349 . S
C2605 C2621 1.349 . S
C2606 C2604 1.327 . S
C2606 C2625 1.429 . S
C2606 H2630 0.950 . S
C2607 C2624 1.574 . S
C2607 C2626 1.368 . S
C2607 H2631 0.949 . S
H2608 C2612 0.949 . S
C2609 C2610 1.349 . S
C2609 C2611 1.327 . S
C2609 H2632 0.950 . S
C2610 C2609 1.349 . S
C2610 C2622 1.349 . S
C2611 C2609 1.327 . S
C2611 C2627 1.429 . S
C2611 H2633 0.950 . S
C2612 H2608 0.949 . S
C2612 C2620 1.574 . S
C2612 C2628 1.368 . S
H2613 C2621 0.950 . S
H2614 C2619 0.950 . S
H2615 C2620 0.949 . S
H2616 C2622 0.950 . S
H2617 C2623 0.950 . S
H2618 C2624 0.949 . S
C2619 H2614 0.950 . S
C2619 C2621 1.327 . S
C2619 C2625 1.429 . S
C2620 C2612 1.574 . S
C2620 H2615 0.949 . S
C2620 C2626 1.368 1_565 S
C2621 C2605 1.349 . S
C2621 H2613 0.950 . S
C2621 C2619 1.327 . S
C2622 C2610 1.349 . S
C2622 H2616 0.950 . S
C2622 C2623 1.327 . S
C2623 H2617 0.950 . S
C2623 C2622 1.327 . S
C2623 C2627 1.429 . S
C2624 C2607 1.574 . S
C2624 H2618 0.949 . S
C2624 C2628 1.368 1_545 S
C2625 C2606 1.429 . S
C2625 C2619 1.429 . S
C2625 C2626 1.523 . S
C2626 C2607 1.368 . S
C2626 C2620 1.368 1_545 S
C2626 C2625 1.523 . S
C2627 C2611 1.429 . S
C2627 C2623 1.429 . S
C2627 C2628 1.523 . S
C2628 C2612 1.368 . S
C2628 C2624 1.368 1_565 S
C2628 C2627 1.523 . S
H2629 C2604 0.950 . S
H2630 C2606 0.950 . S
H2631 C2607 0.949 . S
H2632 C2609 0.950 . S
H2633 C2611 0.950 . S
C2634 C2635 1.349 . S
C2634 C2636 1.327 . S
C2634 H2659 0.950 . S
C2635 C2634 1.349 . S
C2635 C2651 1.349 . S
C2636 C2634 1.327 . S
C2636 C2655 1.429 . S
C2636 H2660 0.950 . S
C2637 C2654 1.574 1_455 S
C2637 C2656 1.368 . S
C2637 H2661 0.949 . S
H2638 C2642 0.949 . S
C2639 C2640 1.349 . S
C2639 C2641 1.327 . S
C2639 H2662 0.950 . S
C2640 C2639 1.349 . S
C2640 C2652 1.349 . S
C2641 C2639 1.327 . S
C2641 C2657 1.429 . S
C2641 H2663 0.950 . S
C2642 H2638 0.949 . S
C2642 C2650 1.574 1_655 S
C2642 C2658 1.368 . S
H2643 C2651 0.950 . S
H2644 C2649 0.950 . S
H2645 C2650 0.949 . S
H2646 C2652 0.950 . S
H2647 C2653 0.950 . S
H2648 C2654 0.949 . S
C2649 H2644 0.950 . S
C2649 C2651 1.327 . S
C2649 C2655 1.429 . S
C2650 C2642 1.574 1_455 S
C2650 H2645 0.949 . S
C2650 C2656 1.368 . S
C2651 C2635 1.349 . S
C2651 H2643 0.950 . S
C2651 C2649 1.327 . S
C2652 C2640 1.349 . S
C2652 H2646 0.950 . S
C2652 C2653 1.327 . S
C2653 H2647 0.950 . S
C2653 C2652 1.327 . S
C2653 C2657 1.429 . S
C2654 C2637 1.574 1_655 S
C2654 H2648 0.949 . S
C2654 C2658 1.368 . S
C2655 C2636 1.429 . S
C2655 C2649 1.429 . S
C2655 C2656 1.523 . S
C2656 C2637 1.368 . S
C2656 C2650 1.368 . S
C2656 C2655 1.523 . S
C2657 C2641 1.429 . S
C2657 C2653 1.429 . S
C2657 C2658 1.523 . S
C2658 C2642 1.368 . S
C2658 C2654 1.368 . S
C2658 C2657 1.523 . S
H2659 C2634 0.950 . S
H2660 C2636 0.950 . S
H2661 C2637 0.949 . S
H2662 C2639 0.950 . S
H2663 C2641 0.950 . S
C505 C79 1.110 . S
C510 C9 1.110 . S
C535 C51 1.110 . S
C540 C23 1.110 . S
C565 C37 1.110 . S
C570 C65 1.110 . S
C595 C93 1.110 . S
C600 C163 1.110 . S
C625 C107 1.110 . S
C630 C135 1.110 . S
C655 C149 1.109 . S
C660 C121 1.109 . S
C685 C177 1.110 . S
C690 C247 1.110 . S
C715 C191 1.110 . S
C720 C219 1.109 . S
C745 C233 1.109 . S
C750 C205 1.109 . S
C775 C331 1.110 . S
C780 C261 1.110 . S
C805 C303 1.110 . S
C810 C275 1.110 . S
C835 C289 1.109 . S
C840 C317 1.109 . S
C865 C415 1.110 . S
C870 C345 1.110 . S
C895 C387 1.110 . S
C900 C359 1.110 . S
C925 C373 1.110 . S
C930 C401 1.110 . S
C955 C499 1.110 . S
C960 C429 1.110 . S
C985 C471 1.110 . S
C990 C443 1.110 . S
C1015 C485 1.109 . S
C1020 C457 1.109 . S
C1045 C232 1.611 . S
C1050 C8 1.612 . S
C1075 C246 1.612 . S
C1080 C22 1.612 . S
C1105 C218 1.612 . S
C1110 C36 1.612 . S
C1135 C50 1.612 . S
C1140 C372 1.612 . S
C1165 C64 1.612 . S
C1170 C344 1.612 . S
C1195 C78 1.612 . S
C1200 C358 1.612 . S
C1225 C92 1.612 . S
C1230 C484 1.611 . S
C1255 C498 1.612 . S
C1260 C106 1.612 . S
C1285 C470 1.612 . S
C1290 C120 1.612 . S
C1315 C288 1.612 . S
C1320 C134 1.612 . S
C1345 C260 1.612 . S
C1350 C148 1.612 . S
C1375 C162 1.612 . S
C1380 C274 1.612 . S
C1405 C176 1.611 . S
C1410 C400 1.611 . S
C1435 C414 1.611 . S
C1440 C190 1.611 . S
C1465 C386 1.611 . S
C1470 C204 1.611 . S
C1495 C302 1.611 . S
C1500 C456 1.611 . S
C1525 C428 1.611 . S
C1530 C316 1.611 . S
C1555 C330 1.612 . S
C1560 C442 1.612 . S
C1585 C258 1.518 . S
C1590 C6 1.518 . S
C1615 C272 1.519 . S
C1620 C20 1.519 . S
C1645 C34 1.519 . S
C1650 C286 1.519 . S
C1675 C48 1.518 . S
C1680 C468 1.518 . S
C1705 C482 1.519 . S
C1710 C62 1.519 . S
C1735 C496 1.519 . S
C1740 C76 1.519 . S
C1765 C90 1.518 . S
C1770 C342 1.518 . S
C1795 C104 1.519 . S
C1800 C356 1.519 . S
C1825 C370 1.519 . S
C1830 C118 1.519 . S
C1855 C132 1.518 . S
C1860 C216 1.518 . S
C1885 C146 1.519 . S
C1890 C230 1.519 . S
C1915 C244 1.519 . S
C1920 C160 1.519 . S
C1945 C174 1.518 . S
C1950 C426 1.518 . S
C1975 C188 1.518 . S
C1980 C440 1.518 . S
C2005 C454 1.518 . S
C2010 C202 1.518 . S
C2035 C384 1.518 . S
C2040 C300 1.518 . S
C2065 C314 1.518 . S
C2070 C398 1.518 . S
C2095 C328 1.518 . S
C2100 C412 1.518 . S
C2125 C385 1.152 1_554 S
C2130 C7 1.164 . S
C2155 C21 1.165 . S
C2160 C399 1.151 1_554 S
C2185 C413 1.151 1_554 S
C2190 C35 1.165 . S
C2215 C49 1.164 . S
C2220 C175 1.164 . S
C2245 C189 1.165 . S
C2250 C63 1.165 . S
C2275 C203 1.165 . S
C2280 C77 1.165 . S
C2305 C91 1.164 . S
C2310 C301 1.152 1_556 S
C2335 C315 1.151 1_556 S
C2340 C105 1.165 . S
C2365 C119 1.165 . S
C2370 C329 1.151 1_556 S
C2395 C133 1.164 . S
C2400 C427 1.164 . S
C2425 C147 1.165 . S
C2430 C441 1.165 . S
C2455 C455 1.165 . S
C2460 C161 1.165 . S
C2485 C217 1.164 . S
C2490 C343 1.164 . S
C2515 C231 1.165 . S
C2520 C357 1.165 . S
C2545 C245 1.165 . S
C2550 C371 1.165 . S
C2575 C259 1.164 . S
C2580 C469 1.164 . S
C2605 C273 1.165 . S
C2610 C483 1.165 . S
C2635 C497 1.165 . S
C2640 C287 1.165 . S
