# Generated by pormake.
# Topology umj, (4)-cn, num edge types: 1
# Building blocks:
#     Node 0, Type 0, BuildingBlock: NAWXER_clean_sbu_0, # of connection points: 4
#     Node 1, Type 0, BuildingBlock: NAWXER_clean_sbu_0, # of connection points: 4
#     Node 2, Type 0, BuildingBlock: NAWXER_clean_sbu_0, # of connection points: 4
#     Node 3, Type 0, BuildingBlock: NAWXER_clean_sbu_0, # of connection points: 4
#     Node 4, Type 0, BuildingBlock: NAWXER_clean_sbu_0, # of connection points: 4
#     Node 5, Type 0, BuildingBlock: NAWXER_clean_sbu_0, # of connection points: 4
#     Node 6, Type 0, BuildingBlock: NAWXER_clean_sbu_0, # of connection points: 4
#     Node 7, Type 0, BuildingBlock: NAWXER_clean_sbu_0, # of connection points: 4
#     Node 8, Type 0, BuildingBlock: NAWXER_clean_sbu_0, # of connection points: 4
#     Node 9, Type 0, BuildingBlock: NAWXER_clean_sbu_0, # of connection points: 4
#     Node 10, Type 0, BuildingBlock: NAWXER_clean_sbu_0, # of connection points: 4
#     Node 11, Type 0, BuildingBlock: NAWXER_clean_sbu_0, # of connection points: 4
#     Edge 12, Type (0, 0), BuildingBlock: KIFKEQ_clean_linker_1, # of connection points: 2
#     Edge 13, Type (0, 0), BuildingBlock: KIFKEQ_clean_linker_1, # of connection points: 2
#     Edge 14, Type (0, 0), BuildingBlock: KIFKEQ_clean_linker_1, # of connection points: 2
#     Edge 15, Type (0, 0), BuildingBlock: KIFKEQ_clean_linker_1, # of connection points: 2
#     Edge 16, Type (0, 0), BuildingBlock: KIFKEQ_clean_linker_1, # of connection points: 2
#     Edge 17, Type (0, 0), BuildingBlock: KIFKEQ_clean_linker_1, # of connection points: 2
#     Edge 18, Type (0, 0), BuildingBlock: KIFKEQ_clean_linker_1, # of connection points: 2
#     Edge 19, Type (0, 0), BuildingBlock: KIFKEQ_clean_linker_1, # of connection points: 2
#     Edge 20, Type (0, 0), BuildingBlock: KIFKEQ_clean_linker_1, # of connection points: 2
#     Edge 21, Type (0, 0), BuildingBlock: KIFKEQ_clean_linker_1, # of connection points: 2
#     Edge 22, Type (0, 0), BuildingBlock: KIFKEQ_clean_linker_1, # of connection points: 2
#     Edge 23, Type (0, 0), BuildingBlock: KIFKEQ_clean_linker_1, # of connection points: 2
#     Edge 24, Type (0, 0), BuildingBlock: KIFKEQ_clean_linker_1, # of connection points: 2
#     Edge 25, Type (0, 0), BuildingBlock: KIFKEQ_clean_linker_1, # of connection points: 2
#     Edge 26, Type (0, 0), BuildingBlock: KIFKEQ_clean_linker_1, # of connection points: 2
#     Edge 27, Type (0, 0), BuildingBlock: KIFKEQ_clean_linker_1, # of connection points: 2
#     Edge 28, Type (0, 0), BuildingBlock: KIFKEQ_clean_linker_1, # of connection points: 2
#     Edge 29, Type (0, 0), BuildingBlock: KIFKEQ_clean_linker_1, # of connection points: 2
#     Edge 30, Type (0, 0), BuildingBlock: KIFKEQ_clean_linker_1, # of connection points: 2
#     Edge 31, Type (0, 0), BuildingBlock: KIFKEQ_clean_linker_1, # of connection points: 2
#     Edge 32, Type (0, 0), BuildingBlock: KIFKEQ_clean_linker_1, # of connection points: 2
#     Edge 33, Type (0, 0), BuildingBlock: KIFKEQ_clean_linker_1, # of connection points: 2
#     Edge 34, Type (0, 0), BuildingBlock: KIFKEQ_clean_linker_1, # of connection points: 2
#     Edge 35, Type (0, 0), BuildingBlock: KIFKEQ_clean_linker_1, # of connection points: 2
# Relax obj value: 0.019
# Max RMSD: 0.124
# Mean RMSD: 0.123
data_MOF--net-umj--node1-NAWXER_clean_sbu_0--edge1-KIFKEQ_clean_linker_1
_symmetry_space_group_name_H-M    P1
_symmetry_Int_Tables_number       1
_symmetry_cell_setting            triclinic
loop_
_symmetry_equiv_pos_as_xyz
'x, y, z'
_cell_length_a     30.057172
_cell_length_b     30.059278
_cell_length_c     86.226574
_cell_angle_alpha  90.005398
_cell_angle_beta   89.986279
_cell_angle_gamma 120.02331
loop_
_atom_site_label
_atom_site_type_symbol
_atom_site_fract_x
_atom_site_fract_y
_atom_site_fract_z
_atom_type_partial_charge
C0 C 0.05583 0.27726 0.1221 0.0
C1 C 0.11372 0.31154 0.06781 0.0
O2 O 0.10235 0.29975 0.1175 0.0
Zn3 Zn 0.08855 0.29472 0.09524 0.0
O4 O 0.0195 0.25999 0.11209 0.0
Zn5 Zn 0.00923 0.25562 0.08764 0.0
O6 O 0.97594 0.18173 0.08354 0.0
O7 O 0.05638 0.21483 0.09114 0.0
O8 O 0.06495 0.28646 0.06971 0.0
O9 O 0.14313 0.32413 0.07961 0.0
O10 O 0.05515 0.34221 0.09242 0.0
O11 O 0.97475 0.29538 0.08457 0.0
C12 C 0.01409 0.17593 0.08676 0.0
C13 C 0.01268 0.33897 0.0883 0.0
C14 C 0.803 0.10999 0.40096 0.0
C15 C 0.78033 0.0534 0.45537 0.0
O16 O 0.8202 0.13969 0.41269 0.0
Zn17 Zn 0.79517 0.08554 0.42845 0.0
O18 O 0.77913 0.06127 0.40297 0.0
Zn19 Zn 0.75429 0.006 0.42102 0.0
O20 O 0.67995 0.97195 0.41811 0.0
O21 O 0.71429 0.05258 0.4258 0.0
O22 O 0.76085 0.01687 0.44544 0.0
O23 O 0.8045 0.09982 0.45069 0.0
O24 O 0.84233 0.05278 0.42434 0.0
O25 O 0.79443 0.9722 0.41692 0.0
C26 C 0.67475 0.01018 0.4218 0.0
C27 C 0.83857 0.01027 0.42003 0.0
C28 C 0.7318 0.77871 0.78865 0.0
C29 C 0.69837 0.80258 0.7343 0.0
O30 O 0.70967 0.80304 0.78403 0.0
Zn31 Zn 0.71489 0.79431 0.76176 0.0
O32 O 0.74899 0.75951 0.77867 0.0
Zn33 Zn 0.75361 0.75361 0.75424 0.0
O34 O 0.82757 0.79383 0.75019 0.0
O35 O 0.79486 0.84159 0.75771 0.0
O36 O 0.72325 0.77874 0.73626 0.0
O37 O 0.6858 0.81957 0.74607 0.0
O38 O 0.66703 0.71351 0.75895 0.0
O39 O 0.7134 0.67937 0.75117 0.0
C40 C 0.83362 0.83791 0.75338 0.0
C41 C 0.66992 0.67408 0.75485 0.0
C42 C 0.99992 0.66875 0.08836 0.0
C43 C 0.99877 0.83191 0.08689 0.0
O44 O 0.03792 0.71236 0.08468 0.0
Zn45 Zn 1.0035 0.75216 0.08776 0.0
O46 O 0.95745 0.66553 0.09247 0.0
Zn47 Zn 0.92413 0.71309 0.0953 0.0
O48 O 0.86967 0.68387 0.07964 0.0
O49 O 0.94792 0.72158 0.06978 0.0
O50 O 0.95642 0.79302 0.09124 0.0
O51 O 0.03692 0.82608 0.0837 0.0
O52 O 0.99304 0.74763 0.11221 0.0
O53 O 0.91014 0.7079 0.11756 0.0
C54 C 0.89917 0.69657 0.06786 0.0
C55 C 0.9566 0.73032 0.12219 0.0
C56 C 0.16722 0.99488 0.41992 0.0
C57 C 0.3327 0.99855 0.42231 0.0
O58 O 0.21109 0.03332 0.41676 0.0
Zn59 Zn 0.25209 1.00089 0.42122 0.0
O60 O 0.16414 0.95279 0.4244 0.0
Zn61 Zn 0.21269 0.92141 0.42869 0.0
O62 O 0.2039 0.90717 0.45093 0.0
O63 O 0.24348 0.9901 0.44563 0.0
O64 O 0.29352 0.95576 0.4262 0.0
O65 O 0.32678 0.03632 0.41863 0.0
O66 O 0.22868 0.94562 0.40321 0.0
O67 O 0.18896 0.86723 0.41296 0.0
C68 C 0.22505 0.95357 0.45558 0.0
C69 C 0.20579 0.89692 0.40122 0.0
C70 C 0.31409 0.20505 0.73431 0.0
C71 C 0.27744 0.22522 0.78867 0.0
O72 O 0.32704 0.18836 0.74605 0.0
Zn73 Zn 0.2967 0.21226 0.76177 0.0
O74 O 0.28828 0.22793 0.73628 0.0
Zn75 Zn 0.25655 0.25154 0.75429 0.0
O76 O 0.29575 0.32615 0.75159 0.0
O77 O 0.34314 0.29302 0.75917 0.0
O78 O 0.25919 0.24348 0.77872 0.0
O79 O 0.30247 0.20386 0.78401 0.0
O80 O 0.21672 0.16364 0.75758 0.0
O81 O 0.18308 0.21049 0.74992 0.0
C82 C 0.3395 0.33213 0.75525 0.0
C83 C 0.17767 0.16667 0.75312 0.0
C84 C 0.66967 0.99781 0.60266 0.0
C85 C 0.8334 0.99773 0.60437 0.0
O86 O 0.71312 0.03603 0.60635 0.0
Zn87 Zn 0.75339 1.00201 0.60339 0.0
O88 O 0.66679 0.95545 0.59861 0.0
Zn89 Zn 0.71471 0.92253 0.59591 0.0
O90 O 0.6855 0.86825 0.61163 0.0
O91 O 0.72288 0.9466 0.6214 0.0
O92 O 0.79466 0.95526 0.60003 0.0
O93 O 0.82734 0.03578 0.6075 0.0
O94 O 0.74909 0.99132 0.57896 0.0
O95 O 0.70976 0.90841 0.57366 0.0
C96 C 0.698 0.89787 0.62338 0.0
C97 C 0.73201 0.95485 0.569 0.0
C98 C 0.80361 0.69763 0.95689 0.0
C99 C 0.77848 0.72739 0.9023 0.0
O100 O 0.82024 0.68423 0.94522 0.0
Zn101 Zn 0.7944 0.71204 0.92937 0.0
O102 O 0.77973 0.72243 0.95477 0.0
Zn103 Zn 0.75431 0.75176 0.93645 0.0
O104 O 0.67998 0.71232 0.93944 0.0
O105 O 0.7138 0.66445 0.93288 0.0
O106 O 0.75985 0.74559 0.91214 0.0
O107 O 0.80228 0.70497 0.90712 0.0
O108 O 0.84222 0.79229 0.93291 0.0
O109 O 0.79494 0.82597 0.94003 0.0
C110 C 0.67467 0.66826 0.93669 0.0
C111 C 0.83888 0.83152 0.93692 0.0
C112 C 0.11212 0.80254 0.2902 0.0
C113 C 0.05545 0.77973 0.23579 0.0
O114 O 0.14182 0.81953 0.27846 0.0
Zn115 Zn 0.08762 0.79473 0.26272 0.0
O116 O 0.06341 0.77895 0.2882 0.0
Zn117 Zn 0.00811 0.75435 0.27017 0.0
O118 O 0.97356 0.68002 0.27315 0.0
O119 O 0.05412 0.7138 0.26543 0.0
O120 O 0.01892 0.76054 0.24574 0.0
O121 O 0.10188 0.80375 0.24047 0.0
O122 O 0.05537 0.84238 0.26677 0.0
O123 O 0.97476 0.79491 0.27422 0.0
C124 C 0.01158 0.67447 0.26947 0.0
C125 C 0.01299 0.83892 0.27108 0.0
C126 C 0.31419 0.11117 0.62333 0.0
C127 C 0.27634 0.0542 0.56901 0.0
O128 O 0.32699 0.14079 0.61158 0.0
Zn129 Zn 0.2964 0.08651 0.59588 0.0
O130 O 0.28833 0.06246 0.62138 0.0
Zn131 Zn 0.25628 0.00707 0.60339 0.0
O132 O 0.29551 0.97164 0.60597 0.0
O133 O 0.34285 0.05216 0.59835 0.0
O134 O 0.25829 0.01773 0.57898 0.0
O135 O 0.30169 0.10062 0.57363 0.0
O136 O 0.21647 0.05516 0.60022 0.0
O137 O 0.18285 0.97468 0.6079 0.0
C138 C 0.33923 0.00939 0.60225 0.0
C139 C 0.17745 0.01311 0.60473 0.0
C140 C 0.22973 0.27607 0.90228 0.0
C141 C 0.208 0.30945 0.95685 0.0
O142 O 0.20933 0.30184 0.90707 0.0
Zn143 Zn 0.21645 0.29418 0.92934 0.0
O144 O 0.2471 0.25671 0.91213 0.0
Zn145 Zn 0.25478 0.25278 0.93644 0.0
O146 O 0.21315 0.17911 0.94039 0.0
O147 O 0.16703 0.21391 0.93306 0.0
O148 O 0.2308 0.28358 0.95474 0.0
O149 O 0.19186 0.32331 0.94517 0.0
O150 O 0.29696 0.34023 0.93281 0.0
O151 O 0.32946 0.29105 0.9391 0.0
C152 C 0.16955 0.17433 0.93724 0.0
C153 C 0.33562 0.3355 0.93649 0.0
C154 C 0.95576 0.22706 0.23562 0.0
C155 C 0.89852 0.20412 0.28997 0.0
O156 O 0.90928 0.20304 0.24025 0.0
Zn157 Zn 0.92329 0.21197 0.26251 0.0
O158 O 0.99218 0.24618 0.24559 0.0
Zn159 Zn 1.00273 0.25228 0.27003 0.0
O160 O 0.03597 0.21165 0.27412 0.0
O161 O 0.95542 0.16424 0.26662 0.0
O162 O 0.94726 0.22766 0.28801 0.0
O163 O 0.86894 0.18718 0.27821 0.0
O164 O 0.95683 0.29291 0.26525 0.0
O165 O 0.0373 0.32658 0.27304 0.0
C166 C 0.99774 0.16766 0.27096 0.0
C167 C 0.99933 0.33219 0.26932 0.0
H168 H 0.04757 0.2954 0.2228 0.0
H169 H 0.89484 0.1749 0.21065 0.0
H170 H 0.07179 0.3077 0.19565 0.0
H171 H 0.91974 0.18567 0.18332 0.0
H172 H 0.96385 0.25337 0.13488 0.0
H173 H 0.93951 0.2413 0.16203 0.0
H174 H 0.09168 0.27185 0.1744 0.0
H175 H 0.11667 0.28612 0.14708 0.0
C176 C 0.01917 0.27113 0.21431 0.0
C177 C 0.96918 0.23409 0.21891 0.0
C178 C 0.03328 0.27795 0.19869 0.0
C179 C 0.998 0.24753 0.1872 0.0
C180 C 0.94785 0.21038 0.1918 0.0
C181 C 0.93351 0.20397 0.20747 0.0
C182 C 0.99224 0.25759 0.14338 0.0
C183 C 0.04229 0.27074 0.1388 0.0
C184 C 0.97807 0.25021 0.159 0.0
C185 C 0.01337 0.25521 0.1705 0.0
C186 C 0.06356 0.26837 0.16591 0.0
C187 C 0.07795 0.27638 0.15025 0.0
H188 H 0.83305 0.1146 0.48023 0.0
H189 H 0.71219 0.96177 0.46833 0.0
H190 H 0.82282 0.09004 0.50758 0.0
H191 H 0.70046 0.93789 0.49551 0.0
H192 H 0.72292 0.89368 0.54407 0.0
H193 H 0.73679 0.91829 0.51673 0.0
H194 H 0.76747 0.0706 0.52895 0.0
H195 H 0.75578 0.04666 0.55613 0.0
C196 C 0.80401 0.07598 0.48347 0.0
C197 C 0.77362 0.04018 0.4721 0.0
C198 C 0.79792 0.06184 0.49916 0.0
C199 C 0.76084 0.01177 0.50384 0.0
C200 C 0.73016 0.97635 0.4924 0.0
C201 C 0.73665 0.99027 0.47677 0.0
C202 C 0.73262 0.93235 0.54087 0.0
C203 C 0.73839 0.96816 0.55228 0.0
C204 C 0.74039 0.94652 0.52519 0.0
C205 C 0.75346 0.99664 0.52055 0.0
C206 C 0.75861 0.03209 0.53202 0.0
C207 C 0.75146 0.01815 0.54765 0.0
H208 H 0.75534 0.71038 0.80143 0.0
H209 H 0.72212 0.83009 0.81367 0.0
H210 H 0.76632 0.69734 0.82859 0.0
H211 H 0.73526 0.81856 0.84101 0.0
H212 H 0.70983 0.74984 0.88925 0.0
H213 H 0.69833 0.76198 0.86205 0.0
H214 H 0.82109 0.73269 0.85012 0.0
H215 H 0.83109 0.71839 0.8775 0.0
C216 C 0.75079 0.73432 0.80994 0.0
C217 C 0.73782 0.77134 0.80536 0.0
C218 C 0.75752 0.72706 0.82557 0.0
C219 C 0.75203 0.757 0.83709 0.0
C220 C 0.73909 0.79418 0.83251 0.0
C221 C 0.73174 0.80104 0.81682 0.0
C222 C 0.73439 0.74586 0.88083 0.0
C223 C 0.77147 0.73316 0.88555 0.0
C224 C 0.72803 0.75328 0.86519 0.0
C225 C 0.75898 0.74881 0.8538 0.0
C226 C 0.79602 0.73584 0.85852 0.0
C227 C 0.80197 0.72778 0.87422 0.0
H228 H 0.8955 0.72124 0.14713 0.0
H229 H 0.04846 0.75411 0.13504 0.0
H230 H 0.9202 0.73529 0.17446 0.0
H231 H 0.0725 0.76596 0.1622 0.0
H232 H 0.11664 0.83203 0.21088 0.0
H233 H 0.09203 0.82142 0.18353 0.0
H234 H 0.93986 0.6993 0.19572 0.0
H235 H 0.96379 0.71143 0.22289 0.0
C236 C 0.93419 0.73096 0.15032 0.0
C237 C 0.96997 0.7367 0.1389 0.0
C238 C 0.94841 0.73884 0.166 0.0
C239 C 0.99855 0.75197 0.17063 0.0
C240 C 0.03398 0.75706 0.15914 0.0
C241 C 0.01998 0.74982 0.14352 0.0
C242 C 0.078 0.80297 0.20767 0.0
C243 C 0.04221 0.77277 0.21907 0.0
C244 C 0.06384 0.79665 0.19198 0.0
C245 C 0.01374 0.75953 0.18733 0.0
C246 C 0.97834 0.72902 0.1988 0.0
C247 C 0.99227 0.73575 0.21443 0.0
H248 H 0.20602 0.9627 0.55644 0.0
H249 H 0.32642 0.11496 0.54382 0.0
H250 H 0.19204 0.93815 0.5293 0.0
H251 H 0.31386 0.08977 0.51652 0.0
H252 H 0.24615 0.04493 0.46823 0.0
H253 H 0.2572 0.06943 0.49537 0.0
H254 H 0.22793 0.91792 0.50801 0.0
H255 H 0.21483 0.89278 0.48071 0.0
C256 C 0.22979 0.99096 0.54785 0.0
C257 C 0.26742 0.04086 0.55231 0.0
C258 C 0.222 0.97666 0.53224 0.0
C259 C 0.25198 0.0117 0.52063 0.0
C260 C 0.28948 0.06186 0.52509 0.0
C261 C 0.2969 0.07637 0.54075 0.0
C262 C 0.24187 0.01668 0.47679 0.0
C263 C 0.22962 0.96683 0.47229 0.0
C264 C 0.24866 0.03095 0.4924 0.0
C265 C 0.24392 0.99594 0.50397 0.0
C266 C 0.23124 0.94581 0.49947 0.0
C267 C 0.22387 0.93133 0.48381 0.0
H268 H 0.20872 0.24837 0.80142 0.0
H269 H 0.3277 0.21415 0.81372 0.0
H270 H 0.19597 0.25985 0.8286 0.0
H271 H 0.31636 0.22762 0.84104 0.0
H272 H 0.24939 0.20519 0.88941 0.0
H273 H 0.2598 0.19178 0.86223 0.0
H274 H 0.23309 0.31591 0.84991 0.0
H275 H 0.22065 0.32798 0.87729 0.0
C276 C 0.23244 0.24355 0.80995 0.0
C277 C 0.26928 0.2303 0.80539 0.0
C278 C 0.22537 0.25058 0.82558 0.0
C279 C 0.25528 0.24506 0.8371 0.0
C280 C 0.29204 0.23152 0.83254 0.0
C281 C 0.29875 0.22393 0.81686 0.0
C282 C 0.24559 0.22964 0.88092 0.0
C283 C 0.23424 0.26777 0.88554 0.0
C284 C 0.252 0.22216 0.86529 0.0
C285 C 0.24777 0.25295 0.85379 0.0
C286 C 0.23602 0.29096 0.8584 0.0
C287 C 0.22904 0.29809 0.8741 0.0
H288 H 0.2134 0.35055 0.05756 0.0
H289 H 0.05921 0.3011 0.04164 0.0
H290 H 0.24274 0.36271 0.03056 0.0
H291 H 0.0879 0.3118 0.015 0.0
H292 H 0.15329 0.35482 0.96725 0.0
H293 H 0.13766 0.36833 0.99427 0.0
H294 H 0.23081 0.30449 1.00972 0.0
H295 H 0.24736 0.29238 0.98305 0.0
C296 C 0.18595 0.34277 0.04835 0.0
C297 C 0.13391 0.32417 0.05176 0.0
C298 C 0.20263 0.34952 0.03289 0.0
C299 C 0.16758 0.33793 0.02058 0.0
C300 C 0.11613 0.32174 0.02411 0.0
C301 C 0.09956 0.315 0.03947 0.0
C302 C 0.17088 0.34434 0.97644 0.0
C303 C 0.20094 0.32188 0.97297 0.0
C304 C 0.16187 0.35193 0.99191 0.0
C305 C 0.18282 0.33728 1.00419 0.0
C306 C 0.21462 0.31691 1.00062 0.0
C307 C 0.22357 0.30937 0.98525 0.0
H308 H 0.76067 0.0544 0.37481 0.0
H309 H 0.86117 0.20986 0.39057 0.0
H310 H 0.77792 0.08285 0.34815 0.0
H311 H 0.87749 0.23891 0.36355 0.0
H312 H 0.95396 0.24616 0.31616 0.0
H313 H 0.92518 0.22928 0.34279 0.0
H314 H 0.76907 0.13066 0.32728 0.0
H315 H 0.79845 0.14661 0.30028 0.0
C316 C 0.78602 0.09496 0.3726 0.0
C317 C 0.81026 0.12978 0.38487 0.0
C318 C 0.79539 0.11137 0.35723 0.0
C319 C 0.82921 0.16314 0.35364 0.0
C320 C 0.85171 0.19856 0.36591 0.0
C321 C 0.84229 0.18204 0.38139 0.0
C322 C 0.91332 0.22109 0.31834 0.0
C323 C 0.87857 0.19702 0.30604 0.0
C324 C 0.89673 0.21194 0.33369 0.0
C325 C 0.84484 0.1785 0.33724 0.0
C326 C 0.8095 0.15615 0.32494 0.0
C327 C 0.82621 0.16536 0.30948 0.0
H328 H 0.7119 0.76077 0.70808 0.0
H329 H 0.65622 0.86044 0.72403 0.0
H330 H 0.70029 0.77797 0.68146 0.0
H331 H 0.64309 0.87672 0.69704 0.0
H332 H 0.71133 0.95328 0.64957 0.0
H333 H 0.69995 0.92462 0.67621 0.0
H334 H 0.64313 0.76863 0.6607 0.0
H335 H 0.65604 0.7979 0.6337 0.0
C336 C 0.69646 0.78594 0.70592 0.0
C337 C 0.68577 0.80994 0.71823 0.0
C338 C 0.68919 0.79528 0.69057 0.0
C339 C 0.67088 0.82883 0.68705 0.0
C340 C 0.6579 0.85113 0.69936 0.0
C341 C 0.66524 0.84175 0.71482 0.0
C342 C 0.69602 0.9127 0.65175 0.0
C343 C 0.68539 0.87796 0.63946 0.0
C344 C 0.68888 0.89616 0.66711 0.0
C345 C 0.67077 0.84435 0.67066 0.0
C346 C 0.65781 0.80901 0.65836 0.0
C347 C 0.66502 0.82566 0.64289 0.0
H348 H 0.79944 0.65705 0.0576 0.0
H349 H 0.95394 0.70803 0.04166 0.0
H350 H 0.77014 0.64502 0.03061 0.0
H351 H 0.92527 0.69745 0.01502 0.0
H352 H 0.85961 0.65364 0.96728 0.0
H353 H 0.87584 0.64071 0.99429 0.0
H354 H 0.78148 0.70314 1.00979 0.0
H355 H 0.76436 0.71467 0.98314 0.0
C356 C 0.82697 0.66522 0.04839 0.0
C357 C 0.87908 0.68417 0.0518 0.0
C358 C 0.81032 0.65854 0.03293 0.0
C359 C 0.84544 0.67056 0.02062 0.0
C360 C 0.89699 0.68717 0.02414 0.0
C361 C 0.91354 0.69383 0.03949 0.0
C362 C 0.84191 0.66395 0.97648 0.0
C363 C 0.81129 0.68579 0.97303 0.0
C364 C 0.85126 0.6567 0.99195 0.0
C365 C 0.8301 0.67108 1.00424 0.0
C366 C 0.79784 0.69092 1.00069 0.0
C367 C 0.78855 0.69813 0.98532 0.0
H368 H 0.05655 0.76016 0.31635 0.0
H369 H 0.21206 0.86045 0.30058 0.0
H370 H 0.08507 0.77711 0.34301 0.0
H371 H 0.24117 0.87649 0.32759 0.0
H372 H 0.14859 0.79694 0.39084 0.0
H373 H 0.13284 0.76784 0.36382 0.0
H374 H 0.23173 0.92407 0.34844 0.0
H375 H 0.24842 0.95257 0.3751 0.0
C376 C 0.09713 0.7854 0.31856 0.0
C377 C 0.13195 0.80966 0.30629 0.0
C378 C 0.11358 0.7946 0.33392 0.0
C379 C 0.16539 0.82827 0.33751 0.0
C380 C 0.2008 0.85081 0.32523 0.0
C381 C 0.18424 0.84155 0.30976 0.0
C382 C 0.16747 0.82479 0.38166 0.0
C383 C 0.1991 0.87711 0.38514 0.0
C384 C 0.15837 0.80824 0.36619 0.0
C385 C 0.1808 0.8437 0.35392 0.0
C386 C 0.2143 0.89553 0.35751 0.0
C387 C 0.22335 0.91197 0.37289 0.0
H388 H 0.35667 0.21116 0.63368 0.0
H389 H 0.30175 0.05575 0.64946 0.0
H390 H 0.37005 0.24036 0.66069 0.0
H391 H 0.31359 0.08434 0.67611 0.0
H392 H 0.35704 0.14799 0.72396 0.0
H393 H 0.37052 0.13224 0.69694 0.0
H394 H 0.31287 0.23075 0.68151 0.0
H395 H 0.30091 0.24742 0.70816 0.0
C396 C 0.34792 0.18338 0.64286 0.0
C397 C 0.32745 0.13109 0.6394 0.0
C398 C 0.35539 0.19999 0.65833 0.0
C399 C 0.3426 0.16462 0.67061 0.0
C400 C 0.32452 0.11282 0.66703 0.0
C401 C 0.31711 0.09633 0.65166 0.0
C402 C 0.34802 0.16678 0.71477 0.0
C403 C 0.32721 0.19831 0.71823 0.0
C404 C 0.35556 0.15769 0.6993 0.0
C405 C 0.3425 0.18003 0.68702 0.0
C406 C 0.32402 0.21341 0.69059 0.0
C407 C 0.31654 0.22244 0.70596 0.0
H408 H 0.925 0.57234 0.09626 0.0
H409 H 0.08076 0.65644 0.07895 0.0
H410 H 0.92771 0.49314 0.09536 0.0
H411 H 0.08304 0.57624 0.07777 0.0
H412 H 0.08741 0.4353 0.09634 0.0
H413 H 0.08468 0.51447 0.09547 0.0
H414 H 0.92964 0.43151 0.07766 0.0
H415 H 0.93195 0.35132 0.07882 0.0
C416 C 0.95989 0.57399 0.09218 0.0
C417 C 1.00284 0.62097 0.08773 0.0
C418 C 0.96117 0.52829 0.09154 0.0
C419 C 0.00543 0.52817 0.08643 0.0
C420 C 0.04845 0.57508 0.08191 0.0
C421 C 0.04717 0.62103 0.08255 0.0
C422 C 0.05258 0.43367 0.09221 0.0
C423 C 0.00972 0.38673 0.0877 0.0
C424 C 0.05128 0.47936 0.09159 0.0
C425 C 0.00711 0.47951 0.08643 0.0
C426 C 0.96417 0.43264 0.08184 0.0
C427 C 0.96546 0.3867 0.08247 0.0
H428 H 0.65424 0.08581 0.4296 0.0
H429 H 0.581 0.92953 0.41271 0.0
H430 H 0.57258 0.08368 0.42893 0.0
H431 H 0.49878 0.92782 0.41176 0.0
H432 H 0.35467 0.92447 0.43072 0.0
H433 H 0.43648 0.92712 0.42973 0.0
H434 H 0.50827 0.08152 0.41144 0.0
H435 H 0.42577 0.0793 0.4127 0.0
C436 C 0.62071 0.05093 0.42566 0.0
C437 C 0.62421 0.00765 0.42127 0.0
C438 C 0.57387 0.04998 0.42515 0.0
C439 C 0.52912 0.00573 0.42024 0.0
C440 C 0.5325 0.96241 0.41575 0.0
C441 C 0.57958 0.96335 0.41626 0.0
C442 C 0.38778 0.95916 0.42647 0.0
C443 C 0.38359 1.00184 0.42182 0.0
C444 C 0.43471 0.9604 0.42578 0.0
C445 C 0.47892 0.00432 0.42042 0.0
C446 C 0.47496 0.04717 0.41576 0.0
C447 C 0.42774 0.04594 0.41645 0.0
H448 H 0.35175 0.42508 0.74557 0.0
H449 H 0.4356 0.35416 0.76359 0.0
H450 H 0.43206 0.5076 0.74427 0.0
H451 H 0.51478 0.43597 0.76256 0.0
H452 H 0.6569 0.58052 0.74562 0.0
H453 H 0.57635 0.4983 0.74456 0.0
H454 H 0.49415 0.57183 0.76182 0.0
H455 H 0.5737 0.65348 0.76259 0.0
C456 C 0.38711 0.42709 0.74931 0.0
C457 C 0.38711 0.383 0.7547 0.0
C458 C 0.43311 0.47431 0.74859 0.0
C459 C 0.47995 0.47831 0.75324 0.0
C460 C 0.4797 0.43416 0.75862 0.0
C461 C 0.43399 0.38722 0.75933 0.0
C462 C 0.62161 0.57904 0.74916 0.0
C463 C 0.62191 0.62358 0.75423 0.0
C464 C 0.57546 0.53197 0.74859 0.0
C465 C 0.52873 0.52852 0.75308 0.0
C466 C 0.52918 0.57318 0.75804 0.0
C467 C 0.57508 0.62001 0.75861 0.0
H468 H 0.4353 0.08341 0.59379 0.0
H469 H 0.35152 0.92868 0.61189 0.0
H470 H 0.51447 0.08078 0.59476 0.0
H471 H 0.4318 0.92646 0.61312 0.0
H472 H 0.65664 0.07847 0.61174 0.0
H473 H 0.57611 0.08016 0.61273 0.0
H474 H 0.4939 0.92423 0.59561 0.0
H475 H 0.57344 0.92212 0.59491 0.0
C476 C 0.4337 0.04874 0.59805 0.0
C477 C 0.38683 0.0061 0.60273 0.0
C478 C 0.47941 0.04751 0.59873 0.0
C479 C 0.47967 0.00362 0.60411 0.0
C480 C 0.43284 0.96079 0.60879 0.0
C481 C 0.38685 0.96201 0.60811 0.0
C482 C 0.62135 0.04462 0.60821 0.0
C483 C 0.62165 1.00032 0.60321 0.0
C484 C 0.57522 0.04556 0.60874 0.0
C485 C 0.52847 1.00222 0.60427 0.0
C486 C 0.52892 0.95795 0.59937 0.0
C487 C 0.57482 0.95701 0.59884 0.0
H488 H 0.4315 0.34904 0.93069 0.0
H489 H 0.35316 0.42864 0.94585 0.0
H490 H 0.51317 0.43004 0.93112 0.0
H491 H 0.43437 0.50868 0.94725 0.0
H492 H 0.57829 0.65445 0.93187 0.0
H493 H 0.49692 0.57328 0.93222 0.0
H494 H 0.57728 0.49384 0.94604 0.0
H495 H 0.65824 0.57423 0.94473 0.0
C496 C 0.43199 0.38373 0.93439 0.0
C497 C 0.3861 0.3827 0.93811 0.0
C498 C 0.47878 0.43025 0.93472 0.0
C499 C 0.48069 0.47646 0.93911 0.0
C500 C 0.43463 0.47455 0.94337 0.0
C501 C 0.38799 0.42845 0.94271 0.0
C502 C 0.57825 0.61956 0.93504 0.0
C503 C 0.62449 0.62056 0.93816 0.0
C504 C 0.53162 0.57292 0.93533 0.0
C505 C 0.53018 0.52647 0.93909 0.0
C506 C 0.57663 0.52821 0.94268 0.0
C507 C 0.62314 0.5745 0.94207 0.0
H508 H 0.08656 0.65318 0.26152 0.0
H509 H 0.93074 0.58114 0.27879 0.0
H510 H 0.08398 0.57135 0.26235 0.0
H511 H 0.92858 0.4987 0.2799 0.0
H512 H 0.07996 0.42535 0.27885 0.0
H513 H 0.0821 0.50777 0.28003 0.0
H514 H 0.92717 0.43548 0.26214 0.0
H515 H 0.9246 0.35366 0.26124 0.0
C516 C 0.05168 0.61988 0.26558 0.0
C517 C 0.00868 0.62377 0.27004 0.0
C518 C 0.05047 0.57293 0.26618 0.0
C519 C 0.00624 0.52846 0.27126 0.0
C520 C 0.96315 0.53221 0.27579 0.0
C521 C 0.96436 0.57941 0.27519 0.0
C522 C 0.04644 0.42716 0.27518 0.0
C523 C 1.00225 0.38289 0.26992 0.0
C524 C 0.04764 0.47434 0.27583 0.0
C525 C 1.00467 0.47818 0.27123 0.0
C526 C 0.96057 0.43382 0.26603 0.0
C527 C 0.95937 0.38688 0.26538 0.0
H528 H 0.08916 0.15377 0.09382 0.0
H529 H 0.93298 0.08336 0.07701 0.0
H530 H 0.08569 0.07154 0.09268 0.0
H531 H 0.92995 1.00058 0.07549 0.0
H532 H 0.92376 0.85419 0.09396 0.0
H533 H 0.92726 0.93642 0.09273 0.0
H534 H 0.08297 0.00719 0.07551 0.0
H535 H 0.07991 0.92441 0.0771 0.0
C536 C 0.05406 0.12076 0.08975 0.0
C537 C 0.01117 0.12524 0.08558 0.0
C538 C 0.05231 0.07354 0.08897 0.0
C539 C 0.00765 0.02931 0.08395 0.0
C540 C 0.96483 0.03377 0.07958 0.0
C541 C 0.96656 0.08122 0.0804 0.0
C542 C 0.95886 0.88715 0.08986 0.0
C543 C 1.00173 0.88262 0.0857 0.0
C544 C 0.96062 0.93438 0.08903 0.0
C545 C 0.00528 0.97855 0.08398 0.0
C546 C 0.04809 0.97404 0.07963 0.0
C547 C 0.04635 0.92659 0.08048 0.0
H548 H 0.84943 0.92876 0.41032 0.0
H549 H 0.93603 0.08504 0.42701 0.0
H550 H 0.92901 0.92538 0.40869 0.0
H551 H 0.01457 0.08123 0.42576 0.0
H552 H 0.15545 0.07554 0.41001 0.0
H553 H 0.07563 0.07834 0.40846 0.0
H554 H 0.99099 0.9227 0.42573 0.0
H555 H 0.06992 0.91944 0.42691 0.0
C556 C 0.88529 0.96228 0.41365 0.0
C557 C 0.88618 0.00705 0.41882 0.0
C558 C 0.93091 0.96036 0.41278 0.0
C559 C 0.97837 1.00313 0.41707 0.0
C560 C 0.97906 0.0479 0.42209 0.0
C561 C 0.93371 0.04985 0.42294 0.0
C562 C 0.11975 0.04191 0.4134 0.0
C563 C 0.11926 0.99741 0.41863 0.0
C564 C 0.07398 0.04351 0.41257 0.0
C565 C 0.02673 1.00069 0.41698 0.0
C566 C 0.02636 0.95608 0.42201 0.0
C567 C 0.07191 0.95445 0.4228 0.0
H568 H 0.1559 0.06944 0.76011 0.0
H569 H 0.0851 0.15481 0.74331 0.0
H570 H 0.07369 0.99048 0.75899 0.0
H571 H 1.00244 0.07495 0.74182 0.0
H572 H 0.85633 0.93527 0.76048 0.0
H573 H 0.93868 0.01386 0.75921 0.0
H574 H 0.00891 0.92854 0.74193 0.0
H575 H 0.92596 0.84891 0.74356 0.0
C576 C 0.12282 0.07139 0.75604 0.0
C577 C 0.12715 0.1187 0.75188 0.0
C578 C 0.07562 0.02582 0.75528 0.0
C579 C 0.03132 0.02615 0.75029 0.0
C580 C 0.03569 0.07336 0.7459 0.0
C581 C 0.08308 0.11915 0.74669 0.0
C582 C 0.88919 0.93301 0.75636 0.0
C583 C 0.88445 0.88554 0.75218 0.0
C584 C 0.93649 0.97839 0.7555 0.0
C585 C 0.98053 0.97777 0.75041 0.0
C586 C 0.97585 0.93037 0.74607 0.0
C587 C 0.92831 0.88472 0.74695 0.0
H588 H 0.85615 0.92306 0.59734 0.0
H589 H 0.92571 0.07913 0.6142 0.0
H590 H 0.93847 0.92684 0.59867 0.0
H591 H 0.00863 0.08248 0.61591 0.0
H592 H 0.15574 0.08865 0.59781 0.0
H593 H 0.07355 0.08538 0.59893 0.0
H594 H 1.00219 0.92953 0.61604 0.0
H595 H 0.08484 0.93235 0.61455 0.0
C596 C 0.88899 0.9582 0.60146 0.0
C597 C 0.88423 1.00095 0.60561 0.0
C598 C 0.93628 0.96014 0.60236 0.0
C599 C 0.9803 0.00483 0.60745 0.0
C600 C 0.97559 0.04755 0.61177 0.0
C601 C 0.92806 0.04565 0.61084 0.0
C602 C 0.12265 0.05359 0.60187 0.0
C603 C 0.12695 0.01058 0.60601 0.0
C604 C 0.07545 0.05195 0.60263 0.0
C605 C 0.03111 0.00727 0.60759 0.0
C606 C 0.03545 0.96441 0.61198 0.0
C607 C 0.08285 0.96602 0.61118 0.0
H608 H 0.93584 0.85345 0.92956 0.0
H609 H 0.85078 0.92446 0.94647 0.0
H610 H 0.01486 0.93549 0.93066 0.0
H611 H 0.93081 0.00708 0.94793 0.0
H612 H 0.15661 0.08108 0.94675 0.0
H613 H 0.0763 0.99881 0.94803 0.0
H614 H 0.99329 0.07172 0.93096 0.0
H615 H 0.07274 0.15359 0.93006 0.0
C616 C 0.93396 0.88655 0.93363 0.0
C617 C 0.88673 0.88227 0.93789 0.0
C618 C 0.97958 0.93368 0.93439 0.0
C619 C 0.97946 0.97801 0.93945 0.0
C620 C 0.93228 0.9738 0.94382 0.0
C621 C 0.88639 0.92644 0.94303 0.0
C622 C 0.12117 0.0795 0.94333 0.0
C623 C 0.12129 0.12396 0.93826 0.0
C624 C 0.07512 0.03232 0.944 0.0
C625 C 0.02817 0.02854 0.93959 0.0
C626 C 0.02841 0.0732 0.93469 0.0
C627 C 0.07426 0.1202 0.93405 0.0
H628 H 0.08808 0.93623 0.26404 0.0
H629 H 0.93179 0.85027 0.28078 0.0
H630 H 0.08458 0.01496 0.26519 0.0
H631 H 0.92873 0.93 0.2823 0.0
H632 H 0.92267 0.07035 0.26391 0.0
H633 H 0.92612 0.99158 0.26511 0.0
H634 H 0.08179 0.07651 0.28235 0.0
H635 H 0.07879 0.15625 0.28077 0.0
C636 C 0.05295 0.93409 0.2681 0.0
C637 C 0.01004 0.88668 0.27225 0.0
C638 C 0.05118 0.97955 0.26888 0.0
C639 C 0.00649 0.97906 0.27388 0.0
C640 C 0.96364 0.93174 0.27822 0.0
C641 C 0.96538 0.88602 0.27741 0.0
C642 C 0.95775 0.07247 0.268 0.0
C643 C 1.00064 0.11988 0.27217 0.0
C644 C 0.95949 0.02699 0.26882 0.0
C645 C 1.00412 0.02746 0.27387 0.0
C646 C 0.04693 0.07478 0.27823 0.0
C647 C 0.04522 0.12051 0.27738 0.0
loop_
_geom_bond_atom_site_label_1
_geom_bond_atom_site_label_2
_geom_bond_distance
_geom_bond_site_symmetry_2
_ccdc_geom_bond_type
C0 O2 1.247 . S
C0 O4 1.258 1_455 S
C1 O8 1.247 . S
C1 O9 1.258 . S
O2 C0 1.247 . S
O2 Zn3 2.028 . S
Zn3 O2 2.028 . S
Zn3 O7 2.035 . S
Zn3 O9 2.035 . S
Zn3 O10 2.028 . S
O4 C0 1.258 1_655 S
O4 Zn5 2.035 . S
Zn5 O4 2.035 . S
Zn5 O6 2.028 1_655 S
Zn5 O8 2.028 1_655 S
Zn5 O11 2.035 1_655 S
O6 Zn5 2.028 1_455 S
O6 C12 1.247 . S
O7 Zn3 2.035 . S
O7 C12 1.258 . S
O8 C1 1.247 . S
O8 Zn5 2.028 1_455 S
O9 C1 1.258 . S
O9 Zn3 2.035 . S
O10 Zn3 2.028 . S
O10 C13 1.247 . S
O11 Zn5 2.035 1_455 S
O11 C13 1.258 . S
C12 O6 1.247 . S
C12 O7 1.258 . S
C13 O10 1.247 . S
C13 O11 1.258 . S
C14 O16 1.247 . S
C14 O18 1.258 . S
C15 O22 1.247 1_545 S
C15 O23 1.258 . S
O16 C14 1.247 . S
O16 Zn17 2.028 . S
Zn17 O16 2.028 . S
Zn17 O21 2.035 . S
Zn17 O23 2.035 . S
Zn17 O24 2.028 . S
O18 C14 1.258 . S
O18 Zn19 2.035 1_545 S
Zn19 O18 2.035 1_565 S
Zn19 O20 2.028 1_565 S
Zn19 O22 2.028 . S
Zn19 O25 2.035 1_565 S
O20 Zn19 2.028 1_545 S
O20 C26 1.247 . S
O21 Zn17 2.035 . S
O21 C26 1.258 . S
O22 C15 1.247 1_565 S
O22 Zn19 2.028 . S
O23 C15 1.258 . S
O23 Zn17 2.035 . S
O24 Zn17 2.028 . S
O24 C27 1.247 . S
O25 Zn19 2.035 1_545 S
O25 C27 1.258 . S
C26 O20 1.247 . S
C26 O21 1.258 . S
C27 O24 1.247 . S
C27 O25 1.258 . S
C28 O30 1.247 . S
C28 O32 1.258 . S
C29 O36 1.247 . S
C29 O37 1.258 . S
O30 C28 1.247 . S
O30 Zn31 2.028 . S
Zn31 O30 2.028 . S
Zn31 O35 2.035 . S
Zn31 O37 2.035 . S
Zn31 O38 2.028 . S
O32 C28 1.258 . S
O32 Zn33 2.035 . S
Zn33 O32 2.035 . S
Zn33 O34 2.028 . S
Zn33 O36 2.028 . S
Zn33 O39 2.035 . S
O34 Zn33 2.028 . S
O34 C40 1.247 . S
O35 Zn31 2.035 . S
O35 C40 1.258 . S
O36 C29 1.247 . S
O36 Zn33 2.028 . S
O37 C29 1.258 . S
O37 Zn31 2.035 . S
O38 Zn31 2.028 . S
O38 C41 1.247 . S
O39 Zn33 2.035 . S
O39 C41 1.258 . S
C40 O34 1.247 . S
C40 O35 1.258 . S
C41 O38 1.247 . S
C41 O39 1.258 . S
C42 O44 1.247 . S
C42 O46 1.258 . S
C43 O50 1.247 . S
C43 O51 1.258 . S
O44 C42 1.247 . S
O44 Zn45 2.028 1_655 S
Zn45 O44 2.028 1_455 S
Zn45 O49 2.035 1_455 S
Zn45 O51 2.035 1_455 S
Zn45 O52 2.028 . S
O46 C42 1.258 . S
O46 Zn47 2.035 . S
Zn47 O46 2.035 . S
Zn47 O48 2.028 . S
Zn47 O50 2.028 . S
Zn47 O53 2.035 . S
O48 Zn47 2.028 . S
O48 C54 1.247 . S
O49 Zn45 2.035 1_655 S
O49 C54 1.258 . S
O50 C43 1.247 . S
O50 Zn47 2.028 . S
O51 C43 1.258 . S
O51 Zn45 2.035 1_655 S
O52 Zn45 2.028 . S
O52 C55 1.247 1_455 S
O53 Zn47 2.035 . S
O53 C55 1.258 . S
C54 O48 1.247 . S
C54 O49 1.258 . S
C55 O52 1.247 1_655 S
C55 O53 1.258 . S
C56 O58 1.247 . S
C56 O60 1.258 . S
C57 O64 1.247 . S
C57 O65 1.258 . S
O58 C56 1.247 . S
O58 Zn59 2.028 1_565 S
Zn59 O58 2.028 1_545 S
Zn59 O63 2.035 . S
Zn59 O65 2.035 1_545 S
Zn59 O66 2.028 1_545 S
O60 C56 1.258 . S
O60 Zn61 2.035 . S
Zn61 O60 2.035 . S
Zn61 O62 2.028 . S
Zn61 O64 2.028 . S
Zn61 O67 2.035 . S
O62 Zn61 2.028 . S
O62 C68 1.247 . S
O63 Zn59 2.035 . S
O63 C68 1.258 1_545 S
O64 C57 1.247 . S
O64 Zn61 2.028 . S
O65 C57 1.258 . S
O65 Zn59 2.035 1_565 S
O66 Zn59 2.028 1_565 S
O66 C69 1.247 . S
O67 Zn61 2.035 . S
O67 C69 1.258 . S
C68 O62 1.247 . S
C68 O63 1.258 1_565 S
C69 O66 1.247 . S
C69 O67 1.258 . S
C70 O72 1.247 . S
C70 O74 1.258 . S
C71 O78 1.247 . S
C71 O79 1.258 . S
O72 C70 1.247 . S
O72 Zn73 2.028 . S
Zn73 O72 2.028 . S
Zn73 O77 2.035 . S
Zn73 O79 2.035 . S
Zn73 O80 2.028 . S
O74 C70 1.258 . S
O74 Zn75 2.035 . S
Zn75 O74 2.035 . S
Zn75 O76 2.028 . S
Zn75 O78 2.028 . S
Zn75 O81 2.035 . S
O76 Zn75 2.028 . S
O76 C82 1.247 . S
O77 Zn73 2.035 . S
O77 C82 1.258 . S
O78 C71 1.247 . S
O78 Zn75 2.028 . S
O79 C71 1.258 . S
O79 Zn73 2.035 . S
O80 Zn73 2.028 . S
O80 C83 1.247 . S
O81 Zn75 2.035 . S
O81 C83 1.258 . S
C82 O76 1.247 . S
C82 O77 1.258 . S
C83 O80 1.247 . S
C83 O81 1.258 . S
C84 O86 1.247 . S
C84 O88 1.258 . S
C85 O92 1.247 . S
C85 O93 1.258 . S
O86 C84 1.247 . S
O86 Zn87 2.028 1_565 S
Zn87 O86 2.028 1_545 S
Zn87 O91 2.035 1_545 S
Zn87 O93 2.035 1_545 S
Zn87 O94 2.028 . S
O88 C84 1.258 . S
O88 Zn89 2.035 . S
Zn89 O88 2.035 . S
Zn89 O90 2.028 . S
Zn89 O92 2.028 . S
Zn89 O95 2.035 . S
O90 Zn89 2.028 . S
O90 C96 1.247 . S
O91 Zn87 2.035 1_565 S
O91 C96 1.258 . S
O92 C85 1.247 . S
O92 Zn89 2.028 . S
O93 C85 1.258 . S
O93 Zn87 2.035 1_565 S
O94 Zn87 2.028 . S
O94 C97 1.247 1_545 S
O95 Zn89 2.035 . S
O95 C97 1.258 . S
C96 O90 1.247 . S
C96 O91 1.258 . S
C97 O94 1.247 1_565 S
C97 O95 1.258 . S
C98 O100 1.247 . S
C98 O102 1.258 . S
C99 O106 1.247 . S
C99 O107 1.258 . S
O100 C98 1.247 . S
O100 Zn101 2.028 . S
Zn101 O100 2.028 . S
Zn101 O105 2.035 . S
Zn101 O107 2.035 . S
Zn101 O108 2.028 . S
O102 C98 1.258 . S
O102 Zn103 2.035 . S
Zn103 O102 2.035 . S
Zn103 O104 2.028 . S
Zn103 O106 2.028 . S
Zn103 O109 2.035 . S
O104 Zn103 2.028 . S
O104 C110 1.247 . S
O105 Zn101 2.035 . S
O105 C110 1.258 . S
O106 C99 1.247 . S
O106 Zn103 2.028 . S
O107 C99 1.258 . S
O107 Zn101 2.035 . S
O108 Zn101 2.028 . S
O108 C111 1.247 . S
O109 Zn103 2.035 . S
O109 C111 1.258 . S
C110 O104 1.247 . S
C110 O105 1.258 . S
C111 O108 1.247 . S
C111 O109 1.258 . S
C112 O114 1.247 . S
C112 O116 1.258 . S
C113 O120 1.247 1_455 S
C113 O121 1.258 . S
O114 C112 1.247 . S
O114 Zn115 2.028 . S
Zn115 O114 2.028 . S
Zn115 O119 2.035 . S
Zn115 O121 2.035 . S
Zn115 O122 2.028 . S
O116 C112 1.258 . S
O116 Zn117 2.035 1_455 S
Zn117 O116 2.035 1_655 S
Zn117 O118 2.028 1_655 S
Zn117 O120 2.028 . S
Zn117 O123 2.035 1_655 S
O118 Zn117 2.028 1_455 S
O118 C124 1.247 . S
O119 Zn115 2.035 . S
O119 C124 1.258 . S
O120 C113 1.247 1_655 S
O120 Zn117 2.028 . S
O121 C113 1.258 . S
O121 Zn115 2.035 . S
O122 Zn115 2.028 . S
O122 C125 1.247 . S
O123 Zn117 2.035 1_455 S
O123 C125 1.258 . S
C124 O118 1.247 . S
C124 O119 1.258 . S
C125 O122 1.247 . S
C125 O123 1.258 . S
C126 O128 1.247 . S
C126 O130 1.258 . S
C127 O134 1.247 1_545 S
C127 O135 1.258 . S
O128 C126 1.247 . S
O128 Zn129 2.028 . S
Zn129 O128 2.028 . S
Zn129 O133 2.035 . S
Zn129 O135 2.035 . S
Zn129 O136 2.028 . S
O130 C126 1.258 . S
O130 Zn131 2.035 1_545 S
Zn131 O130 2.035 1_565 S
Zn131 O132 2.028 1_565 S
Zn131 O134 2.028 . S
Zn131 O137 2.035 1_565 S
O132 Zn131 2.028 1_545 S
O132 C138 1.247 . S
O133 Zn129 2.035 . S
O133 C138 1.258 . S
O134 C127 1.247 1_565 S
O134 Zn131 2.028 . S
O135 C127 1.258 . S
O135 Zn129 2.035 . S
O136 Zn129 2.028 . S
O136 C139 1.247 . S
O137 Zn131 2.035 1_545 S
O137 C139 1.258 . S
C138 O132 1.247 . S
C138 O133 1.258 . S
C139 O136 1.247 . S
C139 O137 1.258 . S
C140 O142 1.247 . S
C140 O144 1.258 . S
C141 O148 1.247 . S
C141 O149 1.258 . S
O142 C140 1.247 . S
O142 Zn143 2.028 . S
Zn143 O142 2.028 . S
Zn143 O147 2.035 . S
Zn143 O149 2.035 . S
Zn143 O150 2.028 . S
O144 C140 1.258 . S
O144 Zn145 2.035 . S
Zn145 O144 2.035 . S
Zn145 O146 2.028 . S
Zn145 O148 2.028 . S
Zn145 O151 2.035 . S
O146 Zn145 2.028 . S
O146 C152 1.247 . S
O147 Zn143 2.035 . S
O147 C152 1.258 . S
O148 C141 1.247 . S
O148 Zn145 2.028 . S
O149 C141 1.258 . S
O149 Zn143 2.035 . S
O150 Zn143 2.028 . S
O150 C153 1.247 . S
O151 Zn145 2.035 . S
O151 C153 1.258 . S
C152 O146 1.247 . S
C152 O147 1.258 . S
C153 O150 1.247 . S
C153 O151 1.258 . S
C154 O156 1.247 . S
C154 O158 1.258 1_655 S
C155 O162 1.247 . S
C155 O163 1.258 . S
O156 C154 1.247 . S
O156 Zn157 2.028 . S
Zn157 O156 2.028 . S
Zn157 O161 2.035 . S
Zn157 O163 2.035 . S
Zn157 O164 2.028 . S
O158 C154 1.258 1_455 S
O158 Zn159 2.035 . S
Zn159 O158 2.035 . S
Zn159 O160 2.028 1_455 S
Zn159 O162 2.028 1_455 S
Zn159 O165 2.035 1_455 S
O160 Zn159 2.028 1_655 S
O160 C166 1.247 . S
O161 Zn157 2.035 . S
O161 C166 1.258 . S
O162 C155 1.247 . S
O162 Zn159 2.028 1_655 S
O163 C155 1.258 . S
O163 Zn157 2.035 . S
O164 Zn157 2.028 . S
O164 C167 1.247 . S
O165 Zn159 2.035 1_655 S
O165 C167 1.258 . S
C166 O160 1.247 . S
C166 O161 1.258 . S
C167 O164 1.247 . S
C167 O165 1.258 . S
H168 C176 0.950 . S
H169 C181 0.950 . S
H170 C178 0.950 . S
H171 C180 0.950 . S
H172 C182 0.950 . S
H173 C184 0.950 . S
H174 C186 0.950 . S
H175 C187 0.950 . S
C176 H168 0.950 . S
C176 C177 1.386 . S
C176 C178 1.391 . S
C177 C176 1.386 . S
C177 C181 1.393 . S
C178 H170 0.950 . S
C178 C176 1.391 . S
C178 C179 1.400 . S
C179 C178 1.400 . S
C179 C180 1.398 . S
C179 C185 1.491 1_655 S
C180 H171 0.950 . S
C180 C179 1.398 . S
C180 C181 1.391 . S
C181 H169 0.950 . S
C181 C177 1.393 . S
C181 C180 1.391 . S
C182 H172 0.950 . S
C182 C183 1.386 . S
C182 C184 1.391 . S
C183 C182 1.386 . S
C183 C187 1.393 . S
C184 H173 0.950 . S
C184 C182 1.391 . S
C184 C185 1.400 . S
C185 C179 1.491 1_455 S
C185 C184 1.400 . S
C185 C186 1.398 . S
C186 H174 0.950 . S
C186 C185 1.398 . S
C186 C187 1.391 . S
C187 H175 0.950 . S
C187 C183 1.393 . S
C187 C186 1.391 . S
H188 C196 0.950 . S
H189 C201 0.944 . S
H190 C198 0.950 . S
H191 C200 0.950 . S
H192 C202 0.950 . S
H193 C204 0.950 . S
H194 C206 0.950 . S
H195 C207 0.944 . S
C196 H188 0.950 . S
C196 C197 1.386 . S
C196 C198 1.391 . S
C197 C196 1.386 . S
C197 C201 1.397 1_545 S
C198 H190 0.950 . S
C198 C196 1.391 . S
C198 C199 1.400 . S
C199 C198 1.400 . S
C199 C200 1.398 1_545 S
C199 C205 1.491 1_545 S
C200 H191 0.950 . S
C200 C199 1.398 1_565 S
C200 C201 1.392 . S
C201 H189 0.944 . S
C201 C197 1.397 1_565 S
C201 C200 1.392 . S
C202 H192 0.950 . S
C202 C203 1.386 . S
C202 C204 1.391 . S
C203 C202 1.386 . S
C203 C207 1.398 1_565 S
C204 H193 0.950 . S
C204 C202 1.391 . S
C204 C205 1.400 . S
C205 C199 1.491 1_565 S
C205 C204 1.400 . S
C205 C206 1.398 1_565 S
C206 H194 0.950 . S
C206 C205 1.398 1_545 S
C206 C207 1.393 . S
C207 H195 0.944 . S
C207 C203 1.398 1_545 S
C207 C206 1.393 . S
H208 C216 0.950 . S
H209 C221 0.950 . S
H210 C218 0.950 . S
H211 C220 0.950 . S
H212 C222 0.950 . S
H213 C224 0.950 . S
H214 C226 0.950 . S
H215 C227 0.950 . S
C216 H208 0.950 . S
C216 C217 1.386 . S
C216 C218 1.391 . S
C217 C216 1.386 . S
C217 C221 1.393 . S
C218 H210 0.950 . S
C218 C216 1.391 . S
C218 C219 1.400 . S
C219 C218 1.400 . S
C219 C220 1.398 . S
C219 C225 1.491 . S
C220 H211 0.950 . S
C220 C219 1.398 . S
C220 C221 1.391 . S
C221 H209 0.950 . S
C221 C217 1.393 . S
C221 C220 1.391 . S
C222 H212 0.950 . S
C222 C223 1.386 . S
C222 C224 1.391 . S
C223 C222 1.386 . S
C223 C227 1.393 . S
C224 H213 0.950 . S
C224 C222 1.391 . S
C224 C225 1.400 . S
C225 C219 1.491 . S
C225 C224 1.400 . S
C225 C226 1.398 . S
C226 H214 0.950 . S
C226 C225 1.398 . S
C226 C227 1.391 . S
C227 H215 0.950 . S
C227 C223 1.393 . S
C227 C226 1.391 . S
H228 C236 0.950 . S
H229 C241 0.950 . S
H230 C238 0.950 . S
H231 C240 0.950 . S
H232 C242 0.950 . S
H233 C244 0.950 . S
H234 C246 0.950 . S
H235 C247 0.950 . S
C236 H228 0.950 . S
C236 C237 1.386 . S
C236 C238 1.391 . S
C237 C236 1.386 . S
C237 C241 1.393 1_655 S
C238 H230 0.950 . S
C238 C236 1.391 . S
C238 C239 1.400 . S
C239 C238 1.400 . S
C239 C240 1.398 1_655 S
C239 C245 1.491 1_655 S
C240 H231 0.950 . S
C240 C239 1.398 1_455 S
C240 C241 1.391 . S
C241 H229 0.950 . S
C241 C237 1.393 1_455 S
C241 C240 1.391 . S
C242 H232 0.950 . S
C242 C243 1.386 . S
C242 C244 1.391 . S
C243 C242 1.386 . S
C243 C247 1.393 1_455 S
C244 H233 0.950 . S
C244 C242 1.391 . S
C244 C245 1.400 . S
C245 C239 1.491 1_455 S
C245 C244 1.400 . S
C245 C246 1.398 1_455 S
C246 H234 0.950 . S
C246 C245 1.398 1_655 S
C246 C247 1.391 . S
C247 H235 0.950 . S
C247 C243 1.393 1_655 S
C247 C246 1.391 . S
H248 C256 0.950 . S
H249 C261 0.950 . S
H250 C258 0.950 . S
H251 C260 0.950 . S
H252 C262 0.950 . S
H253 C264 0.950 . S
H254 C266 0.950 . S
H255 C267 0.950 . S
C256 H248 0.950 . S
C256 C257 1.386 1_565 S
C256 C258 1.391 . S
C257 C256 1.386 1_545 S
C257 C261 1.393 . S
C258 H250 0.950 . S
C258 C256 1.391 . S
C258 C259 1.400 1_565 S
C259 C258 1.400 1_545 S
C259 C260 1.398 . S
C259 C265 1.491 1_545 S
C260 H251 0.950 . S
C260 C259 1.398 . S
C260 C261 1.391 . S
C261 H249 0.950 . S
C261 C257 1.393 . S
C261 C260 1.391 . S
C262 H252 0.950 . S
C262 C263 1.386 1_545 S
C262 C264 1.391 . S
C263 C262 1.386 1_565 S
C263 C267 1.393 . S
C264 H253 0.950 . S
C264 C262 1.391 . S
C264 C265 1.400 1_545 S
C265 C259 1.491 1_565 S
C265 C264 1.400 1_565 S
C265 C266 1.398 . S
C266 H254 0.950 . S
C266 C265 1.398 . S
C266 C267 1.391 . S
C267 H255 0.950 . S
C267 C263 1.393 . S
C267 C266 1.391 . S
H268 C276 0.950 . S
H269 C281 0.950 . S
H270 C278 0.950 . S
H271 C280 0.950 . S
H272 C282 0.950 . S
H273 C284 0.950 . S
H274 C286 0.950 . S
H275 C287 0.950 . S
C276 H268 0.950 . S
C276 C277 1.386 . S
C276 C278 1.391 . S
C277 C276 1.386 . S
C277 C281 1.393 . S
C278 H270 0.950 . S
C278 C276 1.391 . S
C278 C279 1.400 . S
C279 C278 1.400 . S
C279 C280 1.398 . S
C279 C285 1.491 . S
C280 H271 0.950 . S
C280 C279 1.398 . S
C280 C281 1.391 . S
C281 H269 0.950 . S
C281 C277 1.393 . S
C281 C280 1.391 . S
C282 H272 0.950 . S
C282 C283 1.386 . S
C282 C284 1.391 . S
C283 C282 1.386 . S
C283 C287 1.393 . S
C284 H273 0.950 . S
C284 C282 1.391 . S
C284 C285 1.400 . S
C285 C279 1.491 . S
C285 C284 1.400 . S
C285 C286 1.398 . S
C286 H274 0.950 . S
C286 C285 1.398 . S
C286 C287 1.391 . S
C287 H275 0.950 . S
C287 C283 1.393 . S
C287 C286 1.391 . S
H288 C296 0.950 . S
H289 C301 0.950 . S
H290 C298 0.950 . S
H291 C300 0.987 . S
H292 C302 0.950 . S
H293 C304 0.950 . S
H294 C306 0.985 . S
H295 C307 0.950 . S
C296 H288 0.950 . S
C296 C297 1.386 . S
C296 C298 1.391 . S
C297 C296 1.386 . S
C297 C301 1.393 . S
C298 H290 0.950 . S
C298 C296 1.391 . S
C298 C299 1.400 . S
C299 C298 1.400 . S
C299 C300 1.398 . S
C299 C305 1.491 1_554 S
C300 H291 0.987 . S
C300 C299 1.398 . S
C300 C301 1.391 . S
C301 H289 0.950 . S
C301 C297 1.393 . S
C301 C300 1.391 . S
C302 H292 0.950 . S
C302 C303 1.386 . S
C302 C304 1.391 . S
C303 C302 1.386 . S
C303 C307 1.393 . S
C304 H293 0.950 . S
C304 C302 1.391 . S
C304 C305 1.400 . S
C305 C299 1.491 1_556 S
C305 C304 1.400 . S
C305 C306 1.398 . S
C306 H294 0.985 . S
C306 C305 1.398 . S
C306 C307 1.391 . S
C307 H295 0.950 . S
C307 C303 1.393 . S
C307 C306 1.391 . S
H308 C316 0.950 . S
H309 C321 0.950 . S
H310 C318 0.950 . S
H311 C320 0.950 . S
H312 C322 0.950 . S
H313 C324 0.950 . S
H314 C326 0.950 . S
H315 C327 0.950 . S
C316 H308 0.950 . S
C316 C317 1.386 . S
C316 C318 1.391 . S
C317 C316 1.386 . S
C317 C321 1.393 . S
C318 H310 0.950 . S
C318 C316 1.391 . S
C318 C319 1.400 . S
C319 C318 1.400 . S
C319 C320 1.398 . S
C319 C325 1.491 . S
C320 H311 0.950 . S
C320 C319 1.398 . S
C320 C321 1.391 . S
C321 H309 0.950 . S
C321 C317 1.393 . S
C321 C320 1.391 . S
C322 H312 0.950 . S
C322 C323 1.386 . S
C322 C324 1.391 . S
C323 C322 1.386 . S
C323 C327 1.393 . S
C324 H313 0.950 . S
C324 C322 1.391 . S
C324 C325 1.400 . S
C325 C319 1.491 . S
C325 C324 1.400 . S
C325 C326 1.398 . S
C326 H314 0.950 . S
C326 C325 1.398 . S
C326 C327 1.391 . S
C327 H315 0.950 . S
C327 C323 1.393 . S
C327 C326 1.391 . S
H328 C336 0.950 . S
H329 C341 0.950 . S
H330 C338 0.950 . S
H331 C340 0.950 . S
H332 C342 0.950 . S
H333 C344 0.950 . S
H334 C346 0.950 . S
H335 C347 0.950 . S
C336 H328 0.950 . S
C336 C337 1.386 . S
C336 C338 1.391 . S
C337 C336 1.386 . S
C337 C341 1.393 . S
C338 H330 0.950 . S
C338 C336 1.391 . S
C338 C339 1.400 . S
C339 C338 1.400 . S
C339 C340 1.398 . S
C339 C345 1.491 . S
C340 H331 0.950 . S
C340 C339 1.398 . S
C340 C341 1.391 . S
C341 H329 0.950 . S
C341 C337 1.393 . S
C341 C340 1.391 . S
C342 H332 0.950 . S
C342 C343 1.386 . S
C342 C344 1.391 . S
C343 C342 1.386 . S
C343 C347 1.393 . S
C344 H333 0.950 . S
C344 C342 1.391 . S
C344 C345 1.400 . S
C345 C339 1.491 . S
C345 C344 1.400 . S
C345 C346 1.398 . S
C346 H334 0.950 . S
C346 C345 1.398 . S
C346 C347 1.391 . S
C347 H335 0.950 . S
C347 C343 1.393 . S
C347 C346 1.391 . S
H348 C356 0.950 . S
H349 C361 0.950 . S
H350 C358 0.950 . S
H351 C360 0.950 . S
H352 C362 0.950 . S
H353 C364 0.950 . S
H354 C366 0.950 . S
H355 C367 0.950 . S
C356 H348 0.950 . S
C356 C357 1.386 . S
C356 C358 1.391 . S
C357 C356 1.386 . S
C357 C361 1.393 . S
C358 H350 0.950 . S
C358 C356 1.391 . S
C358 C359 1.400 . S
C359 C358 1.400 . S
C359 C360 1.398 . S
C359 C365 1.491 1_554 S
C360 H351 0.950 . S
C360 C359 1.398 . S
C360 C361 1.391 . S
C361 H349 0.950 . S
C361 C357 1.393 . S
C361 C360 1.391 . S
C362 H352 0.950 . S
C362 C363 1.386 . S
C362 C364 1.391 . S
C363 C362 1.386 . S
C363 C367 1.393 . S
C364 H353 0.950 . S
C364 C362 1.391 . S
C364 C365 1.400 . S
C365 C359 1.491 1_556 S
C365 C364 1.400 . S
C365 C366 1.398 . S
C366 H354 0.950 . S
C366 C365 1.398 . S
C366 C367 1.391 . S
C367 H355 0.950 . S
C367 C363 1.393 . S
C367 C366 1.391 . S
H368 C376 0.950 . S
H369 C381 0.950 . S
H370 C378 0.950 . S
H371 C380 0.950 . S
H372 C382 0.950 . S
H373 C384 0.950 . S
H374 C386 0.950 . S
H375 C387 0.950 . S
C376 H368 0.950 . S
C376 C377 1.386 . S
C376 C378 1.391 . S
C377 C376 1.386 . S
C377 C381 1.393 . S
C378 H370 0.950 . S
C378 C376 1.391 . S
C378 C379 1.400 . S
C379 C378 1.400 . S
C379 C380 1.398 . S
C379 C385 1.491 . S
C380 H371 0.950 . S
C380 C379 1.398 . S
C380 C381 1.391 . S
C381 H369 0.950 . S
C381 C377 1.393 . S
C381 C380 1.391 . S
C382 H372 0.950 . S
C382 C383 1.386 . S
C382 C384 1.391 . S
C383 C382 1.386 . S
C383 C387 1.393 . S
C384 H373 0.950 . S
C384 C382 1.391 . S
C384 C385 1.400 . S
C385 C379 1.491 . S
C385 C384 1.400 . S
C385 C386 1.398 . S
C386 H374 0.950 . S
C386 C385 1.398 . S
C386 C387 1.391 . S
C387 H375 0.950 . S
C387 C383 1.393 . S
C387 C386 1.391 . S
H388 C396 0.950 . S
H389 C401 0.950 . S
H390 C398 0.950 . S
H391 C400 0.950 . S
H392 C402 0.950 . S
H393 C404 0.950 . S
H394 C406 0.950 . S
H395 C407 0.950 . S
C396 H388 0.950 . S
C396 C397 1.386 . S
C396 C398 1.391 . S
C397 C396 1.386 . S
C397 C401 1.393 . S
C398 H390 0.950 . S
C398 C396 1.391 . S
C398 C399 1.400 . S
C399 C398 1.400 . S
C399 C400 1.398 . S
C399 C405 1.491 . S
C400 H391 0.950 . S
C400 C399 1.398 . S
C400 C401 1.391 . S
C401 H389 0.950 . S
C401 C397 1.393 . S
C401 C400 1.391 . S
C402 H392 0.950 . S
C402 C403 1.386 . S
C402 C404 1.391 . S
C403 C402 1.386 . S
C403 C407 1.393 . S
C404 H393 0.950 . S
C404 C402 1.391 . S
C404 C405 1.400 . S
C405 C399 1.491 . S
C405 C404 1.400 . S
C405 C406 1.398 . S
C406 H394 0.950 . S
C406 C405 1.398 . S
C406 C407 1.391 . S
C407 H395 0.950 . S
C407 C403 1.393 . S
C407 C406 1.391 . S
H408 C416 0.950 . S
H409 C421 0.950 . S
H410 C418 0.950 . S
H411 C420 0.950 . S
H412 C422 0.950 . S
H413 C424 0.950 . S
H414 C426 0.950 . S
H415 C427 0.950 . S
C416 H408 0.950 . S
C416 C417 1.386 . S
C416 C418 1.391 . S
C417 C416 1.386 . S
C417 C421 1.393 1_655 S
C418 H410 0.950 . S
C418 C416 1.391 . S
C418 C419 1.400 . S
C419 C418 1.400 . S
C419 C420 1.398 1_655 S
C419 C425 1.491 1_655 S
C420 H411 0.950 . S
C420 C419 1.398 1_455 S
C420 C421 1.391 . S
C421 H409 0.950 . S
C421 C417 1.393 1_455 S
C421 C420 1.391 . S
C422 H412 0.950 . S
C422 C423 1.386 . S
C422 C424 1.391 . S
C423 C422 1.386 . S
C423 C427 1.393 1_455 S
C424 H413 0.950 . S
C424 C422 1.391 . S
C424 C425 1.400 . S
C425 C419 1.491 1_455 S
C425 C424 1.400 . S
C425 C426 1.398 1_455 S
C426 H414 0.950 . S
C426 C425 1.398 1_655 S
C426 C427 1.391 . S
C427 H415 0.950 . S
C427 C423 1.393 1_655 S
C427 C426 1.391 . S
H428 C436 0.950 . S
H429 C441 0.950 . S
H430 C438 0.950 . S
H431 C440 0.950 . S
H432 C442 0.950 . S
H433 C444 0.950 . S
H434 C446 0.950 . S
H435 C447 0.950 . S
C436 H428 0.950 . S
C436 C437 1.386 . S
C436 C438 1.391 . S
C437 C436 1.386 . S
C437 C441 1.393 1_545 S
C438 H430 0.950 . S
C438 C436 1.391 . S
C438 C439 1.400 . S
C439 C438 1.400 . S
C439 C440 1.398 1_545 S
C439 C445 1.491 1_545 S
C440 H431 0.950 . S
C440 C439 1.398 1_565 S
C440 C441 1.391 . S
C441 H429 0.950 . S
C441 C437 1.393 1_565 S
C441 C440 1.391 . S
C442 H432 0.950 . S
C442 C443 1.386 . S
C442 C444 1.391 . S
C443 C442 1.386 . S
C443 C447 1.393 1_565 S
C444 H433 0.950 . S
C444 C442 1.391 . S
C444 C445 1.400 . S
C445 C439 1.491 1_565 S
C445 C444 1.400 . S
C445 C446 1.398 1_565 S
C446 H434 0.950 . S
C446 C445 1.398 1_545 S
C446 C447 1.391 . S
C447 H435 0.950 . S
C447 C443 1.393 1_545 S
C447 C446 1.391 . S
H448 C456 0.950 . S
H449 C461 0.950 . S
H450 C458 0.950 . S
H451 C460 0.950 . S
H452 C462 0.950 . S
H453 C464 0.950 . S
H454 C466 0.950 . S
H455 C467 0.950 . S
C456 H448 0.950 . S
C456 C457 1.386 . S
C456 C458 1.391 . S
C457 C456 1.386 . S
C457 C461 1.393 . S
C458 H450 0.950 . S
C458 C456 1.391 . S
C458 C459 1.400 . S
C459 C458 1.400 . S
C459 C460 1.398 . S
C459 C465 1.491 . S
C460 H451 0.950 . S
C460 C459 1.398 . S
C460 C461 1.391 . S
C461 H449 0.950 . S
C461 C457 1.393 . S
C461 C460 1.391 . S
C462 H452 0.950 . S
C462 C463 1.386 . S
C462 C464 1.391 . S
C463 C462 1.386 . S
C463 C467 1.393 . S
C464 H453 0.950 . S
C464 C462 1.391 . S
C464 C465 1.400 . S
C465 C459 1.491 . S
C465 C464 1.400 . S
C465 C466 1.398 . S
C466 H454 0.950 . S
C466 C465 1.398 . S
C466 C467 1.391 . S
C467 H455 0.950 . S
C467 C463 1.393 . S
C467 C466 1.391 . S
H468 C476 0.950 . S
H469 C481 0.950 . S
H470 C478 0.950 . S
H471 C480 0.950 . S
H472 C482 0.950 . S
H473 C484 0.959 . S
H474 C486 0.950 . S
H475 C487 0.950 . S
C476 H468 0.950 . S
C476 C477 1.386 . S
C476 C478 1.391 . S
C477 C476 1.386 . S
C477 C481 1.393 . S
C478 H470 0.950 . S
C478 C476 1.391 . S
C478 C479 1.400 . S
C479 C478 1.400 . S
C479 C480 1.398 . S
C479 C485 1.491 1_545 S
C480 H471 0.950 . S
C480 C479 1.398 . S
C480 C481 1.391 . S
C481 H469 0.950 . S
C481 C477 1.393 . S
C481 C480 1.391 . S
C482 H472 0.950 . S
C482 C483 1.386 . S
C482 C484 1.391 . S
C483 C482 1.386 . S
C483 C487 1.393 . S
C484 H473 0.959 . S
C484 C482 1.391 . S
C484 C485 1.400 . S
C485 C479 1.491 1_565 S
C485 C484 1.400 . S
C485 C486 1.398 . S
C486 H474 0.950 . S
C486 C485 1.398 . S
C486 C487 1.391 . S
C487 H475 0.950 . S
C487 C483 1.393 . S
C487 C486 1.391 . S
H488 C496 0.950 . S
H489 C501 0.950 . S
H490 C498 0.950 . S
H491 C500 0.950 . S
H492 C502 0.950 . S
H493 C504 0.950 . S
H494 C506 0.950 . S
H495 C507 0.950 . S
C496 H488 0.950 . S
C496 C497 1.386 . S
C496 C498 1.391 . S
C497 C496 1.386 . S
C497 C501 1.393 . S
C498 H490 0.950 . S
C498 C496 1.391 . S
C498 C499 1.400 . S
C499 C498 1.400 . S
C499 C500 1.398 . S
C499 C505 1.491 . S
C500 H491 0.950 . S
C500 C499 1.398 . S
C500 C501 1.391 . S
C501 H489 0.950 . S
C501 C497 1.393 . S
C501 C500 1.391 . S
C502 H492 0.950 . S
C502 C503 1.386 . S
C502 C504 1.391 . S
C503 C502 1.386 . S
C503 C507 1.393 . S
C504 H493 0.950 . S
C504 C502 1.391 . S
C504 C505 1.400 . S
C505 C499 1.491 . S
C505 C504 1.400 . S
C505 C506 1.398 . S
C506 H494 0.950 . S
C506 C505 1.398 . S
C506 C507 1.391 . S
C507 H495 0.950 . S
C507 C503 1.393 . S
C507 C506 1.391 . S
H508 C516 0.950 . S
H509 C521 0.950 . S
H510 C518 0.950 . S
H511 C520 0.950 . S
H512 C522 0.950 . S
H513 C524 0.950 . S
H514 C526 0.950 . S
H515 C527 0.950 . S
C516 H508 0.950 . S
C516 C517 1.386 . S
C516 C518 1.391 . S
C517 C516 1.386 . S
C517 C521 1.393 . S
C518 H510 0.950 . S
C518 C516 1.391 . S
C518 C519 1.400 . S
C519 C518 1.400 . S
C519 C520 1.398 . S
C519 C525 1.491 1_455 S
C520 H511 0.950 . S
C520 C519 1.398 . S
C520 C521 1.391 . S
C521 H509 0.950 . S
C521 C517 1.393 . S
C521 C520 1.391 . S
C522 H512 0.950 . S
C522 C523 1.386 . S
C522 C524 1.391 . S
C523 C522 1.386 . S
C523 C527 1.393 . S
C524 H513 0.950 . S
C524 C522 1.391 . S
C524 C525 1.400 . S
C525 C519 1.491 1_655 S
C525 C524 1.400 . S
C525 C526 1.398 . S
C526 H514 0.950 . S
C526 C525 1.398 . S
C526 C527 1.391 . S
C527 H515 0.950 . S
C527 C523 1.393 . S
C527 C526 1.391 . S
H528 C536 0.950 . S
H529 C541 0.950 . S
H530 C538 0.950 . S
H531 C540 0.950 . S
H532 C542 0.950 . S
H533 C544 0.950 . S
H534 C546 0.950 . S
H535 C547 0.950 . S
C536 H528 0.950 . S
C536 C537 1.386 . S
C536 C538 1.391 . S
C537 C536 1.386 . S
C537 C541 1.393 1_455 S
C538 H530 0.950 . S
C538 C536 1.391 . S
C538 C539 1.400 . S
C539 C538 1.400 . S
C539 C540 1.398 1_455 S
C539 C545 1.491 1_445 S
C540 H531 0.950 . S
C540 C539 1.398 1_655 S
C540 C541 1.391 . S
C541 H529 0.950 . S
C541 C537 1.393 1_655 S
C541 C540 1.391 . S
C542 H532 0.950 . S
C542 C543 1.386 . S
C542 C544 1.391 . S
C543 C542 1.386 . S
C543 C547 1.393 1_655 S
C544 H533 0.950 . S
C544 C542 1.391 . S
C544 C545 1.400 . S
C545 C539 1.491 1_665 S
C545 C544 1.400 . S
C545 C546 1.398 1_655 S
C546 H534 0.950 . S
C546 C545 1.398 1_455 S
C546 C547 1.391 . S
C547 H535 0.950 . S
C547 C543 1.393 1_455 S
C547 C546 1.391 . S
H548 C556 0.950 . S
H549 C561 0.950 . S
H550 C558 0.950 . S
H551 C560 0.950 1_455 S
H552 C562 0.950 . S
H553 C564 0.950 . S
H554 C566 0.950 1_655 S
H555 C567 0.950 . S
C556 H548 0.950 . S
C556 C557 1.386 1_565 S
C556 C558 1.391 . S
C557 C556 1.386 1_545 S
C557 C561 1.393 . S
C558 H550 0.950 . S
C558 C556 1.391 . S
C558 C559 1.400 1_565 S
C559 C558 1.400 1_545 S
C559 C560 1.398 . S
C559 C565 1.491 1_645 S
C560 H551 0.950 1_655 S
C560 C559 1.398 . S
C560 C561 1.391 . S
C561 H549 0.950 . S
C561 C557 1.393 . S
C561 C560 1.391 . S
C562 H552 0.950 . S
C562 C563 1.386 1_545 S
C562 C564 1.391 . S
C563 C562 1.386 1_565 S
C563 C567 1.393 . S
C564 H553 0.950 . S
C564 C562 1.391 . S
C564 C565 1.400 1_545 S
C565 C559 1.491 1_465 S
C565 C564 1.400 1_565 S
C565 C566 1.398 . S
C566 H554 0.950 1_455 S
C566 C565 1.398 . S
C566 C567 1.391 . S
C567 H555 0.950 . S
C567 C563 1.393 . S
C567 C566 1.391 . S
H568 C576 0.950 . S
H569 C581 0.950 . S
H570 C578 0.950 1_565 S
H571 C580 0.950 . S
H572 C582 0.950 . S
H573 C584 0.950 1_545 S
H574 C586 0.950 . S
H575 C587 0.950 . S
C576 H568 0.950 . S
C576 C577 1.386 . S
C576 C578 1.391 . S
C577 C576 1.386 . S
C577 C581 1.393 . S
C578 H570 0.950 1_545 S
C578 C576 1.391 . S
C578 C579 1.400 . S
C579 C578 1.400 . S
C579 C580 1.398 . S
C579 C585 1.491 1_445 S
C580 H571 0.950 . S
C580 C579 1.398 . S
C580 C581 1.391 . S
C581 H569 0.950 . S
C581 C577 1.393 . S
C581 C580 1.391 . S
C582 H572 0.950 . S
C582 C583 1.386 . S
C582 C584 1.391 . S
C583 C582 1.386 . S
C583 C587 1.393 . S
C584 H573 0.950 1_565 S
C584 C582 1.391 . S
C584 C585 1.400 . S
C585 C579 1.491 1_665 S
C585 C584 1.400 . S
C585 C586 1.398 . S
C586 H574 0.950 . S
C586 C585 1.398 . S
C586 C587 1.391 . S
C587 H575 0.950 . S
C587 C583 1.393 . S
C587 C586 1.391 . S
H588 C596 0.950 . S
H589 C601 0.950 . S
H590 C598 0.950 . S
H591 C600 0.950 . S
H592 C602 0.950 . S
H593 C604 0.950 . S
H594 C606 0.950 . S
H595 C607 0.950 . S
C596 H588 0.950 . S
C596 C597 1.386 . S
C596 C598 1.391 . S
C597 C596 1.386 . S
C597 C601 1.393 1_565 S
C598 H590 0.950 . S
C598 C596 1.391 . S
C598 C599 1.400 . S
C599 C598 1.400 . S
C599 C600 1.398 1_565 S
C599 C605 1.491 1_665 S
C600 H591 0.950 . S
C600 C599 1.398 1_545 S
C600 C601 1.391 . S
C601 H589 0.950 . S
C601 C597 1.393 1_545 S
C601 C600 1.391 . S
C602 H592 0.950 . S
C602 C603 1.386 . S
C602 C604 1.391 . S
C603 C602 1.386 . S
C603 C607 1.393 1_545 S
C604 H593 0.950 . S
C604 C602 1.391 . S
C604 C605 1.400 . S
C605 C599 1.491 1_445 S
C605 C604 1.400 . S
C605 C606 1.398 1_545 S
C606 H594 0.950 . S
C606 C605 1.398 1_565 S
C606 C607 1.391 . S
C607 H595 0.950 . S
C607 C603 1.393 1_565 S
C607 C606 1.391 . S
H608 C616 0.950 . S
H609 C621 0.950 . S
H610 C618 0.950 . S
H611 C620 0.950 . S
H612 C622 0.950 . S
H613 C624 0.950 . S
H614 C626 0.950 . S
H615 C627 0.950 . S
C616 H608 0.950 . S
C616 C617 1.386 . S
C616 C618 1.391 . S
C617 C616 1.386 . S
C617 C621 1.393 . S
C618 H610 0.950 . S
C618 C616 1.391 . S
C618 C619 1.400 . S
C619 C618 1.400 . S
C619 C620 1.398 . S
C619 C625 1.491 1_665 S
C620 H611 0.950 . S
C620 C619 1.398 . S
C620 C621 1.391 . S
C621 H609 0.950 . S
C621 C617 1.393 . S
C621 C620 1.391 . S
C622 H612 0.950 . S
C622 C623 1.386 . S
C622 C624 1.391 . S
C623 C622 1.386 . S
C623 C627 1.393 . S
C624 H613 0.950 . S
C624 C622 1.391 . S
C624 C625 1.400 . S
C625 C619 1.491 1_445 S
C625 C624 1.400 . S
C625 C626 1.398 . S
C626 H614 0.950 . S
C626 C625 1.398 . S
C626 C627 1.391 . S
C627 H615 0.950 . S
C627 C623 1.393 . S
C627 C626 1.391 . S
H628 C636 0.950 . S
H629 C641 0.950 . S
H630 C638 0.950 1_545 S
H631 C640 0.950 . S
H632 C642 0.950 . S
H633 C644 0.950 1_565 S
H634 C646 0.950 . S
H635 C647 0.950 . S
C636 H628 0.950 . S
C636 C637 1.386 . S
C636 C638 1.391 . S
C637 C636 1.386 . S
C637 C641 1.393 1_455 S
C638 H630 0.950 1_565 S
C638 C636 1.391 . S
C638 C639 1.400 . S
C639 C638 1.400 . S
C639 C640 1.398 1_455 S
C639 C645 1.491 1_465 S
C640 H631 0.950 . S
C640 C639 1.398 1_655 S
C640 C641 1.391 . S
C641 H629 0.950 . S
C641 C637 1.393 1_655 S
C641 C640 1.391 . S
C642 H632 0.950 . S
C642 C643 1.386 . S
C642 C644 1.391 . S
C643 C642 1.386 . S
C643 C647 1.393 1_655 S
C644 H633 0.950 1_545 S
C644 C642 1.391 . S
C644 C645 1.400 . S
C645 C639 1.491 1_645 S
C645 C644 1.400 . S
C645 C646 1.398 1_655 S
C646 H634 0.950 . S
C646 C645 1.398 1_455 S
C646 C647 1.391 . S
C647 H635 0.950 . S
C647 C643 1.393 1_455 S
C647 C646 1.391 . S
C177 C154 1.562 . S
C183 C0 1.561 . S
C197 C15 1.565 . S
C203 C97 1.561 . S
C217 C28 1.566 . S
C223 C99 1.571 . S
C237 C55 1.565 . S
C243 C113 1.561 . S
C257 C127 1.561 . S
C263 C68 1.570 . S
C277 C71 1.560 . S
C283 C140 1.566 . S
C297 C1 1.576 . S
C303 C141 1.573 . S
C317 C14 1.571 . S
C323 C155 1.575 . S
C337 C29 1.571 . S
C343 C96 1.573 . S
C357 C54 1.576 . S
C363 C98 1.574 . S
C377 C112 1.575 . S
C383 C69 1.577 . S
C397 C126 1.576 . S
C403 C70 1.574 . S
C417 C42 1.587 . S
C423 C13 1.593 . S
C437 C26 1.586 . S
C443 C57 1.592 . S
C457 C82 1.597 . S
C463 C41 1.595 . S
C477 C138 1.597 . S
C483 C84 1.597 . S
C497 C153 1.596 . S
C503 C110 1.589 . S
C517 C124 1.596 . S
C523 C167 1.599 . S
C537 C12 1.555 . S
C543 C43 1.562 . S
C557 C27 1.560 . S
C563 C56 1.554 . S
C577 C83 1.559 . S
C583 C40 1.563 . S
C597 C85 1.554 . S
C603 C139 1.559 . S
C617 C111 1.556 . S
C623 C152 1.552 . S
C637 C125 1.559 . S
C643 C166 1.563 . S
