# Generated by pormake.
# Topology zfi, (5)-cn, num edge types: 1
# Building blocks:
#     Node 0, Type 0, BuildingBlock: XOMCOT_clean_sbu_0, # of connection points: 5
#     Node 1, Type 0, BuildingBlock: XOMCOT_clean_sbu_0, # of connection points: 5
#     Node 2, Type 0, BuildingBlock: XOMCOT_clean_sbu_0, # of connection points: 5
#     Node 3, Type 0, BuildingBlock: XOMCOT_clean_sbu_0, # of connection points: 5
#     Node 4, Type 0, BuildingBlock: XOMCOT_clean_sbu_0, # of connection points: 5
#     Node 5, Type 0, BuildingBlock: XOMCOT_clean_sbu_0, # of connection points: 5
#     Node 6, Type 0, BuildingBlock: XOMCOT_clean_sbu_0, # of connection points: 5
#     Node 7, Type 0, BuildingBlock: XOMCOT_clean_sbu_0, # of connection points: 5
#     Node 8, Type 0, BuildingBlock: XOMCOT_clean_sbu_0, # of connection points: 5
#     Node 9, Type 0, BuildingBlock: XOMCOT_clean_sbu_0, # of connection points: 5
#     Node 10, Type 0, BuildingBlock: XOMCOT_clean_sbu_0, # of connection points: 5
#     Node 11, Type 0, BuildingBlock: XOMCOT_clean_sbu_0, # of connection points: 5
#     Node 12, Type 0, BuildingBlock: XOMCOT_clean_sbu_0, # of connection points: 5
#     Node 13, Type 0, BuildingBlock: XOMCOT_clean_sbu_0, # of connection points: 5
#     Node 14, Type 0, BuildingBlock: XOMCOT_clean_sbu_0, # of connection points: 5
#     Node 15, Type 0, BuildingBlock: XOMCOT_clean_sbu_0, # of connection points: 5
#     Edge 16, Type (0, 0), BuildingBlock: XIVTED_clean_linker_0, # of connection points: 2
#     Edge 17, Type (0, 0), BuildingBlock: XIVTED_clean_linker_0, # of connection points: 2
#     Edge 18, Type (0, 0), BuildingBlock: XIVTED_clean_linker_0, # of connection points: 2
#     Edge 19, Type (0, 0), BuildingBlock: XIVTED_clean_linker_0, # of connection points: 2
#     Edge 20, Type (0, 0), BuildingBlock: XIVTED_clean_linker_0, # of connection points: 2
#     Edge 21, Type (0, 0), BuildingBlock: XIVTED_clean_linker_0, # of connection points: 2
#     Edge 22, Type (0, 0), BuildingBlock: XIVTED_clean_linker_0, # of connection points: 2
#     Edge 23, Type (0, 0), BuildingBlock: XIVTED_clean_linker_0, # of connection points: 2
#     Edge 24, Type (0, 0), BuildingBlock: XIVTED_clean_linker_0, # of connection points: 2
#     Edge 25, Type (0, 0), BuildingBlock: XIVTED_clean_linker_0, # of connection points: 2
#     Edge 26, Type (0, 0), BuildingBlock: XIVTED_clean_linker_0, # of connection points: 2
#     Edge 27, Type (0, 0), BuildingBlock: XIVTED_clean_linker_0, # of connection points: 2
#     Edge 28, Type (0, 0), BuildingBlock: XIVTED_clean_linker_0, # of connection points: 2
#     Edge 29, Type (0, 0), BuildingBlock: XIVTED_clean_linker_0, # of connection points: 2
#     Edge 30, Type (0, 0), BuildingBlock: XIVTED_clean_linker_0, # of connection points: 2
#     Edge 31, Type (0, 0), BuildingBlock: XIVTED_clean_linker_0, # of connection points: 2
#     Edge 32, Type (0, 0), BuildingBlock: XIVTED_clean_linker_0, # of connection points: 2
#     Edge 33, Type (0, 0), BuildingBlock: XIVTED_clean_linker_0, # of connection points: 2
#     Edge 34, Type (0, 0), BuildingBlock: XIVTED_clean_linker_0, # of connection points: 2
#     Edge 35, Type (0, 0), BuildingBlock: XIVTED_clean_linker_0, # of connection points: 2
#     Edge 36, Type (0, 0), BuildingBlock: XIVTED_clean_linker_0, # of connection points: 2
#     Edge 37, Type (0, 0), BuildingBlock: XIVTED_clean_linker_0, # of connection points: 2
#     Edge 38, Type (0, 0), BuildingBlock: XIVTED_clean_linker_0, # of connection points: 2
#     Edge 39, Type (0, 0), BuildingBlock: XIVTED_clean_linker_0, # of connection points: 2
#     Edge 40, Type (0, 0), BuildingBlock: XIVTED_clean_linker_0, # of connection points: 2
#     Edge 41, Type (0, 0), BuildingBlock: XIVTED_clean_linker_0, # of connection points: 2
#     Edge 42, Type (0, 0), BuildingBlock: XIVTED_clean_linker_0, # of connection points: 2
#     Edge 43, Type (0, 0), BuildingBlock: XIVTED_clean_linker_0, # of connection points: 2
#     Edge 44, Type (0, 0), BuildingBlock: XIVTED_clean_linker_0, # of connection points: 2
#     Edge 45, Type (0, 0), BuildingBlock: XIVTED_clean_linker_0, # of connection points: 2
#     Edge 46, Type (0, 0), BuildingBlock: XIVTED_clean_linker_0, # of connection points: 2
#     Edge 47, Type (0, 0), BuildingBlock: XIVTED_clean_linker_0, # of connection points: 2
#     Edge 48, Type (0, 0), BuildingBlock: XIVTED_clean_linker_0, # of connection points: 2
#     Edge 49, Type (0, 0), BuildingBlock: XIVTED_clean_linker_0, # of connection points: 2
#     Edge 50, Type (0, 0), BuildingBlock: XIVTED_clean_linker_0, # of connection points: 2
#     Edge 51, Type (0, 0), BuildingBlock: XIVTED_clean_linker_0, # of connection points: 2
#     Edge 52, Type (0, 0), BuildingBlock: XIVTED_clean_linker_0, # of connection points: 2
#     Edge 53, Type (0, 0), BuildingBlock: XIVTED_clean_linker_0, # of connection points: 2
#     Edge 54, Type (0, 0), BuildingBlock: XIVTED_clean_linker_0, # of connection points: 2
#     Edge 55, Type (0, 0), BuildingBlock: XIVTED_clean_linker_0, # of connection points: 2
# Relax obj value: 0.090
# Max RMSD: 0.119
# Mean RMSD: 0.119
data_MOF--net-zfi--node1-XOMCOT_clean_sbu_0--edge1-XIVTED_clean_linker_0
_symmetry_space_group_name_H-M    P1
_symmetry_Int_Tables_number       1
_symmetry_cell_setting            triclinic
loop_
_symmetry_equiv_pos_as_xyz
'x, y, z'
_cell_length_a     39.171482
_cell_length_b     39.165732
_cell_length_c     48.169359
_cell_angle_alpha  90.046944
_cell_angle_beta   90.05933
_cell_angle_gamma 90.076226
loop_
_atom_site_label
_atom_site_type_symbol
_atom_site_fract_x
_atom_site_fract_y
_atom_site_fract_z
_atom_type_partial_charge
Co0 Co 0.65317 0.06905 0.1167 0.0
C1 C 0.68494 0.13746 0.10641 0.0
C2 C 0.63358 0.13502 0.09141 0.0
C3 C 0.64627 0.16731 0.0863 0.0
N4 N 0.65821 0.11582 0.10324 0.0
N5 N 0.67854 0.16873 0.0959 0.0
H6 H 0.70847 0.13127 0.11667 0.0
H7 H 0.60789 0.12632 0.08713 0.0
C8 C 0.62181 0.06417 0.05841 0.0
O9 O 0.64403 0.0854 0.04752 0.0
N10 N 0.64794 0.02286 0.13032 0.0
C11 C 0.67097 1.0051 0.14522 0.0
C12 C 0.66131 0.97125 0.14555 0.0
C13 C 0.62439 0.99977 0.12221 0.0
N14 N 0.63217 0.96786 0.13076 0.0
C15 C 0.72511 0.06432 0.11019 0.0
C16 C 0.72546 1.01115 0.07259 0.0
C17 C 0.75628 0.02131 0.08499 0.0
C18 C 0.75585 0.04896 0.10329 0.0
C19 C 0.69504 0.02814 0.07945 0.0
N20 N 0.69503 0.05431 0.09834 0.0
H21 H 0.72554 0.08192 0.12728 0.0
H22 H 0.67137 0.01808 0.07142 0.0
H23 H 0.69424 0.01563 0.15381 0.0
H24 H 0.60304 1.00585 0.10895 0.0
O25 O 0.67255 0.08222 0.15193 0.0
O26 O 0.61746 0.08434 0.14172 0.0
O27 O 0.62313 0.05628 0.08409 0.0
C28 C 0.64165 0.08878 0.15995 0.0
H29 H 0.63252 0.18839 0.07703 0.0
H30 H 0.67546 0.95066 0.15508 0.0
H31 H 0.72462 0.98929 0.05882 0.0
H32 H 0.77871 0.0567 0.11433 0.0
Co33 Co 0.45918 0.65017 0.11775 0.0
C34 C 0.38968 0.68021 0.11006 0.0
C35 C 0.39762 0.63807 0.08256 0.0
C36 C 0.3658 0.65162 0.07739 0.0
N37 N 0.41334 0.6568 0.10236 0.0
N38 N 0.36093 0.67824 0.09464 0.0
H39 H 0.39311 0.69839 0.12669 0.0
H40 H 0.40785 0.61558 0.07272 0.0
C41 C 0.47309 0.61834 0.06078 0.0
O42 O 0.46419 0.64624 0.04751 0.0
N43 N 0.50437 0.64348 0.13334 0.0
C44 C 0.52194 0.66663 0.14832 0.0
C45 C 0.55568 0.65692 0.14929 0.0
C46 C 0.52752 0.61967 0.12592 0.0
N47 N 0.55933 0.62756 0.13484 0.0
C48 C 0.46328 0.72092 0.10436 0.0
C49 C 0.52573 0.71837 0.07798 0.0
C50 C 0.51249 0.75023 0.0858 0.0
C51 C 0.48019 0.75119 0.09811 0.0
C52 C 0.50755 0.68849 0.08422 0.0
N53 N 0.47701 0.68991 0.09798 0.0
H54 H 0.44088 0.7228 0.11698 0.0
H55 H 0.5196 0.66424 0.08013 0.0
H56 H 0.51158 0.69045 0.15593 0.0
H57 H 0.52156 0.59805 0.1129 0.0
O58 O 0.44572 0.67275 0.15167 0.0
O59 O 0.44074 0.61719 0.14347 0.0
O60 O 0.47128 0.61694 0.08721 0.0
C61 C 0.43691 0.64266 0.16057 0.0
H62 H 0.34748 0.64229 0.06234 0.0
H63 H 0.57621 0.67189 0.15814 0.0
H64 H 0.55073 0.7164 0.06853 0.0
H65 H 0.46931 0.77501 0.10534 0.0
Co66 Co 0.8775 0.45813 0.11427 0.0
C67 C 0.84761 0.38835 0.10761 0.0
C68 C 0.88323 0.39893 0.0751 0.0
C69 C 0.8683 0.36767 0.07 0.0
N70 N 0.86946 0.41267 0.09825 0.0
N71 N 0.84576 0.36117 0.09039 0.0
H72 H 0.83212 0.39093 0.12606 0.0
H73 H 0.90286 0.41027 0.06248 0.0
C74 C 0.90994 0.47575 0.05804 0.0
O75 O 0.88119 0.4711 0.04447 0.0
N76 N 0.88545 0.50285 0.13054 0.0
C77 C 0.86295 0.52037 0.14614 0.0
C78 C 0.87332 0.55391 0.14762 0.0
C79 C 0.90962 0.52582 0.12337 0.0
N80 N 0.90247 0.55752 0.13293 0.0
C81 C 0.80731 0.46195 0.09875 0.0
C82 C 0.80951 0.5277 0.07821 0.0
C83 C 0.77776 0.51293 0.08426 0.0
C84 C 0.77691 0.47907 0.09332 0.0
C85 C 0.8395 0.5092 0.08318 0.0
N86 N 0.83826 0.47714 0.09449 0.0
H87 H 0.80546 0.43783 0.10913 0.0
H88 H 0.86366 0.52195 0.08022 0.0
H89 H 0.83906 0.51023 0.15379 0.0
H90 H 0.93085 0.51989 0.11 0.0
O91 O 0.85416 0.4449 0.14788 0.0
O92 O 0.90961 0.43842 0.1402 0.0
O93 O 0.91156 0.46996 0.0841 0.0
C94 C 0.88386 0.43534 0.15711 0.0
H95 H 0.87354 0.35104 0.05256 0.0
H96 H 0.85883 0.57439 0.15698 0.0
H97 H 0.81122 0.55393 0.07124 0.0
H98 H 0.753 0.46693 0.09885 0.0
Co99 Co 0.07125 0.87622 0.11586 0.0
C100 C 0.14109 0.84623 0.11002 0.0
C101 C 0.13233 0.88479 0.07943 0.0
C102 C 0.164 0.87067 0.07485 0.0
N103 N 0.11721 0.86866 0.10093 0.0
N104 N 0.16937 0.84623 0.09399 0.0
H105 H 0.13768 0.82948 0.12764 0.0
H106 H 0.12174 0.90571 0.06777 0.0
C107 C 0.05621 0.90874 0.0592 0.0
O108 O 0.06192 0.88028 0.04553 0.0
N109 N 0.02597 0.88408 0.13098 0.0
C110 C 1.00773 0.86193 0.14644 0.0
C111 C 0.97422 0.87262 0.14712 0.0
C112 C 1.00347 0.90828 0.12306 0.0
N113 N 0.97154 0.90157 0.13209 0.0
C114 C 0.06776 0.80593 0.10047 0.0
C115 C 1.00314 0.80823 0.07764 0.0
C116 C 0.0175 0.77645 0.08413 0.0
C117 C 0.05085 0.77556 0.09439 0.0
C118 C 0.02151 0.8382 0.08325 0.0
N119 N 0.05297 0.83691 0.09564 0.0
H120 H 0.09122 0.80401 0.11177 0.0
H121 H 1.00902 0.8624 0.07987 0.0
H122 H 0.01747 0.83823 0.15477 0.0
H123 H 1.00956 0.9288 0.10897 0.0
O124 O 0.0835 0.853 0.14979 0.0
O125 O 0.09 0.9085 0.14211 0.0
O126 O 0.06046 0.91007 0.08545 0.0
C127 C 0.09275 0.8828 0.1591 0.0
H128 H 0.18175 0.87792 0.05868 0.0
H129 H 0.95325 0.85911 0.15675 0.0
H130 H 0.97727 0.80997 0.0698 0.0
H131 H 0.06259 0.75162 0.10034 0.0
Co132 Co 0.14918 0.95758 0.40108 0.0
C133 C 0.17929 0.88786 0.40816 0.0
C134 C 0.13835 0.89618 0.43671 0.0
C135 C 0.15219 0.86449 0.4418 0.0
N136 N 0.15615 0.91162 0.41625 0.0
N137 N 0.17811 0.85938 0.42395 0.0
H138 H 0.19698 0.89121 0.39118 0.0
H139 H 0.11637 0.90654 0.44716 0.0
C140 C 0.11659 0.97195 0.45776 0.0
O141 O 0.14469 0.96457 0.47139 0.0
N142 N 0.142 1.0029 0.38575 0.0
C143 C 0.16393 0.02016 0.36938 0.0
C144 C 0.15391 0.05384 0.36819 0.0
C145 C 0.11869 0.02625 0.39388 0.0
N146 N 0.12566 0.05773 0.38391 0.0
C147 C 0.21956 0.96132 0.41568 0.0
C148 C 0.21718 0.0246 0.44084 0.0
C149 C 0.24902 1.01072 0.4338 0.0
C150 C 0.24988 0.97803 0.42216 0.0
C151 C 0.18722 1.00653 0.43453 0.0
N152 N 0.18857 0.9756 0.42129 0.0
H153 H 0.22148 0.93854 0.40352 0.0
H154 H 0.16301 0.01882 0.43825 0.0
H155 H 0.18698 1.00961 0.36053 0.0
H156 H 0.09861 0.02105 0.4086 0.0
O157 O 0.17238 0.94468 0.36733 0.0
O158 O 0.11678 0.93896 0.3748 0.0
O159 O 0.11539 0.96897 0.43139 0.0
C160 C 0.14256 0.93566 0.35796 0.0
H161 H 0.14361 0.84648 0.45735 0.0
H162 H 0.16739 0.0741 0.35756 0.0
H163 H 0.21534 0.04992 0.44976 0.0
H164 H 0.27373 0.96665 0.41557 0.0
Co165 Co 0.56727 0.15048 0.40161 0.0
C166 C 0.63762 0.17981 0.40692 0.0
C167 C 0.6292 0.1405 0.43694 0.0
C168 C 0.66113 0.15427 0.4413 0.0
N169 N 0.6137 0.15733 0.41598 0.0
N170 N 0.6663 0.1792 0.42252 0.0
H171 H 0.63413 0.19679 0.38948 0.0
H172 H 0.61868 0.11928 0.44831 0.0
C173 C 0.55342 0.11893 0.45897 0.0
O174 O 0.56094 0.14721 0.47234 0.0
N175 N 0.52151 0.14356 0.38702 0.0
C176 C 0.50446 0.16517 0.37024 0.0
C177 C 0.47064 0.15558 0.3694 0.0
C178 C 0.49788 0.12089 0.39581 0.0
N179 N 0.46644 0.12795 0.38579 0.0
C180 C 0.56501 0.22127 0.41502 0.0
C181 C 0.50215 0.22045 0.44083 0.0
C182 C 0.51636 0.25191 0.43298 0.0
C183 C 0.54886 0.252 0.42103 0.0
C184 C 0.51968 0.19008 0.43498 0.0
N185 N 0.55036 0.19064 0.42137 0.0
H186 H 0.58762 0.22254 0.40261 0.0
H187 H 0.50712 0.16614 0.43933 0.0
H188 H 0.51532 0.18771 0.36075 0.0
H189 H 0.50288 0.10123 0.41096 0.0
O190 O 0.57966 0.17258 0.3672 0.0
O191 O 0.58467 0.11713 0.37569 0.0
O192 O 0.55612 0.11745 0.43258 0.0
C193 C 0.58782 0.14233 0.35826 0.0
H194 H 0.67921 0.14642 0.45705 0.0
H195 H 0.45052 0.16892 0.3585 0.0
H196 H 0.47698 0.2192 0.45005 0.0
H197 H 0.56047 0.2755 0.41385 0.0
Co198 Co 0.37618 0.56977 0.40178 0.0
C199 C 0.346 0.63945 0.4083 0.0
C200 C 0.38501 0.63065 0.43855 0.0
C201 C 0.37091 0.66232 0.44333 0.0
N202 N 0.36858 0.61555 0.41714 0.0
N203 N 0.34621 0.66772 0.42438 0.0
H204 H 0.32926 0.63623 0.39065 0.0
H205 H 0.40619 0.62008 0.44993 0.0
C206 C 0.4079 0.55448 0.45882 0.0
O207 O 0.37953 0.5609 0.47236 0.0
N208 N 0.38387 0.52461 0.38623 0.0
C209 C 0.3625 0.50766 0.36912 0.0
C210 C 0.3724 0.47395 0.36785 0.0
C211 C 0.40676 0.50104 0.39476 0.0
N212 N 0.40002 0.46974 0.38429 0.0
C213 C 0.30547 0.56584 0.4149 0.0
C214 C 0.30709 0.50219 0.43939 0.0
C215 C 0.27546 0.51609 0.43168 0.0
C216 C 0.27497 0.54897 0.4204 0.0
C217 C 0.33723 0.52039 0.434 0.0
N218 N 0.33628 0.55149 0.42104 0.0
H219 H 0.30394 0.58888 0.40303 0.0
H220 H 0.36132 0.50809 0.43819 0.0
H221 H 0.33983 0.51841 0.35978 0.0
H222 H 0.42626 0.50591 0.41009 0.0
O223 O 0.35392 0.58292 0.36763 0.0
O224 O 0.40927 0.58869 0.37638 0.0
O225 O 0.40931 0.55823 0.43253 0.0
C226 C 0.38401 0.59211 0.35901 0.0
H227 H 0.37845 0.68009 0.45944 0.0
H228 H 0.35924 0.45389 0.35669 0.0
H229 H 0.30868 0.47678 0.44815 0.0
H230 H 0.25136 0.56044 0.41334 0.0
Co231 Co 0.95662 0.37693 0.39917 0.0
C232 C 0.88692 0.34645 0.40613 0.0
C233 C 0.89543 0.38697 0.43512 0.0
C234 C 0.86381 0.37293 0.44022 0.0
N235 N 0.91071 0.36958 0.41436 0.0
N236 N 0.85857 0.34726 0.42209 0.0
H237 H 0.89019 0.32898 0.38897 0.0
H238 H 0.90588 0.40878 0.44583 0.0
C239 C 0.97138 0.40953 0.456 0.0
O240 O 0.96458 0.38129 0.46963 0.0
N241 N 1.00188 0.38446 0.38384 0.0
C242 C 0.01922 0.36268 0.36741 0.0
C243 C 0.05288 0.37285 0.36632 0.0
C244 C 0.02515 0.40785 0.39211 0.0
N245 N 0.05666 0.40105 0.38218 0.0
C246 C 0.96058 0.30645 0.41321 0.0
C247 C 0.02405 0.3088 0.43804 0.0
C248 C 1.01028 0.27696 0.43061 0.0
C249 C 0.97748 0.27613 0.41915 0.0
C250 C 1.00581 0.33876 0.43221 0.0
N251 N 0.97479 0.33745 0.4191 0.0
H252 H 0.93768 0.30459 0.40117 0.0
H253 H 0.01805 0.36299 0.43617 0.0
H254 H 1.00874 0.3396 0.35846 0.0
H255 H 0.01989 0.42783 0.40692 0.0
O256 O 0.94376 0.35387 0.36527 0.0
O257 O 0.93789 0.40938 0.37305 0.0
O258 O 0.96797 0.4107 0.42965 0.0
C259 C 0.93471 0.38371 0.35603 0.0
H260 H 0.84594 0.38118 0.45598 0.0
H261 H 0.0732 0.35949 0.35572 0.0
H262 H 0.04941 0.31066 0.4469 0.0
H263 H 0.96611 0.25234 0.41228 0.0
Co264 Co 0.37682 0.95907 0.90539 0.0
C265 C 0.3515 0.88734 0.90839 0.0
C266 C 0.37264 0.90364 0.94722 0.0
C267 C 0.35843 0.87175 0.95074 0.0
N268 N 0.36871 0.91345 0.92053 0.0
N269 N 0.34482 0.86177 0.92639 0.0
H270 H 0.34205 0.88772 0.88729 0.0
H271 H 0.38278 0.91936 0.96371 0.0
C272 C 0.43461 0.95868 0.94383 0.0
O273 O 0.44427 0.93175 0.92962 0.0
N274 N 0.38395 1.00445 0.89055 0.0
C275 C 0.36204 0.02177 0.87424 0.0
C276 C 0.37218 0.05543 0.87319 0.0
C277 C 0.40738 0.02762 0.89877 0.0
N278 N 0.4005 0.05915 0.88892 0.0
C279 C 0.30539 0.95985 0.91427 0.0
C280 C 0.3032 0.02121 0.94258 0.0
C281 C 0.27267 1.0071 0.93235 0.0
C282 C 0.274 0.97527 0.91914 0.0
C283 C 0.33425 1.00447 0.93772 0.0
N284 N 0.33506 0.97494 0.92262 0.0
H285 H 0.30589 0.9371 0.90167 0.0
H286 H 0.35776 0.01668 0.94405 0.0
H287 H 0.33901 1.01118 0.86529 0.0
H288 H 0.42774 0.02208 0.91314 0.0
O289 O 0.358 0.94512 0.86994 0.0
O290 O 0.41269 0.94217 0.88136 0.0
O291 O 0.40552 0.97214 0.93876 0.0
C292 C 0.38905 0.93768 0.86272 0.0
H293 H 0.35587 0.85816 0.97019 0.0
H294 H 0.35881 0.07576 0.8626 0.0
H295 H 0.30327 0.04571 0.95303 0.0
H296 H 0.25126 0.96362 0.91048 0.0
Co297 Co 0.57057 0.37774 0.9029 0.0
C298 C 0.64084 0.34907 0.90862 0.0
C299 C 0.63287 0.38974 0.93753 0.0
C300 C 0.66476 0.37601 0.94216 0.0
N301 N 0.61713 0.37199 0.91715 0.0
N302 N 0.66962 0.35028 0.92404 0.0
H303 H 0.63727 0.3315 0.89158 0.0
H304 H 0.62247 0.41149 0.94832 0.0
C305 C 0.55749 0.40851 0.96061 0.0
O306 O 0.56706 0.38072 0.97374 0.0
N307 N 0.5246 0.38344 0.88849 0.0
C308 C 0.50773 0.36117 0.87211 0.0
C309 C 0.47369 0.37002 0.87152 0.0
C310 C 0.50067 0.40576 0.89729 0.0
N311 N 0.46922 0.39788 0.88764 0.0
C312 C 0.56882 0.30651 0.9151 0.0
C313 C 0.50761 0.30694 0.94342 0.0
C314 C 0.52131 0.27561 0.9348 0.0
C315 C 0.55301 0.27569 0.92149 0.0
C316 C 0.52473 0.33738 0.93706 0.0
N317 N 0.55466 0.33703 0.9224 0.0
H318 H 0.59059 0.30546 0.90172 0.0
H319 H 0.51226 0.36121 0.94185 0.0
H320 H 0.51891 0.3387 0.86278 0.0
H321 H 0.50556 0.42582 0.91214 0.0
O322 O 0.58398 0.35651 0.8683 0.0
O323 O 0.58664 0.41202 0.87734 0.0
O324 O 0.55866 0.40998 0.93416 0.0
C325 C 0.5911 0.3872 0.85975 0.0
H326 H 0.68301 0.38443 0.95762 0.0
H327 H 0.45367 0.35608 0.86095 0.0
H328 H 0.48299 0.30806 0.9536 0.0
H329 H 0.5641 0.25228 0.91363 0.0
Co330 Co 0.15198 0.56803 0.89868 0.0
C331 C 0.18493 0.63631 0.90616 0.0
C332 C 0.13864 0.63259 0.92946 0.0
C333 C 0.15237 0.66473 0.93345 0.0
N334 N 0.15959 0.61426 0.91291 0.0
N335 N 0.18166 0.66676 0.91897 0.0
H336 H 0.20448 0.63141 0.89097 0.0
H337 H 0.11455 0.62376 0.93765 0.0
C338 C 0.11962 0.5584 0.9562 0.0
O339 O 0.14716 0.56857 0.96945 0.0
N340 N 0.14422 0.52237 0.8843 0.0
C341 C 0.1655 0.50482 0.8676 0.0
C342 C 0.15536 0.47114 0.86699 0.0
C343 C 0.12125 0.49917 0.89335 0.0
N344 N 0.12772 0.46755 0.88345 0.0
C345 C 0.22296 0.56217 0.91038 0.0
C346 C 0.21955 0.50288 0.94113 0.0
C347 C 0.25155 0.51494 0.93243 0.0
C348 C 0.25294 0.54559 0.91771 0.0
C349 C 0.1899 0.5211 0.93407 0.0
N350 N 0.19177 0.55024 0.91842 0.0
H351 H 0.22516 0.58249 0.8957 0.0
H352 H 0.16544 0.51012 0.93925 0.0
H353 H 0.18817 0.51524 0.858 0.0
H354 H 0.10174 0.50461 0.90852 0.0
O355 O 0.17411 0.58018 0.8642 0.0
O356 O 0.11885 0.58612 0.87285 0.0
O357 O 0.11896 0.55774 0.92973 0.0
C358 C 0.14404 0.58916 0.85542 0.0
H359 H 0.14176 0.68493 0.94613 0.0
H360 H 0.16828 0.4507 0.85616 0.0
H361 H 0.21733 0.47888 0.95213 0.0
H362 H 0.27689 0.55513 0.90954 0.0
Co363 Co 0.95582 0.14953 0.90211 0.0
C364 C 0.88598 0.17893 0.90904 0.0
C365 C 0.89506 0.13927 0.93863 0.0
C366 C 0.8635 0.15339 0.94386 0.0
N367 N 0.90991 0.15612 0.91738 0.0
N368 N 0.85794 0.17851 0.92534 0.0
H369 H 0.88896 0.19596 0.89159 0.0
H370 H 0.90584 0.11793 0.94967 0.0
C371 C 0.97149 0.11883 0.95959 0.0
O372 O 0.96376 0.14689 0.97316 0.0
N373 N 1.0011 0.14289 0.88671 0.0
C374 C 0.01815 0.16501 0.87037 0.0
C375 C 0.05183 0.15501 0.86892 0.0
C376 C 0.02448 0.1195 0.89454 0.0
N377 N 0.05583 0.12656 0.88439 0.0
C378 C 0.95866 0.22083 0.91399 0.0
C379 C 0.02129 0.22024 0.94028 0.0
C380 C 1.00737 0.25161 0.93198 0.0
C381 C 0.975 0.25161 0.9197 0.0
C382 C 1.00365 0.18985 0.93462 0.0
N383 N 0.97299 0.19028 0.92095 0.0
H384 H 0.93618 0.22191 0.90136 0.0
H385 H 0.01618 0.16596 0.93911 0.0
H386 H 1.00741 0.18808 0.8617 0.0
H387 H 0.01939 0.09918 0.90908 0.0
O388 O 0.94156 0.17051 0.86761 0.0
O389 O 0.93839 0.11517 0.87718 0.0
O390 O 0.96844 0.11741 0.93324 0.0
C391 C 0.93388 0.13978 0.85942 0.0
H392 H 0.84597 0.14568 0.96005 0.0
H393 H 0.07201 0.16856 0.85826 0.0
H394 H 0.04639 0.21904 0.94968 0.0
H395 H 0.96365 0.27502 0.91211 0.0
Co396 Co 0.87678 0.07143 0.61645 0.0
C397 C 0.84742 0.14146 0.61034 0.0
C398 C 0.88636 0.13257 0.58011 0.0
C399 C 0.87228 0.16426 0.57534 0.0
N400 N 0.86995 0.11752 0.6015 0.0
N401 N 0.8476 0.16971 0.59427 0.0
H402 H 0.83068 0.13828 0.62796 0.0
H403 H 0.9074 0.12186 0.56867 0.0
C404 C 0.9075 0.05624 0.55897 0.0
O405 O 0.87926 0.0637 0.54555 0.0
N406 N 0.88365 0.02597 0.63156 0.0
C407 C 0.86185 1.00882 0.6481 0.0
C408 C 0.87181 0.97511 0.64928 0.0
C409 C 0.90684 1.00258 0.62332 0.0
N410 N 0.89993 0.97114 0.63341 0.0
C411 C 0.80565 0.06867 0.60407 0.0
C412 C 0.80635 1.00558 0.5785 0.0
C413 C 0.77499 0.01956 0.58672 0.0
C414 C 0.77492 0.05217 0.59857 0.0
C415 C 0.8367 0.02341 0.58391 0.0
N416 N 0.83623 0.05422 0.59736 0.0
H417 H 0.80452 0.0914 0.6164 0.0
H418 H 0.86061 1.01091 0.57945 0.0
H419 H 0.83896 0.01951 0.65713 0.0
H420 H 0.92686 1.00776 0.60855 0.0
O421 O 0.85544 0.08516 0.6509 0.0
O422 O 0.91084 0.08885 0.64169 0.0
O423 O 0.90911 0.05936 0.58531 0.0
C424 C 0.88602 0.09308 0.6593 0.0
H425 H 0.87971 0.18196 0.55918 0.0
H426 H 0.85845 0.95491 0.66007 0.0
H427 H 0.80759 0.98034 0.56937 0.0
H428 H 0.7515 0.06362 0.60602 0.0
Co429 Co 0.45818 0.8787 0.61991 0.0
C430 C 0.38774 0.85014 0.6132 0.0
C431 C 0.3966 0.8911 0.58476 0.0
C432 C 0.36466 0.8777 0.57966 0.0
N433 N 0.41182 0.873 0.60514 0.0
N434 N 0.35921 0.85175 0.59745 0.0
H435 H 0.39082 0.83241 0.63015 0.0
H436 H 0.40738 0.91291 0.5743 0.0
C437 C 0.47254 0.90961 0.56233 0.0
O438 O 0.46349 0.88177 0.54898 0.0
N439 N 0.50386 0.88453 0.63479 0.0
C440 C 0.52092 0.86207 0.65079 0.0
C441 C 0.55479 0.87159 0.65184 0.0
C442 C 0.52744 0.90764 0.62675 0.0
N443 N 0.5589 0.90009 0.63643 0.0
C444 C 0.45987 0.80743 0.60776 0.0
C445 C 0.52201 0.80754 0.58082 0.0
C446 C 0.50798 0.77628 0.58935 0.0
C447 C 0.47583 0.77654 0.60193 0.0
C448 C 0.5047 0.83807 0.58654 0.0
N449 N 0.47432 0.8379 0.60059 0.0
H450 H 0.43768 0.80651 0.62067 0.0
H451 H 0.51735 0.86188 0.58186 0.0
H452 H 0.51001 0.83907 0.65951 0.0
H453 H 0.52232 0.92812 0.61238 0.0
O454 O 0.44425 0.85748 0.65438 0.0
O455 O 0.44184 0.91299 0.64541 0.0
O456 O 0.47068 0.911 0.58876 0.0
C457 C 0.43725 0.88818 0.66297 0.0
H458 H 0.34677 0.88651 0.56411 0.0
H459 H 0.57498 0.85769 0.66217 0.0
H460 H 0.54695 0.80855 0.57116 0.0
H461 H 0.46441 0.75322 0.60969 0.0
Co462 Co 0.64904 0.4579 0.61737 0.0
C463 C 0.6783 0.3879 0.61043 0.0
C464 C 0.63784 0.39669 0.58147 0.0
C465 C 0.65169 0.36501 0.57624 0.0
N466 N 0.65534 0.41181 0.60229 0.0
N467 N 0.67732 0.35961 0.59437 0.0
H468 H 0.69567 0.39096 0.62766 0.0
H469 H 0.61617 0.40738 0.57077 0.0
C470 C 0.6185 0.47283 0.55965 0.0
O471 O 0.64637 0.46435 0.54617 0.0
N472 N 0.6427 0.5034 0.63255 0.0
C473 C 0.66471 0.52026 0.64915 0.0
C474 C 0.65508 0.55407 0.65047 0.0
C475 C 0.61976 0.52707 0.62435 0.0
N476 N 0.62698 0.55838 0.6346 0.0
C477 C 0.72045 0.46045 0.60627 0.0
C478 C 0.72035 0.52233 0.57891 0.0
C479 C 0.75159 0.50854 0.58773 0.0
C480 C 0.75133 0.47655 0.60059 0.0
C481 C 0.68984 0.50492 0.58457 0.0
N482 N 0.69002 0.47461 0.59871 0.0
H483 H 0.72131 0.43837 0.61933 0.0
H484 H 0.66604 0.51739 0.57968 0.0
H485 H 0.68747 0.50928 0.65819 0.0
H486 H 0.59963 0.52216 0.60956 0.0
O487 O 0.66966 0.44367 0.65203 0.0
O488 O 0.61437 0.44093 0.64215 0.0
O489 O 0.61718 0.47051 0.58605 0.0
C490 C 0.63882 0.43626 0.66005 0.0
H491 H 0.6434 0.34725 0.56037 0.0
H492 H 0.66863 0.57409 0.66139 0.0
H493 H 0.71934 0.54715 0.56906 0.0
H494 H 0.77459 0.46535 0.60862 0.0
Co495 Co 0.07031 0.65127 0.61431 0.0
C496 C 0.13964 0.68242 0.60765 0.0
C497 C 0.13047 0.64437 0.57663 0.0
C498 C 0.16189 0.659 0.57174 0.0
N499 N 0.11576 0.65982 0.59864 0.0
N500 N 0.16753 0.68313 0.59116 0.0
H501 H 0.13663 0.69859 0.62566 0.0
H502 H 0.11978 0.62353 0.56487 0.0
C503 C 0.05395 0.6202 0.55706 0.0
O504 O 0.05941 0.64893 0.54372 0.0
N505 N 0.02553 0.64264 0.63017 0.0
C506 C 1.00836 0.66364 0.64737 0.0
C507 C 0.97494 0.65284 0.64899 0.0
C508 C 1.00242 0.61906 0.62196 0.0
N509 N 0.97115 0.625 0.63273 0.0
C510 C 0.06559 0.72214 0.60187 0.0
C511 C 1.00147 0.7203 0.57813 0.0
C512 C 0.01541 0.75199 0.5858 0.0
C513 C 0.04848 0.75258 0.59675 0.0
C514 C 0.0199 0.69023 0.58314 0.0
N515 N 0.05128 0.69128 0.59568 0.0
H516 H 0.08887 0.72372 0.61347 0.0
H517 H 1.00763 0.66607 0.57898 0.0
H518 H 0.01875 0.68663 0.65655 0.0
H519 H 1.00753 0.59954 0.60671 0.0
O520 O 0.08368 0.67312 0.64861 0.0
O521 O 0.08998 0.61802 0.63923 0.0
O522 O 0.05861 0.61844 0.58326 0.0
C523 C 0.09326 0.64302 0.65688 0.0
H524 H 0.17932 0.65224 0.55521 0.0
H525 H 0.95474 0.66549 0.6603 0.0
H526 H 0.97591 0.71862 0.56964 0.0
H527 H 0.06001 0.77622 0.60378 0.0
H528 H 0.56721 0.96013 0.11136 0.0
H529 H 0.58002 0.75726 0.09966 0.0
H530 H 0.65888 0.9035 0.13027 0.0
H531 H 0.49281 0.81539 0.07218 0.0
H532 H 0.61083 0.81057 0.10801 0.0
H533 H 0.54051 0.90756 0.09529 0.0
C534 C 0.58187 0.93678 0.1121 0.0
C535 C 0.61549 0.93654 0.12234 0.0
C536 C 0.5851 0.81167 0.09981 0.0
C537 C 0.5847 0.87581 0.10403 0.0
C538 C 0.56761 0.78119 0.09471 0.0
C539 C 0.53364 0.7818 0.08537 0.0
C540 C 0.56847 0.84304 0.09569 0.0
C541 C 0.51876 0.81369 0.07979 0.0
C542 C 0.56651 0.90665 0.1029 0.0
C543 C 0.63282 0.90511 0.12303 0.0
N544 N 0.53611 0.84299 0.08532 0.0
N545 N 0.61721 0.87607 0.11409 0.0
H546 H 0.71425 0.49745 0.0638 0.0
H547 H 0.62233 0.63645 0.15799 0.0
H548 H 0.76919 0.5745 0.10973 0.0
H549 H 0.56983 0.58198 0.0925 0.0
H550 H 0.67598 0.61188 0.14215 0.0
H551 H 0.66063 0.5267 0.07474 0.0
C552 C 0.71502 0.52089 0.07574 0.0
C553 C 0.74617 0.53367 0.08578 0.0
C554 C 0.65266 0.60544 0.13123 0.0
C555 C 0.68501 0.56671 0.099 0.0
C556 C 0.62187 0.61948 0.14028 0.0
C557 C 0.59109 0.61155 0.12667 0.0
C558 C 0.65285 0.58289 0.10857 0.0
C559 C 0.59249 0.58875 0.10406 0.0
C560 C 0.68446 0.53749 0.08206 0.0
C561 C 0.74578 0.56403 0.10128 0.0
N562 N 0.62277 0.57519 0.09582 0.0
N563 N 0.71565 0.57926 0.10774 0.0
H564 H 0.03355 0.71315 0.06368 0.0
H565 H 0.8938 0.62044 0.1563 0.0
H566 H 0.95516 0.76764 0.10813 0.0
H567 H 0.94843 0.56825 0.09088 0.0
H568 H 0.91837 0.67417 0.14062 0.0
H569 H 1.00421 0.65933 0.07409 0.0
C570 C 1.00978 0.71378 0.07514 0.0
C571 C 0.99666 0.74485 0.08496 0.0
C572 C 0.92483 0.6509 0.12967 0.0
C573 C 0.96355 0.68348 0.09763 0.0
C574 C 0.91079 0.62004 0.13863 0.0
C575 C 0.9187 0.5893 0.12497 0.0
C576 C 0.9474 0.65122 0.10707 0.0
C577 C 0.9416 0.59084 0.10245 0.0
C578 C 0.99314 0.68311 0.08117 0.0
C579 C 0.96591 0.74429 0.09988 0.0
N580 N 0.95517 0.6212 0.09432 0.0
N581 N 0.95065 0.71405 0.1061 0.0
H582 H 0.96481 0.96711 0.11445 0.0
H583 H 0.76322 0.95217 0.09082 0.0
H584 H 0.90754 0.87444 0.12833 0.0
H585 H 0.82144 0.04394 0.07626 0.0
H586 H 0.81651 0.92125 0.09936 0.0
H587 H 0.91319 0.99416 0.09674 0.0
C588 C 0.94143 0.95238 0.11376 0.0
C589 C 0.94066 0.91841 0.12307 0.0
C590 C 0.81768 0.94802 0.09385 0.0
C591 C 0.88114 0.9494 0.10279 0.0
C592 C 0.78728 0.96556 0.0886 0.0
C593 C 0.78794 1.0007 0.08297 0.0
C594 C 0.84889 0.96581 0.09353 0.0
C595 C 0.81981 0.01691 0.0808 0.0
C596 C 0.91189 0.96788 0.10362 0.0
C597 C 0.90938 0.90081 0.12189 0.0
N598 N 0.84895 0.99945 0.08641 0.0
N599 N 0.88091 0.91651 0.11199 0.0
H600 H 0.07709 0.26928 0.41489 0.0
H601 H 0.06155 0.06626 0.40457 0.0
H602 H 0.99056 0.21205 0.44506 0.0
H603 H 0.15296 0.12189 0.38288 0.0
H604 H 0.036 0.11932 0.42081 0.0
H605 H 0.10685 0.21562 0.40575 0.0
C606 C 0.06465 0.24548 0.42025 0.0
C607 C 0.03114 0.24522 0.43059 0.0
C608 C 0.06169 0.11992 0.41255 0.0
C609 C 0.06472 0.18359 0.41939 0.0
C610 C 0.07637 0.08952 0.40325 0.0
C611 C 0.10957 0.08935 0.39222 0.0
C612 C 0.08018 0.15059 0.41073 0.0
C613 C 0.12717 0.12063 0.39076 0.0
C614 C 0.08152 0.21479 0.41471 0.0
C615 C 0.01616 0.21348 0.43669 0.0
N616 N 0.11225 0.14992 0.39985 0.0
N617 N 0.03288 0.184 0.43071 0.0
H618 H 0.31327 0.99103 0.44984 0.0
H619 H 0.40286 0.15624 0.3846 0.0
H620 H 0.25745 0.07714 0.41741 0.0
H621 H 0.45698 0.06448 0.4075 0.0
H622 H 0.34992 0.13034 0.40086 0.0
H623 H 0.36672 0.02111 0.44041 0.0
C624 C 0.31226 0.01652 0.44116 0.0
C625 C 0.28082 0.03146 0.43421 0.0
C626 C 0.37341 0.11591 0.40237 0.0
C627 C 0.34196 0.06591 0.42303 0.0
C628 C 0.40371 0.13057 0.3928 0.0
C629 C 0.43465 0.11253 0.39446 0.0
C630 C 0.3739 0.08293 0.41377 0.0
C631 C 0.43396 0.07956 0.40596 0.0
C632 C 0.34278 0.03362 0.43567 0.0
C633 C 0.28104 0.0647 0.42328 0.0
N634 N 0.40413 0.06585 0.41511 0.0
N635 N 0.31114 0.08064 0.41773 0.0
H636 H 0.53724 0.31639 0.44757 0.0
H637 H 0.37181 0.40605 0.3828 0.0
H638 H 0.44979 0.2607 0.41709 0.0
H639 H 0.46356 0.46036 0.40589 0.0
H640 H 0.39775 0.35311 0.39897 0.0
H641 H 0.50762 0.36992 0.43772 0.0
C642 C 0.51157 0.31543 0.43922 0.0
C643 C 0.49608 0.28398 0.43297 0.0
C644 C 0.41218 0.37663 0.40053 0.0
C645 C 0.46213 0.34523 0.4213 0.0
C646 C 0.3975 0.40693 0.39101 0.0
C647 C 0.41552 0.43793 0.39277 0.0
C648 C 0.44517 0.37716 0.41196 0.0
C649 C 0.44851 0.43728 0.40427 0.0
C650 C 0.49472 0.34601 0.43348 0.0
C651 C 0.46264 0.28429 0.42243 0.0
N652 N 0.46224 0.40745 0.41336 0.0
N653 N 0.44694 0.31442 0.41664 0.0
H654 H 0.06508 0.46515 0.40301 0.0
H655 H 0.26781 0.44937 0.41552 0.0
H656 H 0.12073 0.37375 0.38161 0.0
H657 H 0.2104 0.53583 0.44547 0.0
H658 H 0.21422 0.41972 0.40562 0.0
H659 H 0.11796 0.49063 0.41988 0.0
C660 C 0.08832 0.45033 0.40187 0.0
C661 C 0.08821 0.41715 0.39076 0.0
C662 C 0.21333 0.44501 0.41469 0.0
C663 C 0.14923 0.44645 0.41 0.0
C664 C 0.24396 0.46182 0.42067 0.0
C665 C 0.24365 0.49528 0.43118 0.0
C666 C 0.18212 0.46182 0.41909 0.0
C667 C 0.21187 0.51027 0.43698 0.0
C668 C 0.1186 0.46496 0.41153 0.0
C669 C 0.11944 0.39953 0.38955 0.0
N670 N 0.18244 0.49361 0.43058 0.0
N671 N 0.14863 0.4144 0.399 0.0
H672 H 0.37311 0.12309 0.88869 0.0
H673 H 0.54281 0.21091 0.94786 0.0
H674 H 0.46499 0.06758 0.90896 0.0
H675 H 0.45382 0.26721 0.92171 0.0
H676 H 0.51218 0.15757 0.93897 0.0
H677 H 0.40042 0.17558 0.90441 0.0
C678 C 0.39911 0.12186 0.89619 0.0
C679 C 0.41678 0.09067 0.89725 0.0
C680 C 0.49919 0.18158 0.93549 0.0
C681 C 0.44805 0.15092 0.91592 0.0
C682 C 0.51663 0.21204 0.94067 0.0
C683 C 0.50095 0.24359 0.93536 0.0
C684 C 0.46585 0.18263 0.92479 0.0
C685 C 0.46685 0.24352 0.92631 0.0
C686 C 0.4146 0.1519 0.90546 0.0
C687 C 0.45022 0.09083 0.90787 0.0
N688 N 0.45059 0.21353 0.92101 0.0
N689 N 0.46475 0.12045 0.91671 0.0
H690 H 0.4059 0.36868 0.88716 0.0
H691 H 0.3153 0.53544 0.94857 0.0
H692 H 0.45917 0.46166 0.90857 0.0
H693 H 0.2597 0.44744 0.91918 0.0
H694 H 0.36884 0.50511 0.94041 0.0
H695 H 0.35273 0.39433 0.90327 0.0
C696 C 0.40652 0.39454 0.89503 0.0
C697 C 0.43729 0.41301 0.8963 0.0
C698 C 0.34496 0.49219 0.9361 0.0
C699 C 0.37631 0.44231 0.91542 0.0
C700 C 0.31439 0.50941 0.94095 0.0
C701 C 0.28303 0.494 0.93439 0.0
C702 C 0.34426 0.45932 0.92443 0.0
C703 C 0.2833 0.46019 0.92468 0.0
C704 C 0.3761 0.40905 0.90451 0.0
C705 C 0.43632 0.44622 0.90735 0.0
N706 N 0.31346 0.44413 0.91963 0.0
N707 N 0.4064 0.45976 0.9164 0.0
H708 H 0.98669 0.31653 0.94531 0.0
H709 H 0.15503 0.40357 0.88307 0.0
H710 H 0.07439 0.25968 0.91718 0.0
H711 H 0.06375 0.45936 0.90446 0.0
H712 H 0.12794 0.35117 0.89923 0.0
H713 H 0.01726 0.36967 0.93567 0.0
C714 C 1.01259 0.31524 0.9375 0.0
C715 C 0.02789 0.28357 0.93187 0.0
C716 C 0.11385 0.37489 0.90043 0.0
C717 C 0.06294 0.34435 0.92049 0.0
C718 C 0.12921 0.40488 0.89092 0.0
C719 C 0.11164 0.43611 0.89217 0.0
C720 C 0.08064 0.37598 0.91132 0.0
C721 C 0.07845 0.43606 0.90324 0.0
C722 C 0.02998 0.34559 0.93191 0.0
C723 C 0.06164 0.28345 0.92205 0.0
N724 N 0.06404 0.4065 0.9123 0.0
N725 N 0.07788 0.31335 0.91639 0.0
H726 H 0.20761 0.9843 0.94266 0.0
H727 H 0.11965 0.1544 0.88467 0.0
H728 H 0.26391 0.07461 0.91944 0.0
H729 H 0.06455 0.06156 0.90293 0.0
H730 H 0.17224 0.12708 0.90019 0.0
H731 H 0.15435 0.01429 0.93259 0.0
C732 C 0.20874 1.01062 0.93581 0.0
C733 C 0.24031 0.02688 0.93174 0.0
C734 C 0.14863 0.1127 0.90083 0.0
C735 C 0.17938 0.06132 0.91986 0.0
C736 C 0.11855 0.12819 0.89167 0.0
C737 C 0.08745 0.11028 0.89232 0.0
C738 C 0.14774 0.079 0.91074 0.0
C739 C 0.08774 0.07654 0.90225 0.0
C740 C 0.17832 0.0277 0.92997 0.0
C741 C 0.2402 0.06113 0.9231 0.0
N742 N 0.11736 0.06203 0.91101 0.0
N743 N 0.21024 0.07708 0.91717 0.0
H744 H 0.94886 0.75955 0.60236 0.0
H745 H 0.964 0.96267 0.61264 0.0
H746 H 0.035 0.81707 0.5718 0.0
H747 H 0.87287 0.90689 0.63484 0.0
H748 H 0.98963 0.90962 0.59652 0.0
H749 H 0.91916 0.81314 0.61196 0.0
C750 C 0.96124 0.78341 0.59703 0.0
C751 C 0.99461 0.78376 0.5864 0.0
C752 C 0.96399 0.90898 0.60487 0.0
C753 C 0.96108 0.84529 0.59812 0.0
C754 C 0.94926 0.93937 0.6141 0.0
C755 C 0.91609 0.93951 0.62521 0.0
C756 C 0.9456 0.87826 0.60684 0.0
C757 C 0.89861 0.90818 0.62686 0.0
C758 C 0.94439 0.81404 0.60284 0.0
C759 C 1.00951 0.81556 0.58038 0.0
N760 N 0.91358 0.87889 0.61783 0.0
N761 N 0.99281 0.84498 0.58658 0.0
H762 H 0.71003 0.03978 0.5732 0.0
H763 H 0.62261 0.87198 0.63618 0.0
H764 H 0.76713 0.95283 0.60254 0.0
H765 H 0.56795 0.96473 0.61706 0.0
H766 H 0.67519 0.89878 0.61996 0.0
H767 H 0.65701 1.00942 0.58353 0.0
C768 C 0.7114 0.01408 0.58143 0.0
C769 C 0.7431 0.99894 0.5872 0.0
C770 C 0.65165 0.91322 0.61929 0.0
C771 C 0.68244 0.96413 0.59937 0.0
C772 C 0.62158 0.89804 0.62883 0.0
C773 C 0.59058 0.91607 0.62814 0.0
C774 C 0.65085 0.94669 0.60889 0.0
C775 C 0.591 0.94961 0.61777 0.0
C776 C 0.68112 0.99681 0.58743 0.0
C777 C 0.74332 0.96542 0.59756 0.0
N778 N 0.62059 0.96378 0.60859 0.0
N779 N 0.71346 0.94929 0.6036 0.0
H780 H 0.6549 0.62221 0.63577 0.0
H781 H 0.48639 0.7116 0.57604 0.0
H782 H 0.56257 0.56764 0.61472 0.0
H783 H 0.57513 0.76751 0.60366 0.0
H784 H 0.51648 0.65814 0.58517 0.0
H785 H 0.62801 0.6752 0.62069 0.0
C786 C 0.6289 0.62128 0.62822 0.0
C787 C 0.61101 0.5902 0.6267 0.0
C788 C 0.52954 0.68208 0.58896 0.0
C789 C 0.58022 0.65101 0.60879 0.0
C790 C 0.51241 0.71263 0.58365 0.0
C791 C 0.52816 0.74412 0.58925 0.0
C792 C 0.5627 0.68293 0.60008 0.0
C793 C 0.56205 0.74388 0.59882 0.0
C794 C 0.61366 0.65161 0.61933 0.0
C795 C 0.57756 0.59078 0.61609 0.0
N796 N 0.57804 0.71378 0.60421 0.0
N797 N 0.56329 0.62064 0.60761 0.0
H798 H 0.96309 0.56079 0.61212 0.0
H799 H 0.75992 0.57611 0.60094 0.0
H800 H 0.90689 0.65157 0.63423 0.0
H801 H 0.81657 0.48698 0.57559 0.0
H802 H 0.81373 0.60587 0.60963 0.0
H803 H 0.90999 0.53448 0.59638 0.0
C804 C 0.93966 0.57527 0.61365 0.0
C805 C 0.93964 0.6085 0.62467 0.0
C806 C 0.81443 0.57994 0.60185 0.0
C807 C 0.87848 0.57834 0.6067 0.0
C808 C 0.78366 0.56305 0.59654 0.0
C809 C 0.78368 0.52889 0.58765 0.0
C810 C 0.84549 0.56255 0.59834 0.0
C811 C 0.81533 0.51314 0.5828 0.0
C812 C 0.90928 0.56018 0.60466 0.0
C813 C 0.90826 0.62576 0.62637 0.0
N814 N 0.8449 0.52995 0.58846 0.0
N815 N 0.87901 0.61048 0.61752 0.0
H816 H 0.68505 0.21616 0.0553 0.0
H817 H 0.82266 0.3291 0.13667 0.0
H818 H 0.72465 0.18696 0.13532 0.0
H819 H 0.81409 0.32946 0.04746 0.0
H820 H 0.7809 0.28224 0.13855 0.0
H821 H 0.72609 0.26363 0.05401 0.0
C822 C 0.7022 0.21994 0.07267 0.0
C823 C 0.70155 0.19755 0.09539 0.0
C824 C 0.78827 0.29255 0.11857 0.0
C825 C 0.74838 0.25177 0.09417 0.0
C826 C 0.81196 0.31931 0.11751 0.0
C827 C 0.822 0.33302 0.09187 0.0
C828 C 0.77394 0.2799 0.09385 0.0
C829 C 0.80742 0.31932 0.06763 0.0
C830 C 0.72575 0.24682 0.07186 0.0
C831 C 0.72457 0.2034 0.11728 0.0
N832 N 0.78397 0.29372 0.06921 0.0
N833 N 0.74691 0.23003 0.11621 0.0
H834 H 0.32136 0.69678 0.05104 0.0
H835 H 0.19651 0.81583 0.13976 0.0
H836 H 0.3352 0.71305 0.13888 0.0
H837 H 0.20645 0.82212 0.05078 0.0
H838 H 0.24315 0.77394 0.14065 0.0
H839 H 0.2745 0.73791 0.05134 0.0
C840 C 0.31432 0.70875 0.07046 0.0
C841 C 0.33225 0.7014 0.09498 0.0
C842 C 0.23517 0.78464 0.12097 0.0
C843 C 0.27862 0.74882 0.09545 0.0
C844 C 0.2085 0.80842 0.12044 0.0
C845 C 0.19764 0.82263 0.09517 0.0
C846 C 0.25072 0.77457 0.09599 0.0
C847 C 0.21425 0.81224 0.07076 0.0
C848 C 0.28774 0.73248 0.07058 0.0
C849 C 0.32228 0.71817 0.11947 0.0
N850 N 0.23974 0.78875 0.07176 0.0
N851 N 0.29606 0.74099 0.11912 0.0
H852 H 0.31533 0.69464 0.3787 0.0
H853 H 0.19825 0.82098 0.46776 0.0
H854 H 0.32305 0.70555 0.46757 0.0
H855 H 0.2121 0.83301 0.37951 0.0
H856 H 0.23957 0.77434 0.46741 0.0
H857 H 0.27369 0.74147 0.37788 0.0
C858 C 0.30829 0.70687 0.39802 0.0
C859 C 0.32281 0.69619 0.42324 0.0
C860 C 0.23359 0.78713 0.44809 0.0
C861 C 0.27502 0.74956 0.42249 0.0
C862 C 0.20973 0.81359 0.44823 0.0
C863 C 0.20158 0.83094 0.42361 0.0
C864 C 0.24929 0.77751 0.42308 0.0
C865 C 0.2178 0.82054 0.39899 0.0
C866 C 0.28465 0.73367 0.39753 0.0
C867 C 0.31291 0.71317 0.44763 0.0
N868 N 0.24076 0.79442 0.39932 0.0
N869 N 0.28953 0.73878 0.44666 0.0
H870 H 0.8207 0.32637 0.46596 0.0
H871 H 0.69247 0.21084 0.37688 0.0
H872 H 0.83171 0.31371 0.37749 0.0
H873 H 0.70513 0.20153 0.46548 0.0
H874 H 0.73955 0.25238 0.376 0.0
H875 H 0.77398 0.28506 0.46554 0.0
C876 C 0.81308 0.31515 0.44637 0.0
C877 C 0.83016 0.32366 0.42171 0.0
C878 C 0.73208 0.24108 0.39559 0.0
C879 C 0.77659 0.27594 0.42108 0.0
C880 C 0.70514 0.21749 0.39612 0.0
C881 C 0.69488 0.20255 0.42128 0.0
C882 C 0.74851 0.25024 0.42047 0.0
C883 C 0.71241 0.21199 0.44557 0.0
C884 C 0.78656 0.29129 0.44618 0.0
C885 C 0.81945 0.30774 0.39701 0.0
N886 N 0.73812 0.23533 0.44458 0.0
N887 N 0.79325 0.28477 0.39729 0.0
H888 H 0.25048 0.66246 0.91817 0.0
H889 H 0.2838 0.86175 0.89989 0.0
H890 H 0.16762 0.73471 0.9183 0.0
H891 H 0.35372 0.79712 0.94453 0.0
H892 H 0.24333 0.81376 0.89678 0.0
H893 H 0.29128 0.71007 0.91829 0.0
C894 C 0.24092 0.68838 0.91797 0.0
C895 C 0.20566 0.69472 0.91824 0.0
C896 C 0.26764 0.81008 0.90708 0.0
C897 C 0.25211 0.74919 0.91808 0.0
C898 C 0.29079 0.83727 0.90862 0.0
C899 C 0.32213 0.83319 0.92236 0.0
C900 C 0.27626 0.77844 0.91882 0.0
C901 C 0.32979 0.80117 0.93379 0.0
C902 C 0.26416 0.71547 0.91821 0.0
C903 C 0.1946 0.7288 0.91828 0.0
N904 N 0.30712 0.77492 0.93161 0.0
N905 N 0.21775 0.75481 0.91799 0.0
H906 H 0.69507 0.31708 0.87895 0.0
H907 H 0.82114 0.20116 0.96928 0.0
H908 H 0.70841 0.32885 0.9673 0.0
H909 H 0.83072 0.21085 0.88046 0.0
H910 H 0.77546 0.24361 0.96862 0.0
H911 H 0.74095 0.27446 0.8787 0.0
C912 C 0.70767 0.31075 0.89827 0.0
C913 C 0.69791 0.32665 0.92318 0.0
C914 C 0.78751 0.23644 0.94925 0.0
C915 C 0.75021 0.27769 0.92309 0.0
C916 C 0.81339 0.21194 0.94958 0.0
C917 C 0.82979 0.20233 0.92488 0.0
C918 C 0.77752 0.25129 0.92398 0.0
C919 C 0.81899 0.21768 0.90001 0.0
C920 C 0.73393 0.28652 0.8981 0.0
C921 C 0.71534 0.31761 0.94758 0.0
N922 N 0.79346 0.24128 0.90017 0.0
N923 N 0.74041 0.2936 0.94696 0.0
H924 H 0.81632 0.19644 0.63983 0.0
H925 H 0.69817 0.32165 0.55045 0.0
H926 H 0.82426 0.20735 0.551 0.0
H927 H 0.71095 0.33298 0.63891 0.0
H928 H 0.74007 0.27549 0.55081 0.0
H929 H 0.77405 0.24268 0.64049 0.0
C930 C 0.80921 0.20856 0.62048 0.0
C931 C 0.82397 0.19802 0.59532 0.0
C932 C 0.73371 0.28802 0.57018 0.0
C933 C 0.77542 0.25075 0.59589 0.0
C934 C 0.70952 0.3142 0.57002 0.0
C935 C 0.70092 0.33124 0.5947 0.0
C936 C 0.74929 0.27837 0.59525 0.0
C937 C 0.71699 0.32077 0.61938 0.0
C938 C 0.78519 0.23503 0.62089 0.0
C939 C 0.81395 0.21487 0.5709 0.0
N940 N 0.74028 0.29494 0.61905 0.0
N941 N 0.79019 0.24016 0.57178 0.0
H942 H 0.33287 0.81741 0.64172 0.0
H943 H 0.20446 0.70767 0.54797 0.0
H944 H 0.32035 0.8322 0.55359 0.0
H945 H 0.19507 0.71329 0.63704 0.0
H946 H 0.25093 0.74923 0.54997 0.0
H947 H 0.28598 0.77574 0.64083 0.0
C948 C 0.32027 0.81193 0.62221 0.0
C949 C 0.33055 0.82844 0.5977 0.0
C950 C 0.23876 0.74139 0.56911 0.0
C951 C 0.27706 0.7806 0.59649 0.0
C952 C 0.21238 0.71739 0.568 0.0
C953 C 0.19583 0.70684 0.59238 0.0
C954 C 0.24909 0.75484 0.59483 0.0
C955 C 0.2069 0.72087 0.61772 0.0
C956 C 0.29342 0.78826 0.62173 0.0
C957 C 0.31306 0.8205 0.57304 0.0
N958 N 0.23293 0.74402 0.61831 0.0
N959 N 0.28742 0.79705 0.57304 0.0
H960 H 0.59975 0.9983 0.05957 0.0
H961 H 0.43721 0.02539 0.96246 0.0
H962 H 0.58189 0.09424 0.01832 0.0
H963 H 0.48846 0.92836 0.96984 0.0
H964 H 0.48313 0.0519 0.98994 0.0
H965 H 0.5524 0.973 0.03347 0.0
C966 C 0.58576 0.01407 0.04505 0.0
C967 C 0.59471 0.04843 0.04111 0.0
C968 C 0.48411 0.02479 0.9856 0.0
C969 C 0.54013 0.01972 0.0114 0.0
C970 C 0.45783 1.00957 0.97009 0.0
C971 C 0.45911 0.97459 0.9636 0.0
C972 C 0.51132 1.0047 0.99532 0.0
C973 C 0.48648 0.95542 0.97416 0.0
C974 C 0.55883 0.99958 0.03009 0.0
C975 C 0.57596 0.06758 0.02176 0.0
N976 N 0.51135 0.97065 0.98955 0.0
N977 N 0.54929 0.05306 1.00778 0.0
H978 H 0.48299 0.61042 1.00448 0.0
H979 H 0.54829 0.41643 0.01705 0.0
H980 H 0.49076 0.55596 0.08211 0.0
H981 H 0.53922 0.47073 0.93943 0.0
H982 H 0.52766 0.46739 0.04139 0.0
H983 H 0.50369 0.55946 0.98027 0.0
C984 C 0.48899 0.58781 0.01645 0.0
C985 C 0.48512 0.58765 0.04542 0.0
C986 C 0.5302 0.46811 0.01902 0.0
C987 C 0.50897 0.5291 0.01782 0.0
C988 C 0.54203 0.43899 1.00511 0.0
C989 C 0.54551 0.43912 0.97611 0.0
C990 C 0.52177 0.49763 1.00384 0.0
C991 C 0.53691 0.46922 0.96178 0.0
C992 C 0.50086 0.55869 1.00262 0.0
C993 C 0.4934 0.55748 0.05979 0.0
N994 N 0.52548 0.49713 0.97575 0.0
N995 N 0.50491 0.52955 0.04588 0.0
H996 H 0.97343 0.48859 0.07998 0.0
H997 H 0.05712 0.54184 0.93462 0.0
H998 H 0.91809 0.49022 1.00245 0.0
H999 H 0.11094 0.54882 0.01267 0.0
H1000 H 1.00665 0.52183 0.95918 0.0
H1001 H 0.02417 0.50931 0.05585 0.0
C1002 C 0.97186 0.49325 0.05786 0.0
C1003 C 0.94121 0.48759 0.04328 0.0
C1004 C 0.02942 0.52777 0.97101 0.0
C1005 C 0.99969 0.51137 0.01541 0.0
C1006 C 0.05842 0.5392 0.95698 0.0
C1007 C 0.08859 0.54706 0.97154 0.0
C1008 C 0.03027 0.52393 0.99997 0.0
C1009 C 0.08836 0.54317 1.00054 0.0
C1010 C 1.00096 0.50515 0.04409 0.0
C1011 C 0.94102 0.49412 0.01461 0.0
N1012 N 0.05972 0.53181 0.01377 0.0
N1013 N 0.96975 0.50559 1.00167 0.0
H1014 H 0.98551 0.05598 0.93753 0.0
H1015 H 0.04406 0.97205 0.08137 0.0
H1016 H 0.98534 0.11052 0.01546 0.0
H1017 H 0.04166 0.91728 1.00358 0.0
H1018 H 0.0233 0.02292 0.05765 0.0
H1019 H 1.00653 1.00543 0.96136 0.0
C1020 C 0.98988 0.05743 0.9597 0.0
C1021 C 0.98363 0.08781 0.97445 0.0
C1022 C 0.02733 0.99983 0.04573 0.0
C1023 C 1.00783 0.02941 1.00203 0.0
C1024 C 0.03924 0.97063 0.05926 0.0
C1025 C 0.04464 0.9401 0.0445 0.0
C1026 C 0.02077 0.99876 0.0171 0.0
C1027 C 0.03796 0.94013 0.01586 0.0
C1028 C 1.0019 0.02839 0.97332 0.0
C1029 C 0.98972 0.08777 1.00319 0.0
N1030 N 0.02637 0.96895 1.00313 0.0
N1031 N 1.0015 0.05907 0.01602 0.0
H1032 H 0.97037 0.04145 0.58073 0.0
H1033 H 0.05385 0.9869 0.43567 0.0
H1034 H 0.91559 0.0435 0.50293 0.0
H1035 H 0.108 0.98416 0.51374 0.0
H1036 H 1.00327 1.00758 0.45981 0.0
H1037 H 0.02073 0.02063 0.5565 0.0
C1038 C 0.96883 0.03755 0.55851 0.0
C1039 C 0.93844 0.04426 0.5439 0.0
C1040 C 0.02615 1.00243 0.47171 0.0
C1041 C 0.99661 0.02032 0.51587 0.0
C1042 C 0.05519 0.99059 0.45793 0.0
C1043 C 0.08546 0.98374 0.47265 0.0
C1044 C 0.02712 1.00753 0.50053 0.0
C1045 C 0.08535 0.98902 0.50149 0.0
C1046 C 0.99776 0.02563 0.54466 0.0
C1047 C 0.93835 0.03875 0.51509 0.0
N1048 N 0.05669 1.0006 0.51445 0.0
N1049 N 0.96694 0.02711 0.50204 0.0
H1050 H 0.53743 0.05611 0.43736 0.0
H1051 H 0.48996 0.97202 0.58391 0.0
H1052 H 0.54325 0.11039 0.51526 0.0
H1053 H 0.48234 0.9181 0.50595 0.0
H1054 H 0.50993 0.02245 0.55918 0.0
H1055 H 0.5178 1.00548 0.46206 0.0
C1056 C 0.53462 0.05749 0.4597 0.0
C1057 C 0.54205 0.08782 0.47419 0.0
C1058 C 0.5039 0.99964 0.54742 0.0
C1059 C 0.51947 0.02936 0.50275 0.0
C1060 C 0.49249 0.97067 0.56155 0.0
C1061 C 0.48442 0.9405 0.54705 0.0
C1062 C 0.50737 0.99877 0.51843 0.0
C1063 C 0.48818 0.94066 0.51805 0.0
C1064 C 0.52337 0.02841 0.4738 0.0
C1065 C 0.53791 0.08771 0.50316 0.0
N1066 N 0.49937 0.96928 0.50473 0.0
N1067 N 0.52692 0.059 0.51644 0.0
H1068 H 0.47085 0.54076 0.43672 0.0
H1069 H 0.55599 0.48828 0.58166 0.0
H1070 H 0.41675 0.54192 0.51475 0.0
H1071 H 0.60972 0.48453 0.5035 0.0
H1072 H 0.50528 0.50842 0.55753 0.0
H1073 H 0.52182 0.52084 0.46075 0.0
C1074 C 0.46959 0.53687 0.45895 0.0
C1075 C 0.43921 0.54306 0.47369 0.0
C1076 C 0.5281 0.50321 0.54559 0.0
C1077 C 0.49804 0.52015 0.50146 0.0
C1078 C 0.55725 0.4917 0.55938 0.0
C1079 C 0.58744 0.48468 0.54464 0.0
C1080 C 0.52882 0.50785 0.51673 0.0
C1081 C 0.58713 0.48954 0.51576 0.0
C1082 C 0.49886 0.52545 0.47267 0.0
C1083 C 0.43947 0.53756 0.50249 0.0
N1084 N 0.55833 0.50083 0.50277 0.0
N1085 N 0.46837 0.52644 0.5154 0.0
H1086 H 0.04192 0.55657 0.57863 0.0
H1087 H 0.98497 0.47267 0.43402 0.0
H1088 H 0.03934 0.61216 0.50131 0.0
H1089 H 0.98459 0.41818 0.51188 0.0
H1090 H 1.00527 0.52357 0.45814 0.0
H1091 H 0.02158 0.50579 0.55446 0.0
C1092 C 0.03712 0.5582 0.55653 0.0
C1093 C 0.04238 0.58895 0.54205 0.0
C1094 C 1.00072 0.50053 0.47 0.0
C1095 C 0.01898 0.5303 0.51408 0.0
C1096 C 0.98909 0.47131 0.45623 0.0
C1097 C 0.98299 0.44085 0.47089 0.0
C1098 C 1.0064 0.49957 0.49876 0.0
C1099 C 0.98884 0.44097 0.49967 0.0
C1100 C 0.02546 0.52903 0.54272 0.0
C1101 C 0.03573 0.58914 0.51338 0.0
N1102 N 1.00022 0.4698 0.51262 0.0
N1103 N 0.0244 0.56032 0.50037 0.0
H1104 H 0.57182 0.18154 0.31339 0.0
H1105 H 0.68132 0.07612 0.205 0.0
H1106 H 0.62534 0.08977 0.33681 0.0
H1107 H 0.58619 0.12304 0.18097 0.0
H1108 H 0.66919 0.09021 0.2535 0.0
H1109 H 0.58502 0.1696 0.26451 0.0
C1110 C 0.58668 0.1591 0.30825 0.0
C1111 C 0.59759 0.13657 0.32908 0.0
C1112 C 0.65106 0.09748 0.23758 0.0
C1113 C 0.6129 0.1231 0.27353 0.0
C1114 C 0.65799 0.08965 0.20993 0.0
C1115 C 0.63466 0.09845 0.189 0.0
C1116 C 0.62096 0.11491 0.2443 0.0
C1117 C 0.60473 0.11572 0.19655 0.0
C1118 C 0.59393 0.15222 0.28042 0.0
C1119 C 0.61643 0.1077 0.32133 0.0
N1120 N 0.59881 0.12367 0.22365 0.0
N1121 N 0.62374 0.10189 0.29414 0.0
H1122 H 0.43669 0.63043 0.33857 0.0
H1123 H 0.39896 0.58986 0.18124 0.0
H1124 H 0.34421 0.57868 0.31391 0.0
H1125 H 0.4494 0.68327 0.20539 0.0
H1126 H 0.38344 0.5801 0.22997 0.0
H1127 H 0.44707 0.64536 0.28978 0.0
C1128 C 0.41852 0.62241 0.32289 0.0
C1129 C 0.38954 0.60339 0.33018 0.0
C1130 C 0.39765 0.60285 0.22449 0.0
C1131 C 0.40157 0.61967 0.27461 0.0
C1132 C 0.40658 0.60836 0.19679 0.0
C1133 C 0.4254 0.63741 0.18938 0.0
C1134 C 0.40843 0.62611 0.2449 0.0
C1135 C 0.43468 0.66064 0.21027 0.0
C1136 C 0.42437 0.631 0.29517 0.0
C1137 C 0.36675 0.59358 0.30913 0.0
N1138 N 0.4265 0.65427 0.23719 0.0
N1139 N 0.37348 0.60143 0.2822 0.0
H1140 H 0.84257 0.44913 0.20116 0.0
H1141 H 0.94861 0.34246 0.31192 0.0
H1142 H 0.93574 0.39713 0.1792 0.0
H1143 H 0.89706 0.43592 0.33387 0.0
H1144 H 0.93442 0.35269 0.26303 0.0
H1145 H 0.8527 0.43476 0.25002 0.0
C1146 C 0.86492 0.4343 0.20659 0.0
C1147 C 0.88842 0.42431 0.18617 0.0
C1148 C 0.92608 0.37079 0.27862 0.0
C1149 C 0.89987 0.40762 0.24181 0.0
C1150 C 0.93394 0.36491 0.30648 0.0
C1151 C 0.924 0.38845 0.3269 0.0
C1152 C 0.9075 0.39999 0.27124 0.0
C1153 C 0.90529 0.41725 0.31871 0.0
C1154 C 0.87075 0.42634 0.23443 0.0
C1155 C 0.9171 0.4054 0.19435 0.0
N1156 N 0.89746 0.42215 0.29148 0.0
N1157 N 0.92197 0.39749 0.22157 0.0
H1158 H 0.1843 0.94882 0.31407 0.0
H1159 H 0.07796 0.84199 0.20328 0.0
H1160 H 0.09027 0.89798 0.33575 0.0
H1161 H 0.131 0.93465 0.18119 0.0
H1162 H 0.09184 0.85255 0.25222 0.0
H1163 H 0.17446 0.93398 0.26525 0.0
C1164 C 0.1618 0.93417 0.30858 0.0
C1165 C 0.13798 0.92463 0.3289 0.0
C1166 C 0.10058 0.87039 0.23658 0.0
C1167 C 0.12688 0.90738 0.27333 0.0
C1168 C 0.0929 0.86431 0.20871 0.0
C1169 C 0.10334 0.88756 0.18824 0.0
C1170 C 0.11948 0.89947 0.24392 0.0
C1171 C 0.12238 0.91621 0.19639 0.0
C1172 C 0.15614 0.92593 0.28076 0.0
C1173 C 0.10914 0.90592 0.32066 0.0
N1174 N 0.13001 0.92131 0.22364 0.0
N1175 N 0.10445 0.89773 0.29347 0.0
H1176 H 0.44773 0.94973 0.83404 0.0
H1177 H 0.4021 0.84635 0.69833 0.0
H1178 H 0.34847 0.90289 0.82619 0.0
H1179 H 0.45169 0.94456 0.69383 0.0
H1180 H 0.39 0.85683 0.74779 0.0
H1181 H 0.45859 0.93731 0.78485 0.0
C1182 C 0.42847 0.93637 0.82205 0.0
C1183 C 0.39717 0.9273 0.83406 0.0
C1184 C 0.40338 0.87604 0.73583 0.0
C1185 C 0.40955 0.91281 0.77821 0.0
C1186 C 0.41028 0.87012 0.70775 0.0
C1187 C 0.42766 0.89478 0.69207 0.0
C1188 C 0.41502 0.90625 0.74835 0.0
C1189 C 0.43788 0.9251 0.70518 0.0
C1190 C 0.43457 0.92958 0.79404 0.0
C1191 C 0.37289 0.91036 0.81758 0.0
N1192 N 0.43181 0.92982 0.73269 0.0
N1193 N 0.37967 0.9034 0.79046 0.0
H1194 H 0.58071 0.44796 0.68926 0.0
H1195 H 0.62619 0.34518 0.8245 0.0
H1196 H 0.68056 0.40248 0.69646 0.0
H1197 H 0.5777 0.44383 0.82909 0.0
H1198 H 0.63896 0.3558 0.77515 0.0
H1199 H 0.57051 0.43574 0.73847 0.0
C1200 C 0.60027 0.43496 0.70112 0.0
C1201 C 0.63152 0.42619 0.68891 0.0
C1202 C 0.62571 0.37507 0.78713 0.0
C1203 C 0.61986 0.41193 0.74484 0.0
C1204 C 0.61839 0.36907 0.81512 0.0
C1205 C 0.60105 0.39378 0.83076 0.0
C1206 C 0.61453 0.40544 0.77469 0.0
C1207 C 0.5914 0.42429 0.81775 0.0
C1208 C 0.59454 0.42828 0.72916 0.0
C1209 C 0.65618 0.40971 0.70524 0.0
N1210 N 0.59783 0.42908 0.79033 0.0
N1211 N 0.64974 0.40281 0.73244 0.0
H1212 H 0.13128 0.58992 0.67705 0.0
H1213 H 0.09151 0.62742 0.83475 0.0
H1214 H 0.08018 0.68237 0.70228 0.0
H1215 H 0.18381 0.57551 0.81037 0.0
H1216 H 0.08161 0.64287 0.78602 0.0
H1217 H 0.14605 0.57891 0.7258 0.0
C1218 C 0.12338 0.60797 0.69283 0.0
C1219 C 0.10459 0.63712 0.6857 0.0
C1220 C 0.10414 0.62831 0.79144 0.0
C1221 C 0.12067 0.62435 0.74125 0.0
C1222 C 0.10972 0.61942 0.81915 0.0
C1223 C 0.13854 0.60026 0.82651 0.0
C1224 C 0.12707 0.61719 0.77095 0.0
C1225 C 0.16139 0.59051 0.80553 0.0
C1226 C 0.13186 0.60173 0.72055 0.0
C1227 C 0.09491 0.6597 0.70691 0.0
N1228 N 0.15495 0.59871 0.77861 0.0
N1229 N 0.10267 0.65262 0.73381 0.0
H1230 H 0.94566 0.08193 0.82984 0.0
H1231 H 0.8436 0.12778 0.69448 0.0
H1232 H 0.90027 0.18188 0.82318 0.0
H1233 H 0.94289 0.08065 0.68996 0.0
H1234 H 0.85393 0.14045 0.74392 0.0
H1235 H 0.93384 0.07226 0.78046 0.0
C1236 C 0.93275 0.10162 0.81806 0.0
C1237 C 0.92389 0.13274 0.83048 0.0
C1238 C 0.87342 0.12755 0.73193 0.0
C1239 C 0.9101 0.12169 0.77435 0.0
C1240 C 0.86758 0.1203 0.70389 0.0
C1241 C 0.89255 0.10334 0.68824 0.0
C1242 C 0.90387 0.11666 0.74442 0.0
C1243 C 0.92317 0.09407 0.70129 0.0
C1244 C 0.92631 0.09619 0.78993 0.0
C1245 C 0.90755 0.15759 0.81424 0.0
N1246 N 0.92779 0.10039 0.72877 0.0
N1247 N 0.90088 0.15144 0.78694 0.0
loop_
_geom_bond_atom_site_label_1
_geom_bond_atom_site_label_2
_geom_bond_distance
_geom_bond_site_symmetry_2
_ccdc_geom_bond_type
Co0 N4 2.148 . S
Co0 N10 2.128 1_545 S
Co0 N20 2.194 . S
Co0 O25 2.351 . S
Co0 O26 2.155 . S
Co0 O27 2.096 . S
C1 N4 1.301 . S
C1 N5 1.328 . S
C1 H6 0.930 . S
C2 C3 1.333 . S
C2 N4 1.317 . S
C2 H7 0.930 . S
C3 C2 1.333 . S
C3 N5 1.350 . S
C3 H29 0.931 . S
N4 Co0 2.148 . S
N4 C1 1.301 . S
N4 C2 1.317 . S
N5 C1 1.328 . S
N5 C3 1.350 . S
H6 C1 0.930 . S
H7 C2 0.930 . S
C8 O9 1.224 . S
C8 O27 1.247 . S
O9 C8 1.224 . S
N10 Co0 2.128 1_565 S
N10 C11 1.355 . S
N10 C13 1.311 . S
C11 N10 1.355 . S
C11 C12 1.363 . S
C11 H23 0.929 . S
C12 C11 1.363 . S
C12 N14 1.375 . S
C12 H30 0.931 . S
C13 N10 1.311 . S
C13 N14 1.347 . S
C13 H24 0.929 . S
N14 C12 1.375 . S
N14 C13 1.347 . S
C15 C18 1.365 . S
C15 N20 1.328 . S
C15 H21 0.929 . S
C16 C17 1.362 . S
C16 C19 1.378 1_565 S
C16 H31 0.929 . S
C17 C16 1.362 . S
C17 C18 1.366 1_565 S
C18 C15 1.365 . S
C18 C17 1.366 1_545 S
C18 H32 0.930 . S
C19 C16 1.378 1_545 S
C19 N20 1.315 . S
C19 H22 0.930 . S
N20 Co0 2.194 . S
N20 C15 1.328 . S
N20 C19 1.315 . S
H21 C15 0.929 . S
H22 C19 0.930 . S
H23 C11 0.929 . S
H24 C13 0.929 . S
O25 Co0 2.351 . S
O25 C28 1.244 . S
O26 Co0 2.155 . S
O26 C28 1.240 . S
O27 Co0 2.096 . S
O27 C8 1.247 . S
C28 O25 1.244 . S
C28 O26 1.240 . S
H29 C3 0.931 . S
H30 C12 0.931 . S
H31 C16 0.929 . S
H32 C18 0.930 . S
Co33 N37 2.148 . S
Co33 N43 2.128 . S
Co33 N53 2.194 . S
Co33 O58 2.351 . S
Co33 O59 2.155 . S
Co33 O60 2.096 . S
C34 N37 1.301 . S
C34 N38 1.328 . S
C34 H39 0.930 . S
C35 C36 1.333 . S
C35 N37 1.317 . S
C35 H40 0.930 . S
C36 C35 1.333 . S
C36 N38 1.350 . S
C36 H62 0.931 . S
N37 Co33 2.148 . S
N37 C34 1.301 . S
N37 C35 1.317 . S
N38 C34 1.328 . S
N38 C36 1.350 . S
H39 C34 0.930 . S
H40 C35 0.930 . S
C41 O42 1.224 . S
C41 O60 1.247 . S
O42 C41 1.224 . S
N43 Co33 2.128 . S
N43 C44 1.355 . S
N43 C46 1.311 . S
C44 N43 1.355 . S
C44 C45 1.363 . S
C44 H56 0.929 . S
C45 C44 1.363 . S
C45 N47 1.375 . S
C45 H63 0.931 . S
C46 N43 1.311 . S
C46 N47 1.347 . S
C46 H57 0.929 . S
N47 C45 1.375 . S
N47 C46 1.347 . S
C48 C51 1.365 . S
C48 N53 1.328 . S
C48 H54 0.929 . S
C49 C50 1.362 . S
C49 C52 1.378 . S
C49 H64 0.929 . S
C50 C49 1.362 . S
C50 C51 1.366 . S
C51 C48 1.365 . S
C51 C50 1.366 . S
C51 H65 0.930 . S
C52 C49 1.378 . S
C52 N53 1.315 . S
C52 H55 0.930 . S
N53 Co33 2.194 . S
N53 C48 1.328 . S
N53 C52 1.315 . S
H54 C48 0.929 . S
H55 C52 0.930 . S
H56 C44 0.929 . S
H57 C46 0.929 . S
O58 Co33 2.351 . S
O58 C61 1.244 . S
O59 Co33 2.155 . S
O59 C61 1.240 . S
O60 Co33 2.096 . S
O60 C41 1.247 . S
C61 O58 1.244 . S
C61 O59 1.240 . S
H62 C36 0.931 . S
H63 C45 0.931 . S
H64 C49 0.929 . S
H65 C51 0.930 . S
Co66 N70 2.148 . S
Co66 N76 2.128 . S
Co66 N86 2.194 . S
Co66 O91 2.351 . S
Co66 O92 2.155 . S
Co66 O93 2.096 . S
C67 N70 1.301 . S
C67 N71 1.328 . S
C67 H72 0.930 . S
C68 C69 1.333 . S
C68 N70 1.317 . S
C68 H73 0.930 . S
C69 C68 1.333 . S
C69 N71 1.350 . S
C69 H95 0.931 . S
N70 Co66 2.148 . S
N70 C67 1.301 . S
N70 C68 1.317 . S
N71 C67 1.328 . S
N71 C69 1.350 . S
H72 C67 0.930 . S
H73 C68 0.930 . S
C74 O75 1.224 . S
C74 O93 1.247 . S
O75 C74 1.224 . S
N76 Co66 2.128 . S
N76 C77 1.355 . S
N76 C79 1.311 . S
C77 N76 1.355 . S
C77 C78 1.363 . S
C77 H89 0.929 . S
C78 C77 1.363 . S
C78 N80 1.375 . S
C78 H96 0.931 . S
C79 N76 1.311 . S
C79 N80 1.347 . S
C79 H90 0.929 . S
N80 C78 1.375 . S
N80 C79 1.347 . S
C81 C84 1.365 . S
C81 N86 1.328 . S
C81 H87 0.929 . S
C82 C83 1.362 . S
C82 C85 1.378 . S
C82 H97 0.929 . S
C83 C82 1.362 . S
C83 C84 1.366 . S
C84 C81 1.365 . S
C84 C83 1.366 . S
C84 H98 0.930 . S
C85 C82 1.378 . S
C85 N86 1.315 . S
C85 H88 0.930 . S
N86 Co66 2.194 . S
N86 C81 1.328 . S
N86 C85 1.315 . S
H87 C81 0.929 . S
H88 C85 0.930 . S
H89 C77 0.929 . S
H90 C79 0.929 . S
O91 Co66 2.351 . S
O91 C94 1.244 . S
O92 Co66 2.155 . S
O92 C94 1.240 . S
O93 Co66 2.096 . S
O93 C74 1.247 . S
C94 O91 1.244 . S
C94 O92 1.240 . S
H95 C69 0.931 . S
H96 C78 0.931 . S
H97 C82 0.929 . S
H98 C84 0.930 . S
Co99 N103 2.148 . S
Co99 N109 2.128 1_455 S
Co99 N119 2.194 . S
Co99 O124 2.351 . S
Co99 O125 2.155 . S
Co99 O126 2.096 . S
C100 N103 1.301 . S
C100 N104 1.328 . S
C100 H105 0.930 . S
C101 C102 1.333 . S
C101 N103 1.317 . S
C101 H106 0.930 . S
C102 C101 1.333 . S
C102 N104 1.350 . S
C102 H128 0.931 . S
N103 Co99 2.148 . S
N103 C100 1.301 . S
N103 C101 1.317 . S
N104 C100 1.328 . S
N104 C102 1.350 . S
H105 C100 0.930 . S
H106 C101 0.930 . S
C107 O108 1.224 . S
C107 O126 1.247 . S
O108 C107 1.224 . S
N109 Co99 2.128 1_655 S
N109 C110 1.355 . S
N109 C112 1.311 . S
C110 N109 1.355 . S
C110 C111 1.363 . S
C110 H122 0.929 . S
C111 C110 1.363 . S
C111 N113 1.375 . S
C111 H129 0.931 . S
C112 N109 1.311 . S
C112 N113 1.347 . S
C112 H123 0.929 . S
N113 C111 1.375 . S
N113 C112 1.347 . S
C114 C117 1.365 . S
C114 N119 1.328 . S
C114 H120 0.929 . S
C115 C116 1.362 . S
C115 C118 1.378 1_655 S
C115 H130 0.929 . S
C116 C115 1.362 . S
C116 C117 1.366 1_655 S
C117 C114 1.365 . S
C117 C116 1.366 1_455 S
C117 H131 0.930 . S
C118 C115 1.378 1_455 S
C118 N119 1.315 . S
C118 H121 0.930 . S
N119 Co99 2.194 . S
N119 C114 1.328 . S
N119 C118 1.315 . S
H120 C114 0.929 . S
H121 C118 0.930 . S
H122 C110 0.929 . S
H123 C112 0.929 . S
O124 Co99 2.351 . S
O124 C127 1.244 . S
O125 Co99 2.155 . S
O125 C127 1.240 . S
O126 Co99 2.096 . S
O126 C107 1.247 . S
C127 O124 1.244 . S
C127 O125 1.240 . S
H128 C102 0.931 . S
H129 C111 0.931 . S
H130 C115 0.929 . S
H131 C117 0.930 . S
Co132 N136 2.148 . S
Co132 N142 2.128 1_565 S
Co132 N152 2.194 . S
Co132 O157 2.351 . S
Co132 O158 2.155 . S
Co132 O159 2.096 . S
C133 N136 1.301 . S
C133 N137 1.328 . S
C133 H138 0.930 . S
C134 C135 1.333 . S
C134 N136 1.317 . S
C134 H139 0.930 . S
C135 C134 1.333 . S
C135 N137 1.350 . S
C135 H161 0.931 . S
N136 Co132 2.148 . S
N136 C133 1.301 . S
N136 C134 1.317 . S
N137 C133 1.328 . S
N137 C135 1.350 . S
H138 C133 0.930 . S
H139 C134 0.930 . S
C140 O141 1.224 . S
C140 O159 1.247 . S
O141 C140 1.224 . S
N142 Co132 2.128 1_545 S
N142 C143 1.355 . S
N142 C145 1.311 . S
C143 N142 1.355 . S
C143 C144 1.363 . S
C143 H155 0.929 . S
C144 C143 1.363 . S
C144 N146 1.375 . S
C144 H162 0.931 . S
C145 N142 1.311 . S
C145 N146 1.347 . S
C145 H156 0.929 . S
N146 C144 1.375 . S
N146 C145 1.347 . S
C147 C150 1.365 . S
C147 N152 1.328 . S
C147 H153 0.929 . S
C148 C149 1.362 . S
C148 C151 1.378 1_545 S
C148 H163 0.929 . S
C149 C148 1.362 . S
C149 C150 1.366 1_545 S
C150 C147 1.365 . S
C150 C149 1.366 1_565 S
C150 H164 0.930 . S
C151 C148 1.378 1_565 S
C151 N152 1.315 . S
C151 H154 0.930 . S
N152 Co132 2.194 . S
N152 C147 1.328 . S
N152 C151 1.315 . S
H153 C147 0.929 . S
H154 C151 0.930 . S
H155 C143 0.929 . S
H156 C145 0.929 . S
O157 Co132 2.351 . S
O157 C160 1.244 . S
O158 Co132 2.155 . S
O158 C160 1.240 . S
O159 Co132 2.096 . S
O159 C140 1.247 . S
C160 O157 1.244 . S
C160 O158 1.240 . S
H161 C135 0.931 . S
H162 C144 0.931 . S
H163 C148 0.929 . S
H164 C150 0.930 . S
Co165 N169 2.148 . S
Co165 N175 2.128 . S
Co165 N185 2.194 . S
Co165 O190 2.351 . S
Co165 O191 2.155 . S
Co165 O192 2.096 . S
C166 N169 1.301 . S
C166 N170 1.328 . S
C166 H171 0.930 . S
C167 C168 1.333 . S
C167 N169 1.317 . S
C167 H172 0.930 . S
C168 C167 1.333 . S
C168 N170 1.350 . S
C168 H194 0.931 . S
N169 Co165 2.148 . S
N169 C166 1.301 . S
N169 C167 1.317 . S
N170 C166 1.328 . S
N170 C168 1.350 . S
H171 C166 0.930 . S
H172 C167 0.930 . S
C173 O174 1.224 . S
C173 O192 1.247 . S
O174 C173 1.224 . S
N175 Co165 2.128 . S
N175 C176 1.355 . S
N175 C178 1.311 . S
C176 N175 1.355 . S
C176 C177 1.363 . S
C176 H188 0.929 . S
C177 C176 1.363 . S
C177 N179 1.375 . S
C177 H195 0.931 . S
C178 N175 1.311 . S
C178 N179 1.347 . S
C178 H189 0.929 . S
N179 C177 1.375 . S
N179 C178 1.347 . S
C180 C183 1.365 . S
C180 N185 1.328 . S
C180 H186 0.929 . S
C181 C182 1.362 . S
C181 C184 1.378 . S
C181 H196 0.929 . S
C182 C181 1.362 . S
C182 C183 1.366 . S
C183 C180 1.365 . S
C183 C182 1.366 . S
C183 H197 0.930 . S
C184 C181 1.378 . S
C184 N185 1.315 . S
C184 H187 0.930 . S
N185 Co165 2.194 . S
N185 C180 1.328 . S
N185 C184 1.315 . S
H186 C180 0.929 . S
H187 C184 0.930 . S
H188 C176 0.929 . S
H189 C178 0.929 . S
O190 Co165 2.351 . S
O190 C193 1.244 . S
O191 Co165 2.155 . S
O191 C193 1.240 . S
O192 Co165 2.096 . S
O192 C173 1.247 . S
C193 O190 1.244 . S
C193 O191 1.240 . S
H194 C168 0.931 . S
H195 C177 0.931 . S
H196 C181 0.929 . S
H197 C183 0.930 . S
Co198 N202 2.148 . S
Co198 N208 2.128 . S
Co198 N218 2.194 . S
Co198 O223 2.351 . S
Co198 O224 2.155 . S
Co198 O225 2.096 . S
C199 N202 1.301 . S
C199 N203 1.328 . S
C199 H204 0.930 . S
C200 C201 1.333 . S
C200 N202 1.317 . S
C200 H205 0.930 . S
C201 C200 1.333 . S
C201 N203 1.350 . S
C201 H227 0.931 . S
N202 Co198 2.148 . S
N202 C199 1.301 . S
N202 C200 1.317 . S
N203 C199 1.328 . S
N203 C201 1.350 . S
H204 C199 0.930 . S
H205 C200 0.930 . S
C206 O207 1.224 . S
C206 O225 1.247 . S
O207 C206 1.224 . S
N208 Co198 2.128 . S
N208 C209 1.355 . S
N208 C211 1.311 . S
C209 N208 1.355 . S
C209 C210 1.363 . S
C209 H221 0.929 . S
C210 C209 1.363 . S
C210 N212 1.375 . S
C210 H228 0.931 . S
C211 N208 1.311 . S
C211 N212 1.347 . S
C211 H222 0.929 . S
N212 C210 1.375 . S
N212 C211 1.347 . S
C213 C216 1.365 . S
C213 N218 1.328 . S
C213 H219 0.929 . S
C214 C215 1.362 . S
C214 C217 1.378 . S
C214 H229 0.929 . S
C215 C214 1.362 . S
C215 C216 1.366 . S
C216 C213 1.365 . S
C216 C215 1.366 . S
C216 H230 0.930 . S
C217 C214 1.378 . S
C217 N218 1.315 . S
C217 H220 0.930 . S
N218 Co198 2.194 . S
N218 C213 1.328 . S
N218 C217 1.315 . S
H219 C213 0.929 . S
H220 C217 0.930 . S
H221 C209 0.929 . S
H222 C211 0.929 . S
O223 Co198 2.351 . S
O223 C226 1.244 . S
O224 Co198 2.155 . S
O224 C226 1.240 . S
O225 Co198 2.096 . S
O225 C206 1.247 . S
C226 O223 1.244 . S
C226 O224 1.240 . S
H227 C201 0.931 . S
H228 C210 0.931 . S
H229 C214 0.929 . S
H230 C216 0.930 . S
Co231 N235 2.148 . S
Co231 N241 2.128 1_655 S
Co231 N251 2.194 . S
Co231 O256 2.351 . S
Co231 O257 2.155 . S
Co231 O258 2.096 . S
C232 N235 1.301 . S
C232 N236 1.328 . S
C232 H237 0.930 . S
C233 C234 1.333 . S
C233 N235 1.317 . S
C233 H238 0.930 . S
C234 C233 1.333 . S
C234 N236 1.350 . S
C234 H260 0.931 . S
N235 Co231 2.148 . S
N235 C232 1.301 . S
N235 C233 1.317 . S
N236 C232 1.328 . S
N236 C234 1.350 . S
H237 C232 0.930 . S
H238 C233 0.930 . S
C239 O240 1.224 . S
C239 O258 1.247 . S
O240 C239 1.224 . S
N241 Co231 2.128 1_455 S
N241 C242 1.355 . S
N241 C244 1.311 . S
C242 N241 1.355 . S
C242 C243 1.363 . S
C242 H254 0.929 . S
C243 C242 1.363 . S
C243 N245 1.375 . S
C243 H261 0.931 . S
C244 N241 1.311 . S
C244 N245 1.347 . S
C244 H255 0.929 . S
N245 C243 1.375 . S
N245 C244 1.347 . S
C246 C249 1.365 . S
C246 N251 1.328 . S
C246 H252 0.929 . S
C247 C248 1.362 . S
C247 C250 1.378 1_455 S
C247 H262 0.929 . S
C248 C247 1.362 . S
C248 C249 1.366 1_455 S
C249 C246 1.365 . S
C249 C248 1.366 1_655 S
C249 H263 0.930 . S
C250 C247 1.378 1_655 S
C250 N251 1.315 . S
C250 H253 0.930 . S
N251 Co231 2.194 . S
N251 C246 1.328 . S
N251 C250 1.315 . S
H252 C246 0.929 . S
H253 C250 0.930 . S
H254 C242 0.929 . S
H255 C244 0.929 . S
O256 Co231 2.351 . S
O256 C259 1.244 . S
O257 Co231 2.155 . S
O257 C259 1.240 . S
O258 Co231 2.096 . S
O258 C239 1.247 . S
C259 O256 1.244 . S
C259 O257 1.240 . S
H260 C234 0.931 . S
H261 C243 0.931 . S
H262 C247 0.929 . S
H263 C249 0.930 . S
Co264 N268 2.148 . S
Co264 N274 2.128 1_565 S
Co264 N284 2.194 . S
Co264 O289 2.351 . S
Co264 O290 2.155 . S
Co264 O291 2.096 . S
C265 N268 1.301 . S
C265 N269 1.328 . S
C265 H270 0.930 . S
C266 C267 1.333 . S
C266 N268 1.317 . S
C266 H271 0.930 . S
C267 C266 1.333 . S
C267 N269 1.350 . S
C267 H293 0.931 . S
N268 Co264 2.148 . S
N268 C265 1.301 . S
N268 C266 1.317 . S
N269 C265 1.328 . S
N269 C267 1.350 . S
H270 C265 0.930 . S
H271 C266 0.930 . S
C272 O273 1.224 . S
C272 O291 1.247 . S
O273 C272 1.224 . S
N274 Co264 2.128 1_545 S
N274 C275 1.355 . S
N274 C277 1.311 . S
C275 N274 1.355 . S
C275 C276 1.363 . S
C275 H287 0.929 . S
C276 C275 1.363 . S
C276 N278 1.375 . S
C276 H294 0.931 . S
C277 N274 1.311 . S
C277 N278 1.347 . S
C277 H288 0.929 . S
N278 C276 1.375 . S
N278 C277 1.347 . S
C279 C282 1.365 . S
C279 N284 1.328 . S
C279 H285 0.929 . S
C280 C281 1.362 . S
C280 C283 1.378 1_545 S
C280 H295 0.929 . S
C281 C280 1.362 . S
C281 C282 1.366 1_545 S
C282 C279 1.365 . S
C282 C281 1.366 1_565 S
C282 H296 0.930 . S
C283 C280 1.378 1_565 S
C283 N284 1.315 . S
C283 H286 0.930 . S
N284 Co264 2.194 . S
N284 C279 1.328 . S
N284 C283 1.315 . S
H285 C279 0.929 . S
H286 C283 0.930 . S
H287 C275 0.929 . S
H288 C277 0.929 . S
O289 Co264 2.351 . S
O289 C292 1.244 . S
O290 Co264 2.155 . S
O290 C292 1.240 . S
O291 Co264 2.096 . S
O291 C272 1.247 . S
C292 O289 1.244 . S
C292 O290 1.240 . S
H293 C267 0.931 . S
H294 C276 0.931 . S
H295 C280 0.929 . S
H296 C282 0.930 . S
Co297 N301 2.148 . S
Co297 N307 2.128 . S
Co297 N317 2.194 . S
Co297 O322 2.351 . S
Co297 O323 2.155 . S
Co297 O324 2.096 . S
C298 N301 1.301 . S
C298 N302 1.328 . S
C298 H303 0.930 . S
C299 C300 1.333 . S
C299 N301 1.317 . S
C299 H304 0.930 . S
C300 C299 1.333 . S
C300 N302 1.350 . S
C300 H326 0.931 . S
N301 Co297 2.148 . S
N301 C298 1.301 . S
N301 C299 1.317 . S
N302 C298 1.328 . S
N302 C300 1.350 . S
H303 C298 0.930 . S
H304 C299 0.930 . S
C305 O306 1.224 . S
C305 O324 1.247 . S
O306 C305 1.224 . S
N307 Co297 2.128 . S
N307 C308 1.355 . S
N307 C310 1.311 . S
C308 N307 1.355 . S
C308 C309 1.363 . S
C308 H320 0.929 . S
C309 C308 1.363 . S
C309 N311 1.375 . S
C309 H327 0.931 . S
C310 N307 1.311 . S
C310 N311 1.347 . S
C310 H321 0.929 . S
N311 C309 1.375 . S
N311 C310 1.347 . S
C312 C315 1.365 . S
C312 N317 1.328 . S
C312 H318 0.929 . S
C313 C314 1.362 . S
C313 C316 1.378 . S
C313 H328 0.929 . S
C314 C313 1.362 . S
C314 C315 1.366 . S
C315 C312 1.365 . S
C315 C314 1.366 . S
C315 H329 0.930 . S
C316 C313 1.378 . S
C316 N317 1.315 . S
C316 H319 0.930 . S
N317 Co297 2.194 . S
N317 C312 1.328 . S
N317 C316 1.315 . S
H318 C312 0.929 . S
H319 C316 0.930 . S
H320 C308 0.929 . S
H321 C310 0.929 . S
O322 Co297 2.351 . S
O322 C325 1.244 . S
O323 Co297 2.155 . S
O323 C325 1.240 . S
O324 Co297 2.096 . S
O324 C305 1.247 . S
C325 O322 1.244 . S
C325 O323 1.240 . S
H326 C300 0.931 . S
H327 C309 0.931 . S
H328 C313 0.929 . S
H329 C315 0.930 . S
Co330 N334 2.148 . S
Co330 N340 2.128 . S
Co330 N350 2.194 . S
Co330 O355 2.351 . S
Co330 O356 2.155 . S
Co330 O357 2.096 . S
C331 N334 1.301 . S
C331 N335 1.328 . S
C331 H336 0.930 . S
C332 C333 1.333 . S
C332 N334 1.317 . S
C332 H337 0.930 . S
C333 C332 1.333 . S
C333 N335 1.350 . S
C333 H359 0.931 . S
N334 Co330 2.148 . S
N334 C331 1.301 . S
N334 C332 1.317 . S
N335 C331 1.328 . S
N335 C333 1.350 . S
H336 C331 0.930 . S
H337 C332 0.930 . S
C338 O339 1.224 . S
C338 O357 1.247 . S
O339 C338 1.224 . S
N340 Co330 2.128 . S
N340 C341 1.355 . S
N340 C343 1.311 . S
C341 N340 1.355 . S
C341 C342 1.363 . S
C341 H353 0.929 . S
C342 C341 1.363 . S
C342 N344 1.375 . S
C342 H360 0.931 . S
C343 N340 1.311 . S
C343 N344 1.347 . S
C343 H354 0.929 . S
N344 C342 1.375 . S
N344 C343 1.347 . S
C345 C348 1.365 . S
C345 N350 1.328 . S
C345 H351 0.929 . S
C346 C347 1.362 . S
C346 C349 1.378 . S
C346 H361 0.929 . S
C347 C346 1.362 . S
C347 C348 1.366 . S
C348 C345 1.365 . S
C348 C347 1.366 . S
C348 H362 0.930 . S
C349 C346 1.378 . S
C349 N350 1.315 . S
C349 H352 0.930 . S
N350 Co330 2.194 . S
N350 C345 1.328 . S
N350 C349 1.315 . S
H351 C345 0.929 . S
H352 C349 0.930 . S
H353 C341 0.929 . S
H354 C343 0.929 . S
O355 Co330 2.351 . S
O355 C358 1.244 . S
O356 Co330 2.155 . S
O356 C358 1.240 . S
O357 Co330 2.096 . S
O357 C338 1.247 . S
C358 O355 1.244 . S
C358 O356 1.240 . S
H359 C333 0.931 . S
H360 C342 0.931 . S
H361 C346 0.929 . S
H362 C348 0.930 . S
Co363 N367 2.148 . S
Co363 N373 2.128 1_655 S
Co363 N383 2.194 . S
Co363 O388 2.351 . S
Co363 O389 2.155 . S
Co363 O390 2.096 . S
C364 N367 1.301 . S
C364 N368 1.328 . S
C364 H369 0.930 . S
C365 C366 1.333 . S
C365 N367 1.317 . S
C365 H370 0.930 . S
C366 C365 1.333 . S
C366 N368 1.350 . S
C366 H392 0.931 . S
N367 Co363 2.148 . S
N367 C364 1.301 . S
N367 C365 1.317 . S
N368 C364 1.328 . S
N368 C366 1.350 . S
H369 C364 0.930 . S
H370 C365 0.930 . S
C371 O372 1.224 . S
C371 O390 1.247 . S
O372 C371 1.224 . S
N373 Co363 2.128 1_455 S
N373 C374 1.355 . S
N373 C376 1.311 . S
C374 N373 1.355 . S
C374 C375 1.363 . S
C374 H386 0.929 . S
C375 C374 1.363 . S
C375 N377 1.375 . S
C375 H393 0.931 . S
C376 N373 1.311 . S
C376 N377 1.347 . S
C376 H387 0.929 . S
N377 C375 1.375 . S
N377 C376 1.347 . S
C378 C381 1.365 . S
C378 N383 1.328 . S
C378 H384 0.929 . S
C379 C380 1.362 . S
C379 C382 1.378 1_455 S
C379 H394 0.929 . S
C380 C379 1.362 . S
C380 C381 1.366 1_455 S
C381 C378 1.365 . S
C381 C380 1.366 1_655 S
C381 H395 0.930 . S
C382 C379 1.378 1_655 S
C382 N383 1.315 . S
C382 H385 0.930 . S
N383 Co363 2.194 . S
N383 C378 1.328 . S
N383 C382 1.315 . S
H384 C378 0.929 . S
H385 C382 0.930 . S
H386 C374 0.929 . S
H387 C376 0.929 . S
O388 Co363 2.351 . S
O388 C391 1.244 . S
O389 Co363 2.155 . S
O389 C391 1.240 . S
O390 Co363 2.096 . S
O390 C371 1.247 . S
C391 O388 1.244 . S
C391 O389 1.240 . S
H392 C366 0.931 . S
H393 C375 0.931 . S
H394 C379 0.929 . S
H395 C381 0.930 . S
Co396 N400 2.148 . S
Co396 N406 2.128 1_545 S
Co396 N416 2.194 . S
Co396 O421 2.351 . S
Co396 O422 2.155 . S
Co396 O423 2.096 . S
C397 N400 1.301 . S
C397 N401 1.328 . S
C397 H402 0.930 . S
C398 C399 1.333 . S
C398 N400 1.317 . S
C398 H403 0.930 . S
C399 C398 1.333 . S
C399 N401 1.350 . S
C399 H425 0.931 . S
N400 Co396 2.148 . S
N400 C397 1.301 . S
N400 C398 1.317 . S
N401 C397 1.328 . S
N401 C399 1.350 . S
H402 C397 0.930 . S
H403 C398 0.930 . S
C404 O405 1.224 . S
C404 O423 1.247 . S
O405 C404 1.224 . S
N406 Co396 2.128 1_565 S
N406 C407 1.355 . S
N406 C409 1.311 . S
C407 N406 1.355 . S
C407 C408 1.363 . S
C407 H419 0.929 . S
C408 C407 1.363 . S
C408 N410 1.375 . S
C408 H426 0.931 . S
C409 N406 1.311 . S
C409 N410 1.347 . S
C409 H420 0.929 . S
N410 C408 1.375 . S
N410 C409 1.347 . S
C411 C414 1.365 . S
C411 N416 1.328 . S
C411 H417 0.929 . S
C412 C413 1.362 . S
C412 C415 1.378 1_565 S
C412 H427 0.929 . S
C413 C412 1.362 . S
C413 C414 1.366 1_565 S
C414 C411 1.365 . S
C414 C413 1.366 1_545 S
C414 H428 0.930 . S
C415 C412 1.378 1_545 S
C415 N416 1.315 . S
C415 H418 0.930 . S
N416 Co396 2.194 . S
N416 C411 1.328 . S
N416 C415 1.315 . S
H417 C411 0.929 . S
H418 C415 0.930 . S
H419 C407 0.929 . S
H420 C409 0.929 . S
O421 Co396 2.351 . S
O421 C424 1.244 . S
O422 Co396 2.155 . S
O422 C424 1.240 . S
O423 Co396 2.096 . S
O423 C404 1.247 . S
C424 O421 1.244 . S
C424 O422 1.240 . S
H425 C399 0.931 . S
H426 C408 0.931 . S
H427 C412 0.929 . S
H428 C414 0.930 . S
Co429 N433 2.148 . S
Co429 N439 2.128 . S
Co429 N449 2.194 . S
Co429 O454 2.351 . S
Co429 O455 2.155 . S
Co429 O456 2.096 . S
C430 N433 1.301 . S
C430 N434 1.328 . S
C430 H435 0.930 . S
C431 C432 1.333 . S
C431 N433 1.317 . S
C431 H436 0.930 . S
C432 C431 1.333 . S
C432 N434 1.350 . S
C432 H458 0.931 . S
N433 Co429 2.148 . S
N433 C430 1.301 . S
N433 C431 1.317 . S
N434 C430 1.328 . S
N434 C432 1.350 . S
H435 C430 0.930 . S
H436 C431 0.930 . S
C437 O438 1.224 . S
C437 O456 1.247 . S
O438 C437 1.224 . S
N439 Co429 2.128 . S
N439 C440 1.355 . S
N439 C442 1.311 . S
C440 N439 1.355 . S
C440 C441 1.363 . S
C440 H452 0.929 . S
C441 C440 1.363 . S
C441 N443 1.375 . S
C441 H459 0.931 . S
C442 N439 1.311 . S
C442 N443 1.347 . S
C442 H453 0.929 . S
N443 C441 1.375 . S
N443 C442 1.347 . S
C444 C447 1.365 . S
C444 N449 1.328 . S
C444 H450 0.929 . S
C445 C446 1.362 . S
C445 C448 1.378 . S
C445 H460 0.929 . S
C446 C445 1.362 . S
C446 C447 1.366 . S
C447 C444 1.365 . S
C447 C446 1.366 . S
C447 H461 0.930 . S
C448 C445 1.378 . S
C448 N449 1.315 . S
C448 H451 0.930 . S
N449 Co429 2.194 . S
N449 C444 1.328 . S
N449 C448 1.315 . S
H450 C444 0.929 . S
H451 C448 0.930 . S
H452 C440 0.929 . S
H453 C442 0.929 . S
O454 Co429 2.351 . S
O454 C457 1.244 . S
O455 Co429 2.155 . S
O455 C457 1.240 . S
O456 Co429 2.096 . S
O456 C437 1.247 . S
C457 O454 1.244 . S
C457 O455 1.240 . S
H458 C432 0.931 . S
H459 C441 0.931 . S
H460 C445 0.929 . S
H461 C447 0.930 . S
Co462 N466 2.148 . S
Co462 N472 2.128 . S
Co462 N482 2.194 . S
Co462 O487 2.351 . S
Co462 O488 2.155 . S
Co462 O489 2.096 . S
C463 N466 1.301 . S
C463 N467 1.328 . S
C463 H468 0.930 . S
C464 C465 1.333 . S
C464 N466 1.317 . S
C464 H469 0.930 . S
C465 C464 1.333 . S
C465 N467 1.350 . S
C465 H491 0.931 . S
N466 Co462 2.148 . S
N466 C463 1.301 . S
N466 C464 1.317 . S
N467 C463 1.328 . S
N467 C465 1.350 . S
H468 C463 0.930 . S
H469 C464 0.930 . S
C470 O471 1.224 . S
C470 O489 1.247 . S
O471 C470 1.224 . S
N472 Co462 2.128 . S
N472 C473 1.355 . S
N472 C475 1.311 . S
C473 N472 1.355 . S
C473 C474 1.363 . S
C473 H485 0.929 . S
C474 C473 1.363 . S
C474 N476 1.375 . S
C474 H492 0.931 . S
C475 N472 1.311 . S
C475 N476 1.347 . S
C475 H486 0.929 . S
N476 C474 1.375 . S
N476 C475 1.347 . S
C477 C480 1.365 . S
C477 N482 1.328 . S
C477 H483 0.929 . S
C478 C479 1.362 . S
C478 C481 1.378 . S
C478 H493 0.929 . S
C479 C478 1.362 . S
C479 C480 1.366 . S
C480 C477 1.365 . S
C480 C479 1.366 . S
C480 H494 0.930 . S
C481 C478 1.378 . S
C481 N482 1.315 . S
C481 H484 0.930 . S
N482 Co462 2.194 . S
N482 C477 1.328 . S
N482 C481 1.315 . S
H483 C477 0.929 . S
H484 C481 0.930 . S
H485 C473 0.929 . S
H486 C475 0.929 . S
O487 Co462 2.351 . S
O487 C490 1.244 . S
O488 Co462 2.155 . S
O488 C490 1.240 . S
O489 Co462 2.096 . S
O489 C470 1.247 . S
C490 O487 1.244 . S
C490 O488 1.240 . S
H491 C465 0.931 . S
H492 C474 0.931 . S
H493 C478 0.929 . S
H494 C480 0.930 . S
Co495 N499 2.148 . S
Co495 N505 2.128 1_455 S
Co495 N515 2.194 . S
Co495 O520 2.351 . S
Co495 O521 2.155 . S
Co495 O522 2.096 . S
C496 N499 1.301 . S
C496 N500 1.328 . S
C496 H501 0.930 . S
C497 C498 1.333 . S
C497 N499 1.317 . S
C497 H502 0.930 . S
C498 C497 1.333 . S
C498 N500 1.350 . S
C498 H524 0.931 . S
N499 Co495 2.148 . S
N499 C496 1.301 . S
N499 C497 1.317 . S
N500 C496 1.328 . S
N500 C498 1.350 . S
H501 C496 0.930 . S
H502 C497 0.930 . S
C503 O504 1.224 . S
C503 O522 1.247 . S
O504 C503 1.224 . S
N505 Co495 2.128 1_655 S
N505 C506 1.355 . S
N505 C508 1.311 . S
C506 N505 1.355 . S
C506 C507 1.363 . S
C506 H518 0.929 . S
C507 C506 1.363 . S
C507 N509 1.375 . S
C507 H525 0.931 . S
C508 N505 1.311 . S
C508 N509 1.347 . S
C508 H519 0.929 . S
N509 C507 1.375 . S
N509 C508 1.347 . S
C510 C513 1.365 . S
C510 N515 1.328 . S
C510 H516 0.929 . S
C511 C512 1.362 . S
C511 C514 1.378 1_655 S
C511 H526 0.929 . S
C512 C511 1.362 . S
C512 C513 1.366 1_655 S
C513 C510 1.365 . S
C513 C512 1.366 1_455 S
C513 H527 0.930 . S
C514 C511 1.378 1_455 S
C514 N515 1.315 . S
C514 H517 0.930 . S
N515 Co495 2.194 . S
N515 C510 1.328 . S
N515 C514 1.315 . S
H516 C510 0.929 . S
H517 C514 0.930 . S
H518 C506 0.929 . S
H519 C508 0.929 . S
O520 Co495 2.351 . S
O520 C523 1.244 . S
O521 Co495 2.155 . S
O521 C523 1.240 . S
O522 Co495 2.096 . S
O522 C503 1.247 . S
C523 O520 1.244 . S
C523 O521 1.240 . S
H524 C498 0.931 . S
H525 C507 0.931 . S
H526 C511 0.929 . S
H527 C513 0.930 . S
H528 C534 0.930 . S
H529 C538 0.930 . S
H530 C543 0.929 . S
H531 C541 0.929 . S
H532 C536 0.929 . S
H533 C542 0.929 . S
C534 H528 0.930 . S
C534 C535 1.367 . S
C534 C542 1.378 . S
C535 C534 1.367 . S
C535 C543 1.433 . S
C536 H532 0.929 . S
C536 C538 1.378 . S
C536 C540 1.350 . S
C537 C540 1.463 . S
C537 C542 1.350 . S
C537 N545 1.427 . S
C538 H529 0.930 . S
C538 C536 1.378 . S
C538 C539 1.367 . S
C539 C538 1.367 . S
C539 C541 1.433 . S
C540 C536 1.350 . S
C540 C537 1.463 . S
C540 N544 1.427 . S
C541 H531 0.929 . S
C541 C539 1.433 . S
C541 N544 1.384 . S
C542 H533 0.929 . S
C542 C534 1.378 . S
C542 C537 1.350 . S
C543 H530 0.929 . S
C543 C535 1.433 . S
C543 N545 1.384 . S
N544 C540 1.427 . S
N544 C541 1.384 . S
N545 C537 1.427 . S
N545 C543 1.384 . S
H546 C552 0.930 . S
H547 C556 0.930 . S
H548 C561 0.929 . S
H549 C559 0.929 . S
H550 C554 0.929 . S
H551 C560 0.929 . S
C552 H546 0.930 . S
C552 C553 1.367 . S
C552 C560 1.378 . S
C553 C552 1.367 . S
C553 C561 1.433 . S
C554 H550 0.929 . S
C554 C556 1.378 . S
C554 C558 1.350 . S
C555 C558 1.463 . S
C555 C560 1.350 . S
C555 N563 1.427 . S
C556 H547 0.930 . S
C556 C554 1.378 . S
C556 C557 1.367 . S
C557 C556 1.367 . S
C557 C559 1.433 . S
C558 C554 1.350 . S
C558 C555 1.463 . S
C558 N562 1.427 . S
C559 H549 0.929 . S
C559 C557 1.433 . S
C559 N562 1.384 . S
C560 H551 0.929 . S
C560 C552 1.378 . S
C560 C555 1.350 . S
C561 H548 0.929 . S
C561 C553 1.433 . S
C561 N563 1.384 . S
N562 C558 1.427 . S
N562 C559 1.384 . S
N563 C555 1.427 . S
N563 C561 1.384 . S
H564 C570 0.930 . S
H565 C574 0.930 . S
H566 C579 0.929 . S
H567 C577 0.929 . S
H568 C572 0.929 . S
H569 C578 0.929 . S
C570 H564 0.930 . S
C570 C571 1.367 . S
C570 C578 1.378 . S
C571 C570 1.367 . S
C571 C579 1.433 . S
C572 H568 0.929 . S
C572 C574 1.378 . S
C572 C576 1.350 . S
C573 C576 1.463 . S
C573 C578 1.350 . S
C573 N581 1.427 . S
C574 H565 0.930 . S
C574 C572 1.378 . S
C574 C575 1.367 . S
C575 C574 1.367 . S
C575 C577 1.433 . S
C576 C572 1.350 . S
C576 C573 1.463 . S
C576 N580 1.427 . S
C577 H567 0.929 . S
C577 C575 1.433 . S
C577 N580 1.384 . S
C578 H569 0.929 . S
C578 C570 1.378 . S
C578 C573 1.350 . S
C579 H566 0.929 . S
C579 C571 1.433 . S
C579 N581 1.384 . S
N580 C576 1.427 . S
N580 C577 1.384 . S
N581 C573 1.427 . S
N581 C579 1.384 . S
H582 C588 0.930 . S
H583 C592 0.930 . S
H584 C597 0.929 . S
H585 C595 0.929 . S
H586 C590 0.929 . S
H587 C596 0.929 . S
C588 H582 0.930 . S
C588 C589 1.367 . S
C588 C596 1.378 . S
C589 C588 1.367 . S
C589 C597 1.433 . S
C590 H586 0.929 . S
C590 C592 1.378 . S
C590 C594 1.350 . S
C591 C594 1.463 . S
C591 C596 1.350 . S
C591 N599 1.427 . S
C592 H583 0.930 . S
C592 C590 1.378 . S
C592 C593 1.367 . S
C593 C592 1.367 . S
C593 C595 1.433 1_565 S
C594 C590 1.350 . S
C594 C591 1.463 . S
C594 N598 1.427 . S
C595 H585 0.929 . S
C595 C593 1.433 1_545 S
C595 N598 1.384 1_545 S
C596 H587 0.929 . S
C596 C588 1.378 . S
C596 C591 1.350 . S
C597 H584 0.929 . S
C597 C589 1.433 . S
C597 N599 1.384 . S
N598 C594 1.427 . S
N598 C595 1.384 1_565 S
N599 C591 1.427 . S
N599 C597 1.384 . S
H600 C606 0.930 . S
H601 C610 0.930 . S
H602 C615 0.929 . S
H603 C613 0.929 . S
H604 C608 0.929 . S
H605 C614 0.929 . S
C606 H600 0.930 . S
C606 C607 1.367 . S
C606 C614 1.378 . S
C607 C606 1.367 . S
C607 C615 1.433 . S
C608 H604 0.929 . S
C608 C610 1.378 . S
C608 C612 1.350 . S
C609 C612 1.463 . S
C609 C614 1.350 . S
C609 N617 1.427 . S
C610 H601 0.930 . S
C610 C608 1.378 . S
C610 C611 1.367 . S
C611 C610 1.367 . S
C611 C613 1.433 . S
C612 C608 1.350 . S
C612 C609 1.463 . S
C612 N616 1.427 . S
C613 H603 0.929 . S
C613 C611 1.433 . S
C613 N616 1.384 . S
C614 H605 0.929 . S
C614 C606 1.378 . S
C614 C609 1.350 . S
C615 H602 0.929 . S
C615 C607 1.433 . S
C615 N617 1.384 . S
N616 C612 1.427 . S
N616 C613 1.384 . S
N617 C609 1.427 . S
N617 C615 1.384 . S
H618 C624 0.930 . S
H619 C628 0.930 . S
H620 C633 0.929 . S
H621 C631 0.929 . S
H622 C626 0.929 . S
H623 C632 0.929 1_565 S
C624 H618 0.930 . S
C624 C625 1.367 1_565 S
C624 C632 1.378 1_565 S
C625 C624 1.367 1_545 S
C625 C633 1.433 . S
C626 H622 0.929 . S
C626 C628 1.378 . S
C626 C630 1.350 . S
C627 C630 1.463 . S
C627 C632 1.350 . S
C627 N635 1.427 . S
C628 H619 0.930 . S
C628 C626 1.378 . S
C628 C629 1.367 . S
C629 C628 1.367 . S
C629 C631 1.433 . S
C630 C626 1.350 . S
C630 C627 1.463 . S
C630 N634 1.427 . S
C631 H621 0.929 . S
C631 C629 1.433 . S
C631 N634 1.384 . S
C632 H623 0.929 1_545 S
C632 C624 1.378 1_545 S
C632 C627 1.350 . S
C633 H620 0.929 . S
C633 C625 1.433 . S
C633 N635 1.384 . S
N634 C630 1.427 . S
N634 C631 1.384 . S
N635 C627 1.427 . S
N635 C633 1.384 . S
H636 C642 0.930 . S
H637 C646 0.930 . S
H638 C651 0.929 . S
H639 C649 0.929 . S
H640 C644 0.929 . S
H641 C650 0.929 . S
C642 H636 0.930 . S
C642 C643 1.367 . S
C642 C650 1.378 . S
C643 C642 1.367 . S
C643 C651 1.433 . S
C644 H640 0.929 . S
C644 C646 1.378 . S
C644 C648 1.350 . S
C645 C648 1.463 . S
C645 C650 1.350 . S
C645 N653 1.427 . S
C646 H637 0.930 . S
C646 C644 1.378 . S
C646 C647 1.367 . S
C647 C646 1.367 . S
C647 C649 1.433 . S
C648 C644 1.350 . S
C648 C645 1.463 . S
C648 N652 1.427 . S
C649 H639 0.929 . S
C649 C647 1.433 . S
C649 N652 1.384 . S
C650 H641 0.929 . S
C650 C642 1.378 . S
C650 C645 1.350 . S
C651 H638 0.929 . S
C651 C643 1.433 . S
C651 N653 1.384 . S
N652 C648 1.427 . S
N652 C649 1.384 . S
N653 C645 1.427 . S
N653 C651 1.384 . S
H654 C660 0.930 . S
H655 C664 0.930 . S
H656 C669 0.929 . S
H657 C667 0.929 . S
H658 C662 0.929 . S
H659 C668 0.929 . S
C660 H654 0.930 . S
C660 C661 1.367 . S
C660 C668 1.378 . S
C661 C660 1.367 . S
C661 C669 1.433 . S
C662 H658 0.929 . S
C662 C664 1.378 . S
C662 C666 1.350 . S
C663 C666 1.463 . S
C663 C668 1.350 . S
C663 N671 1.427 . S
C664 H655 0.930 . S
C664 C662 1.378 . S
C664 C665 1.367 . S
C665 C664 1.367 . S
C665 C667 1.433 . S
C666 C662 1.350 . S
C666 C663 1.463 . S
C666 N670 1.427 . S
C667 H657 0.929 . S
C667 C665 1.433 . S
C667 N670 1.384 . S
C668 H659 0.929 . S
C668 C660 1.378 . S
C668 C663 1.350 . S
C669 H656 0.929 . S
C669 C661 1.433 . S
C669 N671 1.384 . S
N670 C666 1.427 . S
N670 C667 1.384 . S
N671 C663 1.427 . S
N671 C669 1.384 . S
H672 C678 0.930 . S
H673 C682 0.930 . S
H674 C687 0.929 . S
H675 C685 0.929 . S
H676 C680 0.929 . S
H677 C686 0.929 . S
C678 H672 0.930 . S
C678 C679 1.367 . S
C678 C686 1.378 . S
C679 C678 1.367 . S
C679 C687 1.433 . S
C680 H676 0.929 . S
C680 C682 1.378 . S
C680 C684 1.350 . S
C681 C684 1.463 . S
C681 C686 1.350 . S
C681 N689 1.427 . S
C682 H673 0.930 . S
C682 C680 1.378 . S
C682 C683 1.367 . S
C683 C682 1.367 . S
C683 C685 1.433 . S
C684 C680 1.350 . S
C684 C681 1.463 . S
C684 N688 1.427 . S
C685 H675 0.929 . S
C685 C683 1.433 . S
C685 N688 1.384 . S
C686 H677 0.929 . S
C686 C678 1.378 . S
C686 C681 1.350 . S
C687 H674 0.929 . S
C687 C679 1.433 . S
C687 N689 1.384 . S
N688 C684 1.427 . S
N688 C685 1.384 . S
N689 C681 1.427 . S
N689 C687 1.384 . S
H690 C696 0.930 . S
H691 C700 0.930 . S
H692 C705 0.929 . S
H693 C703 0.929 . S
H694 C698 0.929 . S
H695 C704 0.929 . S
C696 H690 0.930 . S
C696 C697 1.367 . S
C696 C704 1.378 . S
C697 C696 1.367 . S
C697 C705 1.433 . S
C698 H694 0.929 . S
C698 C700 1.378 . S
C698 C702 1.350 . S
C699 C702 1.463 . S
C699 C704 1.350 . S
C699 N707 1.427 . S
C700 H691 0.930 . S
C700 C698 1.378 . S
C700 C701 1.367 . S
C701 C700 1.367 . S
C701 C703 1.433 . S
C702 C698 1.350 . S
C702 C699 1.463 . S
C702 N706 1.427 . S
C703 H693 0.929 . S
C703 C701 1.433 . S
C703 N706 1.384 . S
C704 H695 0.929 . S
C704 C696 1.378 . S
C704 C699 1.350 . S
C705 H692 0.929 . S
C705 C697 1.433 . S
C705 N707 1.384 . S
N706 C702 1.427 . S
N706 C703 1.384 . S
N707 C699 1.427 . S
N707 C705 1.384 . S
H708 C714 0.930 1_655 S
H709 C718 0.930 . S
H710 C723 0.929 . S
H711 C721 0.929 . S
H712 C716 0.929 . S
H713 C722 0.929 . S
C714 H708 0.930 1_455 S
C714 C715 1.367 . S
C714 C722 1.378 . S
C715 C714 1.367 . S
C715 C723 1.433 . S
C716 H712 0.929 . S
C716 C718 1.378 . S
C716 C720 1.350 . S
C717 C720 1.463 . S
C717 C722 1.350 . S
C717 N725 1.427 . S
C718 H709 0.930 . S
C718 C716 1.378 . S
C718 C719 1.367 . S
C719 C718 1.367 . S
C719 C721 1.433 . S
C720 C716 1.350 . S
C720 C717 1.463 . S
C720 N724 1.427 . S
C721 H711 0.929 . S
C721 C719 1.433 . S
C721 N724 1.384 . S
C722 H713 0.929 . S
C722 C714 1.378 . S
C722 C717 1.350 . S
C723 H710 0.929 . S
C723 C715 1.433 . S
C723 N725 1.384 . S
N724 C720 1.427 . S
N724 C721 1.384 . S
N725 C717 1.427 . S
N725 C723 1.384 . S
H726 C732 0.926 1_565 S
H727 C736 0.930 . S
H728 C741 0.929 . S
H729 C739 0.929 . S
H730 C734 0.929 . S
H731 C740 0.929 . S
C732 H726 0.926 1_545 S
C732 C733 1.369 . S
C732 C740 1.380 . S
C733 C732 1.369 . S
C733 C741 1.433 . S
C734 H730 0.929 . S
C734 C736 1.378 . S
C734 C738 1.350 . S
C735 C738 1.463 . S
C735 C740 1.350 . S
C735 N743 1.427 . S
C736 H727 0.930 . S
C736 C734 1.378 . S
C736 C737 1.367 . S
C737 C736 1.367 . S
C737 C739 1.433 . S
C738 C734 1.350 . S
C738 C735 1.463 . S
C738 N742 1.427 . S
C739 H729 0.929 . S
C739 C737 1.433 . S
C739 N742 1.384 . S
C740 H731 0.929 . S
C740 C732 1.380 . S
C740 C735 1.350 . S
C741 H728 0.929 . S
C741 C733 1.433 . S
C741 N743 1.384 . S
N742 C738 1.427 . S
N742 C739 1.384 . S
N743 C735 1.427 . S
N743 C741 1.384 . S
H744 C750 0.930 . S
H745 C754 0.930 . S
H746 C759 0.929 . S
H747 C757 0.929 . S
H748 C752 0.929 . S
H749 C758 0.929 . S
C750 H744 0.930 . S
C750 C751 1.367 . S
C750 C758 1.378 . S
C751 C750 1.367 . S
C751 C759 1.433 . S
C752 H748 0.929 . S
C752 C754 1.378 . S
C752 C756 1.350 . S
C753 C756 1.463 . S
C753 C758 1.350 . S
C753 N761 1.427 . S
C754 H745 0.930 . S
C754 C752 1.378 . S
C754 C755 1.367 . S
C755 C754 1.367 . S
C755 C757 1.433 . S
C756 C752 1.350 . S
C756 C753 1.463 . S
C756 N760 1.427 . S
C757 H747 0.929 . S
C757 C755 1.433 . S
C757 N760 1.384 . S
C758 H749 0.929 . S
C758 C750 1.378 . S
C758 C753 1.350 . S
C759 H746 0.929 . S
C759 C751 1.433 . S
C759 N761 1.384 . S
N760 C756 1.427 . S
N760 C757 1.384 . S
N761 C753 1.427 . S
N761 C759 1.384 . S
H762 C768 0.930 1_545 S
H763 C772 0.930 . S
H764 C777 0.929 . S
H765 C775 0.929 . S
H766 C770 0.929 . S
H767 C776 0.929 . S
C768 H762 0.930 1_565 S
C768 C769 1.367 . S
C768 C776 1.378 . S
C769 C768 1.367 . S
C769 C777 1.433 . S
C770 H766 0.929 . S
C770 C772 1.378 . S
C770 C774 1.350 . S
C771 C774 1.463 . S
C771 C776 1.350 . S
C771 N779 1.427 . S
C772 H763 0.930 . S
C772 C770 1.378 . S
C772 C773 1.367 . S
C773 C772 1.367 . S
C773 C775 1.433 . S
C774 C770 1.350 . S
C774 C771 1.463 . S
C774 N778 1.427 . S
C775 H765 0.929 . S
C775 C773 1.433 . S
C775 N778 1.384 . S
C776 H767 0.929 . S
C776 C768 1.378 . S
C776 C771 1.350 . S
C777 H764 0.929 . S
C777 C769 1.433 . S
C777 N779 1.384 . S
N778 C774 1.427 . S
N778 C775 1.384 . S
N779 C771 1.427 . S
N779 C777 1.384 . S
H780 C786 0.930 . S
H781 C790 0.930 . S
H782 C795 0.929 . S
H783 C793 0.929 . S
H784 C788 0.929 . S
H785 C794 0.929 . S
C786 H780 0.930 . S
C786 C787 1.367 . S
C786 C794 1.378 . S
C787 C786 1.367 . S
C787 C795 1.433 . S
C788 H784 0.929 . S
C788 C790 1.378 . S
C788 C792 1.350 . S
C789 C792 1.463 . S
C789 C794 1.350 . S
C789 N797 1.427 . S
C790 H781 0.930 . S
C790 C788 1.378 . S
C790 C791 1.367 . S
C791 C790 1.367 . S
C791 C793 1.433 . S
C792 C788 1.350 . S
C792 C789 1.463 . S
C792 N796 1.427 . S
C793 H783 0.929 . S
C793 C791 1.433 . S
C793 N796 1.384 . S
C794 H785 0.929 . S
C794 C786 1.378 . S
C794 C789 1.350 . S
C795 H782 0.929 . S
C795 C787 1.433 . S
C795 N797 1.384 . S
N796 C792 1.427 . S
N796 C793 1.384 . S
N797 C789 1.427 . S
N797 C795 1.384 . S
H798 C804 0.930 . S
H799 C808 0.930 . S
H800 C813 0.929 . S
H801 C811 0.929 . S
H802 C806 0.929 . S
H803 C812 0.929 . S
C804 H798 0.930 . S
C804 C805 1.367 . S
C804 C812 1.378 . S
C805 C804 1.367 . S
C805 C813 1.433 . S
C806 H802 0.929 . S
C806 C808 1.378 . S
C806 C810 1.350 . S
C807 C810 1.463 . S
C807 C812 1.350 . S
C807 N815 1.427 . S
C808 H799 0.930 . S
C808 C806 1.378 . S
C808 C809 1.367 . S
C809 C808 1.367 . S
C809 C811 1.433 . S
C810 C806 1.350 . S
C810 C807 1.463 . S
C810 N814 1.427 . S
C811 H801 0.929 . S
C811 C809 1.433 . S
C811 N814 1.384 . S
C812 H803 0.929 . S
C812 C804 1.378 . S
C812 C807 1.350 . S
C813 H800 0.929 . S
C813 C805 1.433 . S
C813 N815 1.384 . S
N814 C810 1.427 . S
N814 C811 1.384 . S
N815 C807 1.427 . S
N815 C813 1.384 . S
H816 C822 0.930 . S
H817 C826 0.930 . S
H818 C831 0.929 . S
H819 C829 0.929 . S
H820 C824 0.929 . S
H821 C830 0.929 . S
C822 H816 0.930 . S
C822 C823 1.367 . S
C822 C830 1.378 . S
C823 C822 1.367 . S
C823 C831 1.433 . S
C824 H820 0.929 . S
C824 C826 1.378 . S
C824 C828 1.350 . S
C825 C828 1.463 . S
C825 C830 1.350 . S
C825 N833 1.427 . S
C826 H817 0.930 . S
C826 C824 1.378 . S
C826 C827 1.367 . S
C827 C826 1.367 . S
C827 C829 1.433 . S
C828 C824 1.350 . S
C828 C825 1.463 . S
C828 N832 1.427 . S
C829 H819 0.929 . S
C829 C827 1.433 . S
C829 N832 1.384 . S
C830 H821 0.929 . S
C830 C822 1.378 . S
C830 C825 1.350 . S
C831 H818 0.929 . S
C831 C823 1.433 . S
C831 N833 1.384 . S
N832 C828 1.427 . S
N832 C829 1.384 . S
N833 C825 1.427 . S
N833 C831 1.384 . S
H834 C840 0.930 . S
H835 C844 0.930 . S
H836 C849 0.929 . S
H837 C847 0.929 . S
H838 C842 0.929 . S
H839 C848 0.929 . S
C840 H834 0.930 . S
C840 C841 1.367 . S
C840 C848 1.378 . S
C841 C840 1.367 . S
C841 C849 1.433 . S
C842 H838 0.929 . S
C842 C844 1.378 . S
C842 C846 1.350 . S
C843 C846 1.463 . S
C843 C848 1.350 . S
C843 N851 1.427 . S
C844 H835 0.930 . S
C844 C842 1.378 . S
C844 C845 1.367 . S
C845 C844 1.367 . S
C845 C847 1.433 . S
C846 C842 1.350 . S
C846 C843 1.463 . S
C846 N850 1.427 . S
C847 H837 0.929 . S
C847 C845 1.433 . S
C847 N850 1.384 . S
C848 H839 0.929 . S
C848 C840 1.378 . S
C848 C843 1.350 . S
C849 H836 0.929 . S
C849 C841 1.433 . S
C849 N851 1.384 . S
N850 C846 1.427 . S
N850 C847 1.384 . S
N851 C843 1.427 . S
N851 C849 1.384 . S
H852 C858 0.930 . S
H853 C862 0.930 . S
H854 C867 0.929 . S
H855 C865 0.929 . S
H856 C860 0.929 . S
H857 C866 0.929 . S
C858 H852 0.930 . S
C858 C859 1.367 . S
C858 C866 1.378 . S
C859 C858 1.367 . S
C859 C867 1.433 . S
C860 H856 0.929 . S
C860 C862 1.378 . S
C860 C864 1.350 . S
C861 C864 1.463 . S
C861 C866 1.350 . S
C861 N869 1.427 . S
C862 H853 0.930 . S
C862 C860 1.378 . S
C862 C863 1.367 . S
C863 C862 1.367 . S
C863 C865 1.433 . S
C864 C860 1.350 . S
C864 C861 1.463 . S
C864 N868 1.427 . S
C865 H855 0.929 . S
C865 C863 1.433 . S
C865 N868 1.384 . S
C866 H857 0.929 . S
C866 C858 1.378 . S
C866 C861 1.350 . S
C867 H854 0.929 . S
C867 C859 1.433 . S
C867 N869 1.384 . S
N868 C864 1.427 . S
N868 C865 1.384 . S
N869 C861 1.427 . S
N869 C867 1.384 . S
H870 C876 0.930 . S
H871 C880 0.930 . S
H872 C885 0.929 . S
H873 C883 0.929 . S
H874 C878 0.929 . S
H875 C884 0.929 . S
C876 H870 0.930 . S
C876 C877 1.367 . S
C876 C884 1.378 . S
C877 C876 1.367 . S
C877 C885 1.433 . S
C878 H874 0.929 . S
C878 C880 1.378 . S
C878 C882 1.350 . S
C879 C882 1.463 . S
C879 C884 1.350 . S
C879 N887 1.427 . S
C880 H871 0.930 . S
C880 C878 1.378 . S
C880 C881 1.367 . S
C881 C880 1.367 . S
C881 C883 1.433 . S
C882 C878 1.350 . S
C882 C879 1.463 . S
C882 N886 1.427 . S
C883 H873 0.929 . S
C883 C881 1.433 . S
C883 N886 1.384 . S
C884 H875 0.929 . S
C884 C876 1.378 . S
C884 C879 1.350 . S
C885 H872 0.929 . S
C885 C877 1.433 . S
C885 N887 1.384 . S
N886 C882 1.427 . S
N886 C883 1.384 . S
N887 C879 1.427 . S
N887 C885 1.384 . S
H888 C894 0.930 . S
H889 C898 0.930 . S
H890 C903 0.929 . S
H891 C901 0.929 . S
H892 C896 0.929 . S
H893 C902 0.929 . S
C894 H888 0.930 . S
C894 C895 1.367 . S
C894 C902 1.378 . S
C895 C894 1.367 . S
C895 C903 1.433 . S
C896 H892 0.929 . S
C896 C898 1.378 . S
C896 C900 1.350 . S
C897 C900 1.463 . S
C897 C902 1.350 . S
C897 N905 1.427 . S
C898 H889 0.930 . S
C898 C896 1.378 . S
C898 C899 1.367 . S
C899 C898 1.367 . S
C899 C901 1.433 . S
C900 C896 1.350 . S
C900 C897 1.463 . S
C900 N904 1.427 . S
C901 H891 0.929 . S
C901 C899 1.433 . S
C901 N904 1.384 . S
C902 H893 0.929 . S
C902 C894 1.378 . S
C902 C897 1.350 . S
C903 H890 0.929 . S
C903 C895 1.433 . S
C903 N905 1.384 . S
N904 C900 1.427 . S
N904 C901 1.384 . S
N905 C897 1.427 . S
N905 C903 1.384 . S
H906 C912 0.930 . S
H907 C916 0.930 . S
H908 C921 0.929 . S
H909 C919 0.929 . S
H910 C914 0.929 . S
H911 C920 0.929 . S
C912 H906 0.930 . S
C912 C913 1.367 . S
C912 C920 1.378 . S
C913 C912 1.367 . S
C913 C921 1.433 . S
C914 H910 0.929 . S
C914 C916 1.378 . S
C914 C918 1.350 . S
C915 C918 1.463 . S
C915 C920 1.350 . S
C915 N923 1.427 . S
C916 H907 0.930 . S
C916 C914 1.378 . S
C916 C917 1.367 . S
C917 C916 1.367 . S
C917 C919 1.433 . S
C918 C914 1.350 . S
C918 C915 1.463 . S
C918 N922 1.427 . S
C919 H909 0.929 . S
C919 C917 1.433 . S
C919 N922 1.384 . S
C920 H911 0.929 . S
C920 C912 1.378 . S
C920 C915 1.350 . S
C921 H908 0.929 . S
C921 C913 1.433 . S
C921 N923 1.384 . S
N922 C918 1.427 . S
N922 C919 1.384 . S
N923 C915 1.427 . S
N923 C921 1.384 . S
H924 C930 0.930 . S
H925 C934 0.930 . S
H926 C939 0.929 . S
H927 C937 0.929 . S
H928 C932 0.929 . S
H929 C938 0.929 . S
C930 H924 0.930 . S
C930 C931 1.367 . S
C930 C938 1.378 . S
C931 C930 1.367 . S
C931 C939 1.433 . S
C932 H928 0.929 . S
C932 C934 1.378 . S
C932 C936 1.350 . S
C933 C936 1.463 . S
C933 C938 1.350 . S
C933 N941 1.427 . S
C934 H925 0.930 . S
C934 C932 1.378 . S
C934 C935 1.367 . S
C935 C934 1.367 . S
C935 C937 1.433 . S
C936 C932 1.350 . S
C936 C933 1.463 . S
C936 N940 1.427 . S
C937 H927 0.929 . S
C937 C935 1.433 . S
C937 N940 1.384 . S
C938 H929 0.929 . S
C938 C930 1.378 . S
C938 C933 1.350 . S
C939 H926 0.929 . S
C939 C931 1.433 . S
C939 N941 1.384 . S
N940 C936 1.427 . S
N940 C937 1.384 . S
N941 C933 1.427 . S
N941 C939 1.384 . S
H942 C948 0.930 . S
H943 C952 0.930 . S
H944 C957 0.929 . S
H945 C955 0.929 . S
H946 C950 0.929 . S
H947 C956 0.929 . S
C948 H942 0.930 . S
C948 C949 1.367 . S
C948 C956 1.378 . S
C949 C948 1.367 . S
C949 C957 1.433 . S
C950 H946 0.929 . S
C950 C952 1.378 . S
C950 C954 1.350 . S
C951 C954 1.463 . S
C951 C956 1.350 . S
C951 N959 1.427 . S
C952 H943 0.930 . S
C952 C950 1.378 . S
C952 C953 1.367 . S
C953 C952 1.367 . S
C953 C955 1.433 . S
C954 C950 1.350 . S
C954 C951 1.463 . S
C954 N958 1.427 . S
C955 H945 0.929 . S
C955 C953 1.433 . S
C955 N958 1.384 . S
C956 H947 0.929 . S
C956 C948 1.378 . S
C956 C951 1.350 . S
C957 H944 0.929 . S
C957 C949 1.433 . S
C957 N959 1.384 . S
N958 C954 1.427 . S
N958 C955 1.384 . S
N959 C951 1.427 . S
N959 C957 1.384 . S
H960 C966 0.930 . S
H961 C970 0.930 . S
H962 C975 0.929 . S
H963 C973 0.929 . S
H964 C968 0.929 . S
H965 C974 0.929 . S
C966 H960 0.930 . S
C966 C967 1.367 1_565 S
C966 C974 1.378 . S
C967 C966 1.367 1_545 S
C967 C975 1.433 . S
C968 H964 0.929 . S
C968 C970 1.378 . S
C968 C972 1.350 1_545 S
C969 C972 1.463 1_544 S
C969 C974 1.350 1_545 S
C969 N977 1.421 1_554 S
C970 H961 0.930 . S
C970 C968 1.378 . S
C970 C971 1.367 1_545 S
C971 C970 1.367 1_565 S
C971 C973 1.433 . S
C972 C968 1.350 1_565 S
C972 C969 1.463 1_566 S
C972 N976 1.421 1_556 S
C973 H963 0.929 . S
C973 C971 1.433 . S
C973 N976 1.373 1_556 S
C974 H965 0.929 . S
C974 C966 1.378 . S
C974 C969 1.350 1_565 S
C975 H962 0.929 . S
C975 C967 1.433 . S
C975 N977 1.373 1_554 S
N976 C972 1.421 1_554 S
N976 C973 1.373 1_554 S
N977 C969 1.421 1_556 S
N977 C975 1.373 1_556 S
H978 C984 0.930 . S
H979 C988 0.930 . S
H980 C993 0.929 . S
H981 C991 0.929 . S
H982 C986 0.958 . S
H983 C992 0.958 . S
C984 H978 0.930 . S
C984 C985 1.367 . S
C984 C992 1.359 1_554 S
C985 C984 1.367 . S
C985 C993 1.433 . S
C986 H982 0.958 . S
C986 C988 1.359 1_554 S
C986 C990 1.340 1_554 S
C987 C990 1.463 1_554 S
C987 C992 1.340 1_554 S
C987 N995 1.427 . S
C988 H979 0.930 . S
C988 C986 1.359 1_556 S
C988 C989 1.367 . S
C989 C988 1.367 . S
C989 C991 1.433 . S
C990 C986 1.340 1_556 S
C990 C987 1.463 1_556 S
C990 N994 1.427 . S
C991 H981 0.929 . S
C991 C989 1.433 . S
C991 N994 1.384 . S
C992 H983 0.958 . S
C992 C984 1.359 1_556 S
C992 C987 1.340 1_556 S
C993 H980 0.929 . S
C993 C985 1.433 . S
C993 N995 1.384 . S
N994 C990 1.427 . S
N994 C991 1.384 . S
N995 C987 1.427 . S
N995 C993 1.384 . S
H996 C1002 0.930 . S
H997 C1006 0.930 . S
H998 C1011 0.929 . S
H999 C1009 0.929 . S
H1000 C1004 0.929 . S
H1001 C1010 0.929 . S
C1002 H996 0.930 . S
C1002 C1003 1.367 . S
C1002 C1010 1.378 . S
C1003 C1002 1.367 . S
C1003 C1011 1.433 . S
C1004 H1000 0.929 . S
C1004 C1006 1.378 . S
C1004 C1008 1.350 . S
C1005 C1008 1.463 1_654 S
C1005 C1010 1.350 . S
C1005 N1013 1.427 . S
C1006 H997 0.930 . S
C1006 C1004 1.378 . S
C1006 C1007 1.367 . S
C1007 C1006 1.367 . S
C1007 C1009 1.433 . S
C1008 C1004 1.350 . S
C1008 C1005 1.463 1_456 S
C1008 N1012 1.427 . S
C1009 H999 0.929 . S
C1009 C1007 1.433 . S
C1009 N1012 1.384 . S
C1010 H1001 0.929 . S
C1010 C1002 1.378 . S
C1010 C1005 1.350 . S
C1011 H998 0.929 . S
C1011 C1003 1.433 . S
C1011 N1013 1.384 . S
N1012 C1008 1.427 . S
N1012 C1009 1.384 . S
N1013 C1005 1.427 . S
N1013 C1011 1.384 . S
H1014 C1020 0.930 . S
H1015 C1024 0.930 . S
H1016 C1029 0.929 . S
H1017 C1027 0.929 . S
H1018 C1022 0.929 . S
H1019 C1028 0.929 . S
C1020 H1014 0.930 . S
C1020 C1021 1.367 1_455 S
C1020 C1028 1.378 . S
C1021 C1020 1.367 1_655 S
C1021 C1029 1.433 . S
C1022 H1018 0.929 . S
C1022 C1024 1.378 . S
C1022 C1026 1.350 1_655 S
C1023 C1026 1.463 1_646 S
C1023 C1028 1.350 1_655 S
C1023 N1031 1.427 1_556 S
C1024 H1015 0.930 . S
C1024 C1022 1.378 . S
C1024 C1025 1.367 1_655 S
C1025 C1024 1.367 1_455 S
C1025 C1027 1.433 . S
C1026 C1022 1.350 1_455 S
C1026 C1023 1.463 1_464 S
C1026 N1030 1.427 1_554 S
C1027 H1017 0.929 . S
C1027 C1025 1.433 . S
C1027 N1030 1.384 1_554 S
C1028 H1019 0.929 . S
C1028 C1020 1.378 . S
C1028 C1023 1.350 1_455 S
C1029 H1016 0.929 . S
C1029 C1021 1.433 . S
C1029 N1031 1.384 1_556 S
N1030 C1026 1.427 1_556 S
N1030 C1027 1.384 1_556 S
N1031 C1023 1.427 1_554 S
N1031 C1029 1.384 1_554 S
H1032 C1038 0.930 . S
H1033 C1042 0.930 . S
H1034 C1047 0.929 . S
H1035 C1045 0.929 . S
H1036 C1040 0.915 1_655 S
H1037 C1046 0.915 1_455 S
C1038 H1032 0.930 . S
C1038 C1039 1.367 . S
C1038 C1046 1.378 . S
C1039 C1038 1.367 . S
C1039 C1047 1.433 1_545 S
C1040 H1036 0.915 1_455 S
C1040 C1042 1.378 . S
C1040 C1044 1.350 . S
C1041 C1044 1.463 1_645 S
C1041 C1046 1.350 . S
C1041 N1049 1.427 1_545 S
C1042 H1033 0.930 . S
C1042 C1040 1.378 . S
C1042 C1043 1.367 . S
C1043 C1042 1.367 . S
C1043 C1045 1.433 1_565 S
C1044 C1040 1.350 . S
C1044 C1041 1.463 1_465 S
C1044 N1048 1.427 1_565 S
C1045 H1035 0.929 . S
C1045 C1043 1.433 1_545 S
C1045 N1048 1.384 . S
C1046 H1037 0.915 1_655 S
C1046 C1038 1.378 . S
C1046 C1041 1.350 . S
C1047 H1034 0.929 . S
C1047 C1039 1.433 1_565 S
C1047 N1049 1.384 . S
N1048 C1044 1.427 1_545 S
N1048 C1045 1.384 . S
N1049 C1041 1.427 1_565 S
N1049 C1047 1.384 . S
H1050 C1056 0.930 . S
H1051 C1060 0.930 . S
H1052 C1065 0.929 . S
H1053 C1063 0.929 . S
H1054 C1058 0.929 1_545 S
H1055 C1064 0.929 1_565 S
C1056 H1050 0.930 . S
C1056 C1057 1.367 . S
C1056 C1064 1.378 . S
C1057 C1056 1.367 . S
C1057 C1065 1.433 . S
C1058 H1054 0.929 1_565 S
C1058 C1060 1.378 . S
C1058 C1062 1.350 . S
C1059 C1062 1.463 1_545 S
C1059 C1064 1.350 . S
C1059 N1067 1.427 . S
C1060 H1051 0.930 . S
C1060 C1058 1.378 . S
C1060 C1061 1.367 . S
C1061 C1060 1.367 . S
C1061 C1063 1.433 . S
C1062 C1058 1.350 . S
C1062 C1059 1.463 1_565 S
C1062 N1066 1.427 . S
C1063 H1053 0.929 . S
C1063 C1061 1.433 . S
C1063 N1066 1.384 . S
C1064 H1055 0.929 1_545 S
C1064 C1056 1.378 . S
C1064 C1059 1.350 . S
C1065 H1052 0.929 . S
C1065 C1057 1.433 . S
C1065 N1067 1.384 . S
N1066 C1062 1.427 . S
N1066 C1063 1.384 . S
N1067 C1059 1.427 . S
N1067 C1065 1.384 . S
H1068 C1074 0.930 . S
H1069 C1078 0.930 . S
H1070 C1083 0.929 . S
H1071 C1081 0.929 . S
H1072 C1076 0.929 . S
H1073 C1082 0.929 . S
C1074 H1068 0.930 . S
C1074 C1075 1.367 . S
C1074 C1082 1.378 . S
C1075 C1074 1.367 . S
C1075 C1083 1.433 . S
C1076 H1072 0.929 . S
C1076 C1078 1.378 . S
C1076 C1080 1.350 . S
C1077 C1080 1.463 . S
C1077 C1082 1.350 . S
C1077 N1085 1.427 . S
C1078 H1069 0.930 . S
C1078 C1076 1.378 . S
C1078 C1079 1.367 . S
C1079 C1078 1.367 . S
C1079 C1081 1.433 . S
C1080 C1076 1.350 . S
C1080 C1077 1.463 . S
C1080 N1084 1.427 . S
C1081 H1071 0.929 . S
C1081 C1079 1.433 . S
C1081 N1084 1.384 . S
C1082 H1073 0.929 . S
C1082 C1074 1.378 . S
C1082 C1077 1.350 . S
C1083 H1070 0.929 . S
C1083 C1075 1.433 . S
C1083 N1085 1.384 . S
N1084 C1080 1.427 . S
N1084 C1081 1.384 . S
N1085 C1077 1.427 . S
N1085 C1083 1.384 . S
H1086 C1092 0.930 . S
H1087 C1096 0.930 . S
H1088 C1101 0.929 . S
H1089 C1099 0.929 . S
H1090 C1094 0.929 . S
H1091 C1100 0.929 . S
C1092 H1086 0.930 . S
C1092 C1093 1.367 . S
C1092 C1100 1.378 . S
C1093 C1092 1.367 . S
C1093 C1101 1.433 1_455 S
C1094 H1090 0.929 . S
C1094 C1096 1.378 . S
C1094 C1098 1.350 . S
C1095 C1098 1.463 1_455 S
C1095 C1100 1.350 . S
C1095 N1103 1.427 1_455 S
C1096 H1087 0.930 . S
C1096 C1094 1.378 . S
C1096 C1097 1.367 . S
C1097 C1096 1.367 . S
C1097 C1099 1.433 1_655 S
C1098 C1094 1.350 . S
C1098 C1095 1.463 1_655 S
C1098 N1102 1.427 1_655 S
C1099 H1089 0.929 . S
C1099 C1097 1.433 1_455 S
C1099 N1102 1.384 . S
C1100 H1091 0.929 . S
C1100 C1092 1.378 . S
C1100 C1095 1.350 . S
C1101 H1088 0.929 . S
C1101 C1093 1.433 1_655 S
C1101 N1103 1.384 . S
N1102 C1098 1.427 1_455 S
N1102 C1099 1.384 . S
N1103 C1095 1.427 1_655 S
N1103 C1101 1.384 . S
H1104 C1110 0.930 . S
H1105 C1114 0.930 . S
H1106 C1119 0.929 . S
H1107 C1117 0.929 . S
H1108 C1112 0.929 . S
H1109 C1118 0.929 . S
C1110 H1104 0.930 . S
C1110 C1111 1.367 . S
C1110 C1118 1.378 . S
C1111 C1110 1.367 . S
C1111 C1119 1.433 . S
C1112 H1108 0.929 . S
C1112 C1114 1.378 . S
C1112 C1116 1.350 . S
C1113 C1116 1.463 . S
C1113 C1118 1.350 . S
C1113 N1121 1.427 . S
C1114 H1105 0.930 . S
C1114 C1112 1.378 . S
C1114 C1115 1.367 . S
C1115 C1114 1.367 . S
C1115 C1117 1.433 . S
C1116 C1112 1.350 . S
C1116 C1113 1.463 . S
C1116 N1120 1.427 . S
C1117 H1107 0.929 . S
C1117 C1115 1.433 . S
C1117 N1120 1.384 . S
C1118 H1109 0.929 . S
C1118 C1110 1.378 . S
C1118 C1113 1.350 . S
C1119 H1106 0.929 . S
C1119 C1111 1.433 . S
C1119 N1121 1.384 . S
N1120 C1116 1.427 . S
N1120 C1117 1.384 . S
N1121 C1113 1.427 . S
N1121 C1119 1.384 . S
H1122 C1128 0.930 . S
H1123 C1132 0.930 . S
H1124 C1137 0.929 . S
H1125 C1135 0.929 . S
H1126 C1130 0.929 . S
H1127 C1136 0.929 . S
C1128 H1122 0.930 . S
C1128 C1129 1.367 . S
C1128 C1136 1.378 . S
C1129 C1128 1.367 . S
C1129 C1137 1.433 . S
C1130 H1126 0.929 . S
C1130 C1132 1.378 . S
C1130 C1134 1.350 . S
C1131 C1134 1.463 . S
C1131 C1136 1.350 . S
C1131 N1139 1.427 . S
C1132 H1123 0.930 . S
C1132 C1130 1.378 . S
C1132 C1133 1.367 . S
C1133 C1132 1.367 . S
C1133 C1135 1.433 . S
C1134 C1130 1.350 . S
C1134 C1131 1.463 . S
C1134 N1138 1.427 . S
C1135 H1125 0.929 . S
C1135 C1133 1.433 . S
C1135 N1138 1.384 . S
C1136 H1127 0.929 . S
C1136 C1128 1.378 . S
C1136 C1131 1.350 . S
C1137 H1124 0.929 . S
C1137 C1129 1.433 . S
C1137 N1139 1.384 . S
N1138 C1134 1.427 . S
N1138 C1135 1.384 . S
N1139 C1131 1.427 . S
N1139 C1137 1.384 . S
H1140 C1146 0.930 . S
H1141 C1150 0.930 . S
H1142 C1155 0.929 . S
H1143 C1153 0.929 . S
H1144 C1148 0.929 . S
H1145 C1154 0.929 . S
C1146 H1140 0.930 . S
C1146 C1147 1.367 . S
C1146 C1154 1.378 . S
C1147 C1146 1.367 . S
C1147 C1155 1.433 . S
C1148 H1144 0.929 . S
C1148 C1150 1.378 . S
C1148 C1152 1.350 . S
C1149 C1152 1.463 . S
C1149 C1154 1.350 . S
C1149 N1157 1.427 . S
C1150 H1141 0.930 . S
C1150 C1148 1.378 . S
C1150 C1151 1.367 . S
C1151 C1150 1.367 . S
C1151 C1153 1.433 . S
C1152 C1148 1.350 . S
C1152 C1149 1.463 . S
C1152 N1156 1.427 . S
C1153 H1143 0.929 . S
C1153 C1151 1.433 . S
C1153 N1156 1.384 . S
C1154 H1145 0.929 . S
C1154 C1146 1.378 . S
C1154 C1149 1.350 . S
C1155 H1142 0.929 . S
C1155 C1147 1.433 . S
C1155 N1157 1.384 . S
N1156 C1152 1.427 . S
N1156 C1153 1.384 . S
N1157 C1149 1.427 . S
N1157 C1155 1.384 . S
H1158 C1164 0.930 . S
H1159 C1168 0.930 . S
H1160 C1173 0.929 . S
H1161 C1171 0.929 . S
H1162 C1166 0.929 . S
H1163 C1172 0.929 . S
C1164 H1158 0.930 . S
C1164 C1165 1.367 . S
C1164 C1172 1.378 . S
C1165 C1164 1.367 . S
C1165 C1173 1.433 . S
C1166 H1162 0.929 . S
C1166 C1168 1.378 . S
C1166 C1170 1.350 . S
C1167 C1170 1.463 . S
C1167 C1172 1.350 . S
C1167 N1175 1.427 . S
C1168 H1159 0.930 . S
C1168 C1166 1.378 . S
C1168 C1169 1.367 . S
C1169 C1168 1.367 . S
C1169 C1171 1.433 . S
C1170 C1166 1.350 . S
C1170 C1167 1.463 . S
C1170 N1174 1.427 . S
C1171 H1161 0.929 . S
C1171 C1169 1.433 . S
C1171 N1174 1.384 . S
C1172 H1163 0.929 . S
C1172 C1164 1.378 . S
C1172 C1167 1.350 . S
C1173 H1160 0.929 . S
C1173 C1165 1.433 . S
C1173 N1175 1.384 . S
N1174 C1170 1.427 . S
N1174 C1171 1.384 . S
N1175 C1167 1.427 . S
N1175 C1173 1.384 . S
H1176 C1182 0.930 . S
H1177 C1186 0.930 . S
H1178 C1191 0.929 . S
H1179 C1189 0.929 . S
H1180 C1184 0.929 . S
H1181 C1190 0.929 . S
C1182 H1176 0.930 . S
C1182 C1183 1.367 . S
C1182 C1190 1.378 . S
C1183 C1182 1.367 . S
C1183 C1191 1.433 . S
C1184 H1180 0.929 . S
C1184 C1186 1.378 . S
C1184 C1188 1.350 . S
C1185 C1188 1.463 . S
C1185 C1190 1.350 . S
C1185 N1193 1.427 . S
C1186 H1177 0.930 . S
C1186 C1184 1.378 . S
C1186 C1187 1.367 . S
C1187 C1186 1.367 . S
C1187 C1189 1.433 . S
C1188 C1184 1.350 . S
C1188 C1185 1.463 . S
C1188 N1192 1.427 . S
C1189 H1179 0.929 . S
C1189 C1187 1.433 . S
C1189 N1192 1.384 . S
C1190 H1181 0.929 . S
C1190 C1182 1.378 . S
C1190 C1185 1.350 . S
C1191 H1178 0.929 . S
C1191 C1183 1.433 . S
C1191 N1193 1.384 . S
N1192 C1188 1.427 . S
N1192 C1189 1.384 . S
N1193 C1185 1.427 . S
N1193 C1191 1.384 . S
H1194 C1200 0.930 . S
H1195 C1204 0.930 . S
H1196 C1209 0.929 . S
H1197 C1207 0.929 . S
H1198 C1202 0.929 . S
H1199 C1208 0.929 . S
C1200 H1194 0.930 . S
C1200 C1201 1.367 . S
C1200 C1208 1.378 . S
C1201 C1200 1.367 . S
C1201 C1209 1.433 . S
C1202 H1198 0.929 . S
C1202 C1204 1.378 . S
C1202 C1206 1.350 . S
C1203 C1206 1.463 . S
C1203 C1208 1.350 . S
C1203 N1211 1.427 . S
C1204 H1195 0.930 . S
C1204 C1202 1.378 . S
C1204 C1205 1.367 . S
C1205 C1204 1.367 . S
C1205 C1207 1.433 . S
C1206 C1202 1.350 . S
C1206 C1203 1.463 . S
C1206 N1210 1.427 . S
C1207 H1197 0.929 . S
C1207 C1205 1.433 . S
C1207 N1210 1.384 . S
C1208 H1199 0.929 . S
C1208 C1200 1.378 . S
C1208 C1203 1.350 . S
C1209 H1196 0.929 . S
C1209 C1201 1.433 . S
C1209 N1211 1.384 . S
N1210 C1206 1.427 . S
N1210 C1207 1.384 . S
N1211 C1203 1.427 . S
N1211 C1209 1.384 . S
H1212 C1218 0.930 . S
H1213 C1222 0.930 . S
H1214 C1227 0.929 . S
H1215 C1225 0.929 . S
H1216 C1220 0.929 . S
H1217 C1226 0.929 . S
C1218 H1212 0.930 . S
C1218 C1219 1.367 . S
C1218 C1226 1.378 . S
C1219 C1218 1.367 . S
C1219 C1227 1.433 . S
C1220 H1216 0.929 . S
C1220 C1222 1.378 . S
C1220 C1224 1.350 . S
C1221 C1224 1.463 . S
C1221 C1226 1.350 . S
C1221 N1229 1.427 . S
C1222 H1213 0.930 . S
C1222 C1220 1.378 . S
C1222 C1223 1.367 . S
C1223 C1222 1.367 . S
C1223 C1225 1.433 . S
C1224 C1220 1.350 . S
C1224 C1221 1.463 . S
C1224 N1228 1.427 . S
C1225 H1215 0.929 . S
C1225 C1223 1.433 . S
C1225 N1228 1.384 . S
C1226 H1217 0.929 . S
C1226 C1218 1.378 . S
C1226 C1221 1.350 . S
C1227 H1214 0.929 . S
C1227 C1219 1.433 . S
C1227 N1229 1.384 . S
N1228 C1224 1.427 . S
N1228 C1225 1.384 . S
N1229 C1221 1.427 . S
N1229 C1227 1.384 . S
H1230 C1236 0.930 . S
H1231 C1240 0.930 . S
H1232 C1245 0.929 . S
H1233 C1243 0.929 . S
H1234 C1238 0.929 . S
H1235 C1244 0.929 . S
C1236 H1230 0.930 . S
C1236 C1237 1.367 . S
C1236 C1244 1.378 . S
C1237 C1236 1.367 . S
C1237 C1245 1.433 . S
C1238 H1234 0.929 . S
C1238 C1240 1.378 . S
C1238 C1242 1.350 . S
C1239 C1242 1.463 . S
C1239 C1244 1.350 . S
C1239 N1247 1.427 . S
C1240 H1231 0.930 . S
C1240 C1238 1.378 . S
C1240 C1241 1.367 . S
C1241 C1240 1.367 . S
C1241 C1243 1.433 . S
C1242 C1238 1.350 . S
C1242 C1239 1.463 . S
C1242 N1246 1.427 . S
C1243 H1233 0.929 . S
C1243 C1241 1.433 . S
C1243 N1246 1.384 . S
C1244 H1235 0.929 . S
C1244 C1236 1.378 . S
C1244 C1239 1.350 . S
C1245 H1232 0.929 . S
C1245 C1237 1.433 . S
C1245 N1247 1.384 . S
N1246 C1242 1.427 . S
N1246 C1243 1.384 . S
N1247 C1239 1.427 . S
N1247 C1245 1.384 . S
C535 N14 0.896 . S
C539 C50 0.886 . S
C553 C83 0.899 . S
C557 N47 0.890 . S
C571 C116 0.899 . S
C575 N80 0.890 . S
C589 N113 0.896 . S
C593 C17 0.896 . S
C607 C248 0.887 . S
C611 N146 0.897 . S
C625 C149 0.890 . S
C629 N179 0.889 . S
C643 C182 0.894 . S
C647 N212 0.887 . S
C661 N245 0.895 . S
C665 C215 0.886 . S
C679 N278 0.889 . S
C683 C314 0.890 . S
C697 N311 0.889 . S
C701 C347 0.889 . S
C715 C380 0.897 . S
C719 N344 0.887 . S
C733 C281 0.888 . S
C737 N377 0.891 . S
C751 C512 0.886 . S
C755 N410 0.896 . S
C769 C413 0.897 . S
C773 N443 0.887 . S
C787 N476 0.887 . S
C791 C446 0.897 . S
C805 N509 0.896 . S
C809 C479 0.886 . S
C823 N5 1.891 . S
C827 N71 1.895 . S
C841 N38 1.891 . S
C845 N104 1.896 . S
C859 N203 1.896 . S
C863 N137 1.892 . S
C877 N236 1.891 . S
C881 N170 1.895 . S
C895 N335 1.896 . S
C899 N269 1.893 . S
C913 N302 1.896 . S
C917 N368 1.891 . S
C931 N401 1.896 . S
C935 N467 1.891 . S
C949 N434 1.896 . S
C953 N500 1.891 . S
C967 C8 1.789 . S
C971 C272 1.789 . S
C985 C41 1.795 . S
C989 C305 1.795 . S
C1003 C74 1.789 . S
C1007 C338 1.789 . S
C1021 C371 1.789 . S
C1025 C107 1.789 . S
C1039 C404 1.797 . S
C1043 C140 1.797 . S
C1057 C173 1.795 . S
C1061 C437 1.795 . S
C1075 C206 1.789 . S
C1079 C470 1.789 . S
C1093 C503 1.796 . S
C1097 C239 1.796 . S
C1111 C193 1.584 . S
C1115 C28 1.587 . S
C1129 C226 1.587 . S
C1133 C61 1.587 . S
C1147 C94 1.585 . S
C1151 C259 1.585 . S
C1165 C160 1.585 . S
C1169 C127 1.586 . S
C1183 C292 1.584 . S
C1187 C457 1.587 . S
C1201 C490 1.585 . S
C1205 C325 1.588 . S
C1219 C523 1.585 . S
C1223 C358 1.588 . S
C1237 C391 1.585 . S
C1241 C424 1.588 . S
