# Generated by pormake.
# Topology uol, (4)-cn, num edge types: 1
# Building blocks:
#     Node 0, Type 0, BuildingBlock: GALJAG_clean_sbu_0, # of connection points: 4
#     Node 1, Type 0, BuildingBlock: GALJAG_clean_sbu_0, # of connection points: 4
#     Node 2, Type 0, BuildingBlock: GALJAG_clean_sbu_0, # of connection points: 4
#     Node 3, Type 0, BuildingBlock: GALJAG_clean_sbu_0, # of connection points: 4
#     Node 4, Type 0, BuildingBlock: GALJAG_clean_sbu_0, # of connection points: 4
#     Node 5, Type 0, BuildingBlock: GALJAG_clean_sbu_0, # of connection points: 4
#     Node 6, Type 0, BuildingBlock: GALJAG_clean_sbu_0, # of connection points: 4
#     Node 7, Type 0, BuildingBlock: GALJAG_clean_sbu_0, # of connection points: 4
#     Node 8, Type 0, BuildingBlock: GALJAG_clean_sbu_0, # of connection points: 4
#     Node 9, Type 0, BuildingBlock: GALJAG_clean_sbu_0, # of connection points: 4
#     Node 10, Type 0, BuildingBlock: GALJAG_clean_sbu_0, # of connection points: 4
#     Node 11, Type 0, BuildingBlock: GALJAG_clean_sbu_0, # of connection points: 4
#     Edge 12, Type (0, 0), BuildingBlock: AJUNOK_clean_linker_0, # of connection points: 2
#     Edge 13, Type (0, 0), BuildingBlock: AJUNOK_clean_linker_0, # of connection points: 2
#     Edge 14, Type (0, 0), BuildingBlock: AJUNOK_clean_linker_0, # of connection points: 2
#     Edge 15, Type (0, 0), BuildingBlock: AJUNOK_clean_linker_0, # of connection points: 2
#     Edge 16, Type (0, 0), BuildingBlock: AJUNOK_clean_linker_0, # of connection points: 2
#     Edge 17, Type (0, 0), BuildingBlock: AJUNOK_clean_linker_0, # of connection points: 2
#     Edge 18, Type (0, 0), BuildingBlock: AJUNOK_clean_linker_0, # of connection points: 2
#     Edge 19, Type (0, 0), BuildingBlock: AJUNOK_clean_linker_0, # of connection points: 2
#     Edge 20, Type (0, 0), BuildingBlock: AJUNOK_clean_linker_0, # of connection points: 2
#     Edge 21, Type (0, 0), BuildingBlock: AJUNOK_clean_linker_0, # of connection points: 2
#     Edge 22, Type (0, 0), BuildingBlock: AJUNOK_clean_linker_0, # of connection points: 2
#     Edge 23, Type (0, 0), BuildingBlock: AJUNOK_clean_linker_0, # of connection points: 2
#     Edge 24, Type (0, 0), BuildingBlock: AJUNOK_clean_linker_0, # of connection points: 2
#     Edge 25, Type (0, 0), BuildingBlock: AJUNOK_clean_linker_0, # of connection points: 2
#     Edge 26, Type (0, 0), BuildingBlock: AJUNOK_clean_linker_0, # of connection points: 2
#     Edge 27, Type (0, 0), BuildingBlock: AJUNOK_clean_linker_0, # of connection points: 2
#     Edge 28, Type (0, 0), BuildingBlock: AJUNOK_clean_linker_0, # of connection points: 2
#     Edge 29, Type (0, 0), BuildingBlock: AJUNOK_clean_linker_0, # of connection points: 2
#     Edge 30, Type (0, 0), BuildingBlock: AJUNOK_clean_linker_0, # of connection points: 2
#     Edge 31, Type (0, 0), BuildingBlock: AJUNOK_clean_linker_0, # of connection points: 2
#     Edge 32, Type (0, 0), BuildingBlock: AJUNOK_clean_linker_0, # of connection points: 2
#     Edge 33, Type (0, 0), BuildingBlock: AJUNOK_clean_linker_0, # of connection points: 2
#     Edge 34, Type (0, 0), BuildingBlock: AJUNOK_clean_linker_0, # of connection points: 2
#     Edge 35, Type (0, 0), BuildingBlock: AJUNOK_clean_linker_0, # of connection points: 2
# Relax obj value: 0.121
# Max RMSD: 0.117
# Mean RMSD: 0.117
data_MOF--net-uol--node1-GALJAG_clean_sbu_0--edge1-AJUNOK_clean_linker_0
_symmetry_space_group_name_H-M    P1
_symmetry_Int_Tables_number       1
_symmetry_cell_setting            triclinic
loop_
_symmetry_equiv_pos_as_xyz
'x, y, z'
_cell_length_a     25.409999
_cell_length_b     25.429481
_cell_length_c     44.072107
_cell_angle_alpha  89.993757
_cell_angle_beta   89.872396
_cell_angle_gamma 120.0943
loop_
_atom_site_label
_atom_site_type_symbol
_atom_site_fract_x
_atom_site_fract_y
_atom_site_fract_z
_atom_type_partial_charge
In0 In 0.16385 0.36562 0.09275 0.0
O1 O 0.06881 0.27937 0.09435 0.0
O2 O 0.08117 0.35966 0.11562 0.0
C3 C 0.21414 0.34664 0.04278 0.0
C4 C 0.18268 0.47947 0.08896 0.0
C5 C 0.21579 0.33224 0.13636 0.0
O6 O 0.15726 0.32514 0.04489 0.0
O7 O 0.24397 0.37876 0.06498 0.0
O8 O 0.24056 0.38599 0.12643 0.0
O9 O 0.16455 0.29661 0.12505 0.0
C10 C 0.04556 0.30433 0.10996 0.0
O11 O 0.19433 0.45892 0.11253 0.0
O12 O 0.1629 0.44291 0.06683 0.0
In13 In 0.80144 0.16147 0.2525 0.0
O14 O 0.76819 0.05945 0.25836 0.0
O15 O 0.75172 0.10678 0.29371 0.0
C16 C 0.8515 0.19268 0.19651 0.0
C17 C 0.7038 0.17571 0.24812 0.0
C18 C 0.90262 0.21817 0.28692 0.0
O19 O 0.83064 0.13948 0.20691 0.0
O20 O 0.84482 0.22826 0.21389 0.0
O21 O 0.86479 0.23662 0.28563 0.0
O22 O 0.88918 0.17228 0.27079 0.0
C23 C 0.74552 0.05714 0.2843 0.0
O24 O 0.75274 0.21527 0.26042 0.0
O25 O 0.70504 0.13033 0.23728 0.0
In26 In 0.63485 0.80029 0.42505 0.0
O27 O 0.71141 0.77685 0.42678 0.0
O28 O 0.63833 0.73463 0.45837 0.0
C29 C 0.65391 0.86368 0.37316 0.0
C30 C 0.5207 0.70676 0.4189 0.0
C31 C 0.67967 0.89468 0.46389 0.0
O32 O 0.67774 0.83091 0.37759 0.0
O33 O 0.61963 0.86209 0.39431 0.0
O34 O 0.6231 0.86183 0.4594 0.0
O35 O 0.71214 0.87931 0.44903 0.0
C36 C 0.68852 0.74164 0.44932 0.0
O37 O 0.53703 0.74244 0.44136 0.0
O38 O 0.56178 0.71894 0.39935 0.0
In39 In 0.83364 0.63868 0.59246 0.0
O40 O 0.79889 0.54286 0.61142 0.0
O41 O 0.84641 0.56579 0.56938 0.0
C42 C 0.77021 0.67619 0.62609 0.0
C43 C 0.94201 0.70188 0.62051 0.0
C44 C 0.79805 0.66098 0.53863 0.0
O45 O 0.75357 0.62036 0.62365 0.0
O46 O 0.81725 0.7116 0.61112 0.0
O47 O 0.85215 0.69232 0.54805 0.0
O48 O 0.76327 0.61773 0.55593 0.0
C49 C 0.81913 0.52604 0.58958 0.0
O50 O 0.9387 0.69812 0.5919 0.0
O51 O 0.89203 0.67299 0.63426 0.0
In52 In 0.19686 0.83379 0.75952 0.0
O53 O 0.26494 0.93557 0.76279 0.0
O54 O 0.18496 0.90087 0.78947 0.0
C55 C 0.13849 0.81608 0.70578 0.0
C56 C 0.2983 0.82424 0.75811 0.0
C57 C 0.11354 0.75512 0.79952 0.0
O58 O 0.14298 0.85457 0.72512 0.0
O59 O 0.16654 0.78862 0.71276 0.0
O60 O 0.16529 0.79747 0.80754 0.0
O61 O 0.10527 0.75068 0.77122 0.0
C62 C 0.2354 0.94635 0.78237 0.0
O63 O 0.24883 0.78253 0.76896 0.0
O64 O 0.29534 0.86823 0.74697 0.0
In65 In 0.36579 0.20136 0.92053 0.0
O66 O 0.30429 0.24334 0.92706 0.0
O67 O 0.36088 0.24691 0.96342 0.0
C68 C 0.33421 0.14743 0.86579 0.0
C69 C 0.48086 0.29437 0.91435 0.0
C70 C 0.32136 0.09653 0.95208 0.0
O71 O 0.30459 0.16899 0.87864 0.0
O72 O 0.38116 0.15617 0.87983 0.0
O73 O 0.37795 0.13177 0.94869 0.0
O74 O 0.28872 0.11503 0.94004 0.0
C75 C 0.32183 0.25971 0.95404 0.0
O76 O 0.46627 0.25126 0.9329 0.0
O77 O 0.43763 0.28953 0.89815 0.0
In78 In 0.63843 0.83839 0.75081 0.0
O79 O 0.53497 0.78829 0.74508 0.0
O80 O 0.57645 0.86906 0.7716 0.0
C81 C 0.67177 0.77942 0.71108 0.0
C82 C 0.6875 0.94464 0.72034 0.0
C83 C 0.67279 0.81145 0.80404 0.0
O84 O 0.61717 0.75718 0.71959 0.0
O85 O 0.7082 0.8299 0.7228 0.0
O86 O 0.70122 0.86357 0.79212 0.0
O87 O 0.62581 0.77403 0.78981 0.0
C88 C 0.52816 0.8267 0.76021 0.0
O89 O 0.70959 0.93954 0.74514 0.0
O90 O 0.64066 0.89684 0.7116 0.0
In91 In 0.8077 0.63588 0.91279 0.0
O92 O 0.73498 0.66393 0.90691 0.0
O93 O 0.82074 0.71917 0.88648 0.0
C94 C 0.85534 0.65959 0.9692 0.0
C95 C 0.71232 0.52062 0.91226 0.0
C96 C 0.90567 0.65336 0.87991 0.0
O97 O 0.83682 0.69212 0.95666 0.0
O98 O 0.84673 0.61408 0.95381 0.0
O99 O 0.85197 0.61532 0.87202 0.0
O100 O 0.90914 0.68109 0.90408 0.0
C101 C 0.76759 0.70944 0.89047 0.0
O102 O 0.74001 0.54785 0.88833 0.0
O103 O 0.73335 0.55106 0.93624 0.0
In104 In 0.16437 0.80256 0.07579 0.0
O105 O 0.06897 0.79193 0.07379 0.0
O106 O 0.08384 0.72669 0.05121 0.0
C107 C 0.2108 0.87202 0.12602 0.0
C108 C 0.18274 0.70766 0.08252 0.0
C109 C 0.21515 0.88579 0.03096 0.0
O110 O 0.15413 0.83725 0.12269 0.0
O111 O 0.24253 0.87009 0.10454 0.0
O112 O 0.24206 0.85999 0.04218 0.0
O113 O 0.16365 0.86933 0.04222 0.0
C114 C 0.04744 0.74542 0.05699 0.0
O115 O 0.19754 0.73966 0.05869 0.0
O116 O 0.15952 0.72423 0.10314 0.0
In117 In 0.367 0.16909 0.24738 0.0
O118 O 0.46942 0.21933 0.23862 0.0
O119 O 0.43033 0.13653 0.26385 0.0
C120 C 0.32489 0.22859 0.21382 0.0
C121 C 0.31635 0.06581 0.21479 0.0
C122 C 0.3492 0.20312 0.30277 0.0
O123 O 0.38105 0.2462 0.21529 0.0
O124 O 0.2911 0.18147 0.22904 0.0
O125 O 0.31694 0.14911 0.29332 0.0
O126 O 0.39113 0.23775 0.28488 0.0
C127 C 0.47753 0.17998 0.25204 0.0
O128 O 0.29631 0.06763 0.24091 0.0
O129 O 0.36052 0.1154 0.20564 0.0
In130 In 0.19942 0.36349 0.41046 0.0
O131 O 0.25691 0.45913 0.39161 0.0
O132 O 0.2793 0.44081 0.43544 0.0
C133 C 0.1096 0.32279 0.36875 0.0
C134 C 0.26188 0.31054 0.38956 0.0
C135 C 0.13718 0.34243 0.4632 0.0
O136 O 0.13707 0.3774 0.37751 0.0
O137 O 0.12733 0.28979 0.38108 0.0
O138 O 0.17066 0.31978 0.45793 0.0
O139 O 0.13674 0.37605 0.44231 0.0
C140 C 0.29205 0.47886 0.41422 0.0
O141 O 0.21871 0.28394 0.40837 0.0
O142 O 0.27396 0.36338 0.3824 0.0
In143 In 0.83647 0.20289 0.58007 0.0
O144 O 0.79462 0.25866 0.56408 0.0
O145 O 0.84684 0.28639 0.60479 0.0
C146 C 0.78597 0.10715 0.54212 0.0
C147 C 0.94711 0.26193 0.55351 0.0
C148 C 0.79433 0.14015 0.6323 0.0
O149 O 0.76157 0.13915 0.54707 0.0
O150 O 0.8349 0.12383 0.5562 0.0
O151 O 0.85082 0.17302 0.62715 0.0
O152 O 0.76056 0.14166 0.6118 0.0
C153 C 0.81654 0.29682 0.58543 0.0
O154 O 0.93789 0.23046 0.57729 0.0
O155 O 0.90168 0.26479 0.54434 0.0
C156 C 0.19145 0.62328 0.05855 0.0
C157 C 0.18757 0.65218 0.085 0.0
C158 C 0.19075 0.56783 0.06003 0.0
C159 C 0.18741 0.53988 0.08805 0.0
H160 H 0.19317 0.64265 0.03642 0.0
H161 H 0.19234 0.54648 0.03904 0.0
S162 S 0.17917 0.59834 0.16406 0.0
N163 N 0.18182 0.64952 0.14009 0.0
N164 N 0.18183 0.54608 0.14296 0.0
C165 C 0.18538 0.56922 0.11473 0.0
C166 C 0.18507 0.62515 0.11319 0.0
C167 C 0.59097 0.12492 0.25059 0.0
C168 C 0.64739 0.17901 0.24872 0.0
C169 C 0.53651 0.12602 0.25239 0.0
C170 C 0.53629 0.1812 0.25162 0.0
H171 H 0.58886 0.0813 0.25119 0.0
H172 H 0.49413 0.08316 0.25382 0.0
S173 S 0.67186 0.33545 0.24641 0.0
N174 N 0.70002 0.28932 0.24641 0.0
N175 N 0.59722 0.29133 0.24862 0.0
C176 C 0.59233 0.23565 0.24942 0.0
C177 C 0.64802 0.23458 0.24833 0.0
C178 C 0.42771 0.62336 0.44365 0.0
C179 C 0.45977 0.65193 0.41694 0.0
C180 C 0.37276 0.56784 0.44258 0.0
C181 C 0.34716 0.53979 0.41473 0.0
H182 H 0.44632 0.64283 0.46562 0.0
H183 H 0.35051 0.54641 0.46373 0.0
S184 S 0.41148 0.59797 0.33824 0.0
N185 N 0.4611 0.64917 0.36185 0.0
N186 N 0.35696 0.54583 0.35974 0.0
C187 C 0.37761 0.56909 0.38781 0.0
C188 C 0.43419 0.6249 0.38894 0.0
C189 C 0.81444 0.43593 0.61504 0.0
C190 C 0.81362 0.46545 0.5882 0.0
C191 C 0.81452 0.38078 0.61404 0.0
C192 C 0.81191 0.35247 0.58622 0.0
H193 H 0.81718 0.45661 0.6369 0.0
H194 H 0.81703 0.36036 0.63516 0.0
S195 S 0.80578 0.40983 0.50965 0.0
N196 N 0.80859 0.46175 0.53315 0.0
N197 N 0.8066 0.35721 0.53127 0.0
C198 C 0.80891 0.38054 0.5593 0.0
C199 C 0.81037 0.43732 0.5603 0.0
C200 C 0.41403 0.77101 0.75816 0.0
C201 C 0.46949 0.82579 0.76177 0.0
C202 C 0.35829 0.77025 0.75777 0.0
C203 C 0.35649 0.82448 0.76 0.0
H204 H 0.41372 0.72849 0.75556 0.0
H205 H 0.31658 0.72725 0.75487 0.0
S206 S 0.48862 0.97965 0.77032 0.0
N207 N 0.51869 0.93531 0.76848 0.0
N208 N 0.41455 0.93404 0.7668 0.0
C209 C 0.41153 0.87936 0.76384 0.0
C210 C 0.4679 0.87998 0.76498 0.0
C211 C 0.5622 0.38587 0.88725 0.0
C212 C 0.54261 0.34868 0.91325 0.0
C213 C 0.61855 0.44013 0.88659 0.0
C214 C 0.65667 0.45988 0.91218 0.0
H215 H 0.53343 0.37335 0.86735 0.0
H216 H 0.63122 0.46792 0.8663 0.0
S217 S 0.62756 0.37817 0.98554 0.0
N218 N 0.56711 0.33434 0.96481 0.0
N219 N 0.67202 0.43693 0.96383 0.0
C220 C 0.63822 0.42253 0.93809 0.0
C221 C 0.58147 0.36675 0.93856 0.0
C222 C 0.23581 0.22998 0.19149 0.0
C223 C 0.29926 0.25881 0.19523 0.0
C224 C 0.20942 0.25516 0.17307 0.0
C225 C 0.24526 0.31058 0.15789 0.0
H226 H 0.20606 0.18681 0.20239 0.0
H227 H 0.16042 0.23046 0.17042 0.0
S228 S 0.41341 0.40577 0.16096 0.0
N229 N 0.39736 0.34682 0.18285 0.0
N230 N 0.34743 0.39463 0.14834 0.0
C231 C 0.30866 0.34096 0.16203 0.0
C232 C 0.33574 0.3149 0.18063 0.0
C233 C 0.9742 0.30064 0.32221 0.0
C234 C 0.95738 0.24627 0.30649 0.0
C235 C 0.02472 0.32641 0.34169 0.0
C236 C 0.05954 0.29819 0.34642 0.0
H237 H 0.94791 0.32322 0.31967 0.0
H238 H 0.03555 0.36776 0.35373 0.0
S239 S 0.03687 0.1572 0.30947 0.0
N240 N 0.98165 0.16672 0.29603 0.0
N241 N 0.07562 0.21468 0.33276 0.0
C242 C 0.04397 0.24459 0.33038 0.0
C243 C 0.99315 0.21876 0.31038 0.0
C244 C 0.69812 0.02574 0.51304 0.0
C245 C 0.75947 0.05356 0.5219 0.0
C246 C 0.67207 0.97362 0.49466 0.0
C247 C 0.70674 0.94809 0.48425 0.0
H248 H 0.66984 0.04393 0.52059 0.0
H249 H 0.62471 0.95366 0.48831 0.0
S250 S 0.86972 0.00427 0.50079 0.0
N251 N 0.85426 0.0519 0.51871 0.0
N252 N 0.80567 0.95461 0.48422 0.0
C253 C 0.76821 0.97571 0.49289 0.0
C254 C 0.79448 0.02829 0.5117 0.0
C255 C 0.77214 0.7626 0.65326 0.0
C256 C 0.74101 0.70009 0.64666 0.0
C257 C 0.74874 0.78731 0.67389 0.0
C258 C 0.69278 0.7508 0.68858 0.0
H259 H 0.81583 0.79288 0.6429 0.0
H260 H 0.77506 0.83565 0.6784 0.0
S261 S 0.59195 0.58469 0.67859 0.0
N262 N 0.6505 0.60208 0.65604 0.0
N263 N 0.60578 0.64909 0.69466 0.0
C264 C 0.6602 0.6884 0.68176 0.0
C265 C 0.68455 0.66289 0.66089 0.0
C266 C 0.95362 0.65512 0.82993 0.0
C267 C 0.96004 0.66997 0.86093 0.0
C268 C 0.00428 0.67987 0.81047 0.0
C269 C 0.06324 0.72015 0.82134 0.0
H270 H 0.90887 0.62688 0.82026 0.0
H271 H 0.99665 0.66966 0.78648 0.0
S272 S 0.10538 0.76573 0.90162 0.0
N273 N 0.0307 0.72172 0.90229 0.0
N274 N 0.12567 0.76799 0.86582 0.0
C275 C 0.07072 0.73161 0.85271 0.0
C276 C 0.01917 0.70661 0.87247 0.0
C277 C 0.30586 0.97304 0.00627 0.0
C278 C 0.24245 0.93451 0.00797 0.0
C279 C 0.33153 0.02465 0.98744 0.0
C280 C 0.29456 0.03907 0.96961 0.0
H281 H 0.33565 0.96477 0.02054 0.0
H282 H 0.38043 0.05439 0.9876 0.0
S283 S 0.12629 0.94717 0.96282 0.0
N284 N 0.14379 0.91061 0.98812 0.0
N285 N 0.19155 0.00671 0.9526 0.0
C286 C 0.23127 0.99873 0.9699 0.0
C287 C 0.20533 0.94667 0.98913 0.0
C288 C 0.21048 0.29691 0.99274 0.0
C289 C 0.2438 0.33095 0.01811 0.0
C290 C 0.23684 0.27649 0.97099 0.0
C291 C 0.29702 0.28865 0.97419 0.0
H292 H 0.16331 0.28463 0.99007 0.0
H293 H 0.2091 0.24877 0.95235 0.0
S294 S 0.40527 0.37979 0.03501 0.0
N295 N 0.34185 0.37922 0.0438 0.0
N296 N 0.39038 0.34012 0.00341 0.0
C297 C 0.33141 0.32453 0.99874 0.0
C298 C 0.30508 0.34589 0.02057 0.0
C299 C 0.91617 0.1829 0.15629 0.0
C300 C 0.88956 0.21515 0.16872 0.0
C301 C 0.9635 0.21012 0.13483 0.0
C302 C 0.98576 0.27046 0.12527 0.0
H303 H 0.90342 0.13802 0.16469 0.0
H304 H 0.98579 0.18544 0.12756 0.0
S305 S 0.9233 0.3697 0.14617 0.0
N306 N 0.88263 0.30709 0.16617 0.0
N307 N 0.97171 0.35812 0.1263 0.0
C308 C 0.95571 0.3009 0.13538 0.0
C309 C 0.90752 0.27325 0.15699 0.0
C310 C 0.73759 0.96114 0.30451 0.0
C311 C 0.71535 1.00178 0.30323 0.0
C312 C 0.71549 0.91433 0.3263 0.0
C313 C 0.66995 0.90634 0.3472 0.0
H314 H 0.7745 0.96757 0.28974 0.0
H315 H 0.73597 0.88592 0.32756 0.0
S316 S 0.59055 0.99556 0.34969 0.0
N317 N 0.64133 0.0274 0.32231 0.0
N318 N 0.59887 0.93927 0.36266 0.0
C319 C 0.64457 0.94429 0.34455 0.0
C320 C 0.66756 0.99211 0.32273 0.0
C321 C 0.71206 0.6425 0.50474 0.0
C322 C 0.77444 0.67726 0.51158 0.0
C323 C 0.68543 0.66188 0.48297 0.0
C324 C 0.7202 0.71622 0.46677 0.0
H325 H 0.6827 0.60141 0.51735 0.0
H326 H 0.63665 0.6353 0.47969 0.0
S327 S 0.88619 0.82144 0.474 0.0
N328 N 0.87112 0.76694 0.49882 0.0
N329 N 0.82082 0.80276 0.4575 0.0
C330 C 0.78325 0.74948 0.47183 0.0
C331 C 0.81044 0.73014 0.49435 0.0
C332 C 0.09437 0.75626 0.65799 0.0
C333 C 0.09532 0.79701 0.68 0.0
C334 C 0.04677 0.72866 0.63683 0.0
C335 C 0.99835 0.74035 0.63742 0.0
H336 H 0.12915 0.7435 0.65797 0.0
H337 H 0.04586 0.69522 0.62128 0.0
S338 S 0.9815 0.84708 0.68817 0.0
N339 N 0.0457 0.85133 0.69897 0.0
N340 N 0.95589 0.79802 0.65989 0.0
C341 C 1.00032 0.78319 0.65809 0.0
C342 C 0.04903 0.81206 0.67919 0.0
C343 C 0.24702 0.06797 0.83618 0.0
C344 C 0.31024 0.10538 0.83972 0.0
C345 C 0.22291 0.01818 0.81631 0.0
C346 C 0.26116 0.00486 0.79883 0.0
H347 H 0.21591 0.07462 0.85033 0.0
H348 H 0.17402 0.98852 0.81557 0.0
S349 S 0.42994 0.09379 0.79706 0.0
N350 N 0.41054 0.12905 0.82231 0.0
N351 N 0.36545 0.03668 0.78435 0.0
C352 C 0.3244 0.04472 0.80051 0.0
C353 C 0.34889 0.09467 0.82115 0.0
C354 C 0.6576 0.73797 0.84549 0.0
C355 C 0.69626 0.79269 0.83019 0.0
C356 C 0.68049 0.71354 0.86678 0.0
C357 C 0.74309 0.74237 0.87315 0.0
H358 H 0.60956 0.71253 0.84013 0.0
H359 H 0.64936 0.66992 0.8769 0.0
S360 S 0.86269 0.88976 0.84167 0.0
N361 N 0.79947 0.87777 0.82501 0.0
N362 N 0.8426 0.83117 0.86449 0.0
C363 C 0.78172 0.7988 0.85932 0.0
C364 C 0.75827 0.82417 0.838 0.0
C365 C 0.91497 0.64005 0.00782 0.0
C366 C 0.89352 0.67793 0.99694 0.0
C367 C 0.96184 0.66091 0.0292 0.0
C368 C 0.98869 0.72021 0.04087 0.0
H369 H 0.89806 0.59503 0.99844 0.0
H370 H 0.97936 0.63136 0.03542 0.0
S371 S 0.94423 0.83509 0.02282 0.0
N372 N 0.89886 0.77582 1.00172 0.0
N373 N 0.98672 0.81477 0.04223 0.0
C374 C 0.96439 0.75692 0.03218 0.0
C375 C 0.91682 0.73582 0.01012 0.0
C376 C 0.20156 0.92356 0.1729 0.0
C377 C 0.23836 0.91582 0.15145 0.0
C378 C 0.22714 0.97024 0.19469 0.0
C379 C 0.2902 0.01101 0.19545 0.0
H380 H 0.15256 0.89481 0.1722 0.0
H381 H 0.19717 0.97629 0.20999 0.0
S382 S 0.40716 0.00566 0.1472 0.0
N383 N 0.34194 0.94939 0.13471 0.0
N384 N 0.38924 0.03714 0.17509 0.0
C385 C 0.32759 1.00176 0.17526 0.0
C386 C 0.30188 0.95413 0.15341 0.0
C387 C 0.2779 0.19178 0.34518 0.0
C388 C 0.33375 0.22717 0.33001 0.0
C389 C 0.25673 0.21792 0.36661 0.0
C390 C 0.29054 0.28034 0.37336 0.0
H391 H 0.24865 0.14449 0.33918 0.0
H392 H 0.2118 0.19004 0.37628 0.0
S393 S 0.4439 0.3905 0.34392 0.0
N394 N 0.42594 0.32619 0.32652 0.0
N395 N 0.38558 0.37502 0.3662 0.0
C396 C 0.34838 0.31496 0.36019 0.0
C397 C 0.37017 0.28843 0.33868 0.0
C398 C 0.06189 0.35584 0.49343 0.0
C399 C 0.09677 0.32726 0.49009 0.0
C400 C 0.01618 0.33669 0.51543 0.0
C401 C 0.00368 0.28854 0.53528 0.0
H402 H 0.06804 0.39176 0.47806 0.0
H403 H 0.98874 0.35833 0.51608 0.0
S404 S 0.08533 0.20196 0.53808 0.0
N405 N 0.11856 0.25099 0.51007 0.0
N406 N 0.03251 0.21527 0.55174 0.0
C407 C 0.04061 0.26198 0.53361 0.0
C408 C 0.08718 0.28126 0.51093 0.0
C409 C 0.67959 0.00803 0.67971 0.0
C410 C 0.71547 1.00038 0.7015 0.0
C411 C 0.70539 0.05553 0.65863 0.0
C412 C 0.7684 0.09701 0.65812 0.0
H413 H 0.6312 0.97604 0.67837 0.0
H414 H 0.67573 0.05804 0.64179 0.0
S415 S 0.88186 0.09954 0.71186 0.0
N416 N 0.81669 0.04049 0.72273 0.0
N417 N 0.86563 0.12956 0.68263 0.0
C418 C 0.80457 0.09161 0.68066 0.0
C419 C 0.77799 0.04337 0.70248 0.0
loop_
_geom_bond_atom_site_label_1
_geom_bond_atom_site_label_2
_geom_bond_distance
_geom_bond_site_symmetry_2
_ccdc_geom_bond_type
In0 O1 2.294 . S
In0 O2 2.326 . S
In0 O6 2.266 . S
In0 O7 2.326 . S
In0 O8 2.266 . S
In0 O9 2.326 . S
In0 O11 2.294 . S
In0 O12 2.326 . S
O1 In0 2.294 . S
O1 C10 1.240 . S
O2 In0 2.326 . S
O2 C10 1.252 . S
C3 O6 1.252 . S
C3 O7 1.260 . S
C4 O11 1.240 . S
C4 O12 1.252 . S
C5 O8 1.252 . S
C5 O9 1.260 . S
O6 In0 2.266 . S
O6 C3 1.252 . S
O7 In0 2.326 . S
O7 C3 1.260 . S
O8 In0 2.266 . S
O8 C5 1.252 . S
O9 In0 2.326 . S
O9 C5 1.260 . S
C10 O1 1.240 . S
C10 O2 1.252 . S
O11 In0 2.294 . S
O11 C4 1.240 . S
O12 In0 2.326 . S
O12 C4 1.252 . S
In13 O14 2.294 . S
In13 O15 2.326 . S
In13 O19 2.266 . S
In13 O20 2.326 . S
In13 O21 2.266 . S
In13 O22 2.326 . S
In13 O24 2.294 . S
In13 O25 2.326 . S
O14 In13 2.294 . S
O14 C23 1.240 . S
O15 In13 2.326 . S
O15 C23 1.252 . S
C16 O19 1.252 . S
C16 O20 1.260 . S
C17 O24 1.240 . S
C17 O25 1.252 . S
C18 O21 1.252 . S
C18 O22 1.260 . S
O19 In13 2.266 . S
O19 C16 1.252 . S
O20 In13 2.326 . S
O20 C16 1.260 . S
O21 In13 2.266 . S
O21 C18 1.252 . S
O22 In13 2.326 . S
O22 C18 1.260 . S
C23 O14 1.240 . S
C23 O15 1.252 . S
O24 In13 2.294 . S
O24 C17 1.240 . S
O25 In13 2.326 . S
O25 C17 1.252 . S
In26 O27 2.294 . S
In26 O28 2.326 . S
In26 O32 2.266 . S
In26 O33 2.326 . S
In26 O34 2.266 . S
In26 O35 2.326 . S
In26 O37 2.294 . S
In26 O38 2.326 . S
O27 In26 2.294 . S
O27 C36 1.240 . S
O28 In26 2.326 . S
O28 C36 1.252 . S
C29 O32 1.252 . S
C29 O33 1.260 . S
C30 O37 1.240 . S
C30 O38 1.252 . S
C31 O34 1.252 . S
C31 O35 1.260 . S
O32 In26 2.266 . S
O32 C29 1.252 . S
O33 In26 2.326 . S
O33 C29 1.260 . S
O34 In26 2.266 . S
O34 C31 1.252 . S
O35 In26 2.326 . S
O35 C31 1.260 . S
C36 O27 1.240 . S
C36 O28 1.252 . S
O37 In26 2.294 . S
O37 C30 1.240 . S
O38 In26 2.326 . S
O38 C30 1.252 . S
In39 O40 2.294 . S
In39 O41 2.326 . S
In39 O45 2.266 . S
In39 O46 2.326 . S
In39 O47 2.266 . S
In39 O48 2.326 . S
In39 O50 2.294 . S
In39 O51 2.326 . S
O40 In39 2.294 . S
O40 C49 1.240 . S
O41 In39 2.326 . S
O41 C49 1.252 . S
C42 O45 1.252 . S
C42 O46 1.260 . S
C43 O50 1.240 . S
C43 O51 1.252 . S
C44 O47 1.252 . S
C44 O48 1.260 . S
O45 In39 2.266 . S
O45 C42 1.252 . S
O46 In39 2.326 . S
O46 C42 1.260 . S
O47 In39 2.266 . S
O47 C44 1.252 . S
O48 In39 2.326 . S
O48 C44 1.260 . S
C49 O40 1.240 . S
C49 O41 1.252 . S
O50 In39 2.294 . S
O50 C43 1.240 . S
O51 In39 2.326 . S
O51 C43 1.252 . S
In52 O53 2.294 . S
In52 O54 2.326 . S
In52 O58 2.266 . S
In52 O59 2.326 . S
In52 O60 2.266 . S
In52 O61 2.326 . S
In52 O63 2.294 . S
In52 O64 2.326 . S
O53 In52 2.294 . S
O53 C62 1.240 . S
O54 In52 2.326 . S
O54 C62 1.252 . S
C55 O58 1.252 . S
C55 O59 1.260 . S
C56 O63 1.240 . S
C56 O64 1.252 . S
C57 O60 1.252 . S
C57 O61 1.260 . S
O58 In52 2.266 . S
O58 C55 1.252 . S
O59 In52 2.326 . S
O59 C55 1.260 . S
O60 In52 2.266 . S
O60 C57 1.252 . S
O61 In52 2.326 . S
O61 C57 1.260 . S
C62 O53 1.240 . S
C62 O54 1.252 . S
O63 In52 2.294 . S
O63 C56 1.240 . S
O64 In52 2.326 . S
O64 C56 1.252 . S
In65 O66 2.294 . S
In65 O67 2.326 . S
In65 O71 2.266 . S
In65 O72 2.326 . S
In65 O73 2.266 . S
In65 O74 2.326 . S
In65 O76 2.294 . S
In65 O77 2.326 . S
O66 In65 2.294 . S
O66 C75 1.240 . S
O67 In65 2.326 . S
O67 C75 1.252 . S
C68 O71 1.252 . S
C68 O72 1.260 . S
C69 O76 1.240 . S
C69 O77 1.252 . S
C70 O73 1.252 . S
C70 O74 1.260 . S
O71 In65 2.266 . S
O71 C68 1.252 . S
O72 In65 2.326 . S
O72 C68 1.260 . S
O73 In65 2.266 . S
O73 C70 1.252 . S
O74 In65 2.326 . S
O74 C70 1.260 . S
C75 O66 1.240 . S
C75 O67 1.252 . S
O76 In65 2.294 . S
O76 C69 1.240 . S
O77 In65 2.326 . S
O77 C69 1.252 . S
In78 O79 2.294 . S
In78 O80 2.326 . S
In78 O84 2.266 . S
In78 O85 2.326 . S
In78 O86 2.266 . S
In78 O87 2.326 . S
In78 O89 2.294 . S
In78 O90 2.326 . S
O79 In78 2.294 . S
O79 C88 1.240 . S
O80 In78 2.326 . S
O80 C88 1.252 . S
C81 O84 1.252 . S
C81 O85 1.260 . S
C82 O89 1.240 . S
C82 O90 1.252 . S
C83 O86 1.252 . S
C83 O87 1.260 . S
O84 In78 2.266 . S
O84 C81 1.252 . S
O85 In78 2.326 . S
O85 C81 1.260 . S
O86 In78 2.266 . S
O86 C83 1.252 . S
O87 In78 2.326 . S
O87 C83 1.260 . S
C88 O79 1.240 . S
C88 O80 1.252 . S
O89 In78 2.294 . S
O89 C82 1.240 . S
O90 In78 2.326 . S
O90 C82 1.252 . S
In91 O92 2.294 . S
In91 O93 2.326 . S
In91 O97 2.266 . S
In91 O98 2.326 . S
In91 O99 2.266 . S
In91 O100 2.326 . S
In91 O102 2.294 . S
In91 O103 2.326 . S
O92 In91 2.294 . S
O92 C101 1.240 . S
O93 In91 2.326 . S
O93 C101 1.252 . S
C94 O97 1.252 . S
C94 O98 1.260 . S
C95 O102 1.240 . S
C95 O103 1.252 . S
C96 O99 1.252 . S
C96 O100 1.260 . S
O97 In91 2.266 . S
O97 C94 1.252 . S
O98 In91 2.326 . S
O98 C94 1.260 . S
O99 In91 2.266 . S
O99 C96 1.252 . S
O100 In91 2.326 . S
O100 C96 1.260 . S
C101 O92 1.240 . S
C101 O93 1.252 . S
O102 In91 2.294 . S
O102 C95 1.240 . S
O103 In91 2.326 . S
O103 C95 1.252 . S
In104 O105 2.294 . S
In104 O106 2.326 . S
In104 O110 2.266 . S
In104 O111 2.326 . S
In104 O112 2.266 . S
In104 O113 2.326 . S
In104 O115 2.294 . S
In104 O116 2.326 . S
O105 In104 2.294 . S
O105 C114 1.240 . S
O106 In104 2.326 . S
O106 C114 1.252 . S
C107 O110 1.252 . S
C107 O111 1.260 . S
C108 O115 1.240 . S
C108 O116 1.252 . S
C109 O112 1.252 . S
C109 O113 1.260 . S
O110 In104 2.266 . S
O110 C107 1.252 . S
O111 In104 2.326 . S
O111 C107 1.260 . S
O112 In104 2.266 . S
O112 C109 1.252 . S
O113 In104 2.326 . S
O113 C109 1.260 . S
C114 O105 1.240 . S
C114 O106 1.252 . S
O115 In104 2.294 . S
O115 C108 1.240 . S
O116 In104 2.326 . S
O116 C108 1.252 . S
In117 O118 2.294 . S
In117 O119 2.326 . S
In117 O123 2.266 . S
In117 O124 2.326 . S
In117 O125 2.266 . S
In117 O126 2.326 . S
In117 O128 2.294 . S
In117 O129 2.326 . S
O118 In117 2.294 . S
O118 C127 1.240 . S
O119 In117 2.326 . S
O119 C127 1.252 . S
C120 O123 1.252 . S
C120 O124 1.260 . S
C121 O128 1.240 . S
C121 O129 1.252 . S
C122 O125 1.252 . S
C122 O126 1.260 . S
O123 In117 2.266 . S
O123 C120 1.252 . S
O124 In117 2.326 . S
O124 C120 1.260 . S
O125 In117 2.266 . S
O125 C122 1.252 . S
O126 In117 2.326 . S
O126 C122 1.260 . S
C127 O118 1.240 . S
C127 O119 1.252 . S
O128 In117 2.294 . S
O128 C121 1.240 . S
O129 In117 2.326 . S
O129 C121 1.252 . S
In130 O131 2.294 . S
In130 O132 2.326 . S
In130 O136 2.266 . S
In130 O137 2.326 . S
In130 O138 2.266 . S
In130 O139 2.326 . S
In130 O141 2.294 . S
In130 O142 2.326 . S
O131 In130 2.294 . S
O131 C140 1.240 . S
O132 In130 2.326 . S
O132 C140 1.252 . S
C133 O136 1.252 . S
C133 O137 1.260 . S
C134 O141 1.240 . S
C134 O142 1.252 . S
C135 O138 1.252 . S
C135 O139 1.260 . S
O136 In130 2.266 . S
O136 C133 1.252 . S
O137 In130 2.326 . S
O137 C133 1.260 . S
O138 In130 2.266 . S
O138 C135 1.252 . S
O139 In130 2.326 . S
O139 C135 1.260 . S
C140 O131 1.240 . S
C140 O132 1.252 . S
O141 In130 2.294 . S
O141 C134 1.240 . S
O142 In130 2.326 . S
O142 C134 1.252 . S
In143 O144 2.294 . S
In143 O145 2.326 . S
In143 O149 2.266 . S
In143 O150 2.326 . S
In143 O151 2.266 . S
In143 O152 2.326 . S
In143 O154 2.294 . S
In143 O155 2.326 . S
O144 In143 2.294 . S
O144 C153 1.240 . S
O145 In143 2.326 . S
O145 C153 1.252 . S
C146 O149 1.252 . S
C146 O150 1.260 . S
C147 O154 1.240 . S
C147 O155 1.252 . S
C148 O151 1.252 . S
C148 O152 1.260 . S
O149 In143 2.266 . S
O149 C146 1.252 . S
O150 In143 2.326 . S
O150 C146 1.260 . S
O151 In143 2.266 . S
O151 C148 1.252 . S
O152 In143 2.326 . S
O152 C148 1.260 . S
C153 O144 1.240 . S
C153 O145 1.252 . S
O154 In143 2.294 . S
O154 C147 1.240 . S
O155 In143 2.326 . S
O155 C147 1.252 . S
C156 C157 1.369 . S
C156 C158 1.419 . S
C156 H160 0.930 . S
C157 C156 1.369 . S
C157 C166 1.429 . S
C158 C156 1.419 . S
C158 C159 1.363 . S
C158 H161 0.929 . S
C159 C158 1.363 . S
C159 C165 1.428 . S
H160 C156 0.930 . S
H161 C158 0.929 . S
S162 N163 1.613 . S
S162 N164 1.610 . S
N163 S162 1.613 . S
N163 C166 1.350 . S
N164 S162 1.610 . S
N164 C165 1.351 . S
C165 C159 1.428 . S
C165 N164 1.351 . S
C165 C166 1.434 . S
C166 C157 1.429 . S
C166 N163 1.350 . S
C166 C165 1.434 . S
C167 C168 1.369 . S
C167 C169 1.419 . S
C167 H171 0.930 . S
C168 C167 1.369 . S
C168 C177 1.429 . S
C169 C167 1.419 . S
C169 C170 1.363 . S
C169 H172 0.929 . S
C170 C169 1.363 . S
C170 C176 1.428 . S
H171 C167 0.930 . S
H172 C169 0.929 . S
S173 N174 1.613 . S
S173 N175 1.610 . S
N174 S173 1.613 . S
N174 C177 1.350 . S
N175 S173 1.610 . S
N175 C176 1.351 . S
C176 C170 1.428 . S
C176 N175 1.351 . S
C176 C177 1.434 . S
C177 C168 1.429 . S
C177 N174 1.350 . S
C177 C176 1.434 . S
C178 C179 1.369 . S
C178 C180 1.419 . S
C178 H182 0.930 . S
C179 C178 1.369 . S
C179 C188 1.429 . S
C180 C178 1.419 . S
C180 C181 1.363 . S
C180 H183 0.929 . S
C181 C180 1.363 . S
C181 C187 1.428 . S
H182 C178 0.930 . S
H183 C180 0.929 . S
S184 N185 1.613 . S
S184 N186 1.610 . S
N185 S184 1.613 . S
N185 C188 1.350 . S
N186 S184 1.610 . S
N186 C187 1.351 . S
C187 C181 1.428 . S
C187 N186 1.351 . S
C187 C188 1.434 . S
C188 C179 1.429 . S
C188 N185 1.350 . S
C188 C187 1.434 . S
C189 C190 1.369 . S
C189 C191 1.419 . S
C189 H193 0.930 . S
C190 C189 1.369 . S
C190 C199 1.429 . S
C191 C189 1.419 . S
C191 C192 1.363 . S
C191 H194 0.929 . S
C192 C191 1.363 . S
C192 C198 1.428 . S
H193 C189 0.930 . S
H194 C191 0.929 . S
S195 N196 1.613 . S
S195 N197 1.610 . S
N196 S195 1.613 . S
N196 C199 1.350 . S
N197 S195 1.610 . S
N197 C198 1.351 . S
C198 C192 1.428 . S
C198 N197 1.351 . S
C198 C199 1.434 . S
C199 C190 1.429 . S
C199 N196 1.350 . S
C199 C198 1.434 . S
C200 C201 1.369 . S
C200 C202 1.419 . S
C200 H204 0.930 . S
C201 C200 1.369 . S
C201 C210 1.429 . S
C202 C200 1.419 . S
C202 C203 1.363 . S
C202 H205 0.929 . S
C203 C202 1.363 . S
C203 C209 1.428 . S
H204 C200 0.930 . S
H205 C202 0.929 . S
S206 N207 1.613 . S
S206 N208 1.610 . S
N207 S206 1.613 . S
N207 C210 1.350 . S
N208 S206 1.610 . S
N208 C209 1.351 . S
C209 C203 1.428 . S
C209 N208 1.351 . S
C209 C210 1.434 . S
C210 C201 1.429 . S
C210 N207 1.350 . S
C210 C209 1.434 . S
C211 C212 1.369 . S
C211 C213 1.419 . S
C211 H215 0.930 . S
C212 C211 1.369 . S
C212 C221 1.429 . S
C213 C211 1.419 . S
C213 C214 1.363 . S
C213 H216 0.929 . S
C214 C213 1.363 . S
C214 C220 1.428 . S
H215 C211 0.930 . S
H216 C213 0.929 . S
S217 N218 1.613 . S
S217 N219 1.610 . S
N218 S217 1.613 . S
N218 C221 1.350 . S
N219 S217 1.610 . S
N219 C220 1.351 . S
C220 C214 1.428 . S
C220 N219 1.351 . S
C220 C221 1.434 . S
C221 C212 1.429 . S
C221 N218 1.350 . S
C221 C220 1.434 . S
C222 C223 1.369 . S
C222 C224 1.419 . S
C222 H226 0.930 . S
C223 C222 1.369 . S
C223 C232 1.429 . S
C224 C222 1.419 . S
C224 C225 1.363 . S
C224 H227 0.929 . S
C225 C224 1.363 . S
C225 C231 1.428 . S
H226 C222 0.930 . S
H227 C224 0.929 . S
S228 N229 1.613 . S
S228 N230 1.610 . S
N229 S228 1.613 . S
N229 C232 1.350 . S
N230 S228 1.610 . S
N230 C231 1.351 . S
C231 C225 1.428 . S
C231 N230 1.351 . S
C231 C232 1.434 . S
C232 C223 1.429 . S
C232 N229 1.350 . S
C232 C231 1.434 . S
C233 C234 1.369 . S
C233 C235 1.419 1_655 S
C233 H237 0.930 . S
C234 C233 1.369 . S
C234 C243 1.429 . S
C235 C233 1.419 1_455 S
C235 C236 1.363 . S
C235 H238 0.929 . S
C236 C235 1.363 . S
C236 C242 1.428 . S
H237 C233 0.930 . S
H238 C235 0.929 . S
S239 N240 1.613 1_455 S
S239 N241 1.610 . S
N240 S239 1.613 1_655 S
N240 C243 1.350 . S
N241 S239 1.610 . S
N241 C242 1.351 . S
C242 C236 1.428 . S
C242 N241 1.351 . S
C242 C243 1.434 1_455 S
C243 C234 1.429 . S
C243 N240 1.350 . S
C243 C242 1.434 1_655 S
C244 C245 1.369 . S
C244 C246 1.419 1_545 S
C244 H248 0.930 . S
C245 C244 1.369 . S
C245 C254 1.429 . S
C246 C244 1.419 1_565 S
C246 C247 1.363 . S
C246 H249 0.929 . S
C247 C246 1.363 . S
C247 C253 1.428 . S
H248 C244 0.930 . S
H249 C246 0.929 . S
S250 N251 1.613 1_565 S
S250 N252 1.610 . S
N251 S250 1.613 1_545 S
N251 C254 1.350 . S
N252 S250 1.610 . S
N252 C253 1.351 . S
C253 C247 1.428 . S
C253 N252 1.351 . S
C253 C254 1.434 1_565 S
C254 C245 1.429 . S
C254 N251 1.350 . S
C254 C253 1.434 1_545 S
C255 C256 1.369 . S
C255 C257 1.419 . S
C255 H259 0.930 . S
C256 C255 1.369 . S
C256 C265 1.429 . S
C257 C255 1.419 . S
C257 C258 1.363 . S
C257 H260 0.929 . S
C258 C257 1.363 . S
C258 C264 1.428 . S
H259 C255 0.930 . S
H260 C257 0.929 . S
S261 N262 1.613 . S
S261 N263 1.610 . S
N262 S261 1.613 . S
N262 C265 1.350 . S
N263 S261 1.610 . S
N263 C264 1.351 . S
C264 C258 1.428 . S
C264 N263 1.351 . S
C264 C265 1.434 . S
C265 C256 1.429 . S
C265 N262 1.350 . S
C265 C264 1.434 . S
C266 C267 1.369 . S
C266 C268 1.406 1_655 S
C266 H270 0.930 . S
C267 C266 1.369 . S
C267 C276 1.429 1_655 S
C268 C266 1.406 1_455 S
C268 C269 1.375 . S
C268 H271 0.930 1_455 S
C269 C268 1.375 . S
C269 C275 1.428 . S
H270 C266 0.930 . S
H271 C268 0.930 1_655 S
S272 N273 1.613 . S
S272 N274 1.610 . S
N273 S272 1.613 . S
N273 C276 1.350 . S
N274 S272 1.610 . S
N274 C275 1.351 . S
C275 C269 1.428 . S
C275 N274 1.351 . S
C275 C276 1.434 . S
C276 C267 1.429 1_455 S
C276 N273 1.350 . S
C276 C275 1.434 . S
C277 C278 1.369 . S
C277 C279 1.419 1_564 S
C277 H281 0.930 . S
C278 C277 1.369 . S
C278 C287 1.429 . S
C279 C277 1.419 1_546 S
C279 C280 1.363 . S
C279 H282 0.929 . S
C280 C279 1.363 . S
C280 C286 1.428 . S
H281 C277 0.930 . S
H282 C279 0.929 . S
S283 N284 1.613 1_556 S
S283 N285 1.610 1_565 S
N284 S283 1.613 1_554 S
N284 C287 1.350 . S
N285 S283 1.610 1_545 S
N285 C286 1.351 . S
C286 C280 1.428 . S
C286 N285 1.351 . S
C286 C287 1.434 1_546 S
C287 C278 1.429 . S
C287 N284 1.350 . S
C287 C286 1.434 1_564 S
C288 C289 1.369 1_556 S
C288 C290 1.419 . S
C288 H292 0.930 . S
C289 C288 1.369 1_554 S
C289 C298 1.429 . S
C290 C288 1.419 . S
C290 C291 1.363 . S
C290 H293 0.929 . S
C291 C290 1.363 . S
C291 C297 1.428 1_556 S
H292 C288 0.930 . S
H293 C290 0.929 . S
S294 N295 1.613 . S
S294 N296 1.610 . S
N295 S294 1.613 . S
N295 C298 1.350 . S
N296 S294 1.610 . S
N296 C297 1.351 . S
C297 C291 1.428 1_554 S
C297 N296 1.351 . S
C297 C298 1.434 . S
C298 C289 1.429 . S
C298 N295 1.350 . S
C298 C297 1.434 . S
C299 C300 1.369 . S
C299 C301 1.419 1_655 S
C299 H303 0.930 . S
C300 C299 1.369 . S
C300 C309 1.429 . S
C301 C299 1.419 1_455 S
C301 C302 1.363 . S
C301 H304 0.929 . S
C302 C301 1.363 . S
C302 C308 1.428 1_455 S
H303 C299 0.930 . S
H304 C301 0.929 . S
S305 N306 1.613 . S
S305 N307 1.610 . S
N306 S305 1.613 . S
N306 C309 1.350 . S
N307 S305 1.610 . S
N307 C308 1.351 . S
C308 C302 1.428 1_655 S
C308 N307 1.351 . S
C308 C309 1.434 . S
C309 C300 1.429 . S
C309 N306 1.350 . S
C309 C308 1.434 . S
C310 C311 1.369 1_565 S
C310 C312 1.419 . S
C310 H314 0.930 . S
C311 C310 1.369 1_545 S
C311 C320 1.429 . S
C312 C310 1.419 . S
C312 C313 1.363 . S
C312 H315 0.929 . S
C313 C312 1.363 . S
C313 C319 1.428 . S
H314 C310 0.930 . S
H315 C312 0.929 . S
S316 N317 1.613 . S
S316 N318 1.610 1_545 S
N317 S316 1.613 . S
N317 C320 1.350 . S
N318 S316 1.610 1_565 S
N318 C319 1.351 . S
C319 C313 1.428 . S
C319 N318 1.351 . S
C319 C320 1.434 1_565 S
C320 C311 1.429 . S
C320 N317 1.350 . S
C320 C319 1.434 1_545 S
C321 C322 1.369 . S
C321 C323 1.419 . S
C321 H325 0.930 . S
C322 C321 1.369 . S
C322 C331 1.429 . S
C323 C321 1.419 . S
C323 C324 1.363 . S
C323 H326 0.929 . S
C324 C323 1.363 . S
C324 C330 1.428 . S
H325 C321 0.930 . S
H326 C323 0.929 . S
S327 N328 1.613 . S
S327 N329 1.610 . S
N328 S327 1.613 . S
N328 C331 1.350 . S
N329 S327 1.610 . S
N329 C330 1.351 . S
C330 C324 1.428 . S
C330 N329 1.351 . S
C330 C331 1.434 . S
C331 C322 1.429 . S
C331 N328 1.350 . S
C331 C330 1.434 . S
C332 C333 1.369 . S
C332 C334 1.419 . S
C332 H336 0.930 . S
C333 C332 1.369 . S
C333 C342 1.429 . S
C334 C332 1.419 . S
C334 C335 1.363 1_455 S
C334 H337 0.929 . S
C335 C334 1.363 1_655 S
C335 C341 1.428 . S
H336 C332 0.930 . S
H337 C334 0.929 . S
S338 N339 1.613 1_655 S
S338 N340 1.610 . S
N339 S338 1.613 1_455 S
N339 C342 1.350 . S
N340 S338 1.610 . S
N340 C341 1.351 . S
C341 C335 1.428 . S
C341 N340 1.351 . S
C341 C342 1.434 1_655 S
C342 C333 1.429 . S
C342 N339 1.350 . S
C342 C341 1.434 1_455 S
C343 C344 1.369 . S
C343 C345 1.419 1_545 S
C343 H347 0.930 . S
C344 C343 1.369 . S
C344 C353 1.429 . S
C345 C343 1.419 1_565 S
C345 C346 1.363 . S
C345 H348 0.929 . S
C346 C345 1.363 . S
C346 C352 1.428 1_565 S
H347 C343 0.930 . S
H348 C345 0.929 . S
S349 N350 1.613 . S
S349 N351 1.610 . S
N350 S349 1.613 . S
N350 C353 1.350 . S
N351 S349 1.610 . S
N351 C352 1.351 . S
C352 C346 1.428 1_545 S
C352 N351 1.351 . S
C352 C353 1.434 . S
C353 C344 1.429 . S
C353 N350 1.350 . S
C353 C352 1.434 . S
C354 C355 1.369 . S
C354 C356 1.419 . S
C354 H358 0.930 . S
C355 C354 1.369 . S
C355 C364 1.429 . S
C356 C354 1.419 . S
C356 C357 1.363 . S
C356 H359 0.929 . S
C357 C356 1.363 . S
C357 C363 1.428 . S
H358 C354 0.930 . S
H359 C356 0.929 . S
S360 N361 1.613 . S
S360 N362 1.610 . S
N361 S360 1.613 . S
N361 C364 1.350 . S
N362 S360 1.610 . S
N362 C363 1.351 . S
C363 C357 1.428 . S
C363 N362 1.351 . S
C363 C364 1.434 . S
C364 C355 1.429 . S
C364 N361 1.350 . S
C364 C363 1.434 . S
C365 C366 1.369 . S
C365 C367 1.435 . S
C365 H369 0.930 . S
C366 C365 1.369 . S
C366 C375 1.429 . S
C367 C365 1.435 . S
C367 C368 1.352 1_656 S
C367 H370 0.925 1_656 S
C368 C367 1.352 1_454 S
C368 C374 1.435 . S
H369 C365 0.930 . S
H370 C367 0.925 1_454 S
S371 N372 1.613 . S
S371 N373 1.610 1_656 S
N372 S371 1.613 . S
N372 C375 1.350 . S
N373 S371 1.610 1_454 S
N373 C374 1.350 . S
C374 C368 1.435 . S
C374 N373 1.350 . S
C374 C375 1.427 1_454 S
C375 C366 1.429 . S
C375 N372 1.350 . S
C375 C374 1.427 1_656 S
C376 C377 1.369 . S
C376 C378 1.419 . S
C376 H380 0.930 . S
C377 C376 1.369 . S
C377 C386 1.429 . S
C378 C376 1.419 . S
C378 C379 1.363 1_565 S
C378 H381 0.929 . S
C379 C378 1.363 1_545 S
C379 C385 1.428 . S
H380 C376 0.930 . S
H381 C378 0.929 . S
S382 N383 1.613 1_545 S
S382 N384 1.610 . S
N383 S382 1.613 1_565 S
N383 C386 1.350 . S
N384 S382 1.610 . S
N384 C385 1.351 . S
C385 C379 1.428 . S
C385 N384 1.351 . S
C385 C386 1.434 1_545 S
C386 C377 1.429 . S
C386 N383 1.350 . S
C386 C385 1.434 1_565 S
C387 C388 1.369 . S
C387 C389 1.419 . S
C387 H391 0.930 . S
C388 C387 1.369 . S
C388 C397 1.429 . S
C389 C387 1.419 . S
C389 C390 1.363 . S
C389 H392 0.929 . S
C390 C389 1.363 . S
C390 C396 1.428 . S
H391 C387 0.930 . S
H392 C389 0.929 . S
S393 N394 1.613 . S
S393 N395 1.610 . S
N394 S393 1.613 . S
N394 C397 1.350 . S
N395 S393 1.610 . S
N395 C396 1.351 . S
C396 C390 1.428 . S
C396 N395 1.351 . S
C396 C397 1.434 . S
C397 C388 1.429 . S
C397 N394 1.350 . S
C397 C396 1.434 . S
C398 C399 1.369 . S
C398 C400 1.419 1_455 S
C398 H402 0.930 . S
C399 C398 1.369 . S
C399 C408 1.429 . S
C400 C398 1.419 1_655 S
C400 C401 1.363 . S
C400 H403 0.929 . S
C401 C400 1.363 . S
C401 C407 1.428 1_655 S
H402 C398 0.930 . S
H403 C400 0.929 . S
S404 N405 1.613 . S
S404 N406 1.610 . S
N405 S404 1.613 . S
N405 C408 1.350 . S
N406 S404 1.610 . S
N406 C407 1.351 . S
C407 C401 1.428 1_455 S
C407 N406 1.351 . S
C407 C408 1.434 . S
C408 C399 1.429 . S
C408 N405 1.350 . S
C408 C407 1.434 . S
C409 C410 1.369 . S
C409 C411 1.419 1_565 S
C409 H413 0.930 . S
C410 C409 1.369 . S
C410 C419 1.429 1_565 S
C411 C409 1.419 1_545 S
C411 C412 1.363 . S
C411 H414 0.929 . S
C412 C411 1.363 . S
C412 C418 1.428 . S
H413 C409 0.930 . S
H414 C411 0.929 . S
S415 N416 1.613 . S
S415 N417 1.610 . S
N416 S415 1.613 . S
N416 C419 1.350 . S
N417 S415 1.610 . S
N417 C418 1.351 . S
C418 C412 1.428 . S
C418 N417 1.351 . S
C418 C419 1.434 . S
C419 C410 1.429 1_545 S
C419 N416 1.350 . S
C419 C418 1.434 . S
C157 C108 1.311 . S
C159 C4 1.309 . S
C168 C17 1.310 . S
C170 C127 1.311 . S
C179 C30 1.311 . S
C181 C140 1.310 . S
C190 C49 1.311 . S
C192 C153 1.309 . S
C201 C88 1.309 . S
C203 C56 1.310 . S
C212 C69 1.309 . S
C214 C95 1.311 . S
C223 C120 1.147 . S
C225 C5 1.146 . S
C234 C18 1.142 . S
C236 C133 1.143 . S
C245 C146 1.143 . S
C247 C31 1.143 . S
C256 C42 1.147 . S
C258 C81 1.146 . S
C267 C96 1.143 . S
C269 C57 1.144 . S
C278 C109 1.143 . S
C280 C70 1.143 . S
C289 C3 1.590 . S
C291 C75 1.600 . S
C300 C16 1.595 . S
C302 C10 1.602 . S
C311 C23 1.600 . S
C313 C29 1.591 . S
C322 C44 1.591 . S
C324 C36 1.599 . S
C333 C55 1.590 . S
C335 C43 1.600 . S
C344 C68 1.595 . S
C346 C62 1.601 . S
C355 C83 1.592 . S
C357 C101 1.599 . S
C366 C94 1.593 . S
C368 C114 1.599 . S
C377 C107 1.590 . S
C379 C121 1.600 . S
C388 C122 1.590 . S
C390 C134 1.600 . S
C399 C135 1.596 . S
C401 C147 1.600 . S
C410 C82 1.600 . S
C412 C148 1.595 . S
