# Generated by pormake.
# Topology wga, (5)-cn, num edge types: 1
# Building blocks:
#     Node 0, Type 0, BuildingBlock: XOMCOT_clean_sbu_1, # of connection points: 5
#     Node 1, Type 0, BuildingBlock: XOMCOT_clean_sbu_1, # of connection points: 5
#     Node 2, Type 0, BuildingBlock: XOMCOT_clean_sbu_1, # of connection points: 5
#     Node 3, Type 0, BuildingBlock: XOMCOT_clean_sbu_1, # of connection points: 5
#     Node 4, Type 0, BuildingBlock: XOMCOT_clean_sbu_1, # of connection points: 5
#     Node 5, Type 0, BuildingBlock: XOMCOT_clean_sbu_1, # of connection points: 5
#     Node 6, Type 0, BuildingBlock: XOMCOT_clean_sbu_1, # of connection points: 5
#     Node 7, Type 0, BuildingBlock: XOMCOT_clean_sbu_1, # of connection points: 5
#     Node 8, Type 0, BuildingBlock: XOMCOT_clean_sbu_1, # of connection points: 5
#     Node 9, Type 0, BuildingBlock: XOMCOT_clean_sbu_1, # of connection points: 5
#     Node 10, Type 0, BuildingBlock: XOMCOT_clean_sbu_1, # of connection points: 5
#     Node 11, Type 0, BuildingBlock: XOMCOT_clean_sbu_1, # of connection points: 5
#     Node 12, Type 0, BuildingBlock: XOMCOT_clean_sbu_1, # of connection points: 5
#     Node 13, Type 0, BuildingBlock: XOMCOT_clean_sbu_1, # of connection points: 5
#     Node 14, Type 0, BuildingBlock: XOMCOT_clean_sbu_1, # of connection points: 5
#     Node 15, Type 0, BuildingBlock: XOMCOT_clean_sbu_1, # of connection points: 5
#     Node 16, Type 0, BuildingBlock: XOMCOT_clean_sbu_1, # of connection points: 5
#     Node 17, Type 0, BuildingBlock: XOMCOT_clean_sbu_1, # of connection points: 5
#     Node 18, Type 0, BuildingBlock: XOMCOT_clean_sbu_1, # of connection points: 5
#     Node 19, Type 0, BuildingBlock: XOMCOT_clean_sbu_1, # of connection points: 5
#     Node 20, Type 0, BuildingBlock: XOMCOT_clean_sbu_1, # of connection points: 5
#     Node 21, Type 0, BuildingBlock: XOMCOT_clean_sbu_1, # of connection points: 5
#     Node 22, Type 0, BuildingBlock: XOMCOT_clean_sbu_1, # of connection points: 5
#     Node 23, Type 0, BuildingBlock: XOMCOT_clean_sbu_1, # of connection points: 5
#     Node 24, Type 0, BuildingBlock: XOMCOT_clean_sbu_1, # of connection points: 5
#     Node 25, Type 0, BuildingBlock: XOMCOT_clean_sbu_1, # of connection points: 5
#     Node 26, Type 0, BuildingBlock: XOMCOT_clean_sbu_1, # of connection points: 5
#     Node 27, Type 0, BuildingBlock: XOMCOT_clean_sbu_1, # of connection points: 5
#     Node 28, Type 0, BuildingBlock: XOMCOT_clean_sbu_1, # of connection points: 5
#     Node 29, Type 0, BuildingBlock: XOMCOT_clean_sbu_1, # of connection points: 5
#     Node 30, Type 0, BuildingBlock: XOMCOT_clean_sbu_1, # of connection points: 5
#     Node 31, Type 0, BuildingBlock: XOMCOT_clean_sbu_1, # of connection points: 5
#     Edge 32, Type (0, 0), BuildingBlock: EZIPEK_clean_linker_0, # of connection points: 2
#     Edge 33, Type (0, 0), BuildingBlock: EZIPEK_clean_linker_0, # of connection points: 2
#     Edge 34, Type (0, 0), BuildingBlock: EZIPEK_clean_linker_0, # of connection points: 2
#     Edge 35, Type (0, 0), BuildingBlock: EZIPEK_clean_linker_0, # of connection points: 2
#     Edge 36, Type (0, 0), BuildingBlock: EZIPEK_clean_linker_0, # of connection points: 2
#     Edge 37, Type (0, 0), BuildingBlock: EZIPEK_clean_linker_0, # of connection points: 2
#     Edge 38, Type (0, 0), BuildingBlock: EZIPEK_clean_linker_0, # of connection points: 2
#     Edge 39, Type (0, 0), BuildingBlock: EZIPEK_clean_linker_0, # of connection points: 2
#     Edge 40, Type (0, 0), BuildingBlock: EZIPEK_clean_linker_0, # of connection points: 2
#     Edge 41, Type (0, 0), BuildingBlock: EZIPEK_clean_linker_0, # of connection points: 2
#     Edge 42, Type (0, 0), BuildingBlock: EZIPEK_clean_linker_0, # of connection points: 2
#     Edge 43, Type (0, 0), BuildingBlock: EZIPEK_clean_linker_0, # of connection points: 2
#     Edge 44, Type (0, 0), BuildingBlock: EZIPEK_clean_linker_0, # of connection points: 2
#     Edge 45, Type (0, 0), BuildingBlock: EZIPEK_clean_linker_0, # of connection points: 2
#     Edge 46, Type (0, 0), BuildingBlock: EZIPEK_clean_linker_0, # of connection points: 2
#     Edge 47, Type (0, 0), BuildingBlock: EZIPEK_clean_linker_0, # of connection points: 2
#     Edge 48, Type (0, 0), BuildingBlock: EZIPEK_clean_linker_0, # of connection points: 2
#     Edge 49, Type (0, 0), BuildingBlock: EZIPEK_clean_linker_0, # of connection points: 2
#     Edge 50, Type (0, 0), BuildingBlock: EZIPEK_clean_linker_0, # of connection points: 2
#     Edge 51, Type (0, 0), BuildingBlock: EZIPEK_clean_linker_0, # of connection points: 2
#     Edge 52, Type (0, 0), BuildingBlock: EZIPEK_clean_linker_0, # of connection points: 2
#     Edge 53, Type (0, 0), BuildingBlock: EZIPEK_clean_linker_0, # of connection points: 2
#     Edge 54, Type (0, 0), BuildingBlock: EZIPEK_clean_linker_0, # of connection points: 2
#     Edge 55, Type (0, 0), BuildingBlock: EZIPEK_clean_linker_0, # of connection points: 2
#     Edge 56, Type (0, 0), BuildingBlock: EZIPEK_clean_linker_0, # of connection points: 2
#     Edge 57, Type (0, 0), BuildingBlock: EZIPEK_clean_linker_0, # of connection points: 2
#     Edge 58, Type (0, 0), BuildingBlock: EZIPEK_clean_linker_0, # of connection points: 2
#     Edge 59, Type (0, 0), BuildingBlock: EZIPEK_clean_linker_0, # of connection points: 2
#     Edge 60, Type (0, 0), BuildingBlock: EZIPEK_clean_linker_0, # of connection points: 2
#     Edge 61, Type (0, 0), BuildingBlock: EZIPEK_clean_linker_0, # of connection points: 2
#     Edge 62, Type (0, 0), BuildingBlock: EZIPEK_clean_linker_0, # of connection points: 2
#     Edge 63, Type (0, 0), BuildingBlock: EZIPEK_clean_linker_0, # of connection points: 2
#     Edge 64, Type (0, 0), BuildingBlock: EZIPEK_clean_linker_0, # of connection points: 2
#     Edge 65, Type (0, 0), BuildingBlock: EZIPEK_clean_linker_0, # of connection points: 2
#     Edge 66, Type (0, 0), BuildingBlock: EZIPEK_clean_linker_0, # of connection points: 2
#     Edge 67, Type (0, 0), BuildingBlock: EZIPEK_clean_linker_0, # of connection points: 2
#     Edge 68, Type (0, 0), BuildingBlock: EZIPEK_clean_linker_0, # of connection points: 2
#     Edge 69, Type (0, 0), BuildingBlock: EZIPEK_clean_linker_0, # of connection points: 2
#     Edge 70, Type (0, 0), BuildingBlock: EZIPEK_clean_linker_0, # of connection points: 2
#     Edge 71, Type (0, 0), BuildingBlock: EZIPEK_clean_linker_0, # of connection points: 2
#     Edge 72, Type (0, 0), BuildingBlock: EZIPEK_clean_linker_0, # of connection points: 2
#     Edge 73, Type (0, 0), BuildingBlock: EZIPEK_clean_linker_0, # of connection points: 2
#     Edge 74, Type (0, 0), BuildingBlock: EZIPEK_clean_linker_0, # of connection points: 2
#     Edge 75, Type (0, 0), BuildingBlock: EZIPEK_clean_linker_0, # of connection points: 2
#     Edge 76, Type (0, 0), BuildingBlock: EZIPEK_clean_linker_0, # of connection points: 2
#     Edge 77, Type (0, 0), BuildingBlock: EZIPEK_clean_linker_0, # of connection points: 2
#     Edge 78, Type (0, 0), BuildingBlock: EZIPEK_clean_linker_0, # of connection points: 2
#     Edge 79, Type (0, 0), BuildingBlock: EZIPEK_clean_linker_0, # of connection points: 2
#     Edge 80, Type (0, 0), BuildingBlock: EZIPEK_clean_linker_0, # of connection points: 2
#     Edge 81, Type (0, 0), BuildingBlock: EZIPEK_clean_linker_0, # of connection points: 2
#     Edge 82, Type (0, 0), BuildingBlock: EZIPEK_clean_linker_0, # of connection points: 2
#     Edge 83, Type (0, 0), BuildingBlock: EZIPEK_clean_linker_0, # of connection points: 2
#     Edge 84, Type (0, 0), BuildingBlock: EZIPEK_clean_linker_0, # of connection points: 2
#     Edge 85, Type (0, 0), BuildingBlock: EZIPEK_clean_linker_0, # of connection points: 2
#     Edge 86, Type (0, 0), BuildingBlock: EZIPEK_clean_linker_0, # of connection points: 2
#     Edge 87, Type (0, 0), BuildingBlock: EZIPEK_clean_linker_0, # of connection points: 2
#     Edge 88, Type (0, 0), BuildingBlock: EZIPEK_clean_linker_0, # of connection points: 2
#     Edge 89, Type (0, 0), BuildingBlock: EZIPEK_clean_linker_0, # of connection points: 2
#     Edge 90, Type (0, 0), BuildingBlock: EZIPEK_clean_linker_0, # of connection points: 2
#     Edge 91, Type (0, 0), BuildingBlock: EZIPEK_clean_linker_0, # of connection points: 2
#     Edge 92, Type (0, 0), BuildingBlock: EZIPEK_clean_linker_0, # of connection points: 2
#     Edge 93, Type (0, 0), BuildingBlock: EZIPEK_clean_linker_0, # of connection points: 2
#     Edge 94, Type (0, 0), BuildingBlock: EZIPEK_clean_linker_0, # of connection points: 2
#     Edge 95, Type (0, 0), BuildingBlock: EZIPEK_clean_linker_0, # of connection points: 2
#     Edge 96, Type (0, 0), BuildingBlock: EZIPEK_clean_linker_0, # of connection points: 2
#     Edge 97, Type (0, 0), BuildingBlock: EZIPEK_clean_linker_0, # of connection points: 2
#     Edge 98, Type (0, 0), BuildingBlock: EZIPEK_clean_linker_0, # of connection points: 2
#     Edge 99, Type (0, 0), BuildingBlock: EZIPEK_clean_linker_0, # of connection points: 2
#     Edge 100, Type (0, 0), BuildingBlock: EZIPEK_clean_linker_0, # of connection points: 2
#     Edge 101, Type (0, 0), BuildingBlock: EZIPEK_clean_linker_0, # of connection points: 2
#     Edge 102, Type (0, 0), BuildingBlock: EZIPEK_clean_linker_0, # of connection points: 2
#     Edge 103, Type (0, 0), BuildingBlock: EZIPEK_clean_linker_0, # of connection points: 2
#     Edge 104, Type (0, 0), BuildingBlock: EZIPEK_clean_linker_0, # of connection points: 2
#     Edge 105, Type (0, 0), BuildingBlock: EZIPEK_clean_linker_0, # of connection points: 2
#     Edge 106, Type (0, 0), BuildingBlock: EZIPEK_clean_linker_0, # of connection points: 2
#     Edge 107, Type (0, 0), BuildingBlock: EZIPEK_clean_linker_0, # of connection points: 2
#     Edge 108, Type (0, 0), BuildingBlock: EZIPEK_clean_linker_0, # of connection points: 2
#     Edge 109, Type (0, 0), BuildingBlock: EZIPEK_clean_linker_0, # of connection points: 2
#     Edge 110, Type (0, 0), BuildingBlock: EZIPEK_clean_linker_0, # of connection points: 2
#     Edge 111, Type (0, 0), BuildingBlock: EZIPEK_clean_linker_0, # of connection points: 2
# Relax obj value: 0.096
# Max RMSD: 0.106
# Mean RMSD: 0.106
data_MOF--net-wga--node1-XOMCOT_clean_sbu_1--edge1-EZIPEK_clean_linker_0
_symmetry_space_group_name_H-M    P1
_symmetry_Int_Tables_number       1
_symmetry_cell_setting            triclinic
loop_
_symmetry_equiv_pos_as_xyz
'x, y, z'
_cell_length_a     82.402527
_cell_length_b     82.444004
_cell_length_c     13.71909
_cell_angle_alpha  90.133598
_cell_angle_beta   90.021823
_cell_angle_gamma 89.976153
loop_
_atom_site_label
_atom_site_type_symbol
_atom_site_fract_x
_atom_site_fract_y
_atom_site_fract_z
_atom_type_partial_charge
C0 C 0.093 0.58748 0.95857 0.0
C1 C 0.09307 0.58843 0.85828 0.0
N2 N 0.09317 0.57326 0.82218 0.0
N3 N 0.0932 0.57177 0.98622 0.0
C4 C 0.09311 0.56337 0.90082 0.0
H5 H 0.09265 0.59766 1.00823 0.0
Co6 Co 0.09294 0.56497 0.11804 0.0
C7 C 0.11029 0.53519 0.04775 0.0
O8 O 0.12434 0.54256 0.03902 0.0
N9 N 0.09236 0.55828 0.25051 0.0
C10 C 0.08663 0.54336 0.38166 0.0
C11 C 0.08677 0.54376 0.28141 0.0
C12 C 0.09525 0.56665 0.33425 0.0
N13 N 0.09197 0.55774 0.41483 0.0
O14 O 0.11561 0.5701 0.12878 0.0
H15 H 0.08234 0.53425 0.23406 0.0
H16 H 0.09904 0.57918 0.3366 0.0
O17 O 0.09784 0.54283 0.07862 0.0
C18 C 0.11876 0.58469 0.15285 0.0
O19 O 0.10674 0.59437 0.1769 0.0
N20 N 0.07067 0.56122 0.10883 0.0
C21 C 0.03705 0.55873 0.11104 0.0
C22 C 0.04642 0.5471 0.06211 0.0
C23 C 0.06332 0.54862 0.06118 0.0
C24 C 0.06167 0.57274 0.15528 0.0
C25 C 0.04478 0.57172 0.15744 0.0
H26 H 0.07038 0.53968 0.02223 0.0
H27 H 0.06772 0.58271 0.19157 0.0
H28 H 0.09268 0.55029 0.89575 0.0
H29 H 0.09288 0.59939 0.81501 0.0
H30 H 0.08241 0.53349 0.42692 0.0
H31 H 0.04069 0.53701 0.02492 0.0
H32 H 0.03781 0.58091 0.19541 0.0
C33 C 0.65574 0.83451 0.16177 0.0
C34 C 0.65371 0.83396 0.06219 0.0
N35 N 0.66843 0.83483 0.02054 0.0
N36 N 0.67171 0.83532 0.18404 0.0
C37 C 0.67908 0.83587 0.09537 0.0
H38 H 0.64612 0.83411 0.2153 0.0
Co39 Co 0.67873 0.83569 0.3172 0.0
C40 C 0.71238 0.83456 0.22909 0.0
O41 O 0.70961 0.82064 0.18558 0.0
N42 N 0.68491 0.83669 0.45022 0.0
C43 C 0.69623 0.84596 0.58699 0.0
C44 C 0.69671 0.84631 0.48687 0.0
C45 C 0.67729 0.8307 0.53025 0.0
N46 N 0.68403 0.83618 0.61432 0.0
O47 O 0.67316 0.8583 0.32248 0.0
H48 H 0.70462 0.85392 0.44394 0.0
H49 H 0.66649 0.82326 0.527 0.0
O50 O 0.70123 0.84151 0.27897 0.0
C51 C 0.6597 0.86133 0.36439 0.0
O52 O 0.65143 0.84931 0.40248 0.0
N53 N 0.68317 0.81302 0.31326 0.0
C54 C 0.69111 0.78109 0.26056 0.0
C55 C 0.70078 0.78992 0.32746 0.0
C56 C 0.69668 0.80594 0.3518 0.0
C57 C 0.67172 0.80329 0.27181 0.0
C58 C 0.67538 0.78737 0.24535 0.0
H59 H 0.7047 0.81282 0.39797 0.0
H60 H 0.65975 0.80788 0.25664 0.0
H61 H 0.69191 0.83713 0.08391 0.0
H62 H 0.64232 0.8331 0.0232 0.0
H63 H 0.70374 0.85299 0.6362 0.0
H64 H 0.71142 0.7849 0.36159 0.0
H65 H 0.66588 0.78029 0.21158 0.0
C66 C 0.4077 0.40766 0.39159 0.0
C67 C 0.40707 0.40585 0.29183 0.0
N68 N 0.4035 0.42034 0.2526 0.0
N69 N 0.4044 0.42319 0.416 0.0
C70 C 0.40196 0.43065 0.32901 0.0
H71 H 0.41085 0.39827 0.44314 0.0
Co72 Co 0.40498 0.43046 0.54739 0.0
C73 C 0.40597 0.46685 0.501 0.0
O74 O 0.42156 0.46807 0.51834 0.0
N75 N 0.40548 0.43706 0.68223 0.0
C76 C 0.412 0.45011 0.81993 0.0
C77 C 0.41266 0.45043 0.72009 0.0
C78 C 0.40089 0.42856 0.7627 0.0
N79 N 0.40464 0.43634 0.84699 0.0
O80 O 0.38226 0.42547 0.55876 0.0
H81 H 0.41923 0.45935 0.67962 0.0
H82 H 0.39574 0.41652 0.76017 0.0
O83 O 0.39878 0.45309 0.50838 0.0
C84 C 0.37946 0.41064 0.5786 0.0
O85 O 0.39175 0.40083 0.59376 0.0
N86 N 0.42774 0.43374 0.53613 0.0
C87 C 0.46154 0.43434 0.52517 0.0
C88 C 0.45216 0.44082 0.44979 0.0
C89 C 0.43523 0.44015 0.4559 0.0
C90 C 0.43688 0.42651 0.60699 0.0
C91 C 0.45379 0.427 0.60405 0.0
H92 H 0.42822 0.44512 0.39672 0.0
H93 H 0.43107 0.42007 0.66591 0.0
H94 H 0.40017 0.4435 0.32085 0.0
H95 H 0.40966 0.39491 0.25088 0.0
H96 H 0.41745 0.45881 0.86927 0.0
H97 H 0.45787 0.44629 0.3868 0.0
H98 H 0.46077 0.42145 0.66204 0.0
C99 C 0.83248 0.17322 0.69663 0.0
C100 C 0.83393 0.17321 0.5969 0.0
N101 N 0.82675 0.15978 0.5625 0.0
N102 N 0.82392 0.1601 0.72604 0.0
C103 C 0.82126 0.15175 0.642 0.0
H104 H 0.83723 0.18251 0.74419 0.0
Co105 Co 0.81829 0.15608 0.85893 0.0
C106 C 0.78461 0.14847 0.76317 0.0
O107 O 0.78824 0.14974 0.67061 0.0
N108 N 0.81333 0.15189 0.99255 0.0
C109 C 0.80204 0.1405 0.12378 0.0
C110 C 0.8018 0.14142 0.02371 0.0
C111 C 0.82069 0.15687 0.0762 0.0
N112 N 0.81392 0.1502 0.1566 0.0
O113 O 0.82447 0.13374 0.84353 0.0
H114 H 0.79384 0.13448 0.97689 0.0
H115 H 0.83102 0.1649 0.07898 0.0
O116 O 0.79543 0.15089 0.82831 0.0
C117 C 0.83866 0.13074 0.87562 0.0
O118 O 0.84708 0.14254 0.91554 0.0
N119 N 0.81317 0.17843 0.87433 0.0
C120 C 0.81362 0.21225 0.84568 0.0
C121 C 0.80027 0.20271 0.81623 0.0
C122 C 0.80069 0.18588 0.82662 0.0
C123 C 0.82455 0.1877 0.92012 0.0
C124 C 0.82459 0.2046 0.91006 0.0
H125 H 0.79148 0.17904 0.78961 0.0
H126 H 0.83463 0.18199 0.95658 0.0
H127 H 0.81529 0.14009 0.63855 0.0
H128 H 0.83937 0.1826 0.55259 0.0
H129 H 0.79417 0.1332 0.16916 0.0
H130 H 0.78968 0.20777 0.78172 0.0
H131 H 0.83377 0.21134 0.94908 0.0
C132 C 0.0835 0.41468 1.01831 0.0
C133 C 0.08379 0.41318 0.11837 0.0
N134 N 0.08951 0.42709 0.15659 0.0
N135 N 0.08896 0.4295 0.99272 0.0
C136 C 0.09276 0.43672 0.07904 0.0
H137 H 0.07881 0.4058 0.96743 0.0
Co138 Co 0.08816 0.43722 0.86204 0.0
C139 C 0.0878 0.47316 0.91965 0.0
O140 O 0.07255 0.47556 0.89613 0.0
N141 N 0.08755 0.44439 0.72812 0.0
C142 C 0.08469 0.45895 0.5916 0.0
C143 C 0.08426 0.45929 0.69175 0.0
C144 C 0.08976 0.43516 0.64659 0.0
N145 N 0.08817 0.44379 0.56302 0.0
O146 O 0.11071 0.43186 0.84763 0.0
H147 H 0.08135 0.4699 0.73341 0.0
H148 H 0.09202 0.42225 0.64801 0.0
O149 O 0.09446 0.45924 0.90785 0.0
C150 C 0.1128 0.41699 0.82523 0.0
O151 O 0.10002 0.40783 0.80977 0.0
N152 N 0.06552 0.44074 0.87637 0.0
C153 C 0.0329 0.43412 0.92359 0.0
C154 C 0.04255 0.44433 0.98235 0.0
C155 C 0.05889 0.44676 0.96009 0.0
C156 C 0.05574 0.4331 0.81054 0.0
C157 C 0.03936 0.43024 0.83114 0.0
H158 H 0.06636 0.45275 1.01344 0.0
H159 H 0.0608 0.42809 0.74442 0.0
H160 H 0.09708 0.44905 0.08562 0.0
H161 H 0.07937 0.40299 0.16022 0.0
H162 H 0.08227 0.46901 0.54312 0.0
H163 H 0.03816 0.45027 0.04691 0.0
H164 H 0.03213 0.42425 0.776 0.0
C165 C 0.82892 0.81813 0.28175 0.0
C166 C 0.82962 0.81798 0.38216 0.0
N167 N 0.82019 0.83004 0.41603 0.0
N168 N 0.8189 0.8301 0.252 0.0
C169 C 0.81402 0.83738 0.33593 0.0
H170 H 0.83513 0.80981 0.23344 0.0
Co171 Co 0.81345 0.83447 0.12066 0.0
C172 C 0.77774 0.83857 0.12201 0.0
O173 O 0.77727 0.82982 0.04184 0.0
N174 N 0.80833 0.83932 0.98654 0.0
C175 C 0.80082 0.85445 0.85889 0.0
C176 C 0.80118 0.85337 0.95901 0.0
C177 C 0.81245 0.8322 0.90028 0.0
N178 N 0.80792 0.84113 0.82216 0.0
O179 O 0.82214 0.85603 0.13656 0.0
H180 H 0.79694 0.8626 1.00902 0.0
H181 H 0.8193 0.82111 0.89338 0.0
O182 O 0.7915 0.84177 0.16138 0.0
C183 C 0.83549 0.85797 0.091 0.0
O184 O 0.84046 0.84633 0.03249 0.0
N185 N 0.80671 0.81262 0.1068 0.0
C186 C 0.80311 0.77895 0.10317 0.0
C187 C 0.79242 0.7886 0.15725 0.0
C188 C 0.79468 0.8054 0.16008 0.0
C189 C 0.8175 0.80322 0.05672 0.0
C190 C 0.81575 0.78639 0.05223 0.0
H191 H 0.78733 0.81234 0.20974 0.0
H192 H 0.8282 0.8087 0.02547 0.0
H193 H 0.80602 0.84778 0.33857 0.0
H194 H 0.83631 0.80951 0.42704 0.0
H195 H 0.79618 0.86447 0.81628 0.0
H196 H 0.78294 0.78311 0.20079 0.0
H197 H 0.82463 0.77918 1.01327 0.0
C198 C 0.42471 0.58153 0.53766 0.0
C199 C 0.4249 0.58223 0.6381 0.0
N200 N 0.41303 0.57258 0.67189 0.0
N201 N 0.41289 0.57132 0.50782 0.0
C202 C 0.40577 0.56628 0.59173 0.0
H203 H 0.43283 0.58796 0.48941 0.0
Co204 Co 0.40836 0.56602 0.37636 0.0
C205 C 0.40321 0.53037 0.37727 0.0
O206 O 0.41173 0.52945 0.29647 0.0
N207 N 0.40335 0.56105 0.24227 0.0
C208 C 0.38808 0.55399 0.114 0.0
C209 C 0.38911 0.55431 0.21416 0.0
C210 C 0.41065 0.56496 0.15636 0.0
N211 N 0.40163 0.5607 0.07783 0.0
O212 O 0.38692 0.5749 0.39319 0.0
H213 H 0.37974 0.55032 0.2638 0.0
H214 H 0.42196 0.57144 0.15011 0.0
O215 O 0.40072 0.54425 0.41677 0.0
C216 C 0.38519 0.58842 0.34941 0.0
O217 O 0.39687 0.59336 0.29143 0.0
N218 N 0.43016 0.55911 0.36169 0.0
C219 C 0.46394 0.55623 0.36348 0.0
C220 C 0.45429 0.545 0.41292 0.0
C221 C 0.4374 0.54679 0.41245 0.0
C222 C 0.43954 0.57026 0.31479 0.0
C223 C 0.45644 0.56889 0.3131 0.0
H224 H 0.43044 0.53888 0.45821 0.0
H225 H 0.43396 0.58099 0.28443 0.0
H226 H 0.39552 0.55809 0.59432 0.0
H227 H 0.43322 0.58912 0.68303 0.0
H228 H 0.37796 0.54964 0.07095 0.0
H229 H 0.45979 0.53541 0.4555 0.0
H230 H 0.46362 0.57813 0.27736 0.0
C231 C 0.65994 0.16374 0.85936 0.0
C232 C 0.65864 0.16411 0.95948 0.0
N233 N 0.67256 0.15841 0.99755 0.0
N234 N 0.67464 0.1579 0.83406 0.0
C235 C 0.68205 0.15461 0.92022 0.0
H236 H 0.65091 0.16788 0.80788 0.0
Co237 Co 0.68175 0.15706 0.70368 0.0
C238 C 0.71776 0.15846 0.71897 0.0
O239 O 0.71773 0.16969 0.65116 0.0
N240 N 0.68832 0.15568 0.56886 0.0
C241 C 0.69953 0.14476 0.43516 0.0
C242 C 0.69953 0.14503 0.53526 0.0
C243 C 0.68121 0.16126 0.48563 0.0
N244 N 0.68802 0.15498 0.40394 0.0
O245 O 0.67681 0.13434 0.70015 0.0
H246 H 0.70661 0.13703 0.58024 0.0
H247 H 0.67044 0.16868 0.48367 0.0
O248 O 0.70429 0.15228 0.74749 0.0
C249 C 0.66336 0.13123 0.65827 0.0
O250 O 0.65507 0.14319 0.61954 0.0
N251 N 0.68525 0.17978 0.7096 0.0
C252 C 0.68588 0.21334 0.73764 0.0
C253 C 0.69509 0.20315 0.79704 0.0
C254 C 0.69429 0.1864 0.78324 0.0
C255 C 0.67554 0.18958 0.65471 0.0
C256 C 0.67594 0.20645 0.66593 0.0
H257 H 0.70036 0.17871 0.83512 0.0
H258 H 0.66664 0.18439 0.60659 0.0
H259 H 0.69431 0.15004 0.92662 0.0
H260 H 0.6484 0.16851 1.00134 0.0
H261 H 0.70682 0.137 0.38876 0.0
H262 H 0.70242 0.20807 0.85561 0.0
H263 H 0.66814 0.21401 0.62154 0.0
C264 C 0.92232 0.40991 0.07568 0.0
C265 C 0.92225 0.40857 0.17574 0.0
N266 N 0.91141 0.41918 0.2116 0.0
N267 N 0.91182 0.42161 0.04729 0.0
C268 C 0.90483 0.42647 0.1324 0.0
H269 H 0.92979 0.40279 0.02731 0.0
Co270 Co 0.90867 0.42867 0.9149 0.0
C271 C 0.90932 0.46064 0.02677 0.0
O272 O 0.92006 0.45546 0.09023 0.0
N273 N 0.90531 0.43499 0.78263 0.0
C274 C 0.89687 0.44841 0.65067 0.0
C275 C 0.89745 0.44839 0.75105 0.0
C276 C 0.90909 0.42687 0.69916 0.0
N277 N 0.90409 0.43483 0.61799 0.0
O278 O 0.88607 0.42392 0.92594 0.0
H279 H 0.8921 0.45753 0.7976 0.0
H280 H 0.91522 0.41527 0.69769 0.0
O281 O 0.90452 0.45136 0.95755 0.0
C282 C 0.88364 0.40912 0.90354 0.0
O283 O 0.89612 0.40016 0.87787 0.0
N284 N 0.93126 0.43179 0.90013 0.0
C285 C 0.96486 0.42787 0.92074 0.0
C286 C 0.95752 0.44327 0.93013 0.0
C287 C 0.94069 0.44495 0.92051 0.0
C288 C 0.93849 0.41793 0.86823 0.0
C289 C 0.95527 0.41586 0.87523 0.0
H290 H 0.93554 0.45672 0.93224 0.0
H291 H 0.93106 0.40793 0.8435 0.0
H292 H 0.89545 0.43553 0.13681 0.0
H293 H 0.92995 0.40077 0.21918 0.0
H294 H 0.89133 0.45756 0.60498 0.0
H295 H 0.96456 0.45392 0.94856 0.0
H296 H 0.96011 0.40473 0.84647 0.0
C297 C 0.33249 0.16725 0.90772 0.0
C298 C 0.33355 0.16813 1.00768 0.0
N299 N 0.31995 0.1617 0.04546 0.0
N300 N 0.31826 0.16038 0.8821 0.0
C301 C 0.31084 0.15707 0.96807 0.0
H302 H 0.34155 0.17138 0.85643 0.0
Co303 Co 0.31267 0.15755 0.75058 0.0
C304 C 0.28117 0.14176 0.81013 0.0
O305 O 0.28823 0.12865 0.84394 0.0
N306 N 0.30735 0.1545 0.61653 0.0
C307 C 0.29701 0.14266 0.48368 0.0
C308 C 0.29728 0.14273 0.58375 0.0
C309 C 0.31327 0.16129 0.53359 0.0
N310 N 0.30702 0.15435 0.45229 0.0
O311 O 0.31819 0.13498 0.75967 0.0
H312 H 0.29104 0.13409 0.62929 0.0
H313 H 0.32246 0.17061 0.5318 0.0
O314 O 0.29008 0.15342 0.78142 0.0
C315 C 0.33228 0.13189 0.72624 0.0
O316 O 0.34071 0.14369 0.68681 0.0
N317 N 0.3085 0.17995 0.74294 0.0
C318 C 0.30712 0.21371 0.74916 0.0
C319 C 0.29497 0.20443 0.79315 0.0
C320 C 0.29599 0.18752 0.79038 0.0
C321 C 0.3206 0.1889 0.70188 0.0
C322 C 0.32003 0.20584 0.70279 0.0
H323 H 0.28711 0.1807 0.83081 0.0
H324 H 0.33112 0.18286 0.67191 0.0
H325 H 0.29905 0.15144 0.9745 0.0
H326 H 0.34357 0.17297 0.04968 0.0
H327 H 0.29042 0.13431 0.43726 0.0
H328 H 0.28505 0.21022 0.83161 0.0
H329 H 0.3298 0.21273 0.67019 0.0
C330 C 0.57351 0.58181 0.58899 0.0
C331 C 0.5732 0.58253 0.6893 0.0
N332 N 0.58491 0.57274 0.72374 0.0
N333 N 0.58519 0.57139 0.5597 0.0
C334 C 0.59211 0.56621 0.64396 0.0
H335 H 0.56562 0.58846 0.54038 0.0
Co336 Co 0.58986 0.56645 0.42787 0.0
C337 C 0.5934 0.53056 0.42243 0.0
O338 O 0.58516 0.53041 0.34036 0.0
N339 N 0.59497 0.56196 0.29411 0.0
C340 C 0.60969 0.55386 0.16583 0.0
C341 C 0.60871 0.55426 0.26597 0.0
C342 C 0.58797 0.56643 0.20836 0.0
N343 N 0.59663 0.56151 0.12989 0.0
O344 O 0.61176 0.57387 0.44674 0.0
H345 H 0.61777 0.54958 0.31557 0.0
H346 H 0.57705 0.57356 0.20212 0.0
O347 O 0.59628 0.54411 0.46501 0.0
C348 C 0.6133 0.58905 0.43212 0.0
O349 O 0.60044 0.59759 0.40859 0.0
N350 N 0.56777 0.56067 0.40962 0.0
C351 C 0.53412 0.55765 0.39265 0.0
C352 C 0.54311 0.54612 0.44425 0.0
C353 C 0.5599 0.54807 0.45397 0.0
C354 C 0.55898 0.5723 0.36266 0.0
C355 C 0.54218 0.57092 0.35194 0.0
H356 H 0.56628 0.5398 0.5007 0.0
H357 H 0.56497 0.58316 0.33719 0.0
H358 H 0.6022 0.55782 0.64698 0.0
H359 H 0.56502 0.58968 0.73376 0.0
H360 H 0.61943 0.54873 0.12267 0.0
H361 H 0.53711 0.53606 0.47991 0.0
H362 H 0.53546 0.58036 0.31479 0.0
C363 C 0.1682 0.81864 0.35437 0.0
C364 C 0.1677 0.81869 0.45461 0.0
N365 N 0.17455 0.83246 0.48653 0.0
N366 N 0.17568 0.8322 0.32157 0.0
C367 C 0.17894 0.84062 0.40488 0.0
H368 H 0.16326 0.80909 0.30972 0.0
Co369 Co 0.18045 0.83806 0.18848 0.0
C370 C 0.21289 0.84022 0.28818 0.0
O371 O 0.20988 0.82701 0.33829 0.0
N372 N 0.18474 0.84405 0.05742 0.0
C373 C 0.19422 0.85738 0.92798 0.0
C374 C 0.1942 0.85652 0.02834 0.0
C375 C 0.17897 0.83763 0.97291 0.0
N376 N 0.18462 0.84552 0.89327 0.0
O377 O 0.17233 0.85957 0.21389 0.0
H378 H 0.20062 0.86461 0.07704 0.0
H379 H 0.1708 0.82737 0.96953 0.0
O380 O 0.20243 0.84543 0.22669 0.0
C381 C 0.1579 0.86211 0.18415 0.0
O382 O 0.15012 0.85039 0.13909 0.0
N383 N 0.18718 0.81656 0.1589 0.0
C384 C 0.19166 0.78344 0.12647 0.0
C385 C 0.20504 0.79372 0.13787 0.0
C386 C 0.20255 0.81039 0.15179 0.0
C387 C 0.17423 0.8069 0.13723 0.0
C388 C 0.17613 0.79024 0.1228 0.0
H389 H 0.21302 0.81805 0.15734 0.0
H390 H 0.16217 0.81211 0.13596 0.0
H391 H 0.18452 0.85248 0.40553 0.0
H392 H 0.16282 0.80925 0.50082 0.0
H393 H 0.20077 0.86603 0.88371 0.0
H394 H 0.21726 0.78888 0.13766 0.0
H395 H 0.16555 0.78267 0.11165 0.0
C396 C 0.9243 0.58071 0.97119 0.0
C397 C 0.92461 0.5815 0.87094 0.0
N398 N 0.91428 0.57031 0.83578 0.0
N399 N 0.91396 0.56893 0.99948 0.0
C400 C 0.90779 0.56299 0.91493 0.0
H401 H 0.93142 0.58807 0.02053 0.0
Co402 Co 0.91071 0.56298 0.13054 0.0
C403 C 0.90941 0.52705 0.12788 0.0
O404 O 0.91893 0.5271 0.20474 0.0
N405 N 0.90697 0.55751 0.26468 0.0
C406 C 0.89285 0.54888 0.39389 0.0
C407 C 0.89365 0.54924 0.29377 0.0
C408 C 0.91392 0.56234 0.35004 0.0
N409 N 0.9056 0.55713 0.4291 0.0
O410 O 0.8884 0.56941 0.12026 0.0
H411 H 0.88455 0.54441 0.24487 0.0
H412 H 0.92434 0.57018 0.35567 0.0
O413 O 0.90497 0.54056 0.09015 0.0
C414 C 0.88569 0.58348 0.15522 0.0
O415 O 0.89771 0.59152 0.19551 0.0
N416 N 0.93312 0.55809 0.13928 0.0
C417 C 0.96694 0.55673 0.13406 0.0
C418 C 0.95769 0.54575 0.07986 0.0
C419 C 0.94078 0.54684 0.0819 0.0
C420 C 0.94209 0.56928 0.189 0.0
C421 C 0.95904 0.56861 0.18925 0.0
H422 H 0.93403 0.53923 0.03286 0.0
H423 H 0.93613 0.57945 0.22341 0.0
H424 H 0.89877 0.55349 0.91112 0.0
H425 H 0.93201 0.58949 0.82702 0.0
H426 H 0.88331 0.54355 0.43756 0.0
H427 H 0.9635 0.53686 0.03327 0.0
H428 H 0.96591 0.57773 0.22845 0.0
C429 C 0.15953 0.16884 0.76395 0.0
C430 C 0.15861 0.16952 0.6638 0.0
N431 N 0.17209 0.16267 0.62686 0.0
N432 N 0.17355 0.16165 0.79036 0.0
C433 C 0.18097 0.15792 0.70486 0.0
H434 H 0.15057 0.17338 0.81475 0.0
Co435 Co 0.17952 0.15877 0.92126 0.0
C436 C 0.21566 0.15725 0.92218 0.0
O437 O 0.21594 0.16621 1.00151 0.0
N438 N 0.18502 0.15545 0.05592 0.0
C439 C 0.19402 0.14211 0.1872 0.0
C440 C 0.19355 0.14242 0.08717 0.0
C441 C 0.18009 0.16268 0.14024 0.0
N442 N 0.18557 0.15487 0.22045 0.0
O443 O 0.1738 0.13619 0.91103 0.0
H444 H 0.19847 0.13315 0.04028 0.0
H445 H 0.17195 0.17289 0.14437 0.0
O446 O 0.20207 0.15367 0.882 0.0
C447 C 0.16002 0.13254 0.94699 0.0
O448 O 0.15153 0.14386 0.99103 0.0
N449 N 0.18377 0.18126 0.9286 0.0
C450 C 0.18493 0.2151 0.92081 0.0
C451 C 0.19589 0.20572 0.86687 0.0
C452 C 0.19483 0.1888 0.86989 0.0
C453 C 0.17248 0.19029 0.9771 0.0
C454 C 0.17306 0.20724 0.97613 0.0
H455 H 0.20224 0.18185 0.82028 0.0
H456 H 0.16236 0.18435 1.01199 0.0
H457 H 0.1926 0.15189 0.69952 0.0
H458 H 0.14879 0.17459 0.62114 0.0
H459 H 0.19945 0.13281 0.23225 0.0
H460 H 0.20472 0.21144 0.81966 0.0
H461 H 0.16392 0.21415 1.01489 0.0
C462 C 0.58629 0.40704 0.4178 0.0
C463 C 0.58698 0.40529 0.3181 0.0
N464 N 0.5902 0.41987 0.27908 0.0
N465 N 0.58924 0.42263 0.44246 0.0
C466 C 0.59152 0.43018 0.35562 0.0
H467 H 0.58321 0.3976 0.46906 0.0
Co468 Co 0.58791 0.42975 0.5738 0.0
C469 C 0.58759 0.46633 0.53217 0.0
O470 O 0.57199 0.46783 0.54818 0.0
N471 N 0.58655 0.43616 0.70869 0.0
C472 C 0.57894 0.44876 0.84587 0.0
C473 C 0.57834 0.44897 0.74601 0.0
C474 C 0.59165 0.42804 0.78951 0.0
N475 N 0.58728 0.43559 0.87346 0.0
O476 O 0.61059 0.42463 0.59006 0.0
H477 H 0.57116 0.45738 0.70508 0.0
H478 H 0.59769 0.41642 0.78756 0.0
O479 O 0.59449 0.4524 0.53786 0.0
C480 C 0.61341 0.40981 0.61019 0.0
O481 O 0.60113 0.39992 0.62317 0.0
N482 N 0.56531 0.43319 0.55708 0.0
C483 C 0.53166 0.43392 0.53657 0.0
C484 C 0.5416 0.44123 0.46688 0.0
C485 C 0.55845 0.4404 0.47731 0.0
C486 C 0.55568 0.42528 0.62259 0.0
C487 C 0.5388 0.42571 0.61457 0.0
H488 H 0.5659 0.44588 0.4219 0.0
H489 H 0.5611 0.41839 0.68114 0.0
H490 H 0.59293 0.44309 0.34762 0.0
H491 H 0.58453 0.39433 0.27699 0.0
H492 H 0.57285 0.45709 0.89485 0.0
H493 H 0.53638 0.44738 0.40461 0.0
H494 H 0.53138 0.41959 0.6683 0.0
C495 C 0.33161 0.84118 0.22665 0.0
C496 C 0.33247 0.84123 0.12635 0.0
N497 N 0.31728 0.84182 0.09083 0.0
N498 N 0.31593 0.84188 0.25487 0.0
C499 C 0.30744 0.84213 0.16992 0.0
H500 H 0.3418 0.84039 0.27596 0.0
Co501 Co 0.30924 0.84121 0.3865 0.0
C502 C 0.27862 0.85993 0.36132 0.0
O503 O 0.28458 0.87295 0.40348 0.0
N504 N 0.3026 0.84017 0.51928 0.0
C505 C 0.28742 0.83467 0.64994 0.0
C506 C 0.28792 0.83488 0.54969 0.0
C507 C 0.31096 0.84275 0.60336 0.0
N508 N 0.30189 0.83965 0.68357 0.0
O509 O 0.31546 0.86355 0.40169 0.0
H510 H 0.27823 0.83101 0.50191 0.0
H511 H 0.32356 0.84629 0.60634 0.0
O512 O 0.28735 0.84732 0.34948 0.0
C513 C 0.33001 0.86593 0.42961 0.0
O514 O 0.33916 0.85339 0.45072 0.0
N515 N 0.30441 0.81924 0.37236 0.0
C516 C 0.30077 0.78579 0.36271 0.0
C517 C 0.28927 0.79598 0.3193 0.0
C518 C 0.29138 0.81279 0.32423 0.0
C519 C 0.31573 0.80944 0.41417 0.0
C520 C 0.31414 0.79262 0.41029 0.0
H521 H 0.28257 0.82049 0.28895 0.0
H522 H 0.32605 0.81479 0.45091 0.0
H523 H 0.29434 0.84211 0.16566 0.0
H524 H 0.34339 0.84056 0.08264 0.0
H525 H 0.27733 0.83084 0.69486 0.0
H526 H 0.27888 0.79097 0.28143 0.0
H527 H 0.32324 0.785 0.44417 0.0
C528 C 0.5748 0.08103 0.46803 0.0
C529 C 0.57483 0.08217 0.36788 0.0
N530 N 0.58644 0.07232 0.33297 0.0
N531 N 0.58613 0.07022 0.49754 0.0
C532 C 0.59349 0.0657 0.41286 0.0
H533 H 0.56678 0.08772 0.51543 0.0
Co534 Co 0.59012 0.06355 0.63004 0.0
C535 C 0.59004 0.03168 0.51912 0.0
O536 O 0.57848 0.03661 0.46028 0.0
N537 N 0.59428 0.05755 0.76184 0.0
C538 C 0.60393 0.04474 0.89289 0.0
C539 C 0.60337 0.0449 0.7925 0.0
C540 C 0.58972 0.06512 0.84575 0.0
N541 N 0.59546 0.05752 0.92646 0.0
O542 O 0.61247 0.06939 0.61575 0.0
H543 H 0.60951 0.03638 0.74522 0.0
H544 H 0.58245 0.07604 0.84781 0.0
O545 O 0.59517 0.04099 0.58733 0.0
C546 C 0.6145 0.08419 0.63975 0.0
O547 O 0.60179 0.09268 0.66705 0.0
N548 N 0.56776 0.0593 0.64941 0.0
C549 C 0.53413 0.05903 0.67182 0.0
C550 C 0.54251 0.0447 0.65065 0.0
C551 C 0.55941 0.04503 0.64161 0.0
C552 C 0.55982 0.07302 0.67809 0.0
C553 C 0.54297 0.07324 0.68855 0.0
H554 H 0.56545 0.03377 0.62812 0.0
H555 H 0.56662 0.08409 0.68938 0.0
H556 H 0.60353 0.05734 0.40939 0.0
H557 H 0.56664 0.08934 0.32374 0.0
H558 H 0.61029 0.03605 0.93799 0.0
H559 H 0.53603 0.0334 0.64017 0.0
H560 H 0.53686 0.08446 0.70714 0.0
C561 C 0.16403 0.32265 0.65972 0.0
C562 C 0.16344 0.32278 0.5595 0.0
N563 N 0.17156 0.33583 0.52785 0.0
N564 N 0.17282 0.33541 0.69271 0.0
C565 C 0.17681 0.3435 0.6096 0.0
H566 H 0.15824 0.31362 0.70429 0.0
Co567 Co 0.17809 0.34071 0.82602 0.0
C568 C 0.21065 0.33992 0.72712 0.0
O569 O 0.20627 0.32749 0.67331 0.0
N570 N 0.18289 0.3462 0.95743 0.0
C571 C 0.19353 0.3586 0.08736 0.0
C572 C 0.19349 0.35771 0.98701 0.0
C573 C 0.17648 0.34039 0.04165 0.0
N574 N 0.18281 0.34773 0.12154 0.0
O575 O 0.17214 0.36291 0.80146 0.0
H576 H 0.20066 0.36517 0.93866 0.0
H577 H 0.16735 0.33098 0.04464 0.0
O578 O 0.20073 0.34588 0.78936 0.0
C579 C 0.15828 0.36685 0.83521 0.0
O580 O 0.14981 0.35597 0.88291 0.0
N581 N 0.18267 0.31863 0.85476 0.0
C582 C 0.18414 0.28534 0.89047 0.0
C583 C 0.19837 0.2943 0.87672 0.0
C584 C 0.1974 0.31104 0.86095 0.0
C585 C 0.1689 0.31026 0.8773 0.0
C586 C 0.16929 0.29354 0.8936 0.0
H587 H 0.20854 0.31762 0.85393 0.0
H588 H 0.15738 0.31656 0.87875 0.0
H589 H 0.18351 0.35475 0.60912 0.0
H590 H 0.15763 0.31386 0.51311 0.0
H591 H 0.20084 0.36661 0.13197 0.0
H592 H 0.2101 0.28837 0.87717 0.0
H593 H 0.15809 0.28702 0.90646 0.0
C594 C 0.92137 0.91644 0.96022 0.0
C595 C 0.92171 0.91588 0.85984 0.0
N596 N 0.91011 0.92585 0.82585 0.0
N597 N 0.90972 0.92687 0.98974 0.0
C598 C 0.90286 0.93223 0.90579 0.0
H599 H 0.92927 0.90979 1.00878 0.0
Co600 Co 0.90535 0.93202 0.12111 0.0
C601 C 0.89979 0.96741 0.12296 0.0
O602 O 0.9092 0.96806 0.20027 0.0
N603 N 0.90049 0.93686 0.2555 0.0
C604 C 0.885 0.94348 0.38358 0.0
C605 C 0.886 0.94305 0.28352 0.0
C606 C 0.90801 0.93342 0.34146 0.0
N607 N 0.89885 0.93742 0.41983 0.0
O608 O 0.88417 0.92239 0.10641 0.0
H609 H 0.87644 0.94658 0.23386 0.0
H610 H 0.91959 0.92743 0.34795 0.0
O611 O 0.89696 0.95366 0.08242 0.0
C612 C 0.88316 0.90885 0.15096 0.0
O613 O 0.89522 0.9045 0.20792 0.0
N614 N 0.92693 0.93953 0.13323 0.0
C615 C 0.96059 0.94281 0.12285 0.0
C616 C 0.95048 0.95357 0.07289 0.0
C617 C 0.93366 0.95156 0.07767 0.0
C618 C 0.93676 0.92883 0.18072 0.0
C619 C 0.95362 0.93044 0.17826 0.0
H620 H 0.92628 0.95895 0.03101 0.0
H621 H 0.93157 0.91818 0.21411 0.0
H622 H 0.89279 0.94063 0.90299 0.0
H623 H 0.9299 0.9088 0.81507 0.0
H624 H 0.87471 0.94742 0.42654 0.0
H625 H 0.95557 0.96289 0.02653 0.0
H626 H 0.96117 0.92154 0.21448 0.0
C627 C 0.33462 0.67094 0.21737 0.0
C628 C 0.33566 0.67172 0.11714 0.0
N629 N 0.32193 0.66553 0.07938 0.0
N630 N 0.32032 0.66425 0.2431 0.0
C631 C 0.3128 0.66111 0.15689 0.0
H632 H 0.34371 0.67503 0.26865 0.0
Co633 Co 0.31426 0.66109 0.37439 0.0
C634 C 0.28585 0.64122 0.30262 0.0
O635 O 0.2949 0.62886 0.27634 0.0
N636 N 0.30825 0.65781 0.50829 0.0
C637 C 0.29757 0.64619 0.6407 0.0
C638 C 0.29795 0.64621 0.54044 0.0
C639 C 0.31414 0.66454 0.59191 0.0
N640 N 0.30774 0.65771 0.67297 0.0
O641 O 0.3232 0.63953 0.36828 0.0
H642 H 0.29161 0.63766 0.49463 0.0
H643 H 0.32356 0.67363 0.59426 0.0
O644 O 0.29283 0.65386 0.33588 0.0
C645 C 0.33627 0.6378 0.41708 0.0
O646 O 0.34076 0.64955 0.476 0.0
N647 N 0.30704 0.68264 0.37886 0.0
C648 C 0.30152 0.71591 0.37177 0.0
C649 C 0.29117 0.70523 0.3226 0.0
C650 C 0.29428 0.68857 0.32592 0.0
C651 C 0.31739 0.69299 0.42502 0.0
C652 C 0.31471 0.7097 0.42381 0.0
H653 H 0.28696 0.68068 0.28124 0.0
H654 H 0.32827 0.68834 0.45882 0.0
H655 H 0.3009 0.65574 0.15013 0.0
H656 H 0.34573 0.67639 0.07506 0.0
H657 H 0.29084 0.63791 0.68661 0.0
H658 H 0.28119 0.70977 0.27913 0.0
H659 H 0.32321 0.71774 0.45988 0.0
C660 C 0.57211 0.9136 0.56223 0.0
C661 C 0.57192 0.91309 0.66258 0.0
N662 N 0.5833 0.92338 0.69597 0.0
N663 N 0.58341 0.92434 0.53217 0.0
C664 C 0.59027 0.92989 0.61577 0.0
H665 H 0.56426 0.90678 0.51414 0.0
Co666 Co 0.58722 0.92995 0.40078 0.0
C667 C 0.589 0.96599 0.4051 0.0
O668 O 0.57961 0.96632 0.32767 0.0
N669 N 0.59159 0.93519 0.26703 0.0
C670 C 0.60566 0.94486 0.14029 0.0
C671 C 0.60461 0.94411 0.24019 0.0
C672 C 0.58534 0.92999 0.18046 0.0
N673 N 0.59364 0.93582 0.10265 0.0
O674 O 0.60931 0.92315 0.41299 0.0
H675 H 0.61324 0.94936 0.29054 0.0
H676 H 0.57532 0.92167 0.17328 0.0
O677 O 0.59317 0.95231 0.4415 0.0
C678 C 0.61069 0.90791 0.40032 0.0
O679 O 0.59747 0.89924 0.38767 0.0
N680 N 0.56491 0.93513 0.38835 0.0
C681 C 0.53105 0.93647 0.38756 0.0
C682 C 0.54007 0.94778 0.44092 0.0
C683 C 0.55698 0.94663 0.44249 0.0
C684 C 0.55617 0.9238 0.33818 0.0
C685 C 0.53923 0.92436 0.33568 0.0
H686 H 0.56348 0.95443 0.49173 0.0
H687 H 0.56231 0.91357 0.30561 0.0
H688 H 0.60002 0.93867 0.6181 0.0
H689 H 0.56392 0.90591 0.70775 0.0
H690 H 0.61493 0.95098 0.09833 0.0
H691 H 0.53403 0.95688 0.48501 0.0
H692 H 0.53254 0.91504 0.29695 0.0
C693 C 0.32919 0.35455 0.85383 0.0
C694 C 0.32905 0.3558 0.95365 0.0
N695 N 0.31671 0.34682 0.98779 0.0
N696 N 0.31677 0.3451 0.82353 0.0
C697 C 0.30942 0.34045 0.90777 0.0
H698 H 0.33841 0.35964 0.80735 0.0
Co699 Co 0.3132 0.33871 0.69187 0.0
C700 C 0.27762 0.34191 0.65488 0.0
O701 O 0.27841 0.33117 0.58429 0.0
N702 N 0.31027 0.33211 0.55743 0.0
C703 C 0.30888 0.31679 0.42267 0.0
C704 C 0.30979 0.3167 0.52243 0.0
C705 C 0.30953 0.34132 0.4751 0.0
N706 N 0.30885 0.33224 0.39268 0.0
O707 O 0.31852 0.3604 0.64929 0.0
H708 H 0.31041 0.3058 0.56504 0.0
H709 H 0.3099 0.35442 0.47475 0.0
O710 O 0.2904 0.34537 0.70346 0.0
C711 C 0.33296 0.36259 0.61887 0.0
O712 O 0.34274 0.35002 0.61394 0.0
N713 N 0.30925 0.31736 0.73493 0.0
C714 C 0.3078 0.28398 0.763 0.0
C715 C 0.29371 0.29342 0.76942 0.0
C716 C 0.29469 0.31021 0.756 0.0
C717 C 0.32323 0.30853 0.73842 0.0
C718 C 0.32278 0.29173 0.75118 0.0
H719 H 0.28369 0.31717 0.7608 0.0
H720 H 0.3347 0.31444 0.72403 0.0
H721 H 0.29938 0.33204 0.91106 0.0
H722 H 0.33794 0.362 0.99834 0.0
H723 H 0.30905 0.30627 0.37521 0.0
H724 H 0.282 0.28778 0.78111 0.0
H725 H 0.33391 0.28476 0.74735 0.0
C726 C 0.90948 0.08254 0.09011 0.0
C727 C 0.9096 0.08342 0.19053 0.0
N728 N 0.90952 0.06823 0.22584 0.0
N729 N 0.90917 0.06685 0.0616 0.0
C730 C 0.90938 0.0584 0.14663 0.0
H731 H 0.90983 0.09275 0.04102 0.0
Co732 Co 0.90973 0.0599 0.92957 0.0
C733 C 0.8889 0.03307 1.00242 0.0
O734 O 0.87655 0.04282 1.01774 0.0
N735 N 0.91061 0.05302 0.79704 0.0
C736 C 0.91414 0.03729 0.66599 0.0
C737 C 0.91388 0.03777 0.76637 0.0
C738 C 0.90927 0.06167 0.71313 0.0
N739 N 0.91121 0.05231 0.63262 0.0
O740 O 0.88775 0.06729 0.91169 0.0
H741 H 0.91633 0.02763 0.81397 0.0
H742 H 0.90731 0.07462 0.71055 0.0
O743 O 0.90218 0.03848 0.96735 0.0
C744 C 0.88594 0.08187 0.88323 0.0
O745 O 0.89886 0.09054 0.86281 0.0
N746 N 0.93144 0.05389 0.94546 0.0
C747 C 0.96473 0.04953 0.96633 0.0
C748 C 0.95386 0.03855 1.00865 0.0
C749 C 0.93714 0.04095 0.99734 0.0
C750 C 0.9419 0.0646 0.90364 0.0
C751 C 0.95864 0.0626 0.91278 0.0
H752 H 0.9289 0.03256 0.03187 0.0
H753 H 0.93714 0.07487 0.86386 0.0
H754 H 0.90983 0.04532 0.15095 0.0
H755 H 0.90992 0.09434 0.23437 0.0
H756 H 0.91653 0.02677 0.62081 0.0
H757 H 0.95827 0.02837 0.05083 0.0
H758 H 0.96677 0.07131 0.8796 0.0
C759 C 0.17011 0.67046 0.28297 0.0
C760 C 0.1696 0.67107 0.38327 0.0
N761 N 0.1818 0.66191 0.41809 0.0
N762 N 0.18263 0.66105 0.2544 0.0
C763 C 0.18951 0.6559 0.33871 0.0
H764 H 0.16187 0.67653 0.23367 0.0
Co765 Co 0.18792 0.65707 0.12329 0.0
C766 C 0.22413 0.65392 0.12107 0.0
O767 O 0.22504 0.66165 0.03767 0.0
N768 N 0.19286 0.6526 0.98878 0.0
C769 C 0.20008 0.63764 0.85939 0.0
C770 C 0.19949 0.63838 0.95944 0.0
C771 C 0.18932 0.66022 0.90329 0.0
N772 N 0.1937 0.65139 0.82425 0.0
O773 O 0.18155 0.63485 0.13978 0.0
H774 H 0.20296 0.62868 1.00774 0.0
H775 H 0.18304 0.67163 0.89724 0.0
O776 O 0.21034 0.65151 0.16154 0.0
C777 C 0.16663 0.63228 0.12144 0.0
O778 O 0.15761 0.64437 0.09064 0.0
N779 N 0.19281 0.67932 0.1099 0.0
C780 C 0.19472 0.71315 0.11087 0.0
C781 C 0.20565 0.70386 0.16546 0.0
C782 C 0.20419 0.68695 0.16603 0.0
C783 C 0.18158 0.68829 0.06068 0.0
C784 C 0.18254 0.70521 0.05813 0.0
H785 H 0.21139 0.68013 0.21709 0.0
H786 H 0.17126 0.68235 0.02767 0.0
H787 H 0.19988 0.64786 0.34216 0.0
H788 H 0.16089 0.6776 0.42747 0.0
H789 H 0.20421 0.6275 0.81563 0.0
H790 H 0.21468 0.70968 0.21108 0.0
H791 H 0.17342 0.71208 1.01902 0.0
C792 C 0.41851 0.91422 0.61009 0.0
C793 C 0.4188 0.91333 0.7105 0.0
N794 N 0.40869 0.92468 0.74619 0.0
N795 N 0.40839 0.92622 0.58195 0.0
C796 C 0.40234 0.93217 0.66705 0.0
H797 H 0.42542 0.90667 0.56072 0.0
Co798 Co 0.40458 0.93248 0.45075 0.0
C799 C 0.4026 0.96895 0.46354 0.0
O800 O 0.41016 0.97063 0.37983 0.0
N801 N 0.40041 0.93833 0.31748 0.0
C802 C 0.38705 0.9477 0.18719 0.0
C803 C 0.38771 0.94746 0.2876 0.0
C804 C 0.40709 0.93289 0.23259 0.0
N805 N 0.39925 0.93853 0.15274 0.0
O806 O 0.3821 0.92682 0.46559 0.0
H807 H 0.379 0.95306 0.33601 0.0
H808 H 0.41699 0.92436 0.22824 0.0
O809 O 0.39975 0.95472 0.4965 0.0
C810 C 0.37856 0.91314 0.4278 0.0
O811 O 0.38991 0.90501 0.38157 0.0
N812 N 0.42711 0.93651 0.43527 0.0
C813 C 0.46082 0.93671 0.41445 0.0
C814 C 0.45291 0.94941 0.46261 0.0
C815 C 0.43604 0.94901 0.47313 0.0
C816 C 0.43481 0.92383 0.39093 0.0
C817 C 0.45163 0.92379 0.37819 0.0
H818 H 0.43052 0.95857 0.51419 0.0
H819 H 0.42785 0.91341 0.3676 0.0
H820 H 0.39357 0.94192 0.67125 0.0
H821 H 0.42603 0.90512 0.75413 0.0
H822 H 0.37798 0.95367 0.14284 0.0
H823 H 0.45977 0.95938 0.49354 0.0
H824 H 0.45746 0.91358 0.34284 0.0
C825 C 0.82901 0.67123 0.32832 0.0
C826 C 0.82988 0.67106 0.42851 0.0
N827 N 0.82156 0.65816 0.46098 0.0
N828 N 0.81984 0.65868 0.29621 0.0
C829 C 0.81607 0.65057 0.37961 0.0
H830 H 0.8348 0.68017 0.28304 0.0
Co831 Co 0.81394 0.65372 0.16309 0.0
C832 C 0.78224 0.65238 0.27132 0.0
O833 O 0.78653 0.66486 0.32504 0.0
N834 N 0.80874 0.64854 0.03172 0.0
C835 C 0.79802 0.63624 0.90168 0.0
C836 C 0.79811 0.63707 1.00203 0.0
C837 C 0.81522 0.65429 0.94748 0.0
N838 N 0.80885 0.647 0.86734 0.0
O839 O 0.82147 0.63206 0.18084 0.0
H840 H 0.79104 0.6295 0.05024 0.0
H841 H 0.82452 0.66354 0.94476 0.0
O842 O 0.79177 0.64714 0.20453 0.0
C843 C 0.83664 0.63109 0.16417 0.0
O844 O 0.84461 0.64439 0.14239 0.0
N845 N 0.80781 0.6755 0.13982 0.0
C846 C 0.80401 0.70876 0.11288 0.0
C847 C 0.79042 0.6988 0.12519 0.0
C848 C 0.79257 0.68206 0.13637 0.0
C849 C 0.8209 0.68489 0.1176 0.0
C850 C 0.81935 0.70162 0.10591 0.0
H851 H 0.78195 0.67464 0.14229 0.0
H852 H 0.83279 0.67937 0.1126 0.0
H853 H 0.80911 0.63949 0.38078 0.0
H854 H 0.83585 0.67994 0.47436 0.0
H855 H 0.79074 0.62819 0.85714 0.0
H856 H 0.77833 0.70394 0.12749 0.0
H857 H 0.83005 0.70897 0.0938 0.0
C858 C 0.08957 0.08334 0.13589 0.0
C859 C 0.08947 0.08424 0.23624 0.0
N860 N 0.0896 0.06906 0.27164 0.0
N861 N 0.08995 0.06765 0.10754 0.0
C862 C 0.08973 0.0592 0.19255 0.0
H863 H 0.08928 0.09354 0.08672 0.0
Co864 Co 0.08998 0.0608 0.97557 0.0
C865 C 0.10953 0.03303 0.05219 0.0
O866 O 0.12214 0.04208 0.074 0.0
N867 N 0.08966 0.05402 0.84283 0.0
C868 C 0.08586 0.03842 0.71147 0.0
C869 C 0.08606 0.03886 0.81178 0.0
C870 C 0.09132 0.06266 0.75909 0.0
N871 N 0.08919 0.05337 0.67845 0.0
O872 O 0.11218 0.06776 0.96279 0.0
H873 H 0.08319 0.02879 0.85903 0.0
H874 H 0.09356 0.07556 0.75671 0.0
O875 O 0.0969 0.03925 1.01366 0.0
C876 C 0.1141 0.08239 0.93535 0.0
O877 O 0.10127 0.091 0.91196 0.0
N878 N 0.06809 0.05519 0.9866 0.0
C879 C 0.03466 0.05059 0.99056 0.0
C880 C 0.04507 0.039 0.03132 0.0
C881 C 0.06186 0.04157 0.02923 0.0
C882 C 0.05809 0.06659 0.94739 0.0
C883 C 0.04129 0.06454 0.94854 0.0
H884 H 0.06971 0.03263 0.06199 0.0
H885 H 0.06327 0.07734 0.91469 0.0
H886 H 0.08936 0.04612 0.19694 0.0
H887 H 0.08922 0.09518 0.28001 0.0
H888 H 0.08311 0.02802 0.6661 0.0
H889 H 0.04023 0.02813 0.06465 0.0
H890 H 0.03353 0.07371 0.91658 0.0
C891 C 0.66347 0.35411 0.89385 0.0
C892 C 0.66357 0.35539 0.99368 0.0
N893 N 0.6757 0.34616 0.02822 0.0
N894 N 0.67571 0.34436 0.864 0.0
C895 C 0.68285 0.33954 0.94857 0.0
H896 H 0.65447 0.35949 0.84703 0.0
Co897 Co 0.6797 0.33819 0.73228 0.0
C898 C 0.71554 0.34091 0.70138 0.0
O899 O 0.71487 0.33051 0.62892 0.0
N900 N 0.68309 0.3318 0.59758 0.0
C901 C 0.685 0.31669 0.46213 0.0
C902 C 0.68406 0.31647 0.56179 0.0
C903 C 0.68365 0.34112 0.51563 0.0
N904 N 0.68459 0.33216 0.43285 0.0
O905 O 0.67456 0.35999 0.69025 0.0
H906 H 0.68377 0.30549 0.60367 0.0
H907 H 0.68293 0.35421 0.51573 0.0
O908 O 0.70258 0.34459 0.7478 0.0
C909 C 0.66011 0.36205 0.6593 0.0
O910 O 0.65043 0.3494 0.65485 0.0
N911 N 0.68334 0.31671 0.77414 0.0
C912 C 0.68482 0.28314 0.79051 0.0
C913 C 0.69873 0.29257 0.80575 0.0
C914 C 0.69774 0.30945 0.79773 0.0
C915 C 0.66939 0.30784 0.77134 0.0
C916 C 0.66987 0.29094 0.77781 0.0
H917 H 0.70864 0.31641 0.80783 0.0
H918 H 0.65802 0.31382 0.75523 0.0
H919 H 0.69269 0.33089 0.95245 0.0
H920 H 0.65487 0.36191 0.03807 0.0
H921 H 0.6851 0.30623 0.41423 0.0
H922 H 0.71038 0.28687 0.81878 0.0
H923 H 0.65884 0.28399 0.76764 0.0
C924 C 0.40839 0.08901 0.54185 0.0
C925 C 0.40787 0.09077 0.44196 0.0
N926 N 0.40586 0.07601 0.402 0.0
N927 N 0.40664 0.07322 0.56549 0.0
C928 C 0.40517 0.06559 0.47795 0.0
H929 H 0.41028 0.09866 0.59405 0.0
Co930 Co 0.40708 0.06571 0.69652 0.0
C931 C 0.40782 0.02947 0.64376 0.0
O932 O 0.42318 0.02774 0.66685 0.0
N933 N 0.40737 0.05885 0.8311 0.0
C934 C 0.41236 0.04515 0.96866 0.0
C935 C 0.41283 0.0447 0.86866 0.0
C936 C 0.40395 0.06787 0.91196 0.0
N937 N 0.40678 0.05973 0.99604 0.0
O938 O 0.3843 0.07068 0.70748 0.0
H939 H 0.41798 0.0349 0.82809 0.0
H940 H 0.4003 0.08045 0.90993 0.0
O941 O 0.40089 0.04332 0.65282 0.0
C942 C 0.38104 0.08522 0.73251 0.0
O943 O 0.39301 0.09515 0.75329 0.0
N944 N 0.42986 0.06232 0.68638 0.0
C945 C 0.46374 0.06116 0.67929 0.0
C946 C 0.45443 0.0544 0.60416 0.0
C947 C 0.43751 0.05548 0.60786 0.0
C948 C 0.43888 0.06967 0.75747 0.0
C949 C 0.45582 0.06905 0.75605 0.0
H950 H 0.43064 0.05042 0.54835 0.0
H951 H 0.43298 0.07635 0.81522 0.0
H952 H 0.40453 0.05263 0.4691 0.0
H953 H 0.40928 0.10194 0.40155 0.0
H954 H 0.41656 0.03579 1.01781 0.0
H955 H 0.46022 0.04851 0.54266 0.0
H956 H 0.46268 0.07482 0.81387 0.0
C957 C 0.66538 0.64475 0.1796 0.0
C958 C 0.66545 0.64344 0.07981 0.0
N959 N 0.67691 0.65342 0.04477 0.0
N960 N 0.67703 0.65522 0.20904 0.0
C961 C 0.68375 0.66045 0.12411 0.0
H962 H 0.65672 0.6389 0.22665 0.0
Co963 Co 0.68083 0.66151 0.34125 0.0
C964 C 0.71617 0.65324 0.37737 0.0
O965 O 0.71591 0.65854 0.46762 0.0
N966 N 0.68367 0.66794 0.47496 0.0
C967 C 0.68203 0.68339 0.6088 0.0
C968 C 0.68152 0.68324 0.50892 0.0
C969 C 0.68488 0.65892 0.55775 0.0
N970 N 0.68403 0.66809 0.6397 0.0
O971 O 0.67442 0.64013 0.38367 0.0
H972 H 0.67863 0.69369 0.46492 0.0
H973 H 0.68563 0.64582 0.55843 0.0
O974 O 0.70325 0.65371 0.32592 0.0
C975 C 0.66025 0.63806 0.41835 0.0
O976 O 0.65079 0.65079 0.42849 0.0
N977 N 0.68667 0.68261 0.2991 0.0
C978 C 0.69346 0.71431 0.23281 0.0
C979 C 0.70464 0.70548 0.28981 0.0
C980 C 0.7012 0.68973 0.31999 0.0
C981 C 0.67486 0.69142 0.2544 0.0
C982 C 0.67788 0.70726 0.22252 0.0
H983 H 0.71002 0.68368 0.36459 0.0
H984 H 0.66293 0.68619 0.24454 0.0
H985 H 0.69286 0.66983 0.11959 0.0
H986 H 0.65709 0.63643 0.0358 0.0
H987 H 0.67989 0.69377 0.65557 0.0
H988 H 0.71586 0.7106 0.31584 0.0
H989 H 0.66771 0.71388 0.193 0.0
C990 C 0.09339 0.90988 0.98015 0.0
C991 C 0.09441 0.90888 0.88017 0.0
N992 N 0.09071 0.92348 0.84321 0.0
N993 N 0.08929 0.92513 1.00725 0.0
C994 C 0.08744 0.93302 0.92112 0.0
H995 H 0.09505 0.89982 0.02923 0.0
Co996 Co 0.08557 0.93183 0.13849 0.0
C997 C 0.09002 0.96839 0.13775 0.0
O998 O 0.07783 0.97037 0.19778 0.0
N999 N 0.08146 0.9379 0.27371 0.0
C1000 C 0.06822 0.94533 0.40957 0.0
C1001 C 0.06779 0.94492 0.30978 0.0
C1002 C 0.08994 0.93412 0.35594 0.0
N1003 N 0.08204 0.93832 0.43898 0.0
O1004 O 0.10751 0.9253 0.17105 0.0
H1005 H 0.05768 0.94926 0.26726 0.0
H1006 H 0.10147 0.92802 0.35598 0.0
O1007 O 0.09382 0.95413 0.10746 0.0
C1008 C 0.10918 0.91054 0.19739 0.0
O1009 O 0.09604 0.90187 0.21255 0.0
N1010 N 0.06391 0.9364 0.10586 0.0
C1011 C 0.03043 0.93963 0.09062 0.0
C1012 C 0.04069 0.95156 0.05238 0.0
C1013 C 0.05753 0.94962 0.0598 0.0
C1014 C 0.05404 0.92416 0.13642 0.0
C1015 C 0.03721 0.9256 0.13058 0.0
H1016 H 0.06521 0.95893 0.03067 0.0
H1017 H 0.05933 0.91356 0.17035 0.0
H1018 H 0.08289 0.94513 0.91447 0.0
H1019 H 0.09705 0.89812 0.8376 0.0
H1020 H 0.05864 0.94956 0.45732 0.0
H1021 H 0.03573 0.96239 0.01922 0.0
H1022 H 0.02956 0.91609 0.15957 0.0
C1023 C 0.83286 0.32206 0.71554 0.0
C1024 C 0.834 0.32191 0.61544 0.0
N1025 N 0.82375 0.3331 0.58017 0.0
N1026 N 0.82155 0.33297 0.74456 0.0
C1027 C 0.81676 0.33998 0.65957 0.0
H1028 H 0.84002 0.31458 0.76342 0.0
Co1029 Co 0.81508 0.33678 0.87748 0.0
C1030 C 0.78251 0.33754 0.77186 0.0
O1031 O 0.78671 0.32628 0.70899 0.0
N1032 N 0.80935 0.34072 1.00968 0.0
C1033 C 0.79813 0.35191 0.14177 0.0
C1034 C 0.79802 0.35136 0.04136 0.0
C1035 C 0.81634 0.3351 0.09283 0.0
N1036 N 0.80966 0.34172 0.17399 0.0
O1037 O 0.82087 0.35915 0.86349 0.0
H1038 H 0.79042 0.35866 0.99453 0.0
H1039 H 0.82635 0.32663 0.09411 0.0
O1040 O 0.79249 0.34207 0.83811 0.0
C1041 C 0.83459 0.36241 0.90163 0.0
O1042 O 0.84262 0.35084 0.94625 0.0
N1043 N 0.81083 0.31441 0.89402 0.0
C1044 C 0.81266 0.28094 0.86321 0.0
C1045 C 0.79751 0.289 0.86555 0.0
C1046 C 0.7969 0.30585 0.87915 0.0
C1047 C 0.82453 0.30626 0.91954 0.0
C1048 C 0.82559 0.28948 0.90709 0.0
H1049 H 0.78532 0.31177 0.87489 0.0
H1050 H 0.83521 0.31297 0.9415 0.0
H1051 H 0.80823 0.34985 0.65572 0.0
H1052 H 0.8416 0.31404 0.57167 0.0
H1053 H 0.79053 0.35943 0.18772 0.0
H1054 H 0.7862 0.28267 0.85457 0.0
H1055 H 0.8368 0.28368 0.92784 0.0
C1056 C 0.10759 0.56532 0.6706 0.0
C1057 C 0.09288 0.56887 0.71988 0.0
C1058 C 0.078 0.56707 0.56464 0.0
C1059 C 0.09254 0.56262 0.51628 0.0
N1060 N 0.12086 0.55598 0.52196 0.0
N1061 N 0.06391 0.57155 0.71851 0.0
C1062 C 0.10729 0.56138 0.56906 0.0
C1063 C 0.07802 0.56933 0.66792 0.0
N1064 N 0.12185 0.5661 0.72112 0.0
N1065 N 0.06426 0.56942 0.51068 0.0
H1066 H 0.06371 0.57322 0.79392 0.0
H1067 H 0.05241 0.57065 0.68767 0.0
H1068 H 0.06404 0.56784 0.4352 0.0
H1069 H 0.05346 0.57397 0.53882 0.0
H1070 H 0.13325 0.56518 0.68902 0.0
H1071 H 0.12226 0.56857 0.79569 0.0
H1072 H 0.13173 0.55324 0.5568 0.0
H1073 H 0.12094 0.55341 0.44746 0.0
C1074 C 0.66796 0.84635 0.75382 0.0
C1075 C 0.67834 0.8344 0.71354 0.0
C1076 C 0.68076 0.82166 0.87484 0.0
C1077 C 0.67192 0.83471 0.91692 0.0
N1078 N 0.6592 0.86078 0.89895 0.0
N1079 N 0.69581 0.81143 0.73493 0.0
C1080 C 0.66599 0.84737 0.85684 0.0
C1081 C 0.68505 0.82222 0.77401 0.0
N1082 N 0.65991 0.85661 0.69282 0.0
N1083 N 0.68454 0.8085 0.93068 0.0
H1084 H 0.69862 0.8113 0.66074 0.0
H1085 H 0.70257 0.80329 0.77638 0.0
H1086 H 0.68124 0.80765 1.00386 0.0
H1087 H 0.68968 0.79793 0.90289 0.0
H1088 H 0.65108 0.86479 0.71606 0.0
H1089 H 0.66099 0.85576 0.61731 0.0
H1090 H 0.65598 0.87114 0.86019 0.0
H1091 H 0.65819 0.86215 0.97428 0.0
C1092 C 0.41834 0.42601 0.99454 0.0
C1093 C 0.40381 0.43049 0.9463 0.0
C1094 C 0.38877 0.42717 0.09997 0.0
C1095 C 0.40357 0.42422 0.14968 0.0
N1096 N 0.4327 0.42318 0.14824 0.0
N1097 N 0.37543 0.43689 0.95278 0.0
C1098 C 0.41844 0.42422 0.0978 0.0
C1099 C 0.38904 0.4314 0.99895 0.0
N1100 N 0.43199 0.42323 0.94061 0.0
N1101 N 0.37448 0.42556 0.1493 0.0
H1102 H 0.37536 0.43983 0.87885 0.0
H1103 H 0.36457 0.43944 0.98837 0.0
H1104 H 0.37406 0.42263 0.2232 0.0
H1105 H 0.36313 0.42602 0.11608 0.0
H1106 H 0.44269 0.41853 0.96947 0.0
H1107 H 0.43211 0.42426 0.86482 0.0
H1108 H 0.44406 0.42466 0.11634 0.0
H1109 H 0.43311 0.42228 0.22402 0.0
C1110 C 0.80778 0.16364 0.31335 0.0
C1111 C 0.81779 0.15313 0.25799 0.0
C1112 C 0.83377 0.14683 0.40481 0.0
C1113 C 0.82318 0.15664 0.46099 0.0
N1114 N 0.79932 0.17323 0.47332 0.0
N1115 N 0.83945 0.13374 0.24916 0.0
C1116 C 0.80994 0.16473 0.4163 0.0
C1117 C 0.8306 0.14447 0.30334 0.0
N1118 N 0.79649 0.17289 0.26617 0.0
N1119 N 0.84706 0.14017 0.44874 0.0
H1120 H 0.83767 0.13233 0.17442 0.0
H1121 H 0.84797 0.12578 0.27815 0.0
H1122 H 0.84935 0.14158 0.52309 0.0
H1123 H 0.85619 0.13402 0.41159 0.0
H1124 H 0.78963 0.18191 0.29962 0.0
H1125 H 0.79477 0.17229 0.19089 0.0
H1126 H 0.78853 0.17825 0.44795 0.0
H1127 H 0.80079 0.1744 0.54851 0.0
C1128 C 0.10374 0.43652 0.41382 0.0
C1129 C 0.08866 0.43824 0.46261 0.0
C1130 C 0.07434 0.43433 0.30683 0.0
C1131 C 0.08936 0.43148 0.25915 0.0
N1132 N 0.1182 0.42786 0.26782 0.0
N1133 N 0.05961 0.43661 0.45998 0.0
C1134 C 0.10404 0.43202 0.31301 0.0
C1135 C 0.07395 0.43648 0.4101 0.0
N1136 N 0.11773 0.43979 0.46342 0.0
N1137 N 0.06051 0.43556 0.25237 0.0
H1138 H 0.05909 0.4381 0.53548 0.0
H1139 H 0.04845 0.43392 0.42835 0.0
H1140 H 0.06052 0.43431 0.17672 0.0
H1141 H 0.04934 0.43914 0.28057 0.0
H1142 H 0.12912 0.44031 0.43077 0.0
H1143 H 0.11775 0.44305 0.53693 0.0
H1144 H 0.12919 0.42642 0.30422 0.0
H1145 H 0.11867 0.42478 0.19408 0.0
C1146 C 0.82505 0.845 0.67535 0.0
C1147 C 0.8112 0.83801 0.72008 0.0
C1148 C 0.80328 0.82575 0.56333 0.0
C1149 C 0.81669 0.83338 0.51761 0.0
N1150 N 0.83955 0.85129 0.5252 0.0
N1151 N 0.78625 0.82321 0.70768 0.0
C1152 C 0.82737 0.84331 0.57253 0.0
C1153 C 0.80007 0.82877 0.66413 0.0
N1154 N 0.83608 0.85296 0.73229 0.0
N1155 N 0.79393 0.81528 0.51031 0.0
H1156 H 0.78391 0.82497 0.7817 0.0
H1157 H 0.77675 0.81771 0.67024 0.0
H1158 H 0.79588 0.81316 0.43623 0.0
H1159 H 0.78485 0.80807 0.54003 0.0
H1160 H 0.84717 0.85729 0.70722 0.0
H1161 H 0.83451 0.85442 0.80726 0.0
H1162 H 0.84711 0.85981 0.55792 0.0
H1163 H 0.84149 0.85003 0.45039 0.0
C1164 C 0.41721 0.5558 0.81972 0.0
C1165 C 0.40965 0.5692 0.77346 0.0
C1166 C 0.39801 0.57776 0.93067 0.0
C1167 C 0.40488 0.5639 0.97589 0.0
N1168 N 0.4195 0.53883 0.96426 0.0
N1169 N 0.39179 0.59211 0.78002 0.0
C1170 C 0.41409 0.55267 0.92043 0.0
C1171 C 0.39973 0.57996 0.82785 0.0
N1172 N 0.42771 0.54639 0.76736 0.0
N1173 N 0.39014 0.58893 0.98718 0.0
H1174 H 0.39305 0.59396 0.70517 0.0
H1175 H 0.38325 0.59971 0.81236 0.0
H1176 H 0.38869 0.58747 0.06219 0.0
H1177 H 0.38593 0.60003 0.9617 0.0
H1178 H 0.43488 0.5373 0.79761 0.0
H1179 H 0.42994 0.54831 0.69343 0.0
H1180 H 0.42496 0.52926 0.92706 0.0
H1181 H 0.41765 0.53652 0.03819 0.0
C1182 C 0.66875 0.146 0.16019 0.0
C1183 C 0.67653 0.15763 0.10027 0.0
C1184 C 0.69145 0.168 0.24276 0.0
C1185 C 0.68306 0.15691 0.30336 0.0
N1186 N 0.66209 0.13706 0.32424 0.0
N1187 N 0.69318 0.1814 0.08533 0.0
C1188 C 0.67117 0.14643 0.26318 0.0
C1189 C 0.68735 0.1691 0.14185 0.0
N1190 N 0.65948 0.13422 0.11758 0.0
N1191 N 0.70355 0.17725 0.28204 0.0
H1192 H 0.69018 0.18258 1.01185 0.0
H1193 H 0.69992 0.19108 0.11243 0.0
H1194 H 0.70627 0.17709 0.35634 0.0
H1195 H 0.7114 0.18435 0.24084 0.0
H1196 H 0.65459 0.12443 0.15516 0.0
H1197 H 0.65773 0.13359 0.04235 0.0
H1198 H 0.65227 0.13007 0.30164 0.0
H1199 H 0.66362 0.13735 0.39961 0.0
C1200 C 0.92208 0.43126 0.36494 0.0
C1201 C 0.90931 0.42342 0.31367 0.0
C1202 C 0.89276 0.42379 0.46303 0.0
C1203 C 0.90607 0.43027 0.51633 0.0
N1204 N 0.93382 0.43905 0.52103 0.0
N1205 N 0.88336 0.41027 0.31551 0.0
C1206 C 0.92089 0.43359 0.46798 0.0
C1207 C 0.89485 0.41919 0.36326 0.0
N1208 N 0.93503 0.43713 0.31388 0.0
N1209 N 0.87803 0.4224 0.50751 0.0
H1210 H 0.88471 0.40673 0.24292 0.0
H1211 H 0.87319 0.40535 0.34932 0.0
H1212 H 0.87621 0.42558 0.58021 0.0
H1213 H 0.8674 0.41927 0.47097 0.0
H1214 H 0.94411 0.44429 0.34446 0.0
H1215 H 0.93599 0.43601 0.23837 0.0
H1216 H 0.94551 0.44014 0.49308 0.0
H1217 H 0.93304 0.44153 0.59547 0.0
C1218 C 0.32562 0.14863 0.20409 0.0
C1219 C 0.31646 0.15982 0.14814 0.0
C1220 C 0.30135 0.16785 0.29504 0.0
C1221 C 0.31112 0.15731 0.35155 0.0
N1222 N 0.33385 0.13928 0.36469 0.0
N1223 N 0.29727 0.1817 0.1405 0.0
C1224 C 0.32369 0.1482 0.30726 0.0
C1225 C 0.30472 0.16987 0.19373 0.0
N1226 N 0.33574 0.13803 0.15746 0.0
N1227 N 0.28865 0.17566 0.33857 0.0
H1228 H 0.29959 0.18342 0.0665 0.0
H1229 H 0.28968 0.19049 0.17052 0.0
H1230 H 0.28637 0.17479 0.41321 0.0
H1231 H 0.27992 0.18223 0.30055 0.0
H1232 H 0.34171 0.12851 0.19191 0.0
H1233 H 0.33716 0.138 0.08199 0.0
H1234 H 0.34419 0.13341 0.3391 0.0
H1235 H 0.33259 0.13882 0.44023 0.0
C1236 C 0.58191 0.55563 0.87102 0.0
C1237 C 0.58836 0.56966 0.82564 0.0
C1238 C 0.59947 0.5788 0.98337 0.0
C1239 C 0.59332 0.56457 0.02797 0.0
N1240 N 0.58022 0.5387 1.01599 0.0
N1241 N 0.60224 0.59516 0.83631 0.0
C1242 C 0.58494 0.55278 0.97202 0.0
C1243 C 0.59691 0.58141 0.88148 0.0
N1244 N 0.57221 0.5455 0.81784 0.0
N1245 N 0.60802 0.58958 0.03919 0.0
H1246 H 0.60051 0.59718 0.76227 0.0
H1247 H 0.60803 0.60476 0.87122 0.0
H1248 H 0.60977 0.58795 0.11366 0.0
H1249 H 0.61368 0.59995 1.01275 0.0
H1250 H 0.56583 0.53575 0.8471 0.0
H1251 H 0.56969 0.54746 0.74446 0.0
H1252 H 0.57549 0.52875 0.97875 0.0
H1253 H 0.58184 0.53664 0.09022 0.0
C1254 C 0.16867 0.84939 0.74135 0.0
C1255 C 0.18176 0.8419 0.79122 0.0
C1256 C 0.19099 0.8296 0.63717 0.0
C1257 C 0.17751 0.83654 0.58796 0.0
N1258 N 0.15248 0.85132 0.59312 0.0
N1259 N 0.20462 0.82394 0.79121 0.0
C1260 C 0.16609 0.84604 0.64017 0.0
C1261 C 0.19274 0.83175 0.74009 0.0
N1262 N 0.1589 0.85989 0.79117 0.0
N1263 N 0.20217 0.82107 0.58446 0.0
H1264 H 0.20617 0.82551 0.86613 0.0
H1265 H 0.21235 0.81526 0.76157 0.0
H1266 H 0.2008 0.81888 0.51012 0.0
H1267 H 0.21314 0.81688 0.61226 0.0
H1268 H 0.15007 0.86709 0.75861 0.0
H1269 H 0.16023 0.86198 0.86572 0.0
H1270 H 0.14282 0.8571 0.62749 0.0
H1271 H 0.15044 0.849 0.51936 0.0
C1272 C 0.91954 0.55308 0.69068 0.0
C1273 C 0.91167 0.5666 0.73384 0.0
C1274 C 0.90161 0.57497 0.57284 0.0
C1275 C 0.9085 0.56083 0.53081 0.0
N1276 N 0.92262 0.53557 0.5487 0.0
N1277 N 0.89376 0.58941 0.72051 0.0
C1278 C 0.91707 0.54962 0.58971 0.0
C1279 C 0.90229 0.57729 0.67589 0.0
N1280 N 0.92987 0.54395 0.74583 0.0
N1281 N 0.89467 0.58628 0.51341 0.0
H1282 H 0.89412 0.59126 0.79575 0.0
H1283 H 0.88546 0.59684 0.68479 0.0
H1284 H 0.89416 0.58483 0.43799 0.0
H1285 H 0.89055 0.59754 0.53725 0.0
H1286 H 0.93722 0.5348 0.71767 0.0
H1287 H 0.93191 0.54628 0.81959 0.0
H1288 H 0.9275 0.52602 0.58856 0.0
H1289 H 0.92147 0.53313 0.47434 0.0
C1290 C 0.18714 0.17103 0.47854 0.0
C1291 C 0.17575 0.16065 0.5244 0.0
C1292 C 0.16915 0.14837 0.36583 0.0
C1293 C 0.18144 0.15779 0.32136 0.0
N1294 N 0.20314 0.17704 0.33384 0.0
N1295 N 0.15718 0.13829 0.51573 0.0
C1296 C 0.1907 0.16889 0.37741 0.0
C1297 C 0.16707 0.14902 0.46886 0.0
N1298 N 0.19411 0.18322 0.53145 0.0
N1299 N 0.15926 0.1391 0.3085 0.0
H1300 H 0.1555 0.13857 0.59098 0.0
H1301 H 0.15163 0.12844 0.48183 0.0
H1302 H 0.16046 0.13868 0.23288 0.0
H1303 H 0.14912 0.13291 0.33421 0.0
H1304 H 0.20137 0.19223 0.50125 0.0
H1305 H 0.19173 0.18494 0.60544 0.0
H1306 H 0.21149 0.18415 0.37159 0.0
H1307 H 0.20565 0.17592 0.25956 0.0
C1308 C 0.57444 0.42488 0.02263 0.0
C1309 C 0.58863 0.42993 0.97296 0.0
C1310 C 0.60422 0.42731 0.12521 0.0
C1311 C 0.58969 0.42381 0.17634 0.0
N1312 N 0.5606 0.42178 0.17767 0.0
N1313 N 0.61671 0.4376 0.9769 0.0
C1314 C 0.57468 0.42323 0.12592 0.0
C1315 C 0.60349 0.43151 0.02423 0.0
N1316 N 0.56081 0.42136 0.97007 0.0
N1317 N 0.6187 0.42624 0.1731 0.0
H1318 H 0.61645 0.44059 0.90308 0.0
H1319 H 0.62754 0.44061 1.01161 0.0
H1320 H 0.61945 0.42333 0.24695 0.0
H1321 H 0.62992 0.42711 0.13869 0.0
H1322 H 0.55043 0.41622 1.00023 0.0
H1323 H 0.56047 0.4222 0.8942 0.0
H1324 H 0.54912 0.42281 0.14664 0.0
H1325 H 0.56041 0.42102 0.25355 0.0
C1326 C 0.31375 0.82636 0.93718 0.0
C1327 C 0.31282 0.84127 0.98871 0.0
C1328 C 0.30479 0.8552 0.83759 0.0
C1329 C 0.30659 0.84046 0.78519 0.0
N1330 N 0.31434 0.81244 0.78036 0.0
N1331 N 0.30918 0.87013 0.9888 0.0
C1332 C 0.31153 0.82615 0.83391 0.0
C1333 C 0.30876 0.85577 0.93901 0.0
N1334 N 0.31631 0.81238 0.98819 0.0
N1335 N 0.29889 0.8685 0.79019 0.0
H1336 H 0.31183 0.87076 0.0631 0.0
H1337 H 0.30787 0.88143 0.95613 0.0
H1338 H 0.29632 0.86841 0.7157 0.0
H1339 H 0.29571 0.87928 0.82487 0.0
H1340 H 0.31579 0.80084 0.95757 0.0
H1341 H 0.31782 0.81229 0.06371 0.0
H1342 H 0.31933 0.80187 0.80876 0.0
H1343 H 0.31267 0.81205 0.70499 0.0
C1344 C 0.57833 0.05759 0.07545 0.0
C1345 C 0.59308 0.06172 0.02842 0.0
C1346 C 0.60336 0.07321 0.18283 0.0
C1347 C 0.58903 0.06821 0.23109 0.0
N1348 N 0.56411 0.0531 0.22832 0.0
N1349 N 0.62071 0.07088 0.04039 0.0
C1350 C 0.57681 0.05974 0.17849 0.0
C1351 C 0.60593 0.06876 0.08323 0.0
N1352 N 0.56582 0.05151 0.02128 0.0
N1353 N 0.61424 0.08273 0.23154 0.0
H1354 H 0.62289 0.06786 0.96784 0.0
H1355 H 0.63107 0.07442 0.07827 0.0
H1356 H 0.61253 0.08621 0.30395 0.0
H1357 H 0.62419 0.08821 0.19851 0.0
H1358 H 0.55413 0.04985 0.04825 0.0
H1359 H 0.56688 0.04904 0.94698 0.0
H1360 H 0.55551 0.04548 0.19672 0.0
H1361 H 0.56297 0.05404 0.30381 0.0
C1362 C 0.16738 0.35327 0.27358 0.0
C1363 C 0.17957 0.34442 0.22341 0.0
C1364 C 0.18754 0.33125 0.377 0.0
C1365 C 0.17489 0.33958 0.42653 0.0
N1366 N 0.15163 0.35701 0.42229 0.0
N1367 N 0.20037 0.3241 0.22265 0.0
C1368 C 0.16453 0.35025 0.37477 0.0
C1369 C 0.18943 0.33317 0.27412 0.0
N1370 N 0.15873 0.36471 0.22399 0.0
N1371 N 0.19782 0.32164 0.42938 0.0
H1372 H 0.20205 0.32549 0.14776 0.0
H1373 H 0.2071 0.31462 0.25199 0.0
H1374 H 0.19628 0.31962 0.5037 0.0
H1375 H 0.20828 0.31634 0.40129 0.0
H1376 H 0.15072 0.37282 0.2567 0.0
H1377 H 0.16021 0.36658 0.14938 0.0
H1378 H 0.14264 0.36383 0.38833 0.0
H1379 H 0.14943 0.35497 0.49611 0.0
C1380 C 0.8965 0.9198 0.5652 0.0
C1381 C 0.90215 0.93433 0.52173 0.0
C1382 C 0.91313 0.94328 0.67978 0.0
C1383 C 0.90674 0.92914 0.72423 0.0
N1384 N 0.89093 0.9048 0.71427 0.0
N1385 N 0.9142 0.96068 0.53663 0.0
C1386 C 0.89803 0.91761 0.66804 0.0
C1387 C 0.91002 0.9463 0.57898 0.0
N1388 N 0.88988 0.90805 0.50717 0.0
N1389 N 0.92263 0.95349 0.73373 0.0
H1390 H 0.91242 0.96291 0.46253 0.0
H1391 H 0.91852 0.97067 0.57516 0.0
H1392 H 0.92499 0.95154 0.80749 0.0
H1393 H 0.92896 0.96327 0.70477 0.0
H1394 H 0.88675 0.89653 0.5315 0.0
H1395 H 0.88843 0.90953 0.43217 0.0
H1396 H 0.88322 0.89654 0.68028 0.0
H1397 H 0.89191 0.90305 0.78935 0.0
C1398 C 0.30386 0.67252 0.82885 0.0
C1399 C 0.31209 0.66048 0.77393 0.0
C1400 C 0.32582 0.65103 0.92266 0.0
C1401 C 0.31822 0.66359 0.97675 0.0
N1402 N 0.30157 0.68745 0.98173 0.0
N1403 N 0.33222 0.63953 0.7636 0.0
C1404 C 0.30763 0.67467 0.9298 0.0
C1405 C 0.32349 0.6501 0.81966 0.0
N1406 N 0.29215 0.68159 0.78434 0.0
N1407 N 0.33483 0.6397 0.971 0.0
H1408 H 0.33059 0.63858 0.68838 0.0
H1409 H 0.3418 0.63255 0.78975 0.0
H1410 H 0.33658 0.6401 0.04629 0.0
H1411 H 0.33957 0.62932 0.93843 0.0
H1412 H 0.28447 0.68953 0.82114 0.0
H1413 H 0.28954 0.68046 0.71019 0.0
H1414 H 0.29495 0.69689 0.95095 0.0
H1415 H 0.30407 0.68913 0.05564 0.0
C1416 C 0.57801 0.94031 0.95032 0.0
C1417 C 0.59097 0.93254 0.99993 0.0
C1418 C 0.59904 0.91893 0.84718 0.0
C1419 C 0.58646 0.92712 0.79725 0.0
N1420 N 0.56511 0.94686 0.79532 0.0
N1421 N 0.61507 0.91607 0.99475 0.0
C1422 C 0.57623 0.93817 0.84743 0.0
C1423 C 0.60187 0.92232 0.94786 0.0
N1424 N 0.56748 0.94977 1.0022 0.0
N1425 N 0.60794 0.90753 0.79829 0.0
H1426 H 0.61719 0.91791 0.06869 0.0
H1427 H 0.62444 0.90988 0.95994 0.0
H1428 H 0.60627 0.90515 0.72422 0.0
H1429 H 0.61624 0.8998 0.8314 0.0
H1430 H 0.55684 0.95465 0.97373 0.0
H1431 H 0.56903 0.95222 0.07622 0.0
H1432 H 0.55805 0.95616 0.82429 0.0
H1433 H 0.56365 0.94543 0.72023 0.0
C1434 C 0.32567 0.33342 0.24428 0.0
C1435 C 0.31099 0.33731 0.2926 0.0
C1436 C 0.30005 0.34818 0.13914 0.0
C1437 C 0.31414 0.34276 0.0893 0.0
N1438 N 0.3388 0.32716 0.09082 0.0
N1439 N 0.28341 0.34656 0.28547 0.0
C1440 C 0.32653 0.33453 0.14109 0.0
C1441 C 0.29793 0.34424 0.23982 0.0
N1442 N 0.33891 0.329 0.29784 0.0
N1443 N 0.28899 0.35751 0.09083 0.0
H1444 H 0.28171 0.34385 0.35899 0.0
H1445 H 0.27287 0.3501 0.2494 0.0
H1446 H 0.29037 0.36059 1.01762 0.0
H1447 H 0.27917 0.36312 0.12472 0.0
H1448 H 0.35043 0.32747 0.26793 0.0
H1449 H 0.33869 0.32849 0.37381 0.0
H1450 H 0.34742 0.31971 0.12359 0.0
H1451 H 0.33932 0.3271 1.01486 0.0
C1452 C 0.89561 0.05776 0.48133 0.0
C1453 C 0.91069 0.05707 0.53097 0.0
C1454 C 0.92503 0.06226 0.37654 0.0
C1455 C 0.90992 0.06373 0.32789 0.0
N1456 N 0.88084 0.06438 0.33262 0.0
N1457 N 0.93962 0.06007 0.53061 0.0
C1458 C 0.89519 0.06188 0.38014 0.0
C1459 C 0.92539 0.05971 0.47961 0.0
N1460 N 0.88176 0.05399 0.53102 0.0
N1461 N 0.93899 0.06308 0.32311 0.0
H1462 H 0.94009 0.05821 0.60577 0.0
H1463 H 0.95078 0.06319 0.50053 0.0
H1464 H 0.93894 0.06515 0.2481 0.0
H1465 H 0.9505 0.0608 0.35107 0.0
H1466 H 0.87042 0.05275 0.49855 0.0
H1467 H 0.8818 0.05122 0.60518 0.0
H1468 H 0.8696 0.06479 0.367 0.0
H1469 H 0.88029 0.0669 0.25818 0.0
C1470 C 0.17444 0.64915 0.57503 0.0
C1471 C 0.18523 0.65888 0.51991 0.0
C1472 C 0.2018 0.66358 0.66657 0.0
C1473 C 0.19042 0.65472 0.72265 0.0
N1474 N 0.16493 0.64083 0.73503 0.0
N1475 N 0.20803 0.67697 0.51308 0.0
C1476 C 0.17644 0.648 0.678 0.0
C1477 C 0.19866 0.66651 0.56569 0.0
N1478 N 0.16258 0.64064 0.52782 0.0
N1479 N 0.21574 0.66887 0.71001 0.0
H1480 H 0.20596 0.67927 0.43937 0.0
H1481 H 0.21713 0.68415 0.54331 0.0
H1482 H 0.21801 0.66721 0.78416 0.0
H1483 H 0.22539 0.67402 0.67221 0.0
H1484 H 0.15521 0.63207 0.56142 0.0
H1485 H 0.16095 0.64125 0.45253 0.0
H1486 H 0.15372 0.63691 0.70929 0.0
H1487 H 0.16615 0.63996 0.81046 0.0
C1488 C 0.41319 0.94404 0.99582 0.0
C1489 C 0.40219 0.93458 0.05113 0.0
C1490 C 0.39464 0.91939 0.90294 0.0
C1491 C 0.40612 0.92841 0.84845 0.0
N1492 N 0.428 0.94757 0.84378 0.0
N1493 N 0.38392 0.91204 0.06234 0.0
C1494 C 0.41586 0.94029 0.89527 0.0
C1495 C 0.3933 0.9219 1.00582 0.0
N1496 N 0.42078 0.95685 0.03957 0.0
N1497 N 0.38492 0.90856 0.8553 0.0
H1498 H 0.383 0.91359 0.13757 0.0
H1499 H 0.37799 0.90174 0.03677 0.0
H1500 H 0.38608 0.90628 0.78084 0.0
H1501 H 0.37522 0.90253 0.88746 0.0
H1502 H 0.42772 0.96535 1.0022 0.0
H1503 H 0.4193 0.95951 0.11346 0.0
H1504 H 0.43663 0.95522 0.87474 0.0
H1505 H 0.43004 0.94513 0.77014 0.0
C1506 C 0.80522 0.66337 0.71725 0.0
C1507 C 0.81241 0.64996 0.76523 0.0
C1508 C 0.8256 0.6418 0.61116 0.0
C1509 C 0.8178 0.65476 0.5623 0.0
N1510 N 0.79835 0.67645 0.56386 0.0
N1511 N 0.82761 0.62512 0.75673 0.0
C1512 C 0.80712 0.66518 0.61427 0.0
C1513 C 0.82206 0.63877 0.71157 0.0
N1514 N 0.79657 0.67437 0.77074 0.0
N1515 N 0.83686 0.63278 0.562 0.0
H1516 H 0.82552 0.62284 0.83029 0.0
H1517 H 0.83336 0.61561 0.72055 0.0
H1518 H 0.83956 0.63477 0.48872 0.0
H1519 H 0.84426 0.62413 0.59473 0.0
H1520 H 0.79238 0.68536 0.74336 0.0
H1521 H 0.79436 0.67292 0.84505 0.0
H1522 H 0.78919 0.68349 0.59449 0.0
H1523 H 0.79939 0.67789 0.48866 0.0
C1524 C 0.10423 0.05751 0.52394 0.0
C1525 C 0.08947 0.05819 0.57697 0.0
C1526 C 0.07465 0.06454 0.42588 0.0
C1527 C 0.0895 0.06461 0.37372 0.0
N1528 N 0.11854 0.06275 0.37176 0.0
N1529 N 0.06092 0.06366 0.58316 0.0
C1530 C 0.10434 0.06149 0.42255 0.0
C1531 C 0.07474 0.06209 0.52901 0.0
N1532 N 0.11802 0.05268 0.57082 0.0
N1533 N 0.06047 0.06646 0.37556 0.0
H1534 H 0.06076 0.06176 0.65834 0.0
H1535 H 0.0499 0.06775 0.55561 0.0
H1536 H 0.06021 0.06829 0.30033 0.0
H1537 H 0.049 0.06528 0.40631 0.0
H1538 H 0.12899 0.05036 0.5359 0.0
H1539 H 0.11825 0.05018 0.64535 0.0
H1540 H 0.12999 0.06213 0.40349 0.0
H1541 H 0.11883 0.0653 0.29732 0.0
C1542 C 0.66614 0.33429 0.18319 0.0
C1543 C 0.67843 0.34239 0.12996 0.0
C1544 C 0.69498 0.34419 0.27907 0.0
C1545 C 0.6821 0.33724 0.33313 0.0
N1546 N 0.65428 0.32872 0.34131 0.0
N1547 N 0.70358 0.35712 0.12832 0.0
C1548 C 0.66732 0.33324 0.28632 0.0
C1549 C 0.69264 0.34791 0.17827 0.0
N1550 N 0.65369 0.32698 0.1343 0.0
N1551 N 0.70956 0.34677 0.32377 0.0
H1552 H 0.70203 0.36004 0.05497 0.0
H1553 H 0.71348 0.36279 0.16087 0.0
H1554 H 0.71138 0.34436 0.39761 0.0
H1555 H 0.72 0.35031 0.28686 0.0
H1556 H 0.64512 0.31959 0.16794 0.0
H1557 H 0.6529 0.32694 0.05841 0.0
H1558 H 0.64268 0.32711 0.31277 0.0
H1559 H 0.65475 0.32815 0.41722 0.0
C1560 C 0.42081 0.07218 0.24687 0.0
C1561 C 0.40595 0.07218 0.29887 0.0
C1562 C 0.39137 0.06482 0.1484 0.0
C1563 C 0.40614 0.06554 0.09568 0.0
N1564 N 0.43448 0.07202 0.08958 0.0
N1565 N 0.37689 0.07051 0.29947 0.0
C1566 C 0.42074 0.0699 0.14369 0.0
C1567 C 0.39114 0.06906 0.2495 0.0
N1568 N 0.43502 0.07378 0.29731 0.0
N1569 N 0.3777 0.05951 0.10197 0.0
H1570 H 0.37652 0.07334 0.37358 0.0
H1571 H 0.3655 0.06992 0.26694 0.0
H1572 H 0.37758 0.05664 0.02785 0.0
H1573 H 0.36679 0.05711 0.13721 0.0
H1574 H 0.44645 0.07241 0.26609 0.0
H1575 H 0.43536 0.07529 0.3728 0.0
H1576 H 0.44531 0.07655 0.11758 0.0
H1577 H 0.43465 0.0704 1.01412 0.0
C1578 C 0.66612 0.66425 0.8899 0.0
C1579 C 0.6792 0.65746 0.94305 0.0
C1580 C 0.69579 0.65746 0.79385 0.0
C1581 C 0.68218 0.6629 0.73973 0.0
N1582 N 0.65354 0.66817 0.73203 0.0
N1583 N 0.70584 0.64558 0.94452 0.0
C1584 C 0.66707 0.66527 0.78674 0.0
C1585 C 0.69391 0.65351 0.89466 0.0
N1586 N 0.65307 0.67042 0.93882 0.0
N1587 N 0.71058 0.6566 0.74938 0.0
H1588 H 0.70473 0.64257 1.01801 0.0
H1589 H 0.71627 0.64099 0.91173 0.0
H1590 H 0.71215 0.65925 0.67568 0.0
H1591 H 0.72136 0.65431 0.78649 0.0
H1592 H 0.64378 0.67686 0.90491 0.0
H1593 H 0.65241 0.67061 1.01474 0.0
H1594 H 0.64187 0.6685 0.76106 0.0
H1595 H 0.65385 0.6686 0.65605 0.0
C1596 C 0.07479 0.92254 0.58563 0.0
C1597 C 0.08547 0.93349 0.53841 0.0
C1598 C 0.10055 0.93683 0.69206 0.0
C1599 C 0.08876 0.92732 0.74096 0.0
N1600 N 0.06323 0.9133 0.73832 0.0
N1601 N 0.10767 0.95229 0.54719 0.0
C1602 C 0.07549 0.92075 0.68866 0.0
C1603 C 0.09822 0.94092 0.59173 0.0
N1604 N 0.0643 0.91349 0.53101 0.0
N1605 N 0.11413 0.9416 0.74135 0.0
H1606 H 0.10621 0.95536 0.47398 0.0
H1607 H 0.11617 0.95937 0.58387 0.0
H1608 H 0.11597 0.93885 0.81474 0.0
H1609 H 0.12399 0.94723 0.70827 0.0
H1610 H 0.05714 0.90425 0.55974 0.0
H1611 H 0.06401 0.91409 0.45507 0.0
H1612 H 0.0524 0.90968 0.70583 0.0
H1613 H 0.0633 0.9121 0.81401 0.0
C1614 C 0.80813 0.32565 0.432 0.0
C1615 C 0.81996 0.33558 0.47803 0.0
C1616 C 0.82556 0.34902 0.32145 0.0
C1617 C 0.81389 0.33897 0.27521 0.0
N1618 N 0.79473 0.31717 0.28148 0.0
N1619 N 0.84113 0.35541 0.46784 0.0
C1620 C 0.80534 0.32711 0.32943 0.0
C1621 C 0.82899 0.34695 0.42288 0.0
N1622 N 0.7996 0.31486 0.48734 0.0
N1623 N 0.83314 0.36071 0.26778 0.0
H1624 H 0.84363 0.35412 0.54193 0.0
H1625 H 0.84919 0.36304 0.43206 0.0
H1626 H 0.83131 0.36185 0.19295 0.0
H1627 H 0.84073 0.36956 0.29679 0.0
H1628 H 0.78998 0.30787 0.46201 0.0
H1629 H 0.80194 0.31315 0.56126 0.0
H1630 H 0.78855 0.30756 0.31339 0.0
H1631 H 0.79254 0.31816 0.20681 0.0
C1632 C 0.15509 0.60991 0.22385 0.0
C1633 C 0.15917 0.61596 0.13039 0.0
C1634 C 0.14187 0.59533 0.05332 0.0
C1635 C 0.13534 0.59166 0.14632 0.0
N1636 N 0.13695 0.59311 0.32082 0.0
N1637 N 0.15866 0.61339 0.956 0.0
C1638 C 0.14258 0.59804 0.23201 0.0
C1639 C 0.15343 0.60811 0.04497 0.0
N1640 N 0.16295 0.61578 0.30422 0.0
N1641 N 0.13678 0.58681 0.97338 0.0
H1642 H 0.16795 0.62189 0.9489 0.0
H1643 H 0.15377 0.6097 0.88966 0.0
H1644 H 0.12847 0.57734 0.97772 0.0
H1645 H 0.14163 0.58814 0.9039 0.0
H1646 H 0.16138 0.61131 0.37438 0.0
H1647 H 0.17205 0.62452 0.29975 0.0
H1648 H 0.14023 0.59835 0.38696 0.0
H1649 H 0.12867 0.58361 0.32786 0.0
C1650 C 0.62973 0.89298 0.29058 0.0
C1651 C 0.62667 0.90011 0.38333 0.0
C1652 C 0.65068 0.88647 0.45011 0.0
C1653 C 0.65209 0.8776 0.36218 0.0
N1654 N 0.64724 0.87605 0.19008 0.0
N1655 N 0.63449 0.90471 0.55038 0.0
C1656 C 0.643 0.88211 0.27929 0.0
C1657 C 0.63751 0.89752 0.46232 0.0
N1658 N 0.61938 0.89599 0.21488 0.0
N1659 N 0.66218 0.88437 0.52058 0.0
H1660 H 0.62512 0.91304 0.56078 0.0
H1661 H 0.6408 0.90206 0.61405 0.0
H1662 H 0.67211 0.87668 0.51003 0.0
H1663 H 0.66272 0.89103 0.58496 0.0
H1664 H 0.61947 0.88963 0.14932 0.0
H1665 H 0.61017 0.90464 0.21887 0.0
H1666 H 0.64191 0.87955 0.12468 0.0
H1667 H 0.65733 0.86859 0.18055 0.0
C1668 C 0.34792 0.38087 0.50431 0.0
C1669 C 0.33954 0.37892 0.59406 0.0
C1670 C 0.35346 0.40281 0.66075 0.0
C1671 C 0.36295 0.40358 0.57502 0.0
N1672 N 0.36538 0.39782 0.40441 0.0
N1673 N 0.32986 0.39161 0.74212 0.0
C1674 C 0.35878 0.39411 0.49285 0.0
C1675 C 0.34072 0.39116 0.66704 0.0
N1676 N 0.34598 0.36966 0.4317 0.0
N1677 N 0.35719 0.4127 0.73755 0.0
H1678 H 0.32008 0.38369 0.74712 0.0
H1679 H 0.32948 0.40087 0.79378 0.0
H1680 H 0.36576 0.42196 0.7318 0.0
H1681 H 0.35227 0.41141 0.80699 0.0
H1682 H 0.35317 0.36919 0.36939 0.0
H1683 H 0.33743 0.36039 0.43559 0.0
H1684 H 0.36212 0.39217 0.33938 0.0
H1685 H 0.37295 0.40785 0.3953 0.0
C1686 C 0.86106 0.09387 0.96226 0.0
C1687 C 0.86976 0.08973 0.87641 0.0
C1688 C 0.85391 0.1094 0.78226 0.0
C1689 C 0.84611 0.11439 0.86933 0.0
N1690 N 0.8381 0.1082 0.03316 0.0
N1691 N 0.87077 0.08926 0.70151 0.0
C1692 C 0.84829 0.10547 0.9564 0.0
C1693 C 0.86488 0.09607 0.78511 0.0
N1694 N 0.86565 0.08755 0.05003 0.0
N1695 N 0.85156 0.11795 0.69835 0.0
H1696 H 0.8784 0.07916 0.7028 0.0
H1697 H 0.86684 0.09242 0.63198 0.0
H1698 H 0.84321 0.12741 0.69353 0.0
H1699 H 0.85834 0.11619 0.63519 0.0
H1700 H 0.86122 0.09167 0.11668 0.0
H1701 H 0.87447 0.07856 0.05668 0.0
H1702 H 0.83811 0.10128 0.09653 0.0
H1703 H 0.82855 0.11648 0.029 0.0
C1704 C 0.14515 0.38889 0.73566 0.0
C1705 C 0.15158 0.38351 0.82587 0.0
C1706 C 0.13655 0.40476 0.91272 0.0
C1707 C 0.12901 0.40917 0.82373 0.0
N1708 N 0.12964 0.40943 0.64902 0.0
N1709 N 0.15782 0.38938 0.99322 0.0
C1710 C 0.13461 0.40258 0.73447 0.0
C1711 C 0.14876 0.39256 0.91213 0.0
N1712 N 0.14829 0.38033 0.65247 0.0
N1713 N 0.1313 0.41146 0.99825 0.0
H1714 H 0.167 0.38065 0.9931 0.0
H1715 H 0.15737 0.39631 0.0567 0.0
H1716 H 0.12296 0.42095 1.00066 0.0
H1717 H 0.13472 0.40724 0.06669 0.0
H1718 H 0.1425 0.38242 0.58628 0.0
H1719 H 0.15633 0.37058 0.65077 0.0
H1720 H 0.13408 0.40611 0.58081 0.0
H1721 H 0.12215 0.41963 0.64791 0.0
C1722 C 0.87509 0.88037 0.11485 0.0
C1723 C 0.87026 0.8967 0.12906 0.0
C1724 C 0.84177 0.88813 0.11221 0.0
C1725 C 0.84681 0.87162 0.11257 0.0
N1726 N 0.86834 0.85256 0.1481 0.0
N1727 N 0.84853 0.91585 0.15681 0.0
C1728 C 0.8635 0.8679 0.12413 0.0
C1729 C 0.85343 0.90058 0.13193 0.0
N1730 N 0.89067 0.8767 0.08855 0.0
N1731 N 0.82612 0.89204 0.08963 0.0
H1732 H 0.85664 0.92517 0.17272 0.0
H1733 H 0.83643 0.91885 0.16968 0.0
H1734 H 0.81733 0.88335 0.07352 0.0
H1735 H 0.82224 0.90392 0.07869 0.0
H1736 H 0.8943 0.86496 0.07025 0.0
H1737 H 0.89931 0.88556 0.07286 0.0
H1738 H 0.88037 0.84972 0.16448 0.0
H1739 H 0.86016 0.84328 0.16393 0.0
C1740 C 0.36466 0.62865 0.38619 0.0
C1741 C 0.34804 0.62451 0.39608 0.0
C1742 C 0.35531 0.59582 0.37162 0.0
C1743 C 0.37204 0.60007 0.37496 0.0
N1744 N 0.39203 0.62019 0.41984 0.0
N1745 N 0.32776 0.60358 0.41445 0.0
C1746 C 0.37652 0.61638 0.39298 0.0
C1747 C 0.34336 0.6079 0.39328 0.0
N1748 N 0.36922 0.64419 0.36527 0.0
N1749 N 0.35079 0.58053 0.34451 0.0
H1750 H 0.3188 0.61201 0.43219 0.0
H1751 H 0.32411 0.59157 0.42277 0.0
H1752 H 0.35915 0.57146 0.32772 0.0
H1753 H 0.33878 0.57728 0.33114 0.0
H1754 H 0.3812 0.64736 0.34992 0.0
H1755 H 0.3609 0.6534 0.3506 0.0
H1756 H 0.39542 0.63187 0.44103 0.0
H1757 H 0.40089 0.61141 0.43281 0.0
C1758 C 0.63541 0.09785 0.74192 0.0
C1759 C 0.63081 0.09168 0.64933 0.0
C1760 C 0.65354 0.10624 0.57468 0.0
C1761 C 0.65568 0.115 0.66262 0.0
N1762 N 0.64974 0.11863 0.83307 0.0
N1763 N 0.63586 0.08912 0.47702 0.0
C1764 C 0.64721 0.11038 0.74792 0.0
C1765 C 0.64024 0.09529 0.56567 0.0
N1766 N 0.62835 0.09168 0.82386 0.0
N1767 N 0.6643 0.10849 0.50035 0.0
H1768 H 0.62648 0.08075 0.46869 0.0
H1769 H 0.64101 0.09279 0.41141 0.0
H1770 H 0.67429 0.1162 0.5076 0.0
H1771 H 0.66425 0.10174 0.43616 0.0
H1772 H 0.63196 0.09465 0.89437 0.0
H1773 H 0.61981 0.08237 0.82072 0.0
H1774 H 0.64246 0.11743 0.89461 0.0
H1775 H 0.65892 0.12722 0.84114 0.0
C1776 C 0.84467 0.38793 0.97749 0.0
C1777 C 0.84235 0.37852 0.89216 0.0
C1778 C 0.86235 0.39514 0.80655 0.0
C1779 C 0.86718 0.40192 0.89703 0.0
N1780 N 0.86252 0.40577 0.06894 0.0
N1781 N 0.848 0.37356 0.7226 0.0
C1782 C 0.85796 0.39895 0.98239 0.0
C1783 C 0.85061 0.38252 0.80499 0.0
N1784 N 0.83413 0.38616 0.05346 0.0
N1785 N 0.86918 0.40075 0.72248 0.0
H1786 H 0.83904 0.36468 0.71826 0.0
H1787 H 0.85511 0.37444 0.66013 0.0
H1788 H 0.87777 0.41003 0.72269 0.0
H1789 H 0.86534 0.39736 0.65306 0.0
H1790 H 0.83429 0.39341 0.11568 0.0
H1791 H 0.82418 0.37834 0.04943 0.0
H1792 H 0.85754 0.40258 0.1359 0.0
H1793 H 0.87187 0.41424 0.07428 0.0
C1794 C 0.35683 0.09622 0.64336 0.0
C1795 C 0.36427 0.09176 0.73261 0.0
C1796 C 0.34611 0.10998 0.82258 0.0
C1797 C 0.33977 0.11556 0.73259 0.0
N1798 N 0.33481 0.11058 0.56285 0.0
N1799 N 0.36258 0.08991 0.90673 0.0
C1800 C 0.34369 0.10743 0.64469 0.0
C1801 C 0.35766 0.09713 0.82229 0.0
N1802 N 0.36297 0.09053 0.55737 0.0
N1803 N 0.3419 0.11763 0.90729 0.0
H1804 H 0.37068 0.08018 0.90657 0.0
H1805 H 0.3575 0.09233 0.97468 0.0
H1806 H 0.33308 0.12668 0.91021 0.0
H1807 H 0.34757 0.11548 0.97381 0.0
H1808 H 0.35951 0.09487 0.4893 0.0
H1809 H 0.37205 0.08173 0.5544 0.0
H1810 H 0.33617 0.10432 0.4974 0.0
H1811 H 0.32493 0.11851 0.56388 0.0
C1812 C 0.6323 0.60661 0.52713 0.0
C1813 C 0.62912 0.59749 0.44165 0.0
C1814 C 0.6529 0.60971 0.3635 0.0
C1815 C 0.65337 0.62163 0.43834 0.0
N1816 N 0.64579 0.62988 0.60026 0.0
N1817 N 0.63633 0.59011 0.27732 0.0
C1818 C 0.64389 0.61942 0.52372 0.0
C1819 C 0.6396 0.59873 0.3601 0.0
N1820 N 0.62414 0.60297 0.61086 0.0
N1821 N 0.6651 0.6087 0.29649 0.0
H1822 H 0.62694 0.5817 0.27333 0.0
H1823 H 0.64222 0.59207 0.21123 0.0
H1824 H 0.67553 0.61577 0.30011 0.0
H1825 H 0.66587 0.59947 0.24475 0.0
H1826 H 0.62655 0.60831 0.67811 0.0
H1827 H 0.61578 0.59348 0.61423 0.0
H1828 H 0.63809 0.63035 0.6603 0.0
H1829 H 0.65516 0.63839 0.60245 0.0
C1830 C 0.14209 0.88168 0.28639 0.0
C1831 C 0.14966 0.87803 0.19661 0.0
C1832 C 0.13535 0.90087 0.11981 0.0
C1833 C 0.12531 0.90227 0.20401 0.0
N1834 N 0.11945 0.89422 0.36964 0.0
N1835 N 0.15463 0.88442 0.02862 0.0
C1836 C 0.12898 0.89292 0.28851 0.0
C1837 C 0.1468 0.8879 0.11393 0.0
N1838 N 0.14735 0.87426 0.36946 0.0
N1839 N 0.13387 0.91169 0.04499 0.0
H1840 H 0.16388 0.8758 0.02445 0.0
H1841 H 0.15163 0.88951 0.96165 0.0
H1842 H 0.12571 0.9213 0.04522 0.0
H1843 H 0.14176 0.91214 0.98587 0.0
H1844 H 0.14351 0.8775 0.4391 0.0
H1845 H 0.15682 0.86588 0.36932 0.0
H1846 H 0.12001 0.88624 0.42823 0.0
H1847 H 0.11033 0.90286 0.37676 0.0
C1848 C 0.86413 0.59828 0.06293 0.0
C1849 C 0.86944 0.59122 0.15132 0.0
C1850 C 0.84845 0.60616 0.24197 0.0
C1851 C 0.84521 0.61529 0.15672 0.0
N1852 N 0.84829 0.61935 0.98399 0.0
N1853 N 0.86558 0.58614 0.32197 0.0
C1854 C 0.85236 0.61091 0.06611 0.0
C1855 C 0.86105 0.59431 0.23981 0.0
N1856 N 0.87056 0.59303 0.97653 0.0
N1857 N 0.83975 0.60916 0.32498 0.0
H1858 H 0.87391 0.57664 0.31982 0.0
H1859 H 0.86133 0.58864 0.39173 0.0
H1860 H 0.83064 0.61789 0.32856 0.0
H1861 H 0.84079 0.60252 0.38899 0.0
H1862 H 0.86647 0.5967 0.90833 0.0
H1863 H 0.87931 0.58393 0.97254 0.0
H1864 H 0.8543 0.61833 0.91761 0.0
H1865 H 0.83895 0.62788 0.98301 0.0
C1866 C 0.14638 0.11076 0.84764 0.0
C1867 C 0.15295 0.11603 0.93792 0.0
C1868 C 0.13776 0.09486 0.02414 0.0
C1869 C 0.13019 0.09051 0.9349 0.0
N1870 N 0.13098 0.09021 0.76008 0.0
N1871 N 0.15909 0.11016 0.10522 0.0
C1872 C 0.13582 0.0971 0.84592 0.0
C1873 C 0.15003 0.10702 0.02398 0.0
N1874 N 0.14938 0.11942 0.76483 0.0
N1875 N 0.13255 0.08812 0.10947 0.0
H1876 H 0.16833 0.1188 0.10533 0.0
H1877 H 0.15857 0.10329 0.16867 0.0
H1878 H 0.12429 0.07858 0.11186 0.0
H1879 H 0.13597 0.09231 0.17809 0.0
H1880 H 0.14335 0.11744 0.69921 0.0
H1881 H 0.15742 0.12916 0.76298 0.0
H1882 H 0.13554 0.09351 0.69225 0.0
H1883 H 0.12354 0.07996 0.75816 0.0
C1884 C 0.63436 0.39314 0.52811 0.0
C1885 C 0.62999 0.40284 0.60883 0.0
C1886 C 0.65206 0.39072 0.70399 0.0
C1887 C 0.65342 0.37826 0.63245 0.0
N1888 N 0.64709 0.36841 0.471 0.0
N1889 N 0.63547 0.41254 0.77046 0.0
C1890 C 0.64515 0.3799 0.54199 0.0
C1891 C 0.63933 0.40236 0.69531 0.0
N1892 N 0.62805 0.39665 0.43859 0.0
N1893 N 0.66273 0.39137 0.78004 0.0
H1894 H 0.62697 0.42183 0.76265 0.0
H1895 H 0.64025 0.4115 0.84043 0.0
H1896 H 0.67247 0.38342 0.78696 0.0
H1897 H 0.663 0.40078 0.83074 0.0
H1898 H 0.63151 0.39081 0.3745 0.0
H1899 H 0.6206 0.40671 0.42764 0.0
H1900 H 0.63993 0.36775 0.40858 0.0
H1901 H 0.65554 0.35907 0.4765 0.0
C1902 C 0.35341 0.90293 0.34766 0.0
C1903 C 0.36211 0.90591 0.43497 0.0
C1904 C 0.34343 0.88808 0.52297 0.0
C1905 C 0.33741 0.88232 0.43263 0.0
N1906 N 0.33554 0.8849 0.25797 0.0
N1907 N 0.36503 0.9022 0.60824 0.0
C1908 C 0.34176 0.89021 0.34468 0.0
C1909 C 0.35676 0.89905 0.52402 0.0
N1910 N 0.35638 0.91236 0.26798 0.0
N1911 N 0.33632 0.88296 0.60734 0.0
H1912 H 0.3745 0.91054 0.61196 0.0
H1913 H 0.36299 0.89604 0.67325 0.0
H1914 H 0.3262 0.87535 0.60693 0.0
H1915 H 0.33924 0.88752 0.67596 0.0
H1916 H 0.34967 0.91175 0.20375 0.0
H1917 H 0.36461 0.92195 0.27021 0.0
H1918 H 0.33983 0.88865 0.19031 0.0
H1919 H 0.32638 0.87623 0.25358 0.0
C1920 C 0.10638 0.49681 0.89304 0.0
C1921 C 0.0972 0.48713 0.95817 0.0
C1922 C 0.10237 0.50682 0.08847 0.0
C1923 C 0.1084 0.51793 1.01883 0.0
N1924 N 0.11568 0.52383 0.85201 0.0
N1925 N 0.08564 0.48327 0.11811 0.0
C1926 C 0.11056 0.51295 0.92045 0.0
C1927 C 0.09508 0.49216 0.05632 0.0
N1928 N 0.11105 0.49058 0.80512 0.0
N1929 N 0.10402 0.51014 0.18552 0.0
H1930 H 0.08039 0.47227 0.09811 0.0
H1931 H 0.08215 0.48735 0.18693 0.0
H1932 H 0.11003 0.52048 0.21064 0.0
H1933 H 0.10107 0.50191 0.24023 0.0
H1934 H 0.11892 0.49654 0.75779 0.0
H1935 H 0.10846 0.4787 0.78429 0.0
H1936 H 0.11551 0.52145 0.77742 0.0
H1937 H 0.11908 0.53568 0.86881 0.0
C1938 C 0.741 0.83662 0.28867 0.0
C1939 C 0.72893 0.8416 0.22179 0.0
C1940 C 0.74985 0.85049 0.10706 0.0
C1941 C 0.76192 0.8433 0.16747 0.0
N1942 N 0.76949 0.83409 0.32866 0.0
N1943 N 0.72148 0.85817 0.08598 0.0
C1944 C 0.75769 0.83797 0.26291 0.0
C1945 C 0.73328 0.8502 0.13684 0.0
N1946 N 0.73635 0.83 0.37536 0.0
N1947 N 0.75431 0.85722 0.02016 0.0
H1948 H 0.70953 0.85869 0.11079 0.0
H1949 H 0.72363 0.86543 0.0255 0.0
H1950 H 0.76643 0.85884 1.00067 0.0
H1951 H 0.74617 0.86101 0.96692 0.0
H1952 H 0.74403 0.82372 0.42222 0.0
H1953 H 0.72446 0.83084 0.40021 0.0
H1954 H 0.76733 0.83162 0.40179 0.0
H1955 H 0.78174 0.83456 0.31275 0.0
C1956 C 0.40165 0.51096 0.52163 0.0
C1957 C 0.39768 0.51489 0.42327 0.0
C1958 C 0.39067 0.48627 0.39266 0.0
C1959 C 0.397 0.48233 0.48521 0.0
N1960 N 0.40016 0.49089 0.65048 0.0
N1961 N 0.38315 0.50741 0.2775 0.0
C1962 C 0.39961 0.49477 0.55398 0.0
C1963 C 0.39041 0.50285 0.36268 0.0
N1964 N 0.40854 0.52213 0.58233 0.0
N1965 N 0.3851 0.47414 0.33408 0.0
H1966 H 0.38226 0.51953 0.25653 0.0
H1967 H 0.37692 0.49952 0.2316 0.0
H1968 H 0.38291 0.4626 0.3619 0.0
H1969 H 0.38219 0.47554 0.26079 0.0
H1970 H 0.41362 0.51918 0.64951 0.0
H1971 H 0.41013 0.53419 0.5641 0.0
H1972 H 0.40078 0.49947 0.70622 0.0
H1973 H 0.39783 0.4791 0.67397 0.0
C1974 C 0.75958 0.16059 0.83741 0.0
C1975 C 0.76709 0.14739 0.78931 0.0
C1976 C 0.74009 0.1378 0.73993 0.0
C1977 C 0.73364 0.15339 0.7613 0.0
N1978 N 0.73809 0.18027 0.8282 0.0
N1979 N 0.76432 0.12219 0.70235 0.0
C1980 C 0.74356 0.16493 0.81047 0.0
C1981 C 0.75723 0.13549 0.74379 0.0
N1982 N 0.76754 0.1689 0.90899 0.0
N1983 N 0.72999 0.12531 0.71603 0.0
H1984 H 0.77668 0.11971 0.71031 0.0
H1985 H 0.75811 0.11407 0.65765 0.0
H1986 H 0.71741 0.1264 0.71818 0.0
H1987 H 0.73398 0.11344 0.70576 0.0
H1988 H 0.76203 0.17798 0.95036 0.0
H1989 H 0.77875 0.16524 0.93608 0.0
H1990 H 0.74559 0.18952 0.85391 0.0
H1991 H 0.72651 0.18411 0.80985 0.0
C1992 C 0.89591 0.483 0.11844 0.0
C1993 C 0.90407 0.47787 0.03322 0.0
C1994 C 0.90924 0.50632 0.99061 0.0
C1995 C 0.90443 0.51103 0.08635 0.0
N1996 N 0.89179 0.50402 0.23925 0.0
N1997 N 0.9172 0.48449 0.88168 0.0
C1998 C 0.89715 0.49942 0.14911 0.0
C1999 C 0.91001 0.48952 0.96623 0.0
N2000 N 0.88663 0.47212 0.16845 0.0
N2001 N 0.91318 0.51779 0.92315 0.0
H2002 H 0.9167 0.47255 0.85728 0.0
H2003 H 0.92407 0.492 0.83693 0.0
H2004 H 0.91314 0.5301 0.93824 0.0
H2005 H 0.91507 0.51528 0.84965 0.0
H2006 H 0.87928 0.47518 0.2274 0.0
H2007 H 0.88482 0.46035 0.14305 0.0
H2008 H 0.88847 0.49586 0.29353 0.0
H2009 H 0.89121 0.51609 0.26123 0.0
C2010 C 0.23589 0.13566 0.87122 0.0
C2011 C 0.23132 0.1523 0.8767 0.0
C2012 C 0.25626 0.15933 0.79083 0.0
C2013 C 0.26295 0.14392 0.81257 0.0
N2014 N 0.25722 0.11574 0.84645 0.0
N2015 N 0.23842 0.18041 0.84655 0.0
C2016 C 0.25219 0.13151 0.84476 0.0
C2017 C 0.24188 0.16428 0.83823 0.0
N2018 N 0.22464 0.12385 0.88878 0.0
N2019 N 0.26273 0.16871 0.71879 0.0
H2020 H 0.22811 0.18485 0.88114 0.0
H2021 H 0.24668 0.18939 0.82646 0.0
H2022 H 0.27163 0.16439 0.67143 0.0
H2023 H 0.2575 0.17963 0.69668 0.0
H2024 H 0.22673 0.11153 0.87803 0.0
H2025 H 0.21263 0.12639 0.90607 0.0
H2026 H 0.25127 0.10664 0.88483 0.0
H2027 H 0.26709 0.11164 0.80591 0.0
C2028 C 0.6038 0.48589 0.4296 0.0
C2029 C 0.59692 0.48169 0.52032 0.0
C2030 C 0.59351 0.51031 0.56268 0.0
C2031 C 0.59811 0.51462 0.46599 0.0
N2032 N 0.61291 0.50732 0.32096 0.0
N2033 N 0.59302 0.48935 0.68672 0.0
C2034 C 0.60503 0.50261 0.40379 0.0
C2035 C 0.59447 0.49381 0.59144 0.0
N2036 N 0.60883 0.47388 0.36831 0.0
N2037 N 0.58707 0.52151 0.62493 0.0
H2038 H 0.59439 0.47729 0.70796 0.0
H2039 H 0.5925 0.49757 0.74439 0.0
H2040 H 0.58652 0.5338 0.61001 0.0
H2041 H 0.58142 0.51845 0.69024 0.0
H2042 H 0.61199 0.47566 0.29569 0.0
H2043 H 0.61022 0.46202 0.39283 0.0
H2044 H 0.61903 0.49943 0.27453 0.0
H2045 H 0.61448 0.51951 0.30297 0.0
C2046 C 0.24997 0.85674 0.41967 0.0
C2047 C 0.26099 0.85866 0.34124 0.0
C2048 C 0.23977 0.85096 0.22435 0.0
C2049 C 0.22875 0.84862 0.30315 0.0
N2050 N 0.22216 0.85342 0.47223 0.0
N2051 N 0.26556 0.86204 0.16969 0.0
C2052 C 0.23351 0.8528 0.3997 0.0
C2053 C 0.25559 0.85718 0.2437 0.0
N2054 N 0.25536 0.85797 0.51369 0.0
N2055 N 0.23556 0.84643 0.13187 0.0
H2056 H 0.27707 0.86689 0.18244 0.0
H2057 H 0.26192 0.86279 0.09717 0.0
H2058 H 0.22406 0.84234 0.11283 0.0
H2059 H 0.24378 0.84579 0.07437 0.0
H2060 H 0.24862 0.85428 0.57387 0.0
H2061 H 0.267 0.86186 0.53195 0.0
H2062 H 0.2244 0.85806 0.54156 0.0
H2063 H 0.21001 0.85068 0.46072 0.0
C2064 C 0.60147 0.99363 0.38774 0.0
C2065 C 0.59418 0.98179 0.44905 0.0
C2066 C 0.59014 0.00261 0.57602 0.0
C2067 C 0.59563 0.01456 0.50966 0.0
N2068 N 0.61213 0.02097 0.37164 0.0
N2069 N 0.58545 0.9742 0.6112 0.0
C2070 C 0.6031 0.00986 0.42148 0.0
C2071 C 0.58993 0.98598 0.54679 0.0
N2072 N 0.60647 0.98944 0.29611 0.0
N2073 N 0.58438 0.00729 0.6651 0.0
H2074 H 0.58427 0.9621 0.59221 0.0
H2075 H 0.58391 0.97611 0.68558 0.0
H2076 H 0.58603 0.01895 0.69237 0.0
H2077 H 0.57785 -0.00018 0.7118 0.0
H2078 H 0.60977 -0.00219 0.243 0.0
H2079 H 0.60683 0.97749 0.27172 0.0
H2080 H 0.61899 0.01829 0.31 0.0
H2081 H 0.61422 0.03255 0.39945 0.0
C2082 C 0.23315 0.35084 0.62374 0.0
C2083 C 0.22757 0.34613 0.71749 0.0
C2084 C 0.25554 0.3477 0.77933 0.0
C2085 C 0.26122 0.34829 0.68177 0.0
N2086 N 0.25606 0.35508 0.51466 0.0
N2087 N 0.23335 0.34122 0.88788 0.0
C2088 C 0.25013 0.35153 0.60522 0.0
C2089 C 0.23868 0.34525 0.79683 0.0
N2090 N 0.22212 0.35471 0.55311 0.0
N2091 N 0.26606 0.34995 0.85509 0.0
H2092 H 0.22116 0.34053 0.90658 0.0
H2093 H 0.24107 0.33786 0.94445 0.0
H2094 H 0.27809 0.35334 0.84518 0.0
H2095 H 0.26243 0.35082 0.92757 0.0
H2096 H 0.22507 0.35892 0.48402 0.0
H2097 H 0.20969 0.35475 0.5661 0.0
H2098 H 0.24907 0.35588 0.45176 0.0
H2099 H 0.26837 0.35734 0.50286 0.0
C2100 C 0.89516 0.98776 0.98559 0.0
C2101 C 0.89305 0.98299 0.08457 0.0
C2102 C 0.88563 0.01098 0.1279 0.0
C2103 C 0.88789 0.01568 0.02944 0.0
N2104 N 0.8892 0.00772 0.86095 0.0
N2105 N 0.88093 0.98894 0.24063 0.0
C2106 C 0.89084 0.00377 0.95712 0.0
C2107 C 0.88654 0.99427 0.15265 0.0
N2108 N 0.90218 0.97754 0.91959 0.0
N2109 N 0.88347 0.02244 0.19889 0.0
H2110 H 0.8809 0.97671 0.25973 0.0
H2111 H 0.8747 0.99632 0.28969 0.0
H2112 H 0.88236 0.03478 0.18442 0.0
H2113 H 0.88392 0.01981 0.27308 0.0
H2114 H 0.90593 0.98123 0.8506 0.0
H2115 H 0.90532 0.96566 0.93523 0.0
H2116 H 0.8897 -0.00079 0.80476 0.0
H2117 H 0.88559 0.01925 0.83832 0.0
C2118 C 0.25979 0.65694 0.29348 0.0
C2119 C 0.268 0.64206 0.27841 0.0
C2120 C 0.24466 0.63316 0.17913 0.0
C2121 C 0.2393 0.64955 0.17378 0.0
N2122 N 0.24457 0.67772 0.21267 0.0
N2123 N 0.2657 0.6141 0.22718 0.0
C2124 C 0.24765 0.66166 0.22708 0.0
C2125 C 0.25967 0.62951 0.22719 0.0
N2126 N 0.26282 0.66613 0.37421 0.0
N2127 N 0.23533 0.62113 0.13982 0.0
H2128 H 0.27415 0.61016 0.27845 0.0
H2129 H 0.2619 0.60508 0.17912 0.0
H2130 H 0.22459 0.62348 0.10268 0.0
H2131 H 0.23763 0.60881 0.14875 0.0
H2132 H 0.25628 0.67665 0.39012 0.0
H2133 H 0.27021 0.66202 0.43081 0.0
H2134 H 0.25125 0.68682 0.24726 0.0
H2135 H 0.237 0.68185 0.15728 0.0
C2136 C 0.40201 0.00044 0.66928 0.0
C2137 C 0.39891 0.01448 0.61414 0.0
C2138 C 0.39114 0.99724 0.4758 0.0
C2139 C 0.39878 0.9838 0.5223 0.0
N2140 N 0.41186 0.97309 0.66769 0.0
N2141 N 0.38569 0.02631 0.47592 0.0
C2142 C 0.40391 0.98535 0.62125 0.0
C2143 C 0.39179 0.0129 0.52077 0.0
N2144 N 0.40327 0.00173 0.76815 0.0
N2145 N 0.38302 0.99486 0.39007 0.0
H2146 H 0.3836 0.03702 0.51437 0.0
H2147 H 0.38232 0.02675 0.40289 0.0
H2148 H 0.38181 0.98343 0.35815 0.0
H2149 H 0.37641 0.00381 0.35439 0.0
H2150 H 0.40421 0.99175 0.81431 0.0
H2151 H 0.40122 0.01274 0.80375 0.0
H2152 H 0.41761 0.97459 0.73471 0.0
H2153 H 0.41398 0.96182 0.63704 0.0
C2154 C 0.74314 0.63953 0.39303 0.0
C2155 C 0.73215 0.64847 0.33421 0.0
C2156 C 0.75364 0.65105 0.21099 0.0
C2157 C 0.76528 0.6464 0.28121 0.0
N2158 N 0.77115 0.63496 0.43853 0.0
N2159 N 0.72791 0.66409 0.18592 0.0
C2160 C 0.76001 0.64007 0.37176 0.0
C2161 C 0.73749 0.65428 0.24158 0.0
N2162 N 0.73739 0.63035 0.4683 0.0
N2163 N 0.75799 0.65273 0.11563 0.0
H2164 H 0.71633 0.66764 0.20552 0.0
H2165 H 0.73211 0.67006 0.12402 0.0
H2166 H 0.76963 0.65012 0.09083 0.0
H2167 H 0.74961 0.65475 0.06004 0.0
H2168 H 0.74467 0.62257 0.50901 0.0
H2169 H 0.72501 0.62919 0.48283 0.0
H2170 H 0.76825 0.63223 0.51056 0.0
H2171 H 0.78344 0.63402 0.42197 0.0
C2172 C 0.09973 0.98912 1.01358 0.0
C2173 C 0.0995 0.98315 0.11072 0.0
C2174 C 0.10963 0.00945 0.16979 0.0
C2175 C 0.10948 0.01535 0.07268 0.0
N2176 N 0.11018 0.00924 0.90145 0.0
N2177 N 0.10887 0.98595 0.27618 0.0
C2178 C 0.10651 0.00459 0.99437 0.0
C2179 C 0.10606 0.99279 0.18711 0.0
N2180 N 0.09235 0.98068 0.94065 0.0
N2181 N 0.11224 0.01987 0.24582 0.0
H2182 H 0.10658 0.97372 0.29026 0.0
H2183 H 0.11492 0.9919 0.33255 0.0
H2184 H 0.11536 0.032 0.23631 0.0
H2185 H 0.11041 0.01671 0.31844 0.0
H2186 H 0.09044 0.98533 0.87101 0.0
H2187 H 0.08688 0.9696 0.9527 0.0
H2188 H 0.10959 0.00141 0.84182 0.0
H2189 H 0.11544 0.02047 0.88598 0.0
C2190 C 0.74309 0.35133 0.65941 0.0
C2191 C 0.73193 0.34664 0.73268 0.0
C2192 C 0.75441 0.34094 0.84468 0.0
C2193 C 0.76559 0.34394 0.76785 0.0
N2194 N 0.77095 0.35751 0.61629 0.0
N2195 N 0.72701 0.34429 0.90548 0.0
C2196 C 0.76001 0.35095 0.67959 0.0
C2197 C 0.73757 0.34386 0.82898 0.0
N2198 N 0.73741 0.35583 0.56983 0.0
N2199 N 0.75966 0.33449 0.93074 0.0
H2200 H 0.71498 0.34778 0.89757 0.0
H2201 H 0.73061 0.3435 0.97807 0.0
H2202 H 0.77185 0.33303 0.9481 0.0
H2203 H 0.75185 0.32984 0.98341 0.0
H2204 H 0.74473 0.35731 0.50871 0.0
H2205 H 0.72508 0.35773 0.55644 0.0
H2206 H 0.76778 0.36384 0.55358 0.0
H2207 H 0.78327 0.35811 0.63242 0.0
C2208 C 0.01151 0.54936 0.19334 0.0
C2209 C 0.01909 0.55741 0.11409 0.0
C2210 C 0.9925 0.56536 0.04942 0.0
C2211 C 0.98491 0.55669 0.12623 0.0
N2212 N 0.9867 0.53852 0.26302 0.0
N2213 N 0.01721 0.57107 0.95939 0.0
C2214 C 0.99429 0.54812 0.19586 0.0
C2215 C 0.00968 0.56481 0.03981 0.0
N2216 N 0.02081 0.54327 0.26735 0.0
N2217 N 0.98327 0.57452 0.98747 0.0
H2218 H 0.02979 0.57127 0.95116 0.0
H2219 H 0.01105 0.57501 0.89758 0.0
H2220 H 0.97063 0.57491 0.99057 0.0
H2221 H 0.98809 0.58261 0.93708 0.0
H2222 H 0.01607 0.53896 0.33263 0.0
H2223 H 0.03347 0.54342 0.26625 0.0
H2224 H 0.99278 0.53056 0.30911 0.0
H2225 H 0.9741 0.53762 0.26822 0.0
C2226 C 0.68633 0.74016 0.13576 0.0
C2227 C 0.69716 0.73139 0.19653 0.0
C2228 C 0.71099 0.75685 0.23555 0.0
C2229 C 0.69618 0.765 0.21413 0.0
N2230 N 0.67925 0.76671 0.07141 0.0
N2231 N 0.72619 0.73188 0.21201 0.0
C2232 C 0.68637 0.75742 0.1417 0.0
C2233 C 0.71169 0.7397 0.22154 0.0
N2234 N 0.67754 0.73219 0.06643 0.0
N2235 N 0.72471 0.76549 0.25449 0.0
H2236 H 0.72686 0.72031 0.18103 0.0
H2237 H 0.73744 0.7373 0.22327 0.0
H2238 H 0.72565 0.7777 0.23539 0.0
H2239 H 0.73522 0.76039 0.28345 0.0
H2240 H 0.6682 0.73747 0.02652 0.0
H2241 H 0.68004 0.72013 0.04827 0.0
H2242 H 0.67254 0.76211 1.01337 0.0
H2243 H 0.68158 0.77912 0.06651 0.0
C2244 C 0.48786 0.44782 0.56784 0.0
C2245 C 0.47952 0.43489 0.52128 0.0
C2246 C 0.50543 0.42258 0.4732 0.0
C2247 C 0.51373 0.43466 0.5277 0.0
N2248 N 0.51326 0.45812 0.63285 0.0
N2249 N 0.47986 0.40931 0.43595 0.0
C2250 C 0.50505 0.44715 0.57639 0.0
C2251 C 0.48817 0.42212 0.47512 0.0
N2252 N 0.4793 0.46085 0.60224 0.0
N2253 N 0.5141 0.41169 0.41868 0.0
H2254 H 0.46722 0.40881 0.43323 0.0
H2255 H 0.48537 0.3987 0.4114 0.0
H2256 H 0.52675 0.41136 0.41791 0.0
H2257 H 0.50886 0.40371 0.36891 0.0
H2258 H 0.48467 0.47147 0.62767 0.0
H2259 H 0.46668 0.46159 0.59881 0.0
H2260 H 0.50762 0.46634 0.67947 0.0
H2261 H 0.52589 0.4584 0.63777 0.0
C2262 C 0.80241 0.25538 0.76997 0.0
C2263 C 0.81483 0.26383 0.82176 0.0
C2264 C 0.83054 0.2386 0.82726 0.0
C2265 C 0.8158 0.22986 0.81329 0.0
N2266 N 0.79671 0.23072 0.68068 0.0
N2267 N 0.84381 0.26436 0.79935 0.0
C2268 C 0.80379 0.23824 0.75855 0.0
C2269 C 0.83016 0.25587 0.82312 0.0
N2270 N 0.79086 0.2637 0.71954 0.0
N2271 N 0.84501 0.2306 0.83065 0.0
H2272 H 0.84314 0.27626 0.77374 0.0
H2273 H 0.85525 0.25916 0.79147 0.0
H2274 H 0.84618 0.21861 0.80695 0.0
H2275 H 0.85574 0.23603 0.85416 0.0
H2276 H 0.78031 0.25826 0.69314 0.0
H2277 H 0.79236 0.27586 0.70075 0.0
H2278 H 0.78873 0.23639 0.63279 0.0
H2279 H 0.80088 0.21949 0.65562 0.0
C2280 C 0.98995 0.43528 0.02412 0.0
C2281 C 0.98232 0.42509 0.95361 0.0
C2282 C 0.0089 0.41409 0.91005 0.0
C2283 C 0.01622 0.42793 0.95439 0.0
N2284 N 0.01441 0.43792 0.11912 0.0
N2285 N 0.98556 0.39656 0.92084 0.0
C2286 C 0.00717 0.43511 0.03132 0.0
C2287 C 0.99185 0.41185 0.91998 0.0
N2288 N 0.98092 0.44348 0.09134 0.0
N2289 N 0.01826 0.40222 0.86965 0.0
H2290 H 0.97468 0.39408 0.95671 0.0
H2291 H 0.99223 0.38622 0.90329 0.0
H2292 H 0.03076 0.40161 0.88127 0.0
H2293 H 0.01344 0.39298 0.82642 0.0
H2294 H 0.98581 0.45249 0.13606 0.0
H2295 H 0.96866 0.44096 0.1029 0.0
H2296 H 0.0082 0.4421 0.18034 0.0
H2297 H 0.02586 0.43315 0.1348 0.0
C2298 C 0.79617 0.75208 0.02662 0.0
C2299 C 0.80217 0.76096 0.10773 0.0
C2300 C 0.80664 0.73561 0.19697 0.0
C2301 C 0.80242 0.72671 0.11201 0.0
N2302 N 0.79465 0.72616 0.94269 0.0
N2303 N 0.81518 0.76133 0.26545 0.0
C2304 C 0.7975 0.73485 0.02592 0.0
C2305 C 0.80789 0.75277 0.19196 0.0
N2306 N 0.78891 0.76013 0.95128 0.0
N2307 N 0.80913 0.72764 0.28304 0.0
H2308 H 0.81633 0.77393 0.26493 0.0
H2309 H 0.82126 0.7559 0.32333 0.0
H2310 H 0.80841 0.71505 0.28948 0.0
H2311 H 0.8105 0.73353 0.34973 0.0
H2312 H 0.7828 0.75433 0.89467 0.0
H2313 H 0.78783 0.77273 0.94937 0.0
H2314 H 0.7928 0.73145 0.87477 0.0
H2315 H 0.79524 0.71352 0.94003 0.0
C2316 C 0.48941 0.56418 0.45202 0.0
C2317 C 0.48192 0.55584 0.37326 0.0
C2318 C 0.50866 0.54876 0.30651 0.0
C2319 C 0.51613 0.55654 0.38733 0.0
N2320 N 0.51399 0.56967 0.54399 0.0
N2321 N 0.4839 0.53829 0.23328 0.0
C2322 C 0.50659 0.56365 0.46227 0.0
C2323 C 0.49141 0.54755 0.30271 0.0
N2324 N 0.48008 0.57302 0.51537 0.0
N2325 N 0.51808 0.54289 0.23233 0.0
H2326 H 0.47131 0.53744 0.22732 0.0
H2327 H 0.49003 0.53055 0.18586 0.0
H2328 H 0.53074 0.54307 0.23431 0.0
H2329 H 0.51346 0.53873 0.16625 0.0
H2330 H 0.48482 0.58094 0.56721 0.0
H2331 H 0.46744 0.57327 0.51242 0.0
H2332 H 0.50775 0.57332 0.60623 0.0
H2333 H 0.52656 0.57002 0.55269 0.0
C2334 C 0.69466 0.24121 0.68741 0.0
C2335 C 0.6861 0.23117 0.75342 0.0
C2336 C 0.67895 0.255 0.8521 0.0
C2337 C 0.68597 0.26518 0.78033 0.0
N2338 N 0.6984 0.26814 0.62171 0.0
N2339 N 0.66824 0.22842 0.8917 0.0
C2340 C 0.69332 0.25833 0.69591 0.0
C2341 C 0.67775 0.23804 0.83415 0.0
N2342 N 0.70443 0.23436 0.61799 0.0
N2343 N 0.67384 0.26152 0.93851 0.0
H2344 H 0.66709 0.21595 0.88103 0.0
H2345 H 0.66047 0.23297 0.94501 0.0
H2346 H 0.67465 0.27389 0.9542 0.0
H2347 H 0.67016 0.25457 0.99777 0.0
H2348 H 0.71241 0.24102 0.57496 0.0
H2349 H 0.70563 0.22185 0.609 0.0
H2350 H 0.70201 0.26377 0.55382 0.0
H2351 H 0.69779 0.28074 0.62465 0.0
C2352 C 0.3119 0.25698 0.84452 0.0
C2353 C 0.30684 0.26596 0.76183 0.0
C2354 C 0.30014 0.24066 0.67586 0.0
C2355 C 0.30666 0.2317 0.75476 0.0
N2356 N 0.32035 0.23098 0.91004 0.0
N2357 N 0.29815 0.26656 0.59374 0.0
C2358 C 0.31296 0.23977 0.83817 0.0
C2359 C 0.30143 0.25786 0.67618 0.0
N2360 N 0.31527 0.26491 0.92981 0.0
N2361 N 0.29243 0.23272 0.60148 0.0
H2362 H 0.29872 0.27918 0.59097 0.0
H2363 H 0.29605 0.26128 0.52591 0.0
H2364 H 0.29155 0.22011 0.59781 0.0
H2365 H 0.2858 0.23859 0.54745 0.0
H2366 H 0.31738 0.25902 0.99564 0.0
H2367 H 0.31465 0.2775 0.93673 0.0
H2368 H 0.32681 0.23619 0.96731 0.0
H2369 H 0.32103 0.21834 0.90896 0.0
C2370 C 0.1889 0.7391 0.20118 0.0
C2371 C 0.19493 0.7312 0.11652 0.0
C2372 C 0.19879 0.7576 0.03699 0.0
C2373 C 0.19365 0.76548 0.12375 0.0
N2374 N 0.18695 0.76402 0.29459 0.0
N2375 N 0.20819 0.73272 0.96035 0.0
C2376 C 0.18966 0.7563 0.20777 0.0
C2377 C 0.20065 0.74041 0.03625 0.0
N2378 N 0.1818 0.73021 0.27366 0.0
N2379 N 0.20135 0.7665 0.95445 0.0
H2380 H 0.20966 0.72016 0.95733 0.0
H2381 H 0.21414 0.73881 0.90439 0.0
H2382 H 0.20032 0.77911 0.95278 0.0
H2383 H 0.20334 0.76136 0.88611 0.0
H2384 H 0.17552 0.73539 0.33178 0.0
H2385 H 0.18098 0.71759 0.27188 0.0
H2386 H 0.18573 0.75796 0.36067 0.0
H2387 H 0.18735 0.77661 0.30234 0.0
C2388 C 0.18983 0.25989 0.98617 0.0
C2389 C 0.18467 0.26734 0.89825 0.0
C2390 C 0.17863 0.2406 0.82792 0.0
C2391 C 0.18499 0.23311 0.91286 0.0
N2392 N 0.19887 0.23532 0.06695 0.0
N2393 N 0.1768 0.26492 0.72947 0.0
C2394 C 0.19122 0.24268 0.99044 0.0
C2395 C 0.17982 0.25772 0.81736 0.0
N2396 N 0.19289 0.26926 0.06648 0.0
N2397 N 0.17096 0.2314 0.75877 0.0
H2398 H 0.17747 0.27743 0.71878 0.0
H2399 H 0.17497 0.25845 0.66513 0.0
H2400 H 0.16988 0.21882 0.76356 0.0
H2401 H 0.16448 0.23632 0.70076 0.0
H2402 H 0.19496 0.26451 0.13563 0.0
H2403 H 0.19212 0.28189 0.06578 0.0
H2404 H 0.20522 0.24163 0.12058 0.0
H2405 H 0.19998 0.22275 0.07284 0.0
C2406 C 0.30705 0.74202 0.28442 0.0
C2407 C 0.29947 0.73372 0.36272 0.0
C2408 C 0.29151 0.7596 0.43704 0.0
C2409 C 0.29902 0.7679 0.35854 0.0
N2410 N 0.31125 0.76745 0.19905 0.0
N2411 N 0.28196 0.734 0.50311 0.0
C2412 C 0.30591 0.75922 0.27932 0.0
C2413 C 0.29088 0.74235 0.43581 0.0
N2414 N 0.31585 0.73348 0.21709 0.0
N2415 N 0.28544 0.76824 0.51409 0.0
H2416 H 0.28145 0.72136 0.50479 0.0
H2417 H 0.2741 0.73948 0.55255 0.0
H2418 H 0.28508 0.78089 0.51552 0.0
H2419 H 0.28155 0.76299 0.57889 0.0
H2420 H 0.32328 0.73885 0.16504 0.0
H2421 H 0.31652 0.72085 0.21648 0.0
H2422 H 0.31482 0.76185 0.1345 0.0
H2423 H 0.31099 0.78008 0.194 0.0
C2424 C 0.5075 0.05171 0.75032 0.0
C2425 C 0.51608 0.05932 0.67337 0.0
C2426 C 0.49045 0.06925 0.60488 0.0
C2427 C 0.48178 0.06038 0.67654 0.0
N2428 N 0.4819 0.04071 0.80652 0.0
N2429 N 0.51568 0.07259 0.51671 0.0
C2430 C 0.49027 0.0509 0.74629 0.0
C2431 C 0.50754 0.06731 0.59746 0.0
N2432 N 0.51577 0.04572 0.82879 0.0
N2433 N 0.48245 0.08001 0.54629 0.0
H2434 H 0.52819 0.07128 0.508 0.0
H2435 H 0.50986 0.0769 0.45454 0.0
H2436 H 0.46997 0.08199 0.5503 0.0
H2437 H 0.48838 0.08806 0.50001 0.0
H2438 H 0.51008 0.04162 0.89187 0.0
H2439 H 0.52839 0.04615 0.83449 0.0
H2440 H 0.48751 0.03226 0.85172 0.0
H2441 H 0.46929 0.03962 0.80497 0.0
C2442 C 0.00537 0.95085 0.17029 0.0
C2443 C 0.01255 0.94194 0.09272 0.0
C2444 C 0.98563 0.9341 0.03274 0.0
C2445 C 0.97845 0.94332 0.10897 0.0
N2446 N 0.98096 0.96274 0.23943 0.0
N2447 N 0.00997 0.92752 0.94075 0.0
C2448 C 0.98818 0.95244 0.17433 0.0
C2449 C 0.00279 0.93431 0.02095 0.0
N2450 N 0.01496 0.95723 0.24217 0.0
N2451 N 0.97606 0.92478 0.97345 0.0
H2452 H 0.02251 0.92734 0.93057 0.0
H2453 H 0.00355 0.9232 0.88071 0.0
H2454 H 0.96341 0.92478 0.9773 0.0
H2455 H 0.98058 0.91629 0.92418 0.0
H2456 H 0.01045 0.96217 0.30656 0.0
H2457 H 0.0276 0.95668 0.24057 0.0
H2458 H 0.98732 0.97104 0.28209 0.0
H2459 H 0.96839 0.9639 0.24567 0.0
C2460 C 0.50533 0.92886 0.47428 0.0
C2461 C 0.51303 0.93639 0.39354 0.0
C2462 C 0.48653 0.94472 0.32852 0.0
C2463 C 0.47882 0.93654 0.40677 0.0
N2464 N 0.48032 0.91944 0.5488 0.0
N2465 N 0.51139 0.94997 0.23856 0.0
C2466 C 0.48808 0.92822 0.47823 0.0
C2467 C 0.50373 0.94389 0.31907 0.0
N2468 N 0.51458 0.92257 0.54802 0.0
N2469 N 0.47738 0.95355 0.26449 0.0
H2470 H 0.52398 0.95011 0.23097 0.0
H2471 H 0.50536 0.95398 0.1765 0.0
H2472 H 0.46473 0.95392 0.26703 0.0
H2473 H 0.48223 0.96129 0.21229 0.0
H2474 H 0.50989 0.91868 0.61435 0.0
H2475 H 0.52722 0.92203 0.54555 0.0
H2476 H 0.48618 0.91155 0.59629 0.0
H2477 H 0.46774 0.91925 0.55667 0.0
C2478 C 0.00745 0.05425 0.06995 0.0
C2479 C 0.01677 0.04827 0.99065 0.0
C2480 C 0.99185 0.04003 0.90573 0.0
C2481 C 0.98256 0.04776 0.97942 0.0
N2482 N 0.98107 0.06289 0.1297 0.0
N2483 N 0.01829 0.03603 0.83122 0.0
C2484 C 0.99024 0.05492 0.06162 0.0
C2485 C 0.00908 0.04118 0.90829 0.0
N2486 N 0.01511 0.05919 0.15334 0.0
N2487 N 0.98413 0.03141 0.83411 0.0
H2488 H 0.03095 0.03605 0.83224 0.0
H2489 H 0.01348 0.03255 0.76422 0.0
H2490 H 0.97152 0.03052 0.82966 0.0
H2491 H 0.99012 0.02412 0.7836 0.0
H2492 H 0.00907 0.06212 0.21761 0.0
H2493 H 0.02771 0.05923 0.16091 0.0
H2494 H 0.98593 0.07001 0.1852 0.0
H2495 H 0.96842 0.06317 0.12772 0.0
loop_
_geom_bond_atom_site_label_1
_geom_bond_atom_site_label_2
_geom_bond_distance
_geom_bond_site_symmetry_2
_ccdc_geom_bond_type
C0 C1 1.351 . S
C0 N3 1.368 . S
C0 H5 0.931 . S
C1 C0 1.351 . S
C1 N2 1.373 . S
C1 H29 0.930 . S
N2 C1 1.373 . S
N2 C4 1.340 . S
N3 C0 1.368 . S
N3 C4 1.321 . S
N3 Co6 2.135 1_556 S
C4 N2 1.340 . S
C4 N3 1.321 . S
C4 H28 0.930 . S
H5 C0 0.931 . S
Co6 N3 2.135 1_554 S
Co6 N9 2.121 . S
Co6 O14 2.055 . S
Co6 O17 2.039 . S
Co6 N20 2.140 . S
C7 O8 1.227 1_554 S
C7 O17 1.265 . S
O8 C7 1.227 1_556 S
N9 Co6 2.121 . S
N9 C11 1.375 . S
N9 C12 1.313 . S
C10 C11 1.338 . S
C10 N13 1.377 . S
C10 H30 0.930 . S
C11 N9 1.375 . S
C11 C10 1.338 . S
C11 H15 0.931 . S
C12 N9 1.313 . S
C12 N13 1.344 . S
C12 H16 0.930 . S
N13 C10 1.377 . S
N13 C12 1.344 . S
O14 Co6 2.055 . S
O14 C18 1.253 . S
H15 C11 0.931 . S
H16 C12 0.930 . S
O17 Co6 2.039 . S
O17 C7 1.265 . S
C18 O14 1.253 . S
C18 O19 1.227 . S
O19 C18 1.227 . S
N20 Co6 2.140 . S
N20 C23 1.346 1_554 S
N20 C24 1.345 . S
C21 C22 1.387 1_554 S
C21 C25 1.391 . S
C22 C21 1.387 1_556 S
C22 C23 1.369 . S
C22 H31 0.929 . S
C23 N20 1.346 1_556 S
C23 C22 1.369 . S
C23 H26 0.928 . S
C24 N20 1.345 . S
C24 C25 1.371 . S
C24 H27 0.931 . S
C25 C21 1.391 . S
C25 C24 1.371 . S
C25 H32 0.930 . S
H26 C23 0.928 . S
H27 C24 0.931 . S
H28 C4 0.930 . S
H29 C1 0.930 . S
H30 C10 0.930 . S
H31 C22 0.929 . S
H32 C25 0.930 . S
C33 C34 1.351 . S
C33 N36 1.368 . S
C33 H38 0.931 . S
C34 C33 1.351 . S
C34 N35 1.373 . S
C34 H62 0.930 1_554 S
N35 C34 1.373 . S
N35 C37 1.340 . S
N36 C33 1.368 . S
N36 C37 1.321 . S
N36 Co39 2.135 . S
C37 N35 1.340 . S
C37 N36 1.321 . S
C37 H61 0.930 . S
H38 C33 0.931 . S
Co39 N36 2.135 . S
Co39 N42 2.121 . S
Co39 O47 2.055 . S
Co39 O50 2.039 . S
Co39 N53 2.140 . S
C40 O41 1.227 . S
C40 O50 1.265 . S
O41 C40 1.227 . S
N42 Co39 2.121 . S
N42 C44 1.375 . S
N42 C45 1.313 . S
C43 C44 1.338 . S
C43 N46 1.377 . S
C43 H63 0.930 . S
C44 N42 1.375 . S
C44 C43 1.338 . S
C44 H48 0.931 . S
C45 N42 1.313 . S
C45 N46 1.344 . S
C45 H49 0.930 . S
N46 C43 1.377 . S
N46 C45 1.344 . S
O47 Co39 2.055 . S
O47 C51 1.253 . S
H48 C44 0.931 . S
H49 C45 0.930 . S
O50 Co39 2.039 . S
O50 C40 1.265 . S
C51 O47 1.253 . S
C51 O52 1.227 . S
O52 C51 1.227 . S
N53 Co39 2.140 . S
N53 C56 1.346 . S
N53 C57 1.345 . S
C54 C55 1.387 . S
C54 C58 1.391 . S
C55 C54 1.387 . S
C55 C56 1.369 . S
C55 H64 0.929 . S
C56 N53 1.346 . S
C56 C55 1.369 . S
C56 H59 0.928 . S
C57 N53 1.345 . S
C57 C58 1.371 . S
C57 H60 0.931 . S
C58 C54 1.391 . S
C58 C57 1.371 . S
C58 H65 0.930 . S
H59 C56 0.928 . S
H60 C57 0.931 . S
H61 C37 0.930 . S
H62 C34 0.930 1_556 S
H63 C43 0.930 . S
H64 C55 0.929 . S
H65 C58 0.930 . S
C66 C67 1.351 . S
C66 N69 1.368 . S
C66 H71 0.931 . S
C67 C66 1.351 . S
C67 N68 1.373 . S
C67 H95 0.930 . S
N68 C67 1.373 . S
N68 C70 1.340 . S
N69 C66 1.368 . S
N69 C70 1.321 . S
N69 Co72 2.135 . S
C70 N68 1.340 . S
C70 N69 1.321 . S
C70 H94 0.930 . S
H71 C66 0.931 . S
Co72 N69 2.135 . S
Co72 N75 2.121 . S
Co72 O80 2.055 . S
Co72 O83 2.039 . S
Co72 N86 2.140 . S
C73 O74 1.227 . S
C73 O83 1.265 . S
O74 C73 1.227 . S
N75 Co72 2.121 . S
N75 C77 1.375 . S
N75 C78 1.313 . S
C76 C77 1.338 . S
C76 N79 1.377 . S
C76 H96 0.930 . S
C77 N75 1.375 . S
C77 C76 1.338 . S
C77 H81 0.931 . S
C78 N75 1.313 . S
C78 N79 1.344 . S
C78 H82 0.930 . S
N79 C76 1.377 . S
N79 C78 1.344 . S
O80 Co72 2.055 . S
O80 C84 1.253 . S
H81 C77 0.931 . S
H82 C78 0.930 . S
O83 Co72 2.039 . S
O83 C73 1.265 . S
C84 O80 1.253 . S
C84 O85 1.227 . S
O85 C84 1.227 . S
N86 Co72 2.140 . S
N86 C89 1.346 . S
N86 C90 1.345 . S
C87 C88 1.387 . S
C87 C91 1.391 . S
C88 C87 1.387 . S
C88 C89 1.369 . S
C88 H97 0.929 . S
C89 N86 1.346 . S
C89 C88 1.369 . S
C89 H92 0.928 . S
C90 N86 1.345 . S
C90 C91 1.371 . S
C90 H93 0.931 . S
C91 C87 1.391 . S
C91 C90 1.371 . S
C91 H98 0.930 . S
H92 C89 0.928 . S
H93 C90 0.931 . S
H94 C70 0.930 . S
H95 C67 0.930 . S
H96 C76 0.930 . S
H97 C88 0.929 . S
H98 C91 0.930 . S
C99 C100 1.351 . S
C99 N102 1.368 . S
C99 H104 0.931 . S
C100 C99 1.351 . S
C100 N101 1.373 . S
C100 H128 0.930 . S
N101 C100 1.373 . S
N101 C103 1.340 . S
N102 C99 1.368 . S
N102 C103 1.321 . S
N102 Co105 2.135 . S
C103 N101 1.340 . S
C103 N102 1.321 . S
C103 H127 0.930 . S
H104 C99 0.931 . S
Co105 N102 2.135 . S
Co105 N108 2.121 . S
Co105 O113 2.055 . S
Co105 O116 2.039 . S
Co105 N119 2.140 . S
C106 O107 1.227 . S
C106 O116 1.265 . S
O107 C106 1.227 . S
N108 Co105 2.121 . S
N108 C110 1.375 . S
N108 C111 1.313 1_556 S
C109 C110 1.338 1_554 S
C109 N112 1.377 . S
C109 H129 0.930 . S
C110 N108 1.375 . S
C110 C109 1.338 1_556 S
C110 H114 0.931 . S
C111 N108 1.313 1_554 S
C111 N112 1.344 . S
C111 H115 0.930 . S
N112 C109 1.377 . S
N112 C111 1.344 . S
O113 Co105 2.055 . S
O113 C117 1.253 . S
H114 C110 0.931 . S
H115 C111 0.930 . S
O116 Co105 2.039 . S
O116 C106 1.265 . S
C117 O113 1.253 . S
C117 O118 1.227 . S
O118 C117 1.227 . S
N119 Co105 2.140 . S
N119 C122 1.346 . S
N119 C123 1.345 . S
C120 C121 1.387 . S
C120 C124 1.391 . S
C121 C120 1.387 . S
C121 C122 1.369 . S
C121 H130 0.929 . S
C122 N119 1.346 . S
C122 C121 1.369 . S
C122 H125 0.928 . S
C123 N119 1.345 . S
C123 C124 1.371 . S
C123 H126 0.931 . S
C124 C120 1.391 . S
C124 C123 1.371 . S
C124 H131 0.930 . S
H125 C122 0.928 . S
H126 C123 0.931 . S
H127 C103 0.930 . S
H128 C100 0.930 . S
H129 C109 0.930 . S
H130 C121 0.929 . S
H131 C124 0.930 . S
C132 C133 1.351 . S
C132 N135 1.368 . S
C132 H137 0.931 . S
C133 C132 1.351 . S
C133 N134 1.373 . S
C133 H161 0.930 . S
N134 C133 1.373 . S
N134 C136 1.340 . S
N135 C132 1.368 . S
N135 C136 1.321 . S
N135 Co138 2.135 1_554 S
C136 N134 1.340 . S
C136 N135 1.321 . S
C136 H160 0.930 . S
H137 C132 0.931 . S
Co138 N135 2.135 1_556 S
Co138 N141 2.121 . S
Co138 O146 2.055 . S
Co138 O149 2.039 . S
Co138 N152 2.140 . S
C139 O140 1.227 1_556 S
C139 O149 1.265 . S
O140 C139 1.227 1_554 S
N141 Co138 2.121 . S
N141 C143 1.375 . S
N141 C144 1.313 . S
C142 C143 1.338 . S
C142 N145 1.377 . S
C142 H162 0.930 . S
C143 N141 1.375 . S
C143 C142 1.338 . S
C143 H147 0.931 . S
C144 N141 1.313 . S
C144 N145 1.344 . S
C144 H148 0.930 . S
N145 C142 1.377 . S
N145 C144 1.344 . S
O146 Co138 2.055 . S
O146 C150 1.253 . S
H147 C143 0.931 . S
H148 C144 0.930 . S
O149 Co138 2.039 . S
O149 C139 1.265 . S
C150 O146 1.253 . S
C150 O151 1.227 . S
O151 C150 1.227 . S
N152 Co138 2.140 . S
N152 C155 1.346 1_556 S
N152 C156 1.345 . S
C153 C154 1.387 1_556 S
C153 C157 1.391 . S
C154 C153 1.387 1_554 S
C154 C155 1.369 . S
C154 H163 0.929 . S
C155 N152 1.346 1_554 S
C155 C154 1.369 . S
C155 H158 0.928 . S
C156 N152 1.345 . S
C156 C157 1.371 . S
C156 H159 0.931 . S
C157 C153 1.391 . S
C157 C156 1.371 . S
C157 H164 0.930 . S
H158 C155 0.928 . S
H159 C156 0.931 . S
H160 C136 0.930 . S
H161 C133 0.930 . S
H162 C142 0.930 . S
H163 C154 0.929 . S
H164 C157 0.930 . S
C165 C166 1.351 . S
C165 N168 1.368 . S
C165 H170 0.931 . S
C166 C165 1.351 . S
C166 N167 1.373 . S
C166 H194 0.930 . S
N167 C166 1.373 . S
N167 C169 1.340 . S
N168 C165 1.368 . S
N168 C169 1.321 . S
N168 Co171 2.135 . S
C169 N167 1.340 . S
C169 N168 1.321 . S
C169 H193 0.930 . S
H170 C165 0.931 . S
Co171 N168 2.135 . S
Co171 N174 2.121 . S
Co171 O179 2.055 . S
Co171 O182 2.039 . S
Co171 N185 2.140 . S
C172 O173 1.227 . S
C172 O182 1.265 . S
O173 C172 1.227 . S
N174 Co171 2.121 . S
N174 C176 1.375 . S
N174 C177 1.313 1_554 S
C175 C176 1.338 1_556 S
C175 N178 1.377 . S
C175 H195 0.930 . S
C176 N174 1.375 . S
C176 C175 1.338 1_554 S
C176 H180 0.931 . S
C177 N174 1.313 1_556 S
C177 N178 1.344 . S
C177 H181 0.930 . S
N178 C175 1.377 . S
N178 C177 1.344 . S
O179 Co171 2.055 . S
O179 C183 1.253 . S
H180 C176 0.931 . S
H181 C177 0.930 . S
O182 Co171 2.039 . S
O182 C172 1.265 . S
C183 O179 1.253 . S
C183 O184 1.227 . S
O184 C183 1.227 . S
N185 Co171 2.140 . S
N185 C188 1.346 . S
N185 C189 1.345 . S
C186 C187 1.387 . S
C186 C190 1.391 . S
C187 C186 1.387 . S
C187 C188 1.369 . S
C187 H196 0.929 . S
C188 N185 1.346 . S
C188 C187 1.369 . S
C188 H191 0.928 . S
C189 N185 1.345 . S
C189 C190 1.371 . S
C189 H192 0.931 . S
C190 C186 1.391 . S
C190 C189 1.371 . S
C190 H197 0.930 . S
H191 C188 0.928 . S
H192 C189 0.931 . S
H193 C169 0.930 . S
H194 C166 0.930 . S
H195 C175 0.930 . S
H196 C187 0.929 . S
H197 C190 0.930 . S
C198 C199 1.351 . S
C198 N201 1.368 . S
C198 H203 0.931 . S
C199 C198 1.351 . S
C199 N200 1.373 . S
C199 H227 0.930 . S
N200 C199 1.373 . S
N200 C202 1.340 . S
N201 C198 1.368 . S
N201 C202 1.321 . S
N201 Co204 2.135 . S
C202 N200 1.340 . S
C202 N201 1.321 . S
C202 H226 0.930 . S
H203 C198 0.931 . S
Co204 N201 2.135 . S
Co204 N207 2.121 . S
Co204 O212 2.055 . S
Co204 O215 2.039 . S
Co204 N218 2.140 . S
C205 O206 1.227 . S
C205 O215 1.265 . S
O206 C205 1.227 . S
N207 Co204 2.121 . S
N207 C209 1.375 . S
N207 C210 1.313 . S
C208 C209 1.338 . S
C208 N211 1.377 . S
C208 H228 0.930 . S
C209 N207 1.375 . S
C209 C208 1.338 . S
C209 H213 0.931 . S
C210 N207 1.313 . S
C210 N211 1.344 . S
C210 H214 0.930 . S
N211 C208 1.377 . S
N211 C210 1.344 . S
O212 Co204 2.055 . S
O212 C216 1.253 . S
H213 C209 0.931 . S
H214 C210 0.930 . S
O215 Co204 2.039 . S
O215 C205 1.265 . S
C216 O212 1.253 . S
C216 O217 1.227 . S
O217 C216 1.227 . S
N218 Co204 2.140 . S
N218 C221 1.346 . S
N218 C222 1.345 . S
C219 C220 1.387 . S
C219 C223 1.391 . S
C220 C219 1.387 . S
C220 C221 1.369 . S
C220 H229 0.929 . S
C221 N218 1.346 . S
C221 C220 1.369 . S
C221 H224 0.928 . S
C222 N218 1.345 . S
C222 C223 1.371 . S
C222 H225 0.931 . S
C223 C219 1.391 . S
C223 C222 1.371 . S
C223 H230 0.930 . S
H224 C221 0.928 . S
H225 C222 0.931 . S
H226 C202 0.930 . S
H227 C199 0.930 . S
H228 C208 0.930 . S
H229 C220 0.929 . S
H230 C223 0.930 . S
C231 C232 1.351 . S
C231 N234 1.368 . S
C231 H236 0.931 . S
C232 C231 1.351 . S
C232 N233 1.373 . S
C232 H260 0.930 1_556 S
N233 C232 1.373 . S
N233 C235 1.340 . S
N234 C231 1.368 . S
N234 C235 1.321 . S
N234 Co237 2.135 . S
C235 N233 1.340 . S
C235 N234 1.321 . S
C235 H259 0.930 . S
H236 C231 0.931 . S
Co237 N234 2.135 . S
Co237 N240 2.121 . S
Co237 O245 2.055 . S
Co237 O248 2.039 . S
Co237 N251 2.140 . S
C238 O239 1.227 . S
C238 O248 1.265 . S
O239 C238 1.227 . S
N240 Co237 2.121 . S
N240 C242 1.375 . S
N240 C243 1.313 . S
C241 C242 1.338 . S
C241 N244 1.377 . S
C241 H261 0.930 . S
C242 N240 1.375 . S
C242 C241 1.338 . S
C242 H246 0.931 . S
C243 N240 1.313 . S
C243 N244 1.344 . S
C243 H247 0.930 . S
N244 C241 1.377 . S
N244 C243 1.344 . S
O245 Co237 2.055 . S
O245 C249 1.253 . S
H246 C242 0.931 . S
H247 C243 0.930 . S
O248 Co237 2.039 . S
O248 C238 1.265 . S
C249 O245 1.253 . S
C249 O250 1.227 . S
O250 C249 1.227 . S
N251 Co237 2.140 . S
N251 C254 1.346 . S
N251 C255 1.345 . S
C252 C253 1.387 . S
C252 C256 1.391 . S
C253 C252 1.387 . S
C253 C254 1.369 . S
C253 H262 0.929 . S
C254 N251 1.346 . S
C254 C253 1.369 . S
C254 H257 0.928 . S
C255 N251 1.345 . S
C255 C256 1.371 . S
C255 H258 0.931 . S
C256 C252 1.391 . S
C256 C255 1.371 . S
C256 H263 0.930 . S
H257 C254 0.928 . S
H258 C255 0.931 . S
H259 C235 0.930 . S
H260 C232 0.930 1_554 S
H261 C241 0.930 . S
H262 C253 0.929 . S
H263 C256 0.930 . S
C264 C265 1.351 . S
C264 N267 1.368 . S
C264 H269 0.931 . S
C265 C264 1.351 . S
C265 N266 1.373 . S
C265 H293 0.930 . S
N266 C265 1.373 . S
N266 C268 1.340 . S
N267 C264 1.368 . S
N267 C268 1.321 . S
N267 Co270 2.135 1_554 S
C268 N266 1.340 . S
C268 N267 1.321 . S
C268 H292 0.930 . S
H269 C264 0.931 . S
Co270 N267 2.135 1_556 S
Co270 N273 2.121 . S
Co270 O278 2.055 . S
Co270 O281 2.039 . S
Co270 N284 2.140 . S
C271 O272 1.227 1_556 S
C271 O281 1.265 . S
O272 C271 1.227 1_554 S
N273 Co270 2.121 . S
N273 C275 1.375 . S
N273 C276 1.313 . S
C274 C275 1.338 . S
C274 N277 1.377 . S
C274 H294 0.930 . S
C275 N273 1.375 . S
C275 C274 1.338 . S
C275 H279 0.931 . S
C276 N273 1.313 . S
C276 N277 1.344 . S
C276 H280 0.930 . S
N277 C274 1.377 . S
N277 C276 1.344 . S
O278 Co270 2.055 . S
O278 C282 1.253 . S
H279 C275 0.931 . S
H280 C276 0.930 . S
O281 Co270 2.039 . S
O281 C271 1.265 . S
C282 O278 1.253 . S
C282 O283 1.227 . S
O283 C282 1.227 . S
N284 Co270 2.140 . S
N284 C287 1.346 1_556 S
N284 C288 1.345 . S
C285 C286 1.387 1_556 S
C285 C289 1.391 . S
C286 C285 1.387 1_554 S
C286 C287 1.369 . S
C286 H295 0.929 . S
C287 N284 1.346 1_554 S
C287 C286 1.369 . S
C287 H290 0.928 . S
C288 N284 1.345 . S
C288 C289 1.371 . S
C288 H291 0.931 . S
C289 C285 1.391 . S
C289 C288 1.371 . S
C289 H296 0.930 . S
H290 C287 0.928 . S
H291 C288 0.931 . S
H292 C268 0.930 . S
H293 C265 0.930 . S
H294 C274 0.930 . S
H295 C286 0.929 . S
H296 C289 0.930 . S
C297 C298 1.351 . S
C297 N300 1.368 . S
C297 H302 0.931 . S
C298 C297 1.351 . S
C298 N299 1.373 . S
C298 H326 0.930 1_556 S
N299 C298 1.373 . S
N299 C301 1.340 . S
N300 C297 1.368 . S
N300 C301 1.321 . S
N300 Co303 2.135 . S
C301 N299 1.340 . S
C301 N300 1.321 . S
C301 H325 0.930 . S
H302 C297 0.931 . S
Co303 N300 2.135 . S
Co303 N306 2.121 . S
Co303 O311 2.055 . S
Co303 O314 2.039 . S
Co303 N317 2.140 . S
C304 O305 1.227 . S
C304 O314 1.265 . S
O305 C304 1.227 . S
N306 Co303 2.121 . S
N306 C308 1.375 . S
N306 C309 1.313 . S
C307 C308 1.338 . S
C307 N310 1.377 . S
C307 H327 0.930 . S
C308 N306 1.375 . S
C308 C307 1.338 . S
C308 H312 0.931 . S
C309 N306 1.313 . S
C309 N310 1.344 . S
C309 H313 0.930 . S
N310 C307 1.377 . S
N310 C309 1.344 . S
O311 Co303 2.055 . S
O311 C315 1.253 . S
H312 C308 0.931 . S
H313 C309 0.930 . S
O314 Co303 2.039 . S
O314 C304 1.265 . S
C315 O311 1.253 . S
C315 O316 1.227 . S
O316 C315 1.227 . S
N317 Co303 2.140 . S
N317 C320 1.346 . S
N317 C321 1.345 . S
C318 C319 1.387 . S
C318 C322 1.391 . S
C319 C318 1.387 . S
C319 C320 1.369 . S
C319 H328 0.929 . S
C320 N317 1.346 . S
C320 C319 1.369 . S
C320 H323 0.928 . S
C321 N317 1.345 . S
C321 C322 1.371 . S
C321 H324 0.931 . S
C322 C318 1.391 . S
C322 C321 1.371 . S
C322 H329 0.930 . S
H323 C320 0.928 . S
H324 C321 0.931 . S
H325 C301 0.930 . S
H326 C298 0.930 1_554 S
H327 C307 0.930 . S
H328 C319 0.929 . S
H329 C322 0.930 . S
C330 C331 1.351 . S
C330 N333 1.368 . S
C330 H335 0.931 . S
C331 C330 1.351 . S
C331 N332 1.373 . S
C331 H359 0.930 . S
N332 C331 1.373 . S
N332 C334 1.340 . S
N333 C330 1.368 . S
N333 C334 1.321 . S
N333 Co336 2.135 . S
C334 N332 1.340 . S
C334 N333 1.321 . S
C334 H358 0.930 . S
H335 C330 0.931 . S
Co336 N333 2.135 . S
Co336 N339 2.121 . S
Co336 O344 2.055 . S
Co336 O347 2.039 . S
Co336 N350 2.140 . S
C337 O338 1.227 . S
C337 O347 1.265 . S
O338 C337 1.227 . S
N339 Co336 2.121 . S
N339 C341 1.375 . S
N339 C342 1.313 . S
C340 C341 1.338 . S
C340 N343 1.377 . S
C340 H360 0.930 . S
C341 N339 1.375 . S
C341 C340 1.338 . S
C341 H345 0.931 . S
C342 N339 1.313 . S
C342 N343 1.344 . S
C342 H346 0.930 . S
N343 C340 1.377 . S
N343 C342 1.344 . S
O344 Co336 2.055 . S
O344 C348 1.253 . S
H345 C341 0.931 . S
H346 C342 0.930 . S
O347 Co336 2.039 . S
O347 C337 1.265 . S
C348 O344 1.253 . S
C348 O349 1.227 . S
O349 C348 1.227 . S
N350 Co336 2.140 . S
N350 C353 1.346 . S
N350 C354 1.345 . S
C351 C352 1.387 . S
C351 C355 1.391 . S
C352 C351 1.387 . S
C352 C353 1.369 . S
C352 H361 0.929 . S
C353 N350 1.346 . S
C353 C352 1.369 . S
C353 H356 0.928 . S
C354 N350 1.345 . S
C354 C355 1.371 . S
C354 H357 0.931 . S
C355 C351 1.391 . S
C355 C354 1.371 . S
C355 H362 0.930 . S
H356 C353 0.928 . S
H357 C354 0.931 . S
H358 C334 0.930 . S
H359 C331 0.930 . S
H360 C340 0.930 . S
H361 C352 0.929 . S
H362 C355 0.930 . S
C363 C364 1.351 . S
C363 N366 1.368 . S
C363 H368 0.931 . S
C364 C363 1.351 . S
C364 N365 1.373 . S
C364 H392 0.930 . S
N365 C364 1.373 . S
N365 C367 1.340 . S
N366 C363 1.368 . S
N366 C367 1.321 . S
N366 Co369 2.135 . S
C367 N365 1.340 . S
C367 N366 1.321 . S
C367 H391 0.930 . S
H368 C363 0.931 . S
Co369 N366 2.135 . S
Co369 N372 2.121 . S
Co369 O377 2.055 . S
Co369 O380 2.039 . S
Co369 N383 2.140 . S
C370 O371 1.227 . S
C370 O380 1.265 . S
O371 C370 1.227 . S
N372 Co369 2.121 . S
N372 C374 1.375 . S
N372 C375 1.313 1_554 S
C373 C374 1.338 1_556 S
C373 N376 1.377 . S
C373 H393 0.930 . S
C374 N372 1.375 . S
C374 C373 1.338 1_554 S
C374 H378 0.931 . S
C375 N372 1.313 1_556 S
C375 N376 1.344 . S
C375 H379 0.930 . S
N376 C373 1.377 . S
N376 C375 1.344 . S
O377 Co369 2.055 . S
O377 C381 1.253 . S
H378 C374 0.931 . S
H379 C375 0.930 . S
O380 Co369 2.039 . S
O380 C370 1.265 . S
C381 O377 1.253 . S
C381 O382 1.227 . S
O382 C381 1.227 . S
N383 Co369 2.140 . S
N383 C386 1.346 . S
N383 C387 1.345 . S
C384 C385 1.387 . S
C384 C388 1.391 . S
C385 C384 1.387 . S
C385 C386 1.369 . S
C385 H394 0.929 . S
C386 N383 1.346 . S
C386 C385 1.369 . S
C386 H389 0.928 . S
C387 N383 1.345 . S
C387 C388 1.371 . S
C387 H390 0.931 . S
C388 C384 1.391 . S
C388 C387 1.371 . S
C388 H395 0.930 . S
H389 C386 0.928 . S
H390 C387 0.931 . S
H391 C367 0.930 . S
H392 C364 0.930 . S
H393 C373 0.930 . S
H394 C385 0.929 . S
H395 C388 0.930 . S
C396 C397 1.351 . S
C396 N399 1.368 . S
C396 H401 0.931 . S
C397 C396 1.351 . S
C397 N398 1.373 . S
C397 H425 0.930 . S
N398 C397 1.373 . S
N398 C400 1.340 . S
N399 C396 1.368 . S
N399 C400 1.321 . S
N399 Co402 2.135 1_556 S
C400 N398 1.340 . S
C400 N399 1.321 . S
C400 H424 0.930 . S
H401 C396 0.931 . S
Co402 N399 2.135 1_554 S
Co402 N405 2.121 . S
Co402 O410 2.055 . S
Co402 O413 2.039 . S
Co402 N416 2.140 . S
C403 O404 1.227 1_554 S
C403 O413 1.265 . S
O404 C403 1.227 1_556 S
N405 Co402 2.121 . S
N405 C407 1.375 . S
N405 C408 1.313 . S
C406 C407 1.338 . S
C406 N409 1.377 . S
C406 H426 0.930 . S
C407 N405 1.375 . S
C407 C406 1.338 . S
C407 H411 0.931 . S
C408 N405 1.313 . S
C408 N409 1.344 . S
C408 H412 0.930 . S
N409 C406 1.377 . S
N409 C408 1.344 . S
O410 Co402 2.055 . S
O410 C414 1.253 . S
H411 C407 0.931 . S
H412 C408 0.930 . S
O413 Co402 2.039 . S
O413 C403 1.265 . S
C414 O410 1.253 . S
C414 O415 1.227 . S
O415 C414 1.227 . S
N416 Co402 2.140 . S
N416 C419 1.346 1_554 S
N416 C420 1.345 . S
C417 C418 1.387 1_554 S
C417 C421 1.391 . S
C418 C417 1.387 1_556 S
C418 C419 1.369 . S
C418 H427 0.929 . S
C419 N416 1.346 1_556 S
C419 C418 1.369 . S
C419 H422 0.928 . S
C420 N416 1.345 . S
C420 C421 1.371 . S
C420 H423 0.931 . S
C421 C417 1.391 . S
C421 C420 1.371 . S
C421 H428 0.930 . S
H422 C419 0.928 . S
H423 C420 0.931 . S
H424 C400 0.930 . S
H425 C397 0.930 . S
H426 C406 0.930 . S
H427 C418 0.929 . S
H428 C421 0.930 . S
C429 C430 1.351 . S
C429 N432 1.368 . S
C429 H434 0.931 . S
C430 C429 1.351 . S
C430 N431 1.373 . S
C430 H458 0.930 . S
N431 C430 1.373 . S
N431 C433 1.340 . S
N432 C429 1.368 . S
N432 C433 1.321 . S
N432 Co435 2.135 . S
C433 N431 1.340 . S
C433 N432 1.321 . S
C433 H457 0.930 . S
H434 C429 0.931 . S
Co435 N432 2.135 . S
Co435 N438 2.121 . S
Co435 O443 2.055 . S
Co435 O446 2.039 . S
Co435 N449 2.140 . S
C436 O437 1.227 . S
C436 O446 1.265 . S
O437 C436 1.227 . S
N438 Co435 2.121 . S
N438 C440 1.375 . S
N438 C441 1.313 1_556 S
C439 C440 1.338 1_554 S
C439 N442 1.377 . S
C439 H459 0.930 . S
C440 N438 1.375 . S
C440 C439 1.338 1_556 S
C440 H444 0.931 . S
C441 N438 1.313 1_554 S
C441 N442 1.344 . S
C441 H445 0.930 . S
N442 C439 1.377 . S
N442 C441 1.344 . S
O443 Co435 2.055 . S
O443 C447 1.253 . S
H444 C440 0.931 . S
H445 C441 0.930 . S
O446 Co435 2.039 . S
O446 C436 1.265 . S
C447 O443 1.253 . S
C447 O448 1.227 . S
O448 C447 1.227 . S
N449 Co435 2.140 . S
N449 C452 1.346 . S
N449 C453 1.345 . S
C450 C451 1.387 . S
C450 C454 1.391 . S
C451 C450 1.387 . S
C451 C452 1.369 . S
C451 H460 0.929 . S
C452 N449 1.346 . S
C452 C451 1.369 . S
C452 H455 0.928 . S
C453 N449 1.345 . S
C453 C454 1.371 . S
C453 H456 0.931 . S
C454 C450 1.391 . S
C454 C453 1.371 . S
C454 H461 0.930 . S
H455 C452 0.928 . S
H456 C453 0.931 . S
H457 C433 0.930 . S
H458 C430 0.930 . S
H459 C439 0.930 . S
H460 C451 0.929 . S
H461 C454 0.930 . S
C462 C463 1.351 . S
C462 N465 1.368 . S
C462 H467 0.931 . S
C463 C462 1.351 . S
C463 N464 1.373 . S
C463 H491 0.930 . S
N464 C463 1.373 . S
N464 C466 1.340 . S
N465 C462 1.368 . S
N465 C466 1.321 . S
N465 Co468 2.135 . S
C466 N464 1.340 . S
C466 N465 1.321 . S
C466 H490 0.930 . S
H467 C462 0.931 . S
Co468 N465 2.135 . S
Co468 N471 2.121 . S
Co468 O476 2.055 . S
Co468 O479 2.039 . S
Co468 N482 2.140 . S
C469 O470 1.227 . S
C469 O479 1.265 . S
O470 C469 1.227 . S
N471 Co468 2.121 . S
N471 C473 1.375 . S
N471 C474 1.313 . S
C472 C473 1.338 . S
C472 N475 1.377 . S
C472 H492 0.930 . S
C473 N471 1.375 . S
C473 C472 1.338 . S
C473 H477 0.931 . S
C474 N471 1.313 . S
C474 N475 1.344 . S
C474 H478 0.930 . S
N475 C472 1.377 . S
N475 C474 1.344 . S
O476 Co468 2.055 . S
O476 C480 1.253 . S
H477 C473 0.931 . S
H478 C474 0.930 . S
O479 Co468 2.039 . S
O479 C469 1.265 . S
C480 O476 1.253 . S
C480 O481 1.227 . S
O481 C480 1.227 . S
N482 Co468 2.140 . S
N482 C485 1.346 . S
N482 C486 1.345 . S
C483 C484 1.387 . S
C483 C487 1.391 . S
C484 C483 1.387 . S
C484 C485 1.369 . S
C484 H493 0.929 . S
C485 N482 1.346 . S
C485 C484 1.369 . S
C485 H488 0.928 . S
C486 N482 1.345 . S
C486 C487 1.371 . S
C486 H489 0.931 . S
C487 C483 1.391 . S
C487 C486 1.371 . S
C487 H494 0.930 . S
H488 C485 0.928 . S
H489 C486 0.931 . S
H490 C466 0.930 . S
H491 C463 0.930 . S
H492 C472 0.930 . S
H493 C484 0.929 . S
H494 C487 0.930 . S
C495 C496 1.351 . S
C495 N498 1.368 . S
C495 H500 0.931 . S
C496 C495 1.351 . S
C496 N497 1.373 . S
C496 H524 0.930 1_554 S
N497 C496 1.373 . S
N497 C499 1.340 . S
N498 C495 1.368 . S
N498 C499 1.321 . S
N498 Co501 2.135 . S
C499 N497 1.340 . S
C499 N498 1.321 . S
C499 H523 0.930 . S
H500 C495 0.931 . S
Co501 N498 2.135 . S
Co501 N504 2.121 . S
Co501 O509 2.055 . S
Co501 O512 2.039 . S
Co501 N515 2.140 . S
C502 O503 1.227 . S
C502 O512 1.265 . S
O503 C502 1.227 . S
N504 Co501 2.121 . S
N504 C506 1.375 . S
N504 C507 1.313 . S
C505 C506 1.338 . S
C505 N508 1.377 . S
C505 H525 0.930 . S
C506 N504 1.375 . S
C506 C505 1.338 . S
C506 H510 0.931 . S
C507 N504 1.313 . S
C507 N508 1.344 . S
C507 H511 0.930 . S
N508 C505 1.377 . S
N508 C507 1.344 . S
O509 Co501 2.055 . S
O509 C513 1.253 . S
H510 C506 0.931 . S
H511 C507 0.930 . S
O512 Co501 2.039 . S
O512 C502 1.265 . S
C513 O509 1.253 . S
C513 O514 1.227 . S
O514 C513 1.227 . S
N515 Co501 2.140 . S
N515 C518 1.346 . S
N515 C519 1.345 . S
C516 C517 1.387 . S
C516 C520 1.391 . S
C517 C516 1.387 . S
C517 C518 1.369 . S
C517 H526 0.929 . S
C518 N515 1.346 . S
C518 C517 1.369 . S
C518 H521 0.928 . S
C519 N515 1.345 . S
C519 C520 1.371 . S
C519 H522 0.931 . S
C520 C516 1.391 . S
C520 C519 1.371 . S
C520 H527 0.930 . S
H521 C518 0.928 . S
H522 C519 0.931 . S
H523 C499 0.930 . S
H524 C496 0.930 1_556 S
H525 C505 0.930 . S
H526 C517 0.929 . S
H527 C520 0.930 . S
C528 C529 1.351 . S
C528 N531 1.368 . S
C528 H533 0.931 . S
C529 C528 1.351 . S
C529 N530 1.373 . S
C529 H557 0.930 . S
N530 C529 1.373 . S
N530 C532 1.340 . S
N531 C528 1.368 . S
N531 C532 1.321 . S
N531 Co534 2.135 . S
C532 N530 1.340 . S
C532 N531 1.321 . S
C532 H556 0.930 . S
H533 C528 0.931 . S
Co534 N531 2.135 . S
Co534 N537 2.121 . S
Co534 O542 2.055 . S
Co534 O545 2.039 . S
Co534 N548 2.140 . S
C535 O536 1.227 . S
C535 O545 1.265 . S
O536 C535 1.227 . S
N537 Co534 2.121 . S
N537 C539 1.375 . S
N537 C540 1.313 . S
C538 C539 1.338 . S
C538 N541 1.377 . S
C538 H558 0.930 . S
C539 N537 1.375 . S
C539 C538 1.338 . S
C539 H543 0.931 . S
C540 N537 1.313 . S
C540 N541 1.344 . S
C540 H544 0.930 . S
N541 C538 1.377 . S
N541 C540 1.344 . S
O542 Co534 2.055 . S
O542 C546 1.253 . S
H543 C539 0.931 . S
H544 C540 0.930 . S
O545 Co534 2.039 . S
O545 C535 1.265 . S
C546 O542 1.253 . S
C546 O547 1.227 . S
O547 C546 1.227 . S
N548 Co534 2.140 . S
N548 C551 1.346 . S
N548 C552 1.345 . S
C549 C550 1.387 . S
C549 C553 1.391 . S
C550 C549 1.387 . S
C550 C551 1.369 . S
C550 H559 0.929 . S
C551 N548 1.346 . S
C551 C550 1.369 . S
C551 H554 0.928 . S
C552 N548 1.345 . S
C552 C553 1.371 . S
C552 H555 0.931 . S
C553 C549 1.391 . S
C553 C552 1.371 . S
C553 H560 0.930 . S
H554 C551 0.928 . S
H555 C552 0.931 . S
H556 C532 0.930 . S
H557 C529 0.930 . S
H558 C538 0.930 . S
H559 C550 0.929 . S
H560 C553 0.930 . S
C561 C562 1.351 . S
C561 N564 1.368 . S
C561 H566 0.931 . S
C562 C561 1.351 . S
C562 N563 1.373 . S
C562 H590 0.930 . S
N563 C562 1.373 . S
N563 C565 1.340 . S
N564 C561 1.368 . S
N564 C565 1.321 . S
N564 Co567 2.135 . S
C565 N563 1.340 . S
C565 N564 1.321 . S
C565 H589 0.930 . S
H566 C561 0.931 . S
Co567 N564 2.135 . S
Co567 N570 2.121 . S
Co567 O575 2.055 . S
Co567 O578 2.039 . S
Co567 N581 2.140 . S
C568 O569 1.227 . S
C568 O578 1.265 . S
O569 C568 1.227 . S
N570 Co567 2.121 . S
N570 C572 1.375 . S
N570 C573 1.313 1_556 S
C571 C572 1.338 1_554 S
C571 N574 1.377 . S
C571 H591 0.930 . S
C572 N570 1.375 . S
C572 C571 1.338 1_556 S
C572 H576 0.931 . S
C573 N570 1.313 1_554 S
C573 N574 1.344 . S
C573 H577 0.930 . S
N574 C571 1.377 . S
N574 C573 1.344 . S
O575 Co567 2.055 . S
O575 C579 1.253 . S
H576 C572 0.931 . S
H577 C573 0.930 . S
O578 Co567 2.039 . S
O578 C568 1.265 . S
C579 O575 1.253 . S
C579 O580 1.227 . S
O580 C579 1.227 . S
N581 Co567 2.140 . S
N581 C584 1.346 . S
N581 C585 1.345 . S
C582 C583 1.387 . S
C582 C586 1.391 . S
C583 C582 1.387 . S
C583 C584 1.369 . S
C583 H592 0.929 . S
C584 N581 1.346 . S
C584 C583 1.369 . S
C584 H587 0.928 . S
C585 N581 1.345 . S
C585 C586 1.371 . S
C585 H588 0.931 . S
C586 C582 1.391 . S
C586 C585 1.371 . S
C586 H593 0.930 . S
H587 C584 0.928 . S
H588 C585 0.931 . S
H589 C565 0.930 . S
H590 C562 0.930 . S
H591 C571 0.930 . S
H592 C583 0.929 . S
H593 C586 0.930 . S
C594 C595 1.351 . S
C594 N597 1.368 . S
C594 H599 0.931 . S
C595 C594 1.351 . S
C595 N596 1.373 . S
C595 H623 0.930 . S
N596 C595 1.373 . S
N596 C598 1.340 . S
N597 C594 1.368 . S
N597 C598 1.321 . S
N597 Co600 2.135 1_556 S
C598 N596 1.340 . S
C598 N597 1.321 . S
C598 H622 0.930 . S
H599 C594 0.931 . S
Co600 N597 2.135 1_554 S
Co600 N603 2.121 . S
Co600 O608 2.055 . S
Co600 O611 2.039 . S
Co600 N614 2.140 . S
C601 O602 1.227 1_554 S
C601 O611 1.265 . S
O602 C601 1.227 1_556 S
N603 Co600 2.121 . S
N603 C605 1.375 . S
N603 C606 1.313 . S
C604 C605 1.338 . S
C604 N607 1.377 . S
C604 H624 0.930 . S
C605 N603 1.375 . S
C605 C604 1.338 . S
C605 H609 0.931 . S
C606 N603 1.313 . S
C606 N607 1.344 . S
C606 H610 0.930 . S
N607 C604 1.377 . S
N607 C606 1.344 . S
O608 Co600 2.055 . S
O608 C612 1.253 . S
H609 C605 0.931 . S
H610 C606 0.930 . S
O611 Co600 2.039 . S
O611 C601 1.265 . S
C612 O608 1.253 . S
C612 O613 1.227 . S
O613 C612 1.227 . S
N614 Co600 2.140 . S
N614 C617 1.346 1_554 S
N614 C618 1.345 . S
C615 C616 1.387 1_554 S
C615 C619 1.391 . S
C616 C615 1.387 1_556 S
C616 C617 1.369 . S
C616 H625 0.929 . S
C617 N614 1.346 1_556 S
C617 C616 1.369 . S
C617 H620 0.928 . S
C618 N614 1.345 . S
C618 C619 1.371 . S
C618 H621 0.931 . S
C619 C615 1.391 . S
C619 C618 1.371 . S
C619 H626 0.930 . S
H620 C617 0.928 . S
H621 C618 0.931 . S
H622 C598 0.930 . S
H623 C595 0.930 . S
H624 C604 0.930 . S
H625 C616 0.929 . S
H626 C619 0.930 . S
C627 C628 1.351 . S
C627 N630 1.368 . S
C627 H632 0.931 . S
C628 C627 1.351 . S
C628 N629 1.373 . S
C628 H656 0.930 1_554 S
N629 C628 1.373 . S
N629 C631 1.340 . S
N630 C627 1.368 . S
N630 C631 1.321 . S
N630 Co633 2.135 . S
C631 N629 1.340 . S
C631 N630 1.321 . S
C631 H655 0.930 . S
H632 C627 0.931 . S
Co633 N630 2.135 . S
Co633 N636 2.121 . S
Co633 O641 2.055 . S
Co633 O644 2.039 . S
Co633 N647 2.140 . S
C634 O635 1.227 . S
C634 O644 1.265 . S
O635 C634 1.227 . S
N636 Co633 2.121 . S
N636 C638 1.375 . S
N636 C639 1.313 . S
C637 C638 1.338 . S
C637 N640 1.377 . S
C637 H657 0.930 . S
C638 N636 1.375 . S
C638 C637 1.338 . S
C638 H642 0.931 . S
C639 N636 1.313 . S
C639 N640 1.344 . S
C639 H643 0.930 . S
N640 C637 1.377 . S
N640 C639 1.344 . S
O641 Co633 2.055 . S
O641 C645 1.253 . S
H642 C638 0.931 . S
H643 C639 0.930 . S
O644 Co633 2.039 . S
O644 C634 1.265 . S
C645 O641 1.253 . S
C645 O646 1.227 . S
O646 C645 1.227 . S
N647 Co633 2.140 . S
N647 C650 1.346 . S
N647 C651 1.345 . S
C648 C649 1.387 . S
C648 C652 1.391 . S
C649 C648 1.387 . S
C649 C650 1.369 . S
C649 H658 0.929 . S
C650 N647 1.346 . S
C650 C649 1.369 . S
C650 H653 0.928 . S
C651 N647 1.345 . S
C651 C652 1.371 . S
C651 H654 0.931 . S
C652 C648 1.391 . S
C652 C651 1.371 . S
C652 H659 0.930 . S
H653 C650 0.928 . S
H654 C651 0.931 . S
H655 C631 0.930 . S
H656 C628 0.930 1_556 S
H657 C637 0.930 . S
H658 C649 0.929 . S
H659 C652 0.930 . S
C660 C661 1.351 . S
C660 N663 1.368 . S
C660 H665 0.931 . S
C661 C660 1.351 . S
C661 N662 1.373 . S
C661 H689 0.930 . S
N662 C661 1.373 . S
N662 C664 1.340 . S
N663 C660 1.368 . S
N663 C664 1.321 . S
N663 Co666 2.135 . S
C664 N662 1.340 . S
C664 N663 1.321 . S
C664 H688 0.930 . S
H665 C660 0.931 . S
Co666 N663 2.135 . S
Co666 N669 2.121 . S
Co666 O674 2.055 . S
Co666 O677 2.039 . S
Co666 N680 2.140 . S
C667 O668 1.227 . S
C667 O677 1.265 . S
O668 C667 1.227 . S
N669 Co666 2.121 . S
N669 C671 1.375 . S
N669 C672 1.313 . S
C670 C671 1.338 . S
C670 N673 1.377 . S
C670 H690 0.930 . S
C671 N669 1.375 . S
C671 C670 1.338 . S
C671 H675 0.931 . S
C672 N669 1.313 . S
C672 N673 1.344 . S
C672 H676 0.930 . S
N673 C670 1.377 . S
N673 C672 1.344 . S
O674 Co666 2.055 . S
O674 C678 1.253 . S
H675 C671 0.931 . S
H676 C672 0.930 . S
O677 Co666 2.039 . S
O677 C667 1.265 . S
C678 O674 1.253 . S
C678 O679 1.227 . S
O679 C678 1.227 . S
N680 Co666 2.140 . S
N680 C683 1.346 . S
N680 C684 1.345 . S
C681 C682 1.387 . S
C681 C685 1.391 . S
C682 C681 1.387 . S
C682 C683 1.369 . S
C682 H691 0.929 . S
C683 N680 1.346 . S
C683 C682 1.369 . S
C683 H686 0.928 . S
C684 N680 1.345 . S
C684 C685 1.371 . S
C684 H687 0.931 . S
C685 C681 1.391 . S
C685 C684 1.371 . S
C685 H692 0.930 . S
H686 C683 0.928 . S
H687 C684 0.931 . S
H688 C664 0.930 . S
H689 C661 0.930 . S
H690 C670 0.930 . S
H691 C682 0.929 . S
H692 C685 0.930 . S
C693 C694 1.351 . S
C693 N696 1.368 . S
C693 H698 0.931 . S
C694 C693 1.351 . S
C694 N695 1.373 . S
C694 H722 0.930 1_556 S
N695 C694 1.373 . S
N695 C697 1.340 . S
N696 C693 1.368 . S
N696 C697 1.321 . S
N696 Co699 2.135 . S
C697 N695 1.340 . S
C697 N696 1.321 . S
C697 H721 0.930 . S
H698 C693 0.931 . S
Co699 N696 2.135 . S
Co699 N702 2.121 . S
Co699 O707 2.055 . S
Co699 O710 2.039 . S
Co699 N713 2.140 . S
C700 O701 1.227 . S
C700 O710 1.265 . S
O701 C700 1.227 . S
N702 Co699 2.121 . S
N702 C704 1.375 . S
N702 C705 1.313 . S
C703 C704 1.338 . S
C703 N706 1.377 . S
C703 H723 0.930 . S
C704 N702 1.375 . S
C704 C703 1.338 . S
C704 H708 0.931 . S
C705 N702 1.313 . S
C705 N706 1.344 . S
C705 H709 0.930 . S
N706 C703 1.377 . S
N706 C705 1.344 . S
O707 Co699 2.055 . S
O707 C711 1.253 . S
H708 C704 0.931 . S
H709 C705 0.930 . S
O710 Co699 2.039 . S
O710 C700 1.265 . S
C711 O707 1.253 . S
C711 O712 1.227 . S
O712 C711 1.227 . S
N713 Co699 2.140 . S
N713 C716 1.346 . S
N713 C717 1.345 . S
C714 C715 1.387 . S
C714 C718 1.391 . S
C715 C714 1.387 . S
C715 C716 1.369 . S
C715 H724 0.929 . S
C716 N713 1.346 . S
C716 C715 1.369 . S
C716 H719 0.928 . S
C717 N713 1.345 . S
C717 C718 1.371 . S
C717 H720 0.931 . S
C718 C714 1.391 . S
C718 C717 1.371 . S
C718 H725 0.930 . S
H719 C716 0.928 . S
H720 C717 0.931 . S
H721 C697 0.930 . S
H722 C694 0.930 1_554 S
H723 C703 0.930 . S
H724 C715 0.929 . S
H725 C718 0.930 . S
C726 C727 1.351 . S
C726 N729 1.368 . S
C726 H731 0.931 . S
C727 C726 1.351 . S
C727 N728 1.373 . S
C727 H755 0.930 . S
N728 C727 1.373 . S
N728 C730 1.340 . S
N729 C726 1.368 . S
N729 C730 1.321 . S
N729 Co732 2.135 1_554 S
C730 N728 1.340 . S
C730 N729 1.321 . S
C730 H754 0.930 . S
H731 C726 0.931 . S
Co732 N729 2.135 1_556 S
Co732 N735 2.121 . S
Co732 O740 2.055 . S
Co732 O743 2.039 . S
Co732 N746 2.140 . S
C733 O734 1.227 1_556 S
C733 O743 1.265 . S
O734 C733 1.227 1_554 S
N735 Co732 2.121 . S
N735 C737 1.375 . S
N735 C738 1.313 . S
C736 C737 1.338 . S
C736 N739 1.377 . S
C736 H756 0.930 . S
C737 N735 1.375 . S
C737 C736 1.338 . S
C737 H741 0.931 . S
C738 N735 1.313 . S
C738 N739 1.344 . S
C738 H742 0.930 . S
N739 C736 1.377 . S
N739 C738 1.344 . S
O740 Co732 2.055 . S
O740 C744 1.253 . S
H741 C737 0.931 . S
H742 C738 0.930 . S
O743 Co732 2.039 . S
O743 C733 1.265 . S
C744 O740 1.253 . S
C744 O745 1.227 . S
O745 C744 1.227 . S
N746 Co732 2.140 . S
N746 C749 1.346 1_556 S
N746 C750 1.345 . S
C747 C748 1.387 1_556 S
C747 C751 1.391 . S
C748 C747 1.387 1_554 S
C748 C749 1.369 . S
C748 H757 0.929 . S
C749 N746 1.346 1_554 S
C749 C748 1.369 . S
C749 H752 0.928 . S
C750 N746 1.345 . S
C750 C751 1.371 . S
C750 H753 0.931 . S
C751 C747 1.391 . S
C751 C750 1.371 . S
C751 H758 0.930 . S
H752 C749 0.928 . S
H753 C750 0.931 . S
H754 C730 0.930 . S
H755 C727 0.930 . S
H756 C736 0.930 . S
H757 C748 0.929 . S
H758 C751 0.930 . S
C759 C760 1.351 . S
C759 N762 1.368 . S
C759 H764 0.931 . S
C760 C759 1.351 . S
C760 N761 1.373 . S
C760 H788 0.930 . S
N761 C760 1.373 . S
N761 C763 1.340 . S
N762 C759 1.368 . S
N762 C763 1.321 . S
N762 Co765 2.135 . S
C763 N761 1.340 . S
C763 N762 1.321 . S
C763 H787 0.930 . S
H764 C759 0.931 . S
Co765 N762 2.135 . S
Co765 N768 2.121 . S
Co765 O773 2.055 . S
Co765 O776 2.039 . S
Co765 N779 2.140 . S
C766 O767 1.227 . S
C766 O776 1.265 . S
O767 C766 1.227 . S
N768 Co765 2.121 . S
N768 C770 1.375 . S
N768 C771 1.313 1_554 S
C769 C770 1.338 1_556 S
C769 N772 1.377 . S
C769 H789 0.930 . S
C770 N768 1.375 . S
C770 C769 1.338 1_554 S
C770 H774 0.931 . S
C771 N768 1.313 1_556 S
C771 N772 1.344 . S
C771 H775 0.930 . S
N772 C769 1.377 . S
N772 C771 1.344 . S
O773 Co765 2.055 . S
O773 C777 1.253 . S
H774 C770 0.931 . S
H775 C771 0.930 . S
O776 Co765 2.039 . S
O776 C766 1.265 . S
C777 O773 1.253 . S
C777 O778 1.227 . S
O778 C777 1.227 . S
N779 Co765 2.140 . S
N779 C782 1.346 . S
N779 C783 1.345 . S
C780 C781 1.387 . S
C780 C784 1.391 . S
C781 C780 1.387 . S
C781 C782 1.369 . S
C781 H790 0.929 . S
C782 N779 1.346 . S
C782 C781 1.369 . S
C782 H785 0.928 . S
C783 N779 1.345 . S
C783 C784 1.371 . S
C783 H786 0.931 . S
C784 C780 1.391 . S
C784 C783 1.371 . S
C784 H791 0.930 . S
H785 C782 0.928 . S
H786 C783 0.931 . S
H787 C763 0.930 . S
H788 C760 0.930 . S
H789 C769 0.930 . S
H790 C781 0.929 . S
H791 C784 0.930 . S
C792 C793 1.351 . S
C792 N795 1.368 . S
C792 H797 0.931 . S
C793 C792 1.351 . S
C793 N794 1.373 . S
C793 H821 0.930 . S
N794 C793 1.373 . S
N794 C796 1.340 . S
N795 C792 1.368 . S
N795 C796 1.321 . S
N795 Co798 2.135 . S
C796 N794 1.340 . S
C796 N795 1.321 . S
C796 H820 0.930 . S
H797 C792 0.931 . S
Co798 N795 2.135 . S
Co798 N801 2.121 . S
Co798 O806 2.055 . S
Co798 O809 2.039 . S
Co798 N812 2.140 . S
C799 O800 1.227 . S
C799 O809 1.265 . S
O800 C799 1.227 . S
N801 Co798 2.121 . S
N801 C803 1.375 . S
N801 C804 1.313 . S
C802 C803 1.338 . S
C802 N805 1.377 . S
C802 H822 0.930 . S
C803 N801 1.375 . S
C803 C802 1.338 . S
C803 H807 0.931 . S
C804 N801 1.313 . S
C804 N805 1.344 . S
C804 H808 0.930 . S
N805 C802 1.377 . S
N805 C804 1.344 . S
O806 Co798 2.055 . S
O806 C810 1.253 . S
H807 C803 0.931 . S
H808 C804 0.930 . S
O809 Co798 2.039 . S
O809 C799 1.265 . S
C810 O806 1.253 . S
C810 O811 1.227 . S
O811 C810 1.227 . S
N812 Co798 2.140 . S
N812 C815 1.346 . S
N812 C816 1.345 . S
C813 C814 1.387 . S
C813 C817 1.391 . S
C814 C813 1.387 . S
C814 C815 1.369 . S
C814 H823 0.929 . S
C815 N812 1.346 . S
C815 C814 1.369 . S
C815 H818 0.928 . S
C816 N812 1.345 . S
C816 C817 1.371 . S
C816 H819 0.931 . S
C817 C813 1.391 . S
C817 C816 1.371 . S
C817 H824 0.930 . S
H818 C815 0.928 . S
H819 C816 0.931 . S
H820 C796 0.930 . S
H821 C793 0.930 . S
H822 C802 0.930 . S
H823 C814 0.929 . S
H824 C817 0.930 . S
C825 C826 1.351 . S
C825 N828 1.368 . S
C825 H830 0.931 . S
C826 C825 1.351 . S
C826 N827 1.373 . S
C826 H854 0.930 . S
N827 C826 1.373 . S
N827 C829 1.340 . S
N828 C825 1.368 . S
N828 C829 1.321 . S
N828 Co831 2.135 . S
C829 N827 1.340 . S
C829 N828 1.321 . S
C829 H853 0.930 . S
H830 C825 0.931 . S
Co831 N828 2.135 . S
Co831 N834 2.121 . S
Co831 O839 2.055 . S
Co831 O842 2.039 . S
Co831 N845 2.140 . S
C832 O833 1.227 . S
C832 O842 1.265 . S
O833 C832 1.227 . S
N834 Co831 2.121 . S
N834 C836 1.375 . S
N834 C837 1.313 1_554 S
C835 C836 1.338 1_556 S
C835 N838 1.377 . S
C835 H855 0.930 . S
C836 N834 1.375 . S
C836 C835 1.338 1_554 S
C836 H840 0.931 . S
C837 N834 1.313 1_556 S
C837 N838 1.344 . S
C837 H841 0.930 . S
N838 C835 1.377 . S
N838 C837 1.344 . S
O839 Co831 2.055 . S
O839 C843 1.253 . S
H840 C836 0.931 . S
H841 C837 0.930 . S
O842 Co831 2.039 . S
O842 C832 1.265 . S
C843 O839 1.253 . S
C843 O844 1.227 . S
O844 C843 1.227 . S
N845 Co831 2.140 . S
N845 C848 1.346 . S
N845 C849 1.345 . S
C846 C847 1.387 . S
C846 C850 1.391 . S
C847 C846 1.387 . S
C847 C848 1.369 . S
C847 H856 0.929 . S
C848 N845 1.346 . S
C848 C847 1.369 . S
C848 H851 0.928 . S
C849 N845 1.345 . S
C849 C850 1.371 . S
C849 H852 0.931 . S
C850 C846 1.391 . S
C850 C849 1.371 . S
C850 H857 0.930 . S
H851 C848 0.928 . S
H852 C849 0.931 . S
H853 C829 0.930 . S
H854 C826 0.930 . S
H855 C835 0.930 . S
H856 C847 0.929 . S
H857 C850 0.930 . S
C858 C859 1.351 . S
C858 N861 1.368 . S
C858 H863 0.931 . S
C859 C858 1.351 . S
C859 N860 1.373 . S
C859 H887 0.930 . S
N860 C859 1.373 . S
N860 C862 1.340 . S
N861 C858 1.368 . S
N861 C862 1.321 . S
N861 Co864 2.135 1_554 S
C862 N860 1.340 . S
C862 N861 1.321 . S
C862 H886 0.930 . S
H863 C858 0.931 . S
Co864 N861 2.135 1_556 S
Co864 N867 2.121 . S
Co864 O872 2.055 . S
Co864 O875 2.039 . S
Co864 N878 2.140 . S
C865 O866 1.227 1_556 S
C865 O875 1.265 . S
O866 C865 1.227 1_554 S
N867 Co864 2.121 . S
N867 C869 1.375 . S
N867 C870 1.313 . S
C868 C869 1.338 . S
C868 N871 1.377 . S
C868 H888 0.930 . S
C869 N867 1.375 . S
C869 C868 1.338 . S
C869 H873 0.931 . S
C870 N867 1.313 . S
C870 N871 1.344 . S
C870 H874 0.930 . S
N871 C868 1.377 . S
N871 C870 1.344 . S
O872 Co864 2.055 . S
O872 C876 1.253 . S
H873 C869 0.931 . S
H874 C870 0.930 . S
O875 Co864 2.039 . S
O875 C865 1.265 . S
C876 O872 1.253 . S
C876 O877 1.227 . S
O877 C876 1.227 . S
N878 Co864 2.140 . S
N878 C881 1.346 1_556 S
N878 C882 1.345 . S
C879 C880 1.387 1_556 S
C879 C883 1.391 . S
C880 C879 1.387 1_554 S
C880 C881 1.369 . S
C880 H889 0.929 . S
C881 N878 1.346 1_554 S
C881 C880 1.369 . S
C881 H884 0.928 . S
C882 N878 1.345 . S
C882 C883 1.371 . S
C882 H885 0.931 . S
C883 C879 1.391 . S
C883 C882 1.371 . S
C883 H890 0.930 . S
H884 C881 0.928 . S
H885 C882 0.931 . S
H886 C862 0.930 . S
H887 C859 0.930 . S
H888 C868 0.930 . S
H889 C880 0.929 . S
H890 C883 0.930 . S
C891 C892 1.351 . S
C891 N894 1.368 . S
C891 H896 0.931 . S
C892 C891 1.351 . S
C892 N893 1.373 . S
C892 H920 0.930 1_556 S
N893 C892 1.373 . S
N893 C895 1.340 . S
N894 C891 1.368 . S
N894 C895 1.321 . S
N894 Co897 2.135 . S
C895 N893 1.340 . S
C895 N894 1.321 . S
C895 H919 0.930 . S
H896 C891 0.931 . S
Co897 N894 2.135 . S
Co897 N900 2.121 . S
Co897 O905 2.055 . S
Co897 O908 2.039 . S
Co897 N911 2.140 . S
C898 O899 1.227 . S
C898 O908 1.265 . S
O899 C898 1.227 . S
N900 Co897 2.121 . S
N900 C902 1.375 . S
N900 C903 1.313 . S
C901 C902 1.338 . S
C901 N904 1.377 . S
C901 H921 0.930 . S
C902 N900 1.375 . S
C902 C901 1.338 . S
C902 H906 0.931 . S
C903 N900 1.313 . S
C903 N904 1.344 . S
C903 H907 0.930 . S
N904 C901 1.377 . S
N904 C903 1.344 . S
O905 Co897 2.055 . S
O905 C909 1.253 . S
H906 C902 0.931 . S
H907 C903 0.930 . S
O908 Co897 2.039 . S
O908 C898 1.265 . S
C909 O905 1.253 . S
C909 O910 1.227 . S
O910 C909 1.227 . S
N911 Co897 2.140 . S
N911 C914 1.346 . S
N911 C915 1.345 . S
C912 C913 1.387 . S
C912 C916 1.391 . S
C913 C912 1.387 . S
C913 C914 1.369 . S
C913 H922 0.929 . S
C914 N911 1.346 . S
C914 C913 1.369 . S
C914 H917 0.928 . S
C915 N911 1.345 . S
C915 C916 1.371 . S
C915 H918 0.931 . S
C916 C912 1.391 . S
C916 C915 1.371 . S
C916 H923 0.930 . S
H917 C914 0.928 . S
H918 C915 0.931 . S
H919 C895 0.930 . S
H920 C892 0.930 1_554 S
H921 C901 0.930 . S
H922 C913 0.929 . S
H923 C916 0.930 . S
C924 C925 1.351 . S
C924 N927 1.368 . S
C924 H929 0.931 . S
C925 C924 1.351 . S
C925 N926 1.373 . S
C925 H953 0.930 . S
N926 C925 1.373 . S
N926 C928 1.340 . S
N927 C924 1.368 . S
N927 C928 1.321 . S
N927 Co930 2.135 . S
C928 N926 1.340 . S
C928 N927 1.321 . S
C928 H952 0.930 . S
H929 C924 0.931 . S
Co930 N927 2.135 . S
Co930 N933 2.121 . S
Co930 O938 2.055 . S
Co930 O941 2.039 . S
Co930 N944 2.140 . S
C931 O932 1.227 . S
C931 O941 1.265 . S
O932 C931 1.227 . S
N933 Co930 2.121 . S
N933 C935 1.375 . S
N933 C936 1.313 . S
C934 C935 1.338 . S
C934 N937 1.377 . S
C934 H954 0.930 . S
C935 N933 1.375 . S
C935 C934 1.338 . S
C935 H939 0.931 . S
C936 N933 1.313 . S
C936 N937 1.344 . S
C936 H940 0.930 . S
N937 C934 1.377 . S
N937 C936 1.344 . S
O938 Co930 2.055 . S
O938 C942 1.253 . S
H939 C935 0.931 . S
H940 C936 0.930 . S
O941 Co930 2.039 . S
O941 C931 1.265 . S
C942 O938 1.253 . S
C942 O943 1.227 . S
O943 C942 1.227 . S
N944 Co930 2.140 . S
N944 C947 1.346 . S
N944 C948 1.345 . S
C945 C946 1.387 . S
C945 C949 1.391 . S
C946 C945 1.387 . S
C946 C947 1.369 . S
C946 H955 0.929 . S
C947 N944 1.346 . S
C947 C946 1.369 . S
C947 H950 0.928 . S
C948 N944 1.345 . S
C948 C949 1.371 . S
C948 H951 0.931 . S
C949 C945 1.391 . S
C949 C948 1.371 . S
C949 H956 0.930 . S
H950 C947 0.928 . S
H951 C948 0.931 . S
H952 C928 0.930 . S
H953 C925 0.930 . S
H954 C934 0.930 . S
H955 C946 0.929 . S
H956 C949 0.930 . S
C957 C958 1.351 . S
C957 N960 1.368 . S
C957 H962 0.931 . S
C958 C957 1.351 . S
C958 N959 1.373 . S
C958 H986 0.930 1_554 S
N959 C958 1.373 . S
N959 C961 1.340 . S
N960 C957 1.368 . S
N960 C961 1.321 . S
N960 Co963 2.135 . S
C961 N959 1.340 . S
C961 N960 1.321 . S
C961 H985 0.930 . S
H962 C957 0.931 . S
Co963 N960 2.135 . S
Co963 N966 2.121 . S
Co963 O971 2.055 . S
Co963 O974 2.039 . S
Co963 N977 2.140 . S
C964 O965 1.227 . S
C964 O974 1.265 . S
O965 C964 1.227 . S
N966 Co963 2.121 . S
N966 C968 1.375 . S
N966 C969 1.313 . S
C967 C968 1.338 . S
C967 N970 1.377 . S
C967 H987 0.930 . S
C968 N966 1.375 . S
C968 C967 1.338 . S
C968 H972 0.931 . S
C969 N966 1.313 . S
C969 N970 1.344 . S
C969 H973 0.930 . S
N970 C967 1.377 . S
N970 C969 1.344 . S
O971 Co963 2.055 . S
O971 C975 1.253 . S
H972 C968 0.931 . S
H973 C969 0.930 . S
O974 Co963 2.039 . S
O974 C964 1.265 . S
C975 O971 1.253 . S
C975 O976 1.227 . S
O976 C975 1.227 . S
N977 Co963 2.140 . S
N977 C980 1.346 . S
N977 C981 1.345 . S
C978 C979 1.387 . S
C978 C982 1.391 . S
C979 C978 1.387 . S
C979 C980 1.369 . S
C979 H988 0.929 . S
C980 N977 1.346 . S
C980 C979 1.369 . S
C980 H983 0.928 . S
C981 N977 1.345 . S
C981 C982 1.371 . S
C981 H984 0.931 . S
C982 C978 1.391 . S
C982 C981 1.371 . S
C982 H989 0.930 . S
H983 C980 0.928 . S
H984 C981 0.931 . S
H985 C961 0.930 . S
H986 C958 0.930 1_556 S
H987 C967 0.930 . S
H988 C979 0.929 . S
H989 C982 0.930 . S
C990 C991 1.351 . S
C990 N993 1.368 . S
C990 H995 0.931 . S
C991 C990 1.351 . S
C991 N992 1.373 . S
C991 H1019 0.930 . S
N992 C991 1.373 . S
N992 C994 1.340 . S
N993 C990 1.368 . S
N993 C994 1.321 . S
N993 Co996 2.135 1_556 S
C994 N992 1.340 . S
C994 N993 1.321 . S
C994 H1018 0.930 . S
H995 C990 0.931 . S
Co996 N993 2.135 1_554 S
Co996 N999 2.121 . S
Co996 O1004 2.055 . S
Co996 O1007 2.039 . S
Co996 N1010 2.140 . S
C997 O998 1.227 1_554 S
C997 O1007 1.265 . S
O998 C997 1.227 1_556 S
N999 Co996 2.121 . S
N999 C1001 1.375 . S
N999 C1002 1.313 . S
C1000 C1001 1.338 . S
C1000 N1003 1.377 . S
C1000 H1020 0.930 . S
C1001 N999 1.375 . S
C1001 C1000 1.338 . S
C1001 H1005 0.931 . S
C1002 N999 1.313 . S
C1002 N1003 1.344 . S
C1002 H1006 0.930 . S
N1003 C1000 1.377 . S
N1003 C1002 1.344 . S
O1004 Co996 2.055 . S
O1004 C1008 1.253 . S
H1005 C1001 0.931 . S
H1006 C1002 0.930 . S
O1007 Co996 2.039 . S
O1007 C997 1.265 . S
C1008 O1004 1.253 . S
C1008 O1009 1.227 . S
O1009 C1008 1.227 . S
N1010 Co996 2.140 . S
N1010 C1013 1.346 1_554 S
N1010 C1014 1.345 . S
C1011 C1012 1.387 1_554 S
C1011 C1015 1.391 . S
C1012 C1011 1.387 1_556 S
C1012 C1013 1.369 . S
C1012 H1021 0.929 . S
C1013 N1010 1.346 1_556 S
C1013 C1012 1.369 . S
C1013 H1016 0.928 . S
C1014 N1010 1.345 . S
C1014 C1015 1.371 . S
C1014 H1017 0.931 . S
C1015 C1011 1.391 . S
C1015 C1014 1.371 . S
C1015 H1022 0.930 . S
H1016 C1013 0.928 . S
H1017 C1014 0.931 . S
H1018 C994 0.930 . S
H1019 C991 0.930 . S
H1020 C1000 0.930 . S
H1021 C1012 0.929 . S
H1022 C1015 0.930 . S
C1023 C1024 1.351 . S
C1023 N1026 1.368 . S
C1023 H1028 0.931 . S
C1024 C1023 1.351 . S
C1024 N1025 1.373 . S
C1024 H1052 0.930 . S
N1025 C1024 1.373 . S
N1025 C1027 1.340 . S
N1026 C1023 1.368 . S
N1026 C1027 1.321 . S
N1026 Co1029 2.135 . S
C1027 N1025 1.340 . S
C1027 N1026 1.321 . S
C1027 H1051 0.930 . S
H1028 C1023 0.931 . S
Co1029 N1026 2.135 . S
Co1029 N1032 2.121 . S
Co1029 O1037 2.055 . S
Co1029 O1040 2.039 . S
Co1029 N1043 2.140 . S
C1030 O1031 1.227 . S
C1030 O1040 1.265 . S
O1031 C1030 1.227 . S
N1032 Co1029 2.121 . S
N1032 C1034 1.375 . S
N1032 C1035 1.313 1_556 S
C1033 C1034 1.338 1_554 S
C1033 N1036 1.377 . S
C1033 H1053 0.930 . S
C1034 N1032 1.375 . S
C1034 C1033 1.338 1_556 S
C1034 H1038 0.931 . S
C1035 N1032 1.313 1_554 S
C1035 N1036 1.344 . S
C1035 H1039 0.930 . S
N1036 C1033 1.377 . S
N1036 C1035 1.344 . S
O1037 Co1029 2.055 . S
O1037 C1041 1.253 . S
H1038 C1034 0.931 . S
H1039 C1035 0.930 . S
O1040 Co1029 2.039 . S
O1040 C1030 1.265 . S
C1041 O1037 1.253 . S
C1041 O1042 1.227 . S
O1042 C1041 1.227 . S
N1043 Co1029 2.140 . S
N1043 C1046 1.346 . S
N1043 C1047 1.345 . S
C1044 C1045 1.387 . S
C1044 C1048 1.391 . S
C1045 C1044 1.387 . S
C1045 C1046 1.369 . S
C1045 H1054 0.929 . S
C1046 N1043 1.346 . S
C1046 C1045 1.369 . S
C1046 H1049 0.928 . S
C1047 N1043 1.345 . S
C1047 C1048 1.371 . S
C1047 H1050 0.931 . S
C1048 C1044 1.391 . S
C1048 C1047 1.371 . S
C1048 H1055 0.930 . S
H1049 C1046 0.928 . S
H1050 C1047 0.931 . S
H1051 C1027 0.930 . S
H1052 C1024 0.930 . S
H1053 C1033 0.930 . S
H1054 C1045 0.929 . S
H1055 C1048 0.930 . S
C1056 C1057 1.363 . S
C1056 C1062 1.379 . S
C1056 N1064 1.356 . S
C1057 C1056 1.363 . S
C1057 C1063 1.363 . S
C1058 C1059 1.363 . S
C1058 C1063 1.379 . S
C1058 N1065 1.356 . S
C1059 C1058 1.363 . S
C1059 C1062 1.363 . S
N1060 C1062 1.356 . S
N1060 H1072 0.984 . S
N1060 H1073 0.985 . S
N1061 C1063 1.356 . S
N1061 H1066 0.984 . S
N1061 H1067 0.985 . S
C1062 C1056 1.379 . S
C1062 C1059 1.363 . S
C1062 N1060 1.356 . S
C1063 C1057 1.363 . S
C1063 C1058 1.379 . S
C1063 N1061 1.356 . S
N1064 C1056 1.356 . S
N1064 H1070 0.984 . S
N1064 H1071 0.984 . S
N1065 C1058 1.356 . S
N1065 H1068 0.984 . S
N1065 H1069 0.985 . S
H1066 N1061 0.984 . S
H1067 N1061 0.985 . S
H1068 N1065 0.984 . S
H1069 N1065 0.985 . S
H1070 N1064 0.984 . S
H1071 N1064 0.984 . S
H1072 N1060 0.984 . S
H1073 N1060 0.985 . S
C1074 C1075 1.363 . S
C1074 C1080 1.379 . S
C1074 N1082 1.356 . S
C1075 C1074 1.363 . S
C1075 C1081 1.363 . S
C1076 C1077 1.363 . S
C1076 C1081 1.379 . S
C1076 N1083 1.356 . S
C1077 C1076 1.363 . S
C1077 C1080 1.363 . S
N1078 C1080 1.356 . S
N1078 H1090 0.984 . S
N1078 H1091 0.985 . S
N1079 C1081 1.356 . S
N1079 H1084 0.984 . S
N1079 H1085 0.985 . S
C1080 C1074 1.379 . S
C1080 C1077 1.363 . S
C1080 N1078 1.356 . S
C1081 C1075 1.363 . S
C1081 C1076 1.379 . S
C1081 N1079 1.356 . S
N1082 C1074 1.356 . S
N1082 H1088 0.984 . S
N1082 H1089 0.984 . S
N1083 C1076 1.356 . S
N1083 H1086 0.984 . S
N1083 H1087 0.985 . S
H1084 N1079 0.984 . S
H1085 N1079 0.985 . S
H1086 N1083 0.984 . S
H1087 N1083 0.985 . S
H1088 N1082 0.984 . S
H1089 N1082 0.984 . S
H1090 N1078 0.984 . S
H1091 N1078 0.985 . S
C1092 C1093 1.363 1_554 S
C1092 C1098 1.379 . S
C1092 N1100 1.356 1_554 S
C1093 C1092 1.363 1_556 S
C1093 C1099 1.363 1_556 S
C1094 C1095 1.363 . S
C1094 C1099 1.379 . S
C1094 N1101 1.356 . S
C1095 C1094 1.363 . S
C1095 C1098 1.363 . S
N1096 C1098 1.356 . S
N1096 H1108 0.984 . S
N1096 H1109 0.985 . S
N1097 C1099 1.356 1_556 S
N1097 H1102 0.984 . S
N1097 H1103 0.985 . S
C1098 C1092 1.379 . S
C1098 C1095 1.363 . S
C1098 N1096 1.356 . S
C1099 C1093 1.363 1_554 S
C1099 C1094 1.379 . S
C1099 N1097 1.356 1_554 S
N1100 C1092 1.356 1_556 S
N1100 H1106 0.984 . S
N1100 H1107 0.984 . S
N1101 C1094 1.356 . S
N1101 H1104 0.984 . S
N1101 H1105 0.985 . S
H1102 N1097 0.984 . S
H1103 N1097 0.985 . S
H1104 N1101 0.984 . S
H1105 N1101 0.985 . S
H1106 N1100 0.984 . S
H1107 N1100 0.984 . S
H1108 N1096 0.984 . S
H1109 N1096 0.985 . S
C1110 C1111 1.363 . S
C1110 C1116 1.379 . S
C1110 N1118 1.356 . S
C1111 C1110 1.363 . S
C1111 C1117 1.363 . S
C1112 C1113 1.363 . S
C1112 C1117 1.379 . S
C1112 N1119 1.356 . S
C1113 C1112 1.363 . S
C1113 C1116 1.363 . S
N1114 C1116 1.356 . S
N1114 H1126 0.984 . S
N1114 H1127 0.985 . S
N1115 C1117 1.356 . S
N1115 H1120 0.984 . S
N1115 H1121 0.985 . S
C1116 C1110 1.379 . S
C1116 C1113 1.363 . S
C1116 N1114 1.356 . S
C1117 C1111 1.363 . S
C1117 C1112 1.379 . S
C1117 N1115 1.356 . S
N1118 C1110 1.356 . S
N1118 H1124 0.984 . S
N1118 H1125 0.984 . S
N1119 C1112 1.356 . S
N1119 H1122 0.984 . S
N1119 H1123 0.985 . S
H1120 N1115 0.984 . S
H1121 N1115 0.985 . S
H1122 N1119 0.984 . S
H1123 N1119 0.985 . S
H1124 N1118 0.984 . S
H1125 N1118 0.984 . S
H1126 N1114 0.984 . S
H1127 N1114 0.985 . S
C1128 C1129 1.363 . S
C1128 C1134 1.379 . S
C1128 N1136 1.356 . S
C1129 C1128 1.363 . S
C1129 C1135 1.363 . S
C1130 C1131 1.363 . S
C1130 C1135 1.379 . S
C1130 N1137 1.356 . S
C1131 C1130 1.363 . S
C1131 C1134 1.363 . S
N1132 C1134 1.356 . S
N1132 H1144 0.984 . S
N1132 H1145 0.985 . S
N1133 C1135 1.356 . S
N1133 H1138 0.984 . S
N1133 H1139 0.985 . S
C1134 C1128 1.379 . S
C1134 C1131 1.363 . S
C1134 N1132 1.356 . S
C1135 C1129 1.363 . S
C1135 C1130 1.379 . S
C1135 N1133 1.356 . S
N1136 C1128 1.356 . S
N1136 H1142 0.984 . S
N1136 H1143 0.984 . S
N1137 C1130 1.356 . S
N1137 H1140 0.984 . S
N1137 H1141 0.985 . S
H1138 N1133 0.984 . S
H1139 N1133 0.985 . S
H1140 N1137 0.984 . S
H1141 N1137 0.985 . S
H1142 N1136 0.984 . S
H1143 N1136 0.984 . S
H1144 N1132 0.984 . S
H1145 N1132 0.985 . S
C1146 C1147 1.363 . S
C1146 C1152 1.379 . S
C1146 N1154 1.356 . S
C1147 C1146 1.363 . S
C1147 C1153 1.363 . S
C1148 C1149 1.363 . S
C1148 C1153 1.379 . S
C1148 N1155 1.356 . S
C1149 C1148 1.363 . S
C1149 C1152 1.363 . S
N1150 C1152 1.356 . S
N1150 H1162 0.984 . S
N1150 H1163 0.985 . S
N1151 C1153 1.356 . S
N1151 H1156 0.984 . S
N1151 H1157 0.985 . S
C1152 C1146 1.379 . S
C1152 C1149 1.363 . S
C1152 N1150 1.356 . S
C1153 C1147 1.363 . S
C1153 C1148 1.379 . S
C1153 N1151 1.356 . S
N1154 C1146 1.356 . S
N1154 H1160 0.984 . S
N1154 H1161 0.984 . S
N1155 C1148 1.356 . S
N1155 H1158 0.984 . S
N1155 H1159 0.985 . S
H1156 N1151 0.984 . S
H1157 N1151 0.985 . S
H1158 N1155 0.984 . S
H1159 N1155 0.985 . S
H1160 N1154 0.984 . S
H1161 N1154 0.984 . S
H1162 N1150 0.984 . S
H1163 N1150 0.985 . S
C1164 C1165 1.363 . S
C1164 C1170 1.379 . S
C1164 N1172 1.356 . S
C1165 C1164 1.363 . S
C1165 C1171 1.363 . S
C1166 C1167 1.363 1_556 S
C1166 C1171 1.379 . S
C1166 N1173 1.356 1_556 S
C1167 C1166 1.363 1_554 S
C1167 C1170 1.363 1_554 S
N1168 C1170 1.356 1_554 S
N1168 H1180 0.984 . S
N1168 H1181 0.985 . S
N1169 C1171 1.356 . S
N1169 H1174 0.984 . S
N1169 H1175 0.985 . S
C1170 C1164 1.379 . S
C1170 C1167 1.363 1_556 S
C1170 N1168 1.356 1_556 S
C1171 C1165 1.363 . S
C1171 C1166 1.379 . S
C1171 N1169 1.356 . S
N1172 C1164 1.356 . S
N1172 H1178 0.984 . S
N1172 H1179 0.984 . S
N1173 C1166 1.356 1_554 S
N1173 H1176 0.984 . S
N1173 H1177 0.985 . S
H1174 N1169 0.984 . S
H1175 N1169 0.985 . S
H1176 N1173 0.984 . S
H1177 N1173 0.985 . S
H1178 N1172 0.984 . S
H1179 N1172 0.984 . S
H1180 N1168 0.984 . S
H1181 N1168 0.985 . S
C1182 C1183 1.363 . S
C1182 C1188 1.379 . S
C1182 N1190 1.356 . S
C1183 C1182 1.363 . S
C1183 C1189 1.363 . S
C1184 C1185 1.363 . S
C1184 C1189 1.379 . S
C1184 N1191 1.356 . S
C1185 C1184 1.363 . S
C1185 C1188 1.363 . S
N1186 C1188 1.356 . S
N1186 H1198 0.984 . S
N1186 H1199 0.985 . S
N1187 C1189 1.356 . S
N1187 H1192 0.984 . S
N1187 H1193 0.985 . S
C1188 C1182 1.379 . S
C1188 C1185 1.363 . S
C1188 N1186 1.356 . S
C1189 C1183 1.363 . S
C1189 C1184 1.379 . S
C1189 N1187 1.356 . S
N1190 C1182 1.356 . S
N1190 H1196 0.984 . S
N1190 H1197 0.984 . S
N1191 C1184 1.356 . S
N1191 H1194 0.984 . S
N1191 H1195 0.985 . S
H1192 N1187 0.984 . S
H1193 N1187 0.985 . S
H1194 N1191 0.984 . S
H1195 N1191 0.985 . S
H1196 N1190 0.984 . S
H1197 N1190 0.984 . S
H1198 N1186 0.984 . S
H1199 N1186 0.985 . S
C1200 C1201 1.363 . S
C1200 C1206 1.379 . S
C1200 N1208 1.356 . S
C1201 C1200 1.363 . S
C1201 C1207 1.363 . S
C1202 C1203 1.363 . S
C1202 C1207 1.379 . S
C1202 N1209 1.356 . S
C1203 C1202 1.363 . S
C1203 C1206 1.363 . S
N1204 C1206 1.356 . S
N1204 H1216 0.984 . S
N1204 H1217 0.985 . S
N1205 C1207 1.356 . S
N1205 H1210 0.984 . S
N1205 H1211 0.985 . S
C1206 C1200 1.379 . S
C1206 C1203 1.363 . S
C1206 N1204 1.356 . S
C1207 C1201 1.363 . S
C1207 C1202 1.379 . S
C1207 N1205 1.356 . S
N1208 C1200 1.356 . S
N1208 H1214 0.984 . S
N1208 H1215 0.984 . S
N1209 C1202 1.356 . S
N1209 H1212 0.984 . S
N1209 H1213 0.985 . S
H1210 N1205 0.984 . S
H1211 N1205 0.985 . S
H1212 N1209 0.984 . S
H1213 N1209 0.985 . S
H1214 N1208 0.984 . S
H1215 N1208 0.984 . S
H1216 N1204 0.984 . S
H1217 N1204 0.985 . S
C1218 C1219 1.363 . S
C1218 C1224 1.379 . S
C1218 N1226 1.356 . S
C1219 C1218 1.363 . S
C1219 C1225 1.363 . S
C1220 C1221 1.363 . S
C1220 C1225 1.379 . S
C1220 N1227 1.356 . S
C1221 C1220 1.363 . S
C1221 C1224 1.363 . S
N1222 C1224 1.356 . S
N1222 H1234 0.984 . S
N1222 H1235 0.985 . S
N1223 C1225 1.356 . S
N1223 H1228 0.984 . S
N1223 H1229 0.985 . S
C1224 C1218 1.379 . S
C1224 C1221 1.363 . S
C1224 N1222 1.356 . S
C1225 C1219 1.363 . S
C1225 C1220 1.379 . S
C1225 N1223 1.356 . S
N1226 C1218 1.356 . S
N1226 H1232 0.984 . S
N1226 H1233 0.984 . S
N1227 C1220 1.356 . S
N1227 H1230 0.984 . S
N1227 H1231 0.985 . S
H1228 N1223 0.984 . S
H1229 N1223 0.985 . S
H1230 N1227 0.984 . S
H1231 N1227 0.985 . S
H1232 N1226 0.984 . S
H1233 N1226 0.984 . S
H1234 N1222 0.984 . S
H1235 N1222 0.985 . S
C1236 C1237 1.363 . S
C1236 C1242 1.379 . S
C1236 N1244 1.356 . S
C1237 C1236 1.363 . S
C1237 C1243 1.363 . S
C1238 C1239 1.363 1_556 S
C1238 C1243 1.379 . S
C1238 N1245 1.356 1_556 S
C1239 C1238 1.363 1_554 S
C1239 C1242 1.363 1_554 S
N1240 C1242 1.356 1_554 S
N1240 H1252 0.984 . S
N1240 H1253 0.985 . S
N1241 C1243 1.356 . S
N1241 H1246 0.984 . S
N1241 H1247 0.985 . S
C1242 C1236 1.379 . S
C1242 C1239 1.363 1_556 S
C1242 N1240 1.356 1_556 S
C1243 C1237 1.363 . S
C1243 C1238 1.379 . S
C1243 N1241 1.356 . S
N1244 C1236 1.356 . S
N1244 H1250 0.984 . S
N1244 H1251 0.984 . S
N1245 C1238 1.356 1_554 S
N1245 H1248 0.984 . S
N1245 H1249 0.985 . S
H1246 N1241 0.984 . S
H1247 N1241 0.985 . S
H1248 N1245 0.984 . S
H1249 N1245 0.985 . S
H1250 N1244 0.984 . S
H1251 N1244 0.984 . S
H1252 N1240 0.984 . S
H1253 N1240 0.985 . S
C1254 C1255 1.363 . S
C1254 C1260 1.379 . S
C1254 N1262 1.356 . S
C1255 C1254 1.363 . S
C1255 C1261 1.363 . S
C1256 C1257 1.363 . S
C1256 C1261 1.379 . S
C1256 N1263 1.356 . S
C1257 C1256 1.363 . S
C1257 C1260 1.363 . S
N1258 C1260 1.356 . S
N1258 H1270 0.984 . S
N1258 H1271 0.985 . S
N1259 C1261 1.356 . S
N1259 H1264 0.984 . S
N1259 H1265 0.985 . S
C1260 C1254 1.379 . S
C1260 C1257 1.363 . S
C1260 N1258 1.356 . S
C1261 C1255 1.363 . S
C1261 C1256 1.379 . S
C1261 N1259 1.356 . S
N1262 C1254 1.356 . S
N1262 H1268 0.984 . S
N1262 H1269 0.984 . S
N1263 C1256 1.356 . S
N1263 H1266 0.984 . S
N1263 H1267 0.985 . S
H1264 N1259 0.984 . S
H1265 N1259 0.985 . S
H1266 N1263 0.984 . S
H1267 N1263 0.985 . S
H1268 N1262 0.984 . S
H1269 N1262 0.984 . S
H1270 N1258 0.984 . S
H1271 N1258 0.985 . S
C1272 C1273 1.363 . S
C1272 C1278 1.379 . S
C1272 N1280 1.356 . S
C1273 C1272 1.363 . S
C1273 C1279 1.363 . S
C1274 C1275 1.363 . S
C1274 C1279 1.379 . S
C1274 N1281 1.356 . S
C1275 C1274 1.363 . S
C1275 C1278 1.363 . S
N1276 C1278 1.356 . S
N1276 H1288 0.984 . S
N1276 H1289 0.985 . S
N1277 C1279 1.356 . S
N1277 H1282 0.984 . S
N1277 H1283 0.985 . S
C1278 C1272 1.379 . S
C1278 C1275 1.363 . S
C1278 N1276 1.356 . S
C1279 C1273 1.363 . S
C1279 C1274 1.379 . S
C1279 N1277 1.356 . S
N1280 C1272 1.356 . S
N1280 H1286 0.984 . S
N1280 H1287 0.984 . S
N1281 C1274 1.356 . S
N1281 H1284 0.984 . S
N1281 H1285 0.985 . S
H1282 N1277 0.984 . S
H1283 N1277 0.985 . S
H1284 N1281 0.984 . S
H1285 N1281 0.985 . S
H1286 N1280 0.984 . S
H1287 N1280 0.984 . S
H1288 N1276 0.984 . S
H1289 N1276 0.985 . S
C1290 C1291 1.363 . S
C1290 C1296 1.379 . S
C1290 N1298 1.356 . S
C1291 C1290 1.363 . S
C1291 C1297 1.363 . S
C1292 C1293 1.363 . S
C1292 C1297 1.379 . S
C1292 N1299 1.356 . S
C1293 C1292 1.363 . S
C1293 C1296 1.363 . S
N1294 C1296 1.356 . S
N1294 H1306 0.984 . S
N1294 H1307 0.985 . S
N1295 C1297 1.356 . S
N1295 H1300 0.984 . S
N1295 H1301 0.985 . S
C1296 C1290 1.379 . S
C1296 C1293 1.363 . S
C1296 N1294 1.356 . S
C1297 C1291 1.363 . S
C1297 C1292 1.379 . S
C1297 N1295 1.356 . S
N1298 C1290 1.356 . S
N1298 H1304 0.984 . S
N1298 H1305 0.984 . S
N1299 C1292 1.356 . S
N1299 H1302 0.984 . S
N1299 H1303 0.985 . S
H1300 N1295 0.984 . S
H1301 N1295 0.985 . S
H1302 N1299 0.984 . S
H1303 N1299 0.985 . S
H1304 N1298 0.984 . S
H1305 N1298 0.984 . S
H1306 N1294 0.984 . S
H1307 N1294 0.985 . S
C1308 C1309 1.363 1_554 S
C1308 C1314 1.379 . S
C1308 N1316 1.356 1_554 S
C1309 C1308 1.363 1_556 S
C1309 C1315 1.363 1_556 S
C1310 C1311 1.363 . S
C1310 C1315 1.379 . S
C1310 N1317 1.356 . S
C1311 C1310 1.363 . S
C1311 C1314 1.363 . S
N1312 C1314 1.356 . S
N1312 H1324 0.984 . S
N1312 H1325 0.985 . S
N1313 C1315 1.356 1_556 S
N1313 H1318 0.984 . S
N1313 H1319 0.985 . S
C1314 C1308 1.379 . S
C1314 C1311 1.363 . S
C1314 N1312 1.356 . S
C1315 C1309 1.363 1_554 S
C1315 C1310 1.379 . S
C1315 N1313 1.356 1_554 S
N1316 C1308 1.356 1_556 S
N1316 H1322 0.984 . S
N1316 H1323 0.984 . S
N1317 C1310 1.356 . S
N1317 H1320 0.984 . S
N1317 H1321 0.985 . S
H1318 N1313 0.984 . S
H1319 N1313 0.985 . S
H1320 N1317 0.984 . S
H1321 N1317 0.985 . S
H1322 N1316 0.984 . S
H1323 N1316 0.984 . S
H1324 N1312 0.984 . S
H1325 N1312 0.985 . S
C1326 C1327 1.363 . S
C1326 C1332 1.379 . S
C1326 N1334 1.356 . S
C1327 C1326 1.363 . S
C1327 C1333 1.363 . S
C1328 C1329 1.363 . S
C1328 C1333 1.379 . S
C1328 N1335 1.356 . S
C1329 C1328 1.363 . S
C1329 C1332 1.363 . S
N1330 C1332 1.356 . S
N1330 H1342 0.984 . S
N1330 H1343 0.985 . S
N1331 C1333 1.356 . S
N1331 H1336 0.984 . S
N1331 H1337 0.985 . S
C1332 C1326 1.379 . S
C1332 C1329 1.363 . S
C1332 N1330 1.356 . S
C1333 C1327 1.363 . S
C1333 C1328 1.379 . S
C1333 N1331 1.356 . S
N1334 C1326 1.356 . S
N1334 H1340 0.984 . S
N1334 H1341 0.984 . S
N1335 C1328 1.356 . S
N1335 H1338 0.984 . S
N1335 H1339 0.985 . S
H1336 N1331 0.984 . S
H1337 N1331 0.985 . S
H1338 N1335 0.984 . S
H1339 N1335 0.985 . S
H1340 N1334 0.984 . S
H1341 N1334 0.984 . S
H1342 N1330 0.984 . S
H1343 N1330 0.985 . S
C1344 C1345 1.363 1_554 S
C1344 C1350 1.379 . S
C1344 N1352 1.356 1_554 S
C1345 C1344 1.363 1_556 S
C1345 C1351 1.363 1_556 S
C1346 C1347 1.363 . S
C1346 C1351 1.379 . S
C1346 N1353 1.356 . S
C1347 C1346 1.363 . S
C1347 C1350 1.363 . S
N1348 C1350 1.356 . S
N1348 H1360 0.984 . S
N1348 H1361 0.985 . S
N1349 C1351 1.356 1_556 S
N1349 H1354 0.984 . S
N1349 H1355 0.985 . S
C1350 C1344 1.379 . S
C1350 C1347 1.363 . S
C1350 N1348 1.356 . S
C1351 C1345 1.363 1_554 S
C1351 C1346 1.379 . S
C1351 N1349 1.356 1_554 S
N1352 C1344 1.356 1_556 S
N1352 H1358 0.984 . S
N1352 H1359 0.984 . S
N1353 C1346 1.356 . S
N1353 H1356 0.984 . S
N1353 H1357 0.985 . S
H1354 N1349 0.984 . S
H1355 N1349 0.985 . S
H1356 N1353 0.984 . S
H1357 N1353 0.985 . S
H1358 N1352 0.984 . S
H1359 N1352 0.984 . S
H1360 N1348 0.984 . S
H1361 N1348 0.985 . S
C1362 C1363 1.363 . S
C1362 C1368 1.379 . S
C1362 N1370 1.356 . S
C1363 C1362 1.363 . S
C1363 C1369 1.363 . S
C1364 C1365 1.363 . S
C1364 C1369 1.379 . S
C1364 N1371 1.356 . S
C1365 C1364 1.363 . S
C1365 C1368 1.363 . S
N1366 C1368 1.356 . S
N1366 H1378 0.984 . S
N1366 H1379 0.985 . S
N1367 C1369 1.356 . S
N1367 H1372 0.984 . S
N1367 H1373 0.985 . S
C1368 C1362 1.379 . S
C1368 C1365 1.363 . S
C1368 N1366 1.356 . S
C1369 C1363 1.363 . S
C1369 C1364 1.379 . S
C1369 N1367 1.356 . S
N1370 C1362 1.356 . S
N1370 H1376 0.984 . S
N1370 H1377 0.984 . S
N1371 C1364 1.356 . S
N1371 H1374 0.984 . S
N1371 H1375 0.985 . S
H1372 N1367 0.984 . S
H1373 N1367 0.985 . S
H1374 N1371 0.984 . S
H1375 N1371 0.985 . S
H1376 N1370 0.984 . S
H1377 N1370 0.984 . S
H1378 N1366 0.984 . S
H1379 N1366 0.985 . S
C1380 C1381 1.363 . S
C1380 C1386 1.379 . S
C1380 N1388 1.356 . S
C1381 C1380 1.363 . S
C1381 C1387 1.363 . S
C1382 C1383 1.363 . S
C1382 C1387 1.379 . S
C1382 N1389 1.356 . S
C1383 C1382 1.363 . S
C1383 C1386 1.363 . S
N1384 C1386 1.356 . S
N1384 H1396 0.984 . S
N1384 H1397 0.985 . S
N1385 C1387 1.356 . S
N1385 H1390 0.984 . S
N1385 H1391 0.985 . S
C1386 C1380 1.379 . S
C1386 C1383 1.363 . S
C1386 N1384 1.356 . S
C1387 C1381 1.363 . S
C1387 C1382 1.379 . S
C1387 N1385 1.356 . S
N1388 C1380 1.356 . S
N1388 H1394 0.984 . S
N1388 H1395 0.984 . S
N1389 C1382 1.356 . S
N1389 H1392 0.984 . S
N1389 H1393 0.985 . S
H1390 N1385 0.984 . S
H1391 N1385 0.985 . S
H1392 N1389 0.984 . S
H1393 N1389 0.985 . S
H1394 N1388 0.984 . S
H1395 N1388 0.984 . S
H1396 N1384 0.984 . S
H1397 N1384 0.985 . S
C1398 C1399 1.363 . S
C1398 C1404 1.379 . S
C1398 N1406 1.356 . S
C1399 C1398 1.363 . S
C1399 C1405 1.363 . S
C1400 C1401 1.363 . S
C1400 C1405 1.379 . S
C1400 N1407 1.356 . S
C1401 C1400 1.363 . S
C1401 C1404 1.363 . S
N1402 C1404 1.356 . S
N1402 H1414 0.984 . S
N1402 H1415 0.985 . S
N1403 C1405 1.356 . S
N1403 H1408 0.984 . S
N1403 H1409 0.985 . S
C1404 C1398 1.379 . S
C1404 C1401 1.363 . S
C1404 N1402 1.356 . S
C1405 C1399 1.363 . S
C1405 C1400 1.379 . S
C1405 N1403 1.356 . S
N1406 C1398 1.356 . S
N1406 H1412 0.984 . S
N1406 H1413 0.984 . S
N1407 C1400 1.356 . S
N1407 H1410 0.984 . S
N1407 H1411 0.985 . S
H1408 N1403 0.984 . S
H1409 N1403 0.985 . S
H1410 N1407 0.984 . S
H1411 N1407 0.985 . S
H1412 N1406 0.984 . S
H1413 N1406 0.984 . S
H1414 N1402 0.984 . S
H1415 N1402 0.985 . S
C1416 C1417 1.363 1_556 S
C1416 C1422 1.379 . S
C1416 N1424 1.356 1_556 S
C1417 C1416 1.363 1_554 S
C1417 C1423 1.363 1_554 S
C1418 C1419 1.363 . S
C1418 C1423 1.379 . S
C1418 N1425 1.356 . S
C1419 C1418 1.363 . S
C1419 C1422 1.363 . S
N1420 C1422 1.356 . S
N1420 H1432 0.984 . S
N1420 H1433 0.985 . S
N1421 C1423 1.356 1_554 S
N1421 H1426 0.984 . S
N1421 H1427 0.985 . S
C1422 C1416 1.379 . S
C1422 C1419 1.363 . S
C1422 N1420 1.356 . S
C1423 C1417 1.363 1_556 S
C1423 C1418 1.379 . S
C1423 N1421 1.356 1_556 S
N1424 C1416 1.356 1_554 S
N1424 H1430 0.984 . S
N1424 H1431 0.984 . S
N1425 C1418 1.356 . S
N1425 H1428 0.984 . S
N1425 H1429 0.985 . S
H1426 N1421 0.984 . S
H1427 N1421 0.985 . S
H1428 N1425 0.984 . S
H1429 N1425 0.985 . S
H1430 N1424 0.984 . S
H1431 N1424 0.984 . S
H1432 N1420 0.984 . S
H1433 N1420 0.985 . S
C1434 C1435 1.363 . S
C1434 C1440 1.379 . S
C1434 N1442 1.356 . S
C1435 C1434 1.363 . S
C1435 C1441 1.363 . S
C1436 C1437 1.363 . S
C1436 C1441 1.379 . S
C1436 N1443 1.356 . S
C1437 C1436 1.363 . S
C1437 C1440 1.363 . S
N1438 C1440 1.356 . S
N1438 H1450 0.984 . S
N1438 H1451 0.985 . S
N1439 C1441 1.356 . S
N1439 H1444 0.984 . S
N1439 H1445 0.985 . S
C1440 C1434 1.379 . S
C1440 C1437 1.363 . S
C1440 N1438 1.356 . S
C1441 C1435 1.363 . S
C1441 C1436 1.379 . S
C1441 N1439 1.356 . S
N1442 C1434 1.356 . S
N1442 H1448 0.984 . S
N1442 H1449 0.984 . S
N1443 C1436 1.356 . S
N1443 H1446 0.984 . S
N1443 H1447 0.985 . S
H1444 N1439 0.984 . S
H1445 N1439 0.985 . S
H1446 N1443 0.984 . S
H1447 N1443 0.985 . S
H1448 N1442 0.984 . S
H1449 N1442 0.984 . S
H1450 N1438 0.984 . S
H1451 N1438 0.985 . S
C1452 C1453 1.363 . S
C1452 C1458 1.379 . S
C1452 N1460 1.356 . S
C1453 C1452 1.363 . S
C1453 C1459 1.363 . S
C1454 C1455 1.363 . S
C1454 C1459 1.379 . S
C1454 N1461 1.356 . S
C1455 C1454 1.363 . S
C1455 C1458 1.363 . S
N1456 C1458 1.356 . S
N1456 H1468 0.984 . S
N1456 H1469 0.985 . S
N1457 C1459 1.356 . S
N1457 H1462 0.984 . S
N1457 H1463 0.985 . S
C1458 C1452 1.379 . S
C1458 C1455 1.363 . S
C1458 N1456 1.356 . S
C1459 C1453 1.363 . S
C1459 C1454 1.379 . S
C1459 N1457 1.356 . S
N1460 C1452 1.356 . S
N1460 H1466 0.984 . S
N1460 H1467 0.984 . S
N1461 C1454 1.356 . S
N1461 H1464 0.984 . S
N1461 H1465 0.985 . S
H1462 N1457 0.984 . S
H1463 N1457 0.985 . S
H1464 N1461 0.984 . S
H1465 N1461 0.985 . S
H1466 N1460 0.984 . S
H1467 N1460 0.984 . S
H1468 N1456 0.984 . S
H1469 N1456 0.985 . S
C1470 C1471 1.363 . S
C1470 C1476 1.379 . S
C1470 N1478 1.356 . S
C1471 C1470 1.363 . S
C1471 C1477 1.363 . S
C1472 C1473 1.363 . S
C1472 C1477 1.379 . S
C1472 N1479 1.356 . S
C1473 C1472 1.363 . S
C1473 C1476 1.363 . S
N1474 C1476 1.356 . S
N1474 H1486 0.984 . S
N1474 H1487 0.985 . S
N1475 C1477 1.356 . S
N1475 H1480 0.984 . S
N1475 H1481 0.985 . S
C1476 C1470 1.379 . S
C1476 C1473 1.363 . S
C1476 N1474 1.356 . S
C1477 C1471 1.363 . S
C1477 C1472 1.379 . S
C1477 N1475 1.356 . S
N1478 C1470 1.356 . S
N1478 H1484 0.984 . S
N1478 H1485 0.984 . S
N1479 C1472 1.356 . S
N1479 H1482 0.984 . S
N1479 H1483 0.985 . S
H1480 N1475 0.984 . S
H1481 N1475 0.985 . S
H1482 N1479 0.984 . S
H1483 N1479 0.985 . S
H1484 N1478 0.984 . S
H1485 N1478 0.984 . S
H1486 N1474 0.984 . S
H1487 N1474 0.985 . S
C1488 C1489 1.363 1_556 S
C1488 C1494 1.379 . S
C1488 N1496 1.356 1_556 S
C1489 C1488 1.363 1_554 S
C1489 C1495 1.363 1_554 S
C1490 C1491 1.363 . S
C1490 C1495 1.379 . S
C1490 N1497 1.356 . S
C1491 C1490 1.363 . S
C1491 C1494 1.363 . S
N1492 C1494 1.356 . S
N1492 H1504 0.984 . S
N1492 H1505 0.985 . S
N1493 C1495 1.356 1_554 S
N1493 H1498 0.984 . S
N1493 H1499 0.985 . S
C1494 C1488 1.379 . S
C1494 C1491 1.363 . S
C1494 N1492 1.356 . S
C1495 C1489 1.363 1_556 S
C1495 C1490 1.379 . S
C1495 N1493 1.356 1_556 S
N1496 C1488 1.356 1_554 S
N1496 H1502 0.984 . S
N1496 H1503 0.984 . S
N1497 C1490 1.356 . S
N1497 H1500 0.984 . S
N1497 H1501 0.985 . S
H1498 N1493 0.984 . S
H1499 N1493 0.985 . S
H1500 N1497 0.984 . S
H1501 N1497 0.985 . S
H1502 N1496 0.984 . S
H1503 N1496 0.984 . S
H1504 N1492 0.984 . S
H1505 N1492 0.985 . S
C1506 C1507 1.363 . S
C1506 C1512 1.379 . S
C1506 N1514 1.356 . S
C1507 C1506 1.363 . S
C1507 C1513 1.363 . S
C1508 C1509 1.363 . S
C1508 C1513 1.379 . S
C1508 N1515 1.356 . S
C1509 C1508 1.363 . S
C1509 C1512 1.363 . S
N1510 C1512 1.356 . S
N1510 H1522 0.984 . S
N1510 H1523 0.985 . S
N1511 C1513 1.356 . S
N1511 H1516 0.984 . S
N1511 H1517 0.985 . S
C1512 C1506 1.379 . S
C1512 C1509 1.363 . S
C1512 N1510 1.356 . S
C1513 C1507 1.363 . S
C1513 C1508 1.379 . S
C1513 N1511 1.356 . S
N1514 C1506 1.356 . S
N1514 H1520 0.984 . S
N1514 H1521 0.984 . S
N1515 C1508 1.356 . S
N1515 H1518 0.984 . S
N1515 H1519 0.985 . S
H1516 N1511 0.984 . S
H1517 N1511 0.985 . S
H1518 N1515 0.984 . S
H1519 N1515 0.985 . S
H1520 N1514 0.984 . S
H1521 N1514 0.984 . S
H1522 N1510 0.984 . S
H1523 N1510 0.985 . S
C1524 C1525 1.363 . S
C1524 C1530 1.379 . S
C1524 N1532 1.356 . S
C1525 C1524 1.363 . S
C1525 C1531 1.363 . S
C1526 C1527 1.363 . S
C1526 C1531 1.379 . S
C1526 N1533 1.356 . S
C1527 C1526 1.363 . S
C1527 C1530 1.363 . S
N1528 C1530 1.356 . S
N1528 H1540 0.984 . S
N1528 H1541 0.985 . S
N1529 C1531 1.356 . S
N1529 H1534 0.984 . S
N1529 H1535 0.985 . S
C1530 C1524 1.379 . S
C1530 C1527 1.363 . S
C1530 N1528 1.356 . S
C1531 C1525 1.363 . S
C1531 C1526 1.379 . S
C1531 N1529 1.356 . S
N1532 C1524 1.356 . S
N1532 H1538 0.984 . S
N1532 H1539 0.984 . S
N1533 C1526 1.356 . S
N1533 H1536 0.984 . S
N1533 H1537 0.985 . S
H1534 N1529 0.984 . S
H1535 N1529 0.985 . S
H1536 N1533 0.984 . S
H1537 N1533 0.985 . S
H1538 N1532 0.984 . S
H1539 N1532 0.984 . S
H1540 N1528 0.984 . S
H1541 N1528 0.985 . S
C1542 C1543 1.363 . S
C1542 C1548 1.379 . S
C1542 N1550 1.356 . S
C1543 C1542 1.363 . S
C1543 C1549 1.363 . S
C1544 C1545 1.363 . S
C1544 C1549 1.379 . S
C1544 N1551 1.356 . S
C1545 C1544 1.363 . S
C1545 C1548 1.363 . S
N1546 C1548 1.356 . S
N1546 H1558 0.984 . S
N1546 H1559 0.985 . S
N1547 C1549 1.356 . S
N1547 H1552 0.984 . S
N1547 H1553 0.985 . S
C1548 C1542 1.379 . S
C1548 C1545 1.363 . S
C1548 N1546 1.356 . S
C1549 C1543 1.363 . S
C1549 C1544 1.379 . S
C1549 N1547 1.356 . S
N1550 C1542 1.356 . S
N1550 H1556 0.984 . S
N1550 H1557 0.984 . S
N1551 C1544 1.356 . S
N1551 H1554 0.984 . S
N1551 H1555 0.985 . S
H1552 N1547 0.984 . S
H1553 N1547 0.985 . S
H1554 N1551 0.984 . S
H1555 N1551 0.985 . S
H1556 N1550 0.984 . S
H1557 N1550 0.984 . S
H1558 N1546 0.984 . S
H1559 N1546 0.985 . S
C1560 C1561 1.363 . S
C1560 C1566 1.379 . S
C1560 N1568 1.356 . S
C1561 C1560 1.363 . S
C1561 C1567 1.363 . S
C1562 C1563 1.363 1_554 S
C1562 C1567 1.379 . S
C1562 N1569 1.356 1_554 S
C1563 C1562 1.363 1_556 S
C1563 C1566 1.363 1_556 S
N1564 C1566 1.356 1_556 S
N1564 H1576 0.984 . S
N1564 H1577 0.985 . S
N1565 C1567 1.356 . S
N1565 H1570 0.984 . S
N1565 H1571 0.985 . S
C1566 C1560 1.379 . S
C1566 C1563 1.363 1_554 S
C1566 N1564 1.356 1_554 S
C1567 C1561 1.363 . S
C1567 C1562 1.379 . S
C1567 N1565 1.356 . S
N1568 C1560 1.356 . S
N1568 H1574 0.984 . S
N1568 H1575 0.984 . S
N1569 C1562 1.356 1_556 S
N1569 H1572 0.984 . S
N1569 H1573 0.985 . S
H1570 N1565 0.984 . S
H1571 N1565 0.985 . S
H1572 N1569 0.984 . S
H1573 N1569 0.985 . S
H1574 N1568 0.984 . S
H1575 N1568 0.984 . S
H1576 N1564 0.984 . S
H1577 N1564 0.985 . S
C1578 C1579 1.363 . S
C1578 C1584 1.379 . S
C1578 N1586 1.356 . S
C1579 C1578 1.363 . S
C1579 C1585 1.363 . S
C1580 C1581 1.363 . S
C1580 C1585 1.379 . S
C1580 N1587 1.356 . S
C1581 C1580 1.363 . S
C1581 C1584 1.363 . S
N1582 C1584 1.356 . S
N1582 H1594 0.984 . S
N1582 H1595 0.985 . S
N1583 C1585 1.356 . S
N1583 H1588 0.984 . S
N1583 H1589 0.985 . S
C1584 C1578 1.379 . S
C1584 C1581 1.363 . S
C1584 N1582 1.356 . S
C1585 C1579 1.363 . S
C1585 C1580 1.379 . S
C1585 N1583 1.356 . S
N1586 C1578 1.356 . S
N1586 H1592 0.984 . S
N1586 H1593 0.984 . S
N1587 C1580 1.356 . S
N1587 H1590 0.984 . S
N1587 H1591 0.985 . S
H1588 N1583 0.984 . S
H1589 N1583 0.985 . S
H1590 N1587 0.984 . S
H1591 N1587 0.985 . S
H1592 N1586 0.984 . S
H1593 N1586 0.984 . S
H1594 N1582 0.984 . S
H1595 N1582 0.985 . S
C1596 C1597 1.363 . S
C1596 C1602 1.379 . S
C1596 N1604 1.356 . S
C1597 C1596 1.363 . S
C1597 C1603 1.363 . S
C1598 C1599 1.363 . S
C1598 C1603 1.379 . S
C1598 N1605 1.356 . S
C1599 C1598 1.363 . S
C1599 C1602 1.363 . S
N1600 C1602 1.356 . S
N1600 H1612 0.984 . S
N1600 H1613 0.985 . S
N1601 C1603 1.356 . S
N1601 H1606 0.984 . S
N1601 H1607 0.985 . S
C1602 C1596 1.379 . S
C1602 C1599 1.363 . S
C1602 N1600 1.356 . S
C1603 C1597 1.363 . S
C1603 C1598 1.379 . S
C1603 N1601 1.356 . S
N1604 C1596 1.356 . S
N1604 H1610 0.984 . S
N1604 H1611 0.984 . S
N1605 C1598 1.356 . S
N1605 H1608 0.984 . S
N1605 H1609 0.985 . S
H1606 N1601 0.984 . S
H1607 N1601 0.985 . S
H1608 N1605 0.984 . S
H1609 N1605 0.985 . S
H1610 N1604 0.984 . S
H1611 N1604 0.984 . S
H1612 N1600 0.984 . S
H1613 N1600 0.985 . S
C1614 C1615 1.363 . S
C1614 C1620 1.379 . S
C1614 N1622 1.356 . S
C1615 C1614 1.363 . S
C1615 C1621 1.363 . S
C1616 C1617 1.363 . S
C1616 C1621 1.379 . S
C1616 N1623 1.356 . S
C1617 C1616 1.363 . S
C1617 C1620 1.363 . S
N1618 C1620 1.356 . S
N1618 H1630 0.984 . S
N1618 H1631 0.985 . S
N1619 C1621 1.356 . S
N1619 H1624 0.984 . S
N1619 H1625 0.985 . S
C1620 C1614 1.379 . S
C1620 C1617 1.363 . S
C1620 N1618 1.356 . S
C1621 C1615 1.363 . S
C1621 C1616 1.379 . S
C1621 N1619 1.356 . S
N1622 C1614 1.356 . S
N1622 H1628 0.984 . S
N1622 H1629 0.984 . S
N1623 C1616 1.356 . S
N1623 H1626 0.984 . S
N1623 H1627 0.985 . S
H1624 N1619 0.984 . S
H1625 N1619 0.985 . S
H1626 N1623 0.984 . S
H1627 N1623 0.985 . S
H1628 N1622 0.984 . S
H1629 N1622 0.984 . S
H1630 N1618 0.984 . S
H1631 N1618 0.985 . S
C1632 C1633 1.363 . S
C1632 C1638 1.379 . S
C1632 N1640 1.356 . S
C1633 C1632 1.363 . S
C1633 C1639 1.363 . S
C1634 C1635 1.363 . S
C1634 C1639 1.379 . S
C1634 N1641 1.356 1_554 S
C1635 C1634 1.363 . S
C1635 C1638 1.363 . S
N1636 C1638 1.356 . S
N1636 H1648 0.984 . S
N1636 H1649 0.985 . S
N1637 C1639 1.356 . S
N1637 H1642 0.984 . S
N1637 H1643 0.985 1_554 S
C1638 C1632 1.379 . S
C1638 C1635 1.363 . S
C1638 N1636 1.356 . S
C1639 C1633 1.363 . S
C1639 C1634 1.379 . S
C1639 N1637 1.356 . S
N1640 C1632 1.356 . S
N1640 H1646 0.984 . S
N1640 H1647 0.984 . S
N1641 C1634 1.356 1_556 S
N1641 H1644 0.984 . S
N1641 H1645 0.985 . S
H1642 N1637 0.984 . S
H1643 N1637 0.985 1_556 S
H1644 N1641 0.984 . S
H1645 N1641 0.985 . S
H1646 N1640 0.984 . S
H1647 N1640 0.984 . S
H1648 N1636 0.984 . S
H1649 N1636 0.985 . S
C1650 C1651 1.363 . S
C1650 C1656 1.379 . S
C1650 N1658 1.356 . S
C1651 C1650 1.363 . S
C1651 C1657 1.363 . S
C1652 C1653 1.363 . S
C1652 C1657 1.379 . S
C1652 N1659 1.356 . S
C1653 C1652 1.363 . S
C1653 C1656 1.363 . S
N1654 C1656 1.356 . S
N1654 H1666 0.984 . S
N1654 H1667 0.985 . S
N1655 C1657 1.356 . S
N1655 H1660 0.984 . S
N1655 H1661 0.985 . S
C1656 C1650 1.379 . S
C1656 C1653 1.363 . S
C1656 N1654 1.356 . S
C1657 C1651 1.363 . S
C1657 C1652 1.379 . S
C1657 N1655 1.356 . S
N1658 C1650 1.356 . S
N1658 H1664 0.984 . S
N1658 H1665 0.984 . S
N1659 C1652 1.356 . S
N1659 H1662 0.984 . S
N1659 H1663 0.985 . S
H1660 N1655 0.984 . S
H1661 N1655 0.985 . S
H1662 N1659 0.984 . S
H1663 N1659 0.985 . S
H1664 N1658 0.984 . S
H1665 N1658 0.984 . S
H1666 N1654 0.984 . S
H1667 N1654 0.985 . S
C1668 C1669 1.363 . S
C1668 C1674 1.379 . S
C1668 N1676 1.356 . S
C1669 C1668 1.363 . S
C1669 C1675 1.363 . S
C1670 C1671 1.363 . S
C1670 C1675 1.379 . S
C1670 N1677 1.356 . S
C1671 C1670 1.363 . S
C1671 C1674 1.363 . S
N1672 C1674 1.356 . S
N1672 H1684 0.984 . S
N1672 H1685 0.985 . S
N1673 C1675 1.356 . S
N1673 H1678 0.984 . S
N1673 H1679 0.985 . S
C1674 C1668 1.379 . S
C1674 C1671 1.363 . S
C1674 N1672 1.356 . S
C1675 C1669 1.363 . S
C1675 C1670 1.379 . S
C1675 N1673 1.356 . S
N1676 C1668 1.356 . S
N1676 H1682 0.984 . S
N1676 H1683 0.984 . S
N1677 C1670 1.356 . S
N1677 H1680 0.984 . S
N1677 H1681 0.985 . S
H1678 N1673 0.984 . S
H1679 N1673 0.985 . S
H1680 N1677 0.984 . S
H1681 N1677 0.985 . S
H1682 N1676 0.984 . S
H1683 N1676 0.984 . S
H1684 N1672 0.984 . S
H1685 N1672 0.985 . S
C1686 C1687 1.363 . S
C1686 C1692 1.379 . S
C1686 N1694 1.356 1_556 S
C1687 C1686 1.363 . S
C1687 C1693 1.363 . S
C1688 C1689 1.363 . S
C1688 C1693 1.379 . S
C1688 N1695 1.356 . S
C1689 C1688 1.363 . S
C1689 C1692 1.363 . S
N1690 C1692 1.356 . S
N1690 H1702 0.984 1_556 S
N1690 H1703 0.985 . S
N1691 C1693 1.356 . S
N1691 H1696 0.984 . S
N1691 H1697 0.985 . S
C1692 C1686 1.379 . S
C1692 C1689 1.363 . S
C1692 N1690 1.356 . S
C1693 C1687 1.363 . S
C1693 C1688 1.379 . S
C1693 N1691 1.356 . S
N1694 C1686 1.356 1_554 S
N1694 H1700 0.984 . S
N1694 H1701 0.984 . S
N1695 C1688 1.356 . S
N1695 H1698 0.984 . S
N1695 H1699 0.985 . S
H1696 N1691 0.984 . S
H1697 N1691 0.985 . S
H1698 N1695 0.984 . S
H1699 N1695 0.985 . S
H1700 N1694 0.984 . S
H1701 N1694 0.984 . S
H1702 N1690 0.984 1_554 S
H1703 N1690 0.985 . S
C1704 C1705 1.363 . S
C1704 C1710 1.379 . S
C1704 N1712 1.356 . S
C1705 C1704 1.363 . S
C1705 C1711 1.363 . S
C1706 C1707 1.363 . S
C1706 C1711 1.379 . S
C1706 N1713 1.356 1_556 S
C1707 C1706 1.363 . S
C1707 C1710 1.363 . S
N1708 C1710 1.356 . S
N1708 H1720 0.984 . S
N1708 H1721 0.985 . S
N1709 C1711 1.356 . S
N1709 H1714 0.984 . S
N1709 H1715 0.985 1_556 S
C1710 C1704 1.379 . S
C1710 C1707 1.363 . S
C1710 N1708 1.356 . S
C1711 C1705 1.363 . S
C1711 C1706 1.379 . S
C1711 N1709 1.356 . S
N1712 C1704 1.356 . S
N1712 H1718 0.984 . S
N1712 H1719 0.984 . S
N1713 C1706 1.356 1_554 S
N1713 H1716 0.984 . S
N1713 H1717 0.985 . S
H1714 N1709 0.984 . S
H1715 N1709 0.985 1_554 S
H1716 N1713 0.984 . S
H1717 N1713 0.985 . S
H1718 N1712 0.984 . S
H1719 N1712 0.984 . S
H1720 N1708 0.984 . S
H1721 N1708 0.985 . S
C1722 C1723 1.363 . S
C1722 C1728 1.379 . S
C1722 N1730 1.356 . S
C1723 C1722 1.363 . S
C1723 C1729 1.363 . S
C1724 C1725 1.363 . S
C1724 C1729 1.379 . S
C1724 N1731 1.356 . S
C1725 C1724 1.363 . S
C1725 C1728 1.363 . S
N1726 C1728 1.356 . S
N1726 H1738 0.984 . S
N1726 H1739 0.985 . S
N1727 C1729 1.356 . S
N1727 H1732 0.984 . S
N1727 H1733 0.985 . S
C1728 C1722 1.379 . S
C1728 C1725 1.363 . S
C1728 N1726 1.356 . S
C1729 C1723 1.363 . S
C1729 C1724 1.379 . S
C1729 N1727 1.356 . S
N1730 C1722 1.356 . S
N1730 H1736 0.984 . S
N1730 H1737 0.984 . S
N1731 C1724 1.356 . S
N1731 H1734 0.984 . S
N1731 H1735 0.985 . S
H1732 N1727 0.984 . S
H1733 N1727 0.985 . S
H1734 N1731 0.984 . S
H1735 N1731 0.985 . S
H1736 N1730 0.984 . S
H1737 N1730 0.984 . S
H1738 N1726 0.984 . S
H1739 N1726 0.985 . S
C1740 C1741 1.363 . S
C1740 C1746 1.379 . S
C1740 N1748 1.356 . S
C1741 C1740 1.363 . S
C1741 C1747 1.363 . S
C1742 C1743 1.363 . S
C1742 C1747 1.379 . S
C1742 N1749 1.356 . S
C1743 C1742 1.363 . S
C1743 C1746 1.363 . S
N1744 C1746 1.356 . S
N1744 H1756 0.984 . S
N1744 H1757 0.985 . S
N1745 C1747 1.356 . S
N1745 H1750 0.984 . S
N1745 H1751 0.985 . S
C1746 C1740 1.379 . S
C1746 C1743 1.363 . S
C1746 N1744 1.356 . S
C1747 C1741 1.363 . S
C1747 C1742 1.379 . S
C1747 N1745 1.356 . S
N1748 C1740 1.356 . S
N1748 H1754 0.984 . S
N1748 H1755 0.984 . S
N1749 C1742 1.356 . S
N1749 H1752 0.984 . S
N1749 H1753 0.985 . S
H1750 N1745 0.984 . S
H1751 N1745 0.985 . S
H1752 N1749 0.984 . S
H1753 N1749 0.985 . S
H1754 N1748 0.984 . S
H1755 N1748 0.984 . S
H1756 N1744 0.984 . S
H1757 N1744 0.985 . S
C1758 C1759 1.363 . S
C1758 C1764 1.379 . S
C1758 N1766 1.356 . S
C1759 C1758 1.363 . S
C1759 C1765 1.363 . S
C1760 C1761 1.363 . S
C1760 C1765 1.379 . S
C1760 N1767 1.356 . S
C1761 C1760 1.363 . S
C1761 C1764 1.363 . S
N1762 C1764 1.356 . S
N1762 H1774 0.984 . S
N1762 H1775 0.985 . S
N1763 C1765 1.356 . S
N1763 H1768 0.984 . S
N1763 H1769 0.985 . S
C1764 C1758 1.379 . S
C1764 C1761 1.363 . S
C1764 N1762 1.356 . S
C1765 C1759 1.363 . S
C1765 C1760 1.379 . S
C1765 N1763 1.356 . S
N1766 C1758 1.356 . S
N1766 H1772 0.984 . S
N1766 H1773 0.984 . S
N1767 C1760 1.356 . S
N1767 H1770 0.984 . S
N1767 H1771 0.985 . S
H1768 N1763 0.984 . S
H1769 N1763 0.985 . S
H1770 N1767 0.984 . S
H1771 N1767 0.985 . S
H1772 N1766 0.984 . S
H1773 N1766 0.984 . S
H1774 N1762 0.984 . S
H1775 N1762 0.985 . S
C1776 C1777 1.363 . S
C1776 C1782 1.379 . S
C1776 N1784 1.356 . S
C1777 C1776 1.363 . S
C1777 C1783 1.363 . S
C1778 C1779 1.363 . S
C1778 C1783 1.379 . S
C1778 N1785 1.356 . S
C1779 C1778 1.363 . S
C1779 C1782 1.363 . S
N1780 C1782 1.356 . S
N1780 H1792 0.984 1_556 S
N1780 H1793 0.985 . S
N1781 C1783 1.356 . S
N1781 H1786 0.984 . S
N1781 H1787 0.985 . S
C1782 C1776 1.379 . S
C1782 C1779 1.363 . S
C1782 N1780 1.356 . S
C1783 C1777 1.363 . S
C1783 C1778 1.379 . S
C1783 N1781 1.356 . S
N1784 C1776 1.356 . S
N1784 H1790 0.984 . S
N1784 H1791 0.984 . S
N1785 C1778 1.356 . S
N1785 H1788 0.984 . S
N1785 H1789 0.985 . S
H1786 N1781 0.984 . S
H1787 N1781 0.985 . S
H1788 N1785 0.984 . S
H1789 N1785 0.985 . S
H1790 N1784 0.984 . S
H1791 N1784 0.984 . S
H1792 N1780 0.984 1_554 S
H1793 N1780 0.985 . S
C1794 C1795 1.363 . S
C1794 C1800 1.379 . S
C1794 N1802 1.356 . S
C1795 C1794 1.363 . S
C1795 C1801 1.363 . S
C1796 C1797 1.363 . S
C1796 C1801 1.379 . S
C1796 N1803 1.356 . S
C1797 C1796 1.363 . S
C1797 C1800 1.363 . S
N1798 C1800 1.356 . S
N1798 H1810 0.984 . S
N1798 H1811 0.985 . S
N1799 C1801 1.356 . S
N1799 H1804 0.984 . S
N1799 H1805 0.985 . S
C1800 C1794 1.379 . S
C1800 C1797 1.363 . S
C1800 N1798 1.356 . S
C1801 C1795 1.363 . S
C1801 C1796 1.379 . S
C1801 N1799 1.356 . S
N1802 C1794 1.356 . S
N1802 H1808 0.984 . S
N1802 H1809 0.984 . S
N1803 C1796 1.356 . S
N1803 H1806 0.984 . S
N1803 H1807 0.985 . S
H1804 N1799 0.984 . S
H1805 N1799 0.985 . S
H1806 N1803 0.984 . S
H1807 N1803 0.985 . S
H1808 N1802 0.984 . S
H1809 N1802 0.984 . S
H1810 N1798 0.984 . S
H1811 N1798 0.985 . S
C1812 C1813 1.363 . S
C1812 C1818 1.379 . S
C1812 N1820 1.356 . S
C1813 C1812 1.363 . S
C1813 C1819 1.363 . S
C1814 C1815 1.363 . S
C1814 C1819 1.379 . S
C1814 N1821 1.356 . S
C1815 C1814 1.363 . S
C1815 C1818 1.363 . S
N1816 C1818 1.356 . S
N1816 H1828 0.984 . S
N1816 H1829 0.985 . S
N1817 C1819 1.356 . S
N1817 H1822 0.984 . S
N1817 H1823 0.985 . S
C1818 C1812 1.379 . S
C1818 C1815 1.363 . S
C1818 N1816 1.356 . S
C1819 C1813 1.363 . S
C1819 C1814 1.379 . S
C1819 N1817 1.356 . S
N1820 C1812 1.356 . S
N1820 H1826 0.984 . S
N1820 H1827 0.984 . S
N1821 C1814 1.356 . S
N1821 H1824 0.984 . S
N1821 H1825 0.985 . S
H1822 N1817 0.984 . S
H1823 N1817 0.985 . S
H1824 N1821 0.984 . S
H1825 N1821 0.985 . S
H1826 N1820 0.984 . S
H1827 N1820 0.984 . S
H1828 N1816 0.984 . S
H1829 N1816 0.985 . S
C1830 C1831 1.363 . S
C1830 C1836 1.379 . S
C1830 N1838 1.356 . S
C1831 C1830 1.363 . S
C1831 C1837 1.363 . S
C1832 C1833 1.363 . S
C1832 C1837 1.379 . S
C1832 N1839 1.356 1_554 S
C1833 C1832 1.363 . S
C1833 C1836 1.363 . S
N1834 C1836 1.356 . S
N1834 H1846 0.984 . S
N1834 H1847 0.985 . S
N1835 C1837 1.356 . S
N1835 H1840 0.984 . S
N1835 H1841 0.985 1_554 S
C1836 C1830 1.379 . S
C1836 C1833 1.363 . S
C1836 N1834 1.356 . S
C1837 C1831 1.363 . S
C1837 C1832 1.379 . S
C1837 N1835 1.356 . S
N1838 C1830 1.356 . S
N1838 H1844 0.984 . S
N1838 H1845 0.984 . S
N1839 C1832 1.356 1_556 S
N1839 H1842 0.984 . S
N1839 H1843 0.985 . S
H1840 N1835 0.984 . S
H1841 N1835 0.985 1_556 S
H1842 N1839 0.984 . S
H1843 N1839 0.985 . S
H1844 N1838 0.984 . S
H1845 N1838 0.984 . S
H1846 N1834 0.984 . S
H1847 N1834 0.985 . S
C1848 C1849 1.363 . S
C1848 C1854 1.379 . S
C1848 N1856 1.356 1_554 S
C1849 C1848 1.363 . S
C1849 C1855 1.363 . S
C1850 C1851 1.363 . S
C1850 C1855 1.379 . S
C1850 N1857 1.356 . S
C1851 C1850 1.363 . S
C1851 C1854 1.363 . S
N1852 C1854 1.356 . S
N1852 H1864 0.984 1_554 S
N1852 H1865 0.985 . S
N1853 C1855 1.356 . S
N1853 H1858 0.984 . S
N1853 H1859 0.985 . S
C1854 C1848 1.379 . S
C1854 C1851 1.363 . S
C1854 N1852 1.356 . S
C1855 C1849 1.363 . S
C1855 C1850 1.379 . S
C1855 N1853 1.356 . S
N1856 C1848 1.356 1_556 S
N1856 H1862 0.984 . S
N1856 H1863 0.984 . S
N1857 C1850 1.356 . S
N1857 H1860 0.984 . S
N1857 H1861 0.985 . S
H1858 N1853 0.984 . S
H1859 N1853 0.985 . S
H1860 N1857 0.984 . S
H1861 N1857 0.985 . S
H1862 N1856 0.984 . S
H1863 N1856 0.984 . S
H1864 N1852 0.984 1_556 S
H1865 N1852 0.985 . S
C1866 C1867 1.363 . S
C1866 C1872 1.379 . S
C1866 N1874 1.356 . S
C1867 C1866 1.363 . S
C1867 C1873 1.363 . S
C1868 C1869 1.363 . S
C1868 C1873 1.379 . S
C1868 N1875 1.356 1_556 S
C1869 C1868 1.363 . S
C1869 C1872 1.363 . S
N1870 C1872 1.356 . S
N1870 H1882 0.984 . S
N1870 H1883 0.985 . S
N1871 C1873 1.356 . S
N1871 H1876 0.984 . S
N1871 H1877 0.985 1_556 S
C1872 C1866 1.379 . S
C1872 C1869 1.363 . S
C1872 N1870 1.356 . S
C1873 C1867 1.363 . S
C1873 C1868 1.379 . S
C1873 N1871 1.356 . S
N1874 C1866 1.356 . S
N1874 H1880 0.984 . S
N1874 H1881 0.984 . S
N1875 C1868 1.356 1_554 S
N1875 H1878 0.984 . S
N1875 H1879 0.985 . S
H1876 N1871 0.984 . S
H1877 N1871 0.985 1_554 S
H1878 N1875 0.984 . S
H1879 N1875 0.985 . S
H1880 N1874 0.984 . S
H1881 N1874 0.984 . S
H1882 N1870 0.984 . S
H1883 N1870 0.985 . S
C1884 C1885 1.363 . S
C1884 C1890 1.379 . S
C1884 N1892 1.356 . S
C1885 C1884 1.363 . S
C1885 C1891 1.363 . S
C1886 C1887 1.363 . S
C1886 C1891 1.379 . S
C1886 N1893 1.356 . S
C1887 C1886 1.363 . S
C1887 C1890 1.363 . S
N1888 C1890 1.356 . S
N1888 H1900 0.984 . S
N1888 H1901 0.985 . S
N1889 C1891 1.356 . S
N1889 H1894 0.984 . S
N1889 H1895 0.985 . S
C1890 C1884 1.379 . S
C1890 C1887 1.363 . S
C1890 N1888 1.356 . S
C1891 C1885 1.363 . S
C1891 C1886 1.379 . S
C1891 N1889 1.356 . S
N1892 C1884 1.356 . S
N1892 H1898 0.984 . S
N1892 H1899 0.984 . S
N1893 C1886 1.356 . S
N1893 H1896 0.984 . S
N1893 H1897 0.985 . S
H1894 N1889 0.984 . S
H1895 N1889 0.985 . S
H1896 N1893 0.984 . S
H1897 N1893 0.985 . S
H1898 N1892 0.984 . S
H1899 N1892 0.984 . S
H1900 N1888 0.984 . S
H1901 N1888 0.985 . S
C1902 C1903 1.363 . S
C1902 C1908 1.379 . S
C1902 N1910 1.356 . S
C1903 C1902 1.363 . S
C1903 C1909 1.363 . S
C1904 C1905 1.363 . S
C1904 C1909 1.379 . S
C1904 N1911 1.356 . S
C1905 C1904 1.363 . S
C1905 C1908 1.363 . S
N1906 C1908 1.356 . S
N1906 H1918 0.984 . S
N1906 H1919 0.985 . S
N1907 C1909 1.356 . S
N1907 H1912 0.984 . S
N1907 H1913 0.985 . S
C1908 C1902 1.379 . S
C1908 C1905 1.363 . S
C1908 N1906 1.356 . S
C1909 C1903 1.363 . S
C1909 C1904 1.379 . S
C1909 N1907 1.356 . S
N1910 C1902 1.356 . S
N1910 H1916 0.984 . S
N1910 H1917 0.984 . S
N1911 C1904 1.356 . S
N1911 H1914 0.984 . S
N1911 H1915 0.985 . S
H1912 N1907 0.984 . S
H1913 N1907 0.985 . S
H1914 N1911 0.984 . S
H1915 N1911 0.985 . S
H1916 N1910 0.984 . S
H1917 N1910 0.984 . S
H1918 N1906 0.984 . S
H1919 N1906 0.985 . S
C1920 C1921 1.363 . S
C1920 C1926 1.379 . S
C1920 N1928 1.356 . S
C1921 C1920 1.363 . S
C1921 C1927 1.363 1_556 S
C1922 C1923 1.363 . S
C1922 C1927 1.379 . S
C1922 N1929 1.356 . S
C1923 C1922 1.363 . S
C1923 C1926 1.363 1_554 S
N1924 C1926 1.356 . S
N1924 H1936 0.984 . S
N1924 H1937 0.985 . S
N1925 C1927 1.356 . S
N1925 H1930 0.984 . S
N1925 H1931 0.985 . S
C1926 C1920 1.379 . S
C1926 C1923 1.363 1_556 S
C1926 N1924 1.356 . S
C1927 C1921 1.363 1_554 S
C1927 C1922 1.379 . S
C1927 N1925 1.356 . S
N1928 C1920 1.356 . S
N1928 H1934 0.984 . S
N1928 H1935 0.984 . S
N1929 C1922 1.356 . S
N1929 H1932 0.984 . S
N1929 H1933 0.985 . S
H1930 N1925 0.984 . S
H1931 N1925 0.985 . S
H1932 N1929 0.984 . S
H1933 N1929 0.985 . S
H1934 N1928 0.984 . S
H1935 N1928 0.984 . S
H1936 N1924 0.984 . S
H1937 N1924 0.985 . S
C1938 C1939 1.363 . S
C1938 C1944 1.379 . S
C1938 N1946 1.356 . S
C1939 C1938 1.363 . S
C1939 C1945 1.363 . S
C1940 C1941 1.363 . S
C1940 C1945 1.379 . S
C1940 N1947 1.356 . S
C1941 C1940 1.363 . S
C1941 C1944 1.363 . S
N1942 C1944 1.356 . S
N1942 H1954 0.984 . S
N1942 H1955 0.985 . S
N1943 C1945 1.356 . S
N1943 H1948 0.984 . S
N1943 H1949 0.985 . S
C1944 C1938 1.379 . S
C1944 C1941 1.363 . S
C1944 N1942 1.356 . S
C1945 C1939 1.363 . S
C1945 C1940 1.379 . S
C1945 N1943 1.356 . S
N1946 C1938 1.356 . S
N1946 H1952 0.984 . S
N1946 H1953 0.984 . S
N1947 C1940 1.356 . S
N1947 H1950 0.984 . S
N1947 H1951 0.985 . S
H1948 N1943 0.984 . S
H1949 N1943 0.985 . S
H1950 N1947 0.984 . S
H1951 N1947 0.985 . S
H1952 N1946 0.984 . S
H1953 N1946 0.984 . S
H1954 N1942 0.984 . S
H1955 N1942 0.985 . S
C1956 C1957 1.363 . S
C1956 C1962 1.379 . S
C1956 N1964 1.356 . S
C1957 C1956 1.363 . S
C1957 C1963 1.363 . S
C1958 C1959 1.363 . S
C1958 C1963 1.379 . S
C1958 N1965 1.356 . S
C1959 C1958 1.363 . S
C1959 C1962 1.363 . S
N1960 C1962 1.356 . S
N1960 H1972 0.984 . S
N1960 H1973 0.985 . S
N1961 C1963 1.356 . S
N1961 H1966 0.984 . S
N1961 H1967 0.985 . S
C1962 C1956 1.379 . S
C1962 C1959 1.363 . S
C1962 N1960 1.356 . S
C1963 C1957 1.363 . S
C1963 C1958 1.379 . S
C1963 N1961 1.356 . S
N1964 C1956 1.356 . S
N1964 H1970 0.984 . S
N1964 H1971 0.984 . S
N1965 C1958 1.356 . S
N1965 H1968 0.984 . S
N1965 H1969 0.985 . S
H1966 N1961 0.984 . S
H1967 N1961 0.985 . S
H1968 N1965 0.984 . S
H1969 N1965 0.985 . S
H1970 N1964 0.984 . S
H1971 N1964 0.984 . S
H1972 N1960 0.984 . S
H1973 N1960 0.985 . S
C1974 C1975 1.363 . S
C1974 C1980 1.379 . S
C1974 N1982 1.356 . S
C1975 C1974 1.363 . S
C1975 C1981 1.363 . S
C1976 C1977 1.363 . S
C1976 C1981 1.379 . S
C1976 N1983 1.356 . S
C1977 C1976 1.363 . S
C1977 C1980 1.363 . S
N1978 C1980 1.356 . S
N1978 H1990 0.984 . S
N1978 H1991 0.985 . S
N1979 C1981 1.356 . S
N1979 H1984 0.984 . S
N1979 H1985 0.985 . S
C1980 C1974 1.379 . S
C1980 C1977 1.363 . S
C1980 N1978 1.356 . S
C1981 C1975 1.363 . S
C1981 C1976 1.379 . S
C1981 N1979 1.356 . S
N1982 C1974 1.356 . S
N1982 H1988 0.984 . S
N1982 H1989 0.984 . S
N1983 C1976 1.356 . S
N1983 H1986 0.984 . S
N1983 H1987 0.985 . S
H1984 N1979 0.984 . S
H1985 N1979 0.985 . S
H1986 N1983 0.984 . S
H1987 N1983 0.985 . S
H1988 N1982 0.984 . S
H1989 N1982 0.984 . S
H1990 N1978 0.984 . S
H1991 N1978 0.985 . S
C1992 C1993 1.363 1_554 S
C1992 C1998 1.379 . S
C1992 N2000 1.356 . S
C1993 C1992 1.363 1_556 S
C1993 C1999 1.363 . S
C1994 C1995 1.363 1_556 S
C1994 C1999 1.379 . S
C1994 N2001 1.356 . S
C1995 C1994 1.363 1_554 S
C1995 C1998 1.363 . S
N1996 C1998 1.356 . S
N1996 H2008 0.984 . S
N1996 H2009 0.985 . S
N1997 C1999 1.356 . S
N1997 H2002 0.984 . S
N1997 H2003 0.985 . S
C1998 C1992 1.379 . S
C1998 C1995 1.363 . S
C1998 N1996 1.356 . S
C1999 C1993 1.363 . S
C1999 C1994 1.379 . S
C1999 N1997 1.356 . S
N2000 C1992 1.356 . S
N2000 H2006 0.984 . S
N2000 H2007 0.984 . S
N2001 C1994 1.356 . S
N2001 H2004 0.984 . S
N2001 H2005 0.985 . S
H2002 N1997 0.984 . S
H2003 N1997 0.985 . S
H2004 N2001 0.984 . S
H2005 N2001 0.985 . S
H2006 N2000 0.984 . S
H2007 N2000 0.984 . S
H2008 N1996 0.984 . S
H2009 N1996 0.985 . S
C2010 C2011 1.363 . S
C2010 C2016 1.379 . S
C2010 N2018 1.356 . S
C2011 C2010 1.363 . S
C2011 C2017 1.363 . S
C2012 C2013 1.363 . S
C2012 C2017 1.379 . S
C2012 N2019 1.356 . S
C2013 C2012 1.363 . S
C2013 C2016 1.363 . S
N2014 C2016 1.356 . S
N2014 H2026 0.984 . S
N2014 H2027 0.985 . S
N2015 C2017 1.356 . S
N2015 H2020 0.984 . S
N2015 H2021 0.985 . S
C2016 C2010 1.379 . S
C2016 C2013 1.363 . S
C2016 N2014 1.356 . S
C2017 C2011 1.363 . S
C2017 C2012 1.379 . S
C2017 N2015 1.356 . S
N2018 C2010 1.356 . S
N2018 H2024 0.984 . S
N2018 H2025 0.984 . S
N2019 C2012 1.356 . S
N2019 H2022 0.984 . S
N2019 H2023 0.985 . S
H2020 N2015 0.984 . S
H2021 N2015 0.985 . S
H2022 N2019 0.984 . S
H2023 N2019 0.985 . S
H2024 N2018 0.984 . S
H2025 N2018 0.984 . S
H2026 N2014 0.984 . S
H2027 N2014 0.985 . S
C2028 C2029 1.363 . S
C2028 C2034 1.379 . S
C2028 N2036 1.356 . S
C2029 C2028 1.363 . S
C2029 C2035 1.363 . S
C2030 C2031 1.363 . S
C2030 C2035 1.379 . S
C2030 N2037 1.356 . S
C2031 C2030 1.363 . S
C2031 C2034 1.363 . S
N2032 C2034 1.356 . S
N2032 H2044 0.984 . S
N2032 H2045 0.985 . S
N2033 C2035 1.356 . S
N2033 H2038 0.984 . S
N2033 H2039 0.985 . S
C2034 C2028 1.379 . S
C2034 C2031 1.363 . S
C2034 N2032 1.356 . S
C2035 C2029 1.363 . S
C2035 C2030 1.379 . S
C2035 N2033 1.356 . S
N2036 C2028 1.356 . S
N2036 H2042 0.984 . S
N2036 H2043 0.984 . S
N2037 C2030 1.356 . S
N2037 H2040 0.984 . S
N2037 H2041 0.985 . S
H2038 N2033 0.984 . S
H2039 N2033 0.985 . S
H2040 N2037 0.984 . S
H2041 N2037 0.985 . S
H2042 N2036 0.984 . S
H2043 N2036 0.984 . S
H2044 N2032 0.984 . S
H2045 N2032 0.985 . S
C2046 C2047 1.363 . S
C2046 C2052 1.379 . S
C2046 N2054 1.356 . S
C2047 C2046 1.363 . S
C2047 C2053 1.363 . S
C2048 C2049 1.363 . S
C2048 C2053 1.379 . S
C2048 N2055 1.356 . S
C2049 C2048 1.363 . S
C2049 C2052 1.363 . S
N2050 C2052 1.356 . S
N2050 H2062 0.984 . S
N2050 H2063 0.985 . S
N2051 C2053 1.356 . S
N2051 H2056 0.984 . S
N2051 H2057 0.985 . S
C2052 C2046 1.379 . S
C2052 C2049 1.363 . S
C2052 N2050 1.356 . S
C2053 C2047 1.363 . S
C2053 C2048 1.379 . S
C2053 N2051 1.356 . S
N2054 C2046 1.356 . S
N2054 H2060 0.984 . S
N2054 H2061 0.984 . S
N2055 C2048 1.356 . S
N2055 H2058 0.984 . S
N2055 H2059 0.985 . S
H2056 N2051 0.984 . S
H2057 N2051 0.985 . S
H2058 N2055 0.984 . S
H2059 N2055 0.985 . S
H2060 N2054 0.984 . S
H2061 N2054 0.984 . S
H2062 N2050 0.984 . S
H2063 N2050 0.985 . S
C2064 C2065 1.363 . S
C2064 C2070 1.379 1_565 S
C2064 N2072 1.356 . S
C2065 C2064 1.363 . S
C2065 C2071 1.363 . S
C2066 C2067 1.363 . S
C2066 C2071 1.379 1_545 S
C2066 N2073 1.356 . S
C2067 C2066 1.363 . S
C2067 C2070 1.363 . S
N2068 C2070 1.356 . S
N2068 H2080 0.984 . S
N2068 H2081 0.985 . S
N2069 C2071 1.356 . S
N2069 H2074 0.984 . S
N2069 H2075 0.985 . S
C2070 C2064 1.379 1_545 S
C2070 C2067 1.363 . S
C2070 N2068 1.356 . S
C2071 C2065 1.363 . S
C2071 C2066 1.379 1_565 S
C2071 N2069 1.356 . S
N2072 C2064 1.356 . S
N2072 H2078 0.984 . S
N2072 H2079 0.984 . S
N2073 C2066 1.356 . S
N2073 H2076 0.984 . S
N2073 H2077 0.985 . S
H2074 N2069 0.984 . S
H2075 N2069 0.985 . S
H2076 N2073 0.984 . S
H2077 N2073 0.985 . S
H2078 N2072 0.984 . S
H2079 N2072 0.984 . S
H2080 N2068 0.984 . S
H2081 N2068 0.985 . S
C2082 C2083 1.363 . S
C2082 C2088 1.379 . S
C2082 N2090 1.356 . S
C2083 C2082 1.363 . S
C2083 C2089 1.363 . S
C2084 C2085 1.363 . S
C2084 C2089 1.379 . S
C2084 N2091 1.356 . S
C2085 C2084 1.363 . S
C2085 C2088 1.363 . S
N2086 C2088 1.356 . S
N2086 H2098 0.984 . S
N2086 H2099 0.985 . S
N2087 C2089 1.356 . S
N2087 H2092 0.984 . S
N2087 H2093 0.985 . S
C2088 C2082 1.379 . S
C2088 C2085 1.363 . S
C2088 N2086 1.356 . S
C2089 C2083 1.363 . S
C2089 C2084 1.379 . S
C2089 N2087 1.356 . S
N2090 C2082 1.356 . S
N2090 H2096 0.984 . S
N2090 H2097 0.984 . S
N2091 C2084 1.356 . S
N2091 H2094 0.984 . S
N2091 H2095 0.985 . S
H2092 N2087 0.984 . S
H2093 N2087 0.985 . S
H2094 N2091 0.984 . S
H2095 N2091 0.985 . S
H2096 N2090 0.984 . S
H2097 N2090 0.984 . S
H2098 N2086 0.984 . S
H2099 N2086 0.985 . S
C2100 C2101 1.363 1_556 S
C2100 C2106 1.379 1_565 S
C2100 N2108 1.356 . S
C2101 C2100 1.363 1_554 S
C2101 C2107 1.363 . S
C2102 C2103 1.363 1_554 S
C2102 C2107 1.379 1_545 S
C2102 N2109 1.356 . S
C2103 C2102 1.363 1_556 S
C2103 C2106 1.363 . S
N2104 C2106 1.356 . S
N2104 H2116 0.984 . S
N2104 H2117 0.985 . S
N2105 C2107 1.356 . S
N2105 H2110 0.984 . S
N2105 H2111 0.985 . S
C2106 C2100 1.379 1_545 S
C2106 C2103 1.363 . S
C2106 N2104 1.356 . S
C2107 C2101 1.363 . S
C2107 C2102 1.379 1_565 S
C2107 N2105 1.356 . S
N2108 C2100 1.356 . S
N2108 H2114 0.984 . S
N2108 H2115 0.984 . S
N2109 C2102 1.356 . S
N2109 H2112 0.984 . S
N2109 H2113 0.985 . S
H2110 N2105 0.984 . S
H2111 N2105 0.985 . S
H2112 N2109 0.984 . S
H2113 N2109 0.985 . S
H2114 N2108 0.984 . S
H2115 N2108 0.984 . S
H2116 N2104 0.984 . S
H2117 N2104 0.985 . S
C2118 C2119 1.363 . S
C2118 C2124 1.379 . S
C2118 N2126 1.356 . S
C2119 C2118 1.363 . S
C2119 C2125 1.363 . S
C2120 C2121 1.363 . S
C2120 C2125 1.379 . S
C2120 N2127 1.356 . S
C2121 C2120 1.363 . S
C2121 C2124 1.363 . S
N2122 C2124 1.356 . S
N2122 H2134 0.984 . S
N2122 H2135 0.985 . S
N2123 C2125 1.356 . S
N2123 H2128 0.984 . S
N2123 H2129 0.985 . S
C2124 C2118 1.379 . S
C2124 C2121 1.363 . S
C2124 N2122 1.356 . S
C2125 C2119 1.363 . S
C2125 C2120 1.379 . S
C2125 N2123 1.356 . S
N2126 C2118 1.356 . S
N2126 H2132 0.984 . S
N2126 H2133 0.984 . S
N2127 C2120 1.356 . S
N2127 H2130 0.984 . S
N2127 H2131 0.985 . S
H2128 N2123 0.984 . S
H2129 N2123 0.985 . S
H2130 N2127 0.984 . S
H2131 N2127 0.985 . S
H2132 N2126 0.984 . S
H2133 N2126 0.984 . S
H2134 N2122 0.984 . S
H2135 N2122 0.985 . S
C2136 C2137 1.363 . S
C2136 C2142 1.379 1_545 S
C2136 N2144 1.356 . S
C2137 C2136 1.363 . S
C2137 C2143 1.363 . S
C2138 C2139 1.363 . S
C2138 C2143 1.379 1_565 S
C2138 N2145 1.356 . S
C2139 C2138 1.363 . S
C2139 C2142 1.363 . S
N2140 C2142 1.356 . S
N2140 H2152 0.984 . S
N2140 H2153 0.985 . S
N2141 C2143 1.356 . S
N2141 H2146 0.984 . S
N2141 H2147 0.985 . S
C2142 C2136 1.379 1_565 S
C2142 C2139 1.363 . S
C2142 N2140 1.356 . S
C2143 C2137 1.363 . S
C2143 C2138 1.379 1_545 S
C2143 N2141 1.356 . S
N2144 C2136 1.356 . S
N2144 H2150 0.984 . S
N2144 H2151 0.984 . S
N2145 C2138 1.356 . S
N2145 H2148 0.984 . S
N2145 H2149 0.985 . S
H2146 N2141 0.984 . S
H2147 N2141 0.985 . S
H2148 N2145 0.984 . S
H2149 N2145 0.985 . S
H2150 N2144 0.984 . S
H2151 N2144 0.984 . S
H2152 N2140 0.984 . S
H2153 N2140 0.985 . S
C2154 C2155 1.363 . S
C2154 C2160 1.379 . S
C2154 N2162 1.356 . S
C2155 C2154 1.363 . S
C2155 C2161 1.363 . S
C2156 C2157 1.363 . S
C2156 C2161 1.379 . S
C2156 N2163 1.356 . S
C2157 C2156 1.363 . S
C2157 C2160 1.363 . S
N2158 C2160 1.356 . S
N2158 H2170 0.984 . S
N2158 H2171 0.985 . S
N2159 C2161 1.356 . S
N2159 H2164 0.984 . S
N2159 H2165 0.985 . S
C2160 C2154 1.379 . S
C2160 C2157 1.363 . S
C2160 N2158 1.356 . S
C2161 C2155 1.363 . S
C2161 C2156 1.379 . S
C2161 N2159 1.356 . S
N2162 C2154 1.356 . S
N2162 H2168 0.984 . S
N2162 H2169 0.984 . S
N2163 C2156 1.356 . S
N2163 H2166 0.984 . S
N2163 H2167 0.985 . S
H2164 N2159 0.984 . S
H2165 N2159 0.985 . S
H2166 N2163 0.984 . S
H2167 N2163 0.985 . S
H2168 N2162 0.984 . S
H2169 N2162 0.984 . S
H2170 N2158 0.984 . S
H2171 N2158 0.985 . S
C2172 C2173 1.363 1_556 S
C2172 C2178 1.379 1_565 S
C2172 N2180 1.356 . S
C2173 C2172 1.363 1_554 S
C2173 C2179 1.363 . S
C2174 C2175 1.363 1_554 S
C2174 C2179 1.379 1_545 S
C2174 N2181 1.356 . S
C2175 C2174 1.363 1_556 S
C2175 C2178 1.363 . S
N2176 C2178 1.356 . S
N2176 H2188 0.984 . S
N2176 H2189 0.985 . S
N2177 C2179 1.356 . S
N2177 H2182 0.984 . S
N2177 H2183 0.985 . S
C2178 C2172 1.379 1_545 S
C2178 C2175 1.363 . S
C2178 N2176 1.356 . S
C2179 C2173 1.363 . S
C2179 C2174 1.379 1_565 S
C2179 N2177 1.356 . S
N2180 C2172 1.356 . S
N2180 H2186 0.984 . S
N2180 H2187 0.984 . S
N2181 C2174 1.356 . S
N2181 H2184 0.984 . S
N2181 H2185 0.985 . S
H2182 N2177 0.984 . S
H2183 N2177 0.985 . S
H2184 N2181 0.984 . S
H2185 N2181 0.985 . S
H2186 N2180 0.984 . S
H2187 N2180 0.984 . S
H2188 N2176 0.984 . S
H2189 N2176 0.985 . S
C2190 C2191 1.363 . S
C2190 C2196 1.379 . S
C2190 N2198 1.356 . S
C2191 C2190 1.363 . S
C2191 C2197 1.363 . S
C2192 C2193 1.363 . S
C2192 C2197 1.379 . S
C2192 N2199 1.356 . S
C2193 C2192 1.363 . S
C2193 C2196 1.363 . S
N2194 C2196 1.356 . S
N2194 H2206 0.984 . S
N2194 H2207 0.985 . S
N2195 C2197 1.356 . S
N2195 H2200 0.984 . S
N2195 H2201 0.985 . S
C2196 C2190 1.379 . S
C2196 C2193 1.363 . S
C2196 N2194 1.356 . S
C2197 C2191 1.363 . S
C2197 C2192 1.379 . S
C2197 N2195 1.356 . S
N2198 C2190 1.356 . S
N2198 H2204 0.984 . S
N2198 H2205 0.984 . S
N2199 C2192 1.356 . S
N2199 H2202 0.984 . S
N2199 H2203 0.985 . S
H2200 N2195 0.984 . S
H2201 N2195 0.985 . S
H2202 N2199 0.984 . S
H2203 N2199 0.985 . S
H2204 N2198 0.984 . S
H2205 N2198 0.984 . S
H2206 N2194 0.984 . S
H2207 N2194 0.985 . S
C2208 C2209 1.363 . S
C2208 C2214 1.379 1_455 S
C2208 N2216 1.356 . S
C2209 C2208 1.363 . S
C2209 C2215 1.363 1_554 S
C2210 C2211 1.363 1_556 S
C2210 C2215 1.379 1_655 S
C2210 N2217 1.356 . S
C2211 C2210 1.363 1_554 S
C2211 C2214 1.363 . S
N2212 C2214 1.356 . S
N2212 H2224 0.984 . S
N2212 H2225 0.985 . S
N2213 C2215 1.356 . S
N2213 H2218 0.984 . S
N2213 H2219 0.985 . S
C2214 C2208 1.379 1_655 S
C2214 C2211 1.363 . S
C2214 N2212 1.356 . S
C2215 C2209 1.363 1_556 S
C2215 C2210 1.379 1_455 S
C2215 N2213 1.356 . S
N2216 C2208 1.356 . S
N2216 H2222 0.984 . S
N2216 H2223 0.984 . S
N2217 C2210 1.356 . S
N2217 H2220 0.984 . S
N2217 H2221 0.985 . S
H2218 N2213 0.984 . S
H2219 N2213 0.985 . S
H2220 N2217 0.984 . S
H2221 N2217 0.985 . S
H2222 N2216 0.984 . S
H2223 N2216 0.984 . S
H2224 N2212 0.984 . S
H2225 N2212 0.985 . S
C2226 C2227 1.363 . S
C2226 C2232 1.379 . S
C2226 N2234 1.356 . S
C2227 C2226 1.363 . S
C2227 C2233 1.363 . S
C2228 C2229 1.363 . S
C2228 C2233 1.379 . S
C2228 N2235 1.356 . S
C2229 C2228 1.363 . S
C2229 C2232 1.363 . S
N2230 C2232 1.356 . S
N2230 H2242 0.984 . S
N2230 H2243 0.985 . S
N2231 C2233 1.356 . S
N2231 H2236 0.984 . S
N2231 H2237 0.985 . S
C2232 C2226 1.379 . S
C2232 C2229 1.363 . S
C2232 N2230 1.356 . S
C2233 C2227 1.363 . S
C2233 C2228 1.379 . S
C2233 N2231 1.356 . S
N2234 C2226 1.356 . S
N2234 H2240 0.984 . S
N2234 H2241 0.984 . S
N2235 C2228 1.356 . S
N2235 H2238 0.984 . S
N2235 H2239 0.985 . S
H2236 N2231 0.984 . S
H2237 N2231 0.985 . S
H2238 N2235 0.984 . S
H2239 N2235 0.985 . S
H2240 N2234 0.984 . S
H2241 N2234 0.984 . S
H2242 N2230 0.984 . S
H2243 N2230 0.985 . S
C2244 C2245 1.363 . S
C2244 C2250 1.379 . S
C2244 N2252 1.356 . S
C2245 C2244 1.363 . S
C2245 C2251 1.363 . S
C2246 C2247 1.363 . S
C2246 C2251 1.379 . S
C2246 N2253 1.356 . S
C2247 C2246 1.363 . S
C2247 C2250 1.363 . S
N2248 C2250 1.356 . S
N2248 H2260 0.984 . S
N2248 H2261 0.985 . S
N2249 C2251 1.356 . S
N2249 H2254 0.984 . S
N2249 H2255 0.985 . S
C2250 C2244 1.379 . S
C2250 C2247 1.363 . S
C2250 N2248 1.356 . S
C2251 C2245 1.363 . S
C2251 C2246 1.379 . S
C2251 N2249 1.356 . S
N2252 C2244 1.356 . S
N2252 H2258 0.984 . S
N2252 H2259 0.984 . S
N2253 C2246 1.356 . S
N2253 H2256 0.984 . S
N2253 H2257 0.985 . S
H2254 N2249 0.984 . S
H2255 N2249 0.985 . S
H2256 N2253 0.984 . S
H2257 N2253 0.985 . S
H2258 N2252 0.984 . S
H2259 N2252 0.984 . S
H2260 N2248 0.984 . S
H2261 N2248 0.985 . S
C2262 C2263 1.363 . S
C2262 C2268 1.379 . S
C2262 N2270 1.356 . S
C2263 C2262 1.363 . S
C2263 C2269 1.363 . S
C2264 C2265 1.363 . S
C2264 C2269 1.379 . S
C2264 N2271 1.356 . S
C2265 C2264 1.363 . S
C2265 C2268 1.363 . S
N2266 C2268 1.356 . S
N2266 H2278 0.984 . S
N2266 H2279 0.985 . S
N2267 C2269 1.356 . S
N2267 H2272 0.984 . S
N2267 H2273 0.985 . S
C2268 C2262 1.379 . S
C2268 C2265 1.363 . S
C2268 N2266 1.356 . S
C2269 C2263 1.363 . S
C2269 C2264 1.379 . S
C2269 N2267 1.356 . S
N2270 C2262 1.356 . S
N2270 H2276 0.984 . S
N2270 H2277 0.984 . S
N2271 C2264 1.356 . S
N2271 H2274 0.984 . S
N2271 H2275 0.985 . S
H2272 N2267 0.984 . S
H2273 N2267 0.985 . S
H2274 N2271 0.984 . S
H2275 N2271 0.985 . S
H2276 N2270 0.984 . S
H2277 N2270 0.984 . S
H2278 N2266 0.984 . S
H2279 N2266 0.985 . S
C2280 C2281 1.363 1_554 S
C2280 C2286 1.379 1_655 S
C2280 N2288 1.356 . S
C2281 C2280 1.363 1_556 S
C2281 C2287 1.363 . S
C2282 C2283 1.363 . S
C2282 C2287 1.379 1_455 S
C2282 N2289 1.356 . S
C2283 C2282 1.363 . S
C2283 C2286 1.363 1_556 S
N2284 C2286 1.356 . S
N2284 H2296 0.984 . S
N2284 H2297 0.985 . S
N2285 C2287 1.356 . S
N2285 H2290 0.984 . S
N2285 H2291 0.985 . S
C2286 C2280 1.379 1_455 S
C2286 C2283 1.363 1_554 S
C2286 N2284 1.356 . S
C2287 C2281 1.363 . S
C2287 C2282 1.379 1_655 S
C2287 N2285 1.356 . S
N2288 C2280 1.356 . S
N2288 H2294 0.984 . S
N2288 H2295 0.984 . S
N2289 C2282 1.356 . S
N2289 H2292 0.984 . S
N2289 H2293 0.985 . S
H2290 N2285 0.984 . S
H2291 N2285 0.985 . S
H2292 N2289 0.984 . S
H2293 N2289 0.985 . S
H2294 N2288 0.984 . S
H2295 N2288 0.984 . S
H2296 N2284 0.984 . S
H2297 N2284 0.985 . S
C2298 C2299 1.363 . S
C2298 C2304 1.379 . S
C2298 N2306 1.356 . S
C2299 C2298 1.363 . S
C2299 C2305 1.363 . S
C2300 C2301 1.363 . S
C2300 C2305 1.379 . S
C2300 N2307 1.356 . S
C2301 C2300 1.363 . S
C2301 C2304 1.363 . S
N2302 C2304 1.356 . S
N2302 H2314 0.984 . S
N2302 H2315 0.985 . S
N2303 C2305 1.356 . S
N2303 H2308 0.984 . S
N2303 H2309 0.985 . S
C2304 C2298 1.379 . S
C2304 C2301 1.363 . S
C2304 N2302 1.356 . S
C2305 C2299 1.363 . S
C2305 C2300 1.379 . S
C2305 N2303 1.356 . S
N2306 C2298 1.356 . S
N2306 H2312 0.984 . S
N2306 H2313 0.984 . S
N2307 C2300 1.356 . S
N2307 H2310 0.984 . S
N2307 H2311 0.985 . S
H2308 N2303 0.984 . S
H2309 N2303 0.985 . S
H2310 N2307 0.984 . S
H2311 N2307 0.985 . S
H2312 N2306 0.984 . S
H2313 N2306 0.984 . S
H2314 N2302 0.984 . S
H2315 N2302 0.985 . S
C2316 C2317 1.363 . S
C2316 C2322 1.379 . S
C2316 N2324 1.356 . S
C2317 C2316 1.363 . S
C2317 C2323 1.363 . S
C2318 C2319 1.363 . S
C2318 C2323 1.379 . S
C2318 N2325 1.356 . S
C2319 C2318 1.363 . S
C2319 C2322 1.363 . S
N2320 C2322 1.356 . S
N2320 H2332 0.984 . S
N2320 H2333 0.985 . S
N2321 C2323 1.356 . S
N2321 H2326 0.984 . S
N2321 H2327 0.985 . S
C2322 C2316 1.379 . S
C2322 C2319 1.363 . S
C2322 N2320 1.356 . S
C2323 C2317 1.363 . S
C2323 C2318 1.379 . S
C2323 N2321 1.356 . S
N2324 C2316 1.356 . S
N2324 H2330 0.984 . S
N2324 H2331 0.984 . S
N2325 C2318 1.356 . S
N2325 H2328 0.984 . S
N2325 H2329 0.985 . S
H2326 N2321 0.984 . S
H2327 N2321 0.985 . S
H2328 N2325 0.984 . S
H2329 N2325 0.985 . S
H2330 N2324 0.984 . S
H2331 N2324 0.984 . S
H2332 N2320 0.984 . S
H2333 N2320 0.985 . S
C2334 C2335 1.363 . S
C2334 C2340 1.379 . S
C2334 N2342 1.356 . S
C2335 C2334 1.363 . S
C2335 C2341 1.363 . S
C2336 C2337 1.363 . S
C2336 C2341 1.379 . S
C2336 N2343 1.356 . S
C2337 C2336 1.363 . S
C2337 C2340 1.363 . S
N2338 C2340 1.356 . S
N2338 H2350 0.984 . S
N2338 H2351 0.985 . S
N2339 C2341 1.356 . S
N2339 H2344 0.984 . S
N2339 H2345 0.985 . S
C2340 C2334 1.379 . S
C2340 C2337 1.363 . S
C2340 N2338 1.356 . S
C2341 C2335 1.363 . S
C2341 C2336 1.379 . S
C2341 N2339 1.356 . S
N2342 C2334 1.356 . S
N2342 H2348 0.984 . S
N2342 H2349 0.984 . S
N2343 C2336 1.356 . S
N2343 H2346 0.984 . S
N2343 H2347 0.985 . S
H2344 N2339 0.984 . S
H2345 N2339 0.985 . S
H2346 N2343 0.984 . S
H2347 N2343 0.985 . S
H2348 N2342 0.984 . S
H2349 N2342 0.984 . S
H2350 N2338 0.984 . S
H2351 N2338 0.985 . S
C2352 C2353 1.363 . S
C2352 C2358 1.379 . S
C2352 N2360 1.356 . S
C2353 C2352 1.363 . S
C2353 C2359 1.363 . S
C2354 C2355 1.363 . S
C2354 C2359 1.379 . S
C2354 N2361 1.356 . S
C2355 C2354 1.363 . S
C2355 C2358 1.363 . S
N2356 C2358 1.356 . S
N2356 H2368 0.984 . S
N2356 H2369 0.985 . S
N2357 C2359 1.356 . S
N2357 H2362 0.984 . S
N2357 H2363 0.985 . S
C2358 C2352 1.379 . S
C2358 C2355 1.363 . S
C2358 N2356 1.356 . S
C2359 C2353 1.363 . S
C2359 C2354 1.379 . S
C2359 N2357 1.356 . S
N2360 C2352 1.356 . S
N2360 H2366 0.984 . S
N2360 H2367 0.984 . S
N2361 C2354 1.356 . S
N2361 H2364 0.984 . S
N2361 H2365 0.985 . S
H2362 N2357 0.984 . S
H2363 N2357 0.985 . S
H2364 N2361 0.984 . S
H2365 N2361 0.985 . S
H2366 N2360 0.984 . S
H2367 N2360 0.984 . S
H2368 N2356 0.984 . S
H2369 N2356 0.985 . S
C2370 C2371 1.363 . S
C2370 C2376 1.379 . S
C2370 N2378 1.356 . S
C2371 C2370 1.363 . S
C2371 C2377 1.363 . S
C2372 C2373 1.363 . S
C2372 C2377 1.379 . S
C2372 N2379 1.356 . S
C2373 C2372 1.363 . S
C2373 C2376 1.363 . S
N2374 C2376 1.356 . S
N2374 H2386 0.984 . S
N2374 H2387 0.985 . S
N2375 C2377 1.356 . S
N2375 H2380 0.984 . S
N2375 H2381 0.985 . S
C2376 C2370 1.379 . S
C2376 C2373 1.363 . S
C2376 N2374 1.356 . S
C2377 C2371 1.363 . S
C2377 C2372 1.379 . S
C2377 N2375 1.356 . S
N2378 C2370 1.356 . S
N2378 H2384 0.984 . S
N2378 H2385 0.984 . S
N2379 C2372 1.356 . S
N2379 H2382 0.984 . S
N2379 H2383 0.985 . S
H2380 N2375 0.984 . S
H2381 N2375 0.985 . S
H2382 N2379 0.984 . S
H2383 N2379 0.985 . S
H2384 N2378 0.984 . S
H2385 N2378 0.984 . S
H2386 N2374 0.984 . S
H2387 N2374 0.985 . S
C2388 C2389 1.363 . S
C2388 C2394 1.379 . S
C2388 N2396 1.356 . S
C2389 C2388 1.363 . S
C2389 C2395 1.363 . S
C2390 C2391 1.363 . S
C2390 C2395 1.379 . S
C2390 N2397 1.356 . S
C2391 C2390 1.363 . S
C2391 C2394 1.363 . S
N2392 C2394 1.356 . S
N2392 H2404 0.984 . S
N2392 H2405 0.985 . S
N2393 C2395 1.356 . S
N2393 H2398 0.984 . S
N2393 H2399 0.985 . S
C2394 C2388 1.379 . S
C2394 C2391 1.363 . S
C2394 N2392 1.356 . S
C2395 C2389 1.363 . S
C2395 C2390 1.379 . S
C2395 N2393 1.356 . S
N2396 C2388 1.356 . S
N2396 H2402 0.984 . S
N2396 H2403 0.984 . S
N2397 C2390 1.356 . S
N2397 H2400 0.984 . S
N2397 H2401 0.985 . S
H2398 N2393 0.984 . S
H2399 N2393 0.985 . S
H2400 N2397 0.984 . S
H2401 N2397 0.985 . S
H2402 N2396 0.984 . S
H2403 N2396 0.984 . S
H2404 N2392 0.984 . S
H2405 N2392 0.985 . S
C2406 C2407 1.363 . S
C2406 C2412 1.379 . S
C2406 N2414 1.356 . S
C2407 C2406 1.363 . S
C2407 C2413 1.363 . S
C2408 C2409 1.363 . S
C2408 C2413 1.379 . S
C2408 N2415 1.356 . S
C2409 C2408 1.363 . S
C2409 C2412 1.363 . S
N2410 C2412 1.356 . S
N2410 H2422 0.984 . S
N2410 H2423 0.985 . S
N2411 C2413 1.356 . S
N2411 H2416 0.984 . S
N2411 H2417 0.985 . S
C2412 C2406 1.379 . S
C2412 C2409 1.363 . S
C2412 N2410 1.356 . S
C2413 C2407 1.363 . S
C2413 C2408 1.379 . S
C2413 N2411 1.356 . S
N2414 C2406 1.356 . S
N2414 H2420 0.984 . S
N2414 H2421 0.984 . S
N2415 C2408 1.356 . S
N2415 H2418 0.984 . S
N2415 H2419 0.985 . S
H2416 N2411 0.984 . S
H2417 N2411 0.985 . S
H2418 N2415 0.984 . S
H2419 N2415 0.985 . S
H2420 N2414 0.984 . S
H2421 N2414 0.984 . S
H2422 N2410 0.984 . S
H2423 N2410 0.985 . S
C2424 C2425 1.363 . S
C2424 C2430 1.379 . S
C2424 N2432 1.356 . S
C2425 C2424 1.363 . S
C2425 C2431 1.363 . S
C2426 C2427 1.363 . S
C2426 C2431 1.379 . S
C2426 N2433 1.356 . S
C2427 C2426 1.363 . S
C2427 C2430 1.363 . S
N2428 C2430 1.356 . S
N2428 H2440 0.984 . S
N2428 H2441 0.985 . S
N2429 C2431 1.356 . S
N2429 H2434 0.984 . S
N2429 H2435 0.985 . S
C2430 C2424 1.379 . S
C2430 C2427 1.363 . S
C2430 N2428 1.356 . S
C2431 C2425 1.363 . S
C2431 C2426 1.379 . S
C2431 N2429 1.356 . S
N2432 C2424 1.356 . S
N2432 H2438 0.984 . S
N2432 H2439 0.984 . S
N2433 C2426 1.356 . S
N2433 H2436 0.984 . S
N2433 H2437 0.985 . S
H2434 N2429 0.984 . S
H2435 N2429 0.985 . S
H2436 N2433 0.984 . S
H2437 N2433 0.985 . S
H2438 N2432 0.984 . S
H2439 N2432 0.984 . S
H2440 N2428 0.984 . S
H2441 N2428 0.985 . S
C2442 C2443 1.363 . S
C2442 C2448 1.379 1_455 S
C2442 N2450 1.356 1_554 S
C2443 C2442 1.363 . S
C2443 C2449 1.363 . S
C2444 C2445 1.363 . S
C2444 C2449 1.379 1_655 S
C2444 N2451 1.356 . S
C2445 C2444 1.363 . S
C2445 C2448 1.363 . S
N2446 C2448 1.356 1_556 S
N2446 H2458 0.984 . S
N2446 H2459 0.986 . S
N2447 C2449 1.356 . S
N2447 H2452 0.984 . S
N2447 H2453 0.985 . S
C2448 C2442 1.379 1_655 S
C2448 C2445 1.363 . S
C2448 N2446 1.356 1_554 S
C2449 C2443 1.363 . S
C2449 C2444 1.379 1_455 S
C2449 N2447 1.356 . S
N2450 C2442 1.356 1_556 S
N2450 H2456 0.984 . S
N2450 H2457 0.986 . S
N2451 C2444 1.356 . S
N2451 H2454 0.984 . S
N2451 H2455 0.985 . S
H2452 N2447 0.984 . S
H2453 N2447 0.985 . S
H2454 N2451 0.984 . S
H2455 N2451 0.985 . S
H2456 N2450 0.984 . S
H2457 N2450 0.986 . S
H2458 N2446 0.984 . S
H2459 N2446 0.986 . S
C2460 C2461 1.363 . S
C2460 C2466 1.379 . S
C2460 N2468 1.356 . S
C2461 C2460 1.363 . S
C2461 C2467 1.363 . S
C2462 C2463 1.363 . S
C2462 C2467 1.379 . S
C2462 N2469 1.356 . S
C2463 C2462 1.363 . S
C2463 C2466 1.363 . S
N2464 C2466 1.356 . S
N2464 H2476 0.984 . S
N2464 H2477 0.985 . S
N2465 C2467 1.356 . S
N2465 H2470 0.984 . S
N2465 H2471 0.985 . S
C2466 C2460 1.379 . S
C2466 C2463 1.363 . S
C2466 N2464 1.356 . S
C2467 C2461 1.363 . S
C2467 C2462 1.379 . S
C2467 N2465 1.356 . S
N2468 C2460 1.356 . S
N2468 H2474 0.984 . S
N2468 H2475 0.984 . S
N2469 C2462 1.356 . S
N2469 H2472 0.984 . S
N2469 H2473 0.985 . S
H2470 N2465 0.984 . S
H2471 N2465 0.985 . S
H2472 N2469 0.984 . S
H2473 N2469 0.985 . S
H2474 N2468 0.984 . S
H2475 N2468 0.984 . S
H2476 N2464 0.984 . S
H2477 N2464 0.985 . S
C2478 C2479 1.363 . S
C2478 C2484 1.379 1_455 S
C2478 N2486 1.356 . S
C2479 C2478 1.363 . S
C2479 C2485 1.363 1_556 S
C2480 C2481 1.363 1_554 S
C2480 C2485 1.379 1_655 S
C2480 N2487 1.356 . S
C2481 C2480 1.363 1_556 S
C2481 C2484 1.363 . S
N2482 C2484 1.356 . S
N2482 H2494 0.984 . S
N2482 H2495 0.985 . S
N2483 C2485 1.356 . S
N2483 H2488 0.984 . S
N2483 H2489 0.985 . S
C2484 C2478 1.379 1_655 S
C2484 C2481 1.363 . S
C2484 N2482 1.356 . S
C2485 C2479 1.363 1_554 S
C2485 C2480 1.379 1_455 S
C2485 N2483 1.356 . S
N2486 C2478 1.356 . S
N2486 H2492 0.984 . S
N2486 H2493 0.984 . S
N2487 C2480 1.356 . S
N2487 H2490 0.984 . S
N2487 H2491 0.985 . S
H2488 N2483 0.984 . S
H2489 N2483 0.985 . S
H2490 N2487 0.984 . S
H2491 N2487 0.985 . S
H2492 N2486 0.984 . S
H2493 N2486 0.984 . S
H2494 N2482 0.984 . S
H2495 N2482 0.985 . S
C1057 N2 1.468 . S
C1059 N13 1.470 . S
C1075 N46 1.470 . S
C1077 N35 1.468 1_556 S
C1093 N79 1.470 . S
C1095 N68 1.468 . S
C1111 N112 1.470 . S
C1113 N101 1.468 . S
C1129 N145 1.470 . S
C1131 N134 1.468 . S
C1147 N178 1.470 . S
C1149 N167 1.468 . S
C1165 N200 1.468 . S
C1167 N211 1.470 . S
C1183 N233 1.468 1_554 S
C1185 N244 1.470 . S
C1201 N266 1.468 . S
C1203 N277 1.470 . S
C1219 N299 1.468 1_554 S
C1221 N310 1.470 . S
C1237 N332 1.468 . S
C1239 N343 1.470 . S
C1255 N376 1.470 . S
C1257 N365 1.468 . S
C1273 N398 1.468 . S
C1275 N409 1.470 . S
C1291 N431 1.468 . S
C1293 N442 1.470 . S
C1309 N475 1.470 . S
C1311 N464 1.468 . S
C1327 N497 1.468 1_556 S
C1329 N508 1.470 . S
C1345 N541 1.470 . S
C1347 N530 1.468 . S
C1363 N574 1.470 . S
C1365 N563 1.468 . S
C1381 N607 1.470 . S
C1383 N596 1.468 . S
C1399 N640 1.470 . S
C1401 N629 1.468 1_556 S
C1417 N673 1.470 . S
C1419 N662 1.468 . S
C1435 N706 1.470 . S
C1437 N695 1.468 1_554 S
C1453 N739 1.470 . S
C1455 N728 1.468 . S
C1471 N761 1.468 . S
C1473 N772 1.470 . S
C1489 N805 1.470 . S
C1491 N794 1.468 . S
C1507 N838 1.470 . S
C1509 N827 1.468 . S
C1525 N871 1.470 . S
C1527 N860 1.468 . S
C1543 N893 1.468 1_554 S
C1545 N904 1.470 . S
C1561 N926 1.468 . S
C1563 N937 1.470 . S
C1579 N959 1.468 1_556 S
C1581 N970 1.470 . S
C1597 N1003 1.470 . S
C1599 N992 1.468 . S
C1615 N1025 1.468 . S
C1617 N1036 1.470 . S
C1633 C777 1.172 . S
C1635 C18 1.172 . S
C1651 C678 1.172 . S
C1653 C51 1.172 . S
C1669 C711 1.172 . S
C1671 C84 1.172 . S
C1687 C744 1.172 . S
C1689 C117 1.172 . S
C1705 C579 1.172 . S
C1707 C150 1.172 . S
C1723 C612 1.172 . S
C1725 C183 1.172 . S
C1741 C645 1.172 . S
C1743 C216 1.172 . S
C1759 C546 1.172 . S
C1761 C249 1.172 . S
C1777 C1041 1.172 . S
C1779 C282 1.172 . S
C1795 C942 1.172 . S
C1797 C315 1.172 . S
C1813 C348 1.172 . S
C1815 C975 1.172 . S
C1831 C381 1.172 . S
C1833 C1008 1.172 . S
C1849 C414 1.172 . S
C1851 C843 1.172 . S
C1867 C447 1.172 . S
C1869 C876 1.172 . S
C1885 C480 1.172 . S
C1887 C909 1.172 . S
C1903 C810 1.172 . S
C1905 C513 1.172 . S
C1921 C139 1.462 . S
C1923 C7 1.462 . S
C1939 C40 1.462 . S
C1941 C172 1.462 . S
C1957 C205 1.462 . S
C1959 C73 1.462 . S
C1975 C106 1.462 . S
C1977 C238 1.462 . S
C1993 C271 1.462 . S
C1995 C403 1.462 . S
C2011 C436 1.462 . S
C2013 C304 1.462 . S
C2029 C469 1.462 . S
C2031 C337 1.462 . S
C2047 C502 1.462 . S
C2049 C370 1.462 . S
C2065 C667 1.462 . S
C2067 C535 1.462 . S
C2083 C568 1.462 . S
C2085 C700 1.462 . S
C2101 C601 1.462 . S
C2103 C733 1.462 . S
C2119 C634 1.462 . S
C2121 C766 1.462 . S
C2137 C931 1.462 . S
C2139 C799 1.462 . S
C2155 C964 1.462 . S
C2157 C832 1.462 . S
C2173 C997 1.462 . S
C2175 C865 1.462 . S
C2191 C898 1.462 . S
C2193 C1030 1.462 . S
C2209 C21 1.500 . S
C2211 C417 1.500 . S
C2227 C978 1.500 . S
C2229 C54 1.500 . S
C2245 C87 1.500 . S
C2247 C483 1.500 . S
C2263 C1044 1.500 . S
C2265 C120 1.500 . S
C2281 C285 1.500 . S
C2283 C153 1.500 . S
C2299 C186 1.500 . S
C2301 C846 1.500 . S
C2317 C219 1.500 . S
C2319 C351 1.500 . S
C2335 C252 1.500 . S
C2337 C912 1.500 . S
C2353 C714 1.500 . S
C2355 C318 1.500 . S
C2371 C780 1.500 . S
C2373 C384 1.500 . S
C2389 C582 1.500 . S
C2391 C450 1.500 . S
C2407 C648 1.500 . S
C2409 C516 1.500 . S
C2425 C549 1.500 . S
C2427 C945 1.500 . S
C2443 C1011 1.500 . S
C2445 C615 1.500 . S
C2461 C681 1.500 . S
C2463 C813 1.500 . S
C2479 C879 1.500 . S
C2481 C747 1.500 . S
