# Generated by pormake.
# Topology vcj, (7)-cn, num edge types: 1
# Building blocks:
#     Node 0, Type 0, BuildingBlock: HICVOG_clean_sbu_0, # of connection points: 7
#     Node 1, Type 0, BuildingBlock: HICVOG_clean_sbu_0, # of connection points: 7
#     Node 2, Type 0, BuildingBlock: HICVOG_clean_sbu_0, # of connection points: 7
#     Node 3, Type 0, BuildingBlock: HICVOG_clean_sbu_0, # of connection points: 7
#     Node 4, Type 0, BuildingBlock: HICVOG_clean_sbu_0, # of connection points: 7
#     Node 5, Type 0, BuildingBlock: HICVOG_clean_sbu_0, # of connection points: 7
#     Node 6, Type 0, BuildingBlock: HICVOG_clean_sbu_0, # of connection points: 7
#     Node 7, Type 0, BuildingBlock: HICVOG_clean_sbu_0, # of connection points: 7
#     Edge 8, Type (0, 0), BuildingBlock: ZUJKAS_clean_linker_0, # of connection points: 2
#     Edge 9, Type (0, 0), BuildingBlock: ZUJKAS_clean_linker_0, # of connection points: 2
#     Edge 10, Type (0, 0), BuildingBlock: ZUJKAS_clean_linker_0, # of connection points: 2
#     Edge 11, Type (0, 0), BuildingBlock: ZUJKAS_clean_linker_0, # of connection points: 2
#     Edge 12, Type (0, 0), BuildingBlock: ZUJKAS_clean_linker_0, # of connection points: 2
#     Edge 13, Type (0, 0), BuildingBlock: ZUJKAS_clean_linker_0, # of connection points: 2
#     Edge 14, Type (0, 0), BuildingBlock: ZUJKAS_clean_linker_0, # of connection points: 2
#     Edge 15, Type (0, 0), BuildingBlock: ZUJKAS_clean_linker_0, # of connection points: 2
#     Edge 16, Type (0, 0), BuildingBlock: ZUJKAS_clean_linker_0, # of connection points: 2
#     Edge 17, Type (0, 0), BuildingBlock: ZUJKAS_clean_linker_0, # of connection points: 2
#     Edge 18, Type (0, 0), BuildingBlock: ZUJKAS_clean_linker_0, # of connection points: 2
#     Edge 19, Type (0, 0), BuildingBlock: ZUJKAS_clean_linker_0, # of connection points: 2
#     Edge 20, Type (0, 0), BuildingBlock: ZUJKAS_clean_linker_0, # of connection points: 2
#     Edge 21, Type (0, 0), BuildingBlock: ZUJKAS_clean_linker_0, # of connection points: 2
#     Edge 22, Type (0, 0), BuildingBlock: ZUJKAS_clean_linker_0, # of connection points: 2
#     Edge 23, Type (0, 0), BuildingBlock: ZUJKAS_clean_linker_0, # of connection points: 2
#     Edge 24, Type (0, 0), BuildingBlock: ZUJKAS_clean_linker_0, # of connection points: 2
#     Edge 25, Type (0, 0), BuildingBlock: ZUJKAS_clean_linker_0, # of connection points: 2
#     Edge 26, Type (0, 0), BuildingBlock: ZUJKAS_clean_linker_0, # of connection points: 2
#     Edge 27, Type (0, 0), BuildingBlock: ZUJKAS_clean_linker_0, # of connection points: 2
#     Edge 28, Type (0, 0), BuildingBlock: ZUJKAS_clean_linker_0, # of connection points: 2
#     Edge 29, Type (0, 0), BuildingBlock: ZUJKAS_clean_linker_0, # of connection points: 2
#     Edge 30, Type (0, 0), BuildingBlock: ZUJKAS_clean_linker_0, # of connection points: 2
#     Edge 31, Type (0, 0), BuildingBlock: ZUJKAS_clean_linker_0, # of connection points: 2
#     Edge 32, Type (0, 0), BuildingBlock: ZUJKAS_clean_linker_0, # of connection points: 2
#     Edge 33, Type (0, 0), BuildingBlock: ZUJKAS_clean_linker_0, # of connection points: 2
#     Edge 34, Type (0, 0), BuildingBlock: ZUJKAS_clean_linker_0, # of connection points: 2
#     Edge 35, Type (0, 0), BuildingBlock: ZUJKAS_clean_linker_0, # of connection points: 2
# Relax obj value: 0.117
# Max RMSD: 0.191
# Mean RMSD: 0.191
data_MOF--net-vcj--node1-HICVOG_clean_sbu_0--edge1-ZUJKAS_clean_linker_0
_symmetry_space_group_name_H-M    P1
_symmetry_Int_Tables_number       1
_symmetry_cell_setting            triclinic
loop_
_symmetry_equiv_pos_as_xyz
'x, y, z'
_cell_length_a     44.331512
_cell_length_b     57.396777
_cell_length_c     27.874104
_cell_angle_alpha  90.000479
_cell_angle_beta   89.980941
_cell_angle_gamma 90.160423
loop_
_atom_site_label
_atom_site_type_symbol
_atom_site_fract_x
_atom_site_fract_y
_atom_site_fract_z
_atom_type_partial_charge
Zn0 Zn 0.34424 0.41888 0.25217 0.0
C1 C 0.39366 0.44762 0.14821 0.0
N2 N 0.37222 0.46405 0.15084 0.0
C3 C 0.35181 0.4544 0.18036 0.0
N4 N 0.36029 0.43299 0.19483 0.0
N5 N 0.38651 0.42843 0.17401 0.0
C6 C 0.46158 0.40192 0.19962 0.0
O7 O 0.44499 0.40182 0.23867 0.0
O8 O 0.29875 0.42139 0.25537 0.0
Zn9 Zn 0.40279 0.39735 0.16231 0.0
N10 N 0.36053 0.43667 0.30528 0.0
C11 C 0.40431 0.45072 0.34514 0.0
C12 C 0.39103 0.43837 0.3077 0.0
C13 C 0.34257 0.44692 0.33882 0.0
N14 N 0.38651 0.46082 0.3788 0.0
C15 C 0.35584 0.45933 0.37721 0.0
O16 O 0.393 0.37328 0.21434 0.0
C17 C 0.37561 0.37007 0.25026 0.0
O18 O 0.35717 0.38567 0.26411 0.0
H19 H 0.40484 0.4302 0.28058 0.0
H20 H 0.31839 0.44555 0.33491 0.0
C21 C 0.39512 0.36692 0.0768 0.0
C22 C 0.38023 0.36028 0.03383 0.0
C23 C 0.34755 0.39283 0.04256 0.0
C24 C 0.36199 0.39907 0.08478 0.0
N25 N 0.38562 0.38627 0.10121 0.0
N26 N 0.3569 0.37374 0.01841 0.0
H27 H 0.41394 0.35708 0.09071 0.0
C28 C 0.28088 0.40595 0.23908 0.0
O29 O 0.29213 0.38771 0.21697 0.0
O30 O 0.44847 0.40004 0.15917 0.0
H31 H 0.35407 0.41403 0.10437 0.0
H32 H 0.42859 0.45226 0.34752 0.0
H33 H 0.32881 0.40297 0.02919 0.0
Zn34 Zn 0.15675 0.60125 0.75385 0.0
C35 C 0.10573 0.57221 0.6533 0.0
N36 N 0.12726 0.55583 0.65496 0.0
C37 C 0.14879 0.56589 0.68178 0.0
N38 N 0.14075 0.58748 0.69587 0.0
N39 N 0.1139 0.59182 0.67699 0.0
C40 C 0.03903 0.61538 0.6973 0.0
O41 O 0.05486 0.61149 0.73628 0.0
O42 O 0.2023 0.59932 0.75699 0.0
Zn43 Zn 0.09837 0.62313 0.66448 0.0
N44 N 0.14096 0.58289 0.8067 0.0
C45 C 0.09758 0.56756 0.84593 0.0
C46 C 0.11061 0.57975 0.80797 0.0
C47 C 0.15904 0.57402 0.84173 0.0
N48 N 0.11548 0.55891 0.88114 0.0
C49 C 0.146 0.56163 0.88024 0.0
O50 O 0.10752 0.64701 0.71715 0.0
C51 C 0.12475 0.64994 0.75336 0.0
O52 O 0.14319 0.63425 0.76677 0.0
H53 H 0.09667 0.58686 0.77982 0.0
H54 H 0.18311 0.57708 0.8401 0.0
C55 C 0.11141 0.65583 0.5847 0.0
C56 C 0.12654 0.66242 0.54199 0.0
C57 C 0.14979 0.62517 0.53961 0.0
C58 C 0.13517 0.6189 0.58174 0.0
N59 N 0.11621 0.63416 0.60372 0.0
N60 N 0.14525 0.64664 0.521 0.0
H61 H 0.09671 0.66787 0.60321 0.0
C62 C 0.21953 0.61632 0.74657 0.0
O63 O 0.20758 0.6358 0.73083 0.0
O64 O 0.05289 0.62103 0.65905 0.0
H65 H 0.13937 0.60196 0.59688 0.0
H66 H 0.0734 0.56507 0.84754 0.0
H67 H 0.16491 0.61313 0.52199 0.0
Zn68 Zn 0.90701 0.12293 0.8672 0.0
C69 C 0.8547 0.0668 0.84669 0.0
N70 N 0.87646 0.0559 0.87151 0.0
C71 C 0.89835 0.07204 0.87403 0.0
N72 N 0.89022 0.09225 0.85283 0.0
N73 N 0.86303 0.08865 0.83452 0.0
C74 C 0.78786 0.11557 0.7458 0.0
O75 O 0.80413 0.12787 0.71554 0.0
O76 O 0.95214 0.11966 0.87427 0.0
Zn77 Zn 0.84677 0.10419 0.77866 0.0
N78 N 0.88917 0.13363 0.92793 0.0
C79 C 0.85522 0.12468 0.9916 0.0
C80 C 0.86876 0.1189 0.9483 0.0
C81 C 0.89621 0.15441 0.94931 0.0
N82 N 0.86233 0.14514 1.01297 0.0
C83 C 0.88238 0.16044 0.99338 0.0
O84 O 0.86171 0.13719 0.76798 0.0
C85 C 0.8819 0.15173 0.78088 0.0
O86 O 0.89991 0.14748 0.81545 0.0
H87 H 0.86291 0.10264 0.9313 0.0
H88 H 0.91258 0.16581 0.93254 0.0
C89 C 0.84288 0.07649 0.69043 0.0
C90 C 0.85574 0.06543 0.65011 0.0
C91 C 0.90453 0.07541 0.67894 0.0
C92 C 0.89169 0.08645 0.7184 0.0
N93 N 0.86124 0.08688 0.72339 0.0
N94 N 0.88634 0.06533 0.64574 0.0
H95 H 0.81869 0.07743 0.69493 0.0
C96 C 0.96592 0.11136 0.83813 0.0
O97 O 0.95019 0.10555 0.80006 0.0
O98 O 0.80123 0.10372 0.77789 0.0
H99 H 0.90578 0.09492 0.74473 0.0
H100 H 0.83909 0.113 1.00816 0.0
H101 H 0.92876 0.07504 0.67446 0.0
Zn102 Zn 0.65964 0.91778 0.27996 0.0
C103 C 0.60869 0.94794 0.37947 0.0
N104 N 0.63028 0.96433 0.37666 0.0
C105 C 0.65134 0.95413 0.34932 0.0
N106 N 0.64313 0.93239 0.33633 0.0
N107 N 0.61645 0.92819 0.35602 0.0
C108 C 0.54131 0.90118 0.32474 0.0
O109 O 0.55845 0.89925 0.28653 0.0
O110 O 0.70522 0.91916 0.27953 0.0
Zn111 Zn 0.59903 0.89735 0.36735 0.0
N112 N 0.64442 0.93546 0.22577 0.0
C113 C 0.60088 0.94706 0.18226 0.0
C114 C 0.61399 0.93524 0.22047 0.0
C115 C 0.66246 0.94726 0.19441 0.0
N116 N 0.6188 0.95849 0.15053 0.0
C117 C 0.6494 0.95896 0.15501 0.0
O118 O 0.60968 0.87251 0.31743 0.0
C119 C 0.62745 0.86907 0.28214 0.0
O120 O 0.64609 0.88462 0.26839 0.0
H121 H 0.6001 0.92592 0.24592 0.0
H122 H 0.6865 0.94762 0.20059 0.0
C123 C 0.60429 0.86564 0.45035 0.0
C124 C 0.61368 0.85999 0.49739 0.0
C125 C 0.63863 0.89652 0.50282 0.0
C126 C 0.62959 0.90195 0.45643 0.0
N127 N 0.6121 0.88676 0.43118 0.0
N128 N 0.63042 0.87583 0.52218 0.0
H129 H 0.59063 0.85364 0.42968 0.0
C130 C 0.71881 0.90991 0.24418 0.0
O131 O 0.70275 0.89957 0.21072 0.0
O132 O 0.55363 0.90069 0.36594 0.0
H133 H 0.63656 0.91828 0.44093 0.0
H134 H 0.57666 0.94705 0.17763 0.0
H135 H 0.6522 0.90865 0.52331 0.0
Zn136 Zn 0.59841 0.62309 0.86706 0.0
C137 C 0.64948 0.56626 0.84949 0.0
N138 N 0.62769 0.55604 0.87557 0.0
C139 C 0.60614 0.57237 0.87713 0.0
N140 N 0.61454 0.59209 0.85417 0.0
N141 N 0.64157 0.58796 0.83575 0.0
C142 C 0.71517 0.61098 0.73788 0.0
O143 O 0.69876 0.62175 0.70554 0.0
O144 O 0.55279 0.62035 0.86921 0.0
Zn145 Zn 0.65631 0.60126 0.77638 0.0
N146 N 0.61492 0.63364 0.92915 0.0
C147 C 0.6473 0.62398 0.99437 0.0
C148 C 0.63353 0.61818 0.9513 0.0
C149 C 0.6098 0.65514 0.94884 0.0
N150 N 0.64242 0.64526 1.01368 0.0
C151 C 0.62418 0.66127 0.99248 0.0
O152 O 0.64187 0.63401 0.76321 0.0
C153 C 0.62433 0.65001 0.77804 0.0
O154 O 0.60815 0.6474 0.81555 0.0
H155 H 0.63815 0.60145 0.93557 0.0
H156 H 0.5955 0.66738 0.93015 0.0
C157 C 0.65712 0.57206 0.69045 0.0
C158 C 0.64336 0.55786 0.65538 0.0
C159 C 0.59596 0.56392 0.6931 0.0
C160 C 0.60966 0.57805 0.7274 0.0
N161 N 0.63989 0.58183 0.72556 0.0
N162 N 0.61305 0.55416 0.65812 0.0
H163 H 0.68122 0.5749 0.6905 0.0
C164 C 0.54022 0.61794 0.82845 0.0
O165 O 0.55731 0.61752 0.78996 0.0
O166 O 0.70197 0.60079 0.77259 0.0
H167 H 0.59637 0.58582 0.75563 0.0
H168 H 0.66209 0.61176 1.01215 0.0
H169 H 0.57192 0.56067 0.69431 0.0
Zn170 Zn 0.90289 0.39714 0.36376 0.0
C171 C 0.85137 0.45413 0.35243 0.0
N172 N 0.87219 0.46329 0.38188 0.0
C173 C 0.89384 0.44702 0.38214 0.0
N174 N 0.8865 0.42839 0.35484 0.0
N175 N 0.85991 0.43313 0.33538 0.0
C176 C 0.78277 0.40542 0.27702 0.0
O177 O 0.79487 0.38581 0.29169 0.0
O178 O 0.94852 0.39975 0.3663 0.0
Zn179 Zn 0.84539 0.42097 0.27472 0.0
N180 N 0.88578 0.38492 0.42403 0.0
C181 C 0.84678 0.38992 0.48186 0.0
C182 C 0.86133 0.39686 0.44019 0.0
C183 C 0.89602 0.36571 0.44817 0.0
N184 N 0.85688 0.37099 0.50577 0.0
C185 C 0.88104 0.35837 0.49059 0.0
O186 O 0.85888 0.38817 0.25911 0.0
C187 C 0.87656 0.37199 0.27262 0.0
O188 O 0.89306 0.37414 0.30988 0.0
H189 H 0.85282 0.41168 0.4208 0.0
H190 H 0.91548 0.35653 0.43454 0.0
C191 C 0.84557 0.44983 0.18925 0.0
C192 C 0.85903 0.46496 0.15556 0.0
C193 C 0.90569 0.46129 0.19679 0.0
C194 C 0.89225 0.44636 0.22993 0.0
N195 N 0.86252 0.44098 0.22568 0.0
N196 N 0.88882 0.47028 0.16068 0.0
H197 H 0.82183 0.44555 0.18741 0.0
C198 C 0.96095 0.40366 0.32591 0.0
O199 O 0.9437 0.40553 0.2878 0.0
O200 O 0.79983 0.42284 0.26891 0.0
H201 H 0.90532 0.43929 0.25919 0.0
H202 H 0.8274 0.39939 0.49501 0.0
H203 H 0.92931 0.46583 0.19988 0.0
Zn204 Zn 0.15899 0.92008 0.25247 0.0
C205 C 0.1084 0.94799 0.15035 0.0
N206 N 0.13011 0.96433 0.15084 0.0
C207 C 0.15154 0.95463 0.17831 0.0
N208 N 0.14322 0.93331 0.19391 0.0
N209 N 0.11633 0.92878 0.17534 0.0
C210 C 0.04189 0.90626 0.19926 0.0
O211 O 0.05857 0.91007 0.23739 0.0
O212 O 0.20442 0.92192 0.25487 0.0
Zn213 Zn 0.10022 0.89754 0.16429 0.0
N214 N 0.14363 0.93907 0.30467 0.0
C215 C 0.10066 0.95579 0.34227 0.0
C216 C 0.11347 0.94308 0.30495 0.0
C217 C 0.16177 0.94763 0.34006 0.0
N218 N 0.11859 0.96413 0.37782 0.0
C219 C 0.14895 0.96059 0.3779 0.0
O220 O 0.10969 0.87388 0.21715 0.0
C221 C 0.12687 0.87123 0.25347 0.0
O222 O 0.14526 0.88709 0.26663 0.0
H223 H 0.09951 0.93629 0.27645 0.0
H224 H 0.18568 0.94394 0.33919 0.0
C225 C 0.10814 0.86607 0.0809 0.0
C226 C 0.12116 0.85993 0.03626 0.0
C227 C 0.15087 0.89443 0.03893 0.0
C228 C 0.13817 0.90031 0.0828 0.0
N229 N 0.1168 0.88632 0.10295 0.0
N230 N 0.14209 0.87455 0.01683 0.0
H231 H 0.09115 0.85516 0.0975 0.0
C232 C 0.22128 0.90478 0.24452 0.0
O233 O 0.2089 0.88526 0.22958 0.0
O234 O 0.05481 0.90011 0.16056 0.0
H235 H 0.14545 0.91605 0.10042 0.0
H236 H 0.07662 0.95897 0.34308 0.0
H237 H 0.1677 0.90556 0.02253 0.0
Zn238 Zn 0.4065 0.12308 0.65998 0.0
C239 C 0.35382 0.06714 0.68331 0.0
N240 N 0.37464 0.05626 0.65658 0.0
C241 C 0.39653 0.07235 0.65245 0.0
N242 N 0.38918 0.09255 0.67449 0.0
N243 N 0.36249 0.08899 0.69466 0.0
C244 C 0.28796 0.11342 0.78655 0.0
O245 O 0.30478 0.12424 0.8184 0.0
O246 O 0.45184 0.11966 0.65784 0.0
Zn247 Zn 0.34622 0.10509 0.74948 0.0
N248 N 0.39111 0.13293 0.59697 0.0
C249 C 0.36043 0.12284 0.52992 0.0
C250 C 0.37207 0.11769 0.57491 0.0
C251 C 0.39836 0.15372 0.57577 0.0
N252 N 0.36779 0.14329 0.50874 0.0
C253 C 0.38631 0.15916 0.5301 0.0
O254 O 0.35977 0.13852 0.75773 0.0
C255 C 0.37942 0.15319 0.74347 0.0
O256 O 0.39757 0.14856 0.70928 0.0
H257 H 0.36575 0.10156 0.59195 0.0
H258 H 0.41346 0.16561 0.594 0.0
C259 C 0.34388 0.07588 0.83533 0.0
C260 C 0.35671 0.0656 0.87659 0.0
C261 C 0.40437 0.08142 0.85432 0.0
C262 C 0.39141 0.09185 0.81431 0.0
N263 N 0.36153 0.08896 0.8056 0.0
N264 N 0.3868 0.06871 0.88442 0.0
H265 H 0.32035 0.07352 0.82653 0.0
C266 C 0.46495 0.11862 0.69835 0.0
O267 O 0.44851 0.11984 0.73745 0.0
O268 O 0.30075 0.10363 0.75108 0.0
H269 H 0.40496 0.10229 0.79028 0.0
H270 H 0.34548 0.11073 0.512 0.0
H271 H 0.42818 0.08356 0.86168 0.0
H272 H 0.33257 0.49693 0.20905 0.0
H273 H 0.28813 0.51664 0.17683 0.0
H274 H 0.25929 0.45217 0.11134 0.0
H275 H 0.30259 0.43236 0.14606 0.0
H276 H 0.28552 0.52265 0.08742 0.0
H277 H 0.17904 0.47885 0.13513 0.0
H278 H 0.2135 0.47356 0.16777 0.0
H279 H 0.20532 0.45771 0.11338 0.0
C280 C 0.31562 0.48673 0.19044 0.0
C281 C 0.32067 0.46311 0.18062 0.0
C282 C 0.29041 0.49804 0.17142 0.0
C283 C 0.27025 0.48603 0.14119 0.0
C284 C 0.27388 0.46186 0.13528 0.0
H285 H 0.20262 0.54214 0.87591 0.0
H286 H 0.23131 0.52481 0.94159 0.0
C287 C 0.29871 0.45044 0.15534 0.0
C288 C 0.24971 0.4993 0.10881 0.0
H289 H 0.17962 0.49887 0.05781 0.0
C290 C 0.26217 0.51768 0.08183 0.0
C291 C 0.21913 0.49311 0.10129 0.0
C292 C 0.20345 0.47489 0.1314 0.0
C293 C 0.24543 0.52938 0.04663 0.0
C294 C 0.21566 0.52196 0.03645 0.0
C295 C 0.20266 0.50428 0.06476 0.0
C296 C 0.19789 0.53214 0.99625 0.0
C297 C 0.25996 0.54968 0.02096 0.0
C298 C 0.16901 0.54128 1.00449 0.0
C299 C 0.15236 0.5509 0.96676 0.0
C300 C 0.1643 0.55178 0.92 0.0
C301 C 0.19308 0.54238 0.91168 0.0
C302 C 0.20954 0.53246 0.9493 0.0
H303 H 0.27772 0.55796 0.04339 0.0
H304 H 0.27091 0.54334 0.98764 0.0
H305 H 0.24311 0.56315 1.01122 0.0
H306 H 0.15941 0.54114 0.04024 0.0
H307 H 0.13019 0.55789 0.97432 0.0
H308 H 0.19863 0.59081 0.65753 0.0
H309 H 0.24325 0.5744 0.61855 0.0
H310 H 0.2125 0.50515 0.65354 0.0
H311 H 0.16803 0.52152 0.69297 0.0
H312 H 0.2811 0.51358 0.64856 0.0
H313 H 0.21278 0.54072 0.4904 0.0
H314 H 0.22132 0.56267 0.53449 0.0
H315 H 0.19694 0.53883 0.54992 0.0
C316 C 0.20239 0.5722 0.65972 0.0
C317 C 0.18006 0.55741 0.67871 0.0
C318 C 0.2277 0.56281 0.63681 0.0
C319 C 0.23087 0.53856 0.63258 0.0
C320 C 0.21046 0.52391 0.65648 0.0
H321 H 0.29666 0.45068 0.4062 0.0
H322 H 0.26849 0.47046 0.4691 0.0
C323 C 0.18514 0.53327 0.67924 0.0
C324 C 0.25133 0.52849 0.59604 0.0
H325 H 0.2574 0.52018 0.47503 0.0
C326 C 0.27621 0.5152 0.6106 0.0
C327 C 0.24445 0.53031 0.54658 0.0
C328 C 0.21734 0.54375 0.5291 0.0
C329 C 0.29444 0.50366 0.57678 0.0
C330 C 0.28748 0.50549 0.52736 0.0
C331 C 0.26268 0.51886 0.51293 0.0
C332 C 0.30514 0.49324 0.48987 0.0
C333 C 0.32047 0.48905 0.59409 0.0
C334 C 0.33503 0.49968 0.48026 0.0
C335 C 0.3512 0.48867 0.44364 0.0
C336 C 0.33782 0.47099 0.4156 0.0
C337 C 0.30777 0.46453 0.42571 0.0
C338 C 0.2916 0.47567 0.4622 0.0
H339 H 0.31946 0.48593 0.6334 0.0
H340 H 0.3208 0.47199 0.57531 0.0
H341 H 0.34197 0.49818 0.58589 0.0
H342 H 0.34576 0.51346 0.50067 0.0
H343 H 0.37418 0.49426 0.43706 0.0
H344 H 0.80583 0.09225 0.87328 0.0
H345 H 0.76168 0.07619 0.9145 0.0
H346 H 0.79006 1.00672 0.87741 0.0
H347 H 0.834 0.02273 0.8357 0.0
H348 H 0.72355 0.01405 0.88525 0.0
H349 H 0.79143 0.04388 0.04191 0.0
H350 H 0.78176 0.06563 0.99812 0.0
H351 H 0.80687 0.04242 0.98209 0.0
C352 C 0.80164 0.07367 0.87126 0.0
C353 C 0.82323 0.05871 0.85105 0.0
C354 C 0.77663 0.06448 0.89551 0.0
C355 C 0.773 0.04026 0.89983 0.0
C356 C 0.7925 0.02546 0.8746 0.0
H357 H 0.70966 0.953 0.12976 0.0
H358 H 0.7377 0.97356 0.06749 0.0
C359 C 0.8175 0.03463 0.8505 0.0
C360 C 0.75283 0.03025 0.93702 0.0
H361 H 0.747 0.02305 0.05841 0.0
C362 C 0.72838 0.01621 0.92312 0.0
C363 C 0.75967 0.03272 0.9864 0.0
C364 C 0.78645 0.04682 1.00331 0.0
C365 C 0.71056 1.00458 0.95744 0.0
C366 C 0.71741 1.00712 1.00678 0.0
C367 C 0.74177 0.02122 0.02058 0.0
C368 C 0.70012 0.9948 0.04475 0.0
C369 C 0.68512 0.98909 0.9407 0.0
C370 C 0.66979 1.00021 0.05322 0.0
C371 C 0.65369 0.98873 0.08938 0.0
C372 C 0.66757 0.97162 0.11812 0.0
C373 C 0.69815 0.96637 0.10955 0.0
C374 C 0.71425 0.97797 0.07347 0.0
H375 H 0.68655 0.98534 0.90166 0.0
H376 H 0.68514 0.97235 0.96065 0.0
H377 H 0.66329 0.99787 0.94777 0.0
H378 H 0.65859 0.01343 0.03204 0.0
H379 H 0.63028 0.99338 0.09486 0.0
H380 H 0.67058 0.99699 0.32265 0.0
H381 H 0.71432 0.01684 0.35723 0.0
H382 H 0.74333 0.95199 0.42032 0.0
H383 H 0.70058 0.93206 0.38352 0.0
H384 H 0.71533 0.02111 0.44842 0.0
H385 H 0.82349 0.98055 0.39848 0.0
H386 H 0.78932 0.97533 0.3649 0.0
H387 H 0.7973 0.95879 0.41837 0.0
C388 C 0.68743 0.98677 0.34128 0.0
C389 C 0.68248 0.963 0.35 0.0
C390 C 0.71223 0.99815 0.36163 0.0
C391 C 0.73215 0.98604 0.3919 0.0
C392 C 0.72882 0.96176 0.3965 0.0
H393 H 0.80101 0.04264 0.65812 0.0
H394 H 0.7721 0.02396 0.59404 0.0
C395 C 0.70435 0.95028 0.3752 0.0
C396 C 0.7521 0.99922 0.42543 0.0
H397 H 0.82249 1.00055 0.47529 0.0
C398 C 0.73892 0.01682 0.45355 0.0
C399 C 0.78292 0.99381 0.43241 0.0
C400 C 0.79911 0.97626 0.40151 0.0
C401 C 0.75532 0.02868 0.48903 0.0
C402 C 0.78556 0.02226 0.49811 0.0
C403 C 0.79913 1.00521 0.46902 0.0
C404 C 0.80344 0.03316 0.53743 0.0
C405 C 0.74 0.04814 0.51607 0.0
C406 C 0.8312 0.0439 0.52742 0.0
C407 C 0.84792 0.05439 0.56411 0.0
C408 C 0.83722 0.05451 0.61167 0.0
C409 C 0.80956 0.04348 0.62178 0.0
C410 C 0.793 0.03275 0.58509 0.0
H411 H 0.72108 0.05566 0.49507 0.0
H412 H 0.73049 0.04117 0.54999 0.0
H413 H 0.75611 0.06234 0.52495 0.0
H414 H 0.83982 0.04439 0.49106 0.0
H415 H 0.86917 0.06266 0.55506 0.0
H416 H 0.66729 0.52132 0.84571 0.0
H417 H 0.71224 0.50587 0.88473 0.0
H418 H 0.7469 0.57566 0.90183 0.0
H419 H 0.70102 0.59125 0.86533 0.0
H420 H 0.7735 0.50609 0.88268 0.0
H421 H 0.73144 0.55673 0.03906 0.0
H422 H 0.71037 0.55424 0.98407 0.0
H423 H 0.74173 0.57411 0.9881 0.0
C424 C 0.68508 0.53331 0.85596 0.0
C425 C 0.68067 0.55748 0.85238 0.0
C426 C 0.71075 0.52446 0.8785 0.0
C427 C 0.73247 0.53964 0.8977 0.0
C428 C 0.73001 0.56365 0.88844 0.0
H429 H 0.86834 0.50759 0.11547 0.0
H430 H 0.84046 0.52594 0.04989 0.0
C431 C 0.70407 0.57255 0.86647 0.0
C432 C 0.75467 0.53054 0.933 0.0
H433 H 0.77364 0.53302 0.05185 0.0
C434 C 0.77374 0.51214 0.91954 0.0
C435 C 0.75463 0.53817 0.98144 0.0
C436 C 0.73329 0.55673 0.99931 0.0
C437 C 0.79256 0.50112 0.95319 0.0
C438 C 0.79224 0.50866 1.00144 0.0
C439 C 0.77383 0.52738 0.0147 0.0
C440 C 0.81004 0.49691 0.03933 0.0
C441 C 0.81252 0.48136 0.93719 0.0
C442 C 0.80194 0.47457 0.05538 0.0
C443 C 0.81761 0.46409 0.09326 0.0
C444 C 0.84174 0.47579 0.11568 0.0
C445 C 0.84992 0.49808 0.099 0.0
C446 C 0.83405 0.50861 0.06152 0.0
H447 H 0.81435 0.48043 0.89748 0.0
H448 H 0.83548 0.48329 0.95266 0.0
H449 H 0.80296 0.46465 0.95034 0.0
H450 H 0.78323 0.46536 0.03898 0.0
H451 H 0.81102 0.44675 0.10448 0.0
H452 H 0.83431 0.49914 0.34752 0.0
H453 H 0.78924 0.51493 0.38561 0.0
H454 H 0.75335 0.44542 0.40123 0.0
H455 H 0.79943 0.42951 0.36585 0.0
H456 H 0.72815 0.5155 0.38329 0.0
H457 H 0.7686 0.46348 0.53884 0.0
H458 H 0.78989 0.46594 0.48402 0.0
H459 H 0.758 0.44654 0.48742 0.0
C460 C 0.81619 0.48731 0.35708 0.0
C461 C 0.82028 0.46312 0.35345 0.0
C462 C 0.79046 0.49634 0.37914 0.0
C463 C 0.76837 0.48131 0.3978 0.0
C464 C 0.77051 0.45731 0.38824 0.0
H465 H 0.63156 0.51614 0.61292 0.0
H466 H 0.65915 0.49726 0.54758 0.0
C467 C 0.79654 0.44823 0.36682 0.0
C468 C 0.74626 0.49053 0.43318 0.0
H469 H 0.72724 0.48797 0.55205 0.0
C470 C 0.72772 0.50931 0.42004 0.0
C471 C 0.74607 0.48272 0.48151 0.0
C472 C 0.76686 0.46373 0.49907 0.0
C473 C 0.7093 0.52057 0.45394 0.0
C474 C 0.70943 0.51285 0.50206 0.0
C475 C 0.72723 0.49374 0.51499 0.0
C476 C 0.69208 0.52485 0.54012 0.0
C477 C 0.69005 0.54082 0.43844 0.0
C478 C 0.70174 0.54651 0.55787 0.0
C479 C 0.68625 0.55726 0.59564 0.0
C480 C 0.66073 0.54653 0.61619 0.0
C481 C 0.65108 0.52489 0.59791 0.0
C482 C 0.66676 0.51407 0.56056 0.0
H483 H 0.68882 0.54236 0.39875 0.0
H484 H 0.66684 0.53895 0.45298 0.0
H485 H 0.69973 0.5572 0.45304 0.0
H486 H 0.72143 0.55498 0.54277 0.0
H487 H 0.69402 0.5741 0.60812 0.0
H488 H 0.37803 0.03419 0.94171 0.0
H489 H 0.35007 0.01261 1.00272 0.0
H490 H 0.26725 0.04395 0.9546 0.0
H491 H 0.29482 0.06609 0.89418 0.0
H492 H 0.31197 0.03135 0.0781 0.0
H493 H 0.25065 0.97228 0.95381 0.0
H494 H 0.28401 0.98826 0.93614 0.0
H495 H 0.24817 1.00271 0.93915 0.0
C496 C 0.35384 0.03655 0.94381 0.0
C497 C 0.33884 0.05175 0.91207 0.0
C498 C 0.33792 0.02415 0.97885 0.0
C499 C 0.30659 0.02648 0.98284 0.0
C500 C 0.29141 0.0416 0.95153 0.0
H501 H 0.17135 0.999 0.18769 0.0
H502 H 0.2161 0.01492 0.14827 0.0
C503 C 0.30732 0.05415 0.91659 0.0
C504 C 0.28976 0.01334 0.02016 0.0
H505 H 0.23408 0.97283 0.03487 0.0
C506 C 0.29513 0.01838 0.06876 0.0
C507 C 0.2682 0.99617 1.00793 0.0
C508 C 0.26251 0.98931 0.95646 0.0
C509 C 0.27847 1.0074 0.10537 0.0
C510 C 0.25586 0.99106 0.09295 0.0
C511 C 0.25145 0.98534 0.04444 0.0
C512 C 0.23437 0.98132 0.12865 0.0
C513 C 0.28494 0.01352 0.15695 0.0
C514 C 0.23046 0.9571 0.13283 0.0
C515 C 0.20494 0.94798 0.15583 0.0
C516 C 0.18291 0.96297 0.17461 0.0
C517 C 0.18833 0.98709 0.17441 0.0
C518 C 0.21389 0.99619 0.1517 0.0
H519 H 0.30813 0.0206 0.16134 0.0
H520 H 0.2688 0.02706 0.16895 0.0
H521 H 0.28223 0.99807 0.18059 0.0
H522 H 0.24586 0.94531 0.11501 0.0
H523 H 0.20087 0.92938 0.15406 0.0
H524 H 0.30587 0.08971 0.64623 0.0
H525 H 0.26275 0.07027 0.60965 0.0
H526 H 0.28828 1.00581 0.6781 0.0
H527 H 0.33259 0.02511 0.71221 0.0
H528 H 0.28723 0.99929 0.58859 0.0
H529 H 0.18128 0.04484 0.63031 0.0
H530 H 0.20863 0.06543 0.60919 0.0
H531 H 0.21529 0.04985 0.66439 0.0
C532 C 0.30128 0.07173 0.65569 0.0
C533 C 0.32237 0.05892 0.68232 0.0
C534 C 0.27656 0.06052 0.63454 0.0
C535 C 0.2721 0.03643 0.64079 0.0
C536 C 0.29124 0.02434 0.67237 0.0
H537 H 0.13228 0.96528 0.47139 0.0
H538 H 0.16132 0.98209 0.53755 0.0
C539 C 0.31636 0.03543 0.69247 0.0
C540 C 0.25176 0.02325 0.60776 0.0
H541 H 0.18252 0.02412 0.55394 0.0
C542 C 0.26412 1.00451 0.58187 0.0
C543 C 0.2215 0.02976 0.59876 0.0
C544 C 0.20587 0.04841 0.6276 0.0
C545 C 0.24761 0.99272 0.54641 0.0
C546 C 0.21819 1.0004 0.53483 0.0
C547 C 0.2053 0.01849 0.56197 0.0
C548 C 0.20066 0.99 0.49448 0.0
C549 C 0.26196 0.97203 0.52204 0.0
C550 C 0.21288 0.989 0.44794 0.0
C551 C 0.19652 0.97901 0.41018 0.0
C552 C 0.16727 0.97025 0.41793 0.0
C553 C 0.15481 0.97177 0.46427 0.0
C554 C 0.17136 0.98143 0.50214 0.0
H555 H 0.27916 0.96376 0.54543 0.0
H556 H 0.24489 0.95867 0.51221 0.0
H557 H 0.27354 0.97794 0.4889 0.0
H558 H 0.23501 0.99619 0.44062 0.0
H559 H 0.20648 0.97875 0.37471 0.0
H560 H 0.45207 0.45487 0.17345 0.0
H561 H 0.4889 0.47619 0.12419 0.0
H562 H 0.42928 0.47105 1.00241 0.0
H563 H 0.39241 0.45011 0.05178 0.0
H564 H 0.51925 0.47105 0.03441 0.0
H565 H 0.43362 0.54147 0.02894 0.0
H566 H 0.43036 0.51665 0.06837 0.0
H567 H 0.42085 0.51394 1.00593 0.0
C568 C 0.44759 0.4573 0.13557 0.0
C569 C 0.41967 0.45066 0.11611 0.0
C570 C 0.46841 0.46976 0.1076 0.0
C571 C 0.46139 0.47583 0.06003 0.0
C572 C 0.43485 0.46703 0.03932 0.0
H573 H 0.54866 0.56441 0.84752 0.0
H574 H 0.51083 0.54258 0.89395 0.0
C575 C 0.41405 0.45471 0.06727 0.0
C576 C 0.48017 0.49313 0.03371 0.0
H577 H 0.47831 0.54773 0.9842 0.0
C578 C 0.51033 0.48781 0.02351 0.0
C579 C 0.4685 0.51509 0.01964 0.0
C580 C 0.43665 0.5223 0.03159 0.0
C581 C 0.529 0.50365 0.99891 0.0
C582 C 0.51736 0.52563 0.985 0.0
C583 C 0.48717 0.53093 0.99498 0.0
C584 C 0.53646 0.54317 0.96002 0.0
C585 C 0.56093 0.49655 0.98725 0.0
C586 C 0.56223 0.55218 0.98267 0.0
C587 C 0.58356 0.5648 0.95637 0.0
C588 C 0.57926 0.56895 0.90721 0.0
C589 C 0.55208 0.56197 0.88568 0.0
C590 C 0.53069 0.54923 0.91202 0.0
H591 H 0.56401 0.47739 0.98972 0.0
H592 H 0.56736 0.50233 0.95061 0.0
H593 H 0.57658 0.5049 1.01318 0.0
H594 H 0.56686 0.54808 0.01987 0.0
H595 H 0.60465 0.56952 0.97349 0.0
H596 H 0.89525 0.44957 0.4785 0.0
H597 H 0.93313 0.47089 0.525 0.0
H598 H 0.98984 0.47536 0.39959 0.0
H599 H 0.95156 0.45427 0.35282 0.0
H600 H 0.99556 0.46828 0.54603 0.0
H601 H 0.96795 0.54376 0.42923 0.0
H602 H 0.94584 0.51732 0.42944 0.0
H603 H 0.98135 0.51831 0.3984 0.0
C604 C 0.91647 0.45411 0.46155 0.0
C605 C 0.92076 0.44997 0.41237 0.0
C606 C 0.93796 0.46653 0.48797 0.0
C607 C 0.96395 0.47527 0.46548 0.0
C608 C 0.96967 0.46915 0.41746 0.0
H609 H 0.10431 0.56954 0.55686 0.0
H610 H 0.06678 0.54789 0.51035 0.0
C611 C 0.94811 0.45666 0.39098 0.0
C612 C 0.9831 0.49265 0.49098 0.0
H613 H 0.00467 0.54996 0.48924 0.0
C614 C 0.99758 0.48612 0.53363 0.0
C615 C 0.98542 0.51605 0.47504 0.0
C616 C 0.96914 0.52444 0.43077 0.0
C617 C 0.01485 0.50218 0.56019 0.0
C618 C 0.01715 0.52558 0.54429 0.0
C619 C 0.00268 0.53211 0.50162 0.0
C620 C 0.03613 0.54303 0.56994 0.0
C621 C 0.03116 0.49377 0.60442 0.0
C622 C 0.0304 0.54895 0.61806 0.0
C623 C 0.05177 0.56161 0.64456 0.0
C624 C 0.07889 0.56878 0.62309 0.0
C625 C 0.08321 0.56474 0.57388 0.0
C626 C 0.06193 0.55211 0.54744 0.0
H627 H 0.03257 0.47445 0.60568 0.0
H628 H 0.05437 0.50105 0.60598 0.0
H629 H 0.0188 0.49968 0.63681 0.0
H630 H 0.01037 0.54249 0.63594 0.0
H631 H 0.04833 0.56387 0.68276 0.0
H632 H 0.05244 0.95959 0.18046 0.0
H633 H 0.01519 0.98038 0.1319 0.0
H634 H 0.06794 0.96686 1.00487 0.0
H635 H 0.10547 0.94659 0.05379 0.0
H636 H 0.05875 0.01266 0.0173 0.0
H637 H 0.94934 0.96674 0.0366 0.0
H638 H 0.96669 0.97322 0.09318 0.0
H639 H 0.98474 0.95333 0.05245 0.0
C640 C 0.05513 0.95996 0.14182 0.0
C641 C 0.08135 0.95101 0.12059 0.0
C642 C 0.03395 0.97202 0.11404 0.0
C643 C 0.03866 0.97521 0.06455 0.0
C644 C 0.06375 0.96464 0.04289 0.0
H645 H 0.95285 0.05771 0.84248 0.0
H646 H 0.98994 0.03643 0.89047 0.0
C647 C 0.08497 0.95273 0.0707 0.0
C648 C 0.01993 0.992 0.03678 0.0
H649 H 0.94756 1.00548 1.00559 0.0
C650 C 0.03444 0.01097 0.01443 0.0
C651 C 0.9882 0.98998 0.03336 0.0
C652 C 0.97134 0.9696 0.05478 0.0
C653 C 0.01812 0.02806 0.98936 0.0
C654 C 0.9864 0.02608 0.98611 0.0
C655 C 0.97188 1.00713 1.00845 0.0
C656 C 0.96774 0.04288 0.9584 0.0
C657 C 0.03495 0.04832 0.96738 0.0
C658 C 0.94344 0.05427 0.98059 0.0
C659 C 0.92243 0.0666 0.95314 0.0
C660 C 0.92544 0.06786 0.90309 0.0
C661 C 0.95073 0.05776 0.88121 0.0
C662 C 0.97178 0.04542 0.90864 0.0
H663 H 0.05734 0.05093 0.98449 0.0
H664 H 0.03874 0.04481 0.92871 0.0
H665 H 0.02184 0.06471 0.97055 0.0
H666 H 0.93975 0.05247 0.01884 0.0
H667 H 0.90254 0.07353 0.97059 0.0
H668 H 0.39456 0.0655 0.55707 0.0
H669 H 0.43194 0.0442 0.50997 0.0
H670 H 0.49328 0.04596 0.63 0.0
H671 H 0.45547 0.06711 0.67753 0.0
H672 H 0.49288 0.04919 0.48256 0.0
H673 H 0.47571 0.97597 0.61028 0.0
H674 H 0.45166 1.00128 0.60946 0.0
H675 H 0.48832 1.00282 0.63675 0.0
C676 C 0.41656 0.06228 0.57262 0.0
C677 C 0.42241 0.06827 0.62056 0.0
C678 C 0.43779 0.04989 0.54586 0.0
C679 C 0.46509 0.04299 0.56682 0.0
C680 C 0.4721 0.05076 0.6134 0.0
H681 H 0.60947 0.9543 0.475 0.0
H682 H 0.57131 0.97511 0.52128 0.0
C683 C 0.45078 0.06323 0.64024 0.0
C684 C 0.48452 0.02586 0.54146 0.0
H685 H 0.51054 0.96987 0.54746 0.0
C686 C 0.49676 0.03185 0.4967 0.0
C687 C 0.48921 1.00311 0.55972 0.0
C688 C 0.47536 0.99524 0.60647 0.0
C689 C 0.51419 0.01594 0.47025 0.0
C690 C 0.51894 0.99321 0.48855 0.0
C691 C 0.50663 0.9872 0.53326 0.0
C692 C 0.53874 0.97619 0.46357 0.0
C693 C 0.52811 0.02385 0.42356 0.0
C694 C 0.53232 0.96845 0.41676 0.0
C695 C 0.5541 0.95622 0.39037 0.0
C696 C 0.58235 0.95141 0.41073 0.0
C697 C 0.58758 0.95731 0.45891 0.0
C698 C 0.5659 0.96945 0.48521 0.0
H699 H 0.52761 0.04311 0.41967 0.0
H700 H 0.55188 0.01794 0.42079 0.0
H701 H 0.51531 0.01617 0.39321 0.0
H702 H 0.51125 0.97311 0.39964 0.0
H703 H 0.54987 0.95242 0.3529 0.0
H704 H 0.42929 0.18147 0.74977 0.0
H705 H 0.43625 0.21561 0.80137 0.0
H706 H 0.34397 0.20963 0.84907 0.0
H707 H 0.33735 0.17495 0.79938 0.0
H708 H 0.41333 0.25675 0.80566 0.0
H709 H 0.38392 0.21331 0.9759 0.0
H710 H 0.38921 0.19726 0.92094 0.0
H711 H 0.35345 0.21078 0.93404 0.0
C712 C 0.41045 0.18749 0.77114 0.0
C713 C 0.38282 0.17535 0.77066 0.0
C714 C 0.41448 0.20699 0.80083 0.0
C715 C 0.39093 0.21493 0.83044 0.0
C716 C 0.36292 0.20343 0.82821 0.0
H717 H 0.36394 0.35157 0.94146 0.0
H718 H 0.37075 0.31654 0.89469 0.0
C719 C 0.35903 0.18372 0.79924 0.0
C720 C 0.39534 0.2355 0.86268 0.0
H721 H 0.38237 0.25527 0.97663 0.0
C722 C 0.40689 0.25627 0.84319 0.0
C723 C 0.38788 0.23495 0.91219 0.0
C724 C 0.37828 0.21278 0.93707 0.0
C725 C 0.4097 0.27664 0.87095 0.0
C726 C 0.39967 0.27662 0.91927 0.0
C727 C 0.38962 0.25555 0.93947 0.0
C728 C 0.39722 0.29849 0.94815 0.0
C729 C 0.42354 0.29795 0.84798 0.0
C730 C 0.40902 0.30009 0.99496 0.0
C731 C 0.40455 0.32023 0.02284 0.0
C732 C 0.38808 0.33924 1.00449 0.0
C733 C 0.37677 0.33751 0.95731 0.0
C734 C 0.38098 0.31744 0.92991 0.0
H735 H 0.44014 0.29298 0.81993 0.0
H736 H 0.40557 0.30823 0.83021 0.0
H737 H 0.43505 0.30917 0.8748 0.0
H738 H 0.42136 0.28561 1.0102 0.0
H739 H 0.41324 0.32047 0.05908 0.0
H740 H 0.16099 0.8589 0.33143 0.0
H741 H 0.15643 0.8241 0.38132 0.0
H742 H 0.08257 0.79985 0.29388 0.0
H743 H 0.0872 0.83453 0.24315 0.0
H744 H 0.10842 0.80793 0.43582 0.0
H745 H 0.13879 0.74383 0.29465 0.0
H746 H 0.14475 0.77473 0.28731 0.0
H747 H 0.1077 0.76247 0.2798 0.0
C748 C 0.14384 0.84615 0.32247 0.0
C749 C 0.12459 0.84956 0.28287 0.0
C750 C 0.14119 0.82626 0.35127 0.0
C751 C 0.11935 0.80919 0.34123 0.0
C752 C 0.09996 0.81254 0.30194 0.0
H753 H 0.07754 0.6927 0.54018 0.0
H754 H 0.07313 0.72889 0.49358 0.0
C755 C 0.10261 0.83245 0.27298 0.0
C756 C 0.11713 0.78795 0.37196 0.0
H757 H 0.12469 0.7287 0.37006 0.0
C758 C 0.11181 0.79058 0.42142 0.0
C759 C 0.12177 0.7653 0.35329 0.0
C760 C 0.12883 0.76131 0.30096 0.0
C761 C 0.11138 0.77128 0.45268 0.0
C762 C 0.11604 0.74866 0.43396 0.0
C763 C 0.1209 0.74602 0.38441 0.0
C764 C 0.11858 0.72765 0.46525 0.0
C765 C 0.10706 0.77533 0.5057 0.0
C766 C 0.14551 0.71491 0.4651 0.0
C767 C 0.14807 0.69435 0.4915 0.0
C768 C 0.12375 0.6858 0.51893 0.0
C769 C 0.09691 0.69888 0.52019 0.0
C770 C 0.09433 0.71958 0.49342 0.0
H771 H 0.10972 0.79399 0.51544 0.0
H772 H 0.08401 0.76971 0.51614 0.0
H773 H 0.12344 0.76492 0.52681 0.0
H774 H 0.16459 0.72077 0.44393 0.0
H775 H 0.16918 0.68493 0.48981 0.0
H776 H 0.89839 0.20402 0.95737 0.0
H777 H 0.90113 0.2408 1.00216 0.0
H778 H 0.88116 0.20412 0.13333 0.0
H779 H 0.87855 0.16753 0.08941 0.0
H780 H 0.84309 0.24201 0.11608 0.0
H781 H 0.96388 0.26704 0.09902 0.0
H782 H 0.94467 0.25985 0.0441 0.0
H783 H 0.95064 0.23769 0.08847 0.0
C784 C 0.89536 0.20366 0.99589 0.0
C785 C 0.88826 0.18267 0.01966 0.0
C786 C 0.89686 0.22476 0.02148 0.0
C787 C 0.89143 0.22524 0.07121 0.0
C788 C 0.88536 0.20424 0.09503 0.0
H789 H 0.91295 0.33378 0.28657 0.0
H790 H 0.91661 0.29878 0.23656 0.0
C791 C 0.88385 0.18329 0.0697 0.0
C792 C 0.88984 0.24755 0.09845 0.0
H793 H 0.93169 0.29387 0.13803 0.0
C794 C 0.86245 0.25339 0.12072 0.0
C795 C 0.91517 0.26226 0.10495 0.0
C796 C 0.94538 0.25642 0.08326 0.0
C797 C 0.85967 0.27345 0.14928 0.0
C798 C 0.88488 0.28836 0.15535 0.0
C799 C 0.91233 0.28252 0.13318 0.0
C800 C 0.88312 0.30991 0.18507 0.0
C801 C 0.82993 0.27819 0.17372 0.0
C802 C 0.86327 0.32794 0.17263 0.0
C803 C 0.861 0.34791 0.20122 0.0
C804 C 0.87868 0.35044 0.24291 0.0
C805 C 0.89884 0.33244 0.25497 0.0
C806 C 0.90108 0.31243 0.22627 0.0
H807 H 0.81551 0.26235 0.17534 0.0
H808 H 0.83345 0.28475 0.21079 0.0
H809 H 0.81753 0.2917 0.15326 0.0
H810 H 0.84954 0.32659 0.14061 0.0
H811 H 0.8454 0.36142 0.19044 0.0
H812 H 0.64761 0.65869 0.68871 0.0
H813 H 0.64184 0.69374 0.63973 0.0
H814 H 0.58913 0.72563 0.75162 0.0
H815 H 0.59448 0.6905 0.80103 0.0
H816 H 0.58049 0.71742 0.61395 0.0
H817 H 0.66352 0.77131 0.71515 0.0
H818 H 0.66495 0.73985 0.71495 0.0
H819 H 0.63642 0.75456 0.7489 0.0
C820 C 0.63485 0.67314 0.70317 0.0
C821 C 0.6216 0.67173 0.74907 0.0
C822 C 0.63147 0.69313 0.67491 0.0
C823 C 0.61509 0.71226 0.69204 0.0
C824 C 0.60193 0.71105 0.7378 0.0
H825 H 0.59595 0.85369 0.58933 0.0
H826 H 0.59292 0.81722 0.63414 0.0
C827 C 0.60504 0.69095 0.766 0.0
C828 C 0.61213 0.73357 0.66216 0.0
H829 H 0.63806 0.78935 0.65137 0.0
C830 C 0.593 0.73321 0.62203 0.0
C831 C 0.62845 0.75407 0.67288 0.0
C832 C 0.64967 0.75515 0.71513 0.0
C833 C 0.58937 0.75301 0.59272 0.0
C834 C 0.60599 0.77354 0.6031 0.0
C835 C 0.62521 0.77373 0.64328 0.0
C836 C 0.60379 0.79519 0.57355 0.0
C837 C 0.56716 0.7519 0.55179 0.0
C838 C 0.61006 0.7951 0.52399 0.0
C839 C 0.61119 0.81606 0.49795 0.0
C840 C 0.60666 0.83749 0.52125 0.0
C841 C 0.59947 0.83744 0.57037 0.0
C842 C 0.59787 0.81658 0.59609 0.0
H843 H 0.54997 0.73805 0.55758 0.0
H844 H 0.5554 0.76879 0.54694 0.0
H845 H 0.57942 0.74776 0.51816 0.0
H846 H 0.61545 0.77898 0.50583 0.0
H847 H 0.61739 0.81559 0.46038 0.0
H848 H 0.66585 0.68285 0.0481 0.0
H849 H 0.66064 0.71818 0.09539 0.0
H850 H 0.57083 0.72802 0.04003 0.0
H851 H 0.57575 0.6922 0.99213 0.0
H852 H 0.60705 0.7699 0.04479 0.0
H853 H 0.60807 0.72192 0.2171 0.0
H854 H 0.63925 0.7146 0.17892 0.0
H855 H 0.60142 0.70773 0.16024 0.0
C856 C 0.6449 0.69244 0.04568 0.0
C857 C 0.62114 0.68444 0.01638 0.0
C858 C 0.64197 0.71268 0.07299 0.0
C859 C 0.61513 0.72548 0.07219 0.0
C860 C 0.59169 0.71827 0.04151 0.0
H861 H 0.58614 0.83344 0.29197 0.0
H862 H 0.58 0.79911 0.24056 0.0
C863 C 0.59462 0.69786 1.01387 0.0
C864 C 0.61199 0.74619 0.10404 0.0
H865 H 0.61778 0.76293 0.22145 0.0
C866 C 0.609 0.76838 0.08345 0.0
C867 C 0.61407 0.74422 0.1546 0.0
C868 C 0.61558 0.72082 0.17913 0.0
C869 C 0.60951 0.78867 0.11188 0.0
C870 C 0.6136 0.78675 0.16219 0.0
C871 C 0.61508 0.76449 0.18291 0.0
C872 C 0.61739 0.80757 0.19372 0.0
C873 C 0.6057 0.81198 0.08767 0.0
C874 C 0.64094 0.82348 0.18545 0.0
C875 C 0.64457 0.84308 0.21478 0.0
C876 C 0.62485 0.84721 0.2535 0.0
C877 C 0.60177 0.83088 0.26258 0.0
C878 C 0.59814 0.81125 0.23308 0.0
H879 H 0.59364 0.81024 0.05291 0.0
H880 H 0.59307 0.8243 0.11085 0.0
H881 H 0.62828 0.81956 0.08021 0.0
H882 H 0.65665 0.82072 0.15624 0.0
H883 H 0.66274 0.85511 0.20674 0.0
H884 H 0.86574 0.34934 0.58317 0.0
H885 H 0.87339 0.3142 0.6293 0.0
H886 H 0.92379 0.28417 0.51248 0.0
H887 H 0.91481 0.31916 0.46427 0.0
H888 H 0.88527 0.2534 0.54603 0.0
H889 H 0.94342 0.29077 0.7026 0.0
H890 H 0.90869 0.30591 0.69313 0.0
H891 H 0.93792 0.30717 0.64811 0.0
C892 C 0.87871 0.33546 0.56693 0.0
C893 C 0.88968 0.33744 0.5196 0.0
C894 C 0.88341 0.31533 0.59394 0.0
C895 C 0.89981 0.29659 0.57511 0.0
C896 C 0.91133 0.29848 0.52816 0.0
H897 H 0.93215 0.17956 0.77331 0.0
H898 H 0.9394 0.2134 0.72099 0.0
C899 C 0.90639 0.31869 0.50068 0.0
C900 C 0.90263 0.27461 0.60354 0.0
H901 H 0.91665 0.25445 0.71678 0.0
C902 C 0.89263 0.25359 0.58313 0.0
C903 C 0.91281 0.27452 0.65176 0.0
C904 C 0.92663 0.29578 0.6749 0.0
C905 C 0.89103 0.2329 0.61017 0.0
C906 C 0.89858 0.23333 0.65963 0.0
C907 C 0.91014 0.25406 0.67928 0.0
C908 C 0.89414 0.21272 0.69176 0.0
C909 C 0.88144 0.21079 0.58508 0.0
C910 C 0.86609 0.20126 0.69399 0.0
C911 C 0.86204 0.18171 0.72336 0.0
C912 C 0.8857 0.17346 0.75232 0.0
C913 C 0.91341 0.18548 0.75161 0.0
C914 C 0.91761 0.20482 0.72153 0.0
H915 H 0.88714 0.21139 0.54628 0.0
H916 H 0.89232 0.19523 0.60111 0.0
H917 H 0.8566 0.2088 0.58802 0.0
H918 H 0.84719 0.20744 0.673 0.0
H919 H 0.84028 0.17307 0.72342 0.0
H920 H 0.08627 0.68708 0.7408 0.0
H921 H 0.08221 0.72224 0.7904 0.0
H922 H 0.15321 0.69695 0.88206 0.0
H923 H 0.15773 0.66203 0.83272 0.0
H924 H 0.06974 0.72699 0.8905 0.0
H925 H 0.18275 0.7621 0.84358 0.0
H926 H 0.16487 0.7391 0.80972 0.0
H927 H 0.18313 0.73273 0.86577 0.0
C928 C 0.10117 0.68904 0.77133 0.0
C929 C 0.1225 0.6717 0.78238 0.0
C930 C 0.0987 0.70912 0.79981 0.0
C931 C 0.11761 0.71237 0.83971 0.0
C932 C 0.13869 0.69503 0.85105 0.0
H933 H 0.1057 0.81616 0.0712 0.0
H934 H 0.10181 0.77988 0.02476 0.0
C935 C 0.14118 0.675 0.82272 0.0
C936 C 0.1156 0.73394 0.86931 0.0
H937 H 0.15641 0.78129 0.90592 0.0
C938 C 0.08865 0.73891 0.89385 0.0
C939 C 0.1402 0.74958 0.87343 0.0
C940 C 0.1693 0.7458 0.84643 0.0
C941 C 0.0858 0.75896 0.92272 0.0
C942 C 0.11061 0.77435 0.92745 0.0
C943 C 0.13744 0.76941 0.90264 0.0
C944 C 0.10908 0.79634 0.95581 0.0
C945 C 0.05611 0.7638 0.94711 0.0
C946 C 0.11407 0.81768 0.93264 0.0
C947 C 0.11629 0.83831 0.95895 0.0
C948 C 0.11366 0.83824 1.00929 0.0
C949 C 0.10736 0.81697 0.03249 0.0
C950 C 0.1052 0.79618 1.00594 0.0
H951 H 0.03754 0.753 0.93211 0.0
H952 H 0.05816 0.75979 0.98591 0.0
H953 H 0.05001 0.78247 0.94356 0.0
H954 H 0.11706 0.8183 0.89408 0.0
H955 H 0.12095 0.85434 0.93977 0.0
H956 H 0.34267 0.35747 0.32934 0.0
H957 H 0.34839 0.32287 0.3793 0.0
H958 H 0.41959 0.29833 0.28703 0.0
H959 H 0.41439 0.33318 0.23699 0.0
H960 H 0.34148 0.27707 0.35626 0.0
H961 H 0.45834 0.2932 0.41941 0.0
H962 H 0.43608 0.31534 0.39015 0.0
H963 H 0.45439 0.29315 0.35529 0.0
C964 C 0.3596 0.34477 0.31948 0.0
C965 C 0.37813 0.34826 0.27902 0.0
C966 C 0.36286 0.32496 0.34826 0.0
C967 C 0.3848 0.30815 0.33757 0.0
C968 C 0.40299 0.3113 0.29675 0.0
H969 H 0.38748 0.16569 0.43374 0.0
H970 H 0.38896 0.2023 0.38957 0.0
C971 C 0.39977 0.33117 0.26786 0.0
C972 C 0.38772 0.28701 0.36831 0.0
H973 H 0.43704 0.2561 0.43805 0.0
C974 C 0.36236 0.27258 0.37426 0.0
C975 C 0.41484 0.28125 0.39243 0.0
C976 C 0.44241 0.29664 0.38948 0.0
C977 C 0.36354 0.25236 0.40258 0.0
C978 C 0.39092 0.24614 0.42527 0.0
C979 C 0.41613 0.2608 0.42038 0.0
C980 C 0.39373 0.22396 0.45252 0.0
C981 C 0.33539 0.23775 0.40812 0.0
C982 C 0.39718 0.22387 0.50267 0.0
C983 C 0.39637 0.20278 0.52837 0.0
C984 C 0.39219 0.18146 0.50417 0.0
C985 C 0.39037 0.18173 0.45371 0.0
C986 C 0.3912 0.20267 0.42827 0.0
H987 H 0.31478 0.24759 0.39811 0.0
H988 H 0.33698 0.22229 0.38435 0.0
H989 H 0.33295 0.23148 0.44562 0.0
H990 H 0.39923 0.24014 0.52207 0.0
H991 H 0.39751 0.20335 0.56714 0.0
H992 H 0.75086 0.44213 0.23993 0.0
H993 H 0.6968 0.4437 0.22241 0.0
H994 H 0.68596 0.37391 0.27717 0.0
H995 H 0.74001 0.37199 0.29382 0.0
H996 H 0.6571 0.3799 0.19153 0.0
H997 H 0.62775 0.45169 0.31646 0.0
H998 H 0.65686 0.45887 0.27412 0.0
H999 H 0.66355 0.43686 0.31871 0.0
C1000 C 0.73695 0.42716 0.24852 0.0
C1001 C 0.74979 0.40694 0.26837 0.0
C1002 C 0.70599 0.42813 0.23867 0.0
C1003 C 0.68721 0.40903 0.24898 0.0
C1004 C 0.69998 0.38888 0.26894 0.0
H1005 H 0.49525 0.40063 0.28117 0.0
H1006 H 0.54988 0.40326 0.28898 0.0
C1007 C 0.73091 0.38784 0.27858 0.0
C1008 C 0.65435 0.4097 0.23822 0.0
H1009 H 0.5889 0.43809 0.26541 0.0
C1010 C 0.64218 0.39266 0.20756 0.0
C1011 C 0.63487 0.42626 0.25942 0.0
C1012 C 0.64629 0.44434 0.29435 0.0
C1013 C 0.61107 0.39156 0.19797 0.0
C1014 C 0.59162 0.40824 0.21884 0.0
C1015 C 0.60385 0.42544 0.24905 0.0
C1016 C 0.55829 0.4071 0.21293 0.0
C1017 C 0.5992 0.37201 0.16701 0.0
C1018 C 0.54464 0.40862 0.16749 0.0
C1019 C 0.51319 0.40694 0.16281 0.0
C1020 C 0.49486 0.40393 0.20357 0.0
C1021 C 0.50863 0.40288 0.24897 0.0
C1022 C 0.53993 0.40444 0.25356 0.0
H1023 H 0.61593 0.35775 0.16298 0.0
H1024 H 0.57812 0.3646 0.18228 0.0
H1025 H 0.59404 0.37887 0.13072 0.0
H1026 H 0.55828 0.41118 0.13569 0.0
H1027 H 0.50326 0.4081 0.12739 0.0
H1028 H 0.00433 0.59974 0.77137 0.0
H1029 H 0.94945 0.59733 0.77546 0.0
H1030 H 0.94311 0.62424 0.63136 0.0
H1031 H 0.99827 0.62624 0.62655 0.0
H1032 H 0.90934 0.6327 0.76916 0.0
H1033 H 0.88723 0.56832 0.62483 0.0
H1034 H 0.92444 0.57329 0.64907 0.0
H1035 H 0.90893 0.59305 0.60558 0.0
C1036 C 0.99133 0.605 0.74033 0.0
C1037 C 0.00571 0.61323 0.69862 0.0
C1038 C 0.95992 0.6036 0.74277 0.0
C1039 C 0.94211 0.61035 0.70358 0.0
C1040 C 0.95637 0.61846 0.66171 0.0
H1041 H 0.7494 0.62773 0.66395 0.0
H1042 H 0.80434 0.62718 0.65622 0.0
C1043 C 0.9879 0.61975 0.65912 0.0
C1044 C 0.90868 0.60991 0.70777 0.0
H1045 H 0.84445 0.58748 0.65783 0.0
C1046 C 0.89518 0.6227 0.74496 0.0
C1047 C 0.8902 0.59688 0.67616 0.0
C1048 C 0.9034 0.58192 0.63693 0.0
C1049 C 0.86374 0.62307 0.75103 0.0
C1050 C 0.84529 0.61012 0.71936 0.0
C1051 C 0.8587 0.59738 0.68207 0.0
C1052 C 0.81195 0.6099 0.72404 0.0
C1053 C 0.85044 0.63769 0.79071 0.0
C1054 C 0.79799 0.60009 0.76454 0.0
C1055 C 0.76654 0.60033 0.76909 0.0
C1056 C 0.74849 0.61041 0.73318 0.0
C1057 C 0.76259 0.61995 0.69241 0.0
C1058 C 0.794 0.6196 0.68782 0.0
H1059 H 0.86702 0.65043 0.80521 0.0
H1060 H 0.83032 0.64732 0.7778 0.0
H1061 H 0.84319 0.62614 0.82051 0.0
H1062 H 0.81143 0.59221 0.7926 0.0
H1063 H 0.75641 0.59272 0.80082 0.0
H1064 H 0.24608 0.09243 0.72808 0.0
H1065 H 0.19131 0.09057 0.74004 0.0
H1066 H 0.20056 0.12863 0.87265 0.0
H1067 H 0.255 0.1309 0.86076 0.0
H1068 H 0.15776 0.0716 0.81701 0.0
H1069 H 0.1381 0.16669 0.79896 0.0
H1070 H 0.1729 0.15305 0.78072 0.0
H1071 H 0.16597 0.15921 0.843 0.0
C1072 C 0.23642 0.10051 0.75965 0.0
C1073 C 0.25487 0.11205 0.79321 0.0
C1074 C 0.20515 0.09936 0.7665 0.0
C1075 C 0.19185 0.1098 0.80684 0.0
C1076 C 0.21029 0.1209 0.84076 0.0
H1077 H 0.00652 0.12597 0.90615 0.0
H1078 H 0.06172 0.12377 0.90195 0.0
C1079 C 0.24145 0.1221 0.83395 0.0
C1080 C 0.1587 0.10909 0.81375 0.0
H1081 H 0.09673 0.14383 0.82559 0.0
C1082 C 0.14437 0.08737 0.81871 0.0
C1083 C 0.14133 0.12971 0.81614 0.0
C1084 C 0.15526 0.15349 0.809 0.0
C1085 C 0.11312 0.08576 0.82658 0.0
C1086 C 0.09581 0.10638 0.82889 0.0
C1087 C 0.11015 0.12807 0.82417 0.0
C1088 C 0.06255 0.1059 0.83362 0.0
C1089 C 0.09889 0.06205 0.83299 0.0
C1090 C 0.04483 0.09651 0.7967 0.0
C1091 C 0.01343 0.09785 0.79885 0.0
C1092 C 0.9991 0.10868 0.83794 0.0
C1093 C 0.01688 0.11757 0.87553 0.0
C1094 C 0.04838 0.11632 0.8732 0.0
H1095 H 0.1159 0.04862 0.84237 0.0
H1096 H 0.08135 0.06246 0.86144 0.0
H1097 H 0.08789 0.05675 0.79893 0.0
H1098 H 0.05533 0.08873 0.7655 0.0
H1099 H 1.00042 0.09075 0.76937 0.0
H1100 H 0.50869 0.89887 0.24208 0.0
H1101 H 0.45428 0.90248 0.23236 0.0
H1102 H 0.44439 0.91337 0.38463 0.0
H1103 H 0.49912 0.90943 0.3949 0.0
H1104 H 0.40399 0.88123 0.34886 0.0
H1105 H 0.40283 0.96091 0.23701 0.0
H1106 H 0.42685 0.93869 0.21287 0.0
H1107 H 0.43579 0.95169 0.2699 0.0
C1108 C 0.49504 0.90217 0.27357 0.0
C1109 C 0.50827 0.90385 0.3193 0.0
C1110 C 0.46391 0.90439 0.26786 0.0
C1111 C 0.44531 0.90861 0.30761 0.0
C1112 C 0.45837 0.91027 0.35341 0.0
H1113 H 0.2537 0.94198 0.27843 0.0
H1114 H 0.30774 0.94356 0.29603 0.0
C1115 C 0.48961 0.90798 0.35922 0.0
C1116 C 0.41213 0.91014 0.3013 0.0
H1117 H 0.35729 0.9383 0.23789 0.0
C1118 C 0.39373 0.89386 0.32498 0.0
C1119 C 0.39872 0.92683 0.27066 0.0
C1120 C 0.41704 0.94568 0.24654 0.0
C1121 C 0.36242 0.89326 0.31748 0.0
C1122 C 0.34924 0.90908 0.28469 0.0
C1123 C 0.36748 0.92594 0.26243 0.0
C1124 C 0.31663 0.90828 0.27277 0.0
C1125 C 0.34373 0.87574 0.34492 0.0
C1126 C 0.30382 0.88812 0.25269 0.0
C1127 C 0.27294 0.88712 0.24269 0.0
C1128 C 0.25429 0.90635 0.25223 0.0
C1129 C 0.26738 0.9268 0.27089 0.0
C1130 C 0.29826 0.92775 0.28099 0.0
H1131 H 0.35547 0.8698 0.37792 0.0
H1132 H 0.32154 0.88314 0.35521 0.0
H1133 H 0.33969 0.86025 0.32197 0.0
H1134 H 0.31771 0.8731 0.24489 0.0
H1135 H 0.26367 0.87118 0.22796 0.0
H1136 H 0.50763 0.61792 0.74572 0.0
H1137 H 0.45307 0.6157 0.73638 0.0
H1138 H 0.44266 0.61058 0.88986 0.0
H1139 H 0.4976 0.61326 0.89968 0.0
H1140 H 0.4129 0.58181 0.76146 0.0
H1141 H 0.38682 0.66441 0.85663 0.0
H1142 H 0.42464 0.65666 0.83896 0.0
H1143 H 0.40783 0.64363 0.8912 0.0
C1144 C 0.49382 0.61636 0.77763 0.0
C1145 C 0.507 0.61601 0.82353 0.0
C1146 C 0.46257 0.61504 0.77216 0.0
C1147 C 0.44369 0.61331 0.81239 0.0
C1148 C 0.45673 0.61242 0.85833 0.0
H1149 H 0.25097 0.58002 0.78606 0.0
H1150 H 0.305 0.57826 0.80337 0.0
C1151 C 0.48813 0.61386 0.86389 0.0
C1152 C 0.41043 0.61255 0.80557 0.0
H1153 H 0.34538 0.64223 0.82909 0.0
C1154 C 0.3981 0.59496 0.77643 0.0
C1155 C 0.39119 0.62989 0.82459 0.0
C1156 C 0.40322 0.64985 0.85425 0.0
C1157 C 0.36716 0.59434 0.76544 0.0
C1158 C 0.34788 0.61153 0.78491 0.0
C1159 C 0.36016 0.629 0.81439 0.0
C1160 C 0.31509 0.61227 0.77381 0.0
C1161 C 0.35563 0.57575 0.73178 0.0
C1162 C 0.30263 0.63212 0.75215 0.0
C1163 C 0.2717 0.63328 0.74259 0.0
C1164 C 0.25254 0.61461 0.75461 0.0
C1165 C 0.2651 0.59466 0.77604 0.0
C1166 C 0.29604 0.59357 0.78579 0.0
H1167 H 0.37416 0.56784 0.71049 0.0
H1168 H 0.34475 0.56168 0.75298 0.0
H1169 H 0.33859 0.58293 0.70665 0.0
H1170 H 0.31688 0.64678 0.74264 0.0
H1171 H 0.26281 0.6489 0.72611 0.0
H1172 H 0.2507 0.44013 0.28798 0.0
H1173 H 0.1969 0.44151 0.30739 0.0
H1174 H 0.18262 0.37763 0.22909 0.0
H1175 H 0.23642 0.37586 0.21026 0.0
H1176 H 0.14665 0.44346 0.25092 0.0
H1177 H 0.1454 0.36234 0.35859 0.0
H1178 H 0.17995 0.37657 0.34056 0.0
H1179 H 0.15995 0.35809 0.29915 0.0
C1180 C 0.23613 0.42636 0.27483 0.0
C1181 C 0.24796 0.40773 0.24798 0.0
C1182 C 0.20536 0.42719 0.28598 0.0
C1183 C 0.18582 0.4094 0.27066 0.0
C1184 C 0.19738 0.39122 0.24244 0.0
H1185 H 0.99303 0.40934 0.24339 0.0
H1186 H 0.04751 0.41227 0.23381 0.0
C1187 C 0.22815 0.39034 0.23138 0.0
C1188 C 0.15331 0.40991 0.28381 0.0
H1189 H 0.09739 0.37785 0.33676 0.0
C1190 C 0.13593 0.42919 0.27001 0.0
C1191 C 0.1394 0.39154 0.30962 0.0
C1192 C 0.15719 0.37108 0.32831 0.0
C1193 C 0.10484 0.43018 0.2797 0.0
C1194 C 0.09062 0.41118 0.30303 0.0
C1195 C 0.10821 0.39231 0.31845 0.0
C1196 C 0.05736 0.41001 0.30968 0.0
C1197 C 0.08755 0.45163 0.26499 0.0
C1198 C 0.04466 0.40716 0.35553 0.0
C1199 C 0.0133 0.40525 0.36119 0.0
C1200 C 0.99415 0.40599 0.32099 0.0
C1201 C 0.00703 0.40882 0.2752 0.0
C1202 C 0.03825 0.41067 0.26962 0.0
H1203 H 0.10263 0.46706 0.26199 0.0
H1204 H 0.07717 0.44863 0.22929 0.0
H1205 H 0.0693 0.45563 0.29099 0.0
H1206 H 0.059 0.40644 0.38694 0.0
H1207 H 0.0041 0.40313 0.39693 0.0
H1208 H 0.75956 0.9276 0.30892 0.0
H1209 H 0.8146 0.92952 0.3005 0.0
H1210 H 0.80811 0.89761 0.16083 0.0
H1211 H 0.75332 0.89559 0.1688 0.0
H1212 H 0.85409 0.8899 0.2831 0.0
H1213 H 0.86134 0.95659 0.13905 0.0
H1214 H 0.82822 0.95289 0.1761 0.0
H1215 H 0.83554 0.93299 0.12778 0.0
C1216 C 0.76985 0.92106 0.27635 0.0
C1217 C 0.75205 0.91139 0.23956 0.0
C1218 C 0.80127 0.9222 0.27159 0.0
C1219 C 0.81534 0.91397 0.22978 0.0
C1220 C 0.79764 0.9044 0.19303 0.0
H1221 H 0.99964 0.89702 0.12965 0.0
H1222 H 0.9446 0.89946 0.13723 0.0
C1223 C 0.76632 0.90313 0.19783 0.0
C1224 C 0.84864 0.91433 0.22525 0.0
H1225 H 0.90652 0.93652 0.15825 0.0
C1226 C 0.86562 0.90023 0.2561 0.0
C1227 C 0.8635 0.92765 0.18964 0.0
C1228 C 0.84632 0.94356 0.15642 0.0
C1229 C 0.8971 0.89868 0.25168 0.0
C1230 C 0.91205 0.91208 0.21617 0.0
C1231 C 0.89504 0.92627 0.18541 0.0
C1232 C 0.94535 0.91164 0.21072 0.0
C1233 C 0.91393 0.88219 0.28419 0.0
C1234 C 0.964 0.91827 0.24901 0.0
C1235 C 0.99532 0.91675 0.2449 0.0
C1236 C 0.0087 0.9088 0.20219 0.0
C1237 C 0.99003 0.90301 0.16316 0.0
C1238 C 0.9586 0.90444 0.16741 0.0
H1239 H 0.89875 0.86866 0.29951 0.0
H1240 H 0.93254 0.87338 0.26469 0.0
H1241 H 0.92383 0.89215 0.31447 0.0
H1242 H 0.95431 0.92447 0.2823 0.0
H1243 H 0.00902 0.92168 0.27545 0.0
H1244 H 0.50602 0.11185 0.62585 0.0
H1245 H 0.5611 0.10957 0.63318 0.0
H1246 H 0.55376 0.11805 0.78644 0.0
H1247 H 0.49901 0.1205 0.77954 0.0
H1248 H 0.59579 0.14826 0.74217 0.0
H1249 H 0.61299 0.05589 0.68892 0.0
H1250 H 0.59099 0.07317 0.64811 0.0
H1251 H 0.5767 0.06708 0.70708 0.0
C1252 C 0.51615 0.11314 0.6611 0.0
C1253 C 0.49814 0.11645 0.70208 0.0
C1254 C 0.54758 0.11167 0.66526 0.0
C1255 C 0.56145 0.11344 0.71042 0.0
C1256 C 0.54349 0.11658 0.7513 0.0
H1257 H 0.74747 0.0889 0.79652 0.0
H1258 H 0.6924 0.08817 0.78802 0.0
C1259 C 0.51217 0.11796 0.74723 0.0
C1260 C 0.59473 0.11311 0.71526 0.0
H1261 H 0.65696 0.07882 0.70087 0.0
C1262 C 0.60918 0.13309 0.73314 0.0
C1263 C 0.61204 0.09319 0.70395 0.0
C1264 C 0.59748 0.071 0.6863 0.0
C1265 C 0.64056 0.13379 0.73951 0.0
C1266 C 0.65795 0.11406 0.72727 0.0
C1267 C 0.64351 0.09395 0.70996 0.0
C1268 C 0.69123 0.11416 0.73185 0.0
C1269 C 0.65486 0.15554 0.75984 0.0
C1270 C 0.70872 0.12885 0.70276 0.0
C1271 C 0.74008 0.1293 0.70745 0.0
C1272 C 0.75458 0.11505 0.74136 0.0
C1273 C 0.73699 0.10019 0.77025 0.0
C1274 C 0.70556 0.09967 0.76534 0.0
H1275 H 0.63797 0.16705 0.77721 0.0
H1276 H 0.6725 0.15105 0.78655 0.0
H1277 H 0.66579 0.16547 0.73039 0.0
H1278 H 0.69808 0.13995 0.67632 0.0
H1279 H 0.75293 0.14087 0.68449 0.0
loop_
_geom_bond_atom_site_label_1
_geom_bond_atom_site_label_2
_geom_bond_distance
_geom_bond_site_symmetry_2
_ccdc_geom_bond_type
Zn0 N4 2.020 . S
Zn0 O8 2.019 . S
Zn0 N10 2.119 . S
Zn0 O18 1.975 . S
C1 N2 1.334 . S
C1 N5 1.336 . S
N2 C1 1.334 . S
N2 C3 1.334 . S
C3 N2 1.334 . S
C3 N4 1.336 . S
N4 Zn0 2.020 . S
N4 C3 1.336 . S
N4 N5 1.354 . S
N5 C1 1.336 . S
N5 N4 1.354 . S
N5 Zn9 2.020 . S
C6 O7 1.244 . S
C6 O30 1.257 . S
O7 C6 1.244 . S
O8 Zn0 2.019 . S
O8 C28 1.257 . S
Zn9 N5 2.020 . S
Zn9 O16 1.975 . S
Zn9 N25 2.119 . S
Zn9 O30 2.019 . S
N10 Zn0 2.119 . S
N10 C12 1.334 . S
N10 C13 1.328 . S
C11 C12 1.391 . S
C11 N14 1.329 . S
C11 H32 0.930 . S
C12 N10 1.334 . S
C12 C11 1.391 . S
C12 H19 0.930 . S
C13 N10 1.328 . S
C13 C15 1.392 . S
C13 H20 0.930 . S
N14 C11 1.329 . S
N14 C15 1.331 . S
C15 C13 1.392 . S
C15 N14 1.331 . S
O16 Zn9 1.975 . S
O16 C17 1.252 . S
C17 O16 1.252 . S
C17 O18 1.252 . S
O18 Zn0 1.975 . S
O18 C17 1.252 . S
H19 C12 0.930 . S
H20 C13 0.930 . S
C21 C22 1.392 . S
C21 N25 1.328 . S
C21 H27 0.930 . S
C22 C21 1.392 . S
C22 N26 1.331 . S
C23 C24 1.391 . S
C23 N26 1.329 . S
C23 H33 0.930 . S
C24 C23 1.391 . S
C24 N25 1.334 . S
C24 H31 0.930 . S
N25 Zn9 2.119 . S
N25 C21 1.328 . S
N25 C24 1.334 . S
N26 C22 1.331 . S
N26 C23 1.329 . S
H27 C21 0.930 . S
C28 O8 1.257 . S
C28 O29 1.244 . S
O29 C28 1.244 . S
O30 C6 1.257 . S
O30 Zn9 2.019 . S
H31 C24 0.930 . S
H32 C11 0.930 . S
H33 C23 0.930 . S
Zn34 N38 2.020 . S
Zn34 O42 2.019 . S
Zn34 N44 2.119 . S
Zn34 O52 1.975 . S
C35 N36 1.334 . S
C35 N39 1.336 . S
N36 C35 1.334 . S
N36 C37 1.334 . S
C37 N36 1.334 . S
C37 N38 1.336 . S
N38 Zn34 2.020 . S
N38 C37 1.336 . S
N38 N39 1.354 . S
N39 C35 1.336 . S
N39 N38 1.354 . S
N39 Zn43 2.020 . S
C40 O41 1.244 . S
C40 O64 1.257 . S
O41 C40 1.244 . S
O42 Zn34 2.019 . S
O42 C62 1.257 . S
Zn43 N39 2.020 . S
Zn43 O50 1.975 . S
Zn43 N59 2.119 . S
Zn43 O64 2.019 . S
N44 Zn34 2.119 . S
N44 C46 1.334 . S
N44 C47 1.328 . S
C45 C46 1.391 . S
C45 N48 1.329 . S
C45 H66 0.930 . S
C46 N44 1.334 . S
C46 C45 1.391 . S
C46 H53 0.930 . S
C47 N44 1.328 . S
C47 C49 1.392 . S
C47 H54 0.930 . S
N48 C45 1.329 . S
N48 C49 1.331 . S
C49 C47 1.392 . S
C49 N48 1.331 . S
O50 Zn43 1.975 . S
O50 C51 1.252 . S
C51 O50 1.252 . S
C51 O52 1.252 . S
O52 Zn34 1.975 . S
O52 C51 1.252 . S
H53 C46 0.930 . S
H54 C47 0.930 . S
C55 C56 1.392 . S
C55 N59 1.328 . S
C55 H61 0.930 . S
C56 C55 1.392 . S
C56 N60 1.331 . S
C57 C58 1.391 . S
C57 N60 1.329 . S
C57 H67 0.930 . S
C58 C57 1.391 . S
C58 N59 1.334 . S
C58 H65 0.930 . S
N59 Zn43 2.119 . S
N59 C55 1.328 . S
N59 C58 1.334 . S
N60 C56 1.331 . S
N60 C57 1.329 . S
H61 C55 0.930 . S
C62 O42 1.257 . S
C62 O63 1.244 . S
O63 C62 1.244 . S
O64 C40 1.257 . S
O64 Zn43 2.019 . S
H65 C58 0.930 . S
H66 C45 0.930 . S
H67 C57 0.930 . S
Zn68 N72 2.020 . S
Zn68 O76 2.019 . S
Zn68 N78 2.119 . S
Zn68 O86 1.975 . S
C69 N70 1.334 . S
C69 N73 1.336 . S
N70 C69 1.334 . S
N70 C71 1.334 . S
C71 N70 1.334 . S
C71 N72 1.336 . S
N72 Zn68 2.020 . S
N72 C71 1.336 . S
N72 N73 1.354 . S
N73 C69 1.336 . S
N73 N72 1.354 . S
N73 Zn77 2.020 . S
C74 O75 1.244 . S
C74 O98 1.257 . S
O75 C74 1.244 . S
O76 Zn68 2.019 . S
O76 C96 1.257 . S
Zn77 N73 2.020 . S
Zn77 O84 1.975 . S
Zn77 N93 2.119 . S
Zn77 O98 2.019 . S
N78 Zn68 2.119 . S
N78 C80 1.334 . S
N78 C81 1.328 . S
C79 C80 1.391 . S
C79 N82 1.329 . S
C79 H100 0.930 . S
C80 N78 1.334 . S
C80 C79 1.391 . S
C80 H87 0.930 . S
C81 N78 1.328 . S
C81 C83 1.392 . S
C81 H88 0.930 . S
N82 C79 1.329 . S
N82 C83 1.331 . S
C83 C81 1.392 . S
C83 N82 1.331 . S
O84 Zn77 1.975 . S
O84 C85 1.252 . S
C85 O84 1.252 . S
C85 O86 1.252 . S
O86 Zn68 1.975 . S
O86 C85 1.252 . S
H87 C80 0.930 . S
H88 C81 0.930 . S
C89 C90 1.392 . S
C89 N93 1.328 . S
C89 H95 0.930 . S
C90 C89 1.392 . S
C90 N94 1.331 . S
C91 C92 1.391 . S
C91 N94 1.329 . S
C91 H101 0.930 . S
C92 C91 1.391 . S
C92 N93 1.334 . S
C92 H99 0.930 . S
N93 Zn77 2.119 . S
N93 C89 1.328 . S
N93 C92 1.334 . S
N94 C90 1.331 . S
N94 C91 1.329 . S
H95 C89 0.930 . S
C96 O76 1.257 . S
C96 O97 1.244 . S
O97 C96 1.244 . S
O98 C74 1.257 . S
O98 Zn77 2.019 . S
H99 C92 0.930 . S
H100 C79 0.930 . S
H101 C91 0.930 . S
Zn102 N106 2.020 . S
Zn102 O110 2.019 . S
Zn102 N112 2.119 . S
Zn102 O120 1.975 . S
C103 N104 1.334 . S
C103 N107 1.336 . S
N104 C103 1.334 . S
N104 C105 1.334 . S
C105 N104 1.334 . S
C105 N106 1.336 . S
N106 Zn102 2.020 . S
N106 C105 1.336 . S
N106 N107 1.354 . S
N107 C103 1.336 . S
N107 N106 1.354 . S
N107 Zn111 2.020 . S
C108 O109 1.244 . S
C108 O132 1.257 . S
O109 C108 1.244 . S
O110 Zn102 2.019 . S
O110 C130 1.257 . S
Zn111 N107 2.020 . S
Zn111 O118 1.975 . S
Zn111 N127 2.119 . S
Zn111 O132 2.019 . S
N112 Zn102 2.119 . S
N112 C114 1.334 . S
N112 C115 1.328 . S
C113 C114 1.391 . S
C113 N116 1.329 . S
C113 H134 0.930 . S
C114 N112 1.334 . S
C114 C113 1.391 . S
C114 H121 0.930 . S
C115 N112 1.328 . S
C115 C117 1.392 . S
C115 H122 0.930 . S
N116 C113 1.329 . S
N116 C117 1.331 . S
C117 C115 1.392 . S
C117 N116 1.331 . S
O118 Zn111 1.975 . S
O118 C119 1.252 . S
C119 O118 1.252 . S
C119 O120 1.252 . S
O120 Zn102 1.975 . S
O120 C119 1.252 . S
H121 C114 0.930 . S
H122 C115 0.930 . S
C123 C124 1.392 . S
C123 N127 1.328 . S
C123 H129 0.930 . S
C124 C123 1.392 . S
C124 N128 1.331 . S
C125 C126 1.391 . S
C125 N128 1.329 . S
C125 H135 0.930 . S
C126 C125 1.391 . S
C126 N127 1.334 . S
C126 H133 0.930 . S
N127 Zn111 2.119 . S
N127 C123 1.328 . S
N127 C126 1.334 . S
N128 C124 1.331 . S
N128 C125 1.329 . S
H129 C123 0.930 . S
C130 O110 1.257 . S
C130 O131 1.244 . S
O131 C130 1.244 . S
O132 C108 1.257 . S
O132 Zn111 2.019 . S
H133 C126 0.930 . S
H134 C113 0.930 . S
H135 C125 0.930 . S
Zn136 N140 2.020 . S
Zn136 O144 2.019 . S
Zn136 N146 2.119 . S
Zn136 O154 1.975 . S
C137 N138 1.334 . S
C137 N141 1.336 . S
N138 C137 1.334 . S
N138 C139 1.334 . S
C139 N138 1.334 . S
C139 N140 1.336 . S
N140 Zn136 2.020 . S
N140 C139 1.336 . S
N140 N141 1.354 . S
N141 C137 1.336 . S
N141 N140 1.354 . S
N141 Zn145 2.020 . S
C142 O143 1.244 . S
C142 O166 1.257 . S
O143 C142 1.244 . S
O144 Zn136 2.019 . S
O144 C164 1.257 . S
Zn145 N141 2.020 . S
Zn145 O152 1.975 . S
Zn145 N161 2.119 . S
Zn145 O166 2.019 . S
N146 Zn136 2.119 . S
N146 C148 1.334 . S
N146 C149 1.328 . S
C147 C148 1.391 . S
C147 N150 1.329 . S
C147 H168 0.930 . S
C148 N146 1.334 . S
C148 C147 1.391 . S
C148 H155 0.930 . S
C149 N146 1.328 . S
C149 C151 1.392 . S
C149 H156 0.930 . S
N150 C147 1.329 . S
N150 C151 1.331 . S
C151 C149 1.392 . S
C151 N150 1.331 . S
O152 Zn145 1.975 . S
O152 C153 1.252 . S
C153 O152 1.252 . S
C153 O154 1.252 . S
O154 Zn136 1.975 . S
O154 C153 1.252 . S
H155 C148 0.930 . S
H156 C149 0.930 . S
C157 C158 1.392 . S
C157 N161 1.328 . S
C157 H163 0.930 . S
C158 C157 1.392 . S
C158 N162 1.331 . S
C159 C160 1.391 . S
C159 N162 1.329 . S
C159 H169 0.930 . S
C160 C159 1.391 . S
C160 N161 1.334 . S
C160 H167 0.930 . S
N161 Zn145 2.119 . S
N161 C157 1.328 . S
N161 C160 1.334 . S
N162 C158 1.331 . S
N162 C159 1.329 . S
H163 C157 0.930 . S
C164 O144 1.257 . S
C164 O165 1.244 . S
O165 C164 1.244 . S
O166 C142 1.257 . S
O166 Zn145 2.019 . S
H167 C160 0.930 . S
H168 C147 0.930 . S
H169 C159 0.930 . S
Zn170 N174 2.020 . S
Zn170 O178 2.019 . S
Zn170 N180 2.119 . S
Zn170 O188 1.975 . S
C171 N172 1.334 . S
C171 N175 1.336 . S
N172 C171 1.334 . S
N172 C173 1.334 . S
C173 N172 1.334 . S
C173 N174 1.336 . S
N174 Zn170 2.020 . S
N174 C173 1.336 . S
N174 N175 1.354 . S
N175 C171 1.336 . S
N175 N174 1.354 . S
N175 Zn179 2.020 . S
C176 O177 1.244 . S
C176 O200 1.257 . S
O177 C176 1.244 . S
O178 Zn170 2.019 . S
O178 C198 1.257 . S
Zn179 N175 2.020 . S
Zn179 O186 1.975 . S
Zn179 N195 2.119 . S
Zn179 O200 2.019 . S
N180 Zn170 2.119 . S
N180 C182 1.334 . S
N180 C183 1.328 . S
C181 C182 1.391 . S
C181 N184 1.329 . S
C181 H202 0.930 . S
C182 N180 1.334 . S
C182 C181 1.391 . S
C182 H189 0.930 . S
C183 N180 1.328 . S
C183 C185 1.392 . S
C183 H190 0.930 . S
N184 C181 1.329 . S
N184 C185 1.331 . S
C185 C183 1.392 . S
C185 N184 1.331 . S
O186 Zn179 1.975 . S
O186 C187 1.252 . S
C187 O186 1.252 . S
C187 O188 1.252 . S
O188 Zn170 1.975 . S
O188 C187 1.252 . S
H189 C182 0.930 . S
H190 C183 0.930 . S
C191 C192 1.392 . S
C191 N195 1.328 . S
C191 H197 0.930 . S
C192 C191 1.392 . S
C192 N196 1.331 . S
C193 C194 1.391 . S
C193 N196 1.329 . S
C193 H203 0.930 . S
C194 C193 1.391 . S
C194 N195 1.334 . S
C194 H201 0.930 . S
N195 Zn179 2.119 . S
N195 C191 1.328 . S
N195 C194 1.334 . S
N196 C192 1.331 . S
N196 C193 1.329 . S
H197 C191 0.930 . S
C198 O178 1.257 . S
C198 O199 1.244 . S
O199 C198 1.244 . S
O200 C176 1.257 . S
O200 Zn179 2.019 . S
H201 C194 0.930 . S
H202 C181 0.930 . S
H203 C193 0.930 . S
Zn204 N208 2.020 . S
Zn204 O212 2.019 . S
Zn204 N214 2.119 . S
Zn204 O222 1.975 . S
C205 N206 1.334 . S
C205 N209 1.336 . S
N206 C205 1.334 . S
N206 C207 1.334 . S
C207 N206 1.334 . S
C207 N208 1.336 . S
N208 Zn204 2.020 . S
N208 C207 1.336 . S
N208 N209 1.354 . S
N209 C205 1.336 . S
N209 N208 1.354 . S
N209 Zn213 2.020 . S
C210 O211 1.244 . S
C210 O234 1.257 . S
O211 C210 1.244 . S
O212 Zn204 2.019 . S
O212 C232 1.257 . S
Zn213 N209 2.020 . S
Zn213 O220 1.975 . S
Zn213 N229 2.119 . S
Zn213 O234 2.019 . S
N214 Zn204 2.119 . S
N214 C216 1.334 . S
N214 C217 1.328 . S
C215 C216 1.391 . S
C215 N218 1.329 . S
C215 H236 0.930 . S
C216 N214 1.334 . S
C216 C215 1.391 . S
C216 H223 0.930 . S
C217 N214 1.328 . S
C217 C219 1.392 . S
C217 H224 0.930 . S
N218 C215 1.329 . S
N218 C219 1.331 . S
C219 C217 1.392 . S
C219 N218 1.331 . S
O220 Zn213 1.975 . S
O220 C221 1.252 . S
C221 O220 1.252 . S
C221 O222 1.252 . S
O222 Zn204 1.975 . S
O222 C221 1.252 . S
H223 C216 0.930 . S
H224 C217 0.930 . S
C225 C226 1.392 . S
C225 N229 1.328 . S
C225 H231 0.930 . S
C226 C225 1.392 . S
C226 N230 1.331 . S
C227 C228 1.391 . S
C227 N230 1.329 . S
C227 H237 0.930 . S
C228 C227 1.391 . S
C228 N229 1.334 . S
C228 H235 0.930 . S
N229 Zn213 2.119 . S
N229 C225 1.328 . S
N229 C228 1.334 . S
N230 C226 1.331 . S
N230 C227 1.329 . S
H231 C225 0.930 . S
C232 O212 1.257 . S
C232 O233 1.244 . S
O233 C232 1.244 . S
O234 C210 1.257 . S
O234 Zn213 2.019 . S
H235 C228 0.930 . S
H236 C215 0.930 . S
H237 C227 0.930 . S
Zn238 N242 2.020 . S
Zn238 O246 2.019 . S
Zn238 N248 2.119 . S
Zn238 O256 1.975 . S
C239 N240 1.334 . S
C239 N243 1.336 . S
N240 C239 1.334 . S
N240 C241 1.334 . S
C241 N240 1.334 . S
C241 N242 1.336 . S
N242 Zn238 2.020 . S
N242 C241 1.336 . S
N242 N243 1.354 . S
N243 C239 1.336 . S
N243 N242 1.354 . S
N243 Zn247 2.020 . S
C244 O245 1.244 . S
C244 O268 1.257 . S
O245 C244 1.244 . S
O246 Zn238 2.019 . S
O246 C266 1.257 . S
Zn247 N243 2.020 . S
Zn247 O254 1.975 . S
Zn247 N263 2.119 . S
Zn247 O268 2.019 . S
N248 Zn238 2.119 . S
N248 C250 1.334 . S
N248 C251 1.328 . S
C249 C250 1.391 . S
C249 N252 1.329 . S
C249 H270 0.930 . S
C250 N248 1.334 . S
C250 C249 1.391 . S
C250 H257 0.930 . S
C251 N248 1.328 . S
C251 C253 1.392 . S
C251 H258 0.930 . S
N252 C249 1.329 . S
N252 C253 1.331 . S
C253 C251 1.392 . S
C253 N252 1.331 . S
O254 Zn247 1.975 . S
O254 C255 1.252 . S
C255 O254 1.252 . S
C255 O256 1.252 . S
O256 Zn238 1.975 . S
O256 C255 1.252 . S
H257 C250 0.930 . S
H258 C251 0.930 . S
C259 C260 1.392 . S
C259 N263 1.328 . S
C259 H265 0.930 . S
C260 C259 1.392 . S
C260 N264 1.331 . S
C261 C262 1.391 . S
C261 N264 1.329 . S
C261 H271 0.930 . S
C262 C261 1.391 . S
C262 N263 1.334 . S
C262 H269 0.930 . S
N263 Zn247 2.119 . S
N263 C259 1.328 . S
N263 C262 1.334 . S
N264 C260 1.331 . S
N264 C261 1.329 . S
H265 C259 0.930 . S
C266 O246 1.257 . S
C266 O267 1.244 . S
O267 C266 1.244 . S
O268 C244 1.257 . S
O268 Zn247 2.019 . S
H269 C262 0.930 . S
H270 C249 0.930 . S
H271 C261 0.930 . S
H272 C280 0.929 . S
H273 C282 0.930 . S
H274 C284 0.930 . S
H275 C287 0.929 . S
H276 C290 0.930 . S
H277 C292 0.960 1_556 S
H278 C292 0.960 . S
H279 C292 0.960 . S
C280 H272 0.929 . S
C280 C281 1.377 . S
C280 C282 1.384 . S
C281 C280 1.377 . S
C281 C287 1.390 . S
C282 H273 0.930 . S
C282 C280 1.384 . S
C282 C283 1.372 . S
C283 C282 1.372 . S
C283 C284 1.400 . S
C283 C288 1.490 . S
C284 H274 0.930 . S
C284 C283 1.400 . S
C284 C287 1.386 . S
H285 C301 0.930 . S
H286 C302 0.931 . S
C287 H275 0.929 . S
C287 C281 1.390 . S
C287 C284 1.386 . S
C288 C283 1.490 . S
C288 C290 1.395 . S
C288 C291 1.403 . S
H289 C295 0.930 . S
C290 H276 0.930 . S
C290 C288 1.395 . S
C290 C293 1.403 . S
C291 C288 1.403 . S
C291 C292 1.524 . S
C291 C295 1.400 1_554 S
C292 H277 0.960 1_554 S
C292 H278 0.960 . S
C292 H279 0.960 . S
C292 C291 1.524 . S
C293 C290 1.403 . S
C293 C294 1.392 1_554 S
C293 C297 1.495 . S
C294 C293 1.392 1_556 S
C294 C295 1.385 . S
C294 C296 1.478 . S
C295 H289 0.930 . S
C295 C291 1.400 1_556 S
C295 C294 1.385 . S
C296 C294 1.478 . S
C296 C298 1.381 . S
C296 C302 1.383 . S
C297 C293 1.495 . S
C297 H303 0.959 . S
C297 H304 0.961 . S
C297 H305 0.960 . S
C298 C296 1.381 . S
C298 C299 1.394 . S
C298 H306 0.930 1_556 S
C299 C298 1.394 . S
C299 C300 1.383 . S
C299 H307 0.929 . S
C300 C299 1.383 . S
C300 C301 1.377 . S
C301 H285 0.930 . S
C301 C300 1.377 . S
C301 C302 1.379 . S
C302 H286 0.931 . S
C302 C296 1.383 . S
C302 C301 1.379 . S
H303 C297 0.959 . S
H304 C297 0.961 . S
H305 C297 0.960 . S
H306 C298 0.930 1_554 S
H307 C299 0.929 . S
H308 C316 0.929 . S
H309 C318 0.930 . S
H310 C320 0.930 . S
H311 C323 0.929 . S
H312 C326 0.930 . S
H313 C328 0.960 . S
H314 C328 0.960 . S
H315 C328 0.960 . S
C316 H308 0.929 . S
C316 C317 1.377 . S
C316 C318 1.384 . S
C317 C316 1.377 . S
C317 C323 1.390 . S
C318 H309 0.930 . S
C318 C316 1.384 . S
C318 C319 1.372 . S
C319 C318 1.372 . S
C319 C320 1.400 . S
C319 C324 1.490 . S
C320 H310 0.930 . S
C320 C319 1.400 . S
C320 C323 1.386 . S
H321 C337 0.930 . S
H322 C338 0.931 . S
C323 H311 0.929 . S
C323 C317 1.390 . S
C323 C320 1.386 . S
C324 C319 1.490 . S
C324 C326 1.395 . S
C324 C327 1.403 . S
H325 C331 0.930 . S
C326 H312 0.930 . S
C326 C324 1.395 . S
C326 C329 1.403 . S
C327 C324 1.403 . S
C327 C328 1.524 . S
C327 C331 1.400 . S
C328 H313 0.960 . S
C328 H314 0.960 . S
C328 H315 0.960 . S
C328 C327 1.524 . S
C329 C326 1.403 . S
C329 C330 1.392 . S
C329 C333 1.495 . S
C330 C329 1.392 . S
C330 C331 1.385 . S
C330 C332 1.478 . S
C331 H325 0.930 . S
C331 C327 1.400 . S
C331 C330 1.385 . S
C332 C330 1.478 . S
C332 C334 1.381 . S
C332 C338 1.383 . S
C333 C329 1.495 . S
C333 H339 0.959 . S
C333 H340 0.961 . S
C333 H341 0.960 . S
C334 C332 1.381 . S
C334 C335 1.394 . S
C334 H342 0.930 . S
C335 C334 1.394 . S
C335 C336 1.383 . S
C335 H343 0.929 . S
C336 C335 1.383 . S
C336 C337 1.377 . S
C337 H321 0.930 . S
C337 C336 1.377 . S
C337 C338 1.379 . S
C338 H322 0.931 . S
C338 C332 1.383 . S
C338 C337 1.379 . S
H339 C333 0.959 . S
H340 C333 0.961 . S
H341 C333 0.960 . S
H342 C334 0.930 . S
H343 C335 0.929 . S
H344 C352 0.929 . S
H345 C354 0.930 . S
H346 C356 0.930 . S
H347 C359 0.929 . S
H348 C362 0.930 . S
H349 C364 0.960 1_564 S
H350 C364 0.960 . S
H351 C364 0.960 1_565 S
C352 H344 0.929 . S
C352 C353 1.377 . S
C352 C354 1.384 . S
C353 C352 1.377 . S
C353 C359 1.390 . S
C354 H345 0.930 . S
C354 C352 1.384 . S
C354 C355 1.372 . S
C355 C354 1.372 . S
C355 C356 1.400 . S
C355 C360 1.490 . S
C356 H346 0.930 . S
C356 C355 1.400 . S
C356 C359 1.386 . S
H357 C373 0.930 . S
H358 C374 0.931 . S
C359 H347 0.929 . S
C359 C353 1.390 . S
C359 C356 1.386 . S
C360 C355 1.490 . S
C360 C362 1.395 . S
C360 C363 1.403 . S
H361 C367 0.930 . S
C362 H348 0.930 . S
C362 C360 1.395 . S
C362 C365 1.403 . S
C363 C360 1.403 . S
C363 C364 1.524 . S
C363 C367 1.400 1_546 S
C364 H349 0.960 1_546 S
C364 H350 0.960 . S
C364 H351 0.960 1_545 S
C364 C363 1.524 . S
C365 C362 1.403 . S
C365 C366 1.392 1_546 S
C365 C369 1.495 . S
C366 C365 1.392 1_564 S
C366 C367 1.385 . S
C366 C368 1.478 . S
C367 H361 0.930 . S
C367 C363 1.400 1_564 S
C367 C366 1.385 . S
C368 C366 1.478 . S
C368 C370 1.381 . S
C368 C374 1.383 . S
C369 C365 1.495 . S
C369 H375 0.959 . S
C369 H376 0.961 . S
C369 H377 0.960 . S
C370 C368 1.381 . S
C370 C371 1.394 . S
C370 H378 0.930 1_565 S
C371 C370 1.394 . S
C371 C372 1.383 . S
C371 H379 0.929 . S
C372 C371 1.383 . S
C372 C373 1.377 . S
C373 H357 0.930 . S
C373 C372 1.377 . S
C373 C374 1.379 . S
C374 H358 0.931 . S
C374 C368 1.383 . S
C374 C373 1.379 . S
H375 C369 0.959 . S
H376 C369 0.961 . S
H377 C369 0.960 . S
H378 C370 0.930 1_545 S
H379 C371 0.929 . S
H380 C388 0.929 . S
H381 C390 0.930 . S
H382 C392 0.930 . S
H383 C395 0.929 . S
H384 C398 0.930 . S
H385 C400 0.960 . S
H386 C400 0.960 . S
H387 C400 0.960 . S
C388 H380 0.929 . S
C388 C389 1.377 . S
C388 C390 1.384 . S
C389 C388 1.377 . S
C389 C395 1.390 . S
C390 H381 0.930 . S
C390 C388 1.384 . S
C390 C391 1.372 . S
C391 C390 1.372 . S
C391 C392 1.400 . S
C391 C396 1.490 . S
C392 H382 0.930 . S
C392 C391 1.400 . S
C392 C395 1.386 . S
H393 C409 0.930 . S
H394 C410 0.931 . S
C395 H383 0.929 . S
C395 C389 1.390 . S
C395 C392 1.386 . S
C396 C391 1.490 . S
C396 C398 1.395 1_565 S
C396 C399 1.403 . S
H397 C403 0.930 . S
C398 H384 0.930 . S
C398 C396 1.395 1_545 S
C398 C401 1.403 . S
C399 C396 1.403 . S
C399 C400 1.524 . S
C399 C403 1.400 . S
C400 H385 0.960 . S
C400 H386 0.960 . S
C400 H387 0.960 . S
C400 C399 1.524 . S
C401 C398 1.403 . S
C401 C402 1.392 . S
C401 C405 1.495 . S
C402 C401 1.392 . S
C402 C403 1.385 1_545 S
C402 C404 1.478 . S
C403 H397 0.930 . S
C403 C399 1.400 . S
C403 C402 1.385 1_565 S
C404 C402 1.478 . S
C404 C406 1.381 . S
C404 C410 1.383 . S
C405 C401 1.495 . S
C405 H411 0.959 . S
C405 H412 0.961 . S
C405 H413 0.960 . S
C406 C404 1.381 . S
C406 C407 1.394 . S
C406 H414 0.930 . S
C407 C406 1.394 . S
C407 C408 1.383 . S
C407 H415 0.929 . S
C408 C407 1.383 . S
C408 C409 1.377 . S
C409 H393 0.930 . S
C409 C408 1.377 . S
C409 C410 1.379 . S
C410 H394 0.931 . S
C410 C404 1.383 . S
C410 C409 1.379 . S
H411 C405 0.959 . S
H412 C405 0.961 . S
H413 C405 0.960 . S
H414 C406 0.930 . S
H415 C407 0.929 . S
H416 C424 0.929 . S
H417 C426 0.930 . S
H418 C428 0.930 . S
H419 C431 0.929 . S
H420 C434 0.930 . S
H421 C436 0.960 . S
H422 C436 0.956 1_556 S
H423 C436 0.960 . S
C424 H416 0.929 . S
C424 C425 1.377 . S
C424 C426 1.384 . S
C425 C424 1.377 . S
C425 C431 1.390 . S
C426 H417 0.930 . S
C426 C424 1.384 . S
C426 C427 1.372 . S
C427 C426 1.372 . S
C427 C428 1.400 . S
C427 C432 1.490 . S
C428 H418 0.930 . S
C428 C427 1.400 . S
C428 C431 1.386 . S
H429 C445 0.930 . S
H430 C446 0.931 . S
C431 H419 0.929 . S
C431 C425 1.390 . S
C431 C428 1.386 . S
C432 C427 1.490 . S
C432 C434 1.395 . S
C432 C435 1.403 . S
H433 C439 0.930 . S
C434 H420 0.930 . S
C434 C432 1.395 . S
C434 C437 1.403 . S
C435 C432 1.403 . S
C435 C436 1.524 1_556 S
C435 C439 1.400 1_556 S
C436 H421 0.960 . S
C436 H422 0.956 1_554 S
C436 H423 0.960 . S
C436 C435 1.524 1_554 S
C437 C434 1.403 . S
C437 C438 1.407 . S
C437 C441 1.495 . S
C438 C437 1.407 . S
C438 C439 1.380 1_556 S
C438 C440 1.468 1_556 S
C439 H433 0.930 . S
C439 C435 1.400 1_554 S
C439 C438 1.380 1_554 S
C440 C438 1.468 1_554 S
C440 C442 1.381 . S
C440 C446 1.383 . S
C441 C437 1.495 . S
C441 H447 0.959 . S
C441 H448 0.961 . S
C441 H449 0.960 . S
C442 C440 1.381 . S
C442 C443 1.394 . S
C442 H450 0.930 . S
C443 C442 1.394 . S
C443 C444 1.383 . S
C443 H451 0.929 . S
C444 C443 1.383 . S
C444 C445 1.377 . S
C445 H429 0.930 . S
C445 C444 1.377 . S
C445 C446 1.379 . S
C446 H430 0.931 . S
C446 C440 1.383 . S
C446 C445 1.379 . S
H447 C441 0.959 . S
H448 C441 0.961 . S
H449 C441 0.960 . S
H450 C442 0.930 . S
H451 C443 0.929 . S
H452 C460 0.929 . S
H453 C462 0.930 . S
H454 C464 0.930 . S
H455 C467 0.929 . S
H456 C470 0.930 . S
H457 C472 0.960 . S
H458 C472 0.960 . S
H459 C472 0.960 . S
C460 H452 0.929 . S
C460 C461 1.377 . S
C460 C462 1.384 . S
C461 C460 1.377 . S
C461 C467 1.390 . S
C462 H453 0.930 . S
C462 C460 1.384 . S
C462 C463 1.372 . S
C463 C462 1.372 . S
C463 C464 1.400 . S
C463 C468 1.490 . S
C464 H454 0.930 . S
C464 C463 1.400 . S
C464 C467 1.386 . S
H465 C481 0.930 . S
H466 C482 0.931 . S
C467 H455 0.929 . S
C467 C461 1.390 . S
C467 C464 1.386 . S
C468 C463 1.490 . S
C468 C470 1.395 . S
C468 C471 1.403 . S
H469 C475 0.930 . S
C470 H456 0.930 . S
C470 C468 1.395 . S
C470 C473 1.403 . S
C471 C468 1.403 . S
C471 C472 1.524 . S
C471 C475 1.400 . S
C472 H457 0.960 . S
C472 H458 0.960 . S
C472 H459 0.960 . S
C472 C471 1.524 . S
C473 C470 1.403 . S
C473 C474 1.392 . S
C473 C477 1.495 . S
C474 C473 1.392 . S
C474 C475 1.385 . S
C474 C476 1.478 . S
C475 H469 0.930 . S
C475 C471 1.400 . S
C475 C474 1.385 . S
C476 C474 1.478 . S
C476 C478 1.381 . S
C476 C482 1.383 . S
C477 C473 1.495 . S
C477 H483 0.959 . S
C477 H484 0.961 . S
C477 H485 0.960 . S
C478 C476 1.381 . S
C478 C479 1.394 . S
C478 H486 0.930 . S
C479 C478 1.394 . S
C479 C480 1.383 . S
C479 H487 0.929 . S
C480 C479 1.383 . S
C480 C481 1.377 . S
C481 H465 0.930 . S
C481 C480 1.377 . S
C481 C482 1.379 . S
C482 H466 0.931 . S
C482 C476 1.383 . S
C482 C481 1.379 . S
H483 C477 0.959 . S
H484 C477 0.961 . S
H485 C477 0.960 . S
H486 C478 0.930 . S
H487 C479 0.929 . S
H488 C496 0.929 . S
H489 C498 0.930 1_565 S
H490 C500 0.930 . S
H491 C503 0.929 . S
H492 C506 0.932 . S
H493 C508 0.960 . S
H494 C508 0.960 . S
H495 C508 0.960 1_545 S
C496 H488 0.929 . S
C496 C497 1.377 . S
C496 C498 1.384 . S
C497 C496 1.377 . S
C497 C503 1.390 . S
C498 H489 0.930 1_545 S
C498 C496 1.384 . S
C498 C499 1.372 . S
C499 C498 1.372 . S
C499 C500 1.400 . S
C499 C504 1.490 . S
C500 H490 0.930 . S
C500 C499 1.400 . S
C500 C503 1.386 . S
H501 C517 0.930 . S
H502 C518 0.931 . S
C503 H491 0.929 . S
C503 C497 1.390 . S
C503 C500 1.386 . S
C504 C499 1.490 . S
C504 C506 1.395 1_556 S
C504 C507 1.403 1_545 S
H505 C511 0.930 . S
C506 H492 0.932 . S
C506 C504 1.395 1_554 S
C506 C509 1.401 1_545 S
C507 C504 1.403 1_565 S
C507 C508 1.524 . S
C507 C511 1.400 1_556 S
C508 H493 0.960 . S
C508 H494 0.960 . S
C508 H495 0.960 1_565 S
C508 C507 1.524 . S
C509 C506 1.401 1_565 S
C509 C510 1.392 . S
C509 C513 1.495 . S
C510 C509 1.392 . S
C510 C511 1.385 . S
C510 C512 1.478 . S
C511 H505 0.930 . S
C511 C507 1.400 1_554 S
C511 C510 1.385 . S
C512 C510 1.478 . S
C512 C514 1.381 . S
C512 C518 1.383 . S
C513 C509 1.495 . S
C513 H519 0.959 . S
C513 H520 0.961 . S
C513 H521 0.960 . S
C514 C512 1.381 . S
C514 C515 1.394 . S
C514 H522 0.930 . S
C515 C514 1.394 . S
C515 C516 1.383 . S
C515 H523 0.929 . S
C516 C515 1.383 . S
C516 C517 1.377 . S
C517 H501 0.930 . S
C517 C516 1.377 . S
C517 C518 1.379 . S
C518 H502 0.931 . S
C518 C512 1.383 . S
C518 C517 1.379 . S
H519 C513 0.959 . S
H520 C513 0.961 . S
H521 C513 0.960 . S
H522 C514 0.930 . S
H523 C515 0.929 . S
H524 C532 0.929 . S
H525 C534 0.930 . S
H526 C536 0.930 . S
H527 C539 0.929 . S
H528 C542 0.930 . S
H529 C544 0.960 . S
H530 C544 0.960 . S
H531 C544 0.960 . S
C532 H524 0.929 . S
C532 C533 1.377 . S
C532 C534 1.384 . S
C533 C532 1.377 . S
C533 C539 1.390 . S
C534 H525 0.930 . S
C534 C532 1.384 . S
C534 C535 1.372 . S
C535 C534 1.372 . S
C535 C536 1.400 . S
C535 C540 1.490 . S
C536 H526 0.930 . S
C536 C535 1.400 . S
C536 C539 1.386 . S
H537 C553 0.930 . S
H538 C554 0.931 . S
C539 H527 0.929 . S
C539 C533 1.390 . S
C539 C536 1.386 . S
C540 C535 1.490 . S
C540 C542 1.395 . S
C540 C543 1.403 . S
H541 C547 0.930 . S
C542 H528 0.930 . S
C542 C540 1.395 . S
C542 C545 1.403 1_545 S
C543 C540 1.403 . S
C543 C544 1.524 . S
C543 C547 1.400 . S
C544 H529 0.960 . S
C544 H530 0.960 . S
C544 H531 0.960 . S
C544 C543 1.524 . S
C545 C542 1.403 1_565 S
C545 C546 1.392 . S
C545 C549 1.495 . S
C546 C545 1.392 . S
C546 C547 1.385 1_565 S
C546 C548 1.478 . S
C547 H541 0.930 . S
C547 C543 1.400 . S
C547 C546 1.385 1_545 S
C548 C546 1.478 . S
C548 C550 1.381 . S
C548 C554 1.383 . S
C549 C545 1.495 . S
C549 H555 0.959 . S
C549 H556 0.961 . S
C549 H557 0.960 . S
C550 C548 1.381 . S
C550 C551 1.394 . S
C550 H558 0.919 1_565 S
C551 C550 1.394 . S
C551 C552 1.383 . S
C551 H559 0.929 . S
C552 C551 1.383 . S
C552 C553 1.377 . S
C553 H537 0.930 . S
C553 C552 1.377 . S
C553 C554 1.379 . S
C554 H538 0.931 . S
C554 C548 1.383 . S
C554 C553 1.379 . S
H555 C549 0.959 . S
H556 C549 0.961 . S
H557 C549 0.960 . S
H558 C550 0.919 1_545 S
H559 C551 0.929 . S
H560 C568 0.929 . S
H561 C570 0.930 . S
H562 C572 0.930 . S
H563 C575 0.929 . S
H564 C578 0.930 . S
H565 C580 0.960 . S
H566 C580 0.960 1_554 S
H567 C580 0.960 . S
C568 H560 0.929 . S
C568 C569 1.377 . S
C568 C570 1.384 . S
C569 C568 1.377 . S
C569 C575 1.390 . S
C570 H561 0.930 . S
C570 C568 1.384 . S
C570 C571 1.372 . S
C571 C570 1.372 . S
C571 C572 1.400 . S
C571 C576 1.490 . S
C572 H562 0.930 . S
C572 C571 1.400 . S
C572 C575 1.386 . S
H573 C589 0.930 . S
H574 C590 0.931 . S
C575 H563 0.929 . S
C575 C569 1.390 . S
C575 C572 1.386 . S
C576 C571 1.490 . S
C576 C578 1.395 . S
C576 C579 1.403 1_554 S
H577 C583 0.930 . S
C578 H564 0.930 . S
C578 C576 1.395 . S
C578 C581 1.403 . S
C579 C576 1.403 1_556 S
C579 C580 1.524 . S
C579 C583 1.400 . S
C580 H565 0.960 . S
C580 H566 0.960 1_556 S
C580 H567 0.960 . S
C580 C579 1.524 . S
C581 C578 1.403 . S
C581 C582 1.392 1_554 S
C581 C585 1.495 . S
C582 C581 1.392 1_556 S
C582 C583 1.385 . S
C582 C584 1.478 . S
C583 H577 0.930 . S
C583 C579 1.400 . S
C583 C582 1.385 . S
C584 C582 1.478 . S
C584 C586 1.381 . S
C584 C590 1.383 . S
C585 C581 1.495 . S
C585 H591 0.959 . S
C585 H592 0.961 1_554 S
C585 H593 0.960 . S
C586 C584 1.381 . S
C586 C587 1.394 . S
C586 H594 0.948 . S
C587 C586 1.394 . S
C587 C588 1.383 . S
C587 H595 0.929 . S
C588 C587 1.383 . S
C588 C589 1.377 . S
C589 H573 0.930 . S
C589 C588 1.377 . S
C589 C590 1.379 . S
C590 H574 0.931 . S
C590 C584 1.383 . S
C590 C589 1.379 . S
H591 C585 0.959 . S
H592 C585 0.961 1_556 S
H593 C585 0.960 . S
H594 C586 0.948 . S
H595 C587 0.929 . S
H596 C604 0.929 . S
H597 C606 0.930 . S
H598 C608 0.930 . S
H599 C611 0.929 . S
H600 C614 0.930 . S
H601 C616 0.960 . S
H602 C616 0.960 . S
H603 C616 0.960 . S
C604 H596 0.929 . S
C604 C605 1.377 . S
C604 C606 1.384 . S
C605 C604 1.377 . S
C605 C611 1.390 . S
C606 H597 0.930 . S
C606 C604 1.384 . S
C606 C607 1.372 . S
C607 C606 1.372 . S
C607 C608 1.400 . S
C607 C612 1.490 . S
C608 H598 0.930 . S
C608 C607 1.400 . S
C608 C611 1.386 . S
H609 C625 0.930 . S
H610 C626 0.931 . S
C611 H599 0.929 . S
C611 C605 1.390 . S
C611 C608 1.386 . S
C612 C607 1.490 . S
C612 C614 1.395 1_655 S
C612 C615 1.403 . S
H613 C619 0.930 . S
C614 H600 0.930 . S
C614 C612 1.395 1_455 S
C614 C617 1.403 . S
C615 C612 1.403 . S
C615 C616 1.524 . S
C615 C619 1.400 . S
C616 H601 0.960 . S
C616 H602 0.960 . S
C616 H603 0.960 . S
C616 C615 1.524 . S
C617 C614 1.403 . S
C617 C618 1.392 . S
C617 C621 1.495 . S
C618 C617 1.392 . S
C618 C619 1.385 1_455 S
C618 C620 1.478 . S
C619 H613 0.930 . S
C619 C615 1.400 . S
C619 C618 1.385 1_655 S
C620 C618 1.478 . S
C620 C622 1.381 . S
C620 C626 1.383 . S
C621 C617 1.495 . S
C621 H627 0.959 . S
C621 H628 0.961 . S
C621 H629 0.960 . S
C622 C620 1.381 . S
C622 C623 1.394 . S
C622 H630 0.930 . S
C623 C622 1.394 . S
C623 C624 1.383 . S
C623 H631 0.929 . S
C624 C623 1.383 . S
C624 C625 1.377 . S
C625 H609 0.930 . S
C625 C624 1.377 . S
C625 C626 1.379 . S
C626 H610 0.931 . S
C626 C620 1.383 . S
C626 C625 1.379 . S
H627 C621 0.959 . S
H628 C621 0.961 . S
H629 C621 0.960 . S
H630 C622 0.930 . S
H631 C623 0.929 . S
H632 C640 0.929 . S
H633 C642 0.930 . S
H634 C644 0.955 . S
H635 C647 0.929 . S
H636 C650 0.930 . S
H637 C652 0.987 . S
H638 C652 0.960 . S
H639 C652 0.960 . S
C640 H632 0.929 . S
C640 C641 1.377 . S
C640 C642 1.384 . S
C641 C640 1.377 . S
C641 C647 1.390 . S
C642 H633 0.930 . S
C642 C640 1.384 . S
C642 C643 1.372 . S
C643 C642 1.372 . S
C643 C644 1.400 . S
C643 C648 1.490 . S
C644 H634 0.955 . S
C644 C643 1.400 . S
C644 C647 1.386 . S
H645 C661 0.930 . S
H646 C662 0.931 . S
C647 H635 0.929 . S
C647 C641 1.390 . S
C647 C644 1.386 . S
C648 C643 1.490 . S
C648 C650 1.395 1_554 S
C648 C651 1.403 1_455 S
H649 C655 0.930 . S
C650 H636 0.930 . S
C650 C648 1.395 1_556 S
C650 C653 1.403 1_565 S
C651 C648 1.403 1_655 S
C651 C652 1.524 . S
C651 C655 1.400 1_565 S
C652 H637 0.987 . S
C652 H638 0.960 . S
C652 H639 0.960 . S
C652 C651 1.524 . S
C653 C650 1.403 1_545 S
C653 C654 1.392 1_455 S
C653 C657 1.495 . S
C654 C653 1.392 1_655 S
C654 C655 1.385 1_556 S
C654 C656 1.478 . S
C655 H649 0.930 . S
C655 C651 1.400 1_545 S
C655 C654 1.385 1_554 S
C656 C654 1.478 . S
C656 C658 1.381 . S
C656 C662 1.383 . S
C657 C653 1.495 . S
C657 H663 0.959 . S
C657 H664 0.961 . S
C657 H665 0.960 . S
C658 C656 1.381 . S
C658 C659 1.394 . S
C658 H666 0.897 1_655 S
C659 C658 1.394 . S
C659 C660 1.383 . S
C659 H667 0.929 . S
C660 C659 1.383 . S
C660 C661 1.377 . S
C661 H645 0.930 . S
C661 C660 1.377 . S
C661 C662 1.379 . S
C662 H646 0.931 . S
C662 C656 1.383 . S
C662 C661 1.379 . S
H663 C657 0.959 . S
H664 C657 0.961 . S
H665 C657 0.960 . S
H666 C658 0.897 1_455 S
H667 C659 0.929 . S
H668 C676 0.929 . S
H669 C678 0.930 . S
H670 C680 0.930 . S
H671 C683 0.929 . S
H672 C686 0.930 . S
H673 C688 0.960 1_565 S
H674 C688 0.959 . S
H675 C688 0.960 . S
C676 H668 0.929 . S
C676 C677 1.377 . S
C676 C678 1.384 . S
C677 C676 1.377 . S
C677 C683 1.390 . S
C678 H669 0.930 . S
C678 C676 1.384 . S
C678 C679 1.372 . S
C679 C678 1.372 . S
C679 C680 1.400 . S
C679 C684 1.490 . S
C680 H670 0.930 . S
C680 C679 1.400 . S
C680 C683 1.386 . S
H681 C697 0.930 . S
H682 C698 0.931 . S
C683 H671 0.929 . S
C683 C677 1.390 . S
C683 C680 1.386 . S
C684 C679 1.490 . S
C684 C686 1.395 . S
C684 C687 1.403 . S
H685 C691 0.930 . S
C686 H672 0.930 . S
C686 C684 1.395 . S
C686 C689 1.403 1_545 S
C687 C684 1.403 . S
C687 C688 1.524 . S
C687 C691 1.400 1_545 S
C688 H673 0.960 1_545 S
C688 H674 0.959 . S
C688 H675 0.960 . S
C688 C687 1.524 . S
C689 C686 1.403 1_565 S
C689 C690 1.392 . S
C689 C693 1.495 . S
C690 C689 1.392 . S
C690 C691 1.385 . S
C690 C692 1.478 . S
C691 H685 0.930 . S
C691 C687 1.400 1_565 S
C691 C690 1.385 . S
C692 C690 1.478 . S
C692 C694 1.381 . S
C692 C698 1.383 . S
C693 C689 1.495 . S
C693 H699 0.959 1_565 S
C693 H700 0.961 . S
C693 H701 0.960 . S
C694 C692 1.381 . S
C694 C695 1.394 . S
C694 H702 0.930 . S
C695 C694 1.394 . S
C695 C696 1.383 . S
C695 H703 0.929 . S
C696 C695 1.383 . S
C696 C697 1.377 . S
C697 H681 0.930 . S
C697 C696 1.377 . S
C697 C698 1.379 . S
C698 H682 0.931 . S
C698 C692 1.383 . S
C698 C697 1.379 . S
H699 C693 0.959 1_545 S
H700 C693 0.961 . S
H701 C693 0.960 . S
H702 C694 0.930 . S
H703 C695 0.929 . S
H704 C712 0.929 . S
H705 C714 0.930 . S
H706 C716 0.930 . S
H707 C719 0.929 . S
H708 C722 0.930 . S
H709 C724 0.960 . S
H710 C724 0.960 . S
H711 C724 0.960 . S
C712 H704 0.929 . S
C712 C713 1.377 . S
C712 C714 1.384 . S
C713 C712 1.377 . S
C713 C719 1.390 . S
C714 H705 0.930 . S
C714 C712 1.384 . S
C714 C715 1.372 . S
C715 C714 1.372 . S
C715 C716 1.400 . S
C715 C720 1.490 . S
C716 H706 0.930 . S
C716 C715 1.400 . S
C716 C719 1.386 . S
H717 C733 0.930 . S
H718 C734 0.931 1_556 S
C719 H707 0.929 . S
C719 C713 1.390 . S
C719 C716 1.386 . S
C720 C715 1.490 . S
C720 C722 1.395 . S
C720 C723 1.403 . S
H721 C727 0.930 . S
C722 H708 0.930 . S
C722 C720 1.395 . S
C722 C725 1.403 . S
C723 C720 1.403 . S
C723 C724 1.524 . S
C723 C727 1.400 . S
C724 H709 0.960 . S
C724 H710 0.960 . S
C724 H711 0.960 . S
C724 C723 1.524 . S
C725 C722 1.403 . S
C725 C726 1.392 . S
C725 C729 1.495 . S
C726 C725 1.392 . S
C726 C727 1.385 . S
C726 C728 1.478 1_556 S
C727 H721 0.930 . S
C727 C723 1.400 . S
C727 C726 1.385 . S
C728 C726 1.478 1_554 S
C728 C730 1.381 . S
C728 C734 1.383 . S
C729 C725 1.495 . S
C729 H735 0.959 . S
C729 H736 0.961 . S
C729 H737 0.960 . S
C730 C728 1.381 . S
C730 C731 1.394 . S
C730 H738 0.930 . S
C731 C730 1.394 . S
C731 C732 1.383 . S
C731 H739 0.929 . S
C732 C731 1.383 . S
C732 C733 1.377 . S
C733 H717 0.930 . S
C733 C732 1.377 . S
C733 C734 1.379 . S
C734 H718 0.931 1_554 S
C734 C728 1.383 . S
C734 C733 1.379 . S
H735 C729 0.959 . S
H736 C729 0.961 . S
H737 C729 0.960 . S
H738 C730 0.930 . S
H739 C731 0.929 . S
H740 C748 0.929 . S
H741 C750 0.930 . S
H742 C752 0.930 . S
H743 C755 0.929 . S
H744 C758 0.930 . S
H745 C760 0.960 . S
H746 C760 0.960 . S
H747 C760 0.960 . S
C748 H740 0.929 . S
C748 C749 1.377 . S
C748 C750 1.384 . S
C749 C748 1.377 . S
C749 C755 1.390 . S
C750 H741 0.930 . S
C750 C748 1.384 . S
C750 C751 1.372 . S
C751 C750 1.372 . S
C751 C752 1.400 . S
C751 C756 1.490 . S
C752 H742 0.930 . S
C752 C751 1.400 . S
C752 C755 1.386 . S
H753 C769 0.930 . S
H754 C770 0.931 . S
C755 H743 0.929 . S
C755 C749 1.390 . S
C755 C752 1.386 . S
C756 C751 1.490 . S
C756 C758 1.395 . S
C756 C759 1.403 . S
H757 C763 0.930 . S
C758 H744 0.930 . S
C758 C756 1.395 . S
C758 C761 1.403 . S
C759 C756 1.403 . S
C759 C760 1.524 . S
C759 C763 1.400 . S
C760 H745 0.960 . S
C760 H746 0.960 . S
C760 H747 0.960 . S
C760 C759 1.524 . S
C761 C758 1.403 . S
C761 C762 1.392 . S
C761 C765 1.495 . S
C762 C761 1.392 . S
C762 C763 1.385 . S
C762 C764 1.478 . S
C763 H757 0.930 . S
C763 C759 1.400 . S
C763 C762 1.385 . S
C764 C762 1.478 . S
C764 C766 1.381 . S
C764 C770 1.383 . S
C765 C761 1.495 . S
C765 H771 0.959 . S
C765 H772 0.961 . S
C765 H773 0.960 . S
C766 C764 1.381 . S
C766 C767 1.394 . S
C766 H774 0.930 . S
C767 C766 1.394 . S
C767 C768 1.383 . S
C767 H775 0.929 . S
C768 C767 1.383 . S
C768 C769 1.377 . S
C769 H753 0.930 . S
C769 C768 1.377 . S
C769 C770 1.379 . S
C770 H754 0.931 . S
C770 C764 1.383 . S
C770 C769 1.379 . S
H771 C765 0.959 . S
H772 C765 0.961 . S
H773 C765 0.960 . S
H774 C766 0.930 . S
H775 C767 0.929 . S
H776 C784 0.929 . S
H777 C786 0.930 . S
H778 C788 0.930 1_554 S
H779 C791 0.929 . S
H780 C794 0.930 . S
H781 C796 0.960 . S
H782 C796 0.960 . S
H783 C796 0.960 . S
C784 H776 0.929 . S
C784 C785 1.377 . S
C784 C786 1.384 . S
C785 C784 1.377 . S
C785 C791 1.390 . S
C786 H777 0.930 . S
C786 C784 1.384 . S
C786 C787 1.372 . S
C787 C786 1.372 . S
C787 C788 1.400 . S
C787 C792 1.490 1_556 S
C788 H778 0.930 1_556 S
C788 C787 1.400 . S
C788 C791 1.386 . S
H789 C805 0.930 . S
H790 C806 0.931 . S
C791 H779 0.929 . S
C791 C785 1.390 . S
C791 C788 1.386 . S
C792 C787 1.490 1_554 S
C792 C794 1.395 . S
C792 C795 1.403 . S
H793 C799 0.930 . S
C794 H780 0.930 . S
C794 C792 1.395 . S
C794 C797 1.403 . S
C795 C792 1.403 . S
C795 C796 1.524 . S
C795 C799 1.400 . S
C796 H781 0.960 . S
C796 H782 0.960 . S
C796 H783 0.960 . S
C796 C795 1.524 . S
C797 C794 1.403 . S
C797 C798 1.392 . S
C797 C801 1.495 . S
C798 C797 1.392 . S
C798 C799 1.385 . S
C798 C800 1.478 . S
C799 H793 0.930 . S
C799 C795 1.400 . S
C799 C798 1.385 . S
C800 C798 1.478 . S
C800 C802 1.381 . S
C800 C806 1.383 . S
C801 C797 1.495 . S
C801 H807 0.959 . S
C801 H808 0.961 . S
C801 H809 0.960 . S
C802 C800 1.381 . S
C802 C803 1.394 . S
C802 H810 0.930 . S
C803 C802 1.394 . S
C803 C804 1.383 . S
C803 H811 0.929 . S
C804 C803 1.383 . S
C804 C805 1.377 . S
C805 H789 0.930 . S
C805 C804 1.377 . S
C805 C806 1.379 . S
C806 H790 0.931 . S
C806 C800 1.383 . S
C806 C805 1.379 . S
H807 C801 0.959 . S
H808 C801 0.961 . S
H809 C801 0.960 . S
H810 C802 0.930 . S
H811 C803 0.929 . S
H812 C820 0.929 . S
H813 C822 0.930 . S
H814 C824 0.930 . S
H815 C827 0.929 . S
H816 C830 0.930 . S
H817 C832 0.960 . S
H818 C832 0.960 . S
H819 C832 0.960 . S
C820 H812 0.929 . S
C820 C821 1.377 . S
C820 C822 1.384 . S
C821 C820 1.377 . S
C821 C827 1.390 . S
C822 H813 0.930 . S
C822 C820 1.384 . S
C822 C823 1.372 . S
C823 C822 1.372 . S
C823 C824 1.400 . S
C823 C828 1.490 . S
C824 H814 0.930 . S
C824 C823 1.400 . S
C824 C827 1.386 . S
H825 C841 0.930 . S
H826 C842 0.931 . S
C827 H815 0.929 . S
C827 C821 1.390 . S
C827 C824 1.386 . S
C828 C823 1.490 . S
C828 C830 1.395 . S
C828 C831 1.403 . S
H829 C835 0.930 . S
C830 H816 0.930 . S
C830 C828 1.395 . S
C830 C833 1.403 . S
C831 C828 1.403 . S
C831 C832 1.524 . S
C831 C835 1.400 . S
C832 H817 0.960 . S
C832 H818 0.960 . S
C832 H819 0.960 . S
C832 C831 1.524 . S
C833 C830 1.403 . S
C833 C834 1.392 . S
C833 C837 1.495 . S
C834 C833 1.392 . S
C834 C835 1.385 . S
C834 C836 1.478 . S
C835 H829 0.930 . S
C835 C831 1.400 . S
C835 C834 1.385 . S
C836 C834 1.478 . S
C836 C838 1.381 . S
C836 C842 1.383 . S
C837 C833 1.495 . S
C837 H843 0.959 . S
C837 H844 0.961 . S
C837 H845 0.960 . S
C838 C836 1.381 . S
C838 C839 1.394 . S
C838 H846 0.930 . S
C839 C838 1.394 . S
C839 C840 1.383 . S
C839 H847 0.929 . S
C840 C839 1.383 . S
C840 C841 1.377 . S
C841 H825 0.930 . S
C841 C840 1.377 . S
C841 C842 1.379 . S
C842 H826 0.931 . S
C842 C836 1.383 . S
C842 C841 1.379 . S
H843 C837 0.959 . S
H844 C837 0.961 . S
H845 C837 0.960 . S
H846 C838 0.930 . S
H847 C839 0.929 . S
H848 C856 0.929 . S
H849 C858 0.930 1_554 S
H850 C860 0.930 . S
H851 C863 0.929 . S
H852 C866 0.930 1_556 S
H853 C868 0.960 . S
H854 C868 0.960 . S
H855 C868 0.960 . S
C856 H848 0.929 . S
C856 C857 1.377 . S
C856 C858 1.384 . S
C857 C856 1.377 . S
C857 C863 1.390 . S
C858 H849 0.930 1_556 S
C858 C856 1.384 . S
C858 C859 1.372 . S
C859 C858 1.372 . S
C859 C860 1.400 . S
C859 C864 1.490 1_556 S
C860 H850 0.930 . S
C860 C859 1.400 . S
C860 C863 1.386 . S
H861 C877 0.930 . S
H862 C878 0.931 . S
C863 H851 0.929 . S
C863 C857 1.390 . S
C863 C860 1.386 . S
C864 C859 1.490 1_554 S
C864 C866 1.395 . S
C864 C867 1.403 . S
H865 C871 0.930 . S
C866 H852 0.930 1_554 S
C866 C864 1.395 . S
C866 C869 1.403 . S
C867 C864 1.403 . S
C867 C868 1.524 . S
C867 C871 1.400 . S
C868 H853 0.960 . S
C868 H854 0.960 . S
C868 H855 0.960 . S
C868 C867 1.524 . S
C869 C866 1.403 . S
C869 C870 1.392 . S
C869 C873 1.495 . S
C870 C869 1.392 . S
C870 C871 1.385 . S
C870 C872 1.478 . S
C871 H865 0.930 . S
C871 C867 1.400 . S
C871 C870 1.385 . S
C872 C870 1.478 . S
C872 C874 1.381 . S
C872 C878 1.383 . S
C873 C869 1.495 . S
C873 H879 0.959 . S
C873 H880 0.961 . S
C873 H881 0.960 . S
C874 C872 1.381 . S
C874 C875 1.394 . S
C874 H882 0.930 . S
C875 C874 1.394 . S
C875 C876 1.383 . S
C875 H883 0.929 . S
C876 C875 1.383 . S
C876 C877 1.377 . S
C877 H861 0.930 . S
C877 C876 1.377 . S
C877 C878 1.379 . S
C878 H862 0.931 . S
C878 C872 1.383 . S
C878 C877 1.379 . S
H879 C873 0.959 . S
H880 C873 0.961 . S
H881 C873 0.960 . S
H882 C874 0.930 . S
H883 C875 0.929 . S
H884 C892 0.929 . S
H885 C894 0.930 . S
H886 C896 0.930 . S
H887 C899 0.929 . S
H888 C902 0.930 . S
H889 C904 0.960 . S
H890 C904 0.960 . S
H891 C904 0.960 . S
C892 H884 0.929 . S
C892 C893 1.377 . S
C892 C894 1.384 . S
C893 C892 1.377 . S
C893 C899 1.390 . S
C894 H885 0.930 . S
C894 C892 1.384 . S
C894 C895 1.372 . S
C895 C894 1.372 . S
C895 C896 1.400 . S
C895 C900 1.490 . S
C896 H886 0.930 . S
C896 C895 1.400 . S
C896 C899 1.386 . S
H897 C913 0.930 . S
H898 C914 0.931 . S
C899 H887 0.929 . S
C899 C893 1.390 . S
C899 C896 1.386 . S
C900 C895 1.490 . S
C900 C902 1.395 . S
C900 C903 1.403 . S
H901 C907 0.930 . S
C902 H888 0.930 . S
C902 C900 1.395 . S
C902 C905 1.403 . S
C903 C900 1.403 . S
C903 C904 1.524 . S
C903 C907 1.400 . S
C904 H889 0.960 . S
C904 H890 0.960 . S
C904 H891 0.960 . S
C904 C903 1.524 . S
C905 C902 1.403 . S
C905 C906 1.392 . S
C905 C909 1.495 . S
C906 C905 1.392 . S
C906 C907 1.385 . S
C906 C908 1.478 . S
C907 H901 0.930 . S
C907 C903 1.400 . S
C907 C906 1.385 . S
C908 C906 1.478 . S
C908 C910 1.381 . S
C908 C914 1.383 . S
C909 C905 1.495 . S
C909 H915 0.959 . S
C909 H916 0.961 . S
C909 H917 0.960 . S
C910 C908 1.381 . S
C910 C911 1.394 . S
C910 H918 0.930 . S
C911 C910 1.394 . S
C911 C912 1.383 . S
C911 H919 0.929 . S
C912 C911 1.383 . S
C912 C913 1.377 . S
C913 H897 0.930 . S
C913 C912 1.377 . S
C913 C914 1.379 . S
C914 H898 0.931 . S
C914 C908 1.383 . S
C914 C913 1.379 . S
H915 C909 0.959 . S
H916 C909 0.961 . S
H917 C909 0.960 . S
H918 C910 0.930 . S
H919 C911 0.929 . S
H920 C928 0.929 . S
H921 C930 0.930 . S
H922 C932 0.930 . S
H923 C935 0.929 . S
H924 C938 0.930 . S
H925 C940 0.960 . S
H926 C940 0.960 . S
H927 C940 0.960 . S
C928 H920 0.929 . S
C928 C929 1.377 . S
C928 C930 1.384 . S
C929 C928 1.377 . S
C929 C935 1.390 . S
C930 H921 0.930 . S
C930 C928 1.384 . S
C930 C931 1.372 . S
C931 C930 1.372 . S
C931 C932 1.400 . S
C931 C936 1.490 . S
C932 H922 0.930 . S
C932 C931 1.400 . S
C932 C935 1.386 . S
H933 C949 0.930 . S
H934 C950 0.931 . S
C935 H923 0.929 . S
C935 C929 1.390 . S
C935 C932 1.386 . S
C936 C931 1.490 . S
C936 C938 1.395 . S
C936 C939 1.403 . S
H937 C943 0.930 . S
C938 H924 0.930 . S
C938 C936 1.395 . S
C938 C941 1.403 . S
C939 C936 1.403 . S
C939 C940 1.524 . S
C939 C943 1.400 . S
C940 H925 0.960 . S
C940 H926 0.960 . S
C940 H927 0.960 . S
C940 C939 1.524 . S
C941 C938 1.403 . S
C941 C942 1.392 . S
C941 C945 1.495 . S
C942 C941 1.392 . S
C942 C943 1.385 . S
C942 C944 1.478 1_556 S
C943 H937 0.930 . S
C943 C939 1.400 . S
C943 C942 1.385 . S
C944 C942 1.478 1_554 S
C944 C946 1.381 . S
C944 C950 1.383 . S
C945 C941 1.495 . S
C945 H951 0.959 . S
C945 H952 0.961 1_556 S
C945 H953 0.960 . S
C946 C944 1.381 . S
C946 C947 1.394 . S
C946 H954 0.930 1_554 S
C947 C946 1.394 . S
C947 C948 1.383 . S
C947 H955 0.929 . S
C948 C947 1.383 . S
C948 C949 1.377 . S
C949 H933 0.930 . S
C949 C948 1.377 . S
C949 C950 1.379 . S
C950 H934 0.931 . S
C950 C944 1.383 . S
C950 C949 1.379 . S
H951 C945 0.959 . S
H952 C945 0.961 1_554 S
H953 C945 0.960 . S
H954 C946 0.930 1_556 S
H955 C947 0.929 . S
H956 C964 0.929 . S
H957 C966 0.930 . S
H958 C968 0.930 . S
H959 C971 0.929 . S
H960 C974 0.930 . S
H961 C976 0.960 . S
H962 C976 0.960 . S
H963 C976 0.960 . S
C964 H956 0.929 . S
C964 C965 1.377 . S
C964 C966 1.384 . S
C965 C964 1.377 . S
C965 C971 1.390 . S
C966 H957 0.930 . S
C966 C964 1.384 . S
C966 C967 1.372 . S
C967 C966 1.372 . S
C967 C968 1.400 . S
C967 C972 1.490 . S
C968 H958 0.930 . S
C968 C967 1.400 . S
C968 C971 1.386 . S
H969 C985 0.930 . S
H970 C986 0.931 . S
C971 H959 0.929 . S
C971 C965 1.390 . S
C971 C968 1.386 . S
C972 C967 1.490 . S
C972 C974 1.395 . S
C972 C975 1.403 . S
H973 C979 0.930 . S
C974 H960 0.930 . S
C974 C972 1.395 . S
C974 C977 1.403 . S
C975 C972 1.403 . S
C975 C976 1.524 . S
C975 C979 1.400 . S
C976 H961 0.960 . S
C976 H962 0.960 . S
C976 H963 0.960 . S
C976 C975 1.524 . S
C977 C974 1.403 . S
C977 C978 1.392 . S
C977 C981 1.495 . S
C978 C977 1.392 . S
C978 C979 1.385 . S
C978 C980 1.478 . S
C979 H973 0.930 . S
C979 C975 1.400 . S
C979 C978 1.385 . S
C980 C978 1.478 . S
C980 C982 1.381 . S
C980 C986 1.383 . S
C981 C977 1.495 . S
C981 H987 0.959 . S
C981 H988 0.961 . S
C981 H989 0.960 . S
C982 C980 1.381 . S
C982 C983 1.394 . S
C982 H990 0.930 . S
C983 C982 1.394 . S
C983 C984 1.383 . S
C983 H991 0.929 . S
C984 C983 1.383 . S
C984 C985 1.377 . S
C985 H969 0.930 . S
C985 C984 1.377 . S
C985 C986 1.379 . S
C986 H970 0.931 . S
C986 C980 1.383 . S
C986 C985 1.379 . S
H987 C981 0.959 . S
H988 C981 0.961 . S
H989 C981 0.960 . S
H990 C982 0.930 . S
H991 C983 0.929 . S
H992 C1000 0.929 . S
H993 C1002 0.930 . S
H994 C1004 0.930 . S
H995 C1007 0.929 . S
H996 C1010 0.930 . S
H997 C1012 0.960 . S
H998 C1012 0.960 . S
H999 C1012 0.960 . S
C1000 H992 0.929 . S
C1000 C1001 1.377 . S
C1000 C1002 1.384 . S
C1001 C1000 1.377 . S
C1001 C1007 1.390 . S
C1002 H993 0.930 . S
C1002 C1000 1.384 . S
C1002 C1003 1.372 . S
C1003 C1002 1.372 . S
C1003 C1004 1.400 . S
C1003 C1008 1.490 . S
C1004 H994 0.930 . S
C1004 C1003 1.400 . S
C1004 C1007 1.386 . S
H1005 C1021 0.930 . S
H1006 C1022 0.931 . S
C1007 H995 0.929 . S
C1007 C1001 1.390 . S
C1007 C1004 1.386 . S
C1008 C1003 1.490 . S
C1008 C1010 1.395 . S
C1008 C1011 1.403 . S
H1009 C1015 0.930 . S
C1010 H996 0.930 . S
C1010 C1008 1.395 . S
C1010 C1013 1.403 . S
C1011 C1008 1.403 . S
C1011 C1012 1.524 . S
C1011 C1015 1.400 . S
C1012 H997 0.960 . S
C1012 H998 0.960 . S
C1012 H999 0.960 . S
C1012 C1011 1.524 . S
C1013 C1010 1.403 . S
C1013 C1014 1.392 . S
C1013 C1017 1.495 . S
C1014 C1013 1.392 . S
C1014 C1015 1.385 . S
C1014 C1016 1.478 . S
C1015 H1009 0.930 . S
C1015 C1011 1.400 . S
C1015 C1014 1.385 . S
C1016 C1014 1.478 . S
C1016 C1018 1.381 . S
C1016 C1022 1.383 . S
C1017 C1013 1.495 . S
C1017 H1023 0.959 . S
C1017 H1024 0.961 . S
C1017 H1025 0.960 . S
C1018 C1016 1.381 . S
C1018 C1019 1.394 . S
C1018 H1026 0.930 . S
C1019 C1018 1.394 . S
C1019 C1020 1.383 . S
C1019 H1027 0.929 . S
C1020 C1019 1.383 . S
C1020 C1021 1.377 . S
C1021 H1005 0.930 . S
C1021 C1020 1.377 . S
C1021 C1022 1.379 . S
C1022 H1006 0.931 . S
C1022 C1016 1.383 . S
C1022 C1021 1.379 . S
H1023 C1017 0.959 . S
H1024 C1017 0.961 . S
H1025 C1017 0.960 . S
H1026 C1018 0.930 . S
H1027 C1019 0.929 . S
H1028 C1036 0.929 . S
H1029 C1038 0.930 . S
H1030 C1040 0.930 . S
H1031 C1043 0.929 . S
H1032 C1046 0.930 . S
H1033 C1048 0.960 . S
H1034 C1048 0.960 . S
H1035 C1048 0.960 . S
C1036 H1028 0.929 . S
C1036 C1037 1.377 . S
C1036 C1038 1.384 . S
C1037 C1036 1.377 . S
C1037 C1043 1.390 . S
C1038 H1029 0.930 . S
C1038 C1036 1.384 . S
C1038 C1039 1.372 . S
C1039 C1038 1.372 . S
C1039 C1040 1.400 . S
C1039 C1044 1.490 . S
C1040 H1030 0.930 . S
C1040 C1039 1.400 . S
C1040 C1043 1.386 . S
H1041 C1057 0.930 . S
H1042 C1058 0.931 . S
C1043 H1031 0.929 . S
C1043 C1037 1.390 . S
C1043 C1040 1.386 . S
C1044 C1039 1.490 . S
C1044 C1046 1.395 . S
C1044 C1047 1.403 . S
H1045 C1051 0.930 . S
C1046 H1032 0.930 . S
C1046 C1044 1.395 . S
C1046 C1049 1.403 . S
C1047 C1044 1.403 . S
C1047 C1048 1.524 . S
C1047 C1051 1.400 . S
C1048 H1033 0.960 . S
C1048 H1034 0.960 . S
C1048 H1035 0.960 . S
C1048 C1047 1.524 . S
C1049 C1046 1.403 . S
C1049 C1050 1.392 . S
C1049 C1053 1.495 . S
C1050 C1049 1.392 . S
C1050 C1051 1.385 . S
C1050 C1052 1.478 . S
C1051 H1045 0.930 . S
C1051 C1047 1.400 . S
C1051 C1050 1.385 . S
C1052 C1050 1.478 . S
C1052 C1054 1.381 . S
C1052 C1058 1.383 . S
C1053 C1049 1.495 . S
C1053 H1059 0.959 . S
C1053 H1060 0.961 . S
C1053 H1061 0.960 . S
C1054 C1052 1.381 . S
C1054 C1055 1.394 . S
C1054 H1062 0.930 . S
C1055 C1054 1.394 . S
C1055 C1056 1.383 . S
C1055 H1063 0.929 . S
C1056 C1055 1.383 . S
C1056 C1057 1.377 . S
C1057 H1041 0.930 . S
C1057 C1056 1.377 . S
C1057 C1058 1.379 . S
C1058 H1042 0.931 . S
C1058 C1052 1.383 . S
C1058 C1057 1.379 . S
H1059 C1053 0.959 . S
H1060 C1053 0.961 . S
H1061 C1053 0.960 . S
H1062 C1054 0.930 . S
H1063 C1055 0.929 . S
H1064 C1072 0.929 . S
H1065 C1074 0.930 . S
H1066 C1076 0.930 . S
H1067 C1079 0.929 . S
H1068 C1082 0.930 . S
H1069 C1084 0.960 . S
H1070 C1084 0.960 . S
H1071 C1084 0.960 . S
C1072 H1064 0.929 . S
C1072 C1073 1.377 . S
C1072 C1074 1.384 . S
C1073 C1072 1.377 . S
C1073 C1079 1.390 . S
C1074 H1065 0.930 . S
C1074 C1072 1.384 . S
C1074 C1075 1.372 . S
C1075 C1074 1.372 . S
C1075 C1076 1.400 . S
C1075 C1080 1.490 . S
C1076 H1066 0.930 . S
C1076 C1075 1.400 . S
C1076 C1079 1.386 . S
H1077 C1093 0.930 . S
H1078 C1094 0.931 . S
C1079 H1067 0.929 . S
C1079 C1073 1.390 . S
C1079 C1076 1.386 . S
C1080 C1075 1.490 . S
C1080 C1082 1.395 . S
C1080 C1083 1.403 . S
H1081 C1087 0.930 . S
C1082 H1068 0.930 . S
C1082 C1080 1.395 . S
C1082 C1085 1.403 . S
C1083 C1080 1.403 . S
C1083 C1084 1.524 . S
C1083 C1087 1.400 . S
C1084 H1069 0.960 . S
C1084 H1070 0.960 . S
C1084 H1071 0.960 . S
C1084 C1083 1.524 . S
C1085 C1082 1.403 . S
C1085 C1086 1.392 . S
C1085 C1089 1.495 . S
C1086 C1085 1.392 . S
C1086 C1087 1.385 . S
C1086 C1088 1.478 . S
C1087 H1081 0.930 . S
C1087 C1083 1.400 . S
C1087 C1086 1.385 . S
C1088 C1086 1.478 . S
C1088 C1090 1.381 . S
C1088 C1094 1.383 . S
C1089 C1085 1.495 . S
C1089 H1095 0.959 . S
C1089 H1096 0.961 . S
C1089 H1097 0.960 . S
C1090 C1088 1.381 . S
C1090 C1091 1.394 . S
C1090 H1098 0.930 . S
C1091 C1090 1.394 . S
C1091 C1092 1.383 . S
C1091 H1099 0.929 . S
C1092 C1091 1.383 . S
C1092 C1093 1.377 . S
C1093 H1077 0.930 . S
C1093 C1092 1.377 . S
C1093 C1094 1.379 . S
C1094 H1078 0.931 . S
C1094 C1088 1.383 . S
C1094 C1093 1.379 . S
H1095 C1089 0.959 . S
H1096 C1089 0.961 . S
H1097 C1089 0.960 . S
H1098 C1090 0.930 . S
H1099 C1091 0.929 . S
H1100 C1108 0.929 . S
H1101 C1110 0.930 . S
H1102 C1112 0.930 . S
H1103 C1115 0.929 . S
H1104 C1118 0.930 . S
H1105 C1120 0.960 . S
H1106 C1120 0.960 . S
H1107 C1120 0.960 . S
C1108 H1100 0.929 . S
C1108 C1109 1.377 . S
C1108 C1110 1.384 . S
C1109 C1108 1.377 . S
C1109 C1115 1.390 . S
C1110 H1101 0.930 . S
C1110 C1108 1.384 . S
C1110 C1111 1.372 . S
C1111 C1110 1.372 . S
C1111 C1112 1.400 . S
C1111 C1116 1.490 . S
C1112 H1102 0.930 . S
C1112 C1111 1.400 . S
C1112 C1115 1.386 . S
H1113 C1129 0.930 . S
H1114 C1130 0.931 . S
C1115 H1103 0.929 . S
C1115 C1109 1.390 . S
C1115 C1112 1.386 . S
C1116 C1111 1.490 . S
C1116 C1118 1.395 . S
C1116 C1119 1.403 . S
H1117 C1123 0.930 . S
C1118 H1104 0.930 . S
C1118 C1116 1.395 . S
C1118 C1121 1.403 . S
C1119 C1116 1.403 . S
C1119 C1120 1.524 . S
C1119 C1123 1.400 . S
C1120 H1105 0.960 . S
C1120 H1106 0.960 . S
C1120 H1107 0.960 . S
C1120 C1119 1.524 . S
C1121 C1118 1.403 . S
C1121 C1122 1.392 . S
C1121 C1125 1.495 . S
C1122 C1121 1.392 . S
C1122 C1123 1.385 . S
C1122 C1124 1.478 . S
C1123 H1117 0.930 . S
C1123 C1119 1.400 . S
C1123 C1122 1.385 . S
C1124 C1122 1.478 . S
C1124 C1126 1.381 . S
C1124 C1130 1.383 . S
C1125 C1121 1.495 . S
C1125 H1131 0.959 . S
C1125 H1132 0.961 . S
C1125 H1133 0.960 . S
C1126 C1124 1.381 . S
C1126 C1127 1.394 . S
C1126 H1134 0.930 . S
C1127 C1126 1.394 . S
C1127 C1128 1.383 . S
C1127 H1135 0.929 . S
C1128 C1127 1.383 . S
C1128 C1129 1.377 . S
C1129 H1113 0.930 . S
C1129 C1128 1.377 . S
C1129 C1130 1.379 . S
C1130 H1114 0.931 . S
C1130 C1124 1.383 . S
C1130 C1129 1.379 . S
H1131 C1125 0.959 . S
H1132 C1125 0.961 . S
H1133 C1125 0.960 . S
H1134 C1126 0.930 . S
H1135 C1127 0.929 . S
H1136 C1144 0.929 . S
H1137 C1146 0.930 . S
H1138 C1148 0.930 . S
H1139 C1151 0.929 . S
H1140 C1154 0.930 . S
H1141 C1156 0.960 . S
H1142 C1156 0.960 . S
H1143 C1156 0.960 . S
C1144 H1136 0.929 . S
C1144 C1145 1.377 . S
C1144 C1146 1.384 . S
C1145 C1144 1.377 . S
C1145 C1151 1.390 . S
C1146 H1137 0.930 . S
C1146 C1144 1.384 . S
C1146 C1147 1.372 . S
C1147 C1146 1.372 . S
C1147 C1148 1.400 . S
C1147 C1152 1.490 . S
C1148 H1138 0.930 . S
C1148 C1147 1.400 . S
C1148 C1151 1.386 . S
H1149 C1165 0.930 . S
H1150 C1166 0.931 . S
C1151 H1139 0.929 . S
C1151 C1145 1.390 . S
C1151 C1148 1.386 . S
C1152 C1147 1.490 . S
C1152 C1154 1.395 . S
C1152 C1155 1.403 . S
H1153 C1159 0.930 . S
C1154 H1140 0.930 . S
C1154 C1152 1.395 . S
C1154 C1157 1.403 . S
C1155 C1152 1.403 . S
C1155 C1156 1.524 . S
C1155 C1159 1.400 . S
C1156 H1141 0.960 . S
C1156 H1142 0.960 . S
C1156 H1143 0.960 . S
C1156 C1155 1.524 . S
C1157 C1154 1.403 . S
C1157 C1158 1.392 . S
C1157 C1161 1.495 . S
C1158 C1157 1.392 . S
C1158 C1159 1.385 . S
C1158 C1160 1.478 . S
C1159 H1153 0.930 . S
C1159 C1155 1.400 . S
C1159 C1158 1.385 . S
C1160 C1158 1.478 . S
C1160 C1162 1.381 . S
C1160 C1166 1.383 . S
C1161 C1157 1.495 . S
C1161 H1167 0.959 . S
C1161 H1168 0.961 . S
C1161 H1169 0.960 . S
C1162 C1160 1.381 . S
C1162 C1163 1.394 . S
C1162 H1170 0.930 . S
C1163 C1162 1.394 . S
C1163 C1164 1.383 . S
C1163 H1171 0.929 . S
C1164 C1163 1.383 . S
C1164 C1165 1.377 . S
C1165 H1149 0.930 . S
C1165 C1164 1.377 . S
C1165 C1166 1.379 . S
C1166 H1150 0.931 . S
C1166 C1160 1.383 . S
C1166 C1165 1.379 . S
H1167 C1161 0.959 . S
H1168 C1161 0.961 . S
H1169 C1161 0.960 . S
H1170 C1162 0.930 . S
H1171 C1163 0.929 . S
H1172 C1180 0.929 . S
H1173 C1182 0.930 . S
H1174 C1184 0.930 . S
H1175 C1187 0.929 . S
H1176 C1190 0.930 . S
H1177 C1192 0.960 . S
H1178 C1192 0.960 . S
H1179 C1192 0.960 . S
C1180 H1172 0.929 . S
C1180 C1181 1.377 . S
C1180 C1182 1.384 . S
C1181 C1180 1.377 . S
C1181 C1187 1.390 . S
C1182 H1173 0.930 . S
C1182 C1180 1.384 . S
C1182 C1183 1.372 . S
C1183 C1182 1.372 . S
C1183 C1184 1.400 . S
C1183 C1188 1.490 . S
C1184 H1174 0.930 . S
C1184 C1183 1.400 . S
C1184 C1187 1.386 . S
H1185 C1201 0.930 . S
H1186 C1202 0.931 . S
C1187 H1175 0.929 . S
C1187 C1181 1.390 . S
C1187 C1184 1.386 . S
C1188 C1183 1.490 . S
C1188 C1190 1.395 . S
C1188 C1191 1.403 . S
H1189 C1195 0.930 . S
C1190 H1176 0.930 . S
C1190 C1188 1.395 . S
C1190 C1193 1.403 . S
C1191 C1188 1.403 . S
C1191 C1192 1.524 . S
C1191 C1195 1.400 . S
C1192 H1177 0.960 . S
C1192 H1178 0.960 . S
C1192 H1179 0.960 . S
C1192 C1191 1.524 . S
C1193 C1190 1.403 . S
C1193 C1194 1.392 . S
C1193 C1197 1.495 . S
C1194 C1193 1.392 . S
C1194 C1195 1.385 . S
C1194 C1196 1.478 . S
C1195 H1189 0.930 . S
C1195 C1191 1.400 . S
C1195 C1194 1.385 . S
C1196 C1194 1.478 . S
C1196 C1198 1.381 . S
C1196 C1202 1.383 . S
C1197 C1193 1.495 . S
C1197 H1203 0.959 . S
C1197 H1204 0.961 . S
C1197 H1205 0.960 . S
C1198 C1196 1.381 . S
C1198 C1199 1.394 . S
C1198 H1206 0.930 . S
C1199 C1198 1.394 . S
C1199 C1200 1.383 . S
C1199 H1207 0.929 . S
C1200 C1199 1.383 . S
C1200 C1201 1.377 . S
C1201 H1185 0.930 . S
C1201 C1200 1.377 . S
C1201 C1202 1.379 . S
C1202 H1186 0.931 . S
C1202 C1196 1.383 . S
C1202 C1201 1.379 . S
H1203 C1197 0.959 . S
H1204 C1197 0.961 . S
H1205 C1197 0.960 . S
H1206 C1198 0.930 . S
H1207 C1199 0.929 . S
H1208 C1216 0.929 . S
H1209 C1218 0.930 . S
H1210 C1220 0.930 . S
H1211 C1223 0.929 . S
H1212 C1226 0.930 . S
H1213 C1228 0.960 . S
H1214 C1228 0.960 . S
H1215 C1228 0.960 . S
C1216 H1208 0.929 . S
C1216 C1217 1.377 . S
C1216 C1218 1.384 . S
C1217 C1216 1.377 . S
C1217 C1223 1.390 . S
C1218 H1209 0.930 . S
C1218 C1216 1.384 . S
C1218 C1219 1.372 . S
C1219 C1218 1.372 . S
C1219 C1220 1.400 . S
C1219 C1224 1.490 . S
C1220 H1210 0.930 . S
C1220 C1219 1.400 . S
C1220 C1223 1.386 . S
H1221 C1237 0.930 . S
H1222 C1238 0.931 . S
C1223 H1211 0.929 . S
C1223 C1217 1.390 . S
C1223 C1220 1.386 . S
C1224 C1219 1.490 . S
C1224 C1226 1.395 . S
C1224 C1227 1.403 . S
H1225 C1231 0.930 . S
C1226 H1212 0.930 . S
C1226 C1224 1.395 . S
C1226 C1229 1.403 . S
C1227 C1224 1.403 . S
C1227 C1228 1.524 . S
C1227 C1231 1.400 . S
C1228 H1213 0.960 . S
C1228 H1214 0.960 . S
C1228 H1215 0.960 . S
C1228 C1227 1.524 . S
C1229 C1226 1.403 . S
C1229 C1230 1.392 . S
C1229 C1233 1.495 . S
C1230 C1229 1.392 . S
C1230 C1231 1.385 . S
C1230 C1232 1.478 . S
C1231 H1225 0.930 . S
C1231 C1227 1.400 . S
C1231 C1230 1.385 . S
C1232 C1230 1.478 . S
C1232 C1234 1.381 . S
C1232 C1238 1.383 . S
C1233 C1229 1.495 . S
C1233 H1239 0.959 . S
C1233 H1240 0.961 . S
C1233 H1241 0.960 . S
C1234 C1232 1.381 . S
C1234 C1235 1.394 . S
C1234 H1242 0.930 . S
C1235 C1234 1.394 . S
C1235 C1236 1.383 . S
C1235 H1243 0.929 . S
C1236 C1235 1.383 . S
C1236 C1237 1.377 . S
C1237 H1221 0.930 . S
C1237 C1236 1.377 . S
C1237 C1238 1.379 . S
C1238 H1222 0.931 . S
C1238 C1232 1.383 . S
C1238 C1237 1.379 . S
H1239 C1233 0.959 . S
H1240 C1233 0.961 . S
H1241 C1233 0.960 . S
H1242 C1234 0.930 . S
H1243 C1235 0.929 . S
H1244 C1252 0.929 . S
H1245 C1254 0.930 . S
H1246 C1256 0.930 . S
H1247 C1259 0.929 . S
H1248 C1262 0.930 . S
H1249 C1264 0.960 . S
H1250 C1264 0.960 . S
H1251 C1264 0.960 . S
C1252 H1244 0.929 . S
C1252 C1253 1.377 . S
C1252 C1254 1.384 . S
C1253 C1252 1.377 . S
C1253 C1259 1.390 . S
C1254 H1245 0.930 . S
C1254 C1252 1.384 . S
C1254 C1255 1.372 . S
C1255 C1254 1.372 . S
C1255 C1256 1.400 . S
C1255 C1260 1.490 . S
C1256 H1246 0.930 . S
C1256 C1255 1.400 . S
C1256 C1259 1.386 . S
H1257 C1273 0.930 . S
H1258 C1274 0.931 . S
C1259 H1247 0.929 . S
C1259 C1253 1.390 . S
C1259 C1256 1.386 . S
C1260 C1255 1.490 . S
C1260 C1262 1.395 . S
C1260 C1263 1.403 . S
H1261 C1267 0.930 . S
C1262 H1248 0.930 . S
C1262 C1260 1.395 . S
C1262 C1265 1.403 . S
C1263 C1260 1.403 . S
C1263 C1264 1.524 . S
C1263 C1267 1.400 . S
C1264 H1249 0.960 . S
C1264 H1250 0.960 . S
C1264 H1251 0.960 . S
C1264 C1263 1.524 . S
C1265 C1262 1.403 . S
C1265 C1266 1.392 . S
C1265 C1269 1.495 . S
C1266 C1265 1.392 . S
C1266 C1267 1.385 . S
C1266 C1268 1.478 . S
C1267 H1261 0.930 . S
C1267 C1263 1.400 . S
C1267 C1266 1.385 . S
C1268 C1266 1.478 . S
C1268 C1270 1.381 . S
C1268 C1274 1.383 . S
C1269 C1265 1.495 . S
C1269 H1275 0.959 . S
C1269 H1276 0.961 . S
C1269 H1277 0.960 . S
C1270 C1268 1.381 . S
C1270 C1271 1.394 . S
C1270 H1278 0.930 . S
C1271 C1270 1.394 . S
C1271 C1272 1.383 . S
C1271 H1279 0.929 . S
C1272 C1271 1.383 . S
C1272 C1273 1.377 . S
C1273 H1257 0.930 . S
C1273 C1272 1.377 . S
C1273 C1274 1.379 . S
C1274 H1258 0.931 . S
C1274 C1268 1.383 . S
C1274 C1273 1.379 . S
H1275 C1269 0.959 . S
H1276 C1269 0.961 . S
H1277 C1269 0.960 . S
H1278 C1270 0.930 . S
H1279 C1271 0.929 . S
C281 C3 1.469 . S
C300 C49 1.567 . S
C317 C37 1.456 . S
C336 C15 1.560 . S
C353 C69 1.457 . S
C372 C117 1.558 . S
C389 C105 1.466 . S
C408 C90 1.564 . S
C425 C137 1.461 . S
C444 C192 1.558 . S
C461 C171 1.462 . S
C480 C158 1.558 . S
C497 C260 1.571 . S
C516 C207 1.497 . S
C533 C239 1.462 . S
C552 C219 1.577 . S
C569 C1 1.963 . S
C588 C139 1.943 . S
C605 C173 1.965 . S
C624 C35 1.936 . S
C641 C205 1.964 . S
C660 C71 1.973 . S
C677 C241 1.964 . S
C696 C103 1.969 . S
C713 C255 1.889 . S
C732 C22 1.704 . S
C749 C221 1.888 . S
C768 C56 1.637 . S
C785 C83 1.674 . S
C804 C187 1.892 . S
C821 C153 1.890 . S
C840 C124 1.688 . S
C857 C151 1.672 . S
C876 C119 1.893 . S
C893 C185 1.667 . S
C912 C85 1.891 . S
C929 C51 1.888 . S
C948 C226 1.702 . S
C965 C17 1.887 . S
C984 C253 1.635 . S
C1001 C176 1.231 . S
C1020 C6 1.225 . S
C1037 C40 1.231 1_655 S
C1056 C142 1.228 . S
C1073 C244 1.232 . S
C1092 C96 1.225 1_455 S
C1109 C108 1.233 . S
C1128 C232 1.236 . S
C1145 C164 1.233 . S
C1164 C62 1.228 . S
C1181 C28 1.233 . S
C1200 C198 1.225 1_455 S
C1217 C130 1.230 . S
C1236 C210 1.235 1_655 S
C1253 C266 1.232 . S
C1272 C74 1.235 . S
