# Generated by pormake.
# Topology ure, (4)-cn, num edge types: 1
# Building blocks:
#     Node 0, Type 0, BuildingBlock: QUQFOY_clean_sbu_3, # of connection points: 4
#     Node 1, Type 0, BuildingBlock: QUQFOY_clean_sbu_3, # of connection points: 4
#     Node 2, Type 0, BuildingBlock: QUQFOY_clean_sbu_3, # of connection points: 4
#     Node 3, Type 0, BuildingBlock: QUQFOY_clean_sbu_3, # of connection points: 4
#     Node 4, Type 0, BuildingBlock: QUQFOY_clean_sbu_3, # of connection points: 4
#     Node 5, Type 0, BuildingBlock: QUQFOY_clean_sbu_3, # of connection points: 4
#     Node 6, Type 0, BuildingBlock: QUQFOY_clean_sbu_3, # of connection points: 4
#     Node 7, Type 0, BuildingBlock: QUQFOY_clean_sbu_3, # of connection points: 4
#     Node 8, Type 0, BuildingBlock: QUQFOY_clean_sbu_3, # of connection points: 4
#     Node 9, Type 0, BuildingBlock: QUQFOY_clean_sbu_3, # of connection points: 4
#     Node 10, Type 0, BuildingBlock: QUQFOY_clean_sbu_3, # of connection points: 4
#     Node 11, Type 0, BuildingBlock: QUQFOY_clean_sbu_3, # of connection points: 4
#     Node 12, Type 0, BuildingBlock: QUQFOY_clean_sbu_3, # of connection points: 4
#     Node 13, Type 0, BuildingBlock: QUQFOY_clean_sbu_3, # of connection points: 4
#     Node 14, Type 0, BuildingBlock: QUQFOY_clean_sbu_3, # of connection points: 4
#     Node 15, Type 0, BuildingBlock: QUQFOY_clean_sbu_3, # of connection points: 4
#     Edge 16, Type (0, 0), BuildingBlock: XUDNAN_clean_linker_2, # of connection points: 2
#     Edge 17, Type (0, 0), BuildingBlock: XUDNAN_clean_linker_2, # of connection points: 2
#     Edge 18, Type (0, 0), BuildingBlock: XUDNAN_clean_linker_2, # of connection points: 2
#     Edge 19, Type (0, 0), BuildingBlock: XUDNAN_clean_linker_2, # of connection points: 2
#     Edge 20, Type (0, 0), BuildingBlock: XUDNAN_clean_linker_2, # of connection points: 2
#     Edge 21, Type (0, 0), BuildingBlock: XUDNAN_clean_linker_2, # of connection points: 2
#     Edge 22, Type (0, 0), BuildingBlock: XUDNAN_clean_linker_2, # of connection points: 2
#     Edge 23, Type (0, 0), BuildingBlock: XUDNAN_clean_linker_2, # of connection points: 2
#     Edge 24, Type (0, 0), BuildingBlock: XUDNAN_clean_linker_2, # of connection points: 2
#     Edge 25, Type (0, 0), BuildingBlock: XUDNAN_clean_linker_2, # of connection points: 2
#     Edge 26, Type (0, 0), BuildingBlock: XUDNAN_clean_linker_2, # of connection points: 2
#     Edge 27, Type (0, 0), BuildingBlock: XUDNAN_clean_linker_2, # of connection points: 2
#     Edge 28, Type (0, 0), BuildingBlock: XUDNAN_clean_linker_2, # of connection points: 2
#     Edge 29, Type (0, 0), BuildingBlock: XUDNAN_clean_linker_2, # of connection points: 2
#     Edge 30, Type (0, 0), BuildingBlock: XUDNAN_clean_linker_2, # of connection points: 2
#     Edge 31, Type (0, 0), BuildingBlock: XUDNAN_clean_linker_2, # of connection points: 2
#     Edge 32, Type (0, 0), BuildingBlock: XUDNAN_clean_linker_2, # of connection points: 2
#     Edge 33, Type (0, 0), BuildingBlock: XUDNAN_clean_linker_2, # of connection points: 2
#     Edge 34, Type (0, 0), BuildingBlock: XUDNAN_clean_linker_2, # of connection points: 2
#     Edge 35, Type (0, 0), BuildingBlock: XUDNAN_clean_linker_2, # of connection points: 2
#     Edge 36, Type (0, 0), BuildingBlock: XUDNAN_clean_linker_2, # of connection points: 2
#     Edge 37, Type (0, 0), BuildingBlock: XUDNAN_clean_linker_2, # of connection points: 2
#     Edge 38, Type (0, 0), BuildingBlock: XUDNAN_clean_linker_2, # of connection points: 2
#     Edge 39, Type (0, 0), BuildingBlock: XUDNAN_clean_linker_2, # of connection points: 2
#     Edge 40, Type (0, 0), BuildingBlock: XUDNAN_clean_linker_2, # of connection points: 2
#     Edge 41, Type (0, 0), BuildingBlock: XUDNAN_clean_linker_2, # of connection points: 2
#     Edge 42, Type (0, 0), BuildingBlock: XUDNAN_clean_linker_2, # of connection points: 2
#     Edge 43, Type (0, 0), BuildingBlock: XUDNAN_clean_linker_2, # of connection points: 2
#     Edge 44, Type (0, 0), BuildingBlock: XUDNAN_clean_linker_2, # of connection points: 2
#     Edge 45, Type (0, 0), BuildingBlock: XUDNAN_clean_linker_2, # of connection points: 2
#     Edge 46, Type (0, 0), BuildingBlock: XUDNAN_clean_linker_2, # of connection points: 2
#     Edge 47, Type (0, 0), BuildingBlock: XUDNAN_clean_linker_2, # of connection points: 2
# Relax obj value: 0.237
# Max RMSD: 0.173
# Mean RMSD: 0.173
data_MOF--net-ure--node1-QUQFOY_clean_sbu_3--edge1-XUDNAN_clean_linker_2
_symmetry_space_group_name_H-M    P1
_symmetry_Int_Tables_number       1
_symmetry_cell_setting            triclinic
loop_
_symmetry_equiv_pos_as_xyz
'x, y, z'
_cell_length_a     33.45446
_cell_length_b     31.660223
_cell_length_c     31.655563
_cell_angle_alpha  89.933352
_cell_angle_beta   90.103027
_cell_angle_gamma 90.113543
loop_
_atom_site_label
_atom_site_type_symbol
_atom_site_fract_x
_atom_site_fract_y
_atom_site_fract_z
_atom_type_partial_charge
C0 C 0.3921 0.30314 0.28231 0.0
O1 O 0.38888 0.3261 0.31499 0.0
Cd2 Cd 0.33126 0.33078 0.35997 0.0
O3 O 0.36208 0.28333 0.26721 0.0
Cd4 Cd 0.28902 0.28324 0.28215 0.0
C5 C 0.27787 0.38978 0.29253 0.0
O6 O 0.30032 0.2631 0.3557 0.0
O7 O 0.23883 0.27155 0.33778 0.0
O8 O 0.28751 0.22079 0.23608 0.0
C9 C 0.26387 0.26147 0.36605 0.0
O10 O 0.28999 0.38618 0.33041 0.0
C11 C 0.25337 0.22872 0.2203 0.0
O12 O 0.27891 0.35878 0.26698 0.0
O13 O 0.23618 0.26213 0.23277 0.0
C14 C 0.86319 0.00838 0.54072 0.0
O15 O 0.8673 0.04138 0.56303 0.0
Cd16 Cd 0.92073 0.09039 0.5616 0.0
O17 O 0.89188 -0.00446 0.51733 0.0
Cd18 Cd 0.96323 0.02227 0.50918 0.0
C19 C -0.01112 0.03405 0.61382 0.0
O20 O 0.93937 0.09025 0.48865 0.0
O21 O 0.00246 0.0905 0.49944 0.0
O22 O 0.98163 0.99157 0.43948 0.0
C23 C 0.97189 0.11011 0.48605 0.0
O24 O 0.96899 0.06818 0.61449 0.0
C25 C 0.00677 0.96594 0.4552 0.0
O26 O -0.01114 0.01109 0.58092 0.0
O27 O 0.01081 0.96643 0.49497 0.0
C28 C 0.04286 0.74793 0.70255 0.0
O29 O 0.03783 0.74422 0.74215 0.0
Cd30 Cd 0.08012 0.75285 0.80172 0.0
O31 O 0.07703 0.75684 0.68671 0.0
Cd32 Cd 0.14515 0.76412 0.72127 0.0
C33 C 0.13607 0.66839 0.77405 0.0
O34 O 0.12241 0.80764 0.77912 0.0
O35 O 0.18324 0.78852 0.78471 0.0
O36 O 0.17661 0.80969 0.66616 0.0
C37 C 0.15412 0.80827 0.8007 0.0
O38 O 0.1158 0.68614 0.803 0.0
C39 C 0.20755 0.78654 0.66284 0.0
O40 O 0.1467 0.68846 0.74089 0.0
O41 O 0.20782 0.75275 0.68448 0.0
C42 C 0.65257 0.00904 0.98537 0.0
O43 O 0.65381 0.97524 0.00708 0.0
Cd44 Cd 0.60267 0.92329 0.01806 0.0
O45 O 0.61992 0.02206 0.96901 0.0
Cd46 Cd 0.54916 -0.00228 0.97778 0.0
C47 C 0.5481 0.97802 0.08676 0.0
O48 O 0.56568 0.9268 0.95325 0.0
O49 O 0.50304 0.93819 0.96402 0.0
O50 O 0.51764 0.03609 0.91789 0.0
C51 C 0.53015 0.91323 0.95154 0.0
O52 O 0.5685 0.94453 0.08228 0.0
C53 C 0.49923 0.06203 0.94149 0.0
O54 O 0.54 0.00112 0.05494 0.0
O55 O 0.50474 0.05843 0.98095 0.0
C56 C 0.33427 0.79358 0.18386 0.0
O57 O 0.33438 0.776 0.14778 0.0
Cd58 Cd 0.28048 0.74701 0.10825 0.0
O59 O 0.30184 0.79886 0.20442 0.0
Cd60 Cd 0.2295 0.78304 0.18893 0.0
C61 C 0.24664 0.67577 0.18024 0.0
O62 O 0.23335 0.80296 0.11519 0.0
O63 O 0.17568 0.78026 0.13441 0.0
O64 O 0.20004 0.8429 0.22869 0.0
C65 C 0.19751 0.79527 0.10533 0.0
O66 O 0.26413 0.68083 0.14491 0.0
C67 C 0.18255 0.81895 0.25519 0.0
O68 O 0.23319 0.70727 0.20056 0.0
O69 O 0.18738 0.77949 0.25071 0.0
C70 C 0.58033 0.00724 0.50785 0.0
O71 O 0.57964 0.04719 0.5049 0.0
Cd72 Cd 0.52557 0.08865 0.47976 0.0
O73 O 0.54898 0.98523 0.50067 0.0
Cd74 Cd 0.47629 0.0024 0.4851 0.0
C75 C 0.50393 0.03302 0.3883 0.0
O76 O 0.4696 0.0704 0.52095 0.0
O77 O 0.42958 0.06048 0.46902 0.0
O78 O 0.45571 0.95081 0.53912 0.0
C79 C 0.44075 0.08414 0.49906 0.0
O80 O 0.51386 0.06752 0.40623 0.0
C81 C 0.42526 0.93733 0.51925 0.0
O82 O 0.49255 0.00102 0.40969 0.0
O83 O 0.41904 0.95281 0.48282 0.0
C84 C 0.11723 0.24717 0.78786 0.0
O85 O 0.10706 0.26313 0.7526 0.0
Cd86 Cd 0.14649 0.28412 0.69388 0.0
O87 O 0.15399 0.24142 0.79735 0.0
Cd88 Cd 0.21867 0.26178 0.76207 0.0
C89 C 0.18895 0.36533 0.74782 0.0
O90 O 0.19873 0.23419 0.69486 0.0
O91 O 0.25464 0.26722 0.69267 0.0
O92 O 0.25762 0.20312 0.79244 0.0
C93 C 0.22834 0.24588 0.67316 0.0
O94 O 0.16859 0.35351 0.71594 0.0
C95 C 0.28275 0.22667 0.81126 0.0
O96 O 0.20728 0.33858 0.77098 0.0
O97 O 0.27754 0.26627 0.80804 0.0
C98 C 0.92862 0.01002 0.97349 0.0
O99 O 0.92775 0.97282 0.95847 0.0
Cd100 Cd 0.97346 0.91572 0.96979 0.0
O101 O 0.95845 0.02335 -0.00502 0.0
Cd102 Cd 0.026 0.99089 0.00596 0.0
C103 C 0.03745 0.9566 0.90293 0.0
O104 O -0.00344 0.92897 0.0396 0.0
O105 O 0.06055 0.92844 0.03754 0.0
O106 O 0.04554 0.04674 0.0572 0.0
C107 C 0.02865 0.91098 0.05001 0.0
O108 O 0.02116 0.92166 0.91266 0.0
C109 C 0.0811 0.04942 0.04306 0.0
O110 O 0.03885 0.98677 0.92944 0.0
O111 O 0.08958 0.02656 0.01145 0.0
C112 C 0.86395 0.14229 0.81241 0.0
O113 O 0.86815 0.10842 0.7915 0.0
Cd114 Cd 0.82517 0.08636 0.73572 0.0
O115 O 0.83329 0.16571 0.80705 0.0
Cd116 Cd 0.76909 0.16215 0.76574 0.0
C117 C 0.74109 0.0606 0.78953 0.0
O118 O 0.80612 0.15065 0.70094 0.0
O119 O 0.74229 0.15527 0.69273 0.0
O120 O 0.75964 0.23887 0.76219 0.0
C121 C 0.77654 0.15167 0.67599 0.0
O122 O 0.77176 0.04846 0.76941 0.0
C123 C 0.72899 0.23965 0.78569 0.0
O124 O 0.73305 0.09964 0.79364 0.0
O125 O 0.71738 0.2046 0.80079 0.0
C126 C 0.14592 0.50111 0.02651 0.0
O127 O 0.15542 0.53944 0.03261 0.0
Cd128 Cd 0.10832 0.59573 0.0304 0.0
O129 O 0.10944 0.48944 0.02681 0.0
Cd130 Cd 0.04376 0.52268 0.04489 0.0
C131 C 0.05231 0.55966 0.94537 0.0
O132 O 0.06169 0.58534 0.08518 0.0
O133 O 0.00557 0.58881 0.05206 0.0
O134 O 0.03088 0.48046 0.10734 0.0
C135 C 0.0302 0.60608 0.0773 0.0
O136 O 0.0762 0.58688 0.96112 0.0
C137 C -0.0011 0.46326 0.09416 0.0
O138 O 0.03679 0.53076 0.96827 0.0
O139 O -0.01203 0.47218 0.05666 0.0
C140 C 0.61591 0.77529 0.19979 0.0
O141 O 0.6248 0.78046 0.16115 0.0
Cd142 Cd 0.67741 0.7496 0.12337 0.0
O143 O 0.63863 0.75348 0.22409 0.0
Cd144 Cd 0.70598 0.7188 0.2095 0.0
C145 C 0.74477 0.81076 0.16994 0.0
O146 O 0.674 0.68024 0.15439 0.0
O147 O 0.73731 0.67592 0.14983 0.0
O148 O 0.7028 0.67838 0.27691 0.0
C149 C 0.70348 0.66274 0.13734 0.0
O150 O 0.73166 0.80057 0.13366 0.0
C151 C 0.74048 0.67876 0.28259 0.0
O152 O 0.73693 0.78779 0.20178 0.0
O153 O 0.76119 0.69737 0.25468 0.0
C154 C 0.08031 0.52919 0.5233 0.0
O155 O 0.09046 0.49783 0.54598 0.0
Cd156 Cd 0.0485 0.4426 0.57181 0.0
O157 O 0.04369 0.53633 0.5147 0.0
Cd158 Cd 0.97976 0.5048 0.53936 0.0
C159 C 0.00672 0.50402 0.64482 0.0
O160 O 0.00133 0.43491 0.51624 0.0
O161 O 0.94187 0.43712 0.54188 0.0
O162 O 0.95228 0.54163 0.47739 0.0
C163 C 0.96911 0.41579 0.52422 0.0
O164 O 0.02439 0.4692 0.63819 0.0
C165 C 0.91925 0.55142 0.49449 0.0
O166 O -0.00883 0.5249 0.61448 0.0
O167 O 0.91482 0.54084 0.53293 0.0
C168 C 0.38972 0.50428 0.90798 0.0
O169 O 0.38104 0.5433 0.90842 0.0
Cd170 Cd 0.42609 0.60039 0.92107 0.0
O171 O 0.42595 0.49196 0.90983 0.0
Cd172 Cd 0.49375 0.52557 0.90951 0.0
C173 C 0.46955 0.55487 0.00924 0.0
O174 O 0.47958 0.59093 0.87416 0.0
O175 O 0.53303 0.59238 0.91165 0.0
O176 O 0.52302 0.48679 0.8507 0.0
C177 C 0.50938 0.61194 0.88711 0.0
O178 O 0.44918 0.58496 0.99328 0.0
C179 C 0.54873 0.46738 0.873 0.0
O180 O 0.48686 0.52752 0.98615 0.0
O181 O 0.54864 0.47451 0.9125 0.0
C182 C 0.78064 0.69676 0.7389 0.0
O183 O 0.79061 0.69561 0.77765 0.0
Cd184 Cd 0.74833 0.69098 0.83833 0.0
O185 O 0.7442 0.69358 0.72732 0.0
Cd186 Cd 0.67748 0.68206 0.76189 0.0
C187 C 0.68482 0.77488 0.81823 0.0
O188 O 0.70279 0.63826 0.81755 0.0
O189 O 0.63999 0.65109 0.8224 0.0
O190 O 0.65213 0.63069 0.71043 0.0
C191 C 0.67087 0.6342 0.83848 0.0
O192 O 0.71257 0.75805 0.84014 0.0
C193 C 0.62746 0.65596 0.69337 0.0
O194 O 0.66828 0.75479 0.78791 0.0
O195 O 0.62561 0.69306 0.70846 0.0
C196 C 0.6612 0.20954 0.26822 0.0
O197 O 0.65681 0.18014 0.29513 0.0
Cd198 Cd 0.70731 0.1504 0.33892 0.0
O199 O 0.69585 0.22422 0.25968 0.0
Cd200 Cd 0.76617 0.20578 0.28042 0.0
C201 C 0.76227 0.09924 0.264 0.0
O202 O 0.75089 0.20718 0.35544 0.0
O203 O 0.80927 0.18347 0.34052 0.0
O204 O 0.79479 0.27691 0.27611 0.0
C205 C 0.78423 0.19394 0.36869 0.0
O206 O 0.74111 0.09761 0.29731 0.0
C207 C 0.81662 0.27012 0.24413 0.0
O208 O 0.77293 0.13466 0.24839 0.0
O209 O 0.81463 0.2335 0.22799 0.0
C210 C 0.32308 0.50732 0.39796 0.0
O211 O 0.31647 0.47748 0.37212 0.0
Cd212 Cd 0.36134 0.41945 0.36192 0.0
O213 O 0.35628 0.51002 0.41748 0.0
Cd214 Cd 0.42102 0.47299 0.41201 0.0
C215 C 0.42594 0.47247 0.30333 0.0
O216 O 0.39152 0.40508 0.42989 0.0
O217 O 0.45449 0.40325 0.4146 0.0
O218 O 0.44232 0.49756 0.48235 0.0
C219 C 0.42386 0.38453 0.42911 0.0
O220 O 0.40294 0.44051 0.30298 0.0
C221 C 0.47062 0.52053 0.46869 0.0
O222 O 0.43445 0.49079 0.33794 0.0
O223 O 0.47625 0.52087 0.42908 0.0
H224 H 0.17333 0.21891 0.20429 0.0
H225 H 0.29038 0.17375 0.16688 0.0
H226 H 0.2587 0.12574 0.11509 0.0
H227 H 0.1255 0.11765 0.19988 0.0
H228 H 0.07853 0.13787 0.18065 0.0
H229 H 0.11039 0.17074 0.2127 0.0
H230 H 0.11039 0.22801 0.15418 0.0
H231 H 0.07858 0.19526 0.12189 0.0
H232 H 0.12556 0.21414 0.10138 0.0
H233 H 0.21473 0.08345 0.06727 0.0
H234 H 0.16133 0.04429 0.03069 0.0
H235 H 0.07194 0.11293 0.10225 0.0
C236 C 0.19225 0.19918 0.18487 0.0
C237 C 0.23433 0.20027 0.18919 0.0
C238 C 0.25811 0.17341 0.16393 0.0
C239 C 0.2404 0.1462 0.13437 0.0
C240 C 0.19884 0.14581 0.13092 0.0
C241 C 0.17499 0.17118 0.1558 0.0
C242 C 0.13099 0.16272 0.14752 0.0
C243 C 0.11014 0.14626 0.18757 0.0
C244 C 0.11016 0.2024 0.13021 0.0
C245 C 0.13384 0.12862 0.11407 0.0
C246 C 0.1733 0.11986 0.10462 0.0
C247 C 0.18374 0.08992 0.07449 0.0
C248 C 0.1531 0.06793 0.05378 0.0
C249 C 0.11241 0.07546 0.06364 0.0
C250 C 0.10274 0.10641 0.09411 0.0
H251 H 0.03366 0.97787 0.37379 0.0
H252 H 0.03561 0.88953 0.47867 0.0
H253 H 0.07986 0.84236 0.43821 0.0
H254 H 0.03699 0.90008 0.28858 0.0
H255 H 0.07009 0.93131 0.25623 0.0
H256 H 0.03611 0.95691 0.29207 0.0
H257 H 0.09561 -0.00381 0.32689 0.0
H258 H 0.12979 0.97048 0.29138 0.0
H259 H 0.13699 0.9662 0.34767 0.0
H260 H 0.12346 0.8049 0.38741 0.0
H261 H 0.16672 0.78006 0.32965 0.0
H262 H 0.1414 0.89436 0.25872 0.0
C263 C 0.04295 0.94826 0.38782 0.0
C264 C 0.03093 0.93701 0.42914 0.0
C265 C 0.04439 0.89857 0.44699 0.0
C266 C 0.06948 0.87158 0.42427 0.0
C267 C 0.08133 0.88376 0.38392 0.0
C268 C 0.06878 0.92122 0.36581 0.0
C269 C 0.08784 0.92757 0.32275 0.0
C270 C 0.05585 0.92904 0.28785 0.0
C271 C 0.11412 0.96748 0.32216 0.0
C272 C 0.11297 0.88783 0.31963 0.0
C273 C 0.10832 0.8629 0.35515 0.0
C274 C 0.12751 0.82418 0.35949 0.0
C275 C 0.152 0.81035 0.32651 0.0
C276 C 0.15762 0.83542 0.28992 0.0
C277 C 0.13804 0.87484 0.2866 0.0
H278 H 0.34332 0.93824 0.51855 0.0
H279 H 0.44527 0.86777 0.56506 0.0
H280 H 0.39967 0.81769 0.60096 0.0
H281 H 0.28884 0.93162 0.61418 0.0
H282 H 0.24037 0.92768 0.58952 0.0
H283 H 0.28046 0.95462 0.5628 0.0
H284 H 0.27132 0.90564 0.498 0.0
H285 H 0.23116 0.87849 0.52458 0.0
H286 H 0.27337 0.84917 0.50503 0.0
H287 H 0.34359 0.77657 0.63305 0.0
H288 H 0.2816 0.75134 0.66641 0.0
H289 H 0.21528 0.85201 0.60503 0.0
C290 C 0.35586 0.91167 0.53557 0.0
C291 C 0.39774 0.90619 0.53845 0.0
C292 C 0.41327 0.8721 0.56219 0.0
C293 C 0.38759 0.84349 0.58251 0.0
C294 C 0.34645 0.84991 0.57947 0.0
C295 C 0.3306 0.88347 0.5571 0.0
C296 C 0.28551 0.88559 0.56254 0.0
C297 C 0.27308 0.92735 0.58351 0.0
C298 C 0.26408 0.87934 0.52 0.0
C299 C 0.27856 0.84823 0.59177 0.0
C300 C 0.31408 0.82765 0.60031 0.0
C301 C 0.31561 0.79242 0.62659 0.0
C302 C 0.2801 0.77826 0.64533 0.0
C303 C 0.24345 0.79966 0.63845 0.0
C304 C 0.24274 0.83491 0.61087 0.0
H305 H 0.44876 0.05525 0.87331 0.0
H306 H 0.48606 0.14052 0.97301 0.0
H307 H 0.43633 0.19297 0.94889 0.0
H308 H 0.42581 0.13487 0.79287 0.0
H309 H 0.38215 0.10716 0.7741 0.0
H310 H 0.42329 0.0781 0.79657 0.0
H311 H 0.37505 0.04347 0.85044 0.0
H312 H 0.33384 0.07263 0.82835 0.0
H313 H 0.34493 0.07658 0.88395 0.0
H314 H 0.38231 0.23585 0.91444 0.0
H315 H 0.32478 0.26462 0.87472 0.0
H316 H 0.31832 0.1492 0.80122 0.0
C317 C 0.4469 0.08534 0.88944 0.0
C318 C 0.4716 0.09426 0.92458 0.0
C319 C 0.46758 0.13334 0.94581 0.0
C320 C 0.43948 0.16329 0.93232 0.0
C321 C 0.4151 0.15336 0.89799 0.0
C322 C 0.41825 0.11522 0.87701 0.0
C323 C 0.38645 0.11128 0.843 0.0
C324 C 0.40557 0.10765 0.79903 0.0
C325 C 0.35841 0.07377 0.85199 0.0
C326 C 0.36495 0.15308 0.84823 0.0
C327 C 0.38234 0.1771 0.87973 0.0
C328 C 0.36832 0.21727 0.88983 0.0
C329 C 0.33565 0.23334 0.86711 0.0
C330 C 0.3169 0.20901 0.83521 0.0
C331 C 0.33176 0.1683 0.82583 0.0
H332 H 0.68205 0.25936 0.85377 0.0
H333 H 0.72534 0.30863 0.73435 0.0
H334 H 0.68422 0.37269 0.74396 0.0
H335 H 0.58247 0.29698 0.84677 0.0
H336 H 0.57857 0.31102 0.90177 0.0
H337 H 0.61165 0.2692 0.88582 0.0
H338 H 0.6711 0.30733 0.92208 0.0
H339 H 0.63814 0.34917 0.93838 0.0
H340 H 0.68231 0.36129 0.90816 0.0
H341 H 0.63383 0.42807 0.76352 0.0
H342 H 0.58405 0.47564 0.79611 0.0
H343 H 0.57856 0.39396 0.906 0.0
C344 C 0.683 0.2838 0.82982 0.0
C345 C 0.70663 0.27908 0.7932 0.0
C346 C 0.7075 0.31178 0.76269 0.0
C347 C 0.68415 0.34815 0.76779 0.0
C348 C 0.6608 0.35167 0.80402 0.0
C349 C 0.66065 0.3208 0.83493 0.0
C350 C 0.63363 0.33286 0.87133 0.0
C351 C 0.59957 0.30059 0.87671 0.0
C352 C 0.65774 0.33798 0.91242 0.0
C353 C 0.61802 0.37496 0.85568 0.0
C354 C 0.6337 0.38496 0.81653 0.0
C355 C 0.62185 0.42096 0.79446 0.0
C356 C 0.59349 0.44763 0.81307 0.0
C357 C 0.57796 0.43856 0.85362 0.0
C358 C 0.59054 0.40188 0.87523 0.0
H359 H 0.94822 0.39713 0.0739 0.0
H360 H -0.00594 0.47041 0.1792 0.0
H361 H 0.95148 0.4299 0.2282 0.0
H362 H 0.84733 0.38478 0.1109 0.0
H363 H 0.84236 0.33075 0.09374 0.0
H364 H 0.87561 0.36612 0.06625 0.0
H365 H 0.93437 0.31434 0.07844 0.0
H366 H 0.90126 0.27872 0.1058 0.0
H367 H 0.94611 0.29735 0.13139 0.0
H368 H 0.90142 0.38501 0.26524 0.0
H369 H 0.85272 0.33179 0.28988 0.0
H370 H 0.8434 0.28199 0.1626 0.0
C371 C 0.9492 0.40451 0.10728 0.0
C372 C 0.97425 0.43705 0.12279 0.0
C373 C 0.97518 0.44553 0.1667 0.0
C374 C 0.95097 0.42284 0.19476 0.0
C375 C 0.92651 0.39112 0.17859 0.0
C376 C 0.92591 0.3813 0.13605 0.0
C377 C 0.8981 0.34427 0.12753 0.0
C378 C 0.86382 0.35728 0.09784 0.0
C379 C 0.92136 0.30643 0.10974 0.0
C380 C 0.8829 0.3353 0.17183 0.0
C381 C 0.8993 0.3632 0.2006 0.0
C382 C 0.8887 0.36264 0.24313 0.0
C383 C 0.8609 0.33245 0.25679 0.0
C384 C 0.84457 0.30267 0.22823 0.0
C385 C 0.8558 0.30412 0.18518 0.0
H386 H 0.92386 0.58707 0.41556 0.0
H387 H 0.84106 0.56196 0.51795 0.0
H388 H 0.78592 0.59177 0.47522 0.0
H389 H 0.8797 0.68694 0.38333 0.0
H390 H 0.88884 0.67776 0.328 0.0
H391 H 0.92159 0.65513 0.36712 0.0
H392 H 0.90889 0.58072 0.33574 0.0
H393 H 0.8759 0.60307 0.29672 0.0
H394 H 0.85833 0.56147 0.33093 0.0
H395 H 0.73888 0.62096 0.41903 0.0
H396 H 0.70531 0.65213 0.3565 0.0
H397 H 0.81972 0.66043 0.29266 0.0
C398 C 0.89419 0.5881 0.42915 0.0
C399 C 0.88678 0.57209 0.4701 0.0
C400 C 0.84751 0.57414 0.48671 0.0
C401 C 0.81595 0.5909 0.46261 0.0
C402 C 0.8242 0.60589 0.42211 0.0
C403 C 0.86248 0.60511 0.40574 0.0
C404 C 0.86355 0.62339 0.36152 0.0
C405 C 0.88998 0.66317 0.35992 0.0
C406 C 0.87748 0.59017 0.32934 0.0
C407 C 0.81985 0.6342 0.35535 0.0
C408 C 0.79751 0.62367 0.39049 0.0
C409 C 0.75618 0.62966 0.3915 0.0
C410 C 0.73733 0.64722 0.35581 0.0
C411 C 0.75988 0.65893 0.31981 0.0
C412 C 0.80165 0.65217 0.31981 0.0
H413 H 0.49764 0.50099 0.5481 0.0
H414 H 0.49807 0.59977 0.45313 0.0
H415 H 0.53635 0.64613 0.50142 0.0
H416 H 0.49007 0.56667 0.64026 0.0
H417 H 0.5243 0.53566 0.67146 0.0
H418 H 0.49533 0.5109 0.63032 0.0
H419 H 0.56027 0.48304 0.59574 0.0
H420 H 0.58941 0.50755 0.63689 0.0
H421 H 0.59953 0.51974 0.5823 0.0
H422 H 0.57088 0.683 0.56155 0.0
H423 H 0.60824 0.70457 0.62556 0.0
H424 H 0.59237 0.5792 0.67827 0.0
C425 C 0.50577 0.53244 0.53767 0.0
C426 C 0.4947 0.54716 0.4972 0.0
C427 C 0.50636 0.58809 0.4841 0.0
C428 C 0.52788 0.61464 0.51135 0.0
C429 C 0.53826 0.59934 0.55116 0.0
C430 C 0.52835 0.5589 0.564 0.0
C431 C 0.54533 0.54937 0.60741 0.0
C432 C 0.51175 0.54011 0.63924 0.0
C433 C 0.57543 0.51276 0.60544 0.0
C434 C 0.56597 0.5909 0.61711 0.0
C435 C 0.56085 0.61955 0.58456 0.0
C436 C 0.57554 0.6607 0.58701 0.0
C437 C 0.59651 0.67272 0.62348 0.0
C438 C 0.60337 0.6434 0.65644 0.0
C439 C 0.5879 0.602 0.65318 0.0
H440 H 0.3102 0.26718 0.43712 0.0
H441 H 0.18948 0.24022 0.39445 0.0
H442 H 0.16822 0.23028 0.46858 0.0
H443 H 0.31049 0.19156 0.5265 0.0
H444 H 0.34083 0.22695 0.55766 0.0
H445 H 0.34446 0.22734 0.50081 0.0
H446 H 0.33026 0.30832 0.50324 0.0
H447 H 0.32406 0.30632 0.55966 0.0
H448 H 0.28439 0.32654 0.52679 0.0
H449 H 0.16005 0.22415 0.54667 0.0
H450 H 0.16408 0.22586 0.6243 0.0
H451 H 0.28986 0.25926 0.61679 0.0
C452 C 0.27948 0.25835 0.44333 0.0
C453 C 0.25154 0.25385 0.41011 0.0
C454 C 0.21134 0.24358 0.41951 0.0
C455 C 0.19906 0.23777 0.46144 0.0
C456 C 0.22735 0.24253 0.49347 0.0
C457 C 0.26668 0.2527 0.48497 0.0
C458 C 0.29072 0.2576 0.52528 0.0
C459 C 0.32359 0.22384 0.52778 0.0
C460 C 0.30837 0.30237 0.52895 0.0
C461 C 0.25848 0.24974 0.55791 0.0
C462 C 0.22235 0.24034 0.53875 0.0
C463 C 0.18815 0.23142 0.56206 0.0
C464 C 0.19081 0.23241 0.60616 0.0
C465 C 0.22727 0.24283 0.62659 0.0
C466 C 0.26157 0.2514 0.60204 0.0
H467 H 0.02673 0.0298 0.86012 0.0
H468 H 0.06646 0.90058 0.84477 0.0
H469 H 0.06914 0.91091 0.7673 0.0
H470 H 0.95905 0.02523 0.77838 0.0
H471 H 0.96507 0.07989 0.76355 0.0
H472 H 0.97549 0.06335 0.81674 0.0
H473 H 0.04679 0.09636 0.80928 0.0
H474 H 0.03585 0.11109 0.7555 0.0
H475 H 0.07888 0.07886 0.76714 0.0
H476 H 0.05719 0.93175 0.69193 0.0
H477 H 0.02987 0.95994 0.62523 0.0
H478 H -0.00595 0.0744 0.69028 0.0
C479 C 0.03779 0.00434 0.84055 0.0
C480 C 0.04734 0.96471 0.85829 0.0
C481 C 0.05972 0.93137 0.83166 0.0
C482 C 0.06135 0.93703 0.7877 0.0
C483 C 0.05007 0.97606 0.77099 0.0
C484 C 0.0385 0.00916 0.79667 0.0
C485 C 0.02153 0.04538 0.77107 0.0
C486 C 0.97769 0.05396 0.78311 0.0
C487 C 0.04732 0.08529 0.77601 0.0
C488 C 0.0246 0.02728 0.72702 0.0
C489 C 0.0417 0.98755 0.72753 0.0
C490 C 0.04443 0.96312 0.69106 0.0
C491 C 0.02868 0.97939 0.65332 0.0
C492 C 0.00988 0.01948 0.65242 0.0
C493 C 0.00866 0.04392 0.6897 0.0
H494 H 0.21736 0.81482 0.85555 0.0
H495 H 0.08782 0.81994 0.84971 0.0
H496 H 0.08478 0.82061 0.9275 0.0
H497 H 0.22591 0.74712 0.94038 0.0
H498 H 0.26797 0.77297 0.96499 0.0
H499 H 0.26055 0.77734 0.90886 0.0
H500 H 0.26055 0.859 0.91433 0.0
H501 H 0.26866 0.85494 0.97049 0.0
H502 H 0.22676 0.88458 0.95044 0.0
H503 H 0.09558 0.80745 0.00513 0.0
H504 H 0.12044 0.79478 0.07771 0.0
H505 H 0.24232 0.80668 0.03394 0.0
C506 C 0.18843 0.81714 0.87065 0.0
C507 C 0.15286 0.81691 0.84658 0.0
C508 C 0.11552 0.81995 0.86747 0.0
C509 C 0.11344 0.82024 0.91168 0.0
C510 C 0.14901 0.8186 0.93452 0.0
C511 C 0.18585 0.81838 0.91477 0.0
C512 C 0.21954 0.81581 0.94667 0.0
C513 C 0.24497 0.77594 0.9398 0.0
C514 C 0.2454 0.85598 0.94541 0.0
C515 C 0.19585 0.81304 0.98728 0.0
C516 C 0.15519 0.81436 0.97959 0.0
C517 C 0.12734 0.80796 0.01169 0.0
C518 C 0.14155 0.8009 0.05281 0.0
C519 C 0.18294 0.80139 0.06168 0.0
C520 C 0.21038 0.8074 0.02834 0.0
H521 H 0.53339 0.96909 0.33929 0.0
H522 H 0.47839 0.09285 0.33323 0.0
H523 H 0.48092 0.09059 0.25518 0.0
H524 H 0.6023 0.98999 0.25333 0.0
H525 H 0.6012 0.93643 0.23412 0.0
H526 H 0.59305 0.94693 0.28933 0.0
H527 H 0.52566 0.9069 0.28587 0.0
H528 H 0.53386 0.89653 0.23075 0.0
H529 H 0.48858 0.92248 0.24758 0.0
H530 H 0.48919 0.07495 0.17851 0.0
H531 H 0.50707 0.04966 0.10749 0.0
H532 H 0.56073 0.93761 0.16295 0.0
C533 C 0.52151 -0.00461 0.32135 0.0
C534 C 0.5051 0.03085 0.34191 0.0
C535 C 0.49082 0.06533 0.31778 0.0
C536 C 0.49208 0.06428 0.27356 0.0
C537 C 0.5085 0.02889 0.25412 0.0
C538 C 0.52358 -0.00463 0.27717 0.0
C539 C 0.54215 0.96255 0.24849 0.0
C540 C 0.58735 0.95878 0.25681 0.0
C541 C 0.52124 0.91958 0.25345 0.0
C542 C 0.53396 0.98223 0.20562 0.0
C543 C 0.51455 0.0205 0.20972 0.0
C544 C 0.50438 0.04503 0.17482 0.0
C545 C 0.51466 0.03033 0.13457 0.0
C546 C 0.53522 0.99156 0.12946 0.0
C547 C 0.54478 0.96721 0.16564 0.0
H548 H 0.42821 0.22864 0.26459 0.0
H549 H 0.44639 0.36403 0.26262 0.0
H550 H 0.51698 0.35348 0.24205 0.0
H551 H 0.51516 0.20645 0.31667 0.0
H552 H 0.52457 0.15721 0.29023 0.0
H553 H 0.47429 0.17639 0.29445 0.0
H554 H 0.46811 0.17116 0.21255 0.0
H555 H 0.51918 0.15348 0.20896 0.0
H556 H 0.50318 0.1993 0.17966 0.0
H557 H 0.58711 0.32851 0.23298 0.0
H558 H 0.6515 0.29192 0.24402 0.0
H559 H 0.58852 0.17277 0.25631 0.0
C560 C 0.44677 0.25592 0.25796 0.0
C561 C 0.43197 0.29712 0.26391 0.0
C562 C 0.45729 0.33228 0.25731 0.0
C563 C 0.49728 0.32654 0.24545 0.0
C564 C 0.5115 0.28539 0.24089 0.0
C565 C 0.48702 0.25062 0.2472 0.0
C566 C 0.51094 0.21004 0.24764 0.0
C567 C 0.50588 0.18617 0.28975 0.0
C568 C 0.49968 0.18185 0.20994 0.0
C569 C 0.55282 0.22759 0.24294 0.0
C570 C 0.55247 0.27093 0.23758 0.0
C571 C 0.58777 0.2945 0.23638 0.0
C572 C 0.62423 0.27347 0.24256 0.0
C573 C 0.62487 0.22959 0.25093 0.0
C574 C 0.58884 0.20631 0.24955 0.0
H575 H 0.02223 0.35157 0.5361 0.0
H576 H 0.90417 0.3798 0.48712 0.0
H577 H 0.89675 0.3055 0.46394 0.0
H578 H 0.05234 0.27349 0.45812 0.0
H579 H 0.07598 0.23936 0.4963 0.0
H580 H 0.07392 0.29547 0.50549 0.0
H581 H 0.03919 0.28263 0.5775 0.0
H582 H 0.04171 0.22656 0.56871 0.0
H583 H -0.00574 0.25116 0.57943 0.0
H584 H 0.90273 0.22961 0.44482 0.0
H585 H 0.91512 0.153 0.44353 0.0
H586 H 0.02596 0.17124 0.51236 0.0
C587 C -0.00502 0.34196 0.52023 0.0
C588 C 0.96384 0.37114 0.51282 0.0
C589 C 0.92822 0.35767 0.49293 0.0
C590 C 0.92398 0.31577 0.47934 0.0
C591 C 0.95537 0.28776 0.48671 0.0
C592 C -0.01021 0.29992 0.50762 0.0
C593 C 0.0171 0.26245 0.51546 0.0
C594 C 0.05721 0.26804 0.49246 0.0
C595 C 0.02341 0.25528 0.5631 0.0
C596 C -0.0075 0.22726 0.49585 0.0
C597 C 0.95753 0.24294 0.47851 0.0
C598 C 0.92975 0.21692 0.45872 0.0
C599 C 0.93694 0.17346 0.45833 0.0
C600 C 0.97091 0.15619 0.47868 0.0
C601 C -0.00021 0.18357 0.49644 0.0
H602 H 0.8426 0.64485 0.72466 0.0
H603 H 0.79174 0.76437 0.6868 0.0
H604 H 0.85521 0.78357 0.65138 0.0
H605 H 0.92751 0.67809 0.75682 0.0
H606 H 0.95911 0.6361 0.73826 0.0
H607 H 0.90729 0.6261 0.74715 0.0
H608 H 0.89884 0.60013 0.6705 0.0
H609 H 0.95092 0.6101 0.66002 0.0
H610 H 0.91325 0.63369 0.62705 0.0
H611 H 0.92795 0.79785 0.64078 0.0
H612 H 0.00019 0.80496 0.65607 0.0
H613 H 0.00394 0.67468 0.69622 0.0
C614 C 0.84437 0.674 0.7068 0.0
C615 C 0.81254 0.7029 0.70764 0.0
C616 C 0.81573 0.74148 0.68546 0.0
C617 C 0.85169 0.75255 0.66529 0.0
C618 C 0.88362 0.72416 0.66681 0.0
C619 C 0.8798 0.68507 0.68615 0.0
C620 C 0.91964 0.6629 0.68956 0.0
C621 C 0.9289 0.65014 0.73564 0.0
C622 C 0.92071 0.62443 0.66003 0.0
C623 C 0.94721 0.69747 0.67385 0.0
C624 C 0.92592 0.73206 0.65928 0.0
C625 C 0.94498 0.77042 0.65033 0.0
C626 C -0.01386 0.77422 0.65876 0.0
C627 C 0.0075 0.73992 0.67613 0.0
C628 C -0.01172 0.70064 0.68133 0.0
H629 H 0.56815 0.66766 0.9126 0.0
H630 H 0.4486 0.66198 0.85924 0.0
H631 H 0.44243 0.73902 0.86665 0.0
H632 H 0.5507 0.74337 0.98859 0.0
H633 H 0.59723 0.77155 0.98261 0.0
H634 H 0.59445 0.71638 0.96933 0.0
H635 H 0.62029 0.7324 0.89396 0.0
H636 H 0.62371 0.7877 0.90701 0.0
H637 H 0.59485 0.77102 0.86188 0.0
H638 H 0.44503 0.81427 0.88931 0.0
H639 H 0.46009 0.88556 0.91696 0.0
H640 H 0.57971 0.84448 0.95041 0.0
C641 C 0.54111 0.68275 0.90149 0.0
C642 C 0.50884 0.65868 0.88546 0.0
C643 C 0.47379 0.67965 0.87156 0.0
C644 C 0.46993 0.72346 0.8757 0.0
C645 C 0.50172 0.74609 0.89287 0.0
C646 C 0.53705 0.72672 0.90456 0.0
C647 C 0.56627 0.75847 0.92297 0.0
C648 C 0.57781 0.74672 0.96858 0.0
C649 C 0.60348 0.76264 0.89478 0.0
C650 C 0.54105 0.79824 0.92151 0.0
C651 C 0.50392 0.79031 0.90404 0.0
C652 C 0.47429 0.82119 0.90221 0.0
C653 C 0.48298 0.86144 0.91825 0.0
C654 C 0.52108 0.87053 0.93541 0.0
C655 C 0.5505 0.83852 0.93682 0.0
H656 H 0.56254 0.81893 0.15244 0.0
H657 H 0.5785 0.76514 0.27744 0.0
H658 H 0.50716 0.77951 0.29299 0.0
H659 H 0.48038 0.89751 0.17452 0.0
H660 H 0.45776 0.88377 0.12492 0.0
H661 H 0.51129 0.88149 0.13079 0.0
H662 H 0.50797 0.80348 0.10464 0.0
H663 H 0.45455 0.80607 0.10127 0.0
H664 H 0.47781 0.76595 0.13334 0.0
H665 H 0.43132 0.78775 0.28941 0.0
H666 H 0.36063 0.78409 0.26564 0.0
H667 H 0.39619 0.82749 0.14153 0.0
C668 C 0.55166 0.81137 0.18375 0.0
C669 C 0.57629 0.79097 0.2138 0.0
C670 C 0.56035 0.7811 0.25402 0.0
C671 C 0.51985 0.78926 0.2631 0.0
C672 C 0.49588 0.80725 0.23163 0.0
C673 C 0.51149 0.81822 0.19271 0.0
C674 C 0.47915 0.82948 0.1613 0.0
C675 C 0.48239 0.87581 0.14712 0.0
C676 C 0.47992 0.79945 0.12295 0.0
C677 C 0.44259 0.82228 0.18818 0.0
C678 C 0.45254 0.81041 0.22896 0.0
C679 C 0.42327 0.79791 0.25788 0.0
C680 C 0.38321 0.79607 0.24424 0.0
C681 C 0.37323 0.8058 0.2019 0.0
C682 C 0.40311 0.82045 0.17424 0.0
H683 H 0.42987 0.13297 0.42899 0.0
H684 H 0.43612 0.13838 0.56569 0.0
H685 H 0.43035 0.21638 0.56267 0.0
H686 H 0.49169 0.22252 0.41143 0.0
H687 H 0.46459 0.24025 0.36543 0.0
H688 H 0.46534 0.18494 0.3789 0.0
H689 H 0.38842 0.18436 0.37839 0.0
H690 H 0.38676 0.24 0.36653 0.0
H691 H 0.36138 0.2196 0.41247 0.0
H692 H 0.42464 0.29357 0.54442 0.0
H693 H 0.42351 0.36498 0.51218 0.0
H694 H 0.42719 0.3092 0.38742 0.0
C695 C 0.42901 0.15054 0.45832 0.0
C696 C 0.43253 0.12983 0.49771 0.0
C697 C 0.43286 0.15383 0.53534 0.0
C698 C 0.42978 0.19802 0.53386 0.0
C699 C 0.4272 0.21758 0.49445 0.0
C700 C 0.42696 0.19463 0.45733 0.0
C701 C 0.42652 0.22339 0.41902 0.0
C702 C 0.46431 0.21741 0.39213 0.0
C703 C 0.38849 0.21646 0.39255 0.0
C704 C 0.42638 0.26614 0.44037 0.0
C705 C 0.42622 0.26207 0.48389 0.0
C706 C 0.42526 0.29714 0.51043 0.0
C707 C 0.42475 0.33743 0.49196 0.0
C708 C 0.42596 0.34211 0.44759 0.0
C709 C 0.42677 0.30615 0.42147 0.0
H710 H 0.04579 0.28506 0.79778 0.0
H711 H 0.11519 0.1777 0.8399 0.0
H712 H 0.0544 0.14644 0.87169 0.0
H713 H 0.96732 0.28189 0.88874 0.0
H714 H 0.92889 0.29716 0.85181 0.0
H715 H 0.97908 0.31721 0.8458 0.0
H716 H 0.98067 0.28889 0.76909 0.0
H717 H 0.93099 0.26877 0.77483 0.0
H718 H 0.97081 0.23366 0.75961 0.0
H719 H 0.98573 0.11766 0.87699 0.0
H720 H 0.91728 0.09581 0.85785 0.0
H721 H 0.89095 0.22278 0.81614 0.0
C722 C 0.04839 0.25583 0.81537 0.0
C723 C 0.08492 0.23368 0.81651 0.0
C724 C 0.08749 0.19535 0.83921 0.0
C725 C 0.05306 0.17744 0.85732 0.0
C726 C 0.0167 0.19878 0.85312 0.0
C727 C 0.01442 0.2378 0.83358 0.0
C728 C 0.97147 0.25125 0.82677 0.0
C729 C 0.96109 0.28912 0.85498 0.0
C730 C 0.96304 0.26114 0.77982 0.0
C731 C 0.94986 0.21184 0.84133 0.0
C732 C 0.97635 0.18241 0.85773 0.0
C733 C 0.9645 0.14096 0.86592 0.0
C734 C 0.92552 0.12874 0.85502 0.0
C735 C 0.89876 0.15789 0.83645 0.0
C736 C 0.91042 0.2004 0.83183 0.0
H737 H 0.98551 0.84484 0.02068 0.0
H738 H 0.07183 0.88016 0.11649 0.0
H739 H 0.0735 0.80604 0.14204 0.0
H740 H 0.93343 0.76028 0.08087 0.0
H741 H 0.92843 0.72751 0.03463 0.0
H742 H 0.9287 0.78421 0.0294 0.0
H743 H -0.01247 0.77924 0.97638 0.0
H744 H -0.01246 0.72269 0.9815 0.0
H745 H 0.03262 0.75221 0.99186 0.0
H746 H 0.07483 0.72658 0.14809 0.0
H747 H 0.07207 0.64918 0.13778 0.0
H748 H 0.98503 0.66604 0.0375 0.0
C749 C 0.00416 0.83695 0.04756 0.0
C750 C 0.02837 0.86781 0.06699 0.0
C751 C 0.05307 0.85664 0.10143 0.0
C752 C 0.05391 0.81481 0.11626 0.0
C753 C 0.03096 0.78454 0.09519 0.0
C754 C 0.00632 0.79522 0.06174 0.0
C755 C -0.01253 0.75653 0.04194 0.0
C756 C 0.94179 0.75718 0.04703 0.0
C757 C -0.00047 0.75244 -0.00483 0.0
C758 C 0.00621 0.72218 0.06861 0.0
C759 C 0.03108 0.73891 0.0993 0.0
C760 C 0.05465 0.71315 0.12493 0.0
C761 C 0.05298 0.66927 0.11878 0.0
C762 C 0.02788 0.65161 0.08731 0.0
C763 C 0.0037 0.67851 0.06256 0.0
H764 H 0.30777 0.43619 0.22748 0.0
H765 H 0.2187 0.43695 0.32668 0.0
H766 H 0.19806 0.50897 0.30537 0.0
H767 H 0.33772 0.54331 0.24459 0.0
H768 H 0.34798 0.55377 0.18967 0.0
H769 H 0.35264 0.50096 0.21014 0.0
H770 H 0.30297 0.47362 0.15323 0.0
H771 H 0.29934 0.52659 0.13293 0.0
H772 H 0.25467 0.49835 0.148 0.0
H773 H 0.18997 0.58153 0.27635 0.0
H774 H 0.19453 0.65106 0.24158 0.0
H775 H 0.29072 0.60462 0.16234 0.0
C776 C 0.28336 0.45137 0.24396 0.0
C777 C 0.26398 0.43114 0.27795 0.0
C778 C 0.23326 0.45209 0.30011 0.0
C779 C 0.22142 0.49281 0.28822 0.0
C780 C 0.24145 0.51234 0.25491 0.0
C781 C 0.27195 0.4925 0.23325 0.0
C782 C 0.29075 0.5218 0.20101 0.0
C783 C 0.33486 0.5305 0.21203 0.0
C784 C 0.28659 0.50398 0.15612 0.0
C785 C 0.26528 0.56086 0.2071 0.0
C786 C 0.23726 0.55472 0.23859 0.0
C787 C 0.21147 0.58666 0.25135 0.0
C788 C 0.21436 0.62605 0.23145 0.0
C789 C 0.24272 0.63316 0.19899 0.0
C790 C 0.26829 0.59993 0.18653 0.0
H791 H 0.76122 0.00267 0.84779 0.0
H792 H 0.66416 0.04333 0.76731 0.0
H793 H 0.6289 0.97576 0.78056 0.0
H794 H 0.77082 0.90805 0.81525 0.0
H795 H 0.77994 0.88096 0.86446 0.0
H796 H 0.79083 0.93614 0.86016 0.0
H797 H 0.7448 0.95243 0.9236 0.0
H798 H 0.734 0.89682 0.92891 0.0
H799 H 0.69375 0.93419 0.9233 0.0
H800 H 0.61566 0.89839 0.78483 0.0
H801 H 0.62285 0.82081 0.7842 0.0
H802 H 0.72617 0.83133 0.86643 0.0
C803 C 0.73143 -0.00189 0.83512 0.0
C804 C 0.71484 0.02802 0.8073 0.0
C805 C 0.67665 0.02097 0.78963 0.0
C806 C 0.65652 0.98269 0.797 0.0
C807 C 0.67463 0.95261 0.82305 0.0
C808 C 0.71071 0.96059 0.84306 0.0
C809 C 0.72668 0.92149 0.86474 0.0
C810 C 0.76954 0.91107 0.85021 0.0
C811 C 0.72467 0.92653 0.913 0.0
C812 C 0.69669 0.88906 0.84942 0.0
C813 C 0.66614 0.90773 0.82657 0.0
C814 C 0.63858 0.88354 0.80386 0.0
C815 C 0.64308 0.83944 0.80338 0.0
C816 C 0.6751 0.81999 0.82525 0.0
C817 C 0.701 0.84517 0.84997 0.0
H818 H 0.36954 0.48373 0.98594 0.0
H819 H 0.33481 0.46621 0.85575 0.0
H820 H 0.26884 0.43918 0.87888 0.0
H821 H 0.30002 0.40117 0.03969 0.0
H822 H 0.28967 0.4387 0.08098 0.0
H823 H 0.33836 0.43746 0.05664 0.0
H824 H 0.332 0.51652 0.04039 0.0
H825 H 0.28241 0.51936 0.06123 0.0
H826 H 0.29148 0.535 0.00752 0.0
H827 H 0.20292 0.43152 0.91434 0.0
H828 H 0.14371 0.45531 0.95419 0.0
H829 H 0.21916 0.48786 0.06032 0.0
C830 C 0.34889 0.47125 0.96264 0.0
C831 C 0.35746 0.47507 0.91934 0.0
C832 C 0.3291 0.46172 0.88912 0.0
C833 C 0.2916 0.44639 0.90214 0.0
C834 C 0.28286 0.44558 0.94537 0.0
C835 C 0.31094 0.45789 0.97521 0.0
C836 C 0.29177 0.46628 0.01766 0.0
C837 C 0.30579 0.43396 0.05071 0.0
C838 C 0.29991 0.51195 0.03251 0.0
C839 C 0.24827 0.45957 0.00661 0.0
C840 C 0.24381 0.44544 0.96547 0.0
C841 C 0.20613 0.44166 0.9468 0.0
C842 C 0.17257 0.45493 0.96977 0.0
C843 C 0.17718 0.47285 0.01039 0.0
C844 C 0.21511 0.47332 0.02965 0.0
H845 H 0.76009 0.02089 0.29885 0.0
H846 H 0.78763 0.08638 0.18199 0.0
H847 H 0.79718 0.01744 0.14646 0.0
H848 H 0.82884 0.92991 0.28362 0.0
H849 H 0.79349 0.89389 0.30713 0.0
H850 H 0.79543 0.94811 0.32431 0.0
H851 H 0.71985 0.95629 0.3078 0.0
H852 H 0.71767 0.90231 0.29066 0.0
H853 H 0.70168 0.94389 0.2556 0.0
H854 H 0.79314 0.9407 0.12178 0.0
H855 H 0.77516 0.86576 0.11041 0.0
H856 H 0.75304 0.85196 0.24471 0.0
C857 C 0.76895 0.0209 0.26596 0.0
C858 C 0.77305 0.059 0.24317 0.0
C859 C 0.78455 0.05755 0.20015 0.0
C860 C 0.79006 0.01853 0.17973 0.0
C861 C 0.78459 0.98144 0.20299 0.0
C862 C 0.77472 0.98251 0.24536 0.0
C863 C 0.76686 0.93882 0.26272 0.0
C864 C 0.79802 0.92699 0.29644 0.0
C865 C 0.72399 0.93514 0.28018 0.0
C866 C 0.77216 0.91289 0.22314 0.0
C867 C 0.78285 0.93775 0.18902 0.0
C868 C 0.78528 0.92101 0.14835 0.0
C869 C 0.77514 0.87834 0.14221 0.0
C870 C 0.76303 0.85285 0.1767 0.0
C871 C 0.76299 0.87024 0.21775 0.0
H872 H 0.87809 0.02962 0.03628 0.0
H873 H 0.89468 0.03923 0.90145 0.0
H874 H 0.82422 0.06092 0.89271 0.0
H875 H 0.79665 0.97374 0.0273 0.0
H876 H 0.76993 0.9933 0.07258 0.0
H877 H 0.82347 -0.004 0.07149 0.0
H878 H 0.82121 0.07669 0.08408 0.0
H879 H 0.76741 0.0742 0.0862 0.0
H880 H 0.79164 0.10967 0.04969 0.0
H881 H 0.74987 0.06544 0.8968 0.0
H882 H 0.6801 0.04332 0.91134 0.0
H883 H 0.71084 0.02304 0.04267 0.0
C884 C 0.86733 0.03922 0.00543 0.0
C885 C 0.89195 0.0351 0.96974 0.0
C886 C 0.87653 0.04444 0.92923 0.0
C887 C 0.83649 0.05656 0.92408 0.0
C888 C 0.81207 0.05821 0.95976 0.0
C889 C 0.82703 0.04968 -0.00022 0.0
C890 C 0.79359 0.04294 0.03122 0.0
C891 C 0.79611 -0.00112 0.05179 0.0
C892 C 0.79346 0.07798 0.06477 0.0
C893 C 0.75768 0.0464 0.00238 0.0
C894 C 0.76869 0.05699 0.96164 0.0
C895 C 0.74085 0.05767 0.92868 0.0
C896 C 0.70128 0.04532 0.93719 0.0
C897 C 0.6904 0.03174 0.97814 0.0
C898 C 0.71857 0.03378 0.01122 0.0
H899 H 0.14182 0.60923 0.71173 0.0
H900 H 0.15255 0.62607 0.84721 0.0
H901 H 0.17091 0.55075 0.85508 0.0
H902 H 0.09597 0.50572 0.71943 0.0
H903 H 0.1194 0.48689 0.67189 0.0
H904 H 0.1086 0.54225 0.67779 0.0
H905 H 0.18343 0.55933 0.66352 0.0
H906 H 0.19432 0.50389 0.65865 0.0
H907 H 0.22133 0.53563 0.6964 0.0
H908 H 0.19109 0.47424 0.84735 0.0
H909 H 0.20154 0.39981 0.82626 0.0
H910 H 0.17272 0.4326 0.69655 0.0
C911 C 0.14853 0.59712 0.74295 0.0
C912 C 0.14674 0.62348 0.77878 0.0
C913 C 0.15429 0.60634 0.81934 0.0
C914 C 0.16481 0.56372 0.82409 0.0
C915 C 0.16688 0.53863 0.78801 0.0
C916 C 0.15814 0.55449 0.74834 0.0
C917 C 0.15986 0.52031 0.71505 0.0
C918 C 0.1185 0.5134 0.69484 0.0
C919 C 0.19164 0.5304 0.68144 0.0
C920 C 0.17192 0.48294 0.74202 0.0
C921 C 0.17619 0.49417 0.78395 0.0
C922 C 0.18755 0.46495 0.81468 0.0
C923 C 0.19371 0.42286 0.80235 0.0
C924 C 0.18789 0.41043 0.7598 0.0
C925 C 0.17733 0.44112 0.72934 0.0
H926 H 0.15442 0.54489 0.55374 0.0
H927 H 0.07852 0.56472 0.44469 0.0
H928 H 0.13772 0.58261 0.40195 0.0
H929 H 0.23866 0.62557 0.51953 0.0
H930 H 0.27568 0.59033 0.54119 0.0
H931 H 0.22756 0.59525 0.56632 0.0
H932 H 0.21794 0.51439 0.56103 0.0
H933 H 0.26527 0.5091 0.53549 0.0
H934 H 0.22081 0.48922 0.51001 0.0
H935 H 0.20265 0.57252 0.36723 0.0
H936 H 0.2674 0.54206 0.34558 0.0
H937 H 0.30305 0.53218 0.47655 0.0
C938 C 0.15028 0.55529 0.52142 0.0
C939 C 0.11223 0.5534 0.50234 0.0
C940 C 0.10748 0.56649 0.45995 0.0
C941 C 0.14102 0.57671 0.43545 0.0
C942 C 0.17877 0.57482 0.45426 0.0
C943 C 0.18346 0.56578 0.49681 0.0
C944 C 0.22692 0.55835 0.50792 0.0
C945 C 0.24316 0.59455 0.53535 0.0
C946 C 0.23303 0.51521 0.52982 0.0
C947 C 0.24525 0.5594 0.46429 0.0
C948 C 0.21728 0.57033 0.43384 0.0
C949 C 0.2252 0.56565 0.3908 0.0
C950 C 0.26179 0.54795 0.37872 0.0
C951 C 0.2899 0.53529 0.40953 0.0
C952 C 0.28236 0.54304 0.45254 0.0
H953 H 0.73461 0.63768 0.89246 0.0
H954 H 0.60904 0.60465 0.88618 0.0
H955 H 0.60822 0.59463 0.96379 0.0
H956 H 0.76343 0.57039 0.98538 0.0
H957 H 0.79556 0.61119 0.00614 0.0
H958 H 0.78867 0.60607 0.94986 0.0
H959 H 0.76623 0.68427 0.94556 0.0
H960 H 0.77306 0.68963 0.00159 0.0
H961 H 0.72537 0.70198 0.97806 0.0
H962 H 0.61854 0.59815 0.04146 0.0
H963 H 0.63665 0.62083 0.11336 0.0
H964 H 0.75497 0.65594 0.06978 0.0
C965 C 0.70724 0.62709 0.90721 0.0
C966 C 0.67181 0.6217 0.88343 0.0
C967 C 0.63641 0.60878 0.90401 0.0
C968 C 0.63582 0.60276 0.94794 0.0
C969 C 0.67096 0.6099 0.97073 0.0
C970 C 0.70602 0.62192 0.95106 0.0
C971 C 0.73786 0.63409 0.983 0.0
C972 C 0.77349 0.6036 0.98097 0.0
C973 C 0.75139 0.68021 0.97667 0.0
C974 C 0.71481 0.6286 0.02378 0.0
C975 C 0.67663 0.6135 0.01596 0.0
C976 C 0.64853 0.60927 0.04803 0.0
C977 C 0.65912 0.62228 0.08878 0.0
C978 C 0.69731 0.63987 0.09715 0.0
C979 C 0.72595 0.64166 0.06451 0.0
H980 H 0.42668 0.43498 0.22516 0.0
H981 H 0.45543 0.55192 0.2901 0.0
H982 H 0.47247 0.58514 0.22193 0.0
H983 H 0.50611 0.44199 0.14687 0.0
H984 H 0.47566 0.42 0.1053 0.0
H985 H 0.46677 0.40509 0.15944 0.0
H986 H 0.39253 0.42895 0.1527 0.0
H987 H 0.40171 0.44289 0.09844 0.0
H988 H 0.38176 0.48163 0.13427 0.0
H989 H 0.47976 0.60771 0.14622 0.0
H990 H 0.48303 0.61576 0.06838 0.0
H991 H 0.45496 0.48291 0.05346 0.0
C992 C 0.4371 0.46739 0.22512 0.0
C993 C 0.43987 0.4908 0.26298 0.0
C994 C 0.45341 0.53323 0.26155 0.0
C995 C 0.46298 0.55246 0.22296 0.0
C996 C 0.45941 0.52867 0.18618 0.0
C997 C 0.4473 0.48691 0.18697 0.0
C998 C 0.44568 0.46848 0.14291 0.0
C999 C 0.47533 0.43172 0.13837 0.0
C1000 C 0.40287 0.45469 0.13145 0.0
C1001 C 0.45858 0.50647 0.1172 0.0
C1002 C 0.46585 0.54106 0.14272 0.0
C1003 C 0.47497 0.58067 0.12594 0.0
C1004 C 0.47671 0.585 0.08186 0.0
C1005 C 0.47017 0.54974 0.05537 0.0
C1006 C 0.46129 0.51 0.07328 0.0
H1007 H 0.73413 0.21179 0.43474 0.0
H1008 H 0.84745 0.15242 0.4047 0.0
H1009 H 0.85559 0.13236 0.47982 0.0
H1010 H 0.76432 0.25424 0.53603 0.0
H1011 H 0.71635 0.24491 0.5602 0.0
H1012 H 0.71956 0.25463 0.50424 0.0
H1013 H 0.68158 0.18545 0.49093 0.0
H1014 H 0.67982 0.17287 0.54643 0.0
H1015 H 0.70168 0.13622 0.5096 0.0
H1016 H 0.85413 0.12369 0.55749 0.0
H1017 H 0.84067 0.12026 0.63405 0.0
H1018 H 0.72689 0.18287 0.61392 0.0
C1019 C 0.76086 0.19486 0.44396 0.0
C1020 C 0.79032 0.18386 0.4139 0.0
C1021 C 0.82471 0.1615 0.42722 0.0
C1022 C 0.82962 0.15001 0.46972 0.0
C1023 C 0.80008 0.16139 0.49845 0.0
C1024 C 0.76634 0.18326 0.48625 0.0
C1025 C 0.73908 0.19144 0.52361 0.0
C1026 C 0.73458 0.23914 0.53148 0.0
C1027 C 0.69813 0.17021 0.51731 0.0
C1028 C 0.76278 0.1705 0.5587 0.0
C1029 C 0.79803 0.15381 0.54341 0.0
C1030 C 0.8263 0.13553 0.56991 0.0
C1031 C 0.81846 0.13407 0.61329 0.0
C1032 C 0.78255 0.15086 0.6298 0.0
C1033 C 0.7542 0.16899 0.60204 0.0
H1034 H 0.0019 0.46167 0.71954 0.0
H1035 H 0.02041 0.58626 0.66608 0.0
H1036 H 0.03402 0.61458 0.73759 0.0
H1037 H 0.95261 0.49346 0.81583 0.0
H1038 H 0.9774 0.45411 0.84761 0.0
H1039 H 0.96825 0.44432 0.79241 0.0
H1040 H 0.04392 0.43024 0.78105 0.0
H1041 H 0.05329 0.44017 0.83619 0.0
H1042 H 0.07981 0.46989 0.79651 0.0
H1043 H 0.0477 0.62848 0.81471 0.0
H1044 H 0.05891 0.62736 0.89194 0.0
H1045 H 0.02931 0.49386 0.89477 0.0
C1046 C 0.00777 0.49514 0.72309 0.0
C1047 C 0.00897 0.52212 0.68761 0.0
C1048 C 0.01792 0.56547 0.69314 0.0
C1049 C 0.0261 0.58169 0.7335 0.0
C1050 C 0.02456 0.55422 0.76791 0.0
C1051 C 0.01544 0.51191 0.76311 0.0
C1052 C 0.01716 0.48872 0.8049 0.0
C1053 C 0.97642 0.46901 0.81583 0.0
C1054 C 0.05052 0.45529 0.80462 0.0
C1055 C 0.02745 0.52484 0.83422 0.0
C1056 C 0.03232 0.56222 0.8122 0.0
C1057 C 0.04359 0.5995 0.83234 0.0
C1058 C 0.04986 0.59854 0.87617 0.0
C1059 C 0.0443 0.56068 0.89942 0.0
C1060 C 0.03291 0.52347 0.87801 0.0
H1061 H 0.79919 0.02877 0.58908 0.0
H1062 H 0.83506 0.94564 0.48721 0.0
H1063 H 0.76424 0.92466 0.47702 0.0
H1064 H 0.71052 0.96704 0.62844 0.0
H1065 H 0.68318 0.01526 0.63713 0.0
H1066 H 0.73675 0.01456 0.64333 0.0
H1067 H 0.74256 0.076 0.59041 0.0
H1068 H 0.68951 0.07699 0.58231 0.0
H1069 H 0.72261 0.07016 0.53789 0.0
H1070 H 0.68792 0.92185 0.47103 0.0
H1071 H 0.61628 0.94166 0.4662 0.0
H1072 H 0.63268 0.03059 0.56851 0.0
C1073 C 0.79258 0.00496 0.56553 0.0
C1074 C 0.82287 0.98864 0.53913 0.0
C1075 C 0.81251 0.95823 0.50819 0.0
C1076 C 0.77231 0.94609 0.50226 0.0
C1077 C 0.74296 0.96444 0.52772 0.0
C1078 C 0.7529 0.99311 0.55895 0.0
C1079 C 0.71627 0.0138 0.57759 0.0
C1080 C 0.7114 0.00193 0.6244 0.0
C1081 C 0.71777 0.06209 0.57166 0.0
C1082 C 0.684 0.9938 0.5508 0.0
C1083 C 0.6996 0.96438 0.52307 0.0
C1084 C 0.67541 0.94421 0.49317 0.0
C1085 C 0.63474 0.95543 0.49075 0.0
C1086 C 0.61912 0.98723 0.51734 0.0
C1087 C 0.64387 0.00566 0.54834 0.0
loop_
_geom_bond_atom_site_label_1
_geom_bond_atom_site_label_2
_geom_bond_distance
_geom_bond_site_symmetry_2
_ccdc_geom_bond_type
C0 O1 1.306 . S
C0 O3 1.160 . S
O1 C0 1.306 . S
O1 Cd2 2.228 . S
Cd2 O1 2.228 . S
Cd2 O6 2.273 . S
Cd2 O10 2.277 . S
O3 C0 1.160 . S
O3 Cd4 2.203 . S
Cd4 O3 2.203 . S
Cd4 O6 2.411 . S
Cd4 O7 2.333 . S
Cd4 O8 2.352 . S
Cd4 O12 2.277 . S
Cd4 O13 2.356 . S
C5 O10 1.209 . S
C5 O12 1.226 . S
O6 Cd2 2.273 . S
O6 Cd4 2.411 . S
O6 C9 1.320 . S
O7 Cd4 2.333 . S
O7 C9 1.214 . S
O8 Cd4 2.352 . S
O8 C11 1.258 . S
C9 O6 1.320 . S
C9 O7 1.214 . S
O10 Cd2 2.277 . S
O10 C5 1.209 . S
C11 O8 1.258 . S
C11 O13 1.282 . S
O12 Cd4 2.277 . S
O12 C5 1.226 . S
O13 Cd4 2.356 . S
O13 C11 1.282 . S
C14 O15 1.306 1_565 S
C14 O17 1.160 . S
O15 C14 1.306 1_545 S
O15 Cd16 2.228 . S
Cd16 O15 2.228 . S
Cd16 O20 2.273 . S
Cd16 O24 2.277 . S
O17 C14 1.160 . S
O17 Cd18 2.203 1_565 S
Cd18 O17 2.203 1_545 S
Cd18 O20 2.411 . S
Cd18 O21 2.333 1_655 S
Cd18 O22 2.352 1_545 S
Cd18 O26 2.277 1_545 S
Cd18 O27 2.356 1_645 S
C19 O24 1.209 . S
C19 O26 1.226 1_545 S
O20 Cd16 2.273 . S
O20 Cd18 2.411 . S
O20 C23 1.320 . S
O21 Cd18 2.333 1_455 S
O21 C23 1.214 1_455 S
O22 Cd18 2.352 1_565 S
O22 C25 1.258 1_655 S
C23 O20 1.320 . S
C23 O21 1.214 1_655 S
O24 Cd16 2.277 . S
O24 C19 1.209 . S
C25 O22 1.258 1_455 S
C25 O27 1.282 . S
O26 Cd18 2.277 1_565 S
O26 C19 1.226 1_565 S
O27 Cd18 2.356 1_465 S
O27 C25 1.282 . S
C28 O29 1.306 . S
C28 O31 1.160 . S
O29 C28 1.306 . S
O29 Cd30 2.228 . S
Cd30 O29 2.228 . S
Cd30 O34 2.273 . S
Cd30 O38 2.277 . S
O31 C28 1.160 . S
O31 Cd32 2.203 . S
Cd32 O31 2.203 . S
Cd32 O34 2.411 . S
Cd32 O35 2.333 . S
Cd32 O36 2.352 . S
Cd32 O40 2.277 . S
Cd32 O41 2.356 . S
C33 O38 1.209 . S
C33 O40 1.226 . S
O34 Cd30 2.273 . S
O34 Cd32 2.411 . S
O34 C37 1.320 . S
O35 Cd32 2.333 . S
O35 C37 1.214 . S
O36 Cd32 2.352 . S
O36 C39 1.258 . S
C37 O34 1.320 . S
C37 O35 1.214 . S
O38 Cd30 2.277 . S
O38 C33 1.209 . S
C39 O36 1.258 . S
C39 O41 1.282 . S
O40 Cd32 2.277 . S
O40 C33 1.226 . S
O41 Cd32 2.356 . S
O41 C39 1.282 . S
C42 O43 1.306 1_546 S
C42 O45 1.160 1_556 S
O43 C42 1.306 1_564 S
O43 Cd44 2.228 . S
Cd44 O43 2.228 . S
Cd44 O48 2.273 1_554 S
Cd44 O52 2.277 . S
O45 C42 1.160 1_554 S
O45 Cd46 2.203 1_545 S
Cd46 O45 2.203 1_565 S
Cd46 O48 2.411 1_554 S
Cd46 O49 2.333 . S
Cd46 O50 2.352 1_564 S
Cd46 O54 2.277 1_565 S
Cd46 O55 2.356 1_564 S
C47 O52 1.209 . S
C47 O54 1.226 1_565 S
O48 Cd44 2.273 1_556 S
O48 Cd46 2.411 1_556 S
O48 C51 1.320 1_556 S
O49 Cd46 2.333 . S
O49 C51 1.214 . S
O50 Cd46 2.352 1_546 S
O50 C53 1.258 . S
C51 O48 1.320 1_554 S
C51 O49 1.214 . S
O52 Cd44 2.277 . S
O52 C47 1.209 . S
C53 O50 1.258 . S
C53 O55 1.282 . S
O54 Cd46 2.277 1_545 S
O54 C47 1.226 1_545 S
O55 Cd46 2.356 1_546 S
O55 C53 1.282 . S
C56 O57 1.306 . S
C56 O59 1.160 . S
O57 C56 1.306 . S
O57 Cd58 2.228 . S
Cd58 O57 2.228 . S
Cd58 O62 2.273 . S
Cd58 O66 2.277 . S
O59 C56 1.160 . S
O59 Cd60 2.203 . S
Cd60 O59 2.203 . S
Cd60 O62 2.411 . S
Cd60 O63 2.333 . S
Cd60 O64 2.352 . S
Cd60 O68 2.277 . S
Cd60 O69 2.356 . S
C61 O66 1.209 . S
C61 O68 1.226 . S
O62 Cd58 2.273 . S
O62 Cd60 2.411 . S
O62 C65 1.320 . S
O63 Cd60 2.333 . S
O63 C65 1.214 . S
O64 Cd60 2.352 . S
O64 C67 1.258 . S
C65 O62 1.320 . S
C65 O63 1.214 . S
O66 Cd58 2.277 . S
O66 C61 1.209 . S
C67 O64 1.258 . S
C67 O69 1.282 . S
O68 Cd60 2.277 . S
O68 C61 1.226 . S
O69 Cd60 2.356 . S
O69 C67 1.282 . S
C70 O71 1.306 1_565 S
C70 O73 1.160 . S
O71 C70 1.306 1_545 S
O71 Cd72 2.228 . S
Cd72 O71 2.228 . S
Cd72 O76 2.273 . S
Cd72 O80 2.277 . S
O73 C70 1.160 . S
O73 Cd74 2.203 1_565 S
Cd74 O73 2.203 1_545 S
Cd74 O76 2.411 . S
Cd74 O77 2.333 . S
Cd74 O78 2.352 1_545 S
Cd74 O82 2.277 1_545 S
Cd74 O83 2.356 1_545 S
C75 O80 1.209 . S
C75 O82 1.226 1_545 S
O76 Cd72 2.273 . S
O76 Cd74 2.411 . S
O76 C79 1.320 . S
O77 Cd74 2.333 . S
O77 C79 1.214 . S
O78 Cd74 2.352 1_565 S
O78 C81 1.258 . S
C79 O76 1.320 . S
C79 O77 1.214 . S
O80 Cd72 2.277 . S
O80 C75 1.209 . S
C81 O78 1.258 . S
C81 O83 1.282 . S
O82 Cd74 2.277 1_565 S
O82 C75 1.226 1_565 S
O83 Cd74 2.356 1_565 S
O83 C81 1.282 . S
C84 O85 1.306 . S
C84 O87 1.160 . S
O85 C84 1.306 . S
O85 Cd86 2.228 . S
Cd86 O85 2.228 . S
Cd86 O90 2.273 . S
Cd86 O94 2.277 . S
O87 C84 1.160 . S
O87 Cd88 2.203 . S
Cd88 O87 2.203 . S
Cd88 O90 2.411 . S
Cd88 O91 2.333 . S
Cd88 O92 2.352 . S
Cd88 O96 2.277 . S
Cd88 O97 2.356 . S
C89 O94 1.209 . S
C89 O96 1.226 . S
O90 Cd86 2.273 . S
O90 Cd88 2.411 . S
O90 C93 1.320 . S
O91 Cd88 2.333 . S
O91 C93 1.214 . S
O92 Cd88 2.352 . S
O92 C95 1.258 . S
C93 O90 1.320 . S
C93 O91 1.214 . S
O94 Cd86 2.277 . S
O94 C89 1.209 . S
C95 O92 1.258 . S
C95 O97 1.282 . S
O96 Cd88 2.277 . S
O96 C89 1.226 . S
O97 Cd88 2.356 . S
O97 C95 1.282 . S
C98 O99 1.306 1_544 S
C98 O101 1.160 1_554 S
O99 C98 1.306 1_566 S
O99 Cd100 2.228 . S
Cd100 O99 2.228 . S
Cd100 O104 2.273 1_556 S
Cd100 O108 2.277 . S
O101 C98 1.160 1_556 S
O101 Cd102 2.203 1_545 S
Cd102 O101 2.203 1_565 S
Cd102 O104 2.411 1_556 S
Cd102 O105 2.333 1_655 S
Cd102 O106 2.352 1_566 S
Cd102 O110 2.277 1_565 S
Cd102 O111 2.356 1_666 S
C103 O108 1.209 . S
C103 O110 1.226 1_565 S
O104 Cd100 2.273 1_554 S
O104 Cd102 2.411 1_554 S
O104 C107 1.320 1_554 S
O105 Cd102 2.333 1_455 S
O105 C107 1.214 1_455 S
O106 Cd102 2.352 1_544 S
O106 C109 1.258 1_655 S
C107 O104 1.320 1_556 S
C107 O105 1.214 1_655 S
O108 Cd100 2.277 . S
O108 C103 1.209 . S
C109 O106 1.258 1_455 S
C109 O111 1.282 . S
O110 Cd102 2.277 1_545 S
O110 C103 1.226 1_545 S
O111 Cd102 2.356 1_444 S
O111 C109 1.282 . S
C112 O113 1.306 . S
C112 O115 1.160 . S
O113 C112 1.306 . S
O113 Cd114 2.228 . S
Cd114 O113 2.228 . S
Cd114 O118 2.273 . S
Cd114 O122 2.277 . S
O115 C112 1.160 . S
O115 Cd116 2.203 . S
Cd116 O115 2.203 . S
Cd116 O118 2.411 . S
Cd116 O119 2.333 . S
Cd116 O120 2.352 . S
Cd116 O124 2.277 . S
Cd116 O125 2.356 . S
C117 O122 1.209 . S
C117 O124 1.226 . S
O118 Cd114 2.273 . S
O118 Cd116 2.411 . S
O118 C121 1.320 . S
O119 Cd116 2.333 . S
O119 C121 1.214 . S
O120 Cd116 2.352 . S
O120 C123 1.258 . S
C121 O118 1.320 . S
C121 O119 1.214 . S
O122 Cd114 2.277 . S
O122 C117 1.209 . S
C123 O120 1.258 . S
C123 O125 1.282 . S
O124 Cd116 2.277 . S
O124 C117 1.226 . S
O125 Cd116 2.356 . S
O125 C123 1.282 . S
C126 O127 1.306 1_554 S
C126 O129 1.160 1_554 S
O127 C126 1.306 1_556 S
O127 Cd128 2.228 . S
Cd128 O127 2.228 . S
Cd128 O132 2.273 1_556 S
Cd128 O136 2.277 . S
O129 C126 1.160 1_556 S
O129 Cd130 2.203 . S
Cd130 O129 2.203 . S
Cd130 O132 2.411 1_556 S
Cd130 O133 2.333 1_455 S
Cd130 O134 2.352 1_556 S
Cd130 O138 2.277 . S
Cd130 O139 2.356 1_456 S
C131 O136 1.209 . S
C131 O138 1.226 . S
O132 Cd128 2.273 1_554 S
O132 Cd130 2.411 1_554 S
O132 C135 1.320 1_554 S
O133 Cd130 2.333 1_655 S
O133 C135 1.214 1_655 S
O134 Cd130 2.352 1_554 S
O134 C137 1.258 1_455 S
C135 O132 1.320 1_556 S
C135 O133 1.214 1_455 S
O136 Cd128 2.277 . S
O136 C131 1.209 . S
C137 O134 1.258 1_655 S
C137 O139 1.282 . S
O138 Cd130 2.277 . S
O138 C131 1.226 . S
O139 Cd130 2.356 1_654 S
O139 C137 1.282 . S
C140 O141 1.306 . S
C140 O143 1.160 . S
O141 C140 1.306 . S
O141 Cd142 2.228 . S
Cd142 O141 2.228 . S
Cd142 O146 2.273 . S
Cd142 O150 2.277 . S
O143 C140 1.160 . S
O143 Cd144 2.203 . S
Cd144 O143 2.203 . S
Cd144 O146 2.411 . S
Cd144 O147 2.333 . S
Cd144 O148 2.352 . S
Cd144 O152 2.277 . S
Cd144 O153 2.356 . S
C145 O150 1.209 . S
C145 O152 1.226 . S
O146 Cd142 2.273 . S
O146 Cd144 2.411 . S
O146 C149 1.320 . S
O147 Cd144 2.333 . S
O147 C149 1.214 . S
O148 Cd144 2.352 . S
O148 C151 1.258 . S
C149 O146 1.320 . S
C149 O147 1.214 . S
O150 Cd142 2.277 . S
O150 C145 1.209 . S
C151 O148 1.258 . S
C151 O153 1.282 . S
O152 Cd144 2.277 . S
O152 C145 1.226 . S
O153 Cd144 2.356 . S
O153 C151 1.282 . S
C154 O155 1.306 . S
C154 O157 1.160 . S
O155 C154 1.306 . S
O155 Cd156 2.228 . S
Cd156 O155 2.228 . S
Cd156 O160 2.273 . S
Cd156 O164 2.277 . S
O157 C154 1.160 . S
O157 Cd158 2.203 . S
Cd158 O157 2.203 . S
Cd158 O160 2.411 . S
Cd158 O161 2.333 1_455 S
Cd158 O162 2.352 . S
Cd158 O166 2.277 . S
Cd158 O167 2.356 1_455 S
C159 O164 1.209 . S
C159 O166 1.226 . S
O160 Cd156 2.273 . S
O160 Cd158 2.411 . S
O160 C163 1.320 . S
O161 Cd158 2.333 1_655 S
O161 C163 1.214 1_655 S
O162 Cd158 2.352 . S
O162 C165 1.258 1_455 S
C163 O160 1.320 . S
C163 O161 1.214 1_455 S
O164 Cd156 2.277 . S
O164 C159 1.209 . S
C165 O162 1.258 1_655 S
C165 O167 1.282 . S
O166 Cd158 2.277 . S
O166 C159 1.226 . S
O167 Cd158 2.356 1_655 S
O167 C165 1.282 . S
C168 O169 1.306 1_556 S
C168 O171 1.160 1_556 S
O169 C168 1.306 1_554 S
O169 Cd170 2.228 . S
Cd170 O169 2.228 . S
Cd170 O174 2.273 1_554 S
Cd170 O178 2.277 . S
O171 C168 1.160 1_554 S
O171 Cd172 2.203 . S
Cd172 O171 2.203 . S
Cd172 O174 2.411 1_554 S
Cd172 O175 2.333 . S
Cd172 O176 2.352 1_554 S
Cd172 O180 2.277 . S
Cd172 O181 2.356 1_554 S
C173 O178 1.209 . S
C173 O180 1.226 . S
O174 Cd170 2.273 1_556 S
O174 Cd172 2.411 1_556 S
O174 C177 1.320 1_556 S
O175 Cd172 2.333 . S
O175 C177 1.214 . S
O176 Cd172 2.352 1_556 S
O176 C179 1.258 . S
C177 O174 1.320 1_554 S
C177 O175 1.214 . S
O178 Cd170 2.277 . S
O178 C173 1.209 . S
C179 O176 1.258 . S
C179 O181 1.282 . S
O180 Cd172 2.277 . S
O180 C173 1.226 . S
O181 Cd172 2.356 1_556 S
O181 C179 1.282 . S
C182 O183 1.306 . S
C182 O185 1.160 . S
O183 C182 1.306 . S
O183 Cd184 2.228 . S
Cd184 O183 2.228 . S
Cd184 O188 2.273 . S
Cd184 O192 2.277 . S
O185 C182 1.160 . S
O185 Cd186 2.203 . S
Cd186 O185 2.203 . S
Cd186 O188 2.411 . S
Cd186 O189 2.333 . S
Cd186 O190 2.352 . S
Cd186 O194 2.277 . S
Cd186 O195 2.356 . S
C187 O192 1.209 . S
C187 O194 1.226 . S
O188 Cd184 2.273 . S
O188 Cd186 2.411 . S
O188 C191 1.320 . S
O189 Cd186 2.333 . S
O189 C191 1.214 . S
O190 Cd186 2.352 . S
O190 C193 1.258 . S
C191 O188 1.320 . S
C191 O189 1.214 . S
O192 Cd184 2.277 . S
O192 C187 1.209 . S
C193 O190 1.258 . S
C193 O195 1.282 . S
O194 Cd186 2.277 . S
O194 C187 1.226 . S
O195 Cd186 2.356 . S
O195 C193 1.282 . S
C196 O197 1.306 . S
C196 O199 1.160 . S
O197 C196 1.306 . S
O197 Cd198 2.228 . S
Cd198 O197 2.228 . S
Cd198 O202 2.273 . S
Cd198 O206 2.277 . S
O199 C196 1.160 . S
O199 Cd200 2.203 . S
Cd200 O199 2.203 . S
Cd200 O202 2.411 . S
Cd200 O203 2.333 . S
Cd200 O204 2.352 . S
Cd200 O208 2.277 . S
Cd200 O209 2.356 . S
C201 O206 1.209 . S
C201 O208 1.226 . S
O202 Cd198 2.273 . S
O202 Cd200 2.411 . S
O202 C205 1.320 . S
O203 Cd200 2.333 . S
O203 C205 1.214 . S
O204 Cd200 2.352 . S
O204 C207 1.258 . S
C205 O202 1.320 . S
C205 O203 1.214 . S
O206 Cd198 2.277 . S
O206 C201 1.209 . S
C207 O204 1.258 . S
C207 O209 1.282 . S
O208 Cd200 2.277 . S
O208 C201 1.226 . S
O209 Cd200 2.356 . S
O209 C207 1.282 . S
C210 O211 1.306 . S
C210 O213 1.160 . S
O211 C210 1.306 . S
O211 Cd212 2.228 . S
Cd212 O211 2.228 . S
Cd212 O216 2.273 . S
Cd212 O220 2.277 . S
O213 C210 1.160 . S
O213 Cd214 2.203 . S
Cd214 O213 2.203 . S
Cd214 O216 2.411 . S
Cd214 O217 2.333 . S
Cd214 O218 2.352 . S
Cd214 O222 2.277 . S
Cd214 O223 2.356 . S
C215 O220 1.209 . S
C215 O222 1.226 . S
O216 Cd212 2.273 . S
O216 Cd214 2.411 . S
O216 C219 1.320 . S
O217 Cd214 2.333 . S
O217 C219 1.214 . S
O218 Cd214 2.352 . S
O218 C221 1.258 . S
C219 O216 1.320 . S
C219 O217 1.214 . S
O220 Cd212 2.277 . S
O220 C215 1.209 . S
C221 O218 1.258 . S
C221 O223 1.282 . S
O222 Cd214 2.277 . S
O222 C215 1.226 . S
O223 Cd214 2.356 . S
O223 C221 1.282 . S
H224 C236 0.930 . S
H225 C238 0.930 . S
H226 C239 0.930 . S
H227 C243 0.959 . S
H228 C243 0.959 . S
H229 C243 0.961 . S
H230 C244 0.960 . S
H231 C244 0.961 . S
H232 C244 0.959 . S
H233 C247 0.929 . S
H234 C248 0.931 . S
H235 C250 0.930 . S
C236 H224 0.930 . S
C236 C237 1.399 . S
C236 C241 1.399 . S
C237 C236 1.399 . S
C237 C238 1.376 . S
C238 H225 0.930 . S
C238 C237 1.376 . S
C238 C239 1.388 . S
C239 H226 0.930 . S
C239 C238 1.388 . S
C239 C240 1.390 . S
C240 C239 1.390 . S
C240 C241 1.394 . S
C240 C246 1.465 . S
C241 C236 1.399 . S
C241 C240 1.394 . S
C241 C242 1.516 . S
C242 C241 1.516 . S
C242 C243 1.502 . S
C242 C244 1.561 . S
C242 C245 1.526 . S
C243 H227 0.959 . S
C243 H228 0.959 . S
C243 H229 0.961 . S
C243 C242 1.502 . S
C244 H230 0.960 . S
C244 H231 0.961 . S
C244 H232 0.959 . S
C244 C242 1.561 . S
C245 C242 1.526 . S
C245 C246 1.396 . S
C245 C250 1.390 . S
C246 C240 1.465 . S
C246 C245 1.396 . S
C246 C247 1.399 . S
C247 H233 0.929 . S
C247 C246 1.399 . S
C247 C248 1.385 . S
C248 H234 0.931 . S
C248 C247 1.385 . S
C248 C249 1.389 . S
C249 C248 1.389 . S
C249 C250 1.387 . S
C250 H235 0.930 . S
C250 C245 1.390 . S
C250 C249 1.387 . S
H251 C263 0.930 . S
H252 C265 0.930 . S
H253 C266 0.930 . S
H254 C270 0.959 . S
H255 C270 0.959 . S
H256 C270 0.961 . S
H257 C271 0.960 . S
H258 C271 0.961 . S
H259 C271 0.959 . S
H260 C274 0.929 . S
H261 C275 0.931 . S
H262 C277 0.930 . S
C263 H251 0.930 . S
C263 C264 1.399 . S
C263 C268 1.399 . S
C264 C263 1.399 . S
C264 C265 1.376 . S
C265 H252 0.930 . S
C265 C264 1.376 . S
C265 C266 1.388 . S
C266 H253 0.930 . S
C266 C265 1.388 . S
C266 C267 1.390 . S
C267 C266 1.390 . S
C267 C268 1.394 . S
C267 C273 1.465 . S
C268 C263 1.399 . S
C268 C267 1.394 . S
C268 C269 1.516 . S
C269 C268 1.516 . S
C269 C270 1.502 . S
C269 C271 1.561 . S
C269 C272 1.526 . S
C270 H254 0.959 . S
C270 H255 0.959 . S
C270 H256 0.961 . S
C270 C269 1.502 . S
C271 H257 0.960 . S
C271 H258 0.961 . S
C271 H259 0.959 . S
C271 C269 1.561 . S
C272 C269 1.526 . S
C272 C273 1.396 . S
C272 C277 1.390 . S
C273 C267 1.465 . S
C273 C272 1.396 . S
C273 C274 1.399 . S
C274 H260 0.929 . S
C274 C273 1.399 . S
C274 C275 1.385 . S
C275 H261 0.931 . S
C275 C274 1.385 . S
C275 C276 1.389 . S
C276 C275 1.389 . S
C276 C277 1.387 . S
C277 H262 0.930 . S
C277 C272 1.390 . S
C277 C276 1.387 . S
H278 C290 0.930 . S
H279 C292 0.930 . S
H280 C293 0.930 . S
H281 C297 0.959 . S
H282 C297 0.959 . S
H283 C297 0.961 . S
H284 C298 0.960 . S
H285 C298 0.961 . S
H286 C298 0.959 . S
H287 C301 0.929 . S
H288 C302 0.931 . S
H289 C304 0.930 . S
C290 H278 0.930 . S
C290 C291 1.399 . S
C290 C295 1.399 . S
C291 C290 1.399 . S
C291 C292 1.376 . S
C292 H279 0.930 . S
C292 C291 1.376 . S
C292 C293 1.388 . S
C293 H280 0.930 . S
C293 C292 1.388 . S
C293 C294 1.390 . S
C294 C293 1.390 . S
C294 C295 1.394 . S
C294 C300 1.465 . S
C295 C290 1.399 . S
C295 C294 1.394 . S
C295 C296 1.516 . S
C296 C295 1.516 . S
C296 C297 1.502 . S
C296 C298 1.561 . S
C296 C299 1.526 . S
C297 H281 0.959 . S
C297 H282 0.959 . S
C297 H283 0.961 . S
C297 C296 1.502 . S
C298 H284 0.960 . S
C298 H285 0.961 . S
C298 H286 0.959 . S
C298 C296 1.561 . S
C299 C296 1.526 . S
C299 C300 1.396 . S
C299 C304 1.390 . S
C300 C294 1.465 . S
C300 C299 1.396 . S
C300 C301 1.399 . S
C301 H287 0.929 . S
C301 C300 1.399 . S
C301 C302 1.385 . S
C302 H288 0.931 . S
C302 C301 1.385 . S
C302 C303 1.389 . S
C303 C302 1.389 . S
C303 C304 1.387 . S
C304 H289 0.930 . S
C304 C299 1.390 . S
C304 C303 1.387 . S
H305 C317 0.930 . S
H306 C319 0.930 . S
H307 C320 0.930 . S
H308 C324 0.959 . S
H309 C324 0.959 . S
H310 C324 0.961 . S
H311 C325 0.960 . S
H312 C325 0.961 . S
H313 C325 0.959 . S
H314 C328 0.929 . S
H315 C329 0.931 . S
H316 C331 0.930 . S
C317 H305 0.930 . S
C317 C318 1.399 . S
C317 C322 1.399 . S
C318 C317 1.399 . S
C318 C319 1.376 . S
C319 H306 0.930 . S
C319 C318 1.376 . S
C319 C320 1.388 . S
C320 H307 0.930 . S
C320 C319 1.388 . S
C320 C321 1.390 . S
C321 C320 1.390 . S
C321 C322 1.394 . S
C321 C327 1.465 . S
C322 C317 1.399 . S
C322 C321 1.394 . S
C322 C323 1.516 . S
C323 C322 1.516 . S
C323 C324 1.502 . S
C323 C325 1.561 . S
C323 C326 1.526 . S
C324 H308 0.959 . S
C324 H309 0.959 . S
C324 H310 0.961 . S
C324 C323 1.502 . S
C325 H311 0.960 . S
C325 H312 0.961 . S
C325 H313 0.959 . S
C325 C323 1.561 . S
C326 C323 1.526 . S
C326 C327 1.396 . S
C326 C331 1.390 . S
C327 C321 1.465 . S
C327 C326 1.396 . S
C327 C328 1.399 . S
C328 H314 0.929 . S
C328 C327 1.399 . S
C328 C329 1.385 . S
C329 H315 0.931 . S
C329 C328 1.385 . S
C329 C330 1.389 . S
C330 C329 1.389 . S
C330 C331 1.387 . S
C331 H316 0.930 . S
C331 C326 1.390 . S
C331 C330 1.387 . S
H332 C344 0.930 . S
H333 C346 0.930 . S
H334 C347 0.930 . S
H335 C351 0.959 . S
H336 C351 0.959 . S
H337 C351 0.961 . S
H338 C352 0.960 . S
H339 C352 0.961 . S
H340 C352 0.959 . S
H341 C355 0.929 . S
H342 C356 0.931 . S
H343 C358 0.930 . S
C344 H332 0.930 . S
C344 C345 1.399 . S
C344 C349 1.399 . S
C345 C344 1.399 . S
C345 C346 1.376 . S
C346 H333 0.930 . S
C346 C345 1.376 . S
C346 C347 1.388 . S
C347 H334 0.930 . S
C347 C346 1.388 . S
C347 C348 1.390 . S
C348 C347 1.390 . S
C348 C349 1.394 . S
C348 C354 1.465 . S
C349 C344 1.399 . S
C349 C348 1.394 . S
C349 C350 1.516 . S
C350 C349 1.516 . S
C350 C351 1.502 . S
C350 C352 1.561 . S
C350 C353 1.526 . S
C351 H335 0.959 . S
C351 H336 0.959 . S
C351 H337 0.961 . S
C351 C350 1.502 . S
C352 H338 0.960 . S
C352 H339 0.961 . S
C352 H340 0.959 . S
C352 C350 1.561 . S
C353 C350 1.526 . S
C353 C354 1.396 . S
C353 C358 1.390 . S
C354 C348 1.465 . S
C354 C353 1.396 . S
C354 C355 1.399 . S
C355 H341 0.929 . S
C355 C354 1.399 . S
C355 C356 1.385 . S
C356 H342 0.931 . S
C356 C355 1.385 . S
C356 C357 1.389 . S
C357 C356 1.389 . S
C357 C358 1.387 . S
C358 H343 0.930 . S
C358 C353 1.390 . S
C358 C357 1.387 . S
H359 C371 0.930 . S
H360 C373 0.930 . S
H361 C374 0.930 . S
H362 C378 0.959 . S
H363 C378 0.959 . S
H364 C378 0.961 . S
H365 C379 0.960 . S
H366 C379 0.961 . S
H367 C379 0.959 . S
H368 C382 0.929 . S
H369 C383 0.931 . S
H370 C385 0.930 . S
C371 H359 0.930 . S
C371 C372 1.399 . S
C371 C376 1.399 . S
C372 C371 1.399 . S
C372 C373 1.376 . S
C373 H360 0.930 . S
C373 C372 1.376 . S
C373 C374 1.388 . S
C374 H361 0.930 . S
C374 C373 1.388 . S
C374 C375 1.390 . S
C375 C374 1.390 . S
C375 C376 1.394 . S
C375 C381 1.465 . S
C376 C371 1.399 . S
C376 C375 1.394 . S
C376 C377 1.516 . S
C377 C376 1.516 . S
C377 C378 1.502 . S
C377 C379 1.561 . S
C377 C380 1.526 . S
C378 H362 0.959 . S
C378 H363 0.959 . S
C378 H364 0.961 . S
C378 C377 1.502 . S
C379 H365 0.960 . S
C379 H366 0.961 . S
C379 H367 0.959 . S
C379 C377 1.561 . S
C380 C377 1.526 . S
C380 C381 1.396 . S
C380 C385 1.390 . S
C381 C375 1.465 . S
C381 C380 1.396 . S
C381 C382 1.399 . S
C382 H368 0.929 . S
C382 C381 1.399 . S
C382 C383 1.385 . S
C383 H369 0.931 . S
C383 C382 1.385 . S
C383 C384 1.389 . S
C384 C383 1.389 . S
C384 C385 1.387 . S
C385 H370 0.930 . S
C385 C380 1.390 . S
C385 C384 1.387 . S
H386 C398 0.930 . S
H387 C400 0.930 . S
H388 C401 0.930 . S
H389 C405 0.959 . S
H390 C405 0.959 . S
H391 C405 0.961 . S
H392 C406 0.960 . S
H393 C406 0.961 . S
H394 C406 0.959 . S
H395 C409 0.929 . S
H396 C410 0.931 . S
H397 C412 0.930 . S
C398 H386 0.930 . S
C398 C399 1.399 . S
C398 C403 1.399 . S
C399 C398 1.399 . S
C399 C400 1.376 . S
C400 H387 0.930 . S
C400 C399 1.376 . S
C400 C401 1.388 . S
C401 H388 0.930 . S
C401 C400 1.388 . S
C401 C402 1.390 . S
C402 C401 1.390 . S
C402 C403 1.394 . S
C402 C408 1.465 . S
C403 C398 1.399 . S
C403 C402 1.394 . S
C403 C404 1.516 . S
C404 C403 1.516 . S
C404 C405 1.502 . S
C404 C406 1.561 . S
C404 C407 1.526 . S
C405 H389 0.959 . S
C405 H390 0.959 . S
C405 H391 0.961 . S
C405 C404 1.502 . S
C406 H392 0.960 . S
C406 H393 0.961 . S
C406 H394 0.959 . S
C406 C404 1.561 . S
C407 C404 1.526 . S
C407 C408 1.396 . S
C407 C412 1.390 . S
C408 C402 1.465 . S
C408 C407 1.396 . S
C408 C409 1.399 . S
C409 H395 0.929 . S
C409 C408 1.399 . S
C409 C410 1.385 . S
C410 H396 0.931 . S
C410 C409 1.385 . S
C410 C411 1.389 . S
C411 C410 1.389 . S
C411 C412 1.387 . S
C412 H397 0.930 . S
C412 C407 1.390 . S
C412 C411 1.387 . S
H413 C425 0.930 . S
H414 C427 0.930 . S
H415 C428 0.930 . S
H416 C432 0.959 . S
H417 C432 0.959 . S
H418 C432 0.961 . S
H419 C433 0.960 . S
H420 C433 0.961 . S
H421 C433 0.959 . S
H422 C436 0.929 . S
H423 C437 0.931 . S
H424 C439 0.930 . S
C425 H413 0.930 . S
C425 C426 1.399 . S
C425 C430 1.399 . S
C426 C425 1.399 . S
C426 C427 1.376 . S
C427 H414 0.930 . S
C427 C426 1.376 . S
C427 C428 1.388 . S
C428 H415 0.930 . S
C428 C427 1.388 . S
C428 C429 1.390 . S
C429 C428 1.390 . S
C429 C430 1.394 . S
C429 C435 1.465 . S
C430 C425 1.399 . S
C430 C429 1.394 . S
C430 C431 1.516 . S
C431 C430 1.516 . S
C431 C432 1.502 . S
C431 C433 1.561 . S
C431 C434 1.526 . S
C432 H416 0.959 . S
C432 H417 0.959 . S
C432 H418 0.961 . S
C432 C431 1.502 . S
C433 H419 0.960 . S
C433 H420 0.961 . S
C433 H421 0.959 . S
C433 C431 1.561 . S
C434 C431 1.526 . S
C434 C435 1.396 . S
C434 C439 1.390 . S
C435 C429 1.465 . S
C435 C434 1.396 . S
C435 C436 1.399 . S
C436 H422 0.929 . S
C436 C435 1.399 . S
C436 C437 1.385 . S
C437 H423 0.931 . S
C437 C436 1.385 . S
C437 C438 1.389 . S
C438 C437 1.389 . S
C438 C439 1.387 . S
C439 H424 0.930 . S
C439 C434 1.390 . S
C439 C438 1.387 . S
H440 C452 0.930 . S
H441 C454 0.930 . S
H442 C455 0.930 . S
H443 C459 0.959 . S
H444 C459 0.959 . S
H445 C459 0.961 . S
H446 C460 0.960 . S
H447 C460 0.961 . S
H448 C460 0.959 . S
H449 C463 0.929 . S
H450 C464 0.931 . S
H451 C466 0.930 . S
C452 H440 0.930 . S
C452 C453 1.399 . S
C452 C457 1.399 . S
C453 C452 1.399 . S
C453 C454 1.376 . S
C454 H441 0.930 . S
C454 C453 1.376 . S
C454 C455 1.388 . S
C455 H442 0.930 . S
C455 C454 1.388 . S
C455 C456 1.390 . S
C456 C455 1.390 . S
C456 C457 1.394 . S
C456 C462 1.465 . S
C457 C452 1.399 . S
C457 C456 1.394 . S
C457 C458 1.516 . S
C458 C457 1.516 . S
C458 C459 1.502 . S
C458 C460 1.561 . S
C458 C461 1.526 . S
C459 H443 0.959 . S
C459 H444 0.959 . S
C459 H445 0.961 . S
C459 C458 1.502 . S
C460 H446 0.960 . S
C460 H447 0.961 . S
C460 H448 0.959 . S
C460 C458 1.561 . S
C461 C458 1.526 . S
C461 C462 1.396 . S
C461 C466 1.390 . S
C462 C456 1.465 . S
C462 C461 1.396 . S
C462 C463 1.399 . S
C463 H449 0.929 . S
C463 C462 1.399 . S
C463 C464 1.385 . S
C464 H450 0.931 . S
C464 C463 1.385 . S
C464 C465 1.389 . S
C465 C464 1.389 . S
C465 C466 1.387 . S
C466 H451 0.930 . S
C466 C461 1.390 . S
C466 C465 1.387 . S
H467 C479 0.930 . S
H468 C481 0.930 . S
H469 C482 0.930 . S
H470 C486 0.959 . S
H471 C486 0.959 . S
H472 C486 0.961 . S
H473 C487 0.960 . S
H474 C487 0.961 . S
H475 C487 0.936 1_455 S
H476 C490 0.929 . S
H477 C491 0.931 . S
H478 C493 0.930 . S
C479 H467 0.930 . S
C479 C480 1.399 1_545 S
C479 C484 1.399 . S
C480 C479 1.399 1_565 S
C480 C481 1.376 . S
C481 H468 0.930 . S
C481 C480 1.376 . S
C481 C482 1.388 . S
C482 H469 0.930 . S
C482 C481 1.388 . S
C482 C483 1.390 . S
C483 C482 1.390 . S
C483 C484 1.394 1_565 S
C483 C489 1.465 . S
C484 C479 1.399 . S
C484 C483 1.394 1_545 S
C484 C485 1.516 . S
C485 C484 1.516 . S
C485 C486 1.502 . S
C485 C487 1.561 . S
C485 C488 1.526 . S
C486 H470 0.959 . S
C486 H471 0.959 . S
C486 H472 0.961 . S
C486 C485 1.502 . S
C487 H473 0.960 . S
C487 H474 0.961 . S
C487 H475 0.936 1_655 S
C487 C485 1.561 . S
C488 C485 1.526 . S
C488 C489 1.396 1_545 S
C488 C493 1.390 . S
C489 C483 1.465 . S
C489 C488 1.396 1_565 S
C489 C490 1.399 . S
C490 H476 0.929 . S
C490 C489 1.399 . S
C490 C491 1.385 . S
C491 H477 0.931 . S
C491 C490 1.385 . S
C491 C492 1.389 1_565 S
C492 C491 1.389 1_545 S
C492 C493 1.387 . S
C493 H478 0.930 . S
C493 C488 1.390 . S
C493 C492 1.387 . S
H494 C506 0.930 . S
H495 C508 0.930 . S
H496 C509 0.930 . S
H497 C513 0.959 . S
H498 C513 0.959 . S
H499 C513 0.961 1_556 S
H500 C514 0.959 . S
H501 C514 0.962 1_554 S
H502 C514 0.959 1_554 S
H503 C517 0.929 . S
H504 C518 0.931 . S
H505 C520 0.930 . S
C506 H494 0.930 . S
C506 C507 1.399 . S
C506 C511 1.399 . S
C507 C506 1.399 . S
C507 C508 1.376 . S
C508 H495 0.930 . S
C508 C507 1.376 . S
C508 C509 1.388 . S
C509 H496 0.930 . S
C509 C508 1.388 . S
C509 C510 1.390 . S
C510 C509 1.390 . S
C510 C511 1.394 . S
C510 C516 1.465 1_556 S
C511 C506 1.399 . S
C511 C510 1.394 . S
C511 C512 1.511 1_556 S
C512 C511 1.511 1_554 S
C512 C513 1.502 . S
C512 C514 1.561 1_554 S
C512 C515 1.531 . S
C513 H497 0.959 . S
C513 H498 0.959 . S
C513 H499 0.961 1_554 S
C513 C512 1.502 . S
C514 H500 0.959 . S
C514 H501 0.962 1_556 S
C514 H502 0.959 1_556 S
C514 C512 1.561 1_556 S
C515 C512 1.531 . S
C515 C516 1.396 . S
C515 C520 1.390 . S
C516 C510 1.465 1_554 S
C516 C515 1.396 . S
C516 C517 1.399 . S
C517 H503 0.929 . S
C517 C516 1.399 . S
C517 C518 1.385 . S
C518 H504 0.931 . S
C518 C517 1.385 . S
C518 C519 1.389 . S
C519 C518 1.389 . S
C519 C520 1.387 . S
C520 H505 0.930 . S
C520 C515 1.390 . S
C520 C519 1.387 . S
H521 C533 0.930 . S
H522 C535 0.930 . S
H523 C536 0.930 . S
H524 C540 0.959 . S
H525 C540 0.959 . S
H526 C540 0.961 . S
H527 C541 0.960 . S
H528 C541 0.961 . S
H529 C541 0.959 . S
H530 C544 0.929 . S
H531 C545 0.931 . S
H532 C547 0.930 . S
C533 H521 0.930 . S
C533 C534 1.399 1_565 S
C533 C538 1.399 . S
C534 C533 1.399 1_545 S
C534 C535 1.376 . S
C535 H522 0.930 . S
C535 C534 1.376 . S
C535 C536 1.388 . S
C536 H523 0.930 . S
C536 C535 1.388 . S
C536 C537 1.390 . S
C537 C536 1.390 . S
C537 C538 1.394 1_545 S
C537 C543 1.465 . S
C538 C533 1.399 . S
C538 C537 1.394 1_565 S
C538 C539 1.516 . S
C539 C538 1.516 . S
C539 C540 1.502 . S
C539 C541 1.561 . S
C539 C542 1.526 . S
C540 H524 0.959 . S
C540 H525 0.959 . S
C540 H526 0.961 . S
C540 C539 1.502 . S
C541 H527 0.960 . S
C541 H528 0.961 . S
C541 H529 0.959 . S
C541 C539 1.561 . S
C542 C539 1.526 . S
C542 C543 1.396 1_565 S
C542 C547 1.390 . S
C543 C537 1.465 . S
C543 C542 1.396 1_545 S
C543 C544 1.399 . S
C544 H530 0.929 . S
C544 C543 1.399 . S
C544 C545 1.385 . S
C545 H531 0.931 . S
C545 C544 1.385 . S
C545 C546 1.389 1_545 S
C546 C545 1.389 1_565 S
C546 C547 1.387 . S
C547 H532 0.930 . S
C547 C542 1.390 . S
C547 C546 1.387 . S
H548 C560 0.930 . S
H549 C562 0.930 . S
H550 C563 0.930 . S
H551 C567 0.959 . S
H552 C567 0.959 . S
H553 C567 0.961 . S
H554 C568 0.960 . S
H555 C568 0.961 . S
H556 C568 0.959 . S
H557 C571 0.929 . S
H558 C572 0.931 . S
H559 C574 0.930 . S
C560 H548 0.930 . S
C560 C561 1.399 . S
C560 C565 1.399 . S
C561 C560 1.399 . S
C561 C562 1.376 . S
C562 H549 0.930 . S
C562 C561 1.376 . S
C562 C563 1.388 . S
C563 H550 0.930 . S
C563 C562 1.388 . S
C563 C564 1.390 . S
C564 C563 1.390 . S
C564 C565 1.394 . S
C564 C570 1.465 . S
C565 C560 1.399 . S
C565 C564 1.394 . S
C565 C566 1.516 . S
C566 C565 1.516 . S
C566 C567 1.502 . S
C566 C568 1.561 . S
C566 C569 1.526 . S
C567 H551 0.959 . S
C567 H552 0.959 . S
C567 H553 0.961 . S
C567 C566 1.502 . S
C568 H554 0.960 . S
C568 H555 0.961 . S
C568 H556 0.959 . S
C568 C566 1.561 . S
C569 C566 1.526 . S
C569 C570 1.396 . S
C569 C574 1.390 . S
C570 C564 1.465 . S
C570 C569 1.396 . S
C570 C571 1.399 . S
C571 H557 0.929 . S
C571 C570 1.399 . S
C571 C572 1.385 . S
C572 H558 0.931 . S
C572 C571 1.385 . S
C572 C573 1.389 . S
C573 C572 1.389 . S
C573 C574 1.387 . S
C574 H559 0.930 . S
C574 C569 1.390 . S
C574 C573 1.387 . S
H575 C587 0.930 . S
H576 C589 0.930 . S
H577 C590 0.930 . S
H578 C594 0.959 . S
H579 C594 0.959 . S
H580 C594 0.961 . S
H581 C595 0.960 . S
H582 C595 0.961 . S
H583 C595 0.959 1_655 S
H584 C598 0.929 . S
H585 C599 0.931 . S
H586 C601 0.930 . S
C587 H575 0.930 . S
C587 C588 1.399 1_455 S
C587 C592 1.399 . S
C588 C587 1.399 1_655 S
C588 C589 1.376 . S
C589 H576 0.930 . S
C589 C588 1.376 . S
C589 C590 1.388 . S
C590 H577 0.930 . S
C590 C589 1.388 . S
C590 C591 1.390 . S
C591 C590 1.390 . S
C591 C592 1.394 1_655 S
C591 C597 1.465 . S
C592 C587 1.399 . S
C592 C591 1.394 1_455 S
C592 C593 1.516 . S
C593 C592 1.516 . S
C593 C594 1.502 . S
C593 C595 1.561 . S
C593 C596 1.526 . S
C594 H578 0.959 . S
C594 H579 0.959 . S
C594 H580 0.961 . S
C594 C593 1.502 . S
C595 H581 0.960 . S
C595 H582 0.961 . S
C595 H583 0.959 1_455 S
C595 C593 1.561 . S
C596 C593 1.526 . S
C596 C597 1.396 1_455 S
C596 C601 1.390 . S
C597 C591 1.465 . S
C597 C596 1.396 1_655 S
C597 C598 1.399 . S
C598 H584 0.929 . S
C598 C597 1.399 . S
C598 C599 1.385 . S
C599 H585 0.931 . S
C599 C598 1.385 . S
C599 C600 1.389 . S
C600 C599 1.389 . S
C600 C601 1.387 1_655 S
C601 H586 0.930 . S
C601 C596 1.390 . S
C601 C600 1.387 1_455 S
H602 C614 0.930 . S
H603 C616 0.930 . S
H604 C617 0.930 . S
H605 C621 0.959 . S
H606 C621 0.959 . S
H607 C621 0.961 1_655 S
H608 C622 0.960 . S
H609 C622 0.961 1_455 S
H610 C622 0.959 . S
H611 C625 0.929 . S
H612 C626 0.931 . S
H613 C628 0.930 . S
C614 H602 0.930 . S
C614 C615 1.399 . S
C614 C619 1.399 . S
C615 C614 1.399 . S
C615 C616 1.376 . S
C616 H603 0.930 . S
C616 C615 1.376 . S
C616 C617 1.388 . S
C617 H604 0.930 . S
C617 C616 1.388 . S
C617 C618 1.390 . S
C618 C617 1.390 . S
C618 C619 1.394 . S
C618 C624 1.465 1_655 S
C619 C614 1.399 . S
C619 C618 1.394 . S
C619 C620 1.516 1_655 S
C620 C619 1.516 1_455 S
C620 C621 1.502 . S
C620 C622 1.561 1_455 S
C620 C623 1.526 . S
C621 H605 0.959 . S
C621 H606 0.959 . S
C621 H607 0.961 1_455 S
C621 C620 1.502 . S
C622 H608 0.960 . S
C622 H609 0.961 1_655 S
C622 H610 0.959 . S
C622 C620 1.561 1_655 S
C623 C620 1.526 . S
C623 C624 1.396 . S
C623 C628 1.390 . S
C624 C618 1.465 1_455 S
C624 C623 1.396 . S
C624 C625 1.399 . S
C625 H611 0.929 . S
C625 C624 1.399 . S
C625 C626 1.385 . S
C626 H612 0.931 . S
C626 C625 1.385 . S
C626 C627 1.389 . S
C627 C626 1.389 . S
C627 C628 1.387 . S
C628 H613 0.930 . S
C628 C623 1.390 . S
C628 C627 1.387 . S
H629 C641 0.930 . S
H630 C643 0.930 . S
H631 C644 0.930 . S
H632 C648 0.959 . S
H633 C648 0.959 . S
H634 C648 0.961 . S
H635 C649 0.960 . S
H636 C649 0.961 . S
H637 C649 0.959 . S
H638 C652 0.929 . S
H639 C653 0.931 . S
H640 C655 0.930 . S
C641 H629 0.930 . S
C641 C642 1.399 1_556 S
C641 C646 1.399 . S
C642 C641 1.399 1_554 S
C642 C643 1.376 . S
C643 H630 0.930 . S
C643 C642 1.376 . S
C643 C644 1.388 . S
C644 H631 0.930 . S
C644 C643 1.388 . S
C644 C645 1.390 . S
C645 C644 1.390 . S
C645 C646 1.394 1_554 S
C645 C651 1.465 . S
C646 C641 1.399 . S
C646 C645 1.394 1_556 S
C646 C647 1.516 . S
C647 C646 1.516 . S
C647 C648 1.502 . S
C647 C649 1.561 . S
C647 C650 1.526 . S
C648 H632 0.959 . S
C648 H633 0.959 . S
C648 H634 0.961 . S
C648 C647 1.502 . S
C649 H635 0.960 . S
C649 H636 0.961 . S
C649 H637 0.959 . S
C649 C647 1.561 . S
C650 C647 1.526 . S
C650 C651 1.396 1_556 S
C650 C655 1.390 . S
C651 C645 1.465 . S
C651 C650 1.396 1_554 S
C651 C652 1.399 . S
C652 H638 0.929 . S
C652 C651 1.399 . S
C652 C653 1.385 . S
C653 H639 0.931 . S
C653 C652 1.385 . S
C653 C654 1.389 . S
C654 C653 1.389 . S
C654 C655 1.387 1_554 S
C655 H640 0.930 . S
C655 C650 1.390 . S
C655 C654 1.387 1_556 S
H656 C668 0.930 . S
H657 C670 0.930 . S
H658 C671 0.930 . S
H659 C675 0.959 . S
H660 C675 0.959 . S
H661 C675 0.961 . S
H662 C676 0.960 . S
H663 C676 0.961 . S
H664 C676 0.959 . S
H665 C679 0.929 . S
H666 C680 0.931 . S
H667 C682 0.930 . S
C668 H656 0.930 . S
C668 C669 1.399 . S
C668 C673 1.399 . S
C669 C668 1.399 . S
C669 C670 1.376 . S
C670 H657 0.930 . S
C670 C669 1.376 . S
C670 C671 1.388 . S
C671 H658 0.930 . S
C671 C670 1.388 . S
C671 C672 1.390 . S
C672 C671 1.390 . S
C672 C673 1.394 . S
C672 C678 1.465 . S
C673 C668 1.399 . S
C673 C672 1.394 . S
C673 C674 1.516 . S
C674 C673 1.516 . S
C674 C675 1.502 . S
C674 C676 1.561 . S
C674 C677 1.526 . S
C675 H659 0.959 . S
C675 H660 0.959 . S
C675 H661 0.961 . S
C675 C674 1.502 . S
C676 H662 0.960 . S
C676 H663 0.961 . S
C676 H664 0.959 . S
C676 C674 1.561 . S
C677 C674 1.526 . S
C677 C678 1.396 . S
C677 C682 1.390 . S
C678 C672 1.465 . S
C678 C677 1.396 . S
C678 C679 1.399 . S
C679 H665 0.929 . S
C679 C678 1.399 . S
C679 C680 1.385 . S
C680 H666 0.931 . S
C680 C679 1.385 . S
C680 C681 1.389 . S
C681 C680 1.389 . S
C681 C682 1.387 . S
C682 H667 0.930 . S
C682 C677 1.390 . S
C682 C681 1.387 . S
H683 C695 0.930 . S
H684 C697 0.930 . S
H685 C698 0.930 . S
H686 C702 0.959 . S
H687 C702 0.959 . S
H688 C702 0.961 . S
H689 C703 0.960 . S
H690 C703 0.961 . S
H691 C703 0.959 . S
H692 C706 0.929 . S
H693 C707 0.931 . S
H694 C709 0.930 . S
C695 H683 0.930 . S
C695 C696 1.399 . S
C695 C700 1.399 . S
C696 C695 1.399 . S
C696 C697 1.376 . S
C697 H684 0.930 . S
C697 C696 1.376 . S
C697 C698 1.388 . S
C698 H685 0.930 . S
C698 C697 1.388 . S
C698 C699 1.390 . S
C699 C698 1.390 . S
C699 C700 1.394 . S
C699 C705 1.465 . S
C700 C695 1.399 . S
C700 C699 1.394 . S
C700 C701 1.516 . S
C701 C700 1.516 . S
C701 C702 1.502 . S
C701 C703 1.561 . S
C701 C704 1.526 . S
C702 H686 0.959 . S
C702 H687 0.959 . S
C702 H688 0.961 . S
C702 C701 1.502 . S
C703 H689 0.960 . S
C703 H690 0.961 . S
C703 H691 0.959 . S
C703 C701 1.561 . S
C704 C701 1.526 . S
C704 C705 1.396 . S
C704 C709 1.390 . S
C705 C699 1.465 . S
C705 C704 1.396 . S
C705 C706 1.399 . S
C706 H692 0.929 . S
C706 C705 1.399 . S
C706 C707 1.385 . S
C707 H693 0.931 . S
C707 C706 1.385 . S
C707 C708 1.389 . S
C708 C707 1.389 . S
C708 C709 1.387 . S
C709 H694 0.930 . S
C709 C704 1.390 . S
C709 C708 1.387 . S
H710 C722 0.930 . S
H711 C724 0.930 . S
H712 C725 0.930 . S
H713 C729 0.959 . S
H714 C729 0.959 1_655 S
H715 C729 0.961 . S
H716 C730 0.960 1_455 S
H717 C730 0.961 . S
H718 C730 0.959 . S
H719 C733 0.929 . S
H720 C734 0.931 . S
H721 C736 0.930 . S
C722 H710 0.930 . S
C722 C723 1.399 . S
C722 C727 1.399 . S
C723 C722 1.399 . S
C723 C724 1.376 . S
C724 H711 0.930 . S
C724 C723 1.376 . S
C724 C725 1.388 . S
C725 H712 0.930 . S
C725 C724 1.388 . S
C725 C726 1.390 . S
C726 C725 1.390 . S
C726 C727 1.394 . S
C726 C732 1.465 1_455 S
C727 C722 1.399 . S
C727 C726 1.394 . S
C727 C728 1.516 . S
C728 C727 1.516 . S
C728 C729 1.502 . S
C728 C730 1.561 1_455 S
C728 C731 1.526 1_455 S
C729 H713 0.959 . S
C729 H714 0.959 1_455 S
C729 H715 0.961 . S
C729 C728 1.502 . S
C730 H716 0.960 1_655 S
C730 H717 0.961 . S
C730 H718 0.959 . S
C730 C728 1.561 1_655 S
C731 C728 1.526 1_655 S
C731 C732 1.396 . S
C731 C736 1.390 . S
C732 C726 1.465 1_655 S
C732 C731 1.396 . S
C732 C733 1.399 . S
C733 H719 0.929 . S
C733 C732 1.399 . S
C733 C734 1.385 . S
C734 H720 0.931 . S
C734 C733 1.385 . S
C734 C735 1.389 . S
C735 C734 1.389 . S
C735 C736 1.387 . S
C736 H721 0.930 . S
C736 C731 1.390 . S
C736 C735 1.387 . S
H737 C749 0.932 . S
H738 C751 0.930 . S
H739 C752 0.930 . S
H740 C756 0.959 . S
H741 C756 0.959 . S
H742 C756 0.961 . S
H743 C757 0.960 . S
H744 C757 0.961 . S
H745 C757 0.959 . S
H746 C760 0.929 . S
H747 C761 0.931 . S
H748 C763 0.930 . S
C749 H737 0.932 . S
C749 C750 1.387 1_656 S
C749 C754 1.398 1_655 S
C750 C749 1.387 1_454 S
C750 C751 1.392 . S
C751 H738 0.930 . S
C751 C750 1.392 . S
C751 C752 1.388 . S
C752 H739 0.930 . S
C752 C751 1.388 . S
C752 C753 1.390 . S
C753 C752 1.390 . S
C753 C754 1.394 1_554 S
C753 C759 1.465 . S
C754 C749 1.398 1_455 S
C754 C753 1.394 1_556 S
C754 C755 1.516 . S
C755 C754 1.516 . S
C755 C756 1.502 1_455 S
C755 C757 1.561 . S
C755 C758 1.526 . S
C756 H740 0.959 . S
C756 H741 0.959 . S
C756 H742 0.961 . S
C756 C755 1.502 1_655 S
C757 H743 0.960 . S
C757 H744 0.961 . S
C757 H745 0.959 . S
C757 C755 1.561 . S
C758 C755 1.526 . S
C758 C759 1.396 1_556 S
C758 C763 1.390 . S
C759 C753 1.465 . S
C759 C758 1.396 1_554 S
C759 C760 1.399 . S
C760 H746 0.929 . S
C760 C759 1.399 . S
C760 C761 1.385 . S
C761 H747 0.931 . S
C761 C760 1.385 . S
C761 C762 1.414 . S
C762 C761 1.414 . S
C762 C763 1.367 1_554 S
C763 H748 0.930 . S
C763 C758 1.390 . S
C763 C762 1.367 1_556 S
H764 C776 0.930 . S
H765 C778 0.930 . S
H766 C779 0.930 . S
H767 C783 0.959 . S
H768 C783 0.959 . S
H769 C783 0.961 . S
H770 C784 0.960 . S
H771 C784 0.961 . S
H772 C784 0.959 . S
H773 C787 0.929 . S
H774 C788 0.931 . S
H775 C790 0.930 . S
C776 H764 0.930 . S
C776 C777 1.399 . S
C776 C781 1.399 . S
C777 C776 1.399 . S
C777 C778 1.376 . S
C778 H765 0.930 . S
C778 C777 1.376 . S
C778 C779 1.388 . S
C779 H766 0.930 . S
C779 C778 1.388 . S
C779 C780 1.390 . S
C780 C779 1.390 . S
C780 C781 1.394 . S
C780 C786 1.465 . S
C781 C776 1.399 . S
C781 C780 1.394 . S
C781 C782 1.516 . S
C782 C781 1.516 . S
C782 C783 1.502 . S
C782 C784 1.561 . S
C782 C785 1.526 . S
C783 H767 0.959 . S
C783 H768 0.959 . S
C783 H769 0.961 . S
C783 C782 1.502 . S
C784 H770 0.960 . S
C784 H771 0.961 . S
C784 H772 0.959 . S
C784 C782 1.561 . S
C785 C782 1.526 . S
C785 C786 1.396 . S
C785 C790 1.390 . S
C786 C780 1.465 . S
C786 C785 1.396 . S
C786 C787 1.399 . S
C787 H773 0.929 . S
C787 C786 1.399 . S
C787 C788 1.385 . S
C788 H774 0.931 . S
C788 C787 1.385 . S
C788 C789 1.389 . S
C789 C788 1.389 . S
C789 C790 1.387 . S
C790 H775 0.930 . S
C790 C785 1.390 . S
C790 C789 1.387 . S
H791 C803 0.930 . S
H792 C805 0.930 . S
H793 C806 0.930 . S
H794 C810 0.959 1_565 S
H795 C810 0.959 1_565 S
H796 C810 0.961 . S
H797 C811 0.960 . S
H798 C811 0.961 1_565 S
H799 C811 0.959 . S
H800 C814 0.929 . S
H801 C815 0.931 . S
H802 C817 0.930 . S
C803 H791 0.930 . S
C803 C804 1.399 . S
C803 C808 1.399 . S
C804 C803 1.399 . S
C804 C805 1.376 . S
C805 H792 0.930 . S
C805 C804 1.376 . S
C805 C806 1.388 . S
C806 H793 0.930 . S
C806 C805 1.388 . S
C806 C807 1.390 . S
C807 C806 1.390 . S
C807 C808 1.394 . S
C807 C813 1.465 1_545 S
C808 C803 1.399 . S
C808 C807 1.394 . S
C808 C809 1.516 . S
C809 C808 1.516 . S
C809 C810 1.502 . S
C809 C811 1.561 . S
C809 C812 1.526 1_545 S
C810 H794 0.959 1_545 S
C810 H795 0.959 1_545 S
C810 H796 0.961 . S
C810 C809 1.502 . S
C811 H797 0.960 . S
C811 H798 0.961 1_545 S
C811 H799 0.959 . S
C811 C809 1.561 . S
C812 C809 1.526 1_565 S
C812 C813 1.396 . S
C812 C817 1.390 . S
C813 C807 1.465 1_565 S
C813 C812 1.396 . S
C813 C814 1.399 . S
C814 H800 0.929 . S
C814 C813 1.399 . S
C814 C815 1.385 . S
C815 H801 0.931 . S
C815 C814 1.385 . S
C815 C816 1.389 . S
C816 C815 1.389 . S
C816 C817 1.387 . S
C817 H802 0.930 . S
C817 C812 1.390 . S
C817 C816 1.387 . S
H818 C830 0.930 . S
H819 C832 0.930 . S
H820 C833 0.930 . S
H821 C837 0.959 . S
H822 C837 0.959 . S
H823 C837 0.961 . S
H824 C838 0.960 . S
H825 C838 0.961 . S
H826 C838 0.959 1_556 S
H827 C841 0.929 . S
H828 C842 0.931 . S
H829 C844 0.930 . S
C830 H818 0.930 . S
C830 C831 1.399 1_554 S
C830 C835 1.399 . S
C831 C830 1.399 1_556 S
C831 C832 1.376 . S
C832 H819 0.930 . S
C832 C831 1.376 . S
C832 C833 1.388 . S
C833 H820 0.930 . S
C833 C832 1.388 . S
C833 C834 1.390 . S
C834 C833 1.390 . S
C834 C835 1.394 1_556 S
C834 C840 1.465 . S
C835 C830 1.399 . S
C835 C834 1.394 1_554 S
C835 C836 1.516 . S
C836 C835 1.516 . S
C836 C837 1.502 . S
C836 C838 1.561 . S
C836 C839 1.526 . S
C837 H821 0.959 . S
C837 H822 0.959 . S
C837 H823 0.961 . S
C837 C836 1.502 . S
C838 H824 0.960 . S
C838 H825 0.961 . S
C838 H826 0.959 1_554 S
C838 C836 1.561 . S
C839 C836 1.526 . S
C839 C840 1.396 1_554 S
C839 C844 1.390 . S
C840 C834 1.465 . S
C840 C839 1.396 1_556 S
C840 C841 1.399 . S
C841 H827 0.929 . S
C841 C840 1.399 . S
C841 C842 1.385 . S
C842 H828 0.931 . S
C842 C841 1.385 . S
C842 C843 1.389 1_556 S
C843 C842 1.389 1_554 S
C843 C844 1.387 . S
C844 H829 0.930 . S
C844 C839 1.390 . S
C844 C843 1.387 . S
H845 C857 0.930 . S
H846 C859 0.930 . S
H847 C860 0.930 . S
H848 C864 0.959 . S
H849 C864 0.959 . S
H850 C864 0.961 1_545 S
H851 C865 0.960 1_545 S
H852 C865 0.961 . S
H853 C865 0.959 . S
H854 C868 0.929 . S
H855 C869 0.931 . S
H856 C871 0.930 . S
C857 H845 0.930 . S
C857 C858 1.399 . S
C857 C862 1.399 . S
C858 C857 1.399 . S
C858 C859 1.376 . S
C859 H846 0.930 . S
C859 C858 1.376 . S
C859 C860 1.388 . S
C860 H847 0.930 . S
C860 C859 1.388 . S
C860 C861 1.390 . S
C861 C860 1.390 . S
C861 C862 1.394 . S
C861 C867 1.465 1_545 S
C862 C857 1.399 . S
C862 C861 1.394 . S
C862 C863 1.516 1_545 S
C863 C862 1.516 1_565 S
C863 C864 1.502 . S
C863 C865 1.561 . S
C863 C866 1.526 . S
C864 H848 0.959 . S
C864 H849 0.959 . S
C864 H850 0.961 1_565 S
C864 C863 1.502 . S
C865 H851 0.960 1_565 S
C865 H852 0.961 . S
C865 H853 0.959 . S
C865 C863 1.561 . S
C866 C863 1.526 . S
C866 C867 1.396 . S
C866 C871 1.390 . S
C867 C861 1.465 1_565 S
C867 C866 1.396 . S
C867 C868 1.399 . S
C868 H854 0.929 . S
C868 C867 1.399 . S
C868 C869 1.385 . S
C869 H855 0.931 . S
C869 C868 1.385 . S
C869 C870 1.389 . S
C870 C869 1.389 . S
C870 C871 1.387 . S
C871 H856 0.930 . S
C871 C866 1.390 . S
C871 C870 1.387 . S
H872 C884 0.930 . S
H873 C886 0.930 . S
H874 C887 0.930 . S
H875 C891 0.959 . S
H876 C891 0.959 . S
H877 C891 0.961 . S
H878 C892 0.958 1_554 S
H879 C892 0.958 1_554 S
H880 C892 0.969 . S
H881 C895 0.929 . S
H882 C896 0.931 . S
H883 C898 0.930 . S
C884 H872 0.930 . S
C884 C885 1.399 . S
C884 C889 1.399 . S
C885 C884 1.399 . S
C885 C886 1.376 1_544 S
C886 H873 0.930 . S
C886 C885 1.376 1_566 S
C886 C887 1.388 . S
C887 H874 0.930 . S
C887 C886 1.388 . S
C887 C888 1.390 1_565 S
C888 C887 1.390 1_545 S
C888 C889 1.394 1_556 S
C888 C894 1.465 . S
C889 C884 1.399 . S
C889 C888 1.394 1_554 S
C889 C890 1.516 . S
C890 C889 1.516 . S
C890 C891 1.502 . S
C890 C892 1.556 1_554 S
C890 C893 1.526 . S
C891 H875 0.959 . S
C891 H876 0.959 . S
C891 H877 0.961 . S
C891 C890 1.502 . S
C892 H878 0.958 1_556 S
C892 H879 0.958 1_556 S
C892 H880 0.969 . S
C892 C890 1.556 1_556 S
C893 C890 1.526 . S
C893 C894 1.396 1_554 S
C893 C898 1.390 . S
C894 C888 1.465 . S
C894 C893 1.396 1_556 S
C894 C895 1.399 1_545 S
C895 H881 0.929 . S
C895 C894 1.399 1_565 S
C895 C896 1.385 . S
C896 H882 0.931 . S
C896 C895 1.385 . S
C896 C897 1.389 1_565 S
C897 C896 1.389 1_545 S
C897 C898 1.387 1_556 S
C898 H883 0.930 . S
C898 C893 1.390 . S
C898 C897 1.387 1_554 S
H899 C911 0.930 . S
H900 C913 0.930 . S
H901 C914 0.930 . S
H902 C918 0.959 . S
H903 C918 0.959 . S
H904 C918 0.961 . S
H905 C919 0.960 . S
H906 C919 0.961 . S
H907 C919 0.959 . S
H908 C922 0.929 . S
H909 C923 0.931 . S
H910 C925 0.930 . S
C911 H899 0.930 . S
C911 C912 1.399 . S
C911 C916 1.399 . S
C912 C911 1.399 . S
C912 C913 1.376 . S
C913 H900 0.930 . S
C913 C912 1.376 . S
C913 C914 1.388 . S
C914 H901 0.930 . S
C914 C913 1.388 . S
C914 C915 1.390 . S
C915 C914 1.390 . S
C915 C916 1.394 . S
C915 C921 1.465 . S
C916 C911 1.399 . S
C916 C915 1.394 . S
C916 C917 1.516 . S
C917 C916 1.516 . S
C917 C918 1.502 . S
C917 C919 1.561 . S
C917 C920 1.526 . S
C918 H902 0.959 . S
C918 H903 0.959 . S
C918 H904 0.961 . S
C918 C917 1.502 . S
C919 H905 0.960 . S
C919 H906 0.961 . S
C919 H907 0.959 . S
C919 C917 1.561 . S
C920 C917 1.526 . S
C920 C921 1.396 . S
C920 C925 1.390 . S
C921 C915 1.465 . S
C921 C920 1.396 . S
C921 C922 1.399 . S
C922 H908 0.929 . S
C922 C921 1.399 . S
C922 C923 1.385 . S
C923 H909 0.931 . S
C923 C922 1.385 . S
C923 C924 1.389 . S
C924 C923 1.389 . S
C924 C925 1.387 . S
C925 H910 0.930 . S
C925 C920 1.390 . S
C925 C924 1.387 . S
H926 C938 0.930 . S
H927 C940 0.930 . S
H928 C941 0.930 . S
H929 C945 0.959 . S
H930 C945 0.959 . S
H931 C945 0.961 . S
H932 C946 0.960 . S
H933 C946 0.961 . S
H934 C946 0.959 . S
H935 C949 0.929 . S
H936 C950 0.931 . S
H937 C952 0.930 . S
C938 H926 0.930 . S
C938 C939 1.399 . S
C938 C943 1.399 . S
C939 C938 1.399 . S
C939 C940 1.376 . S
C940 H927 0.930 . S
C940 C939 1.376 . S
C940 C941 1.388 . S
C941 H928 0.930 . S
C941 C940 1.388 . S
C941 C942 1.390 . S
C942 C941 1.390 . S
C942 C943 1.394 . S
C942 C948 1.465 . S
C943 C938 1.399 . S
C943 C942 1.394 . S
C943 C944 1.516 . S
C944 C943 1.516 . S
C944 C945 1.502 . S
C944 C946 1.561 . S
C944 C947 1.526 . S
C945 H929 0.959 . S
C945 H930 0.959 . S
C945 H931 0.961 . S
C945 C944 1.502 . S
C946 H932 0.960 . S
C946 H933 0.961 . S
C946 H934 0.959 . S
C946 C944 1.561 . S
C947 C944 1.526 . S
C947 C948 1.396 . S
C947 C952 1.390 . S
C948 C942 1.465 . S
C948 C947 1.396 . S
C948 C949 1.399 . S
C949 H935 0.929 . S
C949 C948 1.399 . S
C949 C950 1.385 . S
C950 H936 0.931 . S
C950 C949 1.385 . S
C950 C951 1.389 . S
C951 C950 1.389 . S
C951 C952 1.387 . S
C952 H937 0.930 . S
C952 C947 1.390 . S
C952 C951 1.387 . S
H953 C965 0.930 . S
H954 C967 0.930 . S
H955 C968 0.930 . S
H956 C972 0.959 . S
H957 C972 0.959 . S
H958 C972 0.961 1_556 S
H959 C973 0.959 . S
H960 C973 0.962 1_554 S
H961 C973 0.959 1_554 S
H962 C976 0.929 . S
H963 C977 0.931 . S
H964 C979 0.930 . S
C965 H953 0.930 . S
C965 C966 1.399 . S
C965 C970 1.399 . S
C966 C965 1.399 . S
C966 C967 1.376 . S
C967 H954 0.930 . S
C967 C966 1.376 . S
C967 C968 1.388 . S
C968 H955 0.930 . S
C968 C967 1.388 . S
C968 C969 1.390 . S
C969 C968 1.390 . S
C969 C970 1.394 . S
C969 C975 1.465 1_556 S
C970 C965 1.399 . S
C970 C969 1.394 . S
C970 C971 1.511 1_556 S
C971 C970 1.511 1_554 S
C971 C972 1.502 . S
C971 C973 1.561 1_554 S
C971 C974 1.531 . S
C972 H956 0.959 . S
C972 H957 0.959 . S
C972 H958 0.961 1_554 S
C972 C971 1.502 . S
C973 H959 0.959 . S
C973 H960 0.962 1_556 S
C973 H961 0.959 1_556 S
C973 C971 1.561 1_556 S
C974 C971 1.531 . S
C974 C975 1.396 . S
C974 C979 1.390 . S
C975 C969 1.465 1_554 S
C975 C974 1.396 . S
C975 C976 1.399 . S
C976 H962 0.929 . S
C976 C975 1.399 . S
C976 C977 1.385 . S
C977 H963 0.931 . S
C977 C976 1.385 . S
C977 C978 1.389 . S
C978 C977 1.389 . S
C978 C979 1.387 . S
C979 H964 0.930 . S
C979 C974 1.390 . S
C979 C978 1.387 . S
H980 C992 0.930 . S
H981 C994 0.930 . S
H982 C995 0.930 . S
H983 C999 0.959 . S
H984 C999 0.959 . S
H985 C999 0.961 . S
H986 C1000 0.960 . S
H987 C1000 0.961 . S
H988 C1000 0.959 . S
H989 C1003 0.929 . S
H990 C1004 0.931 . S
H991 C1006 0.930 . S
C992 H980 0.930 . S
C992 C993 1.399 . S
C992 C997 1.399 . S
C993 C992 1.399 . S
C993 C994 1.376 . S
C994 H981 0.930 . S
C994 C993 1.376 . S
C994 C995 1.388 . S
C995 H982 0.930 . S
C995 C994 1.388 . S
C995 C996 1.390 . S
C996 C995 1.390 . S
C996 C997 1.394 . S
C996 C1002 1.465 . S
C997 C992 1.399 . S
C997 C996 1.394 . S
C997 C998 1.516 . S
C998 C997 1.516 . S
C998 C999 1.502 . S
C998 C1000 1.561 . S
C998 C1001 1.526 . S
C999 H983 0.959 . S
C999 H984 0.959 . S
C999 H985 0.961 . S
C999 C998 1.502 . S
C1000 H986 0.960 . S
C1000 H987 0.961 . S
C1000 H988 0.959 . S
C1000 C998 1.561 . S
C1001 C998 1.526 . S
C1001 C1002 1.396 . S
C1001 C1006 1.390 . S
C1002 C996 1.465 . S
C1002 C1001 1.396 . S
C1002 C1003 1.399 . S
C1003 H989 0.929 . S
C1003 C1002 1.399 . S
C1003 C1004 1.385 . S
C1004 H990 0.931 . S
C1004 C1003 1.385 . S
C1004 C1005 1.389 . S
C1005 C1004 1.389 . S
C1005 C1006 1.387 . S
C1006 H991 0.930 . S
C1006 C1001 1.390 . S
C1006 C1005 1.387 . S
H1007 C1019 0.930 . S
H1008 C1021 0.930 . S
H1009 C1022 0.930 . S
H1010 C1026 0.959 . S
H1011 C1026 0.959 . S
H1012 C1026 0.961 . S
H1013 C1027 0.960 . S
H1014 C1027 0.961 . S
H1015 C1027 0.959 . S
H1016 C1030 0.929 . S
H1017 C1031 0.931 . S
H1018 C1033 0.930 . S
C1019 H1007 0.930 . S
C1019 C1020 1.399 . S
C1019 C1024 1.399 . S
C1020 C1019 1.399 . S
C1020 C1021 1.376 . S
C1021 H1008 0.930 . S
C1021 C1020 1.376 . S
C1021 C1022 1.388 . S
C1022 H1009 0.930 . S
C1022 C1021 1.388 . S
C1022 C1023 1.390 . S
C1023 C1022 1.390 . S
C1023 C1024 1.394 . S
C1023 C1029 1.465 . S
C1024 C1019 1.399 . S
C1024 C1023 1.394 . S
C1024 C1025 1.516 . S
C1025 C1024 1.516 . S
C1025 C1026 1.502 . S
C1025 C1027 1.561 . S
C1025 C1028 1.526 . S
C1026 H1010 0.959 . S
C1026 H1011 0.959 . S
C1026 H1012 0.961 . S
C1026 C1025 1.502 . S
C1027 H1013 0.960 . S
C1027 H1014 0.961 . S
C1027 H1015 0.959 . S
C1027 C1025 1.561 . S
C1028 C1025 1.526 . S
C1028 C1029 1.396 . S
C1028 C1033 1.390 . S
C1029 C1023 1.465 . S
C1029 C1028 1.396 . S
C1029 C1030 1.399 . S
C1030 H1016 0.929 . S
C1030 C1029 1.399 . S
C1030 C1031 1.385 . S
C1031 H1017 0.931 . S
C1031 C1030 1.385 . S
C1031 C1032 1.389 . S
C1032 C1031 1.389 . S
C1032 C1033 1.387 . S
C1033 H1018 0.930 . S
C1033 C1028 1.390 . S
C1033 C1032 1.387 . S
H1034 C1046 0.930 . S
H1035 C1048 0.930 . S
H1036 C1049 0.930 . S
H1037 C1053 0.959 . S
H1038 C1053 0.959 . S
H1039 C1053 0.961 . S
H1040 C1054 0.960 . S
H1041 C1054 0.961 . S
H1042 C1054 0.959 . S
H1043 C1057 0.929 . S
H1044 C1058 0.931 . S
H1045 C1060 0.930 . S
C1046 H1034 0.930 . S
C1046 C1047 1.399 . S
C1046 C1051 1.399 . S
C1047 C1046 1.399 . S
C1047 C1048 1.376 . S
C1048 H1035 0.930 . S
C1048 C1047 1.376 . S
C1048 C1049 1.388 . S
C1049 H1036 0.930 . S
C1049 C1048 1.388 . S
C1049 C1050 1.390 . S
C1050 C1049 1.390 . S
C1050 C1051 1.394 . S
C1050 C1056 1.465 . S
C1051 C1046 1.399 . S
C1051 C1050 1.394 . S
C1051 C1052 1.516 . S
C1052 C1051 1.516 . S
C1052 C1053 1.502 1_455 S
C1052 C1054 1.561 . S
C1052 C1055 1.526 . S
C1053 H1037 0.959 . S
C1053 H1038 0.959 . S
C1053 H1039 0.961 . S
C1053 C1052 1.502 1_655 S
C1054 H1040 0.960 . S
C1054 H1041 0.961 . S
C1054 H1042 0.959 . S
C1054 C1052 1.561 . S
C1055 C1052 1.526 . S
C1055 C1056 1.396 . S
C1055 C1060 1.390 . S
C1056 C1050 1.465 . S
C1056 C1055 1.396 . S
C1056 C1057 1.399 . S
C1057 H1043 0.929 . S
C1057 C1056 1.399 . S
C1057 C1058 1.385 . S
C1058 H1044 0.931 . S
C1058 C1057 1.385 . S
C1058 C1059 1.389 . S
C1059 C1058 1.389 . S
C1059 C1060 1.387 . S
C1060 H1045 0.930 . S
C1060 C1055 1.390 . S
C1060 C1059 1.387 . S
H1061 C1073 0.930 . S
H1062 C1075 0.930 . S
H1063 C1076 0.930 . S
H1064 C1080 0.959 . S
H1065 C1080 0.959 . S
H1066 C1080 0.961 . S
H1067 C1081 0.960 . S
H1068 C1081 0.961 . S
H1069 C1081 0.959 . S
H1070 C1084 0.929 . S
H1071 C1085 0.931 . S
H1072 C1087 0.930 . S
C1073 H1061 0.930 . S
C1073 C1074 1.399 1_545 S
C1073 C1078 1.399 . S
C1074 C1073 1.399 1_565 S
C1074 C1075 1.376 . S
C1075 H1062 0.930 . S
C1075 C1074 1.376 . S
C1075 C1076 1.388 . S
C1076 H1063 0.930 . S
C1076 C1075 1.388 . S
C1076 C1077 1.390 . S
C1077 C1076 1.390 . S
C1077 C1078 1.394 1_565 S
C1077 C1083 1.465 . S
C1078 C1073 1.399 . S
C1078 C1077 1.394 1_545 S
C1078 C1079 1.516 . S
C1079 C1078 1.516 . S
C1079 C1080 1.502 . S
C1079 C1081 1.561 . S
C1079 C1082 1.526 . S
C1080 H1064 0.959 . S
C1080 H1065 0.959 . S
C1080 H1066 0.961 . S
C1080 C1079 1.502 . S
C1081 H1067 0.960 . S
C1081 H1068 0.961 . S
C1081 H1069 0.959 . S
C1081 C1079 1.561 . S
C1082 C1079 1.526 . S
C1082 C1083 1.396 1_545 S
C1082 C1087 1.390 . S
C1083 C1077 1.465 . S
C1083 C1082 1.396 1_565 S
C1083 C1084 1.399 . S
C1084 H1070 0.929 . S
C1084 C1083 1.399 . S
C1084 C1085 1.385 . S
C1085 H1071 0.931 . S
C1085 C1084 1.385 . S
C1085 C1086 1.389 . S
C1086 C1085 1.389 . S
C1086 C1087 1.387 1_565 S
C1087 H1072 0.930 . S
C1087 C1082 1.390 . S
C1087 C1086 1.387 1_545 S
C237 C11 1.839 . S
C249 C109 1.803 . S
C264 C25 1.798 . S
C276 C67 1.811 . S
C291 C81 1.842 . S
C303 C39 1.810 . S
C318 C53 1.796 . S
C330 C95 1.816 . S
C345 C123 1.836 . S
C357 C179 1.830 . S
C372 C137 1.836 . S
C384 C207 1.829 . S
C399 C165 1.820 . S
C411 C151 1.841 . S
C426 C221 1.811 . S
C438 C193 1.799 . S
C453 C9 1.610 . S
C465 C93 1.583 . S
C480 C103 1.289 . S
C492 C19 1.296 . S
C507 C37 1.607 . S
C519 C65 1.589 . S
C534 C75 1.290 . S
C546 C47 1.296 . S
C561 C0 0.789 . S
C573 C196 0.834 . S
C588 C163 1.609 1_655 S
C600 C23 1.584 . S
C615 C182 0.789 . S
C627 C28 0.839 . S
C642 C177 1.579 . S
C654 C51 1.599 . S
C669 C140 0.929 . S
C681 C56 0.867 . S
C696 C79 1.606 . S
C708 C219 1.590 . S
C723 C84 0.932 . S
C735 C112 0.883 . S
C750 C107 1.599 1_454 S
C762 C135 1.591 1_554 S
C777 C5 1.289 . S
C789 C61 1.296 . S
C804 C117 1.290 . S
C816 C187 1.295 . S
C831 C168 0.929 . S
C843 C126 0.868 . S
C858 C201 1.297 . S
C870 C145 1.290 . S
C885 C98 0.792 . S
C897 C42 0.856 . S
C912 C33 1.290 . S
C924 C89 1.296 . S
C939 C154 0.932 . S
C951 C210 0.890 . S
C966 C191 1.607 . S
C978 C149 1.589 . S
C993 C215 1.297 . S
C1005 C173 1.290 . S
C1020 C205 1.577 . S
C1032 C121 1.604 . S
C1047 C159 1.297 . S
C1059 C131 1.291 . S
C1074 C14 0.929 . S
C1086 C70 0.869 . S
