# Generated by pormake.
# Topology wht, (6)-cn, num edge types: 1
# Building blocks:
#     Node 0, Type 0, BuildingBlock: IZENUY_clean_sbu_0, # of connection points: 6
#     Node 1, Type 0, BuildingBlock: IZENUY_clean_sbu_0, # of connection points: 6
#     Node 2, Type 0, BuildingBlock: IZENUY_clean_sbu_0, # of connection points: 6
#     Node 3, Type 0, BuildingBlock: IZENUY_clean_sbu_0, # of connection points: 6
#     Node 4, Type 0, BuildingBlock: IZENUY_clean_sbu_0, # of connection points: 6
#     Node 5, Type 0, BuildingBlock: IZENUY_clean_sbu_0, # of connection points: 6
#     Node 6, Type 0, BuildingBlock: IZENUY_clean_sbu_0, # of connection points: 6
#     Node 7, Type 0, BuildingBlock: IZENUY_clean_sbu_0, # of connection points: 6
#     Edge 8, Type (0, 0), BuildingBlock: MIFKUJ_clean_linker_0, # of connection points: 2
#     Edge 9, Type (0, 0), BuildingBlock: MIFKUJ_clean_linker_0, # of connection points: 2
#     Edge 10, Type (0, 0), BuildingBlock: MIFKUJ_clean_linker_0, # of connection points: 2
#     Edge 11, Type (0, 0), BuildingBlock: MIFKUJ_clean_linker_0, # of connection points: 2
#     Edge 12, Type (0, 0), BuildingBlock: MIFKUJ_clean_linker_0, # of connection points: 2
#     Edge 13, Type (0, 0), BuildingBlock: MIFKUJ_clean_linker_0, # of connection points: 2
#     Edge 14, Type (0, 0), BuildingBlock: MIFKUJ_clean_linker_0, # of connection points: 2
#     Edge 15, Type (0, 0), BuildingBlock: MIFKUJ_clean_linker_0, # of connection points: 2
#     Edge 16, Type (0, 0), BuildingBlock: MIFKUJ_clean_linker_0, # of connection points: 2
#     Edge 17, Type (0, 0), BuildingBlock: MIFKUJ_clean_linker_0, # of connection points: 2
#     Edge 18, Type (0, 0), BuildingBlock: MIFKUJ_clean_linker_0, # of connection points: 2
#     Edge 19, Type (0, 0), BuildingBlock: MIFKUJ_clean_linker_0, # of connection points: 2
#     Edge 20, Type (0, 0), BuildingBlock: MIFKUJ_clean_linker_0, # of connection points: 2
#     Edge 21, Type (0, 0), BuildingBlock: MIFKUJ_clean_linker_0, # of connection points: 2
#     Edge 22, Type (0, 0), BuildingBlock: MIFKUJ_clean_linker_0, # of connection points: 2
#     Edge 23, Type (0, 0), BuildingBlock: MIFKUJ_clean_linker_0, # of connection points: 2
#     Edge 24, Type (0, 0), BuildingBlock: MIFKUJ_clean_linker_0, # of connection points: 2
#     Edge 25, Type (0, 0), BuildingBlock: MIFKUJ_clean_linker_0, # of connection points: 2
#     Edge 26, Type (0, 0), BuildingBlock: MIFKUJ_clean_linker_0, # of connection points: 2
#     Edge 27, Type (0, 0), BuildingBlock: MIFKUJ_clean_linker_0, # of connection points: 2
#     Edge 28, Type (0, 0), BuildingBlock: MIFKUJ_clean_linker_0, # of connection points: 2
#     Edge 29, Type (0, 0), BuildingBlock: MIFKUJ_clean_linker_0, # of connection points: 2
#     Edge 30, Type (0, 0), BuildingBlock: MIFKUJ_clean_linker_0, # of connection points: 2
#     Edge 31, Type (0, 0), BuildingBlock: MIFKUJ_clean_linker_0, # of connection points: 2
# Relax obj value: 0.256
# Max RMSD: 0.239
# Mean RMSD: 0.239
data_MOF--net-wht--node1-IZENUY_clean_sbu_0--edge1-MIFKUJ_clean_linker_0
_symmetry_space_group_name_H-M    P1
_symmetry_Int_Tables_number       1
_symmetry_cell_setting            triclinic
loop_
_symmetry_equiv_pos_as_xyz
'x, y, z'
_cell_length_a     33.916854
_cell_length_b     33.980858
_cell_length_c     59.434194
_cell_angle_alpha  90.01208
_cell_angle_beta   90.037946
_cell_angle_gamma 89.908813
loop_
_atom_site_label
_atom_site_type_symbol
_atom_site_fract_x
_atom_site_fract_y
_atom_site_fract_z
_atom_type_partial_charge
Fe0 Fe 0.09123 0.20383 0.14776 0.0
Fe1 Fe 0.16608 0.24824 0.16118 0.0
O2 O 0.11391 0.24483 0.16079 0.0
Fe3 Fe 0.08422 0.28241 0.17271 0.0
O4 O 0.05926 0.29154 0.14611 0.0
O5 O 0.0463 0.22982 0.13901 0.0
O6 O 0.11218 0.21722 0.12094 0.0
C7 C 0.14864 0.22097 0.11748 0.0
C8 C 0.04689 0.21072 0.18555 0.0
O9 O 0.1727 0.22418 0.1337 0.0
C10 C 0.14338 0.27962 0.20392 0.0
O11 O 0.13177 0.16944 0.1537 0.0
O12 O 0.17135 0.20186 0.17615 0.0
O13 O 0.04581 0.24779 0.18259 0.0
O14 O 0.06897 0.18887 0.17391 0.0
C15 C 0.14617 0.32464 0.15121 0.0
O16 O 0.16854 0.27381 0.18848 0.0
O17 O 0.10699 0.27666 0.2 0.0
C18 C 0.15979 0.16972 0.16781 0.0
O19 O 0.16502 0.29408 0.14597 0.0
O20 O 0.11772 0.32319 0.16506 0.0
C21 C 0.04098 0.26592 0.13493 0.0
Fe22 Fe 0.263 0.66979 0.40729 0.0
Fe23 Fe 0.23329 0.58643 0.41883 0.0
O24 O 0.26916 0.61798 0.40676 0.0
Fe25 Fe 0.31135 0.59745 0.39366 0.0
O26 O 0.29724 0.618 0.36685 0.0
O27 O 0.28591 0.67785 0.37946 0.0
O28 O 0.21681 0.66686 0.3926 0.0
C29 C 0.18714 0.64734 0.39854 0.0
C30 C 0.34198 0.66694 0.414 0.0
O31 O 0.19047 0.61808 0.4117 0.0
C32 C 0.30725 0.55137 0.4309 0.0
O33 O 0.23825 0.67066 0.43488 0.0
O34 O 0.23854 0.60901 0.44622 0.0
O35 O 0.34392 0.63932 0.39975 0.0
O36 O 0.30919 0.67716 0.42202 0.0
C37 C 0.25133 0.54451 0.38095 0.0
O38 O 0.27 0.54929 0.4283 0.0
O39 O 0.32744 0.57565 0.41975 0.0
C40 C 0.23429 0.64517 0.45032 0.0
O41 O 0.22494 0.56166 0.39219 0.0
O42 O 0.2873 0.55161 0.38474 0.0
C43 C 0.2913 0.65408 0.36324 0.0
Fe44 Fe 0.91946 0.80897 0.6429 0.0
Fe45 Fe 0.84602 0.76197 0.65557 0.0
O46 O 0.898 0.76705 0.65554 0.0
Fe47 Fe 0.9289 0.73047 0.66754 0.0
O48 O 0.95434 0.7224 0.64099 0.0
O49 O 0.9656 0.78466 0.63457 0.0
O50 O 0.89992 0.79506 0.61582 0.0
C51 C 0.86388 0.78909 0.61185 0.0
C52 C 0.96355 0.80348 0.6809 0.0
O53 O 0.8393 0.78537 0.62781 0.0
C54 C 0.86919 0.73147 0.69853 0.0
O55 O 0.87761 0.84193 0.64837 0.0
O56 O 0.83878 0.80813 0.67044 0.0
O57 O 0.96623 0.76649 0.67758 0.0
O58 O 0.93997 0.82422 0.66949 0.0
C59 C 0.86766 0.68607 0.6464 0.0
O60 O 0.84409 0.73661 0.68295 0.0
O61 O 0.9056 0.73532 0.69483 0.0
C62 C 0.84958 0.84066 0.66238 0.0
O63 O 0.84865 0.71617 0.64062 0.0
O64 O 0.89679 0.68844 0.65978 0.0
C65 C 0.97206 0.74885 0.63017 0.0
Fe66 Fe 0.78759 0.43301 0.91963 0.0
Fe67 Fe 0.70811 0.42474 0.89547 0.0
O68 O 0.74989 0.40258 0.9082 0.0
Fe69 Fe 0.75371 0.35044 0.90917 0.0
O70 O 0.7997 0.35107 0.89408 0.0
O71 O 0.82875 0.39953 0.91212 0.0
O72 O 0.79599 0.45696 0.89276 0.0
C73 C 0.76997 0.47426 0.88134 0.0
C74 C 0.78587 0.37496 0.95157 0.0
O75 O 0.73386 0.46917 0.88573 0.0
C76 C 0.67469 0.35668 0.91597 0.0
O77 O 0.75284 0.47192 0.92934 0.0
O78 O 0.69425 0.44731 0.92178 0.0
O79 O 0.77924 0.34922 0.93656 0.0
O80 O 0.78274 0.41116 0.94724 0.0
C81 C 0.72366 0.36627 0.8655 0.0
O82 O 0.67412 0.38485 0.90212 0.0
O83 O 0.70703 0.34485 0.92407 0.0
C84 C 0.71588 0.47014 0.93302 0.0
O85 O 0.71948 0.40277 0.86863 0.0
O86 O 0.73001 0.34276 0.88167 0.0
C87 C 0.83034 0.36993 0.89908 0.0
Fe88 Fe 0.58235 0.22879 0.58261 0.0
Fe89 Fe 0.59594 0.31073 0.6033 0.0
O90 O 0.61485 0.26601 0.59233 0.0
Fe91 Fe 0.66644 0.25792 0.59136 0.0
O92 O 0.66317 0.20482 0.59549 0.0
O93 O 0.60103 0.1935 0.60334 0.0
O94 O 0.54243 0.24013 0.60251 0.0
C95 C 0.54303 0.25831 0.62109 0.0
C96 C 0.64563 0.22593 0.55128 0.0
O97 O 0.56782 0.28513 0.6246 0.0
C98 C 0.66045 0.33991 0.5818 0.0
O99 O 0.56175 0.26168 0.56137 0.0
O100 O 0.55368 0.31257 0.58402 0.0
O101 O 0.66551 0.25254 0.56086 0.0
O102 O 0.61636 0.21036 0.56105 0.0
C103 C 0.65745 0.29085 0.63314 0.0
O104 O 0.62329 0.34044 0.58318 0.0
O105 O 0.67958 0.30961 0.58757 0.0
C106 C 0.54696 0.29505 0.56561 0.0
O107 O 0.63453 0.31613 0.62455 0.0
O108 O 0.67032 0.26226 0.62172 0.0
C109 C 0.63708 0.18442 0.60517 0.0
Fe110 Fe 0.2581 0.16126 0.84669 0.0
Fe111 Fe 0.28874 0.08144 0.82961 0.0
O112 O 0.25198 0.10994 0.84311 0.0
Fe113 Fe 0.20933 0.0866 0.85368 0.0
O114 O 0.22194 0.10069 0.8821 0.0
O115 O 0.2328 0.16301 0.87403 0.0
O116 O 0.30309 0.15409 0.86243 0.0
C117 C 0.33314 0.13602 0.85557 0.0
C118 C 0.17956 0.16052 0.8383 0.0
O119 O 0.3308 0.11194 0.8393 0.0
C120 C 0.21623 0.04931 0.81357 0.0
O121 O 0.28513 0.16806 0.81999 0.0
O122 O 0.28394 0.10962 0.80396 0.0
O123 O 0.17691 0.12961 0.85013 0.0
O124 O 0.2128 0.17244 0.83165 0.0
C125 C 0.26917 0.03223 0.8641 0.0
O126 O 0.25309 0.04599 0.81728 0.0
O127 O 0.19514 0.07127 0.82576 0.0
C128 C 0.28891 0.14634 0.8027 0.0
O129 O 0.29611 0.0517 0.85468 0.0
O130 O 0.2334 0.03915 0.85953 0.0
C131 C 0.22756 0.13572 0.88822 0.0
Fe132 Fe 0.3425 0.76059 0.0876 0.0
Fe133 Fe 0.42865 0.78431 0.08025 0.0
O134 O 0.39364 0.75056 0.09113 0.0
Fe135 Fe 0.409 0.70792 0.10592 0.0
O136 O 0.36889 0.71094 0.12665 0.0
O137 O 0.3361 0.76509 0.11778 0.0
O138 O 0.3478 0.81407 0.08671 0.0
C139 C 0.37289 0.83546 0.09648 0.0
C140 C 0.34431 0.67684 0.08564 0.0
O141 O 0.40844 0.82437 0.09752 0.0
C142 C 0.46284 0.71315 0.06901 0.0
O143 O 0.34684 0.75742 0.05712 0.0
O144 O 0.398 0.79735 0.05588 0.0
O145 O 0.38121 0.67543 0.08766 0.0
O146 O 0.32633 0.70908 0.08827 0.0
C147 C 0.46408 0.76088 0.12139 0.0
O148 O 0.45144 0.74685 0.06266 0.0
O149 O 0.4517 0.69857 0.08762 0.0
C150 C 0.36963 0.77985 0.04613 0.0
O151 O 0.46574 0.77688 0.10225 0.0
O152 O 0.43796 0.73589 0.12584 0.0
C153 C 0.34691 0.73969 0.13199 0.0
Fe154 Fe 0.80365 0.90889 0.35717 0.0
Fe155 Fe 0.75016 0.84405 0.3379 0.0
O156 O 0.76097 0.89463 0.34214 0.0
Fe157 Fe 0.72803 0.93082 0.3316 0.0
O158 O 0.73758 0.96768 0.35353 0.0
O159 O 0.77516 0.93655 0.3776 0.0
O160 O 0.80121 0.86784 0.37708 0.0
C161 C 0.77309 0.84499 0.38204 0.0
C162 C 0.79962 0.96287 0.32056 0.0
O163 O 0.74713 0.83542 0.36791 0.0
C164 C 0.7286 0.87267 0.29715 0.0
O165 O 0.83618 0.88199 0.33837 0.0
O166 O 0.80165 0.8276 0.33728 0.0
O167 O 0.76618 0.9515 0.31372 0.0
O168 O 0.81274 0.95259 0.3397 0.0
C169 C 0.67668 0.87643 0.34871 0.0
O170 O 0.75179 0.84971 0.30746 0.0
O171 O 0.71246 0.90117 0.30741 0.0
C172 C 0.83409 0.84543 0.33498 0.0
O173 O 0.69674 0.8509 0.33829 0.0
O174 O 0.68806 0.91187 0.34926 0.0
C175 C 0.75171 0.96413 0.37308 0.0
H176 H 0.04689 0.20614 0.23118 0.0
H177 H 1.00234 0.16646 0.25469 0.0
H178 H 0.93718 0.13218 0.1955 0.0
H179 H 0.98217 0.17111 0.17202 0.0
H180 H 0.88901 0.15262 0.2338 0.0
H181 H 0.99887 0.07037 0.21325 0.0
H182 H 0.06922 0.05299 0.20973 0.0
H183 H 0.08278 0.06034 0.28144 0.0
H184 H 0.01259 0.07835 0.28536 0.0
H185 H 0.78645 0.98616 0.27693 0.0
H186 H 0.82642 0.03105 0.25427 0.0
H187 H 0.90548 0.04775 0.31035 0.0
H188 H 0.86638 1.00234 0.33287 0.0
H189 H 0.94642 0.03755 0.27352 0.0
H190 H 0.83628 0.11851 0.29446 0.0
H191 H 0.76601 0.13614 0.29808 0.0
H192 H 0.75287 0.13213 0.22625 0.0
H193 H 0.82297 0.11395 0.22222 0.0
C194 C 0.02261 0.19059 0.22336 0.0
C195 C 0.01752 0.19162 0.19996 0.0
C196 C 0.99738 0.16789 0.2367 0.0
C197 C 0.96661 0.14631 0.22678 0.0
C198 C 0.96066 0.14871 0.20345 0.0
C199 C 0.98625 0.17085 0.1901 0.0
C200 C 0.94191 0.11959 0.2405 0.0
C201 C 0.90139 0.12723 0.24235 0.0
C202 C 0.95833 0.0869 0.25188 0.0
C203 C 1.00058 0.07618 0.24958 0.0
C204 C 0.01694 0.06869 0.22825 0.0
C205 C 0.05677 0.05863 0.22618 0.0
C206 C 0.08049 0.05567 0.24534 0.0
C207 C 0.06439 0.0627 0.26661 0.0
C208 C 0.02458 0.07282 0.26877 0.0
C209 C 0.81226 0.9995 0.28447 0.0
C210 C 0.8231 0.99068 0.30676 0.0
C211 C 0.83502 0.0253 0.27152 0.0
C212 C 0.86876 0.04321 0.28068 0.0
C213 C 0.87963 0.03434 0.30289 0.0
C214 C 0.85711 0.00838 0.31577 0.0
C215 C 0.89327 0.0706 0.26707 0.0
C216 C 0.93387 0.06302 0.26514 0.0
C217 C 0.87691 0.10343 0.25568 0.0
C218 C 0.83478 0.11449 0.25806 0.0
C219 C 0.81834 0.1211 0.27945 0.0
C220 C 0.77855 0.13124 0.28157 0.0
C221 C 0.75497 0.13516 0.26241 0.0
C222 C 0.77116 0.12904 0.24108 0.0
C223 C 0.81093 0.11885 0.23886 0.0
H224 H 0.72417 0.14301 0.26409 0.0
H225 H 0.1113 0.04782 0.2437 0.0
H226 H 0.27767 0.50387 0.46439 0.0
H227 H 0.31393 0.45496 0.48686 0.0
H228 H 0.4205 0.48238 0.45068 0.0
H229 H 0.38502 0.53141 0.42856 0.0
H230 H 0.40498 0.39952 0.45559 0.0
H231 H 0.41113 0.51968 0.49977 0.0
H232 H 0.38167 0.576 0.51987 0.0
H233 H 0.3185 0.49677 0.56301 0.0
H234 H 0.34719 0.43996 0.54293 0.0
H235 H 0.55864 0.31698 0.52204 0.0
H236 H 0.51386 0.35581 0.49844 0.0
H237 H 0.42535 0.35092 0.55063 0.0
H238 H 0.47141 0.31484 0.57471 0.0
H239 H 0.42611 0.41941 0.53735 0.0
H240 H 0.42166 0.29859 0.49614 0.0
H241 H 0.44728 0.24079 0.47568 0.0
H242 H 0.50165 0.31663 0.42702 0.0
H243 H 0.47686 0.3749 0.44734 0.0
C244 C 0.30881 0.49944 0.46125 0.0
C245 C 0.32844 0.52171 0.44475 0.0
C246 C 0.32947 0.47152 0.47408 0.0
C247 C 0.3699 0.46504 0.47039 0.0
C248 C 0.38932 0.4868 0.45374 0.0
C249 C 0.36896 0.51505 0.44121 0.0
C250 C 0.39257 0.43636 0.48414 0.0
C251 C 0.40984 0.40379 0.47347 0.0
C252 C 0.39793 0.44147 0.50753 0.0
C253 C 0.38093 0.47561 0.51969 0.0
C254 C 0.39069 0.51428 0.51341 0.0
C255 C 0.37419 0.54629 0.52483 0.0
C256 C 0.34813 0.53997 0.54266 0.0
C257 C 0.33862 0.50162 0.54917 0.0
C258 C 0.35501 0.46952 0.53778 0.0
C259 C 0.52934 0.32375 0.5282 0.0
C260 C 0.51821 0.31284 0.55003 0.0
C261 C 0.50358 0.34578 0.51469 0.0
C262 C 0.46568 0.35606 0.52249 0.0
C263 C 0.4543 0.3437 0.54412 0.0
C264 C 0.48047 0.32281 0.55784 0.0
C265 C 0.43895 0.3819 0.50891 0.0
C266 C 0.42098 0.41431 0.51957 0.0
C267 C 0.43243 0.37616 0.48555 0.0
C268 C 0.44762 0.34113 0.47338 0.0
C269 C 0.43933 0.30295 0.48117 0.0
C270 C 0.45368 0.2701 0.46958 0.0
C271 C 0.47609 0.27505 0.45007 0.0
C272 C 0.48428 0.31285 0.44213 0.0
C273 C 0.47006 0.34579 0.45367 0.0
H274 H 0.487 0.24962 0.44105 0.0
H275 H 0.33538 0.56479 0.55148 0.0
H276 H 0.0349 0.77692 0.69712 0.0
H277 H 0.08386 0.81474 0.71848 0.0
H278 H 1.00473 0.91428 0.71982 0.0
H279 H 0.95643 0.87722 0.69817 0.0
H280 H 0.07472 0.93777 0.7079 0.0
H281 H 0.02329 0.85465 0.76675 0.0
H282 H 1.00671 0.79153 0.78487 0.0
H283 H 0.1286 0.75727 0.78326 0.0
H284 H 0.14583 0.82002 0.76485 0.0
H285 H 0.14261 0.05799 0.796 0.0
H286 H 0.10665 0.01235 0.77192 0.0
H287 H 0.20736 0.93478 0.77048 0.0
H288 H 0.24387 0.98063 0.79473 0.0
H289 H 0.13567 0.89595 0.77993 0.0
H290 H 0.18667 0.98438 0.72464 0.0
H291 H 0.20126 0.0492 0.70799 0.0
H292 H 0.07745 0.07493 0.70417 0.0
H293 H 0.06212 0.01049 0.7211 0.0
C294 C 0.02782 0.80671 0.70222 0.0
C295 C 0.99185 0.82411 0.69584 0.0
C296 C 0.05582 0.82831 0.71443 0.0
C297 C 0.04806 0.86746 0.72078 0.0
C298 C 0.01164 0.88431 0.71497 0.0
C299 C 0.98395 0.86298 0.70264 0.0
C300 C 0.07795 0.89175 0.73279 0.0
C301 C 0.08778 0.92866 0.72374 0.0
C302 C 0.09609 0.8795 0.7531 0.0
C303 C 0.08577 0.8418 0.76417 0.0
C304 C 0.04651 0.83351 0.77008 0.0
C305 C 0.037 0.79783 0.78044 0.0
C306 C 0.06657 0.77035 0.78514 0.0
C307 C 0.10572 0.77855 0.77956 0.0
C308 C 0.11537 0.81417 0.76917 0.0
C309 C 0.15734 0.03141 0.79043 0.0
C310 C 0.19615 0.02298 0.79729 0.0
C311 C 0.13673 1.00536 0.77662 0.0
C312 C 0.15436 0.97023 0.76932 0.0
C313 C 0.19324 0.96177 0.77591 0.0
C314 C 0.21412 0.98811 0.78963 0.0
C315 C 0.13137 0.94223 0.75531 0.0
C316 C 0.12296 0.90471 0.76394 0.0
C317 C 0.11418 0.95401 0.73469 0.0
C318 C 0.12327 0.99266 0.72428 0.0
C319 C 0.16256 1.00396 0.72039 0.0
C320 C 0.17096 0.04062 0.71088 0.0
C321 C 0.14031 0.06619 0.70506 0.0
C322 C 0.10117 0.0551 0.70868 0.0
C323 C 0.09261 0.01848 0.71821 0.0
H324 H 0.14688 0.09456 0.6977 0.0
H325 H 0.05916 0.74275 0.79317 0.0
H326 H 0.47345 0.63365 0.06758 0.0
H327 H 0.52102 0.5964 0.04535 0.0
H328 H 0.56619 0.70458 0.01745 0.0
H329 H 0.51688 0.74186 0.03881 0.0
H330 H 0.56596 0.65474 0.98606 0.0
H331 H 0.61573 0.64812 0.06061 0.0
H332 H 0.61469 0.63689 0.10159 0.0
H333 H 0.58712 0.51505 0.09081 0.0
H334 H 0.58744 0.52565 0.04975 0.0
H335 H 0.73604 0.54625 0.94413 0.0
H336 H 0.69856 0.59189 0.96829 0.0
H337 H 0.61471 0.50007 0.98262 0.0
H338 H 0.6511 0.455 0.95817 0.0
H339 H 0.64272 0.54704 0.02167 0.0
H340 H 0.58837 0.55975 0.94586 0.0
H341 H 0.59399 0.57379 0.90528 0.0
H342 H 0.63794 0.68941 0.92002 0.0
H343 H 0.63312 0.67579 0.96072 0.0
C344 C 0.49351 0.64953 0.0567 0.0
C345 C 0.49153 0.69075 0.05509 0.0
C346 C 0.52103 0.62818 0.04409 0.0
C347 C 0.54823 0.64755 0.03008 0.0
C348 C 0.54584 0.68877 0.02817 0.0
C349 C 0.51763 0.71011 0.04042 0.0
C350 C 0.57853 0.62462 0.01722 0.0
C351 C 0.5832 0.63176 0.99406 0.0
C352 C 0.60136 0.59438 0.0274 0.0
C353 C 0.60132 0.58777 0.05209 0.0
C354 C 0.6092 0.61898 0.06698 0.0
C355 C 0.60877 0.61272 0.09022 0.0
C356 C 0.60077 0.5753 0.0988 0.0
C357 C 0.59329 0.54403 0.08414 0.0
C358 C 0.59364 0.55014 0.06088 0.0
C359 C 0.70986 0.53579 0.95266 0.0
C360 C 0.69641 0.49712 0.94921 0.0
C361 C 0.68843 0.56187 0.96636 0.0
C362 C 0.65379 0.54935 0.9772 0.0
C363 C 0.64133 0.51033 0.97445 0.0
C364 C 0.66211 0.48466 0.96042 0.0
C365 C 0.62929 0.57692 0.99073 0.0
C366 C 0.62577 0.57054 0.01394 0.0
C367 C 0.60827 0.60835 0.98074 0.0
C368 C 0.61087 0.61658 0.9563 0.0
C369 C 0.59959 0.58802 0.94044 0.0
C370 C 0.60255 0.59593 0.91742 0.0
C371 C 0.61644 0.63243 0.91007 0.0
C372 C 0.62727 0.66113 0.92573 0.0
C373 C 0.62442 0.65334 0.94877 0.0
H374 H 0.6187 0.6385 0.89224 0.0
H375 H 0.60044 0.57051 0.1168 0.0
H376 H 0.0966 0.31078 0.23687 0.0
H377 H 0.11722 0.35105 0.2687 0.0
H378 H 0.23912 0.33035 0.25197 0.0
H379 H 0.21883 0.29028 0.21966 0.0
H380 H 0.21903 0.3297 0.30074 0.0
H381 H 0.20816 0.40872 0.23419 0.0
H382 H 0.17528 0.4327 0.19981 0.0
H383 H 0.07933 0.47745 0.23942 0.0
H384 H 0.11135 0.45305 0.27404 0.0
H385 H 0.30063 0.49485 0.35808 0.0
H386 H 0.28305 0.44564 0.32988 0.0
H387 H 0.16023 0.47594 0.3373 0.0
H388 H 0.17754 0.52549 0.36554 0.0
H389 H 0.18234 0.47058 0.29302 0.0
H390 H 0.19492 0.3924 0.35994 0.0
H391 H 0.22817 0.36732 0.39396 0.0
H392 H 0.32214 0.32098 0.35341 0.0
H393 H 0.28971 0.34629 0.31916 0.0
C394 C 0.12785 0.31405 0.24011 0.0
C395 C 0.15608 0.2976 0.22549 0.0
C396 C 0.13954 0.33717 0.25833 0.0
C397 C 0.17963 0.34398 0.26248 0.0
C398 C 0.20801 0.32544 0.24897 0.0
C399 C 0.19634 0.30263 0.2305 0.0
C400 C 0.19146 0.37324 0.27967 0.0
C401 C 0.21153 0.36059 0.29898 0.0
C402 C 0.18106 0.41339 0.27742 0.0
C403 C 0.16195 0.42865 0.25669 0.0
C404 C 0.17988 0.42335 0.23556 0.0
C405 C 0.16143 0.43706 0.21602 0.0
C406 C 0.12518 0.45647 0.21742 0.0
C407 C 0.10738 0.46233 0.23837 0.0
C408 C 0.12568 0.44858 0.25795 0.0
C409 C 0.26983 0.49102 0.35381 0.0
C410 C 0.24047 0.51405 0.36417 0.0
C411 C 0.25984 0.46274 0.33772 0.0
C412 C 0.2203 0.45686 0.33163 0.0
C413 C 0.19092 0.47994 0.3418 0.0
C414 C 0.20086 0.50813 0.358 0.0
C415 C 0.20974 0.42712 0.31433 0.0
C416 C 0.18991 0.43972 0.29488 0.0
C417 C 0.22059 0.38699 0.31645 0.0
C418 C 0.24007 0.37159 0.33701 0.0
C419 C 0.22284 0.37715 0.35829 0.0
C420 C 0.24151 0.36284 0.37761 0.0
C421 C 0.2773 0.34267 0.37585 0.0
C422 C 0.29444 0.33666 0.35475 0.0
C423 C 0.27591 0.35096 0.33538 0.0
H424 H 0.29171 0.33161 0.39083 0.0
H425 H 0.11094 0.46706 0.20228 0.0
H426 H 0.99805 0.6752 0.61793 0.0
H427 H 0.04699 0.65864 0.58915 0.0
H428 H 0.06299 0.78196 0.57473 0.0
H429 H 0.01401 0.79876 0.60324 0.0
H430 H 0.05678 0.73958 0.53645 0.0
H431 H 0.13095 0.73152 0.60528 0.0
H432 H 0.14508 0.70861 0.64382 0.0
H433 H 0.15024 0.58916 0.62041 0.0
H434 H 0.13559 0.61132 0.58176 0.0
H435 H 0.22228 0.71993 0.46644 0.0
H436 H 0.1842 0.73896 0.49964 0.0
H437 H 0.16834 0.61665 0.51673 0.0
H438 H 0.20733 0.5974 0.48407 0.0
H439 H 0.17549 0.65972 0.55403 0.0
H440 H 0.10257 0.66784 0.4849 0.0
H441 H 0.09267 0.69118 0.44605 0.0
H442 H 0.08349 0.81018 0.46977 0.0
H443 H 0.09538 0.78781 0.50867 0.0
C444 C 0.01208 0.69882 0.6087 0.0
C445 C 1.00223 0.73834 0.61305 0.0
C446 C 0.04013 0.6893 0.59228 0.0
C447 C 0.05897 0.71909 0.5799 0.0
C448 C 0.04891 0.75848 0.58406 0.0
C449 C 0.02098 0.76802 0.60048 0.0
C450 C 0.08897 0.70931 0.56249 0.0
C451 C 0.08299 0.72256 0.54036 0.0
C452 C 0.12281 0.68642 0.56746 0.0
C453 C 0.13179 0.67305 0.59067 0.0
C454 C 0.1348 0.70034 0.60838 0.0
C455 C 0.14295 0.68749 0.63024 0.0
C456 C 0.14845 0.64744 0.63457 0.0
C457 C 0.14591 0.62016 0.61703 0.0
C458 C 0.13772 0.63285 0.59514 0.0
C459 C 0.21138 0.69708 0.4775 0.0
C460 C 0.21736 0.65711 0.47234 0.0
C461 C 0.18949 0.70801 0.49645 0.0
C462 C 0.17252 0.6792 0.51037 0.0
C463 C 0.18086 0.63942 0.50617 0.0
C464 C 0.20312 0.62846 0.48739 0.0
C465 C 0.14339 0.69012 0.52803 0.0
C466 C 0.14937 0.6769 0.55015 0.0
C467 C 0.10942 0.7129 0.52301 0.0
C468 C 0.10034 0.72617 0.49973 0.0
C469 C 0.09874 0.69903 0.48185 0.0
C470 C 0.09293 0.71211 0.45979 0.0
C471 C 0.08738 0.75213 0.45545 0.0
C472 C 0.08781 0.77918 0.47316 0.0
C473 C 0.09431 0.76634 0.49521 0.0
H474 H 0.08275 0.76216 0.43836 0.0
H475 H 0.15476 0.63755 0.65151 0.0
H476 H 0.72613 0.49829 0.8453 0.0
H477 H 0.74555 0.54364 0.81523 0.0
H478 H 0.85918 0.55888 0.84641 0.0
H479 H 0.84034 0.51298 0.87642 0.0
H480 H 0.81841 0.631 0.83369 0.0
H481 H 0.86044 0.50938 0.80446 0.0
H482 H 0.86265 0.44137 0.7903 0.0
H483 H 0.77797 0.47043 0.73921 0.0
H484 H 0.77393 0.5383 0.75363 0.0
H485 H 0.91184 0.7236 0.73754 0.0
H486 H 0.89467 0.68412 0.77058 0.0
H487 H 0.7816 0.65763 0.74112 0.0
H488 H 0.79825 0.6972 0.70817 0.0
H489 H 0.82627 0.5911 0.75356 0.0
H490 H 0.78464 0.71476 0.78566 0.0
H491 H 0.79363 0.78389 0.79715 0.0
H492 H 0.88836 0.74991 0.84103 0.0
H493 H 0.8803 0.6806 0.82956 0.0
C494 C 0.75526 0.5113 0.84579 0.0
C495 C 0.78164 0.50215 0.86332 0.0
C496 C 0.76639 0.53691 0.82849 0.0
C497 C 0.80387 0.55427 0.82848 0.0
C498 C 0.83015 0.54563 0.84607 0.0
C499 C 0.81935 0.51939 0.86317 0.0
C500 C 0.8149 0.58245 0.81046 0.0
C501 C 0.82053 0.62218 0.81619 0.0
C502 C 0.81739 0.57094 0.78759 0.0
C503 C 0.81644 0.52901 0.78041 0.0
C504 C 0.84144 0.50113 0.79061 0.0
C505 C 0.84327 0.4626 0.7824 0.0
C506 C 0.82067 0.45165 0.76378 0.0
C507 C 0.79571 0.47904 0.75353 0.0
C508 C 0.7934 0.51747 0.76184 0.0
C509 C 0.88298 0.71004 0.73828 0.0
C510 C 0.85651 0.71345 0.72012 0.0
C511 C 0.87321 0.68754 0.75721 0.0
C512 C 0.83691 0.66785 0.75827 0.0
C513 C 0.80979 0.67256 0.74062 0.0
C514 C 0.81932 0.69539 0.72183 0.0
C515 C 0.82853 0.63959 0.77671 0.0
C516 C 0.82366 0.59983 0.77106 0.0
C517 C 0.82736 0.65091 0.7996 0.0
C518 C 0.83212 0.69254 0.80657 0.0
C519 C 0.80762 0.72207 0.7976 0.0
C520 C 0.8125 0.76128 0.80415 0.0
C521 C 0.84162 0.7713 0.81976 0.0
C522 C 0.86585 0.74211 0.82891 0.0
C523 C 0.86111 0.70285 0.82242 0.0
H524 H 0.84535 0.80168 0.82481 0.0
H525 H 0.82228 0.42186 0.75739 0.0
H526 H 0.99894 0.21801 0.10686 0.0
H527 H 0.95293 0.23708 0.07723 0.0
H528 H 0.9712 0.35944 0.09332 0.0
H529 H 0.01736 0.34062 0.12321 0.0
H530 H 0.89282 0.34239 0.08644 0.0
H531 H 0.01531 0.32033 0.04847 0.0
H532 H 0.07504 0.28336 0.03779 0.0
H533 H 1.00347 0.19223 0.00895 0.0
H534 H 0.94325 0.22832 0.01982 0.0
H535 H 0.81242 0.42257 0.98557 0.0
H536 H 0.85207 0.40375 0.01804 0.0
H537 H 0.84189 0.28157 0.99925 0.0
H538 H 0.80288 0.30024 0.96631 0.0
H539 H 0.91621 0.299 0.00787 0.0
H540 H 0.79344 0.32127 0.04603 0.0
H541 H 0.73395 0.35869 0.05669 0.0
H542 H 0.80618 0.44991 0.08491 0.0
H543 H 0.86613 0.41328 0.07415 0.0
C544 C 0.99313 0.24902 0.10422 0.0
C545 C 0.01194 0.27779 0.11746 0.0
C546 C 0.96689 0.25987 0.08717 0.0
C547 C 0.9589 0.2997 0.08288 0.0
C548 C 0.97697 0.32852 0.09632 0.0
C549 C 1.00341 0.3177 0.11337 0.0
C550 C 0.93194 0.31109 0.06423 0.0
C551 C 0.89815 0.33334 0.06921 0.0
C552 C 0.9385 0.29858 0.0418 0.0
C553 C 0.97472 0.27686 0.03518 0.0
C554 C 0.01228 0.29223 0.04004 0.0
C555 C 0.04624 0.27146 0.03392 0.0
C556 C 0.04305 0.23542 0.02274 0.0
C557 C 1.00589 0.22012 0.01764 0.0
C558 C 0.97184 0.24073 0.02377 0.0
C559 C 0.81797 0.39159 0.98848 0.0
C560 C 0.80442 0.36294 0.97321 0.0
C561 C 0.84066 0.38085 0.00716 0.0
C562 C 0.84991 0.34118 0.01123 0.0
C563 C 0.83526 0.31238 0.99647 0.0
C564 C 0.81271 0.32311 0.97769 0.0
C565 C 0.87671 0.33001 0.03007 0.0
C566 C 0.91067 0.30792 0.02511 0.0
C567 C 0.87031 0.34271 0.05249 0.0
C568 C 0.83428 0.36467 0.0591 0.0
C569 C 0.79664 0.34944 0.05437 0.0
C570 C 0.76284 0.37049 0.06045 0.0
C571 C 0.76628 0.40669 0.07142 0.0
C572 C 0.80355 0.42188 0.07639 0.0
C573 C 0.83745 0.40096 0.07033 0.0
H574 H 0.74008 0.42295 0.07611 0.0
H575 H 0.06935 0.21939 0.01798 0.0
H576 H 0.66682 0.25531 0.51 0.0
H577 H 0.68995 0.21682 0.47728 0.0
H578 H 0.68615 0.11088 0.51714 0.0
H579 H 0.6622 0.14868 0.54938 0.0
H580 H 0.75843 0.12447 0.48872 0.0
H581 H 0.61449 0.11971 0.48758 0.0
H582 H 0.54896 0.15125 0.48702 0.0
H583 H 0.5786 0.21099 0.42568 0.0
H584 H 0.64462 0.18016 0.42607 0.0
H585 H 0.7611 0.9585 0.41865 0.0
H586 H 0.74701 0.00843 0.44698 0.0
H587 H 0.71172 0.08953 0.39478 0.0
H588 H 0.72354 0.03871 0.36645 0.0
H589 H 0.66374 0.09741 0.42697 0.0
H590 H 0.804 0.09426 0.42426 0.0
H591 H 0.87057 0.06502 0.4249 0.0
H592 H 0.85172 0.02486 0.49253 0.0
H593 H 0.78474 0.05313 0.49215 0.0
C594 C 0.67136 0.22389 0.51169 0.0
C595 C 0.66261 0.20477 0.532 0.0
C596 C 0.68446 0.20201 0.4931 0.0
C597 C 0.68977 0.16109 0.49492 0.0
C598 C 0.68244 0.14242 0.5155 0.0
C599 C 0.66856 0.16397 0.53379 0.0
C600 C 0.70093 0.13685 0.47526 0.0
C601 C 0.7379 0.11843 0.47515 0.0
C602 C 0.67433 0.12991 0.45742 0.0
C603 C 0.6346 0.14806 0.45701 0.0
C604 C 0.60715 0.13986 0.47409 0.0
C605 C 0.56992 0.15753 0.47378 0.0
C606 C 0.55968 0.1832 0.45637 0.0
C607 C 0.58662 0.19116 0.43918 0.0
C608 C 0.62394 0.17358 0.43943 0.0
C609 C 0.75019 0.98689 0.4132 0.0
C610 C 0.74338 0.99457 0.39029 0.0
C611 C 0.74252 0.01566 0.42942 0.0
C612 C 0.72913 0.05325 0.42307 0.0
C613 C 0.72214 0.06089 0.40017 0.0
C614 C 0.72895 0.03179 0.38397 0.0
C615 C 0.72146 0.08412 0.44036 0.0
C616 C 0.68494 0.10381 0.44014 0.0
C617 C 0.74882 0.09259 0.45778 0.0
C618 C 0.78919 0.07559 0.4581 0.0
C619 C 0.81393 0.07894 0.43921 0.0
C620 C 0.85175 0.06254 0.43953 0.0
C621 C 0.86534 0.04304 0.45873 0.0
C622 C 0.84115 0.03996 0.47766 0.0
C623 C 0.80325 0.05615 0.4774 0.0
H624 H 0.89462 0.03033 0.45894 0.0
H625 H 0.53083 0.1968 0.45617 0.0
H626 H 0.32616 0.2172 0.7972 0.0
H627 H 0.36431 0.23888 0.76465 0.0
H628 H 0.3305 0.13397 0.72862 0.0
H629 H 0.29301 0.11167 0.76127 0.0
H630 H 0.40705 0.14367 0.72612 0.0
H631 H 0.29481 0.22698 0.71434 0.0
H632 H 0.24405 0.2758 0.72462 0.0
H633 H 0.33405 0.36135 0.73811 0.0
H634 H 0.38541 0.31287 0.7282 0.0
H635 H 0.48812 0.1993 0.62088 0.0
H636 H 0.4405 0.18322 0.65033 0.0
H637 H 0.48268 0.28037 0.6903 0.0
H638 H 0.5304 0.29678 0.66095 0.0
H639 H 0.40075 0.27507 0.68991 0.0
H640 H 0.51266 0.19102 0.70274 0.0
H641 H 0.56338 0.14256 0.69187 0.0
H642 H 0.47325 0.05834 0.67615 0.0
H643 H 0.42191 0.10655 0.68657 0.0
C644 C 0.32617 0.19909 0.7822 0.0
C645 C 0.30663 0.1626 0.78189 0.0
C646 C 0.34801 0.21157 0.76356 0.0
C647 C 0.35025 0.18812 0.74411 0.0
C648 C 0.3294 0.15248 0.74345 0.0
C649 C 0.30783 0.13985 0.76212 0.0
C650 C 0.37644 0.19932 0.72509 0.0
C651 C 0.40514 0.17218 0.71796 0.0
C652 C 0.37479 0.2369 0.71482 0.0
C653 C 0.34397 0.26616 0.72072 0.0
C654 C 0.3038 0.25611 0.71967 0.0
C655 C 0.27492 0.28374 0.72539 0.0
C656 C 0.28583 0.32162 0.73206 0.0
C657 C 0.32565 0.33198 0.73296 0.0
C658 C 0.35465 0.30445 0.72727 0.0
C659 C 0.48717 0.21741 0.63586 0.0
C660 C 0.51318 0.24928 0.63855 0.0
C661 C 0.45998 0.20812 0.6527 0.0
C662 C 0.45825 0.23046 0.67255 0.0
C663 C 0.4835 0.2628 0.67509 0.0
C664 C 0.51086 0.27201 0.65832 0.0
C665 C 0.43094 0.21933 0.69097 0.0
C666 C 0.4023 0.24651 0.69802 0.0
C667 C 0.43257 0.18178 0.70119 0.0
C668 C 0.46342 0.15255 0.69522 0.0
C669 C 0.50363 0.16227 0.69681 0.0
C670 C 0.5325 0.13484 0.69075 0.0
C671 C 0.52155 0.09744 0.68327 0.0
C672 C 0.48169 0.08735 0.68191 0.0
C673 C 0.45269 0.11471 0.6879 0.0
H674 H 0.54395 0.07626 0.67857 0.0
H675 H 0.26342 0.34297 0.73649 0.0
H676 H 0.4151 0.82167 0.0172 0.0
H677 H 0.3938 0.85658 0.98359 0.0
H678 H 0.27839 0.80465 0.98918 0.0
H679 H 0.2993 0.76968 0.0234 0.0
H680 H 0.3142 0.8154 0.94163 0.0
H681 H 0.2771 0.88388 0.00867 0.0
H682 H 0.28838 0.90853 0.04715 0.0
H683 H 0.38276 0.98142 0.02324 0.0
H684 H 0.3726 0.9565 0.98464 0.0
H685 H 0.22216 0.97167 0.87803 0.0
H686 H 0.23715 0.92173 0.90648 0.0
H687 H 0.35291 0.97156 0.91553 0.0
H688 H 0.33837 0.02138 0.88689 0.0
H689 H 0.31031 0.95931 0.95617 0.0
H690 H 0.34624 0.88895 0.88866 0.0
H691 H 0.33484 0.86187 0.85073 0.0
H692 H 0.23916 0.79208 0.87597 0.0
H693 H 0.24964 0.8192 0.91403 0.0
C694 C 0.38535 0.81695 0.01114 0.0
C695 C 0.35867 0.79341 0.02326 0.0
C696 C 0.37331 0.83688 0.99185 0.0
C697 C 0.33446 0.83353 0.98412 0.0
C698 C 0.30853 0.80755 0.99496 0.0
C699 C 0.32053 0.78764 0.0145 0.0
C700 C 0.3204 0.86097 0.96652 0.0
C701 C 0.31255 0.84679 0.94483 0.0
C702 C 0.3188 0.90191 0.97076 0.0
C703 C 0.32437 0.91798 0.9938 0.0
C704 C 0.30048 0.90492 0.01164 0.0
C705 C 0.30664 0.91895 0.03346 0.0
C706 C 0.33635 0.94641 0.03764 0.0
C707 C 0.3598 0.96008 0.01997 0.0
C708 C 0.35385 0.94601 0.99811 0.0
C709 C 0.25095 0.97181 0.88593 0.0
C710 C 0.27915 1.00043 0.88017 0.0
C711 C 0.25946 0.9432 0.90214 0.0
C712 C 0.29613 0.94294 0.91306 0.0
C713 C 0.32443 0.97129 0.90727 0.0
C714 C 0.31616 0.99957 0.89082 0.0
C715 C 0.30456 0.91391 0.93107 0.0
C716 C 0.31144 0.9279 0.95293 0.0
C717 C 0.30471 0.87283 0.92698 0.0
C718 C 0.29843 0.85646 0.90414 0.0
C719 C 0.32252 0.86812 0.88608 0.0
C720 C 0.31628 0.8527 0.86457 0.0
C721 C 0.28621 0.82537 0.86092 0.0
C722 C 0.26239 0.81331 0.87881 0.0
C723 C 0.26849 0.82868 0.90036 0.0
H724 H 0.28144 0.81345 0.84426 0.0
H725 H 0.34112 0.95707 0.05458 0.0
H726 H 0.47122 0.73066 0.16394 0.0
H727 H 0.52166 0.74599 0.192 0.0
H728 H 0.57618 0.82709 0.14572 0.0
H729 H 0.52639 0.81146 0.11742 0.0
H730 H 0.63117 0.78388 0.16785 0.0
H731 H 0.513 0.85688 0.18608 0.0
H732 H 0.44252 0.86365 0.19546 0.0
H733 H 0.46007 0.7959 0.2556 0.0
H734 H 0.5303 0.78733 0.24613 0.0
H735 H 0.68469 0.91834 0.26922 0.0
H736 H 0.64534 0.89696 0.23721 0.0
H737 H 0.69425 0.78017 0.24281 0.0
H738 H 0.73381 0.8013 0.27523 0.0
H739 H 0.58845 0.83912 0.24116 0.0
H740 H 0.69007 0.74134 0.18717 0.0
H741 H 0.76044 0.73556 0.17714 0.0
H742 H 0.776 0.85942 0.18831 0.0
H743 H 0.70566 0.86602 0.19809 0.0
C744 C 0.49404 0.75163 0.15967 0.0
C745 C 0.49463 0.76998 0.13844 0.0
C746 C 0.52284 0.76033 0.17574 0.0
C747 C 0.55252 0.78786 0.17099 0.0
C748 C 0.55362 0.80566 0.14971 0.0
C749 C 0.52494 0.79688 0.1336 0.0
C750 C 0.58137 0.79968 0.1885 0.0
C751 C 0.62184 0.79578 0.18393 0.0
C752 C 0.56915 0.81543 0.20942 0.0
C753 C 0.52689 0.82101 0.21522 0.0
C754 C 0.50176 0.843 0.20116 0.0
C755 C 0.4618 0.84709 0.20647 0.0
C756 C 0.44675 0.82995 0.22602 0.0
C757 C 0.47167 0.80888 0.24036 0.0
C758 C 0.51154 0.8043 0.235 0.0
C759 C 0.68771 0.88823 0.26346 0.0
C760 C 0.71203 0.86138 0.275 0.0
C761 C 0.66506 0.87607 0.24518 0.0
C762 C 0.66652 0.83692 0.23784 0.0
C763 C 0.69274 0.81056 0.24826 0.0
C764 C 0.71543 0.82271 0.26672 0.0
C765 C 0.63819 0.82341 0.22049 0.0
C766 C 0.59776 0.82689 0.22515 0.0
C767 C 0.65044 0.80756 0.19966 0.0
C768 C 0.69271 0.80404 0.19363 0.0
C769 C 0.7085 0.76734 0.18743 0.0
C770 C 0.74838 0.76393 0.18179 0.0
C771 C 0.77271 0.79707 0.18218 0.0
C772 C 0.75718 0.83373 0.18812 0.0
C773 C 0.71732 0.83731 0.19376 0.0
H774 H 0.80357 0.79437 0.17781 0.0
H775 H 0.41581 0.83315 0.23012 0.0
H776 H 0.18332 0.19347 0.90678 0.0
H777 H 0.17706 0.20923 0.94673 0.0
H778 H 0.26081 0.11737 0.96281 0.0
H779 H 0.26433 0.0996 0.9229 0.0
H780 H 0.20901 0.11481 0.99198 0.0
H781 H 0.28293 0.22036 0.96289 0.0
H782 H 0.30035 0.27398 0.93705 0.0
H783 H 0.19704 0.33827 0.95695 0.0
H784 H 0.17816 0.28426 0.98246 0.0
H785 H 0.22028 0.19268 0.10438 0.0
H786 H 0.24258 0.18077 0.06571 0.0
H787 H 0.13333 0.2283 0.0403 0.0
H788 H 0.11037 0.23945 0.07881 0.0
H789 H 0.20884 0.25367 0.01792 0.0
H790 H 0.13511 0.13726 0.04396 0.0
H791 H 0.12496 0.08317 0.07102 0.0
H792 H 0.24237 0.04102 0.05852 0.0
H793 H 0.25335 0.09524 0.03161 0.0
C794 C 0.20026 0.17676 0.91895 0.0
C795 C 0.22434 0.14553 0.91206 0.0
C796 C 0.19702 0.18593 0.94172 0.0
C797 C 0.21929 0.1652 0.9578 0.0
C798 C 0.24342 0.13387 0.95077 0.0
C799 C 0.24552 0.12378 0.92805 0.0
C800 C 0.21637 0.17551 0.98198 0.0
C801 C 0.20981 0.14518 0.99759 0.0
C802 C 0.21757 0.2151 0.98953 0.0
C803 C 0.22899 0.24806 0.97449 0.0
C804 C 0.26376 0.2458 0.96167 0.0
C805 C 0.27391 0.27632 0.94707 0.0
C806 C 0.24993 0.30964 0.94537 0.0
C807 C 0.21563 0.31245 0.95828 0.0
C808 C 0.20514 0.28184 0.97281 0.0
C809 C 0.20125 0.20095 0.09051 0.0
C810 C 0.16353 0.21664 0.09445 0.0
C811 C 0.214 0.19415 0.06854 0.0
C812 C 0.18942 0.20363 0.05038 0.0
C813 C 0.15252 0.22089 0.05424 0.0
C814 C 0.13944 0.22699 0.07616 0.0
C815 C 0.20071 0.19316 0.0273 0.0
C816 C 0.2088 0.22342 0.01206 0.0
C817 C 0.20223 0.15355 0.02022 0.0
C818 C 0.19518 0.1205 0.03598 0.0
C819 C 0.15883 0.11661 0.04711 0.0
C820 C 0.15292 0.08591 0.06239 0.0
C821 C 0.18304 0.05874 0.06654 0.0
C822 C 0.21908 0.06211 0.05532 0.0
C823 C 0.22515 0.09279 0.04004 0.0
H824 H 0.17843 0.03503 0.0784 0.0
H825 H 0.25793 0.33325 0.93404 0.0
H826 H 0.38349 0.78006 0.16492 0.0
H827 H 0.3693 0.77708 0.20538 0.0
H828 H 0.26881 0.7029 0.19197 0.0
H829 H 0.28297 0.70636 0.15138 0.0
H830 H 0.25521 0.75255 0.22784 0.0
H831 H 0.35688 0.6631 0.20168 0.0
H832 H 0.41979 0.64705 0.18304 0.0
H833 H 0.48223 0.71809 0.23098 0.0
H834 H 0.41945 0.73501 0.2497 0.0
H835 H 0.30713 0.61156 0.32539 0.0
H836 H 0.31252 0.63523 0.28689 0.0
H837 H 0.28725 0.75344 0.30911 0.0
H838 H 0.28154 0.72991 0.34799 0.0
H839 H 0.36401 0.6875 0.26961 0.0
H840 H 0.23617 0.79898 0.26392 0.0
H841 H 0.17162 0.81207 0.2816 0.0
H842 H 0.1589 0.68923 0.2968 0.0
H843 H 0.22302 0.67533 0.2789 0.0
C844 C 0.35782 0.76401 0.17069 0.0
C845 C 0.33423 0.74325 0.1554 0.0
C846 C 0.34976 0.76227 0.1937 0.0
C847 C 0.31833 0.73926 0.20165 0.0
C848 C 0.29322 0.72069 0.18615 0.0
C849 C 0.30131 0.72247 0.16311 0.0
C850 C 0.31463 0.73031 0.22595 0.0
C851 C 0.27908 0.73868 0.23707 0.0
C852 C 0.34564 0.71171 0.23787 0.0
C853 C 0.38343 0.70076 0.22691 0.0
C854 C 0.38397 0.6755 0.20816 0.0
C855 C 0.41961 0.66623 0.19759 0.0
C856 C 0.45497 0.68165 0.20579 0.0
C857 C 0.45479 0.70628 0.22461 0.0
C858 C 0.4192 0.71573 0.2352 0.0
C859 C 0.30267 0.64263 0.32221 0.0
C860 C 0.29407 0.66888 0.33985 0.0
C861 C 0.30585 0.65611 0.30014 0.0
C862 C 0.30026 0.69604 0.29514 0.0
C863 C 0.2914 0.72243 0.31261 0.0
C864 C 0.28829 0.70895 0.33481 0.0
C865 C 0.30454 0.70962 0.27159 0.0
C866 C 0.34031 0.70202 0.26056 0.0
C867 C 0.27353 0.72838 0.25975 0.0
C868 C 0.23467 0.73623 0.27033 0.0
C869 C 0.21954 0.77476 0.27099 0.0
C870 C 0.18302 0.78231 0.28104 0.0
C871 C 0.16125 0.75152 0.2904 0.0
C872 C 0.17587 0.71308 0.28963 0.0
C873 C 0.21233 0.70536 0.27956 0.0
H874 H 0.133 0.75744 0.29819 0.0
H875 H 0.48254 0.67445 0.19758 0.0
H876 H 0.75092 0.88778 0.41761 0.0
H877 H 0.75797 0.87009 0.45733 0.0
H878 H 0.79747 0.75403 0.43818 0.0
H879 H 0.78991 0.77183 0.39821 0.0
H880 H 0.75016 0.75705 0.47929 0.0
H881 H 0.86486 0.81683 0.44504 0.0
H882 H 0.89811 0.86805 0.42264 0.0
H883 H 0.86145 0.95605 0.47009 0.0
H884 H 0.82731 0.9055 0.49253 0.0
H885 H 0.90889 0.78107 0.57431 0.0
H886 H 0.88725 0.78155 0.53524 0.0
H887 H 0.76673 0.79728 0.55674 0.0
H888 H 0.78813 0.7958 0.5961 0.0
H889 H 0.85491 0.83966 0.51347 0.0
H890 H 0.70465 0.75967 0.51573 0.0
H891 H 0.67112 0.70749 0.53726 0.0
H892 H 0.78289 0.65553 0.55361 0.0
H893 H 0.81716 0.70695 0.53189 0.0
C894 C 0.76015 0.85824 0.42199 0.0
C895 C 0.77022 0.83115 0.4052 0.0
C896 C 0.76402 0.84812 0.44457 0.0
C897 C 0.77863 0.81095 0.45057 0.0
C898 C 0.78601 0.78279 0.43378 0.0
C899 C 0.78186 0.79293 0.41109 0.0
C900 C 0.79163 0.80397 0.47392 0.0
C901 C 0.77306 0.77495 0.48686 0.0
C902 C 0.82187 0.82711 0.48353 0.0
C903 C 0.84328 0.85742 0.47036 0.0
C904 C 0.86369 0.84715 0.45062 0.0
C905 C 0.88268 0.87608 0.43791 0.0
C906 C 0.88179 0.91534 0.4449 0.0
C907 C 0.86203 0.9257 0.46466 0.0
C908 C 0.84288 0.89691 0.47739 0.0
C909 C 0.87774 0.78453 0.57077 0.0
C910 C 0.85023 0.78879 0.58828 0.0
C911 C 0.86541 0.78467 0.54842 0.0
C912 C 0.82539 0.78926 0.54307 0.0
C913 C 0.7977 0.79307 0.5605 0.0
C914 C 0.80999 0.7925 0.58296 0.0
C915 C 0.81336 0.79273 0.51921 0.0
C916 C 0.8321 0.82142 0.50606 0.0
C917 C 0.78362 0.76893 0.50948 0.0
C918 C 0.76346 0.73744 0.52235 0.0
C919 C 0.72209 0.737 0.52383 0.0
C920 C 0.70297 0.70755 0.53608 0.0
C921 C 0.72491 0.67827 0.54686 0.0
C922 C 0.76601 0.67829 0.54532 0.0
C923 C 0.78529 0.70761 0.53307 0.0
H924 H 0.71008 0.65551 0.55636 0.0
H925 H 0.89648 0.93772 0.43504 0.0
H926 H 0.71932 0.25603 0.65553 0.0
H927 H 0.73679 0.26434 0.69535 0.0
H928 H 0.63834 0.34357 0.70392 0.0
H929 H 0.62148 0.33633 0.66443 0.0
H930 H 0.70112 0.37211 0.72384 0.0
H931 H 0.63438 0.24669 0.72035 0.0
H932 H 0.62481 0.17881 0.70675 0.0
H933 H 0.73878 0.14634 0.73227 0.0
H934 H 0.74925 0.21426 0.74575 0.0
H935 H 0.66325 0.3843 0.83773 0.0
H936 H 0.65445 0.36307 0.79874 0.0
H937 H 0.76035 0.29284 0.80337 0.0
H938 H 0.76776 0.31225 0.84301 0.0
H939 H 0.7048 0.25848 0.77627 0.0
H940 H 0.76003 0.38785 0.78721 0.0
H941 H 0.75753 0.45446 0.80348 0.0
H942 H 0.65578 0.48158 0.76338 0.0
H943 H 0.65594 0.41431 0.74798 0.0
C944 C 0.70161 0.27535 0.66594 0.0
C945 C 0.66921 0.29572 0.65685 0.0
C946 C 0.71154 0.27998 0.68865 0.0
C947 C 0.68877 0.3045 0.70257 0.0
C948 C 0.6565 0.32476 0.69345 0.0
C949 C 0.64687 0.32051 0.67084 0.0
C950 C 0.69759 0.30906 0.72681 0.0
C951 C 0.70183 0.34731 0.73534 0.0
C952 C 0.69922 0.27655 0.74166 0.0
C953 C 0.6928 0.23564 0.73381 0.0
C954 C 0.65752 0.22514 0.72292 0.0
C955 C 0.65191 0.18665 0.71525 0.0
C956 C 0.68122 0.1583 0.71857 0.0
C957 C 0.71614 0.16835 0.72966 0.0
C958 C 0.72193 0.20683 0.73732 0.0
C959 C 0.68422 0.36385 0.83047 0.0
C960 C 0.71659 0.35042 0.84297 0.0
C961 C 0.67917 0.35166 0.80829 0.0
C962 C 0.70744 0.32736 0.79802 0.0
C963 C 0.73845 0.31189 0.81096 0.0
C964 C 0.7428 0.32313 0.83345 0.0
C965 C 0.70673 0.32164 0.77337 0.0
C966 C 0.7046 0.28325 0.76476 0.0
C967 C 0.70606 0.3542 0.75843 0.0
C968 C 0.70778 0.39565 0.76657 0.0
C969 C 0.73683 0.4078 0.78201 0.0
C970 C 0.73559 0.44561 0.79126 0.0
C971 C 0.70647 0.47219 0.7845 0.0
C972 C 0.67833 0.46093 0.76861 0.0
C973 C 0.67879 0.42283 0.75975 0.0
H974 H 0.70575 0.50157 0.79147 0.0
H975 H 0.67684 0.12852 0.71261 0.0
H976 H 0.1416 0.09552 0.15411 0.0
H977 H 0.18626 0.04024 0.14927 0.0
H978 H 0.28034 0.10692 0.17974 0.0
H979 H 0.23567 0.16328 0.18414 0.0
H980 H 0.30515 0.07433 0.14165 0.0
H981 H 0.24088 0.02589 0.20646 0.0
H982 H 0.18466 0.01075 0.23124 0.0
H983 H 0.13936 0.92982 0.18218 0.0
H984 H 0.1949 0.94497 0.1569 0.0
H985 H 0.41326 0.88784 0.12388 0.0
H986 H 0.38585 0.94653 0.14271 0.0
H987 H 0.27392 0.92627 0.11038 0.0
H988 H 0.30067 0.86891 0.09145 0.0
H989 H 0.26965 0.93582 0.15825 0.0
H990 H 0.32668 0.99809 0.09131 0.0
H991 H 0.38211 0.01554 0.06632 0.0
H992 H 0.44237 0.0699 0.12171 0.0
H993 H 0.38739 0.05259 0.14704 0.0
C994 C 0.17155 0.09833 0.16024 0.0
C995 C 0.18496 0.13399 0.16949 0.0
C996 C 0.19714 0.06649 0.15753 0.0
C997 C 0.23674 0.06914 0.16427 0.0
C998 C 0.24993 0.10411 0.17442 0.0
C999 C 0.22423 0.13619 0.17712 0.0
C1000 C 0.26445 0.03627 0.15904 0.0
C1001 C 0.29793 0.04412 0.14583 0.0
C1002 C 0.25516 0.99672 0.16436 0.0
C1003 C 0.22208 0.98671 0.17972 0.0
C1004 C 0.21885 1.00498 0.20089 0.0
C1005 C 0.18708 0.99641 0.21503 0.0
C1006 C 0.15843 0.96938 0.20828 0.0
C1007 C 0.16158 0.95075 0.18739 0.0
C1008 C 0.19326 0.95927 0.17316 0.0
C1009 C 0.38301 0.89631 0.12056 0.0
C1010 C 0.35918 0.87341 0.10625 0.0
C1011 C 0.36736 0.92971 0.13139 0.0
C1012 C 0.32767 0.94042 0.12814 0.0
C1013 C 0.30442 0.91828 0.11336 0.0
C1014 C 0.31996 0.88544 0.10248 0.0
C1015 C 0.30919 0.97398 0.14025 0.0
C1016 C 0.27742 0.96615 0.15472 0.0
C1017 C 0.32025 0.01344 0.13628 0.0
C1018 C 0.35326 0.02359 0.1211 0.0
C1019 C 0.35195 0.01342 0.09818 0.0
C1020 C 0.3832 0.02336 0.08395 0.0
C1021 C 0.41581 0.0436 0.09245 0.0
C1022 C 0.41715 0.05411 0.11517 0.0
C1023 C 0.38595 0.0443 0.12946 0.0
H1024 H 0.43997 0.05127 0.08141 0.0
H1025 H 0.13381 0.96286 0.21923 0.0
H1026 H 0.41867 0.64993 0.40445 0.0
H1027 H 0.47372 0.69584 0.40244 0.0
H1028 H 0.39911 0.78912 0.42726 0.0
H1029 H 0.34359 0.74318 0.4293 0.0
H1030 H 0.43719 0.8097 0.38839 0.0
H1031 H 0.47414 0.75824 0.4595 0.0
H1032 H 0.48714 0.70727 0.48808 0.0
H1033 H 0.57971 0.65929 0.44712 0.0
H1034 H 0.56691 0.70958 0.41812 0.0
H1035 H 0.6195 0.92103 0.37035 0.0
H1036 H 0.56025 0.89616 0.38973 0.0
H1037 H 0.59247 0.77747 0.37169 0.0
H1038 H 0.65051 0.80148 0.35251 0.0
H1039 H 0.57256 0.78441 0.41653 0.0
H1040 H 0.5233 0.82386 0.34261 0.0
H1041 H 0.50956 0.87212 0.3126 0.0
H1042 H 0.44029 0.94097 0.35855 0.0
H1043 H 0.45402 0.89326 0.38891 0.0
C1044 C 0.41412 0.67998 0.40996 0.0
C1045 C 0.3767 0.69287 0.41696 0.0
C1046 C 0.44569 0.70622 0.40888 0.0
C1047 C 0.44058 0.74593 0.41477 0.0
C1048 C 0.4037 0.7586 0.42267 0.0
C1049 C 0.37209 0.73221 0.42396 0.0
C1050 C 0.47298 0.77437 0.4106 0.0
C1051 C 0.4666 0.80491 0.39506 0.0
C1052 C 0.5114 0.76794 0.41912 0.0
C1053 C 0.51945 0.73768 0.43658 0.0
C1054 C 0.49712 0.73668 0.45651 0.0
C1055 C 0.50447 0.70791 0.4728 0.0
C1056 C 0.53421 0.68005 0.46941 0.0
C1057 C 0.5567 0.68092 0.44973 0.0
C1058 C 0.54946 0.70961 0.43338 0.0
C1059 C 0.61371 0.8897 0.37046 0.0
C1060 C 0.63972 0.86335 0.35976 0.0
C1061 C 0.57998 0.87555 0.38156 0.0
C1062 C 0.57218 0.83491 0.38226 0.0
C1063 C 0.59808 0.80886 0.37156 0.0
C1064 C 0.63123 0.82283 0.36041 0.0
C1065 C 0.53698 0.8184 0.39365 0.0
C1066 C 0.54288 0.79007 0.41052 0.0
C1067 C 0.49822 0.82667 0.38627 0.0
C1068 C 0.49015 0.85536 0.36808 0.0
C1069 C 0.50546 0.8495 0.34636 0.0
C1070 C 0.4976 0.87669 0.32928 0.0
C1071 C 0.4742 0.90968 0.33369 0.0
C1072 C 0.45851 0.91547 0.35518 0.0
C1073 C 0.46631 0.88837 0.37232 0.0
H1074 H 0.46813 0.93069 0.32044 0.0
H1075 H 0.53985 0.65779 0.48204 0.0
H1076 H 0.7109 0.16738 0.61919 0.0
H1077 H 0.73624 0.10534 0.63334 0.0
H1078 H 0.61933 0.05584 0.63165 0.0
H1079 H 0.59319 0.11878 0.61713 0.0
H1080 H 0.67359 0.03548 0.67198 0.0
H1081 H 0.66686 0.03128 0.59132 0.0
H1082 H 0.67541 0.05818 0.55311 0.0
H1083 H 0.80024 0.067 0.5639 0.0
H1084 H 0.79237 0.04102 0.60238 0.0
H1085 H 0.77133 0.84374 0.67451 0.0
H1086 H 0.72632 0.89956 0.6694 0.0
H1087 H 0.82418 0.97235 0.64919 0.0
H1088 H 0.869 0.9168 0.65391 0.0
H1089 H 0.76741 0.97386 0.61844 0.0
H1090 H 0.77455 0.98601 0.69936 0.0
H1091 H 0.76799 0.96308 0.73854 0.0
H1092 H 0.64479 0.94085 0.72788 0.0
H1093 H 0.65074 0.96318 0.68852 0.0
C1094 C 0.69027 0.14354 0.62193 0.0
C1095 C 0.65009 0.14779 0.61654 0.0
C1096 C 0.70488 0.10812 0.63016 0.0
C1097 C 0.67979 0.07592 0.63323 0.0
C1098 C 0.63915 0.08046 0.6293 0.0
C1099 C 0.62432 0.11629 0.62096 0.0
C1100 C 0.69763 0.03716 0.6385 0.0
C1101 C 0.69338 0.02128 0.66015 0.0
C1102 C 0.72402 0.0193 0.62315 0.0
C1103 C 0.72896 0.03439 0.59983 0.0
C1104 C 0.6961 0.03925 0.58563 0.0
C1105 C 0.70083 0.05432 0.5639 0.0
C1106 C 0.73834 0.06432 0.55609 0.0
C1107 C 0.7712 0.05925 0.56998 0.0
C1108 C 0.76662 0.04433 0.59175 0.0
C1109 C 0.78339 0.87193 0.66957 0.0
C1110 C 0.82374 0.87575 0.66444 0.0
C1111 C 0.75758 0.90382 0.6666 0.0
C1112 C 0.77178 0.94011 0.6587 0.0
C1113 C 0.81243 0.94455 0.65505 0.0
C1114 C 0.83809 0.91278 0.65787 0.0
C1115 C 0.74449 0.97257 0.65225 0.0
C1116 C 0.74703 0.98733 0.63023 0.0
C1117 C 0.71674 0.9893 0.6673 0.0
C1118 C 0.7132 0.97577 0.69092 0.0
C1119 C 0.74614 0.97586 0.7053 0.0
C1120 C 0.74252 0.96306 0.72756 0.0
C1121 C 0.70603 0.95038 0.73567 0.0
C1122 C 0.67305 0.95059 0.72156 0.0
C1123 C 0.67653 0.96333 0.69928 0.0
H1124 H 0.70327 0.9405 0.75291 0.0
H1125 H 0.74198 0.07591 0.53926 0.0
H1126 H 0.34939 0.15671 0.89865 0.0
H1127 H 0.40953 0.18698 0.91312 0.0
H1128 H 0.4634 0.17598 0.84763 0.0
H1129 H 0.40362 0.14381 0.83339 0.0
H1130 H 0.51836 0.16882 0.87675 0.0
H1131 H 0.41706 0.26147 0.86572 0.0
H1132 H 0.35253 0.29457 0.86831 0.0
H1133 H 0.368 0.30886 0.93956 0.0
H1134 H 0.43214 0.27478 0.93751 0.0
H1135 H 0.60104 0.37673 0.90225 0.0
H1136 H 0.54565 0.33343 0.89574 0.0
H1137 H 0.60909 0.23756 0.92685 0.0
H1138 H 0.66627 0.28079 0.93229 0.0
H1139 H 0.4963 0.29552 0.91625 0.0
H1140 H 0.58337 0.15031 0.90196 0.0
H1141 H 0.6497 0.12919 0.8898 0.0
H1142 H 0.66444 0.23753 0.85359 0.0
H1143 H 0.59805 0.25899 0.86526 0.0
C1144 C 0.37439 0.16001 0.88747 0.0
C1145 C 0.37178 0.14815 0.86486 0.0
C1146 C 0.40871 0.17757 0.89571 0.0
C1147 C 0.44081 0.18486 0.88137 0.0
C1148 C 0.43909 0.17089 0.85907 0.0
C1149 C 0.40493 0.15247 0.85092 0.0
C1150 C 0.47466 0.20942 0.88922 0.0
C1151 C 0.51349 0.19642 0.88549 0.0
C1152 C 0.46867 0.24622 0.89998 0.0
C1153 C 0.4292 0.26503 0.90151 0.0
C1154 C 0.40643 0.27107 0.88201 0.0
C1155 C 0.36994 0.2901 0.88337 0.0
C1156 C 0.35613 0.30374 0.90409 0.0
C1157 C 0.37868 0.29817 0.92352 0.0
C1158 C 0.41504 0.27888 0.92229 0.0
C1159 C 0.60327 0.34656 0.90803 0.0
C1160 C 0.63848 0.3322 0.91753 0.0
C1161 C 0.57129 0.3217 0.90432 0.0
C1162 C 0.57318 0.2818 0.91032 0.0
C1163 C 0.60714 0.26796 0.9215 0.0
C1164 C 0.63966 0.29286 0.92492 0.0
C1165 C 0.54008 0.25507 0.90382 0.0
C1166 C 0.50125 0.26762 0.90783 0.0
C1167 C 0.54618 0.21928 0.89202 0.0
C1168 C 0.58598 0.20643 0.88476 0.0
C1169 C 0.60076 0.16955 0.89137 0.0
C1170 C 0.63835 0.15753 0.88455 0.0
C1171 C 0.66133 0.18207 0.87101 0.0
C1172 C 0.64669 0.21861 0.86415 0.0
C1173 C 0.6091 0.23072 0.87088 0.0
H1174 H 0.69044 0.17272 0.86578 0.0
H1175 H 0.32799 0.31871 0.90508 0.0
H1176 H 0.90689 0.61614 0.63815 0.0
H1177 H 0.87735 0.55401 0.62464 0.0
H1178 H 0.76215 0.6078 0.62618 0.0
H1179 H 0.79104 0.66924 0.63906 0.0
H1180 H 0.76777 0.53099 0.64697 0.0
H1181 H 0.80587 0.60268 0.57934 0.0
H1182 H 0.8546 0.63385 0.55423 0.0
H1183 H 0.91551 0.52366 0.54741 0.0
H1184 H 0.86761 0.49205 0.57286 0.0
H1185 H 0.6335 0.41492 0.58933 0.0
H1186 H 0.67418 0.47248 0.59762 0.0
H1187 H 0.77883 0.40684 0.58048 0.0
H1188 H 0.73839 0.34927 0.57197 0.0
H1189 H 0.78657 0.48393 0.56863 0.0
H1190 H 0.75405 0.41066 0.63389 0.0
H1191 H 0.71273 0.37582 0.66149 0.0
H1192 H 0.64904 0.48253 0.67507 0.0
H1193 H 0.69002 0.51804 0.64744 0.0
C1194 C 0.87529 0.61443 0.63569 0.0
C1195 C 0.85132 0.64755 0.6395 0.0
C1196 C 0.85852 0.57913 0.62792 0.0
C1197 C 0.81758 0.5765 0.62437 0.0
C1198 C 0.79375 0.60923 0.6288 0.0
C1199 C 0.8104 0.64439 0.63607 0.0
C1200 C 0.79869 0.54016 0.61581 0.0
C1201 C 0.77171 0.5208 0.62981 0.0
C1202 C 0.80491 0.52614 0.59368 0.0
C1203 C 0.83344 0.54514 0.57823 0.0
C1204 C 0.82987 0.58521 0.57266 0.0
C1205 C 0.85729 0.60293 0.55834 0.0
C1206 C 0.88815 0.58077 0.54927 0.0
C1207 C 0.89162 0.54081 0.55448 0.0
C1208 C 0.86436 0.52299 0.56886 0.0
C1209 C 0.665 0.41309 0.58654 0.0
C1210 C 0.68272 0.37733 0.58022 0.0
C1211 C 0.6883 0.44592 0.59153 0.0
C1212 C 0.72964 0.44361 0.59021 0.0
C1213 C 0.74706 0.4092 0.58181 0.0
C1214 C 0.72384 0.37632 0.57692 0.0
C1215 C 0.75459 0.47558 0.59959 0.0
C1216 C 0.78277 0.49394 0.58583 0.0
C1217 C 0.75021 0.48822 0.62216 0.0
C1218 C 0.72481 0.4669 0.63841 0.0
C1219 C 0.73095 0.42661 0.64258 0.0
C1220 C 0.70765 0.40675 0.65828 0.0
C1221 C 0.67811 0.42689 0.66996 0.0
C1222 C 0.67188 0.46695 0.66598 0.0
C1223 C 0.69519 0.48698 0.65033 0.0
H1224 H 0.66016 0.41154 0.68216 0.0
H1225 H 0.90933 0.59453 0.53818 0.0
H1226 H 0.10179 0.14067 0.83896 0.0
H1227 H 0.04548 0.18454 0.84515 0.0
H1228 H 0.12315 0.28482 0.84433 0.0
H1229 H 0.17962 0.24112 0.83763 0.0
H1230 H 0.07157 0.27745 0.88383 0.0
H1231 H 0.06491 0.27869 0.80299 0.0
H1232 H 0.06304 0.2483 0.76533 0.0
H1233 H 0.95649 0.18739 0.7827 0.0
H1234 H 0.95803 0.21697 0.82059 0.0
H1235 H 0.90419 0.40429 0.9011 0.0
H1236 H 0.96666 0.37675 0.88723 0.0
H1237 H 0.90547 0.2723 0.86529 0.0
H1238 H 0.84356 0.29986 0.8782 0.0
H1239 H 0.95411 0.29073 0.83468 0.0
H1240 H 0.96305 0.27783 0.91511 0.0
H1241 H 0.96399 0.30023 0.95459 0.0
H1242 H 0.06362 0.37403 0.94052 0.0
H1243 H 0.06295 0.35242 0.90086 0.0
C1244 C 0.10675 0.17214 0.83953 0.0
C1245 C 0.14511 0.18742 0.83765 0.0
C1246 C 0.07459 0.19716 0.84314 0.0
C1247 C 0.08018 0.23792 0.84529 0.0
C1248 C 0.11823 0.25345 0.84273 0.0
C1249 C 0.15038 0.22847 0.83867 0.0
C1250 C 0.04645 0.26368 0.85152 0.0
C1251 C 0.04616 0.28116 0.87293 0.0
C1252 C 0.01293 0.26742 0.83755 0.0
C1253 C 0.01175 0.24986 0.81469 0.0
C1254 C 0.04124 0.25859 0.79884 0.0
C1255 C 0.04021 0.24155 0.77744 0.0
C1256 C 0.00971 0.21588 0.77164 0.0
C1257 C 0.98011 0.20727 0.78721 0.0
C1258 C 0.98102 0.22422 0.80864 0.0
C1259 C 0.90414 0.37552 0.89326 0.0
C1260 C 0.86875 0.35439 0.89081 0.0
C1261 C 0.93991 0.35969 0.88542 0.0
C1262 C 0.94101 0.32218 0.87532 0.0
C1263 C 0.90561 0.30133 0.87284 0.0
C1264 C 0.87006 0.3172 0.88037 0.0
C1265 C 0.97859 0.30397 0.86732 0.0
C1266 C 0.97967 0.28777 0.84553 0.0
C1267 C 0.01244 0.30054 0.8812 0.0
C1268 C 0.01259 0.31394 0.90495 0.0
C1269 C 0.9849 0.29914 0.92039 0.0
C1270 C 0.98544 0.31162 0.9428 0.0
C1271 C 0.01375 0.33865 0.95004 0.0
C1272 C 0.04163 0.35319 0.93487 0.0
C1273 C 0.04119 0.34083 0.91243 0.0
H1274 H 0.01416 0.34823 0.96741 0.0
H1275 H 0.00897 0.2027 0.75506 0.0
H1276 H 0.26613 0.66653 0.0757 0.0
H1277 H 0.22573 0.60836 0.08374 0.0
H1278 H 0.32911 0.54617 0.1065 0.0
H1279 H 0.36984 0.6036 0.09809 0.0
H1280 H 0.23582 0.52159 0.06976 0.0
H1281 H 0.30026 0.51676 0.15849 0.0
H1282 H 0.32312 0.56158 0.18853 0.0
H1283 H 0.24369 0.65104 0.16487 0.0
H1284 H 0.22128 0.6072 0.13446 0.0
H1285 H 0.20174 0.33619 0.11882 0.0
H1286 H 0.22801 0.39807 0.10498 0.0
H1287 H 0.14896 0.46202 0.14857 0.0
H1288 H 0.12283 0.39964 0.16303 0.0
H1289 H 0.22091 0.49164 0.15108 0.0
H1290 H 0.13421 0.45819 0.09087 0.0
H1291 H 0.10478 0.4151 0.06203 0.0
H1292 H 0.21678 0.40563 0.02882 0.0
H1293 H 0.24705 0.4482 0.05766 0.0
C1294 C 0.28042 0.64013 0.08188 0.0
C1295 C 0.32125 0.63975 0.08622 0.0
C1296 C 0.25727 0.60699 0.0865 0.0
C1297 C 0.27445 0.57321 0.09589 0.0
C1298 C 0.31535 0.57208 0.09931 0.0
C1299 C 0.33861 0.60489 0.09435 0.0
C1300 C 0.24961 0.53992 0.10349 0.0
C1301 C 0.2324 0.51494 0.0875 0.0
C1302 C 0.24446 0.5319 0.12661 0.0
C1303 C 0.2594 0.5589 0.14416 0.0
C1304 C 0.28802 0.54616 0.15963 0.0
C1305 C 0.301 0.57144 0.17666 0.0
C1306 C 0.28514 0.60929 0.17851 0.0
C1307 C 0.25647 0.62201 0.16325 0.0
C1308 C 0.24379 0.59706 0.14604 0.0
C1309 C 0.18965 0.36333 0.12546 0.0
C1310 C 0.16009 0.36285 0.14209 0.0
C1311 C 0.20457 0.3988 0.11735 0.0
C1312 C 0.1901 0.43479 0.12543 0.0
C1313 C 0.16042 0.43458 0.14196 0.0
C1314 C 0.14541 0.39892 0.15016 0.0
C1315 C 0.20763 0.47233 0.11737 0.0
C1316 C 0.22383 0.49815 0.13329 0.0
C1317 C 0.21119 0.48132 0.09413 0.0
C1318 C 0.19295 0.45623 0.07653 0.0
C1319 C 0.15262 0.44676 0.07749 0.0
C1320 C 0.13578 0.42244 0.06113 0.0
C1321 C 0.15891 0.40759 0.04362 0.0
C1322 C 0.1989 0.41715 0.0424 0.0
C1323 C 0.2159 0.44143 0.05873 0.0
H1324 H 0.14583 0.38873 0.03099 0.0
H1325 H 0.2948 0.62862 0.19188 0.0
H1326 H 0.91068 0.87109 0.33821 0.0
H1327 H 0.96935 0.8306 0.34404 0.0
H1328 H 0.89981 0.72555 0.33526 0.0
H1329 H 0.84094 0.76574 0.32961 0.0
H1330 H 0.94037 0.7217 0.37322 0.0
H1331 H 0.97036 0.75195 0.29717 0.0
H1332 H 0.98138 0.79261 0.26343 0.0
H1333 H 0.07733 0.85142 0.2964 0.0
H1334 H 0.0664 0.81171 0.33052 0.0
H1335 H 0.11805 0.60627 0.39132 0.0
H1336 H 0.05557 0.63301 0.37667 0.0
H1337 H 0.10582 0.74965 0.37674 0.0
H1338 H 0.16788 0.72315 0.39038 0.0
H1339 H 0.07218 0.73787 0.33856 0.0
H1340 H 0.03122 0.71674 0.417 0.0
H1341 H 0.0179 0.6769 0.45098 0.0
H1342 H 0.94362 0.60012 0.41247 0.0
H1343 H 0.95604 0.6397 0.37838 0.0
C1344 C 0.90797 0.83941 0.33694 0.0
C1345 C 0.87091 0.82175 0.33362 0.0
C1346 C 0.94163 0.81623 0.34027 0.0
C1347 C 0.93904 0.77494 0.34016 0.0
C1348 C 0.90254 0.75731 0.33554 0.0
C1349 C 0.86889 0.78042 0.33221 0.0
C1350 C 0.97343 0.75041 0.34698 0.0
C1351 C 0.96907 0.72476 0.36536 0.0
C1352 C 0.011 0.75458 0.33693 0.0
C1353 C 0.01726 0.77905 0.31653 0.0
C1354 C 0.99351 0.77386 0.29735 0.0
C1355 C 0.9998 0.79671 0.27812 0.0
C1356 C 0.02996 0.82466 0.2778 0.0
C1357 C 0.05392 0.82982 0.29669 0.0
C1358 C 0.04768 0.80714 0.31598 0.0
C1359 C 0.11545 0.63761 0.38834 0.0
C1360 C 0.14797 0.66251 0.3917 0.0
C1361 C 0.07974 0.65293 0.38005 0.0
C1362 C 0.0759 0.69346 0.37551 0.0
C1363 C 0.10804 0.71828 0.37977 0.0
C1364 C 0.14359 0.70303 0.38761 0.0
C1365 C 0.03947 0.7106 0.36543 0.0
C1366 C 0.0434 0.73464 0.3463 0.0
C1367 C 1.00156 0.70505 0.3748 0.0
C1368 C 0.99497 0.68082 0.39514 0.0
C1369 C 0.01234 0.69115 0.41578 0.0
C1370 C 1.00488 0.66872 0.43504 0.0
C1371 C 0.98027 0.63586 0.43382 0.0
C1372 C 0.9628 0.62549 0.41337 0.0
C1373 C 0.96991 0.64798 0.39411 0.0
H1374 H 0.97457 0.61854 0.44875 0.0
H1375 H 0.03482 0.84226 0.26288 0.0
loop_
_geom_bond_atom_site_label_1
_geom_bond_atom_site_label_2
_geom_bond_distance
_geom_bond_site_symmetry_2
_ccdc_geom_bond_type
Fe0 O2 1.918 . S
Fe0 O5 1.997 . S
Fe0 O6 2.002 . S
Fe0 O11 1.976 . S
Fe0 O14 1.996 . S
Fe1 O2 1.918 . S
Fe1 O9 1.997 . S
Fe1 O12 1.996 . S
Fe1 O16 1.976 . S
Fe1 O19 2.002 . S
O2 Fe0 1.918 . S
O2 Fe1 1.918 . S
O2 Fe3 1.918 . S
Fe3 O2 1.918 . S
Fe3 O4 2.002 . S
Fe3 O13 1.976 . S
Fe3 O17 1.996 . S
Fe3 O20 1.997 . S
O4 Fe3 2.002 . S
O4 C21 1.295 . S
O5 Fe0 1.997 . S
O5 C21 1.235 . S
O6 Fe0 2.002 . S
O6 C7 1.295 . S
C7 O6 1.295 . S
C7 O9 1.235 . S
C8 O13 1.287 . S
C8 O14 1.255 . S
O9 Fe1 1.997 . S
O9 C7 1.235 . S
C10 O16 1.287 . S
C10 O17 1.255 . S
O11 Fe0 1.976 . S
O11 C18 1.287 . S
O12 Fe1 1.996 . S
O12 C18 1.255 . S
O13 Fe3 1.976 . S
O13 C8 1.287 . S
O14 Fe0 1.996 . S
O14 C8 1.255 . S
C15 O19 1.295 . S
C15 O20 1.235 . S
O16 Fe1 1.976 . S
O16 C10 1.287 . S
O17 Fe3 1.996 . S
O17 C10 1.255 . S
C18 O11 1.287 . S
C18 O12 1.255 . S
O19 Fe1 2.002 . S
O19 C15 1.295 . S
O20 Fe3 1.997 . S
O20 C15 1.235 . S
C21 O4 1.295 . S
C21 O5 1.235 . S
Fe22 O24 1.918 . S
Fe22 O27 1.997 . S
Fe22 O28 2.002 . S
Fe22 O33 1.976 . S
Fe22 O36 1.996 . S
Fe23 O24 1.918 . S
Fe23 O31 1.997 . S
Fe23 O34 1.996 . S
Fe23 O38 1.976 . S
Fe23 O41 2.002 . S
O24 Fe22 1.918 . S
O24 Fe23 1.918 . S
O24 Fe25 1.918 . S
Fe25 O24 1.918 . S
Fe25 O26 2.002 . S
Fe25 O35 1.976 . S
Fe25 O39 1.996 . S
Fe25 O42 1.997 . S
O26 Fe25 2.002 . S
O26 C43 1.295 . S
O27 Fe22 1.997 . S
O27 C43 1.235 . S
O28 Fe22 2.002 . S
O28 C29 1.295 . S
C29 O28 1.295 . S
C29 O31 1.235 . S
C30 O35 1.287 . S
C30 O36 1.255 . S
O31 Fe23 1.997 . S
O31 C29 1.235 . S
C32 O38 1.287 . S
C32 O39 1.255 . S
O33 Fe22 1.976 . S
O33 C40 1.287 . S
O34 Fe23 1.996 . S
O34 C40 1.255 . S
O35 Fe25 1.976 . S
O35 C30 1.287 . S
O36 Fe22 1.996 . S
O36 C30 1.255 . S
C37 O41 1.295 . S
C37 O42 1.235 . S
O38 Fe23 1.976 . S
O38 C32 1.287 . S
O39 Fe25 1.996 . S
O39 C32 1.255 . S
C40 O33 1.287 . S
C40 O34 1.255 . S
O41 Fe23 2.002 . S
O41 C37 1.295 . S
O42 Fe25 1.997 . S
O42 C37 1.235 . S
C43 O26 1.295 . S
C43 O27 1.235 . S
Fe44 O46 1.918 . S
Fe44 O49 1.997 . S
Fe44 O50 2.002 . S
Fe44 O55 1.976 . S
Fe44 O58 1.996 . S
Fe45 O46 1.918 . S
Fe45 O53 1.997 . S
Fe45 O56 1.996 . S
Fe45 O60 1.976 . S
Fe45 O63 2.002 . S
O46 Fe44 1.918 . S
O46 Fe45 1.918 . S
O46 Fe47 1.918 . S
Fe47 O46 1.918 . S
Fe47 O48 2.002 . S
Fe47 O57 1.976 . S
Fe47 O61 1.996 . S
Fe47 O64 1.997 . S
O48 Fe47 2.002 . S
O48 C65 1.295 . S
O49 Fe44 1.997 . S
O49 C65 1.235 . S
O50 Fe44 2.002 . S
O50 C51 1.295 . S
C51 O50 1.295 . S
C51 O53 1.235 . S
C52 O57 1.287 . S
C52 O58 1.255 . S
O53 Fe45 1.997 . S
O53 C51 1.235 . S
C54 O60 1.287 . S
C54 O61 1.255 . S
O55 Fe44 1.976 . S
O55 C62 1.287 . S
O56 Fe45 1.996 . S
O56 C62 1.255 . S
O57 Fe47 1.976 . S
O57 C52 1.287 . S
O58 Fe44 1.996 . S
O58 C52 1.255 . S
C59 O63 1.295 . S
C59 O64 1.235 . S
O60 Fe45 1.976 . S
O60 C54 1.287 . S
O61 Fe47 1.996 . S
O61 C54 1.255 . S
C62 O55 1.287 . S
C62 O56 1.255 . S
O63 Fe45 2.002 . S
O63 C59 1.295 . S
O64 Fe47 1.997 . S
O64 C59 1.235 . S
C65 O48 1.295 . S
C65 O49 1.235 . S
Fe66 O68 1.918 . S
Fe66 O71 1.997 . S
Fe66 O72 2.002 . S
Fe66 O77 1.976 . S
Fe66 O80 1.996 . S
Fe67 O68 1.918 . S
Fe67 O75 1.997 . S
Fe67 O78 1.996 . S
Fe67 O82 1.976 . S
Fe67 O85 2.002 . S
O68 Fe66 1.918 . S
O68 Fe67 1.918 . S
O68 Fe69 1.918 . S
Fe69 O68 1.918 . S
Fe69 O70 2.002 . S
Fe69 O79 1.976 . S
Fe69 O83 1.996 . S
Fe69 O86 1.997 . S
O70 Fe69 2.002 . S
O70 C87 1.295 . S
O71 Fe66 1.997 . S
O71 C87 1.235 . S
O72 Fe66 2.002 . S
O72 C73 1.295 . S
C73 O72 1.295 . S
C73 O75 1.235 . S
C74 O79 1.287 . S
C74 O80 1.255 . S
O75 Fe67 1.997 . S
O75 C73 1.235 . S
C76 O82 1.287 . S
C76 O83 1.255 . S
O77 Fe66 1.976 . S
O77 C84 1.287 . S
O78 Fe67 1.996 . S
O78 C84 1.255 . S
O79 Fe69 1.976 . S
O79 C74 1.287 . S
O80 Fe66 1.996 . S
O80 C74 1.255 . S
C81 O85 1.295 . S
C81 O86 1.235 . S
O82 Fe67 1.976 . S
O82 C76 1.287 . S
O83 Fe69 1.996 . S
O83 C76 1.255 . S
C84 O77 1.287 . S
C84 O78 1.255 . S
O85 Fe67 2.002 . S
O85 C81 1.295 . S
O86 Fe69 1.997 . S
O86 C81 1.235 . S
C87 O70 1.295 . S
C87 O71 1.235 . S
Fe88 O90 1.918 . S
Fe88 O93 1.997 . S
Fe88 O94 2.002 . S
Fe88 O99 1.976 . S
Fe88 O102 1.996 . S
Fe89 O90 1.918 . S
Fe89 O97 1.997 . S
Fe89 O100 1.996 . S
Fe89 O104 1.976 . S
Fe89 O107 2.002 . S
O90 Fe88 1.918 . S
O90 Fe89 1.918 . S
O90 Fe91 1.918 . S
Fe91 O90 1.918 . S
Fe91 O92 2.002 . S
Fe91 O101 1.976 . S
Fe91 O105 1.996 . S
Fe91 O108 1.997 . S
O92 Fe91 2.002 . S
O92 C109 1.295 . S
O93 Fe88 1.997 . S
O93 C109 1.235 . S
O94 Fe88 2.002 . S
O94 C95 1.295 . S
C95 O94 1.295 . S
C95 O97 1.235 . S
C96 O101 1.287 . S
C96 O102 1.255 . S
O97 Fe89 1.997 . S
O97 C95 1.235 . S
C98 O104 1.287 . S
C98 O105 1.255 . S
O99 Fe88 1.976 . S
O99 C106 1.287 . S
O100 Fe89 1.996 . S
O100 C106 1.255 . S
O101 Fe91 1.976 . S
O101 C96 1.287 . S
O102 Fe88 1.996 . S
O102 C96 1.255 . S
C103 O107 1.295 . S
C103 O108 1.235 . S
O104 Fe89 1.976 . S
O104 C98 1.287 . S
O105 Fe91 1.996 . S
O105 C98 1.255 . S
C106 O99 1.287 . S
C106 O100 1.255 . S
O107 Fe89 2.002 . S
O107 C103 1.295 . S
O108 Fe91 1.997 . S
O108 C103 1.235 . S
C109 O92 1.295 . S
C109 O93 1.235 . S
Fe110 O112 1.918 . S
Fe110 O115 1.997 . S
Fe110 O116 2.002 . S
Fe110 O121 1.976 . S
Fe110 O124 1.996 . S
Fe111 O112 1.918 . S
Fe111 O119 1.997 . S
Fe111 O122 1.996 . S
Fe111 O126 1.976 . S
Fe111 O129 2.002 . S
O112 Fe110 1.918 . S
O112 Fe111 1.918 . S
O112 Fe113 1.918 . S
Fe113 O112 1.918 . S
Fe113 O114 2.002 . S
Fe113 O123 1.976 . S
Fe113 O127 1.996 . S
Fe113 O130 1.997 . S
O114 Fe113 2.002 . S
O114 C131 1.295 . S
O115 Fe110 1.997 . S
O115 C131 1.235 . S
O116 Fe110 2.002 . S
O116 C117 1.295 . S
C117 O116 1.295 . S
C117 O119 1.235 . S
C118 O123 1.287 . S
C118 O124 1.255 . S
O119 Fe111 1.997 . S
O119 C117 1.235 . S
C120 O126 1.287 . S
C120 O127 1.255 . S
O121 Fe110 1.976 . S
O121 C128 1.287 . S
O122 Fe111 1.996 . S
O122 C128 1.255 . S
O123 Fe113 1.976 . S
O123 C118 1.287 . S
O124 Fe110 1.996 . S
O124 C118 1.255 . S
C125 O129 1.295 . S
C125 O130 1.235 . S
O126 Fe111 1.976 . S
O126 C120 1.287 . S
O127 Fe113 1.996 . S
O127 C120 1.255 . S
C128 O121 1.287 . S
C128 O122 1.255 . S
O129 Fe111 2.002 . S
O129 C125 1.295 . S
O130 Fe113 1.997 . S
O130 C125 1.235 . S
C131 O114 1.295 . S
C131 O115 1.235 . S
Fe132 O134 1.918 . S
Fe132 O137 1.997 . S
Fe132 O138 2.002 . S
Fe132 O143 1.976 . S
Fe132 O146 1.996 . S
Fe133 O134 1.918 . S
Fe133 O141 1.997 . S
Fe133 O144 1.996 . S
Fe133 O148 1.976 . S
Fe133 O151 2.002 . S
O134 Fe132 1.918 . S
O134 Fe133 1.918 . S
O134 Fe135 1.918 . S
Fe135 O134 1.918 . S
Fe135 O136 2.002 . S
Fe135 O145 1.976 . S
Fe135 O149 1.996 . S
Fe135 O152 1.997 . S
O136 Fe135 2.002 . S
O136 C153 1.295 . S
O137 Fe132 1.997 . S
O137 C153 1.235 . S
O138 Fe132 2.002 . S
O138 C139 1.295 . S
C139 O138 1.295 . S
C139 O141 1.235 . S
C140 O145 1.287 . S
C140 O146 1.255 . S
O141 Fe133 1.997 . S
O141 C139 1.235 . S
C142 O148 1.287 . S
C142 O149 1.255 . S
O143 Fe132 1.976 . S
O143 C150 1.287 . S
O144 Fe133 1.996 . S
O144 C150 1.255 . S
O145 Fe135 1.976 . S
O145 C140 1.287 . S
O146 Fe132 1.996 . S
O146 C140 1.255 . S
C147 O151 1.295 . S
C147 O152 1.235 . S
O148 Fe133 1.976 . S
O148 C142 1.287 . S
O149 Fe135 1.996 . S
O149 C142 1.255 . S
C150 O143 1.287 . S
C150 O144 1.255 . S
O151 Fe133 2.002 . S
O151 C147 1.295 . S
O152 Fe135 1.997 . S
O152 C147 1.235 . S
C153 O136 1.295 . S
C153 O137 1.235 . S
Fe154 O156 1.918 . S
Fe154 O159 1.997 . S
Fe154 O160 2.002 . S
Fe154 O165 1.976 . S
Fe154 O168 1.996 . S
Fe155 O156 1.918 . S
Fe155 O163 1.997 . S
Fe155 O166 1.996 . S
Fe155 O170 1.976 . S
Fe155 O173 2.002 . S
O156 Fe154 1.918 . S
O156 Fe155 1.918 . S
O156 Fe157 1.918 . S
Fe157 O156 1.918 . S
Fe157 O158 2.002 . S
Fe157 O167 1.976 . S
Fe157 O171 1.996 . S
Fe157 O174 1.997 . S
O158 Fe157 2.002 . S
O158 C175 1.295 . S
O159 Fe154 1.997 . S
O159 C175 1.235 . S
O160 Fe154 2.002 . S
O160 C161 1.295 . S
C161 O160 1.295 . S
C161 O163 1.235 . S
C162 O167 1.287 . S
C162 O168 1.255 . S
O163 Fe155 1.997 . S
O163 C161 1.235 . S
C164 O170 1.287 . S
C164 O171 1.255 . S
O165 Fe154 1.976 . S
O165 C172 1.287 . S
O166 Fe155 1.996 . S
O166 C172 1.255 . S
O167 Fe157 1.976 . S
O167 C162 1.287 . S
O168 Fe154 1.996 . S
O168 C162 1.255 . S
C169 O173 1.295 . S
C169 O174 1.235 . S
O170 Fe155 1.976 . S
O170 C164 1.287 . S
O171 Fe157 1.996 . S
O171 C164 1.255 . S
C172 O165 1.287 . S
C172 O166 1.255 . S
O173 Fe155 2.002 . S
O173 C169 1.295 . S
O174 Fe157 1.997 . S
O174 C169 1.235 . S
C175 O158 1.295 . S
C175 O159 1.235 . S
H176 C194 0.951 1_455 S
H177 C196 0.951 . S
H178 C198 0.950 . S
H179 C199 0.950 . S
H180 C201 0.950 . S
H181 C204 0.950 . S
H182 C205 0.950 . S
H183 C207 0.950 . S
H184 C208 0.950 1_655 S
H185 C209 0.951 1_565 S
H186 C211 0.951 . S
H187 C213 0.950 . S
H188 C214 0.950 . S
H189 C216 0.950 . S
H190 C219 0.950 . S
H191 C220 0.950 . S
H192 C222 0.950 . S
H193 C223 0.950 . S
C194 H176 0.951 1_655 S
C194 C195 1.366 . S
C194 C196 1.388 . S
C195 C194 1.366 . S
C195 C199 1.385 . S
C196 H177 0.951 . S
C196 C194 1.388 . S
C196 C197 1.366 . S
C197 C196 1.366 . S
C197 C198 1.414 . S
C197 C200 1.499 . S
C198 H178 0.950 . S
C198 C197 1.414 . S
C198 C199 1.374 . S
C199 H179 0.950 . S
C199 C195 1.385 . S
C199 C198 1.374 . S
C200 C197 1.499 . S
C200 C201 1.373 . S
C200 C202 1.389 . S
C201 H180 0.950 . S
C201 C200 1.373 . S
C201 C217 1.377 . S
C202 C200 1.389 . S
C202 C203 1.524 . S
C202 C216 1.377 . S
C203 C202 1.524 . S
C203 C204 1.397 . S
C203 C208 1.363 1_655 S
C204 H181 0.950 . S
C204 C203 1.397 . S
C204 C205 1.334 1_655 S
C205 H182 0.950 . S
C205 C204 1.334 1_455 S
C205 C206 1.287 . S
C206 C205 1.287 . S
C206 C207 1.524 . S
C206 H225 0.913 . S
C207 H183 0.950 . S
C207 C206 1.524 . S
C207 C208 1.415 . S
C208 H184 0.950 1_455 S
C208 C203 1.363 1_455 S
C208 C207 1.415 . S
C209 H185 0.951 1_545 S
C209 C210 1.366 . S
C209 C211 1.388 . S
C210 C209 1.366 . S
C210 C214 1.385 . S
C211 H186 0.951 . S
C211 C209 1.388 . S
C211 C212 1.366 . S
C212 C211 1.366 . S
C212 C213 1.414 . S
C212 C215 1.499 . S
C213 H187 0.950 . S
C213 C212 1.414 . S
C213 C214 1.374 . S
C214 H188 0.950 . S
C214 C210 1.385 . S
C214 C213 1.374 . S
C215 C212 1.499 . S
C215 C216 1.373 . S
C215 C217 1.389 . S
C216 H189 0.950 . S
C216 C202 1.377 . S
C216 C215 1.373 . S
C217 C201 1.377 . S
C217 C215 1.389 . S
C217 C218 1.524 . S
C218 C217 1.524 . S
C218 C219 1.397 . S
C218 C223 1.363 . S
C219 H190 0.950 . S
C219 C218 1.397 . S
C219 C220 1.334 . S
C220 H191 0.950 . S
C220 C219 1.334 . S
C220 C221 1.287 . S
C221 C220 1.287 . S
C221 C222 1.524 . S
C221 H224 0.999 . S
C222 H192 0.950 . S
C222 C221 1.524 . S
C222 C223 1.415 . S
C223 H193 0.950 . S
C223 C218 1.363 . S
C223 C222 1.415 . S
H224 C221 0.999 . S
H225 C206 0.913 . S
H226 C244 0.951 . S
H227 C246 0.951 . S
H228 C248 0.950 . S
H229 C249 0.950 . S
H230 C251 0.950 . S
H231 C254 0.950 . S
H232 C255 0.950 . S
H233 C257 0.950 . S
H234 C258 0.950 . S
H235 C259 0.951 . S
H236 C261 0.951 . S
H237 C263 0.950 . S
H238 C264 0.950 . S
H239 C266 0.950 . S
H240 C269 0.950 . S
H241 C270 0.950 . S
H242 C272 0.950 . S
H243 C273 0.950 . S
C244 H226 0.951 . S
C244 C245 1.366 . S
C244 C246 1.388 . S
C245 C244 1.366 . S
C245 C249 1.385 . S
C246 H227 0.951 . S
C246 C244 1.388 . S
C246 C247 1.366 . S
C247 C246 1.366 . S
C247 C248 1.414 . S
C247 C250 1.499 . S
C248 H228 0.950 . S
C248 C247 1.414 . S
C248 C249 1.374 . S
C249 H229 0.950 . S
C249 C245 1.385 . S
C249 C248 1.374 . S
C250 C247 1.499 . S
C250 C251 1.373 . S
C250 C252 1.389 . S
C251 H230 0.950 . S
C251 C250 1.373 . S
C251 C267 1.377 . S
C252 C250 1.389 . S
C252 C253 1.524 . S
C252 C266 1.377 . S
C253 C252 1.524 . S
C253 C254 1.397 . S
C253 C258 1.363 . S
C254 H231 0.950 . S
C254 C253 1.397 . S
C254 C255 1.334 . S
C255 H232 0.950 . S
C255 C254 1.334 . S
C255 C256 1.287 . S
C256 C255 1.287 . S
C256 C257 1.524 . S
C256 H275 0.913 . S
C257 H233 0.950 . S
C257 C256 1.524 . S
C257 C258 1.415 . S
C258 H234 0.950 . S
C258 C253 1.363 . S
C258 C257 1.415 . S
C259 H235 0.951 . S
C259 C260 1.366 . S
C259 C261 1.388 . S
C260 C259 1.366 . S
C260 C264 1.385 . S
C261 H236 0.951 . S
C261 C259 1.388 . S
C261 C262 1.366 . S
C262 C261 1.366 . S
C262 C263 1.414 . S
C262 C265 1.499 . S
C263 H237 0.950 . S
C263 C262 1.414 . S
C263 C264 1.374 . S
C264 H238 0.950 . S
C264 C260 1.385 . S
C264 C263 1.374 . S
C265 C262 1.499 . S
C265 C266 1.373 . S
C265 C267 1.389 . S
C266 H239 0.950 . S
C266 C252 1.377 . S
C266 C265 1.373 . S
C267 C251 1.377 . S
C267 C265 1.389 . S
C267 C268 1.524 . S
C268 C267 1.524 . S
C268 C269 1.397 . S
C268 C273 1.363 . S
C269 H240 0.950 . S
C269 C268 1.397 . S
C269 C270 1.334 . S
C270 H241 0.950 . S
C270 C269 1.334 . S
C270 C271 1.287 . S
C271 C270 1.287 . S
C271 C272 1.524 . S
C271 H274 0.999 . S
C272 H242 0.950 . S
C272 C271 1.524 . S
C272 C273 1.415 . S
C273 H243 0.950 . S
C273 C268 1.363 . S
C273 C272 1.415 . S
H274 C271 0.999 . S
H275 C256 0.913 . S
H276 C294 0.951 . S
H277 C296 0.951 . S
H278 C298 0.950 . S
H279 C299 0.950 . S
H280 C301 0.950 . S
H281 C304 0.950 . S
H282 C305 0.950 . S
H283 C307 0.950 . S
H284 C308 0.950 . S
H285 C309 0.951 1_545 S
H286 C311 0.951 . S
H287 C313 0.950 . S
H288 C314 0.950 . S
H289 C316 0.950 . S
H290 C319 0.950 . S
H291 C320 0.950 . S
H292 C322 0.950 . S
H293 C323 0.950 1_565 S
C294 H276 0.951 . S
C294 C295 1.366 . S
C294 C296 1.388 . S
C295 C294 1.366 . S
C295 C299 1.385 1_455 S
C296 H277 0.951 . S
C296 C294 1.388 . S
C296 C297 1.366 . S
C297 C296 1.366 . S
C297 C298 1.414 . S
C297 C300 1.499 . S
C298 H278 0.950 . S
C298 C297 1.414 . S
C298 C299 1.374 1_455 S
C299 H279 0.950 . S
C299 C295 1.385 1_655 S
C299 C298 1.374 1_655 S
C300 C297 1.499 . S
C300 C301 1.373 . S
C300 C302 1.389 . S
C301 H280 0.950 . S
C301 C300 1.373 . S
C301 C317 1.377 . S
C302 C300 1.389 . S
C302 C303 1.524 . S
C302 C316 1.377 . S
C303 C302 1.524 . S
C303 C304 1.397 . S
C303 C308 1.363 . S
C304 H281 0.950 . S
C304 C303 1.397 . S
C304 C305 1.334 . S
C305 H282 0.950 . S
C305 C304 1.334 . S
C305 C306 1.287 . S
C306 C305 1.287 . S
C306 C307 1.524 . S
C306 H325 0.913 . S
C307 H283 0.950 . S
C307 C306 1.524 . S
C307 C308 1.415 . S
C308 H284 0.950 . S
C308 C303 1.363 . S
C308 C307 1.415 . S
C309 H285 0.951 1_565 S
C309 C310 1.366 . S
C309 C311 1.388 . S
C310 C309 1.366 . S
C310 C314 1.385 . S
C311 H286 0.951 . S
C311 C309 1.388 . S
C311 C312 1.366 . S
C312 C311 1.366 . S
C312 C313 1.414 . S
C312 C315 1.499 . S
C313 H287 0.950 . S
C313 C312 1.414 . S
C313 C314 1.374 . S
C314 H288 0.950 . S
C314 C310 1.385 . S
C314 C313 1.374 . S
C315 C312 1.499 . S
C315 C316 1.373 . S
C315 C317 1.389 . S
C316 H289 0.950 . S
C316 C302 1.377 . S
C316 C315 1.373 . S
C317 C301 1.377 . S
C317 C315 1.389 . S
C317 C318 1.524 . S
C318 C317 1.524 . S
C318 C319 1.397 . S
C318 C323 1.363 1_565 S
C319 H290 0.950 . S
C319 C318 1.397 . S
C319 C320 1.334 1_565 S
C320 H291 0.950 . S
C320 C319 1.334 1_545 S
C320 C321 1.287 . S
C321 C320 1.287 . S
C321 C322 1.524 . S
C321 H324 0.999 . S
C322 H292 0.950 . S
C322 C321 1.524 . S
C322 C323 1.415 . S
C323 H293 0.950 1_545 S
C323 C318 1.363 1_545 S
C323 C322 1.415 . S
H324 C321 0.999 . S
H325 C306 0.913 . S
H326 C344 0.951 . S
H327 C346 0.951 . S
H328 C348 0.950 . S
H329 C349 0.950 . S
H330 C351 0.950 . S
H331 C354 0.950 . S
H332 C355 0.950 . S
H333 C357 0.950 . S
H334 C358 0.950 . S
H335 C359 0.951 . S
H336 C361 0.951 . S
H337 C363 0.950 . S
H338 C364 0.950 . S
H339 C366 0.950 . S
H340 C369 0.950 . S
H341 C370 0.950 . S
H342 C372 0.950 . S
H343 C373 0.950 . S
C344 H326 0.951 . S
C344 C345 1.366 . S
C344 C346 1.388 . S
C345 C344 1.366 . S
C345 C349 1.385 . S
C346 H327 0.951 . S
C346 C344 1.388 . S
C346 C347 1.366 . S
C347 C346 1.366 . S
C347 C348 1.414 . S
C347 C350 1.499 . S
C348 H328 0.950 . S
C348 C347 1.414 . S
C348 C349 1.374 . S
C349 H329 0.950 . S
C349 C345 1.385 . S
C349 C348 1.374 . S
C350 C347 1.499 . S
C350 C351 1.373 1_554 S
C350 C352 1.389 . S
C351 H330 0.950 . S
C351 C350 1.373 1_556 S
C351 C367 1.377 . S
C352 C350 1.389 . S
C352 C353 1.524 . S
C352 C366 1.377 . S
C353 C352 1.524 . S
C353 C354 1.397 . S
C353 C358 1.363 . S
C354 H331 0.950 . S
C354 C353 1.397 . S
C354 C355 1.334 . S
C355 H332 0.950 . S
C355 C354 1.334 . S
C355 C356 1.287 . S
C356 C355 1.287 . S
C356 C357 1.524 . S
C356 H375 0.913 . S
C357 H333 0.950 . S
C357 C356 1.524 . S
C357 C358 1.415 . S
C358 H334 0.950 . S
C358 C353 1.363 . S
C358 C357 1.415 . S
C359 H335 0.951 . S
C359 C360 1.366 . S
C359 C361 1.388 . S
C360 C359 1.366 . S
C360 C364 1.385 . S
C361 H336 0.951 . S
C361 C359 1.388 . S
C361 C362 1.366 . S
C362 C361 1.366 . S
C362 C363 1.414 . S
C362 C365 1.499 . S
C363 H337 0.950 . S
C363 C362 1.414 . S
C363 C364 1.374 . S
C364 H338 0.950 . S
C364 C360 1.385 . S
C364 C363 1.374 . S
C365 C362 1.499 . S
C365 C366 1.373 1_556 S
C365 C367 1.389 . S
C366 H339 0.950 . S
C366 C352 1.377 . S
C366 C365 1.373 1_554 S
C367 C351 1.377 . S
C367 C365 1.389 . S
C367 C368 1.524 . S
C368 C367 1.524 . S
C368 C369 1.397 . S
C368 C373 1.363 . S
C369 H340 0.950 . S
C369 C368 1.397 . S
C369 C370 1.334 . S
C370 H341 0.950 . S
C370 C369 1.334 . S
C370 C371 1.287 . S
C371 C370 1.287 . S
C371 C372 1.524 . S
C371 H374 0.999 . S
C372 H342 0.950 . S
C372 C371 1.524 . S
C372 C373 1.415 . S
C373 H343 0.950 . S
C373 C368 1.363 . S
C373 C372 1.415 . S
H374 C371 0.999 . S
H375 C356 0.913 . S
H376 C394 0.951 . S
H377 C396 0.951 . S
H378 C398 0.950 . S
H379 C399 0.950 . S
H380 C401 0.950 . S
H381 C404 0.950 . S
H382 C405 0.950 . S
H383 C407 0.950 . S
H384 C408 0.950 . S
H385 C409 0.951 . S
H386 C411 0.951 . S
H387 C413 0.950 . S
H388 C414 0.950 . S
H389 C416 0.950 . S
H390 C419 0.950 . S
H391 C420 0.950 . S
H392 C422 0.950 . S
H393 C423 0.950 . S
C394 H376 0.951 . S
C394 C395 1.366 . S
C394 C396 1.388 . S
C395 C394 1.366 . S
C395 C399 1.385 . S
C396 H377 0.951 . S
C396 C394 1.388 . S
C396 C397 1.366 . S
C397 C396 1.366 . S
C397 C398 1.414 . S
C397 C400 1.499 . S
C398 H378 0.950 . S
C398 C397 1.414 . S
C398 C399 1.374 . S
C399 H379 0.950 . S
C399 C395 1.385 . S
C399 C398 1.374 . S
C400 C397 1.499 . S
C400 C401 1.373 . S
C400 C402 1.389 . S
C401 H380 0.950 . S
C401 C400 1.373 . S
C401 C417 1.377 . S
C402 C400 1.389 . S
C402 C403 1.524 . S
C402 C416 1.377 . S
C403 C402 1.524 . S
C403 C404 1.397 . S
C403 C408 1.363 . S
C404 H381 0.950 . S
C404 C403 1.397 . S
C404 C405 1.334 . S
C405 H382 0.950 . S
C405 C404 1.334 . S
C405 C406 1.287 . S
C406 C405 1.287 . S
C406 C407 1.524 . S
C406 H425 0.913 . S
C407 H383 0.950 . S
C407 C406 1.524 . S
C407 C408 1.415 . S
C408 H384 0.950 . S
C408 C403 1.363 . S
C408 C407 1.415 . S
C409 H385 0.951 . S
C409 C410 1.366 . S
C409 C411 1.388 . S
C410 C409 1.366 . S
C410 C414 1.385 . S
C411 H386 0.951 . S
C411 C409 1.388 . S
C411 C412 1.366 . S
C412 C411 1.366 . S
C412 C413 1.414 . S
C412 C415 1.499 . S
C413 H387 0.950 . S
C413 C412 1.414 . S
C413 C414 1.374 . S
C414 H388 0.950 . S
C414 C410 1.385 . S
C414 C413 1.374 . S
C415 C412 1.499 . S
C415 C416 1.373 . S
C415 C417 1.389 . S
C416 H389 0.950 . S
C416 C402 1.377 . S
C416 C415 1.373 . S
C417 C401 1.377 . S
C417 C415 1.389 . S
C417 C418 1.524 . S
C418 C417 1.524 . S
C418 C419 1.397 . S
C418 C423 1.363 . S
C419 H390 0.950 . S
C419 C418 1.397 . S
C419 C420 1.334 . S
C420 H391 0.950 . S
C420 C419 1.334 . S
C420 C421 1.287 . S
C421 C420 1.287 . S
C421 C422 1.524 . S
C421 H424 0.999 . S
C422 H392 0.950 . S
C422 C421 1.524 . S
C422 C423 1.415 . S
C423 H393 0.950 . S
C423 C418 1.363 . S
C423 C422 1.415 . S
H424 C421 0.999 . S
H425 C406 0.913 . S
H426 C444 0.951 . S
H427 C446 0.951 . S
H428 C448 0.950 . S
H429 C449 0.950 . S
H430 C451 0.950 . S
H431 C454 0.950 . S
H432 C455 0.950 . S
H433 C457 0.950 . S
H434 C458 0.950 . S
H435 C459 0.951 . S
H436 C461 0.951 . S
H437 C463 0.950 . S
H438 C464 0.950 . S
H439 C466 0.950 . S
H440 C469 0.950 . S
H441 C470 0.950 . S
H442 C472 0.950 . S
H443 C473 0.950 . S
C444 H426 0.951 . S
C444 C445 1.366 . S
C444 C446 1.388 . S
C445 C444 1.366 . S
C445 C449 1.385 . S
C446 H427 0.951 . S
C446 C444 1.388 . S
C446 C447 1.366 . S
C447 C446 1.366 . S
C447 C448 1.414 . S
C447 C450 1.499 . S
C448 H428 0.950 . S
C448 C447 1.414 . S
C448 C449 1.374 . S
C449 H429 0.950 . S
C449 C445 1.385 . S
C449 C448 1.374 . S
C450 C447 1.499 . S
C450 C451 1.373 . S
C450 C452 1.389 . S
C451 H430 0.950 . S
C451 C450 1.373 . S
C451 C467 1.377 . S
C452 C450 1.389 . S
C452 C453 1.524 . S
C452 C466 1.377 . S
C453 C452 1.524 . S
C453 C454 1.397 . S
C453 C458 1.363 . S
C454 H431 0.950 . S
C454 C453 1.397 . S
C454 C455 1.334 . S
C455 H432 0.950 . S
C455 C454 1.334 . S
C455 C456 1.287 . S
C456 C455 1.287 . S
C456 C457 1.524 . S
C456 H475 0.913 . S
C457 H433 0.950 . S
C457 C456 1.524 . S
C457 C458 1.415 . S
C458 H434 0.950 . S
C458 C453 1.363 . S
C458 C457 1.415 . S
C459 H435 0.951 . S
C459 C460 1.366 . S
C459 C461 1.388 . S
C460 C459 1.366 . S
C460 C464 1.385 . S
C461 H436 0.951 . S
C461 C459 1.388 . S
C461 C462 1.366 . S
C462 C461 1.366 . S
C462 C463 1.414 . S
C462 C465 1.499 . S
C463 H437 0.950 . S
C463 C462 1.414 . S
C463 C464 1.374 . S
C464 H438 0.950 . S
C464 C460 1.385 . S
C464 C463 1.374 . S
C465 C462 1.499 . S
C465 C466 1.373 . S
C465 C467 1.389 . S
C466 H439 0.950 . S
C466 C452 1.377 . S
C466 C465 1.373 . S
C467 C451 1.377 . S
C467 C465 1.389 . S
C467 C468 1.524 . S
C468 C467 1.524 . S
C468 C469 1.397 . S
C468 C473 1.363 . S
C469 H440 0.950 . S
C469 C468 1.397 . S
C469 C470 1.334 . S
C470 H441 0.950 . S
C470 C469 1.334 . S
C470 C471 1.287 . S
C471 C470 1.287 . S
C471 C472 1.524 . S
C471 H474 0.999 . S
C472 H442 0.950 . S
C472 C471 1.524 . S
C472 C473 1.415 . S
C473 H443 0.950 . S
C473 C468 1.363 . S
C473 C472 1.415 . S
H474 C471 0.999 . S
H475 C456 0.913 . S
H476 C494 0.951 . S
H477 C496 0.951 . S
H478 C498 0.950 . S
H479 C499 0.950 . S
H480 C501 0.950 . S
H481 C504 0.950 . S
H482 C505 0.950 . S
H483 C507 0.950 . S
H484 C508 0.950 . S
H485 C509 0.951 . S
H486 C511 0.951 . S
H487 C513 0.950 . S
H488 C514 0.950 . S
H489 C516 0.950 . S
H490 C519 0.950 . S
H491 C520 0.950 . S
H492 C522 0.950 . S
H493 C523 0.950 . S
C494 H476 0.951 . S
C494 C495 1.366 . S
C494 C496 1.388 . S
C495 C494 1.366 . S
C495 C499 1.385 . S
C496 H477 0.951 . S
C496 C494 1.388 . S
C496 C497 1.366 . S
C497 C496 1.366 . S
C497 C498 1.414 . S
C497 C500 1.499 . S
C498 H478 0.950 . S
C498 C497 1.414 . S
C498 C499 1.374 . S
C499 H479 0.950 . S
C499 C495 1.385 . S
C499 C498 1.374 . S
C500 C497 1.499 . S
C500 C501 1.373 . S
C500 C502 1.389 . S
C501 H480 0.950 . S
C501 C500 1.373 . S
C501 C517 1.377 . S
C502 C500 1.389 . S
C502 C503 1.524 . S
C502 C516 1.377 . S
C503 C502 1.524 . S
C503 C504 1.397 . S
C503 C508 1.363 . S
C504 H481 0.950 . S
C504 C503 1.397 . S
C504 C505 1.334 . S
C505 H482 0.950 . S
C505 C504 1.334 . S
C505 C506 1.287 . S
C506 C505 1.287 . S
C506 C507 1.524 . S
C506 H525 0.913 . S
C507 H483 0.950 . S
C507 C506 1.524 . S
C507 C508 1.415 . S
C508 H484 0.950 . S
C508 C503 1.363 . S
C508 C507 1.415 . S
C509 H485 0.951 . S
C509 C510 1.366 . S
C509 C511 1.388 . S
C510 C509 1.366 . S
C510 C514 1.385 . S
C511 H486 0.951 . S
C511 C509 1.388 . S
C511 C512 1.366 . S
C512 C511 1.366 . S
C512 C513 1.414 . S
C512 C515 1.499 . S
C513 H487 0.950 . S
C513 C512 1.414 . S
C513 C514 1.374 . S
C514 H488 0.950 . S
C514 C510 1.385 . S
C514 C513 1.374 . S
C515 C512 1.499 . S
C515 C516 1.373 . S
C515 C517 1.389 . S
C516 H489 0.950 . S
C516 C502 1.377 . S
C516 C515 1.373 . S
C517 C501 1.377 . S
C517 C515 1.389 . S
C517 C518 1.524 . S
C518 C517 1.524 . S
C518 C519 1.397 . S
C518 C523 1.363 . S
C519 H490 0.950 . S
C519 C518 1.397 . S
C519 C520 1.334 . S
C520 H491 0.950 . S
C520 C519 1.334 . S
C520 C521 1.287 . S
C521 C520 1.287 . S
C521 C522 1.524 . S
C521 H524 0.999 . S
C522 H492 0.950 . S
C522 C521 1.524 . S
C522 C523 1.415 . S
C523 H493 0.950 . S
C523 C518 1.363 . S
C523 C522 1.415 . S
H524 C521 0.999 . S
H525 C506 0.913 . S
H526 C544 0.951 . S
H527 C546 0.951 . S
H528 C548 0.950 . S
H529 C549 0.950 . S
H530 C551 0.950 . S
H531 C554 0.950 . S
H532 C555 0.950 . S
H533 C557 0.950 . S
H534 C558 0.950 . S
H535 C559 0.951 . S
H536 C561 0.951 . S
H537 C563 0.950 1_554 S
H538 C564 0.950 . S
H539 C566 0.950 . S
H540 C569 0.950 . S
H541 C570 0.950 . S
H542 C572 0.950 . S
H543 C573 0.950 . S
C544 H526 0.951 . S
C544 C545 1.366 . S
C544 C546 1.388 . S
C545 C544 1.366 . S
C545 C549 1.385 1_655 S
C546 H527 0.951 . S
C546 C544 1.388 . S
C546 C547 1.366 . S
C547 C546 1.366 . S
C547 C548 1.414 . S
C547 C550 1.499 . S
C548 H528 0.950 . S
C548 C547 1.414 . S
C548 C549 1.374 1_655 S
C549 H529 0.950 . S
C549 C545 1.385 1_455 S
C549 C548 1.374 1_455 S
C550 C547 1.499 . S
C550 C551 1.373 . S
C550 C552 1.389 . S
C551 H530 0.950 . S
C551 C550 1.373 . S
C551 C567 1.377 . S
C552 C550 1.389 . S
C552 C553 1.524 . S
C552 C566 1.377 . S
C553 C552 1.524 . S
C553 C554 1.397 . S
C553 C558 1.363 . S
C554 H531 0.950 . S
C554 C553 1.397 . S
C554 C555 1.334 . S
C555 H532 0.950 . S
C555 C554 1.334 . S
C555 C556 1.287 . S
C556 C555 1.287 . S
C556 C557 1.524 . S
C556 H575 0.913 . S
C557 H533 0.950 . S
C557 C556 1.524 . S
C557 C558 1.415 . S
C558 H534 0.950 . S
C558 C553 1.363 . S
C558 C557 1.415 . S
C559 H535 0.951 . S
C559 C560 1.366 . S
C559 C561 1.388 . S
C560 C559 1.366 . S
C560 C564 1.385 . S
C561 H536 0.951 . S
C561 C559 1.388 . S
C561 C562 1.366 . S
C562 C561 1.366 . S
C562 C563 1.414 . S
C562 C565 1.499 1_556 S
C563 H537 0.950 1_556 S
C563 C562 1.414 . S
C563 C564 1.374 . S
C564 H538 0.950 . S
C564 C560 1.385 . S
C564 C563 1.374 . S
C565 C562 1.499 1_554 S
C565 C566 1.373 . S
C565 C567 1.389 . S
C566 H539 0.950 . S
C566 C552 1.377 . S
C566 C565 1.373 . S
C567 C551 1.377 . S
C567 C565 1.389 . S
C567 C568 1.524 . S
C568 C567 1.524 . S
C568 C569 1.397 . S
C568 C573 1.363 . S
C569 H540 0.950 . S
C569 C568 1.397 . S
C569 C570 1.334 . S
C570 H541 0.950 . S
C570 C569 1.334 . S
C570 C571 1.287 . S
C571 C570 1.287 . S
C571 C572 1.524 . S
C571 H574 0.999 . S
C572 H542 0.950 . S
C572 C571 1.524 . S
C572 C573 1.415 . S
C573 H543 0.950 . S
C573 C568 1.363 . S
C573 C572 1.415 . S
H574 C571 0.999 . S
H575 C556 0.913 . S
H576 C594 0.951 . S
H577 C596 0.951 . S
H578 C598 0.950 . S
H579 C599 0.950 . S
H580 C601 0.950 . S
H581 C604 0.950 . S
H582 C605 0.950 . S
H583 C607 0.950 . S
H584 C608 0.950 . S
H585 C609 0.951 . S
H586 C611 0.951 . S
H587 C613 0.950 . S
H588 C614 0.950 . S
H589 C616 0.950 . S
H590 C619 0.950 . S
H591 C620 0.950 . S
H592 C622 0.950 . S
H593 C623 0.950 . S
C594 H576 0.951 . S
C594 C595 1.366 . S
C594 C596 1.388 . S
C595 C594 1.366 . S
C595 C599 1.385 . S
C596 H577 0.951 . S
C596 C594 1.388 . S
C596 C597 1.366 . S
C597 C596 1.366 . S
C597 C598 1.414 . S
C597 C600 1.499 . S
C598 H578 0.950 . S
C598 C597 1.414 . S
C598 C599 1.374 . S
C599 H579 0.950 . S
C599 C595 1.385 . S
C599 C598 1.374 . S
C600 C597 1.499 . S
C600 C601 1.373 . S
C600 C602 1.389 . S
C601 H580 0.950 . S
C601 C600 1.373 . S
C601 C617 1.377 . S
C602 C600 1.389 . S
C602 C603 1.524 . S
C602 C616 1.377 . S
C603 C602 1.524 . S
C603 C604 1.397 . S
C603 C608 1.363 . S
C604 H581 0.950 . S
C604 C603 1.397 . S
C604 C605 1.334 . S
C605 H582 0.950 . S
C605 C604 1.334 . S
C605 C606 1.287 . S
C606 C605 1.287 . S
C606 C607 1.524 . S
C606 H625 0.913 . S
C607 H583 0.950 . S
C607 C606 1.524 . S
C607 C608 1.415 . S
C608 H584 0.950 . S
C608 C603 1.363 . S
C608 C607 1.415 . S
C609 H585 0.951 . S
C609 C610 1.366 1_565 S
C609 C611 1.388 1_565 S
C610 C609 1.366 1_545 S
C610 C614 1.385 . S
C611 H586 0.951 . S
C611 C609 1.388 1_545 S
C611 C612 1.366 . S
C612 C611 1.366 . S
C612 C613 1.414 . S
C612 C615 1.499 . S
C613 H587 0.950 . S
C613 C612 1.414 . S
C613 C614 1.374 . S
C614 H588 0.950 . S
C614 C610 1.385 . S
C614 C613 1.374 . S
C615 C612 1.499 . S
C615 C616 1.373 . S
C615 C617 1.389 . S
C616 H589 0.950 . S
C616 C602 1.377 . S
C616 C615 1.373 . S
C617 C601 1.377 . S
C617 C615 1.389 . S
C617 C618 1.524 . S
C618 C617 1.524 . S
C618 C619 1.397 . S
C618 C623 1.363 . S
C619 H590 0.950 . S
C619 C618 1.397 . S
C619 C620 1.334 . S
C620 H591 0.950 . S
C620 C619 1.334 . S
C620 C621 1.287 . S
C621 C620 1.287 . S
C621 C622 1.524 . S
C621 H624 0.999 . S
C622 H592 0.950 . S
C622 C621 1.524 . S
C622 C623 1.415 . S
C623 H593 0.950 . S
C623 C618 1.363 . S
C623 C622 1.415 . S
H624 C621 0.999 . S
H625 C606 0.913 . S
H626 C644 0.951 . S
H627 C646 0.951 . S
H628 C648 0.950 . S
H629 C649 0.950 . S
H630 C651 0.950 . S
H631 C654 0.950 . S
H632 C655 0.950 . S
H633 C657 0.950 . S
H634 C658 0.950 . S
H635 C659 0.951 . S
H636 C661 0.951 . S
H637 C663 0.950 . S
H638 C664 0.950 . S
H639 C666 0.950 . S
H640 C669 0.950 . S
H641 C670 0.950 . S
H642 C672 0.950 . S
H643 C673 0.950 . S
C644 H626 0.951 . S
C644 C645 1.366 . S
C644 C646 1.388 . S
C645 C644 1.366 . S
C645 C649 1.385 . S
C646 H627 0.951 . S
C646 C644 1.388 . S
C646 C647 1.366 . S
C647 C646 1.366 . S
C647 C648 1.414 . S
C647 C650 1.499 . S
C648 H628 0.950 . S
C648 C647 1.414 . S
C648 C649 1.374 . S
C649 H629 0.950 . S
C649 C645 1.385 . S
C649 C648 1.374 . S
C650 C647 1.499 . S
C650 C651 1.373 . S
C650 C652 1.389 . S
C651 H630 0.950 . S
C651 C650 1.373 . S
C651 C667 1.377 . S
C652 C650 1.389 . S
C652 C653 1.524 . S
C652 C666 1.377 . S
C653 C652 1.524 . S
C653 C654 1.397 . S
C653 C658 1.363 . S
C654 H631 0.950 . S
C654 C653 1.397 . S
C654 C655 1.334 . S
C655 H632 0.950 . S
C655 C654 1.334 . S
C655 C656 1.287 . S
C656 C655 1.287 . S
C656 C657 1.524 . S
C656 H675 0.913 . S
C657 H633 0.950 . S
C657 C656 1.524 . S
C657 C658 1.415 . S
C658 H634 0.950 . S
C658 C653 1.363 . S
C658 C657 1.415 . S
C659 H635 0.951 . S
C659 C660 1.366 . S
C659 C661 1.388 . S
C660 C659 1.366 . S
C660 C664 1.385 . S
C661 H636 0.951 . S
C661 C659 1.388 . S
C661 C662 1.366 . S
C662 C661 1.366 . S
C662 C663 1.414 . S
C662 C665 1.499 . S
C663 H637 0.950 . S
C663 C662 1.414 . S
C663 C664 1.374 . S
C664 H638 0.950 . S
C664 C660 1.385 . S
C664 C663 1.374 . S
C665 C662 1.499 . S
C665 C666 1.373 . S
C665 C667 1.389 . S
C666 H639 0.950 . S
C666 C652 1.377 . S
C666 C665 1.373 . S
C667 C651 1.377 . S
C667 C665 1.389 . S
C667 C668 1.524 . S
C668 C667 1.524 . S
C668 C669 1.397 . S
C668 C673 1.363 . S
C669 H640 0.950 . S
C669 C668 1.397 . S
C669 C670 1.334 . S
C670 H641 0.950 . S
C670 C669 1.334 . S
C670 C671 1.287 . S
C671 C670 1.287 . S
C671 C672 1.524 . S
C671 H674 0.999 . S
C672 H642 0.950 . S
C672 C671 1.524 . S
C672 C673 1.415 . S
C673 H643 0.950 . S
C673 C668 1.363 . S
C673 C672 1.415 . S
H674 C671 0.999 . S
H675 C656 0.913 . S
H676 C694 0.951 . S
H677 C696 0.951 . S
H678 C698 0.950 1_556 S
H679 C699 0.950 . S
H680 C701 0.950 . S
H681 C704 0.950 . S
H682 C705 0.950 . S
H683 C707 0.950 . S
H684 C708 0.950 . S
H685 C709 0.951 . S
H686 C711 0.951 . S
H687 C713 0.950 . S
H688 C714 0.950 . S
H689 C716 0.950 . S
H690 C719 0.950 . S
H691 C720 0.950 . S
H692 C722 0.950 . S
H693 C723 0.950 . S
C694 H676 0.951 . S
C694 C695 1.366 . S
C694 C696 1.388 . S
C695 C694 1.366 . S
C695 C699 1.385 . S
C696 H677 0.951 . S
C696 C694 1.388 . S
C696 C697 1.366 . S
C697 C696 1.366 . S
C697 C698 1.414 . S
C697 C700 1.499 1_554 S
C698 H678 0.950 1_554 S
C698 C697 1.414 . S
C698 C699 1.374 . S
C699 H679 0.950 . S
C699 C695 1.385 . S
C699 C698 1.374 . S
C700 C697 1.499 1_556 S
C700 C701 1.373 . S
C700 C702 1.389 . S
C701 H680 0.950 . S
C701 C700 1.373 . S
C701 C717 1.377 . S
C702 C700 1.389 . S
C702 C703 1.524 1_556 S
C702 C716 1.377 . S
C703 C702 1.524 1_554 S
C703 C704 1.397 . S
C703 C708 1.363 . S
C704 H681 0.950 . S
C704 C703 1.397 . S
C704 C705 1.334 . S
C705 H682 0.950 . S
C705 C704 1.334 . S
C705 C706 1.287 . S
C706 C705 1.287 . S
C706 C707 1.524 . S
C706 H725 0.913 . S
C707 H683 0.950 . S
C707 C706 1.524 . S
C707 C708 1.415 . S
C708 H684 0.950 . S
C708 C703 1.363 . S
C708 C707 1.415 . S
C709 H685 0.951 . S
C709 C710 1.366 . S
C709 C711 1.388 . S
C710 C709 1.366 . S
C710 C714 1.385 1_565 S
C711 H686 0.951 . S
C711 C709 1.388 . S
C711 C712 1.366 . S
C712 C711 1.366 . S
C712 C713 1.414 . S
C712 C715 1.499 . S
C713 H687 0.950 . S
C713 C712 1.414 . S
C713 C714 1.374 1_565 S
C714 H688 0.950 . S
C714 C710 1.385 1_545 S
C714 C713 1.374 1_545 S
C715 C712 1.499 . S
C715 C716 1.373 . S
C715 C717 1.389 . S
C716 H689 0.950 . S
C716 C702 1.377 . S
C716 C715 1.373 . S
C717 C701 1.377 . S
C717 C715 1.389 . S
C717 C718 1.524 . S
C718 C717 1.524 . S
C718 C719 1.397 . S
C718 C723 1.363 . S
C719 H690 0.950 . S
C719 C718 1.397 . S
C719 C720 1.334 . S
C720 H691 0.950 . S
C720 C719 1.334 . S
C720 C721 1.287 . S
C721 C720 1.287 . S
C721 C722 1.524 . S
C721 H724 0.999 . S
C722 H692 0.950 . S
C722 C721 1.524 . S
C722 C723 1.415 . S
C723 H693 0.950 . S
C723 C718 1.363 . S
C723 C722 1.415 . S
H724 C721 0.999 . S
H725 C706 0.913 . S
H726 C744 0.951 . S
H727 C746 0.951 . S
H728 C748 0.950 . S
H729 C749 0.950 . S
H730 C751 0.950 . S
H731 C754 0.950 . S
H732 C755 0.950 . S
H733 C757 0.950 . S
H734 C758 0.950 . S
H735 C759 0.951 . S
H736 C761 0.951 . S
H737 C763 0.950 . S
H738 C764 0.950 . S
H739 C766 0.950 . S
H740 C769 0.950 . S
H741 C770 0.950 . S
H742 C772 0.950 . S
H743 C773 0.950 . S
C744 H726 0.951 . S
C744 C745 1.366 . S
C744 C746 1.388 . S
C745 C744 1.366 . S
C745 C749 1.385 . S
C746 H727 0.951 . S
C746 C744 1.388 . S
C746 C747 1.366 . S
C747 C746 1.366 . S
C747 C748 1.414 . S
C747 C750 1.499 . S
C748 H728 0.950 . S
C748 C747 1.414 . S
C748 C749 1.374 . S
C749 H729 0.950 . S
C749 C745 1.385 . S
C749 C748 1.374 . S
C750 C747 1.499 . S
C750 C751 1.373 . S
C750 C752 1.389 . S
C751 H730 0.950 . S
C751 C750 1.373 . S
C751 C767 1.377 . S
C752 C750 1.389 . S
C752 C753 1.524 . S
C752 C766 1.377 . S
C753 C752 1.524 . S
C753 C754 1.397 . S
C753 C758 1.363 . S
C754 H731 0.950 . S
C754 C753 1.397 . S
C754 C755 1.334 . S
C755 H732 0.950 . S
C755 C754 1.334 . S
C755 C756 1.287 . S
C756 C755 1.287 . S
C756 C757 1.524 . S
C756 H775 0.913 . S
C757 H733 0.950 . S
C757 C756 1.524 . S
C757 C758 1.415 . S
C758 H734 0.950 . S
C758 C753 1.363 . S
C758 C757 1.415 . S
C759 H735 0.951 . S
C759 C760 1.366 . S
C759 C761 1.388 . S
C760 C759 1.366 . S
C760 C764 1.385 . S
C761 H736 0.951 . S
C761 C759 1.388 . S
C761 C762 1.366 . S
C762 C761 1.366 . S
C762 C763 1.414 . S
C762 C765 1.499 . S
C763 H737 0.950 . S
C763 C762 1.414 . S
C763 C764 1.374 . S
C764 H738 0.950 . S
C764 C760 1.385 . S
C764 C763 1.374 . S
C765 C762 1.499 . S
C765 C766 1.373 . S
C765 C767 1.389 . S
C766 H739 0.950 . S
C766 C752 1.377 . S
C766 C765 1.373 . S
C767 C751 1.377 . S
C767 C765 1.389 . S
C767 C768 1.524 . S
C768 C767 1.524 . S
C768 C769 1.397 . S
C768 C773 1.363 . S
C769 H740 0.950 . S
C769 C768 1.397 . S
C769 C770 1.334 . S
C770 H741 0.950 . S
C770 C769 1.334 . S
C770 C771 1.287 . S
C771 C770 1.287 . S
C771 C772 1.524 . S
C771 H774 0.999 . S
C772 H742 0.950 . S
C772 C771 1.524 . S
C772 C773 1.415 . S
C773 H743 0.950 . S
C773 C768 1.363 . S
C773 C772 1.415 . S
H774 C771 0.999 . S
H775 C756 0.913 . S
H776 C794 0.951 . S
H777 C796 0.951 . S
H778 C798 0.950 . S
H779 C799 0.950 . S
H780 C801 0.950 . S
H781 C804 0.950 . S
H782 C805 0.950 . S
H783 C807 0.950 . S
H784 C808 0.950 . S
H785 C809 0.951 . S
H786 C811 0.951 . S
H787 C813 0.950 . S
H788 C814 0.950 . S
H789 C816 0.950 . S
H790 C819 0.950 . S
H791 C820 0.950 . S
H792 C822 0.950 . S
H793 C823 0.950 . S
C794 H776 0.951 . S
C794 C795 1.366 . S
C794 C796 1.388 . S
C795 C794 1.366 . S
C795 C799 1.385 . S
C796 H777 0.951 . S
C796 C794 1.388 . S
C796 C797 1.366 . S
C797 C796 1.366 . S
C797 C798 1.414 . S
C797 C800 1.499 . S
C798 H778 0.950 . S
C798 C797 1.414 . S
C798 C799 1.374 . S
C799 H779 0.950 . S
C799 C795 1.385 . S
C799 C798 1.374 . S
C800 C797 1.499 . S
C800 C801 1.373 . S
C800 C802 1.389 . S
C801 H780 0.950 . S
C801 C800 1.373 . S
C801 C817 1.377 1_556 S
C802 C800 1.389 . S
C802 C803 1.524 . S
C802 C816 1.377 1_556 S
C803 C802 1.524 . S
C803 C804 1.397 . S
C803 C808 1.363 . S
C804 H781 0.950 . S
C804 C803 1.397 . S
C804 C805 1.334 . S
C805 H782 0.950 . S
C805 C804 1.334 . S
C805 C806 1.287 . S
C806 C805 1.287 . S
C806 C807 1.524 . S
C806 H825 0.913 . S
C807 H783 0.950 . S
C807 C806 1.524 . S
C807 C808 1.415 . S
C808 H784 0.950 . S
C808 C803 1.363 . S
C808 C807 1.415 . S
C809 H785 0.951 . S
C809 C810 1.366 . S
C809 C811 1.388 . S
C810 C809 1.366 . S
C810 C814 1.385 . S
C811 H786 0.951 . S
C811 C809 1.388 . S
C811 C812 1.366 . S
C812 C811 1.366 . S
C812 C813 1.414 . S
C812 C815 1.499 . S
C813 H787 0.950 . S
C813 C812 1.414 . S
C813 C814 1.374 . S
C814 H788 0.950 . S
C814 C810 1.385 . S
C814 C813 1.374 . S
C815 C812 1.499 . S
C815 C816 1.373 . S
C815 C817 1.389 . S
C816 H789 0.950 . S
C816 C802 1.377 1_554 S
C816 C815 1.373 . S
C817 C801 1.377 1_554 S
C817 C815 1.389 . S
C817 C818 1.524 . S
C818 C817 1.524 . S
C818 C819 1.397 . S
C818 C823 1.363 . S
C819 H790 0.950 . S
C819 C818 1.397 . S
C819 C820 1.334 . S
C820 H791 0.950 . S
C820 C819 1.334 . S
C820 C821 1.287 . S
C821 C820 1.287 . S
C821 C822 1.524 . S
C821 H824 0.999 . S
C822 H792 0.950 . S
C822 C821 1.524 . S
C822 C823 1.415 . S
C823 H793 0.950 . S
C823 C818 1.363 . S
C823 C822 1.415 . S
H824 C821 0.999 . S
H825 C806 0.913 . S
H826 C844 0.951 . S
H827 C846 0.951 . S
H828 C848 0.950 . S
H829 C849 0.950 . S
H830 C851 0.950 . S
H831 C854 0.950 . S
H832 C855 0.950 . S
H833 C857 0.950 . S
H834 C858 0.950 . S
H835 C859 0.951 . S
H836 C861 0.951 . S
H837 C863 0.950 . S
H838 C864 0.950 . S
H839 C866 0.950 . S
H840 C869 0.950 . S
H841 C870 0.950 . S
H842 C872 0.950 . S
H843 C873 0.950 . S
C844 H826 0.951 . S
C844 C845 1.366 . S
C844 C846 1.388 . S
C845 C844 1.366 . S
C845 C849 1.385 . S
C846 H827 0.951 . S
C846 C844 1.388 . S
C846 C847 1.366 . S
C847 C846 1.366 . S
C847 C848 1.414 . S
C847 C850 1.499 . S
C848 H828 0.950 . S
C848 C847 1.414 . S
C848 C849 1.374 . S
C849 H829 0.950 . S
C849 C845 1.385 . S
C849 C848 1.374 . S
C850 C847 1.499 . S
C850 C851 1.373 . S
C850 C852 1.389 . S
C851 H830 0.950 . S
C851 C850 1.373 . S
C851 C867 1.377 . S
C852 C850 1.389 . S
C852 C853 1.524 . S
C852 C866 1.377 . S
C853 C852 1.524 . S
C853 C854 1.397 . S
C853 C858 1.363 . S
C854 H831 0.950 . S
C854 C853 1.397 . S
C854 C855 1.334 . S
C855 H832 0.950 . S
C855 C854 1.334 . S
C855 C856 1.287 . S
C856 C855 1.287 . S
C856 C857 1.524 . S
C856 H875 0.913 . S
C857 H833 0.950 . S
C857 C856 1.524 . S
C857 C858 1.415 . S
C858 H834 0.950 . S
C858 C853 1.363 . S
C858 C857 1.415 . S
C859 H835 0.951 . S
C859 C860 1.366 . S
C859 C861 1.388 . S
C860 C859 1.366 . S
C860 C864 1.385 . S
C861 H836 0.951 . S
C861 C859 1.388 . S
C861 C862 1.366 . S
C862 C861 1.366 . S
C862 C863 1.414 . S
C862 C865 1.499 . S
C863 H837 0.950 . S
C863 C862 1.414 . S
C863 C864 1.374 . S
C864 H838 0.950 . S
C864 C860 1.385 . S
C864 C863 1.374 . S
C865 C862 1.499 . S
C865 C866 1.373 . S
C865 C867 1.389 . S
C866 H839 0.950 . S
C866 C852 1.377 . S
C866 C865 1.373 . S
C867 C851 1.377 . S
C867 C865 1.389 . S
C867 C868 1.524 . S
C868 C867 1.524 . S
C868 C869 1.397 . S
C868 C873 1.363 . S
C869 H840 0.950 . S
C869 C868 1.397 . S
C869 C870 1.334 . S
C870 H841 0.950 . S
C870 C869 1.334 . S
C870 C871 1.287 . S
C871 C870 1.287 . S
C871 C872 1.524 . S
C871 H874 0.999 . S
C872 H842 0.950 . S
C872 C871 1.524 . S
C872 C873 1.415 . S
C873 H843 0.950 . S
C873 C868 1.363 . S
C873 C872 1.415 . S
H874 C871 0.999 . S
H875 C856 0.913 . S
H876 C894 0.951 . S
H877 C896 0.951 . S
H878 C898 0.950 . S
H879 C899 0.950 . S
H880 C901 0.950 . S
H881 C904 0.950 . S
H882 C905 0.950 . S
H883 C907 0.950 . S
H884 C908 0.950 . S
H885 C909 0.951 . S
H886 C911 0.951 . S
H887 C913 0.950 . S
H888 C914 0.950 . S
H889 C916 0.950 . S
H890 C919 0.950 . S
H891 C920 0.950 . S
H892 C922 0.950 . S
H893 C923 0.950 . S
C894 H876 0.951 . S
C894 C895 1.366 . S
C894 C896 1.388 . S
C895 C894 1.366 . S
C895 C899 1.385 . S
C896 H877 0.951 . S
C896 C894 1.388 . S
C896 C897 1.366 . S
C897 C896 1.366 . S
C897 C898 1.414 . S
C897 C900 1.499 . S
C898 H878 0.950 . S
C898 C897 1.414 . S
C898 C899 1.374 . S
C899 H879 0.950 . S
C899 C895 1.385 . S
C899 C898 1.374 . S
C900 C897 1.499 . S
C900 C901 1.373 . S
C900 C902 1.389 . S
C901 H880 0.950 . S
C901 C900 1.373 . S
C901 C917 1.377 . S
C902 C900 1.389 . S
C902 C903 1.524 . S
C902 C916 1.377 . S
C903 C902 1.524 . S
C903 C904 1.397 . S
C903 C908 1.363 . S
C904 H881 0.950 . S
C904 C903 1.397 . S
C904 C905 1.334 . S
C905 H882 0.950 . S
C905 C904 1.334 . S
C905 C906 1.287 . S
C906 C905 1.287 . S
C906 C907 1.524 . S
C906 H925 0.913 . S
C907 H883 0.950 . S
C907 C906 1.524 . S
C907 C908 1.415 . S
C908 H884 0.950 . S
C908 C903 1.363 . S
C908 C907 1.415 . S
C909 H885 0.951 . S
C909 C910 1.366 . S
C909 C911 1.388 . S
C910 C909 1.366 . S
C910 C914 1.385 . S
C911 H886 0.951 . S
C911 C909 1.388 . S
C911 C912 1.366 . S
C912 C911 1.366 . S
C912 C913 1.414 . S
C912 C915 1.499 . S
C913 H887 0.950 . S
C913 C912 1.414 . S
C913 C914 1.374 . S
C914 H888 0.950 . S
C914 C910 1.385 . S
C914 C913 1.374 . S
C915 C912 1.499 . S
C915 C916 1.373 . S
C915 C917 1.389 . S
C916 H889 0.950 . S
C916 C902 1.377 . S
C916 C915 1.373 . S
C917 C901 1.377 . S
C917 C915 1.389 . S
C917 C918 1.524 . S
C918 C917 1.524 . S
C918 C919 1.397 . S
C918 C923 1.363 . S
C919 H890 0.950 . S
C919 C918 1.397 . S
C919 C920 1.334 . S
C920 H891 0.950 . S
C920 C919 1.334 . S
C920 C921 1.287 . S
C921 C920 1.287 . S
C921 C922 1.524 . S
C921 H924 0.999 . S
C922 H892 0.950 . S
C922 C921 1.524 . S
C922 C923 1.415 . S
C923 H893 0.950 . S
C923 C918 1.363 . S
C923 C922 1.415 . S
H924 C921 0.999 . S
H925 C906 0.913 . S
H926 C944 0.951 . S
H927 C946 0.951 . S
H928 C948 0.950 . S
H929 C949 0.950 . S
H930 C951 0.950 . S
H931 C954 0.950 . S
H932 C955 0.950 . S
H933 C957 0.950 . S
H934 C958 0.950 . S
H935 C959 0.951 . S
H936 C961 0.951 . S
H937 C963 0.950 . S
H938 C964 0.950 . S
H939 C966 0.950 . S
H940 C969 0.950 . S
H941 C970 0.950 . S
H942 C972 0.950 . S
H943 C973 0.950 . S
C944 H926 0.951 . S
C944 C945 1.366 . S
C944 C946 1.388 . S
C945 C944 1.366 . S
C945 C949 1.385 . S
C946 H927 0.951 . S
C946 C944 1.388 . S
C946 C947 1.366 . S
C947 C946 1.366 . S
C947 C948 1.414 . S
C947 C950 1.499 . S
C948 H928 0.950 . S
C948 C947 1.414 . S
C948 C949 1.374 . S
C949 H929 0.950 . S
C949 C945 1.385 . S
C949 C948 1.374 . S
C950 C947 1.499 . S
C950 C951 1.373 . S
C950 C952 1.389 . S
C951 H930 0.950 . S
C951 C950 1.373 . S
C951 C967 1.377 . S
C952 C950 1.389 . S
C952 C953 1.524 . S
C952 C966 1.377 . S
C953 C952 1.524 . S
C953 C954 1.397 . S
C953 C958 1.363 . S
C954 H931 0.950 . S
C954 C953 1.397 . S
C954 C955 1.334 . S
C955 H932 0.950 . S
C955 C954 1.334 . S
C955 C956 1.287 . S
C956 C955 1.287 . S
C956 C957 1.524 . S
C956 H975 0.913 . S
C957 H933 0.950 . S
C957 C956 1.524 . S
C957 C958 1.415 . S
C958 H934 0.950 . S
C958 C953 1.363 . S
C958 C957 1.415 . S
C959 H935 0.951 . S
C959 C960 1.366 . S
C959 C961 1.388 . S
C960 C959 1.366 . S
C960 C964 1.385 . S
C961 H936 0.951 . S
C961 C959 1.388 . S
C961 C962 1.366 . S
C962 C961 1.366 . S
C962 C963 1.414 . S
C962 C965 1.499 . S
C963 H937 0.950 . S
C963 C962 1.414 . S
C963 C964 1.374 . S
C964 H938 0.950 . S
C964 C960 1.385 . S
C964 C963 1.374 . S
C965 C962 1.499 . S
C965 C966 1.373 . S
C965 C967 1.389 . S
C966 H939 0.950 . S
C966 C952 1.377 . S
C966 C965 1.373 . S
C967 C951 1.377 . S
C967 C965 1.389 . S
C967 C968 1.524 . S
C968 C967 1.524 . S
C968 C969 1.397 . S
C968 C973 1.363 . S
C969 H940 0.950 . S
C969 C968 1.397 . S
C969 C970 1.334 . S
C970 H941 0.950 . S
C970 C969 1.334 . S
C970 C971 1.287 . S
C971 C970 1.287 . S
C971 C972 1.524 . S
C971 H974 0.999 . S
C972 H942 0.950 . S
C972 C971 1.524 . S
C972 C973 1.415 . S
C973 H943 0.950 . S
C973 C968 1.363 . S
C973 C972 1.415 . S
H974 C971 0.999 . S
H975 C956 0.913 . S
H976 C994 0.951 . S
H977 C996 0.951 . S
H978 C998 0.950 . S
H979 C999 0.950 . S
H980 C1001 0.950 . S
H981 C1004 0.950 . S
H982 C1005 0.950 1_545 S
H983 C1007 0.950 . S
H984 C1008 0.950 . S
H985 C1009 0.951 . S
H986 C1011 0.951 . S
H987 C1013 0.950 . S
H988 C1014 0.950 . S
H989 C1016 0.950 . S
H990 C1019 0.950 . S
H991 C1020 0.950 . S
H992 C1022 0.950 . S
H993 C1023 0.950 . S
C994 H976 0.951 . S
C994 C995 1.366 . S
C994 C996 1.388 . S
C995 C994 1.366 . S
C995 C999 1.385 . S
C996 H977 0.951 . S
C996 C994 1.388 . S
C996 C997 1.366 . S
C997 C996 1.366 . S
C997 C998 1.414 . S
C997 C1000 1.499 . S
C998 H978 0.950 . S
C998 C997 1.414 . S
C998 C999 1.374 . S
C999 H979 0.950 . S
C999 C995 1.385 . S
C999 C998 1.374 . S
C1000 C997 1.499 . S
C1000 C1001 1.373 . S
C1000 C1002 1.389 1_545 S
C1001 H980 0.950 . S
C1001 C1000 1.373 . S
C1001 C1017 1.377 . S
C1002 C1000 1.389 1_565 S
C1002 C1003 1.524 . S
C1002 C1016 1.377 . S
C1003 C1002 1.524 . S
C1003 C1004 1.397 1_565 S
C1003 C1008 1.363 . S
C1004 H981 0.950 . S
C1004 C1003 1.397 1_545 S
C1004 C1005 1.334 1_545 S
C1005 H982 0.950 1_565 S
C1005 C1004 1.334 1_565 S
C1005 C1006 1.287 . S
C1006 C1005 1.287 . S
C1006 C1007 1.524 . S
C1006 H1025 0.913 . S
C1007 H983 0.950 . S
C1007 C1006 1.524 . S
C1007 C1008 1.415 . S
C1008 H984 0.950 . S
C1008 C1003 1.363 . S
C1008 C1007 1.415 . S
C1009 H985 0.951 . S
C1009 C1010 1.366 . S
C1009 C1011 1.388 . S
C1010 C1009 1.366 . S
C1010 C1014 1.385 . S
C1011 H986 0.951 . S
C1011 C1009 1.388 . S
C1011 C1012 1.366 . S
C1012 C1011 1.366 . S
C1012 C1013 1.414 . S
C1012 C1015 1.499 . S
C1013 H987 0.950 . S
C1013 C1012 1.414 . S
C1013 C1014 1.374 . S
C1014 H988 0.950 . S
C1014 C1010 1.385 . S
C1014 C1013 1.374 . S
C1015 C1012 1.499 . S
C1015 C1016 1.373 . S
C1015 C1017 1.389 1_565 S
C1016 H989 0.950 . S
C1016 C1002 1.377 . S
C1016 C1015 1.373 . S
C1017 C1001 1.377 . S
C1017 C1015 1.389 1_545 S
C1017 C1018 1.524 . S
C1018 C1017 1.524 . S
C1018 C1019 1.397 1_545 S
C1018 C1023 1.363 . S
C1019 H990 0.950 . S
C1019 C1018 1.397 1_565 S
C1019 C1020 1.334 . S
C1020 H991 0.950 . S
C1020 C1019 1.334 . S
C1020 C1021 1.287 1_565 S
C1021 C1020 1.287 1_545 S
C1021 C1022 1.524 . S
C1021 H1024 0.999 . S
C1022 H992 0.950 . S
C1022 C1021 1.524 . S
C1022 C1023 1.415 . S
C1023 H993 0.950 . S
C1023 C1018 1.363 . S
C1023 C1022 1.415 . S
H1024 C1021 0.999 . S
H1025 C1006 0.913 . S
H1026 C1044 0.951 . S
H1027 C1046 0.951 . S
H1028 C1048 0.950 . S
H1029 C1049 0.950 . S
H1030 C1051 0.950 . S
H1031 C1054 0.950 . S
H1032 C1055 0.950 . S
H1033 C1057 0.950 . S
H1034 C1058 0.950 . S
H1035 C1059 0.951 . S
H1036 C1061 0.951 . S
H1037 C1063 0.950 . S
H1038 C1064 0.950 . S
H1039 C1066 0.950 . S
H1040 C1069 0.950 . S
H1041 C1070 0.950 . S
H1042 C1072 0.950 . S
H1043 C1073 0.950 . S
C1044 H1026 0.951 . S
C1044 C1045 1.366 . S
C1044 C1046 1.388 . S
C1045 C1044 1.366 . S
C1045 C1049 1.385 . S
C1046 H1027 0.951 . S
C1046 C1044 1.388 . S
C1046 C1047 1.366 . S
C1047 C1046 1.366 . S
C1047 C1048 1.414 . S
C1047 C1050 1.499 . S
C1048 H1028 0.950 . S
C1048 C1047 1.414 . S
C1048 C1049 1.374 . S
C1049 H1029 0.950 . S
C1049 C1045 1.385 . S
C1049 C1048 1.374 . S
C1050 C1047 1.499 . S
C1050 C1051 1.373 . S
C1050 C1052 1.389 . S
C1051 H1030 0.950 . S
C1051 C1050 1.373 . S
C1051 C1067 1.377 . S
C1052 C1050 1.389 . S
C1052 C1053 1.524 . S
C1052 C1066 1.377 . S
C1053 C1052 1.524 . S
C1053 C1054 1.397 . S
C1053 C1058 1.363 . S
C1054 H1031 0.950 . S
C1054 C1053 1.397 . S
C1054 C1055 1.334 . S
C1055 H1032 0.950 . S
C1055 C1054 1.334 . S
C1055 C1056 1.287 . S
C1056 C1055 1.287 . S
C1056 C1057 1.524 . S
C1056 H1075 0.913 . S
C1057 H1033 0.950 . S
C1057 C1056 1.524 . S
C1057 C1058 1.415 . S
C1058 H1034 0.950 . S
C1058 C1053 1.363 . S
C1058 C1057 1.415 . S
C1059 H1035 0.951 . S
C1059 C1060 1.366 . S
C1059 C1061 1.388 . S
C1060 C1059 1.366 . S
C1060 C1064 1.385 . S
C1061 H1036 0.951 . S
C1061 C1059 1.388 . S
C1061 C1062 1.366 . S
C1062 C1061 1.366 . S
C1062 C1063 1.414 . S
C1062 C1065 1.499 . S
C1063 H1037 0.950 . S
C1063 C1062 1.414 . S
C1063 C1064 1.374 . S
C1064 H1038 0.950 . S
C1064 C1060 1.385 . S
C1064 C1063 1.374 . S
C1065 C1062 1.499 . S
C1065 C1066 1.373 . S
C1065 C1067 1.389 . S
C1066 H1039 0.950 . S
C1066 C1052 1.377 . S
C1066 C1065 1.373 . S
C1067 C1051 1.377 . S
C1067 C1065 1.389 . S
C1067 C1068 1.524 . S
C1068 C1067 1.524 . S
C1068 C1069 1.397 . S
C1068 C1073 1.363 . S
C1069 H1040 0.950 . S
C1069 C1068 1.397 . S
C1069 C1070 1.334 . S
C1070 H1041 0.950 . S
C1070 C1069 1.334 . S
C1070 C1071 1.287 . S
C1071 C1070 1.287 . S
C1071 C1072 1.524 . S
C1071 H1074 0.999 . S
C1072 H1042 0.950 . S
C1072 C1071 1.524 . S
C1072 C1073 1.415 . S
C1073 H1043 0.950 . S
C1073 C1068 1.363 . S
C1073 C1072 1.415 . S
H1074 C1071 0.999 . S
H1075 C1056 0.913 . S
H1076 C1094 0.951 . S
H1077 C1096 0.951 . S
H1078 C1098 0.950 . S
H1079 C1099 0.950 . S
H1080 C1101 0.950 . S
H1081 C1104 0.950 . S
H1082 C1105 0.950 . S
H1083 C1107 0.950 . S
H1084 C1108 0.950 . S
H1085 C1109 0.951 . S
H1086 C1111 0.951 . S
H1087 C1113 0.950 . S
H1088 C1114 0.950 . S
H1089 C1116 0.950 . S
H1090 C1119 0.950 . S
H1091 C1120 0.950 . S
H1092 C1122 0.950 . S
H1093 C1123 0.950 . S
C1094 H1076 0.951 . S
C1094 C1095 1.366 . S
C1094 C1096 1.388 . S
C1095 C1094 1.366 . S
C1095 C1099 1.385 . S
C1096 H1077 0.951 . S
C1096 C1094 1.388 . S
C1096 C1097 1.366 . S
C1097 C1096 1.366 . S
C1097 C1098 1.414 . S
C1097 C1100 1.499 . S
C1098 H1078 0.950 . S
C1098 C1097 1.414 . S
C1098 C1099 1.374 . S
C1099 H1079 0.950 . S
C1099 C1095 1.385 . S
C1099 C1098 1.374 . S
C1100 C1097 1.499 . S
C1100 C1101 1.373 . S
C1100 C1102 1.389 . S
C1101 H1080 0.950 . S
C1101 C1100 1.373 . S
C1101 C1117 1.377 1_545 S
C1102 C1100 1.389 . S
C1102 C1103 1.524 . S
C1102 C1116 1.377 1_545 S
C1103 C1102 1.524 . S
C1103 C1104 1.397 . S
C1103 C1108 1.363 . S
C1104 H1081 0.950 . S
C1104 C1103 1.397 . S
C1104 C1105 1.334 . S
C1105 H1082 0.950 . S
C1105 C1104 1.334 . S
C1105 C1106 1.287 . S
C1106 C1105 1.287 . S
C1106 C1107 1.524 . S
C1106 H1125 0.913 . S
C1107 H1083 0.950 . S
C1107 C1106 1.524 . S
C1107 C1108 1.415 . S
C1108 H1084 0.950 . S
C1108 C1103 1.363 . S
C1108 C1107 1.415 . S
C1109 H1085 0.951 . S
C1109 C1110 1.366 . S
C1109 C1111 1.388 . S
C1110 C1109 1.366 . S
C1110 C1114 1.385 . S
C1111 H1086 0.951 . S
C1111 C1109 1.388 . S
C1111 C1112 1.366 . S
C1112 C1111 1.366 . S
C1112 C1113 1.414 . S
C1112 C1115 1.499 . S
C1113 H1087 0.950 . S
C1113 C1112 1.414 . S
C1113 C1114 1.374 . S
C1114 H1088 0.950 . S
C1114 C1110 1.385 . S
C1114 C1113 1.374 . S
C1115 C1112 1.499 . S
C1115 C1116 1.373 . S
C1115 C1117 1.389 . S
C1116 H1089 0.950 . S
C1116 C1102 1.377 1_565 S
C1116 C1115 1.373 . S
C1117 C1101 1.377 1_565 S
C1117 C1115 1.389 . S
C1117 C1118 1.524 . S
C1118 C1117 1.524 . S
C1118 C1119 1.397 . S
C1118 C1123 1.363 . S
C1119 H1090 0.950 . S
C1119 C1118 1.397 . S
C1119 C1120 1.334 . S
C1120 H1091 0.950 . S
C1120 C1119 1.334 . S
C1120 C1121 1.287 . S
C1121 C1120 1.287 . S
C1121 C1122 1.524 . S
C1121 H1124 0.999 . S
C1122 H1092 0.950 . S
C1122 C1121 1.524 . S
C1122 C1123 1.415 . S
C1123 H1093 0.950 . S
C1123 C1118 1.363 . S
C1123 C1122 1.415 . S
H1124 C1121 0.999 . S
H1125 C1106 0.913 . S
H1126 C1144 0.951 . S
H1127 C1146 0.951 . S
H1128 C1148 0.950 . S
H1129 C1149 0.950 . S
H1130 C1151 0.950 . S
H1131 C1154 0.950 . S
H1132 C1155 0.950 . S
H1133 C1157 0.950 . S
H1134 C1158 0.950 . S
H1135 C1159 0.951 . S
H1136 C1161 0.951 . S
H1137 C1163 0.950 . S
H1138 C1164 0.950 . S
H1139 C1166 0.950 . S
H1140 C1169 0.950 . S
H1141 C1170 0.950 . S
H1142 C1172 0.950 . S
H1143 C1173 0.950 . S
C1144 H1126 0.951 . S
C1144 C1145 1.366 . S
C1144 C1146 1.388 . S
C1145 C1144 1.366 . S
C1145 C1149 1.385 . S
C1146 H1127 0.951 . S
C1146 C1144 1.388 . S
C1146 C1147 1.366 . S
C1147 C1146 1.366 . S
C1147 C1148 1.414 . S
C1147 C1150 1.499 . S
C1148 H1128 0.950 . S
C1148 C1147 1.414 . S
C1148 C1149 1.374 . S
C1149 H1129 0.950 . S
C1149 C1145 1.385 . S
C1149 C1148 1.374 . S
C1150 C1147 1.499 . S
C1150 C1151 1.373 . S
C1150 C1152 1.389 . S
C1151 H1130 0.950 . S
C1151 C1150 1.373 . S
C1151 C1167 1.377 . S
C1152 C1150 1.389 . S
C1152 C1153 1.524 . S
C1152 C1166 1.377 . S
C1153 C1152 1.524 . S
C1153 C1154 1.397 . S
C1153 C1158 1.363 . S
C1154 H1131 0.950 . S
C1154 C1153 1.397 . S
C1154 C1155 1.334 . S
C1155 H1132 0.950 . S
C1155 C1154 1.334 . S
C1155 C1156 1.287 . S
C1156 C1155 1.287 . S
C1156 C1157 1.524 . S
C1156 H1175 0.913 . S
C1157 H1133 0.950 . S
C1157 C1156 1.524 . S
C1157 C1158 1.415 . S
C1158 H1134 0.950 . S
C1158 C1153 1.363 . S
C1158 C1157 1.415 . S
C1159 H1135 0.951 . S
C1159 C1160 1.366 . S
C1159 C1161 1.388 . S
C1160 C1159 1.366 . S
C1160 C1164 1.385 . S
C1161 H1136 0.951 . S
C1161 C1159 1.388 . S
C1161 C1162 1.366 . S
C1162 C1161 1.366 . S
C1162 C1163 1.414 . S
C1162 C1165 1.499 . S
C1163 H1137 0.950 . S
C1163 C1162 1.414 . S
C1163 C1164 1.374 . S
C1164 H1138 0.950 . S
C1164 C1160 1.385 . S
C1164 C1163 1.374 . S
C1165 C1162 1.499 . S
C1165 C1166 1.373 . S
C1165 C1167 1.389 . S
C1166 H1139 0.950 . S
C1166 C1152 1.377 . S
C1166 C1165 1.373 . S
C1167 C1151 1.377 . S
C1167 C1165 1.389 . S
C1167 C1168 1.524 . S
C1168 C1167 1.524 . S
C1168 C1169 1.397 . S
C1168 C1173 1.363 . S
C1169 H1140 0.950 . S
C1169 C1168 1.397 . S
C1169 C1170 1.334 . S
C1170 H1141 0.950 . S
C1170 C1169 1.334 . S
C1170 C1171 1.287 . S
C1171 C1170 1.287 . S
C1171 C1172 1.524 . S
C1171 H1174 0.999 . S
C1172 H1142 0.950 . S
C1172 C1171 1.524 . S
C1172 C1173 1.415 . S
C1173 H1143 0.950 . S
C1173 C1168 1.363 . S
C1173 C1172 1.415 . S
H1174 C1171 0.999 . S
H1175 C1156 0.913 . S
H1176 C1194 0.951 . S
H1177 C1196 0.951 . S
H1178 C1198 0.950 . S
H1179 C1199 0.950 . S
H1180 C1201 0.950 . S
H1181 C1204 0.950 . S
H1182 C1205 0.950 . S
H1183 C1207 0.950 . S
H1184 C1208 0.950 . S
H1185 C1209 0.951 . S
H1186 C1211 0.951 . S
H1187 C1213 0.950 . S
H1188 C1214 0.950 . S
H1189 C1216 0.950 . S
H1190 C1219 0.950 . S
H1191 C1220 0.950 . S
H1192 C1222 0.950 . S
H1193 C1223 0.950 . S
C1194 H1176 0.951 . S
C1194 C1195 1.366 . S
C1194 C1196 1.388 . S
C1195 C1194 1.366 . S
C1195 C1199 1.385 . S
C1196 H1177 0.951 . S
C1196 C1194 1.388 . S
C1196 C1197 1.366 . S
C1197 C1196 1.366 . S
C1197 C1198 1.414 . S
C1197 C1200 1.499 . S
C1198 H1178 0.950 . S
C1198 C1197 1.414 . S
C1198 C1199 1.374 . S
C1199 H1179 0.950 . S
C1199 C1195 1.385 . S
C1199 C1198 1.374 . S
C1200 C1197 1.499 . S
C1200 C1201 1.373 . S
C1200 C1202 1.389 . S
C1201 H1180 0.950 . S
C1201 C1200 1.373 . S
C1201 C1217 1.377 . S
C1202 C1200 1.389 . S
C1202 C1203 1.524 . S
C1202 C1216 1.377 . S
C1203 C1202 1.524 . S
C1203 C1204 1.397 . S
C1203 C1208 1.363 . S
C1204 H1181 0.950 . S
C1204 C1203 1.397 . S
C1204 C1205 1.334 . S
C1205 H1182 0.950 . S
C1205 C1204 1.334 . S
C1205 C1206 1.287 . S
C1206 C1205 1.287 . S
C1206 C1207 1.524 . S
C1206 H1225 0.913 . S
C1207 H1183 0.950 . S
C1207 C1206 1.524 . S
C1207 C1208 1.415 . S
C1208 H1184 0.950 . S
C1208 C1203 1.363 . S
C1208 C1207 1.415 . S
C1209 H1185 0.951 . S
C1209 C1210 1.366 . S
C1209 C1211 1.388 . S
C1210 C1209 1.366 . S
C1210 C1214 1.385 . S
C1211 H1186 0.951 . S
C1211 C1209 1.388 . S
C1211 C1212 1.366 . S
C1212 C1211 1.366 . S
C1212 C1213 1.414 . S
C1212 C1215 1.499 . S
C1213 H1187 0.950 . S
C1213 C1212 1.414 . S
C1213 C1214 1.374 . S
C1214 H1188 0.950 . S
C1214 C1210 1.385 . S
C1214 C1213 1.374 . S
C1215 C1212 1.499 . S
C1215 C1216 1.373 . S
C1215 C1217 1.389 . S
C1216 H1189 0.950 . S
C1216 C1202 1.377 . S
C1216 C1215 1.373 . S
C1217 C1201 1.377 . S
C1217 C1215 1.389 . S
C1217 C1218 1.524 . S
C1218 C1217 1.524 . S
C1218 C1219 1.397 . S
C1218 C1223 1.363 . S
C1219 H1190 0.950 . S
C1219 C1218 1.397 . S
C1219 C1220 1.334 . S
C1220 H1191 0.950 . S
C1220 C1219 1.334 . S
C1220 C1221 1.287 . S
C1221 C1220 1.287 . S
C1221 C1222 1.524 . S
C1221 H1224 0.999 . S
C1222 H1192 0.950 . S
C1222 C1221 1.524 . S
C1222 C1223 1.415 . S
C1223 H1193 0.950 . S
C1223 C1218 1.363 . S
C1223 C1222 1.415 . S
H1224 C1221 0.999 . S
H1225 C1206 0.913 . S
H1226 C1244 0.951 . S
H1227 C1246 0.951 . S
H1228 C1248 0.950 . S
H1229 C1249 0.950 . S
H1230 C1251 0.950 . S
H1231 C1254 0.950 . S
H1232 C1255 0.950 . S
H1233 C1257 0.950 . S
H1234 C1258 0.950 . S
H1235 C1259 0.951 . S
H1236 C1261 0.951 . S
H1237 C1263 0.950 . S
H1238 C1264 0.950 . S
H1239 C1266 0.950 . S
H1240 C1269 0.950 . S
H1241 C1270 0.950 . S
H1242 C1272 0.950 . S
H1243 C1273 0.950 . S
C1244 H1226 0.951 . S
C1244 C1245 1.366 . S
C1244 C1246 1.388 . S
C1245 C1244 1.366 . S
C1245 C1249 1.385 . S
C1246 H1227 0.951 . S
C1246 C1244 1.388 . S
C1246 C1247 1.366 . S
C1247 C1246 1.366 . S
C1247 C1248 1.414 . S
C1247 C1250 1.499 . S
C1248 H1228 0.950 . S
C1248 C1247 1.414 . S
C1248 C1249 1.374 . S
C1249 H1229 0.950 . S
C1249 C1245 1.385 . S
C1249 C1248 1.374 . S
C1250 C1247 1.499 . S
C1250 C1251 1.373 . S
C1250 C1252 1.389 1_455 S
C1251 H1230 0.950 . S
C1251 C1250 1.373 . S
C1251 C1267 1.377 . S
C1252 C1250 1.389 1_655 S
C1252 C1253 1.524 . S
C1252 C1266 1.377 . S
C1253 C1252 1.524 . S
C1253 C1254 1.397 1_655 S
C1253 C1258 1.363 . S
C1254 H1231 0.950 . S
C1254 C1253 1.397 1_455 S
C1254 C1255 1.334 . S
C1255 H1232 0.950 . S
C1255 C1254 1.334 . S
C1255 C1256 1.287 1_455 S
C1256 C1255 1.287 1_655 S
C1256 C1257 1.524 . S
C1256 H1275 0.913 . S
C1257 H1233 0.950 . S
C1257 C1256 1.524 . S
C1257 C1258 1.415 . S
C1258 H1234 0.950 . S
C1258 C1253 1.363 . S
C1258 C1257 1.415 . S
C1259 H1235 0.951 . S
C1259 C1260 1.366 . S
C1259 C1261 1.388 . S
C1260 C1259 1.366 . S
C1260 C1264 1.385 . S
C1261 H1236 0.951 . S
C1261 C1259 1.388 . S
C1261 C1262 1.366 . S
C1262 C1261 1.366 . S
C1262 C1263 1.414 . S
C1262 C1265 1.499 . S
C1263 H1237 0.950 . S
C1263 C1262 1.414 . S
C1263 C1264 1.374 . S
C1264 H1238 0.950 . S
C1264 C1260 1.385 . S
C1264 C1263 1.374 . S
C1265 C1262 1.499 . S
C1265 C1266 1.373 . S
C1265 C1267 1.389 1_655 S
C1266 H1239 0.950 . S
C1266 C1252 1.377 . S
C1266 C1265 1.373 . S
C1267 C1251 1.377 . S
C1267 C1265 1.389 1_455 S
C1267 C1268 1.524 . S
C1268 C1267 1.524 . S
C1268 C1269 1.397 1_455 S
C1268 C1273 1.363 . S
C1269 H1240 0.950 . S
C1269 C1268 1.397 1_655 S
C1269 C1270 1.334 . S
C1270 H1241 0.950 . S
C1270 C1269 1.334 . S
C1270 C1271 1.287 1_655 S
C1271 C1270 1.287 1_455 S
C1271 C1272 1.524 . S
C1271 H1274 0.999 . S
C1272 H1242 0.950 . S
C1272 C1271 1.524 . S
C1272 C1273 1.415 . S
C1273 H1243 0.950 . S
C1273 C1268 1.363 . S
C1273 C1272 1.415 . S
H1274 C1271 0.999 . S
H1275 C1256 0.913 . S
H1276 C1294 0.951 . S
H1277 C1296 0.951 . S
H1278 C1298 0.950 . S
H1279 C1299 0.950 . S
H1280 C1301 0.950 . S
H1281 C1304 0.950 . S
H1282 C1305 0.950 . S
H1283 C1307 0.950 . S
H1284 C1308 0.950 . S
H1285 C1309 0.951 . S
H1286 C1311 0.951 . S
H1287 C1313 0.950 . S
H1288 C1314 0.950 . S
H1289 C1316 0.950 . S
H1290 C1319 0.950 . S
H1291 C1320 0.950 . S
H1292 C1322 0.950 . S
H1293 C1323 0.950 . S
C1294 H1276 0.951 . S
C1294 C1295 1.366 . S
C1294 C1296 1.388 . S
C1295 C1294 1.366 . S
C1295 C1299 1.385 . S
C1296 H1277 0.951 . S
C1296 C1294 1.388 . S
C1296 C1297 1.366 . S
C1297 C1296 1.366 . S
C1297 C1298 1.414 . S
C1297 C1300 1.499 . S
C1298 H1278 0.950 . S
C1298 C1297 1.414 . S
C1298 C1299 1.374 . S
C1299 H1279 0.950 . S
C1299 C1295 1.385 . S
C1299 C1298 1.374 . S
C1300 C1297 1.499 . S
C1300 C1301 1.373 . S
C1300 C1302 1.389 . S
C1301 H1280 0.950 . S
C1301 C1300 1.373 . S
C1301 C1317 1.377 . S
C1302 C1300 1.389 . S
C1302 C1303 1.524 . S
C1302 C1316 1.377 . S
C1303 C1302 1.524 . S
C1303 C1304 1.397 . S
C1303 C1308 1.363 . S
C1304 H1281 0.950 . S
C1304 C1303 1.397 . S
C1304 C1305 1.334 . S
C1305 H1282 0.950 . S
C1305 C1304 1.334 . S
C1305 C1306 1.287 . S
C1306 C1305 1.287 . S
C1306 C1307 1.524 . S
C1306 H1325 0.913 . S
C1307 H1283 0.950 . S
C1307 C1306 1.524 . S
C1307 C1308 1.415 . S
C1308 H1284 0.950 . S
C1308 C1303 1.363 . S
C1308 C1307 1.415 . S
C1309 H1285 0.951 . S
C1309 C1310 1.366 . S
C1309 C1311 1.388 . S
C1310 C1309 1.366 . S
C1310 C1314 1.385 . S
C1311 H1286 0.951 . S
C1311 C1309 1.388 . S
C1311 C1312 1.366 . S
C1312 C1311 1.366 . S
C1312 C1313 1.414 . S
C1312 C1315 1.499 . S
C1313 H1287 0.950 . S
C1313 C1312 1.414 . S
C1313 C1314 1.374 . S
C1314 H1288 0.950 . S
C1314 C1310 1.385 . S
C1314 C1313 1.374 . S
C1315 C1312 1.499 . S
C1315 C1316 1.373 . S
C1315 C1317 1.389 . S
C1316 H1289 0.950 . S
C1316 C1302 1.377 . S
C1316 C1315 1.373 . S
C1317 C1301 1.377 . S
C1317 C1315 1.389 . S
C1317 C1318 1.524 . S
C1318 C1317 1.524 . S
C1318 C1319 1.397 . S
C1318 C1323 1.363 . S
C1319 H1290 0.950 . S
C1319 C1318 1.397 . S
C1319 C1320 1.334 . S
C1320 H1291 0.950 . S
C1320 C1319 1.334 . S
C1320 C1321 1.287 . S
C1321 C1320 1.287 . S
C1321 C1322 1.524 . S
C1321 H1324 0.999 . S
C1322 H1292 0.950 . S
C1322 C1321 1.524 . S
C1322 C1323 1.415 . S
C1323 H1293 0.950 . S
C1323 C1318 1.363 . S
C1323 C1322 1.415 . S
H1324 C1321 0.999 . S
H1325 C1306 0.913 . S
H1326 C1344 0.951 . S
H1327 C1346 0.951 . S
H1328 C1348 0.950 . S
H1329 C1349 0.950 . S
H1330 C1351 0.950 . S
H1331 C1354 0.950 . S
H1332 C1355 0.950 . S
H1333 C1357 0.950 . S
H1334 C1358 0.950 . S
H1335 C1359 0.951 . S
H1336 C1361 0.951 . S
H1337 C1363 0.950 . S
H1338 C1364 0.950 . S
H1339 C1366 0.950 . S
H1340 C1369 0.950 . S
H1341 C1370 0.950 . S
H1342 C1372 0.950 . S
H1343 C1373 0.950 . S
C1344 H1326 0.951 . S
C1344 C1345 1.366 . S
C1344 C1346 1.388 . S
C1345 C1344 1.366 . S
C1345 C1349 1.385 . S
C1346 H1327 0.951 . S
C1346 C1344 1.388 . S
C1346 C1347 1.366 . S
C1347 C1346 1.366 . S
C1347 C1348 1.414 . S
C1347 C1350 1.499 . S
C1348 H1328 0.950 . S
C1348 C1347 1.414 . S
C1348 C1349 1.374 . S
C1349 H1329 0.950 . S
C1349 C1345 1.385 . S
C1349 C1348 1.374 . S
C1350 C1347 1.499 . S
C1350 C1351 1.373 . S
C1350 C1352 1.393 . S
C1351 H1330 0.950 . S
C1351 C1350 1.373 . S
C1351 C1367 1.377 1_655 S
C1352 C1350 1.393 . S
C1352 C1353 1.525 . S
C1352 C1366 1.373 1_655 S
C1353 C1352 1.525 . S
C1353 C1354 1.397 . S
C1353 C1358 1.363 1_655 S
C1354 H1331 0.950 . S
C1354 C1353 1.397 . S
C1354 C1355 1.334 . S
C1355 H1332 0.950 . S
C1355 C1354 1.334 . S
C1355 C1356 1.287 . S
C1356 C1355 1.287 . S
C1356 C1357 1.524 1_655 S
C1356 H1375 0.913 . S
C1357 H1333 0.950 . S
C1357 C1356 1.524 1_455 S
C1357 C1358 1.415 . S
C1358 H1334 0.950 . S
C1358 C1353 1.363 1_455 S
C1358 C1357 1.415 . S
C1359 H1335 0.951 . S
C1359 C1360 1.366 . S
C1359 C1361 1.388 . S
C1360 C1359 1.366 . S
C1360 C1364 1.385 . S
C1361 H1336 0.951 . S
C1361 C1359 1.388 . S
C1361 C1362 1.366 . S
C1362 C1361 1.366 . S
C1362 C1363 1.414 . S
C1362 C1365 1.499 . S
C1363 H1337 0.950 . S
C1363 C1362 1.414 . S
C1363 C1364 1.374 . S
C1364 H1338 0.950 . S
C1364 C1360 1.385 . S
C1364 C1363 1.374 . S
C1365 C1362 1.499 . S
C1365 C1366 1.373 . S
C1365 C1367 1.389 . S
C1366 H1339 0.950 . S
C1366 C1352 1.373 1_455 S
C1366 C1365 1.373 . S
C1367 C1351 1.377 1_455 S
C1367 C1365 1.389 . S
C1367 C1368 1.524 . S
C1368 C1367 1.524 . S
C1368 C1369 1.397 . S
C1368 C1373 1.363 1_455 S
C1369 H1340 0.950 . S
C1369 C1368 1.397 . S
C1369 C1370 1.334 . S
C1370 H1341 0.950 . S
C1370 C1369 1.334 . S
C1370 C1371 1.287 . S
C1371 C1370 1.287 . S
C1371 C1372 1.524 1_455 S
C1371 H1374 0.999 . S
C1372 H1342 0.950 . S
C1372 C1371 1.524 1_655 S
C1372 C1373 1.415 . S
C1373 H1343 0.950 . S
C1373 C1368 1.363 1_655 S
C1373 C1372 1.415 . S
H1374 C1371 0.999 . S
H1375 C1356 0.913 . S
C195 C8 1.554 1_655 S
C210 C162 1.553 1_545 S
C245 C32 1.554 . S
C260 C106 1.554 . S
C295 C52 1.554 1_455 S
C310 C120 1.554 1_565 S
C345 C142 1.554 . S
C360 C84 1.554 . S
C395 C10 1.242 . S
C410 C37 1.267 . S
C445 C65 1.268 1_455 S
C460 C40 1.242 . S
C495 C73 1.268 . S
C510 C54 1.241 . S
C545 C21 1.268 1_655 S
C560 C74 1.241 . S
C595 C96 1.241 . S
C610 C175 1.268 1_545 S
C645 C128 1.241 . S
C660 C95 1.268 . S
C695 C150 1.241 . S
C710 C125 1.267 1_565 S
C745 C147 1.268 . S
C760 C164 1.241 . S
C795 C131 0.493 . S
C810 C7 0.494 . S
C845 C153 0.494 . S
C860 C43 0.493 . S
C895 C161 0.494 . S
C910 C51 0.493 . S
C945 C103 0.492 . S
C960 C81 0.493 . S
C995 C18 1.524 . S
C1010 C139 1.515 . S
C1045 C30 1.524 . S
C1060 C169 1.515 . S
C1095 C109 1.516 . S
C1110 C62 1.524 . S
C1145 C117 1.516 . S
C1160 C76 1.524 . S
C1195 C59 1.515 . S
C1210 C98 1.525 . S
C1245 C118 1.524 . S
C1260 C87 1.515 . S
C1295 C140 1.525 . S
C1310 C15 1.515 . S
C1345 C172 1.524 . S
C1360 C29 1.516 . S
