# Generated by pormake.
# Topology sme, (6)-cn, num edge types: 1
# Building blocks:
#     Node 0, Type 0, BuildingBlock: OJICUG_clean_sbu_0, # of connection points: 6
#     Node 1, Type 0, BuildingBlock: OJICUG_clean_sbu_0, # of connection points: 6
#     Node 2, Type 0, BuildingBlock: OJICUG_clean_sbu_0, # of connection points: 6
#     Node 3, Type 0, BuildingBlock: OJICUG_clean_sbu_0, # of connection points: 6
#     Node 4, Type 0, BuildingBlock: OJICUG_clean_sbu_0, # of connection points: 6
#     Node 5, Type 0, BuildingBlock: OJICUG_clean_sbu_0, # of connection points: 6
#     Node 6, Type 0, BuildingBlock: OJICUG_clean_sbu_0, # of connection points: 6
#     Node 7, Type 0, BuildingBlock: OJICUG_clean_sbu_0, # of connection points: 6
#     Node 8, Type 0, BuildingBlock: OJICUG_clean_sbu_0, # of connection points: 6
#     Node 9, Type 0, BuildingBlock: OJICUG_clean_sbu_0, # of connection points: 6
#     Node 10, Type 0, BuildingBlock: OJICUG_clean_sbu_0, # of connection points: 6
#     Node 11, Type 0, BuildingBlock: OJICUG_clean_sbu_0, # of connection points: 6
#     Node 12, Type 0, BuildingBlock: OJICUG_clean_sbu_0, # of connection points: 6
#     Node 13, Type 0, BuildingBlock: OJICUG_clean_sbu_0, # of connection points: 6
#     Node 14, Type 0, BuildingBlock: OJICUG_clean_sbu_0, # of connection points: 6
#     Node 15, Type 0, BuildingBlock: OJICUG_clean_sbu_0, # of connection points: 6
#     Node 16, Type 0, BuildingBlock: OJICUG_clean_sbu_0, # of connection points: 6
#     Node 17, Type 0, BuildingBlock: OJICUG_clean_sbu_0, # of connection points: 6
#     Edge 18, Type (0, 0), BuildingBlock: KIFKEQ_clean_linker_1, # of connection points: 2
#     Edge 19, Type (0, 0), BuildingBlock: KIFKEQ_clean_linker_1, # of connection points: 2
#     Edge 20, Type (0, 0), BuildingBlock: KIFKEQ_clean_linker_1, # of connection points: 2
#     Edge 21, Type (0, 0), BuildingBlock: KIFKEQ_clean_linker_1, # of connection points: 2
#     Edge 22, Type (0, 0), BuildingBlock: KIFKEQ_clean_linker_1, # of connection points: 2
#     Edge 23, Type (0, 0), BuildingBlock: KIFKEQ_clean_linker_1, # of connection points: 2
#     Edge 24, Type (0, 0), BuildingBlock: KIFKEQ_clean_linker_1, # of connection points: 2
#     Edge 25, Type (0, 0), BuildingBlock: KIFKEQ_clean_linker_1, # of connection points: 2
#     Edge 26, Type (0, 0), BuildingBlock: KIFKEQ_clean_linker_1, # of connection points: 2
#     Edge 27, Type (0, 0), BuildingBlock: KIFKEQ_clean_linker_1, # of connection points: 2
#     Edge 28, Type (0, 0), BuildingBlock: KIFKEQ_clean_linker_1, # of connection points: 2
#     Edge 29, Type (0, 0), BuildingBlock: KIFKEQ_clean_linker_1, # of connection points: 2
#     Edge 30, Type (0, 0), BuildingBlock: KIFKEQ_clean_linker_1, # of connection points: 2
#     Edge 31, Type (0, 0), BuildingBlock: KIFKEQ_clean_linker_1, # of connection points: 2
#     Edge 32, Type (0, 0), BuildingBlock: KIFKEQ_clean_linker_1, # of connection points: 2
#     Edge 33, Type (0, 0), BuildingBlock: KIFKEQ_clean_linker_1, # of connection points: 2
#     Edge 34, Type (0, 0), BuildingBlock: KIFKEQ_clean_linker_1, # of connection points: 2
#     Edge 35, Type (0, 0), BuildingBlock: KIFKEQ_clean_linker_1, # of connection points: 2
#     Edge 36, Type (0, 0), BuildingBlock: KIFKEQ_clean_linker_1, # of connection points: 2
#     Edge 37, Type (0, 0), BuildingBlock: KIFKEQ_clean_linker_1, # of connection points: 2
#     Edge 38, Type (0, 0), BuildingBlock: KIFKEQ_clean_linker_1, # of connection points: 2
#     Edge 39, Type (0, 0), BuildingBlock: KIFKEQ_clean_linker_1, # of connection points: 2
#     Edge 40, Type (0, 0), BuildingBlock: KIFKEQ_clean_linker_1, # of connection points: 2
#     Edge 41, Type (0, 0), BuildingBlock: KIFKEQ_clean_linker_1, # of connection points: 2
#     Edge 42, Type (0, 0), BuildingBlock: KIFKEQ_clean_linker_1, # of connection points: 2
#     Edge 43, Type (0, 0), BuildingBlock: KIFKEQ_clean_linker_1, # of connection points: 2
#     Edge 44, Type (0, 0), BuildingBlock: KIFKEQ_clean_linker_1, # of connection points: 2
#     Edge 45, Type (0, 0), BuildingBlock: KIFKEQ_clean_linker_1, # of connection points: 2
#     Edge 46, Type (0, 0), BuildingBlock: KIFKEQ_clean_linker_1, # of connection points: 2
#     Edge 47, Type (0, 0), BuildingBlock: KIFKEQ_clean_linker_1, # of connection points: 2
#     Edge 48, Type (0, 0), BuildingBlock: KIFKEQ_clean_linker_1, # of connection points: 2
#     Edge 49, Type (0, 0), BuildingBlock: KIFKEQ_clean_linker_1, # of connection points: 2
#     Edge 50, Type (0, 0), BuildingBlock: KIFKEQ_clean_linker_1, # of connection points: 2
#     Edge 51, Type (0, 0), BuildingBlock: KIFKEQ_clean_linker_1, # of connection points: 2
#     Edge 52, Type (0, 0), BuildingBlock: KIFKEQ_clean_linker_1, # of connection points: 2
#     Edge 53, Type (0, 0), BuildingBlock: KIFKEQ_clean_linker_1, # of connection points: 2
#     Edge 54, Type (0, 0), BuildingBlock: KIFKEQ_clean_linker_1, # of connection points: 2
#     Edge 55, Type (0, 0), BuildingBlock: KIFKEQ_clean_linker_1, # of connection points: 2
#     Edge 56, Type (0, 0), BuildingBlock: KIFKEQ_clean_linker_1, # of connection points: 2
#     Edge 57, Type (0, 0), BuildingBlock: KIFKEQ_clean_linker_1, # of connection points: 2
#     Edge 58, Type (0, 0), BuildingBlock: KIFKEQ_clean_linker_1, # of connection points: 2
#     Edge 59, Type (0, 0), BuildingBlock: KIFKEQ_clean_linker_1, # of connection points: 2
#     Edge 60, Type (0, 0), BuildingBlock: KIFKEQ_clean_linker_1, # of connection points: 2
#     Edge 61, Type (0, 0), BuildingBlock: KIFKEQ_clean_linker_1, # of connection points: 2
#     Edge 62, Type (0, 0), BuildingBlock: KIFKEQ_clean_linker_1, # of connection points: 2
#     Edge 63, Type (0, 0), BuildingBlock: KIFKEQ_clean_linker_1, # of connection points: 2
#     Edge 64, Type (0, 0), BuildingBlock: KIFKEQ_clean_linker_1, # of connection points: 2
#     Edge 65, Type (0, 0), BuildingBlock: KIFKEQ_clean_linker_1, # of connection points: 2
#     Edge 66, Type (0, 0), BuildingBlock: KIFKEQ_clean_linker_1, # of connection points: 2
#     Edge 67, Type (0, 0), BuildingBlock: KIFKEQ_clean_linker_1, # of connection points: 2
#     Edge 68, Type (0, 0), BuildingBlock: KIFKEQ_clean_linker_1, # of connection points: 2
#     Edge 69, Type (0, 0), BuildingBlock: KIFKEQ_clean_linker_1, # of connection points: 2
#     Edge 70, Type (0, 0), BuildingBlock: KIFKEQ_clean_linker_1, # of connection points: 2
#     Edge 71, Type (0, 0), BuildingBlock: KIFKEQ_clean_linker_1, # of connection points: 2
# Relax obj value: 0.180
# Max RMSD: 0.201
# Mean RMSD: 0.201
data_MOF--net-sme--node1-OJICUG_clean_sbu_0--edge1-KIFKEQ_clean_linker_1
_symmetry_space_group_name_H-M    P1
_symmetry_Int_Tables_number       1
_symmetry_cell_setting            triclinic
loop_
_symmetry_equiv_pos_as_xyz
'x, y, z'
_cell_length_a     47.011957
_cell_length_b     47.016799
_cell_length_c     40.113198
_cell_angle_alpha  90.019072
_cell_angle_beta   89.993001
_cell_angle_gamma 119.97635
loop_
_atom_site_label
_atom_site_type_symbol
_atom_site_fract_x
_atom_site_fract_y
_atom_site_fract_z
_atom_type_partial_charge
Sc0 Sc 0.05743 0.31165 0.72293 0.0
Sc1 Sc 0.05661 0.24895 0.67387 0.0
Sc2 Sc 0.05581 0.24345 0.76074 0.0
O3 O 0.05694 0.26834 0.71919 0.0
C4 C 0.111 0.31809 0.77503 0.0
C5 C 0.09693 0.32494 0.65418 0.0
C6 C 0.10504 0.23343 0.71224 0.0
C7 C 0.00054 0.26836 0.6716 0.0
C8 C 0.01501 0.27569 0.78836 0.0
C9 C 0.00851 0.18417 0.71547 0.0
O10 O 0.10024 0.33126 0.75448 0.0
O11 O 0.08801 0.29499 0.6493 0.0
O12 O 0.08961 0.23013 0.73935 0.0
O13 O 0.014 0.29188 0.69255 0.0
O14 O 0.02238 0.25317 0.78875 0.0
O15 O 0.02437 0.19907 0.68948 0.0
O16 O 0.02608 0.29803 0.76632 0.0
O17 O 0.01355 0.25168 0.66157 0.0
O18 O 0.01417 0.19804 0.74384 0.0
O19 O 0.0885 0.33446 0.68005 0.0
O20 O 0.09721 0.28722 0.78011 0.0
O21 O 0.09887 0.24404 0.68552 0.0
Sc22 Sc 0.85691 0.87225 0.67149 0.0
Sc23 Sc 0.85995 0.88 0.75894 0.0
Sc24 Sc 0.7902 0.81609 0.72065 0.0
O25 O 0.83563 0.85626 0.71694 0.0
C26 C 0.7819 0.84275 0.64994 0.0
C27 C 0.87397 0.93873 0.70822 0.0
C28 C 0.78595 0.86435 0.7716 0.0
C29 C 0.92002 0.88797 0.71568 0.0
C30 C 0.82973 0.79487 0.67235 0.0
C31 C 0.82455 0.80742 0.78659 0.0
O32 O 0.81246 0.86157 0.64547 0.0
O33 O 0.87307 0.92645 0.73676 0.0
O34 O 0.77252 0.84252 0.74911 0.0
O35 O 0.9052 0.88511 0.68841 0.0
O36 O 0.8067 0.78847 0.69294 0.0
O37 O 0.84945 0.83611 0.78588 0.0
O38 O 0.84916 0.82366 0.66113 0.0
O39 O 0.9064 0.88491 0.74386 0.0
O40 O 0.80119 0.79803 0.76573 0.0
O41 O 0.86705 0.92207 0.68122 0.0
O42 O 0.77055 0.82565 0.67616 0.0
O43 O 0.8164 0.87823 0.77877 0.0
Sc44 Sc 0.28752 0.04105 0.71419 0.0
Sc45 Sc 0.23164 0.05265 0.66543 0.0
Sc46 Sc 0.22421 0.0477 0.7528 0.0
O47 O 0.24763 0.04687 0.71072 0.0
C48 C 0.23907 0.98896 0.76539 0.0
C49 C 0.26029 0.0064 0.64345 0.0
C50 C 0.16527 0.00333 0.702 0.0
C51 C 0.30911 0.10224 0.66631 0.0
C52 C 0.29686 0.08391 0.78046 0.0
C53 C 0.21706 0.10043 0.71015 0.0
O54 O 0.26093 -0.00291 0.74295 0.0
O55 O 0.24208 0.01887 0.63903 0.0
O56 O 0.1774 0.01464 0.73063 0.0
O57 O 0.31539 0.08512 0.68638 0.0
O58 O 0.26824 0.08031 0.77993 0.0
O59 O 0.21874 0.08796 0.68272 0.0
O60 O 0.30613 0.07009 0.75927 0.0
O61 O 0.28031 0.09335 0.65538 0.0
O62 O 0.22078 0.09005 0.73812 0.0
O63 O 0.27723 0.01162 0.66972 0.0
O64 O 0.22529 0.00566 0.77229 0.0
O65 O 0.18185 0.0132 0.675 0.0
Sc66 Sc 0.03355 0.80017 0.29289 0.0
Sc67 Sc 0.04475 0.86734 0.34187 0.0
Sc68 Sc 0.03748 0.86931 0.25471 0.0
O69 O 0.03832 0.84548 0.29653 0.0
C70 C 0.07485 0.83395 0.22609 0.0
C71 C 0.09499 0.84028 0.34029 0.0
C72 C 0.09108 0.92954 0.29632 0.0
C73 C -0.00108 0.79237 0.36366 0.0
C74 C 0.97948 0.79525 0.2431 0.0
C75 C -0.00548 0.88418 0.30711 0.0
O76 O 0.06283 0.81147 0.24804 0.0
O77 O 0.08605 0.86015 0.35113 0.0
O78 O 0.08024 0.91536 0.26842 0.0
O79 O 0.00397 0.78068 0.33724 0.0
O80 O -0.00539 0.82589 0.23673 0.0
O81 O 0.00491 0.87732 0.33363 0.0
O82 O 0.98965 0.78199 0.264 0.0
O83 O 0.01161 0.82303 0.36832 0.0
O84 O 0.00514 0.88333 0.27814 0.0
O85 O 0.07768 0.8166 0.32064 0.0
O86 O 0.06932 0.85778 0.22606 0.0
O87 O 0.07928 0.91537 0.3239 0.0
Sc88 Sc 0.23875 0.23812 0.3417 0.0
Sc89 Sc 0.23416 0.23635 0.25464 0.0
Sc90 Sc 0.3032 0.29994 0.29427 0.0
O91 O 0.25899 0.25807 0.2969 0.0
C92 C 0.26077 0.31428 0.34601 0.0
C93 C 0.17506 0.22505 0.30006 0.0
C94 C 0.26864 0.30988 0.22944 0.0
C95 C 0.22197 0.17488 0.30061 0.0
C96 C 0.31413 0.27096 0.36252 0.0
C97 C 0.30833 0.25388 0.24024 0.0
O98 O 0.24373 0.28455 0.35582 0.0
O99 O 0.18908 0.23274 0.2718 0.0
O100 O 0.29158 0.31946 0.25076 0.0
O101 O 0.2317 0.19042 0.32814 0.0
O102 O 0.32434 0.29002 0.33752 0.0
O103 O 0.27758 0.23887 0.23424 0.0
O104 O 0.28404 0.24985 0.36636 0.0
O105 O 0.22009 0.18834 0.27381 0.0
O106 O 0.32201 0.27593 0.26271 0.0
O107 O 0.1894 0.22331 0.32615 0.0
O108 O 0.28396 0.32409 0.32468 0.0
O109 O 0.24461 0.28077 0.22916 0.0
Sc110 Sc 0.86644 0.06538 0.34093 0.0
Sc111 Sc 0.87186 0.06791 0.25345 0.0
Sc112 Sc 0.80559 0.06881 0.29271 0.0
O113 O 0.84808 0.0676 0.29574 0.0
C114 C 0.79061 0.01036 0.34202 0.0
C115 C 0.88363 0.01867 0.29715 0.0
C116 C 0.79916 0.02738 0.22626 0.0
C117 C 0.9308 0.1158 0.30265 0.0
C118 C 0.83211 0.10621 0.36261 0.0
C119 C 0.85145 0.12296 0.24135 0.0
O120 O 0.81987 0.0234 0.35323 0.0
O121 O 0.879 0.02788 0.26886 0.0
O122 O 0.78867 0.03989 0.24761 0.0
O123 O 0.91459 0.10648 0.32982 0.0
O124 O 0.81334 0.09741 0.33738 0.0
O125 O 0.86705 0.10803 0.23423 0.0
O126 O 0.8539 0.09809 0.36632 0.0
O127 O 0.91845 0.10312 0.2745 0.0
O128 O 0.82938 0.11333 0.26387 0.0
O129 O 0.88136 0.03129 0.32429 0.0
O130 O 0.78122 0.0239 0.32051 0.0
O131 O 0.82851 0.03295 0.22662 0.0
Sc132 Sc 0.72854 0.6473 0.05344 0.0
Sc133 Sc 0.71849 0.58067 1.00431 0.0
Sc134 Sc 0.72245 0.5775 0.09179 0.0
O135 O 0.7234 0.60191 0.04975 0.0
C136 C 0.7806 0.65136 0.10488 0.0
C137 C 0.76433 0.65565 0.98311 0.0
C138 C 0.76724 0.56299 0.04168 0.0
C139 C 0.66841 0.60803 1.0044 0.0
C140 C 0.68528 0.61299 0.1192 0.0
C141 C 0.67008 0.51798 0.04834 0.0
O142 O 0.77243 0.66493 0.08232 0.0
O143 O 0.75294 0.62512 0.9787 0.0
O144 O 0.75574 0.56407 0.07008 0.0
O145 O 0.68459 0.63077 0.02543 0.0
O146 O 0.68909 0.58812 0.11847 0.0
O147 O 0.68233 0.53257 0.02103 0.0
O148 O 0.69927 0.63638 0.09839 0.0
O149 O 0.6781 0.58888 0.99312 0.0
O150 O 0.68084 0.5315 0.07649 0.0
O151 O 0.75798 0.66689 0.00907 0.0
O152 O 0.76405 0.62087 0.11179 0.0
O153 O 0.75775 0.56997 0.01456 0.0
Sc154 Sc 0.45765 0.14906 0.04965 0.0
Sc155 Sc 0.5229 0.20941 1.00155 0.0
Sc156 Sc 0.52421 0.21638 0.08858 0.0
O157 O 0.50132 0.19171 0.04654 0.0
C158 C 0.44896 0.1966 0.09899 0.0
C159 C 0.44772 0.17448 0.97875 0.0
C160 C 0.53584 0.27421 0.03739 0.0
C161 C 0.50261 0.13376 1.00256 0.0
C162 C 0.49186 0.14377 0.11708 0.0
C163 C 0.58571 0.22712 0.04713 0.0
O164 O 0.43652 0.1727 0.07841 0.0
O165 O 0.47794 0.19517 0.97476 0.0
O166 O 0.53671 0.26273 0.06588 0.0
O167 O 0.4783 0.12437 0.02233 0.0
O168 O 0.5145 0.17362 0.11731 0.0
O169 O 0.57185 0.22611 0.01965 0.0
O170 O 0.46974 0.13232 0.09478 0.0
O171 O 0.5197 0.16305 0.9917 0.0
O172 O 0.57086 0.22134 0.07492 0.0
O173 O 0.43702 0.15688 1.00477 0.0
O174 O 0.47953 0.21331 0.10549 0.0
O175 O 0.52874 0.25736 0.01064 0.0
Sc176 Sc 0.95668 0.37849 0.055 0.0
Sc177 Sc 0.89462 0.38035 0.00733 0.0
Sc178 Sc 0.89193 0.38246 0.09438 0.0
O179 O 0.91438 0.38014 0.05225 0.0
C180 C 0.91008 0.32617 0.10822 0.0
C181 C 0.92806 0.33814 0.987 0.0
C182 C 0.83101 0.33371 0.04735 0.0
C183 C 0.97053 0.43499 1.00323 0.0
C184 C 0.96571 0.42219 0.12018 0.0
C185 C 0.88016 0.43006 0.04914 0.0
O186 O 0.93331 0.33605 0.0869 0.0
O187 O 0.90719 0.34738 0.98271 0.0
O188 O 0.84405 0.34906 0.07428 0.0
O189 O 0.98055 0.42158 0.02425 0.0
O190 O 0.93613 0.41584 0.12112 0.0
O191 O 0.87884 0.41402 0.02316 0.0
O192 O 0.97587 0.41008 0.09808 0.0
O193 O 0.94074 0.42229 0.99366 0.0
O194 O 0.88839 0.4243 0.07747 0.0
O195 O 0.94686 0.34692 0.01221 0.0
O196 O 0.89387 0.34081 0.11389 0.0
O197 O 0.8471 0.33931 0.02022 0.0
Sc198 Sc 0.70771 0.20035 0.67411 0.0
Sc199 Sc 0.70399 0.20346 0.58691 0.0
Sc200 Sc 0.6963 0.13298 0.62541 0.0
O201 O 0.70237 0.17875 0.62888 0.0
C202 C 0.75751 0.17271 0.6733 0.0
C203 C 0.75649 0.26266 0.62975 0.0
C204 C 0.73908 0.16585 0.55906 0.0
C205 C 0.66005 0.2191 0.63742 0.0
C206 C 0.66188 0.12555 0.69631 0.0
C207 C 0.64392 0.1304 0.57471 0.0
O208 O 0.74853 0.1926 0.68412 0.0
O209 O 0.74733 0.2484 0.60168 0.0
O210 O 0.72542 0.14301 0.58047 0.0
O211 O 0.66796 0.21024 0.66436 0.0
O212 O 0.66681 0.11377 0.66991 0.0
O213 O 0.66082 0.16092 0.56794 0.0
O214 O 0.67433 0.15621 0.70065 0.0
O215 O 0.67255 0.21914 0.60924 0.0
O216 O 0.65235 0.11628 0.59649 0.0
O217 O 0.74273 0.24868 0.65685 0.0
O218 O 0.74043 0.14913 0.65335 0.0
O219 O 0.73542 0.19081 0.55934 0.0
Sc220 Sc 0.90324 0.57041 0.67344 0.0
Sc221 Sc 0.89997 0.56839 0.58635 0.0
Sc222 Sc 0.96696 0.63391 0.62681 0.0
O223 O 0.92371 0.59089 0.62886 0.0
C224 C 0.92273 0.64572 0.67844 0.0
C225 C 0.83964 0.55551 0.63054 0.0
C226 C 0.93232 0.64235 0.56148 0.0
C227 C 0.88875 0.50766 0.63305 0.0
C228 C 0.97884 0.60515 0.69443 0.0
C229 C 0.97505 0.58897 0.57326 0.0
O230 O 0.90573 0.61573 0.68731 0.0
O231 O 0.85415 0.56404 0.60251 0.0
O232 O 0.95403 0.65307 0.58415 0.0
O233 O 0.89846 0.52356 0.66036 0.0
O234 O 0.98878 0.6239 0.66921 0.0
O235 O 0.94431 0.57162 0.56755 0.0
O236 O 0.94879 0.58408 0.69873 0.0
O237 O 0.88627 0.52063 0.60616 0.0
O238 O 0.98751 0.61229 0.59451 0.0
O239 O 0.8538 0.55376 0.65678 0.0
O240 O 0.94667 0.65643 0.658 0.0
O241 O 0.91017 0.61238 0.55979 0.0
Sc242 Sc 0.53132 0.4004 0.67633 0.0
Sc243 Sc 0.53521 0.40067 0.58927 0.0
Sc244 Sc 0.46878 0.40146 0.62849 0.0
O245 O 0.5118 0.40116 0.63137 0.0
C246 C 0.45584 0.34434 0.67902 0.0
C247 C 0.54773 0.35279 0.63332 0.0
C248 C 0.46197 0.35959 0.5624 0.0
C249 C 0.59497 0.44937 0.63742 0.0
C250 C 0.49612 0.44084 0.69724 0.0
C251 C 0.51489 0.45554 0.57658 0.0
O252 O 0.48555 0.35743 0.68896 0.0
O253 O 0.53996 0.35931 0.60513 0.0
O254 O 0.45075 0.37055 0.58467 0.0
O255 O 0.57869 0.44242 0.66455 0.0
O256 O 0.4775 0.43208 0.67187 0.0
O257 O 0.53198 0.44188 0.57075 0.0
O258 O 0.51742 0.43214 0.70147 0.0
O259 O 0.58238 0.43468 0.61011 0.0
O260 O 0.4913 0.44458 0.59751 0.0
O261 O 0.54822 0.36782 0.6598 0.0
O262 O 0.44559 0.35779 0.65832 0.0
O263 O 0.49186 0.36701 0.5618 0.0
Sc264 Sc 0.39282 0.97993 0.38129 0.0
Sc265 Sc 0.39347 0.91677 0.33421 0.0
Sc266 Sc 0.39085 0.91252 0.42121 0.0
O267 O 0.39274 0.93674 0.3789 0.0
C268 C 0.44519 0.98753 0.43538 0.0
C269 C 0.4339 0.99263 0.31379 0.0
C270 C 0.44138 0.90221 0.37503 0.0
C271 C 0.33722 0.93574 0.32918 0.0
C272 C 0.34882 0.94447 0.44596 0.0
C273 C 0.34481 0.85242 0.37613 0.0
O274 O 0.43478 0.0003 0.41397 0.0
O275 O 0.42515 0.96264 0.30929 0.0
O276 O 0.4254 0.89935 0.40165 0.0
O277 O 0.35026 0.95963 0.34973 0.0
O278 O 0.35641 0.92214 0.44738 0.0
O279 O 0.36112 0.86697 0.35022 0.0
O280 O 0.36036 0.96662 0.42374 0.0
O281 O 0.35044 0.91893 0.32024 0.0
O282 O 0.34988 0.86674 0.4042 0.0
O283 O 0.42491 0.00228 0.33913 0.0
O284 O 0.43154 0.95673 0.44084 0.0
O285 O 0.43566 0.91228 0.34767 0.0
Sc286 Sc 0.19211 0.53893 0.33993 0.0
Sc287 Sc 0.19488 0.54881 0.4271 0.0
Sc288 Sc 0.12505 0.48422 0.3896 0.0
O289 O 0.17061 0.52414 0.38546 0.0
C290 C 0.1173 0.50954 0.31774 0.0
C291 C 0.2102 0.60657 0.37448 0.0
C292 C 0.12125 0.53461 0.43812 0.0
C293 C 0.25455 0.55449 0.38516 0.0
C294 C 0.16483 0.46157 0.3434 0.0
C295 C 0.1584 0.47704 0.45705 0.0
O296 O 0.1479 0.5283 0.31339 0.0
O297 O 0.20913 0.59492 0.40339 0.0
O298 O 0.10762 0.51189 0.41647 0.0
O299 O 0.2401 0.55156 0.35761 0.0
O300 O 0.14173 0.45563 0.36376 0.0
O301 O 0.18341 0.50563 0.45593 0.0
O302 O 0.18393 0.48997 0.33114 0.0
O303 O 0.2408 0.55214 0.41311 0.0
O304 O 0.13538 0.46719 0.43574 0.0
O305 O 0.20287 0.58917 0.34798 0.0
O306 O 0.10582 0.49272 0.34412 0.0
O307 O 0.15166 0.54847 0.44543 0.0
Sc308 Sc 0.56561 0.71845 0.33799 0.0
Sc309 Sc 0.55764 0.71443 0.42533 0.0
Sc310 Sc 0.62103 0.70716 0.38771 0.0
O311 O 0.5813 0.71313 0.38359 0.0
C312 C 0.59442 0.67217 0.31704 0.0
C313 C 0.49915 0.66949 0.3744 0.0
C314 C 0.57179 0.65531 0.4388 0.0
C315 C 0.55083 0.76676 0.38155 0.0
C316 C 0.64303 0.76783 0.33899 0.0
C317 C 0.63016 0.75078 0.45329 0.0
O318 O 0.57618 0.68453 0.3123 0.0
O319 O 0.51098 0.68119 0.40301 0.0
O320 O 0.59389 0.66335 0.41663 0.0
O321 O 0.55265 0.75391 0.35445 0.0
O322 O 0.64922 0.75103 0.35962 0.0
O323 O 0.60158 0.74728 0.45248 0.0
O324 O 0.6143 0.75886 0.32785 0.0
O325 O 0.5544 0.75677 0.40982 0.0
O326 O 0.63937 0.73654 0.43255 0.0
O327 O 0.51592 0.67909 0.34752 0.0
O328 O 0.61117 0.67748 0.34347 0.0
O329 O 0.55827 0.67231 0.44552 0.0
Sc330 Sc 0.36688 0.46994 0.96142 0.0
Sc331 Sc 0.37095 0.53474 0.00935 0.0
Sc332 Sc 0.36881 0.5375 0.92198 0.0
O333 O 0.3686 0.51389 0.96429 0.0
C334 C 0.40854 0.50442 0.89494 0.0
C335 C 0.42573 0.51352 0.01037 0.0
C336 C 0.41799 0.59831 0.96575 0.0
C337 C 0.32964 0.45972 0.03128 0.0
C338 C 0.31309 0.46235 0.90985 0.0
C339 C 0.32077 0.54867 0.97094 0.0
O340 O 0.39588 0.4815 0.91636 0.0
O341 O 0.41304 0.53016 0.02135 0.0
O342 O 0.4096 0.58426 0.93748 0.0
O343 O 0.33801 0.44933 0.00605 0.0
O344 O 0.32832 0.49288 0.90277 0.0
O345 O 0.32993 0.54177 0.99819 0.0
O346 O 0.32247 0.44969 0.93238 0.0
O347 O 0.33837 0.48977 0.0349 0.0
O348 O 0.33369 0.54929 0.94284 0.0
O349 O 0.41176 0.49017 0.98934 0.0
O350 O 0.40331 0.52841 0.89526 0.0
O351 O 0.40457 0.58367 0.9927 0.0
Sc352 Sc 0.57185 0.90887 0.00972 0.0
Sc353 Sc 0.5674 0.90362 0.92247 0.0
Sc354 Sc 0.6371 0.96787 0.96081 0.0
O355 O 0.59233 0.92672 0.96434 0.0
C356 C 0.5969 0.98566 0.01225 0.0
C357 C 0.5081 0.89394 0.96706 0.0
C358 C 0.60214 0.97712 0.8959 0.0
C359 C 0.55429 0.84376 0.97142 0.0
C360 C 0.64767 0.93976 0.02944 0.0
C361 C 0.64128 0.92034 0.9079 0.0
O362 O 0.57739 0.95623 0.02172 0.0
O363 O 0.52214 0.90083 0.93873 0.0
O364 O 0.62459 0.98739 0.91788 0.0
O365 O 0.56399 0.86024 0.99848 0.0
O366 O 0.65839 0.95689 1.00314 0.0
O367 O 0.61039 0.90422 0.90267 0.0
O368 O 0.6172 0.92116 0.03473 0.0
O369 O 0.55283 0.85641 0.94388 0.0
O370 O 0.65489 0.9437 0.92888 0.0
O371 O 0.52269 0.89367 0.99355 0.0
O372 O 0.62043 0.99342 0.99186 0.0
O373 O 0.5788 0.94759 0.89519 0.0
Sc374 Sc 0.19539 0.7292 1.00578 0.0
Sc375 Sc 0.20353 0.73556 0.91851 0.0
Sc376 Sc 0.13818 0.7388 0.95719 0.0
O377 O 0.17917 0.73481 0.96056 0.0
C378 C 0.11833 0.67801 1.00505 0.0
C379 C 0.21057 0.68233 0.96008 0.0
C380 C 0.13071 0.69747 0.89048 0.0
C381 C 0.26203 0.77913 0.96995 0.0
C382 C 0.16502 0.77393 0.02784 0.0
C383 C 0.18657 0.79294 0.90703 0.0
O384 O 0.14728 0.68768 0.01592 0.0
O385 O 0.20733 0.69325 0.93223 0.0
O386 O 0.12012 0.70931 0.9125 0.0
O387 O 0.24507 0.7695 0.99674 0.0
O388 O 0.14797 0.76828 1.00156 0.0
O389 O 0.20237 0.7781 0.90066 0.0
O390 O 0.1839 0.76221 0.03228 0.0
O391 O 0.24994 0.76782 0.94137 0.0
O392 O 0.16321 0.78266 0.92804 0.0
O393 O 0.20859 0.69431 0.98775 0.0
O394 O 0.11138 0.69468 0.9851 0.0
O395 O 0.16018 0.70342 0.89022 0.0
H396 H 0.22417 0.1438 0.75965 0.0
H397 H 0.18995 0.11629 0.65842 0.0
H398 H 0.205 0.18335 0.75926 0.0
H399 H 0.1694 0.15439 0.65853 0.0
H400 H 0.14328 0.23341 0.66001 0.0
H401 H 0.17773 0.20807 0.65895 0.0
H402 H 0.1541 0.18035 0.76237 0.0
H403 H 0.12139 0.2067 0.76386 0.0
C404 C 0.21263 0.14625 0.73731 0.0
C405 C 0.20828 0.12662 0.70924 0.0
C406 C 0.20149 0.16883 0.73708 0.0
C407 C 0.18519 0.17188 0.709 0.0
C408 C 0.18216 0.15319 0.68047 0.0
C409 C 0.19375 0.13103 0.68052 0.0
C410 C 0.14598 0.22242 0.68264 0.0
C411 C 0.1292 0.22183 0.71187 0.0
C412 C 0.16555 0.20767 0.682 0.0
C413 C 0.16855 0.1918 0.7105 0.0
C414 C 0.15293 0.19265 0.74003 0.0
C415 C 0.13375 0.20759 0.74077 0.0
H416 H 0.0039 0.14196 0.66648 0.0
H417 H 0.95662 0.14666 0.75697 0.0
H418 H 0.96601 0.0834 0.66275 0.0
H419 H 0.91731 0.08807 0.75237 0.0
H420 H 0.88929 0.98021 0.76111 0.0
H421 H 0.91708 0.03925 0.76083 0.0
H422 H 0.91326 0.03882 0.65311 0.0
H423 H 0.88661 0.97891 0.65335 0.0
C424 C 0.98496 0.13055 0.6853 0.0
C425 C 0.98356 0.14892 0.7123 0.0
C426 C 0.96293 0.09688 0.68297 0.0
C427 C 0.93852 0.08069 0.70731 0.0
C428 C 0.9362 0.09944 0.73352 0.0
C429 C 0.95867 0.13309 0.73617 0.0
C430 C 0.89401 0.99247 0.73721 0.0
C431 C 0.8861 0.9746 0.70717 0.0
C432 C 0.90977 0.02663 0.73711 0.0
C433 C 0.91778 0.04414 0.70697 0.0
C434 C 0.90813 0.02625 0.67684 0.0
C435 C 0.89257 0.99184 0.67693 0.0
H436 H 0.95411 0.885 0.6618 0.0
H437 H 0.966 0.91364 0.76549 0.0
H438 H 0.01308 0.90706 0.65693 0.0
H439 H 0.02504 0.9366 0.76039 0.0
H440 H 0.12855 0.95995 0.75034 0.0
H441 H 0.06907 0.92635 0.75305 0.0
H442 H 0.0617 0.95955 0.65463 0.0
H443 H 0.12151 0.99235 0.65156 0.0
C444 C 0.96928 0.89583 0.68366 0.0
C445 C 0.95529 0.89772 0.71403 0.0
C446 C 0.00317 0.90869 0.68077 0.0
C447 C 0.024 0.92393 0.70812 0.0
C448 C 0.00982 0.92467 0.73884 0.0
C449 C 0.97588 0.91158 0.7418 0.0
C450 C 0.11424 0.95966 0.72904 0.0
C451 C 0.1297 0.97905 0.70083 0.0
C452 C 0.08008 0.94056 0.73071 0.0
C453 C 0.06042 0.94064 0.70437 0.0
C454 C 0.07599 0.95866 0.67535 0.0
C455 C 0.11031 0.97753 0.67353 0.0
H456 H 0.9497 0.87778 0.26056 0.0
H457 H 0.98641 0.91829 0.35814 0.0
H458 H 0.9175 0.90526 0.2592 0.0
H459 H 0.95511 0.94693 0.35637 0.0
H460 H 0.88277 0.98327 0.35165 0.0
H461 H 0.90369 0.94535 0.356 0.0
H462 H 0.92944 0.95996 0.25147 0.0
H463 H 0.90757 -0.00299 0.24693 0.0
C464 C 0.95061 0.89235 0.28191 0.0
C465 C 0.9708 0.89611 0.30936 0.0
C466 C 0.93236 0.90834 0.28101 0.0
C467 C 0.93415 0.92891 0.30734 0.0
C468 C 0.95291 0.93115 0.33568 0.0
C469 C 0.9709 0.91475 0.33676 0.0
C470 C 0.89263 0.97815 0.3295 0.0
C471 C 0.89367 0.99338 0.29895 0.0
C472 C 0.90479 0.95649 0.33206 0.0
C473 C 0.91849 0.94965 0.30419 0.0
C474 C 0.91863 0.96417 0.27341 0.0
C475 C 0.90621 0.98561 0.27079 0.0
H476 H 0.13122 0.96767 0.24542 0.0
H477 H 0.10941 0.97109 0.34952 0.0
H478 H 0.16998 0.0266 0.24657 0.0
H479 H 0.1466 0.02975 0.35029 0.0
H480 H 0.22446 0.13516 0.34981 0.0
H481 H 0.19971 0.07547 0.34843 0.0
H482 H 0.16623 0.07421 0.24775 0.0
H483 H 0.19199 0.13323 0.24856 0.0
C484 C 0.13475 0.98094 0.26854 0.0
C485 C 0.11693 0.96466 0.29723 0.0
C486 C 0.15687 0.01478 0.26922 0.0
C487 C 0.16126 0.0332 0.29845 0.0
C488 C 0.14438 0.01654 0.32744 0.0
C489 C 0.1227 0.98275 0.32689 0.0
C490 C 0.21224 0.12211 0.32725 0.0
C491 C 0.21002 0.13908 0.29946 0.0
C492 C 0.19787 0.08784 0.32648 0.0
C493 C 0.18065 0.0698 0.29805 0.0
C494 C 0.17965 0.08705 0.26991 0.0
C495 C 0.19427 0.12113 0.27053 0.0
H496 H 0.13202 0.19062 0.34987 0.0
H497 H 0.13919 0.23951 0.25646 0.0
H498 H 0.07359 0.17117 0.35196 0.0
H499 H 0.08075 0.22132 0.25929 0.0
H500 H 0.97295 0.13958 0.24993 0.0
H501 H 0.03208 0.17165 0.25123 0.0
H502 H 0.02943 0.18109 0.35826 0.0
H503 H 0.96965 0.14731 0.35712 0.0
C504 C 0.12123 0.19779 0.33007 0.0
C505 C 0.14018 0.21619 0.30271 0.0
C506 C 0.08765 0.18686 0.33143 0.0
C507 C 0.07222 0.19443 0.30569 0.0
C508 C 0.09161 0.21437 0.27921 0.0
C509 C 0.12515 0.2249 0.27759 0.0
C510 C 0.98477 0.14874 0.27381 0.0
C511 C 0.96641 0.14028 0.30352 0.0
C512 C 0.01892 0.16754 0.2745 0.0
C513 C 0.03576 0.17881 0.30489 0.0
C514 C 0.01732 0.17222 0.33445 0.0
C515 C 0.98301 0.15306 0.3338 0.0
H516 H 0.89259 0.48064 0.09196 0.0
H517 H 0.84447 0.43615 0.99902 0.0
H518 H 0.87263 0.51947 0.08766 0.0
H519 H 0.82319 0.47352 0.99553 0.0
H520 H 0.79685 0.55227 0.98728 0.0
H521 H 0.83069 0.52621 0.98734 0.0
H522 H 0.82317 0.51843 0.09476 0.0
H523 H 0.79129 0.54558 0.09483 0.0
C524 C 0.87774 0.47913 0.07066 0.0
C525 C 0.86991 0.4551 0.04604 0.0
C526 C 0.86615 0.5013 0.06819 0.0
C527 C 0.84592 0.49957 0.04137 0.0
C528 C 0.83906 0.47614 0.01627 0.0
C529 C 0.85107 0.45439 0.01846 0.0
C530 C 0.80299 0.54551 0.01089 0.0
C531 C 0.79094 0.55077 0.04095 0.0
C532 C 0.82219 0.53031 0.01096 0.0
C533 C 0.82954 0.51981 0.04106 0.0
C534 C 0.81863 0.52647 0.07109 0.0
C535 C 0.79986 0.54186 0.07105 0.0
H536 H 0.52953 0.31137 0.08558 0.0
H537 H 0.56675 0.31688 0.98597 0.0
H538 H 0.55569 0.37096 0.08749 0.0
H539 H 0.59414 0.37664 0.98826 0.0
H540 H 0.63164 0.48469 0.99491 0.0
H541 H 0.59237 0.42617 0.9907 0.0
H542 H 0.61048 0.41377 0.09388 0.0
H543 H 0.64878 0.47234 0.09835 0.0
C544 C 0.54304 0.32538 0.06392 0.0
C545 C 0.5464 0.30952 0.03574 0.0
C546 C 0.55826 0.35956 0.06511 0.0
C547 C 0.57764 0.37876 0.03834 0.0
C548 C 0.57925 0.36273 0.0093 0.0
C549 C 0.56359 0.32843 0.00794 0.0
C550 C 0.62691 0.46951 0.01682 0.0
C551 C 0.64358 0.48317 0.04692 0.0
C552 C 0.60449 0.43589 0.01434 0.0
C553 C 0.59837 0.41507 0.04182 0.0
C554 C 0.61412 0.42902 0.07228 0.0
C555 C 0.6363 0.46267 0.07484 0.0
H556 H 0.62916 0.25586 0.99602 0.0
H557 H 0.62193 0.21977 0.09652 0.0
H558 H 0.68767 0.27554 0.99591 0.0
H559 H 0.6805 0.23823 0.09593 0.0
H560 H 0.78895 0.31895 0.09975 0.0
H561 H 0.72971 0.28842 0.099 0.0
H562 H 0.73129 0.26427 0.99526 0.0
H563 H 0.7912 0.2964 0.9956 0.0
C564 C 0.63997 0.2516 0.01795 0.0
C565 C 0.62089 0.2366 0.04646 0.0
C566 C 0.6736 0.26266 0.01776 0.0
C567 C 0.68903 0.25867 0.04595 0.0
C568 C 0.66963 0.24236 0.07398 0.0
C569 C 0.63601 0.23166 0.07432 0.0
C570 C 0.77685 0.30689 0.07676 0.0
C571 C 0.79501 0.31062 0.04756 0.0
C572 C 0.74264 0.28902 0.07644 0.0
C573 C 0.72548 0.27397 0.04701 0.0
C574 C 0.74364 0.27609 0.01822 0.0
C575 C 0.77803 0.29431 0.01846 0.0
H576 H 0.63921 0.24043 0.58472 0.0
H577 H 0.62846 0.22731 0.69159 0.0
H578 H 0.60759 0.26788 0.58538 0.0
H579 H 0.59502 0.25382 0.69202 0.0
H580 H 0.58188 0.3447 0.6838 0.0
H581 H 0.60327 0.30732 0.68618 0.0
H582 H 0.55723 0.26559 0.59154 0.0
H583 H 0.5371 0.30432 0.58845 0.0
C584 C 0.62958 0.24282 0.60843 0.0
C585 C 0.63688 0.23194 0.63823 0.0
C586 C 0.61099 0.25839 0.60871 0.0
C587 C 0.59869 0.26329 0.63874 0.0
C588 C 0.60458 0.25101 0.66845 0.0
C589 C 0.62356 0.23559 0.66822 0.0
C590 C 0.57606 0.32739 0.66356 0.0
C591 C 0.55813 0.32783 0.63567 0.0
C592 C 0.58813 0.30565 0.6651 0.0
C593 C 0.58225 0.28344 0.63898 0.0
C594 C 0.56293 0.28283 0.6118 0.0
C595 C 0.55125 0.30496 0.61003 0.0
H596 H 0.80002 0.29993 0.58064 0.0
H597 H 0.7722 0.30477 0.68226 0.0
H598 H 0.83938 0.35869 0.58206 0.0
H599 H 0.8101 0.36334 0.6832 0.0
H600 H 0.88877 0.46826 0.68401 0.0
H601 H 0.86377 0.40855 0.6835 0.0
H602 H 0.8363 0.40674 0.58031 0.0
H603 H 0.86233 0.46582 0.58038 0.0
C604 C 0.80237 0.31348 0.60329 0.0
C605 C 0.78267 0.29765 0.63117 0.0
C606 C 0.82483 0.34723 0.60411 0.0
C607 C 0.82776 0.36603 0.63263 0.0
C608 C 0.80901 0.34981 0.66093 0.0
C609 C 0.78694 0.31608 0.66027 0.0
C610 C 0.8779 0.4551 0.66109 0.0
C611 C 0.87729 0.47194 0.63239 0.0
C612 C 0.86334 0.42082 0.66082 0.0
C613 C 0.84762 0.4026 0.63195 0.0
C614 C 0.84848 0.41971 0.60291 0.0
C615 C 0.86324 0.45383 0.60308 0.0
H616 H 0.63589 0.47141 0.58371 0.0
H617 H 0.63549 0.4813 0.69085 0.0
H618 H 0.6951 0.50211 0.58348 0.0
H619 H 0.69541 0.51374 0.69043 0.0
H620 H 0.79676 0.52119 0.68049 0.0
H621 H 0.73851 0.50232 0.68332 0.0
H622 H 0.74481 0.55113 0.58998 0.0
H623 H 0.80314 0.56883 0.58645 0.0
C624 C 0.6484 0.48075 0.60726 0.0
C625 C 0.63078 0.47328 0.63741 0.0
C626 C 0.6826 0.49876 0.60706 0.0
C627 C 0.70029 0.51023 0.63696 0.0
C628 C 0.68264 0.50468 0.66697 0.0
C629 C 0.64824 0.48632 0.66721 0.0
C630 C 0.78582 0.52813 0.66063 0.0
C631 C 0.80457 0.54617 0.63299 0.0
C632 C 0.75234 0.51755 0.66244 0.0
C633 C 0.73671 0.52504 0.63686 0.0
C634 C 0.7558 0.54431 0.60986 0.0
C635 C 0.78929 0.55454 0.60783 0.0
H636 H 0.55745 0.81093 0.43008 0.0
H637 H 0.52458 0.7821 0.3287 0.0
H638 H 0.53911 0.85112 0.42775 0.0
H639 H 0.50483 0.82078 0.32687 0.0
H640 H 0.48015 0.90055 0.32421 0.0
H641 H 0.514 0.87456 0.32544 0.0
H642 H 0.48905 0.84981 0.42923 0.0
H643 H 0.45702 0.87689 0.42845 0.0
C644 C 0.54636 0.81319 0.4073 0.0
C645 C 0.54221 0.79306 0.37973 0.0
C646 C 0.53569 0.83614 0.40596 0.0
C647 C 0.52008 0.83909 0.37722 0.0
C648 C 0.51713 0.81974 0.34927 0.0
C649 C 0.52824 0.79723 0.35044 0.0
C650 C 0.48247 0.89011 0.34742 0.0
C651 C 0.46547 0.89052 0.37607 0.0
C652 C 0.50168 0.87495 0.3481 0.0
C653 C 0.50406 0.85964 0.37736 0.0
C654 C 0.48834 0.86161 0.40633 0.0
C655 C 0.46954 0.87697 0.40574 0.0
H656 H 0.29257 0.81556 0.41738 0.0
H657 H 0.3409 0.80931 0.3284 0.0
H658 H 0.25368 0.75681 0.41392 0.0
H659 H 0.30333 0.75054 0.32582 0.0
H660 H 0.2235 0.64547 0.31842 0.0
H661 H 0.25051 0.70541 0.31656 0.0
H662 H 0.25416 0.70852 0.42429 0.0
H663 H 0.22611 0.64949 0.42614 0.0
C664 C 0.29494 0.80162 0.39715 0.0
C665 C 0.32002 0.81707 0.3734 0.0
C666 C 0.27271 0.76787 0.39516 0.0
C667 C 0.27544 0.74863 0.36976 0.0
C668 C 0.29999 0.76441 0.34545 0.0
C669 C 0.32181 0.7982 0.34712 0.0
C670 C 0.22953 0.65901 0.34165 0.0
C671 C 0.22287 0.64251 0.37237 0.0
C672 C 0.24529 0.69342 0.34063 0.0
C673 C 0.25489 0.71205 0.37029 0.0
C674 C 0.24684 0.69531 0.40088 0.0
C675 C 0.23093 0.66116 0.40191 0.0
H676 H 0.2999 0.58026 0.43542 0.0
H677 H 0.28877 0.54992 0.33228 0.0
H678 H 0.35887 0.60263 0.43113 0.0
H679 H 0.34772 0.5714 0.32826 0.0
H680 H 0.4559 0.65754 0.32329 0.0
H681 H 0.39613 0.62416 0.32574 0.0
H682 H 0.40291 0.59214 0.42496 0.0
H683 H 0.46237 0.62637 0.42286 0.0
C684 C 0.30993 0.57768 0.41204 0.0
C685 C 0.28962 0.5636 0.38413 0.0
C686 C 0.34382 0.59042 0.40957 0.0
C687 C 0.3582 0.58907 0.37922 0.0
C688 C 0.33762 0.57347 0.3518 0.0
C689 C 0.30377 0.56097 0.3542 0.0
C690 C 0.44459 0.64286 0.34531 0.0
C691 C 0.46375 0.64492 0.37303 0.0
C692 C 0.41031 0.62364 0.34676 0.0
C693 C 0.39459 0.60581 0.37581 0.0
C694 C 0.41406 0.6062 0.40257 0.0
C695 C 0.44818 0.62567 0.40127 0.0
H696 H 0.20314 0.6415 0.01187 0.0
H697 H 0.23713 0.6635 0.91002 0.0
H698 H 0.22247 0.60225 0.01532 0.0
H699 H 0.2576 0.62526 0.91379 0.0
H700 H 0.30635 0.57751 0.02238 0.0
H701 H 0.27382 0.60464 0.01953 0.0
H702 H 0.2463 0.57053 0.91817 0.0
H703 H 0.27995 0.54461 0.9207 0.0
C704 C 0.21462 0.63784 0.99015 0.0
C705 C 0.21889 0.65585 0.96075 0.0
C706 C 0.22586 0.61543 0.99219 0.0
C707 C 0.24194 0.61075 0.965 0.0
C708 C 0.24495 0.6278 0.93514 0.0
C709 C 0.23336 0.64993 0.93297 0.0
C710 C 0.2928 0.57526 0.99976 0.0
C711 C 0.29605 0.55933 0.97164 0.0
C712 C 0.27403 0.59075 0.99809 0.0
C713 C 0.25777 0.59025 0.96839 0.0
C714 C 0.25917 0.5722 0.94112 0.0
C715 C 0.27827 0.55713 0.94265 0.0
H716 H 0.5477 0.80336 0.02447 0.0
H717 H 0.53196 0.80232 0.91816 0.0
H718 H 0.52077 0.74343 0.02405 0.0
H719 H 0.50397 0.74326 0.91805 0.0
H720 H 0.46487 0.63581 0.91937 0.0
H721 H 0.50466 0.6944 0.92238 0.0
H722 H 0.46703 0.69899 0.01942 0.0
H723 H 0.42871 0.64048 0.01706 0.0
C724 C 0.53879 0.79048 1.00102 0.0
C725 C 0.54174 0.8078 0.97148 0.0
C726 C 0.52309 0.75607 1.00078 0.0
C727 C 0.50978 0.73826 0.97104 0.0
C728 C 0.51418 0.75583 0.94138 0.0
C729 C 0.53006 0.78999 0.94155 0.0
C730 C 0.46537 0.64935 0.94143 0.0
C731 C 0.44341 0.63351 0.96779 0.0
C732 C 0.48811 0.683 0.94317 0.0
C733 C 0.48899 0.70172 0.97105 0.0
C734 C 0.46761 0.68552 0.99778 0.0
C735 C 0.44531 0.65187 0.99627 0.0
H736 H 0.30457 0.8023 0.91762 0.0
H737 H 0.30125 0.80969 0.02484 0.0
H738 H 0.3635 0.83463 0.91875 0.0
H739 H 0.36109 0.84404 0.02581 0.0
H740 H 0.46593 0.85961 0.01744 0.0
H741 H 0.40713 0.8377 0.01973 0.0
H742 H 0.41126 0.88444 0.92558 0.0
H743 H 0.47019 0.90492 0.92251 0.0
C744 C 0.31634 0.81137 0.94154 0.0
C745 C 0.29792 0.80287 0.97126 0.0
C746 C 0.35046 0.8304 0.9421 0.0
C747 C 0.36743 0.84205 0.97235 0.0
C748 C 0.34898 0.83501 1.00204 0.0
C749 C 0.3146 0.8155 1.00152 0.0
C750 C 0.45439 0.8655 0.99731 0.0
C751 C 0.47276 0.8837 0.96953 0.0
C752 C 0.42053 0.85312 0.99879 0.0
C753 C 0.40409 0.85896 0.97276 0.0
C754 C 0.42282 0.87867 0.94576 0.0
C755 C 0.45669 0.8906 0.94401 0.0
H756 H 0.12039 0.39156 0.65397 0.0
H757 H 0.11164 0.31265 0.59149 0.0
H758 H 0.13961 0.42852 0.60613 0.0
H759 H 0.13101 0.34971 0.54385 0.0
H760 H 0.19302 0.49271 0.51588 0.0
H761 H 0.1837 0.457 0.56386 0.0
H762 H 0.10608 0.37555 0.51026 0.0
H763 H 0.11539 0.41101 0.46239 0.0
C764 C 0.12315 0.38219 0.63025 0.0
C765 C 0.11412 0.34891 0.62671 0.0
C766 C 0.13428 0.40347 0.60278 0.0
C767 C 0.13648 0.392 0.57101 0.0
C768 C 0.12908 0.35922 0.56783 0.0
C769 C 0.11819 0.33801 0.5953 0.0
C770 C 0.17423 0.46709 0.51416 0.0
C771 C 0.15488 0.45483 0.48521 0.0
C772 C 0.16876 0.44668 0.54178 0.0
C773 C 0.14411 0.4134 0.54099 0.0
C774 C 0.12551 0.40094 0.51166 0.0
C775 C 0.13072 0.42138 0.48422 0.0
H776 H 0.6168 0.77575 0.50934 0.0
H777 H 0.69549 0.7704 0.45949 0.0
H778 H 0.65317 0.80361 0.55641 0.0
H779 H 0.73156 0.79786 0.5066 0.0
H780 H 0.79717 0.86658 0.58599 0.0
H781 H 0.76077 0.84946 0.53775 0.0
H782 H 0.67838 0.7879 0.6011 0.0
H783 H 0.71458 0.80521 0.64943 0.0
C784 C 0.64191 0.78079 0.50819 0.0
C785 C 0.65306 0.77057 0.48059 0.0
C786 C 0.66272 0.79661 0.53532 0.0
C787 C 0.69529 0.8029 0.53542 0.0
C788 C 0.70676 0.79377 0.50728 0.0
C789 C 0.68594 0.77776 0.4803 0.0
C790 C 0.77119 0.84991 0.58984 0.0
C791 C 0.75898 0.83711 0.62173 0.0
C792 C 0.75035 0.83987 0.56205 0.0
C793 C 0.71669 0.81695 0.56541 0.0
C794 C 0.70412 0.8057 0.59756 0.0
C795 C 0.72498 0.81559 0.62533 0.0
H796 H 0.29872 0.97761 0.64195 0.0
H797 H 0.23384 -0.00442 0.58045 0.0
H798 H 0.31444 0.95757 0.59341 0.0
H799 H 0.24923 0.97495 0.53199 0.0
H800 H 0.32621 0.90738 0.50307 0.0
H801 H 0.29874 0.91599 0.5504 0.0
H802 H 0.29828 -0.004 0.49804 0.0
H803 H 0.32516 0.98713 0.45063 0.0
C804 C 0.28723 0.97665 0.61826 0.0
C805 C 0.26522 0.98861 0.61524 0.0
C806 C 0.29619 0.96499 0.59034 0.0
C807 C 0.28342 0.96495 0.5586 0.0
C808 C 0.26002 0.97516 0.55591 0.0
C809 C 0.25099 0.98677 0.58384 0.0
C810 C 0.31978 0.92648 0.50138 0.0
C811 C 0.32821 0.9467 0.47298 0.0
C812 C 0.30421 0.93156 0.52868 0.0
C813 C 0.29648 0.95687 0.52825 0.0
C814 C 0.30352 0.97606 0.49923 0.0
C815 C 0.31917 0.97108 0.47201 0.0
H816 H 0.38071 0.13397 0.97752 0.0
H817 H 0.46256 0.19907 0.91508 0.0
H818 H 0.34468 0.11651 0.92898 0.0
H819 H 0.42638 0.1817 0.86666 0.0
H820 H 0.36242 0.10422 0.78634 0.0
H821 H 0.39819 0.13053 0.83402 0.0
H822 H 0.31886 0.13323 0.88536 0.0
H823 H 0.28286 0.10665 0.83772 0.0
C824 C 0.39097 0.14504 0.9536 0.0
C825 C 0.42472 0.16781 0.95035 0.0
C826 C 0.37022 0.13507 0.92572 0.0
C827 C 0.38267 0.14744 0.8938 0.0
C828 C 0.41607 0.1713 0.89078 0.0
C829 C 0.43678 0.18145 0.91867 0.0
C830 C 0.35261 0.11069 0.80762 0.0
C831 C 0.31961 0.10307 0.80813 0.0
C832 C 0.37324 0.126 0.83494 0.0
C833 C 0.36141 0.13392 0.86364 0.0
C834 C 0.32868 0.12715 0.86382 0.0
C835 C 0.3081 0.11209 0.83636 0.0
H836 H 0.98802 0.31547 0.79305 0.0
H837 H -0.00227 0.24145 0.84743 0.0
H838 H 0.9621 0.32438 0.84136 0.0
H839 H 0.97144 0.25025 0.89577 0.0
H840 H 0.898 0.32116 0.92574 0.0
H841 H 0.9137 0.30049 0.87757 0.0
H842 H 0.98723 0.29461 0.93682 0.0
H843 H 0.9714 0.31496 0.98516 0.0
C844 C 0.98419 0.3007 0.81511 0.0
C845 C -0.00478 0.27787 0.81627 0.0
C846 C 0.96911 0.3057 0.84284 0.0
C847 C 0.96479 0.28815 0.8726 0.0
C848 C 0.97472 0.26445 0.8734 0.0
C849 C 0.98959 0.25926 0.84555 0.0
C850 C 0.91711 0.3149 0.92879 0.0
C851 C 0.93359 0.32009 0.95946 0.0
C852 C 0.92628 0.30326 0.901 0.0
C853 C 0.95203 0.29627 0.90313 0.0
C854 C 0.96718 0.29956 0.93426 0.0
C855 C 0.95813 0.31136 0.96204 0.0
H856 H 0.79372 0.72292 0.98267 0.0
H857 H 0.77381 0.64059 0.91937 0.0
H858 H 0.81283 0.75918 0.93442 0.0
H859 H 0.79331 0.67706 0.8712 0.0
H860 H 0.77937 0.74193 0.79255 0.0
H861 H 0.77078 0.70591 0.83968 0.0
H862 H 0.85402 0.78475 0.89007 0.0
H863 H 0.86251 0.82107 0.84296 0.0
C864 C 0.79405 0.7126 0.95863 0.0
C865 C 0.78185 0.67865 0.95504 0.0
C866 C 0.80515 0.7335 0.93089 0.0
C867 C 0.80424 0.72101 0.89879 0.0
C868 C 0.79382 0.68741 0.89546 0.0
C869 C 0.78288 0.66653 0.92321 0.0
C870 C 0.7961 0.7516 0.81349 0.0
C871 C 0.82151 0.78458 0.81392 0.0
C872 C 0.7913 0.7308 0.84049 0.0
C873 C 0.81165 0.74241 0.86879 0.0
C874 C 0.83768 0.77509 0.86884 0.0
C875 C 0.84265 0.79587 0.8417 0.0
H876 H 0.89677 0.62757 0.50329 0.0
H877 H 0.97453 0.70872 0.55734 0.0
H878 H 0.90656 0.6635 0.45556 0.0
H879 H 0.98459 0.74431 0.50955 0.0
H880 H 0.98608 0.80784 0.42581 0.0
H881 H 0.96414 0.77187 0.47411 0.0
H882 H 0.94966 0.68952 0.4139 0.0
H883 H 0.97103 0.72526 0.36546 0.0
C884 C 0.91565 0.65314 0.50524 0.0
C885 C 0.93501 0.66509 0.5342 0.0
C886 C 0.92141 0.6737 0.47772 0.0
C887 C 0.94655 0.70678 0.47852 0.0
C888 C 0.96481 0.71909 0.50807 0.0
C889 C 0.95914 0.69854 0.5355 0.0
C890 C 0.97769 0.78196 0.42264 0.0
C891 C 0.9807 0.76962 0.39165 0.0
C892 C 0.9653 0.76135 0.45047 0.0
C893 C 0.95548 0.72783 0.44808 0.0
C894 C 0.95674 0.71513 0.41669 0.0
C895 C 0.96918 0.73573 0.38885 0.0
H896 H 0.30015 0.24196 0.42434 0.0
H897 H 0.38073 0.31375 0.36476 0.0
H898 H 0.33593 0.25832 0.47302 0.0
H899 H 0.41633 0.3302 0.41357 0.0
H900 H 0.4788 0.34102 0.50406 0.0
H901 H 0.44399 0.31444 0.45571 0.0
H902 H 0.36072 0.30752 0.50847 0.0
H903 H 0.39532 0.33381 0.55688 0.0
C904 C 0.32562 0.26082 0.42137 0.0
C905 C 0.33736 0.27667 0.39048 0.0
C906 C 0.34608 0.27039 0.44945 0.0
C907 C 0.37893 0.29588 0.44739 0.0
C908 C 0.39123 0.31037 0.4161 0.0
C909 C 0.37072 0.30095 0.38804 0.0
C910 C 0.45296 0.33341 0.50561 0.0
C911 C 0.44 0.3398 0.53447 0.0
C912 C 0.43305 0.31834 0.47772 0.0
C913 C 0.39957 0.30897 0.47805 0.0
C914 C 0.38631 0.3141 0.50739 0.0
C915 C 0.40625 0.32938 0.53516 0.0
H916 H 0.7619 0.20241 0.50179 0.0
H917 H 0.75979 0.12084 0.55367 0.0
H918 H 0.78926 0.19337 0.45463 0.0
H919 H 0.78695 0.11178 0.50644 0.0
H920 H 0.85689 0.11702 0.42626 0.0
H921 H 0.83882 0.13566 0.47434 0.0
H922 H 0.77309 0.15061 0.4112 0.0
H923 H 0.7912 0.13219 0.36305 0.0
C924 C 0.76754 0.18277 0.50335 0.0
C925 C 0.7584 0.16225 0.53158 0.0
C926 C 0.78309 0.17749 0.47618 0.0
C927 C 0.79022 0.15179 0.47665 0.0
C928 C 0.78213 0.13201 0.50533 0.0
C929 C 0.76633 0.13708 0.53237 0.0
C930 C 0.83905 0.12488 0.42242 0.0
C931 C 0.8254 0.12286 0.39065 0.0
C932 C 0.82849 0.1353 0.45011 0.0
C933 C 0.80424 0.1443 0.44674 0.0
C934 C 0.79193 0.14404 0.41471 0.0
C935 C 0.80227 0.13336 0.38706 0.0
H936 H 0.81478 0.00751 0.16789 0.0
H937 H 0.73286 0.00295 0.22148 0.0
H938 H 0.77899 0.98069 0.12008 0.0
H939 H 0.69742 0.97663 0.17377 0.0
H940 H 0.71471 0.98031 0.02999 0.0
H941 H 0.75134 -0.00377 0.07793 0.0
H942 H 0.67091 0.92735 0.13944 0.0
H943 H 0.63409 0.91167 0.09168 0.0
C944 C 0.78909 0.00042 0.16971 0.0
C945 C 0.77683 0.00762 0.19859 0.0
C946 C 0.76861 0.98524 0.14217 0.0
C947 C 0.7353 0.97658 0.14294 0.0
C948 C 0.72281 0.98258 0.17233 0.0
C949 C 0.74327 -0.00207 0.19971 0.0
C950 C 0.70488 0.96805 0.05355 0.0
C951 C 0.67123 0.94493 0.05687 0.0
C952 C 0.72599 0.97714 0.0811 0.0
C953 C 0.71402 0.96341 0.11273 0.0
C954 C 0.68084 0.93889 0.11561 0.0
C955 C 0.65975 0.92972 0.08807 0.0
H956 H 0.19042 0.78417 0.09126 0.0
H957 H 0.12593 0.80202 0.02899 0.0
H958 H 0.17375 0.80366 0.13966 0.0
H959 H 0.10899 0.82102 0.07749 0.0
H960 H 0.09684 0.8708 0.16876 0.0
H961 H 0.12414 0.86229 0.12118 0.0
H962 H 0.12362 0.78133 0.17255 0.0
H963 H 0.09684 0.79004 0.22017 0.0
C964 C 0.17311 0.79273 0.08769 0.0
C965 C 0.15936 0.79118 0.05608 0.0
C966 C 0.16333 0.80367 0.11559 0.0
C967 C 0.13967 0.81352 0.11264 0.0
C968 C 0.12739 0.81382 0.08073 0.0
C969 C 0.13707 0.80277 0.05285 0.0
C970 C 0.10292 0.85145 0.17013 0.0
C971 C 0.09436 0.83099 0.19836 0.0
C972 C 0.11842 0.84645 0.1427 0.0
C973 C 0.126 0.82103 0.14288 0.0
C974 C 0.11853 0.80139 0.1716 0.0
C975 C 0.1029 0.80625 0.1989 0.0
H976 H 0.31739 0.47449 0.09395 0.0
H977 H 0.3041 0.39288 0.03302 0.0
H978 H 0.29789 0.43858 0.14253 0.0
H979 H 0.28476 0.35711 0.08173 0.0
H980 H 0.3125 0.37589 0.22416 0.0
H981 H 0.32164 0.41145 0.17635 0.0
H982 H 0.24102 0.33115 0.12453 0.0
H983 H 0.23187 0.29542 0.17227 0.0
C984 C 0.30979 0.4488 0.0907 0.0
C985 C 0.3126 0.43673 0.05945 0.0
C986 C 0.29884 0.42826 0.11868 0.0
C987 C 0.29008 0.39505 0.11613 0.0
C988 C 0.29112 0.38253 0.08457 0.0
C989 C 0.30234 0.40311 0.05661 0.0
C990 C 0.2964 0.36586 0.20279 0.0
C991 C 0.27156 0.33265 0.20212 0.0
C992 C 0.30155 0.38634 0.17539 0.0
C993 C 0.28218 0.37411 0.1465 0.0
C994 C 0.25662 0.34124 0.14624 0.0
C995 C 0.25125 0.32082 0.17376 0.0
H996 H 0.13255 0.53534 0.25446 0.0
H997 H 0.05011 0.47063 0.31644 0.0
H998 H 0.09628 0.51979 0.2062 0.0
H999 H 0.01406 0.45477 0.26809 0.0
H1000 H 0.95171 0.44431 0.17801 0.0
H1001 H 0.98803 0.47091 0.22544 0.0
H1002 H 0.06779 0.47076 0.17218 0.0
H1003 H 0.03181 0.44472 0.12472 0.0
C1004 C 0.10664 0.51817 0.25799 0.0
C1005 C 0.09444 0.5041 0.28948 0.0
C1006 C 0.08585 0.50904 0.23017 0.0
C1007 C 0.05224 0.48571 0.23306 0.0
C1008 C 0.03972 0.47298 0.26487 0.0
C1009 C 0.06051 0.48201 0.29267 0.0
C1010 C 0.97713 0.45041 0.17617 0.0
C1011 C 0.98866 0.4421 0.14746 0.0
C1012 C -0.00208 0.46547 0.20352 0.0
C1013 C 0.03085 0.47284 0.20284 0.0
C1014 C 0.04271 0.46581 0.17358 0.0
C1015 C 0.02193 0.45064 0.14633 0.0
H1016 H 0.63246 0.64288 0.31606 0.0
H1017 H 0.56967 0.66292 0.25348 0.0
H1018 H 0.64951 0.62407 0.26743 0.0
H1019 H 0.58656 0.64379 0.20498 0.0
H1020 H 0.66088 0.57459 0.17519 0.0
H1021 H 0.63334 0.58291 0.22267 0.0
H1022 H 0.63815 0.66685 0.17342 0.0
H1023 H 0.66535 0.65846 0.12589 0.0
C1024 C 0.62171 0.64264 0.29211 0.0
C1025 C 0.5999 0.6548 0.28881 0.0
C1026 C 0.63146 0.63174 0.26416 0.0
C1027 C 0.61974 0.63281 0.23218 0.0
C1028 C 0.59651 0.64318 0.22915 0.0
C1029 C 0.58662 0.65391 0.25709 0.0
C1030 C 0.65569 0.59458 0.17424 0.0
C1031 C 0.66558 0.61597 0.14667 0.0
C1032 C 0.64006 0.59945 0.2016 0.0
C1033 C 0.63362 0.62561 0.20197 0.0
C1034 C 0.64239 0.64623 0.17388 0.0
C1035 C 0.65822 0.64153 0.14665 0.0
H1036 H 0.45192 0.07709 0.12178 0.0
H1037 H 0.52664 0.16058 0.17588 0.0
H1038 H 0.44419 0.04194 0.16943 0.0
H1039 H 0.51906 0.12514 0.22356 0.0
H1040 H 0.45701 0.05907 0.31331 0.0
H1041 H 0.47603 0.09581 0.26543 0.0
H1042 H 0.46916 0.01734 0.20378 0.0
H1043 H 0.44973 0.98036 0.25154 0.0
C1044 C 0.46703 0.08794 0.14367 0.0
C1045 C 0.48977 0.12181 0.14493 0.0
C1046 C 0.46274 0.06766 0.17099 0.0
C1047 C 0.48094 0.08067 0.20045 0.0
C1048 C 0.50439 0.11436 0.20141 0.0
C1049 C 0.50887 0.13465 0.17395 0.0
C1050 C 0.46011 0.04972 0.28973 0.0
C1051 C 0.45144 0.01653 0.28638 0.0
C1052 C 0.47116 0.0709 0.26222 0.0
C1053 C 0.47375 0.05946 0.23058 0.0
C1054 C 0.4669 0.02682 0.22763 0.0
C1055 C 0.456 0.00566 0.25517 0.0
H1056 H 0.65256 0.14174 0.75961 0.0
H1057 H 0.63314 0.0583 0.69835 0.0
H1058 H 0.63328 0.10631 0.80852 0.0
H1059 H 0.61428 0.02305 0.74737 0.0
H1060 H 0.64639 0.04299 0.88976 0.0
H1061 H 0.65517 0.07824 0.84185 0.0
H1062 H 0.57315 -0.00192 0.7914 0.0
H1063 H 0.56453 0.96257 0.8392 0.0
C1064 C 0.6437 0.11577 0.75637 0.0
C1065 C 0.64472 0.10305 0.72487 0.0
C1066 C 0.63288 0.09547 0.78457 0.0
C1067 C 0.62259 0.06185 0.78206 0.0
C1068 C 0.62182 0.04876 0.75029 0.0
C1069 C 0.63277 0.06907 0.72209 0.0
C1070 C 0.62992 0.0329 0.86867 0.0
C1071 C 0.60487 -0.00024 0.86842 0.0
C1072 C 0.63486 0.05324 0.84118 0.0
C1073 C 0.61499 0.04101 0.81258 0.0
C1074 C 0.5892 0.00822 0.81279 0.0
C1075 C 0.58413 0.9879 0.84037 0.0
H1076 H 0.14622 0.67724 0.83243 0.0
H1077 H 0.06431 0.67303 0.88576 0.0
H1078 H 0.11031 0.6494 0.78508 0.0
H1079 H 0.02866 0.64557 0.83837 0.0
H1080 H 0.96577 0.57783 0.75702 0.0
H1081 H 0.00266 0.59509 0.80486 0.0
H1082 H 0.08222 0.66438 0.74274 0.0
H1083 H 0.04555 0.64698 0.69479 0.0
C1084 C 0.12051 0.67009 0.83427 0.0
C1085 C 0.10828 0.67764 0.86294 0.0
C1086 C 0.09997 0.65427 0.807 0.0
C1087 C 0.06661 0.64534 0.80782 0.0
C1088 C 0.05412 0.65176 0.83697 0.0
C1089 C 0.07468 0.66776 0.86411 0.0
C1090 C 0.99128 0.59627 0.75331 0.0
C1091 C 0.00251 0.61119 0.72195 0.0
C1092 C 0.01238 0.60636 0.78088 0.0
C1093 C 0.04531 0.63143 0.77778 0.0
C1094 C 0.05706 0.64489 0.74603 0.0
C1095 C 0.03593 0.63495 0.71849 0.0
H1096 H 0.4531 0.46444 0.69849 0.0
H1097 H 0.52471 0.4564 0.75922 0.0
H1098 H 0.43683 0.48471 0.74662 0.0
H1099 H 0.50852 0.4769 0.80716 0.0
H1100 H 0.43318 0.46266 0.89028 0.0
H1101 H 0.45899 0.45308 0.84228 0.0
H1102 H 0.45339 0.5294 0.788 0.0
H1103 H 0.42729 0.53895 0.83607 0.0
C1104 C 0.46585 0.46756 0.72188 0.0
C1105 C 0.49007 0.45843 0.72487 0.0
C1106 C 0.45657 0.47933 0.74951 0.0
C1107 C 0.47111 0.48211 0.78089 0.0
C1108 C 0.49645 0.47457 0.78349 0.0
C1109 C 0.50589 0.46301 0.75585 0.0
C1110 C 0.43778 0.47773 0.86831 0.0
C1111 C 0.42793 0.50148 0.86711 0.0
C1112 C 0.4528 0.47235 0.84078 0.0
C1113 C 0.45818 0.49038 0.81117 0.0
C1114 C 0.44931 0.51485 0.81029 0.0
C1115 C 0.43454 0.52047 0.83797 0.0
H1116 H 0.15032 0.30025 0.80801 0.0
H1117 H 0.13894 0.38407 0.786 0.0
H1118 H 0.19902 0.33502 0.84077 0.0
H1119 H 0.18716 0.41869 0.81974 0.0
H1120 H 0.26485 0.39966 0.92459 0.0
H1121 H 0.21538 0.36496 0.89237 0.0
H1122 H 0.24545 0.44171 0.81856 0.0
H1123 H 0.2941 0.47664 0.85111 0.0
C1124 C 0.1581 0.32608 0.81036 0.0
C1125 C 0.14082 0.33946 0.7944 0.0
C1126 C 0.18589 0.34594 0.82932 0.0
C1127 C 0.19686 0.37955 0.83296 0.0
C1128 C 0.17957 0.39295 0.81701 0.0
C1129 C 0.15191 0.37312 0.79776 0.0
C1130 C 0.26084 0.40907 0.90149 0.0
C1131 C 0.2833 0.44089 0.89046 0.0
C1132 C 0.2326 0.38918 0.88297 0.0
C1133 C 0.2265 0.40065 0.85295 0.0
C1134 C 0.24911 0.43239 0.84188 0.0
C1135 C 0.27711 0.45233 0.86049 0.0
H1136 H 0.72438 0.85234 0.75601 0.0
H1137 H 0.80029 0.89669 0.83106 0.0
H1138 H 0.68952 0.86638 0.78874 0.0
H1139 H 0.76504 0.90968 0.86424 0.0
H1140 H 0.70728 0.95793 0.89829 0.0
H1141 H 0.74222 0.94509 0.86441 0.0
H1142 H 0.65845 0.85082 0.83963 0.0
H1143 H 0.6232 0.86414 0.87266 0.0
C1144 C 0.73355 0.86494 0.77956 0.0
C1145 C 0.76507 0.87344 0.79096 0.0
C1146 C 0.71351 0.8728 0.79839 0.0
C1147 C 0.7245 0.88904 0.82911 0.0
C1148 C 0.75606 0.89761 0.84043 0.0
C1149 C 0.77622 0.89005 0.82147 0.0
C1150 C 0.69632 0.93442 0.8857 0.0
C1151 C 0.6625 0.91203 0.88812 0.0
C1152 C 0.71638 0.92702 0.86638 0.0
C1153 C 0.7031 0.89694 0.84938 0.0
C1154 C 0.6693 0.87443 0.852 0.0
C1155 C 0.64916 0.88198 0.87106 0.0
H1156 H 0.24296 0.83176 0.87265 0.0
H1157 H 0.14859 0.821 0.89776 0.0
H1158 H 0.25533 0.87928 0.83839 0.0
H1159 H 0.1605 0.86778 0.86262 0.0
H1160 H 0.25134 0.93916 0.75168 0.0
H1161 H 0.23829 0.8917 0.78645 0.0
H1162 H 0.19519 0.92604 0.86009 0.0
H1163 H 0.20713 0.97269 0.82496 0.0
C1164 C 0.22484 0.83951 0.87077 0.0
C1165 C 0.19481 0.82271 0.88785 0.0
C1166 C 0.23183 0.86655 0.85098 0.0
C1167 C 0.20879 0.87707 0.84764 0.0
C1168 C 0.17892 0.86049 0.86505 0.0
C1169 C 0.17207 0.83367 0.88513 0.0
C1170 C 0.23894 0.93644 0.77522 0.0
C1171 C 0.23022 0.95959 0.78557 0.0
C1172 C 0.23167 0.90942 0.79522 0.0
C1173 C 0.21586 0.90527 0.82605 0.0
C1174 C 0.20696 0.92831 0.83625 0.0
C1175 C 0.21391 0.95511 0.81613 0.0
H1176 H 0.47514 0.29977 0.69007 0.0
H1177 H 0.38873 0.30907 0.67852 0.0
H1178 H 0.44233 0.24119 0.68227 0.0
H1179 H 0.3551 0.24962 0.673 0.0
H1180 H 0.36919 0.13326 0.696 0.0
H1181 H 0.40387 0.19149 0.70313 0.0
H1182 H 0.34413 0.20878 0.6331 0.0
H1183 H 0.30757 0.14978 0.62779 0.0
C1184 C 0.44882 0.2891 0.68733 0.0
C1185 C 0.43446 0.30901 0.6849 0.0
C1186 C 0.42994 0.25536 0.68263 0.0
C1187 C 0.39609 0.24063 0.67633 0.0
C1188 C 0.38129 0.26029 0.67663 0.0
C1189 C 0.40038 0.29424 0.68052 0.0
C1190 C 0.36362 0.14931 0.68152 0.0
C1191 C 0.33513 0.13673 0.66178 0.0
C1192 C 0.38369 0.18296 0.68566 0.0
C1193 C 0.37641 0.20495 0.66935 0.0
C1194 C 0.34974 0.19247 0.64703 0.0
C1195 C 0.32913 0.15864 0.64345 0.0
H1196 H 0.79052 0.14774 0.63997 0.0
H1197 H 0.80306 0.21837 0.71606 0.0
H1198 H 0.84915 0.17176 0.63578 0.0
H1199 H 0.86234 0.24126 0.71338 0.0
H1200 H 0.96541 0.30036 0.67482 0.0
H1201 H 0.90577 0.27472 0.67696 0.0
H1202 H 0.89713 0.17988 0.65939 0.0
H1203 H 0.95607 0.20563 0.65518 0.0
C1204 C 0.80573 0.16771 0.65673 0.0
C1205 C 0.79202 0.18138 0.67813 0.0
C1206 C 0.83958 0.18157 0.65426 0.0
C1207 C 0.86059 0.2089 0.67375 0.0
C1208 C 0.84685 0.2209 0.69717 0.0
C1209 C 0.81286 0.20741 0.69917 0.0
C1210 C 0.95061 0.27419 0.67041 0.0
C1211 C 0.96541 0.25507 0.66472 0.0
C1212 C 0.91649 0.25937 0.67228 0.0
C1213 C 0.89663 0.22511 0.66912 0.0
C1214 C 0.91151 0.20634 0.66167 0.0
C1215 C 0.94546 0.2212 0.65908 0.0
H1216 H 0.87906 0.79711 0.63367 0.0
H1217 H 0.80036 0.73419 0.70071 0.0
H1218 H 0.901 0.75998 0.63749 0.0
H1219 H 0.82342 0.69892 0.70641 0.0
H1220 H 0.859 0.6269 0.68954 0.0
H1221 H 0.83399 0.66063 0.68359 0.0
H1222 H 0.93028 0.74729 0.67663 0.0
H1223 H 0.95534 0.71281 0.68032 0.0
C1224 C 0.86616 0.77518 0.64877 0.0
C1225 C 0.83821 0.76892 0.66717 0.0
C1226 C 0.87908 0.75423 0.6515 0.0
C1227 C 0.86454 0.72696 0.67303 0.0
C1228 C 0.8353 0.71955 0.6895 0.0
C1229 C 0.82203 0.73998 0.68621 0.0
C1230 C 0.87494 0.65326 0.68771 0.0
C1231 C 0.90916 0.66727 0.68538 0.0
C1232 C 0.86053 0.67267 0.68407 0.0
C1233 C 0.88006 0.70667 0.67897 0.0
C1234 C 0.91446 0.72102 0.67937 0.0
C1235 C 0.92888 0.70143 0.6822 0.0
H1236 H 0.9502 0.72903 0.23474 0.0
H1237 H 0.94095 0.81334 0.20878 0.0
H1238 H 0.90242 0.6942 0.20081 0.0
H1239 H 0.89242 0.77823 0.17571 0.0
H1240 H 0.83044 0.71308 0.09034 0.0
H1241 H 0.87838 0.7477 0.1244 0.0
H1242 H 0.84423 0.67154 0.19935 0.0
H1243 H 0.797 0.63655 0.16489 0.0
C1244 C 0.93768 0.74004 0.22215 0.0
C1245 C 0.94935 0.77391 0.22431 0.0
C1246 C 0.91026 0.72007 0.20279 0.0
C1247 C 0.89375 0.73351 0.18553 0.0
C1248 C 0.90503 0.76729 0.18823 0.0
C1249 C 0.93267 0.78734 0.20732 0.0
C1250 C 0.83325 0.70373 0.11405 0.0
C1251 C 0.81003 0.6721 0.12492 0.0
C1252 C 0.86057 0.72362 0.13364 0.0
C1253 C 0.86497 0.71236 0.16459 0.0
C1254 C 0.84176 0.68071 0.17539 0.0
C1255 C 0.81466 0.66071 0.15568 0.0
H1256 H 0.37229 0.27 0.25043 0.0
H1257 H 0.29058 0.21853 0.18262 0.0
H1258 H 0.40558 0.2556 0.21536 0.0
H1259 H 0.32405 0.2051 0.14728 0.0
H1260 H 0.38334 0.15773 0.11159 0.0
H1261 H 0.3491 0.17128 0.14626 0.0
H1262 H 0.43146 0.26903 0.16138 0.0
H1263 H 0.46578 0.25523 0.12768 0.0
C1264 C 0.36151 0.25581 0.22801 0.0
C1265 C 0.32882 0.24539 0.21937 0.0
C1266 C 0.38059 0.24769 0.20784 0.0
C1267 C 0.3674 0.22926 0.17853 0.0
C1268 C 0.33474 0.21888 0.16995 0.0
C1269 C 0.31563 0.22675 0.19018 0.0
C1270 C 0.39397 0.18216 0.12212 0.0
C1271 C 0.42723 0.20532 0.11719 0.0
C1272 C 0.37441 0.18995 0.14193 0.0
C1273 C 0.38773 0.22113 0.15682 0.0
C1274 C 0.42072 0.24456 0.15093 0.0
C1275 C 0.4403 0.2367 0.13144 0.0
H1276 H 0.83779 0.17153 0.25721 0.0
H1277 H 0.88326 0.14155 0.18184 0.0
H1278 H 0.85258 0.22128 0.22548 0.0
H1279 H 0.89696 0.19045 0.14975 0.0
H1280 H 0.94711 0.29696 0.1179 0.0
H1281 H 0.93309 0.24841 0.15116 0.0
H1282 H 0.839 0.23895 0.17484 0.0
H1283 H 0.85345 0.28808 0.14256 0.0
C1284 C 0.85068 0.17543 0.23377 0.0
C1285 C 0.85949 0.15273 0.2221 0.0
C1286 C 0.85904 0.20383 0.21554 0.0
C1287 C 0.87605 0.20984 0.18516 0.0
C1288 C 0.88447 0.1869 0.17338 0.0
C1289 C 0.87643 0.15876 0.19172 0.0
C1290 C 0.92342 0.28447 0.13016 0.0
C1291 C 0.90141 0.29634 0.12763 0.0
C1292 C 0.91533 0.25659 0.14913 0.0
C1293 C 0.88491 0.23982 0.16561 0.0
C1294 C 0.86285 0.25163 0.16292 0.0
C1295 C 0.87107 0.27968 0.14425 0.0
H1296 H 0.72358 0.97522 0.33838 0.0
H1297 H 0.80914 0.96587 0.35692 0.0
H1298 H 0.68977 0.91559 0.33524 0.0
H1299 H 0.77619 0.90702 0.35158 0.0
H1300 H 0.70176 0.80041 0.37104 0.0
H1301 H 0.73668 0.85895 0.37499 0.0
H1302 H 0.67966 0.87245 0.29842 0.0
H1303 H 0.64291 0.81325 0.29607 0.0
C1304 C 0.735 0.96038 0.34232 0.0
C1305 C 0.76887 0.97514 0.34813 0.0
C1306 C 0.71583 0.92631 0.33985 0.0
C1307 C 0.73037 0.90651 0.34244 0.0
C1308 C 0.76401 0.92135 0.34979 0.0
C1309 C 0.78295 0.95523 0.35305 0.0
C1310 C 0.69688 0.81566 0.35446 0.0
C1311 C 0.66913 0.80209 0.33359 0.0
C1312 C 0.71707 0.84946 0.35676 0.0
C1313 C 0.7106 0.87053 0.33756 0.0
C1314 C 0.68463 0.8569 0.31444 0.0
C1315 C 0.66391 0.82296 0.31263 0.0
H1316 H 0.14269 0.88957 0.37846 0.0
H1317 H 0.12613 0.81167 0.30986 0.0
H1318 H 0.20171 0.91217 0.37285 0.0
H1319 H 0.1844 0.83536 0.3025 0.0
H1320 H 0.29276 0.872 0.31708 0.0
H1321 H 0.23405 0.84636 0.32378 0.0
H1322 H 0.24258 0.94206 0.33284 0.0
H1323 H 0.3021 0.96775 0.32832 0.0
C1324 C 0.15156 0.87698 0.36264 0.0
C1325 C 0.12962 0.84904 0.34437 0.0
C1326 C 0.18539 0.89028 0.35888 0.0
C1327 C 0.19785 0.87616 0.33644 0.0
C1328 C 0.17585 0.84693 0.32007 0.0
C1329 C 0.1422 0.83328 0.32435 0.0
C1330 C 0.28211 0.8877 0.31951 0.0
C1331 C 0.30205 0.92193 0.32228 0.0
C1332 C 0.24829 0.87292 0.32358 0.0
C1333 C 0.23355 0.89208 0.3296 0.0
C1334 C 0.25326 0.92651 0.32944 0.0
C1335 C 0.28726 0.9413 0.32614 0.0
H1336 H 0.14184 0.40545 0.37962 0.0
H1337 H 0.20982 0.4605 0.30047 0.0
H1338 H 0.16649 0.37146 0.38483 0.0
H1339 H 0.23329 0.42464 0.30425 0.0
H1340 H 0.2932 0.38136 0.34154 0.0
H1341 H 0.26791 0.41571 0.34005 0.0
H1342 H 0.17357 0.33063 0.36211 0.0
H1343 H 0.19902 0.29714 0.36564 0.0
C1344 C 0.16136 0.40965 0.36245 0.0
C1345 C 0.17403 0.43597 0.33975 0.0
C1346 C 0.17559 0.39003 0.36553 0.0
C1347 C 0.2023 0.39561 0.34538 0.0
C1348 C 0.21342 0.42036 0.32093 0.0
C1349 C 0.19958 0.44053 0.3183 0.0
C1350 C 0.26726 0.37034 0.3471 0.0
C1351 C 0.24815 0.33658 0.35369 0.0
C1352 C 0.25263 0.38984 0.34561 0.0
C1353 C 0.21854 0.3758 0.35013 0.0
C1354 C 0.1999 0.34244 0.35872 0.0
C1355 C 0.21461 0.32316 0.3609 0.0
H1356 H 0.03775 0.46937 1.00501 0.0
H1357 H 0.95272 0.47987 0.98742 0.0
H1358 H 0.07231 0.52898 0.00692 0.0
H1359 H 0.98638 0.53865 0.99164 0.0
H1360 H 0.05974 0.64488 0.97294 0.0
H1361 H 0.02556 0.58638 0.96816 0.0
H1362 H 0.0839 0.5728 0.04313 0.0
H1363 H 0.12009 0.63211 0.04612 0.0
C1364 C 0.02659 0.48443 1.00097 0.0
C1365 C 0.9926 0.46996 0.99592 0.0
C1366 C 0.04622 0.51852 1.00274 0.0
C1367 C 0.03207 0.53868 1.00017 0.0
C1368 C -0.00168 0.5241 0.99337 0.0
C1369 C 0.97893 0.4902 0.99079 0.0
C1370 C 0.06512 0.62962 0.98897 0.0
C1371 C 0.09297 0.6433 0.00972 0.0
C1372 C 0.04533 0.59581 0.98618 0.0
C1373 C 0.05219 0.5747 1.00483 0.0
C1374 C 0.07854 0.58835 0.02757 0.0
C1375 C 0.09892 0.62235 0.0298 0.0
H1376 H 0.4707 0.57705 0.02171 0.0
H1377 H 0.46062 0.48121 0.00834 0.0
H1378 H 0.52931 0.60245 0.01495 0.0
H1379 H 0.52018 0.50661 1.00404 0.0
H1380 H 0.62238 0.55963 0.96404 0.0
H1381 H 0.56319 0.53726 0.96669 0.0
H1382 H 0.5777 0.61263 0.03779 0.0
H1383 H 0.6361 0.63618 0.03318 0.0
C1384 C 0.48119 0.56126 0.01875 0.0
C1385 C 0.46109 0.52708 0.01574 0.0
C1386 C 0.51496 0.57591 0.01467 0.0
C1387 C 0.52961 0.55668 0.00851 0.0
C1388 C 0.50965 0.52226 0.00772 0.0
C1389 C 0.47562 0.50761 0.0109 0.0
C1390 C 0.61288 0.57198 0.97935 0.0
C1391 C 0.63403 0.59945 0.99867 0.0
C1392 C 0.57892 0.5588 0.9814 0.0
C1393 C 0.56555 0.57257 1.00316 0.0
C1394 C 0.58689 0.60136 0.0206 0.0
C1395 C 0.62066 0.61491 0.01796 0.0
H1396 H 0.47055 0.06654 1.00228 0.0
H1397 H 0.56691 0.15302 0.99845 0.0
H1398 H 0.49582 0.03239 0.00889 0.0
H1399 H 0.59193 0.11982 0.00778 0.0
H1400 H 0.62789 0.04853 0.98946 0.0
H1401 H 0.60475 0.0837 0.98504 0.0
H1402 H 0.52321 0.01733 0.04741 0.0
H1403 H 0.54532 0.98027 0.04954 0.0
C1404 C 0.49709 0.0781 1.00236 0.0
C1405 C 0.51675 0.11227 0.99922 0.0
C1406 C 0.5116 0.05872 0.0069 0.0
C1407 C 0.54598 0.07333 0.00934 0.0
C1408 C 0.56548 0.10749 1.00539 0.0
C1409 C 0.55106 0.12662 0.99984 0.0
C1410 C 0.6053 0.04151 1.00281 0.0
C1411 C 0.58809 0.01111 0.01924 0.0
C1412 C 0.59198 0.06194 1.00035 0.0
C1413 C 0.56164 0.05311 0.01524 0.0
C1414 C 0.54604 0.02431 0.03458 0.0
C1415 C 0.55903 0.00335 0.03638 0.0
H1416 H 0.62524 0.14703 0.51697 0.0
H1417 H 0.59412 0.06851 0.58893 0.0
H1418 H 0.57693 0.11298 0.48342 0.0
H1419 H 0.54514 0.03483 0.55586 0.0
H1420 H 0.48463 0.9708 0.46959 0.0
H1421 H 0.5319 0.00604 0.50384 0.0
H1422 H 0.5183 0.08849 0.48177 0.0
H1423 H 0.47147 0.05334 0.44648 0.0
C1424 C 0.60787 0.12265 0.52586 0.0
C1425 C 0.6136 0.11036 0.5555 0.0
C1426 C 0.58008 0.1032 0.50669 0.0
C1427 C 0.55731 0.07118 0.51691 0.0
C1428 C 0.5626 0.0592 0.547 0.0
C1429 C 0.59056 0.07854 0.56603 0.0
C1430 C 0.49171 -0.00354 0.47203 0.0
C1431 C 0.47432 0.00932 0.45539 0.0
C1432 C 0.51867 0.0166 0.49185 0.0
C1433 C 0.52865 0.04997 0.49575 0.0
C1434 C 0.51139 0.06292 0.47897 0.0
C1435 C 0.48455 0.0428 0.45882 0.0
H1436 H 0.04078 0.62903 0.56276 0.0
H1437 H 0.95921 0.53285 0.53935 0.0
H1438 H 0.07671 0.61776 0.5283 0.0
H1439 H -0.00474 0.52123 0.5059 0.0
H1440 H 0.05954 0.5221 0.42229 0.0
H1441 H 0.02492 0.53705 0.45423 0.0
H1442 H 0.10162 0.58394 0.52811 0.0
H1443 H 0.1366 0.57003 0.4957 0.0
C1444 C 0.03063 0.60539 0.55053 0.0
C1445 C -0.00279 0.58186 0.55366 0.0
C1446 C 0.05119 0.59892 0.53086 0.0
C1447 C 0.03875 0.56868 0.51427 0.0
C1448 C 0.00541 0.54503 0.51779 0.0
C1449 C 0.98482 0.55161 0.53715 0.0
C1450 C 0.06904 0.53574 0.44526 0.0
C1451 C 0.10072 0.54476 0.45656 0.0
C1452 C 0.04918 0.54416 0.46363 0.0
C1453 C 0.06049 0.56146 0.49379 0.0
C1454 C 0.09237 0.57097 0.50475 0.0
C1455 C 0.11235 0.56284 0.48624 0.0
H1456 H 0.58411 0.6056 0.425 0.0
H1457 H 0.53694 0.63717 0.49687 0.0
H1458 H 0.56901 0.55687 0.45834 0.0
H1459 H 0.52282 0.58901 0.53068 0.0
H1460 H 0.47589 0.48254 0.5661 0.0
H1461 H 0.48831 0.53018 0.53179 0.0
H1462 H 0.58452 0.54377 0.51062 0.0
H1463 H 0.5718 0.49575 0.54391 0.0
C1464 C 0.57065 0.60221 0.44796 0.0
C1465 C 0.56183 0.62528 0.45837 0.0
C1466 C 0.56214 0.57439 0.46714 0.0
C1467 C 0.54494 0.56926 0.49725 0.0
C1468 C 0.53573 0.59209 0.50741 0.0
C1469 C 0.54397 0.61976 0.48809 0.0
C1470 C 0.49972 0.49582 0.55421 0.0
C1471 C 0.52279 0.48532 0.5575 0.0
C1472 C 0.50686 0.52311 0.53463 0.0
C1473 C 0.53729 0.54053 0.51831 0.0
C1474 C 0.56057 0.5304 0.52225 0.0
C1475 C 0.55334 0.50301 0.54151 0.0
loop_
_geom_bond_atom_site_label_1
_geom_bond_atom_site_label_2
_geom_bond_distance
_geom_bond_site_symmetry_2
_ccdc_geom_bond_type
Sc0 O3 2.025 . S
Sc0 O10 2.105 . S
Sc0 O13 2.105 . S
Sc0 O16 2.105 . S
Sc0 O19 2.105 . S
Sc1 O3 2.025 . S
Sc1 O11 2.105 . S
Sc1 O15 2.105 . S
Sc1 O17 2.068 1_455 S
Sc1 O21 2.105 . S
Sc2 O3 2.025 . S
Sc2 O12 2.105 . S
Sc2 O14 2.105 . S
Sc2 O18 2.105 . S
Sc2 O20 2.105 . S
O3 Sc0 2.025 . S
O3 Sc1 2.025 . S
O3 Sc2 2.025 . S
C4 O10 1.268 . S
C4 O20 1.268 . S
C5 O11 1.268 . S
C5 O19 1.268 . S
C6 O12 1.268 . S
C6 O21 1.268 . S
C7 O13 1.268 1_655 S
C7 O17 1.295 . S
C8 O14 1.268 . S
C8 O16 1.268 . S
C9 O15 1.268 . S
C9 O18 1.268 . S
O10 Sc0 2.105 . S
O10 C4 1.268 . S
O11 Sc1 2.105 . S
O11 C5 1.268 . S
O12 Sc2 2.105 . S
O12 C6 1.268 . S
O13 Sc0 2.105 . S
O13 C7 1.268 1_455 S
O14 Sc2 2.105 . S
O14 C8 1.268 . S
O15 Sc1 2.105 . S
O15 C9 1.268 . S
O16 Sc0 2.105 . S
O16 C8 1.268 . S
O17 Sc1 2.068 1_655 S
O17 C7 1.295 . S
O18 Sc2 2.105 . S
O18 C9 1.268 . S
O19 Sc0 2.105 . S
O19 C5 1.268 . S
O20 Sc2 2.105 . S
O20 C4 1.268 . S
O21 Sc1 2.105 . S
O21 C6 1.268 . S
Sc22 O25 2.025 . S
Sc22 O32 2.105 . S
Sc22 O35 2.105 . S
Sc22 O38 2.105 . S
Sc22 O41 2.105 . S
Sc23 O25 2.025 . S
Sc23 O33 2.105 . S
Sc23 O37 2.105 . S
Sc23 O39 2.105 . S
Sc23 O43 2.105 . S
Sc24 O25 2.025 . S
Sc24 O34 2.105 . S
Sc24 O36 2.105 . S
Sc24 O40 2.105 . S
Sc24 O42 2.105 . S
O25 Sc22 2.025 . S
O25 Sc23 2.025 . S
O25 Sc24 2.025 . S
C26 O32 1.268 . S
C26 O42 1.268 . S
C27 O33 1.268 . S
C27 O41 1.268 . S
C28 O34 1.268 . S
C28 O43 1.268 . S
C29 O35 1.268 . S
C29 O39 1.268 . S
C30 O36 1.268 . S
C30 O38 1.268 . S
C31 O37 1.268 . S
C31 O40 1.268 . S
O32 Sc22 2.105 . S
O32 C26 1.268 . S
O33 Sc23 2.105 . S
O33 C27 1.268 . S
O34 Sc24 2.105 . S
O34 C28 1.268 . S
O35 Sc22 2.105 . S
O35 C29 1.268 . S
O36 Sc24 2.105 . S
O36 C30 1.268 . S
O37 Sc23 2.105 . S
O37 C31 1.268 . S
O38 Sc22 2.105 . S
O38 C30 1.268 . S
O39 Sc23 2.105 . S
O39 C29 1.268 . S
O40 Sc24 2.105 . S
O40 C31 1.268 . S
O41 Sc22 2.105 . S
O41 C27 1.268 . S
O42 Sc24 2.105 . S
O42 C26 1.268 . S
O43 Sc23 2.105 . S
O43 C28 1.268 . S
Sc44 O47 2.025 . S
Sc44 O54 2.105 . S
Sc44 O57 2.105 . S
Sc44 O60 2.105 . S
Sc44 O63 2.105 . S
Sc45 O47 2.025 . S
Sc45 O55 2.105 . S
Sc45 O59 2.105 . S
Sc45 O61 2.105 . S
Sc45 O65 2.105 . S
Sc46 O47 2.025 . S
Sc46 O56 2.105 . S
Sc46 O58 2.105 . S
Sc46 O62 2.105 . S
Sc46 O64 2.105 . S
O47 Sc44 2.025 . S
O47 Sc45 2.025 . S
O47 Sc46 2.025 . S
C48 O54 1.268 1_565 S
C48 O64 1.268 1_565 S
C49 O55 1.268 . S
C49 O63 1.268 . S
C50 O56 1.268 . S
C50 O65 1.268 . S
C51 O57 1.268 . S
C51 O61 1.268 . S
C52 O58 1.268 . S
C52 O60 1.268 . S
C53 O59 1.268 . S
C53 O62 1.268 . S
O54 Sc44 2.105 . S
O54 C48 1.268 1_545 S
O55 Sc45 2.105 . S
O55 C49 1.268 . S
O56 Sc46 2.105 . S
O56 C50 1.268 . S
O57 Sc44 2.105 . S
O57 C51 1.268 . S
O58 Sc46 2.105 . S
O58 C52 1.268 . S
O59 Sc45 2.105 . S
O59 C53 1.268 . S
O60 Sc44 2.105 . S
O60 C52 1.268 . S
O61 Sc45 2.105 . S
O61 C51 1.268 . S
O62 Sc46 2.105 . S
O62 C53 1.268 . S
O63 Sc44 2.105 . S
O63 C49 1.268 . S
O64 Sc46 2.105 . S
O64 C48 1.268 1_545 S
O65 Sc45 2.105 . S
O65 C50 1.268 . S
Sc66 O69 2.025 . S
Sc66 O76 2.105 . S
Sc66 O79 2.105 . S
Sc66 O82 2.105 . S
Sc66 O85 2.105 . S
Sc67 O69 2.025 . S
Sc67 O77 2.105 . S
Sc67 O81 2.105 . S
Sc67 O83 2.105 . S
Sc67 O87 2.105 . S
Sc68 O69 2.025 . S
Sc68 O78 2.105 . S
Sc68 O80 2.090 1_455 S
Sc68 O84 2.105 . S
Sc68 O86 2.105 . S
O69 Sc66 2.025 . S
O69 Sc67 2.025 . S
O69 Sc68 2.025 . S
C70 O76 1.268 . S
C70 O86 1.268 . S
C71 O77 1.268 . S
C71 O85 1.268 . S
C72 O78 1.268 . S
C72 O87 1.268 . S
C73 O79 1.268 . S
C73 O83 1.268 . S
C74 O80 1.262 . S
C74 O82 1.268 1_655 S
C75 O81 1.268 . S
C75 O84 1.268 . S
O76 Sc66 2.105 . S
O76 C70 1.268 . S
O77 Sc67 2.105 . S
O77 C71 1.268 . S
O78 Sc68 2.105 . S
O78 C72 1.268 . S
O79 Sc66 2.105 . S
O79 C73 1.268 . S
O80 Sc68 2.090 1_655 S
O80 C74 1.262 . S
O81 Sc67 2.105 . S
O81 C75 1.268 . S
O82 Sc66 2.105 . S
O82 C74 1.268 1_455 S
O83 Sc67 2.105 . S
O83 C73 1.268 . S
O84 Sc68 2.105 . S
O84 C75 1.268 . S
O85 Sc66 2.105 . S
O85 C71 1.268 . S
O86 Sc68 2.105 . S
O86 C70 1.268 . S
O87 Sc67 2.105 . S
O87 C72 1.268 . S
Sc88 O91 2.025 . S
Sc88 O98 2.105 . S
Sc88 O101 2.105 . S
Sc88 O104 2.105 . S
Sc88 O107 2.105 . S
Sc89 O91 2.025 . S
Sc89 O99 2.105 . S
Sc89 O103 2.105 . S
Sc89 O105 2.105 . S
Sc89 O109 2.105 . S
Sc90 O91 2.025 . S
Sc90 O100 2.105 . S
Sc90 O102 2.105 . S
Sc90 O106 2.105 . S
Sc90 O108 2.105 . S
O91 Sc88 2.025 . S
O91 Sc89 2.025 . S
O91 Sc90 2.025 . S
C92 O98 1.268 . S
C92 O108 1.268 . S
C93 O99 1.268 . S
C93 O107 1.268 . S
C94 O100 1.268 . S
C94 O109 1.268 . S
C95 O101 1.268 . S
C95 O105 1.268 . S
C96 O102 1.268 . S
C96 O104 1.268 . S
C97 O103 1.268 . S
C97 O106 1.268 . S
O98 Sc88 2.105 . S
O98 C92 1.268 . S
O99 Sc89 2.105 . S
O99 C93 1.268 . S
O100 Sc90 2.105 . S
O100 C94 1.268 . S
O101 Sc88 2.105 . S
O101 C95 1.268 . S
O102 Sc90 2.105 . S
O102 C96 1.268 . S
O103 Sc89 2.105 . S
O103 C97 1.268 . S
O104 Sc88 2.105 . S
O104 C96 1.268 . S
O105 Sc89 2.105 . S
O105 C95 1.268 . S
O106 Sc90 2.105 . S
O106 C97 1.268 . S
O107 Sc88 2.105 . S
O107 C93 1.268 . S
O108 Sc90 2.105 . S
O108 C92 1.268 . S
O109 Sc89 2.105 . S
O109 C94 1.268 . S
Sc110 O113 2.025 . S
Sc110 O120 2.105 . S
Sc110 O123 2.105 . S
Sc110 O126 2.105 . S
Sc110 O129 2.105 . S
Sc111 O113 2.025 . S
Sc111 O121 2.105 . S
Sc111 O125 2.105 . S
Sc111 O127 2.105 . S
Sc111 O131 2.105 . S
Sc112 O113 2.025 . S
Sc112 O122 2.105 . S
Sc112 O124 2.105 . S
Sc112 O128 2.105 . S
Sc112 O130 2.105 . S
O113 Sc110 2.025 . S
O113 Sc111 2.025 . S
O113 Sc112 2.025 . S
C114 O120 1.268 1_565 S
C114 O130 1.268 1_565 S
C115 O121 1.268 . S
C115 O129 1.268 . S
C116 O122 1.268 . S
C116 O131 1.268 . S
C117 O123 1.268 . S
C117 O127 1.268 . S
C118 O124 1.268 . S
C118 O126 1.268 . S
C119 O125 1.268 . S
C119 O128 1.268 . S
O120 Sc110 2.105 . S
O120 C114 1.268 1_545 S
O121 Sc111 2.105 . S
O121 C115 1.268 . S
O122 Sc112 2.105 . S
O122 C116 1.268 . S
O123 Sc110 2.105 . S
O123 C117 1.268 . S
O124 Sc112 2.105 . S
O124 C118 1.268 . S
O125 Sc111 2.105 . S
O125 C119 1.268 . S
O126 Sc110 2.105 . S
O126 C118 1.268 . S
O127 Sc111 2.105 . S
O127 C117 1.268 . S
O128 Sc112 2.105 . S
O128 C119 1.268 . S
O129 Sc110 2.105 . S
O129 C115 1.268 . S
O130 Sc112 2.105 . S
O130 C114 1.268 1_545 S
O131 Sc111 2.105 . S
O131 C116 1.268 . S
Sc132 O135 2.025 . S
Sc132 O142 2.105 . S
Sc132 O145 2.105 . S
Sc132 O148 2.105 . S
Sc132 O151 2.105 . S
Sc133 O135 2.025 . S
Sc133 O143 2.105 . S
Sc133 O147 2.105 . S
Sc133 O149 2.105 . S
Sc133 O153 2.105 . S
Sc134 O135 2.025 . S
Sc134 O144 2.105 . S
Sc134 O146 2.105 . S
Sc134 O150 2.105 . S
Sc134 O152 2.105 . S
O135 Sc132 2.025 . S
O135 Sc133 2.025 . S
O135 Sc134 2.025 . S
C136 O142 1.268 . S
C136 O152 1.268 . S
C137 O143 1.268 . S
C137 O151 1.268 . S
C138 O144 1.268 . S
C138 O153 1.268 . S
C139 O145 1.268 . S
C139 O149 1.268 . S
C140 O146 1.268 . S
C140 O148 1.268 . S
C141 O147 1.268 . S
C141 O150 1.268 . S
O142 Sc132 2.105 . S
O142 C136 1.268 . S
O143 Sc133 2.105 . S
O143 C137 1.268 . S
O144 Sc134 2.105 . S
O144 C138 1.268 . S
O145 Sc132 2.105 . S
O145 C139 1.268 . S
O146 Sc134 2.105 . S
O146 C140 1.268 . S
O147 Sc133 2.105 . S
O147 C141 1.268 . S
O148 Sc132 2.105 . S
O148 C140 1.268 . S
O149 Sc133 2.105 . S
O149 C139 1.268 . S
O150 Sc134 2.105 . S
O150 C141 1.268 . S
O151 Sc132 2.105 . S
O151 C137 1.268 . S
O152 Sc134 2.105 . S
O152 C136 1.268 . S
O153 Sc133 2.105 . S
O153 C138 1.268 . S
Sc154 O157 2.025 . S
Sc154 O164 2.105 . S
Sc154 O167 2.105 . S
Sc154 O170 2.105 . S
Sc154 O173 2.105 . S
Sc155 O157 2.025 . S
Sc155 O165 2.105 . S
Sc155 O169 2.105 . S
Sc155 O171 2.105 . S
Sc155 O175 2.105 . S
Sc156 O157 2.025 . S
Sc156 O166 2.105 . S
Sc156 O168 2.105 . S
Sc156 O172 2.105 . S
Sc156 O174 2.105 . S
O157 Sc154 2.025 . S
O157 Sc155 2.025 . S
O157 Sc156 2.025 . S
C158 O164 1.268 . S
C158 O174 1.268 . S
C159 O165 1.268 . S
C159 O173 1.268 . S
C160 O166 1.268 . S
C160 O175 1.268 . S
C161 O167 1.268 . S
C161 O171 1.268 . S
C162 O168 1.268 . S
C162 O170 1.268 . S
C163 O169 1.268 . S
C163 O172 1.268 . S
O164 Sc154 2.105 . S
O164 C158 1.268 . S
O165 Sc155 2.105 . S
O165 C159 1.268 . S
O166 Sc156 2.105 . S
O166 C160 1.268 . S
O167 Sc154 2.105 . S
O167 C161 1.268 . S
O168 Sc156 2.105 . S
O168 C162 1.268 . S
O169 Sc155 2.105 . S
O169 C163 1.268 . S
O170 Sc154 2.105 . S
O170 C162 1.268 . S
O171 Sc155 2.105 . S
O171 C161 1.268 . S
O172 Sc156 2.105 . S
O172 C163 1.268 . S
O173 Sc154 2.105 . S
O173 C159 1.268 . S
O174 Sc156 2.105 . S
O174 C158 1.268 . S
O175 Sc155 2.105 . S
O175 C160 1.268 . S
Sc176 O179 2.025 . S
Sc176 O186 2.105 . S
Sc176 O189 2.105 . S
Sc176 O192 2.105 . S
Sc176 O195 2.105 . S
Sc177 O179 2.025 . S
Sc177 O187 2.105 . S
Sc177 O191 2.105 . S
Sc177 O193 2.105 . S
Sc177 O197 2.105 . S
Sc178 O179 2.025 . S
Sc178 O188 2.105 . S
Sc178 O190 2.105 . S
Sc178 O194 2.105 . S
Sc178 O196 2.105 . S
O179 Sc176 2.025 . S
O179 Sc177 2.025 . S
O179 Sc178 2.025 . S
C180 O186 1.268 . S
C180 O196 1.268 . S
C181 O187 1.268 . S
C181 O195 1.268 . S
C182 O188 1.268 . S
C182 O197 1.268 . S
C183 O189 1.268 . S
C183 O193 1.268 . S
C184 O190 1.268 . S
C184 O192 1.268 . S
C185 O191 1.268 . S
C185 O194 1.268 . S
O186 Sc176 2.105 . S
O186 C180 1.268 . S
O187 Sc177 2.105 . S
O187 C181 1.268 . S
O188 Sc178 2.105 . S
O188 C182 1.268 . S
O189 Sc176 2.105 . S
O189 C183 1.268 . S
O190 Sc178 2.105 . S
O190 C184 1.268 . S
O191 Sc177 2.105 . S
O191 C185 1.268 . S
O192 Sc176 2.105 . S
O192 C184 1.268 . S
O193 Sc177 2.105 . S
O193 C183 1.268 . S
O194 Sc178 2.105 . S
O194 C185 1.268 . S
O195 Sc176 2.105 . S
O195 C181 1.268 . S
O196 Sc178 2.105 . S
O196 C180 1.268 . S
O197 Sc177 2.105 . S
O197 C182 1.268 . S
Sc198 O201 2.025 . S
Sc198 O208 2.105 . S
Sc198 O211 2.105 . S
Sc198 O214 2.105 . S
Sc198 O217 2.105 . S
Sc199 O201 2.025 . S
Sc199 O209 2.105 . S
Sc199 O213 2.105 . S
Sc199 O215 2.105 . S
Sc199 O219 2.105 . S
Sc200 O201 2.025 . S
Sc200 O210 2.105 . S
Sc200 O212 2.105 . S
Sc200 O216 2.105 . S
Sc200 O218 2.105 . S
O201 Sc198 2.025 . S
O201 Sc199 2.025 . S
O201 Sc200 2.025 . S
C202 O208 1.268 . S
C202 O218 1.268 . S
C203 O209 1.268 . S
C203 O217 1.268 . S
C204 O210 1.268 . S
C204 O219 1.268 . S
C205 O211 1.268 . S
C205 O215 1.268 . S
C206 O212 1.268 . S
C206 O214 1.268 . S
C207 O213 1.268 . S
C207 O216 1.268 . S
O208 Sc198 2.105 . S
O208 C202 1.268 . S
O209 Sc199 2.105 . S
O209 C203 1.268 . S
O210 Sc200 2.105 . S
O210 C204 1.268 . S
O211 Sc198 2.105 . S
O211 C205 1.268 . S
O212 Sc200 2.105 . S
O212 C206 1.268 . S
O213 Sc199 2.105 . S
O213 C207 1.268 . S
O214 Sc198 2.105 . S
O214 C206 1.268 . S
O215 Sc199 2.105 . S
O215 C205 1.268 . S
O216 Sc200 2.105 . S
O216 C207 1.268 . S
O217 Sc198 2.105 . S
O217 C203 1.268 . S
O218 Sc200 2.105 . S
O218 C202 1.268 . S
O219 Sc199 2.105 . S
O219 C204 1.268 . S
Sc220 O223 2.025 . S
Sc220 O230 2.105 . S
Sc220 O233 2.105 . S
Sc220 O236 2.105 . S
Sc220 O239 2.105 . S
Sc221 O223 2.025 . S
Sc221 O231 2.105 . S
Sc221 O235 2.105 . S
Sc221 O237 2.105 . S
Sc221 O241 2.105 . S
Sc222 O223 2.025 . S
Sc222 O232 2.105 . S
Sc222 O234 2.105 . S
Sc222 O238 2.105 . S
Sc222 O240 2.105 . S
O223 Sc220 2.025 . S
O223 Sc221 2.025 . S
O223 Sc222 2.025 . S
C224 O230 1.268 . S
C224 O240 1.268 . S
C225 O231 1.268 . S
C225 O239 1.268 . S
C226 O232 1.268 . S
C226 O241 1.268 . S
C227 O233 1.268 . S
C227 O237 1.268 . S
C228 O234 1.268 . S
C228 O236 1.268 . S
C229 O235 1.268 . S
C229 O238 1.268 . S
O230 Sc220 2.105 . S
O230 C224 1.268 . S
O231 Sc221 2.105 . S
O231 C225 1.268 . S
O232 Sc222 2.105 . S
O232 C226 1.268 . S
O233 Sc220 2.105 . S
O233 C227 1.268 . S
O234 Sc222 2.105 . S
O234 C228 1.268 . S
O235 Sc221 2.105 . S
O235 C229 1.268 . S
O236 Sc220 2.105 . S
O236 C228 1.268 . S
O237 Sc221 2.105 . S
O237 C227 1.268 . S
O238 Sc222 2.105 . S
O238 C229 1.268 . S
O239 Sc220 2.105 . S
O239 C225 1.268 . S
O240 Sc222 2.105 . S
O240 C224 1.268 . S
O241 Sc221 2.105 . S
O241 C226 1.268 . S
Sc242 O245 2.025 . S
Sc242 O252 2.105 . S
Sc242 O255 2.105 . S
Sc242 O258 2.105 . S
Sc242 O261 2.105 . S
Sc243 O245 2.025 . S
Sc243 O253 2.105 . S
Sc243 O257 2.105 . S
Sc243 O259 2.105 . S
Sc243 O263 2.105 . S
Sc244 O245 2.025 . S
Sc244 O254 2.105 . S
Sc244 O256 2.105 . S
Sc244 O260 2.105 . S
Sc244 O262 2.105 . S
O245 Sc242 2.025 . S
O245 Sc243 2.025 . S
O245 Sc244 2.025 . S
C246 O252 1.268 . S
C246 O262 1.268 . S
C247 O253 1.268 . S
C247 O261 1.268 . S
C248 O254 1.268 . S
C248 O263 1.268 . S
C249 O255 1.268 . S
C249 O259 1.268 . S
C250 O256 1.268 . S
C250 O258 1.268 . S
C251 O257 1.268 . S
C251 O260 1.268 . S
O252 Sc242 2.105 . S
O252 C246 1.268 . S
O253 Sc243 2.105 . S
O253 C247 1.268 . S
O254 Sc244 2.105 . S
O254 C248 1.268 . S
O255 Sc242 2.105 . S
O255 C249 1.268 . S
O256 Sc244 2.105 . S
O256 C250 1.268 . S
O257 Sc243 2.105 . S
O257 C251 1.268 . S
O258 Sc242 2.105 . S
O258 C250 1.268 . S
O259 Sc243 2.105 . S
O259 C249 1.268 . S
O260 Sc244 2.105 . S
O260 C251 1.268 . S
O261 Sc242 2.105 . S
O261 C247 1.268 . S
O262 Sc244 2.105 . S
O262 C246 1.268 . S
O263 Sc243 2.105 . S
O263 C248 1.268 . S
Sc264 O267 2.025 . S
Sc264 O274 2.105 . S
Sc264 O277 2.105 . S
Sc264 O280 2.105 . S
Sc264 O283 2.105 . S
Sc265 O267 2.025 . S
Sc265 O275 2.105 . S
Sc265 O279 2.105 . S
Sc265 O281 2.105 . S
Sc265 O285 2.105 . S
Sc266 O267 2.025 . S
Sc266 O276 2.105 . S
Sc266 O278 2.105 . S
Sc266 O282 2.105 . S
Sc266 O284 2.105 . S
O267 Sc264 2.025 . S
O267 Sc265 2.025 . S
O267 Sc266 2.025 . S
C268 O274 1.268 . S
C268 O284 1.268 . S
C269 O275 1.268 . S
C269 O283 1.268 . S
C270 O276 1.268 . S
C270 O285 1.268 . S
C271 O277 1.268 . S
C271 O281 1.268 . S
C272 O278 1.268 . S
C272 O280 1.268 . S
C273 O279 1.268 . S
C273 O282 1.268 . S
O274 Sc264 2.105 . S
O274 C268 1.268 . S
O275 Sc265 2.105 . S
O275 C269 1.268 . S
O276 Sc266 2.105 . S
O276 C270 1.268 . S
O277 Sc264 2.105 . S
O277 C271 1.268 . S
O278 Sc266 2.105 . S
O278 C272 1.268 . S
O279 Sc265 2.105 . S
O279 C273 1.268 . S
O280 Sc264 2.105 . S
O280 C272 1.268 . S
O281 Sc265 2.105 . S
O281 C271 1.268 . S
O282 Sc266 2.105 . S
O282 C273 1.268 . S
O283 Sc264 2.105 . S
O283 C269 1.268 . S
O284 Sc266 2.105 . S
O284 C268 1.268 . S
O285 Sc265 2.105 . S
O285 C270 1.268 . S
Sc286 O289 2.025 . S
Sc286 O296 2.105 . S
Sc286 O299 2.105 . S
Sc286 O302 2.105 . S
Sc286 O305 2.105 . S
Sc287 O289 2.025 . S
Sc287 O297 2.105 . S
Sc287 O301 2.105 . S
Sc287 O303 2.105 . S
Sc287 O307 2.105 . S
Sc288 O289 2.025 . S
Sc288 O298 2.105 . S
Sc288 O300 2.105 . S
Sc288 O304 2.105 . S
Sc288 O306 2.105 . S
O289 Sc286 2.025 . S
O289 Sc287 2.025 . S
O289 Sc288 2.025 . S
C290 O296 1.268 . S
C290 O306 1.268 . S
C291 O297 1.268 . S
C291 O305 1.268 . S
C292 O298 1.268 . S
C292 O307 1.268 . S
C293 O299 1.268 . S
C293 O303 1.268 . S
C294 O300 1.268 . S
C294 O302 1.268 . S
C295 O301 1.268 . S
C295 O304 1.268 . S
O296 Sc286 2.105 . S
O296 C290 1.268 . S
O297 Sc287 2.105 . S
O297 C291 1.268 . S
O298 Sc288 2.105 . S
O298 C292 1.268 . S
O299 Sc286 2.105 . S
O299 C293 1.268 . S
O300 Sc288 2.105 . S
O300 C294 1.268 . S
O301 Sc287 2.105 . S
O301 C295 1.268 . S
O302 Sc286 2.105 . S
O302 C294 1.268 . S
O303 Sc287 2.105 . S
O303 C293 1.268 . S
O304 Sc288 2.105 . S
O304 C295 1.268 . S
O305 Sc286 2.105 . S
O305 C291 1.268 . S
O306 Sc288 2.105 . S
O306 C290 1.268 . S
O307 Sc287 2.105 . S
O307 C292 1.268 . S
Sc308 O311 2.025 . S
Sc308 O318 2.105 . S
Sc308 O321 2.105 . S
Sc308 O324 2.105 . S
Sc308 O327 2.105 . S
Sc309 O311 2.025 . S
Sc309 O319 2.105 . S
Sc309 O323 2.105 . S
Sc309 O325 2.105 . S
Sc309 O329 2.105 . S
Sc310 O311 2.025 . S
Sc310 O320 2.105 . S
Sc310 O322 2.105 . S
Sc310 O326 2.105 . S
Sc310 O328 2.105 . S
O311 Sc308 2.025 . S
O311 Sc309 2.025 . S
O311 Sc310 2.025 . S
C312 O318 1.268 . S
C312 O328 1.268 . S
C313 O319 1.268 . S
C313 O327 1.268 . S
C314 O320 1.268 . S
C314 O329 1.268 . S
C315 O321 1.268 . S
C315 O325 1.268 . S
C316 O322 1.268 . S
C316 O324 1.268 . S
C317 O323 1.268 . S
C317 O326 1.268 . S
O318 Sc308 2.105 . S
O318 C312 1.268 . S
O319 Sc309 2.105 . S
O319 C313 1.268 . S
O320 Sc310 2.105 . S
O320 C314 1.268 . S
O321 Sc308 2.105 . S
O321 C315 1.268 . S
O322 Sc310 2.105 . S
O322 C316 1.268 . S
O323 Sc309 2.105 . S
O323 C317 1.268 . S
O324 Sc308 2.105 . S
O324 C316 1.268 . S
O325 Sc309 2.105 . S
O325 C315 1.268 . S
O326 Sc310 2.105 . S
O326 C317 1.268 . S
O327 Sc308 2.105 . S
O327 C313 1.268 . S
O328 Sc310 2.105 . S
O328 C312 1.268 . S
O329 Sc309 2.105 . S
O329 C314 1.268 . S
Sc330 O333 2.025 . S
Sc330 O340 2.105 . S
Sc330 O343 2.105 . S
Sc330 O346 2.105 . S
Sc330 O349 2.105 . S
Sc331 O333 2.025 . S
Sc331 O341 2.105 . S
Sc331 O345 2.105 . S
Sc331 O347 2.105 . S
Sc331 O351 2.105 . S
Sc332 O333 2.025 . S
Sc332 O342 2.105 . S
Sc332 O344 2.105 . S
Sc332 O348 2.105 . S
Sc332 O350 2.105 . S
O333 Sc330 2.025 . S
O333 Sc331 2.025 . S
O333 Sc332 2.025 . S
C334 O340 1.268 . S
C334 O350 1.268 . S
C335 O341 1.268 . S
C335 O349 1.268 . S
C336 O342 1.268 . S
C336 O351 1.268 . S
C337 O343 1.268 . S
C337 O347 1.268 . S
C338 O344 1.268 . S
C338 O346 1.268 . S
C339 O345 1.268 . S
C339 O348 1.268 . S
O340 Sc330 2.105 . S
O340 C334 1.268 . S
O341 Sc331 2.105 . S
O341 C335 1.268 . S
O342 Sc332 2.105 . S
O342 C336 1.268 . S
O343 Sc330 2.105 . S
O343 C337 1.268 . S
O344 Sc332 2.105 . S
O344 C338 1.268 . S
O345 Sc331 2.105 . S
O345 C339 1.268 . S
O346 Sc330 2.105 . S
O346 C338 1.268 . S
O347 Sc331 2.105 . S
O347 C337 1.268 . S
O348 Sc332 2.105 . S
O348 C339 1.268 . S
O349 Sc330 2.105 . S
O349 C335 1.268 . S
O350 Sc332 2.105 . S
O350 C334 1.268 . S
O351 Sc331 2.105 . S
O351 C336 1.268 . S
Sc352 O355 2.025 . S
Sc352 O362 2.105 . S
Sc352 O365 2.105 . S
Sc352 O368 2.105 . S
Sc352 O371 2.105 . S
Sc353 O355 2.025 . S
Sc353 O363 2.105 . S
Sc353 O367 2.105 . S
Sc353 O369 2.105 . S
Sc353 O373 2.105 . S
Sc354 O355 2.025 . S
Sc354 O364 2.105 . S
Sc354 O366 2.105 . S
Sc354 O370 2.105 . S
Sc354 O372 2.105 . S
O355 Sc352 2.025 . S
O355 Sc353 2.025 . S
O355 Sc354 2.025 . S
C356 O362 1.268 . S
C356 O372 1.268 . S
C357 O363 1.268 . S
C357 O371 1.268 . S
C358 O364 1.268 . S
C358 O373 1.268 . S
C359 O365 1.268 . S
C359 O369 1.268 . S
C360 O366 1.268 . S
C360 O368 1.268 . S
C361 O367 1.268 . S
C361 O370 1.268 . S
O362 Sc352 2.105 . S
O362 C356 1.268 . S
O363 Sc353 2.105 . S
O363 C357 1.268 . S
O364 Sc354 2.105 . S
O364 C358 1.268 . S
O365 Sc352 2.105 . S
O365 C359 1.268 . S
O366 Sc354 2.105 . S
O366 C360 1.268 . S
O367 Sc353 2.105 . S
O367 C361 1.268 . S
O368 Sc352 2.105 . S
O368 C360 1.268 . S
O369 Sc353 2.105 . S
O369 C359 1.268 . S
O370 Sc354 2.105 . S
O370 C361 1.268 . S
O371 Sc352 2.105 . S
O371 C357 1.268 . S
O372 Sc354 2.105 . S
O372 C356 1.268 . S
O373 Sc353 2.105 . S
O373 C358 1.268 . S
Sc374 O377 2.025 . S
Sc374 O384 2.105 . S
Sc374 O387 2.105 . S
Sc374 O390 2.105 . S
Sc374 O393 2.105 . S
Sc375 O377 2.025 . S
Sc375 O385 2.105 . S
Sc375 O389 2.105 . S
Sc375 O391 2.105 . S
Sc375 O395 2.105 . S
Sc376 O377 2.025 . S
Sc376 O386 2.105 . S
Sc376 O388 2.105 . S
Sc376 O392 2.105 . S
Sc376 O394 2.105 . S
O377 Sc374 2.025 . S
O377 Sc375 2.025 . S
O377 Sc376 2.025 . S
C378 O384 1.268 . S
C378 O394 1.268 . S
C379 O385 1.268 . S
C379 O393 1.268 . S
C380 O386 1.268 . S
C380 O395 1.268 . S
C381 O387 1.268 . S
C381 O391 1.268 . S
C382 O388 1.268 . S
C382 O390 1.268 . S
C383 O389 1.268 . S
C383 O392 1.268 . S
O384 Sc374 2.105 . S
O384 C378 1.268 . S
O385 Sc375 2.105 . S
O385 C379 1.268 . S
O386 Sc376 2.105 . S
O386 C380 1.268 . S
O387 Sc374 2.105 . S
O387 C381 1.268 . S
O388 Sc376 2.105 . S
O388 C382 1.268 . S
O389 Sc375 2.105 . S
O389 C383 1.268 . S
O390 Sc374 2.105 . S
O390 C382 1.268 . S
O391 Sc375 2.105 . S
O391 C381 1.268 . S
O392 Sc376 2.105 . S
O392 C383 1.268 . S
O393 Sc374 2.105 . S
O393 C379 1.268 . S
O394 Sc376 2.105 . S
O394 C378 1.268 . S
O395 Sc375 2.105 . S
O395 C380 1.268 . S
H396 C404 0.950 . S
H397 C409 0.950 . S
H398 C406 0.950 . S
H399 C408 0.950 . S
H400 C410 0.950 . S
H401 C412 0.950 . S
H402 C414 0.950 . S
H403 C415 0.950 . S
C404 H396 0.950 . S
C404 C405 1.386 . S
C404 C406 1.391 . S
C405 C404 1.386 . S
C405 C409 1.393 . S
C406 H398 0.950 . S
C406 C404 1.391 . S
C406 C407 1.400 . S
C407 C406 1.400 . S
C407 C408 1.398 . S
C407 C413 1.491 . S
C408 H399 0.950 . S
C408 C407 1.398 . S
C408 C409 1.391 . S
C409 H397 0.950 . S
C409 C405 1.393 . S
C409 C408 1.391 . S
C410 H400 0.950 . S
C410 C411 1.386 . S
C410 C412 1.391 . S
C411 C410 1.386 . S
C411 C415 1.393 . S
C412 H401 0.950 . S
C412 C410 1.391 . S
C412 C413 1.400 . S
C413 C407 1.491 . S
C413 C412 1.400 . S
C413 C414 1.398 . S
C414 H402 0.950 . S
C414 C413 1.398 . S
C414 C415 1.391 . S
C415 H403 0.950 . S
C415 C411 1.393 . S
C415 C414 1.391 . S
H416 C424 0.950 1_455 S
H417 C429 0.950 . S
H418 C426 0.950 . S
H419 C428 0.950 . S
H420 C430 0.950 . S
H421 C432 0.950 . S
H422 C434 0.950 . S
H423 C435 0.950 . S
C424 H416 0.950 1_655 S
C424 C425 1.386 . S
C424 C426 1.391 . S
C425 C424 1.386 . S
C425 C429 1.393 . S
C426 H418 0.950 . S
C426 C424 1.391 . S
C426 C427 1.400 . S
C427 C426 1.400 . S
C427 C428 1.398 . S
C427 C433 1.491 . S
C428 H419 0.950 . S
C428 C427 1.398 . S
C428 C429 1.391 . S
C429 H417 0.950 . S
C429 C425 1.393 . S
C429 C428 1.391 . S
C430 H420 0.950 . S
C430 C431 1.386 . S
C430 C432 1.391 1_565 S
C431 C430 1.386 . S
C431 C435 1.393 . S
C432 H421 0.950 . S
C432 C430 1.391 1_545 S
C432 C433 1.400 . S
C433 C427 1.491 . S
C433 C432 1.400 . S
C433 C434 1.398 . S
C434 H422 0.950 . S
C434 C433 1.398 . S
C434 C435 1.391 1_545 S
C435 H423 0.950 . S
C435 C431 1.393 . S
C435 C434 1.391 1_565 S
H436 C444 0.950 . S
H437 C449 0.950 . S
H438 C446 0.950 . S
H439 C448 0.950 . S
H440 C450 0.950 1_545 S
H441 C452 0.950 . S
H442 C454 0.950 . S
H443 C455 0.950 . S
C444 H436 0.950 . S
C444 C445 1.386 . S
C444 C446 1.391 1_655 S
C445 C444 1.386 . S
C445 C449 1.393 . S
C446 H438 0.950 . S
C446 C444 1.391 1_455 S
C446 C447 1.400 . S
C447 C446 1.400 . S
C447 C448 1.398 . S
C447 C453 1.491 . S
C448 H439 0.950 . S
C448 C447 1.398 . S
C448 C449 1.391 1_455 S
C449 H437 0.950 . S
C449 C445 1.393 . S
C449 C448 1.391 1_655 S
C450 H440 0.950 1_565 S
C450 C451 1.386 . S
C450 C452 1.391 . S
C451 C450 1.386 . S
C451 C455 1.393 . S
C452 H441 0.950 . S
C452 C450 1.391 . S
C452 C453 1.400 . S
C453 C447 1.491 . S
C453 C452 1.400 . S
C453 C454 1.398 . S
C454 H442 0.950 . S
C454 C453 1.398 . S
C454 C455 1.391 . S
C455 H443 0.950 . S
C455 C451 1.393 . S
C455 C454 1.391 . S
H456 C464 0.950 . S
H457 C469 0.950 . S
H458 C466 0.950 . S
H459 C468 0.950 . S
H460 C470 0.950 . S
H461 C472 0.950 . S
H462 C474 0.950 . S
H463 C475 0.950 . S
C464 H456 0.950 . S
C464 C465 1.386 . S
C464 C466 1.391 . S
C465 C464 1.386 . S
C465 C469 1.393 . S
C466 H458 0.950 . S
C466 C464 1.391 . S
C466 C467 1.400 . S
C467 C466 1.400 . S
C467 C468 1.398 . S
C467 C473 1.491 . S
C468 H459 0.950 . S
C468 C467 1.398 . S
C468 C469 1.391 . S
C469 H457 0.950 . S
C469 C465 1.393 . S
C469 C468 1.391 . S
C470 H460 0.950 . S
C470 C471 1.386 . S
C470 C472 1.391 . S
C471 C470 1.386 . S
C471 C475 1.393 . S
C472 H461 0.950 . S
C472 C470 1.391 . S
C472 C473 1.400 . S
C473 C467 1.491 . S
C473 C472 1.400 . S
C473 C474 1.398 . S
C474 H462 0.950 . S
C474 C473 1.398 . S
C474 C475 1.391 . S
C475 H463 0.950 . S
C475 C471 1.393 . S
C475 C474 1.391 . S
H476 C484 0.950 . S
H477 C489 0.950 . S
H478 C486 0.950 . S
H479 C488 0.950 . S
H480 C490 0.950 . S
H481 C492 0.950 . S
H482 C494 0.950 . S
H483 C495 0.950 . S
C484 H476 0.950 . S
C484 C485 1.386 . S
C484 C486 1.391 1_565 S
C485 C484 1.386 . S
C485 C489 1.393 . S
C486 H478 0.950 . S
C486 C484 1.391 1_545 S
C486 C487 1.400 . S
C487 C486 1.400 . S
C487 C488 1.398 . S
C487 C493 1.491 . S
C488 H479 0.950 . S
C488 C487 1.398 . S
C488 C489 1.391 1_545 S
C489 H477 0.950 . S
C489 C485 1.393 . S
C489 C488 1.391 1_565 S
C490 H480 0.950 . S
C490 C491 1.386 . S
C490 C492 1.391 . S
C491 C490 1.386 . S
C491 C495 1.393 . S
C492 H481 0.950 . S
C492 C490 1.391 . S
C492 C493 1.400 . S
C493 C487 1.491 . S
C493 C492 1.400 . S
C493 C494 1.398 . S
C494 H482 0.950 . S
C494 C493 1.398 . S
C494 C495 1.391 . S
C495 H483 0.950 . S
C495 C491 1.393 . S
C495 C494 1.391 . S
H496 C504 0.950 . S
H497 C509 0.950 . S
H498 C506 0.950 . S
H499 C508 0.950 . S
H500 C510 0.950 . S
H501 C512 0.950 . S
H502 C514 0.950 . S
H503 C515 0.950 . S
C504 H496 0.950 . S
C504 C505 1.386 . S
C504 C506 1.391 . S
C505 C504 1.386 . S
C505 C509 1.393 . S
C506 H498 0.950 . S
C506 C504 1.391 . S
C506 C507 1.400 . S
C507 C506 1.400 . S
C507 C508 1.398 . S
C507 C513 1.491 . S
C508 H499 0.950 . S
C508 C507 1.398 . S
C508 C509 1.391 . S
C509 H497 0.950 . S
C509 C505 1.393 . S
C509 C508 1.391 . S
C510 H500 0.950 . S
C510 C511 1.386 . S
C510 C512 1.391 1_655 S
C511 C510 1.386 . S
C511 C515 1.393 . S
C512 H501 0.950 . S
C512 C510 1.391 1_455 S
C512 C513 1.400 . S
C513 C507 1.491 . S
C513 C512 1.400 . S
C513 C514 1.398 . S
C514 H502 0.950 . S
C514 C513 1.398 . S
C514 C515 1.391 1_455 S
C515 H503 0.950 . S
C515 C511 1.393 . S
C515 C514 1.391 1_655 S
H516 C524 0.950 . S
H517 C529 0.950 . S
H518 C526 0.950 . S
H519 C528 0.950 . S
H520 C530 0.950 . S
H521 C532 0.950 . S
H522 C534 0.950 . S
H523 C535 0.950 . S
C524 H516 0.950 . S
C524 C525 1.386 . S
C524 C526 1.391 . S
C525 C524 1.386 . S
C525 C529 1.393 . S
C526 H518 0.950 . S
C526 C524 1.391 . S
C526 C527 1.400 . S
C527 C526 1.400 . S
C527 C528 1.398 . S
C527 C533 1.491 . S
C528 H519 0.950 . S
C528 C527 1.398 . S
C528 C529 1.391 . S
C529 H517 0.950 . S
C529 C525 1.393 . S
C529 C528 1.391 . S
C530 H520 0.950 . S
C530 C531 1.386 . S
C530 C532 1.391 . S
C531 C530 1.386 . S
C531 C535 1.393 . S
C532 H521 0.950 . S
C532 C530 1.391 . S
C532 C533 1.400 . S
C533 C527 1.491 . S
C533 C532 1.400 . S
C533 C534 1.398 . S
C534 H522 0.950 . S
C534 C533 1.398 . S
C534 C535 1.391 . S
C535 H523 0.950 . S
C535 C531 1.393 . S
C535 C534 1.391 . S
H536 C544 0.950 . S
H537 C549 0.950 . S
H538 C546 0.950 . S
H539 C548 0.950 . S
H540 C550 0.950 . S
H541 C552 0.950 . S
H542 C554 0.950 . S
H543 C555 0.950 . S
C544 H536 0.950 . S
C544 C545 1.386 . S
C544 C546 1.391 . S
C545 C544 1.386 . S
C545 C549 1.393 . S
C546 H538 0.950 . S
C546 C544 1.391 . S
C546 C547 1.400 . S
C547 C546 1.400 . S
C547 C548 1.398 . S
C547 C553 1.491 . S
C548 H539 0.950 . S
C548 C547 1.398 . S
C548 C549 1.391 . S
C549 H537 0.950 . S
C549 C545 1.393 . S
C549 C548 1.391 . S
C550 H540 0.950 . S
C550 C551 1.386 . S
C550 C552 1.391 . S
C551 C550 1.386 . S
C551 C555 1.393 . S
C552 H541 0.950 . S
C552 C550 1.391 . S
C552 C553 1.400 . S
C553 C547 1.491 . S
C553 C552 1.400 . S
C553 C554 1.398 . S
C554 H542 0.950 . S
C554 C553 1.398 . S
C554 C555 1.391 . S
C555 H543 0.950 . S
C555 C551 1.393 . S
C555 C554 1.391 . S
H556 C564 0.950 . S
H557 C569 0.950 . S
H558 C566 0.950 . S
H559 C568 0.950 . S
H560 C570 0.950 . S
H561 C572 0.950 . S
H562 C574 0.950 . S
H563 C575 0.950 . S
C564 H556 0.950 . S
C564 C565 1.386 . S
C564 C566 1.391 . S
C565 C564 1.386 . S
C565 C569 1.393 . S
C566 H558 0.950 . S
C566 C564 1.391 . S
C566 C567 1.400 . S
C567 C566 1.400 . S
C567 C568 1.398 . S
C567 C573 1.491 . S
C568 H559 0.950 . S
C568 C567 1.398 . S
C568 C569 1.391 . S
C569 H557 0.950 . S
C569 C565 1.393 . S
C569 C568 1.391 . S
C570 H560 0.950 . S
C570 C571 1.386 . S
C570 C572 1.391 . S
C571 C570 1.386 . S
C571 C575 1.393 . S
C572 H561 0.950 . S
C572 C570 1.391 . S
C572 C573 1.400 . S
C573 C567 1.491 . S
C573 C572 1.400 . S
C573 C574 1.398 . S
C574 H562 0.950 . S
C574 C573 1.398 . S
C574 C575 1.391 . S
C575 H563 0.950 . S
C575 C571 1.393 . S
C575 C574 1.391 . S
H576 C584 0.950 . S
H577 C589 0.950 . S
H578 C586 0.950 . S
H579 C588 0.950 . S
H580 C590 0.950 . S
H581 C592 0.950 . S
H582 C594 0.950 . S
H583 C595 0.950 . S
C584 H576 0.950 . S
C584 C585 1.386 . S
C584 C586 1.391 . S
C585 C584 1.386 . S
C585 C589 1.393 . S
C586 H578 0.950 . S
C586 C584 1.391 . S
C586 C587 1.400 . S
C587 C586 1.400 . S
C587 C588 1.398 . S
C587 C593 1.491 . S
C588 H579 0.950 . S
C588 C587 1.398 . S
C588 C589 1.391 . S
C589 H577 0.950 . S
C589 C585 1.393 . S
C589 C588 1.391 . S
C590 H580 0.950 . S
C590 C591 1.386 . S
C590 C592 1.391 . S
C591 C590 1.386 . S
C591 C595 1.393 . S
C592 H581 0.950 . S
C592 C590 1.391 . S
C592 C593 1.400 . S
C593 C587 1.491 . S
C593 C592 1.400 . S
C593 C594 1.398 . S
C594 H582 0.950 . S
C594 C593 1.398 . S
C594 C595 1.391 . S
C595 H583 0.950 . S
C595 C591 1.393 . S
C595 C594 1.391 . S
H596 C604 0.950 . S
H597 C609 0.950 . S
H598 C606 0.950 . S
H599 C608 0.950 . S
H600 C610 0.950 . S
H601 C612 0.950 . S
H602 C614 0.950 . S
H603 C615 0.950 . S
C604 H596 0.950 . S
C604 C605 1.386 . S
C604 C606 1.391 . S
C605 C604 1.386 . S
C605 C609 1.393 . S
C606 H598 0.950 . S
C606 C604 1.391 . S
C606 C607 1.400 . S
C607 C606 1.400 . S
C607 C608 1.398 . S
C607 C613 1.491 . S
C608 H599 0.950 . S
C608 C607 1.398 . S
C608 C609 1.391 . S
C609 H597 0.950 . S
C609 C605 1.393 . S
C609 C608 1.391 . S
C610 H600 0.950 . S
C610 C611 1.386 . S
C610 C612 1.391 . S
C611 C610 1.386 . S
C611 C615 1.393 . S
C612 H601 0.950 . S
C612 C610 1.391 . S
C612 C613 1.400 . S
C613 C607 1.491 . S
C613 C612 1.400 . S
C613 C614 1.398 . S
C614 H602 0.950 . S
C614 C613 1.398 . S
C614 C615 1.391 . S
C615 H603 0.950 . S
C615 C611 1.393 . S
C615 C614 1.391 . S
H616 C624 0.950 . S
H617 C629 0.950 . S
H618 C626 0.950 . S
H619 C628 0.950 . S
H620 C630 0.950 . S
H621 C632 0.950 . S
H622 C634 0.950 . S
H623 C635 0.950 . S
C624 H616 0.950 . S
C624 C625 1.386 . S
C624 C626 1.391 . S
C625 C624 1.386 . S
C625 C629 1.393 . S
C626 H618 0.950 . S
C626 C624 1.391 . S
C626 C627 1.400 . S
C627 C626 1.400 . S
C627 C628 1.398 . S
C627 C633 1.491 . S
C628 H619 0.950 . S
C628 C627 1.398 . S
C628 C629 1.391 . S
C629 H617 0.950 . S
C629 C625 1.393 . S
C629 C628 1.391 . S
C630 H620 0.950 . S
C630 C631 1.386 . S
C630 C632 1.391 . S
C631 C630 1.386 . S
C631 C635 1.393 . S
C632 H621 0.950 . S
C632 C630 1.391 . S
C632 C633 1.400 . S
C633 C627 1.491 . S
C633 C632 1.400 . S
C633 C634 1.398 . S
C634 H622 0.950 . S
C634 C633 1.398 . S
C634 C635 1.391 . S
C635 H623 0.950 . S
C635 C631 1.393 . S
C635 C634 1.391 . S
H636 C644 0.950 . S
H637 C649 0.950 . S
H638 C646 0.950 . S
H639 C648 0.950 . S
H640 C650 0.950 . S
H641 C652 0.950 . S
H642 C654 0.950 . S
H643 C655 0.950 . S
C644 H636 0.950 . S
C644 C645 1.386 . S
C644 C646 1.391 . S
C645 C644 1.386 . S
C645 C649 1.393 . S
C646 H638 0.950 . S
C646 C644 1.391 . S
C646 C647 1.400 . S
C647 C646 1.400 . S
C647 C648 1.398 . S
C647 C653 1.491 . S
C648 H639 0.950 . S
C648 C647 1.398 . S
C648 C649 1.391 . S
C649 H637 0.950 . S
C649 C645 1.393 . S
C649 C648 1.391 . S
C650 H640 0.950 . S
C650 C651 1.386 . S
C650 C652 1.391 . S
C651 C650 1.386 . S
C651 C655 1.393 . S
C652 H641 0.950 . S
C652 C650 1.391 . S
C652 C653 1.400 . S
C653 C647 1.491 . S
C653 C652 1.400 . S
C653 C654 1.398 . S
C654 H642 0.950 . S
C654 C653 1.398 . S
C654 C655 1.391 . S
C655 H643 0.950 . S
C655 C651 1.393 . S
C655 C654 1.391 . S
H656 C664 0.950 . S
H657 C669 0.950 . S
H658 C666 0.950 . S
H659 C668 0.950 . S
H660 C670 0.950 . S
H661 C672 0.950 . S
H662 C674 0.950 . S
H663 C675 0.950 . S
C664 H656 0.950 . S
C664 C665 1.386 . S
C664 C666 1.391 . S
C665 C664 1.386 . S
C665 C669 1.393 . S
C666 H658 0.950 . S
C666 C664 1.391 . S
C666 C667 1.400 . S
C667 C666 1.400 . S
C667 C668 1.398 . S
C667 C673 1.491 . S
C668 H659 0.950 . S
C668 C667 1.398 . S
C668 C669 1.391 . S
C669 H657 0.950 . S
C669 C665 1.393 . S
C669 C668 1.391 . S
C670 H660 0.950 . S
C670 C671 1.386 . S
C670 C672 1.391 . S
C671 C670 1.386 . S
C671 C675 1.393 . S
C672 H661 0.950 . S
C672 C670 1.391 . S
C672 C673 1.400 . S
C673 C667 1.491 . S
C673 C672 1.400 . S
C673 C674 1.398 . S
C674 H662 0.950 . S
C674 C673 1.398 . S
C674 C675 1.391 . S
C675 H663 0.950 . S
C675 C671 1.393 . S
C675 C674 1.391 . S
H676 C684 0.950 . S
H677 C689 0.950 . S
H678 C686 0.950 . S
H679 C688 0.950 . S
H680 C690 0.950 . S
H681 C692 0.950 . S
H682 C694 0.950 . S
H683 C695 0.950 . S
C684 H676 0.950 . S
C684 C685 1.386 . S
C684 C686 1.391 . S
C685 C684 1.386 . S
C685 C689 1.393 . S
C686 H678 0.950 . S
C686 C684 1.391 . S
C686 C687 1.400 . S
C687 C686 1.400 . S
C687 C688 1.398 . S
C687 C693 1.491 . S
C688 H679 0.950 . S
C688 C687 1.398 . S
C688 C689 1.391 . S
C689 H677 0.950 . S
C689 C685 1.393 . S
C689 C688 1.391 . S
C690 H680 0.950 . S
C690 C691 1.386 . S
C690 C692 1.391 . S
C691 C690 1.386 . S
C691 C695 1.393 . S
C692 H681 0.950 . S
C692 C690 1.391 . S
C692 C693 1.400 . S
C693 C687 1.491 . S
C693 C692 1.400 . S
C693 C694 1.398 . S
C694 H682 0.950 . S
C694 C693 1.398 . S
C694 C695 1.391 . S
C695 H683 0.950 . S
C695 C691 1.393 . S
C695 C694 1.391 . S
H696 C704 0.950 . S
H697 C709 0.950 . S
H698 C706 0.950 . S
H699 C708 0.950 . S
H700 C710 0.950 . S
H701 C712 0.950 . S
H702 C714 0.950 . S
H703 C715 0.950 . S
C704 H696 0.950 . S
C704 C705 1.386 . S
C704 C706 1.391 . S
C705 C704 1.386 . S
C705 C709 1.393 . S
C706 H698 0.950 . S
C706 C704 1.391 . S
C706 C707 1.400 . S
C707 C706 1.400 . S
C707 C708 1.398 . S
C707 C713 1.491 . S
C708 H699 0.950 . S
C708 C707 1.398 . S
C708 C709 1.391 . S
C709 H697 0.950 . S
C709 C705 1.393 . S
C709 C708 1.391 . S
C710 H700 0.950 . S
C710 C711 1.386 . S
C710 C712 1.391 . S
C711 C710 1.386 . S
C711 C715 1.393 . S
C712 H701 0.950 . S
C712 C710 1.391 . S
C712 C713 1.400 . S
C713 C707 1.491 . S
C713 C712 1.400 . S
C713 C714 1.398 . S
C714 H702 0.950 . S
C714 C713 1.398 . S
C714 C715 1.391 . S
C715 H703 0.950 . S
C715 C711 1.393 . S
C715 C714 1.391 . S
H716 C724 0.950 . S
H717 C729 0.950 . S
H718 C726 0.950 . S
H719 C728 0.950 . S
H720 C730 0.950 . S
H721 C732 0.950 . S
H722 C734 0.950 . S
H723 C735 0.950 . S
C724 H716 0.950 . S
C724 C725 1.386 . S
C724 C726 1.391 . S
C725 C724 1.386 . S
C725 C729 1.393 . S
C726 H718 0.950 . S
C726 C724 1.391 . S
C726 C727 1.400 . S
C727 C726 1.400 . S
C727 C728 1.398 . S
C727 C733 1.491 . S
C728 H719 0.950 . S
C728 C727 1.398 . S
C728 C729 1.391 . S
C729 H717 0.950 . S
C729 C725 1.393 . S
C729 C728 1.391 . S
C730 H720 0.950 . S
C730 C731 1.386 . S
C730 C732 1.391 . S
C731 C730 1.386 . S
C731 C735 1.393 . S
C732 H721 0.950 . S
C732 C730 1.391 . S
C732 C733 1.400 . S
C733 C727 1.491 . S
C733 C732 1.400 . S
C733 C734 1.398 . S
C734 H722 0.950 . S
C734 C733 1.398 . S
C734 C735 1.391 . S
C735 H723 0.950 . S
C735 C731 1.393 . S
C735 C734 1.391 . S
H736 C744 0.950 . S
H737 C749 0.950 . S
H738 C746 0.950 . S
H739 C748 0.950 . S
H740 C750 0.950 . S
H741 C752 0.950 . S
H742 C754 0.950 . S
H743 C755 0.950 . S
C744 H736 0.950 . S
C744 C745 1.386 . S
C744 C746 1.391 . S
C745 C744 1.386 . S
C745 C749 1.393 . S
C746 H738 0.950 . S
C746 C744 1.391 . S
C746 C747 1.400 . S
C747 C746 1.400 . S
C747 C748 1.398 . S
C747 C753 1.491 . S
C748 H739 0.950 . S
C748 C747 1.398 . S
C748 C749 1.391 . S
C749 H737 0.950 . S
C749 C745 1.393 . S
C749 C748 1.391 . S
C750 H740 0.950 . S
C750 C751 1.386 . S
C750 C752 1.391 . S
C751 C750 1.386 . S
C751 C755 1.393 . S
C752 H741 0.950 . S
C752 C750 1.391 . S
C752 C753 1.400 . S
C753 C747 1.491 . S
C753 C752 1.400 . S
C753 C754 1.398 . S
C754 H742 0.950 . S
C754 C753 1.398 . S
C754 C755 1.391 . S
C755 H743 0.950 . S
C755 C751 1.393 . S
C755 C754 1.391 . S
H756 C764 0.950 . S
H757 C769 0.950 . S
H758 C766 0.950 . S
H759 C768 0.950 . S
H760 C770 0.950 . S
H761 C772 0.950 . S
H762 C774 0.950 . S
H763 C775 0.950 . S
C764 H756 0.950 . S
C764 C765 1.386 . S
C764 C766 1.391 . S
C765 C764 1.386 . S
C765 C769 1.393 . S
C766 H758 0.950 . S
C766 C764 1.391 . S
C766 C767 1.400 . S
C767 C766 1.400 . S
C767 C768 1.398 . S
C767 C773 1.491 . S
C768 H759 0.950 . S
C768 C767 1.398 . S
C768 C769 1.391 . S
C769 H757 0.950 . S
C769 C765 1.393 . S
C769 C768 1.391 . S
C770 H760 0.950 . S
C770 C771 1.386 . S
C770 C772 1.391 . S
C771 C770 1.386 . S
C771 C775 1.393 . S
C772 H761 0.950 . S
C772 C770 1.391 . S
C772 C773 1.400 . S
C773 C767 1.491 . S
C773 C772 1.400 . S
C773 C774 1.398 . S
C774 H762 0.950 . S
C774 C773 1.398 . S
C774 C775 1.391 . S
C775 H763 0.950 . S
C775 C771 1.393 . S
C775 C774 1.391 . S
H776 C784 0.950 . S
H777 C789 0.950 . S
H778 C786 0.950 . S
H779 C788 0.950 . S
H780 C790 0.950 . S
H781 C792 0.950 . S
H782 C794 0.950 . S
H783 C795 0.950 . S
C784 H776 0.950 . S
C784 C785 1.386 . S
C784 C786 1.391 . S
C785 C784 1.386 . S
C785 C789 1.393 . S
C786 H778 0.950 . S
C786 C784 1.391 . S
C786 C787 1.400 . S
C787 C786 1.400 . S
C787 C788 1.398 . S
C787 C793 1.491 . S
C788 H779 0.950 . S
C788 C787 1.398 . S
C788 C789 1.391 . S
C789 H777 0.950 . S
C789 C785 1.393 . S
C789 C788 1.391 . S
C790 H780 0.950 . S
C790 C791 1.386 . S
C790 C792 1.391 . S
C791 C790 1.386 . S
C791 C795 1.393 . S
C792 H781 0.950 . S
C792 C790 1.391 . S
C792 C793 1.400 . S
C793 C787 1.491 . S
C793 C792 1.400 . S
C793 C794 1.398 . S
C794 H782 0.950 . S
C794 C793 1.398 . S
C794 C795 1.391 . S
C795 H783 0.950 . S
C795 C791 1.393 . S
C795 C794 1.391 . S
H796 C804 0.950 . S
H797 C809 0.950 . S
H798 C806 0.950 . S
H799 C808 0.950 . S
H800 C810 0.950 . S
H801 C812 0.950 . S
H802 C814 0.950 1_545 S
H803 C815 0.950 . S
C804 H796 0.950 . S
C804 C805 1.386 . S
C804 C806 1.391 . S
C805 C804 1.386 . S
C805 C809 1.393 1_545 S
C806 H798 0.950 . S
C806 C804 1.391 . S
C806 C807 1.400 1_545 S
C807 C806 1.400 1_565 S
C807 C808 1.398 . S
C807 C813 1.491 . S
C808 H799 0.950 . S
C808 C807 1.398 . S
C808 C809 1.391 . S
C809 H797 0.950 . S
C809 C805 1.393 1_565 S
C809 C808 1.391 . S
C810 H800 0.950 . S
C810 C811 1.386 . S
C810 C812 1.391 . S
C811 C810 1.386 . S
C811 C815 1.393 . S
C812 H801 0.950 . S
C812 C810 1.391 . S
C812 C813 1.400 . S
C813 C807 1.491 . S
C813 C812 1.400 . S
C813 C814 1.398 . S
C814 H802 0.950 1_565 S
C814 C813 1.398 . S
C814 C815 1.391 . S
C815 H803 0.950 . S
C815 C811 1.393 . S
C815 C814 1.391 . S
H816 C824 0.950 1_554 S
H817 C829 0.950 . S
H818 C826 0.950 . S
H819 C828 0.950 . S
H820 C830 0.950 . S
H821 C832 0.950 . S
H822 C834 0.950 . S
H823 C835 0.950 . S
C824 H816 0.950 1_556 S
C824 C825 1.386 . S
C824 C826 1.391 . S
C825 C824 1.386 . S
C825 C829 1.393 . S
C826 H818 0.950 . S
C826 C824 1.391 . S
C826 C827 1.400 . S
C827 C826 1.400 . S
C827 C828 1.398 . S
C827 C833 1.491 . S
C828 H819 0.950 . S
C828 C827 1.398 . S
C828 C829 1.391 . S
C829 H817 0.950 . S
C829 C825 1.393 . S
C829 C828 1.391 . S
C830 H820 0.950 . S
C830 C831 1.386 . S
C830 C832 1.391 . S
C831 C830 1.386 . S
C831 C835 1.393 . S
C832 H821 0.950 . S
C832 C830 1.391 . S
C832 C833 1.400 . S
C833 C827 1.491 . S
C833 C832 1.400 . S
C833 C834 1.398 . S
C834 H822 0.950 . S
C834 C833 1.398 . S
C834 C835 1.391 . S
C835 H823 0.950 . S
C835 C831 1.393 . S
C835 C834 1.391 . S
H836 C844 0.950 . S
H837 C849 0.950 . S
H838 C846 0.950 . S
H839 C848 0.950 . S
H840 C850 0.950 . S
H841 C852 0.950 . S
H842 C854 0.950 1_455 S
H843 C855 0.951 . S
C844 H836 0.950 . S
C844 C845 1.397 . S
C844 C846 1.391 . S
C845 C844 1.397 . S
C845 C849 1.364 1_455 S
C846 H838 0.950 . S
C846 C844 1.391 . S
C846 C847 1.400 1_455 S
C847 C846 1.400 1_655 S
C847 C848 1.398 . S
C847 C853 1.491 . S
C848 H839 0.950 . S
C848 C847 1.398 . S
C848 C849 1.391 . S
C849 H837 0.950 . S
C849 C845 1.364 1_655 S
C849 C848 1.391 . S
C850 H840 0.950 . S
C850 C851 1.386 . S
C850 C852 1.391 . S
C851 C850 1.386 . S
C851 C855 1.393 . S
C852 H841 0.950 . S
C852 C850 1.391 . S
C852 C853 1.400 . S
C853 C847 1.491 . S
C853 C852 1.400 . S
C853 C854 1.398 . S
C854 H842 0.950 1_655 S
C854 C853 1.398 . S
C854 C855 1.391 . S
C855 H843 0.951 . S
C855 C851 1.393 . S
C855 C854 1.391 . S
H856 C864 0.950 1_554 S
H857 C869 0.950 . S
H858 C866 0.950 . S
H859 C868 0.950 . S
H860 C870 0.950 . S
H861 C872 0.950 . S
H862 C874 0.950 . S
H863 C875 0.950 . S
C864 H856 0.950 1_556 S
C864 C865 1.386 . S
C864 C866 1.391 . S
C865 C864 1.386 . S
C865 C869 1.393 . S
C866 H858 0.950 . S
C866 C864 1.391 . S
C866 C867 1.400 . S
C867 C866 1.400 . S
C867 C868 1.398 . S
C867 C873 1.491 . S
C868 H859 0.950 . S
C868 C867 1.398 . S
C868 C869 1.391 . S
C869 H857 0.950 . S
C869 C865 1.393 . S
C869 C868 1.391 . S
C870 H860 0.950 . S
C870 C871 1.386 . S
C870 C872 1.391 . S
C871 C870 1.386 . S
C871 C875 1.393 . S
C872 H861 0.950 . S
C872 C870 1.391 . S
C872 C873 1.400 . S
C873 C867 1.491 . S
C873 C872 1.400 . S
C873 C874 1.398 . S
C874 H862 0.950 . S
C874 C873 1.398 . S
C874 C875 1.391 . S
C875 H863 0.950 . S
C875 C871 1.393 . S
C875 C874 1.391 . S
H876 C884 0.950 . S
H877 C889 0.950 . S
H878 C886 0.950 . S
H879 C888 0.950 . S
H880 C890 0.950 1_455 S
H881 C892 0.950 . S
H882 C894 0.950 . S
H883 C895 0.950 . S
C884 H876 0.950 . S
C884 C885 1.386 . S
C884 C886 1.391 . S
C885 C884 1.386 . S
C885 C889 1.393 . S
C886 H878 0.950 . S
C886 C884 1.391 . S
C886 C887 1.400 . S
C887 C886 1.400 . S
C887 C888 1.398 . S
C887 C893 1.491 . S
C888 H879 0.950 . S
C888 C887 1.398 . S
C888 C889 1.391 . S
C889 H877 0.950 . S
C889 C885 1.393 . S
C889 C888 1.391 . S
C890 H880 0.950 1_655 S
C890 C891 1.386 1_655 S
C890 C892 1.391 . S
C891 C890 1.386 1_455 S
C891 C895 1.393 1_455 S
C892 H881 0.950 . S
C892 C890 1.391 . S
C892 C893 1.400 . S
C893 C887 1.491 . S
C893 C892 1.400 . S
C893 C894 1.398 . S
C894 H882 0.950 . S
C894 C893 1.398 . S
C894 C895 1.391 . S
C895 H883 0.950 . S
C895 C891 1.393 1_655 S
C895 C894 1.391 . S
H896 C904 0.950 . S
H897 C909 0.950 . S
H898 C906 0.950 . S
H899 C908 0.950 . S
H900 C910 0.950 . S
H901 C912 0.950 . S
H902 C914 0.950 . S
H903 C915 0.950 . S
C904 H896 0.950 . S
C904 C905 1.386 . S
C904 C906 1.391 . S
C905 C904 1.386 . S
C905 C909 1.393 . S
C906 H898 0.950 . S
C906 C904 1.391 . S
C906 C907 1.400 . S
C907 C906 1.400 . S
C907 C908 1.398 . S
C907 C913 1.491 . S
C908 H899 0.950 . S
C908 C907 1.398 . S
C908 C909 1.391 . S
C909 H897 0.950 . S
C909 C905 1.393 . S
C909 C908 1.391 . S
C910 H900 0.950 . S
C910 C911 1.386 . S
C910 C912 1.391 . S
C911 C910 1.386 . S
C911 C915 1.393 . S
C912 H901 0.950 . S
C912 C910 1.391 . S
C912 C913 1.400 . S
C913 C907 1.491 . S
C913 C912 1.400 . S
C913 C914 1.398 . S
C914 H902 0.950 . S
C914 C913 1.398 . S
C914 C915 1.391 . S
C915 H903 0.950 . S
C915 C911 1.393 . S
C915 C914 1.391 . S
H916 C924 0.950 . S
H917 C929 0.950 . S
H918 C926 0.950 . S
H919 C928 0.950 . S
H920 C930 0.950 . S
H921 C932 0.950 . S
H922 C934 0.950 . S
H923 C935 0.950 . S
C924 H916 0.950 . S
C924 C925 1.386 . S
C924 C926 1.391 . S
C925 C924 1.386 . S
C925 C929 1.393 . S
C926 H918 0.950 . S
C926 C924 1.391 . S
C926 C927 1.400 . S
C927 C926 1.400 . S
C927 C928 1.398 . S
C927 C933 1.491 . S
C928 H919 0.950 . S
C928 C927 1.398 . S
C928 C929 1.391 . S
C929 H917 0.950 . S
C929 C925 1.393 . S
C929 C928 1.391 . S
C930 H920 0.950 . S
C930 C931 1.386 . S
C930 C932 1.391 . S
C931 C930 1.386 . S
C931 C935 1.393 . S
C932 H921 0.950 . S
C932 C930 1.391 . S
C932 C933 1.400 . S
C933 C927 1.491 . S
C933 C932 1.400 . S
C933 C934 1.398 . S
C934 H922 0.950 . S
C934 C933 1.398 . S
C934 C935 1.391 . S
C935 H923 0.950 . S
C935 C931 1.393 . S
C935 C934 1.391 . S
H936 C944 0.950 . S
H937 C949 0.950 . S
H938 C946 0.950 . S
H939 C948 0.950 . S
H940 C950 0.950 . S
H941 C952 0.950 1_545 S
H942 C954 0.950 . S
H943 C955 0.950 . S
C944 H936 0.950 . S
C944 C945 1.386 1_565 S
C944 C946 1.391 . S
C945 C944 1.386 1_545 S
C945 C949 1.393 . S
C946 H938 0.950 . S
C946 C944 1.391 . S
C946 C947 1.400 . S
C947 C946 1.400 . S
C947 C948 1.398 1_565 S
C947 C953 1.491 . S
C948 H939 0.950 . S
C948 C947 1.398 1_545 S
C948 C949 1.391 . S
C949 H937 0.950 . S
C949 C945 1.393 . S
C949 C948 1.391 . S
C950 H940 0.950 . S
C950 C951 1.386 . S
C950 C952 1.391 . S
C951 C950 1.386 . S
C951 C955 1.393 . S
C952 H941 0.950 1_565 S
C952 C950 1.391 . S
C952 C953 1.400 . S
C953 C947 1.491 . S
C953 C952 1.400 . S
C953 C954 1.398 . S
C954 H942 0.950 . S
C954 C953 1.398 . S
C954 C955 1.391 . S
C955 H943 0.950 . S
C955 C951 1.393 . S
C955 C954 1.391 . S
H956 C964 0.950 . S
H957 C969 0.950 1_556 S
H958 C966 0.950 . S
H959 C968 0.950 . S
H960 C970 0.950 . S
H961 C972 0.950 . S
H962 C974 0.950 . S
H963 C975 0.950 . S
C964 H956 0.950 . S
C964 C965 1.386 . S
C964 C966 1.391 . S
C965 C964 1.386 . S
C965 C969 1.393 . S
C966 H958 0.950 . S
C966 C964 1.391 . S
C966 C967 1.400 . S
C967 C966 1.400 . S
C967 C968 1.398 . S
C967 C973 1.491 . S
C968 H959 0.950 . S
C968 C967 1.398 . S
C968 C969 1.391 . S
C969 H957 0.950 1_554 S
C969 C965 1.393 . S
C969 C968 1.391 . S
C970 H960 0.950 . S
C970 C971 1.386 . S
C970 C972 1.391 . S
C971 C970 1.386 . S
C971 C975 1.393 . S
C972 H961 0.950 . S
C972 C970 1.391 . S
C972 C973 1.400 . S
C973 C967 1.491 . S
C973 C972 1.400 . S
C973 C974 1.398 . S
C974 H962 0.950 . S
C974 C973 1.398 . S
C974 C975 1.391 . S
C975 H963 0.950 . S
C975 C971 1.393 . S
C975 C974 1.391 . S
H976 C984 0.950 . S
H977 C989 0.950 . S
H978 C986 0.950 . S
H979 C988 0.950 . S
H980 C990 0.950 . S
H981 C992 0.950 . S
H982 C994 0.950 . S
H983 C995 0.950 . S
C984 H976 0.950 . S
C984 C985 1.386 . S
C984 C986 1.391 . S
C985 C984 1.386 . S
C985 C989 1.393 . S
C986 H978 0.950 . S
C986 C984 1.391 . S
C986 C987 1.400 . S
C987 C986 1.400 . S
C987 C988 1.398 . S
C987 C993 1.491 . S
C988 H979 0.950 . S
C988 C987 1.398 . S
C988 C989 1.391 . S
C989 H977 0.950 . S
C989 C985 1.393 . S
C989 C988 1.391 . S
C990 H980 0.950 . S
C990 C991 1.386 . S
C990 C992 1.391 . S
C991 C990 1.386 . S
C991 C995 1.393 . S
C992 H981 0.950 . S
C992 C990 1.391 . S
C992 C993 1.400 . S
C993 C987 1.491 . S
C993 C992 1.400 . S
C993 C994 1.398 . S
C994 H982 0.950 . S
C994 C993 1.398 . S
C994 C995 1.391 . S
C995 H983 0.950 . S
C995 C991 1.393 . S
C995 C994 1.391 . S
H996 C1004 0.950 . S
H997 C1009 0.950 . S
H998 C1006 0.950 . S
H999 C1008 0.950 . S
H1000 C1010 0.950 . S
H1001 C1012 0.954 . S
H1002 C1014 0.950 . S
H1003 C1015 0.950 . S
C1004 H996 0.950 . S
C1004 C1005 1.386 . S
C1004 C1006 1.391 . S
C1005 C1004 1.386 . S
C1005 C1009 1.393 . S
C1006 H998 0.950 . S
C1006 C1004 1.391 . S
C1006 C1007 1.400 . S
C1007 C1006 1.400 . S
C1007 C1008 1.398 . S
C1007 C1013 1.491 . S
C1008 H999 0.950 . S
C1008 C1007 1.398 . S
C1008 C1009 1.391 . S
C1009 H997 0.950 . S
C1009 C1005 1.393 . S
C1009 C1008 1.391 . S
C1010 H1000 0.950 . S
C1010 C1011 1.386 . S
C1010 C1012 1.391 1_655 S
C1011 C1010 1.386 . S
C1011 C1015 1.393 1_655 S
C1012 H1001 0.954 . S
C1012 C1010 1.391 1_455 S
C1012 C1013 1.400 . S
C1013 C1007 1.491 . S
C1013 C1012 1.400 . S
C1013 C1014 1.398 . S
C1014 H1002 0.950 . S
C1014 C1013 1.398 . S
C1014 C1015 1.391 . S
C1015 H1003 0.950 . S
C1015 C1011 1.393 1_455 S
C1015 C1014 1.391 . S
H1016 C1024 0.950 . S
H1017 C1029 0.950 . S
H1018 C1026 0.950 . S
H1019 C1028 0.950 . S
H1020 C1030 0.950 . S
H1021 C1032 0.950 . S
H1022 C1034 0.950 . S
H1023 C1035 0.950 . S
C1024 H1016 0.950 . S
C1024 C1025 1.386 . S
C1024 C1026 1.391 . S
C1025 C1024 1.386 . S
C1025 C1029 1.393 . S
C1026 H1018 0.950 . S
C1026 C1024 1.391 . S
C1026 C1027 1.400 . S
C1027 C1026 1.400 . S
C1027 C1028 1.398 . S
C1027 C1033 1.491 . S
C1028 H1019 0.950 . S
C1028 C1027 1.398 . S
C1028 C1029 1.391 . S
C1029 H1017 0.950 . S
C1029 C1025 1.393 . S
C1029 C1028 1.391 . S
C1030 H1020 0.950 . S
C1030 C1031 1.386 . S
C1030 C1032 1.391 . S
C1031 C1030 1.386 . S
C1031 C1035 1.393 . S
C1032 H1021 0.950 . S
C1032 C1030 1.391 . S
C1032 C1033 1.400 . S
C1033 C1027 1.491 . S
C1033 C1032 1.400 . S
C1033 C1034 1.398 . S
C1034 H1022 0.950 . S
C1034 C1033 1.398 . S
C1034 C1035 1.391 . S
C1035 H1023 0.950 . S
C1035 C1031 1.393 . S
C1035 C1034 1.391 . S
H1036 C1044 0.950 . S
H1037 C1049 0.950 . S
H1038 C1046 0.950 . S
H1039 C1048 0.950 . S
H1040 C1050 0.950 . S
H1041 C1052 0.950 . S
H1042 C1054 0.950 . S
H1043 C1055 0.950 . S
C1044 H1036 0.950 . S
C1044 C1045 1.386 . S
C1044 C1046 1.391 . S
C1045 C1044 1.386 . S
C1045 C1049 1.393 . S
C1046 H1038 0.950 . S
C1046 C1044 1.391 . S
C1046 C1047 1.400 . S
C1047 C1046 1.400 . S
C1047 C1048 1.398 . S
C1047 C1053 1.491 . S
C1048 H1039 0.950 . S
C1048 C1047 1.398 . S
C1048 C1049 1.391 . S
C1049 H1037 0.950 . S
C1049 C1045 1.393 . S
C1049 C1048 1.391 . S
C1050 H1040 0.950 . S
C1050 C1051 1.386 . S
C1050 C1052 1.391 . S
C1051 C1050 1.386 . S
C1051 C1055 1.393 1_545 S
C1052 H1041 0.950 . S
C1052 C1050 1.391 . S
C1052 C1053 1.400 . S
C1053 C1047 1.491 . S
C1053 C1052 1.400 . S
C1053 C1054 1.398 . S
C1054 H1042 0.950 . S
C1054 C1053 1.398 . S
C1054 C1055 1.391 1_545 S
C1055 H1043 0.950 . S
C1055 C1051 1.393 1_565 S
C1055 C1054 1.391 1_565 S
H1056 C1064 0.950 . S
H1057 C1069 0.950 . S
H1058 C1066 0.950 . S
H1059 C1068 0.950 . S
H1060 C1070 0.950 1_565 S
H1061 C1072 0.950 . S
H1062 C1074 0.950 . S
H1063 C1075 0.950 . S
C1064 H1056 0.950 . S
C1064 C1065 1.386 . S
C1064 C1066 1.391 . S
C1065 C1064 1.386 . S
C1065 C1069 1.393 . S
C1066 H1058 0.950 . S
C1066 C1064 1.391 . S
C1066 C1067 1.400 . S
C1067 C1066 1.400 . S
C1067 C1068 1.398 . S
C1067 C1073 1.491 . S
C1068 H1059 0.950 . S
C1068 C1067 1.398 . S
C1068 C1069 1.391 . S
C1069 H1057 0.950 . S
C1069 C1065 1.393 . S
C1069 C1068 1.391 . S
C1070 H1060 0.950 1_545 S
C1070 C1071 1.386 . S
C1070 C1072 1.391 . S
C1071 C1070 1.386 . S
C1071 C1075 1.393 . S
C1072 H1061 0.950 . S
C1072 C1070 1.391 . S
C1072 C1073 1.400 . S
C1073 C1067 1.491 . S
C1073 C1072 1.400 . S
C1073 C1074 1.398 . S
C1074 H1062 0.950 . S
C1074 C1073 1.398 . S
C1074 C1075 1.391 . S
C1075 H1063 0.950 . S
C1075 C1071 1.393 . S
C1075 C1074 1.391 . S
H1076 C1084 0.950 . S
H1077 C1089 0.950 . S
H1078 C1086 0.950 . S
H1079 C1088 0.950 . S
H1080 C1090 0.950 . S
H1081 C1092 0.950 . S
H1082 C1094 0.950 . S
H1083 C1095 0.950 . S
C1084 H1076 0.950 . S
C1084 C1085 1.386 . S
C1084 C1086 1.391 . S
C1085 C1084 1.386 . S
C1085 C1089 1.393 . S
C1086 H1078 0.950 . S
C1086 C1084 1.391 . S
C1086 C1087 1.400 . S
C1087 C1086 1.400 . S
C1087 C1088 1.398 . S
C1087 C1093 1.491 . S
C1088 H1079 0.950 . S
C1088 C1087 1.398 . S
C1088 C1089 1.391 . S
C1089 H1077 0.950 . S
C1089 C1085 1.393 . S
C1089 C1088 1.391 . S
C1090 H1080 0.950 . S
C1090 C1091 1.386 . S
C1090 C1092 1.391 1_655 S
C1091 C1090 1.386 . S
C1091 C1095 1.393 1_655 S
C1092 H1081 0.950 . S
C1092 C1090 1.391 1_455 S
C1092 C1093 1.400 . S
C1093 C1087 1.491 . S
C1093 C1092 1.400 . S
C1093 C1094 1.398 . S
C1094 H1082 0.950 . S
C1094 C1093 1.398 . S
C1094 C1095 1.391 . S
C1095 H1083 0.950 . S
C1095 C1091 1.393 1_455 S
C1095 C1094 1.391 . S
H1096 C1104 0.950 . S
H1097 C1109 0.950 . S
H1098 C1106 0.950 . S
H1099 C1108 0.950 . S
H1100 C1110 0.950 . S
H1101 C1112 0.950 . S
H1102 C1114 0.950 . S
H1103 C1115 0.950 . S
C1104 H1096 0.950 . S
C1104 C1105 1.386 . S
C1104 C1106 1.391 . S
C1105 C1104 1.386 . S
C1105 C1109 1.393 . S
C1106 H1098 0.950 . S
C1106 C1104 1.391 . S
C1106 C1107 1.400 . S
C1107 C1106 1.400 . S
C1107 C1108 1.398 . S
C1107 C1113 1.491 . S
C1108 H1099 0.950 . S
C1108 C1107 1.398 . S
C1108 C1109 1.391 . S
C1109 H1097 0.950 . S
C1109 C1105 1.393 . S
C1109 C1108 1.391 . S
C1110 H1100 0.950 . S
C1110 C1111 1.386 . S
C1110 C1112 1.391 . S
C1111 C1110 1.386 . S
C1111 C1115 1.393 . S
C1112 H1101 0.950 . S
C1112 C1110 1.391 . S
C1112 C1113 1.400 . S
C1113 C1107 1.491 . S
C1113 C1112 1.400 . S
C1113 C1114 1.398 . S
C1114 H1102 0.950 . S
C1114 C1113 1.398 . S
C1114 C1115 1.391 . S
C1115 H1103 0.950 . S
C1115 C1111 1.393 . S
C1115 C1114 1.391 . S
H1116 C1124 0.950 . S
H1117 C1129 0.950 . S
H1118 C1126 0.950 . S
H1119 C1128 0.950 . S
H1120 C1130 0.950 . S
H1121 C1132 0.950 . S
H1122 C1134 0.950 . S
H1123 C1135 0.950 . S
C1124 H1116 0.950 . S
C1124 C1125 1.386 . S
C1124 C1126 1.391 . S
C1125 C1124 1.386 . S
C1125 C1129 1.393 . S
C1126 H1118 0.950 . S
C1126 C1124 1.391 . S
C1126 C1127 1.400 . S
C1127 C1126 1.400 . S
C1127 C1128 1.398 . S
C1127 C1133 1.491 . S
C1128 H1119 0.950 . S
C1128 C1127 1.398 . S
C1128 C1129 1.391 . S
C1129 H1117 0.950 . S
C1129 C1125 1.393 . S
C1129 C1128 1.391 . S
C1130 H1120 0.950 . S
C1130 C1131 1.386 . S
C1130 C1132 1.391 . S
C1131 C1130 1.386 . S
C1131 C1135 1.393 . S
C1132 H1121 0.950 . S
C1132 C1130 1.391 . S
C1132 C1133 1.400 . S
C1133 C1127 1.491 . S
C1133 C1132 1.400 . S
C1133 C1134 1.398 . S
C1134 H1122 0.950 . S
C1134 C1133 1.398 . S
C1134 C1135 1.391 . S
C1135 H1123 0.950 . S
C1135 C1131 1.393 . S
C1135 C1134 1.391 . S
H1136 C1144 0.950 . S
H1137 C1149 0.950 . S
H1138 C1146 0.950 . S
H1139 C1148 0.950 . S
H1140 C1150 0.950 . S
H1141 C1152 0.950 . S
H1142 C1154 0.950 . S
H1143 C1155 0.950 . S
C1144 H1136 0.950 . S
C1144 C1145 1.386 . S
C1144 C1146 1.391 . S
C1145 C1144 1.386 . S
C1145 C1149 1.393 . S
C1146 H1138 0.950 . S
C1146 C1144 1.391 . S
C1146 C1147 1.400 . S
C1147 C1146 1.400 . S
C1147 C1148 1.398 . S
C1147 C1153 1.491 . S
C1148 H1139 0.950 . S
C1148 C1147 1.398 . S
C1148 C1149 1.391 . S
C1149 H1137 0.950 . S
C1149 C1145 1.393 . S
C1149 C1148 1.391 . S
C1150 H1140 0.950 . S
C1150 C1151 1.386 . S
C1150 C1152 1.391 . S
C1151 C1150 1.386 . S
C1151 C1155 1.393 . S
C1152 H1141 0.950 . S
C1152 C1150 1.391 . S
C1152 C1153 1.400 . S
C1153 C1147 1.491 . S
C1153 C1152 1.400 . S
C1153 C1154 1.398 . S
C1154 H1142 0.950 . S
C1154 C1153 1.398 . S
C1154 C1155 1.391 . S
C1155 H1143 0.950 . S
C1155 C1151 1.393 . S
C1155 C1154 1.391 . S
H1156 C1164 0.950 . S
H1157 C1169 0.950 . S
H1158 C1166 0.950 . S
H1159 C1168 0.950 . S
H1160 C1170 0.950 . S
H1161 C1172 0.950 . S
H1162 C1174 0.950 . S
H1163 C1175 0.950 . S
C1164 H1156 0.950 . S
C1164 C1165 1.386 . S
C1164 C1166 1.391 . S
C1165 C1164 1.386 . S
C1165 C1169 1.393 . S
C1166 H1158 0.950 . S
C1166 C1164 1.391 . S
C1166 C1167 1.400 . S
C1167 C1166 1.400 . S
C1167 C1168 1.398 . S
C1167 C1173 1.491 . S
C1168 H1159 0.950 . S
C1168 C1167 1.398 . S
C1168 C1169 1.391 . S
C1169 H1157 0.950 . S
C1169 C1165 1.393 . S
C1169 C1168 1.391 . S
C1170 H1160 0.950 . S
C1170 C1171 1.386 . S
C1170 C1172 1.391 . S
C1171 C1170 1.386 . S
C1171 C1175 1.393 . S
C1172 H1161 0.950 . S
C1172 C1170 1.391 . S
C1172 C1173 1.400 . S
C1173 C1167 1.491 . S
C1173 C1172 1.400 . S
C1173 C1174 1.398 . S
C1174 H1162 0.950 . S
C1174 C1173 1.398 . S
C1174 C1175 1.391 . S
C1175 H1163 0.950 . S
C1175 C1171 1.393 . S
C1175 C1174 1.391 . S
H1176 C1184 0.950 . S
H1177 C1189 0.950 . S
H1178 C1186 0.950 . S
H1179 C1188 0.950 . S
H1180 C1190 0.950 . S
H1181 C1192 0.950 . S
H1182 C1194 0.950 . S
H1183 C1195 0.950 . S
C1184 H1176 0.950 . S
C1184 C1185 1.386 . S
C1184 C1186 1.391 . S
C1185 C1184 1.386 . S
C1185 C1189 1.393 . S
C1186 H1178 0.950 . S
C1186 C1184 1.391 . S
C1186 C1187 1.400 . S
C1187 C1186 1.400 . S
C1187 C1188 1.398 . S
C1187 C1193 1.491 . S
C1188 H1179 0.950 . S
C1188 C1187 1.398 . S
C1188 C1189 1.391 . S
C1189 H1177 0.950 . S
C1189 C1185 1.393 . S
C1189 C1188 1.391 . S
C1190 H1180 0.950 . S
C1190 C1191 1.386 . S
C1190 C1192 1.391 . S
C1191 C1190 1.386 . S
C1191 C1195 1.393 . S
C1192 H1181 0.950 . S
C1192 C1190 1.391 . S
C1192 C1193 1.400 . S
C1193 C1187 1.491 . S
C1193 C1192 1.400 . S
C1193 C1194 1.398 . S
C1194 H1182 0.950 . S
C1194 C1193 1.398 . S
C1194 C1195 1.391 . S
C1195 H1183 0.950 . S
C1195 C1191 1.393 . S
C1195 C1194 1.391 . S
H1196 C1204 0.950 . S
H1197 C1209 0.950 . S
H1198 C1206 0.950 . S
H1199 C1208 0.950 . S
H1200 C1210 0.950 . S
H1201 C1212 0.950 . S
H1202 C1214 0.950 . S
H1203 C1215 0.950 . S
C1204 H1196 0.950 . S
C1204 C1205 1.386 . S
C1204 C1206 1.391 . S
C1205 C1204 1.386 . S
C1205 C1209 1.393 . S
C1206 H1198 0.950 . S
C1206 C1204 1.391 . S
C1206 C1207 1.400 . S
C1207 C1206 1.400 . S
C1207 C1208 1.398 . S
C1207 C1213 1.491 . S
C1208 H1199 0.950 . S
C1208 C1207 1.398 . S
C1208 C1209 1.391 . S
C1209 H1197 0.950 . S
C1209 C1205 1.393 . S
C1209 C1208 1.391 . S
C1210 H1200 0.950 . S
C1210 C1211 1.386 . S
C1210 C1212 1.391 . S
C1211 C1210 1.386 . S
C1211 C1215 1.393 . S
C1212 H1201 0.950 . S
C1212 C1210 1.391 . S
C1212 C1213 1.400 . S
C1213 C1207 1.491 . S
C1213 C1212 1.400 . S
C1213 C1214 1.398 . S
C1214 H1202 0.950 . S
C1214 C1213 1.398 . S
C1214 C1215 1.391 . S
C1215 H1203 0.950 . S
C1215 C1211 1.393 . S
C1215 C1214 1.391 . S
H1216 C1224 0.950 . S
H1217 C1229 0.950 . S
H1218 C1226 0.950 . S
H1219 C1228 0.950 . S
H1220 C1230 0.950 . S
H1221 C1232 0.950 . S
H1222 C1234 0.950 . S
H1223 C1235 0.950 . S
C1224 H1216 0.950 . S
C1224 C1225 1.386 . S
C1224 C1226 1.391 . S
C1225 C1224 1.386 . S
C1225 C1229 1.393 . S
C1226 H1218 0.950 . S
C1226 C1224 1.391 . S
C1226 C1227 1.400 . S
C1227 C1226 1.400 . S
C1227 C1228 1.398 . S
C1227 C1233 1.491 . S
C1228 H1219 0.950 . S
C1228 C1227 1.398 . S
C1228 C1229 1.391 . S
C1229 H1217 0.950 . S
C1229 C1225 1.393 . S
C1229 C1228 1.391 . S
C1230 H1220 0.950 . S
C1230 C1231 1.386 . S
C1230 C1232 1.391 . S
C1231 C1230 1.386 . S
C1231 C1235 1.393 . S
C1232 H1221 0.950 . S
C1232 C1230 1.391 . S
C1232 C1233 1.400 . S
C1233 C1227 1.491 . S
C1233 C1232 1.400 . S
C1233 C1234 1.398 . S
C1234 H1222 0.950 . S
C1234 C1233 1.398 . S
C1234 C1235 1.391 . S
C1235 H1223 0.950 . S
C1235 C1231 1.393 . S
C1235 C1234 1.391 . S
H1236 C1244 0.950 . S
H1237 C1249 0.950 . S
H1238 C1246 0.950 . S
H1239 C1248 0.950 . S
H1240 C1250 0.950 . S
H1241 C1252 0.950 . S
H1242 C1254 0.950 . S
H1243 C1255 0.950 . S
C1244 H1236 0.950 . S
C1244 C1245 1.386 . S
C1244 C1246 1.391 . S
C1245 C1244 1.386 . S
C1245 C1249 1.393 . S
C1246 H1238 0.950 . S
C1246 C1244 1.391 . S
C1246 C1247 1.400 . S
C1247 C1246 1.400 . S
C1247 C1248 1.398 . S
C1247 C1253 1.491 . S
C1248 H1239 0.950 . S
C1248 C1247 1.398 . S
C1248 C1249 1.391 . S
C1249 H1237 0.950 . S
C1249 C1245 1.393 . S
C1249 C1248 1.391 . S
C1250 H1240 0.950 . S
C1250 C1251 1.386 . S
C1250 C1252 1.391 . S
C1251 C1250 1.386 . S
C1251 C1255 1.393 . S
C1252 H1241 0.950 . S
C1252 C1250 1.391 . S
C1252 C1253 1.400 . S
C1253 C1247 1.491 . S
C1253 C1252 1.400 . S
C1253 C1254 1.398 . S
C1254 H1242 0.950 . S
C1254 C1253 1.398 . S
C1254 C1255 1.391 . S
C1255 H1243 0.950 . S
C1255 C1251 1.393 . S
C1255 C1254 1.391 . S
H1256 C1264 0.950 . S
H1257 C1269 0.950 . S
H1258 C1266 0.950 . S
H1259 C1268 0.950 . S
H1260 C1270 0.950 . S
H1261 C1272 0.950 . S
H1262 C1274 0.950 . S
H1263 C1275 0.950 . S
C1264 H1256 0.950 . S
C1264 C1265 1.386 . S
C1264 C1266 1.391 . S
C1265 C1264 1.386 . S
C1265 C1269 1.393 . S
C1266 H1258 0.950 . S
C1266 C1264 1.391 . S
C1266 C1267 1.400 . S
C1267 C1266 1.400 . S
C1267 C1268 1.398 . S
C1267 C1273 1.491 . S
C1268 H1259 0.950 . S
C1268 C1267 1.398 . S
C1268 C1269 1.391 . S
C1269 H1257 0.950 . S
C1269 C1265 1.393 . S
C1269 C1268 1.391 . S
C1270 H1260 0.950 . S
C1270 C1271 1.386 . S
C1270 C1272 1.391 . S
C1271 C1270 1.386 . S
C1271 C1275 1.393 . S
C1272 H1261 0.950 . S
C1272 C1270 1.391 . S
C1272 C1273 1.400 . S
C1273 C1267 1.491 . S
C1273 C1272 1.400 . S
C1273 C1274 1.398 . S
C1274 H1262 0.950 . S
C1274 C1273 1.398 . S
C1274 C1275 1.391 . S
C1275 H1263 0.950 . S
C1275 C1271 1.393 . S
C1275 C1274 1.391 . S
H1276 C1284 0.950 . S
H1277 C1289 0.950 . S
H1278 C1286 0.950 . S
H1279 C1288 0.950 . S
H1280 C1290 0.950 . S
H1281 C1292 0.950 . S
H1282 C1294 0.950 . S
H1283 C1295 0.950 . S
C1284 H1276 0.950 . S
C1284 C1285 1.386 . S
C1284 C1286 1.391 . S
C1285 C1284 1.386 . S
C1285 C1289 1.393 . S
C1286 H1278 0.950 . S
C1286 C1284 1.391 . S
C1286 C1287 1.400 . S
C1287 C1286 1.400 . S
C1287 C1288 1.398 . S
C1287 C1293 1.491 . S
C1288 H1279 0.950 . S
C1288 C1287 1.398 . S
C1288 C1289 1.391 . S
C1289 H1277 0.950 . S
C1289 C1285 1.393 . S
C1289 C1288 1.391 . S
C1290 H1280 0.950 . S
C1290 C1291 1.386 . S
C1290 C1292 1.391 . S
C1291 C1290 1.386 . S
C1291 C1295 1.393 . S
C1292 H1281 0.950 . S
C1292 C1290 1.391 . S
C1292 C1293 1.400 . S
C1293 C1287 1.491 . S
C1293 C1292 1.400 . S
C1293 C1294 1.398 . S
C1294 H1282 0.950 . S
C1294 C1293 1.398 . S
C1294 C1295 1.391 . S
C1295 H1283 0.950 . S
C1295 C1291 1.393 . S
C1295 C1294 1.391 . S
H1296 C1304 0.950 . S
H1297 C1309 0.950 . S
H1298 C1306 0.950 . S
H1299 C1308 0.950 . S
H1300 C1310 0.950 . S
H1301 C1312 0.950 . S
H1302 C1314 0.950 . S
H1303 C1315 0.950 . S
C1304 H1296 0.950 . S
C1304 C1305 1.386 . S
C1304 C1306 1.391 . S
C1305 C1304 1.386 . S
C1305 C1309 1.393 . S
C1306 H1298 0.950 . S
C1306 C1304 1.391 . S
C1306 C1307 1.400 . S
C1307 C1306 1.400 . S
C1307 C1308 1.398 . S
C1307 C1313 1.491 . S
C1308 H1299 0.950 . S
C1308 C1307 1.398 . S
C1308 C1309 1.391 . S
C1309 H1297 0.950 . S
C1309 C1305 1.393 . S
C1309 C1308 1.391 . S
C1310 H1300 0.950 . S
C1310 C1311 1.386 . S
C1310 C1312 1.391 . S
C1311 C1310 1.386 . S
C1311 C1315 1.393 . S
C1312 H1301 0.950 . S
C1312 C1310 1.391 . S
C1312 C1313 1.400 . S
C1313 C1307 1.491 . S
C1313 C1312 1.400 . S
C1313 C1314 1.398 . S
C1314 H1302 0.950 . S
C1314 C1313 1.398 . S
C1314 C1315 1.391 . S
C1315 H1303 0.950 . S
C1315 C1311 1.393 . S
C1315 C1314 1.391 . S
H1316 C1324 0.950 . S
H1317 C1329 0.950 . S
H1318 C1326 0.950 . S
H1319 C1328 0.950 . S
H1320 C1330 0.950 . S
H1321 C1332 0.950 . S
H1322 C1334 0.950 . S
H1323 C1335 0.950 . S
C1324 H1316 0.950 . S
C1324 C1325 1.386 . S
C1324 C1326 1.391 . S
C1325 C1324 1.386 . S
C1325 C1329 1.393 . S
C1326 H1318 0.950 . S
C1326 C1324 1.391 . S
C1326 C1327 1.400 . S
C1327 C1326 1.400 . S
C1327 C1328 1.398 . S
C1327 C1333 1.491 . S
C1328 H1319 0.950 . S
C1328 C1327 1.398 . S
C1328 C1329 1.391 . S
C1329 H1317 0.950 . S
C1329 C1325 1.393 . S
C1329 C1328 1.391 . S
C1330 H1320 0.950 . S
C1330 C1331 1.386 . S
C1330 C1332 1.391 . S
C1331 C1330 1.386 . S
C1331 C1335 1.393 . S
C1332 H1321 0.950 . S
C1332 C1330 1.391 . S
C1332 C1333 1.400 . S
C1333 C1327 1.491 . S
C1333 C1332 1.400 . S
C1333 C1334 1.398 . S
C1334 H1322 0.950 . S
C1334 C1333 1.398 . S
C1334 C1335 1.391 . S
C1335 H1323 0.950 . S
C1335 C1331 1.393 . S
C1335 C1334 1.391 . S
H1336 C1344 0.950 . S
H1337 C1349 0.950 . S
H1338 C1346 0.950 . S
H1339 C1348 0.950 . S
H1340 C1350 0.950 . S
H1341 C1352 0.950 . S
H1342 C1354 0.950 . S
H1343 C1355 0.950 . S
C1344 H1336 0.950 . S
C1344 C1345 1.386 . S
C1344 C1346 1.391 . S
C1345 C1344 1.386 . S
C1345 C1349 1.393 . S
C1346 H1338 0.950 . S
C1346 C1344 1.391 . S
C1346 C1347 1.400 . S
C1347 C1346 1.400 . S
C1347 C1348 1.398 . S
C1347 C1353 1.491 . S
C1348 H1339 0.950 . S
C1348 C1347 1.398 . S
C1348 C1349 1.391 . S
C1349 H1337 0.950 . S
C1349 C1345 1.393 . S
C1349 C1348 1.391 . S
C1350 H1340 0.950 . S
C1350 C1351 1.386 . S
C1350 C1352 1.391 . S
C1351 C1350 1.386 . S
C1351 C1355 1.393 . S
C1352 H1341 0.950 . S
C1352 C1350 1.391 . S
C1352 C1353 1.400 . S
C1353 C1347 1.491 . S
C1353 C1352 1.400 . S
C1353 C1354 1.398 . S
C1354 H1342 0.950 . S
C1354 C1353 1.398 . S
C1354 C1355 1.391 . S
C1355 H1343 0.950 . S
C1355 C1351 1.393 . S
C1355 C1354 1.391 . S
H1356 C1364 0.950 . S
H1357 C1369 0.935 1_655 S
H1358 C1366 0.950 . S
H1359 C1368 0.950 . S
H1360 C1370 0.950 . S
H1361 C1372 0.950 . S
H1362 C1374 0.950 . S
H1363 C1375 0.950 . S
C1364 H1356 0.950 . S
C1364 C1365 1.386 1_455 S
C1364 C1366 1.391 1_554 S
C1365 C1364 1.386 1_655 S
C1365 C1369 1.403 1_655 S
C1366 H1358 0.950 . S
C1366 C1364 1.391 1_556 S
C1366 C1367 1.400 1_556 S
C1367 C1366 1.400 1_554 S
C1367 C1368 1.398 . S
C1367 C1373 1.491 1_554 S
C1368 H1359 0.950 . S
C1368 C1367 1.398 . S
C1368 C1369 1.396 . S
C1369 H1357 0.935 1_455 S
C1369 C1365 1.403 1_455 S
C1369 C1368 1.396 . S
C1370 H1360 0.950 . S
C1370 C1371 1.386 . S
C1370 C1372 1.391 1_556 S
C1371 C1370 1.386 . S
C1371 C1375 1.393 . S
C1372 H1361 0.950 . S
C1372 C1370 1.391 1_554 S
C1372 C1373 1.400 1_554 S
C1373 C1367 1.491 1_556 S
C1373 C1372 1.400 1_556 S
C1373 C1374 1.398 . S
C1374 H1362 0.950 . S
C1374 C1373 1.398 . S
C1374 C1375 1.391 . S
C1375 H1363 0.950 . S
C1375 C1371 1.393 . S
C1375 C1374 1.391 . S
H1376 C1384 0.950 . S
H1377 C1389 0.950 . S
H1378 C1386 0.950 . S
H1379 C1388 0.950 . S
H1380 C1390 0.950 . S
H1381 C1392 0.950 . S
H1382 C1394 0.956 . S
H1383 C1395 0.950 . S
C1384 H1376 0.950 . S
C1384 C1385 1.386 . S
C1384 C1386 1.391 . S
C1385 C1384 1.386 . S
C1385 C1389 1.393 . S
C1386 H1378 0.950 . S
C1386 C1384 1.391 . S
C1386 C1387 1.400 . S
C1387 C1386 1.400 . S
C1387 C1388 1.398 1_556 S
C1387 C1393 1.491 1_556 S
C1388 H1379 0.950 . S
C1388 C1387 1.398 1_554 S
C1388 C1389 1.391 1_554 S
C1389 H1377 0.950 . S
C1389 C1385 1.393 . S
C1389 C1388 1.391 1_556 S
C1390 H1380 0.950 . S
C1390 C1391 1.386 . S
C1390 C1392 1.391 . S
C1391 C1390 1.386 . S
C1391 C1395 1.393 . S
C1392 H1381 0.950 . S
C1392 C1390 1.391 . S
C1392 C1393 1.400 . S
C1393 C1387 1.491 1_554 S
C1393 C1392 1.400 . S
C1393 C1394 1.396 1_554 S
C1394 H1382 0.956 . S
C1394 C1393 1.396 1_556 S
C1394 C1395 1.387 1_556 S
C1395 H1383 0.950 . S
C1395 C1391 1.393 . S
C1395 C1394 1.387 1_554 S
H1396 C1404 0.950 . S
H1397 C1409 0.950 . S
H1398 C1406 0.958 . S
H1399 C1408 0.950 . S
H1400 C1410 0.950 . S
H1401 C1412 0.949 1_554 S
H1402 C1414 0.950 . S
H1403 C1415 0.950 . S
C1404 H1396 0.950 . S
C1404 C1405 1.386 . S
C1404 C1406 1.391 . S
C1405 C1404 1.386 . S
C1405 C1409 1.393 . S
C1406 H1398 0.958 . S
C1406 C1404 1.391 . S
C1406 C1407 1.400 . S
C1407 C1406 1.400 . S
C1407 C1408 1.398 . S
C1407 C1413 1.491 1_554 S
C1408 H1399 0.950 . S
C1408 C1407 1.398 . S
C1408 C1409 1.391 . S
C1409 H1397 0.950 . S
C1409 C1405 1.393 . S
C1409 C1408 1.391 . S
C1410 H1400 0.950 . S
C1410 C1411 1.386 . S
C1410 C1412 1.391 . S
C1411 C1410 1.386 . S
C1411 C1415 1.393 1_545 S
C1412 H1401 0.949 1_556 S
C1412 C1410 1.391 . S
C1412 C1413 1.400 . S
C1413 C1407 1.491 1_556 S
C1413 C1412 1.400 . S
C1413 C1414 1.398 . S
C1414 H1402 0.950 . S
C1414 C1413 1.398 . S
C1414 C1415 1.391 1_545 S
C1415 H1403 0.950 . S
C1415 C1411 1.393 1_565 S
C1415 C1414 1.391 1_565 S
H1416 C1424 0.950 . S
H1417 C1429 0.950 . S
H1418 C1426 0.950 . S
H1419 C1428 0.950 . S
H1420 C1430 0.950 1_565 S
H1421 C1432 0.950 . S
H1422 C1434 0.950 . S
H1423 C1435 0.950 . S
C1424 H1416 0.950 . S
C1424 C1425 1.386 . S
C1424 C1426 1.391 . S
C1425 C1424 1.386 . S
C1425 C1429 1.393 . S
C1426 H1418 0.950 . S
C1426 C1424 1.391 . S
C1426 C1427 1.400 . S
C1427 C1426 1.400 . S
C1427 C1428 1.398 . S
C1427 C1433 1.491 . S
C1428 H1419 0.950 . S
C1428 C1427 1.398 . S
C1428 C1429 1.391 . S
C1429 H1417 0.950 . S
C1429 C1425 1.393 . S
C1429 C1428 1.391 . S
C1430 H1420 0.950 1_545 S
C1430 C1431 1.386 . S
C1430 C1432 1.391 . S
C1431 C1430 1.386 . S
C1431 C1435 1.393 . S
C1432 H1421 0.950 . S
C1432 C1430 1.391 . S
C1432 C1433 1.400 . S
C1433 C1427 1.491 . S
C1433 C1432 1.400 . S
C1433 C1434 1.398 . S
C1434 H1422 0.950 . S
C1434 C1433 1.398 . S
C1434 C1435 1.391 . S
C1435 H1423 0.950 . S
C1435 C1431 1.393 . S
C1435 C1434 1.391 . S
H1436 C1444 0.950 . S
H1437 C1449 0.950 . S
H1438 C1446 0.950 . S
H1439 C1448 0.950 . S
H1440 C1450 0.950 . S
H1441 C1452 0.950 . S
H1442 C1454 0.950 . S
H1443 C1455 0.950 . S
C1444 H1436 0.950 . S
C1444 C1445 1.386 1_455 S
C1444 C1446 1.391 . S
C1445 C1444 1.386 1_655 S
C1445 C1449 1.393 . S
C1446 H1438 0.950 . S
C1446 C1444 1.391 . S
C1446 C1447 1.400 . S
C1447 C1446 1.400 . S
C1447 C1448 1.398 . S
C1447 C1453 1.491 . S
C1448 H1439 0.950 . S
C1448 C1447 1.398 . S
C1448 C1449 1.391 1_455 S
C1449 H1437 0.950 . S
C1449 C1445 1.393 . S
C1449 C1448 1.391 1_655 S
C1450 H1440 0.950 . S
C1450 C1451 1.386 . S
C1450 C1452 1.391 . S
C1451 C1450 1.386 . S
C1451 C1455 1.393 . S
C1452 H1441 0.950 . S
C1452 C1450 1.391 . S
C1452 C1453 1.400 . S
C1453 C1447 1.491 . S
C1453 C1452 1.400 . S
C1453 C1454 1.398 . S
C1454 H1442 0.950 . S
C1454 C1453 1.398 . S
C1454 C1455 1.391 . S
C1455 H1443 0.950 . S
C1455 C1451 1.393 . S
C1455 C1454 1.391 . S
H1456 C1464 0.950 . S
H1457 C1469 0.950 . S
H1458 C1466 0.950 . S
H1459 C1468 0.950 . S
H1460 C1470 0.950 . S
H1461 C1472 0.950 . S
H1462 C1474 0.950 . S
H1463 C1475 0.950 . S
C1464 H1456 0.950 . S
C1464 C1465 1.386 . S
C1464 C1466 1.391 . S
C1465 C1464 1.386 . S
C1465 C1469 1.393 . S
C1466 H1458 0.950 . S
C1466 C1464 1.391 . S
C1466 C1467 1.400 . S
C1467 C1466 1.400 . S
C1467 C1468 1.398 . S
C1467 C1473 1.491 . S
C1468 H1459 0.950 . S
C1468 C1467 1.398 . S
C1468 C1469 1.391 . S
C1469 H1457 0.950 . S
C1469 C1465 1.393 . S
C1469 C1468 1.391 . S
C1470 H1460 0.950 . S
C1470 C1471 1.386 . S
C1470 C1472 1.391 . S
C1471 C1470 1.386 . S
C1471 C1475 1.393 . S
C1472 H1461 0.950 . S
C1472 C1470 1.391 . S
C1472 C1473 1.400 . S
C1473 C1467 1.491 . S
C1473 C1472 1.400 . S
C1473 C1474 1.398 . S
C1474 H1462 0.950 . S
C1474 C1473 1.398 . S
C1474 C1475 1.391 . S
C1475 H1463 0.950 . S
C1475 C1471 1.393 . S
C1475 C1474 1.391 . S
C405 C53 1.413 . S
C411 C6 1.392 . S
C425 C9 1.396 1_655 S
C431 C27 1.414 . S
C445 C29 1.382 . S
C451 C50 1.406 1_565 S
C465 C75 1.411 1_655 S
C471 C115 1.387 1_565 S
C485 C72 1.395 . S
C491 C95 1.414 . S
C505 C93 1.403 . S
C511 C117 1.381 . S
C525 C185 1.395 . S
C531 C138 1.382 . S
C545 C160 1.384 . S
C551 C141 1.409 . S
C565 C163 1.384 . S
C571 C182 1.389 . S
C585 C205 1.409 . S
C591 C247 1.407 . S
C605 C203 1.382 . S
C611 C227 1.396 . S
C625 C249 1.401 . S
C631 C225 1.381 . S
C645 C315 1.413 . S
C651 C270 1.391 . S
C665 C273 1.397 . S
C671 C291 1.381 . S
C685 C293 1.412 . S
C691 C313 1.387 . S
C705 C379 1.408 . S
C711 C339 1.408 . S
C725 C359 1.396 . S
C731 C336 1.414 . S
C745 C381 1.404 . S
C751 C357 1.381 . S
C765 C5 1.827 . S
C771 C295 1.830 . S
C785 C317 1.821 . S
C791 C26 1.837 . S
C805 C49 1.828 . S
C811 C272 1.829 . S
C825 C159 1.838 1_556 S
C831 C52 1.820 . S
C845 C8 1.843 . S
C851 C181 1.834 1_556 S
C865 C137 1.837 1_556 S
C871 C31 1.822 . S
C885 C226 1.839 . S
C891 C73 1.820 . S
C905 C96 1.838 . S
C911 C248 1.819 . S
C925 C204 1.834 . S
C931 C118 1.825 . S
C945 C116 1.822 . S
C951 C360 1.835 1_554 S
C965 C382 1.838 1_554 S
C971 C70 1.820 . S
C985 C337 1.824 1_554 S
C991 C94 1.833 . S
C1005 C290 1.819 . S
C1011 C184 1.839 . S
C1025 C312 1.835 . S
C1031 C140 1.822 . S
C1045 C162 1.837 . S
C1051 C269 1.821 1_545 S
C1065 C206 1.831 . S
C1071 C358 1.826 1_545 S
C1085 C380 1.839 . S
C1091 C228 1.819 . S
C1105 C250 1.821 . S
C1111 C334 1.837 . S
C1125 C4 1.062 . S
C1131 C338 1.062 . S
C1145 C28 1.050 . S
C1151 C361 1.050 . S
C1165 C383 1.049 . S
C1171 C48 1.049 . S
C1185 C246 1.051 . S
C1191 C51 1.051 . S
C1205 C202 1.054 . S
C1211 C7 1.054 . S
C1225 C30 1.060 . S
C1231 C224 1.060 . S
C1245 C74 1.052 . S
C1251 C136 1.052 . S
C1265 C97 1.066 . S
C1271 C158 1.066 . S
C1285 C119 1.058 . S
C1291 C180 1.058 . S
C1305 C114 1.066 . S
C1311 C316 1.066 . S
C1325 C71 1.049 . S
C1331 C271 1.049 . S
C1345 C294 1.055 . S
C1351 C92 1.055 . S
C1365 C183 1.050 . S
C1371 C378 1.050 . S
C1385 C335 1.047 . S
C1391 C139 1.047 . S
C1405 C161 1.046 . S
C1411 C356 1.046 1_545 S
C1425 C207 1.055 . S
C1431 C268 1.055 1_545 S
C1445 C229 1.061 . S
C1451 C292 1.061 . S
C1465 C314 1.048 . S
C1471 C251 1.048 . S
