# Generated by pormake.
# Topology acs-a, (4)-cn, num edge types: 1
# Building blocks:
#     Node 0, Type 0, BuildingBlock: AZAVOO_clean_sbu_0, # of connection points: 4
#     Node 1, Type 0, BuildingBlock: AZAVOO_clean_sbu_0, # of connection points: 4
#     Node 2, Type 0, BuildingBlock: AZAVOO_clean_sbu_0, # of connection points: 4
#     Node 3, Type 0, BuildingBlock: AZAVOO_clean_sbu_0, # of connection points: 4
#     Node 4, Type 0, BuildingBlock: AZAVOO_clean_sbu_0, # of connection points: 4
#     Node 5, Type 0, BuildingBlock: AZAVOO_clean_sbu_0, # of connection points: 4
#     Node 6, Type 0, BuildingBlock: AZAVOO_clean_sbu_0, # of connection points: 4
#     Node 7, Type 0, BuildingBlock: AZAVOO_clean_sbu_0, # of connection points: 4
#     Node 8, Type 0, BuildingBlock: AZAVOO_clean_sbu_0, # of connection points: 4
#     Node 9, Type 0, BuildingBlock: AZAVOO_clean_sbu_0, # of connection points: 4
#     Node 10, Type 0, BuildingBlock: AZAVOO_clean_sbu_0, # of connection points: 4
#     Node 11, Type 0, BuildingBlock: AZAVOO_clean_sbu_0, # of connection points: 4
#     Edge 12, Type (0, 0), BuildingBlock: XUDNAN_clean_linker_2, # of connection points: 2
#     Edge 13, Type (0, 0), BuildingBlock: XUDNAN_clean_linker_2, # of connection points: 2
#     Edge 14, Type (0, 0), BuildingBlock: XUDNAN_clean_linker_2, # of connection points: 2
#     Edge 15, Type (0, 0), BuildingBlock: XUDNAN_clean_linker_2, # of connection points: 2
#     Edge 16, Type (0, 0), BuildingBlock: XUDNAN_clean_linker_2, # of connection points: 2
#     Edge 17, Type (0, 0), BuildingBlock: XUDNAN_clean_linker_2, # of connection points: 2
#     Edge 18, Type (0, 0), BuildingBlock: XUDNAN_clean_linker_2, # of connection points: 2
#     Edge 19, Type (0, 0), BuildingBlock: XUDNAN_clean_linker_2, # of connection points: 2
#     Edge 20, Type (0, 0), BuildingBlock: XUDNAN_clean_linker_2, # of connection points: 2
#     Edge 21, Type (0, 0), BuildingBlock: XUDNAN_clean_linker_2, # of connection points: 2
#     Edge 22, Type (0, 0), BuildingBlock: XUDNAN_clean_linker_2, # of connection points: 2
#     Edge 23, Type (0, 0), BuildingBlock: XUDNAN_clean_linker_2, # of connection points: 2
#     Edge 24, Type (0, 0), BuildingBlock: XUDNAN_clean_linker_2, # of connection points: 2
#     Edge 25, Type (0, 0), BuildingBlock: XUDNAN_clean_linker_2, # of connection points: 2
#     Edge 26, Type (0, 0), BuildingBlock: XUDNAN_clean_linker_2, # of connection points: 2
#     Edge 27, Type (0, 0), BuildingBlock: XUDNAN_clean_linker_2, # of connection points: 2
#     Edge 28, Type (0, 0), BuildingBlock: XUDNAN_clean_linker_2, # of connection points: 2
#     Edge 29, Type (0, 0), BuildingBlock: XUDNAN_clean_linker_2, # of connection points: 2
#     Edge 30, Type (0, 0), BuildingBlock: XUDNAN_clean_linker_2, # of connection points: 2
#     Edge 31, Type (0, 0), BuildingBlock: XUDNAN_clean_linker_2, # of connection points: 2
#     Edge 32, Type (0, 0), BuildingBlock: XUDNAN_clean_linker_2, # of connection points: 2
#     Edge 33, Type (0, 0), BuildingBlock: XUDNAN_clean_linker_2, # of connection points: 2
#     Edge 34, Type (0, 0), BuildingBlock: XUDNAN_clean_linker_2, # of connection points: 2
#     Edge 35, Type (0, 0), BuildingBlock: XUDNAN_clean_linker_2, # of connection points: 2
# Relax obj value: 0.386
# Max RMSD: 0.185
# Mean RMSD: 0.185
data_MOF--net-acs-a--node1-AZAVOO_clean_sbu_0--edge1-XUDNAN_clean_linker_2
_symmetry_space_group_name_H-M    P1
_symmetry_Int_Tables_number       1
_symmetry_cell_setting            triclinic
loop_
_symmetry_equiv_pos_as_xyz
'x, y, z'
_cell_length_a     43.599193
_cell_length_b     43.554787
_cell_length_c     51.109303
_cell_angle_alpha  89.979039
_cell_angle_beta   89.97451
_cell_angle_gamma 119.53563
loop_
_atom_site_label
_atom_site_type_symbol
_atom_site_fract_x
_atom_site_fract_y
_atom_site_fract_z
_atom_type_partial_charge
Mg0 Mg 0.55297 0.15112 0.10295 0.0
O1 O 0.61241 0.1912 0.09843 0.0
O2 O 0.62457 0.23405 0.12763 0.0
Mg3 Mg 0.57578 0.2202 0.15237 0.0
C4 C 0.63374 0.22085 0.10893 0.0
C5 C 0.52786 0.08711 0.06734 0.0
O6 O 0.49892 0.08691 0.07482 0.0
O7 O 0.56382 0.12748 0.13988 0.0
O8 O 0.57361 0.17013 0.1686 0.0
O9 O 0.54093 0.1848 0.07591 0.0
O10 O 0.54419 0.19046 0.11878 0.0
C11 C 0.56974 0.1398 0.16318 0.0
C12 C 0.54109 0.20224 0.09646 0.0
O13 O 0.55726 0.11131 0.076 0.0
Mg14 Mg 0.3346 0.47938 0.60917 0.0
O15 O 0.36322 0.5389 0.59994 0.0
O16 O 0.34373 0.56619 0.62673 0.0
Mg17 Mg 0.30968 0.52567 0.65723 0.0
C18 C 0.3626 0.56652 0.60752 0.0
C19 C 0.37261 0.48583 0.55696 0.0
O20 O 0.35674 0.50423 0.55223 0.0
O21 O 0.37438 0.49098 0.64212 0.0
O22 O 0.35824 0.52148 0.66857 0.0
O23 O 0.28829 0.47228 0.5856 0.0
O24 O 0.29447 0.48395 0.6279 0.0
C25 C 0.37861 0.50922 0.66273 0.0
C26 C 0.27733 0.48046 0.60659 0.0
O27 O 0.3693 0.47196 0.57942 0.0
Mg28 Mg 0.92277 0.45521 0.10363 0.0
O29 O 0.87844 0.46719 0.11115 0.0
O30 O 0.83442 0.4236 0.1333 0.0
Mg31 Mg 0.85249 0.38288 0.14104 0.0
C32 C 0.84813 0.45353 0.12182 0.0
C33 C 0.97467 0.53016 0.07304 0.0
O34 O 0.99009 0.56479 0.07318 0.0
O35 O 0.94036 0.46898 0.14625 0.0
O36 O 0.89652 0.42345 0.16718 0.0
O37 O 0.89301 0.42594 0.06753 0.0
O38 O 0.88699 0.40118 0.10632 0.0
C39 C 0.92576 0.45244 0.16732 0.0
C40 C 0.8766 0.3986 0.08252 0.0
O41 O 0.95681 0.51354 0.09303 0.0
Mg42 Mg 0.5151 0.87154 0.61388 0.0
O43 O 0.45452 0.84363 0.6156 0.0
O44 O 0.4365 0.79375 0.63833 0.0
Mg45 Mg 0.4843 0.78873 0.65032 0.0
C46 C 0.43002 0.8152 0.62566 0.0
C47 C 0.50425 0.91745 0.57393 0.0
O48 O 0.4875 0.88573 0.56365 0.0
O49 O 0.51723 0.88884 0.65708 0.0
O50 O 0.50115 0.83694 0.67631 0.0
O51 O 0.51135 0.84054 0.57769 0.0
O52 O 0.51349 0.82291 0.61774 0.0
C53 C 0.51152 0.8699 0.67763 0.0
C54 C 0.509 0.81607 0.59316 0.0
O55 O 0.51715 0.92114 0.59682 0.0
Mg56 Mg 0.61583 0.52845 0.12265 0.0
O57 O 0.59854 0.46964 0.11611 0.0
O58 O 0.61972 0.45279 0.14981 0.0
Mg59 Mg 0.65267 0.5005 0.17602 0.0
C60 C 0.6022 0.44613 0.12853 0.0
C61 C 0.58369 0.54569 0.07387 0.0
O62 O 0.61664 0.57072 0.07124 0.0
O63 O 0.5753 0.51281 0.15551 0.0
O64 O 0.60139 0.49916 0.1876 0.0
O65 O 0.66415 0.54317 0.09905 0.0
O66 O 0.66046 0.53394 0.14178 0.0
C67 C 0.57634 0.50348 0.17898 0.0
C68 C 0.67774 0.53882 0.12027 0.0
O69 O 0.5752 0.5246 0.09314 0.0
Mg70 Mg 0.11188 0.65663 0.62991 0.0
O71 O 0.13835 0.6228 0.62433 0.0
O72 O 0.17742 0.63666 0.6569 0.0
Mg73 Mg 0.17899 0.6818 0.68103 0.0
C74 C 0.16156 0.61864 0.63662 0.0
C75 C 0.07092 0.62341 0.57794 0.0
O76 O 0.10093 0.64793 0.56813 0.0
O77 O 0.0819 0.62204 0.66519 0.0
O78 O 0.12396 0.6425 0.69577 0.0
O79 O 0.15263 0.69807 0.60375 0.0
O80 O 0.15869 0.69571 0.64646 0.0
C81 C 0.09209 0.6225 0.68869 0.0
C82 C 0.17267 0.70924 0.62418 0.0
O83 O 0.06725 0.62029 0.60264 0.0
Mg84 Mg 0.86312 0.52871 0.38778 0.0
O85 O 0.83903 0.46829 0.39093 0.0
O86 O 0.79946 0.4436 0.35866 0.0
Mg87 Mg 0.80213 0.48749 0.3328 0.0
C88 C 0.81533 0.44123 0.37891 0.0
C89 C 0.89218 0.51977 0.44045 0.0
O90 O 0.85827 0.49754 0.44278 0.0
O91 O 0.89931 0.52903 0.35497 0.0
O92 O 0.85896 0.50249 0.32358 0.0
O93 O 0.818 0.52548 0.41098 0.0
O94 O 0.81748 0.52037 0.368 0.0
C95 C 0.89058 0.51656 0.33189 0.0
C96 C 0.80052 0.51784 0.3893 0.0
O97 O 0.90365 0.53688 0.41918 0.0
Mg98 Mg 0.39102 0.8398 0.90617 0.0
O99 O 0.41486 0.80355 0.91585 0.0
O100 O 0.39053 0.75875 0.88727 0.0
Mg101 Mg 0.35841 0.76905 0.85719 0.0
C102 C 0.40999 0.77392 0.90706 0.0
C103 C 0.46044 0.89747 0.93787 0.0
O104 O 0.4789 0.88878 0.92227 0.0
O105 O 0.42999 0.8653 0.87197 0.0
O106 O 0.40797 0.8195 0.84431 0.0
O107 O 0.343 0.80393 0.92994 0.0
O108 O 0.34817 0.79795 0.88761 0.0
C109 C 0.4307 0.85119 0.85022 0.0
C110 C 0.33028 0.78569 0.90879 0.0
O111 O 0.42709 0.88204 0.9355 0.0
Mg112 Mg 0.45853 0.33759 0.37913 0.0
O113 O 0.51888 0.3722 0.37943 0.0
O114 O 0.53963 0.35312 0.34691 0.0
Mg115 Mg 0.49329 0.30606 0.32676 0.0
C116 C 0.54448 0.374 0.366 0.0
C117 C 0.45649 0.37767 0.42952 0.0
O118 O 0.46326 0.35452 0.44074 0.0
O119 O 0.45647 0.367 0.34271 0.0
O120 O 0.47496 0.34375 0.31176 0.0
O121 O 0.46303 0.30014 0.40684 0.0
O122 O 0.46455 0.29655 0.36379 0.0
C123 C 0.46319 0.3641 0.31883 0.0
C124 C 0.46894 0.28627 0.38644 0.0
O125 O 0.45333 0.37735 0.4048 0.0
Mg126 Mg 0.1027 0.45419 0.87575 0.0
O127 O 0.13906 0.51379 0.88335 0.0
O128 O 0.17556 0.53476 0.84894 0.0
Mg129 Mg 0.16547 0.48964 0.82123 0.0
C130 C 0.16414 0.53924 0.87083 0.0
C131 C 0.05634 0.47455 0.91177 0.0
O132 O 0.06842 0.50189 0.89599 0.0
O133 O 0.07348 0.46777 0.84459 0.0
O134 O 0.11247 0.48593 0.81171 0.0
O135 O 0.14038 0.44297 0.89735 0.0
O136 O 0.14409 0.45445 0.85498 0.0
C137 C 0.08252 0.47855 0.82115 0.0
C138 C 0.15825 0.45024 0.87583 0.0
O139 O 0.06485 0.45094 0.9078 0.0
Mg140 Mg 0.65524 0.12849 0.39263 0.0
O141 O 0.62292 0.15697 0.39052 0.0
O142 O 0.64609 0.19901 0.35991 0.0
Mg143 Mg 0.69522 0.19955 0.34361 0.0
C144 C 0.62285 0.18182 0.37734 0.0
C145 C 0.60606 0.09903 0.43941 0.0
O146 O 0.62163 0.13346 0.44206 0.0
O147 O 0.62895 0.1004 0.35379 0.0
O148 O 0.65765 0.14582 0.32616 0.0
O149 O 0.69139 0.16798 0.4222 0.0
O150 O 0.69953 0.17466 0.37954 0.0
C151 C 0.63576 0.11343 0.33066 0.0
C152 C 0.70847 0.18781 0.40263 0.0
O153 O 0.6127 0.08638 0.41908 0.0
Mg154 Mg 0.49293 0.56587 0.88776 0.0
O155 O 0.43545 0.55109 0.88346 0.0
O156 O 0.42974 0.59646 0.86932 0.0
Mg157 Mg 0.48662 0.6415 0.86303 0.0
C158 C 0.41637 0.56448 0.87695 0.0
C159 C 0.46563 0.48539 0.90823 0.0
O160 O 0.4513 0.45147 0.90334 0.0
O161 O 0.49699 0.56266 0.84352 0.0
O162 O 0.49197 0.60872 0.83006 0.0
O163 O 0.49045 0.58547 0.92812 0.0
O164 O 0.50668 0.61876 0.89265 0.0
C165 C 0.49542 0.58179 0.82525 0.0
C166 C 0.49894 0.61536 0.9171 0.0
O167 O 0.47356 0.50666 0.88915 0.0
H168 H 0.57834 0.11358 0.31316 0.0
H169 H 0.64994 0.07461 0.29585 0.0
H170 H 0.62961 0.06434 0.24983 0.0
H171 H 0.50723 0.06039 0.26088 0.0
H172 H 0.50228 0.09846 0.25464 0.0
H173 H 0.5124 0.09012 0.28719 0.0
H174 H 0.56679 0.15282 0.28805 0.0
H175 H 0.55759 0.16115 0.25547 0.0
H176 H 0.59996 0.16549 0.26294 0.0
H177 H 0.61223 0.07212 0.20412 0.0
H178 H 0.6006 0.09774 0.16445 0.0
H179 H 0.54418 0.13598 0.2119 0.0
C180 C 0.58769 0.10044 0.30003 0.0
C181 C 0.61444 0.09337 0.30813 0.0
C182 C 0.62825 0.07864 0.29018 0.0
C183 C 0.61701 0.07304 0.26395 0.0
C184 C 0.59217 0.08259 0.25604 0.0
C185 C 0.57733 0.0956 0.27377 0.0
C186 C 0.55694 0.11064 0.25998 0.0
C187 C 0.51736 0.08857 0.26603 0.0
C188 C 0.57121 0.14982 0.26703 0.0
C189 C 0.5645 0.10629 0.23177 0.0
C190 C 0.5838 0.089 0.22971 0.0
C191 C 0.59642 0.08494 0.20552 0.0
C192 C 0.58977 0.09956 0.18308 0.0
C193 C 0.57156 0.11878 0.18523 0.0
C194 C 0.55806 0.12124 0.20976 0.0
H195 H 0.41952 0.57149 0.68625 0.0
H196 H 0.40208 0.4649 0.68067 0.0
H197 H 0.44234 0.47651 0.71829 0.0
H198 H 0.51474 0.61424 0.71059 0.0
H199 H 0.5074 0.64343 0.73138 0.0
H200 H 0.48476 0.62928 0.70047 0.0
H201 H 0.42489 0.60614 0.72435 0.0
H202 H 0.44717 0.6199 0.75516 0.0
H203 H 0.4136 0.57456 0.75051 0.0
H204 H 0.47281 0.4957 0.76214 0.0
H205 H 0.49137 0.52053 0.80648 0.0
H206 H 0.49051 0.61545 0.78186 0.0
C207 C 0.42529 0.55105 0.69238 0.0
C208 C 0.40796 0.51739 0.68075 0.0
C209 C 0.41558 0.49101 0.68926 0.0
C210 C 0.43839 0.49744 0.71057 0.0
C211 C 0.45387 0.53061 0.72251 0.0
C212 C 0.44814 0.55722 0.71327 0.0
C213 C 0.46393 0.58896 0.73115 0.0
C214 C 0.49454 0.62086 0.71759 0.0
C215 C 0.43571 0.59785 0.74087 0.0
C216 C 0.47717 0.57518 0.75298 0.0
C217 C 0.47193 0.54183 0.7475 0.0
C218 C 0.47797 0.52218 0.76631 0.0
C219 C 0.48848 0.53651 0.7915 0.0
C220 C 0.49245 0.57001 0.7977 0.0
C221 C 0.48814 0.58998 0.77776 0.0
H222 H 0.91049 0.41972 0.21459 0.0
H223 H 0.97185 0.52229 0.17823 0.0
H224 H 0.98312 0.55048 0.22175 0.0
H225 H 0.8648 0.44122 0.25352 0.0
H226 H 0.8625 0.41472 0.28135 0.0
H227 H 0.86897 0.40232 0.24932 0.0
H228 H 0.92599 0.40328 0.26497 0.0
H229 H 0.91958 0.41572 0.29731 0.0
H230 H 0.9605 0.44239 0.28023 0.0
H231 H 0.97431 0.56797 0.2667 0.0
H232 H 0.94564 0.57227 0.30736 0.0
H233 H 0.89008 0.45863 0.31424 0.0
C234 C 0.92753 0.44801 0.21588 0.0
C235 C 0.94027 0.46879 0.19306 0.0
C236 C 0.96211 0.50577 0.19548 0.0
C237 C 0.96869 0.52201 0.22018 0.0
C238 C 0.95382 0.50085 0.24224 0.0
C239 C 0.93415 0.46447 0.24028 0.0
C240 C 0.91603 0.44784 0.26581 0.0
C241 C 0.87573 0.42527 0.26227 0.0
C242 C 0.93146 0.42603 0.27779 0.0
C243 C 0.92598 0.4806 0.28183 0.0
C244 C 0.94882 0.51098 0.26834 0.0
C245 C 0.95749 0.54441 0.27782 0.0
C246 C 0.94127 0.54671 0.30097 0.0
C247 C 0.91649 0.51575 0.31401 0.0
C248 C 0.90996 0.48258 0.30492 0.0
H249 H 0.47336 0.8323 0.82564 0.0
H250 H 0.44401 0.91368 0.82784 0.0
H251 H 0.4739 0.93671 0.78522 0.0
H252 H 0.56085 0.88624 0.78839 0.0
H253 H 0.55323 0.84713 0.77095 0.0
H254 H 0.53819 0.84378 0.80425 0.0
H255 H 0.47496 0.79807 0.7896 0.0
H256 H 0.48953 0.80155 0.75641 0.0
H257 H 0.45388 0.80977 0.76419 0.0
H258 H 0.49389 0.94074 0.73778 0.0
H259 H 0.5038 0.92685 0.69253 0.0
H260 H 0.52216 0.84439 0.72287 0.0
C261 C 0.47493 0.85612 0.81773 0.0
C262 C 0.45707 0.87167 0.83003 0.0
C263 C 0.45842 0.90204 0.81892 0.0
C264 C 0.4752 0.91514 0.79467 0.0
C265 C 0.4911 0.89797 0.78222 0.0
C266 C 0.49184 0.86959 0.79383 0.0
C267 C 0.50626 0.85265 0.77542 0.0
C268 C 0.54175 0.85778 0.78535 0.0
C269 C 0.47956 0.81323 0.77116 0.0
C270 C 0.51108 0.8741 0.75098 0.0
C271 C 0.50299 0.90065 0.75522 0.0
C272 C 0.50133 0.92075 0.73446 0.0
C273 C 0.50705 0.91275 0.70879 0.0
C274 C 0.51384 0.88461 0.70419 0.0
C275 C 0.51728 0.86625 0.72575 0.0
H276 H 0.45339 0.35241 0.26666 0.0
H277 H 0.47433 0.43114 0.3261 0.0
H278 H 0.49162 0.47661 0.29179 0.0
H279 H 0.524 0.39686 0.23293 0.0
H280 H 0.50636 0.38314 0.20046 0.0
H281 H 0.48411 0.35544 0.22783 0.0
H282 H 0.42667 0.35575 0.21538 0.0
H283 H 0.44886 0.38349 0.18762 0.0
H284 H 0.42726 0.39714 0.21123 0.0
H285 H 0.52443 0.5148 0.25433 0.0
H286 H 0.56564 0.54087 0.21709 0.0
H287 H 0.52145 0.4382 0.18089 0.0
C288 C 0.45993 0.37892 0.27228 0.0
C289 C 0.46255 0.38834 0.29891 0.0
C290 C 0.4717 0.42328 0.30575 0.0
C291 C 0.48159 0.4493 0.28634 0.0
C292 C 0.48127 0.43969 0.26023 0.0
C293 C 0.46969 0.405 0.25312 0.0
C294 C 0.47734 0.40215 0.2246 0.0
C295 C 0.49927 0.38335 0.22131 0.0
C296 C 0.44298 0.38354 0.20877 0.0
C297 C 0.49829 0.44083 0.21747 0.0
C298 C 0.4994 0.46215 0.23799 0.0
C299 C 0.52244 0.49856 0.23769 0.0
C300 C 0.54572 0.51323 0.2165 0.0
C301 C 0.54548 0.49152 0.19593 0.0
C302 C 0.52063 0.45532 0.19592 0.0
H303 H 0.09242 0.62983 0.74128 0.0
H304 H 0.04153 0.55422 0.67895 0.0
H305 H 0.01806 0.50577 0.71128 0.0
H306 H 0.12575 0.58862 0.77171 0.0
H307 H 0.12001 0.59849 0.80501 0.0
H308 H 0.12206 0.62715 0.77917 0.0
H309 H 0.06147 0.61932 0.79308 0.0
H310 H 0.05933 0.59063 0.81933 0.0
H311 H 0.02394 0.57563 0.7959 0.0
H312 H 0.01768 0.46652 0.74667 0.0
H313 H 0.03685 0.44102 0.78208 0.0
H314 H 0.08489 0.54096 0.82262 0.0
C315 C 0.07472 0.60319 0.7347 0.0
C316 C 0.0686 0.59568 0.70775 0.0
C317 C 0.04601 0.56057 0.69958 0.0
C318 C 0.03264 0.53286 0.71786 0.0
C319 C 0.04137 0.54089 0.74423 0.0
C320 C 0.06111 0.57543 0.75273 0.0
C321 C 0.07189 0.5771 0.78109 0.0
C322 C 0.11228 0.59909 0.78439 0.0
C323 C 0.05302 0.59152 0.79837 0.0
C324 C 0.05829 0.53836 0.78647 0.0
C325 C 0.03985 0.51768 0.76526 0.0
C326 C 0.03051 0.48207 0.76385 0.0
C327 C 0.04138 0.4677 0.78404 0.0
C328 C 0.06102 0.48885 0.80535 0.0
C329 C 0.06829 0.52403 0.80706 0.0
H330 H 0.46839 0.0329 0.0459 0.0
H331 H 0.58235 0.08021 0.04615 0.0
H332 H 0.57788 0.03575 0.01388 0.0
H333 H 0.44837 0.94222 0.04018 0.0
H334 H 0.41104 0.93025 0.01907 0.0
H335 H 0.42352 0.96513 0.04266 0.0
H336 H 0.42812 0.00792 0.00566 0.0
H337 H 0.41568 0.97321 0.98196 0.0
H338 H 0.45618 0.01431 0.97789 0.0
H339 H 0.56029 0.98639 0.9802 0.0
H340 H 0.53143 0.93718 0.94859 0.0
H341 H 0.42934 0.92316 0.97126 0.0
C342 C 0.49249 0.03391 0.03934 0.0
C343 C 0.52575 0.06008 0.04862 0.0
C344 C 0.55656 0.06039 0.03938 0.0
C345 C 0.55427 0.03523 0.02105 0.0
C346 C 0.52099 0.00992 0.01222 0.0
C347 C 0.49068 0.00911 0.02115 0.0
C348 C 0.4581 0.97978 0.00836 0.0
C349 C 0.43384 0.95275 0.02879 0.0
C350 C 0.43838 0.99471 0.99253 0.0
C351 C 0.47472 0.96424 0.99064 0.0
C352 C 0.51099 0.98183 0.99311 0.0
C353 C 0.53189 0.97238 0.97822 0.0
C354 C 0.51526 0.94438 0.96031 0.0
C355 C 0.47809 0.92618 0.95742 0.0
C356 C 0.45777 0.93633 0.97299 0.0
H357 H 0.39921 0.44032 0.55742 0.0
H358 H 0.38782 0.51537 0.5082 0.0
H359 H 0.41388 0.49991 0.47119 0.0
H360 H 0.4829 0.45356 0.52787 0.0
H361 H 0.4696 0.40739 0.53063 0.0
H362 H 0.45427 0.4276 0.55418 0.0
H363 H 0.38965 0.38054 0.54402 0.0
H364 H 0.40472 0.36033 0.52041 0.0
H365 H 0.37399 0.37462 0.51076 0.0
H366 H 0.4348 0.47189 0.43846 0.0
H367 H 0.44995 0.43363 0.41231 0.0
H368 H 0.44815 0.37697 0.48274 0.0
C369 C 0.40291 0.45407 0.53903 0.0
C370 C 0.39153 0.47909 0.53571 0.0
C371 C 0.39635 0.49612 0.51121 0.0
C372 C 0.41125 0.48762 0.49008 0.0
C373 C 0.42141 0.46222 0.49382 0.0
C374 C 0.4177 0.44586 0.51771 0.0
C375 C 0.42831 0.41763 0.516 0.0
C376 C 0.4607 0.42713 0.53319 0.0
C377 C 0.39731 0.38113 0.52321 0.0
C378 C 0.43737 0.41986 0.48721 0.0
C379 C 0.43362 0.44604 0.47485 0.0
C380 C 0.43835 0.45166 0.44797 0.0
C381 C 0.44681 0.4297 0.43328 0.0
C382 C 0.45033 0.40239 0.44549 0.0
C383 C 0.44606 0.39787 0.47288 0.0
H384 H 0.04128 0.52487 0.92978 0.0
H385 H 0.02677 0.42115 0.94792 0.0
H386 H 0.99875 0.4214 0.98985 0.0
H387 H 0.06593 0.55967 0.99206 0.0
H388 H 0.04378 0.58534 0.99121 0.0
H389 H 0.05842 0.57505 0.96126 0.0
H390 H 0.99494 0.54664 0.94265 0.0
H391 H 0.98009 0.55702 0.97256 0.0
H392 H 0.95903 0.51218 0.96085 0.0
H393 H 0.97827 0.4359 0.03197 0.0
H394 H 0.96673 0.46342 0.07025 0.0
H395 H 0.9938 0.55689 0.02397 0.0
C396 C 0.03153 0.50185 0.94227 0.0
C397 C 0.03614 0.47297 0.93551 0.0
C398 C 0.02346 0.44359 0.95264 0.0
C399 C 0.00743 0.44343 0.97649 0.0
C400 C 0.00406 0.47273 0.98285 0.0
C401 C 0.01554 0.50128 0.96612 0.0
C402 C 0.01119 0.53056 0.97828 0.0
C403 C 0.04695 0.56465 0.98085 0.0
C404 C 0.98473 0.53696 0.96265 0.0
C405 C 0.99645 0.51446 0.00473 0.0
C406 C 0.9921 0.48094 0.00696 0.0
C407 C 0.98084 0.46183 0.03026 0.0
C408 C 0.9741 0.47756 0.05187 0.0
C409 C 0.97866 0.51198 0.04997 0.0
C410 C 0.98969 0.53036 0.02598 0.0
H411 H 0.56958 0.02627 0.44177 0.0
H412 H 0.59549 0.12023 0.48715 0.0
H413 H 0.56685 0.08341 0.52578 0.0
H414 H 0.48275 0.96891 0.47401 0.0
H415 H 0.48859 0.93075 0.4727 0.0
H416 H 0.50775 0.96424 0.44773 0.0
H417 H 0.56922 0.97119 0.45736 0.0
H418 H 0.55032 0.9379 0.48235 0.0
H419 H 0.5864 0.98099 0.49022 0.0
H420 H 0.54335 0.03743 0.56109 0.0
H421 H 0.52247 0.98468 0.58942 0.0
H422 H 0.50833 0.92046 0.52079 0.0
C423 C 0.56855 0.03902 0.45967 0.0
C424 C 0.58489 0.07616 0.46138 0.0
C425 C 0.58317 0.09184 0.48526 0.0
C426 C 0.5669 0.07114 0.50738 0.0
C427 C 0.55187 0.0347 0.50526 0.0
C428 C 0.552 0.01869 0.48192 0.0
C429 C 0.53551 0.97914 0.48527 0.0
C430 C 0.50163 0.95961 0.46896 0.0
C431 C 0.56195 0.96659 0.4784 0.0
C432 C 0.52738 0.97566 0.5143 0.0
C433 C 0.53691 0.00799 0.52549 0.0
C434 C 0.53497 0.01182 0.55247 0.0
C435 C 0.52322 0.98181 0.56842 0.0
C436 C 0.51327 0.94848 0.55727 0.0
C437 C 0.51487 0.94544 0.52983 0.0
H438 H 0.52501 0.54178 0.92727 0.0
H439 H 0.42366 0.45477 0.95028 0.0
H440 H 0.43989 0.46841 0.9968 0.0
H441 H 0.57318 0.52566 0.97078 0.0
H442 H 0.6051 0.57077 0.97831 0.0
H443 H 0.58279 0.56021 0.94734 0.0
H444 H 0.56092 0.60477 0.95613 0.0
H445 H 0.58341 0.61578 0.98722 0.0
H446 H 0.53691 0.60123 0.98573 0.0
H447 H 0.47021 0.48402 0.03947 0.0
H448 H 0.51273 0.50008 0.07561 0.0
H449 H 0.59546 0.57675 0.02545 0.0
C450 C 0.50578 0.52671 0.94221 0.0
C451 C 0.47287 0.49776 0.93543 0.0
C452 C 0.4488 0.4774 0.95527 0.0
C453 C 0.45774 0.48507 0.98169 0.0
C454 C 0.4909 0.51312 0.98787 0.0
C455 C 0.51452 0.53384 0.96871 0.0
C456 C 0.55013 0.5591 0.98043 0.0
C457 C 0.5795 0.55356 0.96851 0.0
C458 C 0.55832 0.5975 0.97719 0.0
C459 C 0.54346 0.54777 0.00885 0.0
C460 C 0.50886 0.52186 0.0128 0.0
C461 C 0.49717 0.50483 0.0368 0.0
C462 C 0.52159 0.51399 0.05718 0.0
C463 C 0.5574 0.53972 0.05337 0.0
C464 C 0.56816 0.55739 0.02907 0.0
H465 H 0.96232 0.56963 0.44453 0.0
H466 H 0.87537 0.48635 0.48785 0.0
H467 H 0.913 0.50135 0.52703 0.0
H468 H 0.03299 0.55946 0.47602 0.0
H469 H 0.06315 0.60632 0.47605 0.0
H470 H 0.03035 0.58692 0.45071 0.0
H471 H 0.00733 0.62995 0.46213 0.0
H472 H 0.03987 0.64933 0.48756 0.0
H473 H 0.99383 0.63161 0.49521 0.0
H474 H 0.95818 0.52858 0.56249 0.0
H475 H 0.00851 0.56518 0.59141 0.0
H476 H 0.06627 0.63028 0.52497 0.0
C477 C 0.95136 0.55413 0.46211 0.0
C478 C 0.91588 0.52679 0.46309 0.0
C479 C 0.90247 0.50741 0.48659 0.0
C480 C 0.92365 0.51568 0.50897 0.0
C481 C 0.95827 0.54325 0.5075 0.0
C482 C 0.97215 0.56202 0.48464 0.0
C483 C 0.00963 0.59155 0.48866 0.0
C484 C 0.03556 0.5857 0.47186 0.0
C485 C 0.01283 0.62774 0.48306 0.0
C486 C 0.0143 0.58696 0.51749 0.0
C487 C 0.98445 0.55882 0.52795 0.0
C488 C 0.98187 0.55043 0.55447 0.0
C489 C 0.01055 0.57145 0.57075 0.0
C490 C 0.04137 0.60052 0.56045 0.0
C491 C 0.04324 0.60805 0.53341 0.0
H492 H 0.53855 0.24205 0.13669 0.0
H493 H 0.54825 0.24162 0.05224 0.0
H494 H 0.55857 0.30289 0.05063 0.0
H495 H 0.49944 0.29919 0.14182 0.0
H496 H 0.52517 0.32138 0.17032 0.0
H497 H 0.51283 0.27599 0.16419 0.0
H498 H 0.57857 0.2922 0.16622 0.0
H499 H 0.59109 0.33753 0.17236 0.0
H500 H 0.61007 0.32643 0.14513 0.0
H501 H 0.57245 0.36642 0.05915 0.0
H502 H 0.59205 0.42626 0.07689 0.0
H503 H 0.57848 0.38491 0.15579 0.0
C504 C 0.54273 0.25461 0.11778 0.0
C505 C 0.54296 0.23709 0.09461 0.0
C506 C 0.54784 0.25447 0.07027 0.0
C507 C 0.55373 0.28927 0.06918 0.0
C508 C 0.55472 0.30623 0.09261 0.0
C509 C 0.54941 0.28936 0.11644 0.0
C510 C 0.55529 0.31405 0.13904 0.0
C511 C 0.52114 0.30192 0.15476 0.0
C512 C 0.58555 0.31777 0.15671 0.0
C513 C 0.56539 0.34777 0.12431 0.0
C514 C 0.56423 0.34272 0.09753 0.0
C515 C 0.57324 0.37054 0.08007 0.0
C516 C 0.58425 0.40438 0.09029 0.0
C517 C 0.58683 0.41011 0.11768 0.0
C518 C 0.57684 0.38129 0.13476 0.0
H519 H 0.24816 0.49671 0.64777 0.0
H520 H 0.24676 0.49125 0.563 0.0
H521 H 0.21021 0.52027 0.56163 0.0
H522 H 0.1611 0.48886 0.65841 0.0
H523 H 0.17756 0.5212 0.68426 0.0
H524 H 0.19714 0.49375 0.67859 0.0
H525 H 0.25851 0.54967 0.67381 0.0
H526 H 0.23919 0.57727 0.67923 0.0
H527 H 0.26455 0.58275 0.65 0.0
H528 H 0.1789 0.55559 0.56972 0.0
H529 H 0.15829 0.59582 0.58617 0.0
H530 H 0.18664 0.58292 0.66513 0.0
C531 C 0.24003 0.50131 0.62887 0.0
C532 C 0.2507 0.49209 0.60548 0.0
C533 C 0.23879 0.49797 0.5812 0.0
C534 C 0.21806 0.51448 0.58025 0.0
C535 C 0.20963 0.52494 0.60372 0.0
C536 C 0.22032 0.51853 0.62758 0.0
C537 C 0.21177 0.53597 0.64979 0.0
C538 C 0.18531 0.50829 0.66888 0.0
C539 C 0.24551 0.56301 0.66402 0.0
C540 C 0.19521 0.55389 0.63472 0.0
C541 C 0.19344 0.54665 0.60825 0.0
C542 C 0.17993 0.56119 0.59043 0.0
C543 C 0.1683 0.58397 0.59993 0.0
C544 C 0.17105 0.59252 0.62688 0.0
C545 C 0.18436 0.57695 0.64441 0.0
H546 H 0.81415 0.39738 0.08391 0.0
H547 H 0.86164 0.33238 0.06852 0.0
H548 H 0.80236 0.27909 0.06798 0.0
H549 H 0.75792 0.34341 0.13028 0.0
H550 H 0.72112 0.34996 0.12284 0.0
H551 H 0.76511 0.3838 0.11508 0.0
H552 H 0.74873 0.38367 0.0667 0.0
H553 H 0.70402 0.35055 0.07407 0.0
H554 H 0.72811 0.34278 0.04869 0.0
H555 H 0.73831 0.23239 0.07423 0.0
H556 H 0.6763 0.1965 0.08902 0.0
H557 H 0.67268 0.29236 0.10527 0.0
C558 C 0.81181 0.37205 0.07937 0.0
C559 C 0.84207 0.36883 0.0754 0.0
C560 C 0.83846 0.33525 0.07069 0.0
C561 C 0.80496 0.30493 0.07049 0.0
C562 C 0.77553 0.30875 0.07551 0.0
C563 C 0.7787 0.34157 0.07987 0.0
C564 C 0.74402 0.33833 0.0886 0.0
C565 C 0.74726 0.35481 0.11582 0.0
C566 C 0.73041 0.3548 0.06829 0.0
C567 C 0.72113 0.29858 0.08937 0.0
C568 C 0.7394 0.28193 0.08106 0.0
C569 C 0.72372 0.24519 0.08061 0.0
C570 C 0.68857 0.22501 0.08906 0.0
C571 C 0.66994 0.2417 0.0985 0.0
C572 C 0.68645 0.27892 0.09838 0.0
H573 H 0.43941 0.77101 0.59029 0.0
H574 H 0.54113 0.77848 0.5787 0.0
H575 H 0.51184 0.71357 0.57255 0.0
H576 H 0.40903 0.70157 0.63147 0.0
H577 H 0.36353 0.67989 0.62126 0.0
H578 H 0.3905 0.72667 0.61719 0.0
H579 H 0.37687 0.72142 0.56782 0.0
H580 H 0.34908 0.6744 0.57149 0.0
H581 H 0.3846 0.69164 0.54803 0.0
H582 H 0.4722 0.64775 0.57372 0.0
H583 H 0.42749 0.58718 0.58649 0.0
H584 H 0.35278 0.62336 0.60225 0.0
C585 C 0.45529 0.75897 0.58565 0.0
C586 C 0.49225 0.77934 0.58443 0.0
C587 C 0.51262 0.76303 0.57904 0.0
C588 C 0.49618 0.72631 0.57552 0.0
C589 C 0.45952 0.70659 0.57781 0.0
C590 C 0.43935 0.72243 0.58288 0.0
C591 C 0.40147 0.69542 0.5889 0.0
C592 C 0.39054 0.70123 0.61634 0.0
C593 C 0.37654 0.69574 0.56779 0.0
C594 C 0.40376 0.66193 0.58765 0.0
C595 C 0.43708 0.66874 0.5803 0.0
C596 C 0.44592 0.64206 0.57915 0.0
C597 C 0.42037 0.60775 0.5864 0.0
C598 C 0.38681 0.60077 0.59536 0.0
C599 C 0.37824 0.62805 0.59537 0.0
H600 H 0.6882 0.4899 0.14628 0.0
H601 H 0.73618 0.57496 0.08983 0.0
H602 H 0.78656 0.56393 0.08538 0.0
H603 H 0.76773 0.50216 0.17799 0.0
H604 H 0.75173 0.45546 0.18105 0.0
H605 H 0.7211 0.47196 0.18109 0.0
H606 H 0.68723 0.43042 0.14245 0.0
H607 H 0.71785 0.41393 0.1422 0.0
H608 H 0.71069 0.43247 0.11286 0.0
H609 H 0.83081 0.54286 0.08683 0.0
H610 H 0.86472 0.51181 0.09199 0.0
H611 H 0.78584 0.43844 0.14627 0.0
C612 C 0.70964 0.50685 0.13354 0.0
C613 C 0.70882 0.53393 0.11892 0.0
C614 C 0.73669 0.55442 0.10145 0.0
C615 C 0.76531 0.54833 0.09883 0.0
C616 C 0.76518 0.52124 0.1135 0.0
C617 C 0.73792 0.50064 0.13034 0.0
C618 C 0.74286 0.47165 0.14252 0.0
C619 C 0.74606 0.47556 0.17244 0.0
C620 C 0.71288 0.43496 0.13453 0.0
C621 C 0.77746 0.4794 0.13011 0.0
C622 C 0.78994 0.5082 0.11355 0.0
C623 C 0.82132 0.52031 0.09976 0.0
C624 C 0.84041 0.50247 0.1029 0.0
C625 C 0.82798 0.47261 0.11957 0.0
C626 C 0.79607 0.46109 0.13336 0.0
H627 H 0.22386 0.70271 0.64985 0.0
H628 H 0.20843 0.76504 0.59073 0.0
H629 H 0.27337 0.80084 0.58501 0.0
H630 H 0.30215 0.77165 0.67958 0.0
H631 H 0.32145 0.74377 0.68433 0.0
H632 H 0.27424 0.72481 0.68423 0.0
H633 H 0.26943 0.68173 0.64732 0.0
H634 H 0.31663 0.70065 0.64729 0.0
H635 H 0.29398 0.69922 0.61745 0.0
H636 H 0.34075 0.82962 0.5864 0.0
H637 H 0.40342 0.84662 0.59287 0.0
H638 H 0.37216 0.76286 0.65025 0.0
C639 C 0.23392 0.7244 0.63624 0.0
C640 C 0.21117 0.7318 0.62133 0.0
C641 C 0.22559 0.75935 0.60262 0.0
C642 C 0.26233 0.77974 0.59928 0.0
C643 C 0.28405 0.7717 0.61448 0.0
C644 C 0.27021 0.74441 0.63241 0.0
C645 C 0.29866 0.73958 0.64542 0.0
C646 C 0.29915 0.74531 0.67515 0.0
C647 C 0.29441 0.70314 0.63898 0.0
C648 C 0.33092 0.76882 0.63236 0.0
C649 C 0.32214 0.78718 0.6146 0.0
C650 C 0.34786 0.81538 0.60024 0.0
C651 C 0.38338 0.82488 0.6041 0.0
C652 C 0.39277 0.80607 0.62205 0.0
C653 C 0.366 0.77777 0.63632 0.0
H654 H 0.75278 0.46479 0.35807 0.0
H655 H 0.76022 0.53302 0.42225 0.0
H656 H 0.69489 0.50448 0.42329 0.0
H657 H 0.67996 0.46303 0.32446 0.0
H658 H 0.66104 0.4172 0.31556 0.0
H659 H 0.70798 0.44386 0.31983 0.0
H660 H 0.70665 0.39905 0.3538 0.0
H661 H 0.65969 0.37232 0.34987 0.0
H662 H 0.6781 0.38787 0.38189 0.0
H663 H 0.62814 0.4677 0.41661 0.0
H664 H 0.5667 0.42531 0.4041 0.0
H665 H 0.60542 0.3817 0.34461 0.0
C666 C 0.74107 0.47457 0.37188 0.0
C667 C 0.76173 0.50188 0.38955 0.0
C668 C 0.7448 0.51238 0.4083 0.0
C669 C 0.7078 0.49634 0.40901 0.0
C670 C 0.68827 0.46955 0.39107 0.0
C671 C 0.70446 0.45864 0.37301 0.0
C672 C 0.67791 0.42846 0.35646 0.0
C673 C 0.68197 0.43877 0.32736 0.0
C674 C 0.68076 0.39496 0.36078 0.0
C675 C 0.64406 0.42437 0.36768 0.0
C676 C 0.65041 0.44816 0.38766 0.0
C677 C 0.62292 0.449 0.40099 0.0
C678 C 0.58811 0.42483 0.39371 0.0
C679 C 0.58113 0.40021 0.37328 0.0
C680 C 0.60967 0.40023 0.36019 0.0
H681 H 0.29612 0.74474 0.86668 0.0
H682 H 0.29399 0.74541 0.95153 0.0
H683 H 0.24605 0.68306 0.95123 0.0
H684 H 0.20246 0.68483 0.8551 0.0
H685 H 0.21116 0.66347 0.8282 0.0
H686 H 0.24134 0.70921 0.83528 0.0
H687 H 0.29274 0.69546 0.83887 0.0
H688 H 0.26278 0.64979 0.83178 0.0
H689 H 0.2889 0.66168 0.86121 0.0
H690 H 0.20116 0.61854 0.94109 0.0
H691 H 0.16631 0.55846 0.92243 0.0
H692 H 0.20218 0.60118 0.84467 0.0
C693 C 0.28559 0.73199 0.88527 0.0
C694 C 0.29906 0.74989 0.90914 0.0
C695 C 0.284 0.73224 0.93298 0.0
C696 C 0.25678 0.69683 0.93298 0.0
C697 C 0.245 0.67962 0.909 0.0
C698 C 0.25904 0.69677 0.88561 0.0
C699 C 0.24444 0.67201 0.86255 0.0
C700 C 0.22361 0.68304 0.84421 0.0
C701 C 0.27397 0.6696 0.84775 0.0
C702 C 0.22035 0.63797 0.87655 0.0
C703 C 0.22043 0.6428 0.90329 0.0
C704 C 0.20077 0.61458 0.92016 0.0
C705 C 0.18102 0.58059 0.9094 0.0
C706 C 0.18167 0.57516 0.88212 0.0
C707 C 0.20122 0.60442 0.86561 0.0
H708 H 0.61275 0.23152 0.35211 0.0
H709 H 0.57153 0.1551 0.41543 0.0
H710 H 0.52691 0.17294 0.42491 0.0
H711 H 0.60172 0.29889 0.38401 0.0
H712 H 0.58963 0.31249 0.35428 0.0
H713 H 0.61842 0.29386 0.353 0.0
H714 H 0.57587 0.2463 0.32032 0.0
H715 H 0.54689 0.2647 0.3216 0.0
H716 H 0.53019 0.21872 0.32911 0.0
H717 H 0.48771 0.20126 0.4282 0.0
H718 H 0.45618 0.23541 0.42319 0.0
H719 H 0.52254 0.29 0.35679 0.0
C720 C 0.59437 0.2184 0.36797 0.0
C721 C 0.59566 0.19186 0.38298 0.0
C722 C 0.57104 0.17548 0.40358 0.0
C723 C 0.54563 0.18546 0.40917 0.0
C724 C 0.54514 0.21174 0.39392 0.0
C725 C 0.56885 0.22786 0.3737 0.0
C726 C 0.56282 0.25515 0.36002 0.0
C727 C 0.59505 0.29228 0.36302 0.0
C728 C 0.55337 0.24563 0.33105 0.0
C729 C 0.53166 0.25154 0.37545 0.0
C730 C 0.52201 0.22681 0.39517 0.0
C731 C 0.4948 0.22038 0.41259 0.0
C732 C 0.47705 0.23979 0.40962 0.0
C733 C 0.48623 0.26463 0.3891 0.0
C734 C 0.51388 0.2704 0.37197 0.0
H735 H 0.21405 0.50513 0.85109 0.0
H736 H 0.18686 0.41736 0.90372 0.0
H737 H 0.25021 0.4361 0.9086 0.0
H738 H 0.2897 0.50736 0.81934 0.0
H739 H 0.31451 0.55489 0.81866 0.0
H740 H 0.26706 0.53252 0.81746 0.0
H741 H 0.26626 0.56801 0.85791 0.0
H742 H 0.31368 0.59027 0.8594 0.0
H743 H 0.28795 0.5667 0.88757 0.0
H744 H 0.31611 0.46505 0.90831 0.0
H745 H 0.38039 0.50322 0.90454 0.0
H746 H 0.36473 0.57484 0.85434 0.0
C747 C 0.22126 0.48931 0.86307 0.0
C748 C 0.19556 0.45928 0.87654 0.0
C749 C 0.20624 0.44014 0.89296 0.0
C750 C 0.24208 0.45062 0.89586 0.0
C751 C 0.26681 0.4807 0.88259 0.0
C752 C 0.2569 0.49994 0.86667 0.0
C753 C 0.28874 0.53272 0.85616 0.0
C754 C 0.29007 0.5318 0.82612 0.0
C755 C 0.28916 0.5664 0.86584 0.0
C756 C 0.31817 0.52871 0.86843 0.0
C757 C 0.30489 0.4984 0.88345 0.0
C758 C 0.32683 0.48883 0.89661 0.0
C759 C 0.36333 0.51071 0.89429 0.0
C760 C 0.37764 0.54204 0.87911 0.0
C761 C 0.35463 0.55115 0.86614 0.0
H762 H 0.6881 0.23583 0.3935 0.0
H763 H 0.77715 0.22577 0.41925 0.0
H764 H 0.814 0.29128 0.42031 0.0
H765 H 0.73482 0.3034 0.34865 0.0
H766 H 0.70947 0.32533 0.35409 0.0
H767 H 0.6896 0.27857 0.35935 0.0
H768 H 0.67346 0.2861 0.40668 0.0
H769 H 0.69324 0.33299 0.40162 0.0
H770 H 0.70747 0.31627 0.42852 0.0
H771 H 0.84135 0.35831 0.41551 0.0
H772 H 0.85771 0.41954 0.4029 0.0
H773 H 0.75064 0.38293 0.37666 0.0
C774 C 0.71529 0.24735 0.39926 0.0
C775 C 0.73004 0.22611 0.40598 0.0
C776 C 0.76555 0.24196 0.41413 0.0
C777 C 0.78651 0.27899 0.41478 0.0
C778 C 0.77128 0.29932 0.40718 0.0
C779 C 0.73639 0.28387 0.39954 0.0
C780 C 0.7267 0.31084 0.39006 0.0
C781 C 0.71446 0.30413 0.36133 0.0
C782 C 0.69857 0.31159 0.40779 0.0
C783 C 0.76186 0.34404 0.39294 0.0
C784 C 0.78713 0.33714 0.40337 0.0
C785 C 0.82174 0.36397 0.40742 0.0
C786 C 0.83078 0.39859 0.40025 0.0
C787 C 0.80546 0.40571 0.38864 0.0
C788 C 0.77057 0.37811 0.38529 0.0
H789 H 0.43466 0.60837 0.92474 0.0
H790 H 0.54608 0.68164 0.93304 0.0
H791 H 0.53326 0.73034 0.94067 0.0
H792 H 0.41914 0.65922 0.88533 0.0
H793 H 0.37586 0.64849 0.89678 0.0
H794 H 0.39111 0.61742 0.90101 0.0
H795 H 0.38105 0.61501 0.95072 0.0
H796 H 0.36429 0.64524 0.94704 0.0
H797 H 0.39997 0.65532 0.96942 0.0
H798 H 0.5093 0.77241 0.93944 0.0
H799 H 0.47734 0.80393 0.92644 0.0
H800 H 0.38244 0.70358 0.91456 0.0
C801 C 0.45605 0.63435 0.92963 0.0
C802 C 0.4912 0.64127 0.92935 0.0
C803 C 0.51892 0.67582 0.93418 0.0
C804 C 0.51183 0.70358 0.93844 0.0
C805 C 0.47688 0.69633 0.93737 0.0
C806 C 0.44938 0.66241 0.93313 0.0
C807 C 0.41515 0.66239 0.92799 0.0
C808 C 0.39947 0.64597 0.90118 0.0
C809 C 0.38855 0.64337 0.95012 0.0
C810 C 0.42805 0.70165 0.92842 0.0
C811 C 0.46339 0.72077 0.93484 0.0
C812 C 0.48148 0.75766 0.93484 0.0
C813 C 0.46319 0.77538 0.92747 0.0
C814 C 0.42756 0.75611 0.91953 0.0
C815 C 0.4097 0.71888 0.92066 0.0
loop_
_geom_bond_atom_site_label_1
_geom_bond_atom_site_label_2
_geom_bond_distance
_geom_bond_site_symmetry_2
_ccdc_geom_bond_type
Mg0 O1 2.028 . S
Mg0 O7 1.986 . S
Mg0 O9 2.114 . S
Mg0 O10 2.251 . S
Mg0 O13 2.010 . S
O1 Mg0 2.028 . S
O1 C4 1.250 . S
O2 Mg3 2.028 . S
O2 C4 1.248 . S
Mg3 O2 2.028 . S
Mg3 O8 2.032 . S
Mg3 O10 2.079 . S
C4 O1 1.250 . S
C4 O2 1.248 . S
C5 O6 1.264 . S
C5 O13 1.249 . S
O6 C5 1.264 . S
O7 Mg0 1.986 . S
O7 C11 1.246 . S
O8 Mg3 2.032 . S
O8 C11 1.259 . S
O9 Mg0 2.114 . S
O9 C12 1.252 . S
O10 Mg0 2.251 . S
O10 Mg3 2.079 . S
O10 C12 1.273 . S
C11 O7 1.246 . S
C11 O8 1.259 . S
C12 O9 1.252 . S
C12 O10 1.273 . S
O13 Mg0 2.010 . S
O13 C5 1.249 . S
Mg14 O15 2.028 . S
Mg14 O21 1.986 . S
Mg14 O23 2.114 . S
Mg14 O24 2.251 . S
Mg14 O27 2.010 . S
O15 Mg14 2.028 . S
O15 C18 1.250 . S
O16 Mg17 2.028 . S
O16 C18 1.248 . S
Mg17 O16 2.028 . S
Mg17 O22 2.032 . S
Mg17 O24 2.079 . S
C18 O15 1.250 . S
C18 O16 1.248 . S
C19 O20 1.264 . S
C19 O27 1.249 . S
O20 C19 1.264 . S
O21 Mg14 1.986 . S
O21 C25 1.246 . S
O22 Mg17 2.032 . S
O22 C25 1.259 . S
O23 Mg14 2.114 . S
O23 C26 1.252 . S
O24 Mg14 2.251 . S
O24 Mg17 2.079 . S
O24 C26 1.273 . S
C25 O21 1.246 . S
C25 O22 1.259 . S
C26 O23 1.252 . S
C26 O24 1.273 . S
O27 Mg14 2.010 . S
O27 C19 1.249 . S
Mg28 O29 2.028 . S
Mg28 O35 1.986 . S
Mg28 O37 2.114 . S
Mg28 O38 2.251 . S
Mg28 O41 2.010 . S
O29 Mg28 2.028 . S
O29 C32 1.250 . S
O30 Mg31 2.028 . S
O30 C32 1.248 . S
Mg31 O30 2.028 . S
Mg31 O36 2.032 . S
Mg31 O38 2.079 . S
C32 O29 1.250 . S
C32 O30 1.248 . S
C33 O34 1.264 . S
C33 O41 1.249 . S
O34 C33 1.264 . S
O35 Mg28 1.986 . S
O35 C39 1.246 . S
O36 Mg31 2.032 . S
O36 C39 1.259 . S
O37 Mg28 2.114 . S
O37 C40 1.252 . S
O38 Mg28 2.251 . S
O38 Mg31 2.079 . S
O38 C40 1.273 . S
C39 O35 1.246 . S
C39 O36 1.259 . S
C40 O37 1.252 . S
C40 O38 1.273 . S
O41 Mg28 2.010 . S
O41 C33 1.249 . S
Mg42 O43 2.028 . S
Mg42 O49 1.986 . S
Mg42 O51 2.114 . S
Mg42 O52 2.251 . S
Mg42 O55 2.010 . S
O43 Mg42 2.028 . S
O43 C46 1.250 . S
O44 Mg45 2.028 . S
O44 C46 1.248 . S
Mg45 O44 2.028 . S
Mg45 O50 2.032 . S
Mg45 O52 2.079 . S
C46 O43 1.250 . S
C46 O44 1.248 . S
C47 O48 1.264 . S
C47 O55 1.249 . S
O48 C47 1.264 . S
O49 Mg42 1.986 . S
O49 C53 1.246 . S
O50 Mg45 2.032 . S
O50 C53 1.259 . S
O51 Mg42 2.114 . S
O51 C54 1.252 . S
O52 Mg42 2.251 . S
O52 Mg45 2.079 . S
O52 C54 1.273 . S
C53 O49 1.246 . S
C53 O50 1.259 . S
C54 O51 1.252 . S
C54 O52 1.273 . S
O55 Mg42 2.010 . S
O55 C47 1.249 . S
Mg56 O57 2.028 . S
Mg56 O63 1.986 . S
Mg56 O65 2.114 . S
Mg56 O66 2.251 . S
Mg56 O69 2.010 . S
O57 Mg56 2.028 . S
O57 C60 1.250 . S
O58 Mg59 2.028 . S
O58 C60 1.248 . S
Mg59 O58 2.028 . S
Mg59 O64 2.032 . S
Mg59 O66 2.079 . S
C60 O57 1.250 . S
C60 O58 1.248 . S
C61 O62 1.264 . S
C61 O69 1.249 . S
O62 C61 1.264 . S
O63 Mg56 1.986 . S
O63 C67 1.246 . S
O64 Mg59 2.032 . S
O64 C67 1.259 . S
O65 Mg56 2.114 . S
O65 C68 1.252 . S
O66 Mg56 2.251 . S
O66 Mg59 2.079 . S
O66 C68 1.273 . S
C67 O63 1.246 . S
C67 O64 1.259 . S
C68 O65 1.252 . S
C68 O66 1.273 . S
O69 Mg56 2.010 . S
O69 C61 1.249 . S
Mg70 O71 2.028 . S
Mg70 O77 1.986 . S
Mg70 O79 2.114 . S
Mg70 O80 2.251 . S
Mg70 O83 2.010 . S
O71 Mg70 2.028 . S
O71 C74 1.250 . S
O72 Mg73 2.028 . S
O72 C74 1.248 . S
Mg73 O72 2.028 . S
Mg73 O78 2.032 . S
Mg73 O80 2.079 . S
C74 O71 1.250 . S
C74 O72 1.248 . S
C75 O76 1.264 . S
C75 O83 1.249 . S
O76 C75 1.264 . S
O77 Mg70 1.986 . S
O77 C81 1.246 . S
O78 Mg73 2.032 . S
O78 C81 1.259 . S
O79 Mg70 2.114 . S
O79 C82 1.252 . S
O80 Mg70 2.251 . S
O80 Mg73 2.079 . S
O80 C82 1.273 . S
C81 O77 1.246 . S
C81 O78 1.259 . S
C82 O79 1.252 . S
C82 O80 1.273 . S
O83 Mg70 2.010 . S
O83 C75 1.249 . S
Mg84 O85 2.028 . S
Mg84 O91 1.986 . S
Mg84 O93 2.114 . S
Mg84 O94 2.251 . S
Mg84 O97 2.010 . S
O85 Mg84 2.028 . S
O85 C88 1.250 . S
O86 Mg87 2.028 . S
O86 C88 1.248 . S
Mg87 O86 2.028 . S
Mg87 O92 2.032 . S
Mg87 O94 2.079 . S
C88 O85 1.250 . S
C88 O86 1.248 . S
C89 O90 1.264 . S
C89 O97 1.249 . S
O90 C89 1.264 . S
O91 Mg84 1.986 . S
O91 C95 1.246 . S
O92 Mg87 2.032 . S
O92 C95 1.259 . S
O93 Mg84 2.114 . S
O93 C96 1.252 . S
O94 Mg84 2.251 . S
O94 Mg87 2.079 . S
O94 C96 1.273 . S
C95 O91 1.246 . S
C95 O92 1.259 . S
C96 O93 1.252 . S
C96 O94 1.273 . S
O97 Mg84 2.010 . S
O97 C89 1.249 . S
Mg98 O99 2.028 . S
Mg98 O105 1.986 . S
Mg98 O107 2.114 . S
Mg98 O108 2.251 . S
Mg98 O111 2.010 . S
O99 Mg98 2.028 . S
O99 C102 1.250 . S
O100 Mg101 2.028 . S
O100 C102 1.248 . S
Mg101 O100 2.028 . S
Mg101 O106 2.032 . S
Mg101 O108 2.079 . S
C102 O99 1.250 . S
C102 O100 1.248 . S
C103 O104 1.264 . S
C103 O111 1.249 . S
O104 C103 1.264 . S
O105 Mg98 1.986 . S
O105 C109 1.246 . S
O106 Mg101 2.032 . S
O106 C109 1.259 . S
O107 Mg98 2.114 . S
O107 C110 1.252 . S
O108 Mg98 2.251 . S
O108 Mg101 2.079 . S
O108 C110 1.273 . S
C109 O105 1.246 . S
C109 O106 1.259 . S
C110 O107 1.252 . S
C110 O108 1.273 . S
O111 Mg98 2.010 . S
O111 C103 1.249 . S
Mg112 O113 2.028 . S
Mg112 O119 1.986 . S
Mg112 O121 2.114 . S
Mg112 O122 2.251 . S
Mg112 O125 2.010 . S
O113 Mg112 2.028 . S
O113 C116 1.250 . S
O114 Mg115 2.028 . S
O114 C116 1.248 . S
Mg115 O114 2.028 . S
Mg115 O120 2.032 . S
Mg115 O122 2.079 . S
C116 O113 1.250 . S
C116 O114 1.248 . S
C117 O118 1.264 . S
C117 O125 1.249 . S
O118 C117 1.264 . S
O119 Mg112 1.986 . S
O119 C123 1.246 . S
O120 Mg115 2.032 . S
O120 C123 1.259 . S
O121 Mg112 2.114 . S
O121 C124 1.252 . S
O122 Mg112 2.251 . S
O122 Mg115 2.079 . S
O122 C124 1.273 . S
C123 O119 1.246 . S
C123 O120 1.259 . S
C124 O121 1.252 . S
C124 O122 1.273 . S
O125 Mg112 2.010 . S
O125 C117 1.249 . S
Mg126 O127 2.028 . S
Mg126 O133 1.986 . S
Mg126 O135 2.114 . S
Mg126 O136 2.251 . S
Mg126 O139 2.010 . S
O127 Mg126 2.028 . S
O127 C130 1.250 . S
O128 Mg129 2.028 . S
O128 C130 1.248 . S
Mg129 O128 2.028 . S
Mg129 O134 2.032 . S
Mg129 O136 2.079 . S
C130 O127 1.250 . S
C130 O128 1.248 . S
C131 O132 1.264 . S
C131 O139 1.249 . S
O132 C131 1.264 . S
O133 Mg126 1.986 . S
O133 C137 1.246 . S
O134 Mg129 2.032 . S
O134 C137 1.259 . S
O135 Mg126 2.114 . S
O135 C138 1.252 . S
O136 Mg126 2.251 . S
O136 Mg129 2.079 . S
O136 C138 1.273 . S
C137 O133 1.246 . S
C137 O134 1.259 . S
C138 O135 1.252 . S
C138 O136 1.273 . S
O139 Mg126 2.010 . S
O139 C131 1.249 . S
Mg140 O141 2.028 . S
Mg140 O147 1.986 . S
Mg140 O149 2.114 . S
Mg140 O150 2.251 . S
Mg140 O153 2.010 . S
O141 Mg140 2.028 . S
O141 C144 1.250 . S
O142 Mg143 2.028 . S
O142 C144 1.248 . S
Mg143 O142 2.028 . S
Mg143 O148 2.032 . S
Mg143 O150 2.079 . S
C144 O141 1.250 . S
C144 O142 1.248 . S
C145 O146 1.264 . S
C145 O153 1.249 . S
O146 C145 1.264 . S
O147 Mg140 1.986 . S
O147 C151 1.246 . S
O148 Mg143 2.032 . S
O148 C151 1.259 . S
O149 Mg140 2.114 . S
O149 C152 1.252 . S
O150 Mg140 2.251 . S
O150 Mg143 2.079 . S
O150 C152 1.273 . S
C151 O147 1.246 . S
C151 O148 1.259 . S
C152 O149 1.252 . S
C152 O150 1.273 . S
O153 Mg140 2.010 . S
O153 C145 1.249 . S
Mg154 O155 2.028 . S
Mg154 O161 1.986 . S
Mg154 O163 2.114 . S
Mg154 O164 2.251 . S
Mg154 O167 2.010 . S
O155 Mg154 2.028 . S
O155 C158 1.250 . S
O156 Mg157 2.028 . S
O156 C158 1.248 . S
Mg157 O156 2.028 . S
Mg157 O162 2.032 . S
Mg157 O164 2.079 . S
C158 O155 1.250 . S
C158 O156 1.248 . S
C159 O160 1.264 . S
C159 O167 1.249 . S
O160 C159 1.264 . S
O161 Mg154 1.986 . S
O161 C165 1.246 . S
O162 Mg157 2.032 . S
O162 C165 1.259 . S
O163 Mg154 2.114 . S
O163 C166 1.252 . S
O164 Mg154 2.251 . S
O164 Mg157 2.079 . S
O164 C166 1.273 . S
C165 O161 1.246 . S
C165 O162 1.259 . S
C166 O163 1.252 . S
C166 O164 1.273 . S
O167 Mg154 2.010 . S
O167 C159 1.249 . S
H168 C180 0.930 . S
H169 C182 0.930 . S
H170 C183 0.930 . S
H171 C187 0.959 . S
H172 C187 0.959 . S
H173 C187 0.961 . S
H174 C188 0.960 . S
H175 C188 0.961 . S
H176 C188 0.959 . S
H177 C191 0.929 . S
H178 C192 0.931 . S
H179 C194 0.930 . S
C180 H168 0.930 . S
C180 C181 1.399 . S
C180 C185 1.399 . S
C181 C180 1.399 . S
C181 C182 1.376 . S
C182 H169 0.930 . S
C182 C181 1.376 . S
C182 C183 1.388 . S
C183 H170 0.930 . S
C183 C182 1.388 . S
C183 C184 1.390 . S
C184 C183 1.390 . S
C184 C185 1.394 . S
C184 C190 1.465 . S
C185 C180 1.399 . S
C185 C184 1.394 . S
C185 C186 1.516 . S
C186 C185 1.516 . S
C186 C187 1.502 . S
C186 C188 1.561 . S
C186 C189 1.526 . S
C187 H171 0.959 . S
C187 H172 0.959 . S
C187 H173 0.961 . S
C187 C186 1.502 . S
C188 H174 0.960 . S
C188 H175 0.961 . S
C188 H176 0.959 . S
C188 C186 1.561 . S
C189 C186 1.526 . S
C189 C190 1.396 . S
C189 C194 1.390 . S
C190 C184 1.465 . S
C190 C189 1.396 . S
C190 C191 1.399 . S
C191 H177 0.929 . S
C191 C190 1.399 . S
C191 C192 1.385 . S
C192 H178 0.931 . S
C192 C191 1.385 . S
C192 C193 1.389 . S
C193 C192 1.389 . S
C193 C194 1.387 . S
C194 H179 0.930 . S
C194 C189 1.390 . S
C194 C193 1.387 . S
H195 C207 0.930 . S
H196 C209 0.930 . S
H197 C210 0.930 . S
H198 C214 0.959 . S
H199 C214 0.959 . S
H200 C214 0.961 . S
H201 C215 0.960 . S
H202 C215 0.961 . S
H203 C215 0.959 . S
H204 C218 0.929 . S
H205 C219 0.931 . S
H206 C221 0.930 . S
C207 H195 0.930 . S
C207 C208 1.399 . S
C207 C212 1.399 . S
C208 C207 1.399 . S
C208 C209 1.376 . S
C209 H196 0.930 . S
C209 C208 1.376 . S
C209 C210 1.388 . S
C210 H197 0.930 . S
C210 C209 1.388 . S
C210 C211 1.390 . S
C211 C210 1.390 . S
C211 C212 1.394 . S
C211 C217 1.465 . S
C212 C207 1.399 . S
C212 C211 1.394 . S
C212 C213 1.516 . S
C213 C212 1.516 . S
C213 C214 1.502 . S
C213 C215 1.561 . S
C213 C216 1.526 . S
C214 H198 0.959 . S
C214 H199 0.959 . S
C214 H200 0.961 . S
C214 C213 1.502 . S
C215 H201 0.960 . S
C215 H202 0.961 . S
C215 H203 0.959 . S
C215 C213 1.561 . S
C216 C213 1.526 . S
C216 C217 1.396 . S
C216 C221 1.390 . S
C217 C211 1.465 . S
C217 C216 1.396 . S
C217 C218 1.399 . S
C218 H204 0.929 . S
C218 C217 1.399 . S
C218 C219 1.385 . S
C219 H205 0.931 . S
C219 C218 1.385 . S
C219 C220 1.389 . S
C220 C219 1.389 . S
C220 C221 1.387 . S
C221 H206 0.930 . S
C221 C216 1.390 . S
C221 C220 1.387 . S
H222 C234 0.930 . S
H223 C236 0.930 . S
H224 C237 0.930 . S
H225 C241 0.959 . S
H226 C241 0.959 . S
H227 C241 0.961 . S
H228 C242 0.960 . S
H229 C242 0.961 . S
H230 C242 0.959 . S
H231 C245 0.929 . S
H232 C246 0.931 . S
H233 C248 0.930 . S
C234 H222 0.930 . S
C234 C235 1.399 . S
C234 C239 1.399 . S
C235 C234 1.399 . S
C235 C236 1.376 . S
C236 H223 0.930 . S
C236 C235 1.376 . S
C236 C237 1.388 . S
C237 H224 0.930 . S
C237 C236 1.388 . S
C237 C238 1.390 . S
C238 C237 1.390 . S
C238 C239 1.394 . S
C238 C244 1.465 . S
C239 C234 1.399 . S
C239 C238 1.394 . S
C239 C240 1.516 . S
C240 C239 1.516 . S
C240 C241 1.502 . S
C240 C242 1.561 . S
C240 C243 1.526 . S
C241 H225 0.959 . S
C241 H226 0.959 . S
C241 H227 0.961 . S
C241 C240 1.502 . S
C242 H228 0.960 . S
C242 H229 0.961 . S
C242 H230 0.959 . S
C242 C240 1.561 . S
C243 C240 1.526 . S
C243 C244 1.396 . S
C243 C248 1.390 . S
C244 C238 1.465 . S
C244 C243 1.396 . S
C244 C245 1.399 . S
C245 H231 0.929 . S
C245 C244 1.399 . S
C245 C246 1.385 . S
C246 H232 0.931 . S
C246 C245 1.385 . S
C246 C247 1.389 . S
C247 C246 1.389 . S
C247 C248 1.387 . S
C248 H233 0.930 . S
C248 C243 1.390 . S
C248 C247 1.387 . S
H249 C261 0.930 . S
H250 C263 0.930 . S
H251 C264 0.930 . S
H252 C268 0.959 . S
H253 C268 0.959 . S
H254 C268 0.961 . S
H255 C269 0.960 . S
H256 C269 0.961 . S
H257 C269 0.959 . S
H258 C272 0.929 . S
H259 C273 0.931 . S
H260 C275 0.930 . S
C261 H249 0.930 . S
C261 C262 1.399 . S
C261 C266 1.399 . S
C262 C261 1.399 . S
C262 C263 1.376 . S
C263 H250 0.930 . S
C263 C262 1.376 . S
C263 C264 1.388 . S
C264 H251 0.930 . S
C264 C263 1.388 . S
C264 C265 1.390 . S
C265 C264 1.390 . S
C265 C266 1.394 . S
C265 C271 1.465 . S
C266 C261 1.399 . S
C266 C265 1.394 . S
C266 C267 1.516 . S
C267 C266 1.516 . S
C267 C268 1.502 . S
C267 C269 1.561 . S
C267 C270 1.526 . S
C268 H252 0.959 . S
C268 H253 0.959 . S
C268 H254 0.961 . S
C268 C267 1.502 . S
C269 H255 0.960 . S
C269 H256 0.961 . S
C269 H257 0.959 . S
C269 C267 1.561 . S
C270 C267 1.526 . S
C270 C271 1.396 . S
C270 C275 1.390 . S
C271 C265 1.465 . S
C271 C270 1.396 . S
C271 C272 1.399 . S
C272 H258 0.929 . S
C272 C271 1.399 . S
C272 C273 1.385 . S
C273 H259 0.931 . S
C273 C272 1.385 . S
C273 C274 1.389 . S
C274 C273 1.389 . S
C274 C275 1.387 . S
C275 H260 0.930 . S
C275 C270 1.390 . S
C275 C274 1.387 . S
H276 C288 0.930 . S
H277 C290 0.930 . S
H278 C291 0.930 . S
H279 C295 0.959 . S
H280 C295 0.959 . S
H281 C295 0.961 . S
H282 C296 0.960 . S
H283 C296 0.961 . S
H284 C296 0.959 . S
H285 C299 0.929 . S
H286 C300 0.931 . S
H287 C302 0.930 . S
C288 H276 0.930 . S
C288 C289 1.399 . S
C288 C293 1.399 . S
C289 C288 1.399 . S
C289 C290 1.376 . S
C290 H277 0.930 . S
C290 C289 1.376 . S
C290 C291 1.388 . S
C291 H278 0.930 . S
C291 C290 1.388 . S
C291 C292 1.390 . S
C292 C291 1.390 . S
C292 C293 1.394 . S
C292 C298 1.465 . S
C293 C288 1.399 . S
C293 C292 1.394 . S
C293 C294 1.516 . S
C294 C293 1.516 . S
C294 C295 1.502 . S
C294 C296 1.561 . S
C294 C297 1.526 . S
C295 H279 0.959 . S
C295 H280 0.959 . S
C295 H281 0.961 . S
C295 C294 1.502 . S
C296 H282 0.960 . S
C296 H283 0.961 . S
C296 H284 0.959 . S
C296 C294 1.561 . S
C297 C294 1.526 . S
C297 C298 1.396 . S
C297 C302 1.390 . S
C298 C292 1.465 . S
C298 C297 1.396 . S
C298 C299 1.399 . S
C299 H285 0.929 . S
C299 C298 1.399 . S
C299 C300 1.385 . S
C300 H286 0.931 . S
C300 C299 1.385 . S
C300 C301 1.389 . S
C301 C300 1.389 . S
C301 C302 1.387 . S
C302 H287 0.930 . S
C302 C297 1.390 . S
C302 C301 1.387 . S
H303 C315 0.930 . S
H304 C317 0.930 . S
H305 C318 0.930 . S
H306 C322 0.959 . S
H307 C322 0.959 . S
H308 C322 0.961 . S
H309 C323 0.960 . S
H310 C323 0.961 . S
H311 C323 0.959 . S
H312 C326 0.929 . S
H313 C327 0.931 . S
H314 C329 0.930 . S
C315 H303 0.930 . S
C315 C316 1.399 . S
C315 C320 1.399 . S
C316 C315 1.399 . S
C316 C317 1.376 . S
C317 H304 0.930 . S
C317 C316 1.376 . S
C317 C318 1.388 . S
C318 H305 0.930 . S
C318 C317 1.388 . S
C318 C319 1.390 . S
C319 C318 1.390 . S
C319 C320 1.394 . S
C319 C325 1.465 . S
C320 C315 1.399 . S
C320 C319 1.394 . S
C320 C321 1.516 . S
C321 C320 1.516 . S
C321 C322 1.502 . S
C321 C323 1.561 . S
C321 C324 1.526 . S
C322 H306 0.959 . S
C322 H307 0.959 . S
C322 H308 0.961 . S
C322 C321 1.502 . S
C323 H309 0.960 . S
C323 H310 0.961 . S
C323 H311 0.959 . S
C323 C321 1.561 . S
C324 C321 1.526 . S
C324 C325 1.396 . S
C324 C329 1.390 . S
C325 C319 1.465 . S
C325 C324 1.396 . S
C325 C326 1.399 . S
C326 H312 0.929 . S
C326 C325 1.399 . S
C326 C327 1.385 . S
C327 H313 0.931 . S
C327 C326 1.385 . S
C327 C328 1.389 . S
C328 C327 1.389 . S
C328 C329 1.387 . S
C329 H314 0.930 . S
C329 C324 1.390 . S
C329 C328 1.387 . S
H330 C342 0.930 . S
H331 C344 0.930 . S
H332 C345 0.930 . S
H333 C349 0.959 . S
H334 C349 0.959 . S
H335 C349 0.961 . S
H336 C350 0.960 1_554 S
H337 C350 0.961 1_565 S
H338 C350 0.959 . S
H339 C353 0.929 1_545 S
H340 C354 0.931 . S
H341 C356 0.930 . S
C342 H330 0.930 . S
C342 C343 1.399 . S
C342 C347 1.399 . S
C343 C342 1.399 . S
C343 C344 1.376 . S
C344 H331 0.930 . S
C344 C343 1.376 . S
C344 C345 1.388 . S
C345 H332 0.930 . S
C345 C344 1.388 . S
C345 C346 1.390 . S
C346 C345 1.390 . S
C346 C347 1.394 . S
C346 C352 1.465 1_544 S
C347 C342 1.399 . S
C347 C346 1.394 . S
C347 C348 1.516 1_545 S
C348 C347 1.516 1_565 S
C348 C349 1.502 . S
C348 C350 1.561 1_564 S
C348 C351 1.526 1_554 S
C349 H333 0.959 . S
C349 H334 0.959 . S
C349 H335 0.961 . S
C349 C348 1.502 . S
C350 H336 0.960 1_556 S
C350 H337 0.961 1_545 S
C350 H338 0.959 . S
C350 C348 1.561 1_546 S
C351 C348 1.526 1_556 S
C351 C352 1.396 . S
C351 C356 1.390 . S
C352 C346 1.465 1_566 S
C352 C351 1.396 . S
C352 C353 1.399 . S
C353 H339 0.929 1_565 S
C353 C352 1.399 . S
C353 C354 1.385 . S
C354 H340 0.931 . S
C354 C353 1.385 . S
C354 C355 1.389 . S
C355 C354 1.389 . S
C355 C356 1.387 . S
C356 H341 0.930 . S
C356 C351 1.390 . S
C356 C355 1.387 . S
H357 C369 0.930 . S
H358 C371 0.930 . S
H359 C372 0.930 . S
H360 C376 0.959 . S
H361 C376 0.959 . S
H362 C376 0.961 . S
H363 C377 0.960 . S
H364 C377 0.961 . S
H365 C377 0.959 . S
H366 C380 0.929 . S
H367 C381 0.931 . S
H368 C383 0.930 . S
C369 H357 0.930 . S
C369 C370 1.399 . S
C369 C374 1.399 . S
C370 C369 1.399 . S
C370 C371 1.376 . S
C371 H358 0.930 . S
C371 C370 1.376 . S
C371 C372 1.388 . S
C372 H359 0.930 . S
C372 C371 1.388 . S
C372 C373 1.390 . S
C373 C372 1.390 . S
C373 C374 1.394 . S
C373 C379 1.465 . S
C374 C369 1.399 . S
C374 C373 1.394 . S
C374 C375 1.516 . S
C375 C374 1.516 . S
C375 C376 1.502 . S
C375 C377 1.561 . S
C375 C378 1.526 . S
C376 H360 0.959 . S
C376 H361 0.959 . S
C376 H362 0.961 . S
C376 C375 1.502 . S
C377 H363 0.960 . S
C377 H364 0.961 . S
C377 H365 0.959 . S
C377 C375 1.561 . S
C378 C375 1.526 . S
C378 C379 1.396 . S
C378 C383 1.390 . S
C379 C373 1.465 . S
C379 C378 1.396 . S
C379 C380 1.399 . S
C380 H366 0.929 . S
C380 C379 1.399 . S
C380 C381 1.385 . S
C381 H367 0.931 . S
C381 C380 1.385 . S
C381 C382 1.389 . S
C382 C381 1.389 . S
C382 C383 1.387 . S
C383 H368 0.930 . S
C383 C378 1.390 . S
C383 C382 1.387 . S
H384 C396 0.930 . S
H385 C398 0.930 . S
H386 C399 0.930 1_655 S
H387 C403 0.959 . S
H388 C403 0.959 . S
H389 C403 0.961 . S
H390 C404 0.960 1_556 S
H391 C404 0.961 1_655 S
H392 C404 0.959 1_656 S
H393 C407 0.929 1_556 S
H394 C408 0.931 . S
H395 C410 0.930 . S
C396 H384 0.930 . S
C396 C397 1.399 . S
C396 C401 1.399 . S
C397 C396 1.399 . S
C397 C398 1.376 . S
C398 H385 0.930 . S
C398 C397 1.376 . S
C398 C399 1.388 . S
C399 H386 0.930 1_455 S
C399 C398 1.388 . S
C399 C400 1.390 . S
C400 C399 1.390 . S
C400 C401 1.394 . S
C400 C406 1.465 1_456 S
C401 C396 1.399 . S
C401 C400 1.394 . S
C401 C402 1.516 1_556 S
C402 C401 1.516 1_554 S
C402 C403 1.502 . S
C402 C404 1.561 . S
C402 C405 1.526 1_455 S
C403 H387 0.959 . S
C403 H388 0.959 . S
C403 H389 0.961 . S
C403 C402 1.502 . S
C404 H390 0.960 1_554 S
C404 H391 0.961 1_455 S
C404 H392 0.959 1_454 S
C404 C402 1.561 . S
C405 C402 1.526 1_655 S
C405 C406 1.396 . S
C405 C410 1.390 . S
C406 C400 1.465 1_654 S
C406 C405 1.396 . S
C406 C407 1.399 . S
C407 H393 0.929 1_554 S
C407 C406 1.399 . S
C407 C408 1.385 . S
C408 H394 0.931 . S
C408 C407 1.385 . S
C408 C409 1.389 . S
C409 C408 1.389 . S
C409 C410 1.387 . S
C410 H395 0.930 . S
C410 C405 1.390 . S
C410 C409 1.387 . S
H411 C423 0.930 . S
H412 C425 0.930 . S
H413 C426 0.930 . S
H414 C430 0.959 . S
H415 C430 0.959 . S
H416 C430 0.961 . S
H417 C431 0.960 . S
H418 C431 0.961 . S
H419 C431 0.959 . S
H420 C434 0.929 . S
H421 C435 0.931 . S
H422 C437 0.930 . S
C423 H411 0.930 . S
C423 C424 1.399 . S
C423 C428 1.399 . S
C424 C423 1.399 . S
C424 C425 1.376 . S
C425 H412 0.930 . S
C425 C424 1.376 . S
C425 C426 1.388 . S
C426 H413 0.930 . S
C426 C425 1.388 . S
C426 C427 1.390 . S
C427 C426 1.390 . S
C427 C428 1.394 . S
C427 C433 1.465 . S
C428 C423 1.399 . S
C428 C427 1.394 . S
C428 C429 1.516 1_545 S
C429 C428 1.516 1_565 S
C429 C430 1.502 . S
C429 C431 1.561 . S
C429 C432 1.526 . S
C430 H414 0.959 . S
C430 H415 0.959 . S
C430 H416 0.961 . S
C430 C429 1.502 . S
C431 H417 0.960 . S
C431 H418 0.961 . S
C431 H419 0.959 . S
C431 C429 1.561 . S
C432 C429 1.526 . S
C432 C433 1.396 1_565 S
C432 C437 1.390 . S
C433 C427 1.465 . S
C433 C432 1.396 1_545 S
C433 C434 1.399 . S
C434 H420 0.929 . S
C434 C433 1.399 . S
C434 C435 1.385 1_545 S
C435 H421 0.931 . S
C435 C434 1.385 1_565 S
C435 C436 1.389 . S
C436 C435 1.389 . S
C436 C437 1.387 . S
C437 H422 0.930 . S
C437 C432 1.390 . S
C437 C436 1.387 . S
H438 C450 0.930 . S
H439 C452 0.930 . S
H440 C453 0.930 . S
H441 C457 0.959 . S
H442 C457 0.959 1_554 S
H443 C457 0.961 . S
H444 C458 0.960 . S
H445 C458 0.961 . S
H446 C458 0.959 . S
H447 C461 0.929 . S
H448 C462 0.931 . S
H449 C464 0.930 . S
C450 H438 0.930 . S
C450 C451 1.399 . S
C450 C455 1.399 . S
C451 C450 1.399 . S
C451 C452 1.376 . S
C452 H439 0.930 . S
C452 C451 1.376 . S
C452 C453 1.388 . S
C453 H440 0.930 . S
C453 C452 1.388 . S
C453 C454 1.390 . S
C454 C453 1.390 . S
C454 C455 1.394 . S
C454 C460 1.465 1_556 S
C455 C450 1.399 . S
C455 C454 1.394 . S
C455 C456 1.516 1_556 S
C456 C455 1.516 1_554 S
C456 C457 1.502 1_554 S
C456 C458 1.561 . S
C456 C459 1.526 . S
C457 H441 0.959 . S
C457 H442 0.959 1_556 S
C457 H443 0.961 . S
C457 C456 1.502 1_556 S
C458 H444 0.960 . S
C458 H445 0.961 . S
C458 H446 0.959 . S
C458 C456 1.561 . S
C459 C456 1.526 . S
C459 C460 1.396 . S
C459 C464 1.390 . S
C460 C454 1.465 1_554 S
C460 C459 1.396 . S
C460 C461 1.399 . S
C461 H447 0.929 . S
C461 C460 1.399 . S
C461 C462 1.385 . S
C462 H448 0.931 . S
C462 C461 1.385 . S
C462 C463 1.389 . S
C463 C462 1.389 . S
C463 C464 1.387 . S
C464 H449 0.930 . S
C464 C459 1.390 . S
C464 C463 1.387 . S
H465 C477 0.930 . S
H466 C479 0.930 . S
H467 C480 0.930 . S
H468 C484 0.959 . S
H469 C484 0.959 . S
H470 C484 0.961 . S
H471 C485 0.960 . S
H472 C485 0.961 . S
H473 C485 0.959 . S
H474 C488 0.929 . S
H475 C489 0.931 . S
H476 C491 0.930 . S
C477 H465 0.930 . S
C477 C478 1.399 . S
C477 C482 1.399 . S
C478 C477 1.399 . S
C478 C479 1.376 . S
C479 H466 0.930 . S
C479 C478 1.376 . S
C479 C480 1.388 . S
C480 H467 0.930 . S
C480 C479 1.388 . S
C480 C481 1.390 . S
C481 C480 1.390 . S
C481 C482 1.394 . S
C481 C487 1.465 . S
C482 C477 1.399 . S
C482 C481 1.394 . S
C482 C483 1.516 1_655 S
C483 C482 1.516 1_455 S
C483 C484 1.502 . S
C483 C485 1.561 . S
C483 C486 1.526 . S
C484 H468 0.959 . S
C484 H469 0.959 . S
C484 H470 0.961 . S
C484 C483 1.502 . S
C485 H471 0.960 . S
C485 H472 0.961 . S
C485 H473 0.959 . S
C485 C483 1.561 . S
C486 C483 1.526 . S
C486 C487 1.396 1_455 S
C486 C491 1.390 . S
C487 C481 1.465 . S
C487 C486 1.396 1_655 S
C487 C488 1.399 . S
C488 H474 0.929 . S
C488 C487 1.399 . S
C488 C489 1.385 1_655 S
C489 H475 0.931 . S
C489 C488 1.385 1_455 S
C489 C490 1.389 . S
C490 C489 1.389 . S
C490 C491 1.387 . S
C491 H476 0.930 . S
C491 C486 1.390 . S
C491 C490 1.387 . S
H492 C504 0.930 . S
H493 C506 0.930 . S
H494 C507 0.930 . S
H495 C511 0.959 . S
H496 C511 0.959 . S
H497 C511 0.961 . S
H498 C512 0.960 . S
H499 C512 0.961 . S
H500 C512 0.959 . S
H501 C515 0.929 . S
H502 C516 0.931 . S
H503 C518 0.930 . S
C504 H492 0.930 . S
C504 C505 1.399 . S
C504 C509 1.399 . S
C505 C504 1.399 . S
C505 C506 1.376 . S
C506 H493 0.930 . S
C506 C505 1.376 . S
C506 C507 1.388 . S
C507 H494 0.930 . S
C507 C506 1.388 . S
C507 C508 1.390 . S
C508 C507 1.390 . S
C508 C509 1.394 . S
C508 C514 1.465 . S
C509 C504 1.399 . S
C509 C508 1.394 . S
C509 C510 1.516 . S
C510 C509 1.516 . S
C510 C511 1.502 . S
C510 C512 1.561 . S
C510 C513 1.526 . S
C511 H495 0.959 . S
C511 H496 0.959 . S
C511 H497 0.961 . S
C511 C510 1.502 . S
C512 H498 0.960 . S
C512 H499 0.961 . S
C512 H500 0.959 . S
C512 C510 1.561 . S
C513 C510 1.526 . S
C513 C514 1.396 . S
C513 C518 1.390 . S
C514 C508 1.465 . S
C514 C513 1.396 . S
C514 C515 1.399 . S
C515 H501 0.929 . S
C515 C514 1.399 . S
C515 C516 1.385 . S
C516 H502 0.931 . S
C516 C515 1.385 . S
C516 C517 1.389 . S
C517 C516 1.389 . S
C517 C518 1.387 . S
C518 H503 0.930 . S
C518 C513 1.390 . S
C518 C517 1.387 . S
H519 C531 0.930 . S
H520 C533 0.930 . S
H521 C534 0.930 . S
H522 C538 0.959 . S
H523 C538 0.959 . S
H524 C538 0.961 . S
H525 C539 0.960 . S
H526 C539 0.961 . S
H527 C539 0.959 . S
H528 C542 0.929 . S
H529 C543 0.931 . S
H530 C545 0.930 . S
C531 H519 0.930 . S
C531 C532 1.399 . S
C531 C536 1.399 . S
C532 C531 1.399 . S
C532 C533 1.376 . S
C533 H520 0.930 . S
C533 C532 1.376 . S
C533 C534 1.388 . S
C534 H521 0.930 . S
C534 C533 1.388 . S
C534 C535 1.390 . S
C535 C534 1.390 . S
C535 C536 1.394 . S
C535 C541 1.465 . S
C536 C531 1.399 . S
C536 C535 1.394 . S
C536 C537 1.516 . S
C537 C536 1.516 . S
C537 C538 1.502 . S
C537 C539 1.561 . S
C537 C540 1.526 . S
C538 H522 0.959 . S
C538 H523 0.959 . S
C538 H524 0.961 . S
C538 C537 1.502 . S
C539 H525 0.960 . S
C539 H526 0.961 . S
C539 H527 0.959 . S
C539 C537 1.561 . S
C540 C537 1.526 . S
C540 C541 1.396 . S
C540 C545 1.390 . S
C541 C535 1.465 . S
C541 C540 1.396 . S
C541 C542 1.399 . S
C542 H528 0.929 . S
C542 C541 1.399 . S
C542 C543 1.385 . S
C543 H529 0.931 . S
C543 C542 1.385 . S
C543 C544 1.389 . S
C544 C543 1.389 . S
C544 C545 1.387 . S
C545 H530 0.930 . S
C545 C540 1.390 . S
C545 C544 1.387 . S
H546 C558 0.930 . S
H547 C560 0.930 . S
H548 C561 0.930 . S
H549 C565 0.959 . S
H550 C565 0.959 . S
H551 C565 0.961 . S
H552 C566 0.960 . S
H553 C566 0.961 . S
H554 C566 0.959 . S
H555 C569 0.929 . S
H556 C570 0.931 . S
H557 C572 0.930 . S
C558 H546 0.930 . S
C558 C559 1.399 . S
C558 C563 1.399 . S
C559 C558 1.399 . S
C559 C560 1.376 . S
C560 H547 0.930 . S
C560 C559 1.376 . S
C560 C561 1.388 . S
C561 H548 0.930 . S
C561 C560 1.388 . S
C561 C562 1.390 . S
C562 C561 1.390 . S
C562 C563 1.394 . S
C562 C568 1.465 . S
C563 C558 1.399 . S
C563 C562 1.394 . S
C563 C564 1.516 . S
C564 C563 1.516 . S
C564 C565 1.502 . S
C564 C566 1.561 . S
C564 C567 1.526 . S
C565 H549 0.959 . S
C565 H550 0.959 . S
C565 H551 0.961 . S
C565 C564 1.502 . S
C566 H552 0.960 . S
C566 H553 0.961 . S
C566 H554 0.959 . S
C566 C564 1.561 . S
C567 C564 1.526 . S
C567 C568 1.396 . S
C567 C572 1.390 . S
C568 C562 1.465 . S
C568 C567 1.396 . S
C568 C569 1.399 . S
C569 H555 0.929 . S
C569 C568 1.399 . S
C569 C570 1.385 . S
C570 H556 0.931 . S
C570 C569 1.385 . S
C570 C571 1.389 . S
C571 C570 1.389 . S
C571 C572 1.387 . S
C572 H557 0.930 . S
C572 C567 1.390 . S
C572 C571 1.387 . S
H573 C585 0.930 . S
H574 C587 0.930 . S
H575 C588 0.930 . S
H576 C592 0.959 . S
H577 C592 0.959 . S
H578 C592 0.961 . S
H579 C593 0.960 . S
H580 C593 0.961 . S
H581 C593 0.959 . S
H582 C596 0.929 . S
H583 C597 0.931 . S
H584 C599 0.930 . S
C585 H573 0.930 . S
C585 C586 1.399 . S
C585 C590 1.399 . S
C586 C585 1.399 . S
C586 C587 1.376 . S
C587 H574 0.930 . S
C587 C586 1.376 . S
C587 C588 1.388 . S
C588 H575 0.930 . S
C588 C587 1.388 . S
C588 C589 1.390 . S
C589 C588 1.390 . S
C589 C590 1.394 . S
C589 C595 1.465 . S
C590 C585 1.399 . S
C590 C589 1.394 . S
C590 C591 1.516 . S
C591 C590 1.516 . S
C591 C592 1.502 . S
C591 C593 1.561 . S
C591 C594 1.526 . S
C592 H576 0.959 . S
C592 H577 0.959 . S
C592 H578 0.961 . S
C592 C591 1.502 . S
C593 H579 0.960 . S
C593 H580 0.961 . S
C593 H581 0.959 . S
C593 C591 1.561 . S
C594 C591 1.526 . S
C594 C595 1.396 . S
C594 C599 1.390 . S
C595 C589 1.465 . S
C595 C594 1.396 . S
C595 C596 1.399 . S
C596 H582 0.929 . S
C596 C595 1.399 . S
C596 C597 1.385 . S
C597 H583 0.931 . S
C597 C596 1.385 . S
C597 C598 1.389 . S
C598 C597 1.389 . S
C598 C599 1.387 . S
C599 H584 0.930 . S
C599 C594 1.390 . S
C599 C598 1.387 . S
H600 C612 0.930 . S
H601 C614 0.930 . S
H602 C615 0.930 . S
H603 C619 0.959 . S
H604 C619 0.959 . S
H605 C619 0.961 . S
H606 C620 0.960 . S
H607 C620 0.961 . S
H608 C620 0.959 . S
H609 C623 0.929 . S
H610 C624 0.931 . S
H611 C626 0.930 . S
C612 H600 0.930 . S
C612 C613 1.399 . S
C612 C617 1.399 . S
C613 C612 1.399 . S
C613 C614 1.376 . S
C614 H601 0.930 . S
C614 C613 1.376 . S
C614 C615 1.388 . S
C615 H602 0.930 . S
C615 C614 1.388 . S
C615 C616 1.390 . S
C616 C615 1.390 . S
C616 C617 1.394 . S
C616 C622 1.465 . S
C617 C612 1.399 . S
C617 C616 1.394 . S
C617 C618 1.516 . S
C618 C617 1.516 . S
C618 C619 1.502 . S
C618 C620 1.561 . S
C618 C621 1.526 . S
C619 H603 0.959 . S
C619 H604 0.959 . S
C619 H605 0.961 . S
C619 C618 1.502 . S
C620 H606 0.960 . S
C620 H607 0.961 . S
C620 H608 0.959 . S
C620 C618 1.561 . S
C621 C618 1.526 . S
C621 C622 1.396 . S
C621 C626 1.390 . S
C622 C616 1.465 . S
C622 C621 1.396 . S
C622 C623 1.399 . S
C623 H609 0.929 . S
C623 C622 1.399 . S
C623 C624 1.385 . S
C624 H610 0.931 . S
C624 C623 1.385 . S
C624 C625 1.389 . S
C625 C624 1.389 . S
C625 C626 1.387 . S
C626 H611 0.930 . S
C626 C621 1.390 . S
C626 C625 1.387 . S
H627 C639 0.930 . S
H628 C641 0.930 . S
H629 C642 0.930 . S
H630 C646 0.959 . S
H631 C646 0.959 . S
H632 C646 0.961 . S
H633 C647 0.960 . S
H634 C647 0.961 . S
H635 C647 0.959 . S
H636 C650 0.929 . S
H637 C651 0.931 . S
H638 C653 0.930 . S
C639 H627 0.930 . S
C639 C640 1.399 . S
C639 C644 1.399 . S
C640 C639 1.399 . S
C640 C641 1.376 . S
C641 H628 0.930 . S
C641 C640 1.376 . S
C641 C642 1.388 . S
C642 H629 0.930 . S
C642 C641 1.388 . S
C642 C643 1.390 . S
C643 C642 1.390 . S
C643 C644 1.394 . S
C643 C649 1.465 . S
C644 C639 1.399 . S
C644 C643 1.394 . S
C644 C645 1.516 . S
C645 C644 1.516 . S
C645 C646 1.502 . S
C645 C647 1.561 . S
C645 C648 1.526 . S
C646 H630 0.959 . S
C646 H631 0.959 . S
C646 H632 0.961 . S
C646 C645 1.502 . S
C647 H633 0.960 . S
C647 H634 0.961 . S
C647 H635 0.959 . S
C647 C645 1.561 . S
C648 C645 1.526 . S
C648 C649 1.396 . S
C648 C653 1.390 . S
C649 C643 1.465 . S
C649 C648 1.396 . S
C649 C650 1.399 . S
C650 H636 0.929 . S
C650 C649 1.399 . S
C650 C651 1.385 . S
C651 H637 0.931 . S
C651 C650 1.385 . S
C651 C652 1.389 . S
C652 C651 1.389 . S
C652 C653 1.387 . S
C653 H638 0.930 . S
C653 C648 1.390 . S
C653 C652 1.387 . S
H654 C666 0.930 . S
H655 C668 0.930 . S
H656 C669 0.930 . S
H657 C673 0.959 . S
H658 C673 0.959 . S
H659 C673 0.961 . S
H660 C674 0.960 . S
H661 C674 0.961 . S
H662 C674 0.959 . S
H663 C677 0.929 . S
H664 C678 0.931 . S
H665 C680 0.930 . S
C666 H654 0.930 . S
C666 C667 1.399 . S
C666 C671 1.399 . S
C667 C666 1.399 . S
C667 C668 1.376 . S
C668 H655 0.930 . S
C668 C667 1.376 . S
C668 C669 1.388 . S
C669 H656 0.930 . S
C669 C668 1.388 . S
C669 C670 1.390 . S
C670 C669 1.390 . S
C670 C671 1.394 . S
C670 C676 1.465 . S
C671 C666 1.399 . S
C671 C670 1.394 . S
C671 C672 1.516 . S
C672 C671 1.516 . S
C672 C673 1.502 . S
C672 C674 1.561 . S
C672 C675 1.526 . S
C673 H657 0.959 . S
C673 H658 0.959 . S
C673 H659 0.961 . S
C673 C672 1.502 . S
C674 H660 0.960 . S
C674 H661 0.961 . S
C674 H662 0.959 . S
C674 C672 1.561 . S
C675 C672 1.526 . S
C675 C676 1.396 . S
C675 C680 1.390 . S
C676 C670 1.465 . S
C676 C675 1.396 . S
C676 C677 1.399 . S
C677 H663 0.929 . S
C677 C676 1.399 . S
C677 C678 1.385 . S
C678 H664 0.931 . S
C678 C677 1.385 . S
C678 C679 1.389 . S
C679 C678 1.389 . S
C679 C680 1.387 . S
C680 H665 0.930 . S
C680 C675 1.390 . S
C680 C679 1.387 . S
H681 C693 0.930 . S
H682 C695 0.930 . S
H683 C696 0.930 . S
H684 C700 0.959 . S
H685 C700 0.959 . S
H686 C700 0.961 . S
H687 C701 0.960 . S
H688 C701 0.961 . S
H689 C701 0.959 . S
H690 C704 0.929 . S
H691 C705 0.931 . S
H692 C707 0.930 . S
C693 H681 0.930 . S
C693 C694 1.399 . S
C693 C698 1.399 . S
C694 C693 1.399 . S
C694 C695 1.376 . S
C695 H682 0.930 . S
C695 C694 1.376 . S
C695 C696 1.388 . S
C696 H683 0.930 . S
C696 C695 1.388 . S
C696 C697 1.390 . S
C697 C696 1.390 . S
C697 C698 1.394 . S
C697 C703 1.465 . S
C698 C693 1.399 . S
C698 C697 1.394 . S
C698 C699 1.516 . S
C699 C698 1.516 . S
C699 C700 1.502 . S
C699 C701 1.561 . S
C699 C702 1.526 . S
C700 H684 0.959 . S
C700 H685 0.959 . S
C700 H686 0.961 . S
C700 C699 1.502 . S
C701 H687 0.960 . S
C701 H688 0.961 . S
C701 H689 0.959 . S
C701 C699 1.561 . S
C702 C699 1.526 . S
C702 C703 1.396 . S
C702 C707 1.390 . S
C703 C697 1.465 . S
C703 C702 1.396 . S
C703 C704 1.399 . S
C704 H690 0.929 . S
C704 C703 1.399 . S
C704 C705 1.385 . S
C705 H691 0.931 . S
C705 C704 1.385 . S
C705 C706 1.389 . S
C706 C705 1.389 . S
C706 C707 1.387 . S
C707 H692 0.930 . S
C707 C702 1.390 . S
C707 C706 1.387 . S
H708 C720 0.930 . S
H709 C722 0.930 . S
H710 C723 0.930 . S
H711 C727 0.959 . S
H712 C727 0.959 . S
H713 C727 0.961 . S
H714 C728 0.960 . S
H715 C728 0.961 . S
H716 C728 0.959 . S
H717 C731 0.929 . S
H718 C732 0.931 . S
H719 C734 0.930 . S
C720 H708 0.930 . S
C720 C721 1.399 . S
C720 C725 1.399 . S
C721 C720 1.399 . S
C721 C722 1.376 . S
C722 H709 0.930 . S
C722 C721 1.376 . S
C722 C723 1.388 . S
C723 H710 0.930 . S
C723 C722 1.388 . S
C723 C724 1.390 . S
C724 C723 1.390 . S
C724 C725 1.394 . S
C724 C730 1.465 . S
C725 C720 1.399 . S
C725 C724 1.394 . S
C725 C726 1.516 . S
C726 C725 1.516 . S
C726 C727 1.502 . S
C726 C728 1.561 . S
C726 C729 1.526 . S
C727 H711 0.959 . S
C727 H712 0.959 . S
C727 H713 0.961 . S
C727 C726 1.502 . S
C728 H714 0.960 . S
C728 H715 0.961 . S
C728 H716 0.959 . S
C728 C726 1.561 . S
C729 C726 1.526 . S
C729 C730 1.396 . S
C729 C734 1.390 . S
C730 C724 1.465 . S
C730 C729 1.396 . S
C730 C731 1.399 . S
C731 H717 0.929 . S
C731 C730 1.399 . S
C731 C732 1.385 . S
C732 H718 0.931 . S
C732 C731 1.385 . S
C732 C733 1.389 . S
C733 C732 1.389 . S
C733 C734 1.387 . S
C734 H719 0.930 . S
C734 C729 1.390 . S
C734 C733 1.387 . S
H735 C747 0.930 . S
H736 C749 0.930 . S
H737 C750 0.930 . S
H738 C754 0.959 . S
H739 C754 0.959 . S
H740 C754 0.961 . S
H741 C755 0.960 . S
H742 C755 0.961 . S
H743 C755 0.959 . S
H744 C758 0.929 . S
H745 C759 0.931 . S
H746 C761 0.930 . S
C747 H735 0.930 . S
C747 C748 1.399 . S
C747 C752 1.399 . S
C748 C747 1.399 . S
C748 C749 1.376 . S
C749 H736 0.930 . S
C749 C748 1.376 . S
C749 C750 1.388 . S
C750 H737 0.930 . S
C750 C749 1.388 . S
C750 C751 1.390 . S
C751 C750 1.390 . S
C751 C752 1.394 . S
C751 C757 1.465 . S
C752 C747 1.399 . S
C752 C751 1.394 . S
C752 C753 1.516 . S
C753 C752 1.516 . S
C753 C754 1.502 . S
C753 C755 1.561 . S
C753 C756 1.526 . S
C754 H738 0.959 . S
C754 H739 0.959 . S
C754 H740 0.961 . S
C754 C753 1.502 . S
C755 H741 0.960 . S
C755 H742 0.961 . S
C755 H743 0.959 . S
C755 C753 1.561 . S
C756 C753 1.526 . S
C756 C757 1.396 . S
C756 C761 1.390 . S
C757 C751 1.465 . S
C757 C756 1.396 . S
C757 C758 1.399 . S
C758 H744 0.929 . S
C758 C757 1.399 . S
C758 C759 1.385 . S
C759 H745 0.931 . S
C759 C758 1.385 . S
C759 C760 1.389 . S
C760 C759 1.389 . S
C760 C761 1.387 . S
C761 H746 0.930 . S
C761 C756 1.390 . S
C761 C760 1.387 . S
H762 C774 0.930 . S
H763 C776 0.930 . S
H764 C777 0.930 . S
H765 C781 0.959 . S
H766 C781 0.959 . S
H767 C781 0.961 . S
H768 C782 0.960 . S
H769 C782 0.961 . S
H770 C782 0.959 . S
H771 C785 0.929 . S
H772 C786 0.931 . S
H773 C788 0.930 . S
C774 H762 0.930 . S
C774 C775 1.399 . S
C774 C779 1.399 . S
C775 C774 1.399 . S
C775 C776 1.376 . S
C776 H763 0.930 . S
C776 C775 1.376 . S
C776 C777 1.388 . S
C777 H764 0.930 . S
C777 C776 1.388 . S
C777 C778 1.390 . S
C778 C777 1.390 . S
C778 C779 1.394 . S
C778 C784 1.465 . S
C779 C774 1.399 . S
C779 C778 1.394 . S
C779 C780 1.516 . S
C780 C779 1.516 . S
C780 C781 1.502 . S
C780 C782 1.561 . S
C780 C783 1.526 . S
C781 H765 0.959 . S
C781 H766 0.959 . S
C781 H767 0.961 . S
C781 C780 1.502 . S
C782 H768 0.960 . S
C782 H769 0.961 . S
C782 H770 0.959 . S
C782 C780 1.561 . S
C783 C780 1.526 . S
C783 C784 1.396 . S
C783 C788 1.390 . S
C784 C778 1.465 . S
C784 C783 1.396 . S
C784 C785 1.399 . S
C785 H771 0.929 . S
C785 C784 1.399 . S
C785 C786 1.385 . S
C786 H772 0.931 . S
C786 C785 1.385 . S
C786 C787 1.389 . S
C787 C786 1.389 . S
C787 C788 1.387 . S
C788 H773 0.930 . S
C788 C783 1.390 . S
C788 C787 1.387 . S
H789 C801 0.930 . S
H790 C803 0.930 . S
H791 C804 0.930 . S
H792 C808 0.959 . S
H793 C808 0.959 . S
H794 C808 0.961 . S
H795 C809 0.960 . S
H796 C809 0.961 . S
H797 C809 0.959 . S
H798 C812 0.929 . S
H799 C813 0.931 . S
H800 C815 0.930 . S
C801 H789 0.930 . S
C801 C802 1.399 . S
C801 C806 1.399 . S
C802 C801 1.399 . S
C802 C803 1.376 . S
C803 H790 0.930 . S
C803 C802 1.376 . S
C803 C804 1.388 . S
C804 H791 0.930 . S
C804 C803 1.388 . S
C804 C805 1.390 . S
C805 C804 1.390 . S
C805 C806 1.394 . S
C805 C811 1.465 . S
C806 C801 1.399 . S
C806 C805 1.394 . S
C806 C807 1.516 . S
C807 C806 1.516 . S
C807 C808 1.502 . S
C807 C809 1.561 . S
C807 C810 1.526 . S
C808 H792 0.959 . S
C808 H793 0.959 . S
C808 H794 0.961 . S
C808 C807 1.502 . S
C809 H795 0.960 . S
C809 H796 0.961 . S
C809 H797 0.959 . S
C809 C807 1.561 . S
C810 C807 1.526 . S
C810 C811 1.396 . S
C810 C815 1.390 . S
C811 C805 1.465 . S
C811 C810 1.396 . S
C811 C812 1.399 . S
C812 H798 0.929 . S
C812 C811 1.399 . S
C812 C813 1.385 . S
C813 H799 0.931 . S
C813 C812 1.385 . S
C813 C814 1.389 . S
C814 C813 1.389 . S
C814 C815 1.387 . S
C815 H800 0.930 . S
C815 C810 1.390 . S
C815 C814 1.387 . S
C181 C151 1.284 . S
C193 C11 1.295 . S
C208 C25 1.284 . S
C220 C165 1.294 . S
C235 C39 1.324 . S
C247 C95 1.319 . S
C262 C109 1.313 . S
C274 C53 1.319 . S
C289 C123 1.318 . S
C301 C67 1.314 . S
C316 C81 1.319 . S
C328 C137 1.312 . S
C343 C5 0.934 . S
C355 C103 0.899 . S
C370 C19 0.900 . S
C382 C117 0.845 . S
C397 C131 0.733 . S
C409 C33 0.793 . S
C424 C145 0.828 . S
C436 C47 0.764 . S
C451 C159 0.942 . S
C463 C61 0.939 . S
C478 C89 0.838 . S
C490 C75 0.782 . S
C505 C12 0.908 . S
C517 C60 0.902 . S
C532 C26 0.911 . S
C544 C74 0.911 . S
C559 C40 0.961 . S
C571 C4 0.878 . S
C586 C54 0.958 . S
C598 C18 0.869 . S
C613 C68 0.905 . S
C625 C32 0.803 . S
C640 C82 0.915 . S
C652 C46 0.920 . S
C667 C96 0.955 . S
C679 C116 0.861 . S
C694 C110 0.910 . S
C706 C130 0.911 . S
C721 C144 0.801 . S
C733 C124 0.909 . S
C748 C138 0.906 . S
C760 C158 0.894 . S
C775 C152 0.957 . S
C787 C88 0.868 . S
C802 C166 0.982 . S
C814 C102 0.978 . S
