# Generated by pormake.
# Topology pcl, (4)-cn, num edge types: 1
# Building blocks:
#     Node 0, Type 0, BuildingBlock: TATPOV_clean_sbu_0, # of connection points: 4
#     Node 1, Type 0, BuildingBlock: TATPOV_clean_sbu_0, # of connection points: 4
#     Node 2, Type 0, BuildingBlock: TATPOV_clean_sbu_0, # of connection points: 4
#     Node 3, Type 0, BuildingBlock: TATPOV_clean_sbu_0, # of connection points: 4
#     Node 4, Type 0, BuildingBlock: TATPOV_clean_sbu_0, # of connection points: 4
#     Node 5, Type 0, BuildingBlock: TATPOV_clean_sbu_0, # of connection points: 4
#     Node 6, Type 0, BuildingBlock: TATPOV_clean_sbu_0, # of connection points: 4
#     Node 7, Type 0, BuildingBlock: TATPOV_clean_sbu_0, # of connection points: 4
#     Node 8, Type 0, BuildingBlock: TATPOV_clean_sbu_0, # of connection points: 4
#     Node 9, Type 0, BuildingBlock: TATPOV_clean_sbu_0, # of connection points: 4
#     Node 10, Type 0, BuildingBlock: TATPOV_clean_sbu_0, # of connection points: 4
#     Node 11, Type 0, BuildingBlock: TATPOV_clean_sbu_0, # of connection points: 4
#     Node 12, Type 0, BuildingBlock: TATPOV_clean_sbu_0, # of connection points: 4
#     Node 13, Type 0, BuildingBlock: TATPOV_clean_sbu_0, # of connection points: 4
#     Node 14, Type 0, BuildingBlock: TATPOV_clean_sbu_0, # of connection points: 4
#     Node 15, Type 0, BuildingBlock: TATPOV_clean_sbu_0, # of connection points: 4
#     Edge 16, Type (0, 0), BuildingBlock: UVAHIK_clean_linker_0, # of connection points: 2
#     Edge 17, Type (0, 0), BuildingBlock: UVAHIK_clean_linker_0, # of connection points: 2
#     Edge 18, Type (0, 0), BuildingBlock: UVAHIK_clean_linker_0, # of connection points: 2
#     Edge 19, Type (0, 0), BuildingBlock: UVAHIK_clean_linker_0, # of connection points: 2
#     Edge 20, Type (0, 0), BuildingBlock: UVAHIK_clean_linker_0, # of connection points: 2
#     Edge 21, Type (0, 0), BuildingBlock: UVAHIK_clean_linker_0, # of connection points: 2
#     Edge 22, Type (0, 0), BuildingBlock: UVAHIK_clean_linker_0, # of connection points: 2
#     Edge 23, Type (0, 0), BuildingBlock: UVAHIK_clean_linker_0, # of connection points: 2
#     Edge 24, Type (0, 0), BuildingBlock: UVAHIK_clean_linker_0, # of connection points: 2
#     Edge 25, Type (0, 0), BuildingBlock: UVAHIK_clean_linker_0, # of connection points: 2
#     Edge 26, Type (0, 0), BuildingBlock: UVAHIK_clean_linker_0, # of connection points: 2
#     Edge 27, Type (0, 0), BuildingBlock: UVAHIK_clean_linker_0, # of connection points: 2
#     Edge 28, Type (0, 0), BuildingBlock: UVAHIK_clean_linker_0, # of connection points: 2
#     Edge 29, Type (0, 0), BuildingBlock: UVAHIK_clean_linker_0, # of connection points: 2
#     Edge 30, Type (0, 0), BuildingBlock: UVAHIK_clean_linker_0, # of connection points: 2
#     Edge 31, Type (0, 0), BuildingBlock: UVAHIK_clean_linker_0, # of connection points: 2
#     Edge 32, Type (0, 0), BuildingBlock: UVAHIK_clean_linker_0, # of connection points: 2
#     Edge 33, Type (0, 0), BuildingBlock: UVAHIK_clean_linker_0, # of connection points: 2
#     Edge 34, Type (0, 0), BuildingBlock: UVAHIK_clean_linker_0, # of connection points: 2
#     Edge 35, Type (0, 0), BuildingBlock: UVAHIK_clean_linker_0, # of connection points: 2
#     Edge 36, Type (0, 0), BuildingBlock: UVAHIK_clean_linker_0, # of connection points: 2
#     Edge 37, Type (0, 0), BuildingBlock: UVAHIK_clean_linker_0, # of connection points: 2
#     Edge 38, Type (0, 0), BuildingBlock: UVAHIK_clean_linker_0, # of connection points: 2
#     Edge 39, Type (0, 0), BuildingBlock: UVAHIK_clean_linker_0, # of connection points: 2
#     Edge 40, Type (0, 0), BuildingBlock: UVAHIK_clean_linker_0, # of connection points: 2
#     Edge 41, Type (0, 0), BuildingBlock: UVAHIK_clean_linker_0, # of connection points: 2
#     Edge 42, Type (0, 0), BuildingBlock: UVAHIK_clean_linker_0, # of connection points: 2
#     Edge 43, Type (0, 0), BuildingBlock: UVAHIK_clean_linker_0, # of connection points: 2
#     Edge 44, Type (0, 0), BuildingBlock: UVAHIK_clean_linker_0, # of connection points: 2
#     Edge 45, Type (0, 0), BuildingBlock: UVAHIK_clean_linker_0, # of connection points: 2
#     Edge 46, Type (0, 0), BuildingBlock: UVAHIK_clean_linker_0, # of connection points: 2
#     Edge 47, Type (0, 0), BuildingBlock: UVAHIK_clean_linker_0, # of connection points: 2
# Relax obj value: 0.054
# Max RMSD: 0.062
# Mean RMSD: 0.053
data_MOF--net-pcl--node1-TATPOV_clean_sbu_0--edge1-UVAHIK_clean_linker_0
_symmetry_space_group_name_H-M    P1
_symmetry_Int_Tables_number       1
_symmetry_cell_setting            triclinic
loop_
_symmetry_equiv_pos_as_xyz
'x, y, z'
_cell_length_a     56.687425
_cell_length_b     63.050793
_cell_length_c     57.222183
_cell_angle_alpha  89.854228
_cell_angle_beta   89.978833
_cell_angle_gamma 90.04095
loop_
_atom_site_label
_atom_site_type_symbol
_atom_site_fract_x
_atom_site_fract_y
_atom_site_fract_z
_atom_type_partial_charge
Zn0 Zn 0.14227 0.39783 0.10375 0.0
Zn1 Zn 0.15889 0.36687 0.07717 0.0
O2 O 0.17365 0.39398 0.06299 0.0
O3 O 0.16317 0.41911 0.08748 0.0
O4 O 0.17329 0.34346 0.05811 0.0
O5 O 0.15302 0.38265 0.13282 0.0
O6 O 0.16986 0.35874 0.11041 0.0
C7 C 0.17423 0.41335 0.06935 0.0
C8 C 0.10608 0.37642 0.07733 0.0
O9 O 0.12299 0.3643 0.07122 0.0
O10 O 0.10997 0.39214 0.09051 0.0
C11 C 0.16945 0.34087 0.03643 0.0
O12 O 0.15509 0.3539 0.0255 0.0
C13 C 0.16546 0.36611 0.13065 0.0
Zn14 Zn 0.86145 0.60663 0.62461 0.0
Zn15 Zn 0.84932 0.63643 0.59382 0.0
O16 O 0.8393 0.60822 0.57795 0.0
O17 O 0.84978 0.58372 0.60337 0.0
O18 O 0.83807 0.65891 0.57124 0.0
O19 O 0.83899 0.6184 0.64819 0.0
O20 O 0.83092 0.64453 0.62385 0.0
C21 C 0.8406 0.58876 0.584 0.0
C22 C 0.90099 0.63178 0.60846 0.0
O23 O 0.88545 0.64071 0.59568 0.0
O24 O 0.89504 0.6172 0.62256 0.0
C25 C 0.81721 0.65747 0.56321 0.0
O26 O 0.80413 0.64116 0.56934 0.0
C27 C 0.82815 0.63542 0.64358 0.0
Zn28 Zn 0.14174 0.6009 0.88254 0.0
Zn29 Zn 0.15486 0.63117 0.91182 0.0
O30 O 0.17009 0.60404 0.92557 0.0
O31 O 0.16292 0.57989 0.89879 0.0
O32 O 0.16628 0.65494 0.9326 0.0
O33 O 0.15335 0.61768 0.85502 0.0
O34 O 0.16797 0.64089 0.87975 0.0
C35 C 0.17236 0.58515 0.91797 0.0
C36 C 0.10258 0.61943 0.90711 0.0
O37 O 0.11841 0.63183 0.91513 0.0
O38 O 0.10828 0.60448 0.89349 0.0
C39 C 0.1742 0.6526 0.95324 0.0
O40 O 0.17446 0.6336 0.96271 0.0
C41 C 0.16512 0.63435 0.8589 0.0
Zn42 Zn 0.85975 0.40261 0.39186 0.0
Zn43 Zn 0.84535 0.37147 0.41868 0.0
O44 O 0.83182 0.39893 0.43341 0.0
O45 O 0.83898 0.42397 0.40757 0.0
O46 O 0.83223 0.34863 0.43978 0.0
O47 O 0.8492 0.38676 0.36336 0.0
O48 O 0.83247 0.36292 0.38617 0.0
C49 C 0.82993 0.41819 0.42676 0.0
C50 C 0.89779 0.38185 0.41579 0.0
O51 O 0.88172 0.36875 0.42179 0.0
O52 O 0.89261 0.39829 0.40414 0.0
C53 C 0.83346 0.3291 0.43443 0.0
O54 O 0.84421 0.32363 0.41501 0.0
C55 C 0.83679 0.37022 0.36583 0.0
Zn56 Zn 0.81092 0.5994 0.89182 0.0
Zn57 Zn 0.80185 0.6343 0.91658 0.0
O58 O 0.78929 0.64108 0.88336 0.0
O59 O 0.79637 0.61211 0.86315 0.0
O60 O 0.79148 0.65994 0.93489 0.0
O61 O 0.79079 0.58142 0.91279 0.0
O62 O 0.78649 0.60956 0.93517 0.0
C63 C 0.78829 0.63078 0.86425 0.0
C64 C 0.85272 0.62052 0.91101 0.0
O65 O 0.838 0.63411 0.91862 0.0
O66 O 0.84551 0.60453 0.89962 0.0
C67 C 0.79297 0.67856 0.92644 0.0
O68 O 0.8026 0.68126 0.90575 0.0
C69 C 0.78293 0.58992 0.9312 0.0
Zn70 Zn 0.18746 0.40217 0.37479 0.0
Zn71 Zn 0.19966 0.37143 0.4037 0.0
O72 O 0.21267 0.36236 0.37125 0.0
O73 O 0.20612 0.38992 0.34854 0.0
O74 O 0.21203 0.34798 0.42439 0.0
O75 O 0.2022 0.4243 0.39503 0.0
O76 O 0.21292 0.39881 0.41914 0.0
C77 C 0.21456 0.37156 0.35147 0.0
C78 C 0.14764 0.37898 0.3943 0.0
O79 O 0.16345 0.36924 0.40595 0.0
O80 O 0.15346 0.39316 0.37964 0.0
C81 C 0.20458 0.32908 0.42195 0.0
O82 O 0.18799 0.32524 0.40649 0.0
C83 C 0.21235 0.41844 0.41364 0.0
Zn84 Zn 0.829 0.40285 0.10749 0.0
Zn85 Zn 0.81055 0.37079 0.08469 0.0
O86 O 0.80378 0.36318 0.11931 0.0
O87 O 0.82429 0.38754 0.13788 0.0
O88 O 0.79506 0.34682 0.06719 0.0
O89 O 0.80448 0.42306 0.09513 0.0
O90 O 0.79411 0.39745 0.07114 0.0
C91 C 0.81179 0.37092 0.13825 0.0
C92 C 0.86261 0.38149 0.07823 0.0
O93 O 0.84568 0.36839 0.07558 0.0
O94 O 0.85945 0.39833 0.08985 0.0
C95 C 0.79731 0.32777 0.0742 0.0
O96 O 0.81026 0.32387 0.09276 0.0
C97 C 0.79255 0.41667 0.07785 0.0
Zn98 Zn 0.18931 0.59947 0.61832 0.0
Zn99 Zn 0.20156 0.63126 0.59049 0.0
O100 O 0.21642 0.63858 0.6226 0.0
O101 O 0.20947 0.61045 0.64435 0.0
O102 O 0.2141 0.65475 0.56987 0.0
O103 O 0.20224 0.57773 0.59641 0.0
O104 O 0.21302 0.60404 0.57345 0.0
C105 C 0.21859 0.62864 0.64191 0.0
C106 C 0.14971 0.62507 0.60215 0.0
O107 O 0.16541 0.63502 0.5905 0.0
O108 O 0.15557 0.60974 0.61531 0.0
C109 C 0.21392 0.67394 0.57665 0.0
O110 O 0.20442 0.67854 0.59696 0.0
C111 C 0.21192 0.58419 0.5778 0.0
Zn112 Zn 0.6319 0.89627 0.11529 0.0
Zn113 Zn 0.64849 0.86763 0.08419 0.0
O114 O 0.65931 0.896 0.07011 0.0
O115 O 0.64693 0.91959 0.09562 0.0
O116 O 0.66208 0.84515 0.06296 0.0
O117 O 0.64977 0.882 0.14127 0.0
O118 O 0.66456 0.85977 0.11545 0.0
C119 C 0.65752 0.91522 0.07672 0.0
C120 C 0.59517 0.87166 0.09336 0.0
O121 O 0.61231 0.86316 0.08238 0.0
O122 O 0.59898 0.886 0.10835 0.0
C123 C 0.66956 0.84821 0.04227 0.0
O124 O 0.66774 0.86716 0.03286 0.0
C125 C 0.66303 0.86652 0.13635 0.0
Zn126 Zn 0.36173 0.10446 0.60302 0.0
Zn127 Zn 0.34843 0.13346 0.57275 0.0
O128 O 0.34115 0.10509 0.55563 0.0
O129 O 0.35514 0.08132 0.58018 0.0
O130 O 0.33631 0.15617 0.55092 0.0
O131 O 0.33677 0.11292 0.62588 0.0
O132 O 0.32893 0.13983 0.60262 0.0
C133 C 0.34555 0.08579 0.56084 0.0
C134 C 0.39954 0.13248 0.58993 0.0
O135 O 0.38415 0.13987 0.57583 0.0
O136 O 0.39397 0.11787 0.60414 0.0
C137 C 0.31575 0.15446 0.54224 0.0
O138 O 0.30329 0.13736 0.54682 0.0
C139 C 0.32552 0.12982 0.62171 0.0
Zn140 Zn 0.63588 0.10737 0.8897 0.0
Zn141 Zn 0.65305 0.13747 0.917 0.0
O142 O 0.66581 0.10955 0.93134 0.0
O143 O 0.65589 0.08525 0.90561 0.0
O144 O 0.66752 0.1606 0.9367 0.0
O145 O 0.64742 0.12258 0.861 0.0
O146 O 0.66543 0.14531 0.88403 0.0
C147 C 0.66615 0.09034 0.92442 0.0
C148 C 0.59996 0.12951 0.91563 0.0
O149 O 0.61716 0.14121 0.92192 0.0
O150 O 0.60355 0.11361 0.90263 0.0
C151 C 0.67423 0.15809 0.95772 0.0
O152 O 0.67133 0.13957 0.9679 0.0
C153 C 0.66085 0.13843 0.8636 0.0
Zn154 Zn 0.36842 0.88498 0.3712 0.0
Zn155 Zn 0.34911 0.85948 0.40344 0.0
O156 O 0.34198 0.88929 0.4164 0.0
O157 O 0.35773 0.91036 0.38989 0.0
O158 O 0.33285 0.83961 0.42605 0.0
O159 O 0.34824 0.87245 0.34604 0.0
O160 O 0.33143 0.85227 0.3728 0.0
C161 C 0.34663 0.9079 0.40892 0.0
C162 C 0.4024 0.85759 0.39286 0.0
O163 O 0.38468 0.85116 0.40471 0.0
O164 O 0.39985 0.87182 0.37744 0.0
C165 C 0.34186 0.83171 0.44446 0.0
O166 O 0.36357 0.83676 0.45023 0.0
C167 C 0.33332 0.85844 0.35168 0.0
Zn168 Zn 0.3276 0.10165 0.87829 0.0
Zn169 Zn 0.30609 0.13253 0.90099 0.0
O170 O 0.30007 0.1404 0.86645 0.0
O171 O 0.32158 0.11675 0.84789 0.0
O172 O 0.28864 0.15544 0.91827 0.0
O173 O 0.30498 0.07986 0.89094 0.0
O174 O 0.29019 0.10505 0.91306 0.0
C175 C 0.30843 0.13296 0.8475 0.0
C176 C 0.35873 0.12443 0.90881 0.0
O177 O 0.34075 0.13628 0.91165 0.0
O178 O 0.35729 0.108 0.8962 0.0
C179 C 0.29446 0.17478 0.91579 0.0
O180 O 0.31225 0.17961 0.90204 0.0
C181 C 0.29105 0.08559 0.90702 0.0
Zn182 Zn 0.68299 0.89642 0.38276 0.0
Zn183 Zn 0.69855 0.86573 0.41082 0.0
O184 O 0.71181 0.85823 0.37813 0.0
O185 O 0.70329 0.88609 0.35641 0.0
O186 O 0.71298 0.84299 0.43112 0.0
O187 O 0.69547 0.91894 0.40412 0.0
O188 O 0.70972 0.89361 0.42654 0.0
C189 C 0.71311 0.86822 0.35879 0.0
C190 C 0.64595 0.86919 0.40167 0.0
O191 O 0.66278 0.86076 0.41314 0.0
O192 O 0.65012 0.88407 0.38729 0.0
C193 C 0.70583 0.8239 0.43004 0.0
O194 O 0.68834 0.81917 0.41592 0.0
C195 C 0.7069 0.91328 0.42206 0.0
Zn196 Zn 0.30962 0.90769 0.10158 0.0
Zn197 Zn 0.29611 0.87382 0.0764 0.0
O198 O 0.28411 0.86745 0.10976 0.0
O199 O 0.29404 0.89561 0.13029 0.0
O200 O 0.28382 0.84874 0.05831 0.0
O201 O 0.29078 0.927 0.08101 0.0
O202 O 0.28164 0.89964 0.05889 0.0
C203 C 0.28432 0.87759 0.12897 0.0
C204 C 0.34849 0.88369 0.08111 0.0
O205 O 0.33212 0.87163 0.07366 0.0
O206 O 0.34348 0.90008 0.09294 0.0
C207 C 0.28651 0.83007 0.06633 0.0
O208 O 0.2981 0.82742 0.086 0.0
C209 C 0.28064 0.91948 0.06317 0.0
Zn210 Zn 0.6836 0.10092 0.61928 0.0
Zn211 Zn 0.69876 0.13108 0.5907 0.0
O212 O 0.71231 0.13933 0.62323 0.0
O213 O 0.70264 0.11235 0.64576 0.0
O214 O 0.71289 0.15331 0.56943 0.0
O215 O 0.69726 0.07795 0.59946 0.0
O216 O 0.70999 0.10286 0.57555 0.0
C217 C 0.71285 0.13002 0.64304 0.0
C218 C 0.64608 0.12688 0.59961 0.0
O219 O 0.66287 0.13586 0.58853 0.0
O220 O 0.65045 0.11192 0.6138 0.0
C221 C 0.71201 0.17288 0.57465 0.0
O222 O 0.70111 0.17862 0.59389 0.0
C223 C 0.70809 0.0833 0.58104 0.0
C224 C 0.07372 0.35241 0.06273 0.0
C225 C 0.08175 0.37274 0.06897 0.0
C226 C 0.05 0.34923 0.05658 0.0
C227 C 0.9966 0.37776 0.03696 0.0
H228 H 0.96136 0.33833 0.07566 0.0
C229 C 0.90264 0.39363 0.06621 0.0
C230 C 0.88637 0.37698 0.06876 0.0
C231 C 0.92583 0.38955 0.05956 0.0
C232 C 0.97094 0.34903 0.06425 0.0
H233 H 0.07162 0.40574 0.07262 0.0
H234 H 0.03073 0.40027 0.06163 0.0
H235 H 0.0045 0.3373 0.0758 0.0
H236 H 0.88146 0.34301 0.0656 0.0
H237 H 0.92245 0.3358 0.05422 0.0
H238 H 0.9632 0.39024 0.02629 0.0
C239 C 0.04255 0.38677 0.06155 0.0
C240 C 0.99564 0.34843 0.06434 0.0
C241 C 0.06595 0.38986 0.06806 0.0
C242 C 0.89362 0.35616 0.06372 0.0
C243 C 0.91705 0.35202 0.05732 0.0
C244 C 0.97199 0.37832 0.03681 0.0
C245 C 0.03421 0.36642 0.05603 0.0
C246 C 0.00866 0.36345 0.05152 0.0
C247 C 0.93346 0.36869 0.05545 0.0
C248 C 0.95892 0.36463 0.05129 0.0
H249 H 0.08553 0.33893 0.06332 0.0
H250 H 0.04397 0.33338 0.05245 0.0
H251 H 0.00623 0.38929 0.02662 0.0
H252 H 0.8976 0.40986 0.06986 0.0
H253 H 0.93808 0.40273 0.05863 0.0
C254 C 0.93504 0.64942 0.58767 0.0
C255 C 0.92621 0.63783 0.60682 0.0
C256 C 0.95929 0.65359 0.58573 0.0
C257 C 0.01451 0.65467 0.62055 0.0
H258 H 0.04583 0.63913 0.56281 0.0
C259 C 0.10893 0.62425 0.61846 0.0
C260 C 0.12457 0.63144 0.60109 0.0
C261 C 0.08518 0.62984 0.61786 0.0
C262 C 0.03732 0.64395 0.57889 0.0
H263 H 0.93583 0.62217 0.63927 0.0
H264 H 0.97768 0.62942 0.63591 0.0
H265 H 0.00268 0.64072 0.56422 0.0
H266 H 0.12744 0.65019 0.5694 0.0
H267 H 0.08539 0.65967 0.5681 0.0
H268 H 0.04899 0.65691 0.63553 0.0
C269 C 0.96603 0.63541 0.62243 0.0
C270 C 0.01262 0.64488 0.5797 0.0
C271 C 0.94199 0.63109 0.62425 0.0
C272 C 0.11583 0.64444 0.58304 0.0
C273 C 0.09181 0.64981 0.58226 0.0
C274 C 0.03908 0.65367 0.61975 0.0
C275 C 0.97504 0.64652 0.60307 0.0
C276 C 0.00096 0.64948 0.6008 0.0
C277 C 0.0763 0.64262 0.59976 0.0
C278 C 0.05071 0.64755 0.59916 0.0
H279 H 0.92333 0.6548 0.57393 0.0
H280 H 0.96574 0.66224 0.57064 0.0
H281 H 0.00606 0.65872 0.63692 0.0
H282 H 0.11504 0.61428 0.63266 0.0
H283 H 0.0736 0.62378 0.63139 0.0
C284 C 0.88774 0.64194 0.9245 0.0
C285 C 0.87833 0.62296 0.91554 0.0
C286 C 0.91207 0.64395 0.92839 0.0
C287 C 0.96572 0.61175 0.93734 0.0
H288 H 0.99991 0.65937 0.91082 0.0
C289 C 0.06162 0.60525 0.90928 0.0
C290 C 0.07741 0.622 0.91348 0.0
C291 C 0.0377 0.6074 0.91426 0.0
C292 C 0.99058 0.6462 0.91876 0.0
H293 H 0.88713 0.59119 0.90388 0.0
H294 H 0.92919 0.59469 0.9107 0.0
H295 H 0.95668 0.65954 0.91082 0.0
H296 H 0.08043 0.65418 0.92642 0.0
H297 H 0.03812 0.65806 0.93489 0.0
H298 H 0.99943 0.59803 0.94453 0.0
C299 C 0.91785 0.60798 0.91487 0.0
C300 C 0.96585 0.64628 0.91874 0.0
C301 C 0.89371 0.60604 0.91078 0.0
C302 C 0.0687 0.64098 0.92305 0.0
C303 C 0.04452 0.64323 0.9278 0.0
C304 C 0.99032 0.61168 0.93738 0.0
C305 C 0.92734 0.62691 0.92371 0.0
C306 C 0.95321 0.62869 0.92727 0.0
C307 C 0.02881 0.62641 0.92344 0.0
C308 C 0.00302 0.62853 0.92733 0.0
H309 H 0.87635 0.65528 0.92831 0.0
H310 H 0.91891 0.65873 0.93522 0.0
H311 H 0.95644 0.59818 0.9445 0.0
H312 H 0.0677 0.59038 0.90199 0.0
H313 H 0.02603 0.59427 0.91034 0.0
C314 C 0.10595 0.38023 0.38064 0.0
C315 C 0.12229 0.37439 0.39793 0.0
C316 C 0.08182 0.378 0.38452 0.0
C317 C 0.03608 0.35408 0.4229 0.0
H318 H 1.00021 0.40247 0.40087 0.0
C319 C 0.9331 0.35799 0.41875 0.0
C320 C 0.92282 0.37809 0.4214 0.0
C321 C 0.95773 0.35574 0.41934 0.0
C322 C 0.0099 0.38893 0.40748 0.0
H323 H 0.12617 0.36066 0.43248 0.0
H324 H 0.08366 0.3573 0.4396 0.0
H325 H 0.04231 0.40143 0.39458 0.0
H326 H 0.92973 0.41114 0.429 0.0
H327 H 0.97231 0.40714 0.43115 0.0
H328 H 0.00331 0.3419 0.43627 0.0
C329 C 0.08964 0.36335 0.42288 0.0
C330 C 0.0341 0.38817 0.40348 0.0
C331 C 0.11396 0.36535 0.41886 0.0
C332 C 0.93728 0.39551 0.42657 0.0
C333 C 0.96169 0.39322 0.42761 0.0
C334 C 0.01168 0.35489 0.42701 0.0
C335 C 0.07329 0.37019 0.40596 0.0
C336 C 0.04752 0.37069 0.41091 0.0
C337 C 0.97232 0.37355 0.42288 0.0
C338 C 0.99832 0.37239 0.41935 0.0
H339 H 0.1118 0.38687 0.36414 0.0
H340 H 0.06977 0.38284 0.37082 0.0
H341 H 0.04591 0.34035 0.42879 0.0
H342 H 0.92227 0.34434 0.41465 0.0
H343 H 0.96533 0.34036 0.41562 0.0
C344 C 0.38069 0.85753 0.07238 0.0
C345 C 0.37352 0.87854 0.07649 0.0
C346 C 0.40466 0.85263 0.06986 0.0
C347 C 0.46261 0.87531 0.0556 0.0
H348 H 0.48821 0.83549 0.1007 0.0
C349 C 0.56307 0.86034 0.06584 0.0
C350 C 0.57053 0.86547 0.08855 0.0
C351 C 0.53902 0.85747 0.06106 0.0
C352 C 0.48125 0.84638 0.08776 0.0
H353 H 0.38569 0.91098 0.08017 0.0
H354 H 0.42737 0.90249 0.07519 0.0
H355 H 0.44539 0.83965 0.09716 0.0
H356 H 0.55904 0.87035 0.12426 0.0
H357 H 0.51731 0.86469 0.11607 0.0
H358 H 0.49848 0.88255 0.04675 0.0
C359 C 0.41451 0.8898 0.07412 0.0
C360 C 0.45681 0.8487 0.08567 0.0
C361 C 0.39067 0.89463 0.07713 0.0
C362 C 0.55376 0.86648 0.10658 0.0
C363 C 0.5299 0.86312 0.10193 0.0
C364 C 0.48704 0.87271 0.0574 0.0
C365 C 0.42178 0.86874 0.07083 0.0
C366 C 0.4473 0.86368 0.0701 0.0
C367 C 0.52222 0.85911 0.07905 0.0
C368 C 0.49658 0.85872 0.07402 0.0
H369 H 0.36786 0.8448 0.07187 0.0
H370 H 0.40986 0.83626 0.06735 0.0
H371 H 0.45568 0.88691 0.04341 0.0
H372 H 0.57566 0.85958 0.05162 0.0
H373 H 0.53348 0.85441 0.04327 0.0
C374 C 0.60451 0.12868 0.61364 0.0
C375 C 0.62137 0.13399 0.5966 0.0
C376 C 0.58106 0.13487 0.61109 0.0
C377 C 0.53627 0.14616 0.56796 0.0
H378 H 0.50165 0.16635 0.62198 0.0
C379 C 0.43383 0.15035 0.56985 0.0
C380 C 0.42424 0.14011 0.58956 0.0
C381 C 0.45795 0.15536 0.56903 0.0
C382 C 0.51106 0.16081 0.60669 0.0
H383 H 0.62684 0.15007 0.56349 0.0
H384 H 0.58532 0.1605 0.55874 0.0
H385 H 0.54459 0.16431 0.62343 0.0
H386 H 0.43215 0.12807 0.62423 0.0
H387 H 0.47376 0.13679 0.62285 0.0
H388 H 0.50259 0.14154 0.5517 0.0
C389 C 0.59053 0.1517 0.57417 0.0
C390 C 0.53562 0.15968 0.60751 0.0
C391 C 0.61423 0.14577 0.57692 0.0
C392 C 0.43897 0.13586 0.60874 0.0
C393 C 0.46285 0.14104 0.60803 0.0
C394 C 0.51159 0.1472 0.56717 0.0
C395 C 0.57376 0.14632 0.59131 0.0
C396 C 0.54841 0.15157 0.58851 0.0
C397 C 0.47274 0.15054 0.58806 0.0
C398 C 0.4987 0.15373 0.58689 0.0
H399 H 0.6094 0.1197 0.62906 0.0
H400 H 0.56848 0.13022 0.62441 0.0
H401 H 0.5457 0.13979 0.55309 0.0
H402 H 0.42291 0.15379 0.55479 0.0
H403 H 0.46507 0.16274 0.55344 0.0
C404 C 0.56809 0.15445 0.92921 0.0
C405 C 0.57567 0.13383 0.92367 0.0
C406 C 0.54442 0.15822 0.93512 0.0
C407 C 0.49034 0.13129 0.95554 0.0
H408 H 0.45609 0.16901 0.91408 0.0
C409 C 0.39813 0.11344 0.92348 0.0
C410 C 0.3817 0.1297 0.91953 0.0
C411 C 0.42084 0.11813 0.93116 0.0
C412 C 0.46538 0.15885 0.92627 0.0
H413 H 0.56481 0.10094 0.92101 0.0
H414 H 0.52399 0.1074 0.93166 0.0
H415 H 0.49923 0.16993 0.91469 0.0
H416 H 0.37587 0.16363 0.92129 0.0
H417 H 0.41614 0.17195 0.93437 0.0
H418 H 0.45667 0.11934 0.96617 0.0
C419 C 0.53613 0.12069 0.93135 0.0
C420 C 0.49008 0.15938 0.9266 0.0
C421 C 0.55948 0.11702 0.92503 0.0
C422 C 0.3882 0.15079 0.92426 0.0
C423 C 0.41121 0.15554 0.93164 0.0
C424 C 0.46573 0.13082 0.95527 0.0
C425 C 0.52824 0.14132 0.93617 0.0
C426 C 0.50275 0.14485 0.94039 0.0
C427 C 0.42783 0.13923 0.93486 0.0
C428 C 0.45304 0.14382 0.93976 0.0
H429 H 0.58023 0.1677 0.92824 0.0
H430 H 0.53872 0.17428 0.93868 0.0
H431 H 0.49971 0.12015 0.96659 0.0
H432 H 0.39361 0.09704 0.92011 0.0
H433 H 0.43328 0.10521 0.93311 0.0
C434 C 0.44288 0.85009 0.37863 0.0
C435 C 0.42637 0.84912 0.39689 0.0
C436 C 0.46641 0.84493 0.38249 0.0
C437 C 0.51079 0.84622 0.42819 0.0
H438 H 0.54929 0.82284 0.37849 0.0
C439 C 0.61409 0.85067 0.42468 0.0
C440 C 0.62149 0.86134 0.40433 0.0
C441 C 0.59064 0.84383 0.42699 0.0
C442 C 0.53877 0.82915 0.39267 0.0
H443 H 0.42135 0.84108 0.43339 0.0
H444 H 0.46303 0.83217 0.44032 0.0
H445 H 0.50652 0.81875 0.37708 0.0
H446 H 0.61035 0.87268 0.37025 0.0
H447 H 0.56985 0.86034 0.37406 0.0
H448 H 0.54324 0.85728 0.44324 0.0
C449 C 0.45755 0.83695 0.42297 0.0
C450 C 0.5143 0.82688 0.39185 0.0
C451 C 0.43372 0.84192 0.41898 0.0
C452 C 0.60519 0.86462 0.3862 0.0
C453 C 0.58204 0.85741 0.38829 0.0
C454 C 0.53538 0.84831 0.42912 0.0
C455 C 0.4742 0.83874 0.40479 0.0
C456 C 0.49995 0.8363 0.40898 0.0
C457 C 0.57449 0.84706 0.40871 0.0
C458 C 0.54944 0.84063 0.41079 0.0
H459 H 0.43773 0.85548 0.36137 0.0
H460 H 0.47873 0.84683 0.36816 0.0
H461 H 0.50024 0.85374 0.4416 0.0
H462 H 0.62629 0.84796 0.43895 0.0
H463 H 0.58515 0.83593 0.44292 0.0
C464 C 0.1958 0.34368 0.15111 0.0
C465 C 0.17492 0.3557 0.15181 0.0
C466 C 0.20567 0.3357 0.1718 0.0
C467 C 0.19234 0.32487 0.23409 0.0
H468 H 0.25467 0.34735 0.2468 0.0
C469 C 0.2326 0.3719 0.31193 0.0
C470 C 0.22356 0.36019 0.3308 0.0
C471 C 0.23482 0.36264 0.28996 0.0
C472 C 0.23745 0.34056 0.24345 0.0
H473 H 0.14732 0.36775 0.1744 0.0
H474 H 0.16423 0.35366 0.2102 0.0
H475 H 0.23992 0.34677 0.2067 0.0
H476 H 0.21218 0.32904 0.34223 0.0
H477 H 0.21583 0.31279 0.30355 0.0
H478 H 0.1889 0.32038 0.2709 0.0
C479 C 0.17307 0.3504 0.19381 0.0
C480 C 0.22906 0.34011 0.22046 0.0
C481 C 0.16351 0.35868 0.17332 0.0
C482 C 0.21916 0.33843 0.32793 0.0
C483 C 0.22113 0.32917 0.30578 0.0
C484 C 0.20072 0.32526 0.25701 0.0
C485 C 0.19447 0.33918 0.19337 0.0
C486 C 0.20588 0.33345 0.21581 0.0
C487 C 0.22779 0.34152 0.28632 0.0
C488 C 0.22279 0.33434 0.2621 0.0
H489 H 0.20496 0.34118 0.13473 0.0
H490 H 0.22223 0.32717 0.17102 0.0
H491 H 0.17452 0.31937 0.2309 0.0
H492 H 0.23631 0.38868 0.31374 0.0
H493 H 0.23988 0.37271 0.27542 0.0
C494 C 0.79899 0.63048 0.67532 0.0
C495 C 0.81243 0.64435 0.6615 0.0
C496 C 0.78687 0.63794 0.69478 0.0
C497 C 0.7583 0.6579 0.73324 0.0
H498 H 0.80473 0.68075 0.77605 0.0
C499 C 0.78231 0.66256 0.83843 0.0
C500 C 0.7793 0.64075 0.84267 0.0
C501 C 0.77811 0.67093 0.81609 0.0
C502 C 0.79116 0.67503 0.76432 0.0
H503 H 0.82289 0.67706 0.65633 0.0
H504 H 0.80219 0.69016 0.69126 0.0
H505 H 0.81237 0.68159 0.73421 0.0
H506 H 0.76752 0.61104 0.82773 0.0
H507 H 0.76 0.62551 0.78915 0.0
H508 H 0.73793 0.64985 0.76349 0.0
C509 C 0.80077 0.67356 0.68666 0.0
C510 C 0.79557 0.67552 0.74028 0.0
C511 C 0.81253 0.6661 0.66673 0.0
C512 C 0.77015 0.62788 0.82489 0.0
C513 C 0.76562 0.63625 0.8028 0.0
C514 C 0.75387 0.65748 0.75724 0.0
C515 C 0.78827 0.65941 0.70116 0.0
C516 C 0.77987 0.66571 0.72468 0.0
C517 C 0.77041 0.65768 0.79786 0.0
C518 C 0.77097 0.66477 0.77309 0.0
H519 H 0.79858 0.61364 0.67155 0.0
H520 H 0.77772 0.62656 0.70575 0.0
H521 H 0.74573 0.65054 0.72153 0.0
H522 H 0.78937 0.67282 0.85187 0.0
H523 H 0.78189 0.68751 0.81279 0.0
C524 C 0.1976 0.65613 0.84099 0.0
C525 C 0.17576 0.64571 0.83894 0.0
C526 C 0.2089 0.66423 0.82106 0.0
C527 C 0.19929 0.67768 0.75861 0.0
H528 H 0.25886 0.6493 0.74749 0.0
C529 C 0.23579 0.62685 0.68183 0.0
C530 C 0.2284 0.63921 0.66277 0.0
C531 C 0.2386 0.63596 0.70383 0.0
C532 C 0.24247 0.65772 0.75039 0.0
H533 H 0.14788 0.63688 0.81497 0.0
H534 H 0.1672 0.65125 0.78052 0.0
H535 H 0.24303 0.65109 0.78712 0.0
H536 H 0.22082 0.67121 0.65107 0.0
H537 H 0.22559 0.6872 0.68971 0.0
H538 H 0.19749 0.68258 0.72176 0.0
C539 C 0.17575 0.65315 0.79732 0.0
C540 C 0.2335 0.65888 0.77313 0.0
C541 C 0.16477 0.64472 0.81702 0.0
C542 C 0.22642 0.66128 0.66551 0.0
C543 C 0.22903 0.67041 0.68766 0.0
C544 C 0.20825 0.67654 0.73592 0.0
C545 C 0.19819 0.6625 0.79898 0.0
C546 C 0.2111 0.66768 0.77717 0.0
C547 C 0.23388 0.65762 0.70727 0.0
C548 C 0.22919 0.66533 0.73137 0.0
H549 H 0.20645 0.65704 0.85773 0.0
H550 H 0.22623 0.6713 0.82278 0.0
H551 H 0.18213 0.68482 0.76132 0.0
H552 H 0.23769 0.60982 0.68015 0.0
H553 H 0.24224 0.62555 0.71847 0.0
C554 C 0.78647 0.35087 0.16694 0.0
C555 C 0.80824 0.35996 0.16073 0.0
C556 C 0.78322 0.34233 0.18941 0.0
C557 C 0.81562 0.32236 0.24063 0.0
H558 H 0.77442 0.35676 0.27911 0.0
C559 C 0.84362 0.35816 0.32533 0.0
C560 C 0.8286 0.35908 0.34476 0.0
C561 C 0.83589 0.34929 0.30447 0.0
C562 C 0.78542 0.34644 0.26865 0.0
H563 H 0.84396 0.36621 0.17228 0.0
H564 H 0.83859 0.35084 0.21088 0.0
H565 H 0.76966 0.35702 0.2366 0.0
H566 H 0.79392 0.35105 0.358 0.0
H567 H 0.77982 0.33623 0.32064 0.0
H568 H 0.83286 0.31339 0.27241 0.0
C569 C 0.82394 0.35045 0.19872 0.0
C570 C 0.7827 0.34658 0.24433 0.0
C571 C 0.82696 0.35943 0.17672 0.0
C572 C 0.8058 0.35042 0.34319 0.0
C573 C 0.79777 0.34199 0.32194 0.0
C574 C 0.81833 0.32221 0.26485 0.0
C575 C 0.80199 0.34214 0.20547 0.0
C576 C 0.79881 0.33565 0.23012 0.0
C577 C 0.81278 0.3415 0.30238 0.0
C578 C 0.80428 0.33536 0.2789 0.0
H579 H 0.77178 0.35118 0.15484 0.0
H580 H 0.76608 0.33617 0.19436 0.0
H581 H 0.82813 0.31368 0.23001 0.0
H582 H 0.86132 0.36463 0.32615 0.0
H583 H 0.8477 0.34947 0.28958 0.0
C584 C 0.71049 0.84034 0.32866 0.0
C585 C 0.72244 0.8579 0.33779 0.0
C586 C 0.71383 0.83447 0.30536 0.0
C587 C 0.73195 0.86127 0.25031 0.0
H588 H 0.70546 0.80994 0.22397 0.0
C589 C 0.70143 0.85633 0.15444 0.0
C590 C 0.67668 0.85656 0.15519 0.0
C591 C 0.71434 0.85054 0.17433 0.0
C592 C 0.71338 0.82418 0.23104 0.0
H593 H 0.74908 0.88166 0.33106 0.0
H594 H 0.75671 0.87027 0.29108 0.0
H595 H 0.71814 0.81019 0.26474 0.0
H596 H 0.64591 0.84971 0.17627 0.0
H597 H 0.66844 0.8387 0.21069 0.0
H598 H 0.72699 0.87513 0.21649 0.0
C599 C 0.74366 0.86171 0.30119 0.0
C600 C 0.72036 0.8245 0.2545 0.0
C601 C 0.73965 0.86807 0.32424 0.0
C602 C 0.665 0.84953 0.17537 0.0
C603 C 0.67786 0.84314 0.19493 0.0
C604 C 0.72565 0.86072 0.22676 0.0
C605 C 0.72963 0.84578 0.29088 0.0
C606 C 0.72846 0.84344 0.26486 0.0
C607 C 0.70258 0.84428 0.19484 0.0
C608 C 0.71527 0.84252 0.21726 0.0
H609 H 0.6969 0.83247 0.3388 0.0
H610 H 0.70245 0.82225 0.2984 0.0
H611 H 0.73775 0.87632 0.25729 0.0
H612 H 0.71071 0.86192 0.13906 0.0
H613 H 0.7334 0.85178 0.17405 0.0
C614 C 0.32074 0.14267 0.80731 0.0
C615 C 0.3035 0.14325 0.82488 0.0
C616 C 0.31594 0.15065 0.78512 0.0
C617 C 0.26915 0.15362 0.74413 0.0
H618 H 0.31738 0.18157 0.70712 0.0
C619 C 0.30853 0.16054 0.64372 0.0
C620 C 0.31023 0.13855 0.64019 0.0
C621 C 0.2988 0.16843 0.66447 0.0
C622 C 0.30328 0.1743 0.7171 0.0
H623 H 0.26795 0.15319 0.83338 0.0
H624 H 0.25912 0.16649 0.79381 0.0
H625 H 0.31884 0.18366 0.74956 0.0
H626 H 0.30087 0.1077 0.65414 0.0
H627 H 0.28382 0.12132 0.68997 0.0
H628 H 0.25467 0.14281 0.71168 0.0
C629 C 0.27649 0.16019 0.79754 0.0
C630 C 0.30423 0.17539 0.74144 0.0
C631 C 0.28152 0.15261 0.82007 0.0
C632 C 0.29996 0.12472 0.65654 0.0
C633 C 0.28996 0.13258 0.677 0.0
C634 C 0.26825 0.15243 0.71975 0.0
C635 C 0.29364 0.15907 0.77983 0.0
C636 C 0.28802 0.16399 0.75515 0.0
C637 C 0.2903 0.15444 0.68173 0.0
C638 C 0.28616 0.16167 0.70607 0.0
H639 H 0.33787 0.13567 0.8106 0.0
H640 H 0.32937 0.14924 0.77173 0.0
H641 H 0.25641 0.14469 0.7543 0.0
H642 H 0.31631 0.17153 0.63135 0.0
H643 H 0.29918 0.18536 0.66761 0.0
C644 C 0.65977 0.14663 0.82109 0.0
C645 C 0.6713 0.1485 0.84268 0.0
C646 C 0.67027 0.15422 0.80071 0.0
C647 C 0.72743 0.16004 0.77462 0.0
H648 H 0.68992 0.18258 0.72366 0.0
C649 C 0.71965 0.16266 0.66692 0.0
C650 C 0.72234 0.14068 0.66395 0.0
C651 C 0.72185 0.17164 0.6892 0.0
C652 C 0.70105 0.17685 0.73769 0.0
H653 H 0.70255 0.16046 0.86006 0.0
H654 H 0.72141 0.17328 0.82397 0.0
H655 H 0.67515 0.18473 0.76347 0.0
H656 H 0.73233 0.11136 0.68105 0.0
H657 H 0.73633 0.12685 0.71957 0.0
H658 H 0.75265 0.15093 0.74862 0.0
C659 C 0.70405 0.16613 0.82303 0.0
C660 C 0.69243 0.17791 0.76052 0.0
C661 C 0.69327 0.15884 0.84361 0.0
C662 C 0.72996 0.12832 0.68292 0.0
C663 C 0.73243 0.13729 0.70502 0.0
C664 C 0.73605 0.15894 0.75174 0.0
C665 C 0.69273 0.16364 0.80134 0.0
C666 C 0.7049 0.16841 0.77899 0.0
C667 C 0.72707 0.1588 0.70869 0.0
C668 C 0.72229 0.16621 0.73289 0.0
H669 H 0.64277 0.13885 0.81984 0.0
H670 H 0.66125 0.15175 0.78425 0.0
H671 H 0.73746 0.15263 0.78852 0.0
H672 H 0.71377 0.17255 0.65255 0.0
H673 H 0.71788 0.18831 0.69143 0.0
C674 C 0.28561 0.84873 0.15846 0.0
C675 C 0.27554 0.86769 0.15052 0.0
C676 C 0.28186 0.84197 0.18145 0.0
C677 C 0.26647 0.86649 0.2384 0.0
H678 H 0.28436 0.81075 0.26091 0.0
C679 C 0.29377 0.85429 0.33342 0.0
C680 C 0.318 0.84982 0.33339 0.0
C681 C 0.28033 0.85078 0.31326 0.0
C682 C 0.27886 0.82628 0.25489 0.0
H683 H 0.25179 0.89333 0.15903 0.0
H684 H 0.24346 0.88067 0.19845 0.0
H685 H 0.27349 0.81546 0.21993 0.0
H686 H 0.34697 0.83681 0.31346 0.0
H687 H 0.32338 0.82991 0.27854 0.0
H688 H 0.2721 0.87723 0.27336 0.0
C689 C 0.25541 0.87156 0.18768 0.0
C690 C 0.27293 0.82911 0.23134 0.0
C691 C 0.25988 0.87872 0.16498 0.0
C692 C 0.32823 0.84019 0.31381 0.0
C693 C 0.31472 0.83617 0.29394 0.0
C694 C 0.27176 0.86352 0.26197 0.0
C695 C 0.26745 0.85378 0.19675 0.0
C696 C 0.26788 0.8495 0.22248 0.0
C697 C 0.29092 0.84229 0.29313 0.0
C698 C 0.27906 0.84363 0.27019 0.0
H699 H 0.29792 0.8401 0.14756 0.0
H700 H 0.29173 0.82835 0.18753 0.0
H701 H 0.26307 0.88253 0.23257 0.0
H702 H 0.28567 0.86199 0.34831 0.0
H703 H 0.26206 0.85577 0.31293 0.0
C704 C 0.28805 0.213 0.92593 0.0
C705 C 0.28113 0.19167 0.92796 0.0
C706 C 0.27539 0.22896 0.93731 0.0
C707 C 0.2336 0.23764 0.98598 0.0
H708 H 0.22301 0.29162 0.95511 0.0
C709 C 0.19773 0.3104 0.03524 0.0
C710 C 0.1814 0.32351 0.02367 0.0
C711 C 0.20928 0.29416 0.02328 0.0
C712 C 0.22562 0.27657 0.9639 0.0
H713 H 0.25537 0.17038 0.94343 0.0
H714 H 0.23315 0.19821 0.96301 0.0
H715 H 0.24395 0.26351 0.93458 0.0
H716 H 0.1643 0.32972 0.99046 0.0
H717 H 0.18426 0.30115 0.96962 0.0
H718 H 0.21489 0.25053 0.01513 0.0
C719 C 0.24857 0.2026 0.95292 0.0
C720 C 0.23789 0.26055 0.95224 0.0
C721 C 0.26125 0.18664 0.94159 0.0
C722 C 0.17683 0.31995 -0.00013 0.0
C723 C 0.18837 0.30365 0.98789 0.0
C724 C 0.22131 0.25365 -0.00237 0.0
C725 C 0.25549 0.22395 0.95094 0.0
C726 C 0.24211 0.24091 0.96318 0.0
C727 C 0.20476 0.29057 -0.00054 0.0
C728 C 0.21727 0.27335 0.98678 0.0
H729 H 0.30332 0.21742 0.91563 0.0
H730 H 0.28141 0.2452 0.93568 0.0
H731 H 0.23673 0.2228 0.99502 0.0
H732 H 0.20176 0.31275 0.05355 0.0
H733 H 0.22206 0.28462 0.03265 0.0
C734 C 0.78533 0.6714 0.53712 0.0
C735 C 0.80727 0.67434 0.54809 0.0
C736 C 0.77535 0.68756 0.52363 0.0
C737 C 0.77547 0.7453 0.51612 0.0
H738 H 0.74595 0.73286 0.4566 0.0
C739 C 0.73857 0.81134 0.4561 0.0
C740 C 0.71761 0.80707 0.44386 0.0
C741 C 0.75007 0.79526 0.46853 0.0
C742 C 0.75383 0.73658 0.47333 0.0
H743 H 0.83606 0.69651 0.5533 0.0
H744 H 0.81851 0.72482 0.52979 0.0
H745 H 0.76525 0.70453 0.47843 0.0
H746 H 0.69205 0.78264 0.43545 0.0
H747 H 0.71174 0.75477 0.45756 0.0
H748 H 0.76369 0.77723 0.51133 0.0
C749 C 0.80903 0.71 0.53173 0.0
C750 C 0.76497 0.72034 0.48578 0.0
C751 C 0.81914 0.69374 0.54506 0.0
C752 C 0.70825 0.78644 0.44457 0.0
C753 C 0.71965 0.7704 0.45712 0.0
C754 C 0.76417 0.76152 0.50375 0.0
C755 C 0.78699 0.7071 0.52095 0.0
C756 C 0.77584 0.72451 0.50735 0.0
C757 C 0.7408 0.77456 0.46915 0.0
C758 C 0.75312 0.75736 0.48222 0.0
H759 H 0.77573 0.65664 0.53908 0.0
H760 H 0.75825 0.68492 0.51572 0.0
H761 H 0.78343 0.74893 0.53285 0.0
H762 H 0.74633 0.82704 0.45581 0.0
H763 H 0.76647 0.799 0.4773 0.0
C764 C 0.26335 0.81436 0.03326 0.0
C765 C 0.27567 0.81167 0.05437 0.0
C766 C 0.25233 0.79711 0.02249 0.0
C767 C 0.25173 0.73836 0.02094 0.0
H768 H 0.18988 0.74639 0.99338 0.0
C769 C 0.19549 0.66819 0.98759 0.0
C770 C 0.18438 0.67096 0.96584 0.0
C771 C 0.20617 0.68536 -0.00114 0.0
C772 C 0.20723 0.74393 0.00082 0.0
H773 H 0.28622 0.78868 0.08062 0.0
H774 H 0.2668 0.75869 0.06201 0.0
H775 H 0.20984 0.77627 0.01177 0.0
H776 H 0.17542 0.69404 0.93908 0.0
H777 H 0.19407 0.7239 0.95872 0.0
H778 H 0.24905 0.70599 0.01003 0.0
C779 C 0.2659 0.77407 0.05359 0.0
C780 C 0.2187 0.76107 0.01132 0.0
C781 C 0.27695 0.7913 0.06433 0.0
C782 C 0.18381 0.69134 0.95583 0.0
C783 C 0.1944 0.7085 0.96714 0.0
C784 C 0.24022 0.72121 0.0105 0.0
C785 C 0.25333 0.77678 0.03261 0.0
C786 C 0.24113 0.75851 0.02145 0.0
C787 C 0.20588 0.70568 0.98869 0.0
C788 C 0.21786 0.72381 0.00026 0.0
H789 H 0.26209 0.82983 0.02507 0.0
H790 H 0.24313 0.79971 0.00615 0.0
H791 H 0.26912 0.73589 0.02827 0.0
H792 H 0.19622 0.65272 0.99581 0.0
H793 H 0.21461 0.68272 0.0156 0.0
C794 C 0.72365 0.21047 0.56598 0.0
C795 C 0.72395 0.18891 0.55978 0.0
C796 C 0.73555 0.22552 0.55239 0.0
C797 C 0.76068 0.23449 0.4935 0.0
H798 H 0.79624 0.27877 0.52457 0.0
C799 C 0.82253 0.29131 0.44301 0.0
C800 C 0.82197 0.31283 0.44933 0.0
C801 C 0.81095 0.27606 0.45661 0.0
C802 C 0.7862 0.26664 0.51561 0.0
H803 H 0.73686 0.1663 0.53427 0.0
H804 H 0.75774 0.19254 0.51068 0.0
H805 H 0.77495 0.25254 0.54781 0.0
H806 H 0.80895 0.33516 0.47508 0.0
H807 H 0.78864 0.3086 0.49867 0.0
H808 H 0.77191 0.24861 0.4613 0.0
C809 C 0.7481 0.19785 0.52593 0.0
C810 C 0.77397 0.25161 0.52894 0.0
C811 C 0.73622 0.18278 0.53953 0.0
C812 C 0.80979 0.31872 0.46972 0.0
C813 C 0.79824 0.30346 0.48333 0.0
C814 C 0.7729 0.24952 0.48017 0.0
C815 C 0.74802 0.21938 0.53226 0.0
C816 C 0.76103 0.23537 0.51805 0.0
C817 C 0.79856 0.28196 0.47687 0.0
C818 C 0.78579 0.2658 0.49106 0.0
H819 H 0.71432 0.21575 0.58142 0.0
H820 H 0.73483 0.24201 0.55758 0.0
H821 H 0.75062 0.22237 0.48455 0.0
H822 H 0.83179 0.28621 0.42745 0.0
H823 H 0.81183 0.2596 0.45131 0.0
C824 C 0.69208 0.83455 0.00766 0.0
C825 C 0.68162 0.83086 0.02958 0.0
C826 C 0.70454 0.81843 0.99632 0.0
C827 C 0.73533 0.76779 0.00807 0.0
H828 H 0.72992 0.75987 0.94112 0.0
C829 C 0.77155 0.6938 0.96087 0.0
C830 C 0.7823 0.69673 0.93895 0.0
C831 C 0.76022 0.71065 0.97203 0.0
C832 C 0.73186 0.76205 0.95979 0.0
H833 H 0.6756 0.80716 0.05651 0.0
H834 H 0.69699 0.77904 0.03659 0.0
H835 H 0.7077 0.78813 0.96007 0.0
H836 H 0.79 0.71982 0.91181 0.0
H837 H 0.77036 0.74925 0.9314 0.0
H838 H 0.75935 0.74161 0.00782 0.0
C839 C 0.69596 0.79449 0.02835 0.0
C840 C 0.71911 0.77824 0.97066 0.0
C841 C 0.68354 0.81059 0.03969 0.0
C842 C 0.78185 0.717 0.92866 0.0
C843 C 0.77045 0.73384 0.9398 0.0
C844 C 0.74804 0.75159 0.99722 0.0
C845 C 0.7068 0.79826 0.00663 0.0
C846 C 0.7206 0.78124 0.99495 0.0
C847 C 0.75933 0.73082 0.96152 0.0
C848 C 0.74638 0.74847 0.97297 0.0
H849 H 0.691 0.84999 -0.00059 0.0
H850 H 0.71285 0.82193 0.97971 0.0
H851 H 0.73724 0.76991 0.02675 0.0
H852 H 0.77154 0.67839 0.96928 0.0
H853 H 0.75162 0.70773 0.98864 0.0
C854 C 0.28354 0.16934 0.51714 0.0
C855 C 0.30526 0.17207 0.52857 0.0
C856 C 0.27292 0.18625 0.50532 0.0
C857 C 0.28502 0.23975 0.48049 0.0
H858 H 0.21707 0.2457 0.48482 0.0
C859 C 0.2358 0.31482 0.4488 0.0
C860 C 0.21543 0.31144 0.4353 0.0
C861 C 0.24672 0.29793 0.46041 0.0
C862 C 0.23604 0.24416 0.4833 0.0
H863 H 0.333 0.19469 0.53633 0.0
H864 H 0.31427 0.22429 0.51615 0.0
H865 H 0.23647 0.21601 0.5042 0.0
H866 H 0.1903 0.28769 0.42379 0.0
H867 H 0.20927 0.25827 0.44419 0.0
H868 H 0.28451 0.26814 0.45985 0.0
C869 C 0.3056 0.20899 0.51593 0.0
C870 C 0.24718 0.22709 0.49433 0.0
C871 C 0.31631 0.19202 0.5276 0.0
C872 C 0.20597 0.29086 0.43403 0.0
C873 C 0.21677 0.274 0.4458 0.0
C874 C 0.27388 0.25691 0.46961 0.0
C875 C 0.28366 0.20637 0.50479 0.0
C876 C 0.27182 0.2246 0.49301 0.0
C877 C 0.23738 0.27732 0.45895 0.0
C878 C 0.24925 0.25927 0.47084 0.0
H879 H 0.27462 0.15414 0.51741 0.0
H880 H 0.25627 0.18351 0.49656 0.0
H881 H 0.30396 0.2382 0.47877 0.0
H882 H 0.24355 0.33048 0.45015 0.0
H883 H 0.26243 0.30102 0.47062 0.0
C884 C 0.77262 0.31407 0.04115 0.0
C885 C 0.78497 0.31028 0.06204 0.0
C886 C 0.76062 0.29761 0.02994 0.0
C887 C 0.75696 0.23892 0.02685 0.0
H888 H 0.69611 0.25028 -0.00147 0.0
C889 C 0.69634 0.17227 0.99228 0.0
C890 C 0.68599 0.17568 0.97027 0.0
C891 C 0.70816 0.18871 0.00372 0.0
C892 C 0.71317 0.24691 0.0062 0.0
H893 H 0.79437 0.28622 0.08755 0.0
H894 H 0.7731 0.25764 0.06826 0.0
H895 H 0.71741 0.27887 0.01791 0.0
H896 H 0.67967 0.19914 0.94317 0.0
H897 H 0.70022 0.22781 0.96319 0.0
H898 H 0.75254 0.20688 0.01529 0.0
C899 C 0.77302 0.27323 0.06028 0.0
C900 C 0.72542 0.2633 0.01725 0.0
C901 C 0.78513 0.28966 0.07142 0.0
C902 C 0.68744 0.19597 0.96011 0.0
C903 C 0.69911 0.21244 0.97163 0.0
C904 C 0.74464 0.2225 0.01591 0.0
C905 C 0.76058 0.277 0.03942 0.0
C906 C 0.74751 0.25953 0.02767 0.0
C907 C 0.70973 0.20895 0.99349 0.0
C908 C 0.72263 0.22633 0.00542 0.0
H909 H 0.77225 0.32975 0.03339 0.0
H910 H 0.75155 0.30102 0.01371 0.0
H911 H 0.77409 0.2355 0.03434 0.0
H912 H 0.69554 0.15684 0.0006 0.0
H913 H 0.71595 0.18561 0.02067 0.0
C914 C 0.23683 0.68568 0.54136 0.0
C915 C 0.22559 0.69069 0.56255 0.0
C916 C 0.2488 0.70131 0.52864 0.0
C917 C 0.27709 0.7538 0.53528 0.0
H918 H 0.27357 0.75493 0.46763 0.0
C919 C 0.33819 0.80653 0.47838 0.0
C920 C 0.32812 0.8164 0.45872 0.0
C921 C 0.32537 0.7916 0.49133 0.0
C922 C 0.27461 0.75496 0.48652 0.0
H923 H 0.21781 0.71619 0.58675 0.0
H924 H 0.23843 0.74346 0.56441 0.0
H925 H 0.25116 0.72846 0.48939 0.0
H926 H 0.29646 0.81853 0.43752 0.0
H927 H 0.2741 0.79274 0.4602 0.0
H928 H 0.30025 0.78053 0.53241 0.0
C929 C 0.2383 0.72738 0.55781 0.0
C930 C 0.26196 0.73961 0.49899 0.0
C931 C 0.22632 0.71175 0.57054 0.0
C932 C 0.30484 0.81117 0.45249 0.0
C933 C 0.29204 0.79627 0.46542 0.0
C934 C 0.28977 0.76914 0.5228 0.0
C935 C 0.24981 0.72232 0.53678 0.0
C936 C 0.26306 0.73882 0.52352 0.0
C937 C 0.30218 0.78618 0.48491 0.0
C938 C 0.28868 0.76991 0.49826 0.0
H939 H 0.23669 0.66961 0.53473 0.0
H940 H 0.25769 0.69681 0.51265 0.0
H941 H 0.27855 0.7535 0.55415 0.0
H942 H 0.3561 0.81015 0.48365 0.0
H943 H 0.3338 0.78397 0.5061 0.0
C944 C 0.19059 0.54928 0.9221 0.0
C945 C 0.18396 0.56862 0.93232 0.0
C946 C 0.19786 0.53227 0.93599 0.0
C947 C 0.21375 0.51607 0.99684 0.0
H948 H 0.18196 0.46407 0.97913 0.0
C949 C 0.18656 0.45087 0.06189 0.0
C950 C 0.18557 0.42966 0.0544 0.0
C951 C 0.19349 0.46696 0.04655 0.0
C952 C 0.19146 0.47826 0.98414 0.0
H953 H 0.18121 0.58575 0.96501 0.0
H954 H 0.19329 0.55588 0.98937 0.0
H955 H 0.18116 0.49427 0.95291 0.0
H956 H 0.19285 0.40854 0.02542 0.0
H957 H 0.2051 0.43669 -0.00137 0.0
H958 H 0.22306 0.50012 0.02865 0.0
C959 C 0.19325 0.55391 0.97058 0.0
C960 C 0.191 0.49566 0.96905 0.0
C961 C 0.18622 0.57104 0.95662 0.0
C962 C 0.19325 0.42473 0.0317 0.0
C963 C 0.20014 0.44087 0.01631 0.0
C964 C 0.21414 0.49862 0.01201 0.0
C965 C 0.19838 0.5341 0.96047 0.0
C966 C 0.20169 0.51495 0.97539 0.0
C967 C 0.19958 0.46223 0.02334 0.0
C968 C 0.20253 0.47967 0.00603 0.0
H969 H 0.18939 0.54702 0.90338 0.0
H970 H 0.20227 0.51743 0.92758 0.0
H971 H 0.22247 0.53058 0.00212 0.0
H972 H 0.18093 0.45522 0.07932 0.0
H973 H 0.19267 0.48323 0.05252 0.0
C974 C 0.82825 0.57523 0.54452 0.0
C975 C 0.83181 0.57174 0.56852 0.0
C976 C 0.82204 0.55837 0.52985 0.0
C977 C 0.82692 0.50006 0.52769 0.0
H978 H 0.78732 0.50543 0.47279 0.0
C979 C 0.81531 0.42966 0.46613 0.0
C980 C 0.82011 0.43449 0.44262 0.0
C981 C 0.81069 0.44588 0.48211 0.0
C982 C 0.79838 0.5037 0.4881 0.0
H983 H 0.83003 0.5482 0.59621 0.0
H984 H 0.81868 0.51912 0.57088 0.0
H985 H 0.7911 0.53534 0.49969 0.0
H986 H 0.82169 0.45995 0.41705 0.0
H987 H 0.81386 0.48813 0.44488 0.0
H988 H 0.8347 0.46873 0.51597 0.0
C989 C 0.82142 0.53463 0.56317 0.0
C990 C 0.80063 0.52085 0.50344 0.0
C991 C 0.82785 0.55135 0.57772 0.0
C992 C 0.81828 0.45568 0.43508 0.0
C993 C 0.81363 0.47187 0.45103 0.0
C994 C 0.82461 0.48297 0.51246 0.0
C995 C 0.81906 0.53777 0.53896 0.0
C996 C 0.81517 0.5193 0.52329 0.0
C997 C 0.81071 0.46723 0.47488 0.0
C998 C 0.81058 0.48465 0.49232 0.0
H999 H 0.83113 0.59078 0.53695 0.0
H1000 H 0.82052 0.56132 0.51126 0.0
H1001 H 0.83868 0.4984 0.5425 0.0
H1002 H 0.8164 0.41349 0.47248 0.0
H1003 H 0.80808 0.44179 0.50032 0.0
C1004 C 0.76826 0.44955 0.0748 0.0
C1005 C 0.77945 0.43239 0.06388 0.0
C1006 C 0.75961 0.4665 0.06156 0.0
C1007 C 0.75274 0.48586 -0.00066 0.0
H1008 H 0.76131 0.54052 0.02885 0.0
C1009 C 0.75571 0.56066 0.94253 0.0
C1010 C 0.77216 0.57616 0.94905 0.0
C1011 C 0.74901 0.54481 0.95832 0.0
C1012 C 0.7591 0.52543 0.02014 0.0
H1013 H 0.78969 0.419 0.03063 0.0
H1014 H 0.77621 0.44892 0.00761 0.0
H1015 H 0.76436 0.50869 0.05204 0.0
H1016 H 0.79395 0.5879 0.97717 0.0
H1017 H 0.78376 0.55965 0.0042 0.0
H1018 H 0.75013 0.50241 0.96703 0.0
C1019 C 0.77296 0.44921 0.02623 0.0
C1020 C 0.76031 0.50698 0.03368 0.0
C1021 C 0.78087 0.43196 0.03944 0.0
C1022 C 0.78098 0.57622 0.97189 0.0
C1023 C 0.77496 0.55996 0.98744 0.0
C1024 C 0.75232 0.50425 0.98569 0.0
C1025 C 0.76278 0.46707 0.03712 0.0
C1026 C 0.75782 0.48682 0.02338 0.0
C1027 C 0.75941 0.54358 0.98066 0.0
C1028 C 0.75616 0.52434 0.99575 0.0
H1029 H 0.7668 0.45012 0.09367 0.0
H1030 H 0.75117 0.47946 0.07066 0.0
H1031 H 0.74987 0.47081 0.99074 0.0
H1032 H 0.7486 0.56042 0.92496 0.0
H1033 H 0.73633 0.53311 0.95257 0.0
C1034 C 0.22649 0.45531 0.42081 0.0
C1035 C 0.22185 0.43486 0.42948 0.0
C1036 C 0.23197 0.47188 0.43598 0.0
C1037 C 0.24736 0.48515 0.49753 0.0
H1038 H 0.21223 0.53644 0.48369 0.0
C1039 C 0.22156 0.54681 0.56694 0.0
C1040 C 0.2206 0.56839 0.56071 0.0
C1041 C 0.22716 0.53142 0.55037 0.0
C1042 C 0.22257 0.52244 0.48762 0.0
H1043 H 0.22063 0.41544 0.46075 0.0
H1044 H 0.22966 0.44454 0.48743 0.0
H1045 H 0.21222 0.50749 0.45583 0.0
H1046 H 0.22596 0.59081 0.5324 0.0
H1047 H 0.23577 0.56382 0.50334 0.0
H1048 H 0.25692 0.49999 0.52984 0.0
C1049 C 0.2294 0.44772 0.46883 0.0
C1050 C 0.22258 0.50578 0.47162 0.0
C1051 C 0.22415 0.43104 0.45356 0.0
C1052 C 0.22645 0.57432 0.53774 0.0
C1053 C 0.23195 0.55886 0.52108 0.0
C1054 C 0.24729 0.50184 0.51362 0.0
C1055 C 0.23266 0.46848 0.46025 0.0
C1056 C 0.23467 0.48679 0.4765 0.0
C1057 C 0.23188 0.5372 0.52712 0.0
C1058 C 0.23455 0.52053 0.509 0.0
H1059 H 0.22521 0.4587 0.40228 0.0
H1060 H 0.23498 0.48752 0.4287 0.0
H1061 H 0.25713 0.47088 0.5017 0.0
H1062 H 0.2173 0.54168 0.58452 0.0
H1063 H 0.2267 0.5149 0.55557 0.0
C1064 C 0.67709 0.07599 0.96381 0.0
C1065 C 0.67589 0.07337 0.93947 0.0
C1066 C 0.6817 0.05861 0.97837 0.0
C1067 C 0.67491 1.00041 0.97725 0.0
H1068 H 0.70327 0.00361 0.03878 0.0
C1069 C 0.67502 0.92841 0.03908 0.0
C1070 C 0.66657 0.93261 0.06171 0.0
C1071 C 0.68133 0.94505 0.02413 0.0
C1072 C 0.69532 0.00249 0.02162 0.0
H1073 H 0.68079 0.05103 0.91115 0.0
H1074 H 0.68975 0.02097 0.93639 0.0
H1075 H 0.70608 0.03397 0.01226 0.0
H1076 H 0.6593 0.95758 0.08674 0.0
H1077 H 0.67025 0.98654 0.06063 0.0
H1078 H 0.66383 0.96913 0.98669 0.0
C1079 C 0.68621 0.03619 0.94438 0.0
C1080 C 0.69688 0.01989 0.00644 0.0
C1081 C 0.68126 0.05346 0.92988 0.0
C1082 C 0.66562 0.95377 0.06939 0.0
C1083 C 0.67207 0.97039 0.05448 0.0
C1084 C 0.67353 0.98302 0.99232 0.0
C1085 C 0.68551 0.03832 0.96884 0.0
C1086 C 0.68632 0.0192 0.98419 0.0
C1087 C 0.67949 0.96623 0.03152 0.0
C1088 C 0.68335 0.98397 0.01481 0.0
H1089 H 0.67296 0.09113 0.97171 0.0
H1090 H 0.68086 0.06088 0.9971 0.0
H1091 H 0.6661 0.99936 0.96052 0.0
H1092 H 0.67611 0.91231 0.03263 0.0
H1093 H 0.68725 0.94135 0.0066 0.0
C1094 C 0.32408 0.9253 0.44148 0.0
C1095 C 0.34005 0.9268 0.42278 0.0
C1096 C 0.31891 0.94313 0.4551 0.0
C1097 C 0.32446 0.9782 0.49063 0.0
H1098 H 0.32943 0.03526 0.46565 0.0
C1099 C 0.34905 0.04794 0.54894 0.0
C1100 C 0.3401 0.06832 0.54443 0.0
C1101 C 0.34452 0.03123 0.53373 0.0
C1102 C 0.32755 0.01949 0.47293 0.0
H1103 H 0.36284 0.94826 0.40347 0.0
H1104 H 0.35468 0.97889 0.42759 0.0
H1105 H 0.32823 0.00523 0.43908 0.0
H1106 H 0.31908 0.08708 0.52043 0.0
H1107 H 0.31069 0.05758 0.49389 0.0
H1108 H 0.32323 0.99243 0.52442 0.0
C1109 C 0.34548 0.96425 0.43146 0.0
C1110 C 0.32723 0.00218 0.45768 0.0
C1111 C 0.35036 0.94656 0.4177 0.0
C1112 C 0.32629 0.07156 0.52434 0.0
C1113 C 0.32156 0.05468 0.50912 0.0
C1114 C 0.32443 0.99548 0.50582 0.0
C1115 C 0.32986 0.96277 0.45051 0.0
C1116 C 0.32651 0.98127 0.46637 0.0
C1117 C 0.33067 0.03429 0.51365 0.0
C1118 C 0.32686 0.01631 0.49724 0.0
H1119 H 0.31567 0.91034 0.4457 0.0
H1120 H 0.30648 0.94143 0.46934 0.0
H1121 H 0.32398 0.96241 0.49809 0.0
H1122 H 0.35995 0.04486 0.56412 0.0
H1123 H 0.35242 0.01597 0.53754 0.0
C1124 C 0.26029 0.95364 0.05502 0.0
C1125 C 0.26931 0.93436 0.0467 0.0
C1126 C 0.25363 0.96963 0.03949 0.0
C1127 C 0.24548 0.98311 0.97629 0.0
H1128 H 0.27153 0.03701 0.99615 0.0
C1129 C 0.26642 0.07435 0.94136 0.0
C1130 C 0.27795 0.06922 0.92038 0.0
C1131 C 0.25782 0.05831 0.956 0.0
C1132 C 0.26362 0.02227 0.99044 0.0
H1133 H 0.27699 0.91606 0.01565 0.0
H1134 H 0.26617 0.9443 0.98837 0.0
H1135 H 0.27016 0.00767 0.0234 0.0
H1136 H 0.28765 0.04331 0.89738 0.0
H1137 H 0.27295 0.01547 0.92294 0.0
H1138 H 0.24012 0.99772 0.94282 0.0
C1139 C 0.26375 0.94697 0.0069 0.0
C1140 C 0.26281 0.00534 0.00613 0.0
C1141 C 0.27003 0.93078 0.02251 0.0
C1142 C 0.27906 0.04783 0.91352 0.0
C1143 C 0.27044 0.03183 0.92812 0.0
C1144 C 0.24639 1.0001 0.9605 0.0
C1145 C 0.25632 0.96689 0.01526 0.0
C1146 C 0.25418 0.9854 -0.00083 0.0
C1147 C 0.26052 0.03683 0.94992 0.0
C1148 C 0.25594 0.01974 0.96728 0.0
H1149 H 0.25921 0.95669 0.07362 0.0
H1150 H 0.24732 0.98451 0.04655 0.0
H1151 H 0.23842 0.96807 0.97044 0.0
H1152 H 0.26509 0.09067 0.94708 0.0
H1153 H 0.2499 0.06268 0.97253 0.0
C1154 C 0.71945 0.06982 0.54136 0.0
C1155 C 0.71716 0.06646 0.56552 0.0
C1156 C 0.72453 0.05283 0.52647 0.0
C1157 C 0.71802 0.99454 0.52525 0.0
H1158 H 0.75131 0.99955 0.46631 0.0
C1159 C 0.72267 0.92453 0.46116 0.0
C1160 C 0.71569 0.92975 0.43829 0.0
C1161 C 0.7282 0.94053 0.47717 0.0
C1162 C 0.74201 0.99792 0.48276 0.0
H1163 H 0.72032 0.04315 0.59327 0.0
H1164 H 0.72998 0.0138 0.56754 0.0
H1165 H 0.75157 0.02924 0.49371 0.0
H1166 H 0.71045 0.95576 0.41391 0.0
H1167 H 0.72003 0.98351 0.44176 0.0
H1168 H 0.7081 0.96344 0.51418 0.0
C1169 C 0.727 0.02929 0.55988 0.0
C1170 C 0.74208 0.01495 0.49841 0.0
C1171 C 0.72159 0.04615 0.57466 0.0
C1172 C 0.71559 0.95119 0.43144 0.0
C1173 C 0.72128 0.96712 0.44736 0.0
C1174 C 0.7181 0.97752 0.50971 0.0
C1175 C 0.72771 0.03222 0.53553 0.0
C1176 C 0.72973 0.01359 0.51969 0.0
C1177 C 0.72708 0.96202 0.47055 0.0
C1178 C 0.72971 0.97914 0.48812 0.0
H1179 H 0.71607 0.08531 0.53384 0.0
H1180 H 0.72478 0.05567 0.50781 0.0
H1181 H 0.7079 0.993 0.54122 0.0
H1182 H 0.72299 0.90817 0.46695 0.0
H1183 H 0.73283 0.93612 0.49489 0.0
loop_
_geom_bond_atom_site_label_1
_geom_bond_atom_site_label_2
_geom_bond_distance
_geom_bond_site_symmetry_2
_ccdc_geom_bond_type
Zn0 O3 2.031 . S
Zn0 O5 2.049 . S
Zn0 O10 2.067 . S
Zn1 O2 1.962 . S
Zn1 O4 1.986 . S
Zn1 O6 1.996 . S
Zn1 O9 1.943 . S
O2 Zn1 1.962 . S
O2 C7 1.254 . S
O3 Zn0 2.031 . S
O3 C7 1.269 . S
O4 Zn1 1.986 . S
O4 C11 1.262 . S
O5 Zn0 2.049 . S
O5 C13 1.260 . S
O6 Zn1 1.996 . S
O6 C13 1.257 . S
C7 O2 1.254 . S
C7 O3 1.269 . S
C8 O9 1.249 . S
C8 O10 1.270 . S
O9 Zn1 1.943 . S
O9 C8 1.249 . S
O10 Zn0 2.067 . S
O10 C8 1.270 . S
C11 O4 1.262 . S
C11 O12 1.232 . S
O12 C11 1.232 . S
C13 O5 1.260 . S
C13 O6 1.257 . S
Zn14 O17 2.031 . S
Zn14 O19 2.049 . S
Zn14 O24 2.067 . S
Zn15 O16 1.962 . S
Zn15 O18 1.986 . S
Zn15 O20 1.996 . S
Zn15 O23 1.943 . S
O16 Zn15 1.962 . S
O16 C21 1.254 . S
O17 Zn14 2.031 . S
O17 C21 1.269 . S
O18 Zn15 1.986 . S
O18 C25 1.262 . S
O19 Zn14 2.049 . S
O19 C27 1.260 . S
O20 Zn15 1.996 . S
O20 C27 1.257 . S
C21 O16 1.254 . S
C21 O17 1.269 . S
C22 O23 1.249 . S
C22 O24 1.270 . S
O23 Zn15 1.943 . S
O23 C22 1.249 . S
O24 Zn14 2.067 . S
O24 C22 1.270 . S
C25 O18 1.262 . S
C25 O26 1.232 . S
O26 C25 1.232 . S
C27 O19 1.260 . S
C27 O20 1.257 . S
Zn28 O31 2.031 . S
Zn28 O33 2.049 . S
Zn28 O38 2.067 . S
Zn29 O30 1.962 . S
Zn29 O32 1.986 . S
Zn29 O34 1.996 . S
Zn29 O37 1.943 . S
O30 Zn29 1.962 . S
O30 C35 1.254 . S
O31 Zn28 2.031 . S
O31 C35 1.269 . S
O32 Zn29 1.986 . S
O32 C39 1.262 . S
O33 Zn28 2.049 . S
O33 C41 1.260 . S
O34 Zn29 1.996 . S
O34 C41 1.257 . S
C35 O30 1.254 . S
C35 O31 1.269 . S
C36 O37 1.249 . S
C36 O38 1.270 . S
O37 Zn29 1.943 . S
O37 C36 1.249 . S
O38 Zn28 2.067 . S
O38 C36 1.270 . S
C39 O32 1.262 . S
C39 O40 1.232 . S
O40 C39 1.232 . S
C41 O33 1.260 . S
C41 O34 1.257 . S
Zn42 O45 2.031 . S
Zn42 O47 2.049 . S
Zn42 O52 2.067 . S
Zn43 O44 1.962 . S
Zn43 O46 1.986 . S
Zn43 O48 1.996 . S
Zn43 O51 1.943 . S
O44 Zn43 1.962 . S
O44 C49 1.254 . S
O45 Zn42 2.031 . S
O45 C49 1.269 . S
O46 Zn43 1.986 . S
O46 C53 1.262 . S
O47 Zn42 2.049 . S
O47 C55 1.260 . S
O48 Zn43 1.996 . S
O48 C55 1.257 . S
C49 O44 1.254 . S
C49 O45 1.269 . S
C50 O51 1.249 . S
C50 O52 1.270 . S
O51 Zn43 1.943 . S
O51 C50 1.249 . S
O52 Zn42 2.067 . S
O52 C50 1.270 . S
C53 O46 1.262 . S
C53 O54 1.232 . S
O54 C53 1.232 . S
C55 O47 1.260 . S
C55 O48 1.257 . S
Zn56 O59 2.031 . S
Zn56 O61 2.049 . S
Zn56 O66 2.067 . S
Zn57 O58 1.962 . S
Zn57 O60 1.986 . S
Zn57 O62 1.996 . S
Zn57 O65 1.943 . S
O58 Zn57 1.962 . S
O58 C63 1.254 . S
O59 Zn56 2.031 . S
O59 C63 1.269 . S
O60 Zn57 1.986 . S
O60 C67 1.262 . S
O61 Zn56 2.049 . S
O61 C69 1.260 . S
O62 Zn57 1.996 . S
O62 C69 1.257 . S
C63 O58 1.254 . S
C63 O59 1.269 . S
C64 O65 1.249 . S
C64 O66 1.270 . S
O65 Zn57 1.943 . S
O65 C64 1.249 . S
O66 Zn56 2.067 . S
O66 C64 1.270 . S
C67 O60 1.262 . S
C67 O68 1.232 . S
O68 C67 1.232 . S
C69 O61 1.260 . S
C69 O62 1.257 . S
Zn70 O73 2.031 . S
Zn70 O75 2.049 . S
Zn70 O80 2.067 . S
Zn71 O72 1.962 . S
Zn71 O74 1.986 . S
Zn71 O76 1.996 . S
Zn71 O79 1.943 . S
O72 Zn71 1.962 . S
O72 C77 1.254 . S
O73 Zn70 2.031 . S
O73 C77 1.269 . S
O74 Zn71 1.986 . S
O74 C81 1.262 . S
O75 Zn70 2.049 . S
O75 C83 1.260 . S
O76 Zn71 1.996 . S
O76 C83 1.257 . S
C77 O72 1.254 . S
C77 O73 1.269 . S
C78 O79 1.249 . S
C78 O80 1.270 . S
O79 Zn71 1.943 . S
O79 C78 1.249 . S
O80 Zn70 2.067 . S
O80 C78 1.270 . S
C81 O74 1.262 . S
C81 O82 1.232 . S
O82 C81 1.232 . S
C83 O75 1.260 . S
C83 O76 1.257 . S
Zn84 O87 2.031 . S
Zn84 O89 2.049 . S
Zn84 O94 2.067 . S
Zn85 O86 1.962 . S
Zn85 O88 1.986 . S
Zn85 O90 1.996 . S
Zn85 O93 1.943 . S
O86 Zn85 1.962 . S
O86 C91 1.254 . S
O87 Zn84 2.031 . S
O87 C91 1.269 . S
O88 Zn85 1.986 . S
O88 C95 1.262 . S
O89 Zn84 2.049 . S
O89 C97 1.260 . S
O90 Zn85 1.996 . S
O90 C97 1.257 . S
C91 O86 1.254 . S
C91 O87 1.269 . S
C92 O93 1.249 . S
C92 O94 1.270 . S
O93 Zn85 1.943 . S
O93 C92 1.249 . S
O94 Zn84 2.067 . S
O94 C92 1.270 . S
C95 O88 1.262 . S
C95 O96 1.232 . S
O96 C95 1.232 . S
C97 O89 1.260 . S
C97 O90 1.257 . S
Zn98 O101 2.031 . S
Zn98 O103 2.049 . S
Zn98 O108 2.067 . S
Zn99 O100 1.962 . S
Zn99 O102 1.986 . S
Zn99 O104 1.996 . S
Zn99 O107 1.943 . S
O100 Zn99 1.962 . S
O100 C105 1.254 . S
O101 Zn98 2.031 . S
O101 C105 1.269 . S
O102 Zn99 1.986 . S
O102 C109 1.262 . S
O103 Zn98 2.049 . S
O103 C111 1.260 . S
O104 Zn99 1.996 . S
O104 C111 1.257 . S
C105 O100 1.254 . S
C105 O101 1.269 . S
C106 O107 1.249 . S
C106 O108 1.270 . S
O107 Zn99 1.943 . S
O107 C106 1.249 . S
O108 Zn98 2.067 . S
O108 C106 1.270 . S
C109 O102 1.262 . S
C109 O110 1.232 . S
O110 C109 1.232 . S
C111 O103 1.260 . S
C111 O104 1.257 . S
Zn112 O115 2.031 . S
Zn112 O117 2.049 . S
Zn112 O122 2.067 . S
Zn113 O114 1.962 . S
Zn113 O116 1.986 . S
Zn113 O118 1.996 . S
Zn113 O121 1.943 . S
O114 Zn113 1.962 . S
O114 C119 1.254 . S
O115 Zn112 2.031 . S
O115 C119 1.269 . S
O116 Zn113 1.986 . S
O116 C123 1.262 . S
O117 Zn112 2.049 . S
O117 C125 1.260 . S
O118 Zn113 1.996 . S
O118 C125 1.257 . S
C119 O114 1.254 . S
C119 O115 1.269 . S
C120 O121 1.249 . S
C120 O122 1.270 . S
O121 Zn113 1.943 . S
O121 C120 1.249 . S
O122 Zn112 2.067 . S
O122 C120 1.270 . S
C123 O116 1.262 . S
C123 O124 1.232 . S
O124 C123 1.232 . S
C125 O117 1.260 . S
C125 O118 1.257 . S
Zn126 O129 2.031 . S
Zn126 O131 2.049 . S
Zn126 O136 2.067 . S
Zn127 O128 1.962 . S
Zn127 O130 1.986 . S
Zn127 O132 1.996 . S
Zn127 O135 1.943 . S
O128 Zn127 1.962 . S
O128 C133 1.254 . S
O129 Zn126 2.031 . S
O129 C133 1.269 . S
O130 Zn127 1.986 . S
O130 C137 1.262 . S
O131 Zn126 2.049 . S
O131 C139 1.260 . S
O132 Zn127 1.996 . S
O132 C139 1.257 . S
C133 O128 1.254 . S
C133 O129 1.269 . S
C134 O135 1.249 . S
C134 O136 1.270 . S
O135 Zn127 1.943 . S
O135 C134 1.249 . S
O136 Zn126 2.067 . S
O136 C134 1.270 . S
C137 O130 1.262 . S
C137 O138 1.232 . S
O138 C137 1.232 . S
C139 O131 1.260 . S
C139 O132 1.257 . S
Zn140 O143 2.031 . S
Zn140 O145 2.049 . S
Zn140 O150 2.067 . S
Zn141 O142 1.962 . S
Zn141 O144 1.986 . S
Zn141 O146 1.996 . S
Zn141 O149 1.943 . S
O142 Zn141 1.962 . S
O142 C147 1.254 . S
O143 Zn140 2.031 . S
O143 C147 1.269 . S
O144 Zn141 1.986 . S
O144 C151 1.262 . S
O145 Zn140 2.049 . S
O145 C153 1.260 . S
O146 Zn141 1.996 . S
O146 C153 1.257 . S
C147 O142 1.254 . S
C147 O143 1.269 . S
C148 O149 1.249 . S
C148 O150 1.270 . S
O149 Zn141 1.943 . S
O149 C148 1.249 . S
O150 Zn140 2.067 . S
O150 C148 1.270 . S
C151 O144 1.262 . S
C151 O152 1.232 . S
O152 C151 1.232 . S
C153 O145 1.260 . S
C153 O146 1.257 . S
Zn154 O157 2.031 . S
Zn154 O159 2.049 . S
Zn154 O164 2.067 . S
Zn155 O156 1.962 . S
Zn155 O158 1.986 . S
Zn155 O160 1.996 . S
Zn155 O163 1.943 . S
O156 Zn155 1.962 . S
O156 C161 1.254 . S
O157 Zn154 2.031 . S
O157 C161 1.269 . S
O158 Zn155 1.986 . S
O158 C165 1.262 . S
O159 Zn154 2.049 . S
O159 C167 1.260 . S
O160 Zn155 1.996 . S
O160 C167 1.257 . S
C161 O156 1.254 . S
C161 O157 1.269 . S
C162 O163 1.249 . S
C162 O164 1.270 . S
O163 Zn155 1.943 . S
O163 C162 1.249 . S
O164 Zn154 2.067 . S
O164 C162 1.270 . S
C165 O158 1.262 . S
C165 O166 1.232 . S
O166 C165 1.232 . S
C167 O159 1.260 . S
C167 O160 1.257 . S
Zn168 O171 2.031 . S
Zn168 O173 2.049 . S
Zn168 O178 2.067 . S
Zn169 O170 1.962 . S
Zn169 O172 1.986 . S
Zn169 O174 1.996 . S
Zn169 O177 1.943 . S
O170 Zn169 1.962 . S
O170 C175 1.254 . S
O171 Zn168 2.031 . S
O171 C175 1.269 . S
O172 Zn169 1.986 . S
O172 C179 1.262 . S
O173 Zn168 2.049 . S
O173 C181 1.260 . S
O174 Zn169 1.996 . S
O174 C181 1.257 . S
C175 O170 1.254 . S
C175 O171 1.269 . S
C176 O177 1.249 . S
C176 O178 1.270 . S
O177 Zn169 1.943 . S
O177 C176 1.249 . S
O178 Zn168 2.067 . S
O178 C176 1.270 . S
C179 O172 1.262 . S
C179 O180 1.232 . S
O180 C179 1.232 . S
C181 O173 1.260 . S
C181 O174 1.257 . S
Zn182 O185 2.031 . S
Zn182 O187 2.049 . S
Zn182 O192 2.067 . S
Zn183 O184 1.962 . S
Zn183 O186 1.986 . S
Zn183 O188 1.996 . S
Zn183 O191 1.943 . S
O184 Zn183 1.962 . S
O184 C189 1.254 . S
O185 Zn182 2.031 . S
O185 C189 1.269 . S
O186 Zn183 1.986 . S
O186 C193 1.262 . S
O187 Zn182 2.049 . S
O187 C195 1.260 . S
O188 Zn183 1.996 . S
O188 C195 1.257 . S
C189 O184 1.254 . S
C189 O185 1.269 . S
C190 O191 1.249 . S
C190 O192 1.270 . S
O191 Zn183 1.943 . S
O191 C190 1.249 . S
O192 Zn182 2.067 . S
O192 C190 1.270 . S
C193 O186 1.262 . S
C193 O194 1.232 . S
O194 C193 1.232 . S
C195 O187 1.260 . S
C195 O188 1.257 . S
Zn196 O199 2.031 . S
Zn196 O201 2.049 . S
Zn196 O206 2.067 . S
Zn197 O198 1.962 . S
Zn197 O200 1.986 . S
Zn197 O202 1.996 . S
Zn197 O205 1.943 . S
O198 Zn197 1.962 . S
O198 C203 1.254 . S
O199 Zn196 2.031 . S
O199 C203 1.269 . S
O200 Zn197 1.986 . S
O200 C207 1.262 . S
O201 Zn196 2.049 . S
O201 C209 1.260 . S
O202 Zn197 1.996 . S
O202 C209 1.257 . S
C203 O198 1.254 . S
C203 O199 1.269 . S
C204 O205 1.249 . S
C204 O206 1.270 . S
O205 Zn197 1.943 . S
O205 C204 1.249 . S
O206 Zn196 2.067 . S
O206 C204 1.270 . S
C207 O200 1.262 . S
C207 O208 1.232 . S
O208 C207 1.232 . S
C209 O201 1.260 . S
C209 O202 1.257 . S
Zn210 O213 2.031 . S
Zn210 O215 2.049 . S
Zn210 O220 2.067 . S
Zn211 O212 1.962 . S
Zn211 O214 1.986 . S
Zn211 O216 1.996 . S
Zn211 O219 1.943 . S
O212 Zn211 1.962 . S
O212 C217 1.254 . S
O213 Zn210 2.031 . S
O213 C217 1.269 . S
O214 Zn211 1.986 . S
O214 C221 1.262 . S
O215 Zn210 2.049 . S
O215 C223 1.260 . S
O216 Zn211 1.996 . S
O216 C223 1.257 . S
C217 O212 1.254 . S
C217 O213 1.269 . S
C218 O219 1.249 . S
C218 O220 1.270 . S
O219 Zn211 1.943 . S
O219 C218 1.249 . S
O220 Zn210 2.067 . S
O220 C218 1.270 . S
C221 O214 1.262 . S
C221 O222 1.232 . S
O222 C221 1.232 . S
C223 O215 1.260 . S
C223 O216 1.257 . S
C224 C225 1.349 . S
C224 C226 1.327 . S
C224 H249 0.950 . S
C225 C224 1.349 . S
C225 C241 1.349 . S
C226 C224 1.327 . S
C226 C245 1.429 . S
C226 H250 0.950 . S
C227 C244 1.590 . S
C227 C246 1.362 1_655 S
C227 H251 0.940 1_655 S
H228 C232 0.949 . S
C229 C230 1.349 . S
C229 C231 1.327 . S
C229 H252 0.950 . S
C230 C229 1.349 . S
C230 C242 1.349 . S
C231 C229 1.327 . S
C231 C247 1.429 . S
C231 H253 0.950 . S
C232 H228 0.949 . S
C232 C240 1.573 . S
C232 C248 1.368 . S
H233 C241 0.950 . S
H234 C239 0.950 . S
H235 C240 0.949 1_455 S
H236 C242 0.950 . S
H237 C243 0.950 . S
H238 C244 0.949 . S
C239 H234 0.950 . S
C239 C241 1.327 . S
C239 C245 1.429 . S
C240 C232 1.573 . S
C240 H235 0.949 1_655 S
C240 C246 1.369 1_655 S
C241 C225 1.349 . S
C241 H233 0.950 . S
C241 C239 1.327 . S
C242 C230 1.349 . S
C242 H236 0.950 . S
C242 C243 1.327 . S
C243 H237 0.950 . S
C243 C242 1.327 . S
C243 C247 1.429 . S
C244 C227 1.590 . S
C244 H238 0.949 . S
C244 C248 1.368 . S
C245 C226 1.429 . S
C245 C239 1.429 . S
C245 C246 1.523 . S
C246 C227 1.362 1_455 S
C246 C240 1.369 1_455 S
C246 C245 1.523 . S
C247 C231 1.429 . S
C247 C243 1.429 . S
C247 C248 1.523 . S
C248 C232 1.368 . S
C248 C244 1.368 . S
C248 C247 1.523 . S
H249 C224 0.950 . S
H250 C226 0.950 . S
H251 C227 0.940 1_455 S
H252 C229 0.950 . S
H253 C231 0.950 . S
C254 C255 1.349 . S
C254 C256 1.327 . S
C254 H279 0.950 . S
C255 C254 1.349 . S
C255 C271 1.349 . S
C256 C254 1.327 . S
C256 C275 1.429 . S
C256 H280 0.950 . S
C257 C274 1.578 . S
C257 C276 1.367 1_455 S
C257 H281 0.947 1_455 S
H258 C262 0.949 . S
C259 C260 1.349 . S
C259 C261 1.327 . S
C259 H282 0.950 . S
C260 C259 1.349 . S
C260 C272 1.349 . S
C261 C259 1.327 . S
C261 C277 1.429 . S
C261 H283 0.950 . S
C262 H258 0.949 . S
C262 C270 1.585 . S
C262 C278 1.368 . S
H263 C271 0.950 . S
H264 C269 0.950 . S
H265 C270 0.943 1_655 S
H266 C272 0.950 . S
H267 C273 0.950 . S
H268 C274 0.949 . S
C269 H264 0.950 . S
C269 C271 1.327 . S
C269 C275 1.429 . S
C270 C262 1.585 . S
C270 H265 0.943 1_455 S
C270 C276 1.364 1_455 S
C271 C255 1.349 . S
C271 H263 0.950 . S
C271 C269 1.327 . S
C272 C260 1.349 . S
C272 H266 0.950 . S
C272 C273 1.327 . S
C273 H267 0.950 . S
C273 C272 1.327 . S
C273 C277 1.429 . S
C274 C257 1.578 . S
C274 H268 0.949 . S
C274 C278 1.368 . S
C275 C256 1.429 . S
C275 C269 1.429 . S
C275 C276 1.523 . S
C276 C257 1.367 1_655 S
C276 C270 1.364 1_655 S
C276 C275 1.523 . S
C277 C261 1.429 . S
C277 C273 1.429 . S
C277 C278 1.523 . S
C278 C262 1.368 . S
C278 C274 1.368 . S
C278 C277 1.523 . S
H279 C254 0.950 . S
H280 C256 0.950 . S
H281 C257 0.947 1_655 S
H282 C259 0.950 . S
H283 C261 0.950 . S
C284 C285 1.349 . S
C284 C286 1.327 . S
C284 H309 0.950 . S
C285 C284 1.349 . S
C285 C301 1.349 . S
C286 C284 1.327 . S
C286 C305 1.429 . S
C286 H310 0.950 . S
C287 C304 1.591 . S
C287 C306 1.368 . S
C287 H311 0.949 . S
H288 C292 0.950 1_455 S
C289 C290 1.349 . S
C289 C291 1.327 . S
C289 H312 0.950 . S
C290 C289 1.349 . S
C290 C302 1.349 . S
C291 C289 1.327 . S
C291 C307 1.429 . S
C291 H313 0.950 . S
C292 H288 0.950 1_655 S
C292 C300 1.572 . S
C292 C308 1.369 1_655 S
H293 C301 0.950 . S
H294 C299 0.950 . S
H295 C300 0.949 . S
H296 C302 0.950 . S
H297 C303 0.950 . S
H298 C304 0.940 1_455 S
C299 H294 0.950 . S
C299 C301 1.327 . S
C299 C305 1.429 . S
C300 C292 1.572 . S
C300 H295 0.949 . S
C300 C306 1.368 . S
C301 C285 1.349 . S
C301 H293 0.950 . S
C301 C299 1.327 . S
C302 C290 1.349 . S
C302 H296 0.950 . S
C302 C303 1.327 . S
C303 H297 0.950 . S
C303 C302 1.327 . S
C303 C307 1.429 . S
C304 C287 1.591 . S
C304 H298 0.940 1_655 S
C304 C308 1.361 1_655 S
C305 C286 1.429 . S
C305 C299 1.429 . S
C305 C306 1.523 . S
C306 C287 1.368 . S
C306 C300 1.368 . S
C306 C305 1.523 . S
C307 C291 1.429 . S
C307 C303 1.429 . S
C307 C308 1.523 . S
C308 C292 1.369 1_455 S
C308 C304 1.361 1_455 S
C308 C307 1.523 . S
H309 C284 0.950 . S
H310 C286 0.950 . S
H311 C287 0.949 . S
H312 C289 0.950 . S
H313 C291 0.950 . S
C314 C315 1.349 . S
C314 C316 1.327 . S
C314 H339 0.950 . S
C315 C314 1.349 . S
C315 C331 1.349 . S
C316 C314 1.327 . S
C316 C335 1.429 . S
C316 H340 0.950 . S
C317 C334 1.592 . S
C317 C336 1.368 . S
C317 H341 0.949 . S
H318 C322 0.950 1_655 S
C319 C320 1.349 . S
C319 C321 1.327 . S
C319 H342 0.950 . S
C320 C319 1.349 . S
C320 C332 1.349 . S
C321 C319 1.327 . S
C321 C337 1.429 . S
C321 H343 0.950 . S
C322 H318 0.950 1_455 S
C322 C330 1.571 . S
C322 C338 1.369 1_455 S
H323 C331 0.950 . S
H324 C329 0.950 . S
H325 C330 0.949 . S
H326 C332 0.950 . S
H327 C333 0.950 . S
H328 C334 0.939 1_655 S
C329 H324 0.950 . S
C329 C331 1.327 . S
C329 C335 1.429 . S
C330 C322 1.571 . S
C330 H325 0.949 . S
C330 C336 1.368 . S
C331 C315 1.349 . S
C331 H323 0.950 . S
C331 C329 1.327 . S
C332 C320 1.349 . S
C332 H326 0.950 . S
C332 C333 1.327 . S
C333 H327 0.950 . S
C333 C332 1.327 . S
C333 C337 1.429 . S
C334 C317 1.592 . S
C334 H328 0.939 1_455 S
C334 C338 1.361 1_455 S
C335 C316 1.429 . S
C335 C329 1.429 . S
C335 C336 1.523 . S
C336 C317 1.368 . S
C336 C330 1.368 . S
C336 C335 1.523 . S
C337 C321 1.429 . S
C337 C333 1.429 . S
C337 C338 1.523 . S
C338 C322 1.369 1_655 S
C338 C334 1.361 1_655 S
C338 C337 1.523 . S
H339 C314 0.950 . S
H340 C316 0.950 . S
H341 C317 0.949 . S
H342 C319 0.950 . S
H343 C321 0.950 . S
C344 C345 1.349 . S
C344 C346 1.327 . S
C344 H369 0.950 . S
C345 C344 1.349 . S
C345 C361 1.349 . S
C346 C344 1.327 . S
C346 C365 1.429 . S
C346 H370 0.950 . S
C347 C364 1.574 . S
C347 C366 1.368 . S
C347 H371 0.949 . S
H348 C352 0.949 . S
C349 C350 1.349 . S
C349 C351 1.327 . S
C349 H372 0.950 . S
C350 C349 1.349 . S
C350 C362 1.349 . S
C351 C349 1.327 . S
C351 C367 1.429 . S
C351 H373 0.950 . S
C352 H348 0.949 . S
C352 C360 1.574 . S
C352 C368 1.368 . S
H353 C361 0.950 . S
H354 C359 0.950 . S
H355 C360 0.949 . S
H356 C362 0.950 . S
H357 C363 0.950 . S
H358 C364 0.949 . S
C359 H354 0.950 . S
C359 C361 1.327 . S
C359 C365 1.429 . S
C360 C352 1.574 . S
C360 H355 0.949 . S
C360 C366 1.368 . S
C361 C345 1.349 . S
C361 H353 0.950 . S
C361 C359 1.327 . S
C362 C350 1.349 . S
C362 H356 0.950 . S
C362 C363 1.327 . S
C363 H357 0.950 . S
C363 C362 1.327 . S
C363 C367 1.429 . S
C364 C347 1.574 . S
C364 H358 0.949 . S
C364 C368 1.368 . S
C365 C346 1.429 . S
C365 C359 1.429 . S
C365 C366 1.523 . S
C366 C347 1.368 . S
C366 C360 1.368 . S
C366 C365 1.523 . S
C367 C351 1.429 . S
C367 C363 1.429 . S
C367 C368 1.523 . S
C368 C352 1.368 . S
C368 C364 1.368 . S
C368 C367 1.523 . S
H369 C344 0.950 . S
H370 C346 0.950 . S
H371 C347 0.949 . S
H372 C349 0.950 . S
H373 C351 0.950 . S
C374 C375 1.349 . S
C374 C376 1.327 . S
C374 H399 0.950 . S
C375 C374 1.349 . S
C375 C391 1.349 . S
C376 C374 1.327 . S
C376 C395 1.429 . S
C376 H400 0.950 . S
C377 C394 1.574 . S
C377 C396 1.368 . S
C377 H401 0.949 . S
H378 C382 0.949 . S
C379 C380 1.349 . S
C379 C381 1.327 . S
C379 H402 0.950 . S
C380 C379 1.349 . S
C380 C392 1.349 . S
C381 C379 1.327 . S
C381 C397 1.429 . S
C381 H403 0.950 . S
C382 H378 0.949 . S
C382 C390 1.574 . S
C382 C398 1.368 . S
H383 C391 0.950 . S
H384 C389 0.950 . S
H385 C390 0.949 . S
H386 C392 0.950 . S
H387 C393 0.950 . S
H388 C394 0.949 . S
C389 H384 0.950 . S
C389 C391 1.327 . S
C389 C395 1.429 . S
C390 C382 1.574 . S
C390 H385 0.949 . S
C390 C396 1.368 . S
C391 C375 1.349 . S
C391 H383 0.950 . S
C391 C389 1.327 . S
C392 C380 1.349 . S
C392 H386 0.950 . S
C392 C393 1.327 . S
C393 H387 0.950 . S
C393 C392 1.327 . S
C393 C397 1.429 . S
C394 C377 1.574 . S
C394 H388 0.949 . S
C394 C398 1.368 . S
C395 C376 1.429 . S
C395 C389 1.429 . S
C395 C396 1.523 . S
C396 C377 1.368 . S
C396 C390 1.368 . S
C396 C395 1.523 . S
C397 C381 1.429 . S
C397 C393 1.429 . S
C397 C398 1.523 . S
C398 C382 1.368 . S
C398 C394 1.368 . S
C398 C397 1.523 . S
H399 C374 0.950 . S
H400 C376 0.950 . S
H401 C377 0.949 . S
H402 C379 0.950 . S
H403 C381 0.950 . S
C404 C405 1.349 . S
C404 C406 1.327 . S
C404 H429 0.950 . S
C405 C404 1.349 . S
C405 C421 1.349 . S
C406 C404 1.327 . S
C406 C425 1.429 . S
C406 H430 0.950 . S
C407 C424 1.574 . S
C407 C426 1.368 . S
C407 H431 0.949 . S
H408 C412 0.949 . S
C409 C410 1.349 . S
C409 C411 1.327 . S
C409 H432 0.950 . S
C410 C409 1.349 . S
C410 C422 1.349 . S
C411 C409 1.327 . S
C411 C427 1.429 . S
C411 H433 0.950 . S
C412 H408 0.949 . S
C412 C420 1.574 . S
C412 C428 1.368 . S
H413 C421 0.950 . S
H414 C419 0.950 . S
H415 C420 0.949 . S
H416 C422 0.950 . S
H417 C423 0.950 . S
H418 C424 0.949 . S
C419 H414 0.950 . S
C419 C421 1.327 . S
C419 C425 1.429 . S
C420 C412 1.574 . S
C420 H415 0.949 . S
C420 C426 1.368 . S
C421 C405 1.349 . S
C421 H413 0.950 . S
C421 C419 1.327 . S
C422 C410 1.349 . S
C422 H416 0.950 . S
C422 C423 1.327 . S
C423 H417 0.950 . S
C423 C422 1.327 . S
C423 C427 1.429 . S
C424 C407 1.574 . S
C424 H418 0.949 . S
C424 C428 1.368 . S
C425 C406 1.429 . S
C425 C419 1.429 . S
C425 C426 1.523 . S
C426 C407 1.368 . S
C426 C420 1.368 . S
C426 C425 1.523 . S
C427 C411 1.429 . S
C427 C423 1.429 . S
C427 C428 1.523 . S
C428 C412 1.368 . S
C428 C424 1.368 . S
C428 C427 1.523 . S
H429 C404 0.950 . S
H430 C406 0.950 . S
H431 C407 0.949 . S
H432 C409 0.950 . S
H433 C411 0.950 . S
C434 C435 1.349 . S
C434 C436 1.327 . S
C434 H459 0.950 . S
C435 C434 1.349 . S
C435 C451 1.349 . S
C436 C434 1.327 . S
C436 C455 1.429 . S
C436 H460 0.950 . S
C437 C454 1.574 . S
C437 C456 1.368 . S
C437 H461 0.949 . S
H438 C442 0.949 . S
C439 C440 1.349 . S
C439 C441 1.327 . S
C439 H462 0.950 . S
C440 C439 1.349 . S
C440 C452 1.349 . S
C441 C439 1.327 . S
C441 C457 1.429 . S
C441 H463 0.950 . S
C442 H438 0.949 . S
C442 C450 1.574 . S
C442 C458 1.368 . S
H443 C451 0.950 . S
H444 C449 0.950 . S
H445 C450 0.949 . S
H446 C452 0.950 . S
H447 C453 0.950 . S
H448 C454 0.949 . S
C449 H444 0.950 . S
C449 C451 1.327 . S
C449 C455 1.429 . S
C450 C442 1.574 . S
C450 H445 0.949 . S
C450 C456 1.368 . S
C451 C435 1.349 . S
C451 H443 0.950 . S
C451 C449 1.327 . S
C452 C440 1.349 . S
C452 H446 0.950 . S
C452 C453 1.327 . S
C453 H447 0.950 . S
C453 C452 1.327 . S
C453 C457 1.429 . S
C454 C437 1.574 . S
C454 H448 0.949 . S
C454 C458 1.368 . S
C455 C436 1.429 . S
C455 C449 1.429 . S
C455 C456 1.523 . S
C456 C437 1.368 . S
C456 C450 1.368 . S
C456 C455 1.523 . S
C457 C441 1.429 . S
C457 C453 1.429 . S
C457 C458 1.523 . S
C458 C442 1.368 . S
C458 C454 1.368 . S
C458 C457 1.523 . S
H459 C434 0.950 . S
H460 C436 0.950 . S
H461 C437 0.949 . S
H462 C439 0.950 . S
H463 C441 0.950 . S
C464 C465 1.349 . S
C464 C466 1.327 . S
C464 H489 0.950 . S
C465 C464 1.349 . S
C465 C481 1.349 . S
C466 C464 1.327 . S
C466 C485 1.429 . S
C466 H490 0.950 . S
C467 C484 1.574 . S
C467 C486 1.368 . S
C467 H491 0.949 . S
H468 C472 0.949 . S
C469 C470 1.349 . S
C469 C471 1.327 . S
C469 H492 0.950 . S
C470 C469 1.349 . S
C470 C482 1.349 . S
C471 C469 1.327 . S
C471 C487 1.429 . S
C471 H493 0.950 . S
C472 H468 0.949 . S
C472 C480 1.574 . S
C472 C488 1.368 . S
H473 C481 0.950 . S
H474 C479 0.950 . S
H475 C480 0.949 . S
H476 C482 0.950 . S
H477 C483 0.950 . S
H478 C484 0.949 . S
C479 H474 0.950 . S
C479 C481 1.327 . S
C479 C485 1.429 . S
C480 C472 1.574 . S
C480 H475 0.949 . S
C480 C486 1.368 . S
C481 C465 1.349 . S
C481 H473 0.950 . S
C481 C479 1.327 . S
C482 C470 1.349 . S
C482 H476 0.950 . S
C482 C483 1.327 . S
C483 H477 0.950 . S
C483 C482 1.327 . S
C483 C487 1.429 . S
C484 C467 1.574 . S
C484 H478 0.949 . S
C484 C488 1.368 . S
C485 C466 1.429 . S
C485 C479 1.429 . S
C485 C486 1.523 . S
C486 C467 1.368 . S
C486 C480 1.368 . S
C486 C485 1.523 . S
C487 C471 1.429 . S
C487 C483 1.429 . S
C487 C488 1.523 . S
C488 C472 1.368 . S
C488 C484 1.368 . S
C488 C487 1.523 . S
H489 C464 0.950 . S
H490 C466 0.950 . S
H491 C467 0.949 . S
H492 C469 0.950 . S
H493 C471 0.950 . S
C494 C495 1.349 . S
C494 C496 1.327 . S
C494 H519 0.950 . S
C495 C494 1.349 . S
C495 C511 1.349 . S
C496 C494 1.327 . S
C496 C515 1.429 . S
C496 H520 0.950 . S
C497 C514 1.574 . S
C497 C516 1.368 . S
C497 H521 0.949 . S
H498 C502 0.949 . S
C499 C500 1.349 . S
C499 C501 1.327 . S
C499 H522 0.950 . S
C500 C499 1.349 . S
C500 C512 1.349 . S
C501 C499 1.327 . S
C501 C517 1.429 . S
C501 H523 0.950 . S
C502 H498 0.949 . S
C502 C510 1.574 . S
C502 C518 1.368 . S
H503 C511 0.950 . S
H504 C509 0.950 . S
H505 C510 0.949 . S
H506 C512 0.950 . S
H507 C513 0.950 . S
H508 C514 0.949 . S
C509 H504 0.950 . S
C509 C511 1.327 . S
C509 C515 1.429 . S
C510 C502 1.574 . S
C510 H505 0.949 . S
C510 C516 1.368 . S
C511 C495 1.349 . S
C511 H503 0.950 . S
C511 C509 1.327 . S
C512 C500 1.349 . S
C512 H506 0.950 . S
C512 C513 1.327 . S
C513 H507 0.950 . S
C513 C512 1.327 . S
C513 C517 1.429 . S
C514 C497 1.574 . S
C514 H508 0.949 . S
C514 C518 1.368 . S
C515 C496 1.429 . S
C515 C509 1.429 . S
C515 C516 1.523 . S
C516 C497 1.368 . S
C516 C510 1.368 . S
C516 C515 1.523 . S
C517 C501 1.429 . S
C517 C513 1.429 . S
C517 C518 1.523 . S
C518 C502 1.368 . S
C518 C514 1.368 . S
C518 C517 1.523 . S
H519 C494 0.950 . S
H520 C496 0.950 . S
H521 C497 0.949 . S
H522 C499 0.950 . S
H523 C501 0.950 . S
C524 C525 1.349 . S
C524 C526 1.327 . S
C524 H549 0.950 . S
C525 C524 1.349 . S
C525 C541 1.349 . S
C526 C524 1.327 . S
C526 C545 1.429 . S
C526 H550 0.950 . S
C527 C544 1.574 . S
C527 C546 1.368 . S
C527 H551 0.949 . S
H528 C532 0.949 . S
C529 C530 1.349 . S
C529 C531 1.327 . S
C529 H552 0.950 . S
C530 C529 1.349 . S
C530 C542 1.349 . S
C531 C529 1.327 . S
C531 C547 1.429 . S
C531 H553 0.950 . S
C532 H528 0.949 . S
C532 C540 1.574 . S
C532 C548 1.368 . S
H533 C541 0.950 . S
H534 C539 0.950 . S
H535 C540 0.949 . S
H536 C542 0.950 . S
H537 C543 0.950 . S
H538 C544 0.949 . S
C539 H534 0.950 . S
C539 C541 1.327 . S
C539 C545 1.429 . S
C540 C532 1.574 . S
C540 H535 0.949 . S
C540 C546 1.368 . S
C541 C525 1.349 . S
C541 H533 0.950 . S
C541 C539 1.327 . S
C542 C530 1.349 . S
C542 H536 0.950 . S
C542 C543 1.327 . S
C543 H537 0.950 . S
C543 C542 1.327 . S
C543 C547 1.429 . S
C544 C527 1.574 . S
C544 H538 0.949 . S
C544 C548 1.368 . S
C545 C526 1.429 . S
C545 C539 1.429 . S
C545 C546 1.523 . S
C546 C527 1.368 . S
C546 C540 1.368 . S
C546 C545 1.523 . S
C547 C531 1.429 . S
C547 C543 1.429 . S
C547 C548 1.523 . S
C548 C532 1.368 . S
C548 C544 1.368 . S
C548 C547 1.523 . S
H549 C524 0.950 . S
H550 C526 0.950 . S
H551 C527 0.949 . S
H552 C529 0.950 . S
H553 C531 0.950 . S
C554 C555 1.349 . S
C554 C556 1.327 . S
C554 H579 0.950 . S
C555 C554 1.349 . S
C555 C571 1.349 . S
C556 C554 1.327 . S
C556 C575 1.429 . S
C556 H580 0.950 . S
C557 C574 1.574 . S
C557 C576 1.368 . S
C557 H581 0.949 . S
H558 C562 0.949 . S
C559 C560 1.349 . S
C559 C561 1.327 . S
C559 H582 0.950 . S
C560 C559 1.349 . S
C560 C572 1.349 . S
C561 C559 1.327 . S
C561 C577 1.429 . S
C561 H583 0.950 . S
C562 H558 0.949 . S
C562 C570 1.574 . S
C562 C578 1.368 . S
H563 C571 0.950 . S
H564 C569 0.950 . S
H565 C570 0.949 . S
H566 C572 0.950 . S
H567 C573 0.950 . S
H568 C574 0.949 . S
C569 H564 0.950 . S
C569 C571 1.327 . S
C569 C575 1.429 . S
C570 C562 1.574 . S
C570 H565 0.949 . S
C570 C576 1.368 . S
C571 C555 1.349 . S
C571 H563 0.950 . S
C571 C569 1.327 . S
C572 C560 1.349 . S
C572 H566 0.950 . S
C572 C573 1.327 . S
C573 H567 0.950 . S
C573 C572 1.327 . S
C573 C577 1.429 . S
C574 C557 1.574 . S
C574 H568 0.949 . S
C574 C578 1.368 . S
C575 C556 1.429 . S
C575 C569 1.429 . S
C575 C576 1.523 . S
C576 C557 1.368 . S
C576 C570 1.368 . S
C576 C575 1.523 . S
C577 C561 1.429 . S
C577 C573 1.429 . S
C577 C578 1.523 . S
C578 C562 1.368 . S
C578 C574 1.368 . S
C578 C577 1.523 . S
H579 C554 0.950 . S
H580 C556 0.950 . S
H581 C557 0.949 . S
H582 C559 0.950 . S
H583 C561 0.950 . S
C584 C585 1.349 . S
C584 C586 1.327 . S
C584 H609 0.950 . S
C585 C584 1.349 . S
C585 C601 1.349 . S
C586 C584 1.327 . S
C586 C605 1.429 . S
C586 H610 0.950 . S
C587 C604 1.574 . S
C587 C606 1.368 . S
C587 H611 0.949 . S
H588 C592 0.949 . S
C589 C590 1.349 . S
C589 C591 1.327 . S
C589 H612 0.950 . S
C590 C589 1.349 . S
C590 C602 1.349 . S
C591 C589 1.327 . S
C591 C607 1.429 . S
C591 H613 0.950 . S
C592 H588 0.949 . S
C592 C600 1.574 . S
C592 C608 1.368 . S
H593 C601 0.950 . S
H594 C599 0.950 . S
H595 C600 0.949 . S
H596 C602 0.950 . S
H597 C603 0.950 . S
H598 C604 0.949 . S
C599 H594 0.950 . S
C599 C601 1.327 . S
C599 C605 1.429 . S
C600 C592 1.574 . S
C600 H595 0.949 . S
C600 C606 1.368 . S
C601 C585 1.349 . S
C601 H593 0.950 . S
C601 C599 1.327 . S
C602 C590 1.349 . S
C602 H596 0.950 . S
C602 C603 1.327 . S
C603 H597 0.950 . S
C603 C602 1.327 . S
C603 C607 1.429 . S
C604 C587 1.574 . S
C604 H598 0.949 . S
C604 C608 1.368 . S
C605 C586 1.429 . S
C605 C599 1.429 . S
C605 C606 1.523 . S
C606 C587 1.368 . S
C606 C600 1.368 . S
C606 C605 1.523 . S
C607 C591 1.429 . S
C607 C603 1.429 . S
C607 C608 1.523 . S
C608 C592 1.368 . S
C608 C604 1.368 . S
C608 C607 1.523 . S
H609 C584 0.950 . S
H610 C586 0.950 . S
H611 C587 0.949 . S
H612 C589 0.950 . S
H613 C591 0.950 . S
C614 C615 1.349 . S
C614 C616 1.327 . S
C614 H639 0.950 . S
C615 C614 1.349 . S
C615 C631 1.349 . S
C616 C614 1.327 . S
C616 C635 1.429 . S
C616 H640 0.950 . S
C617 C634 1.574 . S
C617 C636 1.368 . S
C617 H641 0.949 . S
H618 C622 0.949 . S
C619 C620 1.349 . S
C619 C621 1.327 . S
C619 H642 0.950 . S
C620 C619 1.349 . S
C620 C632 1.349 . S
C621 C619 1.327 . S
C621 C637 1.429 . S
C621 H643 0.950 . S
C622 H618 0.949 . S
C622 C630 1.574 . S
C622 C638 1.368 . S
H623 C631 0.950 . S
H624 C629 0.950 . S
H625 C630 0.949 . S
H626 C632 0.950 . S
H627 C633 0.950 . S
H628 C634 0.949 . S
C629 H624 0.950 . S
C629 C631 1.327 . S
C629 C635 1.429 . S
C630 C622 1.574 . S
C630 H625 0.949 . S
C630 C636 1.368 . S
C631 C615 1.349 . S
C631 H623 0.950 . S
C631 C629 1.327 . S
C632 C620 1.349 . S
C632 H626 0.950 . S
C632 C633 1.327 . S
C633 H627 0.950 . S
C633 C632 1.327 . S
C633 C637 1.429 . S
C634 C617 1.574 . S
C634 H628 0.949 . S
C634 C638 1.368 . S
C635 C616 1.429 . S
C635 C629 1.429 . S
C635 C636 1.523 . S
C636 C617 1.368 . S
C636 C630 1.368 . S
C636 C635 1.523 . S
C637 C621 1.429 . S
C637 C633 1.429 . S
C637 C638 1.523 . S
C638 C622 1.368 . S
C638 C634 1.368 . S
C638 C637 1.523 . S
H639 C614 0.950 . S
H640 C616 0.950 . S
H641 C617 0.949 . S
H642 C619 0.950 . S
H643 C621 0.950 . S
C644 C645 1.349 . S
C644 C646 1.327 . S
C644 H669 0.950 . S
C645 C644 1.349 . S
C645 C661 1.349 . S
C646 C644 1.327 . S
C646 C665 1.429 . S
C646 H670 0.950 . S
C647 C664 1.574 . S
C647 C666 1.368 . S
C647 H671 0.949 . S
H648 C652 0.949 . S
C649 C650 1.349 . S
C649 C651 1.327 . S
C649 H672 0.950 . S
C650 C649 1.349 . S
C650 C662 1.349 . S
C651 C649 1.327 . S
C651 C667 1.429 . S
C651 H673 0.950 . S
C652 H648 0.949 . S
C652 C660 1.574 . S
C652 C668 1.368 . S
H653 C661 0.950 . S
H654 C659 0.950 . S
H655 C660 0.949 . S
H656 C662 0.950 . S
H657 C663 0.950 . S
H658 C664 0.949 . S
C659 H654 0.950 . S
C659 C661 1.327 . S
C659 C665 1.429 . S
C660 C652 1.574 . S
C660 H655 0.949 . S
C660 C666 1.368 . S
C661 C645 1.349 . S
C661 H653 0.950 . S
C661 C659 1.327 . S
C662 C650 1.349 . S
C662 H656 0.950 . S
C662 C663 1.327 . S
C663 H657 0.950 . S
C663 C662 1.327 . S
C663 C667 1.429 . S
C664 C647 1.574 . S
C664 H658 0.949 . S
C664 C668 1.368 . S
C665 C646 1.429 . S
C665 C659 1.429 . S
C665 C666 1.523 . S
C666 C647 1.368 . S
C666 C660 1.368 . S
C666 C665 1.523 . S
C667 C651 1.429 . S
C667 C663 1.429 . S
C667 C668 1.523 . S
C668 C652 1.368 . S
C668 C664 1.368 . S
C668 C667 1.523 . S
H669 C644 0.950 . S
H670 C646 0.950 . S
H671 C647 0.949 . S
H672 C649 0.950 . S
H673 C651 0.950 . S
C674 C675 1.349 . S
C674 C676 1.327 . S
C674 H699 0.950 . S
C675 C674 1.349 . S
C675 C691 1.349 . S
C676 C674 1.327 . S
C676 C695 1.429 . S
C676 H700 0.950 . S
C677 C694 1.574 . S
C677 C696 1.368 . S
C677 H701 0.949 . S
H678 C682 0.949 . S
C679 C680 1.349 . S
C679 C681 1.327 . S
C679 H702 0.950 . S
C680 C679 1.349 . S
C680 C692 1.349 . S
C681 C679 1.327 . S
C681 C697 1.429 . S
C681 H703 0.950 . S
C682 H678 0.949 . S
C682 C690 1.574 . S
C682 C698 1.368 . S
H683 C691 0.950 . S
H684 C689 0.950 . S
H685 C690 0.949 . S
H686 C692 0.950 . S
H687 C693 0.950 . S
H688 C694 0.949 . S
C689 H684 0.950 . S
C689 C691 1.327 . S
C689 C695 1.429 . S
C690 C682 1.574 . S
C690 H685 0.949 . S
C690 C696 1.368 . S
C691 C675 1.349 . S
C691 H683 0.950 . S
C691 C689 1.327 . S
C692 C680 1.349 . S
C692 H686 0.950 . S
C692 C693 1.327 . S
C693 H687 0.950 . S
C693 C692 1.327 . S
C693 C697 1.429 . S
C694 C677 1.574 . S
C694 H688 0.949 . S
C694 C698 1.368 . S
C695 C676 1.429 . S
C695 C689 1.429 . S
C695 C696 1.523 . S
C696 C677 1.368 . S
C696 C690 1.368 . S
C696 C695 1.523 . S
C697 C681 1.429 . S
C697 C693 1.429 . S
C697 C698 1.523 . S
C698 C682 1.368 . S
C698 C694 1.368 . S
C698 C697 1.523 . S
H699 C674 0.950 . S
H700 C676 0.950 . S
H701 C677 0.949 . S
H702 C679 0.950 . S
H703 C681 0.950 . S
C704 C705 1.349 . S
C704 C706 1.327 . S
C704 H729 0.950 . S
C705 C704 1.349 . S
C705 C721 1.349 . S
C706 C704 1.327 . S
C706 C725 1.429 . S
C706 H730 0.950 . S
C707 C724 1.574 . S
C707 C726 1.368 1_554 S
C707 H731 0.949 . S
H708 C712 0.949 . S
C709 C710 1.349 . S
C709 C711 1.327 . S
C709 H732 0.950 . S
C710 C709 1.349 . S
C710 C722 1.349 . S
C711 C709 1.327 . S
C711 C727 1.429 . S
C711 H733 0.950 . S
C712 H708 0.949 . S
C712 C720 1.574 . S
C712 C728 1.368 1_556 S
H713 C721 0.950 . S
H714 C719 0.950 . S
H715 C720 0.949 . S
H716 C722 0.950 . S
H717 C723 0.977 . S
H718 C724 0.949 . S
C719 H714 0.950 . S
C719 C721 1.327 . S
C719 C725 1.429 . S
C720 C712 1.574 . S
C720 H715 0.949 . S
C720 C726 1.368 . S
C721 C705 1.349 . S
C721 H713 0.950 . S
C721 C719 1.327 . S
C722 C710 1.349 . S
C722 H716 0.950 . S
C722 C723 1.327 . S
C723 H717 0.977 . S
C723 C722 1.327 . S
C723 C727 1.429 . S
C724 C707 1.574 . S
C724 H718 0.949 . S
C724 C728 1.368 . S
C725 C706 1.429 . S
C725 C719 1.429 . S
C725 C726 1.523 . S
C726 C707 1.368 1_556 S
C726 C720 1.368 . S
C726 C725 1.523 . S
C727 C711 1.429 . S
C727 C723 1.429 . S
C727 C728 1.523 . S
C728 C712 1.368 1_554 S
C728 C724 1.368 . S
C728 C727 1.523 . S
H729 C704 0.950 . S
H730 C706 0.950 . S
H731 C707 0.949 . S
H732 C709 0.950 . S
H733 C711 0.950 . S
C734 C735 1.349 . S
C734 C736 1.327 . S
C734 H759 0.950 . S
C735 C734 1.349 . S
C735 C751 1.349 . S
C736 C734 1.327 . S
C736 C755 1.429 . S
C736 H760 0.950 . S
C737 C754 1.574 . S
C737 C756 1.368 . S
C737 H761 0.949 . S
H738 C742 0.949 . S
C739 C740 1.349 . S
C739 C741 1.327 . S
C739 H762 0.950 . S
C740 C739 1.349 . S
C740 C752 1.349 . S
C741 C739 1.327 . S
C741 C757 1.429 . S
C741 H763 0.950 . S
C742 H738 0.949 . S
C742 C750 1.574 . S
C742 C758 1.368 . S
H743 C751 0.950 . S
H744 C749 0.950 . S
H745 C750 0.949 . S
H746 C752 0.950 . S
H747 C753 0.950 . S
H748 C754 0.949 . S
C749 H744 0.950 . S
C749 C751 1.327 . S
C749 C755 1.429 . S
C750 C742 1.574 . S
C750 H745 0.949 . S
C750 C756 1.368 . S
C751 C735 1.349 . S
C751 H743 0.950 . S
C751 C749 1.327 . S
C752 C740 1.349 . S
C752 H746 0.950 . S
C752 C753 1.327 . S
C753 H747 0.950 . S
C753 C752 1.327 . S
C753 C757 1.429 . S
C754 C737 1.574 . S
C754 H748 0.949 . S
C754 C758 1.368 . S
C755 C736 1.429 . S
C755 C749 1.429 . S
C755 C756 1.523 . S
C756 C737 1.368 . S
C756 C750 1.368 . S
C756 C755 1.523 . S
C757 C741 1.429 . S
C757 C753 1.429 . S
C757 C758 1.523 . S
C758 C742 1.368 . S
C758 C754 1.368 . S
C758 C757 1.523 . S
H759 C734 0.950 . S
H760 C736 0.950 . S
H761 C737 0.949 . S
H762 C739 0.950 . S
H763 C741 0.950 . S
C764 C765 1.349 . S
C764 C766 1.327 . S
C764 H789 0.950 . S
C765 C764 1.349 . S
C765 C781 1.349 . S
C766 C764 1.327 . S
C766 C785 1.429 . S
C766 H790 0.950 1_554 S
C767 C784 1.574 . S
C767 C786 1.368 . S
C767 H791 0.949 . S
H768 C772 0.949 . S
C769 C770 1.349 . S
C769 C771 1.327 . S
C769 H792 0.950 . S
C770 C769 1.349 . S
C770 C782 1.349 . S
C771 C769 1.327 . S
C771 C787 1.429 . S
C771 H793 0.950 1_556 S
C772 H768 0.949 . S
C772 C780 1.574 . S
C772 C788 1.368 . S
H773 C781 0.950 . S
H774 C779 0.950 . S
H775 C780 0.949 . S
H776 C782 0.950 . S
H777 C783 0.950 . S
H778 C784 0.949 . S
C779 H774 0.950 . S
C779 C781 1.327 . S
C779 C785 1.429 . S
C780 C772 1.574 . S
C780 H775 0.949 . S
C780 C786 1.368 1_556 S
C781 C765 1.349 . S
C781 H773 0.950 . S
C781 C779 1.327 . S
C782 C770 1.349 . S
C782 H776 0.950 . S
C782 C783 1.327 . S
C783 H777 0.950 . S
C783 C782 1.327 . S
C783 C787 1.429 . S
C784 C767 1.574 . S
C784 H778 0.949 . S
C784 C788 1.368 1_554 S
C785 C766 1.429 . S
C785 C779 1.429 . S
C785 C786 1.523 . S
C786 C767 1.368 . S
C786 C780 1.368 1_554 S
C786 C785 1.523 . S
C787 C771 1.429 . S
C787 C783 1.429 . S
C787 C788 1.523 . S
C788 C772 1.368 . S
C788 C784 1.368 1_556 S
C788 C787 1.523 . S
H789 C764 0.950 . S
H790 C766 0.950 1_556 S
H791 C767 0.949 . S
H792 C769 0.950 . S
H793 C771 0.950 1_554 S
C794 C795 1.349 . S
C794 C796 1.327 . S
C794 H819 0.950 . S
C795 C794 1.349 . S
C795 C811 1.349 . S
C796 C794 1.327 . S
C796 C815 1.429 . S
C796 H820 0.950 . S
C797 C814 1.574 . S
C797 C816 1.368 . S
C797 H821 0.949 . S
H798 C802 0.949 . S
C799 C800 1.349 . S
C799 C801 1.327 . S
C799 H822 0.950 . S
C800 C799 1.349 . S
C800 C812 1.349 . S
C801 C799 1.327 . S
C801 C817 1.429 . S
C801 H823 0.950 . S
C802 H798 0.949 . S
C802 C810 1.574 . S
C802 C818 1.368 . S
H803 C811 0.950 . S
H804 C809 0.950 . S
H805 C810 0.949 . S
H806 C812 0.950 . S
H807 C813 0.950 . S
H808 C814 0.949 . S
C809 H804 0.950 . S
C809 C811 1.327 . S
C809 C815 1.429 . S
C810 C802 1.574 . S
C810 H805 0.949 . S
C810 C816 1.368 . S
C811 C795 1.349 . S
C811 H803 0.950 . S
C811 C809 1.327 . S
C812 C800 1.349 . S
C812 H806 0.950 . S
C812 C813 1.327 . S
C813 H807 0.950 . S
C813 C812 1.327 . S
C813 C817 1.429 . S
C814 C797 1.574 . S
C814 H808 0.949 . S
C814 C818 1.368 . S
C815 C796 1.429 . S
C815 C809 1.429 . S
C815 C816 1.523 . S
C816 C797 1.368 . S
C816 C810 1.368 . S
C816 C815 1.523 . S
C817 C801 1.429 . S
C817 C813 1.429 . S
C817 C818 1.523 . S
C818 C802 1.368 . S
C818 C814 1.368 . S
C818 C817 1.523 . S
H819 C794 0.950 . S
H820 C796 0.950 . S
H821 C797 0.949 . S
H822 C799 0.950 . S
H823 C801 0.950 . S
C824 C825 1.349 . S
C824 C826 1.327 . S
C824 H849 0.950 . S
C825 C824 1.349 . S
C825 C841 1.349 . S
C826 C824 1.327 . S
C826 C845 1.429 . S
C826 H850 0.950 . S
C827 C844 1.574 . S
C827 C846 1.368 . S
C827 H851 0.949 . S
H828 C832 0.949 . S
C829 C830 1.349 . S
C829 C831 1.327 . S
C829 H852 0.950 . S
C830 C829 1.349 . S
C830 C842 1.349 . S
C831 C829 1.327 . S
C831 C847 1.429 . S
C831 H853 0.950 . S
C832 H828 0.949 . S
C832 C840 1.574 . S
C832 C848 1.368 . S
H833 C841 0.950 . S
H834 C839 0.950 . S
H835 C840 0.949 . S
H836 C842 0.950 . S
H837 C843 0.950 . S
H838 C844 0.949 . S
C839 H834 0.950 . S
C839 C841 1.327 . S
C839 C845 1.429 . S
C840 C832 1.574 . S
C840 H835 0.949 . S
C840 C846 1.368 1_556 S
C841 C825 1.349 . S
C841 H833 0.950 . S
C841 C839 1.327 . S
C842 C830 1.349 . S
C842 H836 0.950 . S
C842 C843 1.327 . S
C843 H837 0.950 . S
C843 C842 1.327 . S
C843 C847 1.429 . S
C844 C827 1.574 . S
C844 H838 0.949 . S
C844 C848 1.368 1_554 S
C845 C826 1.429 . S
C845 C839 1.429 . S
C845 C846 1.523 . S
C846 C827 1.368 . S
C846 C840 1.368 1_554 S
C846 C845 1.523 . S
C847 C831 1.429 . S
C847 C843 1.429 . S
C847 C848 1.523 . S
C848 C832 1.368 . S
C848 C844 1.368 1_556 S
C848 C847 1.523 . S
H849 C824 0.950 . S
H850 C826 0.950 . S
H851 C827 0.949 . S
H852 C829 0.950 . S
H853 C831 0.950 . S
C854 C855 1.349 . S
C854 C856 1.327 . S
C854 H879 0.950 . S
C855 C854 1.349 . S
C855 C871 1.349 . S
C856 C854 1.327 . S
C856 C875 1.429 . S
C856 H880 0.950 . S
C857 C874 1.574 . S
C857 C876 1.368 . S
C857 H881 0.949 . S
H858 C862 0.949 . S
C859 C860 1.349 . S
C859 C861 1.327 . S
C859 H882 0.950 . S
C860 C859 1.349 . S
C860 C872 1.349 . S
C861 C859 1.327 . S
C861 C877 1.429 . S
C861 H883 0.950 . S
C862 H858 0.949 . S
C862 C870 1.574 . S
C862 C878 1.368 . S
H863 C871 0.950 . S
H864 C869 0.950 . S
H865 C870 0.949 . S
H866 C872 0.950 . S
H867 C873 0.950 . S
H868 C874 0.949 . S
C869 H864 0.950 . S
C869 C871 1.327 . S
C869 C875 1.429 . S
C870 C862 1.574 . S
C870 H865 0.949 . S
C870 C876 1.368 . S
C871 C855 1.349 . S
C871 H863 0.950 . S
C871 C869 1.327 . S
C872 C860 1.349 . S
C872 H866 0.950 . S
C872 C873 1.327 . S
C873 H867 0.950 . S
C873 C872 1.327 . S
C873 C877 1.429 . S
C874 C857 1.574 . S
C874 H868 0.949 . S
C874 C878 1.368 . S
C875 C856 1.429 . S
C875 C869 1.429 . S
C875 C876 1.523 . S
C876 C857 1.368 . S
C876 C870 1.368 . S
C876 C875 1.523 . S
C877 C861 1.429 . S
C877 C873 1.429 . S
C877 C878 1.523 . S
C878 C862 1.368 . S
C878 C874 1.368 . S
C878 C877 1.523 . S
H879 C854 0.950 . S
H880 C856 0.950 . S
H881 C857 0.949 . S
H882 C859 0.950 . S
H883 C861 0.950 . S
C884 C885 1.349 . S
C884 C886 1.327 . S
C884 H909 0.950 . S
C885 C884 1.349 . S
C885 C901 1.349 . S
C886 C884 1.327 . S
C886 C905 1.429 . S
C886 H910 0.950 1_554 S
C887 C904 1.574 . S
C887 C906 1.368 . S
C887 H911 0.949 . S
H888 C892 0.949 . S
C889 C890 1.349 . S
C889 C891 1.327 . S
C889 H912 0.950 . S
C890 C889 1.349 . S
C890 C902 1.349 . S
C891 C889 1.327 . S
C891 C907 1.429 . S
C891 H913 0.950 1_556 S
C892 H888 0.949 . S
C892 C900 1.574 . S
C892 C908 1.368 . S
H893 C901 0.950 . S
H894 C899 0.950 . S
H895 C900 0.949 . S
H896 C902 0.950 . S
H897 C903 0.950 . S
H898 C904 0.949 . S
C899 H894 0.950 . S
C899 C901 1.327 . S
C899 C905 1.429 . S
C900 C892 1.574 . S
C900 H895 0.949 . S
C900 C906 1.368 1_556 S
C901 C885 1.349 . S
C901 H893 0.950 . S
C901 C899 1.327 . S
C902 C890 1.349 . S
C902 H896 0.950 . S
C902 C903 1.327 . S
C903 H897 0.950 . S
C903 C902 1.327 . S
C903 C907 1.429 . S
C904 C887 1.574 . S
C904 H898 0.949 . S
C904 C908 1.368 1_554 S
C905 C886 1.429 . S
C905 C899 1.429 . S
C905 C906 1.523 . S
C906 C887 1.368 . S
C906 C900 1.368 1_554 S
C906 C905 1.523 . S
C907 C891 1.429 . S
C907 C903 1.429 . S
C907 C908 1.523 . S
C908 C892 1.368 . S
C908 C904 1.368 1_556 S
C908 C907 1.523 . S
H909 C884 0.950 . S
H910 C886 0.950 1_556 S
H911 C887 0.949 . S
H912 C889 0.950 . S
H913 C891 0.950 1_554 S
C914 C915 1.349 . S
C914 C916 1.327 . S
C914 H939 0.950 . S
C915 C914 1.349 . S
C915 C931 1.349 . S
C916 C914 1.327 . S
C916 C935 1.429 . S
C916 H940 0.950 . S
C917 C934 1.574 . S
C917 C936 1.368 . S
C917 H941 0.949 . S
H918 C922 0.949 . S
C919 C920 1.349 . S
C919 C921 1.327 . S
C919 H942 0.950 . S
C920 C919 1.349 . S
C920 C932 1.349 . S
C921 C919 1.327 . S
C921 C937 1.429 . S
C921 H943 0.950 . S
C922 H918 0.949 . S
C922 C930 1.574 . S
C922 C938 1.368 . S
H923 C931 0.950 . S
H924 C929 0.950 . S
H925 C930 0.949 . S
H926 C932 0.950 . S
H927 C933 0.950 . S
H928 C934 0.949 . S
C929 H924 0.950 . S
C929 C931 1.327 . S
C929 C935 1.429 . S
C930 C922 1.574 . S
C930 H925 0.949 . S
C930 C936 1.368 . S
C931 C915 1.349 . S
C931 H923 0.950 . S
C931 C929 1.327 . S
C932 C920 1.349 . S
C932 H926 0.950 . S
C932 C933 1.327 . S
C933 H927 0.950 . S
C933 C932 1.327 . S
C933 C937 1.429 . S
C934 C917 1.574 . S
C934 H928 0.949 . S
C934 C938 1.368 . S
C935 C916 1.429 . S
C935 C929 1.429 . S
C935 C936 1.523 . S
C936 C917 1.368 . S
C936 C930 1.368 . S
C936 C935 1.523 . S
C937 C921 1.429 . S
C937 C933 1.429 . S
C937 C938 1.523 . S
C938 C922 1.368 . S
C938 C934 1.368 . S
C938 C937 1.523 . S
H939 C914 0.950 . S
H940 C916 0.950 . S
H941 C917 0.949 . S
H942 C919 0.950 . S
H943 C921 0.950 . S
C944 C945 1.349 . S
C944 C946 1.327 . S
C944 H969 0.950 . S
C945 C944 1.349 . S
C945 C961 1.349 . S
C946 C944 1.327 . S
C946 C965 1.429 . S
C946 H970 0.950 . S
C947 C964 1.574 . S
C947 C966 1.368 1_554 S
C947 H971 0.949 . S
H948 C952 0.949 . S
C949 C950 1.349 . S
C949 C951 1.327 . S
C949 H972 0.950 . S
C950 C949 1.349 . S
C950 C962 1.349 . S
C951 C949 1.327 . S
C951 C967 1.429 . S
C951 H973 0.950 . S
C952 H948 0.949 . S
C952 C960 1.574 . S
C952 C968 1.368 1_556 S
H953 C961 0.950 . S
H954 C959 0.950 . S
H955 C960 0.949 . S
H956 C962 0.950 . S
H957 C963 0.950 . S
H958 C964 0.949 . S
C959 H954 0.950 . S
C959 C961 1.327 . S
C959 C965 1.429 . S
C960 C952 1.574 . S
C960 H955 0.949 . S
C960 C966 1.368 . S
C961 C945 1.349 . S
C961 H953 0.950 . S
C961 C959 1.327 . S
C962 C950 1.349 . S
C962 H956 0.950 . S
C962 C963 1.327 . S
C963 H957 0.950 . S
C963 C962 1.327 . S
C963 C967 1.429 . S
C964 C947 1.574 . S
C964 H958 0.949 . S
C964 C968 1.368 . S
C965 C946 1.429 . S
C965 C959 1.429 . S
C965 C966 1.523 . S
C966 C947 1.368 1_556 S
C966 C960 1.368 . S
C966 C965 1.523 . S
C967 C951 1.429 . S
C967 C963 1.429 . S
C967 C968 1.523 . S
C968 C952 1.368 1_554 S
C968 C964 1.368 . S
C968 C967 1.523 . S
H969 C944 0.950 . S
H970 C946 0.950 . S
H971 C947 0.949 . S
H972 C949 0.950 . S
H973 C951 0.950 . S
C974 C975 1.349 . S
C974 C976 1.327 . S
C974 H999 0.950 . S
C975 C974 1.349 . S
C975 C991 1.349 . S
C976 C974 1.327 . S
C976 C995 1.429 . S
C976 H1000 0.950 . S
C977 C994 1.574 . S
C977 C996 1.368 . S
C977 H1001 0.949 . S
H978 C982 0.949 . S
C979 C980 1.349 . S
C979 C981 1.327 . S
C979 H1002 0.950 . S
C980 C979 1.349 . S
C980 C992 1.349 . S
C981 C979 1.327 . S
C981 C997 1.429 . S
C981 H1003 0.950 . S
C982 H978 0.949 . S
C982 C990 1.574 . S
C982 C998 1.368 . S
H983 C991 0.950 . S
H984 C989 0.950 . S
H985 C990 0.949 . S
H986 C992 0.950 . S
H987 C993 0.950 . S
H988 C994 0.949 . S
C989 H984 0.950 . S
C989 C991 1.327 . S
C989 C995 1.429 . S
C990 C982 1.574 . S
C990 H985 0.949 . S
C990 C996 1.368 . S
C991 C975 1.349 . S
C991 H983 0.950 . S
C991 C989 1.327 . S
C992 C980 1.349 . S
C992 H986 0.950 . S
C992 C993 1.327 . S
C993 H987 0.950 . S
C993 C992 1.327 . S
C993 C997 1.429 . S
C994 C977 1.574 . S
C994 H988 0.949 . S
C994 C998 1.368 . S
C995 C976 1.429 . S
C995 C989 1.429 . S
C995 C996 1.523 . S
C996 C977 1.368 . S
C996 C990 1.368 . S
C996 C995 1.523 . S
C997 C981 1.429 . S
C997 C993 1.429 . S
C997 C998 1.523 . S
C998 C982 1.368 . S
C998 C994 1.368 . S
C998 C997 1.523 . S
H999 C974 0.950 . S
H1000 C976 0.950 . S
H1001 C977 0.949 . S
H1002 C979 0.950 . S
H1003 C981 0.950 . S
C1004 C1005 1.349 . S
C1004 C1006 1.327 . S
C1004 H1029 0.950 . S
C1005 C1004 1.349 . S
C1005 C1021 1.349 . S
C1006 C1004 1.327 . S
C1006 C1025 1.429 . S
C1006 H1030 0.950 . S
C1007 C1024 1.574 . S
C1007 C1026 1.368 1_556 S
C1007 H1031 0.949 . S
H1008 C1012 0.949 . S
C1009 C1010 1.349 . S
C1009 C1011 1.327 . S
C1009 H1032 0.950 . S
C1010 C1009 1.349 . S
C1010 C1022 1.349 . S
C1011 C1009 1.327 . S
C1011 C1027 1.429 . S
C1011 H1033 0.950 . S
C1012 H1008 0.949 . S
C1012 C1020 1.574 . S
C1012 C1028 1.368 1_554 S
H1013 C1021 0.950 . S
H1014 C1019 0.954 . S
H1015 C1020 0.949 . S
H1016 C1022 0.950 . S
H1017 C1023 0.954 . S
H1018 C1024 0.949 . S
C1019 H1014 0.954 . S
C1019 C1021 1.327 . S
C1019 C1025 1.429 . S
C1020 C1012 1.574 . S
C1020 H1015 0.949 . S
C1020 C1026 1.368 . S
C1021 C1005 1.349 . S
C1021 H1013 0.950 . S
C1021 C1019 1.327 . S
C1022 C1010 1.349 . S
C1022 H1016 0.950 . S
C1022 C1023 1.327 . S
C1023 H1017 0.954 . S
C1023 C1022 1.327 . S
C1023 C1027 1.429 . S
C1024 C1007 1.574 . S
C1024 H1018 0.949 . S
C1024 C1028 1.368 . S
C1025 C1006 1.429 . S
C1025 C1019 1.429 . S
C1025 C1026 1.523 . S
C1026 C1007 1.368 1_554 S
C1026 C1020 1.368 . S
C1026 C1025 1.523 . S
C1027 C1011 1.429 . S
C1027 C1023 1.429 . S
C1027 C1028 1.523 . S
C1028 C1012 1.368 1_556 S
C1028 C1024 1.368 . S
C1028 C1027 1.523 . S
H1029 C1004 0.950 . S
H1030 C1006 0.950 . S
H1031 C1007 0.949 . S
H1032 C1009 0.950 . S
H1033 C1011 0.950 . S
C1034 C1035 1.349 . S
C1034 C1036 1.327 . S
C1034 H1059 0.950 . S
C1035 C1034 1.349 . S
C1035 C1051 1.349 . S
C1036 C1034 1.327 . S
C1036 C1055 1.429 . S
C1036 H1060 0.950 . S
C1037 C1054 1.574 . S
C1037 C1056 1.368 . S
C1037 H1061 0.949 . S
H1038 C1042 0.949 . S
C1039 C1040 1.349 . S
C1039 C1041 1.327 . S
C1039 H1062 0.950 . S
C1040 C1039 1.349 . S
C1040 C1052 1.349 . S
C1041 C1039 1.327 . S
C1041 C1057 1.429 . S
C1041 H1063 0.950 . S
C1042 H1038 0.949 . S
C1042 C1050 1.574 . S
C1042 C1058 1.368 . S
H1043 C1051 0.950 . S
H1044 C1049 0.950 . S
H1045 C1050 0.949 . S
H1046 C1052 0.950 . S
H1047 C1053 0.950 . S
H1048 C1054 0.949 . S
C1049 H1044 0.950 . S
C1049 C1051 1.327 . S
C1049 C1055 1.429 . S
C1050 C1042 1.574 . S
C1050 H1045 0.949 . S
C1050 C1056 1.368 . S
C1051 C1035 1.349 . S
C1051 H1043 0.950 . S
C1051 C1049 1.327 . S
C1052 C1040 1.349 . S
C1052 H1046 0.950 . S
C1052 C1053 1.327 . S
C1053 H1047 0.950 . S
C1053 C1052 1.327 . S
C1053 C1057 1.429 . S
C1054 C1037 1.574 . S
C1054 H1048 0.949 . S
C1054 C1058 1.368 . S
C1055 C1036 1.429 . S
C1055 C1049 1.429 . S
C1055 C1056 1.523 . S
C1056 C1037 1.368 . S
C1056 C1050 1.368 . S
C1056 C1055 1.523 . S
C1057 C1041 1.429 . S
C1057 C1053 1.429 . S
C1057 C1058 1.523 . S
C1058 C1042 1.368 . S
C1058 C1054 1.368 . S
C1058 C1057 1.523 . S
H1059 C1034 0.950 . S
H1060 C1036 0.950 . S
H1061 C1037 0.949 . S
H1062 C1039 0.950 . S
H1063 C1041 0.950 . S
C1064 C1065 1.349 . S
C1064 C1066 1.327 . S
C1064 H1089 0.950 . S
C1065 C1064 1.349 . S
C1065 C1081 1.349 . S
C1066 C1064 1.327 . S
C1066 C1085 1.429 . S
C1066 H1090 0.950 . S
C1067 C1084 1.574 1_545 S
C1067 C1086 1.368 . S
C1067 H1091 0.949 . S
H1068 C1072 0.949 . S
C1069 C1070 1.349 . S
C1069 C1071 1.327 . S
C1069 H1092 0.950 . S
C1070 C1069 1.349 . S
C1070 C1082 1.349 . S
C1071 C1069 1.327 . S
C1071 C1087 1.429 . S
C1071 H1093 0.950 . S
C1072 H1068 0.949 . S
C1072 C1080 1.574 1_565 S
C1072 C1088 1.368 . S
H1073 C1081 0.950 . S
H1074 C1079 0.950 . S
H1075 C1080 0.949 . S
H1076 C1082 0.950 . S
H1077 C1083 0.950 . S
H1078 C1084 0.949 . S
C1079 H1074 0.950 . S
C1079 C1081 1.327 . S
C1079 C1085 1.429 . S
C1080 C1072 1.574 1_545 S
C1080 H1075 0.949 . S
C1080 C1086 1.368 1_554 S
C1081 C1065 1.349 . S
C1081 H1073 0.950 . S
C1081 C1079 1.327 . S
C1082 C1070 1.349 . S
C1082 H1076 0.950 . S
C1082 C1083 1.327 . S
C1083 H1077 0.950 . S
C1083 C1082 1.327 . S
C1083 C1087 1.429 . S
C1084 C1067 1.574 1_565 S
C1084 H1078 0.949 . S
C1084 C1088 1.368 1_556 S
C1085 C1066 1.429 . S
C1085 C1079 1.429 . S
C1085 C1086 1.523 . S
C1086 C1067 1.368 . S
C1086 C1080 1.368 1_556 S
C1086 C1085 1.523 . S
C1087 C1071 1.429 . S
C1087 C1083 1.429 . S
C1087 C1088 1.523 . S
C1088 C1072 1.368 . S
C1088 C1084 1.368 1_554 S
C1088 C1087 1.523 . S
H1089 C1064 0.950 . S
H1090 C1066 0.950 . S
H1091 C1067 0.949 . S
H1092 C1069 0.950 . S
H1093 C1071 0.950 . S
C1094 C1095 1.349 . S
C1094 C1096 1.327 . S
C1094 H1119 0.950 . S
C1095 C1094 1.349 . S
C1095 C1111 1.349 . S
C1096 C1094 1.327 . S
C1096 C1115 1.429 . S
C1096 H1120 0.950 . S
C1097 C1114 1.574 1_565 S
C1097 C1116 1.368 . S
C1097 H1121 0.949 . S
H1098 C1102 0.949 . S
C1099 C1100 1.349 . S
C1099 C1101 1.327 . S
C1099 H1122 0.950 . S
C1100 C1099 1.349 . S
C1100 C1112 1.349 . S
C1101 C1099 1.327 . S
C1101 C1117 1.429 . S
C1101 H1123 0.950 . S
C1102 H1098 0.949 . S
C1102 C1110 1.574 1_545 S
C1102 C1118 1.368 . S
H1103 C1111 0.950 . S
H1104 C1109 0.950 . S
H1105 C1110 0.949 . S
H1106 C1112 0.950 . S
H1107 C1113 0.950 . S
H1108 C1114 0.949 . S
C1109 H1104 0.950 . S
C1109 C1111 1.327 . S
C1109 C1115 1.429 . S
C1110 C1102 1.574 1_565 S
C1110 H1105 0.949 . S
C1110 C1116 1.368 . S
C1111 C1095 1.349 . S
C1111 H1103 0.950 . S
C1111 C1109 1.327 . S
C1112 C1100 1.349 . S
C1112 H1106 0.950 . S
C1112 C1113 1.327 . S
C1113 H1107 0.950 . S
C1113 C1112 1.327 . S
C1113 C1117 1.429 . S
C1114 C1097 1.574 1_545 S
C1114 H1108 0.949 . S
C1114 C1118 1.368 . S
C1115 C1096 1.429 . S
C1115 C1109 1.429 . S
C1115 C1116 1.523 . S
C1116 C1097 1.368 . S
C1116 C1110 1.368 . S
C1116 C1115 1.523 . S
C1117 C1101 1.429 . S
C1117 C1113 1.429 . S
C1117 C1118 1.523 . S
C1118 C1102 1.368 . S
C1118 C1114 1.368 . S
C1118 C1117 1.523 . S
H1119 C1094 0.950 . S
H1120 C1096 0.950 . S
H1121 C1097 0.949 . S
H1122 C1099 0.950 . S
H1123 C1101 0.950 . S
C1124 C1125 1.349 . S
C1124 C1126 1.327 . S
C1124 H1149 0.950 . S
C1125 C1124 1.349 . S
C1125 C1141 1.349 . S
C1126 C1124 1.327 . S
C1126 C1145 1.429 . S
C1126 H1150 0.950 . S
C1127 C1144 1.574 1_565 S
C1127 C1146 1.368 1_556 S
C1127 H1151 0.949 . S
H1128 C1132 0.949 . S
C1129 C1130 1.349 . S
C1129 C1131 1.327 . S
C1129 H1152 0.950 . S
C1130 C1129 1.349 . S
C1130 C1142 1.349 . S
C1131 C1129 1.327 . S
C1131 C1147 1.429 . S
C1131 H1153 0.950 . S
C1132 H1128 0.949 . S
C1132 C1140 1.574 1_545 S
C1132 C1148 1.368 1_554 S
H1133 C1141 0.950 . S
H1134 C1139 0.950 1_556 S
H1135 C1140 0.949 . S
H1136 C1142 0.950 . S
H1137 C1143 0.950 1_554 S
H1138 C1144 0.949 . S
C1139 H1134 0.950 1_554 S
C1139 C1141 1.327 . S
C1139 C1145 1.429 . S
C1140 C1132 1.574 1_565 S
C1140 H1135 0.949 . S
C1140 C1146 1.368 . S
C1141 C1125 1.349 . S
C1141 H1133 0.950 . S
C1141 C1139 1.327 . S
C1142 C1130 1.349 . S
C1142 H1136 0.950 . S
C1142 C1143 1.327 . S
C1143 H1137 0.950 1_556 S
C1143 C1142 1.327 . S
C1143 C1147 1.429 . S
C1144 C1127 1.574 1_545 S
C1144 H1138 0.949 . S
C1144 C1148 1.368 . S
C1145 C1126 1.429 . S
C1145 C1139 1.429 . S
C1145 C1146 1.523 . S
C1146 C1127 1.368 1_554 S
C1146 C1140 1.368 . S
C1146 C1145 1.523 . S
C1147 C1131 1.429 . S
C1147 C1143 1.429 . S
C1147 C1148 1.523 . S
C1148 C1132 1.368 1_556 S
C1148 C1144 1.368 . S
C1148 C1147 1.523 . S
H1149 C1124 0.950 . S
H1150 C1126 0.950 . S
H1151 C1127 0.949 . S
H1152 C1129 0.950 . S
H1153 C1131 0.950 . S
C1154 C1155 1.349 . S
C1154 C1156 1.327 . S
C1154 H1179 0.950 . S
C1155 C1154 1.349 . S
C1155 C1171 1.349 . S
C1156 C1154 1.327 . S
C1156 C1175 1.429 . S
C1156 H1180 0.950 . S
C1157 C1174 1.574 1_545 S
C1157 C1176 1.368 . S
C1157 H1181 0.949 . S
H1158 C1162 0.949 . S
C1159 C1160 1.349 . S
C1159 C1161 1.327 . S
C1159 H1182 0.950 . S
C1160 C1159 1.349 . S
C1160 C1172 1.349 . S
C1161 C1159 1.327 . S
C1161 C1177 1.429 . S
C1161 H1183 0.950 . S
C1162 H1158 0.949 . S
C1162 C1170 1.574 1_565 S
C1162 C1178 1.368 . S
H1163 C1171 0.950 . S
H1164 C1169 0.950 . S
H1165 C1170 0.949 . S
H1166 C1172 0.950 . S
H1167 C1173 0.950 . S
H1168 C1174 0.949 . S
C1169 H1164 0.950 . S
C1169 C1171 1.327 . S
C1169 C1175 1.429 . S
C1170 C1162 1.574 1_545 S
C1170 H1165 0.949 . S
C1170 C1176 1.368 . S
C1171 C1155 1.349 . S
C1171 H1163 0.950 . S
C1171 C1169 1.327 . S
C1172 C1160 1.349 . S
C1172 H1166 0.950 . S
C1172 C1173 1.327 . S
C1173 H1167 0.950 . S
C1173 C1172 1.327 . S
C1173 C1177 1.429 . S
C1174 C1157 1.574 1_565 S
C1174 H1168 0.949 . S
C1174 C1178 1.368 . S
C1175 C1156 1.429 . S
C1175 C1169 1.429 . S
C1175 C1176 1.523 . S
C1176 C1157 1.368 . S
C1176 C1170 1.368 . S
C1176 C1175 1.523 . S
C1177 C1161 1.429 . S
C1177 C1173 1.429 . S
C1177 C1178 1.523 . S
C1178 C1162 1.368 . S
C1178 C1174 1.368 . S
C1178 C1177 1.523 . S
H1179 C1154 0.950 . S
H1180 C1156 0.950 . S
H1181 C1157 0.949 . S
H1182 C1159 0.950 . S
H1183 C1161 0.950 . S
C225 C8 1.412 . S
C230 C92 1.408 . S
C255 C22 1.412 . S
C260 C106 1.408 . S
C285 C64 1.408 . S
C290 C36 1.412 . S
C315 C78 1.408 . S
C320 C50 1.412 . S
C345 C204 1.408 . S
C350 C120 1.412 . S
C375 C218 1.408 . S
C380 C134 1.412 . S
C405 C148 1.412 . S
C410 C176 1.408 . S
C435 C162 1.412 . S
C440 C190 1.408 . S
C465 C13 1.281 . S
C470 C77 1.377 . S
C495 C27 1.281 . S
C500 C63 1.377 . S
C525 C41 1.281 . S
C530 C105 1.377 . S
C555 C91 1.377 . S
C560 C55 1.281 . S
C585 C189 1.377 . S
C590 C125 1.281 . S
C615 C175 1.377 . S
C620 C139 1.281 . S
C645 C153 1.281 . S
C650 C217 1.377 . S
C675 C203 1.377 . S
C680 C167 1.281 . S
C705 C179 1.319 . S
C710 C11 1.316 . S
C735 C25 1.316 . S
C740 C193 1.319 . S
C765 C207 1.319 . S
C770 C39 1.316 . S
C795 C221 1.319 . S
C800 C53 1.316 . S
C825 C123 1.316 . S
C830 C67 1.319 . S
C855 C137 1.316 . S
C860 C81 1.319 . S
C885 C95 1.319 . S
C890 C151 1.316 . S
C915 C109 1.319 . S
C920 C165 1.316 . S
C945 C35 1.493 . S
C950 C7 1.493 . S
C975 C21 1.493 . S
C980 C49 1.493 . S
C1005 C97 1.197 . S
C1010 C69 1.197 . S
C1035 C83 1.197 . S
C1040 C111 1.197 . S
C1065 C147 1.493 . S
C1070 C119 1.493 . S
C1095 C161 1.493 . S
C1100 C133 1.493 . S
C1125 C209 1.197 . S
C1130 C181 1.197 . S
C1155 C223 1.197 . S
C1160 C195 1.197 . S
