# Generated by pormake.
# Topology fcl, (5)-cn, num edge types: 1
# Building blocks:
#     Node 0, Type 0, BuildingBlock: BEQFEK_clean_sbu_0, # of connection points: 5
#     Node 1, Type 0, BuildingBlock: BEQFEK_clean_sbu_0, # of connection points: 5
#     Node 2, Type 0, BuildingBlock: BEQFEK_clean_sbu_0, # of connection points: 5
#     Node 3, Type 0, BuildingBlock: BEQFEK_clean_sbu_0, # of connection points: 5
#     Node 4, Type 0, BuildingBlock: BEQFEK_clean_sbu_0, # of connection points: 5
#     Node 5, Type 0, BuildingBlock: BEQFEK_clean_sbu_0, # of connection points: 5
#     Node 6, Type 0, BuildingBlock: BEQFEK_clean_sbu_0, # of connection points: 5
#     Node 7, Type 0, BuildingBlock: BEQFEK_clean_sbu_0, # of connection points: 5
#     Node 8, Type 0, BuildingBlock: BEQFEK_clean_sbu_0, # of connection points: 5
#     Node 9, Type 0, BuildingBlock: BEQFEK_clean_sbu_0, # of connection points: 5
#     Node 10, Type 0, BuildingBlock: BEQFEK_clean_sbu_0, # of connection points: 5
#     Node 11, Type 0, BuildingBlock: BEQFEK_clean_sbu_0, # of connection points: 5
#     Node 12, Type 0, BuildingBlock: BEQFEK_clean_sbu_0, # of connection points: 5
#     Node 13, Type 0, BuildingBlock: BEQFEK_clean_sbu_0, # of connection points: 5
#     Node 14, Type 0, BuildingBlock: BEQFEK_clean_sbu_0, # of connection points: 5
#     Node 15, Type 0, BuildingBlock: BEQFEK_clean_sbu_0, # of connection points: 5
#     Node 16, Type 0, BuildingBlock: BEQFEK_clean_sbu_0, # of connection points: 5
#     Node 17, Type 0, BuildingBlock: BEQFEK_clean_sbu_0, # of connection points: 5
#     Node 18, Type 0, BuildingBlock: BEQFEK_clean_sbu_0, # of connection points: 5
#     Node 19, Type 0, BuildingBlock: BEQFEK_clean_sbu_0, # of connection points: 5
#     Node 20, Type 0, BuildingBlock: BEQFEK_clean_sbu_0, # of connection points: 5
#     Node 21, Type 0, BuildingBlock: BEQFEK_clean_sbu_0, # of connection points: 5
#     Node 22, Type 0, BuildingBlock: BEQFEK_clean_sbu_0, # of connection points: 5
#     Node 23, Type 0, BuildingBlock: BEQFEK_clean_sbu_0, # of connection points: 5
#     Node 24, Type 0, BuildingBlock: BEQFEK_clean_sbu_0, # of connection points: 5
#     Node 25, Type 0, BuildingBlock: BEQFEK_clean_sbu_0, # of connection points: 5
#     Node 26, Type 0, BuildingBlock: BEQFEK_clean_sbu_0, # of connection points: 5
#     Node 27, Type 0, BuildingBlock: BEQFEK_clean_sbu_0, # of connection points: 5
#     Node 28, Type 0, BuildingBlock: BEQFEK_clean_sbu_0, # of connection points: 5
#     Node 29, Type 0, BuildingBlock: BEQFEK_clean_sbu_0, # of connection points: 5
#     Node 30, Type 0, BuildingBlock: BEQFEK_clean_sbu_0, # of connection points: 5
#     Node 31, Type 0, BuildingBlock: BEQFEK_clean_sbu_0, # of connection points: 5
#     Node 32, Type 0, BuildingBlock: BEQFEK_clean_sbu_0, # of connection points: 5
#     Node 33, Type 0, BuildingBlock: BEQFEK_clean_sbu_0, # of connection points: 5
#     Node 34, Type 0, BuildingBlock: BEQFEK_clean_sbu_0, # of connection points: 5
#     Node 35, Type 0, BuildingBlock: BEQFEK_clean_sbu_0, # of connection points: 5
#     Node 36, Type 0, BuildingBlock: BEQFEK_clean_sbu_0, # of connection points: 5
#     Node 37, Type 0, BuildingBlock: BEQFEK_clean_sbu_0, # of connection points: 5
#     Node 38, Type 0, BuildingBlock: BEQFEK_clean_sbu_0, # of connection points: 5
#     Node 39, Type 0, BuildingBlock: BEQFEK_clean_sbu_0, # of connection points: 5
#     Node 40, Type 0, BuildingBlock: BEQFEK_clean_sbu_0, # of connection points: 5
#     Node 41, Type 0, BuildingBlock: BEQFEK_clean_sbu_0, # of connection points: 5
#     Node 42, Type 0, BuildingBlock: BEQFEK_clean_sbu_0, # of connection points: 5
#     Node 43, Type 0, BuildingBlock: BEQFEK_clean_sbu_0, # of connection points: 5
#     Node 44, Type 0, BuildingBlock: BEQFEK_clean_sbu_0, # of connection points: 5
#     Node 45, Type 0, BuildingBlock: BEQFEK_clean_sbu_0, # of connection points: 5
#     Node 46, Type 0, BuildingBlock: BEQFEK_clean_sbu_0, # of connection points: 5
#     Node 47, Type 0, BuildingBlock: BEQFEK_clean_sbu_0, # of connection points: 5
#     Edge 48, Type (0, 0), BuildingBlock: KIFKEQ_clean_linker_1, # of connection points: 2
#     Edge 49, Type (0, 0), BuildingBlock: KIFKEQ_clean_linker_1, # of connection points: 2
#     Edge 50, Type (0, 0), BuildingBlock: KIFKEQ_clean_linker_1, # of connection points: 2
#     Edge 51, Type (0, 0), BuildingBlock: KIFKEQ_clean_linker_1, # of connection points: 2
#     Edge 52, Type (0, 0), BuildingBlock: KIFKEQ_clean_linker_1, # of connection points: 2
#     Edge 53, Type (0, 0), BuildingBlock: KIFKEQ_clean_linker_1, # of connection points: 2
#     Edge 54, Type (0, 0), BuildingBlock: KIFKEQ_clean_linker_1, # of connection points: 2
#     Edge 55, Type (0, 0), BuildingBlock: KIFKEQ_clean_linker_1, # of connection points: 2
#     Edge 56, Type (0, 0), BuildingBlock: KIFKEQ_clean_linker_1, # of connection points: 2
#     Edge 57, Type (0, 0), BuildingBlock: KIFKEQ_clean_linker_1, # of connection points: 2
#     Edge 58, Type (0, 0), BuildingBlock: KIFKEQ_clean_linker_1, # of connection points: 2
#     Edge 59, Type (0, 0), BuildingBlock: KIFKEQ_clean_linker_1, # of connection points: 2
#     Edge 60, Type (0, 0), BuildingBlock: KIFKEQ_clean_linker_1, # of connection points: 2
#     Edge 61, Type (0, 0), BuildingBlock: KIFKEQ_clean_linker_1, # of connection points: 2
#     Edge 62, Type (0, 0), BuildingBlock: KIFKEQ_clean_linker_1, # of connection points: 2
#     Edge 63, Type (0, 0), BuildingBlock: KIFKEQ_clean_linker_1, # of connection points: 2
#     Edge 64, Type (0, 0), BuildingBlock: KIFKEQ_clean_linker_1, # of connection points: 2
#     Edge 65, Type (0, 0), BuildingBlock: KIFKEQ_clean_linker_1, # of connection points: 2
#     Edge 66, Type (0, 0), BuildingBlock: KIFKEQ_clean_linker_1, # of connection points: 2
#     Edge 67, Type (0, 0), BuildingBlock: KIFKEQ_clean_linker_1, # of connection points: 2
#     Edge 68, Type (0, 0), BuildingBlock: KIFKEQ_clean_linker_1, # of connection points: 2
#     Edge 69, Type (0, 0), BuildingBlock: KIFKEQ_clean_linker_1, # of connection points: 2
#     Edge 70, Type (0, 0), BuildingBlock: KIFKEQ_clean_linker_1, # of connection points: 2
#     Edge 71, Type (0, 0), BuildingBlock: KIFKEQ_clean_linker_1, # of connection points: 2
#     Edge 72, Type (0, 0), BuildingBlock: KIFKEQ_clean_linker_1, # of connection points: 2
#     Edge 73, Type (0, 0), BuildingBlock: KIFKEQ_clean_linker_1, # of connection points: 2
#     Edge 74, Type (0, 0), BuildingBlock: KIFKEQ_clean_linker_1, # of connection points: 2
#     Edge 75, Type (0, 0), BuildingBlock: KIFKEQ_clean_linker_1, # of connection points: 2
#     Edge 76, Type (0, 0), BuildingBlock: KIFKEQ_clean_linker_1, # of connection points: 2
#     Edge 77, Type (0, 0), BuildingBlock: KIFKEQ_clean_linker_1, # of connection points: 2
#     Edge 78, Type (0, 0), BuildingBlock: KIFKEQ_clean_linker_1, # of connection points: 2
#     Edge 79, Type (0, 0), BuildingBlock: KIFKEQ_clean_linker_1, # of connection points: 2
#     Edge 80, Type (0, 0), BuildingBlock: KIFKEQ_clean_linker_1, # of connection points: 2
#     Edge 81, Type (0, 0), BuildingBlock: KIFKEQ_clean_linker_1, # of connection points: 2
#     Edge 82, Type (0, 0), BuildingBlock: KIFKEQ_clean_linker_1, # of connection points: 2
#     Edge 83, Type (0, 0), BuildingBlock: KIFKEQ_clean_linker_1, # of connection points: 2
#     Edge 84, Type (0, 0), BuildingBlock: KIFKEQ_clean_linker_1, # of connection points: 2
#     Edge 85, Type (0, 0), BuildingBlock: KIFKEQ_clean_linker_1, # of connection points: 2
#     Edge 86, Type (0, 0), BuildingBlock: KIFKEQ_clean_linker_1, # of connection points: 2
#     Edge 87, Type (0, 0), BuildingBlock: KIFKEQ_clean_linker_1, # of connection points: 2
#     Edge 88, Type (0, 0), BuildingBlock: KIFKEQ_clean_linker_1, # of connection points: 2
#     Edge 89, Type (0, 0), BuildingBlock: KIFKEQ_clean_linker_1, # of connection points: 2
#     Edge 90, Type (0, 0), BuildingBlock: KIFKEQ_clean_linker_1, # of connection points: 2
#     Edge 91, Type (0, 0), BuildingBlock: KIFKEQ_clean_linker_1, # of connection points: 2
#     Edge 92, Type (0, 0), BuildingBlock: KIFKEQ_clean_linker_1, # of connection points: 2
#     Edge 93, Type (0, 0), BuildingBlock: KIFKEQ_clean_linker_1, # of connection points: 2
#     Edge 94, Type (0, 0), BuildingBlock: KIFKEQ_clean_linker_1, # of connection points: 2
#     Edge 95, Type (0, 0), BuildingBlock: KIFKEQ_clean_linker_1, # of connection points: 2
#     Edge 96, Type (0, 0), BuildingBlock: KIFKEQ_clean_linker_1, # of connection points: 2
#     Edge 97, Type (0, 0), BuildingBlock: KIFKEQ_clean_linker_1, # of connection points: 2
#     Edge 98, Type (0, 0), BuildingBlock: KIFKEQ_clean_linker_1, # of connection points: 2
#     Edge 99, Type (0, 0), BuildingBlock: KIFKEQ_clean_linker_1, # of connection points: 2
#     Edge 100, Type (0, 0), BuildingBlock: KIFKEQ_clean_linker_1, # of connection points: 2
#     Edge 101, Type (0, 0), BuildingBlock: KIFKEQ_clean_linker_1, # of connection points: 2
#     Edge 102, Type (0, 0), BuildingBlock: KIFKEQ_clean_linker_1, # of connection points: 2
#     Edge 103, Type (0, 0), BuildingBlock: KIFKEQ_clean_linker_1, # of connection points: 2
#     Edge 104, Type (0, 0), BuildingBlock: KIFKEQ_clean_linker_1, # of connection points: 2
#     Edge 105, Type (0, 0), BuildingBlock: KIFKEQ_clean_linker_1, # of connection points: 2
#     Edge 106, Type (0, 0), BuildingBlock: KIFKEQ_clean_linker_1, # of connection points: 2
#     Edge 107, Type (0, 0), BuildingBlock: KIFKEQ_clean_linker_1, # of connection points: 2
#     Edge 108, Type (0, 0), BuildingBlock: KIFKEQ_clean_linker_1, # of connection points: 2
#     Edge 109, Type (0, 0), BuildingBlock: KIFKEQ_clean_linker_1, # of connection points: 2
#     Edge 110, Type (0, 0), BuildingBlock: KIFKEQ_clean_linker_1, # of connection points: 2
#     Edge 111, Type (0, 0), BuildingBlock: KIFKEQ_clean_linker_1, # of connection points: 2
#     Edge 112, Type (0, 0), BuildingBlock: KIFKEQ_clean_linker_1, # of connection points: 2
#     Edge 113, Type (0, 0), BuildingBlock: KIFKEQ_clean_linker_1, # of connection points: 2
#     Edge 114, Type (0, 0), BuildingBlock: KIFKEQ_clean_linker_1, # of connection points: 2
#     Edge 115, Type (0, 0), BuildingBlock: KIFKEQ_clean_linker_1, # of connection points: 2
#     Edge 116, Type (0, 0), BuildingBlock: KIFKEQ_clean_linker_1, # of connection points: 2
#     Edge 117, Type (0, 0), BuildingBlock: KIFKEQ_clean_linker_1, # of connection points: 2
#     Edge 118, Type (0, 0), BuildingBlock: KIFKEQ_clean_linker_1, # of connection points: 2
#     Edge 119, Type (0, 0), BuildingBlock: KIFKEQ_clean_linker_1, # of connection points: 2
#     Edge 120, Type (0, 0), BuildingBlock: KIFKEQ_clean_linker_1, # of connection points: 2
#     Edge 121, Type (0, 0), BuildingBlock: KIFKEQ_clean_linker_1, # of connection points: 2
#     Edge 122, Type (0, 0), BuildingBlock: KIFKEQ_clean_linker_1, # of connection points: 2
#     Edge 123, Type (0, 0), BuildingBlock: KIFKEQ_clean_linker_1, # of connection points: 2
#     Edge 124, Type (0, 0), BuildingBlock: KIFKEQ_clean_linker_1, # of connection points: 2
#     Edge 125, Type (0, 0), BuildingBlock: KIFKEQ_clean_linker_1, # of connection points: 2
#     Edge 126, Type (0, 0), BuildingBlock: KIFKEQ_clean_linker_1, # of connection points: 2
#     Edge 127, Type (0, 0), BuildingBlock: KIFKEQ_clean_linker_1, # of connection points: 2
#     Edge 128, Type (0, 0), BuildingBlock: KIFKEQ_clean_linker_1, # of connection points: 2
#     Edge 129, Type (0, 0), BuildingBlock: KIFKEQ_clean_linker_1, # of connection points: 2
#     Edge 130, Type (0, 0), BuildingBlock: KIFKEQ_clean_linker_1, # of connection points: 2
#     Edge 131, Type (0, 0), BuildingBlock: KIFKEQ_clean_linker_1, # of connection points: 2
#     Edge 132, Type (0, 0), BuildingBlock: KIFKEQ_clean_linker_1, # of connection points: 2
#     Edge 133, Type (0, 0), BuildingBlock: KIFKEQ_clean_linker_1, # of connection points: 2
#     Edge 134, Type (0, 0), BuildingBlock: KIFKEQ_clean_linker_1, # of connection points: 2
#     Edge 135, Type (0, 0), BuildingBlock: KIFKEQ_clean_linker_1, # of connection points: 2
#     Edge 136, Type (0, 0), BuildingBlock: KIFKEQ_clean_linker_1, # of connection points: 2
#     Edge 137, Type (0, 0), BuildingBlock: KIFKEQ_clean_linker_1, # of connection points: 2
#     Edge 138, Type (0, 0), BuildingBlock: KIFKEQ_clean_linker_1, # of connection points: 2
#     Edge 139, Type (0, 0), BuildingBlock: KIFKEQ_clean_linker_1, # of connection points: 2
#     Edge 140, Type (0, 0), BuildingBlock: KIFKEQ_clean_linker_1, # of connection points: 2
#     Edge 141, Type (0, 0), BuildingBlock: KIFKEQ_clean_linker_1, # of connection points: 2
#     Edge 142, Type (0, 0), BuildingBlock: KIFKEQ_clean_linker_1, # of connection points: 2
#     Edge 143, Type (0, 0), BuildingBlock: KIFKEQ_clean_linker_1, # of connection points: 2
#     Edge 144, Type (0, 0), BuildingBlock: KIFKEQ_clean_linker_1, # of connection points: 2
#     Edge 145, Type (0, 0), BuildingBlock: KIFKEQ_clean_linker_1, # of connection points: 2
#     Edge 146, Type (0, 0), BuildingBlock: KIFKEQ_clean_linker_1, # of connection points: 2
#     Edge 147, Type (0, 0), BuildingBlock: KIFKEQ_clean_linker_1, # of connection points: 2
#     Edge 148, Type (0, 0), BuildingBlock: KIFKEQ_clean_linker_1, # of connection points: 2
#     Edge 149, Type (0, 0), BuildingBlock: KIFKEQ_clean_linker_1, # of connection points: 2
#     Edge 150, Type (0, 0), BuildingBlock: KIFKEQ_clean_linker_1, # of connection points: 2
#     Edge 151, Type (0, 0), BuildingBlock: KIFKEQ_clean_linker_1, # of connection points: 2
#     Edge 152, Type (0, 0), BuildingBlock: KIFKEQ_clean_linker_1, # of connection points: 2
#     Edge 153, Type (0, 0), BuildingBlock: KIFKEQ_clean_linker_1, # of connection points: 2
#     Edge 154, Type (0, 0), BuildingBlock: KIFKEQ_clean_linker_1, # of connection points: 2
#     Edge 155, Type (0, 0), BuildingBlock: KIFKEQ_clean_linker_1, # of connection points: 2
#     Edge 156, Type (0, 0), BuildingBlock: KIFKEQ_clean_linker_1, # of connection points: 2
#     Edge 157, Type (0, 0), BuildingBlock: KIFKEQ_clean_linker_1, # of connection points: 2
#     Edge 158, Type (0, 0), BuildingBlock: KIFKEQ_clean_linker_1, # of connection points: 2
#     Edge 159, Type (0, 0), BuildingBlock: KIFKEQ_clean_linker_1, # of connection points: 2
#     Edge 160, Type (0, 0), BuildingBlock: KIFKEQ_clean_linker_1, # of connection points: 2
#     Edge 161, Type (0, 0), BuildingBlock: KIFKEQ_clean_linker_1, # of connection points: 2
#     Edge 162, Type (0, 0), BuildingBlock: KIFKEQ_clean_linker_1, # of connection points: 2
#     Edge 163, Type (0, 0), BuildingBlock: KIFKEQ_clean_linker_1, # of connection points: 2
#     Edge 164, Type (0, 0), BuildingBlock: KIFKEQ_clean_linker_1, # of connection points: 2
#     Edge 165, Type (0, 0), BuildingBlock: KIFKEQ_clean_linker_1, # of connection points: 2
#     Edge 166, Type (0, 0), BuildingBlock: KIFKEQ_clean_linker_1, # of connection points: 2
#     Edge 167, Type (0, 0), BuildingBlock: KIFKEQ_clean_linker_1, # of connection points: 2
# Relax obj value: 0.455
# Max RMSD: 0.274
# Mean RMSD: 0.274
data_MOF--net-fcl--node1-BEQFEK_clean_sbu_0--edge1-KIFKEQ_clean_linker_1
_symmetry_space_group_name_H-M    P1
_symmetry_Int_Tables_number       1
_symmetry_cell_setting            triclinic
loop_
_symmetry_equiv_pos_as_xyz
'x, y, z'
_cell_length_a     67.650894
_cell_length_b     67.664811
_cell_length_c     67.663001
_cell_angle_alpha  90.006458
_cell_angle_beta   90.011737
_cell_angle_gamma 89.999592
loop_
_atom_site_label
_atom_site_type_symbol
_atom_site_fract_x
_atom_site_fract_y
_atom_site_fract_z
_atom_type_partial_charge
Co0 Co 0.02669 0.13816 0.46336 0.0
Co1 Co 0.01516 0.14157 0.41876 0.0
C2 C 0.01053 0.17552 0.44881 0.0
O3 O 0.01666 0.16568 0.46374 0.0
O4 O 0.00947 0.16772 0.43159 0.0
C5 C 0.03233 0.13017 0.50729 0.0
O6 O 0.02371 0.14665 0.51285 0.0
C7 C 0.98716 0.14448 0.38547 0.0
C8 C 0.00572 0.13294 0.36119 0.0
C9 C 0.98674 0.13917 0.36563 0.0
N10 N 0.00546 0.14102 0.39244 0.0
N11 N 0.01653 0.13445 0.37776 0.0
C12 C 0.97085 0.1534 0.39749 0.0
H13 H 0.96266 0.14166 0.40543 0.0
H14 H 0.96032 0.16151 0.38786 0.0
H15 H 0.97707 0.16358 0.40873 0.0
C16 C 0.99461 0.10841 0.46162 0.0
N17 N 0.0071 0.12106 0.45264 0.0
N18 N 0.00375 0.12081 0.43354 0.0
C19 C 0.9898 0.10709 0.42958 0.0
C20 C 0.9832 0.09901 0.44731 0.0
C21 C 0.9921 0.1073 0.48358 0.0
H22 H 0.99493 0.12199 0.49025 0.0
H23 H 0.97697 0.1025 0.48767 0.0
H24 H 0.00292 0.09661 0.48971 0.0
O25 O 0.05212 0.13857 0.44824 0.0
O26 O 0.04388 0.13876 0.4166 0.0
H27 H 0.98021 0.08458 0.40925 0.0
H28 H 0.97105 0.10884 0.40406 0.0
C29 C 0.98414 0.10051 0.40922 0.0
H30 H 0.99651 0.10297 0.39876 0.0
H31 H 0.0313 0.13027 0.37924 0.0
O32 O 0.03419 0.12626 0.48903 0.0
C33 C 0.05694 0.13859 0.43005 0.0
Co34 Co 0.11208 0.77601 0.70984 0.0
Co35 Co 0.10509 0.76267 0.66608 0.0
C36 C 0.07334 0.75948 0.69788 0.0
O37 O 0.08413 0.76656 0.71171 0.0
O38 O 0.07999 0.75724 0.68032 0.0
C39 C 0.12065 0.78272 0.75338 0.0
O40 O 0.10316 0.77647 0.75904 0.0
C41 C 0.10006 0.73471 0.63314 0.0
C42 C 0.11023 0.75308 0.60809 0.0
C43 C 0.10412 0.7342 0.61302 0.0
N44 N 0.10406 0.75299 0.63977 0.0
N45 N 0.10981 0.76396 0.62468 0.0
C46 C 0.09164 0.71866 0.64584 0.0
H47 H 0.0978 0.71964 0.66102 0.0
H48 H 0.09425 0.70379 0.63952 0.0
H49 H 0.07544 0.72091 0.647 0.0
C50 C 0.14186 0.74403 0.70711 0.0
N51 N 0.12833 0.75597 0.69864 0.0
N52 N 0.12659 0.75128 0.67987 0.0
C53 C 0.13953 0.73668 0.67564 0.0
C54 C 0.14939 0.73141 0.69282 0.0
C55 C 0.14585 0.74331 0.72886 0.0
H56 H 0.15569 0.75578 0.73292 0.0
H57 H 0.13179 0.74488 0.73712 0.0
H58 H 0.15306 0.72926 0.73325 0.0
O59 O 0.11211 0.80116 0.69432 0.0
O60 O 0.10761 0.79136 0.66348 0.0
H61 H 0.14057 0.73967 0.64402 0.0
H62 H 0.15857 0.72283 0.65422 0.0
C63 C 0.14315 0.7283 0.6555 0.0
H64 H 0.13314 0.7156 0.65299 0.0
H65 H 0.11418 0.77871 0.62584 0.0
O66 O 0.12494 0.78326 0.73512 0.0
C67 C 0.11001 0.80507 0.67604 0.0
Co68 Co 0.47342 0.85963 0.9625 0.0
Co69 Co 0.4865 0.85375 0.91842 0.0
C70 C 0.49119 0.82166 0.94968 0.0
O71 O 0.48374 0.83194 0.96371 0.0
O72 O 0.49318 0.82871 0.93226 0.0
C73 C 0.4694 0.86838 0.00624 0.0
O74 O 0.47957 0.85263 0.01129 0.0
C75 C 0.51424 0.85242 0.88482 0.0
C76 C 0.49438 0.86276 0.86102 0.0
C77 C 0.51398 0.85866 0.86526 0.0
N78 N 0.49569 0.85354 0.89189 0.0
N79 N 0.48384 0.85906 0.8774 0.0
C80 C 0.53192 0.84758 0.89719 0.0
H81 H 0.5284 0.84914 0.91315 0.0
H82 H 0.54466 0.85711 0.8932 0.0
H83 H 0.53625 0.83202 0.89433 0.0
C84 C 0.50416 0.89086 0.95961 0.0
N85 N 0.49274 0.8768 0.95126 0.0
N86 N 0.49679 0.87578 0.93229 0.0
C87 C 0.51018 0.8899 0.92781 0.0
C88 C 0.51561 0.89958 0.94502 0.0
C89 C 0.50549 0.89441 0.9814 0.0
H90 H 0.50542 0.88007 0.98931 0.0
H91 H 0.5191 0.90262 0.98542 0.0
H92 H 0.49244 0.9031 0.98622 0.0
O93 O 0.44803 0.85919 0.94721 0.0
O94 O 0.45781 0.85508 0.91631 0.0
H95 H 0.50502 0.89142 0.89644 0.0
H96 H 0.51921 0.91163 0.90648 0.0
C97 C 0.51651 0.89547 0.90736 0.0
H98 H 0.5306 0.88802 0.90372 0.0
H99 H 0.46874 0.86175 0.87906 0.0
O100 O 0.46596 0.87185 0.98811 0.0
C101 C 0.44411 0.85706 0.92892 0.0
Co102 Co 0.38858 0.22214 0.21144 0.0
Co103 Co 0.39627 0.23745 0.16842 0.0
C104 C 0.4271 0.24088 0.20055 0.0
O105 O 0.41632 0.23264 0.21374 0.0
O106 O 0.42075 0.2437 0.183 0.0
C107 C 0.37962 0.21867 0.2547 0.0
O108 O 0.39392 0.2311 0.25898 0.0
C109 C 0.40207 0.26538 0.13545 0.0
C110 C 0.39023 0.2476 0.11072 0.0
C111 C 0.39744 0.26614 0.11545 0.0
N112 N 0.3973 0.24732 0.1422 0.0
N113 N 0.39064 0.23666 0.12726 0.0
C114 C 0.41165 0.281 0.14786 0.0
H115 H 0.40731 0.27927 0.16358 0.0
H116 H 0.40809 0.29607 0.14256 0.0
H117 H 0.42792 0.27911 0.14696 0.0
C118 C 0.35631 0.25206 0.20839 0.0
N119 N 0.37127 0.2416 0.20035 0.0
N120 N 0.37394 0.24753 0.18203 0.0
C121 C 0.36052 0.26169 0.17774 0.0
C122 C 0.34909 0.26522 0.19441 0.0
C123 C 0.34906 0.24957 0.22913 0.0
H124 H 0.34494 0.23391 0.23156 0.0
H125 H 0.36106 0.25349 0.23958 0.0
H126 H 0.33593 0.2589 0.2322 0.0
O127 O 0.38943 0.19744 0.19534 0.0
O128 O 0.39498 0.20874 0.16521 0.0
H129 H 0.36162 0.26255 0.14607 0.0
H130 H 0.34568 0.28094 0.15672 0.0
C131 C 0.35976 0.27286 0.15865 0.0
H132 H 0.37181 0.28391 0.15844 0.0
H133 H 0.38553 0.22217 0.12854 0.0
O134 O 0.37669 0.21366 0.23684 0.0
C135 C 0.39236 0.19443 0.17701 0.0
Co136 Co 0.02823 0.86173 0.03929 0.0
Co137 Co 0.01366 0.85351 0.08247 0.0
C138 C 0.00932 0.82331 0.04965 0.0
O139 O 0.01745 0.83416 0.03645 0.0
O140 O 0.00692 0.82944 0.06735 0.0
C141 C 0.03451 0.87115 0.99594 0.0
O142 O 0.02614 0.85462 0.99015 0.0
C143 C 0.98589 0.84724 0.11536 0.0
C144 C 0.00377 0.8584 0.14034 0.0
C145 C 0.98518 0.85143 0.13545 0.0
N146 N 0.00398 0.85202 0.10871 0.0
N147 N 0.01469 0.85831 0.12378 0.0
C148 C 0.97022 0.83804 0.10271 0.0
H149 H 0.97121 0.84377 0.08737 0.0
H150 H 0.95521 0.84041 0.10877 0.0
H151 H 0.9729 0.82187 0.10207 0.0
C152 C 0.99792 0.89336 0.04307 0.0
N153 N 0.00892 0.87873 0.05098 0.0
N154 N 0.00358 0.87615 0.06949 0.0
C155 C 0.98941 0.88946 0.07409 0.0
C156 C 0.98515 0.9006 0.05739 0.0
C157 C 0.99944 0.90005 0.02205 0.0
H158 H 0.01443 0.90611 0.01949 0.0
H159 H 0.99729 0.88724 0.01205 0.0
H160 H 0.98852 0.91174 0.01846 0.0
O161 O 0.05321 0.86005 0.05502 0.0
O162 O 0.04242 0.85423 0.0853 0.0
H163 H 0.98948 0.88794 0.10577 0.0
H164 H 0.97155 0.90482 0.09585 0.0
C165 C 0.9789 0.8904 0.09354 0.0
H166 H 0.9673 0.87887 0.09395 0.0
H167 H 0.02922 0.86334 0.12259 0.0
O168 O 0.03629 0.8748 0.01428 0.0
C169 C 0.05654 0.85669 0.07323 0.0
Co170 Co 0.38899 0.7774 0.28528 0.0
Co171 Co 0.39337 0.76504 0.32977 0.0
C172 C 0.42624 0.75859 0.3005 0.0
O173 O 0.41632 0.76577 0.28609 0.0
O174 O 0.41888 0.7573 0.31782 0.0
C175 C 0.38162 0.77299 0.24279 0.0
O176 O 0.39055 0.7558 0.24424 0.0
C177 C 0.39722 0.73975 0.36504 0.0
C178 C 0.38091 0.75771 0.38693 0.0
C179 C 0.3901 0.73962 0.3843 0.0
N180 N 0.39193 0.75694 0.35661 0.0
N181 N 0.38259 0.76776 0.3699 0.0
C182 C 0.40953 0.72439 0.35491 0.0
H183 H 0.40522 0.72312 0.33914 0.0
H184 H 0.40862 0.70983 0.36234 0.0
H185 H 0.42519 0.72926 0.35524 0.0
C186 C 0.35436 0.74965 0.28886 0.0
N187 N 0.36977 0.75972 0.29667 0.0
N188 N 0.37188 0.75432 0.31524 0.0
C189 C 0.35811 0.74055 0.3197 0.0
C190 C 0.34671 0.73698 0.30304 0.0
C191 C 0.34655 0.75224 0.26836 0.0
H192 H 0.34671 0.76808 0.26427 0.0
H193 H 0.35588 0.74373 0.25794 0.0
H194 H 0.33116 0.74667 0.26716 0.0
O195 O 0.3903 0.80316 0.29943 0.0
O196 O 0.39239 0.79408 0.3308 0.0
H197 H 0.35652 0.7404 0.35131 0.0
H198 H 0.34406 0.71985 0.33997 0.0
C199 C 0.35707 0.72969 0.33895 0.0
H200 H 0.37039 0.72036 0.34055 0.0
H201 H 0.37655 0.78166 0.36706 0.0
O202 O 0.38059 0.7841 0.2579 0.0
C203 C 0.39165 0.80748 0.31769 0.0
Co204 Co 0.47304 0.13852 0.53469 0.0
Co205 Co 0.48736 0.14539 0.57821 0.0
C206 C 0.49201 0.17678 0.54736 0.0
O207 O 0.48396 0.16617 0.53394 0.0
O208 O 0.4945 0.17024 0.56487 0.0
C209 C 0.4762 0.13033 0.49237 0.0
O210 O 0.49311 0.13985 0.49306 0.0
C211 C 0.51347 0.15053 0.61285 0.0
C212 C 0.49543 0.13578 0.63576 0.0
C213 C 0.51367 0.14445 0.63247 0.0
N214 N 0.49606 0.14518 0.60489 0.0
N215 N 0.48522 0.13678 0.61878 0.0
C216 C 0.52897 0.162 0.60198 0.0
H217 H 0.52846 0.15854 0.58595 0.0
H218 H 0.54396 0.15926 0.60797 0.0
H219 H 0.52576 0.17799 0.60369 0.0
C220 C 0.50203 0.10502 0.53838 0.0
N221 N 0.49175 0.12036 0.54601 0.0
N222 N 0.49777 0.12335 0.56428 0.0
C223 C 0.51208 0.11013 0.56872 0.0
C224 C 0.51541 0.09828 0.55234 0.0
C225 C 0.49911 0.09656 0.51817 0.0
H226 H 0.48314 0.09603 0.51457 0.0
H227 H 0.5069 0.10593 0.50724 0.0
H228 H 0.50524 0.08138 0.51719 0.0
O229 O 0.44774 0.13909 0.54975 0.0
O230 O 0.45841 0.14444 0.58017 0.0
H231 H 0.51341 0.11025 0.60035 0.0
H232 H 0.53343 0.09703 0.58893 0.0
C233 C 0.52366 0.11007 0.58758 0.0
H234 H 0.53312 0.12338 0.58809 0.0
H235 H 0.47116 0.1309 0.61643 0.0
O236 O 0.46569 0.12913 0.50788 0.0
C237 C 0.44434 0.14197 0.56802 0.0
Co238 Co 0.11205 0.22416 0.78736 0.0
Co239 Co 0.10496 0.23766 0.83101 0.0
C240 C 0.07352 0.24142 0.79897 0.0
O241 O 0.08427 0.23407 0.78524 0.0
O242 O 0.08009 0.24357 0.81656 0.0
C243 C 0.12077 0.21661 0.74396 0.0
O244 O 0.10312 0.22218 0.73808 0.0
C245 C 0.09968 0.26554 0.86394 0.0
C246 C 0.11 0.24724 0.88898 0.0
C247 C 0.10368 0.26606 0.88407 0.0
N248 N 0.10389 0.24732 0.85729 0.0
N249 N 0.10974 0.23638 0.87237 0.0
C250 C 0.09108 0.2815 0.85124 0.0
H251 H 0.09825 0.28146 0.83649 0.0
H252 H 0.09226 0.29627 0.85819 0.0
H253 H 0.07518 0.27823 0.84884 0.0
C254 C 0.14223 0.2558 0.79029 0.0
N255 N 0.12855 0.24398 0.79868 0.0
N256 N 0.12673 0.2487 0.81743 0.0
C257 C 0.13974 0.26322 0.82173 0.0
C258 C 0.14977 0.26839 0.80461 0.0
C259 C 0.14631 0.2565 0.76856 0.0
H260 H 0.15622 0.24406 0.76457 0.0
H261 H 0.1323 0.25485 0.76022 0.0
H262 H 0.15349 0.27057 0.76418 0.0
O263 O 0.1115 0.19899 0.80286 0.0
O264 O 0.10691 0.20894 0.83363 0.0
H265 H 0.14054 0.26033 0.85337 0.0
H266 H 0.15858 0.27719 0.84326 0.0
C267 C 0.14319 0.27168 0.84188 0.0
H268 H 0.13312 0.28435 0.8443 0.0
H269 H 0.11426 0.22169 0.87119 0.0
O270 O 0.12505 0.21674 0.76223 0.0
C271 C 0.10915 0.19516 0.82112 0.0
Co272 Co 0.46215 0.02749 0.13728 0.0
Co273 Co 0.41871 0.01321 0.14343 0.0
C274 C 0.44986 0.01077 0.17577 0.0
O275 O 0.46379 0.01813 0.16531 0.0
O276 O 0.43255 0.00819 0.1687 0.0
C277 C 0.50559 0.03285 0.12926 0.0
O278 O 0.51047 0.02264 0.14503 0.0
C279 C 0.38715 0.98425 0.14938 0.0
C280 C 0.36131 0.00085 0.13815 0.0
C281 C 0.36711 0.98259 0.14532 0.0
N282 N 0.39291 0.00257 0.1444 0.0
N283 N 0.37737 0.01251 0.13801 0.0
C284 C 0.40057 0.96932 0.15868 0.0
H285 H 0.4148 0.9687 0.15056 0.0
H286 H 0.39374 0.95446 0.15947 0.0
H287 H 0.40402 0.9742 0.17394 0.0
C288 C 0.46056 0.99545 0.10713 0.0
N289 N 0.45175 0.00721 0.12063 0.0
N290 N 0.43307 0.0021 0.12222 0.0
C291 C 0.42927 0.98733 0.10935 0.0
C292 C 0.44661 0.9824 0.09962 0.0
C293 C 0.48231 0.9954 0.10312 0.0
H294 H 0.49048 0.99566 0.11733 0.0
H295 H 0.48694 0.98221 0.09456 0.0
H296 H 0.48626 0.0089 0.09469 0.0
O297 O 0.44592 0.05218 0.13705 0.0
O298 O 0.41519 0.04174 0.14078 0.0
H299 H 0.40831 0.97256 0.09045 0.0
H300 H 0.40702 0.96587 0.11603 0.0
C301 C 0.40935 0.97839 0.10575 0.0
H302 H 0.39758 0.98955 0.108 0.0
H303 H 0.37787 0.02705 0.13289 0.0
O304 O 0.48749 0.03581 0.12529 0.0
C305 C 0.42751 0.0557 0.13872 0.0
Co306 Co 0.22338 0.21238 0.38749 0.0
Co307 Co 0.23662 0.16865 0.39417 0.0
C308 C 0.24086 0.20093 0.4256 0.0
O309 O 0.23394 0.21486 0.41486 0.0
O310 O 0.24239 0.18327 0.41906 0.0
C311 C 0.21685 0.25564 0.37906 0.0
O312 O 0.22489 0.26097 0.39591 0.0
C313 C 0.26522 0.13654 0.40031 0.0
C314 C 0.248 0.11097 0.38944 0.0
C315 C 0.26648 0.11644 0.39633 0.0
N316 N 0.24694 0.14264 0.39551 0.0
N317 N 0.23664 0.12725 0.38934 0.0
C318 C 0.28055 0.1497 0.40936 0.0
H319 H 0.28355 0.16244 0.39951 0.0
H320 H 0.29444 0.14164 0.41263 0.0
H321 H 0.27462 0.15587 0.42334 0.0
C322 C 0.25442 0.20931 0.35664 0.0
N323 N 0.2428 0.20099 0.37055 0.0
N324 N 0.24756 0.18225 0.37239 0.0
C325 C 0.26196 0.17791 0.35927 0.0
C326 C 0.26698 0.19496 0.3491 0.0
C327 C 0.25487 0.23099 0.35226 0.0
H328 H 0.24164 0.23494 0.34343 0.0
H329 H 0.25438 0.23945 0.36629 0.0
H330 H 0.26831 0.23523 0.34389 0.0
O331 O 0.19837 0.19676 0.38917 0.0
O332 O 0.20788 0.16559 0.39187 0.0
H333 H 0.2757 0.15633 0.34034 0.0
H334 H 0.28331 0.15543 0.36565 0.0
C335 C 0.27043 0.15777 0.35581 0.0
H336 H 0.25918 0.14624 0.3587 0.0
H337 H 0.22205 0.12799 0.38437 0.0
O338 O 0.21536 0.23744 0.37475 0.0
C339 C 0.19429 0.17845 0.39068 0.0
Co340 Co 0.0394 0.97327 0.63912 0.0
Co341 Co 0.08243 0.98771 0.64768 0.0
C342 C 0.04905 0.99061 0.67792 0.0
O343 O 0.03582 0.98294 0.6668 0.0
O344 O 0.06676 0.99312 0.67187 0.0
C345 C 0.99657 0.96698 0.62842 0.0
O346 O 0.9904 0.9753 0.64483 0.0
C347 C 0.11365 0.0174 0.65327 0.0
C348 C 0.1399 -9e-05 0.6448 0.0
C349 C 0.13382 0.01886 0.64964 0.0
N350 N 0.10811 0.99859 0.65005 0.0
N351 N 0.12395 0.98814 0.64547 0.0
C352 C 0.09988 0.03322 0.66037 0.0
H353 H 0.0903 0.02718 0.67224 0.0
H354 H 0.08999 0.03797 0.64823 0.0
H355 H 0.10814 0.04617 0.6661 0.0
C356 C 0.04268 0.00511 0.60911 0.0
N357 N 0.05076 0.99347 0.62313 0.0
N358 N 0.06949 0.99815 0.62524 0.0
C359 C 0.07417 0.01225 0.61191 0.0
C360 C 0.05725 0.01742 0.60155 0.0
C361 C 0.02104 0.00577 0.60455 0.0
H362 H 0.01723 0.99319 0.59475 0.0
H363 H 0.01244 0.00435 0.61842 0.0
H364 H 0.01683 0.01975 0.5971 0.0
O365 O 0.05575 0.94857 0.64002 0.0
O366 O 0.08616 0.95916 0.64571 0.0
H367 H 0.10579 0.00843 0.61228 0.0
H368 H 0.09637 0.02252 0.59167 0.0
C369 C 0.09465 0.01951 0.60771 0.0
H370 H 0.09731 0.0336 0.61556 0.0
H371 H 0.1237 0.97317 0.64178 0.0
O372 O 0.01497 0.96515 0.62522 0.0
C373 C 0.07404 0.94514 0.6429 0.0
Co374 Co 0.27633 0.78794 0.88809 0.0
Co375 Co 0.26184 0.83117 0.89543 0.0
C376 C 0.25791 0.79888 0.92631 0.0
O377 O 0.26583 0.78543 0.91565 0.0
O378 O 0.25551 0.81643 0.91983 0.0
C379 C 0.28044 0.74473 0.87911 0.0
O380 O 0.26885 0.7401 0.89397 0.0
C381 C 0.23293 0.86282 0.90132 0.0
C382 C 0.25006 0.88876 0.89122 0.0
C383 C 0.23148 0.88292 0.89749 0.0
N384 N 0.25142 0.85706 0.89699 0.0
N385 N 0.26169 0.87267 0.89135 0.0
C386 C 0.21753 0.8493 0.90967 0.0
H387 H 0.2184 0.83459 0.90246 0.0
H388 H 0.20244 0.8555 0.90835 0.0
H389 H 0.22072 0.84704 0.9256 0.0
C390 C 0.24596 0.79104 0.85631 0.0
N391 N 0.25691 0.79915 0.87088 0.0
N392 N 0.25177 0.81777 0.87299 0.0
C393 C 0.23788 0.82227 0.85935 0.0
C394 C 0.23348 0.80537 0.84859 0.0
C395 C 0.24726 0.76987 0.85005 0.0
H396 H 0.26245 0.76676 0.84477 0.0
H397 H 0.2442 0.7602 0.86293 0.0
H398 H 0.23675 0.76638 0.83797 0.0
O399 O 0.30111 0.80395 0.88933 0.0
O400 O 0.29054 0.83447 0.89434 0.0
H401 H 0.23857 0.85398 0.86074 0.0
H402 H 0.22201 0.84431 0.8424 0.0
C403 C 0.22797 0.84196 0.85745 0.0
H404 H 0.21538 0.8427 0.86786 0.0
H405 H 0.27641 0.87219 0.88677 0.0
O406 O 0.28474 0.76272 0.87591 0.0
C407 C 0.30456 0.82223 0.89212 0.0
Co408 Co 0.46512 0.97466 0.3598 0.0
Co409 Co 0.42052 0.98634 0.35691 0.0
C410 C 0.45047 0.99261 0.32325 0.0
O411 O 0.46529 0.98582 0.33281 0.0
O412 O 0.43321 0.99349 0.33102 0.0
C413 C 0.50916 0.96858 0.36715 0.0
O414 O 0.51473 0.9769 0.35051 0.0
C415 C 0.38688 0.01403 0.35698 0.0
C416 C 0.36372 0.99459 0.36937 0.0
C417 C 0.36769 0.01402 0.36431 0.0
N418 N 0.39401 0.99552 0.3583 0.0
N419 N 0.37989 0.98391 0.36515 0.0
C420 C 0.39902 0.03152 0.35098 0.0
H421 H 0.41502 0.02794 0.35166 0.0
H422 H 0.39568 0.04447 0.36048 0.0
H423 H 0.39523 0.03552 0.33553 0.0
C424 C 0.46363 0.00589 0.39031 0.0
N425 N 0.4545 0.99354 0.37762 0.0
N426 N 0.43539 0.99682 0.37818 0.0
C427 C 0.4316 0.0105 0.39221 0.0
C428 C 0.44942 0.0171 0.40006 0.0
C429 C 0.48559 0.00862 0.391 0.0
H430 H 0.492 0.006 0.37615 0.0
H431 H 0.48963 0.02374 0.39588 0.0
H432 H 0.49203 0.99777 0.40147 0.0
O433 O 0.45023 0.94914 0.35858 0.0
O434 O 0.41864 0.95753 0.35833 0.0
H435 H 0.41171 0.01949 0.41532 0.0
H436 H 0.40617 0.02939 0.39146 0.0
C437 C 0.41137 0.01601 0.39928 0.0
H438 H 0.40084 0.00375 0.39667 0.0
H439 H 0.38173 0.96892 0.36825 0.0
O440 O 0.49092 0.96709 0.37124 0.0
C441 C 0.43202 0.94442 0.35821 0.0
Co442 Co 0.27694 0.21183 0.61045 0.0
Co443 Co 0.26245 0.16868 0.60255 0.0
C444 C 0.25816 0.20175 0.57232 0.0
O445 O 0.26626 0.21502 0.58306 0.0
O446 O 0.25588 0.18409 0.57856 0.0
C447 C 0.28189 0.25487 0.62002 0.0
O448 O 0.27134 0.26 0.60455 0.0
C449 C 0.23304 0.1372 0.59725 0.0
C450 C 0.25066 0.11111 0.60597 0.0
C451 C 0.23168 0.11705 0.60106 0.0
N452 N 0.25181 0.14286 0.60047 0.0
N453 N 0.26235 0.12712 0.60518 0.0
C454 C 0.21716 0.15086 0.5901 0.0
H455 H 0.21434 0.16255 0.60121 0.0
H456 H 0.20329 0.14283 0.58667 0.0
H457 H 0.2224 0.15845 0.57655 0.0
C458 C 0.24652 0.20832 0.64201 0.0
N459 N 0.25755 0.20034 0.62744 0.0
N460 N 0.25279 0.1816 0.62547 0.0
C461 C 0.2393 0.17684 0.63943 0.0
C462 C 0.23453 0.19374 0.65002 0.0
C463 C 0.24732 0.22959 0.648 0.0
H464 H 0.26219 0.23287 0.65404 0.0
H465 H 0.2449 0.23907 0.63484 0.0
H466 H 0.2362 0.23318 0.65948 0.0
O467 O 0.30171 0.19575 0.60879 0.0
O468 O 0.29114 0.16529 0.60338 0.0
H469 H 0.24078 0.14515 0.63693 0.0
H470 H 0.2277 0.15384 0.6582 0.0
C471 C 0.2306 0.15671 0.64236 0.0
H472 H 0.21623 0.15574 0.63458 0.0
H473 H 0.27732 0.12748 0.60888 0.0
O474 O 0.28538 0.23673 0.62331 0.0
C475 C 0.30517 0.1775 0.60574 0.0
Co476 Co 0.03807 0.02726 0.8621 0.0
Co477 Co 0.08122 0.01291 0.85401 0.0
C478 C 0.04806 0.00765 0.82421 0.0
O479 O 0.03494 0.01604 0.83491 0.0
O480 O 0.06581 0.00547 0.83027 0.0
C481 C 0.99487 0.03267 0.87097 0.0
O482 O 0.98974 0.02309 0.85489 0.0
C483 C 0.11392 0.9845 0.85022 0.0
C484 C 0.13881 0.00346 0.85954 0.0
C485 C 0.13377 0.98408 0.85534 0.0
N486 N 0.10746 0.0032 0.85205 0.0
N487 N 0.12259 0.01455 0.85686 0.0
C488 C 0.10078 0.96721 0.84602 0.0
H489 H 0.08509 0.97103 0.84894 0.0
H490 H 0.10525 0.95416 0.85488 0.0
H491 H 0.10226 0.96322 0.83018 0.0
C492 C 0.04199 0.99745 0.89417 0.0
N493 N 0.04985 0.00828 0.87939 0.0
N494 N 0.06858 0.00352 0.87732 0.0
C495 C 0.07345 0.99024 0.89145 0.0
C496 C 0.05663 0.98555 0.90224 0.0
C497 C 0.02076 0.99838 0.9003 0.0
H498 H 0.01755 0.01336 0.90609 0.0
H499 H 0.01117 0.99576 0.88726 0.0
H500 H 0.01724 0.9875 0.91203 0.0
O501 O 0.0537 0.05231 0.86008 0.0
O502 O 0.08401 0.04167 0.85414 0.0
H503 H 0.10508 0.9918 0.88876 0.0
H504 H 0.09667 0.9788 0.91012 0.0
C505 C 0.09361 0.98159 0.89431 0.0
H506 H 0.09451 0.96718 0.88661 0.0
H507 H 0.12151 0.02963 0.85991 0.0
O508 O 0.01304 0.03543 0.8748 0.0
C509 C 0.07187 0.05573 0.85658 0.0
Co510 Co 0.22447 0.78446 0.11109 0.0
Co511 Co 0.23783 0.82836 0.10676 0.0
C512 C 0.24211 0.79798 0.07362 0.0
O513 O 0.23461 0.78375 0.08354 0.0
O514 O 0.24426 0.81523 0.08109 0.0
C515 C 0.21644 0.74074 0.11807 0.0
O516 O 0.22236 0.73512 0.10046 0.0
C517 C 0.2657 0.86179 0.10599 0.0
C518 C 0.24648 0.88512 0.11841 0.0
C519 C 0.26581 0.88102 0.11314 0.0
N520 N 0.24719 0.85474 0.10762 0.0
N521 N 0.2357 0.86897 0.11444 0.0
C522 C 0.28309 0.84959 0.09983 0.0
H523 H 0.27955 0.83359 0.10082 0.0
H524 H 0.29623 0.85309 0.10901 0.0
H525 H 0.28677 0.85314 0.08425 0.0
C526 C 0.25663 0.78538 0.14081 0.0
N527 N 0.24431 0.79465 0.12817 0.0
N528 N 0.2483 0.81363 0.12817 0.0
C529 C 0.26244 0.81725 0.14179 0.0
C530 C 0.26861 0.7994 0.14993 0.0
C531 C 0.25847 0.76336 0.1421 0.0
H532 H 0.25518 0.75661 0.12753 0.0
H533 H 0.27353 0.75885 0.14672 0.0
H534 H 0.24764 0.7577 0.15303 0.0
O535 O 0.1992 0.79995 0.11112 0.0
O536 O 0.20918 0.83087 0.1082 0.0
H537 H 0.27256 0.83732 0.16428 0.0
H538 H 0.28211 0.84203 0.1401 0.0
C539 C 0.26875 0.83743 0.14831 0.0
H540 H 0.25677 0.8483 0.14574 0.0
H541 H 0.22074 0.86721 0.11775 0.0
O542 O 0.21676 0.7589 0.12276 0.0
C543 C 0.19539 0.81831 0.10961 0.0
Co544 Co 0.13708 0.46383 0.02774 0.0
Co545 Co 0.14146 0.41954 0.01466 0.0
C546 C 0.17436 0.44895 0.00883 0.0
O547 O 0.16457 0.46314 0.01659 0.0
O548 O 0.16689 0.43173 0.00691 0.0
C549 C 0.13053 0.50708 0.02589 0.0
O550 O 0.14113 0.50748 0.00962 0.0
C551 C 0.14332 0.38419 0.98888 0.0
C552 C 0.12781 0.36282 0.00811 0.0
C553 C 0.13525 0.36529 0.98921 0.0
N554 N 0.14002 0.39264 0.00658 0.0
N555 N 0.13137 0.37953 0.01817 0.0
C556 C 0.15203 0.39483 0.97156 0.0
H557 H 0.15206 0.41103 0.97415 0.0
H558 H 0.14375 0.39132 0.95784 0.0
H559 H 0.16751 0.38983 0.9695 0.0
C560 C 0.10347 0.46131 0.99891 0.0
N561 N 0.11832 0.453 0.00939 0.0
N562 N 0.11972 0.43424 0.0044 0.0
C563 C 0.10559 0.43002 0.99091 0.0
C564 C 0.0951 0.44713 0.98672 0.0
C565 C 0.09718 0.48244 0.00043 0.0
H566 H 0.09553 0.48658 0.01618 0.0
H567 H 0.10856 0.49196 0.99351 0.0
H568 H 0.08287 0.48501 0.99283 0.0
O569 O 0.13727 0.44922 0.05333 0.0
O570 O 0.14078 0.41823 0.04361 0.0
H571 H 0.10464 0.39838 0.99203 0.0
H572 H 0.08838 0.40885 0.97397 0.0
C573 C 0.10302 0.41039 0.98106 0.0
H574 H 0.11428 0.40878 0.96935 0.0
H575 H 0.12662 0.38247 0.03255 0.0
O576 O 0.12836 0.49086 0.0351 0.0
C577 C 0.13915 0.43094 0.0573 0.0
Co578 Co 0.63848 0.03762 0.97385 0.0
Co579 Co 0.6504 0.07936 0.98987 0.0
C580 C 0.67816 0.04428 0.99144 0.0
O581 O 0.66613 0.03262 0.98272 0.0
O582 O 0.67362 0.06218 0.99538 0.0
C583 C 0.6276 0.99534 0.96762 0.0
O584 O 0.64422 0.98975 0.97596 0.0
C585 C 0.65762 0.10996 0.01997 0.0
C586 C 0.65059 0.13679 0.00273 0.0
C587 C 0.65507 0.13029 0.02163 0.0
N588 N 0.65414 0.10479 0.0011 0.0
N589 N 0.65043 0.12095 0.99081 0.0
C590 C 0.66403 0.09566 0.03561 0.0
H591 H 0.65223 0.08466 0.03839 0.0
H592 H 0.66802 0.10331 0.04956 0.0
H593 H 0.67705 0.0873 0.03017 0.0
C594 C 0.60864 0.04198 0.00566 0.0
N595 N 0.62341 0.04933 0.99449 0.0
N596 N 0.62704 0.06762 -3e-05 0.0
C597 C 0.614 0.07277 0.01419 0.0
C598 C 0.60223 0.05659 0.01855 0.0
C599 C 0.6022 0.02082 0.00526 0.0
H600 H 0.61537 0.0111 0.00439 0.0
H601 H 0.59354 0.01681 0.01858 0.0
H602 H 0.59299 0.01825 0.99194 0.0
O603 O 0.63948 0.05446 0.9497 0.0
O604 O 0.64868 0.08366 0.96119 0.0
H605 H 0.61659 0.1044 0.01166 0.0
H606 H 0.59565 0.09595 0.02584 0.0
C607 C 0.61145 0.09317 0.02238 0.0
H608 H 0.61979 0.09461 0.03637 0.0
H609 H 0.64676 0.12105 0.97583 0.0
O610 O 0.62393 0.01363 0.96556 0.0
C611 C 0.64413 0.07246 0.94684 0.0
Co612 Co 0.2106 0.38792 0.22324 0.0
Co613 Co 0.16928 0.40051 0.23984 0.0
C614 C 0.20463 0.4275 0.24177 0.0
O615 O 0.2159 0.41537 0.23268 0.0
O616 O 0.1867 0.42329 0.24589 0.0
C617 C 0.2529 0.377 0.21803 0.0
O618 O 0.25815 0.39298 0.22772 0.0
C619 C 0.13832 0.40902 0.26925 0.0
C620 C 0.11166 0.40115 0.25209 0.0
C621 C 0.11796 0.40665 0.27077 0.0
N622 N 0.1437 0.40453 0.25066 0.0
N623 N 0.12765 0.40031 0.24039 0.0
C624 C 0.15248 0.4162 0.28468 0.0
H625 H 0.15595 0.43193 0.28161 0.0
H626 H 0.16661 0.40794 0.28371 0.0
H627 H 0.1462 0.41525 0.29977 0.0
C628 C 0.20569 0.35729 0.25427 0.0
N629 N 0.19858 0.37247 0.2435 0.0
N630 N 0.18061 0.37671 0.24962 0.0
C631 C 0.17549 0.36381 0.264 0.0
C632 C 0.19138 0.35137 0.26768 0.0
C633 C 0.22598 0.3488 0.25196 0.0
H634 H 0.22769 0.34307 0.23672 0.0
H635 H 0.23713 0.36059 0.25433 0.0
H636 H 0.22873 0.33649 0.26244 0.0
O637 O 0.19395 0.3897 0.19909 0.0
O638 O 0.16518 0.3996 0.21104 0.0
H639 H 0.14411 0.36857 0.26496 0.0
H640 H 0.15265 0.34923 0.28097 0.0
C641 C 0.15625 0.36399 0.27491 0.0
H642 H 0.15731 0.37432 0.28755 0.0
H643 H 0.12771 0.39588 0.22562 0.0
O644 O 0.23471 0.37364 0.2148 0.0
C645 C 0.17611 0.39505 0.19649 0.0
Co646 Co 0.86314 0.96245 0.4721 0.0
Co647 Co 0.85659 0.91886 0.48655 0.0
C648 C 0.82579 0.95006 0.49284 0.0
O649 O 0.83601 0.96342 0.48423 0.0
O650 O 0.83236 0.93252 0.49506 0.0
C651 C 0.87151 0.00479 0.47478 0.0
O652 O 0.86211 0.00424 0.49177 0.0
C653 C 0.85194 0.88475 0.51323 0.0
C654 C 0.86569 0.86124 0.49518 0.0
C655 C 0.85774 0.86505 0.51364 0.0
N656 N 0.8568 0.89227 0.4955 0.0
N657 N 0.8646 0.87803 0.48466 0.0
C658 C 0.84119 0.89616 0.52886 0.0
H659 H 0.84644 0.9117 0.5292 0.0
H660 H 0.84261 0.88927 0.54364 0.0
H661 H 0.82526 0.89654 0.52496 0.0
C662 C 0.89765 0.95845 0.4998 0.0
N663 N 0.882 0.95087 0.48994 0.0
N664 N 0.87933 0.9325 0.49579 0.0
C665 C 0.89314 0.92789 0.50947 0.0
C666 C 0.90499 0.9443 0.51267 0.0
C667 C 0.90563 0.97888 0.49718 0.0
H668 H 0.90604 0.98271 0.48127 0.0
H669 H 0.896 0.98948 0.50511 0.0
H670 H 0.92081 0.98014 0.50329 0.0
O671 O 0.86104 0.94737 0.44689 0.0
O672 O 0.85577 0.91692 0.45761 0.0
H673 H 0.89263 0.89625 0.51031 0.0
H674 H 0.90757 0.90714 0.52934 0.0
C675 C 0.8938 0.90883 0.5207 0.0
H676 H 0.88129 0.90835 0.53121 0.0
H677 H 0.87001 0.88002 0.47035 0.0
O678 O 0.87258 0.9892 0.46437 0.0
C679 C 0.85759 0.92918 0.44353 0.0
Co680 Co 0.78759 0.11318 0.22165 0.0
Co681 Co 0.83159 0.10754 0.23492 0.0
C682 C 0.80107 0.07497 0.23874 0.0
O683 O 0.78695 0.08529 0.23157 0.0
O684 O 0.81839 0.08213 0.24085 0.0
C685 C 0.74432 0.1205 0.22143 0.0
O686 O 0.74248 0.10805 0.23621 0.0
C687 C 0.86445 0.10273 0.26289 0.0
C688 C 0.88939 0.11409 0.24508 0.0
C689 C 0.88447 0.10725 0.26372 0.0
N690 N 0.85787 0.10716 0.24469 0.0
N691 N 0.8729 0.11361 0.23403 0.0
C692 C 0.85182 0.0935 0.27854 0.0
H693 H 0.83717 0.10086 0.27905 0.0
H694 H 0.85897 0.09384 0.29327 0.0
H695 H 0.84913 0.07784 0.27449 0.0
C696 C 0.7902 0.14487 0.25247 0.0
N697 N 0.79848 0.13066 0.24113 0.0
N698 N 0.81725 0.12892 0.24598 0.0
C699 C 0.82154 0.14224 0.26021 0.0
C700 C 0.80452 0.15251 0.26501 0.0
C701 C 0.76863 0.14972 0.2526 0.0
H702 H 0.76408 0.15472 0.23768 0.0
H703 H 0.76016 0.13626 0.25644 0.0
H704 H 0.76497 0.1614 0.26348 0.0
O705 O 0.80302 0.11338 0.19647 0.0
O706 O 0.83403 0.10978 0.20617 0.0
H707 H 0.85318 0.14344 0.25743 0.0
H708 H 0.84287 0.16109 0.27452 0.0
C709 C 0.84163 0.14577 0.26878 0.0
H710 H 0.84411 0.13555 0.28132 0.0
H711 H 0.87175 0.11838 0.21941 0.0
O712 O 0.76124 0.12346 0.21384 0.0
C713 C 0.82134 0.11174 0.1925 0.0
Co714 Co 0.36155 0.54039 0.52447 0.0
Co715 Co 0.355 0.58472 0.51292 0.0
C716 C 0.32307 0.55303 0.5083 0.0
O717 O 0.33381 0.53876 0.51451 0.0
O718 O 0.3298 0.57065 0.50714 0.0
C719 C 0.37097 0.49675 0.52767 0.0
O720 O 0.35533 0.49164 0.51735 0.0
C721 C 0.34901 0.61827 0.48596 0.0
C722 C 0.36053 0.64279 0.50424 0.0
C723 C 0.35354 0.63831 0.48553 0.0
N724 N 0.35366 0.61126 0.50395 0.0
N725 N 0.36012 0.62607 0.51492 0.0
C726 C 0.33971 0.60596 0.47009 0.0
H727 H 0.32409 0.60311 0.47422 0.0
H728 H 0.3471 0.59136 0.46918 0.0
H729 H 0.33985 0.61346 0.45553 0.0
C730 C 0.3921 0.54442 0.49317 0.0
N731 N 0.37829 0.55238 0.50514 0.0
N732 N 0.37655 0.5713 0.50107 0.0
C733 C 0.38975 0.57612 0.48686 0.0
C734 C 0.39974 0.55914 0.48112 0.0
C735 C 0.39773 0.52304 0.49317 0.0
H736 H 0.4041 0.5192 0.50776 0.0
H737 H 0.38435 0.51387 0.49079 0.0
H738 H 0.40888 0.51957 0.48167 0.0
O739 O 0.36075 0.55507 0.55004 0.0
O740 O 0.35801 0.58655 0.54166 0.0
H741 H 0.38921 0.60778 0.48931 0.0
H742 H 0.40701 0.59855 0.47195 0.0
C743 C 0.392 0.59628 0.47803 0.0
H744 H 0.38142 0.59797 0.46566 0.0
H745 H 0.36514 0.62458 0.52943 0.0
O746 O 0.37414 0.51486 0.53146 0.0
C747 C 0.35952 0.57323 0.55476 0.0
Co748 Co 0.21038 0.61123 0.27555 0.0
Co749 Co 0.16891 0.5985 0.25923 0.0
C750 C 0.20462 0.57173 0.2571 0.0
O751 O 0.21594 0.58388 0.26611 0.0
O752 O 0.18663 0.57589 0.25315 0.0
C753 C 0.25251 0.6231 0.2809 0.0
O754 O 0.25819 0.60718 0.27134 0.0
C755 C 0.13822 0.5904 0.22939 0.0
C756 C 0.1114 0.5976 0.24657 0.0
C757 C 0.11786 0.59284 0.22773 0.0
N758 N 0.14343 0.59425 0.24818 0.0
N759 N 0.12727 0.59802 0.25846 0.0
C760 C 0.15255 0.58385 0.21385 0.0
H761 H 0.1652 0.59424 0.21306 0.0
H762 H 0.14544 0.58224 0.19918 0.0
H763 H 0.15875 0.56932 0.21826 0.0
C764 C 0.20529 0.64141 0.2442 0.0
N765 N 0.19819 0.62645 0.25527 0.0
N766 N 0.18002 0.62245 0.24962 0.0
C767 C 0.17468 0.63547 0.23543 0.0
C768 C 0.19069 0.64754 0.23121 0.0
C769 C 0.22585 0.6494 0.24574 0.0
H770 H 0.22797 0.65589 0.26062 0.0
H771 H 0.23662 0.63718 0.24385 0.0
H772 H 0.22878 0.66105 0.23459 0.0
O773 O 0.19372 0.60921 0.2997 0.0
O774 O 0.16482 0.59932 0.28799 0.0
H775 H 0.14327 0.63052 0.23543 0.0
H776 H 0.15106 0.65141 0.22113 0.0
C777 C 0.15495 0.63611 0.22545 0.0
H778 H 0.15547 0.6272 0.21175 0.0
H779 H 0.12719 0.60197 0.27337 0.0
O780 O 0.23422 0.62603 0.28401 0.0
C781 C 0.1759 0.60384 0.30245 0.0
Co782 Co 0.28824 0.38911 0.77495 0.0
Co783 Co 0.33268 0.39399 0.76305 0.0
C784 C 0.30166 0.42667 0.75785 0.0
O785 O 0.2871 0.41652 0.76435 0.0
O786 O 0.31908 0.41941 0.75682 0.0
C787 C 0.24449 0.38074 0.77968 0.0
O788 O 0.23931 0.39674 0.77 0.0
C789 C 0.36558 0.39743 0.73486 0.0
C790 C 0.39025 0.3863 0.75317 0.0
C791 C 0.38543 0.39214 0.73415 0.0
N792 N 0.35897 0.39422 0.75332 0.0
N793 N 0.37389 0.38799 0.76427 0.0
C794 C 0.35317 0.406 0.71865 0.0
H795 H 0.34349 0.41774 0.72474 0.0
H796 H 0.34341 0.39448 0.71234 0.0
H797 H 0.36254 0.41225 0.70673 0.0
C798 C 0.29113 0.35799 0.74418 0.0
N799 N 0.29956 0.37173 0.75592 0.0
N800 N 0.31859 0.37253 0.75208 0.0
C801 C 0.323 0.35871 0.73837 0.0
C802 C 0.30571 0.34934 0.73264 0.0
C803 C 0.26931 0.35469 0.74269 0.0
H804 H 0.26153 0.36911 0.74297 0.0
H805 H 0.26529 0.3467 0.72896 0.0
H806 H 0.26433 0.34589 0.7556 0.0
O807 O 0.30333 0.39034 0.80031 0.0
O808 O 0.33488 0.3918 0.7918 0.0
H809 H 0.35437 0.35681 0.74344 0.0
H810 H 0.34423 0.33728 0.72836 0.0
C811 C 0.34343 0.35331 0.73179 0.0
H812 H 0.34717 0.36139 0.71808 0.0
H813 H 0.37267 0.38396 0.7791 0.0
O814 O 0.26267 0.37701 0.78252 0.0
C815 C 0.32155 0.39118 0.80496 0.0
Co816 Co 0.52872 0.63687 0.96382 0.0
Co817 Co 0.51443 0.64204 0.91991 0.0
C818 C 0.50866 0.6743 0.94939 0.0
O819 O 0.51703 0.6643 0.96311 0.0
O820 O 0.50621 0.66717 0.93209 0.0
C821 C 0.52456 0.62982 0.00628 0.0
O822 O 0.50738 0.63875 0.00473 0.0
C823 C 0.48983 0.64418 0.88343 0.0
C824 C 0.50871 0.6262 0.86372 0.0
C825 C 0.49037 0.63521 0.86491 0.0
N826 N 0.50682 0.63989 0.89289 0.0
N827 N 0.51823 0.62972 0.88074 0.0
C828 C 0.47285 0.65488 0.89273 0.0
H829 H 0.47499 0.65618 0.90894 0.0
H830 H 0.45874 0.64716 0.88952 0.0
H831 H 0.47191 0.66995 0.88636 0.0
C832 C 0.50083 0.60234 0.96091 0.0
N833 N 0.51071 0.61776 0.95288 0.0
N834 N 0.50454 0.62018 0.93458 0.0
C835 C 0.49046 0.60658 0.93057 0.0
C836 C 0.48748 0.59502 0.94721 0.0
C837 C 0.50405 0.59434 0.98124 0.0
H838 H 0.51999 0.59465 0.98496 0.0
H839 H 0.49565 0.60342 0.99197 0.0
H840 H 0.49866 0.57888 0.98237 0.0
O841 O 0.55428 0.63764 0.9492 0.0
O842 O 0.54345 0.64226 0.91872 0.0
H843 H 0.48852 0.60544 0.89903 0.0
H844 H 0.46833 0.59334 0.91128 0.0
C845 C 0.47853 0.60609 0.91196 0.0
H846 H 0.46947 0.61965 0.91117 0.0
H847 H 0.53205 0.62404 0.88457 0.0
O848 O 0.53568 0.62867 0.99119 0.0
C849 C 0.5576 0.64045 0.9309 0.0
Co850 Co 0.61163 0.27701 0.21277 0.0
Co851 Co 0.60554 0.26172 0.16953 0.0
C852 C 0.57405 0.25778 0.20167 0.0
O853 O 0.58432 0.26609 0.2152 0.0
O854 O 0.58092 0.25525 0.18425 0.0
C855 C 0.62069 0.28248 0.25595 0.0
O856 O 0.60567 0.27126 0.26102 0.0
C857 C 0.60231 0.23168 0.13814 0.0
C858 C 0.61205 0.24923 0.11237 0.0
C859 C 0.60717 0.23023 0.11821 0.0
N860 N 0.6049 0.25056 0.14379 0.0
N861 N 0.61026 0.26103 0.12822 0.0
C862 C 0.59469 0.21577 0.1515 0.0
H863 H 0.58268 0.22178 0.1609 0.0
H864 H 0.60657 0.21067 0.16153 0.0
H865 H 0.58903 0.20301 0.14287 0.0
C866 C 0.64304 0.2463 0.2111 0.0
N867 N 0.62906 0.25748 0.2023 0.0
N868 N 0.62811 0.25271 0.18349 0.0
C869 C 0.64233 0.23924 0.17953 0.0
C870 C 0.65191 0.23444 0.19697 0.0
C871 C 0.64725 0.24634 0.2328 0.0
H872 H 0.65411 0.26065 0.2369 0.0
H873 H 0.6332 0.24478 0.2411 0.0
H874 H 0.65749 0.23426 0.23704 0.0
O875 O 0.61012 0.3015 0.19608 0.0
O876 O 0.60598 0.29033 0.16562 0.0
H877 H 0.64198 0.24097 0.14774 0.0
H878 H 0.66301 0.22838 0.15803 0.0
C879 C 0.64687 0.23083 0.15959 0.0
H880 H 0.63964 0.21625 0.15793 0.0
H881 H 0.61368 0.27606 0.12862 0.0
O882 O 0.62388 0.28611 0.23781 0.0
C883 C 0.60761 0.3046 0.17767 0.0
Co884 Co 0.97375 0.36053 0.46425 0.0
Co885 Co 0.98685 0.35724 0.41999 0.0
C886 C 0.99128 0.32335 0.4496 0.0
O887 O 0.98396 0.33292 0.46418 0.0
O888 O 0.99323 0.3313 0.43256 0.0
C889 C 0.97082 0.36753 0.50805 0.0
O890 O 0.98407 0.35378 0.51157 0.0
C891 C 0.01562 0.35602 0.38732 0.0
C892 C 0.99735 0.36809 0.36308 0.0
C893 C 0.01645 0.36241 0.3678 0.0
N894 N 0.99702 0.35849 0.39387 0.0
N895 N 0.98611 0.36529 0.37918 0.0
C896 C 0.03187 0.34715 0.39947 0.0
H897 H 0.03854 0.35854 0.40915 0.0
H898 H 0.04356 0.3408 0.38987 0.0
H899 H 0.02577 0.33544 0.40919 0.0
C900 C 0.00585 0.39077 0.46342 0.0
N901 N 0.99347 0.37809 0.45424 0.0
N902 N 0.99713 0.37841 0.43518 0.0
C903 C 0.01103 0.39222 0.43146 0.0
C904 C 0.01745 0.40019 0.44927 0.0
C905 C 0.00825 0.39172 0.48538 0.0
H906 H 0.996 0.40054 0.49178 0.0
H907 H 0.00758 0.37658 0.49153 0.0
H908 H 0.02256 0.39839 0.48975 0.0
O909 O 0.9486 0.36067 0.44846 0.0
O910 O 0.95816 0.35868 0.41728 0.0
H911 H 0.02045 0.41515 0.41155 0.0
H912 H 0.03007 0.39118 0.40608 0.0
C913 C 0.01677 0.39916 0.41124 0.0
H914 H 0.00454 0.39669 0.40064 0.0
H915 H 0.97118 0.36895 0.38042 0.0
O916 O 0.96541 0.37099 0.49041 0.0
C917 C 0.94453 0.35963 0.43011 0.0
Co918 Co 0.8886 0.72289 0.71331 0.0
Co919 Co 0.89477 0.73751 0.66974 0.0
C920 C 0.9262 0.74302 0.70048 0.0
O921 O 0.91602 0.73455 0.71398 0.0
O922 O 0.9194 0.7454 0.68305 0.0
C923 C 0.88049 0.72479 0.75601 0.0
O924 O 0.89056 0.7414 0.75619 0.0
C925 C 0.8994 0.76385 0.63524 0.0
C926 C 0.88446 0.74597 0.61232 0.0
C927 C 0.89314 0.76418 0.61567 0.0
N928 N 0.89414 0.7464 0.64312 0.0
N929 N 0.8856 0.73565 0.62923 0.0
C930 C 0.91099 0.77926 0.64613 0.0
H931 H 0.92688 0.77525 0.64543 0.0
H932 H 0.90673 0.77948 0.66196 0.0
H933 H 0.90926 0.79412 0.63949 0.0
C934 C 0.8546 0.7513 0.71001 0.0
N935 N 0.86995 0.74121 0.70214 0.0
N936 N 0.87253 0.74719 0.68381 0.0
C937 C 0.85899 0.76123 0.67951 0.0
C938 C 0.84736 0.76447 0.69608 0.0
C939 C 0.8468 0.74854 0.7305 0.0
H940 H 0.84591 0.73258 0.73401 0.0
H941 H 0.85685 0.7559 0.74114 0.0
H942 H 0.83185 0.75511 0.7321 0.0
O943 O 0.88992 0.69769 0.69805 0.0
O944 O 0.89487 0.70859 0.66764 0.0
H945 H 0.85869 0.76252 0.64788 0.0
H946 H 0.84533 0.78236 0.65944 0.0
C947 C 0.85852 0.77278 0.66064 0.0
H948 H 0.87169 0.78242 0.65993 0.0
H949 H 0.87977 0.72156 0.63154 0.0
O950 O 0.8791 0.71506 0.74001 0.0
C951 C 0.89295 0.69442 0.67978 0.0
Co952 Co 0.52709 0.36194 0.53441 0.0
Co953 Co 0.5117 0.35483 0.57749 0.0
C954 C 0.50778 0.32368 0.54617 0.0
O955 O 0.51619 0.33426 0.53294 0.0
O956 O 0.50495 0.33019 0.56363 0.0
C957 C 0.52627 0.37041 0.49178 0.0
O958 O 0.50997 0.35988 0.49095 0.0
C959 C 0.48443 0.34904 0.61111 0.0
C960 C 0.50198 0.36265 0.63509 0.0
C961 C 0.48378 0.35429 0.63094 0.0
N962 N 0.5021 0.35452 0.60385 0.0
N963 N 0.51263 0.36227 0.61836 0.0
C964 C 0.46908 0.33823 0.59938 0.0
H965 H 0.47116 0.32212 0.60167 0.0
H966 H 0.47084 0.34133 0.58338 0.0
H967 H 0.45393 0.34203 0.60427 0.0
C968 C 0.49785 0.39525 0.53748 0.0
N969 N 0.50802 0.37995 0.54535 0.0
N970 N 0.50168 0.377 0.56351 0.0
C971 C 0.48732 0.39024 0.5677 0.0
C972 C 0.48426 0.40208 0.55123 0.0
C973 C 0.50106 0.40344 0.5172 0.0
H974 H 0.5171 0.40469 0.51419 0.0
H975 H 0.49426 0.3934 0.50619 0.0
H976 H 0.49424 0.41827 0.51562 0.0
O977 O 0.55194 0.36108 0.55024 0.0
O978 O 0.54057 0.35567 0.58039 0.0
H979 H 0.48539 0.38972 0.5993 0.0
H980 H 0.46574 0.40333 0.58768 0.0
C981 C 0.4754 0.39021 0.58634 0.0
H982 H 0.46576 0.37701 0.58647 0.0
H983 H 0.52683 0.36805 0.61664 0.0
O984 O 0.5354 0.37197 0.50812 0.0
C985 C 0.55492 0.35809 0.56857 0.0
Co986 Co 0.88812 0.27498 0.78796 0.0
Co987 Co 0.89572 0.26061 0.83132 0.0
C988 C 0.92638 0.25659 0.79856 0.0
O989 O 0.91566 0.26453 0.78515 0.0
O990 O 0.91998 0.25425 0.81616 0.0
C991 C 0.87895 0.28092 0.74466 0.0
O992 O 0.89521 0.27183 0.7392 0.0
C993 C 0.90032 0.23135 0.86317 0.0
C994 C 0.89055 0.24912 0.88877 0.0
C995 C 0.8956 0.23008 0.88315 0.0
N996 N 0.89739 0.2501 0.85728 0.0
N997 N 0.89209 0.26073 0.87277 0.0
C998 C 0.90796 0.21537 0.8499 0.0
H999 H 0.92024 0.22128 0.84078 0.0
H1000 H 0.89624 0.21054 0.83956 0.0
H1001 H 0.91332 0.2025 0.85854 0.0
C1002 C 0.85666 0.24449 0.79128 0.0
N1003 N 0.8712 0.25549 0.79935 0.0
N1004 N 0.87297 0.25082 0.81813 0.0
C1005 C 0.85886 0.23747 0.82283 0.0
C1006 C 0.84841 0.23265 0.80585 0.0
C1007 C 0.85078 0.24537 0.76998 0.0
H1008 H 0.84436 0.2601 0.76685 0.0
H1009 H 0.86405 0.24344 0.76054 0.0
H1010 H 0.8396 0.23401 0.76616 0.0
O1011 O 0.88942 0.2998 0.80404 0.0
O1012 O 0.89472 0.2893 0.83456 0.0
H1013 H 0.86098 0.23935 0.85452 0.0
H1014 H 0.83962 0.22652 0.84579 0.0
C1015 C 0.85553 0.22909 0.84305 0.0
H1016 H 0.86302 0.21461 0.84432 0.0
H1017 H 0.88839 0.27569 0.87217 0.0
O1018 O 0.87524 0.28323 0.76292 0.0
C1019 C 0.89235 0.30329 0.82231 0.0
Co1020 Co 0.97335 0.63868 0.03544 0.0
Co1021 Co 0.98757 0.644 0.07915 0.0
C1022 C 0.99156 0.67633 0.04776 0.0
O1023 O 0.98382 0.6662 0.03379 0.0
O1024 O 0.99378 0.66914 0.0651 0.0
C1025 C 0.96737 0.63008 0.9919 0.0
O1026 O 0.97721 0.64587 0.98637 0.0
C1027 C 0.01685 0.64688 0.11136 0.0
C1028 C 0.99889 0.63597 0.13636 0.0
C1029 C 0.01795 0.64135 0.13114 0.0
N1030 N 0.99814 0.64418 0.10517 0.0
N1031 N 0.98742 0.63813 0.12032 0.0
C1032 C 0.03293 0.65521 0.09863 0.0
H1033 H 0.02687 0.66725 0.0893 0.0
H1034 H 0.03865 0.64368 0.08853 0.0
H1035 H 0.04527 0.66101 0.10775 0.0
C1036 C 0.00466 0.60799 0.03689 0.0
N1037 N 0.99303 0.62145 0.04588 0.0
N1038 N 0.99743 0.62199 0.0648 0.0
C1039 C 0.01116 0.60796 0.0686 0.0
C1040 C 0.01651 0.599 0.05097 0.0
C1041 C 0.00486 0.60428 0.01509 0.0
H1042 H 0.0058 0.61856 0.0071 0.0
H1043 H 0.01736 0.59464 0.01065 0.0
H1044 H 0.99087 0.5969 0.01082 0.0
O1045 O 0.94855 0.63938 0.05162 0.0
O1046 O 0.95885 0.64282 0.08245 0.0
H1047 H 0.00895 0.60764 0.10037 0.0
H1048 H 0.02185 0.58694 0.08989 0.0
C1049 C 0.01931 0.60308 0.08858 0.0
H1050 H 0.03381 0.61037 0.09059 0.0
H1051 H 0.97247 0.63445 0.11944 0.0
O1052 O 0.96485 0.62657 0.01017 0.0
C1053 C 0.94492 0.64128 0.06999 0.0
Co1054 Co 0.61186 0.72501 0.28746 0.0
Co1055 Co 0.60706 0.73446 0.33247 0.0
C1056 C 0.57405 0.74068 0.30176 0.0
O1057 O 0.58427 0.73505 0.28689 0.0
O1058 O 0.58137 0.74109 0.31921 0.0
C1059 C 0.61997 0.71701 0.24367 0.0
O1060 O 0.60141 0.71835 0.23814 0.0
C1061 C 0.60583 0.76118 0.3667 0.0
C1062 C 0.61625 0.74094 0.39012 0.0
C1063 C 0.61209 0.76061 0.38626 0.0
N1064 N 0.60695 0.74277 0.35929 0.0
N1065 N 0.61257 0.73068 0.37355 0.0
C1066 C 0.60103 0.77904 0.35454 0.0
H1067 H 0.6021 0.7756 0.33854 0.0
H1068 H 0.61096 0.79153 0.35833 0.0
H1069 H 0.58565 0.7837 0.35783 0.0
C1070 C 0.64187 0.75665 0.29177 0.0
N1071 N 0.62867 0.74397 0.29965 0.0
N1072 N 0.62849 0.74617 0.31892 0.0
C1073 C 0.64252 0.75939 0.32406 0.0
C1074 C 0.65114 0.7669 0.30699 0.0
C1075 C 0.64399 0.76024 0.27004 0.0
H1076 H 0.65538 0.7501 0.26402 0.0
H1077 H 0.62978 0.75729 0.2624 0.0
H1078 H 0.64858 0.77568 0.26702 0.0
O1079 O 0.61113 0.69874 0.30123 0.0
O1080 O 0.60956 0.70575 0.33315 0.0
H1081 H 0.66551 0.76566 0.3451 0.0
H1082 H 0.64215 0.77659 0.3507 0.0
C1083 C 0.6493 0.76313 0.3448 0.0
H1084 H 0.6457 0.75037 0.35442 0.0
H1085 H 0.6153 0.71563 0.37158 0.0
O1086 O 0.6246 0.71935 0.2617 0.0
C1087 C 0.61039 0.69323 0.31923 0.0
Co1088 Co 0.96165 0.52562 0.63772 0.0
Co1089 Co 0.91748 0.51311 0.64253 0.0
C1090 C 0.94833 0.50717 0.67494 0.0
O1091 O 0.96256 0.51469 0.66502 0.0
O1092 O 0.93093 0.50559 0.66768 0.0
C1093 C 0.00555 0.53042 0.62898 0.0
O1094 O 0.01143 0.52133 0.64509 0.0
C1095 C 0.88338 0.48609 0.6436 0.0
C1096 C 0.86029 0.50598 0.63182 0.0
C1097 C 0.86404 0.48648 0.63673 0.0
N1098 N 0.89082 0.50445 0.6421 0.0
N1099 N 0.87674 0.51636 0.6357 0.0
C1100 C 0.89533 0.46836 0.64928 0.0
H1101 H 0.91138 0.47159 0.64808 0.0
H1102 H 0.89141 0.45544 0.63996 0.0
H1103 H 0.89196 0.4645 0.66485 0.0
C1104 C 0.95932 0.49462 0.60687 0.0
N1105 N 0.95058 0.50662 0.62018 0.0
N1106 N 0.9315 0.50295 0.62043 0.0
C1107 C 0.92741 0.48939 0.60632 0.0
C1108 C 0.94493 0.48342 0.5976 0.0
C1109 C 0.98118 0.49302 0.60396 0.0
H1110 H 0.98642 0.50619 0.59577 0.0
H1111 H 0.98869 0.49263 0.61853 0.0
H1112 H 0.98519 0.47965 0.59534 0.0
O1113 O 0.94682 0.55125 0.63867 0.0
O1114 O 0.91573 0.54188 0.64201 0.0
H1115 H 0.89581 0.49277 0.60502 0.0
H1116 H 0.90639 0.47852 0.58517 0.0
C1117 C 0.9073 0.48177 0.60122 0.0
H1118 H 0.90461 0.46772 0.60913 0.0
H1119 H 0.87878 0.53131 0.63255 0.0
O1120 O 0.98723 0.53284 0.62572 0.0
C1121 C 0.92859 0.55542 0.6407 0.0
Co1122 Co 0.72321 0.71437 0.88788 0.0
Co1123 Co 0.73837 0.67132 0.89425 0.0
C1124 C 0.74196 0.70323 0.92574 0.0
O1125 O 0.73379 0.71675 0.91537 0.0
O1126 O 0.74455 0.68581 0.91894 0.0
C1127 C 0.71734 0.75758 0.87937 0.0
O1128 O 0.72795 0.76278 0.89478 0.0
C1129 C 0.76757 0.63974 0.89959 0.0
C1130 C 0.75029 0.61378 0.88976 0.0
C1131 C 0.76889 0.61959 0.896 0.0
N1132 N 0.74909 0.64554 0.89527 0.0
N1133 N 0.73876 0.62993 0.88971 0.0
C1134 C 0.78302 0.65321 0.90793 0.0
H1135 H 0.781 0.66843 0.90216 0.0
H1136 H 0.79818 0.64787 0.90481 0.0
H1137 H 0.78116 0.65382 0.92422 0.0
C1138 C 0.75424 0.71274 0.85673 0.0
N1139 N 0.74293 0.70392 0.87058 0.0
N1140 N 0.74822 0.68528 0.87208 0.0
C1141 C 0.76249 0.68149 0.85862 0.0
C1142 C 0.76698 0.69884 0.8487 0.0
C1143 C 0.75349 0.7343 0.8519 0.0
H1144 H 0.7389 0.73782 0.84533 0.0
H1145 H 0.75516 0.74304 0.86568 0.0
H1146 H 0.76519 0.73859 0.84124 0.0
O1147 O 0.69862 0.69796 0.88906 0.0
O1148 O 0.70974 0.66753 0.89324 0.0
H1149 H 0.76237 0.64973 0.85899 0.0
H1150 H 0.7787 0.66049 0.84092 0.0
C1151 C 0.77274 0.66205 0.8561 0.0
H1152 H 0.78536 0.66119 0.8665 0.0
H1153 H 0.72401 0.63042 0.88524 0.0
O1154 O 0.71431 0.73941 0.87584 0.0
C1155 C 0.69548 0.67956 0.89148 0.0
Co1156 Co 0.53498 0.47135 0.13681 0.0
Co1157 Co 0.57874 0.48535 0.14114 0.0
C1158 C 0.54835 0.48925 0.17425 0.0
O1159 O 0.53417 0.4816 0.16438 0.0
O1160 O 0.56552 0.4915 0.16669 0.0
C1161 C 0.49149 0.46812 0.13022 0.0
O1162 O 0.48837 0.48128 0.14416 0.0
C1163 C 0.61072 0.51447 0.1448 0.0
C1164 C 0.63605 0.49706 0.13366 0.0
C1165 C 0.63066 0.51572 0.14009 0.0
N1166 N 0.60461 0.49599 0.14086 0.0
N1167 N 0.61987 0.48559 0.13451 0.0
C1168 C 0.59777 0.53006 0.15371 0.0
H1169 H 0.58532 0.53344 0.14361 0.0
H1170 H 0.60613 0.54374 0.15711 0.0
H1171 H 0.59119 0.52425 0.16755 0.0
C1172 C 0.53583 0.50353 0.10656 0.0
N1173 N 0.54497 0.49126 0.11938 0.0
N1174 N 0.56391 0.4955 0.11974 0.0
C1175 C 0.56764 0.50982 0.10637 0.0
C1176 C 0.54991 0.51578 0.09787 0.0
C1177 C 0.51384 0.50524 0.10491 0.0
H1178 H 0.50805 0.49251 0.09635 0.0
H1179 H 0.50728 0.50483 0.11989 0.0
H1180 H 0.50921 0.51917 0.09768 0.0
O1181 O 0.55116 0.44645 0.13703 0.0
O1182 O 0.58206 0.45675 0.13971 0.0
H1183 H 0.58816 0.52159 0.08508 0.0
H1184 H 0.59209 0.5297 0.10996 0.0
C1185 C 0.58788 0.51684 0.10078 0.0
H1186 H 0.59887 0.50489 0.10295 0.0
H1187 H 0.61909 0.47083 0.13013 0.0
O1188 O 0.50902 0.46271 0.12627 0.0
C1189 C 0.56959 0.44282 0.13849 0.0
Co1190 Co 0.77674 0.28875 0.38879 0.0
Co1191 Co 0.76215 0.33182 0.39704 0.0
C1192 C 0.75766 0.29854 0.42695 0.0
O1193 O 0.76586 0.28541 0.41609 0.0
O1194 O 0.75538 0.31629 0.42093 0.0
C1195 C 0.78135 0.24581 0.37884 0.0
O1196 O 0.77051 0.24076 0.39413 0.0
C1197 C 0.73292 0.36353 0.4023 0.0
C1198 C 0.75073 0.3895 0.39359 0.0
C1199 C 0.73176 0.38372 0.39868 0.0
N1200 N 0.75161 0.3577 0.39892 0.0
N1201 N 0.76225 0.37335 0.39415 0.0
C1202 C 0.717 0.35001 0.40963 0.0
H1203 H 0.71477 0.33767 0.39909 0.0
H1204 H 0.7029 0.35795 0.4122 0.0
H1205 H 0.72191 0.34326 0.42374 0.0
C1206 C 0.74616 0.2924 0.35738 0.0
N1207 N 0.75737 0.30034 0.37185 0.0
N1208 N 0.75245 0.31899 0.37415 0.0
C1209 C 0.73851 0.32371 0.36066 0.0
C1210 C 0.73378 0.30695 0.34988 0.0
C1211 C 0.74578 0.27085 0.35246 0.0
H1212 H 0.74523 0.26211 0.3663 0.0
H1213 H 0.73287 0.26689 0.34317 0.0
H1214 H 0.75952 0.26693 0.34442 0.0
O1215 O 0.80159 0.30479 0.39071 0.0
O1216 O 0.79087 0.33514 0.39647 0.0
H1217 H 0.74142 0.35538 0.36137 0.0
H1218 H 0.72647 0.34593 0.34138 0.0
C1219 C 0.73042 0.344 0.3572 0.0
H1220 H 0.71674 0.34608 0.36592 0.0
H1221 H 0.77719 0.37286 0.39036 0.0
O1222 O 0.78514 0.26392 0.37571 0.0
C1223 C 0.80497 0.32301 0.39406 0.0
Co1224 Co 0.95998 0.47285 0.86059 0.0
Co1225 Co 0.91604 0.4856 0.85404 0.0
C1226 C 0.94779 0.48974 0.82226 0.0
O1227 O 0.9618 0.4826 0.83278 0.0
O1228 O 0.93028 0.49166 0.8291 0.0
C1229 C 0.00357 0.46726 0.87031 0.0
O1230 O 0.00976 0.47458 0.85343 0.0
C1231 C 0.88347 0.51399 0.85117 0.0
C1232 C 0.85895 0.49564 0.86251 0.0
C1233 C 0.86398 0.51482 0.85746 0.0
N1234 N 0.88978 0.49526 0.85308 0.0
N1235 N 0.87484 0.48425 0.85916 0.0
C1236 C 0.89659 0.53097 0.84578 0.0
H1237 H 0.91237 0.52698 0.84791 0.0
H1238 H 0.89284 0.54431 0.85454 0.0
H1239 H 0.89426 0.53458 0.82995 0.0
C1240 C 0.95697 0.50469 0.89056 0.0
N1241 N 0.94861 0.49264 0.87705 0.0
N1242 N 0.92963 0.49658 0.87592 0.0
C1243 C 0.92515 0.51059 0.88943 0.0
C1244 C 0.94237 0.51647 0.89883 0.0
C1245 C 0.97877 0.50635 0.89391 0.0
H1246 H 0.98355 0.49435 0.904 0.0
H1247 H 0.98672 0.5047 0.87968 0.0
H1248 H 0.98277 0.52075 0.90064 0.0
O1249 O 0.94465 0.44748 0.86028 0.0
O1250 O 0.91365 0.45693 0.85601 0.0
H1251 H 0.90377 0.52057 0.9107 0.0
H1252 H 0.9012 0.5311 0.88667 0.0
C1253 C 0.90471 0.51727 0.89465 0.0
H1254 H 0.89373 0.50571 0.89095 0.0
H1255 H 0.87596 0.46926 0.86261 0.0
O1256 O 0.98517 0.46581 0.87371 0.0
C1257 C 0.9264 0.44336 0.85816 0.0
Co1258 Co 0.77649 0.71089 0.11077 0.0
Co1259 Co 0.76256 0.66749 0.1032 0.0
C1260 C 0.75816 0.70027 0.07259 0.0
O1261 O 0.76604 0.71367 0.08335 0.0
O1262 O 0.75592 0.6826 0.07889 0.0
C1263 C 0.78292 0.75418 0.11999 0.0
O1264 O 0.77551 0.75997 0.10301 0.0
C1265 C 0.73391 0.63492 0.0997 0.0
C1266 C 0.75263 0.61006 0.10958 0.0
C1267 C 0.73332 0.61515 0.10511 0.0
N1268 N 0.75264 0.64129 0.10162 0.0
N1269 N 0.76384 0.62618 0.10682 0.0
C1270 C 0.71676 0.6481 0.09507 0.0
H1271 H 0.72072 0.66382 0.0976 0.0
H1272 H 0.70364 0.644 0.104 0.0
H1273 H 0.71281 0.64623 0.07926 0.0
C1274 C 0.74536 0.70769 0.14146 0.0
N1275 N 0.75692 0.69944 0.12747 0.0
N1276 N 0.75256 0.68057 0.12596 0.0
C1277 C 0.73895 0.676 0.13988 0.0
C1278 C 0.7336 0.69313 0.14978 0.0
C1279 C 0.74535 0.72922 0.14649 0.0
H1280 H 0.75931 0.73285 0.15424 0.0
H1281 H 0.74464 0.7381 0.13273 0.0
H1282 H 0.73287 0.73326 0.15631 0.0
O1283 O 0.8016 0.6952 0.10951 0.0
O1284 O 0.79133 0.66465 0.10412 0.0
H1285 H 0.74129 0.6443 0.13865 0.0
H1286 H 0.72792 0.65358 0.15957 0.0
C1287 C 0.73078 0.65579 0.1436 0.0
H1288 H 0.71644 0.65418 0.13588 0.0
H1289 H 0.7789 0.62722 0.11 0.0
O1290 O 0.7842 0.73586 0.12387 0.0
C1291 C 0.80525 0.67698 0.10651 0.0
Co1292 Co 0.53593 0.5261 0.35885 0.0
Co1293 Co 0.58004 0.51328 0.35427 0.0
C1294 C 0.54883 0.50832 0.32161 0.0
O1295 O 0.5344 0.51526 0.33164 0.0
O1296 O 0.56622 0.50701 0.32892 0.0
C1297 C 0.49233 0.53402 0.36686 0.0
O1298 O 0.4864 0.52773 0.34947 0.0
C1299 C 0.61262 0.48463 0.35074 0.0
C1300 C 0.63758 0.50285 0.36134 0.0
C1301 C 0.63254 0.48383 0.35569 0.0
N1302 N 0.60618 0.50315 0.35394 0.0
N1303 N 0.62127 0.51404 0.35986 0.0
C1304 C 0.59999 0.46843 0.34249 0.0
H1305 H 0.5899 0.47453 0.3311 0.0
H1306 H 0.59066 0.46202 0.3543 0.0
H1307 H 0.6092 0.45657 0.3359 0.0
C1308 C 0.5379 0.49501 0.3896 0.0
N1309 N 0.54679 0.50685 0.37627 0.0
N1310 N 0.56581 0.5029 0.37599 0.0
C1311 C 0.56976 0.48926 0.39005 0.0
C1312 C 0.55215 0.48353 0.39881 0.0
C1313 C 0.51604 0.49426 0.39293 0.0
H1314 H 0.51146 0.50765 0.40118 0.0
H1315 H 0.50824 0.49422 0.3785 0.0
H1316 H 0.51164 0.48109 0.40164 0.0
O1317 O 0.55147 0.55124 0.35731 0.0
O1318 O 0.58282 0.542 0.35604 0.0
H1319 H 0.6015 0.49195 0.39045 0.0
H1320 H 0.59112 0.47893 0.41116 0.0
C1321 C 0.58985 0.48143 0.39502 0.0
H1322 H 0.59211 0.46696 0.38772 0.0
H1323 H 0.62023 0.52892 0.36378 0.0
O1324 O 0.51061 0.53401 0.37112 0.0
C1325 C 0.56979 0.55547 0.35642 0.0
Co1326 Co 0.72206 0.28806 0.61192 0.0
Co1327 Co 0.73626 0.33113 0.60367 0.0
C1328 C 0.74005 0.29842 0.57325 0.0
O1329 O 0.7323 0.28513 0.58424 0.0
O1330 O 0.74238 0.31613 0.57936 0.0
C1331 C 0.71486 0.2448 0.62059 0.0
O1332 O 0.72174 0.23906 0.60337 0.0
C1333 C 0.76394 0.36371 0.59629 0.0
C1334 C 0.74681 0.38889 0.60818 0.0
C1335 C 0.76502 0.38379 0.60037 0.0
N1336 N 0.74603 0.35726 0.6019 0.0
N1337 N 0.73575 0.37242 0.60863 0.0
C1338 C 0.77904 0.35089 0.5864 0.0
H1339 H 0.77883 0.33584 0.5929 0.0
H1340 H 0.79408 0.3573 0.58717 0.0
H1341 H 0.77499 0.34939 0.57058 0.0
C1342 C 0.75309 0.29158 0.6429 0.0
N1343 N 0.74174 0.29959 0.62859 0.0
N1344 N 0.74706 0.31809 0.62595 0.0
C1345 C 0.76161 0.3226 0.63888 0.0
C1346 C 0.76612 0.30584 0.64986 0.0
C1347 C 0.75159 0.27055 0.64958 0.0
H1348 H 0.73669 0.26805 0.6559 0.0
H1349 H 0.7534 0.26057 0.6367 0.0
H1350 H 0.76271 0.26688 0.66104 0.0
O1351 O 0.69702 0.30371 0.61083 0.0
O1352 O 0.70753 0.33412 0.6053 0.0
H1353 H 0.7616 0.35428 0.63749 0.0
H1354 H 0.7801 0.34424 0.6537 0.0
C1355 C 0.77222 0.34201 0.63954 0.0
H1356 H 0.78339 0.34245 0.6276 0.0
H1357 H 0.72144 0.37138 0.6143 0.0
O1358 O 0.71424 0.26307 0.62483 0.0
C1359 C 0.69352 0.32195 0.60789 0.0
Co1360 Co 0.64019 0.96255 0.52453 0.0
Co1361 Co 0.64602 0.91811 0.51319 0.0
C1362 C 0.67859 0.94952 0.50931 0.0
O1363 O 0.66797 0.96404 0.51509 0.0
O1364 O 0.67159 0.93199 0.50817 0.0
C1365 C 0.63064 0.00618 0.52916 0.0
O1366 O 0.64709 0.01202 0.52067 0.0
C1367 C 0.65153 0.88451 0.4859 0.0
C1368 C 0.63989 0.86016 0.50433 0.0
C1369 C 0.6469 0.8645 0.4856 0.0
N1370 N 0.64693 0.89166 0.50387 0.0
N1371 N 0.64032 0.87696 0.51488 0.0
C1372 C 0.66089 0.8965 0.46983 0.0
H1373 H 0.64935 0.90394 0.46092 0.0
H1374 H 0.66978 0.88693 0.45989 0.0
H1375 H 0.67043 0.90814 0.47632 0.0
C1376 C 0.6106 0.95917 0.49244 0.0
N1377 N 0.62386 0.95091 0.5048 0.0
N1378 N 0.62503 0.93189 0.50105 0.0
C1379 C 0.6119 0.9273 0.48673 0.0
C1380 C 0.60259 0.94449 0.48058 0.0
C1381 C 0.60724 0.98097 0.49068 0.0
H1382 H 0.59741 0.98588 0.50286 0.0
H1383 H 0.62153 0.98887 0.49203 0.0
H1384 H 0.6003 0.98491 0.47637 0.0
O1385 O 0.64055 0.9477 0.55003 0.0
O1386 O 0.64243 0.91611 0.54181 0.0
H1387 H 0.61012 0.89594 0.4918 0.0
H1388 H 0.59137 0.90576 0.47554 0.0
C1389 C 0.60715 0.90679 0.47992 0.0
H1390 H 0.61613 0.9031 0.46677 0.0
H1391 H 0.63536 0.87854 0.52939 0.0
O1392 O 0.62727 0.98786 0.53143 0.0
C1393 C 0.64123 0.92953 0.55484 0.0
Co1394 Co 0.13819 0.53476 0.47144 0.0
Co1395 Co 0.14285 0.57913 0.48452 0.0
C1396 C 0.17562 0.54997 0.4905 0.0
O1397 O 0.16577 0.53583 0.48267 0.0
O1398 O 0.16823 0.56722 0.49246 0.0
C1399 C 0.13125 0.49203 0.47547 0.0
O1400 O 0.14047 0.49318 0.49252 0.0
C1401 C 0.14484 0.61547 0.5092 0.0
C1402 C 0.12762 0.63553 0.49 0.0
C1403 C 0.13604 0.63405 0.5086 0.0
N1404 N 0.14097 0.60622 0.492 0.0
N1405 N 0.1313 0.61859 0.48039 0.0
C1406 C 0.15493 0.60588 0.52639 0.0
H1407 H 0.1559 0.58965 0.52423 0.0
H1408 H 0.14699 0.60924 0.54035 0.0
H1409 H 0.17012 0.61191 0.52769 0.0
C1410 C 0.10404 0.53785 0.4997 0.0
N1411 N 0.11925 0.54585 0.48952 0.0
N1412 N 0.12125 0.56444 0.49498 0.0
C1413 C 0.10745 0.56871 0.50877 0.0
C1414 C 0.09632 0.55191 0.51243 0.0
C1415 C 0.09652 0.51722 0.49727 0.0
H1416 H 0.09631 0.51318 0.48141 0.0
H1417 H 0.10629 0.50694 0.50546 0.0
H1418 H 0.08133 0.51571 0.50328 0.0
O1419 O 0.13828 0.54902 0.44571 0.0
O1420 O 0.14219 0.57994 0.45552 0.0
H1421 H 0.10626 0.60032 0.50898 0.0
H1422 H 0.09261 0.58915 0.52874 0.0
C1423 C 0.10612 0.58792 0.51964 0.0
H1424 H 0.11889 0.58916 0.52972 0.0
H1425 H 0.12597 0.61496 0.46639 0.0
O1426 O 0.12992 0.50736 0.46469 0.0
C1427 C 0.14036 0.56729 0.44179 0.0
Co1428 Co 0.71161 0.88961 0.72335 0.0
Co1429 Co 0.66731 0.89552 0.73509 0.0
C1430 C 0.69919 0.9275 0.74011 0.0
O1431 O 0.71361 0.91707 0.73376 0.0
O1432 O 0.68163 0.92056 0.741 0.0
C1433 C 0.75505 0.87971 0.71868 0.0
O1434 O 0.76085 0.89589 0.7277 0.0
C1435 C 0.63488 0.90064 0.7635 0.0
C1436 C 0.60953 0.89036 0.74562 0.0
C1437 C 0.61482 0.8964 0.76445 0.0
N1438 N 0.64117 0.89671 0.74507 0.0
N1439 N 0.62588 0.89094 0.73438 0.0
C1440 C 0.6478 0.90891 0.77947 0.0
H1441 H 0.65665 0.89696 0.7863 0.0
H1442 H 0.63883 0.91622 0.7911 0.0
H1443 H 0.65832 0.91971 0.77306 0.0
C1444 C 0.70798 0.8591 0.75462 0.0
N1445 N 0.69986 0.87277 0.74261 0.0
N1446 N 0.68083 0.87394 0.74633 0.0
C1447 C 0.67609 0.86046 0.76024 0.0
C1448 C 0.69319 0.8509 0.7662 0.0
C1449 C 0.72973 0.85551 0.75639 0.0
H1450 H 0.73463 0.84608 0.74391 0.0
H1451 H 0.73776 0.86977 0.75559 0.0
H1452 H 0.73353 0.84802 0.77047 0.0
O1453 O 0.69648 0.89095 0.69796 0.0
O1454 O 0.66493 0.8929 0.70642 0.0
H1455 H 0.64468 0.85925 0.75519 0.0
H1456 H 0.65437 0.83968 0.77054 0.0
C1457 C 0.65554 0.85564 0.76689 0.0
H1458 H 0.65198 0.864 0.78049 0.0
H1459 H 0.62677 0.88659 0.71961 0.0
O1460 O 0.73674 0.87653 0.71604 0.0
C1461 C 0.67827 0.89195 0.69329 0.0
Co1462 Co 0.35984 0.4618 0.97411 0.0
Co1463 Co 0.3549 0.41718 0.98494 0.0
C1464 C 0.32195 0.44824 0.98988 0.0
O1465 O 0.33221 0.46298 0.98399 0.0
O1466 O 0.32928 0.43082 0.9907 0.0
C1467 C 0.37004 0.50551 0.97023 0.0
O1468 O 0.35421 0.5116 0.97968 0.0
C1469 C 0.351 0.38407 0.01272 0.0
C1470 C 0.3621 0.35949 0.99429 0.0
C1471 C 0.35624 0.36421 0.01333 0.0
N1472 N 0.35429 0.39078 0.99432 0.0
N1473 N 0.36048 0.37592 0.98328 0.0
C1474 C 0.34249 0.39645 0.02898 0.0
H1475 H 0.3541 0.40604 0.0354 0.0
H1476 H 0.33609 0.38707 0.0408 0.0
H1477 H 0.33088 0.40631 0.0229 0.0
C1478 C 0.38972 0.45848 0.00599 0.0
N1479 N 0.37657 0.45018 0.99352 0.0
N1480 N 0.37622 0.431 0.99656 0.0
C1481 C 0.39007 0.42639 0.01021 0.0
C1482 C 0.39874 0.44369 0.01686 0.0
C1483 C 0.39301 0.48024 0.00803 0.0
H1484 H 0.40166 0.48554 0.99517 0.0
H1485 H 0.37858 0.48802 0.00814 0.0
H1486 H 0.40132 0.48386 0.0217 0.0
O1487 O 0.35923 0.44707 0.94844 0.0
O1488 O 0.35788 0.41535 0.9563 0.0
H1489 H 0.39121 0.39492 0.0055 0.0
H1490 H 0.41136 0.4049 0.0198 0.0
C1491 C 0.39525 0.40596 0.01688 0.0
H1492 H 0.38759 0.40262 0.03094 0.0
H1493 H 0.36458 0.37722 0.96848 0.0
O1494 O 0.3727 0.48718 0.96727 0.0
C1495 C 0.3587 0.42894 0.94342 0.0
Co1496 Co 0.28849 0.61196 0.72284 0.0
Co1497 Co 0.33283 0.60713 0.7351 0.0
C1498 C 0.30217 0.57421 0.73971 0.0
O1499 O 0.28766 0.58441 0.73316 0.0
O1500 O 0.31958 0.58148 0.74101 0.0
C1501 C 0.24464 0.61966 0.71789 0.0
O1502 O 0.23958 0.60351 0.7274 0.0
C1503 C 0.36612 0.60297 0.76272 0.0
C1504 C 0.39076 0.61407 0.74432 0.0
C1505 C 0.38613 0.60753 0.76313 0.0
N1506 N 0.35924 0.60704 0.74454 0.0
N1507 N 0.37408 0.61339 0.73356 0.0
C1508 C 0.35379 0.59402 0.77876 0.0
H1509 H 0.33804 0.59825 0.77686 0.0
H1510 H 0.35907 0.59832 0.79364 0.0
H1511 H 0.35477 0.57769 0.77761 0.0
C1512 C 0.29084 0.64275 0.75395 0.0
N1513 N 0.29954 0.62926 0.74212 0.0
N1514 N 0.31842 0.62814 0.74659 0.0
C1515 C 0.32242 0.64129 0.76105 0.0
C1516 C 0.30505 0.65075 0.76637 0.0
C1517 C 0.26902 0.64625 0.75478 0.0
H1518 H 0.26116 0.63186 0.75473 0.0
H1519 H 0.26468 0.65466 0.76817 0.0
H1520 H 0.26442 0.65467 0.74149 0.0
O1521 O 0.30355 0.61125 0.69755 0.0
O1522 O 0.33501 0.60981 0.70632 0.0
H1523 H 0.354 0.64324 0.7581 0.0
H1524 H 0.34336 0.66053 0.77541 0.0
C1525 C 0.34246 0.64523 0.76954 0.0
H1526 H 0.34522 0.63495 0.78197 0.0
H1527 H 0.3727 0.61791 0.71888 0.0
O1528 O 0.26278 0.62368 0.71527 0.0
C1529 C 0.32179 0.61058 0.69305 0.0
Co1530 Co 0.86207 0.03821 0.027 0.0
Co1531 Co 0.84988 0.07952 0.0101 0.0
C1532 C 0.82261 0.04436 0.00821 0.0
O1533 O 0.83458 0.03305 0.01747 0.0
O1534 O 0.82701 0.06222 0.00402 0.0
C1535 C 0.87264 0.99583 0.03344 0.0
O1536 O 0.85625 0.99027 0.02464 0.0
C1537 C 0.84203 0.11046 0.98046 0.0
C1538 C 0.85024 0.13701 0.99762 0.0
C1539 C 0.84495 0.13075 0.97885 0.0
N1540 N 0.84611 0.10507 0.99915 0.0
N1541 N 0.85048 0.12108 0.00942 0.0
C1542 C 0.83475 0.09638 0.965 0.0
H1543 H 0.84394 0.0828 0.96491 0.0
H1544 H 0.83428 0.10321 0.95013 0.0
H1545 H 0.81955 0.09169 0.969 0.0
C1546 C 0.89289 0.04271 0.99609 0.0
N1547 N 0.87768 0.04998 0.00671 0.0
N1548 N 0.87367 0.06798 0.00055 0.0
C1549 C 0.88681 0.073 0.98635 0.0
C1550 C 0.89912 0.05698 0.98277 0.0
C1551 C 0.90119 0.02235 0.99856 0.0
H1552 H 0.90706 0.0208 0.01377 0.0
H1553 H 0.88926 0.0113 0.9965 0.0
H1554 H 0.91336 0.01933 0.98801 0.0
O1555 O 0.86042 0.05507 0.05105 0.0
O1556 O 0.85077 0.08381 0.03884 0.0
H1557 H 0.88213 0.10439 0.98546 0.0
H1558 H 0.90204 0.096 0.97017 0.0
C1559 C 0.88706 0.09233 0.9756 0.0
H1560 H 0.87727 0.09138 0.96254 0.0
H1561 H 0.85471 0.121 0.02425 0.0
O1562 O 0.87627 0.01411 0.03567 0.0
C1563 C 0.85525 0.07298 0.05349 0.0
Co1564 Co 0.70817 0.11274 0.77717 0.0
Co1565 Co 0.66435 0.10533 0.76427 0.0
C1566 C 0.69667 0.07434 0.75965 0.0
O1567 O 0.71038 0.08508 0.76701 0.0
O1568 O 0.67899 0.08075 0.75784 0.0
C1569 C 0.75174 0.121 0.78343 0.0
O1570 O 0.75712 0.10358 0.77676 0.0
C1571 C 0.63147 0.09969 0.73643 0.0
C1572 C 0.60655 0.111 0.75426 0.0
C1573 C 0.6115 0.10446 0.73551 0.0
N1574 N 0.63801 0.10387 0.75472 0.0
N1575 N 0.62295 0.11016 0.76542 0.0
C1576 C 0.64416 0.09067 0.72069 0.0
H1577 H 0.65774 0.09959 0.71858 0.0
H1578 H 0.63613 0.0889 0.70652 0.0
H1579 H 0.64904 0.07587 0.72577 0.0
C1580 C 0.70444 0.14338 0.74607 0.0
N1581 N 0.6964 0.12938 0.75773 0.0
N1582 N 0.67756 0.12752 0.75334 0.0
C1583 C 0.67283 0.14093 0.7393 0.0
C1584 C 0.68983 0.15112 0.73394 0.0
C1585 C 0.72581 0.1491 0.74648 0.0
H1586 H 0.72916 0.15603 0.76092 0.0
H1587 H 0.73512 0.13568 0.74496 0.0
H1588 H 0.72959 0.15982 0.73469 0.0
O1589 O 0.69299 0.11213 0.80246 0.0
O1590 O 0.66206 0.10719 0.79309 0.0
H1591 H 0.64114 0.13976 0.74127 0.0
H1592 H 0.65029 0.15859 0.72506 0.0
C1593 C 0.65275 0.14331 0.73032 0.0
H1594 H 0.65139 0.13345 0.71734 0.0
H1595 H 0.62408 0.11488 0.78006 0.0
O1596 O 0.73353 0.12546 0.78432 0.0
C1597 C 0.67481 0.10968 0.80663 0.0
Co1598 Co 0.78602 0.89013 0.27463 0.0
Co1599 Co 0.83065 0.89485 0.2622 0.0
C1600 C 0.80111 0.92743 0.25572 0.0
O1601 O 0.78695 0.91756 0.26345 0.0
O1602 O 0.81841 0.9201 0.25392 0.0
C1603 C 0.75186 0.87588 0.29622 0.0
O1604 O 0.76284 0.87918 0.31189 0.0
C1605 C 0.86653 0.89604 0.23721 0.0
C1606 C 0.88764 0.8816 0.25755 0.0
C1607 C 0.88548 0.88814 0.23827 0.0
N1608 N 0.85777 0.8935 0.25487 0.0
N1609 N 0.87072 0.88552 0.26711 0.0
C1610 C 0.85614 0.9038 0.21929 0.0
H1611 H 0.83988 0.90374 0.22156 0.0
H1612 H 0.86003 0.89497 0.20603 0.0
H1613 H 0.86099 0.91923 0.21663 0.0
C1614 C 0.78916 0.85714 0.2458 0.0
N1615 N 0.79749 0.87174 0.25651 0.0
N1616 N 0.81637 0.8729 0.25198 0.0
C1617 C 0.82073 0.85857 0.23875 0.0
C1618 C 0.80353 0.84839 0.2341 0.0
C1619 C 0.76775 0.8517 0.24672 0.0
H1620 H 0.76413 0.84701 0.26199 0.0
H1621 H 0.75864 0.86482 0.24304 0.0
H1622 H 0.76407 0.8394 0.23653 0.0
O1623 O 0.80015 0.89055 0.30067 0.0
O1624 O 0.83113 0.89463 0.29107 0.0
H1625 H 0.85236 0.85791 0.24079 0.0
H1626 H 0.8424 0.8403 0.22375 0.0
C1627 C 0.84065 0.85543 0.22966 0.0
H1628 H 0.8425 0.86577 0.21714 0.0
H1629 H 0.86754 0.88139 0.28162 0.0
O1630 O 0.75828 0.88103 0.27931 0.0
C1631 C 0.81839 0.89291 0.30471 0.0
H1632 H 0.0483 0.09407 0.49949 0.0
H1633 H 0.02861 0.1309 0.54786 0.0
H1634 H 0.05504 0.06735 0.52241 0.0
H1635 H 0.03537 0.10381 0.57095 0.0
H1636 H 0.06857 0.05561 0.60704 0.0
H1637 H 0.06354 0.08363 0.5847 0.0
H1638 H 0.03463 0.04491 0.54295 0.0
H1639 H 0.03996 0.01691 0.56521 0.0
C1640 C 0.04549 0.09655 0.51505 0.0
C1641 C 0.0378 0.11467 0.52181 0.0
C1642 C 0.04925 0.08113 0.52817 0.0
C1643 C 0.04555 0.08339 0.54844 0.0
C1644 C 0.03844 0.10167 0.55539 0.0
C1645 C 0.03453 0.11716 0.54217 0.0
C1646 C 0.06136 0.05311 0.59296 0.0
C1647 C 0.05475 0.03414 0.58771 0.0
C1648 C 0.05828 0.06916 0.58031 0.0
C1649 C 0.0487 0.06648 0.56208 0.0
C1650 C 0.04223 0.04742 0.55681 0.0
C1651 C 0.04518 0.03142 0.56954 0.0
H1652 H 0.22683 0.82422 0.81365 0.0
H1653 H 0.20263 0.78001 0.8526 0.0
H1654 H 0.1985 0.82046 0.79163 0.0
H1655 H 0.17476 0.77525 0.83008 0.0
H1656 H 0.11829 0.78341 0.79404 0.0
H1657 H 0.14511 0.78981 0.81746 0.0
H1658 H 0.18557 0.79788 0.76868 0.0
H1659 H 0.1589 0.79238 0.74557 0.0
C1660 C 0.2154 0.81367 0.81743 0.0
C1661 C 0.21679 0.80247 0.83478 0.0
C1662 C 0.19926 0.81133 0.80475 0.0
C1663 C 0.18428 0.7975 0.80902 0.0
C1664 C 0.18581 0.78624 0.82644 0.0
C1665 C 0.20187 0.78876 0.83921 0.0
C1666 C 0.13288 0.78674 0.78838 0.0
C1667 C 0.13639 0.78738 0.76793 0.0
C1668 C 0.14831 0.79026 0.80178 0.0
C1669 C 0.16757 0.79438 0.79499 0.0
C1670 C 0.17093 0.79514 0.77452 0.0
C1671 C 0.15557 0.79182 0.76121 0.0
H1672 H 0.46331 0.98245 0.06299 0.0
H1673 H 0.43743 0.94392 0.10667 0.0
H1674 H 0.46846 0.95409 0.04105 0.0
H1675 H 0.44241 0.91554 0.08475 0.0
H1676 H 0.47607 0.86837 0.04642 0.0
H1677 H 0.47053 0.89572 0.06955 0.0
H1678 H 0.44652 0.93098 0.02212 0.0
H1679 H 0.45189 0.90395 0.99916 0.0
C1680 C 0.45877 0.96788 0.06785 0.0
C1681 C 0.44991 0.96531 0.08639 0.0
C1682 C 0.4616 0.9517 0.05532 0.0
C1683 C 0.45577 0.9326 0.06118 0.0
C1684 C 0.44715 0.93003 0.07989 0.0
C1685 C 0.44415 0.94627 0.09233 0.0
C1686 C 0.46942 0.88188 0.041 0.0
C1687 C 0.46451 0.88395 0.02091 0.0
C1688 C 0.46625 0.89753 0.05423 0.0
C1689 C 0.45831 0.91556 0.04757 0.0
C1690 C 0.45297 0.9174 0.02762 0.0
C1691 C 0.45594 0.90179 0.0145 0.0
H1692 H 0.26654 0.21016 0.31188 0.0
H1693 H 0.30554 0.18632 0.35631 0.0
H1694 H 0.2948 0.21495 0.28968 0.0
H1695 H 0.33387 0.19124 0.33423 0.0
H1696 H 0.37905 0.22751 0.29443 0.0
H1697 H 0.35213 0.22118 0.31787 0.0
H1698 H 0.31914 0.19153 0.27205 0.0
H1699 H 0.34586 0.19748 0.2488 0.0
C1700 C 0.28119 0.20597 0.31683 0.0
C1701 C 0.28395 0.19779 0.33565 0.0
C1702 C 0.29731 0.20863 0.30418 0.0
C1703 C 0.3165 0.20342 0.31026 0.0
C1704 C 0.31926 0.19545 0.32922 0.0
C1705 C 0.30308 0.19251 0.34175 0.0
C1706 C 0.36618 0.21941 0.28945 0.0
C1707 C 0.36461 0.21312 0.2697 0.0
C1708 C 0.35079 0.21579 0.30286 0.0
C1709 C 0.33348 0.20608 0.29666 0.0
C1710 C 0.33219 0.19931 0.27712 0.0
C1711 C 0.3476 0.20264 0.26386 0.0
H1712 H 0.03146 0.95456 0.89818 0.0
H1713 H 0.07586 0.97852 0.93709 0.0
H1714 H 0.02705 0.92647 0.9203 0.0
H1715 H 0.07296 0.94965 0.95835 0.0
H1716 H 0.04762 0.90833 0.00417 0.0
H1717 H 0.05291 0.9354 0.98159 0.0
H1718 H 0.03994 0.89686 0.93225 0.0
H1719 H 0.03323 0.86986 0.95526 0.0
C1720 C 0.04038 0.95369 0.91145 0.0
C1721 C 0.05402 0.96866 0.91593 0.0
C1722 C 0.03812 0.93742 0.92399 0.0
C1723 C 0.04969 0.93557 0.94119 0.0
C1724 C 0.06352 0.95057 0.94547 0.0
C1725 C 0.06547 0.96703 0.93311 0.0
C1726 C 0.04585 0.90553 0.98851 0.0
C1727 C 0.03975 0.8869 0.98158 0.0
C1728 C 0.04913 0.92113 0.97545 0.0
C1729 C 0.04688 0.91851 0.95496 0.0
C1730 C 0.04143 0.89964 0.94794 0.0
C1731 C 0.03778 0.88405 0.96111 0.0
H1732 H 0.36393 0.74638 0.21809 0.0
H1733 H 0.36826 0.80889 0.2303 0.0
H1734 H 0.33693 0.75283 0.19488 0.0
H1735 H 0.34157 0.81531 0.20673 0.0
H1736 H 0.30511 0.81654 0.14762 0.0
H1737 H 0.33389 0.81051 0.16856 0.0
H1738 H 0.30079 0.76717 0.20158 0.0
H1739 H 0.27156 0.77399 0.18131 0.0
C1740 C 0.3595 0.76153 0.21542 0.0
C1741 C 0.36823 0.77715 0.22599 0.0
C1742 C 0.34391 0.76518 0.20231 0.0
C1743 C 0.33709 0.78454 0.19919 0.0
C1744 C 0.34658 0.80025 0.20887 0.0
C1745 C 0.36186 0.79658 0.2223 0.0
C1746 C 0.30378 0.80608 0.15964 0.0
C1747 C 0.28596 0.79589 0.16294 0.0
C1748 C 0.32035 0.80248 0.17146 0.0
C1749 C 0.31958 0.78829 0.18656 0.0
C1750 C 0.30183 0.778 0.18984 0.0
C1751 C 0.28513 0.7819 0.17826 0.0
H1752 H 0.43115 0.05308 0.39865 0.0
H1753 H 0.47542 0.02029 0.43088 0.0
H1754 H 0.43714 0.08185 0.4196 0.0
H1755 H 0.48215 0.04953 0.45116 0.0
H1756 H 0.50232 0.11303 0.46693 0.0
H1757 H 0.4956 0.08589 0.44397 0.0
H1758 H 0.43346 0.08936 0.45792 0.0
H1759 H 0.44018 0.1162 0.48122 0.0
C1760 C 0.44196 0.05191 0.41037 0.0
C1761 C 0.45268 0.03433 0.41325 0.0
C1762 C 0.44554 0.06847 0.42219 0.0
C1763 C 0.4602 0.06792 0.43685 0.0
C1764 C 0.47095 0.05039 0.43975 0.0
C1765 C 0.46709 0.03369 0.42818 0.0
C1766 C 0.48718 0.1083 0.46478 0.0
C1767 C 0.47175 0.11675 0.47583 0.0
C1768 C 0.48338 0.09264 0.45182 0.0
C1769 C 0.46405 0.08547 0.44936 0.0
C1770 C 0.44849 0.09465 0.45956 0.0
C1771 C 0.45233 0.11001 0.47283 0.0
H1772 H 0.22808 0.17552 0.68541 0.0
H1773 H 0.20299 0.21799 0.64509 0.0
H1774 H 0.19946 0.17907 0.70706 0.0
H1775 H 0.17487 0.22263 0.66726 0.0
H1776 H 0.11853 0.21466 0.70332 0.0
H1777 H 0.14551 0.20793 0.6802 0.0
H1778 H 0.18595 0.20196 0.72931 0.0
H1779 H 0.15913 0.20775 0.75217 0.0
C1780 C 0.21637 0.1856 0.68121 0.0
C1781 C 0.21763 0.19642 0.66361 0.0
C1782 C 0.20007 0.18785 0.6937 0.0
C1783 C 0.18479 0.2012 0.68898 0.0
C1784 C 0.18614 0.21201 0.67127 0.0
C1785 C 0.20236 0.20958 0.6587 0.0
C1786 C 0.13316 0.21172 0.70913 0.0
C1787 C 0.13662 0.21177 0.7296 0.0
C1788 C 0.14867 0.20801 0.69588 0.0
C1789 C 0.16797 0.20439 0.70285 0.0
C1790 C 0.17128 0.20429 0.72334 0.0
C1791 C 0.15583 0.2078 0.7365 0.0
H1792 H 0.54574 0.02618 0.12984 0.0
H1793 H 0.49927 0.05238 0.09463 0.0
H1794 H 0.56941 0.03298 0.1033 0.0
H1795 H 0.52281 0.05913 0.06842 0.0
H1796 H 0.5644 0.04293 0.01703 0.0
H1797 H 0.54154 0.03828 0.04468 0.0
H1798 H 0.58558 0.06108 0.08492 0.0
H1799 H 0.60847 0.06544 0.05723 0.0
C1800 C 0.54062 0.03357 0.1166 0.0
C1801 C 0.52059 0.0386 0.11435 0.0
C1802 C 0.55417 0.0375 0.10143 0.0
C1803 C 0.54789 0.04639 0.0837 0.0
C1804 C 0.52801 0.05195 0.08175 0.0
C1805 C 0.51456 0.04817 0.09688 0.0
C1806 C 0.5691 0.04696 0.0318 0.0
C1807 C 0.58808 0.05458 0.03506 0.0
C1808 C 0.55604 0.04442 0.04759 0.0
C1809 C 0.56178 0.04935 0.06697 0.0
C1810 C 0.5808 0.05703 0.07019 0.0
C1811 C 0.5938 0.05972 0.05435 0.0
H1812 H 0.2031 0.24845 0.34194 0.0
H1813 H 0.21812 0.29624 0.3816 0.0
H1814 H 0.19622 0.27197 0.31593 0.0
H1815 H 0.21046 0.32006 0.35549 0.0
H1816 H 0.21875 0.35394 0.29683 0.0
H1817 H 0.2237 0.33148 0.32466 0.0
H1818 H 0.17394 0.29652 0.30494 0.0
H1819 H 0.16984 0.31848 0.27657 0.0
C1820 C 0.20468 0.26404 0.34524 0.0
C1821 C 0.21125 0.27044 0.3639 0.0
C1822 C 0.20057 0.27758 0.33027 0.0
C1823 C 0.20272 0.29796 0.33355 0.0
C1824 C 0.20889 0.30445 0.35236 0.0
C1825 C 0.21315 0.29082 0.36738 0.0
C1826 C 0.20898 0.34136 0.29849 0.0
C1827 C 0.19395 0.33785 0.28463 0.0
C1828 C 0.21163 0.32864 0.31454 0.0
C1829 C 0.1992 0.31217 0.31712 0.0
C1830 C 0.18395 0.3089 0.30331 0.0
C1831 C 0.18144 0.32155 0.28717 0.0
H1832 H 0.00579 0.9539 0.59149 0.0
H1833 H 0.95594 0.96924 0.62837 0.0
H1834 H 0.98385 0.94855 0.56377 0.0
H1835 H 0.93368 0.96306 0.60057 0.0
H1836 H 0.90252 0.97237 0.54121 0.0
H1837 H 0.92431 0.97714 0.56958 0.0
H1838 H 0.95963 0.92738 0.55051 0.0
H1839 H 0.93839 0.92349 0.52158 0.0
C1840 C 0.99007 0.95585 0.5938 0.0
C1841 C 0.98264 0.96207 0.61221 0.0
C1842 C 0.97743 0.95265 0.57785 0.0
C1843 C 0.95695 0.95536 0.57985 0.0
C1844 C 0.94942 0.96113 0.5984 0.0
C1845 C 0.96214 0.96451 0.6144 0.0
C1846 C 0.91512 0.96265 0.54302 0.0
C1847 C 0.91881 0.94753 0.52931 0.0
C1848 C 0.92743 0.96517 0.55942 0.0
C1849 C 0.94367 0.95255 0.5625 0.0
C1850 C 0.9474 0.93752 0.54857 0.0
C1851 C 0.93517 0.93514 0.53208 0.0
H1852 H 0.273 0.7047 0.87903 0.0
H1853 H 0.30023 0.7512 0.84465 0.0
H1854 H 0.27943 0.68132 0.85208 0.0
H1855 H 0.30632 0.728 0.81795 0.0
H1856 H 0.28841 0.68732 0.76611 0.0
H1857 H 0.28324 0.7094 0.79437 0.0
H1858 H 0.30928 0.66592 0.83316 0.0
H1859 H 0.31451 0.64392 0.80481 0.0
C1860 C 0.2805 0.7099 0.86588 0.0
C1861 C 0.28598 0.72985 0.86399 0.0
C1862 C 0.28418 0.69652 0.85048 0.0
C1863 C 0.29315 0.70295 0.83286 0.0
C1864 C 0.29911 0.72273 0.83124 0.0
C1865 C 0.2957 0.73597 0.84664 0.0
C1866 C 0.29301 0.68256 0.78069 0.0
C1867 C 0.30194 0.66408 0.78337 0.0
C1868 C 0.29013 0.69515 0.79681 0.0
C1869 C 0.29591 0.68934 0.81592 0.0
C1870 C 0.30461 0.6707 0.81861 0.0
C1871 C 0.30774 0.65823 0.80243 0.0
H1872 H 0.56711 0.96332 0.48015 0.0
H1873 H 0.60787 0.9315 0.44287 0.0
H1874 H 0.54516 0.96841 0.45185 0.0
H1875 H 0.58585 0.93639 0.4145 0.0
H1876 H 0.54982 0.97147 0.36611 0.0
H1877 H 0.57291 0.96487 0.3933 0.0
H1878 H 0.52413 0.94696 0.43032 0.0
H1879 H 0.50124 0.95345 0.40354 0.0
C1880 C 0.57128 0.95738 0.46588 0.0
C1881 C 0.58904 0.94695 0.46363 0.0
C1882 C 0.55875 0.9602 0.44973 0.0
C1883 C 0.56381 0.95275 0.43098 0.0
C1884 C 0.58165 0.94238 0.42874 0.0
C1885 C 0.59411 0.93941 0.44497 0.0
C1886 C 0.54409 0.96595 0.37999 0.0
C1887 C 0.52368 0.96312 0.38264 0.0
C1888 C 0.55729 0.96214 0.39553 0.0
C1889 C 0.55025 0.95562 0.41399 0.0
C1890 C 0.52994 0.95229 0.41639 0.0
C1891 C 0.51685 0.95592 0.40093 0.0
H1892 H 0.29924 0.24756 0.65564 0.0
H1893 H 0.27668 0.29523 0.61953 0.0
H1894 H 0.30536 0.27065 0.68244 0.0
H1895 H 0.28313 0.31848 0.64658 0.0
H1896 H 0.31767 0.35464 0.6947 0.0
H1897 H 0.31277 0.33232 0.66659 0.0
H1898 H 0.28271 0.291 0.70483 0.0
H1899 H 0.2876 0.31341 0.73289 0.0
C1900 C 0.29573 0.26301 0.65331 0.0
C1901 C 0.28733 0.26951 0.63541 0.0
C1902 C 0.29915 0.2762 0.66876 0.0
C1903 C 0.29454 0.29628 0.66666 0.0
C1904 C 0.28684 0.30303 0.64856 0.0
C1905 C 0.28314 0.28973 0.6331 0.0
C1906 C 0.31014 0.34071 0.69705 0.0
C1907 C 0.30309 0.33559 0.71589 0.0
C1908 C 0.30719 0.32806 0.68097 0.0
C1909 C 0.29738 0.30995 0.68355 0.0
C1910 C 0.29045 0.30482 0.70247 0.0
C1911 C 0.29317 0.3176 0.71848 0.0
H1912 H 0.95434 0.02954 0.86911 0.0
H1913 H 0.00194 0.04825 0.90739 0.0
H1914 H 0.93058 0.03685 0.89533 0.0
H1915 H 0.97861 0.05447 0.93367 0.0
H1916 H 0.93198 0.07865 0.97395 0.0
H1917 H 0.95373 0.07499 0.94545 0.0
H1918 H 0.91956 0.02453 0.92605 0.0
H1919 H 0.89705 0.0293 0.95383 0.0
C1920 C 0.95973 0.03522 0.88307 0.0
C1921 C 0.98004 0.03823 0.88612 0.0
C1922 C 0.94615 0.03925 0.89819 0.0
C1923 C 0.95262 0.0462 0.91674 0.0
C1924 C 0.97293 0.0495 0.91956 0.0
C1925 C 0.9864 0.04574 0.90444 0.0
C1926 C 0.929 0.06702 0.96337 0.0
C1927 C 0.91284 0.05434 0.96595 0.0
C1928 C 0.94158 0.06471 0.94715 0.0
C1929 C 0.9385 0.0494 0.93336 0.0
C1930 C 0.92226 0.03669 0.93609 0.0
C1931 C 0.90952 0.03921 0.95216 0.0
H1932 H 0.2165 0.64303 0.20095 0.0
H1933 H 0.17029 0.6812 0.2226 0.0
H1934 H 0.2213 0.66475 0.17249 0.0
H1935 H 0.1743 0.70252 0.19371 0.0
H1936 H 0.20548 0.74865 0.15589 0.0
H1937 H 0.19823 0.72559 0.18216 0.0
H1938 H 0.20693 0.67675 0.14192 0.0
H1939 H 0.21486 0.7001 0.1154 0.0
C1940 C 0.20729 0.65605 0.19946 0.0
C1941 C 0.1931 0.66058 0.21389 0.0
C1942 C 0.20984 0.66834 0.18307 0.0
C1943 C 0.19819 0.68539 0.18078 0.0
C1944 C 0.1837 0.68964 0.19513 0.0
C1945 C 0.18125 0.67739 0.21157 0.0
C1946 C 0.20576 0.73301 0.15248 0.0
C1947 C 0.21081 0.72623 0.13348 0.0
C1948 C 0.20143 0.71975 0.1676 0.0
C1949 C 0.20189 0.6993 0.16418 0.0
C1950 C 0.20663 0.69244 0.14509 0.0
C1951 C 0.21106 0.70579 0.12987 0.0
H1952 H 0.11825 0.5374 0.00205 0.0
H1953 H 0.11186 0.51364 0.06093 0.0
H1954 H 0.09125 0.56043 0.00843 0.0
H1955 H 0.08532 0.53701 0.06756 0.0
H1956 H 0.02235 0.56108 0.06311 0.0
H1957 H 0.05162 0.54055 0.05783 0.0
H1958 H 0.07952 0.58862 0.02628 0.0
H1959 H 0.04993 0.60882 0.03125 0.0
C1960 C 0.11146 0.53747 0.01654 0.0
C1961 C 0.11712 0.52362 0.03094 0.0
C1962 C 0.09593 0.55066 0.02021 0.0
C1963 C 0.08585 0.55038 0.03842 0.0
C1964 C 0.09237 0.5373 0.0532 0.0
C1965 C 0.10774 0.52404 0.04947 0.0
C1966 C 0.03479 0.56715 0.05508 0.0
C1967 C 0.03399 0.58639 0.04752 0.0
C1968 C 0.05162 0.55551 0.05215 0.0
C1969 C 0.06805 0.56295 0.04171 0.0
C1970 C 0.06711 0.58231 0.03417 0.0
C1971 C 0.05023 0.59389 0.03703 0.0
H1972 H 0.59054 0.00311 0.95383 0.0
H1973 H 0.62892 0.95483 0.97058 0.0
H1974 H 0.56377 0.97991 0.94794 0.0
H1975 H 0.60187 0.93152 0.96465 0.0
H1976 H 0.55344 0.89543 0.93226 0.0
H1977 H 0.58104 0.91834 0.93687 0.0
H1978 H 0.5425 0.95814 0.96861 0.0
H1979 H 0.51486 0.93526 0.9637 0.0
C1980 C 0.59334 0.98752 0.95617 0.0
C1981 C 0.61191 0.98084 0.96275 0.0
C1982 C 0.5779 0.97425 0.95291 0.0
C1983 C 0.58066 0.95393 0.95599 0.0
C1984 C 0.59935 0.94712 0.96207 0.0
C1985 C 0.61482 0.96046 0.9655 0.0
C1986 C 0.55088 0.90919 0.94004 0.0
C1987 C 0.53207 0.91372 0.94754 0.0
C1988 C 0.5667 0.92217 0.94286 0.0
C1989 C 0.56394 0.94002 0.9531 0.0
C1990 C 0.54503 0.94457 0.9605 0.0
C1991 C 0.52926 0.9315 0.9578 0.0
H1992 H 0.31559 0.27328 0.17353 0.0
H1993 H 0.35083 0.29391 0.22244 0.0
H1994 H 0.2934 0.30139 0.17752 0.0
H1995 H 0.32791 0.32131 0.22755 0.0
H1996 H 0.29337 0.37844 0.22151 0.0
H1997 H 0.3169 0.35185 0.21494 0.0
H1998 H 0.26863 0.31357 0.19788 0.0
H1999 H 0.24549 0.34024 0.20336 0.0
C2000 C 0.31849 0.28386 0.18519 0.0
C2001 C 0.33494 0.28159 0.19757 0.0
C2002 C 0.30567 0.29986 0.18767 0.0
C2003 C 0.30879 0.31374 0.20289 0.0
C2004 C 0.32519 0.3112 0.21545 0.0
C2005 C 0.33817 0.29536 0.21274 0.0
C2006 C 0.28786 0.3644 0.21614 0.0
C2007 C 0.26755 0.3615 0.213 0.0
C2008 C 0.30132 0.34907 0.21254 0.0
C2009 C 0.29472 0.33044 0.20594 0.0
C2010 C 0.2744 0.32773 0.2026 0.0
C2011 C 0.26104 0.34307 0.20591 0.0
H2012 H 0.94717 0.09965 0.42892 0.0
H2013 H 0.98065 0.06794 0.47304 0.0
H2014 H 0.91879 0.07811 0.43493 0.0
H2015 H 0.95183 0.04712 0.4798 0.0
H2016 H 0.88865 0.03072 0.50052 0.0
H2017 H 0.91537 0.05405 0.49344 0.0
H2018 H 0.91194 0.03933 0.43149 0.0
H2019 H 0.88551 0.01563 0.43857 0.0
C2020 C 0.94857 0.08795 0.43973 0.0
C2021 C 0.96621 0.08544 0.45045 0.0
C2022 C 0.93225 0.07578 0.4433 0.0
C2023 C 0.9331 0.06112 0.45794 0.0
C2024 C 0.95072 0.05853 0.46862 0.0
C2025 C 0.96717 0.07044 0.46477 0.0
C2026 C 0.8933 0.03276 0.48534 0.0
C2027 C 0.88497 0.02138 0.47008 0.0
C2028 C 0.90872 0.04595 0.48134 0.0
C2029 C 0.91577 0.04833 0.46196 0.0
C2030 C 0.90673 0.03777 0.44655 0.0
C2031 C 0.89162 0.02425 0.4506 0.0
H2032 H 0.7128 0.13145 0.24428 0.0
H2033 H 0.73987 0.14141 0.18738 0.0
H2034 H 0.68992 0.15861 0.23815 0.0
H2035 H 0.71655 0.168 0.18082 0.0
H2036 H 0.69029 0.22979 0.18591 0.0
H2037 H 0.71132 0.20087 0.19116 0.0
H2038 H 0.66272 0.17099 0.22003 0.0
H2039 H 0.64215 0.20033 0.21537 0.0
C2040 C 0.7135 0.13909 0.23023 0.0
C2041 C 0.72818 0.13435 0.21635 0.0
C2042 C 0.70038 0.15471 0.22669 0.0
C2043 C 0.70152 0.16577 0.20908 0.0
C2044 C 0.71555 0.16022 0.19477 0.0
C2045 C 0.72879 0.14481 0.19842 0.0
C2046 C 0.68426 0.21701 0.19342 0.0
C2047 C 0.66478 0.21718 0.20036 0.0
C2048 C 0.69618 0.20036 0.19629 0.0
C2049 C 0.68873 0.18345 0.20594 0.0
C2050 C 0.66909 0.18376 0.2128 0.0
C2051 C 0.65727 0.20049 0.21009 0.0
H2052 H 0.37077 0.45642 0.52208 0.0
H2053 H 0.40694 0.50424 0.54412 0.0
H2054 H 0.3978 0.43328 0.52842 0.0
H2055 H 0.434 0.48157 0.54945 0.0
H2056 H 0.47453 0.43445 0.57321 0.0
H2057 H 0.44604 0.45611 0.56906 0.0
H2058 H 0.42928 0.42381 0.51648 0.0
H2059 H 0.45707 0.40136 0.52163 0.0
C2060 C 0.38443 0.46199 0.52829 0.0
C2061 C 0.38663 0.48219 0.53258 0.0
C2062 C 0.40003 0.44877 0.53175 0.0
C2063 C 0.41821 0.4555 0.53941 0.0
C2064 C 0.4202 0.47568 0.5439 0.0
C2065 C 0.40461 0.48877 0.54069 0.0
C2066 C 0.46459 0.43192 0.56091 0.0
C2067 C 0.46784 0.41617 0.54786 0.0
C2068 C 0.44836 0.44445 0.55836 0.0
C2069 C 0.43522 0.44176 0.54242 0.0
C2070 C 0.43879 0.42615 0.52914 0.0
C2071 C 0.45488 0.41346 0.53188 0.0
H2072 H 0.31337 0.72864 0.32422 0.0
H2073 H 0.34808 0.7086 0.27469 0.0
H2074 H 0.29148 0.70022 0.32046 0.0
H2075 H 0.32554 0.68087 0.26993 0.0
H2076 H 0.29297 0.62279 0.27718 0.0
H2077 H 0.31577 0.65011 0.28324 0.0
H2078 H 0.26662 0.68715 0.30044 0.0
H2079 H 0.24418 0.65977 0.29538 0.0
C2080 C 0.3162 0.71816 0.31245 0.0
C2081 C 0.33248 0.72065 0.29988 0.0
C2082 C 0.30357 0.70196 0.31013 0.0
C2083 C 0.30673 0.68809 0.29492 0.0
C2084 C 0.32283 0.69095 0.28206 0.0
C2085 C 0.33559 0.707 0.28457 0.0
C2086 C 0.28711 0.63671 0.28247 0.0
C2087 C 0.26674 0.63905 0.28575 0.0
C2088 C 0.30015 0.65246 0.28577 0.0
C2089 C 0.29308 0.67097 0.29223 0.0
C2090 C 0.27273 0.67312 0.29578 0.0
C2091 C 0.25978 0.65736 0.29273 0.0
H2092 H 0.14393 0.30681 0.81512 0.0
H2093 H 0.18606 0.26784 0.78736 0.0
H2094 H 0.16627 0.33483 0.8099 0.0
H2095 H 0.20837 0.29581 0.78194 0.0
H2096 H 0.25169 0.34499 0.7967 0.0
H2097 H 0.22849 0.31842 0.80315 0.0
H2098 H 0.18068 0.35458 0.78129 0.0
H2099 H 0.20406 0.38149 0.77471 0.0
C2100 C 0.15805 0.30427 0.80801 0.0
C2101 C 0.16342 0.28522 0.80174 0.0
C2102 C 0.17072 0.3203 0.80485 0.0
C2103 C 0.18907 0.3175 0.79555 0.0
C2104 C 0.1944 0.29838 0.78933 0.0
C2105 C 0.18165 0.28241 0.79233 0.0
C2106 C 0.23623 0.34744 0.79335 0.0
C2107 C 0.22977 0.36541 0.78507 0.0
C2108 C 0.22296 0.33211 0.79695 0.0
C2109 C 0.20283 0.33433 0.79254 0.0
C2110 C 0.19615 0.35248 0.78488 0.0
C2111 C 0.20952 0.36787 0.78109 0.0
H2112 H 0.52611 0.51882 0.06526 0.0
H2113 H 0.56589 0.55261 0.10199 0.0
H2114 H 0.51951 0.54842 0.04539 0.0
H2115 H 0.56019 0.58176 0.08143 0.0
H2116 H 0.56038 0.61644 0.01906 0.0
H2117 H 0.56657 0.58954 0.04247 0.0
H2118 H 0.50398 0.58482 0.05365 0.0
H2119 H 0.49776 0.61211 0.03072 0.0
C2120 C 0.53345 0.53253 0.06906 0.0
C2121 C 0.54654 0.53336 0.08515 0.0
C2122 C 0.52969 0.54942 0.05772 0.0
C2123 C 0.53931 0.56733 0.06199 0.0
C2124 C 0.55267 0.56809 0.07782 0.0
C2125 C 0.55607 0.55134 0.08943 0.0
C2126 C 0.548 0.61 0.0269 0.0
C2127 C 0.5286 0.61642 0.02309 0.0
C2128 C 0.55154 0.59459 0.04022 0.0
C2129 C 0.53571 0.58502 0.04962 0.0
C2130 C 0.51639 0.5919 0.04643 0.0
C2131 C 0.51288 0.60764 0.03348 0.0
H2132 H 0.62111 0.27577 0.29609 0.0
H2133 H 0.65521 0.30203 0.24886 0.0
H2134 H 0.64825 0.28245 0.31913 0.0
H2135 H 0.68209 0.30853 0.27177 0.0
H2136 H 0.73436 0.29192 0.31252 0.0
H2137 H 0.70617 0.28702 0.29029 0.0
H2138 H 0.66705 0.31123 0.33454 0.0
H2139 H 0.69527 0.31602 0.35672 0.0
C2140 C 0.63423 0.28314 0.29066 0.0
C2141 C 0.63597 0.28826 0.2706 0.0
C2142 C 0.64976 0.28698 0.30385 0.0
C2143 C 0.66737 0.29581 0.29717 0.0
C2144 C 0.66884 0.30142 0.27727 0.0
C2145 C 0.65332 0.2978 0.26418 0.0
C2146 C 0.71972 0.29621 0.31739 0.0
C2147 C 0.71692 0.30442 0.3362 0.0
C2148 C 0.70362 0.2935 0.3047 0.0
C2149 C 0.6844 0.29878 0.31069 0.0
C2150 C 0.68165 0.30693 0.32958 0.0
C2151 C 0.69779 0.30983 0.34217 0.0
H2152 H 0.95885 0.44784 0.60937 0.0
H2153 H 0.93759 0.47935 0.55831 0.0
H2154 H 0.9635 0.41811 0.58933 0.0
H2155 H 0.9429 0.45001 0.53787 0.0
H2156 H 0.93817 0.39096 0.50863 0.0
H2157 H 0.93088 0.41797 0.53122 0.0
H2158 H 0.98383 0.40442 0.56434 0.0
H2159 H 0.99064 0.37686 0.5421 0.0
C2160 C 0.95532 0.44833 0.59376 0.0
C2161 C 0.94794 0.46572 0.58525 0.0
C2162 C 0.95806 0.43139 0.58225 0.0
C2163 C 0.95358 0.43156 0.56193 0.0
C2164 C 0.94617 0.44914 0.55351 0.0
C2165 C 0.94328 0.46602 0.5651 0.0
C2166 C 0.94807 0.39355 0.52095 0.0
C2167 C 0.965 0.38181 0.52357 0.0
C2168 C 0.94401 0.40919 0.53379 0.0
C2169 C 0.95692 0.41368 0.54945 0.0
C2170 C 0.97344 0.40136 0.55256 0.0
C2171 C 0.97737 0.38552 0.53982 0.0
H2172 H 0.7995 0.72055 0.85747 0.0
H2173 H 0.77338 0.68511 0.81147 0.0
H2174 H 0.82884 0.72579 0.83702 0.0
H2175 H 0.8023 0.69078 0.79055 0.0
H2176 H 0.86247 0.68947 0.76319 0.0
H2177 H 0.83608 0.68268 0.78669 0.0
H2178 H 0.8402 0.7426 0.80849 0.0
H2179 H 0.86712 0.74909 0.78547 0.0
C2180 C 0.80005 0.71406 0.84284 0.0
C2181 C 0.7843 0.70249 0.83592 0.0
C2182 C 0.8168 0.71708 0.83109 0.0
C2183 C 0.81806 0.70867 0.8121 0.0
C2184 C 0.80209 0.69716 0.80523 0.0
C2185 C 0.78544 0.69403 0.81707 0.0
C2186 C 0.85798 0.70108 0.77326 0.0
C2187 C 0.86688 0.71983 0.77244 0.0
C2188 C 0.84267 0.69726 0.7866 0.0
C2189 C 0.8357 0.71217 0.79931 0.0
C2190 C 0.84524 0.73068 0.79907 0.0
C2191 C 0.86072 0.73442 0.78586 0.0
H2192 H 0.53376 0.44936 0.38905 0.0
H2193 H 0.56351 0.47872 0.4371 0.0
H2194 H 0.52878 0.42015 0.40975 0.0
H2195 H 0.55814 0.44983 0.45817 0.0
H2196 H 0.56104 0.39013 0.48666 0.0
H2197 H 0.56809 0.41643 0.46316 0.0
H2198 H 0.51009 0.40889 0.43743 0.0
H2199 H 0.50332 0.38213 0.46057 0.0
C2200 C 0.53909 0.44951 0.40415 0.0
C2201 C 0.54894 0.46616 0.41161 0.0
C2202 C 0.53621 0.43286 0.41603 0.0
C2203 C 0.54307 0.43256 0.43566 0.0
C2204 C 0.55297 0.44935 0.44303 0.0
C2205 C 0.55594 0.46595 0.43108 0.0
C2206 C 0.54992 0.39386 0.47576 0.0
C2207 C 0.5316 0.38406 0.47552 0.0
C2208 C 0.55388 0.4091 0.46241 0.0
C2209 C 0.53956 0.41506 0.44858 0.0
C2210 C 0.52155 0.40463 0.44776 0.0
C2211 C 0.51765 0.38925 0.46104 0.0
H2212 H 0.77448 0.3262 0.6836 0.0
H2213 H 0.79592 0.27907 0.64649 0.0
H2214 H 0.80303 0.32228 0.70524 0.0
H2215 H 0.82379 0.27397 0.66885 0.0
H2216 H 0.88065 0.27898 0.70403 0.0
H2217 H 0.85415 0.28629 0.68059 0.0
H2218 H 0.81551 0.30132 0.72924 0.0
H2219 H 0.84206 0.29513 0.75228 0.0
C2220 C 0.78534 0.31496 0.68015 0.0
C2221 C 0.78308 0.30298 0.66341 0.0
C2222 C 0.80161 0.3125 0.69266 0.0
C2223 C 0.81581 0.29771 0.68893 0.0
C2224 C 0.81342 0.28571 0.6721 0.0
C2225 C 0.7973 0.28841 0.65943 0.0
C2226 C 0.86655 0.28408 0.70964 0.0
C2227 C 0.86352 0.28641 0.73005 0.0
C2228 C 0.85127 0.28811 0.69622 0.0
C2229 C 0.83255 0.29436 0.70294 0.0
C2230 C 0.82973 0.29692 0.72336 0.0
C2231 C 0.84501 0.29318 0.73667 0.0
H2232 H 0.93005 0.55433 0.89332 0.0
H2233 H 0.96089 0.51673 0.93454 0.0
H2234 H 0.93511 0.5827 0.91528 0.0
H2235 H 0.96602 0.54505 0.95653 0.0
H2236 H 0.95066 0.59433 -0.00014 0.0
H2237 H 0.94407 0.56738 0.97711 0.0
H2238 H 0.96444 0.6032 0.92844 0.0
H2239 H 0.97128 0.63046 0.95135 0.0
C2240 C 0.93776 0.55215 0.90719 0.0
C2241 C 0.94497 0.5334 0.9124 0.0
C2242 C 0.94083 0.56839 0.91962 0.0
C2243 C 0.95093 0.56607 0.9376 0.0
C2244 C 0.95803 0.54723 0.94283 0.0
C2245 C 0.95518 0.53107 0.93028 0.0
C2246 C 0.95365 0.59664 0.9843 0.0
C2247 C 0.96164 0.61459 0.97746 0.0
C2248 C 0.94996 0.58109 0.9713 0.0
C2249 C 0.95394 0.58312 0.95107 0.0
C2250 C 0.96121 0.60127 0.944 0.0
C2251 C 0.96514 0.61685 0.9571 0.0
H2252 H 0.65935 0.71383 0.2513 0.0
H2253 H 0.61709 0.71091 0.20346 0.0
H2254 H 0.68604 0.70761 0.22833 0.0
H2255 H 0.64409 0.7041 0.18031 0.0
H2256 H 0.70067 0.71498 0.14305 0.0
H2257 H 0.67255 0.72017 0.16518 0.0
H2258 H 0.69984 0.6818 0.20838 0.0
H2259 H 0.72822 0.67736 0.18645 0.0
C2260 C 0.65569 0.71175 0.23586 0.0
C2261 C 0.63599 0.7129 0.22925 0.0
C2262 C 0.67107 0.708 0.22268 0.0
C2263 C 0.66725 0.7052 0.20248 0.0
C2264 C 0.64756 0.70635 0.19577 0.0
C2265 C 0.63208 0.71015 0.20904 0.0
C2266 C 0.70059 0.70776 0.15734 0.0
C2267 C 0.71655 0.69587 0.16317 0.0
C2268 C 0.68442 0.71054 0.16992 0.0
C2269 C 0.68391 0.70143 0.18859 0.0
C2270 C 0.69985 0.68926 0.19422 0.0
C2271 C 0.71603 0.68655 0.18165 0.0
H2272 H 0.06265 0.57225 0.52117 0.0
H2273 H 0.09916 0.524 0.54114 0.0
H2274 H 0.04197 0.56884 0.55044 0.0
H2275 H 0.07766 0.5194 0.56974 0.0
H2276 H 0.04617 0.52699 0.62859 0.0
H2277 H 0.06831 0.53277 0.60059 0.0
H2278 H 0.01809 0.54896 0.56449 0.0
H2279 H 0.99645 0.54436 0.59241 0.0
C2280 C 0.0661 0.5608 0.53182 0.0
C2281 C 0.08257 0.54855 0.52909 0.0
C2282 C 0.05416 0.55866 0.54851 0.0
C2283 C 0.05812 0.54385 0.56261 0.0
C2284 C 0.07436 0.53123 0.55949 0.0
C2285 C 0.08649 0.53363 0.54294 0.0
C2286 C 0.03998 0.53206 0.61473 0.0
C2287 C 0.01955 0.53519 0.6128 0.0
C2288 C 0.05261 0.53518 0.59859 0.0
C2289 C 0.04503 0.54129 0.58016 0.0
C2290 C 0.02462 0.54465 0.57845 0.0
C2291 C 0.01212 0.54185 0.59455 0.0
H2292 H 0.68125 0.85693 0.80406 0.0
H2293 H 0.7107 0.81473 0.76642 0.0
H2294 H 0.68599 0.83498 0.83251 0.0
H2295 H 0.7154 0.79271 0.7948 0.0
H2296 H 0.69889 0.75019 0.84438 0.0
H2297 H 0.69239 0.77309 0.81755 0.0
H2298 H 0.71586 0.82102 0.85248 0.0
H2299 H 0.72268 0.79795 0.87961 0.0
C2300 C 0.68858 0.84286 0.8019 0.0
C2301 C 0.69553 0.83735 0.78313 0.0
C2302 C 0.69144 0.83043 0.81816 0.0
C2303 C 0.70103 0.81218 0.81582 0.0
C2304 C 0.70783 0.80665 0.79696 0.0
C2305 C 0.70521 0.8192 0.78078 0.0
C2306 C 0.70257 0.76563 0.84653 0.0
C2307 C 0.71147 0.7722 0.86416 0.0
C2308 C 0.69892 0.77871 0.83105 0.0
C2309 C 0.70382 0.79874 0.83287 0.0
C2310 C 0.71193 0.8056 0.85075 0.0
C2311 C 0.71583 0.79241 0.86624 0.0
H2312 H 0.45702 0.48776 0.12225 0.0
H2313 H 0.49037 0.43567 0.10656 0.0
H2314 H 0.43388 0.48101 0.09543 0.0
H2315 H 0.46691 0.42843 0.08028 0.0
H2316 H 0.43808 0.43624 0.01971 0.0
H2317 H 0.45929 0.441 0.04861 0.0
H2318 H 0.4086 0.4605 0.08238 0.0
H2319 H 0.38777 0.45641 0.0531 0.0
C2320 C 0.4591 0.47458 0.11341 0.0
C2321 C 0.47556 0.46231 0.11643 0.0
C2322 C 0.44583 0.47068 0.098 0.0
C2323 C 0.44865 0.4543 0.08545 0.0
C2324 C 0.46454 0.44146 0.08927 0.0
C2325 C 0.47789 0.44549 0.10448 0.0
C2326 C 0.43162 0.44153 0.03338 0.0
C2327 C 0.41147 0.44606 0.03435 0.0
C2328 C 0.44365 0.44411 0.04998 0.0
C2329 C 0.43567 0.45109 0.06793 0.0
C2330 C 0.41533 0.45538 0.0688 0.0
C2331 C 0.40338 0.45296 0.05212 0.0
H2332 H 0.77364 0.20588 0.3781 0.0
H2333 H 0.8008 0.25279 0.34427 0.0
H2334 H 0.77968 0.18292 0.35076 0.0
H2335 H 0.80675 0.22995 0.31722 0.0
H2336 H 0.79031 0.19018 0.26458 0.0
H2337 H 0.78541 0.2122 0.29292 0.0
H2338 H 0.80771 0.16687 0.33197 0.0
H2339 H 0.81241 0.14488 0.30358 0.0
C2340 C 0.78107 0.21124 0.36498 0.0
C2341 C 0.78663 0.2312 0.36338 0.0
C2342 C 0.78454 0.1981 0.34934 0.0
C2343 C 0.79349 0.20472 0.33177 0.0
C2344 C 0.79952 0.22451 0.33043 0.0
C2345 C 0.79622 0.23755 0.34604 0.0
C2346 C 0.79409 0.185 0.27925 0.0
C2347 C 0.8017 0.16594 0.282 0.0
C2348 C 0.79142 0.19757 0.29543 0.0
C2349 C 0.79621 0.19124 0.31467 0.0
C2350 C 0.80375 0.17209 0.31736 0.0
C2351 C 0.80658 0.1596 0.30115 0.0
H2352 H 0.99422 0.45714 0.90808 0.0
H2353 H 0.04431 0.46822 0.87002 0.0
H2354 H 0.01608 0.45294 0.93596 0.0
H2355 H 0.06654 0.46294 0.89804 0.0
H2356 H 0.09923 0.47309 0.9564 0.0
H2357 H 0.07746 0.4776 0.92794 0.0
H2358 H 0.0389 0.43191 0.95062 0.0
H2359 H 0.06001 0.42858 0.97962 0.0
C2360 C 0.00998 0.4584 0.90556 0.0
C2361 C 0.01748 0.46309 0.88674 0.0
C2362 C 0.02259 0.45582 0.92163 0.0
C2363 C 0.04316 0.45752 0.91937 0.0
C2364 C 0.05076 0.46182 0.90044 0.0
C2365 C 0.03804 0.46467 0.88431 0.0
C2366 C 0.08592 0.46425 0.95533 0.0
C2367 C 0.08131 0.4504 0.97006 0.0
C2368 C 0.0736 0.46659 0.9389 0.0
C2369 C 0.05644 0.45501 0.9368 0.0
C2370 C 0.05182 0.44127 0.95176 0.0
C2371 C 0.06401 0.43916 0.96829 0.0
H2372 H 0.78251 0.79487 0.11843 0.0
H2373 H 0.79375 0.74587 0.15782 0.0
H2374 H 0.7884 0.81787 0.14566 0.0
H2375 H 0.79824 0.76846 0.185 0.0
H2376 H 0.8216 0.81285 0.22821 0.0
H2377 H 0.8187 0.79124 0.19959 0.0
H2378 H 0.77442 0.8302 0.17483 0.0
H2379 H 0.77878 0.85258 0.20278 0.0
C2380 C 0.78619 0.78901 0.13287 0.0
C2381 C 0.78757 0.76852 0.13591 0.0
C2382 C 0.78937 0.80217 0.14856 0.0
C2383 C 0.79373 0.79511 0.16768 0.0
C2384 C 0.79531 0.7746 0.17053 0.0
C2385 C 0.79252 0.76155 0.15486 0.0
C2386 C 0.81148 0.81686 0.21647 0.0
C2387 C 0.80056 0.83441 0.21755 0.0
C2388 C 0.80957 0.80436 0.20015 0.0
C2389 C 0.79628 0.80887 0.18475 0.0
C2390 C 0.78508 0.82636 0.18611 0.0
C2391 C 0.78731 0.83904 0.20228 0.0
H2392 H 0.43491 0.5774 0.47383 0.0
H2393 H 0.39386 0.5352 0.44945 0.0
H2394 H 0.45607 0.57365 0.4449 0.0
H2395 H 0.4156 0.53025 0.42107 0.0
H2396 H 0.45168 0.53619 0.36465 0.0
H2397 H 0.42868 0.54386 0.39149 0.0
H2398 H 0.47801 0.55073 0.43155 0.0
H2399 H 0.5007 0.54413 0.40486 0.0
C2400 C 0.43044 0.56734 0.4622 0.0
C2401 C 0.41279 0.55664 0.46377 0.0
C2402 C 0.44266 0.56497 0.44572 0.0
C2403 C 0.43766 0.55154 0.4306 0.0
C2404 C 0.41984 0.54092 0.43221 0.0
C2405 C 0.40751 0.54354 0.44858 0.0
C2406 C 0.45755 0.53955 0.37916 0.0
C2407 C 0.47803 0.53949 0.38256 0.0
C2408 C 0.44438 0.54381 0.3946 0.0
C2409 C 0.45143 0.54794 0.41377 0.0
C2410 C 0.47195 0.54804 0.41699 0.0
C2411 C 0.48503 0.54404 0.40161 0.0
H2412 H 0.71426 0.14583 0.70256 0.0
H2413 H 0.67133 0.18618 0.7268 0.0
H2414 H 0.71929 0.16786 0.67444 0.0
H2415 H 0.67497 0.2075 0.69802 0.0
H2416 H 0.70338 0.25282 0.65827 0.0
H2417 H 0.69705 0.22992 0.68482 0.0
H2418 H 0.70633 0.18088 0.64488 0.0
H2419 H 0.71396 0.20414 0.61828 0.0
C2420 C 0.70578 0.15939 0.70171 0.0
C2421 C 0.69245 0.16439 0.71679 0.0
C2422 C 0.70842 0.17188 0.68547 0.0
C2423 C 0.69755 0.18954 0.68384 0.0
C2424 C 0.68389 0.19424 0.69885 0.0
C2425 C 0.68155 0.18191 0.71525 0.0
C2426 C 0.70412 0.23716 0.65504 0.0
C2427 C 0.70939 0.23034 0.63612 0.0
C2428 C 0.70024 0.22395 0.67032 0.0
C2429 C 0.70108 0.20345 0.66711 0.0
C2430 C 0.70584 0.19656 0.64802 0.0
C2431 C 0.71006 0.20987 0.63271 0.0
H2432 H 0.52519 0.06561 0.57384 0.0
H2433 H 0.54324 0.10023 0.52349 0.0
H2434 H 0.55408 0.04439 0.5697 0.0
H2435 H 0.57159 0.07843 0.51851 0.0
H2436 H 0.63068 0.04676 0.52571 0.0
H2437 H 0.60309 0.06929 0.53197 0.0
H2438 H 0.56646 0.01966 0.54856 0.0
H2439 H 0.59393 0.99748 0.54311 0.0
C2440 C 0.53535 0.06857 0.56183 0.0
C2441 C 0.53214 0.08457 0.54908 0.0
C2442 C 0.55181 0.05635 0.55931 0.0
C2443 C 0.56526 0.0597 0.54377 0.0
C2444 C 0.56179 0.0756 0.53084 0.0
C2445 C 0.5454 0.08791 0.53349 0.0
C2446 C 0.61679 0.04074 0.5309 0.0
C2447 C 0.61458 0.02032 0.53393 0.0
C2448 C 0.60091 0.05362 0.53433 0.0
C2449 C 0.58249 0.04631 0.54076 0.0
C2450 C 0.58046 0.02591 0.54397 0.0
C2451 C 0.59628 0.01314 0.54071 0.0
H2452 H 0.02068 0.43177 0.4744 0.0
H2453 H 0.05372 0.39768 0.43176 0.0
H2454 H 0.05015 0.45177 0.48108 0.0
H2455 H 0.08275 0.41835 0.43766 0.0
H2456 H 0.1177 0.47993 0.43951 0.0
H2457 H 0.09078 0.45666 0.43299 0.0
H2458 H 0.08636 0.44425 0.49537 0.0
H2459 H 0.11362 0.46714 0.50191 0.0
C2460 C 0.0342 0.42859 0.46644 0.0
C2461 C 0.03486 0.41318 0.45254 0.0
C2462 C 0.05103 0.44 0.47026 0.0
C2463 C 0.06871 0.43649 0.45994 0.0
C2464 C 0.06927 0.42139 0.44575 0.0
C2465 C 0.05258 0.40972 0.44223 0.0
C2466 C 0.11131 0.47186 0.45177 0.0
C2467 C 0.11781 0.47531 0.4712 0.0
C2468 C 0.09589 0.45861 0.44804 0.0
C2469 C 0.08639 0.44887 0.46371 0.0
C2470 C 0.09336 0.45173 0.48307 0.0
C2471 C 0.10909 0.46465 0.48676 0.0
H2472 H 0.79562 0.87965 0.72224 0.0
H2473 H 0.74629 0.843 0.70476 0.0
H2474 H 0.81809 0.85198 0.71622 0.0
H2475 H 0.76839 0.8154 0.69964 0.0
H2476 H 0.81427 0.77368 0.67498 0.0
H2477 H 0.79296 0.8025 0.67898 0.0
H2478 H 0.82741 0.82077 0.72965 0.0
H2479 H 0.84935 0.79253 0.72473 0.0
C2480 C 0.78958 0.86575 0.71709 0.0
C2481 C 0.76916 0.86361 0.71396 0.0
C2482 C 0.80242 0.84982 0.71381 0.0
C2483 C 0.79508 0.83137 0.70748 0.0
C2484 C 0.77468 0.8294 0.70416 0.0
C2485 C 0.76195 0.8453 0.70723 0.0
C2486 C 0.81729 0.78398 0.68686 0.0
C2487 C 0.83347 0.78103 0.69945 0.0
C2488 C 0.80501 0.80041 0.6893 0.0
C2489 C 0.80846 0.81408 0.70463 0.0
C2490 C 0.8245 0.81082 0.71746 0.0
C2491 C 0.83689 0.79449 0.71486 0.0
H2492 H 0.40629 0.49588 0.95569 0.0
H2493 H 0.37144 0.54601 0.9745 0.0
H2494 H 0.43454 0.51712 0.95074 0.0
H2495 H 0.39978 0.56768 0.96859 0.0
H2496 H 0.46002 0.59728 0.97644 0.0
H2497 H 0.43135 0.57597 0.98161 0.0
H2498 H 0.44817 0.54144 0.9305 0.0
H2499 H 0.47745 0.56205 0.92629 0.0
C2500 C 0.40452 0.51155 0.95848 0.0
C2501 C 0.38652 0.51922 0.96555 0.0
C2502 C 0.4208 0.5238 0.95551 0.0
C2503 C 0.41956 0.54418 0.95922 0.0
C2504 C 0.40141 0.55199 0.96588 0.0
C2505 C 0.38508 0.53962 0.96908 0.0
C2506 C 0.45769 0.5849 0.96656 0.0
C2507 C 0.47085 0.58129 0.95093 0.0
C2508 C 0.44109 0.57288 0.9693 0.0
C2509 C 0.43725 0.55704 0.95638 0.0
C2510 C 0.45068 0.55333 0.9409 0.0
C2511 C 0.46739 0.56521 0.93834 0.0
H2512 H 0.18561 0.73202 0.7102 0.0
H2513 H 0.14364 0.693 0.68225 0.0
H2514 H 0.20797 0.70411 0.71562 0.0
H2515 H 0.16605 0.66502 0.68748 0.0
H2516 H 0.2042 0.61856 0.72288 0.0
H2517 H 0.18061 0.64529 0.71624 0.0
H2518 H 0.22811 0.68168 0.69411 0.0
H2519 H 0.25151 0.65532 0.70061 0.0
C2520 C 0.18124 0.71744 0.7052 0.0
C2521 C 0.16304 0.71461 0.69572 0.0
C2522 C 0.19402 0.70151 0.7082 0.0
C2523 C 0.18876 0.68239 0.70191 0.0
C2524 C 0.17043 0.67955 0.69257 0.0
C2525 C 0.15773 0.69556 0.6894 0.0
C2526 C 0.20954 0.6322 0.71642 0.0
C2527 C 0.22977 0.6348 0.7124 0.0
C2528 C 0.19605 0.64747 0.7126 0.0
C2529 C 0.20259 0.66564 0.70487 0.0
C2530 C 0.22269 0.66798 0.70038 0.0
C2531 C 0.23608 0.65276 0.70401 0.0
H2532 H 0.97747 0.9346 0.07757 0.0
H2533 H 0.95513 0.89742 0.0309 0.0
H2534 H 0.94908 0.9565 0.07383 0.0
H2535 H 0.92743 0.92 0.02598 0.0
H2536 H 0.8708 0.95525 0.03187 0.0
H2537 H 0.89735 0.93181 0.0389 0.0
H2538 H 0.93641 0.98046 0.05281 0.0
H2539 H 0.9098 0.00354 0.04691 0.0
C2540 C 0.96645 0.9312 0.06646 0.0
C2541 C 0.96839 0.91436 0.05457 0.0
C2542 C 0.95029 0.94385 0.06411 0.0
C2543 C 0.93587 0.94013 0.04953 0.0
C2544 C 0.93797 0.92323 0.03758 0.0
C2545 C 0.95399 0.91043 0.04017 0.0
C2546 C 0.88501 0.96086 0.03666 0.0
C2547 C 0.88815 0.98128 0.03876 0.0
C2548 C 0.90031 0.94745 0.04052 0.0
C2549 C 0.91916 0.95417 0.04636 0.0
C2550 C 0.9221 0.9746 0.0487 0.0
C2551 C 0.90679 0.98792 0.04513 0.0
H2552 H 0.79238 0.1181 0.78373 0.0
H2553 H 0.7445 0.15908 0.79414 0.0
H2554 H 0.81617 0.14447 0.79041 0.0
H2555 H 0.76792 0.18541 0.79953 0.0
H2556 H 0.81296 0.22692 0.82423 0.0
H2557 H 0.79085 0.19871 0.82102 0.0
H2558 H 0.82961 0.17353 0.77682 0.0
H2559 H 0.85245 0.20107 0.78144 0.0
C2560 C 0.78692 0.1327 0.78738 0.0
C2561 C 0.76652 0.13644 0.78829 0.0
C2562 C 0.80055 0.14789 0.79105 0.0
C2563 C 0.79405 0.16719 0.79549 0.0
C2564 C 0.77361 0.17075 0.79656 0.0
C2565 C 0.76009 0.15559 0.79322 0.0
C2566 C 0.81688 0.21514 0.81414 0.0
C2567 C 0.83443 0.21605 0.8032 0.0
C2568 C 0.80407 0.19907 0.81203 0.0
C2569 C 0.80832 0.18374 0.79856 0.0
C2570 C 0.82594 0.1848 0.78756 0.0
C2571 C 0.8389 0.20072 0.78996 0.0
H2572 H 0.68341 0.77032 0.2828 0.0
H2573 H 0.65019 0.8017 0.32733 0.0
H2574 H 0.7058 0.79858 0.27971 0.0
H2575 H 0.67301 0.82954 0.32483 0.0
H2576 H 0.73501 0.86105 0.32983 0.0
H2577 H 0.70967 0.8355 0.33221 0.0
H2578 H 0.70394 0.83507 0.26869 0.0
H2579 H 0.72896 0.86096 0.26623 0.0
C2580 C 0.68088 0.78324 0.2919 0.0
C2581 C 0.66514 0.78372 0.30541 0.0
C2582 C 0.69367 0.79941 0.29013 0.0
C2583 C 0.69111 0.81625 0.30203 0.0
C2584 C 0.67544 0.81667 0.31561 0.0
C2585 C 0.6625 0.80065 0.31717 0.0
C2586 C 0.72812 0.85579 0.31637 0.0
C2587 C 0.73427 0.86287 0.29781 0.0
C2588 C 0.71361 0.84114 0.31775 0.0
C2589 C 0.70508 0.8331 0.30061 0.0
C2590 C 0.71054 0.84078 0.28212 0.0
C2591 C 0.72483 0.85566 0.28074 0.0
H2592 H 0.01591 0.19942 0.48131 0.0
H2593 H 0.99515 0.20022 0.42088 0.0
H2594 H 0.01207 0.23534 0.483 0.0
H2595 H 0.99114 0.23583 0.4227 0.0
H2596 H 0.00968 0.29951 0.4228 0.0
H2597 H 0.01384 0.2639 0.42415 0.0
H2598 H 0.9874 0.26279 0.48222 0.0
H2599 H 0.9834 0.29872 0.48103 0.0
C2600 C 0.01028 0.20717 0.46849 0.0
C2601 C 0.00603 0.19691 0.45089 0.0
C2602 C 0.00807 0.22776 0.46948 0.0
C2603 C 0.00163 0.23848 0.45287 0.0
C2604 C 0.9966 0.22808 0.4356 0.0
C2605 C 0.99877 0.2076 0.43462 0.0
C2606 C 0.00489 0.29178 0.43597 0.0
C2607 C 0.99601 0.30202 0.45173 0.0
C2608 C 0.00715 0.2713 0.43667 0.0
C2609 C 0.0006 0.26045 0.45313 0.0
C2610 C 0.99259 0.27073 0.46932 0.0
C2611 C 0.99029 0.29132 0.46863 0.0
H2612 H 0.05136 0.76617 0.73164 0.0
H2613 H 0.04693 0.74365 0.67197 0.0
H2614 H 0.01531 0.76338 0.73514 0.0
H2615 H 0.01135 0.7411 0.67553 0.0
H2616 H 0.94996 0.76539 0.67701 0.0
H2617 H 0.9856 0.769 0.67902 0.0
H2618 H 0.9862 0.7363 0.73375 0.0
H2619 H 0.95014 0.73248 0.73179 0.0
C2620 C 0.04281 0.76039 0.7194 0.0
C2621 C 0.05206 0.75538 0.70143 0.0
C2622 C 0.02221 0.75882 0.72143 0.0
C2623 C 0.01057 0.7524 0.70547 0.0
C2624 C 0.01994 0.74649 0.68793 0.0
C2625 C 0.04038 0.74789 0.68595 0.0
C2626 C 0.95754 0.75916 0.68966 0.0
C2627 C 0.94718 0.74834 0.70407 0.0
C2628 C 0.978 0.7612 0.69076 0.0
C2629 C 0.98867 0.75258 0.70632 0.0
C2630 C 0.97829 0.74302 0.72156 0.0
C2631 C 0.95767 0.74086 0.72042 0.0
H2632 H 0.50927 0.79665 0.92385 0.0
H2633 H 0.48344 0.79837 0.98228 0.0
H2634 H 0.51239 0.76102 0.92622 0.0
H2635 H 0.48673 0.76231 0.98459 0.0
H2636 H 0.48923 0.69898 0.92417 0.0
H2637 H 0.48568 0.73459 0.92667 0.0
H2638 H 0.51315 0.73365 0.98422 0.0
H2639 H 0.51685 0.69766 0.98181 0.0
C2640 C 0.50443 0.78949 0.93732 0.0
C2641 C 0.49584 0.80043 0.95277 0.0
C2642 C 0.50615 0.76901 0.93862 0.0
C2643 C 0.49943 0.75886 0.95542 0.0
C2644 C 0.49194 0.76978 0.97143 0.0
C2645 C 0.49009 0.79041 0.97009 0.0
C2646 C 0.49434 0.70621 0.93751 0.0
C2647 C 0.5036 0.69541 0.95267 0.0
C2648 C 0.49238 0.72667 0.93888 0.0
C2649 C 0.49951 0.73692 0.95546 0.0
C2650 C 0.5076 0.72611 0.97124 0.0
C2651 C 0.50969 0.70551 0.96983 0.0
H2652 H 0.5511 0.26596 0.23444 0.0
H2653 H 0.54903 0.23847 0.17675 0.0
H2654 H 0.51505 0.26237 0.23719 0.0
H2655 H 0.51343 0.23518 0.17956 0.0
H2656 H 0.45233 0.26161 0.17714 0.0
H2657 H 0.48792 0.26457 0.18038 0.0
H2658 H 0.4858 0.2339 0.23622 0.0
H2659 H 0.44974 0.23063 0.23298 0.0
C2660 C 0.54308 0.25885 0.22254 0.0
C2661 C 0.55297 0.25277 0.20524 0.0
C2662 C 0.52248 0.25682 0.22415 0.0
C2663 C 0.5115 0.24884 0.20843 0.0
C2664 C 0.52153 0.2417 0.19174 0.0
C2665 C 0.54198 0.24356 0.19019 0.0
C2666 C 0.45928 0.25565 0.19027 0.0
C2667 C 0.44814 0.24558 0.20465 0.0
C2668 C 0.47972 0.25732 0.19207 0.0
C2669 C 0.4896 0.24913 0.20835 0.0
C2670 C 0.47848 0.24026 0.22348 0.0
C2671 C 0.45787 0.23842 0.22162 0.0
H2672 H 0.00877 0.70151 0.07403 0.0
H2673 H 0.98498 0.69943 0.01473 0.0
H2674 H 0.01208 0.73712 0.07149 0.0
H2675 H 0.98854 0.73548 0.01225 0.0
H2676 H 0.02005 0.80045 0.01756 0.0
H2677 H 0.01635 0.76444 0.01437 0.0
H2678 H 0.98384 0.76305 0.0692 0.0
H2679 H 0.98729 0.79859 0.07239 0.0
C2680 C 0.00446 0.70857 0.06032 0.0
C2681 C 0.99633 0.69755 0.04468 0.0
C2682 C 0.00631 0.72903 0.05892 0.0
C2683 C 0.00023 0.73906 0.04181 0.0
C2684 C 0.99326 0.72807 0.02563 0.0
C2685 C 0.99124 0.70746 0.02708 0.0
C2686 C 0.01175 0.79249 0.02869 0.0
C2687 C 0.00425 0.80239 0.04539 0.0
C2688 C 0.00967 0.7719 0.02686 0.0
C2689 C 0.00018 0.76098 0.04176 0.0
C2690 C 0.9916 0.77107 0.05771 0.0
C2691 C 0.99354 0.79148 0.05948 0.0
H2692 H 0.55077 0.73577 0.26869 0.0
H2693 H 0.54873 0.75542 0.32946 0.0
H2694 H 0.51478 0.73905 0.26654 0.0
H2695 H 0.51309 0.75882 0.32719 0.0
H2696 H 0.45007 0.73892 0.32634 0.0
H2697 H 0.48571 0.73509 0.32486 0.0
H2698 H 0.48662 0.76339 0.26768 0.0
H2699 H 0.45062 0.76712 0.26902 0.0
C2700 C 0.54273 0.74106 0.28148 0.0
C2701 C 0.55267 0.74512 0.29932 0.0
C2702 C 0.52211 0.74293 0.28023 0.0
C2703 C 0.51105 0.74882 0.29681 0.0
C2704 C 0.52112 0.75375 0.3143 0.0
C2705 C 0.54162 0.75193 0.31554 0.0
C2706 C 0.45776 0.74416 0.31331 0.0
C2707 C 0.44745 0.75355 0.2979 0.0
C2708 C 0.47825 0.74208 0.31254 0.0
C2709 C 0.48906 0.74933 0.29636 0.0
C2710 C 0.47871 0.7577 0.28038 0.0
C2711 C 0.45809 0.7598 0.28115 0.0
H2712 H 0.51856 0.30061 0.51425 0.0
H2713 H 0.4864 0.29888 0.56946 0.0
H2714 H 0.51544 0.26451 0.51155 0.0
H2715 H 0.48359 0.26323 0.56675 0.0
H2716 H 0.48389 0.19898 0.51408 0.0
H2717 H 0.48703 0.235 0.51067 0.0
H2718 H 0.51349 0.2381 0.56859 0.0
H2719 H 0.51066 0.20251 0.57204 0.0
C2720 C 0.51052 0.29266 0.52557 0.0
C2721 C 0.50301 0.30263 0.54223 0.0
C2722 C 0.50877 0.27203 0.52401 0.0
C2723 C 0.49963 0.26115 0.53914 0.0
C2724 C 0.49104 0.27127 0.55507 0.0
C2725 C 0.49263 0.29173 0.55656 0.0
C2726 C 0.49074 0.20731 0.52591 0.0
C2727 C 0.49674 0.19785 0.54347 0.0
C2728 C 0.49251 0.2279 0.52393 0.0
C2729 C 0.50015 0.23927 0.53952 0.0
C2730 C 0.50721 0.22967 0.55649 0.0
C2731 C 0.50562 0.20925 0.55842 0.0
H2732 H 0.9493 0.2668 0.76635 0.0
H2733 H 0.95134 0.23575 0.82217 0.0
H2734 H 0.98541 0.26369 0.76356 0.0
H2735 H 0.98697 0.23289 0.81936 0.0
H2736 H 0.04778 0.25946 0.82405 0.0
H2737 H 0.01216 0.26207 0.82088 0.0
H2738 H 0.015 0.23613 0.76271 0.0
H2739 H 0.05109 0.23326 0.76583 0.0
C2740 C 0.95733 0.25899 0.77779 0.0
C2741 C 0.94743 0.2518 0.79464 0.0
C2742 C 0.97796 0.25725 0.77618 0.0
C2743 C 0.98893 0.24841 0.79145 0.0
C2744 C 0.97888 0.24012 0.80757 0.0
C2745 C 0.95842 0.24173 0.80913 0.0
C2746 C 0.04098 0.25446 0.81044 0.0
C2747 C 0.05234 0.24585 0.79531 0.0
C2748 C 0.02052 0.25593 0.80868 0.0
C2749 C 0.01084 0.24896 0.79172 0.0
C2750 C 0.02216 0.24153 0.77598 0.0
C2751 C 0.04278 0.23991 0.77779 0.0
H2752 H 0.48127 0.02132 0.19959 0.0
H2753 H 0.42502 0.99099 0.2004 0.0
H2754 H 0.48321 0.01826 0.2357 0.0
H2755 H 0.42706 0.98796 0.23601 0.0
H2756 H 0.48339 0.98863 0.29969 0.0
H2757 H 0.48527 0.99293 0.26381 0.0
H2758 H 0.4246 0.01269 0.26311 0.0
H2759 H 0.42259 0.00833 0.29869 0.0
C2760 C 0.46951 0.01375 0.20737 0.0
C2761 C 0.45288 0.00662 0.19709 0.0
C2762 C 0.47061 0.01204 0.22802 0.0
C2763 C 0.45508 0.00326 0.23869 0.0
C2764 C 0.43902 0.99526 0.22826 0.0
C2765 C 0.43794 0.9969 0.20778 0.0
C2766 C 0.47054 0.99416 0.29191 0.0
C2767 C 0.45275 0.99787 0.30207 0.0
C2768 C 0.47165 0.99664 0.27137 0.0
C2769 C 0.45498 0.00278 0.26063 0.0
C2770 C 0.43757 0.0075 0.27094 0.0
C2771 C 0.43646 0.0051 0.29138 0.0
H2772 H 0.23553 0.17918 0.54802 0.0
H2773 H 0.26936 0.23338 0.5491 0.0
H2774 H 0.23209 0.18194 0.51245 0.0
H2775 H 0.26571 0.23611 0.51304 0.0
H2776 H 0.25771 0.17521 0.45151 0.0
H2777 H 0.26088 0.17867 0.48703 0.0
H2778 H 0.23785 0.23803 0.48375 0.0
H2779 H 0.23448 0.23465 0.44773 0.0
C2780 C 0.242 0.19187 0.54074 0.0
C2781 C 0.25301 0.20589 0.55142 0.0
C2782 C 0.24005 0.1934 0.52032 0.0
C2783 C 0.24899 0.20901 0.51001 0.0
C2784 C 0.25877 0.22389 0.5207 0.0
C2785 C 0.26081 0.22232 0.5413 0.0
C2786 C 0.2535 0.18914 0.45818 0.0
C2787 C 0.24556 0.20455 0.44672 0.0
C2788 C 0.25527 0.19106 0.47858 0.0
C2789 C 0.24926 0.20847 0.48812 0.0
C2790 C 0.2425 0.22443 0.4767 0.0
C2791 C 0.24059 0.22246 0.45612 0.0
H2792 H 0.07268 0.01015 0.70388 0.0
H2793 H 0.01587 0.98108 0.69978 0.0
H2794 H 0.06882 0.01279 0.73941 0.0
H2795 H 0.01202 0.98407 0.73582 0.0
H2796 H 0.07054 0.98503 0.79978 0.0
H2797 H 0.06729 0.98142 0.76421 0.0
H2798 H 0.01258 0.01411 0.76547 0.0
H2799 H 0.01582 0.01804 0.80146 0.0
C2800 C 0.05921 0.00455 0.71048 0.0
C2801 C 0.04472 0.9951 0.69895 0.0
C2802 C 0.05705 0.00606 0.73087 0.0
C2803 C 0.0403 0.99833 0.7403 0.0
C2804 C 0.02511 0.99007 0.72881 0.0
C2805 C 0.02733 0.98839 0.70824 0.0
C2806 C 0.05761 0.99123 0.79264 0.0
C2807 C 0.04362 0.00215 0.80345 0.0
C2808 C 0.05578 0.98914 0.77225 0.0
C2809 C 0.03987 0.99778 0.76216 0.0
C2810 C 0.025 0.00737 0.773 0.0
C2811 C 0.02687 0.00958 0.79355 0.0
H2812 H 0.2687 0.7671 0.94949 0.0
H2813 H 0.2367 0.8224 0.95103 0.0
H2814 H 0.26565 0.76457 0.98558 0.0
H2815 H 0.23382 0.81982 0.98666 0.0
H2816 H 0.25808 0.82493 0.04828 0.0
H2817 H 0.26108 0.82247 0.01262 0.0
H2818 H 0.2394 0.76253 0.01454 0.0
H2819 H 0.23626 0.76489 0.05057 0.0
C2820 C 0.26071 0.77848 0.95741 0.0
C2821 C 0.25321 0.7951 0.94738 0.0
C2822 C 0.25901 0.77704 0.97805 0.0
C2823 C 0.2499 0.79223 0.98889 0.0
C2824 C 0.24133 0.80813 0.9787 0.0
C2825 C 0.24292 0.80953 0.95824 0.0
C2826 C 0.25412 0.81111 0.04125 0.0
C2827 C 0.24666 0.7952 0.05234 0.0
C2828 C 0.25577 0.80975 0.02076 0.0
C2829 C 0.25011 0.79244 0.01081 0.0
C2830 C 0.24378 0.77607 0.02188 0.0
C2831 C 0.24199 0.77745 0.04249 0.0
H2832 H 0.19869 0.48046 0.01749 0.0
H2833 H 0.19812 0.42342 0.98868 0.0
H2834 H 0.23464 0.48206 0.01331 0.0
H2835 H 0.23371 0.42516 0.98445 0.0
H2836 H 0.29674 0.42067 0.00493 0.0
H2837 H 0.26114 0.42291 0.0085 0.0
H2838 H 0.26259 0.48337 0.98818 0.0
H2839 H 0.2986 0.48125 0.98466 0.0
C2840 C 0.20613 0.46844 0.00997 0.0
C2841 C 0.19552 0.45168 0.00367 0.0
C2842 C 0.22672 0.46938 0.00759 0.0
C2843 C 0.23704 0.45355 0.99892 0.0
C2844 C 0.22625 0.43737 0.99164 0.0
C2845 C 0.20579 0.43644 0.99397 0.0
C2846 C 0.2896 0.43454 0.00134 0.0
C2847 C 0.30059 0.45072 0.9943 0.0
C2848 C 0.26912 0.43576 0.00327 0.0
C2849 C 0.259 0.45318 0.99824 0.0
C2850 C 0.26999 0.46973 0.99212 0.0
C2851 C 0.2906 0.4685 0.99011 0.0
H2852 H 0.70117 0.02004 0.96891 0.0
H2853 H 0.70143 0.05469 0.0225 0.0
H2854 H 0.73695 0.01479 0.97223 0.0
H2855 H 0.73695 0.04879 0.02614 0.0
H2856 H 0.79951 0.02033 0.03085 0.0
H2857 H 0.76375 0.01513 0.02741 0.0
H2858 H 0.76414 0.04819 0.97293 0.0
H2859 H 0.79966 0.05405 0.97668 0.0
C2860 C 0.70875 0.02595 0.98172 0.0
C2861 C 0.69861 0.0378 0.99544 0.0
C2862 C 0.72916 0.02299 0.98356 0.0
C2863 C 0.73954 0.03133 0.99947 0.0
C2864 C 0.72917 0.04206 0.01387 0.0
C2865 C 0.70891 0.04548 0.01175 0.0
C2866 C 0.79203 0.02601 0.01788 0.0
C2867 C 0.80228 0.03762 0.00403 0.0
C2868 C 0.77163 0.02309 0.01598 0.0
C2869 C 0.76136 0.03122 -0.00011 0.0
C2870 C 0.77184 0.04163 0.98535 0.0
C2871 C 0.7921 0.04501 0.98752 0.0
H2872 H 0.22906 0.45006 0.21903 0.0
H2873 H 0.19486 0.45096 0.27291 0.0
H2874 H 0.2345 0.48582 0.22198 0.0
H2875 H 0.20097 0.48647 0.27617 0.0
H2876 H 0.22922 0.54918 0.27967 0.0
H2877 H 0.23466 0.51343 0.27667 0.0
H2878 H 0.20082 0.5128 0.22265 0.0
H2879 H 0.19472 0.54831 0.22598 0.0
C2880 C 0.22333 0.45776 0.23184 0.0
C2881 C 0.21151 0.44781 0.24574 0.0
C2882 C 0.22639 0.47816 0.23347 0.0
C2883 C 0.2182 0.48872 0.24933 0.0
C2884 C 0.20758 0.47854 0.26393 0.0
C2885 C 0.20406 0.45829 0.26203 0.0
C2886 C 0.22342 0.54149 0.26688 0.0
C2887 C 0.21152 0.55144 0.25306 0.0
C2888 C 0.22649 0.52109 0.26523 0.0
C2889 C 0.21821 0.51054 0.2494 0.0
C2890 C 0.20751 0.52073 0.23486 0.0
C2891 C 0.20398 0.54098 0.23679 0.0
H2892 H 0.70098 0.98332 0.51392 0.0
H2893 H 0.70487 0.92204 0.4961 0.0
H2894 H 0.73707 0.98615 0.51139 0.0
H2895 H 0.74051 0.92497 0.4937 0.0
H2896 H 0.80223 0.92741 0.51625 0.0
H2897 H 0.76661 0.92966 0.52012 0.0
H2898 H 0.76596 0.98333 0.48566 0.0
H2899 H 0.80195 0.98115 0.48171 0.0
C2900 C 0.70944 0.97056 0.50924 0.0
C2901 C 0.7 0.95238 0.50544 0.0
C2902 C 0.73007 0.9722 0.50782 0.0
C2903 C 0.74158 0.95567 0.50275 0.0
C2904 C 0.73205 0.93784 0.49809 0.0
C2905 C 0.71156 0.93622 0.49937 0.0
C2906 C 0.79462 0.93989 0.50972 0.0
C2907 C 0.80493 0.95392 0.49839 0.0
C2908 C 0.77418 0.94111 0.51187 0.0
C2909 C 0.7635 0.95642 0.5028 0.0
C2910 C 0.77386 0.97133 0.49273 0.0
C2911 C 0.79445 0.97008 0.4905 0.0
H2912 H 0.82724 0.95199 0.23735 0.0
H2913 H 0.7686 0.95095 0.26276 0.0
H2914 H 0.825 0.98761 0.23362 0.0
H2915 H 0.76647 0.98692 0.25898 0.0
H2916 H 0.76873 0.05151 0.23042 0.0
H2917 H 0.76664 0.01542 0.23337 0.0
H2918 H 0.82488 0.01428 0.25941 0.0
H2919 H 0.82706 0.04993 0.25653 0.0
C2920 C 0.81375 0.9593 0.24195 0.0
C2921 C 0.7982 0.94858 0.25061 0.0
C2922 C 0.81253 0.97976 0.2399 0.0
C2923 C 0.79572 0.99008 0.24638 0.0
C2924 C 0.77963 0.97933 0.25392 0.0
C2925 C 0.78087 0.95875 0.25606 0.0
C2926 C 0.78095 0.04357 0.23705 0.0
C2927 C 0.79816 0.05364 0.24301 0.0
C2928 C 0.77974 0.02292 0.23871 0.0
C2929 C 0.79577 0.01203 0.24623 0.0
C2930 C 0.81248 0.02223 0.2531 0.0
C2931 C 0.81366 0.04273 0.25155 0.0
H2932 H 0.20004 0.51859 0.48148 0.0
H2933 H 0.19928 0.57526 0.511 0.0
H2934 H 0.23606 0.51719 0.48543 0.0
H2935 H 0.23492 0.57376 0.5149 0.0
H2936 H 0.3006 0.51951 0.51437 0.0
H2937 H 0.26458 0.51646 0.51114 0.0
H2938 H 0.2616 0.57632 0.48932 0.0
H2939 H 0.29716 0.57945 0.49249 0.0
C2940 C 0.20745 0.53055 0.48912 0.0
C2941 C 0.19677 0.54718 0.49565 0.0
C2942 C 0.22807 0.52973 0.49136 0.0
C2943 C 0.23832 0.54556 0.50009 0.0
C2944 C 0.22747 0.56155 0.50768 0.0
C2945 C 0.207 0.56235 0.50551 0.0
C2946 C 0.29227 0.53191 0.50863 0.0
C2947 C 0.30179 0.54981 0.50393 0.0
C2948 C 0.27166 0.53015 0.50679 0.0
C2949 C 0.26027 0.54629 0.50037 0.0
C2950 C 0.26994 0.56378 0.49477 0.0
C2951 C 0.29039 0.56551 0.49649 0.0
H2952 H 0.26936 0.45049 0.76494 0.0
H2953 H 0.32823 0.45112 0.74008 0.0
H2954 H 0.26757 0.48649 0.76124 0.0
H2955 H 0.32632 0.48672 0.73633 0.0
H2956 H 0.26974 0.55063 0.73251 0.0
H2957 H 0.26767 0.51464 0.73611 0.0
H2958 H 0.32648 0.51387 0.76088 0.0
H2959 H 0.32867 0.54948 0.75724 0.0
C2960 C 0.28176 0.45821 0.7584 0.0
C2961 C 0.29904 0.44791 0.75305 0.0
C2962 C 0.28073 0.47882 0.7563 0.0
C2963 C 0.29697 0.48945 0.74888 0.0
C2964 C 0.31375 0.479 0.74256 0.0
C2965 C 0.31478 0.45853 0.74461 0.0
C2966 C 0.2821 0.54279 0.73898 0.0
C2967 C 0.29947 0.55294 0.74433 0.0
C2968 C 0.2809 0.52219 0.74103 0.0
C2969 C 0.29707 0.51141 0.7484 0.0
C2970 C 0.31397 0.52171 0.75469 0.0
C2971 C 0.31516 0.54218 0.75269 0.0
H2972 H 0.92208 0.48905 0.69954 0.0
H2973 H 0.981 0.51384 0.69838 0.0
H2974 H 0.92435 0.48531 0.73515 0.0
H2975 H 0.98316 0.51001 0.73435 0.0
H2976 H 0.98011 0.48086 0.799 0.0
H2977 H 0.98248 0.484 0.76292 0.0
H2978 H 0.92498 0.51159 0.76165 0.0
H2979 H 0.92253 0.50859 0.79728 0.0
C2980 C 0.93563 0.49351 0.70681 0.0
C2981 C 0.95125 0.50202 0.69607 0.0
C2982 C 0.93688 0.49144 0.72727 0.0
C2983 C 0.95377 0.49775 0.73755 0.0
C2984 C 0.96994 0.5051 0.72678 0.0
C2985 C 0.96867 0.50727 0.7062 0.0
C2986 C 0.96814 0.4879 0.79103 0.0
C2987 C 0.95101 0.49422 0.80103 0.0
C2988 C 0.9695 0.48965 0.7704 0.0
C2989 C 0.95372 0.49764 0.75948 0.0
C2990 C 0.93716 0.50493 0.76963 0.0
C2991 C 0.93583 0.50328 0.7901 0.0
H2992 H 0.7319 0.73509 0.94918 0.0
H2993 H 0.76268 0.67908 0.95029 0.0
H2994 H 0.73506 0.73731 0.98531 0.0
H2995 H 0.76556 0.68132 0.98597 0.0
H2996 H 0.76644 0.73366 0.05066 0.0
H2997 H 0.76316 0.73741 0.01469 0.0
H2998 H 0.73609 0.6798 0.01123 0.0
H2999 H 0.73909 0.67601 0.04678 0.0
C3000 C 0.73964 0.72348 0.95701 0.0
C3001 C 0.74675 0.70676 0.94685 0.0
C3002 C 0.74141 0.72476 0.97765 0.0
C3003 C 0.75019 0.70929 0.98836 0.0
C3004 C 0.75838 0.69327 0.97807 0.0
C3005 C 0.75676 0.69204 0.95759 0.0
C3006 C 0.75943 0.72198 0.04226 0.0
C3007 C 0.75331 0.7044 0.05159 0.0
C3008 C 0.75758 0.72415 0.0217 0.0
C3009 C 0.74974 0.70873 0.01024 0.0
C3010 C 0.74254 0.69175 0.01972 0.0
C3011 C 0.74423 0.68963 0.04013 0.0
H3012 H 0.57454 0.50772 0.19864 0.0
H3013 H 0.51634 0.4813 0.19816 0.0
H3014 H 0.57257 0.51153 0.23423 0.0
H3015 H 0.5145 0.48509 0.23415 0.0
H3016 H 0.57545 0.49077 0.29702 0.0
H3017 H 0.57323 0.48676 0.26145 0.0
H3018 H 0.51412 0.51077 0.26211 0.0
H3019 H 0.51622 0.51477 0.29806 0.0
C3020 C 0.56122 0.50287 0.20607 0.0
C3021 C 0.54569 0.49398 0.1955 0.0
C3022 C 0.56016 0.50495 0.22653 0.0
C3023 C 0.54356 0.49823 0.23701 0.0
C3024 C 0.52751 0.49034 0.22643 0.0
C3025 C 0.52858 0.48818 0.20584 0.0
C3026 C 0.56186 0.49505 0.28971 0.0
C3027 C 0.5461 0.50334 0.30042 0.0
C3028 C 0.56065 0.49284 0.26927 0.0
C3029 C 0.54366 0.49883 0.25895 0.0
C3030 C 0.52742 0.50609 0.26969 0.0
C3031 C 0.52864 0.50837 0.29026 0.0
H3032 H 0.76778 0.26598 0.44941 0.0
H3033 H 0.73579 0.32126 0.45183 0.0
H3034 H 0.76393 0.26244 0.48539 0.0
H3035 H 0.73224 0.31771 0.48733 0.0
H3036 H 0.76037 0.32194 0.54782 0.0
H3037 H 0.7634 0.3184 0.51229 0.0
H3038 H 0.73382 0.26201 0.51492 0.0
H3039 H 0.73044 0.26554 0.55097 0.0
C3040 C 0.75959 0.27712 0.45747 0.0
C3041 C 0.75238 0.29408 0.44776 0.0
C3042 C 0.75741 0.27507 0.47802 0.0
C3043 C 0.7481 0.28998 0.48905 0.0
C3044 C 0.73975 0.30616 0.47915 0.0
C3045 C 0.74179 0.30816 0.45878 0.0
C3046 C 0.75468 0.30862 0.54102 0.0
C3047 C 0.74485 0.29417 0.55227 0.0
C3048 C 0.75642 0.30663 0.52062 0.0
C3049 C 0.74855 0.29011 0.51092 0.0
C3050 C 0.73994 0.27492 0.52215 0.0
C3051 C 0.73804 0.27696 0.54273 0.0
H3052 H 0.6729 0.95203 0.75805 0.0
H3053 H 0.73185 0.95105 0.73337 0.0
H3054 H 0.67505 0.98755 0.76198 0.0
H3055 H 0.73391 0.98709 0.73741 0.0
H3056 H 0.72931 0.05153 0.76862 0.0
H3057 H 0.73253 0.0156 0.76449 0.0
H3058 H 0.67584 0.01401 0.73528 0.0
H3059 H 0.67254 0.04946 0.73932 0.0
C3060 C 0.68643 0.95933 0.75363 0.0
C3061 C 0.7021 0.94866 0.74511 0.0
C3062 C 0.68761 0.97975 0.75583 0.0
C3063 C 0.70448 0.99011 0.74962 0.0
C3064 C 0.7207 0.97944 0.74223 0.0
C3065 C 0.7195 0.95884 0.73994 0.0
C3066 C 0.71772 0.04353 0.76101 0.0
C3067 C 0.70052 0.05335 0.75458 0.0
C3068 C 0.71958 0.02299 0.75866 0.0
C3069 C 0.70424 0.01202 0.74994 0.0
C3070 C 0.68769 0.02205 0.74246 0.0
C3071 C 0.68585 0.04241 0.74473 0.0
H3072 H 0.92273 0.09613 0.2659 0.0
H3073 H 0.8762 0.12378 0.29965 0.0
H3074 H 0.94646 0.10444 0.29177 0.0
H3075 H 0.89991 0.13209 0.32561 0.0
H3076 H 0.94901 0.12699 0.3745 0.0
H3077 H 0.92302 0.11815 0.35107 0.0
H3078 H 0.96069 0.13604 0.30273 0.0
H3079 H 0.98658 0.14491 0.32612 0.0
C3080 C 0.91754 0.10358 0.27909 0.0
C3081 C 0.89761 0.10892 0.281 0.0
C3082 C 0.93111 0.10852 0.29379 0.0
C3083 C 0.92506 0.11913 0.3106 0.0
C3084 C 0.90494 0.12376 0.31291 0.0
C3085 C 0.89134 0.1188 0.29815 0.0
C3086 C 0.9515 0.12966 0.35894 0.0
C3087 C 0.96974 0.13691 0.35214 0.0
C3088 C 0.93668 0.12439 0.34551 0.0
C3089 C 0.93995 0.12611 0.32507 0.0
C3090 C 0.9579 0.13412 0.31838 0.0
C3091 C 0.97265 0.13939 0.33176 0.0
H3092 H 0.09114 0.73212 0.57539 0.0
H3093 H 0.12254 0.6989 0.61985 0.0
H3094 H 0.09867 0.70671 0.55102 0.0
H3095 H 0.1295 0.67297 0.59566 0.0
H3096 H 0.15966 0.64656 0.53935 0.0
H3097 H 0.15036 0.66912 0.56614 0.0
H3098 H 0.0913 0.67311 0.54211 0.0
H3099 H 0.10063 0.65102 0.51545 0.0
C3100 C 0.09914 0.71904 0.58005 0.0
C3101 C 0.10573 0.71715 0.59959 0.0
C3102 C 0.10346 0.70448 0.56613 0.0
C3103 C 0.11462 0.68776 0.57143 0.0
C3104 C 0.12093 0.6857 0.59112 0.0
C3105 C 0.11657 0.70032 0.60507 0.0
C3106 C 0.14468 0.65215 0.53998 0.0
C3107 C 0.13092 0.64717 0.52528 0.0
C3108 C 0.13931 0.66499 0.55532 0.0
C3109 C 0.1201 0.67299 0.55617 0.0
C3110 C 0.1063 0.66753 0.54169 0.0
C3111 C 0.11167 0.65488 0.52639 0.0
H3112 H 0.51675 0.89386 0.84693 0.0
H3113 H 0.54875 0.83953 0.85665 0.0
H3114 H 0.54283 0.90559 0.82523 0.0
H3115 H 0.57489 0.85107 0.8343 0.0
H3116 H 0.62423 0.88284 0.80151 0.0
H3117 H 0.60125 0.8754 0.82835 0.0
H3118 H 0.55283 0.89658 0.79244 0.0
H3119 H 0.57582 0.90461 0.76606 0.0
C3120 C 0.52941 0.8844 0.84433 0.0
C3121 C 0.53068 0.86568 0.85319 0.0
C3122 C 0.54435 0.89112 0.83192 0.0
C3123 C 0.5608 0.87916 0.82782 0.0
C3124 C 0.56246 0.86069 0.83729 0.0
C3125 C 0.5475 0.85403 0.84997 0.0
C3126 C 0.60878 0.88658 0.79967 0.0
C3127 C 0.60183 0.8947 0.78185 0.0
C3128 C 0.59558 0.88198 0.8149 0.0
C3129 C 0.57523 0.88539 0.81254 0.0
C3130 C 0.56844 0.89405 0.7949 0.0
C3131 C 0.58159 0.8986 0.77974 0.0
H3132 H 0.35225 0.32449 0.01481 0.0
H3133 H 0.36979 0.37467 0.05019 0.0
H3134 H 0.36388 0.30227 0.04067 0.0
H3135 H 0.3812 0.35241 0.07615 0.0
H3136 H 0.37949 0.30124 0.12404 0.0
H3137 H 0.36907 0.32644 0.10041 0.0
H3138 H 0.39749 0.29392 0.05339 0.0
H3139 H 0.4081 0.26887 0.07711 0.0
C3140 C 0.35821 0.33077 0.02829 0.0
C3141 C 0.3598 0.35132 0.03057 0.0
C3142 C 0.36505 0.31806 0.04299 0.0
C3143 C 0.3737 0.32564 0.06027 0.0
C3144 C 0.37451 0.3462 0.063 0.0
C3145 C 0.36773 0.35895 0.04821 0.0
C3146 C 0.38433 0.29998 0.10884 0.0
C3147 C 0.39508 0.28341 0.10244 0.0
C3148 C 0.3781 0.31426 0.09527 0.0
C3149 C 0.38226 0.31198 0.07506 0.0
C3150 C 0.3938 0.29587 0.06885 0.0
C3151 C 0.40007 0.28167 0.08241 0.0
H3152 H 0.90265 0.85246 0.23376 0.0
H3153 H 0.89718 0.90954 0.20579 0.0
H3154 H 0.92438 0.84141 0.20744 0.0
H3155 H 0.91951 0.89863 0.17944 0.0
H3156 H 0.94957 0.8688 0.1277 0.0
H3157 H 0.92352 0.8764 0.15148 0.0
H3158 H 0.95758 0.84795 0.19746 0.0
H3159 H 0.98305 0.83962 0.17345 0.0
C3160 C 0.90624 0.8627 0.22199 0.0
C3161 C 0.89837 0.88191 0.22185 0.0
C3162 C 0.91869 0.85636 0.20691 0.0
C3163 C 0.92381 0.86916 0.19141 0.0
C3164 C 0.91564 0.88831 0.19104 0.0
C3165 C 0.90296 0.89462 0.20614 0.0
C3166 C 0.95101 0.86339 0.14268 0.0
C3167 C 0.96797 0.85302 0.14865 0.0
C3168 C 0.93632 0.86815 0.15641 0.0
C3169 C 0.93846 0.86281 0.17637 0.0
C3170 C 0.95526 0.852 0.18215 0.0
C3171 C 0.96988 0.84722 0.16844 0.0
H3172 H 0.37022 0.62986 0.44974 0.0
H3173 H 0.34397 0.67705 0.48369 0.0
H3174 H 0.37993 0.65347 0.42428 0.0
H3175 H 0.35369 0.70073 0.45826 0.0
H3176 H 0.39545 0.73981 0.42389 0.0
H3177 H 0.38551 0.71429 0.44739 0.0
H3178 H 0.36721 0.67686 0.39899 0.0
H3179 H 0.37712 0.70244 0.37556 0.0
C3180 C 0.36582 0.64515 0.45138 0.0
C3181 C 0.3559 0.65159 0.46844 0.0
C3182 C 0.37161 0.65871 0.43691 0.0
C3183 C 0.36778 0.67897 0.43939 0.0
C3184 C 0.35717 0.68526 0.45612 0.0
C3185 C 0.35139 0.67171 0.47054 0.0
C3186 C 0.38972 0.72593 0.41832 0.0
C3187 C 0.38758 0.72285 0.39795 0.0
C3188 C 0.3838 0.71143 0.43173 0.0
C3189 C 0.37539 0.69366 0.42502 0.0
C3190 C 0.37384 0.69032 0.40458 0.0
C3191 C 0.37976 0.70486 0.39116 0.0
H3192 H 0.55014 0.12936 0.62418 0.0
H3193 H 0.51417 0.15225 0.67161 0.0
H3194 H 0.57515 0.11898 0.64805 0.0
H3195 H 0.53907 0.14172 0.69555 0.0
H3196 H 0.57226 0.09743 0.73283 0.0
H3197 H 0.54979 0.10854 0.70689 0.0
H3198 H 0.59934 0.13119 0.67362 0.0
H3199 H 0.62177 0.12024 0.69965 0.0
C3200 C 0.54799 0.13295 0.63962 0.0
C3201 C 0.5305 0.14212 0.64606 0.0
C3202 C 0.56218 0.12674 0.65331 0.0
C3203 C 0.55893 0.12932 0.67365 0.0
C3204 C 0.5418 0.13923 0.67997 0.0
C3205 C 0.52768 0.14548 0.66631 0.0
C3206 C 0.57836 0.10439 0.71976 0.0
C3207 C 0.59878 0.10756 0.71807 0.0
C3208 C 0.56551 0.11095 0.70504 0.0
C3209 C 0.57282 0.12096 0.68837 0.0
C3210 C 0.59333 0.1234 0.68625 0.0
C3211 C 0.60619 0.11688 0.70105 0.0
H3212 H 0.09108 0.26761 0.92183 0.0
H3213 H 0.12105 0.30189 0.87721 0.0
H3214 H 0.0983 0.293 0.94627 0.0
H3215 H 0.12765 0.32784 0.90148 0.0
H3216 H 0.15826 0.35424 0.95756 0.0
H3217 H 0.14884 0.332 0.93054 0.0
H3218 H 0.09047 0.32617 0.95585 0.0
H3219 H 0.09999 0.34786 0.9828 0.0
C3220 C 0.09869 0.28091 0.91716 0.0
C3221 C 0.105 0.28307 0.89756 0.0
C3222 C 0.10281 0.29548 0.93112 0.0
C3223 C 0.11348 0.31251 0.9258 0.0
C3224 C 0.11946 0.31486 0.90604 0.0
C3225 C 0.11531 0.30023 0.89205 0.0
C3226 C 0.1434 0.3483 0.95716 0.0
C3227 C 0.12992 0.35259 0.97231 0.0
C3228 C 0.13796 0.33565 0.94169 0.0
C3229 C 0.11893 0.32722 0.94113 0.0
C3230 C 0.10535 0.33208 0.95604 0.0
C3231 C 0.11082 0.3445 0.97149 0.0
H3232 H 0.29895 0.89064 0.09192 0.0
H3233 H 0.27099 0.89792 0.14879 0.0
H3234 H 0.32553 0.91302 0.10224 0.0
H3235 H 0.29761 0.91961 0.15934 0.0
H3236 H 0.32926 0.9797 0.1574 0.0
H3237 H 0.30631 0.95281 0.15089 0.0
H3238 H 0.35348 0.9189 0.12426 0.0
H3239 H 0.37626 0.94632 0.13009 0.0
C3240 C 0.29873 0.89676 0.10671 0.0
C3241 C 0.28288 0.89289 0.11947 0.0
C3242 C 0.31395 0.90945 0.11269 0.0
C3243 C 0.31354 0.91825 0.13156 0.0
C3244 C 0.29813 0.91344 0.14458 0.0
C3245 C 0.2829 0.90103 0.13854 0.0
C3246 C 0.33478 0.9663 0.15057 0.0
C3247 C 0.35457 0.96485 0.1447 0.0
C3248 C 0.32168 0.95085 0.14688 0.0
C3249 C 0.3281 0.93366 0.13712 0.0
C3250 C 0.34809 0.93198 0.13174 0.0
C3251 C 0.36122 0.9475 0.13544 0.0
H3252 H 0.26825 0.07813 0.40717 0.0
H3253 H 0.30342 0.12513 0.38222 0.0
H3254 H 0.29473 0.05474 0.4006 0.0
H3255 H 0.33042 0.10185 0.37631 0.0
H3256 H 0.35895 0.04779 0.34356 0.0
H3257 H 0.33655 0.07437 0.35375 0.0
H3258 H 0.32739 0.04497 0.40973 0.0
H3259 H 0.34917 0.01838 0.39931 0.0
C3260 C 0.28193 0.08353 0.40082 0.0
C3261 C 0.28396 0.10347 0.39562 0.0
C3262 C 0.29715 0.07017 0.3971 0.0
C3263 C 0.31475 0.07644 0.38798 0.0
C3264 C 0.31701 0.09655 0.38327 0.0
C3265 C 0.30171 0.10995 0.38701 0.0
C3266 C 0.35228 0.04722 0.3581 0.0
C3267 C 0.35555 0.03099 0.37056 0.0
C3268 C 0.33955 0.06244 0.364 0.0
C3269 C 0.33003 0.06168 0.3825 0.0
C3270 C 0.33411 0.0458 0.39523 0.0
C3271 C 0.34659 0.03058 0.38926 0.0
H3272 H 0.1226 0.05441 0.63341 0.0
H3273 H 0.17299 0.02256 0.65634 0.0
H3274 H 0.14461 0.08 0.62062 0.0
H3275 H 0.19493 0.04796 0.64325 0.0
H3276 H 0.22757 0.07805 0.59374 0.0
H3277 H 0.20228 0.05604 0.60697 0.0
H3278 H 0.17128 0.10611 0.63149 0.0
H3279 H 0.19679 0.12816 0.61859 0.0
C3280 C 0.13826 0.05321 0.6364 0.0
C3281 C 0.14607 0.03655 0.64608 0.0
C3282 C 0.15086 0.06777 0.62885 0.0
C3283 C 0.17142 0.06569 0.63063 0.0
C3284 C 0.17912 0.04967 0.64134 0.0
C3285 C 0.16657 0.03526 0.64898 0.0
C3286 C 0.21511 0.0844 0.60154 0.0
C3287 C 0.21404 0.10483 0.60488 0.0
C3288 C 0.20076 0.07181 0.60926 0.0
C3289 C 0.18506 0.07941 0.6205 0.0
C3290 C 0.18324 0.09994 0.62282 0.0
C3291 C 0.19773 0.11256 0.61519 0.0
H3292 H 0.14688 0.9791 0.89248 0.0
H3293 H 0.14509 0.95073 0.83542 0.0
H3294 H 0.16725 0.95244 0.90538 0.0
H3295 H 0.16628 0.92412 0.84808 0.0
H3296 H 0.19672 0.87366 0.87913 0.0
H3297 H 0.16998 0.89636 0.87068 0.0
H3298 H 0.20109 0.94358 0.90047 0.0
H3299 H 0.22726 0.92066 0.90956 0.0
C3300 C 0.15096 0.96709 0.8827 0.0
C3301 C 0.14486 0.96702 0.8629 0.0
C3302 C 0.16262 0.95184 0.89007 0.0
C3303 C 0.16866 0.93632 0.8777 0.0
C3304 C 0.16177 0.93581 0.85804 0.0
C3305 C 0.14982 0.95104 0.85071 0.0
C3306 C 0.19735 0.88866 0.88463 0.0
C3307 C 0.21373 0.89533 0.89552 0.0
C3308 C 0.18225 0.90176 0.87942 0.0
C3309 C 0.18339 0.92177 0.88488 0.0
C3310 C 0.19953 0.9282 0.89632 0.0
C3311 C 0.21456 0.91512 0.90152 0.0
H3312 H 0.60252 0.22665 0.07874 0.0
H3313 H 0.62272 0.19455 0.13012 0.0
H3314 H 0.61593 0.2009 0.05744 0.0
H3315 H 0.6358 0.16855 0.1087 0.0
H3316 H 0.63704 0.11991 0.05653 0.0
H3317 H 0.62481 0.14256 0.08185 0.0
H3318 H 0.65206 0.19141 0.0512 0.0
H3319 H 0.66456 0.1688 0.02608 0.0
C3320 C 0.60939 0.21385 0.0855 0.0
C3321 C 0.61135 0.21255 0.1061 0.0
C3322 C 0.61722 0.19922 0.07331 0.0
C3323 C 0.62718 0.18295 0.08146 0.0
C3324 C 0.62815 0.18096 0.10209 0.0
C3325 C 0.62042 0.19574 0.11434 0.0
C3326 C 0.64117 0.13532 0.05564 0.0
C3327 C 0.65196 0.14257 0.03941 0.0
C3328 C 0.63395 0.14831 0.07003 0.0
C3329 C 0.63719 0.16872 0.06822 0.0
C3330 C 0.64905 0.17575 0.05271 0.0
C3331 C 0.65635 0.16281 0.03846 0.0
H3332 H 0.0804 0.41927 0.27561 0.0
H3333 H 0.12693 0.38688 0.30491 0.0
H3334 H 0.05696 0.4082 0.30071 0.0
H3335 H 0.10357 0.37608 0.33018 0.0
H3336 H 0.05344 0.37518 0.37912 0.0
H3337 H 0.07955 0.38766 0.35755 0.0
H3338 H 0.04394 0.37368 0.30648 0.0
H3339 H 0.01802 0.36086 0.32793 0.0
C3340 C 0.08574 0.41034 0.28779 0.0
C3341 C 0.10555 0.40429 0.28852 0.0
C3342 C 0.07232 0.40384 0.30202 0.0
C3343 C 0.07844 0.39108 0.31721 0.0
C3344 C 0.09851 0.38602 0.31869 0.0
C3345 C 0.11195 0.39245 0.30436 0.0
C3346 C 0.05146 0.37407 0.3633 0.0
C3347 C 0.03376 0.36673 0.3552 0.0
C3348 C 0.06633 0.38148 0.35097 0.0
C3349 C 0.06359 0.38194 0.33041 0.0
C3350 C 0.04625 0.37389 0.32233 0.0
C3351 C 0.03151 0.36638 0.33459 0.0
H3352 H 0.87323 0.87384 0.54984 0.0
H3353 H 0.84961 0.82597 0.51493 0.0
H3354 H 0.88281 0.85044 0.5756 0.0
H3355 H 0.85926 0.80249 0.5406 0.0
H3356 H 0.90069 0.76456 0.57647 0.0
H3357 H 0.89122 0.78999 0.55267 0.0
H3358 H 0.86949 0.82649 0.60035 0.0
H3359 H 0.87887 0.80096 0.62407 0.0
C3360 C 0.86937 0.85841 0.54804 0.0
C3361 C 0.86016 0.85172 0.53067 0.0
C3362 C 0.8751 0.84499 0.56267 0.0
C3363 C 0.87197 0.82463 0.56001 0.0
C3364 C 0.86217 0.81807 0.5429 0.0
C3365 C 0.85643 0.83148 0.52833 0.0
C3366 C 0.89433 0.77824 0.58184 0.0
C3367 C 0.89103 0.78105 0.6021 0.0
C3368 C 0.88869 0.79268 0.56825 0.0
C3369 C 0.87943 0.81014 0.57465 0.0
C3370 C 0.87678 0.81328 0.59501 0.0
C3371 C 0.88241 0.79878 0.60862 0.0
H3372 H 0.12794 0.61206 0.19344 0.0
H3373 H 0.07962 0.58246 0.22281 0.0
H3374 H 0.10517 0.62431 0.16828 0.0
H3375 H 0.05683 0.595 0.19782 0.0
H3376 H 0.02049 0.64426 0.17087 0.0
H3377 H 0.0461 0.63062 0.19221 0.0
H3378 H 0.08009 0.61374 0.14093 0.0
H3379 H 0.05424 0.62703 0.11948 0.0
C3380 C 0.11265 0.60745 0.19408 0.0
C3381 C 0.1056 0.59601 0.20995 0.0
C3382 C 0.09957 0.6147 0.17979 0.0
C3383 C 0.07924 0.61087 0.18133 0.0
C3384 C 0.07242 0.59845 0.1965 0.0
C3385 C 0.08546 0.59111 0.21067 0.0
C3386 C 0.03359 0.63798 0.16414 0.0
C3387 C 0.03542 0.63697 0.1435 0.0
C3388 C 0.04815 0.63001 0.17634 0.0
C3389 C 0.06488 0.62084 0.16817 0.0
C3390 C 0.06732 0.62076 0.14757 0.0
C3391 C 0.05262 0.62863 0.1353 0.0
H3392 H 0.48214 0.34369 0.66937 0.0
H3393 H 0.44781 0.37057 0.62282 0.0
H3394 H 0.45694 0.35317 0.69341 0.0
H3395 H 0.42252 0.37998 0.64679 0.0
H3396 H 0.37504 0.37835 0.6974 0.0
H3397 H 0.39739 0.36749 0.67125 0.0
H3398 H 0.44737 0.38595 0.70644 0.0
H3399 H 0.42505 0.3969 0.73249 0.0
C3400 C 0.4689 0.35111 0.66424 0.0
C3401 C 0.46665 0.35595 0.64423 0.0
C3402 C 0.45461 0.35674 0.67797 0.0
C3403 C 0.4379 0.36753 0.67198 0.0
C3404 C 0.43516 0.37152 0.65179 0.0
C3405 C 0.44951 0.36589 0.63803 0.0
C3406 C 0.39074 0.38073 0.69927 0.0
C3407 C 0.39831 0.38879 0.71687 0.0
C3408 C 0.40355 0.37428 0.68438 0.0
C3409 C 0.42411 0.37558 0.68696 0.0
C3410 C 0.43159 0.38435 0.70423 0.0
C3411 C 0.41883 0.39082 0.71904 0.0
H3412 H 0.4605 0.65994 0.85236 0.0
H3413 H 0.48292 0.60042 0.84692 0.0
H3414 H 0.43386 0.65187 0.82919 0.0
H3415 H 0.45643 0.59234 0.82413 0.0
H3416 H 0.42369 0.59429 0.76484 0.0
H3417 H 0.44812 0.60089 0.79049 0.0
H3418 H 0.40385 0.63166 0.82476 0.0
H3419 H 0.37963 0.62563 0.79862 0.0
C3420 C 0.45957 0.64511 0.84645 0.0
C3421 C 0.4738 0.63085 0.85138 0.0
C3422 C 0.44433 0.64046 0.83322 0.0
C3423 C 0.44311 0.62148 0.82476 0.0
C3424 C 0.45715 0.60718 0.83009 0.0
C3425 C 0.47234 0.61184 0.84316 0.0
C3426 C 0.41914 0.6021 0.77806 0.0
C3427 C 0.39968 0.60888 0.78008 0.0
C3428 C 0.43308 0.60588 0.79276 0.0
C3429 C 0.42788 0.61671 0.80972 0.0
C3430 C 0.4083 0.62332 0.81185 0.0
C3431 C 0.39432 0.61949 0.7971 0.0
H3432 H 0.86402 0.12034 0.94463 0.0
H3433 H 0.83529 0.16916 0.97401 0.0
H3434 H 0.87689 0.1429 0.91961 0.0
H3435 H 0.84853 0.19177 0.94922 0.0
H3436 H 0.89919 0.22678 0.92278 0.0
H3437 H 0.88497 0.2013 0.94391 0.0
H3438 H 0.86642 0.16863 0.89236 0.0
H3439 H 0.8802 0.19435 0.87114 0.0
C3440 C 0.8597 0.13571 0.94528 0.0
C3441 C 0.84831 0.14295 0.96109 0.0
C3442 C 0.86733 0.14866 0.93109 0.0
C3443 C 0.86396 0.16906 0.93272 0.0
C3444 C 0.8516 0.17612 0.94783 0.0
C3445 C 0.84386 0.16318 0.96188 0.0
C3446 C 0.89244 0.21397 0.91594 0.0
C3447 C 0.89108 0.2125 0.89529 0.0
C3448 C 0.88414 0.1995 0.92802 0.0
C3449 C 0.87433 0.18322 0.91971 0.0
C3450 C 0.87394 0.18106 0.89908 0.0
C3451 C 0.88211 0.19568 0.88695 0.0
H3452 H 0.65405 0.82526 0.4864 0.0
H3453 H 0.63585 0.87232 0.44733 0.0
H3454 H 0.64668 0.80113 0.46084 0.0
H3455 H 0.62912 0.84817 0.42135 0.0
H3456 H 0.59322 0.79591 0.39338 0.0
H3457 H 0.60419 0.82238 0.41554 0.0
H3458 H 0.65692 0.78898 0.42915 0.0
H3459 H 0.64581 0.76261 0.40747 0.0
C3460 C 0.64898 0.83047 0.47213 0.0
C3461 C 0.64585 0.85068 0.46877 0.0
C3462 C 0.64481 0.81666 0.45744 0.0
C3463 C 0.63732 0.82273 0.43903 0.0
C3464 C 0.63476 0.84304 0.43543 0.0
C3465 C 0.63898 0.8569 0.45018 0.0
C3466 C 0.60722 0.79441 0.40098 0.0
C3467 C 0.61858 0.77719 0.39886 0.0
C3468 C 0.61356 0.80956 0.41358 0.0
C3469 C 0.63138 0.80771 0.42419 0.0
C3470 C 0.64295 0.7907 0.4215 0.0
C3471 C 0.63657 0.77559 0.40909 0.0
H3472 H 0.84683 0.48264 0.60104 0.0
H3473 H 0.85435 0.45267 0.65684 0.0
H3474 H 0.82569 0.45605 0.58935 0.0
H3475 H 0.83252 0.42612 0.64541 0.0
H3476 H 0.80139 0.37545 0.61576 0.0
H3477 H 0.8279 0.39895 0.62259 0.0
H3478 H 0.79287 0.44559 0.59647 0.0
H3479 H 0.76694 0.42188 0.58883 0.0
C3480 C 0.84383 0.47033 0.61084 0.0
C3481 C 0.85197 0.46973 0.62991 0.0
C3482 C 0.83174 0.45511 0.60415 0.0
C3483 C 0.82724 0.43906 0.6165 0.0
C3484 C 0.83588 0.43818 0.63544 0.0
C3485 C 0.84824 0.45338 0.64206 0.0
C3486 C 0.79981 0.39053 0.61064 0.0
C3487 C 0.78242 0.39679 0.6012 0.0
C3488 C 0.81479 0.40408 0.61497 0.0
C3489 C 0.8125 0.42415 0.61012 0.0
C3490 C 0.7953 0.4302 0.60011 0.0
C3491 C 0.78041 0.41666 0.59575 0.0
H3492 H 0.85352 0.54789 0.83668 0.0
H3493 H 0.85094 0.52111 0.89447 0.0
H3494 H 0.83323 0.57547 0.84863 0.0
H3495 H 0.8315 0.54878 0.90669 0.0
H3496 H 0.77246 0.58247 0.90991 0.0
H3497 H 0.79814 0.55866 0.90185 0.0
H3498 H 0.83019 0.60392 0.87009 0.0
H3499 H 0.80385 0.62748 0.87745 0.0
C3500 C 0.84882 0.54813 0.85198 0.0
C3501 C 0.8533 0.53233 0.86458 0.0
C3502 C 0.83739 0.56393 0.8589 0.0
C3503 C 0.83055 0.56419 0.87858 0.0
C3504 C 0.8361 0.54881 0.89136 0.0
C3505 C 0.84721 0.53298 0.88438 0.0
C3506 C 0.78527 0.5874 0.90166 0.0
C3507 C 0.78646 0.60687 0.89475 0.0
C3508 C 0.80003 0.57382 0.89706 0.0
C3509 C 0.81628 0.5794 0.88534 0.0
C3510 C 0.81783 0.59914 0.87906 0.0
C3511 C 0.80298 0.61275 0.88364 0.0
H3512 H 0.66908 0.51783 0.15034 0.0
H3513 H 0.6216 0.55228 0.12528 0.0
H3514 H 0.69225 0.54428 0.14303 0.0
H3515 H 0.64475 0.57925 0.11845 0.0
H3516 H 0.69942 0.60656 0.08457 0.0
H3517 H 0.67246 0.58477 0.0954 0.0
H3518 H 0.70142 0.5774 0.15188 0.0
H3519 H 0.72835 0.59844 0.14082 0.0
C3520 C 0.66354 0.53134 0.14375 0.0
C3521 C 0.64354 0.5332 0.13874 0.0
C3522 C 0.67677 0.54654 0.13962 0.0
C3523 C 0.67031 0.56393 0.13023 0.0
C3524 C 0.65015 0.56601 0.12564 0.0
C3525 C 0.63686 0.55074 0.12986 0.0
C3526 C 0.69979 0.60034 0.09931 0.0
C3527 C 0.71603 0.60373 0.11173 0.0
C3528 C 0.68437 0.58802 0.10559 0.0
C3529 C 0.68498 0.57914 0.12442 0.0
C3530 C 0.70075 0.5836 0.13714 0.0
C3531 C 0.71616 0.59563 0.13081 0.0
H3532 H 0.69665 0.37386 0.38096 0.0
H3533 H 0.72817 0.42235 0.40797 0.0
H3534 H 0.67106 0.39672 0.36969 0.0
H3535 H 0.70274 0.4452 0.39653 0.0
H3536 H 0.67206 0.48193 0.35035 0.0
H3537 H 0.69447 0.45627 0.36205 0.0
H3538 H 0.64465 0.42143 0.38147 0.0
H3539 H 0.62217 0.44724 0.36997 0.0
C3540 C 0.69773 0.38925 0.38516 0.0
C3541 C 0.71424 0.39632 0.39563 0.0
C3542 C 0.68319 0.40236 0.3785 0.0
C3543 C 0.68512 0.42273 0.38197 0.0
C3544 C 0.7011 0.42959 0.39332 0.0
C3545 C 0.71553 0.41653 0.40003 0.0
C3546 C 0.66588 0.46861 0.35676 0.0
C3547 C 0.64537 0.4665 0.35901 0.0
C3548 C 0.67869 0.45403 0.36362 0.0
C3549 C 0.67127 0.43705 0.37296 0.0
C3550 C 0.65073 0.43437 0.37427 0.0
C3551 C 0.63786 0.44906 0.36745 0.0
H3552 H 0.08691 0.15362 0.45244 0.0
H3553 H 0.07414 0.12995 0.3945 0.0
H3554 H 0.12002 0.16283 0.44133 0.0
H3555 H 0.10752 0.13884 0.38359 0.0
H3556 H 0.17856 0.14166 0.38484 0.0
H3557 H 0.14542 0.13026 0.394 0.0
H3558 H 0.13048 0.18917 0.41327 0.0
H3559 H 0.16335 0.20074 0.40377 0.0
C3560 C 0.0913 0.14999 0.43748 0.0
C3561 C 0.0779 0.1411 0.42433 0.0
C3562 C 0.11017 0.15543 0.43109 0.0
C3563 C 0.11614 0.15172 0.41157 0.0
C3564 C 0.10319 0.14188 0.39871 0.0
C3565 C 0.08415 0.13679 0.40497 0.0
C3566 C 0.16809 0.15224 0.39072 0.0
C3567 C 0.17356 0.17211 0.39358 0.0
C3568 C 0.14918 0.1457 0.39597 0.0
C3569 C 0.13559 0.15881 0.40454 0.0
C3570 C 0.14083 0.17875 0.40687 0.0
C3571 C 0.15956 0.18539 0.40126 0.0
H3572 H 0.11011 0.93282 0.65619 0.0
H3573 H 0.05417 0.91079 0.63445 0.0
H3574 H 0.12087 0.8991 0.66277 0.0
H3575 H 0.06513 0.87699 0.64099 0.0
H3576 H 0.09854 0.81833 0.63968 0.0
H3577 H 0.09136 0.85222 0.62986 0.0
H3578 H 0.10962 0.87285 0.6874 0.0
H3579 H 0.11675 0.83888 0.69741 0.0
C3580 C 0.10018 0.9208 0.65256 0.0
C3581 C 0.08121 0.92453 0.64485 0.0
C3582 C 0.10635 0.9015 0.65647 0.0
C3583 C 0.09381 0.88547 0.65249 0.0
C3584 C 0.07514 0.88909 0.64408 0.0
C3585 C 0.06885 0.90844 0.6404 0.0
C3586 C 0.1013 0.83008 0.65021 0.0
C3587 C 0.10814 0.82586 0.66941 0.0
C3588 C 0.09704 0.84947 0.64458 0.0
C3589 C 0.09979 0.86511 0.65791 0.0
C3590 C 0.10746 0.86105 0.6768 0.0
C3591 C 0.11149 0.84161 0.68254 0.0
H3592 H 0.33893 0.80223 0.88433 0.0
H3593 H 0.31674 0.8579 0.90653 0.0
H3594 H 0.37261 0.81268 0.89217 0.0
H3595 H 0.35037 0.86816 0.91445 0.0
H3596 H 0.43125 0.84616 0.8923 0.0
H3597 H 0.39754 0.8392 0.88189 0.0
H3598 H 0.37614 0.85592 0.93961 0.0
H3599 H 0.41003 0.86282 0.95026 0.0
C3600 C 0.34123 0.81674 0.89067 0.0
C3601 C 0.32514 0.82919 0.89483 0.0
C3602 C 0.3605 0.82274 0.89511 0.0
C3603 C 0.36403 0.84118 0.90402 0.0
C3604 C 0.34802 0.8538 0.90777 0.0
C3605 C 0.32879 0.84794 0.90309 0.0
C3606 C 0.4194 0.84858 0.90278 0.0
C3607 C 0.42338 0.85496 0.92219 0.0
C3608 C 0.4001 0.84447 0.8968 0.0
C3609 C 0.3843 0.84689 0.90998 0.0
C3610 C 0.3881 0.85402 0.92913 0.0
C3611 C 0.40748 0.85791 0.93523 0.0
H3612 H 0.39079 0.06816 0.14991 0.0
H3613 H 0.44828 0.08994 0.1324 0.0
H3614 H 0.38036 0.10176 0.15755 0.0
H3615 H 0.43766 0.12362 0.13996 0.0
H3616 H 0.40557 0.18308 0.14063 0.0
H3617 H 0.4125 0.14969 0.12909 0.0
H3618 H 0.3913 0.1261 0.18443 0.0
H3619 H 0.38443 0.15957 0.19617 0.0
C3620 C 0.40112 0.08012 0.14738 0.0
C3621 C 0.42045 0.07633 0.14064 0.0
C3622 C 0.39515 0.09934 0.15189 0.0
C3623 C 0.40824 0.11523 0.14949 0.0
C3624 C 0.42723 0.11162 0.14186 0.0
C3625 C 0.43332 0.09234 0.13757 0.0
C3626 C 0.40216 0.1708 0.15031 0.0
C3627 C 0.39453 0.17402 0.1694 0.0
C3628 C 0.40624 0.15169 0.14369 0.0
C3629 C 0.40253 0.13536 0.1559 0.0
C3630 C 0.39418 0.13846 0.17468 0.0
C3631 C 0.39032 0.15761 0.18142 0.0
H3632 H 0.0682 0.84146 0.1087 0.0
H3633 H 0.09125 0.86444 0.05371 0.0
H3634 H 0.1016 0.83308 0.11925 0.0
H3635 H 0.12476 0.85616 0.06449 0.0
H3636 H 0.18289 0.85522 0.09929 0.0
H3637 H 0.14936 0.86588 0.09176 0.0
H3638 H 0.12741 0.80794 0.1069 0.0
H3639 H 0.16109 0.79704 0.11432 0.0
C3640 C 0.08039 0.84497 0.09894 0.0
C3641 C 0.07703 0.8536 0.0803 0.0
C3642 C 0.0995 0.84002 0.10498 0.0
C3643 C 0.11571 0.84387 0.09265 0.0
C3644 C 0.11249 0.85313 0.07432 0.0
C3645 C 0.09333 0.85783 0.06814 0.0
C3646 C 0.17094 0.84475 0.10125 0.0
C3647 C 0.17471 0.8252 0.10735 0.0
C3648 C 0.15176 0.85087 0.0968 0.0
C3649 C 0.13586 0.83771 0.0986 0.0
C3650 C 0.13943 0.81841 0.10546 0.0
C3651 C 0.15871 0.81217 0.10967 0.0
H3652 H 0.45424 0.91462 0.34255 0.0
H3653 H 0.39635 0.92733 0.36638 0.0
H3654 H 0.44295 0.88168 0.33289 0.0
H3655 H 0.38525 0.8942 0.35701 0.0
H3656 H 0.3852 0.82374 0.35408 0.0
H3657 H 0.39469 0.8568 0.36534 0.0
H3658 H 0.41562 0.87075 0.30674 0.0
H3659 H 0.40584 0.83789 0.29532 0.0
C3660 C 0.43924 0.91025 0.34608 0.0
C3661 C 0.42617 0.92358 0.3552 0.0
C3662 C 0.43275 0.8915 0.34038 0.0
C3663 C 0.41319 0.88557 0.34403 0.0
C3664 C 0.40039 0.89847 0.35401 0.0
C3665 C 0.40676 0.91739 0.35937 0.0
C3666 C 0.39154 0.83398 0.34353 0.0
C3667 C 0.39477 0.82823 0.32381 0.0
C3668 C 0.39697 0.85285 0.34999 0.0
C3669 C 0.40609 0.86614 0.33695 0.0
C3670 C 0.40881 0.86063 0.31712 0.0
C3671 C 0.40303 0.84192 0.31056 0.0
H3672 H 0.43225 0.15444 0.60444 0.0
H3673 H 0.40984 0.13511 0.54778 0.0
H3674 H 0.39869 0.16161 0.6153 0.0
H3675 H 0.37618 0.14225 0.55883 0.0
H3676 H 0.31739 0.14147 0.59226 0.0
H3677 H 0.35097 0.13107 0.58445 0.0
H3678 H 0.37322 0.18724 0.60495 0.0
H3679 H 0.33957 0.19781 0.61274 0.0
C3680 C 0.42017 0.15149 0.59436 0.0
C3681 C 0.42376 0.14428 0.57517 0.0
C3682 C 0.40096 0.15572 0.60058 0.0
C3683 C 0.38488 0.1526 0.58787 0.0
C3684 C 0.38833 0.14469 0.56897 0.0
C3685 C 0.4076 0.14066 0.56263 0.0
C3686 C 0.32943 0.15157 0.59533 0.0
C3687 C 0.32576 0.17054 0.60306 0.0
C3688 C 0.34864 0.14562 0.59072 0.0
C3689 C 0.36465 0.15838 0.59398 0.0
C3690 C 0.36113 0.17706 0.6024 0.0
C3691 C 0.34186 0.18312 0.6068 0.0
H3692 H 0.11512 0.16113 0.79984 0.0
H3693 H 0.09735 0.18224 0.85749 0.0
H3694 H 0.10736 0.12733 0.80999 0.0
H3695 H 0.08954 0.14855 0.86745 0.0
H3696 H 0.05206 0.09033 0.86415 0.0
H3697 H 0.06304 0.12396 0.85674 0.0
H3698 H 0.11841 0.10116 0.83471 0.0
H3699 H 0.10761 0.06763 0.84215 0.0
C3700 C 0.10981 0.15857 0.81472 0.0
C3701 C 0.1068 0.17442 0.8278 0.0
C3702 C 0.10541 0.13922 0.82054 0.0
C3703 C 0.0977 0.13538 0.83945 0.0
C3704 C 0.09523 0.15113 0.85271 0.0
C3705 C 0.09985 0.17041 0.847 0.0
C3706 C 0.06664 0.0925 0.85791 0.0
C3707 C 0.07891 0.07627 0.85371 0.0
C3708 C 0.07295 0.11174 0.85373 0.0
C3709 C 0.09155 0.11512 0.84506 0.0
C3710 C 0.10394 0.09896 0.84121 0.0
C3711 C 0.09776 0.07977 0.8456 0.0
H3712 H 0.19348 0.38409 0.16158 0.0
H3713 H 0.14134 0.41238 0.18536 0.0
H3714 H 0.18219 0.39162 0.12817 0.0
H3715 H 0.13015 0.41988 0.15193 0.0
H3716 H 0.13545 0.45305 0.09113 0.0
H3717 H 0.14248 0.44261 0.12498 0.0
H3718 H 0.15483 0.38353 0.10431 0.0
H3719 H 0.14784 0.39382 0.07055 0.0
C3720 C 0.17952 0.3917 0.1597 0.0
C3721 C 0.16838 0.3977 0.17617 0.0
C3722 C 0.17302 0.39594 0.14055 0.0
C3723 C 0.15534 0.40643 0.13748 0.0
C3724 C 0.14393 0.41196 0.15389 0.0
C3725 C 0.15031 0.40755 0.17302 0.0
C3726 C 0.13942 0.43778 0.09382 0.0
C3727 C 0.14121 0.42433 0.07809 0.0
C3728 C 0.14337 0.43179 0.11321 0.0
C3729 C 0.14934 0.41229 0.11723 0.0
C3730 C 0.1505 0.3987 0.10161 0.0
C3731 C 0.14638 0.40462 0.08228 0.0
H3732 H 0.6332 0.05427 0.91233 0.0
H3733 H 0.65914 0.10808 0.93506 0.0
H3734 H 0.6391 0.06576 0.87866 0.0
H3735 H 0.66497 0.11949 0.90139 0.0
H3736 H 0.69708 0.11547 0.84001 0.0
H3737 H 0.68765 0.10839 0.8741 0.0
H3738 H 0.62905 0.09223 0.85466 0.0
H3739 H 0.63836 0.09924 0.8206 0.0
C3740 C 0.63994 0.06863 0.91017 0.0
C3741 C 0.64579 0.08018 0.92641 0.0
C3742 C 0.64323 0.07525 0.89088 0.0
C3743 C 0.65259 0.09348 0.88742 0.0
C3744 C 0.65792 0.10528 0.90362 0.0
C3745 C 0.65447 0.09877 0.92291 0.0
C3746 C 0.6821 0.11067 0.84301 0.0
C3747 C 0.66854 0.1078 0.82753 0.0
C3748 C 0.67668 0.10669 0.86256 0.0
C3749 C 0.65765 0.09962 0.867 0.0
C3750 C 0.64389 0.09743 0.85163 0.0
C3751 C 0.64923 0.10157 0.83213 0.0
H3752 H 0.85508 0.90359 0.31748 0.0
H3753 H 0.79673 0.88855 0.33887 0.0
H3754 H 0.86548 0.91123 0.351 0.0
H3755 H 0.80739 0.89613 0.37262 0.0
H3756 H 0.84141 0.89407 0.43197 0.0
H3757 H 0.83241 0.88381 0.39862 0.0
H3758 H 0.85583 0.93842 0.37544 0.0
H3759 H 0.86476 0.94889 0.40885 0.0
C3760 C 0.84449 0.9017 0.32933 0.0
C3761 C 0.82498 0.89553 0.32543 0.0
C3762 C 0.85047 0.90621 0.34853 0.0
C3763 C 0.83721 0.90443 0.36434 0.0
C3764 C 0.81793 0.89756 0.36065 0.0
C3765 C 0.81183 0.89326 0.34135 0.0
C3766 C 0.84484 0.90386 0.41977 0.0
C3767 C 0.85382 0.92234 0.42308 0.0
C3768 C 0.83952 0.898 0.4007 0.0
C3769 C 0.84335 0.91034 0.38451 0.0
C3770 C 0.85282 0.92857 0.38769 0.0
C3771 C 0.85789 0.93457 0.40681 0.0
H3772 H 0.85838 0.10288 0.17904 0.0
H3773 H 0.79919 0.11611 0.1588 0.0
H3774 H 0.8683 0.09554 0.14523 0.0
H3775 H 0.80926 0.10874 0.12494 0.0
H3776 H 0.83869 0.10823 0.06425 0.0
H3777 H 0.83191 0.12016 0.09757 0.0
H3778 H 0.85936 0.06794 0.12188 0.0
H3779 H 0.86618 0.0559 0.08856 0.0
C3780 C 0.84753 0.10451 0.16737 0.0
C3781 C 0.82791 0.10996 0.17168 0.0
C3782 C 0.85323 0.10017 0.14802 0.0
C3783 C 0.83952 0.1014 0.1325 0.0
C3784 C 0.82017 0.10777 0.13661 0.0
C3785 C 0.81439 0.11194 0.15602 0.0
C3786 C 0.84349 0.09936 0.07668 0.0
C3787 C 0.85291 0.08103 0.07372 0.0
C3788 C 0.8395 0.10617 0.09575 0.0
C3789 C 0.84503 0.09495 0.11229 0.0
C3790 C 0.85507 0.07698 0.10939 0.0
C3791 C 0.85889 0.07005 0.0903 0.0
H3792 H 0.35793 0.61803 0.67651 0.0
H3793 H 0.29925 0.59692 0.66258 0.0
H3794 H 0.36885 0.60953 0.64303 0.0
H3795 H 0.31038 0.58807 0.62939 0.0
H3796 H 0.34682 0.55016 0.58525 0.0
H3797 H 0.33812 0.56091 0.61862 0.0
H3798 H 0.35824 0.61988 0.60511 0.0
H3799 H 0.36659 0.60933 0.57149 0.0
C3800 C 0.34733 0.61181 0.66624 0.0
C3801 C 0.32773 0.60814 0.67217 0.0
C3802 C 0.3536 0.60695 0.64715 0.0
C3803 C 0.34048 0.59794 0.63385 0.0
C3804 C 0.32078 0.59482 0.63953 0.0
C3805 C 0.3144 0.60005 0.65844 0.0
C3806 C 0.34972 0.56533 0.58947 0.0
C3807 C 0.35734 0.57892 0.57574 0.0
C3808 C 0.34458 0.5715 0.60848 0.0
C3809 C 0.34735 0.59123 0.61424 0.0
C3810 C 0.35595 0.60459 0.60093 0.0
C3811 C 0.36072 0.59854 0.58176 0.0
H3812 H 0.19368 0.61462 0.3372 0.0
H3813 H 0.14121 0.58654 0.31386 0.0
H3814 H 0.18278 0.60691 0.3707 0.0
H3815 H 0.13041 0.57887 0.34737 0.0
H3816 H 0.1491 0.60443 0.42866 0.0
H3817 H 0.15574 0.61489 0.3949 0.0
H3818 H 0.14303 0.55595 0.37403 0.0
H3819 H 0.13634 0.54534 0.4079 0.0
C3820 C 0.17973 0.60702 0.3392 0.0
C3821 C 0.16838 0.60113 0.32283 0.0
C3822 C 0.17345 0.60267 0.35839 0.0
C3823 C 0.1558 0.59219 0.36161 0.0
C3824 C 0.14418 0.58677 0.3453 0.0
C3825 C 0.15034 0.59129 0.32612 0.0
C3826 C 0.14749 0.5937 0.4169 0.0
C3827 C 0.14231 0.57397 0.42103 0.0
C3828 C 0.15141 0.59971 0.39756 0.0
C3829 C 0.15004 0.58621 0.38188 0.0
C3830 C 0.14408 0.5667 0.38585 0.0
C3831 C 0.14032 0.56061 0.40524 0.0
H3832 H 0.36699 0.39341 0.92612 0.0
H3833 H 0.34479 0.45193 0.91337 0.0
H3834 H 0.35866 0.38297 0.89249 0.0
H3835 H 0.33616 0.44129 0.87993 0.0
H3836 H 0.29876 0.40509 0.83515 0.0
H3837 H 0.30964 0.41427 0.86834 0.0
H3838 H 0.36831 0.39302 0.85521 0.0
H3839 H 0.35762 0.38414 0.82178 0.0
C3840 C 0.36059 0.4041 0.91606 0.0
C3841 C 0.35652 0.42349 0.92238 0.0
C3842 C 0.35583 0.3981 0.89687 0.0
C3843 C 0.34656 0.41128 0.88382 0.0
C3844 C 0.3431 0.43083 0.88987 0.0
C3845 C 0.34822 0.43694 0.90891 0.0
C3846 C 0.3139 0.40208 0.83941 0.0
C3847 C 0.32734 0.39391 0.82585 0.0
C3848 C 0.32015 0.40752 0.85832 0.0
C3849 C 0.33984 0.40454 0.86415 0.0
C3850 C 0.35307 0.3955 0.85099 0.0
C3851 C 0.34692 0.39041 0.83192 0.0
H3852 H 0.66056 0.69925 0.88521 0.0
H3853 H 0.68419 0.64323 0.90492 0.0
H3854 H 0.62726 0.68799 0.89361 0.0
H3855 H 0.65097 0.63219 0.91341 0.0
H3856 H 0.59247 0.63488 0.951 0.0
H3857 H 0.62583 0.64303 0.93966 0.0
H3858 H 0.6023 0.66149 0.88332 0.0
H3859 H 0.56907 0.65327 0.89443 0.0
C3860 C 0.65865 0.68449 0.8911 0.0
C3861 C 0.67506 0.67219 0.89442 0.0
C3862 C 0.63959 0.67804 0.89588 0.0
C3863 C 0.6366 0.65927 0.90428 0.0
C3864 C 0.6529 0.64679 0.90714 0.0
C3865 C 0.6719 0.65311 0.90213 0.0
C3866 C 0.59443 0.64046 0.93612 0.0
C3867 C 0.57807 0.64347 0.92368 0.0
C3868 C 0.61352 0.64507 0.92962 0.0
C3869 C 0.61659 0.65301 0.91066 0.0
C3870 C 0.60032 0.65559 0.89807 0.0
C3871 C 0.5813 0.65075 0.90445 0.0
H3872 H 0.54875 0.40833 0.13342 0.0
H3873 H 0.6063 0.43069 0.14999 0.0
H3874 H 0.55964 0.37481 0.14155 0.0
H3875 H 0.61695 0.39731 0.15824 0.0
H3876 H 0.61444 0.33961 0.19703 0.0
H3877 H 0.6064 0.37294 0.18555 0.0
H3878 H 0.58536 0.34898 0.1303 0.0
H3879 H 0.59352 0.31576 0.14155 0.0
C3880 C 0.56375 0.4061 0.13855 0.0
C3881 C 0.57661 0.42222 0.14109 0.0
C3882 C 0.56999 0.38692 0.14317 0.0
C3883 C 0.58908 0.38354 0.15067 0.0
C3884 C 0.60209 0.39955 0.15269 0.0
C3885 C 0.59598 0.41864 0.14782 0.0
C3886 C 0.60832 0.34147 0.18236 0.0
C3887 C 0.60461 0.325 0.17025 0.0
C3888 C 0.60377 0.36054 0.17577 0.0
C3889 C 0.59516 0.36348 0.15708 0.0
C3890 C 0.59181 0.3471 0.14483 0.0
C3891 C 0.59663 0.32809 0.15127 0.0
H3892 H 0.93138 0.34928 0.39339 0.0
H3893 H 0.91062 0.36425 0.45195 0.0
H3894 H 0.89766 0.34163 0.38335 0.0
H3895 H 0.87677 0.35672 0.4417 0.0
H3896 H 0.81685 0.35836 0.40945 0.0
H3897 H 0.8504 0.36895 0.41723 0.0
H3898 H 0.87324 0.31436 0.39342 0.0
H3899 H 0.83959 0.30355 0.38573 0.0
C3900 C 0.91962 0.35121 0.40407 0.0
C3901 C 0.92374 0.35733 0.42354 0.0
C3902 C 0.90032 0.34669 0.39831 0.0
C3903 C 0.88465 0.34845 0.41177 0.0
C3904 C 0.88859 0.35532 0.431 0.0
C3905 C 0.90797 0.35959 0.43687 0.0
C3906 C 0.829 0.34865 0.40567 0.0
C3907 C 0.82551 0.33005 0.39699 0.0
C3908 C 0.8482 0.3547 0.41026 0.0
C3909 C 0.86437 0.34246 0.40601 0.0
C3910 C 0.86101 0.32415 0.39675 0.0
C3911 C 0.84176 0.31794 0.3924 0.0
H3912 H 0.88553 0.65962 0.69926 0.0
H3913 H 0.90778 0.68294 0.64407 0.0
H3914 H 0.8933 0.62614 0.68806 0.0
H3915 H 0.91565 0.64955 0.6331 0.0
H3916 H 0.89226 0.5685 0.65233 0.0
H3917 H 0.88252 0.60209 0.66073 0.0
H3918 H 0.94053 0.62309 0.64451 0.0
H3919 H 0.9505 0.58933 0.63619 0.0
C3920 C 0.89191 0.65762 0.68471 0.0
C3921 C 0.89603 0.67397 0.67259 0.0
C3922 C 0.89631 0.63846 0.67829 0.0
C3923 C 0.90517 0.63531 0.65975 0.0
C3924 C 0.90901 0.65159 0.64752 0.0
C3925 C 0.90435 0.67069 0.6538 0.0
C3926 C 0.90294 0.58025 0.65032 0.0
C3927 C 0.92223 0.57618 0.64363 0.0
C3928 C 0.89735 0.59947 0.65529 0.0
C3929 C 0.9108 0.61512 0.65341 0.0
C3930 C 0.92984 0.61126 0.64602 0.0
C3931 C 0.93556 0.59195 0.64129 0.0
H3932 H 0.58988 0.36544 0.54935 0.0
H3933 H 0.56618 0.34461 0.60492 0.0
H3934 H 0.62328 0.35808 0.561 0.0
H3935 H 0.59951 0.33721 0.61639 0.0
H3936 H 0.68126 0.35836 0.5955 0.0
H3937 H 0.64776 0.36879 0.58745 0.0
H3938 H 0.62549 0.312 0.60611 0.0
H3939 H 0.65909 0.30138 0.61412 0.0
C3940 C 0.59178 0.35951 0.56409 0.0
C3941 C 0.57533 0.35557 0.57614 0.0
C3942 C 0.61091 0.35535 0.57078 0.0
C3943 C 0.61394 0.34697 0.58956 0.0
C3944 C 0.59757 0.34348 0.60178 0.0
C3945 C 0.57849 0.34785 0.59521 0.0
C3946 C 0.66924 0.34812 0.59814 0.0
C3947 C 0.6729 0.32895 0.60537 0.0
C3948 C 0.65006 0.3541 0.59339 0.0
C3949 C 0.63407 0.34117 0.59601 0.0
C3950 C 0.63756 0.32231 0.60403 0.0
C3951 C 0.6568 0.31622 0.60858 0.0
H3952 H 0.88432 0.33764 0.8023 0.0
H3953 H 0.90637 0.3156 0.8581 0.0
H3954 H 0.89139 0.37141 0.81302 0.0
H3955 H 0.91351 0.3493 0.86862 0.0
H3956 H 0.94812 0.40961 0.86428 0.0
H3957 H 0.93819 0.37561 0.85704 0.0
H3958 H 0.88038 0.39608 0.83946 0.0
H3959 H 0.89009 0.42995 0.84678 0.0
C3960 C 0.89048 0.33999 0.81689 0.0
C3961 C 0.89481 0.3239 0.8293 0.0
C3962 C 0.89447 0.35931 0.82305 0.0
C3963 C 0.9031 0.36292 0.84161 0.0
C3964 C 0.90704 0.34691 0.85417 0.0
C3965 C 0.90281 0.32763 0.84815 0.0
C3966 C 0.93321 0.40684 0.85914 0.0
C3967 C 0.91995 0.42253 0.85605 0.0
C3968 C 0.92752 0.38738 0.85503 0.0
C3969 C 0.90857 0.38328 0.84754 0.0
C3970 C 0.89515 0.39887 0.845 0.0
C3971 C 0.90072 0.41825 0.84934 0.0
H3972 H 0.8177 0.64118 0.09266 0.0
H3973 H 0.83959 0.69733 0.11395 0.0
H3974 H 0.85136 0.63091 0.08504 0.0
H3975 H 0.87337 0.68685 0.10639 0.0
H3976 H 0.9324 0.65336 0.10643 0.0
H3977 H 0.89872 0.6608 0.11686 0.0
H3978 H 0.8769 0.64249 0.05978 0.0
H3979 H 0.91065 0.63513 0.04916 0.0
C3980 C 0.82969 0.65127 0.09595 0.0
C3981 C 0.82592 0.67015 0.10387 0.0
C3982 C 0.84896 0.64539 0.09145 0.0
C3983 C 0.86494 0.65811 0.09502 0.0
C3984 C 0.8613 0.6767 0.10359 0.0
C3985 C 0.84197 0.68271 0.10787 0.0
C3986 C 0.92044 0.65069 0.09613 0.0
C3987 C 0.92425 0.64369 0.0769 0.0
C3988 C 0.90117 0.6551 0.1021 0.0
C3989 C 0.88524 0.65234 0.0891 0.0
C3990 C 0.88892 0.64466 0.07014 0.0
C3991 C 0.90824 0.64049 0.06405 0.0
H3992 H 0.61885 0.67497 0.35417 0.0
H3993 H 0.59544 0.66399 0.29576 0.0
H3994 H 0.60965 0.64147 0.36414 0.0
H3995 H 0.58596 0.63061 0.30593 0.0
H3996 H 0.54786 0.58605 0.34187 0.0
H3997 H 0.55962 0.61889 0.33246 0.0
H3998 H 0.61781 0.60449 0.35428 0.0
H3999 H 0.60621 0.57147 0.36342 0.0
C4000 C 0.61202 0.6653 0.34338 0.0
C4001 C 0.60786 0.6721 0.32418 0.0
C4002 C 0.60675 0.64617 0.34911 0.0
C4003 C 0.59689 0.63363 0.33587 0.0
C4004 C 0.59336 0.64013 0.31647 0.0
C4005 C 0.59897 0.65914 0.31061 0.0
C4006 C 0.56308 0.58997 0.34493 0.0
C4007 C 0.57611 0.57618 0.35339 0.0
C4008 C 0.56985 0.60867 0.33934 0.0
C4009 C 0.58966 0.61406 0.34245 0.0
C4010 C 0.60248 0.60063 0.35169 0.0
C4011 C 0.59582 0.58179 0.35694 0.0
H4012 H 0.65435 0.9525 0.58524 0.0
H4013 H 0.63352 0.89364 0.57173 0.0
H4014 H 0.66298 0.94172 0.61861 0.0
H4015 H 0.64182 0.88306 0.60535 0.0
H4016 H 0.64226 0.88463 0.67647 0.0
H4017 H 0.63156 0.89324 0.64297 0.0
H4018 H 0.69017 0.91461 0.62976 0.0
H4019 H 0.70107 0.90566 0.66302 0.0
C4020 C 0.6512 0.9374 0.58951 0.0
C4021 C 0.6433 0.9239 0.57585 0.0
C4022 C 0.65632 0.93121 0.60853 0.0
C4023 C 0.65325 0.91154 0.61436 0.0
C4024 C 0.64435 0.89829 0.60112 0.0
C4025 C 0.6396 0.90437 0.58194 0.0
C4026 C 0.65295 0.89085 0.6663 0.0
C4027 C 0.67251 0.89447 0.67236 0.0
C4028 C 0.6468 0.89578 0.64719 0.0
C4029 C 0.66001 0.90479 0.63399 0.0
C4030 C 0.67969 0.90786 0.63981 0.0
C4031 C 0.68595 0.90257 0.65876 0.0
loop_
_geom_bond_atom_site_label_1
_geom_bond_atom_site_label_2
_geom_bond_distance
_geom_bond_site_symmetry_2
_ccdc_geom_bond_type
Co0 O3 1.970 . S
Co0 N17 1.989 . S
Co0 O25 1.967 . S
Co0 O32 1.920 . S
Co1 O4 1.966 . S
Co1 N10 2.022 1_455 S
Co1 N18 1.990 1_455 S
Co1 O26 1.941 . S
C2 O3 1.258 . S
C2 O4 1.263 . S
O3 Co0 1.970 . S
O3 C2 1.258 . S
O4 Co1 1.966 . S
O4 C2 1.263 . S
C5 O6 1.235 . S
C5 O32 1.289 . S
O6 C5 1.235 . S
C7 C9 1.400 . S
C7 N10 1.351 . S
C7 C12 1.501 . S
C8 C9 1.387 . S
C8 N11 1.341 . S
C9 C7 1.400 . S
C9 C8 1.387 . S
N10 Co1 2.022 1_655 S
N10 C7 1.351 . S
N10 N11 1.365 . S
N11 C8 1.341 . S
N11 N10 1.365 . S
N11 H31 0.862 1_655 S
C12 C7 1.501 . S
C12 H13 0.961 . S
C12 H14 0.961 . S
C12 H15 0.960 . S
H13 C12 0.961 . S
H14 C12 0.961 . S
H15 C12 0.960 . S
C16 N17 1.342 . S
C16 C20 1.401 1_455 S
C16 C21 1.499 . S
N17 Co0 1.989 . S
N17 C16 1.342 . S
N17 N18 1.383 1_455 S
N18 Co1 1.990 1_655 S
N18 N17 1.383 1_655 S
N18 C19 1.352 . S
C19 N18 1.352 . S
C19 C20 1.396 . S
C19 C29 1.510 . S
C20 C16 1.401 1_655 S
C20 C19 1.396 . S
C21 C16 1.499 . S
C21 H22 0.959 . S
C21 H23 0.990 . S
C21 H24 0.961 . S
H22 C21 0.959 . S
H23 C21 0.990 . S
H24 C21 0.961 . S
O25 Co0 1.967 . S
O25 C33 1.258 . S
O26 Co1 1.941 . S
O26 C33 1.266 . S
H27 C29 0.959 . S
H28 C29 0.961 . S
C29 C19 1.510 . S
C29 H27 0.959 . S
C29 H28 0.961 . S
C29 H30 0.960 . S
H30 C29 0.960 . S
H31 N11 0.862 1_455 S
O32 Co0 1.920 . S
O32 C5 1.289 . S
C33 O25 1.258 . S
C33 O26 1.266 . S
Co34 O37 1.970 . S
Co34 N51 1.989 . S
Co34 O59 1.967 . S
Co34 O66 1.920 . S
Co35 O38 1.966 . S
Co35 N44 2.022 . S
Co35 N52 1.993 . S
Co35 O60 1.941 . S
C36 O37 1.258 . S
C36 O38 1.263 . S
O37 Co34 1.970 . S
O37 C36 1.258 . S
O38 Co35 1.966 . S
O38 C36 1.263 . S
C39 O40 1.235 . S
C39 O66 1.289 . S
O40 C39 1.235 . S
C41 C43 1.400 . S
C41 N44 1.351 . S
C41 C46 1.501 . S
C42 C43 1.387 . S
C42 N45 1.341 . S
C43 C41 1.400 . S
C43 C42 1.387 . S
N44 Co35 2.022 . S
N44 C41 1.351 . S
N44 N45 1.365 . S
N45 C42 1.341 . S
N45 N44 1.365 . S
N45 H65 0.862 . S
C46 C41 1.501 . S
C46 H47 0.961 . S
C46 H48 0.961 . S
C46 H49 0.960 . S
H47 C46 0.961 . S
H48 C46 0.961 . S
H49 C46 0.960 . S
C50 N51 1.342 . S
C50 C54 1.401 . S
C50 C55 1.499 . S
N51 Co34 1.989 . S
N51 C50 1.342 . S
N51 N52 1.388 . S
N52 Co35 1.993 . S
N52 N51 1.388 . S
N52 C53 1.346 . S
C53 N52 1.346 . S
C53 C54 1.396 . S
C53 C63 1.510 . S
C54 C50 1.401 . S
C54 C53 1.396 . S
C55 C50 1.499 . S
C55 H56 0.959 . S
C55 H57 0.960 . S
C55 H58 0.961 . S
H56 C55 0.959 . S
H57 C55 0.960 . S
H58 C55 0.961 . S
O59 Co34 1.967 . S
O59 C67 1.258 . S
O60 Co35 1.941 . S
O60 C67 1.266 . S
H61 C63 0.959 . S
H62 C63 0.961 . S
C63 C53 1.510 . S
C63 H61 0.959 . S
C63 H62 0.961 . S
C63 H64 0.960 . S
H64 C63 0.960 . S
H65 N45 0.862 . S
O66 Co34 1.920 . S
O66 C39 1.289 . S
C67 O59 1.258 . S
C67 O60 1.266 . S
Co68 O71 1.970 . S
Co68 N85 1.989 . S
Co68 O93 1.967 . S
Co68 O100 1.920 . S
Co69 O72 1.966 . S
Co69 N78 2.022 . S
Co69 N86 1.993 . S
Co69 O94 1.941 . S
C70 O71 1.258 . S
C70 O72 1.263 . S
O71 Co68 1.970 . S
O71 C70 1.258 . S
O72 Co69 1.966 . S
O72 C70 1.263 . S
C73 O74 1.235 . S
C73 O100 1.289 . S
O74 C73 1.235 . S
C75 C77 1.400 . S
C75 N78 1.351 . S
C75 C80 1.501 . S
C76 C77 1.387 . S
C76 N79 1.341 . S
C77 C75 1.400 . S
C77 C76 1.387 . S
N78 Co69 2.022 . S
N78 C75 1.351 . S
N78 N79 1.365 . S
N79 C76 1.341 . S
N79 N78 1.365 . S
N79 H99 0.862 . S
C80 C75 1.501 . S
C80 H81 0.961 . S
C80 H82 0.961 . S
C80 H83 0.960 . S
H81 C80 0.961 . S
H82 C80 0.961 . S
H83 C80 0.960 . S
C84 N85 1.342 . S
C84 C88 1.401 . S
C84 C89 1.499 . S
N85 Co68 1.989 . S
N85 C84 1.342 . S
N85 N86 1.388 . S
N86 Co69 1.993 . S
N86 N85 1.388 . S
N86 C87 1.346 . S
C87 N86 1.346 . S
C87 C88 1.396 . S
C87 C97 1.510 . S
C88 C84 1.401 . S
C88 C87 1.396 . S
C89 C84 1.499 . S
C89 H90 0.959 . S
C89 H91 0.960 . S
C89 H92 0.961 . S
H90 C89 0.959 . S
H91 C89 0.960 . S
H92 C89 0.961 . S
O93 Co68 1.967 . S
O93 C101 1.258 . S
O94 Co69 1.941 . S
O94 C101 1.266 . S
H95 C97 0.959 . S
H96 C97 0.961 . S
C97 C87 1.510 . S
C97 H95 0.959 . S
C97 H96 0.961 . S
C97 H98 0.960 . S
H98 C97 0.960 . S
H99 N79 0.862 . S
O100 Co68 1.920 . S
O100 C73 1.289 . S
C101 O93 1.258 . S
C101 O94 1.266 . S
Co102 O105 1.970 . S
Co102 N119 1.989 . S
Co102 O127 1.967 . S
Co102 O134 1.920 . S
Co103 O106 1.966 . S
Co103 N112 2.022 . S
Co103 N120 1.993 . S
Co103 O128 1.941 . S
C104 O105 1.258 . S
C104 O106 1.263 . S
O105 Co102 1.970 . S
O105 C104 1.258 . S
O106 Co103 1.966 . S
O106 C104 1.263 . S
C107 O108 1.235 . S
C107 O134 1.289 . S
O108 C107 1.235 . S
C109 C111 1.400 . S
C109 N112 1.351 . S
C109 C114 1.501 . S
C110 C111 1.387 . S
C110 N113 1.341 . S
C111 C109 1.400 . S
C111 C110 1.387 . S
N112 Co103 2.022 . S
N112 C109 1.351 . S
N112 N113 1.365 . S
N113 C110 1.341 . S
N113 N112 1.365 . S
N113 H133 0.862 . S
C114 C109 1.501 . S
C114 H115 0.961 . S
C114 H116 0.961 . S
C114 H117 0.960 . S
H115 C114 0.961 . S
H116 C114 0.961 . S
H117 C114 0.960 . S
C118 N119 1.342 . S
C118 C122 1.401 . S
C118 C123 1.499 . S
N119 Co102 1.989 . S
N119 C118 1.342 . S
N119 N120 1.388 . S
N120 Co103 1.993 . S
N120 N119 1.388 . S
N120 C121 1.346 . S
C121 N120 1.346 . S
C121 C122 1.396 . S
C121 C131 1.510 . S
C122 C118 1.401 . S
C122 C121 1.396 . S
C123 C118 1.499 . S
C123 H124 0.959 . S
C123 H125 0.960 . S
C123 H126 0.961 . S
H124 C123 0.959 . S
H125 C123 0.960 . S
H126 C123 0.961 . S
O127 Co102 1.967 . S
O127 C135 1.258 . S
O128 Co103 1.941 . S
O128 C135 1.266 . S
H129 C131 0.959 . S
H130 C131 0.961 . S
C131 C121 1.510 . S
C131 H129 0.959 . S
C131 H130 0.961 . S
C131 H132 0.960 . S
H132 C131 0.960 . S
H133 N113 0.862 . S
O134 Co102 1.920 . S
O134 C107 1.289 . S
C135 O127 1.258 . S
C135 O128 1.266 . S
Co136 O139 1.970 . S
Co136 N153 1.989 . S
Co136 O161 1.967 . S
Co136 O168 1.920 . S
Co137 O140 1.966 . S
Co137 N146 2.022 1_455 S
Co137 N154 1.990 1_455 S
Co137 O162 1.941 . S
C138 O139 1.258 . S
C138 O140 1.263 . S
O139 Co136 1.970 . S
O139 C138 1.258 . S
O140 Co137 1.966 . S
O140 C138 1.263 . S
C141 O142 1.235 . S
C141 O168 1.289 . S
O142 C141 1.235 . S
C143 C145 1.400 . S
C143 N146 1.351 . S
C143 C148 1.501 . S
C144 C145 1.387 . S
C144 N147 1.341 . S
C145 C143 1.400 . S
C145 C144 1.387 . S
N146 Co137 2.022 1_655 S
N146 C143 1.351 . S
N146 N147 1.365 . S
N147 C144 1.341 . S
N147 N146 1.365 . S
N147 H167 0.862 1_655 S
C148 C143 1.501 . S
C148 H149 0.961 . S
C148 H150 0.961 . S
C148 H151 0.960 . S
H149 C148 0.961 . S
H150 C148 0.961 . S
H151 C148 0.960 . S
C152 N153 1.342 . S
C152 C156 1.401 1_455 S
C152 C157 1.499 . S
N153 Co136 1.989 . S
N153 C152 1.342 . S
N153 N154 1.383 1_455 S
N154 Co137 1.990 1_655 S
N154 N153 1.383 1_655 S
N154 C155 1.352 . S
C155 N154 1.352 . S
C155 C156 1.396 . S
C155 C165 1.510 . S
C156 C152 1.401 1_655 S
C156 C155 1.396 . S
C157 C152 1.499 . S
C157 H158 0.959 . S
C157 H159 0.990 . S
C157 H160 0.961 . S
H158 C157 0.959 . S
H159 C157 0.990 . S
H160 C157 0.961 . S
O161 Co136 1.967 . S
O161 C169 1.258 . S
O162 Co137 1.941 . S
O162 C169 1.266 . S
H163 C165 0.959 . S
H164 C165 0.961 . S
C165 C155 1.510 . S
C165 H163 0.959 . S
C165 H164 0.961 . S
C165 H166 0.960 . S
H166 C165 0.960 . S
H167 N147 0.862 1_455 S
O168 Co136 1.920 . S
O168 C141 1.289 . S
C169 O161 1.258 . S
C169 O162 1.266 . S
Co170 O173 1.970 . S
Co170 N187 1.989 . S
Co170 O195 1.967 . S
Co170 O202 1.920 . S
Co171 O174 1.966 . S
Co171 N180 2.022 . S
Co171 N188 1.993 . S
Co171 O196 1.941 . S
C172 O173 1.258 . S
C172 O174 1.263 . S
O173 Co170 1.970 . S
O173 C172 1.258 . S
O174 Co171 1.966 . S
O174 C172 1.263 . S
C175 O176 1.235 . S
C175 O202 1.289 . S
O176 C175 1.235 . S
C177 C179 1.400 . S
C177 N180 1.351 . S
C177 C182 1.501 . S
C178 C179 1.387 . S
C178 N181 1.341 . S
C179 C177 1.400 . S
C179 C178 1.387 . S
N180 Co171 2.022 . S
N180 C177 1.351 . S
N180 N181 1.365 . S
N181 C178 1.341 . S
N181 N180 1.365 . S
N181 H201 0.862 . S
C182 C177 1.501 . S
C182 H183 0.961 . S
C182 H184 0.961 . S
C182 H185 0.960 . S
H183 C182 0.961 . S
H184 C182 0.961 . S
H185 C182 0.960 . S
C186 N187 1.342 . S
C186 C190 1.401 . S
C186 C191 1.499 . S
N187 Co170 1.989 . S
N187 C186 1.342 . S
N187 N188 1.388 . S
N188 Co171 1.993 . S
N188 N187 1.388 . S
N188 C189 1.346 . S
C189 N188 1.346 . S
C189 C190 1.396 . S
C189 C199 1.510 . S
C190 C186 1.401 . S
C190 C189 1.396 . S
C191 C186 1.499 . S
C191 H192 0.959 . S
C191 H193 0.960 . S
C191 H194 0.961 . S
H192 C191 0.959 . S
H193 C191 0.960 . S
H194 C191 0.961 . S
O195 Co170 1.967 . S
O195 C203 1.258 . S
O196 Co171 1.941 . S
O196 C203 1.266 . S
H197 C199 0.959 . S
H198 C199 0.961 . S
C199 C189 1.510 . S
C199 H197 0.959 . S
C199 H198 0.961 . S
C199 H200 0.960 . S
H200 C199 0.960 . S
H201 N181 0.862 . S
O202 Co170 1.920 . S
O202 C175 1.289 . S
C203 O195 1.258 . S
C203 O196 1.266 . S
Co204 O207 1.970 . S
Co204 N221 1.989 . S
Co204 O229 1.967 . S
Co204 O236 1.920 . S
Co205 O208 1.966 . S
Co205 N214 2.022 . S
Co205 N222 1.993 . S
Co205 O230 1.941 . S
C206 O207 1.258 . S
C206 O208 1.263 . S
O207 Co204 1.970 . S
O207 C206 1.258 . S
O208 Co205 1.966 . S
O208 C206 1.263 . S
C209 O210 1.235 . S
C209 O236 1.289 . S
O210 C209 1.235 . S
C211 C213 1.400 . S
C211 N214 1.351 . S
C211 C216 1.501 . S
C212 C213 1.387 . S
C212 N215 1.341 . S
C213 C211 1.400 . S
C213 C212 1.387 . S
N214 Co205 2.022 . S
N214 C211 1.351 . S
N214 N215 1.365 . S
N215 C212 1.341 . S
N215 N214 1.365 . S
N215 H235 0.862 . S
C216 C211 1.501 . S
C216 H217 0.961 . S
C216 H218 0.961 . S
C216 H219 0.960 . S
H217 C216 0.961 . S
H218 C216 0.961 . S
H219 C216 0.960 . S
C220 N221 1.342 . S
C220 C224 1.401 . S
C220 C225 1.499 . S
N221 Co204 1.989 . S
N221 C220 1.342 . S
N221 N222 1.388 . S
N222 Co205 1.993 . S
N222 N221 1.388 . S
N222 C223 1.346 . S
C223 N222 1.346 . S
C223 C224 1.396 . S
C223 C233 1.510 . S
C224 C220 1.401 . S
C224 C223 1.396 . S
C225 C220 1.499 . S
C225 H226 0.959 . S
C225 H227 0.960 . S
C225 H228 0.961 . S
H226 C225 0.959 . S
H227 C225 0.960 . S
H228 C225 0.961 . S
O229 Co204 1.967 . S
O229 C237 1.258 . S
O230 Co205 1.941 . S
O230 C237 1.266 . S
H231 C233 0.959 . S
H232 C233 0.961 . S
C233 C223 1.510 . S
C233 H231 0.959 . S
C233 H232 0.961 . S
C233 H234 0.960 . S
H234 C233 0.960 . S
H235 N215 0.862 . S
O236 Co204 1.920 . S
O236 C209 1.289 . S
C237 O229 1.258 . S
C237 O230 1.266 . S
Co238 O241 1.970 . S
Co238 N255 1.989 . S
Co238 O263 1.967 . S
Co238 O270 1.920 . S
Co239 O242 1.966 . S
Co239 N248 2.022 . S
Co239 N256 1.993 . S
Co239 O264 1.941 . S
C240 O241 1.258 . S
C240 O242 1.263 . S
O241 Co238 1.970 . S
O241 C240 1.258 . S
O242 Co239 1.966 . S
O242 C240 1.263 . S
C243 O244 1.235 . S
C243 O270 1.289 . S
O244 C243 1.235 . S
C245 C247 1.400 . S
C245 N248 1.351 . S
C245 C250 1.501 . S
C246 C247 1.387 . S
C246 N249 1.341 . S
C247 C245 1.400 . S
C247 C246 1.387 . S
N248 Co239 2.022 . S
N248 C245 1.351 . S
N248 N249 1.365 . S
N249 C246 1.341 . S
N249 N248 1.365 . S
N249 H269 0.862 . S
C250 C245 1.501 . S
C250 H251 0.961 . S
C250 H252 0.961 . S
C250 H253 0.960 . S
H251 C250 0.961 . S
H252 C250 0.961 . S
H253 C250 0.960 . S
C254 N255 1.342 . S
C254 C258 1.401 . S
C254 C259 1.499 . S
N255 Co238 1.989 . S
N255 C254 1.342 . S
N255 N256 1.388 . S
N256 Co239 1.993 . S
N256 N255 1.388 . S
N256 C257 1.346 . S
C257 N256 1.346 . S
C257 C258 1.396 . S
C257 C267 1.510 . S
C258 C254 1.401 . S
C258 C257 1.396 . S
C259 C254 1.499 . S
C259 H260 0.959 . S
C259 H261 0.960 . S
C259 H262 0.961 . S
H260 C259 0.959 . S
H261 C259 0.960 . S
H262 C259 0.961 . S
O263 Co238 1.967 . S
O263 C271 1.258 . S
O264 Co239 1.941 . S
O264 C271 1.266 . S
H265 C267 0.959 . S
H266 C267 0.961 . S
C267 C257 1.510 . S
C267 H265 0.959 . S
C267 H266 0.961 . S
C267 H268 0.960 . S
H268 C267 0.960 . S
H269 N249 0.862 . S
O270 Co238 1.920 . S
O270 C243 1.289 . S
C271 O263 1.258 . S
C271 O264 1.266 . S
Co272 O275 1.970 . S
Co272 N289 1.989 . S
Co272 O297 1.967 . S
Co272 O304 1.920 . S
Co273 O276 1.966 . S
Co273 N282 2.022 1_545 S
Co273 N290 1.990 1_545 S
Co273 O298 1.941 . S
C274 O275 1.258 . S
C274 O276 1.263 . S
O275 Co272 1.970 . S
O275 C274 1.258 . S
O276 Co273 1.966 . S
O276 C274 1.263 . S
C277 O278 1.235 . S
C277 O304 1.289 . S
O278 C277 1.235 . S
C279 C281 1.400 . S
C279 N282 1.351 . S
C279 C284 1.501 . S
C280 C281 1.387 . S
C280 N283 1.341 . S
C281 C279 1.400 . S
C281 C280 1.387 . S
N282 Co273 2.022 1_565 S
N282 C279 1.351 . S
N282 N283 1.365 . S
N283 C280 1.341 . S
N283 N282 1.365 . S
N283 H303 0.862 1_565 S
C284 C279 1.501 . S
C284 H285 0.961 . S
C284 H286 0.961 . S
C284 H287 0.960 . S
H285 C284 0.961 . S
H286 C284 0.961 . S
H287 C284 0.960 . S
C288 N289 1.342 . S
C288 C292 1.401 1_545 S
C288 C293 1.499 . S
N289 Co272 1.989 . S
N289 C288 1.342 . S
N289 N290 1.383 1_545 S
N290 Co273 1.990 1_565 S
N290 N289 1.383 1_565 S
N290 C291 1.352 . S
C291 N290 1.352 . S
C291 C292 1.396 . S
C291 C301 1.510 . S
C292 C288 1.401 1_565 S
C292 C291 1.396 . S
C293 C288 1.499 . S
C293 H294 0.959 . S
C293 H295 0.990 . S
C293 H296 0.961 . S
H294 C293 0.959 . S
H295 C293 0.990 . S
H296 C293 0.961 . S
O297 Co272 1.967 . S
O297 C305 1.258 . S
O298 Co273 1.941 . S
O298 C305 1.266 . S
H299 C301 0.959 . S
H300 C301 0.961 . S
C301 C291 1.510 . S
C301 H299 0.959 . S
C301 H300 0.961 . S
C301 H302 0.960 . S
H302 C301 0.960 . S
H303 N283 0.862 1_545 S
O304 Co272 1.920 . S
O304 C277 1.289 . S
C305 O297 1.258 . S
C305 O298 1.266 . S
Co306 O309 1.970 . S
Co306 N323 1.989 . S
Co306 O331 1.967 . S
Co306 O338 1.920 . S
Co307 O310 1.966 . S
Co307 N316 2.022 . S
Co307 N324 1.993 . S
Co307 O332 1.941 . S
C308 O309 1.258 . S
C308 O310 1.263 . S
O309 Co306 1.970 . S
O309 C308 1.258 . S
O310 Co307 1.966 . S
O310 C308 1.263 . S
C311 O312 1.235 . S
C311 O338 1.289 . S
O312 C311 1.235 . S
C313 C315 1.400 . S
C313 N316 1.351 . S
C313 C318 1.501 . S
C314 C315 1.387 . S
C314 N317 1.341 . S
C315 C313 1.400 . S
C315 C314 1.387 . S
N316 Co307 2.022 . S
N316 C313 1.351 . S
N316 N317 1.365 . S
N317 C314 1.341 . S
N317 N316 1.365 . S
N317 H337 0.862 . S
C318 C313 1.501 . S
C318 H319 0.961 . S
C318 H320 0.961 . S
C318 H321 0.960 . S
H319 C318 0.961 . S
H320 C318 0.961 . S
H321 C318 0.960 . S
C322 N323 1.342 . S
C322 C326 1.401 . S
C322 C327 1.499 . S
N323 Co306 1.989 . S
N323 C322 1.342 . S
N323 N324 1.388 . S
N324 Co307 1.993 . S
N324 N323 1.388 . S
N324 C325 1.346 . S
C325 N324 1.346 . S
C325 C326 1.396 . S
C325 C335 1.510 . S
C326 C322 1.401 . S
C326 C325 1.396 . S
C327 C322 1.499 . S
C327 H328 0.959 . S
C327 H329 0.960 . S
C327 H330 0.961 . S
H328 C327 0.959 . S
H329 C327 0.960 . S
H330 C327 0.961 . S
O331 Co306 1.967 . S
O331 C339 1.258 . S
O332 Co307 1.941 . S
O332 C339 1.266 . S
H333 C335 0.959 . S
H334 C335 0.961 . S
C335 C325 1.510 . S
C335 H333 0.959 . S
C335 H334 0.961 . S
C335 H336 0.960 . S
H336 C335 0.960 . S
H337 N317 0.862 . S
O338 Co306 1.920 . S
O338 C311 1.289 . S
C339 O331 1.258 . S
C339 O332 1.266 . S
Co340 O343 1.970 . S
Co340 N357 1.989 . S
Co340 O365 1.967 . S
Co340 O372 1.920 . S
Co341 O344 1.966 . S
Co341 N350 2.022 1_565 S
Co341 N358 1.990 1_565 S
Co341 O366 1.941 . S
C342 O343 1.258 . S
C342 O344 1.263 . S
O343 Co340 1.970 . S
O343 C342 1.258 . S
O344 Co341 1.966 . S
O344 C342 1.263 . S
C345 O346 1.235 . S
C345 O372 1.289 . S
O346 C345 1.235 . S
C347 C349 1.400 . S
C347 N350 1.351 . S
C347 C352 1.501 . S
C348 C349 1.387 . S
C348 N351 1.341 . S
C349 C347 1.400 . S
C349 C348 1.387 . S
N350 Co341 2.022 1_545 S
N350 C347 1.351 . S
N350 N351 1.365 . S
N351 C348 1.341 . S
N351 N350 1.365 . S
N351 H371 0.862 1_545 S
C352 C347 1.501 . S
C352 H353 0.961 . S
C352 H354 0.961 . S
C352 H355 0.960 . S
H353 C352 0.961 . S
H354 C352 0.961 . S
H355 C352 0.960 . S
C356 N357 1.342 . S
C356 C360 1.401 1_565 S
C356 C361 1.499 . S
N357 Co340 1.989 . S
N357 C356 1.342 . S
N357 N358 1.383 1_565 S
N358 Co341 1.990 1_545 S
N358 N357 1.383 1_545 S
N358 C359 1.352 . S
C359 N358 1.352 . S
C359 C360 1.396 . S
C359 C369 1.510 . S
C360 C356 1.401 1_545 S
C360 C359 1.396 . S
C361 C356 1.499 . S
C361 H362 0.959 . S
C361 H363 0.990 . S
C361 H364 0.961 . S
H362 C361 0.959 . S
H363 C361 0.990 . S
H364 C361 0.961 . S
O365 Co340 1.967 . S
O365 C373 1.258 . S
O366 Co341 1.941 . S
O366 C373 1.266 . S
H367 C369 0.959 . S
H368 C369 0.961 . S
C369 C359 1.510 . S
C369 H367 0.959 . S
C369 H368 0.961 . S
C369 H370 0.960 . S
H370 C369 0.960 . S
H371 N351 0.862 1_565 S
O372 Co340 1.920 . S
O372 C345 1.289 . S
C373 O365 1.258 . S
C373 O366 1.266 . S
Co374 O377 1.970 . S
Co374 N391 1.989 . S
Co374 O399 1.967 . S
Co374 O406 1.920 . S
Co375 O378 1.966 . S
Co375 N384 2.022 . S
Co375 N392 1.993 . S
Co375 O400 1.941 . S
C376 O377 1.258 . S
C376 O378 1.263 . S
O377 Co374 1.970 . S
O377 C376 1.258 . S
O378 Co375 1.966 . S
O378 C376 1.263 . S
C379 O380 1.235 . S
C379 O406 1.289 . S
O380 C379 1.235 . S
C381 C383 1.400 . S
C381 N384 1.351 . S
C381 C386 1.501 . S
C382 C383 1.387 . S
C382 N385 1.341 . S
C383 C381 1.400 . S
C383 C382 1.387 . S
N384 Co375 2.022 . S
N384 C381 1.351 . S
N384 N385 1.365 . S
N385 C382 1.341 . S
N385 N384 1.365 . S
N385 H405 0.862 . S
C386 C381 1.501 . S
C386 H387 0.961 . S
C386 H388 0.961 . S
C386 H389 0.960 . S
H387 C386 0.961 . S
H388 C386 0.961 . S
H389 C386 0.960 . S
C390 N391 1.342 . S
C390 C394 1.401 . S
C390 C395 1.499 . S
N391 Co374 1.989 . S
N391 C390 1.342 . S
N391 N392 1.388 . S
N392 Co375 1.993 . S
N392 N391 1.388 . S
N392 C393 1.346 . S
C393 N392 1.346 . S
C393 C394 1.396 . S
C393 C403 1.510 . S
C394 C390 1.401 . S
C394 C393 1.396 . S
C395 C390 1.499 . S
C395 H396 0.959 . S
C395 H397 0.960 . S
C395 H398 0.961 . S
H396 C395 0.959 . S
H397 C395 0.960 . S
H398 C395 0.961 . S
O399 Co374 1.967 . S
O399 C407 1.258 . S
O400 Co375 1.941 . S
O400 C407 1.266 . S
H401 C403 0.959 . S
H402 C403 0.961 . S
C403 C393 1.510 . S
C403 H401 0.959 . S
C403 H402 0.961 . S
C403 H404 0.960 . S
H404 C403 0.960 . S
H405 N385 0.862 . S
O406 Co374 1.920 . S
O406 C379 1.289 . S
C407 O399 1.258 . S
C407 O400 1.266 . S
Co408 O411 1.970 . S
Co408 N425 1.989 . S
Co408 O433 1.967 . S
Co408 O440 1.920 . S
Co409 O412 1.966 . S
Co409 N418 2.022 1_565 S
Co409 N426 1.990 1_565 S
Co409 O434 1.941 . S
C410 O411 1.258 . S
C410 O412 1.263 . S
O411 Co408 1.970 . S
O411 C410 1.258 . S
O412 Co409 1.966 . S
O412 C410 1.263 . S
C413 O414 1.235 . S
C413 O440 1.289 . S
O414 C413 1.235 . S
C415 C417 1.400 . S
C415 N418 1.351 . S
C415 C420 1.501 . S
C416 C417 1.387 . S
C416 N419 1.341 . S
C417 C415 1.400 . S
C417 C416 1.387 . S
N418 Co409 2.022 1_545 S
N418 C415 1.351 . S
N418 N419 1.365 . S
N419 C416 1.341 . S
N419 N418 1.365 . S
N419 H439 0.862 1_545 S
C420 C415 1.501 . S
C420 H421 0.961 . S
C420 H422 0.961 . S
C420 H423 0.960 . S
H421 C420 0.961 . S
H422 C420 0.961 . S
H423 C420 0.960 . S
C424 N425 1.342 . S
C424 C428 1.401 1_565 S
C424 C429 1.499 . S
N425 Co408 1.989 . S
N425 C424 1.342 . S
N425 N426 1.383 1_565 S
N426 Co409 1.990 1_545 S
N426 N425 1.383 1_545 S
N426 C427 1.352 . S
C427 N426 1.352 . S
C427 C428 1.396 . S
C427 C437 1.510 . S
C428 C424 1.401 1_545 S
C428 C427 1.396 . S
C429 C424 1.499 . S
C429 H430 0.959 . S
C429 H431 0.990 . S
C429 H432 0.961 . S
H430 C429 0.959 . S
H431 C429 0.990 . S
H432 C429 0.961 . S
O433 Co408 1.967 . S
O433 C441 1.258 . S
O434 Co409 1.941 . S
O434 C441 1.266 . S
H435 C437 0.959 . S
H436 C437 0.961 . S
C437 C427 1.510 . S
C437 H435 0.959 . S
C437 H436 0.961 . S
C437 H438 0.960 . S
H438 C437 0.960 . S
H439 N419 0.862 1_565 S
O440 Co408 1.920 . S
O440 C413 1.289 . S
C441 O433 1.258 . S
C441 O434 1.266 . S
Co442 O445 1.970 . S
Co442 N459 1.989 . S
Co442 O467 1.967 . S
Co442 O474 1.920 . S
Co443 O446 1.966 . S
Co443 N452 2.022 . S
Co443 N460 1.993 . S
Co443 O468 1.941 . S
C444 O445 1.258 . S
C444 O446 1.263 . S
O445 Co442 1.970 . S
O445 C444 1.258 . S
O446 Co443 1.966 . S
O446 C444 1.263 . S
C447 O448 1.235 . S
C447 O474 1.289 . S
O448 C447 1.235 . S
C449 C451 1.400 . S
C449 N452 1.351 . S
C449 C454 1.501 . S
C450 C451 1.387 . S
C450 N453 1.341 . S
C451 C449 1.400 . S
C451 C450 1.387 . S
N452 Co443 2.022 . S
N452 C449 1.351 . S
N452 N453 1.365 . S
N453 C450 1.341 . S
N453 N452 1.365 . S
N453 H473 0.862 . S
C454 C449 1.501 . S
C454 H455 0.961 . S
C454 H456 0.961 . S
C454 H457 0.960 . S
H455 C454 0.961 . S
H456 C454 0.961 . S
H457 C454 0.960 . S
C458 N459 1.342 . S
C458 C462 1.401 . S
C458 C463 1.499 . S
N459 Co442 1.989 . S
N459 C458 1.342 . S
N459 N460 1.388 . S
N460 Co443 1.993 . S
N460 N459 1.388 . S
N460 C461 1.346 . S
C461 N460 1.346 . S
C461 C462 1.396 . S
C461 C471 1.510 . S
C462 C458 1.401 . S
C462 C461 1.396 . S
C463 C458 1.499 . S
C463 H464 0.959 . S
C463 H465 0.960 . S
C463 H466 0.961 . S
H464 C463 0.959 . S
H465 C463 0.960 . S
H466 C463 0.961 . S
O467 Co442 1.967 . S
O467 C475 1.258 . S
O468 Co443 1.941 . S
O468 C475 1.266 . S
H469 C471 0.959 . S
H470 C471 0.961 . S
C471 C461 1.510 . S
C471 H469 0.959 . S
C471 H470 0.961 . S
C471 H472 0.960 . S
H472 C471 0.960 . S
H473 N453 0.862 . S
O474 Co442 1.920 . S
O474 C447 1.289 . S
C475 O467 1.258 . S
C475 O468 1.266 . S
Co476 O479 1.970 . S
Co476 N493 1.989 . S
Co476 O501 1.967 . S
Co476 O508 1.920 . S
Co477 O480 1.966 . S
Co477 N486 2.022 1_545 S
Co477 N494 1.990 1_545 S
Co477 O502 1.941 . S
C478 O479 1.258 . S
C478 O480 1.263 . S
O479 Co476 1.970 . S
O479 C478 1.258 . S
O480 Co477 1.966 . S
O480 C478 1.263 . S
C481 O482 1.235 . S
C481 O508 1.289 . S
O482 C481 1.235 . S
C483 C485 1.400 . S
C483 N486 1.351 . S
C483 C488 1.501 . S
C484 C485 1.387 . S
C484 N487 1.341 . S
C485 C483 1.400 . S
C485 C484 1.387 . S
N486 Co477 2.022 1_565 S
N486 C483 1.351 . S
N486 N487 1.365 . S
N487 C484 1.341 . S
N487 N486 1.365 . S
N487 H507 0.862 1_565 S
C488 C483 1.501 . S
C488 H489 0.961 . S
C488 H490 0.961 . S
C488 H491 0.960 . S
H489 C488 0.961 . S
H490 C488 0.961 . S
H491 C488 0.960 . S
C492 N493 1.342 . S
C492 C496 1.401 1_545 S
C492 C497 1.499 . S
N493 Co476 1.989 . S
N493 C492 1.342 . S
N493 N494 1.383 1_545 S
N494 Co477 1.990 1_565 S
N494 N493 1.383 1_565 S
N494 C495 1.352 . S
C495 N494 1.352 . S
C495 C496 1.396 . S
C495 C505 1.510 . S
C496 C492 1.401 1_565 S
C496 C495 1.396 . S
C497 C492 1.499 . S
C497 H498 0.959 . S
C497 H499 0.990 . S
C497 H500 0.961 . S
H498 C497 0.959 . S
H499 C497 0.990 . S
H500 C497 0.961 . S
O501 Co476 1.967 . S
O501 C509 1.258 . S
O502 Co477 1.941 . S
O502 C509 1.266 . S
H503 C505 0.959 . S
H504 C505 0.961 . S
C505 C495 1.510 . S
C505 H503 0.959 . S
C505 H504 0.961 . S
C505 H506 0.960 . S
H506 C505 0.960 . S
H507 N487 0.862 1_545 S
O508 Co476 1.920 . S
O508 C481 1.289 . S
C509 O501 1.258 . S
C509 O502 1.266 . S
Co510 O513 1.970 . S
Co510 N527 1.989 . S
Co510 O535 1.967 . S
Co510 O542 1.920 . S
Co511 O514 1.966 . S
Co511 N520 2.022 . S
Co511 N528 1.993 . S
Co511 O536 1.941 . S
C512 O513 1.258 . S
C512 O514 1.263 . S
O513 Co510 1.970 . S
O513 C512 1.258 . S
O514 Co511 1.966 . S
O514 C512 1.263 . S
C515 O516 1.235 . S
C515 O542 1.289 . S
O516 C515 1.235 . S
C517 C519 1.400 . S
C517 N520 1.351 . S
C517 C522 1.501 . S
C518 C519 1.387 . S
C518 N521 1.341 . S
C519 C517 1.400 . S
C519 C518 1.387 . S
N520 Co511 2.022 . S
N520 C517 1.351 . S
N520 N521 1.365 . S
N521 C518 1.341 . S
N521 N520 1.365 . S
N521 H541 0.862 . S
C522 C517 1.501 . S
C522 H523 0.961 . S
C522 H524 0.961 . S
C522 H525 0.960 . S
H523 C522 0.961 . S
H524 C522 0.961 . S
H525 C522 0.960 . S
C526 N527 1.342 . S
C526 C530 1.401 . S
C526 C531 1.499 . S
N527 Co510 1.989 . S
N527 C526 1.342 . S
N527 N528 1.388 . S
N528 Co511 1.993 . S
N528 N527 1.388 . S
N528 C529 1.346 . S
C529 N528 1.346 . S
C529 C530 1.396 . S
C529 C539 1.510 . S
C530 C526 1.401 . S
C530 C529 1.396 . S
C531 C526 1.499 . S
C531 H532 0.959 . S
C531 H533 0.960 . S
C531 H534 0.961 . S
H532 C531 0.959 . S
H533 C531 0.960 . S
H534 C531 0.961 . S
O535 Co510 1.967 . S
O535 C543 1.258 . S
O536 Co511 1.941 . S
O536 C543 1.266 . S
H537 C539 0.959 . S
H538 C539 0.961 . S
C539 C529 1.510 . S
C539 H537 0.959 . S
C539 H538 0.961 . S
C539 H540 0.960 . S
H540 C539 0.960 . S
H541 N521 0.862 . S
O542 Co510 1.920 . S
O542 C515 1.289 . S
C543 O535 1.258 . S
C543 O536 1.266 . S
Co544 O547 1.970 . S
Co544 N561 1.989 . S
Co544 O569 1.967 . S
Co544 O576 1.920 . S
Co545 O548 1.966 . S
Co545 N554 2.022 1_554 S
Co545 N562 1.990 1_554 S
Co545 O570 1.941 . S
C546 O547 1.258 . S
C546 O548 1.263 . S
O547 Co544 1.970 . S
O547 C546 1.258 . S
O548 Co545 1.966 . S
O548 C546 1.263 . S
C549 O550 1.235 . S
C549 O576 1.289 . S
O550 C549 1.235 . S
C551 C553 1.400 . S
C551 N554 1.351 . S
C551 C556 1.501 . S
C552 C553 1.387 . S
C552 N555 1.341 . S
C553 C551 1.400 . S
C553 C552 1.387 . S
N554 Co545 2.022 1_556 S
N554 C551 1.351 . S
N554 N555 1.365 . S
N555 C552 1.341 . S
N555 N554 1.365 . S
N555 H575 0.862 1_556 S
C556 C551 1.501 . S
C556 H557 0.961 . S
C556 H558 0.961 . S
C556 H559 0.960 . S
H557 C556 0.961 . S
H558 C556 0.961 . S
H559 C556 0.960 . S
C560 N561 1.342 . S
C560 C564 1.401 1_554 S
C560 C565 1.499 . S
N561 Co544 1.989 . S
N561 C560 1.342 . S
N561 N562 1.383 1_554 S
N562 Co545 1.990 1_556 S
N562 N561 1.383 1_556 S
N562 C563 1.352 . S
C563 N562 1.352 . S
C563 C564 1.396 . S
C563 C573 1.510 . S
C564 C560 1.401 1_556 S
C564 C563 1.396 . S
C565 C560 1.499 . S
C565 H566 0.959 . S
C565 H567 0.990 . S
C565 H568 0.961 . S
H566 C565 0.959 . S
H567 C565 0.990 . S
H568 C565 0.961 . S
O569 Co544 1.967 . S
O569 C577 1.258 . S
O570 Co545 1.941 . S
O570 C577 1.266 . S
H571 C573 0.959 . S
H572 C573 0.961 . S
C573 C563 1.510 . S
C573 H571 0.959 . S
C573 H572 0.961 . S
C573 H574 0.960 . S
H574 C573 0.960 . S
H575 N555 0.862 1_554 S
O576 Co544 1.920 . S
O576 C549 1.289 . S
C577 O569 1.258 . S
C577 O570 1.266 . S
Co578 O581 1.970 . S
Co578 N595 1.989 . S
Co578 O603 1.967 . S
Co578 O610 1.920 . S
Co579 O582 1.966 . S
Co579 N588 2.022 1_556 S
Co579 N596 1.990 1_556 S
Co579 O604 1.941 . S
C580 O581 1.258 . S
C580 O582 1.263 . S
O581 Co578 1.970 . S
O581 C580 1.258 . S
O582 Co579 1.966 . S
O582 C580 1.263 . S
C583 O584 1.235 . S
C583 O610 1.289 . S
O584 C583 1.235 . S
C585 C587 1.400 . S
C585 N588 1.351 . S
C585 C590 1.501 . S
C586 C587 1.387 . S
C586 N589 1.341 . S
C587 C585 1.400 . S
C587 C586 1.387 . S
N588 Co579 2.022 1_554 S
N588 C585 1.351 . S
N588 N589 1.365 . S
N589 C586 1.341 . S
N589 N588 1.365 . S
N589 H609 0.862 1_554 S
C590 C585 1.501 . S
C590 H591 0.961 . S
C590 H592 0.961 . S
C590 H593 0.960 . S
H591 C590 0.961 . S
H592 C590 0.961 . S
H593 C590 0.960 . S
C594 N595 1.342 . S
C594 C598 1.401 1_556 S
C594 C599 1.499 . S
N595 Co578 1.989 . S
N595 C594 1.342 . S
N595 N596 1.383 1_556 S
N596 Co579 1.990 1_554 S
N596 N595 1.383 1_554 S
N596 C597 1.352 . S
C597 N596 1.352 . S
C597 C598 1.396 . S
C597 C607 1.510 . S
C598 C594 1.401 1_554 S
C598 C597 1.396 . S
C599 C594 1.499 . S
C599 H600 0.959 . S
C599 H601 0.990 . S
C599 H602 0.961 . S
H600 C599 0.959 . S
H601 C599 0.990 . S
H602 C599 0.961 . S
O603 Co578 1.967 . S
O603 C611 1.258 . S
O604 Co579 1.941 . S
O604 C611 1.266 . S
H605 C607 0.959 . S
H606 C607 0.961 . S
C607 C597 1.510 . S
C607 H605 0.959 . S
C607 H606 0.961 . S
C607 H608 0.960 . S
H608 C607 0.960 . S
H609 N589 0.862 1_556 S
O610 Co578 1.920 . S
O610 C583 1.289 . S
C611 O603 1.258 . S
C611 O604 1.266 . S
Co612 O615 1.970 . S
Co612 N629 1.989 . S
Co612 O637 1.967 . S
Co612 O644 1.920 . S
Co613 O616 1.966 . S
Co613 N622 2.022 . S
Co613 N630 1.993 . S
Co613 O638 1.941 . S
C614 O615 1.258 . S
C614 O616 1.263 . S
O615 Co612 1.970 . S
O615 C614 1.258 . S
O616 Co613 1.966 . S
O616 C614 1.263 . S
C617 O618 1.235 . S
C617 O644 1.289 . S
O618 C617 1.235 . S
C619 C621 1.400 . S
C619 N622 1.351 . S
C619 C624 1.501 . S
C620 C621 1.387 . S
C620 N623 1.341 . S
C621 C619 1.400 . S
C621 C620 1.387 . S
N622 Co613 2.022 . S
N622 C619 1.351 . S
N622 N623 1.365 . S
N623 C620 1.341 . S
N623 N622 1.365 . S
N623 H643 0.862 . S
C624 C619 1.501 . S
C624 H625 0.961 . S
C624 H626 0.961 . S
C624 H627 0.960 . S
H625 C624 0.961 . S
H626 C624 0.961 . S
H627 C624 0.960 . S
C628 N629 1.342 . S
C628 C632 1.401 . S
C628 C633 1.499 . S
N629 Co612 1.989 . S
N629 C628 1.342 . S
N629 N630 1.388 . S
N630 Co613 1.993 . S
N630 N629 1.388 . S
N630 C631 1.346 . S
C631 N630 1.346 . S
C631 C632 1.396 . S
C631 C641 1.510 . S
C632 C628 1.401 . S
C632 C631 1.396 . S
C633 C628 1.499 . S
C633 H634 0.959 . S
C633 H635 0.960 . S
C633 H636 0.961 . S
H634 C633 0.959 . S
H635 C633 0.960 . S
H636 C633 0.961 . S
O637 Co612 1.967 . S
O637 C645 1.258 . S
O638 Co613 1.941 . S
O638 C645 1.266 . S
H639 C641 0.959 . S
H640 C641 0.961 . S
C641 C631 1.510 . S
C641 H639 0.959 . S
C641 H640 0.961 . S
C641 H642 0.960 . S
H642 C641 0.960 . S
H643 N623 0.862 . S
O644 Co612 1.920 . S
O644 C617 1.289 . S
C645 O637 1.258 . S
C645 O638 1.266 . S
Co646 O649 1.970 . S
Co646 N663 1.989 . S
Co646 O671 1.967 . S
Co646 O678 1.920 . S
Co647 O650 1.966 . S
Co647 N656 2.022 . S
Co647 N664 1.993 . S
Co647 O672 1.941 . S
C648 O649 1.258 . S
C648 O650 1.263 . S
O649 Co646 1.970 . S
O649 C648 1.258 . S
O650 Co647 1.966 . S
O650 C648 1.263 . S
C651 O652 1.235 . S
C651 O678 1.289 . S
O652 C651 1.235 . S
C653 C655 1.400 . S
C653 N656 1.351 . S
C653 C658 1.501 . S
C654 C655 1.387 . S
C654 N657 1.341 . S
C655 C653 1.400 . S
C655 C654 1.387 . S
N656 Co647 2.022 . S
N656 C653 1.351 . S
N656 N657 1.365 . S
N657 C654 1.341 . S
N657 N656 1.365 . S
N657 H677 0.862 . S
C658 C653 1.501 . S
C658 H659 0.961 . S
C658 H660 0.961 . S
C658 H661 0.960 . S
H659 C658 0.961 . S
H660 C658 0.961 . S
H661 C658 0.960 . S
C662 N663 1.342 . S
C662 C666 1.401 . S
C662 C667 1.499 . S
N663 Co646 1.989 . S
N663 C662 1.342 . S
N663 N664 1.388 . S
N664 Co647 1.993 . S
N664 N663 1.388 . S
N664 C665 1.346 . S
C665 N664 1.346 . S
C665 C666 1.396 . S
C665 C675 1.510 . S
C666 C662 1.401 . S
C666 C665 1.396 . S
C667 C662 1.499 . S
C667 H668 0.959 . S
C667 H669 0.960 . S
C667 H670 0.961 . S
H668 C667 0.959 . S
H669 C667 0.960 . S
H670 C667 0.961 . S
O671 Co646 1.967 . S
O671 C679 1.258 . S
O672 Co647 1.941 . S
O672 C679 1.266 . S
H673 C675 0.959 . S
H674 C675 0.961 . S
C675 C665 1.510 . S
C675 H673 0.959 . S
C675 H674 0.961 . S
C675 H676 0.960 . S
H676 C675 0.960 . S
H677 N657 0.862 . S
O678 Co646 1.920 . S
O678 C651 1.289 . S
C679 O671 1.258 . S
C679 O672 1.266 . S
Co680 O683 1.970 . S
Co680 N697 1.989 . S
Co680 O705 1.967 . S
Co680 O712 1.920 . S
Co681 O684 1.966 . S
Co681 N690 2.022 . S
Co681 N698 1.993 . S
Co681 O706 1.941 . S
C682 O683 1.258 . S
C682 O684 1.263 . S
O683 Co680 1.970 . S
O683 C682 1.258 . S
O684 Co681 1.966 . S
O684 C682 1.263 . S
C685 O686 1.235 . S
C685 O712 1.289 . S
O686 C685 1.235 . S
C687 C689 1.400 . S
C687 N690 1.351 . S
C687 C692 1.501 . S
C688 C689 1.387 . S
C688 N691 1.341 . S
C689 C687 1.400 . S
C689 C688 1.387 . S
N690 Co681 2.022 . S
N690 C687 1.351 . S
N690 N691 1.365 . S
N691 C688 1.341 . S
N691 N690 1.365 . S
N691 H711 0.862 . S
C692 C687 1.501 . S
C692 H693 0.961 . S
C692 H694 0.961 . S
C692 H695 0.960 . S
H693 C692 0.961 . S
H694 C692 0.961 . S
H695 C692 0.960 . S
C696 N697 1.342 . S
C696 C700 1.401 . S
C696 C701 1.499 . S
N697 Co680 1.989 . S
N697 C696 1.342 . S
N697 N698 1.388 . S
N698 Co681 1.993 . S
N698 N697 1.388 . S
N698 C699 1.346 . S
C699 N698 1.346 . S
C699 C700 1.396 . S
C699 C709 1.510 . S
C700 C696 1.401 . S
C700 C699 1.396 . S
C701 C696 1.499 . S
C701 H702 0.959 . S
C701 H703 0.960 . S
C701 H704 0.961 . S
H702 C701 0.959 . S
H703 C701 0.960 . S
H704 C701 0.961 . S
O705 Co680 1.967 . S
O705 C713 1.258 . S
O706 Co681 1.941 . S
O706 C713 1.266 . S
H707 C709 0.959 . S
H708 C709 0.961 . S
C709 C699 1.510 . S
C709 H707 0.959 . S
C709 H708 0.961 . S
C709 H710 0.960 . S
H710 C709 0.960 . S
H711 N691 0.862 . S
O712 Co680 1.920 . S
O712 C685 1.289 . S
C713 O705 1.258 . S
C713 O706 1.266 . S
Co714 O717 1.970 . S
Co714 N731 1.989 . S
Co714 O739 1.967 . S
Co714 O746 1.920 . S
Co715 O718 1.966 . S
Co715 N724 2.022 . S
Co715 N732 1.993 . S
Co715 O740 1.941 . S
C716 O717 1.258 . S
C716 O718 1.263 . S
O717 Co714 1.970 . S
O717 C716 1.258 . S
O718 Co715 1.966 . S
O718 C716 1.263 . S
C719 O720 1.235 . S
C719 O746 1.289 . S
O720 C719 1.235 . S
C721 C723 1.400 . S
C721 N724 1.351 . S
C721 C726 1.501 . S
C722 C723 1.387 . S
C722 N725 1.341 . S
C723 C721 1.400 . S
C723 C722 1.387 . S
N724 Co715 2.022 . S
N724 C721 1.351 . S
N724 N725 1.365 . S
N725 C722 1.341 . S
N725 N724 1.365 . S
N725 H745 0.862 . S
C726 C721 1.501 . S
C726 H727 0.961 . S
C726 H728 0.961 . S
C726 H729 0.960 . S
H727 C726 0.961 . S
H728 C726 0.961 . S
H729 C726 0.960 . S
C730 N731 1.342 . S
C730 C734 1.401 . S
C730 C735 1.499 . S
N731 Co714 1.989 . S
N731 C730 1.342 . S
N731 N732 1.388 . S
N732 Co715 1.993 . S
N732 N731 1.388 . S
N732 C733 1.346 . S
C733 N732 1.346 . S
C733 C734 1.396 . S
C733 C743 1.510 . S
C734 C730 1.401 . S
C734 C733 1.396 . S
C735 C730 1.499 . S
C735 H736 0.959 . S
C735 H737 0.960 . S
C735 H738 0.961 . S
H736 C735 0.959 . S
H737 C735 0.960 . S
H738 C735 0.961 . S
O739 Co714 1.967 . S
O739 C747 1.258 . S
O740 Co715 1.941 . S
O740 C747 1.266 . S
H741 C743 0.959 . S
H742 C743 0.961 . S
C743 C733 1.510 . S
C743 H741 0.959 . S
C743 H742 0.961 . S
C743 H744 0.960 . S
H744 C743 0.960 . S
H745 N725 0.862 . S
O746 Co714 1.920 . S
O746 C719 1.289 . S
C747 O739 1.258 . S
C747 O740 1.266 . S
Co748 O751 1.970 . S
Co748 N765 1.989 . S
Co748 O773 1.967 . S
Co748 O780 1.920 . S
Co749 O752 1.966 . S
Co749 N758 2.022 . S
Co749 N766 1.993 . S
Co749 O774 1.941 . S
C750 O751 1.258 . S
C750 O752 1.263 . S
O751 Co748 1.970 . S
O751 C750 1.258 . S
O752 Co749 1.966 . S
O752 C750 1.263 . S
C753 O754 1.235 . S
C753 O780 1.289 . S
O754 C753 1.235 . S
C755 C757 1.400 . S
C755 N758 1.351 . S
C755 C760 1.501 . S
C756 C757 1.387 . S
C756 N759 1.341 . S
C757 C755 1.400 . S
C757 C756 1.387 . S
N758 Co749 2.022 . S
N758 C755 1.351 . S
N758 N759 1.365 . S
N759 C756 1.341 . S
N759 N758 1.365 . S
N759 H779 0.862 . S
C760 C755 1.501 . S
C760 H761 0.961 . S
C760 H762 0.961 . S
C760 H763 0.960 . S
H761 C760 0.961 . S
H762 C760 0.961 . S
H763 C760 0.960 . S
C764 N765 1.342 . S
C764 C768 1.401 . S
C764 C769 1.499 . S
N765 Co748 1.989 . S
N765 C764 1.342 . S
N765 N766 1.388 . S
N766 Co749 1.993 . S
N766 N765 1.388 . S
N766 C767 1.346 . S
C767 N766 1.346 . S
C767 C768 1.396 . S
C767 C777 1.510 . S
C768 C764 1.401 . S
C768 C767 1.396 . S
C769 C764 1.499 . S
C769 H770 0.959 . S
C769 H771 0.960 . S
C769 H772 0.961 . S
H770 C769 0.959 . S
H771 C769 0.960 . S
H772 C769 0.961 . S
O773 Co748 1.967 . S
O773 C781 1.258 . S
O774 Co749 1.941 . S
O774 C781 1.266 . S
H775 C777 0.959 . S
H776 C777 0.961 . S
C777 C767 1.510 . S
C777 H775 0.959 . S
C777 H776 0.961 . S
C777 H778 0.960 . S
H778 C777 0.960 . S
H779 N759 0.862 . S
O780 Co748 1.920 . S
O780 C753 1.289 . S
C781 O773 1.258 . S
C781 O774 1.266 . S
Co782 O785 1.970 . S
Co782 N799 1.989 . S
Co782 O807 1.967 . S
Co782 O814 1.920 . S
Co783 O786 1.966 . S
Co783 N792 2.022 . S
Co783 N800 1.993 . S
Co783 O808 1.941 . S
C784 O785 1.258 . S
C784 O786 1.263 . S
O785 Co782 1.970 . S
O785 C784 1.258 . S
O786 Co783 1.966 . S
O786 C784 1.263 . S
C787 O788 1.235 . S
C787 O814 1.289 . S
O788 C787 1.235 . S
C789 C791 1.400 . S
C789 N792 1.351 . S
C789 C794 1.501 . S
C790 C791 1.387 . S
C790 N793 1.341 . S
C791 C789 1.400 . S
C791 C790 1.387 . S
N792 Co783 2.022 . S
N792 C789 1.351 . S
N792 N793 1.365 . S
N793 C790 1.341 . S
N793 N792 1.365 . S
N793 H813 0.862 . S
C794 C789 1.501 . S
C794 H795 0.961 . S
C794 H796 0.961 . S
C794 H797 0.960 . S
H795 C794 0.961 . S
H796 C794 0.961 . S
H797 C794 0.960 . S
C798 N799 1.342 . S
C798 C802 1.401 . S
C798 C803 1.499 . S
N799 Co782 1.989 . S
N799 C798 1.342 . S
N799 N800 1.388 . S
N800 Co783 1.993 . S
N800 N799 1.388 . S
N800 C801 1.346 . S
C801 N800 1.346 . S
C801 C802 1.396 . S
C801 C811 1.510 . S
C802 C798 1.401 . S
C802 C801 1.396 . S
C803 C798 1.499 . S
C803 H804 0.959 . S
C803 H805 0.960 . S
C803 H806 0.961 . S
H804 C803 0.959 . S
H805 C803 0.960 . S
H806 C803 0.961 . S
O807 Co782 1.967 . S
O807 C815 1.258 . S
O808 Co783 1.941 . S
O808 C815 1.266 . S
H809 C811 0.959 . S
H810 C811 0.961 . S
C811 C801 1.510 . S
C811 H809 0.959 . S
C811 H810 0.961 . S
C811 H812 0.960 . S
H812 C811 0.960 . S
H813 N793 0.862 . S
O814 Co782 1.920 . S
O814 C787 1.289 . S
C815 O807 1.258 . S
C815 O808 1.266 . S
Co816 O819 1.970 . S
Co816 N833 1.989 . S
Co816 O841 1.967 . S
Co816 O848 1.920 . S
Co817 O820 1.966 . S
Co817 N826 2.022 . S
Co817 N834 1.993 . S
Co817 O842 1.941 . S
C818 O819 1.258 . S
C818 O820 1.263 . S
O819 Co816 1.970 . S
O819 C818 1.258 . S
O820 Co817 1.966 . S
O820 C818 1.263 . S
C821 O822 1.235 . S
C821 O848 1.289 . S
O822 C821 1.235 . S
C823 C825 1.400 . S
C823 N826 1.351 . S
C823 C828 1.501 . S
C824 C825 1.387 . S
C824 N827 1.341 . S
C825 C823 1.400 . S
C825 C824 1.387 . S
N826 Co817 2.022 . S
N826 C823 1.351 . S
N826 N827 1.365 . S
N827 C824 1.341 . S
N827 N826 1.365 . S
N827 H847 0.862 . S
C828 C823 1.501 . S
C828 H829 0.961 . S
C828 H830 0.961 . S
C828 H831 0.960 . S
H829 C828 0.961 . S
H830 C828 0.961 . S
H831 C828 0.960 . S
C832 N833 1.342 . S
C832 C836 1.401 . S
C832 C837 1.499 . S
N833 Co816 1.989 . S
N833 C832 1.342 . S
N833 N834 1.388 . S
N834 Co817 1.993 . S
N834 N833 1.388 . S
N834 C835 1.346 . S
C835 N834 1.346 . S
C835 C836 1.396 . S
C835 C845 1.510 . S
C836 C832 1.401 . S
C836 C835 1.396 . S
C837 C832 1.499 . S
C837 H838 0.959 . S
C837 H839 0.960 . S
C837 H840 0.961 . S
H838 C837 0.959 . S
H839 C837 0.960 . S
H840 C837 0.961 . S
O841 Co816 1.967 . S
O841 C849 1.258 . S
O842 Co817 1.941 . S
O842 C849 1.266 . S
H843 C845 0.959 . S
H844 C845 0.961 . S
C845 C835 1.510 . S
C845 H843 0.959 . S
C845 H844 0.961 . S
C845 H846 0.960 . S
H846 C845 0.960 . S
H847 N827 0.862 . S
O848 Co816 1.920 . S
O848 C821 1.289 . S
C849 O841 1.258 . S
C849 O842 1.266 . S
Co850 O853 1.970 . S
Co850 N867 1.989 . S
Co850 O875 1.967 . S
Co850 O882 1.920 . S
Co851 O854 1.966 . S
Co851 N860 2.022 . S
Co851 N868 1.993 . S
Co851 O876 1.941 . S
C852 O853 1.258 . S
C852 O854 1.263 . S
O853 Co850 1.970 . S
O853 C852 1.258 . S
O854 Co851 1.966 . S
O854 C852 1.263 . S
C855 O856 1.235 . S
C855 O882 1.289 . S
O856 C855 1.235 . S
C857 C859 1.400 . S
C857 N860 1.351 . S
C857 C862 1.501 . S
C858 C859 1.387 . S
C858 N861 1.341 . S
C859 C857 1.400 . S
C859 C858 1.387 . S
N860 Co851 2.022 . S
N860 C857 1.351 . S
N860 N861 1.365 . S
N861 C858 1.341 . S
N861 N860 1.365 . S
N861 H881 0.862 . S
C862 C857 1.501 . S
C862 H863 0.961 . S
C862 H864 0.961 . S
C862 H865 0.960 . S
H863 C862 0.961 . S
H864 C862 0.961 . S
H865 C862 0.960 . S
C866 N867 1.342 . S
C866 C870 1.401 . S
C866 C871 1.499 . S
N867 Co850 1.989 . S
N867 C866 1.342 . S
N867 N868 1.388 . S
N868 Co851 1.993 . S
N868 N867 1.388 . S
N868 C869 1.346 . S
C869 N868 1.346 . S
C869 C870 1.396 . S
C869 C879 1.510 . S
C870 C866 1.401 . S
C870 C869 1.396 . S
C871 C866 1.499 . S
C871 H872 0.959 . S
C871 H873 0.960 . S
C871 H874 0.961 . S
H872 C871 0.959 . S
H873 C871 0.960 . S
H874 C871 0.961 . S
O875 Co850 1.967 . S
O875 C883 1.258 . S
O876 Co851 1.941 . S
O876 C883 1.266 . S
H877 C879 0.959 . S
H878 C879 0.961 . S
C879 C869 1.510 . S
C879 H877 0.959 . S
C879 H878 0.961 . S
C879 H880 0.960 . S
H880 C879 0.960 . S
H881 N861 0.862 . S
O882 Co850 1.920 . S
O882 C855 1.289 . S
C883 O875 1.258 . S
C883 O876 1.266 . S
Co884 O887 1.970 . S
Co884 N901 1.989 . S
Co884 O909 1.967 . S
Co884 O916 1.920 . S
Co885 O888 1.966 . S
Co885 N894 2.022 1_655 S
Co885 N902 1.990 1_655 S
Co885 O910 1.941 . S
C886 O887 1.258 . S
C886 O888 1.263 . S
O887 Co884 1.970 . S
O887 C886 1.258 . S
O888 Co885 1.966 . S
O888 C886 1.263 . S
C889 O890 1.235 . S
C889 O916 1.289 . S
O890 C889 1.235 . S
C891 C893 1.400 . S
C891 N894 1.351 . S
C891 C896 1.501 . S
C892 C893 1.387 . S
C892 N895 1.341 . S
C893 C891 1.400 . S
C893 C892 1.387 . S
N894 Co885 2.022 1_455 S
N894 C891 1.351 . S
N894 N895 1.365 . S
N895 C892 1.341 . S
N895 N894 1.365 . S
N895 H915 0.862 1_455 S
C896 C891 1.501 . S
C896 H897 0.961 . S
C896 H898 0.961 . S
C896 H899 0.960 . S
H897 C896 0.961 . S
H898 C896 0.961 . S
H899 C896 0.960 . S
C900 N901 1.342 . S
C900 C904 1.401 1_655 S
C900 C905 1.499 . S
N901 Co884 1.989 . S
N901 C900 1.342 . S
N901 N902 1.383 1_655 S
N902 Co885 1.990 1_455 S
N902 N901 1.383 1_455 S
N902 C903 1.352 . S
C903 N902 1.352 . S
C903 C904 1.396 . S
C903 C913 1.510 . S
C904 C900 1.401 1_455 S
C904 C903 1.396 . S
C905 C900 1.499 . S
C905 H906 0.959 . S
C905 H907 0.990 . S
C905 H908 0.961 . S
H906 C905 0.959 . S
H907 C905 0.990 . S
H908 C905 0.961 . S
O909 Co884 1.967 . S
O909 C917 1.258 . S
O910 Co885 1.941 . S
O910 C917 1.266 . S
H911 C913 0.959 . S
H912 C913 0.961 . S
C913 C903 1.510 . S
C913 H911 0.959 . S
C913 H912 0.961 . S
C913 H914 0.960 . S
H914 C913 0.960 . S
H915 N895 0.862 1_655 S
O916 Co884 1.920 . S
O916 C889 1.289 . S
C917 O909 1.258 . S
C917 O910 1.266 . S
Co918 O921 1.970 . S
Co918 N935 1.989 . S
Co918 O943 1.967 . S
Co918 O950 1.920 . S
Co919 O922 1.966 . S
Co919 N928 2.022 . S
Co919 N936 1.993 . S
Co919 O944 1.941 . S
C920 O921 1.258 . S
C920 O922 1.263 . S
O921 Co918 1.970 . S
O921 C920 1.258 . S
O922 Co919 1.966 . S
O922 C920 1.263 . S
C923 O924 1.235 . S
C923 O950 1.289 . S
O924 C923 1.235 . S
C925 C927 1.400 . S
C925 N928 1.351 . S
C925 C930 1.501 . S
C926 C927 1.387 . S
C926 N929 1.341 . S
C927 C925 1.400 . S
C927 C926 1.387 . S
N928 Co919 2.022 . S
N928 C925 1.351 . S
N928 N929 1.365 . S
N929 C926 1.341 . S
N929 N928 1.365 . S
N929 H949 0.862 . S
C930 C925 1.501 . S
C930 H931 0.961 . S
C930 H932 0.961 . S
C930 H933 0.960 . S
H931 C930 0.961 . S
H932 C930 0.961 . S
H933 C930 0.960 . S
C934 N935 1.342 . S
C934 C938 1.401 . S
C934 C939 1.499 . S
N935 Co918 1.989 . S
N935 C934 1.342 . S
N935 N936 1.388 . S
N936 Co919 1.993 . S
N936 N935 1.388 . S
N936 C937 1.346 . S
C937 N936 1.346 . S
C937 C938 1.396 . S
C937 C947 1.510 . S
C938 C934 1.401 . S
C938 C937 1.396 . S
C939 C934 1.499 . S
C939 H940 0.959 . S
C939 H941 0.960 . S
C939 H942 0.961 . S
H940 C939 0.959 . S
H941 C939 0.960 . S
H942 C939 0.961 . S
O943 Co918 1.967 . S
O943 C951 1.258 . S
O944 Co919 1.941 . S
O944 C951 1.266 . S
H945 C947 0.959 . S
H946 C947 0.961 . S
C947 C937 1.510 . S
C947 H945 0.959 . S
C947 H946 0.961 . S
C947 H948 0.960 . S
H948 C947 0.960 . S
H949 N929 0.862 . S
O950 Co918 1.920 . S
O950 C923 1.289 . S
C951 O943 1.258 . S
C951 O944 1.266 . S
Co952 O955 1.970 . S
Co952 N969 1.989 . S
Co952 O977 1.967 . S
Co952 O984 1.920 . S
Co953 O956 1.966 . S
Co953 N962 2.022 . S
Co953 N970 1.993 . S
Co953 O978 1.941 . S
C954 O955 1.258 . S
C954 O956 1.263 . S
O955 Co952 1.970 . S
O955 C954 1.258 . S
O956 Co953 1.966 . S
O956 C954 1.263 . S
C957 O958 1.235 . S
C957 O984 1.289 . S
O958 C957 1.235 . S
C959 C961 1.400 . S
C959 N962 1.351 . S
C959 C964 1.501 . S
C960 C961 1.387 . S
C960 N963 1.341 . S
C961 C959 1.400 . S
C961 C960 1.387 . S
N962 Co953 2.022 . S
N962 C959 1.351 . S
N962 N963 1.365 . S
N963 C960 1.341 . S
N963 N962 1.365 . S
N963 H983 0.862 . S
C964 C959 1.501 . S
C964 H965 0.961 . S
C964 H966 0.961 . S
C964 H967 0.960 . S
H965 C964 0.961 . S
H966 C964 0.961 . S
H967 C964 0.960 . S
C968 N969 1.342 . S
C968 C972 1.401 . S
C968 C973 1.499 . S
N969 Co952 1.989 . S
N969 C968 1.342 . S
N969 N970 1.388 . S
N970 Co953 1.993 . S
N970 N969 1.388 . S
N970 C971 1.346 . S
C971 N970 1.346 . S
C971 C972 1.396 . S
C971 C981 1.510 . S
C972 C968 1.401 . S
C972 C971 1.396 . S
C973 C968 1.499 . S
C973 H974 0.959 . S
C973 H975 0.960 . S
C973 H976 0.961 . S
H974 C973 0.959 . S
H975 C973 0.960 . S
H976 C973 0.961 . S
O977 Co952 1.967 . S
O977 C985 1.258 . S
O978 Co953 1.941 . S
O978 C985 1.266 . S
H979 C981 0.959 . S
H980 C981 0.961 . S
C981 C971 1.510 . S
C981 H979 0.959 . S
C981 H980 0.961 . S
C981 H982 0.960 . S
H982 C981 0.960 . S
H983 N963 0.862 . S
O984 Co952 1.920 . S
O984 C957 1.289 . S
C985 O977 1.258 . S
C985 O978 1.266 . S
Co986 O989 1.970 . S
Co986 N1003 1.989 . S
Co986 O1011 1.967 . S
Co986 O1018 1.920 . S
Co987 O990 1.966 . S
Co987 N996 2.022 . S
Co987 N1004 1.993 . S
Co987 O1012 1.941 . S
C988 O989 1.258 . S
C988 O990 1.263 . S
O989 Co986 1.970 . S
O989 C988 1.258 . S
O990 Co987 1.966 . S
O990 C988 1.263 . S
C991 O992 1.235 . S
C991 O1018 1.289 . S
O992 C991 1.235 . S
C993 C995 1.400 . S
C993 N996 1.351 . S
C993 C998 1.501 . S
C994 C995 1.387 . S
C994 N997 1.341 . S
C995 C993 1.400 . S
C995 C994 1.387 . S
N996 Co987 2.022 . S
N996 C993 1.351 . S
N996 N997 1.365 . S
N997 C994 1.341 . S
N997 N996 1.365 . S
N997 H1017 0.862 . S
C998 C993 1.501 . S
C998 H999 0.961 . S
C998 H1000 0.961 . S
C998 H1001 0.960 . S
H999 C998 0.961 . S
H1000 C998 0.961 . S
H1001 C998 0.960 . S
C1002 N1003 1.342 . S
C1002 C1006 1.401 . S
C1002 C1007 1.499 . S
N1003 Co986 1.989 . S
N1003 C1002 1.342 . S
N1003 N1004 1.388 . S
N1004 Co987 1.993 . S
N1004 N1003 1.388 . S
N1004 C1005 1.346 . S
C1005 N1004 1.346 . S
C1005 C1006 1.396 . S
C1005 C1015 1.510 . S
C1006 C1002 1.401 . S
C1006 C1005 1.396 . S
C1007 C1002 1.499 . S
C1007 H1008 0.959 . S
C1007 H1009 0.960 . S
C1007 H1010 0.961 . S
H1008 C1007 0.959 . S
H1009 C1007 0.960 . S
H1010 C1007 0.961 . S
O1011 Co986 1.967 . S
O1011 C1019 1.258 . S
O1012 Co987 1.941 . S
O1012 C1019 1.266 . S
H1013 C1015 0.959 . S
H1014 C1015 0.961 . S
C1015 C1005 1.510 . S
C1015 H1013 0.959 . S
C1015 H1014 0.961 . S
C1015 H1016 0.960 . S
H1016 C1015 0.960 . S
H1017 N997 0.862 . S
O1018 Co986 1.920 . S
O1018 C991 1.289 . S
C1019 O1011 1.258 . S
C1019 O1012 1.266 . S
Co1020 O1023 1.970 . S
Co1020 N1037 1.989 . S
Co1020 O1045 1.967 . S
Co1020 O1052 1.920 . S
Co1021 O1024 1.966 . S
Co1021 N1030 2.022 1_655 S
Co1021 N1038 1.990 1_655 S
Co1021 O1046 1.941 . S
C1022 O1023 1.258 . S
C1022 O1024 1.263 . S
O1023 Co1020 1.970 . S
O1023 C1022 1.258 . S
O1024 Co1021 1.966 . S
O1024 C1022 1.263 . S
C1025 O1026 1.235 . S
C1025 O1052 1.289 . S
O1026 C1025 1.235 . S
C1027 C1029 1.400 . S
C1027 N1030 1.351 . S
C1027 C1032 1.501 . S
C1028 C1029 1.387 . S
C1028 N1031 1.341 . S
C1029 C1027 1.400 . S
C1029 C1028 1.387 . S
N1030 Co1021 2.022 1_455 S
N1030 C1027 1.351 . S
N1030 N1031 1.365 . S
N1031 C1028 1.341 . S
N1031 N1030 1.365 . S
N1031 H1051 0.862 1_455 S
C1032 C1027 1.501 . S
C1032 H1033 0.961 . S
C1032 H1034 0.961 . S
C1032 H1035 0.960 . S
H1033 C1032 0.961 . S
H1034 C1032 0.961 . S
H1035 C1032 0.960 . S
C1036 N1037 1.342 . S
C1036 C1040 1.401 1_655 S
C1036 C1041 1.499 . S
N1037 Co1020 1.989 . S
N1037 C1036 1.342 . S
N1037 N1038 1.383 1_655 S
N1038 Co1021 1.990 1_455 S
N1038 N1037 1.383 1_455 S
N1038 C1039 1.352 . S
C1039 N1038 1.352 . S
C1039 C1040 1.396 . S
C1039 C1049 1.510 . S
C1040 C1036 1.401 1_455 S
C1040 C1039 1.396 . S
C1041 C1036 1.499 . S
C1041 H1042 0.959 . S
C1041 H1043 0.990 . S
C1041 H1044 0.961 . S
H1042 C1041 0.959 . S
H1043 C1041 0.990 . S
H1044 C1041 0.961 . S
O1045 Co1020 1.967 . S
O1045 C1053 1.258 . S
O1046 Co1021 1.941 . S
O1046 C1053 1.266 . S
H1047 C1049 0.959 . S
H1048 C1049 0.961 . S
C1049 C1039 1.510 . S
C1049 H1047 0.959 . S
C1049 H1048 0.961 . S
C1049 H1050 0.960 . S
H1050 C1049 0.960 . S
H1051 N1031 0.862 1_655 S
O1052 Co1020 1.920 . S
O1052 C1025 1.289 . S
C1053 O1045 1.258 . S
C1053 O1046 1.266 . S
Co1054 O1057 1.970 . S
Co1054 N1071 1.989 . S
Co1054 O1079 1.967 . S
Co1054 O1086 1.920 . S
Co1055 O1058 1.966 . S
Co1055 N1064 2.022 . S
Co1055 N1072 1.993 . S
Co1055 O1080 1.941 . S
C1056 O1057 1.258 . S
C1056 O1058 1.263 . S
O1057 Co1054 1.970 . S
O1057 C1056 1.258 . S
O1058 Co1055 1.966 . S
O1058 C1056 1.263 . S
C1059 O1060 1.235 . S
C1059 O1086 1.289 . S
O1060 C1059 1.235 . S
C1061 C1063 1.400 . S
C1061 N1064 1.351 . S
C1061 C1066 1.501 . S
C1062 C1063 1.387 . S
C1062 N1065 1.341 . S
C1063 C1061 1.400 . S
C1063 C1062 1.387 . S
N1064 Co1055 2.022 . S
N1064 C1061 1.351 . S
N1064 N1065 1.365 . S
N1065 C1062 1.341 . S
N1065 N1064 1.365 . S
N1065 H1085 0.862 . S
C1066 C1061 1.501 . S
C1066 H1067 0.961 . S
C1066 H1068 0.961 . S
C1066 H1069 0.960 . S
H1067 C1066 0.961 . S
H1068 C1066 0.961 . S
H1069 C1066 0.960 . S
C1070 N1071 1.342 . S
C1070 C1074 1.401 . S
C1070 C1075 1.499 . S
N1071 Co1054 1.989 . S
N1071 C1070 1.342 . S
N1071 N1072 1.388 . S
N1072 Co1055 1.993 . S
N1072 N1071 1.388 . S
N1072 C1073 1.346 . S
C1073 N1072 1.346 . S
C1073 C1074 1.396 . S
C1073 C1083 1.510 . S
C1074 C1070 1.401 . S
C1074 C1073 1.396 . S
C1075 C1070 1.499 . S
C1075 H1076 0.959 . S
C1075 H1077 0.960 . S
C1075 H1078 0.961 . S
H1076 C1075 0.959 . S
H1077 C1075 0.960 . S
H1078 C1075 0.961 . S
O1079 Co1054 1.967 . S
O1079 C1087 1.258 . S
O1080 Co1055 1.941 . S
O1080 C1087 1.266 . S
H1081 C1083 0.959 . S
H1082 C1083 0.961 . S
C1083 C1073 1.510 . S
C1083 H1081 0.959 . S
C1083 H1082 0.961 . S
C1083 H1084 0.960 . S
H1084 C1083 0.960 . S
H1085 N1065 0.862 . S
O1086 Co1054 1.920 . S
O1086 C1059 1.289 . S
C1087 O1079 1.258 . S
C1087 O1080 1.266 . S
Co1088 O1091 1.970 . S
Co1088 N1105 1.989 . S
Co1088 O1113 1.967 . S
Co1088 O1120 1.920 . S
Co1089 O1092 1.966 . S
Co1089 N1098 2.022 . S
Co1089 N1106 1.993 . S
Co1089 O1114 1.941 . S
C1090 O1091 1.258 . S
C1090 O1092 1.263 . S
O1091 Co1088 1.970 . S
O1091 C1090 1.258 . S
O1092 Co1089 1.966 . S
O1092 C1090 1.263 . S
C1093 O1094 1.235 . S
C1093 O1120 1.289 . S
O1094 C1093 1.235 . S
C1095 C1097 1.400 . S
C1095 N1098 1.351 . S
C1095 C1100 1.501 . S
C1096 C1097 1.387 . S
C1096 N1099 1.341 . S
C1097 C1095 1.400 . S
C1097 C1096 1.387 . S
N1098 Co1089 2.022 . S
N1098 C1095 1.351 . S
N1098 N1099 1.365 . S
N1099 C1096 1.341 . S
N1099 N1098 1.365 . S
N1099 H1119 0.862 . S
C1100 C1095 1.501 . S
C1100 H1101 0.961 . S
C1100 H1102 0.961 . S
C1100 H1103 0.960 . S
H1101 C1100 0.961 . S
H1102 C1100 0.961 . S
H1103 C1100 0.960 . S
C1104 N1105 1.342 . S
C1104 C1108 1.401 . S
C1104 C1109 1.499 . S
N1105 Co1088 1.989 . S
N1105 C1104 1.342 . S
N1105 N1106 1.388 . S
N1106 Co1089 1.993 . S
N1106 N1105 1.388 . S
N1106 C1107 1.346 . S
C1107 N1106 1.346 . S
C1107 C1108 1.396 . S
C1107 C1117 1.510 . S
C1108 C1104 1.401 . S
C1108 C1107 1.396 . S
C1109 C1104 1.499 . S
C1109 H1110 0.959 . S
C1109 H1111 0.960 . S
C1109 H1112 0.961 . S
H1110 C1109 0.959 . S
H1111 C1109 0.960 . S
H1112 C1109 0.961 . S
O1113 Co1088 1.967 . S
O1113 C1121 1.258 . S
O1114 Co1089 1.941 . S
O1114 C1121 1.266 . S
H1115 C1117 0.959 . S
H1116 C1117 0.961 . S
C1117 C1107 1.510 . S
C1117 H1115 0.959 . S
C1117 H1116 0.961 . S
C1117 H1118 0.960 . S
H1118 C1117 0.960 . S
H1119 N1099 0.862 . S
O1120 Co1088 1.920 . S
O1120 C1093 1.289 . S
C1121 O1113 1.258 . S
C1121 O1114 1.266 . S
Co1122 O1125 1.970 . S
Co1122 N1139 1.989 . S
Co1122 O1147 1.967 . S
Co1122 O1154 1.920 . S
Co1123 O1126 1.966 . S
Co1123 N1132 2.022 . S
Co1123 N1140 1.993 . S
Co1123 O1148 1.941 . S
C1124 O1125 1.258 . S
C1124 O1126 1.263 . S
O1125 Co1122 1.970 . S
O1125 C1124 1.258 . S
O1126 Co1123 1.966 . S
O1126 C1124 1.263 . S
C1127 O1128 1.235 . S
C1127 O1154 1.289 . S
O1128 C1127 1.235 . S
C1129 C1131 1.400 . S
C1129 N1132 1.351 . S
C1129 C1134 1.501 . S
C1130 C1131 1.387 . S
C1130 N1133 1.341 . S
C1131 C1129 1.400 . S
C1131 C1130 1.387 . S
N1132 Co1123 2.022 . S
N1132 C1129 1.351 . S
N1132 N1133 1.365 . S
N1133 C1130 1.341 . S
N1133 N1132 1.365 . S
N1133 H1153 0.862 . S
C1134 C1129 1.501 . S
C1134 H1135 0.961 . S
C1134 H1136 0.961 . S
C1134 H1137 0.960 . S
H1135 C1134 0.961 . S
H1136 C1134 0.961 . S
H1137 C1134 0.960 . S
C1138 N1139 1.342 . S
C1138 C1142 1.401 . S
C1138 C1143 1.499 . S
N1139 Co1122 1.989 . S
N1139 C1138 1.342 . S
N1139 N1140 1.388 . S
N1140 Co1123 1.993 . S
N1140 N1139 1.388 . S
N1140 C1141 1.346 . S
C1141 N1140 1.346 . S
C1141 C1142 1.396 . S
C1141 C1151 1.510 . S
C1142 C1138 1.401 . S
C1142 C1141 1.396 . S
C1143 C1138 1.499 . S
C1143 H1144 0.959 . S
C1143 H1145 0.960 . S
C1143 H1146 0.961 . S
H1144 C1143 0.959 . S
H1145 C1143 0.960 . S
H1146 C1143 0.961 . S
O1147 Co1122 1.967 . S
O1147 C1155 1.258 . S
O1148 Co1123 1.941 . S
O1148 C1155 1.266 . S
H1149 C1151 0.959 . S
H1150 C1151 0.961 . S
C1151 C1141 1.510 . S
C1151 H1149 0.959 . S
C1151 H1150 0.961 . S
C1151 H1152 0.960 . S
H1152 C1151 0.960 . S
H1153 N1133 0.862 . S
O1154 Co1122 1.920 . S
O1154 C1127 1.289 . S
C1155 O1147 1.258 . S
C1155 O1148 1.266 . S
Co1156 O1159 1.970 . S
Co1156 N1173 1.989 . S
Co1156 O1181 1.967 . S
Co1156 O1188 1.920 . S
Co1157 O1160 1.966 . S
Co1157 N1166 2.022 . S
Co1157 N1174 1.993 . S
Co1157 O1182 1.941 . S
C1158 O1159 1.258 . S
C1158 O1160 1.263 . S
O1159 Co1156 1.970 . S
O1159 C1158 1.258 . S
O1160 Co1157 1.966 . S
O1160 C1158 1.263 . S
C1161 O1162 1.235 . S
C1161 O1188 1.289 . S
O1162 C1161 1.235 . S
C1163 C1165 1.400 . S
C1163 N1166 1.351 . S
C1163 C1168 1.501 . S
C1164 C1165 1.387 . S
C1164 N1167 1.341 . S
C1165 C1163 1.400 . S
C1165 C1164 1.387 . S
N1166 Co1157 2.022 . S
N1166 C1163 1.351 . S
N1166 N1167 1.365 . S
N1167 C1164 1.341 . S
N1167 N1166 1.365 . S
N1167 H1187 0.862 . S
C1168 C1163 1.501 . S
C1168 H1169 0.961 . S
C1168 H1170 0.961 . S
C1168 H1171 0.960 . S
H1169 C1168 0.961 . S
H1170 C1168 0.961 . S
H1171 C1168 0.960 . S
C1172 N1173 1.342 . S
C1172 C1176 1.401 . S
C1172 C1177 1.499 . S
N1173 Co1156 1.989 . S
N1173 C1172 1.342 . S
N1173 N1174 1.388 . S
N1174 Co1157 1.993 . S
N1174 N1173 1.388 . S
N1174 C1175 1.346 . S
C1175 N1174 1.346 . S
C1175 C1176 1.396 . S
C1175 C1185 1.510 . S
C1176 C1172 1.401 . S
C1176 C1175 1.396 . S
C1177 C1172 1.499 . S
C1177 H1178 0.959 . S
C1177 H1179 0.960 . S
C1177 H1180 0.961 . S
H1178 C1177 0.959 . S
H1179 C1177 0.960 . S
H1180 C1177 0.961 . S
O1181 Co1156 1.967 . S
O1181 C1189 1.258 . S
O1182 Co1157 1.941 . S
O1182 C1189 1.266 . S
H1183 C1185 0.959 . S
H1184 C1185 0.961 . S
C1185 C1175 1.510 . S
C1185 H1183 0.959 . S
C1185 H1184 0.961 . S
C1185 H1186 0.960 . S
H1186 C1185 0.960 . S
H1187 N1167 0.862 . S
O1188 Co1156 1.920 . S
O1188 C1161 1.289 . S
C1189 O1181 1.258 . S
C1189 O1182 1.266 . S
Co1190 O1193 1.970 . S
Co1190 N1207 1.989 . S
Co1190 O1215 1.967 . S
Co1190 O1222 1.920 . S
Co1191 O1194 1.966 . S
Co1191 N1200 2.022 . S
Co1191 N1208 1.993 . S
Co1191 O1216 1.941 . S
C1192 O1193 1.258 . S
C1192 O1194 1.263 . S
O1193 Co1190 1.970 . S
O1193 C1192 1.258 . S
O1194 Co1191 1.966 . S
O1194 C1192 1.263 . S
C1195 O1196 1.235 . S
C1195 O1222 1.289 . S
O1196 C1195 1.235 . S
C1197 C1199 1.400 . S
C1197 N1200 1.351 . S
C1197 C1202 1.501 . S
C1198 C1199 1.387 . S
C1198 N1201 1.341 . S
C1199 C1197 1.400 . S
C1199 C1198 1.387 . S
N1200 Co1191 2.022 . S
N1200 C1197 1.351 . S
N1200 N1201 1.365 . S
N1201 C1198 1.341 . S
N1201 N1200 1.365 . S
N1201 H1221 0.862 . S
C1202 C1197 1.501 . S
C1202 H1203 0.961 . S
C1202 H1204 0.961 . S
C1202 H1205 0.960 . S
H1203 C1202 0.961 . S
H1204 C1202 0.961 . S
H1205 C1202 0.960 . S
C1206 N1207 1.342 . S
C1206 C1210 1.401 . S
C1206 C1211 1.499 . S
N1207 Co1190 1.989 . S
N1207 C1206 1.342 . S
N1207 N1208 1.388 . S
N1208 Co1191 1.993 . S
N1208 N1207 1.388 . S
N1208 C1209 1.346 . S
C1209 N1208 1.346 . S
C1209 C1210 1.396 . S
C1209 C1219 1.510 . S
C1210 C1206 1.401 . S
C1210 C1209 1.396 . S
C1211 C1206 1.499 . S
C1211 H1212 0.959 . S
C1211 H1213 0.960 . S
C1211 H1214 0.961 . S
H1212 C1211 0.959 . S
H1213 C1211 0.960 . S
H1214 C1211 0.961 . S
O1215 Co1190 1.967 . S
O1215 C1223 1.258 . S
O1216 Co1191 1.941 . S
O1216 C1223 1.266 . S
H1217 C1219 0.959 . S
H1218 C1219 0.961 . S
C1219 C1209 1.510 . S
C1219 H1217 0.959 . S
C1219 H1218 0.961 . S
C1219 H1220 0.960 . S
H1220 C1219 0.960 . S
H1221 N1201 0.862 . S
O1222 Co1190 1.920 . S
O1222 C1195 1.289 . S
C1223 O1215 1.258 . S
C1223 O1216 1.266 . S
Co1224 O1227 1.970 . S
Co1224 N1241 1.989 . S
Co1224 O1249 1.967 . S
Co1224 O1256 1.920 . S
Co1225 O1228 1.966 . S
Co1225 N1234 2.022 . S
Co1225 N1242 1.993 . S
Co1225 O1250 1.941 . S
C1226 O1227 1.258 . S
C1226 O1228 1.263 . S
O1227 Co1224 1.970 . S
O1227 C1226 1.258 . S
O1228 Co1225 1.966 . S
O1228 C1226 1.263 . S
C1229 O1230 1.235 . S
C1229 O1256 1.289 . S
O1230 C1229 1.235 . S
C1231 C1233 1.400 . S
C1231 N1234 1.351 . S
C1231 C1236 1.501 . S
C1232 C1233 1.387 . S
C1232 N1235 1.341 . S
C1233 C1231 1.400 . S
C1233 C1232 1.387 . S
N1234 Co1225 2.022 . S
N1234 C1231 1.351 . S
N1234 N1235 1.365 . S
N1235 C1232 1.341 . S
N1235 N1234 1.365 . S
N1235 H1255 0.862 . S
C1236 C1231 1.501 . S
C1236 H1237 0.961 . S
C1236 H1238 0.961 . S
C1236 H1239 0.960 . S
H1237 C1236 0.961 . S
H1238 C1236 0.961 . S
H1239 C1236 0.960 . S
C1240 N1241 1.342 . S
C1240 C1244 1.401 . S
C1240 C1245 1.499 . S
N1241 Co1224 1.989 . S
N1241 C1240 1.342 . S
N1241 N1242 1.388 . S
N1242 Co1225 1.993 . S
N1242 N1241 1.388 . S
N1242 C1243 1.346 . S
C1243 N1242 1.346 . S
C1243 C1244 1.396 . S
C1243 C1253 1.510 . S
C1244 C1240 1.401 . S
C1244 C1243 1.396 . S
C1245 C1240 1.499 . S
C1245 H1246 0.959 . S
C1245 H1247 0.960 . S
C1245 H1248 0.961 . S
H1246 C1245 0.959 . S
H1247 C1245 0.960 . S
H1248 C1245 0.961 . S
O1249 Co1224 1.967 . S
O1249 C1257 1.258 . S
O1250 Co1225 1.941 . S
O1250 C1257 1.266 . S
H1251 C1253 0.959 . S
H1252 C1253 0.961 . S
C1253 C1243 1.510 . S
C1253 H1251 0.959 . S
C1253 H1252 0.961 . S
C1253 H1254 0.960 . S
H1254 C1253 0.960 . S
H1255 N1235 0.862 . S
O1256 Co1224 1.920 . S
O1256 C1229 1.289 . S
C1257 O1249 1.258 . S
C1257 O1250 1.266 . S
Co1258 O1261 1.970 . S
Co1258 N1275 1.989 . S
Co1258 O1283 1.967 . S
Co1258 O1290 1.920 . S
Co1259 O1262 1.966 . S
Co1259 N1268 2.022 . S
Co1259 N1276 1.993 . S
Co1259 O1284 1.941 . S
C1260 O1261 1.258 . S
C1260 O1262 1.263 . S
O1261 Co1258 1.970 . S
O1261 C1260 1.258 . S
O1262 Co1259 1.966 . S
O1262 C1260 1.263 . S
C1263 O1264 1.235 . S
C1263 O1290 1.289 . S
O1264 C1263 1.235 . S
C1265 C1267 1.400 . S
C1265 N1268 1.351 . S
C1265 C1270 1.501 . S
C1266 C1267 1.387 . S
C1266 N1269 1.341 . S
C1267 C1265 1.400 . S
C1267 C1266 1.387 . S
N1268 Co1259 2.022 . S
N1268 C1265 1.351 . S
N1268 N1269 1.365 . S
N1269 C1266 1.341 . S
N1269 N1268 1.365 . S
N1269 H1289 0.862 . S
C1270 C1265 1.501 . S
C1270 H1271 0.961 . S
C1270 H1272 0.961 . S
C1270 H1273 0.960 . S
H1271 C1270 0.961 . S
H1272 C1270 0.961 . S
H1273 C1270 0.960 . S
C1274 N1275 1.342 . S
C1274 C1278 1.401 . S
C1274 C1279 1.499 . S
N1275 Co1258 1.989 . S
N1275 C1274 1.342 . S
N1275 N1276 1.388 . S
N1276 Co1259 1.993 . S
N1276 N1275 1.388 . S
N1276 C1277 1.346 . S
C1277 N1276 1.346 . S
C1277 C1278 1.396 . S
C1277 C1287 1.510 . S
C1278 C1274 1.401 . S
C1278 C1277 1.396 . S
C1279 C1274 1.499 . S
C1279 H1280 0.959 . S
C1279 H1281 0.960 . S
C1279 H1282 0.961 . S
H1280 C1279 0.959 . S
H1281 C1279 0.960 . S
H1282 C1279 0.961 . S
O1283 Co1258 1.967 . S
O1283 C1291 1.258 . S
O1284 Co1259 1.941 . S
O1284 C1291 1.266 . S
H1285 C1287 0.959 . S
H1286 C1287 0.961 . S
C1287 C1277 1.510 . S
C1287 H1285 0.959 . S
C1287 H1286 0.961 . S
C1287 H1288 0.960 . S
H1288 C1287 0.960 . S
H1289 N1269 0.862 . S
O1290 Co1258 1.920 . S
O1290 C1263 1.289 . S
C1291 O1283 1.258 . S
C1291 O1284 1.266 . S
Co1292 O1295 1.970 . S
Co1292 N1309 1.989 . S
Co1292 O1317 1.967 . S
Co1292 O1324 1.920 . S
Co1293 O1296 1.966 . S
Co1293 N1302 2.022 . S
Co1293 N1310 1.993 . S
Co1293 O1318 1.941 . S
C1294 O1295 1.258 . S
C1294 O1296 1.263 . S
O1295 Co1292 1.970 . S
O1295 C1294 1.258 . S
O1296 Co1293 1.966 . S
O1296 C1294 1.263 . S
C1297 O1298 1.235 . S
C1297 O1324 1.289 . S
O1298 C1297 1.235 . S
C1299 C1301 1.400 . S
C1299 N1302 1.351 . S
C1299 C1304 1.501 . S
C1300 C1301 1.387 . S
C1300 N1303 1.341 . S
C1301 C1299 1.400 . S
C1301 C1300 1.387 . S
N1302 Co1293 2.022 . S
N1302 C1299 1.351 . S
N1302 N1303 1.365 . S
N1303 C1300 1.341 . S
N1303 N1302 1.365 . S
N1303 H1323 0.862 . S
C1304 C1299 1.501 . S
C1304 H1305 0.961 . S
C1304 H1306 0.961 . S
C1304 H1307 0.960 . S
H1305 C1304 0.961 . S
H1306 C1304 0.961 . S
H1307 C1304 0.960 . S
C1308 N1309 1.342 . S
C1308 C1312 1.401 . S
C1308 C1313 1.499 . S
N1309 Co1292 1.989 . S
N1309 C1308 1.342 . S
N1309 N1310 1.388 . S
N1310 Co1293 1.993 . S
N1310 N1309 1.388 . S
N1310 C1311 1.346 . S
C1311 N1310 1.346 . S
C1311 C1312 1.396 . S
C1311 C1321 1.510 . S
C1312 C1308 1.401 . S
C1312 C1311 1.396 . S
C1313 C1308 1.499 . S
C1313 H1314 0.959 . S
C1313 H1315 0.960 . S
C1313 H1316 0.961 . S
H1314 C1313 0.959 . S
H1315 C1313 0.960 . S
H1316 C1313 0.961 . S
O1317 Co1292 1.967 . S
O1317 C1325 1.258 . S
O1318 Co1293 1.941 . S
O1318 C1325 1.266 . S
H1319 C1321 0.959 . S
H1320 C1321 0.961 . S
C1321 C1311 1.510 . S
C1321 H1319 0.959 . S
C1321 H1320 0.961 . S
C1321 H1322 0.960 . S
H1322 C1321 0.960 . S
H1323 N1303 0.862 . S
O1324 Co1292 1.920 . S
O1324 C1297 1.289 . S
C1325 O1317 1.258 . S
C1325 O1318 1.266 . S
Co1326 O1329 1.970 . S
Co1326 N1343 1.989 . S
Co1326 O1351 1.967 . S
Co1326 O1358 1.920 . S
Co1327 O1330 1.966 . S
Co1327 N1336 2.022 . S
Co1327 N1344 1.993 . S
Co1327 O1352 1.941 . S
C1328 O1329 1.258 . S
C1328 O1330 1.263 . S
O1329 Co1326 1.970 . S
O1329 C1328 1.258 . S
O1330 Co1327 1.966 . S
O1330 C1328 1.263 . S
C1331 O1332 1.235 . S
C1331 O1358 1.289 . S
O1332 C1331 1.235 . S
C1333 C1335 1.400 . S
C1333 N1336 1.351 . S
C1333 C1338 1.501 . S
C1334 C1335 1.387 . S
C1334 N1337 1.341 . S
C1335 C1333 1.400 . S
C1335 C1334 1.387 . S
N1336 Co1327 2.022 . S
N1336 C1333 1.351 . S
N1336 N1337 1.365 . S
N1337 C1334 1.341 . S
N1337 N1336 1.365 . S
N1337 H1357 0.862 . S
C1338 C1333 1.501 . S
C1338 H1339 0.961 . S
C1338 H1340 0.961 . S
C1338 H1341 0.960 . S
H1339 C1338 0.961 . S
H1340 C1338 0.961 . S
H1341 C1338 0.960 . S
C1342 N1343 1.342 . S
C1342 C1346 1.401 . S
C1342 C1347 1.499 . S
N1343 Co1326 1.989 . S
N1343 C1342 1.342 . S
N1343 N1344 1.388 . S
N1344 Co1327 1.993 . S
N1344 N1343 1.388 . S
N1344 C1345 1.346 . S
C1345 N1344 1.346 . S
C1345 C1346 1.396 . S
C1345 C1355 1.510 . S
C1346 C1342 1.401 . S
C1346 C1345 1.396 . S
C1347 C1342 1.499 . S
C1347 H1348 0.959 . S
C1347 H1349 0.960 . S
C1347 H1350 0.961 . S
H1348 C1347 0.959 . S
H1349 C1347 0.960 . S
H1350 C1347 0.961 . S
O1351 Co1326 1.967 . S
O1351 C1359 1.258 . S
O1352 Co1327 1.941 . S
O1352 C1359 1.266 . S
H1353 C1355 0.959 . S
H1354 C1355 0.961 . S
C1355 C1345 1.510 . S
C1355 H1353 0.959 . S
C1355 H1354 0.961 . S
C1355 H1356 0.960 . S
H1356 C1355 0.960 . S
H1357 N1337 0.862 . S
O1358 Co1326 1.920 . S
O1358 C1331 1.289 . S
C1359 O1351 1.258 . S
C1359 O1352 1.266 . S
Co1360 O1363 1.970 . S
Co1360 N1377 1.989 . S
Co1360 O1385 1.967 . S
Co1360 O1392 1.920 . S
Co1361 O1364 1.966 . S
Co1361 N1370 2.022 . S
Co1361 N1378 1.993 . S
Co1361 O1386 1.941 . S
C1362 O1363 1.258 . S
C1362 O1364 1.263 . S
O1363 Co1360 1.970 . S
O1363 C1362 1.258 . S
O1364 Co1361 1.966 . S
O1364 C1362 1.263 . S
C1365 O1366 1.235 . S
C1365 O1392 1.289 . S
O1366 C1365 1.235 . S
C1367 C1369 1.400 . S
C1367 N1370 1.351 . S
C1367 C1372 1.501 . S
C1368 C1369 1.387 . S
C1368 N1371 1.341 . S
C1369 C1367 1.400 . S
C1369 C1368 1.387 . S
N1370 Co1361 2.022 . S
N1370 C1367 1.351 . S
N1370 N1371 1.365 . S
N1371 C1368 1.341 . S
N1371 N1370 1.365 . S
N1371 H1391 0.862 . S
C1372 C1367 1.501 . S
C1372 H1373 0.961 . S
C1372 H1374 0.961 . S
C1372 H1375 0.960 . S
H1373 C1372 0.961 . S
H1374 C1372 0.961 . S
H1375 C1372 0.960 . S
C1376 N1377 1.342 . S
C1376 C1380 1.401 . S
C1376 C1381 1.499 . S
N1377 Co1360 1.989 . S
N1377 C1376 1.342 . S
N1377 N1378 1.388 . S
N1378 Co1361 1.993 . S
N1378 N1377 1.388 . S
N1378 C1379 1.346 . S
C1379 N1378 1.346 . S
C1379 C1380 1.396 . S
C1379 C1389 1.510 . S
C1380 C1376 1.401 . S
C1380 C1379 1.396 . S
C1381 C1376 1.499 . S
C1381 H1382 0.959 . S
C1381 H1383 0.960 . S
C1381 H1384 0.961 . S
H1382 C1381 0.959 . S
H1383 C1381 0.960 . S
H1384 C1381 0.961 . S
O1385 Co1360 1.967 . S
O1385 C1393 1.258 . S
O1386 Co1361 1.941 . S
O1386 C1393 1.266 . S
H1387 C1389 0.959 . S
H1388 C1389 0.961 . S
C1389 C1379 1.510 . S
C1389 H1387 0.959 . S
C1389 H1388 0.961 . S
C1389 H1390 0.960 . S
H1390 C1389 0.960 . S
H1391 N1371 0.862 . S
O1392 Co1360 1.920 . S
O1392 C1365 1.289 . S
C1393 O1385 1.258 . S
C1393 O1386 1.266 . S
Co1394 O1397 1.970 . S
Co1394 N1411 1.989 . S
Co1394 O1419 1.967 . S
Co1394 O1426 1.920 . S
Co1395 O1398 1.966 . S
Co1395 N1404 2.022 . S
Co1395 N1412 1.993 . S
Co1395 O1420 1.941 . S
C1396 O1397 1.258 . S
C1396 O1398 1.263 . S
O1397 Co1394 1.970 . S
O1397 C1396 1.258 . S
O1398 Co1395 1.966 . S
O1398 C1396 1.263 . S
C1399 O1400 1.235 . S
C1399 O1426 1.289 . S
O1400 C1399 1.235 . S
C1401 C1403 1.400 . S
C1401 N1404 1.351 . S
C1401 C1406 1.501 . S
C1402 C1403 1.387 . S
C1402 N1405 1.341 . S
C1403 C1401 1.400 . S
C1403 C1402 1.387 . S
N1404 Co1395 2.022 . S
N1404 C1401 1.351 . S
N1404 N1405 1.365 . S
N1405 C1402 1.341 . S
N1405 N1404 1.365 . S
N1405 H1425 0.862 . S
C1406 C1401 1.501 . S
C1406 H1407 0.961 . S
C1406 H1408 0.961 . S
C1406 H1409 0.960 . S
H1407 C1406 0.961 . S
H1408 C1406 0.961 . S
H1409 C1406 0.960 . S
C1410 N1411 1.342 . S
C1410 C1414 1.401 . S
C1410 C1415 1.499 . S
N1411 Co1394 1.989 . S
N1411 C1410 1.342 . S
N1411 N1412 1.388 . S
N1412 Co1395 1.993 . S
N1412 N1411 1.388 . S
N1412 C1413 1.346 . S
C1413 N1412 1.346 . S
C1413 C1414 1.396 . S
C1413 C1423 1.510 . S
C1414 C1410 1.401 . S
C1414 C1413 1.396 . S
C1415 C1410 1.499 . S
C1415 H1416 0.959 . S
C1415 H1417 0.960 . S
C1415 H1418 0.961 . S
H1416 C1415 0.959 . S
H1417 C1415 0.960 . S
H1418 C1415 0.961 . S
O1419 Co1394 1.967 . S
O1419 C1427 1.258 . S
O1420 Co1395 1.941 . S
O1420 C1427 1.266 . S
H1421 C1423 0.959 . S
H1422 C1423 0.961 . S
C1423 C1413 1.510 . S
C1423 H1421 0.959 . S
C1423 H1422 0.961 . S
C1423 H1424 0.960 . S
H1424 C1423 0.960 . S
H1425 N1405 0.862 . S
O1426 Co1394 1.920 . S
O1426 C1399 1.289 . S
C1427 O1419 1.258 . S
C1427 O1420 1.266 . S
Co1428 O1431 1.970 . S
Co1428 N1445 1.989 . S
Co1428 O1453 1.967 . S
Co1428 O1460 1.920 . S
Co1429 O1432 1.966 . S
Co1429 N1438 2.022 . S
Co1429 N1446 1.993 . S
Co1429 O1454 1.941 . S
C1430 O1431 1.258 . S
C1430 O1432 1.263 . S
O1431 Co1428 1.970 . S
O1431 C1430 1.258 . S
O1432 Co1429 1.966 . S
O1432 C1430 1.263 . S
C1433 O1434 1.235 . S
C1433 O1460 1.289 . S
O1434 C1433 1.235 . S
C1435 C1437 1.400 . S
C1435 N1438 1.351 . S
C1435 C1440 1.501 . S
C1436 C1437 1.387 . S
C1436 N1439 1.341 . S
C1437 C1435 1.400 . S
C1437 C1436 1.387 . S
N1438 Co1429 2.022 . S
N1438 C1435 1.351 . S
N1438 N1439 1.365 . S
N1439 C1436 1.341 . S
N1439 N1438 1.365 . S
N1439 H1459 0.862 . S
C1440 C1435 1.501 . S
C1440 H1441 0.961 . S
C1440 H1442 0.961 . S
C1440 H1443 0.960 . S
H1441 C1440 0.961 . S
H1442 C1440 0.961 . S
H1443 C1440 0.960 . S
C1444 N1445 1.342 . S
C1444 C1448 1.401 . S
C1444 C1449 1.499 . S
N1445 Co1428 1.989 . S
N1445 C1444 1.342 . S
N1445 N1446 1.388 . S
N1446 Co1429 1.993 . S
N1446 N1445 1.388 . S
N1446 C1447 1.346 . S
C1447 N1446 1.346 . S
C1447 C1448 1.396 . S
C1447 C1457 1.510 . S
C1448 C1444 1.401 . S
C1448 C1447 1.396 . S
C1449 C1444 1.499 . S
C1449 H1450 0.959 . S
C1449 H1451 0.960 . S
C1449 H1452 0.961 . S
H1450 C1449 0.959 . S
H1451 C1449 0.960 . S
H1452 C1449 0.961 . S
O1453 Co1428 1.967 . S
O1453 C1461 1.258 . S
O1454 Co1429 1.941 . S
O1454 C1461 1.266 . S
H1455 C1457 0.959 . S
H1456 C1457 0.961 . S
C1457 C1447 1.510 . S
C1457 H1455 0.959 . S
C1457 H1456 0.961 . S
C1457 H1458 0.960 . S
H1458 C1457 0.960 . S
H1459 N1439 0.862 . S
O1460 Co1428 1.920 . S
O1460 C1433 1.289 . S
C1461 O1453 1.258 . S
C1461 O1454 1.266 . S
Co1462 O1465 1.970 . S
Co1462 N1479 1.989 . S
Co1462 O1487 1.967 . S
Co1462 O1494 1.920 . S
Co1463 O1466 1.966 . S
Co1463 N1472 2.022 1_556 S
Co1463 N1480 1.990 1_556 S
Co1463 O1488 1.941 . S
C1464 O1465 1.258 . S
C1464 O1466 1.263 . S
O1465 Co1462 1.970 . S
O1465 C1464 1.258 . S
O1466 Co1463 1.966 . S
O1466 C1464 1.263 . S
C1467 O1468 1.235 . S
C1467 O1494 1.289 . S
O1468 C1467 1.235 . S
C1469 C1471 1.400 . S
C1469 N1472 1.351 . S
C1469 C1474 1.501 . S
C1470 C1471 1.387 . S
C1470 N1473 1.341 . S
C1471 C1469 1.400 . S
C1471 C1470 1.387 . S
N1472 Co1463 2.022 1_554 S
N1472 C1469 1.351 . S
N1472 N1473 1.365 . S
N1473 C1470 1.341 . S
N1473 N1472 1.365 . S
N1473 H1493 0.862 1_554 S
C1474 C1469 1.501 . S
C1474 H1475 0.961 . S
C1474 H1476 0.961 . S
C1474 H1477 0.960 . S
H1475 C1474 0.961 . S
H1476 C1474 0.961 . S
H1477 C1474 0.960 . S
C1478 N1479 1.342 . S
C1478 C1482 1.401 1_556 S
C1478 C1483 1.499 . S
N1479 Co1462 1.989 . S
N1479 C1478 1.342 . S
N1479 N1480 1.383 1_556 S
N1480 Co1463 1.990 1_554 S
N1480 N1479 1.383 1_554 S
N1480 C1481 1.352 . S
C1481 N1480 1.352 . S
C1481 C1482 1.396 . S
C1481 C1491 1.510 . S
C1482 C1478 1.401 1_554 S
C1482 C1481 1.396 . S
C1483 C1478 1.499 . S
C1483 H1484 0.959 . S
C1483 H1485 0.990 . S
C1483 H1486 0.961 . S
H1484 C1483 0.959 . S
H1485 C1483 0.990 . S
H1486 C1483 0.961 . S
O1487 Co1462 1.967 . S
O1487 C1495 1.258 . S
O1488 Co1463 1.941 . S
O1488 C1495 1.266 . S
H1489 C1491 0.959 . S
H1490 C1491 0.961 . S
C1491 C1481 1.510 . S
C1491 H1489 0.959 . S
C1491 H1490 0.961 . S
C1491 H1492 0.960 . S
H1492 C1491 0.960 . S
H1493 N1473 0.862 1_556 S
O1494 Co1462 1.920 . S
O1494 C1467 1.289 . S
C1495 O1487 1.258 . S
C1495 O1488 1.266 . S
Co1496 O1499 1.970 . S
Co1496 N1513 1.989 . S
Co1496 O1521 1.967 . S
Co1496 O1528 1.920 . S
Co1497 O1500 1.966 . S
Co1497 N1506 2.022 . S
Co1497 N1514 1.993 . S
Co1497 O1522 1.941 . S
C1498 O1499 1.258 . S
C1498 O1500 1.263 . S
O1499 Co1496 1.970 . S
O1499 C1498 1.258 . S
O1500 Co1497 1.966 . S
O1500 C1498 1.263 . S
C1501 O1502 1.235 . S
C1501 O1528 1.289 . S
O1502 C1501 1.235 . S
C1503 C1505 1.400 . S
C1503 N1506 1.351 . S
C1503 C1508 1.501 . S
C1504 C1505 1.387 . S
C1504 N1507 1.341 . S
C1505 C1503 1.400 . S
C1505 C1504 1.387 . S
N1506 Co1497 2.022 . S
N1506 C1503 1.351 . S
N1506 N1507 1.365 . S
N1507 C1504 1.341 . S
N1507 N1506 1.365 . S
N1507 H1527 0.862 . S
C1508 C1503 1.501 . S
C1508 H1509 0.961 . S
C1508 H1510 0.961 . S
C1508 H1511 0.960 . S
H1509 C1508 0.961 . S
H1510 C1508 0.961 . S
H1511 C1508 0.960 . S
C1512 N1513 1.342 . S
C1512 C1516 1.401 . S
C1512 C1517 1.499 . S
N1513 Co1496 1.989 . S
N1513 C1512 1.342 . S
N1513 N1514 1.388 . S
N1514 Co1497 1.993 . S
N1514 N1513 1.388 . S
N1514 C1515 1.346 . S
C1515 N1514 1.346 . S
C1515 C1516 1.396 . S
C1515 C1525 1.510 . S
C1516 C1512 1.401 . S
C1516 C1515 1.396 . S
C1517 C1512 1.499 . S
C1517 H1518 0.959 . S
C1517 H1519 0.960 . S
C1517 H1520 0.961 . S
H1518 C1517 0.959 . S
H1519 C1517 0.960 . S
H1520 C1517 0.961 . S
O1521 Co1496 1.967 . S
O1521 C1529 1.258 . S
O1522 Co1497 1.941 . S
O1522 C1529 1.266 . S
H1523 C1525 0.959 . S
H1524 C1525 0.961 . S
C1525 C1515 1.510 . S
C1525 H1523 0.959 . S
C1525 H1524 0.961 . S
C1525 H1526 0.960 . S
H1526 C1525 0.960 . S
H1527 N1507 0.862 . S
O1528 Co1496 1.920 . S
O1528 C1501 1.289 . S
C1529 O1521 1.258 . S
C1529 O1522 1.266 . S
Co1530 O1533 1.970 . S
Co1530 N1547 1.989 . S
Co1530 O1555 1.967 . S
Co1530 O1562 1.920 . S
Co1531 O1534 1.966 . S
Co1531 N1540 2.022 1_554 S
Co1531 N1548 1.990 1_554 S
Co1531 O1556 1.941 . S
C1532 O1533 1.258 . S
C1532 O1534 1.263 . S
O1533 Co1530 1.970 . S
O1533 C1532 1.258 . S
O1534 Co1531 1.966 . S
O1534 C1532 1.263 . S
C1535 O1536 1.235 . S
C1535 O1562 1.289 . S
O1536 C1535 1.235 . S
C1537 C1539 1.400 . S
C1537 N1540 1.351 . S
C1537 C1542 1.501 . S
C1538 C1539 1.387 . S
C1538 N1541 1.341 . S
C1539 C1537 1.400 . S
C1539 C1538 1.387 . S
N1540 Co1531 2.022 1_556 S
N1540 C1537 1.351 . S
N1540 N1541 1.365 . S
N1541 C1538 1.341 . S
N1541 N1540 1.365 . S
N1541 H1561 0.862 1_556 S
C1542 C1537 1.501 . S
C1542 H1543 0.961 . S
C1542 H1544 0.961 . S
C1542 H1545 0.960 . S
H1543 C1542 0.961 . S
H1544 C1542 0.961 . S
H1545 C1542 0.960 . S
C1546 N1547 1.342 . S
C1546 C1550 1.401 1_554 S
C1546 C1551 1.499 . S
N1547 Co1530 1.989 . S
N1547 C1546 1.342 . S
N1547 N1548 1.383 1_554 S
N1548 Co1531 1.990 1_556 S
N1548 N1547 1.383 1_556 S
N1548 C1549 1.352 . S
C1549 N1548 1.352 . S
C1549 C1550 1.396 . S
C1549 C1559 1.510 . S
C1550 C1546 1.401 1_556 S
C1550 C1549 1.396 . S
C1551 C1546 1.499 . S
C1551 H1552 0.959 . S
C1551 H1553 0.990 . S
C1551 H1554 0.961 . S
H1552 C1551 0.959 . S
H1553 C1551 0.990 . S
H1554 C1551 0.961 . S
O1555 Co1530 1.967 . S
O1555 C1563 1.258 . S
O1556 Co1531 1.941 . S
O1556 C1563 1.266 . S
H1557 C1559 0.959 . S
H1558 C1559 0.961 . S
C1559 C1549 1.510 . S
C1559 H1557 0.959 . S
C1559 H1558 0.961 . S
C1559 H1560 0.960 . S
H1560 C1559 0.960 . S
H1561 N1541 0.862 1_554 S
O1562 Co1530 1.920 . S
O1562 C1535 1.289 . S
C1563 O1555 1.258 . S
C1563 O1556 1.266 . S
Co1564 O1567 1.970 . S
Co1564 N1581 1.989 . S
Co1564 O1589 1.967 . S
Co1564 O1596 1.920 . S
Co1565 O1568 1.966 . S
Co1565 N1574 2.022 . S
Co1565 N1582 1.993 . S
Co1565 O1590 1.941 . S
C1566 O1567 1.258 . S
C1566 O1568 1.263 . S
O1567 Co1564 1.970 . S
O1567 C1566 1.258 . S
O1568 Co1565 1.966 . S
O1568 C1566 1.263 . S
C1569 O1570 1.235 . S
C1569 O1596 1.289 . S
O1570 C1569 1.235 . S
C1571 C1573 1.400 . S
C1571 N1574 1.351 . S
C1571 C1576 1.501 . S
C1572 C1573 1.387 . S
C1572 N1575 1.341 . S
C1573 C1571 1.400 . S
C1573 C1572 1.387 . S
N1574 Co1565 2.022 . S
N1574 C1571 1.351 . S
N1574 N1575 1.365 . S
N1575 C1572 1.341 . S
N1575 N1574 1.365 . S
N1575 H1595 0.862 . S
C1576 C1571 1.501 . S
C1576 H1577 0.961 . S
C1576 H1578 0.961 . S
C1576 H1579 0.960 . S
H1577 C1576 0.961 . S
H1578 C1576 0.961 . S
H1579 C1576 0.960 . S
C1580 N1581 1.342 . S
C1580 C1584 1.401 . S
C1580 C1585 1.499 . S
N1581 Co1564 1.989 . S
N1581 C1580 1.342 . S
N1581 N1582 1.388 . S
N1582 Co1565 1.993 . S
N1582 N1581 1.388 . S
N1582 C1583 1.346 . S
C1583 N1582 1.346 . S
C1583 C1584 1.396 . S
C1583 C1593 1.510 . S
C1584 C1580 1.401 . S
C1584 C1583 1.396 . S
C1585 C1580 1.499 . S
C1585 H1586 0.959 . S
C1585 H1587 0.960 . S
C1585 H1588 0.961 . S
H1586 C1585 0.959 . S
H1587 C1585 0.960 . S
H1588 C1585 0.961 . S
O1589 Co1564 1.967 . S
O1589 C1597 1.258 . S
O1590 Co1565 1.941 . S
O1590 C1597 1.266 . S
H1591 C1593 0.959 . S
H1592 C1593 0.961 . S
C1593 C1583 1.510 . S
C1593 H1591 0.959 . S
C1593 H1592 0.961 . S
C1593 H1594 0.960 . S
H1594 C1593 0.960 . S
H1595 N1575 0.862 . S
O1596 Co1564 1.920 . S
O1596 C1569 1.289 . S
C1597 O1589 1.258 . S
C1597 O1590 1.266 . S
Co1598 O1601 1.970 . S
Co1598 N1615 1.989 . S
Co1598 O1623 1.967 . S
Co1598 O1630 1.920 . S
Co1599 O1602 1.966 . S
Co1599 N1608 2.022 . S
Co1599 N1616 1.993 . S
Co1599 O1624 1.941 . S
C1600 O1601 1.258 . S
C1600 O1602 1.263 . S
O1601 Co1598 1.970 . S
O1601 C1600 1.258 . S
O1602 Co1599 1.966 . S
O1602 C1600 1.263 . S
C1603 O1604 1.235 . S
C1603 O1630 1.289 . S
O1604 C1603 1.235 . S
C1605 C1607 1.400 . S
C1605 N1608 1.351 . S
C1605 C1610 1.501 . S
C1606 C1607 1.387 . S
C1606 N1609 1.341 . S
C1607 C1605 1.400 . S
C1607 C1606 1.387 . S
N1608 Co1599 2.022 . S
N1608 C1605 1.351 . S
N1608 N1609 1.365 . S
N1609 C1606 1.341 . S
N1609 N1608 1.365 . S
N1609 H1629 0.862 . S
C1610 C1605 1.501 . S
C1610 H1611 0.961 . S
C1610 H1612 0.961 . S
C1610 H1613 0.960 . S
H1611 C1610 0.961 . S
H1612 C1610 0.961 . S
H1613 C1610 0.960 . S
C1614 N1615 1.342 . S
C1614 C1618 1.401 . S
C1614 C1619 1.499 . S
N1615 Co1598 1.989 . S
N1615 C1614 1.342 . S
N1615 N1616 1.388 . S
N1616 Co1599 1.993 . S
N1616 N1615 1.388 . S
N1616 C1617 1.346 . S
C1617 N1616 1.346 . S
C1617 C1618 1.396 . S
C1617 C1627 1.510 . S
C1618 C1614 1.401 . S
C1618 C1617 1.396 . S
C1619 C1614 1.499 . S
C1619 H1620 0.959 . S
C1619 H1621 0.960 . S
C1619 H1622 0.961 . S
H1620 C1619 0.959 . S
H1621 C1619 0.960 . S
H1622 C1619 0.961 . S
O1623 Co1598 1.967 . S
O1623 C1631 1.258 . S
O1624 Co1599 1.941 . S
O1624 C1631 1.266 . S
H1625 C1627 0.959 . S
H1626 C1627 0.961 . S
C1627 C1617 1.510 . S
C1627 H1625 0.959 . S
C1627 H1626 0.961 . S
C1627 H1628 0.960 . S
H1628 C1627 0.960 . S
H1629 N1609 0.862 . S
O1630 Co1598 1.920 . S
O1630 C1603 1.289 . S
C1631 O1623 1.258 . S
C1631 O1624 1.266 . S
H1632 C1640 0.950 . S
H1633 C1645 0.950 . S
H1634 C1642 0.950 . S
H1635 C1644 0.950 . S
H1636 C1646 0.950 . S
H1637 C1648 0.950 . S
H1638 C1650 0.950 . S
H1639 C1651 0.950 . S
C1640 H1632 0.950 . S
C1640 C1641 1.386 . S
C1640 C1642 1.391 . S
C1641 C1640 1.386 . S
C1641 C1645 1.393 . S
C1642 H1634 0.950 . S
C1642 C1640 1.391 . S
C1642 C1643 1.400 . S
C1643 C1642 1.400 . S
C1643 C1644 1.398 . S
C1643 C1649 1.491 . S
C1644 H1635 0.950 . S
C1644 C1643 1.398 . S
C1644 C1645 1.391 . S
C1645 H1633 0.950 . S
C1645 C1641 1.393 . S
C1645 C1644 1.391 . S
C1646 H1636 0.950 . S
C1646 C1647 1.386 . S
C1646 C1648 1.391 . S
C1647 C1646 1.386 . S
C1647 C1651 1.393 . S
C1648 H1637 0.950 . S
C1648 C1646 1.391 . S
C1648 C1649 1.400 . S
C1649 C1643 1.491 . S
C1649 C1648 1.400 . S
C1649 C1650 1.398 . S
C1650 H1638 0.950 . S
C1650 C1649 1.398 . S
C1650 C1651 1.391 . S
C1651 H1639 0.950 . S
C1651 C1647 1.393 . S
C1651 C1650 1.391 . S
H1652 C1660 0.950 . S
H1653 C1665 0.950 . S
H1654 C1662 0.950 . S
H1655 C1664 0.950 . S
H1656 C1666 0.950 . S
H1657 C1668 0.950 . S
H1658 C1670 0.950 . S
H1659 C1671 0.950 . S
C1660 H1652 0.950 . S
C1660 C1661 1.386 . S
C1660 C1662 1.391 . S
C1661 C1660 1.386 . S
C1661 C1665 1.393 . S
C1662 H1654 0.950 . S
C1662 C1660 1.391 . S
C1662 C1663 1.400 . S
C1663 C1662 1.400 . S
C1663 C1664 1.398 . S
C1663 C1669 1.491 . S
C1664 H1655 0.950 . S
C1664 C1663 1.398 . S
C1664 C1665 1.391 . S
C1665 H1653 0.950 . S
C1665 C1661 1.393 . S
C1665 C1664 1.391 . S
C1666 H1656 0.950 . S
C1666 C1667 1.386 . S
C1666 C1668 1.391 . S
C1667 C1666 1.386 . S
C1667 C1671 1.393 . S
C1668 H1657 0.950 . S
C1668 C1666 1.391 . S
C1668 C1669 1.400 . S
C1669 C1663 1.491 . S
C1669 C1668 1.400 . S
C1669 C1670 1.398 . S
C1670 H1658 0.950 . S
C1670 C1669 1.398 . S
C1670 C1671 1.391 . S
C1671 H1659 0.950 . S
C1671 C1667 1.393 . S
C1671 C1670 1.391 . S
H1672 C1680 0.950 . S
H1673 C1685 0.950 . S
H1674 C1682 0.950 . S
H1675 C1684 0.950 . S
H1676 C1686 0.950 . S
H1677 C1688 0.950 . S
H1678 C1690 0.950 . S
H1679 C1691 0.983 . S
C1680 H1672 0.950 . S
C1680 C1681 1.386 . S
C1680 C1682 1.391 . S
C1681 C1680 1.386 . S
C1681 C1685 1.393 . S
C1682 H1674 0.950 . S
C1682 C1680 1.391 . S
C1682 C1683 1.400 . S
C1683 C1682 1.400 . S
C1683 C1684 1.398 . S
C1683 C1689 1.491 . S
C1684 H1675 0.950 . S
C1684 C1683 1.398 . S
C1684 C1685 1.391 . S
C1685 H1673 0.950 . S
C1685 C1681 1.393 . S
C1685 C1684 1.391 . S
C1686 H1676 0.950 . S
C1686 C1687 1.386 . S
C1686 C1688 1.391 . S
C1687 C1686 1.386 . S
C1687 C1691 1.380 1_554 S
C1688 H1677 0.950 . S
C1688 C1686 1.391 . S
C1688 C1689 1.400 . S
C1689 C1683 1.491 . S
C1689 C1688 1.400 . S
C1689 C1690 1.398 . S
C1690 H1678 0.950 . S
C1690 C1689 1.398 . S
C1690 C1691 1.371 1_554 S
C1691 H1679 0.983 . S
C1691 C1687 1.380 1_556 S
C1691 C1690 1.371 1_556 S
H1692 C1700 0.950 . S
H1693 C1705 0.950 . S
H1694 C1702 0.950 . S
H1695 C1704 0.950 . S
H1696 C1706 0.950 . S
H1697 C1708 0.950 . S
H1698 C1710 0.950 . S
H1699 C1711 0.950 . S
C1700 H1692 0.950 . S
C1700 C1701 1.386 . S
C1700 C1702 1.391 . S
C1701 C1700 1.386 . S
C1701 C1705 1.393 . S
C1702 H1694 0.950 . S
C1702 C1700 1.391 . S
C1702 C1703 1.400 . S
C1703 C1702 1.400 . S
C1703 C1704 1.398 . S
C1703 C1709 1.491 . S
C1704 H1695 0.950 . S
C1704 C1703 1.398 . S
C1704 C1705 1.391 . S
C1705 H1693 0.950 . S
C1705 C1701 1.393 . S
C1705 C1704 1.391 . S
C1706 H1696 0.950 . S
C1706 C1707 1.386 . S
C1706 C1708 1.391 . S
C1707 C1706 1.386 . S
C1707 C1711 1.393 . S
C1708 H1697 0.950 . S
C1708 C1706 1.391 . S
C1708 C1709 1.400 . S
C1709 C1703 1.491 . S
C1709 C1708 1.400 . S
C1709 C1710 1.398 . S
C1710 H1698 0.950 . S
C1710 C1709 1.398 . S
C1710 C1711 1.391 . S
C1711 H1699 0.950 . S
C1711 C1707 1.393 . S
C1711 C1710 1.391 . S
H1712 C1720 0.950 . S
H1713 C1725 0.950 . S
H1714 C1722 0.950 . S
H1715 C1724 0.950 . S
H1716 C1726 0.946 1_554 S
H1717 C1728 0.950 . S
H1718 C1730 0.950 . S
H1719 C1731 0.950 . S
C1720 H1712 0.950 . S
C1720 C1721 1.386 . S
C1720 C1722 1.391 . S
C1721 C1720 1.386 . S
C1721 C1725 1.393 . S
C1722 H1714 0.950 . S
C1722 C1720 1.391 . S
C1722 C1723 1.400 . S
C1723 C1722 1.400 . S
C1723 C1724 1.398 . S
C1723 C1729 1.491 . S
C1724 H1715 0.950 . S
C1724 C1723 1.398 . S
C1724 C1725 1.391 . S
C1725 H1713 0.950 . S
C1725 C1721 1.393 . S
C1725 C1724 1.391 . S
C1726 H1716 0.946 1_556 S
C1726 C1727 1.387 . S
C1726 C1728 1.393 . S
C1727 C1726 1.387 . S
C1727 C1731 1.393 . S
C1728 H1717 0.950 . S
C1728 C1726 1.393 . S
C1728 C1729 1.400 . S
C1729 C1723 1.491 . S
C1729 C1728 1.400 . S
C1729 C1730 1.398 . S
C1730 H1718 0.950 . S
C1730 C1729 1.398 . S
C1730 C1731 1.391 . S
C1731 H1719 0.950 . S
C1731 C1727 1.393 . S
C1731 C1730 1.391 . S
H1732 C1740 0.950 . S
H1733 C1745 0.950 . S
H1734 C1742 0.950 . S
H1735 C1744 0.950 . S
H1736 C1746 0.950 . S
H1737 C1748 0.950 . S
H1738 C1750 0.950 . S
H1739 C1751 0.950 . S
C1740 H1732 0.950 . S
C1740 C1741 1.386 . S
C1740 C1742 1.391 . S
C1741 C1740 1.386 . S
C1741 C1745 1.393 . S
C1742 H1734 0.950 . S
C1742 C1740 1.391 . S
C1742 C1743 1.400 . S
C1743 C1742 1.400 . S
C1743 C1744 1.398 . S
C1743 C1749 1.491 . S
C1744 H1735 0.950 . S
C1744 C1743 1.398 . S
C1744 C1745 1.391 . S
C1745 H1733 0.950 . S
C1745 C1741 1.393 . S
C1745 C1744 1.391 . S
C1746 H1736 0.950 . S
C1746 C1747 1.386 . S
C1746 C1748 1.391 . S
C1747 C1746 1.386 . S
C1747 C1751 1.393 . S
C1748 H1737 0.950 . S
C1748 C1746 1.391 . S
C1748 C1749 1.400 . S
C1749 C1743 1.491 . S
C1749 C1748 1.400 . S
C1749 C1750 1.398 . S
C1750 H1738 0.950 . S
C1750 C1749 1.398 . S
C1750 C1751 1.391 . S
C1751 H1739 0.950 . S
C1751 C1747 1.393 . S
C1751 C1750 1.391 . S
H1752 C1760 0.950 . S
H1753 C1765 0.950 . S
H1754 C1762 0.950 . S
H1755 C1764 0.950 . S
H1756 C1766 0.950 . S
H1757 C1768 0.950 . S
H1758 C1770 0.950 . S
H1759 C1771 0.950 . S
C1760 H1752 0.950 . S
C1760 C1761 1.386 . S
C1760 C1762 1.391 . S
C1761 C1760 1.386 . S
C1761 C1765 1.393 . S
C1762 H1754 0.950 . S
C1762 C1760 1.391 . S
C1762 C1763 1.400 . S
C1763 C1762 1.400 . S
C1763 C1764 1.398 . S
C1763 C1769 1.491 . S
C1764 H1755 0.950 . S
C1764 C1763 1.398 . S
C1764 C1765 1.391 . S
C1765 H1753 0.950 . S
C1765 C1761 1.393 . S
C1765 C1764 1.391 . S
C1766 H1756 0.950 . S
C1766 C1767 1.386 . S
C1766 C1768 1.391 . S
C1767 C1766 1.386 . S
C1767 C1771 1.393 . S
C1768 H1757 0.950 . S
C1768 C1766 1.391 . S
C1768 C1769 1.400 . S
C1769 C1763 1.491 . S
C1769 C1768 1.400 . S
C1769 C1770 1.398 . S
C1770 H1758 0.950 . S
C1770 C1769 1.398 . S
C1770 C1771 1.391 . S
C1771 H1759 0.950 . S
C1771 C1767 1.393 . S
C1771 C1770 1.391 . S
H1772 C1780 0.950 . S
H1773 C1785 0.950 . S
H1774 C1782 0.950 . S
H1775 C1784 0.950 . S
H1776 C1786 0.950 . S
H1777 C1788 0.950 . S
H1778 C1790 0.950 . S
H1779 C1791 0.950 . S
C1780 H1772 0.950 . S
C1780 C1781 1.386 . S
C1780 C1782 1.391 . S
C1781 C1780 1.386 . S
C1781 C1785 1.393 . S
C1782 H1774 0.950 . S
C1782 C1780 1.391 . S
C1782 C1783 1.400 . S
C1783 C1782 1.400 . S
C1783 C1784 1.398 . S
C1783 C1789 1.491 . S
C1784 H1775 0.950 . S
C1784 C1783 1.398 . S
C1784 C1785 1.391 . S
C1785 H1773 0.950 . S
C1785 C1781 1.393 . S
C1785 C1784 1.391 . S
C1786 H1776 0.950 . S
C1786 C1787 1.386 . S
C1786 C1788 1.391 . S
C1787 C1786 1.386 . S
C1787 C1791 1.393 . S
C1788 H1777 0.950 . S
C1788 C1786 1.391 . S
C1788 C1789 1.400 . S
C1789 C1783 1.491 . S
C1789 C1788 1.400 . S
C1789 C1790 1.398 . S
C1790 H1778 0.950 . S
C1790 C1789 1.398 . S
C1790 C1791 1.391 . S
C1791 H1779 0.950 . S
C1791 C1787 1.393 . S
C1791 C1790 1.391 . S
H1792 C1800 0.950 . S
H1793 C1805 0.950 . S
H1794 C1802 0.950 . S
H1795 C1804 0.950 . S
H1796 C1806 0.950 . S
H1797 C1808 0.950 . S
H1798 C1810 0.950 . S
H1799 C1811 0.950 . S
C1800 H1792 0.950 . S
C1800 C1801 1.386 . S
C1800 C1802 1.391 . S
C1801 C1800 1.386 . S
C1801 C1805 1.393 . S
C1802 H1794 0.950 . S
C1802 C1800 1.391 . S
C1802 C1803 1.400 . S
C1803 C1802 1.400 . S
C1803 C1804 1.398 . S
C1803 C1809 1.491 . S
C1804 H1795 0.950 . S
C1804 C1803 1.398 . S
C1804 C1805 1.391 . S
C1805 H1793 0.950 . S
C1805 C1801 1.393 . S
C1805 C1804 1.391 . S
C1806 H1796 0.950 . S
C1806 C1807 1.386 . S
C1806 C1808 1.391 . S
C1807 C1806 1.386 . S
C1807 C1811 1.393 . S
C1808 H1797 0.950 . S
C1808 C1806 1.391 . S
C1808 C1809 1.400 . S
C1809 C1803 1.491 . S
C1809 C1808 1.400 . S
C1809 C1810 1.398 . S
C1810 H1798 0.950 . S
C1810 C1809 1.398 . S
C1810 C1811 1.391 . S
C1811 H1799 0.950 . S
C1811 C1807 1.393 . S
C1811 C1810 1.391 . S
H1812 C1820 0.950 . S
H1813 C1825 0.950 . S
H1814 C1822 0.950 . S
H1815 C1824 0.950 . S
H1816 C1826 0.950 . S
H1817 C1828 0.950 . S
H1818 C1830 0.950 . S
H1819 C1831 0.950 . S
C1820 H1812 0.950 . S
C1820 C1821 1.386 . S
C1820 C1822 1.391 . S
C1821 C1820 1.386 . S
C1821 C1825 1.393 . S
C1822 H1814 0.950 . S
C1822 C1820 1.391 . S
C1822 C1823 1.400 . S
C1823 C1822 1.400 . S
C1823 C1824 1.398 . S
C1823 C1829 1.491 . S
C1824 H1815 0.950 . S
C1824 C1823 1.398 . S
C1824 C1825 1.391 . S
C1825 H1813 0.950 . S
C1825 C1821 1.393 . S
C1825 C1824 1.391 . S
C1826 H1816 0.950 . S
C1826 C1827 1.386 . S
C1826 C1828 1.391 . S
C1827 C1826 1.386 . S
C1827 C1831 1.393 . S
C1828 H1817 0.950 . S
C1828 C1826 1.391 . S
C1828 C1829 1.400 . S
C1829 C1823 1.491 . S
C1829 C1828 1.400 . S
C1829 C1830 1.398 . S
C1830 H1818 0.950 . S
C1830 C1829 1.398 . S
C1830 C1831 1.391 . S
C1831 H1819 0.950 . S
C1831 C1827 1.393 . S
C1831 C1830 1.391 . S
H1832 C1840 0.959 . S
H1833 C1845 0.950 . S
H1834 C1842 0.950 . S
H1835 C1844 0.950 . S
H1836 C1846 0.950 . S
H1837 C1848 0.950 . S
H1838 C1850 0.950 . S
H1839 C1851 0.950 . S
C1840 H1832 0.959 . S
C1840 C1841 1.382 1_455 S
C1840 C1842 1.386 1_455 S
C1841 C1840 1.382 1_655 S
C1841 C1845 1.393 . S
C1842 H1834 0.950 . S
C1842 C1840 1.386 1_655 S
C1842 C1843 1.400 . S
C1843 C1842 1.400 . S
C1843 C1844 1.398 . S
C1843 C1849 1.491 . S
C1844 H1835 0.950 . S
C1844 C1843 1.398 . S
C1844 C1845 1.391 . S
C1845 H1833 0.950 . S
C1845 C1841 1.393 . S
C1845 C1844 1.391 . S
C1846 H1836 0.950 . S
C1846 C1847 1.386 . S
C1846 C1848 1.391 . S
C1847 C1846 1.386 . S
C1847 C1851 1.393 . S
C1848 H1837 0.950 . S
C1848 C1846 1.391 . S
C1848 C1849 1.400 . S
C1849 C1843 1.491 . S
C1849 C1848 1.400 . S
C1849 C1850 1.398 . S
C1850 H1838 0.950 . S
C1850 C1849 1.398 . S
C1850 C1851 1.391 . S
C1851 H1839 0.950 . S
C1851 C1847 1.393 . S
C1851 C1850 1.391 . S
H1852 C1860 0.950 . S
H1853 C1865 0.950 . S
H1854 C1862 0.950 . S
H1855 C1864 0.950 . S
H1856 C1866 0.950 . S
H1857 C1868 0.950 . S
H1858 C1870 0.950 . S
H1859 C1871 0.950 . S
C1860 H1852 0.950 . S
C1860 C1861 1.386 . S
C1860 C1862 1.391 . S
C1861 C1860 1.386 . S
C1861 C1865 1.393 . S
C1862 H1854 0.950 . S
C1862 C1860 1.391 . S
C1862 C1863 1.400 . S
C1863 C1862 1.400 . S
C1863 C1864 1.398 . S
C1863 C1869 1.491 . S
C1864 H1855 0.950 . S
C1864 C1863 1.398 . S
C1864 C1865 1.391 . S
C1865 H1853 0.950 . S
C1865 C1861 1.393 . S
C1865 C1864 1.391 . S
C1866 H1856 0.950 . S
C1866 C1867 1.386 . S
C1866 C1868 1.391 . S
C1867 C1866 1.386 . S
C1867 C1871 1.393 . S
C1868 H1857 0.950 . S
C1868 C1866 1.391 . S
C1868 C1869 1.400 . S
C1869 C1863 1.491 . S
C1869 C1868 1.400 . S
C1869 C1870 1.398 . S
C1870 H1858 0.950 . S
C1870 C1869 1.398 . S
C1870 C1871 1.391 . S
C1871 H1859 0.950 . S
C1871 C1867 1.393 . S
C1871 C1870 1.391 . S
H1872 C1880 0.950 . S
H1873 C1885 0.950 . S
H1874 C1882 0.950 . S
H1875 C1884 0.950 . S
H1876 C1886 0.950 . S
H1877 C1888 0.950 . S
H1878 C1890 0.950 . S
H1879 C1891 0.950 . S
C1880 H1872 0.950 . S
C1880 C1881 1.386 . S
C1880 C1882 1.391 . S
C1881 C1880 1.386 . S
C1881 C1885 1.393 . S
C1882 H1874 0.950 . S
C1882 C1880 1.391 . S
C1882 C1883 1.400 . S
C1883 C1882 1.400 . S
C1883 C1884 1.398 . S
C1883 C1889 1.491 . S
C1884 H1875 0.950 . S
C1884 C1883 1.398 . S
C1884 C1885 1.391 . S
C1885 H1873 0.950 . S
C1885 C1881 1.393 . S
C1885 C1884 1.391 . S
C1886 H1876 0.950 . S
C1886 C1887 1.386 . S
C1886 C1888 1.391 . S
C1887 C1886 1.386 . S
C1887 C1891 1.393 . S
C1888 H1877 0.950 . S
C1888 C1886 1.391 . S
C1888 C1889 1.400 . S
C1889 C1883 1.491 . S
C1889 C1888 1.400 . S
C1889 C1890 1.398 . S
C1890 H1878 0.950 . S
C1890 C1889 1.398 . S
C1890 C1891 1.391 . S
C1891 H1879 0.950 . S
C1891 C1887 1.393 . S
C1891 C1890 1.391 . S
H1892 C1900 0.950 . S
H1893 C1905 0.950 . S
H1894 C1902 0.950 . S
H1895 C1904 0.950 . S
H1896 C1906 0.950 . S
H1897 C1908 0.950 . S
H1898 C1910 0.950 . S
H1899 C1911 0.950 . S
C1900 H1892 0.950 . S
C1900 C1901 1.386 . S
C1900 C1902 1.391 . S
C1901 C1900 1.386 . S
C1901 C1905 1.393 . S
C1902 H1894 0.950 . S
C1902 C1900 1.391 . S
C1902 C1903 1.400 . S
C1903 C1902 1.400 . S
C1903 C1904 1.398 . S
C1903 C1909 1.491 . S
C1904 H1895 0.950 . S
C1904 C1903 1.398 . S
C1904 C1905 1.391 . S
C1905 H1893 0.950 . S
C1905 C1901 1.393 . S
C1905 C1904 1.391 . S
C1906 H1896 0.950 . S
C1906 C1907 1.386 . S
C1906 C1908 1.391 . S
C1907 C1906 1.386 . S
C1907 C1911 1.393 . S
C1908 H1897 0.950 . S
C1908 C1906 1.391 . S
C1908 C1909 1.400 . S
C1909 C1903 1.491 . S
C1909 C1908 1.400 . S
C1909 C1910 1.398 . S
C1910 H1898 0.950 . S
C1910 C1909 1.398 . S
C1910 C1911 1.391 . S
C1911 H1899 0.950 . S
C1911 C1907 1.393 . S
C1911 C1910 1.391 . S
H1912 C1920 0.950 . S
H1913 C1925 0.950 1_455 S
H1914 C1922 0.950 . S
H1915 C1924 0.950 . S
H1916 C1926 0.950 . S
H1917 C1928 0.950 . S
H1918 C1930 0.950 . S
H1919 C1931 0.950 . S
C1920 H1912 0.950 . S
C1920 C1921 1.386 . S
C1920 C1922 1.391 . S
C1921 C1920 1.386 . S
C1921 C1925 1.393 . S
C1922 H1914 0.950 . S
C1922 C1920 1.391 . S
C1922 C1923 1.400 . S
C1923 C1922 1.400 . S
C1923 C1924 1.398 . S
C1923 C1929 1.491 . S
C1924 H1915 0.950 . S
C1924 C1923 1.398 . S
C1924 C1925 1.391 . S
C1925 H1913 0.950 1_655 S
C1925 C1921 1.393 . S
C1925 C1924 1.391 . S
C1926 H1916 0.950 . S
C1926 C1927 1.386 . S
C1926 C1928 1.391 . S
C1927 C1926 1.386 . S
C1927 C1931 1.393 . S
C1928 H1917 0.950 . S
C1928 C1926 1.391 . S
C1928 C1929 1.400 . S
C1929 C1923 1.491 . S
C1929 C1928 1.400 . S
C1929 C1930 1.398 . S
C1930 H1918 0.950 . S
C1930 C1929 1.398 . S
C1930 C1931 1.391 . S
C1931 H1919 0.950 . S
C1931 C1927 1.393 . S
C1931 C1930 1.391 . S
H1932 C1940 0.950 . S
H1933 C1945 0.950 . S
H1934 C1942 0.950 . S
H1935 C1944 0.950 . S
H1936 C1946 0.950 . S
H1937 C1948 0.950 . S
H1938 C1950 0.950 . S
H1939 C1951 0.950 . S
C1940 H1932 0.950 . S
C1940 C1941 1.386 . S
C1940 C1942 1.391 . S
C1941 C1940 1.386 . S
C1941 C1945 1.393 . S
C1942 H1934 0.950 . S
C1942 C1940 1.391 . S
C1942 C1943 1.400 . S
C1943 C1942 1.400 . S
C1943 C1944 1.398 . S
C1943 C1949 1.491 . S
C1944 H1935 0.950 . S
C1944 C1943 1.398 . S
C1944 C1945 1.391 . S
C1945 H1933 0.950 . S
C1945 C1941 1.393 . S
C1945 C1944 1.391 . S
C1946 H1936 0.950 . S
C1946 C1947 1.386 . S
C1946 C1948 1.391 . S
C1947 C1946 1.386 . S
C1947 C1951 1.393 . S
C1948 H1937 0.950 . S
C1948 C1946 1.391 . S
C1948 C1949 1.400 . S
C1949 C1943 1.491 . S
C1949 C1948 1.400 . S
C1949 C1950 1.398 . S
C1950 H1938 0.950 . S
C1950 C1949 1.398 . S
C1950 C1951 1.391 . S
C1951 H1939 0.950 . S
C1951 C1947 1.393 . S
C1951 C1950 1.391 . S
H1952 C1960 0.950 . S
H1953 C1965 0.950 . S
H1954 C1962 0.950 . S
H1955 C1964 0.950 . S
H1956 C1966 0.950 . S
H1957 C1968 0.950 . S
H1958 C1970 0.950 . S
H1959 C1971 0.950 . S
C1960 H1952 0.950 . S
C1960 C1961 1.386 . S
C1960 C1962 1.391 . S
C1961 C1960 1.386 . S
C1961 C1965 1.393 . S
C1962 H1954 0.950 . S
C1962 C1960 1.391 . S
C1962 C1963 1.400 . S
C1963 C1962 1.400 . S
C1963 C1964 1.398 . S
C1963 C1969 1.491 . S
C1964 H1955 0.950 . S
C1964 C1963 1.398 . S
C1964 C1965 1.391 . S
C1965 H1953 0.950 . S
C1965 C1961 1.393 . S
C1965 C1964 1.391 . S
C1966 H1956 0.950 . S
C1966 C1967 1.386 . S
C1966 C1968 1.391 . S
C1967 C1966 1.386 . S
C1967 C1971 1.393 . S
C1968 H1957 0.950 . S
C1968 C1966 1.391 . S
C1968 C1969 1.400 . S
C1969 C1963 1.491 . S
C1969 C1968 1.400 . S
C1969 C1970 1.398 . S
C1970 H1958 0.950 . S
C1970 C1969 1.398 . S
C1970 C1971 1.391 . S
C1971 H1959 0.950 . S
C1971 C1967 1.393 . S
C1971 C1970 1.391 . S
H1972 C1980 0.950 . S
H1973 C1985 0.950 . S
H1974 C1982 0.950 . S
H1975 C1984 0.950 . S
H1976 C1986 0.950 . S
H1977 C1988 0.950 . S
H1978 C1990 0.950 . S
H1979 C1991 0.950 . S
C1980 H1972 0.950 . S
C1980 C1981 1.386 1_545 S
C1980 C1982 1.391 1_545 S
C1981 C1980 1.386 1_565 S
C1981 C1985 1.393 . S
C1982 H1974 0.950 . S
C1982 C1980 1.391 1_565 S
C1982 C1983 1.400 . S
C1983 C1982 1.400 . S
C1983 C1984 1.398 . S
C1983 C1989 1.491 . S
C1984 H1975 0.950 . S
C1984 C1983 1.398 . S
C1984 C1985 1.391 . S
C1985 H1973 0.950 . S
C1985 C1981 1.393 . S
C1985 C1984 1.391 . S
C1986 H1976 0.950 . S
C1986 C1987 1.386 . S
C1986 C1988 1.391 . S
C1987 C1986 1.386 . S
C1987 C1991 1.393 . S
C1988 H1977 0.950 . S
C1988 C1986 1.391 . S
C1988 C1989 1.400 . S
C1989 C1983 1.491 . S
C1989 C1988 1.400 . S
C1989 C1990 1.398 . S
C1990 H1978 0.950 . S
C1990 C1989 1.398 . S
C1990 C1991 1.391 . S
C1991 H1979 0.950 . S
C1991 C1987 1.393 . S
C1991 C1990 1.391 . S
H1992 C2000 0.950 . S
H1993 C2005 0.950 . S
H1994 C2002 0.950 . S
H1995 C2004 0.950 . S
H1996 C2006 0.950 . S
H1997 C2008 0.950 . S
H1998 C2010 0.950 . S
H1999 C2011 0.950 . S
C2000 H1992 0.950 . S
C2000 C2001 1.386 . S
C2000 C2002 1.391 . S
C2001 C2000 1.386 . S
C2001 C2005 1.393 . S
C2002 H1994 0.950 . S
C2002 C2000 1.391 . S
C2002 C2003 1.400 . S
C2003 C2002 1.400 . S
C2003 C2004 1.398 . S
C2003 C2009 1.491 . S
C2004 H1995 0.950 . S
C2004 C2003 1.398 . S
C2004 C2005 1.391 . S
C2005 H1993 0.950 . S
C2005 C2001 1.393 . S
C2005 C2004 1.391 . S
C2006 H1996 0.950 . S
C2006 C2007 1.386 . S
C2006 C2008 1.391 . S
C2007 C2006 1.386 . S
C2007 C2011 1.393 . S
C2008 H1997 0.950 . S
C2008 C2006 1.391 . S
C2008 C2009 1.400 . S
C2009 C2003 1.491 . S
C2009 C2008 1.400 . S
C2009 C2010 1.398 . S
C2010 H1998 0.950 . S
C2010 C2009 1.398 . S
C2010 C2011 1.391 . S
C2011 H1999 0.950 . S
C2011 C2007 1.393 . S
C2011 C2010 1.391 . S
H2012 C2020 0.950 . S
H2013 C2025 0.950 . S
H2014 C2022 0.950 . S
H2015 C2024 0.950 . S
H2016 C2026 0.950 1_565 S
H2017 C2028 0.950 . S
H2018 C2030 0.950 . S
H2019 C2031 0.950 . S
C2020 H2012 0.950 . S
C2020 C2021 1.386 . S
C2020 C2022 1.391 . S
C2021 C2020 1.386 . S
C2021 C2025 1.393 . S
C2022 H2014 0.950 . S
C2022 C2020 1.391 . S
C2022 C2023 1.400 . S
C2023 C2022 1.400 . S
C2023 C2024 1.398 . S
C2023 C2029 1.491 . S
C2024 H2015 0.950 . S
C2024 C2023 1.398 . S
C2024 C2025 1.391 . S
C2025 H2013 0.950 . S
C2025 C2021 1.393 . S
C2025 C2024 1.391 . S
C2026 H2016 0.950 1_545 S
C2026 C2027 1.386 . S
C2026 C2028 1.391 . S
C2027 C2026 1.386 . S
C2027 C2031 1.393 . S
C2028 H2017 0.950 . S
C2028 C2026 1.391 . S
C2028 C2029 1.400 . S
C2029 C2023 1.491 . S
C2029 C2028 1.400 . S
C2029 C2030 1.398 . S
C2030 H2018 0.950 . S
C2030 C2029 1.398 . S
C2030 C2031 1.391 . S
C2031 H2019 0.950 . S
C2031 C2027 1.393 . S
C2031 C2030 1.391 . S
H2032 C2040 0.950 . S
H2033 C2045 0.950 . S
H2034 C2042 0.950 . S
H2035 C2044 0.950 . S
H2036 C2046 0.950 . S
H2037 C2048 0.950 . S
H2038 C2050 0.950 . S
H2039 C2051 0.950 . S
C2040 H2032 0.950 . S
C2040 C2041 1.386 . S
C2040 C2042 1.391 . S
C2041 C2040 1.386 . S
C2041 C2045 1.393 . S
C2042 H2034 0.950 . S
C2042 C2040 1.391 . S
C2042 C2043 1.400 . S
C2043 C2042 1.400 . S
C2043 C2044 1.398 . S
C2043 C2049 1.491 . S
C2044 H2035 0.950 . S
C2044 C2043 1.398 . S
C2044 C2045 1.391 . S
C2045 H2033 0.950 . S
C2045 C2041 1.393 . S
C2045 C2044 1.391 . S
C2046 H2036 0.950 . S
C2046 C2047 1.386 . S
C2046 C2048 1.391 . S
C2047 C2046 1.386 . S
C2047 C2051 1.393 . S
C2048 H2037 0.950 . S
C2048 C2046 1.391 . S
C2048 C2049 1.400 . S
C2049 C2043 1.491 . S
C2049 C2048 1.400 . S
C2049 C2050 1.398 . S
C2050 H2038 0.950 . S
C2050 C2049 1.398 . S
C2050 C2051 1.391 . S
C2051 H2039 0.950 . S
C2051 C2047 1.393 . S
C2051 C2050 1.391 . S
H2052 C2060 0.950 . S
H2053 C2065 0.950 . S
H2054 C2062 0.950 . S
H2055 C2064 0.950 . S
H2056 C2066 0.950 . S
H2057 C2068 0.950 . S
H2058 C2070 0.950 . S
H2059 C2071 0.950 . S
C2060 H2052 0.950 . S
C2060 C2061 1.386 . S
C2060 C2062 1.391 . S
C2061 C2060 1.386 . S
C2061 C2065 1.393 . S
C2062 H2054 0.950 . S
C2062 C2060 1.391 . S
C2062 C2063 1.400 . S
C2063 C2062 1.400 . S
C2063 C2064 1.398 . S
C2063 C2069 1.491 . S
C2064 H2055 0.950 . S
C2064 C2063 1.398 . S
C2064 C2065 1.391 . S
C2065 H2053 0.950 . S
C2065 C2061 1.393 . S
C2065 C2064 1.391 . S
C2066 H2056 0.950 . S
C2066 C2067 1.386 . S
C2066 C2068 1.391 . S
C2067 C2066 1.386 . S
C2067 C2071 1.393 . S
C2068 H2057 0.950 . S
C2068 C2066 1.391 . S
C2068 C2069 1.400 . S
C2069 C2063 1.491 . S
C2069 C2068 1.400 . S
C2069 C2070 1.398 . S
C2070 H2058 0.950 . S
C2070 C2069 1.398 . S
C2070 C2071 1.391 . S
C2071 H2059 0.950 . S
C2071 C2067 1.393 . S
C2071 C2070 1.391 . S
H2072 C2080 0.950 . S
H2073 C2085 0.950 . S
H2074 C2082 0.950 . S
H2075 C2084 0.950 . S
H2076 C2086 0.950 . S
H2077 C2088 0.950 . S
H2078 C2090 0.950 . S
H2079 C2091 0.950 . S
C2080 H2072 0.950 . S
C2080 C2081 1.386 . S
C2080 C2082 1.391 . S
C2081 C2080 1.386 . S
C2081 C2085 1.393 . S
C2082 H2074 0.950 . S
C2082 C2080 1.391 . S
C2082 C2083 1.400 . S
C2083 C2082 1.400 . S
C2083 C2084 1.398 . S
C2083 C2089 1.491 . S
C2084 H2075 0.950 . S
C2084 C2083 1.398 . S
C2084 C2085 1.391 . S
C2085 H2073 0.950 . S
C2085 C2081 1.393 . S
C2085 C2084 1.391 . S
C2086 H2076 0.950 . S
C2086 C2087 1.386 . S
C2086 C2088 1.391 . S
C2087 C2086 1.386 . S
C2087 C2091 1.393 . S
C2088 H2077 0.950 . S
C2088 C2086 1.391 . S
C2088 C2089 1.400 . S
C2089 C2083 1.491 . S
C2089 C2088 1.400 . S
C2089 C2090 1.398 . S
C2090 H2078 0.950 . S
C2090 C2089 1.398 . S
C2090 C2091 1.391 . S
C2091 H2079 0.950 . S
C2091 C2087 1.393 . S
C2091 C2090 1.391 . S
H2092 C2100 0.950 . S
H2093 C2105 0.950 . S
H2094 C2102 0.950 . S
H2095 C2104 0.950 . S
H2096 C2106 0.950 . S
H2097 C2108 0.950 . S
H2098 C2110 0.950 . S
H2099 C2111 0.950 . S
C2100 H2092 0.950 . S
C2100 C2101 1.386 . S
C2100 C2102 1.391 . S
C2101 C2100 1.386 . S
C2101 C2105 1.393 . S
C2102 H2094 0.950 . S
C2102 C2100 1.391 . S
C2102 C2103 1.400 . S
C2103 C2102 1.400 . S
C2103 C2104 1.398 . S
C2103 C2109 1.491 . S
C2104 H2095 0.950 . S
C2104 C2103 1.398 . S
C2104 C2105 1.391 . S
C2105 H2093 0.950 . S
C2105 C2101 1.393 . S
C2105 C2104 1.391 . S
C2106 H2096 0.950 . S
C2106 C2107 1.386 . S
C2106 C2108 1.391 . S
C2107 C2106 1.386 . S
C2107 C2111 1.393 . S
C2108 H2097 0.950 . S
C2108 C2106 1.391 . S
C2108 C2109 1.400 . S
C2109 C2103 1.491 . S
C2109 C2108 1.400 . S
C2109 C2110 1.398 . S
C2110 H2098 0.950 . S
C2110 C2109 1.398 . S
C2110 C2111 1.391 . S
C2111 H2099 0.950 . S
C2111 C2107 1.393 . S
C2111 C2110 1.391 . S
H2112 C2120 0.950 . S
H2113 C2125 0.950 . S
H2114 C2122 0.950 . S
H2115 C2124 0.950 . S
H2116 C2126 0.950 . S
H2117 C2128 0.950 . S
H2118 C2130 0.950 . S
H2119 C2131 0.950 1_556 S
C2120 H2112 0.950 . S
C2120 C2121 1.386 . S
C2120 C2122 1.391 . S
C2121 C2120 1.386 . S
C2121 C2125 1.393 . S
C2122 H2114 0.950 . S
C2122 C2120 1.391 . S
C2122 C2123 1.400 . S
C2123 C2122 1.400 . S
C2123 C2124 1.398 . S
C2123 C2129 1.491 . S
C2124 H2115 0.950 . S
C2124 C2123 1.398 . S
C2124 C2125 1.391 . S
C2125 H2113 0.950 . S
C2125 C2121 1.393 . S
C2125 C2124 1.391 . S
C2126 H2116 0.950 . S
C2126 C2127 1.386 . S
C2126 C2128 1.391 . S
C2127 C2126 1.386 . S
C2127 C2131 1.393 . S
C2128 H2117 0.950 . S
C2128 C2126 1.391 . S
C2128 C2129 1.400 . S
C2129 C2123 1.491 . S
C2129 C2128 1.400 . S
C2129 C2130 1.398 . S
C2130 H2118 0.950 . S
C2130 C2129 1.398 . S
C2130 C2131 1.391 . S
C2131 H2119 0.950 1_554 S
C2131 C2127 1.393 . S
C2131 C2130 1.391 . S
H2132 C2140 0.950 . S
H2133 C2145 0.950 . S
H2134 C2142 0.950 . S
H2135 C2144 0.950 . S
H2136 C2146 0.950 . S
H2137 C2148 0.950 . S
H2138 C2150 0.950 . S
H2139 C2151 0.950 . S
C2140 H2132 0.950 . S
C2140 C2141 1.386 . S
C2140 C2142 1.391 . S
C2141 C2140 1.386 . S
C2141 C2145 1.393 . S
C2142 H2134 0.950 . S
C2142 C2140 1.391 . S
C2142 C2143 1.400 . S
C2143 C2142 1.400 . S
C2143 C2144 1.398 . S
C2143 C2149 1.491 . S
C2144 H2135 0.950 . S
C2144 C2143 1.398 . S
C2144 C2145 1.391 . S
C2145 H2133 0.950 . S
C2145 C2141 1.393 . S
C2145 C2144 1.391 . S
C2146 H2136 0.950 . S
C2146 C2147 1.386 . S
C2146 C2148 1.391 . S
C2147 C2146 1.386 . S
C2147 C2151 1.393 . S
C2148 H2137 0.950 . S
C2148 C2146 1.391 . S
C2148 C2149 1.400 . S
C2149 C2143 1.491 . S
C2149 C2148 1.400 . S
C2149 C2150 1.398 . S
C2150 H2138 0.950 . S
C2150 C2149 1.398 . S
C2150 C2151 1.391 . S
C2151 H2139 0.950 . S
C2151 C2147 1.393 . S
C2151 C2150 1.391 . S
H2152 C2160 0.950 . S
H2153 C2165 0.950 . S
H2154 C2162 0.950 . S
H2155 C2164 0.950 . S
H2156 C2166 0.950 . S
H2157 C2168 0.950 . S
H2158 C2170 0.950 . S
H2159 C2171 0.950 . S
C2160 H2152 0.950 . S
C2160 C2161 1.386 . S
C2160 C2162 1.391 . S
C2161 C2160 1.386 . S
C2161 C2165 1.393 . S
C2162 H2154 0.950 . S
C2162 C2160 1.391 . S
C2162 C2163 1.400 . S
C2163 C2162 1.400 . S
C2163 C2164 1.398 . S
C2163 C2169 1.491 . S
C2164 H2155 0.950 . S
C2164 C2163 1.398 . S
C2164 C2165 1.391 . S
C2165 H2153 0.950 . S
C2165 C2161 1.393 . S
C2165 C2164 1.391 . S
C2166 H2156 0.950 . S
C2166 C2167 1.386 . S
C2166 C2168 1.391 . S
C2167 C2166 1.386 . S
C2167 C2171 1.393 . S
C2168 H2157 0.950 . S
C2168 C2166 1.391 . S
C2168 C2169 1.400 . S
C2169 C2163 1.491 . S
C2169 C2168 1.400 . S
C2169 C2170 1.398 . S
C2170 H2158 0.950 . S
C2170 C2169 1.398 . S
C2170 C2171 1.391 . S
C2171 H2159 0.950 . S
C2171 C2167 1.393 . S
C2171 C2170 1.391 . S
H2172 C2180 0.950 . S
H2173 C2185 0.950 . S
H2174 C2182 0.950 . S
H2175 C2184 0.950 . S
H2176 C2186 0.950 . S
H2177 C2188 0.950 . S
H2178 C2190 0.950 . S
H2179 C2191 0.950 . S
C2180 H2172 0.950 . S
C2180 C2181 1.386 . S
C2180 C2182 1.391 . S
C2181 C2180 1.386 . S
C2181 C2185 1.393 . S
C2182 H2174 0.950 . S
C2182 C2180 1.391 . S
C2182 C2183 1.400 . S
C2183 C2182 1.400 . S
C2183 C2184 1.398 . S
C2183 C2189 1.491 . S
C2184 H2175 0.950 . S
C2184 C2183 1.398 . S
C2184 C2185 1.391 . S
C2185 H2173 0.950 . S
C2185 C2181 1.393 . S
C2185 C2184 1.391 . S
C2186 H2176 0.950 . S
C2186 C2187 1.386 . S
C2186 C2188 1.391 . S
C2187 C2186 1.386 . S
C2187 C2191 1.393 . S
C2188 H2177 0.950 . S
C2188 C2186 1.391 . S
C2188 C2189 1.400 . S
C2189 C2183 1.491 . S
C2189 C2188 1.400 . S
C2189 C2190 1.398 . S
C2190 H2178 0.950 . S
C2190 C2189 1.398 . S
C2190 C2191 1.391 . S
C2191 H2179 0.950 . S
C2191 C2187 1.393 . S
C2191 C2190 1.391 . S
H2192 C2200 0.950 . S
H2193 C2205 0.950 . S
H2194 C2202 0.950 . S
H2195 C2204 0.950 . S
H2196 C2206 0.950 . S
H2197 C2208 0.950 . S
H2198 C2210 0.950 . S
H2199 C2211 0.950 . S
C2200 H2192 0.950 . S
C2200 C2201 1.386 . S
C2200 C2202 1.391 . S
C2201 C2200 1.386 . S
C2201 C2205 1.393 . S
C2202 H2194 0.950 . S
C2202 C2200 1.391 . S
C2202 C2203 1.400 . S
C2203 C2202 1.400 . S
C2203 C2204 1.398 . S
C2203 C2209 1.491 . S
C2204 H2195 0.950 . S
C2204 C2203 1.398 . S
C2204 C2205 1.391 . S
C2205 H2193 0.950 . S
C2205 C2201 1.393 . S
C2205 C2204 1.391 . S
C2206 H2196 0.950 . S
C2206 C2207 1.386 . S
C2206 C2208 1.391 . S
C2207 C2206 1.386 . S
C2207 C2211 1.393 . S
C2208 H2197 0.950 . S
C2208 C2206 1.391 . S
C2208 C2209 1.400 . S
C2209 C2203 1.491 . S
C2209 C2208 1.400 . S
C2209 C2210 1.398 . S
C2210 H2198 0.950 . S
C2210 C2209 1.398 . S
C2210 C2211 1.391 . S
C2211 H2199 0.950 . S
C2211 C2207 1.393 . S
C2211 C2210 1.391 . S
H2212 C2220 0.950 . S
H2213 C2225 0.950 . S
H2214 C2222 0.950 . S
H2215 C2224 0.950 . S
H2216 C2226 0.950 . S
H2217 C2228 0.950 . S
H2218 C2230 0.950 . S
H2219 C2231 0.950 . S
C2220 H2212 0.950 . S
C2220 C2221 1.386 . S
C2220 C2222 1.391 . S
C2221 C2220 1.386 . S
C2221 C2225 1.393 . S
C2222 H2214 0.950 . S
C2222 C2220 1.391 . S
C2222 C2223 1.400 . S
C2223 C2222 1.400 . S
C2223 C2224 1.398 . S
C2223 C2229 1.491 . S
C2224 H2215 0.950 . S
C2224 C2223 1.398 . S
C2224 C2225 1.391 . S
C2225 H2213 0.950 . S
C2225 C2221 1.393 . S
C2225 C2224 1.391 . S
C2226 H2216 0.950 . S
C2226 C2227 1.386 . S
C2226 C2228 1.391 . S
C2227 C2226 1.386 . S
C2227 C2231 1.393 . S
C2228 H2217 0.950 . S
C2228 C2226 1.391 . S
C2228 C2229 1.400 . S
C2229 C2223 1.491 . S
C2229 C2228 1.400 . S
C2229 C2230 1.398 . S
C2230 H2218 0.950 . S
C2230 C2229 1.398 . S
C2230 C2231 1.391 . S
C2231 H2219 0.950 . S
C2231 C2227 1.393 . S
C2231 C2230 1.391 . S
H2232 C2240 0.950 . S
H2233 C2245 0.950 . S
H2234 C2242 0.950 . S
H2235 C2244 0.950 . S
H2236 C2246 0.917 1_554 S
H2237 C2248 0.950 . S
H2238 C2250 0.950 . S
H2239 C2251 0.950 . S
C2240 H2232 0.950 . S
C2240 C2241 1.386 . S
C2240 C2242 1.391 . S
C2241 C2240 1.386 . S
C2241 C2245 1.393 . S
C2242 H2234 0.950 . S
C2242 C2240 1.391 . S
C2242 C2243 1.400 . S
C2243 C2242 1.400 . S
C2243 C2244 1.398 . S
C2243 C2249 1.491 . S
C2244 H2235 0.950 . S
C2244 C2243 1.398 . S
C2244 C2245 1.391 . S
C2245 H2233 0.950 . S
C2245 C2241 1.393 . S
C2245 C2244 1.391 . S
C2246 H2236 0.917 1_556 S
C2246 C2247 1.398 . S
C2246 C2248 1.411 . S
C2247 C2246 1.398 . S
C2247 C2251 1.393 . S
C2248 H2237 0.950 . S
C2248 C2246 1.411 . S
C2248 C2249 1.400 . S
C2249 C2243 1.491 . S
C2249 C2248 1.400 . S
C2249 C2250 1.398 . S
C2250 H2238 0.950 . S
C2250 C2249 1.398 . S
C2250 C2251 1.391 . S
C2251 H2239 0.950 . S
C2251 C2247 1.393 . S
C2251 C2250 1.391 . S
H2252 C2260 0.950 . S
H2253 C2265 0.950 . S
H2254 C2262 0.950 . S
H2255 C2264 0.950 . S
H2256 C2266 0.950 . S
H2257 C2268 0.950 . S
H2258 C2270 0.950 . S
H2259 C2271 0.950 . S
C2260 H2252 0.950 . S
C2260 C2261 1.386 . S
C2260 C2262 1.391 . S
C2261 C2260 1.386 . S
C2261 C2265 1.393 . S
C2262 H2254 0.950 . S
C2262 C2260 1.391 . S
C2262 C2263 1.400 . S
C2263 C2262 1.400 . S
C2263 C2264 1.398 . S
C2263 C2269 1.491 . S
C2264 H2255 0.950 . S
C2264 C2263 1.398 . S
C2264 C2265 1.391 . S
C2265 H2253 0.950 . S
C2265 C2261 1.393 . S
C2265 C2264 1.391 . S
C2266 H2256 0.950 . S
C2266 C2267 1.386 . S
C2266 C2268 1.391 . S
C2267 C2266 1.386 . S
C2267 C2271 1.393 . S
C2268 H2257 0.950 . S
C2268 C2266 1.391 . S
C2268 C2269 1.400 . S
C2269 C2263 1.491 . S
C2269 C2268 1.400 . S
C2269 C2270 1.398 . S
C2270 H2258 0.950 . S
C2270 C2269 1.398 . S
C2270 C2271 1.391 . S
C2271 H2259 0.950 . S
C2271 C2267 1.393 . S
C2271 C2270 1.391 . S
H2272 C2280 0.950 . S
H2273 C2285 0.950 . S
H2274 C2282 0.950 . S
H2275 C2284 0.950 . S
H2276 C2286 0.950 . S
H2277 C2288 0.950 . S
H2278 C2290 0.950 . S
H2279 C2291 0.950 1_655 S
C2280 H2272 0.950 . S
C2280 C2281 1.386 . S
C2280 C2282 1.391 . S
C2281 C2280 1.386 . S
C2281 C2285 1.393 . S
C2282 H2274 0.950 . S
C2282 C2280 1.391 . S
C2282 C2283 1.400 . S
C2283 C2282 1.400 . S
C2283 C2284 1.398 . S
C2283 C2289 1.491 . S
C2284 H2275 0.950 . S
C2284 C2283 1.398 . S
C2284 C2285 1.391 . S
C2285 H2273 0.950 . S
C2285 C2281 1.393 . S
C2285 C2284 1.391 . S
C2286 H2276 0.950 . S
C2286 C2287 1.386 . S
C2286 C2288 1.391 . S
C2287 C2286 1.386 . S
C2287 C2291 1.393 . S
C2288 H2277 0.950 . S
C2288 C2286 1.391 . S
C2288 C2289 1.400 . S
C2289 C2283 1.491 . S
C2289 C2288 1.400 . S
C2289 C2290 1.398 . S
C2290 H2278 0.950 . S
C2290 C2289 1.398 . S
C2290 C2291 1.391 . S
C2291 H2279 0.950 1_455 S
C2291 C2287 1.393 . S
C2291 C2290 1.391 . S
H2292 C2300 0.950 . S
H2293 C2305 0.950 . S
H2294 C2302 0.950 . S
H2295 C2304 0.950 . S
H2296 C2306 0.950 . S
H2297 C2308 0.950 . S
H2298 C2310 0.950 . S
H2299 C2311 0.950 . S
C2300 H2292 0.950 . S
C2300 C2301 1.386 . S
C2300 C2302 1.391 . S
C2301 C2300 1.386 . S
C2301 C2305 1.393 . S
C2302 H2294 0.950 . S
C2302 C2300 1.391 . S
C2302 C2303 1.400 . S
C2303 C2302 1.400 . S
C2303 C2304 1.398 . S
C2303 C2309 1.491 . S
C2304 H2295 0.950 . S
C2304 C2303 1.398 . S
C2304 C2305 1.391 . S
C2305 H2293 0.950 . S
C2305 C2301 1.393 . S
C2305 C2304 1.391 . S
C2306 H2296 0.950 . S
C2306 C2307 1.386 . S
C2306 C2308 1.391 . S
C2307 C2306 1.386 . S
C2307 C2311 1.393 . S
C2308 H2297 0.950 . S
C2308 C2306 1.391 . S
C2308 C2309 1.400 . S
C2309 C2303 1.491 . S
C2309 C2308 1.400 . S
C2309 C2310 1.398 . S
C2310 H2298 0.950 . S
C2310 C2309 1.398 . S
C2310 C2311 1.391 . S
C2311 H2299 0.950 . S
C2311 C2307 1.393 . S
C2311 C2310 1.391 . S
H2312 C2320 0.950 . S
H2313 C2325 0.950 . S
H2314 C2322 0.950 . S
H2315 C2324 0.950 . S
H2316 C2326 0.950 . S
H2317 C2328 0.950 . S
H2318 C2330 0.950 . S
H2319 C2331 0.950 . S
C2320 H2312 0.950 . S
C2320 C2321 1.386 . S
C2320 C2322 1.391 . S
C2321 C2320 1.386 . S
C2321 C2325 1.393 . S
C2322 H2314 0.950 . S
C2322 C2320 1.391 . S
C2322 C2323 1.400 . S
C2323 C2322 1.400 . S
C2323 C2324 1.398 . S
C2323 C2329 1.491 . S
C2324 H2315 0.950 . S
C2324 C2323 1.398 . S
C2324 C2325 1.391 . S
C2325 H2313 0.950 . S
C2325 C2321 1.393 . S
C2325 C2324 1.391 . S
C2326 H2316 0.950 . S
C2326 C2327 1.386 . S
C2326 C2328 1.391 . S
C2327 C2326 1.386 . S
C2327 C2331 1.393 . S
C2328 H2317 0.950 . S
C2328 C2326 1.391 . S
C2328 C2329 1.400 . S
C2329 C2323 1.491 . S
C2329 C2328 1.400 . S
C2329 C2330 1.398 . S
C2330 H2318 0.950 . S
C2330 C2329 1.398 . S
C2330 C2331 1.391 . S
C2331 H2319 0.950 . S
C2331 C2327 1.393 . S
C2331 C2330 1.391 . S
H2332 C2340 0.950 . S
H2333 C2345 0.950 . S
H2334 C2342 0.950 . S
H2335 C2344 0.950 . S
H2336 C2346 0.950 . S
H2337 C2348 0.950 . S
H2338 C2350 0.950 . S
H2339 C2351 0.950 . S
C2340 H2332 0.950 . S
C2340 C2341 1.386 . S
C2340 C2342 1.391 . S
C2341 C2340 1.386 . S
C2341 C2345 1.393 . S
C2342 H2334 0.950 . S
C2342 C2340 1.391 . S
C2342 C2343 1.400 . S
C2343 C2342 1.400 . S
C2343 C2344 1.398 . S
C2343 C2349 1.491 . S
C2344 H2335 0.950 . S
C2344 C2343 1.398 . S
C2344 C2345 1.391 . S
C2345 H2333 0.950 . S
C2345 C2341 1.393 . S
C2345 C2344 1.391 . S
C2346 H2336 0.950 . S
C2346 C2347 1.386 . S
C2346 C2348 1.391 . S
C2347 C2346 1.386 . S
C2347 C2351 1.393 . S
C2348 H2337 0.950 . S
C2348 C2346 1.391 . S
C2348 C2349 1.400 . S
C2349 C2343 1.491 . S
C2349 C2348 1.400 . S
C2349 C2350 1.398 . S
C2350 H2338 0.950 . S
C2350 C2349 1.398 . S
C2350 C2351 1.391 . S
C2351 H2339 0.950 . S
C2351 C2347 1.393 . S
C2351 C2350 1.391 . S
H2352 C2360 0.950 . S
H2353 C2365 0.950 . S
H2354 C2362 0.950 . S
H2355 C2364 0.950 . S
H2356 C2366 0.950 . S
H2357 C2368 0.950 . S
H2358 C2370 0.950 . S
H2359 C2371 0.950 . S
C2360 H2352 0.950 . S
C2360 C2361 1.386 . S
C2360 C2362 1.391 . S
C2361 C2360 1.386 . S
C2361 C2365 1.393 . S
C2362 H2354 0.950 . S
C2362 C2360 1.391 . S
C2362 C2363 1.400 . S
C2363 C2362 1.400 . S
C2363 C2364 1.398 . S
C2363 C2369 1.491 . S
C2364 H2355 0.950 . S
C2364 C2363 1.398 . S
C2364 C2365 1.391 . S
C2365 H2353 0.950 . S
C2365 C2361 1.393 . S
C2365 C2364 1.391 . S
C2366 H2356 0.950 . S
C2366 C2367 1.386 . S
C2366 C2368 1.391 . S
C2367 C2366 1.386 . S
C2367 C2371 1.393 . S
C2368 H2357 0.950 . S
C2368 C2366 1.391 . S
C2368 C2369 1.400 . S
C2369 C2363 1.491 . S
C2369 C2368 1.400 . S
C2369 C2370 1.398 . S
C2370 H2358 0.950 . S
C2370 C2369 1.398 . S
C2370 C2371 1.391 . S
C2371 H2359 0.950 . S
C2371 C2367 1.393 . S
C2371 C2370 1.391 . S
H2372 C2380 0.950 . S
H2373 C2385 0.950 . S
H2374 C2382 0.950 . S
H2375 C2384 0.950 . S
H2376 C2386 0.950 . S
H2377 C2388 0.950 . S
H2378 C2390 0.950 . S
H2379 C2391 0.950 . S
C2380 H2372 0.950 . S
C2380 C2381 1.386 . S
C2380 C2382 1.391 . S
C2381 C2380 1.386 . S
C2381 C2385 1.393 . S
C2382 H2374 0.950 . S
C2382 C2380 1.391 . S
C2382 C2383 1.400 . S
C2383 C2382 1.400 . S
C2383 C2384 1.398 . S
C2383 C2389 1.491 . S
C2384 H2375 0.950 . S
C2384 C2383 1.398 . S
C2384 C2385 1.391 . S
C2385 H2373 0.950 . S
C2385 C2381 1.393 . S
C2385 C2384 1.391 . S
C2386 H2376 0.950 . S
C2386 C2387 1.386 . S
C2386 C2388 1.391 . S
C2387 C2386 1.386 . S
C2387 C2391 1.393 . S
C2388 H2377 0.950 . S
C2388 C2386 1.391 . S
C2388 C2389 1.400 . S
C2389 C2383 1.491 . S
C2389 C2388 1.400 . S
C2389 C2390 1.398 . S
C2390 H2378 0.950 . S
C2390 C2389 1.398 . S
C2390 C2391 1.391 . S
C2391 H2379 0.950 . S
C2391 C2387 1.393 . S
C2391 C2390 1.391 . S
H2392 C2400 0.950 . S
H2393 C2405 0.950 . S
H2394 C2402 0.950 . S
H2395 C2404 0.950 . S
H2396 C2406 0.950 . S
H2397 C2408 0.950 . S
H2398 C2410 0.950 . S
H2399 C2411 0.950 . S
C2400 H2392 0.950 . S
C2400 C2401 1.386 . S
C2400 C2402 1.391 . S
C2401 C2400 1.386 . S
C2401 C2405 1.393 . S
C2402 H2394 0.950 . S
C2402 C2400 1.391 . S
C2402 C2403 1.400 . S
C2403 C2402 1.400 . S
C2403 C2404 1.398 . S
C2403 C2409 1.491 . S
C2404 H2395 0.950 . S
C2404 C2403 1.398 . S
C2404 C2405 1.391 . S
C2405 H2393 0.950 . S
C2405 C2401 1.393 . S
C2405 C2404 1.391 . S
C2406 H2396 0.950 . S
C2406 C2407 1.386 . S
C2406 C2408 1.391 . S
C2407 C2406 1.386 . S
C2407 C2411 1.393 . S
C2408 H2397 0.950 . S
C2408 C2406 1.391 . S
C2408 C2409 1.400 . S
C2409 C2403 1.491 . S
C2409 C2408 1.400 . S
C2409 C2410 1.398 . S
C2410 H2398 0.950 . S
C2410 C2409 1.398 . S
C2410 C2411 1.391 . S
C2411 H2399 0.950 . S
C2411 C2407 1.393 . S
C2411 C2410 1.391 . S
H2412 C2420 0.950 . S
H2413 C2425 0.950 . S
H2414 C2422 0.950 . S
H2415 C2424 0.950 . S
H2416 C2426 0.950 . S
H2417 C2428 0.950 . S
H2418 C2430 0.950 . S
H2419 C2431 0.950 . S
C2420 H2412 0.950 . S
C2420 C2421 1.386 . S
C2420 C2422 1.391 . S
C2421 C2420 1.386 . S
C2421 C2425 1.393 . S
C2422 H2414 0.950 . S
C2422 C2420 1.391 . S
C2422 C2423 1.400 . S
C2423 C2422 1.400 . S
C2423 C2424 1.398 . S
C2423 C2429 1.491 . S
C2424 H2415 0.950 . S
C2424 C2423 1.398 . S
C2424 C2425 1.391 . S
C2425 H2413 0.950 . S
C2425 C2421 1.393 . S
C2425 C2424 1.391 . S
C2426 H2416 0.950 . S
C2426 C2427 1.386 . S
C2426 C2428 1.391 . S
C2427 C2426 1.386 . S
C2427 C2431 1.393 . S
C2428 H2417 0.950 . S
C2428 C2426 1.391 . S
C2428 C2429 1.400 . S
C2429 C2423 1.491 . S
C2429 C2428 1.400 . S
C2429 C2430 1.398 . S
C2430 H2418 0.950 . S
C2430 C2429 1.398 . S
C2430 C2431 1.391 . S
C2431 H2419 0.950 . S
C2431 C2427 1.393 . S
C2431 C2430 1.391 . S
H2432 C2440 0.950 . S
H2433 C2445 0.950 . S
H2434 C2442 0.950 . S
H2435 C2444 0.950 . S
H2436 C2446 0.950 . S
H2437 C2448 0.950 . S
H2438 C2450 0.950 . S
H2439 C2451 0.950 . S
C2440 H2432 0.950 . S
C2440 C2441 1.386 . S
C2440 C2442 1.391 . S
C2441 C2440 1.386 . S
C2441 C2445 1.393 . S
C2442 H2434 0.950 . S
C2442 C2440 1.391 . S
C2442 C2443 1.400 . S
C2443 C2442 1.400 . S
C2443 C2444 1.398 . S
C2443 C2449 1.491 . S
C2444 H2435 0.950 . S
C2444 C2443 1.398 . S
C2444 C2445 1.391 . S
C2445 H2433 0.950 . S
C2445 C2441 1.393 . S
C2445 C2444 1.391 . S
C2446 H2436 0.950 . S
C2446 C2447 1.386 . S
C2446 C2448 1.391 . S
C2447 C2446 1.386 . S
C2447 C2451 1.393 . S
C2448 H2437 0.950 . S
C2448 C2446 1.391 . S
C2448 C2449 1.400 . S
C2449 C2443 1.491 . S
C2449 C2448 1.400 . S
C2449 C2450 1.398 . S
C2450 H2438 0.950 . S
C2450 C2449 1.398 . S
C2450 C2451 1.391 . S
C2451 H2439 0.950 . S
C2451 C2447 1.393 . S
C2451 C2450 1.391 . S
H2452 C2460 0.950 . S
H2453 C2465 0.950 . S
H2454 C2462 0.950 . S
H2455 C2464 0.950 . S
H2456 C2466 0.950 . S
H2457 C2468 0.950 . S
H2458 C2470 0.950 . S
H2459 C2471 0.950 . S
C2460 H2452 0.950 . S
C2460 C2461 1.386 . S
C2460 C2462 1.391 . S
C2461 C2460 1.386 . S
C2461 C2465 1.393 . S
C2462 H2454 0.950 . S
C2462 C2460 1.391 . S
C2462 C2463 1.400 . S
C2463 C2462 1.400 . S
C2463 C2464 1.398 . S
C2463 C2469 1.491 . S
C2464 H2455 0.950 . S
C2464 C2463 1.398 . S
C2464 C2465 1.391 . S
C2465 H2453 0.950 . S
C2465 C2461 1.393 . S
C2465 C2464 1.391 . S
C2466 H2456 0.950 . S
C2466 C2467 1.386 . S
C2466 C2468 1.391 . S
C2467 C2466 1.386 . S
C2467 C2471 1.393 . S
C2468 H2457 0.950 . S
C2468 C2466 1.391 . S
C2468 C2469 1.400 . S
C2469 C2463 1.491 . S
C2469 C2468 1.400 . S
C2469 C2470 1.398 . S
C2470 H2458 0.950 . S
C2470 C2469 1.398 . S
C2470 C2471 1.391 . S
C2471 H2459 0.950 . S
C2471 C2467 1.393 . S
C2471 C2470 1.391 . S
H2472 C2480 0.950 . S
H2473 C2485 0.950 . S
H2474 C2482 0.950 . S
H2475 C2484 0.950 . S
H2476 C2486 0.950 . S
H2477 C2488 0.950 . S
H2478 C2490 0.950 . S
H2479 C2491 0.950 . S
C2480 H2472 0.950 . S
C2480 C2481 1.386 . S
C2480 C2482 1.391 . S
C2481 C2480 1.386 . S
C2481 C2485 1.393 . S
C2482 H2474 0.950 . S
C2482 C2480 1.391 . S
C2482 C2483 1.400 . S
C2483 C2482 1.400 . S
C2483 C2484 1.398 . S
C2483 C2489 1.491 . S
C2484 H2475 0.950 . S
C2484 C2483 1.398 . S
C2484 C2485 1.391 . S
C2485 H2473 0.950 . S
C2485 C2481 1.393 . S
C2485 C2484 1.391 . S
C2486 H2476 0.950 . S
C2486 C2487 1.386 . S
C2486 C2488 1.391 . S
C2487 C2486 1.386 . S
C2487 C2491 1.393 . S
C2488 H2477 0.950 . S
C2488 C2486 1.391 . S
C2488 C2489 1.400 . S
C2489 C2483 1.491 . S
C2489 C2488 1.400 . S
C2489 C2490 1.398 . S
C2490 H2478 0.950 . S
C2490 C2489 1.398 . S
C2490 C2491 1.391 . S
C2491 H2479 0.950 . S
C2491 C2487 1.393 . S
C2491 C2490 1.391 . S
H2492 C2500 0.950 . S
H2493 C2505 0.950 . S
H2494 C2502 0.950 . S
H2495 C2504 0.950 . S
H2496 C2506 0.950 . S
H2497 C2508 0.950 . S
H2498 C2510 0.950 . S
H2499 C2511 0.950 . S
C2500 H2492 0.950 . S
C2500 C2501 1.386 . S
C2500 C2502 1.391 . S
C2501 C2500 1.386 . S
C2501 C2505 1.393 . S
C2502 H2494 0.950 . S
C2502 C2500 1.391 . S
C2502 C2503 1.400 . S
C2503 C2502 1.400 . S
C2503 C2504 1.398 . S
C2503 C2509 1.491 . S
C2504 H2495 0.950 . S
C2504 C2503 1.398 . S
C2504 C2505 1.391 . S
C2505 H2493 0.950 . S
C2505 C2501 1.393 . S
C2505 C2504 1.391 . S
C2506 H2496 0.950 . S
C2506 C2507 1.386 . S
C2506 C2508 1.391 . S
C2507 C2506 1.386 . S
C2507 C2511 1.393 . S
C2508 H2497 0.950 . S
C2508 C2506 1.391 . S
C2508 C2509 1.400 . S
C2509 C2503 1.491 . S
C2509 C2508 1.400 . S
C2509 C2510 1.398 . S
C2510 H2498 0.950 . S
C2510 C2509 1.398 . S
C2510 C2511 1.391 . S
C2511 H2499 0.950 . S
C2511 C2507 1.393 . S
C2511 C2510 1.391 . S
H2512 C2520 0.950 . S
H2513 C2525 0.950 . S
H2514 C2522 0.950 . S
H2515 C2524 0.950 . S
H2516 C2526 0.950 . S
H2517 C2528 0.950 . S
H2518 C2530 0.950 . S
H2519 C2531 0.950 . S
C2520 H2512 0.950 . S
C2520 C2521 1.386 . S
C2520 C2522 1.391 . S
C2521 C2520 1.386 . S
C2521 C2525 1.393 . S
C2522 H2514 0.950 . S
C2522 C2520 1.391 . S
C2522 C2523 1.400 . S
C2523 C2522 1.400 . S
C2523 C2524 1.398 . S
C2523 C2529 1.491 . S
C2524 H2515 0.950 . S
C2524 C2523 1.398 . S
C2524 C2525 1.391 . S
C2525 H2513 0.950 . S
C2525 C2521 1.393 . S
C2525 C2524 1.391 . S
C2526 H2516 0.950 . S
C2526 C2527 1.386 . S
C2526 C2528 1.391 . S
C2527 C2526 1.386 . S
C2527 C2531 1.393 . S
C2528 H2517 0.950 . S
C2528 C2526 1.391 . S
C2528 C2529 1.400 . S
C2529 C2523 1.491 . S
C2529 C2528 1.400 . S
C2529 C2530 1.398 . S
C2530 H2518 0.950 . S
C2530 C2529 1.398 . S
C2530 C2531 1.391 . S
C2531 H2519 0.950 . S
C2531 C2527 1.393 . S
C2531 C2530 1.391 . S
H2532 C2540 0.950 . S
H2533 C2545 0.950 . S
H2534 C2542 0.950 . S
H2535 C2544 0.950 . S
H2536 C2546 0.950 . S
H2537 C2548 0.950 . S
H2538 C2550 0.950 . S
H2539 C2551 0.950 . S
C2540 H2532 0.950 . S
C2540 C2541 1.386 . S
C2540 C2542 1.391 . S
C2541 C2540 1.386 . S
C2541 C2545 1.393 . S
C2542 H2534 0.950 . S
C2542 C2540 1.391 . S
C2542 C2543 1.400 . S
C2543 C2542 1.400 . S
C2543 C2544 1.398 . S
C2543 C2549 1.491 . S
C2544 H2535 0.950 . S
C2544 C2543 1.398 . S
C2544 C2545 1.391 . S
C2545 H2533 0.950 . S
C2545 C2541 1.393 . S
C2545 C2544 1.391 . S
C2546 H2536 0.950 . S
C2546 C2547 1.386 . S
C2546 C2548 1.391 . S
C2547 C2546 1.386 . S
C2547 C2551 1.393 . S
C2548 H2537 0.950 . S
C2548 C2546 1.391 . S
C2548 C2549 1.400 . S
C2549 C2543 1.491 . S
C2549 C2548 1.400 . S
C2549 C2550 1.398 . S
C2550 H2538 0.950 . S
C2550 C2549 1.398 . S
C2550 C2551 1.391 . S
C2551 H2539 0.950 . S
C2551 C2547 1.393 . S
C2551 C2550 1.391 . S
H2552 C2560 0.950 . S
H2553 C2565 0.950 . S
H2554 C2562 0.950 . S
H2555 C2564 0.950 . S
H2556 C2566 0.950 . S
H2557 C2568 0.950 . S
H2558 C2570 0.950 . S
H2559 C2571 0.950 . S
C2560 H2552 0.950 . S
C2560 C2561 1.386 . S
C2560 C2562 1.391 . S
C2561 C2560 1.386 . S
C2561 C2565 1.393 . S
C2562 H2554 0.950 . S
C2562 C2560 1.391 . S
C2562 C2563 1.400 . S
C2563 C2562 1.400 . S
C2563 C2564 1.398 . S
C2563 C2569 1.491 . S
C2564 H2555 0.950 . S
C2564 C2563 1.398 . S
C2564 C2565 1.391 . S
C2565 H2553 0.950 . S
C2565 C2561 1.393 . S
C2565 C2564 1.391 . S
C2566 H2556 0.950 . S
C2566 C2567 1.386 . S
C2566 C2568 1.391 . S
C2567 C2566 1.386 . S
C2567 C2571 1.393 . S
C2568 H2557 0.950 . S
C2568 C2566 1.391 . S
C2568 C2569 1.400 . S
C2569 C2563 1.491 . S
C2569 C2568 1.400 . S
C2569 C2570 1.398 . S
C2570 H2558 0.950 . S
C2570 C2569 1.398 . S
C2570 C2571 1.391 . S
C2571 H2559 0.950 . S
C2571 C2567 1.393 . S
C2571 C2570 1.391 . S
H2572 C2580 0.950 . S
H2573 C2585 0.950 . S
H2574 C2582 0.950 . S
H2575 C2584 0.950 . S
H2576 C2586 0.950 . S
H2577 C2588 0.950 . S
H2578 C2590 0.950 . S
H2579 C2591 0.950 . S
C2580 H2572 0.950 . S
C2580 C2581 1.386 . S
C2580 C2582 1.391 . S
C2581 C2580 1.386 . S
C2581 C2585 1.393 . S
C2582 H2574 0.950 . S
C2582 C2580 1.391 . S
C2582 C2583 1.400 . S
C2583 C2582 1.400 . S
C2583 C2584 1.398 . S
C2583 C2589 1.491 . S
C2584 H2575 0.950 . S
C2584 C2583 1.398 . S
C2584 C2585 1.391 . S
C2585 H2573 0.950 . S
C2585 C2581 1.393 . S
C2585 C2584 1.391 . S
C2586 H2576 0.950 . S
C2586 C2587 1.386 . S
C2586 C2588 1.391 . S
C2587 C2586 1.386 . S
C2587 C2591 1.393 . S
C2588 H2577 0.950 . S
C2588 C2586 1.391 . S
C2588 C2589 1.400 . S
C2589 C2583 1.491 . S
C2589 C2588 1.400 . S
C2589 C2590 1.398 . S
C2590 H2578 0.950 . S
C2590 C2589 1.398 . S
C2590 C2591 1.391 . S
C2591 H2579 0.950 . S
C2591 C2587 1.393 . S
C2591 C2590 1.391 . S
H2592 C2600 0.950 . S
H2593 C2605 0.950 . S
H2594 C2602 0.950 . S
H2595 C2604 0.950 . S
H2596 C2606 0.950 . S
H2597 C2608 0.950 . S
H2598 C2610 0.950 . S
H2599 C2611 0.950 . S
C2600 H2592 0.950 . S
C2600 C2601 1.386 . S
C2600 C2602 1.391 . S
C2601 C2600 1.386 . S
C2601 C2605 1.393 1_455 S
C2602 H2594 0.950 . S
C2602 C2600 1.391 . S
C2602 C2603 1.400 . S
C2603 C2602 1.400 . S
C2603 C2604 1.398 1_455 S
C2603 C2609 1.491 1_455 S
C2604 H2595 0.950 . S
C2604 C2603 1.398 1_655 S
C2604 C2605 1.391 . S
C2605 H2593 0.950 . S
C2605 C2601 1.393 1_655 S
C2605 C2604 1.391 . S
C2606 H2596 0.950 . S
C2606 C2607 1.386 . S
C2606 C2608 1.391 . S
C2607 C2606 1.386 . S
C2607 C2611 1.393 1_655 S
C2608 H2597 0.950 . S
C2608 C2606 1.391 . S
C2608 C2609 1.400 . S
C2609 C2603 1.491 1_655 S
C2609 C2608 1.400 . S
C2609 C2610 1.398 1_655 S
C2610 H2598 0.950 . S
C2610 C2609 1.398 1_455 S
C2610 C2611 1.391 . S
C2611 H2599 0.950 . S
C2611 C2607 1.393 1_455 S
C2611 C2610 1.391 . S
H2612 C2620 0.950 . S
H2613 C2625 0.950 . S
H2614 C2622 0.950 . S
H2615 C2624 0.950 . S
H2616 C2626 0.950 . S
H2617 C2628 0.950 . S
H2618 C2630 0.950 . S
H2619 C2631 0.950 . S
C2620 H2612 0.950 . S
C2620 C2621 1.386 . S
C2620 C2622 1.391 . S
C2621 C2620 1.386 . S
C2621 C2625 1.393 . S
C2622 H2614 0.950 . S
C2622 C2620 1.391 . S
C2622 C2623 1.400 . S
C2623 C2622 1.400 . S
C2623 C2624 1.398 . S
C2623 C2629 1.491 1_455 S
C2624 H2615 0.950 . S
C2624 C2623 1.398 . S
C2624 C2625 1.391 . S
C2625 H2613 0.950 . S
C2625 C2621 1.393 . S
C2625 C2624 1.391 . S
C2626 H2616 0.950 . S
C2626 C2627 1.386 . S
C2626 C2628 1.391 . S
C2627 C2626 1.386 . S
C2627 C2631 1.393 . S
C2628 H2617 0.950 . S
C2628 C2626 1.391 . S
C2628 C2629 1.400 . S
C2629 C2623 1.491 1_655 S
C2629 C2628 1.400 . S
C2629 C2630 1.398 . S
C2630 H2618 0.950 . S
C2630 C2629 1.398 . S
C2630 C2631 1.391 . S
C2631 H2619 0.950 . S
C2631 C2627 1.393 . S
C2631 C2630 1.391 . S
H2632 C2640 0.950 . S
H2633 C2645 0.950 . S
H2634 C2642 0.950 . S
H2635 C2644 0.950 . S
H2636 C2646 0.950 . S
H2637 C2648 0.950 . S
H2638 C2650 0.950 . S
H2639 C2651 0.950 . S
C2640 H2632 0.950 . S
C2640 C2641 1.386 . S
C2640 C2642 1.391 . S
C2641 C2640 1.386 . S
C2641 C2645 1.393 . S
C2642 H2634 0.950 . S
C2642 C2640 1.391 . S
C2642 C2643 1.400 . S
C2643 C2642 1.400 . S
C2643 C2644 1.398 . S
C2643 C2649 1.491 . S
C2644 H2635 0.950 . S
C2644 C2643 1.398 . S
C2644 C2645 1.391 . S
C2645 H2633 0.950 . S
C2645 C2641 1.393 . S
C2645 C2644 1.391 . S
C2646 H2636 0.950 . S
C2646 C2647 1.386 . S
C2646 C2648 1.391 . S
C2647 C2646 1.386 . S
C2647 C2651 1.393 . S
C2648 H2637 0.950 . S
C2648 C2646 1.391 . S
C2648 C2649 1.400 . S
C2649 C2643 1.491 . S
C2649 C2648 1.400 . S
C2649 C2650 1.398 . S
C2650 H2638 0.950 . S
C2650 C2649 1.398 . S
C2650 C2651 1.391 . S
C2651 H2639 0.950 . S
C2651 C2647 1.393 . S
C2651 C2650 1.391 . S
H2652 C2660 0.950 . S
H2653 C2665 0.950 . S
H2654 C2662 0.950 . S
H2655 C2664 0.950 . S
H2656 C2666 0.950 . S
H2657 C2668 0.950 . S
H2658 C2670 0.950 . S
H2659 C2671 0.950 . S
C2660 H2652 0.950 . S
C2660 C2661 1.386 . S
C2660 C2662 1.391 . S
C2661 C2660 1.386 . S
C2661 C2665 1.393 . S
C2662 H2654 0.950 . S
C2662 C2660 1.391 . S
C2662 C2663 1.400 . S
C2663 C2662 1.400 . S
C2663 C2664 1.398 . S
C2663 C2669 1.491 . S
C2664 H2655 0.950 . S
C2664 C2663 1.398 . S
C2664 C2665 1.391 . S
C2665 H2653 0.950 . S
C2665 C2661 1.393 . S
C2665 C2664 1.391 . S
C2666 H2656 0.950 . S
C2666 C2667 1.386 . S
C2666 C2668 1.391 . S
C2667 C2666 1.386 . S
C2667 C2671 1.393 . S
C2668 H2657 0.950 . S
C2668 C2666 1.391 . S
C2668 C2669 1.400 . S
C2669 C2663 1.491 . S
C2669 C2668 1.400 . S
C2669 C2670 1.398 . S
C2670 H2658 0.950 . S
C2670 C2669 1.398 . S
C2670 C2671 1.391 . S
C2671 H2659 0.950 . S
C2671 C2667 1.393 . S
C2671 C2670 1.391 . S
H2672 C2680 0.950 . S
H2673 C2685 0.950 . S
H2674 C2682 0.950 . S
H2675 C2684 0.950 . S
H2676 C2686 0.950 . S
H2677 C2688 0.950 . S
H2678 C2690 0.950 . S
H2679 C2691 0.950 . S
C2680 H2672 0.950 . S
C2680 C2681 1.386 . S
C2680 C2682 1.391 . S
C2681 C2680 1.386 . S
C2681 C2685 1.393 1_655 S
C2682 H2674 0.950 . S
C2682 C2680 1.391 . S
C2682 C2683 1.400 . S
C2683 C2682 1.400 . S
C2683 C2684 1.398 1_655 S
C2683 C2689 1.491 1_655 S
C2684 H2675 0.950 . S
C2684 C2683 1.398 1_455 S
C2684 C2685 1.391 . S
C2685 H2673 0.950 . S
C2685 C2681 1.393 1_455 S
C2685 C2684 1.391 . S
C2686 H2676 0.950 . S
C2686 C2687 1.386 . S
C2686 C2688 1.391 . S
C2687 C2686 1.386 . S
C2687 C2691 1.393 1_455 S
C2688 H2677 0.950 . S
C2688 C2686 1.391 . S
C2688 C2689 1.400 . S
C2689 C2683 1.491 1_455 S
C2689 C2688 1.400 . S
C2689 C2690 1.398 1_455 S
C2690 H2678 0.950 . S
C2690 C2689 1.398 1_655 S
C2690 C2691 1.391 . S
C2691 H2679 0.950 . S
C2691 C2687 1.393 1_655 S
C2691 C2690 1.391 . S
H2692 C2700 0.950 . S
H2693 C2705 0.950 . S
H2694 C2702 0.950 . S
H2695 C2704 0.950 . S
H2696 C2706 0.950 . S
H2697 C2708 0.950 . S
H2698 C2710 0.950 . S
H2699 C2711 0.950 . S
C2700 H2692 0.950 . S
C2700 C2701 1.386 . S
C2700 C2702 1.391 . S
C2701 C2700 1.386 . S
C2701 C2705 1.393 . S
C2702 H2694 0.950 . S
C2702 C2700 1.391 . S
C2702 C2703 1.400 . S
C2703 C2702 1.400 . S
C2703 C2704 1.398 . S
C2703 C2709 1.491 . S
C2704 H2695 0.950 . S
C2704 C2703 1.398 . S
C2704 C2705 1.391 . S
C2705 H2693 0.950 . S
C2705 C2701 1.393 . S
C2705 C2704 1.391 . S
C2706 H2696 0.950 . S
C2706 C2707 1.386 . S
C2706 C2708 1.391 . S
C2707 C2706 1.386 . S
C2707 C2711 1.393 . S
C2708 H2697 0.950 . S
C2708 C2706 1.391 . S
C2708 C2709 1.400 . S
C2709 C2703 1.491 . S
C2709 C2708 1.400 . S
C2709 C2710 1.398 . S
C2710 H2698 0.950 . S
C2710 C2709 1.398 . S
C2710 C2711 1.391 . S
C2711 H2699 0.950 . S
C2711 C2707 1.393 . S
C2711 C2710 1.391 . S
H2712 C2720 0.950 . S
H2713 C2725 0.950 . S
H2714 C2722 0.950 . S
H2715 C2724 0.950 . S
H2716 C2726 0.950 . S
H2717 C2728 0.950 . S
H2718 C2730 0.950 . S
H2719 C2731 0.950 . S
C2720 H2712 0.950 . S
C2720 C2721 1.386 . S
C2720 C2722 1.391 . S
C2721 C2720 1.386 . S
C2721 C2725 1.393 . S
C2722 H2714 0.950 . S
C2722 C2720 1.391 . S
C2722 C2723 1.400 . S
C2723 C2722 1.400 . S
C2723 C2724 1.398 . S
C2723 C2729 1.491 . S
C2724 H2715 0.950 . S
C2724 C2723 1.398 . S
C2724 C2725 1.391 . S
C2725 H2713 0.950 . S
C2725 C2721 1.393 . S
C2725 C2724 1.391 . S
C2726 H2716 0.950 . S
C2726 C2727 1.386 . S
C2726 C2728 1.391 . S
C2727 C2726 1.386 . S
C2727 C2731 1.393 . S
C2728 H2717 0.950 . S
C2728 C2726 1.391 . S
C2728 C2729 1.400 . S
C2729 C2723 1.491 . S
C2729 C2728 1.400 . S
C2729 C2730 1.398 . S
C2730 H2718 0.950 . S
C2730 C2729 1.398 . S
C2730 C2731 1.391 . S
C2731 H2719 0.950 . S
C2731 C2727 1.393 . S
C2731 C2730 1.391 . S
H2732 C2740 0.950 . S
H2733 C2745 0.950 . S
H2734 C2742 0.950 . S
H2735 C2744 0.950 . S
H2736 C2746 0.950 . S
H2737 C2748 0.950 . S
H2738 C2750 0.950 . S
H2739 C2751 0.950 . S
C2740 H2732 0.950 . S
C2740 C2741 1.386 . S
C2740 C2742 1.391 . S
C2741 C2740 1.386 . S
C2741 C2745 1.393 . S
C2742 H2734 0.950 . S
C2742 C2740 1.391 . S
C2742 C2743 1.400 . S
C2743 C2742 1.400 . S
C2743 C2744 1.398 . S
C2743 C2749 1.491 1_655 S
C2744 H2735 0.950 . S
C2744 C2743 1.398 . S
C2744 C2745 1.391 . S
C2745 H2733 0.950 . S
C2745 C2741 1.393 . S
C2745 C2744 1.391 . S
C2746 H2736 0.950 . S
C2746 C2747 1.386 . S
C2746 C2748 1.391 . S
C2747 C2746 1.386 . S
C2747 C2751 1.393 . S
C2748 H2737 0.950 . S
C2748 C2746 1.391 . S
C2748 C2749 1.400 . S
C2749 C2743 1.491 1_455 S
C2749 C2748 1.400 . S
C2749 C2750 1.398 . S
C2750 H2738 0.950 . S
C2750 C2749 1.398 . S
C2750 C2751 1.391 . S
C2751 H2739 0.950 . S
C2751 C2747 1.393 . S
C2751 C2750 1.391 . S
H2752 C2760 0.950 . S
H2753 C2765 0.950 . S
H2754 C2762 0.950 . S
H2755 C2764 0.950 . S
H2756 C2766 0.950 . S
H2757 C2768 0.950 . S
H2758 C2770 0.950 . S
H2759 C2771 0.950 . S
C2760 H2752 0.950 . S
C2760 C2761 1.386 . S
C2760 C2762 1.391 . S
C2761 C2760 1.386 . S
C2761 C2765 1.393 1_545 S
C2762 H2754 0.950 . S
C2762 C2760 1.391 . S
C2762 C2763 1.400 . S
C2763 C2762 1.400 . S
C2763 C2764 1.398 1_545 S
C2763 C2769 1.491 1_545 S
C2764 H2755 0.950 . S
C2764 C2763 1.398 1_565 S
C2764 C2765 1.391 . S
C2765 H2753 0.950 . S
C2765 C2761 1.393 1_565 S
C2765 C2764 1.391 . S
C2766 H2756 0.950 . S
C2766 C2767 1.386 . S
C2766 C2768 1.391 . S
C2767 C2766 1.386 . S
C2767 C2771 1.393 1_565 S
C2768 H2757 0.950 . S
C2768 C2766 1.391 . S
C2768 C2769 1.400 . S
C2769 C2763 1.491 1_565 S
C2769 C2768 1.400 . S
C2769 C2770 1.398 1_565 S
C2770 H2758 0.950 . S
C2770 C2769 1.398 1_545 S
C2770 C2771 1.391 . S
C2771 H2759 0.950 . S
C2771 C2767 1.393 1_545 S
C2771 C2770 1.391 . S
H2772 C2780 0.950 . S
H2773 C2785 0.950 . S
H2774 C2782 0.950 . S
H2775 C2784 0.950 . S
H2776 C2786 0.950 . S
H2777 C2788 0.950 . S
H2778 C2790 0.950 . S
H2779 C2791 0.950 . S
C2780 H2772 0.950 . S
C2780 C2781 1.386 . S
C2780 C2782 1.391 . S
C2781 C2780 1.386 . S
C2781 C2785 1.393 . S
C2782 H2774 0.950 . S
C2782 C2780 1.391 . S
C2782 C2783 1.400 . S
C2783 C2782 1.400 . S
C2783 C2784 1.398 . S
C2783 C2789 1.491 . S
C2784 H2775 0.950 . S
C2784 C2783 1.398 . S
C2784 C2785 1.391 . S
C2785 H2773 0.950 . S
C2785 C2781 1.393 . S
C2785 C2784 1.391 . S
C2786 H2776 0.950 . S
C2786 C2787 1.386 . S
C2786 C2788 1.391 . S
C2787 C2786 1.386 . S
C2787 C2791 1.393 . S
C2788 H2777 0.950 . S
C2788 C2786 1.391 . S
C2788 C2789 1.400 . S
C2789 C2783 1.491 . S
C2789 C2788 1.400 . S
C2789 C2790 1.398 . S
C2790 H2778 0.950 . S
C2790 C2789 1.398 . S
C2790 C2791 1.391 . S
C2791 H2779 0.950 . S
C2791 C2787 1.393 . S
C2791 C2790 1.391 . S
H2792 C2800 0.950 . S
H2793 C2805 0.950 . S
H2794 C2802 0.950 . S
H2795 C2804 0.950 . S
H2796 C2806 0.950 . S
H2797 C2808 0.950 . S
H2798 C2810 0.950 . S
H2799 C2811 0.950 . S
C2800 H2792 0.950 . S
C2800 C2801 1.386 1_545 S
C2800 C2802 1.391 . S
C2801 C2800 1.386 1_565 S
C2801 C2805 1.393 . S
C2802 H2794 0.950 . S
C2802 C2800 1.391 . S
C2802 C2803 1.400 1_545 S
C2803 C2802 1.400 1_565 S
C2803 C2804 1.398 . S
C2803 C2809 1.491 1_565 S
C2804 H2795 0.950 . S
C2804 C2803 1.398 . S
C2804 C2805 1.391 . S
C2805 H2793 0.950 . S
C2805 C2801 1.393 . S
C2805 C2804 1.391 . S
C2806 H2796 0.950 . S
C2806 C2807 1.386 1_565 S
C2806 C2808 1.391 . S
C2807 C2806 1.386 1_545 S
C2807 C2811 1.393 . S
C2808 H2797 0.950 . S
C2808 C2806 1.391 . S
C2808 C2809 1.400 1_565 S
C2809 C2803 1.491 1_545 S
C2809 C2808 1.400 1_545 S
C2809 C2810 1.398 . S
C2810 H2798 0.950 . S
C2810 C2809 1.398 . S
C2810 C2811 1.391 . S
C2811 H2799 0.950 . S
C2811 C2807 1.393 . S
C2811 C2810 1.391 . S
H2812 C2820 0.950 . S
H2813 C2825 0.950 . S
H2814 C2822 0.950 . S
H2815 C2824 0.950 . S
H2816 C2826 0.950 . S
H2817 C2828 0.950 . S
H2818 C2830 0.950 . S
H2819 C2831 0.950 . S
C2820 H2812 0.950 . S
C2820 C2821 1.386 . S
C2820 C2822 1.391 . S
C2821 C2820 1.386 . S
C2821 C2825 1.393 . S
C2822 H2814 0.950 . S
C2822 C2820 1.391 . S
C2822 C2823 1.400 . S
C2823 C2822 1.400 . S
C2823 C2824 1.398 . S
C2823 C2829 1.491 1_556 S
C2824 H2815 0.950 . S
C2824 C2823 1.398 . S
C2824 C2825 1.391 . S
C2825 H2813 0.950 . S
C2825 C2821 1.393 . S
C2825 C2824 1.391 . S
C2826 H2816 0.950 . S
C2826 C2827 1.386 . S
C2826 C2828 1.391 . S
C2827 C2826 1.386 . S
C2827 C2831 1.393 . S
C2828 H2817 0.950 . S
C2828 C2826 1.391 . S
C2828 C2829 1.400 . S
C2829 C2823 1.491 1_554 S
C2829 C2828 1.400 . S
C2829 C2830 1.398 . S
C2830 H2818 0.950 . S
C2830 C2829 1.398 . S
C2830 C2831 1.391 . S
C2831 H2819 0.950 . S
C2831 C2827 1.393 . S
C2831 C2830 1.391 . S
H2832 C2840 0.950 . S
H2833 C2845 0.950 . S
H2834 C2842 0.950 . S
H2835 C2844 0.945 1_556 S
H2836 C2846 0.950 . S
H2837 C2848 0.950 . S
H2838 C2850 0.945 1_554 S
H2839 C2851 0.950 . S
C2840 H2832 0.950 . S
C2840 C2841 1.386 . S
C2840 C2842 1.391 . S
C2841 C2840 1.386 . S
C2841 C2845 1.393 . S
C2842 H2834 0.950 . S
C2842 C2840 1.391 . S
C2842 C2843 1.400 . S
C2843 C2842 1.400 . S
C2843 C2844 1.400 . S
C2843 C2849 1.491 1_554 S
C2844 H2835 0.945 1_554 S
C2844 C2843 1.400 . S
C2844 C2845 1.395 . S
C2845 H2833 0.950 . S
C2845 C2841 1.393 . S
C2845 C2844 1.395 . S
C2846 H2836 0.950 . S
C2846 C2847 1.386 . S
C2846 C2848 1.391 . S
C2847 C2846 1.386 . S
C2847 C2851 1.393 . S
C2848 H2837 0.950 . S
C2848 C2846 1.391 . S
C2848 C2849 1.400 . S
C2849 C2843 1.491 1_556 S
C2849 C2848 1.400 . S
C2849 C2850 1.400 . S
C2850 H2838 0.945 1_556 S
C2850 C2849 1.400 . S
C2850 C2851 1.395 . S
C2851 H2839 0.950 . S
C2851 C2847 1.393 . S
C2851 C2850 1.395 . S
H2852 C2860 0.950 . S
H2853 C2865 0.950 . S
H2854 C2862 0.950 . S
H2855 C2864 0.950 . S
H2856 C2866 0.950 . S
H2857 C2868 0.950 . S
H2858 C2870 0.950 . S
H2859 C2871 0.950 . S
C2860 H2852 0.950 . S
C2860 C2861 1.386 . S
C2860 C2862 1.391 . S
C2861 C2860 1.386 . S
C2861 C2865 1.393 1_556 S
C2862 H2854 0.950 . S
C2862 C2860 1.391 . S
C2862 C2863 1.400 . S
C2863 C2862 1.400 . S
C2863 C2864 1.398 1_556 S
C2863 C2869 1.491 1_556 S
C2864 H2855 0.950 . S
C2864 C2863 1.398 1_554 S
C2864 C2865 1.391 . S
C2865 H2853 0.950 . S
C2865 C2861 1.393 1_554 S
C2865 C2864 1.391 . S
C2866 H2856 0.950 . S
C2866 C2867 1.386 . S
C2866 C2868 1.391 . S
C2867 C2866 1.386 . S
C2867 C2871 1.393 1_554 S
C2868 H2857 0.950 . S
C2868 C2866 1.391 . S
C2868 C2869 1.400 . S
C2869 C2863 1.491 1_554 S
C2869 C2868 1.400 . S
C2869 C2870 1.398 1_554 S
C2870 H2858 0.950 . S
C2870 C2869 1.398 1_556 S
C2870 C2871 1.391 . S
C2871 H2859 0.950 . S
C2871 C2867 1.393 1_556 S
C2871 C2870 1.391 . S
H2872 C2880 0.950 . S
H2873 C2885 0.950 . S
H2874 C2882 0.950 . S
H2875 C2884 0.950 . S
H2876 C2886 0.950 . S
H2877 C2888 0.950 . S
H2878 C2890 0.950 . S
H2879 C2891 0.950 . S
C2880 H2872 0.950 . S
C2880 C2881 1.386 . S
C2880 C2882 1.391 . S
C2881 C2880 1.386 . S
C2881 C2885 1.393 . S
C2882 H2874 0.950 . S
C2882 C2880 1.391 . S
C2882 C2883 1.400 . S
C2883 C2882 1.400 . S
C2883 C2884 1.398 . S
C2883 C2889 1.491 . S
C2884 H2875 0.950 . S
C2884 C2883 1.398 . S
C2884 C2885 1.391 . S
C2885 H2873 0.950 . S
C2885 C2881 1.393 . S
C2885 C2884 1.391 . S
C2886 H2876 0.950 . S
C2886 C2887 1.386 . S
C2886 C2888 1.391 . S
C2887 C2886 1.386 . S
C2887 C2891 1.393 . S
C2888 H2877 0.950 . S
C2888 C2886 1.391 . S
C2888 C2889 1.400 . S
C2889 C2883 1.491 . S
C2889 C2888 1.400 . S
C2889 C2890 1.398 . S
C2890 H2878 0.950 . S
C2890 C2889 1.398 . S
C2890 C2891 1.391 . S
C2891 H2879 0.950 . S
C2891 C2887 1.393 . S
C2891 C2890 1.391 . S
H2892 C2900 0.950 . S
H2893 C2905 0.950 . S
H2894 C2902 0.950 . S
H2895 C2904 0.950 . S
H2896 C2906 0.950 . S
H2897 C2908 0.950 . S
H2898 C2910 0.950 . S
H2899 C2911 0.950 . S
C2900 H2892 0.950 . S
C2900 C2901 1.386 . S
C2900 C2902 1.391 . S
C2901 C2900 1.386 . S
C2901 C2905 1.393 . S
C2902 H2894 0.950 . S
C2902 C2900 1.391 . S
C2902 C2903 1.400 . S
C2903 C2902 1.400 . S
C2903 C2904 1.398 . S
C2903 C2909 1.491 . S
C2904 H2895 0.950 . S
C2904 C2903 1.398 . S
C2904 C2905 1.391 . S
C2905 H2893 0.950 . S
C2905 C2901 1.393 . S
C2905 C2904 1.391 . S
C2906 H2896 0.950 . S
C2906 C2907 1.386 . S
C2906 C2908 1.391 . S
C2907 C2906 1.386 . S
C2907 C2911 1.393 . S
C2908 H2897 0.950 . S
C2908 C2906 1.391 . S
C2908 C2909 1.400 . S
C2909 C2903 1.491 . S
C2909 C2908 1.400 . S
C2909 C2910 1.398 . S
C2910 H2898 0.950 . S
C2910 C2909 1.398 . S
C2910 C2911 1.391 . S
C2911 H2899 0.950 . S
C2911 C2907 1.393 . S
C2911 C2910 1.391 . S
H2912 C2920 0.950 . S
H2913 C2925 0.950 . S
H2914 C2922 0.950 . S
H2915 C2924 0.950 . S
H2916 C2926 0.950 . S
H2917 C2928 0.950 . S
H2918 C2930 0.950 . S
H2919 C2931 0.950 . S
C2920 H2912 0.950 . S
C2920 C2921 1.386 . S
C2920 C2922 1.391 . S
C2921 C2920 1.386 . S
C2921 C2925 1.393 . S
C2922 H2914 0.950 . S
C2922 C2920 1.391 . S
C2922 C2923 1.400 . S
C2923 C2922 1.400 . S
C2923 C2924 1.398 . S
C2923 C2929 1.491 1_565 S
C2924 H2915 0.950 . S
C2924 C2923 1.398 . S
C2924 C2925 1.391 . S
C2925 H2913 0.950 . S
C2925 C2921 1.393 . S
C2925 C2924 1.391 . S
C2926 H2916 0.950 . S
C2926 C2927 1.386 . S
C2926 C2928 1.391 . S
C2927 C2926 1.386 . S
C2927 C2931 1.393 . S
C2928 H2917 0.950 . S
C2928 C2926 1.391 . S
C2928 C2929 1.400 . S
C2929 C2923 1.491 1_545 S
C2929 C2928 1.400 . S
C2929 C2930 1.398 . S
C2930 H2918 0.950 . S
C2930 C2929 1.398 . S
C2930 C2931 1.391 . S
C2931 H2919 0.950 . S
C2931 C2927 1.393 . S
C2931 C2930 1.391 . S
H2932 C2940 0.950 . S
H2933 C2945 0.950 . S
H2934 C2942 0.950 . S
H2935 C2944 0.950 . S
H2936 C2946 0.950 . S
H2937 C2948 0.950 . S
H2938 C2950 0.950 . S
H2939 C2951 0.950 . S
C2940 H2932 0.950 . S
C2940 C2941 1.386 . S
C2940 C2942 1.391 . S
C2941 C2940 1.386 . S
C2941 C2945 1.393 . S
C2942 H2934 0.950 . S
C2942 C2940 1.391 . S
C2942 C2943 1.400 . S
C2943 C2942 1.400 . S
C2943 C2944 1.398 . S
C2943 C2949 1.491 . S
C2944 H2935 0.950 . S
C2944 C2943 1.398 . S
C2944 C2945 1.391 . S
C2945 H2933 0.950 . S
C2945 C2941 1.393 . S
C2945 C2944 1.391 . S
C2946 H2936 0.950 . S
C2946 C2947 1.386 . S
C2946 C2948 1.391 . S
C2947 C2946 1.386 . S
C2947 C2951 1.393 . S
C2948 H2937 0.950 . S
C2948 C2946 1.391 . S
C2948 C2949 1.400 . S
C2949 C2943 1.491 . S
C2949 C2948 1.400 . S
C2949 C2950 1.398 . S
C2950 H2938 0.950 . S
C2950 C2949 1.398 . S
C2950 C2951 1.391 . S
C2951 H2939 0.950 . S
C2951 C2947 1.393 . S
C2951 C2950 1.391 . S
H2952 C2960 0.950 . S
H2953 C2965 0.950 . S
H2954 C2962 0.950 . S
H2955 C2964 0.950 . S
H2956 C2966 0.950 . S
H2957 C2968 0.950 . S
H2958 C2970 0.950 . S
H2959 C2971 0.950 . S
C2960 H2952 0.950 . S
C2960 C2961 1.386 . S
C2960 C2962 1.391 . S
C2961 C2960 1.386 . S
C2961 C2965 1.393 . S
C2962 H2954 0.950 . S
C2962 C2960 1.391 . S
C2962 C2963 1.400 . S
C2963 C2962 1.400 . S
C2963 C2964 1.398 . S
C2963 C2969 1.491 . S
C2964 H2955 0.950 . S
C2964 C2963 1.398 . S
C2964 C2965 1.391 . S
C2965 H2953 0.950 . S
C2965 C2961 1.393 . S
C2965 C2964 1.391 . S
C2966 H2956 0.950 . S
C2966 C2967 1.386 . S
C2966 C2968 1.391 . S
C2967 C2966 1.386 . S
C2967 C2971 1.393 . S
C2968 H2957 0.950 . S
C2968 C2966 1.391 . S
C2968 C2969 1.400 . S
C2969 C2963 1.491 . S
C2969 C2968 1.400 . S
C2969 C2970 1.398 . S
C2970 H2958 0.950 . S
C2970 C2969 1.398 . S
C2970 C2971 1.391 . S
C2971 H2959 0.950 . S
C2971 C2967 1.393 . S
C2971 C2970 1.391 . S
H2972 C2980 0.950 . S
H2973 C2985 0.950 . S
H2974 C2982 0.950 . S
H2975 C2984 0.950 . S
H2976 C2986 0.950 . S
H2977 C2988 0.950 . S
H2978 C2990 0.950 . S
H2979 C2991 0.950 . S
C2980 H2972 0.950 . S
C2980 C2981 1.386 . S
C2980 C2982 1.391 . S
C2981 C2980 1.386 . S
C2981 C2985 1.393 . S
C2982 H2974 0.950 . S
C2982 C2980 1.391 . S
C2982 C2983 1.400 . S
C2983 C2982 1.400 . S
C2983 C2984 1.398 . S
C2983 C2989 1.491 . S
C2984 H2975 0.950 . S
C2984 C2983 1.398 . S
C2984 C2985 1.391 . S
C2985 H2973 0.950 . S
C2985 C2981 1.393 . S
C2985 C2984 1.391 . S
C2986 H2976 0.950 . S
C2986 C2987 1.386 . S
C2986 C2988 1.391 . S
C2987 C2986 1.386 . S
C2987 C2991 1.393 . S
C2988 H2977 0.950 . S
C2988 C2986 1.391 . S
C2988 C2989 1.400 . S
C2989 C2983 1.491 . S
C2989 C2988 1.400 . S
C2989 C2990 1.398 . S
C2990 H2978 0.950 . S
C2990 C2989 1.398 . S
C2990 C2991 1.391 . S
C2991 H2979 0.950 . S
C2991 C2987 1.393 . S
C2991 C2990 1.391 . S
H2992 C3000 0.950 . S
H2993 C3005 0.950 . S
H2994 C3002 0.950 . S
H2995 C3004 0.950 . S
H2996 C3006 0.950 . S
H2997 C3008 0.950 . S
H2998 C3010 0.950 . S
H2999 C3011 0.950 . S
C3000 H2992 0.950 . S
C3000 C3001 1.386 . S
C3000 C3002 1.391 . S
C3001 C3000 1.386 . S
C3001 C3005 1.393 . S
C3002 H2994 0.950 . S
C3002 C3000 1.391 . S
C3002 C3003 1.400 . S
C3003 C3002 1.400 . S
C3003 C3004 1.398 . S
C3003 C3009 1.491 1_556 S
C3004 H2995 0.950 . S
C3004 C3003 1.398 . S
C3004 C3005 1.391 . S
C3005 H2993 0.950 . S
C3005 C3001 1.393 . S
C3005 C3004 1.391 . S
C3006 H2996 0.950 . S
C3006 C3007 1.386 . S
C3006 C3008 1.391 . S
C3007 C3006 1.386 . S
C3007 C3011 1.393 . S
C3008 H2997 0.950 . S
C3008 C3006 1.391 . S
C3008 C3009 1.400 . S
C3009 C3003 1.491 1_554 S
C3009 C3008 1.400 . S
C3009 C3010 1.398 . S
C3010 H2998 0.950 . S
C3010 C3009 1.398 . S
C3010 C3011 1.391 . S
C3011 H2999 0.950 . S
C3011 C3007 1.393 . S
C3011 C3010 1.391 . S
H3012 C3020 0.950 . S
H3013 C3025 0.950 . S
H3014 C3022 0.950 . S
H3015 C3024 0.950 . S
H3016 C3026 0.950 . S
H3017 C3028 0.950 . S
H3018 C3030 0.950 . S
H3019 C3031 0.950 . S
C3020 H3012 0.950 . S
C3020 C3021 1.386 . S
C3020 C3022 1.391 . S
C3021 C3020 1.386 . S
C3021 C3025 1.393 . S
C3022 H3014 0.950 . S
C3022 C3020 1.391 . S
C3022 C3023 1.400 . S
C3023 C3022 1.400 . S
C3023 C3024 1.398 . S
C3023 C3029 1.491 . S
C3024 H3015 0.950 . S
C3024 C3023 1.398 . S
C3024 C3025 1.391 . S
C3025 H3013 0.950 . S
C3025 C3021 1.393 . S
C3025 C3024 1.391 . S
C3026 H3016 0.950 . S
C3026 C3027 1.386 . S
C3026 C3028 1.391 . S
C3027 C3026 1.386 . S
C3027 C3031 1.393 . S
C3028 H3017 0.950 . S
C3028 C3026 1.391 . S
C3028 C3029 1.400 . S
C3029 C3023 1.491 . S
C3029 C3028 1.400 . S
C3029 C3030 1.398 . S
C3030 H3018 0.950 . S
C3030 C3029 1.398 . S
C3030 C3031 1.391 . S
C3031 H3019 0.950 . S
C3031 C3027 1.393 . S
C3031 C3030 1.391 . S
H3032 C3040 0.950 . S
H3033 C3045 0.950 . S
H3034 C3042 0.950 . S
H3035 C3044 0.950 . S
H3036 C3046 0.950 . S
H3037 C3048 0.950 . S
H3038 C3050 0.950 . S
H3039 C3051 0.950 . S
C3040 H3032 0.950 . S
C3040 C3041 1.386 . S
C3040 C3042 1.391 . S
C3041 C3040 1.386 . S
C3041 C3045 1.393 . S
C3042 H3034 0.950 . S
C3042 C3040 1.391 . S
C3042 C3043 1.400 . S
C3043 C3042 1.400 . S
C3043 C3044 1.398 . S
C3043 C3049 1.491 . S
C3044 H3035 0.950 . S
C3044 C3043 1.398 . S
C3044 C3045 1.391 . S
C3045 H3033 0.950 . S
C3045 C3041 1.393 . S
C3045 C3044 1.391 . S
C3046 H3036 0.950 . S
C3046 C3047 1.386 . S
C3046 C3048 1.391 . S
C3047 C3046 1.386 . S
C3047 C3051 1.393 . S
C3048 H3037 0.950 . S
C3048 C3046 1.391 . S
C3048 C3049 1.400 . S
C3049 C3043 1.491 . S
C3049 C3048 1.400 . S
C3049 C3050 1.398 . S
C3050 H3038 0.950 . S
C3050 C3049 1.398 . S
C3050 C3051 1.391 . S
C3051 H3039 0.950 . S
C3051 C3047 1.393 . S
C3051 C3050 1.391 . S
H3052 C3060 0.950 . S
H3053 C3065 0.950 . S
H3054 C3062 0.950 . S
H3055 C3064 0.950 . S
H3056 C3066 0.950 . S
H3057 C3068 0.950 . S
H3058 C3070 0.950 . S
H3059 C3071 0.950 . S
C3060 H3052 0.950 . S
C3060 C3061 1.386 . S
C3060 C3062 1.391 . S
C3061 C3060 1.386 . S
C3061 C3065 1.393 . S
C3062 H3054 0.950 . S
C3062 C3060 1.391 . S
C3062 C3063 1.400 . S
C3063 C3062 1.400 . S
C3063 C3064 1.398 . S
C3063 C3069 1.491 1_565 S
C3064 H3055 0.950 . S
C3064 C3063 1.398 . S
C3064 C3065 1.391 . S
C3065 H3053 0.950 . S
C3065 C3061 1.393 . S
C3065 C3064 1.391 . S
C3066 H3056 0.950 . S
C3066 C3067 1.386 . S
C3066 C3068 1.391 . S
C3067 C3066 1.386 . S
C3067 C3071 1.393 . S
C3068 H3057 0.950 . S
C3068 C3066 1.391 . S
C3068 C3069 1.400 . S
C3069 C3063 1.491 1_545 S
C3069 C3068 1.400 . S
C3069 C3070 1.398 . S
C3070 H3058 0.950 . S
C3070 C3069 1.398 . S
C3070 C3071 1.391 . S
C3071 H3059 0.950 . S
C3071 C3067 1.393 . S
C3071 C3070 1.391 . S
H3072 C3080 0.950 . S
H3073 C3085 0.950 . S
H3074 C3082 0.950 . S
H3075 C3084 0.950 . S
H3076 C3086 0.950 . S
H3077 C3088 0.950 . S
H3078 C3090 0.950 . S
H3079 C3091 0.950 . S
C3080 H3072 0.950 . S
C3080 C3081 1.386 . S
C3080 C3082 1.391 . S
C3081 C3080 1.386 . S
C3081 C3085 1.393 . S
C3082 H3074 0.950 . S
C3082 C3080 1.391 . S
C3082 C3083 1.400 . S
C3083 C3082 1.400 . S
C3083 C3084 1.398 . S
C3083 C3089 1.491 . S
C3084 H3075 0.950 . S
C3084 C3083 1.398 . S
C3084 C3085 1.391 . S
C3085 H3073 0.950 . S
C3085 C3081 1.393 . S
C3085 C3084 1.391 . S
C3086 H3076 0.950 . S
C3086 C3087 1.386 . S
C3086 C3088 1.391 . S
C3087 C3086 1.386 . S
C3087 C3091 1.393 . S
C3088 H3077 0.950 . S
C3088 C3086 1.391 . S
C3088 C3089 1.400 . S
C3089 C3083 1.491 . S
C3089 C3088 1.400 . S
C3089 C3090 1.398 . S
C3090 H3078 0.950 . S
C3090 C3089 1.398 . S
C3090 C3091 1.391 . S
C3091 H3079 0.950 . S
C3091 C3087 1.393 . S
C3091 C3090 1.391 . S
H3092 C3100 0.950 . S
H3093 C3105 0.950 . S
H3094 C3102 0.950 . S
H3095 C3104 0.950 . S
H3096 C3106 0.950 . S
H3097 C3108 0.950 . S
H3098 C3110 0.950 . S
H3099 C3111 0.950 . S
C3100 H3092 0.950 . S
C3100 C3101 1.386 . S
C3100 C3102 1.391 . S
C3101 C3100 1.386 . S
C3101 C3105 1.393 . S
C3102 H3094 0.950 . S
C3102 C3100 1.391 . S
C3102 C3103 1.400 . S
C3103 C3102 1.400 . S
C3103 C3104 1.398 . S
C3103 C3109 1.491 . S
C3104 H3095 0.950 . S
C3104 C3103 1.398 . S
C3104 C3105 1.391 . S
C3105 H3093 0.950 . S
C3105 C3101 1.393 . S
C3105 C3104 1.391 . S
C3106 H3096 0.950 . S
C3106 C3107 1.386 . S
C3106 C3108 1.391 . S
C3107 C3106 1.386 . S
C3107 C3111 1.393 . S
C3108 H3097 0.950 . S
C3108 C3106 1.391 . S
C3108 C3109 1.400 . S
C3109 C3103 1.491 . S
C3109 C3108 1.400 . S
C3109 C3110 1.398 . S
C3110 H3098 0.950 . S
C3110 C3109 1.398 . S
C3110 C3111 1.391 . S
C3111 H3099 0.950 . S
C3111 C3107 1.393 . S
C3111 C3110 1.391 . S
H3112 C3120 0.950 . S
H3113 C3125 0.950 . S
H3114 C3122 0.950 . S
H3115 C3124 0.950 . S
H3116 C3126 0.950 . S
H3117 C3128 0.950 . S
H3118 C3130 0.950 . S
H3119 C3131 0.950 . S
C3120 H3112 0.950 . S
C3120 C3121 1.386 . S
C3120 C3122 1.391 . S
C3121 C3120 1.386 . S
C3121 C3125 1.393 . S
C3122 H3114 0.950 . S
C3122 C3120 1.391 . S
C3122 C3123 1.400 . S
C3123 C3122 1.400 . S
C3123 C3124 1.398 . S
C3123 C3129 1.491 . S
C3124 H3115 0.950 . S
C3124 C3123 1.398 . S
C3124 C3125 1.391 . S
C3125 H3113 0.950 . S
C3125 C3121 1.393 . S
C3125 C3124 1.391 . S
C3126 H3116 0.950 . S
C3126 C3127 1.386 . S
C3126 C3128 1.391 . S
C3127 C3126 1.386 . S
C3127 C3131 1.393 . S
C3128 H3117 0.950 . S
C3128 C3126 1.391 . S
C3128 C3129 1.400 . S
C3129 C3123 1.491 . S
C3129 C3128 1.400 . S
C3129 C3130 1.398 . S
C3130 H3118 0.950 . S
C3130 C3129 1.398 . S
C3130 C3131 1.391 . S
C3131 H3119 0.950 . S
C3131 C3127 1.393 . S
C3131 C3130 1.391 . S
H3132 C3140 0.950 . S
H3133 C3145 0.950 . S
H3134 C3142 0.950 . S
H3135 C3144 0.950 . S
H3136 C3146 0.950 . S
H3137 C3148 0.950 . S
H3138 C3150 0.950 . S
H3139 C3151 0.950 . S
C3140 H3132 0.950 . S
C3140 C3141 1.386 . S
C3140 C3142 1.391 . S
C3141 C3140 1.386 . S
C3141 C3145 1.393 . S
C3142 H3134 0.950 . S
C3142 C3140 1.391 . S
C3142 C3143 1.400 . S
C3143 C3142 1.400 . S
C3143 C3144 1.398 . S
C3143 C3149 1.491 . S
C3144 H3135 0.950 . S
C3144 C3143 1.398 . S
C3144 C3145 1.391 . S
C3145 H3133 0.950 . S
C3145 C3141 1.393 . S
C3145 C3144 1.391 . S
C3146 H3136 0.950 . S
C3146 C3147 1.386 . S
C3146 C3148 1.391 . S
C3147 C3146 1.386 . S
C3147 C3151 1.393 . S
C3148 H3137 0.950 . S
C3148 C3146 1.391 . S
C3148 C3149 1.400 . S
C3149 C3143 1.491 . S
C3149 C3148 1.400 . S
C3149 C3150 1.398 . S
C3150 H3138 0.950 . S
C3150 C3149 1.398 . S
C3150 C3151 1.391 . S
C3151 H3139 0.950 . S
C3151 C3147 1.393 . S
C3151 C3150 1.391 . S
H3152 C3160 0.950 . S
H3153 C3165 0.950 . S
H3154 C3162 0.950 . S
H3155 C3164 0.950 . S
H3156 C3166 0.950 . S
H3157 C3168 0.950 . S
H3158 C3170 0.950 . S
H3159 C3171 0.950 . S
C3160 H3152 0.950 . S
C3160 C3161 1.386 . S
C3160 C3162 1.391 . S
C3161 C3160 1.386 . S
C3161 C3165 1.393 . S
C3162 H3154 0.950 . S
C3162 C3160 1.391 . S
C3162 C3163 1.400 . S
C3163 C3162 1.400 . S
C3163 C3164 1.398 . S
C3163 C3169 1.491 . S
C3164 H3155 0.950 . S
C3164 C3163 1.398 . S
C3164 C3165 1.391 . S
C3165 H3153 0.950 . S
C3165 C3161 1.393 . S
C3165 C3164 1.391 . S
C3166 H3156 0.950 . S
C3166 C3167 1.386 . S
C3166 C3168 1.391 . S
C3167 C3166 1.386 . S
C3167 C3171 1.393 . S
C3168 H3157 0.950 . S
C3168 C3166 1.391 . S
C3168 C3169 1.400 . S
C3169 C3163 1.491 . S
C3169 C3168 1.400 . S
C3169 C3170 1.398 . S
C3170 H3158 0.950 . S
C3170 C3169 1.398 . S
C3170 C3171 1.391 . S
C3171 H3159 0.950 . S
C3171 C3167 1.393 . S
C3171 C3170 1.391 . S
H3172 C3180 0.950 . S
H3173 C3185 0.950 . S
H3174 C3182 0.950 . S
H3175 C3184 0.950 . S
H3176 C3186 0.950 . S
H3177 C3188 0.950 . S
H3178 C3190 0.950 . S
H3179 C3191 0.950 . S
C3180 H3172 0.950 . S
C3180 C3181 1.386 . S
C3180 C3182 1.391 . S
C3181 C3180 1.386 . S
C3181 C3185 1.393 . S
C3182 H3174 0.950 . S
C3182 C3180 1.391 . S
C3182 C3183 1.400 . S
C3183 C3182 1.400 . S
C3183 C3184 1.398 . S
C3183 C3189 1.491 . S
C3184 H3175 0.950 . S
C3184 C3183 1.398 . S
C3184 C3185 1.391 . S
C3185 H3173 0.950 . S
C3185 C3181 1.393 . S
C3185 C3184 1.391 . S
C3186 H3176 0.950 . S
C3186 C3187 1.386 . S
C3186 C3188 1.391 . S
C3187 C3186 1.386 . S
C3187 C3191 1.393 . S
C3188 H3177 0.950 . S
C3188 C3186 1.391 . S
C3188 C3189 1.400 . S
C3189 C3183 1.491 . S
C3189 C3188 1.400 . S
C3189 C3190 1.398 . S
C3190 H3178 0.950 . S
C3190 C3189 1.398 . S
C3190 C3191 1.391 . S
C3191 H3179 0.950 . S
C3191 C3187 1.393 . S
C3191 C3190 1.391 . S
H3192 C3200 0.950 . S
H3193 C3205 0.950 . S
H3194 C3202 0.950 . S
H3195 C3204 0.950 . S
H3196 C3206 0.950 . S
H3197 C3208 0.950 . S
H3198 C3210 0.950 . S
H3199 C3211 0.950 . S
C3200 H3192 0.950 . S
C3200 C3201 1.386 . S
C3200 C3202 1.391 . S
C3201 C3200 1.386 . S
C3201 C3205 1.393 . S
C3202 H3194 0.950 . S
C3202 C3200 1.391 . S
C3202 C3203 1.400 . S
C3203 C3202 1.400 . S
C3203 C3204 1.398 . S
C3203 C3209 1.491 . S
C3204 H3195 0.950 . S
C3204 C3203 1.398 . S
C3204 C3205 1.391 . S
C3205 H3193 0.950 . S
C3205 C3201 1.393 . S
C3205 C3204 1.391 . S
C3206 H3196 0.950 . S
C3206 C3207 1.386 . S
C3206 C3208 1.391 . S
C3207 C3206 1.386 . S
C3207 C3211 1.393 . S
C3208 H3197 0.950 . S
C3208 C3206 1.391 . S
C3208 C3209 1.400 . S
C3209 C3203 1.491 . S
C3209 C3208 1.400 . S
C3209 C3210 1.398 . S
C3210 H3198 0.950 . S
C3210 C3209 1.398 . S
C3210 C3211 1.391 . S
C3211 H3199 0.950 . S
C3211 C3207 1.393 . S
C3211 C3210 1.391 . S
H3212 C3220 0.950 . S
H3213 C3225 0.950 . S
H3214 C3222 0.950 . S
H3215 C3224 0.950 . S
H3216 C3226 0.950 . S
H3217 C3228 0.950 . S
H3218 C3230 0.950 . S
H3219 C3231 0.950 . S
C3220 H3212 0.950 . S
C3220 C3221 1.386 . S
C3220 C3222 1.391 . S
C3221 C3220 1.386 . S
C3221 C3225 1.393 . S
C3222 H3214 0.950 . S
C3222 C3220 1.391 . S
C3222 C3223 1.400 . S
C3223 C3222 1.400 . S
C3223 C3224 1.398 . S
C3223 C3229 1.491 . S
C3224 H3215 0.950 . S
C3224 C3223 1.398 . S
C3224 C3225 1.391 . S
C3225 H3213 0.950 . S
C3225 C3221 1.393 . S
C3225 C3224 1.391 . S
C3226 H3216 0.950 . S
C3226 C3227 1.386 . S
C3226 C3228 1.391 . S
C3227 C3226 1.386 . S
C3227 C3231 1.393 . S
C3228 H3217 0.950 . S
C3228 C3226 1.391 . S
C3228 C3229 1.400 . S
C3229 C3223 1.491 . S
C3229 C3228 1.400 . S
C3229 C3230 1.398 . S
C3230 H3218 0.950 . S
C3230 C3229 1.398 . S
C3230 C3231 1.391 . S
C3231 H3219 0.950 . S
C3231 C3227 1.393 . S
C3231 C3230 1.391 . S
H3232 C3240 0.950 . S
H3233 C3245 0.950 . S
H3234 C3242 0.950 . S
H3235 C3244 0.950 . S
H3236 C3246 0.950 . S
H3237 C3248 0.950 . S
H3238 C3250 0.950 . S
H3239 C3251 0.950 . S
C3240 H3232 0.950 . S
C3240 C3241 1.386 . S
C3240 C3242 1.391 . S
C3241 C3240 1.386 . S
C3241 C3245 1.393 . S
C3242 H3234 0.950 . S
C3242 C3240 1.391 . S
C3242 C3243 1.400 . S
C3243 C3242 1.400 . S
C3243 C3244 1.398 . S
C3243 C3249 1.491 . S
C3244 H3235 0.950 . S
C3244 C3243 1.398 . S
C3244 C3245 1.391 . S
C3245 H3233 0.950 . S
C3245 C3241 1.393 . S
C3245 C3244 1.391 . S
C3246 H3236 0.950 . S
C3246 C3247 1.386 . S
C3246 C3248 1.391 . S
C3247 C3246 1.386 . S
C3247 C3251 1.393 . S
C3248 H3237 0.950 . S
C3248 C3246 1.391 . S
C3248 C3249 1.400 . S
C3249 C3243 1.491 . S
C3249 C3248 1.400 . S
C3249 C3250 1.398 . S
C3250 H3238 0.950 . S
C3250 C3249 1.398 . S
C3250 C3251 1.391 . S
C3251 H3239 0.950 . S
C3251 C3247 1.393 . S
C3251 C3250 1.391 . S
H3252 C3260 0.950 . S
H3253 C3265 0.950 . S
H3254 C3262 0.950 . S
H3255 C3264 0.950 . S
H3256 C3266 0.950 . S
H3257 C3268 0.950 . S
H3258 C3270 0.950 . S
H3259 C3271 0.950 . S
C3260 H3252 0.950 . S
C3260 C3261 1.386 . S
C3260 C3262 1.391 . S
C3261 C3260 1.386 . S
C3261 C3265 1.393 . S
C3262 H3254 0.950 . S
C3262 C3260 1.391 . S
C3262 C3263 1.400 . S
C3263 C3262 1.400 . S
C3263 C3264 1.398 . S
C3263 C3269 1.491 . S
C3264 H3255 0.950 . S
C3264 C3263 1.398 . S
C3264 C3265 1.391 . S
C3265 H3253 0.950 . S
C3265 C3261 1.393 . S
C3265 C3264 1.391 . S
C3266 H3256 0.950 . S
C3266 C3267 1.386 . S
C3266 C3268 1.391 . S
C3267 C3266 1.386 . S
C3267 C3271 1.393 . S
C3268 H3257 0.950 . S
C3268 C3266 1.391 . S
C3268 C3269 1.400 . S
C3269 C3263 1.491 . S
C3269 C3268 1.400 . S
C3269 C3270 1.398 . S
C3270 H3258 0.950 . S
C3270 C3269 1.398 . S
C3270 C3271 1.391 . S
C3271 H3259 0.950 . S
C3271 C3267 1.393 . S
C3271 C3270 1.391 . S
H3272 C3280 0.950 . S
H3273 C3285 0.950 . S
H3274 C3282 0.950 . S
H3275 C3284 0.950 . S
H3276 C3286 0.950 . S
H3277 C3288 0.950 . S
H3278 C3290 0.950 . S
H3279 C3291 0.950 . S
C3280 H3272 0.950 . S
C3280 C3281 1.386 . S
C3280 C3282 1.391 . S
C3281 C3280 1.386 . S
C3281 C3285 1.393 . S
C3282 H3274 0.950 . S
C3282 C3280 1.391 . S
C3282 C3283 1.400 . S
C3283 C3282 1.400 . S
C3283 C3284 1.398 . S
C3283 C3289 1.491 . S
C3284 H3275 0.950 . S
C3284 C3283 1.398 . S
C3284 C3285 1.391 . S
C3285 H3273 0.950 . S
C3285 C3281 1.393 . S
C3285 C3284 1.391 . S
C3286 H3276 0.950 . S
C3286 C3287 1.386 . S
C3286 C3288 1.391 . S
C3287 C3286 1.386 . S
C3287 C3291 1.393 . S
C3288 H3277 0.950 . S
C3288 C3286 1.391 . S
C3288 C3289 1.400 . S
C3289 C3283 1.491 . S
C3289 C3288 1.400 . S
C3289 C3290 1.398 . S
C3290 H3278 0.950 . S
C3290 C3289 1.398 . S
C3290 C3291 1.391 . S
C3291 H3279 0.950 . S
C3291 C3287 1.393 . S
C3291 C3290 1.391 . S
H3292 C3300 0.950 . S
H3293 C3305 0.950 . S
H3294 C3302 0.950 . S
H3295 C3304 0.950 . S
H3296 C3306 0.950 . S
H3297 C3308 0.950 . S
H3298 C3310 0.950 . S
H3299 C3311 0.950 . S
C3300 H3292 0.950 . S
C3300 C3301 1.386 . S
C3300 C3302 1.391 . S
C3301 C3300 1.386 . S
C3301 C3305 1.393 . S
C3302 H3294 0.950 . S
C3302 C3300 1.391 . S
C3302 C3303 1.400 . S
C3303 C3302 1.400 . S
C3303 C3304 1.398 . S
C3303 C3309 1.491 . S
C3304 H3295 0.950 . S
C3304 C3303 1.398 . S
C3304 C3305 1.391 . S
C3305 H3293 0.950 . S
C3305 C3301 1.393 . S
C3305 C3304 1.391 . S
C3306 H3296 0.950 . S
C3306 C3307 1.386 . S
C3306 C3308 1.391 . S
C3307 C3306 1.386 . S
C3307 C3311 1.393 . S
C3308 H3297 0.950 . S
C3308 C3306 1.391 . S
C3308 C3309 1.400 . S
C3309 C3303 1.491 . S
C3309 C3308 1.400 . S
C3309 C3310 1.398 . S
C3310 H3298 0.950 . S
C3310 C3309 1.398 . S
C3310 C3311 1.391 . S
C3311 H3299 0.950 . S
C3311 C3307 1.393 . S
C3311 C3310 1.391 . S
H3312 C3320 0.950 . S
H3313 C3325 0.950 . S
H3314 C3322 0.950 . S
H3315 C3324 0.950 . S
H3316 C3326 0.950 . S
H3317 C3328 0.950 . S
H3318 C3330 0.950 . S
H3319 C3331 0.950 . S
C3320 H3312 0.950 . S
C3320 C3321 1.386 . S
C3320 C3322 1.391 . S
C3321 C3320 1.386 . S
C3321 C3325 1.393 . S
C3322 H3314 0.950 . S
C3322 C3320 1.391 . S
C3322 C3323 1.400 . S
C3323 C3322 1.400 . S
C3323 C3324 1.398 . S
C3323 C3329 1.491 . S
C3324 H3315 0.950 . S
C3324 C3323 1.398 . S
C3324 C3325 1.391 . S
C3325 H3313 0.950 . S
C3325 C3321 1.393 . S
C3325 C3324 1.391 . S
C3326 H3316 0.950 . S
C3326 C3327 1.386 . S
C3326 C3328 1.391 . S
C3327 C3326 1.386 . S
C3327 C3331 1.393 . S
C3328 H3317 0.950 . S
C3328 C3326 1.391 . S
C3328 C3329 1.400 . S
C3329 C3323 1.491 . S
C3329 C3328 1.400 . S
C3329 C3330 1.398 . S
C3330 H3318 0.950 . S
C3330 C3329 1.398 . S
C3330 C3331 1.391 . S
C3331 H3319 0.950 . S
C3331 C3327 1.393 . S
C3331 C3330 1.391 . S
H3332 C3340 0.950 . S
H3333 C3345 0.950 . S
H3334 C3342 0.950 . S
H3335 C3344 0.950 . S
H3336 C3346 0.950 . S
H3337 C3348 0.950 . S
H3338 C3350 0.950 . S
H3339 C3351 0.950 . S
C3340 H3332 0.950 . S
C3340 C3341 1.386 . S
C3340 C3342 1.391 . S
C3341 C3340 1.386 . S
C3341 C3345 1.393 . S
C3342 H3334 0.950 . S
C3342 C3340 1.391 . S
C3342 C3343 1.400 . S
C3343 C3342 1.400 . S
C3343 C3344 1.398 . S
C3343 C3349 1.491 . S
C3344 H3335 0.950 . S
C3344 C3343 1.398 . S
C3344 C3345 1.391 . S
C3345 H3333 0.950 . S
C3345 C3341 1.393 . S
C3345 C3344 1.391 . S
C3346 H3336 0.950 . S
C3346 C3347 1.386 . S
C3346 C3348 1.391 . S
C3347 C3346 1.386 . S
C3347 C3351 1.393 . S
C3348 H3337 0.950 . S
C3348 C3346 1.391 . S
C3348 C3349 1.400 . S
C3349 C3343 1.491 . S
C3349 C3348 1.400 . S
C3349 C3350 1.398 . S
C3350 H3338 0.950 . S
C3350 C3349 1.398 . S
C3350 C3351 1.391 . S
C3351 H3339 0.950 . S
C3351 C3347 1.393 . S
C3351 C3350 1.391 . S
H3352 C3360 0.950 . S
H3353 C3365 0.950 . S
H3354 C3362 0.950 . S
H3355 C3364 0.950 . S
H3356 C3366 0.950 . S
H3357 C3368 0.950 . S
H3358 C3370 0.950 . S
H3359 C3371 0.950 . S
C3360 H3352 0.950 . S
C3360 C3361 1.386 . S
C3360 C3362 1.391 . S
C3361 C3360 1.386 . S
C3361 C3365 1.393 . S
C3362 H3354 0.950 . S
C3362 C3360 1.391 . S
C3362 C3363 1.400 . S
C3363 C3362 1.400 . S
C3363 C3364 1.398 . S
C3363 C3369 1.491 . S
C3364 H3355 0.950 . S
C3364 C3363 1.398 . S
C3364 C3365 1.391 . S
C3365 H3353 0.950 . S
C3365 C3361 1.393 . S
C3365 C3364 1.391 . S
C3366 H3356 0.950 . S
C3366 C3367 1.386 . S
C3366 C3368 1.391 . S
C3367 C3366 1.386 . S
C3367 C3371 1.393 . S
C3368 H3357 0.950 . S
C3368 C3366 1.391 . S
C3368 C3369 1.400 . S
C3369 C3363 1.491 . S
C3369 C3368 1.400 . S
C3369 C3370 1.398 . S
C3370 H3358 0.950 . S
C3370 C3369 1.398 . S
C3370 C3371 1.391 . S
C3371 H3359 0.950 . S
C3371 C3367 1.393 . S
C3371 C3370 1.391 . S
H3372 C3380 0.950 . S
H3373 C3385 0.950 . S
H3374 C3382 0.950 . S
H3375 C3384 0.950 . S
H3376 C3386 0.950 . S
H3377 C3388 0.950 . S
H3378 C3390 0.950 . S
H3379 C3391 0.950 . S
C3380 H3372 0.950 . S
C3380 C3381 1.386 . S
C3380 C3382 1.391 . S
C3381 C3380 1.386 . S
C3381 C3385 1.393 . S
C3382 H3374 0.950 . S
C3382 C3380 1.391 . S
C3382 C3383 1.400 . S
C3383 C3382 1.400 . S
C3383 C3384 1.398 . S
C3383 C3389 1.491 . S
C3384 H3375 0.950 . S
C3384 C3383 1.398 . S
C3384 C3385 1.391 . S
C3385 H3373 0.950 . S
C3385 C3381 1.393 . S
C3385 C3384 1.391 . S
C3386 H3376 0.950 . S
C3386 C3387 1.386 . S
C3386 C3388 1.391 . S
C3387 C3386 1.386 . S
C3387 C3391 1.393 . S
C3388 H3377 0.950 . S
C3388 C3386 1.391 . S
C3388 C3389 1.400 . S
C3389 C3383 1.491 . S
C3389 C3388 1.400 . S
C3389 C3390 1.398 . S
C3390 H3378 0.950 . S
C3390 C3389 1.398 . S
C3390 C3391 1.391 . S
C3391 H3379 0.950 . S
C3391 C3387 1.393 . S
C3391 C3390 1.391 . S
H3392 C3400 0.950 . S
H3393 C3405 0.950 . S
H3394 C3402 0.950 . S
H3395 C3404 0.950 . S
H3396 C3406 0.950 . S
H3397 C3408 0.950 . S
H3398 C3410 0.950 . S
H3399 C3411 0.950 . S
C3400 H3392 0.950 . S
C3400 C3401 1.386 . S
C3400 C3402 1.391 . S
C3401 C3400 1.386 . S
C3401 C3405 1.393 . S
C3402 H3394 0.950 . S
C3402 C3400 1.391 . S
C3402 C3403 1.400 . S
C3403 C3402 1.400 . S
C3403 C3404 1.398 . S
C3403 C3409 1.491 . S
C3404 H3395 0.950 . S
C3404 C3403 1.398 . S
C3404 C3405 1.391 . S
C3405 H3393 0.950 . S
C3405 C3401 1.393 . S
C3405 C3404 1.391 . S
C3406 H3396 0.950 . S
C3406 C3407 1.386 . S
C3406 C3408 1.391 . S
C3407 C3406 1.386 . S
C3407 C3411 1.393 . S
C3408 H3397 0.950 . S
C3408 C3406 1.391 . S
C3408 C3409 1.400 . S
C3409 C3403 1.491 . S
C3409 C3408 1.400 . S
C3409 C3410 1.398 . S
C3410 H3398 0.950 . S
C3410 C3409 1.398 . S
C3410 C3411 1.391 . S
C3411 H3399 0.950 . S
C3411 C3407 1.393 . S
C3411 C3410 1.391 . S
H3412 C3420 0.950 . S
H3413 C3425 0.950 . S
H3414 C3422 0.950 . S
H3415 C3424 0.950 . S
H3416 C3426 0.950 . S
H3417 C3428 0.950 . S
H3418 C3430 0.950 . S
H3419 C3431 0.950 . S
C3420 H3412 0.950 . S
C3420 C3421 1.386 . S
C3420 C3422 1.391 . S
C3421 C3420 1.386 . S
C3421 C3425 1.393 . S
C3422 H3414 0.950 . S
C3422 C3420 1.391 . S
C3422 C3423 1.400 . S
C3423 C3422 1.400 . S
C3423 C3424 1.398 . S
C3423 C3429 1.491 . S
C3424 H3415 0.950 . S
C3424 C3423 1.398 . S
C3424 C3425 1.391 . S
C3425 H3413 0.950 . S
C3425 C3421 1.393 . S
C3425 C3424 1.391 . S
C3426 H3416 0.950 . S
C3426 C3427 1.386 . S
C3426 C3428 1.391 . S
C3427 C3426 1.386 . S
C3427 C3431 1.393 . S
C3428 H3417 0.950 . S
C3428 C3426 1.391 . S
C3428 C3429 1.400 . S
C3429 C3423 1.491 . S
C3429 C3428 1.400 . S
C3429 C3430 1.398 . S
C3430 H3418 0.950 . S
C3430 C3429 1.398 . S
C3430 C3431 1.391 . S
C3431 H3419 0.950 . S
C3431 C3427 1.393 . S
C3431 C3430 1.391 . S
H3432 C3440 0.950 . S
H3433 C3445 0.950 . S
H3434 C3442 0.950 . S
H3435 C3444 0.950 . S
H3436 C3446 0.950 . S
H3437 C3448 0.950 . S
H3438 C3450 0.950 . S
H3439 C3451 0.950 . S
C3440 H3432 0.950 . S
C3440 C3441 1.386 . S
C3440 C3442 1.391 . S
C3441 C3440 1.386 . S
C3441 C3445 1.393 . S
C3442 H3434 0.950 . S
C3442 C3440 1.391 . S
C3442 C3443 1.400 . S
C3443 C3442 1.400 . S
C3443 C3444 1.398 . S
C3443 C3449 1.491 . S
C3444 H3435 0.950 . S
C3444 C3443 1.398 . S
C3444 C3445 1.391 . S
C3445 H3433 0.950 . S
C3445 C3441 1.393 . S
C3445 C3444 1.391 . S
C3446 H3436 0.950 . S
C3446 C3447 1.386 . S
C3446 C3448 1.391 . S
C3447 C3446 1.386 . S
C3447 C3451 1.393 . S
C3448 H3437 0.950 . S
C3448 C3446 1.391 . S
C3448 C3449 1.400 . S
C3449 C3443 1.491 . S
C3449 C3448 1.400 . S
C3449 C3450 1.398 . S
C3450 H3438 0.950 . S
C3450 C3449 1.398 . S
C3450 C3451 1.391 . S
C3451 H3439 0.950 . S
C3451 C3447 1.393 . S
C3451 C3450 1.391 . S
H3452 C3460 0.950 . S
H3453 C3465 0.950 . S
H3454 C3462 0.950 . S
H3455 C3464 0.950 . S
H3456 C3466 0.950 . S
H3457 C3468 0.950 . S
H3458 C3470 0.950 . S
H3459 C3471 0.950 . S
C3460 H3452 0.950 . S
C3460 C3461 1.386 . S
C3460 C3462 1.391 . S
C3461 C3460 1.386 . S
C3461 C3465 1.393 . S
C3462 H3454 0.950 . S
C3462 C3460 1.391 . S
C3462 C3463 1.400 . S
C3463 C3462 1.400 . S
C3463 C3464 1.398 . S
C3463 C3469 1.491 . S
C3464 H3455 0.950 . S
C3464 C3463 1.398 . S
C3464 C3465 1.391 . S
C3465 H3453 0.950 . S
C3465 C3461 1.393 . S
C3465 C3464 1.391 . S
C3466 H3456 0.950 . S
C3466 C3467 1.386 . S
C3466 C3468 1.391 . S
C3467 C3466 1.386 . S
C3467 C3471 1.393 . S
C3468 H3457 0.950 . S
C3468 C3466 1.391 . S
C3468 C3469 1.400 . S
C3469 C3463 1.491 . S
C3469 C3468 1.400 . S
C3469 C3470 1.398 . S
C3470 H3458 0.950 . S
C3470 C3469 1.398 . S
C3470 C3471 1.391 . S
C3471 H3459 0.950 . S
C3471 C3467 1.393 . S
C3471 C3470 1.391 . S
H3472 C3480 0.950 . S
H3473 C3485 0.950 . S
H3474 C3482 0.950 . S
H3475 C3484 0.950 . S
H3476 C3486 0.950 . S
H3477 C3488 0.950 . S
H3478 C3490 0.950 . S
H3479 C3491 0.950 . S
C3480 H3472 0.950 . S
C3480 C3481 1.386 . S
C3480 C3482 1.391 . S
C3481 C3480 1.386 . S
C3481 C3485 1.393 . S
C3482 H3474 0.950 . S
C3482 C3480 1.391 . S
C3482 C3483 1.400 . S
C3483 C3482 1.400 . S
C3483 C3484 1.398 . S
C3483 C3489 1.491 . S
C3484 H3475 0.950 . S
C3484 C3483 1.398 . S
C3484 C3485 1.391 . S
C3485 H3473 0.950 . S
C3485 C3481 1.393 . S
C3485 C3484 1.391 . S
C3486 H3476 0.950 . S
C3486 C3487 1.386 . S
C3486 C3488 1.391 . S
C3487 C3486 1.386 . S
C3487 C3491 1.393 . S
C3488 H3477 0.950 . S
C3488 C3486 1.391 . S
C3488 C3489 1.400 . S
C3489 C3483 1.491 . S
C3489 C3488 1.400 . S
C3489 C3490 1.398 . S
C3490 H3478 0.950 . S
C3490 C3489 1.398 . S
C3490 C3491 1.391 . S
C3491 H3479 0.950 . S
C3491 C3487 1.393 . S
C3491 C3490 1.391 . S
H3492 C3500 0.950 . S
H3493 C3505 0.950 . S
H3494 C3502 0.950 . S
H3495 C3504 0.950 . S
H3496 C3506 0.950 . S
H3497 C3508 0.950 . S
H3498 C3510 0.950 . S
H3499 C3511 0.950 . S
C3500 H3492 0.950 . S
C3500 C3501 1.386 . S
C3500 C3502 1.391 . S
C3501 C3500 1.386 . S
C3501 C3505 1.393 . S
C3502 H3494 0.950 . S
C3502 C3500 1.391 . S
C3502 C3503 1.400 . S
C3503 C3502 1.400 . S
C3503 C3504 1.398 . S
C3503 C3509 1.491 . S
C3504 H3495 0.950 . S
C3504 C3503 1.398 . S
C3504 C3505 1.391 . S
C3505 H3493 0.950 . S
C3505 C3501 1.393 . S
C3505 C3504 1.391 . S
C3506 H3496 0.950 . S
C3506 C3507 1.386 . S
C3506 C3508 1.391 . S
C3507 C3506 1.386 . S
C3507 C3511 1.393 . S
C3508 H3497 0.950 . S
C3508 C3506 1.391 . S
C3508 C3509 1.400 . S
C3509 C3503 1.491 . S
C3509 C3508 1.400 . S
C3509 C3510 1.398 . S
C3510 H3498 0.950 . S
C3510 C3509 1.398 . S
C3510 C3511 1.391 . S
C3511 H3499 0.950 . S
C3511 C3507 1.393 . S
C3511 C3510 1.391 . S
H3512 C3520 0.950 . S
H3513 C3525 0.950 . S
H3514 C3522 0.950 . S
H3515 C3524 0.950 . S
H3516 C3526 0.950 . S
H3517 C3528 0.950 . S
H3518 C3530 0.950 . S
H3519 C3531 0.950 . S
C3520 H3512 0.950 . S
C3520 C3521 1.386 . S
C3520 C3522 1.391 . S
C3521 C3520 1.386 . S
C3521 C3525 1.393 . S
C3522 H3514 0.950 . S
C3522 C3520 1.391 . S
C3522 C3523 1.400 . S
C3523 C3522 1.400 . S
C3523 C3524 1.398 . S
C3523 C3529 1.491 . S
C3524 H3515 0.950 . S
C3524 C3523 1.398 . S
C3524 C3525 1.391 . S
C3525 H3513 0.950 . S
C3525 C3521 1.393 . S
C3525 C3524 1.391 . S
C3526 H3516 0.950 . S
C3526 C3527 1.386 . S
C3526 C3528 1.391 . S
C3527 C3526 1.386 . S
C3527 C3531 1.393 . S
C3528 H3517 0.950 . S
C3528 C3526 1.391 . S
C3528 C3529 1.400 . S
C3529 C3523 1.491 . S
C3529 C3528 1.400 . S
C3529 C3530 1.398 . S
C3530 H3518 0.950 . S
C3530 C3529 1.398 . S
C3530 C3531 1.391 . S
C3531 H3519 0.950 . S
C3531 C3527 1.393 . S
C3531 C3530 1.391 . S
H3532 C3540 0.950 . S
H3533 C3545 0.950 . S
H3534 C3542 0.950 . S
H3535 C3544 0.950 . S
H3536 C3546 0.950 . S
H3537 C3548 0.950 . S
H3538 C3550 0.950 . S
H3539 C3551 0.950 . S
C3540 H3532 0.950 . S
C3540 C3541 1.386 . S
C3540 C3542 1.391 . S
C3541 C3540 1.386 . S
C3541 C3545 1.393 . S
C3542 H3534 0.950 . S
C3542 C3540 1.391 . S
C3542 C3543 1.400 . S
C3543 C3542 1.400 . S
C3543 C3544 1.398 . S
C3543 C3549 1.491 . S
C3544 H3535 0.950 . S
C3544 C3543 1.398 . S
C3544 C3545 1.391 . S
C3545 H3533 0.950 . S
C3545 C3541 1.393 . S
C3545 C3544 1.391 . S
C3546 H3536 0.950 . S
C3546 C3547 1.386 . S
C3546 C3548 1.391 . S
C3547 C3546 1.386 . S
C3547 C3551 1.393 . S
C3548 H3537 0.950 . S
C3548 C3546 1.391 . S
C3548 C3549 1.400 . S
C3549 C3543 1.491 . S
C3549 C3548 1.400 . S
C3549 C3550 1.398 . S
C3550 H3538 0.950 . S
C3550 C3549 1.398 . S
C3550 C3551 1.391 . S
C3551 H3539 0.950 . S
C3551 C3547 1.393 . S
C3551 C3550 1.391 . S
H3552 C3560 0.950 . S
H3553 C3565 0.950 . S
H3554 C3562 0.950 . S
H3555 C3564 0.950 . S
H3556 C3566 0.950 . S
H3557 C3568 0.950 . S
H3558 C3570 0.950 . S
H3559 C3571 0.950 . S
C3560 H3552 0.950 . S
C3560 C3561 1.386 . S
C3560 C3562 1.391 . S
C3561 C3560 1.386 . S
C3561 C3565 1.393 . S
C3562 H3554 0.950 . S
C3562 C3560 1.391 . S
C3562 C3563 1.400 . S
C3563 C3562 1.400 . S
C3563 C3564 1.398 . S
C3563 C3569 1.491 . S
C3564 H3555 0.950 . S
C3564 C3563 1.398 . S
C3564 C3565 1.391 . S
C3565 H3553 0.950 . S
C3565 C3561 1.393 . S
C3565 C3564 1.391 . S
C3566 H3556 0.950 . S
C3566 C3567 1.386 . S
C3566 C3568 1.391 . S
C3567 C3566 1.386 . S
C3567 C3571 1.393 . S
C3568 H3557 0.950 . S
C3568 C3566 1.391 . S
C3568 C3569 1.400 . S
C3569 C3563 1.491 . S
C3569 C3568 1.400 . S
C3569 C3570 1.398 . S
C3570 H3558 0.950 . S
C3570 C3569 1.398 . S
C3570 C3571 1.391 . S
C3571 H3559 0.950 . S
C3571 C3567 1.393 . S
C3571 C3570 1.391 . S
H3572 C3580 0.950 . S
H3573 C3585 0.950 . S
H3574 C3582 0.950 . S
H3575 C3584 0.950 . S
H3576 C3586 0.950 . S
H3577 C3588 0.950 . S
H3578 C3590 0.950 . S
H3579 C3591 0.950 . S
C3580 H3572 0.950 . S
C3580 C3581 1.386 . S
C3580 C3582 1.391 . S
C3581 C3580 1.386 . S
C3581 C3585 1.393 . S
C3582 H3574 0.950 . S
C3582 C3580 1.391 . S
C3582 C3583 1.400 . S
C3583 C3582 1.400 . S
C3583 C3584 1.398 . S
C3583 C3589 1.491 . S
C3584 H3575 0.950 . S
C3584 C3583 1.398 . S
C3584 C3585 1.391 . S
C3585 H3573 0.950 . S
C3585 C3581 1.393 . S
C3585 C3584 1.391 . S
C3586 H3576 0.950 . S
C3586 C3587 1.386 . S
C3586 C3588 1.391 . S
C3587 C3586 1.386 . S
C3587 C3591 1.393 . S
C3588 H3577 0.950 . S
C3588 C3586 1.391 . S
C3588 C3589 1.400 . S
C3589 C3583 1.491 . S
C3589 C3588 1.400 . S
C3589 C3590 1.398 . S
C3590 H3578 0.950 . S
C3590 C3589 1.398 . S
C3590 C3591 1.391 . S
C3591 H3579 0.950 . S
C3591 C3587 1.393 . S
C3591 C3590 1.391 . S
H3592 C3600 0.950 . S
H3593 C3605 0.950 . S
H3594 C3602 0.950 . S
H3595 C3604 0.950 . S
H3596 C3606 0.950 . S
H3597 C3608 0.950 . S
H3598 C3610 0.950 . S
H3599 C3611 0.950 . S
C3600 H3592 0.950 . S
C3600 C3601 1.386 . S
C3600 C3602 1.391 . S
C3601 C3600 1.386 . S
C3601 C3605 1.393 . S
C3602 H3594 0.950 . S
C3602 C3600 1.391 . S
C3602 C3603 1.400 . S
C3603 C3602 1.400 . S
C3603 C3604 1.398 . S
C3603 C3609 1.491 . S
C3604 H3595 0.950 . S
C3604 C3603 1.398 . S
C3604 C3605 1.391 . S
C3605 H3593 0.950 . S
C3605 C3601 1.393 . S
C3605 C3604 1.391 . S
C3606 H3596 0.950 . S
C3606 C3607 1.386 . S
C3606 C3608 1.391 . S
C3607 C3606 1.386 . S
C3607 C3611 1.393 . S
C3608 H3597 0.950 . S
C3608 C3606 1.391 . S
C3608 C3609 1.400 . S
C3609 C3603 1.491 . S
C3609 C3608 1.400 . S
C3609 C3610 1.398 . S
C3610 H3598 0.950 . S
C3610 C3609 1.398 . S
C3610 C3611 1.391 . S
C3611 H3599 0.950 . S
C3611 C3607 1.393 . S
C3611 C3610 1.391 . S
H3612 C3620 0.950 . S
H3613 C3625 0.950 . S
H3614 C3622 0.950 . S
H3615 C3624 0.950 . S
H3616 C3626 0.950 . S
H3617 C3628 0.950 . S
H3618 C3630 0.950 . S
H3619 C3631 0.950 . S
C3620 H3612 0.950 . S
C3620 C3621 1.386 . S
C3620 C3622 1.391 . S
C3621 C3620 1.386 . S
C3621 C3625 1.393 . S
C3622 H3614 0.950 . S
C3622 C3620 1.391 . S
C3622 C3623 1.400 . S
C3623 C3622 1.400 . S
C3623 C3624 1.398 . S
C3623 C3629 1.491 . S
C3624 H3615 0.950 . S
C3624 C3623 1.398 . S
C3624 C3625 1.391 . S
C3625 H3613 0.950 . S
C3625 C3621 1.393 . S
C3625 C3624 1.391 . S
C3626 H3616 0.950 . S
C3626 C3627 1.386 . S
C3626 C3628 1.391 . S
C3627 C3626 1.386 . S
C3627 C3631 1.393 . S
C3628 H3617 0.950 . S
C3628 C3626 1.391 . S
C3628 C3629 1.400 . S
C3629 C3623 1.491 . S
C3629 C3628 1.400 . S
C3629 C3630 1.398 . S
C3630 H3618 0.950 . S
C3630 C3629 1.398 . S
C3630 C3631 1.391 . S
C3631 H3619 0.950 . S
C3631 C3627 1.393 . S
C3631 C3630 1.391 . S
H3632 C3640 0.950 . S
H3633 C3645 0.950 . S
H3634 C3642 0.950 . S
H3635 C3644 0.950 . S
H3636 C3646 0.950 . S
H3637 C3648 0.950 . S
H3638 C3650 0.950 . S
H3639 C3651 0.950 . S
C3640 H3632 0.950 . S
C3640 C3641 1.386 . S
C3640 C3642 1.391 . S
C3641 C3640 1.386 . S
C3641 C3645 1.393 . S
C3642 H3634 0.950 . S
C3642 C3640 1.391 . S
C3642 C3643 1.400 . S
C3643 C3642 1.400 . S
C3643 C3644 1.398 . S
C3643 C3649 1.491 . S
C3644 H3635 0.950 . S
C3644 C3643 1.398 . S
C3644 C3645 1.391 . S
C3645 H3633 0.950 . S
C3645 C3641 1.393 . S
C3645 C3644 1.391 . S
C3646 H3636 0.950 . S
C3646 C3647 1.386 . S
C3646 C3648 1.391 . S
C3647 C3646 1.386 . S
C3647 C3651 1.393 . S
C3648 H3637 0.950 . S
C3648 C3646 1.391 . S
C3648 C3649 1.400 . S
C3649 C3643 1.491 . S
C3649 C3648 1.400 . S
C3649 C3650 1.398 . S
C3650 H3638 0.950 . S
C3650 C3649 1.398 . S
C3650 C3651 1.391 . S
C3651 H3639 0.950 . S
C3651 C3647 1.393 . S
C3651 C3650 1.391 . S
H3652 C3660 0.950 . S
H3653 C3665 0.950 . S
H3654 C3662 0.950 . S
H3655 C3664 0.950 . S
H3656 C3666 0.950 . S
H3657 C3668 0.950 . S
H3658 C3670 0.950 . S
H3659 C3671 0.950 . S
C3660 H3652 0.950 . S
C3660 C3661 1.386 . S
C3660 C3662 1.391 . S
C3661 C3660 1.386 . S
C3661 C3665 1.393 . S
C3662 H3654 0.950 . S
C3662 C3660 1.391 . S
C3662 C3663 1.400 . S
C3663 C3662 1.400 . S
C3663 C3664 1.398 . S
C3663 C3669 1.491 . S
C3664 H3655 0.950 . S
C3664 C3663 1.398 . S
C3664 C3665 1.391 . S
C3665 H3653 0.950 . S
C3665 C3661 1.393 . S
C3665 C3664 1.391 . S
C3666 H3656 0.950 . S
C3666 C3667 1.386 . S
C3666 C3668 1.391 . S
C3667 C3666 1.386 . S
C3667 C3671 1.393 . S
C3668 H3657 0.950 . S
C3668 C3666 1.391 . S
C3668 C3669 1.400 . S
C3669 C3663 1.491 . S
C3669 C3668 1.400 . S
C3669 C3670 1.398 . S
C3670 H3658 0.950 . S
C3670 C3669 1.398 . S
C3670 C3671 1.391 . S
C3671 H3659 0.950 . S
C3671 C3667 1.393 . S
C3671 C3670 1.391 . S
H3672 C3680 0.950 . S
H3673 C3685 0.950 . S
H3674 C3682 0.950 . S
H3675 C3684 0.950 . S
H3676 C3686 0.950 . S
H3677 C3688 0.950 . S
H3678 C3690 0.950 . S
H3679 C3691 0.950 . S
C3680 H3672 0.950 . S
C3680 C3681 1.386 . S
C3680 C3682 1.391 . S
C3681 C3680 1.386 . S
C3681 C3685 1.393 . S
C3682 H3674 0.950 . S
C3682 C3680 1.391 . S
C3682 C3683 1.400 . S
C3683 C3682 1.400 . S
C3683 C3684 1.398 . S
C3683 C3689 1.491 . S
C3684 H3675 0.950 . S
C3684 C3683 1.398 . S
C3684 C3685 1.391 . S
C3685 H3673 0.950 . S
C3685 C3681 1.393 . S
C3685 C3684 1.391 . S
C3686 H3676 0.950 . S
C3686 C3687 1.386 . S
C3686 C3688 1.391 . S
C3687 C3686 1.386 . S
C3687 C3691 1.393 . S
C3688 H3677 0.950 . S
C3688 C3686 1.391 . S
C3688 C3689 1.400 . S
C3689 C3683 1.491 . S
C3689 C3688 1.400 . S
C3689 C3690 1.398 . S
C3690 H3678 0.950 . S
C3690 C3689 1.398 . S
C3690 C3691 1.391 . S
C3691 H3679 0.950 . S
C3691 C3687 1.393 . S
C3691 C3690 1.391 . S
H3692 C3700 0.950 . S
H3693 C3705 0.950 . S
H3694 C3702 0.950 . S
H3695 C3704 0.950 . S
H3696 C3706 0.950 . S
H3697 C3708 0.950 . S
H3698 C3710 0.950 . S
H3699 C3711 0.950 . S
C3700 H3692 0.950 . S
C3700 C3701 1.386 . S
C3700 C3702 1.391 . S
C3701 C3700 1.386 . S
C3701 C3705 1.393 . S
C3702 H3694 0.950 . S
C3702 C3700 1.391 . S
C3702 C3703 1.400 . S
C3703 C3702 1.400 . S
C3703 C3704 1.398 . S
C3703 C3709 1.491 . S
C3704 H3695 0.950 . S
C3704 C3703 1.398 . S
C3704 C3705 1.391 . S
C3705 H3693 0.950 . S
C3705 C3701 1.393 . S
C3705 C3704 1.391 . S
C3706 H3696 0.950 . S
C3706 C3707 1.386 . S
C3706 C3708 1.391 . S
C3707 C3706 1.386 . S
C3707 C3711 1.393 . S
C3708 H3697 0.950 . S
C3708 C3706 1.391 . S
C3708 C3709 1.400 . S
C3709 C3703 1.491 . S
C3709 C3708 1.400 . S
C3709 C3710 1.398 . S
C3710 H3698 0.950 . S
C3710 C3709 1.398 . S
C3710 C3711 1.391 . S
C3711 H3699 0.950 . S
C3711 C3707 1.393 . S
C3711 C3710 1.391 . S
H3712 C3720 0.950 . S
H3713 C3725 0.950 . S
H3714 C3722 0.950 . S
H3715 C3724 0.950 . S
H3716 C3726 0.950 . S
H3717 C3728 0.950 . S
H3718 C3730 0.950 . S
H3719 C3731 0.950 . S
C3720 H3712 0.950 . S
C3720 C3721 1.386 . S
C3720 C3722 1.391 . S
C3721 C3720 1.386 . S
C3721 C3725 1.393 . S
C3722 H3714 0.950 . S
C3722 C3720 1.391 . S
C3722 C3723 1.400 . S
C3723 C3722 1.400 . S
C3723 C3724 1.398 . S
C3723 C3729 1.491 . S
C3724 H3715 0.950 . S
C3724 C3723 1.398 . S
C3724 C3725 1.391 . S
C3725 H3713 0.950 . S
C3725 C3721 1.393 . S
C3725 C3724 1.391 . S
C3726 H3716 0.950 . S
C3726 C3727 1.386 . S
C3726 C3728 1.391 . S
C3727 C3726 1.386 . S
C3727 C3731 1.393 . S
C3728 H3717 0.950 . S
C3728 C3726 1.391 . S
C3728 C3729 1.400 . S
C3729 C3723 1.491 . S
C3729 C3728 1.400 . S
C3729 C3730 1.398 . S
C3730 H3718 0.950 . S
C3730 C3729 1.398 . S
C3730 C3731 1.391 . S
C3731 H3719 0.950 . S
C3731 C3727 1.393 . S
C3731 C3730 1.391 . S
H3732 C3740 0.950 . S
H3733 C3745 0.950 . S
H3734 C3742 0.950 . S
H3735 C3744 0.950 . S
H3736 C3746 0.950 . S
H3737 C3748 0.950 . S
H3738 C3750 0.950 . S
H3739 C3751 0.950 . S
C3740 H3732 0.950 . S
C3740 C3741 1.386 . S
C3740 C3742 1.391 . S
C3741 C3740 1.386 . S
C3741 C3745 1.393 . S
C3742 H3734 0.950 . S
C3742 C3740 1.391 . S
C3742 C3743 1.400 . S
C3743 C3742 1.400 . S
C3743 C3744 1.398 . S
C3743 C3749 1.491 . S
C3744 H3735 0.950 . S
C3744 C3743 1.398 . S
C3744 C3745 1.391 . S
C3745 H3733 0.950 . S
C3745 C3741 1.393 . S
C3745 C3744 1.391 . S
C3746 H3736 0.950 . S
C3746 C3747 1.386 . S
C3746 C3748 1.391 . S
C3747 C3746 1.386 . S
C3747 C3751 1.393 . S
C3748 H3737 0.950 . S
C3748 C3746 1.391 . S
C3748 C3749 1.400 . S
C3749 C3743 1.491 . S
C3749 C3748 1.400 . S
C3749 C3750 1.398 . S
C3750 H3738 0.950 . S
C3750 C3749 1.398 . S
C3750 C3751 1.391 . S
C3751 H3739 0.950 . S
C3751 C3747 1.393 . S
C3751 C3750 1.391 . S
H3752 C3760 0.950 . S
H3753 C3765 0.950 . S
H3754 C3762 0.950 . S
H3755 C3764 0.950 . S
H3756 C3766 0.950 . S
H3757 C3768 0.950 . S
H3758 C3770 0.950 . S
H3759 C3771 0.950 . S
C3760 H3752 0.950 . S
C3760 C3761 1.386 . S
C3760 C3762 1.391 . S
C3761 C3760 1.386 . S
C3761 C3765 1.393 . S
C3762 H3754 0.950 . S
C3762 C3760 1.391 . S
C3762 C3763 1.400 . S
C3763 C3762 1.400 . S
C3763 C3764 1.398 . S
C3763 C3769 1.491 . S
C3764 H3755 0.950 . S
C3764 C3763 1.398 . S
C3764 C3765 1.391 . S
C3765 H3753 0.950 . S
C3765 C3761 1.393 . S
C3765 C3764 1.391 . S
C3766 H3756 0.950 . S
C3766 C3767 1.386 . S
C3766 C3768 1.391 . S
C3767 C3766 1.386 . S
C3767 C3771 1.393 . S
C3768 H3757 0.950 . S
C3768 C3766 1.391 . S
C3768 C3769 1.400 . S
C3769 C3763 1.491 . S
C3769 C3768 1.400 . S
C3769 C3770 1.398 . S
C3770 H3758 0.950 . S
C3770 C3769 1.398 . S
C3770 C3771 1.391 . S
C3771 H3759 0.950 . S
C3771 C3767 1.393 . S
C3771 C3770 1.391 . S
H3772 C3780 0.950 . S
H3773 C3785 0.950 . S
H3774 C3782 0.950 . S
H3775 C3784 0.950 . S
H3776 C3786 0.950 . S
H3777 C3788 0.950 . S
H3778 C3790 0.950 . S
H3779 C3791 0.950 . S
C3780 H3772 0.950 . S
C3780 C3781 1.386 . S
C3780 C3782 1.391 . S
C3781 C3780 1.386 . S
C3781 C3785 1.393 . S
C3782 H3774 0.950 . S
C3782 C3780 1.391 . S
C3782 C3783 1.400 . S
C3783 C3782 1.400 . S
C3783 C3784 1.398 . S
C3783 C3789 1.491 . S
C3784 H3775 0.950 . S
C3784 C3783 1.398 . S
C3784 C3785 1.391 . S
C3785 H3773 0.950 . S
C3785 C3781 1.393 . S
C3785 C3784 1.391 . S
C3786 H3776 0.950 . S
C3786 C3787 1.386 . S
C3786 C3788 1.391 . S
C3787 C3786 1.386 . S
C3787 C3791 1.393 . S
C3788 H3777 0.950 . S
C3788 C3786 1.391 . S
C3788 C3789 1.400 . S
C3789 C3783 1.491 . S
C3789 C3788 1.400 . S
C3789 C3790 1.398 . S
C3790 H3778 0.950 . S
C3790 C3789 1.398 . S
C3790 C3791 1.391 . S
C3791 H3779 0.950 . S
C3791 C3787 1.393 . S
C3791 C3790 1.391 . S
H3792 C3800 0.950 . S
H3793 C3805 0.950 . S
H3794 C3802 0.950 . S
H3795 C3804 0.950 . S
H3796 C3806 0.950 . S
H3797 C3808 0.950 . S
H3798 C3810 0.950 . S
H3799 C3811 0.950 . S
C3800 H3792 0.950 . S
C3800 C3801 1.386 . S
C3800 C3802 1.391 . S
C3801 C3800 1.386 . S
C3801 C3805 1.393 . S
C3802 H3794 0.950 . S
C3802 C3800 1.391 . S
C3802 C3803 1.400 . S
C3803 C3802 1.400 . S
C3803 C3804 1.398 . S
C3803 C3809 1.491 . S
C3804 H3795 0.950 . S
C3804 C3803 1.398 . S
C3804 C3805 1.391 . S
C3805 H3793 0.950 . S
C3805 C3801 1.393 . S
C3805 C3804 1.391 . S
C3806 H3796 0.950 . S
C3806 C3807 1.386 . S
C3806 C3808 1.391 . S
C3807 C3806 1.386 . S
C3807 C3811 1.393 . S
C3808 H3797 0.950 . S
C3808 C3806 1.391 . S
C3808 C3809 1.400 . S
C3809 C3803 1.491 . S
C3809 C3808 1.400 . S
C3809 C3810 1.398 . S
C3810 H3798 0.950 . S
C3810 C3809 1.398 . S
C3810 C3811 1.391 . S
C3811 H3799 0.950 . S
C3811 C3807 1.393 . S
C3811 C3810 1.391 . S
H3812 C3820 0.950 . S
H3813 C3825 0.950 . S
H3814 C3822 0.950 . S
H3815 C3824 0.950 . S
H3816 C3826 0.950 . S
H3817 C3828 0.950 . S
H3818 C3830 0.950 . S
H3819 C3831 0.950 . S
C3820 H3812 0.950 . S
C3820 C3821 1.386 . S
C3820 C3822 1.391 . S
C3821 C3820 1.386 . S
C3821 C3825 1.393 . S
C3822 H3814 0.950 . S
C3822 C3820 1.391 . S
C3822 C3823 1.400 . S
C3823 C3822 1.400 . S
C3823 C3824 1.398 . S
C3823 C3829 1.491 . S
C3824 H3815 0.950 . S
C3824 C3823 1.398 . S
C3824 C3825 1.391 . S
C3825 H3813 0.950 . S
C3825 C3821 1.393 . S
C3825 C3824 1.391 . S
C3826 H3816 0.950 . S
C3826 C3827 1.386 . S
C3826 C3828 1.391 . S
C3827 C3826 1.386 . S
C3827 C3831 1.393 . S
C3828 H3817 0.950 . S
C3828 C3826 1.391 . S
C3828 C3829 1.400 . S
C3829 C3823 1.491 . S
C3829 C3828 1.400 . S
C3829 C3830 1.398 . S
C3830 H3818 0.950 . S
C3830 C3829 1.398 . S
C3830 C3831 1.391 . S
C3831 H3819 0.950 . S
C3831 C3827 1.393 . S
C3831 C3830 1.391 . S
H3832 C3840 0.950 . S
H3833 C3845 0.950 . S
H3834 C3842 0.950 . S
H3835 C3844 0.950 . S
H3836 C3846 0.950 . S
H3837 C3848 0.950 . S
H3838 C3850 0.950 . S
H3839 C3851 0.950 . S
C3840 H3832 0.950 . S
C3840 C3841 1.386 . S
C3840 C3842 1.391 . S
C3841 C3840 1.386 . S
C3841 C3845 1.393 . S
C3842 H3834 0.950 . S
C3842 C3840 1.391 . S
C3842 C3843 1.400 . S
C3843 C3842 1.400 . S
C3843 C3844 1.398 . S
C3843 C3849 1.491 . S
C3844 H3835 0.950 . S
C3844 C3843 1.398 . S
C3844 C3845 1.391 . S
C3845 H3833 0.950 . S
C3845 C3841 1.393 . S
C3845 C3844 1.391 . S
C3846 H3836 0.950 . S
C3846 C3847 1.386 . S
C3846 C3848 1.391 . S
C3847 C3846 1.386 . S
C3847 C3851 1.393 . S
C3848 H3837 0.950 . S
C3848 C3846 1.391 . S
C3848 C3849 1.400 . S
C3849 C3843 1.491 . S
C3849 C3848 1.400 . S
C3849 C3850 1.398 . S
C3850 H3838 0.950 . S
C3850 C3849 1.398 . S
C3850 C3851 1.391 . S
C3851 H3839 0.950 . S
C3851 C3847 1.393 . S
C3851 C3850 1.391 . S
H3852 C3860 0.950 . S
H3853 C3865 0.950 . S
H3854 C3862 0.950 . S
H3855 C3864 0.950 . S
H3856 C3866 0.950 . S
H3857 C3868 0.950 . S
H3858 C3870 0.950 . S
H3859 C3871 0.950 . S
C3860 H3852 0.950 . S
C3860 C3861 1.386 . S
C3860 C3862 1.391 . S
C3861 C3860 1.386 . S
C3861 C3865 1.393 . S
C3862 H3854 0.950 . S
C3862 C3860 1.391 . S
C3862 C3863 1.400 . S
C3863 C3862 1.400 . S
C3863 C3864 1.398 . S
C3863 C3869 1.491 . S
C3864 H3855 0.950 . S
C3864 C3863 1.398 . S
C3864 C3865 1.391 . S
C3865 H3853 0.950 . S
C3865 C3861 1.393 . S
C3865 C3864 1.391 . S
C3866 H3856 0.950 . S
C3866 C3867 1.386 . S
C3866 C3868 1.391 . S
C3867 C3866 1.386 . S
C3867 C3871 1.393 . S
C3868 H3857 0.950 . S
C3868 C3866 1.391 . S
C3868 C3869 1.400 . S
C3869 C3863 1.491 . S
C3869 C3868 1.400 . S
C3869 C3870 1.398 . S
C3870 H3858 0.950 . S
C3870 C3869 1.398 . S
C3870 C3871 1.391 . S
C3871 H3859 0.950 . S
C3871 C3867 1.393 . S
C3871 C3870 1.391 . S
H3872 C3880 0.950 . S
H3873 C3885 0.950 . S
H3874 C3882 0.950 . S
H3875 C3884 0.950 . S
H3876 C3886 0.950 . S
H3877 C3888 0.950 . S
H3878 C3890 0.950 . S
H3879 C3891 0.950 . S
C3880 H3872 0.950 . S
C3880 C3881 1.386 . S
C3880 C3882 1.391 . S
C3881 C3880 1.386 . S
C3881 C3885 1.393 . S
C3882 H3874 0.950 . S
C3882 C3880 1.391 . S
C3882 C3883 1.400 . S
C3883 C3882 1.400 . S
C3883 C3884 1.398 . S
C3883 C3889 1.491 . S
C3884 H3875 0.950 . S
C3884 C3883 1.398 . S
C3884 C3885 1.391 . S
C3885 H3873 0.950 . S
C3885 C3881 1.393 . S
C3885 C3884 1.391 . S
C3886 H3876 0.950 . S
C3886 C3887 1.386 . S
C3886 C3888 1.391 . S
C3887 C3886 1.386 . S
C3887 C3891 1.393 . S
C3888 H3877 0.950 . S
C3888 C3886 1.391 . S
C3888 C3889 1.400 . S
C3889 C3883 1.491 . S
C3889 C3888 1.400 . S
C3889 C3890 1.398 . S
C3890 H3878 0.950 . S
C3890 C3889 1.398 . S
C3890 C3891 1.391 . S
C3891 H3879 0.950 . S
C3891 C3887 1.393 . S
C3891 C3890 1.391 . S
H3892 C3900 0.950 . S
H3893 C3905 0.950 . S
H3894 C3902 0.950 . S
H3895 C3904 0.950 . S
H3896 C3906 0.950 . S
H3897 C3908 0.950 . S
H3898 C3910 0.950 . S
H3899 C3911 0.950 . S
C3900 H3892 0.950 . S
C3900 C3901 1.386 . S
C3900 C3902 1.391 . S
C3901 C3900 1.386 . S
C3901 C3905 1.393 . S
C3902 H3894 0.950 . S
C3902 C3900 1.391 . S
C3902 C3903 1.400 . S
C3903 C3902 1.400 . S
C3903 C3904 1.398 . S
C3903 C3909 1.491 . S
C3904 H3895 0.950 . S
C3904 C3903 1.398 . S
C3904 C3905 1.391 . S
C3905 H3893 0.950 . S
C3905 C3901 1.393 . S
C3905 C3904 1.391 . S
C3906 H3896 0.950 . S
C3906 C3907 1.386 . S
C3906 C3908 1.391 . S
C3907 C3906 1.386 . S
C3907 C3911 1.393 . S
C3908 H3897 0.950 . S
C3908 C3906 1.391 . S
C3908 C3909 1.400 . S
C3909 C3903 1.491 . S
C3909 C3908 1.400 . S
C3909 C3910 1.398 . S
C3910 H3898 0.950 . S
C3910 C3909 1.398 . S
C3910 C3911 1.391 . S
C3911 H3899 0.950 . S
C3911 C3907 1.393 . S
C3911 C3910 1.391 . S
H3912 C3920 0.950 . S
H3913 C3925 0.950 . S
H3914 C3922 0.950 . S
H3915 C3924 0.950 . S
H3916 C3926 0.950 . S
H3917 C3928 0.950 . S
H3918 C3930 0.950 . S
H3919 C3931 0.950 . S
C3920 H3912 0.950 . S
C3920 C3921 1.386 . S
C3920 C3922 1.391 . S
C3921 C3920 1.386 . S
C3921 C3925 1.393 . S
C3922 H3914 0.950 . S
C3922 C3920 1.391 . S
C3922 C3923 1.400 . S
C3923 C3922 1.400 . S
C3923 C3924 1.398 . S
C3923 C3929 1.491 . S
C3924 H3915 0.950 . S
C3924 C3923 1.398 . S
C3924 C3925 1.391 . S
C3925 H3913 0.950 . S
C3925 C3921 1.393 . S
C3925 C3924 1.391 . S
C3926 H3916 0.950 . S
C3926 C3927 1.386 . S
C3926 C3928 1.391 . S
C3927 C3926 1.386 . S
C3927 C3931 1.393 . S
C3928 H3917 0.950 . S
C3928 C3926 1.391 . S
C3928 C3929 1.400 . S
C3929 C3923 1.491 . S
C3929 C3928 1.400 . S
C3929 C3930 1.398 . S
C3930 H3918 0.950 . S
C3930 C3929 1.398 . S
C3930 C3931 1.391 . S
C3931 H3919 0.950 . S
C3931 C3927 1.393 . S
C3931 C3930 1.391 . S
H3932 C3940 0.950 . S
H3933 C3945 0.950 . S
H3934 C3942 0.950 . S
H3935 C3944 0.950 . S
H3936 C3946 0.950 . S
H3937 C3948 0.950 . S
H3938 C3950 0.950 . S
H3939 C3951 0.950 . S
C3940 H3932 0.950 . S
C3940 C3941 1.386 . S
C3940 C3942 1.391 . S
C3941 C3940 1.386 . S
C3941 C3945 1.393 . S
C3942 H3934 0.950 . S
C3942 C3940 1.391 . S
C3942 C3943 1.400 . S
C3943 C3942 1.400 . S
C3943 C3944 1.398 . S
C3943 C3949 1.491 . S
C3944 H3935 0.950 . S
C3944 C3943 1.398 . S
C3944 C3945 1.391 . S
C3945 H3933 0.950 . S
C3945 C3941 1.393 . S
C3945 C3944 1.391 . S
C3946 H3936 0.950 . S
C3946 C3947 1.386 . S
C3946 C3948 1.391 . S
C3947 C3946 1.386 . S
C3947 C3951 1.393 . S
C3948 H3937 0.950 . S
C3948 C3946 1.391 . S
C3948 C3949 1.400 . S
C3949 C3943 1.491 . S
C3949 C3948 1.400 . S
C3949 C3950 1.398 . S
C3950 H3938 0.950 . S
C3950 C3949 1.398 . S
C3950 C3951 1.391 . S
C3951 H3939 0.950 . S
C3951 C3947 1.393 . S
C3951 C3950 1.391 . S
H3952 C3960 0.950 . S
H3953 C3965 0.950 . S
H3954 C3962 0.950 . S
H3955 C3964 0.950 . S
H3956 C3966 0.950 . S
H3957 C3968 0.950 . S
H3958 C3970 0.950 . S
H3959 C3971 0.950 . S
C3960 H3952 0.950 . S
C3960 C3961 1.386 . S
C3960 C3962 1.391 . S
C3961 C3960 1.386 . S
C3961 C3965 1.393 . S
C3962 H3954 0.950 . S
C3962 C3960 1.391 . S
C3962 C3963 1.400 . S
C3963 C3962 1.400 . S
C3963 C3964 1.398 . S
C3963 C3969 1.491 . S
C3964 H3955 0.950 . S
C3964 C3963 1.398 . S
C3964 C3965 1.391 . S
C3965 H3953 0.950 . S
C3965 C3961 1.393 . S
C3965 C3964 1.391 . S
C3966 H3956 0.950 . S
C3966 C3967 1.386 . S
C3966 C3968 1.391 . S
C3967 C3966 1.386 . S
C3967 C3971 1.393 . S
C3968 H3957 0.950 . S
C3968 C3966 1.391 . S
C3968 C3969 1.400 . S
C3969 C3963 1.491 . S
C3969 C3968 1.400 . S
C3969 C3970 1.398 . S
C3970 H3958 0.950 . S
C3970 C3969 1.398 . S
C3970 C3971 1.391 . S
C3971 H3959 0.950 . S
C3971 C3967 1.393 . S
C3971 C3970 1.391 . S
H3972 C3980 0.950 . S
H3973 C3985 0.950 . S
H3974 C3982 0.950 . S
H3975 C3984 0.950 . S
H3976 C3986 0.950 . S
H3977 C3988 0.950 . S
H3978 C3990 0.950 . S
H3979 C3991 0.950 . S
C3980 H3972 0.950 . S
C3980 C3981 1.386 . S
C3980 C3982 1.391 . S
C3981 C3980 1.386 . S
C3981 C3985 1.393 . S
C3982 H3974 0.950 . S
C3982 C3980 1.391 . S
C3982 C3983 1.400 . S
C3983 C3982 1.400 . S
C3983 C3984 1.398 . S
C3983 C3989 1.491 . S
C3984 H3975 0.950 . S
C3984 C3983 1.398 . S
C3984 C3985 1.391 . S
C3985 H3973 0.950 . S
C3985 C3981 1.393 . S
C3985 C3984 1.391 . S
C3986 H3976 0.950 . S
C3986 C3987 1.386 . S
C3986 C3988 1.391 . S
C3987 C3986 1.386 . S
C3987 C3991 1.393 . S
C3988 H3977 0.950 . S
C3988 C3986 1.391 . S
C3988 C3989 1.400 . S
C3989 C3983 1.491 . S
C3989 C3988 1.400 . S
C3989 C3990 1.398 . S
C3990 H3978 0.950 . S
C3990 C3989 1.398 . S
C3990 C3991 1.391 . S
C3991 H3979 0.950 . S
C3991 C3987 1.393 . S
C3991 C3990 1.391 . S
H3992 C4000 0.950 . S
H3993 C4005 0.950 . S
H3994 C4002 0.950 . S
H3995 C4004 0.950 . S
H3996 C4006 0.950 . S
H3997 C4008 0.950 . S
H3998 C4010 0.950 . S
H3999 C4011 0.950 . S
C4000 H3992 0.950 . S
C4000 C4001 1.386 . S
C4000 C4002 1.391 . S
C4001 C4000 1.386 . S
C4001 C4005 1.393 . S
C4002 H3994 0.950 . S
C4002 C4000 1.391 . S
C4002 C4003 1.400 . S
C4003 C4002 1.400 . S
C4003 C4004 1.398 . S
C4003 C4009 1.491 . S
C4004 H3995 0.950 . S
C4004 C4003 1.398 . S
C4004 C4005 1.391 . S
C4005 H3993 0.950 . S
C4005 C4001 1.393 . S
C4005 C4004 1.391 . S
C4006 H3996 0.950 . S
C4006 C4007 1.386 . S
C4006 C4008 1.391 . S
C4007 C4006 1.386 . S
C4007 C4011 1.393 . S
C4008 H3997 0.950 . S
C4008 C4006 1.391 . S
C4008 C4009 1.400 . S
C4009 C4003 1.491 . S
C4009 C4008 1.400 . S
C4009 C4010 1.398 . S
C4010 H3998 0.950 . S
C4010 C4009 1.398 . S
C4010 C4011 1.391 . S
C4011 H3999 0.950 . S
C4011 C4007 1.393 . S
C4011 C4010 1.391 . S
H4012 C4020 0.950 . S
H4013 C4025 0.950 . S
H4014 C4022 0.950 . S
H4015 C4024 0.950 . S
H4016 C4026 0.950 . S
H4017 C4028 0.950 . S
H4018 C4030 0.950 . S
H4019 C4031 0.950 . S
C4020 H4012 0.950 . S
C4020 C4021 1.386 . S
C4020 C4022 1.391 . S
C4021 C4020 1.386 . S
C4021 C4025 1.393 . S
C4022 H4014 0.950 . S
C4022 C4020 1.391 . S
C4022 C4023 1.400 . S
C4023 C4022 1.400 . S
C4023 C4024 1.398 . S
C4023 C4029 1.491 . S
C4024 H4015 0.950 . S
C4024 C4023 1.398 . S
C4024 C4025 1.391 . S
C4025 H4013 0.950 . S
C4025 C4021 1.393 . S
C4025 C4024 1.391 . S
C4026 H4016 0.950 . S
C4026 C4027 1.386 . S
C4026 C4028 1.391 . S
C4027 C4026 1.386 . S
C4027 C4031 1.393 . S
C4028 H4017 0.950 . S
C4028 C4026 1.391 . S
C4028 C4029 1.400 . S
C4029 C4023 1.491 . S
C4029 C4028 1.400 . S
C4029 C4030 1.398 . S
C4030 H4018 0.950 . S
C4030 C4029 1.398 . S
C4030 C4031 1.391 . S
C4031 H4019 0.950 . S
C4031 C4027 1.393 . S
C4031 C4030 1.391 . S
C1641 C5 1.482 . S
C1647 C360 1.523 . S
C1661 C394 1.536 . S
C1667 C39 1.483 . S
C1681 C292 1.516 . S
C1687 C73 1.473 1_554 S
C1701 C326 1.514 . S
C1707 C107 1.470 . S
C1721 C496 1.521 . S
C1727 C141 1.452 1_556 S
C1741 C175 1.470 . S
C1747 C530 1.514 . S
C1761 C428 1.536 . S
C1767 C209 1.472 . S
C1781 C462 1.537 . S
C1787 C243 1.479 . S
C1801 C277 1.455 . S
C1807 C598 1.526 . S
C1821 C311 1.475 . S
C1827 C632 1.537 . S
C1841 C345 1.485 1_655 S
C1847 C666 1.529 . S
C1861 C379 1.455 . S
C1867 C1516 1.526 . S
C1881 C1380 1.521 . S
C1887 C413 1.480 . S
C1901 C447 1.481 . S
C1907 C802 1.522 . S
C1921 C481 1.452 1_655 S
C1927 C1550 1.513 . S
C1941 C768 1.519 . S
C1947 C515 1.451 . S
C1961 C549 1.455 . S
C1967 C1040 1.512 . S
C1981 C583 1.483 1_565 S
C1987 C88 1.524 . S
C2001 C122 1.536 . S
C2007 C617 1.482 . S
C2021 C20 1.537 . S
C2027 C651 1.475 1_545 S
C2041 C685 1.456 . S
C2047 C870 1.512 . S
C2061 C719 1.451 . S
C2067 C972 1.516 . S
C2081 C190 1.533 . S
C2087 C753 1.486 . S
C2101 C258 1.528 . S
C2107 C787 1.457 . S
C2121 C1176 1.512 . S
C2127 C821 1.462 1_554 S
C2141 C855 1.453 . S
C2147 C1210 1.523 . S
C2161 C1108 1.512 . S
C2167 C889 1.456 . S
C2181 C1142 1.512 . S
C2187 C923 1.456 . S
C2201 C1312 1.512 . S
C2207 C957 1.456 . S
C2221 C1346 1.534 . S
C2227 C991 1.485 . S
C2241 C1244 1.533 . S
C2247 C1025 1.465 1_556 S
C2261 C1059 1.482 . S
C2267 C1278 1.536 . S
C2281 C1414 1.528 . S
C2287 C1093 1.485 1_455 S
C2301 C1448 1.524 . S
C2307 C1127 1.454 . S
C2321 C1161 1.451 . S
C2327 C1482 1.520 . S
C2341 C1195 1.454 . S
C2347 C700 1.524 . S
C2361 C1229 1.481 1_455 S
C2367 C564 1.537 . S
C2381 C1263 1.463 . S
C2387 C1618 1.512 . S
C2401 C734 1.529 . S
C2407 C1297 1.486 . S
C2421 C1584 1.512 . S
C2427 C1331 1.462 . S
C2441 C224 1.535 . S
C2447 C1365 1.484 1_545 S
C2461 C904 1.513 . S
C2467 C1399 1.467 . S
C2481 C1433 1.452 . S
C2487 C938 1.514 . S
C2501 C1467 1.485 . S
C2507 C836 1.534 . S
C2521 C54 1.521 . S
C2527 C1501 1.481 . S
C2541 C156 1.536 . S
C2547 C1535 1.483 1_565 S
C2561 C1569 1.452 . S
C2567 C1006 1.514 . S
C2581 C1074 1.514 . S
C2587 C1603 1.470 . S
C2601 C2 2.170 . S
C2607 C886 2.173 . S
C2621 C36 2.173 . S
C2627 C920 2.170 . S
C2641 C70 2.174 . S
C2647 C818 2.169 . S
C2661 C852 2.173 . S
C2667 C104 2.170 . S
C2681 C1022 2.169 . S
C2687 C138 2.173 . S
C2701 C1056 2.172 . S
C2707 C172 2.171 . S
C2721 C954 2.169 . S
C2727 C206 2.173 . S
C2741 C988 2.173 . S
C2747 C240 2.171 . S
C2761 C274 2.169 . S
C2767 C410 2.174 . S
C2781 C444 2.174 . S
C2787 C308 2.169 . S
C2801 C342 2.174 . S
C2807 C478 2.169 . S
C2821 C376 2.169 . S
C2827 C512 2.174 . S
C2841 C546 2.171 . S
C2847 C1464 2.173 . S
C2861 C580 2.169 . S
C2867 C1532 2.174 . S
C2881 C614 2.169 . S
C2887 C750 2.174 . S
C2901 C1362 2.173 . S
C2907 C648 2.170 . S
C2921 C1600 2.170 . S
C2927 C682 2.172 . S
C2941 C1396 2.169 . S
C2947 C716 2.173 . S
C2961 C784 2.169 . S
C2967 C1498 2.173 . S
C2981 C1090 2.170 . S
C2987 C1226 2.171 . S
C3001 C1124 2.169 . S
C3007 C1260 2.174 . S
C3021 C1158 2.174 . S
C3027 C1294 2.169 . S
C3041 C1192 2.169 . S
C3047 C1328 2.174 . S
C3061 C1430 2.173 . S
C3067 C1566 2.169 . S
C3081 C689 0.633 . S
C3087 C9 0.623 . S
C3101 C43 0.629 . S
C3107 C1403 0.663 . S
C3121 C77 0.684 . S
C3127 C1437 0.646 . S
C3141 C1471 0.622 . S
C3147 C111 0.645 . S
C3161 C1607 0.679 . S
C3167 C145 0.641 . S
C3181 C723 0.670 . S
C3187 C179 0.699 . S
C3201 C213 0.701 . S
C3207 C1573 0.676 . S
C3221 C247 0.624 . S
C3227 C553 0.653 . S
C3241 C519 0.644 . S
C3247 C281 0.682 . S
C3261 C315 0.633 . S
C3267 C417 0.670 . S
C3281 C349 0.677 . S
C3287 C451 0.701 . S
C3301 C485 0.669 . S
C3307 C383 0.632 . S
C3321 C859 0.644 . S
C3327 C587 0.622 . S
C3341 C621 0.651 . S
C3347 C893 0.624 . S
C3361 C655 0.702 . S
C3367 C927 0.686 . S
C3381 C757 0.701 . S
C3387 C1029 0.691 . S
C3401 C961 0.630 . S
C3407 C791 0.625 . S
C3421 C825 0.640 . S
C3427 C1505 0.678 . S
C3441 C1539 0.701 . S
C3447 C995 0.675 . S
C3461 C1369 0.632 . S
C3467 C1063 0.668 . S
C3481 C1097 0.677 . S
C3487 C1335 0.639 . S
C3501 C1233 0.646 . S
C3507 C1131 0.684 . S
C3521 C1165 0.624 . S
C3527 C1267 0.653 . S
C3541 C1199 0.697 . S
C3547 C1301 0.698 . S
C3561 C33 1.591 . S
C3567 C339 1.592 . S
C3581 C373 1.584 . S
C3587 C67 1.595 . S
C3601 C407 1.589 . S
C3607 C101 1.593 . S
C3621 C305 1.583 . S
C3627 C135 1.594 . S
C3641 C169 1.584 . S
C3647 C543 1.593 . S
C3661 C441 1.595 . S
C3667 C203 1.587 . S
C3681 C237 1.584 . S
C3687 C475 1.595 . S
C3701 C271 1.595 . S
C3707 C509 1.584 . S
C3721 C645 1.594 . S
C3727 C577 1.583 . S
C3741 C611 1.593 . S
C3747 C1597 1.584 . S
C3761 C1631 1.584 . S
C3767 C679 1.594 . S
C3781 C713 1.584 . S
C3787 C1563 1.595 . S
C3801 C1529 1.590 . S
C3807 C747 1.585 . S
C3821 C781 1.594 . S
C3827 C1427 1.588 . S
C3841 C1495 1.586 . S
C3847 C815 1.590 . S
C3861 C1155 1.592 . S
C3867 C849 1.584 . S
C3881 C1189 1.595 . S
C3887 C883 1.584 . S
C3901 C917 1.585 . S
C3907 C1223 1.595 . S
C3921 C951 1.594 . S
C3927 C1121 1.589 . S
C3941 C985 1.591 . S
C3947 C1359 1.591 . S
C3961 C1019 1.595 . S
C3967 C1257 1.585 . S
C3981 C1291 1.587 . S
C3987 C1053 1.595 . S
C4001 C1087 1.588 . S
C4007 C1325 1.587 . S
C4021 C1393 1.588 . S
C4027 C1461 1.594 . S
