# Generated by pormake.
# Topology zfn, (5)-cn, num edge types: 1
# Building blocks:
#     Node 0, Type 0, BuildingBlock: XOMCOT_clean_sbu_1, # of connection points: 5
#     Node 1, Type 0, BuildingBlock: XOMCOT_clean_sbu_1, # of connection points: 5
#     Node 2, Type 0, BuildingBlock: XOMCOT_clean_sbu_1, # of connection points: 5
#     Node 3, Type 0, BuildingBlock: XOMCOT_clean_sbu_1, # of connection points: 5
#     Node 4, Type 0, BuildingBlock: XOMCOT_clean_sbu_1, # of connection points: 5
#     Node 5, Type 0, BuildingBlock: XOMCOT_clean_sbu_1, # of connection points: 5
#     Node 6, Type 0, BuildingBlock: XOMCOT_clean_sbu_1, # of connection points: 5
#     Node 7, Type 0, BuildingBlock: XOMCOT_clean_sbu_1, # of connection points: 5
#     Node 8, Type 0, BuildingBlock: XOMCOT_clean_sbu_1, # of connection points: 5
#     Node 9, Type 0, BuildingBlock: XOMCOT_clean_sbu_1, # of connection points: 5
#     Node 10, Type 0, BuildingBlock: XOMCOT_clean_sbu_1, # of connection points: 5
#     Node 11, Type 0, BuildingBlock: XOMCOT_clean_sbu_1, # of connection points: 5
#     Node 12, Type 0, BuildingBlock: XOMCOT_clean_sbu_1, # of connection points: 5
#     Node 13, Type 0, BuildingBlock: XOMCOT_clean_sbu_1, # of connection points: 5
#     Node 14, Type 0, BuildingBlock: XOMCOT_clean_sbu_1, # of connection points: 5
#     Node 15, Type 0, BuildingBlock: XOMCOT_clean_sbu_1, # of connection points: 5
#     Edge 16, Type (0, 0), BuildingBlock: XUDNAN_clean_linker_2, # of connection points: 2
#     Edge 17, Type (0, 0), BuildingBlock: XUDNAN_clean_linker_2, # of connection points: 2
#     Edge 18, Type (0, 0), BuildingBlock: XUDNAN_clean_linker_2, # of connection points: 2
#     Edge 19, Type (0, 0), BuildingBlock: XUDNAN_clean_linker_2, # of connection points: 2
#     Edge 20, Type (0, 0), BuildingBlock: XUDNAN_clean_linker_2, # of connection points: 2
#     Edge 21, Type (0, 0), BuildingBlock: XUDNAN_clean_linker_2, # of connection points: 2
#     Edge 22, Type (0, 0), BuildingBlock: XUDNAN_clean_linker_2, # of connection points: 2
#     Edge 23, Type (0, 0), BuildingBlock: XUDNAN_clean_linker_2, # of connection points: 2
#     Edge 24, Type (0, 0), BuildingBlock: XUDNAN_clean_linker_2, # of connection points: 2
#     Edge 25, Type (0, 0), BuildingBlock: XUDNAN_clean_linker_2, # of connection points: 2
#     Edge 26, Type (0, 0), BuildingBlock: XUDNAN_clean_linker_2, # of connection points: 2
#     Edge 27, Type (0, 0), BuildingBlock: XUDNAN_clean_linker_2, # of connection points: 2
#     Edge 28, Type (0, 0), BuildingBlock: XUDNAN_clean_linker_2, # of connection points: 2
#     Edge 29, Type (0, 0), BuildingBlock: XUDNAN_clean_linker_2, # of connection points: 2
#     Edge 30, Type (0, 0), BuildingBlock: XUDNAN_clean_linker_2, # of connection points: 2
#     Edge 31, Type (0, 0), BuildingBlock: XUDNAN_clean_linker_2, # of connection points: 2
#     Edge 32, Type (0, 0), BuildingBlock: XUDNAN_clean_linker_2, # of connection points: 2
#     Edge 33, Type (0, 0), BuildingBlock: XUDNAN_clean_linker_2, # of connection points: 2
#     Edge 34, Type (0, 0), BuildingBlock: XUDNAN_clean_linker_2, # of connection points: 2
#     Edge 35, Type (0, 0), BuildingBlock: XUDNAN_clean_linker_2, # of connection points: 2
#     Edge 36, Type (0, 0), BuildingBlock: XUDNAN_clean_linker_2, # of connection points: 2
#     Edge 37, Type (0, 0), BuildingBlock: XUDNAN_clean_linker_2, # of connection points: 2
#     Edge 38, Type (0, 0), BuildingBlock: XUDNAN_clean_linker_2, # of connection points: 2
#     Edge 39, Type (0, 0), BuildingBlock: XUDNAN_clean_linker_2, # of connection points: 2
#     Edge 40, Type (0, 0), BuildingBlock: XUDNAN_clean_linker_2, # of connection points: 2
#     Edge 41, Type (0, 0), BuildingBlock: XUDNAN_clean_linker_2, # of connection points: 2
#     Edge 42, Type (0, 0), BuildingBlock: XUDNAN_clean_linker_2, # of connection points: 2
#     Edge 43, Type (0, 0), BuildingBlock: XUDNAN_clean_linker_2, # of connection points: 2
#     Edge 44, Type (0, 0), BuildingBlock: XUDNAN_clean_linker_2, # of connection points: 2
#     Edge 45, Type (0, 0), BuildingBlock: XUDNAN_clean_linker_2, # of connection points: 2
#     Edge 46, Type (0, 0), BuildingBlock: XUDNAN_clean_linker_2, # of connection points: 2
#     Edge 47, Type (0, 0), BuildingBlock: XUDNAN_clean_linker_2, # of connection points: 2
#     Edge 48, Type (0, 0), BuildingBlock: XUDNAN_clean_linker_2, # of connection points: 2
#     Edge 49, Type (0, 0), BuildingBlock: XUDNAN_clean_linker_2, # of connection points: 2
#     Edge 50, Type (0, 0), BuildingBlock: XUDNAN_clean_linker_2, # of connection points: 2
#     Edge 51, Type (0, 0), BuildingBlock: XUDNAN_clean_linker_2, # of connection points: 2
#     Edge 52, Type (0, 0), BuildingBlock: XUDNAN_clean_linker_2, # of connection points: 2
#     Edge 53, Type (0, 0), BuildingBlock: XUDNAN_clean_linker_2, # of connection points: 2
#     Edge 54, Type (0, 0), BuildingBlock: XUDNAN_clean_linker_2, # of connection points: 2
#     Edge 55, Type (0, 0), BuildingBlock: XUDNAN_clean_linker_2, # of connection points: 2
# Relax obj value: 0.120
# Max RMSD: 0.125
# Mean RMSD: 0.125
data_MOF--net-zfn--node1-XOMCOT_clean_sbu_1--edge1-XUDNAN_clean_linker_2
_symmetry_space_group_name_H-M    P1
_symmetry_Int_Tables_number       1
_symmetry_cell_setting            triclinic
loop_
_symmetry_equiv_pos_as_xyz
'x, y, z'
_cell_length_a     75.196154
_cell_length_b     75.195186
_cell_length_c     17.548079
_cell_angle_alpha  89.994883
_cell_angle_beta   90.089861
_cell_angle_gamma 90.001628
loop_
_atom_site_label
_atom_site_type_symbol
_atom_site_fract_x
_atom_site_fract_y
_atom_site_fract_z
_atom_type_partial_charge
C0 C 0.00023 0.34057 0.03944 0.0
C1 C 0.99834 0.33747 0.96268 0.0
N2 N 0.01409 0.34053 0.92875 0.0
N3 N 0.01716 0.34531 0.05442 0.0
C4 C 0.02531 0.34533 0.98546 0.0
H5 H 0.98989 0.33946 0.08191 0.0
Co6 Co 0.02518 0.35028 0.15323 0.0
C7 C 0.06355 0.35339 0.11817 0.0
O8 O 0.06711 0.3391 0.15845 0.0
N9 N 0.03282 0.35515 0.25309 0.0
C10 C 0.04534 0.36678 0.35659 0.0
C11 C 0.04419 0.36772 0.27825 0.0
C12 C 0.02709 0.34693 0.31704 0.0
N13 N 0.03454 0.35366 0.38125 0.0
O14 O 0.03419 0.32638 0.16221 0.0
H15 H 0.05105 0.37713 0.24217 0.0
H16 H 0.01721 0.3365 0.31628 0.0
O17 O 0.04759 0.35898 0.11278 0.0
C18 C 0.02255 0.31481 0.18025 0.0
O19 O 0.00601 0.32002 0.18921 0.0
N20 N 0.01512 0.37294 0.1462 0.0
C21 C 0.9952 0.40414 0.13447 0.0
C22 C 0.00994 0.40126 0.08697 0.0
C23 C 0.01966 0.38545 0.09328 0.0
C24 C 0.00099 0.37559 0.19326 0.0
C25 C 0.99093 0.39113 0.18876 0.0
H26 H 0.03035 0.38302 0.05359 0.0
H27 H 0.99725 0.36534 0.23342 0.0
H28 H 0.03919 0.34851 0.97685 0.0
H29 H 0.98627 0.33343 0.93374 0.0
H30 H 0.05356 0.37516 0.39226 0.0
H31 H 0.01351 0.41079 0.04334 0.0
H32 H 0.97977 0.39283 0.22701 0.0
C33 C 0.15536 0.00334 0.60638 0.0
C34 C 0.15463 0.99967 0.52969 0.0
N35 N 0.14886 0.01431 0.49303 0.0
N36 N 0.15003 0.0202 0.61849 0.0
C37 C 0.14621 0.02661 0.54806 0.0
H38 H 0.15886 0.99405 0.65099 0.0
Co39 Co 0.14659 0.02935 0.71646 0.0
C40 C 0.1281 0.06413 0.6895 0.0
O41 O 0.11793 0.06192 0.74959 0.0
N42 N 0.14368 0.0381 0.81712 0.0
C43 C 0.14724 0.0548 0.92101 0.0
C44 C 0.1487 0.05426 0.84288 0.0
C45 C 0.13988 0.02889 0.88147 0.0
N46 N 0.14174 0.03874 0.94579 0.0
O47 O 0.17085 0.03707 0.71964 0.0
H48 H 0.15386 0.06482 0.8074 0.0
H49 H 0.13697 0.01488 0.88167 0.0
O50 O 0.13965 0.05228 0.67254 0.0
C51 C 0.18144 0.02563 0.74809 0.0
O52 O 0.17491 0.01034 0.77101 0.0
N53 N 0.12313 0.02033 0.71322 0.0
C54 C 0.09186 0.00044 0.69586 0.0
C55 C 0.09397 0.01681 0.65864 0.0
C56 C 0.10981 0.02634 0.66666 0.0
C57 C 0.12142 0.00426 0.74844 0.0
C58 C 0.10583 0.99427 0.74181 0.0
H59 H 0.11159 0.03785 0.63107 0.0
H60 H 0.13268 0.99856 0.77793 0.0
H61 H 0.14062 0.03962 0.53742 0.0
H62 H 0.15774 0.98706 0.50302 0.0
H63 H 0.15059 0.06607 0.95645 0.0
H64 H 0.08371 0.02195 0.62124 0.0
H65 H 0.10517 0.98134 0.76888 0.0
C66 C 0.50572 0.15728 0.0669 0.0
C67 C 0.50794 0.16112 0.99094 0.0
N68 N 0.4918 0.16319 0.95932 0.0
N69 N 0.4882 0.15668 0.08395 0.0
C70 C 0.48008 0.16093 0.01694 0.0
H71 H 0.51643 0.15545 0.10698 0.0
Co72 Co 0.47872 0.15301 0.18399 0.0
C73 C 0.45466 0.13205 0.08277 0.0
O74 O 0.46848 0.12656 0.0435 0.0
N75 N 0.47009 0.15019 0.28356 0.0
C76 C 0.45535 0.14257 0.38839 0.0
C77 C 0.45594 0.14109 0.31007 0.0
C78 C 0.4779 0.15699 0.3467 0.0
N79 N 0.4692 0.1526 0.41171 0.0
O80 O 0.46785 0.17606 0.17951 0.0
H81 H 0.44669 0.13371 0.27523 0.0
H82 H 0.49 0.16474 0.34466 0.0
O83 O 0.4569 0.14206 0.14113 0.0
C84 C 0.47917 0.18816 0.19472 0.0
O85 O 0.49577 0.18339 0.20643 0.0
N86 N 0.49061 0.13098 0.19409 0.0
C87 C 0.51211 0.10166 0.22667 0.0
C88 C 0.49443 0.09927 0.20386 0.0
C89 C 0.48368 0.11417 0.19031 0.0
C90 C 0.50754 0.13341 0.21994 0.0
C91 C 0.51858 0.11897 0.23585 0.0
H92 H 0.46974 0.11197 0.18003 0.0
H93 H 0.51239 0.14673 0.2301 0.0
H94 H 0.46584 0.16241 1.01031 0.0
H95 H 0.52046 0.16212 0.9609 0.0
H96 H 0.44534 0.13677 0.42499 0.0
H97 H 0.48878 0.08605 0.1998 0.0
H98 H 0.53201 0.12131 0.25589 0.0
C99 C 0.35062 0.50034 0.57355 0.0
C100 C 0.34934 0.5012 0.49511 0.0
N101 N 0.34398 0.4852 0.46915 0.0
N102 N 0.34632 0.48379 0.59692 0.0
C103 C 0.34219 0.47497 0.53208 0.0
H104 H 0.35455 0.51106 0.611 0.0
Co105 Co 0.34634 0.47433 0.69602 0.0
C106 C 0.36867 0.44164 0.67853 0.0
O107 O 0.37617 0.44412 0.7454 0.0
N108 N 0.34559 0.46441 0.79601 0.0
C109 C 0.33825 0.44437 0.88418 0.0
C110 C 0.34056 0.44738 0.80792 0.0
C111 C 0.34568 0.47163 0.86721 0.0
N112 N 0.3413 0.45965 0.92183 0.0
O113 O 0.32282 0.46522 0.68012 0.0
H114 H 0.33781 0.43783 0.76338 0.0
H115 H 0.34757 0.48558 0.87898 0.0
O116 O 0.35684 0.45251 0.6546 0.0
C117 C 0.31107 0.47683 0.69597 0.0
O118 O 0.3164 0.49294 0.71398 0.0
N119 N 0.36885 0.48468 0.71312 0.0
C120 C 0.39917 0.50564 0.73491 0.0
C121 C 0.39939 0.49136 0.68348 0.0
C122 C 0.384 0.48113 0.67273 0.0
C123 C 0.36823 0.49908 0.76008 0.0
C124 C 0.38328 0.50947 0.77319 0.0
H125 H 0.38413 0.471 0.62924 0.0
H126 H 0.35571 0.50313 0.78446 0.0
H127 H 0.33816 0.46116 0.53109 0.0
H128 H 0.35188 0.51277 0.46009 0.0
H129 H 0.334 0.43197 0.90963 0.0
H130 H 0.41124 0.48829 0.65107 0.0
H131 H 0.38225 0.5209 0.81052 0.0
C132 C 0.00451 0.16533 0.43216 0.0
C133 C 0.00254 0.16442 0.51 0.0
N134 N 0.01326 0.15148 0.53632 0.0
N135 N 0.01666 0.15324 0.40964 0.0
C136 C 0.02153 0.14479 0.47448 0.0
H137 H 0.99784 0.1746 0.39475 0.0
Co138 Co 0.02543 0.15117 0.3106 0.0
C139 C 0.06062 0.13295 0.32406 0.0
O140 O 0.05872 0.12591 0.25603 0.0
N141 N 0.03411 0.14983 0.2092 0.0
C142 C 0.04997 0.15748 0.10694 0.0
C143 C 0.04863 0.15882 0.1847 0.0
C144 C 0.02691 0.14305 0.14444 0.0
N145 N 0.03636 0.14751 0.08196 0.0
O146 O 0.03355 0.17549 0.31516 0.0
H147 H 0.05749 0.16634 0.22102 0.0
H148 H 0.01452 0.13586 0.14167 0.0
O149 O 0.04838 0.14287 0.35159 0.0
C150 C 0.02306 0.18637 0.28216 0.0
O151 O 0.00833 0.18012 0.25185 0.0
N152 N 0.016 0.12796 0.30558 0.0
C153 C 0.99706 0.0962 0.29327 0.0
C154 C 0.0132 0.09673 0.33304 0.0
C155 C 0.0225 0.11283 0.33888 0.0
C156 C 0.99975 0.12778 0.2712 0.0
C157 C 0.99025 0.11197 0.26264 0.0
H158 H 0.0346 0.11299 0.37174 0.0
H159 H 0.99426 0.14004 0.24911 0.0
H160 H 0.03136 0.13437 0.477 0.0
H161 H 0.99409 0.17278 0.54477 0.0
H162 H 0.05993 0.16367 0.07116 0.0
H163 H 0.01862 0.08481 0.35878 0.0
H164 H 0.97762 0.11208 0.23287 0.0
C165 C 0.34064 0.99621 0.94939 0.0
C166 C 0.34199 0.99278 0.02603 0.0
N167 N 0.34644 0.00799 0.0616 0.0
N168 N 0.34437 0.01347 0.93639 0.0
C169 C 0.34771 0.0204 1.00616 0.0
H170 H 0.33783 0.98656 0.90529 0.0
Co171 Co 0.34653 0.02229 0.83783 0.0
C172 C 0.36731 0.05573 0.84936 0.0
O173 O 0.37521 0.05157 0.78501 0.0
N174 N 0.34797 0.03063 0.73623 0.0
C175 C 0.34312 0.0473 0.63327 0.0
C176 C 0.34166 0.04642 0.71126 0.0
C177 C 0.35262 0.02196 0.67163 0.0
N178 N 0.34999 0.03184 0.60801 0.0
O179 O 0.32271 0.03129 0.84224 0.0
H180 H 0.33607 0.0566 0.74755 0.0
H181 H 0.35698 0.00834 0.67056 0.0
O182 O 0.35562 0.04517 0.87721 0.0
C183 C 0.31083 0.02027 0.82106 0.0
O184 O 0.31578 0.00415 0.8014 0.0
N185 N 0.36958 0.01209 0.83423 0.0
C186 C 0.40064 0.99148 0.84333 0.0
C187 C 0.3995 0.00805 0.87979 0.0
C188 C 0.38375 0.01783 0.87659 0.0
C189 C 0.3703 0.99583 0.79984 0.0
C190 C 0.38573 0.98545 0.80259 0.0
H191 H 0.38284 0.02942 0.91232 0.0
H192 H 0.35848 0.99043 0.77345 0.0
H193 H 0.35191 0.03395 0.016 0.0
H194 H 0.3402 0.98 0.05346 0.0
H195 H 0.33914 0.05845 0.59826 0.0
H196 H 0.41049 0.01324 0.9129 0.0
H197 H 0.38562 0.97243 0.77624 0.0
C198 C 0.49841 0.33353 0.47346 0.0
C199 C 0.4998 0.33032 0.5502 0.0
N200 N 0.48612 0.33837 0.58522 0.0
N201 N 0.48366 0.3432 0.45922 0.0
C202 C 0.47665 0.34632 0.52927 0.0
H203 H 0.50784 0.32927 0.43094 0.0
Co204 Co 0.47732 0.35007 0.35953 0.0
C205 C 0.44106 0.35193 0.42631 0.0
O206 O 0.44165 0.33546 0.45114 0.0
N207 N 0.4715 0.35687 0.25948 0.0
C208 C 0.46029 0.37058 0.1576 0.0
C209 C 0.46147 0.37074 0.23609 0.0
C210 C 0.47644 0.34869 0.19432 0.0
N211 N 0.46965 0.35657 0.1315 0.0
O212 O 0.46766 0.32663 0.34039 0.0
H213 H 0.45529 0.38031 0.27366 0.0
H214 H 0.48505 0.33724 0.19255 0.0
O215 O 0.45434 0.3587 0.39193 0.0
C216 C 0.479 0.31535 0.31629 0.0
O217 O 0.49549 0.32064 0.30656 0.0
N218 N 0.48771 0.37227 0.37704 0.0
C219 C 0.50859 0.40183 0.41164 0.0
C220 C 0.49247 0.39888 0.44971 0.0
C221 C 0.48214 0.38403 0.43134 0.0
C222 C 0.50309 0.37516 0.33806 0.0
C223 C 0.51366 0.38998 0.3539 0.0
H224 H 0.47013 0.38163 0.46332 0.0
H225 H 0.5075 0.36552 0.29641 0.0
H226 H 0.46487 0.35417 0.53969 0.0
H227 H 0.51021 0.32284 0.57838 0.0
H228 H 0.45279 0.37979 0.12276 0.0
H229 H 0.48808 0.40776 0.49451 0.0
H230 H 0.52613 0.39165 0.3239 0.0
C231 C 0.15304 0.49876 0.93584 0.0
C232 C 0.15539 0.49926 0.01382 0.0
N233 N 0.15538 0.48244 0.04059 0.0
N234 N 0.15149 0.48172 0.91319 0.0
C235 C 0.15307 0.47212 0.97808 0.0
H236 H 0.1523 0.51011 0.89806 0.0
Co237 Co 0.14729 0.47379 0.81338 0.0
C238 C 0.14356 0.43559 0.84809 0.0
O239 O 0.15788 0.43222 0.80783 0.0
N240 N 0.14302 0.46581 0.71324 0.0
C241 C 0.131 0.45182 0.61401 0.0
C242 C 0.12995 0.45458 0.69126 0.0
C243 C 0.15155 0.47009 0.64772 0.0
N244 N 0.1445 0.46163 0.58677 0.0
O245 O 0.17102 0.46451 0.80884 0.0
H246 H 0.12014 0.44883 0.72887 0.0
H247 H 0.16277 0.47907 0.64476 0.0
O248 O 0.13784 0.45152 0.85369 0.0
C249 C 0.18248 0.47633 0.79182 0.0
O250 O 0.177 0.49279 0.78276 0.0
N251 N 0.12484 0.48434 0.81514 0.0
C252 C 0.09334 0.5037 0.80499 0.0
C253 C 0.09518 0.49013 0.85946 0.0
C254 C 0.11115 0.48047 0.86349 0.0
C255 C 0.12344 0.49791 0.76417 0.0
C256 C 0.10777 0.50759 0.75746 0.0
H257 H 0.11259 0.47012 0.90578 0.0
H258 H 0.13465 0.50121 0.72829 0.0
H259 H 0.15215 0.45779 0.97963 0.0
H260 H 0.15701 0.51115 0.04781 0.0
H261 H 0.12239 0.4434 0.58011 0.0
H262 H 0.08436 0.48691 0.8977 0.0
H263 H 0.10703 0.51824 0.71595 0.0
C264 C 0.99634 0.66697 0.95487 0.0
C265 C 0.99824 0.66639 0.03287 0.0
N266 N 0.9868 0.65421 0.06006 0.0
N267 N 0.98355 0.65544 0.93332 0.0
C268 C 0.97807 0.64774 0.99891 0.0
H269 H 0.00363 0.67551 0.91647 0.0
Co270 Co 0.97519 0.65282 0.834 0.0
C271 C 0.94198 0.63183 0.84755 0.0
O272 O 0.94605 0.62316 0.78491 0.0
N273 N 0.96671 0.65089 0.73249 0.0
C274 C 0.94986 0.6571 0.63109 0.0
C275 C 0.95126 0.65835 0.70892 0.0
C276 C 0.97441 0.64509 0.6672 0.0
N277 N 0.96438 0.64868 0.60529 0.0
O278 O 0.96615 0.67677 0.83711 0.0
H279 H 0.9418 0.66487 0.74595 0.0
H280 H 0.98747 0.63925 0.66347 0.0
O281 O 0.95249 0.64384 0.8729 0.0
C282 C 0.97646 0.68801 0.80547 0.0
O283 O 0.99149 0.68226 0.7763 0.0
N284 N 0.98562 0.62996 0.83072 0.0
C285 C 0.00533 0.59868 0.81778 0.0
C286 C 0.98998 0.59913 0.86273 0.0
C287 C 0.98034 0.61501 0.8691 0.0
C288 C 0.00141 0.63001 0.79279 0.0
C289 C 0.01121 0.61442 0.78355 0.0
H290 H 0.9689 0.61516 0.90595 0.0
H291 H 0.00629 0.64229 0.7684 0.0
H292 H 0.96751 0.63801 1.00249 0.0
H293 H 0.00728 0.67427 0.06706 0.0
H294 H 0.93922 0.66228 0.5959 0.0
H295 H 0.98537 0.58729 0.89179 0.0
H296 H 0.02334 0.61466 0.75034 0.0
C297 C 0.84805 0.99888 0.42511 0.0
C298 C 0.84537 0.00133 0.5019 0.0
N299 N 0.84702 0.98549 0.53703 0.0
N300 N 0.8512 0.98154 0.41135 0.0
C301 C 0.85061 0.97368 0.48094 0.0
H302 H 0.84753 0.00907 0.38164 0.0
Co303 Co 0.85448 0.9724 0.31303 0.0
C304 C 0.85792 0.93455 0.35197 0.0
O305 O 0.84406 0.93103 0.30891 0.0
N306 N 0.85766 0.96358 0.21338 0.0
C307 C 0.86852 0.95067 0.10939 0.0
C308 C 0.86973 0.95177 0.18761 0.0
C309 C 0.84944 0.96959 0.14973 0.0
N310 N 0.85578 0.96198 0.08506 0.0
O311 O 0.83055 0.96339 0.31377 0.0
H312 H 0.87927 0.94485 0.22296 0.0
H313 H 0.83957 0.98001 0.15111 0.0
O314 O 0.86372 0.95046 0.35671 0.0
C315 C 0.81876 0.97495 0.29755 0.0
O316 O 0.82389 0.99136 0.284 0.0
N317 N 0.87713 0.98256 0.30988 0.0
C318 C 0.90879 0.0015 0.29427 0.0
C319 C 0.90714 0.98828 0.35039 0.0
C320 C 0.89109 0.97884 0.35717 0.0
C321 C 0.87837 0.99579 0.25723 0.0
C322 C 0.89411 0.00524 0.24772 0.0
H323 H 0.88981 0.96882 0.40098 0.0
H324 H 0.86695 0.9991 0.22249 0.0
H325 H 0.85225 0.95955 0.49032 0.0
H326 H 0.8424 0.01381 0.5299 0.0
H327 H 0.87673 0.94235 0.07356 0.0
H328 H 0.91814 0.98519 0.38801 0.0
H329 H 0.89469 0.01564 0.20508 0.0
C330 C 0.50928 0.83505 0.94083 0.0
C331 C 0.50711 0.83594 0.01854 0.0
N332 N 0.51729 0.84929 0.0451 0.0
N333 N 0.52103 0.84756 0.91857 0.0
C334 C 0.52545 0.85623 0.98346 0.0
H335 H 0.5029 0.82561 0.9033 0.0
Co336 Co 0.52952 0.85035 0.81933 0.0
C337 C 0.56454 0.86924 0.83307 0.0
O338 O 0.56276 0.87605 0.76459 0.0
N339 N 0.5378 0.85244 0.71803 0.0
C340 C 0.55328 0.84558 0.61384 0.0
C341 C 0.55243 0.84396 0.69159 0.0
C342 C 0.52998 0.85915 0.65454 0.0
N343 N 0.53921 0.85516 0.59082 0.0
O344 O 0.53833 0.82628 0.82142 0.0
H345 H 0.56169 0.83655 0.72653 0.0
H346 H 0.51727 0.86585 0.65387 0.0
O347 O 0.55234 0.85922 0.8605 0.0
C348 C 0.52769 0.81547 0.78888 0.0
O349 O 0.51279 0.82175 0.76021 0.0
N350 N 0.5193 0.8732 0.81684 0.0
C351 C 0.49742 0.90318 0.82764 0.0
C352 C 0.51498 0.90358 0.85491 0.0
C353 C 0.52565 0.88841 0.84974 0.0
C354 C 0.50235 0.87265 0.78929 0.0
C355 C 0.49126 0.88752 0.79322 0.0
H356 H 0.53852 0.88885 0.87638 0.0
H357 H 0.4972 0.86031 0.76651 0.0
H358 H 0.53479 0.86709 0.98605 0.0
H359 H 0.4988 0.82738 0.05301 0.0
H360 H 0.56316 0.83974 0.57667 0.0
H361 H 0.52027 0.91535 0.88229 0.0
H362 H 0.47769 0.88643 0.773 0.0
C363 C 0.678 0.51682 0.51521 0.0
C364 C 0.67935 0.51875 0.59281 0.0
N365 N 0.66462 0.52704 0.618 0.0
N366 N 0.6625 0.52387 0.4912 0.0
C367 C 0.65462 0.53007 0.55524 0.0
H368 H 0.68744 0.51002 0.47909 0.0
Co369 Co 0.654 0.52199 0.39161 0.0
C370 C 0.64497 0.56099 0.38488 0.0
O371 O 0.65857 0.56573 0.34269 0.0
N372 N 0.64588 0.51948 0.29112 0.0
C373 C 0.63824 0.50469 0.1865 0.0
C374 C 0.64008 0.50371 0.26406 0.0
C375 C 0.64756 0.52989 0.22848 0.0
N376 N 0.64301 0.5211 0.16406 0.0
O377 O 0.67566 0.53253 0.35466 0.0
H378 H 0.63834 0.49185 0.2981 0.0
H379 H 0.65341 0.54302 0.22909 0.0
O380 O 0.64273 0.54476 0.40312 0.0
C381 C 0.68641 0.52126 0.32606 0.0
O382 O 0.68154 0.50448 0.32385 0.0
N383 N 0.6332 0.51086 0.4272 0.0
C384 C 0.60345 0.49034 0.46191 0.0
C385 C 0.60157 0.5066 0.42379 0.0
C386 C 0.61662 0.51676 0.40741 0.0
C387 C 0.63522 0.49524 0.46575 0.0
C388 C 0.62046 0.48487 0.48469 0.0
H389 H 0.61502 0.52885 0.37479 0.0
H390 H 0.64842 0.49046 0.4793 0.0
H391 H 0.64138 0.53568 0.55652 0.0
H392 H 0.69014 0.51401 0.6283 0.0
H393 H 0.63458 0.49387 0.14886 0.0
H394 H 0.58861 0.51116 0.40506 0.0
H395 H 0.6224 0.47226 0.51335 0.0
C396 C 0.99683 0.84417 0.58776 0.0
C397 C 0.999 0.84124 0.51105 0.0
N398 N 0.98324 0.84377 0.47626 0.0
N399 N 0.97971 0.8483 0.6019 0.0
C400 C 0.97173 0.84811 0.53246 0.0
H401 H 0.0071 0.84335 0.63081 0.0
Co402 Co 0.97136 0.85282 0.7005 0.0
C403 C 0.93311 0.85454 0.65763 0.0
O404 O 0.9297 0.8393 0.69105 0.0
N405 N 0.96342 0.85725 0.80005 0.0
C406 C 0.95011 0.8679 0.90349 0.0
C407 C 0.95111 0.86889 0.82511 0.0
C408 C 0.96983 0.84953 0.86402 0.0
N409 N 0.96192 0.85568 0.92822 0.0
O410 O 0.96298 0.82871 0.708 0.0
H411 H 0.94347 0.8777 0.789 0.0
H412 H 0.98047 0.83988 0.86323 0.0
O413 O 0.94881 0.86094 0.65905 0.0
C414 C 0.97481 0.81728 0.72564 0.0
O415 O 0.99122 0.82276 0.736 0.0
N416 N 0.98082 0.87576 0.69488 0.0
C417 C 0.00014 0.90738 0.68283 0.0
C418 C 0.98476 0.90458 0.63877 0.0
C419 C 0.97542 0.88857 0.64484 0.0
C420 C 0.99546 0.87832 0.73926 0.0
C421 C 0.00531 0.89402 0.73426 0.0
H422 H 0.96432 0.88629 0.60707 0.0
H423 H 0.99989 0.86781 0.77682 0.0
H424 H 0.95776 0.85078 0.52316 0.0
H425 H 0.01128 0.83765 0.48276 0.0
H426 H 0.94126 0.8756 0.93912 0.0
H427 H 0.98014 0.91449 0.59862 0.0
H428 H 0.01728 0.89527 0.76817 0.0
C429 C 0.6628 0.00019 0.10742 0.0
C430 C 0.6621 0.00376 0.03062 0.0
N431 N 0.65586 0.98923 0.99457 0.0
N432 N 0.65691 0.98353 0.12018 0.0
C433 C 0.65285 0.97712 0.05002 0.0
H434 H 0.66685 0.00937 0.15159 0.0
Co435 Co 0.65395 0.97427 0.21834 0.0
C436 C 0.63175 0.9414 0.19204 0.0
O437 O 0.62246 0.94361 0.2547 0.0
N438 N 0.65148 0.96533 0.31894 0.0
C439 C 0.65352 0.94808 0.42203 0.0
C440 C 0.65491 0.94868 0.34371 0.0
C441 C 0.64871 0.97468 0.38384 0.0
N442 N 0.6496 0.96453 0.44751 0.0
O443 O 0.67727 0.96402 0.21409 0.0
H444 H 0.65868 0.9377 0.30731 0.0
H445 H 0.64709 0.9889 0.38503 0.0
O446 O 0.64388 0.95258 0.17451 0.0
C447 C 0.68883 0.97474 0.24076 0.0
O448 O 0.6834 0.99029 0.26574 0.0
N449 N 0.63183 0.98595 0.22373 0.0
C450 C 0.60253 0.00838 0.24239 0.0
C451 C 0.60098 0.99257 0.20026 0.0
C452 C 0.61592 0.98159 0.19067 0.0
C453 C 0.63378 0.00197 0.25883 0.0
C454 C 0.61931 0.01318 0.27026 0.0
H455 H 0.61464 0.96995 0.15533 0.0
H456 H 0.6468 0.00609 0.27825 0.0
H457 H 0.64704 0.9642 0.0397 0.0
H458 H 0.66568 0.01617 1.00339 0.0
H459 H 0.65556 0.93644 0.45714 0.0
H460 H 0.58837 0.9887 0.17546 0.0
H461 H 0.62132 0.02566 0.29993 0.0
C462 C 0.5026 0.66738 0.56142 0.0
C463 C 0.50075 0.66684 0.48339 0.0
N464 N 0.51086 0.65347 0.45684 0.0
N465 N 0.51408 0.6546 0.58372 0.0
C466 C 0.51875 0.64621 0.51849 0.0
H467 H 0.49627 0.67679 0.59919 0.0
Co468 Co 0.52249 0.65145 0.68299 0.0
C469 C 0.55451 0.62863 0.6656 0.0
O470 O 0.55046 0.61992 0.72814 0.0
N471 N 0.5311 0.64887 0.7841 0.0
C472 C 0.54846 0.65384 0.88518 0.0
C473 C 0.54708 0.65518 0.80731 0.0
C474 C 0.52306 0.64367 0.8496 0.0
N475 N 0.53338 0.64653 0.91138 0.0
O476 O 0.53295 0.6748 0.68001 0.0
H477 H 0.55692 0.66102 0.77005 0.0
H478 H 0.50959 0.63884 0.85353 0.0
O479 O 0.54445 0.64122 0.64236 0.0
C480 C 0.52307 0.68636 0.7121 0.0
O481 O 0.50778 0.68115 0.74066 0.0
N482 N 0.51063 0.62936 0.68709 0.0
C483 C 0.48888 0.5997 0.70842 0.0
C484 C 0.50421 0.5985 0.66327 0.0
C485 C 0.51487 0.61361 0.65257 0.0
C486 C 0.49486 0.63104 0.72442 0.0
C487 C 0.48403 0.61633 0.73759 0.0
H488 H 0.52633 0.6125 0.61608 0.0
H489 H 0.49092 0.64391 0.74618 0.0
H490 H 0.52825 0.63542 0.51552 0.0
H491 H 0.49271 0.67564 0.44868 0.0
H492 H 0.5595 0.65823 0.92011 0.0
H493 H 0.50807 0.58597 0.63778 0.0
H494 H 0.47195 0.61794 0.77042 0.0
C495 C 0.83749 0.50176 0.0247 0.0
C496 C 0.83533 0.50197 0.94668 0.0
N497 N 0.83727 0.51884 0.92153 0.0
N498 N 0.84076 0.51839 0.0493 0.0
C499 C 0.84036 0.52848 0.98548 0.0
H500 H 0.83731 0.49013 0.06096 0.0
Co501 Co 0.84693 0.52486 0.14918 0.0
C502 C 0.8532 0.56342 0.13031 0.0
O503 O 0.84207 0.56722 0.18558 0.0
N504 N 0.85332 0.53131 0.24919 0.0
C505 C 0.86854 0.5431 0.34548 0.0
C506 C 0.86843 0.53995 0.26848 0.0
C507 C 0.84466 0.52893 0.31612 0.0
N508 N 0.85363 0.53615 0.37539 0.0
O509 O 0.8237 0.53488 0.16361 0.0
H510 H 0.87868 0.5439 0.22876 0.0
H511 H 0.83187 0.52244 0.32119 0.0
O512 O 0.85607 0.54726 0.11214 0.0
C513 C 0.81205 0.52309 0.17858 0.0
O514 O 0.81715 0.50639 0.18203 0.0
N515 N 0.86906 0.51394 0.13624 0.0
C516 C 0.90046 0.49436 0.12336 0.0
C517 C 0.89747 0.50935 0.07725 0.0
C518 C 0.8816 0.51894 0.08424 0.0
C519 C 0.87162 0.49936 0.18085 0.0
C520 C 0.88726 0.48946 0.17583 0.0
H521 H 0.8793 0.53012 0.0469 0.0
H522 H 0.86139 0.49539 0.22069 0.0
H523 H 0.84288 0.54259 0.98596 0.0
H524 H 0.83297 0.49039 0.9116 0.0
H525 H 0.8788 0.54998 0.3773 0.0
H526 H 0.90713 0.51343 0.03497 0.0
H527 H 0.889 0.47814 0.21321 0.0
H528 H 0.95882 0.40592 0.13792 0.0
H529 H 0.00587 0.43872 0.111 0.0
H530 H 0.98679 0.46542 0.09948 0.0
H531 H 0.93073 0.43015 1.00634 0.0
H532 H 0.91106 0.42729 0.06358 0.0
H533 H 0.92845 0.41083 0.06637 0.0
H534 H 0.93065 0.41435 0.21305 0.0
H535 H 0.91327 0.43081 0.21071 0.0
H536 H 0.93446 0.43609 0.25323 0.0
H537 H 0.96227 0.48874 0.09662 0.0
H538 H 0.93464 0.50653 0.10243 0.0
H539 H 0.90396 0.45804 0.12974 0.0
C540 C 0.96516 0.41872 0.12998 0.0
C541 C 0.98386 0.42023 0.12577 0.0
C542 C 0.99157 0.43721 0.11385 0.0
C543 C 0.98084 0.45245 0.10751 0.0
C544 C 0.96243 0.45046 0.11268 0.0
C545 C 0.95468 0.43399 0.12335 0.0
C546 C 0.93464 0.43538 0.12823 0.0
C547 C 0.9257 0.42532 0.06218 0.0
C548 C 0.92787 0.42877 0.20593 0.0
C549 C 0.9323 0.45527 0.11998 0.0
C550 C 0.94844 0.46376 0.11062 0.0
C551 C 0.94955 0.4822 0.10337 0.0
C552 C 0.93377 0.49218 0.10635 0.0
C553 C 0.91709 0.48372 0.11672 0.0
C554 C 0.91647 0.46498 0.1228 0.0
H555 H 0.07331 0.97972 0.79806 0.0
H556 H 0.07497 0.99489 0.55943 0.0
H557 H 0.05011 0.97449 0.53235 0.0
H558 H 0.06557 0.93413 0.76703 0.0
H559 H 0.05081 0.93129 0.84694 0.0
H560 H 0.0676 0.94834 0.84934 0.0
H561 H 0.04342 0.97215 0.87503 0.0
H562 H 0.02654 0.95514 0.87295 0.0
H563 H 0.02481 0.97413 0.81068 0.0
H564 H 0.02698 0.95055 0.52869 0.0
H565 H 0.00691 0.92516 0.549 0.0
H566 H 0.01953 0.92593 0.79076 0.0
C567 C 0.06834 0.97887 0.74023 0.0
C568 C 0.07602 0.98907 0.68105 0.0
C569 C 0.0691 0.98754 0.60612 0.0
C570 C 0.05503 0.9759 0.59001 0.0
C571 C 0.04793 0.9659 0.64945 0.0
C572 C 0.05426 0.96734 0.72315 0.0
C573 C 0.04479 0.9545 0.77591 0.0
C574 C 0.05798 0.94128 0.81189 0.0
C575 C 0.03426 0.96459 0.83727 0.0
C576 C 0.03246 0.94533 0.71996 0.0
C577 C 0.03441 0.95219 0.64744 0.0
C578 C 0.02511 0.94528 0.58549 0.0
C579 C 0.0136 0.93089 0.59782 0.0
C580 C 0.01141 0.92352 0.67169 0.0
C581 C 0.02089 0.9311 0.73349 0.0
H582 H 0.57711 0.0202 0.14057 0.0
H583 H 0.59336 0.02352 0.37748 0.0
H584 H 0.57008 0.04591 0.40116 0.0
H585 H 0.56947 0.06549 0.11437 0.0
H586 H 0.55019 0.06315 0.05403 0.0
H587 H 0.56667 0.04581 0.05689 0.0
H588 H 0.54246 0.02285 0.09334 0.0
H589 H 0.52585 0.04013 0.09014 0.0
H590 H 0.52854 0.02691 0.17508 0.0
H591 H 0.54784 0.07022 0.39647 0.0
H592 H 0.52675 0.09433 0.36436 0.0
H593 H 0.52373 0.07507 0.13197 0.0
C594 C 0.57541 0.02531 0.1978 0.0
C595 C 0.58705 0.02014 0.25723 0.0
C596 C 0.58468 0.0274 0.33104 0.0
C597 C 0.57144 0.04005 0.34515 0.0
C598 C 0.56053 0.04525 0.28503 0.0
C599 C 0.5622 0.03802 0.21294 0.0
C600 C 0.54943 0.04684 0.15749 0.0
C601 C 0.55955 0.05586 0.09184 0.0
C602 C 0.53576 0.03338 0.12724 0.0
C603 C 0.54073 0.06046 0.20925 0.0
C604 C 0.54729 0.05921 0.28269 0.0
C605 C 0.54233 0.07114 0.33959 0.0
C606 C 0.53043 0.08479 0.3209 0.0
C607 C 0.52354 0.08633 0.24618 0.0
C608 C 0.52857 0.07389 0.1899 0.0
H609 H 0.42096 0.5203 0.62551 0.0
H610 H 0.41259 0.51767 0.86981 0.0
H611 H 0.4366 0.53958 0.88942 0.0
H612 H 0.4701 0.52654 0.63306 0.0
H613 H 0.47 0.54182 0.55388 0.0
H614 H 0.45354 0.52443 0.55924 0.0
H615 H 0.42851 0.54797 0.54864 0.0
H616 H 0.44485 0.56541 0.54367 0.0
H617 H 0.42784 0.56609 0.61586 0.0
H618 H 0.459 0.56379 0.88241 0.0
H619 H 0.4791 0.58857 0.84924 0.0
H620 H 0.47376 0.57554 0.60961 0.0
C621 C 0.42454 0.52398 0.68318 0.0
C622 C 0.41496 0.51724 0.74626 0.0
C623 C 0.41971 0.52273 0.82075 0.0
C624 C 0.43338 0.53509 0.83246 0.0
C625 C 0.44227 0.54181 0.7691 0.0
C626 C 0.43817 0.53639 0.6959 0.0
C627 C 0.44899 0.54663 0.63757 0.0
C628 C 0.4614 0.53411 0.59333 0.0
C629 C 0.43682 0.55715 0.58326 0.0
C630 C 0.45946 0.55895 0.68938 0.0
C631 C 0.45544 0.55582 0.76506 0.0
C632 C 0.46247 0.5662 0.82348 0.0
C633 C 0.47379 0.58028 0.80413 0.0
C634 C 0.47803 0.58384 0.72706 0.0
C635 C 0.47097 0.57286 0.66905 0.0
H636 H 0.92804 0.01988 0.40211 0.0
H637 H 0.92647 0.00694 0.16144 0.0
H638 H 0.95133 0.02762 0.13788 0.0
H639 H 0.93491 0.06503 0.37955 0.0
H640 H 0.94984 0.0679 0.45909 0.0
H641 H 0.93384 0.05012 0.4599 0.0
H642 H 0.95907 0.02717 0.48062 0.0
H643 H 0.97518 0.04493 0.48051 0.0
H644 H 0.97754 0.02656 0.41533 0.0
H645 H 0.97307 0.05241 0.13678 0.0
H646 H 0.99153 0.07912 0.15963 0.0
H647 H 0.98003 0.07603 0.40107 0.0
C648 C 0.93337 0.021 0.34502 0.0
C649 C 0.92545 0.01175 0.28357 0.0
C650 C 0.93239 0.01391 0.20918 0.0
C651 C 0.94654 0.02557 0.19533 0.0
C652 C 0.95369 0.03495 0.25653 0.0
C653 C 0.94751 0.0327 0.33011 0.0
C654 C 0.95661 0.04555 0.3844 0.0
C655 C 0.94298 0.05788 0.42297 0.0
C656 C 0.96776 0.03544 0.44373 0.0
C657 C 0.96838 0.05573 0.32939 0.0
C658 C 0.96657 0.04926 0.25601 0.0
C659 C 0.97491 0.05735 0.19417 0.0
C660 C 0.98531 0.0725 0.20751 0.0
C661 C 0.98734 0.07933 0.28203 0.0
C662 C 0.97896 0.07073 0.34386 0.0
H663 H 0.47231 0.91713 0.72962 0.0
H664 H 0.49437 0.92325 0.95693 0.0
H665 H 0.47287 0.9472 0.98322 0.0
H666 H 0.46305 0.96424 0.69664 0.0
H667 H 0.44258 0.9599 0.64639 0.0
H668 H 0.46038 0.94387 0.64365 0.0
H669 H 0.43896 0.91958 0.69397 0.0
H670 H 0.42113 0.93554 0.69721 0.0
H671 H 0.4271 0.92328 0.78174 0.0
H672 H 0.44781 0.9689 0.98851 0.0
H673 H 0.42151 0.98788 0.97104 0.0
H674 H 0.41596 0.9686 0.73872 0.0
C675 C 0.47267 0.92358 0.78477 0.0
C676 C 0.48515 0.91838 0.841 0.0
C677 C 0.48521 0.9272 0.91239 0.0
C678 C 0.47296 0.94075 0.92809 0.0
C679 C 0.46075 0.94542 0.87177 0.0
C680 C 0.46057 0.93721 0.80135 0.0
C681 C 0.44578 0.94454 0.75154 0.0
C682 C 0.45341 0.95368 0.68034 0.0
C683 C 0.43246 0.92986 0.72987 0.0
C684 C 0.43752 0.95795 0.80547 0.0
C685 C 0.4464 0.95823 0.87442 0.0
C686 C 0.44092 0.96903 0.93432 0.0
C687 C 0.426 0.97989 0.92349 0.0
C688 C 0.41671 0.98005 0.85299 0.0
C689 C 0.42267 0.96885 0.79334 0.0
H690 H 0.58131 0.47779 0.35147 0.0
H691 H 0.59135 0.47556 0.59449 0.0
H692 H 0.56637 0.45431 0.60961 0.0
H693 H 0.53279 0.47344 0.3579 0.0
H694 H 0.53203 0.45938 0.27476 0.0
H695 H 0.54942 0.47572 0.28464 0.0
H696 H 0.57317 0.45105 0.26778 0.0
H697 H 0.55588 0.43466 0.25796 0.0
H698 H 0.57282 0.43195 0.32982 0.0
H699 H 0.54094 0.4326 0.59689 0.0
H700 H 0.51865 0.41031 0.55675 0.0
H701 H 0.52634 0.42566 0.32083 0.0
C702 C 0.57798 0.47307 0.408 0.0
C703 C 0.58798 0.47845 0.47213 0.0
C704 C 0.58368 0.47164 0.54496 0.0
C705 C 0.56952 0.45965 0.55398 0.0
C706 C 0.55997 0.4545 0.48942 0.0
C707 C 0.56411 0.46089 0.41774 0.0
C708 C 0.55277 0.45219 0.35684 0.0
C709 C 0.54106 0.46601 0.31615 0.0
C710 C 0.56435 0.44185 0.29976 0.0
C711 C 0.54171 0.43975 0.40526 0.0
C712 C 0.54585 0.44149 0.4817 0.0
C713 C 0.53753 0.4312 0.53726 0.0
C714 C 0.52483 0.41865 0.51398 0.0
C715 C 0.52075 0.41632 0.43576 0.0
C716 C 0.52923 0.42715 0.38098 0.0
H717 H 0.02292 0.57808 0.92297 0.0
H718 H 0.01037 0.58219 0.68256 0.0
H719 H 0.02865 0.55555 0.65647 0.0
H720 H 0.06773 0.56726 0.89736 0.0
H721 H 0.06928 0.55203 0.97641 0.0
H722 H 0.05316 0.5697 0.97821 0.0
H723 H 0.02799 0.54672 0.99941 0.0
H724 H 0.04407 0.52893 0.99755 0.0
H725 H 0.02535 0.52855 0.9333 0.0
H726 H 0.05016 0.53065 0.65412 0.0
H727 H 0.07501 0.50974 0.67418 0.0
H728 H 0.07473 0.52173 0.91587 0.0
C729 C 0.02373 0.57302 0.86529 0.0
C730 C 0.01512 0.58192 0.80467 0.0
C731 C 0.01681 0.57538 0.72952 0.0
C732 C 0.02708 0.56026 0.71434 0.0
C733 C 0.03565 0.55188 0.77498 0.0
C734 C 0.03417 0.55802 0.849 0.0
C735 C 0.04621 0.54759 0.90228 0.0
C736 C 0.05991 0.55988 0.94079 0.0
C737 C 0.03525 0.53734 0.96165 0.0
C738 C 0.05503 0.53499 0.84629 0.0
C739 C 0.04848 0.53755 0.77342 0.0
C740 C 0.05525 0.52836 0.71099 0.0
C741 C 0.06938 0.51656 0.72288 0.0
C742 C 0.07668 0.51408 0.79653 0.0
C743 C 0.06913 0.52312 0.85929 0.0
H744 H 0.06272 0.38729 0.05959 0.0
H745 H 0.09725 0.34152 0.08866 0.0
H746 H 0.12134 0.35748 0.02178 0.0
H747 H 0.07777 0.39969 0.87245 0.0
H748 H 0.07644 0.42325 0.8906 0.0
H749 H 0.06186 0.40816 0.94006 0.0
H750 H 0.07291 0.42049 0.06959 0.0
H751 H 0.08752 0.43563 0.02061 0.0
H752 H 0.09639 0.42047 0.0906 0.0
H753 H 0.1414 0.37814 0.94891 0.0
H754 H 0.15662 0.40259 0.88144 0.0
H755 H 0.10938 0.43535 0.90383 0.0
C756 C 0.07531 0.38057 0.0516 0.0
C757 C 0.07806 0.36309 0.079 0.0
C758 C 0.09483 0.3549 0.06827 0.0
C759 C 0.10858 0.36384 0.03016 0.0
C760 C 0.1054 0.38103 1.00366 0.0
C761 C 0.08922 0.38937 0.01435 0.0
C762 C 0.08936 0.40802 0.98157 0.0
C763 C 0.07554 0.40988 0.91735 0.0
C764 C 0.08637 0.42198 0.04435 0.0
C765 C 0.10816 0.40888 0.95074 0.0
C766 C 0.11713 0.39311 0.96354 0.0
C767 C 0.13454 0.39057 0.93888 0.0
C768 C 0.14305 0.40453 0.90041 0.0
C769 C 0.13423 0.42091 0.88762 0.0
C770 C 0.11654 0.42305 0.91331 0.0
H771 H 0.10032 0.08785 0.6938 0.0
H772 H 0.14523 0.07149 0.55528 0.0
H773 H 0.13462 0.09069 0.45093 0.0
H774 H 0.06891 0.08726 0.55262 0.0
H775 H 0.05675 0.10662 0.58352 0.0
H776 H 0.0692 0.09378 0.65151 0.0
H777 H 0.08667 0.12196 0.69172 0.0
H778 H 0.07411 0.1349 0.62393 0.0
H779 H 0.09808 0.13489 0.62038 0.0
H780 H 0.11655 0.10732 0.35496 0.0
H781 H 0.09328 0.1218 0.27721 0.0
H782 H 0.06119 0.12921 0.47974 0.0
C783 C 0.10824 0.0887 0.64245 0.0
C784 C 0.12356 0.07802 0.63267 0.0
C785 C 0.13339 0.0794 0.56408 0.0
C786 C 0.12751 0.09037 0.5045 0.0
C787 C 0.11199 0.10019 0.51491 0.0
C788 C 0.10264 0.09973 0.58267 0.0
C789 C 0.08564 0.11051 0.57711 0.0
C790 C 0.06917 0.09884 0.59203 0.0
C791 C 0.08617 0.12652 0.63151 0.0
C792 C 0.08651 0.11643 0.49466 0.0
C793 C 0.10187 0.11043 0.45994 0.0
C794 C 0.10471 0.11252 0.38197 0.0
C795 C 0.0914 0.1207 0.33822 0.0
C796 C 0.07551 0.12681 0.37254 0.0
C797 C 0.07331 0.12505 0.4521 0.0
H798 H 0.44262 0.12517 0.94044 0.0
H799 H 0.42717 0.12263 0.17783 0.0
H800 H 0.39998 0.106 0.14174 0.0
H801 H 0.39459 0.12802 0.8627 0.0
H802 H 0.40166 0.11573 0.7799 0.0
H803 H 0.41684 0.13059 0.82755 0.0
H804 H 0.43894 0.10369 0.83748 0.0
H805 H 0.42291 0.08897 0.79543 0.0
H806 H 0.43198 0.08401 0.88815 0.0
H807 H 0.37696 0.08557 0.08012 0.0
H808 H 0.36052 0.06407 0.99995 0.0
H809 H 0.39129 0.08065 0.80352 0.0
C810 C 0.43324 0.12154 0.98455 0.0
C811 C 0.43693 0.12513 0.06184 0.0
C812 C 0.42446 0.12015 0.11821 0.0
C813 C 0.40899 0.1107 0.09814 0.0
C814 C 0.40604 0.10679 0.02134 0.0
C815 C 0.41766 0.11244 0.96531 0.0
C816 C 0.41227 0.10554 0.88769 0.0
C817 C 0.40597 0.12087 0.83637 0.0
C818 C 0.42742 0.09492 0.85008 0.0
C819 C 0.3968 0.09379 0.9095 0.0
C820 C 0.39297 0.09508 0.98631 0.0
C821 C 0.37971 0.08469 0.01971 0.0
C822 C 0.37045 0.07246 0.97371 0.0
C823 C 0.37471 0.07052 0.8955 0.0
C824 C 0.3877 0.08175 0.86307 0.0
H825 H 0.38684 0.41135 0.71785 0.0
H826 H 0.36642 0.44053 0.5231 0.0
H827 H 0.38047 0.41883 0.4365 0.0
H828 H 0.42825 0.40065 0.64254 0.0
H829 H 0.4294 0.37848 0.68124 0.0
H830 H 0.41653 0.39527 0.72913 0.0
H831 H 0.38861 0.37522 0.72261 0.0
H832 H 0.40149 0.35822 0.67584 0.0
H833 H 0.38143 0.36647 0.63199 0.0
H834 H 0.40034 0.39671 0.37177 0.0
H835 H 0.42243 0.37398 0.33355 0.0
H836 H 0.42784 0.35746 0.56887 0.0
C837 C 0.38509 0.41299 0.65699 0.0
C838 C 0.37553 0.42762 0.6272 0.0
C839 C 0.37355 0.42935 0.54725 0.0
C840 C 0.38151 0.41711 0.49757 0.0
C841 C 0.3911 0.403 0.52873 0.0
C842 C 0.39266 0.40069 0.6066 0.0
C843 C 0.40414 0.38469 0.6253 0.0
C844 C 0.42055 0.39013 0.67235 0.0
C845 C 0.39326 0.37029 0.66635 0.0
C846 C 0.40934 0.37876 0.54589 0.0
C847 C 0.40169 0.38953 0.49095 0.0
C848 C 0.406 0.38787 0.41401 0.0
C849 C 0.41854 0.37499 0.39281 0.0
C850 C 0.42635 0.36375 0.44811 0.0
C851 C 0.4215 0.36548 0.52536 0.0
H852 H 0.87163 0.56116 0.99665 0.0
H853 H 0.85897 0.59751 0.18077 0.0
H854 H 0.87897 0.62003 0.12394 0.0
H855 H 0.91687 0.57124 0.98375 0.0
H856 H 0.91793 0.56949 0.88142 0.0
H857 H 0.90159 0.55695 0.93351 0.0
H858 H 0.87646 0.57098 0.85206 0.0
H859 H 0.89273 0.58354 0.7994 0.0
H860 H 0.87463 0.59484 0.84607 0.0
H861 H 0.90278 0.63735 0.05317 0.0
H862 H 0.92699 0.64859 0.97079 0.0
H863 H 0.9229 0.60109 0.83132 0.0
C864 C 0.87288 0.57392 0.02469 0.0
C865 C 0.86378 0.57757 0.09328 0.0
C866 C 0.86575 0.59447 0.12796 0.0
C867 C 0.8771 0.60732 0.09616 0.0
C868 C 0.88615 0.60314 0.02917 0.0
C869 C 0.88397 0.58691 0.99341 0.0
C870 C 0.89557 0.58541 0.92337 0.0
C871 C 0.90877 0.56986 0.93102 0.0
C872 C 0.88417 0.58359 0.85095 0.0
C873 C 0.90499 0.60319 0.92615 0.0
C874 C 0.89939 0.61326 0.98749 0.0
C875 C 0.90705 0.6297 1.00427 0.0
C876 C 0.92081 0.63596 0.95729 0.0
C877 C 0.92671 0.62583 0.89414 0.0
C878 C 0.91851 0.60932 0.87829 0.0
H879 H 0.93257 0.88957 0.61349 0.0
H880 H 0.90172 0.84084 0.6046 0.0
H881 H 0.87899 0.85609 0.52643 0.0
H882 H 0.89485 0.91964 0.62645 0.0
H883 H 0.90514 0.93648 0.56828 0.0
H884 H 0.91872 0.92185 0.62515 0.0
H885 H 0.93622 0.91246 0.50452 0.0
H886 H 0.92268 0.92702 0.44716 0.0
H887 H 0.92431 0.90375 0.42347 0.0
H888 H 0.86038 0.87625 0.44397 0.0
H889 H 0.84635 0.90028 0.36933 0.0
H890 H 0.88911 0.93605 0.43417 0.0
C891 C 0.92106 0.88209 0.5951 0.0
C892 C 0.91899 0.86396 0.6147 0.0
C893 C 0.90356 0.85474 0.59047 0.0
C894 C 0.89061 0.86327 0.54584 0.0
C895 C 0.89319 0.88108 0.52663 0.0
C896 C 0.90794 0.89043 0.55113 0.0
C897 C 0.90753 0.90947 0.52268 0.0
C898 C 0.9065 0.92263 0.58963 0.0
C899 C 0.92364 0.9134 0.47141 0.0
C900 C 0.89037 0.90928 0.47733 0.0
C901 C 0.88232 0.89277 0.4803 0.0
C902 C 0.86651 0.88926 0.44163 0.0
C903 C 0.85867 0.903 0.39916 0.0
C904 C 0.86659 0.92009 0.39585 0.0
C905 C 0.88267 0.92319 0.43567 0.0
H906 H 0.60243 0.91946 0.19597 0.0
H907 H 0.64887 0.93235 0.05994 0.0
H908 H 0.63816 0.91239 0.95847 0.0
H909 H 0.59912 0.87192 0.13494 0.0
H910 H 0.57515 0.87253 0.13451 0.0
H911 H 0.58745 0.88625 0.20029 0.0
H912 H 0.57117 0.91416 0.14882 0.0
H913 H 0.55891 0.90049 0.08311 0.0
H914 H 0.57183 0.91897 0.04819 0.0
H915 H 0.62055 0.89454 0.86503 0.0
H916 H 0.59775 0.87896 0.78852 0.0
H917 H 0.56369 0.87591 0.98704 0.0
C918 C 0.61058 0.91776 0.14567 0.0
C919 C 0.62644 0.92762 0.13583 0.0
C920 C 0.63658 0.92513 0.06864 0.0
C921 C 0.63067 0.91371 1.01077 0.0
C922 C 0.61474 0.90457 0.02136 0.0
C923 C 0.60493 0.90627 0.08753 0.0
C924 C 0.58771 0.89581 0.08242 0.0
C925 C 0.58735 0.88073 0.14155 0.0
C926 C 0.57145 0.90809 0.09111 0.0
C927 C 0.58911 0.88851 1.00211 0.0
C928 C 0.60485 0.89365 0.96806 0.0
C929 C 0.60837 0.89005 0.89164 0.0
C930 C 0.59535 0.88123 0.84859 0.0
C931 C 0.57907 0.87596 0.88212 0.0
C932 C 0.57615 0.87931 0.96033 0.0
H933 H 0.62093 0.55626 0.49936 0.0
H934 H 0.64091 0.59608 0.34226 0.0
H935 H 0.62003 0.61814 0.39731 0.0
H936 H 0.57548 0.56953 0.49905 0.0
H937 H 0.57245 0.5651 0.59914 0.0
H938 H 0.58865 0.55268 0.5456 0.0
H939 H 0.61307 0.56203 0.6415 0.0
H940 H 0.5971 0.5747 0.69521 0.0
H941 H 0.61694 0.5853 0.65982 0.0
H942 H 0.59578 0.63544 0.46807 0.0
H943 H 0.57188 0.64678 0.55214 0.0
H944 H 0.56994 0.59575 0.6672 0.0
C945 C 0.62101 0.56961 0.47632 0.0
C946 C 0.63256 0.57443 0.4163 0.0
C947 C 0.63218 0.59209 0.38822 0.0
C948 C 0.62037 0.60468 0.41911 0.0
C949 C 0.60923 0.59944 0.47865 0.0
C950 C 0.60962 0.58234 0.50724 0.0
C951 C 0.5967 0.58 0.57244 0.0
C952 C 0.58248 0.566 0.55285 0.0
C953 C 0.60654 0.57524 0.64662 0.0
C954 C 0.58881 0.59848 0.57607 0.0
C955 C 0.59605 0.6095 0.52116 0.0
C956 C 0.59019 0.62697 0.51175 0.0
C957 C 0.57661 0.63329 0.55966 0.0
C958 C 0.56923 0.62223 0.61683 0.0
C959 C 0.57553 0.60465 0.62502 0.0
H960 H 0.99974 0.28684 0.18595 0.0
H961 H 0.05565 0.30008 0.20746 0.0
H962 H 0.06229 0.26858 0.23947 0.0
H963 H 0.99745 0.256 0.33898 0.0
H964 H 0.98224 0.24131 0.29042 0.0
H965 H 0.98222 0.26472 0.26889 0.0
H966 H 0.98736 0.25777 0.12586 0.0
H967 H 0.98724 0.23434 0.14683 0.0
H968 H 0.00597 0.2441 0.09834 0.0
H969 H 0.06214 0.23508 0.27427 0.0
H970 H 0.05558 0.20313 0.29719 0.0
H971 H 0.99989 0.21294 0.24845 0.0
C972 C 0.01342 0.28317 0.19719 0.0
C973 C 0.02718 0.29593 0.1945 0.0
C974 C 0.04491 0.2905 0.20896 0.0
C975 C 0.04877 0.27266 0.22753 0.0
C976 C 0.03477 0.26046 0.23069 0.0
C977 C 0.01748 0.26554 0.21498 0.0
C978 C 0.00475 0.25005 0.22065 0.0
C979 C 0.99085 0.25322 0.28348 0.0
C980 C 0.99581 0.24635 0.14332 0.0
C981 C 0.01748 0.23536 0.24233 0.0
C982 C 0.03475 0.24152 0.24856 0.0
C983 C 0.04867 0.23016 0.26913 0.0
C984 C 0.04482 0.21207 0.28243 0.0
C985 C 0.02725 0.20554 0.27436 0.0
C986 C 0.01349 0.21746 0.25462 0.0
H987 H 0.28234 0.99806 0.81346 0.0
H988 H 0.2965 0.05396 0.81311 0.0
H989 H 0.26479 0.06187 0.79306 0.0
H990 H 0.2493 -5e-05 0.66927 0.0
H991 H 0.23491 0.98398 0.71462 0.0
H992 H 0.25856 0.98298 0.73014 0.0
H993 H 0.25367 0.98488 0.87615 0.0
H994 H 0.22999 0.98574 0.86112 0.0
H995 H 0.24088 0.00302 0.91495 0.0
H996 H 0.23113 0.0632 0.76603 0.0
H997 H 0.19886 0.05792 0.74592 0.0
H998 H 0.20761 0.00117 0.76935 0.0
C999 C 0.2788 0.01199 0.80951 0.0
C1000 C 0.29188 0.02541 0.81462 0.0
C1001 C 0.28667 0.04347 0.8097 0.0
C1002 C 0.26871 0.04807 0.79796 0.0
C1003 C 0.25616 0.03444 0.79213 0.0
C1004 C 0.26103 0.01677 0.79874 0.0
C1005 C 0.24515 0.00455 0.79145 0.0
C1006 C 0.24711 0.99214 0.72225 0.0
C1007 C 0.24225 0.99393 0.86532 0.0
C1008 C 0.23053 0.01804 0.7791 0.0
C1009 C 0.23706 0.03522 0.77903 0.0
C1010 C 0.2259 0.04979 0.7666 0.0
C1011 C 0.20763 0.04668 0.7549 0.0
C1012 C 0.20072 0.02916 0.75651 0.0
C1013 C 0.21243 0.01474 0.7685 0.0
H1014 H 0.50151 0.28932 0.27027 0.0
H1015 H 0.44582 0.29917 0.31862 0.0
H1016 H 0.43891 0.26778 0.28519 0.0
H1017 H 0.49518 0.26007 0.11041 0.0
H1018 H 0.5138 0.2462 0.13616 0.0
H1019 H 0.51383 0.26944 0.16107 0.0
H1020 H 0.51878 0.26128 0.30318 0.0
H1021 H 0.51887 0.23806 0.27869 0.0
H1022 H 0.50356 0.24624 0.34941 0.0
H1023 H 0.43881 0.23424 0.24768 0.0
H1024 H 0.44575 0.20269 0.21748 0.0
H1025 H 0.50152 0.2164 0.19607 0.0
C1026 C 0.48779 0.28502 0.27361 0.0
C1027 C 0.47419 0.29675 0.29694 0.0
C1028 C 0.45647 0.29041 0.30084 0.0
C1029 C 0.45243 0.27263 0.28173 0.0
C1030 C 0.46627 0.26142 0.25884 0.0
C1031 C 0.4836 0.26749 0.25507 0.0
C1032 C 0.49633 0.25297 0.23162 0.0
C1033 C 0.50531 0.25744 0.15528 0.0
C1034 C 0.51019 0.24943 0.29448 0.0
C1035 C 0.48357 0.2376 0.22336 0.0
C1036 C 0.46624 0.24261 0.2385 0.0
C1037 C 0.45234 0.23027 0.23552 0.0
C1038 C 0.45637 0.2124 0.21801 0.0
C1039 C 0.47417 0.20708 0.20448 0.0
C1040 C 0.48778 0.21999 0.20622 0.0
H1041 H 0.28347 0.49999 0.70812 0.0
H1042 H 0.2954 0.44359 0.69929 0.0
H1043 H 0.26355 0.4368 0.72238 0.0
H1044 H 0.25249 0.49812 0.85805 0.0
H1045 H 0.2382 0.51509 0.81902 0.0
H1046 H 0.2616 0.51525 0.79773 0.0
H1047 H 0.25462 0.51489 0.65296 0.0
H1048 H 0.23118 0.51492 0.67379 0.0
H1049 H 0.24049 0.4977 0.6146 0.0
H1050 H 0.22997 0.43666 0.75413 0.0
H1051 H 0.1983 0.44319 0.78284 0.0
H1052 H 0.20959 0.49969 0.76938 0.0
C1053 C 0.27942 0.48617 0.71022 0.0
C1054 C 0.29193 0.47231 0.70182 0.0
C1055 C 0.28602 0.45443 0.705 0.0
C1056 C 0.26797 0.45047 0.71847 0.0
C1057 C 0.25604 0.46453 0.72808 0.0
C1058 C 0.26159 0.48203 0.72325 0.0
C1059 C 0.24642 0.49484 0.73648 0.0
C1060 C 0.24989 0.5065 0.80701 0.0
C1061 C 0.24298 0.50625 0.66521 0.0
C1062 C 0.23141 0.48189 0.75027 0.0
C1063 C 0.2371 0.46445 0.74543 0.0
C1064 C 0.22541 0.45029 0.75756 0.0
C1065 C 0.20747 0.45411 0.77415 0.0
C1066 C 0.20144 0.47194 0.77822 0.0
C1067 C 0.21369 0.4859 0.7664 0.0
H1068 H 0.99814 0.78971 0.72754 0.0
H1069 H 0.94196 0.80173 0.74886 0.0
H1070 H 0.93583 0.76981 0.77438 0.0
H1071 H 0.99275 0.74786 0.63112 0.0
H1072 H 0.01156 0.73788 0.67838 0.0
H1073 H 0.01109 0.76151 0.66211 0.0
H1074 H 0.01592 0.76699 0.80657 0.0
H1075 H 0.01627 0.74338 0.82338 0.0
H1076 H 0.00076 0.75725 0.87422 0.0
H1077 H 0.93651 0.73604 0.80291 0.0
H1078 H 0.94359 0.70403 0.82083 0.0
H1079 H 0.99917 0.71523 0.77589 0.0
C1080 C 0.98451 0.78569 0.73744 0.0
C1081 C 0.97053 0.79821 0.73658 0.0
C1082 C 0.95288 0.79233 0.74908 0.0
C1083 C 0.94929 0.77425 0.76393 0.0
C1084 C 0.9635 0.76227 0.76527 0.0
C1085 C 0.98072 0.76781 0.75144 0.0
C1086 C 0.99371 0.75249 0.75454 0.0
C1087 C 0.00281 0.74978 0.67692 0.0
C1088 C 0.00747 0.7552 0.81849 0.0
C1089 C 0.98119 0.73737 0.77272 0.0
C1090 C 0.96382 0.74317 0.77936 0.0
C1091 C 0.95007 0.7314 0.79736 0.0
C1092 C 0.9542 0.71327 0.80778 0.0
C1093 C 0.97191 0.70713 0.79941 0.0
C1094 C 0.98548 0.71945 0.7821 0.0
H1095 H 0.79093 0.99796 0.29657 0.0
H1096 H 0.80335 0.94172 0.28408 0.0
H1097 H 0.77127 0.935 0.26603 0.0
H1098 H 0.75016 0.99332 0.40158 0.0
H1099 H 0.73953 0.01149 0.35235 0.0
H1100 H 0.7633 0.0114 0.36448 0.0
H1101 H 0.7673 0.0146 0.21835 0.0
H1102 H 0.74354 0.01457 0.2057 0.0
H1103 H 0.75705 0.99859 0.15567 0.0
H1104 H 0.73716 0.93507 0.24379 0.0
H1105 H 0.70493 0.94174 0.22988 0.0
H1106 H 0.71613 0.99784 0.26124 0.0
C1107 C 0.78696 0.98419 0.29023 0.0
C1108 C 0.79965 0.97036 0.2914 0.0
C1109 C 0.79383 0.95253 0.28356 0.0
C1110 C 0.77566 0.94861 0.27297 0.0
C1111 C 0.76351 0.96267 0.27112 0.0
C1112 C 0.76901 0.98009 0.28041 0.0
C1113 C 0.75355 0.9929 0.27739 0.0
C1114 C 0.75152 0.00286 0.35348 0.0
C1115 C 0.75548 0.00592 0.21028 0.0
C1116 C 0.7384 0.98006 0.26449 0.0
C1117 C 0.74428 0.96267 0.26044 0.0
C1118 C 0.73246 0.94865 0.24736 0.0
C1119 C 0.7142 0.95254 0.23921 0.0
C1120 C 0.70801 0.97028 0.24488 0.0
C1121 C 0.72038 0.98411 0.25724 0.0
H1122 H 0.50356 0.78897 0.77423 0.0
H1123 H 0.56031 0.79858 0.78751 0.0
H1124 H 0.56589 0.76638 0.76569 0.0
H1125 H 0.50407 0.74699 0.87332 0.0
H1126 H 0.48649 0.7378 0.8155 0.0
H1127 H 0.48748 0.7614 0.83207 0.0
H1128 H 0.48748 0.76691 0.68617 0.0
H1129 H 0.48669 0.74332 0.66913 0.0
H1130 H 0.50424 0.75649 0.62792 0.0
H1131 H 0.56468 0.73263 0.735 0.0
H1132 H 0.55681 0.7009 0.71323 0.0
H1133 H 0.50089 0.71451 0.72683 0.0
C1134 C 0.51719 0.78433 0.77277 0.0
C1135 C 0.53152 0.79624 0.78212 0.0
C1136 C 0.54914 0.78962 0.78076 0.0
C1137 C 0.55241 0.77139 0.76795 0.0
C1138 C 0.53789 0.76002 0.75771 0.0
C1139 C 0.52063 0.76629 0.76127 0.0
C1140 C 0.50722 0.75155 0.75054 0.0
C1141 C 0.49564 0.7493 0.82212 0.0
C1142 C 0.49574 0.75476 0.67919 0.0
C1143 C 0.51955 0.73591 0.73972 0.0
C1144 C 0.53721 0.74095 0.74316 0.0
C1145 C 0.55088 0.72858 0.73282 0.0
C1146 C 0.54632 0.71063 0.72004 0.0
C1147 C 0.52826 0.70527 0.71877 0.0
C1148 C 0.51482 0.71817 0.72819 0.0
H1149 H 0.78421 0.50019 0.18526 0.0
H1150 H 0.79737 0.55607 0.20891 0.0
H1151 H 0.76602 0.56247 0.24406 0.0
H1152 H 0.74003 0.50639 0.10527 0.0
H1153 H 0.73115 0.48743 0.15526 0.0
H1154 H 0.75424 0.48783 0.12818 0.0
H1155 H 0.76338 0.48231 0.26881 0.0
H1156 H 0.74035 0.48195 0.29632 0.0
H1157 H 0.75551 0.4972 0.34188 0.0
H1158 H 0.73294 0.56191 0.28515 0.0
H1159 H 0.70204 0.55459 0.32398 0.0
H1160 H 0.71179 0.49915 0.26974 0.0
C1161 C 0.78054 0.51383 0.19719 0.0
C1162 C 0.79324 0.52763 0.1945 0.0
C1163 C 0.78782 0.54529 0.21034 0.0
C1164 C 0.77006 0.54903 0.23044 0.0
C1165 C 0.75791 0.53498 0.23361 0.0
C1166 C 0.763 0.51776 0.21668 0.0
C1167 C 0.74778 0.50483 0.22571 0.0
C1168 C 0.74302 0.49611 0.14904 0.0
C1169 C 0.75201 0.49075 0.28682 0.0
C1170 C 0.73331 0.51733 0.25176 0.0
C1171 C 0.73925 0.5347 0.25591 0.0
C1172 C 0.72816 0.54837 0.28138 0.0
C1173 C 0.71064 0.5441 0.30337 0.0
C1174 C 0.70445 0.52631 0.29978 0.0
C1175 C 0.716 0.51291 0.27292 0.0
H1176 H 0.0317 0.36365 0.83601 0.0
H1177 H 0.00411 0.31311 0.8402 0.0
H1178 H 0.00783 0.31029 0.70074 0.0
H1179 H 0.01169 0.37899 0.66462 0.0
H1180 H 0.03118 0.39025 0.62938 0.0
H1181 H 0.02804 0.38754 0.73041 0.0
H1182 H 0.05866 0.37201 0.74117 0.0
H1183 H 0.06195 0.37473 0.64012 0.0
H1184 H 0.06335 0.35292 0.68237 0.0
H1185 H 0.01345 0.3134 0.56102 0.0
H1186 H 0.01978 0.32246 0.42936 0.0
H1187 H 0.04223 0.37207 0.51273 0.0
C1188 C 0.02682 0.35186 0.80741 0.0
C1189 C 0.01778 0.33847 0.84866 0.0
C1190 C 0.0111 0.32344 0.8094 0.0
C1191 C 0.01319 0.32173 0.73036 0.0
C1192 C 0.02186 0.33527 0.69096 0.0
C1193 C 0.02853 0.35009 0.72792 0.0
C1194 C 0.0362 0.36324 0.67098 0.0
C1195 C 0.02618 0.38105 0.67405 0.0
C1196 C 0.05623 0.36587 0.68448 0.0
C1197 C 0.03268 0.35352 0.59648 0.0
C1198 C 0.02455 0.33735 0.60957 0.0
C1199 C 0.01979 0.32607 0.55001 0.0
C1200 C 0.02333 0.33145 0.47498 0.0
C1201 C 0.03141 0.34811 0.45937 0.0
C1202 C 0.0362 0.35919 0.52169 0.0
H1203 H 0.15185 0.05636 0.07682 0.0
H1204 H 0.12697 0.0076 0.9962 0.0
H1205 H 0.12526 0.99682 0.12779 0.0
H1206 H 0.17803 0.03727 0.22208 0.0
H1207 H 0.17488 0.05512 0.28927 0.0
H1208 H 0.1737 0.05952 0.18854 0.0
H1209 H 0.14227 0.07303 0.20544 0.0
H1210 H 0.14334 0.06869 0.30636 0.0
H1211 H 0.12511 0.06006 0.25075 0.0
H1212 H 0.12797 0.99021 0.26705 0.0
H1213 H 0.13365 0.98901 0.4056 0.0
H1214 H 0.15509 0.04248 0.39884 0.0
C1215 C 0.14583 0.0435 0.08609 0.0
C1216 C 0.1398 0.03284 0.0243 0.0
C1217 C 0.13209 0.01604 0.04097 0.0
C1218 C 0.13091 0.00978 0.11612 0.0
C1219 C 0.13721 0.02051 0.1749 0.0
C1220 C 0.14434 0.0371 0.16102 0.0
C1221 C 0.15033 0.04588 0.23481 0.0
C1222 C 0.17043 0.04966 0.23357 0.0
C1223 C 0.13962 0.06292 0.25023 0.0
C1224 C 0.14578 0.03144 0.29206 0.0
C1225 C 0.13823 0.01693 0.25605 0.0
C1226 C 0.1337 0.00157 0.29593 0.0
C1227 C 0.13706 0.00096 0.37451 0.0
C1228 C 0.14477 0.01564 0.41287 0.0
C1229 C 0.14896 0.03117 0.37106 0.0
H1230 H 0.47001 0.14394 0.86709 0.0
H1231 H 0.50681 0.18818 0.87044 0.0
H1232 H 0.50406 0.19114 0.73027 0.0
H1233 H 0.48726 0.12434 0.69858 0.0
H1234 H 0.46609 0.11681 0.66268 0.0
H1235 H 0.46943 0.11933 0.76372 0.0
H1236 H 0.4426 0.14077 0.77221 0.0
H1237 H 0.43875 0.13756 0.67171 0.0
H1238 H 0.44138 0.15971 0.70961 0.0
H1239 H 0.4983 0.18839 0.58905 0.0
H1240 H 0.49027 0.18016 0.45759 0.0
H1241 H 0.45842 0.13643 0.54424 0.0
C1242 C 0.47708 0.15451 0.83818 0.0
C1243 C 0.48836 0.1661 0.87941 0.0
C1244 C 0.49795 0.17937 0.83969 0.0
C1245 C 0.49648 0.1811 0.76022 0.0
C1246 C 0.48554 0.16926 0.72084 0.0
C1247 C 0.47603 0.15619 0.75839 0.0
C1248 C 0.46616 0.14447 0.70192 0.0
C1249 C 0.47263 0.12509 0.70705 0.0
C1250 C 0.446 0.14571 0.71449 0.0
C1251 C 0.47157 0.15298 0.62693 0.0
C1252 C 0.48269 0.16732 0.63921 0.0
C1253 C 0.4896 0.17717 0.57881 0.0
C1254 C 0.48505 0.17228 0.50396 0.0
C1255 C 0.47372 0.15756 0.48942 0.0
C1256 C 0.46693 0.14786 0.55247 0.0
H1257 H 0.35858 0.48299 0.01668 0.0
H1258 H 0.31704 0.44295 1.01026 0.0
H1259 H 0.313 0.4458 0.14858 0.0
H1260 H 0.37779 0.46948 0.19352 0.0
H1261 H 0.38235 0.49166 0.22723 0.0
H1262 H 0.38166 0.48722 0.12642 0.0
H1263 H 0.3578 0.5117 0.10883 0.0
H1264 H 0.35846 0.51627 0.20962 0.0
H1265 H 0.33765 0.5108 0.16425 0.0
H1266 H 0.31424 0.45156 0.28777 0.0
H1267 H 0.31995 0.46094 0.42014 0.0
H1268 H 0.36027 0.49777 0.34048 0.0
C1269 C 0.34849 0.47503 0.04438 0.0
C1270 C 0.33828 0.46257 1.00232 0.0
C1271 C 0.32529 0.4523 0.04101 0.0
C1272 C 0.32279 0.45391 0.11973 0.0
C1273 C 0.33329 0.46596 0.1597 0.0
C1274 C 0.34579 0.47647 0.12362 0.0
C1275 C 0.3555 0.48808 0.18118 0.0
C1276 C 0.37551 0.48385 0.18212 0.0
C1277 C 0.35215 0.50789 0.16499 0.0
C1278 C 0.3466 0.48228 0.25491 0.0
C1279 C 0.33383 0.46949 0.24087 0.0
C1280 C 0.32415 0.46163 0.29954 0.0
C1281 C 0.32757 0.46696 0.37471 0.0
C1282 C 0.34055 0.48008 0.39104 0.0
C1283 C 0.35011 0.48788 0.32991 0.0
H1284 H 0.01765 0.17452 0.65266 0.0
H1285 H 0.01665 0.11848 0.59651 0.0
H1286 H 0.0215 0.11096 0.73289 0.0
H1287 H 0.05309 0.17101 0.79004 0.0
H1288 H 0.04415 0.18806 0.85118 0.0
H1289 H 0.03982 0.1887 0.75027 0.0
H1290 H 0.00592 0.18948 0.77673 0.0
H1291 H 0.01014 0.18876 0.87774 0.0
H1292 H 0.99601 0.17227 0.83419 0.0
H1293 H 0.02481 0.10997 0.8782 0.0
H1294 H 0.03055 0.11558 0.01586 0.0
H1295 H 0.03208 0.17218 0.97242 0.0
C1296 C 0.0183 0.16068 0.66941 0.0
C1297 C 0.01648 0.14703 0.61484 0.0
C1298 C 0.01791 0.12906 0.638 0.0
C1299 C 0.02059 0.12472 0.71514 0.0
C1300 C 0.02214 0.13854 0.76787 0.0
C1301 C 0.02138 0.15616 0.74557 0.0
C1302 C 0.02448 0.16857 0.81214 0.0
C1303 C 0.04139 0.17974 0.80018 0.0
C1304 C 0.00816 0.18047 0.826 0.0
C1305 C 0.02689 0.15523 0.87579 0.0
C1306 C 0.02523 0.13796 0.8496 0.0
C1307 C 0.02632 0.12344 0.89903 0.0
C1308 C 0.02948 0.12669 0.97684 0.0
C1309 C 0.03186 0.14425 1.00371 0.0
C1310 C 0.03047 0.15864 0.95258 0.0
H1311 H 0.33605 0.03458 0.15644 0.0
H1312 H 0.36582 0.98533 0.14668 0.0
H1313 H 0.37154 0.98713 0.28524 0.0
H1314 H 0.36284 0.0565 0.30512 0.0
H1315 H 0.34374 0.06631 0.35065 0.0
H1316 H 0.34344 0.06207 0.24957 0.0
H1317 H 0.31467 0.04345 0.26524 0.0
H1318 H 0.31492 0.0476 0.36625 0.0
H1319 H 0.31445 0.02507 0.33123 0.0
H1320 H 0.37323 0.99371 0.42476 0.0
H1321 H 0.36969 0.00372 0.55703 0.0
H1322 H 0.33702 0.04781 0.47846 0.0
C1323 C 0.34403 0.0244 0.18362 0.0
C1324 C 0.35061 0.00986 0.14124 0.0
C1325 C 0.36066 0.99653 0.17852 0.0
C1326 C 0.36404 0.99749 0.25696 0.0
C1327 C 0.35713 0.01182 0.29755 0.0
C1328 C 0.34726 0.02501 0.26239 0.0
C1329 C 0.34034 0.03827 0.32033 0.0
C1330 C 0.34805 0.05689 0.30553 0.0
C1331 C 0.31989 0.03861 0.32078 0.0
C1332 C 0.3477 0.03035 0.39343 0.0
C1333 C 0.35752 0.01524 0.37878 0.0
C1334 C 0.3655 0.00551 0.43702 0.0
C1335 C 0.36326 0.01126 0.51242 0.0
C1336 C 0.35287 0.02651 0.52956 0.0
C1337 C 0.34515 0.0362 0.46847 0.0
H1338 H 0.47622 0.36576 0.6778 0.0
H1339 H 0.4879 0.30935 0.67396 0.0
H1340 H 0.48354 0.30779 0.81326 0.0
H1341 H 0.49982 0.3744 0.85125 0.0
H1342 H 0.48445 0.39094 0.88561 0.0
H1343 H 0.48703 0.38746 0.7847 0.0
H1344 H 0.45343 0.38229 0.77294 0.0
H1345 H 0.45034 0.38503 0.87394 0.0
H1346 H 0.44284 0.36497 0.82768 0.0
H1347 H 0.47919 0.31234 0.95199 0.0
H1348 H 0.47542 0.32274 0.08382 0.0
H1349 H 0.46771 0.37667 1.00164 0.0
C1350 C 0.47752 0.35308 0.7065 0.0
C1351 C 0.48228 0.33761 0.66547 0.0
C1352 C 0.48429 0.3213 0.70471 0.0
C1353 C 0.48179 0.32029 0.78361 0.0
C1354 C 0.47743 0.33578 0.8228 0.0
C1355 C 0.47535 0.3519 0.78591 0.0
C1356 C 0.47175 0.36669 0.84286 0.0
C1357 C 0.48665 0.3807 0.84098 0.0
C1358 C 0.45348 0.37523 0.82851 0.0
C1359 C 0.47201 0.3563 0.91711 0.0
C1360 C 0.47529 0.3385 0.9039 0.0
C1361 C 0.47661 0.32626 0.96314 0.0
C1362 C 0.47461 0.33235 0.03805 0.0
C1363 C 0.47139 0.35057 0.05359 0.0
C1364 C 0.46998 0.36265 0.99186 0.0
H1365 H 0.15003 0.50229 0.16996 0.0
H1366 H 0.16394 0.44924 0.09192 0.0
H1367 H 0.16459 0.43886 0.2246 0.0
H1368 H 0.17811 0.50138 0.34214 0.0
H1369 H 0.16221 0.51363 0.39817 0.0
H1370 H 0.16359 0.51728 0.29682 0.0
H1371 H 0.13004 0.51014 0.28317 0.0
H1372 H 0.12856 0.50648 0.38432 0.0
H1373 H 0.12162 0.48931 0.31906 0.0
H1374 H 0.16134 0.43343 0.36458 0.0
H1375 H 0.15514 0.43379 0.50321 0.0
H1376 H 0.14529 0.49041 0.49336 0.0
C1377 C 0.15353 0.48857 0.18038 0.0
C1378 C 0.1568 0.47663 0.11928 0.0
C1379 C 0.16106 0.45869 0.13664 0.0
C1380 C 0.16162 0.45264 0.21226 0.0
C1381 C 0.15813 0.46469 0.27063 0.0
C1382 C 0.15431 0.48231 0.25578 0.0
C1383 C 0.15054 0.49237 0.32916 0.0
C1384 C 0.16445 0.50703 0.34233 0.0
C1385 C 0.13156 0.50002 0.32888 0.0
C1386 C 0.15247 0.47754 0.38735 0.0
C1387 C 0.1569 0.46169 0.35216 0.0
C1388 C 0.1582 0.44582 0.3929 0.0
C1389 C 0.1547 0.44612 0.47137 0.0
C1390 C 0.15015 0.46216 0.50858 0.0
C1391 C 0.14926 0.47811 0.46624 0.0
H1392 H 0.96629 0.67367 0.49573 0.0
H1393 H 0.97287 0.61744 0.53927 0.0
H1394 H 0.97911 0.61235 0.40182 0.0
H1395 H 0.94555 0.67068 0.31352 0.0
H1396 H 0.9572 0.68946 0.27376 0.0
H1397 H 0.95306 0.68843 0.37471 0.0
H1398 H 0.98676 0.69203 0.40169 0.0
H1399 H 0.99101 0.69317 0.30081 0.0
H1400 H 0.00231 0.67684 0.35845 0.0
H1401 H 0.98234 0.61352 0.2574 0.0
H1402 H 0.98635 0.62126 0.12078 0.0
H1403 H 0.98059 0.67706 0.17536 0.0
C1404 C 0.96909 0.66033 0.47588 0.0
C1405 C 0.96898 0.64587 0.52695 0.0
C1406 C 0.97292 0.62859 0.50022 0.0
C1407 C 0.97639 0.62563 0.42256 0.0
C1408 C 0.97623 0.64019 0.37318 0.0
C1409 C 0.97302 0.65725 0.39916 0.0
C1410 C 0.97429 0.67072 0.3353 0.0
C1411 C 0.95646 0.68039 0.32365 0.0
C1412 C 0.9895 0.68397 0.34995 0.0
C1413 C 0.97845 0.65858 0.26895 0.0
C1414 C 0.97926 0.64098 0.29161 0.0
C1415 C 0.982 0.62727 0.2393 0.0
C1416 C 0.98418 0.63173 0.1621 0.0
C1417 C 0.98397 0.6497 0.13855 0.0
C1418 C 0.98108 0.66325 0.19265 0.0
H1419 H 0.87315 0.95205 0.95338 0.0
H1420 H 0.82695 0.98101 0.03579 0.0
H1421 H 0.81934 0.98902 0.90417 0.0
H1422 H 0.88491 0.98176 0.80532 0.0
H1423 H 0.8913 0.96466 0.73878 0.0
H1424 H 0.89303 0.96067 0.83969 0.0
H1425 H 0.87333 0.93262 0.82564 0.0
H1426 H 0.87153 0.93656 0.72462 0.0
H1427 H 0.85172 0.9345 0.7817 0.0
H1428 H 0.81756 0.99562 0.76445 0.0
H1429 H 0.82121 0.99924 0.62536 0.0
H1430 H 0.86731 0.96472 0.63058 0.0
C1431 C 0.86129 0.95988 0.94445 0.0
C1432 C 0.85082 0.96596 1.00668 0.0
C1433 C 0.83549 0.97634 0.99056 0.0
C1434 C 0.83093 0.9809 0.91544 0.0
C1435 C 0.84163 0.97485 0.85614 0.0
C1436 C 0.85641 0.96442 0.86956 0.0
C1437 C 0.86578 0.95986 0.79528 0.0
C1438 C 0.88488 0.96718 0.79477 0.0
C1439 C 0.86557 0.93969 0.78098 0.0
C1440 C 0.85409 0.96958 0.73819 0.0
C1441 C 0.84026 0.97817 0.77479 0.0
C1442 C 0.82821 0.98879 0.73514 0.0
C1443 C 0.83041 0.99083 0.65626 0.0
C1444 C 0.84443 0.98217 0.61728 0.0
C1445 C 0.85629 0.97122 0.65882 0.0
H1446 H 0.53443 0.83015 0.48344 0.0
H1447 H 0.5328 0.88686 0.52355 0.0
H1448 H 0.52694 0.89202 0.38561 0.0
H1449 H 0.55574 0.83088 0.30396 0.0
H1450 H 0.54281 0.81295 0.26415 0.0
H1451 H 0.54657 0.81399 0.36539 0.0
H1452 H 0.51257 0.81321 0.38935 0.0
H1453 H 0.5087 0.81203 0.28815 0.0
H1454 H 0.49848 0.82942 0.34356 0.0
H1455 H 0.52398 0.89054 0.24004 0.0
H1456 H 0.51999 0.88255 0.10367 0.0
H1457 H 0.52115 0.8267 0.16337 0.0
C1458 C 0.53266 0.84362 0.46289 0.0
C1459 C 0.53409 0.85817 0.5131 0.0
C1460 C 0.53163 0.87563 0.48528 0.0
C1461 C 0.52841 0.87863 0.40729 0.0
C1462 C 0.52735 0.86394 0.35871 0.0
C1463 C 0.52905 0.84676 0.38594 0.0
C1464 C 0.52699 0.83321 0.32287 0.0
C1465 C 0.54405 0.82211 0.31357 0.0
C1466 C 0.51071 0.82127 0.33682 0.0
C1467 C 0.52411 0.84539 0.25545 0.0
C1468 C 0.5246 0.86309 0.27678 0.0
C1469 C 0.52326 0.87673 0.22305 0.0
C1470 C 0.52109 0.87211 0.1459 0.0
C1471 C 0.51997 0.85405 0.12367 0.0
C1472 C 0.52156 0.8406 0.17929 0.0
H1473 H 0.65954 0.50209 0.05552 0.0
H1474 H 0.63277 0.55206 0.09746 0.0
H1475 H 0.63532 0.55967 0.9597 0.0
H1476 H 0.69081 0.51908 0.9156 0.0
H1477 H 0.69029 0.4989 0.86024 0.0
H1478 H 0.68655 0.49807 0.96153 0.0
H1479 H 0.65646 0.4821 0.93842 0.0
H1480 H 0.66003 0.483 0.83711 0.0
H1481 H 0.64007 0.49232 0.87744 0.0
H1482 H 0.63901 0.56017 0.81306 0.0
H1483 H 0.64641 0.55512 0.67671 0.0
H1484 H 0.67179 0.50534 0.73664 0.0
C1485 C 0.6543 0.51468 0.0356 0.0
C1486 C 0.64583 0.52647 0.08636 0.0
C1487 C 0.63934 0.54293 0.05898 0.0
C1488 C 0.64066 0.54727 0.98103 0.0
C1489 C 0.6488 0.53509 0.93197 0.0
C1490 C 0.65577 0.51926 0.95883 0.0
C1491 C 0.66404 0.50843 0.89564 0.0
C1492 C 0.68411 0.50598 0.90906 0.0
C1493 C 0.65458 0.4904 0.88664 0.0
C1494 C 0.66045 0.52044 0.82839 0.0
C1495 C 0.65153 0.53572 0.84986 0.0
C1496 C 0.6462 0.54835 0.79607 0.0
C1497 C 0.65034 0.54536 0.71884 0.0
C1498 C 0.65986 0.52997 0.6965 0.0
C1499 C 0.66485 0.51741 0.75227 0.0
H1500 H 0.96409 0.8657 0.38327 0.0
H1501 H 0.99518 0.81722 0.38731 0.0
H1502 H 0.99176 0.81429 0.2478 0.0
H1503 H 0.93333 0.85273 0.22907 0.0
H1504 H 0.9331 0.8746 0.187 0.0
H1505 H 0.93659 0.87209 0.28807 0.0
H1506 H 0.96596 0.88986 0.27783 0.0
H1507 H 0.96262 0.89238 0.17678 0.0
H1508 H 0.9829 0.8826 0.21219 0.0
H1509 H 0.98602 0.81709 0.10808 0.0
H1510 H 0.97902 0.82569 0.9764 0.0
H1511 H 0.95293 0.87346 0.05973 0.0
C1512 C 0.96983 0.85431 0.35464 0.0
C1513 C 0.97978 0.84157 0.39593 0.0
C1514 C 0.98752 0.82708 0.35655 0.0
C1515 C 0.9856 0.8253 0.27745 0.0
C1516 C 0.97601 0.83822 0.23804 0.0
C1517 C 0.96827 0.85248 0.27506 0.0
C1518 C 0.95964 0.86505 0.2181 0.0
C1519 C 0.93947 0.86618 0.23136 0.0
C1520 C 0.9683 0.88357 0.22144 0.0
C1521 C 0.96387 0.85566 0.14353 0.0
C1522 C 0.97318 0.84014 0.15663 0.0
C1523 C 0.97876 0.82926 0.09706 0.0
C1524 C 0.97482 0.83437 0.02201 0.0
C1525 C 0.96551 0.85039 1.00638 0.0
C1526 C 0.95992 0.86107 0.06871 0.0
H1527 H 0.66216 0.96092 0.90124 0.0
H1528 H 0.64098 0.01449 0.90622 0.0
H1529 H 0.63559 0.01319 0.76746 0.0
H1530 H 0.68556 0.96597 0.72628 0.0
H1531 H 0.68132 0.94372 0.69257 0.0
H1532 H 0.68209 0.94814 0.79336 0.0
H1533 H 0.65055 0.93475 0.80888 0.0
H1534 H 0.64972 0.93024 0.70805 0.0
H1535 H 0.63249 0.94334 0.7521 0.0
H1536 H 0.63307 0.0065 0.62869 0.0
H1537 H 0.63491 0.99564 0.49723 0.0
H1538 H 0.65961 0.94687 0.57838 0.0
C1539 C 0.65613 0.97222 0.87298 0.0
C1540 C 0.6519 0.98781 0.91434 0.0
C1541 C 0.64437 0.00249 0.87544 0.0
C1542 C 0.64118 0.00183 0.79677 0.0
C1543 C 0.64573 0.98641 0.75735 0.0
C1544 C 0.65313 0.97188 0.79384 0.0
C1545 C 0.65779 0.95741 0.73678 0.0
C1546 C 0.67788 0.95359 0.73729 0.0
C1547 C 0.64699 0.94043 0.7524 0.0
C1548 C 0.65203 0.96619 0.66267 0.0
C1549 C 0.64491 0.9828 0.67623 0.0
C1550 C 0.63872 0.99354 0.61726 0.0
C1551 C 0.64 0.98725 0.54225 0.0
C1552 C 0.64768 0.97042 0.52594 0.0
C1553 C 0.6536 0.95974 0.58778 0.0
H1554 H 0.53454 0.67126 0.02249 0.0
H1555 H 0.52146 0.61628 0.97641 0.0
H1556 H 0.51469 0.61161 0.11363 0.0
H1557 H 0.55467 0.66543 0.20548 0.0
H1558 H 0.54521 0.68535 0.24563 0.0
H1559 H 0.5494 0.68405 0.14478 0.0
H1560 H 0.5164 0.69162 0.11695 0.0
H1561 H 0.51212 0.69303 0.21772 0.0
H1562 H 0.49911 0.67825 0.15905 0.0
H1563 H 0.51138 0.61283 0.25824 0.0
H1564 H 0.50782 0.62076 0.39493 0.0
H1565 H 0.52016 0.67561 0.34271 0.0
C1566 C 0.53026 0.65827 0.04173 0.0
C1567 C 0.52866 0.64403 0.98989 0.0
C1568 C 0.52274 0.62726 0.01595 0.0
C1569 C 0.51896 0.62452 0.09352 0.0
C1570 C 0.52082 0.63883 0.14361 0.0
C1571 C 0.52599 0.65547 0.11838 0.0
C1572 C 0.52618 0.66886 0.18281 0.0
C1573 C 0.54498 0.67636 0.1954 0.0
C1574 C 0.51264 0.68382 0.16825 0.0
C1575 C 0.5205 0.65715 0.24857 0.0
C1576 C 0.51774 0.6398 0.2252 0.0
C1577 C 0.51326 0.62642 0.27688 0.0
C1578 C 0.51134 0.63097 0.35414 0.0
C1579 C 0.51352 0.64877 0.37838 0.0
C1580 C 0.51816 0.66197 0.32492 0.0
H1581 H 0.84296 0.50914 0.46779 0.0
H1582 H 0.85357 0.56569 0.4611 0.0
H1583 H 0.84815 0.56775 0.5998 0.0
H1584 H 0.80851 0.51011 0.6195 0.0
H1585 H 0.81649 0.48992 0.66317 0.0
H1586 H 0.81901 0.49325 0.56203 0.0
H1587 H 0.85292 0.48794 0.57466 0.0
H1588 H 0.85052 0.4847 0.67574 0.0
H1589 H 0.86566 0.50132 0.64025 0.0
H1590 H 0.84369 0.56341 0.7393 0.0
H1591 H 0.84106 0.55322 0.87094 0.0
H1592 H 0.83449 0.49885 0.79018 0.0
C1593 C 0.84363 0.52197 0.49561 0.0
C1594 C 0.84842 0.53734 0.45408 0.0
C1595 C 0.84979 0.55385 0.49226 0.0
C1596 C 0.84671 0.55513 0.5708 0.0
C1597 C 0.8424 0.53971 0.61068 0.0
C1598 C 0.84086 0.52342 0.57461 0.0
C1599 C 0.8375 0.50872 0.63217 0.0
C1600 C 0.81929 0.49999 0.61839 0.0
C1601 C 0.85255 0.49486 0.6306 0.0
C1602 C 0.83765 0.51926 0.70603 0.0
C1603 C 0.84031 0.53712 0.69205 0.0
C1604 C 0.84149 0.54945 0.75096 0.0
C1605 C 0.84004 0.5434 0.82629 0.0
C1606 C 0.83762 0.52506 0.84299 0.0
C1607 C 0.83625 0.51294 0.78106 0.0
loop_
_geom_bond_atom_site_label_1
_geom_bond_atom_site_label_2
_geom_bond_distance
_geom_bond_site_symmetry_2
_ccdc_geom_bond_type
C0 C1 1.351 . S
C0 N3 1.368 . S
C0 H5 0.895 1_456 S
C1 C0 1.351 . S
C1 N2 1.373 . S
C1 H29 0.930 1_455 S
N2 C1 1.373 . S
N2 C4 1.340 . S
N3 C0 1.368 . S
N3 C4 1.321 . S
N3 Co6 2.135 1_556 S
C4 N2 1.340 . S
C4 N3 1.321 . S
C4 H28 0.930 . S
H5 C0 0.895 1_654 S
Co6 N3 2.135 1_554 S
Co6 N9 2.121 . S
Co6 O14 2.055 . S
Co6 O17 2.039 . S
Co6 N20 2.094 1_455 S
C7 O8 1.227 . S
C7 O17 1.265 . S
O8 C7 1.227 . S
N9 Co6 2.121 . S
N9 C11 1.375 . S
N9 C12 1.313 . S
C10 C11 1.338 . S
C10 N13 1.377 . S
C10 H30 0.930 . S
C11 N9 1.375 . S
C11 C10 1.338 . S
C11 H15 0.931 . S
C12 N9 1.313 . S
C12 N13 1.344 . S
C12 H16 0.930 . S
N13 C10 1.377 . S
N13 C12 1.344 . S
O14 Co6 2.055 . S
O14 C18 1.253 . S
H15 C11 0.931 . S
H16 C12 0.930 . S
O17 Co6 2.039 . S
O17 C7 1.265 . S
C18 O14 1.253 . S
C18 O19 1.269 . S
O19 C18 1.269 . S
N20 Co6 2.094 1_655 S
N20 C23 1.359 . S
N20 C24 1.382 . S
C21 C22 1.387 . S
C21 C25 1.391 . S
C22 C21 1.387 . S
C22 C23 1.369 . S
C22 H31 0.929 . S
C23 N20 1.359 . S
C23 C22 1.369 . S
C23 H26 0.928 1_655 S
C24 N20 1.382 . S
C24 C25 1.371 . S
C24 H27 0.931 . S
C25 C21 1.391 . S
C25 C24 1.371 . S
C25 H32 0.930 . S
H26 C23 0.928 1_455 S
H27 C24 0.931 . S
H28 C4 0.930 . S
H29 C1 0.930 1_655 S
H30 C10 0.930 . S
H31 C22 0.929 . S
H32 C25 0.930 . S
C33 C34 1.351 . S
C33 N36 1.368 . S
C33 H38 0.895 1_545 S
C34 C33 1.351 . S
C34 N35 1.373 . S
C34 H62 0.930 1_545 S
N35 C34 1.373 . S
N35 C37 1.340 . S
N36 C33 1.368 . S
N36 C37 1.321 . S
N36 Co39 2.135 . S
C37 N35 1.340 . S
C37 N36 1.321 . S
C37 H61 0.930 . S
H38 C33 0.895 1_565 S
Co39 N36 2.135 . S
Co39 N42 2.121 . S
Co39 O47 2.055 . S
Co39 O50 2.039 . S
Co39 N53 2.094 1_545 S
C40 O41 1.227 . S
C40 O50 1.265 . S
O41 C40 1.227 . S
N42 Co39 2.121 . S
N42 C44 1.375 . S
N42 C45 1.313 . S
C43 C44 1.338 . S
C43 N46 1.377 . S
C43 H63 0.930 . S
C44 N42 1.375 . S
C44 C43 1.338 . S
C44 H48 0.931 . S
C45 N42 1.313 . S
C45 N46 1.344 . S
C45 H49 0.930 . S
N46 C43 1.377 . S
N46 C45 1.344 . S
O47 Co39 2.055 . S
O47 C51 1.253 . S
H48 C44 0.931 . S
H49 C45 0.930 . S
O50 Co39 2.039 . S
O50 C40 1.265 . S
C51 O47 1.253 . S
C51 O52 1.269 . S
O52 C51 1.269 . S
N53 Co39 2.094 1_565 S
N53 C56 1.359 . S
N53 C57 1.382 . S
C54 C55 1.387 . S
C54 C58 1.391 . S
C55 C54 1.387 . S
C55 C56 1.369 . S
C55 H64 0.929 . S
C56 N53 1.359 . S
C56 C55 1.369 . S
C56 H59 0.928 1_565 S
C57 N53 1.382 . S
C57 C58 1.371 . S
C57 H60 0.931 . S
C58 C54 1.391 . S
C58 C57 1.371 . S
C58 H65 0.930 . S
H59 C56 0.928 1_545 S
H60 C57 0.931 . S
H61 C37 0.930 . S
H62 C34 0.930 1_565 S
H63 C43 0.930 . S
H64 C55 0.929 . S
H65 C58 0.930 . S
C66 C67 1.351 . S
C66 N69 1.368 . S
C66 H71 0.931 1_556 S
C67 C66 1.351 . S
C67 N68 1.373 . S
C67 H95 0.930 . S
N68 C67 1.373 . S
N68 C70 1.340 . S
N69 C66 1.368 . S
N69 C70 1.321 . S
N69 Co72 2.135 1_556 S
C70 N68 1.340 . S
C70 N69 1.321 . S
C70 H94 0.930 . S
H71 C66 0.931 1_554 S
Co72 N69 2.135 1_554 S
Co72 N75 2.121 . S
Co72 O80 2.055 . S
Co72 O83 2.039 . S
Co72 N86 2.140 . S
C73 O74 1.227 . S
C73 O83 1.265 . S
O74 C73 1.227 . S
N75 Co72 2.121 . S
N75 C77 1.375 . S
N75 C78 1.313 . S
C76 C77 1.338 . S
C76 N79 1.377 . S
C76 H96 0.930 . S
C77 N75 1.375 . S
C77 C76 1.338 . S
C77 H81 0.931 . S
C78 N75 1.313 . S
C78 N79 1.344 . S
C78 H82 0.930 . S
N79 C76 1.377 . S
N79 C78 1.344 . S
O80 Co72 2.055 . S
O80 C84 1.253 . S
H81 C77 0.931 . S
H82 C78 0.930 . S
O83 Co72 2.039 . S
O83 C73 1.265 . S
C84 O80 1.253 . S
C84 O85 1.227 . S
O85 C84 1.227 . S
N86 Co72 2.140 . S
N86 C89 1.346 . S
N86 C90 1.345 . S
C87 C88 1.387 . S
C87 C91 1.391 . S
C88 C87 1.387 . S
C88 C89 1.369 . S
C88 H97 0.929 . S
C89 N86 1.346 . S
C89 C88 1.369 . S
C89 H92 0.928 . S
C90 N86 1.345 . S
C90 C91 1.371 . S
C90 H93 0.931 . S
C91 C87 1.391 . S
C91 C90 1.371 . S
C91 H98 0.930 . S
H92 C89 0.928 . S
H93 C90 0.931 . S
H94 C70 0.930 . S
H95 C67 0.930 . S
H96 C76 0.930 . S
H97 C88 0.929 . S
H98 C91 0.930 . S
C99 C100 1.351 . S
C99 N102 1.368 . S
C99 H104 0.931 . S
C100 C99 1.351 . S
C100 N101 1.373 . S
C100 H128 0.930 . S
N101 C100 1.373 . S
N101 C103 1.340 . S
N102 C99 1.368 . S
N102 C103 1.321 . S
N102 Co105 2.135 . S
C103 N101 1.340 . S
C103 N102 1.321 . S
C103 H127 0.930 . S
H104 C99 0.931 . S
Co105 N102 2.135 . S
Co105 N108 2.121 . S
Co105 O113 2.055 . S
Co105 O116 2.039 . S
Co105 N119 2.140 . S
C106 O107 1.227 . S
C106 O116 1.265 . S
O107 C106 1.227 . S
N108 Co105 2.121 . S
N108 C110 1.375 . S
N108 C111 1.313 . S
C109 C110 1.338 . S
C109 N112 1.377 . S
C109 H129 0.930 . S
C110 N108 1.375 . S
C110 C109 1.338 . S
C110 H114 0.931 . S
C111 N108 1.313 . S
C111 N112 1.344 . S
C111 H115 0.930 . S
N112 C109 1.377 . S
N112 C111 1.344 . S
O113 Co105 2.055 . S
O113 C117 1.253 . S
H114 C110 0.931 . S
H115 C111 0.930 . S
O116 Co105 2.039 . S
O116 C106 1.265 . S
C117 O113 1.253 . S
C117 O118 1.227 . S
O118 C117 1.227 . S
N119 Co105 2.140 . S
N119 C122 1.346 . S
N119 C123 1.345 . S
C120 C121 1.387 . S
C120 C124 1.391 . S
C121 C120 1.387 . S
C121 C122 1.369 . S
C121 H130 0.929 . S
C122 N119 1.346 . S
C122 C121 1.369 . S
C122 H125 0.928 . S
C123 N119 1.345 . S
C123 C124 1.371 . S
C123 H126 0.931 . S
C124 C120 1.391 . S
C124 C123 1.371 . S
C124 H131 0.930 . S
H125 C122 0.928 . S
H126 C123 0.931 . S
H127 C103 0.930 . S
H128 C100 0.930 . S
H129 C109 0.930 . S
H130 C121 0.929 . S
H131 C124 0.930 . S
C132 C133 1.351 . S
C132 N135 1.368 . S
C132 H137 0.895 1_455 S
C133 C132 1.351 . S
C133 N134 1.373 . S
C133 H161 0.930 1_455 S
N134 C133 1.373 . S
N134 C136 1.340 . S
N135 C132 1.368 . S
N135 C136 1.321 . S
N135 Co138 2.135 . S
C136 N134 1.340 . S
C136 N135 1.321 . S
C136 H160 0.930 . S
H137 C132 0.895 1_655 S
Co138 N135 2.135 . S
Co138 N141 2.121 . S
Co138 O146 2.055 . S
Co138 O149 2.039 . S
Co138 N152 2.094 1_455 S
C139 O140 1.227 . S
C139 O149 1.265 . S
O140 C139 1.227 . S
N141 Co138 2.121 . S
N141 C143 1.375 . S
N141 C144 1.313 . S
C142 C143 1.338 . S
C142 N145 1.377 . S
C142 H162 0.930 . S
C143 N141 1.375 . S
C143 C142 1.338 . S
C143 H147 0.931 . S
C144 N141 1.313 . S
C144 N145 1.344 . S
C144 H148 0.930 . S
N145 C142 1.377 . S
N145 C144 1.344 . S
O146 Co138 2.055 . S
O146 C150 1.253 . S
H147 C143 0.931 . S
H148 C144 0.930 . S
O149 Co138 2.039 . S
O149 C139 1.265 . S
C150 O146 1.253 . S
C150 O151 1.269 . S
O151 C150 1.269 . S
N152 Co138 2.094 1_655 S
N152 C155 1.359 . S
N152 C156 1.382 . S
C153 C154 1.387 . S
C153 C157 1.391 . S
C154 C153 1.387 . S
C154 C155 1.369 . S
C154 H163 0.929 . S
C155 N152 1.359 . S
C155 C154 1.369 . S
C155 H158 0.928 1_655 S
C156 N152 1.382 . S
C156 C157 1.371 . S
C156 H159 0.931 . S
C157 C153 1.391 . S
C157 C156 1.371 . S
C157 H164 0.930 . S
H158 C155 0.928 1_455 S
H159 C156 0.931 . S
H160 C136 0.930 . S
H161 C133 0.930 1_655 S
H162 C142 0.930 . S
H163 C154 0.929 . S
H164 C157 0.930 . S
C165 C166 1.351 . S
C165 N168 1.368 . S
C165 H170 0.895 1_544 S
C166 C165 1.351 . S
C166 N167 1.373 . S
C166 H194 0.930 1_545 S
N167 C166 1.373 . S
N167 C169 1.340 . S
N168 C165 1.368 . S
N168 C169 1.321 . S
N168 Co171 2.135 1_554 S
C169 N167 1.340 . S
C169 N168 1.321 . S
C169 H193 0.930 . S
H170 C165 0.895 1_566 S
Co171 N168 2.135 1_556 S
Co171 N174 2.121 . S
Co171 O179 2.055 . S
Co171 O182 2.039 . S
Co171 N185 2.094 1_545 S
C172 O173 1.227 . S
C172 O182 1.265 . S
O173 C172 1.227 . S
N174 Co171 2.121 . S
N174 C176 1.375 . S
N174 C177 1.313 . S
C175 C176 1.338 . S
C175 N178 1.377 . S
C175 H195 0.930 . S
C176 N174 1.375 . S
C176 C175 1.338 . S
C176 H180 0.931 . S
C177 N174 1.313 . S
C177 N178 1.344 . S
C177 H181 0.930 . S
N178 C175 1.377 . S
N178 C177 1.344 . S
O179 Co171 2.055 . S
O179 C183 1.253 . S
H180 C176 0.931 . S
H181 C177 0.930 . S
O182 Co171 2.039 . S
O182 C172 1.265 . S
C183 O179 1.253 . S
C183 O184 1.269 . S
O184 C183 1.269 . S
N185 Co171 2.094 1_565 S
N185 C188 1.359 . S
N185 C189 1.382 . S
C186 C187 1.387 . S
C186 C190 1.391 . S
C187 C186 1.387 . S
C187 C188 1.369 . S
C187 H196 0.929 . S
C188 N185 1.359 . S
C188 C187 1.369 . S
C188 H191 0.928 1_565 S
C189 N185 1.382 . S
C189 C190 1.371 . S
C189 H192 0.931 . S
C190 C186 1.391 . S
C190 C189 1.371 . S
C190 H197 0.930 . S
H191 C188 0.928 1_545 S
H192 C189 0.931 . S
H193 C169 0.930 . S
H194 C166 0.930 1_565 S
H195 C175 0.930 . S
H196 C187 0.929 . S
H197 C190 0.930 . S
C198 C199 1.351 . S
C198 N201 1.368 . S
C198 H203 0.931 . S
C199 C198 1.351 . S
C199 N200 1.373 . S
C199 H227 0.930 . S
N200 C199 1.373 . S
N200 C202 1.340 . S
N201 C198 1.368 . S
N201 C202 1.321 . S
N201 Co204 2.135 . S
C202 N200 1.340 . S
C202 N201 1.321 . S
C202 H226 0.930 . S
H203 C198 0.931 . S
Co204 N201 2.135 . S
Co204 N207 2.121 . S
Co204 O212 2.055 . S
Co204 O215 2.039 . S
Co204 N218 2.140 . S
C205 O206 1.227 . S
C205 O215 1.265 . S
O206 C205 1.227 . S
N207 Co204 2.121 . S
N207 C209 1.375 . S
N207 C210 1.313 . S
C208 C209 1.338 . S
C208 N211 1.377 . S
C208 H228 0.930 . S
C209 N207 1.375 . S
C209 C208 1.338 . S
C209 H213 0.931 . S
C210 N207 1.313 . S
C210 N211 1.344 . S
C210 H214 0.930 . S
N211 C208 1.377 . S
N211 C210 1.344 . S
O212 Co204 2.055 . S
O212 C216 1.253 . S
H213 C209 0.931 . S
H214 C210 0.930 . S
O215 Co204 2.039 . S
O215 C205 1.265 . S
C216 O212 1.253 . S
C216 O217 1.227 . S
O217 C216 1.227 . S
N218 Co204 2.140 . S
N218 C221 1.346 . S
N218 C222 1.345 . S
C219 C220 1.387 . S
C219 C223 1.391 . S
C220 C219 1.387 . S
C220 C221 1.369 . S
C220 H229 0.929 . S
C221 N218 1.346 . S
C221 C220 1.369 . S
C221 H224 0.928 . S
C222 N218 1.345 . S
C222 C223 1.371 . S
C222 H225 0.931 . S
C223 C219 1.391 . S
C223 C222 1.371 . S
C223 H230 0.930 . S
H224 C221 0.928 . S
H225 C222 0.931 . S
H226 C202 0.930 . S
H227 C199 0.930 . S
H228 C208 0.930 . S
H229 C220 0.929 . S
H230 C223 0.930 . S
C231 C232 1.351 . S
C231 N234 1.368 . S
C231 H236 0.931 1_554 S
C232 C231 1.351 . S
C232 N233 1.373 . S
C232 H260 0.930 . S
N233 C232 1.373 . S
N233 C235 1.340 . S
N234 C231 1.368 . S
N234 C235 1.321 . S
N234 Co237 2.135 1_554 S
C235 N233 1.340 . S
C235 N234 1.321 . S
C235 H259 0.930 . S
H236 C231 0.931 1_556 S
Co237 N234 2.135 1_556 S
Co237 N240 2.121 . S
Co237 O245 2.055 . S
Co237 O248 2.039 . S
Co237 N251 2.140 . S
C238 O239 1.227 . S
C238 O248 1.265 . S
O239 C238 1.227 . S
N240 Co237 2.121 . S
N240 C242 1.375 . S
N240 C243 1.313 . S
C241 C242 1.338 . S
C241 N244 1.377 . S
C241 H261 0.930 . S
C242 N240 1.375 . S
C242 C241 1.338 . S
C242 H246 0.931 . S
C243 N240 1.313 . S
C243 N244 1.344 . S
C243 H247 0.930 . S
N244 C241 1.377 . S
N244 C243 1.344 . S
O245 Co237 2.055 . S
O245 C249 1.253 . S
H246 C242 0.931 . S
H247 C243 0.930 . S
O248 Co237 2.039 . S
O248 C238 1.265 . S
C249 O245 1.253 . S
C249 O250 1.227 . S
O250 C249 1.227 . S
N251 Co237 2.140 . S
N251 C254 1.346 . S
N251 C255 1.345 . S
C252 C253 1.387 . S
C252 C256 1.391 . S
C253 C252 1.387 . S
C253 C254 1.369 . S
C253 H262 0.929 . S
C254 N251 1.346 . S
C254 C253 1.369 . S
C254 H257 0.928 . S
C255 N251 1.345 . S
C255 C256 1.371 . S
C255 H258 0.931 . S
C256 C252 1.391 . S
C256 C255 1.371 . S
C256 H263 0.930 . S
H257 C254 0.928 . S
H258 C255 0.931 . S
H259 C235 0.930 . S
H260 C232 0.930 . S
H261 C241 0.930 . S
H262 C253 0.929 . S
H263 C256 0.930 . S
C264 C265 1.351 . S
C264 N267 1.368 . S
C264 H269 0.895 1_654 S
C265 C264 1.351 . S
C265 N266 1.373 . S
C265 H293 0.930 1_655 S
N266 C265 1.373 . S
N266 C268 1.340 . S
N267 C264 1.368 . S
N267 C268 1.321 . S
N267 Co270 2.135 1_554 S
C268 N266 1.340 . S
C268 N267 1.321 . S
C268 H292 0.930 . S
H269 C264 0.895 1_456 S
Co270 N267 2.135 1_556 S
Co270 N273 2.121 . S
Co270 O278 2.055 . S
Co270 O281 2.039 . S
Co270 N284 2.094 1_655 S
C271 O272 1.227 . S
C271 O281 1.265 . S
O272 C271 1.227 . S
N273 Co270 2.121 . S
N273 C275 1.375 . S
N273 C276 1.313 . S
C274 C275 1.338 . S
C274 N277 1.377 . S
C274 H294 0.930 . S
C275 N273 1.375 . S
C275 C274 1.338 . S
C275 H279 0.931 . S
C276 N273 1.313 . S
C276 N277 1.344 . S
C276 H280 0.930 . S
N277 C274 1.377 . S
N277 C276 1.344 . S
O278 Co270 2.055 . S
O278 C282 1.253 . S
H279 C275 0.931 . S
H280 C276 0.930 . S
O281 Co270 2.039 . S
O281 C271 1.265 . S
C282 O278 1.253 . S
C282 O283 1.269 . S
O283 C282 1.269 . S
N284 Co270 2.094 1_455 S
N284 C287 1.359 . S
N284 C288 1.382 . S
C285 C286 1.387 . S
C285 C289 1.391 . S
C286 C285 1.387 . S
C286 C287 1.369 . S
C286 H295 0.929 . S
C287 N284 1.359 . S
C287 C286 1.369 . S
C287 H290 0.928 1_455 S
C288 N284 1.382 . S
C288 C289 1.371 . S
C288 H291 0.931 . S
C289 C285 1.391 . S
C289 C288 1.371 . S
C289 H296 0.930 . S
H290 C287 0.928 1_655 S
H291 C288 0.931 . S
H292 C268 0.930 . S
H293 C265 0.930 1_455 S
H294 C274 0.930 . S
H295 C286 0.929 . S
H296 C289 0.930 . S
C297 C298 1.351 . S
C297 N300 1.368 . S
C297 H302 0.895 1_565 S
C298 C297 1.351 . S
C298 N299 1.373 . S
C298 H326 0.930 1_565 S
N299 C298 1.373 . S
N299 C301 1.340 . S
N300 C297 1.368 . S
N300 C301 1.321 . S
N300 Co303 2.135 . S
C301 N299 1.340 . S
C301 N300 1.321 . S
C301 H325 0.930 . S
H302 C297 0.895 1_545 S
Co303 N300 2.135 . S
Co303 N306 2.121 . S
Co303 O311 2.055 . S
Co303 O314 2.039 . S
Co303 N317 2.094 1_565 S
C304 O305 1.227 . S
C304 O314 1.265 . S
O305 C304 1.227 . S
N306 Co303 2.121 . S
N306 C308 1.375 . S
N306 C309 1.313 . S
C307 C308 1.338 . S
C307 N310 1.377 . S
C307 H327 0.930 . S
C308 N306 1.375 . S
C308 C307 1.338 . S
C308 H312 0.931 . S
C309 N306 1.313 . S
C309 N310 1.344 . S
C309 H313 0.930 . S
N310 C307 1.377 . S
N310 C309 1.344 . S
O311 Co303 2.055 . S
O311 C315 1.253 . S
H312 C308 0.931 . S
H313 C309 0.930 . S
O314 Co303 2.039 . S
O314 C304 1.265 . S
C315 O311 1.253 . S
C315 O316 1.269 . S
O316 C315 1.269 . S
N317 Co303 2.094 1_545 S
N317 C320 1.359 . S
N317 C321 1.382 . S
C318 C319 1.387 . S
C318 C322 1.391 . S
C319 C318 1.387 . S
C319 C320 1.369 . S
C319 H328 0.929 . S
C320 N317 1.359 . S
C320 C319 1.369 . S
C320 H323 0.928 1_545 S
C321 N317 1.382 . S
C321 C322 1.371 . S
C321 H324 0.931 . S
C322 C318 1.391 . S
C322 C321 1.371 . S
C322 H329 0.930 . S
H323 C320 0.928 1_565 S
H324 C321 0.931 . S
H325 C301 0.930 . S
H326 C298 0.930 1_545 S
H327 C307 0.930 . S
H328 C319 0.929 . S
H329 C322 0.930 . S
C330 C331 1.351 . S
C330 N333 1.368 . S
C330 H335 0.931 1_554 S
C331 C330 1.351 . S
C331 N332 1.373 . S
C331 H359 0.930 . S
N332 C331 1.373 . S
N332 C334 1.340 . S
N333 C330 1.368 . S
N333 C334 1.321 . S
N333 Co336 2.135 1_554 S
C334 N332 1.340 . S
C334 N333 1.321 . S
C334 H358 0.930 . S
H335 C330 0.931 1_556 S
Co336 N333 2.135 1_556 S
Co336 N339 2.121 . S
Co336 O344 2.055 . S
Co336 O347 2.039 . S
Co336 N350 2.140 . S
C337 O338 1.227 . S
C337 O347 1.265 . S
O338 C337 1.227 . S
N339 Co336 2.121 . S
N339 C341 1.375 . S
N339 C342 1.313 . S
C340 C341 1.338 . S
C340 N343 1.377 . S
C340 H360 0.930 . S
C341 N339 1.375 . S
C341 C340 1.338 . S
C341 H345 0.931 . S
C342 N339 1.313 . S
C342 N343 1.344 . S
C342 H346 0.930 . S
N343 C340 1.377 . S
N343 C342 1.344 . S
O344 Co336 2.055 . S
O344 C348 1.253 . S
H345 C341 0.931 . S
H346 C342 0.930 . S
O347 Co336 2.039 . S
O347 C337 1.265 . S
C348 O344 1.253 . S
C348 O349 1.227 . S
O349 C348 1.227 . S
N350 Co336 2.140 . S
N350 C353 1.346 . S
N350 C354 1.345 . S
C351 C352 1.387 . S
C351 C355 1.391 . S
C352 C351 1.387 . S
C352 C353 1.369 . S
C352 H361 0.929 . S
C353 N350 1.346 . S
C353 C352 1.369 . S
C353 H356 0.928 . S
C354 N350 1.345 . S
C354 C355 1.371 . S
C354 H357 0.931 . S
C355 C351 1.391 . S
C355 C354 1.371 . S
C355 H362 0.930 . S
H356 C353 0.928 . S
H357 C354 0.931 . S
H358 C334 0.930 . S
H359 C331 0.930 . S
H360 C340 0.930 . S
H361 C352 0.929 . S
H362 C355 0.930 . S
C363 C364 1.351 . S
C363 N366 1.368 . S
C363 H368 0.931 . S
C364 C363 1.351 . S
C364 N365 1.373 . S
C364 H392 0.930 . S
N365 C364 1.373 . S
N365 C367 1.340 . S
N366 C363 1.368 . S
N366 C367 1.321 . S
N366 Co369 2.135 . S
C367 N365 1.340 . S
C367 N366 1.321 . S
C367 H391 0.930 . S
H368 C363 0.931 . S
Co369 N366 2.135 . S
Co369 N372 2.121 . S
Co369 O377 2.055 . S
Co369 O380 2.039 . S
Co369 N383 2.140 . S
C370 O371 1.227 . S
C370 O380 1.265 . S
O371 C370 1.227 . S
N372 Co369 2.121 . S
N372 C374 1.375 . S
N372 C375 1.313 . S
C373 C374 1.338 . S
C373 N376 1.377 . S
C373 H393 0.930 . S
C374 N372 1.375 . S
C374 C373 1.338 . S
C374 H378 0.931 . S
C375 N372 1.313 . S
C375 N376 1.344 . S
C375 H379 0.930 . S
N376 C373 1.377 . S
N376 C375 1.344 . S
O377 Co369 2.055 . S
O377 C381 1.253 . S
H378 C374 0.931 . S
H379 C375 0.930 . S
O380 Co369 2.039 . S
O380 C370 1.265 . S
C381 O377 1.253 . S
C381 O382 1.227 . S
O382 C381 1.227 . S
N383 Co369 2.140 . S
N383 C386 1.346 . S
N383 C387 1.345 . S
C384 C385 1.387 . S
C384 C388 1.391 . S
C385 C384 1.387 . S
C385 C386 1.369 . S
C385 H394 0.929 . S
C386 N383 1.346 . S
C386 C385 1.369 . S
C386 H389 0.928 . S
C387 N383 1.345 . S
C387 C388 1.371 . S
C387 H390 0.931 . S
C388 C384 1.391 . S
C388 C387 1.371 . S
C388 H395 0.930 . S
H389 C386 0.928 . S
H390 C387 0.931 . S
H391 C367 0.930 . S
H392 C364 0.930 . S
H393 C373 0.930 . S
H394 C385 0.929 . S
H395 C388 0.930 . S
C396 C397 1.351 . S
C396 N399 1.368 . S
C396 H401 0.895 1_655 S
C397 C396 1.351 . S
C397 N398 1.373 . S
C397 H425 0.930 1_655 S
N398 C397 1.373 . S
N398 C400 1.340 . S
N399 C396 1.368 . S
N399 C400 1.321 . S
N399 Co402 2.135 . S
C400 N398 1.340 . S
C400 N399 1.321 . S
C400 H424 0.930 . S
H401 C396 0.895 1_455 S
Co402 N399 2.135 . S
Co402 N405 2.121 . S
Co402 O410 2.055 . S
Co402 O413 2.039 . S
Co402 N416 2.094 1_655 S
C403 O404 1.227 . S
C403 O413 1.265 . S
O404 C403 1.227 . S
N405 Co402 2.121 . S
N405 C407 1.375 . S
N405 C408 1.313 . S
C406 C407 1.338 . S
C406 N409 1.377 . S
C406 H426 0.930 . S
C407 N405 1.375 . S
C407 C406 1.338 . S
C407 H411 0.931 . S
C408 N405 1.313 . S
C408 N409 1.344 . S
C408 H412 0.930 . S
N409 C406 1.377 . S
N409 C408 1.344 . S
O410 Co402 2.055 . S
O410 C414 1.253 . S
H411 C407 0.931 . S
H412 C408 0.930 . S
O413 Co402 2.039 . S
O413 C403 1.265 . S
C414 O410 1.253 . S
C414 O415 1.269 . S
O415 C414 1.269 . S
N416 Co402 2.094 1_455 S
N416 C419 1.359 . S
N416 C420 1.382 . S
C417 C418 1.387 . S
C417 C421 1.391 . S
C418 C417 1.387 . S
C418 C419 1.369 . S
C418 H427 0.929 . S
C419 N416 1.359 . S
C419 C418 1.369 . S
C419 H422 0.928 1_455 S
C420 N416 1.382 . S
C420 C421 1.371 . S
C420 H423 0.931 . S
C421 C417 1.391 . S
C421 C420 1.371 . S
C421 H428 0.930 . S
H422 C419 0.928 1_655 S
H423 C420 0.931 . S
H424 C400 0.930 . S
H425 C397 0.930 1_455 S
H426 C406 0.930 . S
H427 C418 0.929 . S
H428 C421 0.930 . S
C429 C430 1.351 . S
C429 N432 1.368 . S
C429 H434 0.895 1_566 S
C430 C429 1.351 . S
C430 N431 1.373 . S
C430 H458 0.930 1_565 S
N431 C430 1.373 . S
N431 C433 1.340 . S
N432 C429 1.368 . S
N432 C433 1.321 . S
N432 Co435 2.135 1_556 S
C433 N431 1.340 . S
C433 N432 1.321 . S
C433 H457 0.930 . S
H434 C429 0.895 1_544 S
Co435 N432 2.135 1_554 S
Co435 N438 2.121 . S
Co435 O443 2.055 . S
Co435 O446 2.039 . S
Co435 N449 2.094 1_565 S
C436 O437 1.227 . S
C436 O446 1.265 . S
O437 C436 1.227 . S
N438 Co435 2.121 . S
N438 C440 1.375 . S
N438 C441 1.313 . S
C439 C440 1.338 . S
C439 N442 1.377 . S
C439 H459 0.930 . S
C440 N438 1.375 . S
C440 C439 1.338 . S
C440 H444 0.931 . S
C441 N438 1.313 . S
C441 N442 1.344 . S
C441 H445 0.930 . S
N442 C439 1.377 . S
N442 C441 1.344 . S
O443 Co435 2.055 . S
O443 C447 1.253 . S
H444 C440 0.931 . S
H445 C441 0.930 . S
O446 Co435 2.039 . S
O446 C436 1.265 . S
C447 O443 1.253 . S
C447 O448 1.269 . S
O448 C447 1.269 . S
N449 Co435 2.094 1_545 S
N449 C452 1.359 . S
N449 C453 1.382 . S
C450 C451 1.387 . S
C450 C454 1.391 . S
C451 C450 1.387 . S
C451 C452 1.369 . S
C451 H460 0.929 . S
C452 N449 1.359 . S
C452 C451 1.369 . S
C452 H455 0.928 1_545 S
C453 N449 1.382 . S
C453 C454 1.371 . S
C453 H456 0.931 . S
C454 C450 1.391 . S
C454 C453 1.371 . S
C454 H461 0.930 . S
H455 C452 0.928 1_565 S
H456 C453 0.931 . S
H457 C433 0.930 . S
H458 C430 0.930 1_545 S
H459 C439 0.930 . S
H460 C451 0.929 . S
H461 C454 0.930 . S
C462 C463 1.351 . S
C462 N465 1.368 . S
C462 H467 0.931 . S
C463 C462 1.351 . S
C463 N464 1.373 . S
C463 H491 0.930 . S
N464 C463 1.373 . S
N464 C466 1.340 . S
N465 C462 1.368 . S
N465 C466 1.321 . S
N465 Co468 2.135 . S
C466 N464 1.340 . S
C466 N465 1.321 . S
C466 H490 0.930 . S
H467 C462 0.931 . S
Co468 N465 2.135 . S
Co468 N471 2.121 . S
Co468 O476 2.055 . S
Co468 O479 2.039 . S
Co468 N482 2.140 . S
C469 O470 1.227 . S
C469 O479 1.265 . S
O470 C469 1.227 . S
N471 Co468 2.121 . S
N471 C473 1.375 . S
N471 C474 1.313 . S
C472 C473 1.338 . S
C472 N475 1.377 . S
C472 H492 0.930 . S
C473 N471 1.375 . S
C473 C472 1.338 . S
C473 H477 0.931 . S
C474 N471 1.313 . S
C474 N475 1.344 . S
C474 H478 0.930 . S
N475 C472 1.377 . S
N475 C474 1.344 . S
O476 Co468 2.055 . S
O476 C480 1.253 . S
H477 C473 0.931 . S
H478 C474 0.930 . S
O479 Co468 2.039 . S
O479 C469 1.265 . S
C480 O476 1.253 . S
C480 O481 1.227 . S
O481 C480 1.227 . S
N482 Co468 2.140 . S
N482 C485 1.346 . S
N482 C486 1.345 . S
C483 C484 1.387 . S
C483 C487 1.391 . S
C484 C483 1.387 . S
C484 C485 1.369 . S
C484 H493 0.929 . S
C485 N482 1.346 . S
C485 C484 1.369 . S
C485 H488 0.928 . S
C486 N482 1.345 . S
C486 C487 1.371 . S
C486 H489 0.931 . S
C487 C483 1.391 . S
C487 C486 1.371 . S
C487 H494 0.930 . S
H488 C485 0.928 . S
H489 C486 0.931 . S
H490 C466 0.930 . S
H491 C463 0.930 . S
H492 C472 0.930 . S
H493 C484 0.929 . S
H494 C487 0.930 . S
C495 C496 1.351 . S
C495 N498 1.368 . S
C495 H500 0.931 1_556 S
C496 C495 1.351 . S
C496 N497 1.373 . S
C496 H524 0.930 . S
N497 C496 1.373 . S
N497 C499 1.340 . S
N498 C495 1.368 . S
N498 C499 1.321 . S
N498 Co501 2.135 1_556 S
C499 N497 1.340 . S
C499 N498 1.321 . S
C499 H523 0.930 . S
H500 C495 0.931 1_554 S
Co501 N498 2.135 1_554 S
Co501 N504 2.121 . S
Co501 O509 2.055 . S
Co501 O512 2.039 . S
Co501 N515 2.140 . S
C502 O503 1.227 . S
C502 O512 1.265 . S
O503 C502 1.227 . S
N504 Co501 2.121 . S
N504 C506 1.375 . S
N504 C507 1.313 . S
C505 C506 1.338 . S
C505 N508 1.377 . S
C505 H525 0.930 . S
C506 N504 1.375 . S
C506 C505 1.338 . S
C506 H510 0.931 . S
C507 N504 1.313 . S
C507 N508 1.344 . S
C507 H511 0.930 . S
N508 C505 1.377 . S
N508 C507 1.344 . S
O509 Co501 2.055 . S
O509 C513 1.253 . S
H510 C506 0.931 . S
H511 C507 0.930 . S
O512 Co501 2.039 . S
O512 C502 1.265 . S
C513 O509 1.253 . S
C513 O514 1.227 . S
O514 C513 1.227 . S
N515 Co501 2.140 . S
N515 C518 1.346 . S
N515 C519 1.345 . S
C516 C517 1.387 . S
C516 C520 1.391 . S
C517 C516 1.387 . S
C517 C518 1.369 . S
C517 H526 0.929 . S
C518 N515 1.346 . S
C518 C517 1.369 . S
C518 H521 0.928 . S
C519 N515 1.345 . S
C519 C520 1.371 . S
C519 H522 0.931 . S
C520 C516 1.391 . S
C520 C519 1.371 . S
C520 H527 0.930 . S
H521 C518 0.928 . S
H522 C519 0.931 . S
H523 C499 0.930 . S
H524 C496 0.930 . S
H525 C505 0.930 . S
H526 C517 0.929 . S
H527 C520 0.930 . S
H528 C540 0.930 . S
H529 C542 0.930 . S
H530 C543 0.930 . S
H531 C547 0.955 1_556 S
H532 C547 0.959 . S
H533 C547 0.961 . S
H534 C548 0.960 . S
H535 C548 0.961 . S
H536 C548 0.959 . S
H537 C551 0.929 . S
H538 C552 0.931 . S
H539 C554 0.930 . S
C540 H528 0.930 . S
C540 C541 1.399 . S
C540 C545 1.399 . S
C541 C540 1.399 . S
C541 C542 1.376 . S
C542 H529 0.930 . S
C542 C541 1.376 . S
C542 C543 1.388 . S
C543 H530 0.930 . S
C543 C542 1.388 . S
C543 C544 1.390 . S
C544 C543 1.390 . S
C544 C545 1.394 . S
C544 C550 1.465 . S
C545 C540 1.399 . S
C545 C544 1.394 . S
C545 C546 1.516 . S
C546 C545 1.516 . S
C546 C547 1.502 . S
C546 C548 1.561 . S
C546 C549 1.526 . S
C547 H531 0.955 1_554 S
C547 H532 0.959 . S
C547 H533 0.961 . S
C547 C546 1.502 . S
C548 H534 0.960 . S
C548 H535 0.961 . S
C548 H536 0.959 . S
C548 C546 1.561 . S
C549 C546 1.526 . S
C549 C550 1.396 . S
C549 C554 1.390 . S
C550 C544 1.465 . S
C550 C549 1.396 . S
C550 C551 1.399 . S
C551 H537 0.929 . S
C551 C550 1.399 . S
C551 C552 1.385 . S
C552 H538 0.931 . S
C552 C551 1.385 . S
C552 C553 1.389 . S
C553 C552 1.389 . S
C553 C554 1.387 . S
C554 H539 0.930 . S
C554 C549 1.390 . S
C554 C553 1.387 . S
H555 C567 0.930 . S
H556 C569 0.930 . S
H557 C570 0.930 . S
H558 C574 0.959 . S
H559 C574 0.959 . S
H560 C574 0.961 . S
H561 C575 0.960 . S
H562 C575 0.961 . S
H563 C575 0.959 . S
H564 C578 0.929 . S
H565 C579 0.931 . S
H566 C581 0.930 . S
C567 H555 0.930 . S
C567 C568 1.399 . S
C567 C572 1.399 . S
C568 C567 1.399 . S
C568 C569 1.376 . S
C569 H556 0.930 . S
C569 C568 1.376 . S
C569 C570 1.388 . S
C570 H557 0.930 . S
C570 C569 1.388 . S
C570 C571 1.390 . S
C571 C570 1.390 . S
C571 C572 1.394 . S
C571 C577 1.465 . S
C572 C567 1.399 . S
C572 C571 1.394 . S
C572 C573 1.516 . S
C573 C572 1.516 . S
C573 C574 1.502 . S
C573 C575 1.561 . S
C573 C576 1.526 . S
C574 H558 0.959 . S
C574 H559 0.959 . S
C574 H560 0.961 . S
C574 C573 1.502 . S
C575 H561 0.960 . S
C575 H562 0.961 . S
C575 H563 0.959 . S
C575 C573 1.561 . S
C576 C573 1.526 . S
C576 C577 1.396 . S
C576 C581 1.390 . S
C577 C571 1.465 . S
C577 C576 1.396 . S
C577 C578 1.399 . S
C578 H564 0.929 . S
C578 C577 1.399 . S
C578 C579 1.385 . S
C579 H565 0.931 . S
C579 C578 1.385 . S
C579 C580 1.389 . S
C580 C579 1.389 . S
C580 C581 1.387 . S
C581 H566 0.930 . S
C581 C576 1.390 . S
C581 C580 1.387 . S
H582 C594 0.930 . S
H583 C596 0.930 . S
H584 C597 0.930 . S
H585 C601 0.959 1_554 S
H586 C601 0.959 . S
H587 C601 0.961 . S
H588 C602 0.960 . S
H589 C602 0.961 . S
H590 C602 0.959 . S
H591 C605 0.929 . S
H592 C606 0.931 . S
H593 C608 0.930 . S
C594 H582 0.930 . S
C594 C595 1.399 . S
C594 C599 1.399 . S
C595 C594 1.399 . S
C595 C596 1.376 . S
C596 H583 0.930 . S
C596 C595 1.376 . S
C596 C597 1.388 . S
C597 H584 0.930 . S
C597 C596 1.388 . S
C597 C598 1.390 . S
C598 C597 1.390 . S
C598 C599 1.394 . S
C598 C604 1.465 . S
C599 C594 1.399 . S
C599 C598 1.394 . S
C599 C600 1.516 . S
C600 C599 1.516 . S
C600 C601 1.502 1_554 S
C600 C602 1.561 1_554 S
C600 C603 1.526 . S
C601 H585 0.959 1_556 S
C601 H586 0.959 . S
C601 H587 0.961 . S
C601 C600 1.502 1_556 S
C602 H588 0.960 . S
C602 H589 0.961 . S
C602 H590 0.959 . S
C602 C600 1.561 1_556 S
C603 C600 1.526 . S
C603 C604 1.396 . S
C603 C608 1.390 . S
C604 C598 1.465 . S
C604 C603 1.396 . S
C604 C605 1.399 . S
C605 H591 0.929 . S
C605 C604 1.399 . S
C605 C606 1.385 . S
C606 H592 0.931 . S
C606 C605 1.385 . S
C606 C607 1.389 . S
C607 C606 1.389 . S
C607 C608 1.387 . S
C608 H593 0.930 . S
C608 C603 1.390 . S
C608 C607 1.387 . S
H609 C621 0.930 . S
H610 C623 0.930 . S
H611 C624 0.930 . S
H612 C628 0.959 . S
H613 C628 0.959 . S
H614 C628 0.961 . S
H615 C629 0.960 . S
H616 C629 0.961 . S
H617 C629 0.959 . S
H618 C632 0.929 . S
H619 C633 0.931 . S
H620 C635 0.930 . S
C621 H609 0.930 . S
C621 C622 1.399 . S
C621 C626 1.399 . S
C622 C621 1.399 . S
C622 C623 1.376 . S
C623 H610 0.930 . S
C623 C622 1.376 . S
C623 C624 1.388 . S
C624 H611 0.930 . S
C624 C623 1.388 . S
C624 C625 1.390 . S
C625 C624 1.390 . S
C625 C626 1.394 . S
C625 C631 1.465 . S
C626 C621 1.399 . S
C626 C625 1.394 . S
C626 C627 1.516 . S
C627 C626 1.516 . S
C627 C628 1.502 . S
C627 C629 1.561 . S
C627 C630 1.526 . S
C628 H612 0.959 . S
C628 H613 0.959 . S
C628 H614 0.961 . S
C628 C627 1.502 . S
C629 H615 0.960 . S
C629 H616 0.961 . S
C629 H617 0.959 . S
C629 C627 1.561 . S
C630 C627 1.526 . S
C630 C631 1.396 . S
C630 C635 1.390 . S
C631 C625 1.465 . S
C631 C630 1.396 . S
C631 C632 1.399 . S
C632 H618 0.929 . S
C632 C631 1.399 . S
C632 C633 1.385 . S
C633 H619 0.931 . S
C633 C632 1.385 . S
C633 C634 1.389 . S
C634 C633 1.389 . S
C634 C635 1.387 . S
C635 H620 0.930 . S
C635 C630 1.390 . S
C635 C634 1.387 . S
H636 C648 0.930 . S
H637 C650 0.930 . S
H638 C651 0.930 . S
H639 C655 0.959 . S
H640 C655 0.959 . S
H641 C655 0.961 . S
H642 C656 0.960 . S
H643 C656 0.961 . S
H644 C656 0.959 . S
H645 C659 0.929 . S
H646 C660 0.931 . S
H647 C662 0.930 . S
C648 H636 0.930 . S
C648 C649 1.399 . S
C648 C653 1.399 . S
C649 C648 1.399 . S
C649 C650 1.376 . S
C650 H637 0.930 . S
C650 C649 1.376 . S
C650 C651 1.388 . S
C651 H638 0.930 . S
C651 C650 1.388 . S
C651 C652 1.390 . S
C652 C651 1.390 . S
C652 C653 1.394 . S
C652 C658 1.465 . S
C653 C648 1.399 . S
C653 C652 1.394 . S
C653 C654 1.516 . S
C654 C653 1.516 . S
C654 C655 1.502 . S
C654 C656 1.561 . S
C654 C657 1.526 . S
C655 H639 0.959 . S
C655 H640 0.959 . S
C655 H641 0.961 . S
C655 C654 1.502 . S
C656 H642 0.960 . S
C656 H643 0.961 . S
C656 H644 0.959 . S
C656 C654 1.561 . S
C657 C654 1.526 . S
C657 C658 1.396 . S
C657 C662 1.390 . S
C658 C652 1.465 . S
C658 C657 1.396 . S
C658 C659 1.399 . S
C659 H645 0.929 . S
C659 C658 1.399 . S
C659 C660 1.385 . S
C660 H646 0.931 . S
C660 C659 1.385 . S
C660 C661 1.389 . S
C661 C660 1.389 . S
C661 C662 1.387 . S
C662 H647 0.930 . S
C662 C657 1.390 . S
C662 C661 1.387 . S
H663 C675 0.930 . S
H664 C677 0.934 . S
H665 C678 0.930 1_554 S
H666 C682 0.959 . S
H667 C682 0.959 . S
H668 C682 0.961 . S
H669 C683 0.960 . S
H670 C683 0.961 . S
H671 C683 0.959 . S
H672 C686 0.929 1_554 S
H673 C687 0.931 1_554 S
H674 C689 0.930 . S
C675 H663 0.930 . S
C675 C676 1.399 . S
C675 C680 1.399 . S
C676 C675 1.399 . S
C676 C677 1.376 . S
C677 H664 0.934 . S
C677 C676 1.376 . S
C677 C678 1.388 . S
C678 H665 0.930 1_556 S
C678 C677 1.388 . S
C678 C679 1.390 . S
C679 C678 1.390 . S
C679 C680 1.394 . S
C679 C685 1.465 . S
C680 C675 1.399 . S
C680 C679 1.394 . S
C680 C681 1.516 . S
C681 C680 1.516 . S
C681 C682 1.502 . S
C681 C683 1.561 . S
C681 C684 1.526 . S
C682 H666 0.959 . S
C682 H667 0.959 . S
C682 H668 0.961 . S
C682 C681 1.502 . S
C683 H669 0.960 . S
C683 H670 0.961 . S
C683 H671 0.959 . S
C683 C681 1.561 . S
C684 C681 1.526 . S
C684 C685 1.396 . S
C684 C689 1.390 . S
C685 C679 1.465 . S
C685 C684 1.396 . S
C685 C686 1.399 . S
C686 H672 0.929 1_556 S
C686 C685 1.399 . S
C686 C687 1.385 . S
C687 H673 0.931 1_556 S
C687 C686 1.385 . S
C687 C688 1.389 . S
C688 C687 1.389 . S
C688 C689 1.387 . S
C689 H674 0.930 . S
C689 C684 1.390 . S
C689 C688 1.387 . S
H690 C702 0.930 . S
H691 C704 0.930 . S
H692 C705 0.930 . S
H693 C709 0.959 . S
H694 C709 0.959 . S
H695 C709 0.961 . S
H696 C710 0.960 . S
H697 C710 0.961 . S
H698 C710 0.959 . S
H699 C713 0.929 . S
H700 C714 0.931 . S
H701 C716 0.930 . S
C702 H690 0.930 . S
C702 C703 1.399 . S
C702 C707 1.399 . S
C703 C702 1.399 . S
C703 C704 1.376 . S
C704 H691 0.930 . S
C704 C703 1.376 . S
C704 C705 1.388 . S
C705 H692 0.930 . S
C705 C704 1.388 . S
C705 C706 1.390 . S
C706 C705 1.390 . S
C706 C707 1.394 . S
C706 C712 1.465 . S
C707 C702 1.399 . S
C707 C706 1.394 . S
C707 C708 1.516 . S
C708 C707 1.516 . S
C708 C709 1.502 . S
C708 C710 1.561 . S
C708 C711 1.526 . S
C709 H693 0.959 . S
C709 H694 0.959 . S
C709 H695 0.961 . S
C709 C708 1.502 . S
C710 H696 0.960 . S
C710 H697 0.961 . S
C710 H698 0.959 . S
C710 C708 1.561 . S
C711 C708 1.526 . S
C711 C712 1.396 . S
C711 C716 1.390 . S
C712 C706 1.465 . S
C712 C711 1.396 . S
C712 C713 1.399 . S
C713 H699 0.929 . S
C713 C712 1.399 . S
C713 C714 1.385 . S
C714 H700 0.931 . S
C714 C713 1.385 . S
C714 C715 1.389 . S
C715 C714 1.389 . S
C715 C716 1.387 . S
C716 H701 0.930 . S
C716 C711 1.390 . S
C716 C715 1.387 . S
H717 C729 0.930 . S
H718 C731 0.930 . S
H719 C732 0.930 . S
H720 C736 0.959 1_556 S
H721 C736 0.959 . S
H722 C736 0.961 . S
H723 C737 0.960 . S
H724 C737 0.961 . S
H725 C737 0.959 . S
H726 C740 0.929 . S
H727 C741 0.931 . S
H728 C743 0.930 . S
C729 H717 0.930 . S
C729 C730 1.399 . S
C729 C734 1.399 . S
C730 C729 1.399 . S
C730 C731 1.376 . S
C731 H718 0.930 . S
C731 C730 1.376 . S
C731 C732 1.388 . S
C732 H719 0.930 . S
C732 C731 1.388 . S
C732 C733 1.390 . S
C733 C732 1.390 . S
C733 C734 1.394 . S
C733 C739 1.465 . S
C734 C729 1.399 . S
C734 C733 1.394 . S
C734 C735 1.516 . S
C735 C734 1.516 . S
C735 C736 1.502 1_556 S
C735 C737 1.561 1_556 S
C735 C738 1.526 . S
C736 H720 0.959 1_554 S
C736 H721 0.959 . S
C736 H722 0.961 . S
C736 C735 1.502 1_554 S
C737 H723 0.960 . S
C737 H724 0.961 . S
C737 H725 0.959 . S
C737 C735 1.561 1_554 S
C738 C735 1.526 . S
C738 C739 1.396 . S
C738 C743 1.390 . S
C739 C733 1.465 . S
C739 C738 1.396 . S
C739 C740 1.399 . S
C740 H726 0.929 . S
C740 C739 1.399 . S
C740 C741 1.385 . S
C741 H727 0.931 . S
C741 C740 1.385 . S
C741 C742 1.389 . S
C742 C741 1.389 . S
C742 C743 1.387 . S
C743 H728 0.930 . S
C743 C738 1.390 . S
C743 C742 1.387 . S
H744 C756 0.930 1_556 S
H745 C758 0.930 . S
H746 C759 0.930 . S
H747 C763 0.959 . S
H748 C763 0.959 . S
H749 C763 0.961 . S
H750 C764 0.960 . S
H751 C764 0.961 . S
H752 C764 0.959 . S
H753 C767 0.929 . S
H754 C768 0.931 . S
H755 C770 0.930 . S
C756 H744 0.930 1_554 S
C756 C757 1.399 . S
C756 C761 1.399 1_554 S
C757 C756 1.399 . S
C757 C758 1.376 . S
C758 H745 0.930 . S
C758 C757 1.376 . S
C758 C759 1.388 . S
C759 H746 0.930 . S
C759 C758 1.388 . S
C759 C760 1.390 . S
C760 C759 1.390 . S
C760 C761 1.394 1_554 S
C760 C766 1.465 . S
C761 C756 1.399 1_556 S
C761 C760 1.394 1_556 S
C761 C762 1.516 . S
C762 C761 1.516 . S
C762 C763 1.502 . S
C762 C764 1.561 . S
C762 C765 1.526 . S
C763 H747 0.959 . S
C763 H748 0.959 . S
C763 H749 0.961 . S
C763 C762 1.502 . S
C764 H750 0.960 . S
C764 H751 0.961 . S
C764 H752 0.959 . S
C764 C762 1.561 . S
C765 C762 1.526 . S
C765 C766 1.396 1_556 S
C765 C770 1.390 . S
C766 C760 1.465 . S
C766 C765 1.396 1_554 S
C766 C767 1.399 . S
C767 H753 0.929 . S
C767 C766 1.399 . S
C767 C768 1.385 . S
C768 H754 0.931 . S
C768 C767 1.385 . S
C768 C769 1.389 1_554 S
C769 C768 1.389 1_556 S
C769 C770 1.387 . S
C770 H755 0.930 . S
C770 C765 1.390 . S
C770 C769 1.387 . S
H771 C783 0.930 . S
H772 C785 0.930 . S
H773 C786 0.930 . S
H774 C790 0.959 . S
H775 C790 0.959 . S
H776 C790 0.961 . S
H777 C791 0.960 . S
H778 C791 0.961 . S
H779 C791 0.959 . S
H780 C794 0.929 . S
H781 C795 0.931 . S
H782 C797 0.930 . S
C783 H771 0.930 . S
C783 C784 1.399 . S
C783 C788 1.399 . S
C784 C783 1.399 . S
C784 C785 1.376 . S
C785 H772 0.930 . S
C785 C784 1.376 . S
C785 C786 1.388 . S
C786 H773 0.930 . S
C786 C785 1.388 . S
C786 C787 1.390 . S
C787 C786 1.390 . S
C787 C788 1.394 . S
C787 C793 1.465 . S
C788 C783 1.399 . S
C788 C787 1.394 . S
C788 C789 1.516 . S
C789 C788 1.516 . S
C789 C790 1.502 . S
C789 C791 1.561 . S
C789 C792 1.526 . S
C790 H774 0.959 . S
C790 H775 0.959 . S
C790 H776 0.961 . S
C790 C789 1.502 . S
C791 H777 0.960 . S
C791 H778 0.961 . S
C791 H779 0.959 . S
C791 C789 1.561 . S
C792 C789 1.526 . S
C792 C793 1.396 . S
C792 C797 1.390 . S
C793 C787 1.465 . S
C793 C792 1.396 . S
C793 C794 1.399 . S
C794 H780 0.929 . S
C794 C793 1.399 . S
C794 C795 1.385 . S
C795 H781 0.931 . S
C795 C794 1.385 . S
C795 C796 1.389 . S
C796 C795 1.389 . S
C796 C797 1.387 . S
C797 H782 0.930 . S
C797 C792 1.390 . S
C797 C796 1.387 . S
H798 C810 0.930 1_556 S
H799 C812 0.930 . S
H800 C813 0.930 . S
H801 C817 0.959 1_554 S
H802 C817 0.959 . S
H803 C817 0.961 . S
H804 C818 0.960 . S
H805 C818 0.961 . S
H806 C818 0.959 . S
H807 C821 0.929 . S
H808 C822 0.931 . S
H809 C824 0.930 . S
C810 H798 0.930 1_554 S
C810 C811 1.399 . S
C810 C815 1.399 1_554 S
C811 C810 1.399 . S
C811 C812 1.376 . S
C812 H799 0.930 . S
C812 C811 1.376 . S
C812 C813 1.388 . S
C813 H800 0.930 . S
C813 C812 1.388 . S
C813 C814 1.390 . S
C814 C813 1.390 . S
C814 C815 1.394 1_554 S
C814 C820 1.465 . S
C815 C810 1.399 1_556 S
C815 C814 1.394 1_556 S
C815 C816 1.516 . S
C816 C815 1.516 . S
C816 C817 1.502 . S
C816 C818 1.561 . S
C816 C819 1.526 . S
C817 H801 0.959 1_556 S
C817 H802 0.959 . S
C817 H803 0.961 . S
C817 C816 1.502 . S
C818 H804 0.960 . S
C818 H805 0.961 . S
C818 H806 0.959 . S
C818 C816 1.561 . S
C819 C816 1.526 . S
C819 C820 1.396 1_556 S
C819 C824 1.390 . S
C820 C814 1.465 . S
C820 C819 1.396 1_554 S
C820 C821 1.399 . S
C821 H807 0.929 . S
C821 C820 1.399 . S
C821 C822 1.385 1_554 S
C822 H808 0.931 . S
C822 C821 1.385 1_556 S
C822 C823 1.389 . S
C823 C822 1.389 . S
C823 C824 1.387 . S
C824 H809 0.930 . S
C824 C819 1.390 . S
C824 C823 1.387 . S
H825 C837 0.930 . S
H826 C839 0.930 . S
H827 C840 0.930 . S
H828 C844 0.959 . S
H829 C844 0.959 . S
H830 C844 0.961 . S
H831 C845 0.960 . S
H832 C845 0.961 . S
H833 C845 0.959 . S
H834 C848 0.929 . S
H835 C849 0.931 . S
H836 C851 0.930 . S
C837 H825 0.930 . S
C837 C838 1.399 . S
C837 C842 1.399 . S
C838 C837 1.399 . S
C838 C839 1.376 . S
C839 H826 0.930 . S
C839 C838 1.376 . S
C839 C840 1.388 . S
C840 H827 0.930 . S
C840 C839 1.388 . S
C840 C841 1.390 . S
C841 C840 1.390 . S
C841 C842 1.394 . S
C841 C847 1.465 . S
C842 C837 1.399 . S
C842 C841 1.394 . S
C842 C843 1.516 . S
C843 C842 1.516 . S
C843 C844 1.502 . S
C843 C845 1.561 . S
C843 C846 1.526 . S
C844 H828 0.959 . S
C844 H829 0.959 . S
C844 H830 0.961 . S
C844 C843 1.502 . S
C845 H831 0.960 . S
C845 H832 0.961 . S
C845 H833 0.959 . S
C845 C843 1.561 . S
C846 C843 1.526 . S
C846 C847 1.396 . S
C846 C851 1.390 . S
C847 C841 1.465 . S
C847 C846 1.396 . S
C847 C848 1.399 . S
C848 H834 0.929 . S
C848 C847 1.399 . S
C848 C849 1.385 . S
C849 H835 0.931 . S
C849 C848 1.385 . S
C849 C850 1.389 . S
C850 C849 1.389 . S
C850 C851 1.387 . S
C851 H836 0.930 . S
C851 C846 1.390 . S
C851 C850 1.387 . S
H852 C864 0.930 1_556 S
H853 C866 0.930 . S
H854 C867 0.930 . S
H855 C871 0.959 . S
H856 C871 0.959 . S
H857 C871 0.961 . S
H858 C872 0.960 . S
H859 C872 0.961 . S
H860 C872 0.959 . S
H861 C875 0.929 . S
H862 C876 0.931 . S
H863 C878 0.930 . S
C864 H852 0.930 1_554 S
C864 C865 1.399 . S
C864 C869 1.399 1_554 S
C865 C864 1.399 . S
C865 C866 1.376 . S
C866 H853 0.930 . S
C866 C865 1.376 . S
C866 C867 1.388 . S
C867 H854 0.930 . S
C867 C866 1.388 . S
C867 C868 1.390 . S
C868 C867 1.390 . S
C868 C869 1.394 1_554 S
C868 C874 1.465 . S
C869 C864 1.399 1_556 S
C869 C868 1.394 1_556 S
C869 C870 1.516 . S
C870 C869 1.516 . S
C870 C871 1.502 . S
C870 C872 1.561 . S
C870 C873 1.526 . S
C871 H855 0.959 . S
C871 H856 0.959 . S
C871 H857 0.961 . S
C871 C870 1.502 . S
C872 H858 0.960 . S
C872 H859 0.961 . S
C872 H860 0.959 . S
C872 C870 1.561 . S
C873 C870 1.526 . S
C873 C874 1.396 1_556 S
C873 C878 1.390 . S
C874 C868 1.465 . S
C874 C873 1.396 1_554 S
C874 C875 1.399 . S
C875 H861 0.929 . S
C875 C874 1.399 . S
C875 C876 1.385 . S
C876 H862 0.931 . S
C876 C875 1.385 . S
C876 C877 1.389 1_554 S
C877 C876 1.389 1_556 S
C877 C878 1.387 . S
C878 H863 0.930 . S
C878 C873 1.390 . S
C878 C877 1.387 . S
H879 C891 0.930 . S
H880 C893 0.930 . S
H881 C894 0.930 . S
H882 C898 0.959 . S
H883 C898 0.959 . S
H884 C898 0.961 . S
H885 C899 0.960 . S
H886 C899 0.961 . S
H887 C899 0.959 . S
H888 C902 0.929 . S
H889 C903 0.931 . S
H890 C905 0.930 . S
C891 H879 0.930 . S
C891 C892 1.399 . S
C891 C896 1.399 . S
C892 C891 1.399 . S
C892 C893 1.376 . S
C893 H880 0.930 . S
C893 C892 1.376 . S
C893 C894 1.388 . S
C894 H881 0.930 . S
C894 C893 1.388 . S
C894 C895 1.390 . S
C895 C894 1.390 . S
C895 C896 1.394 . S
C895 C901 1.465 . S
C896 C891 1.399 . S
C896 C895 1.394 . S
C896 C897 1.516 . S
C897 C896 1.516 . S
C897 C898 1.502 . S
C897 C899 1.561 . S
C897 C900 1.526 . S
C898 H882 0.959 . S
C898 H883 0.959 . S
C898 H884 0.961 . S
C898 C897 1.502 . S
C899 H885 0.960 . S
C899 H886 0.961 . S
C899 H887 0.959 . S
C899 C897 1.561 . S
C900 C897 1.526 . S
C900 C901 1.396 . S
C900 C905 1.390 . S
C901 C895 1.465 . S
C901 C900 1.396 . S
C901 C902 1.399 . S
C902 H888 0.929 . S
C902 C901 1.399 . S
C902 C903 1.385 . S
C903 H889 0.931 . S
C903 C902 1.385 . S
C903 C904 1.389 . S
C904 C903 1.389 . S
C904 C905 1.387 . S
C905 H890 0.930 . S
C905 C900 1.390 . S
C905 C904 1.387 . S
H906 C918 0.930 . S
H907 C920 0.930 . S
H908 C921 0.930 . S
H909 C925 0.959 1_556 S
H910 C925 0.959 . S
H911 C925 0.961 . S
H912 C926 0.960 . S
H913 C926 0.961 . S
H914 C926 0.959 . S
H915 C929 0.929 . S
H916 C930 0.931 . S
H917 C932 0.930 1_554 S
C918 H906 0.930 . S
C918 C919 1.399 . S
C918 C923 1.399 . S
C919 C918 1.399 . S
C919 C920 1.376 . S
C920 H907 0.930 . S
C920 C919 1.376 . S
C920 C921 1.388 1_554 S
C921 H908 0.930 . S
C921 C920 1.388 1_556 S
C921 C922 1.390 . S
C922 C921 1.390 . S
C922 C923 1.394 1_556 S
C922 C928 1.465 . S
C923 C918 1.399 . S
C923 C922 1.394 1_554 S
C923 C924 1.516 . S
C924 C923 1.516 . S
C924 C925 1.502 . S
C924 C926 1.561 . S
C924 C927 1.526 . S
C925 H909 0.959 1_554 S
C925 H910 0.959 . S
C925 H911 0.961 . S
C925 C924 1.502 . S
C926 H912 0.960 . S
C926 H913 0.961 . S
C926 H914 0.959 . S
C926 C924 1.561 . S
C927 C924 1.526 . S
C927 C928 1.396 1_554 S
C927 C932 1.390 1_554 S
C928 C922 1.465 . S
C928 C927 1.396 1_556 S
C928 C929 1.399 . S
C929 H915 0.929 . S
C929 C928 1.399 . S
C929 C930 1.385 . S
C930 H916 0.931 . S
C930 C929 1.385 . S
C930 C931 1.389 . S
C931 C930 1.389 . S
C931 C932 1.387 . S
C932 H917 0.930 1_556 S
C932 C927 1.390 1_556 S
C932 C931 1.387 . S
H933 C945 0.930 . S
H934 C947 0.930 . S
H935 C948 0.930 . S
H936 C952 0.959 . S
H937 C952 0.959 . S
H938 C952 0.961 . S
H939 C953 0.960 . S
H940 C953 0.961 . S
H941 C953 0.959 . S
H942 C956 0.929 . S
H943 C957 0.931 . S
H944 C959 0.930 . S
C945 H933 0.930 . S
C945 C946 1.399 . S
C945 C950 1.399 . S
C946 C945 1.399 . S
C946 C947 1.376 . S
C947 H934 0.930 . S
C947 C946 1.376 . S
C947 C948 1.388 . S
C948 H935 0.930 . S
C948 C947 1.388 . S
C948 C949 1.390 . S
C949 C948 1.390 . S
C949 C950 1.394 . S
C949 C955 1.465 . S
C950 C945 1.399 . S
C950 C949 1.394 . S
C950 C951 1.516 . S
C951 C950 1.516 . S
C951 C952 1.502 . S
C951 C953 1.561 . S
C951 C954 1.526 . S
C952 H936 0.959 . S
C952 H937 0.959 . S
C952 H938 0.961 . S
C952 C951 1.502 . S
C953 H939 0.960 . S
C953 H940 0.961 . S
C953 H941 0.959 . S
C953 C951 1.561 . S
C954 C951 1.526 . S
C954 C955 1.396 . S
C954 C959 1.390 . S
C955 C949 1.465 . S
C955 C954 1.396 . S
C955 C956 1.399 . S
C956 H942 0.929 . S
C956 C955 1.399 . S
C956 C957 1.385 . S
C957 H943 0.931 . S
C957 C956 1.385 . S
C957 C958 1.389 . S
C958 C957 1.389 . S
C958 C959 1.387 . S
C959 H944 0.930 . S
C959 C954 1.390 . S
C959 C958 1.387 . S
H960 C972 0.930 . S
H961 C974 0.930 . S
H962 C975 0.930 . S
H963 C979 0.959 . S
H964 C979 0.959 . S
H965 C979 0.961 . S
H966 C980 0.960 . S
H967 C980 0.961 . S
H968 C980 0.959 . S
H969 C983 0.929 . S
H970 C984 0.931 . S
H971 C986 0.930 . S
C972 H960 0.930 . S
C972 C973 1.399 . S
C972 C977 1.399 . S
C973 C972 1.399 . S
C973 C974 1.376 . S
C974 H961 0.930 . S
C974 C973 1.376 . S
C974 C975 1.388 . S
C975 H962 0.930 . S
C975 C974 1.388 . S
C975 C976 1.390 . S
C976 C975 1.390 . S
C976 C977 1.394 . S
C976 C982 1.465 . S
C977 C972 1.399 . S
C977 C976 1.394 . S
C977 C978 1.516 . S
C978 C977 1.516 . S
C978 C979 1.502 1_455 S
C978 C980 1.561 . S
C978 C981 1.526 . S
C979 H963 0.959 . S
C979 H964 0.959 . S
C979 H965 0.961 . S
C979 C978 1.502 1_655 S
C980 H966 0.960 . S
C980 H967 0.961 . S
C980 H968 0.959 . S
C980 C978 1.561 . S
C981 C978 1.526 . S
C981 C982 1.396 . S
C981 C986 1.390 . S
C982 C976 1.465 . S
C982 C981 1.396 . S
C982 C983 1.399 . S
C983 H969 0.929 . S
C983 C982 1.399 . S
C983 C984 1.385 . S
C984 H970 0.931 . S
C984 C983 1.385 . S
C984 C985 1.389 . S
C985 C984 1.389 . S
C985 C986 1.387 . S
C986 H971 0.930 . S
C986 C981 1.390 . S
C986 C985 1.387 . S
H987 C999 0.930 1_565 S
H988 C1001 0.930 . S
H989 C1002 0.930 . S
H990 C1006 0.959 . S
H991 C1006 0.959 . S
H992 C1006 0.961 . S
H993 C1007 0.960 . S
H994 C1007 0.961 . S
H995 C1007 0.959 . S
H996 C1010 0.929 . S
H997 C1011 0.931 . S
H998 C1013 0.930 1_565 S
C999 H987 0.930 1_545 S
C999 C1000 1.399 . S
C999 C1004 1.399 . S
C1000 C999 1.399 . S
C1000 C1001 1.376 . S
C1001 H988 0.930 . S
C1001 C1000 1.376 . S
C1001 C1002 1.388 . S
C1002 H989 0.930 . S
C1002 C1001 1.388 . S
C1002 C1003 1.390 . S
C1003 C1002 1.390 . S
C1003 C1004 1.394 . S
C1003 C1009 1.465 . S
C1004 C999 1.399 . S
C1004 C1003 1.394 . S
C1004 C1005 1.516 1_545 S
C1005 C1004 1.516 1_565 S
C1005 C1006 1.502 . S
C1005 C1007 1.561 . S
C1005 C1008 1.526 1_565 S
C1006 H990 0.959 . S
C1006 H991 0.959 . S
C1006 H992 0.961 . S
C1006 C1005 1.502 . S
C1007 H993 0.960 . S
C1007 H994 0.961 . S
C1007 H995 0.959 . S
C1007 C1005 1.561 . S
C1008 C1005 1.526 1_545 S
C1008 C1009 1.396 . S
C1008 C1013 1.390 . S
C1009 C1003 1.465 . S
C1009 C1008 1.396 . S
C1009 C1010 1.399 . S
C1010 H996 0.929 . S
C1010 C1009 1.399 . S
C1010 C1011 1.385 . S
C1011 H997 0.931 . S
C1011 C1010 1.385 . S
C1011 C1012 1.389 . S
C1012 C1011 1.389 . S
C1012 C1013 1.387 . S
C1013 H998 0.930 1_545 S
C1013 C1008 1.390 . S
C1013 C1012 1.387 . S
H1014 C1026 0.930 . S
H1015 C1028 0.930 . S
H1016 C1029 0.930 . S
H1017 C1033 0.959 . S
H1018 C1033 0.959 . S
H1019 C1033 0.961 . S
H1020 C1034 0.960 . S
H1021 C1034 0.961 . S
H1022 C1034 0.959 . S
H1023 C1037 0.929 . S
H1024 C1038 0.931 . S
H1025 C1040 0.930 . S
C1026 H1014 0.930 . S
C1026 C1027 1.399 . S
C1026 C1031 1.399 . S
C1027 C1026 1.399 . S
C1027 C1028 1.376 . S
C1028 H1015 0.930 . S
C1028 C1027 1.376 . S
C1028 C1029 1.388 . S
C1029 H1016 0.930 . S
C1029 C1028 1.388 . S
C1029 C1030 1.390 . S
C1030 C1029 1.390 . S
C1030 C1031 1.394 . S
C1030 C1036 1.465 . S
C1031 C1026 1.399 . S
C1031 C1030 1.394 . S
C1031 C1032 1.516 . S
C1032 C1031 1.516 . S
C1032 C1033 1.502 . S
C1032 C1034 1.561 . S
C1032 C1035 1.526 . S
C1033 H1017 0.959 . S
C1033 H1018 0.959 . S
C1033 H1019 0.961 . S
C1033 C1032 1.502 . S
C1034 H1020 0.960 . S
C1034 H1021 0.961 . S
C1034 H1022 0.959 . S
C1034 C1032 1.561 . S
C1035 C1032 1.526 . S
C1035 C1036 1.396 . S
C1035 C1040 1.390 . S
C1036 C1030 1.465 . S
C1036 C1035 1.396 . S
C1036 C1037 1.399 . S
C1037 H1023 0.929 . S
C1037 C1036 1.399 . S
C1037 C1038 1.385 . S
C1038 H1024 0.931 . S
C1038 C1037 1.385 . S
C1038 C1039 1.389 . S
C1039 C1038 1.389 . S
C1039 C1040 1.387 . S
C1040 H1025 0.930 . S
C1040 C1035 1.390 . S
C1040 C1039 1.387 . S
H1041 C1053 0.930 . S
H1042 C1055 0.930 . S
H1043 C1056 0.930 . S
H1044 C1060 0.959 . S
H1045 C1060 0.959 . S
H1046 C1060 0.961 . S
H1047 C1061 0.960 . S
H1048 C1061 0.961 . S
H1049 C1061 0.959 . S
H1050 C1064 0.929 . S
H1051 C1065 0.931 . S
H1052 C1067 0.930 . S
C1053 H1041 0.930 . S
C1053 C1054 1.399 . S
C1053 C1058 1.399 . S
C1054 C1053 1.399 . S
C1054 C1055 1.376 . S
C1055 H1042 0.930 . S
C1055 C1054 1.376 . S
C1055 C1056 1.388 . S
C1056 H1043 0.930 . S
C1056 C1055 1.388 . S
C1056 C1057 1.390 . S
C1057 C1056 1.390 . S
C1057 C1058 1.394 . S
C1057 C1063 1.465 . S
C1058 C1053 1.399 . S
C1058 C1057 1.394 . S
C1058 C1059 1.516 . S
C1059 C1058 1.516 . S
C1059 C1060 1.502 . S
C1059 C1061 1.561 . S
C1059 C1062 1.526 . S
C1060 H1044 0.959 . S
C1060 H1045 0.959 . S
C1060 H1046 0.961 . S
C1060 C1059 1.502 . S
C1061 H1047 0.960 . S
C1061 H1048 0.961 . S
C1061 H1049 0.959 . S
C1061 C1059 1.561 . S
C1062 C1059 1.526 . S
C1062 C1063 1.396 . S
C1062 C1067 1.390 . S
C1063 C1057 1.465 . S
C1063 C1062 1.396 . S
C1063 C1064 1.399 . S
C1064 H1050 0.929 . S
C1064 C1063 1.399 . S
C1064 C1065 1.385 . S
C1065 H1051 0.931 . S
C1065 C1064 1.385 . S
C1065 C1066 1.389 . S
C1066 C1065 1.389 . S
C1066 C1067 1.387 . S
C1067 H1052 0.930 . S
C1067 C1062 1.390 . S
C1067 C1066 1.387 . S
H1068 C1080 0.930 . S
H1069 C1082 0.930 . S
H1070 C1083 0.930 . S
H1071 C1087 0.959 . S
H1072 C1087 0.959 . S
H1073 C1087 0.961 . S
H1074 C1088 0.960 . S
H1075 C1088 0.961 . S
H1076 C1088 0.959 . S
H1077 C1091 0.929 . S
H1078 C1092 0.931 . S
H1079 C1094 0.930 . S
C1080 H1068 0.930 . S
C1080 C1081 1.399 . S
C1080 C1085 1.399 . S
C1081 C1080 1.399 . S
C1081 C1082 1.376 1_655 S
C1082 H1069 0.930 . S
C1082 C1081 1.376 1_455 S
C1082 C1083 1.388 . S
C1083 H1070 0.930 . S
C1083 C1082 1.388 . S
C1083 C1084 1.390 1_455 S
C1084 C1083 1.390 1_655 S
C1084 C1085 1.394 . S
C1084 C1090 1.465 . S
C1085 C1080 1.399 . S
C1085 C1084 1.394 . S
C1085 C1086 1.516 . S
C1086 C1085 1.516 . S
C1086 C1087 1.502 . S
C1086 C1088 1.561 . S
C1086 C1089 1.526 . S
C1087 H1071 0.959 . S
C1087 H1072 0.959 . S
C1087 H1073 0.961 . S
C1087 C1086 1.502 . S
C1088 H1074 0.960 . S
C1088 H1075 0.961 . S
C1088 H1076 0.959 . S
C1088 C1086 1.561 . S
C1089 C1086 1.526 . S
C1089 C1090 1.396 . S
C1089 C1094 1.390 . S
C1090 C1084 1.465 . S
C1090 C1089 1.396 . S
C1090 C1091 1.399 1_655 S
C1091 H1077 0.929 . S
C1091 C1090 1.399 1_455 S
C1091 C1092 1.385 . S
C1092 H1078 0.931 . S
C1092 C1091 1.385 . S
C1092 C1093 1.389 1_455 S
C1093 C1092 1.389 1_655 S
C1093 C1094 1.387 . S
C1094 H1079 0.930 . S
C1094 C1089 1.390 . S
C1094 C1093 1.387 . S
H1095 C1107 0.930 . S
H1096 C1109 0.930 . S
H1097 C1110 0.930 . S
H1098 C1114 0.959 . S
H1099 C1114 0.959 . S
H1100 C1114 0.961 . S
H1101 C1115 0.960 . S
H1102 C1115 0.961 . S
H1103 C1115 0.959 . S
H1104 C1118 0.929 . S
H1105 C1119 0.931 . S
H1106 C1121 0.930 . S
C1107 H1095 0.930 . S
C1107 C1108 1.399 . S
C1107 C1112 1.399 . S
C1108 C1107 1.399 . S
C1108 C1109 1.376 1_565 S
C1109 H1096 0.930 . S
C1109 C1108 1.376 1_545 S
C1109 C1110 1.388 . S
C1110 H1097 0.930 . S
C1110 C1109 1.388 . S
C1110 C1111 1.390 1_545 S
C1111 C1110 1.390 1_565 S
C1111 C1112 1.394 . S
C1111 C1117 1.465 . S
C1112 C1107 1.399 . S
C1112 C1111 1.394 . S
C1112 C1113 1.516 . S
C1113 C1112 1.516 . S
C1113 C1114 1.502 . S
C1113 C1115 1.561 . S
C1113 C1116 1.526 . S
C1114 H1098 0.959 . S
C1114 H1099 0.959 . S
C1114 H1100 0.961 . S
C1114 C1113 1.502 . S
C1115 H1101 0.960 . S
C1115 H1102 0.961 . S
C1115 H1103 0.959 . S
C1115 C1113 1.561 . S
C1116 C1113 1.526 . S
C1116 C1117 1.396 . S
C1116 C1121 1.390 . S
C1117 C1111 1.465 . S
C1117 C1116 1.396 . S
C1117 C1118 1.399 1_565 S
C1118 H1104 0.929 . S
C1118 C1117 1.399 1_545 S
C1118 C1119 1.385 . S
C1119 H1105 0.931 . S
C1119 C1118 1.385 . S
C1119 C1120 1.389 1_545 S
C1120 C1119 1.389 1_565 S
C1120 C1121 1.387 . S
C1121 H1106 0.930 . S
C1121 C1116 1.390 . S
C1121 C1120 1.387 . S
H1122 C1134 0.930 . S
H1123 C1136 0.930 . S
H1124 C1137 0.930 . S
H1125 C1141 0.959 . S
H1126 C1141 0.959 . S
H1127 C1141 0.961 . S
H1128 C1142 0.960 . S
H1129 C1142 0.961 . S
H1130 C1142 0.959 . S
H1131 C1145 0.929 . S
H1132 C1146 0.931 . S
H1133 C1148 0.930 . S
C1134 H1122 0.930 . S
C1134 C1135 1.399 . S
C1134 C1139 1.399 . S
C1135 C1134 1.399 . S
C1135 C1136 1.376 . S
C1136 H1123 0.930 . S
C1136 C1135 1.376 . S
C1136 C1137 1.388 . S
C1137 H1124 0.930 . S
C1137 C1136 1.388 . S
C1137 C1138 1.390 . S
C1138 C1137 1.390 . S
C1138 C1139 1.394 . S
C1138 C1144 1.465 . S
C1139 C1134 1.399 . S
C1139 C1138 1.394 . S
C1139 C1140 1.516 . S
C1140 C1139 1.516 . S
C1140 C1141 1.502 . S
C1140 C1142 1.561 . S
C1140 C1143 1.526 . S
C1141 H1125 0.959 . S
C1141 H1126 0.959 . S
C1141 H1127 0.961 . S
C1141 C1140 1.502 . S
C1142 H1128 0.960 . S
C1142 H1129 0.961 . S
C1142 H1130 0.959 . S
C1142 C1140 1.561 . S
C1143 C1140 1.526 . S
C1143 C1144 1.396 . S
C1143 C1148 1.390 . S
C1144 C1138 1.465 . S
C1144 C1143 1.396 . S
C1144 C1145 1.399 . S
C1145 H1131 0.929 . S
C1145 C1144 1.399 . S
C1145 C1146 1.385 . S
C1146 H1132 0.931 . S
C1146 C1145 1.385 . S
C1146 C1147 1.389 . S
C1147 C1146 1.389 . S
C1147 C1148 1.387 . S
C1148 H1133 0.930 . S
C1148 C1143 1.390 . S
C1148 C1147 1.387 . S
H1149 C1161 0.930 . S
H1150 C1163 0.930 . S
H1151 C1164 0.930 . S
H1152 C1168 0.959 . S
H1153 C1168 0.959 . S
H1154 C1168 0.961 . S
H1155 C1169 0.960 . S
H1156 C1169 0.961 . S
H1157 C1169 0.959 . S
H1158 C1172 0.929 . S
H1159 C1173 0.931 . S
H1160 C1175 0.930 . S
C1161 H1149 0.930 . S
C1161 C1162 1.399 . S
C1161 C1166 1.399 . S
C1162 C1161 1.399 . S
C1162 C1163 1.376 . S
C1163 H1150 0.930 . S
C1163 C1162 1.376 . S
C1163 C1164 1.388 . S
C1164 H1151 0.930 . S
C1164 C1163 1.388 . S
C1164 C1165 1.390 . S
C1165 C1164 1.390 . S
C1165 C1166 1.394 . S
C1165 C1171 1.465 . S
C1166 C1161 1.399 . S
C1166 C1165 1.394 . S
C1166 C1167 1.516 . S
C1167 C1166 1.516 . S
C1167 C1168 1.502 . S
C1167 C1169 1.561 . S
C1167 C1170 1.526 . S
C1168 H1152 0.959 . S
C1168 H1153 0.959 . S
C1168 H1154 0.961 . S
C1168 C1167 1.502 . S
C1169 H1155 0.960 . S
C1169 H1156 0.961 . S
C1169 H1157 0.959 . S
C1169 C1167 1.561 . S
C1170 C1167 1.526 . S
C1170 C1171 1.396 . S
C1170 C1175 1.390 . S
C1171 C1165 1.465 . S
C1171 C1170 1.396 . S
C1171 C1172 1.399 . S
C1172 H1158 0.929 . S
C1172 C1171 1.399 . S
C1172 C1173 1.385 . S
C1173 H1159 0.931 . S
C1173 C1172 1.385 . S
C1173 C1174 1.389 . S
C1174 C1173 1.389 . S
C1174 C1175 1.387 . S
C1175 H1160 0.930 . S
C1175 C1170 1.390 . S
C1175 C1174 1.387 . S
H1176 C1188 0.930 . S
H1177 C1190 0.930 . S
H1178 C1191 0.930 . S
H1179 C1195 0.959 . S
H1180 C1195 0.959 . S
H1181 C1195 0.961 . S
H1182 C1196 0.960 . S
H1183 C1196 0.961 . S
H1184 C1196 0.959 . S
H1185 C1199 0.929 . S
H1186 C1200 0.931 . S
H1187 C1202 0.930 . S
C1188 H1176 0.930 . S
C1188 C1189 1.399 . S
C1188 C1193 1.399 . S
C1189 C1188 1.399 . S
C1189 C1190 1.376 . S
C1190 H1177 0.930 . S
C1190 C1189 1.376 . S
C1190 C1191 1.388 . S
C1191 H1178 0.930 . S
C1191 C1190 1.388 . S
C1191 C1192 1.390 . S
C1192 C1191 1.390 . S
C1192 C1193 1.394 . S
C1192 C1198 1.465 . S
C1193 C1188 1.399 . S
C1193 C1192 1.394 . S
C1193 C1194 1.516 . S
C1194 C1193 1.516 . S
C1194 C1195 1.502 1_455 S
C1194 C1196 1.561 . S
C1194 C1197 1.526 . S
C1195 H1179 0.959 . S
C1195 H1180 0.959 . S
C1195 H1181 0.961 . S
C1195 C1194 1.502 1_655 S
C1196 H1182 0.960 . S
C1196 H1183 0.961 . S
C1196 H1184 0.959 . S
C1196 C1194 1.561 . S
C1197 C1194 1.526 . S
C1197 C1198 1.396 . S
C1197 C1202 1.390 . S
C1198 C1192 1.465 . S
C1198 C1197 1.396 . S
C1198 C1199 1.399 . S
C1199 H1185 0.929 . S
C1199 C1198 1.399 . S
C1199 C1200 1.385 . S
C1200 H1186 0.931 . S
C1200 C1199 1.385 . S
C1200 C1201 1.389 . S
C1201 C1200 1.389 . S
C1201 C1202 1.387 . S
C1202 H1187 0.930 . S
C1202 C1197 1.390 . S
C1202 C1201 1.387 . S
H1203 C1215 0.930 . S
H1204 C1217 0.930 . S
H1205 C1218 0.930 . S
H1206 C1222 0.959 . S
H1207 C1222 0.959 . S
H1208 C1222 0.961 . S
H1209 C1223 0.960 . S
H1210 C1223 0.961 . S
H1211 C1223 0.959 . S
H1212 C1226 0.902 1_565 S
H1213 C1227 0.935 . S
H1214 C1229 0.930 . S
C1215 H1203 0.930 . S
C1215 C1216 1.399 . S
C1215 C1220 1.399 1_556 S
C1216 C1215 1.399 . S
C1216 C1217 1.376 . S
C1217 H1204 0.930 . S
C1217 C1216 1.376 . S
C1217 C1218 1.388 1_556 S
C1218 H1205 0.930 . S
C1218 C1217 1.388 1_554 S
C1218 C1219 1.390 . S
C1219 C1218 1.390 . S
C1219 C1220 1.394 . S
C1219 C1225 1.465 . S
C1220 C1215 1.399 1_554 S
C1220 C1219 1.394 . S
C1220 C1221 1.516 . S
C1221 C1220 1.516 . S
C1221 C1222 1.502 . S
C1221 C1223 1.561 . S
C1221 C1224 1.526 . S
C1222 H1206 0.959 . S
C1222 H1207 0.959 . S
C1222 H1208 0.961 . S
C1222 C1221 1.502 . S
C1223 H1209 0.960 . S
C1223 H1210 0.961 . S
C1223 H1211 0.959 . S
C1223 C1221 1.561 . S
C1224 C1221 1.526 . S
C1224 C1225 1.396 . S
C1224 C1229 1.390 . S
C1225 C1219 1.465 . S
C1225 C1224 1.396 . S
C1225 C1226 1.399 . S
C1226 H1212 0.902 1_545 S
C1226 C1225 1.399 . S
C1226 C1227 1.385 . S
C1227 H1213 0.935 . S
C1227 C1226 1.385 . S
C1227 C1228 1.389 . S
C1228 C1227 1.389 . S
C1228 C1229 1.387 . S
C1229 H1214 0.930 . S
C1229 C1224 1.390 . S
C1229 C1228 1.387 . S
H1230 C1242 0.930 . S
H1231 C1244 0.930 . S
H1232 C1245 0.930 . S
H1233 C1249 0.959 . S
H1234 C1249 0.959 . S
H1235 C1249 0.961 . S
H1236 C1250 0.960 . S
H1237 C1250 0.961 . S
H1238 C1250 0.959 . S
H1239 C1253 0.929 . S
H1240 C1254 0.931 . S
H1241 C1256 0.930 . S
C1242 H1230 0.930 . S
C1242 C1243 1.399 . S
C1242 C1247 1.399 . S
C1243 C1242 1.399 . S
C1243 C1244 1.376 . S
C1244 H1231 0.930 . S
C1244 C1243 1.376 . S
C1244 C1245 1.388 . S
C1245 H1232 0.930 . S
C1245 C1244 1.388 . S
C1245 C1246 1.390 . S
C1246 C1245 1.390 . S
C1246 C1247 1.394 . S
C1246 C1252 1.465 . S
C1247 C1242 1.399 . S
C1247 C1246 1.394 . S
C1247 C1248 1.516 . S
C1248 C1247 1.516 . S
C1248 C1249 1.502 . S
C1248 C1250 1.561 . S
C1248 C1251 1.526 . S
C1249 H1233 0.959 . S
C1249 H1234 0.959 . S
C1249 H1235 0.961 . S
C1249 C1248 1.502 . S
C1250 H1236 0.960 . S
C1250 H1237 0.961 . S
C1250 H1238 0.959 . S
C1250 C1248 1.561 . S
C1251 C1248 1.526 . S
C1251 C1252 1.396 . S
C1251 C1256 1.390 . S
C1252 C1246 1.465 . S
C1252 C1251 1.396 . S
C1252 C1253 1.399 . S
C1253 H1239 0.929 . S
C1253 C1252 1.399 . S
C1253 C1254 1.385 . S
C1254 H1240 0.931 . S
C1254 C1253 1.385 . S
C1254 C1255 1.389 . S
C1255 C1254 1.389 . S
C1255 C1256 1.387 . S
C1256 H1241 0.930 . S
C1256 C1251 1.390 . S
C1256 C1255 1.387 . S
H1257 C1269 0.930 . S
H1258 C1271 0.930 . S
H1259 C1272 0.930 . S
H1260 C1276 0.959 . S
H1261 C1276 0.959 . S
H1262 C1276 0.961 . S
H1263 C1277 0.960 . S
H1264 C1277 0.961 . S
H1265 C1277 0.959 . S
H1266 C1280 0.929 . S
H1267 C1281 0.931 . S
H1268 C1283 0.930 . S
C1269 H1257 0.930 . S
C1269 C1270 1.399 . S
C1269 C1274 1.399 1_556 S
C1270 C1269 1.399 . S
C1270 C1271 1.376 . S
C1271 H1258 0.930 . S
C1271 C1270 1.376 . S
C1271 C1272 1.388 1_556 S
C1272 H1259 0.930 . S
C1272 C1271 1.388 1_554 S
C1272 C1273 1.390 . S
C1273 C1272 1.390 . S
C1273 C1274 1.394 . S
C1273 C1279 1.465 . S
C1274 C1269 1.399 1_554 S
C1274 C1273 1.394 . S
C1274 C1275 1.516 . S
C1275 C1274 1.516 . S
C1275 C1276 1.502 . S
C1275 C1277 1.561 . S
C1275 C1278 1.526 . S
C1276 H1260 0.959 . S
C1276 H1261 0.959 . S
C1276 H1262 0.961 . S
C1276 C1275 1.502 . S
C1277 H1263 0.960 . S
C1277 H1264 0.961 . S
C1277 H1265 0.959 . S
C1277 C1275 1.561 . S
C1278 C1275 1.526 . S
C1278 C1279 1.396 . S
C1278 C1283 1.390 . S
C1279 C1273 1.465 . S
C1279 C1278 1.396 . S
C1279 C1280 1.399 . S
C1280 H1266 0.929 . S
C1280 C1279 1.399 . S
C1280 C1281 1.385 . S
C1281 H1267 0.931 . S
C1281 C1280 1.385 . S
C1281 C1282 1.389 . S
C1282 C1281 1.389 . S
C1282 C1283 1.387 . S
C1283 H1268 0.930 . S
C1283 C1278 1.390 . S
C1283 C1282 1.387 . S
H1284 C1296 0.930 . S
H1285 C1298 0.930 . S
H1286 C1299 0.930 . S
H1287 C1303 0.959 . S
H1288 C1303 0.959 . S
H1289 C1303 0.961 . S
H1290 C1304 0.960 . S
H1291 C1304 0.961 . S
H1292 C1304 0.959 . S
H1293 C1307 0.929 . S
H1294 C1308 0.931 . S
H1295 C1310 0.930 . S
C1296 H1284 0.930 . S
C1296 C1297 1.399 . S
C1296 C1301 1.399 . S
C1297 C1296 1.399 . S
C1297 C1298 1.376 . S
C1298 H1285 0.930 . S
C1298 C1297 1.376 . S
C1298 C1299 1.388 . S
C1299 H1286 0.930 . S
C1299 C1298 1.388 . S
C1299 C1300 1.390 . S
C1300 C1299 1.390 . S
C1300 C1301 1.394 . S
C1300 C1306 1.465 . S
C1301 C1296 1.399 . S
C1301 C1300 1.394 . S
C1301 C1302 1.516 . S
C1302 C1301 1.516 . S
C1302 C1303 1.502 . S
C1302 C1304 1.561 . S
C1302 C1305 1.526 . S
C1303 H1287 0.959 . S
C1303 H1288 0.959 . S
C1303 H1289 0.961 . S
C1303 C1302 1.502 . S
C1304 H1290 0.960 . S
C1304 H1291 0.961 . S
C1304 H1292 0.959 . S
C1304 C1302 1.561 . S
C1305 C1302 1.526 . S
C1305 C1306 1.396 . S
C1305 C1310 1.390 1_556 S
C1306 C1300 1.465 . S
C1306 C1305 1.396 . S
C1306 C1307 1.399 . S
C1307 H1293 0.929 . S
C1307 C1306 1.399 . S
C1307 C1308 1.385 1_556 S
C1308 H1294 0.931 . S
C1308 C1307 1.385 1_554 S
C1308 C1309 1.389 . S
C1309 C1308 1.389 . S
C1309 C1310 1.387 . S
C1310 H1295 0.930 . S
C1310 C1305 1.390 1_554 S
C1310 C1309 1.387 . S
H1311 C1323 0.930 . S
H1312 C1325 0.930 1_565 S
H1313 C1326 0.927 1_565 S
H1314 C1330 0.959 . S
H1315 C1330 0.959 . S
H1316 C1330 0.961 . S
H1317 C1331 0.960 . S
H1318 C1331 0.961 . S
H1319 C1331 0.959 . S
H1320 C1334 0.929 1_565 S
H1321 C1335 0.931 1_565 S
H1322 C1337 0.930 . S
C1323 H1311 0.930 . S
C1323 C1324 1.399 . S
C1323 C1328 1.399 . S
C1324 C1323 1.399 . S
C1324 C1325 1.376 . S
C1325 H1312 0.930 1_545 S
C1325 C1324 1.376 . S
C1325 C1326 1.389 . S
C1326 H1313 0.927 1_545 S
C1326 C1325 1.389 . S
C1326 C1327 1.393 . S
C1327 C1326 1.393 . S
C1327 C1328 1.394 . S
C1327 C1333 1.465 . S
C1328 C1323 1.399 . S
C1328 C1327 1.394 . S
C1328 C1329 1.516 . S
C1329 C1328 1.516 . S
C1329 C1330 1.502 . S
C1329 C1331 1.561 . S
C1329 C1332 1.526 . S
C1330 H1314 0.959 . S
C1330 H1315 0.959 . S
C1330 H1316 0.961 . S
C1330 C1329 1.502 . S
C1331 H1317 0.960 . S
C1331 H1318 0.961 . S
C1331 H1319 0.959 . S
C1331 C1329 1.561 . S
C1332 C1329 1.526 . S
C1332 C1333 1.396 . S
C1332 C1337 1.390 . S
C1333 C1327 1.465 . S
C1333 C1332 1.396 . S
C1333 C1334 1.399 . S
C1334 H1320 0.929 1_545 S
C1334 C1333 1.399 . S
C1334 C1335 1.385 . S
C1335 H1321 0.931 1_545 S
C1335 C1334 1.385 . S
C1335 C1336 1.389 . S
C1336 C1335 1.389 . S
C1336 C1337 1.387 . S
C1337 H1322 0.930 . S
C1337 C1332 1.390 . S
C1337 C1336 1.387 . S
H1338 C1350 0.930 . S
H1339 C1352 0.930 . S
H1340 C1353 0.930 . S
H1341 C1357 0.959 . S
H1342 C1357 0.959 . S
H1343 C1357 0.961 . S
H1344 C1358 0.960 . S
H1345 C1358 0.961 . S
H1346 C1358 0.959 . S
H1347 C1361 0.929 . S
H1348 C1362 0.931 . S
H1349 C1364 0.930 . S
C1350 H1338 0.930 . S
C1350 C1351 1.399 . S
C1350 C1355 1.399 . S
C1351 C1350 1.399 . S
C1351 C1352 1.376 . S
C1352 H1339 0.930 . S
C1352 C1351 1.376 . S
C1352 C1353 1.388 . S
C1353 H1340 0.930 . S
C1353 C1352 1.388 . S
C1353 C1354 1.390 . S
C1354 C1353 1.390 . S
C1354 C1355 1.394 . S
C1354 C1360 1.465 . S
C1355 C1350 1.399 . S
C1355 C1354 1.394 . S
C1355 C1356 1.516 . S
C1356 C1355 1.516 . S
C1356 C1357 1.502 . S
C1356 C1358 1.561 . S
C1356 C1359 1.526 . S
C1357 H1341 0.959 . S
C1357 H1342 0.959 . S
C1357 H1343 0.961 . S
C1357 C1356 1.502 . S
C1358 H1344 0.960 . S
C1358 H1345 0.961 . S
C1358 H1346 0.959 . S
C1358 C1356 1.561 . S
C1359 C1356 1.526 . S
C1359 C1360 1.396 . S
C1359 C1364 1.390 1_556 S
C1360 C1354 1.465 . S
C1360 C1359 1.396 . S
C1360 C1361 1.399 . S
C1361 H1347 0.929 . S
C1361 C1360 1.399 . S
C1361 C1362 1.385 1_556 S
C1362 H1348 0.931 . S
C1362 C1361 1.385 1_554 S
C1362 C1363 1.389 . S
C1363 C1362 1.389 . S
C1363 C1364 1.387 . S
C1364 H1349 0.930 . S
C1364 C1359 1.390 1_554 S
C1364 C1363 1.387 . S
H1365 C1377 0.930 . S
H1366 C1379 0.930 . S
H1367 C1380 0.930 . S
H1368 C1384 0.959 . S
H1369 C1384 0.959 . S
H1370 C1384 0.961 . S
H1371 C1385 0.960 . S
H1372 C1385 0.961 . S
H1373 C1385 0.959 . S
H1374 C1388 0.929 . S
H1375 C1389 0.931 . S
H1376 C1391 0.930 . S
C1377 H1365 0.930 . S
C1377 C1378 1.399 . S
C1377 C1382 1.399 . S
C1378 C1377 1.399 . S
C1378 C1379 1.376 . S
C1379 H1366 0.930 . S
C1379 C1378 1.376 . S
C1379 C1380 1.388 . S
C1380 H1367 0.930 . S
C1380 C1379 1.388 . S
C1380 C1381 1.390 . S
C1381 C1380 1.390 . S
C1381 C1382 1.394 . S
C1381 C1387 1.465 . S
C1382 C1377 1.399 . S
C1382 C1381 1.394 . S
C1382 C1383 1.516 . S
C1383 C1382 1.516 . S
C1383 C1384 1.502 . S
C1383 C1385 1.561 . S
C1383 C1386 1.526 . S
C1384 H1368 0.959 . S
C1384 H1369 0.959 . S
C1384 H1370 0.961 . S
C1384 C1383 1.502 . S
C1385 H1371 0.960 . S
C1385 H1372 0.961 . S
C1385 H1373 0.959 . S
C1385 C1383 1.561 . S
C1386 C1383 1.526 . S
C1386 C1387 1.396 . S
C1386 C1391 1.390 . S
C1387 C1381 1.465 . S
C1387 C1386 1.396 . S
C1387 C1388 1.399 . S
C1388 H1374 0.929 . S
C1388 C1387 1.399 . S
C1388 C1389 1.385 . S
C1389 H1375 0.931 . S
C1389 C1388 1.385 . S
C1389 C1390 1.389 . S
C1390 C1389 1.389 . S
C1390 C1391 1.387 . S
C1391 H1376 0.930 . S
C1391 C1386 1.390 . S
C1391 C1390 1.387 . S
H1392 C1404 0.930 . S
H1393 C1406 0.930 . S
H1394 C1407 0.930 . S
H1395 C1411 0.959 . S
H1396 C1411 0.959 . S
H1397 C1411 0.961 . S
H1398 C1412 0.960 . S
H1399 C1412 0.961 . S
H1400 C1412 0.959 . S
H1401 C1415 0.929 . S
H1402 C1416 0.931 . S
H1403 C1418 0.930 . S
C1404 H1392 0.930 . S
C1404 C1405 1.399 . S
C1404 C1409 1.399 . S
C1405 C1404 1.399 . S
C1405 C1406 1.376 . S
C1406 H1393 0.930 . S
C1406 C1405 1.376 . S
C1406 C1407 1.388 . S
C1407 H1394 0.930 . S
C1407 C1406 1.388 . S
C1407 C1408 1.390 . S
C1408 C1407 1.390 . S
C1408 C1409 1.394 . S
C1408 C1414 1.465 . S
C1409 C1404 1.399 . S
C1409 C1408 1.394 . S
C1409 C1410 1.516 . S
C1410 C1409 1.516 . S
C1410 C1411 1.502 . S
C1410 C1412 1.561 . S
C1410 C1413 1.526 . S
C1411 H1395 0.959 . S
C1411 H1396 0.959 . S
C1411 H1397 0.961 . S
C1411 C1410 1.502 . S
C1412 H1398 0.960 . S
C1412 H1399 0.961 . S
C1412 H1400 0.959 . S
C1412 C1410 1.561 . S
C1413 C1410 1.526 . S
C1413 C1414 1.396 . S
C1413 C1418 1.390 . S
C1414 C1408 1.465 . S
C1414 C1413 1.396 . S
C1414 C1415 1.399 . S
C1415 H1401 0.929 . S
C1415 C1414 1.399 . S
C1415 C1416 1.385 . S
C1416 H1402 0.931 . S
C1416 C1415 1.385 . S
C1416 C1417 1.389 . S
C1417 C1416 1.389 . S
C1417 C1418 1.387 . S
C1418 H1403 0.930 . S
C1418 C1413 1.390 . S
C1418 C1417 1.387 . S
H1419 C1431 0.930 . S
H1420 C1433 0.930 . S
H1421 C1434 0.930 . S
H1422 C1438 0.959 . S
H1423 C1438 0.959 . S
H1424 C1438 0.961 . S
H1425 C1439 0.960 . S
H1426 C1439 0.961 . S
H1427 C1439 0.959 . S
H1428 C1442 0.929 . S
H1429 C1443 0.931 . S
H1430 C1445 0.930 . S
C1431 H1419 0.930 . S
C1431 C1432 1.399 . S
C1431 C1436 1.399 1_554 S
C1432 C1431 1.399 . S
C1432 C1433 1.376 . S
C1433 H1420 0.930 . S
C1433 C1432 1.376 . S
C1433 C1434 1.388 1_554 S
C1434 H1421 0.930 . S
C1434 C1433 1.388 1_556 S
C1434 C1435 1.390 . S
C1435 C1434 1.390 . S
C1435 C1436 1.394 . S
C1435 C1441 1.465 . S
C1436 C1431 1.399 1_556 S
C1436 C1435 1.394 . S
C1436 C1437 1.516 . S
C1437 C1436 1.516 . S
C1437 C1438 1.502 . S
C1437 C1439 1.561 . S
C1437 C1440 1.526 . S
C1438 H1422 0.959 . S
C1438 H1423 0.959 . S
C1438 H1424 0.961 . S
C1438 C1437 1.502 . S
C1439 H1425 0.960 . S
C1439 H1426 0.961 . S
C1439 H1427 0.959 . S
C1439 C1437 1.561 . S
C1440 C1437 1.526 . S
C1440 C1441 1.396 . S
C1440 C1445 1.390 . S
C1441 C1435 1.465 . S
C1441 C1440 1.396 . S
C1441 C1442 1.399 . S
C1442 H1428 0.929 . S
C1442 C1441 1.399 . S
C1442 C1443 1.385 . S
C1443 H1429 0.931 . S
C1443 C1442 1.385 . S
C1443 C1444 1.389 . S
C1444 C1443 1.389 . S
C1444 C1445 1.387 . S
C1445 H1430 0.930 . S
C1445 C1440 1.390 . S
C1445 C1444 1.387 . S
H1446 C1458 0.930 . S
H1447 C1460 0.930 . S
H1448 C1461 0.930 . S
H1449 C1465 0.959 . S
H1450 C1465 0.959 . S
H1451 C1465 0.961 . S
H1452 C1466 0.960 . S
H1453 C1466 0.961 . S
H1454 C1466 0.959 . S
H1455 C1469 0.929 . S
H1456 C1470 0.931 . S
H1457 C1472 0.930 . S
C1458 H1446 0.930 . S
C1458 C1459 1.399 . S
C1458 C1463 1.399 . S
C1459 C1458 1.399 . S
C1459 C1460 1.376 . S
C1460 H1447 0.930 . S
C1460 C1459 1.376 . S
C1460 C1461 1.388 . S
C1461 H1448 0.930 . S
C1461 C1460 1.388 . S
C1461 C1462 1.390 . S
C1462 C1461 1.390 . S
C1462 C1463 1.394 . S
C1462 C1468 1.465 . S
C1463 C1458 1.399 . S
C1463 C1462 1.394 . S
C1463 C1464 1.516 . S
C1464 C1463 1.516 . S
C1464 C1465 1.502 . S
C1464 C1466 1.561 . S
C1464 C1467 1.526 . S
C1465 H1449 0.959 . S
C1465 H1450 0.959 . S
C1465 H1451 0.961 . S
C1465 C1464 1.502 . S
C1466 H1452 0.960 . S
C1466 H1453 0.961 . S
C1466 H1454 0.959 . S
C1466 C1464 1.561 . S
C1467 C1464 1.526 . S
C1467 C1468 1.396 . S
C1467 C1472 1.390 . S
C1468 C1462 1.465 . S
C1468 C1467 1.396 . S
C1468 C1469 1.399 . S
C1469 H1455 0.929 . S
C1469 C1468 1.399 . S
C1469 C1470 1.385 . S
C1470 H1456 0.931 . S
C1470 C1469 1.385 . S
C1470 C1471 1.389 . S
C1471 C1470 1.389 . S
C1471 C1472 1.387 . S
C1472 H1457 0.930 . S
C1472 C1467 1.390 . S
C1472 C1471 1.387 . S
H1473 C1485 0.930 . S
H1474 C1487 0.930 . S
H1475 C1488 0.930 . S
H1476 C1492 0.959 . S
H1477 C1492 0.959 . S
H1478 C1492 0.961 . S
H1479 C1493 0.960 . S
H1480 C1493 0.961 . S
H1481 C1493 0.959 . S
H1482 C1496 0.929 . S
H1483 C1497 0.931 . S
H1484 C1499 0.930 . S
C1485 H1473 0.930 . S
C1485 C1486 1.399 . S
C1485 C1490 1.399 1_554 S
C1486 C1485 1.399 . S
C1486 C1487 1.376 . S
C1487 H1474 0.930 . S
C1487 C1486 1.376 . S
C1487 C1488 1.388 1_554 S
C1488 H1475 0.930 . S
C1488 C1487 1.388 1_556 S
C1488 C1489 1.390 . S
C1489 C1488 1.390 . S
C1489 C1490 1.394 . S
C1489 C1495 1.465 . S
C1490 C1485 1.399 1_556 S
C1490 C1489 1.394 . S
C1490 C1491 1.516 . S
C1491 C1490 1.516 . S
C1491 C1492 1.502 . S
C1491 C1493 1.561 . S
C1491 C1494 1.526 . S
C1492 H1476 0.959 . S
C1492 H1477 0.959 . S
C1492 H1478 0.961 . S
C1492 C1491 1.502 . S
C1493 H1479 0.960 . S
C1493 H1480 0.961 . S
C1493 H1481 0.959 . S
C1493 C1491 1.561 . S
C1494 C1491 1.526 . S
C1494 C1495 1.396 . S
C1494 C1499 1.390 . S
C1495 C1489 1.465 . S
C1495 C1494 1.396 . S
C1495 C1496 1.399 . S
C1496 H1482 0.929 . S
C1496 C1495 1.399 . S
C1496 C1497 1.385 . S
C1497 H1483 0.931 . S
C1497 C1496 1.385 . S
C1497 C1498 1.389 . S
C1498 C1497 1.389 . S
C1498 C1499 1.387 . S
C1499 H1484 0.930 . S
C1499 C1494 1.390 . S
C1499 C1498 1.387 . S
H1500 C1512 0.930 . S
H1501 C1514 0.930 . S
H1502 C1515 0.930 . S
H1503 C1519 0.959 . S
H1504 C1519 0.959 . S
H1505 C1519 0.961 . S
H1506 C1520 0.960 . S
H1507 C1520 0.961 . S
H1508 C1520 0.959 1_455 S
H1509 C1523 0.929 . S
H1510 C1524 0.931 . S
H1511 C1526 0.930 . S
C1512 H1500 0.930 . S
C1512 C1513 1.399 . S
C1512 C1517 1.399 . S
C1513 C1512 1.399 . S
C1513 C1514 1.376 . S
C1514 H1501 0.930 . S
C1514 C1513 1.376 . S
C1514 C1515 1.388 . S
C1515 H1502 0.930 . S
C1515 C1514 1.388 . S
C1515 C1516 1.390 . S
C1516 C1515 1.390 . S
C1516 C1517 1.394 . S
C1516 C1522 1.465 . S
C1517 C1512 1.399 . S
C1517 C1516 1.394 . S
C1517 C1518 1.516 . S
C1518 C1517 1.516 . S
C1518 C1519 1.502 . S
C1518 C1520 1.561 . S
C1518 C1521 1.526 . S
C1519 H1503 0.959 . S
C1519 H1504 0.959 . S
C1519 H1505 0.961 . S
C1519 C1518 1.502 . S
C1520 H1506 0.960 . S
C1520 H1507 0.961 . S
C1520 H1508 0.959 1_655 S
C1520 C1518 1.561 . S
C1521 C1518 1.526 . S
C1521 C1522 1.396 . S
C1521 C1526 1.390 1_554 S
C1522 C1516 1.465 . S
C1522 C1521 1.396 . S
C1522 C1523 1.399 . S
C1523 H1509 0.929 . S
C1523 C1522 1.399 . S
C1523 C1524 1.385 1_554 S
C1524 H1510 0.931 . S
C1524 C1523 1.385 1_556 S
C1524 C1525 1.389 . S
C1525 C1524 1.389 . S
C1525 C1526 1.387 . S
C1526 H1511 0.930 . S
C1526 C1521 1.390 1_556 S
C1526 C1525 1.387 . S
H1527 C1539 0.930 . S
H1528 C1541 0.930 1_545 S
H1529 C1542 0.967 . S
H1530 C1546 0.959 . S
H1531 C1546 0.959 . S
H1532 C1546 0.961 . S
H1533 C1547 0.960 . S
H1534 C1547 0.961 . S
H1535 C1547 0.959 . S
H1536 C1550 0.929 1_545 S
H1537 C1551 0.931 1_545 S
H1538 C1553 0.930 . S
C1539 H1527 0.930 . S
C1539 C1540 1.399 . S
C1539 C1544 1.399 . S
C1540 C1539 1.399 . S
C1540 C1541 1.376 . S
C1541 H1528 0.930 1_565 S
C1541 C1540 1.376 . S
C1541 C1542 1.383 1_565 S
C1542 H1529 0.967 . S
C1542 C1541 1.383 1_545 S
C1542 C1543 1.359 1_545 S
C1543 C1542 1.359 1_565 S
C1543 C1544 1.394 . S
C1543 C1549 1.465 . S
C1544 C1539 1.399 . S
C1544 C1543 1.394 . S
C1544 C1545 1.516 . S
C1545 C1544 1.516 . S
C1545 C1546 1.502 . S
C1545 C1547 1.561 . S
C1545 C1548 1.526 . S
C1546 H1530 0.959 . S
C1546 H1531 0.959 . S
C1546 H1532 0.961 . S
C1546 C1545 1.502 . S
C1547 H1533 0.960 . S
C1547 H1534 0.961 . S
C1547 H1535 0.959 . S
C1547 C1545 1.561 . S
C1548 C1545 1.526 . S
C1548 C1549 1.396 . S
C1548 C1553 1.390 . S
C1549 C1543 1.465 . S
C1549 C1548 1.396 . S
C1549 C1550 1.399 . S
C1550 H1536 0.929 1_565 S
C1550 C1549 1.399 . S
C1550 C1551 1.385 . S
C1551 H1537 0.931 1_565 S
C1551 C1550 1.385 . S
C1551 C1552 1.389 . S
C1552 C1551 1.389 . S
C1552 C1553 1.387 . S
C1553 H1538 0.930 . S
C1553 C1548 1.390 . S
C1553 C1552 1.387 . S
H1554 C1566 0.930 . S
H1555 C1568 0.930 . S
H1556 C1569 0.930 . S
H1557 C1573 0.959 . S
H1558 C1573 0.959 . S
H1559 C1573 0.961 . S
H1560 C1574 0.960 . S
H1561 C1574 0.961 . S
H1562 C1574 0.959 . S
H1563 C1577 0.929 . S
H1564 C1578 0.931 . S
H1565 C1580 0.930 . S
C1566 H1554 0.930 . S
C1566 C1567 1.399 . S
C1566 C1571 1.399 1_556 S
C1567 C1566 1.399 . S
C1567 C1568 1.376 . S
C1568 H1555 0.930 . S
C1568 C1567 1.376 . S
C1568 C1569 1.388 1_556 S
C1569 H1556 0.930 . S
C1569 C1568 1.388 1_554 S
C1569 C1570 1.390 . S
C1570 C1569 1.390 . S
C1570 C1571 1.394 . S
C1570 C1576 1.465 . S
C1571 C1566 1.399 1_554 S
C1571 C1570 1.394 . S
C1571 C1572 1.516 . S
C1572 C1571 1.516 . S
C1572 C1573 1.502 . S
C1572 C1574 1.561 . S
C1572 C1575 1.526 . S
C1573 H1557 0.959 . S
C1573 H1558 0.959 . S
C1573 H1559 0.961 . S
C1573 C1572 1.502 . S
C1574 H1560 0.960 . S
C1574 H1561 0.961 . S
C1574 H1562 0.959 . S
C1574 C1572 1.561 . S
C1575 C1572 1.526 . S
C1575 C1576 1.396 . S
C1575 C1580 1.390 . S
C1576 C1570 1.465 . S
C1576 C1575 1.396 . S
C1576 C1577 1.399 . S
C1577 H1563 0.929 . S
C1577 C1576 1.399 . S
C1577 C1578 1.385 . S
C1578 H1564 0.931 . S
C1578 C1577 1.385 . S
C1578 C1579 1.389 . S
C1579 C1578 1.389 . S
C1579 C1580 1.387 . S
C1580 H1565 0.930 . S
C1580 C1575 1.390 . S
C1580 C1579 1.387 . S
H1581 C1593 0.930 . S
H1582 C1595 0.930 . S
H1583 C1596 0.930 . S
H1584 C1600 0.959 . S
H1585 C1600 0.959 . S
H1586 C1600 0.961 . S
H1587 C1601 0.960 . S
H1588 C1601 0.961 . S
H1589 C1601 0.959 . S
H1590 C1604 0.929 . S
H1591 C1605 0.931 . S
H1592 C1607 0.930 . S
C1593 H1581 0.930 . S
C1593 C1594 1.399 . S
C1593 C1598 1.399 . S
C1594 C1593 1.399 . S
C1594 C1595 1.376 . S
C1595 H1582 0.930 . S
C1595 C1594 1.376 . S
C1595 C1596 1.388 . S
C1596 H1583 0.930 . S
C1596 C1595 1.388 . S
C1596 C1597 1.390 . S
C1597 C1596 1.390 . S
C1597 C1598 1.394 . S
C1597 C1603 1.465 . S
C1598 C1593 1.399 . S
C1598 C1597 1.394 . S
C1598 C1599 1.516 . S
C1599 C1598 1.516 . S
C1599 C1600 1.502 . S
C1599 C1601 1.561 . S
C1599 C1602 1.526 . S
C1600 H1584 0.959 . S
C1600 H1585 0.959 . S
C1600 H1586 0.961 . S
C1600 C1599 1.502 . S
C1601 H1587 0.960 . S
C1601 H1588 0.961 . S
C1601 H1589 0.959 . S
C1601 C1599 1.561 . S
C1602 C1599 1.526 . S
C1602 C1603 1.396 . S
C1602 C1607 1.390 . S
C1603 C1597 1.465 . S
C1603 C1602 1.396 . S
C1603 C1604 1.399 . S
C1604 H1590 0.929 . S
C1604 C1603 1.399 . S
C1604 C1605 1.385 . S
C1605 H1591 0.931 . S
C1605 C1604 1.385 . S
C1605 C1606 1.389 . S
C1606 C1605 1.389 . S
C1606 C1607 1.387 . S
C1607 H1592 0.930 . S
C1607 C1602 1.390 . S
C1607 C1606 1.387 . S
C541 C21 1.466 . S
C553 C516 1.465 . S
C568 C54 1.468 . S
C580 C417 1.472 . S
C595 C450 1.469 . S
C607 C87 1.473 . S
C622 C120 1.490 . S
C634 C483 1.487 . S
C649 C318 1.470 . S
C661 C153 1.475 . S
C676 C351 1.492 . S
C688 C186 1.488 . S
C703 C384 1.492 . S
C715 C219 1.488 . S
C730 C285 1.469 . S
C742 C252 1.473 . S
C757 C7 1.384 . S
C769 C238 1.365 . S
C784 C40 1.391 . S
C796 C139 1.420 . S
C811 C73 1.373 . S
C823 C172 1.365 . S
C838 C106 1.364 . S
C850 C205 1.376 . S
C865 C502 1.426 . S
C877 C271 1.401 . S
C892 C403 1.425 . S
C904 C304 1.381 . S
C919 C436 1.367 . S
C931 C337 1.384 . S
C946 C370 1.425 . S
C958 C469 1.383 . S
C973 C18 1.102 . S
C985 C150 1.147 . S
C1000 C183 1.142 . S
C1012 C51 1.110 . S
C1027 C216 1.101 . S
C1039 C84 1.148 . S
C1054 C117 1.144 . S
C1066 C249 1.108 . S
C1081 C414 1.118 . S
C1093 C282 1.138 . S
C1108 C315 1.132 . S
C1120 C447 1.125 . S
C1135 C348 1.104 . S
C1147 C480 1.147 . S
C1162 C513 1.146 . S
C1174 C381 1.097 . S
C1189 N2 1.317 . S
C1201 N13 1.347 . S
C1216 N46 1.309 . S
C1228 N35 1.347 . S
C1243 N68 1.315 . S
C1255 N79 1.349 . S
C1270 N112 1.342 . S
C1282 N101 1.323 . S
C1297 N134 1.343 . S
C1309 N145 1.312 . S
C1324 N167 1.308 . S
C1336 N178 1.345 . S
C1351 N200 1.307 . S
C1363 N211 1.353 . S
C1378 N233 1.348 . S
C1390 N244 1.318 . S
C1405 N277 1.318 . S
C1417 N266 1.347 . S
C1432 N310 1.354 . S
C1444 N299 1.305 . S
C1459 N343 1.316 . S
C1471 N332 1.348 . S
C1486 N376 1.310 . S
C1498 N365 1.345 . S
C1513 N398 1.306 . S
C1525 N409 1.353 . S
C1540 N431 1.343 . S
C1552 N442 1.324 . S
C1567 N475 1.318 . S
C1579 N464 1.347 . S
C1594 N508 1.308 . S
C1606 N497 1.349 . S
