# Generated by pormake.
# Topology qtz-e, (6)-cn, num edge types: 1
# Building blocks:
#     Node 0, Type 0, BuildingBlock: CIFDUS_clean_sbu_1, # of connection points: 6
#     Node 1, Type 0, BuildingBlock: CIFDUS_clean_sbu_1, # of connection points: 6
#     Node 2, Type 0, BuildingBlock: CIFDUS_clean_sbu_1, # of connection points: 6
#     Node 3, Type 0, BuildingBlock: CIFDUS_clean_sbu_1, # of connection points: 6
#     Node 4, Type 0, BuildingBlock: CIFDUS_clean_sbu_1, # of connection points: 6
#     Node 5, Type 0, BuildingBlock: CIFDUS_clean_sbu_1, # of connection points: 6
#     Edge 6, Type (0, 0), BuildingBlock: CIFDUS_clean_linker_0, # of connection points: 2
#     Edge 7, Type (0, 0), BuildingBlock: CIFDUS_clean_linker_0, # of connection points: 2
#     Edge 8, Type (0, 0), BuildingBlock: CIFDUS_clean_linker_0, # of connection points: 2
#     Edge 9, Type (0, 0), BuildingBlock: CIFDUS_clean_linker_0, # of connection points: 2
#     Edge 10, Type (0, 0), BuildingBlock: CIFDUS_clean_linker_0, # of connection points: 2
#     Edge 11, Type (0, 0), BuildingBlock: CIFDUS_clean_linker_0, # of connection points: 2
#     Edge 12, Type (0, 0), BuildingBlock: CIFDUS_clean_linker_0, # of connection points: 2
#     Edge 13, Type (0, 0), BuildingBlock: CIFDUS_clean_linker_0, # of connection points: 2
#     Edge 14, Type (0, 0), BuildingBlock: CIFDUS_clean_linker_0, # of connection points: 2
#     Edge 15, Type (0, 0), BuildingBlock: CIFDUS_clean_linker_0, # of connection points: 2
#     Edge 16, Type (0, 0), BuildingBlock: CIFDUS_clean_linker_0, # of connection points: 2
#     Edge 17, Type (0, 0), BuildingBlock: CIFDUS_clean_linker_0, # of connection points: 2
#     Edge 18, Type (0, 0), BuildingBlock: CIFDUS_clean_linker_0, # of connection points: 2
#     Edge 19, Type (0, 0), BuildingBlock: CIFDUS_clean_linker_0, # of connection points: 2
#     Edge 20, Type (0, 0), BuildingBlock: CIFDUS_clean_linker_0, # of connection points: 2
#     Edge 21, Type (0, 0), BuildingBlock: CIFDUS_clean_linker_0, # of connection points: 2
#     Edge 22, Type (0, 0), BuildingBlock: CIFDUS_clean_linker_0, # of connection points: 2
#     Edge 23, Type (0, 0), BuildingBlock: CIFDUS_clean_linker_0, # of connection points: 2
# Relax obj value: 0.337
# Max RMSD: 0.227
# Mean RMSD: 0.227
data_MOF--net-qtz-e--node1-CIFDUS_clean_sbu_1--edge1-CIFDUS_clean_linker_0
_symmetry_space_group_name_H-M    P1
_symmetry_Int_Tables_number       1
_symmetry_cell_setting            triclinic
loop_
_symmetry_equiv_pos_as_xyz
'x, y, z'
_cell_length_a     24.648756
_cell_length_b     24.96885
_cell_length_c     28.446931
_cell_angle_alpha  89.226214
_cell_angle_beta   90.594388
_cell_angle_gamma 120.35267
loop_
_atom_site_label
_atom_site_type_symbol
_atom_site_fract_x
_atom_site_fract_y
_atom_site_fract_z
_atom_type_partial_charge
O0 O 0.28141 0.38747 -0.00525 0.0
Mn1 Mn 0.20742 0.4042 0.97652 0.0
O2 O 0.31168 0.44705 0.05362 0.0
Mn3 Mn 0.32284 0.50817 0.01148 0.0
O4 O 0.13468 0.41868 0.95509 0.0
O5 O 0.16713 0.32026 0.94447 0.0
Mn6 Mn 0.08648 0.28014 0.96014 0.0
O7 O 0.15902 0.36588 0.03911 0.0
O8 O 0.05137 0.3258 0.9375 0.0
O9 O 0.25791 0.44654 0.9166 0.0
O10 O 0.35139 0.51067 0.94993 0.0
O11 O 0.09636 0.22721 0.92217 0.0
O12 O 0.08027 0.26948 0.02467 0.0
C13 C 0.26742 0.54455 0.02856 0.0
C14 C 0.32011 0.41139 0.02872 0.0
C15 C 0.07759 0.38453 0.94114 0.0
C16 C 0.15453 0.27154 0.92009 0.0
C17 C 0.11196 0.31423 0.05255 0.0
C18 C 0.31722 0.48524 0.91364 0.0
O19 O 0.24418 0.49029 0.00845 0.0
O20 O 0.32788 0.57691 0.03406 0.0
O21 O 0.89246 0.27151 0.33082 0.0
Mn22 Mn 0.79896 0.2027 0.31535 0.0
O23 O 0.87225 0.29931 0.39633 0.0
Mn24 Mn 0.81143 0.31364 0.37157 0.0
O25 O 0.70699 0.13561 0.29648 0.0
O26 O 0.83571 0.16462 0.27375 0.0
Mn27 Mn 0.78943 0.0828 0.277 0.0
O28 O 0.79407 0.14532 0.37078 0.0
O29 O 0.71129 0.0623 0.25421 0.0
O30 O 0.80228 0.26538 0.26371 0.0
O31 O 0.82194 0.34661 0.31066 0.0
O32 O 0.85673 0.09985 0.23954 0.0
O33 O 0.78537 0.05904 0.33948 0.0
C34 C 0.72033 0.23805 0.38763 0.0
C35 C 0.91101 0.31061 0.36418 0.0
C36 C 0.68094 0.08594 0.27175 0.0
C37 C 0.87426 0.15721 0.24804 0.0
C38 C 0.78489 0.09018 0.37445 0.0
C39 C 0.81351 0.32151 0.27003 0.0
O40 O 0.75926 0.23596 0.35908 0.0
O41 O 0.73989 0.29214 0.40535 0.0
O42 O 0.59567 0.877 0.66758 0.0
Mn43 Mn 0.58046 0.79095 0.64544 0.0
O44 O 0.50833 0.85662 0.70671 0.0
Mn45 Mn 0.45645 0.78154 0.67894 0.0
O46 O 0.56397 0.70533 0.62142 0.0
O47 O 0.66401 0.83642 0.61244 0.0
Mn48 Mn 0.70481 0.79566 0.62082 0.0
O49 O 0.62317 0.7786 0.70537 0.0
O50 O 0.65544 0.71789 0.59488 0.0
O51 O 0.53357 0.80238 0.5863 0.0
O52 O 0.44196 0.78741 0.61609 0.0
O53 O 0.75771 0.86535 0.58626 0.0
O54 O 0.7168 0.79142 0.68472 0.0
C55 C 0.45742 0.70328 0.70817 0.0
C56 C 0.56336 0.89408 0.69164 0.0
C57 C 0.59664 0.68428 0.60274 0.0
C58 C 0.71279 0.87766 0.5897 0.0
C59 C 0.67456 0.77947 0.71514 0.0
C60 C 0.48046 0.8011 0.58218 0.0
O61 O 0.49989 0.74442 0.68093 0.0
O62 O 0.41008 0.71113 0.71499 0.0
O63 O 0.72237 0.60148 -0.01124 0.0
Mn64 Mn 0.79314 0.5811 0.97382 0.0
O65 O 0.67013 0.53864 0.0478 0.0
Mn66 Mn 0.67953 0.47669 0.02237 0.0
O67 O 0.86345 0.56194 0.95423 0.0
O68 O 0.83053 0.65487 0.9301 0.0
Mn69 Mn 0.9135 0.69639 0.93411 0.0
O70 O 0.85008 0.63427 0.02944 0.0
O71 O 0.93288 0.64096 0.90805 0.0
O72 O 0.73226 0.52351 0.92031 0.0
O73 O 0.64904 0.45247 0.96238 0.0
O74 O 0.89002 0.74965 0.90727 0.0
O75 O 0.93875 0.70995 -0.0035 0.0
C76 C 0.75167 0.46481 0.04998 0.0
C77 C 0.6797 0.58253 0.02015 0.0
C78 C 0.91187 0.58737 0.92696 0.0
C79 C 0.83327 0.70536 0.91564 0.0
C80 C 0.90699 0.67924 0.03215 0.0
C81 C 0.67586 0.47605 0.92324 0.0
O82 O 0.76077 0.50759 0.01922 0.0
O83 O 0.6936 0.42665 0.06103 0.0
O84 O 0.10904 0.70979 0.3224 0.0
Mn85 Mn 0.1989 0.78686 0.30914 0.0
O86 O 0.12756 0.64797 0.36762 0.0
Mn87 Mn 0.19835 0.66861 0.3339 0.0
O88 O 0.28638 0.86253 0.29301 0.0
O89 O 0.15418 0.82565 0.27669 0.0
Mn90 Mn 0.19349 0.90612 0.28655 0.0
O91 O 0.20033 0.82994 0.37244 0.0
O92 O 0.27293 0.93773 0.26112 0.0
O93 O 0.2004 0.74547 0.24676 0.0
O94 O 0.1891 0.65352 0.26949 0.0
O95 O 0.12312 0.88782 0.25085 0.0
O96 O 0.1952 0.91493 0.35107 0.0
C97 C 0.28506 0.73555 0.36266 0.0
C98 C 0.08954 0.66188 0.34903 0.0
C99 C 0.3078 0.91542 0.27238 0.0
C100 C 0.11254 0.83155 0.25298 0.0
C101 C 0.20102 0.88061 0.38199 0.0
C102 C 0.19378 0.69219 0.23767 0.0
O103 O 0.24682 0.74941 0.3411 0.0
O104 O 0.267 0.67705 0.36489 0.0
O105 O 0.40128 0.12226 0.65854 0.0
Mn106 Mn 0.41202 0.20942 0.6405 0.0
O107 O 0.4683 0.15282 0.71614 0.0
Mn108 Mn 0.52869 0.21219 0.67788 0.0
O109 O 0.42312 0.29425 0.62021 0.0
O110 O 0.33164 0.16474 0.60395 0.0
Mn111 Mn 0.2837 0.19739 0.61228 0.0
O112 O 0.36257 0.20881 0.70101 0.0
O113 O 0.33098 0.28045 0.59329 0.0
O114 O 0.46089 0.20764 0.58231 0.0
O115 O 0.53427 0.19066 0.61593 0.0
O116 O 0.24158 0.13246 0.57033 0.0
O117 O 0.26581 0.18551 0.67569 0.0
C118 C 0.54641 0.30069 0.69634 0.0
C119 C 0.42833 0.10904 0.69157 0.0
C120 C 0.38955 0.3152 0.60215 0.0
C121 C 0.2899 0.1256 0.57553 0.0
C122 C 0.30552 0.19571 0.70847 0.0
C123 C 0.50445 0.1937 0.57979 0.0
O124 O 0.49628 0.26051 0.67405 0.0
O125 O 0.5882 0.28475 0.70394 0.0
H126 H 0.12429 0.58394 0.19042 0.0
H127 H 0.28469 0.76882 0.17815 0.0
H128 H 0.31512 0.74101 0.10522 0.0
H129 H 0.30409 0.66134 0.05164 0.0
H130 H 0.14777 0.47427 0.06438 0.0
H131 H 0.10492 0.50654 0.12851 0.0
C132 C 0.1647 0.6184 0.17078 0.0
C133 C 0.20211 0.67843 0.18913 0.0
C134 C 0.182 0.60189 0.12879 0.0
C135 C 0.25468 0.72282 0.16402 0.0
C136 C 0.27229 0.70679 0.12255 0.0
C137 C 0.25961 0.62787 0.06753 0.0
C138 C 0.22949 0.56537 0.05382 0.0
C139 C 0.23728 0.64613 0.10542 0.0
C140 C 0.17173 0.52266 0.07431 0.0
C141 C 0.14785 0.54097 0.11145 0.0
H142 H 0.57335 0.13873 0.56122 0.0
H143 H 0.47811 0.22434 0.49348 0.0
H144 H 0.5198 0.21869 0.41784 0.0
H145 H 0.60387 0.21572 0.37616 0.0
H146 H 0.7132 0.14818 0.44619 0.0
H147 H 0.64433 0.11768 0.51465 0.0
C148 C 0.56102 0.15541 0.5298 0.0
C149 C 0.52304 0.18259 0.5332 0.0
C150 C 0.5879 0.155 0.4866 0.0
C151 C 0.50667 0.20281 0.492 0.0
C152 C 0.53089 0.19996 0.44865 0.0
C153 C 0.60998 0.19076 0.40536 0.0
C154 C 0.66361 0.18498 0.40674 0.0
C155 C 0.57409 0.17932 0.44604 0.0
C156 C 0.67177 0.15275 0.44438 0.0
C157 C 0.63348 0.13711 0.48413 0.0
H158 H 0.43827 0.57381 0.8932 0.0
H159 H 0.26259 0.44102 0.82798 0.0
H160 H 0.30283 0.48898 0.75147 0.0
H161 H 0.3764 0.58214 0.70773 0.0
H162 H 0.54524 0.72218 0.77482 0.0
H163 H 0.52142 0.65663 0.8449 0.0
C164 C 0.40916 0.55448 0.86214 0.0
C165 C 0.34655 0.50524 0.86662 0.0
C166 C 0.4319 0.58356 0.81832 0.0
C167 C 0.31024 0.47991 0.82582 0.0
C168 C 0.33329 0.50722 0.78195 0.0
C169 C 0.40948 0.59663 0.73687 0.0
C170 C 0.46264 0.65631 0.73606 0.0
C171 C 0.39251 0.56103 0.7783 0.0
C172 C 0.50501 0.67561 0.77403 0.0
C173 C 0.49031 0.63875 0.81472 0.0
H174 H 0.84781 0.32893 0.17548 0.0
H175 H 0.7713 0.40074 0.27659 0.0
H176 H 0.76751 0.46922 0.21802 0.0
H177 H 0.77348 0.50103 0.13736 0.0
H178 H 0.83002 0.41923 0.03073 0.0
H179 H 0.85936 0.36729 0.09164 0.0
C180 C 0.83047 0.35965 0.18443 0.0
C181 C 0.81043 0.35972 0.23073 0.0
C182 C 0.82691 0.39909 0.1497 0.0
C183 C 0.7881 0.40006 0.24166 0.0
C184 C 0.786 0.43973 0.20817 0.0
C185 C 0.795 0.47404 0.12762 0.0
C186 C 0.80009 0.4642 0.07997 0.0
C187 C 0.80456 0.43924 0.16213 0.0
C188 C 0.82665 0.4282 0.06743 0.0
C189 C 0.84161 0.39708 0.10226 0.0
H190 H 0.50352 0.78545 0.48948 0.0
H191 H 0.41348 0.85889 0.57551 0.0
H192 H 0.35329 0.86174 0.50863 0.0
H193 H 0.30718 0.81832 0.43151 0.0
H194 H 0.3969 0.74645 0.34437 0.0
H195 H 0.47752 0.77088 0.40424 0.0
C196 C 0.47228 0.80387 0.49313 0.0
C197 C 0.46077 0.81886 0.5379 0.0
C198 C 0.43716 0.80554 0.45408 0.0
C199 C 0.42122 0.84429 0.54176 0.0
C200 C 0.38675 0.84632 0.50343 0.0
C201 C 0.34646 0.81142 0.42462 0.0
C202 C 0.34577 0.77983 0.38413 0.0
C203 C 0.39138 0.82339 0.4601 0.0
C204 C 0.39656 0.7706 0.37564 0.0
C205 C 0.44211 0.78355 0.41025 0.0
H206 H 0.70168 0.50944 0.82912 0.0
H207 H 0.55947 0.37355 0.9222 0.0
H208 H 0.49441 0.31818 0.85621 0.0
H209 H 0.48464 0.2969 0.77283 0.0
H210 H 0.62973 0.42231 0.67848 0.0
H211 H 0.68368 0.49482 0.74281 0.0
C212 C 0.65635 0.46805 0.83486 0.0
C213 C 0.63684 0.44562 0.88089 0.0
C214 C 0.61833 0.43486 0.79614 0.0
C215 C 0.57706 0.39214 0.88746 0.0
C216 C 0.53898 0.36017 0.84959 0.0
C217 C 0.52617 0.34179 0.76598 0.0
C218 C 0.55331 0.35451 0.72133 0.0
C219 C 0.55982 0.3799 0.80382 0.0
C220 C 0.60774 0.41206 0.71275 0.0
C221 C 0.63953 0.45264 0.74984 0.0
H222 H 0.41822 0.50375 0.07466 0.0
H223 H 0.3756 0.37858 0.95829 0.0
H224 H 0.48695 0.43708 0.93507 0.0
H225 H 0.5963 0.52112 0.95165 0.0
H226 H 0.63301 0.64296 0.06852 0.0
H227 H 0.52033 0.59394 0.08309 0.0
C228 C 0.43229 0.48864 0.04387 0.0
C229 C 0.38789 0.43601 0.01855 0.0
C230 C 0.49421 0.52459 0.02901 0.0
C231 C 0.4085 0.41798 -0.02096 0.0
C232 C 0.4718 0.4523 0.96516 0.0
C233 C 0.57927 0.53827 -0.02079 0.0
C234 C 0.62262 0.5846 0.00984 0.0
C235 C 0.51493 0.50583 -0.01002 0.0
C236 C 0.60045 0.60751 0.0447 0.0
C237 C 0.5363 0.57808 0.05389 0.0
H238 H 0.05591 0.58236 0.27833 0.0
H239 H 0.98822 0.61785 0.40637 0.0
H240 H 0.92672 0.50658 0.42282 0.0
H241 H 0.91516 0.40603 0.41119 0.0
H242 H 0.98331 0.36615 0.28449 0.0
H243 H 0.02793 0.47489 0.25919 0.0
C244 C 0.02493 0.56522 0.30854 0.0
C245 C 0.02721 0.60786 0.34174 0.0
C246 C 0.99496 0.50176 0.31995 0.0
C247 C 0.98709 0.58581 0.38053 0.0
C248 C 0.95375 0.5224 0.39064 0.0
C249 C 0.93949 0.42024 0.37779 0.0
C250 C 0.94668 0.3775 0.35027 0.0
C251 C 0.96166 0.48105 0.36253 0.0
C252 C 0.97824 0.39798 0.30702 0.0
C253 C 0.00255 0.45977 0.29212 0.0
H254 H 0.49116 0.07615 0.75125 0.0
H255 H 0.40923 0.03854 0.61201 0.0
H256 H 0.46537 0.98372 0.59336 0.0
H257 H 0.53365 0.94262 0.61924 0.0
H258 H 0.61463 0.98298 0.75825 0.0
H259 H 0.56962 0.04887 0.77222 0.0
C260 C 0.48496 0.0556 0.7168 0.0
C261 C 0.44525 0.06086 0.6834 0.0
C262 C 0.52051 0.02854 0.70533 0.0
C263 C 0.43806 0.03392 0.63893 0.0
C264 C 0.47152 0.00411 0.62782 0.0
C265 C 0.54404 0.96862 0.65164 0.0
C266 C 0.57662 0.95778 0.68811 0.0
C267 C 0.51322 0.00163 0.66076 0.0
C268 C 0.58992 0.99108 0.72987 0.0
C269 C 0.56234 0.02684 0.73834 0.0
H270 H 0.47537 0.59961 0.57945 0.0
H271 H 0.65333 0.61719 0.61824 0.0
H272 H 0.60526 0.50472 0.62072 0.0
H273 H 0.51266 0.40179 0.61448 0.0
H274 H 0.33421 0.38203 0.57356 0.0
H275 H 0.38286 0.49485 0.56832 0.0
C276 C 0.50362 0.5786 0.58759 0.0
C277 C 0.56789 0.61655 0.5979 0.0
C278 C 0.47578 0.51361 0.58847 0.0
C279 C 0.60406 0.58896 0.609 0.0
C280 C 0.57653 0.52463 0.61083 0.0
C281 C 0.48426 0.42186 0.60392 0.0
C282 C 0.4197 0.38321 0.59453 0.0
C283 C 0.51243 0.48655 0.60085 0.0
C284 C 0.384 0.4105 0.58096 0.0
C285 C 0.41173 0.47508 0.57809 0.0
H286 H 0.11649 0.50739 0.92984 0.0
H287 H 0.94975 0.32576 0.93755 0.0
H288 H 0.8837 0.37228 0.9332 0.0
H289 H 0.87278 0.46458 0.92991 0.0
H290 H 0.03883 0.64586 0.91874 0.0
H291 H 0.10539 0.59948 0.92176 0.0
C292 C 0.06571 0.47795 0.92997 0.0
C293 C 0.03828 0.41318 0.93371 0.0
C294 C 0.02771 0.50489 0.92693 0.0
C295 C 0.97231 0.37574 0.93411 0.0
C296 C 0.93433 0.40226 0.93189 0.0
C297 C 0.92348 0.49369 0.92746 0.0
C298 C 0.95079 0.55824 0.92353 0.0
C299 C 0.96147 0.46674 0.92857 0.0
C300 C 0.0166 0.59577 0.92078 0.0
C301 C 0.05476 0.56938 0.92287 0.0
H302 H 0.39647 0.88566 0.29514 0.0
H303 H 0.37362 0.03293 0.23497 0.0
H304 H 0.48756 0.09975 0.23008 0.0
H305 H 0.59438 0.11742 0.24499 0.0
H306 H 0.6153 0.96775 0.30144 0.0
H307 H 0.50136 0.90125 0.30682 0.0
C308 C 0.41616 0.93216 0.28053 0.0
C309 C 0.37641 0.95415 0.26545 0.0
C310 C 0.48148 0.9702 0.27769 0.0
C311 C 0.40307 0.01468 0.24678 0.0
C312 C 0.46825 0.05309 0.24413 0.0
C313 C 0.57357 0.07009 0.25803 0.0
C314 C 0.61239 0.04698 0.27237 0.0
C315 C 0.50795 0.03153 0.25981 0.0
C316 C 0.5857 0.98585 0.28956 0.0
C317 C 0.52076 0.94794 0.29273 0.0
H318 H 0.35516 0.28629 0.77518 0.0
H319 H 0.20117 0.10219 0.7468 0.0
H320 H 0.14338 0.10813 0.81352 0.0
H321 H 0.13024 0.17011 0.87195 0.0
H322 H 0.2798 0.35629 0.90043 0.0
H323 H 0.34616 0.34518 0.84214 0.0
C324 C 0.31005 0.24681 0.78492 0.0
C325 C 0.28253 0.19364 0.75648 0.0
C326 C 0.27578 0.25153 0.82256 0.0
C327 C 0.22342 0.1432 0.76858 0.0
C328 C 0.19008 0.14686 0.80639 0.0
C329 C 0.17761 0.20835 0.86597 0.0
C330 C 0.19943 0.2647 0.88983 0.0
C331 C 0.21475 0.20163 0.83233 0.0
C332 C 0.26129 0.31302 0.88192 0.0
C333 C 0.29928 0.30648 0.84863 0.0
H334 H 0.9013 0.25811 0.19437 0.0
H335 H 0.98415 0.16252 0.26424 0.0
H336 H 0.07591 0.21388 0.21328 0.0
H337 H 0.11824 0.2646 0.13671 0.0
H338 H 0.0339 0.3575 0.06495 0.0
H339 H 0.95741 0.32911 0.12818 0.0
C340 C 0.94095 0.25112 0.19974 0.0
C341 C 0.93624 0.20653 0.2324 0.0
C342 C 0.99242 0.27888 0.16886 0.0
C343 C 0.98719 0.19681 0.23897 0.0
C344 C 0.03927 0.22553 0.20948 0.0
C345 C 0.08464 0.28053 0.13611 0.0
C346 C 0.0811 0.31267 0.09668 0.0
C347 C 0.04036 0.26337 0.17234 0.0
C348 C 0.03722 0.33285 0.0955 0.0
C349 C 0.9933 0.31633 0.13143 0.0
H350 H 0.63637 0.88557 0.52535 0.0
H351 H 0.80815 0.99458 0.60279 0.0
H352 H 0.84366 0.07861 0.54474 0.0
H353 H 0.8359 0.10962 0.46297 0.0
H354 H 0.66856 0.99367 0.3825 0.0
H355 H 0.62092 0.9246 0.45 0.0
C356 C 0.6801 0.92897 0.53047 0.0
C357 C 0.71973 0.93426 0.56786 0.0
C358 C 0.70202 0.97508 0.49527 0.0
C359 C 0.77695 0.99001 0.57404 0.0
C360 C 0.79767 0.03762 0.54051 0.0
C361 C 0.7888 0.06967 0.46078 0.0
C362 C 0.75637 0.0551 0.41784 0.0
C363 C 0.76246 0.02888 0.49941 0.0
C364 C 0.69489 0.00416 0.41514 0.0
C365 C 0.6675 0.96495 0.45372 0.0
H366 H 0.71427 0.82968 0.8024 0.0
H367 H 0.64509 0.66138 0.72351 0.0
H368 H 0.67359 0.61394 0.78752 0.0
H369 H 0.73847 0.62919 0.85776 0.0
H370 H 0.81405 0.79997 0.93419 0.0
H371 H 0.76052 0.83638 0.8813 0.0
C372 C 0.70369 0.78201 0.8002 0.0
C373 C 0.67819 0.74897 0.75861 0.0
C374 C 0.72143 0.75542 0.83689 0.0
C375 C 0.66492 0.68741 0.75552 0.0
C376 C 0.68133 0.66035 0.79199 0.0
C377 C 0.74038 0.67287 0.86415 0.0
C378 C 0.78006 0.71198 0.89952 0.0
C379 C 0.71233 0.69493 0.83191 0.0
C380 C 0.78339 0.76909 0.9071 0.0
C381 C 0.75363 0.79036 0.8764 0.0
H382 H 0.11576 0.75793 0.186 0.0
H383 H 0.9907 0.79933 0.26074 0.0
H384 H 0.90895 0.74587 0.20113 0.0
H385 H 0.8813 0.70531 0.11995 0.0
H386 H 0.01263 0.67516 0.04239 0.0
H387 H 0.08293 0.70525 0.11021 0.0
C388 C 0.06962 0.75273 0.19013 0.0
C389 C 0.05875 0.78176 0.22765 0.0
C390 C 0.02443 0.72538 0.15421 0.0
C391 C -0.00045 0.77657 0.23214 0.0
C392 C 0.95314 0.74674 0.19776 0.0
C393 C 0.92474 0.70433 0.1185 0.0
C394 C 0.94256 0.68929 0.07626 0.0
C395 C 0.96624 0.72386 0.15733 0.0
C396 C -0.0012 0.68788 0.07451 0.0
C397 C 0.03894 0.70488 0.11326 0.0
H398 H 0.21791 0.00067 0.57662 0.0
H399 H 0.373 0.1542 0.50616 0.0
H400 H 0.36575 0.08645 0.44213 0.0
H401 H 0.30253 0.98889 0.40033 0.0
H402 H 0.14257 0.83556 0.46737 0.0
H403 H 0.16465 0.89679 0.5395 0.0
C404 C 0.25155 0.01831 0.54807 0.0
C405 C 0.29731 0.08177 0.54633 0.0
C406 C 0.24518 0.9792 0.51069 0.0
C407 C 0.33969 0.10503 0.50889 0.0
C408 C 0.33448 0.06648 0.47194 0.0
C409 C 0.27352 0.96843 0.43128 0.0
C410 C 0.22071 0.90839 0.42882 0.0
C411 C 0.28574 0.00427 0.47164 0.0
C412 C 0.18341 0.88178 0.46877 0.0
C413 C 0.19583 0.91699 0.50969 0.0
loop_
_geom_bond_atom_site_label_1
_geom_bond_atom_site_label_2
_geom_bond_distance
_geom_bond_site_symmetry_2
_ccdc_geom_bond_type
O0 Mn1 2.163 1_554 S
O0 C14 1.244 . S
Mn1 O0 2.163 1_556 S
Mn1 O4 2.160 . S
Mn1 O5 2.221 . S
Mn1 O7 2.163 1_556 S
Mn1 O9 2.160 . S
Mn1 O19 2.221 1_556 S
O2 Mn3 2.087 . S
O2 C14 1.256 . S
Mn3 O2 2.087 . S
Mn3 O10 2.089 1_554 S
Mn3 O19 2.290 . S
Mn3 O20 2.251 . S
O4 Mn1 2.160 . S
O4 C15 1.239 . S
O5 Mn1 2.221 . S
O5 Mn6 2.290 . S
O5 C16 1.278 . S
Mn6 O5 2.290 . S
Mn6 O8 2.089 . S
Mn6 O11 2.251 . S
Mn6 O12 2.087 1_556 S
O7 Mn1 2.163 1_554 S
O7 C17 1.244 . S
O8 Mn6 2.089 . S
O8 C15 1.256 . S
O9 Mn1 2.160 . S
O9 C18 1.239 . S
O10 Mn3 2.089 1_556 S
O10 C18 1.256 . S
O11 Mn6 2.251 . S
O11 C16 1.241 . S
O12 Mn6 2.087 1_554 S
O12 C17 1.256 . S
C13 O19 1.278 . S
C13 O20 1.241 . S
C14 O0 1.244 . S
C14 O2 1.256 . S
C15 O4 1.239 . S
C15 O8 1.256 . S
C16 O5 1.278 . S
C16 O11 1.241 . S
C17 O7 1.244 . S
C17 O12 1.256 . S
C18 O9 1.239 . S
C18 O10 1.256 . S
O19 Mn1 2.221 1_554 S
O19 Mn3 2.290 . S
O19 C13 1.278 . S
O20 Mn3 2.251 . S
O20 C13 1.241 . S
O21 Mn22 2.163 . S
O21 C35 1.244 . S
Mn22 O21 2.163 . S
Mn22 O25 2.160 . S
Mn22 O26 2.221 . S
Mn22 O28 2.163 . S
Mn22 O30 2.160 . S
Mn22 O40 2.221 . S
O23 Mn24 2.087 . S
O23 C35 1.256 . S
Mn24 O23 2.087 . S
Mn24 O31 2.089 . S
Mn24 O40 2.290 . S
Mn24 O41 2.251 . S
O25 Mn22 2.160 . S
O25 C36 1.239 . S
O26 Mn22 2.221 . S
O26 Mn27 2.290 . S
O26 C37 1.278 . S
Mn27 O26 2.290 . S
Mn27 O29 2.089 . S
Mn27 O32 2.251 . S
Mn27 O33 2.087 . S
O28 Mn22 2.163 . S
O28 C38 1.244 . S
O29 Mn27 2.089 . S
O29 C36 1.256 . S
O30 Mn22 2.160 . S
O30 C39 1.239 . S
O31 Mn24 2.089 . S
O31 C39 1.256 . S
O32 Mn27 2.251 . S
O32 C37 1.241 . S
O33 Mn27 2.087 . S
O33 C38 1.256 . S
C34 O40 1.278 . S
C34 O41 1.241 . S
C35 O21 1.244 . S
C35 O23 1.256 . S
C36 O25 1.239 . S
C36 O29 1.256 . S
C37 O26 1.278 . S
C37 O32 1.241 . S
C38 O28 1.244 . S
C38 O33 1.256 . S
C39 O30 1.239 . S
C39 O31 1.256 . S
O40 Mn22 2.221 . S
O40 Mn24 2.290 . S
O40 C34 1.278 . S
O41 Mn24 2.251 . S
O41 C34 1.241 . S
O42 Mn43 2.163 . S
O42 C56 1.244 . S
Mn43 O42 2.163 . S
Mn43 O46 2.160 . S
Mn43 O47 2.221 . S
Mn43 O49 2.163 . S
Mn43 O51 2.160 . S
Mn43 O61 2.221 . S
O44 Mn45 2.087 . S
O44 C56 1.256 . S
Mn45 O44 2.087 . S
Mn45 O52 2.089 . S
Mn45 O61 2.290 . S
Mn45 O62 2.251 . S
O46 Mn43 2.160 . S
O46 C57 1.239 . S
O47 Mn43 2.221 . S
O47 Mn48 2.290 . S
O47 C58 1.278 . S
Mn48 O47 2.290 . S
Mn48 O50 2.089 . S
Mn48 O53 2.251 . S
Mn48 O54 2.087 . S
O49 Mn43 2.163 . S
O49 C59 1.244 . S
O50 Mn48 2.089 . S
O50 C57 1.256 . S
O51 Mn43 2.160 . S
O51 C60 1.239 . S
O52 Mn45 2.089 . S
O52 C60 1.256 . S
O53 Mn48 2.251 . S
O53 C58 1.241 . S
O54 Mn48 2.087 . S
O54 C59 1.256 . S
C55 O61 1.278 . S
C55 O62 1.241 . S
C56 O42 1.244 . S
C56 O44 1.256 . S
C57 O46 1.239 . S
C57 O50 1.256 . S
C58 O47 1.278 . S
C58 O53 1.241 . S
C59 O49 1.244 . S
C59 O54 1.256 . S
C60 O51 1.239 . S
C60 O52 1.256 . S
O61 Mn43 2.221 . S
O61 Mn45 2.290 . S
O61 C55 1.278 . S
O62 Mn45 2.251 . S
O62 C55 1.241 . S
O63 Mn64 2.163 1_554 S
O63 C77 1.244 . S
Mn64 O63 2.163 1_556 S
Mn64 O67 2.160 . S
Mn64 O68 2.221 . S
Mn64 O70 2.163 1_556 S
Mn64 O72 2.160 . S
Mn64 O82 2.221 1_556 S
O65 Mn66 2.087 . S
O65 C77 1.256 . S
Mn66 O65 2.087 . S
Mn66 O73 2.089 1_554 S
Mn66 O82 2.290 . S
Mn66 O83 2.251 . S
O67 Mn64 2.160 . S
O67 C78 1.239 . S
O68 Mn64 2.221 . S
O68 Mn69 2.290 . S
O68 C79 1.278 . S
Mn69 O68 2.290 . S
Mn69 O71 2.089 . S
Mn69 O74 2.251 . S
Mn69 O75 2.087 1_556 S
O70 Mn64 2.163 1_554 S
O70 C80 1.244 . S
O71 Mn69 2.089 . S
O71 C78 1.256 . S
O72 Mn64 2.160 . S
O72 C81 1.239 . S
O73 Mn66 2.089 1_556 S
O73 C81 1.256 . S
O74 Mn69 2.251 . S
O74 C79 1.241 . S
O75 Mn69 2.087 1_554 S
O75 C80 1.256 . S
C76 O82 1.278 . S
C76 O83 1.241 . S
C77 O63 1.244 . S
C77 O65 1.256 . S
C78 O67 1.239 . S
C78 O71 1.256 . S
C79 O68 1.278 . S
C79 O74 1.241 . S
C80 O70 1.244 . S
C80 O75 1.256 . S
C81 O72 1.239 . S
C81 O73 1.256 . S
O82 Mn64 2.221 1_554 S
O82 Mn66 2.290 . S
O82 C76 1.278 . S
O83 Mn66 2.251 . S
O83 C76 1.241 . S
O84 Mn85 2.163 . S
O84 C98 1.244 . S
Mn85 O84 2.163 . S
Mn85 O88 2.160 . S
Mn85 O89 2.221 . S
Mn85 O91 2.163 . S
Mn85 O93 2.160 . S
Mn85 O103 2.221 . S
O86 Mn87 2.087 . S
O86 C98 1.256 . S
Mn87 O86 2.087 . S
Mn87 O94 2.089 . S
Mn87 O103 2.290 . S
Mn87 O104 2.251 . S
O88 Mn85 2.160 . S
O88 C99 1.239 . S
O89 Mn85 2.221 . S
O89 Mn90 2.290 . S
O89 C100 1.278 . S
Mn90 O89 2.290 . S
Mn90 O92 2.089 . S
Mn90 O95 2.251 . S
Mn90 O96 2.087 . S
O91 Mn85 2.163 . S
O91 C101 1.244 . S
O92 Mn90 2.089 . S
O92 C99 1.256 . S
O93 Mn85 2.160 . S
O93 C102 1.239 . S
O94 Mn87 2.089 . S
O94 C102 1.256 . S
O95 Mn90 2.251 . S
O95 C100 1.241 . S
O96 Mn90 2.087 . S
O96 C101 1.256 . S
C97 O103 1.278 . S
C97 O104 1.241 . S
C98 O84 1.244 . S
C98 O86 1.256 . S
C99 O88 1.239 . S
C99 O92 1.256 . S
C100 O89 1.278 . S
C100 O95 1.241 . S
C101 O91 1.244 . S
C101 O96 1.256 . S
C102 O93 1.239 . S
C102 O94 1.256 . S
O103 Mn85 2.221 . S
O103 Mn87 2.290 . S
O103 C97 1.278 . S
O104 Mn87 2.251 . S
O104 C97 1.241 . S
O105 Mn106 2.163 . S
O105 C119 1.244 . S
Mn106 O105 2.163 . S
Mn106 O109 2.160 . S
Mn106 O110 2.221 . S
Mn106 O112 2.163 . S
Mn106 O114 2.160 . S
Mn106 O124 2.221 . S
O107 Mn108 2.087 . S
O107 C119 1.256 . S
Mn108 O107 2.087 . S
Mn108 O115 2.089 . S
Mn108 O124 2.290 . S
Mn108 O125 2.251 . S
O109 Mn106 2.160 . S
O109 C120 1.239 . S
O110 Mn106 2.221 . S
O110 Mn111 2.290 . S
O110 C121 1.278 . S
Mn111 O110 2.290 . S
Mn111 O113 2.089 . S
Mn111 O116 2.251 . S
Mn111 O117 2.087 . S
O112 Mn106 2.163 . S
O112 C122 1.244 . S
O113 Mn111 2.089 . S
O113 C120 1.256 . S
O114 Mn106 2.160 . S
O114 C123 1.239 . S
O115 Mn108 2.089 . S
O115 C123 1.256 . S
O116 Mn111 2.251 . S
O116 C121 1.241 . S
O117 Mn111 2.087 . S
O117 C122 1.256 . S
C118 O124 1.278 . S
C118 O125 1.241 . S
C119 O105 1.244 . S
C119 O107 1.256 . S
C120 O109 1.239 . S
C120 O113 1.256 . S
C121 O110 1.278 . S
C121 O116 1.241 . S
C122 O112 1.244 . S
C122 O117 1.256 . S
C123 O114 1.239 . S
C123 O115 1.256 . S
O124 Mn106 2.221 . S
O124 Mn108 2.290 . S
O124 C118 1.278 . S
O125 Mn108 2.251 . S
O125 C118 1.241 . S
H126 C132 0.930 . S
H127 C135 0.930 . S
H128 C136 0.930 . S
H129 C137 0.930 . S
H130 C140 0.930 . S
H131 C141 0.930 . S
C132 H126 0.930 . S
C132 C133 1.355 . S
C132 C134 1.415 . S
C133 C132 1.355 . S
C133 C135 1.419 . S
C134 C132 1.415 . S
C134 C139 1.425 . S
C134 C141 1.409 . S
C135 H127 0.930 . S
C135 C133 1.419 . S
C135 C136 1.362 . S
C136 H128 0.930 . S
C136 C135 1.362 . S
C136 C139 1.409 . S
C137 H129 0.930 . S
C137 C138 1.355 . S
C137 C139 1.415 . S
C138 C137 1.355 . S
C138 C140 1.419 . S
C139 C134 1.425 . S
C139 C136 1.409 . S
C139 C137 1.415 . S
C140 H130 0.930 . S
C140 C138 1.419 . S
C140 C141 1.362 . S
C141 H131 0.930 . S
C141 C134 1.409 . S
C141 C140 1.362 . S
H142 C148 0.930 . S
H143 C151 0.930 . S
H144 C152 0.930 . S
H145 C153 0.930 . S
H146 C156 0.930 . S
H147 C157 0.930 . S
C148 H142 0.930 . S
C148 C149 1.355 . S
C148 C150 1.415 . S
C149 C148 1.355 . S
C149 C151 1.419 . S
C150 C148 1.415 . S
C150 C155 1.425 . S
C150 C157 1.409 . S
C151 H143 0.930 . S
C151 C149 1.419 . S
C151 C152 1.362 . S
C152 H144 0.930 . S
C152 C151 1.362 . S
C152 C155 1.409 . S
C153 H145 0.930 . S
C153 C154 1.355 . S
C153 C155 1.415 . S
C154 C153 1.355 . S
C154 C156 1.419 . S
C155 C150 1.425 . S
C155 C152 1.409 . S
C155 C153 1.415 . S
C156 H146 0.930 . S
C156 C154 1.419 . S
C156 C157 1.362 . S
C157 H147 0.930 . S
C157 C150 1.409 . S
C157 C156 1.362 . S
H158 C164 0.930 . S
H159 C167 0.930 . S
H160 C168 0.930 . S
H161 C169 0.930 . S
H162 C172 0.930 . S
H163 C173 0.930 . S
C164 H158 0.930 . S
C164 C165 1.355 . S
C164 C166 1.415 . S
C165 C164 1.355 . S
C165 C167 1.419 . S
C166 C164 1.415 . S
C166 C171 1.425 . S
C166 C173 1.409 . S
C167 H159 0.930 . S
C167 C165 1.419 . S
C167 C168 1.362 . S
C168 H160 0.930 . S
C168 C167 1.362 . S
C168 C171 1.409 . S
C169 H161 0.930 . S
C169 C170 1.355 . S
C169 C171 1.415 . S
C170 C169 1.355 . S
C170 C172 1.419 . S
C171 C166 1.425 . S
C171 C168 1.409 . S
C171 C169 1.415 . S
C172 H162 0.930 . S
C172 C170 1.419 . S
C172 C173 1.362 . S
C173 H163 0.930 . S
C173 C166 1.409 . S
C173 C172 1.362 . S
H174 C180 0.930 . S
H175 C183 0.930 . S
H176 C184 0.930 . S
H177 C185 0.930 . S
H178 C188 0.930 . S
H179 C189 0.930 . S
C180 H174 0.930 . S
C180 C181 1.355 . S
C180 C182 1.415 . S
C181 C180 1.355 . S
C181 C183 1.419 . S
C182 C180 1.415 . S
C182 C187 1.425 . S
C182 C189 1.409 . S
C183 H175 0.930 . S
C183 C181 1.419 . S
C183 C184 1.362 . S
C184 H176 0.930 . S
C184 C183 1.362 . S
C184 C187 1.409 . S
C185 H177 0.930 . S
C185 C186 1.355 . S
C185 C187 1.415 . S
C186 C185 1.355 . S
C186 C188 1.419 . S
C187 C182 1.425 . S
C187 C184 1.409 . S
C187 C185 1.415 . S
C188 H178 0.930 . S
C188 C186 1.419 . S
C188 C189 1.362 . S
C189 H179 0.930 . S
C189 C182 1.409 . S
C189 C188 1.362 . S
H190 C196 0.930 . S
H191 C199 0.930 . S
H192 C200 0.930 . S
H193 C201 0.930 . S
H194 C204 0.930 . S
H195 C205 0.930 . S
C196 H190 0.930 . S
C196 C197 1.355 . S
C196 C198 1.415 . S
C197 C196 1.355 . S
C197 C199 1.419 . S
C198 C196 1.415 . S
C198 C203 1.425 . S
C198 C205 1.409 . S
C199 H191 0.930 . S
C199 C197 1.419 . S
C199 C200 1.362 . S
C200 H192 0.930 . S
C200 C199 1.362 . S
C200 C203 1.409 . S
C201 H193 0.930 . S
C201 C202 1.355 . S
C201 C203 1.415 . S
C202 C201 1.355 . S
C202 C204 1.419 . S
C203 C198 1.425 . S
C203 C200 1.409 . S
C203 C201 1.415 . S
C204 H194 0.930 . S
C204 C202 1.419 . S
C204 C205 1.362 . S
C205 H195 0.930 . S
C205 C198 1.409 . S
C205 C204 1.362 . S
H206 C212 0.930 . S
H207 C215 0.930 . S
H208 C216 0.930 . S
H209 C217 0.930 . S
H210 C220 0.930 . S
H211 C221 0.930 . S
C212 H206 0.930 . S
C212 C213 1.355 . S
C212 C214 1.415 . S
C213 C212 1.355 . S
C213 C215 1.419 . S
C214 C212 1.415 . S
C214 C219 1.425 . S
C214 C221 1.409 . S
C215 H207 0.930 . S
C215 C213 1.419 . S
C215 C216 1.362 . S
C216 H208 0.930 . S
C216 C215 1.362 . S
C216 C219 1.409 . S
C217 H209 0.930 . S
C217 C218 1.355 . S
C217 C219 1.415 . S
C218 C217 1.355 . S
C218 C220 1.419 . S
C219 C214 1.425 . S
C219 C216 1.409 . S
C219 C217 1.415 . S
C220 H210 0.930 . S
C220 C218 1.419 . S
C220 C221 1.362 . S
C221 H211 0.930 . S
C221 C214 1.409 . S
C221 C220 1.362 . S
H222 C228 0.930 . S
H223 C231 0.923 1_556 S
H224 C232 0.930 . S
H225 C233 0.931 . S
H226 C236 0.930 . S
H227 C237 0.930 . S
C228 H222 0.930 . S
C228 C229 1.355 . S
C228 C230 1.415 . S
C229 C228 1.355 . S
C229 C231 1.428 . S
C230 C228 1.415 . S
C230 C235 1.425 . S
C230 C237 1.409 . S
C231 H223 0.923 1_554 S
C231 C229 1.428 . S
C231 C232 1.361 1_554 S
C232 H224 0.930 . S
C232 C231 1.361 1_556 S
C232 C235 1.409 1_556 S
C233 H225 0.931 . S
C233 C234 1.355 . S
C233 C235 1.415 . S
C234 C233 1.355 . S
C234 C236 1.419 . S
C235 C230 1.425 . S
C235 C232 1.409 1_554 S
C235 C233 1.415 . S
C236 H226 0.930 . S
C236 C234 1.419 . S
C236 C237 1.362 . S
C237 H227 0.930 . S
C237 C230 1.409 . S
C237 C236 1.362 . S
H238 C244 0.930 . S
H239 C247 0.930 . S
H240 C248 0.930 . S
H241 C249 0.930 . S
H242 C252 0.930 . S
H243 C253 0.930 . S
C244 H238 0.930 . S
C244 C245 1.355 . S
C244 C246 1.415 . S
C245 C244 1.355 . S
C245 C247 1.419 1_455 S
C246 C244 1.415 . S
C246 C251 1.425 1_455 S
C246 C253 1.409 . S
C247 H239 0.930 . S
C247 C245 1.419 1_655 S
C247 C248 1.362 . S
C248 H240 0.930 . S
C248 C247 1.362 . S
C248 C251 1.409 . S
C249 H241 0.930 . S
C249 C250 1.355 . S
C249 C251 1.415 . S
C250 C249 1.355 . S
C250 C252 1.419 1_655 S
C251 C246 1.425 1_655 S
C251 C248 1.409 . S
C251 C249 1.415 . S
C252 H242 0.930 . S
C252 C250 1.419 1_455 S
C252 C253 1.362 . S
C253 H243 0.930 . S
C253 C246 1.409 . S
C253 C252 1.362 . S
H254 C260 0.930 . S
H255 C263 0.930 . S
H256 C264 0.930 . S
H257 C265 0.930 . S
H258 C268 0.930 . S
H259 C269 0.930 . S
C260 H254 0.930 . S
C260 C261 1.355 . S
C260 C262 1.415 . S
C261 C260 1.355 . S
C261 C263 1.419 . S
C262 C260 1.415 . S
C262 C267 1.425 1_545 S
C262 C269 1.409 . S
C263 H255 0.930 . S
C263 C261 1.419 . S
C263 C264 1.362 1_545 S
C264 H256 0.930 . S
C264 C263 1.362 1_565 S
C264 C267 1.409 . S
C265 H257 0.930 . S
C265 C266 1.355 . S
C265 C267 1.415 . S
C266 C265 1.355 . S
C266 C268 1.419 . S
C267 C262 1.425 1_565 S
C267 C264 1.409 . S
C267 C265 1.415 . S
C268 H258 0.930 . S
C268 C266 1.419 . S
C268 C269 1.362 1_565 S
C269 H259 0.930 . S
C269 C262 1.409 . S
C269 C268 1.362 1_545 S
H270 C276 0.930 . S
H271 C279 0.930 . S
H272 C280 0.930 . S
H273 C281 0.930 . S
H274 C284 0.930 . S
H275 C285 0.930 . S
C276 H270 0.930 . S
C276 C277 1.355 . S
C276 C278 1.415 . S
C277 C276 1.355 . S
C277 C279 1.419 . S
C278 C276 1.415 . S
C278 C283 1.425 . S
C278 C285 1.409 . S
C279 H271 0.930 . S
C279 C277 1.419 . S
C279 C280 1.362 . S
C280 H272 0.930 . S
C280 C279 1.362 . S
C280 C283 1.409 . S
C281 H273 0.930 . S
C281 C282 1.355 . S
C281 C283 1.415 . S
C282 C281 1.355 . S
C282 C284 1.419 . S
C283 C278 1.425 . S
C283 C280 1.409 . S
C283 C281 1.415 . S
C284 H274 0.930 . S
C284 C282 1.419 . S
C284 C285 1.362 . S
C285 H275 0.930 . S
C285 C278 1.409 . S
C285 C284 1.362 . S
H286 C292 0.930 . S
H287 C295 0.930 . S
H288 C296 0.930 . S
H289 C297 0.930 . S
H290 C300 0.930 . S
H291 C301 0.930 . S
C292 H286 0.930 . S
C292 C293 1.355 . S
C292 C294 1.415 . S
C293 C292 1.355 . S
C293 C295 1.419 1_455 S
C294 C292 1.415 . S
C294 C299 1.425 1_455 S
C294 C301 1.409 . S
C295 H287 0.930 . S
C295 C293 1.419 1_655 S
C295 C296 1.362 . S
C296 H288 0.930 . S
C296 C295 1.362 . S
C296 C299 1.409 . S
C297 H289 0.930 . S
C297 C298 1.355 . S
C297 C299 1.415 . S
C298 C297 1.355 . S
C298 C300 1.419 1_655 S
C299 C294 1.425 1_655 S
C299 C296 1.409 . S
C299 C297 1.415 . S
C300 H290 0.930 . S
C300 C298 1.419 1_455 S
C300 C301 1.362 . S
C301 H291 0.930 . S
C301 C294 1.409 . S
C301 C300 1.362 . S
H302 C308 0.930 . S
H303 C311 0.930 . S
H304 C312 0.930 . S
H305 C313 0.930 . S
H306 C316 0.930 . S
H307 C317 0.930 . S
C308 H302 0.930 . S
C308 C309 1.355 . S
C308 C310 1.415 . S
C309 C308 1.355 . S
C309 C311 1.419 1_565 S
C310 C308 1.415 . S
C310 C315 1.425 1_565 S
C310 C317 1.409 . S
C311 H303 0.930 . S
C311 C309 1.419 1_545 S
C311 C312 1.362 . S
C312 H304 0.930 . S
C312 C311 1.362 . S
C312 C315 1.409 . S
C313 H305 0.930 . S
C313 C314 1.355 . S
C313 C315 1.415 . S
C314 C313 1.355 . S
C314 C316 1.419 1_545 S
C315 C310 1.425 1_545 S
C315 C312 1.409 . S
C315 C313 1.415 . S
C316 H306 0.930 . S
C316 C314 1.419 1_565 S
C316 C317 1.362 . S
C317 H307 0.930 . S
C317 C310 1.409 . S
C317 C316 1.362 . S
H318 C324 0.930 . S
H319 C327 0.930 . S
H320 C328 0.930 . S
H321 C329 0.930 . S
H322 C332 0.930 . S
H323 C333 0.930 . S
C324 H318 0.930 . S
C324 C325 1.355 . S
C324 C326 1.415 . S
C325 C324 1.355 . S
C325 C327 1.419 . S
C326 C324 1.415 . S
C326 C331 1.425 . S
C326 C333 1.409 . S
C327 H319 0.930 . S
C327 C325 1.419 . S
C327 C328 1.362 . S
C328 H320 0.930 . S
C328 C327 1.362 . S
C328 C331 1.409 . S
C329 H321 0.930 . S
C329 C330 1.355 . S
C329 C331 1.415 . S
C330 C329 1.355 . S
C330 C332 1.419 . S
C331 C326 1.425 . S
C331 C328 1.409 . S
C331 C329 1.415 . S
C332 H322 0.930 . S
C332 C330 1.419 . S
C332 C333 1.362 . S
C333 H323 0.930 . S
C333 C326 1.409 . S
C333 C332 1.362 . S
H334 C340 0.930 . S
H335 C343 0.930 . S
H336 C344 0.930 . S
H337 C345 0.930 . S
H338 C348 0.930 . S
H339 C349 0.930 . S
C340 H334 0.930 . S
C340 C341 1.355 . S
C340 C342 1.415 . S
C341 C340 1.355 . S
C341 C343 1.419 . S
C342 C340 1.415 . S
C342 C347 1.425 1_655 S
C342 C349 1.409 . S
C343 H335 0.930 . S
C343 C341 1.419 . S
C343 C344 1.362 1_655 S
C344 H336 0.930 . S
C344 C343 1.362 1_455 S
C344 C347 1.409 . S
C345 H337 0.930 . S
C345 C346 1.355 . S
C345 C347 1.415 . S
C346 C345 1.355 . S
C346 C348 1.419 . S
C347 C342 1.425 1_455 S
C347 C344 1.409 . S
C347 C345 1.415 . S
C348 H338 0.930 . S
C348 C346 1.419 . S
C348 C349 1.362 1_455 S
C349 H339 0.930 . S
C349 C342 1.409 . S
C349 C348 1.362 1_655 S
H350 C356 0.930 . S
H351 C359 0.930 . S
H352 C360 0.930 . S
H353 C361 0.930 . S
H354 C364 0.930 . S
H355 C365 0.930 . S
C356 H350 0.930 . S
C356 C357 1.355 . S
C356 C358 1.415 . S
C357 C356 1.355 . S
C357 C359 1.419 . S
C358 C356 1.415 . S
C358 C363 1.425 1_565 S
C358 C365 1.409 . S
C359 H351 0.930 . S
C359 C357 1.419 . S
C359 C360 1.362 1_565 S
C360 H352 0.930 . S
C360 C359 1.362 1_545 S
C360 C363 1.409 . S
C361 H353 0.930 . S
C361 C362 1.355 . S
C361 C363 1.415 . S
C362 C361 1.355 . S
C362 C364 1.419 . S
C363 C358 1.425 1_545 S
C363 C360 1.409 . S
C363 C361 1.415 . S
C364 H354 0.930 . S
C364 C362 1.419 . S
C364 C365 1.362 1_545 S
C365 H355 0.930 . S
C365 C358 1.409 . S
C365 C364 1.362 1_565 S
H366 C372 0.930 . S
H367 C375 0.930 . S
H368 C376 0.930 . S
H369 C377 0.930 . S
H370 C380 0.930 . S
H371 C381 0.930 . S
C372 H366 0.930 . S
C372 C373 1.355 . S
C372 C374 1.415 . S
C373 C372 1.355 . S
C373 C375 1.419 . S
C374 C372 1.415 . S
C374 C379 1.425 . S
C374 C381 1.409 . S
C375 H367 0.930 . S
C375 C373 1.419 . S
C375 C376 1.362 . S
C376 H368 0.930 . S
C376 C375 1.362 . S
C376 C379 1.409 . S
C377 H369 0.930 . S
C377 C378 1.355 . S
C377 C379 1.415 . S
C378 C377 1.355 . S
C378 C380 1.419 . S
C379 C374 1.425 . S
C379 C376 1.409 . S
C379 C377 1.415 . S
C380 H370 0.930 . S
C380 C378 1.419 . S
C380 C381 1.362 . S
C381 H371 0.930 . S
C381 C374 1.409 . S
C381 C380 1.362 . S
H382 C388 0.930 . S
H383 C391 0.930 . S
H384 C392 0.930 . S
H385 C393 0.930 . S
H386 C396 0.930 . S
H387 C397 0.930 . S
C388 H382 0.930 . S
C388 C389 1.355 . S
C388 C390 1.415 . S
C389 C388 1.355 . S
C389 C391 1.419 . S
C390 C388 1.415 . S
C390 C395 1.425 1_455 S
C390 C397 1.409 . S
C391 H383 0.930 . S
C391 C389 1.419 . S
C391 C392 1.362 1_455 S
C392 H384 0.930 . S
C392 C391 1.362 1_655 S
C392 C395 1.409 . S
C393 H385 0.930 . S
C393 C394 1.355 . S
C393 C395 1.415 . S
C394 C393 1.355 . S
C394 C396 1.419 . S
C395 C390 1.425 1_655 S
C395 C392 1.409 . S
C395 C393 1.415 . S
C396 H386 0.930 . S
C396 C394 1.419 . S
C396 C397 1.362 1_655 S
C397 H387 0.930 . S
C397 C390 1.409 . S
C397 C396 1.362 1_455 S
H398 C404 0.925 1_565 S
H399 C407 0.930 . S
H400 C408 0.930 . S
H401 C409 0.930 . S
H402 C412 0.930 . S
H403 C413 0.930 . S
C404 H398 0.925 1_545 S
C404 C405 1.355 . S
C404 C406 1.415 1_545 S
C405 C404 1.355 . S
C405 C407 1.419 . S
C406 C404 1.415 1_565 S
C406 C411 1.425 1_565 S
C406 C413 1.409 . S
C407 H399 0.930 . S
C407 C405 1.419 . S
C407 C408 1.362 . S
C408 H400 0.930 . S
C408 C407 1.362 . S
C408 C411 1.409 . S
C409 H401 0.930 . S
C409 C410 1.355 . S
C409 C411 1.415 1_565 S
C410 C409 1.355 . S
C410 C412 1.419 . S
C411 C406 1.425 1_545 S
C411 C408 1.409 . S
C411 C409 1.415 1_545 S
C412 H402 0.930 . S
C412 C410 1.419 . S
C412 C413 1.362 . S
C413 H403 0.930 . S
C413 C406 1.409 . S
C413 C412 1.362 . S
C133 C102 0.945 . S
C138 C13 0.980 . S
C149 C123 1.019 . S
C154 C34 0.957 . S
C165 C18 1.005 . S
C170 C55 0.992 . S
C181 C39 0.914 . S
C186 C76 0.918 . S
C197 C60 0.918 . S
C202 C97 0.839 . S
C213 C81 0.913 . S
C218 C118 0.856 . S
C229 C14 1.184 . S
C234 C77 1.177 . S
C245 C98 1.192 . S
C250 C35 1.196 . S
C261 C119 1.148 . S
C266 C56 1.138 . S
C277 C57 1.268 . S
C282 C120 1.280 . S
C293 C15 1.274 . S
C298 C78 1.281 . S
C309 C99 1.281 . S
C314 C36 1.274 . S
C325 C122 1.187 . S
C330 C16 1.216 . S
C341 C37 1.134 . S
C346 C17 1.169 . S
C357 C58 1.137 . S
C362 C38 1.167 . S
C373 C59 1.157 . S
C378 C79 1.165 . S
C389 C100 1.145 . S
C394 C80 1.163 . S
C405 C121 1.174 . S
C410 C101 1.226 . S
