# Generated by pormake.
# Topology umr, (4)-cn, num edge types: 1
# Building blocks:
#     Node 0, Type 0, BuildingBlock: QUQFOY_clean_sbu_1, # of connection points: 4
#     Node 1, Type 0, BuildingBlock: QUQFOY_clean_sbu_1, # of connection points: 4
#     Node 2, Type 0, BuildingBlock: QUQFOY_clean_sbu_1, # of connection points: 4
#     Node 3, Type 0, BuildingBlock: QUQFOY_clean_sbu_1, # of connection points: 4
#     Node 4, Type 0, BuildingBlock: QUQFOY_clean_sbu_1, # of connection points: 4
#     Node 5, Type 0, BuildingBlock: QUQFOY_clean_sbu_1, # of connection points: 4
#     Node 6, Type 0, BuildingBlock: QUQFOY_clean_sbu_1, # of connection points: 4
#     Node 7, Type 0, BuildingBlock: QUQFOY_clean_sbu_1, # of connection points: 4
#     Node 8, Type 0, BuildingBlock: QUQFOY_clean_sbu_1, # of connection points: 4
#     Node 9, Type 0, BuildingBlock: QUQFOY_clean_sbu_1, # of connection points: 4
#     Node 10, Type 0, BuildingBlock: QUQFOY_clean_sbu_1, # of connection points: 4
#     Node 11, Type 0, BuildingBlock: QUQFOY_clean_sbu_1, # of connection points: 4
#     Node 12, Type 0, BuildingBlock: QUQFOY_clean_sbu_1, # of connection points: 4
#     Node 13, Type 0, BuildingBlock: QUQFOY_clean_sbu_1, # of connection points: 4
#     Node 14, Type 0, BuildingBlock: QUQFOY_clean_sbu_1, # of connection points: 4
#     Node 15, Type 0, BuildingBlock: QUQFOY_clean_sbu_1, # of connection points: 4
#     Node 16, Type 0, BuildingBlock: QUQFOY_clean_sbu_1, # of connection points: 4
#     Node 17, Type 0, BuildingBlock: QUQFOY_clean_sbu_1, # of connection points: 4
#     Node 18, Type 0, BuildingBlock: QUQFOY_clean_sbu_1, # of connection points: 4
#     Node 19, Type 0, BuildingBlock: QUQFOY_clean_sbu_1, # of connection points: 4
#     Node 20, Type 0, BuildingBlock: QUQFOY_clean_sbu_1, # of connection points: 4
#     Node 21, Type 0, BuildingBlock: QUQFOY_clean_sbu_1, # of connection points: 4
#     Node 22, Type 0, BuildingBlock: QUQFOY_clean_sbu_1, # of connection points: 4
#     Node 23, Type 0, BuildingBlock: QUQFOY_clean_sbu_1, # of connection points: 4
#     Node 24, Type 0, BuildingBlock: QUQFOY_clean_sbu_1, # of connection points: 4
#     Node 25, Type 0, BuildingBlock: QUQFOY_clean_sbu_1, # of connection points: 4
#     Node 26, Type 0, BuildingBlock: QUQFOY_clean_sbu_1, # of connection points: 4
#     Node 27, Type 0, BuildingBlock: QUQFOY_clean_sbu_1, # of connection points: 4
#     Node 28, Type 0, BuildingBlock: QUQFOY_clean_sbu_1, # of connection points: 4
#     Node 29, Type 0, BuildingBlock: QUQFOY_clean_sbu_1, # of connection points: 4
#     Node 30, Type 0, BuildingBlock: QUQFOY_clean_sbu_1, # of connection points: 4
#     Node 31, Type 0, BuildingBlock: QUQFOY_clean_sbu_1, # of connection points: 4
#     Edge 32, Type (0, 0), BuildingBlock: XUDNAN_clean_linker_2, # of connection points: 2
#     Edge 33, Type (0, 0), BuildingBlock: XUDNAN_clean_linker_2, # of connection points: 2
#     Edge 34, Type (0, 0), BuildingBlock: XUDNAN_clean_linker_2, # of connection points: 2
#     Edge 35, Type (0, 0), BuildingBlock: XUDNAN_clean_linker_2, # of connection points: 2
#     Edge 36, Type (0, 0), BuildingBlock: XUDNAN_clean_linker_2, # of connection points: 2
#     Edge 37, Type (0, 0), BuildingBlock: XUDNAN_clean_linker_2, # of connection points: 2
#     Edge 38, Type (0, 0), BuildingBlock: XUDNAN_clean_linker_2, # of connection points: 2
#     Edge 39, Type (0, 0), BuildingBlock: XUDNAN_clean_linker_2, # of connection points: 2
#     Edge 40, Type (0, 0), BuildingBlock: XUDNAN_clean_linker_2, # of connection points: 2
#     Edge 41, Type (0, 0), BuildingBlock: XUDNAN_clean_linker_2, # of connection points: 2
#     Edge 42, Type (0, 0), BuildingBlock: XUDNAN_clean_linker_2, # of connection points: 2
#     Edge 43, Type (0, 0), BuildingBlock: XUDNAN_clean_linker_2, # of connection points: 2
#     Edge 44, Type (0, 0), BuildingBlock: XUDNAN_clean_linker_2, # of connection points: 2
#     Edge 45, Type (0, 0), BuildingBlock: XUDNAN_clean_linker_2, # of connection points: 2
#     Edge 46, Type (0, 0), BuildingBlock: XUDNAN_clean_linker_2, # of connection points: 2
#     Edge 47, Type (0, 0), BuildingBlock: XUDNAN_clean_linker_2, # of connection points: 2
#     Edge 48, Type (0, 0), BuildingBlock: XUDNAN_clean_linker_2, # of connection points: 2
#     Edge 49, Type (0, 0), BuildingBlock: XUDNAN_clean_linker_2, # of connection points: 2
#     Edge 50, Type (0, 0), BuildingBlock: XUDNAN_clean_linker_2, # of connection points: 2
#     Edge 51, Type (0, 0), BuildingBlock: XUDNAN_clean_linker_2, # of connection points: 2
#     Edge 52, Type (0, 0), BuildingBlock: XUDNAN_clean_linker_2, # of connection points: 2
#     Edge 53, Type (0, 0), BuildingBlock: XUDNAN_clean_linker_2, # of connection points: 2
#     Edge 54, Type (0, 0), BuildingBlock: XUDNAN_clean_linker_2, # of connection points: 2
#     Edge 55, Type (0, 0), BuildingBlock: XUDNAN_clean_linker_2, # of connection points: 2
#     Edge 56, Type (0, 0), BuildingBlock: XUDNAN_clean_linker_2, # of connection points: 2
#     Edge 57, Type (0, 0), BuildingBlock: XUDNAN_clean_linker_2, # of connection points: 2
#     Edge 58, Type (0, 0), BuildingBlock: XUDNAN_clean_linker_2, # of connection points: 2
#     Edge 59, Type (0, 0), BuildingBlock: XUDNAN_clean_linker_2, # of connection points: 2
#     Edge 60, Type (0, 0), BuildingBlock: XUDNAN_clean_linker_2, # of connection points: 2
#     Edge 61, Type (0, 0), BuildingBlock: XUDNAN_clean_linker_2, # of connection points: 2
#     Edge 62, Type (0, 0), BuildingBlock: XUDNAN_clean_linker_2, # of connection points: 2
#     Edge 63, Type (0, 0), BuildingBlock: XUDNAN_clean_linker_2, # of connection points: 2
#     Edge 64, Type (0, 0), BuildingBlock: XUDNAN_clean_linker_2, # of connection points: 2
#     Edge 65, Type (0, 0), BuildingBlock: XUDNAN_clean_linker_2, # of connection points: 2
#     Edge 66, Type (0, 0), BuildingBlock: XUDNAN_clean_linker_2, # of connection points: 2
#     Edge 67, Type (0, 0), BuildingBlock: XUDNAN_clean_linker_2, # of connection points: 2
#     Edge 68, Type (0, 0), BuildingBlock: XUDNAN_clean_linker_2, # of connection points: 2
#     Edge 69, Type (0, 0), BuildingBlock: XUDNAN_clean_linker_2, # of connection points: 2
#     Edge 70, Type (0, 0), BuildingBlock: XUDNAN_clean_linker_2, # of connection points: 2
#     Edge 71, Type (0, 0), BuildingBlock: XUDNAN_clean_linker_2, # of connection points: 2
#     Edge 72, Type (0, 0), BuildingBlock: XUDNAN_clean_linker_2, # of connection points: 2
#     Edge 73, Type (0, 0), BuildingBlock: XUDNAN_clean_linker_2, # of connection points: 2
#     Edge 74, Type (0, 0), BuildingBlock: XUDNAN_clean_linker_2, # of connection points: 2
#     Edge 75, Type (0, 0), BuildingBlock: XUDNAN_clean_linker_2, # of connection points: 2
#     Edge 76, Type (0, 0), BuildingBlock: XUDNAN_clean_linker_2, # of connection points: 2
#     Edge 77, Type (0, 0), BuildingBlock: XUDNAN_clean_linker_2, # of connection points: 2
#     Edge 78, Type (0, 0), BuildingBlock: XUDNAN_clean_linker_2, # of connection points: 2
#     Edge 79, Type (0, 0), BuildingBlock: XUDNAN_clean_linker_2, # of connection points: 2
#     Edge 80, Type (0, 0), BuildingBlock: XUDNAN_clean_linker_2, # of connection points: 2
#     Edge 81, Type (0, 0), BuildingBlock: XUDNAN_clean_linker_2, # of connection points: 2
#     Edge 82, Type (0, 0), BuildingBlock: XUDNAN_clean_linker_2, # of connection points: 2
#     Edge 83, Type (0, 0), BuildingBlock: XUDNAN_clean_linker_2, # of connection points: 2
#     Edge 84, Type (0, 0), BuildingBlock: XUDNAN_clean_linker_2, # of connection points: 2
#     Edge 85, Type (0, 0), BuildingBlock: XUDNAN_clean_linker_2, # of connection points: 2
#     Edge 86, Type (0, 0), BuildingBlock: XUDNAN_clean_linker_2, # of connection points: 2
#     Edge 87, Type (0, 0), BuildingBlock: XUDNAN_clean_linker_2, # of connection points: 2
#     Edge 88, Type (0, 0), BuildingBlock: XUDNAN_clean_linker_2, # of connection points: 2
#     Edge 89, Type (0, 0), BuildingBlock: XUDNAN_clean_linker_2, # of connection points: 2
#     Edge 90, Type (0, 0), BuildingBlock: XUDNAN_clean_linker_2, # of connection points: 2
#     Edge 91, Type (0, 0), BuildingBlock: XUDNAN_clean_linker_2, # of connection points: 2
#     Edge 92, Type (0, 0), BuildingBlock: XUDNAN_clean_linker_2, # of connection points: 2
#     Edge 93, Type (0, 0), BuildingBlock: XUDNAN_clean_linker_2, # of connection points: 2
#     Edge 94, Type (0, 0), BuildingBlock: XUDNAN_clean_linker_2, # of connection points: 2
#     Edge 95, Type (0, 0), BuildingBlock: XUDNAN_clean_linker_2, # of connection points: 2
# Relax obj value: 0.051
# Max RMSD: 0.110
# Mean RMSD: 0.110
data_MOF--net-umr--node1-QUQFOY_clean_sbu_1--edge1-XUDNAN_clean_linker_2
_symmetry_space_group_name_H-M    P1
_symmetry_Int_Tables_number       1
_symmetry_cell_setting            triclinic
loop_
_symmetry_equiv_pos_as_xyz
'x, y, z'
_cell_length_a     86.006446
_cell_length_b     86.039245
_cell_length_c     28.150748
_cell_angle_alpha  89.999304
_cell_angle_beta   90.009959
_cell_angle_gamma 89.978736
loop_
_atom_site_label
_atom_site_type_symbol
_atom_site_fract_x
_atom_site_fract_y
_atom_site_fract_z
_atom_type_partial_charge
O0 O 0.16808 0.29012 0.17278 0.0
Cd1 Cd 0.16897 0.30434 0.11368 0.0
Cd2 Cd 0.16974 0.27745 0.06837 0.0
O3 O 0.16153 0.26915 0.13259 0.0
O4 O 0.15993 0.32483 0.13179 0.0
O5 O 0.14828 0.30816 0.08332 0.0
C6 C 0.14797 0.32112 0.10653 0.0
C7 C 0.15878 0.27031 0.99592 0.0
C8 C 0.16327 0.27614 0.17203 0.0
C9 C 0.19835 0.29694 0.06351 0.0
O10 O 0.19292 0.28323 0.06167 0.0
O11 O 0.18996 0.30795 0.07933 0.0
O12 O 0.16686 0.26064 0.02074 0.0
O13 O 0.15604 0.28386 0.01385 0.0
O14 O 0.9637 0.916 0.43459 0.0
Cd15 Cd 0.94934 0.91608 0.37558 0.0
Cd16 Cd 0.97655 0.91803 0.33047 0.0
O17 O 0.98494 0.91012 0.39477 0.0
O18 O 0.92911 0.90698 0.39599 0.0
O19 O 0.94555 0.895 0.34758 0.0
C20 C 0.93278 0.89479 0.37175 0.0
C21 C 0.98481 0.90753 0.25855 0.0
C22 C 0.97783 0.91164 0.43407 0.0
C23 C 0.95555 0.94551 0.32396 0.0
O24 O 0.96956 0.94084 0.32344 0.0
O25 O 0.94489 0.93661 0.33937 0.0
O26 O 0.9938 0.91621 0.28383 0.0
O27 O 0.97134 0.90396 0.27571 0.0
O28 O 0.3355 0.71567 0.67368 0.0
Cd29 Cd 0.33455 0.70121 0.61497 0.0
Cd30 Cd 0.33445 0.72845 0.5681 0.0
O31 O 0.34133 0.73687 0.63346 0.0
O32 O 0.34305 0.68056 0.63438 0.0
O33 O 0.3553 0.69675 0.5858 0.0
C34 C 0.35522 0.68389 0.60958 0.0
C35 C 0.34655 0.73672 0.49841 0.0
C36 C 0.33978 0.72983 0.67288 0.0
C37 C 0.30578 0.70878 0.5606 0.0
O38 O 0.31153 0.72233 0.5573 0.0
O39 O 0.31367 0.69788 0.57936 0.0
O40 O 0.33752 0.74576 0.52231 0.0
O41 O 0.34946 0.7231 0.51564 0.0
O42 O 0.55013 0.08115 0.93501 0.0
Cd43 Cd 0.56077 0.07994 0.86929 0.0
Cd44 Cd 0.53005 0.07761 0.84605 0.0
O45 O 0.52571 0.08527 0.9149 0.0
O46 O 0.58314 0.08231 0.88629 0.0
O47 O 0.57018 0.10008 0.84577 0.0
C48 C 0.58292 0.09572 0.86611 0.0
C49 C 0.52281 0.08952 0.7752 0.0
C50 C 0.53624 0.08452 0.9466 0.0
C51 C 0.54938 0.05026 0.82452 0.0
O52 O 0.53574 0.05461 0.83556 0.0
O53 O 0.56082 0.05942 0.83055 0.0
O54 O 0.51278 0.0821 0.80079 0.0
O55 O 0.53664 0.09143 0.79233 0.0
O56 O 0.16363 0.71237 0.32606 0.0
Cd57 Cd 0.16831 0.70228 0.39095 0.0
Cd58 Cd 0.17403 0.73334 0.41073 0.0
O59 O 0.16522 0.73734 0.34254 0.0
O60 O 0.16089 0.68074 0.37857 0.0
O61 O 0.15043 0.69602 0.43319 0.0
C62 C 0.15044 0.68296 0.41057 0.0
C63 C 0.16501 0.746 0.47902 0.0
C64 C 0.16227 0.72646 0.31325 0.0
C65 C 0.20066 0.71102 0.42266 0.0
O66 O 0.19651 0.72515 0.4185 0.0
O67 O 0.19094 0.70014 0.41528 0.0
O68 O 0.17323 0.75315 0.44748 0.0
O69 O 0.16103 0.73179 0.47042 0.0
O70 O 0.53304 0.91398 0.57779 0.0
Cd71 Cd 0.54999 0.9164 0.62912 0.0
Cd72 Cd 0.52216 0.9184 0.68363 0.0
O73 O 0.51191 0.91085 0.62111 0.0
O74 O 0.56889 0.91129 0.59123 0.0
O75 O 0.56116 0.89722 0.65258 0.0
C76 C 0.5707 0.89922 0.61769 0.0
C77 C 0.51399 0.90912 0.75765 0.0
C78 C 0.51861 0.91095 0.58086 0.0
C79 C 0.54374 0.94631 0.68007 0.0
O80 O 0.53024 0.94094 0.68838 0.0
O81 O 0.55391 0.93796 0.65945 0.0
O82 O 0.50535 0.91812 0.7323 0.0
O83 O 0.52701 0.90451 0.73958 0.0
O84 O 0.33841 0.29227 0.82561 0.0
Cd85 Cd 0.33479 0.30535 0.88599 0.0
Cd86 Cd 0.33037 0.27283 0.9159 0.0
O87 O 0.33818 0.26764 0.84722 0.0
O88 O 0.33689 0.32618 0.85562 0.0
O89 O 0.35313 0.31786 0.91067 0.0
C90 C 0.34933 0.32835 0.88002 0.0
C91 C 0.33965 0.26077 0.98511 0.0
C92 C 0.34003 0.27798 0.81538 0.0
C93 C 0.30378 0.29534 0.92803 0.0
O94 O 0.30806 0.28124 0.92441 0.0
O95 O 0.31309 0.30636 0.91794 0.0
O96 O 0.33129 0.25334 0.95459 0.0
O97 O 0.34364 0.27487 0.97508 0.0
O98 O 0.96027 0.08538 0.08834 0.0
Cd99 Cd 0.94511 0.08118 0.14387 0.0
Cd100 Cd 0.97283 0.07992 0.19226 0.0
O101 O 0.98196 0.08833 0.12913 0.0
O102 O 0.92464 0.08885 0.12007 0.0
O103 O 0.9366 0.09877 0.18296 0.0
C104 C 0.92492 0.09888 0.15408 0.0
C105 C 0.98019 0.09002 0.26603 0.0
C106 C 0.97467 0.08868 0.08983 0.0
C107 C 0.95321 0.05073 0.18811 0.0
O108 O 0.96639 0.05683 0.19656 0.0
O109 O 0.94246 0.05872 0.16894 0.0
O110 O 0.98958 0.08174 0.24089 0.0
O111 O 0.9668 0.0934 0.24791 0.0
O112 O 0.83394 0.71293 0.82674 0.0
Cd113 Cd 0.82873 0.70472 0.89383 0.0
Cd114 Cd 0.83299 0.73486 0.91265 0.0
O115 O 0.84247 0.73633 0.8448 0.0
O116 O 0.83253 0.68201 0.88689 0.0
O117 O 0.84637 0.69718 0.93458 0.0
C118 C 0.84402 0.68368 0.91583 0.0
C119 C 0.84385 0.74478 0.98238 0.0
C120 C 0.84026 0.72565 0.81431 0.0
C121 C 0.80094 0.72209 0.92643 0.0
O122 O 0.8092 0.73401 0.91803 0.0
O123 O 0.80681 0.70857 0.92267 0.0
O124 O 0.83882 0.75382 0.9492 0.0
O125 O 0.844 0.73 0.97423 0.0
O126 O 0.03559 0.08484 0.5886 0.0
Cd127 Cd 0.05071 0.08125 0.64458 0.0
Cd128 Cd 0.02322 0.07913 0.69279 0.0
O129 O 0.01385 0.08716 0.62945 0.0
O130 O 0.07094 0.08982 0.62203 0.0
O131 O 0.05809 0.09924 0.68396 0.0
C132 C 0.06995 0.09988 0.65585 0.0
C133 C 0.01573 0.08946 0.76612 0.0
C134 C 0.0211 0.08772 0.59012 0.0
C135 C 0.04383 0.05064 0.6894 0.0
O136 O 0.03044 0.05625 0.69782 0.0
O137 O 0.05424 0.05897 0.66995 0.0
O138 O 0.00652 0.08078 0.74162 0.0
O139 O 0.02902 0.09304 0.74766 0.0
O140 O 0.66807 0.28526 0.31556 0.0
Cd141 Cd 0.66934 0.29819 0.37731 0.0
Cd142 Cd 0.6707 0.26984 0.41925 0.0
O143 O 0.66289 0.26329 0.35252 0.0
O144 O 0.66034 0.31903 0.36319 0.0
O145 O 0.64881 0.30159 0.40932 0.0
C146 C 0.64848 0.31496 0.38834 0.0
C147 C 0.66039 0.25769 0.48641 0.0
C148 C 0.66386 0.2711 0.31427 0.0
C149 C 0.69887 0.29033 0.42756 0.0
O150 O 0.69355 0.27656 0.42914 0.0
O151 O 0.69051 0.30129 0.41124 0.0
O152 O 0.66916 0.25035 0.45688 0.0
O153 O 0.65685 0.27194 0.47696 0.0
O154 O 0.4591 0.92008 0.07935 0.0
Cd155 Cd 0.44295 0.92299 0.13309 0.0
Cd156 Cd 0.47036 0.92133 0.18496 0.0
O157 O 0.47944 0.91302 0.12175 0.0
O158 O 0.42311 0.91936 0.09833 0.0
O159 O 0.43134 0.90409 0.15638 0.0
C160 C 0.42124 0.90702 0.1236 0.0
C161 C 0.47708 0.91031 0.258 0.0
C162 C 0.47292 0.91489 0.08164 0.0
C163 C 0.4523 0.95137 0.18686 0.0
O164 O 0.4654 0.94471 0.19177 0.0
O165 O 0.44102 0.9442 0.16753 0.0
O166 O 0.48693 0.9182 0.23336 0.0
O167 O 0.46354 0.90777 0.23966 0.0
O168 O 0.83614 0.28905 0.67787 0.0
Cd169 Cd 0.83442 0.29899 0.61133 0.0
Cd170 Cd 0.82999 0.26898 0.58899 0.0
O171 O 0.83792 0.26438 0.65727 0.0
O172 O 0.84216 0.32063 0.62102 0.0
O173 O 0.85508 0.30284 0.58015 0.0
C174 C 0.85453 0.31662 0.59827 0.0
C175 C 0.8421 0.26092 0.51935 0.0
C176 C 0.83874 0.27494 0.68882 0.0
C177 C 0.80342 0.29011 0.57026 0.0
O178 O 0.80734 0.27612 0.57849 0.0
O179 O 0.8131 0.30106 0.57723 0.0
O180 O 0.83368 0.25146 0.54401 0.0
O181 O 0.84455 0.27467 0.5363 0.0
O182 O 0.47025 0.08463 0.44776 0.0
Cd183 Cd 0.4544 0.08353 0.39273 0.0
Cd184 Cd 0.48385 0.0804 0.34208 0.0
O185 O 0.49212 0.08769 0.40793 0.0
O186 O 0.43495 0.08919 0.42712 0.0
O187 O 0.44472 0.10346 0.36893 0.0
C188 C 0.43432 0.10157 0.40151 0.0
C189 C 0.49708 0.08812 0.27303 0.0
C190 C 0.48475 0.08745 0.4471 0.0
C191 C 0.46029 0.05394 0.33901 0.0
O192 O 0.47427 0.05849 0.33425 0.0
O193 O 0.45018 0.06267 0.35842 0.0
O194 O 0.50325 0.07885 0.30354 0.0
O195 O 0.48348 0.09368 0.28236 0.0
O196 O 0.66608 0.70996 0.17847 0.0
Cd197 Cd 0.67081 0.70159 0.11129 0.0
Cd198 Cd 0.66459 0.7312 0.09087 0.0
O199 O 0.65601 0.73272 0.15992 0.0
O200 O 0.66791 0.67875 0.11916 0.0
O201 O 0.65293 0.69335 0.073 0.0
C202 C 0.65597 0.67997 0.09167 0.0
C203 C 0.652 0.73899 0.02142 0.0
C204 C 0.65923 0.72241 0.19082 0.0
C205 C 0.69709 0.72021 0.07362 0.0
O206 O 0.68827 0.73174 0.08208 0.0
O207 O 0.69208 0.70642 0.07945 0.0
O208 O 0.65663 0.74901 0.05249 0.0
O209 O 0.65329 0.72441 0.03167 0.0
O210 O 0.03919 0.91538 0.93466 0.0
Cd211 Cd 0.05351 0.91605 0.87556 0.0
Cd212 Cd 0.02612 0.91717 0.83094 0.0
O213 O 0.01807 0.90886 0.89512 0.0
O214 O 0.07403 0.90731 0.89512 0.0
O215 O 0.05773 0.89522 0.84653 0.0
C216 C 0.07058 0.89515 0.8704 0.0
C217 C 0.01801 0.90688 0.75858 0.0
C218 C 0.02519 0.91061 0.93432 0.0
C219 C 0.04615 0.94537 0.82499 0.0
O220 O 0.03232 0.94022 0.82474 0.0
O221 O 0.05718 0.93681 0.83976 0.0
O222 O 0.00882 0.91513 0.78453 0.0
O223 O 0.0316 0.90355 0.77537 0.0
O224 O 0.66004 0.78519 0.67928 0.0
Cd225 Cd 0.66571 0.79596 0.61621 0.0
Cd226 Cd 0.67003 0.76488 0.5922 0.0
O227 O 0.66139 0.76039 0.66019 0.0
O228 O 0.65912 0.81766 0.63072 0.0
O229 O 0.64841 0.80355 0.57368 0.0
C230 C 0.64879 0.8163 0.5979 0.0
C231 C 0.65973 0.75352 0.52364 0.0
C232 C 0.65843 0.77098 0.69041 0.0
C233 C 0.69771 0.78604 0.58332 0.0
O234 O 0.69279 0.7721 0.58401 0.0
O235 O 0.68862 0.79723 0.59357 0.0
O236 O 0.66787 0.74558 0.55357 0.0
O237 O 0.65667 0.76784 0.53385 0.0
O238 O 0.46454 0.41846 0.92554 0.0
Cd239 Cd 0.45096 0.42463 0.86789 0.0
Cd240 Cd 0.47746 0.4178 0.82278 0.0
O241 O 0.48376 0.4075 0.88613 0.0
O242 O 0.4292 0.41963 0.8868 0.0
O243 O 0.44174 0.40767 0.82826 0.0
C244 C 0.42946 0.40901 0.85444 0.0
C245 C 0.48363 0.40693 0.74918 0.0
C246 C 0.47708 0.41061 0.92525 0.0
C247 C 0.46629 0.45132 0.82366 0.0
O248 O 0.4774 0.44169 0.81916 0.0
O249 O 0.45321 0.44681 0.83961 0.0
O250 O 0.4942 0.41254 0.77667 0.0
O251 O 0.46954 0.40642 0.76508 0.0
O252 O 0.8337 0.21522 0.1857 0.0
Cd253 Cd 0.82968 0.20165 0.12637 0.0
Cd254 Cd 0.83805 0.22892 0.08481 0.0
O255 O 0.84777 0.23327 0.15083 0.0
O256 O 0.83073 0.18027 0.15299 0.0
O257 O 0.84783 0.18937 0.10112 0.0
C258 C 0.84348 0.1784 0.12959 0.0
C259 C 0.84918 0.23851 0.01481 0.0
C260 C 0.8427 0.2269 0.18851 0.0
C261 C 0.80473 0.21818 0.07667 0.0
O262 O 0.8142 0.22948 0.0789 0.0
O263 O 0.80904 0.20465 0.08926 0.0
O264 O 0.84392 0.24762 0.04729 0.0
O265 O 0.8492 0.22376 0.02331 0.0
O266 O 0.03357 0.58652 0.43968 0.0
Cd267 Cd 0.05017 0.58428 0.38714 0.0
Cd268 Cd 0.02269 0.58365 0.33377 0.0
O269 O 0.01276 0.59141 0.39653 0.0
O270 O 0.0694 0.58934 0.42336 0.0
O271 O 0.06092 0.60358 0.36317 0.0
C272 C 0.07083 0.60151 0.39706 0.0
C273 C 0.01511 0.59372 0.26016 0.0
C274 C 0.01936 0.59044 0.43683 0.0
C275 C 0.04315 0.555 0.33471 0.0
O276 O 0.02971 0.56076 0.32801 0.0
O277 O 0.05371 0.56297 0.35483 0.0
O278 O 0.00599 0.58506 0.28499 0.0
O279 O 0.02834 0.59754 0.27854 0.0
O280 O 0.66999 0.21063 0.82537 0.0
Cd281 Cd 0.67397 0.20155 0.89233 0.0
Cd282 Cd 0.6687 0.23118 0.91306 0.0
O283 O 0.65959 0.23313 0.84545 0.0
O284 O 0.67367 0.17864 0.88212 0.0
O285 O 0.65526 0.19119 0.92153 0.0
C286 C 0.66047 0.17836 0.90374 0.0
C287 C 0.65651 0.23658 0.98462 0.0
C288 C 0.66292 0.22307 0.81395 0.0
C289 C 0.70051 0.2197 0.93141 0.0
O290 O 0.69241 0.23148 0.92019 0.0
O291 O 0.69471 0.20615 0.92794 0.0
O292 O 0.66119 0.24764 0.95708 0.0
O293 O 0.65737 0.22245 0.96905 0.0
O294 O 0.03659 0.42122 0.07867 0.0
Cd295 Cd 0.05057 0.42175 0.13852 0.0
Cd296 Cd 0.02321 0.42333 0.18199 0.0
O297 O 0.01526 0.41507 0.11767 0.0
O298 O 0.07111 0.41283 0.12036 0.0
O299 O 0.05435 0.40088 0.16781 0.0
C300 C 0.06738 0.40074 0.14494 0.0
C301 C 0.01514 0.41285 0.25403 0.0
C302 C 0.02253 0.41662 0.07866 0.0
C303 C 0.04354 0.4512 0.18895 0.0
O304 O 0.02961 0.44631 0.18868 0.0
O305 O 0.05444 0.44244 0.1744 0.0
O306 O 0.00594 0.42119 0.22837 0.0
O307 O 0.02872 0.40956 0.2371 0.0
O308 O 0.83303 0.78969 0.33014 0.0
Cd309 Cd 0.83281 0.7975 0.39937 0.0
Cd310 Cd 0.82881 0.76734 0.41575 0.0
O311 O 0.83626 0.76481 0.34554 0.0
O312 O 0.84116 0.81908 0.395 0.0
O313 O 0.85407 0.79964 0.42823 0.0
C314 C 0.85375 0.81395 0.41429 0.0
C315 C 0.8406 0.75595 0.48171 0.0
C316 C 0.83601 0.77599 0.31592 0.0
C317 C 0.80242 0.78772 0.44189 0.0
O318 O 0.80617 0.77401 0.42948 0.0
O319 O 0.81209 0.7988 0.43692 0.0
O320 O 0.83251 0.74781 0.45217 0.0
O321 O 0.84296 0.77044 0.47194 0.0
O322 O 0.46687 0.58639 0.58615 0.0
Cd323 Cd 0.45323 0.58403 0.64637 0.0
Cd324 Cd 0.47955 0.59051 0.68799 0.0
O325 O 0.48513 0.59985 0.62255 0.0
O326 O 0.43163 0.59147 0.63264 0.0
O327 O 0.44869 0.60448 0.67649 0.0
C328 C 0.43528 0.60392 0.6558 0.0
C329 C 0.48571 0.60151 0.76143 0.0
C330 C 0.47901 0.59485 0.58433 0.0
C331 C 0.46754 0.55797 0.69596 0.0
O332 O 0.47939 0.56673 0.69327 0.0
O333 O 0.45426 0.56323 0.68424 0.0
O334 O 0.49635 0.59618 0.73358 0.0
O335 O 0.47162 0.60192 0.7456 0.0
O336 O 0.33768 0.21076 0.32891 0.0
Cd337 Cd 0.33498 0.20086 0.39514 0.0
Cd338 Cd 0.32971 0.23126 0.41622 0.0
O339 O 0.33732 0.23566 0.34674 0.0
O340 O 0.34306 0.17948 0.38341 0.0
O341 O 0.35387 0.19575 0.43458 0.0
C342 C 0.35397 0.18244 0.4134 0.0
C343 C 0.34017 0.24224 0.4852 0.0
C344 C 0.33903 0.22487 0.31621 0.0
C345 C 0.30325 0.20934 0.43179 0.0
O346 O 0.30723 0.22346 0.4261 0.0
O347 O 0.31295 0.19846 0.42395 0.0
O348 O 0.33206 0.25041 0.45577 0.0
O349 O 0.34328 0.22801 0.47402 0.0
O350 O 0.53923 0.58614 0.08137 0.0
Cd351 Cd 0.55599 0.58204 0.13249 0.0
Cd352 Cd 0.52763 0.58156 0.18713 0.0
O353 O 0.51808 0.58962 0.12439 0.0
O354 O 0.57515 0.5856 0.09418 0.0
O355 O 0.56869 0.60031 0.1555 0.0
C356 C 0.57794 0.59756 0.12032 0.0
C357 C 0.51941 0.592 0.25959 0.0
C358 C 0.52494 0.58978 0.08443 0.0
C359 C 0.5478 0.55251 0.18402 0.0
O360 O 0.53467 0.55868 0.19277 0.0
O361 O 0.55838 0.5602 0.16289 0.0
O362 O 0.51065 0.58289 0.23506 0.0
O363 O 0.53273 0.59582 0.24185 0.0
O364 O 0.17124 0.79028 0.82819 0.0
Cd365 Cd 0.17104 0.79799 0.89754 0.0
Cd366 Cd 0.16724 0.76834 0.91366 0.0
O367 O 0.15999 0.76776 0.84275 0.0
O368 O 0.16347 0.81999 0.89681 0.0
O369 O 0.14949 0.80011 0.92299 0.0
C370 C 0.15036 0.81469 0.91226 0.0
C371 C 0.15486 0.75866 0.98131 0.0
C372 C 0.1646 0.778 0.81321 0.0
C373 C 0.19745 0.78178 0.94214 0.0
O374 O 0.19066 0.76976 0.92605 0.0
O375 O 0.19078 0.79496 0.93952 0.0
O376 O 0.16031 0.74942 0.94921 0.0
O377 O 0.155 0.7734 0.97267 0.0
O378 O 0.96129 0.42155 0.57854 0.0
Cd379 Cd 0.94712 0.42135 0.6379 0.0
Cd380 Cd 0.97429 0.4234 0.68245 0.0
O381 O 0.98259 0.41558 0.61799 0.0
O382 O 0.92701 0.4118 0.61836 0.0
O383 O 0.944 0.40018 0.66587 0.0
C384 C 0.93112 0.39968 0.64225 0.0
C385 C 0.98266 0.41284 0.75412 0.0
C386 C 0.97542 0.41718 0.57881 0.0
C387 C 0.95312 0.45069 0.68986 0.0
O388 O 0.96717 0.44616 0.68988 0.0
O389 O 0.94249 0.44172 0.67461 0.0
O390 O 0.9916 0.42159 0.72889 0.0
O391 O 0.96919 0.40924 0.73701 0.0
O392 O 0.33699 0.78793 0.1752 0.0
Cd393 Cd 0.32977 0.80106 0.11763 0.0
Cd394 Cd 0.3358 0.77422 0.07414 0.0
O395 O 0.34719 0.76828 0.13594 0.0
O396 O 0.33425 0.82299 0.13583 0.0
O397 O 0.34588 0.81087 0.07592 0.0
C398 C 0.34444 0.82311 0.10219 0.0
C399 C 0.34568 0.76857 0.99894 0.0
C400 C 0.34475 0.77534 0.17487 0.0
C401 C 0.30237 0.78507 0.07957 0.0
O402 O 0.31188 0.77388 0.0748 0.0
O403 O 0.30719 0.79835 0.0929 0.0
O404 O 0.34071 0.75777 0.02675 0.0
O405 O 0.34607 0.78261 0.01523 0.0
O406 O 0.95937 0.58635 0.93975 0.0
Cd407 Cd 0.94274 0.58371 0.8874 0.0
Cd408 Cd 0.97033 0.58363 0.83395 0.0
O409 O 0.98009 0.59163 0.89663 0.0
O410 O 0.92343 0.58825 0.92398 0.0
O411 O 0.93142 0.60277 0.86386 0.0
C412 C 0.92163 0.60042 0.89791 0.0
C413 C 0.9778 0.59366 0.76019 0.0
C414 C 0.9735 0.59055 0.93692 0.0
C415 C 0.9505 0.55455 0.83518 0.0
O416 O 0.9638 0.56061 0.82854 0.0
O417 O 0.93972 0.5623 0.85508 0.0
O418 O 0.98705 0.58522 0.7853 0.0
O419 O 0.9645 0.59731 0.77838 0.0
O420 O 0.16596 0.21613 0.67419 0.0
Cd421 Cd 0.16881 0.1998 0.62113 0.0
Cd422 Cd 0.16939 0.22775 0.56942 0.0
O423 O 0.16132 0.23723 0.63215 0.0
O424 O 0.16437 0.1804 0.65724 0.0
O425 O 0.14977 0.18844 0.59737 0.0
C426 C 0.15216 0.17863 0.63134 0.0
C427 C 0.15938 0.23572 0.49634 0.0
C428 C 0.16199 0.23033 0.67199 0.0
C429 C 0.19829 0.20765 0.57032 0.0
O430 O 0.19235 0.22101 0.56392 0.0
O431 O 0.19038 0.19687 0.58962 0.0
O432 O 0.16802 0.24472 0.52166 0.0
O433 O 0.15559 0.22237 0.51394 0.0
O434 O 0.53755 0.416 0.42541 0.0
Cd435 Cd 0.55189 0.41686 0.36634 0.0
Cd436 Cd 0.52468 0.41896 0.32079 0.0
O437 O 0.51606 0.41142 0.38517 0.0
O438 O 0.57225 0.40756 0.38494 0.0
O439 O 0.55565 0.39618 0.33566 0.0
C440 C 0.56855 0.39571 0.35921 0.0
C441 C 0.5163 0.408 0.24952 0.0
C442 C 0.52324 0.41225 0.42455 0.0
C443 C 0.54561 0.44663 0.31584 0.0
O444 O 0.5317 0.44176 0.31326 0.0
O445 O 0.55621 0.43785 0.33238 0.0
O446 O 0.50744 0.41702 0.27414 0.0
O447 O 0.52977 0.40448 0.26681 0.0
H448 H 0.2806 0.27477 0.95146 0.0
H449 H 0.29132 0.32408 0.94713 0.0
H450 H 0.26563 0.32992 0.982 0.0
H451 H 0.23994 0.27839 0.92109 0.0
H452 H 0.23402 0.26289 0.96015 0.0
H453 H 0.25315 0.26269 0.93416 0.0
H454 H 0.26535 0.26067 0.01815 0.0
H455 H 0.24626 0.26096 0.04441 0.0
H456 H 0.26059 0.27507 0.06234 0.0
H457 H 0.23889 0.33031 0.01959 0.0
H458 H 0.21285 0.32521 0.0533 0.0
H459 H 0.21978 0.2757 0.03211 0.0
C460 C 0.27755 0.28682 0.95753 0.0
C461 C 0.28803 0.29896 0.94648 0.0
C462 C 0.28351 0.31456 0.95514 0.0
C463 C 0.26895 0.31801 0.97507 0.0
C464 C 0.259 0.30574 0.98601 0.0
C465 C 0.26307 0.29047 0.97725 0.0
C466 C 0.2503 0.27941 0.99225 0.0
C467 C 0.24398 0.27031 0.94935 0.0
C468 C 0.25597 0.26838 0.03163 0.0
C469 C 0.2384 0.29084 0.01097 0.0
C470 C 0.24363 0.30597 0.00722 0.0
C471 C 0.23466 0.3185 0.02256 0.0
C472 C 0.2199 0.31549 0.04179 0.0
C473 C 0.21423 0.30006 0.04537 0.0
C474 C 0.22372 0.28763 0.02988 0.0
H475 H 0.97583 0.96875 0.30009 0.0
H476 H 0.92667 0.95737 0.30291 0.0
H477 H 0.92064 0.98274 0.26582 0.0
H478 H 0.97141 0.00928 0.32864 0.0
H479 H 0.98712 0.0153 0.29049 0.0
H480 H 0.98738 0.99625 0.31694 0.0
H481 H 0.99017 0.9839 0.23337 0.0
H482 H 0.98978 0.00291 0.20662 0.0
H483 H 0.976 0.98833 0.18814 0.0
H484 H 0.92018 0.00931 0.22629 0.0
H485 H 0.92514 0.03554 0.19366 0.0
H486 H 0.97457 0.02935 0.2188 0.0
C487 C 0.96377 0.97157 0.29307 0.0
C488 C 0.95172 0.96104 0.30435 0.0
C489 C 0.9361 0.96526 0.29474 0.0
C490 C 0.93257 0.97962 0.27347 0.0
C491 C 0.94478 0.98964 0.26231 0.0
C492 C 0.96005 0.98584 0.27224 0.0
C493 C 0.97103 0.99873 0.25768 0.0
C494 C 0.97974 0.00527 0.30102 0.0
C495 C 0.98241 0.99313 0.21916 0.0
C496 C 0.95957 0.0104 0.23793 0.0
C497 C 0.94449 0.00493 0.24052 0.0
C498 C 0.93195 0.01372 0.22421 0.0
C499 C 0.93489 0.02858 0.20554 0.0
C500 C 0.95024 0.03454 0.20369 0.0
C501 C 0.96269 0.02518 0.21975 0.0
H502 H 0.22437 0.73136 0.44316 0.0
H503 H 0.21291 0.68221 0.44182 0.0
H504 H 0.23858 0.67618 0.47655 0.0
H505 H 0.2653 0.72691 0.41335 0.0
H506 H 0.27129 0.74259 0.45169 0.0
H507 H 0.25226 0.74288 0.42495 0.0
H508 H 0.23979 0.74565 0.50833 0.0
H509 H 0.25876 0.74524 0.53535 0.0
H510 H 0.24414 0.73146 0.55355 0.0
H511 H 0.26515 0.67566 0.51532 0.0
H512 H 0.29099 0.68062 0.55075 0.0
H513 H 0.28495 0.73006 0.52572 0.0
C514 C 0.22729 0.7193 0.44961 0.0
C515 C 0.21658 0.70727 0.43962 0.0
C516 C 0.2209 0.69165 0.44895 0.0
C517 C 0.23545 0.6881 0.46881 0.0
C518 C 0.24561 0.70028 0.47897 0.0
C519 C 0.24176 0.71555 0.4693 0.0
C520 C 0.25465 0.72651 0.48415 0.0
C521 C 0.26127 0.73523 0.44096 0.0
C522 C 0.24899 0.73788 0.52263 0.0
C523 C 0.26631 0.71504 0.50401 0.0
C524 C 0.26089 0.69996 0.50083 0.0
C525 C 0.26955 0.68742 0.51772 0.0
C526 C 0.28419 0.69036 0.53796 0.0
C527 C 0.29005 0.70572 0.541 0.0
C528 C 0.28088 0.71817 0.52384 0.0
H529 H 0.52767 0.0275 0.80784 0.0
H530 H 0.57669 0.03812 0.79036 0.0
H531 H 0.58056 0.01295 0.74991 0.0
H532 H 0.53253 0.98661 0.83144 0.0
H533 H 0.51522 0.98112 0.79948 0.0
H534 H 0.51641 0.99995 0.82717 0.0
H535 H 0.51028 0.01305 0.74638 0.0
H536 H 0.50917 0.99426 0.71837 0.0
H537 H 0.5223 0.00878 0.69554 0.0
H538 H 0.57895 0.98666 0.70995 0.0
H539 H 0.57219 0.96086 0.67728 0.0
H540 H 0.52429 0.96759 0.72171 0.0
C541 C 0.53924 0.02453 0.79573 0.0
C542 C 0.55187 0.03482 0.80234 0.0
C543 C 0.56682 0.03044 0.78585 0.0
C544 C 0.56914 0.01618 0.76269 0.0
C545 C 0.5564 0.0064 0.75637 0.0
C546 C 0.54177 0.01035 0.77268 0.0
C547 C 0.53003 0.99774 0.76172 0.0
C548 C 0.52315 0.99095 0.80769 0.0
C549 C 0.51719 0.00383 0.72853 0.0
C550 C 0.54035 0.98607 0.7367 0.0
C551 C 0.5555 0.99128 0.73375 0.0
C552 C 0.56711 0.98245 0.71212 0.0
C553 C 0.56315 0.96783 0.69354 0.0
C554 C 0.54772 0.96216 0.69688 0.0
C555 C 0.53621 0.97153 0.7185 0.0
H556 H 0.71966 0.69882 0.04759 0.0
H557 H 0.7099 0.74837 0.05312 0.0
H558 H 0.73481 0.75376 0.01395 0.0
H559 H 0.76118 0.70228 0.07098 0.0
H560 H 0.76643 0.68673 0.03121 0.0
H561 H 0.74777 0.68657 0.06024 0.0
H562 H 0.7342 0.68441 0.97834 0.0
H563 H 0.75282 0.68473 0.94903 0.0
H564 H 0.73815 0.69878 0.93333 0.0
H565 H 0.75997 0.75412 0.97238 0.0
H566 H 0.78552 0.74956 0.93612 0.0
H567 H 0.78003 0.69984 0.95792 0.0
C568 C 0.72283 0.7108 0.0409 0.0
C569 C 0.71275 0.72316 0.05348 0.0
C570 C 0.71735 0.73868 0.04397 0.0
C571 C 0.73148 0.74189 0.02153 0.0
C572 C 0.74099 0.72949 0.00891 0.0
C573 C 0.73702 0.71427 0.01862 0.0
C574 C 0.74961 0.70321 1.00159 0.0
C575 C 0.75667 0.69417 0.04351 0.0
C576 C 0.74331 0.69213 0.9633 0.0
C577 C 0.7612 0.71465 0.98079 0.0
C578 C 0.75586 0.72972 0.98523 0.0
C579 C 0.76434 0.74238 0.96883 0.0
C580 C 0.77885 0.73963 0.94814 0.0
C581 C 0.78486 0.72433 0.94414 0.0
C582 C 0.77577 0.71166 0.96025 0.0
H583 H 0.0249 0.96787 0.80231 0.0
H584 H 0.07448 0.95839 0.8034 0.0
H585 H 0.07936 0.98404 0.76649 0.0
H586 H 0.02355 0.98747 0.69067 0.0
H587 H 0.00926 0.00149 0.70961 0.0
H588 H 0.00973 0.98248 0.73632 0.0
H589 H 0.01232 0.99491 0.81983 0.0
H590 H 0.01172 0.01396 0.79343 0.0
H591 H 0.02779 0.00856 0.83107 0.0
H592 H 0.07861 0.0106 0.72707 0.0
H593 H 0.07249 0.03658 0.69439 0.0
H594 H 0.02344 0.02849 0.72117 0.0
C595 C 0.03681 0.97117 0.79499 0.0
C596 C 0.04931 0.96109 0.80569 0.0
C597 C 0.06471 0.96593 0.79568 0.0
C598 C 0.0676 0.98044 0.77452 0.0
C599 C 0.05496 0.99 0.76388 0.0
C600 C 0.03989 0.9856 0.77425 0.0
C601 C 0.02835 0.99804 0.76007 0.0
C602 C 0.01706 0.992 0.7219 0.0
C603 C 0.01953 0.00423 0.8037 0.0
C604 C 0.03926 0.01016 0.74 0.0
C605 C 0.05456 0.00529 0.74214 0.0
C606 C 0.06668 0.01454 0.72537 0.0
C607 C 0.06307 0.02925 0.70668 0.0
C608 C 0.04749 0.03461 0.70524 0.0
C609 C 0.03548 0.0248 0.7218 0.0
H610 H 0.71985 0.26945 0.46412 0.0
H611 H 0.71359 0.31859 0.43458 0.0
H612 H 0.73945 0.32401 0.46916 0.0
H613 H 0.73917 0.27395 0.57588 0.0
H614 H 0.75224 0.25787 0.56644 0.0
H615 H 0.73334 0.25786 0.53894 0.0
H616 H 0.74608 0.25429 0.45622 0.0
H617 H 0.76502 0.2542 0.4835 0.0
H618 H 0.76072 0.26787 0.43679 0.0
H619 H 0.76601 0.32403 0.50801 0.0
H620 H 0.79143 0.31856 0.5453 0.0
H621 H 0.78012 0.26938 0.54903 0.0
C622 C 0.7239 0.28136 0.4647 0.0
C623 C 0.71464 0.2936 0.44654 0.0
C624 C 0.72045 0.30901 0.44814 0.0
C625 C 0.73511 0.31221 0.46782 0.0
C626 C 0.74386 0.29988 0.48572 0.0
C627 C 0.73848 0.28476 0.48413 0.0
C628 C 0.75015 0.27358 0.50555 0.0
C629 C 0.74331 0.26533 0.5493 0.0
C630 C 0.75583 0.26179 0.46829 0.0
C631 C 0.76294 0.28476 0.51949 0.0
C632 C 0.75909 0.29989 0.50789 0.0
C633 C 0.76914 0.31222 0.51722 0.0
C634 C 0.78355 0.30899 0.53852 0.0
C635 C 0.78782 0.29354 0.55023 0.0
C636 C 0.77725 0.28133 0.54072 0.0
H637 H 0.47483 0.97156 0.21714 0.0
H638 H 0.42482 0.96691 0.202 0.0
H639 H 0.42126 0.99246 0.24084 0.0
H640 H 0.47481 0.98942 0.33095 0.0
H641 H 0.49077 0.00231 0.31795 0.0
H642 H 0.48937 0.98385 0.28814 0.0
H643 H 0.49025 0.9977 0.20641 0.0
H644 H 0.49181 0.01619 0.23596 0.0
H645 H 0.47643 0.0129 0.19362 0.0
H646 H 0.42327 0.01817 0.28487 0.0
H647 H 0.43074 0.0428 0.32395 0.0
H648 H 0.47944 0.03059 0.30793 0.0
C649 C 0.46311 0.97593 0.22168 0.0
C650 C 0.4501 0.9672 0.20657 0.0
C651 C 0.43498 0.9734 0.21308 0.0
C652 C 0.43284 0.98787 0.23532 0.0
C653 C 0.44593 0.99604 0.25047 0.0
C654 C 0.46078 0.99036 0.24338 0.0
C655 C 0.47295 0.00143 0.26242 0.0
C656 C 0.48253 0.99379 0.30223 0.0
C657 C 0.48348 0.00741 0.2222 0.0
C658 C 0.46264 0.01422 0.28165 0.0
C659 C 0.44709 0.01088 0.27475 0.0
C660 C 0.43542 0.02093 0.29022 0.0
C661 C 0.43978 0.03486 0.31259 0.0
C662 C 0.45568 0.03868 0.31897 0.0
C663 C 0.46719 0.02809 0.30351 0.0
H664 H 0.71921 0.76534 0.5483 0.0
H665 H 0.71263 0.81423 0.58098 0.0
H666 H 0.73872 0.81996 0.54888 0.0
H667 H 0.76045 0.76365 0.57659 0.0
H668 H 0.76477 0.75046 0.52862 0.0
H669 H 0.74586 0.75017 0.55614 0.0
H670 H 0.733 0.75442 0.4739 0.0
H671 H 0.75186 0.75484 0.44618 0.0
H672 H 0.73865 0.77091 0.43838 0.0
H673 H 0.76525 0.82049 0.51069 0.0
H674 H 0.79045 0.81567 0.47138 0.0
H675 H 0.77954 0.76647 0.46303 0.0
C676 C 0.7233 0.77724 0.54929 0.0
C677 C 0.71384 0.78933 0.56739 0.0
C678 C 0.71964 0.80475 0.56747 0.0
C679 C 0.73445 0.80813 0.54924 0.0
C680 C 0.74335 0.79598 0.53102 0.0
C681 C 0.73802 0.78083 0.53111 0.0
C682 C 0.74974 0.76994 0.50851 0.0
C683 C 0.75555 0.75784 0.54463 0.0
C684 C 0.7429 0.76207 0.46411 0.0
C685 C 0.76245 0.78134 0.49544 0.0
C686 C 0.75856 0.79629 0.50879 0.0
C687 C 0.76844 0.80881 0.50021 0.0
C688 C 0.78273 0.80596 0.47774 0.0
C689 C 0.78702 0.79069 0.46397 0.0
C690 C 0.77664 0.77828 0.47292 0.0
H691 H 0.44448 0.47424 0.80333 0.0
H692 H 0.49416 0.46513 0.80837 0.0
H693 H 0.49934 0.49113 0.77643 0.0
H694 H 0.44483 0.4953 0.69389 0.0
H695 H 0.43044 0.50942 0.71137 0.0
H696 H 0.43022 0.49025 0.73714 0.0
H697 H 0.43162 0.50218 0.82148 0.0
H698 H 0.4317 0.52139 0.79599 0.0
H699 H 0.44706 0.51556 0.83575 0.0
H700 H 0.49959 0.51712 0.74177 0.0
H701 H 0.495 0.54303 0.70853 0.0
H702 H 0.44513 0.53651 0.72414 0.0
C703 C 0.45643 0.47784 0.79831 0.0
C704 C 0.46891 0.4676 0.8084 0.0
C705 C 0.48439 0.47268 0.80082 0.0
C706 C 0.48748 0.48746 0.78266 0.0
C707 C 0.47499 0.49711 0.77217 0.0
C708 C 0.45977 0.49266 0.77988 0.0
C709 C 0.44862 0.50543 0.76443 0.0
C710 C 0.4379 0.49976 0.72432 0.0
C711 C 0.43919 0.5115 0.80695 0.0
C712 C 0.46002 0.51761 0.74658 0.0
C713 C 0.47514 0.51245 0.75161 0.0
C714 C 0.48782 0.52137 0.73782 0.0
C715 C 0.48505 0.5361 0.71889 0.0
C716 C 0.46969 0.54189 0.71373 0.0
C717 C 0.45699 0.53241 0.72745 0.0
H718 H 0.72113 0.19764 0.96568 0.0
H719 H 0.71571 0.24726 0.94183 0.0
H720 H 0.74129 0.25191 0.97792 0.0
H721 H 0.74024 0.20067 0.07894 0.0
H722 H 0.75343 0.18475 0.06851 0.0
H723 H 0.73466 0.18498 0.04008 0.0
H724 H 0.74782 0.18238 0.9577 0.0
H725 H 0.76662 0.18202 0.9859 0.0
H726 H 0.76253 0.1962 0.94043 0.0
H727 H 0.76685 0.25159 0.01722 0.0
H728 H 0.79205 0.24624 0.05462 0.0
H729 H 0.78179 0.19677 0.0537 0.0
C730 C 0.72537 0.20946 0.96778 0.0
C731 C 0.71635 0.22208 0.95084 0.0
C732 C 0.72234 0.23739 0.95445 0.0
C733 C 0.73687 0.24018 0.97502 0.0
C734 C 0.74535 0.22756 0.99183 0.0
C735 C 0.73994 0.21249 0.98827 0.0
C736 C 0.75158 0.2011 0.00919 0.0
C737 C 0.74455 0.19236 0.05171 0.0
C738 C 0.75749 0.18976 0.97102 0.0
C739 C 0.76432 0.21217 0.02498 0.0
C740 C 0.76037 0.22737 0.01465 0.0
C741 C 0.77012 0.23975 0.02543 0.0
C742 C 0.78443 0.23655 0.04678 0.0
C743 C 0.78897 0.22107 0.05717 0.0
C744 C 0.77866 0.20872 0.04645 0.0
H745 H 0.02271 0.47392 0.2132 0.0
H746 H 0.07212 0.46362 0.21059 0.0
H747 H 0.07752 0.48888 0.24917 0.0
H748 H 0.02627 0.51493 0.18782 0.0
H749 H 0.01035 0.5202 0.22624 0.0
H750 H 0.01058 0.50143 0.19796 0.0
H751 H 0.00792 0.48817 0.28025 0.0
H752 H 0.00782 0.50689 0.30883 0.0
H753 H 0.02191 0.49244 0.32614 0.0
H754 H 0.0773 0.51506 0.29099 0.0
H755 H 0.07163 0.54069 0.32693 0.0
H756 H 0.02241 0.53365 0.30027 0.0
C757 C 0.03469 0.47698 0.22045 0.0
C758 C 0.047 0.46676 0.2089 0.0
C759 C 0.0625 0.47127 0.21894 0.0
C760 C 0.06568 0.48557 0.24103 0.0
C761 C 0.05323 0.49525 0.25255 0.0
C762 C 0.03807 0.49119 0.24214 0.0
C763 C 0.02676 0.50366 0.25774 0.0
C764 C 0.01798 0.51046 0.21489 0.0
C765 C 0.01544 0.49741 0.29548 0.0
C766 C 0.03791 0.51538 0.27879 0.0
C767 C 0.05313 0.51031 0.27577 0.0
C768 C 0.06543 0.51917 0.29335 0.0
C769 C 0.06209 0.53368 0.31389 0.0
C770 C 0.04658 0.53921 0.3164 0.0
C771 C 0.03439 0.52981 0.29885 0.0
H772 H 0.27939 0.22963 0.45068 0.0
H773 H 0.2917 0.18071 0.45662 0.0
H774 H 0.26632 0.17488 0.49359 0.0
H775 H 0.25988 0.23132 0.56191 0.0
H776 H 0.245 0.24451 0.5417 0.0
H777 H 0.26393 0.24478 0.51442 0.0
H778 H 0.25142 0.24037 0.43173 0.0
H779 H 0.23243 0.24022 0.45871 0.0
H780 H 0.23865 0.224 0.42289 0.0
H781 H 0.2398 0.17458 0.53279 0.0
H782 H 0.21373 0.17967 0.56649 0.0
H783 H 0.21898 0.22872 0.53385 0.0
C784 C 0.27673 0.21766 0.45934 0.0
C785 C 0.28758 0.20563 0.45066 0.0
C786 C 0.28359 0.19013 0.46274 0.0
C787 C 0.26922 0.1867 0.48391 0.0
C788 C 0.25891 0.19888 0.49261 0.0
C789 C 0.26245 0.21402 0.48033 0.0
C790 C 0.24939 0.22501 0.49353 0.0
C791 C 0.25489 0.23712 0.53006 0.0
C792 C 0.24257 0.23286 0.44907 0.0
C793 C 0.23798 0.21369 0.51534 0.0
C794 C 0.24367 0.19868 0.51469 0.0
C795 C 0.2352 0.18628 0.53332 0.0
C796 C 0.22042 0.1893 0.55255 0.0
C797 C 0.21426 0.20458 0.55283 0.0
C798 C 0.22329 0.21689 0.53418 0.0
H799 H 0.52532 0.47007 0.29361 0.0
H800 H 0.5745 0.45874 0.29631 0.0
H801 H 0.58053 0.48443 0.26138 0.0
H802 H 0.52518 0.4905 0.18355 0.0
H803 H 0.51138 0.50495 0.20289 0.0
H804 H 0.51101 0.48577 0.22844 0.0
H805 H 0.51376 0.49757 0.31275 0.0
H806 H 0.51403 0.51679 0.28748 0.0
H807 H 0.52972 0.51051 0.32533 0.0
H808 H 0.58097 0.51121 0.22304 0.0
H809 H 0.57595 0.53747 0.19059 0.0
H810 H 0.52654 0.53119 0.21566 0.0
C811 C 0.53738 0.47297 0.28704 0.0
C812 C 0.54944 0.46235 0.29759 0.0
C813 C 0.56506 0.46669 0.28867 0.0
C814 C 0.5686 0.48124 0.26865 0.0
C815 C 0.55639 0.49135 0.25816 0.0
C816 C 0.54111 0.48745 0.26756 0.0
C817 C 0.53013 0.50043 0.25373 0.0
C818 C 0.51876 0.49509 0.21484 0.0
C819 C 0.5214 0.5067 0.29743 0.0
C820 C 0.54159 0.51224 0.23477 0.0
C821 C 0.55668 0.50678 0.23729 0.0
C822 C 0.5692 0.51562 0.22115 0.0
C823 C 0.56623 0.5305 0.20258 0.0
C824 C 0.55086 0.53643 0.20065 0.0
C825 C 0.53843 0.52706 0.21679 0.0
H826 H 0.27999 0.80654 0.05286 0.0
H827 H 0.28759 0.75728 0.07735 0.0
H828 H 0.26125 0.75162 0.04843 0.0
H829 H 0.23803 0.8067 0.08495 0.0
H830 H 0.23306 0.82041 0.03898 0.0
H831 H 0.25206 0.82097 0.066 0.0
H832 H 0.26473 0.81846 0.98291 0.0
H833 H 0.2458 0.81773 0.95569 0.0
H834 H 0.25956 0.80229 0.94532 0.0
H835 H 0.23556 0.7507 0.01103 0.0
H836 H 0.21068 0.75462 0.97018 0.0
H837 H 0.21861 0.80451 0.96909 0.0
C838 C 0.27594 0.79463 0.05313 0.0
C839 C 0.28585 0.78235 0.06748 0.0
C840 C 0.28025 0.76687 0.06646 0.0
C841 C 0.26528 0.76352 0.05017 0.0
C842 C 0.25597 0.77577 0.03504 0.0
C843 C 0.26094 0.79104 0.03664 0.0
C844 C 0.24871 0.80183 0.0158 0.0
C845 C 0.2426 0.81315 0.0537 0.0
C846 C 0.25509 0.81059 0.97235 0.0
C847 C 0.2363 0.79016 1.00149 0.0
C848 C 0.24081 0.77523 0.0132 0.0
C849 C 0.23179 0.76234 1.00209 0.0
C850 C 0.21769 0.76471 0.97855 0.0
C851 C 0.21264 0.77988 0.96632 0.0
C852 C 0.22209 0.79279 0.97819 0.0
H853 H 0.97329 0.47387 0.71512 0.0
H854 H 0.92416 0.46238 0.71092 0.0
H855 H 0.91801 0.4875 0.74942 0.0
H856 H 0.97326 0.49245 0.82818 0.0
H857 H 0.98704 0.50722 0.81118 0.0
H858 H 0.98749 0.48847 0.78277 0.0
H859 H 0.98479 0.5016 0.70029 0.0
H860 H 0.98446 0.5204 0.72841 0.0
H861 H 0.96881 0.51471 0.68952 0.0
H862 H 0.91745 0.51374 0.79108 0.0
H863 H 0.92238 0.53955 0.8268 0.0
H864 H 0.97184 0.53362 0.80177 0.0
C865 C 0.96121 0.47663 0.72205 0.0
C866 C 0.9492 0.46612 0.71004 0.0
C867 C 0.93356 0.47025 0.71964 0.0
C868 C 0.92996 0.48446 0.74168 0.0
C869 C 0.94212 0.49444 0.75361 0.0
C870 C 0.95742 0.49075 0.74367 0.0
C871 C 0.96836 0.5035 0.75952 0.0
C872 C 0.9797 0.49755 0.79768 0.0
C873 C 0.97712 0.51046 0.71689 0.0
C874 C 0.95685 0.51496 0.78012 0.0
C875 C 0.94178 0.50952 0.7767 0.0
C876 C 0.92921 0.51812 0.79376 0.0
C877 C 0.93213 0.53274 0.81418 0.0
C878 C 0.94749 0.53865 0.81706 0.0
C879 C 0.95995 0.5295 0.80005 0.0
H880 H 0.162 0.24234 0.95139 0.0
H881 H 0.14644 0.28971 0.9281 0.0
H882 H 0.14355 0.28416 0.8423 0.0
H883 H 0.18514 0.23962 0.85219 0.0
H884 H 0.18074 0.21959 0.83911 0.0
H885 H 0.17941 0.22658 0.89916 0.0
H886 H 0.15077 0.21736 0.90412 0.0
H887 H 0.15206 0.21013 0.84417 0.0
H888 H 0.13701 0.22377 0.85994 0.0
H889 H 0.14563 0.27418 0.75746 0.0
H890 H 0.15093 0.26022 0.68229 0.0
H891 H 0.16497 0.21953 0.76282 0.0
C892 C 0.15759 0.25146 0.92853 0.0
C893 C 0.15439 0.26645 0.94648 0.0
C894 C 0.14883 0.27809 0.9152 0.0
C895 C 0.1472 0.27506 0.86639 0.0
C896 C 0.15101 0.26028 0.84962 0.0
C897 C 0.15588 0.24862 0.87996 0.0
C898 C 0.16024 0.23405 0.85303 0.0
C899 C 0.1774 0.22972 0.86137 0.0
C900 C 0.14937 0.22053 0.86609 0.0
C901 C 0.15753 0.23945 0.80262 0.0
C902 C 0.15211 0.25457 0.8012 0.0
C903 C 0.14963 0.26226 0.75822 0.0
C904 C 0.15275 0.25426 0.7157 0.0
C905 C 0.15831 0.23876 0.71655 0.0
C906 C 0.16059 0.23132 0.76076 0.0
H907 H 0.03542 0.91661 0.02477 0.0
H908 H 0.99677 0.8967 0.94646 0.0
H909 H 0.98325 0.89121 0.02203 0.0
H910 H 0.03403 0.89006 0.12625 0.0
H911 H 0.03868 0.90516 0.16831 0.0
H912 H 0.04586 0.90633 0.10827 0.0
H913 H 0.03321 0.93351 0.09874 0.0
H914 H 0.0261 0.93246 0.15874 0.0
H915 H 0.01273 0.93582 0.11051 0.0
H916 H 0.97331 0.88925 0.10628 0.0
H917 H 0.96718 0.89245 0.19155 0.0
H918 H 0.01232 0.91377 0.21391 0.0
C919 C 0.0242 0.91092 0.02344 0.0
C920 C 0.01719 0.90703 0.97963 0.0
C921 C 0.00238 0.89979 0.97956 0.0
C922 C 0.99464 0.89655 0.02232 0.0
C923 C 0.00186 0.9006 0.06487 0.0
C924 C 0.01629 0.90768 0.0657 0.0
C925 C 0.0211 0.91178 0.11585 0.0
C926 C 0.03579 0.90279 0.13052 0.0
C927 C 0.02341 0.92944 0.12125 0.0
C928 C 0.007 0.9062 0.14306 0.0
C929 C 0.9961 0.89959 0.11318 0.0
C930 C 0.98182 0.89426 0.13008 0.0
C931 C 0.97846 0.89609 0.17859 0.0
C932 C 0.98928 0.90329 0.20946 0.0
C933 C 0.00385 0.90807 0.1914 0.0
H934 H 0.34118 0.76426 0.45341 0.0
H935 H 0.36335 0.71938 0.43433 0.0
H936 H 0.36829 0.72577 0.34999 0.0
H937 H 0.32096 0.76412 0.3491 0.0
H938 H 0.32282 0.78461 0.33699 0.0
H939 H 0.32354 0.77772 0.3972 0.0
H940 H 0.35037 0.79088 0.40903 0.0
H941 H 0.34968 0.79797 0.3488 0.0
H942 H 0.36603 0.78655 0.36856 0.0
H943 H 0.3674 0.73566 0.26528 0.0
H944 H 0.36125 0.7483 0.18867 0.0
H945 H 0.33959 0.78655 0.26439 0.0
C946 C 0.34749 0.75593 0.43195 0.0
C947 C 0.35196 0.74135 0.45054 0.0
C948 C 0.35994 0.73068 0.42097 0.0
C949 C 0.3628 0.73422 0.37301 0.0
C950 C 0.35772 0.7485 0.35539 0.0
C951 C 0.35039 0.75925 0.3842 0.0
C952 C 0.34474 0.77313 0.35604 0.0
C953 C 0.32697 0.77499 0.36007 0.0
C954 C 0.35321 0.78801 0.37153 0.0
C955 C 0.34951 0.76828 0.30654 0.0
C956 C 0.35717 0.75415 0.30682 0.0
C957 C 0.36167 0.74685 0.26476 0.0
C958 C 0.35808 0.75411 0.22139 0.0
C959 C 0.34998 0.76846 0.22043 0.0
C960 C 0.34594 0.77568 0.26376 0.0
H961 H 0.49509 0.08574 0.72846 0.0
H962 H 0.54233 0.10217 0.70839 0.0
H963 H 0.53739 0.10489 0.62228 0.0
H964 H 0.49342 0.06268 0.62771 0.0
H965 H 0.47342 0.06686 0.61347 0.0
H966 H 0.47998 0.06804 0.67404 0.0
H967 H 0.47029 0.09651 0.67946 0.0
H968 H 0.46349 0.09536 0.61901 0.0
H969 H 0.4768 0.11053 0.63621 0.0
H970 H 0.52808 0.10289 0.53674 0.0
H971 H 0.51462 0.09816 0.46039 0.0
H972 H 0.47348 0.08335 0.53735 0.0
C973 C 0.50429 0.09031 0.70624 0.0
C974 C 0.51909 0.09383 0.72536 0.0
C975 C 0.53086 0.09953 0.69475 0.0
C976 C 0.52818 0.10107 0.64569 0.0
C977 C 0.51361 0.09698 0.6278 0.0
C978 C 0.5018 0.09193 0.65731 0.0
C979 C 0.48747 0.08748 0.62911 0.0
C980 C 0.48334 0.07025 0.63654 0.0
C981 C 0.4737 0.09811 0.6417 0.0
C982 C 0.49317 0.09046 0.57904 0.0
C983 C 0.50825 0.09597 0.5789 0.0
C984 C 0.51619 0.09879 0.53653 0.0
C985 C 0.50847 0.096 0.49329 0.0
C986 C 0.49295 0.09046 0.4927 0.0
C987 C 0.48527 0.08774 0.53637 0.0
H988 H 0.15935 0.75086 0.76237 0.0
H989 H 0.16493 0.80073 0.74612 0.0
H990 H 0.16278 0.798 0.65941 0.0
H991 H 0.18246 0.74054 0.66379 0.0
H992 H 0.17072 0.72424 0.64557 0.0
H993 H 0.17099 0.73013 0.70692 0.0
H994 H 0.14101 0.73294 0.70577 0.0
H995 H 0.14066 0.72709 0.64428 0.0
H996 H 0.13197 0.74526 0.66193 0.0
H997 H 0.16234 0.79003 0.57489 0.0
H998 H 0.16426 0.77706 0.49702 0.0
H999 H 0.15884 0.7322 0.56548 0.0
C1000 C 0.15983 0.76121 0.74055 0.0
C1001 C 0.16226 0.77603 0.76122 0.0
C1002 C 0.16311 0.78926 0.7313 0.0
C1003 C 0.16181 0.78785 0.68191 0.0
C1004 C 0.15966 0.77311 0.66259 0.0
C1005 C 0.15867 0.76 0.6908 0.0
C1006 C 0.15745 0.74545 0.66037 0.0
C1007 C 0.17123 0.73445 0.66972 0.0
C1008 C 0.14184 0.7372 0.66859 0.0
C1009 C 0.15826 0.75245 0.61084 0.0
C1010 C 0.15938 0.76845 0.61314 0.0
C1011 C 0.16125 0.77752 0.57254 0.0
C1012 C 0.16234 0.77005 0.52843 0.0
C1013 C 0.16152 0.75365 0.52504 0.0
C1014 C 0.15915 0.74478 0.56681 0.0
H1015 H 0.4634 0.92062 0.99056 0.0
H1016 H 0.50149 0.90075 0.07151 0.0
H1017 H 0.51537 0.89491 0.99657 0.0
H1018 H 0.46484 0.89371 0.89106 0.0
H1019 H 0.46043 0.9086 0.84808 0.0
H1020 H 0.45316 0.91022 0.9079 0.0
H1021 H 0.4661 0.9373 0.91615 0.0
H1022 H 0.47331 0.93581 0.85634 0.0
H1023 H 0.48662 0.9393 0.90463 0.0
H1024 H 0.52552 0.89229 0.91179 0.0
H1025 H 0.5316 0.89456 0.8261 0.0
H1026 H 0.48676 0.91636 0.80236 0.0
C1027 C 0.47459 0.9149 0.99271 0.0
C1028 C 0.48131 0.91109 0.03703 0.0
C1029 C 0.49608 0.90377 0.03802 0.0
C1030 C 0.50402 0.90035 0.99561 0.0
C1031 C 0.49704 0.90431 0.95253 0.0
C1032 C 0.48267 0.91148 0.95092 0.0
C1033 C 0.47799 0.91533 0.90047 0.0
C1034 C 0.46323 0.90643 0.88604 0.0
C1035 C 0.47589 0.93298 0.89404 0.0
C1036 C 0.49207 0.90943 0.87383 0.0
C1037 C 0.50289 0.90295 0.90427 0.0
C1038 C 0.51707 0.89724 0.88765 0.0
C1039 C 0.5204 0.89853 0.83888 0.0
C1040 C 0.50964 0.90558 0.80744 0.0
C1041 C 0.4952 0.9108 0.8253 0.0
H1042 H 0.34011 0.27442 0.07357 0.0
H1043 H 0.3467 0.23046 1.00102 0.0
H1044 H 0.34971 0.21723 0.07832 0.0
H1045 H 0.36635 0.26679 0.17652 0.0
H1046 H 0.35341 0.27604 0.2182 0.0
H1047 H 0.35404 0.28255 0.15736 0.0
H1048 H 0.32436 0.27816 0.15011 0.0
H1049 H 0.32365 0.27155 0.21073 0.0
H1050 H 0.31637 0.25931 0.16375 0.0
H1051 H 0.34998 0.20838 0.16198 0.0
H1052 H 0.34657 0.20396 0.24743 0.0
H1053 H 0.33847 0.25333 0.26862 0.0
C1054 C 0.34269 0.2621 0.07412 0.0
C1055 C 0.34351 0.25347 0.03131 0.0
C1056 C 0.34624 0.23728 0.03335 0.0
C1057 C 0.34798 0.22968 0.07709 0.0
C1058 C 0.34676 0.2384 0.11868 0.0
C1059 C 0.34414 0.25424 0.11776 0.0
C1060 C 0.34181 0.26051 0.16785 0.0
C1061 C 0.35467 0.27216 0.18074 0.0
C1062 C 0.32558 0.26781 0.17342 0.0
C1063 C 0.34329 0.24567 0.19687 0.0
C1064 C 0.34635 0.23314 0.16759 0.0
C1065 C 0.34768 0.21811 0.18531 0.0
C1066 C 0.34567 0.21573 0.23411 0.0
C1067 C 0.34222 0.22827 0.26516 0.0
C1068 C 0.34121 0.2435 0.24611 0.0
H1069 H 0.03169 0.08408 0.49914 0.0
H1070 H 0.99135 0.09905 0.57971 0.0
H1071 H 0.97718 0.10387 0.50461 0.0
H1072 H 0.02739 0.11109 0.39959 0.0
H1073 H 0.03351 0.09683 0.35656 0.0
H1074 H 0.04086 0.09601 0.41646 0.0
H1075 H 0.03111 0.06762 0.42432 0.0
H1076 H 0.0238 0.06833 0.3645 0.0
H1077 H 0.01096 0.0633 0.41269 0.0
H1078 H 0.96698 0.10567 0.41996 0.0
H1079 H 0.96116 0.10264 0.33435 0.0
H1080 H 0.00814 0.08596 0.31057 0.0
C1081 C 0.01995 0.0886 0.50114 0.0
C1082 C 0.01268 0.09129 0.5454 0.0
C1083 C 0.9972 0.09694 0.54625 0.0
C1084 C 0.98908 0.09978 0.50376 0.0
C1085 C 0.99659 0.09688 0.46073 0.0
C1086 C 0.01167 0.09136 0.45922 0.0
C1087 C 0.01679 0.0881 0.40876 0.0
C1088 C 0.03044 0.09864 0.39452 0.0
C1089 C 0.0209 0.07081 0.4022 0.0
C1090 C 0.00214 0.09238 0.38202 0.0
C1091 C 0.99067 0.09764 0.41243 0.0
C1092 C 0.97593 0.10169 0.39582 0.0
C1093 C 0.97274 0.09998 0.3471 0.0
C1094 C 0.9842 0.09411 0.31569 0.0
C1095 C 0.99915 0.09058 0.33351 0.0
H1096 H 0.84247 0.7299 0.06884 0.0
H1097 H 0.85217 0.77451 1.00343 0.0
H1098 H 0.85325 0.78671 0.08262 0.0
H1099 H 0.81696 0.74387 0.15393 0.0
H1100 H 0.82288 0.7311 0.20137 0.0
H1101 H 0.82528 0.72513 0.14055 0.0
H1102 H 0.85467 0.72056 0.15471 0.0
H1103 H 0.85234 0.72631 0.21588 0.0
H1104 H 0.86641 0.73602 0.17885 0.0
H1105 H 0.85001 0.79474 0.16651 0.0
H1106 H 0.8441 0.79807 0.25132 0.0
H1107 H 0.83638 0.74838 0.26479 0.0
C1108 C 0.84538 0.74212 0.07137 0.0
C1109 C 0.84745 0.75124 0.02995 0.0
C1110 C 0.85069 0.76729 0.03463 0.0
C1111 C 0.85132 0.77432 0.07949 0.0
C1112 C 0.84866 0.76516 0.11948 0.0
C1113 C 0.84592 0.74938 0.11607 0.0
C1114 C 0.8422 0.74251 0.16454 0.0
C1115 C 0.82586 0.73523 0.1651 0.0
C1116 C 0.85465 0.73065 0.17937 0.0
C1117 C 0.84288 0.75698 0.1954 0.0
C1118 C 0.84673 0.76987 0.16853 0.0
C1119 C 0.84721 0.78471 0.18807 0.0
C1120 C 0.84372 0.78648 0.23634 0.0
C1121 C 0.83979 0.7735 0.26494 0.0
C1122 C 0.8395 0.75852 0.24407 0.0
H1123 H 0.9641 0.08465 0.99901 0.0
H1124 H 0.00423 0.10047 0.07903 0.0
H1125 H 0.01837 0.10505 1.00375 0.0
H1126 H 0.98503 0.06357 0.91422 0.0
H1127 H 0.97221 0.06817 0.86554 0.0
H1128 H 0.96482 0.06783 0.92529 0.0
H1129 H 0.95486 0.0961 0.91548 0.0
H1130 H 0.96227 0.09653 0.85562 0.0
H1131 H 0.96824 0.11114 0.89773 0.0
H1132 H 0.02865 0.10635 0.91907 0.0
H1133 H 0.03458 0.10271 0.83376 0.0
H1134 H 0.98779 0.08547 0.81066 0.0
C1135 C 0.97577 0.08934 1.00084 0.0
C1136 C 0.98301 0.09231 0.04501 0.0
C1137 C 0.99841 0.09815 0.04565 0.0
C1138 C 0.00652 0.10085 1.00305 0.0
C1139 C 0.99907 0.09763 0.96013 0.0
C1140 C 0.98404 0.09196 0.95884 0.0
C1141 C 0.97901 0.0883 0.90856 0.0
C1142 C 0.97504 0.07094 0.90311 0.0
C1143 C 0.96528 0.09864 0.89347 0.0
C1144 C 0.99364 0.0925 0.8817 0.0
C1145 C 0.00503 0.09808 0.91185 0.0
C1146 C 0.01976 0.10211 0.89513 0.0
C1147 C 0.02302 0.10005 0.84658 0.0
C1148 C 0.01164 0.09385 0.81548 0.0
C1149 C 0.99671 0.09034 0.83338 0.0
H1150 H 0.65584 0.27135 0.57339 0.0
H1151 H 0.65571 0.22688 0.50091 0.0
H1152 H 0.65278 0.21343 0.57772 0.0
H1153 H 0.6794 0.25991 0.66511 0.0
H1154 H 0.67004 0.27094 0.71141 0.0
H1155 H 0.66892 0.27745 0.6508 0.0
H1156 H 0.63884 0.27751 0.65527 0.0
H1157 H 0.63986 0.27115 0.71623 0.0
H1158 H 0.62875 0.26016 0.67358 0.0
H1159 H 0.65402 0.20465 0.66093 0.0
H1160 H 0.65869 0.20091 0.74645 0.0
H1161 H 0.65824 0.25089 0.76731 0.0
C1162 C 0.65456 0.25882 0.57372 0.0
C1163 C 0.65576 0.25012 0.53128 0.0
C1164 C 0.65467 0.23373 0.53304 0.0
C1165 C 0.65297 0.226 0.57648 0.0
C1166 C 0.65241 0.23484 0.6179 0.0
C1167 C 0.65305 0.25089 0.61704 0.0
C1168 C 0.65401 0.25745 0.66706 0.0
C1169 C 0.66898 0.26699 0.67397 0.0
C1170 C 0.6395 0.26714 0.67872 0.0
C1171 C 0.6544 0.24255 0.6959 0.0
C1172 C 0.65325 0.22968 0.66672 0.0
C1173 C 0.65462 0.21462 0.68429 0.0
C1174 C 0.65738 0.21262 0.73289 0.0
C1175 C 0.65874 0.2256 0.76355 0.0
C1176 C 0.65696 0.24076 0.74485 0.0
H1177 H 0.50527 0.91226 0.30194 0.0
H1178 H 0.45728 0.89903 0.32657 0.0
H1179 H 0.46296 0.89586 0.41226 0.0
H1180 H 0.52289 0.88628 0.39204 0.0
H1181 H 0.53735 0.90056 0.40761 0.0
H1182 H 0.5298 0.89982 0.34794 0.0
H1183 H 0.52204 0.92887 0.35401 0.0
H1184 H 0.52937 0.92966 0.41377 0.0
H1185 H 0.50953 0.93513 0.40171 0.0
H1186 H 0.47344 0.89726 0.49709 0.0
H1187 H 0.48807 0.90154 0.57177 0.0
H1188 H 0.52903 0.91359 0.48957 0.0
C1189 C 0.49601 0.90832 0.32507 0.0
C1190 C 0.48084 0.90584 0.30751 0.0
C1191 C 0.46903 0.90086 0.33915 0.0
C1192 C 0.47215 0.89908 0.38791 0.0
C1193 C 0.48715 0.90215 0.40428 0.0
C1194 C 0.49893 0.90645 0.37356 0.0
C1195 C 0.51383 0.90998 0.39999 0.0
C1196 C 0.52673 0.89847 0.38607 0.0
C1197 C 0.51898 0.92691 0.39189 0.0
C1198 C 0.50853 0.90741 0.45056 0.0
C1199 C 0.49314 0.90283 0.45253 0.0
C1200 C 0.48556 0.90062 0.49585 0.0
C1201 C 0.49394 0.90314 0.5381 0.0
C1202 C 0.50973 0.90783 0.53667 0.0
C1203 C 0.51704 0.90986 0.49212 0.0
H1204 H 0.83383 0.21573 0.27549 0.0
H1205 H 0.86046 0.25266 0.20904 0.0
H1206 H 0.86567 0.26401 0.28817 0.0
H1207 H 0.81542 0.23886 0.36029 0.0
H1208 H 0.81587 0.22443 0.40669 0.0
H1209 H 0.81566 0.21848 0.34547 0.0
H1210 H 0.84087 0.20254 0.35899 0.0
H1211 H 0.84118 0.2085 0.42036 0.0
H1212 H 0.85783 0.21201 0.38301 0.0
H1213 H 0.86591 0.27257 0.37438 0.0
H1214 H 0.86079 0.27778 0.45934 0.0
H1215 H 0.83433 0.23495 0.46858 0.0
C1216 C 0.84096 0.22609 0.27746 0.0
C1217 C 0.84676 0.23328 0.23592 0.0
C1218 C 0.85593 0.24689 0.24028 0.0
C1219 C 0.85898 0.25341 0.28513 0.0
C1220 C 0.8529 0.2461 0.32528 0.0
C1221 C 0.84413 0.2327 0.32178 0.0
C1222 C 0.83811 0.2276 0.36984 0.0
C1223 C 0.82021 0.22734 0.37059 0.0
C1224 C 0.84491 0.21172 0.38387 0.0
C1225 C 0.84451 0.24044 0.4009 0.0
C1226 C 0.85314 0.25094 0.37471 0.0
C1227 C 0.85936 0.26431 0.39533 0.0
C1228 C 0.85641 0.26716 0.44365 0.0
C1229 C 0.84728 0.25672 0.47079 0.0
C1230 C 0.84158 0.24304 0.44913 0.0
H1231 H 0.48452 0.09116 0.18353 0.0
H1232 H 0.52813 0.0913 0.26085 0.0
H1233 H 0.54254 0.09287 0.18525 0.0
H1234 H 0.4971 0.06615 0.09376 0.0
H1235 H 0.48664 0.07532 0.04585 0.0
H1236 H 0.47943 0.07674 0.10571 0.0
H1237 H 0.47946 0.10677 0.09974 0.0
H1238 H 0.48655 0.10544 0.03961 0.0
H1239 H 0.49707 0.11673 0.08296 0.0
H1240 H 0.55231 0.09185 0.10308 0.0
H1241 H 0.55724 0.08813 0.01802 0.0
H1242 H 0.50749 0.08765 0.99097 0.0
C1243 C 0.49708 0.09205 0.18438 0.0
C1244 C 0.50525 0.0914 0.22797 0.0
C1245 C 0.52169 0.09196 0.22783 0.0
C1246 C 0.52995 0.09287 0.18509 0.0
C1247 C 0.52163 0.09306 0.14265 0.0
C1248 C 0.50556 0.09269 0.14173 0.0
C1249 C 0.49963 0.09151 0.09094 0.0
C1250 C 0.49014 0.07654 0.08366 0.0
C1251 C 0.49012 0.10598 0.07753 0.0
C1252 C 0.51488 0.09093 0.06372 0.0
C1253 C 0.52737 0.09204 0.09445 0.0
C1254 C 0.54264 0.09112 0.07857 0.0
C1255 C 0.5453 0.08893 0.03002 0.0
C1256 C 0.53277 0.08757 0.99751 0.0
C1257 C 0.51733 0.08876 0.01473 0.0
H1258 H 0.65721 0.72442 0.93632 0.0
H1259 H 0.6374 0.76604 0.99853 0.0
H1260 H 0.63397 0.77723 0.91845 0.0
H1261 H 0.67971 0.74353 0.85379 0.0
H1262 H 0.67759 0.72961 0.80637 0.0
H1263 H 0.67574 0.72342 0.86714 0.0
H1264 H 0.64843 0.71219 0.84941 0.0
H1265 H 0.65025 0.7182 0.7883 0.0
H1266 H 0.6338 0.72448 0.82304 0.0
H1267 H 0.63591 0.78535 0.83435 0.0
H1268 H 0.64291 0.79008 0.75093 0.0
H1269 H 0.66222 0.74355 0.74108 0.0
C1270 C 0.65157 0.73561 0.93282 0.0
C1271 C 0.64725 0.74426 0.97352 0.0
C1272 C 0.64056 0.75916 0.96778 0.0
C1273 C 0.63857 0.76559 0.92243 0.0
C1274 C 0.64343 0.75703 0.88309 0.0
C1275 C 0.64973 0.74233 0.88766 0.0
C1276 C 0.65564 0.73639 0.84007 0.0
C1277 C 0.67321 0.73305 0.84198 0.0
C1278 C 0.64648 0.72196 0.82427 0.0
C1279 C 0.65209 0.75024 0.80839 0.0
C1280 C 0.64486 0.7619 0.834 0.0
C1281 C 0.64135 0.77623 0.81375 0.0
C1282 C 0.64547 0.77882 0.7663 0.0
C1283 C 0.65308 0.76718 0.73926 0.0
C1284 C 0.65619 0.75259 0.76053 0.0
H1285 H 0.96753 0.91711 0.52479 0.0
H1286 H 0.00655 0.89828 0.44563 0.0
H1287 H 0.02009 0.89252 0.52097 0.0
H1288 H 0.98994 0.93604 0.61235 0.0
H1289 H 0.97652 0.93213 0.66007 0.0
H1290 H 0.96951 0.93359 0.60003 0.0
H1291 H 0.95717 0.9062 0.60736 0.0
H1292 H 0.96427 0.90462 0.6674 0.0
H1293 H 0.96917 0.88993 0.62425 0.0
H1294 H 0.02993 0.88998 0.60515 0.0
H1295 H 0.0359 0.89252 0.69073 0.0
H1296 H 0.99046 0.91312 0.71407 0.0
C1297 C 0.97886 0.91163 0.52321 0.0
C1298 C 0.98594 0.9081 0.47924 0.0
C1299 C 0.00087 0.9011 0.47886 0.0
C1300 C 0.00863 0.8977 0.52148 0.0
C1301 C 0.00131 0.90136 0.5642 0.0
C1302 C 0.98678 0.90823 0.56534 0.0
C1303 C 0.98185 0.91187 0.61572 0.0
C1304 C 0.97932 0.92945 0.62242 0.0
C1305 C 0.96725 0.9026 0.62948 0.0
C1306 C 0.99598 0.90623 0.64272 0.0
C1307 C 0.00701 0.90002 0.6125 0.0
C1308 C 0.02132 0.8947 0.62921 0.0
C1309 C 0.02459 0.89614 0.6779 0.0
C1310 C 0.01363 0.90295 0.70916 0.0
C1311 C 0.99903 0.90771 0.69126 0.0
H1312 H 0.65578 0.76821 0.43766 0.0
H1313 H 0.65456 0.72294 0.5053 0.0
H1314 H 0.65098 0.71051 0.42712 0.0
H1315 H 0.62792 0.75927 0.33849 0.0
H1316 H 0.63907 0.77032 0.29608 0.0
H1317 H 0.63888 0.77597 0.35776 0.0
H1318 H 0.66895 0.77461 0.35968 0.0
H1319 H 0.66923 0.76887 0.29825 0.0
H1320 H 0.67856 0.75687 0.34234 0.0
H1321 H 0.65091 0.70269 0.34264 0.0
H1322 H 0.65439 0.69979 0.25633 0.0
H1323 H 0.656 0.74995 0.24085 0.0
C1324 C 0.65421 0.75574 0.43603 0.0
C1325 C 0.6552 0.74653 0.4776 0.0
C1326 C 0.65369 0.7302 0.47397 0.0
C1327 C 0.65162 0.72304 0.42971 0.0
C1328 C 0.65114 0.73236 0.38925 0.0
C1329 C 0.65233 0.74836 0.39184 0.0
C1330 C 0.65309 0.75546 0.34242 0.0
C1331 C 0.63889 0.76587 0.33315 0.0
C1332 C 0.66837 0.76448 0.33528 0.0
C1333 C 0.6526 0.74093 0.31182 0.0
C1334 C 0.65128 0.72777 0.33974 0.0
C1335 C 0.6517 0.7129 0.32034 0.0
C1336 C 0.65375 0.71138 0.27123 0.0
C1337 C 0.65537 0.72463 0.24176 0.0
C1338 C 0.65449 0.73962 0.26233 0.0
H1339 H 0.51173 0.4097 0.70486 0.0
H1340 H 0.46377 0.3963 0.67995 0.0
H1341 H 0.46922 0.39429 0.59392 0.0
H1342 H 0.51509 0.43407 0.60832 0.0
H1343 H 0.53497 0.42922 0.5944 0.0
H1344 H 0.52802 0.42734 0.65437 0.0
H1345 H 0.53636 0.39839 0.65581 0.0
H1346 H 0.54356 0.40023 0.59596 0.0
H1347 H 0.52948 0.38543 0.61011 0.0
H1348 H 0.4792 0.39675 0.50991 0.0
H1349 H 0.49315 0.40225 0.43514 0.0
H1350 H 0.53449 0.41432 0.51567 0.0
C1351 C 0.50245 0.40591 0.68157 0.0
C1352 C 0.48733 0.40305 0.69921 0.0
C1353 C 0.47547 0.39841 0.66732 0.0
C1354 C 0.47846 0.39727 0.61838 0.0
C1355 C 0.49337 0.40072 0.60202 0.0
C1356 C 0.50522 0.40478 0.63278 0.0
C1357 C 0.5199 0.40903 0.60611 0.0
C1358 C 0.52477 0.42591 0.61642 0.0
C1359 C 0.5331 0.39758 0.61768 0.0
C1360 C 0.51437 0.40714 0.55543 0.0
C1361 C 0.49908 0.40223 0.55377 0.0
C1362 C 0.49124 0.4004 0.51082 0.0
C1363 C 0.49925 0.40363 0.46851 0.0
C1364 C 0.51494 0.4087 0.46942 0.0
C1365 C 0.52255 0.41037 0.51362 0.0
H1366 H 0.83766 0.24661 0.73566 0.0
H1367 H 0.8505 0.29505 0.75396 0.0
H1368 H 0.85806 0.28977 0.83659 0.0
H1369 H 0.82032 0.2424 0.8483 0.0
H1370 H 0.82681 0.22273 0.85796 0.0
H1371 H 0.82407 0.2298 0.7984 0.0
H1372 H 0.85249 0.22234 0.77808 0.0
H1373 H 0.85534 0.21536 0.83785 0.0
H1374 H 0.86816 0.22993 0.81373 0.0
H1375 H 0.86206 0.28024 0.91828 0.0
H1376 H 0.86066 0.26723 0.99618 0.0
H1377 H 0.84546 0.22475 0.92749 0.0
C1378 C 0.84229 0.25602 0.75691 0.0
C1379 C 0.84351 0.27125 0.7382 0.0
C1380 C 0.84938 0.28331 0.76742 0.0
C1381 C 0.85384 0.28041 0.81438 0.0
C1382 C 0.85239 0.26536 0.8319 0.0
C1383 C 0.84669 0.25335 0.80432 0.0
C1384 C 0.84507 0.23859 0.83349 0.0
C1385 C 0.82806 0.23306 0.83461 0.0
C1386 C 0.85592 0.2258 0.81466 0.0
C1387 C 0.85036 0.24433 0.88192 0.0
C1388 C 0.85474 0.25977 0.87983 0.0
C1389 C 0.85891 0.26809 0.92032 0.0
C1390 C 0.8581 0.2606 0.9644 0.0
C1391 C 0.85321 0.24494 0.96773 0.0
C1392 C 0.8497 0.23658 0.92578 0.0
H1393 H 0.98729 0.58898 0.21592 0.0
H1394 H 0.03381 0.60677 0.1916 0.0
H1395 H 0.02786 0.6095 0.10592 0.0
H1396 H 0.98515 0.56603 0.11512 0.0
H1397 H 0.96487 0.56968 0.1034 0.0
H1398 H 0.97217 0.5709 0.16315 0.0
H1399 H 0.96175 0.59908 0.17039 0.0
H1400 H 0.95424 0.59789 0.11075 0.0
H1401 H 0.96733 0.61338 0.1268 0.0
H1402 H 0.01747 0.60749 0.02109 0.0
H1403 H 0.00314 0.60243 0.94634 0.0
H1404 H 0.96357 0.58622 0.02818 0.0
C1405 C 0.99614 0.59379 0.19285 0.0
C1406 C 0.011 0.59772 0.21051 0.0
C1407 C 0.02229 0.60381 0.17894 0.0
C1408 C 0.01903 0.60535 0.13019 0.0
C1409 C 0.00438 0.60089 0.11374 0.0
C1410 C 0.99307 0.59543 0.14437 0.0
C1411 C 0.97854 0.59066 0.11787 0.0
C1412 C 0.97498 0.57329 0.12533 0.0
C1413 C 0.96464 0.60086 0.13231 0.0
C1414 C 0.98353 0.59391 0.06736 0.0
C1415 C 0.99843 0.59987 0.0655 0.0
C1416 C 0.00571 0.60303 0.02225 0.0
C1417 C 0.99751 0.60006 0.97995 0.0
C1418 C 0.98219 0.59399 0.98126 0.0
C1419 C 0.97519 0.59099 0.02574 0.0
H1420 H 0.66585 0.28377 0.22474 0.0
H1421 H 0.65294 0.24154 0.29944 0.0
H1422 H 0.64669 0.22901 0.22295 0.0
H1423 H 0.63637 0.28113 0.13083 0.0
H1424 H 0.64937 0.2884 0.0858 0.0
H1425 H 0.65166 0.29449 0.14666 0.0
H1426 H 0.68031 0.28512 0.14585 0.0
H1427 H 0.67814 0.27915 0.08499 0.0
H1428 H 0.6846 0.26536 0.12899 0.0
H1429 H 0.64364 0.22043 0.13791 0.0
H1430 H 0.64531 0.21617 0.05124 0.0
H1431 H 0.65978 0.26409 0.03231 0.0
C1432 C 0.66155 0.27194 0.22514 0.0
C1433 C 0.65987 0.26367 0.26825 0.0
C1434 C 0.65434 0.24815 0.26699 0.0
C1435 C 0.65067 0.24094 0.22368 0.0
C1436 C 0.6525 0.24941 0.18188 0.0
C1437 C 0.65783 0.26457 0.18226 0.0
C1438 C 0.65969 0.2708 0.13226 0.0
C1439 C 0.64861 0.28452 0.12338 0.0
C1440 C 0.67669 0.27537 0.12246 0.0
C1441 C 0.65492 0.25666 0.10366 0.0
C1442 C 0.65065 0.2445 0.1329 0.0
C1443 C 0.64676 0.22994 0.11464 0.0
C1444 C 0.6477 0.22764 0.06532 0.0
C1445 C 0.65252 0.23982 0.03486 0.0
C1446 C 0.65576 0.25461 0.05443 0.0
H1447 H 0.96495 0.4227 0.4883 0.0
H1448 H 0.00412 0.40383 0.56679 0.0
H1449 H 0.01753 0.3981 0.49123 0.0
H1450 H 0.96645 0.39555 0.38861 0.0
H1451 H 0.96148 0.41027 0.34565 0.0
H1452 H 0.95446 0.41179 0.40578 0.0
H1453 H 0.96678 0.43919 0.41316 0.0
H1454 H 0.9737 0.43779 0.35303 0.0
H1455 H 0.98718 0.44168 0.4006 0.0
H1456 H 0.02723 0.39565 0.40697 0.0
H1457 H 0.03311 0.39835 0.32139 0.0
H1458 H 0.98761 0.41891 0.29876 0.0
C1459 C 0.97629 0.41722 0.48968 0.0
C1460 C 0.98345 0.41368 0.53352 0.0
C1461 C 0.99838 0.40667 0.53366 0.0
C1462 C 0.00606 0.40328 0.49091 0.0
C1463 C 0.99866 0.40695 0.44833 0.0
C1464 C 0.98413 0.41383 0.44743 0.0
C1465 C 0.97912 0.4175 0.39715 0.0
C1466 C 0.96451 0.40822 0.38351 0.0
C1467 C 0.97655 0.43508 0.39062 0.0
C1468 C 0.99321 0.41189 0.36994 0.0
C1469 C 0.00429 0.40565 0.39996 0.0
C1470 C 0.01859 0.40038 0.38306 0.0
C1471 C 0.02181 0.40192 0.33438 0.0
C1472 C 0.01081 0.40878 0.30334 0.0
C1473 C 0.99621 0.41347 0.32141 0.0
H1474 H 0.84328 0.75308 0.76385 0.0
H1475 H 0.8463 0.70294 0.74981 0.0
H1476 H 0.85041 0.70571 0.66371 0.0
H1477 H 0.82136 0.75909 0.66197 0.0
H1478 H 0.8305 0.77705 0.64453 0.0
H1479 H 0.83021 0.77145 0.70606 0.0
H1480 H 0.86023 0.77364 0.70954 0.0
H1481 H 0.8606 0.77927 0.64785 0.0
H1482 H 0.8719 0.76287 0.66776 0.0
H1483 H 0.85059 0.71334 0.57887 0.0
H1484 H 0.84684 0.72552 0.50031 0.0
H1485 H 0.84422 0.77085 0.56717 0.0
C1486 C 0.84526 0.74273 0.74278 0.0
C1487 C 0.84456 0.72779 0.76367 0.0
C1488 C 0.84679 0.7145 0.73469 0.0
C1489 C 0.84921 0.71595 0.6857 0.0
C1490 C 0.84944 0.73078 0.66595 0.0
C1491 C 0.8476 0.74397 0.69347 0.0
C1492 C 0.84686 0.75841 0.66249 0.0
C1493 C 0.83131 0.767 0.66916 0.0
C1494 C 0.86073 0.76918 0.67251 0.0
C1495 C 0.84805 0.7512 0.61336 0.0
C1496 C 0.84971 0.73525 0.61633 0.0
C1497 C 0.84964 0.72584 0.57601 0.0
C1498 C 0.84749 0.73286 0.53153 0.0
C1499 C 0.84552 0.74913 0.52759 0.0
C1500 C 0.84617 0.75843 0.56901 0.0
H1501 H 0.53615 0.59038 0.99349 0.0
H1502 H 0.49448 0.59937 0.07607 0.0
H1503 H 0.48048 0.60645 1.00237 0.0
H1504 H 0.53075 0.62135 0.90615 0.0
H1505 H 0.53812 0.60963 0.85809 0.0
H1506 H 0.5451 0.60655 0.91772 0.0
H1507 H 0.53723 0.5775 0.91276 0.0
H1508 H 0.53038 0.58046 0.8531 0.0
H1509 H 0.51751 0.57247 0.89734 0.0
H1510 H 0.47063 0.6108 0.91826 0.0
H1511 H 0.46548 0.61052 0.83182 0.0
H1512 H 0.51383 0.59891 0.80575 0.0
C1513 C 0.52412 0.594 0.99635 0.0
C1514 C 0.51643 0.59435 0.04072 0.0
C1515 C 0.50064 0.59902 0.04257 0.0
C1516 C 0.49261 0.60314 1.00089 0.0
C1517 C 0.50057 0.60261 0.95773 0.0
C1518 C 0.51598 0.59812 0.9553 0.0
C1519 C 0.52167 0.59754 0.9045 0.0
C1520 C 0.53468 0.60948 0.89614 0.0
C1521 C 0.527 0.58101 0.89116 0.0
C1522 C 0.50697 0.60205 0.87846 0.0
C1523 C 0.49495 0.60512 0.90968 0.0
C1524 C 0.48001 0.6086 0.89355 0.0
C1525 C 0.47721 0.60847 0.84435 0.0
C1526 C 0.48927 0.6048 0.81193 0.0
C1527 C 0.5044 0.60199 0.82944 0.0
H1528 H 0.33832 0.22849 0.5731 0.0
H1529 H 0.35097 0.27135 0.50208 0.0
H1530 H 0.35515 0.28394 0.57991 0.0
H1531 H 0.31594 0.24636 0.66119 0.0
H1532 H 0.32108 0.23326 0.70863 0.0
H1533 H 0.32161 0.22665 0.64799 0.0
H1534 H 0.3504 0.2185 0.65815 0.0
H1535 H 0.34994 0.22502 0.71901 0.0
H1536 H 0.3644 0.23256 0.6788 0.0
H1537 H 0.35572 0.29258 0.66351 0.0
H1538 H 0.35155 0.29751 0.74834 0.0
H1539 H 0.33709 0.24957 0.7682 0.0
C1540 C 0.34248 0.24036 0.57416 0.0
C1541 C 0.34471 0.24889 0.53165 0.0
C1542 C 0.34946 0.26459 0.53422 0.0
C1543 C 0.35187 0.27181 0.57826 0.0
C1544 C 0.34926 0.26324 0.61954 0.0
C1545 C 0.34461 0.24788 0.61808 0.0
C1546 C 0.34096 0.24193 0.6678 0.0
C1547 C 0.32389 0.23675 0.67161 0.0
C1548 C 0.35209 0.22872 0.68176 0.0
C1549 C 0.344 0.25644 0.69723 0.0
C1550 C 0.349 0.26847 0.66847 0.0
C1551 C 0.35193 0.28323 0.68644 0.0
C1552 C 0.34945 0.28591 0.73486 0.0
C1553 C 0.34396 0.27395 0.76528 0.0
C1554 C 0.34145 0.25891 0.74616 0.0
H1555 H 0.46976 0.58483 0.49625 0.0
H1556 H 0.50508 0.61243 0.56713 0.0
H1557 H 0.51819 0.6167 0.49015 0.0
H1558 H 0.49488 0.56556 0.41826 0.0
H1559 H 0.48152 0.56544 0.36891 0.0
H1560 H 0.4742 0.56583 0.42874 0.0
H1561 H 0.45849 0.59077 0.40953 0.0
H1562 H 0.46579 0.59046 0.34953 0.0
H1563 H 0.4684 0.60752 0.38581 0.0
H1564 H 0.52858 0.6162 0.40589 0.0
H1565 H 0.53535 0.61071 0.32209 0.0
H1566 H 0.49304 0.58367 0.30727 0.0
C1567 C 0.48012 0.59197 0.49562 0.0
C1568 C 0.48635 0.59832 0.53783 0.0
C1569 C 0.50004 0.60746 0.53531 0.0
C1570 C 0.50756 0.60999 0.4917 0.0
C1571 C 0.50121 0.60338 0.45088 0.0
C1572 C 0.48776 0.59461 0.4525 0.0
C1573 C 0.48376 0.58806 0.40414 0.0
C1574 C 0.48359 0.57017 0.4051 0.0
C1575 C 0.46819 0.5946 0.3862 0.0
C1576 C 0.49724 0.59421 0.37521 0.0
C1577 C 0.50714 0.60314 0.4026 0.0
C1578 C 0.52081 0.60938 0.38398 0.0
C1579 C 0.52457 0.60621 0.33635 0.0
C1580 C 0.5147 0.59684 0.308 0.0
C1581 C 0.50076 0.59102 0.32774 0.0
H1582 H 0.16426 0.75411 0.26242 0.0
H1583 H 0.14932 0.70604 0.25092 0.0
H1584 H 0.14283 0.71014 0.16688 0.0
H1585 H 0.13489 0.77049 0.17892 0.0
H1586 H 0.14846 0.78419 0.15391 0.0
H1587 H 0.15045 0.77814 0.21493 0.0
H1588 H 0.17879 0.76946 0.19854 0.0
H1589 H 0.17689 0.77553 0.13766 0.0
H1590 H 0.18261 0.75587 0.15121 0.0
H1591 H 0.14077 0.71819 0.08242 0.0
H1592 H 0.14324 0.73001 1.00277 0.0
H1593 H 0.15846 0.77318 0.06721 0.0
C1594 C 0.15933 0.74455 0.24244 0.0
C1595 C 0.15731 0.72975 0.26356 0.0
C1596 C 0.15105 0.71749 0.23579 0.0
C1597 C 0.14723 0.7197 0.18792 0.0
C1598 C 0.14961 0.7343 0.16794 0.0
C1599 C 0.15545 0.74656 0.19422 0.0
C1600 C 0.15786 0.76074 0.16289 0.0
C1601 C 0.14728 0.77419 0.17861 0.0
C1602 C 0.17506 0.76568 0.16256 0.0
C1603 C 0.15288 0.75435 0.11488 0.0
C1604 C 0.14806 0.73909 0.11879 0.0
C1605 C 0.1442 0.73024 0.07897 0.0
C1606 C 0.14562 0.73704 0.03387 0.0
C1607 C 0.1507 0.75259 0.02887 0.0
C1608 C 0.15404 0.76143 0.07006 0.0
H1609 H 0.01013 0.41919 0.79881 0.0
H1610 H 0.9651 0.39761 0.82094 0.0
H1611 H 0.97118 0.39453 0.90626 0.0
H1612 H 0.03189 0.39569 0.88728 0.0
H1613 H 0.04361 0.41208 0.90478 0.0
H1614 H 0.03646 0.41068 0.84476 0.0
H1615 H 0.02377 0.43786 0.85323 0.0
H1616 H 0.03068 0.43928 0.91338 0.0
H1617 H 0.01023 0.44135 0.90094 0.0
H1618 H 0.98093 0.39675 0.99052 0.0
H1619 H 0.99422 0.40253 0.06623 0.0
H1620 H 0.03293 0.42251 0.98829 0.0
C1621 C 0.00169 0.41345 0.82128 0.0
C1622 C 0.98716 0.40858 0.80316 0.0
C1623 C 0.97636 0.40132 0.83395 0.0
C1624 C 0.9797 0.39955 0.88249 0.0
C1625 C 0.99393 0.40498 0.89948 0.0
C1626 C 0.00484 0.41158 0.86965 0.0
C1627 C 0.01883 0.41736 0.89706 0.0
C1628 C 0.03357 0.40841 0.88261 0.0
C1629 C 0.02099 0.43501 0.89077 0.0
C1630 C 0.01393 0.41337 0.94718 0.0
C1631 C 0.99957 0.40616 0.94787 0.0
C1632 C 0.99228 0.40218 0.99034 0.0
C1633 C 0.99989 0.40559 0.03318 0.0
C1634 C 0.01465 0.41293 0.03325 0.0
C1635 C 0.02173 0.41676 0.98952 0.0
H1636 H 0.3425 0.7407 0.95356 0.0
H1637 H 0.35568 0.78877 0.92976 0.0
H1638 H 0.35729 0.78364 0.84344 0.0
H1639 H 0.36643 0.72338 0.85795 0.0
H1640 H 0.35165 0.70929 0.84364 0.0
H1641 H 0.35355 0.71633 0.90365 0.0
H1642 H 0.32457 0.72459 0.90285 0.0
H1643 H 0.32262 0.71778 0.84274 0.0
H1644 H 0.31772 0.7376 0.85719 0.0
H1645 H 0.35485 0.77383 0.75913 0.0
H1646 H 0.34954 0.75998 0.68407 0.0
H1647 H 0.33757 0.71846 0.76381 0.0
C1648 C 0.34613 0.75008 0.93043 0.0
C1649 C 0.34907 0.76512 0.94848 0.0
C1650 C 0.35349 0.77712 0.91679 0.0
C1651 C 0.35441 0.77432 0.8677 0.0
C1652 C 0.35093 0.75946 0.85098 0.0
C1653 C 0.34702 0.7475 0.88149 0.0
C1654 C 0.34278 0.73288 0.85452 0.0
C1655 C 0.35429 0.7197 0.8656 0.0
C1656 C 0.32592 0.72793 0.86495 0.0
C1657 C 0.34456 0.73855 0.80396 0.0
C1658 C 0.34939 0.75387 0.8026 0.0
C1659 C 0.35124 0.76178 0.7598 0.0
C1660 C 0.34813 0.75382 0.71733 0.0
C1661 C 0.34314 0.73811 0.71793 0.0
C1662 C 0.34142 0.73044 0.76199 0.0
H1663 H 0.00563 0.58896 0.7159 0.0
H1664 H 0.95901 0.60652 0.69149 0.0
H1665 H 0.96491 0.60914 0.60576 0.0
H1666 H 0.02544 0.61329 0.62646 0.0
H1667 H 0.03859 0.59783 0.61053 0.0
H1668 H 0.0311 0.59906 0.67018 0.0
H1669 H 0.0208 0.57083 0.66324 0.0
H1670 H 0.02808 0.56958 0.60348 0.0
H1671 H 0.00782 0.56586 0.6153 0.0
H1672 H 0.97527 0.60708 0.52094 0.0
H1673 H 0.98962 0.60208 0.4462 0.0
H1674 H 0.02931 0.58611 0.52809 0.0
C1675 C 0.99674 0.59369 0.69279 0.0
C1676 C 0.98187 0.59759 0.71046 0.0
C1677 C 0.97054 0.60358 0.67884 0.0
C1678 C 0.97377 0.60506 0.63005 0.0
C1679 C 0.98842 0.60063 0.61362 0.0
C1680 C 0.99978 0.59527 0.64427 0.0
C1681 C 0.01432 0.59052 0.61778 0.0
C1682 C 0.02818 0.60079 0.63209 0.0
C1683 C 0.01796 0.57317 0.62541 0.0
C1684 C 0.0093 0.5937 0.56725 0.0
C1685 C 0.99436 0.59958 0.56537 0.0
C1686 C 0.98705 0.60268 0.52212 0.0
C1687 C 0.99527 0.59974 0.47983 0.0
C1688 C 0.01062 0.59376 0.48115 0.0
C1689 C 0.01765 0.59081 0.52564 0.0
H1690 H 0.16905 0.28626 0.26267 0.0
H1691 H 0.1495 0.2476 0.1836 0.0
H1692 H 0.14395 0.23397 0.25898 0.0
H1693 H 0.1882 0.26359 0.34879 0.0
H1694 H 0.18465 0.27694 0.39694 0.0
H1695 H 0.18584 0.28406 0.33698 0.0
H1696 H 0.15857 0.29659 0.3458 0.0
H1697 H 0.15725 0.2894 0.4058 0.0
H1698 H 0.14229 0.28469 0.36332 0.0
H1699 H 0.1418 0.22398 0.34335 0.0
H1700 H 0.1447 0.21792 0.42882 0.0
H1701 H 0.16575 0.26314 0.4516 0.0
C1702 C 0.16344 0.275 0.26111 0.0
C1703 C 0.15967 0.26803 0.21716 0.0
C1704 C 0.15251 0.25319 0.21681 0.0
C1705 C 0.14923 0.24539 0.25947 0.0
C1706 C 0.15316 0.25258 0.30217 0.0
C1707 C 0.16016 0.26704 0.30323 0.0
C1708 C 0.1641 0.27186 0.35349 0.0
C1709 C 0.18174 0.27424 0.35937 0.0
C1710 C 0.15501 0.2865 0.36794 0.0
C1711 C 0.1585 0.25774 0.38052 0.0
C1712 C 0.15205 0.24681 0.35046 0.0
C1713 C 0.14671 0.23252 0.36727 0.0
C1714 C 0.14835 0.22919 0.41589 0.0
C1715 C 0.15539 0.24007 0.44695 0.0
C1716 C 0.1602 0.25462 0.42894 0.0
H1717 H 0.48918 0.41494 0.20395 0.0
H1718 H 0.53312 0.39093 0.18484 0.0
H1719 H 0.52666 0.38654 0.10023 0.0
H1720 H 0.46601 0.39122 0.11946 0.0
H1721 H 0.4552 0.40796 0.09959 0.0
H1722 H 0.46235 0.4071 0.15973 0.0
H1723 H 0.47656 0.43335 0.14729 0.0
H1724 H 0.46961 0.43423 0.08714 0.0
H1725 H 0.49017 0.43531 0.09895 0.0
H1726 H 0.51668 0.38768 0.01551 0.0
H1727 H 0.50387 0.3937 0.93904 0.0
H1728 H 0.46665 0.41706 0.01492 0.0
C1729 C 0.49729 0.40839 0.18239 0.0
C1730 C 0.51162 0.4032 0.20109 0.0
C1731 C 0.52201 0.39491 0.17137 0.0
C1732 C 0.51844 0.39237 0.12327 0.0
C1733 C 0.5044 0.39809 0.10563 0.0
C1734 C 0.49393 0.4058 0.13449 0.0
C1735 C 0.48025 0.41193 0.10641 0.0
C1736 C 0.46505 0.40408 0.12224 0.0
C1737 C 0.47909 0.42976 0.11018 0.0
C1738 C 0.48484 0.40689 0.05693 0.0
C1739 C 0.49871 0.39878 0.05712 0.0
C1740 C 0.50569 0.39381 0.01507 0.0
C1741 C 0.49835 0.39732 0.97177 0.0
C1742 C 0.48422 0.40581 0.97089 0.0
C1743 C 0.47735 0.41042 0.01424 0.0
H1744 H 0.14622 0.35276 0.11471 0.0
H1745 H 0.11794 0.31124 0.10233 0.0
H1746 H 0.09419 0.32702 0.11433 0.0
H1747 H 0.12415 0.37223 0.20295 0.0
H1748 H 0.12624 0.39129 0.17714 0.0
H1749 H 0.14104 0.3768 0.16768 0.0
H1750 H 0.13818 0.37989 0.07651 0.0
H1751 H 0.12354 0.39457 0.0857 0.0
H1752 H 0.11927 0.3778 0.0496 0.0
H1753 H 0.07382 0.34708 0.13471 0.0
H1754 H 0.05774 0.3706 0.14717 0.0
H1755 H 0.09907 0.39931 0.13814 0.0
C1756 C 0.135 0.34705 0.11408 0.0
C1757 C 0.13384 0.33081 0.10778 0.0
C1758 C 0.11901 0.3237 0.10679 0.0
C1759 C 0.1055 0.33254 0.11396 0.0
C1760 C 0.10704 0.3485 0.12102 0.0
C1761 C 0.12137 0.35575 0.11986 0.0
C1762 C 0.11977 0.37316 0.12623 0.0
C1763 C 0.12831 0.37869 0.17118 0.0
C1764 C 0.12553 0.38187 0.08186 0.0
C1765 C 0.10232 0.37455 0.13183 0.0
C1766 C 0.09521 0.36016 0.12962 0.0
C1767 C 0.07923 0.35843 0.13588 0.0
C1768 C 0.07022 0.37181 0.14333 0.0
C1769 C 0.0772 0.3867 0.14341 0.0
C1770 C 0.09345 0.38804 0.13793 0.0
H1771 H 0.85534 0.84572 0.41495 0.0
H1772 H 0.88394 0.80419 0.41307 0.0
H1773 H 0.90734 0.82037 0.4005 0.0
H1774 H 0.87498 0.86656 0.32634 0.0
H1775 H 0.8735 0.88524 0.35501 0.0
H1776 H 0.85905 0.87055 0.36616 0.0
H1777 H 0.86427 0.87234 0.45666 0.0
H1778 H 0.87852 0.88726 0.44589 0.0
H1779 H 0.88383 0.87005 0.4786 0.0
H1780 H 0.92711 0.84094 0.37906 0.0
H1781 H 0.94259 0.86473 0.36472 0.0
H1782 H 0.90142 0.89292 0.38706 0.0
C1783 C 0.86658 0.84007 0.41276 0.0
C1784 C 0.86787 0.82372 0.41497 0.0
C1785 C 0.88273 0.81671 0.41193 0.0
C1786 C 0.89606 0.8258 0.40439 0.0
C1787 C 0.89433 0.84187 0.40094 0.0
C1788 C 0.88002 0.84898 0.40628 0.0
C1789 C 0.88135 0.86647 0.40181 0.0
C1790 C 0.87165 0.87255 0.35983 0.0
C1791 C 0.87672 0.8745 0.44853 0.0
C1792 C 0.8986 0.86808 0.39221 0.0
C1793 C 0.90584 0.85375 0.39116 0.0
C1794 C 0.92161 0.85224 0.38053 0.0
C1795 C 0.93027 0.86579 0.37201 0.0
C1796 C 0.92319 0.88061 0.375 0.0
C1797 C 0.90713 0.88172 0.38492 0.0
H1798 H 0.35655 0.65219 0.61935 0.0
H1799 H 0.38535 0.69336 0.60708 0.0
H1800 H 0.40881 0.67742 0.62146 0.0
H1801 H 0.3779 0.63279 0.70983 0.0
H1802 H 0.37586 0.61365 0.68456 0.0
H1803 H 0.36123 0.6282 0.67362 0.0
H1804 H 0.36469 0.62474 0.58281 0.0
H1805 H 0.37916 0.61 0.59347 0.0
H1806 H 0.38379 0.6266 0.55707 0.0
H1807 H 0.42875 0.65745 0.64406 0.0
H1808 H 0.44468 0.63401 0.65809 0.0
H1809 H 0.40341 0.60525 0.64734 0.0
C1810 C 0.36783 0.65778 0.61925 0.0
C1811 C 0.3692 0.67398 0.61228 0.0
C1812 C 0.3841 0.68093 0.61203 0.0
C1813 C 0.39746 0.672 0.62057 0.0
C1814 C 0.39571 0.65609 0.62823 0.0
C1815 C 0.38133 0.64895 0.62635 0.0
C1816 C 0.3828 0.63154 0.63346 0.0
C1817 C 0.37392 0.62624 0.67802 0.0
C1818 C 0.37729 0.6227 0.58905 0.0
C1819 C 0.40022 0.63004 0.64027 0.0
C1820 C 0.40738 0.6444 0.63805 0.0
C1821 C 0.42331 0.64612 0.64525 0.0
C1822 C 0.43223 0.63276 0.65361 0.0
C1823 C 0.42527 0.61785 0.65368 0.0
C1824 C 0.40903 0.61651 0.64727 0.0
H1825 H 0.62876 0.17578 0.90042 0.0
H1826 H 0.67122 0.14862 0.90488 0.0
H1827 H 0.65591 0.1245 0.89565 0.0
H1828 H 0.6035 0.148 0.96169 0.0
H1829 H 0.58709 0.15202 0.9238 0.0
H1830 H 0.60128 0.16695 0.93522 0.0
H1831 H 0.60544 0.17025 0.84463 0.0
H1832 H 0.59144 0.15517 0.83294 0.0
H1833 H 0.61085 0.15363 0.80932 0.0
H1834 H 0.63614 0.10348 0.88498 0.0
H1835 H 0.61315 0.08677 0.87257 0.0
H1836 H 0.5836 0.12763 0.86843 0.0
C1837 C 0.63476 0.16471 0.90058 0.0
C1838 C 0.65113 0.16398 0.90416 0.0
C1839 C 0.65867 0.14937 0.90267 0.0
C1840 C 0.65008 0.13564 0.89734 0.0
C1841 C 0.63398 0.13676 0.89276 0.0
C1842 C 0.62638 0.15091 0.89421 0.0
C1843 C 0.60907 0.14891 0.8857 0.0
C1844 C 0.59968 0.15429 0.9292 0.0
C1845 C 0.6039 0.1575 0.84045 0.0
C1846 C 0.60815 0.13144 0.87932 0.0
C1847 C 0.62265 0.12467 0.88396 0.0
C1848 C 0.62474 0.10865 0.88102 0.0
C1849 C 0.61163 0.09926 0.87387 0.0
C1850 C 0.59667 0.10594 0.86896 0.0
C1851 C 0.59496 0.12225 0.87113 0.0
H1852 H 0.08786 0.61921 0.33472 0.0
H1853 H 0.08068 0.61011 0.48461 0.0
H1854 H 0.09983 0.63047 0.50497 0.0
H1855 H 0.12952 0.62461 0.34506 0.0
H1856 H 0.1303 0.63951 0.30009 0.0
H1857 H 0.1155 0.62473 0.29744 0.0
H1858 H 0.09421 0.64605 0.29556 0.0
H1859 H 0.10895 0.66089 0.2984 0.0
H1860 H 0.09362 0.66045 0.34204 0.0
H1861 H 0.11855 0.65304 0.50889 0.0
H1862 H 0.13827 0.67366 0.49573 0.0
H1863 H 0.13541 0.66587 0.34387 0.0
C1864 C 0.09035 0.62156 0.37175 0.0
C1865 C 0.08278 0.61323 0.40818 0.0
C1866 C 0.08643 0.61639 0.45626 0.0
C1867 C 0.09722 0.62796 0.46816 0.0
C1868 C 0.10449 0.63603 0.43149 0.0
C1869 C 0.10145 0.63276 0.38425 0.0
C1870 C 0.1115 0.64253 0.35175 0.0
C1871 C 0.12235 0.63223 0.32183 0.0
C1872 C 0.10147 0.6531 0.32008 0.0
C1873 C 0.12052 0.65189 0.38806 0.0
C1874 C 0.11611 0.64818 0.43385 0.0
C1875 C 0.12227 0.65589 0.47322 0.0
C1876 C 0.13339 0.66758 0.46551 0.0
C1877 C 0.13843 0.6711 0.41897 0.0
C1878 C 0.13191 0.66315 0.37989 0.0
H1879 H 0.63442 0.83345 0.6659 0.0
H1880 H 0.63695 0.82675 0.5135 0.0
H1881 H 0.61779 0.848 0.50197 0.0
H1882 H 0.593 0.83969 0.66849 0.0
H1883 H 0.59387 0.85369 0.71606 0.0
H1884 H 0.60841 0.83869 0.71181 0.0
H1885 H 0.63007 0.85962 0.71131 0.0
H1886 H 0.61559 0.8747 0.7154 0.0
H1887 H 0.6295 0.8749 0.66752 0.0
H1888 H 0.59943 0.87083 0.5076 0.0
H1889 H 0.58047 0.89119 0.52948 0.0
H1890 H 0.58773 0.88094 0.67868 0.0
C1891 C 0.631 0.83657 0.6301 0.0
C1892 C 0.63727 0.82872 0.59042 0.0
C1893 C 0.63229 0.83275 0.54418 0.0
C1894 C 0.62149 0.8448 0.53739 0.0
C1895 C 0.61555 0.85237 0.57734 0.0
C1896 C 0.6199 0.84821 0.62283 0.0
C1897 C 0.61107 0.85747 0.65984 0.0
C1898 C 0.60099 0.84674 0.69087 0.0
C1899 C 0.62223 0.86725 0.6903 0.0
C1900 C 0.60115 0.86764 0.6281 0.0
C1901 C 0.60412 0.8647 0.58064 0.0
C1902 C 0.59689 0.8731 0.5446 0.0
C1903 C 0.58621 0.88468 0.55738 0.0
C1904 C 0.58262 0.88752 0.6057 0.0
C1905 C 0.59017 0.87887 0.64147 0.0
H1906 H 0.41539 0.39237 0.9244 0.0
H1907 H 0.41465 0.40082 0.77268 0.0
H1908 H 0.39284 0.38218 0.76401 0.0
H1909 H 0.40942 0.35131 0.91418 0.0
H1910 H 0.39786 0.3498 0.96739 0.0
H1911 H 0.4123 0.36485 0.96226 0.0
H1912 H 0.39129 0.38569 0.97938 0.0
H1913 H 0.37676 0.3707 0.98447 0.0
H1914 H 0.37405 0.38643 0.943 0.0
H1915 H 0.37087 0.36326 0.77249 0.0
H1916 H 0.3525 0.34251 0.79473 0.0
H1917 H 0.36949 0.34393 0.93982 0.0
C1918 C 0.41045 0.3904 0.88952 0.0
C1919 C 0.41637 0.39816 0.84921 0.0
C1920 C 0.41007 0.39504 0.80387 0.0
C1921 C 0.3977 0.38454 0.79874 0.0
C1922 C 0.39209 0.37703 0.8392 0.0
C1923 C 0.39844 0.37959 0.8836 0.0
C1924 C 0.39118 0.36902 0.92058 0.0
C1925 C 0.40342 0.3581 0.94237 0.0
C1926 C 0.38282 0.37853 0.95913 0.0
C1927 C 0.37968 0.36015 0.89008 0.0
C1928 C 0.38021 0.36521 0.84347 0.0
C1929 C 0.37042 0.35913 0.80878 0.0
C1930 C 0.35998 0.3474 0.82184 0.0
C1931 C 0.35962 0.34162 0.86895 0.0
C1932 C 0.36959 0.3481 0.90352 0.0
H1933 H 0.86469 0.16414 0.07031 0.0
H1934 H 0.84555 0.16272 0.21283 0.0
H1935 H 0.86441 0.14235 0.2348 0.0
H1936 H 0.87099 0.12192 0.06204 0.0
H1937 H 0.8886 0.12396 0.02793 0.0
H1938 H 0.87351 0.13841 0.0233 0.0
H1939 H 0.89337 0.15982 0.04575 0.0
H1940 H 0.90848 0.14542 0.05094 0.0
H1941 H 0.90425 0.1581 0.10026 0.0
H1942 H 0.88711 0.12424 0.24383 0.0
H1943 H 0.90942 0.1062 0.23531 0.0
H1944 H 0.91194 0.11695 0.08511 0.0
C1945 C 0.86439 0.15938 0.10591 0.0
C1946 C 0.85369 0.165 0.13991 0.0
C1947 C 0.85357 0.15849 0.18613 0.0
C1948 C 0.8643 0.14699 0.19906 0.0
C1949 C 0.87486 0.14186 0.16505 0.0
C1950 C 0.87475 0.14754 0.11908 0.0
C1951 C 0.88707 0.13962 0.08908 0.0
C1952 C 0.87959 0.13043 0.04817 0.0
C1953 C 0.899 0.15145 0.07042 0.0
C1954 C 0.89427 0.12884 0.12562 0.0
C1955 C 0.88723 0.13052 0.16943 0.0
C1956 C 0.89253 0.12259 0.20951 0.0
C1957 C 0.90522 0.11246 0.20448 0.0
C1958 C 0.91215 0.11012 0.15955 0.0
C1959 C 0.90661 0.1184 0.11969 0.0
H1960 H 0.85775 0.66594 0.84835 0.0
H1961 H 0.85533 0.673 1.00055 0.0
H1962 H 0.87409 0.6514 0.01258 0.0
H1963 H 0.86247 0.62421 0.84715 0.0
H1964 H 0.87643 0.6244 0.79941 0.0
H1965 H 0.86192 0.63946 0.80325 0.0
H1966 H 0.88356 0.66041 0.80273 0.0
H1967 H 0.89813 0.64542 0.79883 0.0
H1968 H 0.89891 0.65947 0.84627 0.0
H1969 H 0.89233 0.62846 0.00737 0.0
H1970 H 0.91153 0.60828 0.98587 0.0
H1971 H 0.90444 0.6184 0.83653 0.0
C1972 C 0.86106 0.66276 0.8842 0.0
C1973 C 0.85495 0.67079 0.92372 0.0
C1974 C 0.85982 0.66678 0.97004 0.0
C1975 C 0.87041 0.65455 0.9771 0.0
C1976 C 0.87624 0.64681 0.9373 0.0
C1977 C 0.87197 0.65096 0.89171 0.0
C1978 C 0.88086 0.64168 0.85488 0.0
C1979 C 0.86976 0.63185 0.82438 0.0
C1980 C 0.89097 0.65239 0.82386 0.0
C1981 C 0.89075 0.63154 0.88682 0.0
C1982 C 0.88768 0.63448 0.93422 0.0
C1983 C 0.89494 0.62617 0.97041 0.0
C1984 C 0.90575 0.6147 0.95786 0.0
C1985 C 0.90948 0.61189 0.90962 0.0
C1986 C 0.90188 0.62044 0.87368 0.0
H1987 H 0.13318 0.16206 0.57089 0.0
H1988 H 0.14516 0.16813 0.71942 0.0
H1989 H 0.125 0.1491 0.7421 0.0
H1990 H 0.09208 0.15688 0.58531 0.0
H1991 H 0.09048 0.14184 0.54101 0.0
H1992 H 0.10553 0.1563 0.53622 0.0
H1993 H 0.12643 0.13462 0.53305 0.0
H1994 H 0.11143 0.1201 0.53757 0.0
H1995 H 0.1272 0.12031 0.57977 0.0
H1996 H 0.10239 0.13081 0.74908 0.0
H1997 H 0.08124 0.11154 0.73904 0.0
H1998 H 0.08582 0.11512 0.58605 0.0
C1999 C 0.13153 0.15932 0.60811 0.0
C2000 C 0.14063 0.16657 0.64348 0.0
C2001 C 0.13833 0.16262 0.6918 0.0
C2002 C 0.12686 0.15191 0.70506 0.0
C2003 C 0.11801 0.145 0.66946 0.0
C2004 C 0.12041 0.14829 0.62192 0.0
C2005 C 0.1098 0.13861 0.59072 0.0
C2006 C 0.09882 0.14903 0.56161 0.0
C2007 C 0.11928 0.12777 0.55837 0.0
C2008 C 0.10098 0.12954 0.62819 0.0
C2009 C 0.10571 0.1336 0.67341 0.0
C2010 C 0.09873 0.12736 0.71385 0.0
C2011 C 0.08671 0.1165 0.70788 0.0
C2012 C 0.0821 0.11178 0.66189 0.0
C2013 C 0.08933 0.11839 0.62162 0.0
H2014 H 0.60021 0.39393 0.36674 0.0
H2015 H 0.55866 0.36569 0.35447 0.0
H2016 H 0.57451 0.34191 0.36498 0.0
H2017 H 0.62492 0.3675 0.29938 0.0
H2018 H 0.64188 0.37155 0.33489 0.0
H2019 H 0.62714 0.38621 0.32738 0.0
H2020 H 0.62453 0.38843 0.41885 0.0
H2021 H 0.6391 0.3736 0.42662 0.0
H2022 H 0.62018 0.3713 0.45326 0.0
H2023 H 0.59473 0.32142 0.38308 0.0
H2024 H 0.61837 0.30529 0.39249 0.0
H2025 H 0.64697 0.34671 0.3848 0.0
C2026 C 0.5945 0.38271 0.36593 0.0
C2027 C 0.57824 0.38157 0.36002 0.0
C2028 C 0.57114 0.36675 0.35868 0.0
C2029 C 0.58002 0.35322 0.36502 0.0
C2030 C 0.59601 0.35473 0.37163 0.0
C2031 C 0.60325 0.36908 0.37087 0.0
C2032 C 0.6207 0.36746 0.37624 0.0
C2033 C 0.62915 0.37354 0.33182 0.0
C2034 C 0.62646 0.37569 0.42144 0.0
C2035 C 0.62214 0.34998 0.38066 0.0
C2036 C 0.60774 0.34287 0.37888 0.0
C2037 C 0.60608 0.32684 0.38397 0.0
C2038 C 0.61954 0.31779 0.38969 0.0
C2039 C 0.63443 0.32478 0.38922 0.0
C2040 C 0.6357 0.34108 0.38506 0.0
H2041 H 0.3596 0.83918 0.17123 0.0
H2042 H 0.35296 0.83683 0.0188 0.0
H2043 H 0.37078 0.85924 0.00841 0.0
H2044 H 0.36353 0.88098 0.18332 0.0
H2045 H 0.37883 0.87968 0.22693 0.0
H2046 H 0.36451 0.86446 0.22262 0.0
H2047 H 0.3864 0.8441 0.21144 0.0
H2048 H 0.40079 0.85923 0.21577 0.0
H2049 H 0.40042 0.8467 0.16448 0.0
H2050 H 0.38877 0.88218 0.01526 0.0
H2051 H 0.40847 0.9018 0.03696 0.0
H2052 H 0.40575 0.88725 0.18427 0.0
C2053 C 0.36176 0.84357 0.13577 0.0
C2054 C 0.35475 0.83659 0.09576 0.0
C2055 C 0.35815 0.84221 0.04976 0.0
C2056 C 0.36819 0.85492 0.04363 0.0
C2057 C 0.37497 0.86156 0.08384 0.0
C2058 C 0.37212 0.85591 0.12895 0.0
C2059 C 0.38191 0.86425 0.1658 0.0
C2060 C 0.37157 0.87285 0.20179 0.0
C2061 C 0.39304 0.85289 0.19083 0.0
C2062 C 0.39068 0.87554 0.13441 0.0
C2063 C 0.38625 0.87399 0.0874 0.0
C2064 C 0.3924 0.88342 0.05188 0.0
C2065 C 0.40352 0.89457 0.06459 0.0
C2066 C 0.40864 0.89598 0.11222 0.0
C2067 C 0.4021 0.88634 0.14756 0.0
H2068 H 0.89965 0.3969 0.63094 0.0
H2069 H 0.94202 0.36996 0.64507 0.0
H2070 H 0.92719 0.34581 0.62997 0.0
H2071 H 0.87509 0.36888 0.69205 0.0
H2072 H 0.85846 0.37281 0.65493 0.0
H2073 H 0.87258 0.38784 0.66584 0.0
H2074 H 0.87626 0.39123 0.57504 0.0
H2075 H 0.86235 0.37601 0.56388 0.0
H2076 H 0.88167 0.37468 0.53939 0.0
H2077 H 0.90795 0.32486 0.60779 0.0
H2078 H 0.88502 0.30802 0.59516 0.0
H2079 H 0.85491 0.3484 0.60269 0.0
C2080 C 0.90575 0.38589 0.6312 0.0
C2081 C 0.92196 0.38523 0.63897 0.0
C2082 C 0.92958 0.37065 0.63948 0.0
C2083 C 0.92128 0.35692 0.63051 0.0
C2084 C 0.90535 0.35798 0.62203 0.0
C2085 C 0.89759 0.37204 0.62353 0.0
C2086 C 0.8803 0.36991 0.61582 0.0
C2087 C 0.87107 0.37516 0.65978 0.0
C2088 C 0.87483 0.37847 0.57085 0.0
C2089 C 0.87954 0.35245 0.60935 0.0
C2090 C 0.89416 0.34582 0.6121 0.0
C2091 C 0.89644 0.32991 0.60601 0.0
C2092 C 0.88337 0.32045 0.59843 0.0
C2093 C 0.86824 0.32693 0.598 0.0
C2094 C 0.86636 0.34316 0.60292 0.0
H2095 H 0.36845 0.16463 0.34707 0.0
H2096 H 0.36768 0.17481 0.49783 0.0
H2097 H 0.38806 0.15487 0.51126 0.0
H2098 H 0.37511 0.12373 0.35377 0.0
H2099 H 0.38835 0.12321 0.30417 0.0
H2100 H 0.37343 0.13788 0.30681 0.0
H2101 H 0.39432 0.15942 0.29886 0.0
H2102 H 0.4093 0.14481 0.29602 0.0
H2103 H 0.41033 0.15995 0.34019 0.0
H2104 H 0.407 0.1325 0.5083 0.0
H2105 H 0.4259 0.11181 0.4886 0.0
H2106 H 0.4166 0.11841 0.33861 0.0
C2107 C 0.37258 0.16259 0.3829 0.0
C2108 C 0.36644 0.17102 0.42163 0.0
C2109 C 0.37227 0.16838 0.46787 0.0
C2110 C 0.38376 0.15707 0.47575 0.0
C2111 C 0.38953 0.14886 0.43677 0.0
C2112 C 0.38437 0.15172 0.39113 0.0
C2113 C 0.39302 0.14187 0.35513 0.0
C2114 C 0.38181 0.13103 0.32841 0.0
C2115 C 0.40229 0.15213 0.32051 0.0
C2116 C 0.4037 0.13281 0.38769 0.0
C2117 C 0.40132 0.13685 0.43472 0.0
C2118 C 0.40914 0.12942 0.4716 0.0
C2119 C 0.41977 0.11766 0.46011 0.0
C2120 C 0.42275 0.1137 0.41217 0.0
C2121 C 0.41467 0.12142 0.3755 0.0
H2122 H 0.64253 0.66303 0.1615 0.0
H2123 H 0.64492 0.66789 0.00852 0.0
H2124 H 0.62632 0.64603 0.99938 0.0
H2125 H 0.63782 0.62116 0.16833 0.0
H2126 H 0.62384 0.62211 0.21595 0.0
H2127 H 0.63842 0.63703 0.21013 0.0
H2128 H 0.61687 0.65807 0.20779 0.0
H2129 H 0.60224 0.64323 0.21365 0.0
H2130 H 0.60153 0.65659 0.16436 0.0
H2131 H 0.60797 0.62334 0.00758 0.0
H2132 H 0.5884 0.60386 0.03152 0.0
H2133 H 0.59561 0.61592 0.1795 0.0
C2134 C 0.63928 0.65927 0.12612 0.0
C2135 C 0.64531 0.66678 0.08555 0.0
C2136 C 0.6405 0.66206 0.03982 0.0
C2137 C 0.63001 0.64967 0.03441 0.0
C2138 C 0.62421 0.64248 0.0752 0.0
C2139 C 0.62846 0.6473 0.1202 0.0
C2140 C 0.61951 0.6386 0.1582 0.0
C2141 C 0.63056 0.62916 0.19002 0.0
C2142 C 0.60944 0.64979 0.18773 0.0
C2143 C 0.60958 0.62806 0.12762 0.0
C2144 C 0.61272 0.63027 0.07989 0.0
C2145 C 0.60534 0.62159 0.04479 0.0
C2146 C 0.59431 0.61051 0.05876 0.0
C2147 C 0.59049 0.60846 0.10731 0.0
C2148 C 0.59826 0.61734 0.14214 0.0
H2149 H 0.10198 0.89363 0.88667 0.0
H2150 H 0.06132 0.86504 0.86074 0.0
H2151 H 0.0771 0.84139 0.87372 0.0
H2152 H 0.12898 0.8681 0.82486 0.0
H2153 H 0.14473 0.87198 0.86544 0.0
H2154 H 0.13009 0.88656 0.85502 0.0
H2155 H 0.12467 0.88785 0.94549 0.0
H2156 H 0.13911 0.87308 0.9561 0.0
H2157 H 0.11949 0.87035 0.97696 0.0
H2158 H 0.0969 0.821 0.89462 0.0
H2159 H 0.12027 0.80493 0.90789 0.0
H2160 H 0.14861 0.84662 0.91369 0.0
C2161 C 0.09645 0.88237 0.88342 0.0
C2162 C 0.08043 0.88112 0.87289 0.0
C2163 C 0.0736 0.86623 0.8685 0.0
C2164 C 0.08243 0.85275 0.87622 0.0
C2165 C 0.09813 0.85438 0.88744 0.0
C2166 C 0.10518 0.86879 0.88989 0.0
C2167 C 0.12242 0.86727 0.90013 0.0
C2168 C 0.13213 0.87386 0.8589 0.0
C2169 C 0.12667 0.8751 0.94749 0.0
C2170 C 0.12395 0.84976 0.9034 0.0
C2171 C 0.10974 0.84257 0.89686 0.0
C2172 C 0.10811 0.82649 0.89938 0.0
C2173 C 0.12144 0.81747 0.90733 0.0
C2174 C 0.13625 0.82453 0.91178 0.0
C2175 C 0.13744 0.84091 0.91038 0.0
loop_
_geom_bond_atom_site_label_1
_geom_bond_atom_site_label_2
_geom_bond_distance
_geom_bond_site_symmetry_2
_ccdc_geom_bond_type
O0 Cd1 2.223 . S
O0 C8 1.315 . S
Cd1 O0 2.223 . S
Cd1 O4 2.297 . S
Cd1 O5 2.439 . S
Cd1 O11 2.240 . S
Cd2 O3 2.240 . S
Cd2 O10 2.223 . S
Cd2 O12 2.297 1_554 S
Cd2 O13 2.439 1_554 S
O3 Cd2 2.240 . S
O3 C8 1.279 . S
O4 Cd1 2.297 . S
O4 C6 1.247 . S
O5 Cd1 2.439 . S
O5 C6 1.208 . S
C6 O4 1.247 . S
C6 O5 1.208 . S
C7 O12 1.247 . S
C7 O13 1.208 . S
C8 O0 1.315 . S
C8 O3 1.279 . S
C9 O10 1.315 . S
C9 O11 1.279 . S
O10 Cd2 2.223 . S
O10 C9 1.315 . S
O11 Cd1 2.240 . S
O11 C9 1.279 . S
O12 Cd2 2.297 1_556 S
O12 C7 1.247 . S
O13 Cd2 2.439 1_556 S
O13 C7 1.208 . S
O14 Cd15 2.223 . S
O14 C22 1.315 . S
Cd15 O14 2.223 . S
Cd15 O18 2.297 . S
Cd15 O19 2.439 . S
Cd15 O25 2.240 . S
Cd16 O17 2.240 . S
Cd16 O24 2.223 . S
Cd16 O26 2.297 . S
Cd16 O27 2.439 . S
O17 Cd16 2.240 . S
O17 C22 1.279 . S
O18 Cd15 2.297 . S
O18 C20 1.247 . S
O19 Cd15 2.439 . S
O19 C20 1.208 . S
C20 O18 1.247 . S
C20 O19 1.208 . S
C21 O26 1.247 . S
C21 O27 1.208 . S
C22 O14 1.315 . S
C22 O17 1.279 . S
C23 O24 1.315 . S
C23 O25 1.279 . S
O24 Cd16 2.223 . S
O24 C23 1.315 . S
O25 Cd15 2.240 . S
O25 C23 1.279 . S
O26 Cd16 2.297 . S
O26 C21 1.247 . S
O27 Cd16 2.439 . S
O27 C21 1.208 . S
O28 Cd29 2.223 . S
O28 C36 1.315 . S
Cd29 O28 2.223 . S
Cd29 O32 2.297 . S
Cd29 O33 2.439 . S
Cd29 O39 2.240 . S
Cd30 O31 2.240 . S
Cd30 O38 2.223 . S
Cd30 O40 2.297 . S
Cd30 O41 2.439 . S
O31 Cd30 2.240 . S
O31 C36 1.279 . S
O32 Cd29 2.297 . S
O32 C34 1.247 . S
O33 Cd29 2.439 . S
O33 C34 1.208 . S
C34 O32 1.247 . S
C34 O33 1.208 . S
C35 O40 1.247 . S
C35 O41 1.208 . S
C36 O28 1.315 . S
C36 O31 1.279 . S
C37 O38 1.315 . S
C37 O39 1.279 . S
O38 Cd30 2.223 . S
O38 C37 1.315 . S
O39 Cd29 2.240 . S
O39 C37 1.279 . S
O40 Cd30 2.297 . S
O40 C35 1.247 . S
O41 Cd30 2.439 . S
O41 C35 1.208 . S
O42 Cd43 2.223 . S
O42 C50 1.315 . S
Cd43 O42 2.223 . S
Cd43 O46 2.297 . S
Cd43 O47 2.439 . S
Cd43 O53 2.240 . S
Cd44 O45 2.240 . S
Cd44 O52 2.223 . S
Cd44 O54 2.297 . S
Cd44 O55 2.439 . S
O45 Cd44 2.240 . S
O45 C50 1.279 . S
O46 Cd43 2.297 . S
O46 C48 1.247 . S
O47 Cd43 2.439 . S
O47 C48 1.208 . S
C48 O46 1.247 . S
C48 O47 1.208 . S
C49 O54 1.247 . S
C49 O55 1.208 . S
C50 O42 1.315 . S
C50 O45 1.279 . S
C51 O52 1.315 . S
C51 O53 1.279 . S
O52 Cd44 2.223 . S
O52 C51 1.315 . S
O53 Cd43 2.240 . S
O53 C51 1.279 . S
O54 Cd44 2.297 . S
O54 C49 1.247 . S
O55 Cd44 2.439 . S
O55 C49 1.208 . S
O56 Cd57 2.223 . S
O56 C64 1.315 . S
Cd57 O56 2.223 . S
Cd57 O60 2.297 . S
Cd57 O61 2.439 . S
Cd57 O67 2.240 . S
Cd58 O59 2.240 . S
Cd58 O66 2.223 . S
Cd58 O68 2.297 . S
Cd58 O69 2.439 . S
O59 Cd58 2.240 . S
O59 C64 1.279 . S
O60 Cd57 2.297 . S
O60 C62 1.247 . S
O61 Cd57 2.439 . S
O61 C62 1.208 . S
C62 O60 1.247 . S
C62 O61 1.208 . S
C63 O68 1.247 . S
C63 O69 1.208 . S
C64 O56 1.315 . S
C64 O59 1.279 . S
C65 O66 1.315 . S
C65 O67 1.279 . S
O66 Cd58 2.223 . S
O66 C65 1.315 . S
O67 Cd57 2.240 . S
O67 C65 1.279 . S
O68 Cd58 2.297 . S
O68 C63 1.247 . S
O69 Cd58 2.439 . S
O69 C63 1.208 . S
O70 Cd71 2.223 . S
O70 C78 1.315 . S
Cd71 O70 2.223 . S
Cd71 O74 2.297 . S
Cd71 O75 2.439 . S
Cd71 O81 2.240 . S
Cd72 O73 2.240 . S
Cd72 O80 2.223 . S
Cd72 O82 2.297 . S
Cd72 O83 2.439 . S
O73 Cd72 2.240 . S
O73 C78 1.279 . S
O74 Cd71 2.297 . S
O74 C76 1.247 . S
O75 Cd71 2.439 . S
O75 C76 1.208 . S
C76 O74 1.247 . S
C76 O75 1.208 . S
C77 O82 1.247 . S
C77 O83 1.208 . S
C78 O70 1.315 . S
C78 O73 1.279 . S
C79 O80 1.315 . S
C79 O81 1.279 . S
O80 Cd72 2.223 . S
O80 C79 1.315 . S
O81 Cd71 2.240 . S
O81 C79 1.279 . S
O82 Cd72 2.297 . S
O82 C77 1.247 . S
O83 Cd72 2.439 . S
O83 C77 1.208 . S
O84 Cd85 2.223 . S
O84 C92 1.315 . S
Cd85 O84 2.223 . S
Cd85 O88 2.297 . S
Cd85 O89 2.439 . S
Cd85 O95 2.240 . S
Cd86 O87 2.240 . S
Cd86 O94 2.223 . S
Cd86 O96 2.297 1_556 S
Cd86 O97 2.439 1_556 S
O87 Cd86 2.240 . S
O87 C92 1.279 . S
O88 Cd85 2.297 . S
O88 C90 1.247 . S
O89 Cd85 2.439 . S
O89 C90 1.208 . S
C90 O88 1.247 . S
C90 O89 1.208 . S
C91 O96 1.247 . S
C91 O97 1.208 . S
C92 O84 1.315 . S
C92 O87 1.279 . S
C93 O94 1.315 . S
C93 O95 1.279 . S
O94 Cd86 2.223 . S
O94 C93 1.315 . S
O95 Cd85 2.240 . S
O95 C93 1.279 . S
O96 Cd86 2.297 1_554 S
O96 C91 1.247 . S
O97 Cd86 2.439 1_554 S
O97 C91 1.208 . S
O98 Cd99 2.223 . S
O98 C106 1.315 . S
Cd99 O98 2.223 . S
Cd99 O102 2.297 . S
Cd99 O103 2.439 . S
Cd99 O109 2.240 . S
Cd100 O101 2.240 . S
Cd100 O108 2.223 . S
Cd100 O110 2.297 . S
Cd100 O111 2.439 . S
O101 Cd100 2.240 . S
O101 C106 1.279 . S
O102 Cd99 2.297 . S
O102 C104 1.247 . S
O103 Cd99 2.439 . S
O103 C104 1.208 . S
C104 O102 1.247 . S
C104 O103 1.208 . S
C105 O110 1.247 . S
C105 O111 1.208 . S
C106 O98 1.315 . S
C106 O101 1.279 . S
C107 O108 1.315 . S
C107 O109 1.279 . S
O108 Cd100 2.223 . S
O108 C107 1.315 . S
O109 Cd99 2.240 . S
O109 C107 1.279 . S
O110 Cd100 2.297 . S
O110 C105 1.247 . S
O111 Cd100 2.439 . S
O111 C105 1.208 . S
O112 Cd113 2.223 . S
O112 C120 1.315 . S
Cd113 O112 2.223 . S
Cd113 O116 2.297 . S
Cd113 O117 2.439 . S
Cd113 O123 2.240 . S
Cd114 O115 2.240 . S
Cd114 O122 2.223 . S
Cd114 O124 2.297 1_556 S
Cd114 O125 2.439 1_556 S
O115 Cd114 2.240 . S
O115 C120 1.279 . S
O116 Cd113 2.297 . S
O116 C118 1.247 . S
O117 Cd113 2.439 . S
O117 C118 1.208 . S
C118 O116 1.247 . S
C118 O117 1.208 . S
C119 O124 1.247 . S
C119 O125 1.208 . S
C120 O112 1.315 . S
C120 O115 1.279 . S
C121 O122 1.315 . S
C121 O123 1.279 . S
O122 Cd114 2.223 . S
O122 C121 1.315 . S
O123 Cd113 2.240 . S
O123 C121 1.279 . S
O124 Cd114 2.297 1_554 S
O124 C119 1.247 . S
O125 Cd114 2.439 1_554 S
O125 C119 1.208 . S
O126 Cd127 2.223 . S
O126 C134 1.315 . S
Cd127 O126 2.223 . S
Cd127 O130 2.297 . S
Cd127 O131 2.439 . S
Cd127 O137 2.240 . S
Cd128 O129 2.240 . S
Cd128 O136 2.223 . S
Cd128 O138 2.297 . S
Cd128 O139 2.439 . S
O129 Cd128 2.240 . S
O129 C134 1.279 . S
O130 Cd127 2.297 . S
O130 C132 1.247 . S
O131 Cd127 2.439 . S
O131 C132 1.208 . S
C132 O130 1.247 . S
C132 O131 1.208 . S
C133 O138 1.247 . S
C133 O139 1.208 . S
C134 O126 1.315 . S
C134 O129 1.279 . S
C135 O136 1.315 . S
C135 O137 1.279 . S
O136 Cd128 2.223 . S
O136 C135 1.315 . S
O137 Cd127 2.240 . S
O137 C135 1.279 . S
O138 Cd128 2.297 . S
O138 C133 1.247 . S
O139 Cd128 2.439 . S
O139 C133 1.208 . S
O140 Cd141 2.223 . S
O140 C148 1.315 . S
Cd141 O140 2.223 . S
Cd141 O144 2.297 . S
Cd141 O145 2.439 . S
Cd141 O151 2.240 . S
Cd142 O143 2.240 . S
Cd142 O150 2.223 . S
Cd142 O152 2.297 . S
Cd142 O153 2.439 . S
O143 Cd142 2.240 . S
O143 C148 1.279 . S
O144 Cd141 2.297 . S
O144 C146 1.247 . S
O145 Cd141 2.439 . S
O145 C146 1.208 . S
C146 O144 1.247 . S
C146 O145 1.208 . S
C147 O152 1.247 . S
C147 O153 1.208 . S
C148 O140 1.315 . S
C148 O143 1.279 . S
C149 O150 1.315 . S
C149 O151 1.279 . S
O150 Cd142 2.223 . S
O150 C149 1.315 . S
O151 Cd141 2.240 . S
O151 C149 1.279 . S
O152 Cd142 2.297 . S
O152 C147 1.247 . S
O153 Cd142 2.439 . S
O153 C147 1.208 . S
O154 Cd155 2.223 . S
O154 C162 1.315 . S
Cd155 O154 2.223 . S
Cd155 O158 2.297 . S
Cd155 O159 2.439 . S
Cd155 O165 2.240 . S
Cd156 O157 2.240 . S
Cd156 O164 2.223 . S
Cd156 O166 2.297 . S
Cd156 O167 2.439 . S
O157 Cd156 2.240 . S
O157 C162 1.279 . S
O158 Cd155 2.297 . S
O158 C160 1.247 . S
O159 Cd155 2.439 . S
O159 C160 1.208 . S
C160 O158 1.247 . S
C160 O159 1.208 . S
C161 O166 1.247 . S
C161 O167 1.208 . S
C162 O154 1.315 . S
C162 O157 1.279 . S
C163 O164 1.315 . S
C163 O165 1.279 . S
O164 Cd156 2.223 . S
O164 C163 1.315 . S
O165 Cd155 2.240 . S
O165 C163 1.279 . S
O166 Cd156 2.297 . S
O166 C161 1.247 . S
O167 Cd156 2.439 . S
O167 C161 1.208 . S
O168 Cd169 2.223 . S
O168 C176 1.315 . S
Cd169 O168 2.223 . S
Cd169 O172 2.297 . S
Cd169 O173 2.439 . S
Cd169 O179 2.240 . S
Cd170 O171 2.240 . S
Cd170 O178 2.223 . S
Cd170 O180 2.297 . S
Cd170 O181 2.439 . S
O171 Cd170 2.240 . S
O171 C176 1.279 . S
O172 Cd169 2.297 . S
O172 C174 1.247 . S
O173 Cd169 2.439 . S
O173 C174 1.208 . S
C174 O172 1.247 . S
C174 O173 1.208 . S
C175 O180 1.247 . S
C175 O181 1.208 . S
C176 O168 1.315 . S
C176 O171 1.279 . S
C177 O178 1.315 . S
C177 O179 1.279 . S
O178 Cd170 2.223 . S
O178 C177 1.315 . S
O179 Cd169 2.240 . S
O179 C177 1.279 . S
O180 Cd170 2.297 . S
O180 C175 1.247 . S
O181 Cd170 2.439 . S
O181 C175 1.208 . S
O182 Cd183 2.223 . S
O182 C190 1.315 . S
Cd183 O182 2.223 . S
Cd183 O186 2.297 . S
Cd183 O187 2.439 . S
Cd183 O193 2.240 . S
Cd184 O185 2.240 . S
Cd184 O192 2.223 . S
Cd184 O194 2.297 . S
Cd184 O195 2.439 . S
O185 Cd184 2.240 . S
O185 C190 1.279 . S
O186 Cd183 2.297 . S
O186 C188 1.247 . S
O187 Cd183 2.439 . S
O187 C188 1.208 . S
C188 O186 1.247 . S
C188 O187 1.208 . S
C189 O194 1.247 . S
C189 O195 1.208 . S
C190 O182 1.315 . S
C190 O185 1.279 . S
C191 O192 1.315 . S
C191 O193 1.279 . S
O192 Cd184 2.223 . S
O192 C191 1.315 . S
O193 Cd183 2.240 . S
O193 C191 1.279 . S
O194 Cd184 2.297 . S
O194 C189 1.247 . S
O195 Cd184 2.439 . S
O195 C189 1.208 . S
O196 Cd197 2.223 . S
O196 C204 1.315 . S
Cd197 O196 2.223 . S
Cd197 O200 2.297 . S
Cd197 O201 2.439 . S
Cd197 O207 2.240 . S
Cd198 O199 2.240 . S
Cd198 O206 2.223 . S
Cd198 O208 2.297 1_554 S
Cd198 O209 2.439 1_554 S
O199 Cd198 2.240 . S
O199 C204 1.279 . S
O200 Cd197 2.297 . S
O200 C202 1.247 . S
O201 Cd197 2.439 . S
O201 C202 1.208 . S
C202 O200 1.247 . S
C202 O201 1.208 . S
C203 O208 1.247 . S
C203 O209 1.208 . S
C204 O196 1.315 . S
C204 O199 1.279 . S
C205 O206 1.315 . S
C205 O207 1.279 . S
O206 Cd198 2.223 . S
O206 C205 1.315 . S
O207 Cd197 2.240 . S
O207 C205 1.279 . S
O208 Cd198 2.297 1_556 S
O208 C203 1.247 . S
O209 Cd198 2.439 1_556 S
O209 C203 1.208 . S
O210 Cd211 2.223 . S
O210 C218 1.315 . S
Cd211 O210 2.223 . S
Cd211 O214 2.297 . S
Cd211 O215 2.439 . S
Cd211 O221 2.240 . S
Cd212 O213 2.240 . S
Cd212 O220 2.223 . S
Cd212 O222 2.297 . S
Cd212 O223 2.439 . S
O213 Cd212 2.240 . S
O213 C218 1.279 . S
O214 Cd211 2.297 . S
O214 C216 1.247 . S
O215 Cd211 2.439 . S
O215 C216 1.208 . S
C216 O214 1.247 . S
C216 O215 1.208 . S
C217 O222 1.247 . S
C217 O223 1.208 . S
C218 O210 1.315 . S
C218 O213 1.279 . S
C219 O220 1.315 . S
C219 O221 1.279 . S
O220 Cd212 2.223 . S
O220 C219 1.315 . S
O221 Cd211 2.240 . S
O221 C219 1.279 . S
O222 Cd212 2.297 . S
O222 C217 1.247 . S
O223 Cd212 2.439 . S
O223 C217 1.208 . S
O224 Cd225 2.223 . S
O224 C232 1.315 . S
Cd225 O224 2.223 . S
Cd225 O228 2.297 . S
Cd225 O229 2.439 . S
Cd225 O235 2.240 . S
Cd226 O227 2.240 . S
Cd226 O234 2.223 . S
Cd226 O236 2.297 . S
Cd226 O237 2.439 . S
O227 Cd226 2.240 . S
O227 C232 1.279 . S
O228 Cd225 2.297 . S
O228 C230 1.247 . S
O229 Cd225 2.439 . S
O229 C230 1.208 . S
C230 O228 1.247 . S
C230 O229 1.208 . S
C231 O236 1.247 . S
C231 O237 1.208 . S
C232 O224 1.315 . S
C232 O227 1.279 . S
C233 O234 1.315 . S
C233 O235 1.279 . S
O234 Cd226 2.223 . S
O234 C233 1.315 . S
O235 Cd225 2.240 . S
O235 C233 1.279 . S
O236 Cd226 2.297 . S
O236 C231 1.247 . S
O237 Cd226 2.439 . S
O237 C231 1.208 . S
O238 Cd239 2.223 . S
O238 C246 1.315 . S
Cd239 O238 2.223 . S
Cd239 O242 2.297 . S
Cd239 O243 2.439 . S
Cd239 O249 2.240 . S
Cd240 O241 2.240 . S
Cd240 O248 2.223 . S
Cd240 O250 2.297 . S
Cd240 O251 2.439 . S
O241 Cd240 2.240 . S
O241 C246 1.279 . S
O242 Cd239 2.297 . S
O242 C244 1.247 . S
O243 Cd239 2.439 . S
O243 C244 1.208 . S
C244 O242 1.247 . S
C244 O243 1.208 . S
C245 O250 1.247 . S
C245 O251 1.208 . S
C246 O238 1.315 . S
C246 O241 1.279 . S
C247 O248 1.315 . S
C247 O249 1.279 . S
O248 Cd240 2.223 . S
O248 C247 1.315 . S
O249 Cd239 2.240 . S
O249 C247 1.279 . S
O250 Cd240 2.297 . S
O250 C245 1.247 . S
O251 Cd240 2.439 . S
O251 C245 1.208 . S
O252 Cd253 2.223 . S
O252 C260 1.315 . S
Cd253 O252 2.223 . S
Cd253 O256 2.297 . S
Cd253 O257 2.439 . S
Cd253 O263 2.240 . S
Cd254 O255 2.240 . S
Cd254 O262 2.223 . S
Cd254 O264 2.297 1_554 S
Cd254 O265 2.439 1_554 S
O255 Cd254 2.240 . S
O255 C260 1.279 . S
O256 Cd253 2.297 . S
O256 C258 1.247 . S
O257 Cd253 2.439 . S
O257 C258 1.208 . S
C258 O256 1.247 . S
C258 O257 1.208 . S
C259 O264 1.247 . S
C259 O265 1.208 . S
C260 O252 1.315 . S
C260 O255 1.279 . S
C261 O262 1.315 . S
C261 O263 1.279 . S
O262 Cd254 2.223 . S
O262 C261 1.315 . S
O263 Cd253 2.240 . S
O263 C261 1.279 . S
O264 Cd254 2.297 1_556 S
O264 C259 1.247 . S
O265 Cd254 2.439 1_556 S
O265 C259 1.208 . S
O266 Cd267 2.223 . S
O266 C274 1.315 . S
Cd267 O266 2.223 . S
Cd267 O270 2.297 . S
Cd267 O271 2.439 . S
Cd267 O277 2.240 . S
Cd268 O269 2.240 . S
Cd268 O276 2.223 . S
Cd268 O278 2.297 . S
Cd268 O279 2.439 . S
O269 Cd268 2.240 . S
O269 C274 1.279 . S
O270 Cd267 2.297 . S
O270 C272 1.247 . S
O271 Cd267 2.439 . S
O271 C272 1.208 . S
C272 O270 1.247 . S
C272 O271 1.208 . S
C273 O278 1.247 . S
C273 O279 1.208 . S
C274 O266 1.315 . S
C274 O269 1.279 . S
C275 O276 1.315 . S
C275 O277 1.279 . S
O276 Cd268 2.223 . S
O276 C275 1.315 . S
O277 Cd267 2.240 . S
O277 C275 1.279 . S
O278 Cd268 2.297 . S
O278 C273 1.247 . S
O279 Cd268 2.439 . S
O279 C273 1.208 . S
O280 Cd281 2.223 . S
O280 C288 1.315 . S
Cd281 O280 2.223 . S
Cd281 O284 2.297 . S
Cd281 O285 2.439 . S
Cd281 O291 2.240 . S
Cd282 O283 2.240 . S
Cd282 O290 2.223 . S
Cd282 O292 2.297 1_556 S
Cd282 O293 2.439 1_556 S
O283 Cd282 2.240 . S
O283 C288 1.279 . S
O284 Cd281 2.297 . S
O284 C286 1.247 . S
O285 Cd281 2.439 . S
O285 C286 1.208 . S
C286 O284 1.247 . S
C286 O285 1.208 . S
C287 O292 1.247 . S
C287 O293 1.208 . S
C288 O280 1.315 . S
C288 O283 1.279 . S
C289 O290 1.315 . S
C289 O291 1.279 . S
O290 Cd282 2.223 . S
O290 C289 1.315 . S
O291 Cd281 2.240 . S
O291 C289 1.279 . S
O292 Cd282 2.297 1_554 S
O292 C287 1.247 . S
O293 Cd282 2.439 1_554 S
O293 C287 1.208 . S
O294 Cd295 2.223 . S
O294 C302 1.315 . S
Cd295 O294 2.223 . S
Cd295 O298 2.297 . S
Cd295 O299 2.439 . S
Cd295 O305 2.240 . S
Cd296 O297 2.240 . S
Cd296 O304 2.223 . S
Cd296 O306 2.297 . S
Cd296 O307 2.439 . S
O297 Cd296 2.240 . S
O297 C302 1.279 . S
O298 Cd295 2.297 . S
O298 C300 1.247 . S
O299 Cd295 2.439 . S
O299 C300 1.208 . S
C300 O298 1.247 . S
C300 O299 1.208 . S
C301 O306 1.247 . S
C301 O307 1.208 . S
C302 O294 1.315 . S
C302 O297 1.279 . S
C303 O304 1.315 . S
C303 O305 1.279 . S
O304 Cd296 2.223 . S
O304 C303 1.315 . S
O305 Cd295 2.240 . S
O305 C303 1.279 . S
O306 Cd296 2.297 . S
O306 C301 1.247 . S
O307 Cd296 2.439 . S
O307 C301 1.208 . S
O308 Cd309 2.223 . S
O308 C316 1.315 . S
Cd309 O308 2.223 . S
Cd309 O312 2.297 . S
Cd309 O313 2.439 . S
Cd309 O319 2.240 . S
Cd310 O311 2.240 . S
Cd310 O318 2.223 . S
Cd310 O320 2.297 . S
Cd310 O321 2.439 . S
O311 Cd310 2.240 . S
O311 C316 1.279 . S
O312 Cd309 2.297 . S
O312 C314 1.247 . S
O313 Cd309 2.439 . S
O313 C314 1.208 . S
C314 O312 1.247 . S
C314 O313 1.208 . S
C315 O320 1.247 . S
C315 O321 1.208 . S
C316 O308 1.315 . S
C316 O311 1.279 . S
C317 O318 1.315 . S
C317 O319 1.279 . S
O318 Cd310 2.223 . S
O318 C317 1.315 . S
O319 Cd309 2.240 . S
O319 C317 1.279 . S
O320 Cd310 2.297 . S
O320 C315 1.247 . S
O321 Cd310 2.439 . S
O321 C315 1.208 . S
O322 Cd323 2.223 . S
O322 C330 1.315 . S
Cd323 O322 2.223 . S
Cd323 O326 2.297 . S
Cd323 O327 2.439 . S
Cd323 O333 2.240 . S
Cd324 O325 2.240 . S
Cd324 O332 2.223 . S
Cd324 O334 2.297 . S
Cd324 O335 2.439 . S
O325 Cd324 2.240 . S
O325 C330 1.279 . S
O326 Cd323 2.297 . S
O326 C328 1.247 . S
O327 Cd323 2.439 . S
O327 C328 1.208 . S
C328 O326 1.247 . S
C328 O327 1.208 . S
C329 O334 1.247 . S
C329 O335 1.208 . S
C330 O322 1.315 . S
C330 O325 1.279 . S
C331 O332 1.315 . S
C331 O333 1.279 . S
O332 Cd324 2.223 . S
O332 C331 1.315 . S
O333 Cd323 2.240 . S
O333 C331 1.279 . S
O334 Cd324 2.297 . S
O334 C329 1.247 . S
O335 Cd324 2.439 . S
O335 C329 1.208 . S
O336 Cd337 2.223 . S
O336 C344 1.315 . S
Cd337 O336 2.223 . S
Cd337 O340 2.297 . S
Cd337 O341 2.439 . S
Cd337 O347 2.240 . S
Cd338 O339 2.240 . S
Cd338 O346 2.223 . S
Cd338 O348 2.297 . S
Cd338 O349 2.439 . S
O339 Cd338 2.240 . S
O339 C344 1.279 . S
O340 Cd337 2.297 . S
O340 C342 1.247 . S
O341 Cd337 2.439 . S
O341 C342 1.208 . S
C342 O340 1.247 . S
C342 O341 1.208 . S
C343 O348 1.247 . S
C343 O349 1.208 . S
C344 O336 1.315 . S
C344 O339 1.279 . S
C345 O346 1.315 . S
C345 O347 1.279 . S
O346 Cd338 2.223 . S
O346 C345 1.315 . S
O347 Cd337 2.240 . S
O347 C345 1.279 . S
O348 Cd338 2.297 . S
O348 C343 1.247 . S
O349 Cd338 2.439 . S
O349 C343 1.208 . S
O350 Cd351 2.223 . S
O350 C358 1.315 . S
Cd351 O350 2.223 . S
Cd351 O354 2.297 . S
Cd351 O355 2.439 . S
Cd351 O361 2.240 . S
Cd352 O353 2.240 . S
Cd352 O360 2.223 . S
Cd352 O362 2.297 . S
Cd352 O363 2.439 . S
O353 Cd352 2.240 . S
O353 C358 1.279 . S
O354 Cd351 2.297 . S
O354 C356 1.247 . S
O355 Cd351 2.439 . S
O355 C356 1.208 . S
C356 O354 1.247 . S
C356 O355 1.208 . S
C357 O362 1.247 . S
C357 O363 1.208 . S
C358 O350 1.315 . S
C358 O353 1.279 . S
C359 O360 1.315 . S
C359 O361 1.279 . S
O360 Cd352 2.223 . S
O360 C359 1.315 . S
O361 Cd351 2.240 . S
O361 C359 1.279 . S
O362 Cd352 2.297 . S
O362 C357 1.247 . S
O363 Cd352 2.439 . S
O363 C357 1.208 . S
O364 Cd365 2.223 . S
O364 C372 1.315 . S
Cd365 O364 2.223 . S
Cd365 O368 2.297 . S
Cd365 O369 2.439 . S
Cd365 O375 2.240 . S
Cd366 O367 2.240 . S
Cd366 O374 2.223 . S
Cd366 O376 2.297 1_556 S
Cd366 O377 2.439 1_556 S
O367 Cd366 2.240 . S
O367 C372 1.279 . S
O368 Cd365 2.297 . S
O368 C370 1.247 . S
O369 Cd365 2.439 . S
O369 C370 1.208 . S
C370 O368 1.247 . S
C370 O369 1.208 . S
C371 O376 1.247 . S
C371 O377 1.208 . S
C372 O364 1.315 . S
C372 O367 1.279 . S
C373 O374 1.315 . S
C373 O375 1.279 . S
O374 Cd366 2.223 . S
O374 C373 1.315 . S
O375 Cd365 2.240 . S
O375 C373 1.279 . S
O376 Cd366 2.297 1_554 S
O376 C371 1.247 . S
O377 Cd366 2.439 1_554 S
O377 C371 1.208 . S
O378 Cd379 2.223 . S
O378 C386 1.315 . S
Cd379 O378 2.223 . S
Cd379 O382 2.297 . S
Cd379 O383 2.439 . S
Cd379 O389 2.240 . S
Cd380 O381 2.240 . S
Cd380 O388 2.223 . S
Cd380 O390 2.297 . S
Cd380 O391 2.439 . S
O381 Cd380 2.240 . S
O381 C386 1.279 . S
O382 Cd379 2.297 . S
O382 C384 1.247 . S
O383 Cd379 2.439 . S
O383 C384 1.208 . S
C384 O382 1.247 . S
C384 O383 1.208 . S
C385 O390 1.247 . S
C385 O391 1.208 . S
C386 O378 1.315 . S
C386 O381 1.279 . S
C387 O388 1.315 . S
C387 O389 1.279 . S
O388 Cd380 2.223 . S
O388 C387 1.315 . S
O389 Cd379 2.240 . S
O389 C387 1.279 . S
O390 Cd380 2.297 . S
O390 C385 1.247 . S
O391 Cd380 2.439 . S
O391 C385 1.208 . S
O392 Cd393 2.223 . S
O392 C400 1.315 . S
Cd393 O392 2.223 . S
Cd393 O396 2.297 . S
Cd393 O397 2.439 . S
Cd393 O403 2.240 . S
Cd394 O395 2.240 . S
Cd394 O402 2.223 . S
Cd394 O404 2.297 1_554 S
Cd394 O405 2.439 1_554 S
O395 Cd394 2.240 . S
O395 C400 1.279 . S
O396 Cd393 2.297 . S
O396 C398 1.247 . S
O397 Cd393 2.439 . S
O397 C398 1.208 . S
C398 O396 1.247 . S
C398 O397 1.208 . S
C399 O404 1.247 . S
C399 O405 1.208 . S
C400 O392 1.315 . S
C400 O395 1.279 . S
C401 O402 1.315 . S
C401 O403 1.279 . S
O402 Cd394 2.223 . S
O402 C401 1.315 . S
O403 Cd393 2.240 . S
O403 C401 1.279 . S
O404 Cd394 2.297 1_556 S
O404 C399 1.247 . S
O405 Cd394 2.439 1_556 S
O405 C399 1.208 . S
O406 Cd407 2.223 . S
O406 C414 1.315 . S
Cd407 O406 2.223 . S
Cd407 O410 2.297 . S
Cd407 O411 2.439 . S
Cd407 O417 2.240 . S
Cd408 O409 2.240 . S
Cd408 O416 2.223 . S
Cd408 O418 2.297 . S
Cd408 O419 2.439 . S
O409 Cd408 2.240 . S
O409 C414 1.279 . S
O410 Cd407 2.297 . S
O410 C412 1.247 . S
O411 Cd407 2.439 . S
O411 C412 1.208 . S
C412 O410 1.247 . S
C412 O411 1.208 . S
C413 O418 1.247 . S
C413 O419 1.208 . S
C414 O406 1.315 . S
C414 O409 1.279 . S
C415 O416 1.315 . S
C415 O417 1.279 . S
O416 Cd408 2.223 . S
O416 C415 1.315 . S
O417 Cd407 2.240 . S
O417 C415 1.279 . S
O418 Cd408 2.297 . S
O418 C413 1.247 . S
O419 Cd408 2.439 . S
O419 C413 1.208 . S
O420 Cd421 2.223 . S
O420 C428 1.315 . S
Cd421 O420 2.223 . S
Cd421 O424 2.297 . S
Cd421 O425 2.439 . S
Cd421 O431 2.240 . S
Cd422 O423 2.240 . S
Cd422 O430 2.223 . S
Cd422 O432 2.297 . S
Cd422 O433 2.439 . S
O423 Cd422 2.240 . S
O423 C428 1.279 . S
O424 Cd421 2.297 . S
O424 C426 1.247 . S
O425 Cd421 2.439 . S
O425 C426 1.208 . S
C426 O424 1.247 . S
C426 O425 1.208 . S
C427 O432 1.247 . S
C427 O433 1.208 . S
C428 O420 1.315 . S
C428 O423 1.279 . S
C429 O430 1.315 . S
C429 O431 1.279 . S
O430 Cd422 2.223 . S
O430 C429 1.315 . S
O431 Cd421 2.240 . S
O431 C429 1.279 . S
O432 Cd422 2.297 . S
O432 C427 1.247 . S
O433 Cd422 2.439 . S
O433 C427 1.208 . S
O434 Cd435 2.223 . S
O434 C442 1.315 . S
Cd435 O434 2.223 . S
Cd435 O438 2.297 . S
Cd435 O439 2.439 . S
Cd435 O445 2.240 . S
Cd436 O437 2.240 . S
Cd436 O444 2.223 . S
Cd436 O446 2.297 . S
Cd436 O447 2.439 . S
O437 Cd436 2.240 . S
O437 C442 1.279 . S
O438 Cd435 2.297 . S
O438 C440 1.247 . S
O439 Cd435 2.439 . S
O439 C440 1.208 . S
C440 O438 1.247 . S
C440 O439 1.208 . S
C441 O446 1.247 . S
C441 O447 1.208 . S
C442 O434 1.315 . S
C442 O437 1.279 . S
C443 O444 1.315 . S
C443 O445 1.279 . S
O444 Cd436 2.223 . S
O444 C443 1.315 . S
O445 Cd435 2.240 . S
O445 C443 1.279 . S
O446 Cd436 2.297 . S
O446 C441 1.247 . S
O447 Cd436 2.439 . S
O447 C441 1.208 . S
H448 C460 0.930 . S
H449 C462 0.930 1_554 S
H450 C463 0.930 . S
H451 C467 0.959 . S
H452 C467 0.959 . S
H453 C467 0.961 . S
H454 C468 0.960 . S
H455 C468 0.961 . S
H456 C468 0.959 . S
H457 C471 0.929 . S
H458 C472 0.931 . S
H459 C474 0.930 . S
C460 H448 0.930 . S
C460 C461 1.399 . S
C460 C465 1.399 . S
C461 C460 1.399 . S
C461 C462 1.376 . S
C462 H449 0.930 1_556 S
C462 C461 1.376 . S
C462 C463 1.388 1_556 S
C463 H450 0.930 . S
C463 C462 1.388 1_554 S
C463 C464 1.390 . S
C464 C463 1.390 . S
C464 C465 1.394 1_554 S
C464 C470 1.465 . S
C465 C460 1.399 . S
C465 C464 1.394 1_556 S
C465 C466 1.516 . S
C466 C465 1.516 . S
C466 C467 1.502 . S
C466 C468 1.561 1_556 S
C466 C469 1.526 1_556 S
C467 H451 0.959 . S
C467 H452 0.959 . S
C467 H453 0.961 . S
C467 C466 1.502 . S
C468 H454 0.960 . S
C468 H455 0.961 . S
C468 H456 0.959 . S
C468 C466 1.561 1_554 S
C469 C466 1.526 1_554 S
C469 C470 1.396 . S
C469 C474 1.390 . S
C470 C464 1.465 . S
C470 C469 1.396 . S
C470 C471 1.399 . S
C471 H457 0.929 . S
C471 C470 1.399 . S
C471 C472 1.385 . S
C472 H458 0.931 . S
C472 C471 1.385 . S
C472 C473 1.389 . S
C473 C472 1.389 . S
C473 C474 1.387 . S
C474 H459 0.930 . S
C474 C469 1.390 . S
C474 C473 1.387 . S
H475 C487 0.930 . S
H476 C489 0.930 . S
H477 C490 0.930 . S
H478 C494 0.959 . S
H479 C494 0.959 1_545 S
H480 C494 0.961 . S
H481 C495 0.960 . S
H482 C495 0.961 1_545 S
H483 C495 0.959 . S
H484 C498 0.929 . S
H485 C499 0.931 . S
H486 C501 0.930 . S
C487 H475 0.930 . S
C487 C488 1.399 . S
C487 C492 1.399 . S
C488 C487 1.399 . S
C488 C489 1.376 . S
C489 H476 0.930 . S
C489 C488 1.376 . S
C489 C490 1.388 . S
C490 H477 0.930 . S
C490 C489 1.388 . S
C490 C491 1.390 . S
C491 C490 1.390 . S
C491 C492 1.394 . S
C491 C497 1.465 1_565 S
C492 C487 1.399 . S
C492 C491 1.394 . S
C492 C493 1.516 . S
C493 C492 1.516 . S
C493 C494 1.502 . S
C493 C495 1.561 . S
C493 C496 1.526 1_565 S
C494 H478 0.959 . S
C494 H479 0.959 1_565 S
C494 H480 0.961 . S
C494 C493 1.502 . S
C495 H481 0.960 . S
C495 H482 0.961 1_565 S
C495 H483 0.959 . S
C495 C493 1.561 . S
C496 C493 1.526 1_545 S
C496 C497 1.396 . S
C496 C501 1.390 . S
C497 C491 1.465 1_545 S
C497 C496 1.396 . S
C497 C498 1.399 . S
C498 H484 0.929 . S
C498 C497 1.399 . S
C498 C499 1.385 . S
C499 H485 0.931 . S
C499 C498 1.385 . S
C499 C500 1.389 . S
C500 C499 1.389 . S
C500 C501 1.387 . S
C501 H486 0.930 . S
C501 C496 1.390 . S
C501 C500 1.387 . S
H502 C514 0.930 . S
H503 C516 0.930 . S
H504 C517 0.930 . S
H505 C521 0.959 . S
H506 C521 0.959 . S
H507 C521 0.961 . S
H508 C522 0.960 . S
H509 C522 0.961 . S
H510 C522 0.959 . S
H511 C525 0.929 . S
H512 C526 0.931 . S
H513 C528 0.930 . S
C514 H502 0.930 . S
C514 C515 1.399 . S
C514 C519 1.399 . S
C515 C514 1.399 . S
C515 C516 1.376 . S
C516 H503 0.930 . S
C516 C515 1.376 . S
C516 C517 1.388 . S
C517 H504 0.930 . S
C517 C516 1.388 . S
C517 C518 1.390 . S
C518 C517 1.390 . S
C518 C519 1.394 . S
C518 C524 1.465 . S
C519 C514 1.399 . S
C519 C518 1.394 . S
C519 C520 1.516 . S
C520 C519 1.516 . S
C520 C521 1.502 . S
C520 C522 1.561 . S
C520 C523 1.526 . S
C521 H505 0.959 . S
C521 H506 0.959 . S
C521 H507 0.961 . S
C521 C520 1.502 . S
C522 H508 0.960 . S
C522 H509 0.961 . S
C522 H510 0.959 . S
C522 C520 1.561 . S
C523 C520 1.526 . S
C523 C524 1.396 . S
C523 C528 1.390 . S
C524 C518 1.465 . S
C524 C523 1.396 . S
C524 C525 1.399 . S
C525 H511 0.929 . S
C525 C524 1.399 . S
C525 C526 1.385 . S
C526 H512 0.931 . S
C526 C525 1.385 . S
C526 C527 1.389 . S
C527 C526 1.389 . S
C527 C528 1.387 . S
C528 H513 0.930 . S
C528 C523 1.390 . S
C528 C527 1.387 . S
H529 C541 0.930 . S
H530 C543 0.930 . S
H531 C544 0.930 . S
H532 C548 0.959 1_565 S
H533 C548 0.959 1_565 S
H534 C548 0.961 . S
H535 C549 0.960 . S
H536 C549 0.961 1_565 S
H537 C549 0.959 . S
H538 C552 0.929 . S
H539 C553 0.931 . S
H540 C555 0.930 . S
C541 H529 0.930 . S
C541 C542 1.399 . S
C541 C546 1.399 . S
C542 C541 1.399 . S
C542 C543 1.376 . S
C543 H530 0.930 . S
C543 C542 1.376 . S
C543 C544 1.388 . S
C544 H531 0.930 . S
C544 C543 1.388 . S
C544 C545 1.390 . S
C545 C544 1.390 . S
C545 C546 1.394 . S
C545 C551 1.465 1_545 S
C546 C541 1.399 . S
C546 C545 1.394 . S
C546 C547 1.516 . S
C547 C546 1.516 . S
C547 C548 1.502 . S
C547 C549 1.561 . S
C547 C550 1.526 1_545 S
C548 H532 0.959 1_545 S
C548 H533 0.959 1_545 S
C548 H534 0.961 . S
C548 C547 1.502 . S
C549 H535 0.960 . S
C549 H536 0.961 1_545 S
C549 H537 0.959 . S
C549 C547 1.561 . S
C550 C547 1.526 1_565 S
C550 C551 1.396 . S
C550 C555 1.390 . S
C551 C545 1.465 1_565 S
C551 C550 1.396 . S
C551 C552 1.399 . S
C552 H538 0.929 . S
C552 C551 1.399 . S
C552 C553 1.385 . S
C553 H539 0.931 . S
C553 C552 1.385 . S
C553 C554 1.389 . S
C554 C553 1.389 . S
C554 C555 1.387 . S
C555 H540 0.930 . S
C555 C550 1.390 . S
C555 C554 1.387 . S
H556 C568 0.930 . S
H557 C570 0.930 . S
H558 C571 0.930 . S
H559 C575 0.959 . S
H560 C575 0.959 . S
H561 C575 0.961 . S
H562 C576 0.960 . S
H563 C576 0.961 . S
H564 C576 0.959 . S
H565 C579 0.929 . S
H566 C580 0.931 . S
H567 C582 0.931 . S
C568 H556 0.930 . S
C568 C569 1.399 . S
C568 C573 1.399 . S
C569 C568 1.399 . S
C569 C570 1.376 1_554 S
C570 H557 0.930 . S
C570 C569 1.376 1_556 S
C570 C571 1.388 . S
C571 H558 0.930 . S
C571 C570 1.388 . S
C571 C572 1.390 . S
C572 C571 1.390 . S
C572 C573 1.394 1_556 S
C572 C578 1.465 . S
C573 C568 1.399 . S
C573 C572 1.394 1_554 S
C573 C574 1.516 . S
C574 C573 1.516 . S
C574 C575 1.502 . S
C574 C576 1.561 1_554 S
C574 C577 1.526 1_554 S
C575 H559 0.959 . S
C575 H560 0.959 . S
C575 H561 0.961 . S
C575 C574 1.502 . S
C576 H562 0.960 . S
C576 H563 0.961 . S
C576 H564 0.959 . S
C576 C574 1.561 1_556 S
C577 C574 1.526 1_556 S
C577 C578 1.396 . S
C577 C582 1.390 . S
C578 C572 1.465 . S
C578 C577 1.396 . S
C578 C579 1.399 . S
C579 H565 0.929 . S
C579 C578 1.399 . S
C579 C580 1.385 . S
C580 H566 0.931 . S
C580 C579 1.385 . S
C580 C581 1.389 . S
C581 C580 1.389 . S
C581 C582 1.387 . S
C582 H567 0.931 . S
C582 C577 1.390 . S
C582 C581 1.387 . S
H583 C595 0.930 . S
H584 C597 0.930 . S
H585 C598 0.930 . S
H586 C602 0.959 . S
H587 C602 0.959 1_545 S
H588 C602 0.961 . S
H589 C603 0.960 . S
H590 C603 0.961 1_545 S
H591 C603 0.959 . S
H592 C606 0.929 . S
H593 C607 0.931 . S
H594 C609 0.930 . S
C595 H583 0.930 . S
C595 C596 1.399 . S
C595 C600 1.399 . S
C596 C595 1.399 . S
C596 C597 1.376 . S
C597 H584 0.930 . S
C597 C596 1.376 . S
C597 C598 1.388 . S
C598 H585 0.930 . S
C598 C597 1.388 . S
C598 C599 1.390 . S
C599 C598 1.390 . S
C599 C600 1.394 . S
C599 C605 1.465 1_565 S
C600 C595 1.399 . S
C600 C599 1.394 . S
C600 C601 1.516 . S
C601 C600 1.516 . S
C601 C602 1.502 . S
C601 C603 1.561 . S
C601 C604 1.526 1_565 S
C602 H586 0.959 . S
C602 H587 0.959 1_565 S
C602 H588 0.961 . S
C602 C601 1.502 . S
C603 H589 0.960 . S
C603 H590 0.961 1_565 S
C603 H591 0.959 . S
C603 C601 1.561 . S
C604 C601 1.526 1_545 S
C604 C605 1.396 . S
C604 C609 1.390 . S
C605 C599 1.465 1_545 S
C605 C604 1.396 . S
C605 C606 1.399 . S
C606 H592 0.929 . S
C606 C605 1.399 . S
C606 C607 1.385 . S
C607 H593 0.931 . S
C607 C606 1.385 . S
C607 C608 1.389 . S
C608 C607 1.389 . S
C608 C609 1.387 . S
C609 H594 0.930 . S
C609 C604 1.390 . S
C609 C608 1.387 . S
H610 C622 0.930 . S
H611 C624 0.930 . S
H612 C625 0.930 . S
H613 C629 0.959 . S
H614 C629 0.959 . S
H615 C629 0.961 . S
H616 C630 0.960 . S
H617 C630 0.961 . S
H618 C630 0.959 . S
H619 C633 0.929 . S
H620 C634 0.931 . S
H621 C636 0.930 . S
C622 H610 0.930 . S
C622 C623 1.399 . S
C622 C627 1.399 . S
C623 C622 1.399 . S
C623 C624 1.376 . S
C624 H611 0.930 . S
C624 C623 1.376 . S
C624 C625 1.388 . S
C625 H612 0.930 . S
C625 C624 1.388 . S
C625 C626 1.390 . S
C626 C625 1.390 . S
C626 C627 1.394 . S
C626 C632 1.465 . S
C627 C622 1.399 . S
C627 C626 1.394 . S
C627 C628 1.516 . S
C628 C627 1.516 . S
C628 C629 1.502 . S
C628 C630 1.561 . S
C628 C631 1.526 . S
C629 H613 0.959 . S
C629 H614 0.959 . S
C629 H615 0.961 . S
C629 C628 1.502 . S
C630 H616 0.960 . S
C630 H617 0.961 . S
C630 H618 0.959 . S
C630 C628 1.561 . S
C631 C628 1.526 . S
C631 C632 1.396 . S
C631 C636 1.390 . S
C632 C626 1.465 . S
C632 C631 1.396 . S
C632 C633 1.399 . S
C633 H619 0.929 . S
C633 C632 1.399 . S
C633 C634 1.385 . S
C634 H620 0.931 . S
C634 C633 1.385 . S
C634 C635 1.389 . S
C635 C634 1.389 . S
C635 C636 1.387 . S
C636 H621 0.930 . S
C636 C631 1.390 . S
C636 C635 1.387 . S
H637 C649 0.930 . S
H638 C651 0.930 . S
H639 C652 0.930 . S
H640 C656 0.959 . S
H641 C656 0.959 1_545 S
H642 C656 0.961 . S
H643 C657 0.960 . S
H644 C657 0.961 1_545 S
H645 C657 0.959 . S
H646 C660 0.929 . S
H647 C661 0.931 . S
H648 C663 0.930 . S
C649 H637 0.930 . S
C649 C650 1.399 . S
C649 C654 1.399 . S
C650 C649 1.399 . S
C650 C651 1.376 . S
C651 H638 0.930 . S
C651 C650 1.376 . S
C651 C652 1.388 . S
C652 H639 0.930 . S
C652 C651 1.388 . S
C652 C653 1.390 . S
C653 C652 1.390 . S
C653 C654 1.394 . S
C653 C659 1.465 1_565 S
C654 C649 1.399 . S
C654 C653 1.394 . S
C654 C655 1.516 . S
C655 C654 1.516 . S
C655 C656 1.502 . S
C655 C657 1.561 . S
C655 C658 1.526 1_565 S
C656 H640 0.959 . S
C656 H641 0.959 1_565 S
C656 H642 0.961 . S
C656 C655 1.502 . S
C657 H643 0.960 . S
C657 H644 0.961 1_565 S
C657 H645 0.959 . S
C657 C655 1.561 . S
C658 C655 1.526 1_545 S
C658 C659 1.396 . S
C658 C663 1.390 . S
C659 C653 1.465 1_545 S
C659 C658 1.396 . S
C659 C660 1.399 . S
C660 H646 0.929 . S
C660 C659 1.399 . S
C660 C661 1.385 . S
C661 H647 0.931 . S
C661 C660 1.385 . S
C661 C662 1.389 . S
C662 C661 1.389 . S
C662 C663 1.387 . S
C663 H648 0.930 . S
C663 C658 1.390 . S
C663 C662 1.387 . S
H664 C676 0.930 . S
H665 C678 0.930 . S
H666 C679 0.930 . S
H667 C683 0.959 . S
H668 C683 0.959 . S
H669 C683 0.961 . S
H670 C684 0.960 . S
H671 C684 0.961 . S
H672 C684 0.959 . S
H673 C687 0.929 . S
H674 C688 0.931 . S
H675 C690 0.930 . S
C676 H664 0.930 . S
C676 C677 1.399 . S
C676 C681 1.399 . S
C677 C676 1.399 . S
C677 C678 1.376 . S
C678 H665 0.930 . S
C678 C677 1.376 . S
C678 C679 1.388 . S
C679 H666 0.930 . S
C679 C678 1.388 . S
C679 C680 1.390 . S
C680 C679 1.390 . S
C680 C681 1.394 . S
C680 C686 1.465 . S
C681 C676 1.399 . S
C681 C680 1.394 . S
C681 C682 1.516 . S
C682 C681 1.516 . S
C682 C683 1.502 . S
C682 C684 1.561 . S
C682 C685 1.526 . S
C683 H667 0.959 . S
C683 H668 0.959 . S
C683 H669 0.961 . S
C683 C682 1.502 . S
C684 H670 0.960 . S
C684 H671 0.961 . S
C684 H672 0.959 . S
C684 C682 1.561 . S
C685 C682 1.526 . S
C685 C686 1.396 . S
C685 C690 1.390 . S
C686 C680 1.465 . S
C686 C685 1.396 . S
C686 C687 1.399 . S
C687 H673 0.929 . S
C687 C686 1.399 . S
C687 C688 1.385 . S
C688 H674 0.931 . S
C688 C687 1.385 . S
C688 C689 1.389 . S
C689 C688 1.389 . S
C689 C690 1.387 . S
C690 H675 0.930 . S
C690 C685 1.390 . S
C690 C689 1.387 . S
H691 C703 0.930 . S
H692 C705 0.930 . S
H693 C706 0.930 . S
H694 C710 0.959 . S
H695 C710 0.959 . S
H696 C710 0.961 . S
H697 C711 0.960 . S
H698 C711 0.961 . S
H699 C711 0.959 . S
H700 C714 0.929 . S
H701 C715 0.931 . S
H702 C717 0.930 . S
C703 H691 0.930 . S
C703 C704 1.399 . S
C703 C708 1.399 . S
C704 C703 1.399 . S
C704 C705 1.376 . S
C705 H692 0.930 . S
C705 C704 1.376 . S
C705 C706 1.388 . S
C706 H693 0.930 . S
C706 C705 1.388 . S
C706 C707 1.390 . S
C707 C706 1.390 . S
C707 C708 1.394 . S
C707 C713 1.465 . S
C708 C703 1.399 . S
C708 C707 1.394 . S
C708 C709 1.516 . S
C709 C708 1.516 . S
C709 C710 1.502 . S
C709 C711 1.561 . S
C709 C712 1.526 . S
C710 H694 0.959 . S
C710 H695 0.959 . S
C710 H696 0.961 . S
C710 C709 1.502 . S
C711 H697 0.960 . S
C711 H698 0.961 . S
C711 H699 0.959 . S
C711 C709 1.561 . S
C712 C709 1.526 . S
C712 C713 1.396 . S
C712 C717 1.390 . S
C713 C707 1.465 . S
C713 C712 1.396 . S
C713 C714 1.399 . S
C714 H700 0.929 . S
C714 C713 1.399 . S
C714 C715 1.385 . S
C715 H701 0.931 . S
C715 C714 1.385 . S
C715 C716 1.389 . S
C716 C715 1.389 . S
C716 C717 1.387 . S
C717 H702 0.930 . S
C717 C712 1.390 . S
C717 C716 1.387 . S
H718 C730 0.930 . S
H719 C732 0.930 . S
H720 C733 0.928 1_554 S
H721 C737 0.959 . S
H722 C737 0.959 . S
H723 C737 0.961 . S
H724 C738 0.960 . S
H725 C738 0.961 . S
H726 C738 0.959 . S
H727 C741 0.929 . S
H728 C742 0.931 . S
H729 C744 0.930 . S
C730 H718 0.930 . S
C730 C731 1.399 . S
C730 C735 1.399 . S
C731 C730 1.399 . S
C731 C732 1.376 . S
C732 H719 0.930 . S
C732 C731 1.376 . S
C732 C733 1.388 . S
C733 H720 0.928 1_556 S
C733 C732 1.388 . S
C733 C734 1.390 . S
C734 C733 1.390 . S
C734 C735 1.394 . S
C734 C740 1.465 1_556 S
C735 C730 1.399 . S
C735 C734 1.394 . S
C735 C736 1.516 . S
C736 C735 1.516 . S
C736 C737 1.502 1_556 S
C736 C738 1.561 . S
C736 C739 1.528 . S
C737 H721 0.959 . S
C737 H722 0.959 . S
C737 H723 0.961 . S
C737 C736 1.502 1_554 S
C738 H724 0.960 . S
C738 H725 0.961 . S
C738 H726 0.959 . S
C738 C736 1.561 . S
C739 C736 1.528 . S
C739 C740 1.395 1_556 S
C739 C744 1.388 1_556 S
C740 C734 1.465 1_554 S
C740 C739 1.395 1_554 S
C740 C741 1.399 . S
C741 H727 0.929 . S
C741 C740 1.399 . S
C741 C742 1.385 . S
C742 H728 0.931 . S
C742 C741 1.385 . S
C742 C743 1.389 . S
C743 C742 1.389 . S
C743 C744 1.387 . S
C744 H729 0.930 . S
C744 C739 1.388 1_554 S
C744 C743 1.387 . S
H745 C757 0.930 . S
H746 C759 0.930 . S
H747 C760 0.930 . S
H748 C764 0.959 . S
H749 C764 0.959 . S
H750 C764 0.961 . S
H751 C765 0.960 . S
H752 C765 0.961 . S
H753 C765 0.959 . S
H754 C768 0.929 . S
H755 C769 0.931 . S
H756 C771 0.930 . S
C757 H745 0.930 . S
C757 C758 1.399 . S
C757 C762 1.399 . S
C758 C757 1.399 . S
C758 C759 1.376 . S
C759 H746 0.930 . S
C759 C758 1.376 . S
C759 C760 1.388 . S
C760 H747 0.930 . S
C760 C759 1.388 . S
C760 C761 1.390 . S
C761 C760 1.390 . S
C761 C762 1.394 . S
C761 C767 1.465 . S
C762 C757 1.399 . S
C762 C761 1.394 . S
C762 C763 1.516 . S
C763 C762 1.516 . S
C763 C764 1.502 . S
C763 C765 1.561 . S
C763 C766 1.526 . S
C764 H748 0.959 . S
C764 H749 0.959 . S
C764 H750 0.961 . S
C764 C763 1.502 . S
C765 H751 0.960 . S
C765 H752 0.961 . S
C765 H753 0.959 . S
C765 C763 1.561 . S
C766 C763 1.526 . S
C766 C767 1.396 . S
C766 C771 1.390 . S
C767 C761 1.465 . S
C767 C766 1.396 . S
C767 C768 1.399 . S
C768 H754 0.929 . S
C768 C767 1.399 . S
C768 C769 1.385 . S
C769 H755 0.931 . S
C769 C768 1.385 . S
C769 C770 1.389 . S
C770 C769 1.389 . S
C770 C771 1.387 . S
C771 H756 0.930 . S
C771 C766 1.390 . S
C771 C770 1.387 . S
H772 C784 0.930 . S
H773 C786 0.930 . S
H774 C787 0.930 . S
H775 C791 0.959 . S
H776 C791 0.959 . S
H777 C791 0.961 . S
H778 C792 0.960 . S
H779 C792 0.961 . S
H780 C792 0.959 . S
H781 C795 0.929 . S
H782 C796 0.931 . S
H783 C798 0.930 . S
C784 H772 0.930 . S
C784 C785 1.399 . S
C784 C789 1.399 . S
C785 C784 1.399 . S
C785 C786 1.376 . S
C786 H773 0.930 . S
C786 C785 1.376 . S
C786 C787 1.388 . S
C787 H774 0.930 . S
C787 C786 1.388 . S
C787 C788 1.390 . S
C788 C787 1.390 . S
C788 C789 1.394 . S
C788 C794 1.465 . S
C789 C784 1.399 . S
C789 C788 1.394 . S
C789 C790 1.516 . S
C790 C789 1.516 . S
C790 C791 1.502 . S
C790 C792 1.561 . S
C790 C793 1.526 . S
C791 H775 0.959 . S
C791 H776 0.959 . S
C791 H777 0.961 . S
C791 C790 1.502 . S
C792 H778 0.960 . S
C792 H779 0.961 . S
C792 H780 0.959 . S
C792 C790 1.561 . S
C793 C790 1.526 . S
C793 C794 1.396 . S
C793 C798 1.390 . S
C794 C788 1.465 . S
C794 C793 1.396 . S
C794 C795 1.399 . S
C795 H781 0.929 . S
C795 C794 1.399 . S
C795 C796 1.385 . S
C796 H782 0.931 . S
C796 C795 1.385 . S
C796 C797 1.389 . S
C797 C796 1.389 . S
C797 C798 1.387 . S
C798 H783 0.930 . S
C798 C793 1.390 . S
C798 C797 1.387 . S
H799 C811 0.930 . S
H800 C813 0.930 . S
H801 C814 0.930 . S
H802 C818 0.959 . S
H803 C818 0.959 . S
H804 C818 0.961 . S
H805 C819 0.960 . S
H806 C819 0.961 . S
H807 C819 0.959 . S
H808 C822 0.929 . S
H809 C823 0.931 . S
H810 C825 0.930 . S
C811 H799 0.930 . S
C811 C812 1.399 . S
C811 C816 1.399 . S
C812 C811 1.399 . S
C812 C813 1.376 . S
C813 H800 0.930 . S
C813 C812 1.376 . S
C813 C814 1.388 . S
C814 H801 0.930 . S
C814 C813 1.388 . S
C814 C815 1.390 . S
C815 C814 1.390 . S
C815 C816 1.394 . S
C815 C821 1.465 . S
C816 C811 1.399 . S
C816 C815 1.394 . S
C816 C817 1.516 . S
C817 C816 1.516 . S
C817 C818 1.502 . S
C817 C819 1.561 . S
C817 C820 1.526 . S
C818 H802 0.959 . S
C818 H803 0.959 . S
C818 H804 0.961 . S
C818 C817 1.502 . S
C819 H805 0.960 . S
C819 H806 0.961 . S
C819 H807 0.959 . S
C819 C817 1.561 . S
C820 C817 1.526 . S
C820 C821 1.396 . S
C820 C825 1.390 . S
C821 C815 1.465 . S
C821 C820 1.396 . S
C821 C822 1.399 . S
C822 H808 0.929 . S
C822 C821 1.399 . S
C822 C823 1.385 . S
C823 H809 0.931 . S
C823 C822 1.385 . S
C823 C824 1.389 . S
C824 C823 1.389 . S
C824 C825 1.387 . S
C825 H810 0.930 . S
C825 C820 1.390 . S
C825 C824 1.387 . S
H826 C838 0.930 . S
H827 C840 0.930 1_556 S
H828 C841 0.930 . S
H829 C845 0.959 . S
H830 C845 0.959 . S
H831 C845 0.961 . S
H832 C846 0.960 . S
H833 C846 0.961 . S
H834 C846 0.959 . S
H835 C849 0.929 . S
H836 C850 0.931 . S
H837 C852 0.930 . S
C838 H826 0.930 . S
C838 C839 1.399 . S
C838 C843 1.399 . S
C839 C838 1.399 . S
C839 C840 1.376 . S
C840 H827 0.930 1_554 S
C840 C839 1.376 . S
C840 C841 1.388 1_554 S
C841 H828 0.930 . S
C841 C840 1.388 1_556 S
C841 C842 1.390 . S
C842 C841 1.390 . S
C842 C843 1.394 1_556 S
C842 C848 1.465 . S
C843 C838 1.399 . S
C843 C842 1.394 1_554 S
C843 C844 1.516 . S
C844 C843 1.516 . S
C844 C845 1.502 . S
C844 C846 1.561 1_554 S
C844 C847 1.526 1_554 S
C845 H829 0.959 . S
C845 H830 0.959 . S
C845 H831 0.961 . S
C845 C844 1.502 . S
C846 H832 0.960 . S
C846 H833 0.961 . S
C846 H834 0.959 . S
C846 C844 1.561 1_556 S
C847 C844 1.526 1_556 S
C847 C848 1.396 . S
C847 C852 1.390 . S
C848 C842 1.465 . S
C848 C847 1.396 . S
C848 C849 1.399 . S
C849 H835 0.929 . S
C849 C848 1.399 . S
C849 C850 1.385 . S
C850 H836 0.931 . S
C850 C849 1.385 . S
C850 C851 1.389 . S
C851 C850 1.389 . S
C851 C852 1.387 . S
C852 H837 0.930 . S
C852 C847 1.390 . S
C852 C851 1.387 . S
H853 C865 0.930 . S
H854 C867 0.930 . S
H855 C868 0.930 . S
H856 C872 0.959 . S
H857 C872 0.959 . S
H858 C872 0.961 . S
H859 C873 0.960 . S
H860 C873 0.961 . S
H861 C873 0.959 . S
H862 C876 0.929 . S
H863 C877 0.931 . S
H864 C879 0.930 . S
C865 H853 0.930 . S
C865 C866 1.399 . S
C865 C870 1.399 . S
C866 C865 1.399 . S
C866 C867 1.376 . S
C867 H854 0.930 . S
C867 C866 1.376 . S
C867 C868 1.388 . S
C868 H855 0.930 . S
C868 C867 1.388 . S
C868 C869 1.390 . S
C869 C868 1.390 . S
C869 C870 1.394 . S
C869 C875 1.465 . S
C870 C865 1.399 . S
C870 C869 1.394 . S
C870 C871 1.516 . S
C871 C870 1.516 . S
C871 C872 1.502 . S
C871 C873 1.561 . S
C871 C874 1.526 . S
C872 H856 0.959 . S
C872 H857 0.959 . S
C872 H858 0.961 . S
C872 C871 1.502 . S
C873 H859 0.960 . S
C873 H860 0.961 . S
C873 H861 0.959 . S
C873 C871 1.561 . S
C874 C871 1.526 . S
C874 C875 1.396 . S
C874 C879 1.390 . S
C875 C869 1.465 . S
C875 C874 1.396 . S
C875 C876 1.399 . S
C876 H862 0.929 . S
C876 C875 1.399 . S
C876 C877 1.385 . S
C877 H863 0.931 . S
C877 C876 1.385 . S
C877 C878 1.389 . S
C878 C877 1.389 . S
C878 C879 1.387 . S
C879 H864 0.930 . S
C879 C874 1.390 . S
C879 C878 1.387 . S
H880 C892 0.930 . S
H881 C894 0.930 . S
H882 C895 0.930 . S
H883 C899 0.959 . S
H884 C899 0.959 . S
H885 C899 0.961 . S
H886 C900 0.960 . S
H887 C900 0.961 . S
H888 C900 0.959 . S
H889 C903 0.929 . S
H890 C904 0.931 . S
H891 C906 0.930 . S
C892 H880 0.930 . S
C892 C893 1.399 . S
C892 C897 1.399 . S
C893 C892 1.399 . S
C893 C894 1.376 . S
C894 H881 0.930 . S
C894 C893 1.376 . S
C894 C895 1.388 . S
C895 H882 0.930 . S
C895 C894 1.388 . S
C895 C896 1.390 . S
C896 C895 1.390 . S
C896 C897 1.394 . S
C896 C902 1.465 . S
C897 C892 1.399 . S
C897 C896 1.394 . S
C897 C898 1.516 . S
C898 C897 1.516 . S
C898 C899 1.502 . S
C898 C900 1.561 . S
C898 C901 1.526 . S
C899 H883 0.959 . S
C899 H884 0.959 . S
C899 H885 0.961 . S
C899 C898 1.502 . S
C900 H886 0.960 . S
C900 H887 0.961 . S
C900 H888 0.959 . S
C900 C898 1.561 . S
C901 C898 1.526 . S
C901 C902 1.396 . S
C901 C906 1.390 . S
C902 C896 1.465 . S
C902 C901 1.396 . S
C902 C903 1.399 . S
C903 H889 0.929 . S
C903 C902 1.399 . S
C903 C904 1.385 . S
C904 H890 0.931 . S
C904 C903 1.385 . S
C904 C905 1.389 . S
C905 C904 1.389 . S
C905 C906 1.387 . S
C906 H891 0.930 . S
C906 C901 1.390 . S
C906 C905 1.387 . S
H907 C919 0.930 . S
H908 C921 0.930 . S
H909 C922 0.930 . S
H910 C926 0.959 . S
H911 C926 0.959 1_554 S
H912 C926 0.961 . S
H913 C927 0.960 1_556 S
H914 C927 0.961 . S
H915 C927 0.959 . S
H916 C930 0.929 1_455 S
H917 C931 0.931 . S
H918 C933 0.930 . S
C919 H907 0.930 . S
C919 C920 1.399 . S
C919 C924 1.399 . S
C920 C919 1.399 . S
C920 C921 1.376 . S
C921 H908 0.930 . S
C921 C920 1.376 . S
C921 C922 1.388 . S
C922 H909 0.930 . S
C922 C921 1.388 . S
C922 C923 1.390 . S
C923 C922 1.390 . S
C923 C924 1.394 . S
C923 C929 1.465 1_556 S
C924 C919 1.399 . S
C924 C923 1.394 . S
C924 C925 1.515 1_456 S
C925 C924 1.515 1_654 S
C925 C926 1.504 1_554 S
C925 C927 1.559 1_655 S
C925 C928 1.527 . S
C926 H910 0.959 . S
C926 H911 0.959 1_556 S
C926 H912 0.961 . S
C926 C925 1.504 1_556 S
C927 H913 0.960 1_554 S
C927 H914 0.961 . S
C927 H915 0.959 . S
C927 C925 1.559 1_455 S
C928 C925 1.527 . S
C928 C929 1.396 1_655 S
C928 C933 1.390 . S
C929 C923 1.465 1_554 S
C929 C928 1.396 1_455 S
C929 C930 1.399 1_455 S
C930 H916 0.929 1_655 S
C930 C929 1.399 1_655 S
C930 C931 1.385 . S
C931 H917 0.931 . S
C931 C930 1.385 . S
C931 C932 1.389 . S
C932 C931 1.389 . S
C932 C933 1.387 . S
C933 H918 0.930 . S
C933 C928 1.390 . S
C933 C932 1.387 . S
H934 C946 0.930 . S
H935 C948 0.930 . S
H936 C949 0.930 . S
H937 C953 0.959 . S
H938 C953 0.959 . S
H939 C953 0.961 . S
H940 C954 0.960 . S
H941 C954 0.961 . S
H942 C954 0.959 . S
H943 C957 0.929 . S
H944 C958 0.931 . S
H945 C960 0.930 . S
C946 H934 0.930 . S
C946 C947 1.399 . S
C946 C951 1.399 . S
C947 C946 1.399 . S
C947 C948 1.376 . S
C948 H935 0.930 . S
C948 C947 1.376 . S
C948 C949 1.388 . S
C949 H936 0.930 . S
C949 C948 1.388 . S
C949 C950 1.390 . S
C950 C949 1.390 . S
C950 C951 1.394 . S
C950 C956 1.465 . S
C951 C946 1.399 . S
C951 C950 1.394 . S
C951 C952 1.516 . S
C952 C951 1.516 . S
C952 C953 1.502 . S
C952 C954 1.561 . S
C952 C955 1.526 . S
C953 H937 0.959 . S
C953 H938 0.959 . S
C953 H939 0.961 . S
C953 C952 1.502 . S
C954 H940 0.960 . S
C954 H941 0.961 . S
C954 H942 0.959 . S
C954 C952 1.561 . S
C955 C952 1.526 . S
C955 C956 1.396 . S
C955 C960 1.390 . S
C956 C950 1.465 . S
C956 C955 1.396 . S
C956 C957 1.399 . S
C957 H943 0.929 . S
C957 C956 1.399 . S
C957 C958 1.385 . S
C958 H944 0.931 . S
C958 C957 1.385 . S
C958 C959 1.389 . S
C959 C958 1.389 . S
C959 C960 1.387 . S
C960 H945 0.930 . S
C960 C955 1.390 . S
C960 C959 1.387 . S
H961 C973 0.930 . S
H962 C975 0.930 . S
H963 C976 0.930 . S
H964 C980 0.959 . S
H965 C980 0.959 . S
H966 C980 0.961 . S
H967 C981 0.960 . S
H968 C981 0.961 . S
H969 C981 0.959 . S
H970 C984 0.929 . S
H971 C985 0.931 . S
H972 C987 0.930 . S
C973 H961 0.930 . S
C973 C974 1.399 . S
C973 C978 1.399 . S
C974 C973 1.399 . S
C974 C975 1.376 . S
C975 H962 0.930 . S
C975 C974 1.376 . S
C975 C976 1.388 . S
C976 H963 0.930 . S
C976 C975 1.388 . S
C976 C977 1.390 . S
C977 C976 1.390 . S
C977 C978 1.394 . S
C977 C983 1.465 . S
C978 C973 1.399 . S
C978 C977 1.394 . S
C978 C979 1.516 . S
C979 C978 1.516 . S
C979 C980 1.502 . S
C979 C981 1.561 . S
C979 C982 1.526 . S
C980 H964 0.959 . S
C980 H965 0.959 . S
C980 H966 0.961 . S
C980 C979 1.502 . S
C981 H967 0.960 . S
C981 H968 0.961 . S
C981 H969 0.959 . S
C981 C979 1.561 . S
C982 C979 1.526 . S
C982 C983 1.396 . S
C982 C987 1.390 . S
C983 C977 1.465 . S
C983 C982 1.396 . S
C983 C984 1.399 . S
C984 H970 0.929 . S
C984 C983 1.399 . S
C984 C985 1.385 . S
C985 H971 0.931 . S
C985 C984 1.385 . S
C985 C986 1.389 . S
C986 C985 1.389 . S
C986 C987 1.387 . S
C987 H972 0.930 . S
C987 C982 1.390 . S
C987 C986 1.387 . S
H988 C1000 0.930 . S
H989 C1002 0.930 . S
H990 C1003 0.930 . S
H991 C1007 0.959 . S
H992 C1007 0.959 . S
H993 C1007 0.961 . S
H994 C1008 0.960 . S
H995 C1008 0.961 . S
H996 C1008 0.959 . S
H997 C1011 0.929 . S
H998 C1012 0.931 . S
H999 C1014 0.930 . S
C1000 H988 0.930 . S
C1000 C1001 1.399 . S
C1000 C1005 1.399 . S
C1001 C1000 1.399 . S
C1001 C1002 1.376 . S
C1002 H989 0.930 . S
C1002 C1001 1.376 . S
C1002 C1003 1.388 . S
C1003 H990 0.930 . S
C1003 C1002 1.388 . S
C1003 C1004 1.390 . S
C1004 C1003 1.390 . S
C1004 C1005 1.394 . S
C1004 C1010 1.465 . S
C1005 C1000 1.399 . S
C1005 C1004 1.394 . S
C1005 C1006 1.516 . S
C1006 C1005 1.516 . S
C1006 C1007 1.502 . S
C1006 C1008 1.561 . S
C1006 C1009 1.526 . S
C1007 H991 0.959 . S
C1007 H992 0.959 . S
C1007 H993 0.961 . S
C1007 C1006 1.502 . S
C1008 H994 0.960 . S
C1008 H995 0.961 . S
C1008 H996 0.959 . S
C1008 C1006 1.561 . S
C1009 C1006 1.526 . S
C1009 C1010 1.396 . S
C1009 C1014 1.390 . S
C1010 C1004 1.465 . S
C1010 C1009 1.396 . S
C1010 C1011 1.399 . S
C1011 H997 0.929 . S
C1011 C1010 1.399 . S
C1011 C1012 1.385 . S
C1012 H998 0.931 . S
C1012 C1011 1.385 . S
C1012 C1013 1.389 . S
C1013 C1012 1.389 . S
C1013 C1014 1.387 . S
C1014 H999 0.930 . S
C1014 C1009 1.390 . S
C1014 C1013 1.387 . S
H1015 C1027 0.930 . S
H1016 C1029 0.930 . S
H1017 C1030 0.930 . S
H1018 C1034 0.959 . S
H1019 C1034 0.959 . S
H1020 C1034 0.961 . S
H1021 C1035 0.960 1_554 S
H1022 C1035 0.961 . S
H1023 C1035 0.959 . S
H1024 C1038 0.929 . S
H1025 C1039 0.931 . S
H1026 C1041 0.930 . S
C1027 H1015 0.930 . S
C1027 C1028 1.399 . S
C1027 C1032 1.399 . S
C1028 C1027 1.399 . S
C1028 C1029 1.376 . S
C1029 H1016 0.930 . S
C1029 C1028 1.376 . S
C1029 C1030 1.388 . S
C1030 H1017 0.930 . S
C1030 C1029 1.388 . S
C1030 C1031 1.390 . S
C1031 C1030 1.390 . S
C1031 C1032 1.394 . S
C1031 C1037 1.465 1_554 S
C1032 C1027 1.399 . S
C1032 C1031 1.394 . S
C1032 C1033 1.516 1_554 S
C1033 C1032 1.516 1_556 S
C1033 C1034 1.502 . S
C1033 C1035 1.561 . S
C1033 C1036 1.526 . S
C1034 H1018 0.959 . S
C1034 H1019 0.959 . S
C1034 H1020 0.961 . S
C1034 C1033 1.502 . S
C1035 H1021 0.960 1_556 S
C1035 H1022 0.961 . S
C1035 H1023 0.959 . S
C1035 C1033 1.561 . S
C1036 C1033 1.526 . S
C1036 C1037 1.396 . S
C1036 C1041 1.390 . S
C1037 C1031 1.465 1_556 S
C1037 C1036 1.396 . S
C1037 C1038 1.399 . S
C1038 H1024 0.929 . S
C1038 C1037 1.399 . S
C1038 C1039 1.385 . S
C1039 H1025 0.931 . S
C1039 C1038 1.385 . S
C1039 C1040 1.389 . S
C1040 C1039 1.389 . S
C1040 C1041 1.387 . S
C1041 H1026 0.930 . S
C1041 C1036 1.390 . S
C1041 C1040 1.387 . S
H1042 C1054 0.930 . S
H1043 C1056 0.930 . S
H1044 C1057 0.930 . S
H1045 C1061 0.959 . S
H1046 C1061 0.959 . S
H1047 C1061 0.961 . S
H1048 C1062 0.960 . S
H1049 C1062 0.961 . S
H1050 C1062 0.959 . S
H1051 C1065 0.929 . S
H1052 C1066 0.931 . S
H1053 C1068 0.930 . S
C1054 H1042 0.930 . S
C1054 C1055 1.399 . S
C1054 C1059 1.399 . S
C1055 C1054 1.399 . S
C1055 C1056 1.376 . S
C1056 H1043 0.930 . S
C1056 C1055 1.376 . S
C1056 C1057 1.388 . S
C1057 H1044 0.930 . S
C1057 C1056 1.388 . S
C1057 C1058 1.390 . S
C1058 C1057 1.390 . S
C1058 C1059 1.394 . S
C1058 C1064 1.465 . S
C1059 C1054 1.399 . S
C1059 C1058 1.394 . S
C1059 C1060 1.516 . S
C1060 C1059 1.516 . S
C1060 C1061 1.502 . S
C1060 C1062 1.561 . S
C1060 C1063 1.526 . S
C1061 H1045 0.959 . S
C1061 H1046 0.959 . S
C1061 H1047 0.961 . S
C1061 C1060 1.502 . S
C1062 H1048 0.960 . S
C1062 H1049 0.961 . S
C1062 H1050 0.959 . S
C1062 C1060 1.561 . S
C1063 C1060 1.526 . S
C1063 C1064 1.396 . S
C1063 C1068 1.390 . S
C1064 C1058 1.465 . S
C1064 C1063 1.396 . S
C1064 C1065 1.399 . S
C1065 H1051 0.929 . S
C1065 C1064 1.399 . S
C1065 C1066 1.385 . S
C1066 H1052 0.931 . S
C1066 C1065 1.385 . S
C1066 C1067 1.389 . S
C1067 C1066 1.389 . S
C1067 C1068 1.387 . S
C1068 H1053 0.930 . S
C1068 C1063 1.390 . S
C1068 C1067 1.387 . S
H1069 C1081 0.930 . S
H1070 C1083 0.930 . S
H1071 C1084 0.930 . S
H1072 C1088 0.959 1_455 S
H1073 C1088 0.959 . S
H1074 C1088 0.961 . S
H1075 C1089 0.960 . S
H1076 C1089 0.961 . S
H1077 C1089 0.959 . S
H1078 C1092 0.929 . S
H1079 C1093 0.931 . S
H1080 C1095 0.930 . S
C1081 H1069 0.930 . S
C1081 C1082 1.399 . S
C1081 C1086 1.399 . S
C1082 C1081 1.399 . S
C1082 C1083 1.376 . S
C1083 H1070 0.930 . S
C1083 C1082 1.376 . S
C1083 C1084 1.388 . S
C1084 H1071 0.930 . S
C1084 C1083 1.388 . S
C1084 C1085 1.390 . S
C1085 C1084 1.390 . S
C1085 C1086 1.394 . S
C1085 C1091 1.480 . S
C1086 C1081 1.399 . S
C1086 C1085 1.394 . S
C1086 C1087 1.516 1_455 S
C1087 C1086 1.516 1_655 S
C1087 C1088 1.502 . S
C1087 C1089 1.561 . S
C1087 C1090 1.526 . S
C1088 H1072 0.959 1_655 S
C1088 H1073 0.959 . S
C1088 H1074 0.961 . S
C1088 C1087 1.502 . S
C1089 H1075 0.960 . S
C1089 H1076 0.961 . S
C1089 H1077 0.959 . S
C1089 C1087 1.561 . S
C1090 C1087 1.526 . S
C1090 C1091 1.373 1_655 S
C1090 C1095 1.390 . S
C1091 C1085 1.480 . S
C1091 C1090 1.373 1_455 S
C1091 C1092 1.404 . S
C1092 H1078 0.929 . S
C1092 C1091 1.404 . S
C1092 C1093 1.385 1_455 S
C1093 H1079 0.931 . S
C1093 C1092 1.385 1_655 S
C1093 C1094 1.389 . S
C1094 C1093 1.389 . S
C1094 C1095 1.387 . S
C1095 H1080 0.930 . S
C1095 C1090 1.390 . S
C1095 C1094 1.387 . S
H1096 C1108 0.930 . S
H1097 C1110 0.930 . S
H1098 C1111 0.930 . S
H1099 C1115 0.959 . S
H1100 C1115 0.959 . S
H1101 C1115 0.961 . S
H1102 C1116 0.960 . S
H1103 C1116 0.961 . S
H1104 C1116 0.959 . S
H1105 C1119 0.929 . S
H1106 C1120 0.931 . S
H1107 C1122 0.930 . S
C1108 H1096 0.930 . S
C1108 C1109 1.399 . S
C1108 C1113 1.399 . S
C1109 C1108 1.399 . S
C1109 C1110 1.376 . S
C1110 H1097 0.930 . S
C1110 C1109 1.376 . S
C1110 C1111 1.388 . S
C1111 H1098 0.930 . S
C1111 C1110 1.388 . S
C1111 C1112 1.390 . S
C1112 C1111 1.390 . S
C1112 C1113 1.394 . S
C1112 C1118 1.465 . S
C1113 C1108 1.399 . S
C1113 C1112 1.394 . S
C1113 C1114 1.516 . S
C1114 C1113 1.516 . S
C1114 C1115 1.502 . S
C1114 C1116 1.561 . S
C1114 C1117 1.526 . S
C1115 H1099 0.959 . S
C1115 H1100 0.959 . S
C1115 H1101 0.961 . S
C1115 C1114 1.502 . S
C1116 H1102 0.960 . S
C1116 H1103 0.961 . S
C1116 H1104 0.959 . S
C1116 C1114 1.561 . S
C1117 C1114 1.526 . S
C1117 C1118 1.396 . S
C1117 C1122 1.390 . S
C1118 C1112 1.465 . S
C1118 C1117 1.396 . S
C1118 C1119 1.399 . S
C1119 H1105 0.929 . S
C1119 C1118 1.399 . S
C1119 C1120 1.385 . S
C1120 H1106 0.931 . S
C1120 C1119 1.385 . S
C1120 C1121 1.389 . S
C1121 C1120 1.389 . S
C1121 C1122 1.387 . S
C1122 H1107 0.930 . S
C1122 C1117 1.390 . S
C1122 C1121 1.387 . S
H1123 C1135 0.930 . S
H1124 C1137 0.930 . S
H1125 C1138 0.909 1_455 S
H1126 C1142 0.959 . S
H1127 C1142 0.959 . S
H1128 C1142 0.961 . S
H1129 C1143 0.960 . S
H1130 C1143 0.961 1_556 S
H1131 C1143 0.959 . S
H1132 C1146 0.929 . S
H1133 C1147 0.931 . S
H1134 C1149 0.930 . S
C1135 H1123 0.930 . S
C1135 C1136 1.399 . S
C1135 C1140 1.399 . S
C1136 C1135 1.399 . S
C1136 C1137 1.376 . S
C1137 H1124 0.930 . S
C1137 C1136 1.376 . S
C1137 C1138 1.412 . S
C1138 H1125 0.909 1_655 S
C1138 C1137 1.412 . S
C1138 C1139 1.390 . S
C1139 C1138 1.390 . S
C1139 C1140 1.402 . S
C1139 C1145 1.458 1_654 S
C1140 C1135 1.399 . S
C1140 C1139 1.402 . S
C1140 C1141 1.516 1_554 S
C1141 C1140 1.516 1_556 S
C1141 C1142 1.502 . S
C1141 C1143 1.561 1_656 S
C1141 C1144 1.526 1_655 S
C1142 H1126 0.959 . S
C1142 H1127 0.959 . S
C1142 H1128 0.961 . S
C1142 C1141 1.502 . S
C1143 H1129 0.960 . S
C1143 H1130 0.961 1_554 S
C1143 H1131 0.959 . S
C1143 C1141 1.561 1_454 S
C1144 C1141 1.526 1_455 S
C1144 C1145 1.396 . S
C1144 C1149 1.390 . S
C1145 C1139 1.458 1_456 S
C1145 C1144 1.396 . S
C1145 C1146 1.399 . S
C1146 H1132 0.929 . S
C1146 C1145 1.399 . S
C1146 C1147 1.385 . S
C1147 H1133 0.931 . S
C1147 C1146 1.385 . S
C1147 C1148 1.389 . S
C1148 C1147 1.389 . S
C1148 C1149 1.387 . S
C1149 H1134 0.930 . S
C1149 C1144 1.390 . S
C1149 C1148 1.387 . S
H1150 C1162 0.930 . S
H1151 C1164 0.930 . S
H1152 C1165 0.930 . S
H1153 C1169 0.959 . S
H1154 C1169 0.959 . S
H1155 C1169 0.961 . S
H1156 C1170 0.960 . S
H1157 C1170 0.961 . S
H1158 C1170 0.959 . S
H1159 C1173 0.929 . S
H1160 C1174 0.931 . S
H1161 C1176 0.930 . S
C1162 H1150 0.930 . S
C1162 C1163 1.399 . S
C1162 C1167 1.399 . S
C1163 C1162 1.399 . S
C1163 C1164 1.376 . S
C1164 H1151 0.930 . S
C1164 C1163 1.376 . S
C1164 C1165 1.388 . S
C1165 H1152 0.930 . S
C1165 C1164 1.388 . S
C1165 C1166 1.390 . S
C1166 C1165 1.390 . S
C1166 C1167 1.394 . S
C1166 C1172 1.465 . S
C1167 C1162 1.399 . S
C1167 C1166 1.394 . S
C1167 C1168 1.516 . S
C1168 C1167 1.516 . S
C1168 C1169 1.502 . S
C1168 C1170 1.561 . S
C1168 C1171 1.526 . S
C1169 H1153 0.959 . S
C1169 H1154 0.959 . S
C1169 H1155 0.961 . S
C1169 C1168 1.502 . S
C1170 H1156 0.960 . S
C1170 H1157 0.961 . S
C1170 H1158 0.959 . S
C1170 C1168 1.561 . S
C1171 C1168 1.526 . S
C1171 C1172 1.396 . S
C1171 C1176 1.390 . S
C1172 C1166 1.465 . S
C1172 C1171 1.396 . S
C1172 C1173 1.399 . S
C1173 H1159 0.929 . S
C1173 C1172 1.399 . S
C1173 C1174 1.385 . S
C1174 H1160 0.931 . S
C1174 C1173 1.385 . S
C1174 C1175 1.389 . S
C1175 C1174 1.389 . S
C1175 C1176 1.387 . S
C1176 H1161 0.930 . S
C1176 C1171 1.390 . S
C1176 C1175 1.387 . S
H1177 C1189 0.930 . S
H1178 C1191 0.930 . S
H1179 C1192 0.930 . S
H1180 C1196 0.959 . S
H1181 C1196 0.959 . S
H1182 C1196 0.961 . S
H1183 C1197 0.960 . S
H1184 C1197 0.961 . S
H1185 C1197 0.959 . S
H1186 C1200 0.929 . S
H1187 C1201 0.931 . S
H1188 C1203 0.930 . S
C1189 H1177 0.930 . S
C1189 C1190 1.399 . S
C1189 C1194 1.399 . S
C1190 C1189 1.399 . S
C1190 C1191 1.376 . S
C1191 H1178 0.930 . S
C1191 C1190 1.376 . S
C1191 C1192 1.388 . S
C1192 H1179 0.930 . S
C1192 C1191 1.388 . S
C1192 C1193 1.390 . S
C1193 C1192 1.390 . S
C1193 C1194 1.394 . S
C1193 C1199 1.465 . S
C1194 C1189 1.399 . S
C1194 C1193 1.394 . S
C1194 C1195 1.516 . S
C1195 C1194 1.516 . S
C1195 C1196 1.502 . S
C1195 C1197 1.561 . S
C1195 C1198 1.526 . S
C1196 H1180 0.959 . S
C1196 H1181 0.959 . S
C1196 H1182 0.961 . S
C1196 C1195 1.502 . S
C1197 H1183 0.960 . S
C1197 H1184 0.961 . S
C1197 H1185 0.959 . S
C1197 C1195 1.561 . S
C1198 C1195 1.526 . S
C1198 C1199 1.396 . S
C1198 C1203 1.390 . S
C1199 C1193 1.465 . S
C1199 C1198 1.396 . S
C1199 C1200 1.399 . S
C1200 H1186 0.929 . S
C1200 C1199 1.399 . S
C1200 C1201 1.385 . S
C1201 H1187 0.931 . S
C1201 C1200 1.385 . S
C1201 C1202 1.389 . S
C1202 C1201 1.389 . S
C1202 C1203 1.387 . S
C1203 H1188 0.930 . S
C1203 C1198 1.390 . S
C1203 C1202 1.387 . S
H1204 C1216 0.930 . S
H1205 C1218 0.930 . S
H1206 C1219 0.930 . S
H1207 C1223 0.959 . S
H1208 C1223 0.959 . S
H1209 C1223 0.961 . S
H1210 C1224 0.960 . S
H1211 C1224 0.961 . S
H1212 C1224 0.959 . S
H1213 C1227 0.929 . S
H1214 C1228 0.931 . S
H1215 C1230 0.930 . S
C1216 H1204 0.930 . S
C1216 C1217 1.399 . S
C1216 C1221 1.399 . S
C1217 C1216 1.399 . S
C1217 C1218 1.376 . S
C1218 H1205 0.930 . S
C1218 C1217 1.376 . S
C1218 C1219 1.388 . S
C1219 H1206 0.930 . S
C1219 C1218 1.388 . S
C1219 C1220 1.390 . S
C1220 C1219 1.390 . S
C1220 C1221 1.394 . S
C1220 C1226 1.465 . S
C1221 C1216 1.399 . S
C1221 C1220 1.394 . S
C1221 C1222 1.516 . S
C1222 C1221 1.516 . S
C1222 C1223 1.502 . S
C1222 C1224 1.561 . S
C1222 C1225 1.526 . S
C1223 H1207 0.959 . S
C1223 H1208 0.959 . S
C1223 H1209 0.961 . S
C1223 C1222 1.502 . S
C1224 H1210 0.960 . S
C1224 H1211 0.961 . S
C1224 H1212 0.959 . S
C1224 C1222 1.561 . S
C1225 C1222 1.526 . S
C1225 C1226 1.396 . S
C1225 C1230 1.390 . S
C1226 C1220 1.465 . S
C1226 C1225 1.396 . S
C1226 C1227 1.399 . S
C1227 H1213 0.929 . S
C1227 C1226 1.399 . S
C1227 C1228 1.385 . S
C1228 H1214 0.931 . S
C1228 C1227 1.385 . S
C1228 C1229 1.389 . S
C1229 C1228 1.389 . S
C1229 C1230 1.387 . S
C1230 H1215 0.930 . S
C1230 C1225 1.390 . S
C1230 C1229 1.387 . S
H1231 C1243 0.930 . S
H1232 C1245 0.930 . S
H1233 C1246 0.930 . S
H1234 C1250 0.959 . S
H1235 C1250 0.959 . S
H1236 C1250 0.961 1_554 S
H1237 C1251 0.960 . S
H1238 C1251 0.961 1_556 S
H1239 C1251 0.959 . S
H1240 C1254 0.929 . S
H1241 C1255 0.931 . S
H1242 C1257 0.930 . S
C1243 H1231 0.930 . S
C1243 C1244 1.399 . S
C1243 C1248 1.399 . S
C1244 C1243 1.399 . S
C1244 C1245 1.376 . S
C1245 H1232 0.930 . S
C1245 C1244 1.376 . S
C1245 C1246 1.388 . S
C1246 H1233 0.930 . S
C1246 C1245 1.388 . S
C1246 C1247 1.390 . S
C1247 C1246 1.390 . S
C1247 C1248 1.394 . S
C1247 C1253 1.465 1_554 S
C1248 C1243 1.399 . S
C1248 C1247 1.394 . S
C1248 C1249 1.530 . S
C1249 C1248 1.530 . S
C1249 C1250 1.495 1_554 S
C1249 C1251 1.565 . S
C1249 C1252 1.516 1_554 S
C1250 H1234 0.959 . S
C1250 H1235 0.959 . S
C1250 H1236 0.961 1_556 S
C1250 C1249 1.495 1_556 S
C1251 H1237 0.960 . S
C1251 H1238 0.961 1_554 S
C1251 H1239 0.959 . S
C1251 C1249 1.565 . S
C1252 C1249 1.516 1_556 S
C1252 C1253 1.396 . S
C1252 C1257 1.390 . S
C1253 C1247 1.465 1_556 S
C1253 C1252 1.396 . S
C1253 C1254 1.399 . S
C1254 H1240 0.929 . S
C1254 C1253 1.399 . S
C1254 C1255 1.385 . S
C1255 H1241 0.931 . S
C1255 C1254 1.385 . S
C1255 C1256 1.389 . S
C1256 C1255 1.389 . S
C1256 C1257 1.387 . S
C1257 H1242 0.930 . S
C1257 C1252 1.390 . S
C1257 C1256 1.387 . S
H1258 C1270 0.930 . S
H1259 C1272 0.930 . S
H1260 C1273 0.930 . S
H1261 C1277 0.959 . S
H1262 C1277 0.959 . S
H1263 C1277 0.961 . S
H1264 C1278 0.960 . S
H1265 C1278 0.961 . S
H1266 C1278 0.959 . S
H1267 C1281 0.929 . S
H1268 C1282 0.931 . S
H1269 C1284 0.930 . S
C1270 H1258 0.930 . S
C1270 C1271 1.399 . S
C1270 C1275 1.399 . S
C1271 C1270 1.399 . S
C1271 C1272 1.376 . S
C1272 H1259 0.930 . S
C1272 C1271 1.376 . S
C1272 C1273 1.388 . S
C1273 H1260 0.930 . S
C1273 C1272 1.388 . S
C1273 C1274 1.390 . S
C1274 C1273 1.390 . S
C1274 C1275 1.394 . S
C1274 C1280 1.465 . S
C1275 C1270 1.399 . S
C1275 C1274 1.394 . S
C1275 C1276 1.516 . S
C1276 C1275 1.516 . S
C1276 C1277 1.502 . S
C1276 C1278 1.561 . S
C1276 C1279 1.526 . S
C1277 H1261 0.959 . S
C1277 H1262 0.959 . S
C1277 H1263 0.961 . S
C1277 C1276 1.502 . S
C1278 H1264 0.960 . S
C1278 H1265 0.961 . S
C1278 H1266 0.959 . S
C1278 C1276 1.561 . S
C1279 C1276 1.526 . S
C1279 C1280 1.396 . S
C1279 C1284 1.390 . S
C1280 C1274 1.465 . S
C1280 C1279 1.396 . S
C1280 C1281 1.399 . S
C1281 H1267 0.929 . S
C1281 C1280 1.399 . S
C1281 C1282 1.385 . S
C1282 H1268 0.931 . S
C1282 C1281 1.385 . S
C1282 C1283 1.389 . S
C1283 C1282 1.389 . S
C1283 C1284 1.387 . S
C1284 H1269 0.930 . S
C1284 C1279 1.390 . S
C1284 C1283 1.387 . S
H1285 C1297 0.930 . S
H1286 C1299 0.930 . S
H1287 C1300 0.930 . S
H1288 C1304 0.959 . S
H1289 C1304 0.959 . S
H1290 C1304 0.961 . S
H1291 C1305 0.960 . S
H1292 C1305 0.961 1_455 S
H1293 C1305 0.959 . S
H1294 C1308 0.929 . S
H1295 C1309 0.931 . S
H1296 C1311 0.930 . S
C1297 H1285 0.930 . S
C1297 C1298 1.399 . S
C1297 C1302 1.399 . S
C1298 C1297 1.399 . S
C1298 C1299 1.376 . S
C1299 H1286 0.930 . S
C1299 C1298 1.376 . S
C1299 C1300 1.388 . S
C1300 H1287 0.930 . S
C1300 C1299 1.388 . S
C1300 C1301 1.390 . S
C1301 C1300 1.390 . S
C1301 C1302 1.394 . S
C1301 C1307 1.465 . S
C1302 C1297 1.399 . S
C1302 C1301 1.394 . S
C1302 C1303 1.516 1_655 S
C1303 C1302 1.516 1_455 S
C1303 C1304 1.502 . S
C1303 C1305 1.561 1_455 S
C1303 C1306 1.526 . S
C1304 H1288 0.959 . S
C1304 H1289 0.959 . S
C1304 H1290 0.961 . S
C1304 C1303 1.502 . S
C1305 H1291 0.960 . S
C1305 H1292 0.961 1_655 S
C1305 H1293 0.959 . S
C1305 C1303 1.561 1_655 S
C1306 C1303 1.526 . S
C1306 C1307 1.396 1_455 S
C1306 C1311 1.390 . S
C1307 C1301 1.465 . S
C1307 C1306 1.396 1_655 S
C1307 C1308 1.399 . S
C1308 H1294 0.929 . S
C1308 C1307 1.399 . S
C1308 C1309 1.385 1_655 S
C1309 H1295 0.931 . S
C1309 C1308 1.385 1_455 S
C1309 C1310 1.389 . S
C1310 C1309 1.389 . S
C1310 C1311 1.387 . S
C1311 H1296 0.930 . S
C1311 C1306 1.390 . S
C1311 C1310 1.387 . S
H1312 C1324 0.930 . S
H1313 C1326 0.930 . S
H1314 C1327 0.930 . S
H1315 C1331 0.959 . S
H1316 C1331 0.959 . S
H1317 C1331 0.961 . S
H1318 C1332 0.960 . S
H1319 C1332 0.961 . S
H1320 C1332 0.959 . S
H1321 C1335 0.929 . S
H1322 C1336 0.931 . S
H1323 C1338 0.930 . S
C1324 H1312 0.930 . S
C1324 C1325 1.399 . S
C1324 C1329 1.399 . S
C1325 C1324 1.399 . S
C1325 C1326 1.376 . S
C1326 H1313 0.930 . S
C1326 C1325 1.376 . S
C1326 C1327 1.388 . S
C1327 H1314 0.930 . S
C1327 C1326 1.388 . S
C1327 C1328 1.390 . S
C1328 C1327 1.390 . S
C1328 C1329 1.394 . S
C1328 C1334 1.465 . S
C1329 C1324 1.399 . S
C1329 C1328 1.394 . S
C1329 C1330 1.516 . S
C1330 C1329 1.516 . S
C1330 C1331 1.502 . S
C1330 C1332 1.561 . S
C1330 C1333 1.526 . S
C1331 H1315 0.959 . S
C1331 H1316 0.959 . S
C1331 H1317 0.961 . S
C1331 C1330 1.502 . S
C1332 H1318 0.960 . S
C1332 H1319 0.961 . S
C1332 H1320 0.959 . S
C1332 C1330 1.561 . S
C1333 C1330 1.526 . S
C1333 C1334 1.396 . S
C1333 C1338 1.390 . S
C1334 C1328 1.465 . S
C1334 C1333 1.396 . S
C1334 C1335 1.399 . S
C1335 H1321 0.929 . S
C1335 C1334 1.399 . S
C1335 C1336 1.385 . S
C1336 H1322 0.931 . S
C1336 C1335 1.385 . S
C1336 C1337 1.389 . S
C1337 C1336 1.389 . S
C1337 C1338 1.387 . S
C1338 H1323 0.930 . S
C1338 C1333 1.390 . S
C1338 C1337 1.387 . S
H1339 C1351 0.930 . S
H1340 C1353 0.930 . S
H1341 C1354 0.930 . S
H1342 C1358 0.959 . S
H1343 C1358 0.959 . S
H1344 C1358 0.961 . S
H1345 C1359 0.960 . S
H1346 C1359 0.961 . S
H1347 C1359 0.959 . S
H1348 C1362 0.929 . S
H1349 C1363 0.931 . S
H1350 C1365 0.930 . S
C1351 H1339 0.930 . S
C1351 C1352 1.399 . S
C1351 C1356 1.399 . S
C1352 C1351 1.399 . S
C1352 C1353 1.376 . S
C1353 H1340 0.930 . S
C1353 C1352 1.376 . S
C1353 C1354 1.388 . S
C1354 H1341 0.930 . S
C1354 C1353 1.388 . S
C1354 C1355 1.390 . S
C1355 C1354 1.390 . S
C1355 C1356 1.394 . S
C1355 C1361 1.465 . S
C1356 C1351 1.399 . S
C1356 C1355 1.394 . S
C1356 C1357 1.516 . S
C1357 C1356 1.516 . S
C1357 C1358 1.502 . S
C1357 C1359 1.561 . S
C1357 C1360 1.526 . S
C1358 H1342 0.959 . S
C1358 H1343 0.959 . S
C1358 H1344 0.961 . S
C1358 C1357 1.502 . S
C1359 H1345 0.960 . S
C1359 H1346 0.961 . S
C1359 H1347 0.959 . S
C1359 C1357 1.561 . S
C1360 C1357 1.526 . S
C1360 C1361 1.396 . S
C1360 C1365 1.390 . S
C1361 C1355 1.465 . S
C1361 C1360 1.396 . S
C1361 C1362 1.399 . S
C1362 H1348 0.929 . S
C1362 C1361 1.399 . S
C1362 C1363 1.385 . S
C1363 H1349 0.931 . S
C1363 C1362 1.385 . S
C1363 C1364 1.389 . S
C1364 C1363 1.389 . S
C1364 C1365 1.387 . S
C1365 H1350 0.930 . S
C1365 C1360 1.390 . S
C1365 C1364 1.387 . S
H1366 C1378 0.930 . S
H1367 C1380 0.930 . S
H1368 C1381 0.930 . S
H1369 C1385 0.959 . S
H1370 C1385 0.959 . S
H1371 C1385 0.961 . S
H1372 C1386 0.960 . S
H1373 C1386 0.961 . S
H1374 C1386 0.959 . S
H1375 C1389 0.929 . S
H1376 C1390 0.931 . S
H1377 C1392 0.930 . S
C1378 H1366 0.930 . S
C1378 C1379 1.399 . S
C1378 C1383 1.399 . S
C1379 C1378 1.399 . S
C1379 C1380 1.376 . S
C1380 H1367 0.930 . S
C1380 C1379 1.376 . S
C1380 C1381 1.388 . S
C1381 H1368 0.930 . S
C1381 C1380 1.388 . S
C1381 C1382 1.390 . S
C1382 C1381 1.390 . S
C1382 C1383 1.394 . S
C1382 C1388 1.465 . S
C1383 C1378 1.399 . S
C1383 C1382 1.394 . S
C1383 C1384 1.516 . S
C1384 C1383 1.516 . S
C1384 C1385 1.502 . S
C1384 C1386 1.561 . S
C1384 C1387 1.526 . S
C1385 H1369 0.959 . S
C1385 H1370 0.959 . S
C1385 H1371 0.961 . S
C1385 C1384 1.502 . S
C1386 H1372 0.960 . S
C1386 H1373 0.961 . S
C1386 H1374 0.959 . S
C1386 C1384 1.561 . S
C1387 C1384 1.526 . S
C1387 C1388 1.396 . S
C1387 C1392 1.390 . S
C1388 C1382 1.465 . S
C1388 C1387 1.396 . S
C1388 C1389 1.399 . S
C1389 H1375 0.929 . S
C1389 C1388 1.399 . S
C1389 C1390 1.385 . S
C1390 H1376 0.931 . S
C1390 C1389 1.385 . S
C1390 C1391 1.389 . S
C1391 C1390 1.389 . S
C1391 C1392 1.387 . S
C1392 H1377 0.930 . S
C1392 C1387 1.390 . S
C1392 C1391 1.387 . S
H1393 C1405 0.930 . S
H1394 C1407 0.930 . S
H1395 C1408 0.930 . S
H1396 C1412 0.959 . S
H1397 C1412 0.959 . S
H1398 C1412 0.961 . S
H1399 C1413 0.960 1_554 S
H1400 C1413 0.954 1_655 S
H1401 C1413 0.959 . S
H1402 C1416 0.921 1_455 S
H1403 C1417 0.931 . S
H1404 C1419 0.930 . S
C1405 H1393 0.930 . S
C1405 C1406 1.399 . S
C1405 C1410 1.399 . S
C1406 C1405 1.399 . S
C1406 C1407 1.376 . S
C1407 H1394 0.930 . S
C1407 C1406 1.376 . S
C1407 C1408 1.388 . S
C1408 H1395 0.930 . S
C1408 C1407 1.388 . S
C1408 C1409 1.390 . S
C1409 C1408 1.390 . S
C1409 C1410 1.394 . S
C1409 C1415 1.460 1_454 S
C1410 C1405 1.399 . S
C1410 C1409 1.394 . S
C1410 C1411 1.516 1_455 S
C1411 C1410 1.516 1_655 S
C1411 C1412 1.502 . S
C1411 C1413 1.561 1_654 S
C1411 C1414 1.526 1_554 S
C1412 H1396 0.959 . S
C1412 H1397 0.959 . S
C1412 H1398 0.961 . S
C1412 C1411 1.502 . S
C1413 H1399 0.960 1_556 S
C1413 H1400 0.954 1_455 S
C1413 H1401 0.959 . S
C1413 C1411 1.561 1_456 S
C1414 C1411 1.526 1_556 S
C1414 C1415 1.402 . S
C1414 C1419 1.390 . S
C1415 C1409 1.460 1_656 S
C1415 C1414 1.402 . S
C1415 C1416 1.399 . S
C1416 H1402 0.921 1_655 S
C1416 C1415 1.399 . S
C1416 C1417 1.394 . S
C1417 H1403 0.931 . S
C1417 C1416 1.394 . S
C1417 C1418 1.389 . S
C1418 C1417 1.389 . S
C1418 C1419 1.387 . S
C1419 H1404 0.930 . S
C1419 C1414 1.390 . S
C1419 C1418 1.387 . S
H1420 C1432 0.930 . S
H1421 C1434 0.930 . S
H1422 C1435 0.930 . S
H1423 C1439 0.959 . S
H1424 C1439 0.959 . S
H1425 C1439 0.961 . S
H1426 C1440 0.960 . S
H1427 C1440 0.961 . S
H1428 C1440 0.959 . S
H1429 C1443 0.929 . S
H1430 C1444 0.931 . S
H1431 C1446 0.930 . S
C1432 H1420 0.930 . S
C1432 C1433 1.399 . S
C1432 C1437 1.399 . S
C1433 C1432 1.399 . S
C1433 C1434 1.376 . S
C1434 H1421 0.930 . S
C1434 C1433 1.376 . S
C1434 C1435 1.388 . S
C1435 H1422 0.930 . S
C1435 C1434 1.388 . S
C1435 C1436 1.390 . S
C1436 C1435 1.390 . S
C1436 C1437 1.394 . S
C1436 C1442 1.465 . S
C1437 C1432 1.399 . S
C1437 C1436 1.394 . S
C1437 C1438 1.516 . S
C1438 C1437 1.516 . S
C1438 C1439 1.502 . S
C1438 C1440 1.561 . S
C1438 C1441 1.526 . S
C1439 H1423 0.959 . S
C1439 H1424 0.959 . S
C1439 H1425 0.961 . S
C1439 C1438 1.502 . S
C1440 H1426 0.960 . S
C1440 H1427 0.961 . S
C1440 H1428 0.959 . S
C1440 C1438 1.561 . S
C1441 C1438 1.526 . S
C1441 C1442 1.396 . S
C1441 C1446 1.390 . S
C1442 C1436 1.465 . S
C1442 C1441 1.396 . S
C1442 C1443 1.399 . S
C1443 H1429 0.929 . S
C1443 C1442 1.399 . S
C1443 C1444 1.385 . S
C1444 H1430 0.931 . S
C1444 C1443 1.385 . S
C1444 C1445 1.389 . S
C1445 C1444 1.389 . S
C1445 C1446 1.387 . S
C1446 H1431 0.930 . S
C1446 C1441 1.390 . S
C1446 C1445 1.387 . S
H1447 C1459 0.930 . S
H1448 C1461 0.930 . S
H1449 C1462 0.930 . S
H1450 C1466 0.959 . S
H1451 C1466 0.959 . S
H1452 C1466 0.961 . S
H1453 C1467 0.960 . S
H1454 C1467 0.961 . S
H1455 C1467 0.959 . S
H1456 C1470 0.929 . S
H1457 C1471 0.931 . S
H1458 C1473 0.930 . S
C1459 H1447 0.930 . S
C1459 C1460 1.399 . S
C1459 C1464 1.399 . S
C1460 C1459 1.399 . S
C1460 C1461 1.376 . S
C1461 H1448 0.930 . S
C1461 C1460 1.376 . S
C1461 C1462 1.388 . S
C1462 H1449 0.930 . S
C1462 C1461 1.388 . S
C1462 C1463 1.390 . S
C1463 C1462 1.390 . S
C1463 C1464 1.394 . S
C1463 C1469 1.465 1_655 S
C1464 C1459 1.399 . S
C1464 C1463 1.394 . S
C1464 C1465 1.525 . S
C1465 C1464 1.525 . S
C1465 C1466 1.523 . S
C1465 C1467 1.538 1_655 S
C1465 C1468 1.517 1_655 S
C1466 H1450 0.959 . S
C1466 H1451 0.959 . S
C1466 H1452 0.961 . S
C1466 C1465 1.523 . S
C1467 H1453 0.960 . S
C1467 H1454 0.961 . S
C1467 H1455 0.959 . S
C1467 C1465 1.538 1_455 S
C1468 C1465 1.517 1_455 S
C1468 C1469 1.396 . S
C1468 C1473 1.390 . S
C1469 C1463 1.465 1_455 S
C1469 C1468 1.396 . S
C1469 C1470 1.399 . S
C1470 H1456 0.929 . S
C1470 C1469 1.399 . S
C1470 C1471 1.385 . S
C1471 H1457 0.931 . S
C1471 C1470 1.385 . S
C1471 C1472 1.389 . S
C1472 C1471 1.389 . S
C1472 C1473 1.387 . S
C1473 H1458 0.930 . S
C1473 C1468 1.390 . S
C1473 C1472 1.387 . S
H1474 C1486 0.930 . S
H1475 C1488 0.930 . S
H1476 C1489 0.930 . S
H1477 C1493 0.959 . S
H1478 C1493 0.959 . S
H1479 C1493 0.961 . S
H1480 C1494 0.960 . S
H1481 C1494 0.961 . S
H1482 C1494 0.959 . S
H1483 C1497 0.929 . S
H1484 C1498 0.931 . S
H1485 C1500 0.930 . S
C1486 H1474 0.930 . S
C1486 C1487 1.399 . S
C1486 C1491 1.399 . S
C1487 C1486 1.399 . S
C1487 C1488 1.376 . S
C1488 H1475 0.930 . S
C1488 C1487 1.376 . S
C1488 C1489 1.388 . S
C1489 H1476 0.930 . S
C1489 C1488 1.388 . S
C1489 C1490 1.390 . S
C1490 C1489 1.390 . S
C1490 C1491 1.394 . S
C1490 C1496 1.465 . S
C1491 C1486 1.399 . S
C1491 C1490 1.394 . S
C1491 C1492 1.516 . S
C1492 C1491 1.516 . S
C1492 C1493 1.502 . S
C1492 C1494 1.561 . S
C1492 C1495 1.526 . S
C1493 H1477 0.959 . S
C1493 H1478 0.959 . S
C1493 H1479 0.961 . S
C1493 C1492 1.502 . S
C1494 H1480 0.960 . S
C1494 H1481 0.961 . S
C1494 H1482 0.959 . S
C1494 C1492 1.561 . S
C1495 C1492 1.526 . S
C1495 C1496 1.396 . S
C1495 C1500 1.390 . S
C1496 C1490 1.465 . S
C1496 C1495 1.396 . S
C1496 C1497 1.399 . S
C1497 H1483 0.929 . S
C1497 C1496 1.399 . S
C1497 C1498 1.385 . S
C1498 H1484 0.931 . S
C1498 C1497 1.385 . S
C1498 C1499 1.389 . S
C1499 C1498 1.389 . S
C1499 C1500 1.387 . S
C1500 H1485 0.930 . S
C1500 C1495 1.390 . S
C1500 C1499 1.387 . S
H1501 C1513 0.930 . S
H1502 C1515 0.930 . S
H1503 C1516 0.930 . S
H1504 C1520 0.959 . S
H1505 C1520 0.959 . S
H1506 C1520 0.961 . S
H1507 C1521 0.960 1_554 S
H1508 C1521 0.961 . S
H1509 C1521 0.964 . S
H1510 C1524 0.929 . S
H1511 C1525 0.931 . S
H1512 C1527 0.930 . S
C1513 H1501 0.930 . S
C1513 C1514 1.399 . S
C1513 C1518 1.399 . S
C1514 C1513 1.399 . S
C1514 C1515 1.376 . S
C1515 H1502 0.930 . S
C1515 C1514 1.376 . S
C1515 C1516 1.388 . S
C1516 H1503 0.930 . S
C1516 C1515 1.388 . S
C1516 C1517 1.390 . S
C1517 C1516 1.390 . S
C1517 C1518 1.394 . S
C1517 C1523 1.465 1_554 S
C1518 C1513 1.399 . S
C1518 C1517 1.394 . S
C1518 C1519 1.516 1_554 S
C1519 C1518 1.516 1_556 S
C1519 C1520 1.502 . S
C1519 C1521 1.561 . S
C1519 C1522 1.526 . S
C1520 H1504 0.959 . S
C1520 H1505 0.959 . S
C1520 H1506 0.961 . S
C1520 C1519 1.502 . S
C1521 H1507 0.960 1_556 S
C1521 H1508 0.961 . S
C1521 H1509 0.964 . S
C1521 C1519 1.561 . S
C1522 C1519 1.526 . S
C1522 C1523 1.396 . S
C1522 C1527 1.390 . S
C1523 C1517 1.465 1_556 S
C1523 C1522 1.396 . S
C1523 C1524 1.399 . S
C1524 H1510 0.929 . S
C1524 C1523 1.399 . S
C1524 C1525 1.385 . S
C1525 H1511 0.931 . S
C1525 C1524 1.385 . S
C1525 C1526 1.389 . S
C1526 C1525 1.389 . S
C1526 C1527 1.387 . S
C1527 H1512 0.930 . S
C1527 C1522 1.390 . S
C1527 C1526 1.387 . S
H1528 C1540 0.930 . S
H1529 C1542 0.930 . S
H1530 C1543 0.930 . S
H1531 C1547 0.959 . S
H1532 C1547 0.959 . S
H1533 C1547 0.961 . S
H1534 C1548 0.960 . S
H1535 C1548 0.961 . S
H1536 C1548 0.959 . S
H1537 C1551 0.929 . S
H1538 C1552 0.931 . S
H1539 C1554 0.930 . S
C1540 H1528 0.930 . S
C1540 C1541 1.399 . S
C1540 C1545 1.399 . S
C1541 C1540 1.399 . S
C1541 C1542 1.376 . S
C1542 H1529 0.930 . S
C1542 C1541 1.376 . S
C1542 C1543 1.388 . S
C1543 H1530 0.930 . S
C1543 C1542 1.388 . S
C1543 C1544 1.390 . S
C1544 C1543 1.390 . S
C1544 C1545 1.394 . S
C1544 C1550 1.465 . S
C1545 C1540 1.399 . S
C1545 C1544 1.394 . S
C1545 C1546 1.516 . S
C1546 C1545 1.516 . S
C1546 C1547 1.502 . S
C1546 C1548 1.561 . S
C1546 C1549 1.526 . S
C1547 H1531 0.959 . S
C1547 H1532 0.959 . S
C1547 H1533 0.961 . S
C1547 C1546 1.502 . S
C1548 H1534 0.960 . S
C1548 H1535 0.961 . S
C1548 H1536 0.959 . S
C1548 C1546 1.561 . S
C1549 C1546 1.526 . S
C1549 C1550 1.396 . S
C1549 C1554 1.390 . S
C1550 C1544 1.465 . S
C1550 C1549 1.396 . S
C1550 C1551 1.399 . S
C1551 H1537 0.929 . S
C1551 C1550 1.399 . S
C1551 C1552 1.385 . S
C1552 H1538 0.931 . S
C1552 C1551 1.385 . S
C1552 C1553 1.389 . S
C1553 C1552 1.389 . S
C1553 C1554 1.387 . S
C1554 H1539 0.930 . S
C1554 C1549 1.390 . S
C1554 C1553 1.387 . S
H1555 C1567 0.930 . S
H1556 C1569 0.930 . S
H1557 C1570 0.930 . S
H1558 C1574 0.959 . S
H1559 C1574 0.959 . S
H1560 C1574 0.961 . S
H1561 C1575 0.960 . S
H1562 C1575 0.961 . S
H1563 C1575 0.959 . S
H1564 C1578 0.929 . S
H1565 C1579 0.931 . S
H1566 C1581 0.930 . S
C1567 H1555 0.930 . S
C1567 C1568 1.399 . S
C1567 C1572 1.399 . S
C1568 C1567 1.399 . S
C1568 C1569 1.376 . S
C1569 H1556 0.930 . S
C1569 C1568 1.376 . S
C1569 C1570 1.388 . S
C1570 H1557 0.930 . S
C1570 C1569 1.388 . S
C1570 C1571 1.390 . S
C1571 C1570 1.390 . S
C1571 C1572 1.394 . S
C1571 C1577 1.465 . S
C1572 C1567 1.399 . S
C1572 C1571 1.394 . S
C1572 C1573 1.516 . S
C1573 C1572 1.516 . S
C1573 C1574 1.502 . S
C1573 C1575 1.561 . S
C1573 C1576 1.526 . S
C1574 H1558 0.959 . S
C1574 H1559 0.959 . S
C1574 H1560 0.961 . S
C1574 C1573 1.502 . S
C1575 H1561 0.960 . S
C1575 H1562 0.961 . S
C1575 H1563 0.959 . S
C1575 C1573 1.561 . S
C1576 C1573 1.526 . S
C1576 C1577 1.396 . S
C1576 C1581 1.390 . S
C1577 C1571 1.465 . S
C1577 C1576 1.396 . S
C1577 C1578 1.399 . S
C1578 H1564 0.929 . S
C1578 C1577 1.399 . S
C1578 C1579 1.385 . S
C1579 H1565 0.931 . S
C1579 C1578 1.385 . S
C1579 C1580 1.389 . S
C1580 C1579 1.389 . S
C1580 C1581 1.387 . S
C1581 H1566 0.930 . S
C1581 C1576 1.390 . S
C1581 C1580 1.387 . S
H1582 C1594 0.930 . S
H1583 C1596 0.930 . S
H1584 C1597 0.930 . S
H1585 C1601 0.959 . S
H1586 C1601 0.959 . S
H1587 C1601 0.961 . S
H1588 C1602 0.960 . S
H1589 C1602 0.961 . S
H1590 C1602 0.959 . S
H1591 C1605 0.929 . S
H1592 C1606 0.931 . S
H1593 C1608 0.930 . S
C1594 H1582 0.930 . S
C1594 C1595 1.399 . S
C1594 C1599 1.399 . S
C1595 C1594 1.399 . S
C1595 C1596 1.376 . S
C1596 H1583 0.930 . S
C1596 C1595 1.376 . S
C1596 C1597 1.388 . S
C1597 H1584 0.930 . S
C1597 C1596 1.388 . S
C1597 C1598 1.390 . S
C1598 C1597 1.390 . S
C1598 C1599 1.394 . S
C1598 C1604 1.465 . S
C1599 C1594 1.399 . S
C1599 C1598 1.394 . S
C1599 C1600 1.516 . S
C1600 C1599 1.516 . S
C1600 C1601 1.502 . S
C1600 C1602 1.561 . S
C1600 C1603 1.526 . S
C1601 H1585 0.959 . S
C1601 H1586 0.959 . S
C1601 H1587 0.961 . S
C1601 C1600 1.502 . S
C1602 H1588 0.960 . S
C1602 H1589 0.961 . S
C1602 H1590 0.959 . S
C1602 C1600 1.561 . S
C1603 C1600 1.526 . S
C1603 C1604 1.396 . S
C1603 C1608 1.390 . S
C1604 C1598 1.465 . S
C1604 C1603 1.396 . S
C1604 C1605 1.399 . S
C1605 H1591 0.929 . S
C1605 C1604 1.399 . S
C1605 C1606 1.385 . S
C1606 H1592 0.931 . S
C1606 C1605 1.385 . S
C1606 C1607 1.389 . S
C1607 C1606 1.389 . S
C1607 C1608 1.387 . S
C1608 H1593 0.930 . S
C1608 C1603 1.390 . S
C1608 C1607 1.387 . S
H1609 C1621 0.930 . S
H1610 C1623 0.930 . S
H1611 C1624 0.930 . S
H1612 C1628 0.959 1_455 S
H1613 C1628 0.959 1_554 S
H1614 C1628 0.961 . S
H1615 C1629 0.960 . S
H1616 C1629 0.961 . S
H1617 C1629 0.959 . S
H1618 C1632 0.929 . S
H1619 C1633 0.931 . S
H1620 C1635 0.930 . S
C1621 H1609 0.930 . S
C1621 C1622 1.399 . S
C1621 C1626 1.399 . S
C1622 C1621 1.399 . S
C1622 C1623 1.376 . S
C1623 H1610 0.930 . S
C1623 C1622 1.376 . S
C1623 C1624 1.388 1_655 S
C1624 H1611 0.930 . S
C1624 C1623 1.388 1_455 S
C1624 C1625 1.398 . S
C1625 C1624 1.398 . S
C1625 C1626 1.363 1_455 S
C1625 C1631 1.486 1_556 S
C1626 C1621 1.399 . S
C1626 C1625 1.363 1_655 S
C1626 C1627 1.516 1_556 S
C1627 C1626 1.516 1_554 S
C1627 C1628 1.502 1_554 S
C1627 C1629 1.561 . S
C1627 C1630 1.526 1_655 S
C1628 H1612 0.959 1_655 S
C1628 H1613 0.959 1_556 S
C1628 H1614 0.961 . S
C1628 C1627 1.502 1_556 S
C1629 H1615 0.960 . S
C1629 H1616 0.961 . S
C1629 H1617 0.959 . S
C1629 C1627 1.561 . S
C1630 C1627 1.526 1_455 S
C1630 C1631 1.396 . S
C1630 C1635 1.390 . S
C1631 C1625 1.486 1_554 S
C1631 C1630 1.396 . S
C1631 C1632 1.399 . S
C1632 H1618 0.929 . S
C1632 C1631 1.399 . S
C1632 C1633 1.385 . S
C1633 H1619 0.931 . S
C1633 C1632 1.385 . S
C1633 C1634 1.389 . S
C1634 C1633 1.389 . S
C1634 C1635 1.387 . S
C1635 H1620 0.930 . S
C1635 C1630 1.390 . S
C1635 C1634 1.387 . S
H1636 C1648 0.930 . S
H1637 C1650 0.930 . S
H1638 C1651 0.930 . S
H1639 C1655 0.959 . S
H1640 C1655 0.959 . S
H1641 C1655 0.961 . S
H1642 C1656 0.960 . S
H1643 C1656 0.961 . S
H1644 C1656 0.959 . S
H1645 C1659 0.929 . S
H1646 C1660 0.931 . S
H1647 C1662 0.930 . S
C1648 H1636 0.930 . S
C1648 C1649 1.399 . S
C1648 C1653 1.399 . S
C1649 C1648 1.399 . S
C1649 C1650 1.376 . S
C1650 H1637 0.930 . S
C1650 C1649 1.376 . S
C1650 C1651 1.388 . S
C1651 H1638 0.930 . S
C1651 C1650 1.388 . S
C1651 C1652 1.390 . S
C1652 C1651 1.390 . S
C1652 C1653 1.394 . S
C1652 C1658 1.465 . S
C1653 C1648 1.399 . S
C1653 C1652 1.394 . S
C1653 C1654 1.516 . S
C1654 C1653 1.516 . S
C1654 C1655 1.502 . S
C1654 C1656 1.561 . S
C1654 C1657 1.526 . S
C1655 H1639 0.959 . S
C1655 H1640 0.959 . S
C1655 H1641 0.961 . S
C1655 C1654 1.502 . S
C1656 H1642 0.960 . S
C1656 H1643 0.961 . S
C1656 H1644 0.959 . S
C1656 C1654 1.561 . S
C1657 C1654 1.526 . S
C1657 C1658 1.396 . S
C1657 C1662 1.390 . S
C1658 C1652 1.465 . S
C1658 C1657 1.396 . S
C1658 C1659 1.399 . S
C1659 H1645 0.929 . S
C1659 C1658 1.399 . S
C1659 C1660 1.385 . S
C1660 H1646 0.931 . S
C1660 C1659 1.385 . S
C1660 C1661 1.389 . S
C1661 C1660 1.389 . S
C1661 C1662 1.387 . S
C1662 H1647 0.930 . S
C1662 C1657 1.390 . S
C1662 C1661 1.387 . S
H1663 C1675 0.930 . S
H1664 C1677 0.930 . S
H1665 C1678 0.930 . S
H1666 C1682 0.959 . S
H1667 C1682 0.959 . S
H1668 C1682 0.961 . S
H1669 C1683 0.960 . S
H1670 C1683 0.961 . S
H1671 C1683 0.959 . S
H1672 C1686 0.929 . S
H1673 C1687 0.931 . S
H1674 C1689 0.930 . S
C1675 H1663 0.930 . S
C1675 C1676 1.399 . S
C1675 C1680 1.399 . S
C1676 C1675 1.399 . S
C1676 C1677 1.376 . S
C1677 H1664 0.930 . S
C1677 C1676 1.376 . S
C1677 C1678 1.388 . S
C1678 H1665 0.930 . S
C1678 C1677 1.388 . S
C1678 C1679 1.390 . S
C1679 C1678 1.390 . S
C1679 C1680 1.394 . S
C1679 C1685 1.465 1_655 S
C1680 C1675 1.399 . S
C1680 C1679 1.394 . S
C1680 C1681 1.516 . S
C1681 C1680 1.516 . S
C1681 C1682 1.502 1_655 S
C1681 C1683 1.561 . S
C1681 C1684 1.526 1_655 S
C1682 H1666 0.959 . S
C1682 H1667 0.959 . S
C1682 H1668 0.961 . S
C1682 C1681 1.502 1_455 S
C1683 H1669 0.960 . S
C1683 H1670 0.961 . S
C1683 H1671 0.959 . S
C1683 C1681 1.561 . S
C1684 C1681 1.526 1_455 S
C1684 C1685 1.396 . S
C1684 C1689 1.390 . S
C1685 C1679 1.465 1_455 S
C1685 C1684 1.396 . S
C1685 C1686 1.399 . S
C1686 H1672 0.929 . S
C1686 C1685 1.399 . S
C1686 C1687 1.385 . S
C1687 H1673 0.931 . S
C1687 C1686 1.385 . S
C1687 C1688 1.389 . S
C1688 C1687 1.389 . S
C1688 C1689 1.387 . S
C1689 H1674 0.930 . S
C1689 C1684 1.390 . S
C1689 C1688 1.387 . S
H1690 C1702 0.930 . S
H1691 C1704 0.930 . S
H1692 C1705 0.930 . S
H1693 C1709 0.959 . S
H1694 C1709 0.959 . S
H1695 C1709 0.961 . S
H1696 C1710 0.960 . S
H1697 C1710 0.961 . S
H1698 C1710 0.959 . S
H1699 C1713 0.929 . S
H1700 C1714 0.931 . S
H1701 C1716 0.930 . S
C1702 H1690 0.930 . S
C1702 C1703 1.399 . S
C1702 C1707 1.399 . S
C1703 C1702 1.399 . S
C1703 C1704 1.376 . S
C1704 H1691 0.930 . S
C1704 C1703 1.376 . S
C1704 C1705 1.388 . S
C1705 H1692 0.930 . S
C1705 C1704 1.388 . S
C1705 C1706 1.390 . S
C1706 C1705 1.390 . S
C1706 C1707 1.394 . S
C1706 C1712 1.465 . S
C1707 C1702 1.399 . S
C1707 C1706 1.394 . S
C1707 C1708 1.516 . S
C1708 C1707 1.516 . S
C1708 C1709 1.502 . S
C1708 C1710 1.561 . S
C1708 C1711 1.526 . S
C1709 H1693 0.959 . S
C1709 H1694 0.959 . S
C1709 H1695 0.961 . S
C1709 C1708 1.502 . S
C1710 H1696 0.960 . S
C1710 H1697 0.961 . S
C1710 H1698 0.959 . S
C1710 C1708 1.561 . S
C1711 C1708 1.526 . S
C1711 C1712 1.396 . S
C1711 C1716 1.390 . S
C1712 C1706 1.465 . S
C1712 C1711 1.396 . S
C1712 C1713 1.399 . S
C1713 H1699 0.929 . S
C1713 C1712 1.399 . S
C1713 C1714 1.385 . S
C1714 H1700 0.931 . S
C1714 C1713 1.385 . S
C1714 C1715 1.389 . S
C1715 C1714 1.389 . S
C1715 C1716 1.387 . S
C1716 H1701 0.930 . S
C1716 C1711 1.390 . S
C1716 C1715 1.387 . S
H1717 C1729 0.930 . S
H1718 C1731 0.930 . S
H1719 C1732 0.930 . S
H1720 C1736 0.959 . S
H1721 C1736 0.959 . S
H1722 C1736 0.961 . S
H1723 C1737 0.960 . S
H1724 C1737 0.961 1_556 S
H1725 C1737 0.959 1_556 S
H1726 C1740 0.929 . S
H1727 C1741 0.931 . S
H1728 C1743 0.930 . S
C1729 H1717 0.930 . S
C1729 C1730 1.399 . S
C1729 C1734 1.399 . S
C1730 C1729 1.399 . S
C1730 C1731 1.376 . S
C1731 H1718 0.930 . S
C1731 C1730 1.376 . S
C1731 C1732 1.388 . S
C1732 H1719 0.930 . S
C1732 C1731 1.388 . S
C1732 C1733 1.390 . S
C1733 C1732 1.390 . S
C1733 C1734 1.394 . S
C1733 C1739 1.465 1_554 S
C1734 C1729 1.399 . S
C1734 C1733 1.394 . S
C1734 C1735 1.516 . S
C1735 C1734 1.516 . S
C1735 C1736 1.502 . S
C1735 C1737 1.561 . S
C1735 C1738 1.526 1_554 S
C1736 H1720 0.959 . S
C1736 H1721 0.959 . S
C1736 H1722 0.961 . S
C1736 C1735 1.502 . S
C1737 H1723 0.960 . S
C1737 H1724 0.961 1_554 S
C1737 H1725 0.959 1_554 S
C1737 C1735 1.561 . S
C1738 C1735 1.526 1_556 S
C1738 C1739 1.396 . S
C1738 C1743 1.390 . S
C1739 C1733 1.465 1_556 S
C1739 C1738 1.396 . S
C1739 C1740 1.399 . S
C1740 H1726 0.929 . S
C1740 C1739 1.399 . S
C1740 C1741 1.385 . S
C1741 H1727 0.931 . S
C1741 C1740 1.385 . S
C1741 C1742 1.389 . S
C1742 C1741 1.389 . S
C1742 C1743 1.387 . S
C1743 H1728 0.930 . S
C1743 C1738 1.390 . S
C1743 C1742 1.387 . S
H1744 C1756 0.930 . S
H1745 C1758 0.930 . S
H1746 C1759 0.930 . S
H1747 C1763 0.959 . S
H1748 C1763 0.959 . S
H1749 C1763 0.961 . S
H1750 C1764 0.960 . S
H1751 C1764 0.961 . S
H1752 C1764 0.959 . S
H1753 C1767 0.929 . S
H1754 C1768 0.931 . S
H1755 C1770 0.930 . S
C1756 H1744 0.930 . S
C1756 C1757 1.399 . S
C1756 C1761 1.399 . S
C1757 C1756 1.399 . S
C1757 C1758 1.376 . S
C1758 H1745 0.930 . S
C1758 C1757 1.376 . S
C1758 C1759 1.388 . S
C1759 H1746 0.930 . S
C1759 C1758 1.388 . S
C1759 C1760 1.390 . S
C1760 C1759 1.390 . S
C1760 C1761 1.394 . S
C1760 C1766 1.465 . S
C1761 C1756 1.399 . S
C1761 C1760 1.394 . S
C1761 C1762 1.516 . S
C1762 C1761 1.516 . S
C1762 C1763 1.502 . S
C1762 C1764 1.561 . S
C1762 C1765 1.526 . S
C1763 H1747 0.959 . S
C1763 H1748 0.959 . S
C1763 H1749 0.961 . S
C1763 C1762 1.502 . S
C1764 H1750 0.960 . S
C1764 H1751 0.961 . S
C1764 H1752 0.959 . S
C1764 C1762 1.561 . S
C1765 C1762 1.526 . S
C1765 C1766 1.396 . S
C1765 C1770 1.390 . S
C1766 C1760 1.465 . S
C1766 C1765 1.396 . S
C1766 C1767 1.399 . S
C1767 H1753 0.929 . S
C1767 C1766 1.399 . S
C1767 C1768 1.385 . S
C1768 H1754 0.931 . S
C1768 C1767 1.385 . S
C1768 C1769 1.389 . S
C1769 C1768 1.389 . S
C1769 C1770 1.387 . S
C1770 H1755 0.930 . S
C1770 C1765 1.390 . S
C1770 C1769 1.387 . S
H1771 C1783 0.930 . S
H1772 C1785 0.930 . S
H1773 C1786 0.930 . S
H1774 C1790 0.959 . S
H1775 C1790 0.959 . S
H1776 C1790 0.961 . S
H1777 C1791 0.960 . S
H1778 C1791 0.961 . S
H1779 C1791 0.959 . S
H1780 C1794 0.929 . S
H1781 C1795 0.931 . S
H1782 C1797 0.930 . S
C1783 H1771 0.930 . S
C1783 C1784 1.399 . S
C1783 C1788 1.399 . S
C1784 C1783 1.399 . S
C1784 C1785 1.376 . S
C1785 H1772 0.930 . S
C1785 C1784 1.376 . S
C1785 C1786 1.388 . S
C1786 H1773 0.930 . S
C1786 C1785 1.388 . S
C1786 C1787 1.390 . S
C1787 C1786 1.390 . S
C1787 C1788 1.394 . S
C1787 C1793 1.465 . S
C1788 C1783 1.399 . S
C1788 C1787 1.394 . S
C1788 C1789 1.516 . S
C1789 C1788 1.516 . S
C1789 C1790 1.502 . S
C1789 C1791 1.561 . S
C1789 C1792 1.526 . S
C1790 H1774 0.959 . S
C1790 H1775 0.959 . S
C1790 H1776 0.961 . S
C1790 C1789 1.502 . S
C1791 H1777 0.960 . S
C1791 H1778 0.961 . S
C1791 H1779 0.959 . S
C1791 C1789 1.561 . S
C1792 C1789 1.526 . S
C1792 C1793 1.396 . S
C1792 C1797 1.390 . S
C1793 C1787 1.465 . S
C1793 C1792 1.396 . S
C1793 C1794 1.399 . S
C1794 H1780 0.929 . S
C1794 C1793 1.399 . S
C1794 C1795 1.385 . S
C1795 H1781 0.931 . S
C1795 C1794 1.385 . S
C1795 C1796 1.389 . S
C1796 C1795 1.389 . S
C1796 C1797 1.387 . S
C1797 H1782 0.930 . S
C1797 C1792 1.390 . S
C1797 C1796 1.387 . S
H1798 C1810 0.930 . S
H1799 C1812 0.930 . S
H1800 C1813 0.930 . S
H1801 C1817 0.959 . S
H1802 C1817 0.959 . S
H1803 C1817 0.961 . S
H1804 C1818 0.960 . S
H1805 C1818 0.961 . S
H1806 C1818 0.959 . S
H1807 C1821 0.929 . S
H1808 C1822 0.931 . S
H1809 C1824 0.930 . S
C1810 H1798 0.930 . S
C1810 C1811 1.399 . S
C1810 C1815 1.399 . S
C1811 C1810 1.399 . S
C1811 C1812 1.376 . S
C1812 H1799 0.930 . S
C1812 C1811 1.376 . S
C1812 C1813 1.388 . S
C1813 H1800 0.930 . S
C1813 C1812 1.388 . S
C1813 C1814 1.390 . S
C1814 C1813 1.390 . S
C1814 C1815 1.394 . S
C1814 C1820 1.465 . S
C1815 C1810 1.399 . S
C1815 C1814 1.394 . S
C1815 C1816 1.516 . S
C1816 C1815 1.516 . S
C1816 C1817 1.502 . S
C1816 C1818 1.561 . S
C1816 C1819 1.526 . S
C1817 H1801 0.959 . S
C1817 H1802 0.959 . S
C1817 H1803 0.961 . S
C1817 C1816 1.502 . S
C1818 H1804 0.960 . S
C1818 H1805 0.961 . S
C1818 H1806 0.959 . S
C1818 C1816 1.561 . S
C1819 C1816 1.526 . S
C1819 C1820 1.396 . S
C1819 C1824 1.390 . S
C1820 C1814 1.465 . S
C1820 C1819 1.396 . S
C1820 C1821 1.399 . S
C1821 H1807 0.929 . S
C1821 C1820 1.399 . S
C1821 C1822 1.385 . S
C1822 H1808 0.931 . S
C1822 C1821 1.385 . S
C1822 C1823 1.389 . S
C1823 C1822 1.389 . S
C1823 C1824 1.387 . S
C1824 H1809 0.930 . S
C1824 C1819 1.390 . S
C1824 C1823 1.387 . S
H1825 C1837 0.930 . S
H1826 C1839 0.930 . S
H1827 C1840 0.930 . S
H1828 C1844 0.959 . S
H1829 C1844 0.959 . S
H1830 C1844 0.961 . S
H1831 C1845 0.960 . S
H1832 C1845 0.961 . S
H1833 C1845 0.959 . S
H1834 C1848 0.929 . S
H1835 C1849 0.931 . S
H1836 C1851 0.930 . S
C1837 H1825 0.930 . S
C1837 C1838 1.399 . S
C1837 C1842 1.399 . S
C1838 C1837 1.399 . S
C1838 C1839 1.376 . S
C1839 H1826 0.930 . S
C1839 C1838 1.376 . S
C1839 C1840 1.388 . S
C1840 H1827 0.930 . S
C1840 C1839 1.388 . S
C1840 C1841 1.390 . S
C1841 C1840 1.390 . S
C1841 C1842 1.394 . S
C1841 C1847 1.465 . S
C1842 C1837 1.399 . S
C1842 C1841 1.394 . S
C1842 C1843 1.516 . S
C1843 C1842 1.516 . S
C1843 C1844 1.502 . S
C1843 C1845 1.561 . S
C1843 C1846 1.526 . S
C1844 H1828 0.959 . S
C1844 H1829 0.959 . S
C1844 H1830 0.961 . S
C1844 C1843 1.502 . S
C1845 H1831 0.960 . S
C1845 H1832 0.961 . S
C1845 H1833 0.959 . S
C1845 C1843 1.561 . S
C1846 C1843 1.526 . S
C1846 C1847 1.396 . S
C1846 C1851 1.390 . S
C1847 C1841 1.465 . S
C1847 C1846 1.396 . S
C1847 C1848 1.399 . S
C1848 H1834 0.929 . S
C1848 C1847 1.399 . S
C1848 C1849 1.385 . S
C1849 H1835 0.931 . S
C1849 C1848 1.385 . S
C1849 C1850 1.389 . S
C1850 C1849 1.389 . S
C1850 C1851 1.387 . S
C1851 H1836 0.930 . S
C1851 C1846 1.390 . S
C1851 C1850 1.387 . S
H1852 C1864 0.930 . S
H1853 C1866 0.930 . S
H1854 C1867 0.930 . S
H1855 C1871 0.959 . S
H1856 C1871 0.959 . S
H1857 C1871 0.961 . S
H1858 C1872 0.960 . S
H1859 C1872 0.961 . S
H1860 C1872 0.959 . S
H1861 C1875 0.929 . S
H1862 C1876 0.931 . S
H1863 C1878 0.930 . S
C1864 H1852 0.930 . S
C1864 C1865 1.399 . S
C1864 C1869 1.399 . S
C1865 C1864 1.399 . S
C1865 C1866 1.376 . S
C1866 H1853 0.930 . S
C1866 C1865 1.376 . S
C1866 C1867 1.388 . S
C1867 H1854 0.930 . S
C1867 C1866 1.388 . S
C1867 C1868 1.390 . S
C1868 C1867 1.390 . S
C1868 C1869 1.394 . S
C1868 C1874 1.465 . S
C1869 C1864 1.399 . S
C1869 C1868 1.394 . S
C1869 C1870 1.516 . S
C1870 C1869 1.516 . S
C1870 C1871 1.502 . S
C1870 C1872 1.561 . S
C1870 C1873 1.526 . S
C1871 H1855 0.959 . S
C1871 H1856 0.959 . S
C1871 H1857 0.961 . S
C1871 C1870 1.502 . S
C1872 H1858 0.960 . S
C1872 H1859 0.961 . S
C1872 H1860 0.959 . S
C1872 C1870 1.561 . S
C1873 C1870 1.526 . S
C1873 C1874 1.396 . S
C1873 C1878 1.390 . S
C1874 C1868 1.465 . S
C1874 C1873 1.396 . S
C1874 C1875 1.399 . S
C1875 H1861 0.929 . S
C1875 C1874 1.399 . S
C1875 C1876 1.385 . S
C1876 H1862 0.931 . S
C1876 C1875 1.385 . S
C1876 C1877 1.389 . S
C1877 C1876 1.389 . S
C1877 C1878 1.387 . S
C1878 H1863 0.930 . S
C1878 C1873 1.390 . S
C1878 C1877 1.387 . S
H1879 C1891 0.930 . S
H1880 C1893 0.930 . S
H1881 C1894 0.930 . S
H1882 C1898 0.959 . S
H1883 C1898 0.959 . S
H1884 C1898 0.961 . S
H1885 C1899 0.960 . S
H1886 C1899 0.961 . S
H1887 C1899 0.959 . S
H1888 C1902 0.929 . S
H1889 C1903 0.931 . S
H1890 C1905 0.930 . S
C1891 H1879 0.930 . S
C1891 C1892 1.399 . S
C1891 C1896 1.399 . S
C1892 C1891 1.399 . S
C1892 C1893 1.376 . S
C1893 H1880 0.930 . S
C1893 C1892 1.376 . S
C1893 C1894 1.388 . S
C1894 H1881 0.930 . S
C1894 C1893 1.388 . S
C1894 C1895 1.390 . S
C1895 C1894 1.390 . S
C1895 C1896 1.394 . S
C1895 C1901 1.465 . S
C1896 C1891 1.399 . S
C1896 C1895 1.394 . S
C1896 C1897 1.516 . S
C1897 C1896 1.516 . S
C1897 C1898 1.502 . S
C1897 C1899 1.561 . S
C1897 C1900 1.526 . S
C1898 H1882 0.959 . S
C1898 H1883 0.959 . S
C1898 H1884 0.961 . S
C1898 C1897 1.502 . S
C1899 H1885 0.960 . S
C1899 H1886 0.961 . S
C1899 H1887 0.959 . S
C1899 C1897 1.561 . S
C1900 C1897 1.526 . S
C1900 C1901 1.396 . S
C1900 C1905 1.390 . S
C1901 C1895 1.465 . S
C1901 C1900 1.396 . S
C1901 C1902 1.399 . S
C1902 H1888 0.929 . S
C1902 C1901 1.399 . S
C1902 C1903 1.385 . S
C1903 H1889 0.931 . S
C1903 C1902 1.385 . S
C1903 C1904 1.389 . S
C1904 C1903 1.389 . S
C1904 C1905 1.387 . S
C1905 H1890 0.930 . S
C1905 C1900 1.390 . S
C1905 C1904 1.387 . S
H1906 C1918 0.930 . S
H1907 C1920 0.930 . S
H1908 C1921 0.930 . S
H1909 C1925 0.959 . S
H1910 C1925 0.959 . S
H1911 C1925 0.961 . S
H1912 C1926 0.960 . S
H1913 C1926 0.961 . S
H1914 C1926 0.959 . S
H1915 C1929 0.929 . S
H1916 C1930 0.931 . S
H1917 C1932 0.930 . S
C1918 H1906 0.930 . S
C1918 C1919 1.399 . S
C1918 C1923 1.399 . S
C1919 C1918 1.399 . S
C1919 C1920 1.376 . S
C1920 H1907 0.930 . S
C1920 C1919 1.376 . S
C1920 C1921 1.388 . S
C1921 H1908 0.930 . S
C1921 C1920 1.388 . S
C1921 C1922 1.390 . S
C1922 C1921 1.390 . S
C1922 C1923 1.394 . S
C1922 C1928 1.465 . S
C1923 C1918 1.399 . S
C1923 C1922 1.394 . S
C1923 C1924 1.516 . S
C1924 C1923 1.516 . S
C1924 C1925 1.502 . S
C1924 C1926 1.561 . S
C1924 C1927 1.526 . S
C1925 H1909 0.959 . S
C1925 H1910 0.959 . S
C1925 H1911 0.961 . S
C1925 C1924 1.502 . S
C1926 H1912 0.960 . S
C1926 H1913 0.961 . S
C1926 H1914 0.959 . S
C1926 C1924 1.561 . S
C1927 C1924 1.526 . S
C1927 C1928 1.396 . S
C1927 C1932 1.390 . S
C1928 C1922 1.465 . S
C1928 C1927 1.396 . S
C1928 C1929 1.399 . S
C1929 H1915 0.929 . S
C1929 C1928 1.399 . S
C1929 C1930 1.385 . S
C1930 H1916 0.931 . S
C1930 C1929 1.385 . S
C1930 C1931 1.389 . S
C1931 C1930 1.389 . S
C1931 C1932 1.387 . S
C1932 H1917 0.930 . S
C1932 C1927 1.390 . S
C1932 C1931 1.387 . S
H1933 C1945 0.930 . S
H1934 C1947 0.930 . S
H1935 C1948 0.930 . S
H1936 C1952 0.959 . S
H1937 C1952 0.959 . S
H1938 C1952 0.961 . S
H1939 C1953 0.960 . S
H1940 C1953 0.961 . S
H1941 C1953 0.959 . S
H1942 C1956 0.929 . S
H1943 C1957 0.931 . S
H1944 C1959 0.930 . S
C1945 H1933 0.930 . S
C1945 C1946 1.399 . S
C1945 C1950 1.399 . S
C1946 C1945 1.399 . S
C1946 C1947 1.376 . S
C1947 H1934 0.930 . S
C1947 C1946 1.376 . S
C1947 C1948 1.388 . S
C1948 H1935 0.930 . S
C1948 C1947 1.388 . S
C1948 C1949 1.390 . S
C1949 C1948 1.390 . S
C1949 C1950 1.394 . S
C1949 C1955 1.465 . S
C1950 C1945 1.399 . S
C1950 C1949 1.394 . S
C1950 C1951 1.516 . S
C1951 C1950 1.516 . S
C1951 C1952 1.502 . S
C1951 C1953 1.561 . S
C1951 C1954 1.526 . S
C1952 H1936 0.959 . S
C1952 H1937 0.959 . S
C1952 H1938 0.961 . S
C1952 C1951 1.502 . S
C1953 H1939 0.960 . S
C1953 H1940 0.961 . S
C1953 H1941 0.959 . S
C1953 C1951 1.561 . S
C1954 C1951 1.526 . S
C1954 C1955 1.396 . S
C1954 C1959 1.390 . S
C1955 C1949 1.465 . S
C1955 C1954 1.396 . S
C1955 C1956 1.399 . S
C1956 H1942 0.929 . S
C1956 C1955 1.399 . S
C1956 C1957 1.385 . S
C1957 H1943 0.931 . S
C1957 C1956 1.385 . S
C1957 C1958 1.389 . S
C1958 C1957 1.389 . S
C1958 C1959 1.387 . S
C1959 H1944 0.930 . S
C1959 C1954 1.390 . S
C1959 C1958 1.387 . S
H1960 C1972 0.930 . S
H1961 C1974 0.930 . S
H1962 C1975 0.930 . S
H1963 C1979 0.959 . S
H1964 C1979 0.959 . S
H1965 C1979 0.961 . S
H1966 C1980 0.960 . S
H1967 C1980 0.961 . S
H1968 C1980 0.959 . S
H1969 C1983 0.929 . S
H1970 C1984 0.931 . S
H1971 C1986 0.930 . S
C1972 H1960 0.930 . S
C1972 C1973 1.399 . S
C1972 C1977 1.399 . S
C1973 C1972 1.399 . S
C1973 C1974 1.376 . S
C1974 H1961 0.930 . S
C1974 C1973 1.376 . S
C1974 C1975 1.388 . S
C1975 H1962 0.930 . S
C1975 C1974 1.388 . S
C1975 C1976 1.390 . S
C1976 C1975 1.390 . S
C1976 C1977 1.394 . S
C1976 C1982 1.465 . S
C1977 C1972 1.399 . S
C1977 C1976 1.394 . S
C1977 C1978 1.516 . S
C1978 C1977 1.516 . S
C1978 C1979 1.502 . S
C1978 C1980 1.561 . S
C1978 C1981 1.526 . S
C1979 H1963 0.959 . S
C1979 H1964 0.959 . S
C1979 H1965 0.961 . S
C1979 C1978 1.502 . S
C1980 H1966 0.960 . S
C1980 H1967 0.961 . S
C1980 H1968 0.959 . S
C1980 C1978 1.561 . S
C1981 C1978 1.526 . S
C1981 C1982 1.396 . S
C1981 C1986 1.390 . S
C1982 C1976 1.465 . S
C1982 C1981 1.396 . S
C1982 C1983 1.399 . S
C1983 H1969 0.929 . S
C1983 C1982 1.399 . S
C1983 C1984 1.385 . S
C1984 H1970 0.931 . S
C1984 C1983 1.385 . S
C1984 C1985 1.389 . S
C1985 C1984 1.389 . S
C1985 C1986 1.387 . S
C1986 H1971 0.930 . S
C1986 C1981 1.390 . S
C1986 C1985 1.387 . S
H1987 C1999 0.930 . S
H1988 C2001 0.930 . S
H1989 C2002 0.930 . S
H1990 C2006 0.959 . S
H1991 C2006 0.959 . S
H1992 C2006 0.961 . S
H1993 C2007 0.960 . S
H1994 C2007 0.961 . S
H1995 C2007 0.959 . S
H1996 C2010 0.929 . S
H1997 C2011 0.931 . S
H1998 C2013 0.930 . S
C1999 H1987 0.930 . S
C1999 C2000 1.399 . S
C1999 C2004 1.399 . S
C2000 C1999 1.399 . S
C2000 C2001 1.376 . S
C2001 H1988 0.930 . S
C2001 C2000 1.376 . S
C2001 C2002 1.388 . S
C2002 H1989 0.930 . S
C2002 C2001 1.388 . S
C2002 C2003 1.390 . S
C2003 C2002 1.390 . S
C2003 C2004 1.394 . S
C2003 C2009 1.465 . S
C2004 C1999 1.399 . S
C2004 C2003 1.394 . S
C2004 C2005 1.516 . S
C2005 C2004 1.516 . S
C2005 C2006 1.502 . S
C2005 C2007 1.561 . S
C2005 C2008 1.526 . S
C2006 H1990 0.959 . S
C2006 H1991 0.959 . S
C2006 H1992 0.961 . S
C2006 C2005 1.502 . S
C2007 H1993 0.960 . S
C2007 H1994 0.961 . S
C2007 H1995 0.959 . S
C2007 C2005 1.561 . S
C2008 C2005 1.526 . S
C2008 C2009 1.396 . S
C2008 C2013 1.390 . S
C2009 C2003 1.465 . S
C2009 C2008 1.396 . S
C2009 C2010 1.399 . S
C2010 H1996 0.929 . S
C2010 C2009 1.399 . S
C2010 C2011 1.385 . S
C2011 H1997 0.931 . S
C2011 C2010 1.385 . S
C2011 C2012 1.389 . S
C2012 C2011 1.389 . S
C2012 C2013 1.387 . S
C2013 H1998 0.930 . S
C2013 C2008 1.390 . S
C2013 C2012 1.387 . S
H2014 C2026 0.930 . S
H2015 C2028 0.930 . S
H2016 C2029 0.930 . S
H2017 C2033 0.959 . S
H2018 C2033 0.959 . S
H2019 C2033 0.961 . S
H2020 C2034 0.960 . S
H2021 C2034 0.961 . S
H2022 C2034 0.959 . S
H2023 C2037 0.929 . S
H2024 C2038 0.931 . S
H2025 C2040 0.930 . S
C2026 H2014 0.930 . S
C2026 C2027 1.399 . S
C2026 C2031 1.399 . S
C2027 C2026 1.399 . S
C2027 C2028 1.376 . S
C2028 H2015 0.930 . S
C2028 C2027 1.376 . S
C2028 C2029 1.388 . S
C2029 H2016 0.930 . S
C2029 C2028 1.388 . S
C2029 C2030 1.390 . S
C2030 C2029 1.390 . S
C2030 C2031 1.394 . S
C2030 C2036 1.465 . S
C2031 C2026 1.399 . S
C2031 C2030 1.394 . S
C2031 C2032 1.516 . S
C2032 C2031 1.516 . S
C2032 C2033 1.502 . S
C2032 C2034 1.561 . S
C2032 C2035 1.526 . S
C2033 H2017 0.959 . S
C2033 H2018 0.959 . S
C2033 H2019 0.961 . S
C2033 C2032 1.502 . S
C2034 H2020 0.960 . S
C2034 H2021 0.961 . S
C2034 H2022 0.959 . S
C2034 C2032 1.561 . S
C2035 C2032 1.526 . S
C2035 C2036 1.396 . S
C2035 C2040 1.390 . S
C2036 C2030 1.465 . S
C2036 C2035 1.396 . S
C2036 C2037 1.399 . S
C2037 H2023 0.929 . S
C2037 C2036 1.399 . S
C2037 C2038 1.385 . S
C2038 H2024 0.931 . S
C2038 C2037 1.385 . S
C2038 C2039 1.389 . S
C2039 C2038 1.389 . S
C2039 C2040 1.387 . S
C2040 H2025 0.930 . S
C2040 C2035 1.390 . S
C2040 C2039 1.387 . S
H2041 C2053 0.930 . S
H2042 C2055 0.930 . S
H2043 C2056 0.930 . S
H2044 C2060 0.959 . S
H2045 C2060 0.959 . S
H2046 C2060 0.961 . S
H2047 C2061 0.960 . S
H2048 C2061 0.961 . S
H2049 C2061 0.959 . S
H2050 C2064 0.929 . S
H2051 C2065 0.931 . S
H2052 C2067 0.930 . S
C2053 H2041 0.930 . S
C2053 C2054 1.399 . S
C2053 C2058 1.399 . S
C2054 C2053 1.399 . S
C2054 C2055 1.376 . S
C2055 H2042 0.930 . S
C2055 C2054 1.376 . S
C2055 C2056 1.388 . S
C2056 H2043 0.930 . S
C2056 C2055 1.388 . S
C2056 C2057 1.390 . S
C2057 C2056 1.390 . S
C2057 C2058 1.394 . S
C2057 C2063 1.465 . S
C2058 C2053 1.399 . S
C2058 C2057 1.394 . S
C2058 C2059 1.516 . S
C2059 C2058 1.516 . S
C2059 C2060 1.502 . S
C2059 C2061 1.561 . S
C2059 C2062 1.526 . S
C2060 H2044 0.959 . S
C2060 H2045 0.959 . S
C2060 H2046 0.961 . S
C2060 C2059 1.502 . S
C2061 H2047 0.960 . S
C2061 H2048 0.961 . S
C2061 H2049 0.959 . S
C2061 C2059 1.561 . S
C2062 C2059 1.526 . S
C2062 C2063 1.396 . S
C2062 C2067 1.390 . S
C2063 C2057 1.465 . S
C2063 C2062 1.396 . S
C2063 C2064 1.399 . S
C2064 H2050 0.929 . S
C2064 C2063 1.399 . S
C2064 C2065 1.385 . S
C2065 H2051 0.931 . S
C2065 C2064 1.385 . S
C2065 C2066 1.389 . S
C2066 C2065 1.389 . S
C2066 C2067 1.387 . S
C2067 H2052 0.930 . S
C2067 C2062 1.390 . S
C2067 C2066 1.387 . S
H2068 C2080 0.930 . S
H2069 C2082 0.930 . S
H2070 C2083 0.930 . S
H2071 C2087 0.959 . S
H2072 C2087 0.959 . S
H2073 C2087 0.961 . S
H2074 C2088 0.960 . S
H2075 C2088 0.961 . S
H2076 C2088 0.959 . S
H2077 C2091 0.929 . S
H2078 C2092 0.931 . S
H2079 C2094 0.930 . S
C2080 H2068 0.930 . S
C2080 C2081 1.399 . S
C2080 C2085 1.399 . S
C2081 C2080 1.399 . S
C2081 C2082 1.376 . S
C2082 H2069 0.930 . S
C2082 C2081 1.376 . S
C2082 C2083 1.388 . S
C2083 H2070 0.930 . S
C2083 C2082 1.388 . S
C2083 C2084 1.390 . S
C2084 C2083 1.390 . S
C2084 C2085 1.394 . S
C2084 C2090 1.465 . S
C2085 C2080 1.399 . S
C2085 C2084 1.394 . S
C2085 C2086 1.516 . S
C2086 C2085 1.516 . S
C2086 C2087 1.502 . S
C2086 C2088 1.561 . S
C2086 C2089 1.526 . S
C2087 H2071 0.959 . S
C2087 H2072 0.959 . S
C2087 H2073 0.961 . S
C2087 C2086 1.502 . S
C2088 H2074 0.960 . S
C2088 H2075 0.961 . S
C2088 H2076 0.959 . S
C2088 C2086 1.561 . S
C2089 C2086 1.526 . S
C2089 C2090 1.396 . S
C2089 C2094 1.390 . S
C2090 C2084 1.465 . S
C2090 C2089 1.396 . S
C2090 C2091 1.399 . S
C2091 H2077 0.929 . S
C2091 C2090 1.399 . S
C2091 C2092 1.385 . S
C2092 H2078 0.931 . S
C2092 C2091 1.385 . S
C2092 C2093 1.389 . S
C2093 C2092 1.389 . S
C2093 C2094 1.387 . S
C2094 H2079 0.930 . S
C2094 C2089 1.390 . S
C2094 C2093 1.387 . S
H2095 C2107 0.930 . S
H2096 C2109 0.930 . S
H2097 C2110 0.930 . S
H2098 C2114 0.959 . S
H2099 C2114 0.959 . S
H2100 C2114 0.961 . S
H2101 C2115 0.960 . S
H2102 C2115 0.961 . S
H2103 C2115 0.959 . S
H2104 C2118 0.929 . S
H2105 C2119 0.931 . S
H2106 C2121 0.930 . S
C2107 H2095 0.930 . S
C2107 C2108 1.399 . S
C2107 C2112 1.399 . S
C2108 C2107 1.399 . S
C2108 C2109 1.376 . S
C2109 H2096 0.930 . S
C2109 C2108 1.376 . S
C2109 C2110 1.388 . S
C2110 H2097 0.930 . S
C2110 C2109 1.388 . S
C2110 C2111 1.390 . S
C2111 C2110 1.390 . S
C2111 C2112 1.394 . S
C2111 C2117 1.465 . S
C2112 C2107 1.399 . S
C2112 C2111 1.394 . S
C2112 C2113 1.516 . S
C2113 C2112 1.516 . S
C2113 C2114 1.502 . S
C2113 C2115 1.561 . S
C2113 C2116 1.526 . S
C2114 H2098 0.959 . S
C2114 H2099 0.959 . S
C2114 H2100 0.961 . S
C2114 C2113 1.502 . S
C2115 H2101 0.960 . S
C2115 H2102 0.961 . S
C2115 H2103 0.959 . S
C2115 C2113 1.561 . S
C2116 C2113 1.526 . S
C2116 C2117 1.396 . S
C2116 C2121 1.390 . S
C2117 C2111 1.465 . S
C2117 C2116 1.396 . S
C2117 C2118 1.399 . S
C2118 H2104 0.929 . S
C2118 C2117 1.399 . S
C2118 C2119 1.385 . S
C2119 H2105 0.931 . S
C2119 C2118 1.385 . S
C2119 C2120 1.389 . S
C2120 C2119 1.389 . S
C2120 C2121 1.387 . S
C2121 H2106 0.930 . S
C2121 C2116 1.390 . S
C2121 C2120 1.387 . S
H2122 C2134 0.930 . S
H2123 C2136 0.930 . S
H2124 C2137 0.930 . S
H2125 C2141 0.959 . S
H2126 C2141 0.959 . S
H2127 C2141 0.961 . S
H2128 C2142 0.960 . S
H2129 C2142 0.961 . S
H2130 C2142 0.959 . S
H2131 C2145 0.929 . S
H2132 C2146 0.931 . S
H2133 C2148 0.930 . S
C2134 H2122 0.930 . S
C2134 C2135 1.399 . S
C2134 C2139 1.399 . S
C2135 C2134 1.399 . S
C2135 C2136 1.376 . S
C2136 H2123 0.930 . S
C2136 C2135 1.376 . S
C2136 C2137 1.388 . S
C2137 H2124 0.930 . S
C2137 C2136 1.388 . S
C2137 C2138 1.390 . S
C2138 C2137 1.390 . S
C2138 C2139 1.394 . S
C2138 C2144 1.465 . S
C2139 C2134 1.399 . S
C2139 C2138 1.394 . S
C2139 C2140 1.516 . S
C2140 C2139 1.516 . S
C2140 C2141 1.502 . S
C2140 C2142 1.561 . S
C2140 C2143 1.526 . S
C2141 H2125 0.959 . S
C2141 H2126 0.959 . S
C2141 H2127 0.961 . S
C2141 C2140 1.502 . S
C2142 H2128 0.960 . S
C2142 H2129 0.961 . S
C2142 H2130 0.959 . S
C2142 C2140 1.561 . S
C2143 C2140 1.526 . S
C2143 C2144 1.396 . S
C2143 C2148 1.390 . S
C2144 C2138 1.465 . S
C2144 C2143 1.396 . S
C2144 C2145 1.399 . S
C2145 H2131 0.929 . S
C2145 C2144 1.399 . S
C2145 C2146 1.385 . S
C2146 H2132 0.931 . S
C2146 C2145 1.385 . S
C2146 C2147 1.389 . S
C2147 C2146 1.389 . S
C2147 C2148 1.387 . S
C2148 H2133 0.930 . S
C2148 C2143 1.390 . S
C2148 C2147 1.387 . S
H2149 C2161 0.930 . S
H2150 C2163 0.930 . S
H2151 C2164 0.930 . S
H2152 C2168 0.959 . S
H2153 C2168 0.959 . S
H2154 C2168 0.961 . S
H2155 C2169 0.960 . S
H2156 C2169 0.961 . S
H2157 C2169 0.959 . S
H2158 C2172 0.929 . S
H2159 C2173 0.931 . S
H2160 C2175 0.930 . S
C2161 H2149 0.930 . S
C2161 C2162 1.399 . S
C2161 C2166 1.399 . S
C2162 C2161 1.399 . S
C2162 C2163 1.376 . S
C2163 H2150 0.930 . S
C2163 C2162 1.376 . S
C2163 C2164 1.388 . S
C2164 H2151 0.930 . S
C2164 C2163 1.388 . S
C2164 C2165 1.390 . S
C2165 C2164 1.390 . S
C2165 C2166 1.394 . S
C2165 C2171 1.465 . S
C2166 C2161 1.399 . S
C2166 C2165 1.394 . S
C2166 C2167 1.516 . S
C2167 C2166 1.516 . S
C2167 C2168 1.502 . S
C2167 C2169 1.561 . S
C2167 C2170 1.526 . S
C2168 H2152 0.959 . S
C2168 H2153 0.959 . S
C2168 H2154 0.961 . S
C2168 C2167 1.502 . S
C2169 H2155 0.960 . S
C2169 H2156 0.961 . S
C2169 H2157 0.959 . S
C2169 C2167 1.561 . S
C2170 C2167 1.526 . S
C2170 C2171 1.396 . S
C2170 C2175 1.390 . S
C2171 C2165 1.465 . S
C2171 C2170 1.396 . S
C2171 C2172 1.399 . S
C2172 H2158 0.929 . S
C2172 C2171 1.399 . S
C2172 C2173 1.385 . S
C2173 H2159 0.931 . S
C2173 C2172 1.385 . S
C2173 C2174 1.389 . S
C2174 C2173 1.389 . S
C2174 C2175 1.387 . S
C2175 H2160 0.930 . S
C2175 C2170 1.390 . S
C2175 C2174 1.387 . S
C461 C93 1.524 . S
C473 C9 1.548 . S
C488 C23 1.551 . S
C500 C107 1.516 . S
C515 C65 1.551 . S
C527 C37 1.512 . S
C542 C51 1.545 . S
C554 C79 1.531 . S
C569 C205 1.490 . S
C581 C121 1.511 . S
C596 C219 1.519 . S
C608 C135 1.492 . S
C623 C149 1.550 . S
C635 C177 1.526 . S
C650 C163 1.522 . S
C662 C191 1.493 . S
C677 C233 1.526 . S
C689 C317 1.548 . S
C704 C247 1.490 . S
C716 C331 1.526 . S
C731 C289 1.505 . S
C743 C261 1.501 . S
C758 C303 1.550 . S
C770 C275 1.508 . S
C785 C345 1.530 . S
C797 C429 1.550 . S
C812 C443 1.533 . S
C824 C359 1.550 . S
C839 C401 1.490 . S
C851 C373 1.509 . S
C866 C387 1.517 . S
C878 C415 1.492 . S
C893 C7 1.330 . S
C905 C428 1.339 . S
C920 C218 1.302 . S
C932 C21 1.256 . S
C947 C35 1.326 . S
C959 C400 1.320 . S
C974 C49 1.285 . S
C986 C190 1.287 . S
C1001 C372 1.283 . S
C1013 C63 1.278 . S
C1028 C162 1.325 . S
C1040 C77 1.328 . S
C1055 C91 1.247 . S
C1067 C344 1.290 . S
C1082 C134 1.294 . S
C1094 C105 1.297 . S
C1109 C119 1.292 . S
C1121 C316 1.280 . S
C1136 C106 1.339 . S
C1148 C133 1.283 . S
C1163 C147 1.280 . S
C1175 C288 1.278 . S
C1190 C161 1.332 . S
C1202 C78 1.317 . S
C1217 C260 1.329 . S
C1229 C175 1.328 . S
C1244 C189 1.247 . S
C1256 C50 1.306 . S
C1271 C203 1.281 . S
C1283 C232 1.278 . S
C1298 C22 1.278 . S
C1310 C217 1.291 . S
C1325 C231 1.247 . S
C1337 C204 1.284 . S
C1352 C245 1.284 . S
C1364 C442 1.287 . S
C1379 C176 1.282 . S
C1391 C259 1.275 . S
C1406 C273 1.298 . S
C1418 C414 1.334 . S
C1433 C148 1.340 . S
C1445 C287 1.312 . S
C1460 C386 1.315 . S
C1472 C301 1.321 . S
C1487 C120 1.277 . S
C1499 C315 1.254 . S
C1514 C358 1.324 . S
C1526 C329 1.328 . S
C1541 C343 1.299 . S
C1553 C92 1.282 . S
C1568 C330 1.284 . S
C1580 C357 1.307 . S
C1595 C64 1.306 . S
C1607 C371 1.248 . S
C1622 C385 1.307 . S
C1634 C302 1.285 . S
C1649 C399 1.303 . S
C1661 C36 1.341 . S
C1676 C413 1.324 . S
C1688 C274 1.299 . S
C1703 C8 1.329 . S
C1715 C427 1.329 . S
C1730 C441 1.332 . S
C1742 C246 1.315 . S
C1757 C6 1.501 . S
C1769 C300 1.520 . S
C1784 C314 1.512 . S
C1796 C20 1.515 . S
C1811 C34 1.509 . S
C1823 C328 1.517 . S
C1838 C286 1.465 . S
C1850 C48 1.450 . S
C1865 C272 1.464 . S
C1877 C62 1.506 . S
C1892 C230 1.483 . S
C1904 C76 1.451 . S
C1919 C244 1.491 . S
C1931 C90 1.454 . S
C1946 C258 1.483 . S
C1958 C104 1.517 . S
C1973 C118 1.517 . S
C1985 C412 1.463 . S
C2000 C426 1.466 . S
C2012 C132 1.519 . S
C2027 C440 1.495 . S
C2039 C146 1.514 . S
C2054 C398 1.520 . S
C2066 C160 1.472 . S
C2081 C384 1.519 . S
C2093 C174 1.483 . S
C2108 C342 1.520 . S
C2120 C188 1.475 . S
C2135 C202 1.514 . S
C2147 C356 1.458 . S
C2162 C216 1.501 . S
C2174 C370 1.511 . S
