# Generated by pormake.
# Topology utq, (3)-cn, num edge types: 1
# Building blocks:
#     Node 0, Type 0, BuildingBlock: OLANEW_clean_sbu_2, # of connection points: 3
#     Node 1, Type 0, BuildingBlock: OLANEW_clean_sbu_2, # of connection points: 3
#     Node 2, Type 0, BuildingBlock: OLANEW_clean_sbu_2, # of connection points: 3
#     Node 3, Type 0, BuildingBlock: OLANEW_clean_sbu_2, # of connection points: 3
#     Node 4, Type 0, BuildingBlock: OLANEW_clean_sbu_2, # of connection points: 3
#     Node 5, Type 0, BuildingBlock: OLANEW_clean_sbu_2, # of connection points: 3
#     Node 6, Type 0, BuildingBlock: OLANEW_clean_sbu_2, # of connection points: 3
#     Node 7, Type 0, BuildingBlock: OLANEW_clean_sbu_2, # of connection points: 3
#     Node 8, Type 0, BuildingBlock: OLANEW_clean_sbu_2, # of connection points: 3
#     Node 9, Type 0, BuildingBlock: OLANEW_clean_sbu_2, # of connection points: 3
#     Node 10, Type 0, BuildingBlock: OLANEW_clean_sbu_2, # of connection points: 3
#     Node 11, Type 0, BuildingBlock: OLANEW_clean_sbu_2, # of connection points: 3
#     Node 12, Type 0, BuildingBlock: OLANEW_clean_sbu_2, # of connection points: 3
#     Node 13, Type 0, BuildingBlock: OLANEW_clean_sbu_2, # of connection points: 3
#     Node 14, Type 0, BuildingBlock: OLANEW_clean_sbu_2, # of connection points: 3
#     Node 15, Type 0, BuildingBlock: OLANEW_clean_sbu_2, # of connection points: 3
#     Node 16, Type 0, BuildingBlock: OLANEW_clean_sbu_2, # of connection points: 3
#     Node 17, Type 0, BuildingBlock: OLANEW_clean_sbu_2, # of connection points: 3
#     Node 18, Type 0, BuildingBlock: OLANEW_clean_sbu_2, # of connection points: 3
#     Node 19, Type 0, BuildingBlock: OLANEW_clean_sbu_2, # of connection points: 3
#     Node 20, Type 0, BuildingBlock: OLANEW_clean_sbu_2, # of connection points: 3
#     Node 21, Type 0, BuildingBlock: OLANEW_clean_sbu_2, # of connection points: 3
#     Node 22, Type 0, BuildingBlock: OLANEW_clean_sbu_2, # of connection points: 3
#     Node 23, Type 0, BuildingBlock: OLANEW_clean_sbu_2, # of connection points: 3
#     Node 24, Type 0, BuildingBlock: OLANEW_clean_sbu_2, # of connection points: 3
#     Node 25, Type 0, BuildingBlock: OLANEW_clean_sbu_2, # of connection points: 3
#     Node 26, Type 0, BuildingBlock: OLANEW_clean_sbu_2, # of connection points: 3
#     Node 27, Type 0, BuildingBlock: OLANEW_clean_sbu_2, # of connection points: 3
#     Node 28, Type 0, BuildingBlock: OLANEW_clean_sbu_2, # of connection points: 3
#     Node 29, Type 0, BuildingBlock: OLANEW_clean_sbu_2, # of connection points: 3
#     Node 30, Type 0, BuildingBlock: OLANEW_clean_sbu_2, # of connection points: 3
#     Node 31, Type 0, BuildingBlock: OLANEW_clean_sbu_2, # of connection points: 3
#     Edge 32, Type (0, 0), BuildingBlock: OJICUG_clean_linker_0, # of connection points: 2
#     Edge 33, Type (0, 0), BuildingBlock: OJICUG_clean_linker_0, # of connection points: 2
#     Edge 34, Type (0, 0), BuildingBlock: OJICUG_clean_linker_0, # of connection points: 2
#     Edge 35, Type (0, 0), BuildingBlock: OJICUG_clean_linker_0, # of connection points: 2
#     Edge 36, Type (0, 0), BuildingBlock: OJICUG_clean_linker_0, # of connection points: 2
#     Edge 37, Type (0, 0), BuildingBlock: OJICUG_clean_linker_0, # of connection points: 2
#     Edge 38, Type (0, 0), BuildingBlock: OJICUG_clean_linker_0, # of connection points: 2
#     Edge 39, Type (0, 0), BuildingBlock: OJICUG_clean_linker_0, # of connection points: 2
#     Edge 40, Type (0, 0), BuildingBlock: OJICUG_clean_linker_0, # of connection points: 2
#     Edge 41, Type (0, 0), BuildingBlock: OJICUG_clean_linker_0, # of connection points: 2
#     Edge 42, Type (0, 0), BuildingBlock: OJICUG_clean_linker_0, # of connection points: 2
#     Edge 43, Type (0, 0), BuildingBlock: OJICUG_clean_linker_0, # of connection points: 2
#     Edge 44, Type (0, 0), BuildingBlock: OJICUG_clean_linker_0, # of connection points: 2
#     Edge 45, Type (0, 0), BuildingBlock: OJICUG_clean_linker_0, # of connection points: 2
#     Edge 46, Type (0, 0), BuildingBlock: OJICUG_clean_linker_0, # of connection points: 2
#     Edge 47, Type (0, 0), BuildingBlock: OJICUG_clean_linker_0, # of connection points: 2
#     Edge 48, Type (0, 0), BuildingBlock: OJICUG_clean_linker_0, # of connection points: 2
#     Edge 49, Type (0, 0), BuildingBlock: OJICUG_clean_linker_0, # of connection points: 2
#     Edge 50, Type (0, 0), BuildingBlock: OJICUG_clean_linker_0, # of connection points: 2
#     Edge 51, Type (0, 0), BuildingBlock: OJICUG_clean_linker_0, # of connection points: 2
#     Edge 52, Type (0, 0), BuildingBlock: OJICUG_clean_linker_0, # of connection points: 2
#     Edge 53, Type (0, 0), BuildingBlock: OJICUG_clean_linker_0, # of connection points: 2
#     Edge 54, Type (0, 0), BuildingBlock: OJICUG_clean_linker_0, # of connection points: 2
#     Edge 55, Type (0, 0), BuildingBlock: OJICUG_clean_linker_0, # of connection points: 2
#     Edge 56, Type (0, 0), BuildingBlock: OJICUG_clean_linker_0, # of connection points: 2
#     Edge 57, Type (0, 0), BuildingBlock: OJICUG_clean_linker_0, # of connection points: 2
#     Edge 58, Type (0, 0), BuildingBlock: OJICUG_clean_linker_0, # of connection points: 2
#     Edge 59, Type (0, 0), BuildingBlock: OJICUG_clean_linker_0, # of connection points: 2
#     Edge 60, Type (0, 0), BuildingBlock: OJICUG_clean_linker_0, # of connection points: 2
#     Edge 61, Type (0, 0), BuildingBlock: OJICUG_clean_linker_0, # of connection points: 2
#     Edge 62, Type (0, 0), BuildingBlock: OJICUG_clean_linker_0, # of connection points: 2
#     Edge 63, Type (0, 0), BuildingBlock: OJICUG_clean_linker_0, # of connection points: 2
#     Edge 64, Type (0, 0), BuildingBlock: OJICUG_clean_linker_0, # of connection points: 2
#     Edge 65, Type (0, 0), BuildingBlock: OJICUG_clean_linker_0, # of connection points: 2
#     Edge 66, Type (0, 0), BuildingBlock: OJICUG_clean_linker_0, # of connection points: 2
#     Edge 67, Type (0, 0), BuildingBlock: OJICUG_clean_linker_0, # of connection points: 2
#     Edge 68, Type (0, 0), BuildingBlock: OJICUG_clean_linker_0, # of connection points: 2
#     Edge 69, Type (0, 0), BuildingBlock: OJICUG_clean_linker_0, # of connection points: 2
#     Edge 70, Type (0, 0), BuildingBlock: OJICUG_clean_linker_0, # of connection points: 2
#     Edge 71, Type (0, 0), BuildingBlock: OJICUG_clean_linker_0, # of connection points: 2
#     Edge 72, Type (0, 0), BuildingBlock: OJICUG_clean_linker_0, # of connection points: 2
#     Edge 73, Type (0, 0), BuildingBlock: OJICUG_clean_linker_0, # of connection points: 2
#     Edge 74, Type (0, 0), BuildingBlock: OJICUG_clean_linker_0, # of connection points: 2
#     Edge 75, Type (0, 0), BuildingBlock: OJICUG_clean_linker_0, # of connection points: 2
#     Edge 76, Type (0, 0), BuildingBlock: OJICUG_clean_linker_0, # of connection points: 2
#     Edge 77, Type (0, 0), BuildingBlock: OJICUG_clean_linker_0, # of connection points: 2
#     Edge 78, Type (0, 0), BuildingBlock: OJICUG_clean_linker_0, # of connection points: 2
#     Edge 79, Type (0, 0), BuildingBlock: OJICUG_clean_linker_0, # of connection points: 2
# Relax obj value: 0.000
# Max RMSD: 0.031
# Mean RMSD: 0.031
data_MOF--net-utq--node1-OLANEW_clean_sbu_2--edge1-OJICUG_clean_linker_0
_symmetry_space_group_name_H-M    P1
_symmetry_Int_Tables_number       1
_symmetry_cell_setting            triclinic
loop_
_symmetry_equiv_pos_as_xyz
'x, y, z'
_cell_length_a     64.758821
_cell_length_b     22.649672
_cell_length_c     76.6825
_cell_angle_alpha  89.841035
_cell_angle_beta   89.923036
_cell_angle_gamma 89.97929
loop_
_atom_site_label
_atom_site_type_symbol
_atom_site_fract_x
_atom_site_fract_y
_atom_site_fract_z
_atom_type_partial_charge
O0 O 0.46902 0.14656 0.05655 0.0
Cd1 Cd 0.46814 0.1799 0.02608 0.0
O2 O 0.43643 0.11935 0.05544 0.0
Cd3 Cd 0.42898 0.16178 0.0306 0.0
O4 O 0.40722 0.22504 0.01931 0.0
C5 C 0.41155 0.27975 0.01954 0.0
O6 O 0.4299 0.29616 0.02497 0.0
C7 C 0.4534 0.12259 0.06372 0.0
C8 C 0.48382 0.09641 0.00266 0.0
O9 O 0.49555 0.13571 0.00944 0.0
O10 O 0.46471 0.09628 0.00704 0.0
O11 O 0.76888 0.07359 0.0549 0.0
Cd12 Cd 0.77166 0.05185 0.02364 0.0
O13 O 0.7958 0.0175 0.06076 0.0
Cd14 Cd 0.80395 -0.01343 0.03467 0.0
O15 O 0.82691 0.93017 0.022 0.0
C16 C 0.84549 0.94821 0.02163 0.0
O17 O 0.84956 0.0017 0.02727 0.0
C18 C 0.78141 0.05152 0.0659 0.0
C19 C 0.75357 0.13671 0.00184 0.0
O20 O 0.74314 0.09261 0.00756 0.0
O21 O 0.77247 0.14115 0.00663 0.0
O22 O 0.46504 0.07509 0.14749 0.0
Cd23 Cd 0.46248 0.05221 0.17873 0.0
O24 O 0.43726 0.02236 0.14189 0.0
Cd25 Cd 0.42934 -0.00965 0.16797 0.0
O26 O 0.40662 0.93269 0.18053 0.0
C27 C 0.38796 0.95011 0.18093 0.0
O28 O 0.38367 0.00368 0.17539 0.0
C29 C 0.45199 0.05502 0.13662 0.0
C30 C 0.48026 0.13678 0.20066 0.0
O31 O 0.49086 0.09322 0.19486 0.0
O32 O 0.46134 0.14084 0.1959 0.0
O33 O 0.76491 0.14548 0.14563 0.0
Cd34 Cd 0.76601 0.17936 0.17598 0.0
O35 O 0.79697 0.1136 0.14707 0.0
Cd36 Cd 0.80478 0.15681 0.17163 0.0
O37 O 0.82637 0.22106 0.18254 0.0
C38 C 0.82198 0.27568 0.18164 0.0
O39 O 0.80374 0.29132 0.17573 0.0
C40 C 0.78014 0.11897 0.13867 0.0
C41 C 0.75 0.09671 0.19963 0.0
O42 O 0.73844 0.13638 0.19276 0.0
O43 O 0.76911 0.09584 0.19524 0.0
O44 O 0.52602 0.86654 0.89929 0.0
Cd45 Cd 0.53204 0.84235 0.93008 0.0
O46 O 0.53274 0.77607 0.89051 0.0
Cd47 Cd 0.54511 0.7439 0.9153 0.0
O48 O 0.57123 0.69629 0.92673 0.0
C49 C 0.57074 0.64023 0.92742 0.0
O50 O 0.55374 0.61291 0.92272 0.0
C51 C 0.52702 0.82856 0.8871 0.0
C52 C 0.5161 0.92627 0.95325 0.0
O53 O 0.53466 0.93007 0.94754 0.0
O54 O 0.505 0.88313 0.94789 0.0
O55 O 0.20567 0.86217 0.89984 0.0
Cd56 Cd 0.19969 0.88657 0.9306 0.0
O57 O 0.20217 0.95419 0.89102 0.0
Cd58 Cd 0.19011 -0.01239 0.91572 0.0
O59 O 0.16375 0.0347 0.9269 0.0
C60 C 0.14656 0.00771 0.92773 0.0
O61 O 0.14593 0.95164 0.92339 0.0
C62 C 0.20622 0.90046 0.88766 0.0
C63 C 0.21716 0.8048 0.95375 0.0
O64 O 0.19863 0.79855 0.94819 0.0
O65 O 0.22748 0.84947 0.94828 0.0
O66 O 0.527 0.86043 0.80266 0.0
Cd67 Cd 0.53318 0.88461 0.77186 0.0
O68 O 0.53105 0.95223 0.81136 0.0
Cd69 Cd 0.54331 -0.0145 0.78666 0.0
O70 O 0.56973 0.03297 0.77565 0.0
C71 C 0.587 0.00633 0.77514 0.0
O72 O 0.58771 0.95038 0.77968 0.0
C73 C 0.52667 0.8987 0.81478 0.0
C74 C 0.51556 0.80331 0.74878 0.0
O75 O 0.53403 0.79651 0.75444 0.0
O76 O 0.50537 0.8483 0.75413 0.0
O77 O 0.20663 0.86821 0.8032 0.0
Cd78 Cd 0.20056 0.84422 0.77245 0.0
O79 O 0.19961 0.77794 0.81213 0.0
Cd80 Cd 0.18724 0.74583 0.78739 0.0
O81 O 0.16127 0.69778 0.77598 0.0
C82 C 0.1619 0.64173 0.77541 0.0
O83 O 0.17894 0.61473 0.78021 0.0
C84 C 0.20549 0.83028 0.81545 0.0
C85 C 0.21682 0.92779 0.74919 0.0
O86 O 0.19825 0.93207 0.75487 0.0
O87 O 0.22776 0.88431 0.75462 0.0
O88 O 0.46899 0.64629 0.5568 0.0
Cd89 Cd 0.4681 0.68037 0.52641 0.0
O90 O 0.437 0.61404 0.55517 0.0
Cd91 Cd 0.42932 0.65733 0.53051 0.0
O92 O 0.40758 0.72119 0.5195 0.0
C93 C 0.41185 0.77589 0.5202 0.0
O94 O 0.43011 0.79193 0.52596 0.0
C95 C 0.45374 0.61954 0.56368 0.0
C96 C 0.48379 0.5973 0.50286 0.0
O97 O 0.49551 0.63651 0.5097 0.0
O98 O 0.46468 0.59709 0.50724 0.0
O99 O 0.76889 0.57478 0.55513 0.0
Cd100 Cd 0.77141 0.55228 0.52391 0.0
O101 O 0.79655 0.52147 0.56079 0.0
Cd102 Cd 0.80444 0.48981 0.53472 0.0
O103 O 0.82712 0.43244 0.52206 0.0
C104 C 0.84576 0.44998 0.52152 0.0
O105 O 0.85005 0.50354 0.52698 0.0
C106 C 0.78188 0.55433 0.56603 0.0
C107 C 0.75339 0.63694 0.502 0.0
O108 O 0.7429 0.59315 0.50785 0.0
O109 O 0.77232 0.64118 0.50671 0.0
O110 O 0.46419 0.57365 0.64759 0.0
Cd111 Cd 0.46112 0.55158 0.67885 0.0
O112 O 0.43751 0.517 0.64155 0.0
Cd113 Cd 0.42912 0.48552 0.66758 0.0
O114 O 0.40616 0.42847 0.68007 0.0
C115 C 0.38749 0.44588 0.68006 0.0
O116 O 0.38332 0.49908 0.67415 0.0
C117 C 0.45185 0.5514 0.6365 0.0
C118 C 0.47926 0.63566 0.70074 0.0
O119 O 0.48962 0.59139 0.69509 0.0
O120 O 0.46042 0.64064 0.69584 0.0
O121 O 0.76509 0.64636 0.64593 0.0
Cd122 Cd 0.76601 0.67971 0.67633 0.0
O123 O 0.79754 0.61776 0.64715 0.0
Cd124 Cd 0.80506 0.66021 0.6719 0.0
O125 O 0.82672 0.72362 0.68312 0.0
C126 C 0.82232 0.7783 0.6828 0.0
O127 O 0.80397 0.79455 0.67728 0.0
C128 C 0.78061 0.62168 0.63883 0.0
C129 C 0.75005 0.59653 0.69984 0.0
O130 O 0.73845 0.63613 0.69298 0.0
O131 O 0.76917 0.59597 0.69549 0.0
O132 O 0.52605 0.36796 0.39939 0.0
Cd133 Cd 0.53212 0.34376 0.43018 0.0
O134 O 0.53298 0.27765 0.39058 0.0
Cd135 Cd 0.54535 0.24541 0.41536 0.0
O136 O 0.5714 0.19747 0.42678 0.0
C137 C 0.57083 0.14141 0.42744 0.0
O138 O 0.5538 0.11431 0.42272 0.0
C139 C 0.52714 0.33006 0.3872 0.0
C140 C 0.51613 0.42757 0.45337 0.0
O141 O 0.53469 0.43147 0.44765 0.0
O142 O 0.50506 0.38438 0.448 0.0
O143 O 0.20568 0.36105 0.39997 0.0
Cd144 Cd 0.19974 0.38536 0.43074 0.0
O145 O 0.20204 0.45301 0.39113 0.0
Cd146 Cd 0.19002 0.48647 0.41585 0.0
O147 O 0.16371 0.5338 0.42702 0.0
C148 C 0.14652 0.50688 0.42795 0.0
O149 O 0.14585 0.45073 0.42372 0.0
C150 C 0.20614 0.39932 0.38778 0.0
C151 C 0.21749 0.30391 0.45384 0.0
O152 O 0.19897 0.29724 0.4483 0.0
O153 O 0.22767 0.34885 0.44838 0.0
O154 O 0.52706 0.36237 0.30276 0.0
Cd155 Cd 0.53313 0.38694 0.27198 0.0
O156 O 0.53068 0.45428 0.31149 0.0
Cd157 Cd 0.54282 0.48787 0.28678 0.0
O158 O 0.56918 0.53533 0.27569 0.0
C159 C 0.58641 0.50854 0.27499 0.0
O160 O 0.5871 0.45246 0.27939 0.0
C161 C 0.52655 0.40059 0.3149 0.0
C162 C 0.51585 0.30522 0.24885 0.0
O163 O 0.53436 0.29905 0.25448 0.0
O164 O 0.50546 0.34977 0.25424 0.0
O165 O 0.20648 0.36687 0.30332 0.0
Cd166 Cd 0.20039 0.34281 0.27257 0.0
O167 O 0.19942 0.27666 0.31228 0.0
Cd168 Cd 0.18704 0.24448 0.28756 0.0
O169 O 0.16108 0.19636 0.27613 0.0
C170 C 0.16174 0.14031 0.27555 0.0
O171 O 0.17879 0.11335 0.28035 0.0
C172 C 0.20533 0.32899 0.31558 0.0
C173 C 0.21673 0.42621 0.2493 0.0
O174 O 0.19816 0.43063 0.25498 0.0
O175 O 0.22763 0.38267 0.25474 0.0
O176 O 0.96884 0.14615 0.55657 0.0
Cd177 Cd 0.96797 0.17948 0.52611 0.0
O178 O 0.93629 0.11858 0.55544 0.0
Cd179 Cd 0.92883 0.16106 0.53061 0.0
O180 O 0.90708 0.22445 0.51936 0.0
C181 C 0.91144 0.27915 0.51963 0.0
O182 O 0.92979 0.29546 0.52509 0.0
C183 C 0.95325 0.12199 0.56373 0.0
C184 C 0.98368 0.09601 0.50269 0.0
O185 O -0.00461 0.13535 0.50947 0.0
O186 O 0.96457 0.09583 0.50708 0.0
O187 O 0.26939 0.07337 0.55499 0.0
Cd188 Cd 0.27237 0.05149 0.52376 0.0
O189 O 0.29612 0.01678 0.56106 0.0
Cd190 Cd 0.30444 -0.01448 0.53504 0.0
O191 O 0.32736 0.92871 0.52248 0.0
C192 C 0.34601 0.94626 0.52232 0.0
O193 O 0.35017 -0.00051 0.52812 0.0
C194 C 0.28176 0.05111 0.56609 0.0
C195 C 0.2541 0.13575 0.50186 0.0
O196 O 0.24379 0.09142 0.50757 0.0
O197 O 0.27297 0.1407 0.50668 0.0
O198 O 0.96482 0.07479 0.64752 0.0
Cd199 Cd 0.96224 0.05204 0.67877 0.0
O200 O 0.93711 0.02178 0.64191 0.0
Cd201 Cd 0.92918 -0.01013 0.66799 0.0
O202 O 0.9065 0.9322 0.68059 0.0
C203 C 0.88783 0.94958 0.68101 0.0
O204 O 0.88351 0.00315 0.67548 0.0
C205 C 0.95181 0.05455 0.63664 0.0
C206 C 0.98004 0.13666 0.70067 0.0
O207 O 0.99063 0.09305 0.69488 0.0
O208 O 0.96113 0.14075 0.6959 0.0
O209 O 0.26478 0.14598 0.64565 0.0
Cd210 Cd 0.2657 0.17998 0.67599 0.0
O211 O 0.29673 0.11333 0.64733 0.0
Cd212 Cd 0.30443 0.15655 0.67192 0.0
O213 O 0.32609 0.22045 0.6829 0.0
C214 C 0.32178 0.27514 0.68209 0.0
O215 O 0.30355 0.2911 0.67623 0.0
C216 C 0.28 0.11905 0.63881 0.0
C217 C 0.24973 0.09716 0.69961 0.0
O218 O 0.23813 0.13666 0.6927 0.0
O219 O 0.26886 0.09654 0.69527 0.0
O220 O 0.02588 0.86619 0.39933 0.0
Cd221 Cd 0.03199 0.84206 0.43012 0.0
O222 O 0.03285 0.7759 0.39052 0.0
Cd223 Cd 0.04526 0.74372 0.41529 0.0
O224 O 0.07132 0.69579 0.42672 0.0
C225 C 0.07073 0.63974 0.42742 0.0
O226 O 0.05368 0.61264 0.42273 0.0
C227 C 0.02698 0.82828 0.38714 0.0
C228 C 0.01601 0.92592 0.4533 0.0
O229 O 0.03457 0.92982 0.44756 0.0
O230 O 0.00494 0.88271 0.44796 0.0
O231 O 0.70575 0.86301 0.4 0.0
Cd232 Cd 0.69978 0.88746 0.43076 0.0
O233 O 0.70222 0.95499 0.39115 0.0
Cd234 Cd 0.69017 -0.0115 0.41585 0.0
O235 O 0.66384 0.03571 0.42703 0.0
C236 C 0.64666 0.00873 0.42795 0.0
O237 O 0.64601 0.9526 0.42369 0.0
C238 C 0.70628 0.90126 0.38781 0.0
C239 C 0.71728 0.80572 0.45391 0.0
O240 O 0.69875 0.79944 0.44835 0.0
O241 O 0.72758 0.85041 0.44844 0.0
O242 O 0.02675 0.86046 0.3027 0.0
Cd243 Cd 0.03279 0.88498 0.27191 0.0
O244 O 0.03044 0.95236 0.31142 0.0
Cd245 Cd 0.04255 -0.01405 0.28669 0.0
O246 O 0.06888 0.03355 0.27561 0.0
C247 C 0.08612 0.0068 0.27484 0.0
O248 O 0.08683 0.95067 0.27919 0.0
C249 C 0.02628 0.89869 0.31483 0.0
C250 C 0.01537 0.80348 0.24878 0.0
O251 O 0.03387 0.79708 0.2544 0.0
O252 O 0.00505 0.84815 0.25418 0.0
O253 O 0.70675 0.86863 0.30336 0.0
Cd254 Cd 0.70068 0.84447 0.27261 0.0
O255 O 0.6997 0.77841 0.31233 0.0
Cd256 Cd 0.68736 0.74615 0.2876 0.0
O257 O 0.66142 0.69796 0.27618 0.0
C258 C 0.66206 0.6419 0.27567 0.0
O259 O 0.67909 0.61498 0.28054 0.0
C260 C 0.70559 0.83076 0.31562 0.0
C261 C 0.71699 0.92781 0.24932 0.0
O262 O 0.69843 0.93223 0.255 0.0
O263 O 0.72791 0.88431 0.25477 0.0
O264 O 0.96927 0.64735 0.05648 0.0
Cd265 Cd 0.96856 0.68111 0.02606 0.0
O266 O 0.9369 0.61831 0.05504 0.0
Cd267 Cd 0.92947 0.66125 0.03028 0.0
O268 O 0.9076 0.72444 0.01911 0.0
C269 C 0.91176 0.77925 0.01959 0.0
O270 O 0.93 0.79585 0.02523 0.0
C271 C 0.95375 0.6223 0.06347 0.0
C272 C 0.98415 0.59755 0.00262 0.0
O273 O -0.00407 0.63663 0.00945 0.0
O274 O 0.96503 0.5977 0.00696 0.0
O275 O 0.26872 0.57412 0.05506 0.0
Cd276 Cd 0.27116 0.55142 0.02384 0.0
O277 O 0.29667 0.52196 0.06063 0.0
Cd278 Cd 0.3045 0.49017 0.03456 0.0
O279 O 0.32718 0.43279 0.02191 0.0
C280 C 0.34581 0.45039 0.02134 0.0
O281 O 0.35009 0.50401 0.02676 0.0
C282 C 0.28189 0.55431 0.06591 0.0
C283 C 0.25319 0.63607 0.00191 0.0
O284 O 0.24266 0.59238 0.00778 0.0
O285 O 0.27213 0.6402 0.0066 0.0
O286 O 0.96451 0.57444 0.14729 0.0
Cd287 Cd 0.96164 0.55155 0.17851 0.0
O288 O 0.9372 0.52015 0.14136 0.0
Cd289 Cd 0.92897 0.48795 0.16734 0.0
O290 O 0.90609 0.43039 0.17974 0.0
C291 C 0.88738 0.44744 0.17964 0.0
O292 O 0.88313 0.50054 0.17369 0.0
C293 C 0.95179 0.55362 0.13626 0.0
C294 C 0.97953 0.63568 0.20053 0.0
O295 O 0.99003 0.59187 0.19477 0.0
O296 O 0.96065 0.6402 0.19568 0.0
O297 O 0.26501 0.64543 0.1459 0.0
Cd298 Cd 0.26591 0.67864 0.17632 0.0
O299 O 0.29765 0.61857 0.14696 0.0
Cd300 Cd 0.3051 0.66094 0.17174 0.0
O301 O 0.32677 0.7243 0.18298 0.0
C302 C 0.32239 0.77899 0.18264 0.0
O303 O 0.30406 0.79529 0.17709 0.0
C304 C 0.28065 0.62165 0.13872 0.0
C305 C 0.24983 0.59556 0.1998 0.0
O306 O 0.23828 0.63528 0.19294 0.0
O307 O 0.26895 0.59481 0.19546 0.0
O308 O 0.02607 0.36726 0.89932 0.0
Cd309 Cd 0.03213 0.34294 0.9301 0.0
O310 O 0.03291 0.27694 0.89047 0.0
Cd311 Cd 0.04527 0.24452 0.91523 0.0
O312 O 0.0713 0.19644 0.92664 0.0
C313 C 0.07073 0.14037 0.92722 0.0
O314 O 0.05372 0.11334 0.92242 0.0
C315 C 0.02712 0.32941 0.88711 0.0
C316 C 0.01628 0.427 0.95327 0.0
O317 O 0.03485 0.43063 0.94756 0.0
O318 O 0.00514 0.38395 0.94792 0.0
O319 O 0.70586 0.36308 0.90003 0.0
Cd320 Cd 0.69986 0.38763 0.93078 0.0
O321 O 0.70234 0.455 0.89113 0.0
Cd322 Cd 0.69027 0.4886 0.91581 0.0
O323 O 0.66389 0.5356 0.92699 0.0
C324 C 0.64675 0.50843 0.92794 0.0
O325 O 0.64617 0.45225 0.92372 0.0
C326 C 0.7064 0.40124 0.88782 0.0
C327 C 0.71738 0.30587 0.95392 0.0
O328 O 0.69885 0.29956 0.94835 0.0
O329 O 0.72767 0.35062 0.94847 0.0
O330 O 0.02697 0.3622 0.80269 0.0
Cd331 Cd 0.03299 0.3869 0.77191 0.0
O332 O 0.03059 0.45407 0.81146 0.0
Cd333 Cd 0.04268 0.48778 0.78674 0.0
O334 O 0.069 0.53529 0.77561 0.0
C335 C 0.08623 0.50847 0.77482 0.0
O336 O 0.08693 0.45234 0.77916 0.0
C337 C 0.02647 0.40035 0.81485 0.0
C338 C 0.01569 0.30519 0.74879 0.0
O339 O 0.03421 0.29905 0.7544 0.0
O340 O 0.0053 0.34972 0.7542 0.0
O341 O 0.70695 0.36781 0.8034 0.0
Cd342 Cd 0.70096 0.34338 0.77266 0.0
O343 O 0.69995 0.27765 0.81244 0.0
Cd344 Cd 0.68768 0.24503 0.78772 0.0
O345 O 0.66183 0.1964 0.77631 0.0
C346 C 0.66252 0.14033 0.77595 0.0
O347 O 0.67954 0.11367 0.78097 0.0
C348 C 0.7058 0.33006 0.81569 0.0
C349 C 0.71718 0.4269 0.74937 0.0
O350 O 0.69859 0.43107 0.75502 0.0
O351 O 0.72816 0.38356 0.75484 0.0
C352 C 0.47045 0.1183 0.09324 0.0
C353 C 0.45426 0.10167 0.08205 0.0
H354 H 0.48242 0.11716 0.11934 0.0
C355 C 0.43796 0.06774 0.08884 0.0
H356 H 0.4832 0.14464 0.08842 0.0
C357 C 0.43754 0.05199 0.10643 0.0
C358 C 0.45334 0.07002 0.11779 0.0
H359 H 0.42528 0.05394 0.08061 0.0
H360 H 0.42454 0.02645 0.11115 0.0
C361 C 0.46995 0.10283 0.11097 0.0
C362 C 0.79477 0.06118 0.11387 0.0
C363 C 0.77907 0.09777 0.12042 0.0
H364 H 0.80772 0.01784 0.09176 0.0
C365 C 0.76339 0.1169 0.10903 0.0
H366 H 0.80704 0.04539 0.12226 0.0
C367 C 0.76386 0.10139 0.09133 0.0
C368 C 0.77993 0.06606 0.08473 0.0
H369 H 0.75111 0.14531 0.11366 0.0
H370 H 0.75183 0.1178 0.0828 0.0
C371 C 0.79515 0.04539 0.09631 0.0
C372 C 0.52217 0.90615 0.86403 0.0
C373 C 0.52354 0.84624 0.86869 0.0
H374 H 0.52196 0.96974 0.84334 0.0
C375 C 0.52351 0.80352 0.8554 0.0
H376 H 0.52208 0.9402 0.87392 0.0
C377 C 0.52334 0.82043 0.83784 0.0
C378 C 0.52334 0.88047 0.83317 0.0
H379 H 0.52439 0.75692 0.85852 0.0
H380 H 0.52418 0.78643 0.82796 0.0
C381 C 0.52214 0.92308 0.84647 0.0
C382 C 0.20917 0.82208 0.86472 0.0
C383 C 0.20942 0.88212 0.86929 0.0
H384 H 0.20783 0.7586 0.84415 0.0
C385 C 0.21077 0.92468 0.85592 0.0
H386 H 0.20821 0.78812 0.87467 0.0
C387 C 0.21064 0.90774 0.83839 0.0
C388 C 0.20903 0.84787 0.83383 0.0
H389 H 0.21115 0.97133 0.85897 0.0
H390 H 0.21086 0.94177 0.82845 0.0
C391 C 0.2089 0.80517 0.8472 0.0
C392 C 0.47018 0.61751 0.59345 0.0
C393 C 0.45466 0.5982 0.58196 0.0
H394 H 0.48145 0.61838 0.61977 0.0
C395 C 0.43899 0.56128 0.58842 0.0
H396 H 0.48244 0.64617 0.58889 0.0
C397 C 0.43845 0.54533 0.60599 0.0
C398 C 0.4535 0.56616 0.61767 0.0
H399 H 0.42685 0.54536 0.57995 0.0
H400 H 0.4259 0.51752 0.61047 0.0
C401 C 0.46955 0.60184 0.61116 0.0
C402 C 0.79624 0.55055 0.59625 0.0
C403 C 0.78054 0.56919 0.58484 0.0
H404 H 0.80847 0.552 0.62209 0.0
C405 C 0.76405 0.60254 0.5916 0.0
H406 H 0.80915 0.52458 0.59158 0.0
C407 C 0.76359 0.61798 0.60931 0.0
C408 C 0.77969 0.60076 0.62054 0.0
H409 H 0.75165 0.61735 0.58319 0.0
H410 H 0.75093 0.64476 0.61407 0.0
C411 C 0.79586 0.56627 0.61382 0.0
C412 C 0.52373 0.30511 0.35548 0.0
C413 C 0.52363 0.34776 0.36879 0.0
H414 H 0.52443 0.28819 0.32803 0.0
C415 C 0.52206 0.40766 0.36415 0.0
H416 H 0.52475 0.25852 0.35858 0.0
C417 C 0.52197 0.42468 0.3466 0.0
C418 C 0.5233 0.38217 0.33329 0.0
H419 H 0.52187 0.44165 0.37406 0.0
H420 H 0.52164 0.47135 0.34349 0.0
C421 C 0.52349 0.32211 0.33793 0.0
C422 C 0.21047 0.40651 0.33851 0.0
C423 C 0.20888 0.34663 0.33396 0.0
H424 H 0.21098 0.47015 0.35908 0.0
C425 C 0.20879 0.30395 0.34733 0.0
H426 H 0.21066 0.44053 0.32855 0.0
C427 C 0.20908 0.32091 0.36486 0.0
C428 C 0.20932 0.38095 0.36941 0.0
H429 H 0.20774 0.25738 0.3443 0.0
H430 H 0.20816 0.28696 0.3748 0.0
C431 C 0.21062 0.42349 0.35604 0.0
C432 C 0.93786 0.06695 0.58884 0.0
C433 C 0.95411 0.10108 0.58206 0.0
H434 H 0.92446 0.02554 0.61114 0.0
C435 C 0.97026 0.11794 0.59327 0.0
H436 H 0.92521 0.05298 0.58059 0.0
C437 C 0.96975 0.10249 0.611 0.0
C438 C 0.95318 0.06949 0.61781 0.0
H439 H 0.98298 0.14443 0.58846 0.0
H440 H 0.98219 0.117 0.61939 0.0
C441 C 0.93743 0.05123 0.60643 0.0
C442 C 0.26411 0.10153 0.59138 0.0
C443 C 0.28015 0.0658 0.5849 0.0
H444 H 0.25127 0.14586 0.6136 0.0
C445 C 0.29521 0.04487 0.59659 0.0
H446 H 0.25221 0.11814 0.58275 0.0
C447 C 0.2947 0.06079 0.61414 0.0
C448 C 0.27905 0.09776 0.62056 0.0
H449 H 0.30774 0.01702 0.59214 0.0
H450 H 0.30685 0.04479 0.62262 0.0
C451 C 0.26352 0.11716 0.60906 0.0
C452 C 0.02175 0.92283 0.34653 0.0
C453 C 0.02306 0.8803 0.33323 0.0
H454 H 0.02168 0.93985 0.37399 0.0
C455 C 0.02326 0.82025 0.33787 0.0
H456 H 0.02141 0.9695 0.34342 0.0
C457 C 0.02353 0.80328 0.35542 0.0
C458 C 0.02344 0.84595 0.36873 0.0
H459 H 0.02419 0.78631 0.32798 0.0
H460 H 0.02456 0.7567 0.35853 0.0
C461 C 0.02186 0.90584 0.36409 0.0
C462 C 0.71082 0.92535 0.35607 0.0
C463 C 0.70949 0.88285 0.36945 0.0
H464 H 0.71091 0.94233 0.32858 0.0
C465 C 0.70925 0.82279 0.3649 0.0
H466 H 0.71119 0.97202 0.3591 0.0
C467 C 0.70899 0.8058 0.34738 0.0
C468 C 0.70911 0.84845 0.334 0.0
H469 H 0.7083 0.78887 0.37486 0.0
H470 H 0.70794 0.75921 0.34436 0.0
C471 C 0.71071 0.90834 0.33854 0.0
C472 C 0.96978 0.60277 0.11085 0.0
C473 C 0.95334 0.56878 0.11746 0.0
H474 H 0.98302 0.64582 0.0885 0.0
C475 C 0.93787 0.54983 0.1059 0.0
H476 H 0.982 0.61784 0.11937 0.0
C477 C 0.93842 0.56588 0.08834 0.0
C478 C 0.95453 0.60102 0.08177 0.0
H479 H 0.92501 0.52336 0.11045 0.0
H480 H 0.92598 0.55137 0.07995 0.0
C481 C 0.97041 0.61854 0.09314 0.0
C482 C 0.26394 0.60177 0.09155 0.0
C483 C 0.28059 0.56924 0.08472 0.0
H484 H 0.25069 0.64331 0.11408 0.0
C485 C 0.29648 0.55143 0.09606 0.0
H486 H 0.2514 0.61592 0.0832 0.0
C487 C 0.2961 0.56714 0.11363 0.0
C488 C 0.27976 0.60078 0.12042 0.0
H489 H 0.30952 0.52612 0.09133 0.0
H490 H 0.30885 0.55351 0.12184 0.0
C491 C 0.26349 0.61719 0.10926 0.0
C492 C 0.02368 0.30466 0.85538 0.0
C493 C 0.02361 0.34723 0.86871 0.0
H494 H 0.02435 0.28789 0.82792 0.0
C495 C 0.02206 0.40716 0.86411 0.0
H496 H 0.02469 0.25804 0.85846 0.0
C497 C 0.02196 0.42428 0.84656 0.0
C498 C 0.02325 0.38185 0.83323 0.0
H499 H 0.02189 0.44109 0.87403 0.0
H500 H 0.02163 0.47097 0.84348 0.0
C501 C 0.02343 0.32176 0.83784 0.0
C502 C 0.70918 0.30543 0.84747 0.0
C503 C 0.70928 0.34795 0.83406 0.0
H504 H 0.70849 0.28875 0.87496 0.0
C505 C 0.71084 0.40789 0.83855 0.0
H506 H 0.70817 0.25881 0.84448 0.0
C507 C 0.71093 0.42507 0.85606 0.0
C508 C 0.70962 0.38269 0.86947 0.0
H509 H 0.71103 0.44179 0.82856 0.0
H510 H 0.71127 0.47177 0.85905 0.0
C511 C 0.70942 0.32258 0.86498 0.0
C512 C 0.47934 0.00804 -0.01667 0.0
C513 C 0.49208 0.05281 -0.00996 0.0
H514 H 0.4769 0.93305 0.96651 0.0
C515 C 0.51275 0.05573 -0.01552 0.0
H516 H 0.46334 0.00452 -0.01267 0.0
C517 C 0.52051 0.01488 0.97248 0.0
C518 C 0.50779 0.97001 0.96581 0.0
H519 H 0.52298 0.08969 -0.01064 0.0
H520 H 0.53651 0.01839 0.96849 0.0
C521 C 0.48712 0.96705 0.97138 0.0
C522 C 0.75576 0.22889 -0.01632 0.0
C523 C 0.7442 0.18058 -0.01017 0.0
H524 H 0.75641 0.30622 0.96755 0.0
C525 C 0.72369 0.17406 -0.01586 0.0
H526 H 0.7716 0.23524 -0.01221 0.0
C527 C 0.71499 0.21471 0.97251 0.0
C528 C 0.72658 0.26288 0.9663 0.0
H529 H 0.71435 0.13734 -0.01139 0.0
H530 H 0.69917 0.20827 0.96836 0.0
C531 C 0.74705 0.26959 0.97206 0.0
C532 C 0.51853 0.21463 0.23019 0.0
C533 C 0.50679 0.26236 0.23642 0.0
H534 H 0.51944 0.1378 0.21399 0.0
C535 C 0.48632 0.2688 0.23063 0.0
H536 H 0.53436 0.2084 0.23435 0.0
C537 C 0.47776 0.22829 0.21895 0.0
C538 C 0.48948 0.18045 0.21276 0.0
H539 H 0.47684 0.30509 0.23516 0.0
H540 H 0.46191 0.23443 0.21482 0.0
C541 C 0.50998 0.17418 0.21848 0.0
C542 C 0.71297 0.01658 0.22995 0.0
C543 C 0.72549 0.97127 0.2367 0.0
H544 H 0.71082 0.09146 0.21293 0.0
C545 C 0.74615 0.96757 0.23115 0.0
H546 H 0.69698 0.02067 0.23392 0.0
C547 C 0.75411 0.00827 0.21913 0.0
C548 C 0.74157 0.05347 0.21234 0.0
H549 H 0.75623 0.93322 0.23609 0.0
H550 H 0.7701 0.00417 0.21515 0.0
C551 C 0.7209 0.05714 0.21788 0.0
C552 C 0.2555 0.72781 -0.01644 0.0
C553 C 0.24386 0.67981 -0.01018 0.0
H554 H 0.25624 0.8048 0.9673 0.0
C555 C 0.22333 0.67346 -0.01581 0.0
H556 H 0.27136 0.73401 -0.01237 0.0
C557 C 0.21467 0.71399 0.97249 0.0
C558 C 0.22633 0.76187 0.96617 0.0
H559 H 0.21394 0.63697 -0.01127 0.0
H560 H 0.19883 0.7077 0.96838 0.0
C561 C 0.24683 0.7684 0.97188 0.0
C562 C 0.48592 0.76794 0.73052 0.0
C563 C 0.50632 0.76064 0.7364 0.0
H564 H 0.4614 0.73442 0.71466 0.0
C565 C 0.51782 0.71225 0.73028 0.0
H566 H 0.47663 0.80475 0.73495 0.0
C567 C 0.5091 0.67198 0.71861 0.0
C568 C 0.48866 0.6791 0.7128 0.0
H569 H 0.53359 0.70535 0.73452 0.0
H570 H 0.51837 0.63508 0.71421 0.0
C571 C 0.47718 0.72762 0.71886 0.0
C572 C 0.25391 0.00871 0.7191 0.0
C573 C 0.24132 0.0538 0.71229 0.0
H574 H 0.25607 0.93362 0.73603 0.0
C575 C 0.22064 0.05725 0.7178 0.0
H576 H 0.26991 0.00478 0.71513 0.0
C577 C 0.21273 0.01658 0.72984 0.0
C578 C 0.22529 0.97137 0.7366 0.0
H579 H 0.21053 0.09148 0.71284 0.0
H580 H 0.19672 0.02049 0.73379 0.0
C581 C 0.24597 0.96789 0.73109 0.0
C582 C 0.48713 0.4682 0.4715 0.0
C583 C 0.50781 0.47125 0.46593 0.0
H584 H 0.46334 0.5055 0.48746 0.0
C585 C 0.5205 0.51612 0.47262 0.0
H586 H 0.47693 0.4342 0.4666 0.0
C587 C 0.51273 0.55687 0.48464 0.0
C588 C 0.49206 0.55385 0.4902 0.0
H589 H 0.53651 0.51969 0.46864 0.0
H590 H 0.52295 0.59083 0.48955 0.0
C591 C 0.47934 0.5091 0.48346 0.0
C592 C 0.72351 0.67429 0.48429 0.0
C593 C 0.74404 0.6807 0.48993 0.0
H594 H 0.699 0.70849 0.4685 0.0
C595 C 0.75565 0.72878 0.48369 0.0
H596 H 0.71414 0.63773 0.48883 0.0
C597 C 0.74696 0.76938 0.47203 0.0
C598 C 0.72647 0.76279 0.46632 0.0
H599 H 0.77151 0.73503 0.48776 0.0
H600 H 0.75635 0.80585 0.46746 0.0
C601 C 0.71483 0.71483 0.47261 0.0
C602 C 0.72095 0.55639 0.71798 0.0
C603 C 0.74164 0.55306 0.71249 0.0
H604 H 0.69704 0.5195 0.73395 0.0
C605 C 0.75424 0.50799 0.71929 0.0
H606 H 0.71083 0.5906 0.71303 0.0
C607 C 0.74632 0.46711 0.73127 0.0
C608 C 0.72563 0.4705 0.73678 0.0
H609 H 0.77025 0.50414 0.71534 0.0
H610 H 0.75643 0.43288 0.73621 0.0
C611 C 0.71305 0.51566 0.73001 0.0
C612 C 0.25606 0.22786 0.48364 0.0
C613 C 0.24463 0.17932 0.4898 0.0
H614 H 0.25652 0.30513 0.46749 0.0
C615 C 0.22415 0.17231 0.4841 0.0
H616 H 0.27188 0.23458 0.48776 0.0
C617 C 0.21535 0.21271 0.47244 0.0
C618 C 0.22681 0.26112 0.46623 0.0
H619 H 0.2149 0.13539 0.48857 0.0
H620 H 0.19955 0.20589 0.46829 0.0
C621 C 0.24726 0.26831 0.472 0.0
C622 C 0.24592 0.46609 0.23119 0.0
C623 C 0.22524 0.46973 0.23672 0.0
H624 H 0.26989 0.50285 0.21526 0.0
C625 C 0.21273 0.51508 0.22997 0.0
H626 H 0.25598 0.43171 0.23613 0.0
C627 C 0.22068 0.55574 0.21795 0.0
C628 C 0.24136 0.55215 0.21244 0.0
H629 H 0.19672 0.51912 0.23392 0.0
H630 H 0.21061 0.59009 0.21301 0.0
C631 C 0.2539 0.50689 0.21922 0.0
C632 C 0.98703 0.9666 0.47144 0.0
C633 C 0.0077 0.96965 0.46585 0.0
H634 H 0.96324 0.00399 0.4874 0.0
C635 C 0.02039 0.01459 0.47251 0.0
H636 H 0.97683 0.93254 0.46658 0.0
C637 C 0.01262 0.05542 0.48451 0.0
C638 C -0.00805 0.05242 0.49008 0.0
H639 H 0.03639 0.01817 0.46851 0.0
H640 H 0.02283 0.08945 0.48938 0.0
C641 C 0.97924 0.00758 0.48339 0.0
C642 C 0.00978 0.17409 0.71845 0.0
C643 C 0.98927 0.18035 0.71274 0.0
H644 H 0.03418 0.20833 0.7343 0.0
C645 C 0.97756 0.22823 0.71893 0.0
H646 H 0.01924 0.13769 0.71396 0.0
C647 C 0.98614 0.26876 0.7306 0.0
C648 C 0.00661 0.26232 0.73638 0.0
H649 H 0.96171 0.23437 0.71481 0.0
H650 H 0.97667 0.30507 0.73512 0.0
C651 C 0.01835 0.21456 0.73014 0.0
C652 C 0.98579 0.76757 0.23052 0.0
C653 C 0.00624 0.76075 0.23635 0.0
H654 H 0.96135 0.73365 0.21466 0.0
C655 C 0.01789 0.7128 0.23014 0.0
H656 H 0.97639 0.80403 0.23503 0.0
C657 C 0.00928 0.6725 0.21842 0.0
C658 C 0.9888 0.67915 0.21265 0.0
H659 H 0.03369 0.70628 0.23433 0.0
H660 H 0.01867 0.63595 0.21394 0.0
C661 C 0.97717 0.72721 0.21882 0.0
C662 C 0.01306 0.55651 -0.01551 0.0
C663 C -0.00763 0.55386 -0.00999 0.0
H664 H 0.0368 0.51888 0.96854 0.0
C665 C 0.97958 0.50925 -0.01671 0.0
H666 H 0.02333 0.59036 -0.01062 0.0
C667 C 0.98733 0.46815 0.97135 0.0
C668 C 0.00801 0.47085 0.96581 0.0
H669 H 0.96357 0.50592 -0.01274 0.0
H670 H 0.97707 0.43427 0.96646 0.0
C671 C 0.02078 0.51557 0.9725 0.0
C672 C 0.35852 0.34831 0.01449 0.0
C673 C 0.36277 0.40819 0.01767 0.0
H674 H 0.37064 0.26067 0.01238 0.0
C675 C 0.38347 0.42623 0.01913 0.0
H676 H 0.34277 0.33296 0.01317 0.0
C677 C 0.39945 0.38477 0.0187 0.0
C678 C 0.3951 0.32435 0.01677 0.0
H679 H 0.38731 0.47209 0.02143 0.0
H680 H 0.41514 0.3999 0.02068 0.0
C681 C 0.37453 0.30682 0.01403 0.0
C682 C 0.8747 0.80566 0.01397 0.0
C683 C 0.8952 0.82357 0.01691 0.0
H684 H 0.84287 0.83108 0.01299 0.0
C685 C 0.89935 0.88399 0.01911 0.0
H686 H 0.87097 0.7595 0.0121 0.0
C687 C 0.88324 0.92504 0.01959 0.0
C688 C 0.86261 0.90658 0.01791 0.0
H689 H 0.91497 0.8994 0.02125 0.0
H690 H 0.88692 0.97088 0.02209 0.0
C691 C 0.85857 0.84674 0.01447 0.0
C692 C 0.37531 0.8479 0.18785 0.0
C693 C 0.37103 0.90777 0.18456 0.0
H694 H 0.36328 0.76017 0.19002 0.0
C695 C 0.35032 0.92565 0.18294 0.0
H696 H 0.39108 0.83267 0.18928 0.0
C697 C 0.33438 0.88408 0.18335 0.0
C698 C 0.33878 0.8237 0.1854 0.0
H699 H 0.34644 0.97149 0.18056 0.0
H700 H 0.31869 0.89911 0.18126 0.0
C701 C 0.35935 0.8063 0.18828 0.0
C702 C 0.87473 0.34558 0.18702 0.0
C703 C 0.87044 0.40512 0.18325 0.0
H704 H 0.86276 0.25791 0.18966 0.0
C705 C 0.84975 0.42262 0.18119 0.0
H706 H 0.89049 0.33066 0.1888 0.0
C707 C 0.83385 0.38091 0.18167 0.0
C708 C 0.83828 0.32076 0.18424 0.0
H709 H 0.84586 0.4682 0.17842 0.0
H710 H 0.81819 0.39558 0.17925 0.0
C711 C 0.85882 0.30383 0.18752 0.0
C712 C 0.60816 0.51216 0.92993 0.0
C713 C 0.62727 0.54143 0.93084 0.0
H714 H 0.57531 0.52033 0.92833 0.0
C715 C 0.62744 0.60314 0.9328 0.0
H716 H 0.60745 0.46463 0.92856 0.0
C717 C 0.60896 0.63517 0.93268 0.0
C718 C 0.58993 0.60614 0.93058 0.0
H719 H 0.64188 0.62706 0.93365 0.0
H720 H 0.60968 0.68286 0.93344 0.0
C721 C 0.5897 0.54416 0.9298 0.0
C722 C 0.12736 0.10254 0.9327 0.0
C723 C 0.12712 0.04087 0.93062 0.0
H724 H 0.10971 0.18244 0.93344 0.0
C725 C 0.10798 0.01184 0.9296 0.0
H726 H 0.14183 0.12627 0.93365 0.0
C727 C 0.08956 0.04404 0.92947 0.0
C728 C 0.08986 0.10601 0.93037 0.0
H729 H 0.1072 0.96434 0.92813 0.0
H730 H 0.07515 0.02041 0.92791 0.0
C731 C 0.10892 0.13477 0.93259 0.0
C732 C 0.6244 0.13399 0.77027 0.0
C733 C 0.6435 0.10559 0.77275 0.0
H734 H 0.59153 0.1249 0.76892 0.0
C735 C 0.64393 0.04365 0.77386 0.0
H736 H 0.62352 0.18163 0.76925 0.0
C737 C 0.6256 0.01113 0.77365 0.0
C738 C 0.6064 0.03981 0.77235 0.0
H739 H 0.65838 0.0203 0.77563 0.0
H740 H 0.62646 0.96368 0.77527 0.0
C741 C 0.60604 0.10143 0.77007 0.0
C742 C 0.14319 0.5453 0.77314 0.0
C743 C 0.14281 0.60728 0.77224 0.0
H744 H 0.12564 0.46543 0.77445 0.0
C745 C 0.12372 0.63593 0.77001 0.0
H746 H 0.15763 0.52175 0.77471 0.0
C747 C 0.10532 0.60356 0.76987 0.0
C748 C 0.10564 0.54185 0.77195 0.0
H749 H 0.12287 0.68362 0.76916 0.0
H750 H 0.09082 0.6272 0.76892 0.0
C751 C 0.12481 0.51295 0.77299 0.0
C752 C 0.3749 0.80326 0.51449 0.0
C753 C 0.39542 0.82063 0.51758 0.0
H754 H 0.34314 0.82941 0.5134 0.0
C755 C 0.39971 0.88089 0.51998 0.0
H756 H 0.37106 0.75724 0.51248 0.0
C757 C 0.3837 0.92227 0.52049 0.0
C758 C 0.36304 0.90432 0.51864 0.0
H759 H 0.41535 0.8959 0.52224 0.0
H760 H 0.38749 0.96795 0.52313 0.0
C761 C 0.35887 0.84468 0.51502 0.0
C762 C 0.85844 0.34791 0.51461 0.0
C763 C 0.8627 0.40775 0.51783 0.0
H764 H 0.87052 0.26025 0.51245 0.0
C765 C 0.8834 0.42571 0.51932 0.0
H766 H 0.84267 0.33262 0.51327 0.0
C767 C 0.89937 0.38421 0.51887 0.0
C768 C 0.895 0.32382 0.5169 0.0
H769 H 0.88726 0.47154 0.52166 0.0
H770 H 0.91506 0.39927 0.52087 0.0
C771 C 0.87442 0.30637 0.51413 0.0
C772 C 0.37467 0.34419 0.68743 0.0
C773 C 0.37047 0.40382 0.68371 0.0
H774 H 0.36255 0.25669 0.69003 0.0
C775 C 0.34981 0.42166 0.68172 0.0
H776 H 0.3904 0.32901 0.68915 0.0
C777 C 0.33384 0.38019 0.6822 0.0
C778 C 0.33816 0.31996 0.68471 0.0
H779 H 0.346 0.46732 0.67899 0.0
H780 H 0.3182 0.39512 0.67983 0.0
C781 C 0.35868 0.30269 0.68794 0.0
C782 C 0.8502 0.92504 0.68307 0.0
C783 C 0.87091 0.9072 0.68467 0.0
H784 H 0.81858 0.89841 0.68143 0.0
C785 C 0.87522 0.84735 0.68795 0.0
H786 H 0.8463 0.97086 0.68069 0.0
C787 C 0.85928 0.80571 0.6884 0.0
C788 C 0.83869 0.82305 0.68554 0.0
H789 H 0.89099 0.83216 0.68937 0.0
H790 H 0.86322 0.7596 0.69014 0.0
C791 C 0.83427 0.88343 0.6835 0.0
C792 C 0.60904 0.13588 0.43273 0.0
C793 C 0.58997 0.10708 0.4306 0.0
H794 H 0.64195 0.12739 0.43372 0.0
C795 C 0.58966 0.0451 0.42978 0.0
H796 H 0.60983 0.18356 0.43351 0.0
C797 C 0.60808 0.0129 0.42991 0.0
C798 C 0.62723 0.04195 0.43085 0.0
H799 H 0.57524 0.02145 0.42829 0.0
H800 H 0.6073 0.96538 0.42851 0.0
C801 C 0.62748 0.10364 0.43285 0.0
C802 C 0.08954 0.54341 0.4298 0.0
C803 C 0.08986 0.6054 0.43058 0.0
H804 H 0.10715 0.46363 0.42858 0.0
C805 C 0.10894 0.63416 0.43268 0.0
H806 H 0.07511 0.51978 0.42834 0.0
C807 C 0.12737 0.60187 0.4328 0.0
C808 C 0.1271 0.54016 0.43085 0.0
H809 H 0.10975 0.68184 0.43343 0.0
H810 H 0.14185 0.62559 0.43365 0.0
C811 C 0.10794 0.51116 0.42994 0.0
C812 C 0.64337 0.54542 0.27345 0.0
C813 C 0.64299 0.60739 0.27248 0.0
H814 H 0.62583 0.46555 0.27478 0.0
C815 C 0.6239 0.636 0.27017 0.0
H816 H 0.65781 0.52191 0.27508 0.0
C817 C 0.60551 0.6036 0.27001 0.0
C818 C 0.60583 0.54192 0.27214 0.0
H819 H 0.62305 0.68367 0.26927 0.0
H820 H 0.59101 0.6272 0.26899 0.0
C821 C 0.625 0.51305 0.27327 0.0
C822 C 0.1247 0.01142 0.27306 0.0
C823 C 0.10552 0.04026 0.27201 0.0
H824 H 0.15752 0.02032 0.27482 0.0
C825 C 0.10518 0.10197 0.26995 0.0
H826 H 0.12555 0.9639 0.27451 0.0
C827 C 0.12357 0.1344 0.27011 0.0
C828 C 0.14267 0.10581 0.27236 0.0
H829 H 0.09067 0.12556 0.26898 0.0
H830 H 0.1227 0.18209 0.26927 0.0
C831 C 0.14307 0.04382 0.27324 0.0
loop_
_geom_bond_atom_site_label_1
_geom_bond_atom_site_label_2
_geom_bond_distance
_geom_bond_site_symmetry_2
_ccdc_geom_bond_type
O0 Cd1 2.300 . S
O0 C7 1.275 . S
Cd1 O0 2.300 . S
Cd1 O9 2.381 . S
Cd1 O10 2.378 . S
O2 Cd3 2.385 . S
O2 C7 1.255 . S
Cd3 O2 2.385 . S
Cd3 O4 2.317 . S
O4 Cd3 2.317 . S
O4 C5 1.232 . S
C5 O4 1.232 . S
C5 O6 1.218 . S
O6 C5 1.218 . S
C7 O0 1.275 . S
C7 O2 1.255 . S
C8 O9 1.258 . S
C8 O10 1.256 . S
O9 Cd1 2.381 . S
O9 C8 1.258 . S
O10 Cd1 2.378 . S
O10 C8 1.256 . S
O11 Cd12 2.300 . S
O11 C18 1.275 . S
Cd12 O11 2.300 . S
Cd12 O20 2.381 . S
Cd12 O21 2.378 . S
O13 Cd14 2.385 . S
O13 C18 1.255 . S
Cd14 O13 2.385 . S
Cd14 O15 2.317 . S
O15 Cd14 2.317 . S
O15 C16 1.232 1_545 S
C16 O15 1.232 1_565 S
C16 O17 1.218 . S
O17 C16 1.218 . S
C18 O11 1.275 . S
C18 O13 1.255 . S
C19 O20 1.258 . S
C19 O21 1.256 . S
O20 Cd12 2.381 . S
O20 C19 1.258 . S
O21 Cd12 2.378 . S
O21 C19 1.256 . S
O22 Cd23 2.300 . S
O22 C29 1.275 . S
Cd23 O22 2.300 . S
Cd23 O31 2.381 . S
Cd23 O32 2.378 . S
O24 Cd25 2.385 . S
O24 C29 1.255 . S
Cd25 O24 2.385 . S
Cd25 O26 2.317 . S
O26 Cd25 2.317 . S
O26 C27 1.232 1_545 S
C27 O26 1.232 1_565 S
C27 O28 1.218 . S
O28 C27 1.218 . S
C29 O22 1.275 . S
C29 O24 1.255 . S
C30 O31 1.258 . S
C30 O32 1.256 . S
O31 Cd23 2.381 . S
O31 C30 1.258 . S
O32 Cd23 2.378 . S
O32 C30 1.256 . S
O33 Cd34 2.300 . S
O33 C40 1.275 . S
Cd34 O33 2.300 . S
Cd34 O42 2.381 . S
Cd34 O43 2.378 . S
O35 Cd36 2.385 . S
O35 C40 1.255 . S
Cd36 O35 2.385 . S
Cd36 O37 2.317 . S
O37 Cd36 2.317 . S
O37 C38 1.232 . S
C38 O37 1.232 . S
C38 O39 1.218 . S
O39 C38 1.218 . S
C40 O33 1.275 . S
C40 O35 1.255 . S
C41 O42 1.258 . S
C41 O43 1.256 . S
O42 Cd34 2.381 . S
O42 C41 1.258 . S
O43 Cd34 2.378 . S
O43 C41 1.256 . S
O44 Cd45 2.300 . S
O44 C51 1.275 . S
Cd45 O44 2.300 . S
Cd45 O53 2.381 . S
Cd45 O54 2.378 . S
O46 Cd47 2.385 . S
O46 C51 1.255 . S
Cd47 O46 2.385 . S
Cd47 O48 2.317 . S
O48 Cd47 2.317 . S
O48 C49 1.232 . S
C49 O48 1.232 . S
C49 O50 1.218 . S
O50 C49 1.218 . S
C51 O44 1.275 . S
C51 O46 1.255 . S
C52 O53 1.258 . S
C52 O54 1.256 . S
O53 Cd45 2.381 . S
O53 C52 1.258 . S
O54 Cd45 2.378 . S
O54 C52 1.256 . S
O55 Cd56 2.300 . S
O55 C62 1.275 . S
Cd56 O55 2.300 . S
Cd56 O64 2.381 . S
Cd56 O65 2.378 . S
O57 Cd58 2.385 1_565 S
O57 C62 1.255 . S
Cd58 O57 2.385 1_545 S
Cd58 O59 2.317 . S
O59 Cd58 2.317 . S
O59 C60 1.232 . S
C60 O59 1.232 . S
C60 O61 1.218 . S
O61 C60 1.218 . S
C62 O55 1.275 . S
C62 O57 1.255 . S
C63 O64 1.258 . S
C63 O65 1.256 . S
O64 Cd56 2.381 . S
O64 C63 1.258 . S
O65 Cd56 2.378 . S
O65 C63 1.256 . S
O66 Cd67 2.300 . S
O66 C73 1.275 . S
Cd67 O66 2.300 . S
Cd67 O75 2.381 . S
Cd67 O76 2.378 . S
O68 Cd69 2.385 1_565 S
O68 C73 1.255 . S
Cd69 O68 2.385 1_545 S
Cd69 O70 2.317 . S
O70 Cd69 2.317 . S
O70 C71 1.232 . S
C71 O70 1.232 . S
C71 O72 1.218 . S
O72 C71 1.218 . S
C73 O66 1.275 . S
C73 O68 1.255 . S
C74 O75 1.258 . S
C74 O76 1.256 . S
O75 Cd67 2.381 . S
O75 C74 1.258 . S
O76 Cd67 2.378 . S
O76 C74 1.256 . S
O77 Cd78 2.300 . S
O77 C84 1.275 . S
Cd78 O77 2.300 . S
Cd78 O86 2.381 . S
Cd78 O87 2.378 . S
O79 Cd80 2.385 . S
O79 C84 1.255 . S
Cd80 O79 2.385 . S
Cd80 O81 2.317 . S
O81 Cd80 2.317 . S
O81 C82 1.232 . S
C82 O81 1.232 . S
C82 O83 1.218 . S
O83 C82 1.218 . S
C84 O77 1.275 . S
C84 O79 1.255 . S
C85 O86 1.258 . S
C85 O87 1.256 . S
O86 Cd78 2.381 . S
O86 C85 1.258 . S
O87 Cd78 2.378 . S
O87 C85 1.256 . S
O88 Cd89 2.300 . S
O88 C95 1.275 . S
Cd89 O88 2.300 . S
Cd89 O97 2.381 . S
Cd89 O98 2.378 . S
O90 Cd91 2.385 . S
O90 C95 1.255 . S
Cd91 O90 2.385 . S
Cd91 O92 2.317 . S
O92 Cd91 2.317 . S
O92 C93 1.232 . S
C93 O92 1.232 . S
C93 O94 1.218 . S
O94 C93 1.218 . S
C95 O88 1.275 . S
C95 O90 1.255 . S
C96 O97 1.258 . S
C96 O98 1.256 . S
O97 Cd89 2.381 . S
O97 C96 1.258 . S
O98 Cd89 2.378 . S
O98 C96 1.256 . S
O99 Cd100 2.300 . S
O99 C106 1.275 . S
Cd100 O99 2.300 . S
Cd100 O108 2.381 . S
Cd100 O109 2.378 . S
O101 Cd102 2.385 . S
O101 C106 1.255 . S
Cd102 O101 2.385 . S
Cd102 O103 2.317 . S
O103 Cd102 2.317 . S
O103 C104 1.232 . S
C104 O103 1.232 . S
C104 O105 1.218 . S
O105 C104 1.218 . S
C106 O99 1.275 . S
C106 O101 1.255 . S
C107 O108 1.258 . S
C107 O109 1.256 . S
O108 Cd100 2.381 . S
O108 C107 1.258 . S
O109 Cd100 2.378 . S
O109 C107 1.256 . S
O110 Cd111 2.300 . S
O110 C117 1.275 . S
Cd111 O110 2.300 . S
Cd111 O119 2.381 . S
Cd111 O120 2.378 . S
O112 Cd113 2.385 . S
O112 C117 1.255 . S
Cd113 O112 2.385 . S
Cd113 O114 2.317 . S
O114 Cd113 2.317 . S
O114 C115 1.232 . S
C115 O114 1.232 . S
C115 O116 1.218 . S
O116 C115 1.218 . S
C117 O110 1.275 . S
C117 O112 1.255 . S
C118 O119 1.258 . S
C118 O120 1.256 . S
O119 Cd111 2.381 . S
O119 C118 1.258 . S
O120 Cd111 2.378 . S
O120 C118 1.256 . S
O121 Cd122 2.300 . S
O121 C128 1.275 . S
Cd122 O121 2.300 . S
Cd122 O130 2.381 . S
Cd122 O131 2.378 . S
O123 Cd124 2.385 . S
O123 C128 1.255 . S
Cd124 O123 2.385 . S
Cd124 O125 2.317 . S
O125 Cd124 2.317 . S
O125 C126 1.232 . S
C126 O125 1.232 . S
C126 O127 1.218 . S
O127 C126 1.218 . S
C128 O121 1.275 . S
C128 O123 1.255 . S
C129 O130 1.258 . S
C129 O131 1.256 . S
O130 Cd122 2.381 . S
O130 C129 1.258 . S
O131 Cd122 2.378 . S
O131 C129 1.256 . S
O132 Cd133 2.300 . S
O132 C139 1.275 . S
Cd133 O132 2.300 . S
Cd133 O141 2.381 . S
Cd133 O142 2.378 . S
O134 Cd135 2.385 . S
O134 C139 1.255 . S
Cd135 O134 2.385 . S
Cd135 O136 2.317 . S
O136 Cd135 2.317 . S
O136 C137 1.232 . S
C137 O136 1.232 . S
C137 O138 1.218 . S
O138 C137 1.218 . S
C139 O132 1.275 . S
C139 O134 1.255 . S
C140 O141 1.258 . S
C140 O142 1.256 . S
O141 Cd133 2.381 . S
O141 C140 1.258 . S
O142 Cd133 2.378 . S
O142 C140 1.256 . S
O143 Cd144 2.300 . S
O143 C150 1.275 . S
Cd144 O143 2.300 . S
Cd144 O152 2.381 . S
Cd144 O153 2.378 . S
O145 Cd146 2.385 . S
O145 C150 1.255 . S
Cd146 O145 2.385 . S
Cd146 O147 2.317 . S
O147 Cd146 2.317 . S
O147 C148 1.232 . S
C148 O147 1.232 . S
C148 O149 1.218 . S
O149 C148 1.218 . S
C150 O143 1.275 . S
C150 O145 1.255 . S
C151 O152 1.258 . S
C151 O153 1.256 . S
O152 Cd144 2.381 . S
O152 C151 1.258 . S
O153 Cd144 2.378 . S
O153 C151 1.256 . S
O154 Cd155 2.300 . S
O154 C161 1.275 . S
Cd155 O154 2.300 . S
Cd155 O163 2.381 . S
Cd155 O164 2.378 . S
O156 Cd157 2.385 . S
O156 C161 1.255 . S
Cd157 O156 2.385 . S
Cd157 O158 2.317 . S
O158 Cd157 2.317 . S
O158 C159 1.232 . S
C159 O158 1.232 . S
C159 O160 1.218 . S
O160 C159 1.218 . S
C161 O154 1.275 . S
C161 O156 1.255 . S
C162 O163 1.258 . S
C162 O164 1.256 . S
O163 Cd155 2.381 . S
O163 C162 1.258 . S
O164 Cd155 2.378 . S
O164 C162 1.256 . S
O165 Cd166 2.300 . S
O165 C172 1.275 . S
Cd166 O165 2.300 . S
Cd166 O174 2.381 . S
Cd166 O175 2.378 . S
O167 Cd168 2.385 . S
O167 C172 1.255 . S
Cd168 O167 2.385 . S
Cd168 O169 2.317 . S
O169 Cd168 2.317 . S
O169 C170 1.232 . S
C170 O169 1.232 . S
C170 O171 1.218 . S
O171 C170 1.218 . S
C172 O165 1.275 . S
C172 O167 1.255 . S
C173 O174 1.258 . S
C173 O175 1.256 . S
O174 Cd166 2.381 . S
O174 C173 1.258 . S
O175 Cd166 2.378 . S
O175 C173 1.256 . S
O176 Cd177 2.300 . S
O176 C183 1.275 . S
Cd177 O176 2.300 . S
Cd177 O185 2.381 . S
Cd177 O186 2.378 . S
O178 Cd179 2.385 . S
O178 C183 1.255 . S
Cd179 O178 2.385 . S
Cd179 O180 2.317 . S
O180 Cd179 2.317 . S
O180 C181 1.232 . S
C181 O180 1.232 . S
C181 O182 1.218 . S
O182 C181 1.218 . S
C183 O176 1.275 . S
C183 O178 1.255 . S
C184 O185 1.258 . S
C184 O186 1.256 . S
O185 Cd177 2.381 . S
O185 C184 1.258 . S
O186 Cd177 2.378 . S
O186 C184 1.256 . S
O187 Cd188 2.300 . S
O187 C194 1.275 . S
Cd188 O187 2.300 . S
Cd188 O196 2.381 . S
Cd188 O197 2.378 . S
O189 Cd190 2.385 . S
O189 C194 1.255 . S
Cd190 O189 2.385 . S
Cd190 O191 2.317 . S
O191 Cd190 2.317 . S
O191 C192 1.232 1_545 S
C192 O191 1.232 1_565 S
C192 O193 1.218 . S
O193 C192 1.218 . S
C194 O187 1.275 . S
C194 O189 1.255 . S
C195 O196 1.258 . S
C195 O197 1.256 . S
O196 Cd188 2.381 . S
O196 C195 1.258 . S
O197 Cd188 2.378 . S
O197 C195 1.256 . S
O198 Cd199 2.300 . S
O198 C205 1.275 . S
Cd199 O198 2.300 . S
Cd199 O207 2.381 . S
Cd199 O208 2.378 . S
O200 Cd201 2.385 . S
O200 C205 1.255 . S
Cd201 O200 2.385 . S
Cd201 O202 2.317 . S
O202 Cd201 2.317 . S
O202 C203 1.232 1_545 S
C203 O202 1.232 1_565 S
C203 O204 1.218 . S
O204 C203 1.218 . S
C205 O198 1.275 . S
C205 O200 1.255 . S
C206 O207 1.258 . S
C206 O208 1.256 . S
O207 Cd199 2.381 . S
O207 C206 1.258 . S
O208 Cd199 2.378 . S
O208 C206 1.256 . S
O209 Cd210 2.300 . S
O209 C216 1.275 . S
Cd210 O209 2.300 . S
Cd210 O218 2.381 . S
Cd210 O219 2.378 . S
O211 Cd212 2.385 . S
O211 C216 1.255 . S
Cd212 O211 2.385 . S
Cd212 O213 2.317 . S
O213 Cd212 2.317 . S
O213 C214 1.232 . S
C214 O213 1.232 . S
C214 O215 1.218 . S
O215 C214 1.218 . S
C216 O209 1.275 . S
C216 O211 1.255 . S
C217 O218 1.258 . S
C217 O219 1.256 . S
O218 Cd210 2.381 . S
O218 C217 1.258 . S
O219 Cd210 2.378 . S
O219 C217 1.256 . S
O220 Cd221 2.300 . S
O220 C227 1.275 . S
Cd221 O220 2.300 . S
Cd221 O229 2.381 . S
Cd221 O230 2.378 . S
O222 Cd223 2.385 . S
O222 C227 1.255 . S
Cd223 O222 2.385 . S
Cd223 O224 2.317 . S
O224 Cd223 2.317 . S
O224 C225 1.232 . S
C225 O224 1.232 . S
C225 O226 1.218 . S
O226 C225 1.218 . S
C227 O220 1.275 . S
C227 O222 1.255 . S
C228 O229 1.258 . S
C228 O230 1.256 . S
O229 Cd221 2.381 . S
O229 C228 1.258 . S
O230 Cd221 2.378 . S
O230 C228 1.256 . S
O231 Cd232 2.300 . S
O231 C238 1.275 . S
Cd232 O231 2.300 . S
Cd232 O240 2.381 . S
Cd232 O241 2.378 . S
O233 Cd234 2.385 1_565 S
O233 C238 1.255 . S
Cd234 O233 2.385 1_545 S
Cd234 O235 2.317 . S
O235 Cd234 2.317 . S
O235 C236 1.232 . S
C236 O235 1.232 . S
C236 O237 1.218 . S
O237 C236 1.218 . S
C238 O231 1.275 . S
C238 O233 1.255 . S
C239 O240 1.258 . S
C239 O241 1.256 . S
O240 Cd232 2.381 . S
O240 C239 1.258 . S
O241 Cd232 2.378 . S
O241 C239 1.256 . S
O242 Cd243 2.300 . S
O242 C249 1.275 . S
Cd243 O242 2.300 . S
Cd243 O251 2.381 . S
Cd243 O252 2.378 . S
O244 Cd245 2.385 1_565 S
O244 C249 1.255 . S
Cd245 O244 2.385 1_545 S
Cd245 O246 2.317 . S
O246 Cd245 2.317 . S
O246 C247 1.232 . S
C247 O246 1.232 . S
C247 O248 1.218 . S
O248 C247 1.218 . S
C249 O242 1.275 . S
C249 O244 1.255 . S
C250 O251 1.258 . S
C250 O252 1.256 . S
O251 Cd243 2.381 . S
O251 C250 1.258 . S
O252 Cd243 2.378 . S
O252 C250 1.256 . S
O253 Cd254 2.300 . S
O253 C260 1.275 . S
Cd254 O253 2.300 . S
Cd254 O262 2.381 . S
Cd254 O263 2.378 . S
O255 Cd256 2.385 . S
O255 C260 1.255 . S
Cd256 O255 2.385 . S
Cd256 O257 2.317 . S
O257 Cd256 2.317 . S
O257 C258 1.232 . S
C258 O257 1.232 . S
C258 O259 1.218 . S
O259 C258 1.218 . S
C260 O253 1.275 . S
C260 O255 1.255 . S
C261 O262 1.258 . S
C261 O263 1.256 . S
O262 Cd254 2.381 . S
O262 C261 1.258 . S
O263 Cd254 2.378 . S
O263 C261 1.256 . S
O264 Cd265 2.300 . S
O264 C271 1.275 . S
Cd265 O264 2.300 . S
Cd265 O273 2.381 . S
Cd265 O274 2.378 . S
O266 Cd267 2.385 . S
O266 C271 1.255 . S
Cd267 O266 2.385 . S
Cd267 O268 2.317 . S
O268 Cd267 2.317 . S
O268 C269 1.232 . S
C269 O268 1.232 . S
C269 O270 1.218 . S
O270 C269 1.218 . S
C271 O264 1.275 . S
C271 O266 1.255 . S
C272 O273 1.258 . S
C272 O274 1.256 . S
O273 Cd265 2.381 . S
O273 C272 1.258 . S
O274 Cd265 2.378 . S
O274 C272 1.256 . S
O275 Cd276 2.300 . S
O275 C282 1.275 . S
Cd276 O275 2.300 . S
Cd276 O284 2.381 . S
Cd276 O285 2.378 . S
O277 Cd278 2.385 . S
O277 C282 1.255 . S
Cd278 O277 2.385 . S
Cd278 O279 2.317 . S
O279 Cd278 2.317 . S
O279 C280 1.232 . S
C280 O279 1.232 . S
C280 O281 1.218 . S
O281 C280 1.218 . S
C282 O275 1.275 . S
C282 O277 1.255 . S
C283 O284 1.258 . S
C283 O285 1.256 . S
O284 Cd276 2.381 . S
O284 C283 1.258 . S
O285 Cd276 2.378 . S
O285 C283 1.256 . S
O286 Cd287 2.300 . S
O286 C293 1.275 . S
Cd287 O286 2.300 . S
Cd287 O295 2.381 . S
Cd287 O296 2.378 . S
O288 Cd289 2.385 . S
O288 C293 1.255 . S
Cd289 O288 2.385 . S
Cd289 O290 2.317 . S
O290 Cd289 2.317 . S
O290 C291 1.232 . S
C291 O290 1.232 . S
C291 O292 1.218 . S
O292 C291 1.218 . S
C293 O286 1.275 . S
C293 O288 1.255 . S
C294 O295 1.258 . S
C294 O296 1.256 . S
O295 Cd287 2.381 . S
O295 C294 1.258 . S
O296 Cd287 2.378 . S
O296 C294 1.256 . S
O297 Cd298 2.300 . S
O297 C304 1.275 . S
Cd298 O297 2.300 . S
Cd298 O306 2.381 . S
Cd298 O307 2.378 . S
O299 Cd300 2.385 . S
O299 C304 1.255 . S
Cd300 O299 2.385 . S
Cd300 O301 2.317 . S
O301 Cd300 2.317 . S
O301 C302 1.232 . S
C302 O301 1.232 . S
C302 O303 1.218 . S
O303 C302 1.218 . S
C304 O297 1.275 . S
C304 O299 1.255 . S
C305 O306 1.258 . S
C305 O307 1.256 . S
O306 Cd298 2.381 . S
O306 C305 1.258 . S
O307 Cd298 2.378 . S
O307 C305 1.256 . S
O308 Cd309 2.300 . S
O308 C315 1.275 . S
Cd309 O308 2.300 . S
Cd309 O317 2.381 . S
Cd309 O318 2.378 . S
O310 Cd311 2.385 . S
O310 C315 1.255 . S
Cd311 O310 2.385 . S
Cd311 O312 2.317 . S
O312 Cd311 2.317 . S
O312 C313 1.232 . S
C313 O312 1.232 . S
C313 O314 1.218 . S
O314 C313 1.218 . S
C315 O308 1.275 . S
C315 O310 1.255 . S
C316 O317 1.258 . S
C316 O318 1.256 . S
O317 Cd309 2.381 . S
O317 C316 1.258 . S
O318 Cd309 2.378 . S
O318 C316 1.256 . S
O319 Cd320 2.300 . S
O319 C326 1.275 . S
Cd320 O319 2.300 . S
Cd320 O328 2.381 . S
Cd320 O329 2.378 . S
O321 Cd322 2.385 . S
O321 C326 1.255 . S
Cd322 O321 2.385 . S
Cd322 O323 2.317 . S
O323 Cd322 2.317 . S
O323 C324 1.232 . S
C324 O323 1.232 . S
C324 O325 1.218 . S
O325 C324 1.218 . S
C326 O319 1.275 . S
C326 O321 1.255 . S
C327 O328 1.258 . S
C327 O329 1.256 . S
O328 Cd320 2.381 . S
O328 C327 1.258 . S
O329 Cd320 2.378 . S
O329 C327 1.256 . S
O330 Cd331 2.300 . S
O330 C337 1.275 . S
Cd331 O330 2.300 . S
Cd331 O339 2.381 . S
Cd331 O340 2.378 . S
O332 Cd333 2.385 . S
O332 C337 1.255 . S
Cd333 O332 2.385 . S
Cd333 O334 2.317 . S
O334 Cd333 2.317 . S
O334 C335 1.232 . S
C335 O334 1.232 . S
C335 O336 1.218 . S
O336 C335 1.218 . S
C337 O330 1.275 . S
C337 O332 1.255 . S
C338 O339 1.258 . S
C338 O340 1.256 . S
O339 Cd331 2.381 . S
O339 C338 1.258 . S
O340 Cd331 2.378 . S
O340 C338 1.256 . S
O341 Cd342 2.300 . S
O341 C348 1.275 . S
Cd342 O341 2.300 . S
Cd342 O350 2.381 . S
Cd342 O351 2.378 . S
O343 Cd344 2.385 . S
O343 C348 1.255 . S
Cd344 O343 2.385 . S
Cd344 O345 2.317 . S
O345 Cd344 2.317 . S
O345 C346 1.232 . S
C346 O345 1.232 . S
C346 O347 1.218 . S
O347 C346 1.218 . S
C348 O341 1.275 . S
C348 O343 1.255 . S
C349 O350 1.258 . S
C349 O351 1.256 . S
O350 Cd342 2.381 . S
O350 C349 1.258 . S
O351 Cd342 2.378 . S
O351 C349 1.256 . S
C352 C353 1.387 . S
C352 H356 0.950 . S
C352 C361 1.390 . S
C353 C352 1.387 . S
C353 C355 1.387 . S
H354 C361 0.950 . S
C355 C353 1.387 . S
C355 C357 1.390 . S
C355 H359 0.950 . S
H356 C352 0.950 . S
C357 C355 1.390 . S
C357 C358 1.387 . S
C357 H360 0.950 . S
C358 C357 1.387 . S
C358 C361 1.387 . S
H359 C355 0.950 . S
H360 C357 0.950 . S
C361 C352 1.390 . S
C361 H354 0.950 . S
C361 C358 1.387 . S
C362 C363 1.387 . S
C362 H366 0.950 . S
C362 C371 1.390 . S
C363 C362 1.387 . S
C363 C365 1.387 . S
H364 C371 0.950 . S
C365 C363 1.387 . S
C365 C367 1.390 . S
C365 H369 0.950 . S
H366 C362 0.950 . S
C367 C365 1.390 . S
C367 C368 1.387 . S
C367 H370 0.950 . S
C368 C367 1.387 . S
C368 C371 1.387 . S
H369 C365 0.950 . S
H370 C367 0.950 . S
C371 C362 1.390 . S
C371 H364 0.950 . S
C371 C368 1.387 . S
C372 C373 1.387 . S
C372 H376 0.950 . S
C372 C381 1.390 . S
C373 C372 1.387 . S
C373 C375 1.387 . S
H374 C381 0.950 . S
C375 C373 1.387 . S
C375 C377 1.390 . S
C375 H379 0.950 . S
H376 C372 0.950 . S
C377 C375 1.390 . S
C377 C378 1.387 . S
C377 H380 0.950 . S
C378 C377 1.387 . S
C378 C381 1.387 . S
H379 C375 0.950 . S
H380 C377 0.950 . S
C381 C372 1.390 . S
C381 H374 0.950 . S
C381 C378 1.387 . S
C382 C383 1.387 . S
C382 H386 0.950 . S
C382 C391 1.390 . S
C383 C382 1.387 . S
C383 C385 1.387 . S
H384 C391 0.950 . S
C385 C383 1.387 . S
C385 C387 1.390 . S
C385 H389 0.950 . S
H386 C382 0.950 . S
C387 C385 1.390 . S
C387 C388 1.387 . S
C387 H390 0.950 . S
C388 C387 1.387 . S
C388 C391 1.387 . S
H389 C385 0.950 . S
H390 C387 0.950 . S
C391 C382 1.390 . S
C391 H384 0.950 . S
C391 C388 1.387 . S
C392 C393 1.387 . S
C392 H396 0.950 . S
C392 C401 1.390 . S
C393 C392 1.387 . S
C393 C395 1.387 . S
H394 C401 0.950 . S
C395 C393 1.387 . S
C395 C397 1.390 . S
C395 H399 0.950 . S
H396 C392 0.950 . S
C397 C395 1.390 . S
C397 C398 1.387 . S
C397 H400 0.950 . S
C398 C397 1.387 . S
C398 C401 1.387 . S
H399 C395 0.950 . S
H400 C397 0.950 . S
C401 C392 1.390 . S
C401 H394 0.950 . S
C401 C398 1.387 . S
C402 C403 1.387 . S
C402 H406 0.950 . S
C402 C411 1.390 . S
C403 C402 1.387 . S
C403 C405 1.387 . S
H404 C411 0.950 . S
C405 C403 1.387 . S
C405 C407 1.390 . S
C405 H409 0.950 . S
H406 C402 0.950 . S
C407 C405 1.390 . S
C407 C408 1.387 . S
C407 H410 0.950 . S
C408 C407 1.387 . S
C408 C411 1.387 . S
H409 C405 0.950 . S
H410 C407 0.950 . S
C411 C402 1.390 . S
C411 H404 0.950 . S
C411 C408 1.387 . S
C412 C413 1.387 . S
C412 H416 0.950 . S
C412 C421 1.390 . S
C413 C412 1.387 . S
C413 C415 1.387 . S
H414 C421 0.950 . S
C415 C413 1.387 . S
C415 C417 1.390 . S
C415 H419 0.950 . S
H416 C412 0.950 . S
C417 C415 1.390 . S
C417 C418 1.387 . S
C417 H420 0.950 . S
C418 C417 1.387 . S
C418 C421 1.387 . S
H419 C415 0.950 . S
H420 C417 0.950 . S
C421 C412 1.390 . S
C421 H414 0.950 . S
C421 C418 1.387 . S
C422 C423 1.387 . S
C422 H426 0.950 . S
C422 C431 1.390 . S
C423 C422 1.387 . S
C423 C425 1.387 . S
H424 C431 0.950 . S
C425 C423 1.387 . S
C425 C427 1.390 . S
C425 H429 0.950 . S
H426 C422 0.950 . S
C427 C425 1.390 . S
C427 C428 1.387 . S
C427 H430 0.950 . S
C428 C427 1.387 . S
C428 C431 1.387 . S
H429 C425 0.950 . S
H430 C427 0.950 . S
C431 C422 1.390 . S
C431 H424 0.950 . S
C431 C428 1.387 . S
C432 C433 1.387 . S
C432 H436 0.950 . S
C432 C441 1.390 . S
C433 C432 1.387 . S
C433 C435 1.387 . S
H434 C441 0.950 . S
C435 C433 1.387 . S
C435 C437 1.390 . S
C435 H439 0.950 . S
H436 C432 0.950 . S
C437 C435 1.390 . S
C437 C438 1.387 . S
C437 H440 0.950 . S
C438 C437 1.387 . S
C438 C441 1.387 . S
H439 C435 0.950 . S
H440 C437 0.950 . S
C441 C432 1.390 . S
C441 H434 0.950 . S
C441 C438 1.387 . S
C442 C443 1.387 . S
C442 H446 0.950 . S
C442 C451 1.390 . S
C443 C442 1.387 . S
C443 C445 1.387 . S
H444 C451 0.950 . S
C445 C443 1.387 . S
C445 C447 1.390 . S
C445 H449 0.950 . S
H446 C442 0.950 . S
C447 C445 1.390 . S
C447 C448 1.387 . S
C447 H450 0.950 . S
C448 C447 1.387 . S
C448 C451 1.387 . S
H449 C445 0.950 . S
H450 C447 0.950 . S
C451 C442 1.390 . S
C451 H444 0.950 . S
C451 C448 1.387 . S
C452 C453 1.387 . S
C452 H456 0.950 . S
C452 C461 1.390 . S
C453 C452 1.387 . S
C453 C455 1.387 . S
H454 C461 0.950 . S
C455 C453 1.387 . S
C455 C457 1.390 . S
C455 H459 0.950 . S
H456 C452 0.950 . S
C457 C455 1.390 . S
C457 C458 1.387 . S
C457 H460 0.950 . S
C458 C457 1.387 . S
C458 C461 1.387 . S
H459 C455 0.950 . S
H460 C457 0.950 . S
C461 C452 1.390 . S
C461 H454 0.950 . S
C461 C458 1.387 . S
C462 C463 1.387 . S
C462 H466 0.950 . S
C462 C471 1.390 . S
C463 C462 1.387 . S
C463 C465 1.387 . S
H464 C471 0.950 . S
C465 C463 1.387 . S
C465 C467 1.390 . S
C465 H469 0.950 . S
H466 C462 0.950 . S
C467 C465 1.390 . S
C467 C468 1.387 . S
C467 H470 0.950 . S
C468 C467 1.387 . S
C468 C471 1.387 . S
H469 C465 0.950 . S
H470 C467 0.950 . S
C471 C462 1.390 . S
C471 H464 0.950 . S
C471 C468 1.387 . S
C472 C473 1.387 . S
C472 H476 0.950 . S
C472 C481 1.390 . S
C473 C472 1.387 . S
C473 C475 1.387 . S
H474 C481 0.950 . S
C475 C473 1.387 . S
C475 C477 1.390 . S
C475 H479 0.950 . S
H476 C472 0.950 . S
C477 C475 1.390 . S
C477 C478 1.387 . S
C477 H480 0.950 . S
C478 C477 1.387 . S
C478 C481 1.387 . S
H479 C475 0.950 . S
H480 C477 0.950 . S
C481 C472 1.390 . S
C481 H474 0.950 . S
C481 C478 1.387 . S
C482 C483 1.387 . S
C482 H486 0.950 . S
C482 C491 1.390 . S
C483 C482 1.387 . S
C483 C485 1.387 . S
H484 C491 0.950 . S
C485 C483 1.387 . S
C485 C487 1.390 . S
C485 H489 0.950 . S
H486 C482 0.950 . S
C487 C485 1.390 . S
C487 C488 1.387 . S
C487 H490 0.950 . S
C488 C487 1.387 . S
C488 C491 1.387 . S
H489 C485 0.950 . S
H490 C487 0.950 . S
C491 C482 1.390 . S
C491 H484 0.950 . S
C491 C488 1.387 . S
C492 C493 1.387 . S
C492 H496 0.950 . S
C492 C501 1.390 . S
C493 C492 1.387 . S
C493 C495 1.387 . S
H494 C501 0.950 . S
C495 C493 1.387 . S
C495 C497 1.390 . S
C495 H499 0.950 . S
H496 C492 0.950 . S
C497 C495 1.390 . S
C497 C498 1.387 . S
C497 H500 0.950 . S
C498 C497 1.387 . S
C498 C501 1.387 . S
H499 C495 0.950 . S
H500 C497 0.950 . S
C501 C492 1.390 . S
C501 H494 0.950 . S
C501 C498 1.387 . S
C502 C503 1.387 . S
C502 H506 0.950 . S
C502 C511 1.390 . S
C503 C502 1.387 . S
C503 C505 1.387 . S
H504 C511 0.950 . S
C505 C503 1.387 . S
C505 C507 1.390 . S
C505 H509 0.950 . S
H506 C502 0.950 . S
C507 C505 1.390 . S
C507 C508 1.387 . S
C507 H510 0.950 . S
C508 C507 1.387 . S
C508 C511 1.387 . S
H509 C505 0.950 . S
H510 C507 0.950 . S
C511 C502 1.390 . S
C511 H504 0.950 . S
C511 C508 1.387 . S
C512 C513 1.387 1_565 S
C512 H516 0.950 . S
C512 C521 1.401 . S
C513 C512 1.387 1_545 S
C513 C515 1.377 1_554 S
H514 C521 0.950 . S
C515 C513 1.377 1_556 S
C515 C517 1.401 . S
C515 H519 0.950 . S
H516 C512 0.950 . S
C517 C515 1.401 . S
C517 C518 1.387 1_545 S
C517 H520 0.950 . S
C518 C517 1.387 1_565 S
C518 C521 1.377 1_556 S
H519 C515 0.950 . S
H520 C517 0.950 . S
C521 C512 1.401 . S
C521 H514 0.950 . S
C521 C518 1.377 1_554 S
C522 C523 1.387 1_556 S
C522 H526 0.950 . S
C522 C531 1.390 . S
C523 C522 1.387 1_554 S
C523 C525 1.387 . S
H524 C531 0.950 . S
C525 C523 1.387 . S
C525 C527 1.390 . S
C525 H529 0.950 . S
H526 C522 0.950 . S
C527 C525 1.390 . S
C527 C528 1.387 1_554 S
C527 H530 0.950 . S
C528 C527 1.387 1_556 S
C528 C531 1.387 . S
H529 C525 0.950 . S
H530 C527 0.950 . S
C531 C522 1.390 . S
C531 H524 0.950 . S
C531 C528 1.387 . S
C532 C533 1.387 . S
C532 H536 0.950 . S
C532 C541 1.390 . S
C533 C532 1.387 . S
C533 C535 1.387 . S
H534 C541 0.950 . S
C535 C533 1.387 . S
C535 C537 1.390 . S
C535 H539 0.950 . S
H536 C532 0.950 . S
C537 C535 1.390 . S
C537 C538 1.387 . S
C537 H540 0.950 . S
C538 C537 1.387 . S
C538 C541 1.387 . S
H539 C535 0.950 . S
H540 C537 0.950 . S
C541 C532 1.390 . S
C541 H534 0.950 . S
C541 C538 1.387 . S
C542 C543 1.387 1_545 S
C542 H546 0.950 . S
C542 C551 1.390 . S
C543 C542 1.387 1_565 S
C543 C545 1.387 . S
H544 C551 0.950 . S
C545 C543 1.387 . S
C545 C547 1.390 . S
C545 H549 0.950 . S
H546 C542 0.950 . S
C547 C545 1.390 . S
C547 C548 1.387 1_565 S
C547 H550 0.950 . S
C548 C547 1.387 1_545 S
C548 C551 1.387 . S
H549 C545 0.950 . S
H550 C547 0.950 . S
C551 C542 1.390 . S
C551 H544 0.950 . S
C551 C548 1.387 . S
C552 C553 1.387 1_556 S
C552 H556 0.950 . S
C552 C561 1.390 . S
C553 C552 1.387 1_554 S
C553 C555 1.387 . S
H554 C561 0.950 . S
C555 C553 1.387 . S
C555 C557 1.390 . S
C555 H559 0.950 . S
H556 C552 0.950 . S
C557 C555 1.390 . S
C557 C558 1.387 1_554 S
C557 H560 0.950 . S
C558 C557 1.387 1_556 S
C558 C561 1.387 . S
H559 C555 0.950 . S
H560 C557 0.950 . S
C561 C552 1.390 . S
C561 H554 0.950 . S
C561 C558 1.387 . S
C562 C563 1.387 . S
C562 H566 0.950 . S
C562 C571 1.390 . S
C563 C562 1.387 . S
C563 C565 1.387 . S
H564 C571 0.950 . S
C565 C563 1.387 . S
C565 C567 1.390 . S
C565 H569 0.950 . S
H566 C562 0.950 . S
C567 C565 1.390 . S
C567 C568 1.387 . S
C567 H570 0.950 . S
C568 C567 1.387 . S
C568 C571 1.387 . S
H569 C565 0.950 . S
H570 C567 0.950 . S
C571 C562 1.390 . S
C571 H564 0.950 . S
C571 C568 1.387 . S
C572 C573 1.387 1_565 S
C572 H576 0.950 . S
C572 C581 1.390 . S
C573 C572 1.387 1_545 S
C573 C575 1.387 . S
H574 C581 0.950 . S
C575 C573 1.387 . S
C575 C577 1.390 . S
C575 H579 0.950 . S
H576 C572 0.950 . S
C577 C575 1.390 . S
C577 C578 1.387 1_545 S
C577 H580 0.950 . S
C578 C577 1.387 1_565 S
C578 C581 1.387 . S
H579 C575 0.950 . S
H580 C577 0.950 . S
C581 C572 1.390 . S
C581 H574 0.950 . S
C581 C578 1.387 . S
C582 C583 1.387 . S
C582 H586 0.950 . S
C582 C591 1.390 . S
C583 C582 1.387 . S
C583 C585 1.387 . S
H584 C591 0.950 . S
C585 C583 1.387 . S
C585 C587 1.390 . S
C585 H589 0.950 . S
H586 C582 0.950 . S
C587 C585 1.390 . S
C587 C588 1.387 . S
C587 H590 0.950 . S
C588 C587 1.387 . S
C588 C591 1.387 . S
H589 C585 0.950 . S
H590 C587 0.950 . S
C591 C582 1.390 . S
C591 H584 0.950 . S
C591 C588 1.387 . S
C592 C593 1.387 . S
C592 H596 0.950 . S
C592 C601 1.390 . S
C593 C592 1.387 . S
C593 C595 1.387 . S
H594 C601 0.950 . S
C595 C593 1.387 . S
C595 C597 1.390 . S
C595 H599 0.950 . S
H596 C592 0.950 . S
C597 C595 1.390 . S
C597 C598 1.387 . S
C597 H600 0.950 . S
C598 C597 1.387 . S
C598 C601 1.387 . S
H599 C595 0.950 . S
H600 C597 0.950 . S
C601 C592 1.390 . S
C601 H594 0.950 . S
C601 C598 1.387 . S
C602 C603 1.387 . S
C602 H606 0.950 . S
C602 C611 1.390 . S
C603 C602 1.387 . S
C603 C605 1.387 . S
H604 C611 0.950 . S
C605 C603 1.387 . S
C605 C607 1.390 . S
C605 H609 0.950 . S
H606 C602 0.950 . S
C607 C605 1.390 . S
C607 C608 1.387 . S
C607 H610 0.950 . S
C608 C607 1.387 . S
C608 C611 1.387 . S
H609 C605 0.950 . S
H610 C607 0.950 . S
C611 C602 1.390 . S
C611 H604 0.950 . S
C611 C608 1.387 . S
C612 C613 1.387 . S
C612 H616 0.950 . S
C612 C621 1.390 . S
C613 C612 1.387 . S
C613 C615 1.387 . S
H614 C621 0.950 . S
C615 C613 1.387 . S
C615 C617 1.390 . S
C615 H619 0.950 . S
H616 C612 0.950 . S
C617 C615 1.390 . S
C617 C618 1.387 . S
C617 H620 0.950 . S
C618 C617 1.387 . S
C618 C621 1.387 . S
H619 C615 0.950 . S
H620 C617 0.950 . S
C621 C612 1.390 . S
C621 H614 0.950 . S
C621 C618 1.387 . S
C622 C623 1.387 . S
C622 H626 0.950 . S
C622 C631 1.390 . S
C623 C622 1.387 . S
C623 C625 1.387 . S
H624 C631 0.950 . S
C625 C623 1.387 . S
C625 C627 1.390 . S
C625 H629 0.950 . S
H626 C622 0.950 . S
C627 C625 1.390 . S
C627 C628 1.387 . S
C627 H630 0.950 . S
C628 C627 1.387 . S
C628 C631 1.387 . S
H629 C625 0.950 . S
H630 C627 0.950 . S
C631 C622 1.390 . S
C631 H624 0.950 . S
C631 C628 1.387 . S
C632 C633 1.387 . S
C632 H636 0.950 . S
C632 C641 1.390 1_455 S
C633 C632 1.387 . S
C633 C635 1.387 1_565 S
H634 C641 0.950 . S
C635 C633 1.387 1_545 S
C635 C637 1.390 1_455 S
C635 H639 0.950 . S
H636 C632 0.950 . S
C637 C635 1.390 1_655 S
C637 C638 1.387 . S
C637 H640 0.950 . S
C638 C637 1.387 . S
C638 C641 1.387 1_545 S
H639 C635 0.950 . S
H640 C637 0.950 . S
C641 C632 1.390 1_655 S
C641 H634 0.950 . S
C641 C638 1.387 1_565 S
C642 C643 1.387 1_455 S
C642 H646 0.950 . S
C642 C651 1.390 . S
C643 C642 1.387 1_655 S
C643 C645 1.387 . S
H644 C651 0.950 . S
C645 C643 1.387 . S
C645 C647 1.390 . S
C645 H649 0.950 . S
H646 C642 0.950 . S
C647 C645 1.390 . S
C647 C648 1.387 1_655 S
C647 H650 0.950 . S
C648 C647 1.387 1_455 S
C648 C651 1.387 . S
H649 C645 0.950 . S
H650 C647 0.950 . S
C651 C642 1.390 . S
C651 H644 0.950 . S
C651 C648 1.387 . S
C652 C653 1.387 . S
C652 H656 0.950 . S
C652 C661 1.390 1_455 S
C653 C652 1.387 . S
C653 C655 1.387 . S
H654 C661 0.950 . S
C655 C653 1.387 . S
C655 C657 1.390 1_455 S
C655 H659 0.950 . S
H656 C652 0.950 . S
C657 C655 1.390 1_655 S
C657 C658 1.387 . S
C657 H660 0.950 . S
C658 C657 1.387 . S
C658 C661 1.387 . S
H659 C655 0.950 . S
H660 C657 0.950 . S
C661 C652 1.390 1_655 S
C661 H654 0.950 . S
C661 C658 1.387 . S
C662 C663 1.387 1_455 S
C662 H666 0.950 . S
C662 C671 1.390 1_554 S
C663 C662 1.387 1_655 S
C663 C665 1.387 . S
H664 C671 0.950 . S
C665 C663 1.387 . S
C665 C667 1.390 1_554 S
C665 H669 0.950 . S
H666 C662 0.950 . S
C667 C665 1.390 1_556 S
C667 C668 1.387 1_655 S
C667 H670 0.950 . S
C668 C667 1.387 1_455 S
C668 C671 1.387 . S
H669 C665 0.950 . S
H670 C667 0.950 . S
C671 C662 1.390 1_556 S
C671 H664 0.950 . S
C671 C668 1.387 . S
C672 C673 1.387 . S
C672 H676 0.950 . S
C672 C681 1.390 . S
C673 C672 1.387 . S
C673 C675 1.387 . S
H674 C681 0.950 . S
C675 C673 1.387 . S
C675 C677 1.390 . S
C675 H679 0.950 . S
H676 C672 0.950 . S
C677 C675 1.390 . S
C677 C678 1.387 . S
C677 H680 0.950 . S
C678 C677 1.387 . S
C678 C681 1.387 . S
H679 C675 0.950 . S
H680 C677 0.950 . S
C681 C672 1.390 . S
C681 H674 0.950 . S
C681 C678 1.387 . S
C682 C683 1.387 . S
C682 H686 0.950 . S
C682 C691 1.390 . S
C683 C682 1.387 . S
C683 C685 1.387 . S
H684 C691 0.950 . S
C685 C683 1.387 . S
C685 C687 1.390 . S
C685 H689 0.950 . S
H686 C682 0.950 . S
C687 C685 1.390 . S
C687 C688 1.387 . S
C687 H690 0.950 . S
C688 C687 1.387 . S
C688 C691 1.387 . S
H689 C685 0.950 . S
H690 C687 0.950 . S
C691 C682 1.390 . S
C691 H684 0.950 . S
C691 C688 1.387 . S
C692 C693 1.387 . S
C692 H696 0.950 . S
C692 C701 1.390 . S
C693 C692 1.387 . S
C693 C695 1.387 . S
H694 C701 0.950 . S
C695 C693 1.387 . S
C695 C697 1.390 . S
C695 H699 0.950 . S
H696 C692 0.950 . S
C697 C695 1.390 . S
C697 C698 1.387 . S
C697 H700 0.950 . S
C698 C697 1.387 . S
C698 C701 1.387 . S
H699 C695 0.950 . S
H700 C697 0.950 . S
C701 C692 1.390 . S
C701 H694 0.950 . S
C701 C698 1.387 . S
C702 C703 1.387 . S
C702 H706 0.950 . S
C702 C711 1.390 . S
C703 C702 1.387 . S
C703 C705 1.387 . S
H704 C711 0.950 . S
C705 C703 1.387 . S
C705 C707 1.390 . S
C705 H709 0.950 . S
H706 C702 0.950 . S
C707 C705 1.390 . S
C707 C708 1.387 . S
C707 H710 0.950 . S
C708 C707 1.387 . S
C708 C711 1.387 . S
H709 C705 0.950 . S
H710 C707 0.950 . S
C711 C702 1.390 . S
C711 H704 0.950 . S
C711 C708 1.387 . S
C712 C713 1.387 . S
C712 H716 0.950 . S
C712 C721 1.390 . S
C713 C712 1.387 . S
C713 C715 1.387 . S
H714 C721 0.950 . S
C715 C713 1.387 . S
C715 C717 1.390 . S
C715 H719 0.950 . S
H716 C712 0.950 . S
C717 C715 1.390 . S
C717 C718 1.387 . S
C717 H720 0.950 . S
C718 C717 1.387 . S
C718 C721 1.387 . S
H719 C715 0.950 . S
H720 C717 0.950 . S
C721 C712 1.390 . S
C721 H714 0.950 . S
C721 C718 1.387 . S
C722 C723 1.387 . S
C722 H726 0.950 . S
C722 C731 1.390 . S
C723 C722 1.387 . S
C723 C725 1.387 . S
H724 C731 0.950 . S
C725 C723 1.387 . S
C725 C727 1.390 . S
C725 H729 0.950 . S
H726 C722 0.950 . S
C727 C725 1.390 . S
C727 C728 1.387 . S
C727 H730 0.950 . S
C728 C727 1.387 . S
C728 C731 1.387 . S
H729 C725 0.950 . S
H730 C727 0.950 . S
C731 C722 1.390 . S
C731 H724 0.950 . S
C731 C728 1.387 . S
C732 C733 1.387 . S
C732 H736 0.950 . S
C732 C741 1.390 . S
C733 C732 1.387 . S
C733 C735 1.387 . S
H734 C741 0.950 . S
C735 C733 1.387 . S
C735 C737 1.390 . S
C735 H739 0.950 . S
H736 C732 0.950 . S
C737 C735 1.390 . S
C737 C738 1.387 . S
C737 H740 0.950 . S
C738 C737 1.387 . S
C738 C741 1.387 . S
H739 C735 0.950 . S
H740 C737 0.950 . S
C741 C732 1.390 . S
C741 H734 0.950 . S
C741 C738 1.387 . S
C742 C743 1.387 . S
C742 H746 0.950 . S
C742 C751 1.390 . S
C743 C742 1.387 . S
C743 C745 1.387 . S
H744 C751 0.950 . S
C745 C743 1.387 . S
C745 C747 1.390 . S
C745 H749 0.950 . S
H746 C742 0.950 . S
C747 C745 1.390 . S
C747 C748 1.387 . S
C747 H750 0.950 . S
C748 C747 1.387 . S
C748 C751 1.387 . S
H749 C745 0.950 . S
H750 C747 0.950 . S
C751 C742 1.390 . S
C751 H744 0.950 . S
C751 C748 1.387 . S
C752 C753 1.387 . S
C752 H756 0.950 . S
C752 C761 1.390 . S
C753 C752 1.387 . S
C753 C755 1.387 . S
H754 C761 0.950 . S
C755 C753 1.387 . S
C755 C757 1.390 . S
C755 H759 0.950 . S
H756 C752 0.950 . S
C757 C755 1.390 . S
C757 C758 1.387 . S
C757 H760 0.950 . S
C758 C757 1.387 . S
C758 C761 1.387 . S
H759 C755 0.950 . S
H760 C757 0.950 . S
C761 C752 1.390 . S
C761 H754 0.950 . S
C761 C758 1.387 . S
C762 C763 1.387 . S
C762 H766 0.950 . S
C762 C771 1.390 . S
C763 C762 1.387 . S
C763 C765 1.387 . S
H764 C771 0.950 . S
C765 C763 1.387 . S
C765 C767 1.390 . S
C765 H769 0.950 . S
H766 C762 0.950 . S
C767 C765 1.390 . S
C767 C768 1.387 . S
C767 H770 0.950 . S
C768 C767 1.387 . S
C768 C771 1.387 . S
H769 C765 0.950 . S
H770 C767 0.950 . S
C771 C762 1.390 . S
C771 H764 0.950 . S
C771 C768 1.387 . S
C772 C773 1.387 . S
C772 H776 0.950 . S
C772 C781 1.390 . S
C773 C772 1.387 . S
C773 C775 1.387 . S
H774 C781 0.950 . S
C775 C773 1.387 . S
C775 C777 1.390 . S
C775 H779 0.950 . S
H776 C772 0.950 . S
C777 C775 1.390 . S
C777 C778 1.387 . S
C777 H780 0.950 . S
C778 C777 1.387 . S
C778 C781 1.387 . S
H779 C775 0.950 . S
H780 C777 0.950 . S
C781 C772 1.390 . S
C781 H774 0.950 . S
C781 C778 1.387 . S
C782 C783 1.387 . S
C782 H786 0.950 . S
C782 C791 1.390 . S
C783 C782 1.387 . S
C783 C785 1.387 . S
H784 C791 0.950 . S
C785 C783 1.387 . S
C785 C787 1.390 . S
C785 H789 0.950 . S
H786 C782 0.950 . S
C787 C785 1.390 . S
C787 C788 1.387 . S
C787 H790 0.950 . S
C788 C787 1.387 . S
C788 C791 1.387 . S
H789 C785 0.950 . S
H790 C787 0.950 . S
C791 C782 1.390 . S
C791 H784 0.950 . S
C791 C788 1.387 . S
C792 C793 1.387 . S
C792 H796 0.950 . S
C792 C801 1.390 . S
C793 C792 1.387 . S
C793 C795 1.387 . S
H794 C801 0.950 . S
C795 C793 1.387 . S
C795 C797 1.390 . S
C795 H799 0.950 . S
H796 C792 0.950 . S
C797 C795 1.390 . S
C797 C798 1.387 . S
C797 H800 0.950 . S
C798 C797 1.387 . S
C798 C801 1.387 . S
H799 C795 0.950 . S
H800 C797 0.950 . S
C801 C792 1.390 . S
C801 H794 0.950 . S
C801 C798 1.387 . S
C802 C803 1.387 . S
C802 H806 0.950 . S
C802 C811 1.390 . S
C803 C802 1.387 . S
C803 C805 1.387 . S
H804 C811 0.950 . S
C805 C803 1.387 . S
C805 C807 1.390 . S
C805 H809 0.950 . S
H806 C802 0.950 . S
C807 C805 1.390 . S
C807 C808 1.387 . S
C807 H810 0.950 . S
C808 C807 1.387 . S
C808 C811 1.387 . S
H809 C805 0.950 . S
H810 C807 0.950 . S
C811 C802 1.390 . S
C811 H804 0.950 . S
C811 C808 1.387 . S
C812 C813 1.387 . S
C812 H816 0.950 . S
C812 C821 1.390 . S
C813 C812 1.387 . S
C813 C815 1.387 . S
H814 C821 0.950 . S
C815 C813 1.387 . S
C815 C817 1.390 . S
C815 H819 0.950 . S
H816 C812 0.950 . S
C817 C815 1.390 . S
C817 C818 1.387 . S
C817 H820 0.950 . S
C818 C817 1.387 . S
C818 C821 1.387 . S
H819 C815 0.950 . S
H820 C817 0.950 . S
C821 C812 1.390 . S
C821 H814 0.950 . S
C821 C818 1.387 . S
C822 C823 1.387 . S
C822 H826 0.950 . S
C822 C831 1.390 . S
C823 C822 1.387 . S
C823 C825 1.387 . S
H824 C831 0.950 . S
C825 C823 1.387 . S
C825 C827 1.390 . S
C825 H829 0.950 . S
H826 C822 0.950 . S
C827 C825 1.390 . S
C827 C828 1.387 . S
C827 H830 0.950 . S
C828 C827 1.387 . S
C828 C831 1.387 . S
H829 C825 0.950 . S
H830 C827 0.950 . S
C831 C822 1.390 . S
C831 H824 0.950 . S
C831 C828 1.387 . S
C353 C7 1.457 . S
C358 C29 1.457 . S
C363 C40 1.463 . S
C368 C18 1.463 . S
C373 C51 1.457 . S
C378 C73 1.459 . S
C383 C62 1.460 . S
C388 C84 1.460 . S
C393 C95 1.457 . S
C398 C117 1.457 . S
C403 C106 1.463 . S
C408 C128 1.463 . S
C413 C139 1.458 . S
C418 C161 1.458 . S
C423 C172 1.460 . S
C428 C150 1.460 . S
C433 C183 1.460 . S
C438 C205 1.460 . S
C443 C194 1.460 . S
C448 C216 1.460 . S
C453 C249 1.458 . S
C458 C227 1.458 . S
C463 C238 1.460 . S
C468 C260 1.460 . S
C473 C293 1.457 . S
C478 C271 1.457 . S
C483 C282 1.460 . S
C488 C304 1.460 . S
C493 C315 1.458 . S
C498 C337 1.458 . S
C503 C348 1.460 . S
C508 C326 1.460 . S
C513 C8 1.490 . S
C518 C52 1.489 . S
C523 C19 1.491 . S
C528 C327 1.491 . S
C533 C162 1.490 . S
C538 C30 1.491 . S
C543 C261 1.491 . S
C548 C41 1.492 . S
C553 C283 1.491 . S
C558 C63 1.490 . S
C563 C74 1.489 . S
C568 C118 1.491 . S
C573 C217 1.492 . S
C578 C85 1.489 . S
C583 C140 1.489 . S
C588 C96 1.490 . S
C593 C107 1.492 . S
C598 C239 1.490 . S
C603 C129 1.491 . S
C608 C349 1.491 . S
C613 C195 1.492 . S
C618 C151 1.489 . S
C623 C173 1.489 . S
C628 C305 1.492 . S
C633 C228 1.489 . S
C638 C184 1.491 . S
C643 C206 1.490 . S
C648 C338 1.490 . S
C653 C250 1.489 . S
C658 C294 1.491 . S
C663 C272 1.491 . S
C668 C316 1.490 . S
C673 C280 1.304 . S
C678 C5 1.303 . S
C683 C269 1.303 . S
C688 C16 1.304 . S
C693 C27 1.302 . S
C698 C302 1.304 . S
C703 C291 1.302 . S
C708 C38 1.304 . S
C713 C324 1.293 . S
C718 C49 1.294 . S
C723 C60 1.298 . S
C728 C313 1.299 . S
C733 C346 1.298 . S
C738 C71 1.299 . S
C743 C82 1.293 . S
C748 C335 1.294 . S
C753 C93 1.303 . S
C758 C192 1.304 . S
C763 C104 1.304 . S
C768 C181 1.303 . S
C773 C115 1.302 . S
C778 C214 1.304 . S
C783 C203 1.297 . S
C788 C126 1.298 . S
C793 C137 1.299 . S
C798 C236 1.298 . S
C803 C225 1.294 . S
C808 C148 1.293 . S
C813 C258 1.293 . S
C818 C159 1.294 . S
C823 C247 1.294 . S
C828 C170 1.293 . S
