# Generated by pormake.
# Topology umu, (4)-cn, num edge types: 1
# Building blocks:
#     Node 0, Type 0, BuildingBlock: NAHDIM_clean_sbu_0, # of connection points: 4
#     Node 1, Type 0, BuildingBlock: NAHDIM_clean_sbu_0, # of connection points: 4
#     Node 2, Type 0, BuildingBlock: NAHDIM_clean_sbu_0, # of connection points: 4
#     Node 3, Type 0, BuildingBlock: NAHDIM_clean_sbu_0, # of connection points: 4
#     Node 4, Type 0, BuildingBlock: NAHDIM_clean_sbu_0, # of connection points: 4
#     Node 5, Type 0, BuildingBlock: NAHDIM_clean_sbu_0, # of connection points: 4
#     Node 6, Type 0, BuildingBlock: NAHDIM_clean_sbu_0, # of connection points: 4
#     Node 7, Type 0, BuildingBlock: NAHDIM_clean_sbu_0, # of connection points: 4
#     Node 8, Type 0, BuildingBlock: NAHDIM_clean_sbu_0, # of connection points: 4
#     Node 9, Type 0, BuildingBlock: NAHDIM_clean_sbu_0, # of connection points: 4
#     Node 10, Type 0, BuildingBlock: NAHDIM_clean_sbu_0, # of connection points: 4
#     Node 11, Type 0, BuildingBlock: NAHDIM_clean_sbu_0, # of connection points: 4
#     Node 12, Type 0, BuildingBlock: NAHDIM_clean_sbu_0, # of connection points: 4
#     Node 13, Type 0, BuildingBlock: NAHDIM_clean_sbu_0, # of connection points: 4
#     Node 14, Type 0, BuildingBlock: NAHDIM_clean_sbu_0, # of connection points: 4
#     Node 15, Type 0, BuildingBlock: NAHDIM_clean_sbu_0, # of connection points: 4
#     Node 16, Type 0, BuildingBlock: NAHDIM_clean_sbu_0, # of connection points: 4
#     Node 17, Type 0, BuildingBlock: NAHDIM_clean_sbu_0, # of connection points: 4
#     Node 18, Type 0, BuildingBlock: NAHDIM_clean_sbu_0, # of connection points: 4
#     Node 19, Type 0, BuildingBlock: NAHDIM_clean_sbu_0, # of connection points: 4
#     Node 20, Type 0, BuildingBlock: NAHDIM_clean_sbu_0, # of connection points: 4
#     Node 21, Type 0, BuildingBlock: NAHDIM_clean_sbu_0, # of connection points: 4
#     Node 22, Type 0, BuildingBlock: NAHDIM_clean_sbu_0, # of connection points: 4
#     Node 23, Type 0, BuildingBlock: NAHDIM_clean_sbu_0, # of connection points: 4
#     Node 24, Type 0, BuildingBlock: NAHDIM_clean_sbu_0, # of connection points: 4
#     Node 25, Type 0, BuildingBlock: NAHDIM_clean_sbu_0, # of connection points: 4
#     Node 26, Type 0, BuildingBlock: NAHDIM_clean_sbu_0, # of connection points: 4
#     Node 27, Type 0, BuildingBlock: NAHDIM_clean_sbu_0, # of connection points: 4
#     Node 28, Type 0, BuildingBlock: NAHDIM_clean_sbu_0, # of connection points: 4
#     Node 29, Type 0, BuildingBlock: NAHDIM_clean_sbu_0, # of connection points: 4
#     Node 30, Type 0, BuildingBlock: NAHDIM_clean_sbu_0, # of connection points: 4
#     Node 31, Type 0, BuildingBlock: NAHDIM_clean_sbu_0, # of connection points: 4
#     Edge 32, Type (0, 0), BuildingBlock: ZUJKAS_clean_linker_0, # of connection points: 2
#     Edge 33, Type (0, 0), BuildingBlock: ZUJKAS_clean_linker_0, # of connection points: 2
#     Edge 34, Type (0, 0), BuildingBlock: ZUJKAS_clean_linker_0, # of connection points: 2
#     Edge 35, Type (0, 0), BuildingBlock: ZUJKAS_clean_linker_0, # of connection points: 2
#     Edge 36, Type (0, 0), BuildingBlock: ZUJKAS_clean_linker_0, # of connection points: 2
#     Edge 37, Type (0, 0), BuildingBlock: ZUJKAS_clean_linker_0, # of connection points: 2
#     Edge 38, Type (0, 0), BuildingBlock: ZUJKAS_clean_linker_0, # of connection points: 2
#     Edge 39, Type (0, 0), BuildingBlock: ZUJKAS_clean_linker_0, # of connection points: 2
#     Edge 40, Type (0, 0), BuildingBlock: ZUJKAS_clean_linker_0, # of connection points: 2
#     Edge 41, Type (0, 0), BuildingBlock: ZUJKAS_clean_linker_0, # of connection points: 2
#     Edge 42, Type (0, 0), BuildingBlock: ZUJKAS_clean_linker_0, # of connection points: 2
#     Edge 43, Type (0, 0), BuildingBlock: ZUJKAS_clean_linker_0, # of connection points: 2
#     Edge 44, Type (0, 0), BuildingBlock: ZUJKAS_clean_linker_0, # of connection points: 2
#     Edge 45, Type (0, 0), BuildingBlock: ZUJKAS_clean_linker_0, # of connection points: 2
#     Edge 46, Type (0, 0), BuildingBlock: ZUJKAS_clean_linker_0, # of connection points: 2
#     Edge 47, Type (0, 0), BuildingBlock: ZUJKAS_clean_linker_0, # of connection points: 2
#     Edge 48, Type (0, 0), BuildingBlock: ZUJKAS_clean_linker_0, # of connection points: 2
#     Edge 49, Type (0, 0), BuildingBlock: ZUJKAS_clean_linker_0, # of connection points: 2
#     Edge 50, Type (0, 0), BuildingBlock: ZUJKAS_clean_linker_0, # of connection points: 2
#     Edge 51, Type (0, 0), BuildingBlock: ZUJKAS_clean_linker_0, # of connection points: 2
#     Edge 52, Type (0, 0), BuildingBlock: ZUJKAS_clean_linker_0, # of connection points: 2
#     Edge 53, Type (0, 0), BuildingBlock: ZUJKAS_clean_linker_0, # of connection points: 2
#     Edge 54, Type (0, 0), BuildingBlock: ZUJKAS_clean_linker_0, # of connection points: 2
#     Edge 55, Type (0, 0), BuildingBlock: ZUJKAS_clean_linker_0, # of connection points: 2
#     Edge 56, Type (0, 0), BuildingBlock: ZUJKAS_clean_linker_0, # of connection points: 2
#     Edge 57, Type (0, 0), BuildingBlock: ZUJKAS_clean_linker_0, # of connection points: 2
#     Edge 58, Type (0, 0), BuildingBlock: ZUJKAS_clean_linker_0, # of connection points: 2
#     Edge 59, Type (0, 0), BuildingBlock: ZUJKAS_clean_linker_0, # of connection points: 2
#     Edge 60, Type (0, 0), BuildingBlock: ZUJKAS_clean_linker_0, # of connection points: 2
#     Edge 61, Type (0, 0), BuildingBlock: ZUJKAS_clean_linker_0, # of connection points: 2
#     Edge 62, Type (0, 0), BuildingBlock: ZUJKAS_clean_linker_0, # of connection points: 2
#     Edge 63, Type (0, 0), BuildingBlock: ZUJKAS_clean_linker_0, # of connection points: 2
#     Edge 64, Type (0, 0), BuildingBlock: ZUJKAS_clean_linker_0, # of connection points: 2
#     Edge 65, Type (0, 0), BuildingBlock: ZUJKAS_clean_linker_0, # of connection points: 2
#     Edge 66, Type (0, 0), BuildingBlock: ZUJKAS_clean_linker_0, # of connection points: 2
#     Edge 67, Type (0, 0), BuildingBlock: ZUJKAS_clean_linker_0, # of connection points: 2
#     Edge 68, Type (0, 0), BuildingBlock: ZUJKAS_clean_linker_0, # of connection points: 2
#     Edge 69, Type (0, 0), BuildingBlock: ZUJKAS_clean_linker_0, # of connection points: 2
#     Edge 70, Type (0, 0), BuildingBlock: ZUJKAS_clean_linker_0, # of connection points: 2
#     Edge 71, Type (0, 0), BuildingBlock: ZUJKAS_clean_linker_0, # of connection points: 2
#     Edge 72, Type (0, 0), BuildingBlock: ZUJKAS_clean_linker_0, # of connection points: 2
#     Edge 73, Type (0, 0), BuildingBlock: ZUJKAS_clean_linker_0, # of connection points: 2
#     Edge 74, Type (0, 0), BuildingBlock: ZUJKAS_clean_linker_0, # of connection points: 2
#     Edge 75, Type (0, 0), BuildingBlock: ZUJKAS_clean_linker_0, # of connection points: 2
#     Edge 76, Type (0, 0), BuildingBlock: ZUJKAS_clean_linker_0, # of connection points: 2
#     Edge 77, Type (0, 0), BuildingBlock: ZUJKAS_clean_linker_0, # of connection points: 2
#     Edge 78, Type (0, 0), BuildingBlock: ZUJKAS_clean_linker_0, # of connection points: 2
#     Edge 79, Type (0, 0), BuildingBlock: ZUJKAS_clean_linker_0, # of connection points: 2
#     Edge 80, Type (0, 0), BuildingBlock: ZUJKAS_clean_linker_0, # of connection points: 2
#     Edge 81, Type (0, 0), BuildingBlock: ZUJKAS_clean_linker_0, # of connection points: 2
#     Edge 82, Type (0, 0), BuildingBlock: ZUJKAS_clean_linker_0, # of connection points: 2
#     Edge 83, Type (0, 0), BuildingBlock: ZUJKAS_clean_linker_0, # of connection points: 2
#     Edge 84, Type (0, 0), BuildingBlock: ZUJKAS_clean_linker_0, # of connection points: 2
#     Edge 85, Type (0, 0), BuildingBlock: ZUJKAS_clean_linker_0, # of connection points: 2
#     Edge 86, Type (0, 0), BuildingBlock: ZUJKAS_clean_linker_0, # of connection points: 2
#     Edge 87, Type (0, 0), BuildingBlock: ZUJKAS_clean_linker_0, # of connection points: 2
#     Edge 88, Type (0, 0), BuildingBlock: ZUJKAS_clean_linker_0, # of connection points: 2
#     Edge 89, Type (0, 0), BuildingBlock: ZUJKAS_clean_linker_0, # of connection points: 2
#     Edge 90, Type (0, 0), BuildingBlock: ZUJKAS_clean_linker_0, # of connection points: 2
#     Edge 91, Type (0, 0), BuildingBlock: ZUJKAS_clean_linker_0, # of connection points: 2
#     Edge 92, Type (0, 0), BuildingBlock: ZUJKAS_clean_linker_0, # of connection points: 2
#     Edge 93, Type (0, 0), BuildingBlock: ZUJKAS_clean_linker_0, # of connection points: 2
#     Edge 94, Type (0, 0), BuildingBlock: ZUJKAS_clean_linker_0, # of connection points: 2
#     Edge 95, Type (0, 0), BuildingBlock: ZUJKAS_clean_linker_0, # of connection points: 2
# Relax obj value: 0.144
# Max RMSD: 0.102
# Mean RMSD: 0.102
data_MOF--net-umu--node1-NAHDIM_clean_sbu_0--edge1-ZUJKAS_clean_linker_0
_symmetry_space_group_name_H-M    P1
_symmetry_Int_Tables_number       1
_symmetry_cell_setting            triclinic
loop_
_symmetry_equiv_pos_as_xyz
'x, y, z'
_cell_length_a     112.88725
_cell_length_b     112.93862
_cell_length_c     30.565972
_cell_angle_alpha  90.006647
_cell_angle_beta   90.010343
_cell_angle_gamma 90.002583
loop_
_atom_site_label
_atom_site_type_symbol
_atom_site_fract_x
_atom_site_fract_y
_atom_site_fract_z
_atom_type_partial_charge
C0 C 0.17569 0.14896 0.03411 0.0
O1 O 0.17906 0.14691 0.07454 0.0
O2 O 0.20234 0.15957 0.08666 0.0
Zn3 Zn 0.1952 0.16607 0.03141 0.0
O4 O 0.20714 0.16514 0.983 0.0
C5 C 0.19583 0.18911 0.07077 0.0
O6 O 0.2034 0.18378 0.09676 0.0
O7 O 0.18106 0.15675 0.01167 0.0
C8 C 0.21792 0.1681 0.9876 0.0
O9 O 0.22164 0.1719 0.02585 0.0
C10 C 0.20787 0.14981 0.08971 0.0
O11 O 0.20859 0.14285 0.05538 0.0
O12 O 0.19092 0.18323 0.04029 0.0
C13 C 0.1045 0.93259 0.27688 0.0
O14 O 0.10834 0.94356 0.27846 0.0
O15 O 0.08864 0.95396 0.34883 0.0
Zn16 Zn 0.08305 0.94445 0.2969 0.0
O17 O 0.08329 0.95464 0.24316 0.0
C18 C 0.06163 0.9388 0.34474 0.0
O19 O 0.06816 0.94151 0.37887 0.0
O20 O 0.09368 0.93051 0.28534 0.0
C21 C 0.07564 0.96272 0.23717 0.0
O22 O 0.06748 0.96454 0.26708 0.0
C23 C 0.09531 0.96298 0.34533 0.0
O24 O 0.09908 0.96622 0.30647 0.0
O25 O 0.06623 0.93911 0.30681 0.0
C26 C 0.31257 0.85347 0.52777 0.0
O27 O 0.30169 0.8567 0.53738 0.0
O28 O 0.29302 0.83612 0.59525 0.0
Zn29 Zn 0.30235 0.83091 0.54238 0.0
O30 O 0.29144 0.83055 0.49016 0.0
C31 C 0.30943 0.8095 0.58864 0.0
O32 O 0.30573 0.81522 0.62347 0.0
O33 O 0.31524 0.84255 0.52904 0.0
C34 C 0.28714 0.82098 0.47502 0.0
O35 O 0.28985 0.81088 0.49384 0.0
C36 C 0.28265 0.832 0.60069 0.0
O37 O 0.27842 0.82445 0.57198 0.0
O38 O 0.30914 0.81462 0.55162 0.0
C39 C 0.39167 0.06313 0.75733 0.0
O40 O 0.38862 0.05191 0.75605 0.0
O41 O 0.40412 0.04483 0.85002 0.0
Zn42 Zn 0.41142 0.05248 0.7969 0.0
O43 O 0.41274 0.0405 0.74845 0.0
C44 C 0.43415 0.0504 0.8335 0.0
O45 O 0.42929 0.04036 0.84581 0.0
O46 O 0.40145 0.06595 0.77504 0.0
C47 C 0.42051 0.04174 0.71872 0.0
O48 O 0.42769 0.05088 0.72022 0.0
C49 C 0.39796 0.03543 0.84749 0.0
O50 O 0.39567 0.03089 0.80884 0.0
O51 O 0.42793 0.05777 0.81205 0.0
C52 C 0.18474 0.85108 0.07433 0.0
O53 O 0.19608 0.85357 0.07688 0.0
O54 O 0.20218 0.83567 0.98129 0.0
Zn55 Zn 0.19414 0.83012 0.03641 0.0
O56 O 0.20628 0.82874 0.08414 0.0
C57 C 0.1841 0.8102 0.98914 0.0
O58 O 0.18514 0.8172 0.95503 0.0
O59 O 0.18154 0.84143 0.05651 0.0
C60 C 0.20324 0.82503 0.12172 0.0
O61 O 0.19215 0.82201 0.12853 0.0
C62 C 0.21158 0.84185 0.98251 0.0
O63 O 0.21583 0.8452 0.02057 0.0
O64 O 0.18716 0.81397 0.02665 0.0
C65 C 0.39023 0.93826 0.32786 0.0
O66 O 0.38771 0.94959 0.33099 0.0
O67 O 0.40325 0.95554 0.2312 0.0
Zn68 Zn 0.41019 0.94802 0.28515 0.0
O69 O 0.41205 0.96031 0.33232 0.0
C70 C 0.43321 0.94847 0.24916 0.0
O71 O 0.42926 0.95889 0.23675 0.0
O72 O 0.39963 0.93515 0.3081 0.0
C73 C 0.42008 0.95933 0.36122 0.0
O74 O 0.42732 0.95023 0.35976 0.0
C75 C 0.39722 0.96503 0.23283 0.0
O76 O 0.3949 0.96982 0.27105 0.0
O77 O 0.42635 0.94167 0.27046 0.0
C78 C 0.31124 0.14124 0.53938 0.0
O79 O 0.30044 0.13702 0.53574 0.0
O80 O 0.28984 0.15635 0.46524 0.0
Zn81 Zn 0.29875 0.16215 0.51825 0.0
O82 O 0.28823 0.16163 0.57115 0.0
C83 C 0.29476 0.18611 0.50052 0.0
O84 O 0.28401 0.1817 0.49746 0.0
O85 O 0.31303 0.15213 0.53135 0.0
C86 C 0.29271 0.16452 0.60776 0.0
O87 O 0.30391 0.16766 0.60932 0.0
C88 C 0.28105 0.14935 0.46792 0.0
O89 O 0.27778 0.14535 0.50643 0.0
O90 O 0.3033 0.17915 0.50891 0.0
C91 C 0.10405 0.06169 0.82286 0.0
O92 O 0.10663 0.05072 0.83349 0.0
O93 O 0.08839 0.04235 0.72834 0.0
Zn94 Zn 0.08399 0.05019 0.78511 0.0
O95 O 0.08464 0.03828 0.83387 0.0
C96 C 0.06274 0.06038 0.74663 0.0
O97 O 0.06934 0.06151 0.71148 0.0
O98 O 0.0948 0.06373 0.80037 0.0
C99 C 0.07612 0.03121 0.84122 0.0
O100 O 0.06682 0.0314 0.81541 0.0
C101 C 0.09793 0.03656 0.72299 0.0
O102 O 0.10558 0.0359 0.75527 0.0
O103 O 0.06725 0.05605 0.78119 0.0
C104 C 0.81253 0.85395 0.06125 0.0
O105 O 0.8014 0.85729 0.05884 0.0
O106 O 0.79306 0.8388 0.98046 0.0
Zn107 Zn 0.80183 0.83277 0.03357 0.0
O108 O 0.79093 0.83213 0.0855 0.0
C109 C 0.79961 0.80841 0.01733 0.0
O110 O 0.78845 0.81167 0.01918 0.0
O111 O 0.81526 0.84349 0.04986 0.0
C112 C 0.79415 0.82668 0.11987 0.0
O113 O 0.80461 0.82159 0.12083 0.0
C114 C 0.78179 0.83897 0.9801 0.0
O115 O 0.77599 0.83556 0.01514 0.0
O116 O 0.80761 0.81623 0.02196 0.0
C117 C 0.89419 0.06208 0.81691 0.0
O118 O 0.89101 0.051 0.81105 0.0
O119 O 0.91138 0.04258 0.74647 0.0
Zn120 Zn 0.91634 0.05161 0.80043 0.0
O121 O 0.91584 0.04089 0.85282 0.0
C122 C 0.93675 0.06366 0.762 0.0
O123 O 0.92943 0.06643 0.73019 0.0
O124 O 0.90503 0.06486 0.81237 0.0
C125 C 0.92166 0.03128 0.85495 0.0
O126 O 0.92816 0.028 0.82144 0.0
C127 C 0.919 0.0373 0.72286 0.0
O128 O 0.93024 0.03786 0.73367 0.0
O129 O 0.93296 0.05773 0.79442 0.0
C130 C 0.68374 0.1424 0.55929 0.0
O131 O 0.6949 0.1392 0.55656 0.0
O132 O 0.70229 0.16012 0.47943 0.0
Zn133 Zn 0.6938 0.16456 0.53506 0.0
O134 O 0.70541 0.16488 0.58477 0.0
C135 C 0.6854 0.18607 0.49304 0.0
O136 O 0.68768 0.18032 0.45662 0.0
O137 O 0.68092 0.153 0.55006 0.0
C138 C 0.71431 0.17175 0.58351 0.0
O139 O 0.71589 0.17853 0.54905 0.0
C140 C 0.71165 0.15385 0.47936 0.0
O141 O 0.71571 0.14965 0.51651 0.0
O142 O 0.68707 0.18095 0.52954 0.0
C143 C 0.60214 0.93493 0.32092 0.0
O144 O 0.60541 0.94608 0.31875 0.0
O145 O 0.58826 0.95305 0.23358 0.0
Zn146 Zn 0.58138 0.9453 0.28723 0.0
O147 O 0.58011 0.95726 0.33578 0.0
C148 C 0.55821 0.94686 0.254 0.0
O149 O 0.56238 0.95737 0.24388 0.0
O150 O 0.59183 0.93208 0.30795 0.0
C151 C 0.57221 0.95634 0.36517 0.0
O152 O 0.56472 0.94745 0.36361 0.0
C153 C 0.59392 0.96277 0.23547 0.0
O154 O 0.59581 0.96771 0.27374 0.0
O155 O 0.56499 0.93949 0.27297 0.0
C156 C 0.81117 0.14318 0.008 0.0
O157 O 0.79983 0.14057 0.0071 0.0
O158 O 0.79218 0.15938 0.08848 0.0
Zn159 Zn 0.8015 0.16486 0.03628 0.0
O160 O 0.79063 0.1659 0.98447 0.0
C161 C 0.81135 0.18441 0.08578 0.0
O162 O 0.81043 0.17706 0.11892 0.0
O163 O 0.81434 0.15335 0.02124 0.0
C164 C 0.79397 0.17111 0.94978 0.0
O165 O 0.80458 0.17588 0.94841 0.0
C166 C 0.78192 0.16377 0.09385 0.0
O167 O 0.77797 0.17153 0.06535 0.0
O168 O 0.80827 0.18099 0.04785 0.0
C169 C 0.60349 0.06059 0.76151 0.0
O170 O 0.60651 0.04936 0.76095 0.0
O171 O 0.59008 0.04238 0.85181 0.0
Zn172 Zn 0.58316 0.05023 0.79845 0.0
O173 O 0.58173 0.0383 0.74987 0.0
C174 C 0.56025 0.04856 0.83354 0.0
O175 O 0.56477 0.03828 0.84483 0.0
O176 O 0.59352 0.06349 0.77751 0.0
C177 C 0.57384 0.03946 0.72052 0.0
O178 O 0.5666 0.04856 0.72228 0.0
C179 C 0.59606 0.03286 0.84955 0.0
O180 O 0.59843 0.0283 0.811 0.0
O181 O 0.56675 0.05591 0.81317 0.0
C182 C 0.68434 0.85357 0.51406 0.0
O183 O 0.69549 0.85688 0.51531 0.0
O184 O 0.70389 0.8368 0.59135 0.0
Zn185 Zn 0.69484 0.8316 0.5378 0.0
O186 O 0.70581 0.83082 0.48618 0.0
C187 C 0.68491 0.81163 0.58482 0.0
O188 O 0.68541 0.81881 0.61858 0.0
O189 O 0.68172 0.84294 0.52369 0.0
C190 C 0.71461 0.82382 0.48629 0.0
O191 O 0.71646 0.81708 0.52067 0.0
C192 C 0.71351 0.84263 0.58883 0.0
O193 O 0.71755 0.84575 0.55023 0.0
O194 O 0.68825 0.81531 0.54754 0.0
C195 C 0.89199 0.93245 0.28336 0.0
O196 O 0.88883 0.94364 0.28373 0.0
O197 O 0.90844 0.95283 0.35881 0.0
Zn198 Zn 0.91369 0.94317 0.30676 0.0
O199 O 0.91408 0.9534 0.25315 0.0
C200 C 0.93538 0.93777 0.35366 0.0
O201 O 0.9294 0.94168 0.38757 0.0
O202 O 0.90252 0.92975 0.2942 0.0
C203 C 0.92032 0.96274 0.25116 0.0
O204 O 0.92658 0.96595 0.28541 0.0
C205 C 0.90234 0.96226 0.35578 0.0
O206 O 0.89866 0.96578 0.31715 0.0
O207 O 0.93032 0.93724 0.31656 0.0
C208 C 0.68694 0.64557 0.51423 0.0
O209 O 0.69814 0.64244 0.51482 0.0
O210 O 0.70633 0.66217 0.59298 0.0
Zn211 Zn 0.6973 0.66736 0.53945 0.0
O212 O 0.70817 0.6679 0.48752 0.0
C213 C 0.68673 0.68718 0.58551 0.0
O214 O 0.68644 0.67979 0.61868 0.0
O215 O 0.68416 0.65605 0.52523 0.0
C216 C 0.70444 0.67226 0.45176 0.0
O217 O 0.69361 0.6765 0.44992 0.0
C218 C 0.71595 0.65637 0.59016 0.0
O219 O 0.71999 0.65341 0.55136 0.0
O220 O 0.6908 0.68369 0.54898 0.0
C221 C 0.60196 0.43922 0.75633 0.0
O222 O 0.60316 0.45028 0.74387 0.0
O223 O 0.58527 0.45778 0.84992 0.0
Zn224 Zn 0.58111 0.44888 0.79494 0.0
O225 O 0.5802 0.46019 0.74434 0.0
C226 C 0.56166 0.43702 0.83853 0.0
O227 O 0.56891 0.43698 0.87216 0.0
O228 O 0.59317 0.43638 0.78016 0.0
C229 C 0.57092 0.46603 0.73496 0.0
O230 O 0.56151 0.46501 0.75996 0.0
C231 C 0.59569 0.4609 0.86061 0.0
O232 O 0.60462 0.45815 0.83503 0.0
O233 O 0.56512 0.44139 0.80243 0.0
C234 C 0.80982 0.35084 0.02642 0.0
O235 O 0.79868 0.35381 0.03248 0.0
O236 O 0.791 0.33374 0.09991 0.0
Zn237 Zn 0.80009 0.32853 0.04682 0.0
O238 O 0.78902 0.32789 0.99553 0.0
C239 C 0.81033 0.30866 0.09354 0.0
O240 O 0.80994 0.31586 0.12727 0.0
O241 O 0.81288 0.34013 0.03222 0.0
C242 C 0.7924 0.32319 0.95993 0.0
O243 O 0.80313 0.31872 0.95749 0.0
C244 C 0.7809 0.3291 0.10643 0.0
O245 O 0.77696 0.32115 0.07862 0.0
O246 O 0.8068 0.3123 0.05643 0.0
C247 C 0.89483 0.56186 0.28385 0.0
O248 O 0.89148 0.55078 0.2881 0.0
O249 O 0.91097 0.54139 0.35322 0.0
Zn250 Zn 0.91664 0.5509 0.30159 0.0
O251 O 0.91657 0.5407 0.24771 0.0
C252 C 0.94161 0.54933 0.30406 0.0
O253 O 0.93892 0.53877 0.28904 0.0
O254 O 0.90565 0.56447 0.29002 0.0
C255 C 0.91773 0.54532 0.21007 0.0
O256 O 0.91881 0.55687 0.20674 0.0
C257 C 0.91246 0.53023 0.35381 0.0
O258 O 0.91764 0.52508 0.32038 0.0
O259 O 0.9333 0.55656 0.31258 0.0
C260 C 0.6821 0.3554 0.5651 0.0
O261 O 0.69284 0.35903 0.55546 0.0
O262 O 0.70076 0.33744 0.48973 0.0
Zn263 Zn 0.69246 0.33293 0.54568 0.0
O264 O 0.70424 0.33241 0.59479 0.0
C265 C 0.68334 0.31195 0.50254 0.0
O266 O 0.68479 0.31825 0.46681 0.0
O267 O 0.67966 0.34446 0.56187 0.0
C268 C 0.71316 0.32558 0.59267 0.0
O269 O 0.71464 0.31897 0.55771 0.0
C270 C 0.71027 0.34346 0.48911 0.0
O271 O 0.71465 0.34749 0.52605 0.0
O272 O 0.68571 0.31656 0.53944 0.0
C273 C 0.88925 0.43501 0.83253 0.0
O274 O 0.88669 0.44633 0.83518 0.0
O275 O 0.90641 0.45233 0.74304 0.0
Zn276 Zn 0.91081 0.44457 0.80002 0.0
O277 O 0.91107 0.45689 0.84732 0.0
C278 C 0.93121 0.4335 0.75972 0.0
O279 O 0.92433 0.43303 0.7251 0.0
O280 O 0.89922 0.43192 0.81698 0.0
C281 C 0.91868 0.46516 0.84664 0.0
O282 O 0.92646 0.46553 0.81467 0.0
C283 C 0.89996 0.46155 0.74192 0.0
O284 O 0.89559 0.46576 0.77859 0.0
O285 O 0.92718 0.43779 0.79513 0.0
C286 C 0.81316 0.63971 0.06959 0.0
O287 O 0.80191 0.63672 0.0697 0.0
O288 O 0.79567 0.65502 0.9786 0.0
Zn289 Zn 0.80321 0.6607 0.03459 0.0
O290 O 0.79103 0.66139 0.08241 0.0
C291 C 0.80628 0.68361 0.9945 0.0
O292 O 0.799 0.67913 0.96533 0.0
O293 O 0.81613 0.64975 0.05436 0.0
C294 C 0.78184 0.66783 0.07956 0.0
O295 O 0.78011 0.67415 0.04402 0.0
C296 C 0.78627 0.64883 0.97769 0.0
O297 O 0.78153 0.64528 0.01467 0.0
O298 O 0.80959 0.67721 0.02648 0.0
C299 C 0.60597 0.56356 0.31709 0.0
O300 O 0.60871 0.55227 0.31892 0.0
O301 O 0.5903 0.54427 0.23434 0.0
Zn302 Zn 0.58452 0.55357 0.2865 0.0
O303 O 0.58313 0.54287 0.33868 0.0
C304 C 0.56227 0.55734 0.24137 0.0
O305 O 0.56701 0.55024 0.21217 0.0
O306 O 0.59587 0.56655 0.30245 0.0
C307 C 0.57505 0.53507 0.34133 0.0
O308 O 0.56759 0.53378 0.30867 0.0
C309 C 0.59628 0.53479 0.23812 0.0
O310 O 0.59924 0.53103 0.27729 0.0
O311 O 0.56827 0.56026 0.27486 0.0
C312 C 0.31445 0.35676 0.54108 0.0
O313 O 0.30346 0.36054 0.53863 0.0
O314 O 0.29402 0.34265 0.463 0.0
Zn315 Zn 0.30256 0.33613 0.51568 0.0
O316 O 0.29191 0.33612 0.56824 0.0
C317 C 0.29819 0.31257 0.49475 0.0
O318 O 0.28762 0.31737 0.49162 0.0
O319 O 0.31669 0.34609 0.53081 0.0
C320 C 0.29595 0.3317 0.60343 0.0
O321 O 0.30677 0.3274 0.60372 0.0
C322 C 0.2842 0.34812 0.46601 0.0
O323 O 0.27957 0.34997 0.50484 0.0
O324 O 0.30694 0.31917 0.50423 0.0
C325 C 0.3924 0.5613 0.30586 0.0
O326 O 0.38902 0.55029 0.29996 0.0
O327 O 0.40974 0.54202 0.23158 0.0
Zn328 Zn 0.41471 0.55101 0.28559 0.0
O329 O 0.41511 0.53989 0.33681 0.0
C330 C 0.43674 0.55667 0.24158 0.0
O331 O 0.43155 0.55154 0.20812 0.0
O332 O 0.40321 0.56398 0.29997 0.0
C333 C 0.42322 0.53217 0.34081 0.0
O334 O 0.43153 0.53148 0.31081 0.0
C335 C 0.40422 0.53222 0.23331 0.0
O336 O 0.40108 0.52794 0.27154 0.0
O337 O 0.43113 0.55769 0.27744 0.0
C338 C 0.18573 0.64439 0.07357 0.0
O339 O 0.19705 0.64195 0.06943 0.0
O340 O 0.20359 0.66081 0.99389 0.0
Zn341 Zn 0.19449 0.66647 0.04639 0.0
O342 O 0.20563 0.66806 0.09725 0.0
C343 C 0.18431 0.68585 0.99655 0.0
O344 O 0.18532 0.67851 0.96339 0.0
O345 O 0.18209 0.65468 0.06359 0.0
C346 C 0.20142 0.66981 0.13526 0.0
O347 O 0.18989 0.67066 0.14017 0.0
C348 C 0.21381 0.66515 0.9872 0.0
O349 O 0.21795 0.67311 0.01456 0.0
O350 O 0.18739 0.68244 0.0345 0.0
C351 C 0.09351 0.42755 0.80875 0.0
O352 O 0.09512 0.43096 0.76809 0.0
O353 O 0.08251 0.45402 0.75773 0.0
Zn354 Zn 0.07613 0.44666 0.81285 0.0
O355 O 0.0764 0.45863 0.86133 0.0
C356 C 0.056 0.43614 0.76908 0.0
O357 O 0.06376 0.43388 0.73815 0.0
O358 O 0.08593 0.43286 0.83235 0.0
C359 C 0.07225 0.46902 0.85708 0.0
O360 O 0.06752 0.47217 0.81956 0.0
C361 C 0.09102 0.46138 0.75888 0.0
O362 O 0.09598 0.46391 0.79663 0.0
O363 O 0.05936 0.44145 0.80356 0.0
C364 C 0.31103 0.64053 0.51594 0.0
O365 O 0.29967 0.63808 0.51394 0.0
O366 O 0.29344 0.65718 0.60443 0.0
Zn367 Zn 0.30166 0.66206 0.54879 0.0
O368 O 0.28973 0.66275 0.50019 0.0
C369 C 0.30917 0.68365 0.59233 0.0
O370 O 0.30571 0.67808 0.62783 0.0
O371 O 0.31428 0.65045 0.53145 0.0
C372 C 0.2818 0.67073 0.49919 0.0
O373 O 0.28142 0.67865 0.53065 0.0
C374 C 0.28397 0.65108 0.60441 0.0
O375 O 0.27966 0.64729 0.56705 0.0
O376 O 0.30856 0.67839 0.55562 0.0
C377 C 0.11013 0.56083 0.29055 0.0
O378 O 0.11305 0.54957 0.28968 0.0
O379 O 0.09469 0.5411 0.37084 0.0
Zn380 Zn 0.08865 0.55071 0.3197 0.0
O381 O 0.08697 0.54045 0.26639 0.0
C382 C 0.06502 0.55086 0.35267 0.0
O383 O 0.06826 0.54025 0.3656 0.0
O384 O 0.09992 0.56374 0.30429 0.0
C385 C 0.08302 0.54499 0.23129 0.0
O386 O 0.08021 0.55628 0.23082 0.0
C387 C 0.094 0.52986 0.37007 0.0
O388 O 0.08964 0.52463 0.33522 0.0
O389 O 0.07251 0.55737 0.33306 0.0
C390 C 0.17602 0.35044 0.02231 0.0
O391 O 0.17472 0.34711 0.06322 0.0
O392 O 0.20542 0.34494 0.08045 0.0
Zn393 Zn 0.19876 0.33795 0.02516 0.0
O394 O 0.21123 0.33774 0.97855 0.0
C395 C 0.19729 0.31549 0.06926 0.0
O396 O 0.20405 0.32095 0.09782 0.0
O397 O 0.18532 0.34754 0.00162 0.0
C398 C 0.2211 0.33246 0.98271 0.0
O399 O 0.22353 0.32696 0.01952 0.0
C400 C 0.21361 0.35266 0.08063 0.0
O401 O 0.2174 0.35699 0.04326 0.0
O402 O 0.19366 0.3211 0.03581 0.0
C403 C 0.39576 0.43385 0.76095 0.0
O404 O 0.39294 0.44513 0.76222 0.0
O405 O 0.41231 0.45157 0.84681 0.0
Zn406 Zn 0.41749 0.44336 0.79153 0.0
O407 O 0.41854 0.45513 0.74239 0.0
C408 C 0.43737 0.43266 0.83688 0.0
O409 O 0.43022 0.43287 0.87077 0.0
O410 O 0.40599 0.43069 0.77377 0.0
C411 C 0.42011 0.45137 0.70365 0.0
O412 O 0.42111 0.43992 0.69698 0.0
C413 C 0.40665 0.4613 0.84605 0.0
O414 O 0.40374 0.46597 0.80818 0.0
O415 O 0.43369 0.43643 0.80015 0.0
H416 H 0.09948 0.08546 0.81764 0.0
H417 H 0.11092 0.10161 0.85061 0.0
H418 H 0.1362 0.07637 0.90044 0.0
H419 H 0.1249 0.0602 0.86764 0.0
H420 H 0.11662 0.10386 0.94256 0.0
H421 H 0.15654 0.10173 0.83666 0.0
H422 H 0.14253 0.09522 0.82116 0.0
H423 H 0.15203 0.08777 0.85947 0.0
C424 C 0.10755 0.08336 0.83521 0.0
C425 C 0.1113 0.07155 0.83998 0.0
C426 C 0.11403 0.09258 0.85411 0.0
C427 C 0.12442 0.09015 0.87759 0.0
C428 C 0.12827 0.07841 0.88192 0.0
H429 H 0.16386 0.12998 0.06894 0.0
H430 H 0.15037 0.1165 0.03086 0.0
C431 C 0.12178 0.06919 0.86326 0.0
C432 C 0.13106 0.09982 0.899 0.0
H433 H 0.15803 0.11339 0.90121 0.0
C434 C 0.12564 0.10603 0.93338 0.0
C435 C 0.14277 0.10266 0.88657 0.0
C436 C 0.14881 0.09658 0.8487 0.0
C437 C 0.13179 0.11482 0.95657 0.0
C438 C 0.14366 0.11734 0.94521 0.0
C439 C 0.14895 0.11136 0.91002 0.0
C440 C 0.15087 0.12607 0.96954 0.0
C441 C 0.12555 0.12136 0.9929 0.0
C442 C 0.1556 0.13589 0.94765 0.0
C443 C 0.16333 0.14356 0.96919 0.0
C444 C 0.16655 0.1415 0.01301 0.0
C445 C 0.16153 0.13183 0.03526 0.0
C446 C 0.15378 0.12415 0.01362 0.0
H447 H 0.11576 0.12055 0.99022 0.0
H448 H 0.12828 0.11757 0.02483 0.0
H449 H 0.12795 0.1309 0.99273 0.0
H450 H 0.15347 0.13749 0.91359 0.0
H451 H 0.16701 0.15094 0.95109 0.0
H452 H 0.12818 0.93407 0.2601 0.0
H453 H 0.14096 0.91884 0.22851 0.0
H454 H 0.11166 0.89435 0.22677 0.0
H455 H 0.09875 0.90956 0.25832 0.0
H456 H 0.14597 0.89494 0.26007 0.0
H457 H 0.12375 0.89606 0.09742 0.0
H458 H 0.12205 0.90777 0.13713 0.0
H459 H 0.1144 0.89399 0.14444 0.0
C460 C 0.12445 0.92542 0.2533 0.0
C461 C 0.11243 0.92304 0.26143 0.0
C462 C 0.13177 0.91674 0.2353 0.0
C463 C 0.12719 0.90556 0.22482 0.0
C464 C 0.1153 0.903 0.23412 0.0
H465 H 0.16094 0.84725 0.08456 0.0
H466 H 0.14667 0.85991 0.12264 0.0
C467 C 0.10796 0.91168 0.25233 0.0
C468 C 0.13487 0.89673 0.20323 0.0
H469 H 0.1397 0.88282 0.10573 0.0
C470 C 0.14459 0.89223 0.2264 0.0
C471 C 0.13297 0.89322 0.15939 0.0
C472 C 0.12279 0.89804 0.13284 0.0
C473 C 0.15255 0.88431 0.20676 0.0
C474 C 0.15086 0.88106 0.16247 0.0
C475 C 0.14098 0.88536 0.13962 0.0
C476 C 0.15946 0.87349 0.13888 0.0
C477 C 0.16262 0.87943 0.23375 0.0
C478 C 0.17129 0.87709 0.13451 0.0
C479 C 0.17946 0.86988 0.11294 0.0
C480 C 0.17591 0.859 0.09487 0.0
C481 C 0.16396 0.85558 0.09816 0.0
C482 C 0.1558 0.86278 0.11996 0.0
H483 H 0.16066 0.87989 0.26933 0.0
H484 H 0.16453 0.87008 0.22497 0.0
H485 H 0.17071 0.88475 0.22755 0.0
H486 H 0.17422 0.88548 0.14785 0.0
H487 H 0.18857 0.87282 0.11066 0.0
H488 H 0.36923 0.94208 0.36974 0.0
H489 H 0.35662 0.92744 0.4058 0.0
H490 H 0.38091 0.89971 0.369 0.0
H491 H 0.39365 0.9143 0.33298 0.0
H492 H 0.34597 0.90695 0.36691 0.0
H493 H 0.37659 0.89554 0.50309 0.0
H494 H 0.37826 0.9088 0.47064 0.0
H495 H 0.3828 0.89473 0.449 0.0
C496 C 0.37191 0.93287 0.36932 0.0
C497 C 0.38246 0.92935 0.34861 0.0
C498 C 0.36469 0.92453 0.38994 0.0
C499 C 0.36794 0.91255 0.39053 0.0
C500 C 0.37838 0.90896 0.36951 0.0
H501 H 0.33486 0.84942 0.49596 0.0
H502 H 0.34839 0.86387 0.46343 0.0
C503 C 0.3856 0.9173 0.34873 0.0
C504 C 0.3602 0.90379 0.41229 0.0
H505 H 0.35899 0.88426 0.49738 0.0
C506 C 0.34878 0.902 0.39551 0.0
C507 C 0.36396 0.89736 0.44945 0.0
C508 C 0.37604 0.89923 0.46946 0.0
C509 C 0.34103 0.8938 0.41462 0.0
C510 C 0.34473 0.88744 0.45209 0.0
C511 C 0.35618 0.88919 0.46874 0.0
C512 C 0.33683 0.87887 0.4742 0.0
C513 C 0.32904 0.89185 0.39395 0.0
C514 C 0.32602 0.8826 0.49212 0.0
C515 C 0.31825 0.87437 0.51056 0.0
C516 C 0.32122 0.86229 0.51176 0.0
C517 C 0.33229 0.85866 0.49541 0.0
C518 C 0.34003 0.86689 0.47681 0.0
H519 H 0.32881 0.89499 0.35951 0.0
H520 H 0.32658 0.88233 0.39457 0.0
H521 H 0.32226 0.89686 0.41258 0.0
H522 H 0.32352 0.89185 0.49134 0.0
H523 H 0.30985 0.87747 0.52324 0.0
H524 H 0.36991 0.05987 0.72076 0.0
H525 H 0.35757 0.07454 0.68392 0.0
H526 H 0.38371 0.10149 0.70978 0.0
H527 H 0.39622 0.08681 0.74669 0.0
H528 H 0.34866 0.0964 0.72035 0.0
H529 H 0.37764 0.10324 0.57505 0.0
H530 H 0.37902 0.09046 0.61023 0.0
H531 H 0.38446 0.10459 0.62803 0.0
C532 C 0.37306 0.06891 0.71869 0.0
C533 C 0.38406 0.07217 0.73653 0.0
C534 C 0.36599 0.07727 0.69762 0.0
C535 C 0.36981 0.08903 0.69372 0.0
C536 C 0.38071 0.0924 0.71194 0.0
H537 H 0.33363 0.14792 0.56388 0.0
H538 H 0.34844 0.13578 0.60165 0.0
C539 C 0.3878 0.08402 0.73321 0.0
C540 C 0.36221 0.09773 0.67106 0.0
H541 H 0.35989 0.1142 0.57781 0.0
C542 C 0.35113 0.10035 0.6893 0.0
C543 C 0.36553 0.10289 0.63074 0.0
C544 C 0.37727 0.10014 0.60951 0.0
C545 C 0.34316 0.1079 0.66796 0.0
C546 C 0.34629 0.11274 0.62686 0.0
C547 C 0.35752 0.11041 0.60921 0.0
C548 C 0.33779 0.11986 0.60117 0.0
C549 C 0.33146 0.11065 0.68961 0.0
C550 C 0.3271 0.11479 0.58717 0.0
C551 C 0.31864 0.12167 0.56572 0.0
C552 C 0.32076 0.13374 0.55758 0.0
C553 C 0.33173 0.13866 0.56978 0.0
C554 C 0.34019 0.13176 0.59139 0.0
H555 H 0.3318 0.10904 0.72545 0.0
H556 H 0.32883 0.12 0.68385 0.0
H557 H 0.3245 0.10483 0.67564 0.0
H558 H 0.32521 0.10555 0.59357 0.0
H559 H 0.31034 0.11758 0.55639 0.0
H560 H 0.80959 0.87687 0.08734 0.0
H561 H 0.82385 0.88942 0.12564 0.0
H562 H 0.84978 0.86141 0.11999 0.0
H563 H 0.83563 0.84885 0.081 0.0
H564 H 0.83423 0.88443 0.20602 0.0
H565 H 0.86842 0.89015 0.07696 0.0
H566 H 0.8537 0.88476 0.06522 0.0
H567 H 0.8646 0.87504 0.08868 0.0
C568 C 0.81837 0.87342 0.09371 0.0
C569 C 0.82148 0.86187 0.08108 0.0
C570 C 0.8265 0.8806 0.11569 0.0
C571 C 0.83789 0.87638 0.12531 0.0
C572 C 0.8411 0.86491 0.11217 0.0
H573 H 0.89665 0.90908 0.26643 0.0
H574 H 0.88348 0.89468 0.23139 0.0
C575 C 0.83299 0.85773 0.09003 0.0
C576 C 0.84615 0.88379 0.15106 0.0
H577 H 0.87299 0.89766 0.14729 0.0
C578 C 0.8427 0.88733 0.19319 0.0
C579 C 0.85723 0.88748 0.13429 0.0
C580 C 0.8612 0.88426 0.08868 0.0
C581 C 0.85003 0.89452 0.21904 0.0
C582 C 0.86101 0.89836 0.20202 0.0
C583 C 0.86457 0.89465 0.16022 0.0
C584 C 0.86867 0.90675 0.22609 0.0
C585 C 0.84599 0.89788 0.26442 0.0
C586 C 0.86466 0.91826 0.23481 0.0
C587 C 0.87213 0.92649 0.25472 0.0
C588 C 0.88379 0.92337 0.26612 0.0
C589 C 0.88771 0.91175 0.25819 0.0
C590 C 0.88022 0.90352 0.23809 0.0
H591 H 0.83909 0.89174 0.27687 0.0
H592 H 0.85354 0.89794 0.28771 0.0
H593 H 0.84214 0.90692 0.26356 0.0
H594 H 0.85583 0.92097 0.22512 0.0
H595 H 0.86885 0.93538 0.26026 0.0
H596 H 0.89833 0.08507 0.84076 0.0
H597 H 0.88424 0.09898 0.87328 0.0
H598 H 0.85641 0.07302 0.86117 0.0
H599 H 0.87044 0.05899 0.82927 0.0
H600 H 0.86289 0.10823 0.84143 0.0
H601 H 0.85579 0.08145 0.9915 0.0
H602 H 0.86781 0.07866 0.95399 0.0
H603 H 0.85311 0.07357 0.94145 0.0
C604 C 0.88919 0.08234 0.84479 0.0
C605 C 0.88552 0.07089 0.83283 0.0
C606 C 0.88117 0.09029 0.86339 0.0
C607 C 0.86936 0.08693 0.87042 0.0
C608 C 0.86556 0.07568 0.85694 0.0
H609 H 0.80727 0.12074 0.97797 0.0
H610 H 0.82166 0.10727 0.94488 0.0
C611 C 0.87358 0.06771 0.83847 0.0
C612 C 0.86104 0.09514 0.89218 0.0
H613 H 0.84322 0.0981 0.98172 0.0
C614 C 0.85862 0.10606 0.87221 0.0
C615 C 0.85555 0.09226 0.93239 0.0
C616 C 0.85826 0.0809 0.95637 0.0
C617 C 0.85062 0.11409 0.89094 0.0
C618 C 0.84505 0.11116 0.93093 0.0
C619 C 0.84751 0.10028 0.95101 0.0
C620 C 0.8365 0.11922 0.95218 0.0
C621 C 0.84797 0.12553 0.86738 0.0
C622 C 0.84017 0.13028 0.96804 0.0
C623 C 0.83199 0.13799 0.98708 0.0
C624 C 0.82 0.13474 0.9906 0.0
C625 C 0.81642 0.12352 0.97562 0.0
C626 C 0.82463 0.11582 0.95671 0.0
H627 H 0.85095 0.12528 0.83274 0.0
H628 H 0.83833 0.12749 0.86815 0.0
H629 H 0.85266 0.1329 0.88399 0.0
H630 H 0.84936 0.13296 0.9655 0.0
H631 H 0.83503 0.14655 0.99843 0.0
H632 H 0.66058 0.147 0.57966 0.0
H633 H 0.64639 0.1336 0.61447 0.0
H634 H 0.6724 0.10563 0.61252 0.0
H635 H 0.6867 0.11899 0.57849 0.0
H636 H 0.6372 0.11187 0.58807 0.0
H637 H 0.6631 0.10734 0.74141 0.0
H638 H 0.66624 0.11859 0.70114 0.0
H639 H 0.67138 0.10367 0.69316 0.0
C640 C 0.66326 0.13798 0.58645 0.0
C641 C 0.67481 0.13409 0.57674 0.0
C642 C 0.65515 0.13035 0.60635 0.0
C643 C 0.65845 0.11872 0.61689 0.0
C644 C 0.66979 0.11467 0.60563 0.0
H645 H 0.62578 0.05728 0.72942 0.0
H646 H 0.63863 0.07193 0.69471 0.0
C647 C 0.67792 0.1223 0.58594 0.0
C648 C 0.65007 0.11082 0.63995 0.0
H649 H 0.64687 0.0941 0.73222 0.0
C650 C 0.63925 0.10805 0.61974 0.0
C651 C 0.65277 0.10593 0.68139 0.0
C652 C 0.66395 0.10911 0.7058 0.0
C653 C 0.63122 0.10018 0.63929 0.0
C654 C 0.63406 0.09509 0.68021 0.0
C655 C 0.64477 0.09801 0.70073 0.0
C656 C 0.62622 0.08639 0.70165 0.0
C657 C 0.61991 0.09709 0.61556 0.0
C658 C 0.61506 0.08976 0.71757 0.0
C659 C 0.6077 0.08142 0.73761 0.0
C660 C 0.61139 0.06958 0.74197 0.0
C661 C 0.62265 0.06631 0.72646 0.0
C662 C 0.63001 0.07465 0.70664 0.0
H663 H 0.62006 0.10006 0.58091 0.0
H664 H 0.61835 0.08738 0.61638 0.0
H665 H 0.61234 0.10146 0.63213 0.0
H666 H 0.61208 0.09884 0.71454 0.0
H667 H 0.59909 0.08422 0.7493 0.0
H668 H 0.62501 0.93806 0.34716 0.0
H669 H 0.6381 0.92353 0.38124 0.0
H670 H 0.6105 0.8972 0.37354 0.0
H671 H 0.59738 0.91164 0.33865 0.0
H672 H 0.63455 0.91152 0.45918 0.0
H673 H 0.6389 0.88014 0.32002 0.0
H674 H 0.63302 0.8949 0.31352 0.0
H675 H 0.62392 0.88334 0.33595 0.0
C676 C 0.62174 0.92916 0.35237 0.0
C677 C 0.61017 0.92599 0.34006 0.0
C678 C 0.62923 0.92088 0.37192 0.0
C679 C 0.62531 0.90927 0.37945 0.0
C680 C 0.61377 0.90605 0.36722 0.0
H681 H 0.6609 0.84889 0.49915 0.0
H682 H 0.64596 0.86239 0.46942 0.0
C683 C 0.60627 0.91433 0.34747 0.0
C684 C 0.63324 0.90069 0.40136 0.0
H685 H 0.64765 0.87441 0.3871 0.0
C686 C 0.63742 0.9034 0.44344 0.0
C687 C 0.63692 0.8901 0.38075 0.0
C688 C 0.63305 0.88695 0.33492 0.0
C689 C 0.64521 0.8958 0.46551 0.0
C690 C 0.649 0.8853 0.44467 0.0
C691 C 0.64468 0.88247 0.40293 0.0
C692 C 0.65785 0.87735 0.46486 0.0
C693 C 0.64927 0.89902 0.51101 0.0
C694 C 0.66945 0.88134 0.47203 0.0
C695 C 0.67801 0.87366 0.48888 0.0
C696 C 0.6751 0.86186 0.49874 0.0
C697 C 0.66341 0.85794 0.49202 0.0
C698 C 0.65487 0.86562 0.47499 0.0
H699 H 0.64331 0.90563 0.5265 0.0
H700 H 0.64971 0.89105 0.53225 0.0
H701 H 0.65828 0.90292 0.50922 0.0
H702 H 0.67196 0.89032 0.46371 0.0
H703 H 0.68693 0.87695 0.49355 0.0
H704 H 0.68981 0.62229 0.49279 0.0
H705 H 0.67515 0.60897 0.46047 0.0
H706 H 0.64894 0.6367 0.46534 0.0
H707 H 0.66355 0.65014 0.49769 0.0
H708 H 0.65168 0.60247 0.49492 0.0
H709 H 0.65028 0.62562 0.33416 0.0
H710 H 0.66231 0.62757 0.37245 0.0
H711 H 0.64832 0.63462 0.3822 0.0
C712 C 0.68092 0.62556 0.48721 0.0
C713 C 0.67785 0.63729 0.49758 0.0
C714 C 0.67256 0.61793 0.46877 0.0
C715 C 0.66105 0.62193 0.46007 0.0
C716 C 0.65785 0.63353 0.47133 0.0
H717 H 0.60192 0.58726 0.32894 0.0
H718 H 0.61499 0.60164 0.36447 0.0
C719 C 0.66619 0.64116 0.48999 0.0
C720 C 0.65245 0.61394 0.43879 0.0
H721 H 0.63759 0.60923 0.34313 0.0
C722 C 0.64856 0.60393 0.46178 0.0
C723 C 0.64841 0.61596 0.39567 0.0
C724 C 0.65257 0.62647 0.36937 0.0
C725 C 0.64067 0.59585 0.44272 0.0
C726 C 0.63684 0.5977 0.39917 0.0
C727 C 0.64059 0.60782 0.37645 0.0
C728 C 0.62911 0.5891 0.37636 0.0
C729 C 0.63641 0.58548 0.46961 0.0
C730 C 0.63288 0.57738 0.37026 0.0
C731 C 0.62544 0.56914 0.35016 0.0
C732 C 0.61414 0.57252 0.33535 0.0
C733 C 0.61056 0.58438 0.34008 0.0
C734 C 0.618 0.5926 0.36041 0.0
H735 H 0.63737 0.58719 0.50524 0.0
H736 H 0.62698 0.58344 0.46253 0.0
H737 H 0.64179 0.57756 0.46148 0.0
H738 H 0.64155 0.57458 0.38132 0.0
H739 H 0.62851 0.56011 0.34665 0.0
H740 H 0.62253 0.44273 0.71144 0.0
H741 H 0.63576 0.42769 0.68112 0.0
H742 H 0.6136 0.40015 0.73439 0.0
H743 H 0.60027 0.41514 0.76501 0.0
H744 H 0.64771 0.40806 0.72894 0.0
H745 H 0.61646 0.39344 0.5986 0.0
H746 H 0.61507 0.40759 0.62572 0.0
H747 H 0.61081 0.39427 0.65359 0.0
C748 C 0.62048 0.43348 0.71691 0.0
C749 C 0.61032 0.43012 0.74045 0.0
C750 C 0.62805 0.42491 0.69959 0.0
C751 C 0.62555 0.41286 0.70516 0.0
C752 C 0.61557 0.40944 0.72939 0.0
H753 H 0.6603 0.35033 0.59938 0.0
H754 H 0.6465 0.36408 0.63443 0.0
C755 C 0.60801 0.41801 0.747 0.0
C756 C 0.63337 0.4039 0.68517 0.0
H757 H 0.63484 0.38362 0.60264 0.0
C758 C 0.64492 0.40268 0.70139 0.0
C759 C 0.62962 0.39691 0.64944 0.0
C760 C 0.61734 0.3981 0.63045 0.0
C761 C 0.65287 0.39458 0.68276 0.0
C762 C 0.64923 0.38778 0.64625 0.0
C763 C 0.6376 0.38889 0.63049 0.0
C764 C 0.65741 0.37956 0.62369 0.0
C765 C 0.66502 0.39327 0.70279 0.0
C766 C 0.66795 0.38378 0.60503 0.0
C767 C 0.67587 0.37595 0.58519 0.0
C768 C 0.67332 0.36378 0.58318 0.0
C769 C 0.66254 0.35965 0.60048 0.0
C770 C 0.65465 0.36748 0.62055 0.0
H771 H 0.66519 0.39642 0.73723 0.0
H772 H 0.66801 0.3839 0.702 0.0
H773 H 0.67144 0.39867 0.6839 0.0
H774 H 0.67009 0.39312 0.60607 0.0
H775 H 0.68405 0.37943 0.57182 0.0
H776 H 0.8671 0.43869 0.86572 0.0
H777 H 0.85391 0.42405 0.89893 0.0
H778 H 0.87944 0.39655 0.87289 0.0
H779 H 0.89275 0.41111 0.83972 0.0
H780 H 0.84458 0.40257 0.86025 0.0
H781 H 0.87263 0.39423 0.00669 0.0
H782 H 0.87447 0.40712 0.97241 0.0
H783 H 0.87994 0.39299 0.95463 0.0
C784 C 0.86991 0.42952 0.86691 0.0
C785 C 0.881 0.42607 0.85029 0.0
C786 C 0.86236 0.42119 0.88589 0.0
C787 C 0.8658 0.40929 0.88887 0.0
C788 C 0.87673 0.40575 0.87148 0.0
H789 H 0.83272 0.34697 0.00084 0.0
H790 H 0.84631 0.36121 0.96743 0.0
C791 C 0.88428 0.41406 0.85234 0.0
C792 C 0.8579 0.4006 0.91007 0.0
H793 H 0.8555 0.38239 -0.00128 0.0
C794 C 0.84693 0.39816 0.89056 0.0
C795 C 0.86106 0.39487 0.9495 0.0
C796 C 0.87262 0.39747 0.97237 0.0
C797 C 0.83905 0.39 0.90921 0.0
C798 C 0.84215 0.38436 0.94895 0.0
C799 C 0.85316 0.38676 0.96833 0.0
C800 C 0.83407 0.37592 0.97085 0.0
C801 C 0.8276 0.38731 0.88574 0.0
C802 C 0.82282 0.37958 0.98484 0.0
C803 C 0.81502 0.37147 0.00378 0.0
C804 C 0.81839 0.35959 0.00945 0.0
C805 C 0.82984 0.35606 0.99683 0.0
C806 C 0.83761 0.36417 0.97772 0.0
H807 H 0.82802 0.38984 0.85064 0.0
H808 H 0.82537 0.37775 0.88801 0.0
H809 H 0.82031 0.39243 0.9011 0.0
H810 H 0.82003 0.38869 0.98079 0.0
H811 H 0.8063 0.3745 0.01349 0.0
H812 H 0.8367 0.64422 0.08311 0.0
H813 H 0.85105 0.63173 0.12137 0.0
H814 H 0.82419 0.60507 0.14056 0.0
H815 H 0.80973 0.61757 0.10303 0.0
H816 H 0.83664 0.61056 0.21634 0.0
H817 H 0.86732 0.60166 0.07809 0.0
H818 H 0.86448 0.61707 0.08804 0.0
H819 H 0.85263 0.6076 0.07011 0.0
C820 C 0.83387 0.63565 0.09508 0.0
C821 C 0.82208 0.63187 0.08998 0.0
C822 C 0.8421 0.62851 0.11679 0.0
C823 C 0.8387 0.61743 0.13333 0.0
C824 C 0.82698 0.61359 0.12791 0.0
H825 H 0.87113 0.5592 0.26936 0.0
H826 H 0.85759 0.57344 0.23599 0.0
C827 C 0.81874 0.62073 0.10637 0.0
C828 C 0.84723 0.61 0.15776 0.0
H829 H 0.87335 0.59502 0.14811 0.0
C830 C 0.84466 0.60714 0.20144 0.0
C831 C 0.8577 0.60562 0.13823 0.0
C832 C 0.86069 0.60804 0.09093 0.0
C833 C 0.85231 0.60002 0.22621 0.0
C834 C 0.86271 0.59554 0.20653 0.0
C835 C 0.86537 0.59853 0.16307 0.0
C836 C 0.87071 0.58731 0.22977 0.0
C837 C 0.84927 0.59742 0.27329 0.0
C838 C 0.88258 0.59039 0.23713 0.0
C839 C 0.89036 0.58226 0.25616 0.0
C840 C 0.88641 0.57087 0.26768 0.0
C841 C 0.87445 0.56791 0.26097 0.0
C842 C 0.86668 0.57605 0.2421 0.0
H843 H 0.84282 0.60391 0.2866 0.0
H844 H 0.84522 0.58848 0.27546 0.0
H845 H 0.85733 0.59749 0.29411 0.0
H846 H 0.88585 0.59903 0.22759 0.0
H847 H 0.89953 0.58481 0.26076 0.0
H848 H 0.3125 0.38007 0.56298 0.0
H849 H 0.32736 0.39255 0.59819 0.0
H850 H 0.35227 0.36361 0.596 0.0
H851 H 0.3374 0.35097 0.56091 0.0
H852 H 0.34958 0.37493 0.67885 0.0
H853 H 0.35754 0.40736 0.54569 0.0
H854 H 0.34217 0.40518 0.55869 0.0
H855 H 0.35065 0.39315 0.53626 0.0
C856 C 0.32118 0.37637 0.56951 0.0
C857 C 0.32378 0.36453 0.55911 0.0
C858 C 0.32967 0.38354 0.58945 0.0
C859 C 0.34093 0.37903 0.5992 0.0
C860 C 0.34363 0.36726 0.58846 0.0
H861 H 0.39991 0.41044 0.74349 0.0
H862 H 0.38686 0.39661 0.70518 0.0
C863 C 0.33514 0.36007 0.56834 0.0
C864 C 0.34962 0.38646 0.62276 0.0
H865 H 0.36487 0.41247 0.61626 0.0
C866 C 0.35305 0.38308 0.6651 0.0
C867 C 0.35405 0.39708 0.60464 0.0
C868 C 0.35101 0.40088 0.55867 0.0
C869 C 0.36049 0.39028 0.69048 0.0
C870 C 0.36477 0.40101 0.6726 0.0
C871 C 0.36152 0.40426 0.62993 0.0
C872 C 0.37248 0.40913 0.69773 0.0
C873 C 0.36339 0.38655 0.73666 0.0
C874 C 0.36877 0.42078 0.70584 0.0
C875 C 0.37622 0.42872 0.72741 0.0
C876 C 0.38756 0.42517 0.74115 0.0
C877 C 0.3912 0.41343 0.73359 0.0
C878 C 0.38374 0.4055 0.71186 0.0
H879 H 0.35713 0.37972 0.74893 0.0
H880 H 0.37244 0.38273 0.73747 0.0
H881 H 0.36318 0.39425 0.75923 0.0
H882 H 0.36012 0.42375 0.69509 0.0
H883 H 0.37316 0.4377 0.73269 0.0
H884 H 0.30693 0.61854 0.48216 0.0
H885 H 0.32117 0.60534 0.44691 0.0
H886 H 0.34913 0.63049 0.47146 0.0
H887 H 0.33493 0.64383 0.50665 0.0
H888 H 0.34767 0.62192 0.38314 0.0
H889 H 0.34761 0.58546 0.50511 0.0
H890 H 0.33318 0.59004 0.48693 0.0
H891 H 0.34225 0.60015 0.51757 0.0
C892 C 0.31612 0.62123 0.48047 0.0
C893 C 0.3198 0.63222 0.49727 0.0
C894 C 0.32425 0.61366 0.46046 0.0
C895 C 0.3362 0.61691 0.45702 0.0
C896 C 0.33994 0.62782 0.47401 0.0
H897 H 0.39711 0.584 0.332 0.0
H898 H 0.38349 0.59791 0.36693 0.0
C899 C 0.33182 0.6354 0.49419 0.0
C900 C 0.34468 0.60911 0.4341 0.0
H901 H 0.35719 0.58164 0.4375 0.0
C902 C 0.34983 0.61314 0.39508 0.0
C903 C 0.34741 0.59767 0.44981 0.0
C904 C 0.34242 0.59307 0.49235 0.0
C905 C 0.35747 0.60589 0.37068 0.0
C906 C 0.36016 0.59441 0.38629 0.0
C907 C 0.35507 0.59043 0.42554 0.0
C908 C 0.36825 0.58633 0.36261 0.0
C909 C 0.36232 0.61045 0.32789 0.0
C910 C 0.36422 0.57518 0.34896 0.0
C911 C 0.372 0.56717 0.32935 0.0
C912 C 0.38397 0.57016 0.32315 0.0
C913 C 0.38793 0.58145 0.33605 0.0
C914 C 0.38014 0.58944 0.35584 0.0
H915 H 0.35699 0.61795 0.31503 0.0
H916 H 0.37151 0.61366 0.33303 0.0
H917 H 0.36256 0.60333 0.30284 0.0
H918 H 0.35507 0.57261 0.35402 0.0
H919 H 0.36867 0.55856 0.31977 0.0
H920 H 0.10569 0.5844 0.27794 0.0
H921 H 0.11846 0.59891 0.24181 0.0
H922 H 0.14537 0.57224 0.2244 0.0
H923 H 0.1327 0.55765 0.26057 0.0
H924 H 0.15344 0.59525 0.25688 0.0
H925 H 0.12546 0.59824 0.10738 0.0
H926 H 0.11793 0.6002 0.15872 0.0
H927 H 0.12435 0.58609 0.14561 0.0
C928 C 0.11435 0.58163 0.26671 0.0
C929 C 0.11816 0.56985 0.27188 0.0
C930 C 0.1216 0.58992 0.24589 0.0
C931 C 0.13275 0.58657 0.22995 0.0
C932 C 0.13674 0.57495 0.2363 0.0
H933 H 0.19056 0.62146 0.09545 0.0
H934 H 0.17758 0.60745 0.13302 0.0
C935 C 0.12949 0.56663 0.25695 0.0
C936 C 0.14022 0.59516 0.20616 0.0
H937 H 0.14187 0.61116 0.11167 0.0
C938 C 0.15095 0.59874 0.22511 0.0
C939 C 0.13687 0.59967 0.16484 0.0
C940 C 0.12557 0.59582 0.14261 0.0
C941 C 0.1584 0.60686 0.20396 0.0
C942 C 0.15512 0.61128 0.16234 0.0
C943 C 0.14435 0.60774 0.14353 0.0
C944 C 0.16278 0.61956 0.13775 0.0
C945 C 0.16958 0.61082 0.22677 0.0
C946 C 0.15858 0.63084 0.12635 0.0
C947 C 0.16593 0.63883 0.10442 0.0
C948 C 0.1776 0.63565 0.09348 0.0
C949 C 0.18165 0.62421 0.10374 0.0
C950 C 0.17428 0.61622 0.12549 0.0
H951 H 0.16914 0.60921 0.2626 0.0
H952 H 0.1772 0.60576 0.21362 0.0
H953 H 0.17126 0.62039 0.22113 0.0
H954 H 0.14969 0.63354 0.13524 0.0
H955 H 0.16254 0.64757 0.09693 0.0
H956 H 0.11222 0.41591 0.77128 0.0
H957 H 0.12537 0.40145 0.80607 0.0
H958 H 0.10498 0.40376 0.92505 0.0
H959 H 0.09176 0.41809 0.89064 0.0
H960 H 0.13878 0.40609 0.88223 0.0
H961 H 0.10852 0.36787 0.90638 0.0
H962 H 0.10534 0.37973 0.86847 0.0
H963 H 0.10289 0.38176 0.92607 0.0
C964 C 0.11044 0.41322 0.80464 0.0
C965 C 0.10096 0.41816 0.82821 0.0
C966 C 0.11796 0.40497 0.82444 0.0
C967 C 0.11605 0.40145 0.86791 0.0
C968 C 0.10647 0.40619 0.89121 0.0
H969 H 0.1555 0.35954 0.05687 0.0
H970 H 0.14079 0.37191 0.01946 0.0
C971 C 0.09897 0.41444 0.87153 0.0
C972 C 0.12458 0.39354 0.89007 0.0
H973 H 0.1271 0.36705 0.94302 0.0
C974 C 0.13627 0.39751 0.89523 0.0
C975 C 0.1212 0.38243 0.90735 0.0
C976 C 0.10883 0.37762 0.90154 0.0
C977 C 0.14466 0.39072 0.91784 0.0
C978 C 0.14131 0.37958 0.93496 0.0
C979 C 0.12961 0.37561 0.92989 0.0
C980 C 0.14995 0.37182 0.95729 0.0
C981 C 0.15698 0.39565 0.92398 0.0
C982 C 0.1598 0.36753 0.9344 0.0
C983 C 0.1682 0.36054 0.95558 0.0
C984 C 0.16686 0.35761 5e-05 0.0
C985 C 0.15681 0.36168 0.02268 0.0
C986 C 0.1484 0.36872 0.00138 0.0
H987 H 0.15721 0.4054 0.91942 0.0
H988 H 0.16046 0.39352 0.95705 0.0
H989 H 0.163 0.39162 0.89941 0.0
H990 H 0.16102 0.36963 0.90011 0.0
H991 H 0.17578 0.35746 0.93702 0.0
H992 H 0.2415 0.17385 0.98509 0.0
H993 H 0.25471 0.17331 0.92147 0.0
H994 H 0.22605 0.16033 0.84148 0.0
H995 H 0.21279 0.16093 0.90446 0.0
H996 H 0.26062 0.15365 0.86646 0.0
H997 H 0.23817 0.18967 0.77476 0.0
H998 H 0.23582 0.18722 0.83248 0.0
H999 H 0.22847 0.17805 0.79279 0.0
C1000 C 0.23801 0.17089 0.95395 0.0
C1001 C 0.22607 0.16751 0.94977 0.0
C1002 C 0.24557 0.17058 0.9177 0.0
C1003 C 0.24129 0.16696 0.87673 0.0
C1004 C 0.22945 0.16337 0.87266 0.0
H1005 H 0.26931 0.1586 0.61579 0.0
H1006 H 0.25724 0.15891 0.68224 0.0
C1007 C 0.22191 0.16367 0.90878 0.0
C1008 C 0.24918 0.16683 0.83812 0.0
H1009 H 0.25259 0.17854 0.73598 0.0
C1010 C 0.25894 0.15914 0.83801 0.0
C1011 C 0.24692 0.17401 0.80115 0.0
C1012 C 0.23684 0.18279 0.80026 0.0
C1013 C 0.26634 0.15821 0.80128 0.0
C1014 C 0.26401 0.1653 0.76413 0.0
C1015 C 0.25432 0.17308 0.76447 0.0
C1016 C 0.27147 0.16479 0.7244 0.0
C1017 C 0.2764 0.14941 0.80208 0.0
C1018 C 0.28344 0.16808 0.72612 0.0
C1019 C 0.29037 0.1679 0.68826 0.0
C1020 C 0.28542 0.16451 0.64793 0.0
C1021 C 0.2734 0.16124 0.64634 0.0
C1022 C 0.26649 0.16142 0.68423 0.0
H1023 H 0.27522 0.14268 0.82822 0.0
H1024 H 0.27722 0.1448 0.77014 0.0
H1025 H 0.28483 0.15418 0.80842 0.0
H1026 H 0.28739 0.17093 0.75665 0.0
H1027 H 0.29958 0.17052 0.69057 0.0
H1028 H 0.09154 0.96135 0.16998 0.0
H1029 H 0.09177 0.97296 0.10253 0.0
H1030 H 0.06043 0.99161 0.14441 0.0
H1031 H 0.06018 0.98014 0.21232 0.0
H1032 H 0.07427 0.97441 0.03817 0.0
H1033 H 0.08347 0.01835 0.1124 0.0
H1034 H 0.08546 0.00465 0.14191 0.0
H1035 H 0.07089 0.01079 0.13511 0.0
C1036 C 0.08471 0.96796 0.165 0.0
C1037 C 0.07586 0.96986 0.19661 0.0
C1038 C 0.08486 0.97456 0.1264 0.0
C1039 C 0.0762 0.98322 0.11876 0.0
C1040 C 0.06731 0.98511 0.15008 0.0
H1041 H 0.05875 0.01626 0.8703 0.0
H1042 H 0.05888 0.00424 0.93686 0.0
C1043 C 0.06716 0.97851 0.18876 0.0
C1044 C 0.07636 0.99009 0.07755 0.0
H1045 H 0.07873 0.01811 0.03679 0.0
C1046 C 0.07527 0.98397 0.03779 0.0
C1047 C 0.07781 0.00252 0.07725 0.0
C1048 C 0.07958 0.00948 0.11889 0.0
C1049 C 0.07543 0.98998 0.99762 0.0
C1050 C 0.07655 0.00245 0.9974 0.0
C1051 C 0.07778 0.00855 0.03714 0.0
C1052 C 0.07659 0.00936 0.95626 0.0
C1053 C 0.07463 0.98292 0.95581 0.0
C1054 C 0.08645 0.01633 0.94547 0.0
C1055 C 0.08638 0.02326 0.90764 0.0
C1056 C 0.07642 0.02339 0.88001 0.0
C1057 C 0.06659 0.01631 0.89074 0.0
C1058 C 0.06666 0.00939 0.92866 0.0
H1059 H 0.07688 0.97345 0.96112 0.0
H1060 H 0.06542 0.98336 0.94313 0.0
H1061 H 0.08063 0.98658 0.93043 0.0
H1062 H 0.09418 0.01645 0.96646 0.0
H1063 H 0.09409 0.02862 0.90036 0.0
H1064 H 0.19983 0.81703 0.20521 0.0
H1065 H 0.21434 0.81625 0.26455 0.0
H1066 H 0.24094 0.83088 0.17895 0.0
H1067 H 0.22656 0.83154 0.1192 0.0
H1068 H 0.24894 0.81159 0.2273 0.0
H1069 H 0.22679 0.84476 0.33346 0.0
H1070 H 0.21742 0.83269 0.31715 0.0
H1071 H 0.22296 0.84279 0.27658 0.0
C1072 C 0.20876 0.82009 0.19898 0.0
C1073 C 0.21202 0.8244 0.15754 0.0
C1074 C 0.21702 0.8197 0.233 0.0
C1075 C 0.22865 0.82368 0.22628 0.0
C1076 C 0.23199 0.82782 0.18481 0.0
H1077 H 0.2803 0.84024 0.42707 0.0
H1078 H 0.26649 0.84071 0.36551 0.0
C1079 C 0.22375 0.8282 0.15075 0.0
C1080 C 0.23739 0.82344 0.26235 0.0
H1081 H 0.24293 0.83424 0.36459 0.0
C1082 C 0.24765 0.81656 0.2573 0.0
C1083 C 0.23575 0.83006 0.30113 0.0
C1084 C 0.22519 0.83809 0.3074 0.0
C1085 C 0.25626 0.81598 0.29038 0.0
C1086 C 0.25442 0.82231 0.32974 0.0
C1087 C 0.24425 0.82932 0.3345 0.0
C1088 C 0.26301 0.82188 0.36632 0.0
C1089 C 0.26732 0.80878 0.28258 0.0
C1090 C 0.26556 0.81113 0.38734 0.0
C1091 C 0.27349 0.81082 0.42243 0.0
C1092 C 0.27892 0.82127 0.43737 0.0
C1093 C 0.27629 0.83203 0.41634 0.0
C1094 C 0.26839 0.83232 0.38119 0.0
H1095 H 0.26881 0.80713 0.24716 0.0
H1096 H 0.27524 0.81329 0.29624 0.0
H1097 H 0.26639 0.80007 0.29903 0.0
H1098 H 0.26131 0.80301 0.37695 0.0
H1099 H 0.27526 0.8024 0.43808 0.0
H1100 H 0.40539 0.02349 0.70042 0.0
H1101 H 0.40652 0.00954 0.6395 0.0
H1102 H 0.43859 0.02635 0.59451 0.0
H1103 H 0.43739 0.04054 0.65481 0.0
H1104 H 0.42308 0.02253 0.52832 0.0
H1105 H 0.42854 0.9815 0.62557 0.0
H1106 H 0.41566 0.98981 0.64103 0.0
H1107 H 0.43016 0.99607 0.64912 0.0
C1108 C 0.41273 0.02419 0.67772 0.0
C1109 C 0.42133 0.0331 0.68251 0.0
C1110 C 0.4134 0.01615 0.64308 0.0
C1111 C 0.42276 0.01678 0.61295 0.0
C1112 C 0.43133 0.02568 0.61757 0.0
H1113 H 0.43748 0.96113 0.42305 0.0
H1114 H 0.43885 0.97551 0.48267 0.0
C1115 C 0.43063 0.03377 0.65205 0.0
C1116 C 0.42335 0.00841 0.57569 0.0
H1117 H 0.42374 0.97901 0.55002 0.0
C1118 C 0.42332 0.01301 0.53303 0.0
C1119 C 0.42385 0.99601 0.58192 0.0
C1120 C 0.42468 0.99055 0.62689 0.0
C1121 C 0.42344 0.00553 0.49639 0.0
C1122 C 0.42333 0.99312 0.50265 0.0
C1123 C 0.42369 0.98853 0.54529 0.0
C1124 C 0.42269 0.98473 0.46548 0.0
C1125 C 0.42383 0.01101 0.45137 0.0
C1126 C 0.41312 0.9851 0.43622 0.0
C1127 C 0.41235 0.97695 0.40196 0.0
C1128 C 0.42107 0.96817 0.39671 0.0
C1129 C 0.43062 0.96778 0.4262 0.0
C1130 C 0.43142 0.97599 0.46029 0.0
H1131 H 0.42748 0.02014 0.45235 0.0
H1132 H 0.42928 0.00562 0.42861 0.0
H1133 H 0.41469 0.01153 0.43808 0.0
H1134 H 0.40613 0.99157 0.44027 0.0
H1135 H 0.40483 0.97742 0.38001 0.0
H1136 H 0.77239 0.83698 0.12948 0.0
H1137 H 0.75926 0.83595 0.19293 0.0
H1138 H 0.78451 0.81372 0.25975 0.0
H1139 H 0.79781 0.81485 0.19674 0.0
H1140 H 0.7491 0.81609 0.23128 0.0
H1141 H 0.77809 0.83983 0.34914 0.0
H1142 H 0.78067 0.84006 0.29087 0.0
H1143 H 0.78495 0.82739 0.32275 0.0
C1144 C 0.77519 0.83191 0.15774 0.0
C1145 C 0.78618 0.82605 0.15818 0.0
C1146 C 0.76766 0.83133 0.19392 0.0
C1147 C 0.77099 0.82491 0.23123 0.0
C1148 C 0.78189 0.81893 0.23162 0.0
H1149 H 0.73524 0.81127 0.47855 0.0
H1150 H 0.74887 0.81099 0.41621 0.0
C1151 C 0.78944 0.81954 0.19549 0.0
C1152 C 0.76292 0.82428 0.26931 0.0
H1153 H 0.76061 0.83115 0.37775 0.0
C1154 C 0.7516 0.8194 0.26329 0.0
C1155 C 0.76624 0.82859 0.31101 0.0
C1156 C 0.77811 0.83436 0.31892 0.0
C1157 C 0.74351 0.81865 0.29801 0.0
C1158 C 0.74681 0.82303 0.33959 0.0
C1159 C 0.75816 0.82779 0.34577 0.0
C1160 C 0.73847 0.82304 0.37686 0.0
C1161 C 0.73156 0.81308 0.29009 0.0
C1162 C 0.72819 0.83 0.37537 0.0
C1163 C 0.72042 0.83022 0.41088 0.0
C1164 C 0.7228 0.82347 0.44856 0.0
C1165 C 0.73313 0.81653 0.44995 0.0
C1166 C 0.74093 0.81636 0.41445 0.0
H1167 H 0.73148 0.80764 0.2598 0.0
H1168 H 0.72893 0.8074 0.31813 0.0
H1169 H 0.72482 0.82016 0.28648 0.0
H1170 H 0.72625 0.83537 0.34688 0.0
H1171 H 0.71257 0.8357 0.4088 0.0
H1172 H 0.93141 0.0094 0.86826 0.0
H1173 H 0.93093 0.99756 0.93527 0.0
H1174 H 0.91108 0.02509 0.0 0.0
H1175 H 0.91128 0.03686 0.933 0.0
H1176 H 0.93973 0.00268 0.01619 0.0
H1177 H 0.89112 0.99606 0.02511 0.0
H1178 H 0.89838 0.00165 0.97675 0.0
H1179 H 0.89533 0.01136 0.02204 0.0
C1180 C 0.92688 0.01291 0.89667 0.0
C1181 C 0.92132 0.02404 0.89523 0.0
C1182 C 0.92663 0.00614 0.93493 0.0
C1183 C 0.92081 0.01037 0.97237 0.0
C1184 C 0.91537 0.02154 0.97118 0.0
H1185 H 0.93065 0.98438 0.23802 0.0
H1186 H 0.93091 0.996 0.17048 0.0
C1187 C 0.91555 0.02828 0.93289 0.0
C1188 C 0.92068 0.00324 0.013 0.0
H1189 H 0.90224 0.99055 0.08802 0.0
C1190 C 0.93154 -2e-05 0.03184 0.0
C1191 C 0.90998 -0.00039 0.03301 0.0
C1192 C 0.89804 0.00224 0.01299 0.0
C1193 C 0.932 0.99331 0.07053 0.0
C1194 C 0.92129 0.99005 0.09138 0.0
C1195 C 0.91044 0.99318 0.07222 0.0
C1196 C 0.92113 0.98311 0.13249 0.0
C1197 C 0.94393 0.98962 0.08816 0.0
C1198 C 0.91525 0.97218 0.13387 0.0
C1199 C 0.91495 0.9656 0.17249 0.0
C1200 C 0.92055 0.96982 0.21051 0.0
C1201 C 0.92635 0.98083 0.20918 0.0
C1202 C 0.92657 0.98745 0.17055 0.0
H1203 H 0.95089 0.98998 0.06252 0.0
H1204 H 0.94655 0.99574 0.11485 0.0
H1205 H 0.94361 0.9805 0.10168 0.0
H1206 H 0.91095 0.96869 0.10491 0.0
H1207 H 0.91039 0.95716 0.1724 0.0
H1208 H 0.77215 0.16096 0.94046 0.0
H1209 H 0.75916 0.16166 0.87656 0.0
H1210 H 0.78465 0.18337 0.80867 0.0
H1211 H 0.79782 0.18255 0.87217 0.0
H1212 H 0.74912 0.18117 0.83628 0.0
H1213 H 0.7784 0.1568 0.72121 0.0
H1214 H 0.78089 0.15696 0.77954 0.0
H1215 H 0.78515 0.16945 0.74664 0.0
C1216 C 0.77502 0.16586 0.9119 0.0
C1217 C 0.78605 0.17165 0.9113 0.0
C1218 C 0.76758 0.16625 0.87544 0.0
C1219 C 0.77102 0.17242 0.83769 0.0
C1220 C 0.78194 0.17835 0.83715 0.0
H1221 H 0.73499 0.18431 0.5893 0.0
H1222 H 0.74881 0.18497 0.65106 0.0
C1223 C 0.78942 0.17793 0.87357 0.0
C1224 C 0.76304 0.1728 0.79932 0.0
H1225 H 0.76087 0.1651 0.69157 0.0
C1226 C 0.75168 0.17765 0.80465 0.0
C1227 C 0.76643 0.16821 0.7581 0.0
C1228 C 0.77834 0.16246 0.75094 0.0
C1229 C 0.74362 0.17807 0.76978 0.0
C1230 C 0.74697 0.17339 0.72873 0.0
C1231 C 0.75837 0.16869 0.72316 0.0
C1232 C 0.73863 0.17299 0.69149 0.0
C1233 C 0.73161 0.1836 0.77698 0.0
C1234 C 0.72845 0.16591 0.69373 0.0
C1235 C 0.72057 0.16548 0.65857 0.0
C1236 C 0.72275 0.17212 0.62049 0.0
C1237 C 0.73303 0.17913 0.61822 0.0
C1238 C 0.74094 0.17951 0.6534 0.0
H1239 H 0.73145 0.18925 0.80673 0.0
H1240 H 0.72896 0.18904 0.74836 0.0
H1241 H 0.72492 0.17648 0.78118 0.0
H1242 H 0.72663 0.16067 0.72264 0.0
H1243 H 0.71276 0.15995 0.66131 0.0
H1244 H 0.5567 0.03808 0.65761 0.0
H1245 H 0.55523 0.0237 0.59802 0.0
H1246 H 0.58752 0.00705 0.64176 0.0
H1247 H 0.58891 0.0212 0.70198 0.0
H1248 H 0.57045 0.01967 0.53109 0.0
H1249 H 0.56544 0.97895 0.63043 0.0
H1250 H 0.56392 0.99359 0.65343 0.0
H1251 H 0.57838 0.98733 0.64471 0.0
C1252 C 0.56345 0.03131 0.65472 0.0
C1253 C 0.57289 0.03074 0.68464 0.0
C1254 C 0.56259 0.02311 0.62065 0.0
C1255 C 0.57115 0.01419 0.6159 0.0
C1256 C 0.58065 0.01367 0.64546 0.0
H1257 H 0.5878 0.97419 0.3832 0.0
H1258 H 0.58695 0.98837 0.44345 0.0
C1259 C 0.58148 0.02182 0.6797 0.0
C1260 C 0.57039 0.0057 0.57906 0.0
H1261 H 0.56983 0.97622 0.55466 0.0
C1262 C 0.57022 0.01017 0.53622 0.0
C1263 C 0.56991 0.99332 0.58586 0.0
C1264 C 0.56929 0.98801 0.6311 0.0
C1265 C 0.56991 0.00258 0.49991 0.0
C1266 C 0.57004 0.99019 0.50669 0.0
C1267 C 0.56987 0.98573 0.54954 0.0
C1268 C 0.57046 0.98169 0.46982 0.0
C1269 C 0.56931 0.00792 0.4547 0.0
C1270 C 0.56163 0.97302 0.46534 0.0
C1271 C 0.56217 0.9648 0.43123 0.0
C1272 C 0.57156 0.9651 0.40103 0.0
C1273 C 0.5804 0.97378 0.4057 0.0
C1274 C 0.57989 0.98194 0.43996 0.0
H1275 H 0.56572 0.01707 0.45553 0.0
H1276 H 0.57838 0.00834 0.44073 0.0
H1277 H 0.56371 0.00249 0.43258 0.0
H1278 H 0.55431 0.97264 0.4882 0.0
H1279 H 0.55523 0.95823 0.42855 0.0
H1280 H 0.72647 0.6625 0.44285 0.0
H1281 H 0.73891 0.66219 0.37736 0.0
H1282 H 0.71219 0.68155 0.30633 0.0
H1283 H 0.69967 0.68195 0.37168 0.0
H1284 H 0.73224 0.65255 0.29262 0.0
H1285 H 0.74348 0.70051 0.28656 0.0
H1286 H 0.73802 0.69342 0.33554 0.0
H1287 H 0.72803 0.69691 0.29172 0.0
C1288 C 0.72325 0.66676 0.4134 0.0
C1289 C 0.71209 0.67228 0.41249 0.0
C1290 C 0.73036 0.66655 0.37603 0.0
C1291 C 0.7265 0.67195 0.33727 0.0
C1292 C 0.71539 0.67748 0.33618 0.0
H1293 H 0.76078 0.67983 0.08317 0.0
H1294 H 0.74674 0.68052 0.14421 0.0
C1295 C 0.70823 0.67766 0.37349 0.0
C1296 C 0.734 0.67148 0.29768 0.0
H1297 H 0.75039 0.6886 0.22844 0.0
C1298 C 0.73622 0.66042 0.27851 0.0
C1299 C 0.73906 0.68179 0.27933 0.0
C1300 C 0.73713 0.69384 0.29938 0.0
C1301 C 0.74339 0.65938 0.24127 0.0
C1302 C 0.7487 0.66966 0.22344 0.0
C1303 C 0.74632 0.68074 0.24224 0.0
C1304 C 0.75705 0.66904 0.18618 0.0
C1305 C 0.74511 0.64731 0.22106 0.0
C1306 C 0.76755 0.66247 0.1898 0.0
C1307 C 0.77554 0.66201 0.15503 0.0
C1308 C 0.77326 0.66824 0.11608 0.0
C1309 C 0.76278 0.67491 0.11268 0.0
C1310 C 0.75476 0.67533 0.1475 0.0
H1311 H 0.73783 0.64116 0.23015 0.0
H1312 H 0.74557 0.64788 0.18483 0.0
H1313 H 0.75353 0.64345 0.23313 0.0
H1314 H 0.76963 0.65778 0.21975 0.0
H1315 H 0.78357 0.65685 0.15887 0.0
H1316 H 0.55864 0.51784 0.35862 0.0
H1317 H 0.55654 0.50623 0.42585 0.0
H1318 H 0.58675 0.52414 0.48131 0.0
H1319 H 0.58888 0.53585 0.41461 0.0
H1320 H 0.57309 0.49101 0.46522 0.0
H1321 H 0.56102 0.52814 0.57535 0.0
H1322 H 0.56045 0.52934 0.51647 0.0
H1323 H 0.57436 0.53065 0.54473 0.0
C1324 C 0.56483 0.51933 0.38516 0.0
C1325 C 0.57389 0.52781 0.38137 0.0
C1326 C 0.56361 0.51269 0.4235 0.0
C1327 C 0.57137 0.51449 0.45874 0.0
C1328 C 0.58052 0.52281 0.45481 0.0
H1329 H 0.58874 0.46954 0.67596 0.0
H1330 H 0.58806 0.48116 0.60868 0.0
C1331 C 0.58176 0.52944 0.41654 0.0
C1332 C 0.57013 0.50744 0.49927 0.0
H1333 H 0.56626 0.50989 0.60966 0.0
C1334 C 0.5715 0.49512 0.49677 0.0
C1335 C 0.56789 0.51282 0.54024 0.0
C1336 C 0.56573 0.52595 0.54447 0.0
C1337 C 0.5711 0.48805 0.53448 0.0
C1338 C 0.56944 0.4935 0.5757 0.0
C1339 C 0.56766 0.50577 0.57802 0.0
C1340 C 0.56983 0.48663 0.61687 0.0
C1341 C 0.57243 0.47481 0.52988 0.0
C1342 C 0.5599 0.48616 0.64442 0.0
C1343 C 0.56027 0.47957 0.68313 0.0
C1344 C 0.57061 0.47341 0.695 0.0
C1345 C 0.58061 0.47412 0.66768 0.0
C1346 C 0.58023 0.48069 0.62906 0.0
H1347 H 0.57039 0.4718 0.49609 0.0
H1348 H 0.58172 0.4723 0.53731 0.0
H1349 H 0.56654 0.47006 0.55308 0.0
H1350 H 0.55183 0.49077 0.63567 0.0
H1351 H 0.55243 0.47923 0.70349 0.0
H1352 H 0.71169 0.33676 0.67173 0.0
H1353 H 0.72571 0.33569 0.73256 0.0
H1354 H 0.74792 0.31215 0.65769 0.0
H1355 H 0.73395 0.31316 0.59649 0.0
H1356 H 0.73343 0.3141 0.77673 0.0
H1357 H 0.77037 0.33932 0.70014 0.0
H1358 H 0.75531 0.34022 0.68049 0.0
H1359 H 0.76416 0.32743 0.66838 0.0
C1360 C 0.71957 0.33139 0.66806 0.0
C1361 C 0.72172 0.32505 0.62923 0.0
C1362 C 0.72756 0.33078 0.70287 0.0
C1363 C 0.73787 0.32394 0.69934 0.0
C1364 C 0.74007 0.3176 0.66072 0.0
H1365 H 0.79647 0.31293 0.88025 0.0
H1366 H 0.78316 0.31244 0.81704 0.0
C1367 C 0.73205 0.31816 0.62591 0.0
C1368 C 0.74617 0.32323 0.73663 0.0
H1369 H 0.7739 0.33116 0.77001 0.0
C1370 C 0.74229 0.31782 0.77535 0.0
C1371 C 0.75771 0.32803 0.73443 0.0
C1372 C 0.76217 0.33416 0.6938 0.0
C1373 C 0.74968 0.31705 0.81211 0.0
C1374 C 0.76115 0.32208 0.81028 0.0
C1375 C 0.76509 0.32734 0.7713 0.0
C1376 C 0.7691 0.32222 0.84879 0.0
C1377 C 0.7452 0.31072 0.85232 0.0
C1378 C 0.76565 0.32799 0.88737 0.0
C1379 C 0.77319 0.32825 0.92356 0.0
C1380 C 0.78439 0.32283 0.92167 0.0
C1381 C 0.78789 0.31716 0.8828 0.0
C1382 C 0.78031 0.31688 0.84665 0.0
H1383 H 0.73788 0.30451 0.84427 0.0
H1384 H 0.75241 0.30568 0.86855 0.0
H1385 H 0.74173 0.31733 0.87591 0.0
H1386 H 0.75715 0.33241 0.88935 0.0
H1387 H 0.77026 0.33277 0.95288 0.0
H1388 H 0.91745 0.52115 0.20655 0.0
H1389 H 0.91824 0.50862 0.14145 0.0
H1390 H 0.91963 0.53966 0.05949 0.0
H1391 H 0.91878 0.55232 0.12448 0.0
H1392 H 0.90288 0.52205 0.03277 0.0
H1393 H 0.94762 0.50329 0.06249 0.0
H1394 H 0.93769 0.50218 0.10826 0.0
H1395 H 0.94237 0.51651 0.08946 0.0
C1396 C 0.91794 0.52534 0.17471 0.0
C1397 C 0.9181 0.53774 0.17067 0.0
C1398 C 0.91846 0.51816 0.13759 0.0
C1399 C 0.91916 0.52324 0.09582 0.0
C1400 C 0.91916 0.5356 0.09155 0.0
H1401 H 0.93446 0.48331 0.85782 0.0
H1402 H 0.93458 0.4982 0.91605 0.0
C1403 C 0.91869 0.5428 0.12869 0.0
C1404 C 0.91963 0.5156 0.0566 0.0
H1405 H 0.93598 0.49397 0.00734 0.0
C1406 C 0.91015 0.51597 0.02695 0.0
C1407 C 0.92921 0.5078 0.04893 0.0
C1408 C 0.93986 0.50746 0.07871 0.0
C1409 C 0.90981 0.50844 0.99048 0.0
C1410 C 0.91913 0.50027 0.98392 0.0
C1411 C 0.9288 0.50018 0.01274 0.0
C1412 C 0.91886 0.49149 0.94805 0.0
C1413 C 0.89948 0.50927 0.9593 0.0
C1414 C 0.91005 0.48274 0.94714 0.0
C1415 C 0.90997 0.47422 0.91408 0.0
C1416 C 0.91874 0.47427 0.88139 0.0
C1417 C 0.92757 0.48304 0.88245 0.0
C1418 C 0.92766 0.49155 0.91566 0.0
H1419 H 0.8948 0.51788 0.96231 0.0
H1420 H 0.90245 0.50813 0.92491 0.0
H1421 H 0.89305 0.50212 0.96686 0.0
H1422 H 0.90331 0.48242 0.97234 0.0
H1423 H 0.90306 0.46756 0.91428 0.0
H1424 H 0.3018 0.32239 0.68306 0.0
H1425 H 0.28957 0.32172 0.74908 0.0
H1426 H 0.26145 0.33978 0.68076 0.0
H1427 H 0.27352 0.34035 0.61444 0.0
H1428 H 0.27979 0.34048 0.79631 0.0
H1429 H 0.24479 0.31074 0.73186 0.0
H1430 H 0.25892 0.31259 0.70506 0.0
H1431 H 0.24745 0.32348 0.69814 0.0
C1432 C 0.293 0.32618 0.682 0.0
C1433 C 0.2886 0.33136 0.64343 0.0
C1434 C 0.28604 0.3258 0.71976 0.0
C1435 C 0.27455 0.33053 0.71955 0.0
C1436 C 0.2702 0.33584 0.6813 0.0
H1437 H 0.2182 0.3423 0.90194 0.0
H1438 H 0.23182 0.34157 0.84004 0.0
C1439 C 0.27714 0.33622 0.64351 0.0
C1440 C 0.2672 0.33016 0.75959 0.0
H1441 H 0.24066 0.32049 0.79928 0.0
C1442 C 0.27128 0.33602 0.79718 0.0
C1443 C 0.25614 0.32428 0.76055 0.0
C1444 C 0.2516 0.31731 0.72189 0.0
C1445 C 0.26438 0.33653 0.83532 0.0
C1446 C 0.2532 0.33089 0.83587 0.0
C1447 C 0.24923 0.32483 0.79858 0.0
C1448 C 0.24526 0.33154 0.87421 0.0
C1449 C 0.2689 0.34339 0.87425 0.0
C1450 C 0.24832 0.32609 0.91389 0.0
C1451 C 0.24053 0.32647 0.94947 0.0
C1452 C 0.22956 0.33228 0.94578 0.0
C1453 C 0.22658 0.33776 0.90594 0.0
C1454 C 0.23434 0.33735 0.87049 0.0
H1455 H 0.27658 0.34909 0.86567 0.0
H1456 H 0.26178 0.34904 0.88816 0.0
H1457 H 0.27176 0.33709 0.90004 0.0
H1458 H 0.25665 0.32141 0.91713 0.0
H1459 H 0.24307 0.32214 0.97965 0.0
H1460 H 0.40681 0.53074 0.40627 0.0
H1461 H 0.40669 0.51717 0.46854 0.0
H1462 H 0.43923 0.50141 0.42299 0.0
H1463 H 0.43949 0.51502 0.36068 0.0
H1464 H 0.40647 0.49216 0.4663 0.0
H1465 H 0.44613 0.50975 0.55219 0.0
H1466 H 0.43854 0.5179 0.50982 0.0
H1467 H 0.4484 0.50602 0.49564 0.0
C1468 C 0.41398 0.52443 0.40954 0.0
C1469 C 0.42319 0.52399 0.37859 0.0
C1470 C 0.41388 0.51668 0.44512 0.0
C1471 C 0.42302 0.5084 0.45058 0.0
C1472 C 0.4322 0.50788 0.4197 0.0
H1473 H 0.42252 0.44613 0.61682 0.0
H1474 H 0.42319 0.45999 0.55539 0.0
C1475 C 0.4323 0.51562 0.38402 0.0
C1476 C 0.42276 0.50013 0.48808 0.0
H1477 H 0.43774 0.49208 0.58043 0.0
C1478 C 0.41329 0.49213 0.4913 0.0
C1479 C 0.43161 0.50024 0.52081 0.0
C1480 C 0.4417 0.509 0.51985 0.0
C1481 C 0.41251 0.48411 0.52621 0.0
C1482 C 0.42152 0.48402 0.55835 0.0
C1483 C 0.43091 0.49212 0.55546 0.0
C1484 C 0.42127 0.47565 0.59554 0.0
C1485 C 0.40197 0.47592 0.5288 0.0
C1486 C 0.42023 0.4799 0.63846 0.0
C1487 C 0.41987 0.47202 0.67366 0.0
C1488 C 0.42064 0.45974 0.66651 0.0
C1489 C 0.42185 0.45553 0.62344 0.0
C1490 C 0.42218 0.46342 0.58828 0.0
H1491 H 0.39458 0.47895 0.50759 0.0
H1492 H 0.40465 0.46694 0.51779 0.0
H1493 H 0.39871 0.4752 0.56297 0.0
H1494 H 0.41956 0.48933 0.64466 0.0
H1495 H 0.41895 0.47555 0.70644 0.0
H1496 H 0.2797 0.6551 0.43145 0.0
H1497 H 0.26559 0.65576 0.37091 0.0
H1498 H 0.25013 0.68756 0.42416 0.0
H1499 H 0.26429 0.68705 0.48483 0.0
H1500 H 0.24043 0.65561 0.37546 0.0
H1501 H 0.25802 0.69621 0.29561 0.0
H1502 H 0.26635 0.68796 0.33577 0.0
H1503 H 0.25457 0.69759 0.35281 0.0
C1504 C 0.27333 0.66227 0.4303 0.0
C1505 C 0.27316 0.67107 0.46285 0.0
C1506 C 0.26526 0.6626 0.39572 0.0
C1507 C 0.25693 0.67177 0.39288 0.0
C1508 C 0.25663 0.68051 0.42548 0.0
H1509 H 0.19524 0.67229 0.22126 0.0
H1510 H 0.20845 0.67307 0.28466 0.0
C1511 C 0.26469 0.68017 0.46019 0.0
C1512 C 0.24848 0.67205 0.35593 0.0
H1513 H 0.24065 0.68787 0.26526 0.0
C1514 C 0.24043 0.66267 0.3514 0.0
C1515 C 0.24864 0.68123 0.32447 0.0
C1516 C 0.25741 0.69129 0.327 0.0
C1517 C 0.23249 0.66222 0.31616 0.0
C1518 C 0.23254 0.67147 0.28501 0.0
C1519 C 0.2406 0.68085 0.28946 0.0
C1520 C 0.22454 0.67136 0.24673 0.0
C1521 C 0.2243 0.65172 0.31193 0.0
C1522 C 0.22925 0.67041 0.20444 0.0
C1523 C 0.22174 0.66998 0.16815 0.0
C1524 C 0.20938 0.67058 0.17356 0.0
C1525 C 0.20471 0.67176 0.21599 0.0
C1526 C 0.21223 0.67216 0.25226 0.0
H1527 H 0.22709 0.64423 0.33314 0.0
H1528 H 0.21522 0.65439 0.32177 0.0
H1529 H 0.22392 0.64859 0.27752 0.0
H1530 H 0.23874 0.66983 0.19957 0.0
H1531 H 0.22563 0.66911 0.13591 0.0
H1532 H 0.07457 0.55188 0.15136 0.0
H1533 H 0.0718 0.53958 0.08622 0.0
H1534 H 0.08539 0.50932 0.15608 0.0
H1535 H 0.08806 0.52148 0.22146 0.0
H1536 H 0.08873 0.52658 0.0393 0.0
H1537 H 0.0538 0.49732 0.10716 0.0
H1538 H 0.05795 0.51114 0.13258 0.0
H1539 H 0.06687 0.49812 0.14053 0.0
C1540 C 0.07693 0.5426 0.15293 0.0
C1541 C 0.08147 0.53764 0.19167 0.0
C1542 C 0.07535 0.5356 0.11567 0.0
C1543 C 0.07821 0.52352 0.11661 0.0
C1544 C 0.08289 0.51858 0.155 0.0
H1545 H 0.08076 0.46487 0.93922 0.0
H1546 H 0.08188 0.47873 0.00037 0.0
C1547 C 0.08447 0.52556 0.19225 0.0
C1548 C 0.07654 0.5161 0.0772 0.0
H1549 H 0.06266 0.4912 0.04008 0.0
C1550 C 0.08294 0.51891 0.03923 0.0
C1551 C 0.06895 0.50613 0.07731 0.0
C1552 C 0.06141 0.50304 0.11643 0.0
C1553 C 0.08229 0.51174 0.00178 0.0
C1554 C 0.07491 0.50163 0.00229 0.0
C1555 C 0.06833 0.49896 0.03994 0.0
C1556 C 0.07424 0.49341 0.96473 0.0
C1557 C 0.08977 0.51481 0.96249 0.0
C1558 C 0.06948 0.49707 0.92455 0.0
C1559 C 0.06881 0.48916 0.88943 0.0
C1560 C 0.07287 0.47745 0.89405 0.0
C1561 C 0.07757 0.47382 0.9345 0.0
C1562 C 0.07821 0.48172 0.96952 0.0
H1563 H 0.09669 0.52147 0.97046 0.0
H1564 H 0.09414 0.50677 0.94916 0.0
H1565 H 0.08402 0.51854 0.93648 0.0
H1566 H 0.06621 0.50602 0.92047 0.0
H1567 H 0.06511 0.49221 0.85875 0.0
H1568 H 0.20441 0.20388 0.13386 0.0
H1569 H 0.20239 0.22537 0.1379 0.0
H1570 H 0.18088 0.22506 0.02128 0.0
H1571 H 0.18271 0.2035 0.01727 0.0
H1572 H 0.21028 0.24065 0.07369 0.0
H1573 H 0.16213 0.24684 0.10292 0.0
H1574 H 0.16951 0.23284 0.11142 0.0
H1575 H 0.16564 0.23753 0.05708 0.0
C1576 C 0.19911 0.20835 0.10937 0.0
C1577 C 0.19375 0.20198 0.07515 0.0
C1578 C 0.19796 0.22063 0.11178 0.0
C1579 C 0.19139 0.22679 0.08017 0.0
C1580 C 0.18579 0.22045 0.04651 0.0
H1581 H 0.18505 0.30104 0.0132 0.0
H1582 H 0.18296 0.27949 0.01768 0.0
C1583 C 0.18691 0.20814 0.04412 0.0
C1584 C 0.19131 0.23989 0.08038 0.0
H1585 H 0.17326 0.26412 0.08543 0.0
C1586 C 0.2022 0.24578 0.07659 0.0
C1587 C 0.18073 0.24653 0.08383 0.0
C1588 C 0.16884 0.24064 0.08943 0.0
C1589 C 0.2028 0.25817 0.0756 0.0
C1590 C 0.19224 0.26482 0.0792 0.0
C1591 C 0.18133 0.25896 0.08282 0.0
C1592 C 0.19245 0.2779 0.07886 0.0
C1593 C 0.21472 0.26403 0.06978 0.0
C1594 C 0.19818 0.28412 0.11245 0.0
C1595 C 0.19942 0.2964 0.10999 0.0
C1596 C 0.1949 0.30267 0.07393 0.0
C1597 C 0.18868 0.29646 0.0413 0.0
C1598 C 0.18746 0.28416 0.04381 0.0
H1599 H 0.22151 0.25773 0.0575 0.0
H1600 H 0.2141 0.27158 0.04664 0.0
H1601 H 0.21779 0.2675 0.10179 0.0
H1602 H 0.20194 0.27944 0.1401 0.0
H1603 H 0.20417 0.30092 0.13585 0.0
H1604 H 0.0457 0.9327 0.28116 0.0
H1605 H 0.02425 0.93047 0.28883 0.0
H1606 H 0.02707 0.93724 0.42725 0.0
H1607 H 0.04853 0.93956 0.41998 0.0
H1608 H 0.0103 0.91497 0.34486 0.0
H1609 H 0.00384 0.96288 0.38012 0.0
H1610 H 0.01734 0.95714 0.35666 0.0
H1611 H 0.01443 0.95532 0.41401 0.0
C1612 C 0.04178 0.93363 0.31332 0.0
C1613 C 0.04881 0.93641 0.34991 0.0
C1614 C 0.02953 0.93233 0.31763 0.0
C1615 C 0.02409 0.93385 0.35848 0.0
C1616 C 0.03111 0.9362 0.39534 0.0
H1617 H 0.94939 0.93997 0.42624 0.0
H1618 H 0.9709 0.93765 0.43056 0.0
C1619 C 0.04337 0.93748 0.39112 0.0
C1620 C 0.01104 0.93344 0.36204 0.0
H1621 H 0.98686 0.95079 0.38146 0.0
C1622 C 0.00515 0.92277 0.35302 0.0
C1623 C 0.00439 0.94365 0.37269 0.0
C1624 C 0.01027 0.95544 0.38112 0.0
C1625 C 0.99274 0.92204 0.35443 0.0
C1626 C 0.98609 0.93231 0.36436 0.0
C1627 C 0.992 0.94292 0.37404 0.0
C1628 C 0.97298 0.93246 0.36286 0.0
C1629 C 0.98686 0.91029 0.34559 0.0
C1630 C 0.96702 0.93023 0.32342 0.0
C1631 C 0.95474 0.93155 0.32081 0.0
C1632 C 0.94819 0.9352 0.35756 0.0
C1633 C 0.95416 0.93712 0.39734 0.0
C1634 C 0.96645 0.93581 0.39989 0.0
H1635 H 0.99305 0.90279 0.35108 0.0
H1636 H 0.97895 0.90906 0.3667 0.0
H1637 H 0.98394 0.90999 0.31094 0.0
H1638 H 0.97192 0.92787 0.29423 0.0
H1639 H 0.95043 0.93004 0.28964 0.0
H1640 H 0.31825 0.79542 0.52365 0.0
H1641 H 0.32124 0.774 0.52576 0.0
H1642 H 0.31055 0.77336 0.66115 0.0
H1643 H 0.30771 0.79484 0.65966 0.0
H1644 H 0.33014 0.7582 0.64098 0.0
H1645 H 0.29217 0.75201 0.52742 0.0
H1646 H 0.30359 0.76169 0.50755 0.0
H1647 H 0.29506 0.76588 0.55472 0.0
C1648 C 0.31667 0.79076 0.55406 0.0
C1649 C 0.3126 0.79682 0.59136 0.0
C1650 C 0.31835 0.77852 0.55514 0.0
C1651 C 0.3159 0.7721 0.59335 0.0
C1652 C 0.31244 0.77817 0.63129 0.0
H1653 H 0.30857 0.69839 0.66333 0.0
H1654 H 0.31173 0.71979 0.66416 0.0
C1655 C 0.3108 0.79044 0.63033 0.0
C1656 C 0.31621 0.75901 0.59296 0.0
H1657 H 0.30289 0.73491 0.54704 0.0
C1658 C 0.32421 0.75308 0.62044 0.0
C1659 C 0.30841 0.75239 0.56624 0.0
C1660 C 0.29924 0.75828 0.53757 0.0
C1661 C 0.32472 0.74065 0.62145 0.0
C1662 C 0.3169 0.73405 0.59476 0.0
C1663 C 0.30894 0.74001 0.56721 0.0
C1664 C 0.31644 0.72095 0.59565 0.0
C1665 C 0.33371 0.73471 0.6506 0.0
C1666 C 0.318 0.71451 0.55684 0.0
C1667 C 0.31608 0.70229 0.55613 0.0
C1668 C 0.3125 0.69631 0.59424 0.0
C1669 C 0.31135 0.70272 0.63345 0.0
C1670 C 0.31324 0.71495 0.63407 0.0
H1671 H 0.3411 0.74078 0.65912 0.0
H1672 H 0.32934 0.73196 0.68148 0.0
H1673 H 0.33744 0.72668 0.63472 0.0
H1674 H 0.32041 0.71899 0.52678 0.0
H1675 H 0.31708 0.69762 0.52541 0.0
H1676 H 0.44786 0.06859 0.80226 0.0
H1677 H 0.46947 0.07039 0.80697 0.0
H1678 H 0.47092 0.03863 0.88507 0.0
H1679 H 0.44942 0.0367 0.88039 0.0
H1680 H 0.48597 0.07076 0.88236 0.0
H1681 H 0.49117 0.03169 0.77359 0.0
H1682 H 0.47738 0.03968 0.77861 0.0
H1683 H 0.48176 0.02931 0.82016 0.0
C1684 C 0.45276 0.06208 0.82092 0.0
C1685 C 0.44695 0.05242 0.8405 0.0
C1686 C 0.46509 0.06313 0.8236 0.0
C1687 C 0.47175 0.05454 0.8458 0.0
C1688 C 0.46591 0.04525 0.86727 0.0
H1689 H 0.54442 0.03482 0.8776 0.0
H1690 H 0.52304 0.03757 0.88298 0.0
C1691 C 0.45363 0.04418 0.86457 0.0
C1692 C 0.48482 0.05477 0.8443 0.0
H1693 H 0.50856 0.03895 0.80764 0.0
C1694 C 0.49095 0.06388 0.86583 0.0
C1695 C 0.49123 0.04579 0.8224 0.0
C1696 C 0.48508 0.03611 0.79701 0.0
C1697 C 0.5034 0.06399 0.86732 0.0
C1698 C 0.50977 0.05484 0.84631 0.0
C1699 C 0.50362 0.0459 0.82402 0.0
C1700 C 0.52285 0.05412 0.84741 0.0
C1701 C 0.50963 0.07366 0.89235 0.0
C1702 C 0.52983 0.06262 0.82609 0.0
C1703 C 0.5421 0.06108 0.82291 0.0
C1704 C 0.54753 0.05096 0.84076 0.0
C1705 C 0.54052 0.04269 0.86334 0.0
C1706 C 0.5283 0.04424 0.86651 0.0
H1707 H 0.50346 0.07862 0.91395 0.0
H1708 H 0.5169 0.06993 0.9126 0.0
H1709 H 0.51361 0.08001 0.86887 0.0
H1710 H 0.52575 0.07021 0.8105 0.0
H1711 H 0.54725 0.0676 0.8052 0.0
H1712 H 0.17968 0.7983 0.91272 0.0
H1713 H 0.17547 0.77715 0.90403 0.0
H1714 H 0.17626 0.77275 0.04415 0.0
H1715 H 0.18034 0.7938 0.05321 0.0
H1716 H 0.19057 0.75943 0.93171 0.0
H1717 H 0.14676 0.75409 0.01008 0.0
H1718 H 0.15237 0.76832 0.99272 0.0
H1719 H 0.15697 0.76204 0.04413 0.0
C1720 C 0.17874 0.79287 0.94172 0.0
C1721 C 0.18038 0.79772 0.98367 0.0
C1722 C 0.17633 0.78079 0.93666 0.0
C1723 C 0.17538 0.77342 0.97345 0.0
C1724 C 0.17668 0.77832 0.01535 0.0
H1725 H 0.18164 0.70312 0.05817 0.0
H1726 H 0.17779 0.72412 0.04605 0.0
C1727 C 0.17912 0.79035 0.02044 0.0
C1728 C 0.17433 0.76043 0.96838 0.0
H1729 H 0.15882 0.73648 0.00514 0.0
C1730 C 0.1835 0.7544 0.94688 0.0
C1731 C 0.16508 0.75391 0.9882 0.0
C1732 C 0.15467 0.75994 0.0097 0.0
C1733 C 0.1841 0.74199 0.94721 0.0
C1734 C 0.17517 0.73548 0.969 0.0
C1735 C 0.16567 0.7415 0.98857 0.0
C1736 C 0.17622 0.72255 0.97575 0.0
C1737 C 0.19467 0.73599 0.92658 0.0
C1738 C 0.17629 0.71467 0.94027 0.0
C1739 C 0.17854 0.70262 0.94705 0.0
C1740 C 0.18071 0.6983 0.98947 0.0
C1741 C 0.18008 0.70616 0.02506 0.0
C1742 C 0.17784 0.71817 0.01823 0.0
H1743 H 0.20176 0.74239 0.91784 0.0
H1744 H 0.19843 0.72924 0.94906 0.0
H1745 H 0.19183 0.7314 0.89623 0.0
H1746 H 0.17487 0.71787 0.90729 0.0
H1747 H 0.17889 0.69678 0.91898 0.0
H1748 H 0.44991 0.96107 0.20466 0.0
H1749 H 0.47101 0.9568 0.19862 0.0
H1750 H 0.46612 0.92437 0.27083 0.0
H1751 H 0.44492 0.92865 0.2776 0.0
H1752 H 0.48373 0.93846 0.30434 0.0
H1753 H 0.48992 0.93335 0.12585 0.0
H1754 H 0.48215 0.94671 0.13944 0.0
H1755 H 0.47553 0.93258 0.15154 0.0
C1756 C 0.45326 0.95293 0.21872 0.0
C1757 C 0.44574 0.94522 0.24173 0.0
C1758 C 0.46533 0.95046 0.21489 0.0
C1759 C 0.4701 0.94018 0.23367 0.0
C1760 C 0.46258 0.9323 0.25578 0.0
H1761 H 0.54611 0.92676 0.27732 0.0
H1762 H 0.5248 0.92309 0.2701 0.0
C1763 C 0.45048 0.93477 0.25961 0.0
C1764 C 0.48309 0.93837 0.23395 0.0
H1765 H 0.50742 0.93811 0.16766 0.0
C1766 C 0.48892 0.93813 0.2745 0.0
C1767 C 0.48981 0.93795 0.19494 0.0
C1768 C 0.48402 0.93754 0.1505 0.0
C1769 C 0.50132 0.93821 0.27711 0.0
C1770 C 0.50805 0.93833 0.23807 0.0
C1771 C 0.50223 0.93804 0.19751 0.0
C1772 C 0.52106 0.93986 0.23879 0.0
C1773 C 0.50713 0.93882 0.32156 0.0
C1774 C 0.52603 0.95031 0.2222 0.0
C1775 C 0.53816 0.95242 0.22611 0.0
C1776 C 0.54556 0.94408 0.24657 0.0
C1777 C 0.54063 0.93339 0.26162 0.0
C1778 C 0.52846 0.93129 0.25769 0.0
H1779 H 0.50065 0.94078 0.34796 0.0
H1780 H 0.51137 0.9302 0.32895 0.0
H1781 H 0.51412 0.94574 0.32202 0.0
H1782 H 0.52045 0.95702 0.20742 0.0
H1783 H 0.54167 0.96071 0.21394 0.0
H1784 H 0.31559 0.19843 0.50901 0.0
H1785 H 0.31825 0.21999 0.50711 0.0
H1786 H 0.28096 0.22444 0.48135 0.0
H1787 H 0.27819 0.20303 0.48344 0.0
H1788 H 0.31237 0.23702 0.43914 0.0
H1789 H 0.28731 0.24435 0.59289 0.0
H1790 H 0.29297 0.23001 0.57718 0.0
H1791 H 0.27952 0.23556 0.55326 0.0
C1792 C 0.30797 0.204 0.50275 0.0
C1793 C 0.29666 0.19902 0.49676 0.0
C1794 C 0.30951 0.2163 0.50164 0.0
C1795 C 0.29976 0.22377 0.49479 0.0
C1796 C 0.28856 0.21881 0.48744 0.0
H1797 H 0.28104 0.29641 0.47598 0.0
H1798 H 0.28281 0.27489 0.47486 0.0
C1799 C 0.287 0.20656 0.48851 0.0
C1800 C 0.30114 0.23678 0.49603 0.0
H1801 H 0.29112 0.26139 0.54909 0.0
C1802 C 0.30787 0.24238 0.46344 0.0
C1803 C 0.2953 0.24369 0.52801 0.0
C1804 C 0.28846 0.23811 0.56509 0.0
C1805 C 0.30843 0.25479 0.46077 0.0
C1806 C 0.30219 0.26168 0.49176 0.0
C1807 C 0.29582 0.25606 0.5252 0.0
C1808 C 0.30158 0.27473 0.48902 0.0
C1809 C 0.31526 0.26047 0.42395 0.0
C1810 C 0.3116 0.28176 0.49703 0.0
C1811 C 0.31062 0.29412 0.49777 0.0
C1812 C 0.29959 0.29959 0.49066 0.0
C1813 C 0.28966 0.29249 0.48166 0.0
C1814 C 0.29065 0.28018 0.48101 0.0
H1815 H 0.31804 0.25392 0.39884 0.0
H1816 H 0.30984 0.26744 0.40793 0.0
H1817 H 0.32332 0.26477 0.43734 0.0
H1818 H 0.32009 0.27769 0.50387 0.0
H1819 H 0.31843 0.29935 0.50491 0.0
H1820 H 0.95374 0.06004 0.82382 0.0
H1821 H 0.97513 0.06197 0.81538 0.0
H1822 H 0.97034 0.07446 0.68325 0.0
H1823 H 0.9488 0.07266 0.69148 0.0
H1824 H 0.98771 0.04918 0.75008 0.0
H1825 H 0.9949 0.09784 0.73694 0.0
H1826 H 0.98161 0.09159 0.76043 0.0
H1827 H 0.98371 0.09145 0.70227 0.0
C1828 C 0.95719 0.06337 0.79312 0.0
C1829 C 0.94957 0.06614 0.75821 0.0
C1830 C 0.96942 0.06447 0.7884 0.0
C1831 C 0.97429 0.06841 0.74881 0.0
C1832 C 0.96673 0.07157 0.71429 0.0
H1833 H 0.04963 0.06832 0.67693 0.0
H1834 H 0.02807 0.071 0.67392 0.0
C1835 C 0.95444 0.07049 0.71901 0.0
C1836 C 0.98728 0.06814 0.74292 0.0
H1837 H 0.0118 0.08558 0.73109 0.0
C1838 C 0.99298 0.05713 0.74572 0.0
C1839 C 0.99407 0.07853 0.73678 0.0
C1840 C 0.98833 0.09056 0.73416 0.0
C1841 C 0.00533 0.05624 0.74356 0.0
C1842 C 0.01216 0.06665 0.73911 0.0
C1843 C 0.00648 0.07764 0.7347 0.0
C1844 C 0.02521 0.06621 0.74159 0.0
C1845 C 0.011 0.04416 0.7465 0.0
C1846 C 0.03068 0.06294 0.78093 0.0
C1847 C 0.04292 0.0614 0.7828 0.0
C1848 C 0.04993 0.06312 0.74531 0.0
C1849 C 0.04447 0.06688 0.70632 0.0
C1850 C 0.03217 0.06844 0.70452 0.0
H1851 H 0.00458 0.03697 0.73916 0.0
H1852 H 0.01859 0.04343 0.72354 0.0
H1853 H 0.0144 0.04278 0.78019 0.0
H1854 H 0.02543 0.06132 0.80998 0.0
H1855 H 0.04684 0.05858 0.81343 0.0
H1856 H 0.79922 0.7 0.9343 0.0
H1857 H 0.80233 0.72135 0.93683 0.0
H1858 H 0.8236 0.7174 0.05314 0.0
H1859 H 0.82037 0.69598 0.05134 0.0
H1860 H 0.80592 0.73321 0.06388 0.0
H1861 H 0.82977 0.74333 0.91038 0.0
H1862 H 0.81678 0.73456 0.90071 0.0
H1863 H 0.82879 0.72851 0.93237 0.0
C1864 C 0.80475 0.70363 0.95999 0.0
C1865 C 0.80948 0.6963 0.99279 0.0
C1866 C 0.8066 0.71585 0.96115 0.0
C1867 C 0.81333 0.72095 0.99483 0.0
C1868 C 0.81845 0.71361 0.02669 0.0
H1869 H 0.82174 0.79841 0.01276 0.0
H1870 H 0.82656 0.77724 0.00854 0.0
C1871 C 0.81658 0.70139 0.02563 0.0
C1872 C 0.81375 0.734 -0.00037 0.0
H1873 H 0.81911 0.7596 0.94359 0.0
C1874 C 0.80901 0.73898 0.03789 0.0
C1875 C 0.81788 0.74152 0.96591 0.0
C1876 C 0.82371 0.7367 0.92523 0.0
C1877 C 0.80769 0.75125 0.04232 0.0
C1878 C 0.81104 0.75871 0.00734 0.0
C1879 C 0.8164 0.75382 0.97009 0.0
C1880 C 0.80829 0.77149 0.00793 0.0
C1881 C 0.80248 0.75613 0.08406 0.0
C1882 C 0.79644 0.7752 0.00799 0.0
C1883 C 0.79366 0.78721 0.01028 0.0
C1884 C 0.8027 0.79576 0.01247 0.0
C1885 C 0.81459 0.79203 0.01128 0.0
C1886 C 0.81736 0.77997 0.00883 0.0
H1887 H 0.80338 0.74977 0.11159 0.0
H1888 H 0.80682 0.76459 0.09335 0.0
H1889 H 0.7929 0.75788 0.07905 0.0
H1890 H 0.78932 0.76877 0.00661 0.0
H1891 H 0.78442 0.78977 0.01089 0.0
H1892 H 0.68393 0.20066 0.42163 0.0
H1893 H 0.68093 0.22214 0.4216 0.0
H1894 H 0.67646 0.22161 0.56167 0.0
H1895 H 0.67957 0.20021 0.56221 0.0
H1896 H 0.66207 0.23729 0.45562 0.0
H1897 H 0.70533 0.24358 0.53933 0.0
H1898 H 0.70119 0.22981 0.51355 0.0
H1899 H 0.69534 0.2336 0.5664 0.0
C1900 C 0.68217 0.20509 0.45237 0.0
C1901 C 0.68215 0.19875 0.492 0.0
C1902 C 0.68043 0.21735 0.45225 0.0
C1903 C 0.67867 0.22343 0.4917 0.0
C1904 C 0.678 0.21706 0.53097 0.0
H1905 H 0.67913 0.29672 0.57012 0.0
H1906 H 0.67642 0.2753 0.56611 0.0
C1907 C 0.67976 0.20483 0.53117 0.0
C1908 C 0.67833 0.23651 0.49234 0.0
H1909 H 0.69343 0.26059 0.53001 0.0
C1910 C 0.66891 0.24242 0.47177 0.0
C1911 C 0.68733 0.24313 0.51324 0.0
C1912 C 0.69794 0.23724 0.53407 0.0
C1913 C 0.66813 0.25484 0.47251 0.0
C1914 C 0.67708 0.26143 0.49384 0.0
C1915 C 0.68653 0.25549 0.51402 0.0
C1916 C 0.67704 0.27453 0.49543 0.0
C1917 C 0.65764 0.26079 0.4513 0.0
C1918 C 0.67811 0.28121 0.45693 0.0
C1919 C 0.67965 0.29348 0.45908 0.0
C1920 C 0.68026 0.29924 0.49982 0.0
C1921 C 0.67875 0.29256 0.53823 0.0
C1922 C 0.67718 0.28032 0.53602 0.0
H1923 H 0.65018 0.25453 0.4463 0.0
H1924 H 0.65448 0.26836 0.47139 0.0
H1925 H 0.66032 0.26427 0.41883 0.0
H1926 H 0.67826 0.27688 0.4253 0.0
H1927 H 0.68081 0.29837 0.4289 0.0
H1928 H 0.81219 0.29176 0.03017 0.0
H1929 H 0.81627 0.27071 0.03984 0.0
H1930 H 0.82079 0.27609 0.17852 0.0
H1931 H 0.81656 0.29724 0.1693 0.0
H1932 H 0.83599 0.25838 0.07729 0.0
H1933 H 0.79394 0.25131 0.16925 0.0
H1934 H 0.79675 0.26465 0.13849 0.0
H1935 H 0.80393 0.26234 0.19018 0.0
C1936 C 0.81413 0.28851 0.06274 0.0
C1937 C 0.81391 0.29615 0.09906 0.0
C1938 C 0.81651 0.27648 0.06816 0.0
C1939 C 0.81867 0.27185 0.10993 0.0
C1940 C 0.81896 0.2795 0.14609 0.0
H1941 H 0.8161 0.19553 0.16355 0.0
H1942 H 0.82028 0.21659 0.17495 0.0
C1943 C 0.81658 0.29157 0.14071 0.0
C1944 C 0.81994 0.2589 0.11531 0.0
H1945 H 0.80506 0.2345 0.15148 0.0
C1946 C 0.82933 0.25314 0.09405 0.0
C1947 C 0.81126 0.25212 0.13739 0.0
C1948 C 0.80084 0.25786 0.15996 0.0
C1949 C 0.83004 0.24075 0.09292 0.0
C1950 C 0.82101 0.23397 0.11291 0.0
C1951 C 0.81197 0.23973 0.13617 0.0
C1952 C 0.81998 0.22104 0.10611 0.0
C1953 C 0.84034 0.23502 0.06965 0.0
C1954 C 0.81846 0.21657 0.06365 0.0
C1955 C 0.81605 0.20459 0.05703 0.0
C1956 C 0.81501 0.19684 0.09281 0.0
C1957 C 0.81685 0.20126 0.1353 0.0
C1958 C 0.81925 0.21328 0.14189 0.0
H1959 H 0.84822 0.2409 0.06952 0.0
H1960 H 0.84278 0.22646 0.0851 0.0
H1961 H 0.83784 0.2333 0.03511 0.0
H1962 H 0.81869 0.22244 0.03564 0.0
H1963 H 0.81467 0.20149 0.02389 0.0
H1964 H 0.68593 0.70439 0.52297 0.0
H1965 H 0.68172 0.72539 0.53304 0.0
H1966 H 0.67513 0.71943 0.67023 0.0
H1967 H 0.67947 0.69832 0.66063 0.0
H1968 H 0.66132 0.73745 0.5673 0.0
H1969 H 0.70197 0.74441 0.66767 0.0
H1970 H 0.69972 0.7312 0.63552 0.0
H1971 H 0.69178 0.7332 0.68584 0.0
C1972 C 0.68351 0.7075 0.55529 0.0
C1973 C 0.68316 0.6997 0.59112 0.0
C1974 C 0.68106 0.7195 0.56092 0.0
C1975 C 0.67826 0.72396 0.60245 0.0
C1976 C 0.67744 0.71616 0.63804 0.0
H1977 H 0.67939 0.80007 0.661 0.0
H1978 H 0.67536 0.7789 0.67034 0.0
C1979 C 0.67989 0.70411 0.63244 0.0
C1980 C 0.67683 0.73688 0.60827 0.0
H1981 H 0.691 0.76123 0.64864 0.0
C1982 C 0.6677 0.74266 0.58559 0.0
C1983 C 0.68514 0.74362 0.63237 0.0
C1984 C 0.69527 0.73786 0.65658 0.0
C1985 C 0.6669 0.75505 0.58507 0.0
C1986 C 0.6756 0.76181 0.60713 0.0
C1987 C 0.68435 0.75601 0.63173 0.0
C1988 C 0.6766 0.77478 0.60136 0.0
C1989 C 0.65689 0.7608 0.56026 0.0
C1990 C 0.6786 0.77947 0.5595 0.0
C1991 C 0.68092 0.79151 0.55406 0.0
C1992 C 0.68138 0.79911 0.59046 0.0
C1993 C 0.67909 0.79446 0.6323 0.0
C1994 C 0.67677 0.78237 0.63771 0.0
H1995 H 0.64906 0.75486 0.55836 0.0
H1996 H 0.65417 0.76928 0.57572 0.0
H1997 H 0.65983 0.76268 0.52632 0.0
H1998 H 0.6788 0.77373 0.53112 0.0
H1999 H 0.68268 0.79478 0.52139 0.0
H2000 H 0.54461 0.43606 0.77536 0.0
H2001 H 0.5237 0.43121 0.78451 0.0
H2002 H 0.52964 0.42385 0.92119 0.0
H2003 H 0.55064 0.42883 0.91253 0.0
H2004 H 0.512 0.41037 0.8167 0.0
H2005 H 0.50413 0.45018 0.92052 0.0
H2006 H 0.51743 0.44839 0.88844 0.0
H2007 H 0.51553 0.44012 0.93808 0.0
C2008 C 0.54152 0.43332 0.80734 0.0
C2009 C 0.54927 0.43296 0.84334 0.0
C2010 C 0.52957 0.43051 0.81245 0.0
C2011 C 0.52512 0.42732 0.85361 0.0
C2012 C 0.53289 0.42646 0.88929 0.0
H2013 H 0.44903 0.42664 0.91233 0.0
H2014 H 0.47027 0.42281 0.92108 0.0
C2015 C 0.54489 0.42927 0.88422 0.0
C2016 C 0.51222 0.42559 0.8591 0.0
H2017 H 0.48756 0.43894 0.90069 0.0
C2018 C 0.50664 0.4165 0.83555 0.0
C2019 C 0.5053 0.43359 0.88391 0.0
C2020 C 0.51083 0.44368 0.90902 0.0
C2021 C 0.49426 0.41543 0.83494 0.0
C2022 C 0.48732 0.42381 0.85782 0.0
C2023 C 0.49292 0.43252 0.88319 0.0
C2024 C 0.47431 0.42456 0.8522 0.0
C2025 C 0.48873 0.40547 0.80919 0.0
C2026 C 0.46956 0.42674 0.81057 0.0
C2027 C 0.45748 0.42895 0.80546 0.0
C2028 C 0.44991 0.42911 0.84198 0.0
C2029 C 0.45462 0.42657 0.88354 0.0
C2030 C 0.46674 0.42438 0.88862 0.0
H2031 H 0.49485 0.39779 0.80658 0.0
H2032 H 0.48032 0.40246 0.82438 0.0
H2033 H 0.48679 0.40859 0.77553 0.0
H2034 H 0.47527 0.42722 0.78215 0.0
H2035 H 0.45415 0.43088 0.773 0.0
H2036 H 0.95052 0.56945 0.34244 0.0
H2037 H 0.97146 0.57448 0.35401 0.0
H2038 H 0.98182 0.54167 0.2929 0.0
H2039 H 0.96109 0.53659 0.28114 0.0
H2040 H 0.98873 0.56093 0.40143 0.0
H2041 H 0.00144 0.56711 0.22805 0.0
H2042 H 0.98622 0.56746 0.24631 0.0
H2043 H 0.99354 0.55353 0.23718 0.0
C2044 C 0.95728 0.56335 0.33125 0.0
C2045 C 0.95415 0.55263 0.31076 0.0
C2046 C 0.96921 0.56624 0.33791 0.0
C2047 C 0.97815 0.55852 0.32367 0.0
C2048 C 0.97504 0.54784 0.30335 0.0
H2049 H 0.04692 0.53874 0.39108 0.0
H2050 H 0.02588 0.54346 0.38877 0.0
C2051 C 0.96317 0.54492 0.29691 0.0
C2052 C 0.99079 0.56123 0.33138 0.0
H2053 H 0.01728 0.56271 0.27823 0.0
C2054 C 0.99498 0.56157 0.37457 0.0
C2055 C -0.00112 0.56229 0.29631 0.0
C2056 C 0.99479 0.56271 0.24935 0.0
C2057 C 0.00716 0.56207 0.38353 0.0
C2058 C 0.0153 0.56204 0.34834 0.0
C2059 C 0.01105 0.5626 0.30523 0.0
C2060 C 0.02816 0.56016 0.35499 0.0
C2061 C 0.0112 0.5623 0.43055 0.0
C2062 C 0.03647 0.56795 0.33658 0.0
C2063 C 0.04855 0.5652 0.33746 0.0
C2064 C 0.0525 0.55456 0.35644 0.0
C2065 C 0.04419 0.54701 0.37625 0.0
C2066 C 0.03214 0.54975 0.37533 0.0
H2067 H 0.00443 0.56648 0.45195 0.0
H2068 H 0.01253 0.55309 0.44214 0.0
H2069 H 0.01968 0.56719 0.43422 0.0
H2070 H 0.03357 0.57598 0.3204 0.0
H2071 H 0.05473 0.57121 0.32191 0.0
H2072 H 0.94339 0.42578 0.68754 0.0
H2073 H 0.96469 0.42193 0.68184 0.0
H2074 H 0.96885 0.42999 0.81892 0.0
H2075 H 0.94766 0.43368 0.8251 0.0
H2076 H 0.98198 0.43838 0.69745 0.0
H2077 H 0.98838 0.40003 0.80719 0.0
H2078 H 0.97399 0.40428 0.78665 0.0
H2079 H 0.98024 0.41166 0.8335 0.0
C2080 C 0.94881 0.42653 0.71664 0.0
C2081 C 0.94383 0.43006 0.75676 0.0
C2082 C 0.96097 0.42432 0.7133 0.0
C2083 C 0.96832 0.4255 0.75009 0.0
C2084 C 0.96331 0.42874 0.79035 0.0
H2085 H 0.03819 0.43863 0.82862 0.0
H2086 H 0.01719 0.43432 0.81858 0.0
C2087 C 0.95119 0.43094 0.79373 0.0
C2088 C 0.98135 0.42456 0.74592 0.0
H2089 H 0.00566 0.41223 0.79418 0.0
C2090 C 0.98718 0.43247 0.71781 0.0
C2091 C 0.98809 0.41682 0.77246 0.0
C2092 C 0.98234 0.40764 0.8013 0.0
C2093 C -0.00043 0.43343 0.71775 0.0
C2094 C 0.00626 0.42617 0.74618 0.0
C2095 C 0.00048 0.41782 0.77259 0.0
C2096 C 0.01913 0.42797 0.75222 0.0
C2097 C 0.00538 0.44266 0.68924 0.0
C2098 C 0.02718 0.42564 0.71835 0.0
C2099 C 0.03923 0.4281 0.72394 0.0
C2100 C 0.04338 0.43294 0.76351 0.0
C2101 C 0.03529 0.43497 0.79766 0.0
C2102 C 0.02329 0.43248 0.79207 0.0
H2103 H -0.00119 0.44869 0.67385 0.0
H2104 H 0.01171 0.44804 0.70868 0.0
H2105 H 0.01044 0.43822 0.66281 0.0
H2106 H 0.02412 0.42203 0.68751 0.0
H2107 H 0.04525 0.42639 0.69709 0.0
H2108 H 0.45002 0.56804 0.30363 0.0
H2109 H 0.47131 0.57202 0.30167 0.0
H2110 H 0.47333 0.55679 0.17247 0.0
H2111 H 0.45206 0.55301 0.17372 0.0
H2112 H 0.48808 0.55506 0.2958 0.0
H2113 H 0.49325 0.58626 0.15747 0.0
H2114 H 0.47908 0.58326 0.18251 0.0
H2115 H 0.48512 0.57322 0.14259 0.0
C2116 C 0.45496 0.56573 0.27447 0.0
C2117 C 0.44935 0.56018 0.23886 0.0
C2118 C 0.46712 0.56802 0.2734 0.0
C2119 C 0.47388 0.56485 0.23671 0.0
C2120 C 0.46825 0.55959 0.20068 0.0
H2121 H 0.54655 0.55138 0.17699 0.0
H2122 H 0.52517 0.55483 0.1764 0.0
C2123 C 0.45609 0.55735 0.20161 0.0
C2124 C 0.48696 0.56586 0.2379 0.0
H2125 H 0.5109 0.5762 0.1812 0.0
C2126 C 0.49306 0.55984 0.27116 0.0
C2127 C 0.49344 0.57207 0.20557 0.0
C2128 C 0.48738 0.57917 0.17027 0.0
C2129 C 0.50547 0.55947 0.27205 0.0
C2130 C 0.51194 0.56542 0.23913 0.0
C2131 C 0.50588 0.57166 0.20636 0.0
C2132 C 0.52501 0.56467 0.23711 0.0
C2133 C 0.51154 0.5523 0.30721 0.0
C2134 C 0.532 0.56939 0.27077 0.0
C2135 C 0.54422 0.56741 0.27131 0.0
C2136 C 0.54963 0.5607 0.23808 0.0
C2137 C 0.54266 0.55652 0.20321 0.0
C2138 C 0.53044 0.55851 0.20273 0.0
H2139 H 0.50527 0.54638 0.32471 0.0
H2140 H 0.51875 0.54682 0.29304 0.0
H2141 H 0.51555 0.55839 0.33156 0.0
H2142 H 0.52797 0.57432 0.29725 0.0
H2143 H 0.54935 0.57083 0.29847 0.0
H2144 H 0.21085 0.16402 0.16087 0.0
H2145 H 0.22296 0.16028 0.22524 0.0
H2146 H 0.23151 0.12548 0.17643 0.0
H2147 H 0.21963 0.1293 0.11076 0.0
H2148 H 0.22194 0.14396 0.28904 0.0
H2149 H 0.26408 0.13937 0.1963 0.0
H2150 H 0.25061 0.14463 0.17122 0.0
H2151 H 0.25264 0.12909 0.18142 0.0
C2152 C 0.21524 0.15553 0.16376 0.0
C2153 C 0.21436 0.14699 0.13043 0.0
C2154 C 0.22216 0.1534 0.20069 0.0
C2155 C 0.22831 0.14269 0.20532 0.0
C2156 C 0.22707 0.13392 0.17303 0.0
H2157 H 0.26416 0.13214 0.45867 0.0
H2158 H 0.2516 0.12842 0.39484 0.0
C2159 C 0.22022 0.13609 0.13568 0.0
C2160 C 0.2362 0.14101 0.24362 0.0
H2161 H 0.26523 0.1379 0.27287 0.0
C2162 C 0.2314 0.14252 0.2856 0.0
C2163 C 0.24855 0.13923 0.23892 0.0
C2164 C 0.25433 0.13808 0.19458 0.0
C2165 C 0.23863 0.14276 0.32291 0.0
C2166 C 0.25099 0.14108 0.3182 0.0
C2167 C 0.25574 0.13912 0.27637 0.0
C2168 C 0.25926 0.14242 0.3556 0.0
C2169 C 0.23302 0.14548 0.36663 0.0
C2170 C 0.26811 0.15114 0.35398 0.0
C2171 C 0.27544 0.15313 0.39002 0.0
C2172 C 0.27399 0.1465 0.42855 0.0
C2173 C 0.26539 0.1375 0.42962 0.0
C2174 C 0.25816 0.1354 0.39328 0.0
H2175 H 0.224 0.14929 0.36296 0.0
H2176 H 0.23222 0.13717 0.38579 0.0
H2177 H 0.23853 0.1518 0.38562 0.0
H2178 H 0.26915 0.15664 0.32519 0.0
H2179 H 0.28199 0.16012 0.38811 0.0
H2180 H 0.11138 0.98103 0.35172 0.0
H2181 H 0.11535 0.99356 0.41539 0.0
H2182 H 0.08938 0.97408 0.48983 0.0
H2183 H 0.08563 0.96132 0.42695 0.0
H2184 H 0.10065 0.00817 0.45559 0.0
H2185 H 0.11616 0.97512 0.57573 0.0
H2186 H 0.11486 0.9718 0.51816 0.0
H2187 H 0.10209 0.97094 0.55339 0.0
C2188 C 0.10663 0.97932 0.38185 0.0
C2189 C 0.09821 0.97016 0.38434 0.0
C2190 C 0.10891 0.98648 0.4182 0.0
C2191 C 0.10281 0.98463 0.45764 0.0
C2192 C 0.09445 0.97546 0.4602 0.0
H2193 H 0.08257 0.03368 0.65489 0.0
H2194 H 0.08536 0.02176 0.58925 0.0
C2195 C 0.09225 0.96822 0.42406 0.0
C2196 C 0.10448 0.99282 0.49508 0.0
H2197 H 0.10876 0.99349 0.60557 0.0
C2198 C 0.10261 0.00498 0.48827 0.0
C2199 C 0.10728 0.98872 0.53759 0.0
C2200 C 0.11034 0.97594 0.54656 0.0
C2201 C 0.10284 0.01304 0.52317 0.0
C2202 C 0.10466 0.00878 0.56618 0.0
C2203 C 0.10717 0.99673 0.57268 0.0
C2204 C 0.10331 0.01651 0.60507 0.0
C2205 C 0.10106 0.02602 0.51355 0.0
C2206 C 0.11237 0.01732 0.63641 0.0
C2207 C 0.11073 0.02401 0.67444 0.0
C2208 C 0.09999 0.03 0.68179 0.0
C2209 C 0.09099 0.02926 0.6501 0.0
C2210 C 0.0926 0.02252 0.61233 0.0
H2211 H 0.10394 0.02825 0.47977 0.0
H2212 H 0.0915 0.02818 0.51618 0.0
H2213 H 0.10603 0.03168 0.53693 0.0
H2214 H 0.12067 0.01268 0.63161 0.0
H2215 H 0.11783 0.02438 0.69825 0.0
H2216 H 0.23248 0.8539 0.97395 0.0
H2217 H 0.24465 0.85582 0.90814 0.0
H2218 H 0.21842 0.83661 0.83407 0.0
H2219 H 0.20612 0.83478 0.89937 0.0
H2220 H 0.25393 0.83702 0.8631 0.0
H2221 H 0.226 0.86404 0.75269 0.0
H2222 H 0.22334 0.8631 0.81086 0.0
H2223 H 0.2182 0.85157 0.77491 0.0
C2224 C 0.2292 0.85026 0.94349 0.0
C2225 C 0.21834 0.84416 0.94193 0.0
C2226 C 0.23617 0.85137 0.90593 0.0
C2227 C 0.23237 0.84648 0.86612 0.0
C2228 C 0.22139 0.84068 0.8642 0.0
H2229 H 0.26009 0.82514 0.61999 0.0
H2230 H 0.24849 0.83007 0.68491 0.0
C2231 C 0.21441 0.83957 0.90169 0.0
C2232 C 0.24035 0.84638 0.82769 0.0
H2233 H 0.24161 0.85284 0.71869 0.0
C2234 C 0.25134 0.84066 0.83168 0.0
C2235 C 0.23693 0.85113 0.78678 0.0
C2236 C 0.22552 0.85791 0.78108 0.0
C2237 C 0.25875 0.83903 0.79534 0.0
C2238 C 0.25512 0.84341 0.75412 0.0
C2239 C 0.24432 0.84947 0.75038 0.0
C2240 C 0.26206 0.84105 0.71403 0.0
C2241 C 0.27012 0.83217 0.80089 0.0
C2242 C 0.27347 0.84576 0.70869 0.0
C2243 C 0.28016 0.84293 0.67161 0.0
C2244 C 0.27551 0.83539 0.63927 0.0
C2245 C 0.26396 0.83093 0.64436 0.0
C2246 C 0.2573 0.83376 0.68136 0.0
H2247 H 0.27054 0.82754 0.83291 0.0
H2248 H 0.27114 0.82553 0.77437 0.0
H2249 H 0.27774 0.83837 0.79899 0.0
H2250 H 0.27723 0.85153 0.73334 0.0
H2251 H 0.289 0.84657 0.66852 0.0
H2252 H 0.4031 0.04137 0.93211 0.0
H2253 H 0.40018 0.02922 0.99739 0.0
H2254 H 0.38292 0.00246 0.91955 0.0
H2255 H 0.38575 0.01456 0.85391 0.0
H2256 H 0.37224 0.00771 0.00696 0.0
H2257 H 0.42058 -0.00186 0.00899 0.0
H2258 H 0.41662 0.01355 0.00654 0.0
H2259 H 0.41311 0.00398 0.96143 0.0
C2260 C 0.39853 0.03298 0.92888 0.0
C2261 C 0.39479 0.02886 0.8877 0.0
C2262 C 0.39688 0.02606 0.96622 0.0
C2263 C 0.39148 0.01491 0.96304 0.0
C2264 C 0.38714 0.01105 0.92252 0.0
H2265 H 0.40146 0.95797 0.14876 0.0
H2266 H 0.39848 0.96944 0.08193 0.0
C2267 C 0.3888 0.01796 0.88507 0.0
C2268 C 0.39123 0.00693 0.00129 0.0
H2269 H 0.40935 0.99113 0.06878 0.0
C2270 C 0.38033 0.00404 0.02054 0.0
C2271 C 0.4018 0.00204 0.0183 0.0
C2272 C 0.4137 0.00448 0.99765 0.0
C2273 C 0.37975 0.99656 0.05724 0.0
C2274 C 0.39037 0.99197 0.07502 0.0
C2275 C 0.40123 0.99469 0.05513 0.0
C2276 C 0.39057 0.98447 0.11469 0.0
C2277 C 0.36782 0.99355 0.07642 0.0
C2278 C 0.38695 0.98906 0.15518 0.0
C2279 C 0.38864 0.98252 0.19351 0.0
C2280 C 0.39407 0.97132 0.19198 0.0
C2281 C 0.39728 0.96657 0.15113 0.0
C2282 C 0.39558 0.97311 0.11288 0.0
H2283 H 0.36054 0.9952 0.05274 0.0
H2284 H 0.3675 0.98413 0.08683 0.0
H2285 H 0.36624 -0.00085 0.10565 0.0
H2286 H 0.38327 0.99789 0.15739 0.0
H2287 H 0.38608 0.98644 0.22444 0.0
H2288 H 0.75799 0.83738 0.96599 0.0
H2289 H 0.74732 0.8408 0.89774 0.0
H2290 H 0.77991 0.85117 0.83485 0.0
H2291 H 0.79075 0.84749 0.90289 0.0
H2292 H 0.74457 0.86044 0.84544 0.0
H2293 H 0.76821 0.82457 0.75645 0.0
H2294 H 0.76925 0.82636 0.81495 0.0
H2295 H 0.77762 0.83582 0.77916 0.0
C2296 C 0.76291 0.84044 0.93774 0.0
C2297 C 0.77525 0.84203 0.93973 0.0
C2298 C 0.75678 0.84241 0.89877 0.0
C2299 C 0.76285 0.84603 0.86105 0.0
C2300 C 0.7751 0.84812 0.86334 0.0
H2301 H 0.73577 0.85208 0.59396 0.0
H2302 H 0.74795 0.85459 0.65956 0.0
C2303 C 0.78126 0.84606 0.90229 0.0
C2304 C 0.75634 0.84721 0.81921 0.0
H2305 H 0.75406 0.83544 0.71665 0.0
C2306 C 0.74668 0.85503 0.81718 0.0
C2307 C 0.75911 0.84012 0.78242 0.0
C2308 C 0.76904 0.83116 0.78326 0.0
C2309 C 0.73963 0.85585 0.77947 0.0
C2310 C 0.74227 0.84859 0.74312 0.0
C2311 C 0.75211 0.84102 0.74465 0.0
C2312 C 0.73454 0.84813 0.70411 0.0
C2313 C 0.72939 0.86442 0.77883 0.0
C2314 C 0.72298 0.84369 0.70759 0.0
C2315 C 0.71602 0.84217 0.67023 0.0
C2316 C 0.72052 0.84507 0.62869 0.0
C2317 C 0.73202 0.84978 0.62547 0.0
C2318 C 0.739 0.85123 0.66286 0.0
H2319 H 0.73039 0.87141 0.80415 0.0
H2320 H 0.72854 0.8687 0.74627 0.0
H2321 H 0.72106 0.85954 0.78557 0.0
H2322 H 0.71946 0.84105 0.73909 0.0
H2323 H 0.70721 0.83851 0.67383 0.0
H2324 H 0.93315 0.02567 0.66475 0.0
H2325 H 0.92708 0.01397 0.60151 0.0
H2326 H 0.89042 0.02152 0.62963 0.0
H2327 H 0.89641 0.03322 0.69347 0.0
H2328 H 0.89516 0.99738 0.61259 0.0
H2329 H 0.91414 0.02643 0.48449 0.0
H2330 H 0.9246 0.02269 0.52652 0.0
H2331 H 0.91175 0.03137 0.54 0.0
C2332 C 0.9238 0.02491 0.65746 0.0
C2333 C 0.91527 0.03042 0.68407 0.0
C2334 C 0.92035 0.01827 0.62114 0.0
C2335 C 0.90832 0.01705 0.61056 0.0
C2336 C 0.89975 0.02244 0.63715 0.0
H2337 H 0.89106 0.98368 0.3601 0.0
H2338 H 0.89011 0.99712 0.42281 0.0
C2339 C 0.9032 0.02913 0.67352 0.0
C2340 C 0.90478 0.00978 0.57249 0.0
H2341 H 0.9095 0.00656 0.46295 0.0
C2342 C 0.89814 -0.00054 0.57973 0.0
C2343 C 0.90849 0.01262 0.5296 0.0
C2344 C 0.91504 0.02395 0.51951 0.0
C2345 C 0.89567 0.99156 0.54545 0.0
C2346 C 0.90011 0.994 0.50314 0.0
C2347 C 0.90619 0.00464 0.49551 0.0
C2348 C 0.89933 0.98532 0.46694 0.0
C2349 C 0.88846 0.98061 0.55497 0.0
C2350 C 0.90474 0.97419 0.47111 0.0
C2351 C 0.9053 0.9665 0.43542 0.0
C2352 C 0.90055 0.96983 0.39472 0.0
C2353 C 0.89481 0.98084 0.39098 0.0
C2354 C 0.89425 0.98853 0.42676 0.0
H2355 H 0.88263 0.98193 0.58386 0.0
H2356 H 0.88289 0.9781 0.52648 0.0
H2357 H 0.89453 0.97315 0.56235 0.0
H2358 H 0.90896 0.97163 0.50151 0.0
H2359 H 0.90982 0.9581 0.43941 0.0
H2360 H 0.78804 0.14945 0.16258 0.0
H2361 H 0.77609 0.14474 0.2272 0.0
H2362 H 0.74753 0.16607 0.17659 0.0
H2363 H 0.75932 0.17076 0.11194 0.0
H2364 H 0.76699 0.1614 0.28679 0.0
H2365 H 0.73094 0.13507 0.21122 0.0
H2366 H 0.74489 0.1378 0.18403 0.0
H2367 H 0.73355 0.14899 0.18451 0.0
C2368 C 0.77917 0.15304 0.165 0.0
C2369 C 0.77462 0.16048 0.13213 0.0
C2370 C 0.77237 0.15034 0.2019 0.0
C2371 C 0.76088 0.15491 0.20627 0.0
C2372 C 0.75628 0.16225 0.17336 0.0
H2373 H 0.70676 0.163 0.39855 0.0
H2374 H 0.71904 0.16185 0.33285 0.0
C2375 C 0.76308 0.16498 0.13659 0.0
C2376 C 0.75395 0.15276 0.24655 0.0
H2377 H 0.72735 0.14242 0.28346 0.0
C2378 C 0.7584 0.1571 0.28628 0.0
C2379 C 0.74275 0.14716 0.2456 0.0
C2380 C 0.73778 0.14188 0.20413 0.0
C2381 C 0.7517 0.15647 0.32486 0.0
C2382 C 0.74036 0.15114 0.32369 0.0
C2383 C 0.73605 0.1465 0.28418 0.0
C2384 C 0.73257 0.15094 0.36262 0.0
C2385 C 0.7566 0.16198 0.36607 0.0
C2386 C 0.73598 0.14492 0.40072 0.0
C2387 C 0.72901 0.14559 0.43842 0.0
C2388 C 0.71848 0.15224 0.4385 0.0
C2389 C 0.71485 0.15784 0.39966 0.0
C2390 C 0.72184 0.15719 0.36206 0.0
H2391 H 0.76422 0.16792 0.35919 0.0
H2392 H 0.74966 0.16714 0.38336 0.0
H2393 H 0.7597 0.15487 0.38837 0.0
H2394 H 0.74413 0.13986 0.40151 0.0
H2395 H 0.73201 0.1411 0.46769 0.0
H2396 H 0.59047 0.95543 0.15121 0.0
H2397 H 0.59394 0.96675 0.0843 0.0
H2398 H 0.60802 0.99564 0.16052 0.0
H2399 H 0.60471 0.98435 0.22764 0.0
H2400 H 0.58298 0.98828 0.06854 0.0
H2401 H 0.63188 0.99284 0.05949 0.0
H2402 H 0.62468 0.98181 0.09304 0.0
H2403 H 0.6256 0.9969 0.11138 0.0
C2404 C 0.5945 0.96411 0.15375 0.0
C2405 C 0.59725 0.96902 0.19478 0.0
C2406 C 0.59648 0.97056 0.11547 0.0
C2407 C 0.60133 0.98198 0.11746 0.0
C2408 C 0.60448 0.98675 0.15821 0.0
H2409 H 0.59047 0.03876 0.93377 0.0
H2410 H 0.59289 0.02653 -0.0009 0.0
C2411 C 0.6025 0.98031 0.19656 0.0
C2412 C 0.60187 0.98936 0.07752 0.0
H2413 H 0.62054 0.0052 0.01184 0.0
C2414 C 0.5912 0.99191 0.05599 0.0
C2415 C 0.61262 0.99403 0.06119 0.0
C2416 C 0.62437 0.99118 0.08218 0.0
C2417 C 0.59095 -0.00079 0.01898 0.0
C2418 C 0.60163 0.00419 0.00344 0.0
C2419 C 0.61236 0.00145 0.02428 0.0
C2420 C 0.60169 0.01219 0.96527 0.0
C2421 C 0.57925 0.00153 0.99662 0.0
C2422 C 0.60622 0.00831 0.92508 0.0
C2423 C 0.60484 0.01527 0.88759 0.0
C2424 C 0.59894 0.02623 0.88989 0.0
C2425 C 0.595 0.03035 0.9308 0.0
C2426 C 0.59636 0.02337 0.96817 0.0
H2427 H 0.57229 0.99521 0.0073 0.0
H2428 H 0.57623 0.01062 0.00465 0.0
H2429 H 0.58021 0.00092 0.96053 0.0
H2430 H 0.61038 -0.0003 0.92237 0.0
H2431 H 0.60804 0.01187 0.85663 0.0
H2432 H 0.76481 0.63811 0.96472 0.0
H2433 H 0.75342 0.63726 0.89677 0.0
H2434 H 0.782 0.65447 0.82809 0.0
H2435 H 0.7934 0.65551 0.89591 0.0
H2436 H 0.76041 0.66551 0.81715 0.0
H2437 H 0.75647 0.61728 0.78543 0.0
H2438 H 0.75219 0.62167 0.83966 0.0
H2439 H 0.76732 0.6234 0.82254 0.0
C2440 C 0.76877 0.64153 0.93502 0.0
C2441 C 0.77999 0.64693 0.93578 0.0
C2442 C 0.76226 0.64098 0.89615 0.0
C2443 C 0.76691 0.64571 0.85735 0.0
C2444 C 0.77828 0.65073 0.8577 0.0
H2445 H 0.737 0.64446 0.59551 0.0
H2446 H 0.74923 0.64137 0.66065 0.0
C2447 C 0.78478 0.65131 0.8965 0.0
C2448 C 0.75953 0.64646 0.81743 0.0
H2449 H 0.74406 0.62999 0.74314 0.0
C2450 C 0.75689 0.65774 0.80083 0.0
C2451 C 0.75501 0.6363 0.79612 0.0
C2452 C 0.75797 0.62397 0.81154 0.0
C2453 C 0.74971 0.65916 0.76383 0.0
C2454 C 0.74488 0.64903 0.74331 0.0
C2455 C 0.74768 0.63773 0.75934 0.0
C2456 C 0.73704 0.65008 0.70474 0.0
C2457 C 0.74744 0.67149 0.74669 0.0
C2458 C 0.72603 0.65575 0.7083 0.0
C2459 C 0.71903 0.65755 0.67121 0.0
C2460 C 0.72293 0.65368 0.62991 0.0
C2461 C 0.73378 0.64761 0.62678 0.0
C2462 C 0.74076 0.64581 0.66394 0.0
H2463 H 0.75394 0.67798 0.75972 0.0
H2464 H 0.74782 0.67166 0.71039 0.0
H2465 H 0.73846 0.67438 0.75683 0.0
H2466 H 0.72294 0.65896 0.7397 0.0
H2467 H 0.71069 0.66218 0.67482 0.0
H2468 H 0.60989 0.51479 0.23378 0.0
H2469 H 0.61317 0.50207 0.17013 0.0
H2470 H 0.59184 0.52546 0.09115 0.0
H2471 H 0.58875 0.53834 0.15418 0.0
H2472 H 0.5965 0.49018 0.12573 0.0
H2473 H 0.61992 0.52017 0.01193 0.0
H2474 H 0.61825 0.52347 0.06941 0.0
H2475 H 0.60642 0.52662 0.03163 0.0
C2476 C 0.60605 0.51732 0.2027 0.0
C2477 C 0.59906 0.52758 0.19904 0.0
C2478 C 0.60794 0.51004 0.16637 0.0
C2479 C 0.6029 0.5129 0.12573 0.0
C2480 C 0.59608 0.52324 0.12186 0.0
H2481 H 0.57906 0.46832 0.91934 0.0
H2482 H 0.58212 0.48025 0.98487 0.0
C2483 C 0.59424 0.53055 0.15807 0.0
C2484 C 0.60387 0.50459 0.08836 0.0
H2485 H 0.61045 0.50316 0.97949 0.0
C2486 C 0.59972 0.49297 0.09392 0.0
C2487 C 0.60824 0.50817 0.04703 0.0
C2488 C 0.61358 0.52025 0.03973 0.0
C2489 C 0.59927 0.48502 0.05875 0.0
C2490 C 0.60284 0.48887 0.01675 0.0
C2491 C 0.60756 0.50028 0.01162 0.0
C2492 C 0.60115 0.48141 0.97739 0.0
C2493 C 0.5949 0.47258 0.06686 0.0
C2494 C 0.61081 0.47834 0.95083 0.0
C2495 C 0.60908 0.47158 0.91303 0.0
C2496 C 0.59764 0.46784 0.90105 0.0
C2497 C 0.58799 0.47098 0.92772 0.0
C2498 C 0.58973 0.47774 0.96539 0.0
H2499 H 0.59612 0.46996 0.10161 0.0
H2500 H 0.58529 0.47214 0.0594 0.0
H2501 H 0.59957 0.46609 0.04572 0.0
H2502 H 0.61968 0.48117 0.9594 0.0
H2503 H 0.61669 0.46934 0.89311 0.0
H2504 H 0.73115 0.35527 0.47645 0.0
H2505 H 0.74311 0.35589 0.40975 0.0
H2506 H 0.71674 0.33511 0.3424 0.0
H2507 H 0.70465 0.33461 0.40853 0.0
H2508 H 0.7524 0.33643 0.36912 0.0
H2509 H 0.72364 0.36096 0.25373 0.0
H2510 H 0.7212 0.36105 0.31213 0.0
H2511 H 0.71614 0.3488 0.27942 0.0
C2512 C 0.7278 0.35101 0.44724 0.0
C2513 C 0.71695 0.34488 0.44782 0.0
C2514 C 0.73464 0.35137 0.40918 0.0
C2515 C 0.73074 0.34568 0.37099 0.0
C2516 C 0.71979 0.3398 0.37119 0.0
H2517 H 0.75875 0.32132 0.12775 0.0
H2518 H 0.74706 0.32648 0.19226 0.0
C2519 C 0.71293 0.33945 0.40916 0.0
C2520 C 0.73856 0.34493 0.33219 0.0
H2521 H 0.73939 0.34956 0.22187 0.0
C2522 C 0.74965 0.33947 0.33702 0.0
C2523 C 0.73492 0.34889 0.2904 0.0
C2524 C 0.72337 0.35536 0.2836 0.0
C2525 C 0.75699 0.33739 0.30083 0.0
C2526 C 0.75319 0.34101 0.25887 0.0
C2527 C 0.74224 0.34676 0.25415 0.0
C2528 C 0.76019 0.33837 0.2192 0.0
C2529 C 0.76854 0.3309 0.30747 0.0
C2530 C 0.77138 0.34348 0.21283 0.0
C2531 C 0.77811 0.34054 0.176 0.0
C2532 C 0.77373 0.33246 0.14493 0.0
C2533 C 0.76241 0.32753 0.15113 0.0
C2534 C 0.7557 0.33049 0.18788 0.0
H2535 H 0.7691 0.32673 0.34034 0.0
H2536 H 0.76969 0.32391 0.28224 0.0
H2537 H 0.776 0.33723 0.30421 0.0
H2538 H 0.77492 0.3497 0.23642 0.0
H2539 H 0.78676 0.34454 0.17206 0.0
H2540 H 0.9083 0.45562 0.66084 0.0
H2541 H 0.90757 0.4676 0.59427 0.0
H2542 H 0.88754 0.49435 0.66247 0.0
H2543 H 0.88826 0.48248 0.72937 0.0
H2544 H 0.8876 0.47769 0.54619 0.0
H2545 H 0.91788 0.5115 0.61754 0.0
H2546 H 0.91616 0.49692 0.64096 0.0
H2547 H 0.90491 0.50794 0.649 0.0
C2548 C 0.90363 0.464 0.66163 0.0
C2549 C 0.89844 0.46816 0.70053 0.0
C2550 C 0.90321 0.47081 0.62354 0.0
C2551 C 0.89765 0.48191 0.62377 0.0
C2552 C 0.89201 0.48587 0.66193 0.0
H2553 H 0.90084 0.53788 0.42721 0.0
H2554 H 0.89564 0.52624 0.49195 0.0
C2555 C 0.89241 0.47906 0.70005 0.0
C2556 C 0.8983 0.48956 0.58463 0.0
H2557 H 0.91111 0.51482 0.54589 0.0
C2558 C 0.89268 0.48585 0.54607 0.0
C2559 C 0.90491 0.50019 0.5848 0.0
C2560 C 0.9114 0.50438 0.62512 0.0
C2561 C 0.89355 0.4925 0.50741 0.0
C2562 C 0.90043 0.50297 0.50727 0.0
C2563 C 0.90582 0.5068 0.54614 0.0
C2564 C 0.90272 0.50979 0.46676 0.0
C2565 C 0.88704 0.48828 0.4672 0.0
C2566 C 0.90845 0.5044 0.43124 0.0
C2567 C 0.91141 0.51101 0.39423 0.0
C2568 C 0.9088 0.52317 0.39223 0.0
C2569 C 0.90297 0.52853 0.42773 0.0
C2570 C 0.89998 0.5219 0.46471 0.0
H2571 H 0.87942 0.48253 0.47594 0.0
H2572 H 0.88375 0.49585 0.44745 0.0
H2573 H 0.89317 0.483 0.44662 0.0
H2574 H 0.91092 0.49514 0.43258 0.0
H2575 H 0.91595 0.50661 0.36756 0.0
H2576 H 0.23342 0.36635 0.09182 0.0
H2577 H 0.24546 0.36814 0.15818 0.0
H2578 H 0.22027 0.34675 0.22875 0.0
H2579 H 0.20822 0.34482 0.16277 0.0
H2580 H 0.24013 0.37575 0.2486 0.0
H2581 H 0.25239 0.32828 0.23268 0.0
H2582 H 0.2458 0.33659 0.18847 0.0
H2583 H 0.23675 0.33123 0.23256 0.0
C2584 C 0.23034 0.36218 0.12163 0.0
C2585 C 0.21994 0.35531 0.12186 0.0
C2586 C 0.23722 0.36324 0.15948 0.0
C2587 C 0.23382 0.35742 0.19801 0.0
C2588 C 0.2231 0.35116 0.19907 0.0
H2589 H 0.26216 0.35809 0.46051 0.0
H2590 H 0.25052 0.36167 0.39438 0.0
C2591 C 0.21623 0.3501 0.16134 0.0
C2592 C 0.24188 0.35708 0.23608 0.0
H2593 H 0.25859 0.33809 0.29706 0.0
C2594 C 0.24422 0.36755 0.25923 0.0
C2595 C 0.24733 0.34639 0.24927 0.0
C2596 C 0.24555 0.33498 0.22431 0.0
C2597 C 0.25166 0.36753 0.2961 0.0
C2598 C 0.25677 0.35674 0.31015 0.0
C2599 C 0.25462 0.34635 0.28632 0.0
C2600 C 0.26424 0.35587 0.34983 0.0
C2601 C 0.25408 0.37905 0.31943 0.0
C2602 C 0.2758 0.35138 0.34672 0.0
C2603 C 0.28244 0.34922 0.38444 0.0
C2604 C 0.27761 0.35146 0.42603 0.0
C2605 C 0.26615 0.35629 0.42899 0.0
C2606 C 0.25951 0.35843 0.3912 0.0
H2607 H 0.25222 0.3868 0.29814 0.0
H2608 H 0.24827 0.37968 0.34861 0.0
H2609 H 0.26343 0.37952 0.33062 0.0
H2610 H 0.27959 0.3493 0.31508 0.0
H2611 H 0.29124 0.34552 0.38098 0.0
H2612 H 0.41234 0.45459 0.92941 0.0
H2613 H 0.40975 0.46602 0.99663 0.0
H2614 H 0.39316 0.49409 0.92317 0.0
H2615 H 0.39559 0.48268 0.85581 0.0
H2616 H 0.41972 0.48812 0.01106 0.0
H2617 H 0.3708 0.48993 0.02798 0.0
H2618 H 0.3782 0.47936 0.99303 0.0
H2619 H 0.37619 0.49439 0.9752 0.0
C2620 C 0.40798 0.46312 0.92759 0.0
C2621 C 0.40419 0.46774 0.88721 0.0
C2622 C 0.40651 0.46963 0.96604 0.0
C2623 C 0.40116 0.48084 0.96491 0.0
C2624 C 0.39711 0.48536 0.92487 0.0
H2625 H 0.41104 0.5378 0.14999 0.0
H2626 H 0.4096 0.52534 0.08479 0.0
C2627 C 0.39858 0.47885 0.88636 0.0
C2628 C 0.40071 0.48818 0.00497 0.0
H2629 H 0.38197 0.50288 0.07384 0.0
C2630 C 0.41146 0.4913 0.02493 0.0
C2631 C 0.38992 0.49223 0.02311 0.0
C2632 C 0.3781 0.48873 0.00403 0.0
C2633 C 0.41174 0.49854 0.06213 0.0
C2634 C 0.40098 0.50292 0.07941 0.0
C2635 C 0.3902 0.49961 0.0601 0.0
C2636 C 0.40083 0.51085 0.11786 0.0
C2637 C 0.42353 0.50138 0.08288 0.0
C2638 C 0.396 0.50697 0.15759 0.0
C2639 C 0.39679 0.51406 0.19495 0.0
C2640 C 0.40237 0.52519 0.19305 0.0
C2641 C 0.40675 0.52925 0.15266 0.0
C2642 C 0.40597 0.52214 0.1154 0.0
H2643 H 0.4306 0.49521 0.07188 0.0
H2644 H 0.4262 0.5105 0.07359 0.0
H2645 H 0.42293 0.50099 0.11912 0.0
H2646 H 0.39196 0.49829 0.16 0.0
H2647 H 0.39328 0.5107 0.22549 0.0
H2648 H 0.23619 0.6722 0.96576 0.0
H2649 H 0.24767 0.6667 0.90113 0.0
H2650 H 0.21914 0.64424 0.85745 0.0
H2651 H 0.2075 0.64975 0.92195 0.0
H2652 H 0.2547 0.64345 0.87084 0.0
H2653 H 0.2253 0.66724 0.75385 0.0
H2654 H 0.22491 0.66998 0.81202 0.0
H2655 H 0.21827 0.65683 0.78998 0.0
C2656 C 0.23234 0.66608 0.94248 0.0
C2657 C 0.22089 0.66148 0.94882 0.0
C2658 C 0.23894 0.66292 0.90567 0.0
C2659 C 0.23419 0.65517 0.87442 0.0
C2660 C 0.22288 0.65036 0.881 0.0
H2661 H 0.26301 0.6393 0.61559 0.0
H2662 H 0.251 0.63823 0.6821 0.0
C2663 C 0.21627 0.65349 0.9179 0.0
C2664 C 0.24105 0.65242 0.83449 0.0
H2665 H 0.24187 0.65748 0.72453 0.0
C2666 C 0.25187 0.64643 0.83876 0.0
C2667 C 0.23728 0.65628 0.79276 0.0
C2668 C 0.22585 0.66302 0.78661 0.0
C2669 C 0.25914 0.64434 0.80233 0.0
C2670 C 0.25558 0.64858 0.76083 0.0
C2671 C 0.24457 0.65424 0.7564 0.0
C2672 C 0.26343 0.64802 0.72209 0.0
C2673 C 0.27058 0.63763 0.80863 0.0
C2674 C 0.27443 0.6538 0.72264 0.0
C2675 C 0.28131 0.65441 0.68478 0.0
C2676 C 0.27727 0.64935 0.64549 0.0
C2677 C 0.26638 0.64329 0.6453 0.0
C2678 C 0.25951 0.64267 0.68326 0.0
H2679 H 0.27018 0.63183 0.83797 0.0
H2680 H 0.27268 0.63211 0.77961 0.0
H2681 H 0.27791 0.64404 0.81354 0.0
H2682 H 0.2775 0.65823 0.75196 0.0
H2683 H 0.28963 0.65919 0.68602 0.0
H2684 H 0.08951 0.50644 0.384 0.0
H2685 H 0.0924 0.49524 0.45137 0.0
H2686 H 0.10815 0.52589 0.51228 0.0
H2687 H 0.10495 0.53732 0.44522 0.0
H2688 H 0.1117 0.48937 0.50017 0.0
H2689 H 0.0814 0.51836 0.59559 0.0
H2690 H 0.08263 0.51928 0.53688 0.0
H2691 H 0.09374 0.5259 0.57124 0.0
C2692 C 0.09366 0.51081 0.4116 0.0
C2693 C 0.09686 0.52282 0.40946 0.0
C2694 C 0.09532 0.50437 0.45009 0.0
C2695 C 0.10027 0.50979 0.48711 0.0
C2696 C 0.10404 0.52162 0.48443 0.0
H2697 H 0.10523 0.48091 0.75244 0.0
H2698 H 0.10942 0.49258 0.68668 0.0
C2699 C 0.10226 0.52811 0.44603 0.0
C2700 C 0.10098 0.50312 0.52879 0.0
H2701 H 0.09037 0.50258 0.6334 0.0
C2702 C 0.10711 0.49229 0.52939 0.0
C2703 C 0.09495 0.50695 0.56687 0.0
C2704 C 0.08772 0.5182 0.56771 0.0
C2705 C 0.10719 0.4851 0.56685 0.0
C2706 C 0.10097 0.48884 0.60447 0.0
C2707 C 0.09518 0.49981 0.60442 0.0
C2708 C 0.09957 0.48113 0.64319 0.0
C2709 C 0.11382 0.47351 0.56585 0.0
C2710 C 0.09268 0.47083 0.64028 0.0
C2711 C 0.09018 0.46421 0.67774 0.0
C2712 C 0.09455 0.46778 0.71876 0.0
C2713 C 0.10176 0.47791 0.72131 0.0
C2714 C 0.10417 0.48459 0.68384 0.0
H2715 H 0.12039 0.47323 0.53882 0.0
H2716 H 0.11847 0.47195 0.59735 0.0
H2717 H 0.10742 0.46617 0.56086 0.0
H2718 H 0.08891 0.46813 0.60926 0.0
H2719 H 0.08461 0.45644 0.67468 0.0
loop_
_geom_bond_atom_site_label_1
_geom_bond_atom_site_label_2
_geom_bond_distance
_geom_bond_site_symmetry_2
_ccdc_geom_bond_type
C0 O1 1.160 . S
C0 O7 1.185 . S
O1 C0 1.160 . S
O2 Zn3 1.899 . S
O2 C10 1.284 . S
Zn3 O2 1.899 . S
Zn3 O4 2.032 1_554 S
Zn3 O7 2.086 . S
Zn3 O12 1.977 . S
O4 Zn3 2.032 1_556 S
O4 C8 1.278 . S
C5 O6 1.203 . S
C5 O12 1.267 . S
O6 C5 1.203 . S
O7 C0 1.185 . S
O7 Zn3 2.086 . S
C8 O4 1.278 . S
C8 O9 1.211 . S
O9 C8 1.211 . S
C10 O2 1.284 . S
C10 O11 1.273 . S
O11 C10 1.273 . S
O12 Zn3 1.977 . S
O12 C5 1.267 . S
C13 O14 1.160 . S
C13 O20 1.185 . S
O14 C13 1.160 . S
O15 Zn16 1.899 . S
O15 C23 1.284 . S
Zn16 O15 1.899 . S
Zn16 O17 2.032 . S
Zn16 O20 2.086 . S
Zn16 O25 1.977 . S
O17 Zn16 2.032 . S
O17 C21 1.278 . S
C18 O19 1.203 . S
C18 O25 1.267 . S
O19 C18 1.203 . S
O20 C13 1.185 . S
O20 Zn16 2.086 . S
C21 O17 1.278 . S
C21 O22 1.211 . S
O22 C21 1.211 . S
C23 O15 1.284 . S
C23 O24 1.273 . S
O24 C23 1.273 . S
O25 Zn16 1.977 . S
O25 C18 1.267 . S
C26 O27 1.160 . S
C26 O33 1.185 . S
O27 C26 1.160 . S
O28 Zn29 1.899 . S
O28 C36 1.284 . S
Zn29 O28 1.899 . S
Zn29 O30 2.032 . S
Zn29 O33 2.086 . S
Zn29 O38 1.977 . S
O30 Zn29 2.032 . S
O30 C34 1.278 . S
C31 O32 1.203 . S
C31 O38 1.267 . S
O32 C31 1.203 . S
O33 C26 1.185 . S
O33 Zn29 2.086 . S
C34 O30 1.278 . S
C34 O35 1.211 . S
O35 C34 1.211 . S
C36 O28 1.284 . S
C36 O37 1.273 . S
O37 C36 1.273 . S
O38 Zn29 1.977 . S
O38 C31 1.267 . S
C39 O40 1.160 . S
C39 O46 1.185 . S
O40 C39 1.160 . S
O41 Zn42 1.899 . S
O41 C49 1.284 . S
Zn42 O41 1.899 . S
Zn42 O43 2.032 . S
Zn42 O46 2.086 . S
Zn42 O51 1.977 . S
O43 Zn42 2.032 . S
O43 C47 1.278 . S
C44 O45 1.203 . S
C44 O51 1.267 . S
O45 C44 1.203 . S
O46 C39 1.185 . S
O46 Zn42 2.086 . S
C47 O43 1.278 . S
C47 O48 1.211 . S
O48 C47 1.211 . S
C49 O41 1.284 . S
C49 O50 1.273 . S
O50 C49 1.273 . S
O51 Zn42 1.977 . S
O51 C44 1.267 . S
C52 O53 1.160 . S
C52 O59 1.185 . S
O53 C52 1.160 . S
O54 Zn55 1.899 1_556 S
O54 C62 1.284 . S
Zn55 O54 1.899 1_554 S
Zn55 O56 2.032 . S
Zn55 O59 2.086 . S
Zn55 O64 1.977 . S
O56 Zn55 2.032 . S
O56 C60 1.278 . S
C57 O58 1.203 . S
C57 O64 1.267 . S
O58 C57 1.203 . S
O59 C52 1.185 . S
O59 Zn55 2.086 . S
C60 O56 1.278 . S
C60 O61 1.211 . S
O61 C60 1.211 . S
C62 O54 1.284 . S
C62 O63 1.273 1_556 S
O63 C62 1.273 1_554 S
O64 Zn55 1.977 . S
O64 C57 1.267 . S
C65 O66 1.160 . S
C65 O72 1.185 . S
O66 C65 1.160 . S
O67 Zn68 1.899 . S
O67 C75 1.284 . S
Zn68 O67 1.899 . S
Zn68 O69 2.032 . S
Zn68 O72 2.086 . S
Zn68 O77 1.977 . S
O69 Zn68 2.032 . S
O69 C73 1.278 . S
C70 O71 1.203 . S
C70 O77 1.267 . S
O71 C70 1.203 . S
O72 C65 1.185 . S
O72 Zn68 2.086 . S
C73 O69 1.278 . S
C73 O74 1.211 . S
O74 C73 1.211 . S
C75 O67 1.284 . S
C75 O76 1.273 . S
O76 C75 1.273 . S
O77 Zn68 1.977 . S
O77 C70 1.267 . S
C78 O79 1.160 . S
C78 O85 1.185 . S
O79 C78 1.160 . S
O80 Zn81 1.899 . S
O80 C88 1.284 . S
Zn81 O80 1.899 . S
Zn81 O82 2.032 . S
Zn81 O85 2.086 . S
Zn81 O90 1.977 . S
O82 Zn81 2.032 . S
O82 C86 1.278 . S
C83 O84 1.203 . S
C83 O90 1.267 . S
O84 C83 1.203 . S
O85 C78 1.185 . S
O85 Zn81 2.086 . S
C86 O82 1.278 . S
C86 O87 1.211 . S
O87 C86 1.211 . S
C88 O80 1.284 . S
C88 O89 1.273 . S
O89 C88 1.273 . S
O90 Zn81 1.977 . S
O90 C83 1.267 . S
C91 O92 1.160 . S
C91 O98 1.185 . S
O92 C91 1.160 . S
O93 Zn94 1.899 . S
O93 C101 1.284 . S
Zn94 O93 1.899 . S
Zn94 O95 2.032 . S
Zn94 O98 2.086 . S
Zn94 O103 1.977 . S
O95 Zn94 2.032 . S
O95 C99 1.278 . S
C96 O97 1.203 . S
C96 O103 1.267 . S
O97 C96 1.203 . S
O98 C91 1.185 . S
O98 Zn94 2.086 . S
C99 O95 1.278 . S
C99 O100 1.211 . S
O100 C99 1.211 . S
C101 O93 1.284 . S
C101 O102 1.273 . S
O102 C101 1.273 . S
O103 Zn94 1.977 . S
O103 C96 1.267 . S
C104 O105 1.160 . S
C104 O111 1.185 . S
O105 C104 1.160 . S
O106 Zn107 1.899 1_556 S
O106 C114 1.284 . S
Zn107 O106 1.899 1_554 S
Zn107 O108 2.032 . S
Zn107 O111 2.086 . S
Zn107 O116 1.977 . S
O108 Zn107 2.032 . S
O108 C112 1.278 . S
C109 O110 1.203 . S
C109 O116 1.267 . S
O110 C109 1.203 . S
O111 C104 1.185 . S
O111 Zn107 2.086 . S
C112 O108 1.278 . S
C112 O113 1.211 . S
O113 C112 1.211 . S
C114 O106 1.284 . S
C114 O115 1.273 1_556 S
O115 C114 1.273 1_554 S
O116 Zn107 1.977 . S
O116 C109 1.267 . S
C117 O118 1.160 . S
C117 O124 1.185 . S
O118 C117 1.160 . S
O119 Zn120 1.899 . S
O119 C127 1.284 . S
Zn120 O119 1.899 . S
Zn120 O121 2.032 . S
Zn120 O124 2.086 . S
Zn120 O129 1.977 . S
O121 Zn120 2.032 . S
O121 C125 1.278 . S
C122 O123 1.203 . S
C122 O129 1.267 . S
O123 C122 1.203 . S
O124 C117 1.185 . S
O124 Zn120 2.086 . S
C125 O121 1.278 . S
C125 O126 1.211 . S
O126 C125 1.211 . S
C127 O119 1.284 . S
C127 O128 1.273 . S
O128 C127 1.273 . S
O129 Zn120 1.977 . S
O129 C122 1.267 . S
C130 O131 1.160 . S
C130 O137 1.185 . S
O131 C130 1.160 . S
O132 Zn133 1.899 . S
O132 C140 1.284 . S
Zn133 O132 1.899 . S
Zn133 O134 2.032 . S
Zn133 O137 2.086 . S
Zn133 O142 1.977 . S
O134 Zn133 2.032 . S
O134 C138 1.278 . S
C135 O136 1.203 . S
C135 O142 1.267 . S
O136 C135 1.203 . S
O137 C130 1.185 . S
O137 Zn133 2.086 . S
C138 O134 1.278 . S
C138 O139 1.211 . S
O139 C138 1.211 . S
C140 O132 1.284 . S
C140 O141 1.273 . S
O141 C140 1.273 . S
O142 Zn133 1.977 . S
O142 C135 1.267 . S
C143 O144 1.160 . S
C143 O150 1.185 . S
O144 C143 1.160 . S
O145 Zn146 1.899 . S
O145 C153 1.284 . S
Zn146 O145 1.899 . S
Zn146 O147 2.032 . S
Zn146 O150 2.086 . S
Zn146 O155 1.977 . S
O147 Zn146 2.032 . S
O147 C151 1.278 . S
C148 O149 1.203 . S
C148 O155 1.267 . S
O149 C148 1.203 . S
O150 C143 1.185 . S
O150 Zn146 2.086 . S
C151 O147 1.278 . S
C151 O152 1.211 . S
O152 C151 1.211 . S
C153 O145 1.284 . S
C153 O154 1.273 . S
O154 C153 1.273 . S
O155 Zn146 1.977 . S
O155 C148 1.267 . S
C156 O157 1.160 . S
C156 O163 1.185 . S
O157 C156 1.160 . S
O158 Zn159 1.899 . S
O158 C166 1.284 . S
Zn159 O158 1.899 . S
Zn159 O160 2.032 1_554 S
Zn159 O163 2.086 . S
Zn159 O168 1.977 . S
O160 Zn159 2.032 1_556 S
O160 C164 1.278 . S
C161 O162 1.203 . S
C161 O168 1.267 . S
O162 C161 1.203 . S
O163 C156 1.185 . S
O163 Zn159 2.086 . S
C164 O160 1.278 . S
C164 O165 1.211 . S
O165 C164 1.211 . S
C166 O158 1.284 . S
C166 O167 1.273 . S
O167 C166 1.273 . S
O168 Zn159 1.977 . S
O168 C161 1.267 . S
C169 O170 1.160 . S
C169 O176 1.185 . S
O170 C169 1.160 . S
O171 Zn172 1.899 . S
O171 C179 1.284 . S
Zn172 O171 1.899 . S
Zn172 O173 2.032 . S
Zn172 O176 2.086 . S
Zn172 O181 1.977 . S
O173 Zn172 2.032 . S
O173 C177 1.278 . S
C174 O175 1.203 . S
C174 O181 1.267 . S
O175 C174 1.203 . S
O176 C169 1.185 . S
O176 Zn172 2.086 . S
C177 O173 1.278 . S
C177 O178 1.211 . S
O178 C177 1.211 . S
C179 O171 1.284 . S
C179 O180 1.273 . S
O180 C179 1.273 . S
O181 Zn172 1.977 . S
O181 C174 1.267 . S
C182 O183 1.160 . S
C182 O189 1.185 . S
O183 C182 1.160 . S
O184 Zn185 1.899 . S
O184 C192 1.284 . S
Zn185 O184 1.899 . S
Zn185 O186 2.032 . S
Zn185 O189 2.086 . S
Zn185 O194 1.977 . S
O186 Zn185 2.032 . S
O186 C190 1.278 . S
C187 O188 1.203 . S
C187 O194 1.267 . S
O188 C187 1.203 . S
O189 C182 1.185 . S
O189 Zn185 2.086 . S
C190 O186 1.278 . S
C190 O191 1.211 . S
O191 C190 1.211 . S
C192 O184 1.284 . S
C192 O193 1.273 . S
O193 C192 1.273 . S
O194 Zn185 1.977 . S
O194 C187 1.267 . S
C195 O196 1.160 . S
C195 O202 1.185 . S
O196 C195 1.160 . S
O197 Zn198 1.899 . S
O197 C205 1.284 . S
Zn198 O197 1.899 . S
Zn198 O199 2.032 . S
Zn198 O202 2.086 . S
Zn198 O207 1.977 . S
O199 Zn198 2.032 . S
O199 C203 1.278 . S
C200 O201 1.203 . S
C200 O207 1.267 . S
O201 C200 1.203 . S
O202 C195 1.185 . S
O202 Zn198 2.086 . S
C203 O199 1.278 . S
C203 O204 1.211 . S
O204 C203 1.211 . S
C205 O197 1.284 . S
C205 O206 1.273 . S
O206 C205 1.273 . S
O207 Zn198 1.977 . S
O207 C200 1.267 . S
C208 O209 1.160 . S
C208 O215 1.185 . S
O209 C208 1.160 . S
O210 Zn211 1.899 . S
O210 C218 1.284 . S
Zn211 O210 1.899 . S
Zn211 O212 2.032 . S
Zn211 O215 2.086 . S
Zn211 O220 1.977 . S
O212 Zn211 2.032 . S
O212 C216 1.278 . S
C213 O214 1.203 . S
C213 O220 1.267 . S
O214 C213 1.203 . S
O215 C208 1.185 . S
O215 Zn211 2.086 . S
C216 O212 1.278 . S
C216 O217 1.211 . S
O217 C216 1.211 . S
C218 O210 1.284 . S
C218 O219 1.273 . S
O219 C218 1.273 . S
O220 Zn211 1.977 . S
O220 C213 1.267 . S
C221 O222 1.160 . S
C221 O228 1.185 . S
O222 C221 1.160 . S
O223 Zn224 1.899 . S
O223 C231 1.284 . S
Zn224 O223 1.899 . S
Zn224 O225 2.032 . S
Zn224 O228 2.086 . S
Zn224 O233 1.977 . S
O225 Zn224 2.032 . S
O225 C229 1.278 . S
C226 O227 1.203 . S
C226 O233 1.267 . S
O227 C226 1.203 . S
O228 C221 1.185 . S
O228 Zn224 2.086 . S
C229 O225 1.278 . S
C229 O230 1.211 . S
O230 C229 1.211 . S
C231 O223 1.284 . S
C231 O232 1.273 . S
O232 C231 1.273 . S
O233 Zn224 1.977 . S
O233 C226 1.267 . S
C234 O235 1.160 . S
C234 O241 1.185 . S
O235 C234 1.160 . S
O236 Zn237 1.899 . S
O236 C244 1.284 . S
Zn237 O236 1.899 . S
Zn237 O238 2.032 1_554 S
Zn237 O241 2.086 . S
Zn237 O246 1.977 . S
O238 Zn237 2.032 1_556 S
O238 C242 1.278 . S
C239 O240 1.203 . S
C239 O246 1.267 . S
O240 C239 1.203 . S
O241 C234 1.185 . S
O241 Zn237 2.086 . S
C242 O238 1.278 . S
C242 O243 1.211 . S
O243 C242 1.211 . S
C244 O236 1.284 . S
C244 O245 1.273 . S
O245 C244 1.273 . S
O246 Zn237 1.977 . S
O246 C239 1.267 . S
C247 O248 1.160 . S
C247 O254 1.185 . S
O248 C247 1.160 . S
O249 Zn250 1.899 . S
O249 C257 1.284 . S
Zn250 O249 1.899 . S
Zn250 O251 2.032 . S
Zn250 O254 2.086 . S
Zn250 O259 1.977 . S
O251 Zn250 2.032 . S
O251 C255 1.278 . S
C252 O253 1.203 . S
C252 O259 1.267 . S
O253 C252 1.203 . S
O254 C247 1.185 . S
O254 Zn250 2.086 . S
C255 O251 1.278 . S
C255 O256 1.211 . S
O256 C255 1.211 . S
C257 O249 1.284 . S
C257 O258 1.273 . S
O258 C257 1.273 . S
O259 Zn250 1.977 . S
O259 C252 1.267 . S
C260 O261 1.160 . S
C260 O267 1.185 . S
O261 C260 1.160 . S
O262 Zn263 1.899 . S
O262 C270 1.284 . S
Zn263 O262 1.899 . S
Zn263 O264 2.032 . S
Zn263 O267 2.086 . S
Zn263 O272 1.977 . S
O264 Zn263 2.032 . S
O264 C268 1.278 . S
C265 O266 1.203 . S
C265 O272 1.267 . S
O266 C265 1.203 . S
O267 C260 1.185 . S
O267 Zn263 2.086 . S
C268 O264 1.278 . S
C268 O269 1.211 . S
O269 C268 1.211 . S
C270 O262 1.284 . S
C270 O271 1.273 . S
O271 C270 1.273 . S
O272 Zn263 1.977 . S
O272 C265 1.267 . S
C273 O274 1.160 . S
C273 O280 1.185 . S
O274 C273 1.160 . S
O275 Zn276 1.899 . S
O275 C283 1.284 . S
Zn276 O275 1.899 . S
Zn276 O277 2.032 . S
Zn276 O280 2.086 . S
Zn276 O285 1.977 . S
O277 Zn276 2.032 . S
O277 C281 1.278 . S
C278 O279 1.203 . S
C278 O285 1.267 . S
O279 C278 1.203 . S
O280 C273 1.185 . S
O280 Zn276 2.086 . S
C281 O277 1.278 . S
C281 O282 1.211 . S
O282 C281 1.211 . S
C283 O275 1.284 . S
C283 O284 1.273 . S
O284 C283 1.273 . S
O285 Zn276 1.977 . S
O285 C278 1.267 . S
C286 O287 1.160 . S
C286 O293 1.185 . S
O287 C286 1.160 . S
O288 Zn289 1.899 1_556 S
O288 C296 1.284 . S
Zn289 O288 1.899 1_554 S
Zn289 O290 2.032 . S
Zn289 O293 2.086 . S
Zn289 O298 1.977 . S
O290 Zn289 2.032 . S
O290 C294 1.278 . S
C291 O292 1.203 . S
C291 O298 1.267 . S
O292 C291 1.203 . S
O293 C286 1.185 . S
O293 Zn289 2.086 . S
C294 O290 1.278 . S
C294 O295 1.211 . S
O295 C294 1.211 . S
C296 O288 1.284 . S
C296 O297 1.273 1_556 S
O297 C296 1.273 1_554 S
O298 Zn289 1.977 . S
O298 C291 1.267 . S
C299 O300 1.160 . S
C299 O306 1.185 . S
O300 C299 1.160 . S
O301 Zn302 1.899 . S
O301 C309 1.284 . S
Zn302 O301 1.899 . S
Zn302 O303 2.032 . S
Zn302 O306 2.086 . S
Zn302 O311 1.977 . S
O303 Zn302 2.032 . S
O303 C307 1.278 . S
C304 O305 1.203 . S
C304 O311 1.267 . S
O305 C304 1.203 . S
O306 C299 1.185 . S
O306 Zn302 2.086 . S
C307 O303 1.278 . S
C307 O308 1.211 . S
O308 C307 1.211 . S
C309 O301 1.284 . S
C309 O310 1.273 . S
O310 C309 1.273 . S
O311 Zn302 1.977 . S
O311 C304 1.267 . S
C312 O313 1.160 . S
C312 O319 1.185 . S
O313 C312 1.160 . S
O314 Zn315 1.899 . S
O314 C322 1.284 . S
Zn315 O314 1.899 . S
Zn315 O316 2.032 . S
Zn315 O319 2.086 . S
Zn315 O324 1.977 . S
O316 Zn315 2.032 . S
O316 C320 1.278 . S
C317 O318 1.203 . S
C317 O324 1.267 . S
O318 C317 1.203 . S
O319 C312 1.185 . S
O319 Zn315 2.086 . S
C320 O316 1.278 . S
C320 O321 1.211 . S
O321 C320 1.211 . S
C322 O314 1.284 . S
C322 O323 1.273 . S
O323 C322 1.273 . S
O324 Zn315 1.977 . S
O324 C317 1.267 . S
C325 O326 1.160 . S
C325 O332 1.185 . S
O326 C325 1.160 . S
O327 Zn328 1.899 . S
O327 C335 1.284 . S
Zn328 O327 1.899 . S
Zn328 O329 2.032 . S
Zn328 O332 2.086 . S
Zn328 O337 1.977 . S
O329 Zn328 2.032 . S
O329 C333 1.278 . S
C330 O331 1.203 . S
C330 O337 1.267 . S
O331 C330 1.203 . S
O332 C325 1.185 . S
O332 Zn328 2.086 . S
C333 O329 1.278 . S
C333 O334 1.211 . S
O334 C333 1.211 . S
C335 O327 1.284 . S
C335 O336 1.273 . S
O336 C335 1.273 . S
O337 Zn328 1.977 . S
O337 C330 1.267 . S
C338 O339 1.160 . S
C338 O345 1.185 . S
O339 C338 1.160 . S
O340 Zn341 1.899 1_556 S
O340 C348 1.284 . S
Zn341 O340 1.899 1_554 S
Zn341 O342 2.032 . S
Zn341 O345 2.086 . S
Zn341 O350 1.977 . S
O342 Zn341 2.032 . S
O342 C346 1.278 . S
C343 O344 1.203 . S
C343 O350 1.267 . S
O344 C343 1.203 . S
O345 C338 1.185 . S
O345 Zn341 2.086 . S
C346 O342 1.278 . S
C346 O347 1.211 . S
O347 C346 1.211 . S
C348 O340 1.284 . S
C348 O349 1.273 1_556 S
O349 C348 1.273 1_554 S
O350 Zn341 1.977 . S
O350 C343 1.267 . S
C351 O352 1.160 . S
C351 O358 1.185 . S
O352 C351 1.160 . S
O353 Zn354 1.899 . S
O353 C361 1.284 . S
Zn354 O353 1.899 . S
Zn354 O355 2.032 . S
Zn354 O358 2.086 . S
Zn354 O363 1.977 . S
O355 Zn354 2.032 . S
O355 C359 1.278 . S
C356 O357 1.203 . S
C356 O363 1.267 . S
O357 C356 1.203 . S
O358 C351 1.185 . S
O358 Zn354 2.086 . S
C359 O355 1.278 . S
C359 O360 1.211 . S
O360 C359 1.211 . S
C361 O353 1.284 . S
C361 O362 1.273 . S
O362 C361 1.273 . S
O363 Zn354 1.977 . S
O363 C356 1.267 . S
C364 O365 1.160 . S
C364 O371 1.185 . S
O365 C364 1.160 . S
O366 Zn367 1.899 . S
O366 C374 1.284 . S
Zn367 O366 1.899 . S
Zn367 O368 2.032 . S
Zn367 O371 2.086 . S
Zn367 O376 1.977 . S
O368 Zn367 2.032 . S
O368 C372 1.278 . S
C369 O370 1.203 . S
C369 O376 1.267 . S
O370 C369 1.203 . S
O371 C364 1.185 . S
O371 Zn367 2.086 . S
C372 O368 1.278 . S
C372 O373 1.211 . S
O373 C372 1.211 . S
C374 O366 1.284 . S
C374 O375 1.273 . S
O375 C374 1.273 . S
O376 Zn367 1.977 . S
O376 C369 1.267 . S
C377 O378 1.160 . S
C377 O384 1.185 . S
O378 C377 1.160 . S
O379 Zn380 1.899 . S
O379 C387 1.284 . S
Zn380 O379 1.899 . S
Zn380 O381 2.032 . S
Zn380 O384 2.086 . S
Zn380 O389 1.977 . S
O381 Zn380 2.032 . S
O381 C385 1.278 . S
C382 O383 1.203 . S
C382 O389 1.267 . S
O383 C382 1.203 . S
O384 C377 1.185 . S
O384 Zn380 2.086 . S
C385 O381 1.278 . S
C385 O386 1.211 . S
O386 C385 1.211 . S
C387 O379 1.284 . S
C387 O388 1.273 . S
O388 C387 1.273 . S
O389 Zn380 1.977 . S
O389 C382 1.267 . S
C390 O391 1.160 . S
C390 O397 1.185 . S
O391 C390 1.160 . S
O392 Zn393 1.899 . S
O392 C400 1.284 . S
Zn393 O392 1.899 . S
Zn393 O394 2.032 1_554 S
Zn393 O397 2.086 . S
Zn393 O402 1.977 . S
O394 Zn393 2.032 1_556 S
O394 C398 1.278 . S
C395 O396 1.203 . S
C395 O402 1.267 . S
O396 C395 1.203 . S
O397 C390 1.185 . S
O397 Zn393 2.086 . S
C398 O394 1.278 . S
C398 O399 1.211 . S
O399 C398 1.211 . S
C400 O392 1.284 . S
C400 O401 1.273 . S
O401 C400 1.273 . S
O402 Zn393 1.977 . S
O402 C395 1.267 . S
C403 O404 1.160 . S
C403 O410 1.185 . S
O404 C403 1.160 . S
O405 Zn406 1.899 . S
O405 C413 1.284 . S
Zn406 O405 1.899 . S
Zn406 O407 2.032 . S
Zn406 O410 2.086 . S
Zn406 O415 1.977 . S
O407 Zn406 2.032 . S
O407 C411 1.278 . S
C408 O409 1.203 . S
C408 O415 1.267 . S
O409 C408 1.203 . S
O410 C403 1.185 . S
O410 Zn406 2.086 . S
C411 O407 1.278 . S
C411 O412 1.211 . S
O412 C411 1.211 . S
C413 O405 1.284 . S
C413 O414 1.273 . S
O414 C413 1.273 . S
O415 Zn406 1.977 . S
O415 C408 1.267 . S
H416 C424 0.929 . S
H417 C426 0.930 . S
H418 C428 0.930 . S
H419 C431 0.929 . S
H420 C434 0.930 . S
H421 C436 0.960 . S
H422 C436 0.960 . S
H423 C436 0.960 . S
C424 H416 0.929 . S
C424 C425 1.377 . S
C424 C426 1.384 . S
C425 C424 1.377 . S
C425 C431 1.390 . S
C426 H417 0.930 . S
C426 C424 1.384 . S
C426 C427 1.372 . S
C427 C426 1.372 . S
C427 C428 1.400 . S
C427 C432 1.490 . S
C428 H418 0.930 . S
C428 C427 1.400 . S
C428 C431 1.386 . S
H429 C445 0.930 . S
H430 C446 0.931 . S
C431 H419 0.929 . S
C431 C425 1.390 . S
C431 C428 1.386 . S
C432 C427 1.490 . S
C432 C434 1.395 . S
C432 C435 1.403 . S
H433 C439 0.930 . S
C434 H420 0.930 . S
C434 C432 1.395 . S
C434 C437 1.403 . S
C435 C432 1.403 . S
C435 C436 1.524 . S
C435 C439 1.400 . S
C436 H421 0.960 . S
C436 H422 0.960 . S
C436 H423 0.960 . S
C436 C435 1.524 . S
C437 C434 1.403 . S
C437 C438 1.392 . S
C437 C441 1.495 . S
C438 C437 1.392 . S
C438 C439 1.385 . S
C438 C440 1.478 . S
C439 H433 0.930 . S
C439 C435 1.400 . S
C439 C438 1.385 . S
C440 C438 1.478 . S
C440 C442 1.381 . S
C440 C446 1.383 . S
C441 C437 1.495 . S
C441 H447 0.959 . S
C441 H448 0.961 1_556 S
C441 H449 0.960 . S
C442 C440 1.381 . S
C442 C443 1.394 . S
C442 H450 0.930 . S
C443 C442 1.394 . S
C443 C444 1.383 1_556 S
C443 H451 0.929 . S
C444 C443 1.383 1_554 S
C444 C445 1.377 . S
C445 H429 0.930 . S
C445 C444 1.377 . S
C445 C446 1.379 1_554 S
C446 H430 0.931 . S
C446 C440 1.383 . S
C446 C445 1.379 1_556 S
H447 C441 0.959 . S
H448 C441 0.961 1_554 S
H449 C441 0.960 . S
H450 C442 0.930 . S
H451 C443 0.929 . S
H452 C460 0.929 . S
H453 C462 0.930 . S
H454 C464 0.930 . S
H455 C467 0.929 . S
H456 C470 0.930 . S
H457 C472 0.960 . S
H458 C472 0.960 . S
H459 C472 0.960 . S
C460 H452 0.929 . S
C460 C461 1.377 . S
C460 C462 1.384 . S
C461 C460 1.377 . S
C461 C467 1.390 . S
C462 H453 0.930 . S
C462 C460 1.384 . S
C462 C463 1.372 . S
C463 C462 1.372 . S
C463 C464 1.400 . S
C463 C468 1.490 . S
C464 H454 0.930 . S
C464 C463 1.400 . S
C464 C467 1.386 . S
H465 C481 0.930 . S
H466 C482 0.931 . S
C467 H455 0.929 . S
C467 C461 1.390 . S
C467 C464 1.386 . S
C468 C463 1.490 . S
C468 C470 1.395 . S
C468 C471 1.403 . S
H469 C475 0.930 . S
C470 H456 0.930 . S
C470 C468 1.395 . S
C470 C473 1.403 . S
C471 C468 1.403 . S
C471 C472 1.524 . S
C471 C475 1.400 . S
C472 H457 0.960 . S
C472 H458 0.960 . S
C472 H459 0.960 . S
C472 C471 1.524 . S
C473 C470 1.403 . S
C473 C474 1.392 . S
C473 C477 1.495 . S
C474 C473 1.392 . S
C474 C475 1.385 . S
C474 C476 1.478 . S
C475 H469 0.930 . S
C475 C471 1.400 . S
C475 C474 1.385 . S
C476 C474 1.478 . S
C476 C478 1.381 . S
C476 C482 1.383 . S
C477 C473 1.495 . S
C477 H483 0.959 . S
C477 H484 0.961 . S
C477 H485 0.960 . S
C478 C476 1.381 . S
C478 C479 1.394 . S
C478 H486 0.930 . S
C479 C478 1.394 . S
C479 C480 1.383 . S
C479 H487 0.929 . S
C480 C479 1.383 . S
C480 C481 1.377 . S
C481 H465 0.930 . S
C481 C480 1.377 . S
C481 C482 1.379 . S
C482 H466 0.931 . S
C482 C476 1.383 . S
C482 C481 1.379 . S
H483 C477 0.959 . S
H484 C477 0.961 . S
H485 C477 0.960 . S
H486 C478 0.930 . S
H487 C479 0.929 . S
H488 C496 0.929 . S
H489 C498 0.930 . S
H490 C500 0.930 . S
H491 C503 0.929 . S
H492 C506 0.930 . S
H493 C508 0.960 . S
H494 C508 0.960 . S
H495 C508 0.960 . S
C496 H488 0.929 . S
C496 C497 1.377 . S
C496 C498 1.384 . S
C497 C496 1.377 . S
C497 C503 1.390 . S
C498 H489 0.930 . S
C498 C496 1.384 . S
C498 C499 1.372 . S
C499 C498 1.372 . S
C499 C500 1.400 . S
C499 C504 1.490 . S
C500 H490 0.930 . S
C500 C499 1.400 . S
C500 C503 1.386 . S
H501 C517 0.930 . S
H502 C518 0.931 . S
C503 H491 0.929 . S
C503 C497 1.390 . S
C503 C500 1.386 . S
C504 C499 1.490 . S
C504 C506 1.395 . S
C504 C507 1.403 . S
H505 C511 0.930 . S
C506 H492 0.930 . S
C506 C504 1.395 . S
C506 C509 1.403 . S
C507 C504 1.403 . S
C507 C508 1.524 . S
C507 C511 1.400 . S
C508 H493 0.960 . S
C508 H494 0.960 . S
C508 H495 0.960 . S
C508 C507 1.524 . S
C509 C506 1.403 . S
C509 C510 1.392 . S
C509 C513 1.495 . S
C510 C509 1.392 . S
C510 C511 1.385 . S
C510 C512 1.478 . S
C511 H505 0.930 . S
C511 C507 1.400 . S
C511 C510 1.385 . S
C512 C510 1.478 . S
C512 C514 1.381 . S
C512 C518 1.383 . S
C513 C509 1.495 . S
C513 H519 0.959 . S
C513 H520 0.961 . S
C513 H521 0.960 . S
C514 C512 1.381 . S
C514 C515 1.394 . S
C514 H522 0.930 . S
C515 C514 1.394 . S
C515 C516 1.383 . S
C515 H523 0.929 . S
C516 C515 1.383 . S
C516 C517 1.377 . S
C517 H501 0.930 . S
C517 C516 1.377 . S
C517 C518 1.379 . S
C518 H502 0.931 . S
C518 C512 1.383 . S
C518 C517 1.379 . S
H519 C513 0.959 . S
H520 C513 0.961 . S
H521 C513 0.960 . S
H522 C514 0.930 . S
H523 C515 0.929 . S
H524 C532 0.929 . S
H525 C534 0.930 . S
H526 C536 0.930 . S
H527 C539 0.929 . S
H528 C542 0.930 . S
H529 C544 0.960 . S
H530 C544 0.960 . S
H531 C544 0.960 . S
C532 H524 0.929 . S
C532 C533 1.377 . S
C532 C534 1.384 . S
C533 C532 1.377 . S
C533 C539 1.390 . S
C534 H525 0.930 . S
C534 C532 1.384 . S
C534 C535 1.372 . S
C535 C534 1.372 . S
C535 C536 1.400 . S
C535 C540 1.490 . S
C536 H526 0.930 . S
C536 C535 1.400 . S
C536 C539 1.386 . S
H537 C553 0.930 . S
H538 C554 0.931 . S
C539 H527 0.929 . S
C539 C533 1.390 . S
C539 C536 1.386 . S
C540 C535 1.490 . S
C540 C542 1.395 . S
C540 C543 1.403 . S
H541 C547 0.930 . S
C542 H528 0.930 . S
C542 C540 1.395 . S
C542 C545 1.403 . S
C543 C540 1.403 . S
C543 C544 1.524 . S
C543 C547 1.400 . S
C544 H529 0.960 . S
C544 H530 0.960 . S
C544 H531 0.960 . S
C544 C543 1.524 . S
C545 C542 1.403 . S
C545 C546 1.392 . S
C545 C549 1.495 . S
C546 C545 1.392 . S
C546 C547 1.385 . S
C546 C548 1.478 . S
C547 H541 0.930 . S
C547 C543 1.400 . S
C547 C546 1.385 . S
C548 C546 1.478 . S
C548 C550 1.381 . S
C548 C554 1.383 . S
C549 C545 1.495 . S
C549 H555 0.959 . S
C549 H556 0.961 . S
C549 H557 0.960 . S
C550 C548 1.381 . S
C550 C551 1.394 . S
C550 H558 0.930 . S
C551 C550 1.394 . S
C551 C552 1.383 . S
C551 H559 0.929 . S
C552 C551 1.383 . S
C552 C553 1.377 . S
C553 H537 0.930 . S
C553 C552 1.377 . S
C553 C554 1.379 . S
C554 H538 0.931 . S
C554 C548 1.383 . S
C554 C553 1.379 . S
H555 C549 0.959 . S
H556 C549 0.961 . S
H557 C549 0.960 . S
H558 C550 0.930 . S
H559 C551 0.929 . S
H560 C568 0.929 . S
H561 C570 0.930 . S
H562 C572 0.930 . S
H563 C575 0.929 . S
H564 C578 0.930 . S
H565 C580 0.960 . S
H566 C580 0.960 . S
H567 C580 0.960 . S
C568 H560 0.929 . S
C568 C569 1.377 . S
C568 C570 1.384 . S
C569 C568 1.377 . S
C569 C575 1.390 . S
C570 H561 0.930 . S
C570 C568 1.384 . S
C570 C571 1.372 . S
C571 C570 1.372 . S
C571 C572 1.400 . S
C571 C576 1.490 . S
C572 H562 0.930 . S
C572 C571 1.400 . S
C572 C575 1.386 . S
H573 C589 0.930 . S
H574 C590 0.931 . S
C575 H563 0.929 . S
C575 C569 1.390 . S
C575 C572 1.386 . S
C576 C571 1.490 . S
C576 C578 1.395 . S
C576 C579 1.403 . S
H577 C583 0.930 . S
C578 H564 0.930 . S
C578 C576 1.395 . S
C578 C581 1.403 . S
C579 C576 1.403 . S
C579 C580 1.524 . S
C579 C583 1.400 . S
C580 H565 0.960 . S
C580 H566 0.960 . S
C580 H567 0.960 . S
C580 C579 1.524 . S
C581 C578 1.403 . S
C581 C582 1.392 . S
C581 C585 1.495 . S
C582 C581 1.392 . S
C582 C583 1.385 . S
C582 C584 1.478 . S
C583 H577 0.930 . S
C583 C579 1.400 . S
C583 C582 1.385 . S
C584 C582 1.478 . S
C584 C586 1.381 . S
C584 C590 1.383 . S
C585 C581 1.495 . S
C585 H591 0.959 . S
C585 H592 0.961 . S
C585 H593 0.960 . S
C586 C584 1.381 . S
C586 C587 1.394 . S
C586 H594 0.930 . S
C587 C586 1.394 . S
C587 C588 1.383 . S
C587 H595 0.929 . S
C588 C587 1.383 . S
C588 C589 1.377 . S
C589 H573 0.930 . S
C589 C588 1.377 . S
C589 C590 1.379 . S
C590 H574 0.931 . S
C590 C584 1.383 . S
C590 C589 1.379 . S
H591 C585 0.959 . S
H592 C585 0.961 . S
H593 C585 0.960 . S
H594 C586 0.930 . S
H595 C587 0.929 . S
H596 C604 0.929 . S
H597 C606 0.930 . S
H598 C608 0.930 . S
H599 C611 0.929 . S
H600 C614 0.930 . S
H601 C616 0.960 . S
H602 C616 0.960 . S
H603 C616 0.960 . S
C604 H596 0.929 . S
C604 C605 1.377 . S
C604 C606 1.384 . S
C605 C604 1.377 . S
C605 C611 1.390 . S
C606 H597 0.930 . S
C606 C604 1.384 . S
C606 C607 1.372 . S
C607 C606 1.372 . S
C607 C608 1.400 . S
C607 C612 1.490 . S
C608 H598 0.930 . S
C608 C607 1.400 . S
C608 C611 1.386 . S
H609 C625 0.930 . S
H610 C626 0.931 . S
C611 H599 0.929 . S
C611 C605 1.390 . S
C611 C608 1.386 . S
C612 C607 1.490 . S
C612 C614 1.395 . S
C612 C615 1.403 . S
H613 C619 0.930 . S
C614 H600 0.930 . S
C614 C612 1.395 . S
C614 C617 1.403 . S
C615 C612 1.403 . S
C615 C616 1.524 . S
C615 C619 1.400 . S
C616 H601 0.960 . S
C616 H602 0.960 . S
C616 H603 0.960 . S
C616 C615 1.524 . S
C617 C614 1.403 . S
C617 C618 1.392 . S
C617 C621 1.495 . S
C618 C617 1.392 . S
C618 C619 1.385 . S
C618 C620 1.478 . S
C619 H613 0.930 . S
C619 C615 1.400 . S
C619 C618 1.385 . S
C620 C618 1.478 . S
C620 C622 1.381 . S
C620 C626 1.383 . S
C621 C617 1.495 . S
C621 H627 0.959 . S
C621 H628 0.961 . S
C621 H629 0.960 . S
C622 C620 1.381 . S
C622 C623 1.394 1_556 S
C622 H630 0.930 . S
C623 C622 1.394 1_554 S
C623 C624 1.383 1_554 S
C623 H631 0.929 . S
C624 C623 1.383 1_556 S
C624 C625 1.377 . S
C625 H609 0.930 . S
C625 C624 1.377 . S
C625 C626 1.379 . S
C626 H610 0.931 . S
C626 C620 1.383 . S
C626 C625 1.379 . S
H627 C621 0.959 . S
H628 C621 0.961 . S
H629 C621 0.960 . S
H630 C622 0.930 . S
H631 C623 0.929 . S
H632 C640 0.929 . S
H633 C642 0.930 . S
H634 C644 0.930 . S
H635 C647 0.929 . S
H636 C650 0.930 . S
H637 C652 0.960 . S
H638 C652 0.960 . S
H639 C652 0.960 . S
C640 H632 0.929 . S
C640 C641 1.377 . S
C640 C642 1.384 . S
C641 C640 1.377 . S
C641 C647 1.390 . S
C642 H633 0.930 . S
C642 C640 1.384 . S
C642 C643 1.372 . S
C643 C642 1.372 . S
C643 C644 1.400 . S
C643 C648 1.490 . S
C644 H634 0.930 . S
C644 C643 1.400 . S
C644 C647 1.386 . S
H645 C661 0.930 . S
H646 C662 0.931 . S
C647 H635 0.929 . S
C647 C641 1.390 . S
C647 C644 1.386 . S
C648 C643 1.490 . S
C648 C650 1.395 . S
C648 C651 1.403 . S
H649 C655 0.930 . S
C650 H636 0.930 . S
C650 C648 1.395 . S
C650 C653 1.403 . S
C651 C648 1.403 . S
C651 C652 1.524 . S
C651 C655 1.400 . S
C652 H637 0.960 . S
C652 H638 0.960 . S
C652 H639 0.960 . S
C652 C651 1.524 . S
C653 C650 1.403 . S
C653 C654 1.392 . S
C653 C657 1.495 . S
C654 C653 1.392 . S
C654 C655 1.385 . S
C654 C656 1.478 . S
C655 H649 0.930 . S
C655 C651 1.400 . S
C655 C654 1.385 . S
C656 C654 1.478 . S
C656 C658 1.381 . S
C656 C662 1.383 . S
C657 C653 1.495 . S
C657 H663 0.959 . S
C657 H664 0.961 . S
C657 H665 0.960 . S
C658 C656 1.381 . S
C658 C659 1.394 . S
C658 H666 0.930 . S
C659 C658 1.394 . S
C659 C660 1.383 . S
C659 H667 0.929 . S
C660 C659 1.383 . S
C660 C661 1.377 . S
C661 H645 0.930 . S
C661 C660 1.377 . S
C661 C662 1.379 . S
C662 H646 0.931 . S
C662 C656 1.383 . S
C662 C661 1.379 . S
H663 C657 0.959 . S
H664 C657 0.961 . S
H665 C657 0.960 . S
H666 C658 0.930 . S
H667 C659 0.929 . S
H668 C676 0.929 . S
H669 C678 0.930 . S
H670 C680 0.930 . S
H671 C683 0.929 . S
H672 C686 0.930 . S
H673 C688 0.960 . S
H674 C688 0.960 . S
H675 C688 0.960 . S
C676 H668 0.929 . S
C676 C677 1.377 . S
C676 C678 1.384 . S
C677 C676 1.377 . S
C677 C683 1.390 . S
C678 H669 0.930 . S
C678 C676 1.384 . S
C678 C679 1.372 . S
C679 C678 1.372 . S
C679 C680 1.400 . S
C679 C684 1.490 . S
C680 H670 0.930 . S
C680 C679 1.400 . S
C680 C683 1.386 . S
H681 C697 0.930 . S
H682 C698 0.931 . S
C683 H671 0.929 . S
C683 C677 1.390 . S
C683 C680 1.386 . S
C684 C679 1.490 . S
C684 C686 1.395 . S
C684 C687 1.403 . S
H685 C691 0.930 . S
C686 H672 0.930 . S
C686 C684 1.395 . S
C686 C689 1.403 . S
C687 C684 1.403 . S
C687 C688 1.524 . S
C687 C691 1.400 . S
C688 H673 0.960 . S
C688 H674 0.960 . S
C688 H675 0.960 . S
C688 C687 1.524 . S
C689 C686 1.403 . S
C689 C690 1.392 . S
C689 C693 1.495 . S
C690 C689 1.392 . S
C690 C691 1.385 . S
C690 C692 1.478 . S
C691 H685 0.930 . S
C691 C687 1.400 . S
C691 C690 1.385 . S
C692 C690 1.478 . S
C692 C694 1.381 . S
C692 C698 1.383 . S
C693 C689 1.495 . S
C693 H699 0.959 . S
C693 H700 0.961 . S
C693 H701 0.960 . S
C694 C692 1.381 . S
C694 C695 1.394 . S
C694 H702 0.930 . S
C695 C694 1.394 . S
C695 C696 1.383 . S
C695 H703 0.929 . S
C696 C695 1.383 . S
C696 C697 1.377 . S
C697 H681 0.930 . S
C697 C696 1.377 . S
C697 C698 1.379 . S
C698 H682 0.931 . S
C698 C692 1.383 . S
C698 C697 1.379 . S
H699 C693 0.959 . S
H700 C693 0.961 . S
H701 C693 0.960 . S
H702 C694 0.930 . S
H703 C695 0.929 . S
H704 C712 0.929 . S
H705 C714 0.930 . S
H706 C716 0.930 . S
H707 C719 0.929 . S
H708 C722 0.930 . S
H709 C724 0.960 . S
H710 C724 0.960 . S
H711 C724 0.960 . S
C712 H704 0.929 . S
C712 C713 1.377 . S
C712 C714 1.384 . S
C713 C712 1.377 . S
C713 C719 1.390 . S
C714 H705 0.930 . S
C714 C712 1.384 . S
C714 C715 1.372 . S
C715 C714 1.372 . S
C715 C716 1.400 . S
C715 C720 1.490 . S
C716 H706 0.930 . S
C716 C715 1.400 . S
C716 C719 1.386 . S
H717 C733 0.930 . S
H718 C734 0.931 . S
C719 H707 0.929 . S
C719 C713 1.390 . S
C719 C716 1.386 . S
C720 C715 1.490 . S
C720 C722 1.395 . S
C720 C723 1.403 . S
H721 C727 0.930 . S
C722 H708 0.930 . S
C722 C720 1.395 . S
C722 C725 1.403 . S
C723 C720 1.403 . S
C723 C724 1.524 . S
C723 C727 1.400 . S
C724 H709 0.960 . S
C724 H710 0.960 . S
C724 H711 0.960 . S
C724 C723 1.524 . S
C725 C722 1.403 . S
C725 C726 1.392 . S
C725 C729 1.495 . S
C726 C725 1.392 . S
C726 C727 1.385 . S
C726 C728 1.478 . S
C727 H721 0.930 . S
C727 C723 1.400 . S
C727 C726 1.385 . S
C728 C726 1.478 . S
C728 C730 1.381 . S
C728 C734 1.383 . S
C729 C725 1.495 . S
C729 H735 0.959 . S
C729 H736 0.961 . S
C729 H737 0.960 . S
C730 C728 1.381 . S
C730 C731 1.394 . S
C730 H738 0.930 . S
C731 C730 1.394 . S
C731 C732 1.383 . S
C731 H739 0.929 . S
C732 C731 1.383 . S
C732 C733 1.377 . S
C733 H717 0.930 . S
C733 C732 1.377 . S
C733 C734 1.379 . S
C734 H718 0.931 . S
C734 C728 1.383 . S
C734 C733 1.379 . S
H735 C729 0.959 . S
H736 C729 0.961 . S
H737 C729 0.960 . S
H738 C730 0.930 . S
H739 C731 0.929 . S
H740 C748 0.929 . S
H741 C750 0.930 . S
H742 C752 0.930 . S
H743 C755 0.929 . S
H744 C758 0.930 . S
H745 C760 0.960 . S
H746 C760 0.960 . S
H747 C760 0.960 . S
C748 H740 0.929 . S
C748 C749 1.377 . S
C748 C750 1.384 . S
C749 C748 1.377 . S
C749 C755 1.390 . S
C750 H741 0.930 . S
C750 C748 1.384 . S
C750 C751 1.372 . S
C751 C750 1.372 . S
C751 C752 1.400 . S
C751 C756 1.490 . S
C752 H742 0.930 . S
C752 C751 1.400 . S
C752 C755 1.386 . S
H753 C769 0.930 . S
H754 C770 0.931 . S
C755 H743 0.929 . S
C755 C749 1.390 . S
C755 C752 1.386 . S
C756 C751 1.490 . S
C756 C758 1.395 . S
C756 C759 1.403 . S
H757 C763 0.930 . S
C758 H744 0.930 . S
C758 C756 1.395 . S
C758 C761 1.403 . S
C759 C756 1.403 . S
C759 C760 1.524 . S
C759 C763 1.400 . S
C760 H745 0.960 . S
C760 H746 0.960 . S
C760 H747 0.960 . S
C760 C759 1.524 . S
C761 C758 1.403 . S
C761 C762 1.392 . S
C761 C765 1.495 . S
C762 C761 1.392 . S
C762 C763 1.385 . S
C762 C764 1.478 . S
C763 H757 0.930 . S
C763 C759 1.400 . S
C763 C762 1.385 . S
C764 C762 1.478 . S
C764 C766 1.381 . S
C764 C770 1.383 . S
C765 C761 1.495 . S
C765 H771 0.959 . S
C765 H772 0.961 . S
C765 H773 0.960 . S
C766 C764 1.381 . S
C766 C767 1.394 . S
C766 H774 0.930 . S
C767 C766 1.394 . S
C767 C768 1.383 . S
C767 H775 0.929 . S
C768 C767 1.383 . S
C768 C769 1.377 . S
C769 H753 0.930 . S
C769 C768 1.377 . S
C769 C770 1.379 . S
C770 H754 0.931 . S
C770 C764 1.383 . S
C770 C769 1.379 . S
H771 C765 0.959 . S
H772 C765 0.961 . S
H773 C765 0.960 . S
H774 C766 0.930 . S
H775 C767 0.929 . S
H776 C784 0.929 . S
H777 C786 0.930 . S
H778 C788 0.930 . S
H779 C791 0.929 . S
H780 C794 0.930 . S
H781 C796 0.960 . S
H782 C796 0.960 . S
H783 C796 0.960 . S
C784 H776 0.929 . S
C784 C785 1.377 . S
C784 C786 1.384 . S
C785 C784 1.377 . S
C785 C791 1.390 . S
C786 H777 0.930 . S
C786 C784 1.384 . S
C786 C787 1.372 . S
C787 C786 1.372 . S
C787 C788 1.400 . S
C787 C792 1.490 . S
C788 H778 0.930 . S
C788 C787 1.400 . S
C788 C791 1.386 . S
H789 C805 0.930 . S
H790 C806 0.931 . S
C791 H779 0.929 . S
C791 C785 1.390 . S
C791 C788 1.386 . S
C792 C787 1.490 . S
C792 C794 1.395 . S
C792 C795 1.403 . S
H793 C799 0.930 . S
C794 H780 0.930 . S
C794 C792 1.395 . S
C794 C797 1.403 . S
C795 C792 1.403 . S
C795 C796 1.524 . S
C795 C799 1.400 . S
C796 H781 0.960 . S
C796 H782 0.960 . S
C796 H783 0.960 . S
C796 C795 1.524 . S
C797 C794 1.403 . S
C797 C798 1.392 . S
C797 C801 1.495 . S
C798 C797 1.392 . S
C798 C799 1.385 . S
C798 C800 1.478 . S
C799 H793 0.930 . S
C799 C795 1.400 . S
C799 C798 1.385 . S
C800 C798 1.478 . S
C800 C802 1.381 1_556 S
C800 C806 1.383 . S
C801 C797 1.495 . S
C801 H807 0.959 . S
C801 H808 0.961 . S
C801 H809 0.960 . S
C802 C800 1.381 1_554 S
C802 C803 1.394 . S
C802 H810 0.930 . S
C803 C802 1.394 . S
C803 C804 1.377 1_554 S
C803 H811 0.929 . S
C804 C803 1.377 1_556 S
C804 C805 1.388 . S
C805 H789 0.930 . S
C805 C804 1.388 . S
C805 C806 1.379 . S
C806 H790 0.931 . S
C806 C800 1.383 . S
C806 C805 1.379 . S
H807 C801 0.959 . S
H808 C801 0.961 . S
H809 C801 0.960 . S
H810 C802 0.930 . S
H811 C803 0.929 . S
H812 C820 0.929 . S
H813 C822 0.930 . S
H814 C824 0.930 . S
H815 C827 0.929 . S
H816 C830 0.930 . S
H817 C832 0.960 . S
H818 C832 0.960 . S
H819 C832 0.960 . S
C820 H812 0.929 . S
C820 C821 1.377 . S
C820 C822 1.384 . S
C821 C820 1.377 . S
C821 C827 1.390 . S
C822 H813 0.930 . S
C822 C820 1.384 . S
C822 C823 1.372 . S
C823 C822 1.372 . S
C823 C824 1.400 . S
C823 C828 1.490 . S
C824 H814 0.930 . S
C824 C823 1.400 . S
C824 C827 1.386 . S
H825 C841 0.930 . S
H826 C842 0.931 . S
C827 H815 0.929 . S
C827 C821 1.390 . S
C827 C824 1.386 . S
C828 C823 1.490 . S
C828 C830 1.395 . S
C828 C831 1.403 . S
H829 C835 0.930 . S
C830 H816 0.930 . S
C830 C828 1.395 . S
C830 C833 1.403 . S
C831 C828 1.403 . S
C831 C832 1.524 . S
C831 C835 1.400 . S
C832 H817 0.960 . S
C832 H818 0.960 . S
C832 H819 0.960 . S
C832 C831 1.524 . S
C833 C830 1.403 . S
C833 C834 1.392 . S
C833 C837 1.495 . S
C834 C833 1.392 . S
C834 C835 1.385 . S
C834 C836 1.478 . S
C835 H829 0.930 . S
C835 C831 1.400 . S
C835 C834 1.385 . S
C836 C834 1.478 . S
C836 C838 1.381 . S
C836 C842 1.383 . S
C837 C833 1.495 . S
C837 H843 0.959 . S
C837 H844 0.961 . S
C837 H845 0.960 . S
C838 C836 1.381 . S
C838 C839 1.394 . S
C838 H846 0.930 . S
C839 C838 1.394 . S
C839 C840 1.383 . S
C839 H847 0.929 . S
C840 C839 1.383 . S
C840 C841 1.377 . S
C841 H825 0.930 . S
C841 C840 1.377 . S
C841 C842 1.379 . S
C842 H826 0.931 . S
C842 C836 1.383 . S
C842 C841 1.379 . S
H843 C837 0.959 . S
H844 C837 0.961 . S
H845 C837 0.960 . S
H846 C838 0.930 . S
H847 C839 0.929 . S
H848 C856 0.929 . S
H849 C858 0.930 . S
H850 C860 0.930 . S
H851 C863 0.929 . S
H852 C866 0.930 . S
H853 C868 0.960 . S
H854 C868 0.960 . S
H855 C868 0.960 . S
C856 H848 0.929 . S
C856 C857 1.377 . S
C856 C858 1.384 . S
C857 C856 1.377 . S
C857 C863 1.390 . S
C858 H849 0.930 . S
C858 C856 1.384 . S
C858 C859 1.372 . S
C859 C858 1.372 . S
C859 C860 1.400 . S
C859 C864 1.490 . S
C860 H850 0.930 . S
C860 C859 1.400 . S
C860 C863 1.386 . S
H861 C877 0.930 . S
H862 C878 0.931 . S
C863 H851 0.929 . S
C863 C857 1.390 . S
C863 C860 1.386 . S
C864 C859 1.490 . S
C864 C866 1.395 . S
C864 C867 1.403 . S
H865 C871 0.930 . S
C866 H852 0.930 . S
C866 C864 1.395 . S
C866 C869 1.403 . S
C867 C864 1.403 . S
C867 C868 1.524 . S
C867 C871 1.400 . S
C868 H853 0.960 . S
C868 H854 0.960 . S
C868 H855 0.960 . S
C868 C867 1.524 . S
C869 C866 1.403 . S
C869 C870 1.392 . S
C869 C873 1.495 . S
C870 C869 1.392 . S
C870 C871 1.385 . S
C870 C872 1.478 . S
C871 H865 0.930 . S
C871 C867 1.400 . S
C871 C870 1.385 . S
C872 C870 1.478 . S
C872 C874 1.381 . S
C872 C878 1.383 . S
C873 C869 1.495 . S
C873 H879 0.959 . S
C873 H880 0.961 . S
C873 H881 0.960 . S
C874 C872 1.381 . S
C874 C875 1.394 . S
C874 H882 0.930 . S
C875 C874 1.394 . S
C875 C876 1.383 . S
C875 H883 0.929 . S
C876 C875 1.383 . S
C876 C877 1.377 . S
C877 H861 0.930 . S
C877 C876 1.377 . S
C877 C878 1.379 . S
C878 H862 0.931 . S
C878 C872 1.383 . S
C878 C877 1.379 . S
H879 C873 0.959 . S
H880 C873 0.961 . S
H881 C873 0.960 . S
H882 C874 0.930 . S
H883 C875 0.929 . S
H884 C892 0.929 . S
H885 C894 0.930 . S
H886 C896 0.930 . S
H887 C899 0.929 . S
H888 C902 0.930 . S
H889 C904 0.960 . S
H890 C904 0.960 . S
H891 C904 0.960 . S
C892 H884 0.929 . S
C892 C893 1.377 . S
C892 C894 1.384 . S
C893 C892 1.377 . S
C893 C899 1.390 . S
C894 H885 0.930 . S
C894 C892 1.384 . S
C894 C895 1.372 . S
C895 C894 1.372 . S
C895 C896 1.400 . S
C895 C900 1.490 . S
C896 H886 0.930 . S
C896 C895 1.400 . S
C896 C899 1.386 . S
H897 C913 0.930 . S
H898 C914 0.931 . S
C899 H887 0.929 . S
C899 C893 1.390 . S
C899 C896 1.386 . S
C900 C895 1.490 . S
C900 C902 1.395 . S
C900 C903 1.403 . S
H901 C907 0.930 . S
C902 H888 0.930 . S
C902 C900 1.395 . S
C902 C905 1.403 . S
C903 C900 1.403 . S
C903 C904 1.524 . S
C903 C907 1.400 . S
C904 H889 0.960 . S
C904 H890 0.960 . S
C904 H891 0.960 . S
C904 C903 1.524 . S
C905 C902 1.403 . S
C905 C906 1.392 . S
C905 C909 1.495 . S
C906 C905 1.392 . S
C906 C907 1.385 . S
C906 C908 1.478 . S
C907 H901 0.930 . S
C907 C903 1.400 . S
C907 C906 1.385 . S
C908 C906 1.478 . S
C908 C910 1.381 . S
C908 C914 1.383 . S
C909 C905 1.495 . S
C909 H915 0.959 . S
C909 H916 0.961 . S
C909 H917 0.960 . S
C910 C908 1.381 . S
C910 C911 1.394 . S
C910 H918 0.930 . S
C911 C910 1.394 . S
C911 C912 1.383 . S
C911 H919 0.929 . S
C912 C911 1.383 . S
C912 C913 1.377 . S
C913 H897 0.930 . S
C913 C912 1.377 . S
C913 C914 1.379 . S
C914 H898 0.931 . S
C914 C908 1.383 . S
C914 C913 1.379 . S
H915 C909 0.959 . S
H916 C909 0.961 . S
H917 C909 0.960 . S
H918 C910 0.930 . S
H919 C911 0.929 . S
H920 C928 0.929 . S
H921 C930 0.930 . S
H922 C932 0.930 . S
H923 C935 0.929 . S
H924 C938 0.930 . S
H925 C940 0.960 . S
H926 C940 0.960 . S
H927 C940 0.960 . S
C928 H920 0.929 . S
C928 C929 1.377 . S
C928 C930 1.384 . S
C929 C928 1.377 . S
C929 C935 1.390 . S
C930 H921 0.930 . S
C930 C928 1.384 . S
C930 C931 1.372 . S
C931 C930 1.372 . S
C931 C932 1.400 . S
C931 C936 1.490 . S
C932 H922 0.930 . S
C932 C931 1.400 . S
C932 C935 1.386 . S
H933 C949 0.930 . S
H934 C950 0.931 . S
C935 H923 0.929 . S
C935 C929 1.390 . S
C935 C932 1.386 . S
C936 C931 1.490 . S
C936 C938 1.395 . S
C936 C939 1.403 . S
H937 C943 0.930 . S
C938 H924 0.930 . S
C938 C936 1.395 . S
C938 C941 1.403 . S
C939 C936 1.403 . S
C939 C940 1.524 . S
C939 C943 1.400 . S
C940 H925 0.960 . S
C940 H926 0.960 . S
C940 H927 0.960 . S
C940 C939 1.524 . S
C941 C938 1.403 . S
C941 C942 1.392 . S
C941 C945 1.495 . S
C942 C941 1.392 . S
C942 C943 1.385 . S
C942 C944 1.478 . S
C943 H937 0.930 . S
C943 C939 1.400 . S
C943 C942 1.385 . S
C944 C942 1.478 . S
C944 C946 1.381 . S
C944 C950 1.383 . S
C945 C941 1.495 . S
C945 H951 0.959 . S
C945 H952 0.961 . S
C945 H953 0.960 . S
C946 C944 1.381 . S
C946 C947 1.394 . S
C946 H954 0.930 . S
C947 C946 1.394 . S
C947 C948 1.383 . S
C947 H955 0.929 . S
C948 C947 1.383 . S
C948 C949 1.377 . S
C949 H933 0.930 . S
C949 C948 1.377 . S
C949 C950 1.379 . S
C950 H934 0.931 . S
C950 C944 1.383 . S
C950 C949 1.379 . S
H951 C945 0.959 . S
H952 C945 0.961 . S
H953 C945 0.960 . S
H954 C946 0.930 . S
H955 C947 0.929 . S
H956 C964 0.929 . S
H957 C966 0.930 . S
H958 C968 0.930 . S
H959 C971 0.929 . S
H960 C974 0.930 . S
H961 C976 0.960 . S
H962 C976 0.960 . S
H963 C976 0.960 . S
C964 H956 0.929 . S
C964 C965 1.377 . S
C964 C966 1.384 . S
C965 C964 1.377 . S
C965 C971 1.390 . S
C966 H957 0.930 . S
C966 C964 1.384 . S
C966 C967 1.372 . S
C967 C966 1.372 . S
C967 C968 1.400 . S
C967 C972 1.490 . S
C968 H958 0.930 . S
C968 C967 1.400 . S
C968 C971 1.386 . S
H969 C985 0.930 . S
H970 C986 0.931 . S
C971 H959 0.929 . S
C971 C965 1.390 . S
C971 C968 1.386 . S
C972 C967 1.490 . S
C972 C974 1.395 . S
C972 C975 1.403 . S
H973 C979 0.930 . S
C974 H960 0.930 . S
C974 C972 1.395 . S
C974 C977 1.403 . S
C975 C972 1.403 . S
C975 C976 1.524 . S
C975 C979 1.400 . S
C976 H961 0.960 . S
C976 H962 0.960 . S
C976 H963 0.960 . S
C976 C975 1.524 . S
C977 C974 1.403 . S
C977 C978 1.392 . S
C977 C981 1.495 . S
C978 C977 1.392 . S
C978 C979 1.385 . S
C978 C980 1.478 . S
C979 H973 0.930 . S
C979 C975 1.400 . S
C979 C978 1.385 . S
C980 C978 1.478 . S
C980 C982 1.381 . S
C980 C986 1.383 1_556 S
C981 C977 1.495 . S
C981 H987 0.959 . S
C981 H988 0.961 . S
C981 H989 0.960 . S
C982 C980 1.381 . S
C982 C983 1.394 . S
C982 H990 0.930 . S
C983 C982 1.394 . S
C983 C984 1.400 . S
C983 H991 0.929 . S
C984 C983 1.400 . S
C984 C985 1.368 1_556 S
C985 H969 0.930 . S
C985 C984 1.368 1_554 S
C985 C986 1.379 . S
C986 H970 0.931 . S
C986 C980 1.383 1_554 S
C986 C985 1.379 . S
H987 C981 0.959 . S
H988 C981 0.961 . S
H989 C981 0.960 . S
H990 C982 0.930 . S
H991 C983 0.929 . S
H992 C1000 0.929 . S
H993 C1002 0.930 . S
H994 C1004 0.930 . S
H995 C1007 0.929 . S
H996 C1010 0.930 . S
H997 C1012 0.960 . S
H998 C1012 0.960 . S
H999 C1012 0.960 . S
C1000 H992 0.929 . S
C1000 C1001 1.377 . S
C1000 C1002 1.384 . S
C1001 C1000 1.377 . S
C1001 C1007 1.390 . S
C1002 H993 0.930 . S
C1002 C1000 1.384 . S
C1002 C1003 1.372 . S
C1003 C1002 1.372 . S
C1003 C1004 1.400 . S
C1003 C1008 1.490 . S
C1004 H994 0.930 . S
C1004 C1003 1.400 . S
C1004 C1007 1.386 . S
H1005 C1021 0.930 . S
H1006 C1022 0.931 . S
C1007 H995 0.929 . S
C1007 C1001 1.390 . S
C1007 C1004 1.386 . S
C1008 C1003 1.490 . S
C1008 C1010 1.395 . S
C1008 C1011 1.403 . S
H1009 C1015 0.930 . S
C1010 H996 0.930 . S
C1010 C1008 1.395 . S
C1010 C1013 1.403 . S
C1011 C1008 1.403 . S
C1011 C1012 1.524 . S
C1011 C1015 1.400 . S
C1012 H997 0.960 . S
C1012 H998 0.960 . S
C1012 H999 0.960 . S
C1012 C1011 1.524 . S
C1013 C1010 1.403 . S
C1013 C1014 1.392 . S
C1013 C1017 1.495 . S
C1014 C1013 1.392 . S
C1014 C1015 1.385 . S
C1014 C1016 1.478 . S
C1015 H1009 0.930 . S
C1015 C1011 1.400 . S
C1015 C1014 1.385 . S
C1016 C1014 1.478 . S
C1016 C1018 1.381 . S
C1016 C1022 1.383 . S
C1017 C1013 1.495 . S
C1017 H1023 0.959 . S
C1017 H1024 0.961 . S
C1017 H1025 0.960 . S
C1018 C1016 1.381 . S
C1018 C1019 1.394 . S
C1018 H1026 0.930 . S
C1019 C1018 1.394 . S
C1019 C1020 1.383 . S
C1019 H1027 0.929 . S
C1020 C1019 1.383 . S
C1020 C1021 1.377 . S
C1021 H1005 0.930 . S
C1021 C1020 1.377 . S
C1021 C1022 1.379 . S
C1022 H1006 0.931 . S
C1022 C1016 1.383 . S
C1022 C1021 1.379 . S
H1023 C1017 0.959 . S
H1024 C1017 0.961 . S
H1025 C1017 0.960 . S
H1026 C1018 0.930 . S
H1027 C1019 0.929 . S
H1028 C1036 0.929 . S
H1029 C1038 0.930 . S
H1030 C1040 0.930 . S
H1031 C1043 0.929 . S
H1032 C1046 0.930 . S
H1033 C1048 0.960 . S
H1034 C1048 0.960 . S
H1035 C1048 0.960 . S
C1036 H1028 0.929 . S
C1036 C1037 1.377 . S
C1036 C1038 1.384 . S
C1037 C1036 1.377 . S
C1037 C1043 1.390 . S
C1038 H1029 0.930 . S
C1038 C1036 1.384 . S
C1038 C1039 1.372 . S
C1039 C1038 1.372 . S
C1039 C1040 1.400 . S
C1039 C1044 1.490 . S
C1040 H1030 0.930 . S
C1040 C1039 1.400 . S
C1040 C1043 1.386 . S
H1041 C1057 0.930 . S
H1042 C1058 0.931 . S
C1043 H1031 0.929 . S
C1043 C1037 1.390 . S
C1043 C1040 1.386 . S
C1044 C1039 1.490 . S
C1044 C1046 1.395 . S
C1044 C1047 1.403 1_565 S
H1045 C1051 0.930 . S
C1046 H1032 0.930 . S
C1046 C1044 1.395 . S
C1046 C1049 1.411 . S
C1047 C1044 1.403 1_545 S
C1047 C1048 1.524 . S
C1047 C1051 1.400 . S
C1048 H1033 0.960 . S
C1048 H1034 0.960 . S
C1048 H1035 0.960 . S
C1048 C1047 1.524 . S
C1049 C1046 1.411 . S
C1049 C1050 1.392 1_565 S
C1049 C1053 1.488 1_554 S
C1050 C1049 1.392 1_545 S
C1050 C1051 1.393 . S
C1050 C1052 1.470 1_554 S
C1051 H1045 0.930 . S
C1051 C1047 1.400 . S
C1051 C1050 1.393 . S
C1052 C1050 1.470 1_556 S
C1052 C1054 1.381 . S
C1052 C1058 1.383 . S
C1053 C1049 1.488 1_556 S
C1053 H1059 0.959 . S
C1053 H1060 0.961 . S
C1053 H1061 0.960 . S
C1054 C1052 1.381 . S
C1054 C1055 1.394 . S
C1054 H1062 0.930 . S
C1055 C1054 1.394 . S
C1055 C1056 1.383 . S
C1055 H1063 0.929 . S
C1056 C1055 1.383 . S
C1056 C1057 1.377 . S
C1057 H1041 0.930 . S
C1057 C1056 1.377 . S
C1057 C1058 1.379 . S
C1058 H1042 0.931 . S
C1058 C1052 1.383 . S
C1058 C1057 1.379 . S
H1059 C1053 0.959 . S
H1060 C1053 0.961 . S
H1061 C1053 0.960 . S
H1062 C1054 0.930 . S
H1063 C1055 0.929 . S
H1064 C1072 0.929 . S
H1065 C1074 0.930 . S
H1066 C1076 0.930 . S
H1067 C1079 0.929 . S
H1068 C1082 0.930 . S
H1069 C1084 0.960 . S
H1070 C1084 0.960 . S
H1071 C1084 0.960 . S
C1072 H1064 0.929 . S
C1072 C1073 1.377 . S
C1072 C1074 1.384 . S
C1073 C1072 1.377 . S
C1073 C1079 1.390 . S
C1074 H1065 0.930 . S
C1074 C1072 1.384 . S
C1074 C1075 1.372 . S
C1075 C1074 1.372 . S
C1075 C1076 1.400 . S
C1075 C1080 1.490 . S
C1076 H1066 0.930 . S
C1076 C1075 1.400 . S
C1076 C1079 1.386 . S
H1077 C1093 0.930 . S
H1078 C1094 0.931 . S
C1079 H1067 0.929 . S
C1079 C1073 1.390 . S
C1079 C1076 1.386 . S
C1080 C1075 1.490 . S
C1080 C1082 1.395 . S
C1080 C1083 1.403 . S
H1081 C1087 0.930 . S
C1082 H1068 0.930 . S
C1082 C1080 1.395 . S
C1082 C1085 1.403 . S
C1083 C1080 1.403 . S
C1083 C1084 1.524 . S
C1083 C1087 1.400 . S
C1084 H1069 0.960 . S
C1084 H1070 0.960 . S
C1084 H1071 0.960 . S
C1084 C1083 1.524 . S
C1085 C1082 1.403 . S
C1085 C1086 1.392 . S
C1085 C1089 1.495 . S
C1086 C1085 1.392 . S
C1086 C1087 1.385 . S
C1086 C1088 1.478 . S
C1087 H1081 0.930 . S
C1087 C1083 1.400 . S
C1087 C1086 1.385 . S
C1088 C1086 1.478 . S
C1088 C1090 1.381 . S
C1088 C1094 1.383 . S
C1089 C1085 1.495 . S
C1089 H1095 0.959 . S
C1089 H1096 0.961 . S
C1089 H1097 0.960 . S
C1090 C1088 1.381 . S
C1090 C1091 1.394 . S
C1090 H1098 0.930 . S
C1091 C1090 1.394 . S
C1091 C1092 1.383 . S
C1091 H1099 0.929 . S
C1092 C1091 1.383 . S
C1092 C1093 1.377 . S
C1093 H1077 0.930 . S
C1093 C1092 1.377 . S
C1093 C1094 1.379 . S
C1094 H1078 0.931 . S
C1094 C1088 1.383 . S
C1094 C1093 1.379 . S
H1095 C1089 0.959 . S
H1096 C1089 0.961 . S
H1097 C1089 0.960 . S
H1098 C1090 0.930 . S
H1099 C1091 0.929 . S
H1100 C1108 0.929 . S
H1101 C1110 0.930 . S
H1102 C1112 0.930 . S
H1103 C1115 0.929 . S
H1104 C1118 0.930 . S
H1105 C1120 0.960 . S
H1106 C1120 0.960 . S
H1107 C1120 0.960 . S
C1108 H1100 0.929 . S
C1108 C1109 1.377 . S
C1108 C1110 1.384 . S
C1109 C1108 1.377 . S
C1109 C1115 1.390 . S
C1110 H1101 0.930 . S
C1110 C1108 1.384 . S
C1110 C1111 1.372 . S
C1111 C1110 1.372 . S
C1111 C1112 1.400 . S
C1111 C1116 1.490 . S
C1112 H1102 0.930 . S
C1112 C1111 1.400 . S
C1112 C1115 1.386 . S
H1113 C1129 0.930 . S
H1114 C1130 0.931 . S
C1115 H1103 0.929 . S
C1115 C1109 1.390 . S
C1115 C1112 1.386 . S
C1116 C1111 1.490 . S
C1116 C1118 1.395 . S
C1116 C1119 1.403 1_545 S
H1117 C1123 0.930 . S
C1118 H1104 0.930 . S
C1118 C1116 1.395 . S
C1118 C1121 1.403 . S
C1119 C1116 1.403 1_565 S
C1119 C1120 1.524 . S
C1119 C1123 1.400 . S
C1120 H1105 0.960 . S
C1120 H1106 0.960 . S
C1120 H1107 0.960 . S
C1120 C1119 1.524 . S
C1121 C1118 1.403 . S
C1121 C1122 1.392 1_545 S
C1121 C1125 1.495 . S
C1122 C1121 1.392 1_565 S
C1122 C1123 1.385 . S
C1122 C1124 1.478 . S
C1123 H1117 0.930 . S
C1123 C1119 1.400 . S
C1123 C1122 1.385 . S
C1124 C1122 1.478 . S
C1124 C1126 1.381 . S
C1124 C1130 1.383 . S
C1125 C1121 1.495 . S
C1125 H1131 0.959 . S
C1125 H1132 0.961 . S
C1125 H1133 0.960 . S
C1126 C1124 1.381 . S
C1126 C1127 1.394 . S
C1126 H1134 0.930 . S
C1127 C1126 1.394 . S
C1127 C1128 1.383 . S
C1127 H1135 0.929 . S
C1128 C1127 1.383 . S
C1128 C1129 1.377 . S
C1129 H1113 0.930 . S
C1129 C1128 1.377 . S
C1129 C1130 1.379 . S
C1130 H1114 0.931 . S
C1130 C1124 1.383 . S
C1130 C1129 1.379 . S
H1131 C1125 0.959 . S
H1132 C1125 0.961 . S
H1133 C1125 0.960 . S
H1134 C1126 0.930 . S
H1135 C1127 0.929 . S
H1136 C1144 0.929 . S
H1137 C1146 0.930 . S
H1138 C1148 0.930 . S
H1139 C1151 0.929 . S
H1140 C1154 0.930 . S
H1141 C1156 0.960 . S
H1142 C1156 0.960 . S
H1143 C1156 0.960 . S
C1144 H1136 0.929 . S
C1144 C1145 1.377 . S
C1144 C1146 1.384 . S
C1145 C1144 1.377 . S
C1145 C1151 1.390 . S
C1146 H1137 0.930 . S
C1146 C1144 1.384 . S
C1146 C1147 1.372 . S
C1147 C1146 1.372 . S
C1147 C1148 1.400 . S
C1147 C1152 1.490 . S
C1148 H1138 0.930 . S
C1148 C1147 1.400 . S
C1148 C1151 1.386 . S
H1149 C1165 0.930 . S
H1150 C1166 0.931 . S
C1151 H1139 0.929 . S
C1151 C1145 1.390 . S
C1151 C1148 1.386 . S
C1152 C1147 1.490 . S
C1152 C1154 1.395 . S
C1152 C1155 1.403 . S
H1153 C1159 0.930 . S
C1154 H1140 0.930 . S
C1154 C1152 1.395 . S
C1154 C1157 1.403 . S
C1155 C1152 1.403 . S
C1155 C1156 1.524 . S
C1155 C1159 1.400 . S
C1156 H1141 0.960 . S
C1156 H1142 0.960 . S
C1156 H1143 0.960 . S
C1156 C1155 1.524 . S
C1157 C1154 1.403 . S
C1157 C1158 1.392 . S
C1157 C1161 1.495 . S
C1158 C1157 1.392 . S
C1158 C1159 1.385 . S
C1158 C1160 1.478 . S
C1159 H1153 0.930 . S
C1159 C1155 1.400 . S
C1159 C1158 1.385 . S
C1160 C1158 1.478 . S
C1160 C1162 1.381 . S
C1160 C1166 1.383 . S
C1161 C1157 1.495 . S
C1161 H1167 0.959 . S
C1161 H1168 0.961 . S
C1161 H1169 0.960 . S
C1162 C1160 1.381 . S
C1162 C1163 1.394 . S
C1162 H1170 0.930 . S
C1163 C1162 1.394 . S
C1163 C1164 1.383 . S
C1163 H1171 0.929 . S
C1164 C1163 1.383 . S
C1164 C1165 1.377 . S
C1165 H1149 0.930 . S
C1165 C1164 1.377 . S
C1165 C1166 1.379 . S
C1166 H1150 0.931 . S
C1166 C1160 1.383 . S
C1166 C1165 1.379 . S
H1167 C1161 0.959 . S
H1168 C1161 0.961 . S
H1169 C1161 0.960 . S
H1170 C1162 0.930 . S
H1171 C1163 0.929 . S
H1172 C1180 0.929 . S
H1173 C1182 0.930 . S
H1174 C1184 0.930 . S
H1175 C1187 0.929 . S
H1176 C1190 0.930 . S
H1177 C1192 0.974 1_565 S
H1178 C1192 0.931 1_566 S
H1179 C1192 0.960 1_556 S
C1180 H1172 0.929 . S
C1180 C1181 1.377 . S
C1180 C1182 1.384 . S
C1181 C1180 1.377 . S
C1181 C1187 1.390 . S
C1182 H1173 0.930 . S
C1182 C1180 1.384 . S
C1182 C1183 1.372 . S
C1183 C1182 1.372 . S
C1183 C1184 1.400 . S
C1183 C1188 1.490 1_556 S
C1184 H1174 0.930 . S
C1184 C1183 1.400 . S
C1184 C1187 1.386 . S
H1185 C1201 0.930 . S
H1186 C1202 0.931 . S
C1187 H1175 0.929 . S
C1187 C1181 1.390 . S
C1187 C1184 1.386 . S
C1188 C1183 1.490 1_554 S
C1188 C1190 1.395 . S
C1188 C1191 1.403 . S
H1189 C1195 0.930 . S
C1190 H1176 0.930 . S
C1190 C1188 1.395 . S
C1190 C1193 1.403 1_545 S
C1191 C1188 1.403 . S
C1191 C1192 1.534 . S
C1191 C1195 1.400 1_545 S
C1192 H1177 0.974 1_545 S
C1192 H1178 0.931 1_544 S
C1192 H1179 0.960 1_554 S
C1192 C1191 1.534 . S
C1193 C1190 1.403 1_565 S
C1193 C1194 1.392 . S
C1193 C1197 1.495 . S
C1194 C1193 1.392 . S
C1194 C1195 1.385 . S
C1194 C1196 1.478 . S
C1195 H1189 0.930 . S
C1195 C1191 1.400 1_565 S
C1195 C1194 1.385 . S
C1196 C1194 1.478 . S
C1196 C1198 1.381 . S
C1196 C1202 1.383 . S
C1197 C1193 1.495 . S
C1197 H1203 0.958 . S
C1197 H1204 0.961 . S
C1197 H1205 0.960 . S
C1198 C1196 1.381 . S
C1198 C1199 1.394 . S
C1198 H1206 0.930 . S
C1199 C1198 1.394 . S
C1199 C1200 1.383 . S
C1199 H1207 0.929 . S
C1200 C1199 1.383 . S
C1200 C1201 1.377 . S
C1201 H1185 0.930 . S
C1201 C1200 1.377 . S
C1201 C1202 1.379 . S
C1202 H1186 0.931 . S
C1202 C1196 1.383 . S
C1202 C1201 1.379 . S
H1203 C1197 0.958 . S
H1204 C1197 0.961 . S
H1205 C1197 0.960 . S
H1206 C1198 0.930 . S
H1207 C1199 0.929 . S
H1208 C1216 0.929 . S
H1209 C1218 0.930 . S
H1210 C1220 0.930 . S
H1211 C1223 0.929 . S
H1212 C1226 0.930 . S
H1213 C1228 0.960 . S
H1214 C1228 0.960 . S
H1215 C1228 0.960 . S
C1216 H1208 0.929 . S
C1216 C1217 1.377 . S
C1216 C1218 1.384 . S
C1217 C1216 1.377 . S
C1217 C1223 1.390 . S
C1218 H1209 0.930 . S
C1218 C1216 1.384 . S
C1218 C1219 1.372 . S
C1219 C1218 1.372 . S
C1219 C1220 1.400 . S
C1219 C1224 1.490 . S
C1220 H1210 0.930 . S
C1220 C1219 1.400 . S
C1220 C1223 1.386 . S
H1221 C1237 0.930 . S
H1222 C1238 0.931 . S
C1223 H1211 0.929 . S
C1223 C1217 1.390 . S
C1223 C1220 1.386 . S
C1224 C1219 1.490 . S
C1224 C1226 1.395 . S
C1224 C1227 1.403 . S
H1225 C1231 0.930 . S
C1226 H1212 0.930 . S
C1226 C1224 1.395 . S
C1226 C1229 1.403 . S
C1227 C1224 1.403 . S
C1227 C1228 1.524 . S
C1227 C1231 1.400 . S
C1228 H1213 0.960 . S
C1228 H1214 0.960 . S
C1228 H1215 0.960 . S
C1228 C1227 1.524 . S
C1229 C1226 1.403 . S
C1229 C1230 1.392 . S
C1229 C1233 1.495 . S
C1230 C1229 1.392 . S
C1230 C1231 1.385 . S
C1230 C1232 1.478 . S
C1231 H1225 0.930 . S
C1231 C1227 1.400 . S
C1231 C1230 1.385 . S
C1232 C1230 1.478 . S
C1232 C1234 1.381 . S
C1232 C1238 1.383 . S
C1233 C1229 1.495 . S
C1233 H1239 0.959 . S
C1233 H1240 0.961 . S
C1233 H1241 0.960 . S
C1234 C1232 1.381 . S
C1234 C1235 1.394 . S
C1234 H1242 0.930 . S
C1235 C1234 1.394 . S
C1235 C1236 1.383 . S
C1235 H1243 0.929 . S
C1236 C1235 1.383 . S
C1236 C1237 1.377 . S
C1237 H1221 0.930 . S
C1237 C1236 1.377 . S
C1237 C1238 1.379 . S
C1238 H1222 0.931 . S
C1238 C1232 1.383 . S
C1238 C1237 1.379 . S
H1239 C1233 0.959 . S
H1240 C1233 0.961 . S
H1241 C1233 0.960 . S
H1242 C1234 0.930 . S
H1243 C1235 0.929 . S
H1244 C1252 0.929 . S
H1245 C1254 0.930 . S
H1246 C1256 0.930 . S
H1247 C1259 0.929 . S
H1248 C1262 0.930 . S
H1249 C1264 0.960 . S
H1250 C1264 0.960 . S
H1251 C1264 0.960 . S
C1252 H1244 0.929 . S
C1252 C1253 1.377 . S
C1252 C1254 1.384 . S
C1253 C1252 1.377 . S
C1253 C1259 1.390 . S
C1254 H1245 0.930 . S
C1254 C1252 1.384 . S
C1254 C1255 1.372 . S
C1255 C1254 1.372 . S
C1255 C1256 1.400 . S
C1255 C1260 1.490 . S
C1256 H1246 0.930 . S
C1256 C1255 1.400 . S
C1256 C1259 1.386 . S
H1257 C1273 0.930 . S
H1258 C1274 0.931 . S
C1259 H1247 0.929 . S
C1259 C1253 1.390 . S
C1259 C1256 1.386 . S
C1260 C1255 1.490 . S
C1260 C1262 1.395 . S
C1260 C1263 1.403 1_545 S
H1261 C1267 0.930 . S
C1262 H1248 0.930 . S
C1262 C1260 1.395 . S
C1262 C1265 1.403 . S
C1263 C1260 1.403 1_565 S
C1263 C1264 1.524 . S
C1263 C1267 1.400 . S
C1264 H1249 0.960 . S
C1264 H1250 0.960 . S
C1264 H1251 0.960 . S
C1264 C1263 1.524 . S
C1265 C1262 1.403 . S
C1265 C1266 1.392 1_545 S
C1265 C1269 1.495 . S
C1266 C1265 1.392 1_565 S
C1266 C1267 1.385 . S
C1266 C1268 1.478 . S
C1267 H1261 0.930 . S
C1267 C1263 1.400 . S
C1267 C1266 1.385 . S
C1268 C1266 1.478 . S
C1268 C1270 1.381 . S
C1268 C1274 1.383 . S
C1269 C1265 1.495 . S
C1269 H1275 0.959 . S
C1269 H1276 0.961 . S
C1269 H1277 0.960 . S
C1270 C1268 1.381 . S
C1270 C1271 1.394 . S
C1270 H1278 0.930 . S
C1271 C1270 1.394 . S
C1271 C1272 1.383 . S
C1271 H1279 0.929 . S
C1272 C1271 1.383 . S
C1272 C1273 1.377 . S
C1273 H1257 0.930 . S
C1273 C1272 1.377 . S
C1273 C1274 1.379 . S
C1274 H1258 0.931 . S
C1274 C1268 1.383 . S
C1274 C1273 1.379 . S
H1275 C1269 0.959 . S
H1276 C1269 0.961 . S
H1277 C1269 0.960 . S
H1278 C1270 0.930 . S
H1279 C1271 0.929 . S
H1280 C1288 0.929 . S
H1281 C1290 0.930 . S
H1282 C1292 0.930 . S
H1283 C1295 0.929 . S
H1284 C1298 0.930 . S
H1285 C1300 0.960 . S
H1286 C1300 0.960 . S
H1287 C1300 0.960 . S
C1288 H1280 0.929 . S
C1288 C1289 1.377 . S
C1288 C1290 1.384 . S
C1289 C1288 1.377 . S
C1289 C1295 1.390 . S
C1290 H1281 0.930 . S
C1290 C1288 1.384 . S
C1290 C1291 1.372 . S
C1291 C1290 1.372 . S
C1291 C1292 1.400 . S
C1291 C1296 1.490 . S
C1292 H1282 0.930 . S
C1292 C1291 1.400 . S
C1292 C1295 1.386 . S
H1293 C1309 0.930 . S
H1294 C1310 0.931 . S
C1295 H1283 0.929 . S
C1295 C1289 1.390 . S
C1295 C1292 1.386 . S
C1296 C1291 1.490 . S
C1296 C1298 1.395 . S
C1296 C1299 1.403 . S
H1297 C1303 0.930 . S
C1298 H1284 0.930 . S
C1298 C1296 1.395 . S
C1298 C1301 1.403 . S
C1299 C1296 1.403 . S
C1299 C1300 1.524 . S
C1299 C1303 1.400 . S
C1300 H1285 0.960 . S
C1300 H1286 0.960 . S
C1300 H1287 0.960 . S
C1300 C1299 1.524 . S
C1301 C1298 1.403 . S
C1301 C1302 1.392 . S
C1301 C1305 1.495 . S
C1302 C1301 1.392 . S
C1302 C1303 1.385 . S
C1302 C1304 1.478 . S
C1303 H1297 0.930 . S
C1303 C1299 1.400 . S
C1303 C1302 1.385 . S
C1304 C1302 1.478 . S
C1304 C1306 1.381 . S
C1304 C1310 1.383 . S
C1305 C1301 1.495 . S
C1305 H1311 0.959 . S
C1305 H1312 0.961 . S
C1305 H1313 0.960 . S
C1306 C1304 1.381 . S
C1306 C1307 1.394 . S
C1306 H1314 0.930 . S
C1307 C1306 1.394 . S
C1307 C1308 1.383 . S
C1307 H1315 0.929 . S
C1308 C1307 1.383 . S
C1308 C1309 1.377 . S
C1309 H1293 0.930 . S
C1309 C1308 1.377 . S
C1309 C1310 1.379 . S
C1310 H1294 0.931 . S
C1310 C1304 1.383 . S
C1310 C1309 1.379 . S
H1311 C1305 0.959 . S
H1312 C1305 0.961 . S
H1313 C1305 0.960 . S
H1314 C1306 0.930 . S
H1315 C1307 0.929 . S
H1316 C1324 0.929 . S
H1317 C1326 0.930 . S
H1318 C1328 0.930 . S
H1319 C1331 0.929 . S
H1320 C1334 0.930 . S
H1321 C1336 0.960 . S
H1322 C1336 0.960 . S
H1323 C1336 0.960 . S
C1324 H1316 0.929 . S
C1324 C1325 1.377 . S
C1324 C1326 1.384 . S
C1325 C1324 1.377 . S
C1325 C1331 1.390 . S
C1326 H1317 0.930 . S
C1326 C1324 1.384 . S
C1326 C1327 1.372 . S
C1327 C1326 1.372 . S
C1327 C1328 1.400 . S
C1327 C1332 1.490 . S
C1328 H1318 0.930 . S
C1328 C1327 1.400 . S
C1328 C1331 1.386 . S
H1329 C1345 0.930 . S
H1330 C1346 0.931 . S
C1331 H1319 0.929 . S
C1331 C1325 1.390 . S
C1331 C1328 1.386 . S
C1332 C1327 1.490 . S
C1332 C1334 1.395 . S
C1332 C1335 1.403 . S
H1333 C1339 0.930 . S
C1334 H1320 0.930 . S
C1334 C1332 1.395 . S
C1334 C1337 1.403 . S
C1335 C1332 1.403 . S
C1335 C1336 1.524 . S
C1335 C1339 1.400 . S
C1336 H1321 0.960 . S
C1336 H1322 0.960 . S
C1336 H1323 0.960 . S
C1336 C1335 1.524 . S
C1337 C1334 1.403 . S
C1337 C1338 1.392 . S
C1337 C1341 1.495 . S
C1338 C1337 1.392 . S
C1338 C1339 1.385 . S
C1338 C1340 1.478 . S
C1339 H1333 0.930 . S
C1339 C1335 1.400 . S
C1339 C1338 1.385 . S
C1340 C1338 1.478 . S
C1340 C1342 1.381 . S
C1340 C1346 1.383 . S
C1341 C1337 1.495 . S
C1341 H1347 0.959 . S
C1341 H1348 0.961 . S
C1341 H1349 0.960 . S
C1342 C1340 1.381 . S
C1342 C1343 1.394 . S
C1342 H1350 0.930 . S
C1343 C1342 1.394 . S
C1343 C1344 1.383 . S
C1343 H1351 0.929 . S
C1344 C1343 1.383 . S
C1344 C1345 1.377 . S
C1345 H1329 0.930 . S
C1345 C1344 1.377 . S
C1345 C1346 1.379 . S
C1346 H1330 0.931 . S
C1346 C1340 1.383 . S
C1346 C1345 1.379 . S
H1347 C1341 0.959 . S
H1348 C1341 0.961 . S
H1349 C1341 0.960 . S
H1350 C1342 0.930 . S
H1351 C1343 0.929 . S
H1352 C1360 0.929 . S
H1353 C1362 0.930 . S
H1354 C1364 0.930 . S
H1355 C1367 0.929 . S
H1356 C1370 0.930 . S
H1357 C1372 0.960 . S
H1358 C1372 0.960 . S
H1359 C1372 0.960 . S
C1360 H1352 0.929 . S
C1360 C1361 1.377 . S
C1360 C1362 1.384 . S
C1361 C1360 1.377 . S
C1361 C1367 1.390 . S
C1362 H1353 0.930 . S
C1362 C1360 1.384 . S
C1362 C1363 1.372 . S
C1363 C1362 1.372 . S
C1363 C1364 1.400 . S
C1363 C1368 1.490 . S
C1364 H1354 0.930 . S
C1364 C1363 1.400 . S
C1364 C1367 1.386 . S
H1365 C1381 0.930 . S
H1366 C1382 0.931 . S
C1367 H1355 0.929 . S
C1367 C1361 1.390 . S
C1367 C1364 1.386 . S
C1368 C1363 1.490 . S
C1368 C1370 1.395 . S
C1368 C1371 1.403 . S
H1369 C1375 0.930 . S
C1370 H1356 0.930 . S
C1370 C1368 1.395 . S
C1370 C1373 1.403 . S
C1371 C1368 1.403 . S
C1371 C1372 1.524 . S
C1371 C1375 1.400 . S
C1372 H1357 0.960 . S
C1372 H1358 0.960 . S
C1372 H1359 0.960 . S
C1372 C1371 1.524 . S
C1373 C1370 1.403 . S
C1373 C1374 1.392 . S
C1373 C1377 1.495 . S
C1374 C1373 1.392 . S
C1374 C1375 1.385 . S
C1374 C1376 1.478 . S
C1375 H1369 0.930 . S
C1375 C1371 1.400 . S
C1375 C1374 1.385 . S
C1376 C1374 1.478 . S
C1376 C1378 1.381 . S
C1376 C1382 1.383 . S
C1377 C1373 1.495 . S
C1377 H1383 0.959 . S
C1377 H1384 0.961 . S
C1377 H1385 0.960 . S
C1378 C1376 1.381 . S
C1378 C1379 1.394 . S
C1378 H1386 0.930 . S
C1379 C1378 1.394 . S
C1379 C1380 1.383 . S
C1379 H1387 0.929 . S
C1380 C1379 1.383 . S
C1380 C1381 1.377 . S
C1381 H1365 0.930 . S
C1381 C1380 1.377 . S
C1381 C1382 1.379 . S
C1382 H1366 0.931 . S
C1382 C1376 1.383 . S
C1382 C1381 1.379 . S
H1383 C1377 0.959 . S
H1384 C1377 0.961 . S
H1385 C1377 0.960 . S
H1386 C1378 0.930 . S
H1387 C1379 0.929 . S
H1388 C1396 0.929 . S
H1389 C1398 0.930 . S
H1390 C1400 0.930 . S
H1391 C1403 0.929 . S
H1392 C1406 0.930 . S
H1393 C1408 0.960 . S
H1394 C1408 0.960 . S
H1395 C1408 0.960 . S
C1396 H1388 0.929 . S
C1396 C1397 1.377 . S
C1396 C1398 1.384 . S
C1397 C1396 1.377 . S
C1397 C1403 1.390 . S
C1398 H1389 0.930 . S
C1398 C1396 1.384 . S
C1398 C1399 1.372 . S
C1399 C1398 1.372 . S
C1399 C1400 1.400 . S
C1399 C1404 1.490 . S
C1400 H1390 0.930 . S
C1400 C1399 1.400 . S
C1400 C1403 1.386 . S
H1401 C1417 0.930 . S
H1402 C1418 0.931 . S
C1403 H1391 0.929 . S
C1403 C1397 1.390 . S
C1403 C1400 1.386 . S
C1404 C1399 1.490 . S
C1404 C1406 1.395 . S
C1404 C1407 1.403 . S
H1405 C1411 0.930 . S
C1406 H1392 0.930 . S
C1406 C1404 1.395 . S
C1406 C1409 1.403 . S
C1407 C1404 1.403 . S
C1407 C1408 1.524 . S
C1407 C1411 1.400 . S
C1408 H1393 0.960 . S
C1408 H1394 0.960 . S
C1408 H1395 0.960 . S
C1408 C1407 1.524 . S
C1409 C1406 1.403 . S
C1409 C1410 1.392 . S
C1409 C1413 1.495 1_554 S
C1410 C1409 1.392 . S
C1410 C1411 1.385 . S
C1410 C1412 1.478 1_554 S
C1411 H1405 0.930 . S
C1411 C1407 1.400 . S
C1411 C1410 1.385 . S
C1412 C1410 1.478 1_556 S
C1412 C1414 1.381 . S
C1412 C1418 1.383 . S
C1413 C1409 1.495 1_556 S
C1413 H1419 0.959 . S
C1413 H1420 0.961 . S
C1413 H1421 0.960 . S
C1414 C1412 1.381 . S
C1414 C1415 1.394 . S
C1414 H1422 0.930 . S
C1415 C1414 1.394 . S
C1415 C1416 1.383 . S
C1415 H1423 0.929 . S
C1416 C1415 1.383 . S
C1416 C1417 1.377 . S
C1417 H1401 0.930 . S
C1417 C1416 1.377 . S
C1417 C1418 1.379 . S
C1418 H1402 0.931 . S
C1418 C1412 1.383 . S
C1418 C1417 1.379 . S
H1419 C1413 0.959 . S
H1420 C1413 0.961 . S
H1421 C1413 0.960 . S
H1422 C1414 0.930 . S
H1423 C1415 0.929 . S
H1424 C1432 0.929 . S
H1425 C1434 0.930 . S
H1426 C1436 0.930 . S
H1427 C1439 0.929 . S
H1428 C1442 0.930 . S
H1429 C1444 0.960 . S
H1430 C1444 0.960 . S
H1431 C1444 0.960 . S
C1432 H1424 0.929 . S
C1432 C1433 1.377 . S
C1432 C1434 1.384 . S
C1433 C1432 1.377 . S
C1433 C1439 1.390 . S
C1434 H1425 0.930 . S
C1434 C1432 1.384 . S
C1434 C1435 1.372 . S
C1435 C1434 1.372 . S
C1435 C1436 1.400 . S
C1435 C1440 1.490 . S
C1436 H1426 0.930 . S
C1436 C1435 1.400 . S
C1436 C1439 1.386 . S
H1437 C1453 0.930 . S
H1438 C1454 0.931 . S
C1439 H1427 0.929 . S
C1439 C1433 1.390 . S
C1439 C1436 1.386 . S
C1440 C1435 1.490 . S
C1440 C1442 1.395 . S
C1440 C1443 1.403 . S
H1441 C1447 0.930 . S
C1442 H1428 0.930 . S
C1442 C1440 1.395 . S
C1442 C1445 1.403 . S
C1443 C1440 1.403 . S
C1443 C1444 1.524 . S
C1443 C1447 1.400 . S
C1444 H1429 0.960 . S
C1444 H1430 0.960 . S
C1444 H1431 0.960 . S
C1444 C1443 1.524 . S
C1445 C1442 1.403 . S
C1445 C1446 1.392 . S
C1445 C1449 1.495 . S
C1446 C1445 1.392 . S
C1446 C1447 1.385 . S
C1446 C1448 1.478 . S
C1447 H1441 0.930 . S
C1447 C1443 1.400 . S
C1447 C1446 1.385 . S
C1448 C1446 1.478 . S
C1448 C1450 1.381 . S
C1448 C1454 1.383 . S
C1449 C1445 1.495 . S
C1449 H1455 0.959 . S
C1449 H1456 0.961 . S
C1449 H1457 0.960 . S
C1450 C1448 1.381 . S
C1450 C1451 1.394 . S
C1450 H1458 0.930 . S
C1451 C1450 1.394 . S
C1451 C1452 1.383 . S
C1451 H1459 0.929 . S
C1452 C1451 1.383 . S
C1452 C1453 1.377 . S
C1453 H1437 0.930 . S
C1453 C1452 1.377 . S
C1453 C1454 1.379 . S
C1454 H1438 0.931 . S
C1454 C1448 1.383 . S
C1454 C1453 1.379 . S
H1455 C1449 0.959 . S
H1456 C1449 0.961 . S
H1457 C1449 0.960 . S
H1458 C1450 0.930 . S
H1459 C1451 0.929 . S
H1460 C1468 0.929 . S
H1461 C1470 0.930 . S
H1462 C1472 0.930 . S
H1463 C1475 0.929 . S
H1464 C1478 0.930 . S
H1465 C1480 0.960 . S
H1466 C1480 0.960 . S
H1467 C1480 0.960 . S
C1468 H1460 0.929 . S
C1468 C1469 1.377 . S
C1468 C1470 1.384 . S
C1469 C1468 1.377 . S
C1469 C1475 1.390 . S
C1470 H1461 0.930 . S
C1470 C1468 1.384 . S
C1470 C1471 1.372 . S
C1471 C1470 1.372 . S
C1471 C1472 1.400 . S
C1471 C1476 1.490 . S
C1472 H1462 0.930 . S
C1472 C1471 1.400 . S
C1472 C1475 1.386 . S
H1473 C1489 0.930 . S
H1474 C1490 0.931 . S
C1475 H1463 0.929 . S
C1475 C1469 1.390 . S
C1475 C1472 1.386 . S
C1476 C1471 1.490 . S
C1476 C1478 1.395 . S
C1476 C1479 1.403 . S
H1477 C1483 0.930 . S
C1478 H1464 0.930 . S
C1478 C1476 1.395 . S
C1478 C1481 1.403 . S
C1479 C1476 1.403 . S
C1479 C1480 1.524 . S
C1479 C1483 1.400 . S
C1480 H1465 0.960 . S
C1480 H1466 0.960 . S
C1480 H1467 0.960 . S
C1480 C1479 1.524 . S
C1481 C1478 1.403 . S
C1481 C1482 1.392 . S
C1481 C1485 1.495 . S
C1482 C1481 1.392 . S
C1482 C1483 1.385 . S
C1482 C1484 1.478 . S
C1483 H1477 0.930 . S
C1483 C1479 1.400 . S
C1483 C1482 1.385 . S
C1484 C1482 1.478 . S
C1484 C1486 1.381 . S
C1484 C1490 1.383 . S
C1485 C1481 1.495 . S
C1485 H1491 0.959 . S
C1485 H1492 0.961 . S
C1485 H1493 0.960 . S
C1486 C1484 1.381 . S
C1486 C1487 1.394 . S
C1486 H1494 0.930 . S
C1487 C1486 1.394 . S
C1487 C1488 1.383 . S
C1487 H1495 0.929 . S
C1488 C1487 1.383 . S
C1488 C1489 1.377 . S
C1489 H1473 0.930 . S
C1489 C1488 1.377 . S
C1489 C1490 1.379 . S
C1490 H1474 0.931 . S
C1490 C1484 1.383 . S
C1490 C1489 1.379 . S
H1491 C1485 0.959 . S
H1492 C1485 0.961 . S
H1493 C1485 0.960 . S
H1494 C1486 0.930 . S
H1495 C1487 0.929 . S
H1496 C1504 0.929 . S
H1497 C1506 0.930 . S
H1498 C1508 0.930 . S
H1499 C1511 0.929 . S
H1500 C1514 0.930 . S
H1501 C1516 0.960 . S
H1502 C1516 0.960 . S
H1503 C1516 0.960 . S
C1504 H1496 0.929 . S
C1504 C1505 1.377 . S
C1504 C1506 1.384 . S
C1505 C1504 1.377 . S
C1505 C1511 1.390 . S
C1506 H1497 0.930 . S
C1506 C1504 1.384 . S
C1506 C1507 1.372 . S
C1507 C1506 1.372 . S
C1507 C1508 1.400 . S
C1507 C1512 1.490 . S
C1508 H1498 0.930 . S
C1508 C1507 1.400 . S
C1508 C1511 1.386 . S
H1509 C1525 0.930 . S
H1510 C1526 0.931 . S
C1511 H1499 0.929 . S
C1511 C1505 1.390 . S
C1511 C1508 1.386 . S
C1512 C1507 1.490 . S
C1512 C1514 1.395 . S
C1512 C1515 1.403 . S
H1513 C1519 0.930 . S
C1514 H1500 0.930 . S
C1514 C1512 1.395 . S
C1514 C1517 1.403 . S
C1515 C1512 1.403 . S
C1515 C1516 1.524 . S
C1515 C1519 1.400 . S
C1516 H1501 0.960 . S
C1516 H1502 0.960 . S
C1516 H1503 0.960 . S
C1516 C1515 1.524 . S
C1517 C1514 1.403 . S
C1517 C1518 1.392 . S
C1517 C1521 1.495 . S
C1518 C1517 1.392 . S
C1518 C1519 1.385 . S
C1518 C1520 1.478 . S
C1519 H1513 0.930 . S
C1519 C1515 1.400 . S
C1519 C1518 1.385 . S
C1520 C1518 1.478 . S
C1520 C1522 1.381 . S
C1520 C1526 1.383 . S
C1521 C1517 1.495 . S
C1521 H1527 0.959 . S
C1521 H1528 0.961 . S
C1521 H1529 0.960 . S
C1522 C1520 1.381 . S
C1522 C1523 1.394 . S
C1522 H1530 0.930 . S
C1523 C1522 1.394 . S
C1523 C1524 1.383 . S
C1523 H1531 0.929 . S
C1524 C1523 1.383 . S
C1524 C1525 1.377 . S
C1525 H1509 0.930 . S
C1525 C1524 1.377 . S
C1525 C1526 1.379 . S
C1526 H1510 0.931 . S
C1526 C1520 1.383 . S
C1526 C1525 1.379 . S
H1527 C1521 0.959 . S
H1528 C1521 0.961 . S
H1529 C1521 0.960 . S
H1530 C1522 0.930 . S
H1531 C1523 0.929 . S
H1532 C1540 0.929 . S
H1533 C1542 0.930 . S
H1534 C1544 0.930 . S
H1535 C1547 0.929 . S
H1536 C1550 0.930 . S
H1537 C1552 0.960 . S
H1538 C1552 0.960 . S
H1539 C1552 0.960 . S
C1540 H1532 0.929 . S
C1540 C1541 1.377 . S
C1540 C1542 1.384 . S
C1541 C1540 1.377 . S
C1541 C1547 1.390 . S
C1542 H1533 0.930 . S
C1542 C1540 1.384 . S
C1542 C1543 1.372 . S
C1543 C1542 1.372 . S
C1543 C1544 1.400 . S
C1543 C1548 1.490 . S
C1544 H1534 0.930 . S
C1544 C1543 1.400 . S
C1544 C1547 1.386 . S
H1545 C1561 0.930 . S
H1546 C1562 0.931 . S
C1547 H1535 0.929 . S
C1547 C1541 1.390 . S
C1547 C1544 1.386 . S
C1548 C1543 1.490 . S
C1548 C1550 1.395 . S
C1548 C1551 1.403 . S
H1549 C1555 0.930 . S
C1550 H1536 0.930 . S
C1550 C1548 1.395 . S
C1550 C1553 1.403 1_554 S
C1551 C1548 1.403 . S
C1551 C1552 1.524 . S
C1551 C1555 1.400 . S
C1552 H1537 0.960 . S
C1552 H1538 0.960 . S
C1552 H1539 0.960 . S
C1552 C1551 1.524 . S
C1553 C1550 1.403 1_556 S
C1553 C1554 1.392 1_556 S
C1553 C1557 1.495 . S
C1554 C1553 1.392 1_554 S
C1554 C1555 1.385 . S
C1554 C1556 1.477 1_554 S
C1555 H1549 0.930 . S
C1555 C1551 1.400 . S
C1555 C1554 1.385 . S
C1556 C1554 1.477 1_556 S
C1556 C1558 1.381 . S
C1556 C1562 1.383 . S
C1557 C1553 1.495 . S
C1557 H1563 0.959 . S
C1557 H1564 0.961 . S
C1557 H1565 0.960 . S
C1558 C1556 1.381 . S
C1558 C1559 1.394 . S
C1558 H1566 0.930 . S
C1559 C1558 1.394 . S
C1559 C1560 1.383 . S
C1559 H1567 0.929 . S
C1560 C1559 1.383 . S
C1560 C1561 1.377 . S
C1561 H1545 0.930 . S
C1561 C1560 1.377 . S
C1561 C1562 1.379 . S
C1562 H1546 0.931 . S
C1562 C1556 1.383 . S
C1562 C1561 1.379 . S
H1563 C1557 0.959 . S
H1564 C1557 0.961 . S
H1565 C1557 0.960 . S
H1566 C1558 0.930 . S
H1567 C1559 0.929 . S
H1568 C1576 0.929 . S
H1569 C1578 0.930 . S
H1570 C1580 0.930 1_556 S
H1571 C1583 0.918 1_556 S
H1572 C1586 0.930 . S
H1573 C1588 0.960 . S
H1574 C1588 0.960 . S
H1575 C1588 0.960 . S
C1576 H1568 0.929 . S
C1576 C1577 1.377 . S
C1576 C1578 1.384 . S
C1577 C1576 1.377 . S
C1577 C1583 1.400 . S
C1578 H1569 0.930 . S
C1578 C1576 1.384 . S
C1578 C1579 1.372 . S
C1579 C1578 1.372 . S
C1579 C1580 1.400 . S
C1579 C1584 1.490 . S
C1580 H1570 0.930 1_554 S
C1580 C1579 1.400 . S
C1580 C1583 1.386 . S
H1581 C1597 0.930 . S
H1582 C1598 0.931 . S
C1583 H1571 0.918 1_554 S
C1583 C1577 1.400 . S
C1583 C1580 1.386 . S
C1584 C1579 1.490 . S
C1584 C1586 1.395 . S
C1584 C1587 1.403 . S
H1585 C1591 0.930 . S
C1586 H1572 0.930 . S
C1586 C1584 1.395 . S
C1586 C1589 1.403 . S
C1587 C1584 1.403 . S
C1587 C1588 1.524 . S
C1587 C1591 1.400 . S
C1588 H1573 0.960 . S
C1588 H1574 0.960 . S
C1588 H1575 0.960 . S
C1588 C1587 1.524 . S
C1589 C1586 1.403 . S
C1589 C1590 1.392 . S
C1589 C1593 1.495 . S
C1590 C1589 1.392 . S
C1590 C1591 1.385 . S
C1590 C1592 1.478 . S
C1591 H1585 0.930 . S
C1591 C1587 1.400 . S
C1591 C1590 1.385 . S
C1592 C1590 1.478 . S
C1592 C1594 1.381 . S
C1592 C1598 1.383 1_554 S
C1593 C1589 1.495 . S
C1593 H1599 0.959 . S
C1593 H1600 0.970 . S
C1593 H1601 0.960 . S
C1594 C1592 1.381 . S
C1594 C1595 1.394 . S
C1594 H1602 0.930 . S
C1595 C1594 1.394 . S
C1595 C1596 1.383 . S
C1595 H1603 0.929 . S
C1596 C1595 1.383 . S
C1596 C1597 1.377 1_554 S
C1597 H1581 0.930 . S
C1597 C1596 1.377 1_556 S
C1597 C1598 1.379 . S
C1598 H1582 0.931 . S
C1598 C1592 1.383 1_556 S
C1598 C1597 1.379 . S
H1599 C1593 0.959 . S
H1600 C1593 0.970 . S
H1601 C1593 0.960 . S
H1602 C1594 0.930 . S
H1603 C1595 0.929 . S
H1604 C1612 0.929 . S
H1605 C1614 0.930 . S
H1606 C1616 0.930 . S
H1607 C1619 0.929 . S
H1608 C1622 0.930 . S
H1609 C1624 0.960 . S
H1610 C1624 0.960 . S
H1611 C1624 0.960 . S
C1612 H1604 0.929 . S
C1612 C1613 1.377 . S
C1612 C1614 1.384 . S
C1613 C1612 1.377 . S
C1613 C1619 1.390 . S
C1614 H1605 0.930 . S
C1614 C1612 1.384 . S
C1614 C1615 1.372 . S
C1615 C1614 1.372 . S
C1615 C1616 1.400 . S
C1615 C1620 1.490 . S
C1616 H1606 0.930 . S
C1616 C1615 1.400 . S
C1616 C1619 1.386 . S
H1617 C1633 0.930 . S
H1618 C1634 0.931 . S
C1619 H1607 0.929 . S
C1619 C1613 1.390 . S
C1619 C1616 1.386 . S
C1620 C1615 1.490 . S
C1620 C1622 1.395 . S
C1620 C1623 1.403 . S
H1621 C1627 0.930 . S
C1622 H1608 0.930 . S
C1622 C1620 1.395 . S
C1622 C1625 1.403 1_455 S
C1623 C1620 1.403 . S
C1623 C1624 1.524 . S
C1623 C1627 1.400 1_455 S
C1624 H1609 0.960 . S
C1624 H1610 0.960 . S
C1624 H1611 0.960 . S
C1624 C1623 1.524 . S
C1625 C1622 1.403 1_655 S
C1625 C1626 1.392 . S
C1625 C1629 1.495 . S
C1626 C1625 1.392 . S
C1626 C1627 1.385 . S
C1626 C1628 1.478 . S
C1627 H1621 0.930 . S
C1627 C1623 1.400 1_655 S
C1627 C1626 1.385 . S
C1628 C1626 1.478 . S
C1628 C1630 1.381 . S
C1628 C1634 1.383 . S
C1629 C1625 1.495 . S
C1629 H1635 0.959 . S
C1629 H1636 0.961 . S
C1629 H1637 0.960 . S
C1630 C1628 1.381 . S
C1630 C1631 1.394 . S
C1630 H1638 0.930 . S
C1631 C1630 1.394 . S
C1631 C1632 1.383 . S
C1631 H1639 0.929 . S
C1632 C1631 1.383 . S
C1632 C1633 1.377 . S
C1633 H1617 0.930 . S
C1633 C1632 1.377 . S
C1633 C1634 1.379 . S
C1634 H1618 0.931 . S
C1634 C1628 1.383 . S
C1634 C1633 1.379 . S
H1635 C1629 0.959 . S
H1636 C1629 0.961 . S
H1637 C1629 0.960 . S
H1638 C1630 0.930 . S
H1639 C1631 0.929 . S
H1640 C1648 0.929 . S
H1641 C1650 0.930 . S
H1642 C1652 0.930 . S
H1643 C1655 0.929 . S
H1644 C1658 0.930 . S
H1645 C1660 0.960 . S
H1646 C1660 0.960 . S
H1647 C1660 0.960 . S
C1648 H1640 0.929 . S
C1648 C1649 1.377 . S
C1648 C1650 1.384 . S
C1649 C1648 1.377 . S
C1649 C1655 1.390 . S
C1650 H1641 0.930 . S
C1650 C1648 1.384 . S
C1650 C1651 1.372 . S
C1651 C1650 1.372 . S
C1651 C1652 1.400 . S
C1651 C1656 1.490 . S
C1652 H1642 0.930 . S
C1652 C1651 1.400 . S
C1652 C1655 1.386 . S
H1653 C1669 0.930 . S
H1654 C1670 0.931 . S
C1655 H1643 0.929 . S
C1655 C1649 1.390 . S
C1655 C1652 1.386 . S
C1656 C1651 1.490 . S
C1656 C1658 1.395 . S
C1656 C1659 1.403 . S
H1657 C1663 0.930 . S
C1658 H1644 0.930 . S
C1658 C1656 1.395 . S
C1658 C1661 1.403 . S
C1659 C1656 1.403 . S
C1659 C1660 1.524 . S
C1659 C1663 1.400 . S
C1660 H1645 0.960 . S
C1660 H1646 0.960 . S
C1660 H1647 0.960 . S
C1660 C1659 1.524 . S
C1661 C1658 1.403 . S
C1661 C1662 1.392 . S
C1661 C1665 1.495 . S
C1662 C1661 1.392 . S
C1662 C1663 1.385 . S
C1662 C1664 1.478 . S
C1663 H1657 0.930 . S
C1663 C1659 1.400 . S
C1663 C1662 1.385 . S
C1664 C1662 1.478 . S
C1664 C1666 1.381 . S
C1664 C1670 1.383 . S
C1665 C1661 1.495 . S
C1665 H1671 0.959 . S
C1665 H1672 0.961 . S
C1665 H1673 0.960 . S
C1666 C1664 1.381 . S
C1666 C1667 1.394 . S
C1666 H1674 0.930 . S
C1667 C1666 1.394 . S
C1667 C1668 1.383 . S
C1667 H1675 0.929 . S
C1668 C1667 1.383 . S
C1668 C1669 1.377 . S
C1669 H1653 0.930 . S
C1669 C1668 1.377 . S
C1669 C1670 1.379 . S
C1670 H1654 0.931 . S
C1670 C1664 1.383 . S
C1670 C1669 1.379 . S
H1671 C1665 0.959 . S
H1672 C1665 0.961 . S
H1673 C1665 0.960 . S
H1674 C1666 0.930 . S
H1675 C1667 0.929 . S
H1676 C1684 0.929 . S
H1677 C1686 0.930 . S
H1678 C1688 0.930 . S
H1679 C1691 0.929 . S
H1680 C1694 0.930 . S
H1681 C1696 0.960 . S
H1682 C1696 0.960 . S
H1683 C1696 0.960 . S
C1684 H1676 0.929 . S
C1684 C1685 1.377 . S
C1684 C1686 1.384 . S
C1685 C1684 1.377 . S
C1685 C1691 1.390 . S
C1686 H1677 0.930 . S
C1686 C1684 1.384 . S
C1686 C1687 1.372 . S
C1687 C1686 1.372 . S
C1687 C1688 1.400 . S
C1687 C1692 1.490 . S
C1688 H1678 0.930 . S
C1688 C1687 1.400 . S
C1688 C1691 1.386 . S
H1689 C1705 0.930 . S
H1690 C1706 0.931 . S
C1691 H1679 0.929 . S
C1691 C1685 1.390 . S
C1691 C1688 1.386 . S
C1692 C1687 1.490 . S
C1692 C1694 1.395 . S
C1692 C1695 1.403 . S
H1693 C1699 0.930 . S
C1694 H1680 0.930 . S
C1694 C1692 1.395 . S
C1694 C1697 1.403 . S
C1695 C1692 1.403 . S
C1695 C1696 1.524 . S
C1695 C1699 1.400 . S
C1696 H1681 0.960 . S
C1696 H1682 0.960 . S
C1696 H1683 0.960 . S
C1696 C1695 1.524 . S
C1697 C1694 1.403 . S
C1697 C1698 1.392 . S
C1697 C1701 1.495 . S
C1698 C1697 1.392 . S
C1698 C1699 1.385 . S
C1698 C1700 1.478 . S
C1699 H1693 0.930 . S
C1699 C1695 1.400 . S
C1699 C1698 1.385 . S
C1700 C1698 1.478 . S
C1700 C1702 1.381 . S
C1700 C1706 1.383 . S
C1701 C1697 1.495 . S
C1701 H1707 0.959 . S
C1701 H1708 0.961 . S
C1701 H1709 0.960 . S
C1702 C1700 1.381 . S
C1702 C1703 1.394 . S
C1702 H1710 0.930 . S
C1703 C1702 1.394 . S
C1703 C1704 1.383 . S
C1703 H1711 0.929 . S
C1704 C1703 1.383 . S
C1704 C1705 1.377 . S
C1705 H1689 0.930 . S
C1705 C1704 1.377 . S
C1705 C1706 1.379 . S
C1706 H1690 0.931 . S
C1706 C1700 1.383 . S
C1706 C1705 1.379 . S
H1707 C1701 0.959 . S
H1708 C1701 0.961 . S
H1709 C1701 0.960 . S
H1710 C1702 0.930 . S
H1711 C1703 0.929 . S
H1712 C1720 0.929 1_556 S
H1713 C1722 0.930 1_556 S
H1714 C1724 0.930 . S
H1715 C1727 0.929 . S
H1716 C1730 0.930 . S
H1717 C1732 0.960 . S
H1718 C1732 0.960 . S
H1719 C1732 0.960 . S
C1720 H1712 0.929 1_554 S
C1720 C1721 1.377 . S
C1720 C1722 1.384 . S
C1721 C1720 1.377 . S
C1721 C1727 1.390 . S
C1722 H1713 0.930 1_554 S
C1722 C1720 1.384 . S
C1722 C1723 1.372 . S
C1723 C1722 1.372 . S
C1723 C1724 1.400 . S
C1723 C1728 1.490 . S
C1724 H1714 0.930 . S
C1724 C1723 1.400 . S
C1724 C1727 1.386 . S
H1725 C1741 0.930 . S
H1726 C1742 0.931 . S
C1727 H1715 0.929 . S
C1727 C1721 1.390 . S
C1727 C1724 1.386 . S
C1728 C1723 1.490 . S
C1728 C1730 1.395 . S
C1728 C1731 1.403 . S
H1729 C1735 0.930 . S
C1730 H1716 0.930 . S
C1730 C1728 1.395 . S
C1730 C1733 1.403 . S
C1731 C1728 1.403 . S
C1731 C1732 1.524 . S
C1731 C1735 1.400 . S
C1732 H1717 0.960 . S
C1732 H1718 0.960 . S
C1732 H1719 0.960 . S
C1732 C1731 1.524 . S
C1733 C1730 1.403 . S
C1733 C1734 1.392 . S
C1733 C1737 1.495 . S
C1734 C1733 1.392 . S
C1734 C1735 1.385 . S
C1734 C1736 1.478 . S
C1735 H1729 0.930 . S
C1735 C1731 1.400 . S
C1735 C1734 1.385 . S
C1736 C1734 1.478 . S
C1736 C1738 1.381 . S
C1736 C1742 1.383 . S
C1737 C1733 1.495 . S
C1737 H1743 0.959 . S
C1737 H1744 0.961 . S
C1737 H1745 0.960 1_554 S
C1738 C1736 1.381 . S
C1738 C1739 1.394 . S
C1738 H1746 0.930 1_554 S
C1739 C1738 1.394 . S
C1739 C1740 1.383 . S
C1739 H1747 0.929 1_554 S
C1740 C1739 1.383 . S
C1740 C1741 1.377 . S
C1741 H1725 0.930 . S
C1741 C1740 1.377 . S
C1741 C1742 1.379 . S
C1742 H1726 0.931 . S
C1742 C1736 1.383 . S
C1742 C1741 1.379 . S
H1743 C1737 0.959 . S
H1744 C1737 0.961 . S
H1745 C1737 0.960 1_556 S
H1746 C1738 0.930 1_556 S
H1747 C1739 0.929 1_556 S
H1748 C1756 0.929 . S
H1749 C1758 0.930 . S
H1750 C1760 0.930 . S
H1751 C1763 0.929 . S
H1752 C1766 0.930 . S
H1753 C1768 0.960 . S
H1754 C1768 0.960 . S
H1755 C1768 0.960 . S
C1756 H1748 0.929 . S
C1756 C1757 1.377 . S
C1756 C1758 1.384 . S
C1757 C1756 1.377 . S
C1757 C1763 1.390 . S
C1758 H1749 0.930 . S
C1758 C1756 1.384 . S
C1758 C1759 1.372 . S
C1759 C1758 1.372 . S
C1759 C1760 1.400 . S
C1759 C1764 1.490 . S
C1760 H1750 0.930 . S
C1760 C1759 1.400 . S
C1760 C1763 1.386 . S
H1761 C1777 0.930 . S
H1762 C1778 0.931 . S
C1763 H1751 0.929 . S
C1763 C1757 1.390 . S
C1763 C1760 1.386 . S
C1764 C1759 1.490 . S
C1764 C1766 1.395 . S
C1764 C1767 1.403 . S
H1765 C1771 0.930 . S
C1766 H1752 0.930 . S
C1766 C1764 1.395 . S
C1766 C1769 1.403 . S
C1767 C1764 1.403 . S
C1767 C1768 1.524 . S
C1767 C1771 1.400 . S
C1768 H1753 0.960 . S
C1768 H1754 0.960 . S
C1768 H1755 0.960 . S
C1768 C1767 1.524 . S
C1769 C1766 1.403 . S
C1769 C1770 1.392 . S
C1769 C1773 1.495 . S
C1770 C1769 1.392 . S
C1770 C1771 1.385 . S
C1770 C1772 1.478 . S
C1771 H1765 0.930 . S
C1771 C1767 1.400 . S
C1771 C1770 1.385 . S
C1772 C1770 1.478 . S
C1772 C1774 1.381 . S
C1772 C1778 1.383 . S
C1773 C1769 1.495 . S
C1773 H1779 0.959 . S
C1773 H1780 0.961 . S
C1773 H1781 0.960 . S
C1774 C1772 1.381 . S
C1774 C1775 1.394 . S
C1774 H1782 0.930 . S
C1775 C1774 1.394 . S
C1775 C1776 1.383 . S
C1775 H1783 0.929 . S
C1776 C1775 1.383 . S
C1776 C1777 1.377 . S
C1777 H1761 0.930 . S
C1777 C1776 1.377 . S
C1777 C1778 1.379 . S
C1778 H1762 0.931 . S
C1778 C1772 1.383 . S
C1778 C1777 1.379 . S
H1779 C1773 0.959 . S
H1780 C1773 0.961 . S
H1781 C1773 0.960 . S
H1782 C1774 0.930 . S
H1783 C1775 0.929 . S
H1784 C1792 0.929 . S
H1785 C1794 0.930 . S
H1786 C1796 0.930 . S
H1787 C1799 0.929 . S
H1788 C1802 0.930 . S
H1789 C1804 0.960 . S
H1790 C1804 0.960 . S
H1791 C1804 0.960 . S
C1792 H1784 0.929 . S
C1792 C1793 1.377 . S
C1792 C1794 1.384 . S
C1793 C1792 1.377 . S
C1793 C1799 1.390 . S
C1794 H1785 0.930 . S
C1794 C1792 1.384 . S
C1794 C1795 1.372 . S
C1795 C1794 1.372 . S
C1795 C1796 1.400 . S
C1795 C1800 1.490 . S
C1796 H1786 0.930 . S
C1796 C1795 1.400 . S
C1796 C1799 1.386 . S
H1797 C1813 0.930 . S
H1798 C1814 0.931 . S
C1799 H1787 0.929 . S
C1799 C1793 1.390 . S
C1799 C1796 1.386 . S
C1800 C1795 1.490 . S
C1800 C1802 1.395 . S
C1800 C1803 1.403 . S
H1801 C1807 0.930 . S
C1802 H1788 0.930 . S
C1802 C1800 1.395 . S
C1802 C1805 1.403 . S
C1803 C1800 1.403 . S
C1803 C1804 1.524 . S
C1803 C1807 1.400 . S
C1804 H1789 0.960 . S
C1804 H1790 0.960 . S
C1804 H1791 0.960 . S
C1804 C1803 1.524 . S
C1805 C1802 1.403 . S
C1805 C1806 1.392 . S
C1805 C1809 1.495 . S
C1806 C1805 1.392 . S
C1806 C1807 1.385 . S
C1806 C1808 1.478 . S
C1807 H1801 0.930 . S
C1807 C1803 1.400 . S
C1807 C1806 1.385 . S
C1808 C1806 1.478 . S
C1808 C1810 1.381 . S
C1808 C1814 1.383 . S
C1809 C1805 1.495 . S
C1809 H1815 0.959 . S
C1809 H1816 0.961 . S
C1809 H1817 0.960 . S
C1810 C1808 1.381 . S
C1810 C1811 1.394 . S
C1810 H1818 0.930 . S
C1811 C1810 1.394 . S
C1811 C1812 1.383 . S
C1811 H1819 0.929 . S
C1812 C1811 1.383 . S
C1812 C1813 1.377 . S
C1813 H1797 0.930 . S
C1813 C1812 1.377 . S
C1813 C1814 1.379 . S
C1814 H1798 0.931 . S
C1814 C1808 1.383 . S
C1814 C1813 1.379 . S
H1815 C1809 0.959 . S
H1816 C1809 0.961 . S
H1817 C1809 0.960 . S
H1818 C1810 0.930 . S
H1819 C1811 0.929 . S
H1820 C1828 0.929 . S
H1821 C1830 0.930 . S
H1822 C1832 0.930 . S
H1823 C1835 0.929 . S
H1824 C1838 0.930 . S
H1825 C1840 0.960 . S
H1826 C1840 0.960 . S
H1827 C1840 0.960 . S
C1828 H1820 0.929 . S
C1828 C1829 1.377 . S
C1828 C1830 1.384 . S
C1829 C1828 1.377 . S
C1829 C1835 1.390 . S
C1830 H1821 0.930 . S
C1830 C1828 1.384 . S
C1830 C1831 1.372 . S
C1831 C1830 1.372 . S
C1831 C1832 1.400 . S
C1831 C1836 1.490 . S
C1832 H1822 0.930 . S
C1832 C1831 1.400 . S
C1832 C1835 1.386 . S
H1833 C1849 0.930 . S
H1834 C1850 0.931 . S
C1835 H1823 0.929 . S
C1835 C1829 1.390 . S
C1835 C1832 1.386 . S
C1836 C1831 1.490 . S
C1836 C1838 1.395 . S
C1836 C1839 1.403 . S
H1837 C1843 0.930 . S
C1838 H1824 0.930 . S
C1838 C1836 1.395 . S
C1838 C1841 1.403 1_655 S
C1839 C1836 1.403 . S
C1839 C1840 1.524 . S
C1839 C1843 1.400 1_655 S
C1840 H1825 0.960 . S
C1840 H1826 0.960 . S
C1840 H1827 0.960 . S
C1840 C1839 1.524 . S
C1841 C1838 1.403 1_455 S
C1841 C1842 1.392 . S
C1841 C1845 1.495 . S
C1842 C1841 1.392 . S
C1842 C1843 1.385 . S
C1842 C1844 1.478 . S
C1843 H1837 0.930 . S
C1843 C1839 1.400 1_455 S
C1843 C1842 1.385 . S
C1844 C1842 1.478 . S
C1844 C1846 1.381 . S
C1844 C1850 1.383 . S
C1845 C1841 1.495 . S
C1845 H1851 0.959 . S
C1845 H1852 0.961 . S
C1845 H1853 0.960 . S
C1846 C1844 1.381 . S
C1846 C1847 1.394 . S
C1846 H1854 0.930 . S
C1847 C1846 1.394 . S
C1847 C1848 1.383 . S
C1847 H1855 0.929 . S
C1848 C1847 1.383 . S
C1848 C1849 1.377 . S
C1849 H1833 0.930 . S
C1849 C1848 1.377 . S
C1849 C1850 1.379 . S
C1850 H1834 0.931 . S
C1850 C1844 1.383 . S
C1850 C1849 1.379 . S
H1851 C1845 0.959 . S
H1852 C1845 0.961 . S
H1853 C1845 0.960 . S
H1854 C1846 0.930 . S
H1855 C1847 0.929 . S
H1856 C1864 0.929 . S
H1857 C1866 0.930 . S
H1858 C1868 0.930 . S
H1859 C1871 0.929 . S
H1860 C1874 0.930 . S
H1861 C1876 0.960 . S
H1862 C1876 0.960 . S
H1863 C1876 0.960 . S
C1864 H1856 0.929 . S
C1864 C1865 1.377 . S
C1864 C1866 1.384 . S
C1865 C1864 1.377 . S
C1865 C1871 1.390 . S
C1866 H1857 0.930 . S
C1866 C1864 1.384 . S
C1866 C1867 1.372 . S
C1867 C1866 1.372 . S
C1867 C1868 1.400 . S
C1867 C1872 1.490 . S
C1868 H1858 0.930 . S
C1868 C1867 1.400 . S
C1868 C1871 1.386 . S
H1869 C1885 0.930 . S
H1870 C1886 0.931 . S
C1871 H1859 0.929 . S
C1871 C1865 1.390 . S
C1871 C1868 1.386 . S
C1872 C1867 1.490 . S
C1872 C1874 1.395 . S
C1872 C1875 1.403 . S
H1873 C1879 0.930 1_556 S
C1874 H1860 0.930 . S
C1874 C1872 1.395 . S
C1874 C1877 1.403 . S
C1875 C1872 1.403 . S
C1875 C1876 1.524 1_554 S
C1875 C1879 1.400 . S
C1876 H1861 0.960 . S
C1876 H1862 0.960 . S
C1876 H1863 0.960 . S
C1876 C1875 1.524 1_556 S
C1877 C1874 1.403 . S
C1877 C1878 1.392 . S
C1877 C1881 1.495 . S
C1878 C1877 1.392 . S
C1878 C1879 1.385 . S
C1878 C1880 1.478 . S
C1879 H1873 0.930 1_554 S
C1879 C1875 1.400 . S
C1879 C1878 1.385 . S
C1880 C1878 1.478 . S
C1880 C1882 1.381 . S
C1880 C1886 1.383 . S
C1881 C1877 1.495 . S
C1881 H1887 0.959 . S
C1881 H1888 0.961 . S
C1881 H1889 0.960 . S
C1882 C1880 1.381 . S
C1882 C1883 1.394 . S
C1882 H1890 0.930 . S
C1883 C1882 1.394 . S
C1883 C1884 1.383 . S
C1883 H1891 0.929 . S
C1884 C1883 1.383 . S
C1884 C1885 1.377 . S
C1885 H1869 0.930 . S
C1885 C1884 1.377 . S
C1885 C1886 1.379 . S
C1886 H1870 0.931 . S
C1886 C1880 1.383 . S
C1886 C1885 1.379 . S
H1887 C1881 0.959 . S
H1888 C1881 0.961 . S
H1889 C1881 0.960 . S
H1890 C1882 0.930 . S
H1891 C1883 0.929 . S
H1892 C1900 0.929 . S
H1893 C1902 0.930 . S
H1894 C1904 0.930 . S
H1895 C1907 0.929 . S
H1896 C1910 0.930 . S
H1897 C1912 0.960 . S
H1898 C1912 0.960 . S
H1899 C1912 0.960 . S
C1900 H1892 0.929 . S
C1900 C1901 1.377 . S
C1900 C1902 1.384 . S
C1901 C1900 1.377 . S
C1901 C1907 1.390 . S
C1902 H1893 0.930 . S
C1902 C1900 1.384 . S
C1902 C1903 1.372 . S
C1903 C1902 1.372 . S
C1903 C1904 1.400 . S
C1903 C1908 1.490 . S
C1904 H1894 0.930 . S
C1904 C1903 1.400 . S
C1904 C1907 1.386 . S
H1905 C1921 0.930 . S
H1906 C1922 0.931 . S
C1907 H1895 0.929 . S
C1907 C1901 1.390 . S
C1907 C1904 1.386 . S
C1908 C1903 1.490 . S
C1908 C1910 1.395 . S
C1908 C1911 1.403 . S
H1909 C1915 0.930 . S
C1910 H1896 0.930 . S
C1910 C1908 1.395 . S
C1910 C1913 1.403 . S
C1911 C1908 1.403 . S
C1911 C1912 1.524 . S
C1911 C1915 1.400 . S
C1912 H1897 0.960 . S
C1912 H1898 0.960 . S
C1912 H1899 0.960 . S
C1912 C1911 1.524 . S
C1913 C1910 1.403 . S
C1913 C1914 1.392 . S
C1913 C1917 1.495 . S
C1914 C1913 1.392 . S
C1914 C1915 1.385 . S
C1914 C1916 1.478 . S
C1915 H1909 0.930 . S
C1915 C1911 1.400 . S
C1915 C1914 1.385 . S
C1916 C1914 1.478 . S
C1916 C1918 1.381 . S
C1916 C1922 1.383 . S
C1917 C1913 1.495 . S
C1917 H1923 0.959 . S
C1917 H1924 0.961 . S
C1917 H1925 0.960 . S
C1918 C1916 1.381 . S
C1918 C1919 1.394 . S
C1918 H1926 0.930 . S
C1919 C1918 1.394 . S
C1919 C1920 1.383 . S
C1919 H1927 0.929 . S
C1920 C1919 1.383 . S
C1920 C1921 1.377 . S
C1921 H1905 0.930 . S
C1921 C1920 1.377 . S
C1921 C1922 1.379 . S
C1922 H1906 0.931 . S
C1922 C1916 1.383 . S
C1922 C1921 1.379 . S
H1923 C1917 0.959 . S
H1924 C1917 0.961 . S
H1925 C1917 0.960 . S
H1926 C1918 0.930 . S
H1927 C1919 0.929 . S
H1928 C1936 0.929 . S
H1929 C1938 0.930 . S
H1930 C1940 0.930 . S
H1931 C1943 0.929 . S
H1932 C1946 0.933 . S
H1933 C1948 0.960 . S
H1934 C1948 0.960 . S
H1935 C1948 0.960 . S
C1936 H1928 0.929 . S
C1936 C1937 1.377 1_556 S
C1936 C1938 1.384 . S
C1937 C1936 1.377 1_554 S
C1937 C1943 1.390 . S
C1938 H1929 0.930 . S
C1938 C1936 1.384 . S
C1938 C1939 1.372 1_556 S
C1939 C1938 1.372 1_554 S
C1939 C1940 1.400 . S
C1939 C1944 1.490 . S
C1940 H1930 0.930 . S
C1940 C1939 1.400 . S
C1940 C1943 1.386 . S
H1941 C1957 0.930 . S
H1942 C1958 0.931 . S
C1943 H1931 0.929 . S
C1943 C1937 1.390 . S
C1943 C1940 1.386 . S
C1944 C1939 1.490 . S
C1944 C1946 1.391 1_554 S
C1944 C1947 1.403 . S
H1945 C1951 0.930 . S
C1946 H1932 0.933 . S
C1946 C1944 1.391 1_556 S
C1946 C1949 1.404 . S
C1947 C1944 1.403 . S
C1947 C1948 1.524 . S
C1947 C1951 1.400 . S
C1948 H1933 0.960 . S
C1948 H1934 0.960 . S
C1948 H1935 0.960 . S
C1948 C1947 1.524 . S
C1949 C1946 1.404 . S
C1949 C1950 1.392 1_556 S
C1949 C1953 1.495 . S
C1950 C1949 1.392 1_554 S
C1950 C1951 1.385 . S
C1950 C1952 1.478 . S
C1951 H1945 0.930 . S
C1951 C1947 1.400 . S
C1951 C1950 1.385 . S
C1952 C1950 1.478 . S
C1952 C1954 1.381 1_554 S
C1952 C1958 1.383 . S
C1953 C1949 1.495 . S
C1953 H1959 0.959 . S
C1953 H1960 0.961 . S
C1953 H1961 0.960 . S
C1954 C1952 1.381 1_556 S
C1954 C1955 1.394 . S
C1954 H1962 0.930 . S
C1955 C1954 1.394 . S
C1955 C1956 1.383 1_556 S
C1955 H1963 0.929 . S
C1956 C1955 1.383 1_554 S
C1956 C1957 1.377 . S
C1957 H1941 0.930 . S
C1957 C1956 1.377 . S
C1957 C1958 1.379 . S
C1958 H1942 0.931 . S
C1958 C1952 1.383 . S
C1958 C1957 1.379 . S
H1959 C1953 0.959 . S
H1960 C1953 0.961 . S
H1961 C1953 0.960 . S
H1962 C1954 0.930 . S
H1963 C1955 0.929 . S
H1964 C1972 0.929 . S
H1965 C1974 0.930 . S
H1966 C1976 0.930 . S
H1967 C1979 0.929 . S
H1968 C1982 0.930 . S
H1969 C1984 0.960 . S
H1970 C1984 0.960 . S
H1971 C1984 0.960 . S
C1972 H1964 0.929 . S
C1972 C1973 1.377 . S
C1972 C1974 1.384 . S
C1973 C1972 1.377 . S
C1973 C1979 1.390 . S
C1974 H1965 0.930 . S
C1974 C1972 1.384 . S
C1974 C1975 1.372 . S
C1975 C1974 1.372 . S
C1975 C1976 1.400 . S
C1975 C1980 1.490 . S
C1976 H1966 0.930 . S
C1976 C1975 1.400 . S
C1976 C1979 1.386 . S
H1977 C1993 0.930 . S
H1978 C1994 0.931 . S
C1979 H1967 0.929 . S
C1979 C1973 1.390 . S
C1979 C1976 1.386 . S
C1980 C1975 1.490 . S
C1980 C1982 1.395 . S
C1980 C1983 1.403 . S
H1981 C1987 0.930 . S
C1982 H1968 0.930 . S
C1982 C1980 1.395 . S
C1982 C1985 1.403 . S
C1983 C1980 1.403 . S
C1983 C1984 1.524 . S
C1983 C1987 1.400 . S
C1984 H1969 0.960 . S
C1984 H1970 0.960 . S
C1984 H1971 0.960 . S
C1984 C1983 1.524 . S
C1985 C1982 1.403 . S
C1985 C1986 1.392 . S
C1985 C1989 1.495 . S
C1986 C1985 1.392 . S
C1986 C1987 1.385 . S
C1986 C1988 1.478 . S
C1987 H1981 0.930 . S
C1987 C1983 1.400 . S
C1987 C1986 1.385 . S
C1988 C1986 1.478 . S
C1988 C1990 1.381 . S
C1988 C1994 1.383 . S
C1989 C1985 1.495 . S
C1989 H1995 0.959 . S
C1989 H1996 0.961 . S
C1989 H1997 0.960 . S
C1990 C1988 1.381 . S
C1990 C1991 1.394 . S
C1990 H1998 0.930 . S
C1991 C1990 1.394 . S
C1991 C1992 1.383 . S
C1991 H1999 0.929 . S
C1992 C1991 1.383 . S
C1992 C1993 1.377 . S
C1993 H1977 0.930 . S
C1993 C1992 1.377 . S
C1993 C1994 1.379 . S
C1994 H1978 0.931 . S
C1994 C1988 1.383 . S
C1994 C1993 1.379 . S
H1995 C1989 0.959 . S
H1996 C1989 0.961 . S
H1997 C1989 0.960 . S
H1998 C1990 0.930 . S
H1999 C1991 0.929 . S
H2000 C2008 0.929 . S
H2001 C2010 0.930 . S
H2002 C2012 0.930 . S
H2003 C2015 0.929 . S
H2004 C2018 0.930 . S
H2005 C2020 0.960 . S
H2006 C2020 0.960 . S
H2007 C2020 0.960 . S
C2008 H2000 0.929 . S
C2008 C2009 1.377 . S
C2008 C2010 1.384 . S
C2009 C2008 1.377 . S
C2009 C2015 1.390 . S
C2010 H2001 0.930 . S
C2010 C2008 1.384 . S
C2010 C2011 1.372 . S
C2011 C2010 1.372 . S
C2011 C2012 1.400 . S
C2011 C2016 1.490 . S
C2012 H2002 0.930 . S
C2012 C2011 1.400 . S
C2012 C2015 1.386 . S
H2013 C2029 0.930 . S
H2014 C2030 0.931 . S
C2015 H2003 0.929 . S
C2015 C2009 1.390 . S
C2015 C2012 1.386 . S
C2016 C2011 1.490 . S
C2016 C2018 1.395 . S
C2016 C2019 1.403 . S
H2017 C2023 0.930 . S
C2018 H2004 0.930 . S
C2018 C2016 1.395 . S
C2018 C2021 1.403 . S
C2019 C2016 1.403 . S
C2019 C2020 1.524 . S
C2019 C2023 1.400 . S
C2020 H2005 0.960 . S
C2020 H2006 0.960 . S
C2020 H2007 0.960 . S
C2020 C2019 1.524 . S
C2021 C2018 1.403 . S
C2021 C2022 1.392 . S
C2021 C2025 1.495 . S
C2022 C2021 1.392 . S
C2022 C2023 1.385 . S
C2022 C2024 1.478 . S
C2023 H2017 0.930 . S
C2023 C2019 1.400 . S
C2023 C2022 1.385 . S
C2024 C2022 1.478 . S
C2024 C2026 1.381 . S
C2024 C2030 1.383 . S
C2025 C2021 1.495 . S
C2025 H2031 0.959 . S
C2025 H2032 0.961 . S
C2025 H2033 0.960 . S
C2026 C2024 1.381 . S
C2026 C2027 1.394 . S
C2026 H2034 0.930 . S
C2027 C2026 1.394 . S
C2027 C2028 1.383 . S
C2027 H2035 0.929 . S
C2028 C2027 1.383 . S
C2028 C2029 1.377 . S
C2029 H2013 0.930 . S
C2029 C2028 1.377 . S
C2029 C2030 1.379 . S
C2030 H2014 0.931 . S
C2030 C2024 1.383 . S
C2030 C2029 1.379 . S
H2031 C2025 0.959 . S
H2032 C2025 0.961 . S
H2033 C2025 0.960 . S
H2034 C2026 0.930 . S
H2035 C2027 0.929 . S
H2036 C2044 0.929 . S
H2037 C2046 0.930 . S
H2038 C2048 0.930 . S
H2039 C2051 0.929 . S
H2040 C2054 0.930 . S
H2041 C2056 0.960 . S
H2042 C2056 0.960 . S
H2043 C2056 0.960 . S
C2044 H2036 0.929 . S
C2044 C2045 1.377 . S
C2044 C2046 1.384 . S
C2045 C2044 1.377 . S
C2045 C2051 1.390 . S
C2046 H2037 0.930 . S
C2046 C2044 1.384 . S
C2046 C2047 1.372 . S
C2047 C2046 1.372 . S
C2047 C2048 1.400 . S
C2047 C2052 1.490 . S
C2048 H2038 0.930 . S
C2048 C2047 1.400 . S
C2048 C2051 1.386 . S
H2049 C2065 0.930 . S
H2050 C2066 0.931 . S
C2051 H2039 0.929 . S
C2051 C2045 1.390 . S
C2051 C2048 1.386 . S
C2052 C2047 1.490 . S
C2052 C2054 1.395 . S
C2052 C2055 1.403 . S
H2053 C2059 0.930 . S
C2054 H2040 0.930 . S
C2054 C2052 1.395 . S
C2054 C2057 1.403 1_655 S
C2055 C2052 1.403 . S
C2055 C2056 1.524 . S
C2055 C2059 1.400 1_655 S
C2056 H2041 0.960 . S
C2056 H2042 0.960 . S
C2056 H2043 0.960 . S
C2056 C2055 1.524 . S
C2057 C2054 1.403 1_455 S
C2057 C2058 1.392 . S
C2057 C2061 1.495 . S
C2058 C2057 1.392 . S
C2058 C2059 1.385 . S
C2058 C2060 1.478 . S
C2059 H2053 0.930 . S
C2059 C2055 1.400 1_455 S
C2059 C2058 1.385 . S
C2060 C2058 1.478 . S
C2060 C2062 1.381 . S
C2060 C2066 1.383 . S
C2061 C2057 1.495 . S
C2061 H2067 0.959 . S
C2061 H2068 0.961 . S
C2061 H2069 0.960 . S
C2062 C2060 1.381 . S
C2062 C2063 1.394 . S
C2062 H2070 0.930 . S
C2063 C2062 1.394 . S
C2063 C2064 1.383 . S
C2063 H2071 0.929 . S
C2064 C2063 1.383 . S
C2064 C2065 1.377 . S
C2065 H2049 0.930 . S
C2065 C2064 1.377 . S
C2065 C2066 1.379 . S
C2066 H2050 0.931 . S
C2066 C2060 1.383 . S
C2066 C2065 1.379 . S
H2067 C2061 0.959 . S
H2068 C2061 0.961 . S
H2069 C2061 0.960 . S
H2070 C2062 0.930 . S
H2071 C2063 0.929 . S
H2072 C2080 0.929 . S
H2073 C2082 0.930 . S
H2074 C2084 0.930 . S
H2075 C2087 0.929 . S
H2076 C2090 0.930 . S
H2077 C2092 0.960 . S
H2078 C2092 0.960 . S
H2079 C2092 0.960 . S
C2080 H2072 0.929 . S
C2080 C2081 1.377 . S
C2080 C2082 1.384 . S
C2081 C2080 1.377 . S
C2081 C2087 1.390 . S
C2082 H2073 0.930 . S
C2082 C2080 1.384 . S
C2082 C2083 1.372 . S
C2083 C2082 1.372 . S
C2083 C2084 1.400 . S
C2083 C2088 1.490 . S
C2084 H2074 0.930 . S
C2084 C2083 1.400 . S
C2084 C2087 1.386 . S
H2085 C2101 0.930 . S
H2086 C2102 0.931 . S
C2087 H2075 0.929 . S
C2087 C2081 1.390 . S
C2087 C2084 1.386 . S
C2088 C2083 1.490 . S
C2088 C2090 1.395 . S
C2088 C2091 1.403 . S
H2089 C2095 0.930 . S
C2090 H2076 0.930 . S
C2090 C2088 1.395 . S
C2090 C2093 1.403 1_655 S
C2091 C2088 1.403 . S
C2091 C2092 1.524 . S
C2091 C2095 1.400 1_655 S
C2092 H2077 0.960 . S
C2092 H2078 0.960 . S
C2092 H2079 0.960 . S
C2092 C2091 1.524 . S
C2093 C2090 1.403 1_455 S
C2093 C2094 1.392 . S
C2093 C2097 1.495 . S
C2094 C2093 1.392 . S
C2094 C2095 1.385 . S
C2094 C2096 1.478 . S
C2095 H2089 0.930 . S
C2095 C2091 1.400 1_455 S
C2095 C2094 1.385 . S
C2096 C2094 1.478 . S
C2096 C2098 1.381 . S
C2096 C2102 1.383 . S
C2097 C2093 1.495 . S
C2097 H2103 0.959 . S
C2097 H2104 0.961 . S
C2097 H2105 0.960 . S
C2098 C2096 1.381 . S
C2098 C2099 1.394 . S
C2098 H2106 0.930 . S
C2099 C2098 1.394 . S
C2099 C2100 1.383 . S
C2099 H2107 0.929 . S
C2100 C2099 1.383 . S
C2100 C2101 1.377 . S
C2101 H2085 0.930 . S
C2101 C2100 1.377 . S
C2101 C2102 1.379 . S
C2102 H2086 0.931 . S
C2102 C2096 1.383 . S
C2102 C2101 1.379 . S
H2103 C2097 0.959 . S
H2104 C2097 0.961 . S
H2105 C2097 0.960 . S
H2106 C2098 0.930 . S
H2107 C2099 0.929 . S
H2108 C2116 0.929 . S
H2109 C2118 0.930 . S
H2110 C2120 0.930 . S
H2111 C2123 0.929 . S
H2112 C2126 0.930 . S
H2113 C2128 0.960 . S
H2114 C2128 0.960 . S
H2115 C2128 0.960 . S
C2116 H2108 0.929 . S
C2116 C2117 1.377 . S
C2116 C2118 1.384 . S
C2117 C2116 1.377 . S
C2117 C2123 1.390 . S
C2118 H2109 0.930 . S
C2118 C2116 1.384 . S
C2118 C2119 1.372 . S
C2119 C2118 1.372 . S
C2119 C2120 1.400 . S
C2119 C2124 1.490 . S
C2120 H2110 0.930 . S
C2120 C2119 1.400 . S
C2120 C2123 1.386 . S
H2121 C2137 0.930 . S
H2122 C2138 0.931 . S
C2123 H2111 0.929 . S
C2123 C2117 1.390 . S
C2123 C2120 1.386 . S
C2124 C2119 1.490 . S
C2124 C2126 1.395 . S
C2124 C2127 1.403 . S
H2125 C2131 0.930 . S
C2126 H2112 0.930 . S
C2126 C2124 1.395 . S
C2126 C2129 1.403 . S
C2127 C2124 1.403 . S
C2127 C2128 1.524 . S
C2127 C2131 1.400 . S
C2128 H2113 0.960 . S
C2128 H2114 0.960 . S
C2128 H2115 0.960 . S
C2128 C2127 1.524 . S
C2129 C2126 1.403 . S
C2129 C2130 1.392 . S
C2129 C2133 1.495 . S
C2130 C2129 1.392 . S
C2130 C2131 1.385 . S
C2130 C2132 1.478 . S
C2131 H2125 0.930 . S
C2131 C2127 1.400 . S
C2131 C2130 1.385 . S
C2132 C2130 1.478 . S
C2132 C2134 1.381 . S
C2132 C2138 1.383 . S
C2133 C2129 1.495 . S
C2133 H2139 0.959 . S
C2133 H2140 0.961 . S
C2133 H2141 0.960 . S
C2134 C2132 1.381 . S
C2134 C2135 1.394 . S
C2134 H2142 0.930 . S
C2135 C2134 1.394 . S
C2135 C2136 1.383 . S
C2135 H2143 0.929 . S
C2136 C2135 1.383 . S
C2136 C2137 1.377 . S
C2137 H2121 0.930 . S
C2137 C2136 1.377 . S
C2137 C2138 1.379 . S
C2138 H2122 0.931 . S
C2138 C2132 1.383 . S
C2138 C2137 1.379 . S
H2139 C2133 0.959 . S
H2140 C2133 0.961 . S
H2141 C2133 0.960 . S
H2142 C2134 0.930 . S
H2143 C2135 0.929 . S
H2144 C2152 0.929 . S
H2145 C2154 0.930 . S
H2146 C2156 0.930 . S
H2147 C2159 0.929 . S
H2148 C2162 0.930 . S
H2149 C2164 0.960 . S
H2150 C2164 0.960 . S
H2151 C2164 0.960 . S
C2152 H2144 0.929 . S
C2152 C2153 1.377 . S
C2152 C2154 1.384 . S
C2153 C2152 1.377 . S
C2153 C2159 1.390 . S
C2154 H2145 0.930 . S
C2154 C2152 1.384 . S
C2154 C2155 1.372 . S
C2155 C2154 1.372 . S
C2155 C2156 1.400 . S
C2155 C2160 1.490 . S
C2156 H2146 0.930 . S
C2156 C2155 1.400 . S
C2156 C2159 1.386 . S
H2157 C2173 0.930 . S
H2158 C2174 0.931 . S
C2159 H2147 0.929 . S
C2159 C2153 1.390 . S
C2159 C2156 1.386 . S
C2160 C2155 1.490 . S
C2160 C2162 1.395 . S
C2160 C2163 1.403 . S
H2161 C2167 0.930 . S
C2162 H2148 0.930 . S
C2162 C2160 1.395 . S
C2162 C2165 1.403 . S
C2163 C2160 1.403 . S
C2163 C2164 1.524 . S
C2163 C2167 1.400 . S
C2164 H2149 0.960 . S
C2164 H2150 0.960 . S
C2164 H2151 0.960 . S
C2164 C2163 1.524 . S
C2165 C2162 1.403 . S
C2165 C2166 1.392 . S
C2165 C2169 1.495 . S
C2166 C2165 1.392 . S
C2166 C2167 1.385 . S
C2166 C2168 1.478 . S
C2167 H2161 0.930 . S
C2167 C2163 1.400 . S
C2167 C2166 1.385 . S
C2168 C2166 1.478 . S
C2168 C2170 1.381 . S
C2168 C2174 1.383 . S
C2169 C2165 1.495 . S
C2169 H2175 0.959 . S
C2169 H2176 0.961 . S
C2169 H2177 0.960 . S
C2170 C2168 1.381 . S
C2170 C2171 1.394 . S
C2170 H2178 0.930 . S
C2171 C2170 1.394 . S
C2171 C2172 1.383 . S
C2171 H2179 0.929 . S
C2172 C2171 1.383 . S
C2172 C2173 1.377 . S
C2173 H2157 0.930 . S
C2173 C2172 1.377 . S
C2173 C2174 1.379 . S
C2174 H2158 0.931 . S
C2174 C2168 1.383 . S
C2174 C2173 1.379 . S
H2175 C2169 0.959 . S
H2176 C2169 0.961 . S
H2177 C2169 0.960 . S
H2178 C2170 0.930 . S
H2179 C2171 0.929 . S
H2180 C2188 0.929 . S
H2181 C2190 0.930 . S
H2182 C2192 0.930 . S
H2183 C2195 0.929 . S
H2184 C2198 0.930 . S
H2185 C2200 0.960 . S
H2186 C2200 0.960 . S
H2187 C2200 0.960 . S
C2188 H2180 0.929 . S
C2188 C2189 1.377 . S
C2188 C2190 1.384 . S
C2189 C2188 1.377 . S
C2189 C2195 1.390 . S
C2190 H2181 0.930 . S
C2190 C2188 1.384 . S
C2190 C2191 1.372 . S
C2191 C2190 1.372 . S
C2191 C2192 1.400 . S
C2191 C2196 1.490 . S
C2192 H2182 0.930 . S
C2192 C2191 1.400 . S
C2192 C2195 1.386 . S
H2193 C2209 0.930 . S
H2194 C2210 0.931 . S
C2195 H2183 0.929 . S
C2195 C2189 1.390 . S
C2195 C2192 1.386 . S
C2196 C2191 1.490 . S
C2196 C2198 1.395 1_565 S
C2196 C2199 1.403 . S
H2197 C2203 0.930 . S
C2198 H2184 0.930 . S
C2198 C2196 1.395 1_545 S
C2198 C2201 1.403 . S
C2199 C2196 1.403 . S
C2199 C2200 1.524 . S
C2199 C2203 1.400 . S
C2200 H2185 0.960 . S
C2200 H2186 0.960 . S
C2200 H2187 0.960 . S
C2200 C2199 1.524 . S
C2201 C2198 1.403 . S
C2201 C2202 1.392 . S
C2201 C2205 1.495 . S
C2202 C2201 1.392 . S
C2202 C2203 1.385 1_545 S
C2202 C2204 1.478 . S
C2203 H2197 0.930 . S
C2203 C2199 1.400 . S
C2203 C2202 1.385 1_565 S
C2204 C2202 1.478 . S
C2204 C2206 1.381 . S
C2204 C2210 1.383 . S
C2205 C2201 1.495 . S
C2205 H2211 0.959 . S
C2205 H2212 0.961 . S
C2205 H2213 0.960 . S
C2206 C2204 1.381 . S
C2206 C2207 1.394 . S
C2206 H2214 0.930 . S
C2207 C2206 1.394 . S
C2207 C2208 1.383 . S
C2207 H2215 0.929 . S
C2208 C2207 1.383 . S
C2208 C2209 1.377 . S
C2209 H2193 0.930 . S
C2209 C2208 1.377 . S
C2209 C2210 1.379 . S
C2210 H2194 0.931 . S
C2210 C2204 1.383 . S
C2210 C2209 1.379 . S
H2211 C2205 0.959 . S
H2212 C2205 0.961 . S
H2213 C2205 0.960 . S
H2214 C2206 0.930 . S
H2215 C2207 0.929 . S
H2216 C2224 0.929 . S
H2217 C2226 0.930 . S
H2218 C2228 0.930 . S
H2219 C2231 0.929 . S
H2220 C2234 0.930 . S
H2221 C2236 0.960 . S
H2222 C2236 0.960 . S
H2223 C2236 0.960 . S
C2224 H2216 0.929 . S
C2224 C2225 1.377 . S
C2224 C2226 1.384 . S
C2225 C2224 1.377 . S
C2225 C2231 1.390 . S
C2226 H2217 0.930 . S
C2226 C2224 1.384 . S
C2226 C2227 1.372 . S
C2227 C2226 1.372 . S
C2227 C2228 1.400 . S
C2227 C2232 1.490 . S
C2228 H2218 0.930 . S
C2228 C2227 1.400 . S
C2228 C2231 1.386 . S
H2229 C2245 0.930 . S
H2230 C2246 0.931 . S
C2231 H2219 0.929 . S
C2231 C2225 1.390 . S
C2231 C2228 1.386 . S
C2232 C2227 1.490 . S
C2232 C2234 1.395 . S
C2232 C2235 1.403 . S
H2233 C2239 0.930 . S
C2234 H2220 0.930 . S
C2234 C2232 1.395 . S
C2234 C2237 1.403 . S
C2235 C2232 1.403 . S
C2235 C2236 1.524 . S
C2235 C2239 1.400 . S
C2236 H2221 0.960 . S
C2236 H2222 0.960 . S
C2236 H2223 0.960 . S
C2236 C2235 1.524 . S
C2237 C2234 1.403 . S
C2237 C2238 1.392 . S
C2237 C2241 1.495 . S
C2238 C2237 1.392 . S
C2238 C2239 1.385 . S
C2238 C2240 1.478 . S
C2239 H2233 0.930 . S
C2239 C2235 1.400 . S
C2239 C2238 1.385 . S
C2240 C2238 1.478 . S
C2240 C2242 1.381 . S
C2240 C2246 1.383 . S
C2241 C2237 1.495 . S
C2241 H2247 0.959 . S
C2241 H2248 0.961 . S
C2241 H2249 0.960 . S
C2242 C2240 1.381 . S
C2242 C2243 1.394 . S
C2242 H2250 0.930 . S
C2243 C2242 1.394 . S
C2243 C2244 1.383 . S
C2243 H2251 0.929 . S
C2244 C2243 1.383 . S
C2244 C2245 1.377 . S
C2245 H2229 0.930 . S
C2245 C2244 1.377 . S
C2245 C2246 1.379 . S
C2246 H2230 0.931 . S
C2246 C2240 1.383 . S
C2246 C2245 1.379 . S
H2247 C2241 0.959 . S
H2248 C2241 0.961 . S
H2249 C2241 0.960 . S
H2250 C2242 0.930 . S
H2251 C2243 0.929 . S
H2252 C2260 0.929 . S
H2253 C2262 0.948 . S
H2254 C2264 0.930 . S
H2255 C2267 0.929 . S
H2256 C2270 0.930 . S
H2257 C2272 0.954 1_564 S
H2258 C2272 0.968 . S
H2259 C2272 0.958 1_565 S
C2260 H2252 0.929 . S
C2260 C2261 1.377 . S
C2260 C2262 1.384 . S
C2261 C2260 1.377 . S
C2261 C2267 1.390 . S
C2262 H2253 0.948 . S
C2262 C2260 1.384 . S
C2262 C2263 1.372 . S
C2263 C2262 1.372 . S
C2263 C2264 1.400 . S
C2263 C2268 1.490 1_556 S
C2264 H2254 0.930 . S
C2264 C2263 1.400 . S
C2264 C2267 1.386 . S
H2265 C2281 0.930 . S
H2266 C2282 0.931 . S
C2267 H2255 0.929 . S
C2267 C2261 1.390 . S
C2267 C2264 1.386 . S
C2268 C2263 1.490 1_554 S
C2268 C2270 1.395 . S
C2268 C2271 1.433 . S
H2269 C2275 0.930 . S
C2270 H2256 0.930 . S
C2270 C2268 1.395 . S
C2270 C2273 1.403 . S
C2271 C2268 1.433 . S
C2271 C2272 1.523 1_554 S
C2271 C2275 1.371 1_545 S
C2272 H2257 0.954 1_546 S
C2272 H2258 0.968 . S
C2272 H2259 0.958 1_545 S
C2272 C2271 1.523 1_556 S
C2273 C2270 1.403 . S
C2273 C2274 1.392 1_545 S
C2273 C2277 1.495 . S
C2274 C2273 1.392 1_565 S
C2274 C2275 1.385 . S
C2274 C2276 1.478 . S
C2275 H2269 0.930 . S
C2275 C2271 1.371 1_565 S
C2275 C2274 1.385 . S
C2276 C2274 1.478 . S
C2276 C2278 1.381 . S
C2276 C2282 1.383 . S
C2277 C2273 1.495 . S
C2277 H2283 0.959 . S
C2277 H2284 0.961 1_545 S
C2277 H2285 0.960 . S
C2278 C2276 1.381 . S
C2278 C2279 1.394 . S
C2278 H2286 0.930 . S
C2279 C2278 1.394 . S
C2279 C2280 1.383 . S
C2279 H2287 0.929 . S
C2280 C2279 1.383 . S
C2280 C2281 1.377 . S
C2281 H2265 0.930 . S
C2281 C2280 1.377 . S
C2281 C2282 1.379 . S
C2282 H2266 0.931 . S
C2282 C2276 1.383 . S
C2282 C2281 1.379 . S
H2283 C2277 0.959 . S
H2284 C2277 0.961 1_565 S
H2285 C2277 0.960 . S
H2286 C2278 0.930 . S
H2287 C2279 0.929 . S
H2288 C2296 0.929 . S
H2289 C2298 0.930 . S
H2290 C2300 0.930 . S
H2291 C2303 0.929 . S
H2292 C2306 0.930 . S
H2293 C2308 0.960 . S
H2294 C2308 0.960 . S
H2295 C2308 0.960 . S
C2296 H2288 0.929 . S
C2296 C2297 1.377 . S
C2296 C2298 1.384 . S
C2297 C2296 1.377 . S
C2297 C2303 1.390 . S
C2298 H2289 0.930 . S
C2298 C2296 1.384 . S
C2298 C2299 1.372 . S
C2299 C2298 1.372 . S
C2299 C2300 1.400 . S
C2299 C2304 1.490 . S
C2300 H2290 0.930 . S
C2300 C2299 1.400 . S
C2300 C2303 1.386 . S
H2301 C2317 0.930 . S
H2302 C2318 0.931 . S
C2303 H2291 0.929 . S
C2303 C2297 1.390 . S
C2303 C2300 1.386 . S
C2304 C2299 1.490 . S
C2304 C2306 1.395 . S
C2304 C2307 1.403 . S
H2305 C2311 0.930 . S
C2306 H2292 0.930 . S
C2306 C2304 1.395 . S
C2306 C2309 1.403 . S
C2307 C2304 1.403 . S
C2307 C2308 1.524 . S
C2307 C2311 1.400 . S
C2308 H2293 0.960 . S
C2308 H2294 0.960 . S
C2308 H2295 0.960 . S
C2308 C2307 1.524 . S
C2309 C2306 1.403 . S
C2309 C2310 1.392 . S
C2309 C2313 1.495 . S
C2310 C2309 1.392 . S
C2310 C2311 1.385 . S
C2310 C2312 1.478 . S
C2311 H2305 0.930 . S
C2311 C2307 1.400 . S
C2311 C2310 1.385 . S
C2312 C2310 1.478 . S
C2312 C2314 1.381 . S
C2312 C2318 1.383 . S
C2313 C2309 1.495 . S
C2313 H2319 0.959 . S
C2313 H2320 0.961 . S
C2313 H2321 0.960 . S
C2314 C2312 1.381 . S
C2314 C2315 1.394 . S
C2314 H2322 0.930 . S
C2315 C2314 1.394 . S
C2315 C2316 1.383 . S
C2315 H2323 0.929 . S
C2316 C2315 1.383 . S
C2316 C2317 1.377 . S
C2317 H2301 0.930 . S
C2317 C2316 1.377 . S
C2317 C2318 1.379 . S
C2318 H2302 0.931 . S
C2318 C2312 1.383 . S
C2318 C2317 1.379 . S
H2319 C2313 0.959 . S
H2320 C2313 0.961 . S
H2321 C2313 0.960 . S
H2322 C2314 0.930 . S
H2323 C2315 0.929 . S
H2324 C2332 0.929 . S
H2325 C2334 0.930 . S
H2326 C2336 0.930 . S
H2327 C2339 0.929 . S
H2328 C2342 0.930 . S
H2329 C2344 0.960 . S
H2330 C2344 0.960 . S
H2331 C2344 0.960 . S
C2332 H2324 0.929 . S
C2332 C2333 1.377 . S
C2332 C2334 1.384 . S
C2333 C2332 1.377 . S
C2333 C2339 1.390 . S
C2334 H2325 0.930 . S
C2334 C2332 1.384 . S
C2334 C2335 1.372 . S
C2335 C2334 1.372 . S
C2335 C2336 1.400 . S
C2335 C2340 1.490 . S
C2336 H2326 0.930 . S
C2336 C2335 1.400 . S
C2336 C2339 1.386 . S
H2337 C2353 0.930 . S
H2338 C2354 0.931 . S
C2339 H2327 0.929 . S
C2339 C2333 1.390 . S
C2339 C2336 1.386 . S
C2340 C2335 1.490 . S
C2340 C2342 1.395 1_545 S
C2340 C2343 1.403 . S
H2341 C2347 0.930 . S
C2342 H2328 0.930 . S
C2342 C2340 1.395 1_565 S
C2342 C2345 1.403 . S
C2343 C2340 1.403 . S
C2343 C2344 1.524 . S
C2343 C2347 1.400 . S
C2344 H2329 0.960 . S
C2344 H2330 0.960 . S
C2344 H2331 0.960 . S
C2344 C2343 1.524 . S
C2345 C2342 1.403 . S
C2345 C2346 1.392 . S
C2345 C2349 1.495 . S
C2346 C2345 1.392 . S
C2346 C2347 1.385 1_565 S
C2346 C2348 1.478 . S
C2347 H2341 0.930 . S
C2347 C2343 1.400 . S
C2347 C2346 1.385 1_545 S
C2348 C2346 1.478 . S
C2348 C2350 1.381 . S
C2348 C2354 1.383 . S
C2349 C2345 1.495 . S
C2349 H2355 0.959 . S
C2349 H2356 0.961 . S
C2349 H2357 0.960 . S
C2350 C2348 1.381 . S
C2350 C2351 1.394 . S
C2350 H2358 0.930 . S
C2351 C2350 1.394 . S
C2351 C2352 1.383 . S
C2351 H2359 0.929 . S
C2352 C2351 1.383 . S
C2352 C2353 1.377 . S
C2353 H2337 0.930 . S
C2353 C2352 1.377 . S
C2353 C2354 1.379 . S
C2354 H2338 0.931 . S
C2354 C2348 1.383 . S
C2354 C2353 1.379 . S
H2355 C2349 0.959 . S
H2356 C2349 0.961 . S
H2357 C2349 0.960 . S
H2358 C2350 0.930 . S
H2359 C2351 0.929 . S
H2360 C2368 0.929 . S
H2361 C2370 0.930 . S
H2362 C2372 0.930 . S
H2363 C2375 0.929 . S
H2364 C2378 0.930 . S
H2365 C2380 0.960 . S
H2366 C2380 0.960 . S
H2367 C2380 0.960 . S
C2368 H2360 0.929 . S
C2368 C2369 1.377 . S
C2368 C2370 1.384 . S
C2369 C2368 1.377 . S
C2369 C2375 1.390 . S
C2370 H2361 0.930 . S
C2370 C2368 1.384 . S
C2370 C2371 1.372 . S
C2371 C2370 1.372 . S
C2371 C2372 1.400 . S
C2371 C2376 1.490 . S
C2372 H2362 0.930 . S
C2372 C2371 1.400 . S
C2372 C2375 1.386 . S
H2373 C2389 0.930 . S
H2374 C2390 0.931 . S
C2375 H2363 0.929 . S
C2375 C2369 1.390 . S
C2375 C2372 1.386 . S
C2376 C2371 1.490 . S
C2376 C2378 1.395 . S
C2376 C2379 1.403 . S
H2377 C2383 0.930 . S
C2378 H2364 0.930 . S
C2378 C2376 1.395 . S
C2378 C2381 1.403 . S
C2379 C2376 1.403 . S
C2379 C2380 1.524 . S
C2379 C2383 1.400 . S
C2380 H2365 0.960 . S
C2380 H2366 0.960 . S
C2380 H2367 0.960 . S
C2380 C2379 1.524 . S
C2381 C2378 1.403 . S
C2381 C2382 1.392 . S
C2381 C2385 1.495 . S
C2382 C2381 1.392 . S
C2382 C2383 1.385 . S
C2382 C2384 1.478 . S
C2383 H2377 0.930 . S
C2383 C2379 1.400 . S
C2383 C2382 1.385 . S
C2384 C2382 1.478 . S
C2384 C2386 1.381 . S
C2384 C2390 1.383 . S
C2385 C2381 1.495 . S
C2385 H2391 0.959 . S
C2385 H2392 0.961 . S
C2385 H2393 0.960 . S
C2386 C2384 1.381 . S
C2386 C2387 1.394 . S
C2386 H2394 0.930 . S
C2387 C2386 1.394 . S
C2387 C2388 1.383 . S
C2387 H2395 0.929 . S
C2388 C2387 1.383 . S
C2388 C2389 1.377 . S
C2389 H2373 0.930 . S
C2389 C2388 1.377 . S
C2389 C2390 1.379 . S
C2390 H2374 0.931 . S
C2390 C2384 1.383 . S
C2390 C2389 1.379 . S
H2391 C2385 0.959 . S
H2392 C2385 0.961 . S
H2393 C2385 0.960 . S
H2394 C2386 0.930 . S
H2395 C2387 0.929 . S
H2396 C2404 0.929 . S
H2397 C2406 0.930 . S
H2398 C2408 0.930 . S
H2399 C2411 0.929 . S
H2400 C2414 0.930 . S
H2401 C2416 0.967 . S
H2402 C2416 0.951 1_565 S
H2403 C2416 0.963 . S
C2404 H2396 0.929 . S
C2404 C2405 1.377 . S
C2404 C2406 1.384 . S
C2405 C2404 1.377 . S
C2405 C2411 1.390 . S
C2406 H2397 0.930 . S
C2406 C2404 1.384 . S
C2406 C2407 1.372 . S
C2407 C2406 1.372 . S
C2407 C2408 1.400 . S
C2407 C2412 1.490 . S
C2408 H2398 0.930 . S
C2408 C2407 1.400 . S
C2408 C2411 1.386 . S
H2409 C2425 0.930 . S
H2410 C2426 0.931 . S
C2411 H2399 0.929 . S
C2411 C2405 1.390 . S
C2411 C2408 1.386 . S
C2412 C2407 1.490 . S
C2412 C2414 1.395 . S
C2412 C2415 1.422 . S
H2413 C2419 0.930 . S
C2414 H2400 0.930 . S
C2414 C2412 1.395 . S
C2414 C2417 1.403 . S
C2415 C2412 1.422 . S
C2415 C2416 1.523 1_565 S
C2415 C2419 1.382 1_565 S
C2416 H2401 0.967 . S
C2416 H2402 0.951 1_545 S
C2416 H2403 0.963 . S
C2416 C2415 1.523 1_545 S
C2417 C2414 1.403 . S
C2417 C2418 1.392 1_565 S
C2417 C2421 1.495 1_554 S
C2418 C2417 1.392 1_545 S
C2418 C2419 1.385 . S
C2418 C2420 1.478 1_554 S
C2419 H2413 0.930 . S
C2419 C2415 1.382 1_545 S
C2419 C2418 1.385 . S
C2420 C2418 1.478 1_556 S
C2420 C2422 1.381 . S
C2420 C2426 1.383 . S
C2421 C2417 1.495 1_556 S
C2421 H2427 0.959 . S
C2421 H2428 0.961 1_565 S
C2421 H2429 0.960 . S
C2422 C2420 1.381 . S
C2422 C2423 1.394 . S
C2422 H2430 0.930 . S
C2423 C2422 1.394 . S
C2423 C2424 1.383 . S
C2423 H2431 0.929 . S
C2424 C2423 1.383 . S
C2424 C2425 1.377 . S
C2425 H2409 0.930 . S
C2425 C2424 1.377 . S
C2425 C2426 1.379 . S
C2426 H2410 0.931 . S
C2426 C2420 1.383 . S
C2426 C2425 1.379 . S
H2427 C2421 0.959 . S
H2428 C2421 0.961 1_545 S
H2429 C2421 0.960 . S
H2430 C2422 0.930 . S
H2431 C2423 0.929 . S
H2432 C2440 0.929 . S
H2433 C2442 0.930 . S
H2434 C2444 0.930 . S
H2435 C2447 0.929 . S
H2436 C2450 0.930 . S
H2437 C2452 0.960 . S
H2438 C2452 0.960 . S
H2439 C2452 0.960 . S
C2440 H2432 0.929 . S
C2440 C2441 1.377 . S
C2440 C2442 1.384 . S
C2441 C2440 1.377 . S
C2441 C2447 1.390 . S
C2442 H2433 0.930 . S
C2442 C2440 1.384 . S
C2442 C2443 1.372 . S
C2443 C2442 1.372 . S
C2443 C2444 1.400 . S
C2443 C2448 1.490 . S
C2444 H2434 0.930 . S
C2444 C2443 1.400 . S
C2444 C2447 1.386 . S
H2445 C2461 0.930 . S
H2446 C2462 0.931 . S
C2447 H2435 0.929 . S
C2447 C2441 1.390 . S
C2447 C2444 1.386 . S
C2448 C2443 1.490 . S
C2448 C2450 1.395 . S
C2448 C2451 1.403 . S
H2449 C2455 0.930 . S
C2450 H2436 0.930 . S
C2450 C2448 1.395 . S
C2450 C2453 1.403 . S
C2451 C2448 1.403 . S
C2451 C2452 1.524 . S
C2451 C2455 1.400 . S
C2452 H2437 0.960 . S
C2452 H2438 0.960 . S
C2452 H2439 0.960 . S
C2452 C2451 1.524 . S
C2453 C2450 1.403 . S
C2453 C2454 1.392 . S
C2453 C2457 1.495 . S
C2454 C2453 1.392 . S
C2454 C2455 1.385 . S
C2454 C2456 1.478 . S
C2455 H2449 0.930 . S
C2455 C2451 1.400 . S
C2455 C2454 1.385 . S
C2456 C2454 1.478 . S
C2456 C2458 1.381 . S
C2456 C2462 1.383 . S
C2457 C2453 1.495 . S
C2457 H2463 0.959 . S
C2457 H2464 0.961 . S
C2457 H2465 0.960 . S
C2458 C2456 1.381 . S
C2458 C2459 1.394 . S
C2458 H2466 0.930 . S
C2459 C2458 1.394 . S
C2459 C2460 1.383 . S
C2459 H2467 0.929 . S
C2460 C2459 1.383 . S
C2460 C2461 1.377 . S
C2461 H2445 0.930 . S
C2461 C2460 1.377 . S
C2461 C2462 1.379 . S
C2462 H2446 0.931 . S
C2462 C2456 1.383 . S
C2462 C2461 1.379 . S
H2463 C2457 0.959 . S
H2464 C2457 0.961 . S
H2465 C2457 0.960 . S
H2466 C2458 0.930 . S
H2467 C2459 0.929 . S
H2468 C2476 0.929 . S
H2469 C2478 0.930 . S
H2470 C2480 0.930 . S
H2471 C2483 0.929 . S
H2472 C2486 0.930 . S
H2473 C2488 0.960 1_556 S
H2474 C2488 0.960 . S
H2475 C2488 0.960 . S
C2476 H2468 0.929 . S
C2476 C2477 1.377 . S
C2476 C2478 1.384 . S
C2477 C2476 1.377 . S
C2477 C2483 1.390 . S
C2478 H2469 0.930 . S
C2478 C2476 1.384 . S
C2478 C2479 1.372 . S
C2479 C2478 1.372 . S
C2479 C2480 1.400 . S
C2479 C2484 1.490 . S
C2480 H2470 0.930 . S
C2480 C2479 1.400 . S
C2480 C2483 1.386 . S
H2481 C2497 0.930 . S
H2482 C2498 0.931 . S
C2483 H2471 0.929 . S
C2483 C2477 1.390 . S
C2483 C2480 1.386 . S
C2484 C2479 1.490 . S
C2484 C2486 1.395 . S
C2484 C2487 1.403 . S
H2485 C2491 0.930 1_556 S
C2486 H2472 0.930 . S
C2486 C2484 1.395 . S
C2486 C2489 1.403 . S
C2487 C2484 1.403 . S
C2487 C2488 1.524 . S
C2487 C2491 1.400 . S
C2488 H2473 0.960 1_554 S
C2488 H2474 0.960 . S
C2488 H2475 0.960 . S
C2488 C2487 1.524 . S
C2489 C2486 1.403 . S
C2489 C2490 1.392 . S
C2489 C2493 1.495 . S
C2490 C2489 1.392 . S
C2490 C2491 1.385 . S
C2490 C2492 1.478 1_554 S
C2491 H2485 0.930 1_554 S
C2491 C2487 1.400 . S
C2491 C2490 1.385 . S
C2492 C2490 1.478 1_556 S
C2492 C2494 1.381 . S
C2492 C2498 1.383 . S
C2493 C2489 1.495 . S
C2493 H2499 0.959 . S
C2493 H2500 0.961 . S
C2493 H2501 0.960 . S
C2494 C2492 1.381 . S
C2494 C2495 1.394 . S
C2494 H2502 0.930 . S
C2495 C2494 1.394 . S
C2495 C2496 1.383 . S
C2495 H2503 0.929 . S
C2496 C2495 1.383 . S
C2496 C2497 1.377 . S
C2497 H2481 0.930 . S
C2497 C2496 1.377 . S
C2497 C2498 1.379 . S
C2498 H2482 0.931 . S
C2498 C2492 1.383 . S
C2498 C2497 1.379 . S
H2499 C2493 0.959 . S
H2500 C2493 0.961 . S
H2501 C2493 0.960 . S
H2502 C2494 0.930 . S
H2503 C2495 0.929 . S
H2504 C2512 0.929 . S
H2505 C2514 0.930 . S
H2506 C2516 0.930 . S
H2507 C2519 0.929 . S
H2508 C2522 0.930 . S
H2509 C2524 0.960 . S
H2510 C2524 0.960 . S
H2511 C2524 0.960 . S
C2512 H2504 0.929 . S
C2512 C2513 1.377 . S
C2512 C2514 1.384 . S
C2513 C2512 1.377 . S
C2513 C2519 1.390 . S
C2514 H2505 0.930 . S
C2514 C2512 1.384 . S
C2514 C2515 1.372 . S
C2515 C2514 1.372 . S
C2515 C2516 1.400 . S
C2515 C2520 1.490 . S
C2516 H2506 0.930 . S
C2516 C2515 1.400 . S
C2516 C2519 1.386 . S
H2517 C2533 0.930 . S
H2518 C2534 0.931 . S
C2519 H2507 0.929 . S
C2519 C2513 1.390 . S
C2519 C2516 1.386 . S
C2520 C2515 1.490 . S
C2520 C2522 1.395 . S
C2520 C2523 1.403 . S
H2521 C2527 0.930 . S
C2522 H2508 0.930 . S
C2522 C2520 1.395 . S
C2522 C2525 1.403 . S
C2523 C2520 1.403 . S
C2523 C2524 1.524 . S
C2523 C2527 1.400 . S
C2524 H2509 0.960 . S
C2524 H2510 0.960 . S
C2524 H2511 0.960 . S
C2524 C2523 1.524 . S
C2525 C2522 1.403 . S
C2525 C2526 1.392 . S
C2525 C2529 1.495 . S
C2526 C2525 1.392 . S
C2526 C2527 1.385 . S
C2526 C2528 1.478 . S
C2527 H2521 0.930 . S
C2527 C2523 1.400 . S
C2527 C2526 1.385 . S
C2528 C2526 1.478 . S
C2528 C2530 1.381 . S
C2528 C2534 1.383 . S
C2529 C2525 1.495 . S
C2529 H2535 0.959 . S
C2529 H2536 0.961 . S
C2529 H2537 0.960 . S
C2530 C2528 1.381 . S
C2530 C2531 1.394 . S
C2530 H2538 0.930 . S
C2531 C2530 1.394 . S
C2531 C2532 1.383 . S
C2531 H2539 0.929 . S
C2532 C2531 1.383 . S
C2532 C2533 1.377 . S
C2533 H2517 0.930 . S
C2533 C2532 1.377 . S
C2533 C2534 1.379 . S
C2534 H2518 0.931 . S
C2534 C2528 1.383 . S
C2534 C2533 1.379 . S
H2535 C2529 0.959 . S
H2536 C2529 0.961 . S
H2537 C2529 0.960 . S
H2538 C2530 0.930 . S
H2539 C2531 0.929 . S
H2540 C2548 0.929 . S
H2541 C2550 0.930 . S
H2542 C2552 0.930 . S
H2543 C2555 0.929 . S
H2544 C2558 0.930 . S
H2545 C2560 0.960 . S
H2546 C2560 0.960 . S
H2547 C2560 0.960 . S
C2548 H2540 0.929 . S
C2548 C2549 1.377 . S
C2548 C2550 1.384 . S
C2549 C2548 1.377 . S
C2549 C2555 1.390 . S
C2550 H2541 0.930 . S
C2550 C2548 1.384 . S
C2550 C2551 1.372 . S
C2551 C2550 1.372 . S
C2551 C2552 1.400 . S
C2551 C2556 1.490 . S
C2552 H2542 0.930 . S
C2552 C2551 1.400 . S
C2552 C2555 1.386 . S
H2553 C2569 0.930 . S
H2554 C2570 0.931 . S
C2555 H2543 0.929 . S
C2555 C2549 1.390 . S
C2555 C2552 1.386 . S
C2556 C2551 1.490 . S
C2556 C2558 1.395 . S
C2556 C2559 1.403 . S
H2557 C2563 0.930 . S
C2558 H2544 0.930 . S
C2558 C2556 1.395 . S
C2558 C2561 1.403 . S
C2559 C2556 1.403 . S
C2559 C2560 1.524 . S
C2559 C2563 1.400 . S
C2560 H2545 0.960 . S
C2560 H2546 0.960 . S
C2560 H2547 0.960 . S
C2560 C2559 1.524 . S
C2561 C2558 1.403 . S
C2561 C2562 1.392 . S
C2561 C2565 1.495 . S
C2562 C2561 1.392 . S
C2562 C2563 1.385 . S
C2562 C2564 1.478 . S
C2563 H2557 0.930 . S
C2563 C2559 1.400 . S
C2563 C2562 1.385 . S
C2564 C2562 1.478 . S
C2564 C2566 1.381 . S
C2564 C2570 1.383 . S
C2565 C2561 1.495 . S
C2565 H2571 0.959 . S
C2565 H2572 0.961 . S
C2565 H2573 0.960 . S
C2566 C2564 1.381 . S
C2566 C2567 1.394 . S
C2566 H2574 0.930 . S
C2567 C2566 1.394 . S
C2567 C2568 1.383 . S
C2567 H2575 0.929 . S
C2568 C2567 1.383 . S
C2568 C2569 1.377 . S
C2569 H2553 0.930 . S
C2569 C2568 1.377 . S
C2569 C2570 1.379 . S
C2570 H2554 0.931 . S
C2570 C2564 1.383 . S
C2570 C2569 1.379 . S
H2571 C2565 0.959 . S
H2572 C2565 0.961 . S
H2573 C2565 0.960 . S
H2574 C2566 0.930 . S
H2575 C2567 0.929 . S
H2576 C2584 0.929 . S
H2577 C2586 0.930 . S
H2578 C2588 0.930 . S
H2579 C2591 0.929 . S
H2580 C2594 0.930 . S
H2581 C2596 0.960 . S
H2582 C2596 0.960 . S
H2583 C2596 0.960 . S
C2584 H2576 0.929 . S
C2584 C2585 1.377 . S
C2584 C2586 1.384 . S
C2585 C2584 1.377 . S
C2585 C2591 1.390 . S
C2586 H2577 0.930 . S
C2586 C2584 1.384 . S
C2586 C2587 1.372 . S
C2587 C2586 1.372 . S
C2587 C2588 1.400 . S
C2587 C2592 1.490 . S
C2588 H2578 0.930 . S
C2588 C2587 1.400 . S
C2588 C2591 1.386 . S
H2589 C2605 0.930 . S
H2590 C2606 0.931 . S
C2591 H2579 0.929 . S
C2591 C2585 1.390 . S
C2591 C2588 1.386 . S
C2592 C2587 1.490 . S
C2592 C2594 1.395 . S
C2592 C2595 1.403 . S
H2593 C2599 0.930 . S
C2594 H2580 0.930 . S
C2594 C2592 1.395 . S
C2594 C2597 1.403 . S
C2595 C2592 1.403 . S
C2595 C2596 1.524 . S
C2595 C2599 1.400 . S
C2596 H2581 0.960 . S
C2596 H2582 0.960 . S
C2596 H2583 0.960 . S
C2596 C2595 1.524 . S
C2597 C2594 1.403 . S
C2597 C2598 1.392 . S
C2597 C2601 1.495 . S
C2598 C2597 1.392 . S
C2598 C2599 1.385 . S
C2598 C2600 1.478 . S
C2599 H2593 0.930 . S
C2599 C2595 1.400 . S
C2599 C2598 1.385 . S
C2600 C2598 1.478 . S
C2600 C2602 1.381 . S
C2600 C2606 1.383 . S
C2601 C2597 1.495 . S
C2601 H2607 0.959 . S
C2601 H2608 0.961 . S
C2601 H2609 0.960 . S
C2602 C2600 1.381 . S
C2602 C2603 1.394 . S
C2602 H2610 0.930 . S
C2603 C2602 1.394 . S
C2603 C2604 1.383 . S
C2603 H2611 0.929 . S
C2604 C2603 1.383 . S
C2604 C2605 1.377 . S
C2605 H2589 0.930 . S
C2605 C2604 1.377 . S
C2605 C2606 1.379 . S
C2606 H2590 0.931 . S
C2606 C2600 1.383 . S
C2606 C2605 1.379 . S
H2607 C2601 0.959 . S
H2608 C2601 0.961 . S
H2609 C2601 0.960 . S
H2610 C2602 0.930 . S
H2611 C2603 0.929 . S
H2612 C2620 0.929 . S
H2613 C2622 0.930 . S
H2614 C2624 0.930 . S
H2615 C2627 0.929 . S
H2616 C2630 0.930 1_556 S
H2617 C2632 0.960 . S
H2618 C2632 0.960 . S
H2619 C2632 0.960 . S
C2620 H2612 0.929 . S
C2620 C2621 1.377 . S
C2620 C2622 1.384 . S
C2621 C2620 1.377 . S
C2621 C2627 1.390 . S
C2622 H2613 0.930 . S
C2622 C2620 1.384 . S
C2622 C2623 1.372 . S
C2623 C2622 1.372 . S
C2623 C2624 1.400 . S
C2623 C2628 1.490 1_556 S
C2624 H2614 0.930 . S
C2624 C2623 1.400 . S
C2624 C2627 1.386 . S
H2625 C2641 0.930 . S
H2626 C2642 0.931 . S
C2627 H2615 0.929 . S
C2627 C2621 1.390 . S
C2627 C2624 1.386 . S
C2628 C2623 1.490 1_554 S
C2628 C2630 1.395 . S
C2628 C2631 1.403 . S
H2629 C2635 0.930 . S
C2630 H2616 0.930 1_554 S
C2630 C2628 1.395 . S
C2630 C2633 1.403 . S
C2631 C2628 1.403 . S
C2631 C2632 1.524 . S
C2631 C2635 1.400 . S
C2632 H2617 0.960 . S
C2632 H2618 0.960 . S
C2632 H2619 0.960 . S
C2632 C2631 1.524 . S
C2633 C2630 1.403 . S
C2633 C2634 1.392 . S
C2633 C2637 1.495 . S
C2634 C2633 1.392 . S
C2634 C2635 1.385 . S
C2634 C2636 1.478 . S
C2635 H2629 0.930 . S
C2635 C2631 1.400 . S
C2635 C2634 1.385 . S
C2636 C2634 1.478 . S
C2636 C2638 1.381 . S
C2636 C2642 1.383 . S
C2637 C2633 1.495 . S
C2637 H2643 0.959 . S
C2637 H2644 0.961 . S
C2637 H2645 0.960 . S
C2638 C2636 1.381 . S
C2638 C2639 1.394 . S
C2638 H2646 0.930 . S
C2639 C2638 1.394 . S
C2639 C2640 1.383 . S
C2639 H2647 0.929 . S
C2640 C2639 1.383 . S
C2640 C2641 1.377 . S
C2641 H2625 0.930 . S
C2641 C2640 1.377 . S
C2641 C2642 1.379 . S
C2642 H2626 0.931 . S
C2642 C2636 1.383 . S
C2642 C2641 1.379 . S
H2643 C2637 0.959 . S
H2644 C2637 0.961 . S
H2645 C2637 0.960 . S
H2646 C2638 0.930 . S
H2647 C2639 0.929 . S
H2648 C2656 0.929 . S
H2649 C2658 0.930 . S
H2650 C2660 0.930 . S
H2651 C2663 0.929 . S
H2652 C2666 0.930 . S
H2653 C2668 0.960 . S
H2654 C2668 0.960 . S
H2655 C2668 0.960 . S
C2656 H2648 0.929 . S
C2656 C2657 1.377 . S
C2656 C2658 1.384 . S
C2657 C2656 1.377 . S
C2657 C2663 1.390 . S
C2658 H2649 0.930 . S
C2658 C2656 1.384 . S
C2658 C2659 1.372 . S
C2659 C2658 1.372 . S
C2659 C2660 1.400 . S
C2659 C2664 1.490 . S
C2660 H2650 0.930 . S
C2660 C2659 1.400 . S
C2660 C2663 1.386 . S
H2661 C2677 0.930 . S
H2662 C2678 0.931 . S
C2663 H2651 0.929 . S
C2663 C2657 1.390 . S
C2663 C2660 1.386 . S
C2664 C2659 1.490 . S
C2664 C2666 1.395 . S
C2664 C2667 1.403 . S
H2665 C2671 0.930 . S
C2666 H2652 0.930 . S
C2666 C2664 1.395 . S
C2666 C2669 1.403 . S
C2667 C2664 1.403 . S
C2667 C2668 1.524 . S
C2667 C2671 1.400 . S
C2668 H2653 0.960 . S
C2668 H2654 0.960 . S
C2668 H2655 0.960 . S
C2668 C2667 1.524 . S
C2669 C2666 1.403 . S
C2669 C2670 1.392 . S
C2669 C2673 1.495 . S
C2670 C2669 1.392 . S
C2670 C2671 1.385 . S
C2670 C2672 1.478 . S
C2671 H2665 0.930 . S
C2671 C2667 1.400 . S
C2671 C2670 1.385 . S
C2672 C2670 1.478 . S
C2672 C2674 1.381 . S
C2672 C2678 1.383 . S
C2673 C2669 1.495 . S
C2673 H2679 0.959 . S
C2673 H2680 0.961 . S
C2673 H2681 0.960 . S
C2674 C2672 1.381 . S
C2674 C2675 1.394 . S
C2674 H2682 0.930 . S
C2675 C2674 1.394 . S
C2675 C2676 1.383 . S
C2675 H2683 0.929 . S
C2676 C2675 1.383 . S
C2676 C2677 1.377 . S
C2677 H2661 0.930 . S
C2677 C2676 1.377 . S
C2677 C2678 1.379 . S
C2678 H2662 0.931 . S
C2678 C2672 1.383 . S
C2678 C2677 1.379 . S
H2679 C2673 0.959 . S
H2680 C2673 0.961 . S
H2681 C2673 0.960 . S
H2682 C2674 0.930 . S
H2683 C2675 0.929 . S
H2684 C2692 0.929 . S
H2685 C2694 0.930 . S
H2686 C2696 0.930 . S
H2687 C2699 0.929 . S
H2688 C2702 0.930 . S
H2689 C2704 0.960 . S
H2690 C2704 0.960 . S
H2691 C2704 0.960 . S
C2692 H2684 0.929 . S
C2692 C2693 1.377 . S
C2692 C2694 1.384 . S
C2693 C2692 1.377 . S
C2693 C2699 1.390 . S
C2694 H2685 0.930 . S
C2694 C2692 1.384 . S
C2694 C2695 1.372 . S
C2695 C2694 1.372 . S
C2695 C2696 1.400 . S
C2695 C2700 1.490 . S
C2696 H2686 0.930 . S
C2696 C2695 1.400 . S
C2696 C2699 1.386 . S
H2697 C2713 0.930 . S
H2698 C2714 0.931 . S
C2699 H2687 0.929 . S
C2699 C2693 1.390 . S
C2699 C2696 1.386 . S
C2700 C2695 1.490 . S
C2700 C2702 1.395 . S
C2700 C2703 1.403 . S
H2701 C2707 0.930 . S
C2702 H2688 0.930 . S
C2702 C2700 1.395 . S
C2702 C2705 1.403 . S
C2703 C2700 1.403 . S
C2703 C2704 1.524 . S
C2703 C2707 1.400 . S
C2704 H2689 0.960 . S
C2704 H2690 0.960 . S
C2704 H2691 0.960 . S
C2704 C2703 1.524 . S
C2705 C2702 1.403 . S
C2705 C2706 1.392 . S
C2705 C2709 1.495 . S
C2706 C2705 1.392 . S
C2706 C2707 1.385 . S
C2706 C2708 1.478 . S
C2707 H2701 0.930 . S
C2707 C2703 1.400 . S
C2707 C2706 1.385 . S
C2708 C2706 1.478 . S
C2708 C2710 1.381 . S
C2708 C2714 1.383 . S
C2709 C2705 1.495 . S
C2709 H2715 0.959 . S
C2709 H2716 0.961 . S
C2709 H2717 0.960 . S
C2710 C2708 1.381 . S
C2710 C2711 1.394 . S
C2710 H2718 0.930 . S
C2711 C2710 1.394 . S
C2711 C2712 1.383 . S
C2711 H2719 0.929 . S
C2712 C2711 1.383 . S
C2712 C2713 1.377 . S
C2713 H2697 0.930 . S
C2713 C2712 1.377 . S
C2713 C2714 1.379 . S
C2714 H2698 0.931 . S
C2714 C2708 1.383 . S
C2714 C2713 1.379 . S
H2715 C2709 0.959 . S
H2716 C2709 0.961 . S
H2717 C2709 0.960 . S
H2718 C2710 0.930 . S
H2719 C2711 0.929 . S
C425 C91 1.202 . S
C444 C0 1.206 . S
C461 C13 1.202 . S
C480 C52 1.188 . S
C497 C65 1.204 . S
C516 C26 1.184 . S
C533 C39 1.202 . S
C552 C78 1.189 . S
C569 C104 1.200 . S
C588 C195 1.186 . S
C605 C117 1.202 . S
C624 C156 1.213 1_556 S
C641 C130 1.204 . S
C660 C169 1.208 . S
C677 C143 1.200 . S
C696 C182 1.185 . S
C713 C208 1.200 . S
C732 C299 1.196 . S
C749 C221 1.202 . S
C768 C260 1.188 . S
C785 C273 1.203 . S
C804 C234 1.179 1_556 S
C821 C286 1.204 . S
C840 C247 1.185 . S
C857 C312 1.199 . S
C876 C403 1.211 . S
C893 C364 1.199 . S
C912 C325 1.210 . S
C929 C377 1.204 . S
C948 C338 1.190 . S
C965 C351 1.203 . S
C984 C390 1.177 1_556 S
C1001 C8 0.772 . S
C1020 C86 0.813 . S
C1037 C21 0.791 . S
C1056 C99 0.758 . S
C1073 C60 0.779 . S
C1092 C34 0.740 . S
C1109 C47 0.790 . S
C1128 C73 0.797 . S
C1145 C112 0.790 . S
C1164 C190 0.774 . S
C1181 C125 0.785 . S
C1200 C203 0.735 . S
C1217 C164 0.790 . S
C1236 C138 0.772 . S
C1253 C177 0.776 . S
C1272 C151 0.770 . S
C1289 C216 0.780 . S
C1308 C294 0.827 . S
C1325 C307 0.773 . S
C1344 C229 0.781 . S
C1361 C268 0.791 . S
C1380 C242 0.753 . S
C1397 C255 0.785 . S
C1416 C281 0.817 . S
C1433 C320 0.771 . S
C1452 C398 0.814 . S
C1469 C333 0.784 . S
C1488 C411 0.815 . S
C1505 C372 0.782 . S
C1524 C346 0.818 . S
C1541 C385 0.772 . S
C1560 C359 0.796 . S
C1577 C5 1.297 . S
C1596 C395 1.267 . S
C1613 C18 1.298 . S
C1632 C200 1.318 . S
C1649 C31 1.303 . S
C1668 C369 1.277 . S
C1685 C44 1.303 . S
C1704 C174 1.290 . S
C1721 C57 1.300 . S
C1740 C343 1.264 . S
C1757 C70 1.290 . S
C1776 C148 1.310 . S
C1793 C83 1.302 . S
C1812 C317 1.295 . S
C1829 C122 1.301 . S
C1848 C96 1.265 . S
C1865 C291 1.290 . S
C1884 C109 1.306 . S
C1901 C135 1.290 . S
C1920 C265 1.314 . S
C1937 C239 1.292 . S
C1956 C161 1.322 . S
C1973 C213 1.293 . S
C1992 C187 1.323 . S
C2009 C226 1.294 . S
C2028 C408 1.324 . S
C2045 C252 1.303 . S
C2064 C382 1.279 . S
C2081 C278 1.302 . S
C2100 C356 1.267 . S
C2117 C330 1.301 . S
C2136 C304 1.304 . S
C2153 C10 1.587 . S
C2172 C88 1.567 . S
C2189 C23 1.594 . S
C2208 C101 1.606 . S
C2225 C62 1.594 . S
C2244 C36 1.606 . S
C2261 C49 1.591 . S
C2280 C75 1.587 . S
C2297 C114 1.588 . S
C2316 C192 1.604 . S
C2333 C127 1.588 . S
C2352 C205 1.606 . S
C2369 C166 1.592 . S
C2388 C140 1.568 . S
C2405 C153 1.593 . S
C2424 C179 1.573 . S
C2441 C296 1.588 . S
C2460 C218 1.580 . S
C2477 C309 1.593 . S
C2496 C231 1.606 . S
C2513 C270 1.590 . S
C2532 C244 1.592 . S
C2549 C283 1.587 . S
C2568 C257 1.567 . S
C2585 C400 1.586 . S
C2604 C322 1.588 . S
C2621 C413 1.593 . S
C2640 C335 1.591 . S
C2657 C348 1.588 . S
C2676 C374 1.605 . S
C2693 C387 1.591 . S
C2712 C361 1.605 . S
