# Generated by pormake.
# Topology fnq, (5)-cn, num edge types: 1
# Building blocks:
#     Node 0, Type 0, BuildingBlock: BEQFEK_clean_sbu_0, # of connection points: 5
#     Node 1, Type 0, BuildingBlock: BEQFEK_clean_sbu_0, # of connection points: 5
#     Node 2, Type 0, BuildingBlock: BEQFEK_clean_sbu_0, # of connection points: 5
#     Node 3, Type 0, BuildingBlock: BEQFEK_clean_sbu_0, # of connection points: 5
#     Node 4, Type 0, BuildingBlock: BEQFEK_clean_sbu_0, # of connection points: 5
#     Node 5, Type 0, BuildingBlock: BEQFEK_clean_sbu_0, # of connection points: 5
#     Node 6, Type 0, BuildingBlock: BEQFEK_clean_sbu_0, # of connection points: 5
#     Node 7, Type 0, BuildingBlock: BEQFEK_clean_sbu_0, # of connection points: 5
#     Node 8, Type 0, BuildingBlock: BEQFEK_clean_sbu_0, # of connection points: 5
#     Node 9, Type 0, BuildingBlock: BEQFEK_clean_sbu_0, # of connection points: 5
#     Node 10, Type 0, BuildingBlock: BEQFEK_clean_sbu_0, # of connection points: 5
#     Node 11, Type 0, BuildingBlock: BEQFEK_clean_sbu_0, # of connection points: 5
#     Node 12, Type 0, BuildingBlock: BEQFEK_clean_sbu_0, # of connection points: 5
#     Node 13, Type 0, BuildingBlock: BEQFEK_clean_sbu_0, # of connection points: 5
#     Node 14, Type 0, BuildingBlock: BEQFEK_clean_sbu_0, # of connection points: 5
#     Node 15, Type 0, BuildingBlock: BEQFEK_clean_sbu_0, # of connection points: 5
#     Node 16, Type 0, BuildingBlock: BEQFEK_clean_sbu_0, # of connection points: 5
#     Node 17, Type 0, BuildingBlock: BEQFEK_clean_sbu_0, # of connection points: 5
#     Edge 18, Type (0, 0), BuildingBlock: KIFKEQ_clean_linker_1, # of connection points: 2
#     Edge 19, Type (0, 0), BuildingBlock: KIFKEQ_clean_linker_1, # of connection points: 2
#     Edge 20, Type (0, 0), BuildingBlock: KIFKEQ_clean_linker_1, # of connection points: 2
#     Edge 21, Type (0, 0), BuildingBlock: KIFKEQ_clean_linker_1, # of connection points: 2
#     Edge 22, Type (0, 0), BuildingBlock: KIFKEQ_clean_linker_1, # of connection points: 2
#     Edge 23, Type (0, 0), BuildingBlock: KIFKEQ_clean_linker_1, # of connection points: 2
#     Edge 24, Type (0, 0), BuildingBlock: KIFKEQ_clean_linker_1, # of connection points: 2
#     Edge 25, Type (0, 0), BuildingBlock: KIFKEQ_clean_linker_1, # of connection points: 2
#     Edge 26, Type (0, 0), BuildingBlock: KIFKEQ_clean_linker_1, # of connection points: 2
#     Edge 27, Type (0, 0), BuildingBlock: KIFKEQ_clean_linker_1, # of connection points: 2
#     Edge 28, Type (0, 0), BuildingBlock: KIFKEQ_clean_linker_1, # of connection points: 2
#     Edge 29, Type (0, 0), BuildingBlock: KIFKEQ_clean_linker_1, # of connection points: 2
#     Edge 30, Type (0, 0), BuildingBlock: KIFKEQ_clean_linker_1, # of connection points: 2
#     Edge 31, Type (0, 0), BuildingBlock: KIFKEQ_clean_linker_1, # of connection points: 2
#     Edge 32, Type (0, 0), BuildingBlock: KIFKEQ_clean_linker_1, # of connection points: 2
#     Edge 33, Type (0, 0), BuildingBlock: KIFKEQ_clean_linker_1, # of connection points: 2
#     Edge 34, Type (0, 0), BuildingBlock: KIFKEQ_clean_linker_1, # of connection points: 2
#     Edge 35, Type (0, 0), BuildingBlock: KIFKEQ_clean_linker_1, # of connection points: 2
#     Edge 36, Type (0, 0), BuildingBlock: KIFKEQ_clean_linker_1, # of connection points: 2
#     Edge 37, Type (0, 0), BuildingBlock: KIFKEQ_clean_linker_1, # of connection points: 2
#     Edge 38, Type (0, 0), BuildingBlock: KIFKEQ_clean_linker_1, # of connection points: 2
#     Edge 39, Type (0, 0), BuildingBlock: KIFKEQ_clean_linker_1, # of connection points: 2
#     Edge 40, Type (0, 0), BuildingBlock: KIFKEQ_clean_linker_1, # of connection points: 2
#     Edge 41, Type (0, 0), BuildingBlock: KIFKEQ_clean_linker_1, # of connection points: 2
#     Edge 42, Type (0, 0), BuildingBlock: KIFKEQ_clean_linker_1, # of connection points: 2
#     Edge 43, Type (0, 0), BuildingBlock: KIFKEQ_clean_linker_1, # of connection points: 2
#     Edge 44, Type (0, 0), BuildingBlock: KIFKEQ_clean_linker_1, # of connection points: 2
#     Edge 45, Type (0, 0), BuildingBlock: KIFKEQ_clean_linker_1, # of connection points: 2
#     Edge 46, Type (0, 0), BuildingBlock: KIFKEQ_clean_linker_1, # of connection points: 2
#     Edge 47, Type (0, 0), BuildingBlock: KIFKEQ_clean_linker_1, # of connection points: 2
#     Edge 48, Type (0, 0), BuildingBlock: KIFKEQ_clean_linker_1, # of connection points: 2
#     Edge 49, Type (0, 0), BuildingBlock: KIFKEQ_clean_linker_1, # of connection points: 2
#     Edge 50, Type (0, 0), BuildingBlock: KIFKEQ_clean_linker_1, # of connection points: 2
#     Edge 51, Type (0, 0), BuildingBlock: KIFKEQ_clean_linker_1, # of connection points: 2
#     Edge 52, Type (0, 0), BuildingBlock: KIFKEQ_clean_linker_1, # of connection points: 2
#     Edge 53, Type (0, 0), BuildingBlock: KIFKEQ_clean_linker_1, # of connection points: 2
#     Edge 54, Type (0, 0), BuildingBlock: KIFKEQ_clean_linker_1, # of connection points: 2
#     Edge 55, Type (0, 0), BuildingBlock: KIFKEQ_clean_linker_1, # of connection points: 2
#     Edge 56, Type (0, 0), BuildingBlock: KIFKEQ_clean_linker_1, # of connection points: 2
#     Edge 57, Type (0, 0), BuildingBlock: KIFKEQ_clean_linker_1, # of connection points: 2
#     Edge 58, Type (0, 0), BuildingBlock: KIFKEQ_clean_linker_1, # of connection points: 2
#     Edge 59, Type (0, 0), BuildingBlock: KIFKEQ_clean_linker_1, # of connection points: 2
#     Edge 60, Type (0, 0), BuildingBlock: KIFKEQ_clean_linker_1, # of connection points: 2
#     Edge 61, Type (0, 0), BuildingBlock: KIFKEQ_clean_linker_1, # of connection points: 2
#     Edge 62, Type (0, 0), BuildingBlock: KIFKEQ_clean_linker_1, # of connection points: 2
# Relax obj value: 0.367
# Max RMSD: 0.234
# Mean RMSD: 0.218
data_MOF--net-fnq--node1-BEQFEK_clean_sbu_0--edge1-KIFKEQ_clean_linker_1
_symmetry_space_group_name_H-M    P1
_symmetry_Int_Tables_number       1
_symmetry_cell_setting            triclinic
loop_
_symmetry_equiv_pos_as_xyz
'x, y, z'
_cell_length_a     52.803645
_cell_length_b     52.735677
_cell_length_c     37.398535
_cell_angle_alpha  89.947018
_cell_angle_beta   90.093911
_cell_angle_gamma 119.9927
loop_
_atom_site_label
_atom_site_type_symbol
_atom_site_fract_x
_atom_site_fract_y
_atom_site_fract_z
_atom_type_partial_charge
Co0 Co 0.19534 0.37529 0.13613 0.0
Co1 Co 0.18748 0.31429 0.1474 0.0
C2 C 0.24889 0.36938 0.14011 0.0
O3 O 0.23753 0.3851 0.13237 0.0
O4 O 0.23223 0.34196 0.14563 0.0
C5 C 0.21143 0.43265 0.14996 0.0
O6 O 0.22851 0.42877 0.17218 0.0
C7 C 0.19145 0.26647 0.11736 0.0
C8 C 0.16217 0.22834 0.15068 0.0
C9 C 0.17993 0.23668 0.12075 0.0
N10 N 0.18116 0.27567 0.14401 0.0
N11 N 0.16391 0.2529 0.16423 0.0
C12 C 0.21006 0.28559 0.08752 0.0
H13 H 0.20925 0.3062 0.08641 0.0
H14 H 0.20275 0.27386 0.0616 0.0
H15 H 0.233 0.29103 0.09209 0.0
C16 C 0.1443 0.34211 0.08481 0.0
N17 N 0.1663 0.34443 0.10606 0.0
N18 N 0.16257 0.31818 0.11145 0.0
C19 C 0.13787 0.29831 0.09406 0.0
C20 C 0.12508 0.31258 0.07613 0.0
C21 C 0.14109 0.36774 0.07439 0.0
H22 H 0.16295 0.38743 0.07081 0.0
H23 H 0.12828 0.36325 0.04931 0.0
H24 H 0.12963 0.37231 0.09611 0.0
O25 O 0.18459 0.3656 0.18765 0.0
O26 O 0.17609 0.32034 0.19585 0.0
H27 H 0.10128 0.25387 0.09007 0.0
H28 H 0.13713 0.25808 0.08382 0.0
C29 C 0.12437 0.26593 0.09905 0.0
H30 H 0.12506 0.26106 0.12773 0.0
H31 H 0.15248 0.25392 0.18641 0.0
O32 O 0.19496 0.41193 0.12898 0.0
C33 C 0.17755 0.34363 0.20797 0.0
Co34 Co 0.66507 0.82732 0.13841 0.0
Co35 Co 0.7257 0.88091 0.14727 0.0
C36 C 0.66997 0.88654 0.14155 0.0
O37 O 0.65446 0.85929 0.13463 0.0
O38 O 0.69752 0.89764 0.14628 0.0
C39 C 0.6077 0.78604 0.15233 0.0
O40 O 0.61145 0.80691 0.17458 0.0
C41 C 0.77077 0.93305 0.1156 0.0
C42 C 0.81132 0.94202 0.14355 0.0
C43 C 0.80071 0.95163 0.11588 0.0
N44 N 0.7638 0.91351 0.14193 0.0
N45 N 0.78801 0.91908 0.159 0.0
C46 C 0.74943 0.93112 0.08777 0.0
H47 H 0.73013 0.90872 0.08692 0.0
H48 H 0.75984 0.93691 0.06098 0.0
H49 H 0.7419 0.94676 0.09456 0.0
C50 C 0.69714 0.80907 0.08593 0.0
N51 N 0.69518 0.82898 0.10714 0.0
N52 N 0.72144 0.85163 0.11173 0.0
C53 C 0.74097 0.84658 0.09388 0.0
C54 C 0.72645 0.81933 0.07656 0.0
C55 C 0.67188 0.77917 0.07871 0.0
H56 H 0.66507 0.76664 0.10413 0.0
H57 H 0.65306 0.78103 0.06875 0.0
H58 H 0.67758 0.76711 0.05901 0.0
O59 O 0.67616 0.82685 0.18973 0.0
O60 O 0.72127 0.86431 0.19603 0.0
H61 H 0.78101 0.86957 0.12307 0.0
H62 H 0.78517 0.85846 0.07869 0.0
C63 C 0.77333 0.86678 0.09497 0.0
H64 H 0.7785 0.88851 0.08452 0.0
H65 H 0.78877 0.90646 0.18003 0.0
O66 O 0.62857 0.79021 0.13177 0.0
C67 C 0.69862 0.84235 0.20913 0.0
Co68 Co 0.21141 0.84646 0.13965 0.0
Co69 Co 0.15734 0.85305 0.1453 0.0
C70 C 0.15285 0.79197 0.14118 0.0
O71 O 0.18015 0.80379 0.13483 0.0
O72 O 0.14155 0.80831 0.14519 0.0
C73 C 0.25209 0.83203 0.1613 0.0
O74 O 0.22956 0.8148 0.18139 0.0
C75 C 0.11101 0.85141 0.1044 0.0
C76 C 0.09337 0.87351 0.13781 0.0
C77 C 0.09138 0.86153 0.10422 0.0
N78 N 0.12469 0.85786 0.13604 0.0
N79 N 0.11389 0.87076 0.15624 0.0
C80 C 0.11726 0.83619 0.0748 0.0
H81 H 0.12575 0.82235 0.08575 0.0
H82 H 0.13426 0.8527 0.05693 0.0
H83 H 0.09726 0.82255 0.05875 0.0
C84 C 0.23127 0.89725 0.08757 0.0
N85 N 0.21065 0.87496 0.10765 0.0
N86 N 0.18803 0.87872 0.11143 0.0
C87 C 0.19385 0.90391 0.09436 0.0
C88 C 0.22154 0.91679 0.07815 0.0
C89 C 0.26137 0.90193 0.08218 0.0
H90 H 0.25988 0.88133 0.07254 0.0
H91 H 0.27415 0.91991 0.06299 0.0
H92 H 0.27296 0.9074 0.10827 0.0
O93 O 0.20944 0.85797 0.19 0.0
O94 O 0.17189 0.86556 0.19487 0.0
H95 H 0.16569 0.91523 0.12292 0.0
H96 H 0.18461 0.93935 0.08582 0.0
C97 C 0.17389 0.91643 0.09533 0.0
H98 H 0.15495 0.90341 0.0776 0.0
H99 H 0.1212 0.87858 0.18202 0.0
O100 O 0.2492 0.84794 0.13794 0.0
C101 C 0.19371 0.86499 0.20868 0.0
Co102 Co 0.38222 0.18605 0.88142 0.0
Co103 Co 0.32145 0.17909 0.87447 0.0
C104 C 0.37756 0.24027 0.8799 0.0
O105 O 0.39315 0.22856 0.88632 0.0
O106 O 0.34999 0.22383 0.87549 0.0
C107 C 0.43896 0.20133 0.86429 0.0
O108 O 0.43474 0.21827 0.8422 0.0
C109 C 0.27619 0.17883 0.91581 0.0
C110 C 0.23757 0.16108 0.88041 0.0
C111 C 0.24681 0.17029 0.91515 0.0
N112 N 0.2839 0.17417 0.88347 0.0
N113 N 0.26084 0.16373 0.86215 0.0
C114 C 0.29715 0.19186 0.94644 0.0
H115 H 0.31995 0.20448 0.93655 0.0
H116 H 0.29549 0.1741 0.96393 0.0
H117 H 0.2919 0.20627 0.96262 0.0
C118 C 0.35094 0.13527 0.93353 0.0
N119 N 0.35263 0.1573 0.91281 0.0
N120 N 0.32626 0.15341 0.90848 0.0
C121 C 0.30689 0.12839 0.92579 0.0
C122 C 0.32167 0.11583 0.94292 0.0
C123 C 0.37683 0.13215 0.94261 0.0
H124 H 0.3966 0.15406 0.94549 0.0
H125 H 0.37306 0.11952 0.96772 0.0
H126 H 0.38071 0.12044 0.92055 0.0
O127 O 0.36979 0.17503 0.83039 0.0
O128 O 0.32454 0.16723 0.82484 0.0
H129 H 0.26897 0.11922 0.89464 0.0
H130 H 0.2639 0.08986 0.92389 0.0
C131 C 0.27441 0.114 0.92126 0.0
H132 H 0.26534 0.12206 0.9422 0.0
H133 H 0.26081 0.15785 0.83551 0.0
O134 O 0.4187 0.18508 0.88585 0.0
C135 C 0.34719 0.16817 0.81129 0.0
Co136 Co 0.85508 0.20376 0.88263 0.0
Co137 Co 0.86209 0.15006 0.87311 0.0
C138 C 0.80096 0.14447 0.87863 0.0
O139 O 0.81265 0.17163 0.88598 0.0
O140 O 0.81736 0.13336 0.87374 0.0
C141 C 0.83821 0.2446 0.86982 0.0
O142 O 0.82115 0.22378 0.84746 0.0
C143 C 0.85432 0.09687 0.90266 0.0
C144 C 0.88708 0.08922 0.87562 0.0
C145 C 0.86594 0.07849 0.90215 0.0
N146 N 0.86764 0.11737 0.87752 0.0
N147 N 0.88697 0.11258 0.86096 0.0
C148 C 0.83407 0.09775 0.93 0.0
H149 H 0.83731 0.12017 0.93212 0.0
H150 H 0.83767 0.09071 0.95659 0.0
H151 H 0.81115 0.08261 0.92172 0.0
C152 C 0.90604 0.22202 0.93382 0.0
N153 N 0.88366 0.2019 0.91338 0.0
N154 N 0.88682 0.17892 0.90919 0.0
C155 C 0.91133 0.18373 0.92704 0.0
C156 C 0.92481 0.21141 0.94342 0.0
C157 C 0.91143 0.2524 0.93959 0.0
H158 H 0.91191 0.26245 0.91333 0.0
H159 H 0.89302 0.25131 0.95512 0.0
H160 H 0.93229 0.26639 0.95385 0.0
O161 O 0.86668 0.20485 0.83154 0.0
O162 O 0.8744 0.16744 0.82466 0.0
H163 H 0.92966 0.16099 0.89998 0.0
H164 H 0.94085 0.16931 0.94627 0.0
C165 C 0.92244 0.1626 0.92729 0.0
H166 H 0.90458 0.14067 0.93527 0.0
H167 H 0.901 0.12602 0.84091 0.0
O168 O 0.85523 0.24057 0.89005 0.0
C169 C 0.87374 0.18957 0.81195 0.0
Co170 Co 0.8326 0.65839 0.87755 0.0
Co171 Co 0.88743 0.71878 0.87179 0.0
C172 C 0.8921 0.66284 0.87651 0.0
O173 O 0.86447 0.64774 0.88073 0.0
O174 O 0.90434 0.69073 0.87413 0.0
C175 C 0.79296 0.60267 0.85802 0.0
O176 O 0.81567 0.60845 0.83803 0.0
C177 C 0.94069 0.76605 0.90059 0.0
C178 C 0.9452 0.80522 0.87306 0.0
C179 C 0.95755 0.7962 0.89924 0.0
N180 N 0.91933 0.75743 0.87626 0.0
N181 N 0.92232 0.78083 0.8594 0.0
C182 C 0.94247 0.74598 0.92751 0.0
H183 H 0.9206 0.72641 0.93166 0.0
H184 H 0.95115 0.75737 0.9534 0.0
H185 H 0.9575 0.73864 0.91735 0.0
C186 C 0.81401 0.69012 0.93015 0.0
N187 N 0.83418 0.68813 0.90955 0.0
N188 N 0.85745 0.71423 0.90659 0.0
C189 C 0.85261 0.73364 0.92514 0.0
C190 C 0.82479 0.71927 0.94095 0.0
C191 C 0.78359 0.6652 0.93536 0.0
H192 H 0.77238 0.65875 0.90904 0.0
H193 H 0.78449 0.64603 0.94606 0.0
H194 H 0.77085 0.67108 0.95371 0.0
O195 O 0.83293 0.67045 0.82706 0.0
O196 O 0.87193 0.71458 0.82212 0.0
H197 H 0.87579 0.77525 0.89934 0.0
H198 H 0.86649 0.77716 0.94537 0.0
C199 C 0.87369 0.76585 0.92644 0.0
H200 H 0.89544 0.76974 0.93496 0.0
H201 H 0.90796 0.78027 0.83979 0.0
O202 O 0.79527 0.62158 0.88088 0.0
C203 C 0.8496 0.69277 0.80827 0.0
Co204 Co 0.86203 0.70859 0.46924 0.0
Co205 Co 0.85508 0.64778 0.47732 0.0
C206 C 0.91613 0.70394 0.47184 0.0
O207 O 0.90449 0.7195 0.46476 0.0
O208 O 0.89968 0.6764 0.47663 0.0
C209 C 0.87723 0.76559 0.48505 0.0
O210 O 0.89428 0.76173 0.50734 0.0
C211 C 0.85641 0.60252 0.43756 0.0
C212 C 0.83482 0.56314 0.4717 0.0
C213 C 0.84647 0.57279 0.4379 0.0
N214 N 0.85018 0.61008 0.46909 0.0
N215 N 0.83758 0.58659 0.48973 0.0
C216 C 0.87117 0.62365 0.40748 0.0
H217 H 0.88489 0.64617 0.4179 0.0
H218 H 0.85442 0.62368 0.38959 0.0
H219 H 0.88483 0.61725 0.39157 0.0
C220 C 0.81091 0.67671 0.41815 0.0
N221 N 0.83329 0.67862 0.43829 0.0
N222 N 0.82938 0.65226 0.44308 0.0
C223 C 0.804 0.63263 0.42665 0.0
C224 C 0.79116 0.64728 0.4098 0.0
C225 C 0.8064 0.70217 0.4117 0.0
H226 H 0.80224 0.70962 0.43765 0.0
H227 H 0.82665 0.72062 0.40034 0.0
H228 H 0.78771 0.69644 0.39348 0.0
O229 O 0.85095 0.69667 0.52029 0.0
O230 O 0.8431 0.65138 0.52659 0.0
H231 H 0.79274 0.59376 0.45674 0.0
H232 H 0.76828 0.58788 0.41976 0.0
C233 C 0.79128 0.60013 0.42888 0.0
H234 H 0.80396 0.59362 0.41145 0.0
H235 H 0.82998 0.58634 0.51554 0.0
O236 O 0.86099 0.745 0.4638 0.0
C237 C 0.84401 0.67419 0.53968 0.0
Co238 Co 0.3323 0.15995 0.47204 0.0
Co239 Co 0.39265 0.21458 0.47969 0.0
C240 C 0.33719 0.21979 0.47455 0.0
O241 O 0.32205 0.19217 0.46991 0.0
O242 O 0.36502 0.23193 0.47711 0.0
C243 C 0.27502 0.11936 0.48603 0.0
O244 O 0.27945 0.14037 0.50844 0.0
C245 C 0.44064 0.26803 0.45242 0.0
C246 C 0.47919 0.27164 0.48046 0.0
C247 C 0.47077 0.28451 0.45426 0.0
N248 N 0.43147 0.2464 0.47648 0.0
N249 N 0.45451 0.24887 0.49367 0.0
C250 C 0.4211 0.27037 0.42517 0.0
H251 H 0.40153 0.24859 0.42039 0.0
H252 H 0.43289 0.27937 0.39961 0.0
H253 H 0.41376 0.28537 0.43542 0.0
C254 C 0.36456 0.14205 0.41962 0.0
N255 N 0.36247 0.16203 0.44055 0.0
N256 N 0.38856 0.18516 0.44427 0.0
C257 C 0.40808 0.18039 0.42591 0.0
C258 C 0.39377 0.15279 0.4094 0.0
C259 C 0.33961 0.11177 0.41346 0.0
H260 H 0.33197 0.10046 0.43958 0.0
H261 H 0.32111 0.11306 0.40127 0.0
H262 H 0.34591 0.09888 0.39593 0.0
O263 O 0.34307 0.15876 0.52293 0.0
O264 O 0.38709 0.19789 0.52893 0.0
H265 H 0.44922 0.20295 0.45282 0.0
H266 H 0.45178 0.19406 0.40679 0.0
C267 C 0.44032 0.20125 0.4255 0.0
H268 H 0.44457 0.22321 0.41722 0.0
H269 H 0.45351 0.23418 0.51309 0.0
O270 O 0.29552 0.12314 0.46503 0.0
C271 C 0.36516 0.17532 0.54223 0.0
Co272 Co 0.87887 0.18084 0.47395 0.0
Co273 Co 0.82529 0.18798 0.48193 0.0
C274 C 0.81994 0.12663 0.47667 0.0
O275 O 0.84714 0.1383 0.46974 0.0
O276 O 0.80887 0.14311 0.48137 0.0
C277 C 0.91955 0.16533 0.49208 0.0
O278 O 0.89743 0.1478 0.51253 0.0
C279 C 0.77319 0.18036 0.44946 0.0
C280 C 0.76376 0.21188 0.47671 0.0
C281 C 0.75438 0.19145 0.44933 0.0
N282 N 0.79265 0.19329 0.47577 0.0
N283 N 0.78682 0.2119 0.49241 0.0
C284 C 0.77531 0.16077 0.4221 0.0
H285 H 0.79781 0.16418 0.42131 0.0
H286 H 0.76925 0.16492 0.39518 0.0
H287 H 0.75999 0.13762 0.42937 0.0
C288 C 0.8975 0.23119 0.42136 0.0
N289 N 0.87746 0.20926 0.44236 0.0
N290 N 0.85479 0.21288 0.44657 0.0
C291 C 0.85991 0.23748 0.42862 0.0
C292 C 0.88727 0.25026 0.41171 0.0
C293 C 0.92749 0.23594 0.41482 0.0
H294 H 0.93996 0.24241 0.4403 0.0
H295 H 0.9259 0.21511 0.40596 0.0
H296 H 0.93943 0.25326 0.39456 0.0
O297 O 0.87856 0.19243 0.52479 0.0
O298 O 0.8414 0.20048 0.53083 0.0
H299 H 0.83686 0.25474 0.45717 0.0
H300 H 0.84782 0.26956 0.41255 0.0
C301 C 0.83963 0.24957 0.42921 0.0
H302 H 0.81793 0.23285 0.41892 0.0
H303 H 0.7993 0.22548 0.51337 0.0
O304 O 0.9163 0.18182 0.46996 0.0
C305 C 0.86326 0.19967 0.54402 0.0
Co306 Co 0.04899 0.51866 0.2156 0.0
Co307 Co 0.98813 0.51127 0.20599 0.0
C308 C 0.04338 0.57269 0.21211 0.0
O309 O 0.05902 0.56108 0.21902 0.0
O310 O 1.01584 0.55618 0.20738 0.0
C311 C 0.10613 0.53482 0.20131 0.0
O312 O 0.10194 0.55168 0.17906 0.0
C313 C 0.94075 0.51724 0.23374 0.0
C314 C 0.90172 0.48265 0.20606 0.0
C315 C 0.91065 0.50397 0.23228 0.0
N316 N 0.94945 0.50458 0.20944 0.0
N317 N 0.92612 0.4842 0.19248 0.0
C318 C 0.96071 0.53896 0.26084 0.0
H319 H 0.9803 0.53668 0.26498 0.0
H320 H 0.94927 0.53605 0.28669 0.0
H321 H 0.96797 0.56139 0.25085 0.0
C322 C 1.01662 0.46811 0.26769 0.0
N323 N 1.01863 0.49004 0.2465 0.0
N324 N 0.99239 0.48649 0.24193 0.0
C325 C 0.97285 0.46198 0.25994 0.0
C326 C 0.9873 0.44913 0.27712 0.0
C327 C 0.04183 0.46337 0.27474 0.0
H328 H 0.04926 0.45877 0.24906 0.0
H329 H 0.06034 0.48372 0.28589 0.0
H330 H 0.03586 0.44489 0.29343 0.0
O331 O 0.03859 0.50723 0.1643 0.0
O332 O 0.99354 0.49949 0.1574 0.0
H333 H 0.93224 0.4431 0.23177 0.0
H334 H 0.92891 0.43111 0.2777 0.0
C335 C 0.94052 0.45003 0.25937 0.0
H336 H 0.93571 0.46736 0.26757 0.0
H337 H 0.92673 0.47039 0.17295 0.0
O338 O 0.08565 0.51834 0.2225 0.0
C339 C 1.01631 0.50031 0.14461 0.0
Co340 Co 0.52071 0.53766 0.21691 0.0
Co341 Co 0.52808 0.48402 0.20958 0.0
C342 C 0.46685 0.47862 0.21447 0.0
O343 O 0.47838 0.50586 0.22123 0.0
O344 O 0.48338 0.46758 0.21012 0.0
C345 C 0.50477 0.57871 0.20021 0.0
O346 O 0.48795 0.55751 0.17813 0.0
C347 C 0.5288 0.43899 0.25049 0.0
C348 C 0.54728 0.41888 0.21506 0.0
C349 C 0.53789 0.41854 0.24976 0.0
N350 N 0.53335 0.45152 0.21823 0.0
N351 N 0.54421 0.43935 0.19689 0.0
C352 C 0.51548 0.44649 0.28114 0.0
H353 H 0.50249 0.45631 0.27125 0.0
H354 H 0.53307 0.46278 0.29862 0.0
H355 H 0.5014 0.4267 0.29731 0.0
C356 C 0.57144 0.55714 0.26886 0.0
N357 N 0.54939 0.53673 0.2483 0.0
N358 N 0.55344 0.51434 0.24384 0.0
C359 C 0.57857 0.5201 0.26093 0.0
C360 C 0.59103 0.54744 0.27801 0.0
C361 C 0.57453 0.58618 0.27782 0.0
H362 H 0.55263 0.58395 0.28112 0.0
H363 H 0.58748 0.59525 0.30267 0.0
H364 H 0.58583 0.60164 0.2555 0.0
O365 O 0.5321 0.53679 0.16604 0.0
O366 O 0.54014 0.49946 0.1603 0.0
H367 H 0.61728 0.51598 0.25878 0.0
H368 H 0.58525 0.48491 0.27679 0.0
C369 C 0.5932 0.50225 0.25607 0.0
H370 H 0.58808 0.49185 0.22932 0.0
H371 H 0.55016 0.44546 0.17032 0.0
O372 O 0.52124 0.57488 0.22166 0.0
C373 C 0.5392 0.52127 0.14693 0.0
Co374 Co 0.50117 0.99229 0.21113 0.0
Co375 Co 0.55509 0.05285 0.20432 0.0
C376 C 0.56017 0.99677 0.20934 0.0
O377 O 0.53282 0.98131 0.21545 0.0
O378 O 0.57153 0.02444 0.20523 0.0
C379 C 0.4532 0.9367 0.23914 0.0
O380 O 0.46588 0.94189 0.27062 0.0
C381 C 0.60754 0.0976 0.23624 0.0
C382 C 0.61642 0.13843 0.20897 0.0
C383 C 0.62623 0.12755 0.2361 0.0
N384 N 0.58772 0.09088 0.21031 0.0
N385 N 0.59324 0.11524 0.19365 0.0
C386 C 0.60592 0.07602 0.26352 0.0
H387 H 0.58344 0.05691 0.26486 0.0
H388 H 0.61245 0.08635 0.29032 0.0
H389 H 0.62111 0.06818 0.25574 0.0
C390 C 0.4821 0.02434 0.26346 0.0
N391 N 0.50217 0.0221 0.24285 0.0
N392 N 0.52531 0.04824 0.23936 0.0
C393 C 0.52053 0.06785 0.25753 0.0
C394 C 0.4929 0.05359 0.27377 0.0
C395 C 0.45167 0.99964 0.26945 0.0
H396 H 0.44265 0.98748 0.24411 0.0
H397 H 0.45229 0.98429 0.28927 0.0
H398 H 0.43715 1.00758 0.27964 0.0
O399 O 0.50186 1.00433 0.16027 0.0
O400 O 0.53946 0.04942 0.15512 0.0
H401 H 0.54445 0.10872 0.23022 0.0
H402 H 0.53369 0.11191 0.27516 0.0
C403 C 0.54147 0.10011 0.25789 0.0
H404 H 0.56296 0.10432 0.26799 0.0
H405 H 0.58048 0.1162 0.17293 0.0
O406 O 0.4642 0.95537 0.21415 0.0
C407 C 0.51764 0.027 0.14141 0.0
Co408 Co 0.52884 0.04188 0.80218 0.0
Co409 Co 0.52092 0.98078 0.81155 0.0
C410 C 0.58247 0.03624 0.80587 0.0
O411 O 0.57112 0.05202 0.79847 0.0
O412 O 0.56576 1.00874 0.81082 0.0
C413 C 0.54475 0.09932 0.81691 0.0
O414 O 0.56172 0.09556 0.83943 0.0
C415 C 0.5199 0.93342 0.77381 0.0
C416 C 0.4973 0.89525 0.80972 0.0
C417 C 0.50859 0.90338 0.77546 0.0
N418 N 0.51469 0.94241 0.80497 0.0
N419 N 0.50143 0.91965 0.82662 0.0
C420 C 0.53563 0.95381 0.74343 0.0
H421 H 0.55 0.97635 0.75346 0.0
H422 H 0.51945 0.95445 0.72505 0.0
H423 H 0.54888 0.94645 0.72834 0.0
C424 C 0.47829 1.01002 0.74997 0.0
N425 N 0.50012 1.01182 0.77114 0.0
N426 N 0.49588 0.98538 0.77644 0.0
C427 C 0.4708 0.96586 0.75938 0.0
C428 C 0.45856 0.98058 0.74137 0.0
C429 C 0.47568 0.03601 0.73967 0.0
H430 H 0.49772 0.05553 0.73654 0.0
H431 H 0.46322 0.03191 0.71436 0.0
H432 H 0.46409 0.0406 0.76121 0.0
O433 O 0.51733 0.03067 0.85338 0.0
O434 O 0.50891 0.98526 0.86029 0.0
H435 H 0.46027 0.92861 0.79254 0.0
H436 H 0.43204 0.92291 0.76121 0.0
C437 C 0.45603 0.93344 0.76508 0.0
H438 H 0.46474 0.92382 0.74567 0.0
H439 H 0.49433 0.92056 0.85236 0.0
O440 O 0.52841 0.07855 0.79594 0.0
C441 C 0.51003 1.00824 0.87303 0.0
Co442 Co 0.9983 0.49315 0.80683 0.0
Co443 Co 0.05834 0.5482 0.81267 0.0
C444 C 1.00192 0.55215 0.80883 0.0
O445 O 0.98691 0.52453 0.80427 0.0
O446 O 0.02975 0.5644 0.81122 0.0
C447 C 0.94164 0.45178 0.82339 0.0
O448 O 0.94608 0.47284 0.84573 0.0
C449 C 0.10219 0.59889 0.77743 0.0
C450 C 0.14309 0.61178 0.80706 0.0
C451 C 0.13186 0.61868 0.77746 0.0
N452 N 0.09595 0.5812 0.80567 0.0
N453 N 0.12035 0.5891 0.8237 0.0
C454 C 0.08044 0.59449 0.74887 0.0
H455 H 0.06147 0.5719 0.74987 0.0
H456 H 0.09073 0.59875 0.72203 0.0
H457 H 0.07239 0.61006 0.75325 0.0
C458 C 0.03007 0.4751 0.75374 0.0
N459 N 0.02795 0.49512 0.77453 0.0
N460 N 0.05395 0.51839 0.77774 0.0
C461 C 0.0735 0.51376 0.75928 0.0
C462 C 0.05924 0.48598 0.74298 0.0
C463 C 1.00471 0.44542 0.74579 0.0
H464 H 1.00182 0.43046 0.76827 0.0
H465 H 0.98441 0.44663 0.74324 0.0
H466 H 1.00839 0.4364 0.72079 0.0
O467 O 1.01093 0.49346 0.85724 0.0
O468 O 0.05512 0.53264 0.86217 0.0
H469 H 0.1121 0.54075 0.78975 0.0
H470 H 0.11816 0.52297 0.75246 0.0
C471 C 0.10589 0.53373 0.76166 0.0
H472 H 0.11219 0.55347 0.74511 0.0
H473 H 0.12167 0.57832 0.84644 0.0
O474 O 0.96185 0.45577 0.80178 0.0
C475 C 0.03344 0.51007 0.87594 0.0
Co476 Co 0.5464 0.51377 0.80856 0.0
Co477 Co 0.49278 0.52095 0.81588 0.0
C478 C 0.48664 0.45971 0.81042 0.0
O479 O 0.51402 0.47148 0.80457 0.0
O480 O 0.47538 0.47608 0.81445 0.0
C481 C 0.59354 0.5055 0.7788 0.0
O482 O 0.58132 0.49967 0.74702 0.0
C483 C 0.43905 0.51488 0.78873 0.0
C484 C 0.43582 0.55058 0.81531 0.0
C485 C 0.42257 0.52858 0.79003 0.0
N486 N 0.46102 0.528 0.81221 0.0
N487 N 0.45879 0.54903 0.82856 0.0
C488 C 0.4365 0.49246 0.76222 0.0
H489 H 0.45821 0.49458 0.75745 0.0
H490 H 0.4273 0.49475 0.7365 0.0
H491 H 0.42162 0.47031 0.77314 0.0
C492 C 0.56597 0.56558 0.75731 0.0
N493 N 0.54565 0.54301 0.77741 0.0
N494 N 0.52231 0.54571 0.78027 0.0
C495 C 0.52702 0.56991 0.76166 0.0
C496 C 0.55504 0.5838 0.74637 0.0
C497 C 0.5967 0.57183 0.75267 0.0
H498 H 0.60437 0.5663 0.77752 0.0
H499 H 0.59727 0.55798 0.73073 0.0
H500 H 0.61171 0.59515 0.74587 0.0
O501 O 0.54681 0.52507 0.85942 0.0
O502 O 0.50933 0.53261 0.86496 0.0
H503 H 0.50391 0.58923 0.78538 0.0
H504 H 0.51139 0.59719 0.73829 0.0
C505 C 0.50529 0.58017 0.75918 0.0
H506 H 0.48349 0.56148 0.75248 0.0
H507 H 0.47375 0.56323 0.8474 0.0
O508 O 0.58264 0.51263 0.8044 0.0
C509 C 0.53116 0.53193 0.87847 0.0
Co510 Co 0.71548 0.85285 0.5483 0.0
Co511 Co 0.65462 0.84548 0.54026 0.0
C512 C 0.71034 0.90693 0.54571 0.0
O513 O 0.72597 0.8953 0.55241 0.0
O514 O 0.68278 0.89041 0.54115 0.0
C515 C 0.77257 0.86869 0.5325 0.0
O516 O 0.76847 0.88557 0.5102 0.0
C517 C 0.60776 0.84468 0.57886 0.0
C518 C 0.56933 0.82211 0.54334 0.0
C519 C 0.57775 0.83342 0.57758 0.0
N520 N 0.61644 0.83942 0.54751 0.0
N521 N 0.59352 0.82617 0.5261 0.0
C522 C 0.62842 0.86042 0.60903 0.0
H523 H 0.65087 0.87468 0.59877 0.0
H524 H 0.62909 0.8442 0.62734 0.0
H525 H 0.62131 0.87382 0.62427 0.0
C526 C 0.68407 0.8025 0.60105 0.0
N527 N 0.68576 0.82427 0.57981 0.0
N528 N 0.65937 0.82018 0.57498 0.0
C529 C 0.63996 0.7952 0.59233 0.0
C530 C 0.65473 0.7829 0.61015 0.0
C531 C 0.71009 0.79989 0.61109 0.0
H532 H 0.71417 0.78773 0.58981 0.0
H533 H 0.72973 0.82195 0.61344 0.0
H534 H 0.70635 0.78796 0.63676 0.0
O535 O 0.70362 0.84128 0.49715 0.0
O536 O 0.65842 0.83345 0.49118 0.0
H537 H 0.60246 0.78489 0.55981 0.0
H538 H 0.59697 0.75654 0.59085 0.0
C539 C 0.60754 0.78058 0.58711 0.0
H540 H 0.59821 0.78934 0.60685 0.0
H541 H 0.59419 0.81903 0.50029 0.0
O542 O 0.7521 0.8523 0.55374 0.0
C543 C 0.68105 0.83424 0.47791 0.0
Co544 Co 0.18848 0.87224 0.54775 0.0
Co545 Co 0.19577 0.81869 0.53805 0.0
C546 C 0.13459 0.81278 0.5442 0.0
O547 O 0.14619 0.83994 0.55157 0.0
O548 O 0.15106 0.80179 0.53907 0.0
C549 C 0.17128 0.91272 0.53467 0.0
O550 O 0.15426 0.89167 0.51254 0.0
C551 C 0.18813 0.76492 0.56593 0.0
C552 C 0.22186 0.75866 0.53909 0.0
C553 C 0.20014 0.7469 0.56486 0.0
N554 N 0.20176 0.78621 0.54176 0.0
N555 N 0.22168 0.78226 0.52531 0.0
C556 C 0.16699 0.76452 0.5929 0.0
H557 H 0.17021 0.78683 0.59648 0.0
H558 H 0.16965 0.75616 0.61906 0.0
H559 H 0.14437 0.74987 0.58322 0.0
C560 C 0.23981 0.89077 0.59851 0.0
N561 N 0.2174 0.87061 0.57815 0.0
N562 N 0.2205 0.84758 0.57409 0.0
C563 C 0.24496 0.85236 0.59205 0.0
C564 C 0.25852 0.88011 0.60826 0.0
C565 C 0.24525 0.92117 0.60419 0.0
H566 H 0.22764 0.92023 0.62127 0.0
H567 H 0.26678 0.93554 0.61688 0.0
H568 H 0.24428 0.9307 0.5781 0.0
O569 O 0.19954 0.87321 0.49649 0.0
O570 O 0.20762 0.83605 0.48955 0.0
H571 H 0.26396 0.82991 0.5658 0.0
H572 H 0.27361 0.83733 0.6126 0.0
C573 C 0.25584 0.83106 0.59275 0.0
H574 H 0.23766 0.80903 0.59979 0.0
H575 H 0.23601 0.79638 0.50595 0.0
O576 O 0.18841 0.90897 0.55505 0.0
C577 C 0.20656 0.85795 0.47681 0.0
Co578 Co 0.1688 0.32714 0.54421 0.0
Co579 Co 0.22406 0.38707 0.54098 0.0
C580 C 0.22714 0.32994 0.5438 0.0
O581 O 0.19949 0.31503 0.54782 0.0
O582 O 0.23956 0.35784 0.54195 0.0
C583 C 0.12053 0.2709 0.56881 0.0
O584 O 0.1335 0.27464 0.59991 0.0
C585 C 0.27007 0.43109 0.58302 0.0
C586 C 0.28879 0.47114 0.54998 0.0
C587 C 0.29005 0.46076 0.58363 0.0
N588 N 0.25688 0.42428 0.55106 0.0
N589 N 0.26833 0.44817 0.53109 0.0
C590 C 0.26309 0.40927 0.61247 0.0
H591 H 0.25449 0.38699 0.60133 0.0
H592 H 0.24596 0.40886 0.62997 0.0
H593 H 0.2828 0.41525 0.62895 0.0
C594 C 0.14911 0.35822 0.59666 0.0
N595 N 0.16969 0.35616 0.57694 0.0
N596 N 0.19288 0.38231 0.57405 0.0
C597 C 0.18746 0.40189 0.59128 0.0
C598 C 0.15951 0.38745 0.6068 0.0
C599 C 0.11857 0.33339 0.60152 0.0
H600 H 0.10968 0.3226 0.5754 0.0
H601 H 0.11896 0.31695 0.61968 0.0
H602 H 0.10405 0.34087 0.61296 0.0
O603 O 0.17125 0.34134 0.49433 0.0
O604 O 0.21048 0.38561 0.49071 0.0
H605 H 0.217 0.4415 0.56374 0.0
H606 H 0.19737 0.44674 0.59986 0.0
C607 C 0.20799 0.4343 0.59098 0.0
H608 H 0.22631 0.43966 0.60957 0.0
H609 H 0.26153 0.44901 0.50512 0.0
O610 O 0.13139 0.29065 0.54502 0.0
C611 C 0.18818 0.36409 0.47622 0.0
H612 H 0.20774 0.18977 0.91565 0.0
H613 H 0.24541 0.1505 0.98269 0.0
H614 H 0.18556 0.19831 0.96851 0.0
H615 H 0.22385 0.15947 0.03536 0.0
H616 H 0.22888 0.23384 0.11065 0.0
H617 H 0.23903 0.20984 0.0614 0.0
H618 H 0.15069 0.17528 0.0226 0.0
H619 H 0.14054 0.19916 0.07262 0.0
C620 C 0.21075 0.18246 0.94158 0.0
C621 C 0.22909 0.1705 0.94543 0.0
C622 C 0.19804 0.18724 0.97174 0.0
C623 C 0.20348 0.17999 1.00601 0.0
C624 C 0.21981 0.16577 1.00931 0.0
C625 C 0.23234 0.1609 0.97925 0.0
C626 C 0.21146 0.22032 0.09218 0.0
C627 C 0.18391 0.21782 0.09539 0.0
C628 C 0.21718 0.20661 0.06406 0.0
C629 C 0.19558 0.19065 0.0383 0.0
C630 C 0.16765 0.18744 0.04217 0.0
C631 C 0.16179 0.2008 0.07078 0.0
H632 H 0.84691 0.95752 0.07663 0.0
H633 H 0.79165 0.99507 0.09348 0.0
H634 H 0.86653 0.9871 0.02203 0.0
H635 H 0.81093 0.02428 0.03934 0.0
H636 H 0.81324 0.03358 0.92101 0.0
H637 H 0.80196 1.00364 0.97476 0.0
H638 H 0.89414 0.04267 0.99785 0.0
H639 H 0.90545 0.0729 0.94362 0.0
C640 C 0.83965 0.97272 0.06915 0.0
C641 C 0.81753 0.97386 0.08866 0.0
C642 C 0.85069 0.98942 0.03796 0.0
C643 C 0.83959 1.00726 0.02618 0.0
C644 C 0.81926 1.01008 0.04746 0.0
C645 C 0.80837 0.99356 0.07845 0.0
C646 C 0.83107 0.03523 0.93714 0.0
C647 C 0.86011 0.05566 0.9287 0.0
C648 C 0.82466 0.01831 0.96792 0.0
C649 C 0.84721 0.0215 0.99076 0.0
C650 C 0.87644 0.04003 0.98068 0.0
C651 C 0.88288 0.05711 0.94969 0.0
H652 H 0.03366 0.8455 0.10343 0.0
H653 H 0.11008 0.87878 0.03624 0.0
H654 H 1.00322 0.8375 0.05028 0.0
H655 H 0.07984 0.87041 0.98337 0.0
H656 H 1.00747 0.79542 0.91133 0.0
H657 H 0.04219 0.81948 0.96005 0.0
H658 H 0.99361 0.86114 0.99395 0.0
H659 H 0.95898 0.8372 0.94445 0.0
C660 C 0.04395 0.85163 0.07739 0.0
C661 C 0.0739 0.86168 0.07361 0.0
C662 C 0.02664 0.8472 0.04708 0.0
C663 C 0.03923 0.85292 0.0128 0.0
C664 C 0.06959 0.86535 1.00948 0.0
C665 C 0.0868 0.86986 0.03966 0.0
C666 C 1.00477 0.81036 0.92866 0.0
C667 C 0.98089 0.81473 0.92434 0.0
C668 C 0.02457 0.82415 0.95642 0.0
C669 C 1.02051 0.84215 0.98067 0.0
C670 C 0.99714 0.84735 0.97555 0.0
C671 C 0.97757 0.83392 0.94724 0.0
H672 H 0.81287 0.76207 0.91781 0.0
H673 H 0.80098 0.70753 1.0091 0.0
H674 H 0.78873 0.78486 0.94972 0.0
H675 H 0.77725 0.73063 0.04148 0.0
H676 H 0.71808 0.7999 1.00643 0.0
H677 H 0.74077 0.77577 0.97405 0.0
H678 H 0.78759 0.77798 0.0696 0.0
H679 H 0.76527 0.80258 0.10156 0.0
C680 C 0.8051 0.75487 0.94475 0.0
C681 C 0.80905 0.73278 0.96063 0.0
C682 C 0.79104 0.76793 0.96316 0.0
C683 C 0.78079 0.75991 0.99861 0.0
C684 C 0.78487 0.73782 0.0145 0.0
C685 C 0.7984 0.72434 0.99577 0.0
C686 C 0.73319 0.79521 0.02058 0.0
C687 C 0.73972 0.80341 0.0568 0.0
C688 C 0.74643 0.78143 1.00188 0.0
C689 C 0.76632 0.77464 0.01882 0.0
C690 C 0.77238 0.78242 0.05531 0.0
C691 C 0.7596 0.79674 0.07376 0.0
H692 H 0.27793 0.09452 0.9938 0.0
H693 H 0.33456 0.07064 0.9389 0.0
H694 H 0.25505 0.04777 0.02553 0.0
H695 H 0.31236 0.0241 0.97139 0.0
H696 H 0.24668 0.92944 0.01074 0.0
H697 H 0.2711 0.97644 0.97895 0.0
H698 H 0.2589 0.01865 0.07076 0.0
H699 H 0.23468 0.97172 0.10219 0.0
C700 C 0.28569 0.07937 0.9885 0.0
C701 C 0.30841 0.08693 0.96356 0.0
C702 C 0.27264 0.05237 1.00713 0.0
C703 C 0.28155 0.03142 1.00163 0.0
C704 C 0.30435 0.03904 0.97659 0.0
C705 C 0.31752 0.06619 0.95809 0.0
C706 C 0.24936 0.94879 0.02424 0.0
C707 C 0.23808 0.9463 0.05906 0.0
C708 C 0.26353 0.97602 1.00593 0.0
C709 C 0.26708 1.00204 0.02166 0.0
C710 C 0.25628 0.99948 0.05688 0.0
C711 C 0.24227 0.97232 0.07516 0.0
H712 H 0.97822 0.21922 0.92126 0.0
H713 H 0.9391 0.24018 1.00875 0.0
H714 H 0.02547 0.24383 0.95161 0.0
H715 H 0.98623 0.26438 0.0399 0.0
H716 H 0.08003 0.32551 0.07973 0.0
H717 H 0.03346 0.30298 0.04771 0.0
H718 H 0.05632 0.24423 0.99539 0.0
H719 H 0.10343 0.26799 0.02602 0.0
C720 C 0.97958 0.22886 0.94726 0.0
C721 C 0.95439 0.22732 0.96239 0.0
C722 C 1.00696 0.24305 0.965 0.0
C723 C 1.01053 0.25638 0.99892 0.0
C724 C 0.98521 0.25502 0.01385 0.0
C725 C 0.95783 0.24091 0.99593 0.0
C726 C 0.07541 0.30811 0.06096 0.0
C727 C 0.09606 0.29888 0.05574 0.0
C728 C 0.04817 0.29467 0.04275 0.0
C729 C 0.04019 0.27127 0.01843 0.0
C730 C 0.06107 0.26225 0.01317 0.0
C731 C 0.08831 0.27577 0.03126 0.0
H732 H 0.91045 0.55428 0.24383 0.0
H733 H 0.87087 0.46446 0.27861 0.0
H734 H 0.88681 0.56494 0.29296 0.0
H735 H 0.84738 0.47516 0.32854 0.0
H736 H 0.86349 0.53173 0.43725 0.0
H737 H 0.87129 0.50914 0.38416 0.0
H738 H 0.83616 0.55109 0.31741 0.0
H739 H 0.82799 0.5731 0.37021 0.0
C740 C 0.89603 0.53671 0.26159 0.0
C741 C 0.89215 0.5086 0.25757 0.0
C742 C 0.8825 0.54272 0.28962 0.0
C743 C 0.86527 0.52082 0.31446 0.0
C744 C 0.86056 0.49236 0.30969 0.0
C745 C 0.87372 0.48621 0.28112 0.0
C746 C 0.85682 0.53545 0.41128 0.0
C747 C 0.84616 0.5549 0.4075 0.0
C748 C 0.86116 0.5225 0.381 0.0
C749 C 0.85475 0.52885 0.34673 0.0
C750 C 0.84175 0.54631 0.34347 0.0
C751 C 0.83733 0.55908 0.37362 0.0
H752 H 0.55752 0.43702 0.31729 0.0
H753 H 0.51943 0.36016 0.2502 0.0
H754 H 0.54861 0.40645 0.37003 0.0
H755 H 0.51106 0.32942 0.30313 0.0
H756 H 0.51025 0.28406 0.4082 0.0
H757 H 0.5347 0.31845 0.35865 0.0
H758 H 0.49709 0.37035 0.39426 0.0
H759 H 0.47241 0.3358 0.44299 0.0
C760 C 0.54746 0.41358 0.31385 0.0
C761 C 0.53808 0.40072 0.28001 0.0
C762 C 0.54264 0.39617 0.34394 0.0
C763 C 0.52876 0.36563 0.34061 0.0
C764 C 0.52187 0.35297 0.30634 0.0
C765 C 0.52655 0.37046 0.27615 0.0
C766 C 0.50799 0.30331 0.40579 0.0
C767 C 0.48976 0.30764 0.42921 0.0
C768 C 0.52172 0.32275 0.37745 0.0
C769 C 0.51779 0.347 0.3728 0.0
C770 C 0.50078 0.35204 0.39754 0.0
C771 C 0.48666 0.33235 0.42532 0.0
H772 H 0.74765 0.23094 0.40915 0.0
H773 H 0.7113 0.13843 0.428 0.0
H774 H 0.71758 0.21998 0.35483 0.0
H775 H 0.68152 0.12749 0.3742 0.0
H776 H 0.67008 0.11843 0.25623 0.0
H777 H 0.70024 0.13736 0.30974 0.0
H778 H 0.66298 0.19244 0.33086 0.0
H779 H 0.6326 0.17331 0.2768 0.0
C780 C 0.73262 0.20833 0.40216 0.0
C781 C 0.73195 0.18545 0.42215 0.0
C782 C 0.71562 0.20209 0.37113 0.0
C783 C 0.69793 0.17294 0.35999 0.0
C784 C 0.69561 0.15017 0.38176 0.0
C785 C 0.71245 0.15638 0.41257 0.0
C786 C 0.6688 0.13501 0.27194 0.0
C787 C 0.64888 0.14418 0.26295 0.0
C788 C 0.68585 0.14569 0.30259 0.0
C789 C 0.68327 0.16574 0.3248 0.0
C790 C 0.66515 0.17684 0.31421 0.0
C791 C 0.64797 0.16606 0.28333 0.0
H792 H 0.47964 0.09534 0.25006 0.0
H793 H 0.47035 0.04275 0.34248 0.0
H794 H 0.45524 0.1179 0.28199 0.0
H795 H 0.44656 0.06579 0.37493 0.0
H796 H 0.38339 0.13077 0.34036 0.0
H797 H 0.40638 0.10694 0.30793 0.0
H798 H 0.45765 0.11467 0.40135 0.0
H799 H 0.43512 0.1391 0.43329 0.0
C800 C 0.47244 0.08857 0.27727 0.0
C801 C 0.47722 0.06713 0.2935 0.0
C802 C 0.45824 0.10149 0.29568 0.0
C803 C 0.44873 0.094 0.33145 0.0
C804 C 0.45361 0.07255 0.34768 0.0
C805 C 0.46721 0.05914 0.32894 0.0
C806 C 0.39956 0.12739 0.35402 0.0
C807 C 0.40727 0.13708 0.38964 0.0
C808 C 0.41295 0.11377 0.33529 0.0
C809 C 0.43415 0.1086 0.35165 0.0
C810 C 0.44142 0.11787 0.38756 0.0
C811 C 0.42851 0.13208 0.40598 0.0
H812 H 0.94637 0.39414 0.25277 0.0
H813 H 0.99741 0.4373 0.34623 0.0
H814 H 0.9236 0.34709 0.28453 0.0
H815 H 0.9744 0.39032 0.37839 0.0
H816 H 0.90835 0.26182 0.34235 0.0
H817 H 0.93261 0.3088 0.31024 0.0
H818 H 0.92716 0.35258 0.40474 0.0
H819 H 0.90257 0.30551 0.43646 0.0
C820 C 0.9528 0.39364 0.28016 0.0
C821 C 0.97388 0.41984 0.29672 0.0
C822 C 0.93978 0.36646 0.29848 0.0
C823 C 0.94684 0.36434 0.33444 0.0
C824 C 0.96795 0.39066 0.35098 0.0
C825 C 0.98138 0.41776 0.3324 0.0
C826 C 0.91238 0.28147 0.35633 0.0
C827 C 0.90329 0.27955 0.39217 0.0
C828 C 0.92622 0.30858 0.33778 0.0
C829 C 0.93212 0.33506 0.35451 0.0
C830 C 0.92343 0.33308 0.39064 0.0
C831 C 0.9091 0.3059 0.40894 0.0
H832 H 0.77794 0.6586 0.34203 0.0
H833 H 0.73652 0.60637 0.43526 0.0
H834 H 0.7306 0.63581 0.31105 0.0
H835 H 0.68928 0.58341 0.40459 0.0
H836 H 0.61279 0.52542 0.32894 0.0
H837 H 0.65986 0.54957 0.35994 0.0
H838 H 0.68295 0.63002 0.30445 0.0
H839 H 0.63605 0.60544 0.27278 0.0
C840 C 0.75871 0.64232 0.35607 0.0
C841 C 0.76151 0.63415 0.39115 0.0
C842 C 0.7313 0.62915 0.33824 0.0
C843 C 0.70545 0.60718 0.35474 0.0
C844 C 0.70832 0.59955 0.39019 0.0
C845 C 0.73566 0.61283 0.408 0.0
C846 C 0.62787 0.54828 0.32323 0.0
C847 C 0.62007 0.56325 0.29819 0.0
C848 C 0.65504 0.56237 0.3414 0.0
C849 C 0.6759 0.59215 0.33525 0.0
C850 C 0.66804 0.60713 0.31011 0.0
C851 C 0.64072 0.59303 0.2921 0.0
H852 H 0.52876 0.83807 0.57121 0.0
H853 H 0.58143 0.82509 0.64927 0.0
H854 H 0.50115 0.8442 0.61929 0.0
H855 H 0.55672 0.8346 0.69696 0.0
H856 H 0.51371 0.85462 0.78226 0.0
H857 H 0.51978 0.82677 0.73434 0.0
H858 H 0.50896 0.88138 0.65632 0.0
H859 H 0.49958 0.90633 0.70387 0.0
C860 C 0.53453 0.83668 0.59866 0.0
C861 C 0.55845 0.83296 0.60648 0.0
C862 C 0.51893 0.8405 0.62631 0.0
C863 C 0.5273 0.84114 0.66229 0.0
C864 C 0.54951 0.83457 0.66986 0.0
C865 C 0.56447 0.83 0.6423 0.0
C866 C 0.51203 0.8601 0.75477 0.0
C867 C 0.508 0.88383 0.74677 0.0
C868 C 0.51582 0.84438 0.72721 0.0
C869 C 0.51609 0.85243 0.69117 0.0
C870 C 0.5092 0.87441 0.68346 0.0
C871 C 0.50469 0.8895 0.71094 0.0
H872 H 0.11935 0.65858 0.75042 0.0
H873 H 0.18026 0.62695 0.74111 0.0
H874 H 0.13899 0.68728 0.69608 0.0
H875 H 0.2003 0.65608 0.68625 0.0
H876 H 0.23874 0.742 0.60874 0.0
H877 H 0.22596 0.71064 0.66205 0.0
H878 H 0.13484 0.66866 0.632 0.0
H879 H 0.1476 0.69996 0.57931 0.0
C880 C 0.13722 0.65811 0.73685 0.0
C881 C 0.14801 0.64028 0.74935 0.0
C882 C 0.14835 0.67436 0.70573 0.0
C883 C 0.17056 0.67316 0.68654 0.0
C884 C 0.18298 0.65709 0.70048 0.0
C885 C 0.17169 0.64065 0.73182 0.0
C886 C 0.21616 0.72531 0.61306 0.0
C887 C 0.19402 0.72339 0.59043 0.0
C888 C 0.20886 0.70755 0.64352 0.0
C889 C 0.17939 0.68784 0.65142 0.0
C890 C 0.15767 0.68419 0.62686 0.0
C891 C 0.16493 0.70185 0.59665 0.0
H892 H 0.37212 0.47815 0.77858 0.0
H893 H 0.42161 0.56816 0.74432 0.0
H894 H 0.33765 0.46747 0.72955 0.0
H895 H 0.38721 0.55747 0.69459 0.0
H896 H 0.34784 0.50226 0.58535 0.0
H897 H 0.37778 0.52442 0.6389 0.0
H898 H 0.30052 0.48041 0.70474 0.0
H899 H 0.27077 0.4588 0.65147 0.0
C900 C 0.37507 0.49575 0.76097 0.0
C901 C 0.3992 0.5239 0.76503 0.0
C902 C 0.35542 0.48973 0.73301 0.0
C903 C 0.35985 0.51169 0.70833 0.0
C904 C 0.3834 0.54022 0.71328 0.0
C905 C 0.40284 0.54636 0.74175 0.0
C906 C 0.3373 0.49794 0.61124 0.0
C907 C 0.3073 0.47804 0.61459 0.0
C908 C 0.35433 0.51066 0.64179 0.0
C909 C 0.34142 0.50367 0.6759 0.0
C910 C 0.31102 0.48568 0.67879 0.0
C911 C 0.29409 0.47313 0.64837 0.0
H912 H 0.04876 0.42884 0.74911 0.0
H913 H 0.10103 0.50804 0.68942 0.0
H914 H 0.07084 0.40473 0.71631 0.0
H915 H 0.12429 0.48463 0.65774 0.0
H916 H 0.14727 0.43006 0.58325 0.0
H917 H 0.12299 0.4526 0.61463 0.0
H918 H 0.11014 0.39741 0.70606 0.0
H919 H 0.13411 0.37466 0.67399 0.0
C920 C 0.06489 0.44122 0.72886 0.0
C921 C 0.07278 0.47065 0.72221 0.0
C922 C 0.07807 0.42739 0.71015 0.0
C923 C 0.09984 0.4423 0.6838 0.0
C924 C 0.10754 0.47175 0.67713 0.0
C925 C 0.09431 0.48551 0.6958 0.0
C926 C 0.13949 0.42286 0.61019 0.0
C927 C 0.14332 0.40071 0.62605 0.0
C928 C 0.12545 0.43596 0.6285 0.0
C929 C 0.11443 0.4275 0.66365 0.0
C930 C 0.11779 0.40479 0.67916 0.0
C931 C 0.13179 0.39165 0.66072 0.0
H932 H 0.6697 0.73898 0.60979 0.0
H933 H 0.60883 0.76038 0.65824 0.0
H934 H 0.64769 0.69288 0.64277 0.0
H935 H 0.5855 0.71362 0.68946 0.0
H936 H 0.55957 0.63664 0.76533 0.0
H937 H 0.58392 0.68355 0.73432 0.0
H938 H 0.61093 0.64523 0.65135 0.0
H939 H 0.58706 0.59847 0.68336 0.0
C940 C 0.6517 0.73408 0.62761 0.0
C941 C 0.64143 0.75408 0.63109 0.0
C942 C 0.63853 0.70703 0.64634 0.0
C943 C 0.6143 0.69854 0.6694 0.0
C944 C 0.60419 0.71875 0.67282 0.0
C945 C 0.61748 0.74581 0.65429 0.0
C946 C 0.57054 0.6381 0.74033 0.0
C947 C 0.57084 0.61324 0.72695 0.0
C948 C 0.58462 0.66531 0.72217 0.0
C949 C 0.59965 0.66907 0.68949 0.0
C950 C 0.60019 0.64411 0.67638 0.0
C951 C 0.58624 0.61691 0.69479 0.0
H952 H 0.27311 0.91014 0.67278 0.0
H953 H 0.31163 0.88663 0.58702 0.0
H954 H 0.32023 0.93435 0.70399 0.0
H955 H 0.35882 0.91112 0.61749 0.0
H956 H 0.4359 0.93475 0.69313 0.0
H957 H 0.38886 0.91125 0.66241 0.0
H958 H 0.36799 0.97283 0.71086 0.0
H959 H 0.41454 0.99523 0.743 0.0
C960 C 0.29169 0.91029 0.66036 0.0
C961 C 0.28808 0.89598 0.62729 0.0
C962 C 0.31906 0.92439 0.6783 0.0
C963 C 0.34417 0.92498 0.66391 0.0
C964 C 0.34044 0.91094 0.63047 0.0
C965 C 0.31309 0.89679 0.61267 0.0
C966 C 0.42127 0.94327 0.69748 0.0
C967 C 0.4296 0.96717 0.72086 0.0
C968 C 0.39407 0.92987 0.67933 0.0
C969 C 0.37377 0.93977 0.68349 0.0
C970 C 0.38229 0.96391 0.70677 0.0
C971 C 0.40952 0.97726 0.72501 0.0
H972 H 0.14224 0.32218 0.43778 0.0
H973 H 0.22247 0.40477 0.42555 0.0
H974 H 0.13648 0.31787 0.37319 0.0
H975 H 0.21672 0.40022 0.36059 0.0
H976 H 0.16132 0.30166 0.26005 0.0
H977 H 0.16149 0.3082 0.32458 0.0
H978 H 0.18665 0.39896 0.30914 0.0
H979 H 0.18675 0.39256 0.24456 0.0
C980 C 0.15856 0.33962 0.42138 0.0
C981 C 0.18299 0.36376 0.43703 0.0
C982 C 0.15529 0.33701 0.38424 0.0
C983 C 0.17629 0.35849 0.36164 0.0
C984 C 0.20004 0.38333 0.37722 0.0
C985 C 0.20338 0.38592 0.4145 0.0
C986 C 0.16652 0.32292 0.27032 0.0
C987 C 0.17408 0.34655 0.24698 0.0
C988 C 0.16652 0.32667 0.30738 0.0
C989 C 0.17423 0.35417 0.3221 0.0
C990 C 0.18097 0.37759 0.29874 0.0
C991 C 0.18078 0.37381 0.26166 0.0
H992 H 0.63882 0.82177 0.42702 0.0
H993 H 0.7267 0.83698 0.43984 0.0
H994 H 0.6435 0.82037 0.36233 0.0
H995 H 0.73114 0.83508 0.3752 0.0
H996 H 0.74091 0.87177 0.25998 0.0
H997 H 0.73608 0.86602 0.32468 0.0
H998 H 0.64797 0.79382 0.31201 0.0
H999 H 0.65257 0.79985 0.24729 0.0
C1000 C 0.65897 0.82433 0.41614 0.0
C1001 C 0.68242 0.82966 0.4388 0.0
C1002 C 0.66162 0.82341 0.37895 0.0
C1003 C 0.6878 0.82782 0.3634 0.0
C1004 C 0.71084 0.83206 0.38615 0.0
C1005 C 0.70818 0.83293 0.42332 0.0
C1006 C 0.72062 0.8544 0.2709 0.0
C1007 C 0.69711 0.8364 0.24826 0.0
C1008 C 0.71788 0.85102 0.3081 0.0
C1009 C 0.69154 0.82957 0.3237 0.0
C1010 C 0.6684 0.81087 0.30101 0.0
C1011 C 0.67116 0.8142 0.2638 0.0
H1012 H 0.16248 0.87525 0.2598 0.0
H1013 H 0.23838 0.86536 0.24624 0.0
H1014 H 0.16926 0.87712 0.32454 0.0
H1015 H 0.2453 0.86764 0.31071 0.0
H1016 H 0.22036 0.82972 0.42546 0.0
H1017 H 0.22011 0.83534 0.36083 0.0
H1018 H 0.20077 0.9052 0.37462 0.0
H1019 H 0.20062 0.89938 0.4393 0.0
C1020 C 0.18087 0.87396 0.27052 0.0
C1021 C 0.19971 0.86994 0.2477 0.0
C1022 C 0.18483 0.87514 0.30768 0.0
C1023 C 0.20769 0.87227 0.32289 0.0
C1024 C 0.22718 0.86942 0.29997 0.0
C1025 C 0.22328 0.8683 0.26291 0.0
C1026 C 0.21646 0.84657 0.4148 0.0
C1027 C 0.21039 0.86398 0.43773 0.0
C1028 C 0.21641 0.84987 0.37766 0.0
C1029 C 0.21022 0.87061 0.36246 0.0
C1030 C 0.20519 0.88873 0.3854 0.0
C1031 C 0.20535 0.88552 0.42255 0.0
H1032 H 0.30487 0.15545 0.76027 0.0
H1033 H 0.39318 0.17191 0.77316 0.0
H1034 H 0.30971 0.15418 0.69549 0.0
H1035 H 0.39782 0.17029 0.70857 0.0
H1036 H 0.31972 0.13248 0.58076 0.0
H1037 H 0.31499 0.12723 0.64555 0.0
H1038 H 0.40209 0.20124 0.65783 0.0
H1039 H 0.40703 0.20633 0.59303 0.0
C1040 C 0.32515 0.15836 0.7494 0.0
C1041 C 0.34864 0.16392 0.7721 0.0
C1042 C 0.32791 0.15753 0.71218 0.0
C1043 C 0.35425 0.16234 0.6967 0.0
C1044 C 0.37738 0.16694 0.71948 0.0
C1045 C 0.3746 0.16766 0.75663 0.0
C1046 C 0.33807 0.14742 0.59719 0.0
C1047 C 0.36377 0.16991 0.5815 0.0
C1048 C 0.33523 0.14453 0.63443 0.0
C1049 C 0.35804 0.16393 0.65702 0.0
C1050 C 0.38415 0.18572 0.64131 0.0
C1051 C 0.38696 0.1887 0.60407 0.0
H1052 H 0.90688 0.19762 0.58135 0.0
H1053 H 0.83352 0.21161 0.59534 0.0
H1054 H 0.91362 0.19921 0.6459 0.0
H1055 H 0.84006 0.21274 0.66 0.0
H1056 H 0.88666 0.16071 0.76046 0.0
H1057 H 0.8875 0.16723 0.69588 0.0
H1058 H 0.87164 0.23936 0.71028 0.0
H1059 H 0.87035 0.23262 0.77484 0.0
C1060 C 0.89234 0.20135 0.59812 0.0
C1061 C 0.86951 0.20433 0.58302 0.0
C1062 C 0.89612 0.20205 0.63522 0.0
C1063 C 0.87724 0.20583 0.65823 0.0
C1064 C 0.85518 0.21004 0.6431 0.0
C1065 C 0.85135 0.20928 0.60596 0.0
C1066 C 0.88376 0.17824 0.74994 0.0
C1067 C 0.87826 0.19599 0.77298 0.0
C1068 C 0.88435 0.18206 0.71283 0.0
C1069 C 0.87942 0.2037 0.69779 0.0
C1070 C 0.87506 0.22219 0.72089 0.0
C1071 C 0.87455 0.21843 0.75799 0.0
H1072 H 0.84822 0.72078 0.57707 0.0
H1073 H 0.83048 0.632 0.59106 0.0
H1074 H 0.84631 0.72584 0.64157 0.0
H1075 H 0.82889 0.63727 0.65571 0.0
H1076 H 0.88161 0.7346 0.75782 0.0
H1077 H 0.87688 0.72972 0.69293 0.0
H1078 H 0.80158 0.64334 0.70464 0.0
H1079 H 0.80641 0.64799 0.76941 0.0
C1080 C 0.84362 0.70219 0.59382 0.0
C1081 C 0.83961 0.67597 0.57872 0.0
C1082 C 0.84274 0.70522 0.63089 0.0
C1083 C 0.83766 0.68207 0.65391 0.0
C1084 C 0.8326 0.65548 0.63878 0.0
C1085 C 0.83361 0.65248 0.60166 0.0
C1086 C 0.86378 0.71473 0.74661 0.0
C1087 C 0.84451 0.69167 0.76899 0.0
C1088 C 0.86101 0.71195 0.70934 0.0
C1089 C 0.83897 0.68601 0.69351 0.0
C1090 C 0.81907 0.66342 0.7159 0.0
C1091 C 0.82174 0.66623 0.75312 0.0
H1092 H 0.97377 0.48554 0.09359 0.0
H1093 H 0.06352 0.50651 0.10671 0.0
H1094 H 0.97896 0.48498 0.02891 0.0
H1095 H 0.06854 0.50556 0.04199 0.0
H1096 H 0.07528 0.54213 0.92647 0.0
H1097 H 0.07109 0.53617 0.9913 0.0
H1098 H 0.98584 0.45936 0.97903 0.0
H1099 H 0.98979 0.46545 0.91439 0.0
C1100 C 0.99447 0.48956 0.08277 0.0
C1101 C 1.01823 0.49618 0.10552 0.0
C1102 C 0.99743 0.48913 0.0456 0.0
C1103 C 0.02425 0.4954 0.03015 0.0
C1104 C 0.04771 0.50105 0.05293 0.0
C1105 C 0.04472 0.50135 0.09011 0.0
C1106 C 0.05581 0.52372 0.93753 0.0
C1107 C 0.03283 0.50442 0.91505 0.0
C1108 C 0.05344 0.52024 0.97477 0.0
C1109 C 0.02799 0.49741 0.99048 0.0
C1110 C 1.00553 0.47746 0.96792 0.0
C1111 C 1.00793 0.48087 0.93075 0.0
H1112 H 0.57409 0.52929 0.91669 0.0
H1113 H 0.5008 0.54356 0.92925 0.0
H1114 H 0.57986 0.53022 0.98138 0.0
H1115 H 0.5064 0.54411 0.99403 0.0
H1116 H 0.53617 0.56419 0.10916 0.0
H1117 H 0.53778 0.5707 0.04458 0.0
H1118 H 0.55287 0.49799 0.03117 0.0
H1119 H 0.55164 0.49164 0.09588 0.0
C1120 C 0.55937 0.53294 0.93317 0.0
C1121 C 0.53685 0.53621 0.91761 0.0
C1122 C 0.56258 0.53326 0.97035 0.0
C1123 C 0.54346 0.53697 0.99299 0.0
C1124 C 0.52169 0.54144 0.97742 0.0
C1125 C 0.51841 0.54103 0.94021 0.0
C1126 C 0.54022 0.54978 0.09255 0.0
C1127 C 0.54365 0.52726 0.10787 0.0
C1128 C 0.54093 0.55342 0.05543 0.0
C1129 C 0.5452 0.53474 0.0326 0.0
C1130 C 0.54977 0.51295 0.04793 0.0
C1131 C 0.54897 0.50923 0.0851 0.0
H1132 H 0.49572 0.96599 0.92439 0.0
H1133 H 0.51496 0.05525 0.9103 0.0
H1134 H 0.49444 0.97139 0.98897 0.0
H1135 H 0.51326 0.06043 0.97485 0.0
H1136 H 0.5491 0.06881 0.09075 0.0
H1137 H 0.54361 0.06403 0.02595 0.0
H1138 H 0.46817 0.97781 0.0383 0.0
H1139 H 0.47386 0.98233 0.10302 0.0
C1140 C 0.49921 0.98661 0.93496 0.0
C1141 C 0.50558 1.01019 0.912 0.0
C1142 C 0.49836 0.98968 0.97207 0.0
C1143 C 0.50393 0.01643 0.9872 0.0
C1144 C 0.5093 0.03968 0.96417 0.0
C1145 C 0.51005 0.03659 0.92708 0.0
C1146 C 0.53108 0.04899 0.07972 0.0
C1147 C 0.51207 0.0259 0.10224 0.0
C1148 C 0.52786 0.04628 0.04248 0.0
C1149 C 0.50558 0.02041 0.02682 0.0
C1150 C 0.48587 0.99782 0.0494 0.0
C1151 C 0.48904 1.00054 0.08659 0.0
H1152 H 0.29095 0.42779 0.13358 0.0
H1153 H 0.28138 0.34485 0.16543 0.0
H1154 H 0.34207 0.4525 0.15192 0.0
H1155 H 0.3325 0.36966 0.18469 0.0
H1156 H 0.43411 0.42114 0.19073 0.0
H1157 H 0.38301 0.39467 0.1714 0.0
H1158 H 0.37399 0.4689 0.20071 0.0
H1159 H 0.42508 0.49544 0.21911 0.0
C1160 C 0.29971 0.41464 0.14424 0.0
C1161 C 0.28152 0.38404 0.14765 0.0
C1162 C 0.32926 0.429 0.15533 0.0
C1163 C 0.34207 0.41349 0.17051 0.0
C1164 C 0.32404 0.38273 0.17303 0.0
C1165 C 0.29442 0.36833 0.16189 0.0
C1166 C 0.42119 0.43177 0.19349 0.0
C1167 C 0.43424 0.46067 0.2068 0.0
C1168 C 0.39158 0.41645 0.18231 0.0
C1169 C 0.37372 0.42939 0.18385 0.0
C1170 C 0.38667 0.45804 0.19806 0.0
C1171 C 0.41621 0.47331 0.2092 0.0
H1172 H 0.54297 0.93799 0.21474 0.0
H1173 H 0.61789 0.02094 0.18689 0.0
H1174 H 0.56951 0.91302 0.19819 0.0
H1175 H 0.64438 0.9959 0.16931 0.0
H1176 H 0.69414 0.944 0.16543 0.0
H1177 H 0.66919 0.97055 0.18313 0.0
H1178 H 0.58658 0.8964 0.1518 0.0
H1179 H 0.61145 0.86978 0.13514 0.0
C1180 C 0.56523 0.95109 0.20528 0.0
C1181 C 0.57802 0.98179 0.20251 0.0
C1182 C 0.58054 0.93657 0.19521 0.0
C1183 C 0.6094 0.95199 0.18169 0.0
C1184 C 0.62245 0.98283 0.17973 0.0
C1185 C 0.6071 0.99738 0.18988 0.0
C1186 C 0.67067 0.93339 0.16193 0.0
C1187 C 0.65511 0.90448 0.14855 0.0
C1188 C 0.65617 0.94877 0.17215 0.0
C1189 C 0.62541 0.93594 0.16953 0.0
C1190 C 0.61004 0.90725 0.1553 0.0
C1191 C 0.62451 0.89191 0.14516 0.0
H1192 H 1.01906 0.60571 0.18782 0.0
H1193 H 0.10186 0.61456 0.21835 0.0
H1194 H 0.04396 0.65708 0.16938 0.0
H1195 H 0.12667 0.66593 0.20095 0.0
H1196 H 0.16994 0.75033 0.13627 0.0
H1197 H 0.14342 0.69895 0.15367 0.0
H1198 H 0.0689 0.70738 0.18276 0.0
H1199 H 0.09534 0.75874 0.16433 0.0
C1200 C 0.04254 0.61864 0.19124 0.0
C1201 C 0.05816 0.60544 0.20487 0.0
C1202 C 0.057 0.64843 0.18058 0.0
C1203 C 0.08776 0.66638 0.18303 0.0
C1204 C 0.10319 0.65324 0.19758 0.0
C1205 C 0.08876 0.62352 0.20814 0.0
C1206 C 0.14776 0.74127 0.14594 0.0
C1207 C 0.13503 0.75922 0.1485 0.0
C1208 C 0.13248 0.71154 0.1565 0.0
C1209 C 0.10373 0.69829 0.17034 0.0
C1210 C 0.09074 0.71612 0.17211 0.0
C1211 C 0.10605 0.74591 0.16145 0.0
H1212 H 0.43606 0.28213 0.88588 0.0
H1213 H 0.35309 0.2733 0.85632 0.0
H1214 H 0.46073 0.33357 0.86877 0.0
H1215 H 0.37783 0.32472 0.83817 0.0
H1216 H 0.42916 0.42643 0.83375 0.0
H1217 H 0.4028 0.37499 0.85189 0.0
H1218 H 0.4771 0.3666 0.82147 0.0
H1219 H 0.50354 0.41803 0.80437 0.0
C1220 C 0.42291 0.29111 0.87595 0.0
C1221 C 0.3923 0.27303 0.87287 0.0
C1222 C 0.43724 0.32087 0.86555 0.0
C1223 C 0.4217 0.33401 0.85137 0.0
C1224 C 0.39095 0.31605 0.8491 0.0
C1225 C 0.37658 0.28624 0.8596 0.0
C1226 C 0.43983 0.41359 0.83051 0.0
C1227 C 0.46874 0.42693 0.81733 0.0
C1228 C 0.42457 0.38376 0.841 0.0
C1229 C 0.43755 0.36594 0.83881 0.0
C1230 C 0.46619 0.37921 0.82466 0.0
C1231 C 0.48142 0.40896 0.81427 0.0
H1232 H 0.61493 1.01147 0.83062 0.0
H1233 H 0.62463 0.09467 0.79983 0.0
H1234 H 0.66615 0.03604 0.84945 0.0
H1235 H 0.67584 0.11915 0.81774 0.0
H1236 H 0.75947 0.16164 0.88386 0.0
H1237 H 0.70825 0.13537 0.86596 0.0
H1238 H 0.71655 0.06087 0.83587 0.0
H1239 H 0.76779 0.08707 0.85472 0.0
C1240 C 0.62801 0.03497 0.82723 0.0
C1241 C 0.61511 0.0508 0.8134 0.0
C1242 C 0.6577 0.04923 0.83813 0.0
C1243 C 0.67582 0.07999 0.83575 0.0
C1244 C 0.66299 0.09565 0.82103 0.0
C1245 C 0.63337 0.08142 0.81019 0.0
C1246 C 0.75042 0.13951 0.87387 0.0
C1247 C 0.7683 0.12672 0.87111 0.0
C1248 C 0.7208 0.12439 0.86302 0.0
C1249 C 0.70758 0.09574 0.84875 0.0
C1250 C 0.72531 0.08266 0.84683 0.0
C1251 C 0.75501 0.09782 0.85772 0.0
H1252 H 0.95244 0.68437 0.8769 0.0
H1253 H 0.87061 0.60544 0.85735 0.0
H1254 H 0.97883 0.65887 0.86099 0.0
H1255 H 0.89634 0.58058 0.8391 0.0
H1256 H 0.94468 0.53076 0.82836 0.0
H1257 H 0.92004 0.55672 0.84673 0.0
H1258 H 0.99829 0.63912 0.82446 0.0
H1259 H 1.02354 0.61253 0.80842 0.0
C1260 C 0.93997 0.66153 0.86928 0.0
C1261 C 0.90913 0.64712 0.86916 0.0
C1262 C 0.95522 0.64673 0.85955 0.0
C1263 C 0.94033 0.617 0.84845 0.0
C1264 C 0.90939 0.60291 0.84822 0.0
C1265 C 0.89427 0.61745 0.85868 0.0
C1266 C 0.95671 0.55445 0.82699 0.0
C1267 C 0.98629 0.56923 0.81636 0.0
C1268 C 0.94231 0.5697 0.83751 0.0
C1269 C 0.95647 0.60069 0.8372 0.0
C1270 C 0.98611 0.6155 0.82596 0.0
C1271 C 1.00076 0.60012 0.81617 0.0
H1272 H 0.60754 0.4855 0.83742 0.0
H1273 H 0.6418 0.52794 0.73603 0.0
H1274 H 0.65665 0.49884 0.85714 0.0
H1275 H 0.69129 0.54216 0.75607 0.0
H1276 H 0.77857 0.56603 0.80061 0.0
H1277 H 0.72941 0.5316 0.77925 0.0
H1278 H 0.69305 0.54922 0.87308 0.0
H1279 H 0.74193 0.58335 0.89447 0.0
C1280 C 0.62561 0.49698 0.819 0.0
C1281 C 0.62121 0.50618 0.7855 0.0
C1282 C 0.65365 0.50467 0.83031 0.0
C1283 C 0.6778 0.52211 0.8085 0.0
C1284 C 0.67304 0.52862 0.77343 0.0
C1285 C 0.64479 0.52057 0.76192 0.0
C1286 C 0.76008 0.56197 0.81711 0.0
C1287 C 0.76402 0.5777 0.84899 0.0
C1288 C 0.73198 0.54233 0.80477 0.0
C1289 C 0.70744 0.53787 0.82432 0.0
C1290 C 0.71154 0.55192 0.85755 0.0
C1291 C 0.73956 0.57168 0.86973 0.0
H1292 H 0.47757 0.21964 0.80874 0.0
H1293 H 0.45783 0.17392 0.90987 0.0
H1294 H 0.51339 0.20446 0.79602 0.0
H1295 H 0.49366 0.15894 0.89717 0.0
H1296 H 0.5165 0.11687 0.77082 0.0
H1297 H 0.50029 0.15185 0.78308 0.0
H1298 H 0.54661 0.17387 0.88378 0.0
H1299 H 0.56302 0.1389 0.87152 0.0
C1300 C 0.48144 0.20704 0.82867 0.0
C1301 C 0.46456 0.19748 0.86002 0.0
C1302 C 0.50191 0.19837 0.82134 0.0
C1303 C 0.50609 0.1804 0.84548 0.0
C1304 C 0.49104 0.17301 0.8782 0.0
C1305 C 0.47034 0.18136 0.88535 0.0
C1306 C 0.52389 0.12975 0.79512 0.0
C1307 C 0.54054 0.12478 0.82051 0.0
C1308 C 0.51481 0.14995 0.80201 0.0
C1309 C 0.52202 0.16531 0.83454 0.0
C1310 C 0.54063 0.1621 0.85863 0.0
C1311 C 0.55001 0.14212 0.85155 0.0
H1312 H 0.90312 0.43148 0.879 0.0
H1313 H 0.92232 0.40571 0.77747 0.0
H1314 H 0.86731 0.38042 0.89174 0.0
H1315 H 0.88647 0.35486 0.79019 0.0
H1316 H 0.86637 0.29037 0.91592 0.0
H1317 H 0.88144 0.34138 0.90404 0.0
H1318 H 0.83354 0.3165 0.80445 0.0
H1319 H 0.81823 0.26529 0.81635 0.0
C1320 C 0.89911 0.41505 0.85897 0.0
C1321 C 0.91589 0.42241 0.82754 0.0
C1322 C 0.87863 0.38589 0.86631 0.0
C1323 C 0.87435 0.36379 0.84208 0.0
C1324 C 0.88919 0.37152 0.80922 0.0
C1325 C 0.9099 0.40059 0.80207 0.0
C1326 C 0.85837 0.29567 0.89199 0.0
C1327 C 0.84164 0.27399 0.86673 0.0
C1328 C 0.86678 0.32484 0.88533 0.0
C1329 C 0.85882 0.33279 0.85316 0.0
C1330 C 0.84006 0.31084 0.82932 0.0
C1331 C 0.83134 0.28159 0.83619 0.0
H1332 H 0.56759 0.76531 0.20626 0.0
H1333 H 0.59014 0.74004 0.10661 0.0
H1334 H 0.53207 0.71409 0.21854 0.0
H1335 H 0.55459 0.68901 0.11888 0.0
H1336 H 0.48643 0.59889 0.14442 0.0
H1337 H 0.50166 0.64993 0.13139 0.0
H1338 H 0.54664 0.67576 0.23289 0.0
H1339 H 0.53164 0.62493 0.24589 0.0
C1340 C 0.56437 0.74895 0.1865 0.0
C1341 C 0.58201 0.75653 0.1558 0.0
C1342 C 0.54407 0.71969 0.19358 0.0
C1343 C 0.54083 0.69768 0.16982 0.0
C1344 C 0.55651 0.70558 0.13754 0.0
C1345 C 0.57704 0.73477 0.13066 0.0
C1346 C 0.49889 0.61537 0.16437 0.0
C1347 C 0.50836 0.60808 0.19588 0.0
C1348 C 0.50758 0.64453 0.15686 0.0
C1349 C 0.52546 0.6667 0.181 0.0
C1350 C 0.53265 0.65905 0.21393 0.0
C1351 C 0.52429 0.62999 0.22124 0.0
H1352 H 0.26774 0.81123 0.21919 0.0
H1353 H 0.30269 0.86455 0.1244 0.0
H1354 H 0.31734 0.82717 0.23995 0.0
H1355 H 0.35194 0.88062 0.14524 0.0
H1356 H 0.43838 0.90389 0.17948 0.0
H1357 H 0.38911 0.86814 0.16022 0.0
H1358 H 0.35546 0.87544 0.26265 0.0
H1359 H 0.40516 0.91054 0.28226 0.0
C1360 C 0.28597 0.82582 0.2024 0.0
C1361 C 0.28139 0.83699 0.17037 0.0
C1362 C 0.31432 0.83501 0.2144 0.0
C1363 C 0.33851 0.85525 0.19439 0.0
C1364 C 0.33379 0.86471 0.16114 0.0
C1365 C 0.30553 0.85568 0.14926 0.0
C1366 C 0.42049 0.89705 0.19823 0.0
C1367 C 0.42524 0.91011 0.23208 0.0
C1368 C 0.39234 0.87671 0.18719 0.0
C1369 C 0.3684 0.86955 0.20959 0.0
C1370 C 0.37352 0.88047 0.24482 0.0
C1371 C 0.40189 0.90059 0.25608 0.0
H1372 H 0.14514 0.55388 0.14622 0.0
H1373 H 0.1244 0.50632 0.24609 0.0
H1374 H 0.18049 0.53827 0.13268 0.0
H1375 H 0.15987 0.49098 0.23258 0.0
H1376 H 0.18272 0.45049 0.10496 0.0
H1377 H 0.16644 0.48524 0.11852 0.0
H1378 H 0.21321 0.5062 0.21885 0.0
H1379 H 0.22976 0.47156 0.20526 0.0
C1380 C 0.14871 0.5408 0.16574 0.0
C1381 C 0.13167 0.53086 0.19695 0.0
C1382 C 0.16891 0.53188 0.15792 0.0
C1383 C 0.17269 0.5133 0.18145 0.0
C1384 C 0.15753 0.50551 0.2141 0.0
C1385 C 0.13707 0.5141 0.22171 0.0
C1386 C 0.1902 0.4631 0.12944 0.0
C1387 C 0.20707 0.45797 0.15431 0.0
C1388 C 0.18106 0.48315 0.13709 0.0
C1389 C 0.18841 0.49816 0.16988 0.0
C1390 C 0.20714 0.49472 0.1935 0.0
C1391 C 0.21661 0.47493 0.18565 0.0
H1392 H 0.10166 0.75554 0.5198 0.0
H1393 H 0.0929 0.82962 0.55017 0.0
H1394 H 0.05044 0.72928 0.50096 0.0
H1395 H 0.04167 0.80326 0.53231 0.0
H1396 H 0.95792 0.76256 0.46639 0.0
H1397 H 1.00917 0.78723 0.48421 0.0
H1398 H 1.00015 0.70413 0.51457 0.0
H1399 H 0.94894 0.6794 0.49578 0.0
C1400 C 0.08878 0.76616 0.52309 0.0
C1401 C 0.10193 0.79494 0.5368 0.0
C1402 C 0.05909 0.75096 0.5122 0.0
C1403 C 0.04124 0.76388 0.51448 0.0
C1404 C 0.05432 0.79241 0.5291 0.0
C1405 C 0.08394 0.80758 0.53992 0.0
C1406 C 0.96683 0.74937 0.47641 0.0
C1407 C 0.94878 0.71871 0.47926 0.0
C1408 C 0.99646 0.76369 0.48721 0.0
C1409 C 1.00948 0.74808 0.50153 0.0
C1410 C 0.99156 0.71728 0.50355 0.0
C1411 C 0.96187 0.70293 0.49269 0.0
H1412 H 0.27986 0.19829 0.49357 0.0
H1413 H 0.35886 0.28024 0.47491 0.0
H1414 H 0.25512 0.22404 0.51223 0.0
H1415 H 0.33349 0.30666 0.49125 0.0
H1416 H 0.2874 0.35134 0.54441 0.0
H1417 H 0.31382 0.32601 0.52803 0.0
H1418 H 0.23141 0.24793 0.50515 0.0
H1419 H 0.20561 0.27265 0.52385 0.0
C1420 C 0.29191 0.22199 0.49252 0.0
C1421 C 0.32156 0.23686 0.48217 0.0
C1422 C 0.27744 0.23712 0.50323 0.0
C1423 C 0.29159 0.2681 0.5034 0.0
C1424 C 0.32131 0.28302 0.4924 0.0
C1425 C 0.33603 0.26775 0.48242 0.0
C1426 C 0.27494 0.32858 0.53647 0.0
C1427 C 0.24409 0.31418 0.53619 0.0
C1428 C 0.29023 0.31389 0.52646 0.0
C1429 C 0.27538 0.28427 0.51492 0.0
C1430 C 0.24443 0.27018 0.51457 0.0
C1431 C 0.22926 0.28462 0.5253 0.0
H1432 H 0.76881 0.94877 0.55199 0.0
H1433 H 0.68601 0.94008 0.52186 0.0
H1434 H 0.79361 1.00024 0.53507 0.0
H1435 H 0.7109 0.99159 0.50395 0.0
H1436 H 0.76246 0.0934 0.50008 0.0
H1437 H 0.73595 0.0419 0.51803 0.0
H1438 H 0.81024 0.03342 0.48787 0.0
H1439 H 0.83681 0.08489 0.47092 0.0
C1440 C 0.75571 0.95778 0.54196 0.0
C1441 C 0.72511 0.93971 0.53867 0.0
C1442 C 0.77013 0.98757 0.53169 0.0
C1443 C 0.7547 1.00079 0.51743 0.0
C1444 C 0.72394 0.98286 0.51494 0.0
C1445 C 0.70949 0.95299 0.52529 0.0
C1446 C 0.7731 0.08053 0.49688 0.0
C1447 C 0.80203 0.09385 0.48376 0.0
C1448 C 0.75776 0.05067 0.50725 0.0
C1449 C 0.77066 0.03278 0.50503 0.0
C1450 C 0.79936 0.04605 0.49103 0.0
C1451 C 0.81467 0.07584 0.48074 0.0
H1452 H 0.15147 0.93282 0.48038 0.0
H1453 H 0.19917 0.95894 0.58021 0.0
H1454 H 0.1668 0.98389 0.4675 0.0
H1455 H 0.21421 1.00982 0.56739 0.0
H1456 H 0.25608 0.07301 0.44053 0.0
H1457 H 0.22005 0.02225 0.4535 0.0
H1458 H 0.19973 0.04858 0.55375 0.0
H1459 H 0.23566 0.09952 0.54075 0.0
C1460 C 0.16447 0.94933 0.50007 0.0
C1461 C 0.17465 0.94205 0.53098 0.0
C1462 C 0.17321 0.9785 0.49264 0.0
C1463 C 0.19183 1.0007 0.51629 0.0
C1464 C 0.19966 0.99308 0.5488 0.0
C1465 C 0.19125 0.96399 0.55602 0.0
C1466 C 0.24334 0.06808 0.46485 0.0
C1467 C 0.24905 0.09009 0.48994 0.0
C1468 C 0.22254 0.03906 0.47215 0.0
C1469 C 0.20735 0.03158 0.50477 0.0
C1470 C 0.21133 0.05386 0.52852 0.0
C1471 C 0.23188 0.08296 0.52102 0.0
H1472 H 0.10633 0.24083 0.507 0.0
H1473 H 0.07263 0.24189 0.61166 0.0
H1474 H 0.05748 0.20461 0.48703 0.0
H1475 H 1.02328 0.2064 0.59139 0.0
H1476 H 0.93615 0.1428 0.54727 0.0
H1477 H 0.98608 0.15889 0.56675 0.0
H1478 H 1.01914 0.21553 0.47438 0.0
H1479 H 0.96958 0.19924 0.45477 0.0
C1480 C 0.08843 0.23271 0.52593 0.0
C1481 C 0.09288 0.24431 0.5606 0.0
C1482 C 0.06052 0.21209 0.5145 0.0
C1483 C 0.03648 0.20321 0.53734 0.0
C1484 C 0.0414 0.21274 0.57318 0.0
C1485 C 0.06957 0.23311 0.58482 0.0
C1486 C 0.95412 0.15811 0.53066 0.0
C1487 C 0.94901 0.17014 0.49977 0.0
C1488 C 0.98267 0.16739 0.54194 0.0
C1489 C 1.00651 0.18864 0.52233 0.0
C1490 C 1.00128 0.19888 0.48996 0.0
C1491 C 0.97282 0.18972 0.4788 0.0
H1492 H 0.81163 0.88718 0.47744 0.0
H1493 H 0.79102 0.84105 0.57833 0.0
H1494 H 0.8472 0.87162 0.46493 0.0
H1495 H 0.82659 0.8257 0.56583 0.0
H1496 H 0.84911 0.78351 0.43928 0.0
H1497 H 0.83332 0.81878 0.45178 0.0
H1498 H 0.87946 0.84004 0.55259 0.0
H1499 H 0.89547 0.80478 0.54008 0.0
C1500 C 0.81527 0.87443 0.49738 0.0
C1501 C 0.79819 0.86483 0.52857 0.0
C1502 C 0.83559 0.86554 0.49016 0.0
C1503 C 0.83942 0.84731 0.51427 0.0
C1504 C 0.82423 0.83995 0.54689 0.0
C1505 C 0.80369 0.84852 0.55392 0.0
C1506 C 0.85654 0.79627 0.46367 0.0
C1507 C 0.87305 0.79104 0.48899 0.0
C1508 C 0.84771 0.81664 0.47069 0.0
C1509 C 0.85502 0.83191 0.50329 0.0
C1510 C 0.87343 0.82836 0.52737 0.0
C1511 C 0.88257 0.80822 0.52015 0.0
loop_
_geom_bond_atom_site_label_1
_geom_bond_atom_site_label_2
_geom_bond_distance
_geom_bond_site_symmetry_2
_ccdc_geom_bond_type
Co0 O3 1.970 . S
Co0 N17 1.989 . S
Co0 O25 1.967 . S
Co0 O32 1.920 . S
Co1 O4 1.966 . S
Co1 N10 2.022 . S
Co1 N18 1.993 . S
Co1 O26 1.941 . S
C2 O3 1.258 . S
C2 O4 1.263 . S
O3 Co0 1.970 . S
O3 C2 1.258 . S
O4 Co1 1.966 . S
O4 C2 1.263 . S
C5 O6 1.235 . S
C5 O32 1.289 . S
O6 C5 1.235 . S
C7 C9 1.400 . S
C7 N10 1.351 . S
C7 C12 1.501 . S
C8 C9 1.387 . S
C8 N11 1.341 . S
C9 C7 1.400 . S
C9 C8 1.387 . S
N10 Co1 2.022 . S
N10 C7 1.351 . S
N10 N11 1.365 . S
N11 C8 1.341 . S
N11 N10 1.365 . S
N11 H31 0.862 . S
C12 C7 1.501 . S
C12 H13 0.961 . S
C12 H14 0.961 . S
C12 H15 0.960 . S
H13 C12 0.961 . S
H14 C12 0.961 . S
H15 C12 0.960 . S
C16 N17 1.342 . S
C16 C20 1.401 . S
C16 C21 1.499 . S
N17 Co0 1.989 . S
N17 C16 1.342 . S
N17 N18 1.388 . S
N18 Co1 1.993 . S
N18 N17 1.388 . S
N18 C19 1.346 . S
C19 N18 1.346 . S
C19 C20 1.396 . S
C19 C29 1.510 . S
C20 C16 1.401 . S
C20 C19 1.396 . S
C21 C16 1.499 . S
C21 H22 0.959 . S
C21 H23 0.960 . S
C21 H24 0.961 . S
H22 C21 0.959 . S
H23 C21 0.960 . S
H24 C21 0.961 . S
O25 Co0 1.967 . S
O25 C33 1.258 . S
O26 Co1 1.941 . S
O26 C33 1.266 . S
H27 C29 0.959 . S
H28 C29 0.961 . S
C29 C19 1.510 . S
C29 H27 0.959 . S
C29 H28 0.961 . S
C29 H30 0.960 . S
H30 C29 0.960 . S
H31 N11 0.862 . S
O32 Co0 1.920 . S
O32 C5 1.289 . S
C33 O25 1.258 . S
C33 O26 1.266 . S
Co34 O37 1.970 . S
Co34 N51 1.989 . S
Co34 O59 1.967 . S
Co34 O66 1.920 . S
Co35 O38 1.966 . S
Co35 N44 2.022 . S
Co35 N52 1.993 . S
Co35 O60 1.941 . S
C36 O37 1.258 . S
C36 O38 1.263 . S
O37 Co34 1.970 . S
O37 C36 1.258 . S
O38 Co35 1.966 . S
O38 C36 1.263 . S
C39 O40 1.235 . S
C39 O66 1.289 . S
O40 C39 1.235 . S
C41 C43 1.400 . S
C41 N44 1.351 . S
C41 C46 1.501 . S
C42 C43 1.387 . S
C42 N45 1.341 . S
C43 C41 1.400 . S
C43 C42 1.387 . S
N44 Co35 2.022 . S
N44 C41 1.351 . S
N44 N45 1.365 . S
N45 C42 1.341 . S
N45 N44 1.365 . S
N45 H65 0.862 . S
C46 C41 1.501 . S
C46 H47 0.961 . S
C46 H48 0.961 . S
C46 H49 0.960 . S
H47 C46 0.961 . S
H48 C46 0.961 . S
H49 C46 0.960 . S
C50 N51 1.342 . S
C50 C54 1.401 . S
C50 C55 1.499 . S
N51 Co34 1.989 . S
N51 C50 1.342 . S
N51 N52 1.388 . S
N52 Co35 1.993 . S
N52 N51 1.388 . S
N52 C53 1.346 . S
C53 N52 1.346 . S
C53 C54 1.396 . S
C53 C63 1.510 . S
C54 C50 1.401 . S
C54 C53 1.396 . S
C55 C50 1.499 . S
C55 H56 0.959 . S
C55 H57 0.960 . S
C55 H58 0.961 . S
H56 C55 0.959 . S
H57 C55 0.960 . S
H58 C55 0.961 . S
O59 Co34 1.967 . S
O59 C67 1.258 . S
O60 Co35 1.941 . S
O60 C67 1.266 . S
H61 C63 0.959 . S
H62 C63 0.961 . S
C63 C53 1.510 . S
C63 H61 0.959 . S
C63 H62 0.961 . S
C63 H64 0.960 . S
H64 C63 0.960 . S
H65 N45 0.862 . S
O66 Co34 1.920 . S
O66 C39 1.289 . S
C67 O59 1.258 . S
C67 O60 1.266 . S
Co68 O71 1.970 . S
Co68 N85 1.989 . S
Co68 O93 1.967 . S
Co68 O100 1.920 . S
Co69 O72 1.966 . S
Co69 N78 2.022 . S
Co69 N86 1.993 . S
Co69 O94 1.941 . S
C70 O71 1.258 . S
C70 O72 1.263 . S
O71 Co68 1.970 . S
O71 C70 1.258 . S
O72 Co69 1.966 . S
O72 C70 1.263 . S
C73 O74 1.235 . S
C73 O100 1.289 . S
O74 C73 1.235 . S
C75 C77 1.400 . S
C75 N78 1.351 . S
C75 C80 1.501 . S
C76 C77 1.387 . S
C76 N79 1.341 . S
C77 C75 1.400 . S
C77 C76 1.387 . S
N78 Co69 2.022 . S
N78 C75 1.351 . S
N78 N79 1.365 . S
N79 C76 1.341 . S
N79 N78 1.365 . S
N79 H99 0.862 . S
C80 C75 1.501 . S
C80 H81 0.961 . S
C80 H82 0.961 . S
C80 H83 0.960 . S
H81 C80 0.961 . S
H82 C80 0.961 . S
H83 C80 0.960 . S
C84 N85 1.342 . S
C84 C88 1.401 . S
C84 C89 1.499 . S
N85 Co68 1.989 . S
N85 C84 1.342 . S
N85 N86 1.388 . S
N86 Co69 1.993 . S
N86 N85 1.388 . S
N86 C87 1.346 . S
C87 N86 1.346 . S
C87 C88 1.396 . S
C87 C97 1.510 . S
C88 C84 1.401 . S
C88 C87 1.396 . S
C89 C84 1.499 . S
C89 H90 0.959 . S
C89 H91 0.960 . S
C89 H92 0.961 . S
H90 C89 0.959 . S
H91 C89 0.960 . S
H92 C89 0.961 . S
O93 Co68 1.967 . S
O93 C101 1.258 . S
O94 Co69 1.941 . S
O94 C101 1.266 . S
H95 C97 0.959 . S
H96 C97 0.961 . S
C97 C87 1.510 . S
C97 H95 0.959 . S
C97 H96 0.961 . S
C97 H98 0.960 . S
H98 C97 0.960 . S
H99 N79 0.862 . S
O100 Co68 1.920 . S
O100 C73 1.289 . S
C101 O93 1.258 . S
C101 O94 1.266 . S
Co102 O105 1.970 . S
Co102 N119 1.989 . S
Co102 O127 1.967 . S
Co102 O134 1.920 . S
Co103 O106 1.966 . S
Co103 N112 2.022 . S
Co103 N120 1.993 . S
Co103 O128 1.941 . S
C104 O105 1.258 . S
C104 O106 1.263 . S
O105 Co102 1.970 . S
O105 C104 1.258 . S
O106 Co103 1.966 . S
O106 C104 1.263 . S
C107 O108 1.235 . S
C107 O134 1.289 . S
O108 C107 1.235 . S
C109 C111 1.400 . S
C109 N112 1.351 . S
C109 C114 1.501 . S
C110 C111 1.387 . S
C110 N113 1.341 . S
C111 C109 1.400 . S
C111 C110 1.387 . S
N112 Co103 2.022 . S
N112 C109 1.351 . S
N112 N113 1.365 . S
N113 C110 1.341 . S
N113 N112 1.365 . S
N113 H133 0.862 . S
C114 C109 1.501 . S
C114 H115 0.961 . S
C114 H116 0.961 . S
C114 H117 0.960 . S
H115 C114 0.961 . S
H116 C114 0.961 . S
H117 C114 0.960 . S
C118 N119 1.342 . S
C118 C122 1.401 . S
C118 C123 1.499 . S
N119 Co102 1.989 . S
N119 C118 1.342 . S
N119 N120 1.388 . S
N120 Co103 1.993 . S
N120 N119 1.388 . S
N120 C121 1.346 . S
C121 N120 1.346 . S
C121 C122 1.396 . S
C121 C131 1.510 . S
C122 C118 1.401 . S
C122 C121 1.396 . S
C123 C118 1.499 . S
C123 H124 0.959 . S
C123 H125 0.960 . S
C123 H126 0.961 . S
H124 C123 0.959 . S
H125 C123 0.960 . S
H126 C123 0.961 . S
O127 Co102 1.967 . S
O127 C135 1.258 . S
O128 Co103 1.941 . S
O128 C135 1.266 . S
H129 C131 0.959 . S
H130 C131 0.961 . S
C131 C121 1.510 . S
C131 H129 0.959 . S
C131 H130 0.961 . S
C131 H132 0.960 . S
H132 C131 0.960 . S
H133 N113 0.862 . S
O134 Co102 1.920 . S
O134 C107 1.289 . S
C135 O127 1.258 . S
C135 O128 1.266 . S
Co136 O139 1.970 . S
Co136 N153 1.989 . S
Co136 O161 1.967 . S
Co136 O168 1.920 . S
Co137 O140 1.966 . S
Co137 N146 2.022 . S
Co137 N154 1.993 . S
Co137 O162 1.941 . S
C138 O139 1.258 . S
C138 O140 1.263 . S
O139 Co136 1.970 . S
O139 C138 1.258 . S
O140 Co137 1.966 . S
O140 C138 1.263 . S
C141 O142 1.235 . S
C141 O168 1.289 . S
O142 C141 1.235 . S
C143 C145 1.400 . S
C143 N146 1.351 . S
C143 C148 1.501 . S
C144 C145 1.387 . S
C144 N147 1.341 . S
C145 C143 1.400 . S
C145 C144 1.387 . S
N146 Co137 2.022 . S
N146 C143 1.351 . S
N146 N147 1.365 . S
N147 C144 1.341 . S
N147 N146 1.365 . S
N147 H167 0.862 . S
C148 C143 1.501 . S
C148 H149 0.961 . S
C148 H150 0.961 . S
C148 H151 0.960 . S
H149 C148 0.961 . S
H150 C148 0.961 . S
H151 C148 0.960 . S
C152 N153 1.342 . S
C152 C156 1.401 . S
C152 C157 1.499 . S
N153 Co136 1.989 . S
N153 C152 1.342 . S
N153 N154 1.388 . S
N154 Co137 1.993 . S
N154 N153 1.388 . S
N154 C155 1.346 . S
C155 N154 1.346 . S
C155 C156 1.396 . S
C155 C165 1.510 . S
C156 C152 1.401 . S
C156 C155 1.396 . S
C157 C152 1.499 . S
C157 H158 0.959 . S
C157 H159 0.960 . S
C157 H160 0.961 . S
H158 C157 0.959 . S
H159 C157 0.960 . S
H160 C157 0.961 . S
O161 Co136 1.967 . S
O161 C169 1.258 . S
O162 Co137 1.941 . S
O162 C169 1.266 . S
H163 C165 0.959 . S
H164 C165 0.961 . S
C165 C155 1.510 . S
C165 H163 0.959 . S
C165 H164 0.961 . S
C165 H166 0.960 . S
H166 C165 0.960 . S
H167 N147 0.862 . S
O168 Co136 1.920 . S
O168 C141 1.289 . S
C169 O161 1.258 . S
C169 O162 1.266 . S
Co170 O173 1.970 . S
Co170 N187 1.989 . S
Co170 O195 1.967 . S
Co170 O202 1.920 . S
Co171 O174 1.966 . S
Co171 N180 2.022 . S
Co171 N188 1.993 . S
Co171 O196 1.941 . S
C172 O173 1.258 . S
C172 O174 1.263 . S
O173 Co170 1.970 . S
O173 C172 1.258 . S
O174 Co171 1.966 . S
O174 C172 1.263 . S
C175 O176 1.235 . S
C175 O202 1.289 . S
O176 C175 1.235 . S
C177 C179 1.400 . S
C177 N180 1.351 . S
C177 C182 1.501 . S
C178 C179 1.387 . S
C178 N181 1.341 . S
C179 C177 1.400 . S
C179 C178 1.387 . S
N180 Co171 2.022 . S
N180 C177 1.351 . S
N180 N181 1.365 . S
N181 C178 1.341 . S
N181 N180 1.365 . S
N181 H201 0.862 . S
C182 C177 1.501 . S
C182 H183 0.961 . S
C182 H184 0.961 . S
C182 H185 0.960 . S
H183 C182 0.961 . S
H184 C182 0.961 . S
H185 C182 0.960 . S
C186 N187 1.342 . S
C186 C190 1.401 . S
C186 C191 1.499 . S
N187 Co170 1.989 . S
N187 C186 1.342 . S
N187 N188 1.388 . S
N188 Co171 1.993 . S
N188 N187 1.388 . S
N188 C189 1.346 . S
C189 N188 1.346 . S
C189 C190 1.396 . S
C189 C199 1.510 . S
C190 C186 1.401 . S
C190 C189 1.396 . S
C191 C186 1.499 . S
C191 H192 0.959 . S
C191 H193 0.960 . S
C191 H194 0.961 . S
H192 C191 0.959 . S
H193 C191 0.960 . S
H194 C191 0.961 . S
O195 Co170 1.967 . S
O195 C203 1.258 . S
O196 Co171 1.941 . S
O196 C203 1.266 . S
H197 C199 0.959 . S
H198 C199 0.961 . S
C199 C189 1.510 . S
C199 H197 0.959 . S
C199 H198 0.961 . S
C199 H200 0.960 . S
H200 C199 0.960 . S
H201 N181 0.862 . S
O202 Co170 1.920 . S
O202 C175 1.289 . S
C203 O195 1.258 . S
C203 O196 1.266 . S
Co204 O207 1.970 . S
Co204 N221 1.989 . S
Co204 O229 1.967 . S
Co204 O236 1.920 . S
Co205 O208 1.966 . S
Co205 N214 2.022 . S
Co205 N222 1.993 . S
Co205 O230 1.941 . S
C206 O207 1.258 . S
C206 O208 1.263 . S
O207 Co204 1.970 . S
O207 C206 1.258 . S
O208 Co205 1.966 . S
O208 C206 1.263 . S
C209 O210 1.235 . S
C209 O236 1.289 . S
O210 C209 1.235 . S
C211 C213 1.400 . S
C211 N214 1.351 . S
C211 C216 1.501 . S
C212 C213 1.387 . S
C212 N215 1.341 . S
C213 C211 1.400 . S
C213 C212 1.387 . S
N214 Co205 2.022 . S
N214 C211 1.351 . S
N214 N215 1.365 . S
N215 C212 1.341 . S
N215 N214 1.365 . S
N215 H235 0.862 . S
C216 C211 1.501 . S
C216 H217 0.961 . S
C216 H218 0.961 . S
C216 H219 0.960 . S
H217 C216 0.961 . S
H218 C216 0.961 . S
H219 C216 0.960 . S
C220 N221 1.342 . S
C220 C224 1.401 . S
C220 C225 1.499 . S
N221 Co204 1.989 . S
N221 C220 1.342 . S
N221 N222 1.388 . S
N222 Co205 1.993 . S
N222 N221 1.388 . S
N222 C223 1.346 . S
C223 N222 1.346 . S
C223 C224 1.396 . S
C223 C233 1.510 . S
C224 C220 1.401 . S
C224 C223 1.396 . S
C225 C220 1.499 . S
C225 H226 0.959 . S
C225 H227 0.960 . S
C225 H228 0.961 . S
H226 C225 0.959 . S
H227 C225 0.960 . S
H228 C225 0.961 . S
O229 Co204 1.967 . S
O229 C237 1.258 . S
O230 Co205 1.941 . S
O230 C237 1.266 . S
H231 C233 0.959 . S
H232 C233 0.961 . S
C233 C223 1.510 . S
C233 H231 0.959 . S
C233 H232 0.961 . S
C233 H234 0.960 . S
H234 C233 0.960 . S
H235 N215 0.862 . S
O236 Co204 1.920 . S
O236 C209 1.289 . S
C237 O229 1.258 . S
C237 O230 1.266 . S
Co238 O241 1.970 . S
Co238 N255 1.989 . S
Co238 O263 1.967 . S
Co238 O270 1.920 . S
Co239 O242 1.966 . S
Co239 N248 2.022 . S
Co239 N256 1.993 . S
Co239 O264 1.941 . S
C240 O241 1.258 . S
C240 O242 1.263 . S
O241 Co238 1.970 . S
O241 C240 1.258 . S
O242 Co239 1.966 . S
O242 C240 1.263 . S
C243 O244 1.235 . S
C243 O270 1.289 . S
O244 C243 1.235 . S
C245 C247 1.400 . S
C245 N248 1.351 . S
C245 C250 1.501 . S
C246 C247 1.387 . S
C246 N249 1.341 . S
C247 C245 1.400 . S
C247 C246 1.387 . S
N248 Co239 2.022 . S
N248 C245 1.351 . S
N248 N249 1.365 . S
N249 C246 1.341 . S
N249 N248 1.365 . S
N249 H269 0.862 . S
C250 C245 1.501 . S
C250 H251 0.961 . S
C250 H252 0.961 . S
C250 H253 0.960 . S
H251 C250 0.961 . S
H252 C250 0.961 . S
H253 C250 0.960 . S
C254 N255 1.342 . S
C254 C258 1.401 . S
C254 C259 1.499 . S
N255 Co238 1.989 . S
N255 C254 1.342 . S
N255 N256 1.388 . S
N256 Co239 1.993 . S
N256 N255 1.388 . S
N256 C257 1.346 . S
C257 N256 1.346 . S
C257 C258 1.396 . S
C257 C267 1.510 . S
C258 C254 1.401 . S
C258 C257 1.396 . S
C259 C254 1.499 . S
C259 H260 0.959 . S
C259 H261 0.960 . S
C259 H262 0.961 . S
H260 C259 0.959 . S
H261 C259 0.960 . S
H262 C259 0.961 . S
O263 Co238 1.967 . S
O263 C271 1.258 . S
O264 Co239 1.941 . S
O264 C271 1.266 . S
H265 C267 0.959 . S
H266 C267 0.961 . S
C267 C257 1.510 . S
C267 H265 0.959 . S
C267 H266 0.961 . S
C267 H268 0.960 . S
H268 C267 0.960 . S
H269 N249 0.862 . S
O270 Co238 1.920 . S
O270 C243 1.289 . S
C271 O263 1.258 . S
C271 O264 1.266 . S
Co272 O275 1.970 . S
Co272 N289 1.989 . S
Co272 O297 1.967 . S
Co272 O304 1.920 . S
Co273 O276 1.966 . S
Co273 N282 2.022 . S
Co273 N290 1.993 . S
Co273 O298 1.941 . S
C274 O275 1.258 . S
C274 O276 1.263 . S
O275 Co272 1.970 . S
O275 C274 1.258 . S
O276 Co273 1.966 . S
O276 C274 1.263 . S
C277 O278 1.235 . S
C277 O304 1.289 . S
O278 C277 1.235 . S
C279 C281 1.400 . S
C279 N282 1.351 . S
C279 C284 1.501 . S
C280 C281 1.387 . S
C280 N283 1.341 . S
C281 C279 1.400 . S
C281 C280 1.387 . S
N282 Co273 2.022 . S
N282 C279 1.351 . S
N282 N283 1.365 . S
N283 C280 1.341 . S
N283 N282 1.365 . S
N283 H303 0.862 . S
C284 C279 1.501 . S
C284 H285 0.961 . S
C284 H286 0.961 . S
C284 H287 0.960 . S
H285 C284 0.961 . S
H286 C284 0.961 . S
H287 C284 0.960 . S
C288 N289 1.342 . S
C288 C292 1.401 . S
C288 C293 1.499 . S
N289 Co272 1.989 . S
N289 C288 1.342 . S
N289 N290 1.388 . S
N290 Co273 1.993 . S
N290 N289 1.388 . S
N290 C291 1.346 . S
C291 N290 1.346 . S
C291 C292 1.396 . S
C291 C301 1.510 . S
C292 C288 1.401 . S
C292 C291 1.396 . S
C293 C288 1.499 . S
C293 H294 0.959 . S
C293 H295 0.960 . S
C293 H296 0.961 . S
H294 C293 0.959 . S
H295 C293 0.960 . S
H296 C293 0.961 . S
O297 Co272 1.967 . S
O297 C305 1.258 . S
O298 Co273 1.941 . S
O298 C305 1.266 . S
H299 C301 0.959 . S
H300 C301 0.961 . S
C301 C291 1.510 . S
C301 H299 0.959 . S
C301 H300 0.961 . S
C301 H302 0.960 . S
H302 C301 0.960 . S
H303 N283 0.862 . S
O304 Co272 1.920 . S
O304 C277 1.289 . S
C305 O297 1.258 . S
C305 O298 1.266 . S
Co306 O309 1.970 . S
Co306 N323 1.989 1_455 S
Co306 O331 1.967 . S
Co306 O338 1.920 . S
Co307 O310 1.966 1_655 S
Co307 N316 2.022 . S
Co307 N324 1.993 . S
Co307 O332 1.941 . S
C308 O309 1.258 . S
C308 O310 1.263 . S
O309 Co306 1.970 . S
O309 C308 1.258 . S
O310 Co307 1.966 1_455 S
O310 C308 1.263 . S
C311 O312 1.235 . S
C311 O338 1.289 . S
O312 C311 1.235 . S
C313 C315 1.400 . S
C313 N316 1.351 . S
C313 C318 1.501 . S
C314 C315 1.387 . S
C314 N317 1.341 . S
C315 C313 1.400 . S
C315 C314 1.387 . S
N316 Co307 2.022 . S
N316 C313 1.351 . S
N316 N317 1.365 . S
N317 C314 1.341 . S
N317 N316 1.365 . S
N317 H337 0.862 . S
C318 C313 1.501 . S
C318 H319 0.961 . S
C318 H320 0.961 . S
C318 H321 0.960 . S
H319 C318 0.961 . S
H320 C318 0.961 . S
H321 C318 0.960 . S
C322 N323 1.342 . S
C322 C326 1.401 . S
C322 C327 1.499 1_655 S
N323 Co306 1.989 1_655 S
N323 C322 1.342 . S
N323 N324 1.388 . S
N324 Co307 1.993 . S
N324 N323 1.388 . S
N324 C325 1.346 . S
C325 N324 1.346 . S
C325 C326 1.396 . S
C325 C335 1.510 . S
C326 C322 1.401 . S
C326 C325 1.396 . S
C327 C322 1.499 1_455 S
C327 H328 0.959 . S
C327 H329 0.960 . S
C327 H330 0.961 1_455 S
H328 C327 0.959 . S
H329 C327 0.960 . S
H330 C327 0.961 1_655 S
O331 Co306 1.967 . S
O331 C339 1.258 1_455 S
O332 Co307 1.941 . S
O332 C339 1.266 . S
H333 C335 0.959 . S
H334 C335 0.961 . S
C335 C325 1.510 . S
C335 H333 0.959 . S
C335 H334 0.961 . S
C335 H336 0.960 . S
H336 C335 0.960 . S
H337 N317 0.862 . S
O338 Co306 1.920 . S
O338 C311 1.289 . S
C339 O331 1.258 1_655 S
C339 O332 1.266 . S
Co340 O343 1.970 . S
Co340 N357 1.989 . S
Co340 O365 1.967 . S
Co340 O372 1.920 . S
Co341 O344 1.966 . S
Co341 N350 2.022 . S
Co341 N358 1.993 . S
Co341 O366 1.941 . S
C342 O343 1.258 . S
C342 O344 1.263 . S
O343 Co340 1.970 . S
O343 C342 1.258 . S
O344 Co341 1.966 . S
O344 C342 1.263 . S
C345 O346 1.235 . S
C345 O372 1.289 . S
O346 C345 1.235 . S
C347 C349 1.400 . S
C347 N350 1.351 . S
C347 C352 1.501 . S
C348 C349 1.387 . S
C348 N351 1.341 . S
C349 C347 1.400 . S
C349 C348 1.387 . S
N350 Co341 2.022 . S
N350 C347 1.351 . S
N350 N351 1.365 . S
N351 C348 1.341 . S
N351 N350 1.365 . S
N351 H371 0.862 . S
C352 C347 1.501 . S
C352 H353 0.961 . S
C352 H354 0.961 . S
C352 H355 0.960 . S
H353 C352 0.961 . S
H354 C352 0.961 . S
H355 C352 0.960 . S
C356 N357 1.342 . S
C356 C360 1.401 . S
C356 C361 1.499 . S
N357 Co340 1.989 . S
N357 C356 1.342 . S
N357 N358 1.388 . S
N358 Co341 1.993 . S
N358 N357 1.388 . S
N358 C359 1.346 . S
C359 N358 1.346 . S
C359 C360 1.396 . S
C359 C369 1.510 . S
C360 C356 1.401 . S
C360 C359 1.396 . S
C361 C356 1.499 . S
C361 H362 0.959 . S
C361 H363 0.960 . S
C361 H364 0.961 . S
H362 C361 0.959 . S
H363 C361 0.960 . S
H364 C361 0.961 . S
O365 Co340 1.967 . S
O365 C373 1.258 . S
O366 Co341 1.941 . S
O366 C373 1.266 . S
H367 C369 0.959 . S
H368 C369 0.961 . S
C369 C359 1.510 . S
C369 H367 0.959 . S
C369 H368 0.961 . S
C369 H370 0.960 . S
H370 C369 0.960 . S
H371 N351 0.862 . S
O372 Co340 1.920 . S
O372 C345 1.289 . S
C373 O365 1.258 . S
C373 O366 1.266 . S
Co374 O377 1.970 . S
Co374 N391 1.989 1_565 S
Co374 O399 1.967 . S
Co374 O406 1.920 . S
Co375 O378 1.966 1_545 S
Co375 N384 2.022 . S
Co375 N392 1.993 . S
Co375 O400 1.941 . S
C376 O377 1.258 . S
C376 O378 1.263 . S
O377 Co374 1.970 . S
O377 C376 1.258 . S
O378 Co375 1.966 1_565 S
O378 C376 1.263 . S
C379 O380 1.235 . S
C379 O406 1.289 . S
O380 C379 1.235 . S
C381 C383 1.400 . S
C381 N384 1.351 . S
C381 C386 1.501 . S
C382 C383 1.387 . S
C382 N385 1.341 . S
C383 C381 1.400 . S
C383 C382 1.387 . S
N384 Co375 2.022 . S
N384 C381 1.351 . S
N384 N385 1.365 . S
N385 C382 1.341 . S
N385 N384 1.365 . S
N385 H405 0.862 . S
C386 C381 1.501 . S
C386 H387 0.961 . S
C386 H388 0.961 . S
C386 H389 0.960 . S
H387 C386 0.961 . S
H388 C386 0.961 . S
H389 C386 0.960 . S
C390 N391 1.342 . S
C390 C394 1.401 . S
C390 C395 1.499 1_545 S
N391 Co374 1.989 1_545 S
N391 C390 1.342 . S
N391 N392 1.388 . S
N392 Co375 1.993 . S
N392 N391 1.388 . S
N392 C393 1.346 . S
C393 N392 1.346 . S
C393 C394 1.396 . S
C393 C403 1.510 . S
C394 C390 1.401 . S
C394 C393 1.396 . S
C395 C390 1.499 1_565 S
C395 H396 0.959 . S
C395 H397 0.960 . S
C395 H398 0.961 1_565 S
H396 C395 0.959 . S
H397 C395 0.960 . S
H398 C395 0.961 1_545 S
O399 Co374 1.967 . S
O399 C407 1.258 1_565 S
O400 Co375 1.941 . S
O400 C407 1.266 . S
H401 C403 0.959 . S
H402 C403 0.961 . S
C403 C393 1.510 . S
C403 H401 0.959 . S
C403 H402 0.961 . S
C403 H404 0.960 . S
H404 C403 0.960 . S
H405 N385 0.862 . S
O406 Co374 1.920 . S
O406 C379 1.289 . S
C407 O399 1.258 1_545 S
C407 O400 1.266 . S
Co408 O411 1.970 . S
Co408 N425 1.989 1_545 S
Co408 O433 1.967 . S
Co408 O440 1.920 . S
Co409 O412 1.966 1_565 S
Co409 N418 2.022 . S
Co409 N426 1.993 . S
Co409 O434 1.941 . S
C410 O411 1.258 . S
C410 O412 1.263 . S
O411 Co408 1.970 . S
O411 C410 1.258 . S
O412 Co409 1.966 1_545 S
O412 C410 1.263 . S
C413 O414 1.235 . S
C413 O440 1.289 . S
O414 C413 1.235 . S
C415 C417 1.400 . S
C415 N418 1.351 . S
C415 C420 1.501 . S
C416 C417 1.387 . S
C416 N419 1.341 . S
C417 C415 1.400 . S
C417 C416 1.387 . S
N418 Co409 2.022 . S
N418 C415 1.351 . S
N418 N419 1.365 . S
N419 C416 1.341 . S
N419 N418 1.365 . S
N419 H439 0.862 . S
C420 C415 1.501 . S
C420 H421 0.961 . S
C420 H422 0.961 . S
C420 H423 0.960 . S
H421 C420 0.961 . S
H422 C420 0.961 . S
H423 C420 0.960 . S
C424 N425 1.342 . S
C424 C428 1.401 . S
C424 C429 1.499 1_565 S
N425 Co408 1.989 1_565 S
N425 C424 1.342 . S
N425 N426 1.388 . S
N426 Co409 1.993 . S
N426 N425 1.388 . S
N426 C427 1.346 . S
C427 N426 1.346 . S
C427 C428 1.396 . S
C427 C437 1.510 . S
C428 C424 1.401 . S
C428 C427 1.396 . S
C429 C424 1.499 1_545 S
C429 H430 0.959 . S
C429 H431 0.960 . S
C429 H432 0.961 1_545 S
H430 C429 0.959 . S
H431 C429 0.960 . S
H432 C429 0.961 1_565 S
O433 Co408 1.967 . S
O433 C441 1.258 1_545 S
O434 Co409 1.941 . S
O434 C441 1.266 . S
H435 C437 0.959 . S
H436 C437 0.961 . S
C437 C427 1.510 . S
C437 H435 0.959 . S
C437 H436 0.961 . S
C437 H438 0.960 . S
H438 C437 0.960 . S
H439 N419 0.862 . S
O440 Co408 1.920 . S
O440 C413 1.289 . S
C441 O433 1.258 1_565 S
C441 O434 1.266 . S
Co442 O445 1.970 . S
Co442 N459 1.989 1_655 S
Co442 O467 1.967 . S
Co442 O474 1.920 . S
Co443 O446 1.966 1_455 S
Co443 N452 2.022 . S
Co443 N460 1.993 . S
Co443 O468 1.941 . S
C444 O445 1.258 . S
C444 O446 1.263 . S
O445 Co442 1.970 . S
O445 C444 1.258 . S
O446 Co443 1.966 1_655 S
O446 C444 1.263 . S
C447 O448 1.235 . S
C447 O474 1.289 . S
O448 C447 1.235 . S
C449 C451 1.400 . S
C449 N452 1.351 . S
C449 C454 1.501 . S
C450 C451 1.387 . S
C450 N453 1.341 . S
C451 C449 1.400 . S
C451 C450 1.387 . S
N452 Co443 2.022 . S
N452 C449 1.351 . S
N452 N453 1.365 . S
N453 C450 1.341 . S
N453 N452 1.365 . S
N453 H473 0.862 . S
C454 C449 1.501 . S
C454 H455 0.961 . S
C454 H456 0.961 . S
C454 H457 0.960 . S
H455 C454 0.961 . S
H456 C454 0.961 . S
H457 C454 0.960 . S
C458 N459 1.342 . S
C458 C462 1.401 . S
C458 C463 1.499 1_455 S
N459 Co442 1.989 1_455 S
N459 C458 1.342 . S
N459 N460 1.388 . S
N460 Co443 1.993 . S
N460 N459 1.388 . S
N460 C461 1.346 . S
C461 N460 1.346 . S
C461 C462 1.396 . S
C461 C471 1.510 . S
C462 C458 1.401 . S
C462 C461 1.396 . S
C463 C458 1.499 1_655 S
C463 H464 0.959 . S
C463 H465 0.960 . S
C463 H466 0.961 1_655 S
H464 C463 0.959 . S
H465 C463 0.960 . S
H466 C463 0.961 1_455 S
O467 Co442 1.967 . S
O467 C475 1.258 1_655 S
O468 Co443 1.941 . S
O468 C475 1.266 . S
H469 C471 0.959 . S
H470 C471 0.961 . S
C471 C461 1.510 . S
C471 H469 0.959 . S
C471 H470 0.961 . S
C471 H472 0.960 . S
H472 C471 0.960 . S
H473 N453 0.862 . S
O474 Co442 1.920 . S
O474 C447 1.289 . S
C475 O467 1.258 1_455 S
C475 O468 1.266 . S
Co476 O479 1.970 . S
Co476 N493 1.989 . S
Co476 O501 1.967 . S
Co476 O508 1.920 . S
Co477 O480 1.966 . S
Co477 N486 2.022 . S
Co477 N494 1.993 . S
Co477 O502 1.941 . S
C478 O479 1.258 . S
C478 O480 1.263 . S
O479 Co476 1.970 . S
O479 C478 1.258 . S
O480 Co477 1.966 . S
O480 C478 1.263 . S
C481 O482 1.235 . S
C481 O508 1.289 . S
O482 C481 1.235 . S
C483 C485 1.400 . S
C483 N486 1.351 . S
C483 C488 1.501 . S
C484 C485 1.387 . S
C484 N487 1.341 . S
C485 C483 1.400 . S
C485 C484 1.387 . S
N486 Co477 2.022 . S
N486 C483 1.351 . S
N486 N487 1.365 . S
N487 C484 1.341 . S
N487 N486 1.365 . S
N487 H507 0.862 . S
C488 C483 1.501 . S
C488 H489 0.961 . S
C488 H490 0.961 . S
C488 H491 0.960 . S
H489 C488 0.961 . S
H490 C488 0.961 . S
H491 C488 0.960 . S
C492 N493 1.342 . S
C492 C496 1.401 . S
C492 C497 1.499 . S
N493 Co476 1.989 . S
N493 C492 1.342 . S
N493 N494 1.388 . S
N494 Co477 1.993 . S
N494 N493 1.388 . S
N494 C495 1.346 . S
C495 N494 1.346 . S
C495 C496 1.396 . S
C495 C505 1.510 . S
C496 C492 1.401 . S
C496 C495 1.396 . S
C497 C492 1.499 . S
C497 H498 0.959 . S
C497 H499 0.960 . S
C497 H500 0.961 . S
H498 C497 0.959 . S
H499 C497 0.960 . S
H500 C497 0.961 . S
O501 Co476 1.967 . S
O501 C509 1.258 . S
O502 Co477 1.941 . S
O502 C509 1.266 . S
H503 C505 0.959 . S
H504 C505 0.961 . S
C505 C495 1.510 . S
C505 H503 0.959 . S
C505 H504 0.961 . S
C505 H506 0.960 . S
H506 C505 0.960 . S
H507 N487 0.862 . S
O508 Co476 1.920 . S
O508 C481 1.289 . S
C509 O501 1.258 . S
C509 O502 1.266 . S
Co510 O513 1.970 . S
Co510 N527 1.989 . S
Co510 O535 1.967 . S
Co510 O542 1.920 . S
Co511 O514 1.966 . S
Co511 N520 2.022 . S
Co511 N528 1.993 . S
Co511 O536 1.941 . S
C512 O513 1.258 . S
C512 O514 1.263 . S
O513 Co510 1.970 . S
O513 C512 1.258 . S
O514 Co511 1.966 . S
O514 C512 1.263 . S
C515 O516 1.235 . S
C515 O542 1.289 . S
O516 C515 1.235 . S
C517 C519 1.400 . S
C517 N520 1.351 . S
C517 C522 1.501 . S
C518 C519 1.387 . S
C518 N521 1.341 . S
C519 C517 1.400 . S
C519 C518 1.387 . S
N520 Co511 2.022 . S
N520 C517 1.351 . S
N520 N521 1.365 . S
N521 C518 1.341 . S
N521 N520 1.365 . S
N521 H541 0.862 . S
C522 C517 1.501 . S
C522 H523 0.961 . S
C522 H524 0.961 . S
C522 H525 0.960 . S
H523 C522 0.961 . S
H524 C522 0.961 . S
H525 C522 0.960 . S
C526 N527 1.342 . S
C526 C530 1.401 . S
C526 C531 1.499 . S
N527 Co510 1.989 . S
N527 C526 1.342 . S
N527 N528 1.388 . S
N528 Co511 1.993 . S
N528 N527 1.388 . S
N528 C529 1.346 . S
C529 N528 1.346 . S
C529 C530 1.396 . S
C529 C539 1.510 . S
C530 C526 1.401 . S
C530 C529 1.396 . S
C531 C526 1.499 . S
C531 H532 0.959 . S
C531 H533 0.960 . S
C531 H534 0.961 . S
H532 C531 0.959 . S
H533 C531 0.960 . S
H534 C531 0.961 . S
O535 Co510 1.967 . S
O535 C543 1.258 . S
O536 Co511 1.941 . S
O536 C543 1.266 . S
H537 C539 0.959 . S
H538 C539 0.961 . S
C539 C529 1.510 . S
C539 H537 0.959 . S
C539 H538 0.961 . S
C539 H540 0.960 . S
H540 C539 0.960 . S
H541 N521 0.862 . S
O542 Co510 1.920 . S
O542 C515 1.289 . S
C543 O535 1.258 . S
C543 O536 1.266 . S
Co544 O547 1.970 . S
Co544 N561 1.989 . S
Co544 O569 1.967 . S
Co544 O576 1.920 . S
Co545 O548 1.966 . S
Co545 N554 2.022 . S
Co545 N562 1.993 . S
Co545 O570 1.941 . S
C546 O547 1.258 . S
C546 O548 1.263 . S
O547 Co544 1.970 . S
O547 C546 1.258 . S
O548 Co545 1.966 . S
O548 C546 1.263 . S
C549 O550 1.235 . S
C549 O576 1.289 . S
O550 C549 1.235 . S
C551 C553 1.400 . S
C551 N554 1.351 . S
C551 C556 1.501 . S
C552 C553 1.387 . S
C552 N555 1.341 . S
C553 C551 1.400 . S
C553 C552 1.387 . S
N554 Co545 2.022 . S
N554 C551 1.351 . S
N554 N555 1.365 . S
N555 C552 1.341 . S
N555 N554 1.365 . S
N555 H575 0.862 . S
C556 C551 1.501 . S
C556 H557 0.961 . S
C556 H558 0.961 . S
C556 H559 0.960 . S
H557 C556 0.961 . S
H558 C556 0.961 . S
H559 C556 0.960 . S
C560 N561 1.342 . S
C560 C564 1.401 . S
C560 C565 1.499 . S
N561 Co544 1.989 . S
N561 C560 1.342 . S
N561 N562 1.388 . S
N562 Co545 1.993 . S
N562 N561 1.388 . S
N562 C563 1.346 . S
C563 N562 1.346 . S
C563 C564 1.396 . S
C563 C573 1.510 . S
C564 C560 1.401 . S
C564 C563 1.396 . S
C565 C560 1.499 . S
C565 H566 0.959 . S
C565 H567 0.960 . S
C565 H568 0.961 . S
H566 C565 0.959 . S
H567 C565 0.960 . S
H568 C565 0.961 . S
O569 Co544 1.967 . S
O569 C577 1.258 . S
O570 Co545 1.941 . S
O570 C577 1.266 . S
H571 C573 0.959 . S
H572 C573 0.961 . S
C573 C563 1.510 . S
C573 H571 0.959 . S
C573 H572 0.961 . S
C573 H574 0.960 . S
H574 C573 0.960 . S
H575 N555 0.862 . S
O576 Co544 1.920 . S
O576 C549 1.289 . S
C577 O569 1.258 . S
C577 O570 1.266 . S
Co578 O581 1.970 . S
Co578 N595 1.989 . S
Co578 O603 1.967 . S
Co578 O610 1.920 . S
Co579 O582 1.966 . S
Co579 N588 2.022 . S
Co579 N596 1.993 . S
Co579 O604 1.941 . S
C580 O581 1.258 . S
C580 O582 1.263 . S
O581 Co578 1.970 . S
O581 C580 1.258 . S
O582 Co579 1.966 . S
O582 C580 1.263 . S
C583 O584 1.235 . S
C583 O610 1.289 . S
O584 C583 1.235 . S
C585 C587 1.400 . S
C585 N588 1.351 . S
C585 C590 1.501 . S
C586 C587 1.387 . S
C586 N589 1.341 . S
C587 C585 1.400 . S
C587 C586 1.387 . S
N588 Co579 2.022 . S
N588 C585 1.351 . S
N588 N589 1.365 . S
N589 C586 1.341 . S
N589 N588 1.365 . S
N589 H609 0.862 . S
C590 C585 1.501 . S
C590 H591 0.961 . S
C590 H592 0.961 . S
C590 H593 0.960 . S
H591 C590 0.961 . S
H592 C590 0.961 . S
H593 C590 0.960 . S
C594 N595 1.342 . S
C594 C598 1.401 . S
C594 C599 1.499 . S
N595 Co578 1.989 . S
N595 C594 1.342 . S
N595 N596 1.388 . S
N596 Co579 1.993 . S
N596 N595 1.388 . S
N596 C597 1.346 . S
C597 N596 1.346 . S
C597 C598 1.396 . S
C597 C607 1.510 . S
C598 C594 1.401 . S
C598 C597 1.396 . S
C599 C594 1.499 . S
C599 H600 0.959 . S
C599 H601 0.960 . S
C599 H602 0.961 . S
H600 C599 0.959 . S
H601 C599 0.960 . S
H602 C599 0.961 . S
O603 Co578 1.967 . S
O603 C611 1.258 . S
O604 Co579 1.941 . S
O604 C611 1.266 . S
H605 C607 0.959 . S
H606 C607 0.961 . S
C607 C597 1.510 . S
C607 H605 0.959 . S
C607 H606 0.961 . S
C607 H608 0.960 . S
H608 C607 0.960 . S
H609 N589 0.862 . S
O610 Co578 1.920 . S
O610 C583 1.289 . S
C611 O603 1.258 . S
C611 O604 1.266 . S
H612 C620 0.950 . S
H613 C625 0.950 . S
H614 C622 0.950 . S
H615 C624 0.950 1_554 S
H616 C626 0.950 . S
H617 C628 0.950 . S
H618 C630 0.950 1_556 S
H619 C631 0.950 . S
C620 H612 0.950 . S
C620 C621 1.386 . S
C620 C622 1.391 . S
C621 C620 1.386 . S
C621 C625 1.393 . S
C622 H614 0.950 . S
C622 C620 1.391 . S
C622 C623 1.400 . S
C623 C622 1.400 . S
C623 C624 1.398 . S
C623 C629 1.491 1_556 S
C624 H615 0.950 1_556 S
C624 C623 1.398 . S
C624 C625 1.391 . S
C625 H613 0.950 . S
C625 C621 1.393 . S
C625 C624 1.391 . S
C626 H616 0.950 . S
C626 C627 1.386 . S
C626 C628 1.391 . S
C627 C626 1.386 . S
C627 C631 1.393 . S
C628 H617 0.950 . S
C628 C626 1.391 . S
C628 C629 1.400 . S
C629 C623 1.491 1_554 S
C629 C628 1.400 . S
C629 C630 1.398 . S
C630 H618 0.950 1_554 S
C630 C629 1.398 . S
C630 C631 1.391 . S
C631 H619 0.950 . S
C631 C627 1.393 . S
C631 C630 1.391 . S
H632 C640 0.950 . S
H633 C645 0.950 . S
H634 C642 0.950 . S
H635 C644 0.950 . S
H636 C646 0.950 . S
H637 C648 0.950 . S
H638 C650 0.950 . S
H639 C651 0.950 . S
C640 H632 0.950 . S
C640 C641 1.386 . S
C640 C642 1.391 . S
C641 C640 1.386 . S
C641 C645 1.393 . S
C642 H634 0.950 . S
C642 C640 1.391 . S
C642 C643 1.400 . S
C643 C642 1.400 . S
C643 C644 1.398 . S
C643 C649 1.491 1_564 S
C644 H635 0.950 . S
C644 C643 1.398 . S
C644 C645 1.391 . S
C645 H633 0.950 . S
C645 C641 1.393 . S
C645 C644 1.391 . S
C646 H636 0.950 . S
C646 C647 1.386 . S
C646 C648 1.391 . S
C647 C646 1.386 . S
C647 C651 1.393 . S
C648 H637 0.950 . S
C648 C646 1.391 . S
C648 C649 1.400 . S
C649 C643 1.491 1_546 S
C649 C648 1.400 . S
C649 C650 1.398 . S
C650 H638 0.950 . S
C650 C649 1.398 . S
C650 C651 1.391 . S
C651 H639 0.950 . S
C651 C647 1.393 . S
C651 C650 1.391 . S
H652 C660 0.950 . S
H653 C665 0.950 . S
H654 C662 0.950 1_655 S
H655 C664 0.950 . S
H656 C666 0.950 . S
H657 C668 0.950 1_455 S
H658 C670 0.950 . S
H659 C671 0.950 . S
C660 H652 0.950 . S
C660 C661 1.386 . S
C660 C662 1.391 . S
C661 C660 1.386 . S
C661 C665 1.393 . S
C662 H654 0.950 1_455 S
C662 C660 1.391 . S
C662 C663 1.400 . S
C663 C662 1.400 . S
C663 C664 1.398 1_554 S
C663 C669 1.491 1_454 S
C664 H655 0.950 . S
C664 C663 1.398 1_556 S
C664 C665 1.391 1_556 S
C665 H653 0.950 . S
C665 C661 1.393 . S
C665 C664 1.391 1_554 S
C666 H656 0.950 . S
C666 C667 1.386 . S
C666 C668 1.391 . S
C667 C666 1.386 . S
C667 C671 1.393 . S
C668 H657 0.950 1_655 S
C668 C666 1.391 . S
C668 C669 1.400 . S
C669 C663 1.491 1_656 S
C669 C668 1.400 . S
C669 C670 1.398 1_556 S
C670 H658 0.950 . S
C670 C669 1.398 1_554 S
C670 C671 1.391 1_554 S
C671 H659 0.950 . S
C671 C667 1.393 . S
C671 C670 1.391 1_556 S
H672 C680 0.950 . S
H673 C685 0.950 . S
H674 C682 0.950 1_554 S
H675 C684 0.950 . S
H676 C686 0.950 . S
H677 C688 0.950 1_556 S
H678 C690 0.950 . S
H679 C691 0.950 . S
C680 H672 0.950 . S
C680 C681 1.386 . S
C680 C682 1.391 . S
C681 C680 1.386 . S
C681 C685 1.393 . S
C682 H674 0.950 1_556 S
C682 C680 1.391 . S
C682 C683 1.400 . S
C683 C682 1.400 . S
C683 C684 1.398 . S
C683 C689 1.491 1_556 S
C684 H675 0.950 . S
C684 C683 1.398 . S
C684 C685 1.391 . S
C685 H673 0.950 . S
C685 C681 1.393 . S
C685 C684 1.391 . S
C686 H676 0.950 . S
C686 C687 1.386 . S
C686 C688 1.391 . S
C687 C686 1.386 . S
C687 C691 1.393 . S
C688 H677 0.950 1_554 S
C688 C686 1.391 . S
C688 C689 1.400 . S
C689 C683 1.491 1_554 S
C689 C688 1.400 . S
C689 C690 1.398 . S
C690 H678 0.950 . S
C690 C689 1.398 . S
C690 C691 1.391 . S
C691 H679 0.950 . S
C691 C687 1.393 . S
C691 C690 1.391 . S
H692 C700 0.950 1_554 S
H693 C705 0.950 . S
H694 C702 0.950 . S
H695 C704 0.950 . S
H696 C706 0.950 1_556 S
H697 C708 0.950 . S
H698 C710 0.950 . S
H699 C711 0.950 . S
C700 H692 0.950 1_556 S
C700 C701 1.386 . S
C700 C702 1.391 1_556 S
C701 C700 1.386 . S
C701 C705 1.393 . S
C702 H694 0.950 . S
C702 C700 1.391 1_554 S
C702 C703 1.400 1_554 S
C703 C702 1.400 1_556 S
C703 C704 1.398 . S
C703 C709 1.491 1_546 S
C704 H695 0.950 . S
C704 C703 1.398 . S
C704 C705 1.391 . S
C705 H693 0.950 . S
C705 C701 1.393 . S
C705 C704 1.391 . S
C706 H696 0.950 1_554 S
C706 C707 1.386 . S
C706 C708 1.391 1_554 S
C707 C706 1.386 . S
C707 C711 1.393 . S
C708 H697 0.950 . S
C708 C706 1.391 1_556 S
C708 C709 1.400 1_556 S
C709 C703 1.491 1_564 S
C709 C708 1.400 1_554 S
C709 C710 1.398 . S
C710 H698 0.950 . S
C710 C709 1.398 . S
C710 C711 1.391 . S
C711 H699 0.950 . S
C711 C707 1.393 . S
C711 C710 1.391 . S
H712 C720 0.950 . S
H713 C725 0.950 1_554 S
H714 C722 0.950 . S
H715 C724 0.950 . S
H716 C726 0.950 . S
H717 C728 0.950 . S
H718 C730 0.950 . S
H719 C731 0.950 1_556 S
C720 H712 0.950 . S
C720 C721 1.386 . S
C720 C722 1.391 . S
C721 C720 1.386 . S
C721 C725 1.393 . S
C722 H714 0.950 . S
C722 C720 1.391 . S
C722 C723 1.400 . S
C723 C722 1.400 . S
C723 C724 1.398 1_556 S
C723 C729 1.491 1_656 S
C724 H715 0.950 . S
C724 C723 1.398 1_554 S
C724 C725 1.391 1_554 S
C725 H713 0.950 1_556 S
C725 C721 1.393 . S
C725 C724 1.391 1_556 S
C726 H716 0.950 . S
C726 C727 1.386 . S
C726 C728 1.391 . S
C727 C726 1.386 . S
C727 C731 1.393 . S
C728 H717 0.950 . S
C728 C726 1.391 . S
C728 C729 1.400 . S
C729 C723 1.491 1_454 S
C729 C728 1.400 . S
C729 C730 1.398 1_554 S
C730 H718 0.950 . S
C730 C729 1.398 1_556 S
C730 C731 1.391 1_556 S
C731 H719 0.950 1_554 S
C731 C727 1.393 . S
C731 C730 1.391 1_554 S
H732 C740 0.950 . S
H733 C745 0.950 . S
H734 C742 0.950 . S
H735 C744 0.950 . S
H736 C746 0.950 . S
H737 C748 0.950 . S
H738 C750 0.950 . S
H739 C751 0.950 . S
C740 H732 0.950 . S
C740 C741 1.386 . S
C740 C742 1.391 . S
C741 C740 1.386 . S
C741 C745 1.393 . S
C742 H734 0.950 . S
C742 C740 1.391 . S
C742 C743 1.400 . S
C743 C742 1.400 . S
C743 C744 1.398 . S
C743 C749 1.491 . S
C744 H735 0.950 . S
C744 C743 1.398 . S
C744 C745 1.391 . S
C745 H733 0.950 . S
C745 C741 1.393 . S
C745 C744 1.391 . S
C746 H736 0.950 . S
C746 C747 1.386 . S
C746 C748 1.391 . S
C747 C746 1.386 . S
C747 C751 1.393 . S
C748 H737 0.950 . S
C748 C746 1.391 . S
C748 C749 1.400 . S
C749 C743 1.491 . S
C749 C748 1.400 . S
C749 C750 1.398 . S
C750 H738 0.950 . S
C750 C749 1.398 . S
C750 C751 1.391 . S
C751 H739 0.950 . S
C751 C747 1.393 . S
C751 C750 1.391 . S
H752 C760 0.950 . S
H753 C765 0.950 . S
H754 C762 0.950 . S
H755 C764 0.950 . S
H756 C766 0.950 . S
H757 C768 0.950 . S
H758 C770 0.950 . S
H759 C771 0.950 . S
C760 H752 0.950 . S
C760 C761 1.386 . S
C760 C762 1.391 . S
C761 C760 1.386 . S
C761 C765 1.393 . S
C762 H754 0.950 . S
C762 C760 1.391 . S
C762 C763 1.400 . S
C763 C762 1.400 . S
C763 C764 1.398 . S
C763 C769 1.491 . S
C764 H755 0.950 . S
C764 C763 1.398 . S
C764 C765 1.391 . S
C765 H753 0.950 . S
C765 C761 1.393 . S
C765 C764 1.391 . S
C766 H756 0.950 . S
C766 C767 1.386 . S
C766 C768 1.391 . S
C767 C766 1.386 . S
C767 C771 1.393 . S
C768 H757 0.950 . S
C768 C766 1.391 . S
C768 C769 1.400 . S
C769 C763 1.491 . S
C769 C768 1.400 . S
C769 C770 1.398 . S
C770 H758 0.950 . S
C770 C769 1.398 . S
C770 C771 1.391 . S
C771 H759 0.950 . S
C771 C767 1.393 . S
C771 C770 1.391 . S
H772 C780 0.950 . S
H773 C785 0.950 . S
H774 C782 0.950 . S
H775 C784 0.950 . S
H776 C786 0.950 . S
H777 C788 0.950 . S
H778 C790 0.950 . S
H779 C791 0.950 . S
C780 H772 0.950 . S
C780 C781 1.386 . S
C780 C782 1.391 . S
C781 C780 1.386 . S
C781 C785 1.393 . S
C782 H774 0.950 . S
C782 C780 1.391 . S
C782 C783 1.400 . S
C783 C782 1.400 . S
C783 C784 1.398 . S
C783 C789 1.491 . S
C784 H775 0.950 . S
C784 C783 1.398 . S
C784 C785 1.391 . S
C785 H773 0.950 . S
C785 C781 1.393 . S
C785 C784 1.391 . S
C786 H776 0.950 . S
C786 C787 1.386 . S
C786 C788 1.391 . S
C787 C786 1.386 . S
C787 C791 1.393 . S
C788 H777 0.950 . S
C788 C786 1.391 . S
C788 C789 1.400 . S
C789 C783 1.491 . S
C789 C788 1.400 . S
C789 C790 1.398 . S
C790 H778 0.950 . S
C790 C789 1.398 . S
C790 C791 1.391 . S
C791 H779 0.950 . S
C791 C787 1.393 . S
C791 C790 1.391 . S
H792 C800 0.950 . S
H793 C805 0.950 . S
H794 C802 0.950 . S
H795 C804 0.950 . S
H796 C806 0.950 . S
H797 C808 0.950 . S
H798 C810 0.950 . S
H799 C811 0.950 . S
C800 H792 0.950 . S
C800 C801 1.386 . S
C800 C802 1.391 . S
C801 C800 1.386 . S
C801 C805 1.393 . S
C802 H794 0.950 . S
C802 C800 1.391 . S
C802 C803 1.400 . S
C803 C802 1.400 . S
C803 C804 1.398 . S
C803 C809 1.491 . S
C804 H795 0.950 . S
C804 C803 1.398 . S
C804 C805 1.391 . S
C805 H793 0.950 . S
C805 C801 1.393 . S
C805 C804 1.391 . S
C806 H796 0.950 . S
C806 C807 1.386 . S
C806 C808 1.391 . S
C807 C806 1.386 . S
C807 C811 1.393 . S
C808 H797 0.950 . S
C808 C806 1.391 . S
C808 C809 1.400 . S
C809 C803 1.491 . S
C809 C808 1.400 . S
C809 C810 1.398 . S
C810 H798 0.950 . S
C810 C809 1.398 . S
C810 C811 1.391 . S
C811 H799 0.950 . S
C811 C807 1.393 . S
C811 C810 1.391 . S
H812 C820 0.950 . S
H813 C825 0.950 . S
H814 C822 0.950 . S
H815 C824 0.950 . S
H816 C826 0.950 . S
H817 C828 0.950 . S
H818 C830 0.950 . S
H819 C831 0.950 . S
C820 H812 0.950 . S
C820 C821 1.386 . S
C820 C822 1.391 . S
C821 C820 1.386 . S
C821 C825 1.393 . S
C822 H814 0.950 . S
C822 C820 1.391 . S
C822 C823 1.400 . S
C823 C822 1.400 . S
C823 C824 1.398 . S
C823 C829 1.491 . S
C824 H815 0.950 . S
C824 C823 1.398 . S
C824 C825 1.391 . S
C825 H813 0.950 . S
C825 C821 1.393 . S
C825 C824 1.391 . S
C826 H816 0.950 . S
C826 C827 1.386 . S
C826 C828 1.391 . S
C827 C826 1.386 . S
C827 C831 1.393 . S
C828 H817 0.950 . S
C828 C826 1.391 . S
C828 C829 1.400 . S
C829 C823 1.491 . S
C829 C828 1.400 . S
C829 C830 1.398 . S
C830 H818 0.950 . S
C830 C829 1.398 . S
C830 C831 1.391 . S
C831 H819 0.950 . S
C831 C827 1.393 . S
C831 C830 1.391 . S
H832 C840 0.950 . S
H833 C845 0.950 . S
H834 C842 0.950 . S
H835 C844 0.950 . S
H836 C846 0.950 . S
H837 C848 0.950 . S
H838 C850 0.950 . S
H839 C851 0.950 . S
C840 H832 0.950 . S
C840 C841 1.386 . S
C840 C842 1.391 . S
C841 C840 1.386 . S
C841 C845 1.393 . S
C842 H834 0.950 . S
C842 C840 1.391 . S
C842 C843 1.400 . S
C843 C842 1.400 . S
C843 C844 1.398 . S
C843 C849 1.491 . S
C844 H835 0.950 . S
C844 C843 1.398 . S
C844 C845 1.391 . S
C845 H833 0.950 . S
C845 C841 1.393 . S
C845 C844 1.391 . S
C846 H836 0.950 . S
C846 C847 1.386 . S
C846 C848 1.391 . S
C847 C846 1.386 . S
C847 C851 1.393 . S
C848 H837 0.950 . S
C848 C846 1.391 . S
C848 C849 1.400 . S
C849 C843 1.491 . S
C849 C848 1.400 . S
C849 C850 1.398 . S
C850 H838 0.950 . S
C850 C849 1.398 . S
C850 C851 1.391 . S
C851 H839 0.950 . S
C851 C847 1.393 . S
C851 C850 1.391 . S
H852 C860 0.950 . S
H853 C865 0.950 . S
H854 C862 0.950 . S
H855 C864 0.950 . S
H856 C866 0.950 . S
H857 C868 0.950 . S
H858 C870 0.950 . S
H859 C871 0.950 . S
C860 H852 0.950 . S
C860 C861 1.386 . S
C860 C862 1.391 . S
C861 C860 1.386 . S
C861 C865 1.393 . S
C862 H854 0.950 . S
C862 C860 1.391 . S
C862 C863 1.400 . S
C863 C862 1.400 . S
C863 C864 1.398 . S
C863 C869 1.491 . S
C864 H855 0.950 . S
C864 C863 1.398 . S
C864 C865 1.391 . S
C865 H853 0.950 . S
C865 C861 1.393 . S
C865 C864 1.391 . S
C866 H856 0.950 . S
C866 C867 1.386 . S
C866 C868 1.391 . S
C867 C866 1.386 . S
C867 C871 1.393 . S
C868 H857 0.950 . S
C868 C866 1.391 . S
C868 C869 1.400 . S
C869 C863 1.491 . S
C869 C868 1.400 . S
C869 C870 1.398 . S
C870 H858 0.950 . S
C870 C869 1.398 . S
C870 C871 1.391 . S
C871 H859 0.950 . S
C871 C867 1.393 . S
C871 C870 1.391 . S
H872 C880 0.950 . S
H873 C885 0.950 . S
H874 C882 0.950 . S
H875 C884 0.950 . S
H876 C886 0.950 . S
H877 C888 0.950 . S
H878 C890 0.950 . S
H879 C891 0.950 . S
C880 H872 0.950 . S
C880 C881 1.386 . S
C880 C882 1.391 . S
C881 C880 1.386 . S
C881 C885 1.393 . S
C882 H874 0.950 . S
C882 C880 1.391 . S
C882 C883 1.400 . S
C883 C882 1.400 . S
C883 C884 1.398 . S
C883 C889 1.491 . S
C884 H875 0.950 . S
C884 C883 1.398 . S
C884 C885 1.391 . S
C885 H873 0.950 . S
C885 C881 1.393 . S
C885 C884 1.391 . S
C886 H876 0.950 . S
C886 C887 1.386 . S
C886 C888 1.391 . S
C887 C886 1.386 . S
C887 C891 1.393 . S
C888 H877 0.950 . S
C888 C886 1.391 . S
C888 C889 1.400 . S
C889 C883 1.491 . S
C889 C888 1.400 . S
C889 C890 1.398 . S
C890 H878 0.950 . S
C890 C889 1.398 . S
C890 C891 1.391 . S
C891 H879 0.950 . S
C891 C887 1.393 . S
C891 C890 1.391 . S
H892 C900 0.950 . S
H893 C905 0.950 . S
H894 C902 0.950 . S
H895 C904 0.950 . S
H896 C906 0.950 . S
H897 C908 0.950 . S
H898 C910 0.950 . S
H899 C911 0.950 . S
C900 H892 0.950 . S
C900 C901 1.386 . S
C900 C902 1.391 . S
C901 C900 1.386 . S
C901 C905 1.393 . S
C902 H894 0.950 . S
C902 C900 1.391 . S
C902 C903 1.400 . S
C903 C902 1.400 . S
C903 C904 1.398 . S
C903 C909 1.491 . S
C904 H895 0.950 . S
C904 C903 1.398 . S
C904 C905 1.391 . S
C905 H893 0.950 . S
C905 C901 1.393 . S
C905 C904 1.391 . S
C906 H896 0.950 . S
C906 C907 1.386 . S
C906 C908 1.391 . S
C907 C906 1.386 . S
C907 C911 1.393 . S
C908 H897 0.950 . S
C908 C906 1.391 . S
C908 C909 1.400 . S
C909 C903 1.491 . S
C909 C908 1.400 . S
C909 C910 1.398 . S
C910 H898 0.950 . S
C910 C909 1.398 . S
C910 C911 1.391 . S
C911 H899 0.950 . S
C911 C907 1.393 . S
C911 C910 1.391 . S
H912 C920 0.950 . S
H913 C925 0.950 . S
H914 C922 0.950 . S
H915 C924 0.950 . S
H916 C926 0.950 . S
H917 C928 0.950 . S
H918 C930 0.950 . S
H919 C931 0.950 . S
C920 H912 0.950 . S
C920 C921 1.386 . S
C920 C922 1.391 . S
C921 C920 1.386 . S
C921 C925 1.393 . S
C922 H914 0.950 . S
C922 C920 1.391 . S
C922 C923 1.400 . S
C923 C922 1.400 . S
C923 C924 1.398 . S
C923 C929 1.491 . S
C924 H915 0.950 . S
C924 C923 1.398 . S
C924 C925 1.391 . S
C925 H913 0.950 . S
C925 C921 1.393 . S
C925 C924 1.391 . S
C926 H916 0.950 . S
C926 C927 1.386 . S
C926 C928 1.391 . S
C927 C926 1.386 . S
C927 C931 1.393 . S
C928 H917 0.950 . S
C928 C926 1.391 . S
C928 C929 1.400 . S
C929 C923 1.491 . S
C929 C928 1.400 . S
C929 C930 1.398 . S
C930 H918 0.950 . S
C930 C929 1.398 . S
C930 C931 1.391 . S
C931 H919 0.950 . S
C931 C927 1.393 . S
C931 C930 1.391 . S
H932 C940 0.950 . S
H933 C945 0.950 . S
H934 C942 0.950 . S
H935 C944 0.950 . S
H936 C946 0.950 . S
H937 C948 0.950 . S
H938 C950 0.950 . S
H939 C951 0.950 . S
C940 H932 0.950 . S
C940 C941 1.386 . S
C940 C942 1.391 . S
C941 C940 1.386 . S
C941 C945 1.393 . S
C942 H934 0.950 . S
C942 C940 1.391 . S
C942 C943 1.400 . S
C943 C942 1.400 . S
C943 C944 1.398 . S
C943 C949 1.491 . S
C944 H935 0.950 . S
C944 C943 1.398 . S
C944 C945 1.391 . S
C945 H933 0.950 . S
C945 C941 1.393 . S
C945 C944 1.391 . S
C946 H936 0.950 . S
C946 C947 1.386 . S
C946 C948 1.391 . S
C947 C946 1.386 . S
C947 C951 1.393 . S
C948 H937 0.950 . S
C948 C946 1.391 . S
C948 C949 1.400 . S
C949 C943 1.491 . S
C949 C948 1.400 . S
C949 C950 1.398 . S
C950 H938 0.950 . S
C950 C949 1.398 . S
C950 C951 1.391 . S
C951 H939 0.950 . S
C951 C947 1.393 . S
C951 C950 1.391 . S
H952 C960 0.950 . S
H953 C965 0.950 . S
H954 C962 0.950 . S
H955 C964 0.950 . S
H956 C966 0.950 . S
H957 C968 0.950 . S
H958 C970 0.950 . S
H959 C971 0.950 . S
C960 H952 0.950 . S
C960 C961 1.386 . S
C960 C962 1.391 . S
C961 C960 1.386 . S
C961 C965 1.393 . S
C962 H954 0.950 . S
C962 C960 1.391 . S
C962 C963 1.400 . S
C963 C962 1.400 . S
C963 C964 1.398 . S
C963 C969 1.491 . S
C964 H955 0.950 . S
C964 C963 1.398 . S
C964 C965 1.391 . S
C965 H953 0.950 . S
C965 C961 1.393 . S
C965 C964 1.391 . S
C966 H956 0.950 . S
C966 C967 1.386 . S
C966 C968 1.391 . S
C967 C966 1.386 . S
C967 C971 1.393 . S
C968 H957 0.950 . S
C968 C966 1.391 . S
C968 C969 1.400 . S
C969 C963 1.491 . S
C969 C968 1.400 . S
C969 C970 1.398 . S
C970 H958 0.950 . S
C970 C969 1.398 . S
C970 C971 1.391 . S
C971 H959 0.950 . S
C971 C967 1.393 . S
C971 C970 1.391 . S
H972 C980 0.950 . S
H973 C985 0.950 . S
H974 C982 0.950 . S
H975 C984 0.950 . S
H976 C986 0.950 . S
H977 C988 0.950 . S
H978 C990 0.950 . S
H979 C991 0.950 . S
C980 H972 0.950 . S
C980 C981 1.386 . S
C980 C982 1.391 . S
C981 C980 1.386 . S
C981 C985 1.393 . S
C982 H974 0.950 . S
C982 C980 1.391 . S
C982 C983 1.400 . S
C983 C982 1.400 . S
C983 C984 1.398 . S
C983 C989 1.491 . S
C984 H975 0.950 . S
C984 C983 1.398 . S
C984 C985 1.391 . S
C985 H973 0.950 . S
C985 C981 1.393 . S
C985 C984 1.391 . S
C986 H976 0.950 . S
C986 C987 1.386 . S
C986 C988 1.391 . S
C987 C986 1.386 . S
C987 C991 1.393 . S
C988 H977 0.950 . S
C988 C986 1.391 . S
C988 C989 1.400 . S
C989 C983 1.491 . S
C989 C988 1.400 . S
C989 C990 1.398 . S
C990 H978 0.950 . S
C990 C989 1.398 . S
C990 C991 1.391 . S
C991 H979 0.950 . S
C991 C987 1.393 . S
C991 C990 1.391 . S
H992 C1000 0.950 . S
H993 C1005 0.950 . S
H994 C1002 0.950 . S
H995 C1004 0.950 . S
H996 C1006 0.950 . S
H997 C1008 0.950 . S
H998 C1010 0.950 . S
H999 C1011 0.950 . S
C1000 H992 0.950 . S
C1000 C1001 1.386 . S
C1000 C1002 1.391 . S
C1001 C1000 1.386 . S
C1001 C1005 1.393 . S
C1002 H994 0.950 . S
C1002 C1000 1.391 . S
C1002 C1003 1.400 . S
C1003 C1002 1.400 . S
C1003 C1004 1.398 . S
C1003 C1009 1.491 . S
C1004 H995 0.950 . S
C1004 C1003 1.398 . S
C1004 C1005 1.391 . S
C1005 H993 0.950 . S
C1005 C1001 1.393 . S
C1005 C1004 1.391 . S
C1006 H996 0.950 . S
C1006 C1007 1.386 . S
C1006 C1008 1.391 . S
C1007 C1006 1.386 . S
C1007 C1011 1.393 . S
C1008 H997 0.950 . S
C1008 C1006 1.391 . S
C1008 C1009 1.400 . S
C1009 C1003 1.491 . S
C1009 C1008 1.400 . S
C1009 C1010 1.398 . S
C1010 H998 0.950 . S
C1010 C1009 1.398 . S
C1010 C1011 1.391 . S
C1011 H999 0.950 . S
C1011 C1007 1.393 . S
C1011 C1010 1.391 . S
H1012 C1020 0.950 . S
H1013 C1025 0.950 . S
H1014 C1022 0.950 . S
H1015 C1024 0.950 . S
H1016 C1026 0.950 . S
H1017 C1028 0.950 . S
H1018 C1030 0.950 . S
H1019 C1031 0.950 . S
C1020 H1012 0.950 . S
C1020 C1021 1.386 . S
C1020 C1022 1.391 . S
C1021 C1020 1.386 . S
C1021 C1025 1.393 . S
C1022 H1014 0.950 . S
C1022 C1020 1.391 . S
C1022 C1023 1.400 . S
C1023 C1022 1.400 . S
C1023 C1024 1.398 . S
C1023 C1029 1.491 . S
C1024 H1015 0.950 . S
C1024 C1023 1.398 . S
C1024 C1025 1.391 . S
C1025 H1013 0.950 . S
C1025 C1021 1.393 . S
C1025 C1024 1.391 . S
C1026 H1016 0.950 . S
C1026 C1027 1.386 . S
C1026 C1028 1.391 . S
C1027 C1026 1.386 . S
C1027 C1031 1.393 . S
C1028 H1017 0.950 . S
C1028 C1026 1.391 . S
C1028 C1029 1.400 . S
C1029 C1023 1.491 . S
C1029 C1028 1.400 . S
C1029 C1030 1.398 . S
C1030 H1018 0.950 . S
C1030 C1029 1.398 . S
C1030 C1031 1.391 . S
C1031 H1019 0.950 . S
C1031 C1027 1.393 . S
C1031 C1030 1.391 . S
H1032 C1040 0.950 . S
H1033 C1045 0.950 . S
H1034 C1042 0.950 . S
H1035 C1044 0.950 . S
H1036 C1046 0.950 . S
H1037 C1048 0.950 . S
H1038 C1050 0.950 . S
H1039 C1051 0.950 . S
C1040 H1032 0.950 . S
C1040 C1041 1.386 . S
C1040 C1042 1.391 . S
C1041 C1040 1.386 . S
C1041 C1045 1.393 . S
C1042 H1034 0.950 . S
C1042 C1040 1.391 . S
C1042 C1043 1.400 . S
C1043 C1042 1.400 . S
C1043 C1044 1.398 . S
C1043 C1049 1.491 . S
C1044 H1035 0.950 . S
C1044 C1043 1.398 . S
C1044 C1045 1.391 . S
C1045 H1033 0.950 . S
C1045 C1041 1.393 . S
C1045 C1044 1.391 . S
C1046 H1036 0.950 . S
C1046 C1047 1.386 . S
C1046 C1048 1.391 . S
C1047 C1046 1.386 . S
C1047 C1051 1.393 . S
C1048 H1037 0.950 . S
C1048 C1046 1.391 . S
C1048 C1049 1.400 . S
C1049 C1043 1.491 . S
C1049 C1048 1.400 . S
C1049 C1050 1.398 . S
C1050 H1038 0.950 . S
C1050 C1049 1.398 . S
C1050 C1051 1.391 . S
C1051 H1039 0.950 . S
C1051 C1047 1.393 . S
C1051 C1050 1.391 . S
H1052 C1060 0.950 . S
H1053 C1065 0.950 . S
H1054 C1062 0.950 . S
H1055 C1064 0.950 . S
H1056 C1066 0.950 . S
H1057 C1068 0.950 . S
H1058 C1070 0.950 . S
H1059 C1071 0.950 . S
C1060 H1052 0.950 . S
C1060 C1061 1.386 . S
C1060 C1062 1.391 . S
C1061 C1060 1.386 . S
C1061 C1065 1.393 . S
C1062 H1054 0.950 . S
C1062 C1060 1.391 . S
C1062 C1063 1.400 . S
C1063 C1062 1.400 . S
C1063 C1064 1.398 . S
C1063 C1069 1.491 . S
C1064 H1055 0.950 . S
C1064 C1063 1.398 . S
C1064 C1065 1.391 . S
C1065 H1053 0.950 . S
C1065 C1061 1.393 . S
C1065 C1064 1.391 . S
C1066 H1056 0.950 . S
C1066 C1067 1.386 . S
C1066 C1068 1.391 . S
C1067 C1066 1.386 . S
C1067 C1071 1.393 . S
C1068 H1057 0.950 . S
C1068 C1066 1.391 . S
C1068 C1069 1.400 . S
C1069 C1063 1.491 . S
C1069 C1068 1.400 . S
C1069 C1070 1.398 . S
C1070 H1058 0.950 . S
C1070 C1069 1.398 . S
C1070 C1071 1.391 . S
C1071 H1059 0.950 . S
C1071 C1067 1.393 . S
C1071 C1070 1.391 . S
H1072 C1080 0.950 . S
H1073 C1085 0.950 . S
H1074 C1082 0.950 . S
H1075 C1084 0.950 . S
H1076 C1086 0.950 . S
H1077 C1088 0.950 . S
H1078 C1090 0.950 . S
H1079 C1091 0.950 . S
C1080 H1072 0.950 . S
C1080 C1081 1.386 . S
C1080 C1082 1.391 . S
C1081 C1080 1.386 . S
C1081 C1085 1.393 . S
C1082 H1074 0.950 . S
C1082 C1080 1.391 . S
C1082 C1083 1.400 . S
C1083 C1082 1.400 . S
C1083 C1084 1.398 . S
C1083 C1089 1.491 . S
C1084 H1075 0.950 . S
C1084 C1083 1.398 . S
C1084 C1085 1.391 . S
C1085 H1073 0.950 . S
C1085 C1081 1.393 . S
C1085 C1084 1.391 . S
C1086 H1076 0.950 . S
C1086 C1087 1.386 . S
C1086 C1088 1.391 . S
C1087 C1086 1.386 . S
C1087 C1091 1.393 . S
C1088 H1077 0.950 . S
C1088 C1086 1.391 . S
C1088 C1089 1.400 . S
C1089 C1083 1.491 . S
C1089 C1088 1.400 . S
C1089 C1090 1.398 . S
C1090 H1078 0.950 . S
C1090 C1089 1.398 . S
C1090 C1091 1.391 . S
C1091 H1079 0.950 . S
C1091 C1087 1.393 . S
C1091 C1090 1.391 . S
H1092 C1100 0.950 . S
H1093 C1105 0.950 . S
H1094 C1102 0.950 . S
H1095 C1104 0.950 . S
H1096 C1106 0.950 . S
H1097 C1108 0.950 . S
H1098 C1110 0.950 . S
H1099 C1111 0.950 . S
C1100 H1092 0.950 . S
C1100 C1101 1.386 . S
C1100 C1102 1.391 . S
C1101 C1100 1.386 . S
C1101 C1105 1.393 1_655 S
C1102 H1094 0.950 . S
C1102 C1100 1.391 . S
C1102 C1103 1.400 . S
C1103 C1102 1.400 . S
C1103 C1104 1.398 1_655 S
C1103 C1109 1.491 1_654 S
C1104 H1095 0.950 . S
C1104 C1103 1.398 1_455 S
C1104 C1105 1.391 . S
C1105 H1093 0.950 . S
C1105 C1101 1.393 1_455 S
C1105 C1104 1.391 . S
C1106 H1096 0.950 . S
C1106 C1107 1.386 . S
C1106 C1108 1.391 . S
C1107 C1106 1.386 . S
C1107 C1111 1.393 1_455 S
C1108 H1097 0.950 . S
C1108 C1106 1.391 . S
C1108 C1109 1.400 . S
C1109 C1103 1.491 1_456 S
C1109 C1108 1.400 . S
C1109 C1110 1.398 1_455 S
C1110 H1098 0.950 . S
C1110 C1109 1.398 1_655 S
C1110 C1111 1.391 . S
C1111 H1099 0.950 . S
C1111 C1107 1.393 1_655 S
C1111 C1110 1.391 . S
H1112 C1120 0.950 . S
H1113 C1125 0.950 . S
H1114 C1122 0.950 . S
H1115 C1124 0.950 . S
H1116 C1126 0.950 . S
H1117 C1128 0.950 . S
H1118 C1130 0.950 . S
H1119 C1131 0.950 . S
C1120 H1112 0.950 . S
C1120 C1121 1.386 . S
C1120 C1122 1.391 . S
C1121 C1120 1.386 . S
C1121 C1125 1.393 . S
C1122 H1114 0.950 . S
C1122 C1120 1.391 . S
C1122 C1123 1.400 . S
C1123 C1122 1.400 . S
C1123 C1124 1.398 . S
C1123 C1129 1.491 1_556 S
C1124 H1115 0.950 . S
C1124 C1123 1.398 . S
C1124 C1125 1.391 . S
C1125 H1113 0.950 . S
C1125 C1121 1.393 . S
C1125 C1124 1.391 . S
C1126 H1116 0.950 . S
C1126 C1127 1.386 . S
C1126 C1128 1.391 . S
C1127 C1126 1.386 . S
C1127 C1131 1.393 . S
C1128 H1117 0.950 . S
C1128 C1126 1.391 . S
C1128 C1129 1.400 . S
C1129 C1123 1.491 1_554 S
C1129 C1128 1.400 . S
C1129 C1130 1.398 . S
C1130 H1118 0.950 . S
C1130 C1129 1.398 . S
C1130 C1131 1.391 . S
C1131 H1119 0.950 . S
C1131 C1127 1.393 . S
C1131 C1130 1.391 . S
H1132 C1140 0.950 . S
H1133 C1145 0.950 . S
H1134 C1142 0.950 . S
H1135 C1144 0.950 . S
H1136 C1146 0.950 . S
H1137 C1148 0.950 . S
H1138 C1150 0.950 . S
H1139 C1151 0.950 . S
C1140 H1132 0.950 . S
C1140 C1141 1.386 . S
C1140 C1142 1.391 . S
C1141 C1140 1.386 . S
C1141 C1145 1.393 1_565 S
C1142 H1134 0.950 . S
C1142 C1140 1.391 . S
C1142 C1143 1.400 . S
C1143 C1142 1.400 . S
C1143 C1144 1.398 1_565 S
C1143 C1149 1.491 1_566 S
C1144 H1135 0.950 . S
C1144 C1143 1.398 1_545 S
C1144 C1145 1.391 . S
C1145 H1133 0.950 . S
C1145 C1141 1.393 1_545 S
C1145 C1144 1.391 . S
C1146 H1136 0.950 . S
C1146 C1147 1.386 . S
C1146 C1148 1.391 . S
C1147 C1146 1.386 . S
C1147 C1151 1.393 1_545 S
C1148 H1137 0.950 . S
C1148 C1146 1.391 . S
C1148 C1149 1.400 . S
C1149 C1143 1.491 1_544 S
C1149 C1148 1.400 . S
C1149 C1150 1.398 1_545 S
C1150 H1138 0.950 . S
C1150 C1149 1.398 1_565 S
C1150 C1151 1.391 . S
C1151 H1139 0.950 . S
C1151 C1147 1.393 1_565 S
C1151 C1150 1.391 . S
H1152 C1160 0.950 . S
H1153 C1165 0.950 . S
H1154 C1162 0.950 . S
H1155 C1164 0.950 . S
H1156 C1166 0.950 . S
H1157 C1168 0.950 . S
H1158 C1170 0.950 . S
H1159 C1171 0.950 . S
C1160 H1152 0.950 . S
C1160 C1161 1.386 . S
C1160 C1162 1.391 . S
C1161 C1160 1.386 . S
C1161 C1165 1.393 . S
C1162 H1154 0.950 . S
C1162 C1160 1.391 . S
C1162 C1163 1.400 . S
C1163 C1162 1.400 . S
C1163 C1164 1.398 . S
C1163 C1169 1.491 . S
C1164 H1155 0.950 . S
C1164 C1163 1.398 . S
C1164 C1165 1.391 . S
C1165 H1153 0.950 . S
C1165 C1161 1.393 . S
C1165 C1164 1.391 . S
C1166 H1156 0.950 . S
C1166 C1167 1.386 . S
C1166 C1168 1.391 . S
C1167 C1166 1.386 . S
C1167 C1171 1.393 . S
C1168 H1157 0.950 . S
C1168 C1166 1.391 . S
C1168 C1169 1.400 . S
C1169 C1163 1.491 . S
C1169 C1168 1.400 . S
C1169 C1170 1.398 . S
C1170 H1158 0.950 . S
C1170 C1169 1.398 . S
C1170 C1171 1.391 . S
C1171 H1159 0.950 . S
C1171 C1167 1.393 . S
C1171 C1170 1.391 . S
H1172 C1180 0.950 . S
H1173 C1185 0.950 . S
H1174 C1182 0.950 . S
H1175 C1184 0.950 . S
H1176 C1186 0.950 . S
H1177 C1188 0.950 . S
H1178 C1190 0.950 . S
H1179 C1191 0.950 . S
C1180 H1172 0.950 . S
C1180 C1181 1.386 . S
C1180 C1182 1.391 . S
C1181 C1180 1.386 . S
C1181 C1185 1.393 . S
C1182 H1174 0.950 . S
C1182 C1180 1.391 . S
C1182 C1183 1.400 . S
C1183 C1182 1.400 . S
C1183 C1184 1.398 . S
C1183 C1189 1.491 . S
C1184 H1175 0.950 . S
C1184 C1183 1.398 . S
C1184 C1185 1.391 . S
C1185 H1173 0.950 . S
C1185 C1181 1.393 . S
C1185 C1184 1.391 . S
C1186 H1176 0.950 . S
C1186 C1187 1.386 . S
C1186 C1188 1.391 . S
C1187 C1186 1.386 . S
C1187 C1191 1.393 . S
C1188 H1177 0.950 . S
C1188 C1186 1.391 . S
C1188 C1189 1.400 . S
C1189 C1183 1.491 . S
C1189 C1188 1.400 . S
C1189 C1190 1.398 . S
C1190 H1178 0.950 . S
C1190 C1189 1.398 . S
C1190 C1191 1.391 . S
C1191 H1179 0.950 . S
C1191 C1187 1.393 . S
C1191 C1190 1.391 . S
H1192 C1200 0.950 . S
H1193 C1205 0.950 . S
H1194 C1202 0.950 . S
H1195 C1204 0.950 . S
H1196 C1206 0.950 . S
H1197 C1208 0.950 . S
H1198 C1210 0.950 . S
H1199 C1211 0.950 . S
C1200 H1192 0.950 . S
C1200 C1201 1.386 . S
C1200 C1202 1.391 . S
C1201 C1200 1.386 . S
C1201 C1205 1.393 . S
C1202 H1194 0.950 . S
C1202 C1200 1.391 . S
C1202 C1203 1.400 . S
C1203 C1202 1.400 . S
C1203 C1204 1.398 . S
C1203 C1209 1.491 . S
C1204 H1195 0.950 . S
C1204 C1203 1.398 . S
C1204 C1205 1.391 . S
C1205 H1193 0.950 . S
C1205 C1201 1.393 . S
C1205 C1204 1.391 . S
C1206 H1196 0.950 . S
C1206 C1207 1.386 . S
C1206 C1208 1.391 . S
C1207 C1206 1.386 . S
C1207 C1211 1.393 . S
C1208 H1197 0.950 . S
C1208 C1206 1.391 . S
C1208 C1209 1.400 . S
C1209 C1203 1.491 . S
C1209 C1208 1.400 . S
C1209 C1210 1.398 . S
C1210 H1198 0.950 . S
C1210 C1209 1.398 . S
C1210 C1211 1.391 . S
C1211 H1199 0.950 . S
C1211 C1207 1.393 . S
C1211 C1210 1.391 . S
H1212 C1220 0.950 . S
H1213 C1225 0.950 . S
H1214 C1222 0.950 . S
H1215 C1224 0.950 . S
H1216 C1226 0.950 . S
H1217 C1228 0.950 . S
H1218 C1230 0.950 . S
H1219 C1231 0.950 . S
C1220 H1212 0.950 . S
C1220 C1221 1.386 . S
C1220 C1222 1.391 . S
C1221 C1220 1.386 . S
C1221 C1225 1.393 . S
C1222 H1214 0.950 . S
C1222 C1220 1.391 . S
C1222 C1223 1.400 . S
C1223 C1222 1.400 . S
C1223 C1224 1.398 . S
C1223 C1229 1.491 . S
C1224 H1215 0.950 . S
C1224 C1223 1.398 . S
C1224 C1225 1.391 . S
C1225 H1213 0.950 . S
C1225 C1221 1.393 . S
C1225 C1224 1.391 . S
C1226 H1216 0.950 . S
C1226 C1227 1.386 . S
C1226 C1228 1.391 . S
C1227 C1226 1.386 . S
C1227 C1231 1.393 . S
C1228 H1217 0.950 . S
C1228 C1226 1.391 . S
C1228 C1229 1.400 . S
C1229 C1223 1.491 . S
C1229 C1228 1.400 . S
C1229 C1230 1.398 . S
C1230 H1218 0.950 . S
C1230 C1229 1.398 . S
C1230 C1231 1.391 . S
C1231 H1219 0.950 . S
C1231 C1227 1.393 . S
C1231 C1230 1.391 . S
H1232 C1240 0.950 . S
H1233 C1245 0.950 . S
H1234 C1242 0.950 . S
H1235 C1244 0.950 . S
H1236 C1246 0.950 . S
H1237 C1248 0.950 . S
H1238 C1250 0.950 . S
H1239 C1251 0.950 . S
C1240 H1232 0.950 . S
C1240 C1241 1.386 . S
C1240 C1242 1.391 . S
C1241 C1240 1.386 . S
C1241 C1245 1.393 . S
C1242 H1234 0.950 . S
C1242 C1240 1.391 . S
C1242 C1243 1.400 . S
C1243 C1242 1.400 . S
C1243 C1244 1.398 . S
C1243 C1249 1.491 . S
C1244 H1235 0.950 . S
C1244 C1243 1.398 . S
C1244 C1245 1.391 . S
C1245 H1233 0.950 . S
C1245 C1241 1.393 . S
C1245 C1244 1.391 . S
C1246 H1236 0.950 . S
C1246 C1247 1.386 . S
C1246 C1248 1.391 . S
C1247 C1246 1.386 . S
C1247 C1251 1.393 . S
C1248 H1237 0.950 . S
C1248 C1246 1.391 . S
C1248 C1249 1.400 . S
C1249 C1243 1.491 . S
C1249 C1248 1.400 . S
C1249 C1250 1.398 . S
C1250 H1238 0.950 . S
C1250 C1249 1.398 . S
C1250 C1251 1.391 . S
C1251 H1239 0.950 . S
C1251 C1247 1.393 . S
C1251 C1250 1.391 . S
H1252 C1260 0.950 . S
H1253 C1265 0.950 . S
H1254 C1262 0.950 . S
H1255 C1264 0.950 . S
H1256 C1266 0.950 . S
H1257 C1268 0.950 . S
H1258 C1270 0.950 . S
H1259 C1271 0.950 . S
C1260 H1252 0.950 . S
C1260 C1261 1.386 . S
C1260 C1262 1.391 . S
C1261 C1260 1.386 . S
C1261 C1265 1.393 . S
C1262 H1254 0.950 . S
C1262 C1260 1.391 . S
C1262 C1263 1.400 . S
C1263 C1262 1.400 . S
C1263 C1264 1.398 . S
C1263 C1269 1.491 . S
C1264 H1255 0.950 . S
C1264 C1263 1.398 . S
C1264 C1265 1.391 . S
C1265 H1253 0.950 . S
C1265 C1261 1.393 . S
C1265 C1264 1.391 . S
C1266 H1256 0.950 . S
C1266 C1267 1.386 . S
C1266 C1268 1.391 . S
C1267 C1266 1.386 . S
C1267 C1271 1.393 . S
C1268 H1257 0.950 . S
C1268 C1266 1.391 . S
C1268 C1269 1.400 . S
C1269 C1263 1.491 . S
C1269 C1268 1.400 . S
C1269 C1270 1.398 . S
C1270 H1258 0.950 . S
C1270 C1269 1.398 . S
C1270 C1271 1.391 . S
C1271 H1259 0.950 . S
C1271 C1267 1.393 . S
C1271 C1270 1.391 . S
H1272 C1280 0.950 . S
H1273 C1285 0.950 . S
H1274 C1282 0.950 . S
H1275 C1284 0.950 . S
H1276 C1286 0.950 . S
H1277 C1288 0.950 . S
H1278 C1290 0.950 . S
H1279 C1291 0.950 . S
C1280 H1272 0.950 . S
C1280 C1281 1.386 . S
C1280 C1282 1.391 . S
C1281 C1280 1.386 . S
C1281 C1285 1.393 . S
C1282 H1274 0.950 . S
C1282 C1280 1.391 . S
C1282 C1283 1.400 . S
C1283 C1282 1.400 . S
C1283 C1284 1.398 . S
C1283 C1289 1.491 . S
C1284 H1275 0.950 . S
C1284 C1283 1.398 . S
C1284 C1285 1.391 . S
C1285 H1273 0.950 . S
C1285 C1281 1.393 . S
C1285 C1284 1.391 . S
C1286 H1276 0.950 . S
C1286 C1287 1.386 . S
C1286 C1288 1.391 . S
C1287 C1286 1.386 . S
C1287 C1291 1.393 . S
C1288 H1277 0.950 . S
C1288 C1286 1.391 . S
C1288 C1289 1.400 . S
C1289 C1283 1.491 . S
C1289 C1288 1.400 . S
C1289 C1290 1.398 . S
C1290 H1278 0.950 . S
C1290 C1289 1.398 . S
C1290 C1291 1.391 . S
C1291 H1279 0.950 . S
C1291 C1287 1.393 . S
C1291 C1290 1.391 . S
H1292 C1300 0.950 . S
H1293 C1305 0.950 . S
H1294 C1302 0.950 . S
H1295 C1304 0.950 . S
H1296 C1306 0.950 . S
H1297 C1308 0.950 . S
H1298 C1310 0.950 . S
H1299 C1311 0.950 . S
C1300 H1292 0.950 . S
C1300 C1301 1.386 . S
C1300 C1302 1.391 . S
C1301 C1300 1.386 . S
C1301 C1305 1.393 . S
C1302 H1294 0.950 . S
C1302 C1300 1.391 . S
C1302 C1303 1.400 . S
C1303 C1302 1.400 . S
C1303 C1304 1.398 . S
C1303 C1309 1.491 . S
C1304 H1295 0.950 . S
C1304 C1303 1.398 . S
C1304 C1305 1.391 . S
C1305 H1293 0.950 . S
C1305 C1301 1.393 . S
C1305 C1304 1.391 . S
C1306 H1296 0.950 . S
C1306 C1307 1.386 . S
C1306 C1308 1.391 . S
C1307 C1306 1.386 . S
C1307 C1311 1.393 . S
C1308 H1297 0.950 . S
C1308 C1306 1.391 . S
C1308 C1309 1.400 . S
C1309 C1303 1.491 . S
C1309 C1308 1.400 . S
C1309 C1310 1.398 . S
C1310 H1298 0.950 . S
C1310 C1309 1.398 . S
C1310 C1311 1.391 . S
C1311 H1299 0.950 . S
C1311 C1307 1.393 . S
C1311 C1310 1.391 . S
H1312 C1320 0.950 . S
H1313 C1325 0.950 . S
H1314 C1322 0.950 . S
H1315 C1324 0.950 . S
H1316 C1326 0.950 . S
H1317 C1328 0.950 . S
H1318 C1330 0.950 . S
H1319 C1331 0.950 . S
C1320 H1312 0.950 . S
C1320 C1321 1.386 . S
C1320 C1322 1.391 . S
C1321 C1320 1.386 . S
C1321 C1325 1.393 . S
C1322 H1314 0.950 . S
C1322 C1320 1.391 . S
C1322 C1323 1.400 . S
C1323 C1322 1.400 . S
C1323 C1324 1.398 . S
C1323 C1329 1.491 . S
C1324 H1315 0.950 . S
C1324 C1323 1.398 . S
C1324 C1325 1.391 . S
C1325 H1313 0.950 . S
C1325 C1321 1.393 . S
C1325 C1324 1.391 . S
C1326 H1316 0.950 . S
C1326 C1327 1.386 . S
C1326 C1328 1.391 . S
C1327 C1326 1.386 . S
C1327 C1331 1.393 . S
C1328 H1317 0.950 . S
C1328 C1326 1.391 . S
C1328 C1329 1.400 . S
C1329 C1323 1.491 . S
C1329 C1328 1.400 . S
C1329 C1330 1.398 . S
C1330 H1318 0.950 . S
C1330 C1329 1.398 . S
C1330 C1331 1.391 . S
C1331 H1319 0.950 . S
C1331 C1327 1.393 . S
C1331 C1330 1.391 . S
H1332 C1340 0.950 . S
H1333 C1345 0.950 . S
H1334 C1342 0.950 . S
H1335 C1344 0.950 . S
H1336 C1346 0.950 . S
H1337 C1348 0.950 . S
H1338 C1350 0.950 . S
H1339 C1351 0.950 . S
C1340 H1332 0.950 . S
C1340 C1341 1.386 . S
C1340 C1342 1.391 . S
C1341 C1340 1.386 . S
C1341 C1345 1.393 . S
C1342 H1334 0.950 . S
C1342 C1340 1.391 . S
C1342 C1343 1.400 . S
C1343 C1342 1.400 . S
C1343 C1344 1.398 . S
C1343 C1349 1.491 . S
C1344 H1335 0.950 . S
C1344 C1343 1.398 . S
C1344 C1345 1.391 . S
C1345 H1333 0.950 . S
C1345 C1341 1.393 . S
C1345 C1344 1.391 . S
C1346 H1336 0.950 . S
C1346 C1347 1.386 . S
C1346 C1348 1.391 . S
C1347 C1346 1.386 . S
C1347 C1351 1.393 . S
C1348 H1337 0.950 . S
C1348 C1346 1.391 . S
C1348 C1349 1.400 . S
C1349 C1343 1.491 . S
C1349 C1348 1.400 . S
C1349 C1350 1.398 . S
C1350 H1338 0.950 . S
C1350 C1349 1.398 . S
C1350 C1351 1.391 . S
C1351 H1339 0.950 . S
C1351 C1347 1.393 . S
C1351 C1350 1.391 . S
H1352 C1360 0.950 . S
H1353 C1365 0.950 . S
H1354 C1362 0.950 . S
H1355 C1364 0.950 . S
H1356 C1366 0.950 . S
H1357 C1368 0.950 . S
H1358 C1370 0.950 . S
H1359 C1371 0.950 . S
C1360 H1352 0.950 . S
C1360 C1361 1.386 . S
C1360 C1362 1.391 . S
C1361 C1360 1.386 . S
C1361 C1365 1.393 . S
C1362 H1354 0.950 . S
C1362 C1360 1.391 . S
C1362 C1363 1.400 . S
C1363 C1362 1.400 . S
C1363 C1364 1.398 . S
C1363 C1369 1.491 . S
C1364 H1355 0.950 . S
C1364 C1363 1.398 . S
C1364 C1365 1.391 . S
C1365 H1353 0.950 . S
C1365 C1361 1.393 . S
C1365 C1364 1.391 . S
C1366 H1356 0.950 . S
C1366 C1367 1.386 . S
C1366 C1368 1.391 . S
C1367 C1366 1.386 . S
C1367 C1371 1.393 . S
C1368 H1357 0.950 . S
C1368 C1366 1.391 . S
C1368 C1369 1.400 . S
C1369 C1363 1.491 . S
C1369 C1368 1.400 . S
C1369 C1370 1.398 . S
C1370 H1358 0.950 . S
C1370 C1369 1.398 . S
C1370 C1371 1.391 . S
C1371 H1359 0.950 . S
C1371 C1367 1.393 . S
C1371 C1370 1.391 . S
H1372 C1380 0.950 . S
H1373 C1385 0.950 . S
H1374 C1382 0.950 . S
H1375 C1384 0.950 . S
H1376 C1386 0.950 . S
H1377 C1388 0.950 . S
H1378 C1390 0.950 . S
H1379 C1391 0.950 . S
C1380 H1372 0.950 . S
C1380 C1381 1.386 . S
C1380 C1382 1.391 . S
C1381 C1380 1.386 . S
C1381 C1385 1.393 . S
C1382 H1374 0.950 . S
C1382 C1380 1.391 . S
C1382 C1383 1.400 . S
C1383 C1382 1.400 . S
C1383 C1384 1.398 . S
C1383 C1389 1.491 . S
C1384 H1375 0.950 . S
C1384 C1383 1.398 . S
C1384 C1385 1.391 . S
C1385 H1373 0.950 . S
C1385 C1381 1.393 . S
C1385 C1384 1.391 . S
C1386 H1376 0.950 . S
C1386 C1387 1.386 . S
C1386 C1388 1.391 . S
C1387 C1386 1.386 . S
C1387 C1391 1.393 . S
C1388 H1377 0.950 . S
C1388 C1386 1.391 . S
C1388 C1389 1.400 . S
C1389 C1383 1.491 . S
C1389 C1388 1.400 . S
C1389 C1390 1.398 . S
C1390 H1378 0.950 . S
C1390 C1389 1.398 . S
C1390 C1391 1.391 . S
C1391 H1379 0.950 . S
C1391 C1387 1.393 . S
C1391 C1390 1.391 . S
H1392 C1400 0.950 . S
H1393 C1405 0.950 . S
H1394 C1402 0.950 . S
H1395 C1404 0.950 . S
H1396 C1406 0.950 . S
H1397 C1408 0.950 . S
H1398 C1410 0.950 . S
H1399 C1411 0.950 . S
C1400 H1392 0.950 . S
C1400 C1401 1.386 . S
C1400 C1402 1.391 . S
C1401 C1400 1.386 . S
C1401 C1405 1.393 . S
C1402 H1394 0.950 . S
C1402 C1400 1.391 . S
C1402 C1403 1.400 . S
C1403 C1402 1.400 . S
C1403 C1404 1.398 . S
C1403 C1409 1.491 1_455 S
C1404 H1395 0.950 . S
C1404 C1403 1.398 . S
C1404 C1405 1.391 . S
C1405 H1393 0.950 . S
C1405 C1401 1.393 . S
C1405 C1404 1.391 . S
C1406 H1396 0.950 . S
C1406 C1407 1.386 . S
C1406 C1408 1.391 . S
C1407 C1406 1.386 . S
C1407 C1411 1.393 . S
C1408 H1397 0.950 . S
C1408 C1406 1.391 . S
C1408 C1409 1.400 . S
C1409 C1403 1.491 1_655 S
C1409 C1408 1.400 . S
C1409 C1410 1.398 . S
C1410 H1398 0.950 . S
C1410 C1409 1.398 . S
C1410 C1411 1.391 . S
C1411 H1399 0.950 . S
C1411 C1407 1.393 . S
C1411 C1410 1.391 . S
H1412 C1420 0.950 . S
H1413 C1425 0.950 . S
H1414 C1422 0.950 . S
H1415 C1424 0.950 . S
H1416 C1426 0.950 . S
H1417 C1428 0.950 . S
H1418 C1430 0.950 . S
H1419 C1431 0.950 . S
C1420 H1412 0.950 . S
C1420 C1421 1.386 . S
C1420 C1422 1.391 . S
C1421 C1420 1.386 . S
C1421 C1425 1.393 . S
C1422 H1414 0.950 . S
C1422 C1420 1.391 . S
C1422 C1423 1.400 . S
C1423 C1422 1.400 . S
C1423 C1424 1.398 . S
C1423 C1429 1.491 . S
C1424 H1415 0.950 . S
C1424 C1423 1.398 . S
C1424 C1425 1.391 . S
C1425 H1413 0.950 . S
C1425 C1421 1.393 . S
C1425 C1424 1.391 . S
C1426 H1416 0.950 . S
C1426 C1427 1.386 . S
C1426 C1428 1.391 . S
C1427 C1426 1.386 . S
C1427 C1431 1.393 . S
C1428 H1417 0.950 . S
C1428 C1426 1.391 . S
C1428 C1429 1.400 . S
C1429 C1423 1.491 . S
C1429 C1428 1.400 . S
C1429 C1430 1.398 . S
C1430 H1418 0.950 . S
C1430 C1429 1.398 . S
C1430 C1431 1.391 . S
C1431 H1419 0.950 . S
C1431 C1427 1.393 . S
C1431 C1430 1.391 . S
H1432 C1440 0.950 . S
H1433 C1445 0.950 . S
H1434 C1442 0.950 . S
H1435 C1444 0.950 . S
H1436 C1446 0.950 . S
H1437 C1448 0.950 . S
H1438 C1450 0.950 . S
H1439 C1451 0.950 . S
C1440 H1432 0.950 . S
C1440 C1441 1.386 . S
C1440 C1442 1.391 . S
C1441 C1440 1.386 . S
C1441 C1445 1.393 . S
C1442 H1434 0.950 . S
C1442 C1440 1.391 . S
C1442 C1443 1.400 . S
C1443 C1442 1.400 . S
C1443 C1444 1.398 . S
C1443 C1449 1.491 1_565 S
C1444 H1435 0.950 . S
C1444 C1443 1.398 . S
C1444 C1445 1.391 . S
C1445 H1433 0.950 . S
C1445 C1441 1.393 . S
C1445 C1444 1.391 . S
C1446 H1436 0.950 . S
C1446 C1447 1.386 . S
C1446 C1448 1.391 . S
C1447 C1446 1.386 . S
C1447 C1451 1.393 . S
C1448 H1437 0.950 . S
C1448 C1446 1.391 . S
C1448 C1449 1.400 . S
C1449 C1443 1.491 1_545 S
C1449 C1448 1.400 . S
C1449 C1450 1.398 . S
C1450 H1438 0.950 . S
C1450 C1449 1.398 . S
C1450 C1451 1.391 . S
C1451 H1439 0.950 . S
C1451 C1447 1.393 . S
C1451 C1450 1.391 . S
H1452 C1460 0.950 . S
H1453 C1465 0.950 . S
H1454 C1462 0.950 . S
H1455 C1464 0.950 . S
H1456 C1466 0.950 . S
H1457 C1468 0.950 . S
H1458 C1470 0.950 . S
H1459 C1471 0.950 . S
C1460 H1452 0.950 . S
C1460 C1461 1.386 . S
C1460 C1462 1.391 . S
C1461 C1460 1.386 . S
C1461 C1465 1.393 . S
C1462 H1454 0.950 . S
C1462 C1460 1.391 . S
C1462 C1463 1.400 . S
C1463 C1462 1.400 . S
C1463 C1464 1.398 . S
C1463 C1469 1.491 1_565 S
C1464 H1455 0.950 . S
C1464 C1463 1.398 . S
C1464 C1465 1.391 . S
C1465 H1453 0.950 . S
C1465 C1461 1.393 . S
C1465 C1464 1.391 . S
C1466 H1456 0.950 . S
C1466 C1467 1.386 . S
C1466 C1468 1.391 . S
C1467 C1466 1.386 . S
C1467 C1471 1.393 . S
C1468 H1457 0.950 . S
C1468 C1466 1.391 . S
C1468 C1469 1.400 . S
C1469 C1463 1.491 1_545 S
C1469 C1468 1.400 . S
C1469 C1470 1.398 . S
C1470 H1458 0.950 . S
C1470 C1469 1.398 . S
C1470 C1471 1.391 . S
C1471 H1459 0.950 . S
C1471 C1467 1.393 . S
C1471 C1470 1.391 . S
H1472 C1480 0.950 . S
H1473 C1485 0.950 . S
H1474 C1482 0.950 . S
H1475 C1484 0.950 . S
H1476 C1486 0.950 . S
H1477 C1488 0.950 . S
H1478 C1490 0.950 . S
H1479 C1491 0.950 . S
C1480 H1472 0.950 . S
C1480 C1481 1.386 . S
C1480 C1482 1.391 . S
C1481 C1480 1.386 . S
C1481 C1485 1.393 . S
C1482 H1474 0.950 . S
C1482 C1480 1.391 . S
C1482 C1483 1.400 . S
C1483 C1482 1.400 . S
C1483 C1484 1.398 . S
C1483 C1489 1.491 1_455 S
C1484 H1475 0.950 . S
C1484 C1483 1.398 . S
C1484 C1485 1.391 . S
C1485 H1473 0.950 . S
C1485 C1481 1.393 . S
C1485 C1484 1.391 . S
C1486 H1476 0.950 . S
C1486 C1487 1.386 . S
C1486 C1488 1.391 . S
C1487 C1486 1.386 . S
C1487 C1491 1.393 . S
C1488 H1477 0.950 . S
C1488 C1486 1.391 . S
C1488 C1489 1.400 . S
C1489 C1483 1.491 1_655 S
C1489 C1488 1.400 . S
C1489 C1490 1.398 . S
C1490 H1478 0.950 . S
C1490 C1489 1.398 . S
C1490 C1491 1.391 . S
C1491 H1479 0.950 . S
C1491 C1487 1.393 . S
C1491 C1490 1.391 . S
H1492 C1500 0.950 . S
H1493 C1505 0.950 . S
H1494 C1502 0.950 . S
H1495 C1504 0.950 . S
H1496 C1506 0.950 . S
H1497 C1508 0.950 . S
H1498 C1510 0.950 . S
H1499 C1511 0.950 . S
C1500 H1492 0.950 . S
C1500 C1501 1.386 . S
C1500 C1502 1.391 . S
C1501 C1500 1.386 . S
C1501 C1505 1.393 . S
C1502 H1494 0.950 . S
C1502 C1500 1.391 . S
C1502 C1503 1.400 . S
C1503 C1502 1.400 . S
C1503 C1504 1.398 . S
C1503 C1509 1.491 . S
C1504 H1495 0.950 . S
C1504 C1503 1.398 . S
C1504 C1505 1.391 . S
C1505 H1493 0.950 . S
C1505 C1501 1.393 . S
C1505 C1504 1.391 . S
C1506 H1496 0.950 . S
C1506 C1507 1.386 . S
C1506 C1508 1.391 . S
C1507 C1506 1.386 . S
C1507 C1511 1.393 . S
C1508 H1497 0.950 . S
C1508 C1506 1.391 . S
C1508 C1509 1.400 . S
C1509 C1503 1.491 . S
C1509 C1508 1.400 . S
C1509 C1510 1.398 . S
C1510 H1498 0.950 . S
C1510 C1509 1.398 . S
C1510 C1511 1.391 . S
C1511 H1499 0.950 . S
C1511 C1507 1.393 . S
C1511 C1510 1.391 . S
C621 C111 0.710 . S
C627 C9 0.723 . S
C641 C43 0.626 . S
C647 C145 0.626 . S
C661 C77 0.598 . S
C667 C179 0.625 . S
C681 C190 2.461 . S
C687 C54 2.460 . S
C701 C122 2.366 . S
C707 C88 2.363 . S
C721 C156 2.363 . S
C727 C20 2.366 . S
C741 C315 0.580 . S
C747 C213 0.612 . S
C761 C349 0.641 . S
C767 C247 0.620 . S
C781 C281 0.606 . S
C787 C383 0.590 . S
C801 C394 2.298 . S
C807 C258 2.299 . S
C821 C326 2.283 . S
C827 C292 2.293 . S
C841 C224 2.402 . S
C847 C360 2.400 . S
C861 C519 0.602 . S
C867 C417 0.602 . S
C881 C451 0.567 . S
C887 C553 0.583 . S
C901 C485 0.621 . S
C907 C587 0.646 . S
C921 C462 2.299 . S
C927 C598 2.304 . S
C941 C530 2.397 . S
C947 C496 2.401 . S
C961 C564 2.296 . S
C967 C428 2.284 . S
C981 C611 1.692 . S
C987 C33 1.692 . S
C1001 C543 1.682 . S
C1007 C67 1.683 . S
C1021 C101 1.635 . S
C1027 C577 1.637 . S
C1041 C135 1.681 . S
C1047 C271 1.680 . S
C1061 C305 1.640 . S
C1067 C169 1.640 . S
C1081 C237 1.693 . S
C1087 C203 1.693 . S
C1101 C339 1.588 . S
C1107 C475 1.589 . S
C1121 C509 1.750 . S
C1127 C373 1.749 . S
C1141 C441 1.593 . S
C1147 C407 1.594 . S
C1161 C2 1.743 . S
C1167 C342 1.739 . S
C1181 C376 1.878 . S
C1187 C36 1.880 . S
C1201 C308 1.898 . S
C1207 C70 1.877 . S
C1221 C104 1.742 . S
C1227 C478 1.740 . S
C1241 C410 1.897 . S
C1247 C138 1.875 . S
C1261 C172 1.884 . S
C1267 C444 1.890 . S
C1281 C481 0.305 . S
C1287 C175 0.273 . S
C1301 C107 0.178 . S
C1307 C413 0.156 . S
C1321 C447 0.167 . S
C1327 C141 0.245 . S
C1341 C39 0.261 . S
C1347 C345 0.250 . S
C1361 C73 0.213 . S
C1367 C379 0.140 . S
C1381 C311 0.162 . S
C1387 C5 0.225 . S
C1401 C546 1.801 . S
C1407 C206 1.804 . S
C1421 C240 1.690 . S
C1427 C580 1.682 . S
C1441 C512 1.799 . S
C1447 C274 1.792 . S
C1461 C549 0.179 . S
C1467 C243 0.193 . S
C1481 C583 0.250 . S
C1487 C277 0.238 . S
C1501 C515 0.310 . S
C1507 C209 0.295 . S
