# Generated by pormake.
# Topology npo, (4)-cn, num edge types: 1
# Building blocks:
#     Node 0, Type 0, BuildingBlock: TATPOV_clean_sbu_0, # of connection points: 4
#     Node 1, Type 0, BuildingBlock: TATPOV_clean_sbu_0, # of connection points: 4
#     Node 2, Type 0, BuildingBlock: TATPOV_clean_sbu_0, # of connection points: 4
#     Node 3, Type 0, BuildingBlock: TATPOV_clean_sbu_0, # of connection points: 4
#     Node 4, Type 0, BuildingBlock: TATPOV_clean_sbu_0, # of connection points: 4
#     Node 5, Type 0, BuildingBlock: TATPOV_clean_sbu_0, # of connection points: 4
#     Edge 6, Type (0, 0), BuildingBlock: ZUJKAS_clean_linker_0, # of connection points: 2
#     Edge 7, Type (0, 0), BuildingBlock: ZUJKAS_clean_linker_0, # of connection points: 2
#     Edge 8, Type (0, 0), BuildingBlock: ZUJKAS_clean_linker_0, # of connection points: 2
#     Edge 9, Type (0, 0), BuildingBlock: ZUJKAS_clean_linker_0, # of connection points: 2
#     Edge 10, Type (0, 0), BuildingBlock: ZUJKAS_clean_linker_0, # of connection points: 2
#     Edge 11, Type (0, 0), BuildingBlock: ZUJKAS_clean_linker_0, # of connection points: 2
#     Edge 12, Type (0, 0), BuildingBlock: ZUJKAS_clean_linker_0, # of connection points: 2
#     Edge 13, Type (0, 0), BuildingBlock: ZUJKAS_clean_linker_0, # of connection points: 2
#     Edge 14, Type (0, 0), BuildingBlock: ZUJKAS_clean_linker_0, # of connection points: 2
#     Edge 15, Type (0, 0), BuildingBlock: ZUJKAS_clean_linker_0, # of connection points: 2
#     Edge 16, Type (0, 0), BuildingBlock: ZUJKAS_clean_linker_0, # of connection points: 2
#     Edge 17, Type (0, 0), BuildingBlock: ZUJKAS_clean_linker_0, # of connection points: 2
# Relax obj value: 0.183
# Max RMSD: 0.201
# Mean RMSD: 0.192
data_MOF--net-npo--node1-TATPOV_clean_sbu_0--edge1-ZUJKAS_clean_linker_0
_symmetry_space_group_name_H-M    P1
_symmetry_Int_Tables_number       1
_symmetry_cell_setting            triclinic
loop_
_symmetry_equiv_pos_as_xyz
'x, y, z'
_cell_length_a     56.496072
_cell_length_b     53.300748
_cell_length_c     32.850086
_cell_angle_alpha  90.679699
_cell_angle_beta   89.924098
_cell_angle_gamma 121.94663
loop_
_atom_site_label
_atom_site_type_symbol
_atom_site_fract_x
_atom_site_fract_y
_atom_site_fract_z
_atom_type_partial_charge
Zn0 Zn 0.5869 0.1647 0.21212 0.0
Zn1 Zn 0.55665 0.12266 0.26178 0.0
O2 O 0.54228 0.15062 0.27122 0.0
O3 O 0.57547 0.19031 0.24076 0.0
O4 O 0.53469 0.09009 0.3018 0.0
O5 O 0.5646 0.13978 0.16434 0.0
O6 O 0.54557 0.10172 0.20549 0.0
C7 C 0.55387 0.1779 0.26273 0.0
C8 C 0.62062 0.15512 0.26296 0.0
O9 O 0.59732 0.13986 0.28099 0.0
O10 O 0.62187 0.16651 0.22891 0.0
C11 C 0.53667 0.0973 0.33923 0.0
O12 O 0.55257 0.12533 0.34975 0.0
C13 C 0.5491 0.11225 0.16979 0.0
Zn14 Zn 0.4093 0.5431 0.60916 0.0
Zn15 Zn 0.43244 0.53844 0.67865 0.0
O16 O 0.39047 0.50917 0.6867 0.0
O17 O 0.37115 0.51338 0.63117 0.0
O18 O 0.44928 0.53615 0.73134 0.0
O19 O 0.43121 0.5293 0.57806 0.0
O20 O 0.45172 0.52797 0.63432 0.0
C21 C 0.36877 0.50195 0.6657 0.0
C22 C 0.43979 0.5977 0.65468 0.0
O23 O 0.44328 0.58151 0.679 0.0
O24 O 0.42636 0.58684 0.62171 0.0
C25 C 0.4415 0.54211 0.76449 0.0
O26 O 0.42229 0.54891 0.76335 0.0
C27 C 0.44857 0.5249 0.5958 0.0
Zn28 Zn 0.87732 0.45883 0.383 0.0
Zn29 Zn 0.90122 0.46599 0.31064 0.0
O30 O 0.88066 0.48811 0.30474 0.0
O31 O 0.85629 0.47692 0.36122 0.0
O32 O 0.91834 0.47043 0.25526 0.0
O33 O 0.91509 0.48388 0.40894 0.0
O34 O 0.93437 0.48299 0.35108 0.0
C35 C 0.86251 0.48902 0.32667 0.0
C36 C 0.86141 0.40406 0.34399 0.0
O37 O 0.87478 0.42113 0.31464 0.0
O38 O 0.86052 0.41458 0.37829 0.0
C39 C 0.90224 0.45742 0.22494 0.0
O40 O 0.87514 0.44193 0.23071 0.0
C41 C 0.9365 0.4896 0.3889 0.0
Zn42 Zn 0.38596 0.8511 0.82395 0.0
Zn43 Zn 0.40216 0.88008 0.75366 0.0
O44 O 0.35941 0.85376 0.74593 0.0
O45 O 0.3464 0.83046 0.80439 0.0
O46 O 0.41554 0.90424 0.70276 0.0
O47 O 0.40095 0.8883 0.8562 0.0
O48 O 0.41751 0.91249 0.79883 0.0
C49 C 0.3403 0.83527 0.76947 0.0
C50 C 0.42222 0.83911 0.77717 0.0
O51 O 0.4206 0.85582 0.75142 0.0
O52 O 0.41008 0.83432 0.8112 0.0
C53 C 0.41161 0.89276 0.66737 0.0
O54 O 0.39796 0.86383 0.66336 0.0
C55 C 0.41465 0.91235 0.83733 0.0
Zn56 Zn 0.58451 0.45086 0.11662 0.0
Zn57 Zn 0.58197 0.48012 0.18148 0.0
O58 O 0.6237 0.49536 0.17875 0.0
O59 O 0.62506 0.46682 0.13098 0.0
O60 O 0.57871 0.4983 0.2335 0.0
O61 O 0.57395 0.47429 0.08181 0.0
O62 O 0.567 0.49449 0.13577 0.0
C63 C 0.63728 0.48673 0.15821 0.0
C64 C 0.54756 0.41181 0.17599 0.0
O65 O 0.55764 0.43612 0.19558 0.0
O66 O 0.55423 0.41166 0.13925 0.0
C67 C 0.58655 0.49148 0.26557 0.0
O68 O 0.59745 0.47505 0.2621 0.0
C69 C 0.56623 0.49069 0.09726 0.0
Zn70 Zn 0.12636 0.51372 0.8741 0.0
Zn71 Zn 0.09467 0.49344 0.80569 0.0
O72 O 0.11706 0.47301 0.80438 0.0
O73 O 0.1423 0.48856 0.8606 0.0
O74 O 0.07455 0.482 0.75181 0.0
O75 O 0.09058 0.49605 0.90575 0.0
O76 O 0.06456 0.4803 0.85013 0.0
C77 C 0.13498 0.47318 0.82811 0.0
C78 C 0.13753 0.5599 0.81874 0.0
O79 O 0.11849 0.53804 0.79851 0.0
O80 O 0.14523 0.55577 0.85292 0.0
C81 C 0.0903 0.49017 0.72075 0.0
O82 O 0.11734 0.50287 0.72621 0.0
C83 C 0.06678 0.48309 0.88881 0.0
H84 H 0.49833 0.15779 0.26871 0.0
H85 H 0.47795 0.18872 0.26943 0.0
H86 H 0.56014 0.26675 0.28295 0.0
H87 H 0.58057 0.23626 0.28129 0.0
H88 H 0.50107 0.25828 0.32613 0.0
H89 H 0.51084 0.247 0.1589 0.0
H90 H 0.49845 0.216 0.19248 0.0
H91 H 0.53468 0.24466 0.19274 0.0
C92 C 0.51188 0.18145 0.2734 0.0
C93 C 0.54101 0.19478 0.2744 0.0
C94 C 0.50022 0.19901 0.27392 0.0
C95 C 0.51762 0.22991 0.27625 0.0
C96 C 0.54643 0.2429 0.28144 0.0
H97 H 0.55663 0.39969 0.25207 0.0
H98 H 0.53826 0.35092 0.28053 0.0
C99 C 0.55807 0.2255 0.28021 0.0
C100 C 0.50741 0.24915 0.26443 0.0
H101 H 0.50898 0.28761 0.18171 0.0
C102 C 0.50191 0.26425 0.29448 0.0
C103 C 0.508 0.2564 0.22312 0.0
C104 C 0.5132 0.2402 0.18972 0.0
C105 C 0.49895 0.28802 0.2843 0.0
C106 C 0.50295 0.29761 0.24338 0.0
C107 C 0.50601 0.28065 0.21315 0.0
C108 C 0.50856 0.32717 0.23159 0.0
C109 C 0.49225 0.30289 0.31772 0.0
C110 C 0.49807 0.33057 0.19459 0.0
C111 C 0.50969 0.35848 0.17728 0.0
C112 C 0.53124 0.38358 0.19741 0.0
C113 C 0.5398 0.38064 0.23618 0.0
C114 C 0.52897 0.35265 0.25276 0.0
H115 H 0.47742 0.28628 0.33967 0.0
H116 H 0.51161 0.31842 0.33489 0.0
H117 H 0.48303 0.31524 0.30559 0.0
H118 H 0.48229 0.31139 0.17763 0.0
H119 H 0.50268 0.3603 0.14739 0.0
H120 H 0.31853 0.48512 0.63083 0.0
H121 H 0.27367 0.46345 0.66493 0.0
H122 H 0.30995 0.45395 0.77458 0.0
H123 H 0.35528 0.47634 0.74098 0.0
H124 H 0.23649 0.41168 0.70945 0.0
H125 H 0.28835 0.51397 0.80597 0.0
H126 H 0.30468 0.50997 0.7613 0.0
H127 H 0.30336 0.49154 0.80748 0.0
C128 C 0.31694 0.47791 0.66198 0.0
C129 C 0.34068 0.4831 0.68349 0.0
C130 C 0.29119 0.46536 0.68133 0.0
C131 C 0.28866 0.45768 0.72247 0.0
C132 C 0.31164 0.46025 0.74297 0.0
H133 H 0.16382 0.45733 0.87685 0.0
H134 H 0.19703 0.44383 0.85505 0.0
C135 C 0.33752 0.473 0.7237 0.0
C136 C 0.26327 0.45115 0.74478 0.0
H137 H 0.24037 0.48244 0.81264 0.0
C138 C 0.23728 0.42682 0.73255 0.0
C139 C 0.2644 0.47103 0.77478 0.0
C140 C 0.29161 0.49823 0.78808 0.0
C141 C 0.2123 0.42232 0.74878 0.0
C142 C 0.21343 0.44299 0.77738 0.0
C143 C 0.23949 0.46649 0.7909 0.0
C144 C 0.18835 0.44301 0.79074 0.0
C145 C 0.18499 0.39576 0.73471 0.0
C146 C 0.17154 0.44579 0.76194 0.0
C147 C 0.15228 0.45321 0.77437 0.0
C148 C 0.14998 0.45854 0.81575 0.0
C149 C 0.16534 0.45362 0.8447 0.0
C150 C 0.18427 0.44582 0.83231 0.0
H151 H 0.18761 0.37723 0.72559 0.0
H152 H 0.16889 0.38801 0.75882 0.0
H153 H 0.17738 0.40178 0.70766 0.0
H154 H 0.17471 0.44444 0.72967 0.0
H155 H 0.14084 0.45698 0.75135 0.0
H156 H 0.64006 0.19405 0.32475 0.0
H157 H 0.68861 0.22485 0.34573 0.0
H158 H 0.70893 0.17079 0.27285 0.0
H159 H 0.66039 0.14177 0.24847 0.0
H160 H 0.72825 0.22529 0.3804 0.0
H161 H 0.75664 0.24457 0.21626 0.0
H162 H 0.72097 0.22231 0.23219 0.0
H163 H 0.74337 0.20769 0.23332 0.0
C164 C 0.6548 0.1883 0.31412 0.0
C165 C 0.6468 0.16584 0.28499 0.0
C166 C 0.68263 0.20592 0.32606 0.0
C167 C 0.70286 0.20094 0.30971 0.0
C168 C 0.69407 0.176 0.28444 0.0
H169 H 0.86087 0.36096 0.38859 0.0
H170 H 0.82896 0.30732 0.3801 0.0
C171 C 0.6663 0.15907 0.27112 0.0
C172 C 0.73286 0.22421 0.31551 0.0
H173 H 0.7899 0.27611 0.26315 0.0
C174 C 0.74186 0.23632 0.35478 0.0
C175 C 0.75085 0.23841 0.28208 0.0
C176 C 0.7425 0.22778 0.23859 0.0
C177 C 0.76646 0.26396 0.36103 0.0
C178 C 0.78371 0.27889 0.32725 0.0
C179 C 0.77645 0.2649 0.28885 0.0
C180 C 0.80639 0.31068 0.32925 0.0
C181 C 0.77207 0.27781 0.40308 0.0
C182 C 0.80597 0.33037 0.30149 0.0
C183 C 0.82509 0.36069 0.30499 0.0
C184 C 0.84444 0.37201 0.33703 0.0
C185 C 0.84576 0.35252 0.36393 0.0
C186 C 0.82733 0.32197 0.35938 0.0
H187 H 0.75351 0.26613 0.42307 0.0
H188 H 0.78917 0.27668 0.41767 0.0
H189 H 0.77833 0.30133 0.40157 0.0
H190 H 0.79013 0.32242 0.27791 0.0
H191 H 0.82372 0.37543 0.28401 0.0
H192 H 0.43267 0.82649 0.70089 0.0
H193 H 0.44677 0.79158 0.68293 0.0
H194 H 0.45738 0.78068 0.8102 0.0
H195 H 0.44226 0.81466 0.82845 0.0
H196 H 0.49131 0.78493 0.69624 0.0
H197 H 0.39659 0.69815 0.77575 0.0
H198 H 0.40283 0.73442 0.76649 0.0
H199 H 0.4203 0.72876 0.80784 0.0
C200 C 0.43848 0.81705 0.72502 0.0
C201 C 0.43584 0.8228 0.7661 0.0
C202 C 0.44657 0.79715 0.71471 0.0
C203 C 0.45239 0.78298 0.74529 0.0
C204 C 0.4522 0.79076 0.78619 0.0
H205 H 0.46136 0.62513 0.72807 0.0
H206 H 0.47057 0.67337 0.7507 0.0
C207 C 0.44366 0.81024 0.79655 0.0
C208 C 0.45587 0.75806 0.73453 0.0
H209 H 0.42559 0.68372 0.74653 0.0
C210 C 0.47708 0.76283 0.70742 0.0
C211 C 0.43709 0.72918 0.74891 0.0
C212 C 0.41276 0.72216 0.77603 0.0
C213 C 0.47988 0.73937 0.69416 0.0
C214 C 0.46096 0.71059 0.70834 0.0
C215 C 0.44022 0.70596 0.73611 0.0
C216 C 0.46058 0.68431 0.69262 0.0
C217 C 0.50285 0.7454 0.66492 0.0
C218 C 0.45232 0.67478 0.65228 0.0
C219 C 0.44678 0.64711 0.63931 0.0
C220 C 0.44939 0.62853 0.66653 0.0
C221 C 0.45911 0.63887 0.70633 0.0
C222 C 0.46446 0.66645 0.71933 0.0
H223 H 0.5195 0.76924 0.66459 0.0
H224 H 0.51228 0.73235 0.67292 0.0
H225 H 0.494 0.73871 0.63373 0.0
H226 H 0.44874 0.68805 0.63144 0.0
H227 H 0.43941 0.63985 0.60843 0.0
H228 H 0.67524 0.53942 0.19511 0.0
H229 H 0.72285 0.55577 0.21679 0.0
H230 H 0.71194 0.47434 0.1695 0.0
H231 H 0.66546 0.459 0.14563 0.0
H232 H 0.73933 0.53577 0.27041 0.0
H233 H 0.7878 0.52747 0.13061 0.0
H234 H 0.75501 0.52566 0.12942 0.0
H235 H 0.75597 0.49264 0.13673 0.0
C236 C 0.68336 0.52541 0.18854 0.0
C237 C 0.66675 0.49805 0.16841 0.0
C238 C 0.71054 0.53474 0.20096 0.0
C239 C 0.72141 0.51665 0.19405 0.0
C240 C 0.70472 0.48937 0.17375 0.0
H241 H 0.81146 0.47655 0.35069 0.0
H242 H 0.78216 0.49139 0.31869 0.0
C243 C 0.67792 0.48042 0.16045 0.0
C244 C 0.7487 0.52434 0.21186 0.0
H245 H 0.80378 0.51627 0.19393 0.0
C246 C 0.75379 0.53226 0.25331 0.0
C247 C 0.7684 0.52101 0.18964 0.0
C248 C 0.7666 0.51661 0.14403 0.0
C249 C 0.77645 0.53414 0.27381 0.0
C250 C 0.79367 0.52641 0.25283 0.0
C251 C 0.79019 0.52133 0.21058 0.0
C252 C 0.81301 0.5201 0.27458 0.0
C253 C 0.78128 0.54391 0.3179 0.0
C254 C 0.84001 0.53043 0.25987 0.0
C255 C 0.85658 0.52105 0.2774 0.0
C256 C 0.84658 0.50151 0.31033 0.0
C257 C 0.81998 0.492 0.3258 0.0
C258 C 0.80324 0.50077 0.30771 0.0
H259 H 0.77581 0.56085 0.32348 0.0
H260 H 0.76747 0.52473 0.33734 0.0
H261 H 0.80329 0.55328 0.32735 0.0
H262 H 0.84801 0.54517 0.23416 0.0
H263 H 0.877 0.52869 0.2648 0.0
H264 H 0.32168 0.81402 0.69233 0.0
H265 H 0.2759 0.77043 0.67511 0.0
H266 H 0.2486 0.76916 0.79827 0.0
H267 H 0.29375 0.81244 0.81519 0.0
H268 H 0.2634 0.72128 0.71236 0.0
H269 H 0.17609 0.73683 0.73971 0.0
H270 H 0.21107 0.76768 0.7306 0.0
H271 H 0.2002 0.75343 0.78129 0.0
C272 C 0.30538 0.80524 0.71504 0.0
C273 C 0.31126 0.81625 0.75522 0.0
C274 C 0.27926 0.78031 0.70521 0.0
C275 C 0.2587 0.7665 0.73532 0.0
C276 C 0.26375 0.77964 0.77419 0.0
H277 H 0.18087 0.61112 0.85138 0.0
H278 H 0.20603 0.6599 0.82036 0.0
C279 C 0.28976 0.80427 0.78402 0.0
C280 C 0.23538 0.73537 0.73027 0.0
H281 H 0.16881 0.68879 0.76326 0.0
C282 C 0.24238 0.71417 0.72185 0.0
C283 C 0.20785 0.72586 0.74239 0.0
C284 C 0.19838 0.74728 0.74854 0.0
C285 C 0.22365 0.6842 0.72989 0.0
C286 C 0.19744 0.67535 0.74681 0.0
C287 C 0.18922 0.69587 0.75098 0.0
C288 C 0.18052 0.64619 0.76588 0.0
C289 C 0.23278 0.66249 0.72342 0.0
C290 C 0.15766 0.6226 0.74555 0.0
C291 C 0.14325 0.59459 0.76311 0.0
C292 C 0.15149 0.58989 0.80133 0.0
C293 C 0.17398 0.61393 0.82196 0.0
C294 C 0.18837 0.6418 0.80433 0.0
H295 H 0.25108 0.67139 0.70291 0.0
H296 H 0.23861 0.65759 0.75321 0.0
H297 H 0.21545 0.64138 0.71035 0.0
H298 H 0.15142 0.62571 0.71579 0.0
H299 H 0.12599 0.57654 0.74642 0.0
H300 H 0.47034 0.95102 0.84354 0.0
H301 H 0.49421 0.98838 0.89756 0.0
H302 H 0.41491 0.97265 0.93877 0.0
H303 H 0.39103 0.93392 0.88655 0.0
H304 H 0.50047 0.03793 0.92374 0.0
H305 H 0.44035 0.95215 0.03863 0.0
H306 H 0.43861 0.94349 0.98514 0.0
H307 H 0.41791 0.95718 0.00585 0.0
C308 C 0.4582 0.95617 0.86361 0.0
C309 C 0.429 0.93978 0.86133 0.0
C310 C 0.47177 0.97735 0.89453 0.0
C311 C 0.45623 0.98256 0.92307 0.0
C312 C 0.4272 0.96819 0.91806 0.0
H313 H 0.5304 0.12516 0.10222 0.0
H314 H 0.50804 0.09371 0.04243 0.0
C315 C 0.41362 0.94644 0.88795 0.0
C316 C 0.47013 0.00133 0.95954 0.0
H317 H 0.46745 0.00164 0.0633 0.0
C318 C 0.49335 0.02998 0.95428 0.0
C319 C 0.46135 0.99061 0.99947 0.0
C320 C 0.43841 0.95907 0.00766 0.0
C321 C 0.50773 0.0484 0.98779 0.0
C322 C 0.49781 0.03833 0.02761 0.0
C323 C 0.47486 0.00952 0.03282 0.0
C324 C 0.51082 0.05718 0.06437 0.0
C325 C 0.53381 0.07805 0.98001 0.0
C326 C 0.51838 0.04651 0.09772 0.0
C327 C 0.53021 0.06407 0.13265 0.0
C328 C 0.53512 0.09276 0.13437 0.0
C329 C 0.52722 0.10325 0.1013 0.0
C330 C 0.51472 0.08542 0.06694 0.0
H331 H 0.54369 0.07788 0.95082 0.0
H332 H 0.52829 0.0951 0.97774 0.0
H333 H 0.54937 0.08455 0.00487 0.0
H334 H 0.51535 0.02467 0.0966 0.0
H335 H 0.53617 0.05555 0.15779 0.0
H336 H 0.564 0.52472 0.28415 0.0
H337 H 0.54905 0.53157 0.35101 0.0
H338 H 0.58 0.48128 0.40602 0.0
H339 H 0.59498 0.47421 0.3393 0.0
H340 H 0.52429 0.46071 0.42391 0.0
H341 H 0.59118 0.58134 0.45257 0.0
H342 H 0.57542 0.57238 0.40285 0.0
H343 H 0.60002 0.56206 0.41592 0.0
C344 C 0.5681 0.51556 0.31054 0.0
C345 C 0.58056 0.49881 0.30636 0.0
C346 C 0.55971 0.51967 0.34878 0.0
C347 C 0.56371 0.5072 0.38349 0.0
C348 C 0.57692 0.49125 0.37962 0.0
H349 H 0.4994 0.533 0.61533 0.0
H350 H 0.53029 0.52628 0.56986 0.0
C351 C 0.58544 0.48724 0.34144 0.0
C352 C 0.55136 0.50816 0.42276 0.0
H353 H 0.54793 0.55556 0.48969 0.0
C354 C 0.52985 0.48141 0.43883 0.0
C355 C 0.55889 0.53514 0.44247 0.0
C356 C 0.58285 0.56435 0.42782 0.0
C357 C 0.51434 0.48109 0.47238 0.0
C358 C 0.52044 0.50818 0.49002 0.0
C359 C 0.54321 0.53482 0.47586 0.0
C360 C 0.50125 0.50956 0.51921 0.0
C361 C 0.49082 0.45186 0.48776 0.0
C362 C 0.4748 0.50222 0.50569 0.0
C363 C 0.45737 0.5063 0.53121 0.0
C364 C 0.466 0.51767 0.57089 0.0
C365 C 0.49215 0.52403 0.58498 0.0
C366 C 0.50981 0.5203 0.55909 0.0
H367 H 0.49366 0.43342 0.47898 0.0
H368 H 0.48915 0.45241 0.52141 0.0
H369 H 0.47087 0.44723 0.47429 0.0
H370 H 0.468 0.49425 0.47482 0.0
H371 H 0.43732 0.50111 0.51951 0.0
H372 H 0.06136 0.46642 0.96751 0.0
H373 H 0.02363 0.45587 0.01404 0.0
H374 H 0.97885 0.46669 0.91658 0.0
H375 H 0.01673 0.47703 0.86925 0.0
H376 H 0.98958 0.50296 0.99061 0.0
H377 H 0.94168 0.38405 0.02398 0.0
H378 H 0.97916 0.40469 0.02503 0.0
H379 H 0.96114 0.40073 0.97804 0.0
C380 C 0.04326 0.46601 0.95571 0.0
C381 C 0.042 0.47261 0.91478 0.0
C382 C 0.02165 0.45981 0.9823 0.0
C383 C -0.0016 0.46027 0.96864 0.0
C384 C -0.00343 0.466 0.92752 0.0
H385 H 0.87406 0.42598 0.15658 0.0
H386 H 0.89352 0.4266 0.08967 0.0
C387 C 0.01812 0.47179 0.90057 0.0
C388 C 0.97781 0.45776 0.99878 0.0
H389 H 0.93571 0.41327 0.0746 0.0
C390 C 0.97726 0.48316 0.00842 0.0
C391 C 0.96168 0.43187 0.02175 0.0
C392 C 0.96067 0.40366 0.0115 0.0
C393 C 0.96247 0.48393 0.04229 0.0
C394 C 0.9481 0.45874 0.06712 0.0
C395 C 0.94703 0.43269 0.05576 0.0
C396 C 0.93597 0.45965 0.10665 0.0
C397 C 0.96302 0.51197 0.05197 0.0
C398 C 0.95346 0.47792 0.13836 0.0
C399 C 0.94249 0.47747 0.17668 0.0
C400 C 0.91378 0.45874 0.18397 0.0
C401 C 0.89625 0.44072 0.15195 0.0
C402 C 0.9073 0.44103 0.1137 0.0
H403 H 0.96802 0.52595 0.02463 0.0
H404 H 0.94268 0.50696 0.06434 0.0
H405 H 0.97935 0.52494 0.07532 0.0
H406 H 0.97574 0.49206 0.13371 0.0
H407 H 0.95655 0.49159 0.20066 0.0
H408 H 0.50368 0.03716 0.32862 0.0
H409 H 0.47941 -0.00011 0.38126 0.0
H410 H 0.51192 0.06869 0.47333 0.0
H411 H 0.536 0.10602 0.42114 0.0
H412 H 0.50316 0.98921 0.44997 0.0
H413 H 0.42759 0.02059 0.49568 0.0
H414 H 0.44679 0.03246 0.44859 0.0
H415 H 0.46322 0.05098 0.49575 0.0
C416 C 0.50554 0.04437 0.36005 0.0
C417 C 0.52168 0.07458 0.37067 0.0
C418 C 0.49169 0.02305 0.39005 0.0
C419 C 0.49355 0.0316 0.43105 0.0
C420 C 0.50977 0.06168 0.44175 0.0
H421 H 0.44205 0.95313 0.66593 0.0
H422 H 0.46089 0.98488 0.60663 0.0
C423 C 0.52364 0.08298 0.41186 0.0
C424 C 0.47928 0.00912 0.46301 0.0
H425 H 0.4321 0.98825 0.53999 0.0
C426 C 0.48738 0.98871 0.46941 0.0
C427 C 0.45873 0.0086 0.48822 0.0
C428 C 0.44833 0.02914 0.48157 0.0
C429 C 0.47625 0.96852 0.50148 0.0
C430 C 0.45615 0.96847 0.52728 0.0
C431 C 0.44759 0.98842 0.52023 0.0
C432 C 0.44458 0.94878 0.56286 0.0
C433 C 0.48687 0.94821 0.50844 0.0
C434 C 0.42891 0.91791 0.55787 0.0
C435 C 0.41813 0.89963 0.5918 0.0
C436 C 0.42271 0.91194 0.63126 0.0
C437 C 0.43816 0.94289 0.63601 0.0
C438 C 0.44893 0.9611 0.60214 0.0
H439 H 0.50662 0.95557 0.49187 0.0
H440 H 0.49046 0.94692 0.54137 0.0
H441 H 0.47105 0.92564 0.49737 0.0
H442 H 0.42486 0.90797 0.52774 0.0
H443 H 0.4062 0.87589 0.58706 0.0
H444 H 0.42774 0.55097 0.84102 0.0
H445 H 0.4493 0.55111 0.90578 0.0
H446 H 0.50541 0.53303 0.84156 0.0
H447 H 0.48418 0.53298 0.77684 0.0
H448 H 0.4532 0.50478 0.93874 0.0
H449 H 0.5578 0.60439 0.91492 0.0
H450 H 0.52765 0.59645 0.88522 0.0
H451 H 0.54651 0.57879 0.87277 0.0
C452 C 0.44476 0.54716 0.84066 0.0
C453 C 0.45432 0.54206 0.80374 0.0
C454 C 0.45705 0.54729 0.87768 0.0
C455 C 0.47927 0.54265 0.87834 0.0
C456 C 0.48869 0.53734 0.84161 0.0
H457 H 0.572 0.49593 0.01522 0.0
H458 H 0.55065 0.51344 0.96847 0.0
C459 C 0.47639 0.53709 0.80466 0.0
C460 C 0.49191 0.54182 0.91736 0.0
H461 H 0.55486 0.56998 0.96475 0.0
C462 C 0.4753 0.51943 0.94504 0.0
C463 C 0.52067 0.56119 0.9256 0.0
C464 C 0.53915 0.58676 0.89825 0.0
C465 C 0.48717 0.51442 0.97912 0.0
C466 C 0.51629 0.53251 0.98572 0.0
C467 C 0.53255 0.55611 0.95951 0.0
C468 C 0.53075 0.52451 0.01551 0.0
C469 C 0.46887 0.4886 0.00623 0.0
C470 C 0.52711 0.52556 0.05766 0.0
C471 C 0.53943 0.51555 0.08475 0.0
C472 C 0.55536 0.50422 0.06989 0.0
C473 C 0.55966 0.50426 0.02772 0.0
C474 C 0.54756 0.51437 0.00089 0.0
H475 H 0.44714 0.47494 0.99449 0.0
H476 H 0.47758 0.47429 0.00921 0.0
H477 H 0.46827 0.49691 0.0371 0.0
H478 H 0.51441 0.53364 0.06949 0.0
H479 H 0.53578 0.51583 0.11708 0.0
H480 H 0.11928 0.50965 0.64962 0.0
H481 H 0.1015 0.51241 0.58305 0.0
H482 H 0.01848 0.47128 0.63213 0.0
H483 H 0.03597 0.46823 0.6988 0.0
H484 H 0.02259 0.44941 0.55312 0.0
H485 H 0.07684 0.57221 0.56163 0.0
H486 H 0.09781 0.55636 0.56875 0.0
H487 H 0.07196 0.55018 0.60582 0.0
C488 C 0.09717 0.5009 0.64621 0.0
C489 C 0.07905 0.48892 0.67962 0.0
C490 C 0.08712 0.50265 0.60817 0.0
C491 C 0.0588 0.49247 0.60293 0.0
C492 C 0.04046 0.47937 0.6357 0.0
H493 H 0.95174 0.51775 0.46243 0.0
H494 H 0.98791 0.52213 0.50773 0.0
C495 C 0.05048 0.47765 0.67376 0.0
C496 C 0.0482 0.49632 0.56386 0.0
H497 H 0.04729 0.54838 0.50545 0.0
C498 C 0.02829 0.47103 0.5422 0.0
C499 C 0.05573 0.52463 0.54998 0.0
C500 C 0.07662 0.55248 0.57274 0.0
C501 C 0.01477 0.47318 0.50785 0.0
C502 C 0.02163 0.50145 0.4947 0.0
C503 C 0.04238 0.52681 0.5154 0.0
C504 C 0.00435 0.50466 0.46392 0.0
C505 C 0.99205 0.44515 0.48742 0.0
C506 C 0.00267 0.49493 0.42353 0.0
C507 C 0.98196 0.49248 0.39737 0.0
C508 C 0.96267 0.49958 0.41152 0.0
C509 C 0.96613 0.51182 0.4508 0.0
C510 C 0.98683 0.5144 0.47672 0.0
H511 H 0.98684 0.42509 0.50473 0.0
H512 H 0.97282 0.44578 0.48393 0.0
H513 H -0.00103 0.44317 0.45658 0.0
H514 H 0.01631 0.4877 0.41299 0.0
H515 H 0.97982 0.483 0.36724 0.0
loop_
_geom_bond_atom_site_label_1
_geom_bond_atom_site_label_2
_geom_bond_distance
_geom_bond_site_symmetry_2
_ccdc_geom_bond_type
Zn0 O3 2.031 . S
Zn0 O5 2.049 . S
Zn0 O10 2.067 . S
Zn1 O2 1.962 . S
Zn1 O4 1.986 . S
Zn1 O6 1.996 . S
Zn1 O9 1.943 . S
O2 Zn1 1.962 . S
O2 C7 1.254 . S
O3 Zn0 2.031 . S
O3 C7 1.269 . S
O4 Zn1 1.986 . S
O4 C11 1.262 . S
O5 Zn0 2.049 . S
O5 C13 1.260 . S
O6 Zn1 1.996 . S
O6 C13 1.257 . S
C7 O2 1.254 . S
C7 O3 1.269 . S
C8 O9 1.249 . S
C8 O10 1.270 . S
O9 Zn1 1.943 . S
O9 C8 1.249 . S
O10 Zn0 2.067 . S
O10 C8 1.270 . S
C11 O4 1.262 . S
C11 O12 1.232 . S
O12 C11 1.232 . S
C13 O5 1.260 . S
C13 O6 1.257 . S
Zn14 O17 2.031 . S
Zn14 O19 2.049 . S
Zn14 O24 2.067 . S
Zn15 O16 1.962 . S
Zn15 O18 1.986 . S
Zn15 O20 1.996 . S
Zn15 O23 1.943 . S
O16 Zn15 1.962 . S
O16 C21 1.254 . S
O17 Zn14 2.031 . S
O17 C21 1.269 . S
O18 Zn15 1.986 . S
O18 C25 1.262 . S
O19 Zn14 2.049 . S
O19 C27 1.260 . S
O20 Zn15 1.996 . S
O20 C27 1.257 . S
C21 O16 1.254 . S
C21 O17 1.269 . S
C22 O23 1.249 . S
C22 O24 1.270 . S
O23 Zn15 1.943 . S
O23 C22 1.249 . S
O24 Zn14 2.067 . S
O24 C22 1.270 . S
C25 O18 1.262 . S
C25 O26 1.232 . S
O26 C25 1.232 . S
C27 O19 1.260 . S
C27 O20 1.257 . S
Zn28 O31 2.031 . S
Zn28 O33 2.049 . S
Zn28 O38 2.067 . S
Zn29 O30 1.962 . S
Zn29 O32 1.986 . S
Zn29 O34 1.996 . S
Zn29 O37 1.943 . S
O30 Zn29 1.962 . S
O30 C35 1.254 . S
O31 Zn28 2.031 . S
O31 C35 1.269 . S
O32 Zn29 1.986 . S
O32 C39 1.262 . S
O33 Zn28 2.049 . S
O33 C41 1.260 . S
O34 Zn29 1.996 . S
O34 C41 1.257 . S
C35 O30 1.254 . S
C35 O31 1.269 . S
C36 O37 1.249 . S
C36 O38 1.270 . S
O37 Zn29 1.943 . S
O37 C36 1.249 . S
O38 Zn28 2.067 . S
O38 C36 1.270 . S
C39 O32 1.262 . S
C39 O40 1.232 . S
O40 C39 1.232 . S
C41 O33 1.260 . S
C41 O34 1.257 . S
Zn42 O45 2.031 . S
Zn42 O47 2.049 . S
Zn42 O52 2.067 . S
Zn43 O44 1.962 . S
Zn43 O46 1.986 . S
Zn43 O48 1.996 . S
Zn43 O51 1.943 . S
O44 Zn43 1.962 . S
O44 C49 1.254 . S
O45 Zn42 2.031 . S
O45 C49 1.269 . S
O46 Zn43 1.986 . S
O46 C53 1.262 . S
O47 Zn42 2.049 . S
O47 C55 1.260 . S
O48 Zn43 1.996 . S
O48 C55 1.257 . S
C49 O44 1.254 . S
C49 O45 1.269 . S
C50 O51 1.249 . S
C50 O52 1.270 . S
O51 Zn43 1.943 . S
O51 C50 1.249 . S
O52 Zn42 2.067 . S
O52 C50 1.270 . S
C53 O46 1.262 . S
C53 O54 1.232 . S
O54 C53 1.232 . S
C55 O47 1.260 . S
C55 O48 1.257 . S
Zn56 O59 2.031 . S
Zn56 O61 2.049 . S
Zn56 O66 2.067 . S
Zn57 O58 1.962 . S
Zn57 O60 1.986 . S
Zn57 O62 1.996 . S
Zn57 O65 1.943 . S
O58 Zn57 1.962 . S
O58 C63 1.254 . S
O59 Zn56 2.031 . S
O59 C63 1.269 . S
O60 Zn57 1.986 . S
O60 C67 1.262 . S
O61 Zn56 2.049 . S
O61 C69 1.260 . S
O62 Zn57 1.996 . S
O62 C69 1.257 . S
C63 O58 1.254 . S
C63 O59 1.269 . S
C64 O65 1.249 . S
C64 O66 1.270 . S
O65 Zn57 1.943 . S
O65 C64 1.249 . S
O66 Zn56 2.067 . S
O66 C64 1.270 . S
C67 O60 1.262 . S
C67 O68 1.232 . S
O68 C67 1.232 . S
C69 O61 1.260 . S
C69 O62 1.257 . S
Zn70 O73 2.031 . S
Zn70 O75 2.049 . S
Zn70 O80 2.067 . S
Zn71 O72 1.962 . S
Zn71 O74 1.986 . S
Zn71 O76 1.996 . S
Zn71 O79 1.943 . S
O72 Zn71 1.962 . S
O72 C77 1.254 . S
O73 Zn70 2.031 . S
O73 C77 1.269 . S
O74 Zn71 1.986 . S
O74 C81 1.262 . S
O75 Zn70 2.049 . S
O75 C83 1.260 . S
O76 Zn71 1.996 . S
O76 C83 1.257 . S
C77 O72 1.254 . S
C77 O73 1.269 . S
C78 O79 1.249 . S
C78 O80 1.270 . S
O79 Zn71 1.943 . S
O79 C78 1.249 . S
O80 Zn70 2.067 . S
O80 C78 1.270 . S
C81 O74 1.262 . S
C81 O82 1.232 . S
O82 C81 1.232 . S
C83 O75 1.260 . S
C83 O76 1.257 . S
H84 C92 0.929 . S
H85 C94 0.930 . S
H86 C96 0.930 . S
H87 C99 0.929 . S
H88 C102 0.930 . S
H89 C104 0.960 . S
H90 C104 0.960 . S
H91 C104 0.960 . S
C92 H84 0.929 . S
C92 C93 1.377 . S
C92 C94 1.384 . S
C93 C92 1.377 . S
C93 C99 1.390 . S
C94 H85 0.930 . S
C94 C92 1.384 . S
C94 C95 1.372 . S
C95 C94 1.372 . S
C95 C96 1.400 . S
C95 C100 1.490 . S
C96 H86 0.930 . S
C96 C95 1.400 . S
C96 C99 1.386 . S
H97 C113 0.930 . S
H98 C114 0.931 . S
C99 H87 0.929 . S
C99 C93 1.390 . S
C99 C96 1.386 . S
C100 C95 1.490 . S
C100 C102 1.395 . S
C100 C103 1.403 . S
H101 C107 0.930 . S
C102 H88 0.930 . S
C102 C100 1.395 . S
C102 C105 1.403 . S
C103 C100 1.403 . S
C103 C104 1.524 . S
C103 C107 1.400 . S
C104 H89 0.960 . S
C104 H90 0.960 . S
C104 H91 0.960 . S
C104 C103 1.524 . S
C105 C102 1.403 . S
C105 C106 1.392 . S
C105 C109 1.495 . S
C106 C105 1.392 . S
C106 C107 1.385 . S
C106 C108 1.478 . S
C107 H101 0.930 . S
C107 C103 1.400 . S
C107 C106 1.385 . S
C108 C106 1.478 . S
C108 C110 1.381 . S
C108 C114 1.383 . S
C109 C105 1.495 . S
C109 H115 0.959 . S
C109 H116 0.961 . S
C109 H117 0.960 . S
C110 C108 1.381 . S
C110 C111 1.394 . S
C110 H118 0.930 . S
C111 C110 1.394 . S
C111 C112 1.383 . S
C111 H119 0.929 . S
C112 C111 1.383 . S
C112 C113 1.377 . S
C113 H97 0.930 . S
C113 C112 1.377 . S
C113 C114 1.379 . S
C114 H98 0.931 . S
C114 C108 1.383 . S
C114 C113 1.379 . S
H115 C109 0.959 . S
H116 C109 0.961 . S
H117 C109 0.960 . S
H118 C110 0.930 . S
H119 C111 0.929 . S
H120 C128 0.929 . S
H121 C130 0.930 . S
H122 C132 0.930 . S
H123 C135 0.929 . S
H124 C138 0.930 . S
H125 C140 0.960 . S
H126 C140 0.960 . S
H127 C140 0.960 . S
C128 H120 0.929 . S
C128 C129 1.377 . S
C128 C130 1.384 . S
C129 C128 1.377 . S
C129 C135 1.390 . S
C130 H121 0.930 . S
C130 C128 1.384 . S
C130 C131 1.372 . S
C131 C130 1.372 . S
C131 C132 1.400 . S
C131 C136 1.490 . S
C132 H122 0.930 . S
C132 C131 1.400 . S
C132 C135 1.386 . S
H133 C149 0.930 . S
H134 C150 0.931 . S
C135 H123 0.929 . S
C135 C129 1.390 . S
C135 C132 1.386 . S
C136 C131 1.490 . S
C136 C138 1.395 . S
C136 C139 1.403 . S
H137 C143 0.930 . S
C138 H124 0.930 . S
C138 C136 1.395 . S
C138 C141 1.403 . S
C139 C136 1.403 . S
C139 C140 1.524 . S
C139 C143 1.400 . S
C140 H125 0.960 . S
C140 H126 0.960 . S
C140 H127 0.960 . S
C140 C139 1.524 . S
C141 C138 1.403 . S
C141 C142 1.392 . S
C141 C145 1.495 . S
C142 C141 1.392 . S
C142 C143 1.385 . S
C142 C144 1.478 . S
C143 H137 0.930 . S
C143 C139 1.400 . S
C143 C142 1.385 . S
C144 C142 1.478 . S
C144 C146 1.381 . S
C144 C150 1.383 . S
C145 C141 1.495 . S
C145 H151 0.959 . S
C145 H152 0.961 . S
C145 H153 0.960 . S
C146 C144 1.381 . S
C146 C147 1.394 . S
C146 H154 0.930 . S
C147 C146 1.394 . S
C147 C148 1.383 . S
C147 H155 0.929 . S
C148 C147 1.383 . S
C148 C149 1.377 . S
C149 H133 0.930 . S
C149 C148 1.377 . S
C149 C150 1.379 . S
C150 H134 0.931 . S
C150 C144 1.383 . S
C150 C149 1.379 . S
H151 C145 0.959 . S
H152 C145 0.961 . S
H153 C145 0.960 . S
H154 C146 0.930 . S
H155 C147 0.929 . S
H156 C164 0.929 . S
H157 C166 0.930 . S
H158 C168 0.930 . S
H159 C171 0.929 . S
H160 C174 0.930 . S
H161 C176 0.960 . S
H162 C176 0.960 . S
H163 C176 0.960 . S
C164 H156 0.929 . S
C164 C165 1.377 . S
C164 C166 1.384 . S
C165 C164 1.377 . S
C165 C171 1.390 . S
C166 H157 0.930 . S
C166 C164 1.384 . S
C166 C167 1.372 . S
C167 C166 1.372 . S
C167 C168 1.400 . S
C167 C172 1.490 . S
C168 H158 0.930 . S
C168 C167 1.400 . S
C168 C171 1.386 . S
H169 C185 0.930 . S
H170 C186 0.931 . S
C171 H159 0.929 . S
C171 C165 1.390 . S
C171 C168 1.386 . S
C172 C167 1.490 . S
C172 C174 1.395 . S
C172 C175 1.403 . S
H173 C179 0.930 . S
C174 H160 0.930 . S
C174 C172 1.395 . S
C174 C177 1.403 . S
C175 C172 1.403 . S
C175 C176 1.524 . S
C175 C179 1.400 . S
C176 H161 0.960 . S
C176 H162 0.960 . S
C176 H163 0.960 . S
C176 C175 1.524 . S
C177 C174 1.403 . S
C177 C178 1.392 . S
C177 C181 1.495 . S
C178 C177 1.392 . S
C178 C179 1.385 . S
C178 C180 1.478 . S
C179 H173 0.930 . S
C179 C175 1.400 . S
C179 C178 1.385 . S
C180 C178 1.478 . S
C180 C182 1.381 . S
C180 C186 1.383 . S
C181 C177 1.495 . S
C181 H187 0.959 . S
C181 H188 0.961 . S
C181 H189 0.960 . S
C182 C180 1.381 . S
C182 C183 1.394 . S
C182 H190 0.930 . S
C183 C182 1.394 . S
C183 C184 1.383 . S
C183 H191 0.929 . S
C184 C183 1.383 . S
C184 C185 1.377 . S
C185 H169 0.930 . S
C185 C184 1.377 . S
C185 C186 1.379 . S
C186 H170 0.931 . S
C186 C180 1.383 . S
C186 C185 1.379 . S
H187 C181 0.959 . S
H188 C181 0.961 . S
H189 C181 0.960 . S
H190 C182 0.930 . S
H191 C183 0.929 . S
H192 C200 0.929 . S
H193 C202 0.930 . S
H194 C204 0.930 . S
H195 C207 0.929 . S
H196 C210 0.930 . S
H197 C212 0.960 . S
H198 C212 0.960 . S
H199 C212 0.960 . S
C200 H192 0.929 . S
C200 C201 1.377 . S
C200 C202 1.384 . S
C201 C200 1.377 . S
C201 C207 1.390 . S
C202 H193 0.930 . S
C202 C200 1.384 . S
C202 C203 1.372 . S
C203 C202 1.372 . S
C203 C204 1.400 . S
C203 C208 1.490 . S
C204 H194 0.930 . S
C204 C203 1.400 . S
C204 C207 1.386 . S
H205 C221 0.930 . S
H206 C222 0.931 . S
C207 H195 0.929 . S
C207 C201 1.390 . S
C207 C204 1.386 . S
C208 C203 1.490 . S
C208 C210 1.395 . S
C208 C211 1.403 . S
H209 C215 0.930 . S
C210 H196 0.930 . S
C210 C208 1.395 . S
C210 C213 1.403 . S
C211 C208 1.403 . S
C211 C212 1.524 . S
C211 C215 1.400 . S
C212 H197 0.960 . S
C212 H198 0.960 . S
C212 H199 0.960 . S
C212 C211 1.524 . S
C213 C210 1.403 . S
C213 C214 1.392 . S
C213 C217 1.495 . S
C214 C213 1.392 . S
C214 C215 1.385 . S
C214 C216 1.478 . S
C215 H209 0.930 . S
C215 C211 1.400 . S
C215 C214 1.385 . S
C216 C214 1.478 . S
C216 C218 1.381 . S
C216 C222 1.383 . S
C217 C213 1.495 . S
C217 H223 0.959 . S
C217 H224 0.961 . S
C217 H225 0.960 . S
C218 C216 1.381 . S
C218 C219 1.394 . S
C218 H226 0.930 . S
C219 C218 1.394 . S
C219 C220 1.383 . S
C219 H227 0.929 . S
C220 C219 1.383 . S
C220 C221 1.377 . S
C221 H205 0.930 . S
C221 C220 1.377 . S
C221 C222 1.379 . S
C222 H206 0.931 . S
C222 C216 1.383 . S
C222 C221 1.379 . S
H223 C217 0.959 . S
H224 C217 0.961 . S
H225 C217 0.960 . S
H226 C218 0.930 . S
H227 C219 0.929 . S
H228 C236 0.929 . S
H229 C238 0.930 . S
H230 C240 0.930 . S
H231 C243 0.929 . S
H232 C246 0.930 . S
H233 C248 0.960 . S
H234 C248 0.960 . S
H235 C248 0.960 . S
C236 H228 0.929 . S
C236 C237 1.377 . S
C236 C238 1.384 . S
C237 C236 1.377 . S
C237 C243 1.390 . S
C238 H229 0.930 . S
C238 C236 1.384 . S
C238 C239 1.372 . S
C239 C238 1.372 . S
C239 C240 1.400 . S
C239 C244 1.490 . S
C240 H230 0.930 . S
C240 C239 1.400 . S
C240 C243 1.386 . S
H241 C257 0.930 . S
H242 C258 0.931 . S
C243 H231 0.929 . S
C243 C237 1.390 . S
C243 C240 1.386 . S
C244 C239 1.490 . S
C244 C246 1.395 . S
C244 C247 1.403 . S
H245 C251 0.930 . S
C246 H232 0.930 . S
C246 C244 1.395 . S
C246 C249 1.403 . S
C247 C244 1.403 . S
C247 C248 1.524 . S
C247 C251 1.400 . S
C248 H233 0.960 . S
C248 H234 0.960 . S
C248 H235 0.960 . S
C248 C247 1.524 . S
C249 C246 1.403 . S
C249 C250 1.392 . S
C249 C253 1.495 . S
C250 C249 1.392 . S
C250 C251 1.385 . S
C250 C252 1.478 . S
C251 H245 0.930 . S
C251 C247 1.400 . S
C251 C250 1.385 . S
C252 C250 1.478 . S
C252 C254 1.381 . S
C252 C258 1.383 . S
C253 C249 1.495 . S
C253 H259 0.959 . S
C253 H260 0.961 . S
C253 H261 0.960 . S
C254 C252 1.381 . S
C254 C255 1.394 . S
C254 H262 0.930 . S
C255 C254 1.394 . S
C255 C256 1.383 . S
C255 H263 0.929 . S
C256 C255 1.383 . S
C256 C257 1.377 . S
C257 H241 0.930 . S
C257 C256 1.377 . S
C257 C258 1.379 . S
C258 H242 0.931 . S
C258 C252 1.383 . S
C258 C257 1.379 . S
H259 C253 0.959 . S
H260 C253 0.961 . S
H261 C253 0.960 . S
H262 C254 0.930 . S
H263 C255 0.929 . S
H264 C272 0.929 . S
H265 C274 0.930 . S
H266 C276 0.930 . S
H267 C279 0.929 . S
H268 C282 0.930 . S
H269 C284 0.960 . S
H270 C284 0.960 . S
H271 C284 0.960 . S
C272 H264 0.929 . S
C272 C273 1.377 . S
C272 C274 1.384 . S
C273 C272 1.377 . S
C273 C279 1.390 . S
C274 H265 0.930 . S
C274 C272 1.384 . S
C274 C275 1.372 . S
C275 C274 1.372 . S
C275 C276 1.400 . S
C275 C280 1.490 . S
C276 H266 0.930 . S
C276 C275 1.400 . S
C276 C279 1.386 . S
H277 C293 0.930 . S
H278 C294 0.931 . S
C279 H267 0.929 . S
C279 C273 1.390 . S
C279 C276 1.386 . S
C280 C275 1.490 . S
C280 C282 1.395 . S
C280 C283 1.403 . S
H281 C287 0.930 . S
C282 H268 0.930 . S
C282 C280 1.395 . S
C282 C285 1.403 . S
C283 C280 1.403 . S
C283 C284 1.524 . S
C283 C287 1.400 . S
C284 H269 0.960 . S
C284 H270 0.960 . S
C284 H271 0.960 . S
C284 C283 1.524 . S
C285 C282 1.403 . S
C285 C286 1.392 . S
C285 C289 1.495 . S
C286 C285 1.392 . S
C286 C287 1.385 . S
C286 C288 1.478 . S
C287 H281 0.930 . S
C287 C283 1.400 . S
C287 C286 1.385 . S
C288 C286 1.478 . S
C288 C290 1.381 . S
C288 C294 1.383 . S
C289 C285 1.495 . S
C289 H295 0.959 . S
C289 H296 0.961 . S
C289 H297 0.960 . S
C290 C288 1.381 . S
C290 C291 1.394 . S
C290 H298 0.930 . S
C291 C290 1.394 . S
C291 C292 1.383 . S
C291 H299 0.929 . S
C292 C291 1.383 . S
C292 C293 1.377 . S
C293 H277 0.930 . S
C293 C292 1.377 . S
C293 C294 1.379 . S
C294 H278 0.931 . S
C294 C288 1.383 . S
C294 C293 1.379 . S
H295 C289 0.959 . S
H296 C289 0.961 . S
H297 C289 0.960 . S
H298 C290 0.930 . S
H299 C291 0.929 . S
H300 C308 0.929 . S
H301 C310 0.930 . S
H302 C312 0.930 . S
H303 C315 0.929 . S
H304 C318 0.930 . S
H305 C320 0.960 . S
H306 C320 0.960 1_556 S
H307 C320 0.960 1_556 S
C308 H300 0.929 . S
C308 C309 1.377 . S
C308 C310 1.384 . S
C309 C308 1.377 . S
C309 C315 1.390 . S
C310 H301 0.930 . S
C310 C308 1.384 . S
C310 C311 1.372 . S
C311 C310 1.372 . S
C311 C312 1.400 . S
C311 C316 1.490 . S
C312 H302 0.930 . S
C312 C311 1.400 . S
C312 C315 1.386 . S
H313 C329 0.930 . S
H314 C330 0.931 . S
C315 H303 0.929 . S
C315 C309 1.390 . S
C315 C312 1.386 . S
C316 C311 1.490 . S
C316 C318 1.395 1_565 S
C316 C319 1.403 1_556 S
H317 C323 0.930 . S
C318 H304 0.930 . S
C318 C316 1.395 1_545 S
C318 C321 1.403 . S
C319 C316 1.403 1_554 S
C319 C320 1.524 . S
C319 C323 1.400 . S
C320 H305 0.960 . S
C320 H306 0.960 1_554 S
C320 H307 0.960 1_554 S
C320 C319 1.524 . S
C321 C318 1.403 . S
C321 C322 1.392 1_556 S
C321 C325 1.495 . S
C322 C321 1.392 1_554 S
C322 C323 1.385 1_545 S
C322 C324 1.478 . S
C323 H317 0.930 . S
C323 C319 1.400 . S
C323 C322 1.385 1_565 S
C324 C322 1.478 . S
C324 C326 1.381 . S
C324 C330 1.383 . S
C325 C321 1.495 . S
C325 H331 0.959 . S
C325 H332 0.961 . S
C325 H333 0.960 1_556 S
C326 C324 1.381 . S
C326 C327 1.394 . S
C326 H334 0.930 . S
C327 C326 1.394 . S
C327 C328 1.383 . S
C327 H335 0.929 . S
C328 C327 1.383 . S
C328 C329 1.377 . S
C329 H313 0.930 . S
C329 C328 1.377 . S
C329 C330 1.379 . S
C330 H314 0.931 . S
C330 C324 1.383 . S
C330 C329 1.379 . S
H331 C325 0.959 . S
H332 C325 0.961 . S
H333 C325 0.960 1_554 S
H334 C326 0.930 . S
H335 C327 0.929 . S
H336 C344 0.929 . S
H337 C346 0.930 . S
H338 C348 0.930 . S
H339 C351 0.929 . S
H340 C354 0.930 . S
H341 C356 0.960 . S
H342 C356 0.960 . S
H343 C356 0.960 . S
C344 H336 0.929 . S
C344 C345 1.377 . S
C344 C346 1.384 . S
C345 C344 1.377 . S
C345 C351 1.390 . S
C346 H337 0.930 . S
C346 C344 1.384 . S
C346 C347 1.372 . S
C347 C346 1.372 . S
C347 C348 1.400 . S
C347 C352 1.490 . S
C348 H338 0.930 . S
C348 C347 1.400 . S
C348 C351 1.386 . S
H349 C365 0.930 . S
H350 C366 0.931 . S
C351 H339 0.929 . S
C351 C345 1.390 . S
C351 C348 1.386 . S
C352 C347 1.490 . S
C352 C354 1.395 . S
C352 C355 1.403 . S
H353 C359 0.930 . S
C354 H340 0.930 . S
C354 C352 1.395 . S
C354 C357 1.403 . S
C355 C352 1.403 . S
C355 C356 1.524 . S
C355 C359 1.400 . S
C356 H341 0.960 . S
C356 H342 0.960 . S
C356 H343 0.960 . S
C356 C355 1.524 . S
C357 C354 1.403 . S
C357 C358 1.392 . S
C357 C361 1.495 . S
C358 C357 1.392 . S
C358 C359 1.385 . S
C358 C360 1.478 . S
C359 H353 0.930 . S
C359 C355 1.400 . S
C359 C358 1.385 . S
C360 C358 1.478 . S
C360 C362 1.381 . S
C360 C366 1.383 . S
C361 C357 1.495 . S
C361 H367 0.959 . S
C361 H368 0.961 . S
C361 H369 0.960 . S
C362 C360 1.381 . S
C362 C363 1.394 . S
C362 H370 0.930 . S
C363 C362 1.394 . S
C363 C364 1.383 . S
C363 H371 0.929 . S
C364 C363 1.383 . S
C364 C365 1.377 . S
C365 H349 0.930 . S
C365 C364 1.377 . S
C365 C366 1.379 . S
C366 H350 0.931 . S
C366 C360 1.383 . S
C366 C365 1.379 . S
H367 C361 0.959 . S
H368 C361 0.961 . S
H369 C361 0.960 . S
H370 C362 0.930 . S
H371 C363 0.929 . S
H372 C380 0.929 . S
H373 C382 0.930 . S
H374 C384 0.930 . S
H375 C387 0.929 . S
H376 C390 0.930 . S
H377 C392 0.960 . S
H378 C392 0.960 . S
H379 C392 0.960 . S
C380 H372 0.929 . S
C380 C381 1.377 . S
C380 C382 1.384 . S
C381 C380 1.377 . S
C381 C387 1.390 . S
C382 H373 0.930 . S
C382 C380 1.384 . S
C382 C383 1.372 . S
C383 C382 1.372 . S
C383 C384 1.400 . S
C383 C388 1.490 . S
C384 H374 0.930 . S
C384 C383 1.400 . S
C384 C387 1.386 . S
H385 C401 0.930 . S
H386 C402 0.931 . S
C387 H375 0.929 . S
C387 C381 1.390 . S
C387 C384 1.386 . S
C388 C383 1.490 . S
C388 C390 1.395 . S
C388 C391 1.403 . S
H389 C395 0.930 . S
C390 H376 0.930 . S
C390 C388 1.395 . S
C390 C393 1.403 1_455 S
C391 C388 1.403 . S
C391 C392 1.524 . S
C391 C395 1.400 1_456 S
C392 H377 0.960 . S
C392 H378 0.960 . S
C392 H379 0.960 . S
C392 C391 1.524 . S
C393 C390 1.403 1_655 S
C393 C394 1.392 1_556 S
C393 C397 1.495 1_556 S
C394 C393 1.392 1_554 S
C394 C395 1.385 . S
C394 C396 1.478 . S
C395 H389 0.930 . S
C395 C391 1.400 1_654 S
C395 C394 1.385 . S
C396 C394 1.478 . S
C396 C398 1.381 . S
C396 C402 1.383 . S
C397 C393 1.495 1_554 S
C397 H403 0.959 1_554 S
C397 H404 0.961 . S
C397 H405 0.960 . S
C398 C396 1.381 . S
C398 C399 1.394 . S
C398 H406 0.930 . S
C399 C398 1.394 . S
C399 C400 1.383 . S
C399 H407 0.929 . S
C400 C399 1.383 . S
C400 C401 1.377 . S
C401 H385 0.930 . S
C401 C400 1.377 . S
C401 C402 1.379 . S
C402 H386 0.931 . S
C402 C396 1.383 . S
C402 C401 1.379 . S
H403 C397 0.959 1_556 S
H404 C397 0.961 . S
H405 C397 0.960 . S
H406 C398 0.930 . S
H407 C399 0.929 . S
H408 C416 0.929 . S
H409 C418 0.930 . S
H410 C420 0.930 . S
H411 C423 0.929 . S
H412 C426 0.930 . S
H413 C428 0.960 . S
H414 C428 0.960 . S
H415 C428 0.960 . S
C416 H408 0.929 . S
C416 C417 1.377 . S
C416 C418 1.384 . S
C417 C416 1.377 . S
C417 C423 1.390 . S
C418 H409 0.930 . S
C418 C416 1.384 . S
C418 C419 1.372 . S
C419 C418 1.372 . S
C419 C420 1.400 . S
C419 C424 1.490 . S
C420 H410 0.930 . S
C420 C419 1.400 . S
C420 C423 1.386 . S
H421 C437 0.930 . S
H422 C438 0.931 . S
C423 H411 0.929 . S
C423 C417 1.390 . S
C423 C420 1.386 . S
C424 C419 1.490 . S
C424 C426 1.395 1_545 S
C424 C427 1.403 . S
H425 C431 0.930 . S
C426 H412 0.930 . S
C426 C424 1.395 1_565 S
C426 C429 1.403 . S
C427 C424 1.403 . S
C427 C428 1.524 . S
C427 C431 1.400 . S
C428 H413 0.960 . S
C428 H414 0.960 . S
C428 H415 0.960 . S
C428 C427 1.524 . S
C429 C426 1.403 . S
C429 C430 1.392 . S
C429 C433 1.495 . S
C430 C429 1.392 . S
C430 C431 1.385 1_565 S
C430 C432 1.478 . S
C431 H425 0.930 . S
C431 C427 1.400 . S
C431 C430 1.385 1_545 S
C432 C430 1.478 . S
C432 C434 1.381 . S
C432 C438 1.383 . S
C433 C429 1.495 . S
C433 H439 0.959 . S
C433 H440 0.961 . S
C433 H441 0.960 . S
C434 C432 1.381 . S
C434 C435 1.394 . S
C434 H442 0.930 . S
C435 C434 1.394 . S
C435 C436 1.383 . S
C435 H443 0.929 . S
C436 C435 1.383 . S
C436 C437 1.377 . S
C437 H421 0.930 . S
C437 C436 1.377 . S
C437 C438 1.379 . S
C438 H422 0.931 . S
C438 C432 1.383 . S
C438 C437 1.379 . S
H439 C433 0.959 . S
H440 C433 0.961 . S
H441 C433 0.960 . S
H442 C434 0.930 . S
H443 C435 0.929 . S
H444 C452 0.929 . S
H445 C454 0.930 . S
H446 C456 0.930 . S
H447 C459 0.929 . S
H448 C462 0.930 . S
H449 C464 0.960 . S
H450 C464 0.960 . S
H451 C464 0.960 . S
C452 H444 0.929 . S
C452 C453 1.377 . S
C452 C454 1.384 . S
C453 C452 1.377 . S
C453 C459 1.390 . S
C454 H445 0.930 . S
C454 C452 1.384 . S
C454 C455 1.372 . S
C455 C454 1.372 . S
C455 C456 1.400 . S
C455 C460 1.490 . S
C456 H446 0.930 . S
C456 C455 1.400 . S
C456 C459 1.386 . S
H457 C473 0.930 . S
H458 C474 0.931 . S
C459 H447 0.929 . S
C459 C453 1.390 . S
C459 C456 1.386 . S
C460 C455 1.490 . S
C460 C462 1.395 . S
C460 C463 1.403 . S
H461 C467 0.930 . S
C462 H448 0.930 . S
C462 C460 1.395 . S
C462 C465 1.403 1_556 S
C463 C460 1.403 . S
C463 C464 1.524 . S
C463 C467 1.400 1_556 S
C464 H449 0.960 . S
C464 H450 0.960 . S
C464 H451 0.960 . S
C464 C463 1.524 . S
C465 C462 1.403 1_554 S
C465 C466 1.392 . S
C465 C469 1.495 . S
C466 C465 1.392 . S
C466 C467 1.385 . S
C466 C468 1.478 . S
C467 H461 0.930 . S
C467 C463 1.400 1_554 S
C467 C466 1.385 . S
C468 C466 1.478 . S
C468 C470 1.381 . S
C468 C474 1.383 . S
C469 C465 1.495 . S
C469 H475 0.959 . S
C469 H476 0.961 . S
C469 H477 0.960 . S
C470 C468 1.381 . S
C470 C471 1.394 . S
C470 H478 0.930 . S
C471 C470 1.394 . S
C471 C472 1.383 . S
C471 H479 0.929 . S
C472 C471 1.383 . S
C472 C473 1.377 . S
C473 H457 0.930 . S
C473 C472 1.377 . S
C473 C474 1.379 . S
C474 H458 0.931 . S
C474 C468 1.383 . S
C474 C473 1.379 . S
H475 C469 0.959 . S
H476 C469 0.961 . S
H477 C469 0.960 . S
H478 C470 0.930 . S
H479 C471 0.929 . S
H480 C488 0.929 . S
H481 C490 0.930 . S
H482 C492 0.930 . S
H483 C495 0.929 . S
H484 C498 0.930 1_455 S
H485 C500 0.960 . S
H486 C500 0.960 . S
H487 C500 0.960 . S
C488 H480 0.929 . S
C488 C489 1.377 . S
C488 C490 1.384 . S
C489 C488 1.377 . S
C489 C495 1.390 . S
C490 H481 0.930 . S
C490 C488 1.384 . S
C490 C491 1.372 . S
C491 C490 1.372 . S
C491 C492 1.400 . S
C491 C496 1.490 . S
C492 H482 0.930 . S
C492 C491 1.400 . S
C492 C495 1.386 . S
H493 C509 0.930 . S
H494 C510 0.931 . S
C495 H483 0.929 . S
C495 C489 1.390 . S
C495 C492 1.386 . S
C496 C491 1.490 . S
C496 C498 1.395 1_455 S
C496 C499 1.403 . S
H497 C503 0.930 . S
C498 H484 0.930 1_655 S
C498 C496 1.395 1_655 S
C498 C501 1.403 . S
C499 C496 1.403 . S
C499 C500 1.524 . S
C499 C503 1.400 1_455 S
C500 H485 0.960 . S
C500 H486 0.960 . S
C500 H487 0.960 . S
C500 C499 1.524 . S
C501 C498 1.403 . S
C501 C502 1.392 . S
C501 C505 1.495 . S
C502 C501 1.392 . S
C502 C503 1.385 . S
C502 C504 1.478 . S
C503 H497 0.930 . S
C503 C499 1.400 1_655 S
C503 C502 1.385 . S
C504 C502 1.478 . S
C504 C506 1.381 . S
C504 C510 1.383 . S
C505 C501 1.495 . S
C505 H511 0.959 . S
C505 H512 0.961 . S
C505 H513 0.960 . S
C506 C504 1.381 . S
C506 C507 1.394 . S
C506 H514 0.930 . S
C507 C506 1.394 . S
C507 C508 1.383 . S
C507 H515 0.929 . S
C508 C507 1.383 . S
C508 C509 1.377 . S
C509 H493 0.930 . S
C509 C508 1.377 . S
C509 C510 1.379 . S
C510 H494 0.931 . S
C510 C504 1.383 . S
C510 C509 1.379 . S
H511 C505 0.959 . S
H512 C505 0.961 . S
H513 C505 0.960 . S
H514 C506 0.930 . S
H515 C507 0.929 . S
C93 C7 0.851 . S
C112 C64 0.888 . S
C129 C21 0.823 . S
C148 C77 0.873 . S
C165 C8 0.843 . S
C184 C36 0.812 . S
C201 C50 0.850 . S
C220 C22 0.844 . S
C237 C63 0.838 . S
C256 C35 0.790 . S
C273 C49 0.858 . S
C292 C78 0.828 . S
C309 C55 1.243 . S
C328 C13 1.207 . S
C345 C67 1.365 . S
C364 C27 1.267 . S
C381 C83 1.249 . S
C400 C39 1.341 . S
C417 C11 1.342 . S
C436 C53 1.331 . S
C453 C25 1.349 . S
C472 C69 1.260 . S
C489 C81 1.361 . S
C508 C41 1.265 . S
