# Generated by pormake.
# Topology vbm, (6)-cn, num edge types: 1
# Building blocks:
#     Node 0, Type 0, BuildingBlock: INOVEN_clean_sbu_0, # of connection points: 6
#     Node 1, Type 0, BuildingBlock: INOVEN_clean_sbu_0, # of connection points: 6
#     Node 2, Type 0, BuildingBlock: INOVEN_clean_sbu_0, # of connection points: 6
#     Node 3, Type 0, BuildingBlock: INOVEN_clean_sbu_0, # of connection points: 6
#     Node 4, Type 0, BuildingBlock: INOVEN_clean_sbu_0, # of connection points: 6
#     Node 5, Type 0, BuildingBlock: INOVEN_clean_sbu_0, # of connection points: 6
#     Node 6, Type 0, BuildingBlock: INOVEN_clean_sbu_0, # of connection points: 6
#     Node 7, Type 0, BuildingBlock: INOVEN_clean_sbu_0, # of connection points: 6
#     Node 8, Type 0, BuildingBlock: INOVEN_clean_sbu_0, # of connection points: 6
#     Node 9, Type 0, BuildingBlock: INOVEN_clean_sbu_0, # of connection points: 6
#     Node 10, Type 0, BuildingBlock: INOVEN_clean_sbu_0, # of connection points: 6
#     Node 11, Type 0, BuildingBlock: INOVEN_clean_sbu_0, # of connection points: 6
#     Node 12, Type 0, BuildingBlock: INOVEN_clean_sbu_0, # of connection points: 6
#     Node 13, Type 0, BuildingBlock: INOVEN_clean_sbu_0, # of connection points: 6
#     Node 14, Type 0, BuildingBlock: INOVEN_clean_sbu_0, # of connection points: 6
#     Node 15, Type 0, BuildingBlock: INOVEN_clean_sbu_0, # of connection points: 6
#     Edge 16, Type (0, 0), BuildingBlock: TEMPAE_clean_linker_10, # of connection points: 2
#     Edge 17, Type (0, 0), BuildingBlock: TEMPAE_clean_linker_10, # of connection points: 2
#     Edge 18, Type (0, 0), BuildingBlock: TEMPAE_clean_linker_10, # of connection points: 2
#     Edge 19, Type (0, 0), BuildingBlock: TEMPAE_clean_linker_10, # of connection points: 2
#     Edge 20, Type (0, 0), BuildingBlock: TEMPAE_clean_linker_10, # of connection points: 2
#     Edge 21, Type (0, 0), BuildingBlock: TEMPAE_clean_linker_10, # of connection points: 2
#     Edge 22, Type (0, 0), BuildingBlock: TEMPAE_clean_linker_10, # of connection points: 2
#     Edge 23, Type (0, 0), BuildingBlock: TEMPAE_clean_linker_10, # of connection points: 2
#     Edge 24, Type (0, 0), BuildingBlock: TEMPAE_clean_linker_10, # of connection points: 2
#     Edge 25, Type (0, 0), BuildingBlock: TEMPAE_clean_linker_10, # of connection points: 2
#     Edge 26, Type (0, 0), BuildingBlock: TEMPAE_clean_linker_10, # of connection points: 2
#     Edge 27, Type (0, 0), BuildingBlock: TEMPAE_clean_linker_10, # of connection points: 2
#     Edge 28, Type (0, 0), BuildingBlock: TEMPAE_clean_linker_10, # of connection points: 2
#     Edge 29, Type (0, 0), BuildingBlock: TEMPAE_clean_linker_10, # of connection points: 2
#     Edge 30, Type (0, 0), BuildingBlock: TEMPAE_clean_linker_10, # of connection points: 2
#     Edge 31, Type (0, 0), BuildingBlock: TEMPAE_clean_linker_10, # of connection points: 2
#     Edge 32, Type (0, 0), BuildingBlock: TEMPAE_clean_linker_10, # of connection points: 2
#     Edge 33, Type (0, 0), BuildingBlock: TEMPAE_clean_linker_10, # of connection points: 2
#     Edge 34, Type (0, 0), BuildingBlock: TEMPAE_clean_linker_10, # of connection points: 2
#     Edge 35, Type (0, 0), BuildingBlock: TEMPAE_clean_linker_10, # of connection points: 2
#     Edge 36, Type (0, 0), BuildingBlock: TEMPAE_clean_linker_10, # of connection points: 2
#     Edge 37, Type (0, 0), BuildingBlock: TEMPAE_clean_linker_10, # of connection points: 2
#     Edge 38, Type (0, 0), BuildingBlock: TEMPAE_clean_linker_10, # of connection points: 2
#     Edge 39, Type (0, 0), BuildingBlock: TEMPAE_clean_linker_10, # of connection points: 2
#     Edge 40, Type (0, 0), BuildingBlock: TEMPAE_clean_linker_10, # of connection points: 2
#     Edge 41, Type (0, 0), BuildingBlock: TEMPAE_clean_linker_10, # of connection points: 2
#     Edge 42, Type (0, 0), BuildingBlock: TEMPAE_clean_linker_10, # of connection points: 2
#     Edge 43, Type (0, 0), BuildingBlock: TEMPAE_clean_linker_10, # of connection points: 2
#     Edge 44, Type (0, 0), BuildingBlock: TEMPAE_clean_linker_10, # of connection points: 2
#     Edge 45, Type (0, 0), BuildingBlock: TEMPAE_clean_linker_10, # of connection points: 2
#     Edge 46, Type (0, 0), BuildingBlock: TEMPAE_clean_linker_10, # of connection points: 2
#     Edge 47, Type (0, 0), BuildingBlock: TEMPAE_clean_linker_10, # of connection points: 2
#     Edge 48, Type (0, 0), BuildingBlock: TEMPAE_clean_linker_10, # of connection points: 2
#     Edge 49, Type (0, 0), BuildingBlock: TEMPAE_clean_linker_10, # of connection points: 2
#     Edge 50, Type (0, 0), BuildingBlock: TEMPAE_clean_linker_10, # of connection points: 2
#     Edge 51, Type (0, 0), BuildingBlock: TEMPAE_clean_linker_10, # of connection points: 2
#     Edge 52, Type (0, 0), BuildingBlock: TEMPAE_clean_linker_10, # of connection points: 2
#     Edge 53, Type (0, 0), BuildingBlock: TEMPAE_clean_linker_10, # of connection points: 2
#     Edge 54, Type (0, 0), BuildingBlock: TEMPAE_clean_linker_10, # of connection points: 2
#     Edge 55, Type (0, 0), BuildingBlock: TEMPAE_clean_linker_10, # of connection points: 2
#     Edge 56, Type (0, 0), BuildingBlock: TEMPAE_clean_linker_10, # of connection points: 2
#     Edge 57, Type (0, 0), BuildingBlock: TEMPAE_clean_linker_10, # of connection points: 2
#     Edge 58, Type (0, 0), BuildingBlock: TEMPAE_clean_linker_10, # of connection points: 2
#     Edge 59, Type (0, 0), BuildingBlock: TEMPAE_clean_linker_10, # of connection points: 2
#     Edge 60, Type (0, 0), BuildingBlock: TEMPAE_clean_linker_10, # of connection points: 2
#     Edge 61, Type (0, 0), BuildingBlock: TEMPAE_clean_linker_10, # of connection points: 2
#     Edge 62, Type (0, 0), BuildingBlock: TEMPAE_clean_linker_10, # of connection points: 2
#     Edge 63, Type (0, 0), BuildingBlock: TEMPAE_clean_linker_10, # of connection points: 2
# Relax obj value: 0.062
# Max RMSD: 0.138
# Mean RMSD: 0.138
data_MOF--net-vbm--node1-INOVEN_clean_sbu_0--edge1-TEMPAE_clean_linker_10
_symmetry_space_group_name_H-M    P1
_symmetry_Int_Tables_number       1
_symmetry_cell_setting            triclinic
loop_
_symmetry_equiv_pos_as_xyz
'x, y, z'
_cell_length_a     56.394341
_cell_length_b     26.057347
_cell_length_c     56.787325
_cell_angle_alpha  90.046244
_cell_angle_beta   89.976903
_cell_angle_gamma 90.051588
loop_
_atom_site_label
_atom_site_type_symbol
_atom_site_fract_x
_atom_site_fract_y
_atom_site_fract_z
_atom_type_partial_charge
Gd0 Gd 0.13268 0.065 0.14977 0.0
Gd1 Gd 0.10879 0.17591 0.14752 0.0
C2 C 0.07617 0.07871 0.14039 0.0
C3 C 0.14768 0.97755 0.16543 0.0
C4 C 0.14426 0.92174 0.16189 0.0
C5 C 0.14705 0.89835 0.13974 0.0
C6 C 0.13858 0.89104 0.18138 0.0
C7 C 0.13894 0.81414 0.15687 0.0
C8 C 0.1359 0.83795 0.17892 0.0
C9 C 0.14442 0.84509 0.13727 0.0
C10 C 0.12511 0.09226 0.10395 0.0
C11 C 0.16575 0.16715 0.15451 0.0
C12 C 0.09701 0.26897 0.13656 0.0
C13 C 0.10449 0.32309 0.14009 0.0
C14 C 0.10065 0.34871 0.16156 0.0
C15 C 0.11402 0.35083 0.12109 0.0
C16 C 0.11509 0.42901 0.14468 0.0
C17 C 0.11935 0.40306 0.12337 0.0
C18 C 0.10591 0.40104 0.16383 0.0
C19 C 0.10812 0.12764 0.18981 0.0
O20 O 0.09299 0.05005 0.15015 0.0
O21 O 0.07996 0.12641 0.13349 0.0
O22 O 0.15866 1.00363 0.14895 0.0
O23 O 0.1298 1.00246 0.17463 0.0
O24 O 0.13408 0.0487 0.11049 0.0
O25 O 0.12057 0.11783 0.12228 0.0
O26 O 0.14681 0.19671 0.15305 0.0
O27 O 0.16492 0.11625 0.15388 0.0
O28 O 0.08806 0.24422 0.15459 0.0
O29 O 0.11066 0.24015 0.12338 0.0
O30 O 0.09166 0.15906 0.1829 0.0
O31 O 0.12484 0.12688 0.17499 0.0
H32 H 0.15142 0.92106 0.12437 0.0
H33 H 0.13628 0.90818 0.19863 0.0
H34 H 0.13126 0.81559 0.19432 0.0
H35 H 0.14709 0.82806 0.12007 0.0
H36 H 0.09323 0.32864 0.17655 0.0
H37 H 0.11688 0.33236 0.10422 0.0
H38 H 0.12612 0.4235 0.10819 0.0
H39 H 0.10267 0.41969 0.18057 0.0
Gd40 Gd 0.84849 0.9758 0.146 0.0
Gd41 Gd 0.87081 0.8708 0.14432 0.0
C42 C 0.90588 0.96357 0.13964 0.0
C43 C 0.83675 0.06869 0.15773 0.0
C44 C 0.84206 0.1236 0.1541 0.0
C45 C 0.84279 0.14592 0.13159 0.0
C46 C 0.84529 0.15487 0.17395 0.0
C47 C 0.84931 0.23043 0.14907 0.0
C48 C 0.84889 0.20762 0.1715 0.0
C49 C 0.84637 0.1989 0.12911 0.0
C50 C 0.85101 0.93719 0.10163 0.0
C51 C 0.81409 0.87843 0.15033 0.0
C52 C 0.88363 0.77782 0.13431 0.0
C53 C 0.87645 0.72339 0.1362 0.0
C54 C 0.87242 0.69956 0.15804 0.0
C55 C 0.87523 0.69377 0.11559 0.0
C56 C 0.86734 0.61672 0.13856 0.0
C57 C 0.87066 0.64114 0.11673 0.0
C58 C 0.86788 0.64672 0.1592 0.0
C59 C 0.86816 0.91442 0.18799 0.0
O60 O 0.88823 0.99282 0.14724 0.0
O61 O 0.90233 0.9156 0.13339 0.0
O62 O 0.82654 0.04316 0.14067 0.0
O63 O 0.85273 0.04181 0.16887 0.0
O64 O 0.83444 0.96728 0.1093 0.0
O65 O 0.86672 0.9321 0.11738 0.0
O66 O 0.83225 0.85034 0.14357 0.0
O67 O 0.81636 0.92778 0.15545 0.0
O68 O 0.89019 0.80185 0.15349 0.0
O69 O 0.8713 0.80669 0.11999 0.0
O70 O 0.88576 0.88621 0.18098 0.0
O71 O 0.85252 0.91536 0.1722 0.0
H72 H 0.84039 0.12263 0.11597 0.0
H73 H 0.84462 0.13854 0.19149 0.0
H74 H 0.85075 0.23074 0.18725 0.0
H75 H 0.84687 0.21517 0.11158 0.0
H76 H 0.87329 0.72142 0.17425 0.0
H77 H 0.87829 0.71124 0.09854 0.0
H78 H 0.86993 0.61945 0.10047 0.0
H79 H 0.86557 0.62911 0.17631 0.0
Gd80 Gd 0.13399 0.98502 0.3806 0.0
Gd81 Gd 0.11016 0.87501 0.38439 0.0
C82 C 0.07762 0.97102 0.39131 0.0
C83 C 0.14681 0.0722 0.36289 0.0
C84 C 0.14327 0.12798 0.3664 0.0
C85 C 0.14443 0.15081 0.38881 0.0
C86 C 0.13905 0.15916 0.34672 0.0
C87 C 0.13775 0.23556 0.37159 0.0
C88 C 0.13629 0.21225 0.34926 0.0
C89 C 0.14172 0.20405 0.39136 0.0
C90 C 0.12745 0.96079 0.42691 0.0
C91 C 0.16712 0.88344 0.37647 0.0
C92 C 0.09817 0.78163 0.39474 0.0
C93 C 0.10556 0.72749 0.39102 0.0
C94 C 0.10271 0.70297 0.36911 0.0
C95 C 0.11392 0.69854 0.41017 0.0
C96 C 0.11564 0.62135 0.38587 0.0
C97 C 0.11898 0.64622 0.40762 0.0
C98 C 0.1077 0.65057 0.36658 0.0
C99 C 0.10957 0.92229 0.34176 0.0
O100 O 0.09417 0.99874 0.38055 0.0
O101 O 0.08177 0.92425 0.39914 0.0
O102 O 0.15932 0.04738 0.3787 0.0
O103 O 0.12844 0.04613 0.35529 0.0
O104 O 0.13648 1.00375 0.41956 0.0
O105 O 0.12235 0.93392 0.40911 0.0
O106 O 0.1482 0.8541 0.37903 0.0
O107 O 0.16633 0.93436 0.37611 0.0
O108 O 0.08955 0.80684 0.3767 0.0
O109 O 0.11159 0.81016 0.40831 0.0
O110 O 0.09208 0.89478 0.34974 0.0
O111 O 0.12645 0.92164 0.35626 0.0
H112 H 0.1476 0.12764 0.40431 0.0
H113 H 0.13799 0.1424 0.32929 0.0
H114 H 0.13282 0.23498 0.33368 0.0
H115 H 0.14317 0.2206 0.4088 0.0
H116 H 0.09623 0.72396 0.35398 0.0
H117 H 0.11601 0.71615 0.42734 0.0
H118 H 0.1248 0.62488 0.42292 0.0
H119 H 0.10521 0.63284 0.3495 0.0
Gd120 Gd 0.84975 0.06242 0.37974 0.0
Gd121 Gd 0.87276 0.17328 0.38163 0.0
C122 C 0.9065 0.07888 0.38759 0.0
C123 C 0.83705 0.97359 0.36378 0.0
C124 C 0.83989 0.91797 0.36853 0.0
C125 C 0.82578 0.89248 0.38529 0.0
C126 C 0.85603 0.88915 0.35506 0.0
C127 C 0.84408 0.81064 0.37506 0.0
C128 C 0.85819 0.83624 0.35837 0.0
C129 C 0.82786 0.83936 0.3885 0.0
C130 C 0.85825 0.08818 0.42549 0.0
C131 C 0.81554 0.16286 0.37968 0.0
C132 C 0.88533 0.26716 0.3901 0.0
C133 C 0.87689 0.32066 0.38727 0.0
C134 C 0.88837 0.35322 0.37119 0.0
C135 C 0.85877 0.34096 0.40156 0.0
C136 C 0.86442 0.42565 0.38419 0.0
C137 C 0.85264 0.39293 0.40004 0.0
C138 C 0.88215 0.40501 0.36957 0.0
C139 C 0.86964 0.12673 0.33861 0.0
O140 O 0.88972 0.05028 0.37768 0.0
O141 O 0.90246 0.12611 0.3948 0.0
O142 O 0.82389 1.00078 0.37824 0.0
O143 O 0.85605 0.99813 0.35662 0.0
O144 O 0.84891 0.04501 0.41884 0.0
O145 O 0.86247 0.1146 0.40734 0.0
O146 O 0.83433 0.1922 0.38298 0.0
O147 O 0.81695 0.11254 0.3759 0.0
O148 O 0.89133 0.24237 0.37095 0.0
O149 O 0.87447 0.23804 0.40549 0.0
O150 O 0.88714 0.1561 0.3449 0.0
O151 O 0.85449 0.12572 0.35488 0.0
H152 H 0.81298 0.91339 0.39578 0.0
H153 H 0.86681 0.90742 0.34167 0.0
H154 H 0.87056 0.81513 0.34745 0.0
H155 H 0.81683 0.82077 0.40158 0.0
H156 H 0.9026 0.33888 0.36018 0.0
H157 H 0.84959 0.31702 0.41421 0.0
H158 H 0.83877 0.40762 0.41139 0.0
H159 H 0.89178 0.4293 0.3574 0.0
Gd160 Gd 0.87266 0.87164 0.87917 0.0
Gd161 Gd 0.84902 0.97352 0.88392 0.0
C162 C 0.81615 0.87657 0.88013 0.0
C163 C 0.88632 0.77652 0.88113 0.0
C164 C 0.8777 0.72305 0.88438 0.0
C165 C 0.86827 0.69509 0.86534 0.0
C166 C 0.8813 0.69757 0.90589 0.0
C167 C 0.8674 0.61682 0.88892 0.0
C168 C 0.87614 0.64519 0.90817 0.0
C169 C 0.86316 0.64274 0.8676 0.0
C170 C 0.86862 0.9251 0.8382 0.0
C171 C 0.90701 0.96442 0.88517 0.0
C172 C 0.83456 0.06768 0.879 0.0
C173 C 0.84111 0.12243 0.88183 0.0
C174 C 0.84594 0.14436 0.90395 0.0
C175 C 0.84082 0.15428 0.8619 0.0
C176 C 0.84948 0.22937 0.88606 0.0
C177 C 0.84498 0.20698 0.86396 0.0
C178 C 0.8501 0.1973 0.90603 0.0
C179 C 0.85313 0.92251 0.92532 0.0
O180 O 0.83508 0.85122 0.88689 0.0
O181 O 0.81754 0.92514 0.87363 0.0
O182 O 0.88062 0.80001 0.86161 0.0
O183 O 0.88632 0.80722 0.89939 0.0
O184 O 0.88695 0.89797 0.84397 0.0
O185 O 0.85287 0.92128 0.85394 0.0
O186 O 0.88823 0.99458 0.88306 0.0
O187 O 0.90541 0.91432 0.88661 0.0
O188 O 0.83044 0.04013 0.8978 0.0
O189 O 0.8456 0.04201 0.86259 0.0
O190 O 0.83471 0.94886 0.919 0.0
O191 O 0.86902 0.92536 0.90958 0.0
H192 H 0.86555 0.71316 0.84839 0.0
H193 H 0.88876 0.71779 0.92083 0.0
H194 H 0.87933 0.62675 0.92495 0.0
H195 H 0.85676 0.62216 0.85229 0.0
H196 H 0.84622 0.12085 0.91966 0.0
H197 H 0.83686 0.13849 0.84468 0.0
H198 H 0.84397 0.23041 0.84825 0.0
H199 H 0.85376 0.21313 0.92329 0.0
Gd200 Gd 0.10811 0.18192 0.88348 0.0
Gd201 Gd 0.1324 0.08092 0.88698 0.0
C202 C 0.16483 0.17914 0.88289 0.0
C203 C 0.09342 0.27618 0.88685 0.0
C204 C 0.10132 0.33052 0.88617 0.0
C205 C 0.09305 0.36243 0.86803 0.0
C206 C 0.11514 0.3523 0.90423 0.0
C207 C 0.11115 0.43733 0.88653 0.0
C208 C 0.12004 0.40511 0.90437 0.0
C209 C 0.09798 0.41502 0.86814 0.0
C210 C 0.1125 0.1308 0.84178 0.0
C211 C 0.07452 0.08833 0.88904 0.0
C212 C 0.14717 0.98684 0.88208 0.0
C213 C 0.14029 0.93201 0.88465 0.0
C214 C 0.14662 0.90417 0.90491 0.0
C215 C 0.12972 0.9055 0.86577 0.0
C216 C 0.13273 0.82438 0.88701 0.0
C217 C 0.12592 0.85247 0.86698 0.0
C218 C 0.14279 0.85107 0.90612 0.0
C219 C 0.12828 0.12992 0.92896 0.0
O220 O 0.14574 0.20446 0.88921 0.0
O221 O 0.16379 0.13011 0.87695 0.0
O222 O 0.09394 0.25054 0.86708 0.0
O223 O 0.09934 0.24813 0.90502 0.0
O224 O 0.094 0.15699 0.84793 0.0
O225 O 0.12824 0.13433 0.85753 0.0
O226 O 0.09329 0.05911 0.88498 0.0
O227 O 0.07625 0.13786 0.8927 0.0
O228 O 0.15066 1.01406 0.90111 0.0
O229 O 0.13695 1.01318 0.8654 0.0
O230 O 0.14693 0.10521 0.92196 0.0
O231 O 0.11221 0.12716 0.91339 0.0
H232 H 0.08226 0.34684 0.85395 0.0
H233 H 0.12169 0.32887 0.91856 0.0
H234 H 0.13011 0.42094 0.9189 0.0
H235 H 0.09123 0.43834 0.85386 0.0
H236 H 0.15518 0.92316 0.91961 0.0
H237 H 0.12489 0.92546 0.84975 0.0
H238 H 0.11783 0.83336 0.85206 0.0
H239 H 0.14849 0.83066 0.92172 0.0
Gd240 Gd 0.87211 0.18072 0.64422 0.0
Gd241 Gd 0.8491 0.07783 0.64426 0.0
C242 C 0.81555 0.17433 0.64777 0.0
C243 C 0.88531 0.27501 0.63731 0.0
C244 C 0.87702 0.32889 0.63935 0.0
C245 C 0.88449 0.35947 0.65836 0.0
C246 C 0.86365 0.3518 0.62128 0.0
C247 C 0.86633 0.43507 0.64072 0.0
C248 C 0.85836 0.40426 0.62197 0.0
C249 C 0.87911 0.41186 0.6591 0.0
C250 C 0.86841 0.13545 0.68744 0.0
C251 C 0.90657 0.08844 0.63877 0.0
C252 C 0.83615 0.98395 0.65292 0.0
C253 C 0.84204 0.92924 0.64859 0.0
C254 C 0.83207 0.90247 0.62949 0.0
C255 C 0.8557 0.90185 0.66505 0.0
C256 C 0.84874 0.82194 0.64381 0.0
C257 C 0.85908 0.84895 0.66263 0.0
C258 C 0.83542 0.84946 0.6271 0.0
C259 C 0.85202 0.12058 0.60071 0.0
O260 O 0.83384 0.20014 0.63964 0.0
O261 O 0.81787 0.12648 0.65514 0.0
O262 O 0.88951 0.24987 0.65678 0.0
O263 O 0.8757 0.24622 0.62102 0.0
O264 O 0.88666 0.16177 0.68058 0.0
O265 O 0.85281 0.13606 0.67161 0.0
O266 O 0.88868 0.0595 0.64605 0.0
O267 O 0.90344 0.13667 0.63294 0.0
O268 O 0.82764 1.01112 0.63551 0.0
O269 O 0.85061 1.0102 0.66627 0.0
O270 O 0.8342 0.09395 0.60832 0.0
O271 O 0.86811 0.12154 0.61622 0.0
H272 H 0.89512 0.34323 0.67238 0.0
H273 H 0.85776 0.32956 0.60626 0.0
H274 H 0.84825 0.42085 0.60766 0.0
H275 H 0.88576 0.43458 0.67365 0.0
H276 H 0.82119 0.9222 0.61666 0.0
H277 H 0.86324 0.92102 0.68024 0.0
H278 H 0.86913 0.82891 0.67602 0.0
H279 H 0.8274 0.82993 0.61226 0.0
Gd280 Gd 0.10866 0.87696 0.64677 0.0
Gd281 Gd 0.13292 0.97851 0.64584 0.0
C282 C 0.16544 0.88037 0.65036 0.0
C283 C 0.0945 0.78299 0.64063 0.0
C284 C 0.10146 0.72865 0.64416 0.0
C285 C 0.08658 0.69638 0.65732 0.0
C286 C 0.12141 0.70727 0.63296 0.0
C287 C 0.11053 0.62174 0.64693 0.0
C288 C 0.12589 0.65441 0.63435 0.0
C289 C 0.09109 0.64369 0.65879 0.0
C290 C 0.11239 0.92418 0.68959 0.0
C291 C 0.0755 0.97069 0.63982 0.0
C292 C 0.14689 0.07256 0.6528 0.0
C293 C 0.14031 0.12729 0.64954 0.0
C294 C 0.15358 0.15821 0.63413 0.0
C295 C 0.12263 0.15052 0.66342 0.0
C296 C 0.13236 0.2347 0.64719 0.0
C297 C 0.1187 0.20354 0.66223 0.0
C298 C 0.1496 0.21119 0.63288 0.0
C299 C 0.13017 0.93279 0.60288 0.0
O300 O 0.14665 0.8549 0.64321 0.0
O301 O 0.16403 0.92924 0.65655 0.0
O302 O 0.08928 0.81008 0.65931 0.0
O303 O 0.1059 0.80948 0.62467 0.0
O304 O 0.09402 0.8982 0.68279 0.0
O305 O 0.12821 0.92215 0.67394 0.0
O306 O 0.09353 0.99878 0.64744 0.0
O307 O 0.07827 0.92226 0.63413 0.0
O308 O 0.15266 0.04581 0.63419 0.0
O309 O 0.13479 0.04581 0.66809 0.0
O310 O 0.1484 0.95792 0.61062 0.0
O311 O 0.11374 0.93412 0.61807 0.0
H312 H 0.07105 0.71177 0.66607 0.0
H313 H 0.13323 0.73105 0.6226 0.0
H314 H 0.14094 0.63895 0.62486 0.0
H315 H 0.07913 0.62003 0.66904 0.0
H316 H 0.16757 0.14161 0.62349 0.0
H317 H 0.11215 0.12803 0.67563 0.0
H318 H 0.10506 0.22022 0.67326 0.0
H319 H 0.16063 0.23401 0.62129 0.0
Gd320 Gd 0.63417 0.55932 0.15325 0.0
Gd321 Gd 0.61008 0.66996 0.1518 0.0
C322 C 0.57749 0.57281 0.14411 0.0
C323 C 0.64938 0.47116 0.16785 0.0
C324 C 0.64562 0.41561 0.16347 0.0
C325 C 0.66492 0.38463 0.15702 0.0
C326 C 0.62334 0.3924 0.16691 0.0
C327 C 0.63998 0.3081 0.15808 0.0
C328 C 0.62058 0.33928 0.16427 0.0
C329 C 0.66214 0.33154 0.15426 0.0
C330 C 0.62648 0.58765 0.10764 0.0
C331 C 0.66715 0.66183 0.15757 0.0
C332 C 0.5972 0.76287 0.14185 0.0
C333 C 0.60531 0.81683 0.14308 0.0
C334 C 0.61468 0.83821 0.16383 0.0
C335 C 0.60232 0.84838 0.12331 0.0
C336 C 0.6166 0.92271 0.14528 0.0
C337 C 0.60794 0.90062 0.12435 0.0
C338 C 0.62025 0.89063 0.16491 0.0
C339 C 0.60961 0.6197 0.19366 0.0
O340 O 0.59443 0.54371 0.15342 0.0
O341 O 0.58106 0.62103 0.13795 0.0
O342 O 0.66013 0.49768 0.15138 0.0
O343 O 0.63202 0.49643 0.17785 0.0
O344 O 0.63543 0.54395 0.11396 0.0
O345 O 0.62197 0.6129 0.12609 0.0
O346 O 0.64817 0.69119 0.15596 0.0
O347 O 0.66639 0.61087 0.15734 0.0
O348 O 0.59185 0.73983 0.16166 0.0
O349 O 0.60804 0.73283 0.12681 0.0
O350 O 0.5927 0.64998 0.18672 0.0
O351 O 0.62641 0.62026 0.17893 0.0
H352 H 0.68232 0.40142 0.15447 0.0
H353 H 0.60805 0.4151 0.17188 0.0
H354 H 0.60321 0.3226 0.16704 0.0
H355 H 0.6775 0.30865 0.14972 0.0
H356 H 0.61723 0.81472 0.17935 0.0
H357 H 0.5952 0.83273 0.10709 0.0
H358 H 0.60533 0.9238 0.10874 0.0
H359 H 0.62673 0.90629 0.18136 0.0
Gd360 Gd 0.34953 0.47082 0.14222 0.0
Gd361 Gd 0.37281 0.36933 0.14844 0.0
C362 C 0.40671 0.46118 0.13979 0.0
C363 C 0.33546 0.56579 0.14089 0.0
C364 C 0.34289 0.62005 0.14342 0.0
C365 C 0.33882 0.65371 0.12458 0.0
C366 C 0.35218 0.63982 0.16455 0.0
C367 C 0.3526 0.72637 0.14793 0.0
C368 C 0.35699 0.69249 0.16677 0.0
C369 C 0.34362 0.7061 0.12677 0.0
C370 C 0.35145 0.4139 0.10219 0.0
C371 C 0.31549 0.37576 0.15229 0.0
C372 C 0.38654 0.27457 0.1446 0.0
C373 C 0.37912 0.2205 0.14859 0.0
C374 C 0.3871 0.19355 0.16851 0.0
C375 C 0.36628 0.19359 0.13129 0.0
C376 C 0.37051 0.1136 0.15321 0.0
C377 C 0.36199 0.14091 0.13359 0.0
C378 C 0.38277 0.14083 0.17084 0.0
C379 C 0.37134 0.42684 0.18847 0.0
O380 O 0.38878 0.49 0.14704 0.0
O381 O 0.40352 0.41258 0.13458 0.0
O382 O 0.34328 0.54085 0.12251 0.0
O383 O 0.33424 0.53714 0.15972 0.0
O384 O 0.33298 0.43879 0.10941 0.0
O385 O 0.36803 0.41904 0.11702 0.0
O386 O 0.33451 0.34681 0.15019 0.0
O387 O 0.31654 0.42641 0.15148 0.0
O388 O 0.39126 0.30324 0.16295 0.0
O389 O 0.37593 0.29995 0.12775 0.0
O390 O 0.38878 0.39677 0.18281 0.0
O391 O 0.35487 0.42265 0.1735 0.0
H392 H 0.33136 0.6396 0.10822 0.0
H393 H 0.35543 0.61484 0.17944 0.0
H394 H 0.3641 0.70669 0.18325 0.0
H395 H 0.33961 0.73098 0.11203 0.0
H396 H 0.39728 0.21291 0.18204 0.0
H397 H 0.36016 0.21281 0.11552 0.0
H398 H 0.35279 0.12124 0.11949 0.0
H399 H 0.38933 0.12126 0.18633 0.0
Gd400 Gd 0.63136 0.46614 0.38545 0.0
Gd401 Gd 0.60712 0.36461 0.38783 0.0
C402 C 0.57393 0.45886 0.39347 0.0
C403 C 0.6444 0.559 0.37455 0.0
C404 C 0.63863 0.61414 0.37851 0.0
C405 C 0.65163 0.64312 0.39496 0.0
C406 C 0.62182 0.63962 0.36441 0.0
C407 C 0.63162 0.72186 0.38278 0.0
C408 C 0.61829 0.69271 0.3666 0.0
C409 C 0.64814 0.69616 0.39711 0.0
C410 C 0.62944 0.42806 0.43002 0.0
C411 C 0.66383 0.36738 0.38288 0.0
C412 C 0.59296 0.27059 0.39433 0.0
C413 C 0.60062 0.21618 0.39182 0.0
C414 C 0.5904 0.18527 0.37422 0.0
C415 C 0.61634 0.19327 0.40792 0.0
C416 C 0.61084 0.10951 0.38925 0.0
C417 C 0.62139 0.1406 0.40665 0.0
C418 C 0.59551 0.13275 0.37289 0.0
C419 C 0.60883 0.40974 0.34448 0.0
O420 O 0.59186 0.48596 0.38485 0.0
O421 O 0.57683 0.4111 0.40034 0.0
O422 O 0.65332 0.53309 0.39214 0.0
O423 O 0.62979 0.53155 0.36181 0.0
O424 O 0.64674 0.45495 0.42148 0.0
O425 O 0.61298 0.42493 0.41493 0.0
O426 O 0.64533 0.34322 0.39158 0.0
O427 O 0.66204 0.41504 0.37506 0.0
O428 O 0.58899 0.29649 0.37503 0.0
O429 O 0.60287 0.29857 0.41075 0.0
O430 O 0.59018 0.38757 0.35309 0.0
O431 O 0.6256 0.40655 0.35902 0.0
H432 H 0.66494 0.62497 0.40589 0.0
H433 H 0.61175 0.61881 0.35126 0.0
H434 H 0.60564 0.71118 0.35504 0.0
H435 H 0.65851 0.71711 0.40997 0.0
H436 H 0.57794 0.20149 0.36178 0.0
H437 H 0.62445 0.21575 0.42181 0.0
H438 H 0.63348 0.12415 0.41938 0.0
H439 H 0.58681 0.11001 0.35945 0.0
Gd440 Gd 0.34783 0.56982 0.38283 0.0
Gd441 Gd 0.37024 0.6743 0.38492 0.0
C442 C 0.40502 0.58163 0.39016 0.0
C443 C 0.33611 0.47676 0.37126 0.0
C444 C 0.34163 0.42186 0.37518 0.0
C445 C 0.33299 0.39536 0.39498 0.0
C446 C 0.35378 0.39423 0.35768 0.0
C447 C 0.34785 0.31443 0.37921 0.0
C448 C 0.35695 0.34125 0.35972 0.0
C449 C 0.33613 0.34223 0.397 0.0
C450 C 0.34965 0.60831 0.42727 0.0
C451 C 0.31358 0.66682 0.37834 0.0
C452 C 0.38276 0.76772 0.39451 0.0
C453 C 0.37568 0.82185 0.39059 0.0
C454 C 0.38572 0.85033 0.37208 0.0
C455 C 0.36059 0.84698 0.40661 0.0
C456 C 0.36652 0.92825 0.38623 0.0
C457 C 0.35601 0.89951 0.4044 0.0
C458 C 0.38113 0.90283 0.36988 0.0
C459 C 0.36826 0.63132 0.34114 0.0
O460 O 0.38752 0.55272 0.38196 0.0
O461 O 0.4013 0.62927 0.3968 0.0
O462 O 0.3258 0.50248 0.38819 0.0
O463 O 0.35186 0.50399 0.3599 0.0
O464 O 0.33314 0.57844 0.4193 0.0
O465 O 0.36567 0.61318 0.41183 0.0
O466 O 0.33171 0.69485 0.38524 0.0
O467 O 0.31582 0.61756 0.37315 0.0
O468 O 0.39099 0.74192 0.37648 0.0
O469 O 0.36935 0.73986 0.40832 0.0
O470 O 0.38576 0.65929 0.34855 0.0
O471 O 0.35228 0.63023 0.35661 0.0
H472 H 0.32327 0.41534 0.40864 0.0
H473 H 0.3604 0.41343 0.34208 0.0
H474 H 0.36637 0.3212 0.34587 0.0
H475 H 0.32868 0.32271 0.41212 0.0
H476 H 0.39761 0.83233 0.35957 0.0
H477 H 0.35283 0.82642 0.42128 0.0
H478 H 0.3449 0.91795 0.41747 0.0
H479 H 0.38926 0.92368 0.35549 0.0
Gd480 Gd 0.37173 0.37487 0.88458 0.0
Gd481 Gd 0.34917 0.48675 0.88177 0.0
C482 C 0.31471 0.38696 0.88228 0.0
C483 C 0.38369 0.28157 0.89479 0.0
C484 C 0.37602 0.22773 0.89115 0.0
C485 C 0.38093 0.2016 0.87003 0.0
C486 C 0.36526 0.2007 0.90972 0.0
C487 C 0.36516 0.12217 0.88644 0.0
C488 C 0.3598 0.1486 0.90737 0.0
C489 C 0.37552 0.14944 0.8677 0.0
C490 C 0.36832 0.4188 0.84106 0.0
C491 C 0.40552 0.4692 0.88986 0.0
C492 C 0.33655 0.57451 0.8648 0.0
C493 C 0.33888 0.63026 0.8687 0.0
C494 C 0.33425 0.6531 0.89064 0.0
C495 C 0.34554 0.66138 0.84968 0.0
C496 C 0.34255 0.73778 0.87421 0.0
C497 C 0.34741 0.71448 0.85239 0.0
C498 C 0.33606 0.70642 0.89336 0.0
C499 C 0.35744 0.46135 0.92764 0.0
O500 O 0.33325 0.35714 0.88582 0.0
O501 O 0.31634 0.437 0.87802 0.0
O502 O 0.39223 0.30667 0.87669 0.0
O503 O 0.37039 0.31013 0.90839 0.0
O504 O 0.38535 0.38811 0.84721 0.0
O505 O 0.35356 0.42185 0.85761 0.0
O506 O 0.38909 0.49745 0.8793 0.0
O507 O 0.4011 0.42279 0.89787 0.0
O508 O 0.32337 0.54806 0.87951 0.0
O509 O 0.3559 0.55046 0.85832 0.0
O510 O 0.34832 0.50472 0.92098 0.0
O511 O 0.3616 0.43515 0.90945 0.0
H512 H 0.38935 0.22113 0.85541 0.0
H513 H 0.36156 0.21956 0.92633 0.0
H514 H 0.35211 0.12863 0.92225 0.0
H515 H 0.37962 0.13033 0.85125 0.0
H516 H 0.32911 0.62991 0.90562 0.0
H517 H 0.34931 0.64454 0.83263 0.0
H518 H 0.35289 0.73725 0.83739 0.0
H519 H 0.33202 0.72315 0.91036 0.0
Gd520 Gd 0.60904 0.67567 0.88898 0.0
Gd521 Gd 0.63267 0.57337 0.88885 0.0
C522 C 0.66567 0.67074 0.88507 0.0
C523 C 0.59552 0.76977 0.89595 0.0
C524 C 0.6037 0.82388 0.89424 0.0
C525 C 0.59923 0.85293 0.87385 0.0
C526 C 0.61387 0.84854 0.91384 0.0
C527 C 0.61401 0.9304 0.89303 0.0
C528 C 0.61901 0.90109 0.91322 0.0
C529 C 0.60442 0.90547 0.87322 0.0
C530 C 0.61225 0.62991 0.84581 0.0
C531 C 0.5752 0.58231 0.89467 0.0
C532 C 0.64589 0.47956 0.88033 0.0
C533 C 0.63974 0.42479 0.88424 0.0
C534 C 0.64703 0.39872 0.90467 0.0
C535 C 0.6285 0.39672 0.86626 0.0
C536 C 0.63247 0.31753 0.88874 0.0
C537 C 0.62482 0.34387 0.86851 0.0
C538 C 0.6434 0.34573 0.9069 0.0
C539 C 0.62998 0.61676 0.93233 0.0
O540 O 0.64723 0.69611 0.89313 0.0
O541 O 0.66368 0.62265 0.87789 0.0
O542 O 0.59166 0.74468 0.87637 0.0
O543 O 0.60495 0.74098 0.9123 0.0
O544 O 0.59402 0.65593 0.85293 0.0
O545 O 0.62817 0.63109 0.86137 0.0
O546 O 0.59324 0.55393 0.88734 0.0
O547 O 0.57803 0.63069 0.90046 0.0
O548 O 0.65381 0.50656 0.89809 0.0
O549 O 0.63192 0.50595 0.86659 0.0
O550 O 0.6479 0.59066 0.92456 0.0
O551 O 0.6137 0.61693 0.91701 0.0
H552 H 0.59107 0.83542 0.85856 0.0
H553 H 0.61734 0.82754 0.92992 0.0
H554 H 0.62666 0.91893 0.92869 0.0
H555 H 0.60008 0.92695 0.85749 0.0
H556 H 0.656 0.41898 0.91875 0.0
H557 H 0.62309 0.41539 0.85008 0.0
H558 H 0.61668 0.32333 0.85402 0.0
H559 H 0.6493 0.32675 0.92281 0.0
Gd560 Gd 0.37163 0.67691 0.64755 0.0
Gd561 Gd 0.34763 0.57421 0.64685 0.0
C562 C 0.315 0.67202 0.65061 0.0
C563 C 0.38569 0.77093 0.64132 0.0
C564 C 0.3775 0.82501 0.64072 0.0
C565 C 0.36841 0.8497 0.66082 0.0
C566 C 0.38081 0.85379 0.62009 0.0
C567 C 0.36741 0.93163 0.63993 0.0
C568 C 0.37577 0.90635 0.61965 0.0
C569 C 0.36339 0.90241 0.66041 0.0
C570 C 0.36847 0.62916 0.69017 0.0
C571 C 0.40526 0.58317 0.64135 0.0
C572 C 0.33368 0.48059 0.65474 0.0
C573 C 0.33961 0.42564 0.65167 0.0
C574 C 0.34445 0.40394 0.62951 0.0
C575 C 0.3391 0.39361 0.67151 0.0
C576 C 0.34762 0.31868 0.64722 0.0
C577 C 0.34305 0.34088 0.66935 0.0
C578 C 0.34841 0.35096 0.62732 0.0
C579 C 0.35049 0.61966 0.60395 0.0
O580 O 0.33355 0.69723 0.64268 0.0
O581 O 0.31675 0.62387 0.65775 0.0
O582 O 0.38628 0.74747 0.66166 0.0
O583 O 0.37899 0.74088 0.62411 0.0
O584 O 0.38681 0.65516 0.68322 0.0
O585 O 0.35248 0.63116 0.67469 0.0
O586 O 0.38706 0.55433 0.64797 0.0
O587 O 0.40278 0.63211 0.63652 0.0
O588 O 0.32726 0.50717 0.63629 0.0
O589 O 0.34692 0.50684 0.66925 0.0
O590 O 0.33238 0.59364 0.61136 0.0
O591 O 0.36674 0.61872 0.61926 0.0
H592 H 0.36574 0.8287 0.67706 0.0
H593 H 0.38789 0.83583 0.60437 0.0
H594 H 0.37869 0.92732 0.60345 0.0
H595 H 0.35717 0.92057 0.67641 0.0
H596 H 0.34496 0.42773 0.61389 0.0
H597 H 0.33519 0.40931 0.68876 0.0
H598 H 0.34193 0.31729 0.68501 0.0
H599 H 0.35214 0.33529 0.61004 0.0
Gd600 Gd 0.60728 0.37137 0.65203 0.0
Gd601 Gd 0.63133 0.47299 0.64914 0.0
C602 C 0.66402 0.37568 0.65362 0.0
C603 C 0.59309 0.27677 0.64829 0.0
C604 C 0.60163 0.22282 0.64851 0.0
C605 C 0.59865 0.1925 0.66877 0.0
C606 C 0.61052 0.19953 0.62795 0.0
C607 C 0.61232 0.11647 0.6477 0.0
C608 C 0.61582 0.14702 0.62757 0.0
C609 C 0.60403 0.14007 0.66841 0.0
C610 C 0.61068 0.42275 0.69375 0.0
C611 C 0.57371 0.46442 0.64419 0.0
C612 C 0.64545 0.5673 0.65485 0.0
C613 C 0.63864 0.62193 0.65162 0.0
C614 C 0.64461 0.64855 0.63091 0.0
C615 C 0.6284 0.64947 0.67036 0.0
C616 C 0.63088 0.72922 0.64804 0.0
C617 C 0.62448 0.70234 0.66856 0.0
C618 C 0.64072 0.70152 0.62912 0.0
C619 C 0.62816 0.42378 0.60706 0.0
O620 O 0.64518 0.34998 0.64678 0.0
O621 O 0.66258 0.42447 0.65984 0.0
O622 O 0.59337 0.30208 0.66816 0.0
O623 O 0.59873 0.30549 0.63026 0.0
O624 O 0.5922 0.39684 0.68717 0.0
O625 O 0.62672 0.41916 0.67832 0.0
O626 O 0.59198 0.49362 0.65025 0.0
O627 O 0.57607 0.41504 0.64036 0.0
O628 O 0.65048 0.53986 0.63622 0.0
O629 O 0.63398 0.54109 0.67079 0.0
O630 O 0.64648 0.44965 0.61406 0.0
O631 O 0.61195 0.42642 0.62242 0.0
H632 H 0.59148 0.20898 0.68478 0.0
H633 H 0.61285 0.22154 0.61195 0.0
H634 H 0.62244 0.13021 0.61141 0.0
H635 H 0.60083 0.11763 0.68414 0.0
H636 H 0.65281 0.62873 0.61626 0.0
H637 H 0.62401 0.63045 0.68676 0.0
H638 H 0.6172 0.72246 0.68361 0.0
H639 H 0.64562 0.72088 0.61297 0.0
C640 C 0.20788 0.1812 0.14268 0.0
C641 C 0.18867 0.19364 0.15718 0.0
C642 C 0.22843 0.21182 0.14258 0.0
C643 C 0.22995 0.25477 0.15789 0.0
C644 C 0.21095 0.26587 0.17334 0.0
C645 C 0.19037 0.23569 0.17249 0.0
C646 C 0.24812 0.19942 0.12549 0.0
C647 C 0.21218 0.31008 0.19051 0.0
C648 C 0.29184 0.30547 0.17002 0.0
C649 C 0.29269 0.34911 0.15563 0.0
C650 C 0.27128 0.27539 0.1715 0.0
C651 C 0.25134 0.28833 0.15763 0.0
C652 C 0.25198 0.33291 0.1433 0.0
C653 C 0.27261 0.3633 0.14274 0.0
C654 C 0.27106 0.22928 0.18761 0.0
C655 C 0.23124 0.34734 0.12788 0.0
H656 H 0.20635 0.14914 0.13059 0.0
H657 H 0.17543 0.24522 0.1837 0.0
H658 H 0.25104 0.23246 0.1135 0.0
H659 H 0.26495 0.19289 0.13513 0.0
H660 H 0.24416 0.16487 0.11471 0.0
H661 H 0.1966 0.31122 0.20247 0.0
H662 H 0.22852 0.30725 0.20131 0.0
H663 H 0.21306 0.3469 0.18076 0.0
H664 H 0.30743 0.2946 0.18003 0.0
H665 H 0.27345 0.39664 0.13136 0.0
H666 H 0.26951 0.19363 0.17704 0.0
H667 H 0.25545 0.23087 0.19948 0.0
H668 H 0.28737 0.22677 0.19851 0.0
H669 H 0.22753 0.31582 0.11524 0.0
H670 H 0.23454 0.38317 0.1178 0.0
H671 H 0.21508 0.35261 0.13874 0.0
C672 C 0.77114 0.86335 0.14218 0.0
C673 C 0.79171 0.85107 0.15469 0.0
C674 C 0.751 0.83154 0.1435 0.0
C675 C 0.7514 0.78742 0.15816 0.0
C676 C 0.77189 0.77643 0.17161 0.0
C677 C 0.79192 0.80793 0.16938 0.0
C678 C 0.72965 0.84395 0.12854 0.0
C679 C 0.77282 0.73087 0.188 0.0
C680 C 0.69159 0.73133 0.17494 0.0
C681 C 0.68999 0.68886 0.15986 0.0
C682 C 0.71179 0.76273 0.17511 0.0
C683 C 0.73053 0.75239 0.15923 0.0
C684 C 0.72918 0.70888 0.14423 0.0
C685 C 0.709 0.6771 0.14498 0.0
C686 C 0.71284 0.80757 0.19195 0.0
C687 C 0.74859 0.69716 0.12673 0.0
H688 H 0.77124 0.89627 0.13051 0.0
H689 H 0.80799 0.79847 0.17894 0.0
H690 H 0.7261 0.81177 0.11621 0.0
H691 H 0.7137 0.84843 0.13979 0.0
H692 H 0.73213 0.87966 0.11814 0.0
H693 H 0.78944 0.72992 0.19849 0.0
H694 H 0.7575 0.7317 0.20027 0.0
H695 H 0.77156 0.69478 0.17771 0.0
H696 H 0.67679 0.74041 0.18641 0.0
H697 H 0.70753 0.64476 0.13304 0.0
H698 H 0.71283 0.84409 0.18194 0.0
H699 H 0.72954 0.80633 0.20226 0.0
H700 H 0.69762 0.80796 0.20437 0.0
H701 H 0.7506 0.72981 0.11434 0.0
H702 H 0.7449 0.66182 0.1164 0.0
H703 H 0.76577 0.69242 0.13595 0.0
C704 C 0.27091 0.68156 0.3874 0.0
C705 C 0.29114 0.69391 0.37436 0.0
C706 C 0.25081 0.71344 0.3867 0.0
C707 C 0.25092 0.75771 0.37215 0.0
C708 C 0.27102 0.76871 0.35811 0.0
C709 C 0.29105 0.73712 0.35972 0.0
C710 C 0.22987 0.70102 0.40226 0.0
C711 C 0.2716 0.81447 0.34182 0.0
C712 C 0.19076 0.81451 0.3578 0.0
C713 C 0.18979 0.85649 0.3732 0.0
C714 C 0.21089 0.78313 0.35666 0.0
C715 C 0.2302 0.79302 0.37191 0.0
C716 C 0.22949 0.83612 0.38719 0.0
C717 C 0.20935 0.8679 0.3874 0.0
C718 C 0.21126 0.73873 0.33956 0.0
C719 C 0.24956 0.84732 0.40402 0.0
H720 H 0.27128 0.64859 0.39903 0.0
H721 H 0.30689 0.74662 0.34978 0.0
H722 H 0.22685 0.73296 0.41485 0.0
H723 H 0.21356 0.69708 0.3915 0.0
H724 H 0.2325 0.66502 0.4124 0.0
H725 H 0.28781 0.81516 0.33069 0.0
H726 H 0.25581 0.81421 0.33015 0.0
H727 H 0.27097 0.85043 0.35226 0.0
H728 H 0.17553 0.8058 0.34683 0.0
H729 H 0.20835 0.89992 0.39957 0.0
H730 H 0.21139 0.70195 0.34937 0.0
H731 H 0.22763 0.74 0.32873 0.0
H732 H 0.19566 0.73889 0.32761 0.0
H733 H 0.2519 0.81445 0.41622 0.0
H734 H 0.24638 0.88255 0.41458 0.0
H735 H 0.26643 0.852 0.3942 0.0
C736 C 0.77311 0.17239 0.36653 0.0
C737 C 0.7924 0.18957 0.37992 0.0
C738 C 0.75201 0.20127 0.36547 0.0
C739 C 0.75017 0.24769 0.37844 0.0
C740 C 0.76948 0.26447 0.39231 0.0
C741 C 0.79032 0.23541 0.39277 0.0
C742 C 0.7318 0.1825 0.35034 0.0
C743 C 0.76813 0.31299 0.40686 0.0
C744 C 0.70382 0.34997 0.36492 0.0
C745 C 0.68638 0.33851 0.38167 0.0
C746 C 0.72441 0.31964 0.36308 0.0
C747 C 0.72772 0.27771 0.37867 0.0
C748 C 0.71021 0.26649 0.39574 0.0
C749 C 0.68975 0.29674 0.39691 0.0
C750 C 0.74263 0.3324 0.34452 0.0
C751 C 0.71326 0.22306 0.4131 0.0
H752 H 0.77473 0.13729 0.3564 0.0
H753 H 0.8051 0.24873 0.40336 0.0
H754 H 0.71592 0.17538 0.3614 0.0
H755 H 0.72694 0.21241 0.33731 0.0
H756 H 0.73628 0.14659 0.34077 0.0
H757 H 0.78488 0.32094 0.4165 0.0
H758 H 0.76415 0.3463 0.39538 0.0
H759 H 0.7535 0.30987 0.41985 0.0
H760 H 0.70116 0.38184 0.35296 0.0
H761 H 0.67639 0.28782 0.41002 0.0
H762 H 0.74624 0.2981 0.3335 0.0
H763 H 0.75958 0.34349 0.35302 0.0
H764 H 0.73682 0.36429 0.3329 0.0
H765 H 0.71614 0.18639 0.4036 0.0
H766 H 0.69767 0.21858 0.42488 0.0
H767 H 0.72918 0.23007 0.42413 0.0
C768 C 0.69137 0.74284 0.89751 0.0
C769 C 0.68826 0.69894 0.88352 0.0
C770 C 0.71182 0.77283 0.89573 0.0
C771 C 0.72959 0.75883 0.87942 0.0
C772 C 0.72663 0.71459 0.86517 0.0
C773 C 0.70597 0.68478 0.86751 0.0
C774 C 0.71454 0.81905 0.91162 0.0
C775 C 0.74528 0.69885 0.84752 0.0
C776 C 0.77475 0.86269 0.86531 0.0
C777 C 0.79349 0.84843 0.88006 0.0
C778 C 0.75397 0.83293 0.86432 0.0
C779 C 0.75194 0.78868 0.8787 0.0
C780 C 0.77076 0.77462 0.89378 0.0
C781 C 0.7913 0.80454 0.89419 0.0
C782 C 0.73419 0.84872 0.84797 0.0
C783 C 0.76908 0.72841 0.90978 0.0
H784 H 0.67779 0.75378 0.91006 0.0
H785 H 0.70348 0.65115 0.85653 0.0
H786 H 0.7302 0.81396 0.92321 0.0
H787 H 0.71765 0.85405 0.90096 0.0
H788 H 0.6987 0.82544 0.92288 0.0
H789 H 0.73975 0.66498 0.83696 0.0
H790 H 0.74911 0.73118 0.83539 0.0
H791 H 0.76204 0.68948 0.85676 0.0
H792 H 0.77653 0.89633 0.85423 0.0
H793 H 0.80569 0.79356 0.9058 0.0
H794 H 0.71807 0.85803 0.85831 0.0
H795 H 0.72958 0.81643 0.83606 0.0
H796 H 0.739 0.88264 0.83712 0.0
H797 H 0.75418 0.73345 0.92233 0.0
H798 H 0.78561 0.72207 0.92001 0.0
H799 H 0.76533 0.69339 0.8993 0.0
C800 C 0.2734 0.37445 0.86707 0.0
C801 C 0.29157 0.36098 0.88265 0.0
C802 C 0.25264 0.34465 0.86573 0.0
C803 C 0.25007 0.30127 0.8806 0.0
C804 C 0.26815 0.28863 0.89679 0.0
C805 C 0.2887 0.31849 0.89752 0.0
C806 C 0.23365 0.35894 0.84822 0.0
C807 C 0.26585 0.24351 0.91336 0.0
C808 C 0.18898 0.25297 0.89615 0.0
C809 C 0.18723 0.20823 0.88247 0.0
C810 C 0.20914 0.28404 0.89531 0.0
C811 C 0.22804 0.27027 0.88028 0.0
C812 C 0.22649 0.22513 0.86638 0.0
C813 C 0.20608 0.19425 0.86778 0.0
C814 C 0.21032 0.33117 0.91081 0.0
C815 C 0.24639 0.20958 0.85009 0.0
H816 H 0.27579 0.40697 0.85542 0.0
H817 H 0.30272 0.3083 0.90972 0.0
H818 H 0.23037 0.32631 0.83607 0.0
H819 H 0.21675 0.36688 0.85753 0.0
H820 H 0.23854 0.39323 0.83766 0.0
H821 H 0.28162 0.239 0.92489 0.0
H822 H 0.24996 0.24834 0.92467 0.0
H823 H 0.2634 0.20757 0.90317 0.0
H824 H 0.17451 0.26378 0.90772 0.0
H825 H 0.20464 0.15997 0.85704 0.0
H826 H 0.2138 0.36578 0.89999 0.0
H827 H 0.22521 0.32743 0.92346 0.0
H828 H 0.19369 0.33734 0.92092 0.0
H829 H 0.25062 0.24153 0.83788 0.0
H830 H 0.24192 0.17493 0.83958 0.0
H831 H 0.26263 0.20157 0.86046 0.0
C832 C 0.70552 0.36302 0.66844 0.0
C833 C 0.68671 0.34774 0.65396 0.0
C834 C 0.7265 0.33398 0.66933 0.0
C835 C 0.72866 0.28946 0.65512 0.0
C836 C 0.70974 0.27427 0.64039 0.0
C837 C 0.68899 0.30344 0.64008 0.0
C838 C 0.74637 0.35091 0.68536 0.0
C839 C 0.71153 0.22774 0.62457 0.0
C840 C 0.78926 0.24546 0.63552 0.0
C841 C 0.79284 0.20188 0.64956 0.0
C842 C 0.76865 0.2748 0.63754 0.0
C843 C 0.75123 0.2605 0.65418 0.0
C844 C 0.75469 0.21663 0.66851 0.0
C845 C 0.77548 0.18743 0.66589 0.0
C846 C 0.76537 0.32061 0.62155 0.0
C847 C 0.73645 0.20061 0.68652 0.0
H848 H 0.70368 0.39699 0.67931 0.0
H849 H 0.67456 0.29166 0.62867 0.0
H850 H 0.75149 0.319 0.69724 0.0
H851 H 0.76223 0.36089 0.67474 0.0
H852 H 0.74141 0.38471 0.69622 0.0
H853 H 0.69488 0.22038 0.61467 0.0
H854 H 0.72614 0.23317 0.61171 0.0
H855 H 0.7158 0.19316 0.63511 0.0
H856 H 0.80259 0.25662 0.62274 0.0
H857 H 0.77835 0.15408 0.67692 0.0
H858 H 0.76216 0.3557 0.63215 0.0
H859 H 0.74958 0.31472 0.61021 0.0
H860 H 0.781 0.32738 0.61005 0.0
H861 H 0.73256 0.23309 0.69856 0.0
H862 H 0.7424 0.16724 0.69715 0.0
H863 H 0.71962 0.19032 0.67758 0.0
C864 C 0.18985 0.80547 0.639 0.0
C865 C 0.18784 0.85143 0.65176 0.0
C866 C 0.21017 0.77513 0.64046 0.0
C867 C 0.22902 0.79093 0.65515 0.0
C868 C 0.22715 0.8371 0.66826 0.0
C869 C 0.20654 0.86717 0.66628 0.0
C870 C 0.21165 0.72676 0.6258 0.0
C871 C 0.24695 0.85475 0.68419 0.0
C872 C 0.27491 0.68811 0.66826 0.0
C873 C 0.29245 0.70033 0.65174 0.0
C874 C 0.25438 0.71841 0.67021 0.0
C875 C 0.25136 0.76105 0.65501 0.0
C876 C 0.26896 0.77303 0.63817 0.0
C877 C 0.28929 0.74267 0.63683 0.0
C878 C 0.23593 0.70489 0.68844 0.0
C879 C 0.26615 0.81738 0.62125 0.0
H880 H 0.17552 0.79319 0.62758 0.0
H881 H 0.20493 0.90239 0.67632 0.0
H882 H 0.22627 0.7303 0.61282 0.0
H883 H 0.21572 0.6933 0.63716 0.0
H884 H 0.19493 0.71876 0.61611 0.0
H885 H 0.24213 0.88969 0.69434 0.0
H886 H 0.25169 0.82378 0.69673 0.0
H887 H 0.26301 0.86321 0.67358 0.0
H888 H 0.27747 0.65573 0.67995 0.0
H889 H 0.30276 0.75204 0.62389 0.0
H890 H 0.21905 0.69441 0.67963 0.0
H891 H 0.23225 0.73866 0.69978 0.0
H892 H 0.24155 0.67236 0.69976 0.0
H893 H 0.25036 0.81104 0.60997 0.0
H894 H 0.28188 0.82237 0.60969 0.0
H895 H 0.26322 0.85358 0.63111 0.0
C896 C 0.12981 0.96184 0.30692 0.0
C897 C 0.10903 0.95374 0.31995 0.0
C898 C 0.12951 0.99033 0.28582 0.0
C899 C 0.1081 1.0133 0.27804 0.0
C900 C 0.08721 1.00657 0.29166 0.0
C901 C 0.08782 0.976 0.31214 0.0
C902 C 0.15202 0.99487 0.27158 0.0
C903 C 0.06422 0.03198 0.2847 0.0
C904 C 0.11413 0.12309 0.23352 0.0
C905 C 0.10769 0.09898 0.2124 0.0
C906 C 0.11377 0.09615 0.25508 0.0
C907 C 0.10749 0.04336 0.25544 0.0
C908 C 0.10078 1.01918 0.23406 0.0
C909 C 0.10024 0.04774 0.21301 0.0
C910 C 0.12008 0.12421 0.27749 0.0
C911 C 0.09455 0.96284 0.23328 0.0
H912 H 0.14623 0.94462 0.31291 0.0
H913 H 0.07179 0.97044 0.32237 0.0
H914 H 0.149 0.97992 0.25352 0.0
H915 H 0.15721 0.03575 0.26989 0.0
H916 H 0.16699 0.97346 0.27962 0.0
H917 H 0.05013 0.0266 0.29817 0.0
H918 H 0.06706 0.07373 0.28203 0.0
H919 H 0.05785 1.01591 0.26776 0.0
H920 H 0.11936 0.16313 0.23317 0.0
H921 H 0.09399 0.02983 0.19697 0.0
H922 H 0.13674 0.10842 0.28487 0.0
H923 H 0.106 0.11849 0.2909 0.0
H924 H 0.1225 0.16604 0.27459 0.0
H925 H 0.10925 0.93986 0.24084 0.0
H926 H 0.09109 0.94916 0.21506 0.0
H927 H 0.07857 0.95543 0.24413 0.0
C928 C 0.88471 0.10508 0.29804 0.0
C929 C 0.86825 0.0969 0.31619 0.0
C930 C 0.88379 0.07643 0.27695 0.0
C931 C 0.86699 0.03614 0.27446 0.0
C932 C 0.85038 0.02773 0.29286 0.0
C933 C 0.85053 0.05981 0.31285 0.0
C934 C 0.9005 0.09006 0.25713 0.0
C935 C 0.83239 0.98485 0.29181 0.0
C936 C 0.84978 0.98121 0.21424 0.0
C937 C 0.86709 0.94338 0.21066 0.0
C938 C 0.85005 1.01282 0.23439 0.0
C939 C 0.86672 1.00345 0.25259 0.0
C940 C 0.88306 0.96244 0.24986 0.0
C941 C 0.88357 0.93412 0.22865 0.0
C942 C 0.83263 0.05664 0.23592 0.0
C943 C 0.89971 0.94773 0.26954 0.0
H944 H 0.89809 0.13463 0.30013 0.0
H945 H 0.837 0.05486 0.3262 0.0
H946 H 0.91355 0.05884 0.25449 0.0
H947 H 0.89046 0.09443 0.24043 0.0
H948 H 0.91034 0.12621 0.26066 0.0
H949 H 0.82785 0.97105 0.30976 0.0
H950 H 0.81583 0.99935 0.28369 0.0
H951 H 0.83881 0.95172 0.28131 0.0
H952 H 0.83626 0.98708 0.20098 0.0
H953 H 0.89664 0.90405 0.22634 0.0
H954 H 0.84141 0.09186 0.24266 0.0
H955 H 0.81818 0.04646 0.24829 0.0
H956 H 0.82454 0.06538 0.21854 0.0
H957 H 0.91309 0.97834 0.27224 0.0
H958 H 0.90917 0.91123 0.26583 0.0
H959 H 0.88969 0.9435 0.28627 0.0
C960 C 0.88252 0.11666 0.72857 0.0
C961 C 0.86653 0.10708 0.71017 0.0
C962 C 0.88134 0.0889 0.74987 0.0
C963 C 0.86481 0.0481 0.75232 0.0
C964 C 0.84861 0.03842 0.73372 0.0
C965 C 0.84901 0.06953 0.71343 0.0
C966 C 0.89762 0.1037 0.76984 0.0
C967 C 0.83092 0.99496 0.73482 0.0
C968 C 0.88292 0.94673 0.79755 0.0
C969 C 0.86653 0.95466 0.81579 0.0
C970 C 0.88184 0.97521 0.77648 0.0
C971 C 0.86494 1.01516 0.77408 0.0
C972 C 0.84829 1.02321 0.79248 0.0
C973 C 0.84868 0.99142 0.81258 0.0
C974 C 0.89857 0.96187 0.75664 0.0
C975 C 0.83015 0.06565 0.7912 0.0
H976 H 0.89576 0.1465 0.72648 0.0
H977 H 0.83589 0.06337 0.69981 0.0
H978 H 0.88737 0.10748 0.78645 0.0
H979 H 0.91109 0.07335 0.7726 0.0
H980 H 0.907 0.14045 0.7664 0.0
H981 H 0.82591 0.98174 0.71688 0.0
H982 H 0.83794 0.96165 0.74479 0.0
H983 H 0.81456 1.0085 0.74367 0.0
H984 H 0.89644 0.91751 0.79956 0.0
H985 H 0.83524 0.99618 0.82599 0.0
H986 H 0.91152 0.99334 0.75399 0.0
H987 H 0.88852 0.95729 0.73995 0.0
H988 H 0.90854 0.92592 0.76012 0.0
H989 H 0.8379 0.10096 0.78343 0.0
H990 H 0.82289 0.07514 0.80887 0.0
H991 H 0.81519 0.05328 0.77988 0.0
C992 C 0.13248 0.0653 0.81566 0.0
C993 C 0.11467 0.10206 0.8191 0.0
C994 C 0.13286 0.03394 0.79538 0.0
C995 C 0.1163 0.04263 0.77696 0.0
C996 C 0.09953 0.08283 0.77957 0.0
C997 C 0.09838 0.11065 0.80085 0.0
C998 C 0.151 0.9915 0.79409 0.0
C999 C 0.083 0.09719 0.75973 0.0
C1000 C 0.13241 0.98836 0.71621 0.0
C1001 C 0.11442 0.95206 0.71249 0.0
C1002 C 0.13294 1.01899 0.73669 0.0
C1003 C 0.11631 1.01009 0.75501 0.0
C1004 C 0.09934 0.97028 0.75214 0.0
C1005 C 0.09807 0.94311 0.73067 0.0
C1006 C 0.15126 0.06109 0.7384 0.0
C1007 C 0.08272 0.95571 0.77189 0.0
H1008 H 0.14591 0.06012 0.82902 0.0
H1009 H 0.08491 0.13993 0.80302 0.0
H1010 H 0.14487 0.9588 0.78314 0.0
H1011 H 0.16761 1.00685 0.78636 0.0
H1012 H 0.15533 0.97689 0.81196 0.0
H1013 H 0.07385 0.13423 0.76307 0.0
H1014 H 0.09298 0.10022 0.74292 0.0
H1015 H 0.06932 0.06705 0.75743 0.0
H1016 H 0.14585 0.9938 0.70284 0.0
H1017 H 0.08448 0.91413 0.72828 0.0
H1018 H 0.16666 0.04702 0.74864 0.0
H1019 H 0.14405 0.09549 0.74744 0.0
H1020 H 0.15777 0.07273 0.72072 0.0
H1021 H 0.09263 0.95237 0.78871 0.0
H1022 H 0.0735 0.91879 0.76838 0.0
H1023 H 0.0691 0.98591 0.77426 0.0
C1024 C 0.63003 0.44824 0.30978 0.0
C1025 C 0.60909 0.44164 0.32276 0.0
C1026 C 0.63026 0.47725 0.2888 0.0
C1027 C 0.60926 0.50206 0.28105 0.0
C1028 C 0.58826 0.49675 0.2946 0.0
C1029 C 0.58833 0.46588 0.31499 0.0
C1030 C 0.65287 0.48045 0.27466 0.0
C1031 C 0.56569 0.52394 0.28767 0.0
C1032 C 0.61631 0.61295 0.23721 0.0
C1033 C 0.60933 0.59001 0.21598 0.0
C1034 C 0.61597 0.58519 0.25856 0.0
C1035 C 0.60915 0.53271 0.25859 0.0
C1036 C 0.60201 0.50963 0.23708 0.0
C1037 C 0.60153 0.53899 0.21625 0.0
C1038 C 0.62272 0.61215 0.28113 0.0
C1039 C 0.59512 0.45369 0.23596 0.0
H1040 H 0.64612 0.42956 0.31573 0.0
H1041 H 0.57217 0.46151 0.32515 0.0
H1042 H 0.64971 0.46585 0.25656 0.0
H1043 H 0.65862 0.521 0.27305 0.0
H1044 H 0.66751 0.45802 0.28272 0.0
H1045 H 0.55147 0.51927 0.30105 0.0
H1046 H 0.56917 0.56552 0.28521 0.0
H1047 H 0.55917 0.5087 0.27063 0.0
H1048 H 0.62186 0.6528 0.23712 0.0
H1049 H 0.59509 0.52184 0.2001 0.0
H1050 H 0.6387 0.59397 0.28884 0.0
H1051 H 0.60821 0.60832 0.29422 0.0
H1052 H 0.62644 0.65358 0.27836 0.0
H1053 H 0.60947 0.42967 0.2435 0.0
H1054 H 0.59161 0.44068 0.21765 0.0
H1055 H 0.57897 0.44696 0.24666 0.0
C1056 C 0.38445 0.61348 0.30069 0.0
C1057 C 0.3675 0.60352 0.3182 0.0
C1058 C 0.38436 0.58632 0.27919 0.0
C1059 C 0.36772 0.5462 0.27552 0.0
C1060 C 0.35065 0.5359 0.29326 0.0
C1061 C 0.35018 0.56602 0.31388 0.0
C1062 C 0.40199 0.6008 0.26032 0.0
C1063 C 0.33312 0.49241 0.29076 0.0
C1064 C 0.35364 0.49669 0.21358 0.0
C1065 C 0.3699 0.45646 0.21092 0.0
C1066 C 0.35318 0.52709 0.23412 0.0
C1067 C 0.36831 0.51494 0.25326 0.0
C1068 C 0.38406 0.47275 0.25107 0.0
C1069 C 0.38508 0.44496 0.22976 0.0
C1070 C 0.33672 0.5727 0.23512 0.0
C1071 C 0.39961 0.45648 0.27136 0.0
H1072 H 0.39765 0.64303 0.30367 0.0
H1073 H 0.33651 0.55928 0.32691 0.0
H1074 H 0.41458 0.56879 0.25735 0.0
H1075 H 0.39265 0.60782 0.24342 0.0
H1076 H 0.4123 0.63569 0.26503 0.0
H1077 H 0.32383 0.48404 0.30759 0.0
H1078 H 0.31963 0.50238 0.27734 0.0
H1079 H 0.34222 0.45698 0.28475 0.0
H1080 H 0.3415 0.50509 0.19943 0.0
H1081 H 0.39751 0.41347 0.22803 0.0
H1082 H 0.34647 0.60733 0.24113 0.0
H1083 H 0.32233 0.56533 0.24797 0.0
H1084 H 0.32854 0.58102 0.21774 0.0
H1085 H 0.41252 0.48726 0.27556 0.0
H1086 H 0.40957 0.4207 0.26747 0.0
H1087 H 0.38861 0.45021 0.28733 0.0
C1088 C 0.38281 0.43767 0.79999 0.0
C1089 C 0.3669 0.44769 0.81842 0.0
C1090 C 0.3819 0.46571 0.77875 0.0
C1091 C 0.36574 0.50715 0.7764 0.0
C1092 C 0.34959 0.51719 0.79499 0.0
C1093 C 0.34967 0.48582 0.81519 0.0
C1094 C 0.39796 0.45033 0.75869 0.0
C1095 C 0.33246 0.5616 0.79387 0.0
C1096 C 0.38379 0.60761 0.73056 0.0
C1097 C 0.36693 0.60006 0.71274 0.0
C1098 C 0.38292 0.57932 0.75172 0.0
C1099 C 0.36579 0.53983 0.75455 0.0
C1100 C 0.34876 0.53205 0.73649 0.0
C1101 C 0.34887 0.56392 0.71645 0.0
C1102 C 0.40011 0.59239 0.77121 0.0
C1103 C 0.33043 0.4899 0.73793 0.0
H1104 H 0.39576 0.40727 0.80201 0.0
H1105 H 0.33651 0.49207 0.82877 0.0
H1106 H 0.38757 0.44679 0.74216 0.0
H1107 H 0.41163 0.48024 0.7558 0.0
H1108 H 0.40708 0.4133 0.76211 0.0
H1109 H 0.32457 0.57024 0.81136 0.0
H1110 H 0.34146 0.59664 0.78724 0.0
H1111 H 0.31783 0.55226 0.7816 0.0
H1112 H 0.39746 0.63642 0.72817 0.0
H1113 H 0.33505 0.55955 0.70339 0.0
H1114 H 0.41303 0.56079 0.77352 0.0
H1115 H 0.39045 0.59696 0.78813 0.0
H1116 H 0.4101 0.62827 0.76754 0.0
H1117 H 0.33713 0.45599 0.74768 0.0
H1118 H 0.32482 0.47731 0.72008 0.0
H1119 H 0.31445 0.50451 0.7471 0.0
C1120 C 0.63132 0.56444 0.81923 0.0
C1121 C 0.61378 0.60167 0.82298 0.0
C1122 C 0.63133 0.53347 0.79886 0.0
C1123 C 0.61471 0.54304 0.78061 0.0
C1124 C 0.59819 0.58365 0.78352 0.0
C1125 C 0.59737 0.61112 0.80493 0.0
C1126 C 0.64912 0.49038 0.79721 0.0
C1127 C 0.5816 0.5988 0.76385 0.0
C1128 C 0.63064 0.48791 0.71996 0.0
C1129 C 0.61263 0.45158 0.7164 0.0
C1130 C 0.6311 0.51915 0.74025 0.0
C1131 C 0.61443 0.51074 0.7586 0.0
C1132 C 0.59738 0.47105 0.75587 0.0
C1133 C 0.59616 0.44335 0.73454 0.0
C1134 C 0.64948 0.56118 0.74171 0.0
C1135 C 0.58069 0.45702 0.77565 0.0
H1136 H 0.6448 0.5585 0.83251 0.0
H1137 H 0.58412 0.64078 0.80736 0.0
H1138 H 0.64186 0.45688 0.78751 0.0
H1139 H 0.66511 0.50418 0.78777 0.0
H1140 H 0.6548 0.47741 0.81498 0.0
H1141 H 0.57264 0.63595 0.76744 0.0
H1142 H 0.5915 0.602 0.74701 0.0
H1143 H 0.56779 0.56899 0.76147 0.0
H1144 H 0.64418 0.49282 0.70666 0.0
H1145 H 0.58254 0.41437 0.73228 0.0
H1146 H 0.66553 0.54615 0.75058 0.0
H1147 H 0.64295 0.5948 0.75181 0.0
H1148 H 0.65484 0.57434 0.72387 0.0
H1149 H 0.59065 0.45319 0.79243 0.0
H1150 H 0.57116 0.42047 0.77215 0.0
H1151 H 0.56735 0.48773 0.77811 0.0
C1152 C 0.10174 0.13803 0.96464 0.0
C1153 C 0.12438 0.14029 0.95444 0.0
C1154 C 0.09891 0.13798 0.98938 0.0
C1155 C 0.11916 0.1406 1.0042 0.0
C1156 C 0.14183 0.14681 0.99382 0.0
C1157 C 0.14414 0.14635 0.96917 0.0
C1158 C 0.0744 0.13152 0.9996 0.0
C1159 C 0.16396 0.15021 1.00871 0.0
C1160 C 0.11684 0.15653 0.07141 0.0
C1161 C 0.12067 0.10594 0.07888 0.0
C1162 C 0.11525 0.16854 0.04716 0.0
C1163 C 0.11739 0.12895 0.03006 0.0
C1164 C 0.12014 0.0776 0.03773 0.0
C1165 C 0.12185 0.0669 0.06189 0.0
C1166 C 0.11231 0.22377 0.03982 0.0
C1167 C 0.12233 0.03389 0.02036 0.0
H1168 H 0.08637 0.13329 0.95338 0.0
H1169 H 0.16168 0.14856 0.96139 0.0
H1170 H 0.07235 0.09175 1.00628 0.0
H1171 H 0.07172 0.15791 1.0147 0.0
H1172 H 0.06035 0.13865 0.98629 0.0
H1173 H 0.17976 0.16137 0.99821 0.0
H1174 H 0.16155 0.17847 0.02313 0.0
H1175 H 0.16747 0.11236 0.01695 0.0
H1176 H 0.11597 0.18688 0.08439 0.0
H1177 H 0.12462 0.02758 0.06749 0.0
H1178 H 0.09817 0.22729 0.02635 0.0
H1179 H 0.12903 0.23769 0.03173 0.0
H1180 H 0.10791 0.24901 0.05499 0.0
H1181 H 0.10738 0.03466 1.00769 0.0
H1182 H 0.12257 0.99583 0.02916 0.0
H1183 H 0.13896 0.03819 1.0101 0.0
C1184 C 0.83888 0.89092 0.96414 0.0
C1185 C 0.85741 0.91101 0.95053 0.0
C1186 C 0.84049 0.88844 0.98883 0.0
C1187 C 0.86082 0.90829 1.00037 0.0
C1188 C 0.88011 0.92639 0.98658 0.0
C1189 C 0.87829 0.92691 0.96178 0.0
C1190 C 0.81975 0.86745 1.00262 0.0
C1191 C 0.9019 0.94899 0.998 0.0
C1192 C 0.84666 0.96712 0.06014 0.0
C1193 C 0.85525 0.93023 0.07596 0.0
C1194 C 0.8494 0.96135 0.0357 0.0
C1195 C 0.8603 0.91659 0.02655 0.0
C1196 C 0.86926 0.87929 0.04245 0.0
C1197 C 0.867 0.88701 0.067 0.0
C1198 C 0.84016 1.00296 0.01962 0.0
C1199 C 0.88042 0.83043 0.03352 0.0
H1200 H 0.82271 0.87863 0.95546 0.0
H1201 H 0.89253 0.94313 0.95132 0.0
H1202 H 0.826 0.84121 0.01669 0.0
H1203 H 0.81016 0.89951 1.01126 0.0
H1204 H 0.80705 0.84642 0.99118 0.0
H1205 H 0.9165 0.95487 0.98514 0.0
H1206 H 0.89732 0.98666 1.00592 0.0
H1207 H 0.90834 0.92394 1.01241 0.0
H1208 H 0.83781 1.00098 0.06692 0.0
H1209 H 0.87366 0.85841 0.07912 0.0
H1210 H 0.82501 0.98809 1.0092 0.0
H1211 H 0.85415 1.01484 1.007 0.0
H1212 H 0.83414 0.03737 0.02952 0.0
H1213 H 0.86698 0.80763 0.02379 0.0
H1214 H 0.88764 0.80651 0.04803 0.0
H1215 H 0.89493 0.83929 0.02098 0.0
C1216 C 0.12022 0.8987 0.46054 0.0
C1217 C 0.12341 0.94891 0.45223 0.0
C1218 C 0.11894 0.8885 0.48499 0.0
C1219 C 0.1206 0.92953 0.50142 0.0
C1220 C 0.12271 0.98039 0.49289 0.0
C1221 C 0.12425 0.9893 0.46856 0.0
C1222 C 0.11681 0.8337 0.49324 0.0
C1223 C 0.12427 0.02556 0.50952 0.0
C1224 C 0.10438 0.92274 0.5668 0.0
C1225 C 0.12691 0.92262 0.57729 0.0
C1226 C 0.10185 0.92176 0.54204 0.0
C1227 C 0.12231 0.92002 0.52747 0.0
C1228 C 0.14495 0.91626 0.53816 0.0
C1229 C 0.14695 0.91796 0.56283 0.0
C1230 C 0.07738 0.92598 0.53152 0.0
C1231 C 0.16727 0.91372 0.52351 0.0
H1232 H 0.11964 0.86732 0.44804 0.0
H1233 H 0.12652 0.0283 0.46229 0.0
H1234 H 0.13363 0.82187 0.50179 0.0
H1235 H 0.10255 0.83013 0.5066 0.0
H1236 H 0.11305 0.80687 0.47849 0.0
H1237 H 0.12395 0.0629 0.5001 0.0
H1238 H 0.10934 0.0247 0.52224 0.0
H1239 H 0.14096 1.02327 0.51982 0.0
H1240 H 0.08879 0.92639 0.57786 0.0
H1241 H 0.16441 0.91741 0.57083 0.0
H1242 H 0.07512 0.89799 0.51696 0.0
H1243 H 0.07502 0.96491 0.52397 0.0
H1244 H 0.06326 0.91946 0.54484 0.0
H1245 H 0.16548 0.88436 0.50947 0.0
H1246 H 0.18314 0.90453 0.53431 0.0
H1247 H 0.17026 0.95127 0.51478 0.0
C1248 C 0.83583 0.13129 0.56019 0.0
C1249 C 0.85559 0.13048 0.57516 0.0
C1250 C 0.83844 0.13286 0.53558 0.0
C1251 C 0.86143 0.13303 0.5255 0.0
C1252 C 0.88148 0.1353 0.54059 0.0
C1253 C 0.87833 0.13426 0.56527 0.0
C1254 C 0.8165 0.13096 0.52037 0.0
C1255 C 0.90631 0.13549 0.5307 0.0
C1256 C 0.8632 0.06176 0.46714 0.0
C1257 C 0.86243 0.10162 0.45058 0.0
C1258 C 0.86424 0.07172 0.4914 0.0
C1259 C 0.86419 0.12307 0.49959 0.0
C1260 C 0.86444 0.16372 0.48292 0.0
C1261 C 0.86368 0.1525 0.45854 0.0
C1262 C 0.86424 0.02698 0.50832 0.0
C1263 C 0.86431 0.21897 0.49082 0.0
H1264 H 0.81819 0.1289 0.56774 0.0
H1265 H 0.89369 0.1337 0.57674 0.0
H1266 H 0.81749 0.16033 0.50627 0.0
H1267 H 0.81526 0.09286 0.5117 0.0
H1268 H 0.80004 0.13732 0.53071 0.0
H1269 H 0.91974 0.14511 0.54432 0.0
H1270 H 0.91047 0.09695 0.52349 0.0
H1271 H 0.90781 0.16336 0.51602 0.0
H1272 H 0.86244 1.0223 0.46111 0.0
H1273 H 0.86295 0.18345 0.44584 0.0
H1274 H 0.8473 0.02627 0.51826 0.0
H1275 H 0.87879 0.03119 0.52132 0.0
H1276 H 0.86634 0.98957 0.49916 0.0
H1277 H 0.84676 0.22831 0.49854 0.0
H1278 H 0.86776 0.24579 0.476 0.0
H1279 H 0.87781 0.22539 0.50471 0.0
C1280 C 0.6206 0.6519 0.07461 0.0
C1281 C 0.6216 0.6011 0.08266 0.0
C1282 C 0.61937 0.6628 0.05022 0.0
C1283 C 0.61899 0.62193 0.03362 0.0
C1284 C 0.61865 0.57072 0.04193 0.0
C1285 C 0.62009 0.56107 0.06619 0.0
C1286 C 0.61974 0.71794 0.0422 0.0
C1287 C 0.61801 0.52573 0.02513 0.0
C1288 C 0.60414 0.63192 0.96804 0.0
C1289 C 0.62674 0.62731 0.95789 0.0
C1290 C 0.60128 0.63378 0.99275 0.0
C1291 C 0.62149 0.63136 1.00763 0.0
C1292 C 0.64436 0.63034 0.99728 0.0
C1293 C 0.64667 0.6281 0.97265 0.0
C1294 C 0.57658 0.63502 1.00292 0.0
C1295 C 0.66646 0.62819 1.01225 0.0
H1296 H 0.62193 0.68298 0.08721 0.0
H1297 H 0.62066 0.52165 0.07228 0.0
H1298 H 0.63736 0.72691 0.03452 0.0
H1299 H 0.60631 0.72441 0.02825 0.0
H1300 H 0.61636 0.74497 0.05696 0.0
H1301 H 0.61577 0.48853 0.03442 0.0
H1302 H 0.60328 0.53023 1.01237 0.0
H1303 H 0.63478 0.52432 1.01492 0.0
H1304 H 0.58865 0.63146 0.95675 0.0
H1305 H 0.66421 0.62512 0.96493 0.0
H1306 H 0.57549 0.66315 0.01756 0.0
H1307 H 0.57217 0.59674 1.01027 0.0
H1308 H 0.56309 0.64494 0.98943 0.0
H1309 H 0.66585 0.65797 0.0262 0.0
H1310 H 0.68285 0.63376 1.00168 0.0
H1311 H 0.66752 0.5903 0.0211 0.0
C1312 C 0.36404 0.39547 0.9597 0.0
C1313 C 0.36085 0.44659 0.95269 0.0
C1314 C 0.36479 0.3821 0.98381 0.0
C1315 C 0.36252 0.42087 1.00125 0.0
C1316 C 0.36031 0.47273 0.99411 0.0
C1317 C 0.35938 0.48479 0.97004 0.0
C1318 C 0.36708 0.32638 0.99058 0.0
C1319 C 0.35806 0.51556 1.01192 0.0
C1320 C 0.33533 0.40034 0.06177 0.0
C1321 C 0.35512 0.40461 0.0766 0.0
C1322 C 0.33772 0.40168 0.03713 0.0
C1323 C 0.36047 0.40787 0.02692 0.0
C1324 C 0.3807 0.40865 0.04178 0.0
C1325 C 0.3778 0.40683 0.06647 0.0
C1326 C 0.31564 0.40016 0.02212 0.0
C1327 C 0.40529 0.41511 0.03174 0.0
H1328 H 0.3651 0.3658 0.94641 0.0
H1329 H 0.35707 0.52446 0.96477 0.0
H1330 H 0.38123 0.32148 1.00396 0.0
H1331 H 0.35024 0.31304 0.99864 0.0
H1332 H 0.37113 0.30157 0.97518 0.0
H1333 H 0.35814 0.55407 1.00355 0.0
H1334 H 0.34127 0.5111 0.02191 0.0
H1335 H 0.37282 0.51375 0.0248 0.0
H1336 H 0.31777 0.39828 0.06949 0.0
H1337 H 0.39319 0.41022 0.0778 0.0
H1338 H 0.31789 0.37291 1.00727 0.0
H1339 H 0.31244 0.43871 1.01446 0.0
H1340 H 0.29971 0.38879 0.03239 0.0
H1341 H 0.40794 0.38932 0.01641 0.0
H1342 H 0.41926 0.40715 0.04503 0.0
H1343 H 0.40753 0.45511 0.02542 0.0
C1344 C 0.61392 0.3811 0.46572 0.0
C1345 C 0.62583 0.42318 0.45587 0.0
C1346 C 0.61205 0.37543 0.49042 0.0
C1347 C 0.62159 0.41367 0.50555 0.0
C1348 C 0.63277 0.45719 0.4955 0.0
C1349 C 0.6351 0.4609 0.47092 0.0
C1350 C 0.60063 0.32775 0.50032 0.0
C1351 C 0.6426 0.49974 0.51072 0.0
C1352 C 0.60365 0.42864 0.57019 0.0
C1353 C 0.62435 0.41265 0.58172 0.0
C1354 C 0.60197 0.42715 0.54539 0.0
C1355 C 0.62117 0.40771 0.53187 0.0
C1356 C 0.64135 0.38807 0.5437 0.0
C1357 C 0.64288 0.39175 0.56839 0.0
C1358 C 0.58041 0.44986 0.53366 0.0
C1359 C 0.66194 0.36551 0.53023 0.0
H1360 H 0.60681 0.3518 0.45416 0.0
H1361 H 0.64411 0.49385 0.46342 0.0
H1362 H 0.61396 0.30559 0.51046 0.0
H1363 H 0.58621 0.33819 0.51271 0.0
H1364 H 0.59321 0.30265 0.48631 0.0
H1365 H 0.64885 0.53299 0.50017 0.0
H1366 H 0.62886 0.51329 0.52327 0.0
H1367 H 0.65771 0.48514 0.52126 0.0
H1368 H 0.5894 0.44543 0.58044 0.0
H1369 H 0.65889 0.37932 0.57728 0.0
H1370 H 0.57357 0.42381 0.51978 0.0
H1371 H 0.5854 0.48645 0.52497 0.0
H1372 H 0.56594 0.45777 0.54644 0.0
H1373 H 0.65548 0.33834 0.5166 0.0
H1374 H 0.67454 0.34506 0.54196 0.0
H1375 H 0.6717 0.3966 0.52106 0.0
C1376 C 0.33472 0.64621 0.56488 0.0
C1377 C 0.35403 0.63026 0.57853 0.0
C1378 C 0.33633 0.64917 0.5402 0.0
C1379 C 0.35754 0.63397 0.52873 0.0
C1380 C 0.37746 0.61984 0.54257 0.0
C1381 C 0.37556 0.61886 0.56735 0.0
C1382 C 0.31486 0.66598 0.52635 0.0
C1383 C 0.40021 0.60214 0.5312 0.0
C1384 C 0.34656 0.57519 0.46832 0.0
C1385 C 0.35361 0.61451 0.45298 0.0
C1386 C 0.34885 0.58032 0.49284 0.0
C1387 C 0.35766 0.62672 0.50251 0.0
C1388 C 0.36509 0.66647 0.48707 0.0
C1389 C 0.36335 0.65952 0.46244 0.0
C1390 C 0.34134 0.53624 0.50842 0.0
C1391 C 0.37397 0.71702 0.49657 0.0
H1392 H 0.31808 0.65523 0.57352 0.0
H1393 H 0.39047 0.60603 0.57786 0.0
H1394 H 0.32001 0.69404 0.51257 0.0
H1395 H 0.30691 0.63234 0.51734 0.0
H1396 H 0.30112 0.68364 0.5378 0.0
H1397 H 0.41487 0.59856 0.54416 0.0
H1398 H 0.3973 0.56412 0.52286 0.0
H1399 H 0.40574 0.62904 0.51711 0.0
H1400 H 0.33925 0.54004 0.4611 0.0
H1401 H 0.36874 0.69003 0.45064 0.0
H1402 H 0.32547 0.54735 0.51878 0.0
H1403 H 0.35564 0.52686 0.52113 0.0
H1404 H 0.33701 0.50116 0.49815 0.0
H1405 H 0.35943 0.73662 0.50619 0.0
H1406 H 0.38041 0.74284 0.48237 0.0
H1407 H 0.38855 0.71068 0.50933 0.0
C1408 C 0.94675 0.95916 0.12339 0.0
C1409 C 0.93028 0.98379 0.13806 0.0
C1410 C 0.97059 0.97411 0.12304 0.0
C1411 C 0.97822 1.01437 0.13792 0.0
C1412 C 0.96161 0.04012 0.15247 0.0
C1413 C 0.93772 0.02472 0.15225 0.0
C1414 C 0.98766 0.94635 0.10697 0.0
C1415 C 0.96919 0.0831 0.16865 0.0
C1416 C 0.04373 1.01965 0.15338 0.0
C1417 C 0.05172 0.05886 0.13849 0.0
C1418 C 0.01978 1.00487 0.15348 0.0
C1419 C 0.00361 0.02951 0.1381 0.0
C1420 C 0.01175 0.06807 0.12257 0.0
C1421 C 0.03568 0.08242 0.12303 0.0
C1422 C 0.01167 0.96364 0.17033 0.0
C1423 C -0.00486 0.09457 0.10564 0.0
H1424 H 0.94104 0.92771 0.11223 0.0
H1425 H 0.92506 0.04354 0.16373 0.0
H1426 H -0.00336 0.97414 0.09515 0.0
H1427 H 0.00164 0.9273 0.11756 0.0
H1428 H 0.97871 0.91685 0.09598 0.0
H1429 H 0.95408 0.09942 0.17872 0.0
H1430 H 0.98264 0.06879 0.1813 0.0
H1431 H 0.97763 0.11428 0.15832 0.0
H1432 H 0.05602 1.00169 0.16553 0.0
H1433 H 0.0418 0.11258 0.11136 0.0
H1434 H 0.00357 0.93138 0.16042 0.0
H1435 H -0.00216 0.97921 0.18225 0.0
H1436 H 0.02646 0.9484 0.18119 0.0
H1437 H 0.98643 0.06584 0.09408 0.0
H1438 H 0.00441 0.1231 0.09439 0.0
H1439 H 0.98091 0.11453 0.11555 0.0
C1440 C 0.94691 0.08476 0.40488 0.0
C1441 C 0.931 0.05954 0.38977 0.0
C1442 C 0.97084 0.07085 0.4058 0.0
C1443 C 0.97913 0.03076 0.3912 0.0
C1444 C 0.96311 1.0042 0.37631 0.0
C1445 C 0.93913 1.01881 0.37583 0.0
C1446 C 0.98731 0.09965 0.42212 0.0
C1447 C 0.97141 0.96115 0.36054 0.0
C1448 C 0.04498 0.02809 0.37721 0.0
C1449 C 0.053 0.98996 0.39265 0.0
C1450 C 0.02091 0.04165 0.37646 0.0
C1451 C 0.00463 1.01675 0.39166 0.0
C1452 C 0.01276 0.97923 0.40769 0.0
C1453 C 0.03684 0.96623 0.40796 0.0
C1454 C 0.01282 0.08193 0.35914 0.0
C1455 C -0.00403 0.95233 0.42437 0.0
H1456 H 0.94071 0.11598 0.4159 0.0
H1457 H 0.92694 0.99939 0.36405 0.0
H1458 H -0.00381 0.07251 0.4343 0.0
H1459 H 0.00141 0.11893 0.41175 0.0
H1460 H 0.97789 0.1291 0.43273 0.0
H1461 H 0.95665 0.94382 0.35029 0.0
H1462 H 0.98497 0.97573 0.34805 0.0
H1463 H 0.97993 0.93067 0.37122 0.0
H1464 H 0.05735 0.04613 0.36516 0.0
H1465 H 0.04296 0.93685 0.42002 0.0
H1466 H 0.00422 0.11412 0.36866 0.0
H1467 H -0.0006 0.06535 0.34704 0.0
H1468 H 0.02771 0.09748 0.34849 0.0
H1469 H 0.98678 0.98089 0.43562 0.0
H1470 H 0.00522 0.9244 0.43593 0.0
H1471 H 0.98214 0.93162 0.41422 0.0
C1472 C 0.03354 0.09421 0.87486 0.0
C1473 C 0.05059 0.06716 0.88772 0.0
C1474 C 0.00997 0.07794 0.87431 0.0
C1475 C 0.00329 0.03434 0.88751 0.0
C1476 C 0.0205 1.00665 0.90052 0.0
C1477 C 0.04421 1.02307 0.90019 0.0
C1478 C -0.00772 0.10736 0.85959 0.0
C1479 C 0.01376 0.96045 0.91508 0.0
C1480 C 0.93774 1.02301 0.90132 0.0
C1481 C 0.93087 0.98597 0.8849 0.0
C1482 C 0.96154 0.03842 0.90278 0.0
C1483 C 0.97834 1.0171 0.88699 0.0
C1484 C 0.97115 0.98076 0.86994 0.0
C1485 C 0.94749 0.96506 0.86935 0.0
C1486 C 0.96879 0.07665 0.92143 0.0
C1487 C 0.98841 0.95857 0.85229 0.0
H1488 H 0.03872 0.12821 0.8651 0.0
H1489 H 0.05754 1.00272 0.91028 0.0
H1490 H 0.98372 0.08126 0.84669 0.0
H1491 H 0.97806 0.12308 0.87099 0.0
H1492 H 0.00063 0.13962 0.84985 0.0
H1493 H 0.02917 0.94405 0.92466 0.0
H1494 H -6e-05 0.97126 0.92809 0.0
H1495 H 0.00608 0.93023 0.90362 0.0
H1496 H 0.92474 0.0383 0.91352 0.0
H1497 H 0.9419 0.93626 0.8567 0.0
H1498 H 0.97619 0.11159 0.91304 0.0
H1499 H 0.98296 0.06004 0.93262 0.0
H1500 H 0.9537 0.08808 0.93287 0.0
H1501 H -0.00325 0.98991 0.84198 0.0
H1502 H 0.97973 0.93149 0.83987 0.0
H1503 H 0.00283 0.93797 0.86158 0.0
C1504 C 0.93815 0.02752 0.65161 0.0
C1505 C 0.93077 0.06791 0.63716 0.0
C1506 C 0.96204 1.01249 0.65201 0.0
C1507 C 0.97861 0.03818 0.6374 0.0
C1508 C 0.97102 0.07784 0.62224 0.0
C1509 C 0.94719 0.09232 0.62237 0.0
C1510 C 0.96965 0.96991 0.66835 0.0
C1511 C 0.98811 0.1054 0.6061 0.0
C1512 C 0.04405 0.03204 0.65253 0.0
C1513 C 0.05155 0.99226 0.63776 0.0
C1514 C 0.02021 0.0475 0.65266 0.0
C1515 C 0.00384 1.02287 0.63744 0.0
C1516 C 0.0116 0.98403 0.6219 0.0
C1517 C 0.03537 0.96908 0.62231 0.0
C1518 C 0.01241 0.08917 0.66943 0.0
C1519 C -0.00526 0.95764 0.60511 0.0
H1520 H 0.92547 1.00896 0.66317 0.0
H1521 H 0.94144 0.1233 0.61099 0.0
H1522 H 0.97797 0.93843 0.65812 0.0
H1523 H 0.98319 0.98449 0.68086 0.0
H1524 H 0.95456 0.9539 0.67858 0.0
H1525 H 0.97919 0.1349 0.59512 0.0
H1526 H 0.00218 0.12439 0.61662 0.0
H1527 H -0.00303 0.07746 0.59426 0.0
H1528 H 0.05655 0.04963 0.66459 0.0
H1529 H 0.04124 0.93858 0.61069 0.0
H1530 H -0.0012 0.07385 0.68167 0.0
H1531 H 0.00412 0.12113 0.65952 0.0
H1532 H 0.0274 0.10474 0.67995 0.0
H1533 H 0.98058 0.9378 0.61517 0.0
H1534 H 0.00383 0.92901 0.59376 0.0
H1535 H 0.98599 0.98638 0.59364 0.0
C1536 C 0.4385 0.52188 0.15306 0.0
C1537 C 0.43113 0.48139 0.13858 0.0
C1538 C 0.46251 0.53646 0.15391 0.0
C1539 C 0.47931 0.51029 0.13971 0.0
C1540 C 0.47174 0.47057 0.1245 0.0
C1541 C 0.44778 0.45649 0.12421 0.0
C1542 C 0.47 0.57899 0.17037 0.0
C1543 C 0.48899 0.44241 0.10877 0.0
C1544 C 0.53741 0.57686 0.12595 0.0
C1545 C 0.55307 0.55293 0.14169 0.0
C1546 C 0.51342 0.56315 0.12507 0.0
C1547 C 0.50479 0.52476 0.14042 0.0
C1548 C 0.52059 0.4996 0.15603 0.0
C1549 C 0.54464 0.5138 0.15638 0.0
C1550 C 0.49726 0.59021 0.10788 0.0
C1551 C 0.51196 0.45847 0.17267 0.0
H1552 H 0.4257 0.54086 0.16433 0.0
H1553 H 0.44211 0.42538 0.11282 0.0
H1554 H 0.48304 0.56409 0.1833 0.0
H1555 H 0.4789 0.61001 0.16032 0.0
H1556 H 0.45476 0.59569 0.18012 0.0
H1557 H 0.48009 0.41328 0.09752 0.0
H1558 H 0.49841 0.47001 0.0972 0.0
H1559 H 0.50259 0.42286 0.11963 0.0
H1560 H 0.54388 0.60693 0.11441 0.0
H1561 H 0.55664 0.49557 0.16872 0.0
H1562 H 0.48297 0.61045 0.11758 0.0
H1563 H 0.48861 0.5618 0.09612 0.0
H1564 H 0.50689 0.61858 0.09685 0.0
H1565 H 0.49806 0.47437 0.18442 0.0
H1566 H 0.52649 0.44267 0.1837 0.0
H1567 H 0.50379 0.42657 0.16257 0.0
C1568 C 0.4367 0.51959 0.37824 0.0
C1569 C 0.42938 0.56139 0.39194 0.0
C1570 C 0.46048 0.50358 0.37839 0.0
C1571 C 0.47711 0.52965 0.3928 0.0
C1572 C 0.46964 0.57107 0.40706 0.0
C1573 C 0.4459 0.58656 0.40637 0.0
C1574 C 0.46791 0.45934 0.36288 0.0
C1575 C 0.48675 0.59923 0.42296 0.0
C1576 C 0.53312 0.4591 0.40994 0.0
C1577 C 0.54985 0.48062 0.39456 0.0
C1578 C 0.50944 0.47506 0.40967 0.0
C1579 C 0.50226 0.51306 0.39342 0.0
C1580 C 0.51914 0.53561 0.37808 0.0
C1581 C 0.54286 0.51933 0.37895 0.0
C1582 C 0.49205 0.4508 0.42658 0.0
C1583 C 0.51204 0.57607 0.36043 0.0
H1584 H 0.42402 0.50034 0.36693 0.0
H1585 H 0.44031 0.61873 0.41714 0.0
H1586 H 0.48192 0.4721 0.35046 0.0
H1587 H 0.47558 0.42819 0.37378 0.0
H1588 H 0.45286 0.44342 0.35257 0.0
H1589 H 0.47799 0.63024 0.43319 0.0
H1590 H 0.49504 0.57197 0.43549 0.0
H1591 H 0.50124 0.6164 0.41235 0.0
H1592 H 0.53852 0.42928 0.42211 0.0
H1593 H 0.55571 0.53555 0.36686 0.0
H1594 H 0.4778 0.43099 0.41663 0.0
H1595 H 0.48347 0.48085 0.4375 0.0
H1596 H 0.50065 0.42256 0.43847 0.0
H1597 H 0.49828 0.5605 0.34842 0.0
H1598 H 0.52729 0.58959 0.34971 0.0
H1599 H 0.50416 0.60951 0.36966 0.0
C1600 C 0.44545 0.46433 0.90797 0.0
C1601 C 0.43004 0.48793 0.8919 0.0
C1602 C 0.46941 0.47776 0.90894 0.0
C1603 C 0.47815 0.51561 0.89341 0.0
C1604 C 0.46265 0.54029 0.87739 0.0
C1605 C 0.43863 0.52627 0.8769 0.0
C1606 C 0.48537 0.45124 0.92648 0.0
C1607 C 0.47151 0.58097 0.86063 0.0
C1608 C 0.53422 0.58558 0.91017 0.0
C1609 C 0.55111 0.56107 0.89596 0.0
C1610 C 0.51043 0.5707 0.90967 0.0
C1611 C 0.50341 0.53047 0.89451 0.0
C1612 C 0.52047 0.50444 0.88063 0.0
C1613 C 0.54428 0.51996 0.88162 0.0
C1614 C 0.49277 0.59874 0.92501 0.0
C1615 C 0.51347 0.46123 0.86433 0.0
H1616 H 0.43882 0.43493 0.91976 0.0
H1617 H 0.42678 0.54428 0.86436 0.0
H1618 H 0.50002 0.43143 0.91713 0.0
H1619 H 0.49356 0.47997 0.93841 0.0
H1620 H 0.4757 0.42261 0.93734 0.0
H1621 H 0.4572 0.59603 0.84911 0.0
H1622 H 0.47927 0.61342 0.87067 0.0
H1623 H 0.48578 0.56497 0.84935 0.0
H1624 H 0.53953 0.61711 0.92147 0.0
H1625 H 0.55733 0.50127 0.87052 0.0
H1626 H 0.48325 0.57115 0.9365 0.0
H1627 H 0.47929 0.61784 0.91382 0.0
H1628 H 0.50132 0.62825 0.93631 0.0
H1629 H 0.50437 0.43049 0.87438 0.0
H1630 H 0.52897 0.44432 0.85508 0.0
H1631 H 0.50074 0.47555 0.85097 0.0
C1632 C 0.43651 0.52159 0.65412 0.0
C1633 C 0.42923 0.56171 0.63948 0.0
C1634 C 0.46036 0.50637 0.65459 0.0
C1635 C 0.47697 0.53158 0.63984 0.0
C1636 C 0.46944 0.57071 0.62438 0.0
C1637 C 0.44564 0.58542 0.62445 0.0
C1638 C 0.46792 0.46437 0.67127 0.0
C1639 C 0.48657 0.59767 0.60807 0.0
C1640 C 0.54221 0.52659 0.65575 0.0
C1641 C 0.54988 0.48606 0.64151 0.0
C1642 C 0.51838 0.54199 0.65541 0.0
C1643 C 0.50222 0.51658 0.64024 0.0
C1644 C 0.51019 0.47708 0.62516 0.0
C1645 C 0.53394 0.46214 0.62607 0.0
C1646 C 0.51033 0.58433 0.67171 0.0
C1647 C 0.49357 0.44992 0.60839 0.0
H1648 H 0.42382 0.50363 0.66586 0.0
H1649 H 0.43993 0.6162 0.61294 0.0
H1650 H 0.47647 0.43273 0.66133 0.0
H1651 H 0.48127 0.47953 0.68384 0.0
H1652 H 0.45278 0.44842 0.68143 0.0
H1653 H 0.47763 0.62635 0.59665 0.0
H1654 H 0.50043 0.61757 0.61851 0.0
H1655 H 0.49568 0.56928 0.59666 0.0
H1656 H 0.55456 0.54469 0.6678 0.0
H1657 H 0.53998 0.43105 0.61488 0.0
H1658 H 0.49663 0.56942 0.68396 0.0
H1659 H 0.50207 0.61575 0.66142 0.0
H1660 H 0.52518 0.60051 0.68222 0.0
H1661 H 0.47939 0.43016 0.61846 0.0
H1662 H 0.50285 0.42109 0.59731 0.0
H1663 H 0.48482 0.47817 0.59666 0.0
C1664 C 0.12482 0.73566 0.135 0.0
C1665 C 0.13646 0.75728 0.15448 0.0
C1666 C 0.12186 0.68223 0.13292 0.0
C1667 C 0.13069 0.64946 0.15078 0.0
C1668 C 0.14271 0.67095 0.17033 0.0
C1669 C 0.14548 0.72445 0.17192 0.0
C1670 C 0.10895 0.66088 0.11179 0.0
C1671 C 0.15247 0.63742 0.18971 0.0
C1672 C 0.10284 0.51716 0.15792 0.0
C1673 C 0.11942 0.48537 0.14663 0.0
C1674 C 0.10629 0.57049 0.15936 0.0
C1675 C 0.12686 0.5928 0.14932 0.0
C1676 C 0.14373 0.56095 0.138 0.0
C1677 C 0.1398 0.50769 0.13677 0.0
C1678 C 0.08783 0.60304 0.17151 0.0
C1679 C 0.16594 0.58314 0.12719 0.0
H1680 H 0.11756 0.7606 0.12155 0.0
H1681 H 0.15487 0.7406 0.18684 0.0
H1682 H 0.12028 0.63248 0.10256 0.0
H1683 H 0.0927 0.64047 0.11759 0.0
H1684 H 0.10382 0.69129 0.09908 0.0
H1685 H 0.16178 0.65999 0.20351 0.0
H1686 H 0.13785 0.61559 0.19811 0.0
H1687 H 0.16504 0.60899 0.18226 0.0
H1688 H 0.08687 0.50041 0.16526 0.0
H1689 H 0.15282 0.4834 0.12824 0.0
H1690 H 0.08065 0.63183 0.15903 0.0
H1691 H 0.09602 0.62446 0.18632 0.0
H1692 H 0.07287 0.57981 0.17849 0.0
H1693 H 0.16117 0.61171 0.11351 0.0
H1694 H 0.17731 0.55322 0.11902 0.0
H1695 H 0.17641 0.60356 0.14082 0.0
C1696 C 0.83832 0.31499 0.13079 0.0
C1697 C 0.85228 0.28704 0.14671 0.0
C1698 C 0.8403 0.36865 0.12911 0.0
C1699 C 0.85663 0.39508 0.14369 0.0
C1700 C 0.8709 0.36706 0.15965 0.0
C1701 C 0.86857 0.31347 0.16094 0.0
C1702 C 0.82477 0.39713 0.11186 0.0
C1703 C 0.88861 0.39373 0.17541 0.0
C1704 C 0.87794 0.52767 0.12536 0.0
C1705 C 0.86421 0.55994 0.13974 0.0
C1706 C 0.8755 0.47409 0.12633 0.0
C1707 C 0.85898 0.45199 0.14212 0.0
C1708 C 0.84502 0.48426 0.15666 0.0
C1709 C 0.8478 0.53781 0.1553 0.0
C1710 C 0.89077 0.44108 0.11057 0.0
C1711 C 0.82719 0.46217 0.17372 0.0
H1712 H 0.82547 0.295 0.11995 0.0
H1713 H 0.87965 0.29215 0.17307 0.0
H1714 H 0.81352 0.4252 0.12139 0.0
H1715 H 0.83593 0.41914 0.09933 0.0
H1716 H 0.81309 0.37093 0.10166 0.0
H1717 H 0.89831 0.36643 0.18692 0.0
H1718 H 0.9017 0.41503 0.16458 0.0
H1719 H 0.87942 0.42222 0.1867 0.0
H1720 H 0.89097 0.5443 0.11358 0.0
H1721 H 0.83694 0.56242 0.16628 0.0
H1722 H 0.87943 0.4161 0.09944 0.0
H1723 H 0.90206 0.41556 0.12145 0.0
H1724 H 0.90241 0.46425 0.09891 0.0
H1725 H 0.81408 0.4383 0.1641 0.0
H1726 H 0.81754 0.49244 0.18362 0.0
H1727 H 0.83629 0.43676 0.18651 0.0
C1728 C 0.12253 0.31374 0.39303 0.0
C1729 C 0.13525 0.29247 0.37413 0.0
C1730 C 0.11973 0.36719 0.39533 0.0
C1731 C 0.12982 0.40041 0.3783 0.0
C1732 C 0.14284 0.37927 0.35931 0.0
C1733 C 0.14543 0.32573 0.35748 0.0
C1734 C 0.10571 0.38809 0.41586 0.0
C1735 C 0.15395 0.41323 0.3408 0.0
C1736 C 0.10351 0.5342 0.37099 0.0
C1737 C 0.11963 0.56487 0.38355 0.0
C1738 C 0.10662 0.4808 0.36916 0.0
C1739 C 0.12637 0.45721 0.3801 0.0
C1740 C 0.14279 0.48793 0.39269 0.0
C1741 C 0.13921 0.54127 0.3943 0.0
C1742 C 0.08864 0.44954 0.35563 0.0
C1743 C 0.16415 0.46442 0.40451 0.0
H1744 H 0.11435 0.28853 0.40585 0.0
H1745 H 0.15564 0.30991 0.34303 0.0
H1746 H 0.11671 0.41556 0.42605 0.0
H1747 H 0.09005 0.40947 0.4093 0.0
H1748 H 0.0995 0.35732 0.42791 0.0
H1749 H 0.16378 0.3909 0.32729 0.0
H1750 H 0.14001 0.43606 0.33186 0.0
H1751 H 0.16636 0.44079 0.34918 0.0
H1752 H 0.08813 0.55187 0.36294 0.0
H1753 H 0.15191 0.56465 0.40382 0.0
H1754 H 0.08047 0.42049 0.36738 0.0
H1755 H 0.09752 0.42847 0.34111 0.0
H1756 H 0.07434 0.47367 0.34802 0.0
H1757 H 0.15836 0.43543 0.41761 0.0
H1758 H 0.17529 0.49353 0.41358 0.0
H1759 H 0.17522 0.44421 0.39128 0.0
C1760 C 0.85709 0.50719 0.36185 0.0
C1761 C 0.85906 0.48155 0.38347 0.0
C1762 C 0.85355 0.5605 0.36091 0.0
C1763 C 0.8521 0.58902 0.38211 0.0
C1764 C 0.85361 0.56323 0.404 0.0
C1765 C 0.857 0.5098 0.40442 0.0
C1766 C 0.8518 0.58645 0.33721 0.0
C1767 C 0.85231 0.59226 0.42698 0.0
C1768 C 0.8684 0.73045 0.37855 0.0
C1769 C 0.84606 0.75403 0.37798 0.0
C1770 C 0.8706 0.6769 0.38026 0.0
C1771 C 0.84994 0.64603 0.38131 0.0
C1772 C 0.82732 0.66962 0.38106 0.0
C1773 C 0.82565 0.72334 0.37947 0.0
C1774 C 0.89505 0.65333 0.38069 0.0
C1775 C 0.80489 0.63804 0.38201 0.0
H1776 H 0.85839 0.48548 0.34561 0.0
H1777 H 0.85879 0.49033 0.42118 0.0
H1778 H 0.83516 0.609 0.33611 0.0
H1779 H 0.86675 0.61373 0.335 0.0
H1780 H 0.85219 0.55856 0.32241 0.0
H1781 H 0.85277 0.56633 0.44249 0.0
H1782 H 0.86744 0.61939 0.42824 0.0
H1783 H 0.83582 0.61536 0.42772 0.0
H1784 H 0.88424 0.75398 0.37771 0.0
H1785 H 0.80833 0.74126 0.37878 0.0
H1786 H 0.89737 0.62776 0.36523 0.0
H1787 H 0.89719 0.62937 0.39669 0.0
H1788 H 0.90932 0.68275 0.38044 0.0
H1789 H 0.804 0.61233 0.36645 0.0
H1790 H 0.78869 0.66227 0.38234 0.0
H1791 H 0.80494 0.61327 0.39789 0.0
C1792 C 0.86591 0.31307 0.87111 0.0
C1793 C 0.85285 0.28609 0.88815 0.0
C1794 C 0.86817 0.36676 0.87206 0.0
C1795 C 0.8572 0.39445 0.89057 0.0
C1796 C 0.84434 0.36746 0.90806 0.0
C1797 C 0.84231 0.3137 0.90665 0.0
C1798 C 0.88211 0.39393 0.85308 0.0
C1799 C 0.83242 0.39549 0.9281 0.0
C1800 C 0.88045 0.52935 0.90256 0.0
C1801 C 0.86391 0.56005 0.89061 0.0
C1802 C 0.87821 0.4756 0.90314 0.0
C1803 C 0.85901 0.45167 0.89137 0.0
C1804 C 0.84201 0.48241 0.87964 0.0
C1805 C 0.84462 0.5361 0.87944 0.0
C1806 C 0.89671 0.44433 0.91588 0.0
C1807 C 0.82125 0.4585 0.8669 0.0
H1808 H 0.87444 0.29213 0.85696 0.0
H1809 H 0.83193 0.29341 0.91974 0.0
H1810 H 0.87047 0.42138 0.84365 0.0
H1811 H 0.89674 0.41646 0.86108 0.0
H1812 H 0.88978 0.36683 0.84003 0.0
H1813 H 0.82368 0.36886 0.94068 0.0
H1814 H 0.8456 0.41894 0.93783 0.0
H1815 H 0.81887 0.42221 0.92105 0.0
H1816 H 0.89561 0.54722 0.91096 0.0
H1817 H 0.83155 0.55938 0.87045 0.0
H1818 H 0.90628 0.41958 0.90313 0.0
H1819 H 0.88812 0.41864 0.92891 0.0
H1820 H 0.90986 0.4688 0.92517 0.0
H1821 H 0.82779 0.43349 0.85247 0.0
H1822 H 0.80917 0.48773 0.85927 0.0
H1823 H 0.81096 0.43388 0.87913 0.0
C1824 C 0.13662 0.51523 0.89441 0.0
C1825 C 0.11481 0.49415 0.88739 0.0
C1826 C 0.14015 0.56873 0.89505 0.0
C1827 C 0.12145 0.6021 0.8885 0.0
C1828 C 0.09936 0.58108 0.88159 0.0
C1829 C 0.0963 0.52756 0.88118 0.0
C1830 C 0.16398 0.58954 0.90251 0.0
C1831 C 0.07893 0.61517 0.8745 0.0
C1832 C 0.12229 0.74222 0.90808 0.0
C1833 C 0.13007 0.76732 0.8876 0.0
C1834 C 0.11969 0.6885 0.90873 0.0
C1835 C 0.12501 0.65898 0.88844 0.0
C1836 C 0.13308 0.68401 0.8678 0.0
C1837 C 0.13551 0.73771 0.86764 0.0
C1838 C 0.11097 0.66337 0.93106 0.0
C1839 C 0.13901 0.65407 0.8458 0.0
H1840 H 0.1511 0.48986 0.89904 0.0
H1841 H 0.07923 0.51185 0.87619 0.0
H1842 H 0.17195 0.61197 0.88791 0.0
H1843 H 0.1618 0.61606 0.91765 0.0
H1844 H 0.17652 0.55863 0.90761 0.0
H1845 H 0.06282 0.59286 0.86977 0.0
H1846 H 0.07443 0.64169 0.88912 0.0
H1847 H 0.0841 0.63909 0.85918 0.0
H1848 H 0.11784 0.76469 0.92352 0.0
H1849 H 0.14195 0.75654 0.85187 0.0
H1850 H 0.12386 0.63396 0.937 0.0
H1851 H 0.09394 0.64338 0.92766 0.0
H1852 H 0.10827 0.69149 0.94553 0.0
H1853 H 0.1528 0.62497 0.84973 0.0
H1854 H 0.14551 0.67913 0.83135 0.0
H1855 H 0.12308 0.63313 0.83954 0.0
C1856 C 0.83142 0.73447 0.6364 0.0
C1857 C 0.85109 0.76505 0.64219 0.0
C1858 C 0.83312 0.68067 0.63574 0.0
C1859 C 0.85502 0.65673 0.64097 0.0
C1860 C 0.875 0.68736 0.6466 0.0
C1861 C 0.87279 0.74106 0.64715 0.0
C1862 C 0.81139 0.64941 0.62974 0.0
C1863 C 0.89871 0.66336 0.65215 0.0
C1864 C 0.85573 0.51747 0.66124 0.0
C1865 C 0.86235 0.4916 0.64059 0.0
C1866 C 0.85297 0.57107 0.66154 0.0
C1867 C 0.85705 0.59964 0.64071 0.0
C1868 C 0.86348 0.5737 0.61974 0.0
C1869 C 0.86601 0.52006 0.61992 0.0
C1870 C 0.84592 0.59721 0.68422 0.0
C1871 C 0.86809 0.60272 0.59719 0.0
H1872 H 0.81449 0.75258 0.63289 0.0
H1873 H 0.88814 0.76437 0.65137 0.0
H1874 H 0.81503 0.6246 0.61427 0.0
H1875 H 0.80685 0.62375 0.64466 0.0
H1876 H 0.79577 0.67386 0.62576 0.0
H1877 H 0.91258 0.69253 0.65594 0.0
H1878 H 0.89701 0.63771 0.66765 0.0
H1879 H 0.90468 0.63939 0.63713 0.0
H1880 H 0.85263 0.49569 0.67721 0.0
H1881 H 0.87146 0.50049 0.60397 0.0
H1882 H 0.8295 0.61989 0.68153 0.0
H1883 H 0.86001 0.62441 0.68973 0.0
H1884 H 0.84283 0.56942 0.69874 0.0
H1885 H 0.85233 0.62593 0.59241 0.0
H1886 H 0.87239 0.57679 0.58226 0.0
H1887 H 0.88309 0.62976 0.59974 0.0
C1888 C 0.12963 0.31917 0.62577 0.0
C1889 C 0.12922 0.29163 0.64701 0.0
C1890 C 0.12702 0.37287 0.62546 0.0
C1891 C 0.12397 0.39992 0.6469 0.0
C1892 C 0.12362 0.37239 0.6684 0.0
C1893 C 0.12622 0.31872 0.66819 0.0
C1894 C 0.12738 0.40066 0.60214 0.0
C1895 C 0.12049 0.39968 0.69166 0.0
C1896 C 0.13699 0.54368 0.6486 0.0
C1897 C 0.11415 0.56487 0.64702 0.0
C1898 C 0.14047 0.49018 0.64849 0.0
C1899 C 0.12066 0.45686 0.64683 0.0
C1900 C 0.09759 0.47796 0.64522 0.0
C1901 C 0.09463 0.53152 0.64526 0.0
C1902 C 0.16536 0.46928 0.65025 0.0
C1903 C 0.07598 0.44392 0.6434 0.0
H1904 H 0.1317 0.29861 0.6093 0.0
H1905 H 0.12627 0.29798 0.68473 0.0
H1906 H 0.11034 0.42107 0.59946 0.0
H1907 H 0.14163 0.43004 0.60212 0.0
H1908 H 0.13028 0.3742 0.58706 0.0
H1909 H 0.12084 0.37283 0.70684 0.0
H1910 H 0.13475 0.42857 0.69405 0.0
H1911 H 0.10337 0.4206 0.69183 0.0
H1912 H 0.15217 0.56894 0.6502 0.0
H1913 H 0.07694 0.54729 0.64357 0.0
H1914 H 0.16927 0.44463 0.63479 0.0
H1915 H 0.16702 0.44488 0.66616 0.0
H1916 H 0.1789 0.50021 0.65116 0.0
H1917 H 0.07733 0.41922 0.62753 0.0
H1918 H 0.05925 0.46629 0.64236 0.0
H1919 H 0.075 0.41814 0.65891 0.0
C1920 C 0.60511 1.01382 0.13618 0.0
C1921 C 0.62094 0.97923 0.14678 0.0
C1922 C 0.60863 0.06713 0.13765 0.0
C1923 C 0.62838 0.08668 0.15016 0.0
C1924 C 0.6445 0.05208 0.16084 0.0
C1925 C 0.6406 0.99886 0.159 0.0
C1926 C 0.591 0.10258 0.12601 0.0
C1927 C 0.6658 0.07132 0.17431 0.0
C1928 C 0.64782 0.22416 0.13749 0.0
C1929 C 0.63721 0.25128 0.15608 0.0
C1930 C 0.64526 0.17062 0.13542 0.0
C1931 C 0.63186 0.14335 0.15243 0.0
C1932 C 0.62128 0.17044 0.17134 0.0
C1933 C 0.62403 0.22397 0.1729 0.0
C1934 C 0.65666 0.14331 0.11489 0.0
C1935 C 0.60698 0.14287 0.18993 0.0
H1936 H 0.58964 0.99925 0.12704 0.0
H1937 H 0.65309 0.97256 0.16701 0.0
H1938 H 0.58245 0.12725 0.13948 0.0
H1939 H 0.60025 0.12834 0.11346 0.0
H1940 H 0.57696 0.08131 0.11636 0.0
H1941 H 0.67676 0.03951 0.18141 0.0
H1942 H 0.67705 0.09543 0.16271 0.0
H1943 H 0.65993 0.09587 0.18918 0.0
H1944 H 0.65783 0.24497 0.12428 0.0
H1945 H 0.61608 0.24444 0.18753 0.0
H1946 H 0.64283 0.12429 0.10406 0.0
H1947 H 0.66874 0.11284 0.12137 0.0
H1948 H 0.66692 0.16984 0.10345 0.0
H1949 H 0.59164 0.12318 0.18167 0.0
H1950 H 0.60026 0.16934 0.20374 0.0
H1951 H 0.618 0.11293 0.19846 0.0
C1952 C 0.35001 0.80896 0.17093 0.0
C1953 C 0.35661 0.78283 0.15031 0.0
C1954 C 0.35233 0.86262 0.17275 0.0
C1955 C 0.36143 0.89099 0.15347 0.0
C1956 C 0.36851 0.86476 0.13278 0.0
C1957 C 0.36608 0.81115 0.13148 0.0
C1958 C 0.34463 0.88907 0.19513 0.0
C1959 C 0.37836 0.89343 0.11184 0.0
C1960 C 0.34654 0.03296 0.1471 0.0
C1961 C 0.36761 0.05664 0.15462 0.0
C1962 C 0.34416 0.97923 0.14701 0.0
C1963 C 0.36324 0.94817 0.15471 0.0
C1964 C 0.38436 0.97178 0.16279 0.0
C1965 C 0.3863 0.02559 0.1626 0.0
C1966 C 0.32133 0.95565 0.13825 0.0
C1967 C 0.40512 0.94014 0.17116 0.0
H1968 H 0.34242 0.78763 0.18547 0.0
H1969 H 0.37159 0.79133 0.11561 0.0
H1970 H 0.35945 0.91228 0.20235 0.0
H1971 H 0.32984 0.91585 0.1913 0.0
H1972 H 0.3387 0.86145 0.20882 0.0
H1973 H 0.38339 0.86733 0.09719 0.0
H1974 H 0.365 0.92112 0.10523 0.0
H1975 H 0.39421 0.91585 0.11714 0.0
H1976 H 0.33187 0.0565 0.14122 0.0
H1977 H 0.40279 0.04328 0.1681 0.0
H1978 H 0.31371 0.9301 0.15192 0.0
H1979 H 0.32494 0.93166 0.1225 0.0
H1980 H 0.30791 0.98507 0.13352 0.0
H1981 H 0.39939 0.91349 0.18528 0.0
H1982 H 0.41984 0.9643 0.17796 0.0
H1983 H 0.41196 0.91636 0.15643 0.0
C1984 C 0.61521 1.02387 0.40943 0.0
C1985 C 0.61509 0.05282 0.38857 0.0
C1986 C 0.61812 0.9702 0.40897 0.0
C1987 C 0.62109 0.94459 0.38714 0.0
C1988 C 0.62132 0.97365 0.36606 0.0
C1989 C 0.61828 0.02724 0.36702 0.0
C1990 C 0.61768 0.9408 0.43186 0.0
C1991 C 0.62464 0.94808 0.34242 0.0
C1992 C 0.64877 0.81089 0.38665 0.0
C1993 C 0.62882 0.77894 0.38424 0.0
C1994 C 0.64652 0.86464 0.3877 0.0
C1995 C 0.62375 0.88738 0.38633 0.0
C1996 C 0.60353 0.85542 0.38398 0.0
C1997 C 0.6063 0.80174 0.38294 0.0
C1998 C 0.66856 0.89717 0.39008 0.0
C1999 C 0.57892 0.87795 0.38258 0.0
H2000 H 0.61245 0.04305 0.42614 0.0
H2001 H 0.61852 0.04923 0.35083 0.0
H2002 H 0.60282 0.91287 0.43172 0.0
H2003 H 0.63431 0.91854 0.43391 0.0
H2004 H 0.61561 0.96639 0.44738 0.0
H2005 H 0.62478 0.97611 0.32769 0.0
H2006 H 0.64157 0.92644 0.34219 0.0
H2007 H 0.61016 0.92002 0.33934 0.0
H2008 H 0.66629 0.79388 0.3873 0.0
H2009 H 0.59075 0.77754 0.38135 0.0
H2010 H 0.66734 0.92145 0.40609 0.0
H2011 H 0.67011 0.92338 0.37477 0.0
H2012 H 0.68494 0.87365 0.39119 0.0
H2013 H 0.57526 0.90124 0.39853 0.0
H2014 H 0.565 0.84796 0.38096 0.0
H2015 H 0.57765 0.90399 0.36718 0.0
C2016 C 0.34084 1.00688 0.38923 0.0
C2017 C 0.36314 0.98487 0.38496 0.0
C2018 C 0.33765 0.06036 0.38861 0.0
C2019 C 0.35723 0.09264 0.38359 0.0
C2020 C 0.37976 0.07067 0.37922 0.0
C2021 C 0.38244 1.01715 0.37999 0.0
C2022 C 0.31334 0.08232 0.39331 0.0
C2023 C 0.40108 0.10375 0.37382 0.0
C2024 C 0.34632 0.22733 0.36036 0.0
C2025 C 0.34994 0.2575 0.38054 0.0
C2026 C 0.34841 0.17368 0.36116 0.0
C2027 C 0.35419 0.14942 0.3827 0.0
C2028 C 0.35761 0.17951 0.4032 0.0
C2029 C 0.35546 0.23317 0.40188 0.0
C2030 C 0.34457 0.14298 0.33892 0.0
C2031 C 0.3638 0.15504 0.42649 0.0
H2032 H 0.32579 0.98222 0.39285 0.0
H2033 H 0.39981 1.00058 0.37707 0.0
H2034 H 0.31408 0.10905 0.40851 0.0
H2035 H 0.30728 0.10477 0.37785 0.0
H2036 H 0.29999 0.05205 0.39711 0.0
H2037 H 0.41735 0.08068 0.37075 0.0
H2038 H 0.39761 0.12735 0.35794 0.0
H2039 H 0.40442 0.13058 0.38863 0.0
H2040 H 0.34161 0.24568 0.34389 0.0
H2041 H 0.35849 0.25617 0.4175 0.0
H2042 H 0.33021 0.11448 0.34164 0.0
H2043 H 0.36091 0.1213 0.3345 0.0
H2044 H 0.33983 0.16761 0.32367 0.0
H2045 H 0.35013 0.12629 0.43135 0.0
H2046 H 0.36524 0.18366 0.44093 0.0
H2047 H 0.38093 0.13438 0.42497 0.0
C2048 C 0.3547 0.81641 0.89693 0.0
C2049 C 0.34433 0.79456 0.87682 0.0
C2050 C 0.35735 0.86984 0.89907 0.0
C2051 C 0.34951 0.90224 0.88064 0.0
C2052 C 0.33865 0.88052 0.8605 0.0
C2053 C 0.33614 0.82703 0.85886 0.0
C2054 C 0.36898 0.89157 0.92086 0.0
C2055 C 0.33001 0.91373 0.84048 0.0
C2056 C 0.33984 0.04415 0.89333 0.0
C2057 C 0.36082 0.06595 0.88455 0.0
C2058 C 0.33589 0.99094 0.89219 0.0
C2059 C 0.35336 0.95874 0.88205 0.0
C2060 C 0.37452 0.98053 0.8731 0.0
C2061 C 0.37799 0.0338 0.87446 0.0
C2062 C 0.31306 0.96918 0.90184 0.0
C2063 C 0.3936 0.94751 0.86219 0.0
H2064 H 0.3613 0.79165 0.91078 0.0
H2065 H 0.32772 0.81059 0.84345 0.0
H2066 H 0.38565 0.91153 0.91596 0.0
H2067 H 0.35721 0.92042 0.92921 0.0
H2068 H 0.37319 0.86142 0.93402 0.0
H2069 H 0.32138 0.89097 0.82633 0.0
H2070 H 0.31716 0.94252 0.84713 0.0
H2071 H 0.34513 0.93516 0.83274 0.0
H2072 H 0.32639 0.06879 0.90094 0.0
H2073 H 0.39441 0.05023 0.86798 0.0
H2074 H 0.31697 0.94083 0.91588 0.0
H2075 H 0.30333 0.94859 0.88773 0.0
H2076 H 0.3013 0.99937 0.90923 0.0
H2077 H 0.39998 0.91898 0.87521 0.0
H2078 H 0.40898 0.97044 0.85596 0.0
H2079 H 0.38623 0.92581 0.84705 0.0
C2080 C 0.64837 0.23023 0.89908 0.0
C2081 C 0.62978 0.26066 0.89041 0.0
C2082 C 0.64644 0.17645 0.8999 0.0
C2083 C 0.62542 0.15235 0.8919 0.0
C2084 C 0.60651 0.18283 0.88333 0.0
C2085 C 0.60892 0.23651 0.88268 0.0
C2086 C 0.66703 0.14537 0.9091 0.0
C2087 C 0.58374 0.15871 0.87476 0.0
C2088 C 0.62726 1.0119 0.87317 0.0
C2089 C 0.61778 0.9871 0.89299 0.0
C2090 C 0.63007 0.06553 0.87267 0.0
C2091 C 0.62317 0.09523 0.89243 0.0
C2092 C 0.61379 0.0704 0.91256 0.0
C2093 C 0.61123 1.01674 0.9126 0.0
C2094 C 0.64028 0.09046 0.85091 0.0
C2095 C 0.60613 0.10061 0.93394 0.0
H2096 H 0.66468 0.24842 0.90476 0.0
H2097 H 0.59437 0.25969 0.87622 0.0
H2098 H 0.66121 0.12138 0.92416 0.0
H2099 H 0.67349 0.11893 0.89518 0.0
H2100 H 0.68204 0.16993 0.91493 0.0
H2101 H 0.57065 0.18775 0.86879 0.0
H2102 H 0.58751 0.13224 0.85991 0.0
H2103 H 0.57561 0.13556 0.88903 0.0
H2104 H 0.63261 0.98929 0.85805 0.0
H2105 H 0.60356 0.99806 0.92786 0.0
H2106 H 0.65627 0.11307 0.8556 0.0
H2107 H 0.62719 0.11754 0.84331 0.0
H2108 H 0.64519 0.06193 0.83721 0.0
H2109 H 0.62115 0.12392 0.94066 0.0
H2110 H 0.59965 0.07549 0.94838 0.0
H2111 H 0.59176 0.12764 0.92906 0.0
C2112 C 0.38027 1.02076 0.6286 0.0
C2113 C 0.36389 0.9885 0.63994 0.0
C2114 C 0.37767 0.07441 0.62892 0.0
C2115 C 0.35825 0.09668 0.64098 0.0
C2116 C 0.34153 0.06443 0.65231 0.0
C2117 C 0.34454 1.01082 0.65165 0.0
C2118 C 0.39593 0.10731 0.61665 0.0
C2119 C 0.32055 0.08658 0.66533 0.0
C2120 C 0.36406 0.23497 0.66208 0.0
C2121 C 0.35103 0.26199 0.64505 0.0
C2122 C 0.36654 0.18135 0.66095 0.0
C2123 C 0.35582 0.15376 0.64227 0.0
C2124 C 0.34289 0.18076 0.62484 0.0
C2125 C 0.34065 0.23446 0.62644 0.0
C2126 C 0.38056 0.15417 0.67984 0.0
C2127 C 0.33122 0.15285 0.60463 0.0
H2128 H 0.39551 1.00411 0.61983 0.0
H2129 H 0.33162 0.98633 0.66023 0.0
H2130 H 0.38717 0.13276 0.60365 0.0
H2131 H 0.40496 0.13235 0.62967 0.0
H2132 H 0.40955 0.08405 0.60739 0.0
H2133 H 0.30888 0.05635 0.67281 0.0
H2134 H 0.32683 0.11154 0.67989 0.0
H2135 H 0.3099 0.11092 0.65331 0.0
H2136 H 0.37246 0.25586 0.67633 0.0
H2137 H 0.3303 0.25477 0.61336 0.0
H2138 H 0.39551 0.13281 0.67178 0.0
H2139 H 0.36914 0.12569 0.68891 0.0
H2140 H 0.3878 0.18114 0.69319 0.0
H2141 H 0.34466 0.13069 0.59462 0.0
H2142 H 0.32209 0.17943 0.59233 0.0
H2143 H 0.31806 0.12495 0.6115 0.0
C2144 C 0.60786 0.81014 0.65605 0.0
C2145 C 0.62812 0.78616 0.64681 0.0
C2146 C 0.60547 0.86385 0.65582 0.0
C2147 C 0.62377 0.89455 0.64612 0.0
C2148 C 0.64416 0.87062 0.63657 0.0
C2149 C 0.64609 0.81682 0.63702 0.0
C2150 C 0.58338 0.88777 0.66608 0.0
C2151 C 0.66411 0.90191 0.62613 0.0
C2152 C 0.60837 0.03098 0.6275 0.0
C2153 C 0.61625 0.05986 0.64687 0.0
C2154 C 0.6109 0.97731 0.62693 0.0
C2155 C 0.62162 0.95171 0.64616 0.0
C2156 C 0.62993 0.98067 0.66561 0.0
C2157 C 0.62712 0.03429 0.66575 0.0
C2158 C 0.60172 0.94791 0.60589 0.0
C2159 C 0.64161 0.95494 0.6864 0.0
H2160 H 0.59376 0.78682 0.66338 0.0
H2161 H 0.66197 0.7988 0.63016 0.0
H2162 H 0.58821 0.91372 0.68082 0.0
H2163 H 0.57435 0.91142 0.65255 0.0
H2164 H 0.57067 0.85858 0.67273 0.0
H2165 H 0.67859 0.87748 0.61905 0.0
H2166 H 0.65727 0.92646 0.61171 0.0
H2167 H 0.67162 0.92782 0.63973 0.0
H2168 H 0.59965 0.05024 0.61299 0.0
H2169 H 0.6335 0.05631 0.68065 0.0
H2170 H 0.58762 0.92086 0.61155 0.0
H2171 H 0.61617 0.92469 0.59802 0.0
H2172 H 0.59436 0.97359 0.59211 0.0
H2173 H 0.62903 0.92772 0.69474 0.0
H2174 H 0.64759 0.98298 0.6999 0.0
H2175 H 0.65716 0.93235 0.68042 0.0
loop_
_geom_bond_atom_site_label_1
_geom_bond_atom_site_label_2
_geom_bond_distance
_geom_bond_site_symmetry_2
_ccdc_geom_bond_type
Gd0 C3 2.818 1_545 S
Gd0 O20 2.377 . S
Gd0 O22 2.448 1_545 S
Gd0 O23 2.506 1_545 S
Gd0 O24 2.435 . S
Gd0 O25 2.717 . S
Gd0 O27 2.395 . S
Gd0 O31 2.327 . S
Gd1 C12 2.818 . S
Gd1 O21 2.395 . S
Gd1 O25 2.327 . S
Gd1 O26 2.377 . S
Gd1 O28 2.448 . S
Gd1 O29 2.506 . S
Gd1 O30 2.435 . S
Gd1 O31 2.717 . S
C2 O20 1.240 . S
C2 O21 1.240 . S
C3 Gd0 2.818 1_565 S
C3 C4 1.510 . S
C3 O22 1.249 . S
C3 O23 1.252 . S
C4 C3 1.510 . S
C4 C5 1.404 . S
C4 C6 1.352 . S
C5 C4 1.404 . S
C5 C9 1.389 . S
C5 H32 0.930 . S
C6 C4 1.352 . S
C6 C8 1.374 . S
C6 H33 0.931 . S
C7 C8 1.359 . S
C7 C9 1.364 . S
C8 C6 1.374 . S
C8 C7 1.359 . S
C8 H34 0.931 . S
C9 C5 1.389 . S
C9 C7 1.364 . S
C9 H35 0.931 . S
C10 O24 1.256 . S
C10 O25 1.257 . S
C11 O26 1.240 . S
C11 O27 1.240 . S
C12 Gd1 2.818 . S
C12 C13 1.510 . S
C12 O28 1.249 . S
C12 O29 1.252 . S
C13 C12 1.510 . S
C13 C14 1.404 . S
C13 C15 1.352 . S
C14 C13 1.404 . S
C14 C18 1.389 . S
C14 H36 0.930 . S
C15 C13 1.352 . S
C15 C17 1.374 . S
C15 H37 0.931 . S
C16 C17 1.359 . S
C16 C18 1.364 . S
C17 C15 1.374 . S
C17 C16 1.359 . S
C17 H38 0.931 . S
C18 C14 1.389 . S
C18 C16 1.364 . S
C18 H39 0.931 . S
C19 O30 1.256 . S
C19 O31 1.257 . S
O20 Gd0 2.377 . S
O20 C2 1.240 . S
O21 Gd1 2.395 . S
O21 C2 1.240 . S
O22 Gd0 2.448 1_565 S
O22 C3 1.249 . S
O23 Gd0 2.506 1_565 S
O23 C3 1.252 . S
O24 Gd0 2.435 . S
O24 C10 1.256 . S
O25 Gd0 2.717 . S
O25 Gd1 2.327 . S
O25 C10 1.257 . S
O26 Gd1 2.377 . S
O26 C11 1.240 . S
O27 Gd0 2.395 . S
O27 C11 1.240 . S
O28 Gd1 2.448 . S
O28 C12 1.249 . S
O29 Gd1 2.506 . S
O29 C12 1.252 . S
O30 Gd1 2.435 . S
O30 C19 1.256 . S
O31 Gd0 2.327 . S
O31 Gd1 2.717 . S
O31 C19 1.257 . S
H32 C5 0.930 . S
H33 C6 0.931 . S
H34 C8 0.931 . S
H35 C9 0.931 . S
H36 C14 0.930 . S
H37 C15 0.931 . S
H38 C17 0.931 . S
H39 C18 0.931 . S
Gd40 C43 2.818 1_565 S
Gd40 O60 2.377 . S
Gd40 O62 2.448 1_565 S
Gd40 O63 2.506 1_565 S
Gd40 O64 2.435 . S
Gd40 O65 2.717 . S
Gd40 O67 2.395 . S
Gd40 O71 2.327 . S
Gd41 C52 2.818 . S
Gd41 O61 2.395 . S
Gd41 O65 2.327 . S
Gd41 O66 2.377 . S
Gd41 O68 2.448 . S
Gd41 O69 2.506 . S
Gd41 O70 2.435 . S
Gd41 O71 2.717 . S
C42 O60 1.240 . S
C42 O61 1.240 . S
C43 Gd40 2.818 1_545 S
C43 C44 1.510 . S
C43 O62 1.249 . S
C43 O63 1.252 . S
C44 C43 1.510 . S
C44 C45 1.404 . S
C44 C46 1.352 . S
C45 C44 1.404 . S
C45 C49 1.389 . S
C45 H72 0.930 . S
C46 C44 1.352 . S
C46 C48 1.374 . S
C46 H73 0.931 . S
C47 C48 1.359 . S
C47 C49 1.364 . S
C48 C46 1.374 . S
C48 C47 1.359 . S
C48 H74 0.931 . S
C49 C45 1.389 . S
C49 C47 1.364 . S
C49 H75 0.931 . S
C50 O64 1.256 . S
C50 O65 1.257 . S
C51 O66 1.240 . S
C51 O67 1.240 . S
C52 Gd41 2.818 . S
C52 C53 1.510 . S
C52 O68 1.249 . S
C52 O69 1.252 . S
C53 C52 1.510 . S
C53 C54 1.404 . S
C53 C55 1.352 . S
C54 C53 1.404 . S
C54 C58 1.389 . S
C54 H76 0.930 . S
C55 C53 1.352 . S
C55 C57 1.374 . S
C55 H77 0.931 . S
C56 C57 1.359 . S
C56 C58 1.364 . S
C57 C55 1.374 . S
C57 C56 1.359 . S
C57 H78 0.931 . S
C58 C54 1.389 . S
C58 C56 1.364 . S
C58 H79 0.931 . S
C59 O70 1.256 . S
C59 O71 1.257 . S
O60 Gd40 2.377 . S
O60 C42 1.240 . S
O61 Gd41 2.395 . S
O61 C42 1.240 . S
O62 Gd40 2.448 1_545 S
O62 C43 1.249 . S
O63 Gd40 2.506 1_545 S
O63 C43 1.252 . S
O64 Gd40 2.435 . S
O64 C50 1.256 . S
O65 Gd40 2.717 . S
O65 Gd41 2.327 . S
O65 C50 1.257 . S
O66 Gd41 2.377 . S
O66 C51 1.240 . S
O67 Gd40 2.395 . S
O67 C51 1.240 . S
O68 Gd41 2.448 . S
O68 C52 1.249 . S
O69 Gd41 2.506 . S
O69 C52 1.252 . S
O70 Gd41 2.435 . S
O70 C59 1.256 . S
O71 Gd40 2.327 . S
O71 Gd41 2.717 . S
O71 C59 1.257 . S
H72 C45 0.930 . S
H73 C46 0.931 . S
H74 C48 0.931 . S
H75 C49 0.931 . S
H76 C54 0.930 . S
H77 C55 0.931 . S
H78 C57 0.931 . S
H79 C58 0.931 . S
Gd80 C83 2.818 1_565 S
Gd80 O100 2.377 . S
Gd80 O102 2.448 1_565 S
Gd80 O103 2.506 1_565 S
Gd80 O104 2.435 . S
Gd80 O105 2.717 . S
Gd80 O107 2.395 . S
Gd80 O111 2.327 . S
Gd81 C92 2.818 . S
Gd81 O101 2.395 . S
Gd81 O105 2.327 . S
Gd81 O106 2.377 . S
Gd81 O108 2.448 . S
Gd81 O109 2.506 . S
Gd81 O110 2.435 . S
Gd81 O111 2.717 . S
C82 O100 1.240 . S
C82 O101 1.240 . S
C83 Gd80 2.818 1_545 S
C83 C84 1.510 . S
C83 O102 1.249 . S
C83 O103 1.252 . S
C84 C83 1.510 . S
C84 C85 1.404 . S
C84 C86 1.352 . S
C85 C84 1.404 . S
C85 C89 1.389 . S
C85 H112 0.930 . S
C86 C84 1.352 . S
C86 C88 1.374 . S
C86 H113 0.931 . S
C87 C88 1.359 . S
C87 C89 1.364 . S
C88 C86 1.374 . S
C88 C87 1.359 . S
C88 H114 0.931 . S
C89 C85 1.389 . S
C89 C87 1.364 . S
C89 H115 0.931 . S
C90 O104 1.256 . S
C90 O105 1.257 . S
C91 O106 1.240 . S
C91 O107 1.240 . S
C92 Gd81 2.818 . S
C92 C93 1.510 . S
C92 O108 1.249 . S
C92 O109 1.252 . S
C93 C92 1.510 . S
C93 C94 1.404 . S
C93 C95 1.352 . S
C94 C93 1.404 . S
C94 C98 1.389 . S
C94 H116 0.930 . S
C95 C93 1.352 . S
C95 C97 1.374 . S
C95 H117 0.931 . S
C96 C97 1.359 . S
C96 C98 1.364 . S
C97 C95 1.374 . S
C97 C96 1.359 . S
C97 H118 0.931 . S
C98 C94 1.389 . S
C98 C96 1.364 . S
C98 H119 0.931 . S
C99 O110 1.256 . S
C99 O111 1.257 . S
O100 Gd80 2.377 . S
O100 C82 1.240 . S
O101 Gd81 2.395 . S
O101 C82 1.240 . S
O102 Gd80 2.448 1_545 S
O102 C83 1.249 . S
O103 Gd80 2.506 1_545 S
O103 C83 1.252 . S
O104 Gd80 2.435 . S
O104 C90 1.256 . S
O105 Gd80 2.717 . S
O105 Gd81 2.327 . S
O105 C90 1.257 . S
O106 Gd81 2.377 . S
O106 C91 1.240 . S
O107 Gd80 2.395 . S
O107 C91 1.240 . S
O108 Gd81 2.448 . S
O108 C92 1.249 . S
O109 Gd81 2.506 . S
O109 C92 1.252 . S
O110 Gd81 2.435 . S
O110 C99 1.256 . S
O111 Gd80 2.327 . S
O111 Gd81 2.717 . S
O111 C99 1.257 . S
H112 C85 0.930 . S
H113 C86 0.931 . S
H114 C88 0.931 . S
H115 C89 0.931 . S
H116 C94 0.930 . S
H117 C95 0.931 . S
H118 C97 0.931 . S
H119 C98 0.931 . S
Gd120 C123 2.818 1_545 S
Gd120 O140 2.377 . S
Gd120 O142 2.448 1_545 S
Gd120 O143 2.506 1_545 S
Gd120 O144 2.435 . S
Gd120 O145 2.717 . S
Gd120 O147 2.395 . S
Gd120 O151 2.327 . S
Gd121 C132 2.818 . S
Gd121 O141 2.395 . S
Gd121 O145 2.327 . S
Gd121 O146 2.377 . S
Gd121 O148 2.448 . S
Gd121 O149 2.506 . S
Gd121 O150 2.435 . S
Gd121 O151 2.717 . S
C122 O140 1.240 . S
C122 O141 1.240 . S
C123 Gd120 2.818 1_565 S
C123 C124 1.510 . S
C123 O142 1.249 . S
C123 O143 1.252 . S
C124 C123 1.510 . S
C124 C125 1.404 . S
C124 C126 1.352 . S
C125 C124 1.404 . S
C125 C129 1.389 . S
C125 H152 0.930 . S
C126 C124 1.352 . S
C126 C128 1.374 . S
C126 H153 0.931 . S
C127 C128 1.359 . S
C127 C129 1.364 . S
C128 C126 1.374 . S
C128 C127 1.359 . S
C128 H154 0.931 . S
C129 C125 1.389 . S
C129 C127 1.364 . S
C129 H155 0.931 . S
C130 O144 1.256 . S
C130 O145 1.257 . S
C131 O146 1.240 . S
C131 O147 1.240 . S
C132 Gd121 2.818 . S
C132 C133 1.510 . S
C132 O148 1.249 . S
C132 O149 1.252 . S
C133 C132 1.510 . S
C133 C134 1.404 . S
C133 C135 1.352 . S
C134 C133 1.404 . S
C134 C138 1.389 . S
C134 H156 0.930 . S
C135 C133 1.352 . S
C135 C137 1.374 . S
C135 H157 0.931 . S
C136 C137 1.359 . S
C136 C138 1.364 . S
C137 C135 1.374 . S
C137 C136 1.359 . S
C137 H158 0.931 . S
C138 C134 1.389 . S
C138 C136 1.364 . S
C138 H159 0.931 . S
C139 O150 1.256 . S
C139 O151 1.257 . S
O140 Gd120 2.377 . S
O140 C122 1.240 . S
O141 Gd121 2.395 . S
O141 C122 1.240 . S
O142 Gd120 2.448 1_565 S
O142 C123 1.249 . S
O143 Gd120 2.506 1_565 S
O143 C123 1.252 . S
O144 Gd120 2.435 . S
O144 C130 1.256 . S
O145 Gd120 2.717 . S
O145 Gd121 2.327 . S
O145 C130 1.257 . S
O146 Gd121 2.377 . S
O146 C131 1.240 . S
O147 Gd120 2.395 . S
O147 C131 1.240 . S
O148 Gd121 2.448 . S
O148 C132 1.249 . S
O149 Gd121 2.506 . S
O149 C132 1.252 . S
O150 Gd121 2.435 . S
O150 C139 1.256 . S
O151 Gd120 2.327 . S
O151 Gd121 2.717 . S
O151 C139 1.257 . S
H152 C125 0.930 . S
H153 C126 0.931 . S
H154 C128 0.931 . S
H155 C129 0.931 . S
H156 C134 0.930 . S
H157 C135 0.931 . S
H158 C137 0.931 . S
H159 C138 0.931 . S
Gd160 C163 2.818 . S
Gd160 O180 2.377 . S
Gd160 O182 2.448 . S
Gd160 O183 2.506 . S
Gd160 O184 2.435 . S
Gd160 O185 2.717 . S
Gd160 O187 2.395 . S
Gd160 O191 2.327 . S
Gd161 C172 2.818 1_565 S
Gd161 O181 2.395 . S
Gd161 O185 2.327 . S
Gd161 O186 2.377 . S
Gd161 O188 2.448 1_565 S
Gd161 O189 2.506 1_565 S
Gd161 O190 2.435 . S
Gd161 O191 2.717 . S
C162 O180 1.240 . S
C162 O181 1.240 . S
C163 Gd160 2.818 . S
C163 C164 1.510 . S
C163 O182 1.249 . S
C163 O183 1.252 . S
C164 C163 1.510 . S
C164 C165 1.404 . S
C164 C166 1.352 . S
C165 C164 1.404 . S
C165 C169 1.389 . S
C165 H192 0.930 . S
C166 C164 1.352 . S
C166 C168 1.374 . S
C166 H193 0.931 . S
C167 C168 1.359 . S
C167 C169 1.364 . S
C168 C166 1.374 . S
C168 C167 1.359 . S
C168 H194 0.931 . S
C169 C165 1.389 . S
C169 C167 1.364 . S
C169 H195 0.931 . S
C170 O184 1.256 . S
C170 O185 1.257 . S
C171 O186 1.240 . S
C171 O187 1.240 . S
C172 Gd161 2.818 1_545 S
C172 C173 1.510 . S
C172 O188 1.249 . S
C172 O189 1.252 . S
C173 C172 1.510 . S
C173 C174 1.404 . S
C173 C175 1.352 . S
C174 C173 1.404 . S
C174 C178 1.389 . S
C174 H196 0.930 . S
C175 C173 1.352 . S
C175 C177 1.374 . S
C175 H197 0.931 . S
C176 C177 1.359 . S
C176 C178 1.364 . S
C177 C175 1.374 . S
C177 C176 1.359 . S
C177 H198 0.931 . S
C178 C174 1.389 . S
C178 C176 1.364 . S
C178 H199 0.931 . S
C179 O190 1.256 . S
C179 O191 1.257 . S
O180 Gd160 2.377 . S
O180 C162 1.240 . S
O181 Gd161 2.395 . S
O181 C162 1.240 . S
O182 Gd160 2.448 . S
O182 C163 1.249 . S
O183 Gd160 2.506 . S
O183 C163 1.252 . S
O184 Gd160 2.435 . S
O184 C170 1.256 . S
O185 Gd160 2.717 . S
O185 Gd161 2.327 . S
O185 C170 1.257 . S
O186 Gd161 2.377 . S
O186 C171 1.240 . S
O187 Gd160 2.395 . S
O187 C171 1.240 . S
O188 Gd161 2.448 1_545 S
O188 C172 1.249 . S
O189 Gd161 2.506 1_545 S
O189 C172 1.252 . S
O190 Gd161 2.435 . S
O190 C179 1.256 . S
O191 Gd160 2.327 . S
O191 Gd161 2.717 . S
O191 C179 1.257 . S
H192 C165 0.930 . S
H193 C166 0.931 . S
H194 C168 0.931 . S
H195 C169 0.931 . S
H196 C174 0.930 . S
H197 C175 0.931 . S
H198 C177 0.931 . S
H199 C178 0.931 . S
Gd200 C203 2.818 . S
Gd200 O220 2.377 . S
Gd200 O222 2.448 . S
Gd200 O223 2.506 . S
Gd200 O224 2.435 . S
Gd200 O225 2.717 . S
Gd200 O227 2.395 . S
Gd200 O231 2.327 . S
Gd201 C212 2.818 1_545 S
Gd201 O221 2.395 . S
Gd201 O225 2.327 . S
Gd201 O226 2.377 . S
Gd201 O228 2.448 1_545 S
Gd201 O229 2.506 1_545 S
Gd201 O230 2.435 . S
Gd201 O231 2.717 . S
C202 O220 1.240 . S
C202 O221 1.240 . S
C203 Gd200 2.818 . S
C203 C204 1.510 . S
C203 O222 1.249 . S
C203 O223 1.252 . S
C204 C203 1.510 . S
C204 C205 1.404 . S
C204 C206 1.352 . S
C205 C204 1.404 . S
C205 C209 1.389 . S
C205 H232 0.930 . S
C206 C204 1.352 . S
C206 C208 1.374 . S
C206 H233 0.931 . S
C207 C208 1.359 . S
C207 C209 1.364 . S
C208 C206 1.374 . S
C208 C207 1.359 . S
C208 H234 0.931 . S
C209 C205 1.389 . S
C209 C207 1.364 . S
C209 H235 0.931 . S
C210 O224 1.256 . S
C210 O225 1.257 . S
C211 O226 1.240 . S
C211 O227 1.240 . S
C212 Gd201 2.818 1_565 S
C212 C213 1.510 . S
C212 O228 1.249 . S
C212 O229 1.252 . S
C213 C212 1.510 . S
C213 C214 1.404 . S
C213 C215 1.352 . S
C214 C213 1.404 . S
C214 C218 1.389 . S
C214 H236 0.930 . S
C215 C213 1.352 . S
C215 C217 1.374 . S
C215 H237 0.931 . S
C216 C217 1.359 . S
C216 C218 1.364 . S
C217 C215 1.374 . S
C217 C216 1.359 . S
C217 H238 0.931 . S
C218 C214 1.389 . S
C218 C216 1.364 . S
C218 H239 0.931 . S
C219 O230 1.256 . S
C219 O231 1.257 . S
O220 Gd200 2.377 . S
O220 C202 1.240 . S
O221 Gd201 2.395 . S
O221 C202 1.240 . S
O222 Gd200 2.448 . S
O222 C203 1.249 . S
O223 Gd200 2.506 . S
O223 C203 1.252 . S
O224 Gd200 2.435 . S
O224 C210 1.256 . S
O225 Gd200 2.717 . S
O225 Gd201 2.327 . S
O225 C210 1.257 . S
O226 Gd201 2.377 . S
O226 C211 1.240 . S
O227 Gd200 2.395 . S
O227 C211 1.240 . S
O228 Gd201 2.448 1_565 S
O228 C212 1.249 . S
O229 Gd201 2.506 1_565 S
O229 C212 1.252 . S
O230 Gd201 2.435 . S
O230 C219 1.256 . S
O231 Gd200 2.327 . S
O231 Gd201 2.717 . S
O231 C219 1.257 . S
H232 C205 0.930 . S
H233 C206 0.931 . S
H234 C208 0.931 . S
H235 C209 0.931 . S
H236 C214 0.930 . S
H237 C215 0.931 . S
H238 C217 0.931 . S
H239 C218 0.931 . S
Gd240 C243 2.818 . S
Gd240 O260 2.377 . S
Gd240 O262 2.448 . S
Gd240 O263 2.506 . S
Gd240 O264 2.435 . S
Gd240 O265 2.717 . S
Gd240 O267 2.395 . S
Gd240 O271 2.327 . S
Gd241 C252 2.818 1_545 S
Gd241 O261 2.395 . S
Gd241 O265 2.327 . S
Gd241 O266 2.377 . S
Gd241 O268 2.448 1_545 S
Gd241 O269 2.506 1_545 S
Gd241 O270 2.435 . S
Gd241 O271 2.717 . S
C242 O260 1.240 . S
C242 O261 1.240 . S
C243 Gd240 2.818 . S
C243 C244 1.510 . S
C243 O262 1.249 . S
C243 O263 1.252 . S
C244 C243 1.510 . S
C244 C245 1.404 . S
C244 C246 1.352 . S
C245 C244 1.404 . S
C245 C249 1.389 . S
C245 H272 0.930 . S
C246 C244 1.352 . S
C246 C248 1.374 . S
C246 H273 0.931 . S
C247 C248 1.359 . S
C247 C249 1.364 . S
C248 C246 1.374 . S
C248 C247 1.359 . S
C248 H274 0.931 . S
C249 C245 1.389 . S
C249 C247 1.364 . S
C249 H275 0.931 . S
C250 O264 1.256 . S
C250 O265 1.257 . S
C251 O266 1.240 . S
C251 O267 1.240 . S
C252 Gd241 2.818 1_565 S
C252 C253 1.510 . S
C252 O268 1.249 . S
C252 O269 1.252 . S
C253 C252 1.510 . S
C253 C254 1.404 . S
C253 C255 1.352 . S
C254 C253 1.404 . S
C254 C258 1.389 . S
C254 H276 0.930 . S
C255 C253 1.352 . S
C255 C257 1.374 . S
C255 H277 0.931 . S
C256 C257 1.359 . S
C256 C258 1.364 . S
C257 C255 1.374 . S
C257 C256 1.359 . S
C257 H278 0.931 . S
C258 C254 1.389 . S
C258 C256 1.364 . S
C258 H279 0.931 . S
C259 O270 1.256 . S
C259 O271 1.257 . S
O260 Gd240 2.377 . S
O260 C242 1.240 . S
O261 Gd241 2.395 . S
O261 C242 1.240 . S
O262 Gd240 2.448 . S
O262 C243 1.249 . S
O263 Gd240 2.506 . S
O263 C243 1.252 . S
O264 Gd240 2.435 . S
O264 C250 1.256 . S
O265 Gd240 2.717 . S
O265 Gd241 2.327 . S
O265 C250 1.257 . S
O266 Gd241 2.377 . S
O266 C251 1.240 . S
O267 Gd240 2.395 . S
O267 C251 1.240 . S
O268 Gd241 2.448 1_565 S
O268 C252 1.249 . S
O269 Gd241 2.506 1_565 S
O269 C252 1.252 . S
O270 Gd241 2.435 . S
O270 C259 1.256 . S
O271 Gd240 2.327 . S
O271 Gd241 2.717 . S
O271 C259 1.257 . S
H272 C245 0.930 . S
H273 C246 0.931 . S
H274 C248 0.931 . S
H275 C249 0.931 . S
H276 C254 0.930 . S
H277 C255 0.931 . S
H278 C257 0.931 . S
H279 C258 0.931 . S
Gd280 C283 2.818 . S
Gd280 O300 2.377 . S
Gd280 O302 2.448 . S
Gd280 O303 2.506 . S
Gd280 O304 2.435 . S
Gd280 O305 2.717 . S
Gd280 O307 2.395 . S
Gd280 O311 2.327 . S
Gd281 C292 2.818 1_565 S
Gd281 O301 2.395 . S
Gd281 O305 2.327 . S
Gd281 O306 2.377 . S
Gd281 O308 2.448 1_565 S
Gd281 O309 2.506 1_565 S
Gd281 O310 2.435 . S
Gd281 O311 2.717 . S
C282 O300 1.240 . S
C282 O301 1.240 . S
C283 Gd280 2.818 . S
C283 C284 1.510 . S
C283 O302 1.249 . S
C283 O303 1.252 . S
C284 C283 1.510 . S
C284 C285 1.404 . S
C284 C286 1.352 . S
C285 C284 1.404 . S
C285 C289 1.389 . S
C285 H312 0.930 . S
C286 C284 1.352 . S
C286 C288 1.374 . S
C286 H313 0.931 . S
C287 C288 1.359 . S
C287 C289 1.364 . S
C288 C286 1.374 . S
C288 C287 1.359 . S
C288 H314 0.931 . S
C289 C285 1.389 . S
C289 C287 1.364 . S
C289 H315 0.931 . S
C290 O304 1.256 . S
C290 O305 1.257 . S
C291 O306 1.240 . S
C291 O307 1.240 . S
C292 Gd281 2.818 1_545 S
C292 C293 1.510 . S
C292 O308 1.249 . S
C292 O309 1.252 . S
C293 C292 1.510 . S
C293 C294 1.404 . S
C293 C295 1.352 . S
C294 C293 1.404 . S
C294 C298 1.389 . S
C294 H316 0.930 . S
C295 C293 1.352 . S
C295 C297 1.374 . S
C295 H317 0.931 . S
C296 C297 1.359 . S
C296 C298 1.364 . S
C297 C295 1.374 . S
C297 C296 1.359 . S
C297 H318 0.931 . S
C298 C294 1.389 . S
C298 C296 1.364 . S
C298 H319 0.931 . S
C299 O310 1.256 . S
C299 O311 1.257 . S
O300 Gd280 2.377 . S
O300 C282 1.240 . S
O301 Gd281 2.395 . S
O301 C282 1.240 . S
O302 Gd280 2.448 . S
O302 C283 1.249 . S
O303 Gd280 2.506 . S
O303 C283 1.252 . S
O304 Gd280 2.435 . S
O304 C290 1.256 . S
O305 Gd280 2.717 . S
O305 Gd281 2.327 . S
O305 C290 1.257 . S
O306 Gd281 2.377 . S
O306 C291 1.240 . S
O307 Gd280 2.395 . S
O307 C291 1.240 . S
O308 Gd281 2.448 1_545 S
O308 C292 1.249 . S
O309 Gd281 2.506 1_545 S
O309 C292 1.252 . S
O310 Gd281 2.435 . S
O310 C299 1.256 . S
O311 Gd280 2.327 . S
O311 Gd281 2.717 . S
O311 C299 1.257 . S
H312 C285 0.930 . S
H313 C286 0.931 . S
H314 C288 0.931 . S
H315 C289 0.931 . S
H316 C294 0.930 . S
H317 C295 0.931 . S
H318 C297 0.931 . S
H319 C298 0.931 . S
Gd320 C323 2.818 . S
Gd320 O340 2.377 . S
Gd320 O342 2.448 . S
Gd320 O343 2.506 . S
Gd320 O344 2.435 . S
Gd320 O345 2.717 . S
Gd320 O347 2.395 . S
Gd320 O351 2.327 . S
Gd321 C332 2.818 . S
Gd321 O341 2.395 . S
Gd321 O345 2.327 . S
Gd321 O346 2.377 . S
Gd321 O348 2.448 . S
Gd321 O349 2.506 . S
Gd321 O350 2.435 . S
Gd321 O351 2.717 . S
C322 O340 1.240 . S
C322 O341 1.240 . S
C323 Gd320 2.818 . S
C323 C324 1.510 . S
C323 O342 1.249 . S
C323 O343 1.252 . S
C324 C323 1.510 . S
C324 C325 1.404 . S
C324 C326 1.352 . S
C325 C324 1.404 . S
C325 C329 1.389 . S
C325 H352 0.930 . S
C326 C324 1.352 . S
C326 C328 1.374 . S
C326 H353 0.931 . S
C327 C328 1.359 . S
C327 C329 1.364 . S
C328 C326 1.374 . S
C328 C327 1.359 . S
C328 H354 0.931 . S
C329 C325 1.389 . S
C329 C327 1.364 . S
C329 H355 0.931 . S
C330 O344 1.256 . S
C330 O345 1.257 . S
C331 O346 1.240 . S
C331 O347 1.240 . S
C332 Gd321 2.818 . S
C332 C333 1.510 . S
C332 O348 1.249 . S
C332 O349 1.252 . S
C333 C332 1.510 . S
C333 C334 1.404 . S
C333 C335 1.352 . S
C334 C333 1.404 . S
C334 C338 1.389 . S
C334 H356 0.930 . S
C335 C333 1.352 . S
C335 C337 1.374 . S
C335 H357 0.931 . S
C336 C337 1.359 . S
C336 C338 1.364 . S
C337 C335 1.374 . S
C337 C336 1.359 . S
C337 H358 0.931 . S
C338 C334 1.389 . S
C338 C336 1.364 . S
C338 H359 0.931 . S
C339 O350 1.256 . S
C339 O351 1.257 . S
O340 Gd320 2.377 . S
O340 C322 1.240 . S
O341 Gd321 2.395 . S
O341 C322 1.240 . S
O342 Gd320 2.448 . S
O342 C323 1.249 . S
O343 Gd320 2.506 . S
O343 C323 1.252 . S
O344 Gd320 2.435 . S
O344 C330 1.256 . S
O345 Gd320 2.717 . S
O345 Gd321 2.327 . S
O345 C330 1.257 . S
O346 Gd321 2.377 . S
O346 C331 1.240 . S
O347 Gd320 2.395 . S
O347 C331 1.240 . S
O348 Gd321 2.448 . S
O348 C332 1.249 . S
O349 Gd321 2.506 . S
O349 C332 1.252 . S
O350 Gd321 2.435 . S
O350 C339 1.256 . S
O351 Gd320 2.327 . S
O351 Gd321 2.717 . S
O351 C339 1.257 . S
H352 C325 0.930 . S
H353 C326 0.931 . S
H354 C328 0.931 . S
H355 C329 0.931 . S
H356 C334 0.930 . S
H357 C335 0.931 . S
H358 C337 0.931 . S
H359 C338 0.931 . S
Gd360 C363 2.818 . S
Gd360 O380 2.377 . S
Gd360 O382 2.448 . S
Gd360 O383 2.506 . S
Gd360 O384 2.435 . S
Gd360 O385 2.717 . S
Gd360 O387 2.395 . S
Gd360 O391 2.327 . S
Gd361 C372 2.818 . S
Gd361 O381 2.395 . S
Gd361 O385 2.327 . S
Gd361 O386 2.377 . S
Gd361 O388 2.448 . S
Gd361 O389 2.506 . S
Gd361 O390 2.435 . S
Gd361 O391 2.717 . S
C362 O380 1.240 . S
C362 O381 1.240 . S
C363 Gd360 2.818 . S
C363 C364 1.510 . S
C363 O382 1.249 . S
C363 O383 1.252 . S
C364 C363 1.510 . S
C364 C365 1.404 . S
C364 C366 1.352 . S
C365 C364 1.404 . S
C365 C369 1.389 . S
C365 H392 0.930 . S
C366 C364 1.352 . S
C366 C368 1.374 . S
C366 H393 0.931 . S
C367 C368 1.359 . S
C367 C369 1.364 . S
C368 C366 1.374 . S
C368 C367 1.359 . S
C368 H394 0.931 . S
C369 C365 1.389 . S
C369 C367 1.364 . S
C369 H395 0.931 . S
C370 O384 1.256 . S
C370 O385 1.257 . S
C371 O386 1.240 . S
C371 O387 1.240 . S
C372 Gd361 2.818 . S
C372 C373 1.510 . S
C372 O388 1.249 . S
C372 O389 1.252 . S
C373 C372 1.510 . S
C373 C374 1.404 . S
C373 C375 1.352 . S
C374 C373 1.404 . S
C374 C378 1.389 . S
C374 H396 0.930 . S
C375 C373 1.352 . S
C375 C377 1.374 . S
C375 H397 0.931 . S
C376 C377 1.359 . S
C376 C378 1.364 . S
C377 C375 1.374 . S
C377 C376 1.359 . S
C377 H398 0.931 . S
C378 C374 1.389 . S
C378 C376 1.364 . S
C378 H399 0.931 . S
C379 O390 1.256 . S
C379 O391 1.257 . S
O380 Gd360 2.377 . S
O380 C362 1.240 . S
O381 Gd361 2.395 . S
O381 C362 1.240 . S
O382 Gd360 2.448 . S
O382 C363 1.249 . S
O383 Gd360 2.506 . S
O383 C363 1.252 . S
O384 Gd360 2.435 . S
O384 C370 1.256 . S
O385 Gd360 2.717 . S
O385 Gd361 2.327 . S
O385 C370 1.257 . S
O386 Gd361 2.377 . S
O386 C371 1.240 . S
O387 Gd360 2.395 . S
O387 C371 1.240 . S
O388 Gd361 2.448 . S
O388 C372 1.249 . S
O389 Gd361 2.506 . S
O389 C372 1.252 . S
O390 Gd361 2.435 . S
O390 C379 1.256 . S
O391 Gd360 2.327 . S
O391 Gd361 2.717 . S
O391 C379 1.257 . S
H392 C365 0.930 . S
H393 C366 0.931 . S
H394 C368 0.931 . S
H395 C369 0.931 . S
H396 C374 0.930 . S
H397 C375 0.931 . S
H398 C377 0.931 . S
H399 C378 0.931 . S
Gd400 C403 2.818 . S
Gd400 O420 2.377 . S
Gd400 O422 2.448 . S
Gd400 O423 2.506 . S
Gd400 O424 2.435 . S
Gd400 O425 2.717 . S
Gd400 O427 2.395 . S
Gd400 O431 2.327 . S
Gd401 C412 2.818 . S
Gd401 O421 2.395 . S
Gd401 O425 2.327 . S
Gd401 O426 2.377 . S
Gd401 O428 2.448 . S
Gd401 O429 2.506 . S
Gd401 O430 2.435 . S
Gd401 O431 2.717 . S
C402 O420 1.240 . S
C402 O421 1.240 . S
C403 Gd400 2.818 . S
C403 C404 1.510 . S
C403 O422 1.249 . S
C403 O423 1.252 . S
C404 C403 1.510 . S
C404 C405 1.404 . S
C404 C406 1.352 . S
C405 C404 1.404 . S
C405 C409 1.389 . S
C405 H432 0.930 . S
C406 C404 1.352 . S
C406 C408 1.374 . S
C406 H433 0.931 . S
C407 C408 1.359 . S
C407 C409 1.364 . S
C408 C406 1.374 . S
C408 C407 1.359 . S
C408 H434 0.931 . S
C409 C405 1.389 . S
C409 C407 1.364 . S
C409 H435 0.931 . S
C410 O424 1.256 . S
C410 O425 1.257 . S
C411 O426 1.240 . S
C411 O427 1.240 . S
C412 Gd401 2.818 . S
C412 C413 1.510 . S
C412 O428 1.249 . S
C412 O429 1.252 . S
C413 C412 1.510 . S
C413 C414 1.404 . S
C413 C415 1.352 . S
C414 C413 1.404 . S
C414 C418 1.389 . S
C414 H436 0.930 . S
C415 C413 1.352 . S
C415 C417 1.374 . S
C415 H437 0.931 . S
C416 C417 1.359 . S
C416 C418 1.364 . S
C417 C415 1.374 . S
C417 C416 1.359 . S
C417 H438 0.931 . S
C418 C414 1.389 . S
C418 C416 1.364 . S
C418 H439 0.931 . S
C419 O430 1.256 . S
C419 O431 1.257 . S
O420 Gd400 2.377 . S
O420 C402 1.240 . S
O421 Gd401 2.395 . S
O421 C402 1.240 . S
O422 Gd400 2.448 . S
O422 C403 1.249 . S
O423 Gd400 2.506 . S
O423 C403 1.252 . S
O424 Gd400 2.435 . S
O424 C410 1.256 . S
O425 Gd400 2.717 . S
O425 Gd401 2.327 . S
O425 C410 1.257 . S
O426 Gd401 2.377 . S
O426 C411 1.240 . S
O427 Gd400 2.395 . S
O427 C411 1.240 . S
O428 Gd401 2.448 . S
O428 C412 1.249 . S
O429 Gd401 2.506 . S
O429 C412 1.252 . S
O430 Gd401 2.435 . S
O430 C419 1.256 . S
O431 Gd400 2.327 . S
O431 Gd401 2.717 . S
O431 C419 1.257 . S
H432 C405 0.930 . S
H433 C406 0.931 . S
H434 C408 0.931 . S
H435 C409 0.931 . S
H436 C414 0.930 . S
H437 C415 0.931 . S
H438 C417 0.931 . S
H439 C418 0.931 . S
Gd440 C443 2.818 . S
Gd440 O460 2.377 . S
Gd440 O462 2.448 . S
Gd440 O463 2.506 . S
Gd440 O464 2.435 . S
Gd440 O465 2.717 . S
Gd440 O467 2.395 . S
Gd440 O471 2.327 . S
Gd441 C452 2.818 . S
Gd441 O461 2.395 . S
Gd441 O465 2.327 . S
Gd441 O466 2.377 . S
Gd441 O468 2.448 . S
Gd441 O469 2.506 . S
Gd441 O470 2.435 . S
Gd441 O471 2.717 . S
C442 O460 1.240 . S
C442 O461 1.240 . S
C443 Gd440 2.818 . S
C443 C444 1.510 . S
C443 O462 1.249 . S
C443 O463 1.252 . S
C444 C443 1.510 . S
C444 C445 1.404 . S
C444 C446 1.352 . S
C445 C444 1.404 . S
C445 C449 1.389 . S
C445 H472 0.930 . S
C446 C444 1.352 . S
C446 C448 1.374 . S
C446 H473 0.931 . S
C447 C448 1.359 . S
C447 C449 1.364 . S
C448 C446 1.374 . S
C448 C447 1.359 . S
C448 H474 0.931 . S
C449 C445 1.389 . S
C449 C447 1.364 . S
C449 H475 0.931 . S
C450 O464 1.256 . S
C450 O465 1.257 . S
C451 O466 1.240 . S
C451 O467 1.240 . S
C452 Gd441 2.818 . S
C452 C453 1.510 . S
C452 O468 1.249 . S
C452 O469 1.252 . S
C453 C452 1.510 . S
C453 C454 1.404 . S
C453 C455 1.352 . S
C454 C453 1.404 . S
C454 C458 1.389 . S
C454 H476 0.930 . S
C455 C453 1.352 . S
C455 C457 1.374 . S
C455 H477 0.931 . S
C456 C457 1.359 . S
C456 C458 1.364 . S
C457 C455 1.374 . S
C457 C456 1.359 . S
C457 H478 0.931 . S
C458 C454 1.389 . S
C458 C456 1.364 . S
C458 H479 0.931 . S
C459 O470 1.256 . S
C459 O471 1.257 . S
O460 Gd440 2.377 . S
O460 C442 1.240 . S
O461 Gd441 2.395 . S
O461 C442 1.240 . S
O462 Gd440 2.448 . S
O462 C443 1.249 . S
O463 Gd440 2.506 . S
O463 C443 1.252 . S
O464 Gd440 2.435 . S
O464 C450 1.256 . S
O465 Gd440 2.717 . S
O465 Gd441 2.327 . S
O465 C450 1.257 . S
O466 Gd441 2.377 . S
O466 C451 1.240 . S
O467 Gd440 2.395 . S
O467 C451 1.240 . S
O468 Gd441 2.448 . S
O468 C452 1.249 . S
O469 Gd441 2.506 . S
O469 C452 1.252 . S
O470 Gd441 2.435 . S
O470 C459 1.256 . S
O471 Gd440 2.327 . S
O471 Gd441 2.717 . S
O471 C459 1.257 . S
H472 C445 0.930 . S
H473 C446 0.931 . S
H474 C448 0.931 . S
H475 C449 0.931 . S
H476 C454 0.930 . S
H477 C455 0.931 . S
H478 C457 0.931 . S
H479 C458 0.931 . S
Gd480 C483 2.818 . S
Gd480 O500 2.377 . S
Gd480 O502 2.448 . S
Gd480 O503 2.506 . S
Gd480 O504 2.435 . S
Gd480 O505 2.717 . S
Gd480 O507 2.395 . S
Gd480 O511 2.327 . S
Gd481 C492 2.818 . S
Gd481 O501 2.395 . S
Gd481 O505 2.327 . S
Gd481 O506 2.377 . S
Gd481 O508 2.448 . S
Gd481 O509 2.506 . S
Gd481 O510 2.435 . S
Gd481 O511 2.717 . S
C482 O500 1.240 . S
C482 O501 1.240 . S
C483 Gd480 2.818 . S
C483 C484 1.510 . S
C483 O502 1.249 . S
C483 O503 1.252 . S
C484 C483 1.510 . S
C484 C485 1.404 . S
C484 C486 1.352 . S
C485 C484 1.404 . S
C485 C489 1.389 . S
C485 H512 0.930 . S
C486 C484 1.352 . S
C486 C488 1.374 . S
C486 H513 0.931 . S
C487 C488 1.359 . S
C487 C489 1.364 . S
C488 C486 1.374 . S
C488 C487 1.359 . S
C488 H514 0.931 . S
C489 C485 1.389 . S
C489 C487 1.364 . S
C489 H515 0.931 . S
C490 O504 1.256 . S
C490 O505 1.257 . S
C491 O506 1.240 . S
C491 O507 1.240 . S
C492 Gd481 2.818 . S
C492 C493 1.510 . S
C492 O508 1.249 . S
C492 O509 1.252 . S
C493 C492 1.510 . S
C493 C494 1.404 . S
C493 C495 1.352 . S
C494 C493 1.404 . S
C494 C498 1.389 . S
C494 H516 0.930 . S
C495 C493 1.352 . S
C495 C497 1.374 . S
C495 H517 0.931 . S
C496 C497 1.359 . S
C496 C498 1.364 . S
C497 C495 1.374 . S
C497 C496 1.359 . S
C497 H518 0.931 . S
C498 C494 1.389 . S
C498 C496 1.364 . S
C498 H519 0.931 . S
C499 O510 1.256 . S
C499 O511 1.257 . S
O500 Gd480 2.377 . S
O500 C482 1.240 . S
O501 Gd481 2.395 . S
O501 C482 1.240 . S
O502 Gd480 2.448 . S
O502 C483 1.249 . S
O503 Gd480 2.506 . S
O503 C483 1.252 . S
O504 Gd480 2.435 . S
O504 C490 1.256 . S
O505 Gd480 2.717 . S
O505 Gd481 2.327 . S
O505 C490 1.257 . S
O506 Gd481 2.377 . S
O506 C491 1.240 . S
O507 Gd480 2.395 . S
O507 C491 1.240 . S
O508 Gd481 2.448 . S
O508 C492 1.249 . S
O509 Gd481 2.506 . S
O509 C492 1.252 . S
O510 Gd481 2.435 . S
O510 C499 1.256 . S
O511 Gd480 2.327 . S
O511 Gd481 2.717 . S
O511 C499 1.257 . S
H512 C485 0.930 . S
H513 C486 0.931 . S
H514 C488 0.931 . S
H515 C489 0.931 . S
H516 C494 0.930 . S
H517 C495 0.931 . S
H518 C497 0.931 . S
H519 C498 0.931 . S
Gd520 C523 2.818 . S
Gd520 O540 2.377 . S
Gd520 O542 2.448 . S
Gd520 O543 2.506 . S
Gd520 O544 2.435 . S
Gd520 O545 2.717 . S
Gd520 O547 2.395 . S
Gd520 O551 2.327 . S
Gd521 C532 2.818 . S
Gd521 O541 2.395 . S
Gd521 O545 2.327 . S
Gd521 O546 2.377 . S
Gd521 O548 2.448 . S
Gd521 O549 2.506 . S
Gd521 O550 2.435 . S
Gd521 O551 2.717 . S
C522 O540 1.240 . S
C522 O541 1.240 . S
C523 Gd520 2.818 . S
C523 C524 1.510 . S
C523 O542 1.249 . S
C523 O543 1.252 . S
C524 C523 1.510 . S
C524 C525 1.404 . S
C524 C526 1.352 . S
C525 C524 1.404 . S
C525 C529 1.389 . S
C525 H552 0.930 . S
C526 C524 1.352 . S
C526 C528 1.374 . S
C526 H553 0.931 . S
C527 C528 1.359 . S
C527 C529 1.364 . S
C528 C526 1.374 . S
C528 C527 1.359 . S
C528 H554 0.931 . S
C529 C525 1.389 . S
C529 C527 1.364 . S
C529 H555 0.931 . S
C530 O544 1.256 . S
C530 O545 1.257 . S
C531 O546 1.240 . S
C531 O547 1.240 . S
C532 Gd521 2.818 . S
C532 C533 1.510 . S
C532 O548 1.249 . S
C532 O549 1.252 . S
C533 C532 1.510 . S
C533 C534 1.404 . S
C533 C535 1.352 . S
C534 C533 1.404 . S
C534 C538 1.389 . S
C534 H556 0.930 . S
C535 C533 1.352 . S
C535 C537 1.374 . S
C535 H557 0.931 . S
C536 C537 1.359 . S
C536 C538 1.364 . S
C537 C535 1.374 . S
C537 C536 1.359 . S
C537 H558 0.931 . S
C538 C534 1.389 . S
C538 C536 1.364 . S
C538 H559 0.931 . S
C539 O550 1.256 . S
C539 O551 1.257 . S
O540 Gd520 2.377 . S
O540 C522 1.240 . S
O541 Gd521 2.395 . S
O541 C522 1.240 . S
O542 Gd520 2.448 . S
O542 C523 1.249 . S
O543 Gd520 2.506 . S
O543 C523 1.252 . S
O544 Gd520 2.435 . S
O544 C530 1.256 . S
O545 Gd520 2.717 . S
O545 Gd521 2.327 . S
O545 C530 1.257 . S
O546 Gd521 2.377 . S
O546 C531 1.240 . S
O547 Gd520 2.395 . S
O547 C531 1.240 . S
O548 Gd521 2.448 . S
O548 C532 1.249 . S
O549 Gd521 2.506 . S
O549 C532 1.252 . S
O550 Gd521 2.435 . S
O550 C539 1.256 . S
O551 Gd520 2.327 . S
O551 Gd521 2.717 . S
O551 C539 1.257 . S
H552 C525 0.930 . S
H553 C526 0.931 . S
H554 C528 0.931 . S
H555 C529 0.931 . S
H556 C534 0.930 . S
H557 C535 0.931 . S
H558 C537 0.931 . S
H559 C538 0.931 . S
Gd560 C563 2.818 . S
Gd560 O580 2.377 . S
Gd560 O582 2.448 . S
Gd560 O583 2.506 . S
Gd560 O584 2.435 . S
Gd560 O585 2.717 . S
Gd560 O587 2.395 . S
Gd560 O591 2.327 . S
Gd561 C572 2.818 . S
Gd561 O581 2.395 . S
Gd561 O585 2.327 . S
Gd561 O586 2.377 . S
Gd561 O588 2.448 . S
Gd561 O589 2.506 . S
Gd561 O590 2.435 . S
Gd561 O591 2.717 . S
C562 O580 1.240 . S
C562 O581 1.240 . S
C563 Gd560 2.818 . S
C563 C564 1.510 . S
C563 O582 1.249 . S
C563 O583 1.252 . S
C564 C563 1.510 . S
C564 C565 1.404 . S
C564 C566 1.352 . S
C565 C564 1.404 . S
C565 C569 1.389 . S
C565 H592 0.930 . S
C566 C564 1.352 . S
C566 C568 1.374 . S
C566 H593 0.931 . S
C567 C568 1.359 . S
C567 C569 1.364 . S
C568 C566 1.374 . S
C568 C567 1.359 . S
C568 H594 0.931 . S
C569 C565 1.389 . S
C569 C567 1.364 . S
C569 H595 0.931 . S
C570 O584 1.256 . S
C570 O585 1.257 . S
C571 O586 1.240 . S
C571 O587 1.240 . S
C572 Gd561 2.818 . S
C572 C573 1.510 . S
C572 O588 1.249 . S
C572 O589 1.252 . S
C573 C572 1.510 . S
C573 C574 1.404 . S
C573 C575 1.352 . S
C574 C573 1.404 . S
C574 C578 1.389 . S
C574 H596 0.930 . S
C575 C573 1.352 . S
C575 C577 1.374 . S
C575 H597 0.931 . S
C576 C577 1.359 . S
C576 C578 1.364 . S
C577 C575 1.374 . S
C577 C576 1.359 . S
C577 H598 0.931 . S
C578 C574 1.389 . S
C578 C576 1.364 . S
C578 H599 0.931 . S
C579 O590 1.256 . S
C579 O591 1.257 . S
O580 Gd560 2.377 . S
O580 C562 1.240 . S
O581 Gd561 2.395 . S
O581 C562 1.240 . S
O582 Gd560 2.448 . S
O582 C563 1.249 . S
O583 Gd560 2.506 . S
O583 C563 1.252 . S
O584 Gd560 2.435 . S
O584 C570 1.256 . S
O585 Gd560 2.717 . S
O585 Gd561 2.327 . S
O585 C570 1.257 . S
O586 Gd561 2.377 . S
O586 C571 1.240 . S
O587 Gd560 2.395 . S
O587 C571 1.240 . S
O588 Gd561 2.448 . S
O588 C572 1.249 . S
O589 Gd561 2.506 . S
O589 C572 1.252 . S
O590 Gd561 2.435 . S
O590 C579 1.256 . S
O591 Gd560 2.327 . S
O591 Gd561 2.717 . S
O591 C579 1.257 . S
H592 C565 0.930 . S
H593 C566 0.931 . S
H594 C568 0.931 . S
H595 C569 0.931 . S
H596 C574 0.930 . S
H597 C575 0.931 . S
H598 C577 0.931 . S
H599 C578 0.931 . S
Gd600 C603 2.818 . S
Gd600 O620 2.377 . S
Gd600 O622 2.448 . S
Gd600 O623 2.506 . S
Gd600 O624 2.435 . S
Gd600 O625 2.717 . S
Gd600 O627 2.395 . S
Gd600 O631 2.327 . S
Gd601 C612 2.818 . S
Gd601 O621 2.395 . S
Gd601 O625 2.327 . S
Gd601 O626 2.377 . S
Gd601 O628 2.448 . S
Gd601 O629 2.506 . S
Gd601 O630 2.435 . S
Gd601 O631 2.717 . S
C602 O620 1.240 . S
C602 O621 1.240 . S
C603 Gd600 2.818 . S
C603 C604 1.510 . S
C603 O622 1.249 . S
C603 O623 1.252 . S
C604 C603 1.510 . S
C604 C605 1.404 . S
C604 C606 1.352 . S
C605 C604 1.404 . S
C605 C609 1.389 . S
C605 H632 0.930 . S
C606 C604 1.352 . S
C606 C608 1.374 . S
C606 H633 0.931 . S
C607 C608 1.359 . S
C607 C609 1.364 . S
C608 C606 1.374 . S
C608 C607 1.359 . S
C608 H634 0.931 . S
C609 C605 1.389 . S
C609 C607 1.364 . S
C609 H635 0.931 . S
C610 O624 1.256 . S
C610 O625 1.257 . S
C611 O626 1.240 . S
C611 O627 1.240 . S
C612 Gd601 2.818 . S
C612 C613 1.510 . S
C612 O628 1.249 . S
C612 O629 1.252 . S
C613 C612 1.510 . S
C613 C614 1.404 . S
C613 C615 1.352 . S
C614 C613 1.404 . S
C614 C618 1.389 . S
C614 H636 0.930 . S
C615 C613 1.352 . S
C615 C617 1.374 . S
C615 H637 0.931 . S
C616 C617 1.359 . S
C616 C618 1.364 . S
C617 C615 1.374 . S
C617 C616 1.359 . S
C617 H638 0.931 . S
C618 C614 1.389 . S
C618 C616 1.364 . S
C618 H639 0.931 . S
C619 O630 1.256 . S
C619 O631 1.257 . S
O620 Gd600 2.377 . S
O620 C602 1.240 . S
O621 Gd601 2.395 . S
O621 C602 1.240 . S
O622 Gd600 2.448 . S
O622 C603 1.249 . S
O623 Gd600 2.506 . S
O623 C603 1.252 . S
O624 Gd600 2.435 . S
O624 C610 1.256 . S
O625 Gd600 2.717 . S
O625 Gd601 2.327 . S
O625 C610 1.257 . S
O626 Gd601 2.377 . S
O626 C611 1.240 . S
O627 Gd600 2.395 . S
O627 C611 1.240 . S
O628 Gd601 2.448 . S
O628 C612 1.249 . S
O629 Gd601 2.506 . S
O629 C612 1.252 . S
O630 Gd601 2.435 . S
O630 C619 1.256 . S
O631 Gd600 2.327 . S
O631 Gd601 2.717 . S
O631 C619 1.257 . S
H632 C605 0.930 . S
H633 C606 0.931 . S
H634 C608 0.931 . S
H635 C609 0.931 . S
H636 C614 0.930 . S
H637 C615 0.931 . S
H638 C617 0.931 . S
H639 C618 0.931 . S
C640 C641 1.391 . S
C640 C642 1.394 . S
C640 H656 0.931 . S
C641 C640 1.391 . S
C641 C645 1.376 . S
C642 C640 1.394 . S
C642 C643 1.369 . S
C642 C646 1.531 . S
C643 C642 1.369 . S
C643 C644 1.410 . S
C643 C651 1.503 . S
C644 C643 1.410 . S
C644 C645 1.392 . S
C644 C647 1.511 . S
C645 C641 1.376 . S
C645 C644 1.392 . S
C645 H657 0.929 . S
C646 C642 1.531 . S
C646 H658 0.960 . S
C646 H659 0.962 . S
C646 H660 0.960 . S
C647 C644 1.511 . S
C647 H661 0.961 . S
C647 H662 0.961 . S
C647 H663 0.961 . S
C648 C649 1.370 . S
C648 C650 1.363 . S
C648 H664 0.931 . S
C649 C648 1.370 . S
C649 C653 1.408 . S
C650 C648 1.363 . S
C650 C651 1.370 . S
C650 C654 1.524 . S
C651 C643 1.503 . S
C651 C650 1.370 . S
C651 C652 1.403 . S
C652 C651 1.403 . S
C652 C653 1.404 . S
C652 C655 1.539 . S
C653 C649 1.408 . S
C653 C652 1.404 . S
C653 H665 0.930 . S
C654 C650 1.524 . S
C654 H666 0.956 . S
C654 H667 0.961 . S
C654 H668 0.961 . S
C655 C652 1.539 . S
C655 H669 0.958 . S
C655 H670 0.961 . S
C655 H671 0.960 . S
H656 C640 0.931 . S
H657 C645 0.929 . S
H658 C646 0.960 . S
H659 C646 0.962 . S
H660 C646 0.960 . S
H661 C647 0.961 . S
H662 C647 0.961 . S
H663 C647 0.961 . S
H664 C648 0.931 . S
H665 C653 0.930 . S
H666 C654 0.956 . S
H667 C654 0.961 . S
H668 C654 0.961 . S
H669 C655 0.958 . S
H670 C655 0.961 . S
H671 C655 0.960 . S
C672 C673 1.391 . S
C672 C674 1.394 . S
C672 H688 0.931 . S
C673 C672 1.391 . S
C673 C677 1.376 . S
C674 C672 1.394 . S
C674 C675 1.369 . S
C674 C678 1.531 . S
C675 C674 1.369 . S
C675 C676 1.410 . S
C675 C683 1.503 . S
C676 C675 1.410 . S
C676 C677 1.392 . S
C676 C679 1.511 . S
C677 C673 1.376 . S
C677 C676 1.392 . S
C677 H689 0.929 . S
C678 C674 1.531 . S
C678 H690 0.960 . S
C678 H691 0.962 . S
C678 H692 0.960 . S
C679 C676 1.511 . S
C679 H693 0.961 . S
C679 H694 0.961 . S
C679 H695 0.961 . S
C680 C681 1.370 . S
C680 C682 1.363 . S
C680 H696 0.931 . S
C681 C680 1.370 . S
C681 C685 1.408 . S
C682 C680 1.363 . S
C682 C683 1.370 . S
C682 C686 1.524 . S
C683 C675 1.503 . S
C683 C682 1.370 . S
C683 C684 1.403 . S
C684 C683 1.403 . S
C684 C685 1.404 . S
C684 C687 1.539 . S
C685 C681 1.408 . S
C685 C684 1.404 . S
C685 H697 0.930 . S
C686 C682 1.524 . S
C686 H698 0.956 . S
C686 H699 0.961 . S
C686 H700 0.961 . S
C687 C684 1.539 . S
C687 H701 0.958 . S
C687 H702 0.961 . S
C687 H703 0.960 . S
H688 C672 0.931 . S
H689 C677 0.929 . S
H690 C678 0.960 . S
H691 C678 0.962 . S
H692 C678 0.960 . S
H693 C679 0.961 . S
H694 C679 0.961 . S
H695 C679 0.961 . S
H696 C680 0.931 . S
H697 C685 0.930 . S
H698 C686 0.956 . S
H699 C686 0.961 . S
H700 C686 0.961 . S
H701 C687 0.958 . S
H702 C687 0.961 . S
H703 C687 0.960 . S
C704 C705 1.391 . S
C704 C706 1.394 . S
C704 H720 0.931 . S
C705 C704 1.391 . S
C705 C709 1.376 . S
C706 C704 1.394 . S
C706 C707 1.369 . S
C706 C710 1.531 . S
C707 C706 1.369 . S
C707 C708 1.410 . S
C707 C715 1.503 . S
C708 C707 1.410 . S
C708 C709 1.392 . S
C708 C711 1.511 . S
C709 C705 1.376 . S
C709 C708 1.392 . S
C709 H721 0.929 . S
C710 C706 1.531 . S
C710 H722 0.960 . S
C710 H723 0.962 . S
C710 H724 0.960 . S
C711 C708 1.511 . S
C711 H725 0.961 . S
C711 H726 0.961 . S
C711 H727 0.961 . S
C712 C713 1.370 . S
C712 C714 1.363 . S
C712 H728 0.931 . S
C713 C712 1.370 . S
C713 C717 1.408 . S
C714 C712 1.363 . S
C714 C715 1.370 . S
C714 C718 1.524 . S
C715 C707 1.503 . S
C715 C714 1.370 . S
C715 C716 1.403 . S
C716 C715 1.403 . S
C716 C717 1.404 . S
C716 C719 1.539 . S
C717 C713 1.408 . S
C717 C716 1.404 . S
C717 H729 0.930 . S
C718 C714 1.524 . S
C718 H730 0.956 . S
C718 H731 0.961 . S
C718 H732 0.961 . S
C719 C716 1.539 . S
C719 H733 0.958 . S
C719 H734 0.961 . S
C719 H735 0.960 . S
H720 C704 0.931 . S
H721 C709 0.929 . S
H722 C710 0.960 . S
H723 C710 0.962 . S
H724 C710 0.960 . S
H725 C711 0.961 . S
H726 C711 0.961 . S
H727 C711 0.961 . S
H728 C712 0.931 . S
H729 C717 0.930 . S
H730 C718 0.956 . S
H731 C718 0.961 . S
H732 C718 0.961 . S
H733 C719 0.958 . S
H734 C719 0.961 . S
H735 C719 0.960 . S
C736 C737 1.391 . S
C736 C738 1.394 . S
C736 H752 0.931 . S
C737 C736 1.391 . S
C737 C741 1.376 . S
C738 C736 1.394 . S
C738 C739 1.369 . S
C738 C742 1.531 . S
C739 C738 1.369 . S
C739 C740 1.410 . S
C739 C747 1.503 . S
C740 C739 1.410 . S
C740 C741 1.392 . S
C740 C743 1.511 . S
C741 C737 1.376 . S
C741 C740 1.392 . S
C741 H753 0.929 . S
C742 C738 1.531 . S
C742 H754 0.960 . S
C742 H755 0.962 . S
C742 H756 0.960 . S
C743 C740 1.511 . S
C743 H757 0.961 . S
C743 H758 0.961 . S
C743 H759 0.961 . S
C744 C745 1.370 . S
C744 C746 1.363 . S
C744 H760 0.931 . S
C745 C744 1.370 . S
C745 C749 1.408 . S
C746 C744 1.363 . S
C746 C747 1.370 . S
C746 C750 1.524 . S
C747 C739 1.503 . S
C747 C746 1.370 . S
C747 C748 1.403 . S
C748 C747 1.403 . S
C748 C749 1.404 . S
C748 C751 1.539 . S
C749 C745 1.408 . S
C749 C748 1.404 . S
C749 H761 0.930 . S
C750 C746 1.524 . S
C750 H762 0.956 . S
C750 H763 0.961 . S
C750 H764 0.961 . S
C751 C748 1.539 . S
C751 H765 0.958 . S
C751 H766 0.961 . S
C751 H767 0.960 . S
H752 C736 0.931 . S
H753 C741 0.929 . S
H754 C742 0.960 . S
H755 C742 0.962 . S
H756 C742 0.960 . S
H757 C743 0.961 . S
H758 C743 0.961 . S
H759 C743 0.961 . S
H760 C744 0.931 . S
H761 C749 0.930 . S
H762 C750 0.956 . S
H763 C750 0.961 . S
H764 C750 0.961 . S
H765 C751 0.958 . S
H766 C751 0.961 . S
H767 C751 0.960 . S
C768 C769 1.391 . S
C768 C770 1.394 . S
C768 H784 0.931 . S
C769 C768 1.391 . S
C769 C773 1.376 . S
C770 C768 1.394 . S
C770 C771 1.369 . S
C770 C774 1.531 . S
C771 C770 1.369 . S
C771 C772 1.410 . S
C771 C779 1.503 . S
C772 C771 1.410 . S
C772 C773 1.392 . S
C772 C775 1.511 . S
C773 C769 1.376 . S
C773 C772 1.392 . S
C773 H785 0.929 . S
C774 C770 1.531 . S
C774 H786 0.960 . S
C774 H787 0.962 . S
C774 H788 0.960 . S
C775 C772 1.511 . S
C775 H789 0.961 . S
C775 H790 0.961 . S
C775 H791 0.961 . S
C776 C777 1.370 . S
C776 C778 1.363 . S
C776 H792 0.931 . S
C777 C776 1.370 . S
C777 C781 1.408 . S
C778 C776 1.363 . S
C778 C779 1.370 . S
C778 C782 1.524 . S
C779 C771 1.503 . S
C779 C778 1.370 . S
C779 C780 1.403 . S
C780 C779 1.403 . S
C780 C781 1.404 . S
C780 C783 1.539 . S
C781 C777 1.408 . S
C781 C780 1.404 . S
C781 H793 0.930 . S
C782 C778 1.524 . S
C782 H794 0.956 . S
C782 H795 0.961 . S
C782 H796 0.961 . S
C783 C780 1.539 . S
C783 H797 0.958 . S
C783 H798 0.961 . S
C783 H799 0.960 . S
H784 C768 0.931 . S
H785 C773 0.929 . S
H786 C774 0.960 . S
H787 C774 0.962 . S
H788 C774 0.960 . S
H789 C775 0.961 . S
H790 C775 0.961 . S
H791 C775 0.961 . S
H792 C776 0.931 . S
H793 C781 0.930 . S
H794 C782 0.956 . S
H795 C782 0.961 . S
H796 C782 0.961 . S
H797 C783 0.958 . S
H798 C783 0.961 . S
H799 C783 0.960 . S
C800 C801 1.391 . S
C800 C802 1.394 . S
C800 H816 0.931 . S
C801 C800 1.391 . S
C801 C805 1.376 . S
C802 C800 1.394 . S
C802 C803 1.369 . S
C802 C806 1.531 . S
C803 C802 1.369 . S
C803 C804 1.410 . S
C803 C811 1.503 . S
C804 C803 1.410 . S
C804 C805 1.392 . S
C804 C807 1.511 . S
C805 C801 1.376 . S
C805 C804 1.392 . S
C805 H817 0.929 . S
C806 C802 1.531 . S
C806 H818 0.960 . S
C806 H819 0.962 . S
C806 H820 0.960 . S
C807 C804 1.511 . S
C807 H821 0.961 . S
C807 H822 0.961 . S
C807 H823 0.961 . S
C808 C809 1.370 . S
C808 C810 1.363 . S
C808 H824 0.931 . S
C809 C808 1.370 . S
C809 C813 1.408 . S
C810 C808 1.363 . S
C810 C811 1.370 . S
C810 C814 1.524 . S
C811 C803 1.503 . S
C811 C810 1.370 . S
C811 C812 1.403 . S
C812 C811 1.403 . S
C812 C813 1.404 . S
C812 C815 1.539 . S
C813 C809 1.408 . S
C813 C812 1.404 . S
C813 H825 0.930 . S
C814 C810 1.524 . S
C814 H826 0.956 . S
C814 H827 0.961 . S
C814 H828 0.961 . S
C815 C812 1.539 . S
C815 H829 0.958 . S
C815 H830 0.961 . S
C815 H831 0.960 . S
H816 C800 0.931 . S
H817 C805 0.929 . S
H818 C806 0.960 . S
H819 C806 0.962 . S
H820 C806 0.960 . S
H821 C807 0.961 . S
H822 C807 0.961 . S
H823 C807 0.961 . S
H824 C808 0.931 . S
H825 C813 0.930 . S
H826 C814 0.956 . S
H827 C814 0.961 . S
H828 C814 0.961 . S
H829 C815 0.958 . S
H830 C815 0.961 . S
H831 C815 0.960 . S
C832 C833 1.391 . S
C832 C834 1.394 . S
C832 H848 0.931 . S
C833 C832 1.391 . S
C833 C837 1.376 . S
C834 C832 1.394 . S
C834 C835 1.369 . S
C834 C838 1.531 . S
C835 C834 1.369 . S
C835 C836 1.410 . S
C835 C843 1.503 . S
C836 C835 1.410 . S
C836 C837 1.392 . S
C836 C839 1.511 . S
C837 C833 1.376 . S
C837 C836 1.392 . S
C837 H849 0.929 . S
C838 C834 1.531 . S
C838 H850 0.960 . S
C838 H851 0.962 . S
C838 H852 0.960 . S
C839 C836 1.511 . S
C839 H853 0.961 . S
C839 H854 0.961 . S
C839 H855 0.961 . S
C840 C841 1.370 . S
C840 C842 1.363 . S
C840 H856 0.931 . S
C841 C840 1.370 . S
C841 C845 1.408 . S
C842 C840 1.363 . S
C842 C843 1.370 . S
C842 C846 1.524 . S
C843 C835 1.503 . S
C843 C842 1.370 . S
C843 C844 1.403 . S
C844 C843 1.403 . S
C844 C845 1.404 . S
C844 C847 1.539 . S
C845 C841 1.408 . S
C845 C844 1.404 . S
C845 H857 0.930 . S
C846 C842 1.524 . S
C846 H858 0.956 . S
C846 H859 0.961 . S
C846 H860 0.961 . S
C847 C844 1.539 . S
C847 H861 0.958 . S
C847 H862 0.961 . S
C847 H863 0.960 . S
H848 C832 0.931 . S
H849 C837 0.929 . S
H850 C838 0.960 . S
H851 C838 0.962 . S
H852 C838 0.960 . S
H853 C839 0.961 . S
H854 C839 0.961 . S
H855 C839 0.961 . S
H856 C840 0.931 . S
H857 C845 0.930 . S
H858 C846 0.956 . S
H859 C846 0.961 . S
H860 C846 0.961 . S
H861 C847 0.958 . S
H862 C847 0.961 . S
H863 C847 0.960 . S
C864 C865 1.391 . S
C864 C866 1.394 . S
C864 H880 0.931 . S
C865 C864 1.391 . S
C865 C869 1.376 . S
C866 C864 1.394 . S
C866 C867 1.369 . S
C866 C870 1.531 . S
C867 C866 1.369 . S
C867 C868 1.410 . S
C867 C875 1.503 . S
C868 C867 1.410 . S
C868 C869 1.392 . S
C868 C871 1.511 . S
C869 C865 1.376 . S
C869 C868 1.392 . S
C869 H881 0.929 . S
C870 C866 1.531 . S
C870 H882 0.960 . S
C870 H883 0.962 . S
C870 H884 0.960 . S
C871 C868 1.511 . S
C871 H885 0.961 . S
C871 H886 0.961 . S
C871 H887 0.961 . S
C872 C873 1.370 . S
C872 C874 1.363 . S
C872 H888 0.931 . S
C873 C872 1.370 . S
C873 C877 1.408 . S
C874 C872 1.363 . S
C874 C875 1.370 . S
C874 C878 1.524 . S
C875 C867 1.503 . S
C875 C874 1.370 . S
C875 C876 1.403 . S
C876 C875 1.403 . S
C876 C877 1.404 . S
C876 C879 1.539 . S
C877 C873 1.408 . S
C877 C876 1.404 . S
C877 H889 0.930 . S
C878 C874 1.524 . S
C878 H890 0.956 . S
C878 H891 0.961 . S
C878 H892 0.961 . S
C879 C876 1.539 . S
C879 H893 0.958 . S
C879 H894 0.961 . S
C879 H895 0.960 . S
H880 C864 0.931 . S
H881 C869 0.929 . S
H882 C870 0.960 . S
H883 C870 0.962 . S
H884 C870 0.960 . S
H885 C871 0.961 . S
H886 C871 0.961 . S
H887 C871 0.961 . S
H888 C872 0.931 . S
H889 C877 0.930 . S
H890 C878 0.956 . S
H891 C878 0.961 . S
H892 C878 0.961 . S
H893 C879 0.958 . S
H894 C879 0.961 . S
H895 C879 0.960 . S
C896 C897 1.391 . S
C896 C898 1.394 . S
C896 H912 0.931 . S
C897 C896 1.391 . S
C897 C901 1.376 . S
C898 C896 1.394 . S
C898 C899 1.369 . S
C898 C902 1.531 . S
C899 C898 1.369 . S
C899 C900 1.410 . S
C899 C907 1.503 1_565 S
C900 C899 1.410 . S
C900 C901 1.392 . S
C900 C903 1.511 1_565 S
C901 C897 1.376 . S
C901 C900 1.392 . S
C901 H913 0.929 . S
C902 C898 1.531 . S
C902 H914 0.960 . S
C902 H915 0.962 . S
C902 H916 0.960 . S
C903 C900 1.511 1_545 S
C903 H917 0.961 . S
C903 H918 0.961 . S
C903 H919 0.961 . S
C904 C905 1.370 . S
C904 C906 1.363 . S
C904 H920 0.931 . S
C905 C904 1.370 . S
C905 C909 1.408 . S
C906 C904 1.363 . S
C906 C907 1.370 . S
C906 C910 1.524 . S
C907 C899 1.503 1_545 S
C907 C906 1.370 . S
C907 C908 1.403 1_545 S
C908 C907 1.403 1_565 S
C908 C909 1.404 1_565 S
C908 C911 1.539 . S
C909 C905 1.408 . S
C909 C908 1.404 1_545 S
C909 H921 0.930 . S
C910 C906 1.524 . S
C910 H922 0.956 . S
C910 H923 0.961 . S
C910 H924 0.961 . S
C911 C908 1.539 . S
C911 H925 0.958 . S
C911 H926 0.961 . S
C911 H927 0.960 . S
H912 C896 0.931 . S
H913 C901 0.929 . S
H914 C902 0.960 . S
H915 C902 0.962 . S
H916 C902 0.960 . S
H917 C903 0.961 . S
H918 C903 0.961 . S
H919 C903 0.961 . S
H920 C904 0.931 . S
H921 C909 0.930 . S
H922 C910 0.956 . S
H923 C910 0.961 . S
H924 C910 0.961 . S
H925 C911 0.958 . S
H926 C911 0.961 . S
H927 C911 0.960 . S
C928 C929 1.391 . S
C928 C930 1.394 1_545 S
C928 H944 0.931 . S
C929 C928 1.391 . S
C929 C933 1.376 . S
C930 C928 1.394 1_565 S
C930 C931 1.369 1_565 S
C930 C934 1.531 . S
C931 C930 1.369 1_545 S
C931 C932 1.410 . S
C931 C939 1.503 1_545 S
C932 C931 1.410 . S
C932 C933 1.392 . S
C932 C935 1.511 . S
C933 C929 1.376 . S
C933 C932 1.392 . S
C933 H945 0.929 . S
C934 C930 1.531 . S
C934 H946 0.960 . S
C934 H947 0.962 . S
C934 H948 0.960 . S
C935 C932 1.511 . S
C935 H949 0.961 . S
C935 H950 0.961 . S
C935 H951 0.961 . S
C936 C937 1.370 . S
C936 C938 1.366 . S
C936 H952 0.931 . S
C937 C936 1.370 . S
C937 C941 1.408 . S
C938 C936 1.366 . S
C938 C939 1.373 . S
C938 C942 1.518 1_565 S
C939 C931 1.503 1_565 S
C939 C938 1.373 . S
C939 C940 1.403 . S
C940 C939 1.403 . S
C940 C941 1.404 . S
C940 C943 1.539 . S
C941 C937 1.408 . S
C941 C940 1.404 . S
C941 H953 0.930 . S
C942 C938 1.518 1_545 S
C942 H954 0.956 . S
C942 H955 0.961 . S
C942 H956 0.961 . S
C943 C940 1.539 . S
C943 H957 0.958 . S
C943 H958 0.961 . S
C943 H959 0.960 . S
H944 C928 0.931 . S
H945 C933 0.929 . S
H946 C934 0.960 . S
H947 C934 0.962 . S
H948 C934 0.960 . S
H949 C935 0.961 . S
H950 C935 0.961 . S
H951 C935 0.961 . S
H952 C936 0.931 . S
H953 C941 0.930 . S
H954 C942 0.956 . S
H955 C942 0.961 . S
H956 C942 0.961 . S
H957 C943 0.958 . S
H958 C943 0.961 . S
H959 C943 0.960 . S
C960 C961 1.391 . S
C960 C962 1.394 . S
C960 H976 0.931 . S
C961 C960 1.391 . S
C961 C965 1.376 . S
C962 C960 1.394 . S
C962 C963 1.369 . S
C962 C966 1.531 . S
C963 C962 1.369 . S
C963 C964 1.410 . S
C963 C971 1.503 1_545 S
C964 C963 1.410 . S
C964 C965 1.392 . S
C964 C967 1.511 . S
C965 C961 1.376 . S
C965 C964 1.392 . S
C965 H977 0.929 . S
C966 C962 1.531 . S
C966 H978 0.960 . S
C966 H979 0.962 . S
C966 H980 0.960 . S
C967 C964 1.511 . S
C967 H981 0.961 . S
C967 H982 0.961 1_545 S
C967 H983 0.961 . S
C968 C969 1.370 . S
C968 C970 1.363 . S
C968 H984 0.931 . S
C969 C968 1.370 . S
C969 C973 1.408 . S
C970 C968 1.363 . S
C970 C971 1.370 . S
C970 C974 1.524 . S
C971 C963 1.503 1_565 S
C971 C970 1.370 . S
C971 C972 1.403 1_565 S
C972 C971 1.403 1_545 S
C972 C973 1.404 1_545 S
C972 C975 1.539 . S
C973 C969 1.408 . S
C973 C972 1.404 1_565 S
C973 H985 0.930 1_565 S
C974 C970 1.524 . S
C974 H986 0.956 . S
C974 H987 0.961 . S
C974 H988 0.961 . S
C975 C972 1.539 . S
C975 H989 0.958 . S
C975 H990 0.961 . S
C975 H991 0.960 . S
H976 C960 0.931 . S
H977 C965 0.929 . S
H978 C966 0.960 . S
H979 C966 0.962 . S
H980 C966 0.960 . S
H981 C967 0.961 . S
H982 C967 0.961 1_565 S
H983 C967 0.961 . S
H984 C968 0.931 . S
H985 C973 0.930 1_545 S
H986 C974 0.956 . S
H987 C974 0.961 . S
H988 C974 0.961 . S
H989 C975 0.958 . S
H990 C975 0.961 . S
H991 C975 0.960 . S
C992 C993 1.391 . S
C992 C994 1.394 1_545 S
C992 H1008 0.931 . S
C993 C992 1.391 . S
C993 C997 1.376 . S
C994 C992 1.394 1_565 S
C994 C995 1.369 1_565 S
C994 C998 1.531 . S
C995 C994 1.369 1_545 S
C995 C996 1.410 . S
C995 C1003 1.503 1_545 S
C996 C995 1.410 . S
C996 C997 1.392 . S
C996 C999 1.511 . S
C997 C993 1.376 . S
C997 C996 1.392 . S
C997 H1009 0.929 . S
C998 C994 1.531 . S
C998 H1010 0.960 . S
C998 H1011 0.962 . S
C998 H1012 0.960 . S
C999 C996 1.511 . S
C999 H1013 0.961 . S
C999 H1014 0.961 . S
C999 H1015 0.961 . S
C1000 C1001 1.370 . S
C1000 C1002 1.363 . S
C1000 H1016 0.931 . S
C1001 C1000 1.370 . S
C1001 C1005 1.408 . S
C1002 C1000 1.363 . S
C1002 C1003 1.370 . S
C1002 C1006 1.524 1_565 S
C1003 C995 1.503 1_565 S
C1003 C1002 1.370 . S
C1003 C1004 1.403 . S
C1004 C1003 1.403 . S
C1004 C1005 1.404 . S
C1004 C1007 1.539 . S
C1005 C1001 1.408 . S
C1005 C1004 1.404 . S
C1005 H1017 0.930 . S
C1006 C1002 1.524 1_545 S
C1006 H1018 0.956 . S
C1006 H1019 0.961 . S
C1006 H1020 0.961 . S
C1007 C1004 1.539 . S
C1007 H1021 0.958 . S
C1007 H1022 0.961 . S
C1007 H1023 0.960 . S
H1008 C992 0.931 . S
H1009 C997 0.929 . S
H1010 C998 0.960 . S
H1011 C998 0.962 . S
H1012 C998 0.960 . S
H1013 C999 0.961 . S
H1014 C999 0.961 . S
H1015 C999 0.961 . S
H1016 C1000 0.931 . S
H1017 C1005 0.930 . S
H1018 C1006 0.956 . S
H1019 C1006 0.961 . S
H1020 C1006 0.961 . S
H1021 C1007 0.958 . S
H1022 C1007 0.961 . S
H1023 C1007 0.960 . S
C1024 C1025 1.391 . S
C1024 C1026 1.394 . S
C1024 H1040 0.931 . S
C1025 C1024 1.391 . S
C1025 C1029 1.376 . S
C1026 C1024 1.394 . S
C1026 C1027 1.369 . S
C1026 C1030 1.531 . S
C1027 C1026 1.369 . S
C1027 C1028 1.410 . S
C1027 C1035 1.503 . S
C1028 C1027 1.410 . S
C1028 C1029 1.392 . S
C1028 C1031 1.511 . S
C1029 C1025 1.376 . S
C1029 C1028 1.392 . S
C1029 H1041 0.929 . S
C1030 C1026 1.531 . S
C1030 H1042 0.960 . S
C1030 H1043 0.962 . S
C1030 H1044 0.960 . S
C1031 C1028 1.511 . S
C1031 H1045 0.961 . S
C1031 H1046 0.961 . S
C1031 H1047 0.961 . S
C1032 C1033 1.370 . S
C1032 C1034 1.363 . S
C1032 H1048 0.931 . S
C1033 C1032 1.370 . S
C1033 C1037 1.408 . S
C1034 C1032 1.363 . S
C1034 C1035 1.370 . S
C1034 C1038 1.524 . S
C1035 C1027 1.503 . S
C1035 C1034 1.370 . S
C1035 C1036 1.403 . S
C1036 C1035 1.403 . S
C1036 C1037 1.404 . S
C1036 C1039 1.539 . S
C1037 C1033 1.408 . S
C1037 C1036 1.404 . S
C1037 H1049 0.930 . S
C1038 C1034 1.524 . S
C1038 H1050 0.956 . S
C1038 H1051 0.961 . S
C1038 H1052 0.961 . S
C1039 C1036 1.539 . S
C1039 H1053 0.958 . S
C1039 H1054 0.961 . S
C1039 H1055 0.960 . S
H1040 C1024 0.931 . S
H1041 C1029 0.929 . S
H1042 C1030 0.960 . S
H1043 C1030 0.962 . S
H1044 C1030 0.960 . S
H1045 C1031 0.961 . S
H1046 C1031 0.961 . S
H1047 C1031 0.961 . S
H1048 C1032 0.931 . S
H1049 C1037 0.930 . S
H1050 C1038 0.956 . S
H1051 C1038 0.961 . S
H1052 C1038 0.961 . S
H1053 C1039 0.958 . S
H1054 C1039 0.961 . S
H1055 C1039 0.960 . S
C1056 C1057 1.391 . S
C1056 C1058 1.394 . S
C1056 H1072 0.931 . S
C1057 C1056 1.391 . S
C1057 C1061 1.376 . S
C1058 C1056 1.394 . S
C1058 C1059 1.369 . S
C1058 C1062 1.531 . S
C1059 C1058 1.369 . S
C1059 C1060 1.410 . S
C1059 C1067 1.503 . S
C1060 C1059 1.410 . S
C1060 C1061 1.392 . S
C1060 C1063 1.511 . S
C1061 C1057 1.376 . S
C1061 C1060 1.392 . S
C1061 H1073 0.929 . S
C1062 C1058 1.531 . S
C1062 H1074 0.960 . S
C1062 H1075 0.962 . S
C1062 H1076 0.960 . S
C1063 C1060 1.511 . S
C1063 H1077 0.961 . S
C1063 H1078 0.961 . S
C1063 H1079 0.961 . S
C1064 C1065 1.370 . S
C1064 C1066 1.363 . S
C1064 H1080 0.931 . S
C1065 C1064 1.370 . S
C1065 C1069 1.408 . S
C1066 C1064 1.363 . S
C1066 C1067 1.370 . S
C1066 C1070 1.524 . S
C1067 C1059 1.503 . S
C1067 C1066 1.370 . S
C1067 C1068 1.403 . S
C1068 C1067 1.403 . S
C1068 C1069 1.404 . S
C1068 C1071 1.539 . S
C1069 C1065 1.408 . S
C1069 C1068 1.404 . S
C1069 H1081 0.930 . S
C1070 C1066 1.524 . S
C1070 H1082 0.956 . S
C1070 H1083 0.961 . S
C1070 H1084 0.961 . S
C1071 C1068 1.539 . S
C1071 H1085 0.958 . S
C1071 H1086 0.961 . S
C1071 H1087 0.960 . S
H1072 C1056 0.931 . S
H1073 C1061 0.929 . S
H1074 C1062 0.960 . S
H1075 C1062 0.962 . S
H1076 C1062 0.960 . S
H1077 C1063 0.961 . S
H1078 C1063 0.961 . S
H1079 C1063 0.961 . S
H1080 C1064 0.931 . S
H1081 C1069 0.930 . S
H1082 C1070 0.956 . S
H1083 C1070 0.961 . S
H1084 C1070 0.961 . S
H1085 C1071 0.958 . S
H1086 C1071 0.961 . S
H1087 C1071 0.960 . S
C1088 C1089 1.391 . S
C1088 C1090 1.394 . S
C1088 H1104 0.931 . S
C1089 C1088 1.391 . S
C1089 C1093 1.376 . S
C1090 C1088 1.394 . S
C1090 C1091 1.369 . S
C1090 C1094 1.531 . S
C1091 C1090 1.369 . S
C1091 C1092 1.410 . S
C1091 C1099 1.503 . S
C1092 C1091 1.410 . S
C1092 C1093 1.392 . S
C1092 C1095 1.511 . S
C1093 C1089 1.376 . S
C1093 C1092 1.392 . S
C1093 H1105 0.929 . S
C1094 C1090 1.531 . S
C1094 H1106 0.960 . S
C1094 H1107 0.962 . S
C1094 H1108 0.960 . S
C1095 C1092 1.511 . S
C1095 H1109 0.961 . S
C1095 H1110 0.961 . S
C1095 H1111 0.961 . S
C1096 C1097 1.370 . S
C1096 C1098 1.363 . S
C1096 H1112 0.931 . S
C1097 C1096 1.370 . S
C1097 C1101 1.408 . S
C1098 C1096 1.363 . S
C1098 C1099 1.370 . S
C1098 C1102 1.524 . S
C1099 C1091 1.503 . S
C1099 C1098 1.370 . S
C1099 C1100 1.403 . S
C1100 C1099 1.403 . S
C1100 C1101 1.404 . S
C1100 C1103 1.539 . S
C1101 C1097 1.408 . S
C1101 C1100 1.404 . S
C1101 H1113 0.930 . S
C1102 C1098 1.524 . S
C1102 H1114 0.956 . S
C1102 H1115 0.961 . S
C1102 H1116 0.961 . S
C1103 C1100 1.539 . S
C1103 H1117 0.958 . S
C1103 H1118 0.961 . S
C1103 H1119 0.960 . S
H1104 C1088 0.931 . S
H1105 C1093 0.929 . S
H1106 C1094 0.960 . S
H1107 C1094 0.962 . S
H1108 C1094 0.960 . S
H1109 C1095 0.961 . S
H1110 C1095 0.961 . S
H1111 C1095 0.961 . S
H1112 C1096 0.931 . S
H1113 C1101 0.930 . S
H1114 C1102 0.956 . S
H1115 C1102 0.961 . S
H1116 C1102 0.961 . S
H1117 C1103 0.958 . S
H1118 C1103 0.961 . S
H1119 C1103 0.960 . S
C1120 C1121 1.391 . S
C1120 C1122 1.394 . S
C1120 H1136 0.931 . S
C1121 C1120 1.391 . S
C1121 C1125 1.376 . S
C1122 C1120 1.394 . S
C1122 C1123 1.369 . S
C1122 C1126 1.531 . S
C1123 C1122 1.369 . S
C1123 C1124 1.410 . S
C1123 C1131 1.503 . S
C1124 C1123 1.410 . S
C1124 C1125 1.392 . S
C1124 C1127 1.511 . S
C1125 C1121 1.376 . S
C1125 C1124 1.392 . S
C1125 H1137 0.929 . S
C1126 C1122 1.531 . S
C1126 H1138 0.960 . S
C1126 H1139 0.962 . S
C1126 H1140 0.960 . S
C1127 C1124 1.511 . S
C1127 H1141 0.961 . S
C1127 H1142 0.961 . S
C1127 H1143 0.961 . S
C1128 C1129 1.370 . S
C1128 C1130 1.363 . S
C1128 H1144 0.931 . S
C1129 C1128 1.370 . S
C1129 C1133 1.408 . S
C1130 C1128 1.363 . S
C1130 C1131 1.370 . S
C1130 C1134 1.524 . S
C1131 C1123 1.503 . S
C1131 C1130 1.370 . S
C1131 C1132 1.403 . S
C1132 C1131 1.403 . S
C1132 C1133 1.404 . S
C1132 C1135 1.539 . S
C1133 C1129 1.408 . S
C1133 C1132 1.404 . S
C1133 H1145 0.930 . S
C1134 C1130 1.524 . S
C1134 H1146 0.956 . S
C1134 H1147 0.961 . S
C1134 H1148 0.961 . S
C1135 C1132 1.539 . S
C1135 H1149 0.958 . S
C1135 H1150 0.961 . S
C1135 H1151 0.960 . S
H1136 C1120 0.931 . S
H1137 C1125 0.929 . S
H1138 C1126 0.960 . S
H1139 C1126 0.962 . S
H1140 C1126 0.960 . S
H1141 C1127 0.961 . S
H1142 C1127 0.961 . S
H1143 C1127 0.961 . S
H1144 C1128 0.931 . S
H1145 C1133 0.930 . S
H1146 C1134 0.956 . S
H1147 C1134 0.961 . S
H1148 C1134 0.961 . S
H1149 C1135 0.958 . S
H1150 C1135 0.961 . S
H1151 C1135 0.960 . S
C1152 C1153 1.391 . S
C1152 C1154 1.394 . S
C1152 H1168 0.931 . S
C1153 C1152 1.391 . S
C1153 C1157 1.376 . S
C1154 C1152 1.394 . S
C1154 C1155 1.369 . S
C1154 C1158 1.531 . S
C1155 C1154 1.369 . S
C1155 C1156 1.410 . S
C1155 C1163 1.503 1_556 S
C1156 C1155 1.410 . S
C1156 C1157 1.392 . S
C1156 C1159 1.511 . S
C1157 C1153 1.376 . S
C1157 C1156 1.392 . S
C1157 H1169 0.929 . S
C1158 C1154 1.531 . S
C1158 H1170 0.960 1_556 S
C1158 H1171 0.962 . S
C1158 H1172 0.960 . S
C1159 C1156 1.511 . S
C1159 H1173 0.961 . S
C1159 H1174 0.961 1_556 S
C1159 H1175 0.961 . S
C1160 C1161 1.370 . S
C1160 C1162 1.363 . S
C1160 H1176 0.931 . S
C1161 C1160 1.370 . S
C1161 C1165 1.408 . S
C1162 C1160 1.363 . S
C1162 C1163 1.370 . S
C1162 C1166 1.524 . S
C1163 C1155 1.503 1_554 S
C1163 C1162 1.370 . S
C1163 C1164 1.403 . S
C1164 C1163 1.403 . S
C1164 C1165 1.404 . S
C1164 C1167 1.539 . S
C1165 C1161 1.408 . S
C1165 C1164 1.404 . S
C1165 H1177 0.930 . S
C1166 C1162 1.524 . S
C1166 H1178 0.956 . S
C1166 H1179 0.961 1_554 S
C1166 H1180 0.961 . S
C1167 C1164 1.539 . S
C1167 H1181 0.958 1_545 S
C1167 H1182 0.961 . S
C1167 H1183 0.970 . S
H1168 C1152 0.931 . S
H1169 C1157 0.929 . S
H1170 C1158 0.960 1_554 S
H1171 C1158 0.962 . S
H1172 C1158 0.960 . S
H1173 C1159 0.961 . S
H1174 C1159 0.961 1_554 S
H1175 C1159 0.961 . S
H1176 C1160 0.931 . S
H1177 C1165 0.930 . S
H1178 C1166 0.956 . S
H1179 C1166 0.961 1_556 S
H1180 C1166 0.961 . S
H1181 C1167 0.958 1_565 S
H1182 C1167 0.961 . S
H1183 C1167 0.970 . S
C1184 C1185 1.391 . S
C1184 C1186 1.394 . S
C1184 H1200 0.931 . S
C1185 C1184 1.391 . S
C1185 C1189 1.376 . S
C1186 C1184 1.394 . S
C1186 C1187 1.369 . S
C1186 C1190 1.531 . S
C1187 C1186 1.369 . S
C1187 C1188 1.410 . S
C1187 C1195 1.503 1_556 S
C1188 C1187 1.410 . S
C1188 C1189 1.392 . S
C1188 C1191 1.511 . S
C1189 C1185 1.376 . S
C1189 C1188 1.392 . S
C1189 H1201 0.929 . S
C1190 C1186 1.531 . S
C1190 H1202 0.960 1_556 S
C1190 H1203 0.962 . S
C1190 H1204 0.960 . S
C1191 C1188 1.511 . S
C1191 H1205 0.961 . S
C1191 H1206 0.961 1_556 S
C1191 H1207 0.961 . S
C1192 C1193 1.370 . S
C1192 C1194 1.363 . S
C1192 H1208 0.931 . S
C1193 C1192 1.370 . S
C1193 C1197 1.408 . S
C1194 C1192 1.363 . S
C1194 C1195 1.370 . S
C1194 C1198 1.524 . S
C1195 C1187 1.503 1_554 S
C1195 C1194 1.370 . S
C1195 C1196 1.403 . S
C1196 C1195 1.403 . S
C1196 C1197 1.404 . S
C1196 C1199 1.539 . S
C1197 C1193 1.408 . S
C1197 C1196 1.404 . S
C1197 H1209 0.930 . S
C1198 C1194 1.524 . S
C1198 H1210 0.956 . S
C1198 H1211 0.961 1_554 S
C1198 H1212 0.961 . S
C1199 C1196 1.539 . S
C1199 H1213 0.958 . S
C1199 H1214 0.961 . S
C1199 H1215 0.970 . S
H1200 C1184 0.931 . S
H1201 C1189 0.929 . S
H1202 C1190 0.960 1_554 S
H1203 C1190 0.962 . S
H1204 C1190 0.960 . S
H1205 C1191 0.961 . S
H1206 C1191 0.961 1_554 S
H1207 C1191 0.961 . S
H1208 C1192 0.931 . S
H1209 C1197 0.930 . S
H1210 C1198 0.956 . S
H1211 C1198 0.961 1_556 S
H1212 C1198 0.961 . S
H1213 C1199 0.958 . S
H1214 C1199 0.961 . S
H1215 C1199 0.970 . S
C1216 C1217 1.391 . S
C1216 C1218 1.394 . S
C1216 H1232 0.931 . S
C1217 C1216 1.391 . S
C1217 C1221 1.376 . S
C1218 C1216 1.394 . S
C1218 C1219 1.369 . S
C1218 C1222 1.531 . S
C1219 C1218 1.369 . S
C1219 C1220 1.410 . S
C1219 C1227 1.503 . S
C1220 C1219 1.410 . S
C1220 C1221 1.392 . S
C1220 C1223 1.511 . S
C1221 C1217 1.376 . S
C1221 C1220 1.392 . S
C1221 H1233 0.929 . S
C1222 C1218 1.531 . S
C1222 H1234 0.960 . S
C1222 H1235 0.962 . S
C1222 H1236 0.960 . S
C1223 C1220 1.511 . S
C1223 H1237 0.961 . S
C1223 H1238 0.961 . S
C1223 H1239 0.961 . S
C1224 C1225 1.370 . S
C1224 C1226 1.363 . S
C1224 H1240 0.931 . S
C1225 C1224 1.370 . S
C1225 C1229 1.408 . S
C1226 C1224 1.363 . S
C1226 C1227 1.370 . S
C1226 C1230 1.524 . S
C1227 C1219 1.503 . S
C1227 C1226 1.370 . S
C1227 C1228 1.403 . S
C1228 C1227 1.403 . S
C1228 C1229 1.404 . S
C1228 C1231 1.539 . S
C1229 C1225 1.408 . S
C1229 C1228 1.404 . S
C1229 H1241 0.930 . S
C1230 C1226 1.524 . S
C1230 H1242 0.956 . S
C1230 H1243 0.961 . S
C1230 H1244 0.961 . S
C1231 C1228 1.539 . S
C1231 H1245 0.958 . S
C1231 H1246 0.961 . S
C1231 H1247 0.960 . S
H1232 C1216 0.931 . S
H1233 C1221 0.929 . S
H1234 C1222 0.960 . S
H1235 C1222 0.962 . S
H1236 C1222 0.960 . S
H1237 C1223 0.961 . S
H1238 C1223 0.961 . S
H1239 C1223 0.961 . S
H1240 C1224 0.931 . S
H1241 C1229 0.930 . S
H1242 C1230 0.956 . S
H1243 C1230 0.961 . S
H1244 C1230 0.961 . S
H1245 C1231 0.958 . S
H1246 C1231 0.961 . S
H1247 C1231 0.960 . S
C1248 C1249 1.391 . S
C1248 C1250 1.394 . S
C1248 H1264 0.931 . S
C1249 C1248 1.391 . S
C1249 C1253 1.376 . S
C1250 C1248 1.394 . S
C1250 C1251 1.369 . S
C1250 C1254 1.531 . S
C1251 C1250 1.369 . S
C1251 C1252 1.410 . S
C1251 C1259 1.503 . S
C1252 C1251 1.410 . S
C1252 C1253 1.392 . S
C1252 C1255 1.511 . S
C1253 C1249 1.376 . S
C1253 C1252 1.392 . S
C1253 H1265 0.929 . S
C1254 C1250 1.531 . S
C1254 H1266 0.960 . S
C1254 H1267 0.962 . S
C1254 H1268 0.960 . S
C1255 C1252 1.511 . S
C1255 H1269 0.961 . S
C1255 H1270 0.961 . S
C1255 H1271 0.961 . S
C1256 C1257 1.370 . S
C1256 C1258 1.363 . S
C1256 H1272 0.931 . S
C1257 C1256 1.370 . S
C1257 C1261 1.408 . S
C1258 C1256 1.363 . S
C1258 C1259 1.370 . S
C1258 C1262 1.524 . S
C1259 C1251 1.503 . S
C1259 C1258 1.370 . S
C1259 C1260 1.403 . S
C1260 C1259 1.403 . S
C1260 C1261 1.404 . S
C1260 C1263 1.539 . S
C1261 C1257 1.408 . S
C1261 C1260 1.404 . S
C1261 H1273 0.930 . S
C1262 C1258 1.524 . S
C1262 H1274 0.956 . S
C1262 H1275 0.961 . S
C1262 H1276 0.961 . S
C1263 C1260 1.539 . S
C1263 H1277 0.958 . S
C1263 H1278 0.961 . S
C1263 H1279 0.960 . S
H1264 C1248 0.931 . S
H1265 C1253 0.929 . S
H1266 C1254 0.960 . S
H1267 C1254 0.962 . S
H1268 C1254 0.960 . S
H1269 C1255 0.961 . S
H1270 C1255 0.961 . S
H1271 C1255 0.961 . S
H1272 C1256 0.931 . S
H1273 C1261 0.930 . S
H1274 C1262 0.956 . S
H1275 C1262 0.961 . S
H1276 C1262 0.961 . S
H1277 C1263 0.958 . S
H1278 C1263 0.961 . S
H1279 C1263 0.960 . S
C1280 C1281 1.391 . S
C1280 C1282 1.394 . S
C1280 H1296 0.931 . S
C1281 C1280 1.391 . S
C1281 C1285 1.376 . S
C1282 C1280 1.394 . S
C1282 C1283 1.369 . S
C1282 C1286 1.531 . S
C1283 C1282 1.369 . S
C1283 C1284 1.410 . S
C1283 C1291 1.503 1_554 S
C1284 C1283 1.410 . S
C1284 C1285 1.392 . S
C1284 C1287 1.511 . S
C1285 C1281 1.376 . S
C1285 C1284 1.392 . S
C1285 H1297 0.929 . S
C1286 C1282 1.531 . S
C1286 H1298 0.960 1_554 S
C1286 H1299 0.962 . S
C1286 H1300 0.960 . S
C1287 C1284 1.511 . S
C1287 H1301 0.961 . S
C1287 H1302 0.961 1_554 S
C1287 H1303 0.961 . S
C1288 C1289 1.370 . S
C1288 C1290 1.363 . S
C1288 H1304 0.931 . S
C1289 C1288 1.370 . S
C1289 C1293 1.408 . S
C1290 C1288 1.363 . S
C1290 C1291 1.370 . S
C1290 C1294 1.524 . S
C1291 C1283 1.503 1_556 S
C1291 C1290 1.370 . S
C1291 C1292 1.403 . S
C1292 C1291 1.403 . S
C1292 C1293 1.404 . S
C1292 C1295 1.539 . S
C1293 C1289 1.408 . S
C1293 C1292 1.404 . S
C1293 H1305 0.930 . S
C1294 C1290 1.524 . S
C1294 H1306 0.956 . S
C1294 H1307 0.961 1_556 S
C1294 H1308 0.961 . S
C1295 C1292 1.539 . S
C1295 H1309 0.958 . S
C1295 H1310 0.961 . S
C1295 H1311 0.970 . S
H1296 C1280 0.931 . S
H1297 C1285 0.929 . S
H1298 C1286 0.960 1_556 S
H1299 C1286 0.962 . S
H1300 C1286 0.960 . S
H1301 C1287 0.961 . S
H1302 C1287 0.961 1_556 S
H1303 C1287 0.961 . S
H1304 C1288 0.931 . S
H1305 C1293 0.930 . S
H1306 C1294 0.956 . S
H1307 C1294 0.961 1_554 S
H1308 C1294 0.961 . S
H1309 C1295 0.958 . S
H1310 C1295 0.961 . S
H1311 C1295 0.970 . S
C1312 C1313 1.391 . S
C1312 C1314 1.394 . S
C1312 H1328 0.931 . S
C1313 C1312 1.391 . S
C1313 C1317 1.376 . S
C1314 C1312 1.394 . S
C1314 C1315 1.369 . S
C1314 C1318 1.531 . S
C1315 C1314 1.369 . S
C1315 C1316 1.410 . S
C1315 C1323 1.503 1_556 S
C1316 C1315 1.410 . S
C1316 C1317 1.392 . S
C1316 C1319 1.511 . S
C1317 C1313 1.376 . S
C1317 C1316 1.392 . S
C1317 H1329 0.929 . S
C1318 C1314 1.531 . S
C1318 H1330 0.960 1_556 S
C1318 H1331 0.962 . S
C1318 H1332 0.960 . S
C1319 C1316 1.511 . S
C1319 H1333 0.961 . S
C1319 H1334 0.961 1_556 S
C1319 H1335 0.961 . S
C1320 C1321 1.370 . S
C1320 C1322 1.363 . S
C1320 H1336 0.931 . S
C1321 C1320 1.370 . S
C1321 C1325 1.408 . S
C1322 C1320 1.363 . S
C1322 C1323 1.370 . S
C1322 C1326 1.524 . S
C1323 C1315 1.503 1_554 S
C1323 C1322 1.370 . S
C1323 C1324 1.403 . S
C1324 C1323 1.403 . S
C1324 C1325 1.404 . S
C1324 C1327 1.539 . S
C1325 C1321 1.408 . S
C1325 C1324 1.404 . S
C1325 H1337 0.930 . S
C1326 C1322 1.524 . S
C1326 H1338 0.956 . S
C1326 H1339 0.961 1_554 S
C1326 H1340 0.961 . S
C1327 C1324 1.539 . S
C1327 H1341 0.958 . S
C1327 H1342 0.961 . S
C1327 H1343 0.970 . S
H1328 C1312 0.931 . S
H1329 C1317 0.929 . S
H1330 C1318 0.960 1_554 S
H1331 C1318 0.962 . S
H1332 C1318 0.960 . S
H1333 C1319 0.961 . S
H1334 C1319 0.961 1_554 S
H1335 C1319 0.961 . S
H1336 C1320 0.931 . S
H1337 C1325 0.930 . S
H1338 C1326 0.956 . S
H1339 C1326 0.961 1_556 S
H1340 C1326 0.961 . S
H1341 C1327 0.958 . S
H1342 C1327 0.961 . S
H1343 C1327 0.970 . S
C1344 C1345 1.391 . S
C1344 C1346 1.394 . S
C1344 H1360 0.931 . S
C1345 C1344 1.391 . S
C1345 C1349 1.376 . S
C1346 C1344 1.394 . S
C1346 C1347 1.369 . S
C1346 C1350 1.531 . S
C1347 C1346 1.369 . S
C1347 C1348 1.410 . S
C1347 C1355 1.503 . S
C1348 C1347 1.410 . S
C1348 C1349 1.392 . S
C1348 C1351 1.511 . S
C1349 C1345 1.376 . S
C1349 C1348 1.392 . S
C1349 H1361 0.929 . S
C1350 C1346 1.531 . S
C1350 H1362 0.960 . S
C1350 H1363 0.962 . S
C1350 H1364 0.960 . S
C1351 C1348 1.511 . S
C1351 H1365 0.961 . S
C1351 H1366 0.961 . S
C1351 H1367 0.961 . S
C1352 C1353 1.370 . S
C1352 C1354 1.363 . S
C1352 H1368 0.931 . S
C1353 C1352 1.370 . S
C1353 C1357 1.408 . S
C1354 C1352 1.363 . S
C1354 C1355 1.370 . S
C1354 C1358 1.524 . S
C1355 C1347 1.503 . S
C1355 C1354 1.370 . S
C1355 C1356 1.403 . S
C1356 C1355 1.403 . S
C1356 C1357 1.404 . S
C1356 C1359 1.539 . S
C1357 C1353 1.408 . S
C1357 C1356 1.404 . S
C1357 H1369 0.930 . S
C1358 C1354 1.524 . S
C1358 H1370 0.956 . S
C1358 H1371 0.961 . S
C1358 H1372 0.961 . S
C1359 C1356 1.539 . S
C1359 H1373 0.958 . S
C1359 H1374 0.961 . S
C1359 H1375 0.960 . S
H1360 C1344 0.931 . S
H1361 C1349 0.929 . S
H1362 C1350 0.960 . S
H1363 C1350 0.962 . S
H1364 C1350 0.960 . S
H1365 C1351 0.961 . S
H1366 C1351 0.961 . S
H1367 C1351 0.961 . S
H1368 C1352 0.931 . S
H1369 C1357 0.930 . S
H1370 C1358 0.956 . S
H1371 C1358 0.961 . S
H1372 C1358 0.961 . S
H1373 C1359 0.958 . S
H1374 C1359 0.961 . S
H1375 C1359 0.960 . S
C1376 C1377 1.391 . S
C1376 C1378 1.394 . S
C1376 H1392 0.931 . S
C1377 C1376 1.391 . S
C1377 C1381 1.376 . S
C1378 C1376 1.394 . S
C1378 C1379 1.369 . S
C1378 C1382 1.531 . S
C1379 C1378 1.369 . S
C1379 C1380 1.410 . S
C1379 C1387 1.503 . S
C1380 C1379 1.410 . S
C1380 C1381 1.392 . S
C1380 C1383 1.511 . S
C1381 C1377 1.376 . S
C1381 C1380 1.392 . S
C1381 H1393 0.929 . S
C1382 C1378 1.531 . S
C1382 H1394 0.960 . S
C1382 H1395 0.962 . S
C1382 H1396 0.960 . S
C1383 C1380 1.511 . S
C1383 H1397 0.961 . S
C1383 H1398 0.961 . S
C1383 H1399 0.961 . S
C1384 C1385 1.370 . S
C1384 C1386 1.363 . S
C1384 H1400 0.931 . S
C1385 C1384 1.370 . S
C1385 C1389 1.408 . S
C1386 C1384 1.363 . S
C1386 C1387 1.370 . S
C1386 C1390 1.524 . S
C1387 C1379 1.503 . S
C1387 C1386 1.370 . S
C1387 C1388 1.403 . S
C1388 C1387 1.403 . S
C1388 C1389 1.404 . S
C1388 C1391 1.539 . S
C1389 C1385 1.408 . S
C1389 C1388 1.404 . S
C1389 H1401 0.930 . S
C1390 C1386 1.524 . S
C1390 H1402 0.956 . S
C1390 H1403 0.961 . S
C1390 H1404 0.961 . S
C1391 C1388 1.539 . S
C1391 H1405 0.958 . S
C1391 H1406 0.961 . S
C1391 H1407 0.960 . S
H1392 C1376 0.931 . S
H1393 C1381 0.929 . S
H1394 C1382 0.960 . S
H1395 C1382 0.962 . S
H1396 C1382 0.960 . S
H1397 C1383 0.961 . S
H1398 C1383 0.961 . S
H1399 C1383 0.961 . S
H1400 C1384 0.931 . S
H1401 C1389 0.930 . S
H1402 C1390 0.956 . S
H1403 C1390 0.961 . S
H1404 C1390 0.961 . S
H1405 C1391 0.958 . S
H1406 C1391 0.961 . S
H1407 C1391 0.960 . S
C1408 C1409 1.391 1_545 S
C1408 C1410 1.394 . S
C1408 H1424 0.931 . S
C1409 C1408 1.391 1_565 S
C1409 C1413 1.376 . S
C1410 C1408 1.394 . S
C1410 C1411 1.369 . S
C1410 C1414 1.531 . S
C1411 C1410 1.369 . S
C1411 C1412 1.410 1_545 S
C1411 C1419 1.503 1_655 S
C1412 C1411 1.410 1_565 S
C1412 C1413 1.392 . S
C1412 C1415 1.511 . S
C1413 C1409 1.376 . S
C1413 C1412 1.392 . S
C1413 H1425 0.929 . S
C1414 C1410 1.531 . S
C1414 H1426 0.960 . S
C1414 H1427 0.962 . S
C1414 H1428 0.960 . S
C1415 C1412 1.511 . S
C1415 H1429 0.961 . S
C1415 H1430 0.961 1_655 S
C1415 H1431 0.961 . S
C1416 C1417 1.370 1_565 S
C1416 C1418 1.363 . S
C1416 H1432 0.931 . S
C1417 C1416 1.370 1_545 S
C1417 C1421 1.408 . S
C1418 C1416 1.363 . S
C1418 C1419 1.370 1_565 S
C1418 C1422 1.524 . S
C1419 C1411 1.503 1_455 S
C1419 C1418 1.370 1_545 S
C1419 C1420 1.403 . S
C1420 C1419 1.403 . S
C1420 C1421 1.404 . S
C1420 C1423 1.539 . S
C1421 C1417 1.408 . S
C1421 C1420 1.404 . S
C1421 H1433 0.930 . S
C1422 C1418 1.524 . S
C1422 H1434 0.956 . S
C1422 H1435 0.961 . S
C1422 H1436 0.961 . S
C1423 C1420 1.539 . S
C1423 H1437 0.958 . S
C1423 H1438 0.961 . S
C1423 H1439 0.960 1_455 S
H1424 C1408 0.931 . S
H1425 C1413 0.929 . S
H1426 C1414 0.960 . S
H1427 C1414 0.962 . S
H1428 C1414 0.960 . S
H1429 C1415 0.961 . S
H1430 C1415 0.961 1_455 S
H1431 C1415 0.961 . S
H1432 C1416 0.931 . S
H1433 C1421 0.930 . S
H1434 C1422 0.956 . S
H1435 C1422 0.961 . S
H1436 C1422 0.961 . S
H1437 C1423 0.958 . S
H1438 C1423 0.961 . S
H1439 C1423 0.960 1_655 S
C1440 C1441 1.391 . S
C1440 C1442 1.394 . S
C1440 H1456 0.931 . S
C1441 C1440 1.391 . S
C1441 C1445 1.376 1_545 S
C1442 C1440 1.394 . S
C1442 C1443 1.369 1_545 S
C1442 C1446 1.531 . S
C1443 C1442 1.369 1_565 S
C1443 C1444 1.410 . S
C1443 C1451 1.503 1_655 S
C1444 C1443 1.410 . S
C1444 C1445 1.392 . S
C1444 C1447 1.511 . S
C1445 C1441 1.376 1_565 S
C1445 C1444 1.392 . S
C1445 H1457 0.929 . S
C1446 C1442 1.531 . S
C1446 H1458 0.960 1_655 S
C1446 H1459 0.962 . S
C1446 H1460 0.960 . S
C1447 C1444 1.511 . S
C1447 H1461 0.961 . S
C1447 H1462 0.961 . S
C1447 H1463 0.961 . S
C1448 C1449 1.370 1_545 S
C1448 C1450 1.363 . S
C1448 H1464 0.931 . S
C1449 C1448 1.370 1_565 S
C1449 C1453 1.408 . S
C1450 C1448 1.363 . S
C1450 C1451 1.370 1_545 S
C1450 C1454 1.524 . S
C1451 C1443 1.503 1_455 S
C1451 C1450 1.370 1_565 S
C1451 C1452 1.403 . S
C1452 C1451 1.403 . S
C1452 C1453 1.404 . S
C1452 C1455 1.539 . S
C1453 C1449 1.408 . S
C1453 C1452 1.404 . S
C1453 H1465 0.930 . S
C1454 C1450 1.524 . S
C1454 H1466 0.956 . S
C1454 H1467 0.961 . S
C1454 H1468 0.961 . S
C1455 C1452 1.539 . S
C1455 H1469 0.958 . S
C1455 H1470 0.961 . S
C1455 H1471 0.960 1_455 S
H1456 C1440 0.931 . S
H1457 C1445 0.929 . S
H1458 C1446 0.960 1_455 S
H1459 C1446 0.962 . S
H1460 C1446 0.960 . S
H1461 C1447 0.961 . S
H1462 C1447 0.961 . S
H1463 C1447 0.961 . S
H1464 C1448 0.931 . S
H1465 C1453 0.930 . S
H1466 C1454 0.956 . S
H1467 C1454 0.961 . S
H1468 C1454 0.961 . S
H1469 C1455 0.958 . S
H1470 C1455 0.961 . S
H1471 C1455 0.960 1_655 S
C1472 C1473 1.391 . S
C1472 C1474 1.394 . S
C1472 H1488 0.931 . S
C1473 C1472 1.391 . S
C1473 C1477 1.376 1_545 S
C1474 C1472 1.394 . S
C1474 C1475 1.369 . S
C1474 C1478 1.531 . S
C1475 C1474 1.369 . S
C1475 C1476 1.410 1_545 S
C1475 C1483 1.503 1_445 S
C1476 C1475 1.410 1_565 S
C1476 C1477 1.392 . S
C1476 C1479 1.511 . S
C1477 C1473 1.376 1_565 S
C1477 C1476 1.392 . S
C1477 H1489 0.929 . S
C1478 C1474 1.531 . S
C1478 H1490 0.960 1_455 S
C1478 H1491 0.956 1_455 S
C1478 H1492 0.960 . S
C1479 C1476 1.511 . S
C1479 H1493 0.961 . S
C1479 H1494 0.961 . S
C1479 H1495 0.961 . S
C1480 C1481 1.370 . S
C1480 C1482 1.363 1_565 S
C1480 H1496 0.931 1_565 S
C1481 C1480 1.370 . S
C1481 C1485 1.408 . S
C1482 C1480 1.363 1_545 S
C1482 C1483 1.370 1_545 S
C1482 C1486 1.524 . S
C1483 C1475 1.503 1_665 S
C1483 C1482 1.370 1_565 S
C1483 C1484 1.403 . S
C1484 C1483 1.403 . S
C1484 C1485 1.404 . S
C1484 C1487 1.539 . S
C1485 C1481 1.408 . S
C1485 C1484 1.404 . S
C1485 H1497 0.930 . S
C1486 C1482 1.524 . S
C1486 H1498 0.956 . S
C1486 H1499 0.926 1_655 S
C1486 H1500 0.961 . S
C1487 C1484 1.539 . S
C1487 H1501 0.958 . S
C1487 H1502 0.961 . S
C1487 H1503 0.960 1_655 S
H1488 C1472 0.931 . S
H1489 C1477 0.929 . S
H1490 C1478 0.960 1_655 S
H1491 C1478 0.956 1_655 S
H1492 C1478 0.960 . S
H1493 C1479 0.961 . S
H1494 C1479 0.961 . S
H1495 C1479 0.961 . S
H1496 C1480 0.931 1_545 S
H1497 C1485 0.930 . S
H1498 C1486 0.956 . S
H1499 C1486 0.926 1_455 S
H1500 C1486 0.961 . S
H1501 C1487 0.958 . S
H1502 C1487 0.961 . S
H1503 C1487 0.960 1_455 S
C1504 C1505 1.391 1_565 S
C1504 C1506 1.394 . S
C1504 H1520 0.931 . S
C1505 C1504 1.391 1_545 S
C1505 C1509 1.376 . S
C1506 C1504 1.394 . S
C1506 C1507 1.369 1_565 S
C1506 C1510 1.531 . S
C1507 C1506 1.369 1_545 S
C1507 C1508 1.410 . S
C1507 C1515 1.503 1_645 S
C1508 C1507 1.410 . S
C1508 C1509 1.392 . S
C1508 C1511 1.511 . S
C1509 C1505 1.376 . S
C1509 C1508 1.392 . S
C1509 H1521 0.929 . S
C1510 C1506 1.531 . S
C1510 H1522 0.960 . S
C1510 H1523 0.962 . S
C1510 H1524 0.960 . S
C1511 C1508 1.511 . S
C1511 H1525 0.961 . S
C1511 H1526 0.961 1_655 S
C1511 H1527 0.972 . S
C1512 C1513 1.370 . S
C1512 C1514 1.363 . S
C1512 H1528 0.931 . S
C1513 C1512 1.370 . S
C1513 C1517 1.408 . S
C1514 C1512 1.363 . S
C1514 C1515 1.370 . S
C1514 C1518 1.524 . S
C1515 C1507 1.503 1_465 S
C1515 C1514 1.370 . S
C1515 C1516 1.403 . S
C1516 C1515 1.403 . S
C1516 C1517 1.404 . S
C1516 C1519 1.539 1_565 S
C1517 C1513 1.408 . S
C1517 C1516 1.404 . S
C1517 H1529 0.930 . S
C1518 C1514 1.524 . S
C1518 H1530 0.956 1_455 S
C1518 H1531 0.957 1_465 S
C1518 H1532 0.961 . S
C1519 C1516 1.539 1_545 S
C1519 H1533 0.958 1_545 S
C1519 H1534 0.961 . S
C1519 H1535 0.960 . S
H1520 C1504 0.931 . S
H1521 C1509 0.929 . S
H1522 C1510 0.960 . S
H1523 C1510 0.962 . S
H1524 C1510 0.960 . S
H1525 C1511 0.961 . S
H1526 C1511 0.961 1_455 S
H1527 C1511 0.972 . S
H1528 C1512 0.931 . S
H1529 C1517 0.930 . S
H1530 C1518 0.956 1_655 S
H1531 C1518 0.957 1_645 S
H1532 C1518 0.961 . S
H1533 C1519 0.958 1_565 S
H1534 C1519 0.961 . S
H1535 C1519 0.960 . S
C1536 C1537 1.391 . S
C1536 C1538 1.394 . S
C1536 H1552 0.931 . S
C1537 C1536 1.391 . S
C1537 C1541 1.376 . S
C1538 C1536 1.394 . S
C1538 C1539 1.369 . S
C1538 C1542 1.531 . S
C1539 C1538 1.369 . S
C1539 C1540 1.410 . S
C1539 C1547 1.503 . S
C1540 C1539 1.410 . S
C1540 C1541 1.392 . S
C1540 C1543 1.511 . S
C1541 C1537 1.376 . S
C1541 C1540 1.392 . S
C1541 H1553 0.929 . S
C1542 C1538 1.531 . S
C1542 H1554 0.960 . S
C1542 H1555 0.962 . S
C1542 H1556 0.960 . S
C1543 C1540 1.511 . S
C1543 H1557 0.961 . S
C1543 H1558 0.961 . S
C1543 H1559 0.961 . S
C1544 C1545 1.370 . S
C1544 C1546 1.363 . S
C1544 H1560 0.931 . S
C1545 C1544 1.370 . S
C1545 C1549 1.408 . S
C1546 C1544 1.363 . S
C1546 C1547 1.370 . S
C1546 C1550 1.524 . S
C1547 C1539 1.503 . S
C1547 C1546 1.370 . S
C1547 C1548 1.403 . S
C1548 C1547 1.403 . S
C1548 C1549 1.404 . S
C1548 C1551 1.539 . S
C1549 C1545 1.408 . S
C1549 C1548 1.404 . S
C1549 H1561 0.930 . S
C1550 C1546 1.524 . S
C1550 H1562 0.956 . S
C1550 H1563 0.961 . S
C1550 H1564 0.961 . S
C1551 C1548 1.539 . S
C1551 H1565 0.958 . S
C1551 H1566 0.961 . S
C1551 H1567 0.960 . S
H1552 C1536 0.931 . S
H1553 C1541 0.929 . S
H1554 C1542 0.960 . S
H1555 C1542 0.962 . S
H1556 C1542 0.960 . S
H1557 C1543 0.961 . S
H1558 C1543 0.961 . S
H1559 C1543 0.961 . S
H1560 C1544 0.931 . S
H1561 C1549 0.930 . S
H1562 C1550 0.956 . S
H1563 C1550 0.961 . S
H1564 C1550 0.961 . S
H1565 C1551 0.958 . S
H1566 C1551 0.961 . S
H1567 C1551 0.960 . S
C1568 C1569 1.391 . S
C1568 C1570 1.394 . S
C1568 H1584 0.931 . S
C1569 C1568 1.391 . S
C1569 C1573 1.376 . S
C1570 C1568 1.394 . S
C1570 C1571 1.369 . S
C1570 C1574 1.531 . S
C1571 C1570 1.369 . S
C1571 C1572 1.410 . S
C1571 C1579 1.503 . S
C1572 C1571 1.410 . S
C1572 C1573 1.392 . S
C1572 C1575 1.511 . S
C1573 C1569 1.376 . S
C1573 C1572 1.392 . S
C1573 H1585 0.929 . S
C1574 C1570 1.531 . S
C1574 H1586 0.960 . S
C1574 H1587 0.962 . S
C1574 H1588 0.960 . S
C1575 C1572 1.511 . S
C1575 H1589 0.961 . S
C1575 H1590 0.961 . S
C1575 H1591 0.961 . S
C1576 C1577 1.370 . S
C1576 C1578 1.363 . S
C1576 H1592 0.931 . S
C1577 C1576 1.370 . S
C1577 C1581 1.408 . S
C1578 C1576 1.363 . S
C1578 C1579 1.370 . S
C1578 C1582 1.524 . S
C1579 C1571 1.503 . S
C1579 C1578 1.370 . S
C1579 C1580 1.403 . S
C1580 C1579 1.403 . S
C1580 C1581 1.404 . S
C1580 C1583 1.539 . S
C1581 C1577 1.408 . S
C1581 C1580 1.404 . S
C1581 H1593 0.930 . S
C1582 C1578 1.524 . S
C1582 H1594 0.956 . S
C1582 H1595 0.961 . S
C1582 H1596 0.961 . S
C1583 C1580 1.539 . S
C1583 H1597 0.958 . S
C1583 H1598 0.961 . S
C1583 H1599 0.960 . S
H1584 C1568 0.931 . S
H1585 C1573 0.929 . S
H1586 C1574 0.960 . S
H1587 C1574 0.962 . S
H1588 C1574 0.960 . S
H1589 C1575 0.961 . S
H1590 C1575 0.961 . S
H1591 C1575 0.961 . S
H1592 C1576 0.931 . S
H1593 C1581 0.930 . S
H1594 C1582 0.956 . S
H1595 C1582 0.961 . S
H1596 C1582 0.961 . S
H1597 C1583 0.958 . S
H1598 C1583 0.961 . S
H1599 C1583 0.960 . S
C1600 C1601 1.391 . S
C1600 C1602 1.394 . S
C1600 H1616 0.931 . S
C1601 C1600 1.391 . S
C1601 C1605 1.376 . S
C1602 C1600 1.394 . S
C1602 C1603 1.369 . S
C1602 C1606 1.531 . S
C1603 C1602 1.369 . S
C1603 C1604 1.410 . S
C1603 C1611 1.503 . S
C1604 C1603 1.410 . S
C1604 C1605 1.392 . S
C1604 C1607 1.511 . S
C1605 C1601 1.376 . S
C1605 C1604 1.392 . S
C1605 H1617 0.929 . S
C1606 C1602 1.531 . S
C1606 H1618 0.960 . S
C1606 H1619 0.962 . S
C1606 H1620 0.960 . S
C1607 C1604 1.511 . S
C1607 H1621 0.961 . S
C1607 H1622 0.961 . S
C1607 H1623 0.961 . S
C1608 C1609 1.370 . S
C1608 C1610 1.363 . S
C1608 H1624 0.931 . S
C1609 C1608 1.370 . S
C1609 C1613 1.408 . S
C1610 C1608 1.363 . S
C1610 C1611 1.370 . S
C1610 C1614 1.524 . S
C1611 C1603 1.503 . S
C1611 C1610 1.370 . S
C1611 C1612 1.403 . S
C1612 C1611 1.403 . S
C1612 C1613 1.404 . S
C1612 C1615 1.539 . S
C1613 C1609 1.408 . S
C1613 C1612 1.404 . S
C1613 H1625 0.930 . S
C1614 C1610 1.524 . S
C1614 H1626 0.956 . S
C1614 H1627 0.961 . S
C1614 H1628 0.961 . S
C1615 C1612 1.539 . S
C1615 H1629 0.958 . S
C1615 H1630 0.961 . S
C1615 H1631 0.960 . S
H1616 C1600 0.931 . S
H1617 C1605 0.929 . S
H1618 C1606 0.960 . S
H1619 C1606 0.962 . S
H1620 C1606 0.960 . S
H1621 C1607 0.961 . S
H1622 C1607 0.961 . S
H1623 C1607 0.961 . S
H1624 C1608 0.931 . S
H1625 C1613 0.930 . S
H1626 C1614 0.956 . S
H1627 C1614 0.961 . S
H1628 C1614 0.961 . S
H1629 C1615 0.958 . S
H1630 C1615 0.961 . S
H1631 C1615 0.960 . S
C1632 C1633 1.391 . S
C1632 C1634 1.394 . S
C1632 H1648 0.931 . S
C1633 C1632 1.391 . S
C1633 C1637 1.376 . S
C1634 C1632 1.394 . S
C1634 C1635 1.369 . S
C1634 C1638 1.531 . S
C1635 C1634 1.369 . S
C1635 C1636 1.410 . S
C1635 C1643 1.503 . S
C1636 C1635 1.410 . S
C1636 C1637 1.392 . S
C1636 C1639 1.511 . S
C1637 C1633 1.376 . S
C1637 C1636 1.392 . S
C1637 H1649 0.929 . S
C1638 C1634 1.531 . S
C1638 H1650 0.960 . S
C1638 H1651 0.962 . S
C1638 H1652 0.960 . S
C1639 C1636 1.511 . S
C1639 H1653 0.961 . S
C1639 H1654 0.961 . S
C1639 H1655 0.961 . S
C1640 C1641 1.370 . S
C1640 C1642 1.363 . S
C1640 H1656 0.931 . S
C1641 C1640 1.370 . S
C1641 C1645 1.408 . S
C1642 C1640 1.363 . S
C1642 C1643 1.370 . S
C1642 C1646 1.524 . S
C1643 C1635 1.503 . S
C1643 C1642 1.370 . S
C1643 C1644 1.403 . S
C1644 C1643 1.403 . S
C1644 C1645 1.404 . S
C1644 C1647 1.539 . S
C1645 C1641 1.408 . S
C1645 C1644 1.404 . S
C1645 H1657 0.930 . S
C1646 C1642 1.524 . S
C1646 H1658 0.956 . S
C1646 H1659 0.961 . S
C1646 H1660 0.961 . S
C1647 C1644 1.539 . S
C1647 H1661 0.958 . S
C1647 H1662 0.961 . S
C1647 H1663 0.960 . S
H1648 C1632 0.931 . S
H1649 C1637 0.929 . S
H1650 C1638 0.960 . S
H1651 C1638 0.962 . S
H1652 C1638 0.960 . S
H1653 C1639 0.961 . S
H1654 C1639 0.961 . S
H1655 C1639 0.961 . S
H1656 C1640 0.931 . S
H1657 C1645 0.930 . S
H1658 C1646 0.956 . S
H1659 C1646 0.961 . S
H1660 C1646 0.961 . S
H1661 C1647 0.958 . S
H1662 C1647 0.961 . S
H1663 C1647 0.960 . S
C1664 C1665 1.391 . S
C1664 C1666 1.394 . S
C1664 H1680 0.931 . S
C1665 C1664 1.391 . S
C1665 C1669 1.376 . S
C1666 C1664 1.394 . S
C1666 C1667 1.369 . S
C1666 C1670 1.531 . S
C1667 C1666 1.369 . S
C1667 C1668 1.410 . S
C1667 C1675 1.503 . S
C1668 C1667 1.410 . S
C1668 C1669 1.392 . S
C1668 C1671 1.511 . S
C1669 C1665 1.376 . S
C1669 C1668 1.392 . S
C1669 H1681 0.929 . S
C1670 C1666 1.531 . S
C1670 H1682 0.960 . S
C1670 H1683 0.962 . S
C1670 H1684 0.960 . S
C1671 C1668 1.511 . S
C1671 H1685 0.961 . S
C1671 H1686 0.961 . S
C1671 H1687 0.961 . S
C1672 C1673 1.370 . S
C1672 C1674 1.363 . S
C1672 H1688 0.931 . S
C1673 C1672 1.370 . S
C1673 C1677 1.408 . S
C1674 C1672 1.363 . S
C1674 C1675 1.370 . S
C1674 C1678 1.524 . S
C1675 C1667 1.503 . S
C1675 C1674 1.370 . S
C1675 C1676 1.403 . S
C1676 C1675 1.403 . S
C1676 C1677 1.404 . S
C1676 C1679 1.539 . S
C1677 C1673 1.408 . S
C1677 C1676 1.404 . S
C1677 H1689 0.930 . S
C1678 C1674 1.524 . S
C1678 H1690 0.956 . S
C1678 H1691 0.961 . S
C1678 H1692 0.961 . S
C1679 C1676 1.539 . S
C1679 H1693 0.958 . S
C1679 H1694 0.961 . S
C1679 H1695 0.960 . S
H1680 C1664 0.931 . S
H1681 C1669 0.929 . S
H1682 C1670 0.960 . S
H1683 C1670 0.962 . S
H1684 C1670 0.960 . S
H1685 C1671 0.961 . S
H1686 C1671 0.961 . S
H1687 C1671 0.961 . S
H1688 C1672 0.931 . S
H1689 C1677 0.930 . S
H1690 C1678 0.956 . S
H1691 C1678 0.961 . S
H1692 C1678 0.961 . S
H1693 C1679 0.958 . S
H1694 C1679 0.961 . S
H1695 C1679 0.960 . S
C1696 C1697 1.391 . S
C1696 C1698 1.394 . S
C1696 H1712 0.931 . S
C1697 C1696 1.391 . S
C1697 C1701 1.376 . S
C1698 C1696 1.394 . S
C1698 C1699 1.369 . S
C1698 C1702 1.531 . S
C1699 C1698 1.369 . S
C1699 C1700 1.410 . S
C1699 C1707 1.503 . S
C1700 C1699 1.410 . S
C1700 C1701 1.392 . S
C1700 C1703 1.511 . S
C1701 C1697 1.376 . S
C1701 C1700 1.392 . S
C1701 H1713 0.929 . S
C1702 C1698 1.531 . S
C1702 H1714 0.960 . S
C1702 H1715 0.962 . S
C1702 H1716 0.960 . S
C1703 C1700 1.511 . S
C1703 H1717 0.961 . S
C1703 H1718 0.961 . S
C1703 H1719 0.961 . S
C1704 C1705 1.370 . S
C1704 C1706 1.363 . S
C1704 H1720 0.931 . S
C1705 C1704 1.370 . S
C1705 C1709 1.408 . S
C1706 C1704 1.363 . S
C1706 C1707 1.370 . S
C1706 C1710 1.524 . S
C1707 C1699 1.503 . S
C1707 C1706 1.370 . S
C1707 C1708 1.403 . S
C1708 C1707 1.403 . S
C1708 C1709 1.404 . S
C1708 C1711 1.539 . S
C1709 C1705 1.408 . S
C1709 C1708 1.404 . S
C1709 H1721 0.930 . S
C1710 C1706 1.524 . S
C1710 H1722 0.956 . S
C1710 H1723 0.961 . S
C1710 H1724 0.961 . S
C1711 C1708 1.539 . S
C1711 H1725 0.958 . S
C1711 H1726 0.961 . S
C1711 H1727 0.960 . S
H1712 C1696 0.931 . S
H1713 C1701 0.929 . S
H1714 C1702 0.960 . S
H1715 C1702 0.962 . S
H1716 C1702 0.960 . S
H1717 C1703 0.961 . S
H1718 C1703 0.961 . S
H1719 C1703 0.961 . S
H1720 C1704 0.931 . S
H1721 C1709 0.930 . S
H1722 C1710 0.956 . S
H1723 C1710 0.961 . S
H1724 C1710 0.961 . S
H1725 C1711 0.958 . S
H1726 C1711 0.961 . S
H1727 C1711 0.960 . S
C1728 C1729 1.391 . S
C1728 C1730 1.394 . S
C1728 H1744 0.931 . S
C1729 C1728 1.391 . S
C1729 C1733 1.376 . S
C1730 C1728 1.394 . S
C1730 C1731 1.369 . S
C1730 C1734 1.531 . S
C1731 C1730 1.369 . S
C1731 C1732 1.410 . S
C1731 C1739 1.503 . S
C1732 C1731 1.410 . S
C1732 C1733 1.392 . S
C1732 C1735 1.511 . S
C1733 C1729 1.376 . S
C1733 C1732 1.392 . S
C1733 H1745 0.929 . S
C1734 C1730 1.531 . S
C1734 H1746 0.960 . S
C1734 H1747 0.962 . S
C1734 H1748 0.960 . S
C1735 C1732 1.511 . S
C1735 H1749 0.961 . S
C1735 H1750 0.961 . S
C1735 H1751 0.961 . S
C1736 C1737 1.370 . S
C1736 C1738 1.363 . S
C1736 H1752 0.931 . S
C1737 C1736 1.370 . S
C1737 C1741 1.408 . S
C1738 C1736 1.363 . S
C1738 C1739 1.370 . S
C1738 C1742 1.524 . S
C1739 C1731 1.503 . S
C1739 C1738 1.370 . S
C1739 C1740 1.403 . S
C1740 C1739 1.403 . S
C1740 C1741 1.404 . S
C1740 C1743 1.539 . S
C1741 C1737 1.408 . S
C1741 C1740 1.404 . S
C1741 H1753 0.930 . S
C1742 C1738 1.524 . S
C1742 H1754 0.956 . S
C1742 H1755 0.961 . S
C1742 H1756 0.961 . S
C1743 C1740 1.539 . S
C1743 H1757 0.958 . S
C1743 H1758 0.961 . S
C1743 H1759 0.960 . S
H1744 C1728 0.931 . S
H1745 C1733 0.929 . S
H1746 C1734 0.960 . S
H1747 C1734 0.962 . S
H1748 C1734 0.960 . S
H1749 C1735 0.961 . S
H1750 C1735 0.961 . S
H1751 C1735 0.961 . S
H1752 C1736 0.931 . S
H1753 C1741 0.930 . S
H1754 C1742 0.956 . S
H1755 C1742 0.961 . S
H1756 C1742 0.961 . S
H1757 C1743 0.958 . S
H1758 C1743 0.961 . S
H1759 C1743 0.960 . S
C1760 C1761 1.391 . S
C1760 C1762 1.394 . S
C1760 H1776 0.931 . S
C1761 C1760 1.391 . S
C1761 C1765 1.376 . S
C1762 C1760 1.394 . S
C1762 C1763 1.369 . S
C1762 C1766 1.531 . S
C1763 C1762 1.369 . S
C1763 C1764 1.410 . S
C1763 C1771 1.503 . S
C1764 C1763 1.410 . S
C1764 C1765 1.392 . S
C1764 C1767 1.511 . S
C1765 C1761 1.376 . S
C1765 C1764 1.392 . S
C1765 H1777 0.929 . S
C1766 C1762 1.531 . S
C1766 H1778 0.960 . S
C1766 H1779 0.962 . S
C1766 H1780 0.960 . S
C1767 C1764 1.511 . S
C1767 H1781 0.961 . S
C1767 H1782 0.961 . S
C1767 H1783 0.961 . S
C1768 C1769 1.370 . S
C1768 C1770 1.363 . S
C1768 H1784 0.931 . S
C1769 C1768 1.370 . S
C1769 C1773 1.408 . S
C1770 C1768 1.363 . S
C1770 C1771 1.370 . S
C1770 C1774 1.524 . S
C1771 C1763 1.503 . S
C1771 C1770 1.370 . S
C1771 C1772 1.403 . S
C1772 C1771 1.403 . S
C1772 C1773 1.404 . S
C1772 C1775 1.539 . S
C1773 C1769 1.408 . S
C1773 C1772 1.404 . S
C1773 H1785 0.930 . S
C1774 C1770 1.524 . S
C1774 H1786 0.956 . S
C1774 H1787 0.961 . S
C1774 H1788 0.961 . S
C1775 C1772 1.539 . S
C1775 H1789 0.958 . S
C1775 H1790 0.961 . S
C1775 H1791 0.960 . S
H1776 C1760 0.931 . S
H1777 C1765 0.929 . S
H1778 C1766 0.960 . S
H1779 C1766 0.962 . S
H1780 C1766 0.960 . S
H1781 C1767 0.961 . S
H1782 C1767 0.961 . S
H1783 C1767 0.961 . S
H1784 C1768 0.931 . S
H1785 C1773 0.930 . S
H1786 C1774 0.956 . S
H1787 C1774 0.961 . S
H1788 C1774 0.961 . S
H1789 C1775 0.958 . S
H1790 C1775 0.961 . S
H1791 C1775 0.960 . S
C1792 C1793 1.391 . S
C1792 C1794 1.394 . S
C1792 H1808 0.931 . S
C1793 C1792 1.391 . S
C1793 C1797 1.376 . S
C1794 C1792 1.394 . S
C1794 C1795 1.369 . S
C1794 C1798 1.531 . S
C1795 C1794 1.369 . S
C1795 C1796 1.410 . S
C1795 C1803 1.503 . S
C1796 C1795 1.410 . S
C1796 C1797 1.392 . S
C1796 C1799 1.511 . S
C1797 C1793 1.376 . S
C1797 C1796 1.392 . S
C1797 H1809 0.929 . S
C1798 C1794 1.531 . S
C1798 H1810 0.960 . S
C1798 H1811 0.962 . S
C1798 H1812 0.960 . S
C1799 C1796 1.511 . S
C1799 H1813 0.961 . S
C1799 H1814 0.961 . S
C1799 H1815 0.961 . S
C1800 C1801 1.370 . S
C1800 C1802 1.363 . S
C1800 H1816 0.931 . S
C1801 C1800 1.370 . S
C1801 C1805 1.408 . S
C1802 C1800 1.363 . S
C1802 C1803 1.370 . S
C1802 C1806 1.524 . S
C1803 C1795 1.503 . S
C1803 C1802 1.370 . S
C1803 C1804 1.403 . S
C1804 C1803 1.403 . S
C1804 C1805 1.404 . S
C1804 C1807 1.539 . S
C1805 C1801 1.408 . S
C1805 C1804 1.404 . S
C1805 H1817 0.930 . S
C1806 C1802 1.524 . S
C1806 H1818 0.956 . S
C1806 H1819 0.961 . S
C1806 H1820 0.961 . S
C1807 C1804 1.539 . S
C1807 H1821 0.958 . S
C1807 H1822 0.961 . S
C1807 H1823 0.960 . S
H1808 C1792 0.931 . S
H1809 C1797 0.929 . S
H1810 C1798 0.960 . S
H1811 C1798 0.962 . S
H1812 C1798 0.960 . S
H1813 C1799 0.961 . S
H1814 C1799 0.961 . S
H1815 C1799 0.961 . S
H1816 C1800 0.931 . S
H1817 C1805 0.930 . S
H1818 C1806 0.956 . S
H1819 C1806 0.961 . S
H1820 C1806 0.961 . S
H1821 C1807 0.958 . S
H1822 C1807 0.961 . S
H1823 C1807 0.960 . S
C1824 C1825 1.391 . S
C1824 C1826 1.394 . S
C1824 H1840 0.931 . S
C1825 C1824 1.391 . S
C1825 C1829 1.376 . S
C1826 C1824 1.394 . S
C1826 C1827 1.369 . S
C1826 C1830 1.531 . S
C1827 C1826 1.369 . S
C1827 C1828 1.410 . S
C1827 C1835 1.503 . S
C1828 C1827 1.410 . S
C1828 C1829 1.392 . S
C1828 C1831 1.511 . S
C1829 C1825 1.376 . S
C1829 C1828 1.392 . S
C1829 H1841 0.929 . S
C1830 C1826 1.531 . S
C1830 H1842 0.960 . S
C1830 H1843 0.962 . S
C1830 H1844 0.960 . S
C1831 C1828 1.511 . S
C1831 H1845 0.961 . S
C1831 H1846 0.961 . S
C1831 H1847 0.961 . S
C1832 C1833 1.370 . S
C1832 C1834 1.363 . S
C1832 H1848 0.931 . S
C1833 C1832 1.370 . S
C1833 C1837 1.408 . S
C1834 C1832 1.363 . S
C1834 C1835 1.370 . S
C1834 C1838 1.524 . S
C1835 C1827 1.503 . S
C1835 C1834 1.370 . S
C1835 C1836 1.403 . S
C1836 C1835 1.403 . S
C1836 C1837 1.404 . S
C1836 C1839 1.539 . S
C1837 C1833 1.408 . S
C1837 C1836 1.404 . S
C1837 H1849 0.930 . S
C1838 C1834 1.524 . S
C1838 H1850 0.956 . S
C1838 H1851 0.961 . S
C1838 H1852 0.961 . S
C1839 C1836 1.539 . S
C1839 H1853 0.958 . S
C1839 H1854 0.961 . S
C1839 H1855 0.960 . S
H1840 C1824 0.931 . S
H1841 C1829 0.929 . S
H1842 C1830 0.960 . S
H1843 C1830 0.962 . S
H1844 C1830 0.960 . S
H1845 C1831 0.961 . S
H1846 C1831 0.961 . S
H1847 C1831 0.961 . S
H1848 C1832 0.931 . S
H1849 C1837 0.930 . S
H1850 C1838 0.956 . S
H1851 C1838 0.961 . S
H1852 C1838 0.961 . S
H1853 C1839 0.958 . S
H1854 C1839 0.961 . S
H1855 C1839 0.960 . S
C1856 C1857 1.391 . S
C1856 C1858 1.394 . S
C1856 H1872 0.931 . S
C1857 C1856 1.391 . S
C1857 C1861 1.376 . S
C1858 C1856 1.394 . S
C1858 C1859 1.369 . S
C1858 C1862 1.531 . S
C1859 C1858 1.369 . S
C1859 C1860 1.410 . S
C1859 C1867 1.503 . S
C1860 C1859 1.410 . S
C1860 C1861 1.392 . S
C1860 C1863 1.511 . S
C1861 C1857 1.376 . S
C1861 C1860 1.392 . S
C1861 H1873 0.929 . S
C1862 C1858 1.531 . S
C1862 H1874 0.960 . S
C1862 H1875 0.962 . S
C1862 H1876 0.960 . S
C1863 C1860 1.511 . S
C1863 H1877 0.961 . S
C1863 H1878 0.961 . S
C1863 H1879 0.961 . S
C1864 C1865 1.370 . S
C1864 C1866 1.363 . S
C1864 H1880 0.931 . S
C1865 C1864 1.370 . S
C1865 C1869 1.408 . S
C1866 C1864 1.363 . S
C1866 C1867 1.370 . S
C1866 C1870 1.524 . S
C1867 C1859 1.503 . S
C1867 C1866 1.370 . S
C1867 C1868 1.403 . S
C1868 C1867 1.403 . S
C1868 C1869 1.404 . S
C1868 C1871 1.539 . S
C1869 C1865 1.408 . S
C1869 C1868 1.404 . S
C1869 H1881 0.930 . S
C1870 C1866 1.524 . S
C1870 H1882 0.956 . S
C1870 H1883 0.961 . S
C1870 H1884 0.961 . S
C1871 C1868 1.539 . S
C1871 H1885 0.958 . S
C1871 H1886 0.961 . S
C1871 H1887 0.960 . S
H1872 C1856 0.931 . S
H1873 C1861 0.929 . S
H1874 C1862 0.960 . S
H1875 C1862 0.962 . S
H1876 C1862 0.960 . S
H1877 C1863 0.961 . S
H1878 C1863 0.961 . S
H1879 C1863 0.961 . S
H1880 C1864 0.931 . S
H1881 C1869 0.930 . S
H1882 C1870 0.956 . S
H1883 C1870 0.961 . S
H1884 C1870 0.961 . S
H1885 C1871 0.958 . S
H1886 C1871 0.961 . S
H1887 C1871 0.960 . S
C1888 C1889 1.391 . S
C1888 C1890 1.394 . S
C1888 H1904 0.931 . S
C1889 C1888 1.391 . S
C1889 C1893 1.376 . S
C1890 C1888 1.394 . S
C1890 C1891 1.369 . S
C1890 C1894 1.531 . S
C1891 C1890 1.369 . S
C1891 C1892 1.410 . S
C1891 C1899 1.503 . S
C1892 C1891 1.410 . S
C1892 C1893 1.392 . S
C1892 C1895 1.511 . S
C1893 C1889 1.376 . S
C1893 C1892 1.392 . S
C1893 H1905 0.929 . S
C1894 C1890 1.531 . S
C1894 H1906 0.960 . S
C1894 H1907 0.962 . S
C1894 H1908 0.960 . S
C1895 C1892 1.511 . S
C1895 H1909 0.961 . S
C1895 H1910 0.961 . S
C1895 H1911 0.961 . S
C1896 C1897 1.370 . S
C1896 C1898 1.363 . S
C1896 H1912 0.931 . S
C1897 C1896 1.370 . S
C1897 C1901 1.408 . S
C1898 C1896 1.363 . S
C1898 C1899 1.370 . S
C1898 C1902 1.524 . S
C1899 C1891 1.503 . S
C1899 C1898 1.370 . S
C1899 C1900 1.403 . S
C1900 C1899 1.403 . S
C1900 C1901 1.404 . S
C1900 C1903 1.539 . S
C1901 C1897 1.408 . S
C1901 C1900 1.404 . S
C1901 H1913 0.930 . S
C1902 C1898 1.524 . S
C1902 H1914 0.956 . S
C1902 H1915 0.961 . S
C1902 H1916 0.961 . S
C1903 C1900 1.539 . S
C1903 H1917 0.958 . S
C1903 H1918 0.961 . S
C1903 H1919 0.960 . S
H1904 C1888 0.931 . S
H1905 C1893 0.929 . S
H1906 C1894 0.960 . S
H1907 C1894 0.962 . S
H1908 C1894 0.960 . S
H1909 C1895 0.961 . S
H1910 C1895 0.961 . S
H1911 C1895 0.961 . S
H1912 C1896 0.931 . S
H1913 C1901 0.930 . S
H1914 C1902 0.956 . S
H1915 C1902 0.961 . S
H1916 C1902 0.961 . S
H1917 C1903 0.958 . S
H1918 C1903 0.961 . S
H1919 C1903 0.960 . S
C1920 C1921 1.391 . S
C1920 C1922 1.394 1_565 S
C1920 H1936 0.931 . S
C1921 C1920 1.391 . S
C1921 C1925 1.376 1_565 S
C1922 C1920 1.394 1_545 S
C1922 C1923 1.369 . S
C1922 C1926 1.531 . S
C1923 C1922 1.369 . S
C1923 C1924 1.410 . S
C1923 C1931 1.503 . S
C1924 C1923 1.410 . S
C1924 C1925 1.392 . S
C1924 C1927 1.511 . S
C1925 C1921 1.376 1_545 S
C1925 C1924 1.392 . S
C1925 H1937 0.929 1_545 S
C1926 C1922 1.531 . S
C1926 H1938 0.960 . S
C1926 H1939 0.962 . S
C1926 H1940 0.960 . S
C1927 C1924 1.511 . S
C1927 H1941 0.961 . S
C1927 H1942 0.961 . S
C1927 H1943 0.961 . S
C1928 C1929 1.370 . S
C1928 C1930 1.363 . S
C1928 H1944 0.931 . S
C1929 C1928 1.370 . S
C1929 C1933 1.408 . S
C1930 C1928 1.363 . S
C1930 C1931 1.370 . S
C1930 C1934 1.524 . S
C1931 C1923 1.503 . S
C1931 C1930 1.370 . S
C1931 C1932 1.403 . S
C1932 C1931 1.403 . S
C1932 C1933 1.404 . S
C1932 C1935 1.539 . S
C1933 C1929 1.408 . S
C1933 C1932 1.404 . S
C1933 H1945 0.930 . S
C1934 C1930 1.524 . S
C1934 H1946 0.956 . S
C1934 H1947 0.961 . S
C1934 H1948 0.961 . S
C1935 C1932 1.539 . S
C1935 H1949 0.958 . S
C1935 H1950 0.961 . S
C1935 H1951 0.960 . S
H1936 C1920 0.931 . S
H1937 C1925 0.929 1_565 S
H1938 C1926 0.960 . S
H1939 C1926 0.962 . S
H1940 C1926 0.960 . S
H1941 C1927 0.961 . S
H1942 C1927 0.961 . S
H1943 C1927 0.961 . S
H1944 C1928 0.931 . S
H1945 C1933 0.930 . S
H1946 C1934 0.956 . S
H1947 C1934 0.961 . S
H1948 C1934 0.961 . S
H1949 C1935 0.958 . S
H1950 C1935 0.961 . S
H1951 C1935 0.960 . S
C1952 C1953 1.391 . S
C1952 C1954 1.394 . S
C1952 H1968 0.931 . S
C1953 C1952 1.391 . S
C1953 C1957 1.376 . S
C1954 C1952 1.394 . S
C1954 C1955 1.369 . S
C1954 C1958 1.531 . S
C1955 C1954 1.369 . S
C1955 C1956 1.410 . S
C1955 C1963 1.503 . S
C1956 C1955 1.410 . S
C1956 C1957 1.392 . S
C1956 C1959 1.511 . S
C1957 C1953 1.376 . S
C1957 C1956 1.392 . S
C1957 H1969 0.929 . S
C1958 C1954 1.531 . S
C1958 H1970 0.960 . S
C1958 H1971 0.962 . S
C1958 H1972 0.960 . S
C1959 C1956 1.511 . S
C1959 H1973 0.961 . S
C1959 H1974 0.961 . S
C1959 H1975 0.961 . S
C1960 C1961 1.370 1_565 S
C1960 C1962 1.363 . S
C1960 H1976 0.931 1_565 S
C1961 C1960 1.370 1_545 S
C1961 C1965 1.408 . S
C1962 C1960 1.363 . S
C1962 C1963 1.370 . S
C1962 C1966 1.524 . S
C1963 C1955 1.503 . S
C1963 C1962 1.370 . S
C1963 C1964 1.403 . S
C1964 C1963 1.403 . S
C1964 C1965 1.404 1_565 S
C1964 C1967 1.539 . S
C1965 C1961 1.408 . S
C1965 C1964 1.404 1_545 S
C1965 H1977 0.930 . S
C1966 C1962 1.524 . S
C1966 H1978 0.956 . S
C1966 H1979 0.961 . S
C1966 H1980 0.961 . S
C1967 C1964 1.539 . S
C1967 H1981 0.958 . S
C1967 H1982 0.961 . S
C1967 H1983 0.960 . S
H1968 C1952 0.931 . S
H1969 C1957 0.929 . S
H1970 C1958 0.960 . S
H1971 C1958 0.962 . S
H1972 C1958 0.960 . S
H1973 C1959 0.961 . S
H1974 C1959 0.961 . S
H1975 C1959 0.961 . S
H1976 C1960 0.931 1_545 S
H1977 C1965 0.930 . S
H1978 C1966 0.956 . S
H1979 C1966 0.961 . S
H1980 C1966 0.961 . S
H1981 C1967 0.958 . S
H1982 C1967 0.961 . S
H1983 C1967 0.960 . S
C1984 C1985 1.391 . S
C1984 C1986 1.394 1_545 S
C1984 H2000 0.931 . S
C1985 C1984 1.391 . S
C1985 C1989 1.376 . S
C1986 C1984 1.394 1_565 S
C1986 C1987 1.369 . S
C1986 C1990 1.531 . S
C1987 C1986 1.369 . S
C1987 C1988 1.410 . S
C1987 C1995 1.503 . S
C1988 C1987 1.410 . S
C1988 C1989 1.392 1_565 S
C1988 C1991 1.511 . S
C1989 C1985 1.376 . S
C1989 C1988 1.392 1_545 S
C1989 H2001 0.929 . S
C1990 C1986 1.531 . S
C1990 H2002 0.960 . S
C1990 H2003 0.962 . S
C1990 H2004 0.960 . S
C1991 C1988 1.511 . S
C1991 H2005 0.961 . S
C1991 H2006 0.961 . S
C1991 H2007 0.961 . S
C1992 C1993 1.370 . S
C1992 C1994 1.363 . S
C1992 H2008 0.931 . S
C1993 C1992 1.370 . S
C1993 C1997 1.408 . S
C1994 C1992 1.363 . S
C1994 C1995 1.370 . S
C1994 C1998 1.524 . S
C1995 C1987 1.503 . S
C1995 C1994 1.370 . S
C1995 C1996 1.403 . S
C1996 C1995 1.403 . S
C1996 C1997 1.404 . S
C1996 C1999 1.539 . S
C1997 C1993 1.408 . S
C1997 C1996 1.404 . S
C1997 H2009 0.930 . S
C1998 C1994 1.524 . S
C1998 H2010 0.956 . S
C1998 H2011 0.961 . S
C1998 H2012 0.961 . S
C1999 C1996 1.539 . S
C1999 H2013 0.958 . S
C1999 H2014 0.961 . S
C1999 H2015 0.960 . S
H2000 C1984 0.931 . S
H2001 C1989 0.929 . S
H2002 C1990 0.960 . S
H2003 C1990 0.962 . S
H2004 C1990 0.960 . S
H2005 C1991 0.961 . S
H2006 C1991 0.961 . S
H2007 C1991 0.961 . S
H2008 C1992 0.931 . S
H2009 C1997 0.930 . S
H2010 C1998 0.956 . S
H2011 C1998 0.961 . S
H2012 C1998 0.961 . S
H2013 C1999 0.958 . S
H2014 C1999 0.961 . S
H2015 C1999 0.960 . S
C2016 C2017 1.401 . S
C2016 C2018 1.378 1_565 S
C2016 H2032 0.936 . S
C2017 C2016 1.401 . S
C2017 C2021 1.376 . S
C2018 C2016 1.378 1_545 S
C2018 C2019 1.369 . S
C2018 C2022 1.531 . S
C2019 C2018 1.369 . S
C2019 C2020 1.410 . S
C2019 C2027 1.503 . S
C2020 C2019 1.410 . S
C2020 C2021 1.392 1_545 S
C2020 C2023 1.511 . S
C2021 C2017 1.376 . S
C2021 C2020 1.392 1_565 S
C2021 H2033 0.929 . S
C2022 C2018 1.531 . S
C2022 H2034 0.960 . S
C2022 H2035 0.962 . S
C2022 H2036 0.960 . S
C2023 C2020 1.511 . S
C2023 H2037 0.961 . S
C2023 H2038 0.961 . S
C2023 H2039 0.961 . S
C2024 C2025 1.370 . S
C2024 C2026 1.363 . S
C2024 H2040 0.931 . S
C2025 C2024 1.370 . S
C2025 C2029 1.408 . S
C2026 C2024 1.363 . S
C2026 C2027 1.370 . S
C2026 C2030 1.524 . S
C2027 C2019 1.503 . S
C2027 C2026 1.370 . S
C2027 C2028 1.403 . S
C2028 C2027 1.403 . S
C2028 C2029 1.404 . S
C2028 C2031 1.539 . S
C2029 C2025 1.408 . S
C2029 C2028 1.404 . S
C2029 H2041 0.930 . S
C2030 C2026 1.524 . S
C2030 H2042 0.956 . S
C2030 H2043 0.961 . S
C2030 H2044 0.961 . S
C2031 C2028 1.539 . S
C2031 H2045 0.958 . S
C2031 H2046 0.961 . S
C2031 H2047 0.960 . S
H2032 C2016 0.936 . S
H2033 C2021 0.929 . S
H2034 C2022 0.960 . S
H2035 C2022 0.962 . S
H2036 C2022 0.960 . S
H2037 C2023 0.961 . S
H2038 C2023 0.961 . S
H2039 C2023 0.961 . S
H2040 C2024 0.931 . S
H2041 C2029 0.930 . S
H2042 C2030 0.956 . S
H2043 C2030 0.961 . S
H2044 C2030 0.961 . S
H2045 C2031 0.958 . S
H2046 C2031 0.961 . S
H2047 C2031 0.960 . S
C2048 C2049 1.391 . S
C2048 C2050 1.394 . S
C2048 H2064 0.931 . S
C2049 C2048 1.391 . S
C2049 C2053 1.376 . S
C2050 C2048 1.394 . S
C2050 C2051 1.369 . S
C2050 C2054 1.531 . S
C2051 C2050 1.369 . S
C2051 C2052 1.410 . S
C2051 C2059 1.503 . S
C2052 C2051 1.410 . S
C2052 C2053 1.392 . S
C2052 C2055 1.511 . S
C2053 C2049 1.376 . S
C2053 C2052 1.392 . S
C2053 H2065 0.929 . S
C2054 C2050 1.531 . S
C2054 H2066 0.960 . S
C2054 H2067 0.962 . S
C2054 H2068 0.960 . S
C2055 C2052 1.511 . S
C2055 H2069 0.961 . S
C2055 H2070 0.961 . S
C2055 H2071 0.961 . S
C2056 C2057 1.370 1_565 S
C2056 C2058 1.363 . S
C2056 H2072 0.931 1_565 S
C2057 C2056 1.370 1_545 S
C2057 C2061 1.408 . S
C2058 C2056 1.363 . S
C2058 C2059 1.370 . S
C2058 C2062 1.524 . S
C2059 C2051 1.503 . S
C2059 C2058 1.370 . S
C2059 C2060 1.403 . S
C2060 C2059 1.403 . S
C2060 C2061 1.404 1_565 S
C2060 C2063 1.539 . S
C2061 C2057 1.408 . S
C2061 C2060 1.404 1_545 S
C2061 H2073 0.930 . S
C2062 C2058 1.524 . S
C2062 H2074 0.956 . S
C2062 H2075 0.961 . S
C2062 H2076 0.961 . S
C2063 C2060 1.539 . S
C2063 H2077 0.958 . S
C2063 H2078 0.961 . S
C2063 H2079 0.960 . S
H2064 C2048 0.931 . S
H2065 C2053 0.929 . S
H2066 C2054 0.960 . S
H2067 C2054 0.962 . S
H2068 C2054 0.960 . S
H2069 C2055 0.961 . S
H2070 C2055 0.961 . S
H2071 C2055 0.961 . S
H2072 C2056 0.931 1_545 S
H2073 C2061 0.930 . S
H2074 C2062 0.956 . S
H2075 C2062 0.961 . S
H2076 C2062 0.961 . S
H2077 C2063 0.958 . S
H2078 C2063 0.961 . S
H2079 C2063 0.960 . S
C2080 C2081 1.391 . S
C2080 C2082 1.394 . S
C2080 H2096 0.931 . S
C2081 C2080 1.391 . S
C2081 C2085 1.376 . S
C2082 C2080 1.394 . S
C2082 C2083 1.369 . S
C2082 C2086 1.531 . S
C2083 C2082 1.369 . S
C2083 C2084 1.410 . S
C2083 C2091 1.503 . S
C2084 C2083 1.410 . S
C2084 C2085 1.392 . S
C2084 C2087 1.511 . S
C2085 C2081 1.376 . S
C2085 C2084 1.392 . S
C2085 H2097 0.929 . S
C2086 C2082 1.531 . S
C2086 H2098 0.960 . S
C2086 H2099 0.962 . S
C2086 H2100 0.960 . S
C2087 C2084 1.511 . S
C2087 H2101 0.961 . S
C2087 H2102 0.961 . S
C2087 H2103 0.961 . S
C2088 C2089 1.370 1_545 S
C2088 C2090 1.363 . S
C2088 H2104 0.931 1_545 S
C2089 C2088 1.370 1_565 S
C2089 C2093 1.408 . S
C2090 C2088 1.363 . S
C2090 C2091 1.370 . S
C2090 C2094 1.524 . S
C2091 C2083 1.503 . S
C2091 C2090 1.370 . S
C2091 C2092 1.403 . S
C2092 C2091 1.403 . S
C2092 C2093 1.404 1_545 S
C2092 C2095 1.539 . S
C2093 C2089 1.408 . S
C2093 C2092 1.404 1_565 S
C2093 H2105 0.930 . S
C2094 C2090 1.524 . S
C2094 H2106 0.956 . S
C2094 H2107 0.961 . S
C2094 H2108 0.961 . S
C2095 C2092 1.539 . S
C2095 H2109 0.958 . S
C2095 H2110 0.961 . S
C2095 H2111 0.960 . S
H2096 C2080 0.931 . S
H2097 C2085 0.929 . S
H2098 C2086 0.960 . S
H2099 C2086 0.962 . S
H2100 C2086 0.960 . S
H2101 C2087 0.961 . S
H2102 C2087 0.961 . S
H2103 C2087 0.961 . S
H2104 C2088 0.931 1_565 S
H2105 C2093 0.930 . S
H2106 C2094 0.956 . S
H2107 C2094 0.961 . S
H2108 C2094 0.961 . S
H2109 C2095 0.958 . S
H2110 C2095 0.961 . S
H2111 C2095 0.960 . S
C2112 C2113 1.391 . S
C2112 C2114 1.394 1_565 S
C2112 H2128 0.931 . S
C2113 C2112 1.391 . S
C2113 C2117 1.376 1_565 S
C2114 C2112 1.394 1_545 S
C2114 C2115 1.369 . S
C2114 C2118 1.531 . S
C2115 C2114 1.369 . S
C2115 C2116 1.410 . S
C2115 C2123 1.503 . S
C2116 C2115 1.410 . S
C2116 C2117 1.392 . S
C2116 C2119 1.511 . S
C2117 C2113 1.376 1_545 S
C2117 C2116 1.392 . S
C2117 H2129 0.929 1_545 S
C2118 C2114 1.531 . S
C2118 H2130 0.960 . S
C2118 H2131 0.962 . S
C2118 H2132 0.960 . S
C2119 C2116 1.511 . S
C2119 H2133 0.961 . S
C2119 H2134 0.961 . S
C2119 H2135 0.961 . S
C2120 C2121 1.370 . S
C2120 C2122 1.363 . S
C2120 H2136 0.931 . S
C2121 C2120 1.370 . S
C2121 C2125 1.408 . S
C2122 C2120 1.363 . S
C2122 C2123 1.370 . S
C2122 C2126 1.524 . S
C2123 C2115 1.503 . S
C2123 C2122 1.370 . S
C2123 C2124 1.403 . S
C2124 C2123 1.403 . S
C2124 C2125 1.404 . S
C2124 C2127 1.539 . S
C2125 C2121 1.408 . S
C2125 C2124 1.404 . S
C2125 H2137 0.930 . S
C2126 C2122 1.524 . S
C2126 H2138 0.956 . S
C2126 H2139 0.961 . S
C2126 H2140 0.961 . S
C2127 C2124 1.539 . S
C2127 H2141 0.958 . S
C2127 H2142 0.961 . S
C2127 H2143 0.960 . S
H2128 C2112 0.931 . S
H2129 C2117 0.929 1_565 S
H2130 C2118 0.960 . S
H2131 C2118 0.962 . S
H2132 C2118 0.960 . S
H2133 C2119 0.961 . S
H2134 C2119 0.961 . S
H2135 C2119 0.961 . S
H2136 C2120 0.931 . S
H2137 C2125 0.930 . S
H2138 C2126 0.956 . S
H2139 C2126 0.961 . S
H2140 C2126 0.961 . S
H2141 C2127 0.958 . S
H2142 C2127 0.961 . S
H2143 C2127 0.960 . S
C2144 C2145 1.391 . S
C2144 C2146 1.394 . S
C2144 H2160 0.931 . S
C2145 C2144 1.391 . S
C2145 C2149 1.376 . S
C2146 C2144 1.394 . S
C2146 C2147 1.369 . S
C2146 C2150 1.531 . S
C2147 C2146 1.369 . S
C2147 C2148 1.410 . S
C2147 C2155 1.503 . S
C2148 C2147 1.410 . S
C2148 C2149 1.392 . S
C2148 C2151 1.511 . S
C2149 C2145 1.376 . S
C2149 C2148 1.392 . S
C2149 H2161 0.929 . S
C2150 C2146 1.531 . S
C2150 H2162 0.960 . S
C2150 H2163 0.962 . S
C2150 H2164 0.960 . S
C2151 C2148 1.511 . S
C2151 H2165 0.961 . S
C2151 H2166 0.961 . S
C2151 H2167 0.961 . S
C2152 C2153 1.370 . S
C2152 C2154 1.363 1_545 S
C2152 H2168 0.931 . S
C2153 C2152 1.370 . S
C2153 C2157 1.408 . S
C2154 C2152 1.363 1_565 S
C2154 C2155 1.370 . S
C2154 C2158 1.524 . S
C2155 C2147 1.503 . S
C2155 C2154 1.370 . S
C2155 C2156 1.403 . S
C2156 C2155 1.403 . S
C2156 C2157 1.404 1_565 S
C2156 C2159 1.539 . S
C2157 C2153 1.408 . S
C2157 C2156 1.404 1_545 S
C2157 H2169 0.930 . S
C2158 C2154 1.524 . S
C2158 H2170 0.956 . S
C2158 H2171 0.961 . S
C2158 H2172 0.961 . S
C2159 C2156 1.539 . S
C2159 H2173 0.958 . S
C2159 H2174 0.961 . S
C2159 H2175 0.960 . S
H2160 C2144 0.931 . S
H2161 C2149 0.929 . S
H2162 C2150 0.960 . S
H2163 C2150 0.962 . S
H2164 C2150 0.960 . S
H2165 C2151 0.961 . S
H2166 C2151 0.961 . S
H2167 C2151 0.961 . S
H2168 C2152 0.931 . S
H2169 C2157 0.930 . S
H2170 C2158 0.956 . S
H2171 C2158 0.961 . S
H2172 C2158 0.961 . S
H2173 C2159 0.958 . S
H2174 C2159 0.961 . S
H2175 C2159 0.960 . S
C641 C11 1.545 . S
C649 C371 1.543 . S
C673 C51 1.543 . S
C681 C331 1.542 . S
C705 C451 1.545 . S
C713 C91 1.543 . S
C737 C131 1.545 . S
C745 C411 1.544 . S
C769 C522 1.541 . S
C777 C162 1.543 . S
C801 C482 1.536 . S
C809 C202 1.540 . S
C833 C602 1.531 . S
C841 C242 1.538 . S
C865 C282 1.543 . S
C873 C562 1.544 . S
C897 C99 1.663 . S
C905 C19 1.676 . S
C929 C139 1.683 . S
C937 C59 1.679 . S
C961 C250 1.669 . S
C969 C170 1.680 . S
C993 C210 1.669 . S
C1001 C290 1.673 . S
C1025 C419 1.663 . S
C1033 C339 1.676 . S
C1057 C459 1.662 . S
C1065 C379 1.674 . S
C1089 C490 1.671 . S
C1097 C570 1.681 . S
C1121 C530 1.676 . S
C1129 C610 1.674 . S
C1153 C219 1.497 . S
C1161 C10 1.521 . S
C1185 C179 1.563 . S
C1193 C50 1.548 . S
C1217 C90 1.553 . S
C1225 C299 1.542 . S
C1249 C259 1.560 . S
C1257 C130 1.545 . S
C1281 C330 1.540 . S
C1289 C539 1.536 . S
C1313 C499 1.511 . S
C1321 C370 1.524 . S
C1345 C410 1.551 . S
C1353 C619 1.541 . S
C1377 C579 1.563 . S
C1385 C450 1.548 . S
C1409 C42 1.638 . S
C1417 C2 1.612 . S
C1441 C122 1.627 . S
C1449 C82 1.607 . S
C1473 C211 1.629 . S
C1481 C171 1.615 . S
C1505 C251 1.602 . S
C1513 C291 1.618 . S
C1537 C362 1.614 . S
C1545 C322 1.625 . S
C1569 C442 1.589 . S
C1577 C402 1.627 . S
C1601 C491 1.602 . S
C1609 C531 1.626 . S
C1633 C571 1.599 . S
C1641 C611 1.619 . S
C1665 C7 1.628 . S
C1673 C16 1.648 . S
C1697 C47 1.621 . S
C1705 C56 1.649 . S
C1729 C87 1.630 . S
C1737 C96 1.647 . S
C1761 C136 1.656 . S
C1769 C127 1.636 . S
C1793 C176 1.621 . S
C1801 C167 1.650 . S
C1825 C207 1.647 . S
C1833 C216 1.640 . S
C1857 C256 1.648 . S
C1865 C247 1.638 . S
C1889 C296 1.657 . S
C1897 C287 1.635 . S
C1921 C336 1.639 . S
C1929 C327 1.641 . S
C1953 C367 1.652 . S
C1961 C376 1.636 . S
C1985 C416 1.619 . S
C1993 C407 1.650 . S
C2017 C456 1.628 . S
C2025 C447 1.648 . S
C2049 C496 1.650 . S
C2057 C487 1.639 . S
C2081 C536 1.651 . S
C2089 C527 1.637 . S
C2113 C567 1.640 . S
C2121 C576 1.641 . S
C2145 C616 1.627 . S
C2153 C607 1.648 . S
