# Generated by pormake.
# Topology whz, (6)-cn, num edge types: 1
# Building blocks:
#     Node 0, Type 0, BuildingBlock: UKALOJ_clean_sbu_0, # of connection points: 6
#     Node 1, Type 0, BuildingBlock: UKALOJ_clean_sbu_0, # of connection points: 6
#     Node 2, Type 0, BuildingBlock: UKALOJ_clean_sbu_0, # of connection points: 6
#     Node 3, Type 0, BuildingBlock: UKALOJ_clean_sbu_0, # of connection points: 6
#     Node 4, Type 0, BuildingBlock: UKALOJ_clean_sbu_0, # of connection points: 6
#     Node 5, Type 0, BuildingBlock: UKALOJ_clean_sbu_0, # of connection points: 6
#     Node 6, Type 0, BuildingBlock: UKALOJ_clean_sbu_0, # of connection points: 6
#     Node 7, Type 0, BuildingBlock: UKALOJ_clean_sbu_0, # of connection points: 6
#     Node 8, Type 0, BuildingBlock: UKALOJ_clean_sbu_0, # of connection points: 6
#     Node 9, Type 0, BuildingBlock: UKALOJ_clean_sbu_0, # of connection points: 6
#     Node 10, Type 0, BuildingBlock: UKALOJ_clean_sbu_0, # of connection points: 6
#     Node 11, Type 0, BuildingBlock: UKALOJ_clean_sbu_0, # of connection points: 6
#     Node 12, Type 0, BuildingBlock: UKALOJ_clean_sbu_0, # of connection points: 6
#     Node 13, Type 0, BuildingBlock: UKALOJ_clean_sbu_0, # of connection points: 6
#     Node 14, Type 0, BuildingBlock: UKALOJ_clean_sbu_0, # of connection points: 6
#     Node 15, Type 0, BuildingBlock: UKALOJ_clean_sbu_0, # of connection points: 6
#     Edge 16, Type (0, 0), BuildingBlock: UVAHIK_clean_linker_0, # of connection points: 2
#     Edge 17, Type (0, 0), BuildingBlock: UVAHIK_clean_linker_0, # of connection points: 2
#     Edge 18, Type (0, 0), BuildingBlock: UVAHIK_clean_linker_0, # of connection points: 2
#     Edge 19, Type (0, 0), BuildingBlock: UVAHIK_clean_linker_0, # of connection points: 2
#     Edge 20, Type (0, 0), BuildingBlock: UVAHIK_clean_linker_0, # of connection points: 2
#     Edge 21, Type (0, 0), BuildingBlock: UVAHIK_clean_linker_0, # of connection points: 2
#     Edge 22, Type (0, 0), BuildingBlock: UVAHIK_clean_linker_0, # of connection points: 2
#     Edge 23, Type (0, 0), BuildingBlock: UVAHIK_clean_linker_0, # of connection points: 2
#     Edge 24, Type (0, 0), BuildingBlock: UVAHIK_clean_linker_0, # of connection points: 2
#     Edge 25, Type (0, 0), BuildingBlock: UVAHIK_clean_linker_0, # of connection points: 2
#     Edge 26, Type (0, 0), BuildingBlock: UVAHIK_clean_linker_0, # of connection points: 2
#     Edge 27, Type (0, 0), BuildingBlock: UVAHIK_clean_linker_0, # of connection points: 2
#     Edge 28, Type (0, 0), BuildingBlock: UVAHIK_clean_linker_0, # of connection points: 2
#     Edge 29, Type (0, 0), BuildingBlock: UVAHIK_clean_linker_0, # of connection points: 2
#     Edge 30, Type (0, 0), BuildingBlock: UVAHIK_clean_linker_0, # of connection points: 2
#     Edge 31, Type (0, 0), BuildingBlock: UVAHIK_clean_linker_0, # of connection points: 2
#     Edge 32, Type (0, 0), BuildingBlock: UVAHIK_clean_linker_0, # of connection points: 2
#     Edge 33, Type (0, 0), BuildingBlock: UVAHIK_clean_linker_0, # of connection points: 2
#     Edge 34, Type (0, 0), BuildingBlock: UVAHIK_clean_linker_0, # of connection points: 2
#     Edge 35, Type (0, 0), BuildingBlock: UVAHIK_clean_linker_0, # of connection points: 2
#     Edge 36, Type (0, 0), BuildingBlock: UVAHIK_clean_linker_0, # of connection points: 2
#     Edge 37, Type (0, 0), BuildingBlock: UVAHIK_clean_linker_0, # of connection points: 2
#     Edge 38, Type (0, 0), BuildingBlock: UVAHIK_clean_linker_0, # of connection points: 2
#     Edge 39, Type (0, 0), BuildingBlock: UVAHIK_clean_linker_0, # of connection points: 2
#     Edge 40, Type (0, 0), BuildingBlock: UVAHIK_clean_linker_0, # of connection points: 2
#     Edge 41, Type (0, 0), BuildingBlock: UVAHIK_clean_linker_0, # of connection points: 2
#     Edge 42, Type (0, 0), BuildingBlock: UVAHIK_clean_linker_0, # of connection points: 2
#     Edge 43, Type (0, 0), BuildingBlock: UVAHIK_clean_linker_0, # of connection points: 2
#     Edge 44, Type (0, 0), BuildingBlock: UVAHIK_clean_linker_0, # of connection points: 2
#     Edge 45, Type (0, 0), BuildingBlock: UVAHIK_clean_linker_0, # of connection points: 2
#     Edge 46, Type (0, 0), BuildingBlock: UVAHIK_clean_linker_0, # of connection points: 2
#     Edge 47, Type (0, 0), BuildingBlock: UVAHIK_clean_linker_0, # of connection points: 2
#     Edge 48, Type (0, 0), BuildingBlock: UVAHIK_clean_linker_0, # of connection points: 2
#     Edge 49, Type (0, 0), BuildingBlock: UVAHIK_clean_linker_0, # of connection points: 2
#     Edge 50, Type (0, 0), BuildingBlock: UVAHIK_clean_linker_0, # of connection points: 2
#     Edge 51, Type (0, 0), BuildingBlock: UVAHIK_clean_linker_0, # of connection points: 2
#     Edge 52, Type (0, 0), BuildingBlock: UVAHIK_clean_linker_0, # of connection points: 2
#     Edge 53, Type (0, 0), BuildingBlock: UVAHIK_clean_linker_0, # of connection points: 2
#     Edge 54, Type (0, 0), BuildingBlock: UVAHIK_clean_linker_0, # of connection points: 2
#     Edge 55, Type (0, 0), BuildingBlock: UVAHIK_clean_linker_0, # of connection points: 2
#     Edge 56, Type (0, 0), BuildingBlock: UVAHIK_clean_linker_0, # of connection points: 2
#     Edge 57, Type (0, 0), BuildingBlock: UVAHIK_clean_linker_0, # of connection points: 2
#     Edge 58, Type (0, 0), BuildingBlock: UVAHIK_clean_linker_0, # of connection points: 2
#     Edge 59, Type (0, 0), BuildingBlock: UVAHIK_clean_linker_0, # of connection points: 2
#     Edge 60, Type (0, 0), BuildingBlock: UVAHIK_clean_linker_0, # of connection points: 2
#     Edge 61, Type (0, 0), BuildingBlock: UVAHIK_clean_linker_0, # of connection points: 2
#     Edge 62, Type (0, 0), BuildingBlock: UVAHIK_clean_linker_0, # of connection points: 2
#     Edge 63, Type (0, 0), BuildingBlock: UVAHIK_clean_linker_0, # of connection points: 2
# Relax obj value: 0.339
# Max RMSD: 0.232
# Mean RMSD: 0.232
data_MOF--net-whz--node1-UKALOJ_clean_sbu_0--edge1-UVAHIK_clean_linker_0
_symmetry_space_group_name_H-M    P1
_symmetry_Int_Tables_number       1
_symmetry_cell_setting            triclinic
loop_
_symmetry_equiv_pos_as_xyz
'x, y, z'
_cell_length_a     51.098254
_cell_length_b     51.111223
_cell_length_c     61.783373
_cell_angle_alpha  89.99951
_cell_angle_beta   89.997343
_cell_angle_gamma 89.985558
loop_
_atom_site_label
_atom_site_type_symbol
_atom_site_fract_x
_atom_site_fract_y
_atom_site_fract_z
_atom_type_partial_charge
Zn0 Zn 0.30345 0.14867 0.1198 0.0
O1 O 0.30663 0.16708 0.15064 0.0
C2 C 0.31215 0.09576 0.13866 0.0
Zn3 Zn 0.26617 0.12965 0.12962 0.0
C4 C 0.28965 0.16155 0.16496 0.0
O5 O 0.27159 0.14546 0.16046 0.0
C6 C 0.27764 0.11815 0.08399 0.0
O7 O 0.24541 0.16376 0.12096 0.0
O8 O 0.28177 0.18151 0.10906 0.0
N9 N 0.23287 0.11244 0.14085 0.0
C10 C 0.20887 0.10852 0.1324 0.0
C11 C 0.20819 0.09429 0.16485 0.0
N12 N 0.23238 0.10353 0.16097 0.0
N13 N 0.19304 0.09713 0.14717 0.0
C14 C 0.35924 0.17454 0.11876 0.0
C15 C 0.36215 0.18489 0.08542 0.0
N16 N 0.33722 0.16607 0.10889 0.0
N17 N 0.33921 0.17242 0.08818 0.0
N18 N 0.3752 0.18645 0.10431 0.0
H19 H 0.35272 0.18958 0.15051 0.0
H20 H 0.38443 0.17538 0.14716 0.0
H21 H 0.35601 0.15455 0.14925 0.0
C22 C 0.36358 0.1733 0.14274 0.0
C23 C 0.20065 0.11708 0.11021 0.0
H24 H 0.21316 0.13315 0.10414 0.0
H25 H 0.17991 0.1235 0.11026 0.0
H26 H 0.20257 0.10032 0.09892 0.0
O27 O 0.26063 0.11426 0.09863 0.0
O28 O 0.29833 0.13088 0.0886 0.0
C29 C 0.25724 0.18298 0.11234 0.0
O30 O 0.32477 0.11543 0.13148 0.0
O31 O 0.28731 0.09631 0.13869 0.0
Zn32 Zn 0.59987 0.55166 0.36789 0.0
O33 O 0.58216 0.54945 0.39911 0.0
C34 C 0.65123 0.56208 0.38798 0.0
Zn35 Zn 0.62073 0.5144 0.37501 0.0
C36 C 0.58784 0.53074 0.41189 0.0
O37 O 0.60458 0.51377 0.40609 0.0
C38 C 0.63137 0.53285 0.3303 0.0
O39 O 0.58885 0.49187 0.36373 0.0
O40 O 0.56872 0.52862 0.35582 0.0
N41 N 0.64252 0.48196 0.38167 0.0
C42 C 0.63697 0.45767 0.38886 0.0
C43 C 0.67841 0.46024 0.38538 0.0
N44 N 0.66825 0.48345 0.37951 0.0
N45 N 0.65922 0.44368 0.3913 0.0
C46 C 0.57105 0.60586 0.37154 0.0
C47 C 0.55795 0.61088 0.33904 0.0
N48 N 0.57938 0.58493 0.36009 0.0
N49 N 0.57126 0.5882 0.33992 0.0
N50 N 0.55752 0.62246 0.35862 0.0
H51 H 0.55889 0.59603 0.40352 0.0
H52 H 0.57119 0.62867 0.40128 0.0
H53 H 0.59347 0.60115 0.40074 0.0
C54 C 0.57397 0.60835 0.39559 0.0
C55 C 0.61008 0.44823 0.39451 0.0
H56 H 0.59727 0.46473 0.39928 0.0
H57 H 0.61093 0.43373 0.40786 0.0
H58 H 0.6014 0.43859 0.38012 0.0
O59 O 0.63638 0.51483 0.34381 0.0
O60 O 0.61711 0.552 0.33615 0.0
C61 C 0.56877 0.50375 0.35654 0.0
O62 O 0.6313 0.57432 0.38092 0.0
O63 O 0.65187 0.53732 0.38658 0.0
Zn64 Zn 0.19692 0.84998 0.61963 0.0
O65 O 0.19309 0.8308 0.65014 0.0
C66 C 0.19141 0.90274 0.63944 0.0
Zn67 Zn 0.23538 0.86681 0.629 0.0
C68 C 0.21069 0.83518 0.66422 0.0
O69 O 0.22947 0.85038 0.65958 0.0
C70 C 0.22395 0.88013 0.5839 0.0
O71 O 0.25433 0.83207 0.61942 0.0
O72 O 0.21675 0.81643 0.60806 0.0
N73 N 0.26943 0.88222 0.64038 0.0
C74 C 0.29346 0.88583 0.63189 0.0
C75 C 0.29455 0.89949 0.66449 0.0
N76 N 0.27019 0.89076 0.66061 0.0
N77 N 0.30958 0.8967 0.64674 0.0
C78 C 0.13995 0.82706 0.6188 0.0
C79 C 0.1344 0.8209 0.58499 0.0
N80 N 0.1621 0.8348 0.60874 0.0
N81 N 0.15853 0.83094 0.58775 0.0
N82 N 0.12235 0.81816 0.60424 0.0
H83 H 0.14287 0.81223 0.65103 0.0
H84 H 0.11378 0.83119 0.64603 0.0
H85 H 0.14508 0.84731 0.64904 0.0
C86 C 0.13504 0.82973 0.6426 0.0
C87 C 0.30129 0.87751 0.60954 0.0
H88 H 0.32202 0.87102 0.60929 0.0
H89 H 0.29916 0.89438 0.59839 0.0
H90 H 0.28863 0.86153 0.60355 0.0
O91 O 0.24139 0.8828 0.59836 0.0
O92 O 0.20269 0.8684 0.5886 0.0
C93 C 0.24128 0.81369 0.61074 0.0
O94 O 0.17748 0.88397 0.63228 0.0
O95 O 0.21616 0.90084 0.63887 0.0
Zn96 Zn 0.88 0.48441 0.879 0.0
O97 O 0.91322 0.50618 0.86968 0.0
C98 C 0.86854 0.47134 0.83356 0.0
Zn99 Zn 0.89989 0.44743 0.86964 0.0
C100 C 0.93266 0.49459 0.86116 0.0
O101 O 0.93183 0.46995 0.8584 0.0
C102 C 0.84774 0.43742 0.88907 0.0
O103 O 0.91852 0.44578 0.90051 0.0
O104 O 0.8962 0.48061 0.90986 0.0
N105 N 0.91845 0.41403 0.85934 0.0
C106 C 0.92692 0.39225 0.86955 0.0
C107 C 0.93802 0.38899 0.83639 0.0
N108 N 0.92529 0.41185 0.83876 0.0
N109 N 0.93929 0.37621 0.85543 0.0
C110 C 0.86013 0.54202 0.88233 0.0
C111 C 0.83778 0.54012 0.91147 0.0
N112 N 0.8611 0.51712 0.88947 0.0
N113 N 0.84714 0.516 0.90751 0.0
N114 N 0.84561 0.5568 0.89591 0.0
H115 H 0.89548 0.5577 0.8694 0.0
H116 H 0.86672 0.56971 0.85623 0.0
H117 H 0.878 0.53683 0.851 0.0
C118 C 0.87573 0.55214 0.86355 0.0
C119 C 0.92527 0.38827 0.89355 0.0
H120 H 0.94119 0.39956 0.90141 0.0
H121 H 0.92767 0.36755 0.89825 0.0
H122 H 0.90628 0.39564 0.89974 0.0
O123 O 0.8676 0.42518 0.88183 0.0
O124 O 0.84761 0.46224 0.88867 0.0
C125 C 0.9128 0.46307 0.91455 0.0
O126 O 0.86424 0.48847 0.84801 0.0
O127 O 0.88185 0.45109 0.83837 0.0
Zn128 Zn 0.73392 0.86774 0.86896 0.0
O129 O 0.75392 0.8337 0.87842 0.0
C130 C 0.72223 0.88074 0.91406 0.0
Zn131 Zn 0.69615 0.84955 0.8785 0.0
C132 C 0.74175 0.81488 0.88731 0.0
O133 O 0.71717 0.81665 0.89023 0.0
C134 C 0.68888 0.90215 0.85863 0.0
O135 O 0.69286 0.83008 0.84809 0.0
O136 O 0.72834 0.85109 0.83838 0.0
N137 N 0.66185 0.83335 0.8895 0.0
C138 C 0.63976 0.82529 0.87954 0.0
C139 C 0.63465 0.81873 0.91334 0.0
N140 N 0.65857 0.82923 0.91049 0.0
N141 N 0.62247 0.81594 0.89416 0.0
C142 C 0.79163 0.88793 0.86569 0.0
C143 C 0.792 0.90192 0.83317 0.0
N144 N 0.76749 0.88414 0.85746 0.0
N145 N 0.7678 0.89292 0.8373 0.0
N146 N 0.80738 0.8991 0.85072 0.0
H147 H 0.78723 0.86378 0.8942 0.0
H148 H 0.82058 0.87273 0.88774 0.0
H149 H 0.79842 0.89646 0.89906 0.0
C150 C 0.79995 0.87953 0.8879 0.0
C151 C 0.63459 0.82807 0.85579 0.0
H152 H 0.64246 0.81068 0.84724 0.0
H153 H 0.61328 0.82938 0.85252 0.0
H154 H 0.64443 0.84575 0.84933 0.0
O155 O 0.67559 0.88288 0.86571 0.0
O156 O 0.71367 0.90111 0.85922 0.0
C157 C 0.71016 0.83511 0.8339 0.0
O158 O 0.73959 0.88388 0.89959 0.0
O159 O 0.70134 0.86836 0.90939 0.0
Zn160 Zn 0.38213 0.48335 0.62005 0.0
O161 O 0.41483 0.50548 0.62982 0.0
C162 C 0.36967 0.4707 0.66523 0.0
Zn163 Zn 0.40177 0.4463 0.62959 0.0
C164 C 0.43438 0.49381 0.63813 0.0
O165 O 0.4337 0.4691 0.64058 0.0
C166 C 0.3498 0.43615 0.61014 0.0
O167 O 0.42069 0.44346 0.59899 0.0
O168 O 0.3995 0.47894 0.58953 0.0
N169 N 0.41991 0.41315 0.64065 0.0
C170 C 0.42805 0.39101 0.63082 0.0
C171 C 0.43635 0.38701 0.66448 0.0
N172 N 0.42512 0.41058 0.66154 0.0
N173 N 0.43851 0.37439 0.64544 0.0
C174 C 0.36117 0.54061 0.61532 0.0
C175 C 0.33878 0.53686 0.58635 0.0
N176 N 0.36347 0.51565 0.60853 0.0
N177 N 0.34964 0.51345 0.5905 0.0
N178 N 0.34577 0.55434 0.6016 0.0
H179 H 0.39171 0.56092 0.63185 0.0
H180 H 0.35972 0.56547 0.64347 0.0
H181 H 0.37723 0.53506 0.64736 0.0
C182 C 0.37299 0.55101 0.63578 0.0
C183 C 0.42434 0.38512 0.60727 0.0
H184 H 0.44135 0.39282 0.5981 0.0
H185 H 0.42308 0.36371 0.60448 0.0
H186 H 0.40636 0.39463 0.60106 0.0
O187 O 0.36941 0.42384 0.61775 0.0
O188 O 0.35006 0.46096 0.61001 0.0
C189 C 0.41565 0.46092 0.58494 0.0
O190 O 0.36516 0.48775 0.65075 0.0
O191 O 0.38352 0.45079 0.66056 0.0
Zn192 Zn 0.80149 0.15305 0.38013 0.0
O193 O 0.80235 0.17352 0.3501 0.0
C194 C 0.80971 0.10164 0.35873 0.0
Zn195 Zn 0.76369 0.13395 0.37163 0.0
C196 C 0.78433 0.16854 0.33653 0.0
O197 O 0.76682 0.15199 0.34138 0.0
C198 C 0.77875 0.11975 0.41581 0.0
O199 O 0.74284 0.16702 0.38288 0.0
O200 O 0.77995 0.1845 0.39349 0.0
N201 N 0.7302 0.11658 0.36082 0.0
C202 C 0.70615 0.11242 0.36916 0.0
C203 C 0.70559 0.09907 0.33647 0.0
N204 N 0.72977 0.10813 0.34057 0.0
N205 N 0.69031 0.10149 0.35411 0.0
C206 C 0.85731 0.17902 0.37982 0.0
C207 C 0.86191 0.18838 0.41323 0.0
N208 N 0.83571 0.1704 0.39025 0.0
N209 N 0.83875 0.17616 0.41099 0.0
N210 N 0.87406 0.19041 0.39395 0.0
H211 H 0.84938 0.19513 0.34866 0.0
H212 H 0.88109 0.18052 0.35065 0.0
H213 H 0.8523 0.16007 0.34903 0.0
C214 C 0.86044 0.1785 0.3557 0.0
C215 C 0.69804 0.12015 0.39158 0.0
H216 H 0.71137 0.13503 0.39844 0.0
H217 H 0.67769 0.12775 0.39153 0.0
H218 H 0.69878 0.10268 0.4022 0.0
O219 O 0.76053 0.11632 0.4021 0.0
O220 O 0.79875 0.13318 0.41055 0.0
C221 C 0.75517 0.18572 0.39183 0.0
O222 O 0.82255 0.1211 0.36601 0.0
O223 O 0.78492 0.10172 0.36006 0.0
Zn224 Zn 0.11789 0.51406 0.12075 0.0
O225 O 0.08412 0.49372 0.13081 0.0
C226 C 0.13108 0.52642 0.16573 0.0
Zn227 Zn 0.09905 0.55161 0.13023 0.0
C228 C 0.06501 0.5058 0.13939 0.0
O229 O 0.06639 0.53046 0.14197 0.0
C230 C 0.15145 0.55955 0.10987 0.0
O231 O 0.07961 0.55458 0.09981 0.0
O232 O 0.1006 0.51899 0.09033 0.0
N233 N 0.08253 0.58586 0.14105 0.0
C234 C 0.0745 0.60789 0.13097 0.0
C235 C 0.06764 0.61314 0.16472 0.0
N236 N 0.07822 0.58923 0.16201 0.0
N237 N 0.06499 0.62524 0.14549 0.0
C238 C 0.1387 0.45654 0.11792 0.0
C239 C 0.1519 0.45562 0.08519 0.0
N240 N 0.13452 0.48049 0.10943 0.0
N241 N 0.14282 0.47985 0.08914 0.0
N242 N 0.14962 0.44057 0.10298 0.0
H243 H 0.11505 0.46123 0.14669 0.0
H244 H 0.12448 0.4279 0.14069 0.0
H245 H 0.14805 0.45077 0.15127 0.0
C246 C 0.13091 0.44863 0.14038 0.0
C247 C 0.07746 0.61296 0.10722 0.0
H248 H 0.09518 0.60307 0.10087 0.0
H249 H 0.06011 0.60508 0.09861 0.0
H250 H 0.07882 0.63425 0.1039 0.0
O251 O 0.13215 0.57237 0.11748 0.0
O252 O 0.15086 0.53473 0.11026 0.0
C253 C 0.08456 0.53709 0.08576 0.0
O254 O 0.13478 0.5091 0.15132 0.0
O255 O 0.11784 0.54678 0.16109 0.0
Zn256 Zn 0.8028 0.65013 0.61933 0.0
O257 O 0.80538 0.66934 0.64993 0.0
C258 C 0.81163 0.59774 0.63919 0.0
Zn259 Zn 0.76556 0.63099 0.62911 0.0
C260 C 0.78825 0.66396 0.66417 0.0
O261 O 0.77045 0.64755 0.65975 0.0
C262 C 0.77755 0.61866 0.58375 0.0
O263 O 0.74471 0.6647 0.61972 0.0
O264 O 0.78106 0.68248 0.60783 0.0
N265 N 0.73227 0.61374 0.64033 0.0
C266 C 0.70812 0.61005 0.63208 0.0
C267 C 0.70776 0.59574 0.66451 0.0
N268 N 0.73198 0.60473 0.66042 0.0
N269 N 0.69237 0.59878 0.64699 0.0
C270 C 0.85856 0.6761 0.61852 0.0
C271 C 0.86183 0.68624 0.58516 0.0
N272 N 0.83666 0.66755 0.60852 0.0
N273 N 0.83886 0.67377 0.5878 0.0
N274 N 0.87468 0.68794 0.60414 0.0
H275 H 0.85182 0.69149 0.65012 0.0
H276 H 0.88345 0.67702 0.64708 0.0
H277 H 0.85484 0.65643 0.64912 0.0
C278 C 0.86263 0.67506 0.64253 0.0
C279 C 0.69975 0.61863 0.60993 0.0
H280 H 0.6793 0.62594 0.61027 0.0
H281 H 0.70067 0.60164 0.59879 0.0
H282 H 0.71277 0.63402 0.60345 0.0
O283 O 0.76048 0.61489 0.59835 0.0
O284 O 0.79815 0.63159 0.5883 0.0
C285 C 0.75648 0.68378 0.61083 0.0
O286 O 0.8242 0.61733 0.6318 0.0
O287 O 0.78679 0.59806 0.6389 0.0
Zn288 Zn 0.09854 0.05267 0.8695 0.0
O289 O 0.07921 0.05555 0.89998 0.0
C290 C 0.15107 0.06079 0.88946 0.0
Zn291 Zn 0.11758 0.01522 0.87879 0.0
C292 C 0.0844 0.0381 0.91399 0.0
O293 O 0.10055 0.02013 0.90932 0.0
C294 C 0.13043 0.02769 0.83381 0.0
O295 O 0.08378 0.99476 0.86898 0.0
O296 O 0.06591 0.03144 0.85785 0.0
N297 N 0.1344 0.98182 0.89012 0.0
C298 C 0.13847 0.95779 0.88178 0.0
C299 C 0.15209 0.95726 0.91441 0.0
N300 N 0.14296 0.98143 0.91034 0.0
N301 N 0.14958 0.942 0.89677 0.0
C302 C 0.07416 0.10891 0.86886 0.0
C303 C 0.06711 0.11419 0.83513 0.0
N304 N 0.08194 0.08683 0.85875 0.0
N305 N 0.07751 0.0902 0.83781 0.0
N306 N 0.0647 0.12631 0.85438 0.0
H307 H 0.05994 0.10623 0.90127 0.0
H308 H 0.07881 0.13527 0.89591 0.0
H309 H 0.09497 0.10398 0.8989 0.0
C310 C 0.07729 0.11398 0.8926 0.0
C311 C 0.13043 0.94961 0.85945 0.0
H312 H 0.11461 0.96224 0.85312 0.0
H313 H 0.12386 0.92892 0.85939 0.0
H314 H 0.14747 0.95148 0.84844 0.0
O315 O 0.13422 0.01024 0.84811 0.0
O316 O 0.11722 0.048 0.83863 0.0
C317 C 0.0646 0.00679 0.86046 0.0
O318 O 0.13159 0.07355 0.8821 0.0
O319 O 0.15059 0.03598 0.88901 0.0
Zn320 Zn 0.73333 0.36959 0.13024 0.0
O321 O 0.75299 0.33466 0.1219 0.0
C322 C 0.72295 0.38094 0.08453 0.0
Zn323 Zn 0.69552 0.35168 0.12039 0.0
C324 C 0.74052 0.31571 0.11348 0.0
O325 O 0.71606 0.31794 0.11016 0.0
C326 C 0.68844 0.40513 0.13873 0.0
O327 O 0.69104 0.3337 0.15129 0.0
O328 O 0.72679 0.35416 0.1611 0.0
N329 N 0.66126 0.33562 0.10925 0.0
C330 C 0.63894 0.32802 0.1191 0.0
C331 C 0.6344 0.32045 0.08538 0.0
N332 N 0.65833 0.3309 0.08831 0.0
N333 N 0.62187 0.31834 0.10446 0.0
C334 C 0.79132 0.38886 0.13379 0.0
C335 C 0.79142 0.40386 0.166 0.0
N336 N 0.76697 0.3858 0.14181 0.0
N337 N 0.76711 0.3952 0.16178 0.0
N338 N 0.80703 0.40019 0.14871 0.0
H339 H 0.82037 0.37249 0.11242 0.0
H340 H 0.79876 0.39615 0.10032 0.0
H341 H 0.78699 0.36381 0.10581 0.0
C342 C 0.79986 0.37959 0.11188 0.0
C343 C 0.63332 0.33156 0.14271 0.0
H344 H 0.64115 0.31451 0.15175 0.0
H345 H 0.61195 0.33283 0.14569 0.0
H346 H 0.64293 0.34953 0.14886 0.0
O347 O 0.67529 0.38581 0.13157 0.0
O348 O 0.71325 0.40378 0.13896 0.0
C349 C 0.7081 0.33881 0.16565 0.0
O350 O 0.73994 0.38455 0.09924 0.0
O351 O 0.70185 0.36892 0.08914 0.0
Zn352 Zn 0.37999 0.98475 0.37573 0.0
O353 O 0.41223 0.0072 0.36508 0.0
C354 C 0.36944 0.96786 0.33066 0.0
Zn355 Zn 0.40069 0.94761 0.36796 0.0
C356 C 0.43229 0.99545 0.3577 0.0
O357 O 0.4322 0.9706 0.35636 0.0
C358 C 0.34897 0.93718 0.38773 0.0
O359 O 0.41842 0.94863 0.39918 0.0
O360 O 0.39605 0.98417 0.40681 0.0
N361 N 0.42048 0.91418 0.35951 0.0
C362 C 0.42818 0.89272 0.37056 0.0
C363 C 0.4379 0.8865 0.3374 0.0
N364 N 0.42665 0.91025 0.33895 0.0
N365 N 0.4392 0.87513 0.35702 0.0
C366 C 0.36402 0.04127 0.39063 0.0
C367 C 0.32258 0.03883 0.38705 0.0
N368 N 0.35846 0.01717 0.38301 0.0
N369 N 0.33273 0.01578 0.3808 0.0
N370 N 0.34177 0.05521 0.3933 0.0
H371 H 0.40363 0.03387 0.40104 0.0
H372 H 0.39007 0.06479 0.40996 0.0
H373 H 0.39967 0.06036 0.38218 0.0
C374 C 0.39091 0.05052 0.39644 0.0
C375 C 0.42362 0.88846 0.39425 0.0
H376 H 0.40571 0.89877 0.39967 0.0
H377 H 0.44052 0.89642 0.4034 0.0
H378 H 0.42186 0.86729 0.39796 0.0
O379 O 0.36886 0.92499 0.38053 0.0
O380 O 0.34852 0.96196 0.38671 0.0
C381 C 0.41274 0.96699 0.4123 0.0
O382 O 0.36448 0.98554 0.34446 0.0
O383 O 0.38349 0.94844 0.33622 0.0
Zn384 Zn 0.23791 0.36478 0.37184 0.0
O385 O 0.25758 0.33104 0.38277 0.0
C386 C 0.22412 0.37904 0.41636 0.0
Zn387 Zn 0.19952 0.34724 0.38068 0.0
C388 C 0.24478 0.3127 0.39177 0.0
O389 O 0.22006 0.31473 0.39368 0.0
C390 C 0.19319 0.39915 0.35961 0.0
O391 O 0.19756 0.32718 0.35044 0.0
O392 O 0.23385 0.34736 0.34149 0.0
N393 N 0.16473 0.33123 0.3909 0.0
C394 C 0.14287 0.32333 0.3805 0.0
C395 C 0.13656 0.31724 0.41422 0.0
N396 N 0.16071 0.32738 0.41183 0.0
N397 N 0.12496 0.31439 0.3948 0.0
C398 C 0.29663 0.38167 0.36898 0.0
C399 C 0.29668 0.4018 0.33872 0.0
N400 N 0.27195 0.38118 0.36127 0.0
N401 N 0.27206 0.39373 0.34251 0.0
N402 N 0.31249 0.39448 0.35505 0.0
H403 H 0.30919 0.3465 0.38434 0.0
H404 H 0.32378 0.37533 0.39551 0.0
H405 H 0.29 0.36748 0.40137 0.0
C406 C 0.30544 0.36719 0.38879 0.0
C407 C 0.13855 0.32586 0.35661 0.0
H408 H 0.14635 0.30818 0.34843 0.0
H409 H 0.11739 0.32756 0.35284 0.0
H410 H 0.149 0.34321 0.35019 0.0
O411 O 0.1795 0.38024 0.36683 0.0
O412 O 0.21794 0.39788 0.36075 0.0
C413 C 0.21557 0.33162 0.33671 0.0
O414 O 0.242 0.38179 0.40228 0.0
O415 O 0.20335 0.36664 0.41139 0.0
Zn416 Zn 0.89961 0.9464 0.12947 0.0
O417 O 0.91883 0.94365 0.09884 0.0
C418 C 0.84731 0.93901 0.10923 0.0
Zn419 Zn 0.8815 0.9843 0.1199 0.0
C420 C 0.91409 0.96121 0.0848 0.0
O421 O 0.89832 0.97952 0.0894 0.0
C422 C 0.86834 0.97194 0.16506 0.0
O423 O 0.91558 0.00435 0.12985 0.0
O424 O 0.93239 0.96723 0.14109 0.0
N425 N 0.865 0.01813 0.10892 0.0
C426 C 0.86065 0.0418 0.11786 0.0
C427 C 0.84752 0.04357 0.08513 0.0
N428 N 0.85678 0.0193 0.08862 0.0
N429 N 0.84964 0.05809 0.10322 0.0
C430 C 0.92475 0.89016 0.13012 0.0
C431 C 0.93412 0.88638 0.16359 0.0
N432 N 0.91627 0.91207 0.14015 0.0
N433 N 0.92201 0.90954 0.16094 0.0
N434 N 0.93607 0.87372 0.14454 0.0
H435 H 0.94073 0.89717 0.09875 0.0
H436 H 0.92609 0.86557 0.10139 0.0
H437 H 0.90563 0.89429 0.09933 0.0
C438 C 0.92412 0.88635 0.10606 0.0
C439 C 0.86843 0.04924 0.14043 0.0
H440 H 0.88457 0.03677 0.14641 0.0
H441 H 0.87447 0.07007 0.14109 0.0
H442 H 0.8514 0.04653 0.15133 0.0
O443 O 0.86506 0.98918 0.15052 0.0
O444 O 0.88104 0.95119 0.16052 0.0
C445 C 0.93437 0.99183 0.13848 0.0
O446 O 0.86643 0.9259 0.11683 0.0
O447 O 0.84827 0.96383 0.10956 0.0
Zn448 Zn 0.30182 0.64975 0.87872 0.0
O449 O 0.3045 0.66893 0.84815 0.0
C450 C 0.30948 0.59712 0.85913 0.0
Zn451 Zn 0.26413 0.63127 0.86934 0.0
C452 C 0.28722 0.66365 0.83401 0.0
O453 O 0.26926 0.64748 0.83859 0.0
C454 C 0.27622 0.61881 0.91458 0.0
O455 O 0.2439 0.66533 0.87852 0.0
O456 O 0.28058 0.68252 0.89032 0.0
N457 N 0.23059 0.61447 0.85821 0.0
C458 C 0.20643 0.61103 0.8665 0.0
C459 C 0.20587 0.59659 0.83412 0.0
N460 N 0.23018 0.6054 0.83814 0.0
N461 N 0.19055 0.59983 0.85165 0.0
C462 C 0.35791 0.67517 0.87948 0.0
C463 C 0.36155 0.68455 0.91296 0.0
N464 N 0.336 0.66662 0.88947 0.0
N465 N 0.33844 0.67237 0.91026 0.0
N466 N 0.37426 0.68653 0.89393 0.0
H467 H 0.35081 0.69108 0.8481 0.0
H468 H 0.38255 0.67671 0.85078 0.0
H469 H 0.354 0.65602 0.84868 0.0
C470 C 0.36178 0.67457 0.85543 0.0
C471 C 0.19818 0.6198 0.88863 0.0
H472 H 0.17773 0.6271 0.88835 0.0
H473 H 0.19918 0.6029 0.89987 0.0
H474 H 0.21125 0.63525 0.89495 0.0
O475 O 0.25882 0.61553 0.90016 0.0
O476 O 0.29708 0.63119 0.90981 0.0
C477 C 0.25602 0.68425 0.88731 0.0
O478 O 0.32266 0.61657 0.86603 0.0
O479 O 0.28467 0.59794 0.85983 0.0
Zn480 Zn 0.6192 0.01463 0.61807 0.0
O481 O 0.58503 0.9945 0.62693 0.0
C482 C 0.63124 0.02639 0.66331 0.0
Zn483 Zn 0.60082 0.05242 0.62729 0.0
C484 C 0.56594 0.0067 0.63537 0.0
O485 O 0.56763 0.03128 0.63829 0.0
C486 C 0.65385 0.05984 0.60852 0.0
O487 O 0.58223 0.05593 0.59667 0.0
O488 O 0.60305 0.02028 0.5872 0.0
N489 N 0.5842 0.08645 0.63834 0.0
C490 C 0.57612 0.1087 0.62862 0.0
C491 C 0.56639 0.11174 0.66209 0.0
N492 N 0.57823 0.08851 0.65912 0.0
N493 N 0.56484 0.12489 0.64324 0.0
C494 C 0.63938 0.95701 0.61489 0.0
C495 C 0.65373 0.95663 0.58248 0.0
N496 N 0.63588 0.9812 0.60669 0.0
N497 N 0.64489 0.9809 0.5866 0.0
N498 N 0.65057 0.94123 0.59996 0.0
H499 H 0.61484 0.96141 0.64318 0.0
H500 H 0.62388 0.92808 0.63682 0.0
H501 H 0.64746 0.95025 0.64834 0.0
C502 C 0.63068 0.94869 0.63702 0.0
C503 C 0.57706 0.11308 0.60464 0.0
H504 H 0.56054 0.10244 0.59702 0.0
H505 H 0.57517 0.13395 0.60025 0.0
H506 H 0.59562 0.10526 0.59794 0.0
O507 O 0.63441 0.07315 0.61527 0.0
O508 O 0.65271 0.03505 0.6089 0.0
C509 C 0.5873 0.03861 0.58254 0.0
O510 O 0.63487 0.00891 0.64901 0.0
O511 O 0.61875 0.0471 0.65835 0.0
C512 C 0.29986 0.20103 0.18738 0.0
C513 C 0.28795 0.17639 0.1854 0.0
C514 C 0.2931 0.21763 0.20449 0.0
C515 C 0.25888 0.22056 0.25747 0.0
H516 H 0.2421 0.29132 0.23951 0.0
C517 C 0.20568 0.29176 0.31461 0.0
C518 C 0.21777 0.31631 0.31655 0.0
C519 C 0.21255 0.27494 0.29766 0.0
C520 C 0.24681 0.27167 0.24479 0.0
H521 H 0.26139 0.14891 0.2007 0.0
H522 H 0.2497 0.17772 0.23042 0.0
H523 H 0.26119 0.26091 0.21353 0.0
H524 H 0.24486 0.3434 0.3014 0.0
H525 H 0.25666 0.31426 0.27193 0.0
H526 H 0.24445 0.23134 0.28873 0.0
C527 C 0.26416 0.18435 0.21883 0.0
C528 C 0.25794 0.25431 0.22997 0.0
C529 C 0.27081 0.16785 0.20173 0.0
C530 C 0.2353 0.32451 0.30039 0.0
C531 C 0.24202 0.30784 0.28344 0.0
C532 C 0.24773 0.23792 0.27229 0.0
C533 C 0.27447 0.20978 0.21996 0.0
C534 C 0.26413 0.22857 0.23614 0.0
C535 C 0.23141 0.28254 0.28229 0.0
C536 C 0.24159 0.26367 0.26612 0.0
H537 H 0.31311 0.20815 0.17503 0.0
H538 H 0.30174 0.23696 0.20519 0.0
H539 H 0.2636 0.20091 0.26275 0.0
H540 H 0.19213 0.28491 0.32685 0.0
H541 H 0.20373 0.25569 0.29696 0.0
C542 C 0.42363 0.48136 0.54894 0.0
C543 C 0.43087 0.46285 0.56466 0.0
C544 C 0.44047 0.48739 0.53191 0.0
C545 C 0.49919 0.46638 0.50192 0.0
H546 H 0.5086 0.54101 0.4933 0.0
C547 C 0.58005 0.50631 0.4463 0.0
C548 C 0.57278 0.52645 0.43201 0.0
C549 C 0.56363 0.49907 0.46332 0.0
C550 C 0.50604 0.52012 0.49534 0.0
H551 H 0.46063 0.43478 0.574 0.0
H552 H 0.49015 0.44534 0.54409 0.0
H553 H 0.47701 0.52546 0.51986 0.0
H554 H 0.54308 0.55554 0.42496 0.0
H555 H 0.51433 0.54282 0.4546 0.0
H556 H 0.52808 0.46103 0.47725 0.0
C557 C 0.47141 0.45519 0.54502 0.0
C558 C 0.4879 0.51119 0.51053 0.0
C559 C 0.4545 0.44911 0.56212 0.0
C560 C 0.54935 0.54008 0.43577 0.0
C561 C 0.53285 0.53276 0.45277 0.0
C562 C 0.51729 0.47531 0.48664 0.0
C563 C 0.46493 0.47506 0.5302 0.0
C564 C 0.48418 0.48424 0.51391 0.0
C565 C 0.53951 0.51174 0.46641 0.0
C566 C 0.52088 0.50229 0.48314 0.0
H567 H 0.40541 0.49209 0.55029 0.0
H568 H 0.43467 0.50233 0.52043 0.0
H569 H 0.49661 0.4455 0.50407 0.0
H570 H 0.59806 0.49549 0.44391 0.0
H571 H 0.56962 0.4832 0.47383 0.0
C572 C 0.22919 0.82831 0.701 0.0
C573 C 0.21215 0.82004 0.68451 0.0
C574 C 0.2358 0.81153 0.71792 0.0
C575 C 0.24257 0.74147 0.72811 0.0
H576 H 0.25597 0.76352 0.78712 0.0
C577 C 0.26779 0.67037 0.7975 0.0
C578 C 0.28499 0.67889 0.8138 0.0
C579 C 0.26053 0.68712 0.78074 0.0
C580 C 0.25272 0.75719 0.77061 0.0
H581 H 0.18712 0.78843 0.67365 0.0
H582 H 0.19849 0.75904 0.70348 0.0
H583 H 0.23616 0.7941 0.76163 0.0
H584 H 0.30959 0.71095 0.82444 0.0
H585 H 0.29715 0.74021 0.79486 0.0
H586 H 0.25918 0.70458 0.73707 0.0
C587 C 0.20704 0.77843 0.70307 0.0
C588 C 0.24118 0.77464 0.75607 0.0
C589 C 0.20027 0.79534 0.68615 0.0
C590 C 0.29633 0.70383 0.8121 0.0
C591 C 0.28894 0.72068 0.79533 0.0
C592 C 0.25411 0.72402 0.74265 0.0
C593 C 0.22557 0.78605 0.7187 0.0
C594 C 0.23601 0.767 0.73464 0.0
C595 C 0.27027 0.71278 0.77991 0.0
C596 C 0.25937 0.73169 0.76406 0.0
H597 H 0.23858 0.8473 0.70021 0.0
H598 H 0.25018 0.818 0.72963 0.0
H599 H 0.23936 0.73516 0.71158 0.0
H600 H 0.25878 0.65121 0.79834 0.0
H601 H 0.24607 0.68043 0.76918 0.0
C602 C 0.9193 0.48315 0.95088 0.0
C603 C 0.92786 0.46563 0.93483 0.0
C604 C 0.93582 0.49027 0.96784 0.0
C605 C 0.99733 0.47368 0.99623 0.0
H606 H 0.99968 0.5484 0.00736 0.0
C607 C 0.07763 0.51771 0.04927 0.0
C608 C 0.06929 0.53501 0.06556 0.0
C609 C 0.0609 0.51084 0.0324 0.0
C610 C 0.9991 0.52749 0.00456 0.0
H611 H 0.9598 0.44049 0.92476 0.0
H612 H 0.98877 0.45298 0.95444 0.0
H613 H 0.96836 0.53102 0.98127 0.0
H614 H 0.03758 0.56014 0.0761 0.0
H615 H 0.00819 0.54806 0.04653 0.0
H616 H 0.02809 0.47014 0.01949 0.0
C617 C 0.96922 0.46116 0.95392 0.0
C618 C 0.98111 0.51749 0.98969 0.0
C619 C 0.95261 0.45394 0.93694 0.0
C620 C 0.04457 0.54683 0.06374 0.0
C621 C 0.02773 0.53985 0.04683 0.0
C622 C 0.01533 0.48368 0.01109 0.0
C623 C 0.9613 0.48009 0.96911 0.0
C624 C 0.98001 0.49047 0.98537 0.0
C625 C 0.03541 0.52104 0.03145 0.0
C626 C 0.01648 0.5107 0.01537 0.0
H627 H 0.90022 0.49231 0.94981 0.0
H628 H 0.92891 0.50438 0.97961 0.0
H629 H 0.99677 0.45276 0.99345 0.0
H630 H 0.09671 0.50849 0.0501 0.0
H631 H 0.06764 0.49685 0.02046 0.0
C632 C 0.72903 0.82839 0.7972 0.0
C633 C 0.71206 0.81988 0.81367 0.0
C634 C 0.73599 0.81166 0.78034 0.0
C635 C 0.74379 0.74166 0.77019 0.0
H636 H 0.75665 0.76377 0.71111 0.0
C637 C 0.76902 0.67068 0.70075 0.0
C638 C 0.78602 0.67927 0.68434 0.0
C639 C 0.76179 0.68741 0.71754 0.0
C640 C 0.75356 0.75743 0.72764 0.0
H641 H 0.68754 0.78787 0.82453 0.0
H642 H 0.69952 0.7586 0.7948 0.0
H643 H 0.73667 0.79418 0.73665 0.0
H644 H 0.8103 0.71148 0.6735 0.0
H645 H 0.7979 0.74073 0.70312 0.0
H646 H 0.76071 0.70492 0.76119 0.0
C647 C 0.70775 0.77812 0.7952 0.0
C648 C 0.74193 0.77478 0.74221 0.0
C649 C 0.70064 0.79497 0.81206 0.0
C650 C 0.79718 0.7043 0.68593 0.0
C651 C 0.78983 0.72114 0.70272 0.0
C652 C 0.75543 0.72431 0.75562 0.0
C653 C 0.7262 0.78601 0.77959 0.0
C654 C 0.73692 0.7671 0.76366 0.0
C655 C 0.77137 0.71314 0.71828 0.0
C656 C 0.76047 0.732 0.73418 0.0
H657 H 0.73808 0.84753 0.79796 0.0
H658 H 0.7503 0.81833 0.76864 0.0
H659 H 0.74072 0.73533 0.78673 0.0
H660 H 0.76014 0.65145 0.70001 0.0
H661 H 0.74748 0.68064 0.7292 0.0
C662 C 0.72619 0.3326 0.20267 0.0
C663 C 0.70917 0.32418 0.18621 0.0
C664 C 0.73249 0.31609 0.21985 0.0
C665 C 0.7383 0.24613 0.23084 0.0
H666 H 0.75233 0.26896 0.28955 0.0
C667 C 0.7633 0.17572 0.30069 0.0
C668 C 0.78114 0.18408 0.31657 0.0
C669 C 0.75579 0.19244 0.28399 0.0
C670 C 0.74888 0.26241 0.27313 0.0
H671 H 0.68377 0.29267 0.17574 0.0
H672 H 0.69455 0.26381 0.20604 0.0
H673 H 0.73281 0.29941 0.26377 0.0
H674 H 0.80642 0.21589 0.32662 0.0
H675 H 0.79346 0.24516 0.29716 0.0
H676 H 0.75442 0.20916 0.24017 0.0
C677 C 0.70336 0.28307 0.20538 0.0
C678 C 0.73752 0.27978 0.25842 0.0
C679 C 0.69694 0.29969 0.18818 0.0
C680 C 0.79266 0.20891 0.3146 0.0
C681 C 0.78501 0.22575 0.2979 0.0
C682 C 0.74965 0.22876 0.24554 0.0
C683 C 0.72194 0.29076 0.22094 0.0
C684 C 0.73215 0.27185 0.23709 0.0
C685 C 0.7659 0.21793 0.28282 0.0
C686 C 0.75511 0.23672 0.26684 0.0
H687 H 0.73585 0.35143 0.20164 0.0
H688 H 0.74691 0.32261 0.23151 0.0
H689 H 0.73495 0.23958 0.21439 0.0
H690 H 0.75415 0.15664 0.30174 0.0
H691 H 0.74098 0.18584 0.27271 0.0
C692 C 0.92083 0.98019 0.04816 0.0
C693 C 0.92931 0.96313 0.06456 0.0
C694 C 0.93751 0.98704 0.03123 0.0
C695 C 0.00752 0.99408 0.02057 0.0
H696 H 0.9848 0.00732 0.9617 0.0
C697 C 0.07784 0.01857 0.95049 0.0
C698 C 0.06926 0.03583 0.93425 0.0
C699 C 0.06125 0.01147 0.9674 0.0
C700 C 0.99132 0.00412 0.97817 0.0
H701 H 0.96122 0.93837 0.07528 0.0
H702 H 0.99039 0.95012 0.04541 0.0
H703 H 0.9545 0.98763 0.98747 0.0
H704 H 0.03726 0.06068 0.92386 0.0
H705 H 0.00823 0.04846 0.95369 0.0
H706 H 0.04435 0.01057 0.01126 0.0
C707 C 0.97093 0.95851 0.04591 0.0
C708 C 0.97402 0.99265 0.99288 0.0
C709 C 0.95414 0.95153 0.06285 0.0
C710 C 0.04441 0.04735 0.93614 0.0
C711 C 0.0277 0.04011 0.95306 0.0
C712 C 0.02483 0.00554 0.00586 0.0
C713 C 0.96307 0.97702 0.03034 0.0
C714 C 0.98192 0.98753 0.01425 0.0
C715 C 0.03567 0.02143 0.96845 0.0
C716 C 0.01691 0.01071 0.9845 0.0
H717 H 0.90175 0.98939 0.049 0.0
H718 H 0.93085 0.00141 0.01957 0.0
H719 H 0.01403 0.99091 0.03705 0.0
H720 H 0.09695 0.00943 0.94951 0.0
H721 H 0.06798 0.99699 0.97893 0.0
C722 C 0.45167 0.95747 0.43561 0.0
C723 C 0.42801 0.9709 0.43235 0.0
C724 C 0.46859 0.96493 0.45228 0.0
C725 C 0.48449 0.02282 0.48546 0.0
H726 H 0.52686 0.97368 0.51791 0.0
C727 C 0.54843 0.05036 0.55981 0.0
C728 C 0.57228 0.03696 0.56216 0.0
C729 C 0.53145 0.04409 0.54281 0.0
C730 C 0.5154 0.98766 0.50877 0.0
H731 H 0.40266 0.00141 0.44494 0.0
H732 H 0.43183 0.01389 0.4743 0.0
H733 H 0.49463 0.95734 0.49222 0.0
H734 H 0.59812 0.00828 0.5475 0.0
H735 H 0.56874 0.99771 0.51778 0.0
H736 H 0.5052 0.05313 0.50223 0.0
C737 C 0.43769 0.99814 0.46362 0.0
C738 C 0.49688 0.97829 0.49409 0.0
C739 C 0.42085 0.99078 0.44692 0.0
C740 C 0.57973 0.01874 0.54628 0.0
C741 C 0.56282 0.01251 0.52934 0.0
C742 C 0.50296 0.0322 0.50023 0.0
C743 C 0.4621 0.98586 0.46608 0.0
C744 C 0.48124 0.99574 0.48222 0.0
C745 C 0.5381 0.02436 0.52791 0.0
C746 C 0.5187 0.01471 0.51195 0.0
H747 H 0.4578 0.94216 0.42459 0.0
H748 H 0.48731 0.95513 0.45367 0.0
H749 H 0.4731 0.03682 0.47628 0.0
H750 H 0.54211 0.06444 0.57182 0.0
H751 H 0.51251 0.05357 0.54209 0.0
C752 C 0.16842 0.09915 0.91025 0.0
C753 C 0.17217 0.07395 0.90171 0.0
C754 C 0.18507 0.10865 0.92643 0.0
C755 C 0.20463 0.10873 0.97259 0.0
H756 H 0.27832 0.09278 0.98011 0.0
C757 C 0.2484 0.09713 0.05673 0.0
C758 C 0.27146 0.11104 0.06132 0.0
C759 C 0.23966 0.09444 0.03548 0.0
C760 C 0.2578 0.09757 0.97816 0.0
H761 H 0.19793 0.04019 0.90167 0.0
H762 H 0.22674 0.05665 0.92981 0.0
H763 H 0.25816 0.08831 0.94428 0.0
H764 H 0.30434 0.13158 0.04699 0.0
H765 H 0.28908 0.12653 0.00963 0.0
H766 H 0.20403 0.11741 0.00642 0.0
C767 C 0.21102 0.06912 0.92416 0.0
C768 C 0.24624 0.09494 0.9577 0.0
C769 C 0.19437 0.0596 0.90808 0.0
C770 C 0.28649 0.12074 0.044 0.0
C771 C 0.27775 0.11791 0.02262 0.0
C772 C 0.21611 0.11118 0.99296 0.0
C773 C 0.20582 0.09318 0.93426 0.0
C774 C 0.21938 0.09999 0.9548 0.0
C775 C 0.25379 0.10549 0.01826 0.0
C776 C 0.24263 0.10501 0.99609 0.0
H777 H 0.15156 0.11073 0.90563 0.0
H778 H 0.18085 0.1275 0.93365 0.0
H779 H 0.18385 0.11246 0.97106 0.0
H780 H 0.23648 0.08915 0.06963 0.0
H781 H 0.22144 0.08421 0.03255 0.0
C782 C 0.65533 0.50796 0.30189 0.0
C783 C 0.63886 0.52898 0.30736 0.0
C784 C 0.65796 0.50004 0.28043 0.0
C785 C 0.65171 0.51629 0.22368 0.0
H786 H 0.63622 0.44227 0.218 0.0
C787 C 0.64989 0.42459 0.15795 0.0
C788 C 0.67551 0.42719 0.14999 0.0
C789 C 0.64029 0.44222 0.17336 0.0
C790 C 0.64009 0.46306 0.21913 0.0
H791 H 0.61395 0.55954 0.29433 0.0
H792 H 0.61907 0.54579 0.25645 0.0
H793 H 0.63162 0.46348 0.25301 0.0
H794 H 0.71003 0.4519 0.15007 0.0
H795 H 0.69334 0.48248 0.17687 0.0
H796 H 0.66125 0.51549 0.18982 0.0
C797 C 0.62962 0.5354 0.269 0.0
C798 C 0.63776 0.47512 0.23926 0.0
C799 C 0.62679 0.54328 0.29064 0.0
C800 C 0.69027 0.44922 0.15605 0.0
C801 C 0.68064 0.46689 0.17134 0.0
C802 C 0.65436 0.50409 0.20345 0.0
C803 C 0.64439 0.51305 0.26389 0.0
C804 C 0.64418 0.50164 0.24186 0.0
C805 C 0.65607 0.46283 0.18097 0.0
C806 C 0.64908 0.47719 0.20109 0.0
H807 H 0.66516 0.49666 0.31431 0.0
H808 H 0.66987 0.48303 0.27683 0.0
H809 H 0.65668 0.53679 0.22531 0.0
H810 H 0.63798 0.40788 0.15354 0.0
H811 H 0.6211 0.43883 0.18026 0.0
C812 C 0.21525 0.87772 0.54387 0.0
C813 C 0.2302 0.88736 0.56126 0.0
C814 C 0.22414 0.8805 0.52252 0.0
C815 C 0.28613 0.88794 0.49301 0.0
H816 H 0.24348 0.90843 0.44397 0.0
C817 C 0.30582 0.93744 0.40658 0.0
C818 C 0.32851 0.92371 0.40051 0.0
C819 C 0.2897 0.92804 0.42308 0.0
C820 C 0.2556 0.90251 0.4575 0.0
H821 H 0.26518 0.90914 0.56972 0.0
H822 H 0.28042 0.91417 0.5327 0.0
H823 H 0.22345 0.90429 0.47984 0.0
H824 H 0.35066 0.88803 0.40549 0.0
H825 H 0.32227 0.8714 0.4342 0.0
H826 H 0.31844 0.8871 0.47114 0.0
C827 C 0.26218 0.90392 0.53553 0.0
C828 C 0.2441 0.90005 0.47799 0.0
C829 C 0.25332 0.9012 0.55676 0.0
C830 C 0.33337 0.89912 0.40985 0.0
C831 C 0.31724 0.88972 0.42644 0.0
C832 C 0.29756 0.89028 0.4726 0.0
C833 C 0.24816 0.89289 0.51823 0.0
C834 C 0.25943 0.89341 0.49606 0.0
C835 C 0.29592 0.90469 0.43392 0.0
C836 C 0.2826 0.89816 0.45466 0.0
H837 H 0.19737 0.86689 0.5468 0.0
H838 H 0.21287 0.87187 0.50951 0.0
H839 H 0.29837 0.88229 0.50654 0.0
H840 H 0.30141 0.95638 0.39958 0.0
H841 H 0.27354 0.94014 0.42842 0.0
C842 C 0.8501 0.58064 0.66 0.0
C843 C 0.82501 0.57666 0.65131 0.0
C844 C 0.8597 0.56395 0.67612 0.0
C845 C 0.85962 0.54404 0.72218 0.0
H846 H 0.84427 0.47019 0.72933 0.0
C847 C 0.84722 0.50001 0.80607 0.0
C848 C 0.8614 0.47715 0.81082 0.0
C849 C 0.84468 0.50866 0.78478 0.0
C850 C 0.84889 0.49075 0.72748 0.0
H851 H 0.79158 0.5505 0.65092 0.0
H852 H 0.80819 0.52163 0.67896 0.0
H853 H 0.84003 0.4905 0.69353 0.0
H854 H 0.88259 0.44454 0.79673 0.0
H855 H 0.8778 0.45966 0.75928 0.0
H856 H 0.86788 0.54454 0.75609 0.0
C857 C 0.82052 0.53754 0.67347 0.0
C858 C 0.8464 0.50239 0.70704 0.0
C859 C 0.81091 0.55423 0.65745 0.0
C860 C 0.87151 0.46221 0.79361 0.0
C861 C 0.86884 0.47087 0.77218 0.0
C862 C 0.86194 0.53248 0.74253 0.0
C863 C 0.84443 0.54294 0.68375 0.0
C864 C 0.85121 0.52932 0.70427 0.0
C865 C 0.85617 0.49467 0.76768 0.0
C866 C 0.85595 0.5059 0.74553 0.0
H867 H 0.86149 0.59769 0.65556 0.0
H868 H 0.87843 0.56835 0.68348 0.0
H869 H 0.86317 0.56486 0.72076 0.0
H870 H 0.83899 0.51192 0.81888 0.0
H871 H 0.83426 0.52676 0.78174 0.0
C872 C 0.80435 0.94092 0.09009 0.0
C873 C 0.8261 0.92617 0.09685 0.0
C874 C 0.78773 0.93153 0.07393 0.0
C875 C 0.75237 0.90595 0.04033 0.0
H876 H 0.79469 0.88153 0.99231 0.0
C877 C 0.71268 0.87929 0.95399 0.0
C878 C 0.72819 0.88825 0.93668 0.0
C879 C 0.72118 0.88238 0.97542 0.0
C880 C 0.78258 0.8883 0.00557 0.0
H881 H 0.84591 0.88886 0.09353 0.0
H882 H 0.81668 0.87233 0.06539 0.0
H883 H 0.81451 0.88673 0.02779 0.0
H884 H 0.76381 0.90912 0.92841 0.0
H885 H 0.77841 0.91454 0.96557 0.0
H886 H 0.72065 0.90838 0.0176 0.0
C887 C 0.81278 0.89138 0.07235 0.0
C888 C 0.79384 0.8909 0.02601 0.0
C889 C 0.8294 0.90076 0.08861 0.0
C890 C 0.7515 0.90172 0.94131 0.0
C891 C 0.75999 0.90468 0.96261 0.0
C892 C 0.74102 0.90317 0.0198 0.0
C893 C 0.79251 0.90719 0.06414 0.0
C894 C 0.77908 0.90034 0.04355 0.0
C895 C 0.74537 0.89433 0.97984 0.0
C896 C 0.75625 0.89501 0.00211 0.0
H897 H 0.80114 0.96051 0.09624 0.0
H898 H 0.77239 0.94427 0.06797 0.0
H899 H 0.74044 0.91311 0.05355 0.0
H900 H 0.69464 0.86879 0.95097 0.0
H901 H 0.70948 0.8743 0.98842 0.0
C902 C 0.30796 0.55205 0.84402 0.0
C903 C 0.3219 0.57545 0.84709 0.0
C904 C 0.31543 0.53438 0.82796 0.0
C905 C 0.31921 0.51825 0.78124 0.0
H906 H 0.38921 0.50185 0.76122 0.0
C907 C 0.3435 0.49577 0.69239 0.0
C908 C 0.36152 0.47575 0.68782 0.0
C909 C 0.33848 0.50318 0.71374 0.0
C910 C 0.36953 0.50598 0.76677 0.0
H911 H 0.35602 0.59756 0.83715 0.0
H912 H 0.36903 0.56672 0.80888 0.0
H913 H 0.38314 0.52249 0.79667 0.0
H914 H 0.38787 0.44729 0.70213 0.0
H915 H 0.37916 0.46046 0.73953 0.0
H916 H 0.3056 0.5025 0.75118 0.0
C917 C 0.35238 0.56196 0.81898 0.0
C918 C 0.36609 0.51796 0.78696 0.0
C919 C 0.34497 0.57962 0.83521 0.0
C920 C 0.37376 0.46269 0.70513 0.0
C921 C 0.36897 0.47036 0.72652 0.0
C922 C 0.32266 0.50652 0.76105 0.0
C923 C 0.33691 0.53981 0.8145 0.0
C924 C 0.34089 0.52454 0.79429 0.0
C925 C 0.35157 0.49093 0.73101 0.0
C926 C 0.34786 0.50066 0.75343 0.0
H927 H 0.29024 0.54817 0.85311 0.0
H928 H 0.30349 0.51718 0.82526 0.0
H929 H 0.29954 0.5234 0.7862 0.0
H930 H 0.33382 0.50627 0.67943 0.0
H931 H 0.32513 0.51925 0.71668 0.0
C932 C 0.78889 0.12293 0.4554 0.0
C933 C 0.77495 0.11103 0.43841 0.0
C934 C 0.78212 0.11795 0.47696 0.0
C935 C 0.74735 0.11892 0.51773 0.0
H936 H 0.72963 0.0492 0.53756 0.0
C937 C 0.6724 0.09527 0.58515 0.0
C938 C 0.67602 0.07216 0.59708 0.0
C939 C 0.69066 0.10256 0.56934 0.0
C940 C 0.7349 0.06879 0.5325 0.0
H941 H 0.74396 0.0836 0.43069 0.0
H942 H 0.73256 0.07452 0.46823 0.0
H943 H 0.7505 0.05487 0.50249 0.0
H944 H 0.7029 0.04035 0.60377 0.0
H945 H 0.73493 0.05339 0.57666 0.0
H946 H 0.73085 0.13287 0.54753 0.0
C947 C 0.74861 0.08778 0.46492 0.0
C948 C 0.74663 0.07202 0.5123 0.0
C949 C 0.7551 0.09302 0.44341 0.0
C950 C 0.69945 0.05809 0.5946 0.0
C951 C 0.71772 0.06545 0.57898 0.0
C952 C 0.73536 0.11571 0.53795 0.0
C953 C 0.76161 0.10065 0.4819 0.0
C954 C 0.75248 0.09712 0.5045 0.0
C955 C 0.71285 0.08693 0.56538 0.0
C956 C 0.7286 0.09062 0.54538 0.0
H957 H 0.80418 0.13703 0.45205 0.0
H958 H 0.79257 0.12798 0.48976 0.0
H959 H 0.75148 0.13853 0.51204 0.0
H960 H 0.65445 0.10642 0.58666 0.0
H961 H 0.68631 0.11921 0.55912 0.0
C962 C 0.19592 0.44367 0.34346 0.0
C963 C 0.18137 0.42075 0.34704 0.0
C964 C 0.18853 0.46133 0.32736 0.0
C965 C 0.13696 0.47882 0.2874 0.0
H966 H 0.19667 0.49362 0.25057 0.0
C967 C 0.15749 0.50106 0.19251 0.0
C968 C 0.13959 0.52127 0.18823 0.0
C969 C 0.1629 0.49355 0.21377 0.0
C970 C 0.17982 0.48979 0.26074 0.0
H971 H 0.14644 0.39945 0.33786 0.0
H972 H 0.13361 0.43024 0.30948 0.0
H973 H 0.20337 0.47238 0.28536 0.0
H974 H 0.11384 0.54996 0.20294 0.0
H975 H 0.12324 0.53663 0.24022 0.0
H976 H 0.11338 0.49545 0.26217 0.0
C977 C 0.15065 0.43466 0.31924 0.0
C978 C 0.18365 0.47785 0.28079 0.0
C979 C 0.15797 0.417 0.33551 0.0
C980 C 0.12786 0.53442 0.20572 0.0
C981 C 0.13304 0.52666 0.22704 0.0
C982 C 0.13314 0.49099 0.26733 0.0
C983 C 0.16655 0.45637 0.31435 0.0
C984 C 0.16225 0.47178 0.29422 0.0
C985 C 0.15035 0.5059 0.23125 0.0
C986 C 0.15451 0.49607 0.2536 0.0
H987 H 0.2139 0.44724 0.35227 0.0
H988 H 0.20083 0.4782 0.32435 0.0
H989 H 0.1201 0.47452 0.29742 0.0
H990 H 0.16679 0.49049 0.1794 0.0
H991 H 0.17616 0.47733 0.21647 0.0
C992 C 0.78587 0.62157 0.54369 0.0
C993 C 0.77138 0.61134 0.56111 0.0
C994 C 0.77684 0.61874 0.52239 0.0
C995 C 0.71475 0.61033 0.49339 0.0
H996 H 0.75701 0.59109 0.44378 0.0
C997 C 0.69446 0.56176 0.40674 0.0
C998 C 0.67164 0.57543 0.4009 0.0
C999 C 0.71067 0.57107 0.42321 0.0
C1000 C 0.74501 0.59667 0.45747 0.0
H1001 H 0.7371 0.5885 0.56967 0.0
H1002 H 0.72164 0.58341 0.53272 0.0
H1003 H 0.77749 0.59514 0.47949 0.0
H1004 H 0.64931 0.6109 0.40631 0.0
H1005 H 0.67783 0.62736 0.435 0.0
H1006 H 0.68213 0.61098 0.47183 0.0
C1007 C 0.73962 0.59411 0.5355 0.0
C1008 C 0.75676 0.59907 0.47787 0.0
C1009 C 0.74863 0.59686 0.55668 0.0
C1010 C 0.66669 0.59986 0.41049 0.0
C1011 C 0.68291 0.60916 0.42706 0.0
C1012 C 0.70307 0.60808 0.47307 0.0
C1013 C 0.75314 0.60573 0.51819 0.0
C1014 C 0.74157 0.60526 0.49613 0.0
C1015 C 0.7044 0.59426 0.43426 0.0
C1016 C 0.71791 0.60067 0.45493 0.0
H1017 H 0.80345 0.6329 0.54656 0.0
H1018 H 0.78771 0.62783 0.50935 0.0
H1019 H 0.70262 0.61562 0.50709 0.0
H1020 H 0.69893 0.54295 0.39955 0.0
H1021 H 0.72697 0.55903 0.42835 0.0
C1022 C 0.15642 0.00242 0.80668 0.0
C1023 C 0.13888 0.02285 0.81126 0.0
C1024 C 0.16184 0.9954 0.78531 0.0
C1025 C 0.13238 0.99493 0.73159 0.0
H1026 H 0.20232 0.97527 0.71354 0.0
C1027 C 0.19473 0.94736 0.65533 0.0
C1028 C 0.17976 0.92474 0.65161 0.0
C1029 C 0.18754 0.96512 0.67141 0.0
C1030 C 0.18269 0.98107 0.71811 0.0
H1031 H 0.11378 0.05242 0.79696 0.0
H1032 H 0.12318 0.03993 0.7595 0.0
H1033 H 0.19584 0.99578 0.74865 0.0
H1034 H 0.14423 0.90421 0.66044 0.0
H1035 H 0.13173 0.93517 0.68875 0.0
H1036 H 0.11919 0.97949 0.70118 0.0
C1037 C 0.13269 0.02941 0.77253 0.0
C1038 C 0.17899 0.99258 0.73835 0.0
C1039 C 0.12751 0.03668 0.79396 0.0
C1040 C 0.1561 0.92152 0.66288 0.0
C1041 C 0.14897 0.93927 0.67913 0.0
C1042 C 0.13607 0.9832 0.71133 0.0
C1043 C 0.14965 0.00846 0.76801 0.0
C1044 C 0.15377 0.99918 0.7455 0.0
C1045 C 0.16531 0.96057 0.68425 0.0
C1046 C 0.16125 0.97578 0.7045 0.0
H1047 H 0.16546 0.99134 0.81963 0.0
H1048 H 0.17481 0.97901 0.78235 0.0
H1049 H 0.11268 0.99966 0.73675 0.0
H1050 H 0.21293 0.95051 0.64671 0.0
H1051 H 0.20019 0.98168 0.67458 0.0
C1052 C 0.75295 0.40068 0.05715 0.0
C1053 C 0.72946 0.38756 0.06183 0.0
C1054 C 0.76168 0.40303 0.03586 0.0
C1055 C 0.74261 0.39983 0.97856 0.0
H1056 H 0.81654 0.38533 0.97088 0.0
C1057 C 0.83133 0.39878 0.91001 0.0
C1058 C 0.82692 0.42377 0.90128 0.0
C1059 C 0.81499 0.38908 0.92634 0.0
C1060 C 0.79575 0.38892 0.97257 0.0
H1061 H 0.69594 0.36795 0.04763 0.0
H1062 H 0.71122 0.37229 0.01025 0.0
H1063 H 0.79688 0.38055 0.00644 0.0
H1064 H 0.80031 0.45685 0.901 0.0
H1065 H 0.77211 0.44012 0.9294 0.0
H1066 H 0.74169 0.40863 0.94462 0.0
C1067 C 0.72287 0.38063 0.02317 0.0
C1068 C 0.78457 0.3866 0.99306 0.0
C1069 C 0.71411 0.3782 0.04457 0.0
C1070 C 0.80438 0.43762 0.90756 0.0
C1071 C 0.78807 0.42793 0.9238 0.0
C1072 C 0.75385 0.40226 0.95797 0.0
C1073 C 0.74715 0.39237 0.01869 0.0
C1074 C 0.75807 0.39269 0.99642 0.0
C1075 C 0.79393 0.40416 0.93414 0.0
C1076 C 0.78071 0.39738 0.95485 0.0
H1077 H 0.76515 0.40835 0.07001 0.0
H1078 H 0.78016 0.41278 0.03287 0.0
H1079 H 0.7221 0.40455 0.98065 0.0
H1080 H 0.84847 0.38758 0.90546 0.0
H1081 H 0.81972 0.37044 0.9337 0.0
C1082 C 0.35089 0.07769 0.15853 0.0
C1083 C 0.3256 0.07418 0.15012 0.0
C1084 C 0.36071 0.06038 0.17411 0.0
C1085 C 0.36065 0.03934 0.21981 0.0
H1086 H 0.34599 0.96516 0.22564 0.0
C1087 C 0.34605 0.99372 0.3025 0.0
C1088 C 0.36216 0.97234 0.30775 0.0
C1089 C 0.34356 0.002 0.28112 0.0
C1090 C 0.35041 0.98581 0.22412 0.0
H1091 H 0.29201 0.04823 0.14954 0.0
H1092 H 0.30904 0.01823 0.17661 0.0
H1093 H 0.34163 0.9864 0.19013 0.0
H1094 H 0.38663 0.94162 0.29441 0.0
H1095 H 0.38181 0.95603 0.2567 0.0
H1096 H 0.36849 0.03907 0.25379 0.0
C1097 C 0.32133 0.03427 0.17133 0.0
C1098 C 0.34788 0.99797 0.20388 0.0
C1099 C 0.31149 0.05161 0.15588 0.0
C1100 C 0.37406 0.95815 0.29088 0.0
C1101 C 0.3714 0.96641 0.26934 0.0
C1102 C 0.3629 0.02729 0.23996 0.0
C1103 C 0.34547 0.03919 0.18142 0.0
C1104 C 0.35244 0.02501 0.20162 0.0
C1105 C 0.35695 0.98904 0.26443 0.0
C1106 C 0.35715 0.0006 0.24244 0.0
H1107 H 0.36229 0.09483 0.15436 0.0
H1108 H 0.37958 0.06443 0.18135 0.0
H1109 H 0.36397 0.06023 0.21877 0.0
H1110 H 0.33636 0.00494 0.31503 0.0
H1111 H 0.33185 0.01919 0.2777 0.0
C1112 C 0.33262 0.39733 0.58984 0.0
C1113 C 0.32864 0.42249 0.59836 0.0
C1114 C 0.31577 0.38752 0.57392 0.0
C1115 C 0.29568 0.38727 0.52797 0.0
H1116 H 0.22205 0.40362 0.52061 0.0
C1117 C 0.2526 0.40039 0.44393 0.0
C1118 C 0.22956 0.38659 0.43905 0.0
C1119 C 0.26104 0.40288 0.46528 0.0
C1120 C 0.24254 0.39871 0.52251 0.0
H1121 H 0.3023 0.45579 0.59879 0.0
H1122 H 0.27322 0.43886 0.57109 0.0
H1123 H 0.2422 0.40739 0.55649 0.0
H1124 H 0.19633 0.36619 0.45294 0.0
H1125 H 0.21109 0.37085 0.49048 0.0
H1126 H 0.29627 0.37914 0.49405 0.0
C1127 C 0.28922 0.42662 0.57653 0.0
C1128 C 0.2541 0.40093 0.543 0.0
C1129 C 0.30605 0.43642 0.59236 0.0
C1130 C 0.21415 0.37697 0.45617 0.0
C1131 C 0.22262 0.37955 0.47765 0.0
C1132 C 0.2842 0.38519 0.50758 0.0
C1133 C 0.29463 0.40266 0.56634 0.0
C1134 C 0.28097 0.39583 0.54584 0.0
C1135 C 0.24665 0.39169 0.48229 0.0
C1136 C 0.25772 0.39159 0.50449 0.0
H1137 H 0.34979 0.38607 0.5942 0.0
H1138 H 0.32016 0.36874 0.56665 0.0
H1139 H 0.31646 0.38349 0.52943 0.0
H1140 H 0.26484 0.40825 0.43117 0.0
H1141 H 0.27931 0.41294 0.46843 0.0
C1142 C 0.87086 0.9638 0.20518 0.0
C1143 C 0.86065 0.97806 0.18761 0.0
C1144 C 0.8677 0.97295 0.22642 0.0
C1145 C 0.85927 0.03518 0.25479 0.0
H1146 H 0.83763 0.99429 0.30451 0.0
C1147 C 0.80837 0.05846 0.33989 0.0
C1148 C 0.82263 0.08083 0.34595 0.0
C1149 C 0.81776 0.04171 0.32382 0.0
C1150 C 0.8439 0.00589 0.29079 0.0
H1151 H 0.83734 0.01191 0.17874 0.0
H1152 H 0.83184 0.02768 0.21557 0.0
H1153 H 0.84241 0.97303 0.26913 0.0
H1154 H 0.85906 0.10182 0.3413 0.0
H1155 H 0.87557 0.07241 0.31324 0.0
H1156 H 0.85996 0.06817 0.27596 0.0
C1157 C 0.84274 0.00977 0.21294 0.0
C1158 C 0.84671 0.9937 0.27059 0.0
C1159 C 0.84578 0.00062 0.19184 0.0
C1160 C 0.84756 0.08482 0.33694 0.0
C1161 C 0.85692 0.06808 0.32075 0.0
C1162 C 0.85667 0.04727 0.2749 0.0
C1163 C 0.85439 0.99655 0.23038 0.0
C1164 C 0.85372 0.00843 0.25229 0.0
C1165 C 0.8416 0.04699 0.31338 0.0
C1166 C 0.84838 0.03294 0.29306 0.0
H1167 H 0.88246 0.94636 0.20246 0.0
H1168 H 0.87678 0.96232 0.2396 0.0
H1169 H 0.86514 0.04693 0.24103 0.0
H1170 H 0.78916 0.05472 0.34665 0.0
H1171 H 0.80539 0.02575 0.31851 0.0
C1172 C 0.19443 0.55823 0.09071 0.0
C1173 C 0.17244 0.57267 0.09742 0.0
C1174 C 0.21092 0.56779 0.07452 0.0
C1175 C 0.24597 0.59376 0.04091 0.0
H1176 H 0.20352 0.61755 0.99277 0.0
C1177 C 0.28564 0.62062 0.95455 0.0
C1178 C 0.27029 0.61139 0.93724 0.0
C1179 C 0.27711 0.61755 0.97598 0.0
C1180 C 0.21567 0.61096 0.00606 0.0
H1181 H 0.15203 0.60962 0.09394 0.0
H1182 H 0.18103 0.62647 0.06575 0.0
H1183 H 0.18363 0.61212 0.02819 0.0
H1184 H 0.23492 0.59009 0.92899 0.0
H1185 H 0.22028 0.58469 0.96613 0.0
H1186 H 0.27782 0.59173 0.01826 0.0
C1187 C 0.18522 0.60752 0.07278 0.0
C1188 C 0.20436 0.60822 0.02648 0.0
C1189 C 0.16873 0.59796 0.08907 0.0
C1190 C 0.24711 0.5977 0.94188 0.0
C1191 C 0.23859 0.59475 0.96318 0.0
C1192 C 0.25737 0.59668 0.02041 0.0
C1193 C 0.20576 0.592 0.06464 0.0
C1194 C 0.21918 0.599 0.04406 0.0
C1195 C 0.25305 0.60534 0.98041 0.0
C1196 C 0.2421 0.6046 0.00266 0.0
H1197 H 0.19795 0.53873 0.09695 0.0
H1198 H 0.22647 0.55527 0.06863 0.0
H1199 H 0.25796 0.58678 0.05416 0.0
H1200 H 0.30357 0.63131 0.95152 0.0
H1201 H 0.28869 0.62582 0.98897 0.0
C1202 C 0.62712 0.03497 0.70312 0.0
C1203 C 0.63891 0.0212 0.68598 0.0
C1204 C 0.63155 0.02746 0.7246 0.0
C1205 C 0.67676 0.99078 0.75957 0.0
H1206 H 0.61599 0.97683 0.79545 0.0
C1207 C 0.65347 0.91964 0.83465 0.0
C1208 C 0.67658 0.92379 0.84648 0.0
C1209 C 0.64622 0.93713 0.81823 0.0
C1210 C 0.63313 0.98081 0.78566 0.0
H1211 H 0.6654 0.98948 0.67796 0.0
H1212 H 0.67354 0.97678 0.71538 0.0
H1213 H 0.61032 0.99684 0.75968 0.0
H1214 H 0.70846 0.95088 0.85224 0.0
H1215 H 0.69552 0.98154 0.82404 0.0
H1216 H 0.69955 0.97403 0.78498 0.0
C1217 C 0.66078 0.99329 0.71223 0.0
C1218 C 0.62991 0.99242 0.76529 0.0
C1219 C 0.65608 0.00053 0.69079 0.0
C1220 C 0.69071 0.94703 0.84319 0.0
C1221 C 0.68341 0.9645 0.82694 0.0
C1222 C 0.67999 0.97946 0.77993 0.0
C1223 C 0.64819 0.00633 0.72933 0.0
C1224 C 0.65168 0.99699 0.75187 0.0
C1225 C 0.66191 0.95904 0.81352 0.0
C1226 C 0.6582 0.97391 0.79308 0.0
H1227 H 0.61364 0.05087 0.69992 0.0
H1228 H 0.62174 0.03795 0.7375 0.0
H1229 H 0.69388 0.99422 0.74962 0.0
H1230 H 0.64227 0.90183 0.83676 0.0
H1231 H 0.62954 0.93236 0.80816 0.0
C1232 C 0.40219 0.22557 0.09848 0.0
C1233 C 0.39928 0.20052 0.10749 0.0
C1234 C 0.42606 0.23875 0.09979 0.0
C1235 C 0.48749 0.24372 0.12968 0.0
H1236 H 0.51501 0.27112 0.07578 0.0
C1237 C 0.59227 0.28703 0.12251 0.0
C1238 C 0.5963 0.30727 0.10754 0.0
C1239 C 0.56797 0.27443 0.12377 0.0
C1240 C 0.50749 0.2641 0.0911 0.0
H1241 H 0.41939 0.16912 0.1241 0.0
H1242 H 0.46108 0.1927 0.12727 0.0
H1243 H 0.47312 0.24862 0.07598 0.0
H1244 H 0.5783 0.33082 0.08265 0.0
H1245 H 0.53552 0.3099 0.0854 0.0
H1246 H 0.5215 0.25977 0.14496 0.0
C1247 C 0.44465 0.20223 0.11948 0.0
C1248 C 0.48351 0.25102 0.09114 0.0
C1249 C 0.42078 0.18886 0.11787 0.0
C1250 C 0.57554 0.3152 0.09427 0.0
C1251 C 0.55116 0.30298 0.09575 0.0
C1252 C 0.51137 0.25721 0.12972 0.0
C1253 C 0.44758 0.22718 0.1102 0.0
C1254 C 0.47324 0.24074 0.11041 0.0
C1255 C 0.54715 0.28202 0.11018 0.0
C1256 C 0.52168 0.26766 0.11041 0.0
H1257 H 0.38595 0.23481 0.09021 0.0
H1258 H 0.42774 0.25799 0.09257 0.0
H1259 H 0.4799 0.23609 0.14479 0.0
H1260 H 0.60823 0.2803 0.1326 0.0
H1261 H 0.56586 0.25818 0.13486 0.0
C1262 C 0.55718 0.66737 0.37377 0.0
C1263 C 0.54422 0.64661 0.3634 0.0
C1264 C 0.54498 0.69183 0.37592 0.0
C1265 C 0.49817 0.73289 0.34771 0.0
H1266 H 0.49254 0.77309 0.40072 0.0
C1267 C 0.43946 0.82822 0.34875 0.0
C1268 C 0.44871 0.84917 0.3612 0.0
C1269 C 0.45023 0.80329 0.35106 0.0
C1270 C 0.49424 0.76231 0.3857 0.0
H1271 H 0.50864 0.63508 0.34707 0.0
H1272 H 0.48747 0.67781 0.35044 0.0
H1273 H 0.51361 0.73003 0.40128 0.0
H1274 H 0.47626 0.86076 0.38592 0.0
H1275 H 0.49601 0.81724 0.38957 0.0
H1276 H 0.47991 0.76506 0.3318 0.0
C1277 C 0.50685 0.67513 0.3572 0.0
C1278 C 0.50622 0.7376 0.38609 0.0
C1279 C 0.51888 0.65071 0.35532 0.0
C1280 C 0.46866 0.84471 0.37636 0.0
C1281 C 0.47987 0.81977 0.37843 0.0
C1282 C 0.48662 0.75762 0.34724 0.0
C1283 C 0.5199 0.69605 0.36723 0.0
C1284 C 0.50798 0.72255 0.36712 0.0
C1285 C 0.47109 0.79879 0.3655 0.0
C1286 C 0.48412 0.7726 0.36626 0.0
H1287 H 0.57714 0.66506 0.37932 0.0
H1288 H 0.55562 0.70775 0.38343 0.0
H1289 H 0.49973 0.72192 0.33275 0.0
H1290 H 0.42396 0.83129 0.33707 0.0
H1291 H 0.44232 0.78759 0.34128 0.0
C1292 C 0.90187 0.72694 0.59837 0.0
C1293 C 0.89879 0.70194 0.60742 0.0
C1294 C 0.92581 0.74002 0.59973 0.0
C1295 C 0.98751 0.7443 0.62965 0.0
H1296 H 0.0147 0.77252 0.57593 0.0
C1297 C 0.09268 0.78674 0.62215 0.0
C1298 C 0.0967 0.8073 0.60747 0.0
C1299 C 0.06827 0.77436 0.62347 0.0
C1300 C 0.00728 0.76526 0.5912 0.0
H1301 H 0.91866 0.67051 0.62419 0.0
H1302 H 0.96047 0.69386 0.6274 0.0
H1303 H 0.97267 0.75032 0.57611 0.0
H1304 H 0.07853 0.83161 0.58317 0.0
H1305 H 0.0356 0.81103 0.58602 0.0
H1306 H 0.02183 0.75974 0.64489 0.0
C1307 C 0.94413 0.70347 0.61955 0.0
C1308 C 0.9832 0.75236 0.59124 0.0
C1309 C 0.92019 0.69022 0.61792 0.0
C1310 C 0.0758 0.81575 0.59456 0.0
C1311 C 0.05132 0.80372 0.5961 0.0
C1312 C 0.01151 0.75757 0.6297 0.0
C1313 C 0.94724 0.72837 0.61022 0.0
C1314 C 0.97301 0.74179 0.61044 0.0
C1315 C 0.04731 0.78246 0.61023 0.0
C1316 C 0.02171 0.76832 0.61046 0.0
H1317 H 0.88572 0.73623 0.59001 0.0
H1318 H 0.9276 0.75923 0.59248 0.0
H1319 H 0.98001 0.73645 0.64471 0.0
H1320 H 0.10873 0.77958 0.63195 0.0
H1321 H 0.06615 0.75787 0.63432 0.0
C1322 C 0.94072 0.33069 0.86918 0.0
C1323 C 0.95294 0.35194 0.85889 0.0
C1324 C 0.95354 0.30652 0.87081 0.0
C1325 C 0.0015 0.26676 0.84235 0.0
H1326 H 0.0085 0.22755 0.89576 0.0
C1327 C 0.06291 0.17287 0.84477 0.0
C1328 C 0.0542 0.15208 0.85767 0.0
C1329 C 0.05138 0.19755 0.8465 0.0
C1330 C 0.00641 0.23804 0.88063 0.0
H1331 H 0.98769 0.36455 0.84188 0.0
H1332 H 0.00993 0.32225 0.84431 0.0
H1333 H 0.98611 0.26988 0.89594 0.0
H1334 H 0.02659 0.14043 0.88234 0.0
H1335 H 0.00566 0.1834 0.88502 0.0
H1336 H 0.02079 0.23494 0.82675 0.0
C1337 C 0.99067 0.32435 0.85143 0.0
C1338 C 0.99367 0.26233 0.8808 0.0
C1339 C 0.97803 0.34852 0.85008 0.0
C1340 C 0.03389 0.15639 0.87252 0.0
C1341 C 0.02198 0.18102 0.87402 0.0
C1342 C 0.01383 0.2424 0.84211 0.0
C1343 C 0.97849 0.30305 0.86166 0.0
C1344 C 0.99134 0.27702 0.86168 0.0
C1345 C 0.03035 0.20189 0.86081 0.0
C1346 C 0.01675 0.22776 0.86127 0.0
H1347 H 0.92093 0.3325 0.87525 0.0
H1348 H 0.94354 0.29028 0.87846 0.0
H1349 H 0.99956 0.27747 0.8273 0.0
H1350 H 0.07862 0.1699 0.83326 0.0
H1351 H 0.0589 0.21319 0.83645 0.0
C1352 C 0.57607 0.81305 0.90425 0.0
C1353 C 0.59685 0.80493 0.89107 0.0
C1354 C 0.55162 0.80097 0.90276 0.0
C1355 C 0.51151 0.75556 0.86877 0.0
H1356 H 0.47308 0.74728 0.92246 0.0
C1357 C 0.41968 0.68869 0.87994 0.0
C1358 C 0.39849 0.70037 0.89074 0.0
C1359 C 0.44375 0.70173 0.87841 0.0
C1360 C 0.4835 0.7496 0.90731 0.0
H1361 H 0.6087 0.7777 0.86617 0.0
H1362 H 0.56616 0.75588 0.86385 0.0
H1363 H 0.51523 0.76928 0.92274 0.0
H1364 H 0.38589 0.73436 0.90878 0.0
H1365 H 0.42799 0.75699 0.90649 0.0
H1366 H 0.47977 0.73496 0.85361 0.0
C1367 C 0.56836 0.77217 0.87489 0.0
C1368 C 0.50765 0.76238 0.9074 0.0
C1369 C 0.59275 0.78461 0.87618 0.0
C1370 C 0.40189 0.72511 0.90019 0.0
C1371 C 0.42595 0.73797 0.89893 0.0
C1372 C 0.48743 0.74241 0.86875 0.0
C1373 C 0.54752 0.77997 0.88839 0.0
C1374 C 0.52191 0.76584 0.88811 0.0
C1375 C 0.44719 0.72637 0.88815 0.0
C1376 C 0.47308 0.73955 0.888 0.0
H1377 H 0.57886 0.82874 0.91581 0.0
H1378 H 0.53599 0.80804 0.91304 0.0
H1379 H 0.52171 0.75804 0.85355 0.0
H1380 H 0.4179 0.66916 0.87334 0.0
H1381 H 0.45994 0.69216 0.87032 0.0
C1382 C 0.4417 0.32819 0.65591 0.0
C1383 C 0.44952 0.34879 0.64244 0.0
C1384 C 0.4536 0.30368 0.65429 0.0
C1385 C 0.49754 0.26313 0.61941 0.0
H1386 H 0.50694 0.22463 0.67294 0.0
C1387 C 0.5636 0.17056 0.62984 0.0
C1388 C 0.55147 0.1494 0.64032 0.0
C1389 C 0.55097 0.19485 0.62854 0.0
C1390 C 0.50432 0.23511 0.65785 0.0
H1391 H 0.47597 0.36033 0.61688 0.0
H1392 H 0.49757 0.31768 0.61436 0.0
H1393 H 0.48555 0.2671 0.67365 0.0
H1394 H 0.51715 0.13706 0.65807 0.0
H1395 H 0.49528 0.1796 0.65623 0.0
H1396 H 0.51729 0.23112 0.60386 0.0
C1397 C 0.48164 0.32006 0.62574 0.0
C1398 C 0.49188 0.25941 0.65819 0.0
C1399 C 0.46936 0.3445 0.62715 0.0
C1400 C 0.52673 0.15304 0.64972 0.0
C1401 C 0.5143 0.17733 0.64871 0.0
C1402 C 0.5104 0.23891 0.61914 0.0
C1403 C 0.47412 0.29937 0.63948 0.0
C1404 C 0.488 0.27367 0.63895 0.0
C1405 C 0.52634 0.19851 0.63821 0.0
C1406 C 0.51362 0.22457 0.63834 0.0
H1407 H 0.42635 0.33115 0.66775 0.0
H1408 H 0.44673 0.28816 0.66477 0.0
H1409 H 0.4947 0.27332 0.60423 0.0
H1410 H 0.58316 0.16857 0.62333 0.0
H1411 H 0.56085 0.21102 0.62068 0.0
C1412 C 0.0948 0.28372 0.37645 0.0
C1413 C 0.09912 0.30406 0.39129 0.0
C1414 C 0.07012 0.27187 0.37491 0.0
C1415 C 0.00878 0.26369 0.4069 0.0
H1416 H 0.98075 0.23656 0.35307 0.0
C1417 C 0.90237 0.22859 0.39981 0.0
C1418 C 0.89839 0.20394 0.39036 0.0
C1419 C 0.92665 0.24099 0.39839 0.0
C1420 C 0.98845 0.24393 0.36823 0.0
H1421 H 0.0812 0.32853 0.41562 0.0
H1422 H 0.03791 0.30885 0.41241 0.0
H1423 H 0.02328 0.25859 0.35319 0.0
H1424 H 0.917 0.17247 0.37268 0.0
H1425 H 0.95946 0.19463 0.36945 0.0
H1426 H 0.97375 0.24952 0.42182 0.0
C1427 C 0.05356 0.30131 0.40237 0.0
C1428 C 0.01286 0.25649 0.36834 0.0
C1429 C 0.07826 0.31282 0.40411 0.0
C1430 C 0.91922 0.19194 0.37931 0.0
C1431 C 0.94354 0.20451 0.37765 0.0
C1432 C 0.98434 0.25149 0.40672 0.0
C1433 C 0.04923 0.28026 0.3881 0.0
C1434 C 0.02332 0.26667 0.38769 0.0
C1435 C 0.94759 0.22901 0.38748 0.0
C1436 C 0.97383 0.24158 0.38739 0.0
H1437 H 0.11078 0.27633 0.3667 0.0
H1438 H 0.06772 0.25554 0.36393 0.0
H1439 H 0.01638 0.27051 0.42225 0.0
H1440 H 0.88666 0.23808 0.40858 0.0
H1441 H 0.92913 0.25993 0.406 0.0
C1442 C 0.03384 0.65498 0.12727 0.0
C1443 C 0.05407 0.65087 0.14226 0.0
C1444 C 0.02147 0.6794 0.12586 0.0
C1445 C 0.01171 0.74028 0.15817 0.0
H1446 H 0.98445 0.768 0.10427 0.0
C1447 C 0.97466 0.84606 0.15073 0.0
C1448 C 0.94991 0.84949 0.14129 0.0
C1449 C 0.9875 0.82199 0.14947 0.0
C1450 C 0.99186 0.76038 0.11944 0.0
H1451 H 0.07781 0.66891 0.16701 0.0
H1452 H 0.05726 0.71182 0.16402 0.0
H1453 H 0.00744 0.726 0.10436 0.0
H1454 H 0.91868 0.83013 0.12389 0.0
H1455 H 0.94164 0.78806 0.12089 0.0
H1456 H 0.99666 0.77494 0.17311 0.0
C1457 C 0.05019 0.69617 0.15377 0.0
C1458 C 0.00496 0.73627 0.11955 0.0
C1459 C 0.06219 0.67169 0.15539 0.0
C1460 C 0.93821 0.82832 0.13049 0.0
C1461 C 0.95123 0.80423 0.12896 0.0
C1462 C 0.99899 0.76445 0.15799 0.0
C1463 C 0.02926 0.70028 0.13931 0.0
C1464 C 0.01518 0.72592 0.13893 0.0
C1465 C 0.97586 0.80075 0.13871 0.0
C1466 C 0.989 0.77482 0.13864 0.0
H1467 H 0.02694 0.639 0.11729 0.0
H1468 H 0.00525 0.6816 0.11475 0.0
H1469 H 0.01855 0.73274 0.17354 0.0
H1470 H 0.98393 0.86204 0.15931 0.0
H1471 H 0.00652 0.81992 0.15703 0.0
C1472 C 0.21705 0.21082 0.11492 0.0
C1473 C 0.24308 0.20766 0.108 0.0
C1474 C 0.20466 0.23509 0.11317 0.0
C1475 C 0.19241 0.29236 0.12239 0.0
H1476 H 0.19968 0.33642 0.07166 0.0
C1477 C 0.1699 0.40336 0.12238 0.0
C1478 C 0.15675 0.4134 0.10424 0.0
C1479 C 0.17835 0.37733 0.12265 0.0
C1480 C 0.19728 0.32426 0.08588 0.0
H1481 H 0.27612 0.22721 0.093 0.0
H1482 H 0.25441 0.26951 0.08986 0.0
H1483 H 0.21778 0.29222 0.07133 0.0
H1484 H 0.1421 0.40429 0.07225 0.0
H1485 H 0.15686 0.35883 0.07266 0.0
H1486 H 0.17202 0.32447 0.13699 0.0
C1487 C 0.2436 0.25321 0.09661 0.0
C1488 C 0.20784 0.29906 0.08574 0.0
C1489 C 0.25606 0.22899 0.09848 0.0
C1490 C 0.15217 0.39695 0.08644 0.0
C1491 C 0.16068 0.37102 0.08665 0.0
C1492 C 0.18199 0.31764 0.12258 0.0
C1493 C 0.21796 0.25663 0.10433 0.0
C1494 C 0.20562 0.28289 0.10403 0.0
C1495 C 0.17408 0.36099 0.10468 0.0
C1496 C 0.18442 0.33388 0.10436 0.0
H1497 H 0.20647 0.19476 0.12228 0.0
H1498 H 0.18476 0.23709 0.11898 0.0
H1499 H 0.19064 0.28044 0.13682 0.0
H1500 H 0.1745 0.41582 0.136 0.0
H1501 H 0.18903 0.37026 0.13663 0.0
C1502 C 0.35616 0.39471 0.33857 0.0
C1503 C 0.33993 0.40011 0.35632 0.0
C1504 C 0.38215 0.40316 0.3384 0.0
C1505 C 0.44002 0.41442 0.34617 0.0
H1506 H 0.45085 0.48585 0.36531 0.0
C1507 C 0.54222 0.4625 0.35689 0.0
C1508 C 0.54446 0.48918 0.35168 0.0
C1509 C 0.51795 0.44993 0.35582 0.0
C1510 C 0.44813 0.46595 0.35971 0.0
H1511 H 0.33769 0.41886 0.38763 0.0
H1512 H 0.38341 0.43315 0.38774 0.0
H1513 H 0.40753 0.46647 0.36793 0.0
H1514 H 0.52334 0.5231 0.33976 0.0
H1515 H 0.4812 0.50108 0.33757 0.0
H1516 H 0.48069 0.4142 0.33759 0.0
C1517 C 0.37613 0.4223 0.37393 0.0
C1518 C 0.42337 0.4547 0.36153 0.0
C1519 C 0.35014 0.4138 0.37407 0.0
C1520 C 0.52227 0.50259 0.34409 0.0
C1521 C 0.49806 0.49003 0.34299 0.0
C1522 C 0.46489 0.42569 0.34439 0.0
C1523 C 0.39229 0.41748 0.35592 0.0
C1524 C 0.41899 0.42884 0.35475 0.0
C1525 C 0.49546 0.46381 0.34949 0.0
C1526 C 0.46915 0.45165 0.35103 0.0
H1527 H 0.34844 0.38451 0.3246 0.0
H1528 H 0.39395 0.39944 0.32416 0.0
H1529 H 0.43728 0.3944 0.34091 0.0
H1530 H 0.55893 0.45161 0.36279 0.0
H1531 H 0.51658 0.42973 0.36099 0.0
C1532 C 0.28071 0.78456 0.61035 0.0
C1533 C 0.25402 0.78842 0.6058 0.0
C1534 C 0.2919 0.75971 0.60842 0.0
C1535 C 0.27281 0.69077 0.61101 0.0
H1536 H 0.3421 0.67721 0.58797 0.0
C1537 C 0.31045 0.58642 0.59739 0.0
C1538 C 0.33653 0.58085 0.60279 0.0
C1539 C 0.30126 0.61209 0.59758 0.0
C1540 C 0.32285 0.68076 0.5947 0.0
H1541 H 0.21852 0.76955 0.59447 0.0
H1542 H 0.23812 0.72633 0.59093 0.0
H1543 H 0.3245 0.72171 0.58727 0.0
H1544 H 0.37383 0.59785 0.61165 0.0
H1545 H 0.3576 0.6429 0.61265 0.0
H1546 H 0.27111 0.65005 0.61862 0.0
C1547 C 0.25026 0.74241 0.59636 0.0
C1548 C 0.31276 0.7062 0.59423 0.0
C1549 C 0.23909 0.76722 0.59825 0.0
C1550 C 0.35343 0.60153 0.6081 0.0
C1551 C 0.34424 0.62732 0.6083 0.0
C1552 C 0.28289 0.66544 0.61154 0.0
C1553 C 0.2766 0.73827 0.60194 0.0
C1554 C 0.28754 0.7114 0.60223 0.0
C1555 C 0.31801 0.63285 0.60309 0.0
C1556 C 0.30793 0.66008 0.60324 0.0
H1557 H 0.29277 0.80051 0.61616 0.0
H1558 H 0.31222 0.7571 0.6129 0.0
H1559 H 0.25356 0.69426 0.61776 0.0
H1560 H 0.29714 0.57081 0.59303 0.0
H1561 H 0.2811 0.61569 0.59308 0.0
C1562 C 0.95999 0.53514 0.86342 0.0
C1563 C 0.95698 0.50914 0.85642 0.0
C1564 C 0.9841 0.54779 0.86142 0.0
C1565 C 0.04134 0.5603 0.8703 0.0
H1566 H 0.08552 0.55262 0.81966 0.0
C1567 C 0.1526 0.58088 0.87091 0.0
C1568 C 0.1632 0.59348 0.85273 0.0
C1569 C 0.12636 0.57312 0.87103 0.0
C1570 C 0.07332 0.55518 0.83385 0.0
H1571 H 0.97658 0.47644 0.84095 0.0
H1572 H 0.01858 0.49853 0.83744 0.0
H1573 H 0.04114 0.53505 0.81919 0.0
H1574 H 0.15489 0.60794 0.82054 0.0
H1575 H 0.10903 0.59448 0.8207 0.0
H1576 H 0.07359 0.58031 0.88499 0.0
C1577 C 0.0023 0.50916 0.84442 0.0
C1578 C 0.04801 0.54491 0.83363 0.0
C1579 C 0.97825 0.49646 0.84651 0.0
C1580 C 0.1471 0.59828 0.83475 0.0
C1581 C 0.12094 0.5905 0.83483 0.0
C1582 C 0.06671 0.57047 0.87055 0.0
C1583 C 0.00562 0.53475 0.85226 0.0
C1584 C 0.03183 0.54718 0.85191 0.0
C1585 C 0.11035 0.5776 0.85288 0.0
C1586 C 0.08303 0.56784 0.85238 0.0
H1587 H 0.944 0.54545 0.87114 0.0
H1588 H 0.98601 0.56764 0.86734 0.0
H1589 H 0.02942 0.5621 0.88472 0.0
H1590 H 0.16478 0.57616 0.88468 0.0
H1591 H 0.11886 0.5628 0.88503 0.0
C1592 C 0.78231 0.7875 0.88691 0.0
C1593 C 0.75575 0.79033 0.8924 0.0
C1594 C 0.79479 0.76337 0.88921 0.0
C1595 C 0.79003 0.69867 0.91538 0.0
H1596 H 0.82897 0.67485 0.86518 0.0
C1597 C 0.84384 0.59952 0.91393 0.0
C1598 C 0.83983 0.58424 0.89537 0.0
C1599 C 0.83609 0.62571 0.91431 0.0
C1600 C 0.81816 0.68125 0.8793 0.0
H1601 H 0.72184 0.7704 0.90562 0.0
H1602 H 0.7437 0.72827 0.90968 0.0
H1603 H 0.81061 0.71893 0.86559 0.0
H1604 H 0.8237 0.58372 0.86302 0.0
H1605 H 0.81054 0.62977 0.86339 0.0
H1606 H 0.79702 0.66073 0.92885 0.0
C1607 C 0.75484 0.74474 0.90362 0.0
C1608 C 0.80788 0.70655 0.87964 0.0
C1609 C 0.7423 0.76885 0.90121 0.0
C1610 C 0.82792 0.59548 0.87717 0.0
C1611 C 0.82026 0.62172 0.87748 0.0
C1612 C 0.80045 0.67341 0.91509 0.0
C1613 C 0.78104 0.74162 0.89719 0.0
C1614 C 0.79346 0.71542 0.89758 0.0
C1615 C 0.82404 0.63703 0.89614 0.0
C1616 C 0.81436 0.66434 0.89695 0.0
H1617 H 0.79329 0.8037 0.88018 0.0
H1618 H 0.81511 0.76161 0.88443 0.0
H1619 H 0.77914 0.70505 0.92946 0.0
H1620 H 0.85275 0.59103 0.92819 0.0
H1621 H 0.8394 0.63707 0.92886 0.0
C1622 C 0.649 0.59722 0.66405 0.0
C1623 C 0.66501 0.59238 0.64602 0.0
C1624 C 0.62282 0.58951 0.66405 0.0
C1625 C 0.56834 0.56975 0.62852 0.0
H1626 H 0.54303 0.53409 0.67986 0.0
C1627 C 0.48008 0.4956 0.65251 0.0
C1628 C 0.45868 0.50838 0.6429 0.0
C1629 C 0.50412 0.5083 0.65456 0.0
C1630 C 0.54981 0.54403 0.66544 0.0
H1631 H 0.66641 0.57504 0.61408 0.0
H1632 H 0.62045 0.56181 0.61386 0.0
H1633 H 0.58744 0.55157 0.67925 0.0
H1634 H 0.44542 0.54492 0.62873 0.0
H1635 H 0.4875 0.5671 0.63237 0.0
H1636 H 0.5309 0.56157 0.61451 0.0
C1637 C 0.62804 0.57211 0.62783 0.0
C1638 C 0.57515 0.55424 0.66514 0.0
C1639 C 0.6543 0.57979 0.62788 0.0
C1640 C 0.46154 0.53451 0.63618 0.0
C1641 C 0.48567 0.54716 0.63811 0.0
C1642 C 0.54293 0.55966 0.62886 0.0
C1643 C 0.61212 0.57664 0.64602 0.0
C1644 C 0.58477 0.56697 0.6466 0.0
C1645 C 0.50732 0.53401 0.64696 0.0
C1646 C 0.53352 0.54645 0.64724 0.0
H1647 H 0.65687 0.60688 0.67823 0.0
H1648 H 0.61097 0.59352 0.67821 0.0
H1649 H 0.57515 0.57965 0.61408 0.0
H1650 H 0.47851 0.47547 0.65786 0.0
H1651 H 0.5205 0.4976 0.6613 0.0
C1652 C 0.75402 0.2286 0.4112 0.0
C1653 C 0.74121 0.20969 0.39858 0.0
C1654 C 0.74224 0.25276 0.41522 0.0
C1655 C 0.67996 0.29045 0.41041 0.0
H1656 H 0.72769 0.34867 0.40277 0.0
C1657 C 0.64845 0.39663 0.38904 0.0
C1658 C 0.66317 0.4171 0.39806 0.0
C1659 C 0.65534 0.37056 0.39306 0.0
C1660 C 0.71411 0.33269 0.40534 0.0
H1661 H 0.70544 0.20071 0.38121 0.0
H1662 H 0.68517 0.24316 0.38769 0.0
H1663 H 0.74462 0.30441 0.40284 0.0
H1664 H 0.69562 0.42664 0.41907 0.0
H1665 H 0.70751 0.38121 0.42639 0.0
H1666 H 0.64931 0.31912 0.41211 0.0
C1667 C 0.70413 0.23922 0.39481 0.0
C1668 C 0.72385 0.30723 0.40543 0.0
C1669 C 0.71581 0.21491 0.39099 0.0
C1670 C 0.68407 0.41112 0.41192 0.0
C1671 C 0.69089 0.38517 0.416 0.0
C1672 C 0.67016 0.31605 0.41022 0.0
C1673 C 0.71753 0.2587 0.40646 0.0
C1674 C 0.70693 0.28575 0.40786 0.0
C1675 C 0.67714 0.36462 0.40608 0.0
C1676 C 0.68717 0.33742 0.40759 0.0
H1677 H 0.77347 0.22503 0.41752 0.0
H1678 H 0.75284 0.26706 0.42472 0.0
H1679 H 0.66641 0.27436 0.4125 0.0
H1680 H 0.63264 0.40077 0.3779 0.0
H1681 H 0.64455 0.35516 0.38499 0.0
C1682 C 0.85018 0.40282 0.16608 0.0
C1683 C 0.83436 0.40674 0.14778 0.0
C1684 C 0.87625 0.41093 0.16614 0.0
C1685 C 0.93097 0.42985 0.13061 0.0
H1686 H 0.95525 0.46799 0.18107 0.0
C1687 C 0.01901 0.50504 0.15332 0.0
C1688 C 0.04047 0.49171 0.14433 0.0
C1689 C 0.99483 0.49257 0.15548 0.0
C1690 C 0.94874 0.45737 0.16688 0.0
H1691 H 0.83321 0.4229 0.1154 0.0
H1692 H 0.87897 0.43671 0.11527 0.0
H1693 H 0.91096 0.45011 0.18055 0.0
H1694 H 0.05369 0.45445 0.13146 0.0
H1695 H 0.01146 0.43272 0.13531 0.0
H1696 H 0.96855 0.43764 0.11675 0.0
C1697 C 0.87132 0.42684 0.12943 0.0
C1698 C 0.92348 0.44694 0.16665 0.0
C1699 C 0.84517 0.4188 0.12943 0.0
C1700 C 0.03752 0.46531 0.13838 0.0
C1701 C 0.01331 0.4529 0.14043 0.0
C1702 C 0.95629 0.44014 0.1309 0.0
C1703 C 0.88704 0.42325 0.14789 0.0
C1704 C 0.91425 0.43327 0.14844 0.0
C1705 C 0.9916 0.46655 0.14863 0.0
C1706 C 0.96534 0.45422 0.14896 0.0
H1707 H 0.84223 0.39362 0.18044 0.0
H1708 H 0.88794 0.40765 0.18051 0.0
H1709 H 0.92445 0.41923 0.11643 0.0
H1710 H 0.02063 0.52538 0.15806 0.0
H1711 H 0.97841 0.50364 0.16172 0.0
C1712 C 0.71582 0.71101 0.61207 0.0
C1713 C 0.74213 0.70813 0.60583 0.0
C1714 C 0.70317 0.73508 0.60978 0.0
C1715 C 0.6903 0.7922 0.61865 0.0
H1716 H 0.69931 0.83661 0.56832 0.0
C1717 C 0.66961 0.90333 0.61923 0.0
C1718 C 0.65716 0.91393 0.60098 0.0
C1719 C 0.67751 0.87715 0.61936 0.0
C1720 C 0.6964 0.82434 0.5824 0.0
H1721 H 0.7754 0.72788 0.59136 0.0
H1722 H 0.75328 0.76984 0.58733 0.0
H1723 H 0.71712 0.79229 0.56809 0.0
H1724 H 0.64319 0.90569 0.56863 0.0
H1725 H 0.65697 0.85991 0.56878 0.0
H1726 H 0.66974 0.82433 0.63303 0.0
C1727 C 0.74244 0.75348 0.59396 0.0
C1728 C 0.70678 0.79907 0.58233 0.0
C1729 C 0.75514 0.72947 0.59635 0.0
C1730 C 0.65272 0.89789 0.5829 0.0
C1731 C 0.66066 0.87179 0.58297 0.0
C1732 C 0.68004 0.81753 0.61877 0.0
C1733 C 0.71651 0.75667 0.60107 0.0
C1734 C 0.70402 0.78282 0.60052 0.0
C1735 C 0.67334 0.86119 0.60113 0.0
C1736 C 0.68316 0.83392 0.60071 0.0
H1737 H 0.7052 0.69492 0.61935 0.0
H1738 H 0.68306 0.7369 0.61512 0.0
H1739 H 0.6881 0.78021 0.633 0.0
H1740 H 0.6741 0.91547 0.63307 0.0
H1741 H 0.68767 0.86963 0.63343 0.0
C1742 C 0.84492 0.91886 0.87002 0.0
C1743 C 0.83457 0.90616 0.85178 0.0
C1744 C 0.87094 0.9273 0.87014 0.0
C1745 C 0.92339 0.94723 0.83318 0.0
H1746 H 0.96801 0.93901 0.88349 0.0
C1747 C 0.01863 0.00586 0.84649 0.0
C1748 C 0.04008 0.99263 0.85561 0.0
C1749 C 0.99447 0.99334 0.84436 0.0
C1750 C 0.95587 0.94121 0.86923 0.0
H1751 H 0.84313 0.89235 0.81944 0.0
H1752 H 0.8886 0.9071 0.81957 0.0
H1753 H 0.92401 0.92036 0.88372 0.0
H1754 H 0.05329 0.95553 0.86878 0.0
H1755 H 0.01108 0.93373 0.86502 0.0
H1756 H 0.95518 0.96823 0.81875 0.0
C1757 C 0.87665 0.91056 0.83376 0.0
C1758 C 0.93061 0.93078 0.86947 0.0
C1759 C 0.85071 0.90205 0.83371 0.0
C1760 C 0.03714 0.96631 0.86175 0.0
C1761 C 0.01293 0.95386 0.85975 0.0
C1762 C 0.94858 0.95781 0.83301 0.0
C1763 C 0.88698 0.92347 0.85191 0.0
C1764 C 0.91408 0.93379 0.85148 0.0
C1765 C 0.99125 0.9674 0.8514 0.0
C1766 C 0.96503 0.95502 0.85107 0.0
H1767 H 0.83269 0.92314 0.88386 0.0
H1768 H 0.87825 0.93761 0.88421 0.0
H1769 H 0.911 0.95006 0.81916 0.0
H1770 H 0.02025 0.02615 0.84159 0.0
H1771 H 0.97806 0.00433 0.83799 0.0
C1772 C 0.82768 0.09366 0.12335 0.0
C1773 C 0.84179 0.08498 0.10523 0.0
C1774 C 0.81836 0.11935 0.12429 0.0
C1775 C 0.78587 0.16769 0.11462 0.0
H1776 H 0.8268 0.22627 0.09347 0.0
C1777 C 0.73965 0.2689 0.10163 0.0
C1778 C 0.75384 0.29049 0.10942 0.0
C1779 C 0.7514 0.2443 0.10018 0.0
C1780 C 0.81519 0.21013 0.09954 0.0
H1781 H 0.85722 0.0961 0.07396 0.0
H1782 H 0.84079 0.14094 0.07543 0.0
H1783 H 0.84613 0.18258 0.09433 0.0
H1784 H 0.79182 0.30339 0.12096 0.0
H1785 H 0.81226 0.26039 0.11854 0.0
H1786 H 0.75508 0.19521 0.12014 0.0
C1787 C 0.83731 0.12813 0.08909 0.0
C1788 C 0.82618 0.18508 0.09987 0.0
C1789 C 0.84655 0.10246 0.08816 0.0
C1790 C 0.78034 0.28716 0.1149 0.0
C1791 C 0.79209 0.26253 0.11345 0.0
C1792 C 0.77489 0.19269 0.11426 0.0
C1793 C 0.82287 0.1368 0.10707 0.0
C1794 C 0.81161 0.16358 0.10738 0.0
C1795 C 0.77759 0.24073 0.10649 0.0
C1796 C 0.78937 0.21418 0.10664 0.0
H1797 H 0.82308 0.08038 0.13643 0.0
H1798 H 0.80742 0.12549 0.13842 0.0
H1799 H 0.77402 0.1515 0.12026 0.0
H1800 H 0.71924 0.27082 0.09716 0.0
H1801 H 0.73986 0.22798 0.09436 0.0
C1802 C 0.45937 0.0362 0.36 0.0
C1803 C 0.45663 0.0101 0.35316 0.0
C1804 C 0.48361 0.04876 0.35874 0.0
C1805 C 0.54059 0.06088 0.36963 0.0
H1806 H 0.58679 0.05361 0.32022 0.0
C1807 C 0.65201 0.08214 0.37279 0.0
C1808 C 0.66292 0.09509 0.3549 0.0
C1809 C 0.62581 0.07415 0.37243 0.0
C1810 C 0.57404 0.05602 0.33408 0.0
H1811 H 0.47689 0.9772 0.3386 0.0
H1812 H 0.51908 0.99921 0.33623 0.0
H1813 H 0.5425 0.03591 0.31846 0.0
H1814 H 0.65508 0.11007 0.32278 0.0
H1815 H 0.60941 0.09617 0.32209 0.0
H1816 H 0.57225 0.08082 0.38531 0.0
C1817 C 0.5025 0.00994 0.3426 0.0
C1818 C 0.54877 0.0457 0.33312 0.0
C1819 C 0.47833 0.9973 0.34402 0.0
C1820 C 0.64711 0.1001 0.33677 0.0
C1821 C 0.62104 0.09207 0.33635 0.0
C1822 C 0.56596 0.07105 0.37065 0.0
C1823 C 0.50554 0.03557 0.35042 0.0
C1824 C 0.53182 0.0479 0.35092 0.0
C1825 C 0.61017 0.07872 0.35406 0.0
C1826 C 0.58298 0.06862 0.35291 0.0
H1827 H 0.44307 0.04661 0.36714 0.0
H1828 H 0.48532 0.06865 0.36462 0.0
H1829 H 0.52806 0.06261 0.3837 0.0
H1830 H 0.66392 0.07727 0.38668 0.0
H1831 H 0.61807 0.06354 0.38619 0.0
C1832 C 0.24501 0.26958 0.41092 0.0
C1833 C 0.25821 0.28842 0.3985 0.0
C1834 C 0.25665 0.24543 0.41527 0.0
C1835 C 0.3194 0.20815 0.41213 0.0
H1836 H 0.27252 0.14928 0.40437 0.0
C1837 C 0.35243 0.10231 0.39146 0.0
C1838 C 0.33778 0.08169 0.40032 0.0
C1839 C 0.34525 0.1283 0.39546 0.0
C1840 C 0.28584 0.16546 0.40698 0.0
H1841 H 0.29444 0.29714 0.38167 0.0
H1842 H 0.31446 0.25479 0.38875 0.0
H1843 H 0.25507 0.19336 0.40376 0.0
H1844 H 0.30521 0.07181 0.4211 0.0
H1845 H 0.29281 0.11711 0.42839 0.0
H1846 H 0.35034 0.17988 0.41451 0.0
C1847 C 0.29531 0.25878 0.39549 0.0
C1848 C 0.27581 0.1908 0.40667 0.0
C1849 C 0.28376 0.28304 0.39133 0.0
C1850 C 0.31672 0.08745 0.41408 0.0
C1851 C 0.3096 0.11332 0.41814 0.0
C1852 C 0.32949 0.18268 0.41231 0.0
C1853 C 0.28165 0.23944 0.40708 0.0
C1854 C 0.29244 0.21251 0.40908 0.0
C1855 C 0.32323 0.13402 0.4083 0.0
C1856 C 0.3128 0.16108 0.40961 0.0
H1857 H 0.22542 0.27326 0.4169 0.0
H1858 H 0.2458 0.23122 0.42468 0.0
H1859 H 0.33272 0.22442 0.41426 0.0
H1860 H 0.36836 0.09834 0.3804 0.0
H1861 H 0.35596 0.14382 0.38747 0.0
C1862 C 0.98071 0.99088 0.15142 0.0
C1863 C 0.95935 0.00517 0.14331 0.0
C1864 C 0.00535 0.00245 0.1531 0.0
C1865 C 0.0405 0.06561 0.15344 0.0
H1866 H 0.098 0.02356 0.13172 0.0
C1867 C 0.15645 0.07626 0.12758 0.0
C1868 C 0.16597 0.08982 0.14569 0.0
C1869 C 0.13056 0.0675 0.12708 0.0
C1870 C 0.08213 0.03565 0.13764 0.0
H1871 H 0.94681 0.04325 0.13171 0.0
H1872 H 0.98993 0.0634 0.13458 0.0
H1873 H 0.054 0.00535 0.13248 0.0
H1874 H 0.15615 0.10492 0.17736 0.0
H1875 H 0.1109 0.08949 0.17664 0.0
H1876 H 0.06869 0.09606 0.1583 0.0
C1877 C 0.98757 0.04327 0.13969 0.0
C1878 C 0.05698 0.02508 0.13838 0.0
C1879 C 0.96288 0.03168 0.13799 0.0
C1880 C 0.14913 0.09465 0.16318 0.0
C1881 C 0.12324 0.08598 0.16268 0.0
C1882 C 0.06572 0.07617 0.15276 0.0
C1883 C 0.00919 0.02856 0.14674 0.0
C1884 C 0.0359 0.0399 0.14634 0.0
C1885 C 0.11375 0.07205 0.14472 0.0
C1886 C 0.0868 0.06128 0.14486 0.0
H1887 H 0.97863 0.97046 0.15581 0.0
H1888 H 0.02154 0.99078 0.15901 0.0
H1889 H 0.02465 0.07746 0.15973 0.0
H1890 H 0.16924 0.07166 0.11416 0.0
H1891 H 0.12376 0.05693 0.11296 0.0
C1892 C 0.16952 0.90452 0.87752 0.0
C1893 C 0.15663 0.91481 0.89569 0.0
C1894 C 0.17789 0.87847 0.8774 0.0
C1895 C 0.19724 0.82584 0.91437 0.0
H1896 H 0.18929 0.78139 0.86394 0.0
C1897 C 0.21581 0.71208 0.88581 0.0
C1898 C 0.24208 0.70892 0.89207 0.0
C1899 C 0.20354 0.73637 0.88777 0.0
C1900 C 0.19142 0.79349 0.87822 0.0
H1901 H 0.14237 0.90616 0.92789 0.0
H1902 H 0.15702 0.86066 0.92775 0.0
H1903 H 0.17085 0.82549 0.86365 0.0
H1904 H 0.27566 0.72842 0.90626 0.0
H1905 H 0.25413 0.7708 0.90978 0.0
H1906 H 0.21796 0.79391 0.92889 0.0
C1907 C 0.16068 0.87267 0.91362 0.0
C1908 C 0.18111 0.8188 0.87796 0.0
C1909 C 0.15224 0.89862 0.91368 0.0
C1910 C 0.25542 0.73023 0.90127 0.0
C1911 C 0.24307 0.75448 0.90335 0.0
C1912 C 0.20771 0.8006 0.91457 0.0
C1913 C 0.1738 0.86238 0.89556 0.0
C1914 C 0.18402 0.83526 0.896 0.0
C1915 C 0.2172 0.75793 0.89619 0.0
C1916 C 0.20501 0.78422 0.89647 0.0
H1917 H 0.17398 0.91679 0.86376 0.0
H1918 H 0.18835 0.87118 0.8634 0.0
H1919 H 0.2 0.83819 0.92844 0.0
H1920 H 0.20494 0.69602 0.87873 0.0
H1921 H 0.18345 0.73839 0.88241 0.0
C1922 C 0.3464 0.91701 0.62692 0.0
C1923 C 0.33666 0.90404 0.64525 0.0
C1924 C 0.37225 0.92592 0.62647 0.0
C1925 C 0.4249 0.94685 0.66276 0.0
H1926 H 0.46896 0.9392 0.61205 0.0
C1927 C 0.53821 0.96646 0.63378 0.0
C1928 C 0.54121 0.99278 0.63991 0.0
C1929 C 0.51399 0.95408 0.63572 0.0
C1930 C 0.45696 0.94127 0.6264 0.0
H1931 H 0.34611 0.89021 0.67742 0.0
H1932 H 0.39131 0.90581 0.67671 0.0
H1933 H 0.42523 0.91988 0.61225 0.0
H1934 H 0.5214 0.02641 0.65376 0.0
H1935 H 0.47911 0.00468 0.65727 0.0
H1936 H 0.45656 0.96837 0.67686 0.0
C1937 C 0.379 0.90909 0.6627 0.0
C1938 C 0.43187 0.93045 0.62642 0.0
C1939 C 0.35324 0.90009 0.66308 0.0
C1940 C 0.51974 0.00612 0.64888 0.0
C1941 C 0.49554 0.99366 0.65095 0.0
C1942 C 0.44991 0.95784 0.66267 0.0
C1943 C 0.3887 0.92232 0.64447 0.0
C1944 C 0.41557 0.93319 0.64458 0.0
C1945 C 0.49231 0.96769 0.64399 0.0
C1946 C 0.46616 0.95522 0.64447 0.0
H1947 H 0.33381 0.92118 0.61328 0.0
H1948 H 0.37909 0.93645 0.61234 0.0
H1949 H 0.41266 0.94949 0.6769 0.0
H1950 H 0.55439 0.95559 0.62687 0.0
H1951 H 0.51213 0.93393 0.63052 0.0
loop_
_geom_bond_atom_site_label_1
_geom_bond_atom_site_label_2
_geom_bond_distance
_geom_bond_site_symmetry_2
_ccdc_geom_bond_type
Zn0 O1 2.055 . S
Zn0 O8 2.046 . S
Zn0 N16 2.036 . S
Zn0 O28 2.053 . S
Zn0 O30 2.066 . S
O1 Zn0 2.055 . S
O1 C4 1.259 . S
C2 O30 1.256 . S
C2 O31 1.244 . S
Zn3 O5 2.046 . S
Zn3 O7 2.055 . S
Zn3 N9 2.036 . S
Zn3 O27 2.066 . S
Zn3 O31 2.053 . S
C4 O1 1.259 . S
C4 O5 1.254 . S
O5 Zn3 2.046 . S
O5 C4 1.254 . S
C6 O27 1.256 . S
C6 O28 1.244 . S
O7 Zn3 2.055 . S
O7 C29 1.259 . S
O8 Zn0 2.046 . S
O8 C29 1.254 . S
N9 Zn3 2.036 . S
N9 C10 1.298 . S
N9 N12 1.398 . S
C10 N9 1.298 . S
C10 N13 1.367 . S
C10 C23 1.481 . S
C11 N12 1.299 . S
C11 N13 1.379 . S
N12 N9 1.398 . S
N12 C11 1.299 . S
N13 C10 1.367 . S
N13 C11 1.379 . S
C14 N16 1.298 . S
C14 N18 1.367 . S
C14 C22 1.481 . S
C15 N17 1.299 . S
C15 N18 1.379 . S
N16 Zn0 2.036 . S
N16 C14 1.298 . S
N16 N17 1.398 . S
N17 C15 1.299 . S
N17 N16 1.398 . S
N18 C14 1.367 . S
N18 C15 1.379 . S
H19 C22 0.980 . S
H20 C22 0.981 . S
H21 C22 0.981 . S
C22 C14 1.481 . S
C22 H19 0.980 . S
C22 H20 0.981 . S
C22 H21 0.981 . S
C23 C10 1.481 . S
C23 H24 0.980 . S
C23 H25 0.981 . S
C23 H26 0.981 . S
H24 C23 0.980 . S
H25 C23 0.981 . S
H26 C23 0.981 . S
O27 Zn3 2.066 . S
O27 C6 1.256 . S
O28 Zn0 2.053 . S
O28 C6 1.244 . S
C29 O7 1.259 . S
C29 O8 1.254 . S
O30 Zn0 2.066 . S
O30 C2 1.256 . S
O31 C2 1.244 . S
O31 Zn3 2.053 . S
Zn32 O33 2.055 . S
Zn32 O40 2.046 . S
Zn32 N48 2.036 . S
Zn32 O60 2.053 . S
Zn32 O62 2.066 . S
O33 Zn32 2.055 . S
O33 C36 1.259 . S
C34 O62 1.256 . S
C34 O63 1.244 . S
Zn35 O37 2.046 . S
Zn35 O39 2.055 . S
Zn35 N41 2.036 . S
Zn35 O59 2.066 . S
Zn35 O63 2.053 . S
C36 O33 1.259 . S
C36 O37 1.254 . S
O37 Zn35 2.046 . S
O37 C36 1.254 . S
C38 O59 1.256 . S
C38 O60 1.244 . S
O39 Zn35 2.055 . S
O39 C61 1.259 . S
O40 Zn32 2.046 . S
O40 C61 1.254 . S
N41 Zn35 2.036 . S
N41 C42 1.298 . S
N41 N44 1.398 . S
C42 N41 1.298 . S
C42 N45 1.367 . S
C42 C55 1.481 . S
C43 N44 1.299 . S
C43 N45 1.379 . S
N44 N41 1.398 . S
N44 C43 1.299 . S
N45 C42 1.367 . S
N45 C43 1.379 . S
C46 N48 1.298 . S
C46 N50 1.367 . S
C46 C54 1.481 . S
C47 N49 1.299 . S
C47 N50 1.379 . S
N48 Zn32 2.036 . S
N48 C46 1.298 . S
N48 N49 1.398 . S
N49 C47 1.299 . S
N49 N48 1.398 . S
N50 C46 1.367 . S
N50 C47 1.379 . S
H51 C54 0.980 . S
H52 C54 0.981 . S
H53 C54 0.981 . S
C54 C46 1.481 . S
C54 H51 0.980 . S
C54 H52 0.981 . S
C54 H53 0.981 . S
C55 C42 1.481 . S
C55 H56 0.980 . S
C55 H57 0.981 . S
C55 H58 0.981 . S
H56 C55 0.980 . S
H57 C55 0.981 . S
H58 C55 0.981 . S
O59 Zn35 2.066 . S
O59 C38 1.256 . S
O60 Zn32 2.053 . S
O60 C38 1.244 . S
C61 O39 1.259 . S
C61 O40 1.254 . S
O62 Zn32 2.066 . S
O62 C34 1.256 . S
O63 C34 1.244 . S
O63 Zn35 2.053 . S
Zn64 O65 2.055 . S
Zn64 O72 2.046 . S
Zn64 N80 2.036 . S
Zn64 O92 2.053 . S
Zn64 O94 2.066 . S
O65 Zn64 2.055 . S
O65 C68 1.259 . S
C66 O94 1.256 . S
C66 O95 1.244 . S
Zn67 O69 2.046 . S
Zn67 O71 2.055 . S
Zn67 N73 2.036 . S
Zn67 O91 2.066 . S
Zn67 O95 2.053 . S
C68 O65 1.259 . S
C68 O69 1.254 . S
O69 Zn67 2.046 . S
O69 C68 1.254 . S
C70 O91 1.256 . S
C70 O92 1.244 . S
O71 Zn67 2.055 . S
O71 C93 1.259 . S
O72 Zn64 2.046 . S
O72 C93 1.254 . S
N73 Zn67 2.036 . S
N73 C74 1.298 . S
N73 N76 1.398 . S
C74 N73 1.298 . S
C74 N77 1.367 . S
C74 C87 1.481 . S
C75 N76 1.299 . S
C75 N77 1.379 . S
N76 N73 1.398 . S
N76 C75 1.299 . S
N77 C74 1.367 . S
N77 C75 1.379 . S
C78 N80 1.298 . S
C78 N82 1.367 . S
C78 C86 1.481 . S
C79 N81 1.299 . S
C79 N82 1.379 . S
N80 Zn64 2.036 . S
N80 C78 1.298 . S
N80 N81 1.398 . S
N81 C79 1.299 . S
N81 N80 1.398 . S
N82 C78 1.367 . S
N82 C79 1.379 . S
H83 C86 0.980 . S
H84 C86 0.981 . S
H85 C86 0.981 . S
C86 C78 1.481 . S
C86 H83 0.980 . S
C86 H84 0.981 . S
C86 H85 0.981 . S
C87 C74 1.481 . S
C87 H88 0.980 . S
C87 H89 0.981 . S
C87 H90 0.981 . S
H88 C87 0.980 . S
H89 C87 0.981 . S
H90 C87 0.981 . S
O91 Zn67 2.066 . S
O91 C70 1.256 . S
O92 Zn64 2.053 . S
O92 C70 1.244 . S
C93 O71 1.259 . S
C93 O72 1.254 . S
O94 Zn64 2.066 . S
O94 C66 1.256 . S
O95 C66 1.244 . S
O95 Zn67 2.053 . S
Zn96 O97 2.055 . S
Zn96 O104 2.046 . S
Zn96 N112 2.036 . S
Zn96 O124 2.053 . S
Zn96 O126 2.066 . S
O97 Zn96 2.055 . S
O97 C100 1.259 . S
C98 O126 1.256 . S
C98 O127 1.244 . S
Zn99 O101 2.046 . S
Zn99 O103 2.055 . S
Zn99 N105 2.036 . S
Zn99 O123 2.066 . S
Zn99 O127 2.053 . S
C100 O97 1.259 . S
C100 O101 1.254 . S
O101 Zn99 2.046 . S
O101 C100 1.254 . S
C102 O123 1.256 . S
C102 O124 1.244 . S
O103 Zn99 2.055 . S
O103 C125 1.259 . S
O104 Zn96 2.046 . S
O104 C125 1.254 . S
N105 Zn99 2.036 . S
N105 C106 1.298 . S
N105 N108 1.398 . S
C106 N105 1.298 . S
C106 N109 1.367 . S
C106 C119 1.481 . S
C107 N108 1.299 . S
C107 N109 1.379 . S
N108 N105 1.398 . S
N108 C107 1.299 . S
N109 C106 1.367 . S
N109 C107 1.379 . S
C110 N112 1.298 . S
C110 N114 1.367 . S
C110 C118 1.481 . S
C111 N113 1.299 . S
C111 N114 1.379 . S
N112 Zn96 2.036 . S
N112 C110 1.298 . S
N112 N113 1.398 . S
N113 C111 1.299 . S
N113 N112 1.398 . S
N114 C110 1.367 . S
N114 C111 1.379 . S
H115 C118 0.980 . S
H116 C118 0.981 . S
H117 C118 0.981 . S
C118 C110 1.481 . S
C118 H115 0.980 . S
C118 H116 0.981 . S
C118 H117 0.981 . S
C119 C106 1.481 . S
C119 H120 0.980 . S
C119 H121 0.981 . S
C119 H122 0.981 . S
H120 C119 0.980 . S
H121 C119 0.981 . S
H122 C119 0.981 . S
O123 Zn99 2.066 . S
O123 C102 1.256 . S
O124 Zn96 2.053 . S
O124 C102 1.244 . S
C125 O103 1.259 . S
C125 O104 1.254 . S
O126 Zn96 2.066 . S
O126 C98 1.256 . S
O127 C98 1.244 . S
O127 Zn99 2.053 . S
Zn128 O129 2.055 . S
Zn128 O136 2.046 . S
Zn128 N144 2.036 . S
Zn128 O156 2.053 . S
Zn128 O158 2.066 . S
O129 Zn128 2.055 . S
O129 C132 1.259 . S
C130 O158 1.256 . S
C130 O159 1.244 . S
Zn131 O133 2.046 . S
Zn131 O135 2.055 . S
Zn131 N137 2.036 . S
Zn131 O155 2.066 . S
Zn131 O159 2.053 . S
C132 O129 1.259 . S
C132 O133 1.254 . S
O133 Zn131 2.046 . S
O133 C132 1.254 . S
C134 O155 1.256 . S
C134 O156 1.244 . S
O135 Zn131 2.055 . S
O135 C157 1.259 . S
O136 Zn128 2.046 . S
O136 C157 1.254 . S
N137 Zn131 2.036 . S
N137 C138 1.298 . S
N137 N140 1.398 . S
C138 N137 1.298 . S
C138 N141 1.367 . S
C138 C151 1.481 . S
C139 N140 1.299 . S
C139 N141 1.379 . S
N140 N137 1.398 . S
N140 C139 1.299 . S
N141 C138 1.367 . S
N141 C139 1.379 . S
C142 N144 1.298 . S
C142 N146 1.367 . S
C142 C150 1.481 . S
C143 N145 1.299 . S
C143 N146 1.379 . S
N144 Zn128 2.036 . S
N144 C142 1.298 . S
N144 N145 1.398 . S
N145 C143 1.299 . S
N145 N144 1.398 . S
N146 C142 1.367 . S
N146 C143 1.379 . S
H147 C150 0.980 . S
H148 C150 0.981 . S
H149 C150 0.981 . S
C150 C142 1.481 . S
C150 H147 0.980 . S
C150 H148 0.981 . S
C150 H149 0.981 . S
C151 C138 1.481 . S
C151 H152 0.980 . S
C151 H153 0.981 . S
C151 H154 0.981 . S
H152 C151 0.980 . S
H153 C151 0.981 . S
H154 C151 0.981 . S
O155 Zn131 2.066 . S
O155 C134 1.256 . S
O156 Zn128 2.053 . S
O156 C134 1.244 . S
C157 O135 1.259 . S
C157 O136 1.254 . S
O158 Zn128 2.066 . S
O158 C130 1.256 . S
O159 C130 1.244 . S
O159 Zn131 2.053 . S
Zn160 O161 2.055 . S
Zn160 O168 2.046 . S
Zn160 N176 2.036 . S
Zn160 O188 2.053 . S
Zn160 O190 2.066 . S
O161 Zn160 2.055 . S
O161 C164 1.259 . S
C162 O190 1.256 . S
C162 O191 1.244 . S
Zn163 O165 2.046 . S
Zn163 O167 2.055 . S
Zn163 N169 2.036 . S
Zn163 O187 2.066 . S
Zn163 O191 2.053 . S
C164 O161 1.259 . S
C164 O165 1.254 . S
O165 Zn163 2.046 . S
O165 C164 1.254 . S
C166 O187 1.256 . S
C166 O188 1.244 . S
O167 Zn163 2.055 . S
O167 C189 1.259 . S
O168 Zn160 2.046 . S
O168 C189 1.254 . S
N169 Zn163 2.036 . S
N169 C170 1.298 . S
N169 N172 1.398 . S
C170 N169 1.298 . S
C170 N173 1.367 . S
C170 C183 1.481 . S
C171 N172 1.299 . S
C171 N173 1.379 . S
N172 N169 1.398 . S
N172 C171 1.299 . S
N173 C170 1.367 . S
N173 C171 1.379 . S
C174 N176 1.298 . S
C174 N178 1.367 . S
C174 C182 1.481 . S
C175 N177 1.299 . S
C175 N178 1.379 . S
N176 Zn160 2.036 . S
N176 C174 1.298 . S
N176 N177 1.398 . S
N177 C175 1.299 . S
N177 N176 1.398 . S
N178 C174 1.367 . S
N178 C175 1.379 . S
H179 C182 0.980 . S
H180 C182 0.981 . S
H181 C182 0.981 . S
C182 C174 1.481 . S
C182 H179 0.980 . S
C182 H180 0.981 . S
C182 H181 0.981 . S
C183 C170 1.481 . S
C183 H184 0.980 . S
C183 H185 0.981 . S
C183 H186 0.981 . S
H184 C183 0.980 . S
H185 C183 0.981 . S
H186 C183 0.981 . S
O187 Zn163 2.066 . S
O187 C166 1.256 . S
O188 Zn160 2.053 . S
O188 C166 1.244 . S
C189 O167 1.259 . S
C189 O168 1.254 . S
O190 Zn160 2.066 . S
O190 C162 1.256 . S
O191 C162 1.244 . S
O191 Zn163 2.053 . S
Zn192 O193 2.055 . S
Zn192 O200 2.046 . S
Zn192 N208 2.036 . S
Zn192 O220 2.053 . S
Zn192 O222 2.066 . S
O193 Zn192 2.055 . S
O193 C196 1.259 . S
C194 O222 1.256 . S
C194 O223 1.244 . S
Zn195 O197 2.046 . S
Zn195 O199 2.055 . S
Zn195 N201 2.036 . S
Zn195 O219 2.066 . S
Zn195 O223 2.053 . S
C196 O193 1.259 . S
C196 O197 1.254 . S
O197 Zn195 2.046 . S
O197 C196 1.254 . S
C198 O219 1.256 . S
C198 O220 1.244 . S
O199 Zn195 2.055 . S
O199 C221 1.259 . S
O200 Zn192 2.046 . S
O200 C221 1.254 . S
N201 Zn195 2.036 . S
N201 C202 1.298 . S
N201 N204 1.398 . S
C202 N201 1.298 . S
C202 N205 1.367 . S
C202 C215 1.481 . S
C203 N204 1.299 . S
C203 N205 1.379 . S
N204 N201 1.398 . S
N204 C203 1.299 . S
N205 C202 1.367 . S
N205 C203 1.379 . S
C206 N208 1.298 . S
C206 N210 1.367 . S
C206 C214 1.481 . S
C207 N209 1.299 . S
C207 N210 1.379 . S
N208 Zn192 2.036 . S
N208 C206 1.298 . S
N208 N209 1.398 . S
N209 C207 1.299 . S
N209 N208 1.398 . S
N210 C206 1.367 . S
N210 C207 1.379 . S
H211 C214 0.980 . S
H212 C214 0.981 . S
H213 C214 0.981 . S
C214 C206 1.481 . S
C214 H211 0.980 . S
C214 H212 0.981 . S
C214 H213 0.981 . S
C215 C202 1.481 . S
C215 H216 0.980 . S
C215 H217 0.981 . S
C215 H218 0.981 . S
H216 C215 0.980 . S
H217 C215 0.981 . S
H218 C215 0.981 . S
O219 Zn195 2.066 . S
O219 C198 1.256 . S
O220 Zn192 2.053 . S
O220 C198 1.244 . S
C221 O199 1.259 . S
C221 O200 1.254 . S
O222 Zn192 2.066 . S
O222 C194 1.256 . S
O223 C194 1.244 . S
O223 Zn195 2.053 . S
Zn224 O225 2.055 . S
Zn224 O232 2.046 . S
Zn224 N240 2.036 . S
Zn224 O252 2.053 . S
Zn224 O254 2.066 . S
O225 Zn224 2.055 . S
O225 C228 1.259 . S
C226 O254 1.256 . S
C226 O255 1.244 . S
Zn227 O229 2.046 . S
Zn227 O231 2.055 . S
Zn227 N233 2.036 . S
Zn227 O251 2.066 . S
Zn227 O255 2.053 . S
C228 O225 1.259 . S
C228 O229 1.254 . S
O229 Zn227 2.046 . S
O229 C228 1.254 . S
C230 O251 1.256 . S
C230 O252 1.244 . S
O231 Zn227 2.055 . S
O231 C253 1.259 . S
O232 Zn224 2.046 . S
O232 C253 1.254 . S
N233 Zn227 2.036 . S
N233 C234 1.298 . S
N233 N236 1.398 . S
C234 N233 1.298 . S
C234 N237 1.367 . S
C234 C247 1.481 . S
C235 N236 1.299 . S
C235 N237 1.379 . S
N236 N233 1.398 . S
N236 C235 1.299 . S
N237 C234 1.367 . S
N237 C235 1.379 . S
C238 N240 1.298 . S
C238 N242 1.367 . S
C238 C246 1.481 . S
C239 N241 1.299 . S
C239 N242 1.379 . S
N240 Zn224 2.036 . S
N240 C238 1.298 . S
N240 N241 1.398 . S
N241 C239 1.299 . S
N241 N240 1.398 . S
N242 C238 1.367 . S
N242 C239 1.379 . S
H243 C246 0.980 . S
H244 C246 0.981 . S
H245 C246 0.981 . S
C246 C238 1.481 . S
C246 H243 0.980 . S
C246 H244 0.981 . S
C246 H245 0.981 . S
C247 C234 1.481 . S
C247 H248 0.980 . S
C247 H249 0.981 . S
C247 H250 0.981 . S
H248 C247 0.980 . S
H249 C247 0.981 . S
H250 C247 0.981 . S
O251 Zn227 2.066 . S
O251 C230 1.256 . S
O252 Zn224 2.053 . S
O252 C230 1.244 . S
C253 O231 1.259 . S
C253 O232 1.254 . S
O254 Zn224 2.066 . S
O254 C226 1.256 . S
O255 C226 1.244 . S
O255 Zn227 2.053 . S
Zn256 O257 2.055 . S
Zn256 O264 2.046 . S
Zn256 N272 2.036 . S
Zn256 O284 2.053 . S
Zn256 O286 2.066 . S
O257 Zn256 2.055 . S
O257 C260 1.259 . S
C258 O286 1.256 . S
C258 O287 1.244 . S
Zn259 O261 2.046 . S
Zn259 O263 2.055 . S
Zn259 N265 2.036 . S
Zn259 O283 2.066 . S
Zn259 O287 2.053 . S
C260 O257 1.259 . S
C260 O261 1.254 . S
O261 Zn259 2.046 . S
O261 C260 1.254 . S
C262 O283 1.256 . S
C262 O284 1.244 . S
O263 Zn259 2.055 . S
O263 C285 1.259 . S
O264 Zn256 2.046 . S
O264 C285 1.254 . S
N265 Zn259 2.036 . S
N265 C266 1.298 . S
N265 N268 1.398 . S
C266 N265 1.298 . S
C266 N269 1.367 . S
C266 C279 1.481 . S
C267 N268 1.299 . S
C267 N269 1.379 . S
N268 N265 1.398 . S
N268 C267 1.299 . S
N269 C266 1.367 . S
N269 C267 1.379 . S
C270 N272 1.298 . S
C270 N274 1.367 . S
C270 C278 1.481 . S
C271 N273 1.299 . S
C271 N274 1.379 . S
N272 Zn256 2.036 . S
N272 C270 1.298 . S
N272 N273 1.398 . S
N273 C271 1.299 . S
N273 N272 1.398 . S
N274 C270 1.367 . S
N274 C271 1.379 . S
H275 C278 0.980 . S
H276 C278 0.981 . S
H277 C278 0.981 . S
C278 C270 1.481 . S
C278 H275 0.980 . S
C278 H276 0.981 . S
C278 H277 0.981 . S
C279 C266 1.481 . S
C279 H280 0.980 . S
C279 H281 0.981 . S
C279 H282 0.981 . S
H280 C279 0.980 . S
H281 C279 0.981 . S
H282 C279 0.981 . S
O283 Zn259 2.066 . S
O283 C262 1.256 . S
O284 Zn256 2.053 . S
O284 C262 1.244 . S
C285 O263 1.259 . S
C285 O264 1.254 . S
O286 Zn256 2.066 . S
O286 C258 1.256 . S
O287 C258 1.244 . S
O287 Zn259 2.053 . S
Zn288 O289 2.055 . S
Zn288 O296 2.046 . S
Zn288 N304 2.036 . S
Zn288 O316 2.053 . S
Zn288 O318 2.066 . S
O289 Zn288 2.055 . S
O289 C292 1.259 . S
C290 O318 1.256 . S
C290 O319 1.244 . S
Zn291 O293 2.040 1_565 S
Zn291 O295 2.055 . S
Zn291 N297 2.036 . S
Zn291 O315 2.065 1_565 S
Zn291 O319 2.053 1_565 S
C292 O289 1.259 . S
C292 O293 1.294 . S
O293 Zn291 2.040 1_545 S
O293 C292 1.294 . S
C294 O315 1.268 . S
C294 O316 1.244 . S
O295 Zn291 2.055 . S
O295 C317 1.259 1_565 S
O296 Zn288 2.046 . S
O296 C317 1.254 . S
N297 Zn291 2.036 . S
N297 C298 1.298 . S
N297 N300 1.398 . S
C298 N297 1.298 . S
C298 N301 1.367 . S
C298 C311 1.481 . S
C299 N300 1.299 . S
C299 N301 1.379 . S
N300 N297 1.398 . S
N300 C299 1.299 . S
N301 C298 1.367 . S
N301 C299 1.379 . S
C302 N304 1.298 . S
C302 N306 1.367 . S
C302 C310 1.481 . S
C303 N305 1.299 . S
C303 N306 1.379 . S
N304 Zn288 2.036 . S
N304 C302 1.298 . S
N304 N305 1.398 . S
N305 C303 1.299 . S
N305 N304 1.398 . S
N306 C302 1.367 . S
N306 C303 1.379 . S
H307 C310 0.980 . S
H308 C310 0.981 . S
H309 C310 0.981 . S
C310 C302 1.481 . S
C310 H307 0.980 . S
C310 H308 0.981 . S
C310 H309 0.981 . S
C311 C298 1.481 . S
C311 H312 0.980 . S
C311 H313 0.981 . S
C311 H314 0.981 . S
H312 C311 0.980 . S
H313 C311 0.981 . S
H314 C311 0.981 . S
O315 Zn291 2.065 1_545 S
O315 C294 1.268 . S
O316 Zn288 2.053 . S
O316 C294 1.244 . S
C317 O295 1.259 1_545 S
C317 O296 1.254 . S
O318 Zn288 2.066 . S
O318 C290 1.256 . S
O319 C290 1.244 . S
O319 Zn291 2.053 1_545 S
Zn320 O321 2.055 . S
Zn320 O328 2.046 . S
Zn320 N336 2.036 . S
Zn320 O348 2.053 . S
Zn320 O350 2.066 . S
O321 Zn320 2.055 . S
O321 C324 1.259 . S
C322 O350 1.256 . S
C322 O351 1.244 . S
Zn323 O325 2.046 . S
Zn323 O327 2.055 . S
Zn323 N329 2.036 . S
Zn323 O347 2.066 . S
Zn323 O351 2.053 . S
C324 O321 1.259 . S
C324 O325 1.254 . S
O325 Zn323 2.046 . S
O325 C324 1.254 . S
C326 O347 1.256 . S
C326 O348 1.244 . S
O327 Zn323 2.055 . S
O327 C349 1.259 . S
O328 Zn320 2.046 . S
O328 C349 1.254 . S
N329 Zn323 2.036 . S
N329 C330 1.298 . S
N329 N332 1.398 . S
C330 N329 1.298 . S
C330 N333 1.367 . S
C330 C343 1.481 . S
C331 N332 1.299 . S
C331 N333 1.379 . S
N332 N329 1.398 . S
N332 C331 1.299 . S
N333 C330 1.367 . S
N333 C331 1.379 . S
C334 N336 1.298 . S
C334 N338 1.367 . S
C334 C342 1.481 . S
C335 N337 1.299 . S
C335 N338 1.379 . S
N336 Zn320 2.036 . S
N336 C334 1.298 . S
N336 N337 1.398 . S
N337 C335 1.299 . S
N337 N336 1.398 . S
N338 C334 1.367 . S
N338 C335 1.379 . S
H339 C342 0.980 . S
H340 C342 0.981 . S
H341 C342 0.981 . S
C342 C334 1.481 . S
C342 H339 0.980 . S
C342 H340 0.981 . S
C342 H341 0.981 . S
C343 C330 1.481 . S
C343 H344 0.980 . S
C343 H345 0.981 . S
C343 H346 0.981 . S
H344 C343 0.980 . S
H345 C343 0.981 . S
H346 C343 0.981 . S
O347 Zn323 2.066 . S
O347 C326 1.256 . S
O348 Zn320 2.053 . S
O348 C326 1.244 . S
C349 O327 1.259 . S
C349 O328 1.254 . S
O350 Zn320 2.066 . S
O350 C322 1.256 . S
O351 C322 1.244 . S
O351 Zn323 2.053 . S
Zn352 O353 2.055 . S
Zn352 O360 2.040 1_545 S
Zn352 N368 2.036 . S
Zn352 O380 2.053 1_545 S
Zn352 O382 2.065 1_545 S
O353 Zn352 2.055 . S
O353 C356 1.259 1_545 S
C354 O382 1.268 . S
C354 O383 1.244 . S
Zn355 O357 2.046 . S
Zn355 O359 2.055 . S
Zn355 N361 2.036 . S
Zn355 O379 2.066 . S
Zn355 O383 2.053 . S
C356 O353 1.259 1_565 S
C356 O357 1.254 . S
O357 Zn355 2.046 . S
O357 C356 1.254 . S
C358 O379 1.256 . S
C358 O380 1.244 . S
O359 Zn355 2.055 . S
O359 C381 1.259 . S
O360 Zn352 2.040 1_565 S
O360 C381 1.294 . S
N361 Zn355 2.036 . S
N361 C362 1.298 . S
N361 N364 1.398 . S
C362 N361 1.298 . S
C362 N365 1.367 . S
C362 C375 1.481 . S
C363 N364 1.299 . S
C363 N365 1.379 . S
N364 N361 1.398 . S
N364 C363 1.299 . S
N365 C362 1.367 . S
N365 C363 1.379 . S
C366 N368 1.298 . S
C366 N370 1.367 . S
C366 C374 1.481 . S
C367 N369 1.299 . S
C367 N370 1.379 . S
N368 Zn352 2.036 . S
N368 C366 1.298 . S
N368 N369 1.398 . S
N369 C367 1.299 . S
N369 N368 1.398 . S
N370 C366 1.367 . S
N370 C367 1.379 . S
H371 C374 0.980 . S
H372 C374 0.981 . S
H373 C374 0.981 . S
C374 C366 1.481 . S
C374 H371 0.980 . S
C374 H372 0.981 . S
C374 H373 0.981 . S
C375 C362 1.481 . S
C375 H376 0.980 . S
C375 H377 0.981 . S
C375 H378 0.981 . S
H376 C375 0.980 . S
H377 C375 0.981 . S
H378 C375 0.981 . S
O379 Zn355 2.066 . S
O379 C358 1.256 . S
O380 Zn352 2.053 1_565 S
O380 C358 1.244 . S
C381 O359 1.259 . S
C381 O360 1.294 . S
O382 Zn352 2.065 1_565 S
O382 C354 1.268 . S
O383 C354 1.244 . S
O383 Zn355 2.053 . S
Zn384 O385 2.055 . S
Zn384 O392 2.046 . S
Zn384 N400 2.036 . S
Zn384 O412 2.053 . S
Zn384 O414 2.066 . S
O385 Zn384 2.055 . S
O385 C388 1.259 . S
C386 O414 1.256 . S
C386 O415 1.244 . S
Zn387 O389 2.046 . S
Zn387 O391 2.055 . S
Zn387 N393 2.036 . S
Zn387 O411 2.066 . S
Zn387 O415 2.053 . S
C388 O385 1.259 . S
C388 O389 1.254 . S
O389 Zn387 2.046 . S
O389 C388 1.254 . S
C390 O411 1.256 . S
C390 O412 1.244 . S
O391 Zn387 2.055 . S
O391 C413 1.259 . S
O392 Zn384 2.046 . S
O392 C413 1.254 . S
N393 Zn387 2.036 . S
N393 C394 1.298 . S
N393 N396 1.398 . S
C394 N393 1.298 . S
C394 N397 1.367 . S
C394 C407 1.481 . S
C395 N396 1.299 . S
C395 N397 1.379 . S
N396 N393 1.398 . S
N396 C395 1.299 . S
N397 C394 1.367 . S
N397 C395 1.379 . S
C398 N400 1.298 . S
C398 N402 1.367 . S
C398 C406 1.481 . S
C399 N401 1.299 . S
C399 N402 1.379 . S
N400 Zn384 2.036 . S
N400 C398 1.298 . S
N400 N401 1.398 . S
N401 C399 1.299 . S
N401 N400 1.398 . S
N402 C398 1.367 . S
N402 C399 1.379 . S
H403 C406 0.980 . S
H404 C406 0.981 . S
H405 C406 0.981 . S
C406 C398 1.481 . S
C406 H403 0.980 . S
C406 H404 0.981 . S
C406 H405 0.981 . S
C407 C394 1.481 . S
C407 H408 0.980 . S
C407 H409 0.981 . S
C407 H410 0.981 . S
H408 C407 0.980 . S
H409 C407 0.981 . S
H410 C407 0.981 . S
O411 Zn387 2.066 . S
O411 C390 1.256 . S
O412 Zn384 2.053 . S
O412 C390 1.244 . S
C413 O391 1.259 . S
C413 O392 1.254 . S
O414 Zn384 2.066 . S
O414 C386 1.256 . S
O415 C386 1.244 . S
O415 Zn387 2.053 . S
Zn416 O417 2.055 . S
Zn416 O424 2.046 . S
Zn416 N432 2.036 . S
Zn416 O444 2.053 . S
Zn416 O446 2.066 . S
O417 Zn416 2.055 . S
O417 C420 1.259 . S
C418 O446 1.256 . S
C418 O447 1.244 . S
Zn419 O421 2.040 1_545 S
Zn419 O423 2.055 . S
Zn419 N425 2.036 . S
Zn419 O443 2.065 1_545 S
Zn419 O447 2.053 1_545 S
C420 O417 1.259 . S
C420 O421 1.294 . S
O421 Zn419 2.040 1_565 S
O421 C420 1.294 . S
C422 O443 1.268 . S
C422 O444 1.244 . S
O423 Zn419 2.055 . S
O423 C445 1.259 1_545 S
O424 Zn416 2.046 . S
O424 C445 1.254 . S
N425 Zn419 2.036 . S
N425 C426 1.298 . S
N425 N428 1.398 . S
C426 N425 1.298 . S
C426 N429 1.367 . S
C426 C439 1.481 . S
C427 N428 1.299 . S
C427 N429 1.379 . S
N428 N425 1.398 . S
N428 C427 1.299 . S
N429 C426 1.367 . S
N429 C427 1.379 . S
C430 N432 1.298 . S
C430 N434 1.367 . S
C430 C438 1.481 . S
C431 N433 1.299 . S
C431 N434 1.379 . S
N432 Zn416 2.036 . S
N432 C430 1.298 . S
N432 N433 1.398 . S
N433 C431 1.299 . S
N433 N432 1.398 . S
N434 C430 1.367 . S
N434 C431 1.379 . S
H435 C438 0.980 . S
H436 C438 0.981 . S
H437 C438 0.981 . S
C438 C430 1.481 . S
C438 H435 0.980 . S
C438 H436 0.981 . S
C438 H437 0.981 . S
C439 C426 1.481 . S
C439 H440 0.980 . S
C439 H441 0.981 . S
C439 H442 0.981 . S
H440 C439 0.980 . S
H441 C439 0.981 . S
H442 C439 0.981 . S
O443 Zn419 2.065 1_565 S
O443 C422 1.268 . S
O444 Zn416 2.053 . S
O444 C422 1.244 . S
C445 O423 1.259 1_565 S
C445 O424 1.254 . S
O446 Zn416 2.066 . S
O446 C418 1.256 . S
O447 C418 1.244 . S
O447 Zn419 2.053 1_565 S
Zn448 O449 2.055 . S
Zn448 O456 2.046 . S
Zn448 N464 2.036 . S
Zn448 O476 2.053 . S
Zn448 O478 2.066 . S
O449 Zn448 2.055 . S
O449 C452 1.259 . S
C450 O478 1.256 . S
C450 O479 1.244 . S
Zn451 O453 2.046 . S
Zn451 O455 2.055 . S
Zn451 N457 2.036 . S
Zn451 O475 2.066 . S
Zn451 O479 2.053 . S
C452 O449 1.259 . S
C452 O453 1.254 . S
O453 Zn451 2.046 . S
O453 C452 1.254 . S
C454 O475 1.256 . S
C454 O476 1.244 . S
O455 Zn451 2.055 . S
O455 C477 1.259 . S
O456 Zn448 2.046 . S
O456 C477 1.254 . S
N457 Zn451 2.036 . S
N457 C458 1.298 . S
N457 N460 1.398 . S
C458 N457 1.298 . S
C458 N461 1.367 . S
C458 C471 1.481 . S
C459 N460 1.299 . S
C459 N461 1.379 . S
N460 N457 1.398 . S
N460 C459 1.299 . S
N461 C458 1.367 . S
N461 C459 1.379 . S
C462 N464 1.298 . S
C462 N466 1.367 . S
C462 C470 1.481 . S
C463 N465 1.299 . S
C463 N466 1.379 . S
N464 Zn448 2.036 . S
N464 C462 1.298 . S
N464 N465 1.398 . S
N465 C463 1.299 . S
N465 N464 1.398 . S
N466 C462 1.367 . S
N466 C463 1.379 . S
H467 C470 0.980 . S
H468 C470 0.981 . S
H469 C470 0.981 . S
C470 C462 1.481 . S
C470 H467 0.980 . S
C470 H468 0.981 . S
C470 H469 0.981 . S
C471 C458 1.481 . S
C471 H472 0.980 . S
C471 H473 0.981 . S
C471 H474 0.981 . S
H472 C471 0.980 . S
H473 C471 0.981 . S
H474 C471 0.981 . S
O475 Zn451 2.066 . S
O475 C454 1.256 . S
O476 Zn448 2.053 . S
O476 C454 1.244 . S
C477 O455 1.259 . S
C477 O456 1.254 . S
O478 Zn448 2.066 . S
O478 C450 1.256 . S
O479 C450 1.244 . S
O479 Zn451 2.053 . S
Zn480 O481 2.055 . S
Zn480 O488 2.040 1_565 S
Zn480 N496 2.036 . S
Zn480 O508 2.053 1_565 S
Zn480 O510 2.065 1_565 S
O481 Zn480 2.055 . S
O481 C484 1.259 1_565 S
C482 O510 1.268 . S
C482 O511 1.244 . S
Zn483 O485 2.046 . S
Zn483 O487 2.055 . S
Zn483 N489 2.036 . S
Zn483 O507 2.066 . S
Zn483 O511 2.053 . S
C484 O481 1.259 1_545 S
C484 O485 1.254 . S
O485 Zn483 2.046 . S
O485 C484 1.254 . S
C486 O507 1.256 . S
C486 O508 1.244 . S
O487 Zn483 2.055 . S
O487 C509 1.259 . S
O488 Zn480 2.040 1_545 S
O488 C509 1.294 . S
N489 Zn483 2.036 . S
N489 C490 1.298 . S
N489 N492 1.398 . S
C490 N489 1.298 . S
C490 N493 1.367 . S
C490 C503 1.481 . S
C491 N492 1.299 . S
C491 N493 1.379 . S
N492 N489 1.398 . S
N492 C491 1.299 . S
N493 C490 1.367 . S
N493 C491 1.379 . S
C494 N496 1.298 . S
C494 N498 1.367 . S
C494 C502 1.481 . S
C495 N497 1.299 . S
C495 N498 1.379 . S
N496 Zn480 2.036 . S
N496 C494 1.298 . S
N496 N497 1.398 . S
N497 C495 1.299 . S
N497 N496 1.398 . S
N498 C494 1.367 . S
N498 C495 1.379 . S
H499 C502 0.980 . S
H500 C502 0.981 . S
H501 C502 0.981 . S
C502 C494 1.481 . S
C502 H499 0.980 . S
C502 H500 0.981 . S
C502 H501 0.981 . S
C503 C490 1.481 . S
C503 H504 0.980 . S
C503 H505 0.981 . S
C503 H506 0.981 . S
H504 C503 0.980 . S
H505 C503 0.981 . S
H506 C503 0.981 . S
O507 Zn483 2.066 . S
O507 C486 1.256 . S
O508 Zn480 2.053 1_545 S
O508 C486 1.244 . S
C509 O487 1.259 . S
C509 O488 1.294 . S
O510 Zn480 2.065 1_545 S
O510 C482 1.268 . S
O511 C482 1.244 . S
O511 Zn483 2.053 . S
C512 C513 1.349 . S
C512 C514 1.327 . S
C512 H537 0.950 . S
C513 C512 1.349 . S
C513 C529 1.349 . S
C514 C512 1.327 . S
C514 C533 1.429 . S
C514 H538 0.950 . S
C515 C532 1.574 . S
C515 C534 1.368 . S
C515 H539 0.949 . S
H516 C520 0.949 . S
C517 C518 1.349 . S
C517 C519 1.327 . S
C517 H540 0.950 . S
C518 C517 1.349 . S
C518 C530 1.349 . S
C519 C517 1.327 . S
C519 C535 1.429 . S
C519 H541 0.950 . S
C520 H516 0.949 . S
C520 C528 1.574 . S
C520 C536 1.368 . S
H521 C529 0.950 . S
H522 C527 0.950 . S
H523 C528 0.949 . S
H524 C530 0.950 . S
H525 C531 0.950 . S
H526 C532 0.949 . S
C527 H522 0.950 . S
C527 C529 1.327 . S
C527 C533 1.429 . S
C528 C520 1.574 . S
C528 H523 0.949 . S
C528 C534 1.368 . S
C529 C513 1.349 . S
C529 H521 0.950 . S
C529 C527 1.327 . S
C530 C518 1.349 . S
C530 H524 0.950 . S
C530 C531 1.327 . S
C531 H525 0.950 . S
C531 C530 1.327 . S
C531 C535 1.429 . S
C532 C515 1.574 . S
C532 H526 0.949 . S
C532 C536 1.368 . S
C533 C514 1.429 . S
C533 C527 1.429 . S
C533 C534 1.523 . S
C534 C515 1.368 . S
C534 C528 1.368 . S
C534 C533 1.523 . S
C535 C519 1.429 . S
C535 C531 1.429 . S
C535 C536 1.523 . S
C536 C520 1.368 . S
C536 C532 1.368 . S
C536 C535 1.523 . S
H537 C512 0.950 . S
H538 C514 0.950 . S
H539 C515 0.949 . S
H540 C517 0.950 . S
H541 C519 0.950 . S
C542 C543 1.349 . S
C542 C544 1.327 . S
C542 H567 0.950 . S
C543 C542 1.349 . S
C543 C559 1.349 . S
C544 C542 1.327 . S
C544 C563 1.429 . S
C544 H568 0.950 . S
C545 C562 1.574 . S
C545 C564 1.368 . S
C545 H569 0.949 . S
H546 C550 0.949 . S
C547 C548 1.349 . S
C547 C549 1.327 . S
C547 H570 0.950 . S
C548 C547 1.349 . S
C548 C560 1.349 . S
C549 C547 1.327 . S
C549 C565 1.429 . S
C549 H571 0.950 . S
C550 H546 0.949 . S
C550 C558 1.574 . S
C550 C566 1.368 . S
H551 C559 0.950 . S
H552 C557 0.950 . S
H553 C558 0.949 . S
H554 C560 0.950 . S
H555 C561 0.950 . S
H556 C562 0.949 . S
C557 H552 0.950 . S
C557 C559 1.327 . S
C557 C563 1.429 . S
C558 C550 1.574 . S
C558 H553 0.949 . S
C558 C564 1.368 . S
C559 C543 1.349 . S
C559 H551 0.950 . S
C559 C557 1.327 . S
C560 C548 1.349 . S
C560 H554 0.950 . S
C560 C561 1.327 . S
C561 H555 0.950 . S
C561 C560 1.327 . S
C561 C565 1.429 . S
C562 C545 1.574 . S
C562 H556 0.949 . S
C562 C566 1.368 . S
C563 C544 1.429 . S
C563 C557 1.429 . S
C563 C564 1.523 . S
C564 C545 1.368 . S
C564 C558 1.368 . S
C564 C563 1.523 . S
C565 C549 1.429 . S
C565 C561 1.429 . S
C565 C566 1.523 . S
C566 C550 1.368 . S
C566 C562 1.368 . S
C566 C565 1.523 . S
H567 C542 0.950 . S
H568 C544 0.950 . S
H569 C545 0.949 . S
H570 C547 0.950 . S
H571 C549 0.950 . S
C572 C573 1.349 . S
C572 C574 1.327 . S
C572 H597 0.950 . S
C573 C572 1.349 . S
C573 C589 1.349 . S
C574 C572 1.327 . S
C574 C593 1.429 . S
C574 H598 0.950 . S
C575 C592 1.574 . S
C575 C594 1.368 . S
C575 H599 0.949 . S
H576 C580 0.949 . S
C577 C578 1.349 . S
C577 C579 1.327 . S
C577 H600 0.950 . S
C578 C577 1.349 . S
C578 C590 1.349 . S
C579 C577 1.327 . S
C579 C595 1.429 . S
C579 H601 0.950 . S
C580 H576 0.949 . S
C580 C588 1.574 . S
C580 C596 1.368 . S
H581 C589 0.950 . S
H582 C587 0.950 . S
H583 C588 0.949 . S
H584 C590 0.950 . S
H585 C591 0.950 . S
H586 C592 0.949 . S
C587 H582 0.950 . S
C587 C589 1.327 . S
C587 C593 1.429 . S
C588 C580 1.574 . S
C588 H583 0.949 . S
C588 C594 1.368 . S
C589 C573 1.349 . S
C589 H581 0.950 . S
C589 C587 1.327 . S
C590 C578 1.349 . S
C590 H584 0.950 . S
C590 C591 1.327 . S
C591 H585 0.950 . S
C591 C590 1.327 . S
C591 C595 1.429 . S
C592 C575 1.574 . S
C592 H586 0.949 . S
C592 C596 1.368 . S
C593 C574 1.429 . S
C593 C587 1.429 . S
C593 C594 1.523 . S
C594 C575 1.368 . S
C594 C588 1.368 . S
C594 C593 1.523 . S
C595 C579 1.429 . S
C595 C591 1.429 . S
C595 C596 1.523 . S
C596 C580 1.368 . S
C596 C592 1.368 . S
C596 C595 1.523 . S
H597 C572 0.950 . S
H598 C574 0.950 . S
H599 C575 0.949 . S
H600 C577 0.950 . S
H601 C579 0.950 . S
C602 C603 1.349 . S
C602 C604 1.327 . S
C602 H627 0.950 . S
C603 C602 1.349 . S
C603 C619 1.349 . S
C604 C602 1.327 . S
C604 C623 1.429 . S
C604 H628 0.950 . S
C605 C622 1.574 1_556 S
C605 C624 1.368 1_455 S
C605 H629 0.949 . S
H606 C610 0.949 . S
C607 C608 1.349 . S
C607 C609 1.327 . S
C607 H630 0.950 . S
C608 C607 1.349 . S
C608 C620 1.349 . S
C609 C607 1.327 . S
C609 C625 1.429 . S
C609 H631 0.950 . S
C610 H606 0.949 . S
C610 C618 1.574 1_554 S
C610 C626 1.368 1_655 S
H611 C619 0.950 . S
H612 C617 0.950 . S
H613 C618 0.949 . S
H614 C620 0.950 . S
H615 C621 0.950 . S
H616 C622 0.949 . S
C617 H612 0.950 . S
C617 C619 1.327 . S
C617 C623 1.429 . S
C618 C610 1.574 1_556 S
C618 H613 0.949 . S
C618 C624 1.368 . S
C619 C603 1.349 . S
C619 H611 0.950 . S
C619 C617 1.327 . S
C620 C608 1.349 . S
C620 H614 0.950 . S
C620 C621 1.327 . S
C621 H615 0.950 . S
C621 C620 1.327 . S
C621 C625 1.429 . S
C622 C605 1.574 1_554 S
C622 H616 0.949 . S
C622 C626 1.368 . S
C623 C604 1.429 . S
C623 C617 1.429 . S
C623 C624 1.523 . S
C624 C605 1.368 1_655 S
C624 C618 1.368 . S
C624 C623 1.523 . S
C625 C609 1.429 . S
C625 C621 1.429 . S
C625 C626 1.523 . S
C626 C610 1.368 1_455 S
C626 C622 1.368 . S
C626 C625 1.523 . S
H627 C602 0.950 . S
H628 C604 0.950 . S
H629 C605 0.949 . S
H630 C607 0.950 . S
H631 C609 0.950 . S
C632 C633 1.349 . S
C632 C634 1.327 . S
C632 H657 0.950 . S
C633 C632 1.349 . S
C633 C649 1.349 . S
C634 C632 1.327 . S
C634 C653 1.429 . S
C634 H658 0.950 . S
C635 C652 1.574 . S
C635 C654 1.368 . S
C635 H659 0.949 . S
H636 C640 0.949 . S
C637 C638 1.349 . S
C637 C639 1.327 . S
C637 H660 0.950 . S
C638 C637 1.349 . S
C638 C650 1.349 . S
C639 C637 1.327 . S
C639 C655 1.429 . S
C639 H661 0.950 . S
C640 H636 0.949 . S
C640 C648 1.574 . S
C640 C656 1.368 . S
H641 C649 0.950 . S
H642 C647 0.950 . S
H643 C648 0.949 . S
H644 C650 0.950 . S
H645 C651 0.950 . S
H646 C652 0.949 . S
C647 H642 0.950 . S
C647 C649 1.327 . S
C647 C653 1.429 . S
C648 C640 1.574 . S
C648 H643 0.949 . S
C648 C654 1.368 . S
C649 C633 1.349 . S
C649 H641 0.950 . S
C649 C647 1.327 . S
C650 C638 1.349 . S
C650 H644 0.950 . S
C650 C651 1.327 . S
C651 H645 0.950 . S
C651 C650 1.327 . S
C651 C655 1.429 . S
C652 C635 1.574 . S
C652 H646 0.949 . S
C652 C656 1.368 . S
C653 C634 1.429 . S
C653 C647 1.429 . S
C653 C654 1.523 . S
C654 C635 1.368 . S
C654 C648 1.368 . S
C654 C653 1.523 . S
C655 C639 1.429 . S
C655 C651 1.429 . S
C655 C656 1.523 . S
C656 C640 1.368 . S
C656 C652 1.368 . S
C656 C655 1.523 . S
H657 C632 0.950 . S
H658 C634 0.950 . S
H659 C635 0.949 . S
H660 C637 0.950 . S
H661 C639 0.950 . S
C662 C663 1.349 . S
C662 C664 1.327 . S
C662 H687 0.950 . S
C663 C662 1.349 . S
C663 C679 1.349 . S
C664 C662 1.327 . S
C664 C683 1.429 . S
C664 H688 0.950 . S
C665 C682 1.574 . S
C665 C684 1.368 . S
C665 H689 0.949 . S
H666 C670 0.949 . S
C667 C668 1.349 . S
C667 C669 1.327 . S
C667 H690 0.950 . S
C668 C667 1.349 . S
C668 C680 1.349 . S
C669 C667 1.327 . S
C669 C685 1.429 . S
C669 H691 0.950 . S
C670 H666 0.949 . S
C670 C678 1.574 . S
C670 C686 1.368 . S
H671 C679 0.950 . S
H672 C677 0.950 . S
H673 C678 0.949 . S
H674 C680 0.950 . S
H675 C681 0.950 . S
H676 C682 0.949 . S
C677 H672 0.950 . S
C677 C679 1.327 . S
C677 C683 1.429 . S
C678 C670 1.574 . S
C678 H673 0.949 . S
C678 C684 1.368 . S
C679 C663 1.349 . S
C679 H671 0.950 . S
C679 C677 1.327 . S
C680 C668 1.349 . S
C680 H674 0.950 . S
C680 C681 1.327 . S
C681 H675 0.950 . S
C681 C680 1.327 . S
C681 C685 1.429 . S
C682 C665 1.574 . S
C682 H676 0.949 . S
C682 C686 1.368 . S
C683 C664 1.429 . S
C683 C677 1.429 . S
C683 C684 1.523 . S
C684 C665 1.368 . S
C684 C678 1.368 . S
C684 C683 1.523 . S
C685 C669 1.429 . S
C685 C681 1.429 . S
C685 C686 1.523 . S
C686 C670 1.368 . S
C686 C682 1.368 . S
C686 C685 1.523 . S
H687 C662 0.950 . S
H688 C664 0.950 . S
H689 C665 0.949 . S
H690 C667 0.950 . S
H691 C669 0.950 . S
C692 C693 1.349 . S
C692 C694 1.327 . S
C692 H717 0.950 . S
C693 C692 1.349 . S
C693 C709 1.349 . S
C694 C692 1.327 . S
C694 C713 1.429 . S
C694 H718 0.950 . S
C695 C712 1.574 . S
C695 C714 1.368 1_445 S
C695 H719 0.949 . S
H696 C700 0.949 . S
C697 C698 1.349 . S
C697 C699 1.327 . S
C697 H720 0.950 . S
C698 C697 1.349 . S
C698 C710 1.349 . S
C699 C697 1.327 . S
C699 C715 1.429 . S
C699 H721 0.950 . S
C700 H696 0.949 . S
C700 C708 1.574 . S
C700 C716 1.368 1_665 S
H701 C709 0.950 . S
H702 C707 0.950 1_545 S
H703 C708 0.949 . S
H704 C710 0.950 . S
H705 C711 0.950 1_565 S
H706 C712 0.949 . S
C707 H702 0.950 1_565 S
C707 C709 1.327 . S
C707 C713 1.429 . S
C708 C700 1.574 . S
C708 H703 0.949 . S
C708 C714 1.368 1_556 S
C709 C693 1.349 . S
C709 H701 0.950 . S
C709 C707 1.327 . S
C710 C698 1.349 . S
C710 H704 0.950 . S
C710 C711 1.327 . S
C711 H705 0.950 1_545 S
C711 C710 1.327 . S
C711 C715 1.429 . S
C712 C695 1.574 . S
C712 H706 0.949 . S
C712 C716 1.368 1_554 S
C713 C694 1.429 . S
C713 C707 1.429 . S
C713 C714 1.523 . S
C714 C695 1.368 1_665 S
C714 C708 1.368 1_554 S
C714 C713 1.523 . S
C715 C699 1.429 . S
C715 C711 1.429 . S
C715 C716 1.523 . S
C716 C700 1.368 1_445 S
C716 C712 1.368 1_556 S
C716 C715 1.523 . S
H717 C692 0.950 . S
H718 C694 0.950 . S
H719 C695 0.949 . S
H720 C697 0.950 . S
H721 C699 0.950 . S
C722 C723 1.349 . S
C722 C724 1.327 . S
C722 H747 0.950 . S
C723 C722 1.349 . S
C723 C739 1.349 . S
C724 C722 1.327 . S
C724 C743 1.429 . S
C724 H748 0.950 . S
C725 C742 1.574 . S
C725 C744 1.368 1_545 S
C725 H749 0.949 . S
H726 C730 0.949 . S
C727 C728 1.349 . S
C727 C729 1.327 . S
C727 H750 0.950 . S
C728 C727 1.349 . S
C728 C740 1.349 . S
C729 C727 1.327 . S
C729 C745 1.429 . S
C729 H751 0.950 . S
C730 H726 0.949 . S
C730 C738 1.574 . S
C730 C746 1.368 1_565 S
H731 C739 0.950 1_545 S
H732 C737 0.950 . S
H733 C738 0.949 . S
H734 C740 0.950 1_565 S
H735 C741 0.950 . S
H736 C742 0.949 . S
C737 H732 0.950 . S
C737 C739 1.327 1_545 S
C737 C743 1.429 1_545 S
C738 C730 1.574 . S
C738 H733 0.949 . S
C738 C744 1.368 . S
C739 C723 1.349 . S
C739 H731 0.950 1_565 S
C739 C737 1.327 1_565 S
C740 C728 1.349 . S
C740 H734 0.950 1_545 S
C740 C741 1.327 1_545 S
C741 H735 0.950 . S
C741 C740 1.327 1_565 S
C741 C745 1.429 1_565 S
C742 C725 1.574 . S
C742 H736 0.949 . S
C742 C746 1.368 . S
C743 C724 1.429 . S
C743 C737 1.429 1_565 S
C743 C744 1.523 . S
C744 C725 1.368 1_565 S
C744 C738 1.368 . S
C744 C743 1.523 . S
C745 C729 1.429 . S
C745 C741 1.429 1_545 S
C745 C746 1.523 . S
C746 C730 1.368 1_545 S
C746 C742 1.368 . S
C746 C745 1.523 . S
H747 C722 0.950 . S
H748 C724 0.950 . S
H749 C725 0.949 . S
H750 C727 0.950 . S
H751 C729 0.950 . S
C752 C753 1.349 . S
C752 C754 1.327 . S
C752 H777 0.950 . S
C753 C752 1.349 . S
C753 C769 1.349 . S
C754 C752 1.327 . S
C754 C773 1.429 . S
C754 H778 0.950 . S
C755 C772 1.574 . S
C755 C774 1.368 1_554 S
C755 H779 0.949 . S
H756 C760 0.949 . S
C757 C758 1.349 . S
C757 C759 1.327 . S
C757 H780 0.950 . S
C758 C757 1.349 . S
C758 C770 1.349 . S
C759 C757 1.327 . S
C759 C775 1.429 . S
C759 H781 0.950 . S
C760 H756 0.949 . S
C760 C768 1.574 1_554 S
C760 C776 1.368 . S
H761 C769 0.950 . S
H762 C767 0.950 . S
H763 C768 0.949 . S
H764 C770 0.950 . S
H765 C771 0.950 . S
H766 C772 0.949 . S
C767 H762 0.950 . S
C767 C769 1.327 . S
C767 C773 1.429 . S
C768 C760 1.574 1_556 S
C768 H763 0.949 . S
C768 C774 1.368 . S
C769 C753 1.349 . S
C769 H761 0.950 . S
C769 C767 1.327 . S
C770 C758 1.349 . S
C770 H764 0.950 . S
C770 C771 1.327 . S
C771 H765 0.950 . S
C771 C770 1.327 . S
C771 C775 1.429 . S
C772 C755 1.574 . S
C772 H766 0.949 . S
C772 C776 1.368 . S
C773 C754 1.429 . S
C773 C767 1.429 . S
C773 C774 1.523 . S
C774 C755 1.368 1_556 S
C774 C768 1.368 . S
C774 C773 1.523 . S
C775 C759 1.429 . S
C775 C771 1.429 . S
C775 C776 1.523 . S
C776 C760 1.368 . S
C776 C772 1.368 . S
C776 C775 1.523 . S
H777 C752 0.950 . S
H778 C754 0.950 . S
H779 C755 0.949 . S
H780 C757 0.950 . S
H781 C759 0.950 . S
C782 C783 1.349 . S
C782 C784 1.327 . S
C782 H807 0.950 . S
C783 C782 1.349 . S
C783 C799 1.349 . S
C784 C782 1.327 . S
C784 C803 1.429 . S
C784 H808 0.950 . S
C785 C802 1.574 . S
C785 C804 1.368 . S
C785 H809 0.949 . S
H786 C790 0.949 . S
C787 C788 1.349 . S
C787 C789 1.327 . S
C787 H810 0.950 . S
C788 C787 1.349 . S
C788 C800 1.349 . S
C789 C787 1.327 . S
C789 C805 1.429 . S
C789 H811 0.950 . S
C790 H786 0.949 . S
C790 C798 1.574 . S
C790 C806 1.368 . S
H791 C799 0.950 . S
H792 C797 0.950 . S
H793 C798 0.949 . S
H794 C800 0.950 . S
H795 C801 0.950 . S
H796 C802 0.949 . S
C797 H792 0.950 . S
C797 C799 1.327 . S
C797 C803 1.429 . S
C798 C790 1.574 . S
C798 H793 0.949 . S
C798 C804 1.368 . S
C799 C783 1.349 . S
C799 H791 0.950 . S
C799 C797 1.327 . S
C800 C788 1.349 . S
C800 H794 0.950 . S
C800 C801 1.327 . S
C801 H795 0.950 . S
C801 C800 1.327 . S
C801 C805 1.429 . S
C802 C785 1.574 . S
C802 H796 0.949 . S
C802 C806 1.368 . S
C803 C784 1.429 . S
C803 C797 1.429 . S
C803 C804 1.523 . S
C804 C785 1.368 . S
C804 C798 1.368 . S
C804 C803 1.523 . S
C805 C789 1.429 . S
C805 C801 1.429 . S
C805 C806 1.523 . S
C806 C790 1.368 . S
C806 C802 1.368 . S
C806 C805 1.523 . S
H807 C782 0.950 . S
H808 C784 0.950 . S
H809 C785 0.949 . S
H810 C787 0.950 . S
H811 C789 0.950 . S
C812 C813 1.349 . S
C812 C814 1.327 . S
C812 H837 0.950 . S
C813 C812 1.349 . S
C813 C829 1.349 . S
C814 C812 1.327 . S
C814 C833 1.429 . S
C814 H838 0.950 . S
C815 C832 1.574 . S
C815 C834 1.368 . S
C815 H839 0.949 . S
H816 C820 0.949 . S
C817 C818 1.349 . S
C817 C819 1.327 . S
C817 H840 0.950 . S
C818 C817 1.349 . S
C818 C830 1.349 . S
C819 C817 1.327 . S
C819 C835 1.429 . S
C819 H841 0.950 . S
C820 H816 0.949 . S
C820 C828 1.574 . S
C820 C836 1.368 . S
H821 C829 0.950 . S
H822 C827 0.950 . S
H823 C828 0.949 . S
H824 C830 0.950 . S
H825 C831 0.950 . S
H826 C832 0.949 . S
C827 H822 0.950 . S
C827 C829 1.327 . S
C827 C833 1.429 . S
C828 C820 1.574 . S
C828 H823 0.949 . S
C828 C834 1.368 . S
C829 C813 1.349 . S
C829 H821 0.950 . S
C829 C827 1.327 . S
C830 C818 1.349 . S
C830 H824 0.950 . S
C830 C831 1.327 . S
C831 H825 0.950 . S
C831 C830 1.327 . S
C831 C835 1.429 . S
C832 C815 1.574 . S
C832 H826 0.949 . S
C832 C836 1.368 . S
C833 C814 1.429 . S
C833 C827 1.429 . S
C833 C834 1.523 . S
C834 C815 1.368 . S
C834 C828 1.368 . S
C834 C833 1.523 . S
C835 C819 1.429 . S
C835 C831 1.429 . S
C835 C836 1.523 . S
C836 C820 1.368 . S
C836 C832 1.368 . S
C836 C835 1.523 . S
H837 C812 0.950 . S
H838 C814 0.950 . S
H839 C815 0.949 . S
H840 C817 0.950 . S
H841 C819 0.950 . S
C842 C843 1.349 . S
C842 C844 1.327 . S
C842 H867 0.950 . S
C843 C842 1.349 . S
C843 C859 1.349 . S
C844 C842 1.327 . S
C844 C863 1.429 . S
C844 H868 0.950 . S
C845 C862 1.574 . S
C845 C864 1.368 . S
C845 H869 0.949 . S
H846 C850 0.949 . S
C847 C848 1.349 . S
C847 C849 1.327 . S
C847 H870 0.950 . S
C848 C847 1.349 . S
C848 C860 1.349 . S
C849 C847 1.327 . S
C849 C865 1.429 . S
C849 H871 0.950 . S
C850 H846 0.949 . S
C850 C858 1.574 . S
C850 C866 1.368 . S
H851 C859 0.950 . S
H852 C857 0.950 . S
H853 C858 0.949 . S
H854 C860 0.950 . S
H855 C861 0.950 . S
H856 C862 0.949 . S
C857 H852 0.950 . S
C857 C859 1.327 . S
C857 C863 1.429 . S
C858 C850 1.574 . S
C858 H853 0.949 . S
C858 C864 1.368 . S
C859 C843 1.349 . S
C859 H851 0.950 . S
C859 C857 1.327 . S
C860 C848 1.349 . S
C860 H854 0.950 . S
C860 C861 1.327 . S
C861 H855 0.950 . S
C861 C860 1.327 . S
C861 C865 1.429 . S
C862 C845 1.574 . S
C862 H856 0.949 . S
C862 C866 1.368 . S
C863 C844 1.429 . S
C863 C857 1.429 . S
C863 C864 1.523 . S
C864 C845 1.368 . S
C864 C858 1.368 . S
C864 C863 1.523 . S
C865 C849 1.429 . S
C865 C861 1.429 . S
C865 C866 1.523 . S
C866 C850 1.368 . S
C866 C862 1.368 . S
C866 C865 1.523 . S
H867 C842 0.950 . S
H868 C844 0.950 . S
H869 C845 0.949 . S
H870 C847 0.950 . S
H871 C849 0.950 . S
C872 C873 1.349 . S
C872 C874 1.327 . S
C872 H897 0.950 . S
C873 C872 1.349 . S
C873 C889 1.349 . S
C874 C872 1.327 . S
C874 C893 1.429 . S
C874 H898 0.950 . S
C875 C892 1.574 1_554 S
C875 C894 1.368 . S
C875 H899 0.949 . S
H876 C880 0.949 . S
C877 C878 1.349 . S
C877 C879 1.327 . S
C877 H900 0.950 . S
C878 C877 1.349 . S
C878 C890 1.349 . S
C879 C877 1.327 . S
C879 C895 1.429 . S
C879 H901 0.950 . S
C880 H876 0.949 . S
C880 C888 1.556 1_556 S
C880 C896 1.368 . S
H881 C889 0.950 . S
H882 C887 0.950 . S
H883 C888 0.954 . S
H884 C890 0.950 . S
H885 C891 0.950 . S
H886 C892 0.949 . S
C887 H882 0.950 . S
C887 C889 1.327 . S
C887 C893 1.429 . S
C888 C880 1.556 1_554 S
C888 H883 0.954 . S
C888 C894 1.381 . S
C889 C873 1.349 . S
C889 H881 0.950 . S
C889 C887 1.327 . S
C890 C878 1.349 . S
C890 H884 0.950 . S
C890 C891 1.327 . S
C891 H885 0.950 . S
C891 C890 1.327 . S
C891 C895 1.429 . S
C892 C875 1.574 1_556 S
C892 H886 0.949 . S
C892 C896 1.368 . S
C893 C874 1.429 . S
C893 C887 1.429 . S
C893 C894 1.523 . S
C894 C875 1.368 . S
C894 C888 1.381 . S
C894 C893 1.523 . S
C895 C879 1.429 . S
C895 C891 1.429 . S
C895 C896 1.523 . S
C896 C880 1.368 . S
C896 C892 1.368 . S
C896 C895 1.523 . S
H897 C872 0.950 . S
H898 C874 0.950 . S
H899 C875 0.949 . S
H900 C877 0.950 . S
H901 C879 0.950 . S
C902 C903 1.349 . S
C902 C904 1.327 . S
C902 H927 0.950 . S
C903 C902 1.349 . S
C903 C919 1.349 . S
C904 C902 1.327 . S
C904 C923 1.429 . S
C904 H928 0.950 . S
C905 C922 1.574 . S
C905 C924 1.368 . S
C905 H929 0.949 . S
H906 C910 0.949 . S
C907 C908 1.349 . S
C907 C909 1.327 . S
C907 H930 0.950 . S
C908 C907 1.349 . S
C908 C920 1.349 . S
C909 C907 1.327 . S
C909 C925 1.429 . S
C909 H931 0.950 . S
C910 H906 0.949 . S
C910 C918 1.574 . S
C910 C926 1.368 . S
H911 C919 0.950 . S
H912 C917 0.950 . S
H913 C918 0.949 . S
H914 C920 0.950 . S
H915 C921 0.950 . S
H916 C922 0.949 . S
C917 H912 0.950 . S
C917 C919 1.327 . S
C917 C923 1.429 . S
C918 C910 1.574 . S
C918 H913 0.949 . S
C918 C924 1.368 . S
C919 C903 1.349 . S
C919 H911 0.950 . S
C919 C917 1.327 . S
C920 C908 1.349 . S
C920 H914 0.950 . S
C920 C921 1.327 . S
C921 H915 0.950 . S
C921 C920 1.327 . S
C921 C925 1.429 . S
C922 C905 1.574 . S
C922 H916 0.949 . S
C922 C926 1.368 . S
C923 C904 1.429 . S
C923 C917 1.429 . S
C923 C924 1.523 . S
C924 C905 1.368 . S
C924 C918 1.368 . S
C924 C923 1.523 . S
C925 C909 1.429 . S
C925 C921 1.429 . S
C925 C926 1.523 . S
C926 C910 1.368 . S
C926 C922 1.368 . S
C926 C925 1.523 . S
H927 C902 0.950 . S
H928 C904 0.950 . S
H929 C905 0.949 . S
H930 C907 0.950 . S
H931 C909 0.950 . S
C932 C933 1.349 . S
C932 C934 1.327 . S
C932 H957 0.950 . S
C933 C932 1.349 . S
C933 C949 1.349 . S
C934 C932 1.327 . S
C934 C953 1.429 . S
C934 H958 0.950 . S
C935 C952 1.574 . S
C935 C954 1.368 . S
C935 H959 0.949 . S
H936 C940 0.949 . S
C937 C938 1.349 . S
C937 C939 1.327 . S
C937 H960 0.950 . S
C938 C937 1.349 . S
C938 C950 1.349 . S
C939 C937 1.327 . S
C939 C955 1.429 . S
C939 H961 0.950 . S
C940 H936 0.949 . S
C940 C948 1.574 . S
C940 C956 1.368 . S
H941 C949 0.950 . S
H942 C947 0.950 . S
H943 C948 0.949 . S
H944 C950 0.950 . S
H945 C951 0.950 . S
H946 C952 0.949 . S
C947 H942 0.950 . S
C947 C949 1.327 . S
C947 C953 1.429 . S
C948 C940 1.574 . S
C948 H943 0.949 . S
C948 C954 1.368 . S
C949 C933 1.349 . S
C949 H941 0.950 . S
C949 C947 1.327 . S
C950 C938 1.349 . S
C950 H944 0.950 . S
C950 C951 1.327 . S
C951 H945 0.950 . S
C951 C950 1.327 . S
C951 C955 1.429 . S
C952 C935 1.574 . S
C952 H946 0.949 . S
C952 C956 1.368 . S
C953 C934 1.429 . S
C953 C947 1.429 . S
C953 C954 1.523 . S
C954 C935 1.368 . S
C954 C948 1.368 . S
C954 C953 1.523 . S
C955 C939 1.429 . S
C955 C951 1.429 . S
C955 C956 1.523 . S
C956 C940 1.368 . S
C956 C952 1.368 . S
C956 C955 1.523 . S
H957 C932 0.950 . S
H958 C934 0.950 . S
H959 C935 0.949 . S
H960 C937 0.950 . S
H961 C939 0.950 . S
C962 C963 1.349 . S
C962 C964 1.327 . S
C962 H987 0.950 . S
C963 C962 1.349 . S
C963 C979 1.349 . S
C964 C962 1.327 . S
C964 C983 1.429 . S
C964 H988 0.950 . S
C965 C982 1.574 . S
C965 C984 1.368 . S
C965 H989 0.949 . S
H966 C970 0.949 . S
C967 C968 1.349 . S
C967 C969 1.327 . S
C967 H990 0.950 . S
C968 C967 1.349 . S
C968 C980 1.349 . S
C969 C967 1.327 . S
C969 C985 1.429 . S
C969 H991 0.950 . S
C970 H966 0.949 . S
C970 C978 1.574 . S
C970 C986 1.368 . S
H971 C979 0.950 . S
H972 C977 0.950 . S
H973 C978 0.949 . S
H974 C980 0.950 . S
H975 C981 0.950 . S
H976 C982 0.949 . S
C977 H972 0.950 . S
C977 C979 1.327 . S
C977 C983 1.429 . S
C978 C970 1.574 . S
C978 H973 0.949 . S
C978 C984 1.368 . S
C979 C963 1.349 . S
C979 H971 0.950 . S
C979 C977 1.327 . S
C980 C968 1.349 . S
C980 H974 0.950 . S
C980 C981 1.327 . S
C981 H975 0.950 . S
C981 C980 1.327 . S
C981 C985 1.429 . S
C982 C965 1.574 . S
C982 H976 0.949 . S
C982 C986 1.368 . S
C983 C964 1.429 . S
C983 C977 1.429 . S
C983 C984 1.523 . S
C984 C965 1.368 . S
C984 C978 1.368 . S
C984 C983 1.523 . S
C985 C969 1.429 . S
C985 C981 1.429 . S
C985 C986 1.523 . S
C986 C970 1.368 . S
C986 C982 1.368 . S
C986 C985 1.523 . S
H987 C962 0.950 . S
H988 C964 0.950 . S
H989 C965 0.949 . S
H990 C967 0.950 . S
H991 C969 0.950 . S
C992 C993 1.349 . S
C992 C994 1.327 . S
C992 H1017 0.950 . S
C993 C992 1.349 . S
C993 C1009 1.349 . S
C994 C992 1.327 . S
C994 C1013 1.429 . S
C994 H1018 0.950 . S
C995 C1012 1.574 . S
C995 C1014 1.368 . S
C995 H1019 0.949 . S
H996 C1000 0.949 . S
C997 C998 1.349 . S
C997 C999 1.327 . S
C997 H1020 0.950 . S
C998 C997 1.349 . S
C998 C1010 1.349 . S
C999 C997 1.327 . S
C999 C1015 1.429 . S
C999 H1021 0.950 . S
C1000 H996 0.949 . S
C1000 C1008 1.574 . S
C1000 C1016 1.368 . S
H1001 C1009 0.950 . S
H1002 C1007 0.950 . S
H1003 C1008 0.949 . S
H1004 C1010 0.950 . S
H1005 C1011 0.950 . S
H1006 C1012 0.949 . S
C1007 H1002 0.950 . S
C1007 C1009 1.327 . S
C1007 C1013 1.429 . S
C1008 C1000 1.574 . S
C1008 H1003 0.949 . S
C1008 C1014 1.368 . S
C1009 C993 1.349 . S
C1009 H1001 0.950 . S
C1009 C1007 1.327 . S
C1010 C998 1.349 . S
C1010 H1004 0.950 . S
C1010 C1011 1.327 . S
C1011 H1005 0.950 . S
C1011 C1010 1.327 . S
C1011 C1015 1.429 . S
C1012 C995 1.574 . S
C1012 H1006 0.949 . S
C1012 C1016 1.368 . S
C1013 C994 1.429 . S
C1013 C1007 1.429 . S
C1013 C1014 1.523 . S
C1014 C995 1.368 . S
C1014 C1008 1.368 . S
C1014 C1013 1.523 . S
C1015 C999 1.429 . S
C1015 C1011 1.429 . S
C1015 C1016 1.523 . S
C1016 C1000 1.368 . S
C1016 C1012 1.368 . S
C1016 C1015 1.523 . S
H1017 C992 0.950 . S
H1018 C994 0.950 . S
H1019 C995 0.949 . S
H1020 C997 0.950 . S
H1021 C999 0.950 . S
C1022 C1023 1.349 1_565 S
C1022 C1024 1.327 . S
C1022 H1047 0.950 . S
C1023 C1022 1.349 1_545 S
C1023 C1039 1.349 . S
C1024 C1022 1.327 . S
C1024 C1043 1.429 . S
C1024 H1048 0.950 . S
C1025 C1042 1.574 . S
C1025 C1044 1.368 . S
C1025 H1049 0.924 1_565 S
H1026 C1030 0.949 . S
C1027 C1028 1.349 . S
C1027 C1029 1.327 . S
C1027 H1050 0.950 . S
C1028 C1027 1.349 . S
C1028 C1040 1.349 . S
C1029 C1027 1.327 . S
C1029 C1045 1.429 . S
C1029 H1051 0.950 . S
C1030 H1026 0.949 . S
C1030 C1038 1.574 . S
C1030 C1046 1.368 . S
H1031 C1039 0.950 . S
H1032 C1037 0.950 . S
H1033 C1038 0.949 . S
H1034 C1040 0.950 . S
H1035 C1041 0.950 . S
H1036 C1042 0.949 . S
C1037 H1032 0.950 . S
C1037 C1039 1.327 . S
C1037 C1043 1.429 1_545 S
C1038 C1030 1.574 . S
C1038 H1033 0.949 . S
C1038 C1044 1.368 . S
C1039 C1023 1.349 . S
C1039 H1031 0.950 . S
C1039 C1037 1.327 . S
C1040 C1028 1.349 . S
C1040 H1034 0.950 . S
C1040 C1041 1.327 . S
C1041 H1035 0.950 . S
C1041 C1040 1.327 . S
C1041 C1045 1.429 . S
C1042 C1025 1.574 . S
C1042 H1036 0.949 . S
C1042 C1046 1.368 . S
C1043 C1024 1.429 . S
C1043 C1037 1.429 1_565 S
C1043 C1044 1.523 . S
C1044 C1025 1.368 . S
C1044 C1038 1.368 . S
C1044 C1043 1.523 . S
C1045 C1029 1.429 . S
C1045 C1041 1.429 . S
C1045 C1046 1.523 . S
C1046 C1030 1.368 . S
C1046 C1042 1.368 . S
C1046 C1045 1.523 . S
H1047 C1022 0.950 . S
H1048 C1024 0.950 . S
H1049 C1025 0.924 1_545 S
H1050 C1027 0.950 . S
H1051 C1029 0.950 . S
C1052 C1053 1.349 . S
C1052 C1054 1.327 . S
C1052 H1077 0.950 . S
C1053 C1052 1.349 . S
C1053 C1069 1.349 . S
C1054 C1052 1.327 . S
C1054 C1073 1.429 . S
C1054 H1078 0.950 . S
C1055 C1072 1.574 1_554 S
C1055 C1074 1.368 . S
C1055 H1079 0.949 . S
H1056 C1060 0.949 . S
C1057 C1058 1.349 . S
C1057 C1059 1.327 . S
C1057 H1080 0.950 . S
C1058 C1057 1.349 . S
C1058 C1070 1.349 . S
C1059 C1057 1.327 . S
C1059 C1075 1.429 . S
C1059 H1081 0.950 . S
C1060 H1056 0.949 . S
C1060 C1068 1.574 . S
C1060 C1076 1.368 1_554 S
H1061 C1069 0.950 . S
H1062 C1067 0.950 . S
H1063 C1068 0.949 . S
H1064 C1070 0.950 . S
H1065 C1071 0.950 . S
H1066 C1072 0.949 . S
C1067 H1062 0.950 . S
C1067 C1069 1.327 . S
C1067 C1073 1.429 . S
C1068 C1060 1.574 . S
C1068 H1063 0.949 . S
C1068 C1074 1.368 . S
C1069 C1053 1.349 . S
C1069 H1061 0.950 . S
C1069 C1067 1.327 . S
C1070 C1058 1.349 . S
C1070 H1064 0.950 . S
C1070 C1071 1.327 . S
C1071 H1065 0.950 . S
C1071 C1070 1.327 . S
C1071 C1075 1.429 . S
C1072 C1055 1.574 1_556 S
C1072 H1066 0.949 . S
C1072 C1076 1.368 . S
C1073 C1054 1.429 . S
C1073 C1067 1.429 . S
C1073 C1074 1.523 . S
C1074 C1055 1.368 . S
C1074 C1068 1.368 . S
C1074 C1073 1.523 . S
C1075 C1059 1.429 . S
C1075 C1071 1.429 . S
C1075 C1076 1.523 . S
C1076 C1060 1.368 1_556 S
C1076 C1072 1.368 . S
C1076 C1075 1.523 . S
H1077 C1052 0.950 . S
H1078 C1054 0.950 . S
H1079 C1055 0.949 . S
H1080 C1057 0.950 . S
H1081 C1059 0.950 . S
C1082 C1083 1.349 . S
C1082 C1084 1.327 . S
C1082 H1107 0.950 . S
C1083 C1082 1.349 . S
C1083 C1099 1.349 . S
C1084 C1082 1.327 . S
C1084 C1103 1.429 . S
C1084 H1108 0.950 . S
C1085 C1102 1.574 . S
C1085 C1104 1.368 . S
C1085 H1109 0.949 . S
H1086 C1090 0.949 . S
C1087 C1088 1.349 1_545 S
C1087 C1089 1.327 . S
C1087 H1110 0.950 . S
C1088 C1087 1.349 1_565 S
C1088 C1100 1.349 . S
C1089 C1087 1.327 . S
C1089 C1105 1.429 . S
C1089 H1111 0.950 . S
C1090 H1086 0.949 . S
C1090 C1098 1.574 . S
C1090 C1106 1.368 . S
H1091 C1099 0.950 . S
H1092 C1097 0.950 . S
H1093 C1098 0.949 . S
H1094 C1100 0.950 . S
H1095 C1101 0.950 . S
H1096 C1102 0.949 . S
C1097 H1092 0.950 . S
C1097 C1099 1.327 . S
C1097 C1103 1.429 . S
C1098 C1090 1.574 . S
C1098 H1093 0.949 . S
C1098 C1104 1.368 . S
C1099 C1083 1.349 . S
C1099 H1091 0.950 . S
C1099 C1097 1.327 . S
C1100 C1088 1.349 . S
C1100 H1094 0.950 . S
C1100 C1101 1.327 1_565 S
C1101 H1095 0.950 . S
C1101 C1100 1.327 1_545 S
C1101 C1105 1.429 . S
C1102 C1085 1.574 . S
C1102 H1096 0.949 . S
C1102 C1106 1.368 . S
C1103 C1084 1.429 . S
C1103 C1097 1.429 . S
C1103 C1104 1.523 . S
C1104 C1085 1.368 . S
C1104 C1098 1.368 . S
C1104 C1103 1.523 . S
C1105 C1089 1.429 . S
C1105 C1101 1.429 . S
C1105 C1106 1.523 . S
C1106 C1090 1.368 . S
C1106 C1102 1.368 . S
C1106 C1105 1.523 . S
H1107 C1082 0.950 . S
H1108 C1084 0.950 . S
H1109 C1085 0.949 . S
H1110 C1087 0.950 . S
H1111 C1089 0.950 . S
C1112 C1113 1.349 . S
C1112 C1114 1.327 . S
C1112 H1137 0.950 . S
C1113 C1112 1.349 . S
C1113 C1129 1.349 . S
C1114 C1112 1.327 . S
C1114 C1133 1.429 . S
C1114 H1138 0.950 . S
C1115 C1132 1.574 . S
C1115 C1134 1.368 . S
C1115 H1139 0.949 . S
H1116 C1120 0.949 . S
C1117 C1118 1.349 . S
C1117 C1119 1.327 . S
C1117 H1140 0.950 . S
C1118 C1117 1.349 . S
C1118 C1130 1.349 . S
C1119 C1117 1.327 . S
C1119 C1135 1.429 . S
C1119 H1141 0.950 . S
C1120 H1116 0.949 . S
C1120 C1128 1.574 . S
C1120 C1136 1.368 . S
H1121 C1129 0.950 . S
H1122 C1127 0.950 . S
H1123 C1128 0.949 . S
H1124 C1130 0.950 . S
H1125 C1131 0.950 . S
H1126 C1132 0.949 . S
C1127 H1122 0.950 . S
C1127 C1129 1.327 . S
C1127 C1133 1.429 . S
C1128 C1120 1.574 . S
C1128 H1123 0.949 . S
C1128 C1134 1.368 . S
C1129 C1113 1.349 . S
C1129 H1121 0.950 . S
C1129 C1127 1.327 . S
C1130 C1118 1.349 . S
C1130 H1124 0.950 . S
C1130 C1131 1.327 . S
C1131 H1125 0.950 . S
C1131 C1130 1.327 . S
C1131 C1135 1.429 . S
C1132 C1115 1.574 . S
C1132 H1126 0.949 . S
C1132 C1136 1.368 . S
C1133 C1114 1.429 . S
C1133 C1127 1.429 . S
C1133 C1134 1.523 . S
C1134 C1115 1.368 . S
C1134 C1128 1.368 . S
C1134 C1133 1.523 . S
C1135 C1119 1.429 . S
C1135 C1131 1.429 . S
C1135 C1136 1.523 . S
C1136 C1120 1.368 . S
C1136 C1132 1.368 . S
C1136 C1135 1.523 . S
H1137 C1112 0.950 . S
H1138 C1114 0.950 . S
H1139 C1115 0.949 . S
H1140 C1117 0.950 . S
H1141 C1119 0.950 . S
C1142 C1143 1.349 . S
C1142 C1144 1.327 . S
C1142 H1167 0.950 . S
C1143 C1142 1.349 . S
C1143 C1159 1.349 1_565 S
C1144 C1142 1.327 . S
C1144 C1163 1.429 1_565 S
C1144 H1168 0.950 . S
C1145 C1162 1.574 . S
C1145 C1164 1.368 . S
C1145 H1169 0.949 . S
H1146 C1150 0.949 . S
C1147 C1148 1.349 . S
C1147 C1149 1.327 . S
C1147 H1170 0.950 . S
C1148 C1147 1.349 . S
C1148 C1160 1.349 . S
C1149 C1147 1.327 . S
C1149 C1165 1.429 . S
C1149 H1171 0.950 . S
C1150 H1146 0.949 . S
C1150 C1158 1.574 . S
C1150 C1166 1.368 . S
H1151 C1159 0.950 . S
H1152 C1157 0.950 . S
H1153 C1158 0.949 . S
H1154 C1160 0.950 . S
H1155 C1161 0.950 . S
H1156 C1162 0.949 . S
C1157 H1152 0.950 . S
C1157 C1159 1.327 . S
C1157 C1163 1.429 . S
C1158 C1150 1.574 . S
C1158 H1153 0.949 . S
C1158 C1164 1.368 . S
C1159 C1143 1.349 1_545 S
C1159 H1151 0.950 . S
C1159 C1157 1.327 . S
C1160 C1148 1.349 . S
C1160 H1154 0.950 . S
C1160 C1161 1.327 . S
C1161 H1155 0.950 . S
C1161 C1160 1.327 . S
C1161 C1165 1.429 . S
C1162 C1145 1.574 . S
C1162 H1156 0.949 . S
C1162 C1166 1.368 . S
C1163 C1144 1.429 1_545 S
C1163 C1157 1.429 . S
C1163 C1164 1.523 . S
C1164 C1145 1.368 . S
C1164 C1158 1.368 . S
C1164 C1163 1.523 . S
C1165 C1149 1.429 . S
C1165 C1161 1.429 . S
C1165 C1166 1.523 . S
C1166 C1150 1.368 . S
C1166 C1162 1.368 . S
C1166 C1165 1.523 . S
H1167 C1142 0.950 . S
H1168 C1144 0.950 . S
H1169 C1145 0.949 . S
H1170 C1147 0.950 . S
H1171 C1149 0.950 . S
C1172 C1173 1.349 . S
C1172 C1174 1.327 . S
C1172 H1197 0.950 . S
C1173 C1172 1.349 . S
C1173 C1189 1.349 . S
C1174 C1172 1.327 . S
C1174 C1193 1.429 . S
C1174 H1198 0.950 . S
C1175 C1192 1.574 1_554 S
C1175 C1194 1.368 . S
C1175 H1199 0.949 . S
H1176 C1180 0.949 . S
C1177 C1178 1.349 . S
C1177 C1179 1.327 . S
C1177 H1200 0.950 . S
C1178 C1177 1.349 . S
C1178 C1190 1.349 . S
C1179 C1177 1.327 . S
C1179 C1195 1.429 . S
C1179 H1201 0.950 . S
C1180 H1176 0.949 . S
C1180 C1188 1.574 . S
C1180 C1196 1.368 . S
H1181 C1189 0.950 . S
H1182 C1187 0.950 . S
H1183 C1188 0.949 . S
H1184 C1190 0.950 . S
H1185 C1191 0.950 . S
H1186 C1192 0.949 . S
C1187 H1182 0.950 . S
C1187 C1189 1.327 . S
C1187 C1193 1.429 . S
C1188 C1180 1.574 . S
C1188 H1183 0.949 . S
C1188 C1194 1.368 1_556 S
C1189 C1173 1.349 . S
C1189 H1181 0.950 . S
C1189 C1187 1.327 . S
C1190 C1178 1.349 . S
C1190 H1184 0.950 . S
C1190 C1191 1.327 . S
C1191 H1185 0.950 . S
C1191 C1190 1.327 . S
C1191 C1195 1.429 . S
C1192 C1175 1.574 1_556 S
C1192 H1186 0.949 . S
C1192 C1196 1.368 . S
C1193 C1174 1.429 . S
C1193 C1187 1.429 . S
C1193 C1194 1.523 . S
C1194 C1175 1.368 . S
C1194 C1188 1.368 1_554 S
C1194 C1193 1.523 . S
C1195 C1179 1.429 . S
C1195 C1191 1.429 . S
C1195 C1196 1.523 . S
C1196 C1180 1.368 . S
C1196 C1192 1.368 . S
C1196 C1195 1.523 . S
H1197 C1172 0.950 . S
H1198 C1174 0.950 . S
H1199 C1175 0.949 . S
H1200 C1177 0.950 . S
H1201 C1179 0.950 . S
C1202 C1203 1.349 . S
C1202 C1204 1.327 . S
C1202 H1227 0.950 . S
C1203 C1202 1.349 . S
C1203 C1219 1.349 1_545 S
C1204 C1202 1.327 . S
C1204 C1223 1.429 1_545 S
C1204 H1228 0.950 . S
C1205 C1222 1.574 . S
C1205 C1224 1.368 . S
C1205 H1229 0.949 . S
H1206 C1210 0.949 . S
C1207 C1208 1.349 . S
C1207 C1209 1.327 . S
C1207 H1230 0.950 . S
C1208 C1207 1.349 . S
C1208 C1220 1.349 . S
C1209 C1207 1.327 . S
C1209 C1225 1.429 . S
C1209 H1231 0.950 . S
C1210 H1206 0.949 . S
C1210 C1218 1.574 . S
C1210 C1226 1.368 . S
H1211 C1219 0.950 . S
H1212 C1217 0.950 . S
H1213 C1218 0.940 1_545 S
H1214 C1220 0.950 . S
H1215 C1221 0.950 . S
H1216 C1222 0.949 . S
C1217 H1212 0.950 . S
C1217 C1219 1.327 . S
C1217 C1223 1.429 . S
C1218 C1210 1.574 . S
C1218 H1213 0.940 1_565 S
C1218 C1224 1.368 . S
C1219 C1203 1.349 1_565 S
C1219 H1211 0.950 . S
C1219 C1217 1.327 . S
C1220 C1208 1.349 . S
C1220 H1214 0.950 . S
C1220 C1221 1.327 . S
C1221 H1215 0.950 . S
C1221 C1220 1.327 . S
C1221 C1225 1.429 . S
C1222 C1205 1.574 . S
C1222 H1216 0.949 . S
C1222 C1226 1.368 . S
C1223 C1204 1.429 1_565 S
C1223 C1217 1.429 . S
C1223 C1224 1.523 . S
C1224 C1205 1.368 . S
C1224 C1218 1.368 . S
C1224 C1223 1.523 . S
C1225 C1209 1.429 . S
C1225 C1221 1.429 . S
C1225 C1226 1.523 . S
C1226 C1210 1.368 . S
C1226 C1222 1.368 . S
C1226 C1225 1.523 . S
H1227 C1202 0.950 . S
H1228 C1204 0.950 . S
H1229 C1205 0.949 . S
H1230 C1207 0.950 . S
H1231 C1209 0.950 . S
C1232 C1233 1.349 . S
C1232 C1234 1.327 . S
C1232 H1257 0.950 . S
C1233 C1232 1.349 . S
C1233 C1249 1.349 . S
C1234 C1232 1.327 . S
C1234 C1253 1.429 . S
C1234 H1258 0.950 . S
C1235 C1252 1.574 . S
C1235 C1254 1.368 . S
C1235 H1259 0.949 . S
H1236 C1240 0.949 . S
C1237 C1238 1.349 . S
C1237 C1239 1.327 . S
C1237 H1260 0.950 . S
C1238 C1237 1.349 . S
C1238 C1250 1.349 . S
C1239 C1237 1.327 . S
C1239 C1255 1.429 . S
C1239 H1261 0.950 . S
C1240 H1236 0.949 . S
C1240 C1248 1.574 . S
C1240 C1256 1.368 . S
H1241 C1249 0.950 . S
H1242 C1247 0.950 . S
H1243 C1248 0.949 . S
H1244 C1250 0.950 . S
H1245 C1251 0.950 . S
H1246 C1252 0.949 . S
C1247 H1242 0.950 . S
C1247 C1249 1.327 . S
C1247 C1253 1.429 . S
C1248 C1240 1.574 . S
C1248 H1243 0.949 . S
C1248 C1254 1.368 . S
C1249 C1233 1.349 . S
C1249 H1241 0.950 . S
C1249 C1247 1.327 . S
C1250 C1238 1.349 . S
C1250 H1244 0.950 . S
C1250 C1251 1.327 . S
C1251 H1245 0.950 . S
C1251 C1250 1.327 . S
C1251 C1255 1.429 . S
C1252 C1235 1.574 . S
C1252 H1246 0.949 . S
C1252 C1256 1.368 . S
C1253 C1234 1.429 . S
C1253 C1247 1.429 . S
C1253 C1254 1.523 . S
C1254 C1235 1.368 . S
C1254 C1248 1.368 . S
C1254 C1253 1.523 . S
C1255 C1239 1.429 . S
C1255 C1251 1.429 . S
C1255 C1256 1.523 . S
C1256 C1240 1.368 . S
C1256 C1252 1.368 . S
C1256 C1255 1.523 . S
H1257 C1232 0.950 . S
H1258 C1234 0.950 . S
H1259 C1235 0.949 . S
H1260 C1237 0.950 . S
H1261 C1239 0.950 . S
C1262 C1263 1.349 . S
C1262 C1264 1.327 . S
C1262 H1287 0.950 . S
C1263 C1262 1.349 . S
C1263 C1279 1.349 . S
C1264 C1262 1.327 . S
C1264 C1283 1.429 . S
C1264 H1288 0.950 . S
C1265 C1282 1.574 . S
C1265 C1284 1.368 . S
C1265 H1289 0.949 . S
H1266 C1270 0.949 . S
C1267 C1268 1.349 . S
C1267 C1269 1.327 . S
C1267 H1290 0.950 . S
C1268 C1267 1.349 . S
C1268 C1280 1.349 . S
C1269 C1267 1.327 . S
C1269 C1285 1.429 . S
C1269 H1291 0.950 . S
C1270 H1266 0.949 . S
C1270 C1278 1.574 . S
C1270 C1286 1.368 . S
H1271 C1279 0.950 . S
H1272 C1277 0.950 . S
H1273 C1278 0.949 . S
H1274 C1280 0.950 . S
H1275 C1281 0.950 . S
H1276 C1282 0.949 . S
C1277 H1272 0.950 . S
C1277 C1279 1.327 . S
C1277 C1283 1.429 . S
C1278 C1270 1.574 . S
C1278 H1273 0.949 . S
C1278 C1284 1.368 . S
C1279 C1263 1.349 . S
C1279 H1271 0.950 . S
C1279 C1277 1.327 . S
C1280 C1268 1.349 . S
C1280 H1274 0.950 . S
C1280 C1281 1.327 . S
C1281 H1275 0.950 . S
C1281 C1280 1.327 . S
C1281 C1285 1.429 . S
C1282 C1265 1.574 . S
C1282 H1276 0.949 . S
C1282 C1286 1.368 . S
C1283 C1264 1.429 . S
C1283 C1277 1.429 . S
C1283 C1284 1.523 . S
C1284 C1265 1.368 . S
C1284 C1278 1.368 . S
C1284 C1283 1.523 . S
C1285 C1269 1.429 . S
C1285 C1281 1.429 . S
C1285 C1286 1.523 . S
C1286 C1270 1.368 . S
C1286 C1282 1.368 . S
C1286 C1285 1.523 . S
H1287 C1262 0.950 . S
H1288 C1264 0.950 . S
H1289 C1265 0.949 . S
H1290 C1267 0.950 . S
H1291 C1269 0.950 . S
C1292 C1293 1.349 . S
C1292 C1294 1.327 . S
C1292 H1317 0.950 . S
C1293 C1292 1.349 . S
C1293 C1309 1.349 . S
C1294 C1292 1.327 . S
C1294 C1313 1.429 . S
C1294 H1318 0.950 . S
C1295 C1312 1.574 1_655 S
C1295 C1314 1.368 . S
C1295 H1319 0.949 . S
H1296 C1300 0.949 . S
C1297 C1298 1.349 . S
C1297 C1299 1.327 . S
C1297 H1320 0.950 . S
C1298 C1297 1.349 . S
C1298 C1310 1.349 . S
C1299 C1297 1.327 . S
C1299 C1315 1.429 . S
C1299 H1321 0.950 . S
C1300 H1296 0.949 . S
C1300 C1308 1.574 1_455 S
C1300 C1316 1.368 . S
H1301 C1309 0.950 . S
H1302 C1307 0.950 . S
H1303 C1308 0.949 . S
H1304 C1310 0.950 . S
H1305 C1311 0.950 . S
H1306 C1312 0.949 . S
C1307 H1302 0.950 . S
C1307 C1309 1.327 . S
C1307 C1313 1.429 . S
C1308 C1300 1.574 1_655 S
C1308 H1303 0.949 . S
C1308 C1314 1.368 . S
C1309 C1293 1.349 . S
C1309 H1301 0.950 . S
C1309 C1307 1.327 . S
C1310 C1298 1.349 . S
C1310 H1304 0.950 . S
C1310 C1311 1.327 . S
C1311 H1305 0.950 . S
C1311 C1310 1.327 . S
C1311 C1315 1.429 . S
C1312 C1295 1.574 1_455 S
C1312 H1306 0.949 . S
C1312 C1316 1.368 . S
C1313 C1294 1.429 . S
C1313 C1307 1.429 . S
C1313 C1314 1.523 . S
C1314 C1295 1.368 . S
C1314 C1308 1.368 . S
C1314 C1313 1.523 . S
C1315 C1299 1.429 . S
C1315 C1311 1.429 . S
C1315 C1316 1.523 . S
C1316 C1300 1.368 . S
C1316 C1312 1.368 . S
C1316 C1315 1.523 . S
H1317 C1292 0.950 . S
H1318 C1294 0.950 . S
H1319 C1295 0.949 . S
H1320 C1297 0.950 . S
H1321 C1299 0.950 . S
C1322 C1323 1.349 . S
C1322 C1324 1.327 . S
C1322 H1347 0.950 . S
C1323 C1322 1.349 . S
C1323 C1339 1.349 . S
C1324 C1322 1.327 . S
C1324 C1343 1.429 . S
C1324 H1348 0.950 . S
C1325 C1342 1.574 . S
C1325 C1344 1.368 1_455 S
C1325 H1349 0.949 . S
H1326 C1330 0.949 . S
C1327 C1328 1.349 . S
C1327 C1329 1.327 . S
C1327 H1350 0.950 . S
C1328 C1327 1.349 . S
C1328 C1340 1.349 . S
C1329 C1327 1.327 . S
C1329 C1345 1.429 . S
C1329 H1351 0.950 . S
C1330 H1326 0.949 . S
C1330 C1338 1.574 . S
C1330 C1346 1.368 1_655 S
H1331 C1339 0.950 . S
H1332 C1337 0.950 . S
H1333 C1338 0.949 . S
H1334 C1340 0.950 . S
H1335 C1341 0.950 . S
H1336 C1342 0.949 . S
C1337 H1332 0.950 . S
C1337 C1339 1.327 . S
C1337 C1343 1.429 . S
C1338 C1330 1.574 . S
C1338 H1333 0.949 . S
C1338 C1344 1.368 . S
C1339 C1323 1.349 . S
C1339 H1331 0.950 . S
C1339 C1337 1.327 . S
C1340 C1328 1.349 . S
C1340 H1334 0.950 . S
C1340 C1341 1.327 . S
C1341 H1335 0.950 . S
C1341 C1340 1.327 . S
C1341 C1345 1.429 . S
C1342 C1325 1.574 . S
C1342 H1336 0.949 . S
C1342 C1346 1.368 . S
C1343 C1324 1.429 . S
C1343 C1337 1.429 . S
C1343 C1344 1.523 . S
C1344 C1325 1.368 1_655 S
C1344 C1338 1.368 . S
C1344 C1343 1.523 . S
C1345 C1329 1.429 . S
C1345 C1341 1.429 . S
C1345 C1346 1.523 . S
C1346 C1330 1.368 1_455 S
C1346 C1342 1.368 . S
C1346 C1345 1.523 . S
H1347 C1322 0.950 . S
H1348 C1324 0.950 . S
H1349 C1325 0.949 . S
H1350 C1327 0.950 . S
H1351 C1329 0.950 . S
C1352 C1353 1.349 . S
C1352 C1354 1.327 . S
C1352 H1377 0.950 . S
C1353 C1352 1.349 . S
C1353 C1369 1.349 . S
C1354 C1352 1.327 . S
C1354 C1373 1.429 . S
C1354 H1378 0.950 . S
C1355 C1372 1.574 . S
C1355 C1374 1.368 . S
C1355 H1379 0.949 . S
H1356 C1360 0.949 . S
C1357 C1358 1.349 . S
C1357 C1359 1.327 . S
C1357 H1380 0.950 . S
C1358 C1357 1.349 . S
C1358 C1370 1.349 . S
C1359 C1357 1.327 . S
C1359 C1375 1.429 . S
C1359 H1381 0.950 . S
C1360 H1356 0.949 . S
C1360 C1368 1.574 . S
C1360 C1376 1.368 . S
H1361 C1369 0.950 . S
H1362 C1367 0.950 . S
H1363 C1368 0.949 . S
H1364 C1370 0.950 . S
H1365 C1371 0.950 . S
H1366 C1372 0.949 . S
C1367 H1362 0.950 . S
C1367 C1369 1.327 . S
C1367 C1373 1.429 . S
C1368 C1360 1.574 . S
C1368 H1363 0.949 . S
C1368 C1374 1.368 . S
C1369 C1353 1.349 . S
C1369 H1361 0.950 . S
C1369 C1367 1.327 . S
C1370 C1358 1.349 . S
C1370 H1364 0.950 . S
C1370 C1371 1.327 . S
C1371 H1365 0.950 . S
C1371 C1370 1.327 . S
C1371 C1375 1.429 . S
C1372 C1355 1.574 . S
C1372 H1366 0.949 . S
C1372 C1376 1.368 . S
C1373 C1354 1.429 . S
C1373 C1367 1.429 . S
C1373 C1374 1.523 . S
C1374 C1355 1.368 . S
C1374 C1368 1.368 . S
C1374 C1373 1.523 . S
C1375 C1359 1.429 . S
C1375 C1371 1.429 . S
C1375 C1376 1.523 . S
C1376 C1360 1.368 . S
C1376 C1372 1.368 . S
C1376 C1375 1.523 . S
H1377 C1352 0.950 . S
H1378 C1354 0.950 . S
H1379 C1355 0.949 . S
H1380 C1357 0.950 . S
H1381 C1359 0.950 . S
C1382 C1383 1.349 . S
C1382 C1384 1.327 . S
C1382 H1407 0.950 . S
C1383 C1382 1.349 . S
C1383 C1399 1.349 . S
C1384 C1382 1.327 . S
C1384 C1403 1.429 . S
C1384 H1408 0.950 . S
C1385 C1402 1.574 . S
C1385 C1404 1.368 . S
C1385 H1409 0.949 . S
H1386 C1390 0.949 . S
C1387 C1388 1.349 . S
C1387 C1389 1.327 . S
C1387 H1410 0.950 . S
C1388 C1387 1.349 . S
C1388 C1400 1.349 . S
C1389 C1387 1.327 . S
C1389 C1405 1.429 . S
C1389 H1411 0.950 . S
C1390 H1386 0.949 . S
C1390 C1398 1.574 . S
C1390 C1406 1.368 . S
H1391 C1399 0.950 . S
H1392 C1397 0.950 . S
H1393 C1398 0.949 . S
H1394 C1400 0.950 . S
H1395 C1401 0.950 . S
H1396 C1402 0.949 . S
C1397 H1392 0.950 . S
C1397 C1399 1.327 . S
C1397 C1403 1.429 . S
C1398 C1390 1.574 . S
C1398 H1393 0.949 . S
C1398 C1404 1.368 . S
C1399 C1383 1.349 . S
C1399 H1391 0.950 . S
C1399 C1397 1.327 . S
C1400 C1388 1.349 . S
C1400 H1394 0.950 . S
C1400 C1401 1.327 . S
C1401 H1395 0.950 . S
C1401 C1400 1.327 . S
C1401 C1405 1.429 . S
C1402 C1385 1.574 . S
C1402 H1396 0.949 . S
C1402 C1406 1.368 . S
C1403 C1384 1.429 . S
C1403 C1397 1.429 . S
C1403 C1404 1.523 . S
C1404 C1385 1.368 . S
C1404 C1398 1.368 . S
C1404 C1403 1.523 . S
C1405 C1389 1.429 . S
C1405 C1401 1.429 . S
C1405 C1406 1.523 . S
C1406 C1390 1.368 . S
C1406 C1402 1.368 . S
C1406 C1405 1.523 . S
H1407 C1382 0.950 . S
H1408 C1384 0.950 . S
H1409 C1385 0.949 . S
H1410 C1387 0.950 . S
H1411 C1389 0.950 . S
C1412 C1413 1.349 . S
C1412 C1414 1.327 . S
C1412 H1437 0.950 . S
C1413 C1412 1.349 . S
C1413 C1429 1.349 . S
C1414 C1412 1.327 . S
C1414 C1433 1.429 . S
C1414 H1438 0.950 . S
C1415 C1432 1.574 1_455 S
C1415 C1434 1.368 . S
C1415 H1439 0.949 . S
H1416 C1420 0.949 . S
C1417 C1418 1.349 . S
C1417 C1419 1.327 . S
C1417 H1440 0.950 . S
C1418 C1417 1.349 . S
C1418 C1430 1.349 . S
C1419 C1417 1.327 . S
C1419 C1435 1.429 . S
C1419 H1441 0.950 . S
C1420 H1416 0.949 . S
C1420 C1428 1.574 1_655 S
C1420 C1436 1.368 . S
H1421 C1429 0.950 . S
H1422 C1427 0.950 . S
H1423 C1428 0.949 . S
H1424 C1430 0.950 . S
H1425 C1431 0.950 . S
H1426 C1432 0.949 . S
C1427 H1422 0.950 . S
C1427 C1429 1.327 . S
C1427 C1433 1.429 . S
C1428 C1420 1.574 1_455 S
C1428 H1423 0.949 . S
C1428 C1434 1.368 . S
C1429 C1413 1.349 . S
C1429 H1421 0.950 . S
C1429 C1427 1.327 . S
C1430 C1418 1.349 . S
C1430 H1424 0.950 . S
C1430 C1431 1.327 . S
C1431 H1425 0.950 . S
C1431 C1430 1.327 . S
C1431 C1435 1.429 . S
C1432 C1415 1.574 1_655 S
C1432 H1426 0.949 . S
C1432 C1436 1.368 . S
C1433 C1414 1.429 . S
C1433 C1427 1.429 . S
C1433 C1434 1.523 . S
C1434 C1415 1.368 . S
C1434 C1428 1.368 . S
C1434 C1433 1.523 . S
C1435 C1419 1.429 . S
C1435 C1431 1.429 . S
C1435 C1436 1.523 . S
C1436 C1420 1.368 . S
C1436 C1432 1.368 . S
C1436 C1435 1.523 . S
H1437 C1412 0.950 . S
H1438 C1414 0.950 . S
H1439 C1415 0.949 . S
H1440 C1417 0.950 . S
H1441 C1419 0.950 . S
C1442 C1443 1.349 . S
C1442 C1444 1.327 . S
C1442 H1467 0.950 . S
C1443 C1442 1.349 . S
C1443 C1459 1.349 . S
C1444 C1442 1.327 . S
C1444 C1463 1.429 . S
C1444 H1468 0.950 . S
C1445 C1462 1.574 . S
C1445 C1464 1.368 . S
C1445 H1469 0.949 . S
H1446 C1450 0.949 . S
C1447 C1448 1.349 . S
C1447 C1449 1.327 . S
C1447 H1470 0.950 . S
C1448 C1447 1.349 . S
C1448 C1460 1.349 . S
C1449 C1447 1.327 . S
C1449 C1465 1.429 . S
C1449 H1471 0.950 . S
C1450 H1446 0.949 . S
C1450 C1458 1.574 . S
C1450 C1466 1.368 . S
H1451 C1459 0.950 . S
H1452 C1457 0.950 . S
H1453 C1458 0.949 . S
H1454 C1460 0.950 . S
H1455 C1461 0.950 . S
H1456 C1462 0.949 . S
C1457 H1452 0.950 . S
C1457 C1459 1.327 . S
C1457 C1463 1.429 . S
C1458 C1450 1.574 . S
C1458 H1453 0.949 . S
C1458 C1464 1.368 1_655 S
C1459 C1443 1.349 . S
C1459 H1451 0.950 . S
C1459 C1457 1.327 . S
C1460 C1448 1.349 . S
C1460 H1454 0.950 . S
C1460 C1461 1.327 . S
C1461 H1455 0.950 . S
C1461 C1460 1.327 . S
C1461 C1465 1.429 . S
C1462 C1445 1.574 . S
C1462 H1456 0.949 . S
C1462 C1466 1.368 1_455 S
C1463 C1444 1.429 . S
C1463 C1457 1.429 . S
C1463 C1464 1.523 . S
C1464 C1445 1.368 . S
C1464 C1458 1.368 1_455 S
C1464 C1463 1.523 . S
C1465 C1449 1.429 . S
C1465 C1461 1.429 . S
C1465 C1466 1.523 . S
C1466 C1450 1.368 . S
C1466 C1462 1.368 1_655 S
C1466 C1465 1.523 . S
H1467 C1442 0.950 . S
H1468 C1444 0.950 . S
H1469 C1445 0.949 . S
H1470 C1447 0.950 . S
H1471 C1449 0.950 . S
C1472 C1473 1.349 . S
C1472 C1474 1.327 . S
C1472 H1497 0.950 . S
C1473 C1472 1.349 . S
C1473 C1489 1.349 . S
C1474 C1472 1.327 . S
C1474 C1493 1.429 . S
C1474 H1498 0.950 . S
C1475 C1492 1.574 . S
C1475 C1494 1.368 . S
C1475 H1499 0.949 . S
H1476 C1480 0.949 . S
C1477 C1478 1.349 . S
C1477 C1479 1.327 . S
C1477 H1500 0.950 . S
C1478 C1477 1.349 . S
C1478 C1490 1.349 . S
C1479 C1477 1.327 . S
C1479 C1495 1.429 . S
C1479 H1501 0.950 . S
C1480 H1476 0.949 . S
C1480 C1488 1.574 . S
C1480 C1496 1.368 . S
H1481 C1489 0.950 . S
H1482 C1487 0.950 . S
H1483 C1488 0.949 . S
H1484 C1490 0.950 . S
H1485 C1491 0.950 . S
H1486 C1492 0.949 . S
C1487 H1482 0.950 . S
C1487 C1489 1.327 . S
C1487 C1493 1.429 . S
C1488 C1480 1.574 . S
C1488 H1483 0.949 . S
C1488 C1494 1.368 . S
C1489 C1473 1.349 . S
C1489 H1481 0.950 . S
C1489 C1487 1.327 . S
C1490 C1478 1.349 . S
C1490 H1484 0.950 . S
C1490 C1491 1.327 . S
C1491 H1485 0.950 . S
C1491 C1490 1.327 . S
C1491 C1495 1.429 . S
C1492 C1475 1.574 . S
C1492 H1486 0.949 . S
C1492 C1496 1.368 . S
C1493 C1474 1.429 . S
C1493 C1487 1.429 . S
C1493 C1494 1.523 . S
C1494 C1475 1.368 . S
C1494 C1488 1.368 . S
C1494 C1493 1.523 . S
C1495 C1479 1.429 . S
C1495 C1491 1.429 . S
C1495 C1496 1.523 . S
C1496 C1480 1.368 . S
C1496 C1492 1.368 . S
C1496 C1495 1.523 . S
H1497 C1472 0.950 . S
H1498 C1474 0.950 . S
H1499 C1475 0.949 . S
H1500 C1477 0.950 . S
H1501 C1479 0.950 . S
C1502 C1503 1.349 . S
C1502 C1504 1.327 . S
C1502 H1527 0.950 . S
C1503 C1502 1.349 . S
C1503 C1519 1.349 . S
C1504 C1502 1.327 . S
C1504 C1523 1.429 . S
C1504 H1528 0.950 . S
C1505 C1522 1.574 . S
C1505 C1524 1.368 . S
C1505 H1529 0.949 . S
H1506 C1510 0.949 . S
C1507 C1508 1.349 . S
C1507 C1509 1.327 . S
C1507 H1530 0.950 . S
C1508 C1507 1.349 . S
C1508 C1520 1.349 . S
C1509 C1507 1.327 . S
C1509 C1525 1.429 . S
C1509 H1531 0.950 . S
C1510 H1506 0.949 . S
C1510 C1518 1.574 . S
C1510 C1526 1.368 . S
H1511 C1519 0.950 . S
H1512 C1517 0.950 . S
H1513 C1518 0.949 . S
H1514 C1520 0.950 . S
H1515 C1521 0.950 . S
H1516 C1522 0.949 . S
C1517 H1512 0.950 . S
C1517 C1519 1.327 . S
C1517 C1523 1.429 . S
C1518 C1510 1.574 . S
C1518 H1513 0.949 . S
C1518 C1524 1.368 . S
C1519 C1503 1.349 . S
C1519 H1511 0.950 . S
C1519 C1517 1.327 . S
C1520 C1508 1.349 . S
C1520 H1514 0.950 . S
C1520 C1521 1.327 . S
C1521 H1515 0.950 . S
C1521 C1520 1.327 . S
C1521 C1525 1.429 . S
C1522 C1505 1.574 . S
C1522 H1516 0.949 . S
C1522 C1526 1.368 . S
C1523 C1504 1.429 . S
C1523 C1517 1.429 . S
C1523 C1524 1.523 . S
C1524 C1505 1.368 . S
C1524 C1518 1.368 . S
C1524 C1523 1.523 . S
C1525 C1509 1.429 . S
C1525 C1521 1.429 . S
C1525 C1526 1.523 . S
C1526 C1510 1.368 . S
C1526 C1522 1.368 . S
C1526 C1525 1.523 . S
H1527 C1502 0.950 . S
H1528 C1504 0.950 . S
H1529 C1505 0.949 . S
H1530 C1507 0.950 . S
H1531 C1509 0.950 . S
C1532 C1533 1.349 . S
C1532 C1534 1.327 . S
C1532 H1557 0.950 . S
C1533 C1532 1.349 . S
C1533 C1549 1.349 . S
C1534 C1532 1.327 . S
C1534 C1553 1.429 . S
C1534 H1558 0.950 . S
C1535 C1552 1.574 . S
C1535 C1554 1.368 . S
C1535 H1559 0.949 . S
H1536 C1540 0.949 . S
C1537 C1538 1.349 . S
C1537 C1539 1.327 . S
C1537 H1560 0.950 . S
C1538 C1537 1.349 . S
C1538 C1550 1.349 . S
C1539 C1537 1.327 . S
C1539 C1555 1.429 . S
C1539 H1561 0.950 . S
C1540 H1536 0.949 . S
C1540 C1548 1.574 . S
C1540 C1556 1.368 . S
H1541 C1549 0.950 . S
H1542 C1547 0.950 . S
H1543 C1548 0.949 . S
H1544 C1550 0.950 . S
H1545 C1551 0.950 . S
H1546 C1552 0.949 . S
C1547 H1542 0.950 . S
C1547 C1549 1.327 . S
C1547 C1553 1.429 . S
C1548 C1540 1.574 . S
C1548 H1543 0.949 . S
C1548 C1554 1.368 . S
C1549 C1533 1.349 . S
C1549 H1541 0.950 . S
C1549 C1547 1.327 . S
C1550 C1538 1.349 . S
C1550 H1544 0.950 . S
C1550 C1551 1.327 . S
C1551 H1545 0.950 . S
C1551 C1550 1.327 . S
C1551 C1555 1.429 . S
C1552 C1535 1.574 . S
C1552 H1546 0.949 . S
C1552 C1556 1.368 . S
C1553 C1534 1.429 . S
C1553 C1547 1.429 . S
C1553 C1554 1.523 . S
C1554 C1535 1.368 . S
C1554 C1548 1.368 . S
C1554 C1553 1.523 . S
C1555 C1539 1.429 . S
C1555 C1551 1.429 . S
C1555 C1556 1.523 . S
C1556 C1540 1.368 . S
C1556 C1552 1.368 . S
C1556 C1555 1.523 . S
H1557 C1532 0.950 . S
H1558 C1534 0.950 . S
H1559 C1535 0.949 . S
H1560 C1537 0.950 . S
H1561 C1539 0.950 . S
C1562 C1563 1.349 . S
C1562 C1564 1.327 . S
C1562 H1587 0.950 . S
C1563 C1562 1.349 . S
C1563 C1579 1.349 . S
C1564 C1562 1.327 . S
C1564 C1583 1.429 1_655 S
C1564 H1588 0.950 . S
C1565 C1582 1.574 . S
C1565 C1584 1.368 . S
C1565 H1589 0.949 . S
H1566 C1570 0.949 . S
C1567 C1568 1.349 . S
C1567 C1569 1.327 . S
C1567 H1590 0.950 . S
C1568 C1567 1.349 . S
C1568 C1580 1.349 . S
C1569 C1567 1.327 . S
C1569 C1585 1.429 . S
C1569 H1591 0.950 . S
C1570 H1566 0.949 . S
C1570 C1578 1.574 . S
C1570 C1586 1.368 . S
H1571 C1579 0.950 . S
H1572 C1577 0.950 . S
H1573 C1578 0.949 . S
H1574 C1580 0.950 . S
H1575 C1581 0.950 . S
H1576 C1582 0.949 . S
C1577 H1572 0.950 . S
C1577 C1579 1.327 1_455 S
C1577 C1583 1.429 . S
C1578 C1570 1.574 . S
C1578 H1573 0.949 . S
C1578 C1584 1.368 . S
C1579 C1563 1.349 . S
C1579 H1571 0.950 . S
C1579 C1577 1.327 1_655 S
C1580 C1568 1.349 . S
C1580 H1574 0.950 . S
C1580 C1581 1.327 . S
C1581 H1575 0.950 . S
C1581 C1580 1.327 . S
C1581 C1585 1.429 . S
C1582 C1565 1.574 . S
C1582 H1576 0.949 . S
C1582 C1586 1.368 . S
C1583 C1564 1.429 1_455 S
C1583 C1577 1.429 . S
C1583 C1584 1.523 . S
C1584 C1565 1.368 . S
C1584 C1578 1.368 . S
C1584 C1583 1.523 . S
C1585 C1569 1.429 . S
C1585 C1581 1.429 . S
C1585 C1586 1.523 . S
C1586 C1570 1.368 . S
C1586 C1582 1.368 . S
C1586 C1585 1.523 . S
H1587 C1562 0.950 . S
H1588 C1564 0.950 . S
H1589 C1565 0.949 . S
H1590 C1567 0.950 . S
H1591 C1569 0.950 . S
C1592 C1593 1.349 . S
C1592 C1594 1.327 . S
C1592 H1617 0.950 . S
C1593 C1592 1.349 . S
C1593 C1609 1.349 . S
C1594 C1592 1.327 . S
C1594 C1613 1.429 . S
C1594 H1618 0.950 . S
C1595 C1612 1.574 . S
C1595 C1614 1.368 . S
C1595 H1619 0.949 . S
H1596 C1600 0.949 . S
C1597 C1598 1.349 . S
C1597 C1599 1.327 . S
C1597 H1620 0.950 . S
C1598 C1597 1.349 . S
C1598 C1610 1.349 . S
C1599 C1597 1.327 . S
C1599 C1615 1.429 . S
C1599 H1621 0.950 . S
C1600 H1596 0.949 . S
C1600 C1608 1.574 . S
C1600 C1616 1.368 . S
H1601 C1609 0.950 . S
H1602 C1607 0.950 . S
H1603 C1608 0.949 . S
H1604 C1610 0.950 . S
H1605 C1611 0.950 . S
H1606 C1612 0.949 . S
C1607 H1602 0.950 . S
C1607 C1609 1.327 . S
C1607 C1613 1.429 . S
C1608 C1600 1.574 . S
C1608 H1603 0.949 . S
C1608 C1614 1.368 . S
C1609 C1593 1.349 . S
C1609 H1601 0.950 . S
C1609 C1607 1.327 . S
C1610 C1598 1.349 . S
C1610 H1604 0.950 . S
C1610 C1611 1.327 . S
C1611 H1605 0.950 . S
C1611 C1610 1.327 . S
C1611 C1615 1.429 . S
C1612 C1595 1.574 . S
C1612 H1606 0.949 . S
C1612 C1616 1.368 . S
C1613 C1594 1.429 . S
C1613 C1607 1.429 . S
C1613 C1614 1.523 . S
C1614 C1595 1.368 . S
C1614 C1608 1.368 . S
C1614 C1613 1.523 . S
C1615 C1599 1.429 . S
C1615 C1611 1.429 . S
C1615 C1616 1.523 . S
C1616 C1600 1.368 . S
C1616 C1612 1.368 . S
C1616 C1615 1.523 . S
H1617 C1592 0.950 . S
H1618 C1594 0.950 . S
H1619 C1595 0.949 . S
H1620 C1597 0.950 . S
H1621 C1599 0.950 . S
C1622 C1623 1.349 . S
C1622 C1624 1.327 . S
C1622 H1647 0.950 . S
C1623 C1622 1.349 . S
C1623 C1639 1.349 . S
C1624 C1622 1.327 . S
C1624 C1643 1.429 . S
C1624 H1648 0.950 . S
C1625 C1642 1.574 . S
C1625 C1644 1.368 . S
C1625 H1649 0.949 . S
H1626 C1630 0.949 . S
C1627 C1628 1.349 . S
C1627 C1629 1.327 . S
C1627 H1650 0.950 . S
C1628 C1627 1.349 . S
C1628 C1640 1.349 . S
C1629 C1627 1.327 . S
C1629 C1645 1.429 . S
C1629 H1651 0.950 . S
C1630 H1626 0.949 . S
C1630 C1638 1.574 . S
C1630 C1646 1.368 . S
H1631 C1639 0.950 . S
H1632 C1637 0.950 . S
H1633 C1638 0.949 . S
H1634 C1640 0.950 . S
H1635 C1641 0.950 . S
H1636 C1642 0.949 . S
C1637 H1632 0.950 . S
C1637 C1639 1.327 . S
C1637 C1643 1.429 . S
C1638 C1630 1.574 . S
C1638 H1633 0.949 . S
C1638 C1644 1.368 . S
C1639 C1623 1.349 . S
C1639 H1631 0.950 . S
C1639 C1637 1.327 . S
C1640 C1628 1.349 . S
C1640 H1634 0.950 . S
C1640 C1641 1.327 . S
C1641 H1635 0.950 . S
C1641 C1640 1.327 . S
C1641 C1645 1.429 . S
C1642 C1625 1.574 . S
C1642 H1636 0.949 . S
C1642 C1646 1.368 . S
C1643 C1624 1.429 . S
C1643 C1637 1.429 . S
C1643 C1644 1.523 . S
C1644 C1625 1.368 . S
C1644 C1638 1.368 . S
C1644 C1643 1.523 . S
C1645 C1629 1.429 . S
C1645 C1641 1.429 . S
C1645 C1646 1.523 . S
C1646 C1630 1.368 . S
C1646 C1642 1.368 . S
C1646 C1645 1.523 . S
H1647 C1622 0.950 . S
H1648 C1624 0.950 . S
H1649 C1625 0.949 . S
H1650 C1627 0.950 . S
H1651 C1629 0.950 . S
C1652 C1653 1.349 . S
C1652 C1654 1.327 . S
C1652 H1677 0.950 . S
C1653 C1652 1.349 . S
C1653 C1669 1.349 . S
C1654 C1652 1.327 . S
C1654 C1673 1.429 . S
C1654 H1678 0.950 . S
C1655 C1672 1.574 . S
C1655 C1674 1.368 . S
C1655 H1679 0.949 . S
H1656 C1660 0.949 . S
C1657 C1658 1.349 . S
C1657 C1659 1.327 . S
C1657 H1680 0.950 . S
C1658 C1657 1.349 . S
C1658 C1670 1.349 . S
C1659 C1657 1.327 . S
C1659 C1675 1.429 . S
C1659 H1681 0.950 . S
C1660 H1656 0.949 . S
C1660 C1668 1.574 . S
C1660 C1676 1.368 . S
H1661 C1669 0.950 . S
H1662 C1667 0.950 . S
H1663 C1668 0.949 . S
H1664 C1670 0.950 . S
H1665 C1671 0.950 . S
H1666 C1672 0.949 . S
C1667 H1662 0.950 . S
C1667 C1669 1.327 . S
C1667 C1673 1.429 . S
C1668 C1660 1.574 . S
C1668 H1663 0.949 . S
C1668 C1674 1.368 . S
C1669 C1653 1.349 . S
C1669 H1661 0.950 . S
C1669 C1667 1.327 . S
C1670 C1658 1.349 . S
C1670 H1664 0.950 . S
C1670 C1671 1.327 . S
C1671 H1665 0.950 . S
C1671 C1670 1.327 . S
C1671 C1675 1.429 . S
C1672 C1655 1.574 . S
C1672 H1666 0.949 . S
C1672 C1676 1.368 . S
C1673 C1654 1.429 . S
C1673 C1667 1.429 . S
C1673 C1674 1.523 . S
C1674 C1655 1.368 . S
C1674 C1668 1.368 . S
C1674 C1673 1.523 . S
C1675 C1659 1.429 . S
C1675 C1671 1.429 . S
C1675 C1676 1.523 . S
C1676 C1660 1.368 . S
C1676 C1672 1.368 . S
C1676 C1675 1.523 . S
H1677 C1652 0.950 . S
H1678 C1654 0.950 . S
H1679 C1655 0.949 . S
H1680 C1657 0.950 . S
H1681 C1659 0.950 . S
C1682 C1683 1.349 . S
C1682 C1684 1.327 . S
C1682 H1707 0.950 . S
C1683 C1682 1.349 . S
C1683 C1699 1.349 . S
C1684 C1682 1.327 . S
C1684 C1703 1.429 . S
C1684 H1708 0.950 . S
C1685 C1702 1.574 . S
C1685 C1704 1.368 . S
C1685 H1709 0.949 . S
H1686 C1690 0.949 . S
C1687 C1688 1.349 . S
C1687 C1689 1.327 1_455 S
C1687 H1710 0.950 . S
C1688 C1687 1.349 . S
C1688 C1700 1.349 . S
C1689 C1687 1.327 1_655 S
C1689 C1705 1.429 . S
C1689 H1711 0.950 . S
C1690 H1686 0.949 . S
C1690 C1698 1.574 . S
C1690 C1706 1.368 . S
H1691 C1699 0.950 . S
H1692 C1697 0.950 . S
H1693 C1698 0.949 . S
H1694 C1700 0.950 . S
H1695 C1701 0.950 . S
H1696 C1702 0.949 . S
C1697 H1692 0.950 . S
C1697 C1699 1.327 . S
C1697 C1703 1.429 . S
C1698 C1690 1.574 . S
C1698 H1693 0.949 . S
C1698 C1704 1.368 . S
C1699 C1683 1.349 . S
C1699 H1691 0.950 . S
C1699 C1697 1.327 . S
C1700 C1688 1.349 . S
C1700 H1694 0.950 . S
C1700 C1701 1.327 . S
C1701 H1695 0.950 . S
C1701 C1700 1.327 . S
C1701 C1705 1.429 1_455 S
C1702 C1685 1.574 . S
C1702 H1696 0.949 . S
C1702 C1706 1.368 . S
C1703 C1684 1.429 . S
C1703 C1697 1.429 . S
C1703 C1704 1.523 . S
C1704 C1685 1.368 . S
C1704 C1698 1.368 . S
C1704 C1703 1.523 . S
C1705 C1689 1.429 . S
C1705 C1701 1.429 1_655 S
C1705 C1706 1.523 . S
C1706 C1690 1.368 . S
C1706 C1702 1.368 . S
C1706 C1705 1.523 . S
H1707 C1682 0.950 . S
H1708 C1684 0.950 . S
H1709 C1685 0.949 . S
H1710 C1687 0.950 . S
H1711 C1689 0.950 . S
C1712 C1713 1.349 . S
C1712 C1714 1.327 . S
C1712 H1737 0.950 . S
C1713 C1712 1.349 . S
C1713 C1729 1.349 . S
C1714 C1712 1.327 . S
C1714 C1733 1.429 . S
C1714 H1738 0.950 . S
C1715 C1732 1.574 . S
C1715 C1734 1.368 . S
C1715 H1739 0.949 . S
H1716 C1720 0.949 . S
C1717 C1718 1.349 . S
C1717 C1719 1.327 . S
C1717 H1740 0.950 . S
C1718 C1717 1.349 . S
C1718 C1730 1.349 . S
C1719 C1717 1.327 . S
C1719 C1735 1.429 . S
C1719 H1741 0.950 . S
C1720 H1716 0.949 . S
C1720 C1728 1.574 . S
C1720 C1736 1.368 . S
H1721 C1729 0.950 . S
H1722 C1727 0.950 . S
H1723 C1728 0.949 . S
H1724 C1730 0.950 . S
H1725 C1731 0.950 . S
H1726 C1732 0.949 . S
C1727 H1722 0.950 . S
C1727 C1729 1.327 . S
C1727 C1733 1.429 . S
C1728 C1720 1.574 . S
C1728 H1723 0.949 . S
C1728 C1734 1.368 . S
C1729 C1713 1.349 . S
C1729 H1721 0.950 . S
C1729 C1727 1.327 . S
C1730 C1718 1.349 . S
C1730 H1724 0.950 . S
C1730 C1731 1.327 . S
C1731 H1725 0.950 . S
C1731 C1730 1.327 . S
C1731 C1735 1.429 . S
C1732 C1715 1.574 . S
C1732 H1726 0.949 . S
C1732 C1736 1.368 . S
C1733 C1714 1.429 . S
C1733 C1727 1.429 . S
C1733 C1734 1.523 . S
C1734 C1715 1.368 . S
C1734 C1728 1.368 . S
C1734 C1733 1.523 . S
C1735 C1719 1.429 . S
C1735 C1731 1.429 . S
C1735 C1736 1.523 . S
C1736 C1720 1.368 . S
C1736 C1732 1.368 . S
C1736 C1735 1.523 . S
H1737 C1712 0.950 . S
H1738 C1714 0.950 . S
H1739 C1715 0.949 . S
H1740 C1717 0.950 . S
H1741 C1719 0.950 . S
C1742 C1743 1.349 . S
C1742 C1744 1.327 . S
C1742 H1767 0.950 . S
C1743 C1742 1.349 . S
C1743 C1759 1.349 . S
C1744 C1742 1.327 . S
C1744 C1763 1.429 . S
C1744 H1768 0.950 . S
C1745 C1762 1.574 . S
C1745 C1764 1.368 . S
C1745 H1769 0.949 . S
H1746 C1750 0.949 . S
C1747 C1748 1.349 1_545 S
C1747 C1749 1.327 1_445 S
C1747 H1770 0.950 . S
C1748 C1747 1.349 1_565 S
C1748 C1760 1.349 . S
C1749 C1747 1.327 1_665 S
C1749 C1765 1.429 . S
C1749 H1771 0.950 . S
C1750 H1746 0.949 . S
C1750 C1758 1.574 . S
C1750 C1766 1.368 . S
H1751 C1759 0.950 . S
H1752 C1757 0.950 . S
H1753 C1758 0.949 . S
H1754 C1760 0.950 . S
H1755 C1761 0.950 . S
H1756 C1762 0.949 . S
C1757 H1752 0.950 . S
C1757 C1759 1.327 . S
C1757 C1763 1.429 . S
C1758 C1750 1.574 . S
C1758 H1753 0.949 . S
C1758 C1764 1.368 . S
C1759 C1743 1.349 . S
C1759 H1751 0.950 . S
C1759 C1757 1.327 . S
C1760 C1748 1.349 . S
C1760 H1754 0.950 . S
C1760 C1761 1.327 . S
C1761 H1755 0.950 . S
C1761 C1760 1.327 . S
C1761 C1765 1.429 1_455 S
C1762 C1745 1.574 . S
C1762 H1756 0.949 . S
C1762 C1766 1.368 . S
C1763 C1744 1.429 . S
C1763 C1757 1.429 . S
C1763 C1764 1.523 . S
C1764 C1745 1.368 . S
C1764 C1758 1.368 . S
C1764 C1763 1.523 . S
C1765 C1749 1.429 . S
C1765 C1761 1.429 1_655 S
C1765 C1766 1.523 . S
C1766 C1750 1.368 . S
C1766 C1762 1.368 . S
C1766 C1765 1.523 . S
H1767 C1742 0.950 . S
H1768 C1744 0.950 . S
H1769 C1745 0.949 . S
H1770 C1747 0.950 . S
H1771 C1749 0.950 . S
C1772 C1773 1.349 . S
C1772 C1774 1.327 . S
C1772 H1797 0.950 . S
C1773 C1772 1.349 . S
C1773 C1789 1.349 . S
C1774 C1772 1.327 . S
C1774 C1793 1.429 . S
C1774 H1798 0.950 . S
C1775 C1792 1.574 . S
C1775 C1794 1.368 . S
C1775 H1799 0.949 . S
H1776 C1780 0.949 . S
C1777 C1778 1.349 . S
C1777 C1779 1.327 . S
C1777 H1800 0.950 . S
C1778 C1777 1.349 . S
C1778 C1790 1.349 . S
C1779 C1777 1.327 . S
C1779 C1795 1.429 . S
C1779 H1801 0.950 . S
C1780 H1776 0.949 . S
C1780 C1788 1.574 . S
C1780 C1796 1.368 . S
H1781 C1789 0.950 . S
H1782 C1787 0.950 . S
H1783 C1788 0.949 . S
H1784 C1790 0.950 . S
H1785 C1791 0.950 . S
H1786 C1792 0.949 . S
C1787 H1782 0.950 . S
C1787 C1789 1.327 . S
C1787 C1793 1.429 . S
C1788 C1780 1.574 . S
C1788 H1783 0.949 . S
C1788 C1794 1.368 . S
C1789 C1773 1.349 . S
C1789 H1781 0.950 . S
C1789 C1787 1.327 . S
C1790 C1778 1.349 . S
C1790 H1784 0.950 . S
C1790 C1791 1.327 . S
C1791 H1785 0.950 . S
C1791 C1790 1.327 . S
C1791 C1795 1.429 . S
C1792 C1775 1.574 . S
C1792 H1786 0.949 . S
C1792 C1796 1.368 . S
C1793 C1774 1.429 . S
C1793 C1787 1.429 . S
C1793 C1794 1.523 . S
C1794 C1775 1.368 . S
C1794 C1788 1.368 . S
C1794 C1793 1.523 . S
C1795 C1779 1.429 . S
C1795 C1791 1.429 . S
C1795 C1796 1.523 . S
C1796 C1780 1.368 . S
C1796 C1792 1.368 . S
C1796 C1795 1.523 . S
H1797 C1772 0.950 . S
H1798 C1774 0.950 . S
H1799 C1775 0.949 . S
H1800 C1777 0.950 . S
H1801 C1779 0.950 . S
C1802 C1803 1.349 . S
C1802 C1804 1.327 . S
C1802 H1827 0.950 . S
C1803 C1802 1.349 . S
C1803 C1819 1.349 . S
C1804 C1802 1.327 . S
C1804 C1823 1.429 . S
C1804 H1828 0.950 . S
C1805 C1822 1.574 . S
C1805 C1824 1.368 . S
C1805 H1829 0.949 . S
H1806 C1810 0.949 . S
C1807 C1808 1.349 . S
C1807 C1809 1.327 . S
C1807 H1830 0.950 . S
C1808 C1807 1.349 . S
C1808 C1820 1.349 . S
C1809 C1807 1.327 . S
C1809 C1825 1.429 . S
C1809 H1831 0.950 . S
C1810 H1806 0.949 . S
C1810 C1818 1.574 . S
C1810 C1826 1.368 . S
H1811 C1819 0.950 1_565 S
H1812 C1817 0.950 . S
H1813 C1818 0.949 . S
H1814 C1820 0.950 . S
H1815 C1821 0.950 . S
H1816 C1822 0.949 . S
C1817 H1812 0.950 . S
C1817 C1819 1.327 . S
C1817 C1823 1.429 . S
C1818 C1810 1.574 . S
C1818 H1813 0.949 . S
C1818 C1824 1.368 . S
C1819 C1803 1.349 . S
C1819 H1811 0.950 1_545 S
C1819 C1817 1.327 . S
C1820 C1808 1.349 . S
C1820 H1814 0.950 . S
C1820 C1821 1.327 . S
C1821 H1815 0.950 . S
C1821 C1820 1.327 . S
C1821 C1825 1.429 . S
C1822 C1805 1.574 . S
C1822 H1816 0.949 . S
C1822 C1826 1.368 . S
C1823 C1804 1.429 . S
C1823 C1817 1.429 . S
C1823 C1824 1.523 . S
C1824 C1805 1.368 . S
C1824 C1818 1.368 . S
C1824 C1823 1.523 . S
C1825 C1809 1.429 . S
C1825 C1821 1.429 . S
C1825 C1826 1.523 . S
C1826 C1810 1.368 . S
C1826 C1822 1.368 . S
C1826 C1825 1.523 . S
H1827 C1802 0.950 . S
H1828 C1804 0.950 . S
H1829 C1805 0.949 . S
H1830 C1807 0.950 . S
H1831 C1809 0.950 . S
C1832 C1833 1.349 . S
C1832 C1834 1.327 . S
C1832 H1857 0.950 . S
C1833 C1832 1.349 . S
C1833 C1849 1.349 . S
C1834 C1832 1.327 . S
C1834 C1853 1.429 . S
C1834 H1858 0.950 . S
C1835 C1852 1.574 . S
C1835 C1854 1.368 . S
C1835 H1859 0.949 . S
H1836 C1840 0.949 . S
C1837 C1838 1.349 . S
C1837 C1839 1.327 . S
C1837 H1860 0.950 . S
C1838 C1837 1.349 . S
C1838 C1850 1.349 . S
C1839 C1837 1.327 . S
C1839 C1855 1.429 . S
C1839 H1861 0.950 . S
C1840 H1836 0.949 . S
C1840 C1848 1.574 . S
C1840 C1856 1.368 . S
H1841 C1849 0.950 . S
H1842 C1847 0.950 . S
H1843 C1848 0.949 . S
H1844 C1850 0.950 . S
H1845 C1851 0.950 . S
H1846 C1852 0.949 . S
C1847 H1842 0.950 . S
C1847 C1849 1.327 . S
C1847 C1853 1.429 . S
C1848 C1840 1.574 . S
C1848 H1843 0.949 . S
C1848 C1854 1.368 . S
C1849 C1833 1.349 . S
C1849 H1841 0.950 . S
C1849 C1847 1.327 . S
C1850 C1838 1.349 . S
C1850 H1844 0.950 . S
C1850 C1851 1.327 . S
C1851 H1845 0.950 . S
C1851 C1850 1.327 . S
C1851 C1855 1.429 . S
C1852 C1835 1.574 . S
C1852 H1846 0.949 . S
C1852 C1856 1.368 . S
C1853 C1834 1.429 . S
C1853 C1847 1.429 . S
C1853 C1854 1.523 . S
C1854 C1835 1.368 . S
C1854 C1848 1.368 . S
C1854 C1853 1.523 . S
C1855 C1839 1.429 . S
C1855 C1851 1.429 . S
C1855 C1856 1.523 . S
C1856 C1840 1.368 . S
C1856 C1852 1.368 . S
C1856 C1855 1.523 . S
H1857 C1832 0.950 . S
H1858 C1834 0.950 . S
H1859 C1835 0.949 . S
H1860 C1837 0.950 . S
H1861 C1839 0.950 . S
C1862 C1863 1.339 1_565 S
C1862 C1864 1.312 1_665 S
C1862 H1887 0.975 . S
C1863 C1862 1.339 1_545 S
C1863 C1879 1.349 . S
C1864 C1862 1.312 1_445 S
C1864 C1883 1.429 . S
C1864 H1888 0.950 . S
C1865 C1882 1.574 . S
C1865 C1884 1.368 . S
C1865 H1889 0.949 . S
H1866 C1870 0.949 . S
C1867 C1868 1.349 . S
C1867 C1869 1.327 . S
C1867 H1890 0.950 . S
C1868 C1867 1.349 . S
C1868 C1880 1.349 . S
C1869 C1867 1.327 . S
C1869 C1885 1.429 . S
C1869 H1891 0.950 . S
C1870 H1866 0.949 . S
C1870 C1878 1.574 . S
C1870 C1886 1.368 . S
H1871 C1879 0.950 . S
H1872 C1877 0.950 . S
H1873 C1878 0.949 . S
H1874 C1880 0.950 . S
H1875 C1881 0.950 . S
H1876 C1882 0.949 . S
C1877 H1872 0.950 . S
C1877 C1879 1.327 . S
C1877 C1883 1.429 1_655 S
C1878 C1870 1.574 . S
C1878 H1873 0.949 . S
C1878 C1884 1.368 . S
C1879 C1863 1.349 . S
C1879 H1871 0.950 . S
C1879 C1877 1.327 . S
C1880 C1868 1.349 . S
C1880 H1874 0.950 . S
C1880 C1881 1.327 . S
C1881 H1875 0.950 . S
C1881 C1880 1.327 . S
C1881 C1885 1.429 . S
C1882 C1865 1.574 . S
C1882 H1876 0.949 . S
C1882 C1886 1.368 . S
C1883 C1864 1.429 . S
C1883 C1877 1.429 1_455 S
C1883 C1884 1.523 . S
C1884 C1865 1.368 . S
C1884 C1878 1.368 . S
C1884 C1883 1.523 . S
C1885 C1869 1.429 . S
C1885 C1881 1.429 . S
C1885 C1886 1.523 . S
C1886 C1870 1.368 . S
C1886 C1882 1.368 . S
C1886 C1885 1.523 . S
H1887 C1862 0.975 . S
H1888 C1864 0.950 . S
H1889 C1865 0.949 . S
H1890 C1867 0.950 . S
H1891 C1869 0.950 . S
C1892 C1893 1.349 . S
C1892 C1894 1.327 . S
C1892 H1917 0.950 . S
C1893 C1892 1.349 . S
C1893 C1909 1.349 . S
C1894 C1892 1.327 . S
C1894 C1913 1.429 . S
C1894 H1918 0.950 . S
C1895 C1912 1.574 . S
C1895 C1914 1.368 . S
C1895 H1919 0.949 . S
H1896 C1900 0.949 . S
C1897 C1898 1.349 . S
C1897 C1899 1.327 . S
C1897 H1920 0.950 . S
C1898 C1897 1.349 . S
C1898 C1910 1.349 . S
C1899 C1897 1.327 . S
C1899 C1915 1.429 . S
C1899 H1921 0.950 . S
C1900 H1896 0.949 . S
C1900 C1908 1.574 . S
C1900 C1916 1.368 . S
H1901 C1909 0.950 . S
H1902 C1907 0.950 . S
H1903 C1908 0.949 . S
H1904 C1910 0.950 . S
H1905 C1911 0.950 . S
H1906 C1912 0.949 . S
C1907 H1902 0.950 . S
C1907 C1909 1.327 . S
C1907 C1913 1.429 . S
C1908 C1900 1.574 . S
C1908 H1903 0.949 . S
C1908 C1914 1.368 . S
C1909 C1893 1.349 . S
C1909 H1901 0.950 . S
C1909 C1907 1.327 . S
C1910 C1898 1.349 . S
C1910 H1904 0.950 . S
C1910 C1911 1.327 . S
C1911 H1905 0.950 . S
C1911 C1910 1.327 . S
C1911 C1915 1.429 . S
C1912 C1895 1.574 . S
C1912 H1906 0.949 . S
C1912 C1916 1.368 . S
C1913 C1894 1.429 . S
C1913 C1907 1.429 . S
C1913 C1914 1.523 . S
C1914 C1895 1.368 . S
C1914 C1908 1.368 . S
C1914 C1913 1.523 . S
C1915 C1899 1.429 . S
C1915 C1911 1.429 . S
C1915 C1916 1.523 . S
C1916 C1900 1.368 . S
C1916 C1912 1.368 . S
C1916 C1915 1.523 . S
H1917 C1892 0.950 . S
H1918 C1894 0.950 . S
H1919 C1895 0.949 . S
H1920 C1897 0.950 . S
H1921 C1899 0.950 . S
C1922 C1923 1.349 . S
C1922 C1924 1.327 . S
C1922 H1947 0.950 . S
C1923 C1922 1.349 . S
C1923 C1939 1.349 . S
C1924 C1922 1.327 . S
C1924 C1943 1.429 . S
C1924 H1948 0.950 . S
C1925 C1942 1.574 . S
C1925 C1944 1.368 . S
C1925 H1949 0.949 . S
H1926 C1930 0.949 . S
C1927 C1928 1.349 . S
C1927 C1929 1.327 . S
C1927 H1950 0.950 . S
C1928 C1927 1.349 . S
C1928 C1940 1.349 . S
C1929 C1927 1.327 . S
C1929 C1945 1.429 . S
C1929 H1951 0.950 . S
C1930 H1926 0.949 . S
C1930 C1938 1.574 . S
C1930 C1946 1.368 . S
H1931 C1939 0.950 . S
H1932 C1937 0.950 . S
H1933 C1938 0.949 . S
H1934 C1940 0.950 1_545 S
H1935 C1941 0.950 . S
H1936 C1942 0.949 . S
C1937 H1932 0.950 . S
C1937 C1939 1.327 . S
C1937 C1943 1.429 . S
C1938 C1930 1.574 . S
C1938 H1933 0.949 . S
C1938 C1944 1.368 . S
C1939 C1923 1.349 . S
C1939 H1931 0.950 . S
C1939 C1937 1.327 . S
C1940 C1928 1.349 . S
C1940 H1934 0.950 1_565 S
C1940 C1941 1.327 . S
C1941 H1935 0.950 . S
C1941 C1940 1.327 . S
C1941 C1945 1.429 . S
C1942 C1925 1.574 . S
C1942 H1936 0.949 . S
C1942 C1946 1.368 . S
C1943 C1924 1.429 . S
C1943 C1937 1.429 . S
C1943 C1944 1.523 . S
C1944 C1925 1.368 . S
C1944 C1938 1.368 . S
C1944 C1943 1.523 . S
C1945 C1929 1.429 . S
C1945 C1941 1.429 . S
C1945 C1946 1.523 . S
C1946 C1930 1.368 . S
C1946 C1942 1.368 . S
C1946 C1945 1.523 . S
H1947 C1922 0.950 . S
H1948 C1924 0.950 . S
H1949 C1925 0.949 . S
H1950 C1927 0.950 . S
H1951 C1929 0.950 . S
C513 C4 0.418 . S
C518 C413 0.418 . S
C543 C189 0.418 . S
C548 C36 0.418 . S
C573 C68 0.418 . S
C578 C452 0.418 . S
C603 C125 0.418 . S
C608 C253 0.418 . S
C633 C157 0.418 . S
C638 C260 0.418 . S
C663 C349 0.418 . S
C668 C196 0.418 . S
C693 C420 0.418 . S
C698 C292 0.418 . S
C723 C381 0.418 . S
C728 C509 0.418 . S
C753 C290 1.845 . S
C758 C6 1.823 . S
C783 C38 1.823 . S
C788 C326 1.845 . S
C813 C70 1.823 . S
C818 C358 1.845 . S
C843 C258 1.845 . S
C848 C98 1.823 . S
C873 C418 1.845 . S
C878 C130 1.823 . S
C903 C450 1.845 . S
C908 C162 1.823 . S
C933 C198 1.823 . S
C938 C486 1.845 . S
C963 C390 1.845 . S
C968 C226 1.823 . S
C993 C262 1.823 . S
C998 C34 1.845 . S
C1023 C294 1.823 . S
C1028 C66 1.845 . S
C1053 C322 1.823 . S
C1058 C102 1.845 . S
C1083 C2 1.845 . S
C1088 C354 1.823 . S
C1113 C166 1.845 . S
C1118 C386 1.823 . S
C1143 C422 1.823 . S
C1148 C194 1.845 . S
C1173 C230 1.845 . S
C1178 C454 1.823 . S
C1203 C482 1.823 . S
C1208 C134 1.845 . S
C1233 N18 1.341 . S
C1238 N333 1.341 . S
C1263 N50 1.341 . S
C1268 N365 1.341 . S
C1293 N274 1.341 . S
C1298 N82 1.341 . S
C1323 N109 1.341 . S
C1328 N306 1.341 . S
C1353 N141 1.341 . S
C1358 N466 1.341 . S
C1383 N173 1.341 . S
C1388 N493 1.341 . S
C1413 N397 1.341 . S
C1418 N210 1.341 . S
C1443 N237 1.341 . S
C1448 N434 1.341 . S
C1473 C29 0.892 . S
C1478 N242 0.910 . S
C1503 N402 0.910 . S
C1508 C61 0.892 . S
C1533 C93 0.892 . S
C1538 N178 0.910 . S
C1563 C100 0.892 . S
C1568 N461 0.910 . S
C1593 C132 0.892 . S
C1598 N114 0.910 . S
C1623 N269 0.910 . S
C1628 C164 0.892 . S
C1653 C221 0.892 . S
C1658 N45 0.910 . S
C1683 N338 0.910 . S
C1688 C228 0.892 . S
C1713 C285 0.892 . S
C1718 N498 0.910 . S
C1743 N146 0.910 . S
C1748 C317 0.892 1_565 S
C1773 N429 0.910 . S
C1778 C324 0.892 . S
C1803 C356 0.892 1_545 S
C1808 N205 0.910 . S
C1833 C388 0.892 . S
C1838 N370 0.910 . S
C1863 C445 0.892 1_545 S
C1868 N13 0.910 . S
C1893 N301 0.910 . S
C1898 C477 0.892 . S
C1923 N77 0.910 . S
C1928 C484 0.892 1_565 S
