# Generated by pormake.
# Topology uou, (4)-cn, num edge types: 1
# Building blocks:
#     Node 0, Type 0, BuildingBlock: QUQFOY_clean_sbu_3, # of connection points: 4
#     Node 1, Type 0, BuildingBlock: QUQFOY_clean_sbu_3, # of connection points: 4
#     Node 2, Type 0, BuildingBlock: QUQFOY_clean_sbu_3, # of connection points: 4
#     Node 3, Type 0, BuildingBlock: QUQFOY_clean_sbu_3, # of connection points: 4
#     Node 4, Type 0, BuildingBlock: QUQFOY_clean_sbu_3, # of connection points: 4
#     Node 5, Type 0, BuildingBlock: QUQFOY_clean_sbu_3, # of connection points: 4
#     Node 6, Type 0, BuildingBlock: QUQFOY_clean_sbu_3, # of connection points: 4
#     Node 7, Type 0, BuildingBlock: QUQFOY_clean_sbu_3, # of connection points: 4
#     Node 8, Type 0, BuildingBlock: QUQFOY_clean_sbu_3, # of connection points: 4
#     Node 9, Type 0, BuildingBlock: QUQFOY_clean_sbu_3, # of connection points: 4
#     Node 10, Type 0, BuildingBlock: QUQFOY_clean_sbu_3, # of connection points: 4
#     Node 11, Type 0, BuildingBlock: QUQFOY_clean_sbu_3, # of connection points: 4
#     Node 12, Type 0, BuildingBlock: QUQFOY_clean_sbu_3, # of connection points: 4
#     Node 13, Type 0, BuildingBlock: QUQFOY_clean_sbu_3, # of connection points: 4
#     Node 14, Type 0, BuildingBlock: QUQFOY_clean_sbu_3, # of connection points: 4
#     Node 15, Type 0, BuildingBlock: QUQFOY_clean_sbu_3, # of connection points: 4
#     Edge 16, Type (0, 0), BuildingBlock: KIFKEQ_clean_linker_1, # of connection points: 2
#     Edge 17, Type (0, 0), BuildingBlock: KIFKEQ_clean_linker_1, # of connection points: 2
#     Edge 18, Type (0, 0), BuildingBlock: KIFKEQ_clean_linker_1, # of connection points: 2
#     Edge 19, Type (0, 0), BuildingBlock: KIFKEQ_clean_linker_1, # of connection points: 2
#     Edge 20, Type (0, 0), BuildingBlock: KIFKEQ_clean_linker_1, # of connection points: 2
#     Edge 21, Type (0, 0), BuildingBlock: KIFKEQ_clean_linker_1, # of connection points: 2
#     Edge 22, Type (0, 0), BuildingBlock: KIFKEQ_clean_linker_1, # of connection points: 2
#     Edge 23, Type (0, 0), BuildingBlock: KIFKEQ_clean_linker_1, # of connection points: 2
#     Edge 24, Type (0, 0), BuildingBlock: KIFKEQ_clean_linker_1, # of connection points: 2
#     Edge 25, Type (0, 0), BuildingBlock: KIFKEQ_clean_linker_1, # of connection points: 2
#     Edge 26, Type (0, 0), BuildingBlock: KIFKEQ_clean_linker_1, # of connection points: 2
#     Edge 27, Type (0, 0), BuildingBlock: KIFKEQ_clean_linker_1, # of connection points: 2
#     Edge 28, Type (0, 0), BuildingBlock: KIFKEQ_clean_linker_1, # of connection points: 2
#     Edge 29, Type (0, 0), BuildingBlock: KIFKEQ_clean_linker_1, # of connection points: 2
#     Edge 30, Type (0, 0), BuildingBlock: KIFKEQ_clean_linker_1, # of connection points: 2
#     Edge 31, Type (0, 0), BuildingBlock: KIFKEQ_clean_linker_1, # of connection points: 2
#     Edge 32, Type (0, 0), BuildingBlock: KIFKEQ_clean_linker_1, # of connection points: 2
#     Edge 33, Type (0, 0), BuildingBlock: KIFKEQ_clean_linker_1, # of connection points: 2
#     Edge 34, Type (0, 0), BuildingBlock: KIFKEQ_clean_linker_1, # of connection points: 2
#     Edge 35, Type (0, 0), BuildingBlock: KIFKEQ_clean_linker_1, # of connection points: 2
#     Edge 36, Type (0, 0), BuildingBlock: KIFKEQ_clean_linker_1, # of connection points: 2
#     Edge 37, Type (0, 0), BuildingBlock: KIFKEQ_clean_linker_1, # of connection points: 2
#     Edge 38, Type (0, 0), BuildingBlock: KIFKEQ_clean_linker_1, # of connection points: 2
#     Edge 39, Type (0, 0), BuildingBlock: KIFKEQ_clean_linker_1, # of connection points: 2
#     Edge 40, Type (0, 0), BuildingBlock: KIFKEQ_clean_linker_1, # of connection points: 2
#     Edge 41, Type (0, 0), BuildingBlock: KIFKEQ_clean_linker_1, # of connection points: 2
#     Edge 42, Type (0, 0), BuildingBlock: KIFKEQ_clean_linker_1, # of connection points: 2
#     Edge 43, Type (0, 0), BuildingBlock: KIFKEQ_clean_linker_1, # of connection points: 2
#     Edge 44, Type (0, 0), BuildingBlock: KIFKEQ_clean_linker_1, # of connection points: 2
#     Edge 45, Type (0, 0), BuildingBlock: KIFKEQ_clean_linker_1, # of connection points: 2
#     Edge 46, Type (0, 0), BuildingBlock: KIFKEQ_clean_linker_1, # of connection points: 2
#     Edge 47, Type (0, 0), BuildingBlock: KIFKEQ_clean_linker_1, # of connection points: 2
# Relax obj value: 0.038
# Max RMSD: 0.067
# Mean RMSD: 0.066
data_MOF--net-uou--node1-QUQFOY_clean_sbu_3--edge1-KIFKEQ_clean_linker_1
_symmetry_space_group_name_H-M    P1
_symmetry_Int_Tables_number       1
_symmetry_cell_setting            triclinic
loop_
_symmetry_equiv_pos_as_xyz
'x, y, z'
_cell_length_a     40.854698
_cell_length_b     41.058451
_cell_length_c     57.631235
_cell_angle_alpha  90.121511
_cell_angle_beta   89.997206
_cell_angle_gamma 89.981281
loop_
_atom_site_label
_atom_site_type_symbol
_atom_site_fract_x
_atom_site_fract_y
_atom_site_fract_z
_atom_type_partial_charge
C0 C 0.00315 0.0231 0.14122 0.0
O1 O 0.97833 0.02096 0.12807 0.0
Cd2 Cd 0.97989 0.03893 0.0886 0.0
O3 O 0.03048 0.03305 0.13334 0.0
Cd4 Cd 0.05718 0.04966 0.09702 0.0
C5 C 0.00989 0.11716 0.09675 0.0
O6 O 0.02681 0.01411 0.07145 0.0
O7 O 0.0543 0.05247 0.05483 0.0
O8 O 0.09994 0.01187 0.10786 0.0
C9 C 0.03651 0.02732 0.05283 0.0
O10 O 0.98663 0.09811 0.09095 0.0
C11 C 0.12365 0.03125 0.10459 0.0
O12 O 0.0383 0.10599 0.10134 0.0
O13 O 0.11652 0.06001 0.09815 0.0
C14 C 0.47653 0.95819 0.13948 0.0
O15 O 0.50129 0.96032 0.12626 0.0
Cd16 Cd 0.4994 0.94206 0.08683 0.0
O17 O 0.44922 0.94804 0.13168 0.0
Cd18 Cd 0.42236 0.93095 0.09546 0.0
C19 C 0.47001 0.8637 0.09506 0.0
O20 O 0.45226 0.96685 0.07001 0.0
O21 O 0.42497 0.92845 0.05317 0.0
O22 O 0.37959 0.96842 0.10688 0.0
C23 C 0.4425 0.95379 0.05132 0.0
O24 O 0.49313 0.88283 0.08918 0.0
C25 C 0.3559 0.94904 0.10351 0.0
O26 O 0.44157 0.87475 0.09972 0.0
O27 O 0.36304 0.9204 0.09672 0.0
C28 C 0.50312 0.9605 0.31125 0.0
O29 O 0.47825 0.96255 0.32439 0.0
Cd30 Cd 0.47991 0.94483 0.3639 0.0
O31 O 0.53049 0.95075 0.31918 0.0
Cd32 Cd 0.55721 0.93446 0.35558 0.0
C33 C 0.5104 0.86672 0.35603 0.0
O34 O 0.52663 0.97019 0.38091 0.0
O35 O 0.55425 0.93214 0.3978 0.0
O36 O 0.59982 0.97228 0.34454 0.0
C37 C 0.5364 0.95728 0.39962 0.0
O38 O 0.48702 0.88567 0.36174 0.0
C39 C 0.6236 0.95303 0.34798 0.0
O40 O 0.53875 0.87801 0.35143 0.0
O41 O 0.61658 0.92433 0.3546 0.0
C42 C 0.97617 0.02671 0.31288 0.0
O43 O 0.00091 0.02478 0.32613 0.0
Cd44 Cd -0.00106 0.04346 0.36545 0.0
O45 O 0.94882 0.0369 0.32061 0.0
Cd46 Cd 0.92188 0.0543 0.35674 0.0
C47 C 0.9692 0.12168 0.35689 0.0
O48 O 0.95188 0.01876 0.3824 0.0
O49 O 0.92448 0.05727 0.39902 0.0
O50 O 0.87927 0.01658 0.34552 0.0
C51 C 0.94212 0.03201 0.40102 0.0
O52 O -0.00764 0.10264 0.36284 0.0
C53 C 0.85551 0.03593 0.34877 0.0
O54 O 0.94079 0.11054 0.35225 0.0
O55 O 0.86254 0.06467 0.35541 0.0
C56 C 0.97613 0.95399 0.81283 0.0
O57 O 0.00098 0.95555 0.82604 0.0
Cd58 Cd -0.00071 0.93974 0.86603 0.0
O59 O 0.94833 0.94544 0.82073 0.0
Cd60 Cd 0.92001 0.9307 0.85683 0.0
C61 C 0.96651 0.86219 0.85951 0.0
O62 O 0.95205 0.96601 0.88108 0.0
O63 O 0.91966 0.93351 0.89935 0.0
O64 O 0.87843 0.96842 0.84376 0.0
C65 C 0.94078 0.9561 0.90025 0.0
O66 O -0.00973 0.88093 0.86475 0.0
C67 C 0.85426 0.94969 0.84728 0.0
O68 O 0.93831 0.87375 0.85469 0.0
O69 O 0.86064 0.92127 0.85481 0.0
C70 C 0.5026 0.03194 0.81167 0.0
O71 O 0.47757 0.0301 0.82469 0.0
Cd72 Cd 0.4788 0.04548 0.86483 0.0
O73 O 0.53025 0.04046 0.81987 0.0
Cd74 Cd 0.55795 0.05472 0.85633 0.0
C75 C 0.51139 0.12316 0.85917 0.0
O76 O 0.52574 0.01895 0.8801 0.0
O77 O 0.55767 0.05155 0.89879 0.0
O78 O 0.59972 0.01721 0.84316 0.0
C79 C 0.53677 0.02875 0.8994 0.0
O80 O 0.48759 0.10433 0.86411 0.0
C81 C 0.62384 0.0359 0.84704 0.0
O82 O 0.53967 0.11167 0.85448 0.0
O83 O 0.61734 0.0642 0.85483 0.0
C84 C 0.47698 0.03399 0.63937 0.0
O85 O 0.50193 0.03223 0.62627 0.0
Cd86 Cd 0.50057 0.04802 0.58626 0.0
O87 O 0.44931 0.04273 0.63134 0.0
Cd88 Cd 0.42128 0.05759 0.59517 0.0
C89 C 0.46827 0.12581 0.59265 0.0
O90 O 0.45327 0.022 0.57108 0.0
O91 O 0.4211 0.05458 0.55266 0.0
O92 O 0.37964 0.02002 0.60831 0.0
C93 C 0.44211 0.03187 0.55186 0.0
O94 O 0.49196 0.1069 0.58751 0.0
C95 C 0.35547 0.03873 0.6047 0.0
O96 O 0.43996 0.11443 0.59734 0.0
O97 O 0.36186 0.06709 0.59707 0.0
C98 C 0.00355 0.95642 0.64063 0.0
O99 O 0.97863 0.95837 0.62753 0.0
Cd100 Cd 0.97991 0.9432 0.58736 0.0
O101 O 0.03125 0.94785 0.63253 0.0
Cd102 Cd 0.05918 0.93366 0.59612 0.0
C103 C 0.01232 0.86539 0.59298 0.0
O104 O 0.02709 0.96946 0.57233 0.0
O105 O 0.0591 0.93691 0.55365 0.0
O106 O 0.10095 0.97115 0.60931 0.0
C107 C 0.03815 0.95968 0.55303 0.0
O108 O 0.98861 0.88432 0.58801 0.0
C109 C 0.12507 0.95244 0.60547 0.0
O110 O 0.04062 0.87675 0.59779 0.0
O111 O 0.11858 0.92412 0.59773 0.0
C112 C 0.50414 0.52879 0.1418 0.0
O113 O 0.47923 0.52733 0.12864 0.0
Cd114 Cd 0.48056 0.54363 0.08875 0.0
O115 O 0.53187 0.53759 0.1339 0.0
Cd116 Cd 0.5601 0.55299 0.09787 0.0
C117 C 0.51316 0.62128 0.09563 0.0
O118 O 0.52798 0.51784 0.07367 0.0
O119 O 0.56032 0.55025 0.0553 0.0
O120 O 0.6018 0.51538 0.1109 0.0
C121 C 0.53908 0.52777 0.05446 0.0
O122 O 0.48945 0.60246 0.09039 0.0
C123 C 0.62593 0.53414 0.10732 0.0
O124 O 0.54146 0.60983 0.10029 0.0
O125 O 0.61948 0.56253 0.09976 0.0
C126 C 0.97828 0.45343 0.14103 0.0
O127 O 0.00312 0.4544 0.12778 0.0
Cd128 Cd 0.00127 0.43715 0.08807 0.0
O129 O 0.95046 0.44461 0.13329 0.0
Cd130 Cd 0.92199 0.42845 0.09748 0.0
C131 C 0.96847 0.35984 0.0957 0.0
O132 O 0.95398 0.46313 0.07293 0.0
O133 O 0.92148 0.4304 0.05488 0.0
O134 O 0.88045 0.46641 0.11043 0.0
C135 C 0.94264 0.45293 0.05383 0.0
O136 O -0.00775 0.37839 0.0902 0.0
C137 C 0.85626 0.44764 0.10703 0.0
O138 O 0.94028 0.37158 0.10034 0.0
O139 O 0.8626 0.41911 0.09961 0.0
C140 C 0.00554 0.45754 0.31279 0.0
O141 O 0.98064 0.45987 0.32586 0.0
Cd142 Cd 0.98211 0.44211 0.36536 0.0
O143 O 0.03282 0.44767 0.32082 0.0
Cd144 Cd 0.05943 0.43164 0.3573 0.0
C145 C 0.0126 0.36395 0.3574 0.0
O146 O 0.02874 0.46735 0.38255 0.0
O147 O 0.05618 0.42925 0.39952 0.0
O148 O 0.1017 0.46969 0.34616 0.0
C149 C 0.03833 0.45441 0.40129 0.0
O150 O 0.98922 0.38295 0.36305 0.0
C151 C 0.12567 0.45071 0.34971 0.0
O152 O 0.04103 0.37518 0.35297 0.0
O153 O 0.11892 0.422 0.35646 0.0
C154 C 0.47692 0.52964 0.31361 0.0
O155 O 0.50177 0.5278 0.32676 0.0
Cd156 Cd 0.49996 0.54634 0.36614 0.0
O157 O 0.44952 0.53947 0.32149 0.0
Cd158 Cd 0.42259 0.55615 0.35775 0.0
C159 C 0.469 0.62412 0.35758 0.0
O160 O 0.45335 0.52115 0.38334 0.0
O161 O 0.4255 0.55937 0.39996 0.0
O162 O 0.38053 0.51766 0.34681 0.0
C163 C 0.44351 0.53438 0.40195 0.0
O164 O 0.49248 0.60539 0.36343 0.0
C165 C 0.35648 0.53665 0.35008 0.0
O166 O 0.44068 0.61262 0.35313 0.0
O167 O 0.36308 0.56554 0.35659 0.0
C168 C 0.47515 0.45894 0.81407 0.0
O169 O 0.49993 0.46139 0.82724 0.0
Cd170 Cd 0.49838 0.44407 0.86686 0.0
O171 O 0.44783 0.44905 0.82201 0.0
Cd172 Cd 0.42113 0.43303 0.85847 0.0
C173 C 0.46857 0.36566 0.85932 0.0
O174 O 0.45139 0.46904 0.88378 0.0
O175 O 0.42395 0.43089 0.90068 0.0
O176 O 0.37841 0.47064 0.84729 0.0
C177 C 0.44171 0.45609 0.9025 0.0
O178 O 0.49178 0.38485 0.86499 0.0
C179 C 0.35469 0.45132 0.85066 0.0
O180 O 0.44014 0.37668 0.85461 0.0
O181 O 0.36178 0.42265 0.85732 0.0
C182 C 0.0026 0.52708 0.8127 0.0
O183 O 0.97761 0.52444 0.82565 0.0
Cd184 Cd 0.97869 0.54119 0.86547 0.0
O185 O 0.0298 0.53677 0.82097 0.0
Cd186 Cd 0.05599 0.55211 0.85776 0.0
C187 C 0.00873 0.61959 0.85882 0.0
O188 O 0.02533 0.51585 0.8826 0.0
O189 O 0.05263 0.55386 0.89991 0.0
O190 O 0.09879 0.51452 0.84657 0.0
C191 C 0.0349 0.52861 0.90145 0.0
O192 O 0.98539 0.60042 0.86417 0.0
C193 C 0.1225 0.53377 0.85026 0.0
O194 O 0.03719 0.60853 0.85424 0.0
O195 O 0.11536 0.56239 0.8571 0.0
C196 C 0.97776 0.53093 0.64045 0.0
O197 O 0.00267 0.52917 0.62731 0.0
Cd198 Cd 0.00137 0.5448 0.58726 0.0
O199 O 0.95008 0.53977 0.63248 0.0
Cd200 Cd 0.92201 0.55497 0.59637 0.0
C201 C 0.9696 0.62283 0.59338 0.0
O202 O 0.95374 0.51907 0.5724 0.0
O203 O 0.92154 0.55145 0.55385 0.0
O204 O 0.87989 0.51803 0.60969 0.0
C205 C 0.94256 0.52874 0.55314 0.0
O206 O -0.00685 0.60375 0.58826 0.0
C207 C 0.85598 0.53707 0.60607 0.0
O208 O 0.94125 0.61165 0.59821 0.0
O209 O 0.86275 0.56529 0.59835 0.0
C210 C 0.50239 0.45994 0.64199 0.0
O211 O 0.47758 0.46178 0.62877 0.0
Cd212 Cd 0.47915 0.44637 0.58864 0.0
O213 O 0.53014 0.45119 0.63406 0.0
Cd214 Cd 0.55822 0.43634 0.59783 0.0
C215 C 0.51089 0.36837 0.59447 0.0
O216 O 0.52666 0.47227 0.57377 0.0
O217 O 0.55868 0.43943 0.55536 0.0
O218 O 0.60047 0.47335 0.611 0.0
C219 C 0.5379 0.46233 0.55456 0.0
O220 O 0.48734 0.38743 0.58934 0.0
C221 C 0.62433 0.45424 0.60732 0.0
O222 O 0.53918 0.37958 0.59945 0.0
O223 O 0.61745 0.42595 0.59971 0.0
H224 H 0.29967 0.91569 0.09333 0.0
H225 H 0.33488 0.00769 0.11996 0.0
H226 H 0.24358 0.936 0.09528 0.0
H227 H 0.27888 0.02769 0.1224 0.0
H228 H 0.17983 0.06474 0.09465 0.0
H229 H 0.2359 0.04435 0.09606 0.0
H230 H 0.20074 0.95208 0.122 0.0
H231 H 0.14473 0.97219 0.12009 0.0
C232 C 0.2954 0.94008 0.09987 0.0
C233 C 0.3217 0.96012 0.10638 0.0
C234 C 0.26326 0.95169 0.10109 0.0
C235 C 0.25676 0.98356 0.10889 0.0
C236 C 0.28307 0.00325 0.11594 0.0
C237 C 0.31515 0.99168 0.11468 0.0
C238 C 0.18412 0.04021 0.10082 0.0
C239 C 0.15786 0.02005 0.10715 0.0
C240 C 0.21625 0.02854 0.10173 0.0
C241 C 0.22279 -0.0035 0.10905 0.0
C242 C 0.19652 0.97667 0.11592 0.0
C243 C 0.16443 0.9883 0.11496 0.0
H244 H 0.64448 0.01197 0.33215 0.0
H245 H 0.67988 0.91984 0.35818 0.0
H246 H 0.70041 0.03223 0.33016 0.0
H247 H 0.73588 0.9404 0.35669 0.0
H248 H 0.83473 0.97706 0.33262 0.0
H249 H 0.77882 0.95687 0.33025 0.0
H250 H 0.74315 0.04874 0.35686 0.0
H251 H 0.79916 0.06923 0.35873 0.0
C252 C 0.66423 -0.00401 0.33739 0.0
C253 C 0.65777 0.96431 0.34539 0.0
C254 C 0.69628 0.00771 0.33639 0.0
C255 C 0.7226 0.98804 0.3434 0.0
C256 C 0.71618 0.95607 0.35092 0.0
C257 C 0.6841 0.94431 0.35187 0.0
C258 C 0.81494 0.99306 0.3378 0.0
C259 C 0.82136 0.02473 0.34594 0.0
C260 C 0.78291 0.98139 0.33657 0.0
C261 C 0.75652 0.00108 0.3435 0.0
C262 C 0.76289 0.03305 0.35115 0.0
C263 C 0.79498 0.04477 0.35232 0.0
H264 H 0.83464 0.00868 0.8307 0.0
H265 H 0.79725 0.91729 0.85661 0.0
H266 H 0.77905 0.0298 0.82801 0.0
H267 H 0.74161 0.93866 0.85434 0.0
H268 H 0.64369 0.97721 0.8299 0.0
H269 H 0.69932 0.95615 0.82732 0.0
H270 H 0.7364 0.04683 0.85495 0.0
H271 H 0.68072 0.06815 0.85712 0.0
C272 C 0.81453 0.99302 0.83571 0.0
C273 C 0.82034 0.96133 0.84395 0.0
C274 C 0.78269 0.00522 0.8343 0.0
C275 C 0.75593 0.98602 0.8411 0.0
C276 C 0.76167 0.95398 0.84873 0.0
C277 C 0.79356 0.94176 0.85014 0.0
C278 C 0.66373 0.99278 0.83523 0.0
C279 C 0.65781 0.02432 0.8438 0.0
C280 C 0.69559 0.98061 0.83388 0.0
C281 C 0.72226 -0.0003 0.84107 0.0
C282 C 0.71641 0.0316 0.84904 0.0
C283 C 0.6845 0.04379 0.85039 0.0
H284 H 0.18197 0.92012 0.59549 0.0
H285 H 0.14491 0.01128 0.62236 0.0
H286 H 0.23763 0.94149 0.59749 0.0
H287 H 0.20052 0.03239 0.62476 0.0
H288 H 0.29841 0.07104 0.59523 0.0
H289 H 0.24278 0.04967 0.59763 0.0
H290 H 0.28033 0.95876 0.6243 0.0
H291 H 0.33589 0.97986 0.62151 0.0
C292 C 0.18575 0.94453 0.60211 0.0
C293 C 0.15904 0.96404 0.60864 0.0
C294 C 0.21764 0.95676 0.60335 0.0
C295 C 0.22349 0.98873 0.61117 0.0
C296 C 0.19681 0.00787 0.61832 0.0
C297 C 0.16496 -0.00434 0.61707 0.0
C298 C 0.29474 0.04662 0.60181 0.0
C299 C 0.32154 0.02711 0.60806 0.0
C300 C 0.26286 0.0344 0.60328 0.0
C301 C 0.25714 0.00242 0.61105 0.0
C302 C 0.28394 0.98328 0.6179 0.0
C303 C 0.31576 -0.00452 0.61643 0.0
H304 H 0.83673 0.50673 0.12367 0.0
H305 H 0.79919 0.41528 0.09769 0.0
H306 H 0.78117 0.52793 0.12641 0.0
H307 H 0.74359 0.43675 0.1 0.0
H308 H 0.64568 0.47544 0.12433 0.0
H309 H 0.70128 0.45434 0.12692 0.0
H310 H 0.73852 0.54499 0.09963 0.0
H311 H 0.68287 0.56637 0.09747 0.0
C312 C 0.81659 0.49108 0.11865 0.0
C313 C 0.82235 0.45935 0.11038 0.0
C314 C 0.78477 0.50333 0.12008 0.0
C315 C 0.75797 0.48414 0.11328 0.0
C316 C 0.76367 0.45206 0.10561 0.0
C317 C 0.79554 0.43979 0.10419 0.0
C318 C 0.66576 0.491 0.11908 0.0
C319 C 0.65988 0.52255 0.1106 0.0
C320 C 0.6976 0.47881 0.12044 0.0
C321 C 0.72431 0.49787 0.11333 0.0
C322 C 0.71851 0.52978 0.10547 0.0
C323 C 0.68662 0.54201 0.10413 0.0
H324 H 0.29965 0.56924 0.35988 0.0
H325 H 0.33655 0.47722 0.33442 0.0
H326 H 0.24395 0.54793 0.35816 0.0
H327 H 0.28092 0.4562 0.3322 0.0
H328 H 0.1823 0.4183 0.36025 0.0
H329 H 0.23806 0.43951 0.35871 0.0
H330 H 0.20158 0.53053 0.33146 0.0
H331 H 0.1459 0.50963 0.33348 0.0
C332 C 0.29583 0.54462 0.35365 0.0
C333 C 0.32249 0.52488 0.34739 0.0
C334 C 0.26391 0.53243 0.35256 0.0
C335 C 0.258 0.50028 0.34514 0.0
C336 C 0.28466 0.48086 0.33836 0.0
C337 C 0.31653 0.49301 0.33949 0.0
C338 C 0.18625 0.44273 0.35376 0.0
C339 C 0.15971 0.46232 0.3471 0.0
C340 C 0.2182 0.45486 0.35279 0.0
C341 C 0.22425 0.4868 0.34506 0.0
C342 C 0.19772 0.50605 0.33786 0.0
C343 C 0.16582 0.49396 0.33888 0.0
H344 H 0.14361 0.47494 0.83418 0.0
H345 H 0.17866 0.56704 0.86074 0.0
H346 H 0.19961 0.45481 0.83217 0.0
H347 H 0.23473 0.54662 0.8592 0.0
H348 H 0.33373 0.51023 0.83482 0.0
H349 H 0.27775 0.53033 0.83262 0.0
H350 H 0.24236 0.43833 0.85886 0.0
H351 H 0.29843 0.41793 0.86058 0.0
C352 C 0.1633 0.49094 0.83954 0.0
C353 C 0.15671 0.52257 0.84769 0.0
C354 C 0.19538 0.4793 0.83852 0.0
C355 C 0.22163 0.49901 0.84565 0.0
C356 C 0.2151 0.53092 0.85333 0.0
C357 C 0.18297 0.5426 0.85431 0.0
C358 C 0.31399 0.49417 0.83996 0.0
C359 C 0.3205 0.46249 0.84795 0.0
C360 C 0.28191 0.5058 0.83883 0.0
C361 C 0.25559 0.48604 0.8457 0.0
C362 C 0.26206 0.45407 0.8532 0.0
C363 C 0.29418 0.4424 0.85428 0.0
H364 H 0.68075 0.42097 0.59759 0.0
H365 H 0.64503 0.51293 0.62399 0.0
H366 H 0.73672 0.44152 0.59952 0.0
H367 H 0.70095 0.53322 0.62633 0.0
H368 H 0.79938 0.57014 0.59656 0.0
H369 H 0.74344 0.54963 0.59914 0.0
H370 H 0.7797 0.45841 0.62617 0.0
H371 H 0.83557 0.47865 0.62318 0.0
C372 C 0.68488 0.44539 0.6041 0.0
C373 C 0.65846 0.46536 0.61051 0.0
C374 C 0.71696 0.45714 0.60531 0.0
C375 C 0.72328 0.4891 0.61297 0.0
C376 C 0.69688 0.50869 0.62001 0.0
C377 C 0.66485 0.49696 0.6188 0.0
C378 C 0.79536 0.54584 0.60326 0.0
C379 C 0.82189 0.52598 0.60955 0.0
C380 C 0.76331 0.53411 0.60483 0.0
C381 C 0.75713 0.5023 0.61276 0.0
C382 C 0.78366 0.48282 0.61966 0.0
C383 C 0.81567 0.49452 0.61807 0.0
H384 H 0.93056 0.03537 0.27894 0.0
H385 H 0.02875 -0.0004 0.29057 0.0
H386 H 0.93745 0.02769 0.2375 0.0
H387 H 0.03526 0.99086 0.24896 0.0
H388 H 0.04905 0.03231 0.17491 0.0
H389 H 0.04216 0.02649 0.21648 0.0
H390 H 0.94389 0.99042 0.2058 0.0
H391 H 0.95041 -0.0027 0.16403 0.0
C392 C 0.95344 0.0253 0.27269 0.0
C393 C 0.97929 0.01853 0.28802 0.0
C394 C 0.95728 0.02061 0.2489 0.0
C395 C 0.98698 0.00882 0.2399 0.0
C396 C 0.01228 0.00051 0.25534 0.0
C397 C 0.00851 0.00542 0.27917 0.0
C398 C 0.02608 0.02278 0.18136 0.0
C399 C 0.0001 0.01572 0.16619 0.0
C400 C 0.02222 0.01917 0.20524 0.0
C401 C -0.00761 0.00818 0.21448 0.0
C402 C 0.96698 -0.00052 0.19922 0.0
C403 C 0.97075 0.00332 0.1753 0.0
H404 H 0.43084 0.94917 0.17331 0.0
H405 H 0.52908 0.98497 0.16202 0.0
H406 H 0.43763 0.95635 0.2148 0.0
H407 H 0.53549 0.99322 0.20369 0.0
H408 H 0.54905 0.95125 0.27759 0.0
H409 H 0.54225 0.95726 0.23602 0.0
H410 H 0.44396 -0.00664 0.24668 0.0
H411 H 0.45038 0.98629 0.28843 0.0
C412 C 0.45371 0.95914 0.17965 0.0
C413 C 0.4796 0.96607 0.16439 0.0
C414 C 0.4575 0.96354 0.20348 0.0
C415 C 0.48717 0.97521 0.21258 0.0
C416 C 0.51252 0.98366 0.19722 0.0
C417 C 0.50881 0.97904 0.17336 0.0
C418 C 0.52608 0.96082 0.27113 0.0
C419 C 0.50008 0.96785 0.28629 0.0
C420 C 0.52229 0.96454 0.24726 0.0
C421 C 0.49249 0.97562 0.23801 0.0
C422 C 0.46703 0.98423 0.25326 0.0
C423 C 0.47075 0.98029 0.27717 0.0
H424 H 0.04915 0.94567 0.67426 0.0
H425 H 0.95064 0.98131 0.66383 0.0
H426 H 0.04226 0.9507 0.71591 0.0
H427 H 0.94414 0.98745 0.70566 0.0
H428 H 0.93061 0.9444 0.77895 0.0
H429 H 0.93761 0.95065 0.73741 0.0
H430 H 0.03593 0.98643 0.74842 0.0
H431 H 0.02931 0.97907 0.79013 0.0
C432 C 0.02619 0.95513 0.68084 0.0
C433 C 0.00028 0.96271 0.66575 0.0
C434 C 0.02234 0.95827 0.70476 0.0
C435 C -0.00741 0.96934 0.71413 0.0
C436 C 0.96717 0.97832 0.69898 0.0
C437 C 0.97093 0.97491 0.67502 0.0
C438 C 0.95365 0.95389 0.77257 0.0
C439 C 0.97956 0.96086 0.78782 0.0
C440 C 0.95756 0.95774 0.74872 0.0
C441 C 0.98738 0.96892 0.73958 0.0
C442 C 0.01283 0.97724 0.75491 0.0
C443 C 0.00901 0.97313 0.7788 0.0
H444 H 0.5298 0.00865 0.66236 0.0
H445 H 0.43116 0.04388 0.67301 0.0
H446 H 0.53594 0.0013 0.70411 0.0
H447 H 0.43769 0.03765 0.71457 0.0
H448 H 0.44981 0.00722 0.78827 0.0
H449 H 0.44371 0.00091 0.74642 0.0
H450 H 0.54211 0.03708 0.73659 0.0
H451 H 0.54859 0.04227 0.77826 0.0
C452 C 0.50941 0.01471 0.67358 0.0
C453 C 0.48012 0.02714 0.6644 0.0
C454 C 0.51296 0.01061 0.69749 0.0
C455 C 0.48739 0.01909 0.71268 0.0
C456 C 0.45772 0.03042 0.70338 0.0
C457 C 0.45408 0.03427 0.67951 0.0
C458 C 0.47024 0.01345 0.77716 0.0
C459 C 0.49955 0.02555 0.78656 0.0
C460 C 0.46672 0.00995 0.75319 0.0
C461 C 0.49234 0.01872 0.73815 0.0
C462 C 0.52204 0.02967 0.74765 0.0
C463 C 0.52565 0.03291 0.77158 0.0
H464 H 0.45105 0.50346 0.16445 0.0
H465 H 0.54982 0.53791 0.17564 0.0
H466 H 0.44441 0.49608 0.20615 0.0
H467 H 0.5428 0.53163 0.21717 0.0
H468 H 0.52947 0.50307 0.29095 0.0
H469 H 0.53593 0.49538 0.24923 0.0
H470 H 0.43806 0.5324 0.23832 0.0
H471 H 0.43121 0.53897 0.27985 0.0
C472 C 0.47137 0.50931 0.17578 0.0
C473 C 0.50082 0.52161 0.16677 0.0
C474 C 0.46754 0.50518 0.19967 0.0
C475 C 0.49298 0.5135 0.215 0.0
C476 C 0.52285 0.52455 0.20586 0.0
C477 C 0.52677 0.52843 0.18202 0.0
C478 C 0.50921 0.50914 0.27964 0.0
C479 C 0.47998 0.52198 0.28868 0.0
C480 C 0.51294 0.50485 0.25575 0.0
C481 C 0.48762 0.51354 0.24044 0.0
C482 C 0.45791 0.52505 0.2496 0.0
C483 C 0.45409 0.52909 0.27346 0.0
H484 H 0.95333 0.48405 0.28979 0.0
H485 H 0.05125 0.44688 0.27919 0.0
H486 H 0.94699 0.49055 0.24798 0.0
H487 H 0.04451 0.45228 0.23758 0.0
H488 H 0.03169 0.47891 0.1633 0.0
H489 H 0.03847 0.48756 0.2049 0.0
H490 H 0.93976 0.45328 0.21646 0.0
H491 H 0.93262 0.44574 0.17503 0.0
C492 C 0.97355 0.47745 0.27857 0.0
C493 C 0.00264 0.46459 0.28777 0.0
C494 C 0.96988 0.48107 0.25462 0.0
C495 C -0.00488 0.47165 0.23944 0.0
C496 C 0.02472 0.46016 0.24876 0.0
C497 C 0.02848 0.4568 0.27266 0.0
C498 C 0.01133 0.4736 0.17473 0.0
C499 C 0.98175 0.4613 0.1659 0.0
C500 C 0.01524 0.47847 0.19855 0.0
C501 C 0.98974 0.47089 0.21401 0.0
C502 C 0.95976 0.45981 0.20504 0.0
C503 C 0.95577 0.4552 0.18126 0.0
H504 H 0.54808 0.45061 0.67579 0.0
H505 H 0.44899 0.48436 0.66489 0.0
H506 H 0.541 0.45635 0.71737 0.0
H507 H 0.44228 0.49116 0.70667 0.0
H508 H 0.42963 0.44846 0.78031 0.0
H509 H 0.4364 0.45462 0.73874 0.0
H510 H 0.53388 0.4927 0.74953 0.0
H511 H 0.5275 0.48548 0.79127 0.0
C512 C 0.52494 0.4598 0.68224 0.0
C513 C 0.49894 0.46664 0.66705 0.0
C514 C 0.52098 0.46336 0.70613 0.0
C515 C 0.49102 0.47409 0.71536 0.0
C516 C 0.46548 0.48232 0.7001 0.0
C517 C 0.46936 0.47853 0.67617 0.0
C518 C 0.45241 0.45847 0.77387 0.0
C519 C 0.4782 0.46608 0.78907 0.0
C520 C 0.45619 0.46227 0.75 0.0
C521 C 0.48575 0.474 0.7408 0.0
C522 C 0.511 0.48307 0.75608 0.0
C523 C 0.50731 0.47904 0.77998 0.0
H524 H 0.04879 0.53794 0.7795 0.0
H525 H 0.9504 0.50154 0.78906 0.0
H526 H 0.0426 0.53308 0.73779 0.0
H527 H 0.94462 0.49561 0.74715 0.0
H528 H 0.93183 0.54 0.67414 0.0
H529 H 0.93832 0.53306 0.71566 0.0
H530 H 0.03687 0.49767 0.70498 0.0
H531 H 0.03075 0.50569 0.66329 0.0
C532 C 0.02601 0.52833 0.77272 0.0
C533 C -9e-05 0.52054 0.78758 0.0
C534 C 0.02257 0.52529 0.74876 0.0
C535 C -0.00696 0.51413 0.73912 0.0
C536 C 0.96748 0.50482 0.75404 0.0
C537 C 0.97083 0.5081 0.77804 0.0
C538 C 0.95481 0.53046 0.68058 0.0
C539 C 0.98093 0.52378 0.66544 0.0
C540 C 0.95843 0.5262 0.70442 0.0
C541 C 0.98815 0.51491 0.71365 0.0
C542 C 0.01383 0.50691 0.69842 0.0
C543 C 0.0103 0.51141 0.67454 0.0
H544 H 0.95362 0.14932 0.08525 0.0
H545 H 0.05177 0.16553 0.11082 0.0
H546 H 0.94351 0.20766 0.08587 0.0
H547 H 0.04128 0.22398 0.112 0.0
H548 H 0.02414 0.32678 0.0841 0.0
H549 H 0.03376 0.26845 0.08536 0.0
H550 H 0.93579 0.25356 0.11152 0.0
H551 H 0.92579 0.31211 0.10972 0.0
C552 C 0.97299 0.16529 0.09119 0.0
C553 C 0.00359 0.15269 0.09789 0.0
C554 C 0.96708 0.19879 0.09169 0.0
C555 C -0.00844 0.22055 0.09897 0.0
C556 C 0.02203 0.20793 0.10598 0.0
C557 C 0.028 0.1744 0.10541 0.0
C558 C 0.00459 0.31115 0.09016 0.0
C559 C 0.97413 0.3242 0.09677 0.0
C560 C 0.01023 0.27765 0.09104 0.0
C561 C 0.98561 0.25629 0.09862 0.0
C562 C 0.95517 0.2693 0.10534 0.0
C563 C 0.94947 0.30288 0.1044 0.0
H564 H 0.42855 0.81526 0.10947 0.0
H565 H 0.52639 0.83173 0.08344 0.0
H566 H 0.43947 0.75691 0.11096 0.0
H567 H 0.53694 0.77347 0.08437 0.0
H568 H 0.5556 0.66964 0.10906 0.0
H569 H 0.54519 0.72816 0.11035 0.0
H570 H 0.44718 0.71195 0.08464 0.0
H571 H 0.45721 0.65368 0.08389 0.0
C572 C 0.45234 0.80647 0.10401 0.0
C573 C 0.47654 0.82822 0.09629 0.0
C574 C 0.45856 0.77299 0.10476 0.0
C575 C 0.48908 0.76047 0.09773 0.0
C576 C 0.51334 0.78228 0.09022 0.0
C577 C 0.50717 0.81572 0.08954 0.0
C578 C 0.53183 0.67858 0.10373 0.0
C579 C 0.50727 0.65691 0.09638 0.0
C580 C 0.52589 0.71214 0.10437 0.0
C581 C 0.49531 0.72478 0.09763 0.0
C582 C 0.47081 0.70306 0.09032 0.0
C583 C 0.47669 0.66959 0.08974 0.0
H584 H 0.52501 0.65695 0.36871 0.0
H585 H 0.4267 0.67186 0.3431 0.0
H586 H 0.53482 0.71527 0.36728 0.0
H587 H 0.43687 0.73033 0.34111 0.0
H588 H 0.45432 0.83434 0.36756 0.0
H589 H 0.44445 0.77599 0.3669 0.0
H590 H 0.54231 0.75999 0.34081 0.0
H591 H 0.55256 0.81849 0.34203 0.0
C592 C 0.50553 0.67263 0.3626 0.0
C593 C 0.47499 0.65967 0.3561 0.0
C594 C 0.51127 0.70611 0.36162 0.0
C595 C 0.48667 0.72752 0.35405 0.0
C596 C 0.45622 0.71456 0.34732 0.0
C597 C 0.45043 0.68102 0.34836 0.0
C598 C 0.47377 0.81845 0.36162 0.0
C599 C 0.50431 0.83116 0.35493 0.0
C600 C 0.46799 0.78494 0.36109 0.0
C601 C 0.49256 0.76327 0.35379 0.0
C602 C 0.52299 0.77598 0.34684 0.0
C603 C 0.52883 0.80954 0.34743 0.0
H604 H 0.05464 0.31565 0.34332 0.0
H605 H 0.95627 0.33174 0.36852 0.0
H606 H 0.044 0.25724 0.34156 0.0
H607 H 0.946 0.27348 0.36732 0.0
H608 H 0.92755 0.17004 0.34249 0.0
H609 H 0.93831 0.22843 0.34102 0.0
H610 H 0.03586 0.21202 0.36751 0.0
H611 H 0.02549 0.15377 0.36843 0.0
C612 C 0.0308 0.30677 0.34854 0.0
C613 C 0.00635 0.32843 0.35609 0.0
C614 C 0.02474 0.27325 0.34763 0.0
C615 C -0.00587 0.26064 0.35431 0.0
C616 C 0.96966 0.28236 0.3617 0.0
C617 C 0.97567 0.31581 0.36255 0.0
C618 C 0.95133 0.17888 0.34792 0.0
C619 C 0.97561 0.15717 0.35561 0.0
C620 C 0.95745 0.21238 0.34719 0.0
C621 C 0.98795 0.22494 0.35419 0.0
C622 C 0.01228 0.20318 0.36167 0.0
C623 C 0.00621 0.16973 0.36234 0.0
H624 H 0.95237 0.65154 0.87052 0.0
H625 H 0.05063 0.66819 0.84536 0.0
H626 H 0.94204 0.70985 0.87013 0.0
H627 H 0.03994 0.7266 0.84441 0.0
H628 H 0.02207 0.82954 0.8718 0.0
H629 H 0.03191 0.77122 0.87098 0.0
H630 H 0.93429 0.75549 0.84438 0.0
H631 H 0.92406 0.81404 0.84574 0.0
C632 C 0.97173 0.6676 0.86474 0.0
C633 C 0.0024 0.65513 0.85805 0.0
C634 C 0.96569 0.70107 0.86437 0.0
C635 C -0.00987 0.72294 0.85724 0.0
C636 C 0.02071 0.71047 0.85032 0.0
C637 C 0.0268 0.67695 0.85076 0.0
C638 C 0.00263 0.81372 0.86575 0.0
C639 C 0.97222 0.82653 0.85886 0.0
C640 C 0.0084 0.78022 0.86513 0.0
C641 C 0.98396 0.75864 0.85753 0.0
C642 C 0.95353 0.77141 0.85058 0.0
C643 C 0.9477 0.80499 0.85127 0.0
H644 H 0.42698 0.317 0.84533 0.0
H645 H 0.52487 0.33382 0.87119 0.0
H646 H 0.43783 0.25861 0.8442 0.0
H647 H 0.53535 0.27554 0.87061 0.0
H648 H 0.55391 0.17145 0.84593 0.0
H649 H 0.54355 0.22997 0.84474 0.0
H650 H 0.44562 0.21395 0.87064 0.0
H651 H 0.4556 0.15565 0.87129 0.0
C652 C 0.45076 0.30828 0.85083 0.0
C653 C 0.47501 0.33014 0.85838 0.0
C654 C 0.45694 0.27478 0.8503 0.0
C655 C 0.48746 0.26236 0.85736 0.0
C656 C 0.51175 0.28427 0.86474 0.0
C657 C 0.50562 0.31773 0.86521 0.0
C658 C 0.53017 0.18043 0.85135 0.0
C659 C 0.50561 0.1588 0.85868 0.0
C660 C 0.52427 0.21399 0.85076 0.0
C661 C 0.49371 0.22667 0.85755 0.0
C662 C 0.46923 0.20501 0.86491 0.0
C663 C 0.47508 0.17153 0.86544 0.0
H664 H 0.42598 0.17422 0.60621 0.0
H665 H 0.5242 0.15811 0.58072 0.0
H666 H 0.43653 0.23268 0.60766 0.0
H667 H 0.53438 0.21639 0.58162 0.0
H668 H 0.55293 0.31961 0.60763 0.0
H669 H 0.5423 0.26115 0.60816 0.0
H670 H 0.44473 0.27814 0.5819 0.0
H671 H 0.45498 0.33642 0.5819 0.0
C672 C 0.44974 0.18312 0.60081 0.0
C673 C 0.47421 0.16142 0.59335 0.0
C674 C 0.45576 0.21665 0.60155 0.0
C675 C 0.48634 0.22925 0.59478 0.0
C676 C 0.51075 0.20752 0.58732 0.0
C677 C 0.50479 0.17405 0.58665 0.0
C678 C 0.52921 0.31087 0.602 0.0
C679 C 0.50484 0.33276 0.59472 0.0
C680 C 0.52315 0.27734 0.6022 0.0
C681 C 0.49264 0.26493 0.59508 0.0
C682 C 0.46831 0.28685 0.58785 0.0
C683 C 0.47431 0.32032 0.5877 0.0
H684 H 0.05459 0.81688 0.60627 0.0
H685 H 0.9565 0.83315 0.58063 0.0
H686 H 0.04403 0.75841 0.60732 0.0
H687 H 0.94633 0.77487 0.58113 0.0
H688 H 0.92754 0.6716 0.60662 0.0
H689 H 0.93823 0.73005 0.60744 0.0
H690 H 0.03592 0.71301 0.58136 0.0
H691 H 0.02562 0.65474 0.58109 0.0
C692 C 0.03086 0.80802 0.60075 0.0
C693 C 0.00642 0.82976 0.59338 0.0
C694 C 0.02484 0.77448 0.60126 0.0
C695 C -0.00571 0.76193 0.59434 0.0
C696 C 0.96993 0.7837 0.58695 0.0
C697 C 0.97589 0.81717 0.5865 0.0
C698 C 0.95131 0.68033 0.60109 0.0
C699 C 0.97568 0.65843 0.59379 0.0
C700 C 0.9574 0.71385 0.60146 0.0
C701 C 0.98796 0.72625 0.59446 0.0
C702 C 0.0123 0.70431 0.5872 0.0
C703 C 0.00627 0.67085 0.5869 0.0
H704 H -0.00317 0.9906 0.90691 0.0
H705 H 0.91575 0.9469 0.94355 0.0
H706 H 0.02104 0.00714 0.94365 0.0
H707 H 0.93918 0.96468 -0.01966 0.0
H708 H 0.00607 0.97014 0.04277 0.0
H709 H 0.98341 0.95297 0.00564 0.0
H710 H 0.01444 0.04394 0.97498 0.0
H711 H 0.03835 0.06039 0.01189 0.0
C712 C 0.98399 0.9849 0.92285 0.0
C713 C 0.95447 0.96743 0.92244 0.0
C714 C -0.00222 -0.00549 0.9439 0.0
C715 C 0.9821 0.9872 0.96496 0.0
C716 C 0.95224 0.97015 0.96447 0.0
C717 C 0.93867 0.96017 0.94341 0.0
C718 C 0.00819 0.98634 0.02803 0.0
C719 C 0.02394 0.01656 0.03016 0.0
C720 C -0.00502 0.97665 0.00681 0.0
C721 C -0.00311 -0.00282 -0.01264 0.0
C722 C 0.01293 0.02734 -0.01048 0.0
C723 C 0.02651 0.03684 0.01068 0.0
H724 H 0.56164 0.03752 0.94279 0.0
H725 H 0.48115 -0.00659 0.90565 0.0
H726 H 0.53847 0.01882 -0.02064 0.0
H727 H 0.45716 0.97591 0.9422 0.0
H728 H 0.44076 0.92133 0.01 0.0
H729 H 0.46421 0.9387 0.97319 0.0
H730 H 0.49411 0.02961 0.00476 0.0
H731 H 0.47193 0.01156 0.04174 0.0
C732 C 0.5389 0.02397 0.9425 0.0
C733 C 0.52319 0.01688 0.92145 0.0
C734 C 0.52547 0.01345 0.96343 0.0
C735 C 0.49583 -0.00398 0.96374 0.0
C736 C 0.48025 0.98885 0.94259 0.0
C737 C 0.4939 -0.00099 0.92165 0.0
C738 C 0.45225 0.94506 0.009 0.0
C739 C 0.45468 0.96506 0.0287 0.0
C740 C 0.46557 0.95509 -0.0121 0.0
C741 C 0.48119 0.9855 -0.01397 0.0
C742 C 0.48289 0.00576 0.00569 0.0
C743 C 0.46995 -0.00445 0.02684 0.0
H744 H 0.41692 0.04057 0.50857 0.0
H745 H 0.49795 -0.00305 0.54531 0.0
H746 H 0.43996 0.02196 0.47186 0.0
H747 H 0.5218 0.97958 0.50864 0.0
H748 H 0.53832 0.92495 0.44086 0.0
H749 H 0.51477 0.94225 0.4777 0.0
H750 H 0.48401 0.03281 0.44626 0.0
H751 H 0.50628 0.01478 0.40923 0.0
C752 C 0.43975 0.02715 0.50875 0.0
C753 C 0.45564 0.02015 0.52972 0.0
C754 C 0.4531 0.01669 0.48773 0.0
C755 C 0.48283 -0.00059 0.48729 0.0
C756 C 0.49863 0.99238 0.50836 0.0
C757 C 0.48505 0.00246 0.52938 0.0
C758 C 0.52661 0.94859 0.44189 0.0
C759 C 0.52399 0.9685 0.42222 0.0
C760 C 0.51323 0.95858 0.46301 0.0
C761 C 0.49738 0.98888 0.46493 0.0
C762 C 0.49542 0.00904 0.44529 0.0
C763 C 0.50841 -0.00115 0.42411 0.0
H764 H 0.98233 -0.00524 0.54681 0.0
H765 H 0.06279 0.95066 0.50959 0.0
H766 H 0.95793 0.01168 0.51026 0.0
H767 H 0.03919 0.96878 0.47301 0.0
H768 H 0.97195 0.97455 0.41094 0.0
H769 H -0.00539 0.95724 0.44796 0.0
H770 H 0.96439 0.04847 0.47893 0.0
H771 H 0.94046 0.06509 0.44209 0.0
C772 C -0.005 0.98905 0.5308 0.0
C773 C 0.02439 0.97133 0.53098 0.0
C774 C 0.9811 -0.00113 0.50985 0.0
C775 C -0.00347 0.99151 0.48868 0.0
C776 C 0.0263 0.97428 0.48896 0.0
C777 C 0.03997 0.9641 0.5099 0.0
C778 C 0.97 0.99079 0.42572 0.0
C779 C 0.95451 0.02115 0.42368 0.0
C780 C 0.98322 0.981 0.44688 0.0
C781 C 0.98158 0.00157 0.46638 0.0
C782 C 0.96572 0.03184 0.46435 0.0
C783 C 0.95212 0.04145 0.44323 0.0
H784 H 0.48272 0.49368 0.04812 0.0
H785 H 0.56355 0.537 0.01099 0.0
H786 H 0.45799 0.47724 0.01154 0.0
H787 H 0.5396 0.5193 0.97434 0.0
H788 H 0.47221 0.51338 0.91219 0.0
H789 H 0.49517 0.53086 0.94916 0.0
H790 H 0.46421 0.44022 -0.01965 0.0
H791 H 0.44002 0.42348 0.94362 0.0
C792 C 0.49539 0.49933 0.03211 0.0
C793 C 0.52502 0.51663 0.03233 0.0
C794 C 0.4813 0.48978 0.01115 0.0
C795 C 0.49678 0.49697 -0.01001 0.0
C796 C 0.5267 0.51391 -0.00971 0.0
C797 C 0.54058 0.52384 0.01127 0.0
C798 C 0.47017 0.49732 0.92702 0.0
C799 C 0.45437 0.4671 0.92508 0.0
C800 C 0.48355 0.5072 0.94814 0.0
C801 C 0.48175 0.48685 0.96769 0.0
C802 C 0.46564 0.4567 0.96574 0.0
C803 C 0.45189 0.44702 0.94468 0.0
H804 H -0.00143 0.48737 0.0469 0.0
H805 H 0.91698 0.44381 0.01065 0.0
H806 H 0.02187 0.50472 0.01013 0.0
H807 H 0.93949 0.46242 0.97381 0.0
H808 H 0.00482 0.47094 0.91055 0.0
H809 H 0.98306 0.45227 0.94755 0.0
H810 H 0.01395 0.54244 -0.02026 0.0
H811 H 0.03696 0.56035 0.94298 0.0
C812 C 0.98544 0.48184 0.03105 0.0
C813 C 0.956 0.46426 0.03157 0.0
C814 C -0.0013 0.49192 0.00997 0.0
C815 C 0.98255 0.48501 -0.011 0.0
C816 C 0.95287 0.46765 -0.0104 0.0
C817 C 0.93983 0.45719 0.01069 0.0
C818 C 0.00707 0.48664 0.9256 0.0
C819 C 0.02258 0.51704 0.92395 0.0
C820 C -0.00561 0.47608 0.94675 0.0
C821 C -0.0034 0.49592 0.96661 0.0
C822 C 0.01227 0.52632 0.9649 0.0
C823 C 0.02533 0.53667 0.94381 0.0
H824 H 0.91764 0.53732 0.50974 0.0
H825 H -0.00155 0.49382 0.54681 0.0
H826 H 0.941 0.51873 0.47313 0.0
H827 H 0.0226 0.47647 0.51024 0.0
H828 H 0.03989 0.42199 0.44251 0.0
H829 H 0.01592 0.43915 0.47924 0.0
H830 H 0.9853 0.52972 0.44775 0.0
H831 H 0.00801 0.51183 0.41081 0.0
C832 C 0.94048 0.52391 0.51001 0.0
C833 C 0.95622 0.51696 0.53105 0.0
C834 C 0.95401 0.51347 0.48906 0.0
C835 C 0.98378 0.49624 0.48873 0.0
C836 C -0.00059 0.48923 0.50987 0.0
C837 C 0.98565 0.4993 0.53082 0.0
C838 C 0.02812 0.4456 0.4435 0.0
C839 C 0.02568 0.46555 0.42384 0.0
C840 C 0.0145 0.45552 0.46456 0.0
C841 C -0.00144 0.48578 0.46643 0.0
C842 C -0.00323 0.50598 0.4468 0.0
C843 C 0.01002 0.49587 0.42569 0.0
H844 H 0.56327 0.45332 0.51133 0.0
H845 H 0.48222 0.49745 0.54789 0.0
H846 H 0.5403 0.47148 0.47455 0.0
H847 H 0.45843 0.51438 0.51114 0.0
H848 H 0.44159 0.56757 0.44296 0.0
H849 H 0.46527 0.55111 0.4799 0.0
H850 H 0.49623 0.46 0.4491 0.0
H851 H 0.47383 0.47719 0.41197 0.0
C852 C 0.54046 0.46678 0.51145 0.0
C853 C 0.52452 0.47401 0.5324 0.0
C854 C 0.52715 0.47698 0.4904 0.0
C855 C 0.4974 0.49423 0.48987 0.0
C856 C 0.48161 0.50158 0.51092 0.0
C857 C 0.49515 0.49176 0.53197 0.0
C858 C 0.45338 0.544 0.44415 0.0
C859 C 0.45601 0.52369 0.42463 0.0
C860 C 0.46683 0.53449 0.46533 0.0
C861 C 0.48279 0.50428 0.46745 0.0
C862 C 0.48475 0.48372 0.44796 0.0
C863 C 0.47169 0.49343 0.42673 0.0
loop_
_geom_bond_atom_site_label_1
_geom_bond_atom_site_label_2
_geom_bond_distance
_geom_bond_site_symmetry_2
_ccdc_geom_bond_type
C0 O1 1.306 . S
C0 O3 1.160 . S
O1 C0 1.306 . S
O1 Cd2 2.228 1_455 S
Cd2 O1 2.228 1_655 S
Cd2 O6 2.273 1_655 S
Cd2 O10 2.277 1_655 S
O3 C0 1.160 . S
O3 Cd4 2.203 . S
Cd4 O3 2.203 . S
Cd4 O6 2.411 . S
Cd4 O7 2.333 . S
Cd4 O8 2.352 . S
Cd4 O12 2.277 . S
Cd4 O13 2.356 . S
C5 O10 1.209 . S
C5 O12 1.226 . S
O6 Cd2 2.273 1_455 S
O6 Cd4 2.411 . S
O6 C9 1.320 . S
O7 Cd4 2.333 . S
O7 C9 1.214 . S
O8 Cd4 2.352 . S
O8 C11 1.258 . S
C9 O6 1.320 . S
C9 O7 1.214 . S
O10 Cd2 2.277 1_455 S
O10 C5 1.209 . S
C11 O8 1.258 . S
C11 O13 1.282 . S
O12 Cd4 2.277 . S
O12 C5 1.226 . S
O13 Cd4 2.356 . S
O13 C11 1.282 . S
C14 O15 1.306 . S
C14 O17 1.160 . S
O15 C14 1.306 . S
O15 Cd16 2.228 . S
Cd16 O15 2.228 . S
Cd16 O20 2.273 . S
Cd16 O24 2.277 . S
O17 C14 1.160 . S
O17 Cd18 2.203 . S
Cd18 O17 2.203 . S
Cd18 O20 2.411 . S
Cd18 O21 2.333 . S
Cd18 O22 2.352 . S
Cd18 O26 2.277 . S
Cd18 O27 2.356 . S
C19 O24 1.209 . S
C19 O26 1.226 . S
O20 Cd16 2.273 . S
O20 Cd18 2.411 . S
O20 C23 1.320 . S
O21 Cd18 2.333 . S
O21 C23 1.214 . S
O22 Cd18 2.352 . S
O22 C25 1.258 . S
C23 O20 1.320 . S
C23 O21 1.214 . S
O24 Cd16 2.277 . S
O24 C19 1.209 . S
C25 O22 1.258 . S
C25 O27 1.282 . S
O26 Cd18 2.277 . S
O26 C19 1.226 . S
O27 Cd18 2.356 . S
O27 C25 1.282 . S
C28 O29 1.306 . S
C28 O31 1.160 . S
O29 C28 1.306 . S
O29 Cd30 2.228 . S
Cd30 O29 2.228 . S
Cd30 O34 2.273 . S
Cd30 O38 2.277 . S
O31 C28 1.160 . S
O31 Cd32 2.203 . S
Cd32 O31 2.203 . S
Cd32 O34 2.411 . S
Cd32 O35 2.333 . S
Cd32 O36 2.352 . S
Cd32 O40 2.277 . S
Cd32 O41 2.356 . S
C33 O38 1.209 . S
C33 O40 1.226 . S
O34 Cd30 2.273 . S
O34 Cd32 2.411 . S
O34 C37 1.320 . S
O35 Cd32 2.333 . S
O35 C37 1.214 . S
O36 Cd32 2.352 . S
O36 C39 1.258 . S
C37 O34 1.320 . S
C37 O35 1.214 . S
O38 Cd30 2.277 . S
O38 C33 1.209 . S
C39 O36 1.258 . S
C39 O41 1.282 . S
O40 Cd32 2.277 . S
O40 C33 1.226 . S
O41 Cd32 2.356 . S
O41 C39 1.282 . S
C42 O43 1.306 . S
C42 O45 1.160 . S
O43 C42 1.306 . S
O43 Cd44 2.228 1_655 S
Cd44 O43 2.228 1_455 S
Cd44 O48 2.273 1_455 S
Cd44 O52 2.277 1_455 S
O45 C42 1.160 . S
O45 Cd46 2.203 . S
Cd46 O45 2.203 . S
Cd46 O48 2.411 . S
Cd46 O49 2.333 . S
Cd46 O50 2.352 . S
Cd46 O54 2.277 . S
Cd46 O55 2.356 . S
C47 O52 1.209 . S
C47 O54 1.226 . S
O48 Cd44 2.273 1_655 S
O48 Cd46 2.411 . S
O48 C51 1.320 . S
O49 Cd46 2.333 . S
O49 C51 1.214 . S
O50 Cd46 2.352 . S
O50 C53 1.258 . S
C51 O48 1.320 . S
C51 O49 1.214 . S
O52 Cd44 2.277 1_655 S
O52 C47 1.209 . S
C53 O50 1.258 . S
C53 O55 1.282 . S
O54 Cd46 2.277 . S
O54 C47 1.226 . S
O55 Cd46 2.356 . S
O55 C53 1.282 . S
C56 O57 1.306 . S
C56 O59 1.160 . S
O57 C56 1.306 . S
O57 Cd58 2.228 1_655 S
Cd58 O57 2.228 1_455 S
Cd58 O62 2.273 1_455 S
Cd58 O66 2.277 1_455 S
O59 C56 1.160 . S
O59 Cd60 2.203 . S
Cd60 O59 2.203 . S
Cd60 O62 2.411 . S
Cd60 O63 2.333 . S
Cd60 O64 2.352 . S
Cd60 O68 2.277 . S
Cd60 O69 2.356 . S
C61 O66 1.209 . S
C61 O68 1.226 . S
O62 Cd58 2.273 1_655 S
O62 Cd60 2.411 . S
O62 C65 1.320 . S
O63 Cd60 2.333 . S
O63 C65 1.214 . S
O64 Cd60 2.352 . S
O64 C67 1.258 . S
C65 O62 1.320 . S
C65 O63 1.214 . S
O66 Cd58 2.277 1_655 S
O66 C61 1.209 . S
C67 O64 1.258 . S
C67 O69 1.282 . S
O68 Cd60 2.277 . S
O68 C61 1.226 . S
O69 Cd60 2.356 . S
O69 C67 1.282 . S
C70 O71 1.306 . S
C70 O73 1.160 . S
O71 C70 1.306 . S
O71 Cd72 2.228 . S
Cd72 O71 2.228 . S
Cd72 O76 2.273 . S
Cd72 O80 2.277 . S
O73 C70 1.160 . S
O73 Cd74 2.203 . S
Cd74 O73 2.203 . S
Cd74 O76 2.411 . S
Cd74 O77 2.333 . S
Cd74 O78 2.352 . S
Cd74 O82 2.277 . S
Cd74 O83 2.356 . S
C75 O80 1.209 . S
C75 O82 1.226 . S
O76 Cd72 2.273 . S
O76 Cd74 2.411 . S
O76 C79 1.320 . S
O77 Cd74 2.333 . S
O77 C79 1.214 . S
O78 Cd74 2.352 . S
O78 C81 1.258 . S
C79 O76 1.320 . S
C79 O77 1.214 . S
O80 Cd72 2.277 . S
O80 C75 1.209 . S
C81 O78 1.258 . S
C81 O83 1.282 . S
O82 Cd74 2.277 . S
O82 C75 1.226 . S
O83 Cd74 2.356 . S
O83 C81 1.282 . S
C84 O85 1.306 . S
C84 O87 1.160 . S
O85 C84 1.306 . S
O85 Cd86 2.228 . S
Cd86 O85 2.228 . S
Cd86 O90 2.273 . S
Cd86 O94 2.277 . S
O87 C84 1.160 . S
O87 Cd88 2.203 . S
Cd88 O87 2.203 . S
Cd88 O90 2.411 . S
Cd88 O91 2.333 . S
Cd88 O92 2.352 . S
Cd88 O96 2.277 . S
Cd88 O97 2.356 . S
C89 O94 1.209 . S
C89 O96 1.226 . S
O90 Cd86 2.273 . S
O90 Cd88 2.411 . S
O90 C93 1.320 . S
O91 Cd88 2.333 . S
O91 C93 1.214 . S
O92 Cd88 2.352 . S
O92 C95 1.258 . S
C93 O90 1.320 . S
C93 O91 1.214 . S
O94 Cd86 2.277 . S
O94 C89 1.209 . S
C95 O92 1.258 . S
C95 O97 1.282 . S
O96 Cd88 2.277 . S
O96 C89 1.226 . S
O97 Cd88 2.356 . S
O97 C95 1.282 . S
C98 O99 1.306 . S
C98 O101 1.160 . S
O99 C98 1.306 . S
O99 Cd100 2.228 1_455 S
Cd100 O99 2.228 1_655 S
Cd100 O104 2.273 1_655 S
Cd100 O108 2.277 1_655 S
O101 C98 1.160 . S
O101 Cd102 2.203 . S
Cd102 O101 2.203 . S
Cd102 O104 2.411 . S
Cd102 O105 2.333 . S
Cd102 O106 2.352 . S
Cd102 O110 2.277 . S
Cd102 O111 2.356 . S
C103 O108 1.209 . S
C103 O110 1.226 . S
O104 Cd100 2.273 1_455 S
O104 Cd102 2.411 . S
O104 C107 1.320 . S
O105 Cd102 2.333 . S
O105 C107 1.214 . S
O106 Cd102 2.352 . S
O106 C109 1.258 . S
C107 O104 1.320 . S
C107 O105 1.214 . S
O108 Cd100 2.277 1_455 S
O108 C103 1.209 . S
C109 O106 1.258 . S
C109 O111 1.282 . S
O110 Cd102 2.277 . S
O110 C103 1.226 . S
O111 Cd102 2.356 . S
O111 C109 1.282 . S
C112 O113 1.306 . S
C112 O115 1.160 . S
O113 C112 1.306 . S
O113 Cd114 2.228 . S
Cd114 O113 2.228 . S
Cd114 O118 2.273 . S
Cd114 O122 2.277 . S
O115 C112 1.160 . S
O115 Cd116 2.203 . S
Cd116 O115 2.203 . S
Cd116 O118 2.411 . S
Cd116 O119 2.333 . S
Cd116 O120 2.352 . S
Cd116 O124 2.277 . S
Cd116 O125 2.356 . S
C117 O122 1.209 . S
C117 O124 1.226 . S
O118 Cd114 2.273 . S
O118 Cd116 2.411 . S
O118 C121 1.320 . S
O119 Cd116 2.333 . S
O119 C121 1.214 . S
O120 Cd116 2.352 . S
O120 C123 1.258 . S
C121 O118 1.320 . S
C121 O119 1.214 . S
O122 Cd114 2.277 . S
O122 C117 1.209 . S
C123 O120 1.258 . S
C123 O125 1.282 . S
O124 Cd116 2.277 . S
O124 C117 1.226 . S
O125 Cd116 2.356 . S
O125 C123 1.282 . S
C126 O127 1.306 . S
C126 O129 1.160 . S
O127 C126 1.306 . S
O127 Cd128 2.228 1_655 S
Cd128 O127 2.228 1_455 S
Cd128 O132 2.273 1_455 S
Cd128 O136 2.277 1_455 S
O129 C126 1.160 . S
O129 Cd130 2.203 . S
Cd130 O129 2.203 . S
Cd130 O132 2.411 . S
Cd130 O133 2.333 . S
Cd130 O134 2.352 . S
Cd130 O138 2.277 . S
Cd130 O139 2.356 . S
C131 O136 1.209 . S
C131 O138 1.226 . S
O132 Cd128 2.273 1_655 S
O132 Cd130 2.411 . S
O132 C135 1.320 . S
O133 Cd130 2.333 . S
O133 C135 1.214 . S
O134 Cd130 2.352 . S
O134 C137 1.258 . S
C135 O132 1.320 . S
C135 O133 1.214 . S
O136 Cd128 2.277 1_655 S
O136 C131 1.209 . S
C137 O134 1.258 . S
C137 O139 1.282 . S
O138 Cd130 2.277 . S
O138 C131 1.226 . S
O139 Cd130 2.356 . S
O139 C137 1.282 . S
C140 O141 1.306 . S
C140 O143 1.160 . S
O141 C140 1.306 . S
O141 Cd142 2.228 1_455 S
Cd142 O141 2.228 1_655 S
Cd142 O146 2.273 1_655 S
Cd142 O150 2.277 1_655 S
O143 C140 1.160 . S
O143 Cd144 2.203 . S
Cd144 O143 2.203 . S
Cd144 O146 2.411 . S
Cd144 O147 2.333 . S
Cd144 O148 2.352 . S
Cd144 O152 2.277 . S
Cd144 O153 2.356 . S
C145 O150 1.209 . S
C145 O152 1.226 . S
O146 Cd142 2.273 1_455 S
O146 Cd144 2.411 . S
O146 C149 1.320 . S
O147 Cd144 2.333 . S
O147 C149 1.214 . S
O148 Cd144 2.352 . S
O148 C151 1.258 . S
C149 O146 1.320 . S
C149 O147 1.214 . S
O150 Cd142 2.277 1_455 S
O150 C145 1.209 . S
C151 O148 1.258 . S
C151 O153 1.282 . S
O152 Cd144 2.277 . S
O152 C145 1.226 . S
O153 Cd144 2.356 . S
O153 C151 1.282 . S
C154 O155 1.306 . S
C154 O157 1.160 . S
O155 C154 1.306 . S
O155 Cd156 2.228 . S
Cd156 O155 2.228 . S
Cd156 O160 2.273 . S
Cd156 O164 2.277 . S
O157 C154 1.160 . S
O157 Cd158 2.203 . S
Cd158 O157 2.203 . S
Cd158 O160 2.411 . S
Cd158 O161 2.333 . S
Cd158 O162 2.352 . S
Cd158 O166 2.277 . S
Cd158 O167 2.356 . S
C159 O164 1.209 . S
C159 O166 1.226 . S
O160 Cd156 2.273 . S
O160 Cd158 2.411 . S
O160 C163 1.320 . S
O161 Cd158 2.333 . S
O161 C163 1.214 . S
O162 Cd158 2.352 . S
O162 C165 1.258 . S
C163 O160 1.320 . S
C163 O161 1.214 . S
O164 Cd156 2.277 . S
O164 C159 1.209 . S
C165 O162 1.258 . S
C165 O167 1.282 . S
O166 Cd158 2.277 . S
O166 C159 1.226 . S
O167 Cd158 2.356 . S
O167 C165 1.282 . S
C168 O169 1.306 . S
C168 O171 1.160 . S
O169 C168 1.306 . S
O169 Cd170 2.228 . S
Cd170 O169 2.228 . S
Cd170 O174 2.273 . S
Cd170 O178 2.277 . S
O171 C168 1.160 . S
O171 Cd172 2.203 . S
Cd172 O171 2.203 . S
Cd172 O174 2.411 . S
Cd172 O175 2.333 . S
Cd172 O176 2.352 . S
Cd172 O180 2.277 . S
Cd172 O181 2.356 . S
C173 O178 1.209 . S
C173 O180 1.226 . S
O174 Cd170 2.273 . S
O174 Cd172 2.411 . S
O174 C177 1.320 . S
O175 Cd172 2.333 . S
O175 C177 1.214 . S
O176 Cd172 2.352 . S
O176 C179 1.258 . S
C177 O174 1.320 . S
C177 O175 1.214 . S
O178 Cd170 2.277 . S
O178 C173 1.209 . S
C179 O176 1.258 . S
C179 O181 1.282 . S
O180 Cd172 2.277 . S
O180 C173 1.226 . S
O181 Cd172 2.356 . S
O181 C179 1.282 . S
C182 O183 1.306 . S
C182 O185 1.160 . S
O183 C182 1.306 . S
O183 Cd184 2.228 1_455 S
Cd184 O183 2.228 1_655 S
Cd184 O188 2.273 1_655 S
Cd184 O192 2.277 1_655 S
O185 C182 1.160 . S
O185 Cd186 2.203 . S
Cd186 O185 2.203 . S
Cd186 O188 2.411 . S
Cd186 O189 2.333 . S
Cd186 O190 2.352 . S
Cd186 O194 2.277 . S
Cd186 O195 2.356 . S
C187 O192 1.209 . S
C187 O194 1.226 . S
O188 Cd184 2.273 1_455 S
O188 Cd186 2.411 . S
O188 C191 1.320 . S
O189 Cd186 2.333 . S
O189 C191 1.214 . S
O190 Cd186 2.352 . S
O190 C193 1.258 . S
C191 O188 1.320 . S
C191 O189 1.214 . S
O192 Cd184 2.277 1_455 S
O192 C187 1.209 . S
C193 O190 1.258 . S
C193 O195 1.282 . S
O194 Cd186 2.277 . S
O194 C187 1.226 . S
O195 Cd186 2.356 . S
O195 C193 1.282 . S
C196 O197 1.306 . S
C196 O199 1.160 . S
O197 C196 1.306 . S
O197 Cd198 2.228 1_655 S
Cd198 O197 2.228 1_455 S
Cd198 O202 2.273 1_455 S
Cd198 O206 2.277 1_455 S
O199 C196 1.160 . S
O199 Cd200 2.203 . S
Cd200 O199 2.203 . S
Cd200 O202 2.411 . S
Cd200 O203 2.333 . S
Cd200 O204 2.352 . S
Cd200 O208 2.277 . S
Cd200 O209 2.356 . S
C201 O206 1.209 . S
C201 O208 1.226 . S
O202 Cd198 2.273 1_655 S
O202 Cd200 2.411 . S
O202 C205 1.320 . S
O203 Cd200 2.333 . S
O203 C205 1.214 . S
O204 Cd200 2.352 . S
O204 C207 1.258 . S
C205 O202 1.320 . S
C205 O203 1.214 . S
O206 Cd198 2.277 1_655 S
O206 C201 1.209 . S
C207 O204 1.258 . S
C207 O209 1.282 . S
O208 Cd200 2.277 . S
O208 C201 1.226 . S
O209 Cd200 2.356 . S
O209 C207 1.282 . S
C210 O211 1.306 . S
C210 O213 1.160 . S
O211 C210 1.306 . S
O211 Cd212 2.228 . S
Cd212 O211 2.228 . S
Cd212 O216 2.273 . S
Cd212 O220 2.277 . S
O213 C210 1.160 . S
O213 Cd214 2.203 . S
Cd214 O213 2.203 . S
Cd214 O216 2.411 . S
Cd214 O217 2.333 . S
Cd214 O218 2.352 . S
Cd214 O222 2.277 . S
Cd214 O223 2.356 . S
C215 O220 1.209 . S
C215 O222 1.226 . S
O216 Cd212 2.273 . S
O216 Cd214 2.411 . S
O216 C219 1.320 . S
O217 Cd214 2.333 . S
O217 C219 1.214 . S
O218 Cd214 2.352 . S
O218 C221 1.258 . S
C219 O216 1.320 . S
C219 O217 1.214 . S
O220 Cd212 2.277 . S
O220 C215 1.209 . S
C221 O218 1.258 . S
C221 O223 1.282 . S
O222 Cd214 2.277 . S
O222 C215 1.226 . S
O223 Cd214 2.356 . S
O223 C221 1.282 . S
H224 C232 0.950 . S
H225 C237 0.950 . S
H226 C234 0.950 . S
H227 C236 0.950 . S
H228 C238 0.950 . S
H229 C240 0.950 . S
H230 C242 0.950 . S
H231 C243 0.950 . S
C232 H224 0.950 . S
C232 C233 1.386 . S
C232 C234 1.391 . S
C233 C232 1.386 . S
C233 C237 1.393 1_565 S
C234 H226 0.950 . S
C234 C232 1.391 . S
C234 C235 1.400 . S
C235 C234 1.400 . S
C235 C236 1.398 1_565 S
C235 C241 1.491 1_565 S
C236 H227 0.950 . S
C236 C235 1.398 1_545 S
C236 C237 1.391 . S
C237 H225 0.950 . S
C237 C233 1.393 1_545 S
C237 C236 1.391 . S
C238 H228 0.950 . S
C238 C239 1.386 . S
C238 C240 1.391 . S
C239 C238 1.386 . S
C239 C243 1.393 1_545 S
C240 H229 0.950 . S
C240 C238 1.391 . S
C240 C241 1.400 . S
C241 C235 1.491 1_545 S
C241 C240 1.400 . S
C241 C242 1.398 1_545 S
C242 H230 0.950 . S
C242 C241 1.398 1_565 S
C242 C243 1.391 . S
C243 H231 0.950 . S
C243 C239 1.393 1_565 S
C243 C242 1.391 . S
H244 C252 0.950 . S
H245 C257 0.950 . S
H246 C254 0.950 . S
H247 C256 0.950 . S
H248 C258 0.950 . S
H249 C260 0.950 . S
H250 C262 0.950 . S
H251 C263 0.950 . S
C252 H244 0.950 . S
C252 C253 1.386 1_545 S
C252 C254 1.391 . S
C253 C252 1.386 1_565 S
C253 C257 1.393 . S
C254 H246 0.950 . S
C254 C252 1.391 . S
C254 C255 1.400 1_545 S
C255 C254 1.400 1_565 S
C255 C256 1.398 . S
C255 C261 1.491 1_565 S
C256 H247 0.950 . S
C256 C255 1.398 . S
C256 C257 1.391 . S
C257 H245 0.950 . S
C257 C253 1.393 . S
C257 C256 1.391 . S
C258 H248 0.950 . S
C258 C259 1.386 1_565 S
C258 C260 1.391 . S
C259 C258 1.386 1_545 S
C259 C263 1.393 . S
C260 H249 0.950 . S
C260 C258 1.391 . S
C260 C261 1.400 1_565 S
C261 C255 1.491 1_545 S
C261 C260 1.400 1_545 S
C261 C262 1.398 . S
C262 H250 0.950 . S
C262 C261 1.398 . S
C262 C263 1.391 . S
C263 H251 0.950 . S
C263 C259 1.393 . S
C263 C262 1.391 . S
H264 C272 0.950 . S
H265 C277 0.950 . S
H266 C274 0.950 . S
H267 C276 0.950 . S
H268 C278 0.950 . S
H269 C280 0.950 . S
H270 C282 0.950 . S
H271 C283 0.950 . S
C272 H264 0.950 . S
C272 C273 1.386 1_545 S
C272 C274 1.391 . S
C273 C272 1.386 1_565 S
C273 C277 1.393 . S
C274 H266 0.950 . S
C274 C272 1.391 . S
C274 C275 1.400 1_545 S
C275 C274 1.400 1_565 S
C275 C276 1.398 . S
C275 C281 1.491 1_565 S
C276 H267 0.950 . S
C276 C275 1.398 . S
C276 C277 1.391 . S
C277 H265 0.950 . S
C277 C273 1.393 . S
C277 C276 1.391 . S
C278 H268 0.950 . S
C278 C279 1.386 1_565 S
C278 C280 1.391 . S
C279 C278 1.386 1_545 S
C279 C283 1.393 . S
C280 H269 0.950 . S
C280 C278 1.391 . S
C280 C281 1.400 1_565 S
C281 C275 1.491 1_545 S
C281 C280 1.400 1_545 S
C281 C282 1.398 . S
C282 H270 0.950 . S
C282 C281 1.398 . S
C282 C283 1.391 . S
C283 H271 0.950 . S
C283 C279 1.393 . S
C283 C282 1.391 . S
H284 C292 0.950 . S
H285 C297 0.950 . S
H286 C294 0.950 . S
H287 C296 0.950 . S
H288 C298 0.950 . S
H289 C300 0.950 . S
H290 C302 0.950 . S
H291 C303 0.950 . S
C292 H284 0.950 . S
C292 C293 1.386 . S
C292 C294 1.391 . S
C293 C292 1.386 . S
C293 C297 1.393 1_565 S
C294 H286 0.950 . S
C294 C292 1.391 . S
C294 C295 1.400 . S
C295 C294 1.400 . S
C295 C296 1.398 1_565 S
C295 C301 1.491 1_565 S
C296 H287 0.950 . S
C296 C295 1.398 1_545 S
C296 C297 1.391 . S
C297 H285 0.950 . S
C297 C293 1.393 1_545 S
C297 C296 1.391 . S
C298 H288 0.950 . S
C298 C299 1.386 . S
C298 C300 1.391 . S
C299 C298 1.386 . S
C299 C303 1.393 1_545 S
C300 H289 0.950 . S
C300 C298 1.391 . S
C300 C301 1.400 . S
C301 C295 1.491 1_545 S
C301 C300 1.400 . S
C301 C302 1.398 1_545 S
C302 H290 0.950 . S
C302 C301 1.398 1_565 S
C302 C303 1.391 . S
C303 H291 0.950 . S
C303 C299 1.393 1_565 S
C303 C302 1.391 . S
H304 C312 0.950 . S
H305 C317 0.950 . S
H306 C314 0.950 . S
H307 C316 0.950 . S
H308 C318 0.950 . S
H309 C320 0.950 . S
H310 C322 0.950 . S
H311 C323 0.950 . S
C312 H304 0.950 . S
C312 C313 1.386 . S
C312 C314 1.391 . S
C313 C312 1.386 . S
C313 C317 1.393 . S
C314 H306 0.950 . S
C314 C312 1.391 . S
C314 C315 1.400 . S
C315 C314 1.400 . S
C315 C316 1.398 . S
C315 C321 1.491 . S
C316 H307 0.950 . S
C316 C315 1.398 . S
C316 C317 1.391 . S
C317 H305 0.950 . S
C317 C313 1.393 . S
C317 C316 1.391 . S
C318 H308 0.950 . S
C318 C319 1.386 . S
C318 C320 1.391 . S
C319 C318 1.386 . S
C319 C323 1.393 . S
C320 H309 0.950 . S
C320 C318 1.391 . S
C320 C321 1.400 . S
C321 C315 1.491 . S
C321 C320 1.400 . S
C321 C322 1.398 . S
C322 H310 0.950 . S
C322 C321 1.398 . S
C322 C323 1.391 . S
C323 H311 0.950 . S
C323 C319 1.393 . S
C323 C322 1.391 . S
H324 C332 0.950 . S
H325 C337 0.950 . S
H326 C334 0.950 . S
H327 C336 0.950 . S
H328 C338 0.950 . S
H329 C340 0.950 . S
H330 C342 0.950 . S
H331 C343 0.950 . S
C332 H324 0.950 . S
C332 C333 1.386 . S
C332 C334 1.391 . S
C333 C332 1.386 . S
C333 C337 1.393 . S
C334 H326 0.950 . S
C334 C332 1.391 . S
C334 C335 1.400 . S
C335 C334 1.400 . S
C335 C336 1.398 . S
C335 C341 1.491 . S
C336 H327 0.950 . S
C336 C335 1.398 . S
C336 C337 1.391 . S
C337 H325 0.950 . S
C337 C333 1.393 . S
C337 C336 1.391 . S
C338 H328 0.950 . S
C338 C339 1.386 . S
C338 C340 1.391 . S
C339 C338 1.386 . S
C339 C343 1.393 . S
C340 H329 0.950 . S
C340 C338 1.391 . S
C340 C341 1.400 . S
C341 C335 1.491 . S
C341 C340 1.400 . S
C341 C342 1.398 . S
C342 H330 0.950 . S
C342 C341 1.398 . S
C342 C343 1.391 . S
C343 H331 0.950 . S
C343 C339 1.393 . S
C343 C342 1.391 . S
H344 C352 0.950 . S
H345 C357 0.950 . S
H346 C354 0.950 . S
H347 C356 0.950 . S
H348 C358 0.950 . S
H349 C360 0.950 . S
H350 C362 0.950 . S
H351 C363 0.950 . S
C352 H344 0.950 . S
C352 C353 1.386 . S
C352 C354 1.391 . S
C353 C352 1.386 . S
C353 C357 1.393 . S
C354 H346 0.950 . S
C354 C352 1.391 . S
C354 C355 1.400 . S
C355 C354 1.400 . S
C355 C356 1.398 . S
C355 C361 1.491 . S
C356 H347 0.950 . S
C356 C355 1.398 . S
C356 C357 1.391 . S
C357 H345 0.950 . S
C357 C353 1.393 . S
C357 C356 1.391 . S
C358 H348 0.950 . S
C358 C359 1.386 . S
C358 C360 1.391 . S
C359 C358 1.386 . S
C359 C363 1.393 . S
C360 H349 0.950 . S
C360 C358 1.391 . S
C360 C361 1.400 . S
C361 C355 1.491 . S
C361 C360 1.400 . S
C361 C362 1.398 . S
C362 H350 0.950 . S
C362 C361 1.398 . S
C362 C363 1.391 . S
C363 H351 0.950 . S
C363 C359 1.393 . S
C363 C362 1.391 . S
H364 C372 0.950 . S
H365 C377 0.950 . S
H366 C374 0.950 . S
H367 C376 0.950 . S
H368 C378 0.950 . S
H369 C380 0.950 . S
H370 C382 0.950 . S
H371 C383 0.950 . S
C372 H364 0.950 . S
C372 C373 1.386 . S
C372 C374 1.391 . S
C373 C372 1.386 . S
C373 C377 1.393 . S
C374 H366 0.950 . S
C374 C372 1.391 . S
C374 C375 1.400 . S
C375 C374 1.400 . S
C375 C376 1.398 . S
C375 C381 1.491 . S
C376 H367 0.950 . S
C376 C375 1.398 . S
C376 C377 1.391 . S
C377 H365 0.950 . S
C377 C373 1.393 . S
C377 C376 1.391 . S
C378 H368 0.950 . S
C378 C379 1.386 . S
C378 C380 1.391 . S
C379 C378 1.386 . S
C379 C383 1.393 . S
C380 H369 0.950 . S
C380 C378 1.391 . S
C380 C381 1.400 . S
C381 C375 1.491 . S
C381 C380 1.400 . S
C381 C382 1.398 . S
C382 H370 0.950 . S
C382 C381 1.398 . S
C382 C383 1.391 . S
C383 H371 0.950 . S
C383 C379 1.393 . S
C383 C382 1.391 . S
H384 C392 0.950 . S
H385 C397 0.950 . S
H386 C394 0.950 . S
H387 C396 0.950 . S
H388 C398 0.950 . S
H389 C400 0.950 . S
H390 C402 0.950 . S
H391 C403 0.950 . S
C392 H384 0.950 . S
C392 C393 1.386 . S
C392 C394 1.391 . S
C393 C392 1.386 . S
C393 C397 1.393 1_655 S
C394 H386 0.950 . S
C394 C392 1.391 . S
C394 C395 1.400 . S
C395 C394 1.400 . S
C395 C396 1.398 1_655 S
C395 C401 1.491 1_655 S
C396 H387 0.950 . S
C396 C395 1.398 1_455 S
C396 C397 1.391 . S
C397 H385 0.950 . S
C397 C393 1.393 1_455 S
C397 C396 1.391 . S
C398 H388 0.950 . S
C398 C399 1.386 . S
C398 C400 1.391 . S
C399 C398 1.386 . S
C399 C403 1.393 1_455 S
C400 H389 0.950 . S
C400 C398 1.391 . S
C400 C401 1.400 . S
C401 C395 1.491 1_455 S
C401 C400 1.400 . S
C401 C402 1.398 1_455 S
C402 H390 0.950 . S
C402 C401 1.398 1_655 S
C402 C403 1.391 . S
C403 H391 0.950 . S
C403 C399 1.393 1_655 S
C403 C402 1.391 . S
H404 C412 0.950 . S
H405 C417 0.950 . S
H406 C414 0.950 . S
H407 C416 0.950 . S
H408 C418 0.950 . S
H409 C420 0.950 . S
H410 C422 0.950 . S
H411 C423 0.950 . S
C412 H404 0.950 . S
C412 C413 1.386 . S
C412 C414 1.391 . S
C413 C412 1.386 . S
C413 C417 1.393 . S
C414 H406 0.950 . S
C414 C412 1.391 . S
C414 C415 1.400 . S
C415 C414 1.400 . S
C415 C416 1.398 . S
C415 C421 1.491 . S
C416 H407 0.950 . S
C416 C415 1.398 . S
C416 C417 1.391 . S
C417 H405 0.950 . S
C417 C413 1.393 . S
C417 C416 1.391 . S
C418 H408 0.950 . S
C418 C419 1.386 . S
C418 C420 1.391 . S
C419 C418 1.386 . S
C419 C423 1.393 . S
C420 H409 0.950 . S
C420 C418 1.391 . S
C420 C421 1.400 . S
C421 C415 1.491 . S
C421 C420 1.400 . S
C421 C422 1.398 . S
C422 H410 0.950 . S
C422 C421 1.398 . S
C422 C423 1.391 . S
C423 H411 0.950 . S
C423 C419 1.393 . S
C423 C422 1.391 . S
H424 C432 0.950 . S
H425 C437 0.950 . S
H426 C434 0.950 . S
H427 C436 0.950 . S
H428 C438 0.950 . S
H429 C440 0.950 . S
H430 C442 0.950 . S
H431 C443 0.950 . S
C432 H424 0.950 . S
C432 C433 1.386 . S
C432 C434 1.391 . S
C433 C432 1.386 . S
C433 C437 1.393 1_455 S
C434 H426 0.950 . S
C434 C432 1.391 . S
C434 C435 1.400 . S
C435 C434 1.400 . S
C435 C436 1.398 1_455 S
C435 C441 1.491 1_455 S
C436 H427 0.950 . S
C436 C435 1.398 1_655 S
C436 C437 1.391 . S
C437 H425 0.950 . S
C437 C433 1.393 1_655 S
C437 C436 1.391 . S
C438 H428 0.950 . S
C438 C439 1.386 . S
C438 C440 1.391 . S
C439 C438 1.386 . S
C439 C443 1.393 1_655 S
C440 H429 0.950 . S
C440 C438 1.391 . S
C440 C441 1.400 . S
C441 C435 1.491 1_655 S
C441 C440 1.400 . S
C441 C442 1.398 1_655 S
C442 H430 0.950 . S
C442 C441 1.398 1_455 S
C442 C443 1.391 . S
C443 H431 0.950 . S
C443 C439 1.393 1_455 S
C443 C442 1.391 . S
H444 C452 0.950 . S
H445 C457 0.950 . S
H446 C454 0.950 . S
H447 C456 0.950 . S
H448 C458 0.950 . S
H449 C460 0.950 . S
H450 C462 0.950 . S
H451 C463 0.950 . S
C452 H444 0.950 . S
C452 C453 1.386 . S
C452 C454 1.391 . S
C453 C452 1.386 . S
C453 C457 1.393 . S
C454 H446 0.950 . S
C454 C452 1.391 . S
C454 C455 1.400 . S
C455 C454 1.400 . S
C455 C456 1.398 . S
C455 C461 1.491 . S
C456 H447 0.950 . S
C456 C455 1.398 . S
C456 C457 1.391 . S
C457 H445 0.950 . S
C457 C453 1.393 . S
C457 C456 1.391 . S
C458 H448 0.950 . S
C458 C459 1.386 . S
C458 C460 1.391 . S
C459 C458 1.386 . S
C459 C463 1.393 . S
C460 H449 0.950 . S
C460 C458 1.391 . S
C460 C461 1.400 . S
C461 C455 1.491 . S
C461 C460 1.400 . S
C461 C462 1.398 . S
C462 H450 0.950 . S
C462 C461 1.398 . S
C462 C463 1.391 . S
C463 H451 0.950 . S
C463 C459 1.393 . S
C463 C462 1.391 . S
H464 C472 0.950 . S
H465 C477 0.950 . S
H466 C474 0.950 . S
H467 C476 0.950 . S
H468 C478 0.950 . S
H469 C480 0.950 . S
H470 C482 0.950 . S
H471 C483 0.950 . S
C472 H464 0.950 . S
C472 C473 1.386 . S
C472 C474 1.391 . S
C473 C472 1.386 . S
C473 C477 1.393 . S
C474 H466 0.950 . S
C474 C472 1.391 . S
C474 C475 1.400 . S
C475 C474 1.400 . S
C475 C476 1.398 . S
C475 C481 1.491 . S
C476 H467 0.950 . S
C476 C475 1.398 . S
C476 C477 1.391 . S
C477 H465 0.950 . S
C477 C473 1.393 . S
C477 C476 1.391 . S
C478 H468 0.950 . S
C478 C479 1.386 . S
C478 C480 1.391 . S
C479 C478 1.386 . S
C479 C483 1.393 . S
C480 H469 0.950 . S
C480 C478 1.391 . S
C480 C481 1.400 . S
C481 C475 1.491 . S
C481 C480 1.400 . S
C481 C482 1.398 . S
C482 H470 0.950 . S
C482 C481 1.398 . S
C482 C483 1.391 . S
C483 H471 0.950 . S
C483 C479 1.393 . S
C483 C482 1.391 . S
H484 C492 0.950 . S
H485 C497 0.950 . S
H486 C494 0.950 . S
H487 C496 0.950 . S
H488 C498 0.950 . S
H489 C500 0.950 . S
H490 C502 0.950 . S
H491 C503 0.950 . S
C492 H484 0.950 . S
C492 C493 1.386 1_655 S
C492 C494 1.391 . S
C493 C492 1.386 1_455 S
C493 C497 1.393 . S
C494 H486 0.950 . S
C494 C492 1.391 . S
C494 C495 1.400 1_655 S
C495 C494 1.400 1_455 S
C495 C496 1.398 . S
C495 C501 1.491 1_455 S
C496 H487 0.950 . S
C496 C495 1.398 . S
C496 C497 1.391 . S
C497 H485 0.950 . S
C497 C493 1.393 . S
C497 C496 1.391 . S
C498 H488 0.950 . S
C498 C499 1.386 1_455 S
C498 C500 1.391 . S
C499 C498 1.386 1_655 S
C499 C503 1.393 . S
C500 H489 0.950 . S
C500 C498 1.391 . S
C500 C501 1.400 1_455 S
C501 C495 1.491 1_655 S
C501 C500 1.400 1_655 S
C501 C502 1.398 . S
C502 H490 0.950 . S
C502 C501 1.398 . S
C502 C503 1.391 . S
C503 H491 0.950 . S
C503 C499 1.393 . S
C503 C502 1.391 . S
H504 C512 0.950 . S
H505 C517 0.950 . S
H506 C514 0.950 . S
H507 C516 0.950 . S
H508 C518 0.950 . S
H509 C520 0.950 . S
H510 C522 0.950 . S
H511 C523 0.950 . S
C512 H504 0.950 . S
C512 C513 1.386 . S
C512 C514 1.391 . S
C513 C512 1.386 . S
C513 C517 1.393 . S
C514 H506 0.950 . S
C514 C512 1.391 . S
C514 C515 1.400 . S
C515 C514 1.400 . S
C515 C516 1.398 . S
C515 C521 1.491 . S
C516 H507 0.950 . S
C516 C515 1.398 . S
C516 C517 1.391 . S
C517 H505 0.950 . S
C517 C513 1.393 . S
C517 C516 1.391 . S
C518 H508 0.950 . S
C518 C519 1.386 . S
C518 C520 1.391 . S
C519 C518 1.386 . S
C519 C523 1.393 . S
C520 H509 0.950 . S
C520 C518 1.391 . S
C520 C521 1.400 . S
C521 C515 1.491 . S
C521 C520 1.400 . S
C521 C522 1.398 . S
C522 H510 0.950 . S
C522 C521 1.398 . S
C522 C523 1.391 . S
C523 H511 0.950 . S
C523 C519 1.393 . S
C523 C522 1.391 . S
H524 C532 0.950 . S
H525 C537 0.950 . S
H526 C534 0.950 . S
H527 C536 0.950 . S
H528 C538 0.950 . S
H529 C540 0.950 . S
H530 C542 0.950 . S
H531 C543 0.950 . S
C532 H524 0.950 . S
C532 C533 1.386 . S
C532 C534 1.391 . S
C533 C532 1.386 . S
C533 C537 1.393 1_455 S
C534 H526 0.950 . S
C534 C532 1.391 . S
C534 C535 1.400 . S
C535 C534 1.400 . S
C535 C536 1.398 1_455 S
C535 C541 1.491 1_455 S
C536 H527 0.950 . S
C536 C535 1.398 1_655 S
C536 C537 1.391 . S
C537 H525 0.950 . S
C537 C533 1.393 1_655 S
C537 C536 1.391 . S
C538 H528 0.950 . S
C538 C539 1.386 . S
C538 C540 1.391 . S
C539 C538 1.386 . S
C539 C543 1.393 1_655 S
C540 H529 0.950 . S
C540 C538 1.391 . S
C540 C541 1.400 . S
C541 C535 1.491 1_655 S
C541 C540 1.400 . S
C541 C542 1.398 1_655 S
C542 H530 0.950 . S
C542 C541 1.398 1_455 S
C542 C543 1.391 . S
C543 H531 0.950 . S
C543 C539 1.393 1_455 S
C543 C542 1.391 . S
H544 C552 0.950 1_655 S
H545 C557 0.950 . S
H546 C554 0.950 . S
H547 C556 0.950 . S
H548 C558 0.950 1_455 S
H549 C560 0.950 . S
H550 C562 0.950 . S
H551 C563 0.950 . S
C552 H544 0.950 1_455 S
C552 C553 1.386 . S
C552 C554 1.391 1_455 S
C553 C552 1.386 . S
C553 C557 1.393 . S
C554 H546 0.950 . S
C554 C552 1.391 1_655 S
C554 C555 1.400 1_655 S
C555 C554 1.400 1_455 S
C555 C556 1.398 . S
C555 C561 1.491 1_455 S
C556 H547 0.950 . S
C556 C555 1.398 . S
C556 C557 1.391 . S
C557 H545 0.950 . S
C557 C553 1.393 . S
C557 C556 1.391 . S
C558 H548 0.950 1_655 S
C558 C559 1.386 . S
C558 C560 1.391 1_655 S
C559 C558 1.386 . S
C559 C563 1.393 . S
C560 H549 0.950 . S
C560 C558 1.391 1_455 S
C560 C561 1.400 1_455 S
C561 C555 1.491 1_655 S
C561 C560 1.400 1_655 S
C561 C562 1.398 . S
C562 H550 0.950 . S
C562 C561 1.398 . S
C562 C563 1.391 . S
C563 H551 0.950 . S
C563 C559 1.393 . S
C563 C562 1.391 . S
H564 C572 0.950 . S
H565 C577 0.950 . S
H566 C574 0.950 . S
H567 C576 0.950 . S
H568 C578 0.950 . S
H569 C580 0.950 . S
H570 C582 0.950 . S
H571 C583 0.950 . S
C572 H564 0.950 . S
C572 C573 1.386 . S
C572 C574 1.391 . S
C573 C572 1.386 . S
C573 C577 1.393 . S
C574 H566 0.950 . S
C574 C572 1.391 . S
C574 C575 1.400 . S
C575 C574 1.400 . S
C575 C576 1.398 . S
C575 C581 1.491 . S
C576 H567 0.950 . S
C576 C575 1.398 . S
C576 C577 1.391 . S
C577 H565 0.950 . S
C577 C573 1.393 . S
C577 C576 1.391 . S
C578 H568 0.950 . S
C578 C579 1.386 . S
C578 C580 1.391 . S
C579 C578 1.386 . S
C579 C583 1.393 . S
C580 H569 0.950 . S
C580 C578 1.391 . S
C580 C581 1.400 . S
C581 C575 1.491 . S
C581 C580 1.400 . S
C581 C582 1.398 . S
C582 H570 0.950 . S
C582 C581 1.398 . S
C582 C583 1.391 . S
C583 H571 0.950 . S
C583 C579 1.393 . S
C583 C582 1.391 . S
H584 C592 0.950 . S
H585 C597 0.950 . S
H586 C594 0.950 . S
H587 C596 0.950 . S
H588 C598 0.950 . S
H589 C600 0.950 . S
H590 C602 0.950 . S
H591 C603 0.950 . S
C592 H584 0.950 . S
C592 C593 1.386 . S
C592 C594 1.391 . S
C593 C592 1.386 . S
C593 C597 1.393 . S
C594 H586 0.950 . S
C594 C592 1.391 . S
C594 C595 1.400 . S
C595 C594 1.400 . S
C595 C596 1.398 . S
C595 C601 1.491 . S
C596 H587 0.950 . S
C596 C595 1.398 . S
C596 C597 1.391 . S
C597 H585 0.950 . S
C597 C593 1.393 . S
C597 C596 1.391 . S
C598 H588 0.950 . S
C598 C599 1.386 . S
C598 C600 1.391 . S
C599 C598 1.386 . S
C599 C603 1.393 . S
C600 H589 0.950 . S
C600 C598 1.391 . S
C600 C601 1.400 . S
C601 C595 1.491 . S
C601 C600 1.400 . S
C601 C602 1.398 . S
C602 H590 0.950 . S
C602 C601 1.398 . S
C602 C603 1.391 . S
C603 H591 0.950 . S
C603 C599 1.393 . S
C603 C602 1.391 . S
H604 C612 0.950 . S
H605 C617 0.950 . S
H606 C614 0.950 . S
H607 C616 0.950 . S
H608 C618 0.950 . S
H609 C620 0.950 . S
H610 C622 0.950 . S
H611 C623 0.950 . S
C612 H604 0.950 . S
C612 C613 1.386 . S
C612 C614 1.391 . S
C613 C612 1.386 . S
C613 C617 1.393 1_455 S
C614 H606 0.950 . S
C614 C612 1.391 . S
C614 C615 1.400 . S
C615 C614 1.400 . S
C615 C616 1.398 1_455 S
C615 C621 1.491 1_455 S
C616 H607 0.950 . S
C616 C615 1.398 1_655 S
C616 C617 1.391 . S
C617 H605 0.950 . S
C617 C613 1.393 1_655 S
C617 C616 1.391 . S
C618 H608 0.950 . S
C618 C619 1.386 . S
C618 C620 1.391 . S
C619 C618 1.386 . S
C619 C623 1.393 1_655 S
C620 H609 0.950 . S
C620 C618 1.391 . S
C620 C621 1.400 . S
C621 C615 1.491 1_655 S
C621 C620 1.400 . S
C621 C622 1.398 1_655 S
C622 H610 0.950 . S
C622 C621 1.398 1_455 S
C622 C623 1.391 . S
C623 H611 0.950 . S
C623 C619 1.393 1_455 S
C623 C622 1.391 . S
H624 C632 0.950 . S
H625 C637 0.950 . S
H626 C634 0.950 . S
H627 C636 0.950 . S
H628 C638 0.950 . S
H629 C640 0.950 . S
H630 C642 0.950 . S
H631 C643 0.950 . S
C632 H624 0.950 . S
C632 C633 1.386 1_655 S
C632 C634 1.391 . S
C633 C632 1.386 1_455 S
C633 C637 1.393 . S
C634 H626 0.950 . S
C634 C632 1.391 . S
C634 C635 1.400 1_655 S
C635 C634 1.400 1_455 S
C635 C636 1.398 . S
C635 C641 1.491 1_455 S
C636 H627 0.950 . S
C636 C635 1.398 . S
C636 C637 1.391 . S
C637 H625 0.950 . S
C637 C633 1.393 . S
C637 C636 1.391 . S
C638 H628 0.950 . S
C638 C639 1.386 1_455 S
C638 C640 1.391 . S
C639 C638 1.386 1_655 S
C639 C643 1.393 . S
C640 H629 0.950 . S
C640 C638 1.391 . S
C640 C641 1.400 1_455 S
C641 C635 1.491 1_655 S
C641 C640 1.400 1_655 S
C641 C642 1.398 . S
C642 H630 0.950 . S
C642 C641 1.398 . S
C642 C643 1.391 . S
C643 H631 0.950 . S
C643 C639 1.393 . S
C643 C642 1.391 . S
H644 C652 0.950 . S
H645 C657 0.950 . S
H646 C654 0.950 . S
H647 C656 0.950 . S
H648 C658 0.950 . S
H649 C660 0.950 . S
H650 C662 0.950 . S
H651 C663 0.950 . S
C652 H644 0.950 . S
C652 C653 1.386 . S
C652 C654 1.391 . S
C653 C652 1.386 . S
C653 C657 1.393 . S
C654 H646 0.950 . S
C654 C652 1.391 . S
C654 C655 1.400 . S
C655 C654 1.400 . S
C655 C656 1.398 . S
C655 C661 1.491 . S
C656 H647 0.950 . S
C656 C655 1.398 . S
C656 C657 1.391 . S
C657 H645 0.950 . S
C657 C653 1.393 . S
C657 C656 1.391 . S
C658 H648 0.950 . S
C658 C659 1.386 . S
C658 C660 1.391 . S
C659 C658 1.386 . S
C659 C663 1.393 . S
C660 H649 0.950 . S
C660 C658 1.391 . S
C660 C661 1.400 . S
C661 C655 1.491 . S
C661 C660 1.400 . S
C661 C662 1.398 . S
C662 H650 0.950 . S
C662 C661 1.398 . S
C662 C663 1.391 . S
C663 H651 0.950 . S
C663 C659 1.393 . S
C663 C662 1.391 . S
H664 C672 0.950 . S
H665 C677 0.950 . S
H666 C674 0.950 . S
H667 C676 0.950 . S
H668 C678 0.950 . S
H669 C680 0.950 . S
H670 C682 0.950 . S
H671 C683 0.950 . S
C672 H664 0.950 . S
C672 C673 1.386 . S
C672 C674 1.391 . S
C673 C672 1.386 . S
C673 C677 1.393 . S
C674 H666 0.950 . S
C674 C672 1.391 . S
C674 C675 1.400 . S
C675 C674 1.400 . S
C675 C676 1.398 . S
C675 C681 1.491 . S
C676 H667 0.950 . S
C676 C675 1.398 . S
C676 C677 1.391 . S
C677 H665 0.950 . S
C677 C673 1.393 . S
C677 C676 1.391 . S
C678 H668 0.950 . S
C678 C679 1.386 . S
C678 C680 1.391 . S
C679 C678 1.386 . S
C679 C683 1.393 . S
C680 H669 0.950 . S
C680 C678 1.391 . S
C680 C681 1.400 . S
C681 C675 1.491 . S
C681 C680 1.400 . S
C681 C682 1.398 . S
C682 H670 0.950 . S
C682 C681 1.398 . S
C682 C683 1.391 . S
C683 H671 0.950 . S
C683 C679 1.393 . S
C683 C682 1.391 . S
H684 C692 0.950 . S
H685 C697 0.950 . S
H686 C694 0.950 . S
H687 C696 0.950 . S
H688 C698 0.950 . S
H689 C700 0.950 . S
H690 C702 0.950 . S
H691 C703 0.950 . S
C692 H684 0.950 . S
C692 C693 1.386 . S
C692 C694 1.391 . S
C693 C692 1.386 . S
C693 C697 1.393 1_455 S
C694 H686 0.950 . S
C694 C692 1.391 . S
C694 C695 1.400 . S
C695 C694 1.400 . S
C695 C696 1.398 1_455 S
C695 C701 1.491 1_455 S
C696 H687 0.950 . S
C696 C695 1.398 1_655 S
C696 C697 1.391 . S
C697 H685 0.950 . S
C697 C693 1.393 1_655 S
C697 C696 1.391 . S
C698 H688 0.950 . S
C698 C699 1.386 . S
C698 C700 1.391 . S
C699 C698 1.386 . S
C699 C703 1.393 1_655 S
C700 H689 0.950 . S
C700 C698 1.391 . S
C700 C701 1.400 . S
C701 C695 1.491 1_655 S
C701 C700 1.400 . S
C701 C702 1.398 1_655 S
C702 H690 0.950 . S
C702 C701 1.398 1_455 S
C702 C703 1.391 . S
C703 H691 0.950 . S
C703 C699 1.393 1_455 S
C703 C702 1.391 . S
H704 C712 0.950 . S
H705 C717 0.950 . S
H706 C714 0.950 . S
H707 C716 0.943 1_545 S
H708 C718 0.950 . S
H709 C720 0.950 . S
H710 C722 0.943 1_565 S
H711 C723 0.950 . S
C712 H704 0.950 . S
C712 C713 1.386 1_455 S
C712 C714 1.391 . S
C713 C712 1.386 1_655 S
C713 C717 1.393 . S
C714 H706 0.950 . S
C714 C712 1.391 . S
C714 C715 1.400 1_455 S
C715 C714 1.400 1_655 S
C715 C716 1.400 . S
C715 C721 1.491 1_666 S
C716 H707 0.943 1_565 S
C716 C715 1.400 . S
C716 C717 1.395 . S
C717 H705 0.950 . S
C717 C713 1.393 . S
C717 C716 1.395 . S
C718 H708 0.950 . S
C718 C719 1.386 1_655 S
C718 C720 1.391 . S
C719 C718 1.386 1_455 S
C719 C723 1.393 . S
C720 H709 0.950 . S
C720 C718 1.391 . S
C720 C721 1.400 1_655 S
C721 C715 1.491 1_444 S
C721 C720 1.400 1_455 S
C721 C722 1.400 . S
C722 H710 0.943 1_545 S
C722 C721 1.400 . S
C722 C723 1.395 . S
C723 H711 0.950 . S
C723 C719 1.393 . S
C723 C722 1.395 . S
H724 C732 0.950 . S
H725 C737 0.950 . S
H726 C734 0.950 . S
H727 C736 0.950 . S
H728 C738 0.950 . S
H729 C740 0.950 . S
H730 C742 0.950 . S
H731 C743 0.950 . S
C732 H724 0.950 . S
C732 C733 1.386 . S
C732 C734 1.391 . S
C733 C732 1.386 . S
C733 C737 1.393 . S
C734 H726 0.950 . S
C734 C732 1.391 . S
C734 C735 1.400 . S
C735 C734 1.400 . S
C735 C736 1.398 . S
C735 C741 1.491 1_546 S
C736 H727 0.950 . S
C736 C735 1.398 . S
C736 C737 1.391 . S
C737 H725 0.950 . S
C737 C733 1.393 . S
C737 C736 1.391 . S
C738 H728 0.950 . S
C738 C739 1.386 . S
C738 C740 1.391 . S
C739 C738 1.386 . S
C739 C743 1.393 . S
C740 H729 0.950 . S
C740 C738 1.391 . S
C740 C741 1.400 . S
C741 C735 1.491 1_564 S
C741 C740 1.400 . S
C741 C742 1.398 . S
C742 H730 0.950 . S
C742 C741 1.398 . S
C742 C743 1.391 . S
C743 H731 0.950 . S
C743 C739 1.393 . S
C743 C742 1.391 . S
H744 C752 0.950 . S
H745 C757 0.950 . S
H746 C754 0.950 . S
H747 C756 0.950 . S
H748 C758 0.950 . S
H749 C760 0.950 . S
H750 C762 0.950 . S
H751 C763 0.950 . S
C752 H744 0.950 . S
C752 C753 1.386 . S
C752 C754 1.391 . S
C753 C752 1.386 . S
C753 C757 1.393 . S
C754 H746 0.950 . S
C754 C752 1.391 . S
C754 C755 1.400 . S
C755 C754 1.400 . S
C755 C756 1.398 . S
C755 C761 1.491 1_545 S
C756 H747 0.950 . S
C756 C755 1.398 . S
C756 C757 1.391 . S
C757 H745 0.950 . S
C757 C753 1.393 . S
C757 C756 1.391 . S
C758 H748 0.950 . S
C758 C759 1.386 . S
C758 C760 1.391 . S
C759 C758 1.386 . S
C759 C763 1.393 . S
C760 H749 0.950 . S
C760 C758 1.391 . S
C760 C761 1.400 . S
C761 C755 1.491 1_565 S
C761 C760 1.400 . S
C761 C762 1.398 . S
C762 H750 0.950 . S
C762 C761 1.398 . S
C762 C763 1.391 . S
C763 H751 0.950 . S
C763 C759 1.393 . S
C763 C762 1.391 . S
H764 C772 0.950 . S
H765 C777 0.950 . S
H766 C774 0.950 . S
H767 C776 0.950 . S
H768 C778 0.950 . S
H769 C780 0.950 . S
H770 C782 0.950 . S
H771 C783 0.950 . S
C772 H764 0.950 . S
C772 C773 1.386 1_655 S
C772 C774 1.391 . S
C773 C772 1.386 1_455 S
C773 C777 1.393 . S
C774 H766 0.950 . S
C774 C772 1.391 . S
C774 C775 1.400 1_655 S
C775 C774 1.400 1_455 S
C775 C776 1.398 . S
C775 C781 1.491 1_465 S
C776 H767 0.950 . S
C776 C775 1.398 . S
C776 C777 1.391 . S
C777 H765 0.950 . S
C777 C773 1.393 . S
C777 C776 1.391 . S
C778 H768 0.950 . S
C778 C779 1.386 1_455 S
C778 C780 1.391 . S
C779 C778 1.386 1_655 S
C779 C783 1.393 . S
C780 H769 0.950 . S
C780 C778 1.391 . S
C780 C781 1.400 1_455 S
C781 C775 1.491 1_645 S
C781 C780 1.400 1_655 S
C781 C782 1.398 . S
C782 H770 0.950 . S
C782 C781 1.398 . S
C782 C783 1.391 . S
C783 H771 0.950 . S
C783 C779 1.393 . S
C783 C782 1.391 . S
H784 C792 0.950 . S
H785 C797 0.950 . S
H786 C794 0.950 . S
H787 C796 0.950 . S
H788 C798 0.950 . S
H789 C800 0.950 . S
H790 C802 0.950 . S
H791 C803 0.950 . S
C792 H784 0.950 . S
C792 C793 1.386 . S
C792 C794 1.391 . S
C793 C792 1.386 . S
C793 C797 1.393 . S
C794 H786 0.950 . S
C794 C792 1.391 . S
C794 C795 1.400 . S
C795 C794 1.400 . S
C795 C796 1.398 . S
C795 C801 1.491 1_554 S
C796 H787 0.950 . S
C796 C795 1.398 . S
C796 C797 1.391 . S
C797 H785 0.950 . S
C797 C793 1.393 . S
C797 C796 1.391 . S
C798 H788 0.950 . S
C798 C799 1.386 . S
C798 C800 1.391 . S
C799 C798 1.386 . S
C799 C803 1.393 . S
C800 H789 0.950 . S
C800 C798 1.391 . S
C800 C801 1.400 . S
C801 C795 1.491 1_556 S
C801 C800 1.400 . S
C801 C802 1.398 . S
C802 H790 0.950 . S
C802 C801 1.398 . S
C802 C803 1.391 . S
C803 H791 0.950 . S
C803 C799 1.393 . S
C803 C802 1.391 . S
H804 C812 0.950 . S
H805 C817 0.950 . S
H806 C814 0.950 . S
H807 C816 0.950 . S
H808 C818 0.950 . S
H809 C820 0.950 . S
H810 C822 0.950 . S
H811 C823 0.950 . S
C812 H804 0.950 . S
C812 C813 1.386 1_455 S
C812 C814 1.391 . S
C813 C812 1.386 1_655 S
C813 C817 1.393 . S
C814 H806 0.950 . S
C814 C812 1.391 . S
C814 C815 1.400 1_455 S
C815 C814 1.400 1_655 S
C815 C816 1.398 . S
C815 C821 1.491 1_654 S
C816 H807 0.950 . S
C816 C815 1.398 . S
C816 C817 1.391 . S
C817 H805 0.950 . S
C817 C813 1.393 . S
C817 C816 1.391 . S
C818 H808 0.950 . S
C818 C819 1.386 1_655 S
C818 C820 1.391 . S
C819 C818 1.386 1_455 S
C819 C823 1.393 . S
C820 H809 0.950 . S
C820 C818 1.391 . S
C820 C821 1.400 1_655 S
C821 C815 1.491 1_456 S
C821 C820 1.400 1_455 S
C821 C822 1.398 . S
C822 H810 0.950 . S
C822 C821 1.398 . S
C822 C823 1.391 . S
C823 H811 0.950 . S
C823 C819 1.393 . S
C823 C822 1.391 . S
H824 C832 0.950 . S
H825 C837 0.950 . S
H826 C834 0.950 . S
H827 C836 0.950 . S
H828 C838 0.950 . S
H829 C840 0.950 . S
H830 C842 0.950 . S
H831 C843 0.950 . S
C832 H824 0.950 . S
C832 C833 1.386 . S
C832 C834 1.391 . S
C833 C832 1.386 . S
C833 C837 1.393 1_655 S
C834 H826 0.950 . S
C834 C832 1.391 . S
C834 C835 1.400 . S
C835 C834 1.400 . S
C835 C836 1.398 1_655 S
C835 C841 1.491 1_655 S
C836 H827 0.950 . S
C836 C835 1.398 1_455 S
C836 C837 1.391 . S
C837 H825 0.950 . S
C837 C833 1.393 1_455 S
C837 C836 1.391 . S
C838 H828 0.950 . S
C838 C839 1.386 . S
C838 C840 1.391 . S
C839 C838 1.386 . S
C839 C843 1.393 1_455 S
C840 H829 0.950 . S
C840 C838 1.391 . S
C840 C841 1.400 . S
C841 C835 1.491 1_455 S
C841 C840 1.400 . S
C841 C842 1.398 1_455 S
C842 H830 0.950 . S
C842 C841 1.398 1_655 S
C842 C843 1.391 . S
C843 H831 0.950 . S
C843 C839 1.393 1_655 S
C843 C842 1.391 . S
H844 C852 0.950 . S
H845 C857 0.950 . S
H846 C854 0.950 . S
H847 C856 0.950 . S
H848 C858 0.950 . S
H849 C860 0.950 . S
H850 C862 0.950 . S
H851 C863 0.950 . S
C852 H844 0.950 . S
C852 C853 1.386 . S
C852 C854 1.391 . S
C853 C852 1.386 . S
C853 C857 1.393 . S
C854 H846 0.950 . S
C854 C852 1.391 . S
C854 C855 1.400 . S
C855 C854 1.400 . S
C855 C856 1.398 . S
C855 C861 1.491 . S
C856 H847 0.950 . S
C856 C855 1.398 . S
C856 C857 1.391 . S
C857 H845 0.950 . S
C857 C853 1.393 . S
C857 C856 1.391 . S
C858 H848 0.950 . S
C858 C859 1.386 . S
C858 C860 1.391 . S
C859 C858 1.386 . S
C859 C863 1.393 . S
C860 H849 0.950 . S
C860 C858 1.391 . S
C860 C861 1.400 . S
C861 C855 1.491 . S
C861 C860 1.400 . S
C861 C862 1.398 . S
C862 H850 0.950 . S
C862 C861 1.398 . S
C862 C863 1.391 . S
C863 H851 0.950 . S
C863 C859 1.393 . S
C863 C862 1.391 . S
C233 C25 1.504 . S
C239 C11 1.500 . S
C253 C39 1.496 . S
C259 C53 1.499 . S
C273 C67 1.504 . S
C279 C81 1.501 . S
C293 C109 1.502 . S
C299 C95 1.505 . S
C313 C137 1.496 . S
C319 C123 1.499 . S
C333 C165 1.503 . S
C339 C151 1.500 . S
C353 C193 1.501 . S
C359 C179 1.497 . S
C373 C221 1.504 . S
C379 C207 1.506 . S
C393 C42 1.385 . S
C399 C0 1.394 . S
C413 C14 1.385 . S
C419 C28 1.395 . S
C433 C98 1.394 . S
C439 C56 1.385 . S
C453 C84 1.391 . S
C459 C70 1.399 . S
C473 C112 1.398 . S
C479 C154 1.387 . S
C493 C140 1.398 . S
C499 C126 1.388 . S
C513 C210 1.394 . S
C519 C168 1.385 . S
C533 C182 1.395 . S
C539 C196 1.385 . S
C553 C5 1.499 . S
C559 C131 1.502 . S
C573 C19 1.502 . S
C579 C117 1.498 . S
C593 C159 1.498 . S
C599 C33 1.502 . S
C613 C145 1.503 . S
C619 C47 1.497 . S
C633 C187 1.503 . S
C639 C61 1.498 . S
C653 C173 1.498 . S
C659 C75 1.502 . S
C673 C89 1.498 . S
C679 C215 1.503 . S
C693 C103 1.497 . S
C699 C201 1.503 . S
C713 C65 1.339 . S
C719 C9 1.339 . S
C733 C79 1.334 . S
C739 C23 1.334 . S
C753 C93 1.335 . S
C759 C37 1.335 . S
C773 C107 1.336 . S
C779 C51 1.336 . S
C793 C121 1.342 . S
C799 C177 1.342 . S
C813 C135 1.331 . S
C819 C191 1.331 . S
C833 C205 1.336 . S
C839 C149 1.336 . S
C853 C219 1.341 . S
C859 C163 1.341 . S
