# Generated by pormake.
# Topology uoo, (4)-cn, num edge types: 1
# Building blocks:
#     Node 0, Type 0, BuildingBlock: CEKHIL_clean_sbu_0, # of connection points: 4
#     Node 1, Type 0, BuildingBlock: CEKHIL_clean_sbu_0, # of connection points: 4
#     Node 2, Type 0, BuildingBlock: CEKHIL_clean_sbu_0, # of connection points: 4
#     Node 3, Type 0, BuildingBlock: CEKHIL_clean_sbu_0, # of connection points: 4
#     Node 4, Type 0, BuildingBlock: CEKHIL_clean_sbu_0, # of connection points: 4
#     Node 5, Type 0, BuildingBlock: CEKHIL_clean_sbu_0, # of connection points: 4
#     Edge 6, Type (0, 0), BuildingBlock: KIFKEQ_clean_linker_1, # of connection points: 2
#     Edge 7, Type (0, 0), BuildingBlock: KIFKEQ_clean_linker_1, # of connection points: 2
#     Edge 8, Type (0, 0), BuildingBlock: KIFKEQ_clean_linker_1, # of connection points: 2
#     Edge 9, Type (0, 0), BuildingBlock: KIFKEQ_clean_linker_1, # of connection points: 2
#     Edge 10, Type (0, 0), BuildingBlock: KIFKEQ_clean_linker_1, # of connection points: 2
#     Edge 11, Type (0, 0), BuildingBlock: KIFKEQ_clean_linker_1, # of connection points: 2
#     Edge 12, Type (0, 0), BuildingBlock: KIFKEQ_clean_linker_1, # of connection points: 2
#     Edge 13, Type (0, 0), BuildingBlock: KIFKEQ_clean_linker_1, # of connection points: 2
#     Edge 14, Type (0, 0), BuildingBlock: KIFKEQ_clean_linker_1, # of connection points: 2
#     Edge 15, Type (0, 0), BuildingBlock: KIFKEQ_clean_linker_1, # of connection points: 2
#     Edge 16, Type (0, 0), BuildingBlock: KIFKEQ_clean_linker_1, # of connection points: 2
#     Edge 17, Type (0, 0), BuildingBlock: KIFKEQ_clean_linker_1, # of connection points: 2
# Relax obj value: 0.250
# Max RMSD: 0.172
# Mean RMSD: 0.172
data_MOF--net-uoo--node1-CEKHIL_clean_sbu_0--edge1-KIFKEQ_clean_linker_1
_symmetry_space_group_name_H-M    P1
_symmetry_Int_Tables_number       1
_symmetry_cell_setting            triclinic
loop_
_symmetry_equiv_pos_as_xyz
'x, y, z'
_cell_length_a     24.768379
_cell_length_b     24.784046
_cell_length_c     39.277884
_cell_angle_alpha  90.121226
_cell_angle_beta   90.071296
_cell_angle_gamma 120.01648
loop_
_atom_site_label
_atom_site_type_symbol
_atom_site_fract_x
_atom_site_fract_y
_atom_site_fract_z
_atom_type_partial_charge
Co0 Co 0.14245 0.30874 -0.00229 0.0
O1 O 0.06134 0.30205 0.99398 0.0
O2 O 0.14822 0.38458 0.01244 0.0
C3 C 0.14359 0.26869 0.94661 0.0
O4 O 0.23355 0.33903 0.00342 0.0
Co5 Co 0.17054 0.20138 -0.00136 0.0
O6 O 0.26036 0.26653 -0.00541 0.0
C7 C 0.11173 0.22302 0.05814 0.0
C8 C 0.08952 0.35935 0.00518 0.0
C9 C 0.27475 0.32296 -0.00043 0.0
O10 O 0.12365 0.27549 0.04535 0.0
O11 O 0.12147 0.18358 0.04219 0.0
O12 O 0.15638 0.32618 0.94948 0.0
O13 O 0.12552 0.23558 0.97413 0.0
Co14 Co 0.83173 0.14387 0.32534 0.0
O15 O 0.75708 0.06289 0.321 0.0
O16 O 0.76096 0.15119 0.33594 0.0
C17 C 0.87805 0.14204 0.27675 0.0
O18 O 0.89236 0.23503 0.33072 0.0
Co19 Co 0.96653 0.17224 0.33301 0.0
O20 O 0.99279 0.26224 0.32865 0.0
C21 C 0.87969 0.11697 0.3904 0.0
C22 C 0.7276 0.09219 0.32955 0.0
C23 C 0.95006 0.27642 0.33003 0.0
O24 O 0.84038 0.12698 0.37433 0.0
O25 O 0.93135 0.12736 0.37732 0.0
O26 O 0.83337 0.15516 0.27659 0.0
O27 O 0.89033 0.12562 0.30576 0.0
Co28 Co 0.68388 0.83134 0.65897 0.0
O29 O 0.69483 0.76001 0.65196 0.0
O30 O 0.60804 0.75741 0.66926 0.0
C31 C 0.72712 0.88104 0.61024 0.0
O32 O 0.64979 0.88848 0.66753 0.0
Co33 Co 0.78728 0.96739 0.66703 0.0
O34 O 0.72038 0.98949 0.66319 0.0
C35 C 0.76202 0.87913 0.72315 0.0
C36 C 0.63633 0.72749 0.66064 0.0
C37 C 0.66424 0.94569 0.66648 0.0
O38 O 0.71288 0.83869 0.70728 0.0
O39 O 0.80076 0.93217 0.71041 0.0
O40 O 0.67016 0.83477 0.61085 0.0
O41 O 0.75829 0.89303 0.63851 0.0
Co42 Co 0.84901 0.68733 0.99372 0.0
O43 O 0.92946 0.69217 0.99134 0.0
O44 O 0.84039 0.60981 0.00721 0.0
C45 C 0.85136 0.73072 0.94336 0.0
O46 O 0.75795 0.65876 -0.00243 0.0
Co47 Co 0.82475 0.79722 -0.00341 0.0
O48 O 0.73434 0.7344 0.99225 0.0
C49 C 0.87729 0.76888 0.05647 0.0
C50 C 0.89944 0.63424 0.00132 0.0
C51 C 0.7183 0.67714 -0.00506 0.0
O52 O 0.86558 0.71751 0.0421 0.0
O53 O 0.86921 0.81012 0.04146 0.0
O54 O 0.83783 0.67291 0.9452 0.0
O55 O 0.86881 0.76239 0.97153 0.0
Co56 Co 0.158 0.85068 0.32548 0.0
O57 O 0.233 0.93111 0.32115 0.0
O58 O 0.22835 0.84276 0.3366 0.0
C59 C 0.11208 0.85172 0.2765 0.0
O60 O 0.09646 0.75978 0.33075 0.0
Co61 Co 0.02414 0.82521 0.33256 0.0
O62 O -0.00345 0.73485 0.32811 0.0
C63 C 0.11078 0.87963 0.39029 0.0
C64 C 0.26208 0.90159 0.33 0.0
C65 C 0.03842 0.71948 0.32955 0.0
O66 O 0.1495 0.86858 0.37436 0.0
O67 O 0.05958 0.87029 0.37697 0.0
O68 O 0.15641 0.83811 0.27691 0.0
O69 O 0.10023 0.8696 0.30522 0.0
Co70 Co 0.30754 0.15831 0.66219 0.0
O71 O 0.30611 0.23423 0.65324 0.0
O72 O 0.38603 0.22798 0.67448 0.0
C73 C 0.26615 0.11026 0.61254 0.0
O74 O 0.33153 0.09418 0.67365 0.0
Co75 Co 0.19366 0.02708 0.6679 0.0
O76 O 0.25439 -0.00328 0.66451 0.0
C77 C 0.22317 0.11714 0.72406 0.0
C78 C 0.3636 0.26237 0.66407 0.0
C79 C 0.31125 0.03571 0.67104 0.0
O80 O 0.27469 0.15462 0.7092 0.0
O81 O 0.18219 0.06533 0.71079 0.0
O82 O 0.32482 0.15222 0.61479 0.0
O83 O 0.23291 0.10182 0.6396 0.0
H84 H 0.11913 0.05483 0.7644 0.0
H85 H 0.29978 0.22251 0.76018 0.0
H86 H 0.09853 0.08957 0.81866 0.0
H87 H 0.27933 0.25628 0.81424 0.0
H88 H 0.19189 0.33236 0.88775 0.0
H89 H 0.20958 0.29306 0.83456 0.0
H90 H 0.13538 0.11036 0.87914 0.0
H91 H 0.11701 0.14968 0.93252 0.0
C92 C 0.15457 0.09877 0.77507 0.0
C93 C 0.21096 0.13598 0.75774 0.0
C94 C 0.14284 0.11851 0.80621 0.0
C95 C 0.18712 0.17588 0.82055 0.0
C96 C 0.24384 0.21237 0.80355 0.0
C97 C 0.25563 0.19271 0.77259 0.0
C98 C 0.1792 0.28377 0.88622 0.0
C99 C 0.1532 0.24413 0.91432 0.0
C100 C 0.18966 0.26134 0.85581 0.0
C101 C 0.17419 0.1987 0.85274 0.0
C102 C 0.14736 0.15874 0.88069 0.0
C103 C 0.13717 0.18133 0.91127 0.0
H104 H 0.8445 0.14654 0.21145 0.0
H105 H 0.99272 0.15154 0.27206 0.0
H106 H 0.90547 0.16109 0.15983 0.0
H107 H 0.05405 0.16726 0.22009 0.0
H108 H 0.12348 0.30359 0.10866 0.0
H109 H 0.06933 0.27838 0.16342 0.0
H110 H 0.98107 0.08251 0.13957 0.0
H111 H 0.03599 0.10718 0.0848 0.0
C112 C 0.88996 0.15055 0.21372 0.0
C113 C 0.91404 0.14811 0.24572 0.0
C114 C 0.9245 0.15855 0.18424 0.0
C115 C 0.98385 0.16489 0.18634 0.0
C116 C 0.00798 0.1619 0.21813 0.0
C117 C 0.97301 0.15302 0.24768 0.0
C118 C 0.09319 0.2551 0.11524 0.0
C119 C 0.08379 0.20732 0.09244 0.0
C120 C 0.0626 0.24085 0.14654 0.0
C121 C 0.02166 0.17872 0.15537 0.0
C122 C 0.0131 0.13072 0.13315 0.0
C123 C 0.04447 0.14489 0.10198 0.0
H124 H 0.77276 0.08543 0.42529 0.0
H125 H 0.94742 0.08639 0.43391 0.0
H126 H 0.73993 0.03283 0.4797 0.0
H127 H 0.91366 0.03273 0.48858 0.0
H128 H 0.84406 0.98188 0.60087 0.0
H129 H 0.88514 0.04422 0.54901 0.0
H130 H 0.70981 0.92636 0.49805 0.0
H131 H 0.66886 0.86497 0.54946 0.0
C132 C 0.80446 0.07486 0.43883 0.0
C133 C 0.86261 0.08975 0.42497 0.0
C134 C 0.78539 0.04438 0.47 0.0
C135 C 0.82391 0.02802 0.48817 0.0
C136 C 0.88311 0.04499 0.47514 0.0
C137 C 0.90225 0.07545 0.44376 0.0
C138 C 0.81447 0.96948 0.57854 0.0
C139 C 0.75318 0.91879 0.57925 0.0
C140 C 0.83802 0.00493 0.54888 0.0
C141 C 0.80046 0.99044 0.51962 0.0
C142 C 0.73948 0.93937 0.52039 0.0
C143 C 0.71614 0.90398 0.54983 0.0
H144 H 0.86856 0.84754 0.93246 0.0
H145 H 0.81242 0.67178 0.88238 0.0
H146 H 0.8474 0.88716 0.88001 0.0
H147 H 0.79216 0.7114 0.83026 0.0
H148 H 0.69111 0.77072 0.7577 0.0
H149 H 0.71434 0.73882 0.8115 0.0
H150 H 0.88526 0.91553 0.81978 0.0
H151 H 0.86176 0.94836 0.76574 0.0
C152 C 0.85212 0.81759 0.91024 0.0
C153 C 0.84177 0.75646 0.91156 0.0
C154 C 0.84025 0.84032 0.88023 0.0
C155 C 0.81755 0.80215 0.85116 0.0
C156 C 0.80851 0.74153 0.85243 0.0
C157 C 0.82046 0.71895 0.88226 0.0
C158 C 0.73355 0.80319 0.77094 0.0
C159 C 0.77481 0.86203 0.75715 0.0
C160 C 0.74699 0.78463 0.80175 0.0
C161 C 0.80199 0.82435 0.81963 0.0
C162 C 0.8424 0.88401 0.80657 0.0
C163 C 0.82902 0.90266 0.77556 0.0
H164 H 0.12993 0.81555 0.21433 0.0
H165 H 0.01177 0.86926 0.26807 0.0
H166 H 0.0678 0.79697 0.16301 0.0
H167 H 0.94963 0.85098 0.216 0.0
H168 H 0.8933 0.68939 0.09757 0.0
H169 H 0.94683 0.71233 0.15214 0.0
H170 H 0.97506 0.89868 0.14969 0.0
H171 H 0.92167 0.8764 0.09448 0.0
C172 C 0.09077 0.82355 0.21519 0.0
C173 C 0.07543 0.84343 0.2453 0.0
C174 C 0.05525 0.81283 0.18581 0.0
C175 C 0.00391 0.82218 0.1858 0.0
C176 C 0.98925 0.84369 0.21552 0.0
C177 C 0.02463 0.85393 0.24519 0.0
C178 C 0.91033 0.73521 0.1086 0.0
C179 C 0.90374 0.78129 0.09136 0.0
C180 C 0.94095 0.74818 0.13987 0.0
C181 C 0.96525 0.80728 0.1548 0.0
C182 C 0.95631 0.85265 0.13862 0.0
C183 C 0.92594 0.83984 0.10704 0.0
H184 H 0.14506 0.02043 0.59961 0.0
H185 H 0.32858 0.11651 0.55457 0.0
H186 H 0.10333 0.95948 0.54721 0.0
H187 H 0.28703 0.05665 0.50247 0.0
H188 H 0.21114 0.89809 0.42814 0.0
H189 H 0.24475 0.9493 0.48308 0.0
H190 H 0.08436 0.97435 0.48642 0.0
H191 H 0.04971 0.92192 0.43133 0.0
C192 C 0.17639 0.02853 0.57855 0.0
C193 C 0.24009 0.07308 0.5812 0.0
C194 C 0.15248 0.9939 0.54855 0.0
C195 C 0.19198 0.00299 0.52082 0.0
C196 C 0.25558 0.04774 0.52358 0.0
C197 C 0.27933 0.08235 0.55339 0.0
C198 C 0.18258 0.91401 0.44057 0.0
C199 C 0.12793 0.90633 0.42507 0.0
C200 C 0.20211 0.94366 0.47205 0.0
C201 C 0.16764 0.96656 0.48887 0.0
C202 C 0.11174 0.95692 0.47412 0.0
C203 C 0.09207 0.92711 0.44249 0.0
H204 H 0.316 0.44594 0.99141 0.0
H205 H 0.38177 0.31591 0.00758 0.0
H206 H 0.42189 0.53147 0.99054 0.0
H207 H 0.48923 0.40305 0.00801 0.0
H208 H 0.6713 0.56229 0.96797 0.0
H209 H 0.56486 0.47633 0.97022 0.0
H210 H 0.51027 0.59341 0.0246 0.0
H211 H 0.61733 0.68073 0.02096 0.0
C212 C 0.35318 0.43557 -0.00476 0.0
C213 C 0.34038 0.37388 -0.00036 0.0
C214 C 0.41412 0.48501 -0.00502 0.0
C215 C 0.46418 0.47442 -0.00059 0.0
C216 C 0.45164 0.41275 0.00407 0.0
C217 C 0.39021 0.36282 0.00396 0.0
C218 C 0.6364 0.56975 0.98024 0.0
C219 C 0.65231 0.62808 0.9943 0.0
C220 C 0.57551 0.52023 0.98186 0.0
C221 C 0.52907 0.52754 -0.00204 0.0
C222 C 0.54483 0.58633 0.01168 0.0
C223 C 0.60594 0.6364 0.0096 0.0
H224 H 0.06234 0.38244 0.34367 0.0
H225 H 0.87007 0.31851 0.31711 0.0
H226 H 0.08229 0.48966 0.34557 0.0
H227 H 0.89026 0.4244 0.31803 0.0
H228 H 0.93147 0.61665 0.35233 0.0
H229 H 0.91161 0.50944 0.35491 0.0
H230 H 0.08982 0.56804 0.30734 0.0
H231 H 0.11014 0.67423 0.30582 0.0
C232 C 0.02462 0.39125 0.33804 0.0
C233 C 0.96476 0.34199 0.33035 0.0
C234 C 0.0359 0.45252 0.33907 0.0
C235 C 0.98765 0.46549 0.33211 0.0
C236 C 0.92809 0.41608 0.32426 0.0
C237 C 0.91677 0.35523 0.32348 0.0
C238 C 0.96597 0.60622 0.34231 0.0
C239 C 0.02232 0.65366 0.32907 0.0
C240 C 0.95482 0.54504 0.34379 0.0
C241 C -0.00046 0.53036 0.33161 0.0
C242 C 0.05516 0.57787 0.31775 0.0
C243 C 0.06648 0.63871 0.31661 0.0
H244 H 0.30866 0.93241 0.6437 0.0
H245 H 0.42005 0.09529 0.70591 0.0
H246 H 0.39478 0.91057 0.64289 0.0
H247 H 0.50503 0.07311 0.70554 0.0
H248 H 0.6686 0.05869 0.66159 0.0
H249 H 0.58043 0.07711 0.66401 0.0
H250 H 0.45473 0.88043 0.67963 0.0
H251 H 0.54157 0.86174 0.67668 0.0
C252 C 0.35091 0.96265 0.65775 0.0
C253 C 0.35781 0.01565 0.67465 0.0
C254 C 0.40028 0.95041 0.65721 0.0
C255 C 0.45704 0.99083 0.67372 0.0
C256 C 0.46257 0.04209 0.69187 0.0
C257 C 0.41359 0.05438 0.69231 0.0
C258 C 0.62219 0.01954 0.66562 0.0
C259 C 0.61236 0.9589 0.66892 0.0
C260 C 0.57173 0.03001 0.66712 0.0
C261 C 0.51063 0.98006 0.67195 0.0
C262 C 0.50102 0.91967 0.67538 0.0
C263 C 0.55115 0.90921 0.67391 0.0
H264 H 0.48868 0.32651 0.65682 0.0
H265 H 0.32889 0.35057 0.66939 0.0
H266 H 0.55672 0.43863 0.65409 0.0
H267 H 0.39725 0.46336 0.66921 0.0
H268 H 0.52164 0.6588 0.6346 0.0
H269 H 0.45674 0.54624 0.63407 0.0
H270 H 0.60392 0.53084 0.68468 0.0
H271 H 0.67049 0.64425 0.68264 0.0
C272 C 0.46832 0.35613 0.65946 0.0
C273 C 0.40369 0.33029 0.66319 0.0
C274 C 0.50739 0.42047 0.65818 0.0
C275 C 0.48279 0.46045 0.66142 0.0
C276 C 0.41789 0.43419 0.66576 0.0
C277 C 0.3786 0.36963 0.66614 0.0
C278 C 0.54015 0.63102 0.64523 0.0
C279 C 0.6007 0.6595 0.65864 0.0
C280 C 0.50274 0.56654 0.64534 0.0
C281 C 0.52441 0.5291 0.65985 0.0
C282 C 0.5858 0.55797 0.67287 0.0
C283 C 0.62399 0.62279 0.67186 0.0
H284 H 0.0205 0.66648 0.98754 0.0
H285 H 0.8442 0.51402 0.02194 0.0
H286 H 0.06534 0.59808 0.9896 0.0
H287 H 0.88894 0.44656 0.02427 0.0
H288 H 0.97235 0.32896 0.98352 0.0
H289 H 0.92697 0.3969 0.98344 0.0
H290 H 0.09259 0.54216 0.03244 0.0
H291 H 0.13797 0.4751 0.03225 0.0
C292 C 0.99161 0.61871 -0.00421 0.0
C293 C 0.92895 0.59561 0.00448 0.0
C294 C 0.01717 0.57962 -0.00298 0.0
C295 C 0.98034 0.51691 0.00688 0.0
C296 C 0.91805 0.49433 0.01606 0.0
C297 C 0.89268 0.53325 0.01494 0.0
C298 C -0.00138 0.37513 -0.00544 0.0
C299 C 0.05864 0.39677 0.00777 0.0
C300 C 0.97278 0.414 0.99452 0.0
C301 C 0.00665 0.47499 0.00766 0.0
C302 C 0.06598 0.49585 0.02158 0.0
C303 C 0.09166 0.45715 0.02168 0.0
H304 H 0.66029 0.14466 0.35056 0.0
H305 H 0.64065 0.97253 0.31135 0.0
H306 H 0.54801 0.0992 0.35052 0.0
H307 H 0.52713 0.92696 0.3109 0.0
H308 H 0.32931 0.84993 0.35253 0.0
H309 H 0.44168 0.89494 0.3522 0.0
H310 H 0.46227 0.06459 0.30922 0.0
H311 H 0.34894 0.0196 0.30999 0.0
C312 C 0.63193 0.09696 0.34189 0.0
C313 C 0.65922 0.06202 0.33091 0.0
C314 C 0.56756 0.0712 0.34164 0.0
C315 C 0.52895 0.00987 0.33043 0.0
C316 C 0.55599 0.97438 0.31986 0.0
C317 C 0.62077 0.00031 0.32009 0.0
C318 C 0.3577 0.89696 0.34308 0.0
C319 C 0.33042 0.9314 0.33128 0.0
C320 C 0.42206 0.92244 0.34265 0.0
C321 C 0.46059 0.98294 0.33045 0.0
C322 C 0.43351 0.01786 0.319 0.0
C323 C 0.36882 0.99226 0.31943 0.0
loop_
_geom_bond_atom_site_label_1
_geom_bond_atom_site_label_2
_geom_bond_distance
_geom_bond_site_symmetry_2
_ccdc_geom_bond_type
Co0 O1 2.217 . S
Co0 O2 2.091 . S
Co0 O4 2.004 1_556 S
Co0 O10 2.015 1_556 S
Co0 O12 2.144 . S
Co0 O13 2.246 . S
O1 Co0 2.217 . S
O1 C8 1.247 . S
O2 Co0 2.091 . S
O2 C8 1.261 . S
C3 O12 1.247 . S
C3 O13 1.272 . S
O4 Co0 2.004 1_554 S
O4 C9 1.259 . S
Co5 O6 2.061 . S
Co5 O11 2.052 . S
Co5 O13 2.135 1_554 S
O6 Co5 2.061 . S
O6 C9 1.235 . S
C7 O10 1.238 . S
C7 O11 1.241 . S
C8 O1 1.247 . S
C8 O2 1.261 . S
C9 O4 1.259 . S
C9 O6 1.235 . S
O10 Co0 2.015 1_554 S
O10 C7 1.238 . S
O11 Co5 2.052 . S
O11 C7 1.241 . S
O12 Co0 2.144 . S
O12 C3 1.247 . S
O13 Co0 2.246 . S
O13 C3 1.272 . S
O13 Co5 2.135 1_556 S
Co14 O15 2.216 . S
Co14 O16 2.091 . S
Co14 O18 2.004 . S
Co14 O24 2.021 . S
Co14 O26 2.137 . S
Co14 O27 2.244 . S
O15 Co14 2.216 . S
O15 C22 1.247 . S
O16 Co14 2.091 . S
O16 C22 1.261 . S
C17 O26 1.247 . S
C17 O27 1.272 . S
O18 Co14 2.004 . S
O18 C23 1.259 . S
Co19 O20 2.061 . S
Co19 O25 2.052 . S
Co19 O27 2.135 . S
O20 Co19 2.061 . S
O20 C23 1.235 . S
C21 O24 1.238 . S
C21 O25 1.241 . S
C22 O15 1.247 . S
C22 O16 1.261 . S
C23 O18 1.259 . S
C23 O20 1.235 . S
O24 Co14 2.021 . S
O24 C21 1.238 . S
O25 Co19 2.052 . S
O25 C21 1.241 . S
O26 Co14 2.137 . S
O26 C17 1.247 . S
O27 Co14 2.244 . S
O27 C17 1.272 . S
O27 Co19 2.135 . S
Co28 O29 2.216 . S
Co28 O30 2.091 . S
Co28 O32 2.004 . S
Co28 O38 2.021 . S
Co28 O40 2.137 . S
Co28 O41 2.244 . S
O29 Co28 2.216 . S
O29 C36 1.247 . S
O30 Co28 2.091 . S
O30 C36 1.261 . S
C31 O40 1.247 . S
C31 O41 1.272 . S
O32 Co28 2.004 . S
O32 C37 1.259 . S
Co33 O34 2.061 . S
Co33 O39 2.052 . S
Co33 O41 2.135 . S
O34 Co33 2.061 . S
O34 C37 1.235 . S
C35 O38 1.238 . S
C35 O39 1.241 . S
C36 O29 1.247 . S
C36 O30 1.261 . S
C37 O32 1.259 . S
C37 O34 1.235 . S
O38 Co28 2.021 . S
O38 C35 1.238 . S
O39 Co33 2.052 . S
O39 C35 1.241 . S
O40 Co28 2.137 . S
O40 C31 1.247 . S
O41 Co28 2.244 . S
O41 C31 1.272 . S
O41 Co33 2.135 . S
Co42 O43 2.217 . S
Co42 O44 2.091 . S
Co42 O46 2.004 1_556 S
Co42 O52 2.015 1_556 S
Co42 O54 2.144 . S
Co42 O55 2.246 . S
O43 Co42 2.217 . S
O43 C50 1.247 . S
O44 Co42 2.091 . S
O44 C50 1.261 . S
C45 O54 1.247 . S
C45 O55 1.272 . S
O46 Co42 2.004 1_554 S
O46 C51 1.259 . S
Co47 O48 2.061 . S
Co47 O53 2.052 . S
Co47 O55 2.135 1_554 S
O48 Co47 2.061 . S
O48 C51 1.235 . S
C49 O52 1.238 . S
C49 O53 1.241 . S
C50 O43 1.247 . S
C50 O44 1.261 . S
C51 O46 1.259 . S
C51 O48 1.235 . S
O52 Co42 2.015 1_554 S
O52 C49 1.238 . S
O53 Co47 2.052 . S
O53 C49 1.241 . S
O54 Co42 2.144 . S
O54 C45 1.247 . S
O55 Co42 2.246 . S
O55 C45 1.272 . S
O55 Co47 2.135 1_556 S
Co56 O57 2.216 . S
Co56 O58 2.091 . S
Co56 O60 2.004 . S
Co56 O66 2.021 . S
Co56 O68 2.137 . S
Co56 O69 2.244 . S
O57 Co56 2.216 . S
O57 C64 1.247 . S
O58 Co56 2.091 . S
O58 C64 1.261 . S
C59 O68 1.247 . S
C59 O69 1.272 . S
O60 Co56 2.004 . S
O60 C65 1.259 . S
Co61 O62 2.061 . S
Co61 O67 2.052 . S
Co61 O69 2.135 . S
O62 Co61 2.061 . S
O62 C65 1.235 . S
C63 O66 1.238 . S
C63 O67 1.241 . S
C64 O57 1.247 . S
C64 O58 1.261 . S
C65 O60 1.259 . S
C65 O62 1.235 . S
O66 Co56 2.021 . S
O66 C63 1.238 . S
O67 Co61 2.052 . S
O67 C63 1.241 . S
O68 Co56 2.137 . S
O68 C59 1.247 . S
O69 Co56 2.244 . S
O69 C59 1.272 . S
O69 Co61 2.135 . S
Co70 O71 2.216 . S
Co70 O72 2.091 . S
Co70 O74 2.004 . S
Co70 O80 2.021 . S
Co70 O82 2.137 . S
Co70 O83 2.244 . S
O71 Co70 2.216 . S
O71 C78 1.247 . S
O72 Co70 2.091 . S
O72 C78 1.261 . S
C73 O82 1.247 . S
C73 O83 1.272 . S
O74 Co70 2.004 . S
O74 C79 1.259 . S
Co75 O76 2.061 . S
Co75 O81 2.052 . S
Co75 O83 2.135 . S
O76 Co75 2.061 . S
O76 C79 1.235 . S
C77 O80 1.238 . S
C77 O81 1.241 . S
C78 O71 1.247 . S
C78 O72 1.261 . S
C79 O74 1.259 . S
C79 O76 1.235 . S
O80 Co70 2.021 . S
O80 C77 1.238 . S
O81 Co75 2.052 . S
O81 C77 1.241 . S
O82 Co70 2.137 . S
O82 C73 1.247 . S
O83 Co70 2.244 . S
O83 C73 1.272 . S
O83 Co75 2.135 . S
H84 C92 0.950 . S
H85 C97 0.950 . S
H86 C94 0.950 . S
H87 C96 0.950 . S
H88 C98 0.950 . S
H89 C100 0.950 . S
H90 C102 0.950 . S
H91 C103 0.950 . S
C92 H84 0.950 . S
C92 C93 1.386 . S
C92 C94 1.391 . S
C93 C92 1.386 . S
C93 C97 1.393 . S
C94 H86 0.950 . S
C94 C92 1.391 . S
C94 C95 1.400 . S
C95 C94 1.400 . S
C95 C96 1.398 . S
C95 C101 1.491 . S
C96 H87 0.950 . S
C96 C95 1.398 . S
C96 C97 1.391 . S
C97 H85 0.950 . S
C97 C93 1.393 . S
C97 C96 1.391 . S
C98 H88 0.950 . S
C98 C99 1.386 . S
C98 C100 1.391 . S
C99 C98 1.386 . S
C99 C103 1.393 . S
C100 H89 0.950 . S
C100 C98 1.391 . S
C100 C101 1.400 . S
C101 C95 1.491 . S
C101 C100 1.400 . S
C101 C102 1.398 . S
C102 H90 0.950 . S
C102 C101 1.398 . S
C102 C103 1.391 . S
C103 H91 0.950 . S
C103 C99 1.393 . S
C103 C102 1.391 . S
H104 C112 0.950 . S
H105 C117 0.950 1_455 S
H106 C114 0.950 . S
H107 C116 0.950 . S
H108 C118 0.950 . S
H109 C120 0.950 . S
H110 C122 0.950 . S
H111 C123 0.950 1_655 S
C112 H104 0.950 . S
C112 C113 1.386 . S
C112 C114 1.391 . S
C113 C112 1.386 . S
C113 C117 1.393 . S
C114 H106 0.950 . S
C114 C112 1.391 . S
C114 C115 1.400 . S
C115 C114 1.400 . S
C115 C116 1.398 1_655 S
C115 C121 1.491 1_655 S
C116 H107 0.950 . S
C116 C115 1.398 1_455 S
C116 C117 1.391 1_455 S
C117 H105 0.950 1_655 S
C117 C113 1.393 . S
C117 C116 1.391 1_655 S
C118 H108 0.950 . S
C118 C119 1.386 . S
C118 C120 1.391 . S
C119 C118 1.386 . S
C119 C123 1.393 . S
C120 H109 0.950 . S
C120 C118 1.391 . S
C120 C121 1.400 . S
C121 C115 1.491 1_455 S
C121 C120 1.400 . S
C121 C122 1.398 1_455 S
C122 H110 0.950 . S
C122 C121 1.398 1_655 S
C122 C123 1.391 1_655 S
C123 H111 0.950 1_455 S
C123 C119 1.393 . S
C123 C122 1.391 1_455 S
H124 C132 0.950 1_565 S
H125 C137 0.950 . S
H126 C134 0.950 . S
H127 C136 0.950 . S
H128 C138 0.950 1_545 S
H129 C140 0.950 . S
H130 C142 0.950 . S
H131 C143 0.950 . S
C132 H124 0.950 1_545 S
C132 C133 1.386 . S
C132 C134 1.391 1_545 S
C133 C132 1.386 . S
C133 C137 1.393 . S
C134 H126 0.950 . S
C134 C132 1.391 1_565 S
C134 C135 1.400 1_565 S
C135 C134 1.400 1_545 S
C135 C136 1.398 . S
C135 C141 1.491 1_545 S
C136 H127 0.950 . S
C136 C135 1.398 . S
C136 C137 1.391 . S
C137 H125 0.950 . S
C137 C133 1.393 . S
C137 C136 1.391 . S
C138 H128 0.950 1_565 S
C138 C139 1.386 . S
C138 C140 1.391 1_565 S
C139 C138 1.386 . S
C139 C143 1.393 . S
C140 H129 0.950 . S
C140 C138 1.391 1_545 S
C140 C141 1.400 1_545 S
C141 C135 1.491 1_565 S
C141 C140 1.400 1_565 S
C141 C142 1.398 . S
C142 H130 0.950 . S
C142 C141 1.398 . S
C142 C143 1.391 . S
C143 H131 0.950 . S
C143 C139 1.393 . S
C143 C142 1.391 . S
H144 C152 0.950 . S
H145 C157 0.950 . S
H146 C154 0.950 . S
H147 C156 0.950 . S
H148 C158 0.950 . S
H149 C160 0.950 . S
H150 C162 0.950 . S
H151 C163 0.950 . S
C152 H144 0.950 . S
C152 C153 1.386 . S
C152 C154 1.391 . S
C153 C152 1.386 . S
C153 C157 1.393 . S
C154 H146 0.950 . S
C154 C152 1.391 . S
C154 C155 1.400 . S
C155 C154 1.400 . S
C155 C156 1.398 . S
C155 C161 1.491 . S
C156 H147 0.950 . S
C156 C155 1.398 . S
C156 C157 1.391 . S
C157 H145 0.950 . S
C157 C153 1.393 . S
C157 C156 1.391 . S
C158 H148 0.950 . S
C158 C159 1.386 . S
C158 C160 1.391 . S
C159 C158 1.386 . S
C159 C163 1.393 . S
C160 H149 0.950 . S
C160 C158 1.391 . S
C160 C161 1.400 . S
C161 C155 1.491 . S
C161 C160 1.400 . S
C161 C162 1.398 . S
C162 H150 0.950 . S
C162 C161 1.398 . S
C162 C163 1.391 . S
C163 H151 0.950 . S
C163 C159 1.393 . S
C163 C162 1.391 . S
H164 C172 0.950 . S
H165 C177 0.950 1_655 S
H166 C174 0.950 . S
H167 C176 0.950 . S
H168 C178 0.950 . S
H169 C180 0.950 . S
H170 C182 0.950 . S
H171 C183 0.950 . S
C172 H164 0.950 . S
C172 C173 1.386 . S
C172 C174 1.391 . S
C173 C172 1.386 . S
C173 C177 1.393 . S
C174 H166 0.950 . S
C174 C172 1.391 . S
C174 C175 1.400 . S
C175 C174 1.400 . S
C175 C176 1.398 1_455 S
C175 C181 1.491 1_455 S
C176 H167 0.950 . S
C176 C175 1.398 1_655 S
C176 C177 1.391 1_655 S
C177 H165 0.950 1_455 S
C177 C173 1.393 . S
C177 C176 1.391 1_455 S
C178 H168 0.950 . S
C178 C179 1.386 . S
C178 C180 1.391 . S
C179 C178 1.386 . S
C179 C183 1.393 . S
C180 H169 0.950 . S
C180 C178 1.391 . S
C180 C181 1.400 . S
C181 C175 1.491 1_655 S
C181 C180 1.400 . S
C181 C182 1.398 1_655 S
C182 H170 0.950 . S
C182 C181 1.398 1_455 S
C182 C183 1.391 1_455 S
C183 H171 0.950 . S
C183 C179 1.393 . S
C183 C182 1.391 1_655 S
H184 C192 0.950 . S
H185 C197 0.950 . S
H186 C194 0.950 . S
H187 C196 0.950 . S
H188 C198 0.950 . S
H189 C200 0.950 . S
H190 C202 0.950 . S
H191 C203 0.950 . S
C192 H184 0.950 . S
C192 C193 1.386 . S
C192 C194 1.391 . S
C193 C192 1.386 . S
C193 C197 1.393 . S
C194 H186 0.950 . S
C194 C192 1.391 . S
C194 C195 1.400 . S
C195 C194 1.400 . S
C195 C196 1.398 . S
C195 C201 1.491 1_545 S
C196 H187 0.950 . S
C196 C195 1.398 . S
C196 C197 1.391 . S
C197 H185 0.950 . S
C197 C193 1.393 . S
C197 C196 1.391 . S
C198 H188 0.950 . S
C198 C199 1.386 . S
C198 C200 1.391 . S
C199 C198 1.386 . S
C199 C203 1.393 . S
C200 H189 0.950 . S
C200 C198 1.391 . S
C200 C201 1.400 . S
C201 C195 1.491 1_565 S
C201 C200 1.400 . S
C201 C202 1.398 . S
C202 H190 0.950 . S
C202 C201 1.398 . S
C202 C203 1.391 . S
C203 H191 0.950 . S
C203 C199 1.393 . S
C203 C202 1.391 . S
H204 C212 0.950 . S
H205 C217 0.950 . S
H206 C214 0.950 . S
H207 C216 0.950 . S
H208 C218 0.950 . S
H209 C220 0.950 . S
H210 C222 0.950 . S
H211 C223 0.950 . S
C212 H204 0.950 . S
C212 C213 1.386 . S
C212 C214 1.391 . S
C213 C212 1.386 . S
C213 C217 1.393 . S
C214 H206 0.950 . S
C214 C212 1.391 . S
C214 C215 1.400 . S
C215 C214 1.400 . S
C215 C216 1.398 . S
C215 C221 1.491 . S
C216 H207 0.950 . S
C216 C215 1.398 . S
C216 C217 1.391 . S
C217 H205 0.950 . S
C217 C213 1.393 . S
C217 C216 1.391 . S
C218 H208 0.950 . S
C218 C219 1.386 . S
C218 C220 1.391 . S
C219 C218 1.386 . S
C219 C223 1.393 . S
C220 H209 0.950 . S
C220 C218 1.391 . S
C220 C221 1.400 . S
C221 C215 1.491 . S
C221 C220 1.400 . S
C221 C222 1.398 . S
C222 H210 0.950 . S
C222 C221 1.398 . S
C222 C223 1.391 . S
C223 H211 0.950 . S
C223 C219 1.393 . S
C223 C222 1.391 . S
H224 C232 0.950 . S
H225 C237 0.950 . S
H226 C234 0.950 . S
H227 C236 0.950 . S
H228 C238 0.950 . S
H229 C240 0.950 . S
H230 C242 0.950 . S
H231 C243 0.950 . S
C232 H224 0.950 . S
C232 C233 1.386 1_455 S
C232 C234 1.391 . S
C233 C232 1.386 1_655 S
C233 C237 1.393 . S
C234 H226 0.950 . S
C234 C232 1.391 . S
C234 C235 1.400 1_455 S
C235 C234 1.400 1_655 S
C235 C236 1.398 . S
C235 C241 1.491 1_655 S
C236 H227 0.950 . S
C236 C235 1.398 . S
C236 C237 1.391 . S
C237 H225 0.950 . S
C237 C233 1.393 . S
C237 C236 1.391 . S
C238 H228 0.950 . S
C238 C239 1.386 1_655 S
C238 C240 1.391 . S
C239 C238 1.386 1_455 S
C239 C243 1.393 . S
C240 H229 0.950 . S
C240 C238 1.391 . S
C240 C241 1.400 1_655 S
C241 C235 1.491 1_455 S
C241 C240 1.400 1_455 S
C241 C242 1.398 . S
C242 H230 0.950 . S
C242 C241 1.398 . S
C242 C243 1.391 . S
C243 H231 0.950 . S
C243 C239 1.393 . S
C243 C242 1.391 . S
H244 C252 0.950 . S
H245 C257 0.950 . S
H246 C254 0.950 . S
H247 C256 0.950 . S
H248 C258 0.950 . S
H249 C260 0.950 . S
H250 C262 0.950 . S
H251 C263 0.950 . S
C252 H244 0.950 . S
C252 C253 1.386 1_565 S
C252 C254 1.391 . S
C253 C252 1.386 1_545 S
C253 C257 1.393 . S
C254 H246 0.950 . S
C254 C252 1.391 . S
C254 C255 1.400 1_565 S
C255 C254 1.400 1_545 S
C255 C256 1.398 . S
C255 C261 1.491 1_545 S
C256 H247 0.950 . S
C256 C255 1.398 . S
C256 C257 1.391 . S
C257 H245 0.950 . S
C257 C253 1.393 . S
C257 C256 1.391 . S
C258 H248 0.950 . S
C258 C259 1.386 1_545 S
C258 C260 1.391 . S
C259 C258 1.386 1_565 S
C259 C263 1.393 . S
C260 H249 0.950 . S
C260 C258 1.391 . S
C260 C261 1.400 1_545 S
C261 C255 1.491 1_565 S
C261 C260 1.400 1_565 S
C261 C262 1.398 . S
C262 H250 0.950 . S
C262 C261 1.398 . S
C262 C263 1.391 . S
C263 H251 0.950 . S
C263 C259 1.393 . S
C263 C262 1.391 . S
H264 C272 0.950 . S
H265 C277 0.950 . S
H266 C274 0.950 . S
H267 C276 0.950 . S
H268 C278 0.950 . S
H269 C280 0.950 . S
H270 C282 0.950 . S
H271 C283 0.950 . S
C272 H264 0.950 . S
C272 C273 1.386 . S
C272 C274 1.391 . S
C273 C272 1.386 . S
C273 C277 1.393 . S
C274 H266 0.950 . S
C274 C272 1.391 . S
C274 C275 1.400 . S
C275 C274 1.400 . S
C275 C276 1.398 . S
C275 C281 1.491 . S
C276 H267 0.950 . S
C276 C275 1.398 . S
C276 C277 1.391 . S
C277 H265 0.950 . S
C277 C273 1.393 . S
C277 C276 1.391 . S
C278 H268 0.950 . S
C278 C279 1.386 . S
C278 C280 1.391 . S
C279 C278 1.386 . S
C279 C283 1.393 . S
C280 H269 0.950 . S
C280 C278 1.391 . S
C280 C281 1.400 . S
C281 C275 1.491 . S
C281 C280 1.400 . S
C281 C282 1.398 . S
C282 H270 0.950 . S
C282 C281 1.398 . S
C282 C283 1.391 . S
C283 H271 0.950 . S
C283 C279 1.393 . S
C283 C282 1.391 . S
H284 C292 0.950 . S
H285 C297 0.950 . S
H286 C294 0.950 . S
H287 C296 0.950 . S
H288 C298 0.950 . S
H289 C300 0.950 . S
H290 C302 0.950 . S
H291 C303 0.950 . S
C292 H284 0.950 . S
C292 C293 1.386 1_454 S
C292 C294 1.391 . S
C293 C292 1.386 1_656 S
C293 C297 1.393 . S
C294 H286 0.950 . S
C294 C292 1.391 . S
C294 C295 1.400 1_454 S
C295 C294 1.400 1_656 S
C295 C296 1.398 . S
C295 C301 1.491 1_655 S
C296 H287 0.950 . S
C296 C295 1.398 . S
C296 C297 1.391 . S
C297 H285 0.950 . S
C297 C293 1.393 . S
C297 C296 1.391 . S
C298 H288 0.950 . S
C298 C299 1.386 1_655 S
C298 C300 1.391 . S
C299 C298 1.386 1_455 S
C299 C303 1.393 1_556 S
C300 H289 0.950 . S
C300 C298 1.391 . S
C300 C301 1.400 1_655 S
C301 C295 1.491 1_455 S
C301 C300 1.400 1_455 S
C301 C302 1.398 1_556 S
C302 H290 0.950 . S
C302 C301 1.398 1_554 S
C302 C303 1.391 . S
C303 H291 0.950 . S
C303 C299 1.393 1_554 S
C303 C302 1.391 . S
H304 C312 0.950 . S
H305 C317 0.950 . S
H306 C314 0.950 . S
H307 C316 0.950 . S
H308 C318 0.950 . S
H309 C320 0.950 . S
H310 C322 0.950 . S
H311 C323 0.950 . S
C312 H304 0.950 . S
C312 C313 1.386 . S
C312 C314 1.391 . S
C313 C312 1.386 . S
C313 C317 1.393 1_545 S
C314 H306 0.950 . S
C314 C312 1.391 . S
C314 C315 1.400 . S
C315 C314 1.400 . S
C315 C316 1.398 1_545 S
C315 C321 1.491 1_545 S
C316 H307 0.950 . S
C316 C315 1.398 1_565 S
C316 C317 1.391 . S
C317 H305 0.950 . S
C317 C313 1.393 1_565 S
C317 C316 1.391 . S
C318 H308 0.950 . S
C318 C319 1.386 . S
C318 C320 1.391 . S
C319 C318 1.386 . S
C319 C323 1.393 1_565 S
C320 H309 0.950 . S
C320 C318 1.391 . S
C320 C321 1.400 . S
C321 C315 1.491 1_565 S
C321 C320 1.400 . S
C321 C322 1.398 1_565 S
C322 H310 0.950 . S
C322 C321 1.398 1_545 S
C322 C323 1.391 . S
C323 H311 0.950 . S
C323 C319 1.393 1_545 S
C323 C322 1.391 . S
C93 C77 1.258 . S
C99 C3 1.239 . S
C113 C17 1.232 . S
C119 C7 1.258 . S
C133 C21 1.258 . S
C139 C31 1.233 . S
C153 C45 1.250 . S
C159 C35 1.260 . S
C173 C59 1.233 . S
C179 C49 1.257 . S
C193 C73 1.240 . S
C199 C63 1.258 . S
C213 C9 1.477 . S
C219 C51 1.468 . S
C233 C23 1.466 . S
C239 C65 1.475 . S
C253 C79 1.466 . S
C259 C37 1.473 . S
C273 C78 1.394 . S
C279 C36 1.388 . S
C293 C50 1.381 . S
C299 C8 1.386 . S
C313 C22 1.399 . S
C319 C64 1.394 . S
