# Generated by pormake.
# Topology sow, (4)-cn, num edge types: 1
# Building blocks:
#     Node 0, Type 0, BuildingBlock: CEKHIL_clean_sbu_0, # of connection points: 4
#     Node 1, Type 0, BuildingBlock: CEKHIL_clean_sbu_0, # of connection points: 4
#     Node 2, Type 0, BuildingBlock: CEKHIL_clean_sbu_0, # of connection points: 4
#     Node 3, Type 0, BuildingBlock: CEKHIL_clean_sbu_0, # of connection points: 4
#     Node 4, Type 0, BuildingBlock: CEKHIL_clean_sbu_0, # of connection points: 4
#     Node 5, Type 0, BuildingBlock: CEKHIL_clean_sbu_0, # of connection points: 4
#     Node 6, Type 0, BuildingBlock: CEKHIL_clean_sbu_0, # of connection points: 4
#     Node 7, Type 0, BuildingBlock: CEKHIL_clean_sbu_0, # of connection points: 4
#     Edge 8, Type (0, 0), BuildingBlock: OJICUG_clean_linker_0, # of connection points: 2
#     Edge 9, Type (0, 0), BuildingBlock: OJICUG_clean_linker_0, # of connection points: 2
#     Edge 10, Type (0, 0), BuildingBlock: OJICUG_clean_linker_0, # of connection points: 2
#     Edge 11, Type (0, 0), BuildingBlock: OJICUG_clean_linker_0, # of connection points: 2
#     Edge 12, Type (0, 0), BuildingBlock: OJICUG_clean_linker_0, # of connection points: 2
#     Edge 13, Type (0, 0), BuildingBlock: OJICUG_clean_linker_0, # of connection points: 2
#     Edge 14, Type (0, 0), BuildingBlock: OJICUG_clean_linker_0, # of connection points: 2
#     Edge 15, Type (0, 0), BuildingBlock: OJICUG_clean_linker_0, # of connection points: 2
#     Edge 16, Type (0, 0), BuildingBlock: OJICUG_clean_linker_0, # of connection points: 2
#     Edge 17, Type (0, 0), BuildingBlock: OJICUG_clean_linker_0, # of connection points: 2
#     Edge 18, Type (0, 0), BuildingBlock: OJICUG_clean_linker_0, # of connection points: 2
#     Edge 19, Type (0, 0), BuildingBlock: OJICUG_clean_linker_0, # of connection points: 2
#     Edge 20, Type (0, 0), BuildingBlock: OJICUG_clean_linker_0, # of connection points: 2
#     Edge 21, Type (0, 0), BuildingBlock: OJICUG_clean_linker_0, # of connection points: 2
#     Edge 22, Type (0, 0), BuildingBlock: OJICUG_clean_linker_0, # of connection points: 2
#     Edge 23, Type (0, 0), BuildingBlock: OJICUG_clean_linker_0, # of connection points: 2
# Relax obj value: 0.168
# Max RMSD: 0.209
# Mean RMSD: 0.209
data_MOF--net-sow--node1-CEKHIL_clean_sbu_0--edge1-OJICUG_clean_linker_0
_symmetry_space_group_name_H-M    P1
_symmetry_Int_Tables_number       1
_symmetry_cell_setting            triclinic
loop_
_symmetry_equiv_pos_as_xyz
'x, y, z'
_cell_length_a     28.649036
_cell_length_b     15.847082
_cell_length_c     16.88703
_cell_angle_alpha  89.99767
_cell_angle_beta   90.032389
_cell_angle_gamma 89.931488
loop_
_atom_site_label
_atom_site_type_symbol
_atom_site_fract_x
_atom_site_fract_y
_atom_site_fract_z
_atom_type_partial_charge
Co0 Co 0.13665 0.17249 0.03195 0.0
O1 O 0.18019 0.15253 0.94768 0.0
O2 O 0.15691 0.27897 0.98737 0.0
C3 C 0.08177 0.07961 0.99445 0.0
O4 O 0.09003 0.2152 0.11348 0.0
Co5 Co 0.11722 0.02252 0.14839 0.0
O6 O 0.06909 0.10226 0.18718 0.0
C7 C 0.19985 0.12779 0.17376 0.0
C8 C 0.18051 0.23355 0.93705 0.0
C9 C 0.06567 0.17992 0.16816 0.0
O10 O 0.18783 0.17562 0.1152 0.0
O11 O 0.17889 0.059 0.19102 0.0
O12 O 0.08472 0.15251 0.95991 0.0
O13 O 0.11645 0.06054 0.04003 0.0
Co14 Co 0.34667 0.32541 0.53229 0.0
O15 O 0.30325 0.34573 0.44784 0.0
O16 O 0.32615 0.21911 0.48772 0.0
C17 C 0.40187 0.4177 0.49495 0.0
O18 O 0.39309 0.2823 0.61403 0.0
Co19 Co 0.36635 0.47525 0.64874 0.0
O20 O 0.4141 0.395 0.68803 0.0
C21 C 0.28349 0.37061 0.67391 0.0
C22 C 0.30271 0.2647 0.43727 0.0
C23 C 0.41739 0.31733 0.66898 0.0
O24 O 0.29542 0.32276 0.61534 0.0
O25 O 0.3046 0.43922 0.69129 0.0
O26 O 0.3987 0.34481 0.46046 0.0
O27 O 0.36722 0.43717 0.54039 0.0
Co28 Co 0.63795 0.32635 0.98591 0.0
O29 O 0.67933 0.34562 0.07345 0.0
O30 O 0.65768 0.2195 0.03064 0.0
C31 C 0.58167 0.4179 0.02074 0.0
O32 O 0.59365 0.28434 0.90049 0.0
Co33 Co 0.62071 0.47811 0.87034 0.0
O34 O 0.57582 0.39697 0.82393 0.0
C35 C 0.70391 0.37316 0.84848 0.0
C36 C 0.67978 0.26448 0.0832 0.0
C37 C 0.57181 0.31929 0.84253 0.0
O38 O 0.691 0.32483 0.90609 0.0
O39 O 0.68322 0.44222 0.8309 0.0
O40 O 0.58424 0.34453 0.05447 0.0
O41 O 0.61728 0.43818 0.97791 0.0
Co42 Co 0.84557 0.17161 0.48608 0.0
O43 O 0.80428 0.15254 0.57369 0.0
O44 O 0.8259 0.27858 0.53069 0.0
C45 C 0.90186 0.08009 0.52104 0.0
O46 O 0.88979 0.21327 0.40044 0.0
Co47 Co 0.86246 0.0194 0.37092 0.0
O48 O 0.90723 0.10037 0.324 0.0
C49 C 0.77945 0.1248 0.34877 0.0
C50 C 0.80384 0.23369 0.58332 0.0
C51 C 0.9114 0.17807 0.3424 0.0
O52 O 0.79244 0.17312 0.40634 0.0
O53 O 0.80001 0.05561 0.33129 0.0
O54 O 0.89933 0.15353 0.55462 0.0
O55 O 0.86618 0.05972 0.47832 0.0
Co56 Co 0.84844 0.81935 0.982 0.0
O57 O 0.80566 0.84142 0.06693 0.0
O58 O 0.82723 0.71391 0.02755 0.0
C59 C 0.90452 0.91056 0.01816 0.0
O60 O 0.89406 0.77453 0.89982 0.0
Co61 Co 0.86884 0.96822 0.86471 0.0
O62 O 0.91564 0.88635 0.82514 0.0
C63 C 0.78474 0.86629 0.84146 0.0
C64 C 0.80443 0.76051 0.078 0.0
C65 C 0.91836 0.80866 0.84441 0.0
O66 O 0.7967 0.81779 0.89961 0.0
O67 O 0.80629 0.9344 0.82397 0.0
O68 O 0.90112 0.83788 0.053 0.0
O69 O 0.86977 0.93044 0.97308 0.0
Co70 Co 0.63591 0.67618 0.48167 0.0
O71 O 0.6786 0.65375 0.56675 0.0
O72 O 0.65738 0.78143 0.52723 0.0
C73 C 0.57956 0.58552 0.51772 0.0
O74 O 0.59047 0.72142 0.39934 0.0
Co75 Co 0.61518 0.52754 0.36432 0.0
O76 O 0.56874 0.60992 0.32435 0.0
C77 C 0.69953 0.6288 0.34124 0.0
C78 C 0.68003 0.73466 0.57778 0.0
C79 C 0.56619 0.6876 0.34369 0.0
O80 O 0.68769 0.67728 0.39944 0.0
O81 O 0.6778 0.56091 0.32361 0.0
O82 O 0.58317 0.65818 0.55253 0.0
O83 O 0.61425 0.56528 0.47272 0.0
Co84 Co 0.34735 0.67729 0.02529 0.0
O85 O 0.30628 0.65589 0.93777 0.0
O86 O 0.32666 0.78309 0.9795 0.0
C87 C 0.40444 0.58694 0.99134 0.0
O88 O 0.39116 0.72136 0.11057 0.0
Co89 Co 0.36582 0.52689 0.14194 0.0
O90 O 0.41013 0.60961 0.18751 0.0
C91 C 0.28138 0.62887 0.1622 0.0
C92 C 0.30503 0.73689 0.92731 0.0
C93 C 0.41341 0.68732 0.16857 0.0
O94 O 0.29414 0.67779 0.10491 0.0
O95 O 0.30261 0.5604 0.17991 0.0
O96 O 0.40141 0.66 0.9571 0.0
O97 O 0.36894 0.56623 0.03421 0.0
Co98 Co 0.13656 0.82166 0.52531 0.0
O99 O 0.17744 0.84335 0.43766 0.0
O100 O 0.15742 0.71602 0.47949 0.0
C101 C 0.07922 0.9116 0.49153 0.0
O102 O 0.09302 0.77728 0.61075 0.0
Co103 Co 0.11798 0.97195 0.64199 0.0
O104 O 0.0741 0.88879 0.68799 0.0
C105 C 0.20263 0.87051 0.66207 0.0
C106 C 0.17889 0.76235 0.42724 0.0
C107 C 0.07092 0.81108 0.669 0.0
O108 O 0.1899 0.82156 0.60477 0.0
O109 O 0.1813 0.93884 0.67984 0.0
O110 O 0.08234 0.83857 0.45729 0.0
O111 O 0.11475 0.93256 0.53428 0.0
C112 C 0.24158 0.251 0.73902 0.0
C113 C 0.24985 0.33814 0.73325 0.0
H114 H 0.21431 0.14984 0.80864 0.0
C115 C 0.23255 0.3915 0.79329 0.0
H116 H 0.25474 0.20788 0.69451 0.0
C117 C 0.20943 0.35802 0.85919 0.0
C118 C 0.20362 0.2705 0.86684 0.0
H119 H 0.2384 0.45898 0.79085 0.0
H120 H 0.19732 0.40045 0.90511 0.0
C121 C 0.21902 0.21757 0.80525 0.0
C122 C 0.25085 0.10693 0.29312 0.0
C123 C 0.23342 0.16036 0.23321 0.0
H124 H 0.28614 0.09786 0.40492 0.0
C125 C 0.2415 0.24754 0.23921 0.0
H126 H 0.24515 0.03942 0.29049 0.0
C127 C 0.26403 0.28091 0.30555 0.0
C128 C 0.27957 0.22789 0.36699 0.0
H129 H 0.22822 0.29069 0.19482 0.0
H130 H 0.26861 0.34866 0.30912 0.0
C131 C 0.27392 0.14035 0.35912 0.0
C132 C 0.73777 0.24512 0.28394 0.0
C133 C 0.74574 0.15783 0.28961 0.0
H134 H 0.71181 0.34704 0.21364 0.0
C135 C 0.72871 0.105 0.22894 0.0
H136 H 0.75066 0.28787 0.32896 0.0
C137 C 0.70661 0.13916 0.16225 0.0
C138 C 0.70143 0.22683 0.15454 0.0
H139 H 0.73426 0.03741 0.23127 0.0
H140 H 0.69491 0.09712 0.11575 0.0
C141 C 0.71614 0.27921 0.217 0.0
C142 C 0.75452 0.39314 0.72861 0.0
C143 C 0.7377 0.34032 0.78944 0.0
H144 H 0.78821 0.40103 0.61538 0.0
C145 C 0.746 0.25312 0.78406 0.0
H146 H 0.74872 0.46068 0.73071 0.0
C147 C 0.76772 0.21906 0.71723 0.0
C148 C 0.78219 0.27139 0.6546 0.0
H149 H 0.73331 0.21037 0.82921 0.0
H150 H 0.7723 0.15127 0.71409 0.0
C151 C 0.77671 0.35902 0.66203 0.0
C152 C 0.76597 0.77879 0.20965 0.0
C153 C 0.78105 0.72487 0.14858 0.0
H154 H 0.72995 0.7905 0.31997 0.0
C155 C 0.77452 0.63759 0.15694 0.0
H156 H 0.77124 0.84635 0.20572 0.0
C157 C 0.75096 0.60539 0.22294 0.0
C158 C 0.73386 0.65979 0.28233 0.0
H159 H 0.78638 0.5944 0.11147 0.0
H160 H 0.74453 0.5381 0.22586 0.0
C161 C 0.74292 0.74661 0.27597 0.0
C162 C 0.71864 0.71616 0.70938 0.0
C163 C 0.70343 0.77017 0.64843 0.0
H164 H 0.75472 0.70438 0.81972 0.0
C165 C 0.70977 0.85746 0.65704 0.0
H166 H 0.71351 0.64858 0.70525 0.0
C167 C 0.73326 0.88963 0.72316 0.0
C168 C 0.75049 0.83517 0.78243 0.0
H169 H 0.69781 0.90073 0.61167 0.0
H170 H 0.73953 0.95696 0.72626 0.0
C171 C 0.74163 0.7483 0.77582 0.0
C172 C 0.27682 0.8605 0.84725 0.0
C173 C 0.28284 0.77309 0.85576 0.0
H174 H 0.24782 0.96058 0.7777 0.0
C175 C 0.2683 0.71956 0.79403 0.0
H176 H 0.28835 0.90342 0.89316 0.0
C177 C 0.24596 0.75222 0.72711 0.0
C178 C 0.23712 0.83917 0.72075 0.0
H179 H 0.27326 0.65191 0.79801 0.0
H180 H 0.23318 0.70858 0.68276 0.0
C181 C 0.25403 0.8932 0.78059 0.0
C182 C 0.23816 0.74724 0.2273 0.0
C183 C 0.24694 0.66027 0.22086 0.0
H184 H 0.21085 0.8475 0.2982 0.0
C185 C 0.22995 0.6062 0.28057 0.0
H186 H 0.251 0.79089 0.18304 0.0
C187 C 0.20713 0.63885 0.34717 0.0
C188 C 0.20114 0.72625 0.35575 0.0
H189 H 0.2361 0.5388 0.27761 0.0
H190 H 0.19553 0.59588 0.39297 0.0
C191 C 0.21578 0.77984 0.29415 0.0
C192 C 0.03094 0.23785 0.28954 0.0
C193 C 0.0282 0.22652 0.20723 0.0
H194 H -0.00661 0.23503 0.39912 0.0
C195 C 0.98451 0.22793 0.16994 0.0
H196 H 0.06444 0.23534 0.31929 0.0
C197 C 0.94394 0.22631 0.21561 0.0
C198 C 0.947 0.22468 0.29857 0.0
H199 H 0.98177 0.21748 0.10666 0.0
H200 H 0.91081 0.21504 0.18646 0.0
C201 C 0.99029 0.23773 0.33519 0.0
C202 C 0.49832 0.26829 0.67075 0.0
C203 C 0.45472 0.27046 0.7082 0.0
H204 H 0.57208 0.28076 0.68687 0.0
C205 C 0.45212 0.25982 0.7906 0.0
H206 H 0.50096 0.27816 0.60737 0.0
C207 C 0.49285 0.26001 0.83608 0.0
C208 C 0.5361 0.27242 0.79918 0.0
H209 H 0.41869 0.26291 0.82047 0.0
H210 H 0.4899 0.2633 0.9 0.0
C211 C 0.53899 0.26999 0.71624 0.0
C212 C -0.00766 0.75053 0.67617 0.0
C213 C 0.03584 0.76272 0.71236 0.0
H214 H 0.91831 0.75378 0.69303 0.0
C215 C 0.03928 0.75949 0.79523 0.0
H216 H 0.98896 0.75436 0.61233 0.0
C217 C -0.00109 0.75773 0.84143 0.0
C218 C 0.95507 0.76063 0.80473 0.0
H219 H 0.07258 0.77002 0.82407 0.0
H220 H 0.00202 0.76733 0.90478 0.0
C221 C 0.95191 0.75022 0.72236 0.0
C222 C 0.49232 0.74637 0.1753 0.0
C223 C 0.44879 0.73532 0.21163 0.0
H224 H 0.56635 0.74154 0.19203 0.0
C225 C 0.44548 0.73902 0.29449 0.0
H226 H 0.49558 0.74213 0.11147 0.0
C227 C 0.48592 0.74009 0.3406 0.0
C228 C 0.52969 0.73604 0.30382 0.0
H229 H 0.41215 0.72934 0.32343 0.0
H230 H 0.48284 0.73088 0.404 0.0
C231 C 0.53281 0.74597 0.2214 0.0
C232 C 0.03266 0.96008 0.04276 0.0
C233 C 0.03702 0.03404 0.9977 0.0
H234 H 0.98701 0.86377 0.08572 0.0
C235 C -0.00276 0.06818 0.96091 0.0
H236 H 0.06267 0.93257 0.07207 0.0
C237 C 0.95385 0.02935 0.96934 0.0
C238 C 0.94946 0.95547 0.01448 0.0
H239 H -0.00058 0.12562 0.92635 0.0
H240 H 0.92385 0.05698 0.94011 0.0
C241 C 0.98925 0.92119 0.05115 0.0
C242 C 0.49492 0.57533 0.55135 0.0
C243 C 0.53452 0.54091 0.51425 0.0
H244 H 0.42156 0.56434 0.57289 0.0
C245 C 0.52983 0.46717 0.46902 0.0
H246 H 0.49739 0.63264 0.58604 0.0
C247 C 0.48634 0.42861 0.46089 0.0
C248 C 0.44675 0.46291 0.49808 0.0
H249 H 0.55967 0.43943 0.43947 0.0
H250 H 0.48392 0.37128 0.42622 0.0
C251 C 0.45141 0.53672 0.54326 0.0
C252 C 0.48956 0.57652 0.96136 0.0
C253 C 0.4494 0.54205 0.9965 0.0
H254 H 0.56321 0.56521 0.94287 0.0
C255 C 0.45336 0.46788 0.04133 0.0
H256 H 0.48764 0.63415 0.92701 0.0
C257 C 0.49669 0.42894 0.05099 0.0
C258 C 0.53685 0.4633 0.01578 0.0
H259 H 0.42307 0.4401 0.0694 0.0
H260 H 0.49857 0.37131 0.08534 0.0
C261 C 0.53291 0.53753 0.97098 0.0
C262 C -0.00596 0.92167 0.46163 0.0
C263 C 0.0342 0.95626 0.49676 0.0
H264 H 0.92036 0.93279 0.44314 0.0
C265 C 0.03019 0.03039 0.54163 0.0
H266 H -0.004 0.86407 0.42726 0.0
C267 C 0.98684 0.06919 0.55131 0.0
C268 C 0.94669 0.03473 0.51608 0.0
H269 H 0.06047 0.05827 0.56969 0.0
H270 H 0.98494 0.12679 0.58569 0.0
C271 C 0.95066 0.96053 0.47127 0.0
loop_
_geom_bond_atom_site_label_1
_geom_bond_atom_site_label_2
_geom_bond_distance
_geom_bond_site_symmetry_2
_ccdc_geom_bond_type
Co0 O1 2.216 1_554 S
Co0 O2 2.091 1_554 S
Co0 O4 2.004 . S
Co0 O10 2.021 . S
Co0 O12 2.137 1_554 S
Co0 O13 2.244 . S
O1 Co0 2.216 1_556 S
O1 C8 1.247 . S
O2 Co0 2.091 1_556 S
O2 C8 1.261 . S
C3 O12 1.247 1_554 S
C3 O13 1.272 . S
O4 Co0 2.004 . S
O4 C9 1.259 . S
Co5 O6 2.061 . S
Co5 O11 2.052 . S
Co5 O13 2.135 . S
O6 Co5 2.061 . S
O6 C9 1.235 . S
C7 O10 1.238 . S
C7 O11 1.241 . S
C8 O1 1.247 . S
C8 O2 1.261 . S
C9 O4 1.259 . S
C9 O6 1.235 . S
O10 Co0 2.021 . S
O10 C7 1.238 . S
O11 Co5 2.052 . S
O11 C7 1.241 . S
O12 Co0 2.137 1_556 S
O12 C3 1.247 1_556 S
O13 Co0 2.244 . S
O13 C3 1.272 . S
O13 Co5 2.135 . S
Co14 O15 2.216 . S
Co14 O16 2.091 . S
Co14 O18 2.004 . S
Co14 O24 2.021 . S
Co14 O26 2.137 . S
Co14 O27 2.244 . S
O15 Co14 2.216 . S
O15 C22 1.247 . S
O16 Co14 2.091 . S
O16 C22 1.261 . S
C17 O26 1.247 . S
C17 O27 1.272 . S
O18 Co14 2.004 . S
O18 C23 1.259 . S
Co19 O20 2.061 . S
Co19 O25 2.052 . S
Co19 O27 2.135 . S
O20 Co19 2.061 . S
O20 C23 1.235 . S
C21 O24 1.238 . S
C21 O25 1.241 . S
C22 O15 1.247 . S
C22 O16 1.261 . S
C23 O18 1.259 . S
C23 O20 1.235 . S
O24 Co14 2.021 . S
O24 C21 1.238 . S
O25 Co19 2.052 . S
O25 C21 1.241 . S
O26 Co14 2.137 . S
O26 C17 1.247 . S
O27 Co14 2.244 . S
O27 C17 1.272 . S
O27 Co19 2.135 . S
Co28 O29 2.216 1_556 S
Co28 O30 2.091 1_556 S
Co28 O32 2.004 . S
Co28 O38 2.021 . S
Co28 O40 2.137 1_556 S
Co28 O41 2.244 . S
O29 Co28 2.216 1_554 S
O29 C36 1.247 . S
O30 Co28 2.091 1_554 S
O30 C36 1.261 . S
C31 O40 1.247 1_556 S
C31 O41 1.272 . S
O32 Co28 2.004 . S
O32 C37 1.259 . S
Co33 O34 2.061 . S
Co33 O39 2.052 . S
Co33 O41 2.135 . S
O34 Co33 2.061 . S
O34 C37 1.235 . S
C35 O38 1.238 . S
C35 O39 1.241 . S
C36 O29 1.247 . S
C36 O30 1.261 . S
C37 O32 1.259 . S
C37 O34 1.235 . S
O38 Co28 2.021 . S
O38 C35 1.238 . S
O39 Co33 2.052 . S
O39 C35 1.241 . S
O40 Co28 2.137 1_554 S
O40 C31 1.247 1_554 S
O41 Co28 2.244 . S
O41 C31 1.272 . S
O41 Co33 2.135 . S
Co42 O43 2.216 . S
Co42 O44 2.091 . S
Co42 O46 2.004 . S
Co42 O52 2.021 . S
Co42 O54 2.137 . S
Co42 O55 2.244 . S
O43 Co42 2.216 . S
O43 C50 1.247 . S
O44 Co42 2.091 . S
O44 C50 1.261 . S
C45 O54 1.247 . S
C45 O55 1.272 . S
O46 Co42 2.004 . S
O46 C51 1.259 . S
Co47 O48 2.061 . S
Co47 O53 2.052 . S
Co47 O55 2.135 . S
O48 Co47 2.061 . S
O48 C51 1.235 . S
C49 O52 1.238 . S
C49 O53 1.241 . S
C50 O43 1.247 . S
C50 O44 1.261 . S
C51 O46 1.259 . S
C51 O48 1.235 . S
O52 Co42 2.021 . S
O52 C49 1.238 . S
O53 Co47 2.052 . S
O53 C49 1.241 . S
O54 Co42 2.137 . S
O54 C45 1.247 . S
O55 Co42 2.244 . S
O55 C45 1.272 . S
O55 Co47 2.135 . S
Co56 O57 2.216 1_556 S
Co56 O58 2.091 1_556 S
Co56 O60 2.004 . S
Co56 O66 2.021 . S
Co56 O68 2.137 1_556 S
Co56 O69 2.244 . S
O57 Co56 2.216 1_554 S
O57 C64 1.247 . S
O58 Co56 2.091 1_554 S
O58 C64 1.261 . S
C59 O68 1.247 1_556 S
C59 O69 1.272 . S
O60 Co56 2.004 . S
O60 C65 1.259 . S
Co61 O62 2.061 . S
Co61 O67 2.052 . S
Co61 O69 2.135 . S
O62 Co61 2.061 . S
O62 C65 1.235 . S
C63 O66 1.238 . S
C63 O67 1.241 . S
C64 O57 1.247 . S
C64 O58 1.261 . S
C65 O60 1.259 . S
C65 O62 1.235 . S
O66 Co56 2.021 . S
O66 C63 1.238 . S
O67 Co61 2.052 . S
O67 C63 1.241 . S
O68 Co56 2.137 1_554 S
O68 C59 1.247 1_554 S
O69 Co56 2.244 . S
O69 C59 1.272 . S
O69 Co61 2.135 . S
Co70 O71 2.216 . S
Co70 O72 2.091 . S
Co70 O74 2.004 . S
Co70 O80 2.021 . S
Co70 O82 2.137 . S
Co70 O83 2.244 . S
O71 Co70 2.216 . S
O71 C78 1.247 . S
O72 Co70 2.091 . S
O72 C78 1.261 . S
C73 O82 1.247 . S
C73 O83 1.272 . S
O74 Co70 2.004 . S
O74 C79 1.259 . S
Co75 O76 2.061 . S
Co75 O81 2.052 . S
Co75 O83 2.135 . S
O76 Co75 2.061 . S
O76 C79 1.235 . S
C77 O80 1.238 . S
C77 O81 1.241 . S
C78 O71 1.247 . S
C78 O72 1.261 . S
C79 O74 1.259 . S
C79 O76 1.235 . S
O80 Co70 2.021 . S
O80 C77 1.238 . S
O81 Co75 2.052 . S
O81 C77 1.241 . S
O82 Co70 2.137 . S
O82 C73 1.247 . S
O83 Co70 2.244 . S
O83 C73 1.272 . S
O83 Co75 2.135 . S
Co84 O85 2.216 1_554 S
Co84 O86 2.091 1_554 S
Co84 O88 2.004 . S
Co84 O94 2.021 . S
Co84 O96 2.137 1_554 S
Co84 O97 2.244 . S
O85 Co84 2.216 1_556 S
O85 C92 1.247 . S
O86 Co84 2.091 1_556 S
O86 C92 1.261 . S
C87 O96 1.247 1_554 S
C87 O97 1.272 . S
O88 Co84 2.004 . S
O88 C93 1.259 . S
Co89 O90 2.061 . S
Co89 O95 2.052 . S
Co89 O97 2.135 . S
O90 Co89 2.061 . S
O90 C93 1.235 . S
C91 O94 1.238 . S
C91 O95 1.241 . S
C92 O85 1.247 . S
C92 O86 1.261 . S
C93 O88 1.259 . S
C93 O90 1.235 . S
O94 Co84 2.021 . S
O94 C91 1.238 . S
O95 Co89 2.052 . S
O95 C91 1.241 . S
O96 Co84 2.137 1_556 S
O96 C87 1.247 1_556 S
O97 Co84 2.244 . S
O97 C87 1.272 . S
O97 Co89 2.135 . S
Co98 O99 2.216 . S
Co98 O100 2.091 . S
Co98 O102 2.004 . S
Co98 O108 2.021 . S
Co98 O110 2.137 . S
Co98 O111 2.244 . S
O99 Co98 2.216 . S
O99 C106 1.247 . S
O100 Co98 2.091 . S
O100 C106 1.261 . S
C101 O110 1.247 . S
C101 O111 1.272 . S
O102 Co98 2.004 . S
O102 C107 1.259 . S
Co103 O104 2.061 . S
Co103 O109 2.052 . S
Co103 O111 2.135 . S
O104 Co103 2.061 . S
O104 C107 1.235 . S
C105 O108 1.238 . S
C105 O109 1.241 . S
C106 O99 1.247 . S
C106 O100 1.261 . S
C107 O102 1.259 . S
C107 O104 1.235 . S
O108 Co98 2.021 . S
O108 C105 1.238 . S
O109 Co103 2.052 . S
O109 C105 1.241 . S
O110 Co98 2.137 . S
O110 C101 1.247 . S
O111 Co98 2.244 . S
O111 C101 1.272 . S
O111 Co103 2.135 . S
C112 C113 1.387 . S
C112 H116 0.950 . S
C112 C121 1.390 . S
C113 C112 1.387 . S
C113 C115 1.387 . S
H114 C121 0.950 . S
C115 C113 1.387 . S
C115 C117 1.390 . S
C115 H119 0.950 . S
H116 C112 0.950 . S
C117 C115 1.390 . S
C117 C118 1.387 . S
C117 H120 0.950 . S
C118 C117 1.387 . S
C118 C121 1.387 . S
H119 C115 0.950 . S
H120 C117 0.950 . S
C121 C112 1.390 . S
C121 H114 0.950 . S
C121 C118 1.387 . S
C122 C123 1.387 . S
C122 H126 0.950 . S
C122 C131 1.390 . S
C123 C122 1.387 . S
C123 C125 1.387 . S
H124 C131 0.950 . S
C125 C123 1.387 . S
C125 C127 1.390 . S
C125 H129 0.950 . S
H126 C122 0.950 . S
C127 C125 1.390 . S
C127 C128 1.387 . S
C127 H130 0.950 . S
C128 C127 1.387 . S
C128 C131 1.387 . S
H129 C125 0.950 . S
H130 C127 0.950 . S
C131 C122 1.390 . S
C131 H124 0.950 . S
C131 C128 1.387 . S
C132 C133 1.387 . S
C132 H136 0.950 . S
C132 C141 1.390 . S
C133 C132 1.387 . S
C133 C135 1.387 . S
H134 C141 0.950 . S
C135 C133 1.387 . S
C135 C137 1.390 . S
C135 H139 0.950 . S
H136 C132 0.950 . S
C137 C135 1.390 . S
C137 C138 1.387 . S
C137 H140 0.950 . S
C138 C137 1.387 . S
C138 C141 1.387 . S
H139 C135 0.950 . S
H140 C137 0.950 . S
C141 C132 1.390 . S
C141 H134 0.950 . S
C141 C138 1.387 . S
C142 C143 1.387 . S
C142 H146 0.950 . S
C142 C151 1.390 . S
C143 C142 1.387 . S
C143 C145 1.387 . S
H144 C151 0.950 . S
C145 C143 1.387 . S
C145 C147 1.390 . S
C145 H149 0.950 . S
H146 C142 0.950 . S
C147 C145 1.390 . S
C147 C148 1.387 . S
C147 H150 0.950 . S
C148 C147 1.387 . S
C148 C151 1.387 . S
H149 C145 0.950 . S
H150 C147 0.950 . S
C151 C142 1.390 . S
C151 H144 0.950 . S
C151 C148 1.387 . S
C152 C153 1.387 . S
C152 H156 0.950 . S
C152 C161 1.390 . S
C153 C152 1.387 . S
C153 C155 1.387 . S
H154 C161 0.950 . S
C155 C153 1.387 . S
C155 C157 1.390 . S
C155 H159 0.950 . S
H156 C152 0.950 . S
C157 C155 1.390 . S
C157 C158 1.387 . S
C157 H160 0.950 . S
C158 C157 1.387 . S
C158 C161 1.387 . S
H159 C155 0.950 . S
H160 C157 0.950 . S
C161 C152 1.390 . S
C161 H154 0.950 . S
C161 C158 1.387 . S
C162 C163 1.387 . S
C162 H166 0.950 . S
C162 C171 1.390 . S
C163 C162 1.387 . S
C163 C165 1.387 . S
H164 C171 0.950 . S
C165 C163 1.387 . S
C165 C167 1.390 . S
C165 H169 0.950 . S
H166 C162 0.950 . S
C167 C165 1.390 . S
C167 C168 1.387 . S
C167 H170 0.950 . S
C168 C167 1.387 . S
C168 C171 1.387 . S
H169 C165 0.950 . S
H170 C167 0.950 . S
C171 C162 1.390 . S
C171 H164 0.950 . S
C171 C168 1.387 . S
C172 C173 1.387 . S
C172 H176 0.950 . S
C172 C181 1.390 . S
C173 C172 1.387 . S
C173 C175 1.387 . S
H174 C181 0.950 . S
C175 C173 1.387 . S
C175 C177 1.390 . S
C175 H179 0.950 . S
H176 C172 0.950 . S
C177 C175 1.390 . S
C177 C178 1.387 . S
C177 H180 0.950 . S
C178 C177 1.387 . S
C178 C181 1.387 . S
H179 C175 0.950 . S
H180 C177 0.950 . S
C181 C172 1.390 . S
C181 H174 0.950 . S
C181 C178 1.387 . S
C182 C183 1.387 . S
C182 H186 0.950 . S
C182 C191 1.390 . S
C183 C182 1.387 . S
C183 C185 1.387 . S
H184 C191 0.950 . S
C185 C183 1.387 . S
C185 C187 1.390 . S
C185 H189 0.950 . S
H186 C182 0.950 . S
C187 C185 1.390 . S
C187 C188 1.387 . S
C187 H190 0.950 . S
C188 C187 1.387 . S
C188 C191 1.387 . S
H189 C185 0.950 . S
H190 C187 0.950 . S
C191 C182 1.390 . S
C191 H184 0.950 . S
C191 C188 1.387 . S
C192 C193 1.387 . S
C192 H196 0.950 . S
C192 C201 1.390 1_455 S
C193 C192 1.387 . S
C193 C195 1.387 . S
H194 C201 0.950 . S
C195 C193 1.387 . S
C195 C197 1.390 1_455 S
C195 H199 0.950 . S
H196 C192 0.950 . S
C197 C195 1.390 1_655 S
C197 C198 1.387 . S
C197 H200 0.950 . S
C198 C197 1.387 . S
C198 C201 1.387 . S
H199 C195 0.950 . S
H200 C197 0.950 . S
C201 C192 1.390 1_655 S
C201 H194 0.950 . S
C201 C198 1.387 . S
C202 C203 1.387 . S
C202 H206 0.950 . S
C202 C211 1.390 . S
C203 C202 1.387 . S
C203 C205 1.387 . S
H204 C211 0.950 . S
C205 C203 1.387 . S
C205 C207 1.390 . S
C205 H209 0.950 . S
H206 C202 0.950 . S
C207 C205 1.390 . S
C207 C208 1.387 . S
C207 H210 0.950 . S
C208 C207 1.387 . S
C208 C211 1.387 . S
H209 C205 0.950 . S
H210 C207 0.950 . S
C211 C202 1.390 . S
C211 H204 0.950 . S
C211 C208 1.387 . S
C212 C213 1.387 . S
C212 H216 0.950 . S
C212 C221 1.390 1_455 S
C213 C212 1.387 . S
C213 C215 1.387 . S
H214 C221 0.950 . S
C215 C213 1.387 . S
C215 C217 1.390 1_455 S
C215 H219 0.950 . S
H216 C212 0.950 . S
C217 C215 1.390 1_655 S
C217 C218 1.387 . S
C217 H220 0.950 . S
C218 C217 1.387 . S
C218 C221 1.387 . S
H219 C215 0.950 . S
H220 C217 0.950 . S
C221 C212 1.390 1_655 S
C221 H214 0.950 . S
C221 C218 1.387 . S
C222 C223 1.387 . S
C222 H226 0.950 . S
C222 C231 1.390 . S
C223 C222 1.387 . S
C223 C225 1.387 . S
H224 C231 0.950 . S
C225 C223 1.387 . S
C225 C227 1.390 . S
C225 H229 0.950 . S
H226 C222 0.950 . S
C227 C225 1.390 . S
C227 C228 1.387 . S
C227 H230 0.950 . S
C228 C227 1.387 . S
C228 C231 1.387 . S
H229 C225 0.950 . S
H230 C227 0.950 . S
C231 C222 1.390 . S
C231 H224 0.950 . S
C231 C228 1.387 . S
C232 C233 1.387 . S
C232 H236 0.950 . S
C232 C241 1.390 1_445 S
C233 C232 1.387 . S
C233 C235 1.387 1_554 S
H234 C241 0.950 . S
C235 C233 1.387 1_556 S
C235 C237 1.390 1_445 S
C235 H239 0.950 . S
H236 C232 0.950 . S
C237 C235 1.390 1_665 S
C237 C238 1.387 . S
C237 H240 0.950 . S
C238 C237 1.387 . S
C238 C241 1.387 1_556 S
H239 C235 0.950 . S
H240 C237 0.950 . S
C241 C232 1.390 1_665 S
C241 H234 0.950 . S
C241 C238 1.387 1_554 S
C242 C243 1.387 . S
C242 H246 0.950 . S
C242 C251 1.390 . S
C243 C242 1.387 . S
C243 C245 1.387 . S
H244 C251 0.950 . S
C245 C243 1.387 . S
C245 C247 1.390 . S
C245 H249 0.950 . S
H246 C242 0.950 . S
C247 C245 1.390 . S
C247 C248 1.387 . S
C247 H250 0.950 . S
C248 C247 1.387 . S
C248 C251 1.387 . S
H249 C245 0.950 . S
H250 C247 0.950 . S
C251 C242 1.390 . S
C251 H244 0.950 . S
C251 C248 1.387 . S
C252 C253 1.387 1_556 S
C252 H256 0.950 . S
C252 C261 1.390 . S
C253 C252 1.387 1_554 S
C253 C255 1.387 . S
H254 C261 0.950 . S
C255 C253 1.387 . S
C255 C257 1.390 . S
C255 H259 0.950 . S
H256 C252 0.950 . S
C257 C255 1.390 . S
C257 C258 1.387 1_554 S
C257 H260 0.950 . S
C258 C257 1.387 1_556 S
C258 C261 1.387 . S
H259 C255 0.950 . S
H260 C257 0.950 . S
C261 C252 1.390 . S
C261 H254 0.950 . S
C261 C258 1.387 . S
C262 C263 1.387 . S
C262 H266 0.950 . S
C262 C271 1.390 1_465 S
C263 C262 1.387 . S
C263 C265 1.387 . S
H264 C271 0.950 . S
C265 C263 1.387 . S
C265 C267 1.390 1_465 S
C265 H269 0.950 . S
H266 C262 0.950 . S
C267 C265 1.390 1_645 S
C267 C268 1.387 . S
C267 H270 0.950 . S
C268 C267 1.387 . S
C268 C271 1.387 . S
H269 C265 0.950 . S
H270 C267 0.950 . S
C271 C262 1.390 1_645 S
C271 H264 0.950 . S
C271 C268 1.387 . S
C113 C21 1.619 . S
C118 C8 1.645 . S
C123 C7 1.616 . S
C128 C22 1.645 . S
C133 C49 1.619 . S
C138 C36 1.645 . S
C143 C35 1.616 . S
C148 C50 1.644 . S
C153 C64 1.645 . S
C158 C77 1.617 . S
C163 C78 1.645 . S
C168 C63 1.616 . S
C173 C92 1.645 . S
C178 C105 1.619 . S
C183 C91 1.616 . S
C188 C106 1.644 . S
C193 C9 0.812 . S
C198 C51 0.812 . S
C203 C23 0.815 . S
C208 C37 0.815 . S
C213 C107 0.815 . S
C218 C65 0.815 . S
C223 C93 0.815 . S
C228 C79 0.815 . S
C233 C3 1.580 . S
C238 C59 1.580 . S
C243 C73 1.580 . S
C248 C17 1.580 . S
C253 C87 1.580 . S
C258 C31 1.580 . S
C263 C101 1.580 . S
C268 C45 1.580 . S
