# Generated by pormake.
# Topology acs-a, (4)-cn, num edge types: 1
# Building blocks:
#     Node 0, Type 0, BuildingBlock: ICAMEG_clean_sbu_1, # of connection points: 4
#     Node 1, Type 0, BuildingBlock: ICAMEG_clean_sbu_1, # of connection points: 4
#     Node 2, Type 0, BuildingBlock: ICAMEG_clean_sbu_1, # of connection points: 4
#     Node 3, Type 0, BuildingBlock: ICAMEG_clean_sbu_1, # of connection points: 4
#     Node 4, Type 0, BuildingBlock: ICAMEG_clean_sbu_1, # of connection points: 4
#     Node 5, Type 0, BuildingBlock: ICAMEG_clean_sbu_1, # of connection points: 4
#     Node 6, Type 0, BuildingBlock: ICAMEG_clean_sbu_1, # of connection points: 4
#     Node 7, Type 0, BuildingBlock: ICAMEG_clean_sbu_1, # of connection points: 4
#     Node 8, Type 0, BuildingBlock: ICAMEG_clean_sbu_1, # of connection points: 4
#     Node 9, Type 0, BuildingBlock: ICAMEG_clean_sbu_1, # of connection points: 4
#     Node 10, Type 0, BuildingBlock: ICAMEG_clean_sbu_1, # of connection points: 4
#     Node 11, Type 0, BuildingBlock: ICAMEG_clean_sbu_1, # of connection points: 4
#     Edge 12, Type (0, 0), BuildingBlock: TEMPAE_clean_linker_10, # of connection points: 2
#     Edge 13, Type (0, 0), BuildingBlock: TEMPAE_clean_linker_10, # of connection points: 2
#     Edge 14, Type (0, 0), BuildingBlock: TEMPAE_clean_linker_10, # of connection points: 2
#     Edge 15, Type (0, 0), BuildingBlock: TEMPAE_clean_linker_10, # of connection points: 2
#     Edge 16, Type (0, 0), BuildingBlock: TEMPAE_clean_linker_10, # of connection points: 2
#     Edge 17, Type (0, 0), BuildingBlock: TEMPAE_clean_linker_10, # of connection points: 2
#     Edge 18, Type (0, 0), BuildingBlock: TEMPAE_clean_linker_10, # of connection points: 2
#     Edge 19, Type (0, 0), BuildingBlock: TEMPAE_clean_linker_10, # of connection points: 2
#     Edge 20, Type (0, 0), BuildingBlock: TEMPAE_clean_linker_10, # of connection points: 2
#     Edge 21, Type (0, 0), BuildingBlock: TEMPAE_clean_linker_10, # of connection points: 2
#     Edge 22, Type (0, 0), BuildingBlock: TEMPAE_clean_linker_10, # of connection points: 2
#     Edge 23, Type (0, 0), BuildingBlock: TEMPAE_clean_linker_10, # of connection points: 2
#     Edge 24, Type (0, 0), BuildingBlock: TEMPAE_clean_linker_10, # of connection points: 2
#     Edge 25, Type (0, 0), BuildingBlock: TEMPAE_clean_linker_10, # of connection points: 2
#     Edge 26, Type (0, 0), BuildingBlock: TEMPAE_clean_linker_10, # of connection points: 2
#     Edge 27, Type (0, 0), BuildingBlock: TEMPAE_clean_linker_10, # of connection points: 2
#     Edge 28, Type (0, 0), BuildingBlock: TEMPAE_clean_linker_10, # of connection points: 2
#     Edge 29, Type (0, 0), BuildingBlock: TEMPAE_clean_linker_10, # of connection points: 2
#     Edge 30, Type (0, 0), BuildingBlock: TEMPAE_clean_linker_10, # of connection points: 2
#     Edge 31, Type (0, 0), BuildingBlock: TEMPAE_clean_linker_10, # of connection points: 2
#     Edge 32, Type (0, 0), BuildingBlock: TEMPAE_clean_linker_10, # of connection points: 2
#     Edge 33, Type (0, 0), BuildingBlock: TEMPAE_clean_linker_10, # of connection points: 2
#     Edge 34, Type (0, 0), BuildingBlock: TEMPAE_clean_linker_10, # of connection points: 2
#     Edge 35, Type (0, 0), BuildingBlock: TEMPAE_clean_linker_10, # of connection points: 2
# Relax obj value: 0.495
# Max RMSD: 0.318
# Mean RMSD: 0.247
data_MOF--net-acs-a--node1-ICAMEG_clean_sbu_1--edge1-TEMPAE_clean_linker_10
_symmetry_space_group_name_H-M    P1
_symmetry_Int_Tables_number       1
_symmetry_cell_setting            triclinic
loop_
_symmetry_equiv_pos_as_xyz
'x, y, z'
_cell_length_a     55.080882
_cell_length_b     45.301846
_cell_length_c     44.514158
_cell_angle_alpha  89.995208
_cell_angle_beta   89.992648
_cell_angle_gamma 114.29589
loop_
_atom_site_label
_atom_site_type_symbol
_atom_site_fract_x
_atom_site_fract_y
_atom_site_fract_z
_atom_type_partial_charge
Co0 Co 0.61908 0.16429 0.10367 0.0
Co1 Co 0.59789 0.13069 0.03492 0.0
O2 O 0.59504 0.12856 0.07875 0.0
C3 C 0.60612 0.10302 0.1402 0.0
O4 O 0.5914 0.08439 0.11873 0.0
C5 C 0.53952 0.11055 0.04281 0.0
O6 O 0.5445 0.13611 0.05976 0.0
O7 O 0.59251 0.17151 0.03539 0.0
O8 O 0.62088 0.19688 0.07248 0.0
H9 H 0.63093 0.18612 0.93601 0.0
H10 H 0.5653 0.11856 0.12617 0.0
O11 O 0.61845 0.13351 0.13649 0.0
H12 H 0.56767 0.22779 0.13799 0.0
H13 H 0.65439 0.22353 0.20086 0.0
H14 H 0.66706 0.22478 0.09117 0.0
H15 H 0.60633 0.22063 0.11736 0.0
H16 H 0.62309 0.17972 0.1693 0.0
O17 O 0.55854 0.10497 0.0317 0.0
H18 H 0.62751 0.18243 0.99124 0.0
H19 H 0.57262 0.08386 0.98521 0.0
H20 H 0.69867 0.26905 0.12179 0.0
H21 H 0.52653 0.12469 0.14748 0.0
H22 H 0.69251 0.26865 0.17718 0.0
H23 H 0.52741 0.17962 0.15346 0.0
O24 O 0.6502 0.15996 0.085 0.0
H25 H 0.57593 0.01526 0.06373 0.0
H26 H 0.63711 0.10951 0.00616 0.0
H27 H 0.64414 0.05918 0.0064 0.0
H28 H 0.61338 0.01155 0.03528 0.0
H29 H 0.5698 0.0662 0.06311 0.0
H30 H 0.57523 0.08658 0.92989 0.0
H31 H 0.60465 0.13795 0.90494 0.0
O32 O 0.63754 0.15623 0.03687 0.0
C33 C 0.6061 0.19681 0.0505 0.0
C34 C 0.61809 0.16358 0.94662 0.0
C35 C 0.5868 0.10772 0.94318 0.0
N36 N 0.60005 0.1329 0.99143 0.0
C37 C 0.61612 0.16132 0.97789 0.0
C38 C 0.58536 0.10635 0.97451 0.0
C39 C 0.60333 0.13655 0.9292 0.0
C40 C 0.5663 0.14257 0.12933 0.0
N41 N 0.58855 0.16917 0.12127 0.0
C42 C 0.54407 0.14589 0.14116 0.0
C43 C 0.54454 0.17671 0.14444 0.0
C44 C 0.56712 0.20372 0.1358 0.0
C45 C 0.589 0.19947 0.12416 0.0
C46 C 0.65735 0.22394 0.17679 0.0
C47 C 0.66416 0.22434 0.11518 0.0
C48 C 0.63976 0.19909 0.1588 0.0
N49 N 0.64333 0.19945 0.12837 0.0
C50 C 0.68217 0.24955 0.13246 0.0
C51 C 0.67872 0.24929 0.16348 0.0
C52 C 0.65554 0.16248 0.05696 0.0
C53 C 0.5895 0.03586 0.0511 0.0
C54 C 0.6238 0.08903 0.01905 0.0
C55 C 0.6278 0.06052 0.01896 0.0
C56 C 0.61052 0.0338 0.03514 0.0
N57 N 0.60317 0.09089 0.03481 0.0
C58 C 0.58611 0.06476 0.05065 0.0
Co59 Co 0.36452 0.51988 0.58288 0.0
Co60 Co 0.38748 0.52548 0.51046 0.0
O61 O 0.38514 0.50965 0.55202 0.0
C62 C 0.40251 0.5436 0.63323 0.0
O63 O 0.40157 0.57184 0.62938 0.0
C64 C 0.38065 0.45639 0.50523 0.0
O65 O 0.36582 0.44834 0.52948 0.0
O66 O 0.34779 0.50631 0.50693 0.0
O67 O 0.33743 0.51851 0.55281 0.0
H68 H 0.36398 0.57938 0.42323 0.0
H69 H 0.37962 0.46519 0.59477 0.0
O70 O 0.39116 0.52097 0.61425 0.0
H71 H 0.28141 0.41727 0.59586 0.0
H72 H 0.32201 0.51106 0.68483 0.0
H73 H 0.33807 0.56513 0.58608 0.0
H74 H 0.30671 0.47569 0.58685 0.0
H75 H 0.34702 0.49698 0.64563 0.0
O76 O 0.38902 0.48499 0.49478 0.0
H77 H 0.36108 0.55973 0.47529 0.0
H78 H 0.41939 0.52353 0.45686 0.0
H79 H 0.31296 0.57992 0.62466 0.0
H80 H 0.35508 0.40675 0.60455 0.0
H81 H 0.30474 0.55279 0.67444 0.0
H82 H 0.30561 0.38239 0.60498 0.0
O83 O 0.3846 0.56698 0.57447 0.0
H84 H 0.4762 0.52637 0.53867 0.0
H85 H 0.43044 0.59036 0.49633 0.0
H86 H 0.47934 0.6153 0.50145 0.0
H87 H 0.50256 0.58317 0.52259 0.0
H88 H 0.42735 0.50244 0.53335 0.0
H89 H 0.42275 0.54244 0.40449 0.0
H90 H 0.39502 0.57075 0.38738 0.0
O91 O 0.38656 0.56688 0.52423 0.0
C92 C 0.33162 0.51 0.52557 0.0
C93 C 0.3762 0.56712 0.43041 0.0
C94 C 0.40916 0.54636 0.41989 0.0
N95 N 0.39006 0.54061 0.46923 0.0
C96 C 0.37465 0.55598 0.45991 0.0
C97 C 0.40708 0.5356 0.44957 0.0
C98 C 0.3936 0.56225 0.41031 0.0
C99 C 0.35811 0.45486 0.59531 0.0
N100 N 0.34466 0.47389 0.5903 0.0
C101 C 0.34431 0.42171 0.60069 0.0
C102 C 0.31655 0.40805 0.60087 0.0
C103 C 0.30297 0.42759 0.59571 0.0
C104 C 0.31742 0.46065 0.59044 0.0
C105 C 0.32544 0.52304 0.66322 0.0
C106 C 0.33462 0.5532 0.60768 0.0
C107 C 0.33962 0.5152 0.64092 0.0
N108 N 0.34414 0.5303 0.61358 0.0
C109 C 0.32036 0.56168 0.62944 0.0
C110 C 0.31576 0.54646 0.65737 0.0
C111 C 0.38813 0.58135 0.54916 0.0
C112 C 0.46632 0.54055 0.52925 0.0
C113 C 0.44037 0.57624 0.50566 0.0
C114 C 0.46808 0.59048 0.50844 0.0
C115 C 0.4811 0.57244 0.52028 0.0
N116 N 0.42602 0.54484 0.51427 0.0
C117 C 0.43865 0.52709 0.5261 0.0
Co118 Co 0.86025 0.41184 0.02049 0.0
Co119 Co 0.82847 0.37909 0.08589 0.0
O120 O 0.86156 0.40134 0.06318 0.0
C121 C 0.90106 0.38416 0.02146 0.0
O122 O 0.88518 0.35984 0.03794 0.0
C123 C 0.86775 0.42336 0.1317 0.0
O124 O 0.88681 0.43669 0.11188 0.0
O125 O 0.81749 0.41452 0.07596 0.0
O126 O 0.82697 0.41916 0.02681 0.0
H127 H 0.72944 0.33683 0.10131 0.0
H128 H 0.90984 0.44712 0.05495 0.0
O129 O 0.89369 0.40596 0.01279 0.0
H130 H 0.88278 0.53153 0.01752 0.0
H131 H 0.89966 0.46345 0.92159 0.0
H132 H 0.81738 0.39403 0.97487 0.0
H133 H 0.85632 0.47408 0.00532 0.0
H134 H 0.90088 0.45089 0.97532 0.0
O135 O 0.84514 0.40191 0.12393 0.0
H136 H 0.77146 0.3631 0.0732 0.0
H137 H 0.81467 0.34889 0.14676 0.0
H138 H 0.8152 0.40628 0.92121 0.0
H139 H 0.9371 0.50435 0.0674 0.0
H140 H 0.85655 0.44121 0.8942 0.0
H141 H 0.92356 0.54702 0.04872 0.0
O142 O 0.83853 0.36509 0.0114 0.0
H143 H 0.89306 0.33194 0.11695 0.0
H144 H 0.80133 0.30704 0.08377 0.0
H145 H 0.81481 0.26238 0.09355 0.0
H146 H 0.86092 0.27468 0.11043 0.0
H147 H 0.87893 0.3758 0.10637 0.0
H148 H 0.77312 0.3229 0.17579 0.0
H149 H 0.73017 0.31695 0.15316 0.0
O150 O 0.80976 0.35502 0.04955 0.0
C151 C 0.81496 0.42395 0.0496 0.0
C152 C 0.74806 0.33939 0.11145 0.0
C153 C 0.77258 0.3316 0.15326 0.0
N154 N 0.79555 0.35756 0.10828 0.0
C155 C 0.77194 0.35418 0.09561 0.0
C156 C 0.79606 0.34645 0.13674 0.0
C157 C 0.74847 0.32817 0.14051 0.0
C158 C 0.90385 0.46554 0.04666 0.0
N159 N 0.88139 0.45719 0.02959 0.0
C160 C 0.91935 0.49791 0.05382 0.0
C161 C 0.91173 0.52184 0.04335 0.0
C162 C 0.88884 0.51316 0.02588 0.0
C163 C 0.87384 0.48054 0.01918 0.0
C164 C 0.8815 0.4482 0.93311 0.0
C165 C 0.83545 0.40935 0.9633 0.0
C166 C 0.88209 0.4409 0.96351 0.0
N167 N 0.85921 0.42181 0.97825 0.0
C168 C 0.83409 0.41615 0.9329 0.0
C169 C 0.85731 0.43573 0.91776 0.0
C170 C 0.81671 0.34772 0.02441 0.0
C171 C 0.87282 0.32625 0.10987 0.0
C172 C 0.82143 0.31266 0.09116 0.0
C173 C 0.82893 0.28723 0.09667 0.0
C174 C 0.85481 0.29414 0.10613 0.0
N175 N 0.83917 0.34415 0.09501 0.0
C176 C 0.86462 0.35106 0.1041 0.0
Co177 Co 0.39085 0.84536 0.60552 0.0
Co178 Co 0.40488 0.87201 0.53339 0.0
O179 O 0.41171 0.87824 0.57643 0.0
C180 C 0.37803 0.8844 0.65085 0.0
O181 O 0.3528 0.86734 0.64443 0.0
C182 C 0.46335 0.89087 0.53577 0.0
O183 O 0.45906 0.86654 0.55414 0.0
O184 O 0.40913 0.83045 0.53512 0.0
O185 O 0.38582 0.80934 0.577 0.0
H186 H 0.36214 0.80869 0.44068 0.0
H187 H 0.44422 0.8947 0.62248 0.0
O188 O 0.39596 0.88081 0.63512 0.0
H189 H 0.44951 0.7894 0.63545 0.0
H190 H 0.3692 0.7955 0.70886 0.0
H191 H 0.34113 0.78509 0.60281 0.0
H192 H 0.40775 0.7919 0.61877 0.0
H193 H 0.39606 0.83581 0.67142 0.0
O194 O 0.44392 0.89624 0.52559 0.0
H195 H 0.37052 0.81713 0.4951 0.0
H196 H 0.42641 0.91381 0.4795 0.0
H197 H 0.31372 0.74423 0.63946 0.0
H198 H 0.48628 0.89326 0.63966 0.0
H199 H 0.32767 0.74931 0.69297 0.0
H200 H 0.48914 0.84033 0.64614 0.0
O201 O 0.35763 0.84698 0.58971 0.0
H202 H 0.43071 0.98974 0.55606 0.0
H203 H 0.3645 0.89247 0.50672 0.0
H204 H 0.3586 0.94355 0.50525 0.0
H205 H 0.39192 0.99268 0.52994 0.0
H206 H 0.43569 0.93806 0.55724 0.0
H207 H 0.41884 0.9063 0.42487 0.0
H208 H 0.3864 0.85348 0.40516 0.0
O209 O 0.36557 0.84789 0.54027 0.0
C210 C 0.39699 0.80675 0.55273 0.0
C211 C 0.37627 0.83184 0.449 0.0
C212 C 0.40812 0.88661 0.44013 0.0
N213 N 0.39878 0.866 0.49047 0.0
C214 C 0.38105 0.83679 0.4798 0.0
C215 C 0.41238 0.89069 0.47107 0.0
C216 C 0.38991 0.85698 0.42908 0.0
C217 C 0.44521 0.87156 0.62559 0.0
N218 N 0.42347 0.84344 0.61985 0.0
C219 C 0.46912 0.8709 0.63519 0.0
C220 C 0.47072 0.84119 0.63878 0.0
C221 C 0.4485 0.81261 0.63278 0.0
C222 C 0.42491 0.8142 0.62326 0.0
C223 C 0.36286 0.79308 0.68564 0.0
C224 C 0.34732 0.78758 0.62603 0.0
C225 C 0.37795 0.81588 0.66434 0.0
N226 N 0.37002 0.81309 0.63496 0.0
C227 C 0.33173 0.7643 0.6467 0.0
C228 C 0.33957 0.76717 0.67671 0.0
C229 C 0.34964 0.84273 0.56248 0.0
C230 C 0.41609 0.96851 0.54516 0.0
C231 C 0.379 0.9137 0.51767 0.0
C232 C 0.37559 0.94257 0.51668 0.0
C233 C 0.3943 0.97014 0.53053 0.0
N234 N 0.40048 0.91233 0.53196 0.0
C235 C 0.41884 0.93921 0.5457 0.0
Co236 Co 0.63073 0.47829 0.08975 0.0
Co237 Co 0.6086 0.47437 0.01687 0.0
O238 O 0.61111 0.48982 0.05856 0.0
C239 C 0.59172 0.45447 0.13917 0.0
O240 O 0.59258 0.42615 0.13544 0.0
C241 C 0.61759 0.54446 0.01214 0.0
O242 O 0.63045 0.55142 0.03777 0.0
O243 O 0.64825 0.49101 0.01385 0.0
O244 O 0.65819 0.47964 0.06027 0.0
H245 H 0.62933 0.41765 0.92987 0.0
H246 H 0.6163 0.53348 0.1021 0.0
O247 O 0.60359 0.47718 0.12044 0.0
H248 H 0.71443 0.57952 0.10559 0.0
H249 H 0.67118 0.48444 0.19254 0.0
H250 H 0.65673 0.43261 0.09281 0.0
H251 H 0.68864 0.52148 0.09524 0.0
H252 H 0.64679 0.4994 0.15324 0.0
O253 O 0.60941 0.51609 0.00119 0.0
H254 H 0.63246 0.43697 0.98205 0.0
H255 H 0.57857 0.47966 0.96275 0.0
H256 H 0.68152 0.41725 0.13134 0.0
H257 H 0.64131 0.59151 0.11325 0.0
H258 H 0.68881 0.44314 0.18169 0.0
H259 H 0.69075 0.61495 0.1149 0.0
O260 O 0.61035 0.43136 0.08061 0.0
H261 H 0.52184 0.47914 0.04505 0.0
H262 H 0.56375 0.41147 0.00146 0.0
H263 H 0.51485 0.38933 0.00607 0.0
H264 H 0.49358 0.42333 0.02786 0.0
H265 H 0.57063 0.50039 0.03995 0.0
H266 H 0.57503 0.46112 0.91026 0.0
H267 H 0.60043 0.42973 0.8935 0.0
O268 O 0.60724 0.43192 0.03049 0.0
C269 C 0.66413 0.4873 0.03291 0.0
C270 C 0.61817 0.43132 0.93687 0.0
C271 C 0.58772 0.45573 0.92586 0.0
N272 N 0.6058 0.45945 0.97554 0.0
C273 C 0.61989 0.44232 0.96643 0.0
C274 C 0.58991 0.46629 0.95562 0.0
C275 C 0.60196 0.43811 0.91649 0.0
C276 C 0.63779 0.54337 0.10316 0.0
N277 N 0.65095 0.52404 0.09805 0.0
C278 C 0.65186 0.57631 0.10932 0.0
C279 C 0.67959 0.58946 0.11018 0.0
C280 C 0.69289 0.56961 0.10491 0.0
C281 C 0.67817 0.53677 0.09885 0.0
C282 C 0.66811 0.47295 0.17071 0.0
C283 C 0.65986 0.44406 0.11462 0.0
C284 C 0.65426 0.48127 0.14837 0.0
N285 N 0.65022 0.46681 0.12074 0.0
C286 C 0.6739 0.43524 0.13637 0.0
C287 C 0.67799 0.44978 0.1646 0.0
C288 C 0.60582 0.41714 0.05517 0.0
C289 C 0.53087 0.46421 0.03527 0.0
C290 C 0.55466 0.42644 0.01097 0.0
C291 C 0.52695 0.41377 0.01349 0.0
C292 C 0.51502 0.43285 0.02571 0.0
N293 N 0.57007 0.45736 0.02011 0.0
C294 C 0.55851 0.47614 0.03226 0.0
Co295 Co 0.13978 0.59025 0.54591 0.0
Co296 Co 0.17774 0.61334 0.60886 0.0
O297 O 0.14283 0.59667 0.58946 0.0
C298 C 0.1013 0.61882 0.53062 0.0
O299 O 0.11881 0.63823 0.51155 0.0
C300 C 0.13901 0.56826 0.65414 0.0
O301 O 0.11922 0.55915 0.63495 0.0
O302 O 0.18381 0.57644 0.5921 0.0
O303 O 0.17177 0.57926 0.54446 0.0
H304 H 0.27664 0.64525 0.61121 0.0
H305 H 0.09235 0.55414 0.58373 0.0
O306 O 0.10741 0.59992 0.54715 0.0
H307 H 0.11009 0.47033 0.52928 0.0
H308 H 0.09007 0.55009 0.44871 0.0
H309 H 0.17792 0.61093 0.4952 0.0
H310 H 0.1384 0.52817 0.52115 0.0
H311 H 0.09433 0.55718 0.50366 0.0
O312 O 0.16238 0.58791 0.64641 0.0
H313 H 0.23212 0.62467 0.58804 0.0
H314 H 0.19825 0.63596 0.67068 0.0
H315 H 0.17458 0.60425 0.44015 0.0
H316 H 0.06326 0.49657 0.59218 0.0
H317 H 0.13041 0.57366 0.41656 0.0
H318 H 0.0721 0.45416 0.56492 0.0
O319 O 0.16326 0.63725 0.54017 0.0
H320 H 0.12357 0.66725 0.6567 0.0
H321 H 0.21047 0.68458 0.61252 0.0
H322 H 0.20307 0.73131 0.63143 0.0
H323 H 0.15944 0.72284 0.65382 0.0
H324 H 0.13163 0.62129 0.63729 0.0
H325 H 0.24242 0.65633 0.69482 0.0
H326 H 0.28205 0.66135 0.66497 0.0
O327 O 0.1949 0.63968 0.57278 0.0
C328 C 0.18409 0.57007 0.56421 0.0
C329 C 0.25954 0.64326 0.62444 0.0
C330 C 0.24033 0.64942 0.67137 0.0
N331 N 0.21255 0.62918 0.62791 0.0
C332 C 0.23425 0.63165 0.61142 0.0
C333 C 0.21533 0.63771 0.6576 0.0
C334 C 0.26255 0.65225 0.65461 0.0
C335 C 0.09629 0.53588 0.57169 0.0
N336 N 0.11719 0.54462 0.55211 0.0
C337 C 0.07977 0.50329 0.57661 0.0
C338 C 0.08475 0.47952 0.56134 0.0
C339 C 0.10608 0.48857 0.54137 0.0
C340 C 0.12217 0.5214 0.53701 0.0
C341 C 0.10943 0.56346 0.45871 0.0
C342 C 0.15863 0.59756 0.4851 0.0
C343 C 0.11197 0.5676 0.48982 0.0
N344 N 0.13637 0.58449 0.50263 0.0
C345 C 0.15687 0.59386 0.45392 0.0
C346 C 0.13207 0.5767 0.44069 0.0
C347 C 0.18668 0.65123 0.55097 0.0
C348 C 0.14277 0.67123 0.64723 0.0
C349 C 0.19142 0.68055 0.62237 0.0
C350 C 0.18736 0.70718 0.63297 0.0
C351 C 0.16287 0.70242 0.64555 0.0
N352 N 0.17172 0.64991 0.62446 0.0
C353 C 0.14754 0.64517 0.63639 0.0
Co354 Co 0.83478 0.44941 0.40026 0.0
Co355 Co 0.87005 0.45066 0.46294 0.0
O356 O 0.86869 0.46236 0.42104 0.0
C357 C 0.86663 0.43251 0.35433 0.0
O358 O 0.87057 0.41271 0.3733 0.0
C359 C 0.90763 0.51447 0.4873 0.0
O360 O 0.88917 0.51337 0.50651 0.0
O361 O 0.84645 0.47278 0.47413 0.0
O362 O 0.81608 0.45155 0.43783 0.0
H363 H 0.83152 0.40928 0.56464 0.0
H364 H 0.88237 0.50552 0.37829 0.0
O365 O 0.85271 0.44781 0.36179 0.0
H366 H 0.81482 0.54836 0.39809 0.0
H367 H 0.77581 0.44861 0.3135 0.0
H368 H 0.77887 0.40459 0.41403 0.0
H369 H 0.80447 0.49059 0.40634 0.0
H370 H 0.81843 0.46527 0.3406 0.0
O371 O 0.9026 0.49212 0.46781 0.0
H372 H 0.8301 0.42328 0.51131 0.0
H373 H 0.914 0.45517 0.50462 0.0
H374 H 0.73583 0.38762 0.38786 0.0
H375 H 0.89345 0.56339 0.36931 0.0
H376 H 0.73413 0.40965 0.33719 0.0
H377 H 0.85956 0.58516 0.37932 0.0
O378 O 0.82651 0.40325 0.40917 0.0
H379 H 0.94618 0.44105 0.40795 0.0
H380 H 0.87081 0.38648 0.47686 0.0
H381 H 0.89879 0.35845 0.46138 0.0
H382 H 0.93687 0.38581 0.42676 0.0
H383 H 0.91749 0.46806 0.42373 0.0
H384 H 0.91637 0.44175 0.55794 0.0
H385 H 0.8749 0.41854 0.5883 0.0
O386 O 0.83792 0.40837 0.45793 0.0
C387 C 0.82353 0.46605 0.4628 0.0
C388 C 0.84972 0.41937 0.55164 0.0
C389 C 0.89735 0.4376 0.54789 0.0
N390 N 0.87192 0.43999 0.50487 0.0
C391 C 0.84904 0.42732 0.52143 0.0
C392 C 0.89589 0.44521 0.51773 0.0
C393 C 0.87407 0.42457 0.56491 0.0
C394 C 0.86744 0.51477 0.38245 0.0
N395 N 0.84276 0.49466 0.39266 0.0
C396 C 0.87386 0.54757 0.37742 0.0
C397 C 0.85484 0.55978 0.38306 0.0
C398 C 0.82973 0.53914 0.39358 0.0
C399 C 0.82401 0.50647 0.39826 0.0
C400 C 0.77631 0.43885 0.33556 0.0
C401 C 0.77832 0.4144 0.39204 0.0
C402 C 0.80041 0.44807 0.35097 0.0
N403 N 0.80118 0.43599 0.37893 0.0
C404 C 0.75387 0.40465 0.37731 0.0
C405 C 0.75292 0.41701 0.34889 0.0
C406 C 0.82547 0.39127 0.4354 0.0
C407 C 0.9297 0.42892 0.42312 0.0
C408 C 0.88724 0.3985 0.46168 0.0
C409 C 0.90308 0.38254 0.45306 0.0
C410 C 0.92445 0.39791 0.43365 0.0
N411 N 0.89259 0.42899 0.45137 0.0
C412 C 0.91344 0.44414 0.43223 0.0
Co413 Co 0.35529 0.83703 0.91191 0.0
Co414 Co 0.38369 0.86783 0.97986 0.0
O415 O 0.37606 0.87423 0.93757 0.0
C416 C 0.39576 0.88516 0.86948 0.0
O417 O 0.4068 0.90674 0.89061 0.0
C418 C 0.37714 0.93116 0.97908 0.0
O419 O 0.36736 0.92624 0.95176 0.0
O420 O 0.34484 0.84453 0.98829 0.0
O421 O 0.33309 0.81381 0.94675 0.0
H422 H 0.37349 0.80311 0.07448 0.0
H423 H 0.35951 0.90289 0.89438 0.0
O424 O 0.37651 0.85816 0.87533 0.0
H425 H 0.26342 0.83465 0.90297 0.0
H426 H 0.30717 0.78104 0.81796 0.0
H427 H 0.33482 0.76582 0.92005 0.0
H428 H 0.29614 0.81169 0.91249 0.0
H429 H 0.33248 0.82821 0.84988 0.0
O430 O 0.38264 0.90976 0.99229 0.0
H431 H 0.36476 0.81173 0.02163 0.0
H432 H 0.41824 0.91089 0.02786 0.0
H433 H 0.30929 0.71804 0.889 0.0
H434 H 0.3275 0.92662 0.88407 0.0
H435 H 0.29527 0.72546 0.83756 0.0
H436 H 0.27899 0.8925 0.88843 0.0
O437 O 0.38081 0.8174 0.92049 0.0
H438 H 0.46593 0.95762 0.93788 0.0
H439 H 0.43113 0.85419 0.9932 0.0
H440 H 0.47927 0.88196 0.98314 0.0
H441 H 0.49702 0.93422 0.9555 0.0
H442 H 0.418 0.92896 0.94812 0.0
H443 H 0.42727 0.90344 0.08087 0.0
H444 H 0.40494 0.84919 0.10451 0.0
O445 O 0.38545 0.82573 0.97002 0.0
C446 C 0.32863 0.82052 0.97334 0.0
C447 C 0.38337 0.82685 0.06443 0.0
C448 C 0.41353 0.88316 0.06803 0.0
N449 N 0.39099 0.86172 0.02157 0.0
C450 C 0.37853 0.83186 0.03448 0.0
C451 C 0.40824 0.88725 0.038 0.0
C452 C 0.40101 0.85272 0.08127 0.0
C453 C 0.33856 0.88766 0.89589 0.0
N454 N 0.3299 0.8558 0.90371 0.0
C455 C 0.32045 0.90133 0.89021 0.0
C456 C 0.29325 0.8822 0.89272 0.0
C457 C 0.2845 0.84977 0.90088 0.0
C458 C 0.30319 0.83694 0.90633 0.0
C459 C 0.31314 0.77749 0.84036 0.0
C460 C 0.32872 0.76931 0.89774 0.0
C461 C 0.32757 0.80412 0.85851 0.0
N462 N 0.33507 0.79983 0.88689 0.0
C463 C 0.31431 0.74213 0.88023 0.0
C464 C 0.30646 0.74632 0.85137 0.0
C465 C 0.38727 0.81098 0.94636 0.0
C466 C 0.45847 0.93497 0.95012 0.0
C467 C 0.43862 0.87682 0.98099 0.0
C468 C 0.46594 0.89248 0.97544 0.0
C469 C 0.47589 0.9218 0.95995 0.0
N470 N 0.42164 0.89005 0.97157 0.0
C471 C 0.43127 0.91865 0.95614 0.0
Co472 Co 0.59985 0.45953 0.46453 0.0
Co473 Co 0.61828 0.44024 0.39702 0.0
O474 O 0.59581 0.45553 0.4208 0.0
C475 C 0.54116 0.42391 0.45793 0.0
O476 O 0.54517 0.40217 0.44162 0.0
C477 C 0.60642 0.48664 0.35633 0.0
O478 O 0.59291 0.49387 0.37717 0.0
O479 O 0.65042 0.47635 0.41296 0.0
O480 O 0.63928 0.47151 0.46165 0.0
H481 H 0.69527 0.40932 0.3811 0.0
H482 H 0.57309 0.49589 0.43358 0.0
O483 O 0.56084 0.44813 0.46852 0.0
H484 H 0.65034 0.57874 0.48511 0.0
H485 H 0.58118 0.49074 0.56773 0.0
H486 H 0.62926 0.43889 0.5097 0.0
H487 H 0.6413 0.52088 0.48922 0.0
H488 H 0.57723 0.48676 0.51253 0.0
O489 O 0.61765 0.46763 0.36188 0.0
H490 H 0.66589 0.42716 0.4105 0.0
H491 H 0.61949 0.42183 0.33275 0.0
H492 H 0.63399 0.44266 0.56483 0.0
H493 H 0.58124 0.55348 0.42908 0.0
H494 H 0.60983 0.46873 0.59422 0.0
H495 H 0.62014 0.59537 0.45492 0.0
O496 O 0.59278 0.41284 0.46731 0.0
H497 H 0.52447 0.38751 0.35682 0.0
H498 H 0.6029 0.3695 0.38909 0.0
H499 H 0.5627 0.32324 0.37197 0.0
H500 H 0.52314 0.33206 0.35549 0.0
H501 H 0.56477 0.43291 0.37462 0.0
H502 H 0.64849 0.40409 0.3025 0.0
H503 H 0.68656 0.39749 0.32665 0.0
O504 O 0.62014 0.412 0.43052 0.0
C505 C 0.6567 0.48096 0.44071 0.0
C506 C 0.6787 0.41205 0.3703 0.0
C507 C 0.65249 0.40918 0.32618 0.0
N508 N 0.64103 0.42576 0.3734 0.0
C509 C 0.66197 0.42217 0.38685 0.0
C510 C 0.63621 0.41941 0.34343 0.0
C511 C 0.67386 0.40548 0.33976 0.0
C512 C 0.59002 0.51397 0.44493 0.0
N513 N 0.60675 0.50503 0.46151 0.0
C514 C 0.59455 0.54655 0.44228 0.0
C515 C 0.61639 0.57004 0.45677 0.0
C516 C 0.63336 0.56073 0.47368 0.0
C517 C 0.62821 0.52793 0.47581 0.0
C518 C 0.59184 0.47937 0.55517 0.0
C519 C 0.6188 0.45043 0.52232 0.0
C520 C 0.58962 0.47697 0.52392 0.0
N521 N 0.60315 0.4628 0.5079 0.0
C522 C 0.6215 0.45242 0.55354 0.0
C523 C 0.60792 0.46703 0.57002 0.0
C524 C 0.6057 0.39944 0.45333 0.0
C525 C 0.54169 0.3834 0.36363 0.0
C526 C 0.58586 0.3737 0.38184 0.0
C527 C 0.56311 0.34732 0.3722 0.0
C528 C 0.54092 0.35229 0.36297 0.0
N529 N 0.58661 0.40428 0.38219 0.0
C530 C 0.56477 0.40919 0.37347 0.0
Co531 Co 0.16155 0.55299 0.92712 0.0
Co532 Co 0.135 0.55054 0.99669 0.0
O533 O 0.13061 0.5405 0.95365 0.0
C534 C 0.14548 0.58231 0.87592 0.0
O535 O 0.16562 0.60965 0.88269 0.0
C536 C 0.09594 0.48136 0.99492 0.0
O537 O 0.11107 0.4751 0.97542 0.0
O538 O 0.15867 0.52712 0.0005 0.0
O539 O 0.18403 0.5478 0.95985 0.0
H540 H 0.18724 0.58851 0.09219 0.0
H541 H 0.11059 0.50023 0.90788 0.0
O542 O 0.13949 0.55789 0.89321 0.0
H543 H 0.1754 0.4509 0.91112 0.0
H544 H 0.20926 0.55271 0.83039 0.0
H545 H 0.21898 0.59606 0.93341 0.0
H546 H 0.18926 0.50856 0.92339 0.0
H547 H 0.17025 0.53706 0.8638 0.0
O548 O 0.10312 0.50974 0.00564 0.0
H549 H 0.18123 0.57621 0.03802 0.0
H550 H 0.09751 0.54447 0.04715 0.0
H551 H 0.25855 0.61197 0.9009 0.0
H552 H 0.09599 0.44255 0.89482 0.0
H553 H 0.25387 0.59024 0.84898 0.0
H554 H 0.12847 0.41747 0.89655 0.0
O555 O 0.17265 0.59889 0.93932 0.0
H556 H 0.0534 0.56348 0.96098 0.0
H557 H 0.13752 0.61456 0.01737 0.0
H558 H 0.10865 0.64374 0.01149 0.0
H559 H 0.06617 0.61812 0.98322 0.0
H560 H 0.08307 0.53535 0.96708 0.0
H561 H 0.10258 0.55606 0.10147 0.0
H562 H 0.14773 0.57842 0.12431 0.0
O563 O 0.16671 0.59243 0.98908 0.0
C564 C 0.17953 0.53299 0.98488 0.0
C565 C 0.16747 0.57883 0.08249 0.0
C566 C 0.11996 0.56057 0.08771 0.0
N567 N 0.13907 0.55978 0.0394 0.0
C568 C 0.16395 0.57188 0.05182 0.0
C569 C 0.1172 0.55394 0.05696 0.0
C570 C 0.14529 0.57314 0.10051 0.0
C571 C 0.12492 0.4896 0.90829 0.0
N572 N 0.15075 0.50782 0.91628 0.0
C573 C 0.11651 0.45689 0.90102 0.0
C574 C 0.13473 0.44282 0.90205 0.0
C575 C 0.16105 0.46154 0.91024 0.0
C576 C 0.16875 0.49418 0.91729 0.0
C577 C 0.21157 0.56236 0.85297 0.0
C578 C 0.21672 0.58652 0.91084 0.0
C579 C 0.18952 0.55369 0.87196 0.0
N580 N 0.19225 0.56574 0.90053 0.0
C581 C 0.23923 0.59562 0.89253 0.0
C582 C 0.23658 0.58341 0.86341 0.0
C583 C 0.17681 0.61004 0.96605 0.0
C584 C 0.07185 0.57489 0.97337 0.0
C585 C 0.11921 0.60337 0.00482 0.0
C586 C 0.10287 0.61995 0.00168 0.0
C587 C 0.07903 0.60556 0.98584 0.0
N588 N 0.11201 0.57327 0.99259 0.0
C589 C 0.0887 0.55905 0.97695 0.0
Co590 Co 0.64208 0.15958 0.39654 0.0
Co591 Co 0.62117 0.13152 0.46749 0.0
O592 O 0.62458 0.12339 0.42447 0.0
C593 C 0.59875 0.10815 0.35958 0.0
O594 O 0.59106 0.0875 0.38195 0.0
C595 C 0.62598 0.06722 0.46489 0.0
O596 O 0.63312 0.07114 0.43655 0.0
O597 O 0.6607 0.15522 0.47069 0.0
O598 O 0.6674 0.18477 0.42852 0.0
H599 H 0.6409 0.20026 0.56067 0.0
H600 H 0.63798 0.09336 0.37972 0.0
O601 O 0.6175 0.13621 0.3628 0.0
H602 H 0.73357 0.16496 0.37546 0.0
H603 H 0.67976 0.21201 0.29727 0.0
H604 H 0.66221 0.231 0.40253 0.0
H605 H 0.70092 0.18676 0.38923 0.0
H606 H 0.65833 0.16608 0.33191 0.0
O607 O 0.6232 0.08988 0.47935 0.0
H608 H 0.64427 0.18933 0.50695 0.0
H609 H 0.59151 0.09067 0.5194 0.0
H610 H 0.68402 0.27759 0.36876 0.0
H611 H 0.66982 0.07076 0.36527 0.0
H612 H 0.69294 0.26826 0.31569 0.0
H613 H 0.71812 0.10657 0.36313 0.0
O614 O 0.61685 0.17861 0.40861 0.0
H615 H 0.535 0.04236 0.43303 0.0
H616 H 0.5755 0.14554 0.48819 0.0
H617 H 0.52672 0.1185 0.4833 0.0
H618 H 0.50609 0.06641 0.45564 0.0
H619 H 0.58357 0.0699 0.43878 0.0
H620 H 0.58786 0.10042 0.57331 0.0
H621 H 0.61255 0.15559 0.59428 0.0
O622 O 0.6184 0.17316 0.45835 0.0
C623 C 0.67492 0.179 0.45403 0.0
C624 C 0.63005 0.17611 0.5518 0.0
C625 C 0.60031 0.12008 0.55891 0.0
N626 N 0.61815 0.13943 0.50996 0.0
C627 C 0.63187 0.16979 0.52138 0.0
C628 C 0.60258 0.11468 0.52836 0.0
C629 C 0.61415 0.15104 0.57065 0.0
C630 C 0.65873 0.10934 0.37841 0.0
N631 N 0.66729 0.14151 0.38495 0.0
C632 C 0.6768 0.09629 0.37039 0.0
C633 C 0.70389 0.11637 0.36925 0.0
C634 C 0.71257 0.1491 0.37616 0.0
C635 C 0.69391 0.16128 0.38402 0.0
C636 C 0.67599 0.21639 0.32034 0.0
C637 C 0.6661 0.22669 0.37952 0.0
C638 C 0.66375 0.19046 0.34005 0.0
N639 N 0.65906 0.19581 0.36928 0.0
C640 C 0.67841 0.2532 0.36047 0.0
C641 C 0.68339 0.24794 0.3307 0.0
C642 C 0.61322 0.18617 0.43528 0.0
C643 C 0.54372 0.06486 0.44542 0.0
C644 C 0.56676 0.12285 0.47618 0.0
C645 C 0.53907 0.10763 0.47351 0.0
C646 C 0.52752 0.07842 0.458 0.0
N647 N 0.58258 0.10923 0.46407 0.0
C648 C 0.57132 0.0806 0.44882 0.0
Co649 Co 0.40032 0.53623 0.96068 0.0
Co650 Co 0.37907 0.55815 0.89614 0.0
O651 O 0.4028 0.54242 0.91704 0.0
C652 C 0.45893 0.5732 0.95307 0.0
O653 O 0.4546 0.59584 0.9386 0.0
C654 C 0.3896 0.51357 0.85204 0.0
O655 O 0.40299 0.50491 0.87193 0.0
O656 O 0.34773 0.5209 0.91216 0.0
O657 O 0.36083 0.52375 0.96004 0.0
H658 H 0.30042 0.58733 0.88896 0.0
H659 H 0.42668 0.50218 0.92553 0.0
O660 O 0.43948 0.54806 0.96264 0.0
H661 H 0.3515 0.41593 0.97683 0.0
H662 H 0.42264 0.50037 0.06006 0.0
H663 H 0.37217 0.55411 0.00935 0.0
H664 H 0.36008 0.47331 0.98419 0.0
H665 H 0.42478 0.50713 0.00501 0.0
O666 O 0.37878 0.53264 0.85912 0.0
H667 H 0.33167 0.56947 0.91454 0.0
H668 H 0.37498 0.57935 0.83338 0.0
H669 H 0.36922 0.54754 0.06441 0.0
H670 H 0.41898 0.4451 0.91776 0.0
H671 H 0.39459 0.52051 0.09013 0.0
H672 H 0.38111 0.4015 0.94346 0.0
O673 O 0.40704 0.58257 0.96602 0.0
H674 H 0.47115 0.6137 0.85204 0.0
H675 H 0.39358 0.6291 0.8916 0.0
H676 H 0.43295 0.67642 0.87427 0.0
H677 H 0.47206 0.66891 0.8542 0.0
H678 H 0.43168 0.56717 0.86999 0.0
H679 H 0.34408 0.59721 0.8069 0.0
H680 H 0.3065 0.60136 0.83472 0.0
O681 O 0.37818 0.58465 0.93163 0.0
C682 C 0.3426 0.51487 0.94001 0.0
C683 C 0.31672 0.58563 0.87658 0.0
C684 C 0.34119 0.5911 0.83053 0.0
N685 N 0.35509 0.57311 0.8755 0.0
C686 C 0.33452 0.5755 0.89095 0.0
C687 C 0.35856 0.58081 0.84563 0.0
C688 C 0.32013 0.59346 0.84615 0.0
C689 C 0.4102 0.48335 0.93683 0.0
N690 N 0.39378 0.49109 0.95513 0.0
C691 C 0.40592 0.45107 0.93233 0.0
C692 C 0.38466 0.42662 0.94674 0.0
C693 C 0.36802 0.4347 0.96543 0.0
C694 C 0.3729 0.46724 0.96939 0.0
C695 C 0.41146 0.51215 0.04911 0.0
C696 C 0.38316 0.54217 0.02036 0.0
C697 C 0.41266 0.51613 0.01795 0.0
N698 N 0.39848 0.53082 0.00396 0.0
C699 C 0.38146 0.53859 0.05155 0.0
C700 C 0.39571 0.52345 0.06597 0.0
C701 C 0.39345 0.59634 0.95403 0.0
C702 C 0.45412 0.61725 0.86047 0.0
C703 C 0.41043 0.62549 0.88274 0.0
C704 C 0.4327 0.65245 0.87302 0.0
C705 C 0.45464 0.64823 0.86176 0.0
N706 N 0.40993 0.59508 0.88119 0.0
C707 C 0.43152 0.59086 0.87044 0.0
C708 C 0.58734 0.11859 0.30804 0.0
C709 C 0.59078 0.09723 0.32856 0.0
C710 C 0.58629 0.11257 0.27709 0.0
C711 C 0.58961 0.08499 0.2664 0.0
C712 C 0.59144 0.06228 0.28716 0.0
C713 C 0.59173 0.06854 0.31814 0.0
C714 C 0.58364 0.13704 0.25579 0.0
C715 C 0.59544 0.03291 0.27673 0.0
C716 C 0.5779 0.07117 0.18255 0.0
C717 C 0.60317 0.09108 0.17138 0.0
C718 C 0.57334 0.06704 0.21367 0.0
C719 C 0.5947 0.08271 0.23382 0.0
C720 C 0.62073 0.10031 0.22241 0.0
C721 C 0.62456 0.10466 0.19132 0.0
C722 C 0.54527 0.04848 0.22487 0.0
C723 C 0.64421 0.11679 0.24306 0.0
H724 H 0.58673 0.14085 0.31617 0.0
H725 H 0.59489 0.05232 0.33403 0.0
H726 H 0.60304 0.15084 0.24457 0.0
H727 H 0.5688 0.12469 0.23802 0.0
H728 H 0.57755 0.15453 0.26758 0.0
H729 H 0.59186 0.01498 0.29508 0.0
H730 H 0.58206 0.02095 0.25764 0.0
H731 H 0.61623 0.0406 0.26872 0.0
H732 H 0.56123 0.06105 0.16716 0.0
H733 H 0.64409 0.12011 0.18265 0.0
H734 H 0.53714 0.06586 0.23269 0.0
H735 H 0.54489 0.03289 0.24424 0.0
H736 H 0.53198 0.03313 0.20698 0.0
H737 H 0.64263 0.13803 0.25381 0.0
H738 H 0.66348 0.12533 0.23083 0.0
H739 H 0.64435 0.10009 0.26123 0.0
C740 C 0.39944 0.50252 0.67244 0.0
C741 C 0.40889 0.53511 0.66352 0.0
C742 C 0.39862 0.49411 0.70292 0.0
C743 C 0.40779 0.51886 0.72488 0.0
C744 C 0.4199 0.5517 0.71572 0.0
C745 C 0.42023 0.55942 0.68515 0.0
C746 C 0.3857 0.45882 0.71167 0.0
C747 C 0.4304 0.57885 0.73838 0.0
C748 C 0.37295 0.51009 0.79968 0.0
C749 C 0.39172 0.50768 0.81966 0.0
C750 C 0.37725 0.51165 0.76859 0.0
C751 C 0.40106 0.51111 0.75716 0.0
C752 C 0.41926 0.50647 0.77705 0.0
C753 C 0.41431 0.50467 0.80817 0.0
C754 C 0.35705 0.51599 0.74815 0.0
C755 C 0.44481 0.5057 0.76575 0.0
H756 H 0.39076 0.48347 0.65592 0.0
H757 H 0.4279 0.58464 0.67845 0.0
H758 H 0.39687 0.45353 0.73009 0.0
H759 H 0.36523 0.45297 0.71997 0.0
H760 H 0.38433 0.44269 0.69234 0.0
H761 H 0.44239 0.60256 0.72763 0.0
H762 H 0.41344 0.58079 0.75035 0.0
H763 H 0.44289 0.57382 0.75543 0.0
H764 H 0.35537 0.51222 0.80846 0.0
H765 H 0.42898 0.50303 0.82352 0.0
H766 H 0.35174 0.49831 0.72941 0.0
H767 H 0.36576 0.5406 0.73813 0.0
H768 H 0.33853 0.51293 0.76027 0.0
H769 H 0.44117 0.49044 0.74533 0.0
H770 H 0.45443 0.4964 0.78304 0.0
H771 H 0.45892 0.53059 0.75951 0.0
C772 C 0.85088 0.41932 0.18399 0.0
C773 C 0.87268 0.4298 0.16426 0.0
C774 C 0.85446 0.42175 0.21512 0.0
C775 C 0.88057 0.43519 0.22708 0.0
C776 C 0.90276 0.44656 0.2074 0.0
C777 C 0.89856 0.44375 0.17611 0.0
C778 C 0.83017 0.40959 0.23522 0.0
C779 C 0.93086 0.46115 0.21941 0.0
C780 C 0.87882 0.46325 0.3064 0.0
C781 C 0.87619 0.43573 0.32296 0.0
C782 C 0.88283 0.46468 0.27528 0.0
C783 C 0.884 0.43778 0.26027 0.0
C784 C 0.88362 0.41106 0.27719 0.0
C785 C 0.87982 0.4104 0.30849 0.0
C786 C 0.88341 0.49379 0.25824 0.0
C787 C 0.88489 0.38196 0.262 0.0
H788 H 0.83078 0.40875 0.17508 0.0
H789 H 0.91549 0.4517 0.16101 0.0
H790 H 0.83072 0.39052 0.25048 0.0
H791 H 0.83006 0.42965 0.24944 0.0
H792 H 0.81126 0.39941 0.22227 0.0
H793 H 0.94593 0.47008 0.20119 0.0
H794 H 0.93356 0.48158 0.23474 0.0
H795 H 0.93466 0.44278 0.23273 0.0
H796 H 0.8765 0.4832 0.31759 0.0
H797 H 0.87793 0.38916 0.32122 0.0
H798 H 0.86406 0.48734 0.24665 0.0
H799 H 0.89919 0.50142 0.24081 0.0
H800 H 0.88683 0.51465 0.27335 0.0
H801 H 0.86562 0.36784 0.25067 0.0
H802 H 0.88879 0.36583 0.27828 0.0
H803 H 0.90065 0.38958 0.24453 0.0
C804 C 0.40849 0.925 0.82694 0.0
C805 C 0.40173 0.8934 0.83743 0.0
C806 C 0.40844 0.93126 0.79595 0.0
C807 C 0.40164 0.90532 0.77524 0.0
C808 C 0.39664 0.87385 0.78577 0.0
C809 C 0.39666 0.8683 0.81669 0.0
C810 C 0.41394 0.96513 0.78561 0.0
C811 C 0.38967 0.84551 0.7645 0.0
C812 C 0.36558 0.89739 0.70162 0.0
C813 C 0.38545 0.89922 0.68108 0.0
C814 C 0.37123 0.90261 0.7324 0.0
C815 C 0.39736 0.90977 0.74284 0.0
C816 C 0.41805 0.91516 0.72187 0.0
C817 C 0.41188 0.90996 0.6912 0.0
C818 C 0.34865 0.89722 0.75399 0.0
C819 C 0.44621 0.92316 0.73198 0.0
H820 H 0.41219 0.94442 0.84293 0.0
H821 H 0.39157 0.84386 0.82475 0.0
H822 H 0.42684 0.97165 0.76537 0.0
H823 H 0.39488 0.96638 0.77941 0.0
H824 H 0.42361 0.98335 0.80345 0.0
H825 H 0.38842 0.82322 0.77611 0.0
H826 H 0.37015 0.84029 0.75376 0.0
H827 H 0.40473 0.8514 0.74633 0.0
H828 H 0.34518 0.88959 0.69402 0.0
H829 H 0.42752 0.91193 0.6755 0.0
H830 H 0.35482 0.91635 0.77147 0.0
H831 H 0.34314 0.87362 0.76553 0.0
H832 H 0.33071 0.89692 0.74234 0.0
H833 H 0.45204 0.94103 0.75058 0.0
H834 H 0.46069 0.93293 0.71327 0.0
H835 H 0.44753 0.90084 0.74048 0.0
C836 C 0.6228 0.49315 0.30378 0.0
C837 C 0.60366 0.49348 0.32436 0.0
C838 C 0.61787 0.49125 0.27283 0.0
C839 C 0.59308 0.48945 0.26216 0.0
C840 C 0.57452 0.49243 0.28264 0.0
C841 C 0.58008 0.4945 0.31363 0.0
C842 C 0.63844 0.48865 0.25178 0.0
C843 C 0.54799 0.49088 0.27215 0.0
C844 C 0.59275 0.49559 0.17738 0.0
C845 C 0.58488 0.46297 0.16924 0.0
C846 C 0.59339 0.50465 0.20765 0.0
C847 C 0.58578 0.48051 0.23019 0.0
C848 C 0.57511 0.44741 0.22183 0.0
C849 C 0.57479 0.43904 0.19145 0.0
C850 C 0.60456 0.54017 0.21554 0.0
C851 C 0.56636 0.42083 0.24515 0.0
H852 H 0.64114 0.49257 0.31201 0.0
H853 H 0.56513 0.49453 0.32946 0.0
H854 H 0.63083 0.46387 0.24218 0.0
H855 H 0.64226 0.50584 0.23278 0.0
H856 H 0.65762 0.49364 0.2633 0.0
H857 H 0.53833 0.50003 0.28953 0.0
H858 H 0.55023 0.50508 0.25123 0.0
H859 H 0.53455 0.46535 0.2671 0.0
H860 H 0.60036 0.51434 0.16041 0.0
H861 H 0.56829 0.41377 0.18537 0.0
H862 H 0.62549 0.54808 0.22314 0.0
H863 H 0.59319 0.5447 0.23421 0.0
H864 H 0.60435 0.55527 0.19595 0.0
H865 H 0.58412 0.42083 0.25692 0.0
H866 H 0.55531 0.39653 0.23503 0.0
H867 H 0.5535 0.42505 0.26227 0.0
C868 C 0.10946 0.55826 0.69914 0.0
C869 C 0.13382 0.56169 0.68655 0.0
C870 C 0.10632 0.55864 0.73048 0.0
C871 C 0.12794 0.56207 0.74948 0.0
C872 C 0.15195 0.56336 0.73682 0.0
C873 C 0.15466 0.56342 0.70553 0.0
C874 C 0.08051 0.55746 0.74311 0.0
C875 C 0.17534 0.56637 0.75628 0.0
C876 C 0.14112 0.60347 0.82528 0.0
C877 C 0.13507 0.57709 0.84477 0.0
C878 C 0.13683 0.59874 0.79423 0.0
C879 C 0.12661 0.5669 0.7824 0.0
C880 C 0.11854 0.54011 0.80217 0.0
C881 C 0.12265 0.54552 0.83317 0.0
C882 C 0.14513 0.62796 0.77392 0.0
C883 C 0.1077 0.5058 0.7905 0.0
H884 H 0.09338 0.55726 0.68455 0.0
H885 H 0.17349 0.56596 0.69585 0.0
H886 H 0.07359 0.54015 0.76213 0.0
H887 H 0.08376 0.58171 0.75193 0.0
H888 H 0.06454 0.55039 0.72585 0.0
H889 H 0.1916 0.56408 0.74308 0.0
H890 H 0.18346 0.59028 0.76764 0.0
H891 H 0.16889 0.54751 0.77404 0.0
H892 H 0.15045 0.6279 0.83408 0.0
H893 H 0.11783 0.52491 0.84802 0.0
H894 H 0.12943 0.62468 0.75701 0.0
H895 H 0.16347 0.63085 0.76155 0.0
H896 H 0.14922 0.65058 0.78668 0.0
H897 H 0.09263 0.5021 0.77271 0.0
H898 H 0.09854 0.48777 0.80864 0.0
H899 H 0.12417 0.5011 0.78034 0.0
C900 C 0.50691 0.058 0.02245 0.0
C901 C 0.51179 0.088 0.03568 0.0
C902 C 0.4811 0.03638 0.01458 0.0
C903 C 0.45948 0.04497 0.01983 0.0
C904 C 0.46416 0.07521 0.03317 0.0
C905 C 0.49031 0.09637 0.04111 0.0
C906 C 0.47703 0.00422 0.00066 0.0
C907 C 0.4416 0.08522 0.03885 0.0
C908 C 0.40218 0.99072 0.97181 0.0
C909 C 0.39035 0.96434 0.99129 0.0
C910 C 0.42305 0.01935 0.98181 0.0
C911 C 0.43211 0.02137 0.01186 0.0
C912 C 0.41775 0.9965 0.03245 0.0
C913 C 0.39693 0.96831 0.02191 0.0
C914 C 0.43748 0.04562 0.95927 0.0
C915 C 0.42655 0.99756 0.0647 0.0
H916 H 0.52334 0.05123 0.01828 0.0
H917 H 0.49397 0.1196 0.05117 0.0
H918 H 0.46322 0.98402 0.01466 0.0
H919 H 0.46783 0.00197 0.97814 0.0
H920 H 0.49598 0.00125 0.99816 0.0
H921 H 0.44853 0.10949 0.04951 0.0
H922 H 0.43159 0.08569 0.01734 0.0
H923 H 0.42645 0.06728 0.0536 0.0
H924 H 0.39714 0.98789 0.94812 0.0
H925 H 0.38755 0.94808 0.03715 0.0
H926 H 0.45561 0.04297 0.95144 0.0
H927 H 0.44389 0.06997 0.96953 0.0
H928 H 0.42483 0.04409 0.93938 0.0
H929 H 0.44385 0.991 0.06566 0.0
H930 H 0.41046 0.98021 0.07899 0.0
H931 H 0.43293 0.02222 0.07425 0.0
C932 C 0.40135 0.41741 0.51432 0.0
C933 C 0.39422 0.43633 0.49426 0.0
C934 C 0.42178 0.40762 0.50705 0.0
C935 C 0.43518 0.41704 0.47915 0.0
C936 C 0.42569 0.4326 0.4575 0.0
C937 C 0.40528 0.44202 0.46532 0.0
C938 C 0.43097 0.3905 0.53055 0.0
C939 C 0.43918 0.44294 0.4274 0.0
C940 C 0.51019 0.44614 0.47897 0.0
C941 C 0.51379 0.42099 0.46399 0.0
C942 C 0.48469 0.44463 0.48452 0.0
C943 C 0.46204 0.41715 0.47505 0.0
C944 C 0.46541 0.39131 0.46046 0.0
C945 C 0.4913 0.3936 0.45494 0.0
C946 C 0.48208 0.47291 0.49998 0.0
C947 C 0.44172 0.36159 0.45024 0.0
H948 H 0.39285 0.41289 0.53672 0.0
H949 H 0.39956 0.45632 0.4496 0.0
H950 H 0.43651 0.37187 0.52019 0.0
H951 H 0.44891 0.40837 0.54196 0.0
H952 H 0.41538 0.37879 0.54782 0.0
H953 H 0.42666 0.44935 0.41135 0.0
H954 H 0.45823 0.46453 0.43049 0.0
H955 H 0.44393 0.42354 0.41736 0.0
H956 H 0.52738 0.46743 0.48607 0.0
H957 H 0.4939 0.374 0.44346 0.0
H958 H 0.46959 0.4645 0.52043 0.0
H959 H 0.47203 0.48383 0.48484 0.0
H960 H 0.50167 0.49207 0.5066 0.0
H961 H 0.42734 0.35164 0.46895 0.0
H962 H 0.44759 0.34236 0.44187 0.0
H963 H 0.43121 0.36819 0.43195 0.0
C964 C 0.05552 0.43046 0.98309 0.0
C965 C 0.06867 0.45721 0.00184 0.0
C966 C 0.02806 0.41133 0.98646 0.0
C967 C 0.01356 0.41936 0.00893 0.0
C968 C 0.02727 0.44466 0.02941 0.0
C969 C 0.05461 0.46315 0.02567 0.0
C970 C 0.01426 0.38412 0.96458 0.0
C971 C 0.0127 0.45413 0.05374 0.0
C972 C 0.94409 0.41322 0.99474 0.0
C973 C 0.92881 0.38884 0.01493 0.0
C974 C 0.97141 0.4219 0.99125 0.0
C975 C 0.98392 0.40562 0.00815 0.0
C976 C 0.96834 0.37938 0.02694 0.0
C977 C 0.94089 0.37134 0.03023 0.0
C978 C 0.98717 0.45006 0.97095 0.0
C979 C 0.98086 0.36105 0.04487 0.0
H980 H 0.06628 0.42557 0.96474 0.0
H981 H 0.06471 0.48341 0.04062 0.0
H982 H 0.99921 0.36276 0.97621 0.0
H983 H 0.00366 0.39218 0.94745 0.0
H984 H 0.02863 0.37667 0.95281 0.0
H985 H 0.02659 0.47189 0.06976 0.0
H986 H 6e-05 0.46512 0.04334 0.0
H987 H 0.99938 0.4325 0.0665 0.0
H988 H 0.9349 0.42655 0.98241 0.0
H989 H 0.92922 0.35233 0.04573 0.0
H990 H 0.99962 0.44326 0.95521 0.0
H991 H 0.0008 0.47066 0.98469 0.0
H992 H 0.97415 0.45845 0.95764 0.0
H993 H 0.99553 0.35607 0.03105 0.0
H994 H 0.9657 0.33775 0.05353 0.0
H995 H 0.99172 0.37595 0.06431 0.0
C996 C 0.60616 0.03082 0.50841 0.0
C997 C 0.61206 0.03425 0.47759 0.0
C998 C 0.58512 0.0032 0.51961 0.0
C999 C 0.56996 0.97815 0.49956 0.0
C1000 C 0.57827 0.97951 0.46926 0.0
C1001 C 0.59926 0.00767 0.45855 0.0
C1002 C 0.5771 0.00291 0.55208 0.0
C1003 C 0.56307 0.95298 0.44728 0.0
C1004 C 0.51232 0.9042 0.53149 0.0
C1005 C 0.49081 0.91268 0.52672 0.0
C1006 C 0.53826 0.92489 0.52233 0.0
C1007 C 0.54273 0.95486 0.50853 0.0
C1008 C 0.52105 0.96351 0.50387 0.0
C1009 C 0.49543 0.94228 0.51283 0.0
C1010 C 0.56082 0.91473 0.52732 0.0
C1011 C 0.5249 0.99535 0.4895 0.0
H1012 H 0.61631 0.05108 0.52337 0.0
H1013 H 0.60379 0.00995 0.43474 0.0
H1014 H 0.55985 0.00957 0.55338 0.0
H1015 H 0.57086 0.97845 0.56204 0.0
H1016 H 0.59353 0.0205 0.5658 0.0
H1017 H 0.57516 0.95393 0.42703 0.0
H1018 H 0.55667 0.92877 0.45786 0.0
H1019 H 0.54489 0.95582 0.43996 0.0
H1020 H 0.50886 0.88126 0.54208 0.0
H1021 H 0.47898 0.94914 0.50917 0.0
H1022 H 0.57609 0.93245 0.54213 0.0
H1023 H 0.57068 0.91457 0.50563 0.0
H1024 H 0.55395 0.89032 0.53768 0.0
H1025 H 0.5393 0.01582 0.50275 0.0
H1026 H 0.506 0.99852 0.48766 0.0
H1027 H 0.53333 0.99682 0.46664 0.0
C1028 C 0.50871 0.6054 0.95274 0.0
C1029 C 0.48641 0.57671 0.95941 0.0
C1030 C 0.53465 0.60863 0.95966 0.0
C1031 C 0.53825 0.58253 0.97342 0.0
C1032 C 0.51578 0.55355 0.98008 0.0
C1033 C 0.49026 0.55103 0.97302 0.0
C1034 C 0.55814 0.63984 0.95227 0.0
C1035 C 0.51864 0.52497 0.99462 0.0
C1036 C 0.59736 0.56155 0.96958 0.0
C1037 C 0.60534 0.56535 0.99977 0.0
C1038 C 0.57746 0.57089 0.95952 0.0
C1039 C 0.56526 0.58426 0.98022 0.0
C1040 C 0.57577 0.5921 0.00967 0.0
C1041 C 0.59583 0.58257 0.01914 0.0
C1042 C 0.56718 0.5624 0.92783 0.0
C1043 C 0.56359 0.60673 0.03235 0.0
H1044 H 0.5059 0.62539 0.94231 0.0
H1045 H 0.47324 0.5287 0.97821 0.0
H1046 H 0.56978 0.65028 0.97293 0.0
H1047 H 0.57164 0.63505 0.93642 0.0
H1048 H 0.55197 0.65807 0.94208 0.0
H1049 H 0.49911 0.50441 0.99878 0.0
H1050 H 0.5307 0.51628 0.98006 0.0
H1051 H 0.52924 0.53239 0.01637 0.0
H1052 H 0.60492 0.54853 0.95445 0.0
H1053 H 0.60194 0.58559 0.04251 0.0
H1054 H 0.562 0.58155 0.91799 0.0
H1055 H 0.54882 0.53957 0.92814 0.0
H1056 H 0.58198 0.55876 0.91307 0.0
H1057 H 0.57735 0.61791 0.0514 0.0
H1058 H 0.54511 0.58745 0.04147 0.0
H1059 H 0.55811 0.62532 0.02181 0.0
C1060 C 0.95611 0.53343 0.47605 0.0
C1061 C 0.9357 0.53797 0.49152 0.0
C1062 C 0.98297 0.55197 0.48283 0.0
C1063 C 0.98975 0.5762 0.50526 0.0
C1064 C 0.96936 0.58249 0.51951 0.0
C1065 C 0.94252 0.56306 0.51269 0.0
C1066 C 0.004 0.54415 0.46726 0.0
C1067 C 0.97583 0.60866 0.54298 0.0
C1068 C 0.05368 0.58777 0.54504 0.0
C1069 C 0.07276 0.61288 0.52827 0.0
C1070 C 0.02642 0.57689 0.53894 0.0
C1071 C 0.01785 0.59193 0.51591 0.0
C1072 C 0.03677 0.61916 0.50071 0.0
C1073 C 0.06407 0.62917 0.50689 0.0
C1074 C 0.00701 0.5476 0.55557 0.0
C1075 C 0.02835 0.63643 0.47661 0.0
H1076 H 0.95116 0.51422 0.45958 0.0
H1077 H 0.92691 0.56695 0.52457 0.0
H1078 H 0.01951 0.56636 0.45735 0.0
H1079 H 0.01396 0.5346 0.4839 0.0
H1080 H 0.99555 0.52587 0.44916 0.0
H1081 H 0.95842 0.61424 0.54806 0.0
H1082 H 0.98208 0.60068 0.56403 0.0
H1083 H 0.99263 0.63117 0.53548 0.0
H1084 H 0.06005 0.57519 0.56187 0.0
H1085 H 0.0786 0.64881 0.494 0.0
H1086 H 0.99844 0.52689 0.53979 0.0
H1087 H 0.99027 0.55245 0.56466 0.0
H1088 H 0.0166 0.54031 0.57441 0.0
H1089 H 0.02312 0.62149 0.4559 0.0
H1090 H 0.04447 0.66039 0.47107 0.0
H1091 H 0.0104 0.63994 0.48371 0.0
C1092 C 0.62718 0.25636 0.04503 0.0
C1093 C 0.6041 0.22749 0.04417 0.0
C1094 C 0.6256 0.28641 0.04527 0.0
C1095 C 0.60026 0.28747 0.04553 0.0
C1096 C 0.57688 0.25833 0.04376 0.0
C1097 C 0.57911 0.22856 0.04276 0.0
C1098 C 0.65103 0.31696 0.04636 0.0
C1099 C 0.54955 0.25853 0.04454 0.0
C1100 C 0.60053 0.36459 0.07922 0.0
C1101 C 0.6011 0.38251 0.05334 0.0
C1102 C 0.59901 0.33293 0.07704 0.0
C1103 C 0.59845 0.31915 0.04833 0.0
C1104 C 0.59811 0.33666 0.0222 0.0
C1105 C 0.59917 0.36793 0.02503 0.0
C1106 C 0.59899 0.31467 0.10543 0.0
C1107 C 0.59796 0.32303 0.99119 0.0
H1108 H 0.64649 0.25534 0.04639 0.0
H1109 H 0.5613 0.20611 0.04283 0.0
H1110 H 0.65103 0.33392 0.02837 0.0
H1111 H 0.6524 0.32943 0.06815 0.0
H1112 H 0.66905 0.31195 0.04373 0.0
H1113 H 0.53346 0.23398 0.0411 0.0
H1114 H 0.54644 0.26786 0.06659 0.0
H1115 H 0.54783 0.27497 0.02702 0.0
H1116 H 0.60195 0.37554 0.10117 0.0
H1117 H 0.59944 0.38134 0.00479 0.0
H1118 H 0.61793 0.31163 0.10712 0.0
H1119 H 0.58255 0.29008 0.10487 0.0
H1120 H 0.59681 0.3274 0.1259 0.0
H1121 H 0.61674 0.32001 0.98757 0.0
H1122 H 0.59605 0.33894 0.97319 0.0
H1123 H 0.58131 0.29875 0.98901 0.0
C1124 C 0.2825 0.48565 0.52261 0.0
C1125 C 0.30678 0.51106 0.51515 0.0
C1126 C 0.25922 0.49103 0.52533 0.0
C1127 C 0.26064 0.52273 0.52127 0.0
C1128 C 0.28468 0.54771 0.5111 0.0
C1129 C 0.30746 0.5415 0.50815 0.0
C1130 C 0.23388 0.46361 0.53565 0.0
C1131 C 0.28733 0.58202 0.50698 0.0
C1132 C 0.20087 0.54434 0.52393 0.0
C1133 C 0.20175 0.55467 0.55384 0.0
C1134 C 0.21906 0.53232 0.51325 0.0
C1135 C 0.23897 0.53129 0.53275 0.0
C1136 C 0.23954 0.54088 0.56314 0.0
C1137 C 0.22077 0.55208 0.57337 0.0
C1138 C 0.21754 0.52177 0.48089 0.0
C1139 C 0.26075 0.54072 0.5846 0.0
H1140 H 0.28219 0.46237 0.5289 0.0
H1141 H 0.32645 0.56152 0.50372 0.0
H1142 H 0.23122 0.4661 0.56009 0.0
H1143 H 0.21632 0.46428 0.52396 0.0
H1144 H 0.2344 0.43967 0.53168 0.0
H1145 H 0.30593 0.59731 0.49489 0.0
H1146 H 0.27009 0.5824 0.49441 0.0
H1147 H 0.28768 0.59304 0.52934 0.0
H1148 H 0.18624 0.54615 0.50862 0.0
H1149 H 0.2217 0.55999 0.59648 0.0
H1150 H 0.21833 0.49773 0.47942 0.0
H1151 H 0.23494 0.5392 0.46835 0.0
H1152 H 0.19908 0.5204 0.46969 0.0
H1153 H 0.2606 0.51619 0.58573 0.0
H1154 H 0.25806 0.54823 0.60767 0.0
H1155 H 0.28069 0.55748 0.57633 0.0
C1156 C 0.80274 0.28976 0.01256 0.0
C1157 C 0.79755 0.31749 0.01122 0.0
C1158 C 0.78165 0.25883 0.01441 0.0
C1159 C 0.75507 0.25605 0.01547 0.0
C1160 C 0.7499 0.28385 0.01071 0.0
C1161 C 0.77127 0.31421 0.00834 0.0
C1162 C 0.78802 0.22974 0.01843 0.0
C1163 C 0.72195 0.28225 0.012 0.0
C1164 C 0.69024 0.18134 0.01655 0.0
C1165 C 0.68369 0.17951 0.04722 0.0
C1166 C 0.71491 0.20399 0.00601 0.0
C1167 C 0.73304 0.2259 0.02649 0.0
C1168 C 0.72757 0.22208 0.05773 0.0
C1169 C 0.70322 0.19834 0.06774 0.0
C1170 C 0.72051 0.20624 0.97272 0.0
C1171 C 0.74623 0.2451 0.08043 0.0
H1172 H 0.82309 0.29239 0.01541 0.0
H1173 H 0.7674 0.33584 0.00779 0.0
H1174 H 0.78865 0.22478 0.04275 0.0
H1175 H 0.77261 0.20786 0.00787 0.0
H1176 H 0.80777 0.23408 0.00866 0.0
H1177 H 0.7212 0.30543 0.0051 0.0
H1178 H 0.7084 0.26268 0.99728 0.0
H1179 H 0.71424 0.27667 0.03531 0.0
H1180 H 0.67554 0.16635 0.00049 0.0
H1181 H 0.69869 0.19654 0.09153 0.0
H1182 H 0.74176 0.21166 0.96831 0.0
H1183 H 0.71634 0.22624 0.96302 0.0
H1184 H 0.70783 0.18348 0.96093 0.0
H1185 H 0.76664 0.2465 0.07744 0.0
H1186 H 0.73982 0.23771 0.10394 0.0
H1187 H 0.74713 0.26979 0.0769 0.0
C1188 C 0.41937 0.77094 0.53871 0.0
C1189 C 0.39607 0.77459 0.54604 0.0
C1190 C 0.4196 0.74006 0.53806 0.0
C1191 C 0.3958 0.71242 0.54422 0.0
C1192 C 0.37192 0.71605 0.55008 0.0
C1193 C 0.37244 0.74718 0.55131 0.0
C1194 C 0.44549 0.7371 0.53217 0.0
C1195 C 0.34598 0.68716 0.55596 0.0
C1196 C 0.38922 0.62923 0.52048 0.0
C1197 C 0.39207 0.61571 0.54797 0.0
C1198 C 0.39083 0.66083 0.51886 0.0
C1199 C 0.39586 0.6797 0.54527 0.0
C1200 C 0.39955 0.66667 0.57297 0.0
C1201 C 0.39738 0.63468 0.57405 0.0
C1202 C 0.38621 0.6736 0.48904 0.0
C1203 C 0.40525 0.6863 0.60157 0.0
H1204 H 0.4377 0.7923 0.5352 0.0
H1205 H 0.35445 0.75019 0.55704 0.0
H1206 H 0.45128 0.72719 0.5524 0.0
H1207 H 0.44307 0.71992 0.51349 0.0
H1208 H 0.46193 0.76076 0.52649 0.0
H1209 H 0.3289 0.69407 0.55815 0.0
H1210 H 0.34168 0.66927 0.53749 0.0
H1211 H 0.34756 0.67492 0.57699 0.0
H1212 H 0.38496 0.61481 0.50017 0.0
H1213 H 0.39964 0.6245 0.59534 0.0
H1214 H 0.40314 0.69687 0.48361 0.0
H1215 H 0.36807 0.67847 0.49039 0.0
H1216 H 0.38366 0.65632 0.47035 0.0
H1217 H 0.42249 0.70991 0.59828 0.0
H1218 H 0.40956 0.67352 0.62076 0.0
H1219 H 0.38785 0.69153 0.60748 0.0
C1220 C 0.68741 0.45542 0.01346 0.0
C1221 C 0.68883 0.48554 0.02292 0.0
C1222 C 0.70978 0.44817 0.01471 0.0
C1223 C 0.73416 0.4717 0.02579 0.0
C1224 C 0.73617 0.50303 0.03328 0.0
C1225 C 0.71331 0.50947 0.0321 0.0
C1226 C 0.70656 0.41429 0.00695 0.0
C1227 C 0.76185 0.52887 0.04491 0.0
C1228 C 0.77744 0.43766 0.06685 0.0
C1229 C 0.79567 0.43863 0.04444 0.0
C1230 C 0.7577 0.44905 0.06124 0.0
C1231 C 0.7564 0.46219 0.03269 0.0
C1232 C 0.77527 0.46428 0.01035 0.0
C1233 C 0.79451 0.45223 0.01638 0.0
C1234 C 0.73765 0.44597 0.08557 0.0
C1235 C 0.77467 0.47839 0.97977 0.0
H1236 H 0.66823 0.43637 0.00787 0.0
H1237 H 0.71414 0.53237 0.04041 0.0
H1238 H 0.72307 0.415 0.99228 0.0
H1239 H 0.7073 0.4013 0.02784 0.0
H1240 H 0.68734 0.40015 0.99546 0.0
H1241 H 0.76131 0.55311 0.04522 0.0
H1242 H 0.76542 0.52274 0.06815 0.0
H1243 H 0.77895 0.53013 0.03095 0.0
H1244 H 0.77805 0.4271 0.08853 0.0
H1245 H 0.8084 0.45307 0.99883 0.0
H1246 H 0.71736 0.42967 0.0779 0.0
H1247 H 0.73746 0.46992 0.09026 0.0
H1248 H 0.74192 0.43617 0.10683 0.0
H1249 H 0.75621 0.46267 0.96777 0.0
H1250 H 0.79207 0.48076 0.96576 0.0
H1251 H 0.77435 0.50262 0.98213 0.0
C1252 C 0.23257 0.68625 0.53632 0.0
C1253 C 0.20606 0.68221 0.53896 0.0
C1254 C 0.25341 0.71711 0.53562 0.0
C1255 C 0.24754 0.74471 0.53727 0.0
C1256 C 0.22063 0.74077 0.53675 0.0
C1257 C 0.20005 0.70936 0.53777 0.0
C1258 C 0.28175 0.71995 0.53618 0.0
C1259 C 0.21348 0.76951 0.53774 0.0
C1260 C 0.30305 0.80961 0.57987 0.0
C1261 C 0.32069 0.82513 0.5564 0.0
C1262 C 0.27779 0.78511 0.57388 0.0
C1263 C 0.2697 0.77669 0.5437 0.0
C1264 C 0.28592 0.79536 0.52006 0.0
C1265 C 0.31135 0.81922 0.52665 0.0
C1266 C 0.26103 0.76597 0.59983 0.0
C1267 C 0.27757 0.78805 0.48766 0.0
H1268 H 0.23712 0.66513 0.5373 0.0
H1269 H 0.17954 0.70622 0.54023 0.0
H1270 H 0.29389 0.73715 0.51873 0.0
H1271 H 0.29091 0.72953 0.55831 0.0
H1272 H 0.28285 0.69628 0.53245 0.0
H1273 H 0.19324 0.76332 0.52847 0.0
H1274 H 0.21359 0.77719 0.56142 0.0
H1275 H 0.22806 0.79034 0.52505 0.0
H1276 H 0.30973 0.81455 0.60296 0.0
H1277 H 0.32453 0.83168 0.5083 0.0
H1278 H 0.2608 0.74135 0.60002 0.0
H1279 H 0.24018 0.76315 0.59722 0.0
H1280 H 0.26872 0.77763 0.62184 0.0
H1281 H 0.28111 0.76678 0.48018 0.0
H1282 H 0.28909 0.80879 0.47277 0.0
H1283 H 0.25601 0.78197 0.48496 0.0
C1284 C 0.80726 0.50749 0.47685 0.0
C1285 C 0.80384 0.47513 0.47762 0.0
C1286 C 0.78503 0.51527 0.47669 0.0
C1287 C 0.75906 0.48998 0.47697 0.0
C1288 C 0.75582 0.45758 0.48133 0.0
C1289 C 0.77833 0.45063 0.48179 0.0
C1290 C 0.78937 0.55016 0.4729 0.0
C1291 C 0.72858 0.42973 0.48154 0.0
C1292 C 0.69276 0.49661 0.47963 0.0
C1293 C 0.68511 0.4916 0.44928 0.0
C1294 C 0.71795 0.4992 0.48888 0.0
C1295 C 0.73562 0.49601 0.46737 0.0
C1296 C 0.72885 0.49366 0.43646 0.0
C1297 C 0.70389 0.49214 0.42777 0.0
C1298 C 0.72477 0.50284 0.52188 0.0
C1299 C 0.74701 0.48999 0.41269 0.0
H1300 H 0.82699 0.52637 0.47303 0.0
H1301 H 0.77578 0.42556 0.48192 0.0
H1302 H 0.77412 0.55539 0.48532 0.0
H1303 H 0.80948 0.56692 0.48078 0.0
H1304 H 0.78771 0.55513 0.44876 0.0
H1305 H 0.72942 0.40665 0.48861 0.0
H1306 H 0.71492 0.43489 0.49683 0.0
H1307 H 0.71992 0.42639 0.45861 0.0
H1308 H 0.67861 0.49687 0.49644 0.0
H1309 H 0.69844 0.48894 0.40422 0.0
H1310 H 0.74592 0.51964 0.52539 0.0
H1311 H 0.72192 0.47896 0.53129 0.0
H1312 H 0.71188 0.51191 0.53463 0.0
H1313 H 0.73928 0.48971 0.38959 0.0
H1314 H 0.74934 0.46705 0.4163 0.0
H1315 H 0.76705 0.51013 0.41436 0.0
C1316 C 0.28016 0.79634 0.9816 0.0
C1317 C 0.30499 0.79602 0.98748 0.0
C1318 C 0.25685 0.76755 0.98249 0.0
C1319 C 0.25874 0.73792 0.98885 0.0
C1320 C 0.28357 0.73808 0.9974 0.0
C1321 C 0.30642 0.76724 0.99664 0.0
C1322 C 0.23074 0.76848 0.97364 0.0
C1323 C 0.2866 0.70707 0.00401 0.0
C1324 C 0.19858 0.65818 0.99967 0.0
C1325 C 0.19602 0.64405 0.97107 0.0
C1326 C 0.21814 0.68934 0.00551 0.0
C1327 C 0.23594 0.70654 0.98241 0.0
C1328 C 0.2331 0.6928 0.95331 0.0
C1329 C 0.21301 0.66186 0.94792 0.0
C1330 C 0.2203 0.7034 0.03665 0.0
C1331 C 0.25197 0.71022 0.92812 0.0
H1332 H 0.27924 0.81849 0.97364 0.0
H1333 H 0.32579 0.76689 1.00011 0.0
H1334 H 0.22591 0.75991 0.95014 0.0
H1335 H 0.2143 0.75219 0.98814 0.0
H1336 H 0.2316 0.79338 0.97506 0.0
H1337 H 0.30631 0.71172 0.01406 0.0
H1338 H 0.27076 0.69147 0.01951 0.0
H1339 H 0.28458 0.69335 0.98281 0.0
H1340 H 0.18559 0.6447 0.01775 0.0
H1341 H 0.21128 0.65121 0.92579 0.0
H1342 H 0.22107 0.72824 0.03543 0.0
H1343 H 0.23906 0.70528 0.04735 0.0
H1344 H 0.20334 0.68837 0.05124 0.0
H1345 H 0.25206 0.7345 0.92454 0.0
H1346 H 0.24665 0.69661 0.90661 0.0
H1347 H 0.27257 0.71396 0.93425 0.0
C1348 C 0.60159 0.22181 0.46984 0.0
C1349 C 0.60585 0.21375 0.44039 0.0
C1350 C 0.59833 0.25027 0.47594 0.0
C1351 C 0.59926 0.27119 0.45203 0.0
C1352 C 0.60201 0.26239 0.42208 0.0
C1353 C 0.60527 0.23372 0.41659 0.0
C1354 C 0.59546 0.25884 0.50814 0.0
C1355 C 0.60291 0.28409 0.39596 0.0
C1356 C 0.57846 0.34089 0.46085 0.0
C1357 C 0.60336 0.36716 0.46176 0.0
C1358 C 0.57662 0.30908 0.45903 0.0
C1359 C 0.60026 0.30381 0.45845 0.0
C1360 C 0.62533 0.33029 0.46178 0.0
C1361 C 0.62656 0.36171 0.46312 0.0
C1362 C 0.54958 0.2815 0.45528 0.0
C1363 C 0.651 0.3257 0.46173 0.0
H1364 H 0.60178 0.20648 0.48845 0.0
H1365 H 0.60845 0.22768 0.39379 0.0
H1366 H 0.61379 0.27983 0.51515 0.0
H1367 H 0.57861 0.2661 0.51038 0.0
H1368 H 0.59217 0.23841 0.52375 0.0
H1369 H 0.60268 0.27243 0.37395 0.0
H1370 H 0.58571 0.29082 0.39695 0.0
H1371 H 0.62128 0.30684 0.3973 0.0
H1372 H 0.56061 0.34533 0.45902 0.0
H1373 H 0.6458 0.38225 0.46342 0.0
H1374 H 0.54768 0.26068 0.46968 0.0
H1375 H 0.54712 0.27306 0.43162 0.0
H1376 H 0.5332 0.28887 0.46082 0.0
H1377 H 0.64986 0.30662 0.478 0.0
H1378 H 0.66851 0.34837 0.46745 0.0
H1379 H 0.65428 0.31763 0.43914 0.0
C1380 C 0.19566 0.49002 0.99188 0.0
C1381 C 0.20016 0.52263 0.99466 0.0
C1382 C 0.21711 0.48123 0.98766 0.0
C1383 C 0.24335 0.50577 0.98595 0.0
C1384 C 0.24799 0.53837 0.99196 0.0
C1385 C 0.22626 0.54634 0.99634 0.0
C1386 C 0.21135 0.44617 0.98191 0.0
C1387 C 0.27559 0.56541 0.99027 0.0
C1388 C 0.30849 0.49694 0.98103 0.0
C1389 C 0.3146 0.5034 0.9504 0.0
C1390 C 0.28402 0.49435 0.99269 0.0
C1391 C 0.26546 0.49883 0.97336 0.0
C1392 C 0.27043 0.50215 0.94201 0.0
C1393 C 0.29478 0.50385 0.93086 0.0
C1394 C 0.27909 0.48969 0.02605 0.0
C1395 C 0.25117 0.50711 0.92055 0.0
H1396 H 0.17539 0.47182 0.98988 0.0
H1397 H 0.22956 0.57161 0.99797 0.0
H1398 H 0.2272 0.4398 0.99141 0.0
H1399 H 0.19186 0.42979 0.99161 0.0
H1400 H 0.21059 0.44186 0.95732 0.0
H1401 H 0.27607 0.58878 0.99855 0.0
H1402 H 0.2899 0.55932 0.00361 0.0
H1403 H 0.28255 0.56874 0.96659 0.0
H1404 H 0.32342 0.49581 0.9963 0.0
H1405 H 0.29904 0.50813 0.9071 0.0
H1406 H 0.25809 0.47303 0.0307 0.0
H1407 H 0.28277 0.51333 0.03662 0.0
H1408 H 0.29245 0.47994 0.03683 0.0
H1409 H 0.25674 0.50626 0.89668 0.0
H1410 H 0.25079 0.53107 0.9248 0.0
H1411 H 0.23069 0.4884 0.92415 0.0
C1412 C 0.69915 0.23311 0.47535 0.0
C1413 C 0.69984 0.20428 0.46506 0.0
C1414 C 0.72189 0.2624 0.47408 0.0
C1415 C 0.74584 0.26276 0.46212 0.0
C1416 C 0.74719 0.23317 0.45418 0.0
C1417 C 0.72402 0.20421 0.45555 0.0
C1418 C 0.71943 0.29333 0.48261 0.0
C1419 C 0.77234 0.23243 0.44154 0.0
C1420 C 0.78785 0.33949 0.41941 0.0
C1421 C 0.80691 0.35702 0.44097 0.0
C1422 C 0.76831 0.30842 0.42578 0.0
C1423 C 0.76804 0.29428 0.45427 0.0
C1424 C 0.78789 0.3112 0.47564 0.0
C1425 C 0.80696 0.34242 0.46883 0.0
C1426 C 0.7473 0.29127 0.40242 0.0
C1427 C 0.78842 0.29681 0.50609 0.0
H1428 H 0.68019 0.23332 0.48161 0.0
H1429 H 0.7243 0.18204 0.4467 0.0
H1430 H 0.73653 0.30886 0.49668 0.0
H1431 H 0.71963 0.30717 0.46196 0.0
H1432 H 0.70068 0.28856 0.49502 0.0
H1433 H 0.77158 0.20753 0.44152 0.0
H1434 H 0.77507 0.24139 0.41804 0.0
H1435 H 0.79 0.24852 0.45457 0.0
H1436 H 0.78756 0.35047 0.39785 0.0
H1437 H 0.82161 0.35562 0.48568 0.0
H1438 H 0.7274 0.28777 0.41105 0.0
H1439 H 0.74664 0.26691 0.39772 0.0
H1440 H 0.75091 0.30498 0.38098 0.0
H1441 H 0.77065 0.2947 0.51919 0.0
H1442 H 0.80654 0.31174 0.51912 0.0
H1443 H 0.78757 0.27203 0.50359 0.0
C1444 C 0.37307 0.63363 0.96801 0.0
C1445 C 0.39615 0.62826 0.96423 0.0
C1446 C 0.37431 0.6651 0.96855 0.0
C1447 C 0.39921 0.6917 0.96449 0.0
C1448 C 0.42281 0.68642 0.96265 0.0
C1449 C 0.42099 0.65458 0.96276 0.0
C1450 C 0.34871 0.66967 0.97112 0.0
C1451 C 0.44965 0.7141 0.95795 0.0
C1452 C 0.39287 0.76265 0.92569 0.0
C1453 C 0.39408 0.78277 0.95009 0.0
C1454 C 0.3958 0.7336 0.92993 0.0
C1455 C 0.39995 0.72442 0.95927 0.0
C1456 C 0.40246 0.74531 0.98375 0.0
C1457 C 0.39962 0.77428 0.97887 0.0
C1458 C 0.39325 0.712 0.90319 0.0
C1459 C 0.40673 0.73628 0.01535 0.0
H1460 H 0.35385 0.61308 0.96875 0.0
H1461 H 0.43872 0.65024 0.95907 0.0
H1462 H 0.35083 0.68866 0.98793 0.0
H1463 H 0.34409 0.67784 0.9492 0.0
H1464 H 0.33159 0.64694 0.97765 0.0
H1465 H 0.46624 0.70661 0.96174 0.0
H1466 H 0.45099 0.72306 0.93454 0.0
H1467 H 0.45226 0.73459 0.97314 0.0
H1468 H 0.38869 0.76898 0.90339 0.0
H1469 H 0.4008 0.78969 0.99792 0.0
H1470 H 0.37484 0.68939 0.90532 0.0
H1471 H 0.41031 0.70501 0.90247 0.0
H1472 H 0.39243 0.72388 0.88161 0.0
H1473 H 0.38869 0.71524 0.02298 0.0
H1474 H 0.4108 0.75651 0.03145 0.0
H1475 H 0.42359 0.7289 0.01602 0.0
loop_
_geom_bond_atom_site_label_1
_geom_bond_atom_site_label_2
_geom_bond_distance
_geom_bond_site_symmetry_2
_ccdc_geom_bond_type
Co0 O2 2.143 . S
Co0 O8 2.074 . S
Co0 O11 2.093 . S
Co0 O24 2.097 . S
Co0 N41 2.151 . S
Co0 N49 2.214 . S
Co1 O2 2.160 . S
Co1 O7 2.058 . S
Co1 O17 2.057 . S
Co1 O32 2.037 . S
Co1 N36 2.145 1_554 S
Co1 N57 2.257 . S
O2 Co0 2.143 . S
O2 Co1 2.160 . S
C3 O4 1.278 . S
C3 O11 1.224 . S
O4 C3 1.278 . S
C5 O6 1.245 . S
C5 O17 1.232 . S
O6 C5 1.245 . S
O7 Co1 2.058 . S
O7 C33 1.269 . S
O8 Co0 2.074 . S
O8 C33 1.257 . S
H9 C34 0.930 . S
H10 C40 0.930 . S
O11 Co0 2.093 . S
O11 C3 1.224 . S
H12 C44 0.929 . S
H13 C46 0.930 . S
H14 C47 0.930 . S
H15 C45 0.929 . S
H16 C48 0.928 . S
O17 Co1 2.057 . S
O17 C5 1.232 . S
H18 C37 0.929 . S
H19 C38 0.929 . S
H20 C50 0.931 . S
H21 C42 0.929 . S
H22 C51 0.930 . S
H23 C43 0.931 . S
O24 Co0 2.097 . S
O24 C52 1.214 . S
H25 C53 0.929 . S
H26 C54 0.929 . S
H27 C55 0.930 . S
H28 C56 0.929 . S
H29 C58 0.930 . S
H30 C35 0.930 . S
H31 C39 0.930 . S
O32 Co1 2.037 . S
O32 C52 1.234 . S
C33 O7 1.269 . S
C33 O8 1.257 . S
C34 H9 0.930 . S
C34 C37 1.388 . S
C34 C39 1.418 . S
C35 H30 0.930 . S
C35 C38 1.404 . S
C35 C39 1.353 . S
N36 Co1 2.145 1_556 S
N36 C37 1.397 . S
N36 C38 1.334 . S
C37 H18 0.929 . S
C37 C34 1.388 . S
C37 N36 1.397 . S
C38 H19 0.929 . S
C38 C35 1.404 . S
C38 N36 1.334 . S
C39 H31 0.930 . S
C39 C34 1.418 . S
C39 C35 1.353 . S
C40 H10 0.930 . S
C40 N41 1.330 . S
C40 C42 1.446 . S
N41 Co0 2.151 . S
N41 C40 1.330 . S
N41 C45 1.418 . S
C42 H21 0.929 . S
C42 C40 1.446 . S
C42 C43 1.332 . S
C43 H23 0.931 . S
C43 C42 1.332 . S
C43 C44 1.267 . S
C44 H12 0.929 . S
C44 C43 1.267 . S
C44 C45 1.251 . S
C45 H15 0.929 . S
C45 N41 1.418 . S
C45 C44 1.251 . S
C46 H13 0.930 . S
C46 C48 1.406 . S
C46 C51 1.261 . S
C47 H14 0.930 . S
C47 N49 1.325 . S
C47 C50 1.357 . S
C48 H16 0.928 . S
C48 C46 1.406 . S
C48 N49 1.261 . S
N49 Co0 2.214 . S
N49 C47 1.325 . S
N49 C48 1.261 . S
C50 H20 0.931 . S
C50 C47 1.357 . S
C50 C51 1.312 . S
C51 H22 0.930 . S
C51 C46 1.261 . S
C51 C50 1.312 . S
C52 O24 1.214 . S
C52 O32 1.234 . S
C53 H25 0.929 . S
C53 C56 1.391 . S
C53 C58 1.391 . S
C54 H26 0.929 . S
C54 C55 1.390 . S
C54 N57 1.391 . S
C55 H27 0.930 . S
C55 C54 1.390 . S
C55 C56 1.392 . S
C56 H28 0.929 . S
C56 C53 1.391 . S
C56 C55 1.392 . S
N57 Co1 2.257 . S
N57 C54 1.391 . S
N57 C58 1.388 . S
C58 H29 0.930 . S
C58 C53 1.391 . S
C58 N57 1.388 . S
Co59 O61 2.143 . S
Co59 O67 2.074 . S
Co59 O70 2.093 . S
Co59 O83 2.097 . S
Co59 N100 2.151 . S
Co59 N108 2.214 . S
Co60 O61 2.160 . S
Co60 O66 2.058 . S
Co60 O76 2.057 . S
Co60 O91 2.037 . S
Co60 N95 2.145 . S
Co60 N116 2.257 . S
O61 Co59 2.143 . S
O61 Co60 2.160 . S
C62 O63 1.278 . S
C62 O70 1.224 . S
O63 C62 1.278 . S
C64 O65 1.245 . S
C64 O76 1.232 . S
O65 C64 1.245 . S
O66 Co60 2.058 . S
O66 C92 1.269 . S
O67 Co59 2.074 . S
O67 C92 1.257 . S
H68 C93 0.930 . S
H69 C99 0.930 . S
O70 Co59 2.093 . S
O70 C62 1.224 . S
H71 C103 0.929 . S
H72 C105 0.930 . S
H73 C106 0.930 . S
H74 C104 0.929 . S
H75 C107 0.928 . S
O76 Co60 2.057 . S
O76 C64 1.232 . S
H77 C96 0.929 . S
H78 C97 0.929 . S
H79 C109 0.931 . S
H80 C101 0.929 . S
H81 C110 0.930 . S
H82 C102 0.931 . S
O83 Co59 2.097 . S
O83 C111 1.214 . S
H84 C112 0.929 . S
H85 C113 0.929 . S
H86 C114 0.930 . S
H87 C115 0.929 . S
H88 C117 0.930 . S
H89 C94 0.930 . S
H90 C98 0.930 . S
O91 Co60 2.037 . S
O91 C111 1.234 . S
C92 O66 1.269 . S
C92 O67 1.257 . S
C93 H68 0.930 . S
C93 C96 1.388 . S
C93 C98 1.418 . S
C94 H89 0.930 . S
C94 C97 1.404 . S
C94 C98 1.353 . S
N95 Co60 2.145 . S
N95 C96 1.397 . S
N95 C97 1.334 . S
C96 H77 0.929 . S
C96 C93 1.388 . S
C96 N95 1.397 . S
C97 H78 0.929 . S
C97 C94 1.404 . S
C97 N95 1.334 . S
C98 H90 0.930 . S
C98 C93 1.418 . S
C98 C94 1.353 . S
C99 H69 0.930 . S
C99 N100 1.330 . S
C99 C101 1.446 . S
N100 Co59 2.151 . S
N100 C99 1.330 . S
N100 C104 1.418 . S
C101 H80 0.929 . S
C101 C99 1.446 . S
C101 C102 1.332 . S
C102 H82 0.931 . S
C102 C101 1.332 . S
C102 C103 1.267 . S
C103 H71 0.929 . S
C103 C102 1.267 . S
C103 C104 1.251 . S
C104 H74 0.929 . S
C104 N100 1.418 . S
C104 C103 1.251 . S
C105 H72 0.930 . S
C105 C107 1.406 . S
C105 C110 1.261 . S
C106 H73 0.930 . S
C106 N108 1.325 . S
C106 C109 1.357 . S
C107 H75 0.928 . S
C107 C105 1.406 . S
C107 N108 1.261 . S
N108 Co59 2.214 . S
N108 C106 1.325 . S
N108 C107 1.261 . S
C109 H79 0.931 . S
C109 C106 1.357 . S
C109 C110 1.312 . S
C110 H81 0.930 . S
C110 C105 1.261 . S
C110 C109 1.312 . S
C111 O83 1.214 . S
C111 O91 1.234 . S
C112 H84 0.929 . S
C112 C115 1.391 . S
C112 C117 1.391 . S
C113 H85 0.929 . S
C113 C114 1.390 . S
C113 N116 1.391 . S
C114 H86 0.930 . S
C114 C113 1.390 . S
C114 C115 1.392 . S
C115 H87 0.929 . S
C115 C112 1.391 . S
C115 C114 1.392 . S
N116 Co60 2.257 . S
N116 C113 1.391 . S
N116 C117 1.388 . S
C117 H88 0.930 . S
C117 C112 1.391 . S
C117 N116 1.388 . S
Co118 O120 2.143 . S
Co118 O126 2.074 . S
Co118 O129 2.093 . S
Co118 O142 2.097 . S
Co118 N159 2.151 . S
Co118 N167 2.214 1_554 S
Co119 O120 2.160 . S
Co119 O125 2.058 . S
Co119 O135 2.057 . S
Co119 O150 2.037 . S
Co119 N154 2.145 . S
Co119 N175 2.257 . S
O120 Co118 2.143 . S
O120 Co119 2.160 . S
C121 O122 1.278 . S
C121 O129 1.224 . S
O122 C121 1.278 . S
C123 O124 1.245 . S
C123 O135 1.232 . S
O124 C123 1.245 . S
O125 Co119 2.058 . S
O125 C151 1.269 . S
O126 Co118 2.074 . S
O126 C151 1.257 . S
H127 C152 0.930 . S
H128 C158 0.930 . S
O129 Co118 2.093 . S
O129 C121 1.224 . S
H130 C162 0.929 . S
H131 C164 0.930 . S
H132 C165 0.930 . S
H133 C163 0.929 . S
H134 C166 0.928 . S
O135 Co119 2.057 . S
O135 C123 1.232 . S
H136 C155 0.929 . S
H137 C156 0.929 . S
H138 C168 0.931 . S
H139 C160 0.929 . S
H140 C169 0.930 . S
H141 C161 0.931 . S
O142 Co118 2.097 . S
O142 C170 1.214 . S
H143 C171 0.929 . S
H144 C172 0.929 . S
H145 C173 0.930 . S
H146 C174 0.929 . S
H147 C176 0.930 . S
H148 C153 0.930 . S
H149 C157 0.930 . S
O150 Co119 2.037 . S
O150 C170 1.234 . S
C151 O125 1.269 . S
C151 O126 1.257 . S
C152 H127 0.930 . S
C152 C155 1.388 . S
C152 C157 1.418 . S
C153 H148 0.930 . S
C153 C156 1.404 . S
C153 C157 1.353 . S
N154 Co119 2.145 . S
N154 C155 1.397 . S
N154 C156 1.334 . S
C155 H136 0.929 . S
C155 C152 1.388 . S
C155 N154 1.397 . S
C156 H137 0.929 . S
C156 C153 1.404 . S
C156 N154 1.334 . S
C157 H149 0.930 . S
C157 C152 1.418 . S
C157 C153 1.353 . S
C158 H128 0.930 . S
C158 N159 1.330 . S
C158 C160 1.446 . S
N159 Co118 2.151 . S
N159 C158 1.330 . S
N159 C163 1.418 . S
C160 H139 0.929 . S
C160 C158 1.446 . S
C160 C161 1.332 . S
C161 H141 0.931 . S
C161 C160 1.332 . S
C161 C162 1.267 . S
C162 H130 0.929 . S
C162 C161 1.267 . S
C162 C163 1.251 . S
C163 H133 0.929 . S
C163 N159 1.418 . S
C163 C162 1.251 . S
C164 H131 0.930 . S
C164 C166 1.406 . S
C164 C169 1.261 . S
C165 H132 0.930 . S
C165 N167 1.325 . S
C165 C168 1.357 . S
C166 H134 0.928 . S
C166 C164 1.406 . S
C166 N167 1.261 . S
N167 Co118 2.214 1_556 S
N167 C165 1.325 . S
N167 C166 1.261 . S
C168 H138 0.931 . S
C168 C165 1.357 . S
C168 C169 1.312 . S
C169 H140 0.930 . S
C169 C164 1.261 . S
C169 C168 1.312 . S
C170 O142 1.214 . S
C170 O150 1.234 . S
C171 H143 0.929 . S
C171 C174 1.391 . S
C171 C176 1.391 . S
C172 H144 0.929 . S
C172 C173 1.390 . S
C172 N175 1.391 . S
C173 H145 0.930 . S
C173 C172 1.390 . S
C173 C174 1.392 . S
C174 H146 0.929 . S
C174 C171 1.391 . S
C174 C173 1.392 . S
N175 Co119 2.257 . S
N175 C172 1.391 . S
N175 C176 1.388 . S
C176 H147 0.930 . S
C176 C171 1.391 . S
C176 N175 1.388 . S
Co177 O179 2.143 . S
Co177 O185 2.074 . S
Co177 O188 2.093 . S
Co177 O201 2.097 . S
Co177 N218 2.151 . S
Co177 N226 2.214 . S
Co178 O179 2.160 . S
Co178 O184 2.058 . S
Co178 O194 2.057 . S
Co178 O209 2.037 . S
Co178 N213 2.145 . S
Co178 N234 2.257 . S
O179 Co177 2.143 . S
O179 Co178 2.160 . S
C180 O181 1.278 . S
C180 O188 1.224 . S
O181 C180 1.278 . S
C182 O183 1.245 . S
C182 O194 1.232 . S
O183 C182 1.245 . S
O184 Co178 2.058 . S
O184 C210 1.269 . S
O185 Co177 2.074 . S
O185 C210 1.257 . S
H186 C211 0.930 . S
H187 C217 0.930 . S
O188 Co177 2.093 . S
O188 C180 1.224 . S
H189 C221 0.929 . S
H190 C223 0.930 . S
H191 C224 0.930 . S
H192 C222 0.929 . S
H193 C225 0.928 . S
O194 Co178 2.057 . S
O194 C182 1.232 . S
H195 C214 0.929 . S
H196 C215 0.929 . S
H197 C227 0.931 . S
H198 C219 0.929 . S
H199 C228 0.930 . S
H200 C220 0.931 . S
O201 Co177 2.097 . S
O201 C229 1.214 . S
H202 C230 0.929 . S
H203 C231 0.929 . S
H204 C232 0.930 . S
H205 C233 0.929 . S
H206 C235 0.930 . S
H207 C212 0.930 . S
H208 C216 0.930 . S
O209 Co178 2.037 . S
O209 C229 1.234 . S
C210 O184 1.269 . S
C210 O185 1.257 . S
C211 H186 0.930 . S
C211 C214 1.388 . S
C211 C216 1.418 . S
C212 H207 0.930 . S
C212 C215 1.404 . S
C212 C216 1.353 . S
N213 Co178 2.145 . S
N213 C214 1.397 . S
N213 C215 1.334 . S
C214 H195 0.929 . S
C214 C211 1.388 . S
C214 N213 1.397 . S
C215 H196 0.929 . S
C215 C212 1.404 . S
C215 N213 1.334 . S
C216 H208 0.930 . S
C216 C211 1.418 . S
C216 C212 1.353 . S
C217 H187 0.930 . S
C217 N218 1.330 . S
C217 C219 1.446 . S
N218 Co177 2.151 . S
N218 C217 1.330 . S
N218 C222 1.418 . S
C219 H198 0.929 . S
C219 C217 1.446 . S
C219 C220 1.332 . S
C220 H200 0.931 . S
C220 C219 1.332 . S
C220 C221 1.267 . S
C221 H189 0.929 . S
C221 C220 1.267 . S
C221 C222 1.251 . S
C222 H192 0.929 . S
C222 N218 1.418 . S
C222 C221 1.251 . S
C223 H190 0.930 . S
C223 C225 1.406 . S
C223 C228 1.261 . S
C224 H191 0.930 . S
C224 N226 1.325 . S
C224 C227 1.357 . S
C225 H193 0.928 . S
C225 C223 1.406 . S
C225 N226 1.261 . S
N226 Co177 2.214 . S
N226 C224 1.325 . S
N226 C225 1.261 . S
C227 H197 0.931 . S
C227 C224 1.357 . S
C227 C228 1.312 . S
C228 H199 0.930 . S
C228 C223 1.261 . S
C228 C227 1.312 . S
C229 O201 1.214 . S
C229 O209 1.234 . S
C230 H202 0.929 . S
C230 C233 1.391 . S
C230 C235 1.391 . S
C231 H203 0.929 . S
C231 C232 1.390 . S
C231 N234 1.391 . S
C232 H204 0.930 . S
C232 C231 1.390 . S
C232 C233 1.392 . S
C233 H205 0.929 . S
C233 C230 1.391 . S
C233 C232 1.392 . S
N234 Co178 2.257 . S
N234 C231 1.391 . S
N234 C235 1.388 . S
C235 H206 0.930 . S
C235 C230 1.391 . S
C235 N234 1.388 . S
Co236 O238 2.143 . S
Co236 O244 2.074 . S
Co236 O247 2.093 . S
Co236 O260 2.097 . S
Co236 N277 2.151 . S
Co236 N285 2.214 . S
Co237 O238 2.160 . S
Co237 O243 2.058 . S
Co237 O253 2.057 . S
Co237 O268 2.037 . S
Co237 N272 2.145 1_554 S
Co237 N293 2.257 . S
O238 Co236 2.143 . S
O238 Co237 2.160 . S
C239 O240 1.278 . S
C239 O247 1.224 . S
O240 C239 1.278 . S
C241 O242 1.245 . S
C241 O253 1.232 . S
O242 C241 1.245 . S
O243 Co237 2.058 . S
O243 C269 1.269 . S
O244 Co236 2.074 . S
O244 C269 1.257 . S
H245 C270 0.930 . S
H246 C276 0.930 . S
O247 Co236 2.093 . S
O247 C239 1.224 . S
H248 C280 0.929 . S
H249 C282 0.930 . S
H250 C283 0.930 . S
H251 C281 0.929 . S
H252 C284 0.928 . S
O253 Co237 2.057 . S
O253 C241 1.232 . S
H254 C273 0.929 . S
H255 C274 0.929 . S
H256 C286 0.931 . S
H257 C278 0.929 . S
H258 C287 0.930 . S
H259 C279 0.931 . S
O260 Co236 2.097 . S
O260 C288 1.214 . S
H261 C289 0.929 . S
H262 C290 0.929 . S
H263 C291 0.930 . S
H264 C292 0.929 . S
H265 C294 0.930 . S
H266 C271 0.930 . S
H267 C275 0.930 . S
O268 Co237 2.037 . S
O268 C288 1.234 . S
C269 O243 1.269 . S
C269 O244 1.257 . S
C270 H245 0.930 . S
C270 C273 1.388 . S
C270 C275 1.418 . S
C271 H266 0.930 . S
C271 C274 1.404 . S
C271 C275 1.353 . S
N272 Co237 2.145 1_556 S
N272 C273 1.397 . S
N272 C274 1.334 . S
C273 H254 0.929 . S
C273 C270 1.388 . S
C273 N272 1.397 . S
C274 H255 0.929 . S
C274 C271 1.404 . S
C274 N272 1.334 . S
C275 H267 0.930 . S
C275 C270 1.418 . S
C275 C271 1.353 . S
C276 H246 0.930 . S
C276 N277 1.330 . S
C276 C278 1.446 . S
N277 Co236 2.151 . S
N277 C276 1.330 . S
N277 C281 1.418 . S
C278 H257 0.929 . S
C278 C276 1.446 . S
C278 C279 1.332 . S
C279 H259 0.931 . S
C279 C278 1.332 . S
C279 C280 1.267 . S
C280 H248 0.929 . S
C280 C279 1.267 . S
C280 C281 1.251 . S
C281 H251 0.929 . S
C281 N277 1.418 . S
C281 C280 1.251 . S
C282 H249 0.930 . S
C282 C284 1.406 . S
C282 C287 1.261 . S
C283 H250 0.930 . S
C283 N285 1.325 . S
C283 C286 1.357 . S
C284 H252 0.928 . S
C284 C282 1.406 . S
C284 N285 1.261 . S
N285 Co236 2.214 . S
N285 C283 1.325 . S
N285 C284 1.261 . S
C286 H256 0.931 . S
C286 C283 1.357 . S
C286 C287 1.312 . S
C287 H258 0.930 . S
C287 C282 1.261 . S
C287 C286 1.312 . S
C288 O260 1.214 . S
C288 O268 1.234 . S
C289 H261 0.929 . S
C289 C292 1.391 . S
C289 C294 1.391 . S
C290 H262 0.929 . S
C290 C291 1.390 . S
C290 N293 1.391 . S
C291 H263 0.930 . S
C291 C290 1.390 . S
C291 C292 1.392 . S
C292 H264 0.929 . S
C292 C289 1.391 . S
C292 C291 1.392 . S
N293 Co237 2.257 . S
N293 C290 1.391 . S
N293 C294 1.388 . S
C294 H265 0.930 . S
C294 C289 1.391 . S
C294 N293 1.388 . S
Co295 O297 2.143 . S
Co295 O303 2.074 . S
Co295 O306 2.093 . S
Co295 O319 2.097 . S
Co295 N336 2.151 . S
Co295 N344 2.214 . S
Co296 O297 2.160 . S
Co296 O302 2.058 . S
Co296 O312 2.057 . S
Co296 O327 2.037 . S
Co296 N331 2.145 . S
Co296 N352 2.257 . S
O297 Co295 2.143 . S
O297 Co296 2.160 . S
C298 O299 1.278 . S
C298 O306 1.224 . S
O299 C298 1.278 . S
C300 O301 1.245 . S
C300 O312 1.232 . S
O301 C300 1.245 . S
O302 Co296 2.058 . S
O302 C328 1.269 . S
O303 Co295 2.074 . S
O303 C328 1.257 . S
H304 C329 0.930 . S
H305 C335 0.930 . S
O306 Co295 2.093 . S
O306 C298 1.224 . S
H307 C339 0.929 . S
H308 C341 0.930 . S
H309 C342 0.930 . S
H310 C340 0.929 . S
H311 C343 0.928 . S
O312 Co296 2.057 . S
O312 C300 1.232 . S
H313 C332 0.929 . S
H314 C333 0.929 . S
H315 C345 0.931 . S
H316 C337 0.929 . S
H317 C346 0.930 . S
H318 C338 0.931 . S
O319 Co295 2.097 . S
O319 C347 1.214 . S
H320 C348 0.929 . S
H321 C349 0.929 . S
H322 C350 0.930 . S
H323 C351 0.929 . S
H324 C353 0.930 . S
H325 C330 0.930 . S
H326 C334 0.930 . S
O327 Co296 2.037 . S
O327 C347 1.234 . S
C328 O302 1.269 . S
C328 O303 1.257 . S
C329 H304 0.930 . S
C329 C332 1.388 . S
C329 C334 1.418 . S
C330 H325 0.930 . S
C330 C333 1.404 . S
C330 C334 1.353 . S
N331 Co296 2.145 . S
N331 C332 1.397 . S
N331 C333 1.334 . S
C332 H313 0.929 . S
C332 C329 1.388 . S
C332 N331 1.397 . S
C333 H314 0.929 . S
C333 C330 1.404 . S
C333 N331 1.334 . S
C334 H326 0.930 . S
C334 C329 1.418 . S
C334 C330 1.353 . S
C335 H305 0.930 . S
C335 N336 1.330 . S
C335 C337 1.446 . S
N336 Co295 2.151 . S
N336 C335 1.330 . S
N336 C340 1.418 . S
C337 H316 0.929 . S
C337 C335 1.446 . S
C337 C338 1.332 . S
C338 H318 0.931 . S
C338 C337 1.332 . S
C338 C339 1.267 . S
C339 H307 0.929 . S
C339 C338 1.267 . S
C339 C340 1.251 . S
C340 H310 0.929 . S
C340 N336 1.418 . S
C340 C339 1.251 . S
C341 H308 0.930 . S
C341 C343 1.406 . S
C341 C346 1.261 . S
C342 H309 0.930 . S
C342 N344 1.325 . S
C342 C345 1.357 . S
C343 H311 0.928 . S
C343 C341 1.406 . S
C343 N344 1.261 . S
N344 Co295 2.214 . S
N344 C342 1.325 . S
N344 C343 1.261 . S
C345 H315 0.931 . S
C345 C342 1.357 . S
C345 C346 1.312 . S
C346 H317 0.930 . S
C346 C341 1.261 . S
C346 C345 1.312 . S
C347 O319 1.214 . S
C347 O327 1.234 . S
C348 H320 0.929 . S
C348 C351 1.391 . S
C348 C353 1.391 . S
C349 H321 0.929 . S
C349 C350 1.390 . S
C349 N352 1.391 . S
C350 H322 0.930 . S
C350 C349 1.390 . S
C350 C351 1.392 . S
C351 H323 0.929 . S
C351 C348 1.391 . S
C351 C350 1.392 . S
N352 Co296 2.257 . S
N352 C349 1.391 . S
N352 C353 1.388 . S
C353 H324 0.930 . S
C353 C348 1.391 . S
C353 N352 1.388 . S
Co354 O356 2.143 . S
Co354 O362 2.074 . S
Co354 O365 2.093 . S
Co354 O378 2.097 . S
Co354 N395 2.151 . S
Co354 N403 2.214 . S
Co355 O356 2.160 . S
Co355 O361 2.058 . S
Co355 O371 2.057 . S
Co355 O386 2.037 . S
Co355 N390 2.145 . S
Co355 N411 2.257 . S
O356 Co354 2.143 . S
O356 Co355 2.160 . S
C357 O358 1.278 . S
C357 O365 1.224 . S
O358 C357 1.278 . S
C359 O360 1.245 . S
C359 O371 1.232 . S
O360 C359 1.245 . S
O361 Co355 2.058 . S
O361 C387 1.269 . S
O362 Co354 2.074 . S
O362 C387 1.257 . S
H363 C388 0.930 . S
H364 C394 0.930 . S
O365 Co354 2.093 . S
O365 C357 1.224 . S
H366 C398 0.929 . S
H367 C400 0.930 . S
H368 C401 0.930 . S
H369 C399 0.929 . S
H370 C402 0.928 . S
O371 Co355 2.057 . S
O371 C359 1.232 . S
H372 C391 0.929 . S
H373 C392 0.929 . S
H374 C404 0.931 . S
H375 C396 0.929 . S
H376 C405 0.930 . S
H377 C397 0.931 . S
O378 Co354 2.097 . S
O378 C406 1.214 . S
H379 C407 0.929 . S
H380 C408 0.929 . S
H381 C409 0.930 . S
H382 C410 0.929 . S
H383 C412 0.930 . S
H384 C389 0.930 . S
H385 C393 0.930 . S
O386 Co355 2.037 . S
O386 C406 1.234 . S
C387 O361 1.269 . S
C387 O362 1.257 . S
C388 H363 0.930 . S
C388 C391 1.388 . S
C388 C393 1.418 . S
C389 H384 0.930 . S
C389 C392 1.404 . S
C389 C393 1.353 . S
N390 Co355 2.145 . S
N390 C391 1.397 . S
N390 C392 1.334 . S
C391 H372 0.929 . S
C391 C388 1.388 . S
C391 N390 1.397 . S
C392 H373 0.929 . S
C392 C389 1.404 . S
C392 N390 1.334 . S
C393 H385 0.930 . S
C393 C388 1.418 . S
C393 C389 1.353 . S
C394 H364 0.930 . S
C394 N395 1.330 . S
C394 C396 1.446 . S
N395 Co354 2.151 . S
N395 C394 1.330 . S
N395 C399 1.418 . S
C396 H375 0.929 . S
C396 C394 1.446 . S
C396 C397 1.332 . S
C397 H377 0.931 . S
C397 C396 1.332 . S
C397 C398 1.267 . S
C398 H366 0.929 . S
C398 C397 1.267 . S
C398 C399 1.251 . S
C399 H369 0.929 . S
C399 N395 1.418 . S
C399 C398 1.251 . S
C400 H367 0.930 . S
C400 C402 1.406 . S
C400 C405 1.261 . S
C401 H368 0.930 . S
C401 N403 1.325 . S
C401 C404 1.357 . S
C402 H370 0.928 . S
C402 C400 1.406 . S
C402 N403 1.261 . S
N403 Co354 2.214 . S
N403 C401 1.325 . S
N403 C402 1.261 . S
C404 H374 0.931 . S
C404 C401 1.357 . S
C404 C405 1.312 . S
C405 H376 0.930 . S
C405 C400 1.261 . S
C405 C404 1.312 . S
C406 O378 1.214 . S
C406 O386 1.234 . S
C407 H379 0.929 . S
C407 C410 1.391 . S
C407 C412 1.391 . S
C408 H380 0.929 . S
C408 C409 1.390 . S
C408 N411 1.391 . S
C409 H381 0.930 . S
C409 C408 1.390 . S
C409 C410 1.392 . S
C410 H382 0.929 . S
C410 C407 1.391 . S
C410 C409 1.392 . S
N411 Co355 2.257 . S
N411 C408 1.391 . S
N411 C412 1.388 . S
C412 H383 0.930 . S
C412 C407 1.391 . S
C412 N411 1.388 . S
Co413 O415 2.143 . S
Co413 O421 2.074 . S
Co413 O424 2.093 . S
Co413 O437 2.097 . S
Co413 N454 2.151 . S
Co413 N462 2.214 . S
Co414 O415 2.160 . S
Co414 O420 2.058 . S
Co414 O430 2.057 . S
Co414 O445 2.037 . S
Co414 N449 2.145 1_556 S
Co414 N470 2.257 . S
O415 Co413 2.143 . S
O415 Co414 2.160 . S
C416 O417 1.278 . S
C416 O424 1.224 . S
O417 C416 1.278 . S
C418 O419 1.245 . S
C418 O430 1.232 . S
O419 C418 1.245 . S
O420 Co414 2.058 . S
O420 C446 1.269 . S
O421 Co413 2.074 . S
O421 C446 1.257 . S
H422 C447 0.930 . S
H423 C453 0.930 . S
O424 Co413 2.093 . S
O424 C416 1.224 . S
H425 C457 0.929 . S
H426 C459 0.930 . S
H427 C460 0.930 . S
H428 C458 0.929 . S
H429 C461 0.928 . S
O430 Co414 2.057 . S
O430 C418 1.232 . S
H431 C450 0.929 . S
H432 C451 0.929 . S
H433 C463 0.931 . S
H434 C455 0.929 . S
H435 C464 0.930 . S
H436 C456 0.931 . S
O437 Co413 2.097 . S
O437 C465 1.214 . S
H438 C466 0.929 . S
H439 C467 0.929 . S
H440 C468 0.930 . S
H441 C469 0.929 . S
H442 C471 0.930 . S
H443 C448 0.930 . S
H444 C452 0.930 . S
O445 Co414 2.037 . S
O445 C465 1.234 . S
C446 O420 1.269 . S
C446 O421 1.257 . S
C447 H422 0.930 . S
C447 C450 1.388 . S
C447 C452 1.418 . S
C448 H443 0.930 . S
C448 C451 1.404 . S
C448 C452 1.353 . S
N449 Co414 2.145 1_554 S
N449 C450 1.397 . S
N449 C451 1.334 . S
C450 H431 0.929 . S
C450 C447 1.388 . S
C450 N449 1.397 . S
C451 H432 0.929 . S
C451 C448 1.404 . S
C451 N449 1.334 . S
C452 H444 0.930 . S
C452 C447 1.418 . S
C452 C448 1.353 . S
C453 H423 0.930 . S
C453 N454 1.330 . S
C453 C455 1.446 . S
N454 Co413 2.151 . S
N454 C453 1.330 . S
N454 C458 1.418 . S
C455 H434 0.929 . S
C455 C453 1.446 . S
C455 C456 1.332 . S
C456 H436 0.931 . S
C456 C455 1.332 . S
C456 C457 1.267 . S
C457 H425 0.929 . S
C457 C456 1.267 . S
C457 C458 1.251 . S
C458 H428 0.929 . S
C458 N454 1.418 . S
C458 C457 1.251 . S
C459 H426 0.930 . S
C459 C461 1.406 . S
C459 C464 1.261 . S
C460 H427 0.930 . S
C460 N462 1.325 . S
C460 C463 1.357 . S
C461 H429 0.928 . S
C461 C459 1.406 . S
C461 N462 1.261 . S
N462 Co413 2.214 . S
N462 C460 1.325 . S
N462 C461 1.261 . S
C463 H433 0.931 . S
C463 C460 1.357 . S
C463 C464 1.312 . S
C464 H435 0.930 . S
C464 C459 1.261 . S
C464 C463 1.312 . S
C465 O437 1.214 . S
C465 O445 1.234 . S
C466 H438 0.929 . S
C466 C469 1.391 . S
C466 C471 1.391 . S
C467 H439 0.929 . S
C467 C468 1.390 . S
C467 N470 1.391 . S
C468 H440 0.930 . S
C468 C467 1.390 . S
C468 C469 1.392 . S
C469 H441 0.929 . S
C469 C466 1.391 . S
C469 C468 1.392 . S
N470 Co414 2.257 . S
N470 C467 1.391 . S
N470 C471 1.388 . S
C471 H442 0.930 . S
C471 C466 1.391 . S
C471 N470 1.388 . S
Co472 O474 2.143 . S
Co472 O480 2.074 . S
Co472 O483 2.093 . S
Co472 O496 2.097 . S
Co472 N513 2.151 . S
Co472 N521 2.214 . S
Co473 O474 2.160 . S
Co473 O479 2.058 . S
Co473 O489 2.057 . S
Co473 O504 2.037 . S
Co473 N508 2.145 . S
Co473 N529 2.257 . S
O474 Co472 2.143 . S
O474 Co473 2.160 . S
C475 O476 1.278 . S
C475 O483 1.224 . S
O476 C475 1.278 . S
C477 O478 1.245 . S
C477 O489 1.232 . S
O478 C477 1.245 . S
O479 Co473 2.058 . S
O479 C505 1.269 . S
O480 Co472 2.074 . S
O480 C505 1.257 . S
H481 C506 0.930 . S
H482 C512 0.930 . S
O483 Co472 2.093 . S
O483 C475 1.224 . S
H484 C516 0.929 . S
H485 C518 0.930 . S
H486 C519 0.930 . S
H487 C517 0.929 . S
H488 C520 0.928 . S
O489 Co473 2.057 . S
O489 C477 1.232 . S
H490 C509 0.929 . S
H491 C510 0.929 . S
H492 C522 0.931 . S
H493 C514 0.929 . S
H494 C523 0.930 . S
H495 C515 0.931 . S
O496 Co472 2.097 . S
O496 C524 1.214 . S
H497 C525 0.929 . S
H498 C526 0.929 . S
H499 C527 0.930 . S
H500 C528 0.929 . S
H501 C530 0.930 . S
H502 C507 0.930 . S
H503 C511 0.930 . S
O504 Co473 2.037 . S
O504 C524 1.234 . S
C505 O479 1.269 . S
C505 O480 1.257 . S
C506 H481 0.930 . S
C506 C509 1.388 . S
C506 C511 1.418 . S
C507 H502 0.930 . S
C507 C510 1.404 . S
C507 C511 1.353 . S
N508 Co473 2.145 . S
N508 C509 1.397 . S
N508 C510 1.334 . S
C509 H490 0.929 . S
C509 C506 1.388 . S
C509 N508 1.397 . S
C510 H491 0.929 . S
C510 C507 1.404 . S
C510 N508 1.334 . S
C511 H503 0.930 . S
C511 C506 1.418 . S
C511 C507 1.353 . S
C512 H482 0.930 . S
C512 N513 1.330 . S
C512 C514 1.446 . S
N513 Co472 2.151 . S
N513 C512 1.330 . S
N513 C517 1.418 . S
C514 H493 0.929 . S
C514 C512 1.446 . S
C514 C515 1.332 . S
C515 H495 0.931 . S
C515 C514 1.332 . S
C515 C516 1.267 . S
C516 H484 0.929 . S
C516 C515 1.267 . S
C516 C517 1.251 . S
C517 H487 0.929 . S
C517 N513 1.418 . S
C517 C516 1.251 . S
C518 H485 0.930 . S
C518 C520 1.406 . S
C518 C523 1.261 . S
C519 H486 0.930 . S
C519 N521 1.325 . S
C519 C522 1.357 . S
C520 H488 0.928 . S
C520 C518 1.406 . S
C520 N521 1.261 . S
N521 Co472 2.214 . S
N521 C519 1.325 . S
N521 C520 1.261 . S
C522 H492 0.931 . S
C522 C519 1.357 . S
C522 C523 1.312 . S
C523 H494 0.930 . S
C523 C518 1.261 . S
C523 C522 1.312 . S
C524 O496 1.214 . S
C524 O504 1.234 . S
C525 H497 0.929 . S
C525 C528 1.391 . S
C525 C530 1.391 . S
C526 H498 0.929 . S
C526 C527 1.390 . S
C526 N529 1.391 . S
C527 H499 0.930 . S
C527 C526 1.390 . S
C527 C528 1.392 . S
C528 H500 0.929 . S
C528 C525 1.391 . S
C528 C527 1.392 . S
N529 Co473 2.257 . S
N529 C526 1.391 . S
N529 C530 1.388 . S
C530 H501 0.930 . S
C530 C525 1.391 . S
C530 N529 1.388 . S
Co531 O533 2.143 . S
Co531 O539 2.074 . S
Co531 O542 2.093 . S
Co531 O555 2.097 . S
Co531 N572 2.151 . S
Co531 N580 2.214 . S
Co532 O533 2.160 . S
Co532 O538 2.058 . S
Co532 O548 2.057 . S
Co532 O563 2.037 . S
Co532 N567 2.145 1_556 S
Co532 N588 2.257 . S
O533 Co531 2.143 . S
O533 Co532 2.160 . S
C534 O535 1.278 . S
C534 O542 1.224 . S
O535 C534 1.278 . S
C536 O537 1.245 . S
C536 O548 1.232 . S
O537 C536 1.245 . S
O538 Co532 2.058 . S
O538 C564 1.269 . S
O539 Co531 2.074 . S
O539 C564 1.257 . S
H540 C565 0.930 . S
H541 C571 0.930 . S
O542 Co531 2.093 . S
O542 C534 1.224 . S
H543 C575 0.929 . S
H544 C577 0.930 . S
H545 C578 0.930 . S
H546 C576 0.929 . S
H547 C579 0.928 . S
O548 Co532 2.057 . S
O548 C536 1.232 . S
H549 C568 0.929 . S
H550 C569 0.929 . S
H551 C581 0.931 . S
H552 C573 0.929 . S
H553 C582 0.930 . S
H554 C574 0.931 . S
O555 Co531 2.097 . S
O555 C583 1.214 . S
H556 C584 0.929 . S
H557 C585 0.929 . S
H558 C586 0.930 . S
H559 C587 0.929 . S
H560 C589 0.930 . S
H561 C566 0.930 . S
H562 C570 0.930 . S
O563 Co532 2.037 . S
O563 C583 1.234 . S
C564 O538 1.269 . S
C564 O539 1.257 . S
C565 H540 0.930 . S
C565 C568 1.388 . S
C565 C570 1.418 . S
C566 H561 0.930 . S
C566 C569 1.404 . S
C566 C570 1.353 . S
N567 Co532 2.145 1_554 S
N567 C568 1.397 . S
N567 C569 1.334 . S
C568 H549 0.929 . S
C568 C565 1.388 . S
C568 N567 1.397 . S
C569 H550 0.929 . S
C569 C566 1.404 . S
C569 N567 1.334 . S
C570 H562 0.930 . S
C570 C565 1.418 . S
C570 C566 1.353 . S
C571 H541 0.930 . S
C571 N572 1.330 . S
C571 C573 1.446 . S
N572 Co531 2.151 . S
N572 C571 1.330 . S
N572 C576 1.418 . S
C573 H552 0.929 . S
C573 C571 1.446 . S
C573 C574 1.332 . S
C574 H554 0.931 . S
C574 C573 1.332 . S
C574 C575 1.267 . S
C575 H543 0.929 . S
C575 C574 1.267 . S
C575 C576 1.251 . S
C576 H546 0.929 . S
C576 N572 1.418 . S
C576 C575 1.251 . S
C577 H544 0.930 . S
C577 C579 1.406 . S
C577 C582 1.261 . S
C578 H545 0.930 . S
C578 N580 1.325 . S
C578 C581 1.357 . S
C579 H547 0.928 . S
C579 C577 1.406 . S
C579 N580 1.261 . S
N580 Co531 2.214 . S
N580 C578 1.325 . S
N580 C579 1.261 . S
C581 H551 0.931 . S
C581 C578 1.357 . S
C581 C582 1.312 . S
C582 H553 0.930 . S
C582 C577 1.261 . S
C582 C581 1.312 . S
C583 O555 1.214 . S
C583 O563 1.234 . S
C584 H556 0.929 . S
C584 C587 1.391 . S
C584 C589 1.391 . S
C585 H557 0.929 . S
C585 C586 1.390 . S
C585 N588 1.391 . S
C586 H558 0.930 . S
C586 C585 1.390 . S
C586 C587 1.392 . S
C587 H559 0.929 . S
C587 C584 1.391 . S
C587 C586 1.392 . S
N588 Co532 2.257 . S
N588 C585 1.391 . S
N588 C589 1.388 . S
C589 H560 0.930 . S
C589 C584 1.391 . S
C589 N588 1.388 . S
Co590 O592 2.143 . S
Co590 O598 2.074 . S
Co590 O601 2.093 . S
Co590 O614 2.097 . S
Co590 N631 2.151 . S
Co590 N639 2.214 . S
Co591 O592 2.160 . S
Co591 O597 2.058 . S
Co591 O607 2.057 . S
Co591 O622 2.037 . S
Co591 N626 2.145 . S
Co591 N647 2.257 . S
O592 Co590 2.143 . S
O592 Co591 2.160 . S
C593 O594 1.278 . S
C593 O601 1.224 . S
O594 C593 1.278 . S
C595 O596 1.245 . S
C595 O607 1.232 . S
O596 C595 1.245 . S
O597 Co591 2.058 . S
O597 C623 1.269 . S
O598 Co590 2.074 . S
O598 C623 1.257 . S
H599 C624 0.930 . S
H600 C630 0.930 . S
O601 Co590 2.093 . S
O601 C593 1.224 . S
H602 C634 0.929 . S
H603 C636 0.930 . S
H604 C637 0.930 . S
H605 C635 0.929 . S
H606 C638 0.928 . S
O607 Co591 2.057 . S
O607 C595 1.232 . S
H608 C627 0.929 . S
H609 C628 0.929 . S
H610 C640 0.931 . S
H611 C632 0.929 . S
H612 C641 0.930 . S
H613 C633 0.931 . S
O614 Co590 2.097 . S
O614 C642 1.214 . S
H615 C643 0.929 . S
H616 C644 0.929 . S
H617 C645 0.930 . S
H618 C646 0.929 . S
H619 C648 0.930 . S
H620 C625 0.930 . S
H621 C629 0.930 . S
O622 Co591 2.037 . S
O622 C642 1.234 . S
C623 O597 1.269 . S
C623 O598 1.257 . S
C624 H599 0.930 . S
C624 C627 1.388 . S
C624 C629 1.418 . S
C625 H620 0.930 . S
C625 C628 1.404 . S
C625 C629 1.353 . S
N626 Co591 2.145 . S
N626 C627 1.397 . S
N626 C628 1.334 . S
C627 H608 0.929 . S
C627 C624 1.388 . S
C627 N626 1.397 . S
C628 H609 0.929 . S
C628 C625 1.404 . S
C628 N626 1.334 . S
C629 H621 0.930 . S
C629 C624 1.418 . S
C629 C625 1.353 . S
C630 H600 0.930 . S
C630 N631 1.330 . S
C630 C632 1.446 . S
N631 Co590 2.151 . S
N631 C630 1.330 . S
N631 C635 1.418 . S
C632 H611 0.929 . S
C632 C630 1.446 . S
C632 C633 1.332 . S
C633 H613 0.931 . S
C633 C632 1.332 . S
C633 C634 1.267 . S
C634 H602 0.929 . S
C634 C633 1.267 . S
C634 C635 1.251 . S
C635 H605 0.929 . S
C635 N631 1.418 . S
C635 C634 1.251 . S
C636 H603 0.930 . S
C636 C638 1.406 . S
C636 C641 1.261 . S
C637 H604 0.930 . S
C637 N639 1.325 . S
C637 C640 1.357 . S
C638 H606 0.928 . S
C638 C636 1.406 . S
C638 N639 1.261 . S
N639 Co590 2.214 . S
N639 C637 1.325 . S
N639 C638 1.261 . S
C640 H610 0.931 . S
C640 C637 1.357 . S
C640 C641 1.312 . S
C641 H612 0.930 . S
C641 C636 1.261 . S
C641 C640 1.312 . S
C642 O614 1.214 . S
C642 O622 1.234 . S
C643 H615 0.929 . S
C643 C646 1.391 . S
C643 C648 1.391 . S
C644 H616 0.929 . S
C644 C645 1.390 . S
C644 N647 1.391 . S
C645 H617 0.930 . S
C645 C644 1.390 . S
C645 C646 1.392 . S
C646 H618 0.929 . S
C646 C643 1.391 . S
C646 C645 1.392 . S
N647 Co591 2.257 . S
N647 C644 1.391 . S
N647 C648 1.388 . S
C648 H619 0.930 . S
C648 C643 1.391 . S
C648 N647 1.388 . S
Co649 O651 2.143 . S
Co649 O657 2.074 . S
Co649 O660 2.093 . S
Co649 O673 2.097 . S
Co649 N690 2.151 . S
Co649 N698 2.214 1_556 S
Co650 O651 2.160 . S
Co650 O656 2.058 . S
Co650 O666 2.057 . S
Co650 O681 2.037 . S
Co650 N685 2.145 . S
Co650 N706 2.257 . S
O651 Co649 2.143 . S
O651 Co650 2.160 . S
C652 O653 1.278 . S
C652 O660 1.224 . S
O653 C652 1.278 . S
C654 O655 1.245 . S
C654 O666 1.232 . S
O655 C654 1.245 . S
O656 Co650 2.058 . S
O656 C682 1.269 . S
O657 Co649 2.074 . S
O657 C682 1.257 . S
H658 C683 0.930 . S
H659 C689 0.930 . S
O660 Co649 2.093 . S
O660 C652 1.224 . S
H661 C693 0.926 1_554 S
H662 C695 0.930 . S
H663 C696 0.930 . S
H664 C694 0.929 1_554 S
H665 C697 0.928 . S
O666 Co650 2.057 . S
O666 C654 1.232 . S
H667 C686 0.929 . S
H668 C687 0.929 . S
H669 C699 0.931 . S
H670 C691 0.929 . S
H671 C700 0.930 . S
H672 C692 0.931 . S
O673 Co649 2.097 . S
O673 C701 1.214 . S
H674 C702 0.929 . S
H675 C703 0.929 . S
H676 C704 0.930 . S
H677 C705 0.929 . S
H678 C707 0.930 . S
H679 C684 0.930 . S
H680 C688 0.930 . S
O681 Co650 2.037 . S
O681 C701 1.234 . S
C682 O656 1.269 . S
C682 O657 1.257 . S
C683 H658 0.930 . S
C683 C686 1.388 . S
C683 C688 1.418 . S
C684 H679 0.930 . S
C684 C687 1.404 . S
C684 C688 1.353 . S
N685 Co650 2.145 . S
N685 C686 1.397 . S
N685 C687 1.334 . S
C686 H667 0.929 . S
C686 C683 1.388 . S
C686 N685 1.397 . S
C687 H668 0.929 . S
C687 C684 1.404 . S
C687 N685 1.334 . S
C688 H680 0.930 . S
C688 C683 1.418 . S
C688 C684 1.353 . S
C689 H659 0.930 . S
C689 N690 1.330 . S
C689 C691 1.446 . S
N690 Co649 2.151 . S
N690 C689 1.330 . S
N690 C694 1.418 . S
C691 H670 0.929 . S
C691 C689 1.446 . S
C691 C692 1.332 . S
C692 H672 0.931 . S
C692 C691 1.332 . S
C692 C693 1.269 . S
C693 H661 0.926 1_556 S
C693 C692 1.269 . S
C693 C694 1.252 . S
C694 H664 0.929 1_556 S
C694 N690 1.418 . S
C694 C693 1.252 . S
C695 H662 0.930 . S
C695 C697 1.406 . S
C695 C700 1.261 . S
C696 H663 0.930 . S
C696 N698 1.325 . S
C696 C699 1.357 . S
C697 H665 0.928 . S
C697 C695 1.406 . S
C697 N698 1.261 . S
N698 Co649 2.214 1_554 S
N698 C696 1.325 . S
N698 C697 1.261 . S
C699 H669 0.931 . S
C699 C696 1.357 . S
C699 C700 1.312 . S
C700 H671 0.930 . S
C700 C695 1.261 . S
C700 C699 1.312 . S
C701 O673 1.214 . S
C701 O681 1.234 . S
C702 H674 0.929 . S
C702 C705 1.391 . S
C702 C707 1.391 . S
C703 H675 0.929 . S
C703 C704 1.390 . S
C703 N706 1.391 . S
C704 H676 0.930 . S
C704 C703 1.390 . S
C704 C705 1.392 . S
C705 H677 0.929 . S
C705 C702 1.391 . S
C705 C704 1.392 . S
N706 Co650 2.257 . S
N706 C703 1.391 . S
N706 C707 1.388 . S
C707 H678 0.930 . S
C707 C702 1.391 . S
C707 N706 1.388 . S
C708 C709 1.391 . S
C708 C710 1.394 . S
C708 H724 0.931 . S
C709 C708 1.391 . S
C709 C713 1.376 . S
C710 C708 1.394 . S
C710 C711 1.369 . S
C710 C714 1.531 . S
C711 C710 1.369 . S
C711 C712 1.410 . S
C711 C719 1.503 . S
C712 C711 1.410 . S
C712 C713 1.392 . S
C712 C715 1.511 . S
C713 C709 1.376 . S
C713 C712 1.392 . S
C713 H725 0.929 . S
C714 C710 1.531 . S
C714 H726 0.960 . S
C714 H727 0.962 . S
C714 H728 0.960 . S
C715 C712 1.511 . S
C715 H729 0.961 . S
C715 H730 0.961 . S
C715 H731 0.961 . S
C716 C717 1.370 . S
C716 C718 1.363 . S
C716 H732 0.931 . S
C717 C716 1.370 . S
C717 C721 1.408 . S
C718 C716 1.363 . S
C718 C719 1.370 . S
C718 C722 1.524 . S
C719 C711 1.503 . S
C719 C718 1.370 . S
C719 C720 1.403 . S
C720 C719 1.403 . S
C720 C721 1.404 . S
C720 C723 1.539 . S
C721 C717 1.408 . S
C721 C720 1.404 . S
C721 H733 0.930 . S
C722 C718 1.524 . S
C722 H734 0.956 . S
C722 H735 0.961 . S
C722 H736 0.961 . S
C723 C720 1.539 . S
C723 H737 0.958 . S
C723 H738 0.961 . S
C723 H739 0.960 . S
H724 C708 0.931 . S
H725 C713 0.929 . S
H726 C714 0.960 . S
H727 C714 0.962 . S
H728 C714 0.960 . S
H729 C715 0.961 . S
H730 C715 0.961 . S
H731 C715 0.961 . S
H732 C716 0.931 . S
H733 C721 0.930 . S
H734 C722 0.956 . S
H735 C722 0.961 . S
H736 C722 0.961 . S
H737 C723 0.958 . S
H738 C723 0.961 . S
H739 C723 0.960 . S
C740 C741 1.391 . S
C740 C742 1.394 . S
C740 H756 0.931 . S
C741 C740 1.391 . S
C741 C745 1.376 . S
C742 C740 1.394 . S
C742 C743 1.369 . S
C742 C746 1.531 . S
C743 C742 1.369 . S
C743 C744 1.410 . S
C743 C751 1.503 . S
C744 C743 1.410 . S
C744 C745 1.392 . S
C744 C747 1.511 . S
C745 C741 1.376 . S
C745 C744 1.392 . S
C745 H757 0.929 . S
C746 C742 1.531 . S
C746 H758 0.960 . S
C746 H759 0.962 . S
C746 H760 0.960 . S
C747 C744 1.511 . S
C747 H761 0.961 . S
C747 H762 0.961 . S
C747 H763 0.961 . S
C748 C749 1.370 . S
C748 C750 1.363 . S
C748 H764 0.931 . S
C749 C748 1.370 . S
C749 C753 1.408 . S
C750 C748 1.363 . S
C750 C751 1.370 . S
C750 C754 1.524 . S
C751 C743 1.503 . S
C751 C750 1.370 . S
C751 C752 1.403 . S
C752 C751 1.403 . S
C752 C753 1.404 . S
C752 C755 1.539 . S
C753 C749 1.408 . S
C753 C752 1.404 . S
C753 H765 0.930 . S
C754 C750 1.524 . S
C754 H766 0.956 . S
C754 H767 0.961 . S
C754 H768 0.961 . S
C755 C752 1.539 . S
C755 H769 0.958 . S
C755 H770 0.961 . S
C755 H771 0.960 . S
H756 C740 0.931 . S
H757 C745 0.929 . S
H758 C746 0.960 . S
H759 C746 0.962 . S
H760 C746 0.960 . S
H761 C747 0.961 . S
H762 C747 0.961 . S
H763 C747 0.961 . S
H764 C748 0.931 . S
H765 C753 0.930 . S
H766 C754 0.956 . S
H767 C754 0.961 . S
H768 C754 0.961 . S
H769 C755 0.958 . S
H770 C755 0.961 . S
H771 C755 0.960 . S
C772 C773 1.391 . S
C772 C774 1.394 . S
C772 H788 0.931 . S
C773 C772 1.391 . S
C773 C777 1.376 . S
C774 C772 1.394 . S
C774 C775 1.369 . S
C774 C778 1.531 . S
C775 C774 1.369 . S
C775 C776 1.410 . S
C775 C783 1.503 . S
C776 C775 1.410 . S
C776 C777 1.392 . S
C776 C779 1.511 . S
C777 C773 1.376 . S
C777 C776 1.392 . S
C777 H789 0.929 . S
C778 C774 1.531 . S
C778 H790 0.960 . S
C778 H791 0.962 . S
C778 H792 0.960 . S
C779 C776 1.511 . S
C779 H793 0.961 . S
C779 H794 0.961 . S
C779 H795 0.961 . S
C780 C781 1.370 . S
C780 C782 1.363 . S
C780 H796 0.931 . S
C781 C780 1.370 . S
C781 C785 1.408 . S
C782 C780 1.363 . S
C782 C783 1.370 . S
C782 C786 1.524 . S
C783 C775 1.503 . S
C783 C782 1.370 . S
C783 C784 1.403 . S
C784 C783 1.403 . S
C784 C785 1.404 . S
C784 C787 1.539 . S
C785 C781 1.408 . S
C785 C784 1.404 . S
C785 H797 0.930 . S
C786 C782 1.524 . S
C786 H798 0.956 . S
C786 H799 0.961 . S
C786 H800 0.961 . S
C787 C784 1.539 . S
C787 H801 0.958 . S
C787 H802 0.961 . S
C787 H803 0.960 . S
H788 C772 0.931 . S
H789 C777 0.929 . S
H790 C778 0.960 . S
H791 C778 0.962 . S
H792 C778 0.960 . S
H793 C779 0.961 . S
H794 C779 0.961 . S
H795 C779 0.961 . S
H796 C780 0.931 . S
H797 C785 0.930 . S
H798 C786 0.956 . S
H799 C786 0.961 . S
H800 C786 0.961 . S
H801 C787 0.958 . S
H802 C787 0.961 . S
H803 C787 0.960 . S
C804 C805 1.391 . S
C804 C806 1.394 . S
C804 H820 0.931 . S
C805 C804 1.391 . S
C805 C809 1.376 . S
C806 C804 1.394 . S
C806 C807 1.369 . S
C806 C810 1.531 . S
C807 C806 1.369 . S
C807 C808 1.410 . S
C807 C815 1.503 . S
C808 C807 1.410 . S
C808 C809 1.392 . S
C808 C811 1.511 . S
C809 C805 1.376 . S
C809 C808 1.392 . S
C809 H821 0.929 . S
C810 C806 1.531 . S
C810 H822 0.960 . S
C810 H823 0.962 . S
C810 H824 0.960 . S
C811 C808 1.511 . S
C811 H825 0.961 . S
C811 H826 0.961 . S
C811 H827 0.961 . S
C812 C813 1.370 . S
C812 C814 1.363 . S
C812 H828 0.931 . S
C813 C812 1.370 . S
C813 C817 1.408 . S
C814 C812 1.363 . S
C814 C815 1.370 . S
C814 C818 1.524 . S
C815 C807 1.503 . S
C815 C814 1.370 . S
C815 C816 1.403 . S
C816 C815 1.403 . S
C816 C817 1.404 . S
C816 C819 1.539 . S
C817 C813 1.408 . S
C817 C816 1.404 . S
C817 H829 0.930 . S
C818 C814 1.524 . S
C818 H830 0.956 . S
C818 H831 0.961 . S
C818 H832 0.961 . S
C819 C816 1.539 . S
C819 H833 0.958 . S
C819 H834 0.961 . S
C819 H835 0.960 . S
H820 C804 0.931 . S
H821 C809 0.929 . S
H822 C810 0.960 . S
H823 C810 0.962 . S
H824 C810 0.960 . S
H825 C811 0.961 . S
H826 C811 0.961 . S
H827 C811 0.961 . S
H828 C812 0.931 . S
H829 C817 0.930 . S
H830 C818 0.956 . S
H831 C818 0.961 . S
H832 C818 0.961 . S
H833 C819 0.958 . S
H834 C819 0.961 . S
H835 C819 0.960 . S
C836 C837 1.391 . S
C836 C838 1.394 . S
C836 H852 0.931 . S
C837 C836 1.391 . S
C837 C841 1.376 . S
C838 C836 1.394 . S
C838 C839 1.369 . S
C838 C842 1.531 . S
C839 C838 1.369 . S
C839 C840 1.410 . S
C839 C847 1.503 . S
C840 C839 1.410 . S
C840 C841 1.392 . S
C840 C843 1.511 . S
C841 C837 1.376 . S
C841 C840 1.392 . S
C841 H853 0.929 . S
C842 C838 1.531 . S
C842 H854 0.960 . S
C842 H855 0.962 . S
C842 H856 0.960 . S
C843 C840 1.511 . S
C843 H857 0.961 . S
C843 H858 0.961 . S
C843 H859 0.961 . S
C844 C845 1.370 . S
C844 C846 1.363 . S
C844 H860 0.931 . S
C845 C844 1.370 . S
C845 C849 1.408 . S
C846 C844 1.363 . S
C846 C847 1.370 . S
C846 C850 1.524 . S
C847 C839 1.503 . S
C847 C846 1.370 . S
C847 C848 1.403 . S
C848 C847 1.403 . S
C848 C849 1.404 . S
C848 C851 1.539 . S
C849 C845 1.408 . S
C849 C848 1.404 . S
C849 H861 0.930 . S
C850 C846 1.524 . S
C850 H862 0.956 . S
C850 H863 0.961 . S
C850 H864 0.961 . S
C851 C848 1.539 . S
C851 H865 0.958 . S
C851 H866 0.961 . S
C851 H867 0.960 . S
H852 C836 0.931 . S
H853 C841 0.929 . S
H854 C842 0.960 . S
H855 C842 0.962 . S
H856 C842 0.960 . S
H857 C843 0.961 . S
H858 C843 0.961 . S
H859 C843 0.961 . S
H860 C844 0.931 . S
H861 C849 0.930 . S
H862 C850 0.956 . S
H863 C850 0.961 . S
H864 C850 0.961 . S
H865 C851 0.958 . S
H866 C851 0.961 . S
H867 C851 0.960 . S
C868 C869 1.391 . S
C868 C870 1.394 . S
C868 H884 0.931 . S
C869 C868 1.391 . S
C869 C873 1.376 . S
C870 C868 1.394 . S
C870 C871 1.369 . S
C870 C874 1.531 . S
C871 C870 1.369 . S
C871 C872 1.410 . S
C871 C879 1.503 . S
C872 C871 1.410 . S
C872 C873 1.392 . S
C872 C875 1.511 . S
C873 C869 1.376 . S
C873 C872 1.392 . S
C873 H885 0.929 . S
C874 C870 1.531 . S
C874 H886 0.960 . S
C874 H887 0.962 . S
C874 H888 0.960 . S
C875 C872 1.511 . S
C875 H889 0.961 . S
C875 H890 0.961 . S
C875 H891 0.961 . S
C876 C877 1.370 . S
C876 C878 1.363 . S
C876 H892 0.931 . S
C877 C876 1.370 . S
C877 C881 1.408 . S
C878 C876 1.363 . S
C878 C879 1.370 . S
C878 C882 1.524 . S
C879 C871 1.503 . S
C879 C878 1.370 . S
C879 C880 1.403 . S
C880 C879 1.403 . S
C880 C881 1.404 . S
C880 C883 1.539 . S
C881 C877 1.408 . S
C881 C880 1.404 . S
C881 H893 0.930 . S
C882 C878 1.524 . S
C882 H894 0.956 . S
C882 H895 0.961 . S
C882 H896 0.961 . S
C883 C880 1.539 . S
C883 H897 0.958 . S
C883 H898 0.961 . S
C883 H899 0.960 . S
H884 C868 0.931 . S
H885 C873 0.929 . S
H886 C874 0.960 . S
H887 C874 0.962 . S
H888 C874 0.960 . S
H889 C875 0.961 . S
H890 C875 0.961 . S
H891 C875 0.961 . S
H892 C876 0.931 . S
H893 C881 0.930 . S
H894 C882 0.956 . S
H895 C882 0.961 . S
H896 C882 0.961 . S
H897 C883 0.958 . S
H898 C883 0.961 . S
H899 C883 0.960 . S
C900 C901 1.391 . S
C900 C902 1.394 . S
C900 H916 0.931 . S
C901 C900 1.391 . S
C901 C905 1.376 . S
C902 C900 1.394 . S
C902 C903 1.369 . S
C902 C906 1.531 1_545 S
C903 C902 1.369 . S
C903 C904 1.410 . S
C903 C911 1.503 1_545 S
C904 C903 1.410 . S
C904 C905 1.392 . S
C904 C907 1.511 1_554 S
C905 C901 1.376 . S
C905 C904 1.392 . S
C905 H917 0.929 . S
C906 C902 1.531 1_565 S
C906 H918 0.960 . S
C906 H919 0.962 . S
C906 H920 0.960 . S
C907 C904 1.511 1_556 S
C907 H921 0.961 . S
C907 H922 0.961 . S
C907 H923 0.961 1_556 S
C908 C909 1.370 . S
C908 C910 1.363 . S
C908 H924 0.931 . S
C909 C908 1.370 . S
C909 C913 1.408 1_556 S
C910 C908 1.363 . S
C910 C911 1.370 1_556 S
C910 C914 1.524 . S
C911 C903 1.503 1_565 S
C911 C910 1.370 1_554 S
C911 C912 1.403 . S
C912 C911 1.403 . S
C912 C913 1.404 . S
C912 C915 1.539 1_565 S
C913 C909 1.408 1_554 S
C913 C912 1.404 . S
C913 H925 0.930 . S
C914 C910 1.524 . S
C914 H926 0.956 . S
C914 H927 0.961 1_565 S
C914 H928 0.961 . S
C915 C912 1.539 1_545 S
C915 H929 0.958 1_545 S
C915 H930 0.961 . S
C915 H931 0.960 . S
H916 C900 0.931 . S
H917 C905 0.929 . S
H918 C906 0.960 . S
H919 C906 0.962 . S
H920 C906 0.960 . S
H921 C907 0.961 . S
H922 C907 0.961 . S
H923 C907 0.961 1_554 S
H924 C908 0.931 . S
H925 C913 0.930 . S
H926 C914 0.956 . S
H927 C914 0.961 1_545 S
H928 C914 0.961 . S
H929 C915 0.958 1_565 S
H930 C915 0.961 . S
H931 C915 0.960 . S
C932 C933 1.391 . S
C932 C934 1.394 . S
C932 H948 0.931 . S
C933 C932 1.391 . S
C933 C937 1.376 . S
C934 C932 1.394 . S
C934 C935 1.369 . S
C934 C938 1.531 . S
C935 C934 1.369 . S
C935 C936 1.410 . S
C935 C943 1.503 . S
C936 C935 1.410 . S
C936 C937 1.392 . S
C936 C939 1.511 . S
C937 C933 1.376 . S
C937 C936 1.392 . S
C937 H949 0.929 . S
C938 C934 1.531 . S
C938 H950 0.960 . S
C938 H951 0.962 . S
C938 H952 0.960 . S
C939 C936 1.511 . S
C939 H953 0.961 . S
C939 H954 0.961 . S
C939 H955 0.961 . S
C940 C941 1.370 . S
C940 C942 1.363 . S
C940 H956 0.931 . S
C941 C940 1.370 . S
C941 C945 1.408 . S
C942 C940 1.363 . S
C942 C943 1.370 . S
C942 C946 1.524 . S
C943 C935 1.503 . S
C943 C942 1.370 . S
C943 C944 1.403 . S
C944 C943 1.403 . S
C944 C945 1.404 . S
C944 C947 1.539 . S
C945 C941 1.408 . S
C945 C944 1.404 . S
C945 H957 0.930 . S
C946 C942 1.524 . S
C946 H958 0.956 . S
C946 H959 0.961 . S
C946 H960 0.961 . S
C947 C944 1.539 . S
C947 H961 0.958 . S
C947 H962 0.961 . S
C947 H963 0.960 . S
H948 C932 0.931 . S
H949 C937 0.929 . S
H950 C938 0.960 . S
H951 C938 0.962 . S
H952 C938 0.960 . S
H953 C939 0.961 . S
H954 C939 0.961 . S
H955 C939 0.961 . S
H956 C940 0.931 . S
H957 C945 0.930 . S
H958 C946 0.956 . S
H959 C946 0.961 . S
H960 C946 0.961 . S
H961 C947 0.958 . S
H962 C947 0.961 . S
H963 C947 0.960 . S
C964 C965 1.391 . S
C964 C966 1.394 . S
C964 H980 0.931 . S
C965 C964 1.391 . S
C965 C969 1.376 1_556 S
C966 C964 1.394 . S
C966 C967 1.369 . S
C966 C970 1.531 . S
C967 C966 1.369 . S
C967 C968 1.410 1_556 S
C967 C975 1.503 1_456 S
C968 C967 1.410 1_554 S
C968 C969 1.392 . S
C968 C971 1.511 . S
C969 C965 1.376 1_554 S
C969 C968 1.392 . S
C969 H981 0.929 . S
C970 C966 1.531 . S
C970 H982 0.960 1_455 S
C970 H983 0.962 1_455 S
C970 H984 0.960 . S
C971 C968 1.511 . S
C971 H985 0.961 . S
C971 H986 0.961 . S
C971 H987 0.961 . S
C972 C973 1.370 . S
C972 C974 1.363 . S
C972 H988 0.931 . S
C973 C972 1.370 . S
C973 C977 1.408 . S
C974 C972 1.363 . S
C974 C975 1.370 . S
C974 C978 1.524 . S
C975 C967 1.503 1_654 S
C975 C974 1.370 . S
C975 C976 1.403 . S
C976 C975 1.403 . S
C976 C977 1.404 . S
C976 C979 1.539 . S
C977 C973 1.408 . S
C977 C976 1.404 . S
C977 H989 0.930 . S
C978 C974 1.524 . S
C978 H990 0.956 1_554 S
C978 H991 0.961 1_655 S
C978 H992 0.961 . S
C979 C976 1.539 . S
C979 H993 0.958 1_554 S
C979 H994 0.961 . S
C979 H995 0.936 1_655 S
H980 C964 0.931 . S
H981 C969 0.929 . S
H982 C970 0.960 1_655 S
H983 C970 0.962 1_655 S
H984 C970 0.960 . S
H985 C971 0.961 . S
H986 C971 0.961 . S
H987 C971 0.961 . S
H988 C972 0.931 . S
H989 C977 0.930 . S
H990 C978 0.956 1_556 S
H991 C978 0.961 1_455 S
H992 C978 0.961 . S
H993 C979 0.958 1_556 S
H994 C979 0.961 . S
H995 C979 0.936 1_455 S
C996 C997 1.391 . S
C996 C998 1.394 . S
C996 H1012 0.931 . S
C997 C996 1.391 . S
C997 C1001 1.376 . S
C998 C996 1.394 . S
C998 C999 1.369 . S
C998 C1002 1.531 1_545 S
C999 C998 1.369 . S
C999 C1000 1.410 . S
C999 C1007 1.503 1_545 S
C1000 C999 1.410 . S
C1000 C1001 1.392 . S
C1000 C1003 1.511 . S
C1001 C997 1.376 . S
C1001 C1000 1.392 . S
C1001 H1013 0.929 . S
C1002 C998 1.531 1_565 S
C1002 H1014 0.960 . S
C1002 H1015 0.962 . S
C1002 H1016 0.960 1_565 S
C1003 C1000 1.511 . S
C1003 H1017 0.961 . S
C1003 H1018 0.961 . S
C1003 H1019 0.961 . S
C1004 C1005 1.370 . S
C1004 C1006 1.363 . S
C1004 H1020 0.931 . S
C1005 C1004 1.370 . S
C1005 C1009 1.408 . S
C1006 C1004 1.363 . S
C1006 C1007 1.370 . S
C1006 C1010 1.524 . S
C1007 C999 1.503 1_565 S
C1007 C1006 1.370 . S
C1007 C1008 1.403 . S
C1008 C1007 1.403 . S
C1008 C1009 1.404 . S
C1008 C1011 1.539 1_565 S
C1009 C1005 1.408 . S
C1009 C1008 1.404 . S
C1009 H1021 0.930 . S
C1010 C1006 1.524 . S
C1010 H1022 0.956 . S
C1010 H1023 0.961 . S
C1010 H1024 0.961 . S
C1011 C1008 1.539 1_545 S
C1011 H1025 0.958 . S
C1011 H1026 0.961 . S
C1011 H1027 0.960 . S
H1012 C996 0.931 . S
H1013 C1001 0.929 . S
H1014 C1002 0.960 . S
H1015 C1002 0.962 . S
H1016 C1002 0.960 1_545 S
H1017 C1003 0.961 . S
H1018 C1003 0.961 . S
H1019 C1003 0.961 . S
H1020 C1004 0.931 . S
H1021 C1009 0.930 . S
H1022 C1010 0.956 . S
H1023 C1010 0.961 . S
H1024 C1010 0.961 . S
H1025 C1011 0.958 . S
H1026 C1011 0.961 . S
H1027 C1011 0.960 . S
C1028 C1029 1.391 1_554 S
C1028 C1030 1.394 . S
C1028 H1044 0.931 . S
C1029 C1028 1.391 1_556 S
C1029 C1033 1.376 . S
C1030 C1028 1.394 . S
C1030 C1031 1.360 1_554 S
C1030 C1034 1.531 . S
C1031 C1030 1.360 1_556 S
C1031 C1032 1.423 . S
C1031 C1039 1.501 1_556 S
C1032 C1031 1.423 . S
C1032 C1033 1.392 . S
C1032 C1035 1.511 . S
C1033 C1029 1.376 . S
C1033 C1032 1.392 . S
C1033 H1045 0.929 . S
C1034 C1030 1.531 . S
C1034 H1046 0.960 . S
C1034 H1047 0.962 . S
C1034 H1048 0.960 . S
C1035 C1032 1.511 . S
C1035 H1049 0.961 . S
C1035 H1050 0.961 . S
C1035 H1051 0.961 . S
C1036 C1037 1.370 1_556 S
C1036 C1038 1.363 . S
C1036 H1052 0.931 . S
C1037 C1036 1.370 1_554 S
C1037 C1041 1.408 . S
C1038 C1036 1.363 . S
C1038 C1039 1.370 1_556 S
C1038 C1042 1.524 . S
C1039 C1031 1.501 1_554 S
C1039 C1038 1.370 1_554 S
C1039 C1040 1.403 . S
C1040 C1039 1.403 . S
C1040 C1041 1.404 . S
C1040 C1043 1.539 . S
C1041 C1037 1.408 . S
C1041 C1040 1.404 . S
C1041 H1053 0.930 . S
C1042 C1038 1.524 . S
C1042 H1054 0.956 . S
C1042 H1055 0.961 . S
C1042 H1056 0.961 . S
C1043 C1040 1.539 . S
C1043 H1057 0.958 . S
C1043 H1058 0.961 . S
C1043 H1059 0.960 . S
H1044 C1028 0.931 . S
H1045 C1033 0.929 . S
H1046 C1034 0.960 . S
H1047 C1034 0.962 . S
H1048 C1034 0.960 . S
H1049 C1035 0.961 . S
H1050 C1035 0.961 . S
H1051 C1035 0.961 . S
H1052 C1036 0.931 . S
H1053 C1041 0.930 . S
H1054 C1042 0.956 . S
H1055 C1042 0.961 . S
H1056 C1042 0.961 . S
H1057 C1043 0.958 . S
H1058 C1043 0.961 . S
H1059 C1043 0.960 . S
C1060 C1061 1.391 . S
C1060 C1062 1.394 . S
C1060 H1076 0.931 . S
C1061 C1060 1.391 . S
C1061 C1065 1.376 . S
C1062 C1060 1.394 . S
C1062 C1063 1.369 . S
C1062 C1066 1.531 . S
C1063 C1062 1.369 . S
C1063 C1064 1.410 . S
C1063 C1071 1.503 1_655 S
C1064 C1063 1.410 . S
C1064 C1065 1.392 . S
C1064 C1067 1.511 . S
C1065 C1061 1.376 . S
C1065 C1064 1.392 . S
C1065 H1077 0.929 . S
C1066 C1062 1.531 . S
C1066 H1078 0.960 1_655 S
C1066 H1079 0.940 1_655 S
C1066 H1080 0.960 . S
C1067 C1064 1.511 . S
C1067 H1081 0.961 . S
C1067 H1082 0.961 . S
C1067 H1083 0.961 . S
C1068 C1069 1.370 . S
C1068 C1070 1.363 . S
C1068 H1084 0.931 . S
C1069 C1068 1.370 . S
C1069 C1073 1.408 . S
C1070 C1068 1.363 . S
C1070 C1071 1.370 . S
C1070 C1074 1.524 . S
C1071 C1063 1.503 1_455 S
C1071 C1070 1.370 . S
C1071 C1072 1.403 . S
C1072 C1071 1.403 . S
C1072 C1073 1.404 . S
C1072 C1075 1.539 . S
C1073 C1069 1.408 . S
C1073 C1072 1.404 . S
C1073 H1085 0.930 . S
C1074 C1070 1.524 . S
C1074 H1086 0.957 1_455 S
C1074 H1087 0.961 1_455 S
C1074 H1088 0.961 . S
C1075 C1072 1.539 . S
C1075 H1089 0.958 . S
C1075 H1090 0.961 . S
C1075 H1091 0.960 . S
H1076 C1060 0.931 . S
H1077 C1065 0.929 . S
H1078 C1066 0.960 1_455 S
H1079 C1066 0.940 1_455 S
H1080 C1066 0.960 . S
H1081 C1067 0.961 . S
H1082 C1067 0.961 . S
H1083 C1067 0.961 . S
H1084 C1068 0.931 . S
H1085 C1073 0.930 . S
H1086 C1074 0.957 1_655 S
H1087 C1074 0.961 1_655 S
H1088 C1074 0.961 . S
H1089 C1075 0.958 . S
H1090 C1075 0.961 . S
H1091 C1075 0.960 . S
C1092 C1093 1.391 . S
C1092 C1094 1.394 . S
C1092 H1108 0.931 . S
C1093 C1092 1.391 . S
C1093 C1097 1.376 . S
C1094 C1092 1.394 . S
C1094 C1095 1.369 . S
C1094 C1098 1.531 . S
C1095 C1094 1.369 . S
C1095 C1096 1.410 . S
C1095 C1103 1.503 . S
C1096 C1095 1.410 . S
C1096 C1097 1.392 . S
C1096 C1099 1.511 1_554 S
C1097 C1093 1.376 . S
C1097 C1096 1.392 . S
C1097 H1109 0.929 1_554 S
C1098 C1094 1.531 . S
C1098 H1110 0.960 . S
C1098 H1111 0.962 . S
C1098 H1112 0.960 . S
C1099 C1096 1.511 1_556 S
C1099 H1113 0.961 . S
C1099 H1114 0.961 1_556 S
C1099 H1115 0.961 . S
C1100 C1101 1.370 . S
C1100 C1102 1.363 . S
C1100 H1116 0.931 . S
C1101 C1100 1.370 . S
C1101 C1105 1.408 . S
C1102 C1100 1.363 . S
C1102 C1103 1.370 . S
C1102 C1106 1.524 . S
C1103 C1095 1.503 . S
C1103 C1102 1.370 . S
C1103 C1104 1.403 . S
C1104 C1103 1.403 . S
C1104 C1105 1.404 . S
C1104 C1107 1.539 . S
C1105 C1101 1.408 . S
C1105 C1104 1.404 . S
C1105 H1117 0.930 . S
C1106 C1102 1.524 . S
C1106 H1118 0.956 . S
C1106 H1119 0.961 . S
C1106 H1120 0.961 . S
C1107 C1104 1.539 . S
C1107 H1121 0.958 . S
C1107 H1122 0.943 1_554 S
C1107 H1123 0.960 . S
H1108 C1092 0.931 . S
H1109 C1097 0.929 1_556 S
H1110 C1098 0.960 . S
H1111 C1098 0.962 . S
H1112 C1098 0.960 . S
H1113 C1099 0.961 . S
H1114 C1099 0.961 1_554 S
H1115 C1099 0.961 . S
H1116 C1100 0.931 . S
H1117 C1105 0.930 . S
H1118 C1106 0.956 . S
H1119 C1106 0.961 . S
H1120 C1106 0.961 . S
H1121 C1107 0.958 . S
H1122 C1107 0.943 1_556 S
H1123 C1107 0.960 . S
C1124 C1125 1.391 . S
C1124 C1126 1.394 . S
C1124 H1140 0.931 . S
C1125 C1124 1.391 . S
C1125 C1129 1.376 . S
C1126 C1124 1.394 . S
C1126 C1127 1.369 . S
C1126 C1130 1.531 . S
C1127 C1126 1.369 . S
C1127 C1128 1.410 . S
C1127 C1135 1.503 . S
C1128 C1127 1.410 . S
C1128 C1129 1.392 . S
C1128 C1131 1.511 . S
C1129 C1125 1.376 . S
C1129 C1128 1.392 . S
C1129 H1141 0.929 . S
C1130 C1126 1.531 . S
C1130 H1142 0.960 . S
C1130 H1143 0.962 . S
C1130 H1144 0.960 . S
C1131 C1128 1.511 . S
C1131 H1145 0.961 . S
C1131 H1146 0.961 . S
C1131 H1147 0.961 . S
C1132 C1133 1.370 . S
C1132 C1134 1.363 . S
C1132 H1148 0.931 . S
C1133 C1132 1.370 . S
C1133 C1137 1.408 . S
C1134 C1132 1.363 . S
C1134 C1135 1.370 . S
C1134 C1138 1.524 . S
C1135 C1127 1.503 . S
C1135 C1134 1.370 . S
C1135 C1136 1.403 . S
C1136 C1135 1.403 . S
C1136 C1137 1.404 . S
C1136 C1139 1.539 . S
C1137 C1133 1.408 . S
C1137 C1136 1.404 . S
C1137 H1149 0.930 . S
C1138 C1134 1.524 . S
C1138 H1150 0.956 . S
C1138 H1151 0.961 . S
C1138 H1152 0.961 . S
C1139 C1136 1.539 . S
C1139 H1153 0.958 . S
C1139 H1154 0.961 . S
C1139 H1155 0.960 . S
H1140 C1124 0.931 . S
H1141 C1129 0.929 . S
H1142 C1130 0.960 . S
H1143 C1130 0.962 . S
H1144 C1130 0.960 . S
H1145 C1131 0.961 . S
H1146 C1131 0.961 . S
H1147 C1131 0.961 . S
H1148 C1132 0.931 . S
H1149 C1137 0.930 . S
H1150 C1138 0.956 . S
H1151 C1138 0.961 . S
H1152 C1138 0.961 . S
H1153 C1139 0.958 . S
H1154 C1139 0.961 . S
H1155 C1139 0.960 . S
C1156 C1157 1.391 . S
C1156 C1158 1.394 . S
C1156 H1172 0.931 . S
C1157 C1156 1.391 . S
C1157 C1161 1.376 . S
C1158 C1156 1.394 . S
C1158 C1159 1.369 . S
C1158 C1162 1.531 . S
C1159 C1158 1.369 . S
C1159 C1160 1.410 . S
C1159 C1167 1.503 . S
C1160 C1159 1.410 . S
C1160 C1161 1.392 . S
C1160 C1163 1.511 . S
C1161 C1157 1.376 . S
C1161 C1160 1.392 . S
C1161 H1173 0.929 . S
C1162 C1158 1.531 . S
C1162 H1174 0.960 . S
C1162 H1175 0.962 . S
C1162 H1176 0.960 . S
C1163 C1160 1.511 . S
C1163 H1177 0.961 . S
C1163 H1178 0.961 . S
C1163 H1179 0.961 . S
C1164 C1165 1.370 . S
C1164 C1166 1.363 . S
C1164 H1180 0.931 . S
C1165 C1164 1.370 . S
C1165 C1169 1.408 . S
C1166 C1164 1.363 . S
C1166 C1167 1.370 . S
C1166 C1170 1.524 1_554 S
C1167 C1159 1.503 . S
C1167 C1166 1.370 . S
C1167 C1168 1.403 . S
C1168 C1167 1.403 . S
C1168 C1169 1.404 . S
C1168 C1171 1.539 . S
C1169 C1165 1.408 . S
C1169 C1168 1.404 . S
C1169 H1181 0.930 . S
C1170 C1166 1.524 1_556 S
C1170 H1182 0.956 . S
C1170 H1183 0.961 . S
C1170 H1184 0.961 . S
C1171 C1168 1.539 . S
C1171 H1185 0.958 . S
C1171 H1186 0.961 . S
C1171 H1187 0.960 . S
H1172 C1156 0.931 . S
H1173 C1161 0.929 . S
H1174 C1162 0.960 . S
H1175 C1162 0.962 . S
H1176 C1162 0.960 . S
H1177 C1163 0.961 . S
H1178 C1163 0.961 . S
H1179 C1163 0.961 . S
H1180 C1164 0.931 . S
H1181 C1169 0.930 . S
H1182 C1170 0.956 . S
H1183 C1170 0.961 . S
H1184 C1170 0.961 . S
H1185 C1171 0.958 . S
H1186 C1171 0.961 . S
H1187 C1171 0.960 . S
C1188 C1189 1.391 . S
C1188 C1190 1.394 . S
C1188 H1204 0.931 . S
C1189 C1188 1.391 . S
C1189 C1193 1.376 . S
C1190 C1188 1.394 . S
C1190 C1191 1.369 . S
C1190 C1194 1.531 . S
C1191 C1190 1.369 . S
C1191 C1192 1.410 . S
C1191 C1199 1.503 . S
C1192 C1191 1.410 . S
C1192 C1193 1.392 . S
C1192 C1195 1.511 . S
C1193 C1189 1.376 . S
C1193 C1192 1.392 . S
C1193 H1205 0.929 . S
C1194 C1190 1.531 . S
C1194 H1206 0.960 . S
C1194 H1207 0.962 . S
C1194 H1208 0.960 . S
C1195 C1192 1.511 . S
C1195 H1209 0.961 . S
C1195 H1210 0.961 . S
C1195 H1211 0.961 . S
C1196 C1197 1.370 . S
C1196 C1198 1.363 . S
C1196 H1212 0.931 . S
C1197 C1196 1.370 . S
C1197 C1201 1.408 . S
C1198 C1196 1.363 . S
C1198 C1199 1.370 . S
C1198 C1202 1.524 . S
C1199 C1191 1.503 . S
C1199 C1198 1.370 . S
C1199 C1200 1.403 . S
C1200 C1199 1.403 . S
C1200 C1201 1.404 . S
C1200 C1203 1.539 . S
C1201 C1197 1.408 . S
C1201 C1200 1.404 . S
C1201 H1213 0.930 . S
C1202 C1198 1.524 . S
C1202 H1214 0.956 . S
C1202 H1215 0.961 . S
C1202 H1216 0.961 . S
C1203 C1200 1.539 . S
C1203 H1217 0.958 . S
C1203 H1218 0.961 . S
C1203 H1219 0.960 . S
H1204 C1188 0.931 . S
H1205 C1193 0.929 . S
H1206 C1194 0.960 . S
H1207 C1194 0.962 . S
H1208 C1194 0.960 . S
H1209 C1195 0.961 . S
H1210 C1195 0.961 . S
H1211 C1195 0.961 . S
H1212 C1196 0.931 . S
H1213 C1201 0.930 . S
H1214 C1202 0.956 . S
H1215 C1202 0.961 . S
H1216 C1202 0.961 . S
H1217 C1203 0.958 . S
H1218 C1203 0.961 . S
H1219 C1203 0.960 . S
C1220 C1221 1.391 . S
C1220 C1222 1.394 . S
C1220 H1236 0.931 . S
C1221 C1220 1.391 . S
C1221 C1225 1.376 . S
C1222 C1220 1.394 . S
C1222 C1223 1.369 . S
C1222 C1226 1.531 . S
C1223 C1222 1.369 . S
C1223 C1224 1.410 . S
C1223 C1231 1.503 . S
C1224 C1223 1.410 . S
C1224 C1225 1.392 . S
C1224 C1227 1.511 1_554 S
C1225 C1221 1.376 . S
C1225 C1224 1.392 . S
C1225 H1237 0.929 1_554 S
C1226 C1222 1.531 . S
C1226 H1238 0.960 . S
C1226 H1239 0.962 . S
C1226 H1240 0.960 . S
C1227 C1224 1.511 1_556 S
C1227 H1241 0.961 . S
C1227 H1242 0.947 1_556 S
C1227 H1243 0.961 . S
C1228 C1229 1.370 . S
C1228 C1230 1.363 . S
C1228 H1244 0.931 . S
C1229 C1228 1.370 . S
C1229 C1233 1.408 . S
C1230 C1228 1.363 . S
C1230 C1231 1.370 . S
C1230 C1234 1.524 . S
C1231 C1223 1.503 . S
C1231 C1230 1.370 . S
C1231 C1232 1.403 . S
C1232 C1231 1.403 . S
C1232 C1233 1.404 . S
C1232 C1235 1.539 1_554 S
C1233 C1229 1.408 . S
C1233 C1232 1.404 . S
C1233 H1245 0.930 . S
C1234 C1230 1.524 . S
C1234 H1246 0.956 . S
C1234 H1247 0.961 . S
C1234 H1248 0.961 . S
C1235 C1232 1.539 1_556 S
C1235 H1249 0.958 1_556 S
C1235 H1250 0.961 . S
C1235 H1251 0.960 . S
H1236 C1220 0.931 . S
H1237 C1225 0.929 1_556 S
H1238 C1226 0.960 . S
H1239 C1226 0.962 . S
H1240 C1226 0.960 . S
H1241 C1227 0.961 . S
H1242 C1227 0.947 1_554 S
H1243 C1227 0.961 . S
H1244 C1228 0.931 . S
H1245 C1233 0.930 . S
H1246 C1234 0.956 . S
H1247 C1234 0.961 . S
H1248 C1234 0.961 . S
H1249 C1235 0.958 1_554 S
H1250 C1235 0.961 . S
H1251 C1235 0.960 . S
C1252 C1253 1.391 . S
C1252 C1254 1.394 . S
C1252 H1268 0.931 . S
C1253 C1252 1.391 . S
C1253 C1257 1.376 . S
C1254 C1252 1.394 . S
C1254 C1255 1.369 . S
C1254 C1258 1.531 . S
C1255 C1254 1.369 . S
C1255 C1256 1.410 . S
C1255 C1263 1.503 . S
C1256 C1255 1.410 . S
C1256 C1257 1.392 . S
C1256 C1259 1.511 . S
C1257 C1253 1.376 . S
C1257 C1256 1.392 . S
C1257 H1269 0.929 . S
C1258 C1254 1.531 . S
C1258 H1270 0.960 . S
C1258 H1271 0.962 . S
C1258 H1272 0.960 . S
C1259 C1256 1.511 . S
C1259 H1273 0.961 . S
C1259 H1274 0.961 . S
C1259 H1275 0.961 . S
C1260 C1261 1.370 . S
C1260 C1262 1.363 . S
C1260 H1276 0.931 . S
C1261 C1260 1.370 . S
C1261 C1265 1.408 . S
C1262 C1260 1.363 . S
C1262 C1263 1.370 . S
C1262 C1266 1.524 . S
C1263 C1255 1.503 . S
C1263 C1262 1.370 . S
C1263 C1264 1.403 . S
C1264 C1263 1.403 . S
C1264 C1265 1.404 . S
C1264 C1267 1.539 . S
C1265 C1261 1.408 . S
C1265 C1264 1.404 . S
C1265 H1277 0.930 . S
C1266 C1262 1.524 . S
C1266 H1278 0.956 . S
C1266 H1279 0.961 . S
C1266 H1280 0.961 . S
C1267 C1264 1.539 . S
C1267 H1281 0.958 . S
C1267 H1282 0.961 . S
C1267 H1283 0.960 . S
H1268 C1252 0.931 . S
H1269 C1257 0.929 . S
H1270 C1258 0.960 . S
H1271 C1258 0.962 . S
H1272 C1258 0.960 . S
H1273 C1259 0.961 . S
H1274 C1259 0.961 . S
H1275 C1259 0.961 . S
H1276 C1260 0.931 . S
H1277 C1265 0.930 . S
H1278 C1266 0.956 . S
H1279 C1266 0.961 . S
H1280 C1266 0.961 . S
H1281 C1267 0.958 . S
H1282 C1267 0.961 . S
H1283 C1267 0.960 . S
C1284 C1285 1.391 . S
C1284 C1286 1.394 . S
C1284 H1300 0.931 . S
C1285 C1284 1.391 . S
C1285 C1289 1.376 . S
C1286 C1284 1.394 . S
C1286 C1287 1.369 . S
C1286 C1290 1.531 . S
C1287 C1286 1.369 . S
C1287 C1288 1.410 . S
C1287 C1295 1.503 . S
C1288 C1287 1.410 . S
C1288 C1289 1.392 . S
C1288 C1291 1.511 . S
C1289 C1285 1.376 . S
C1289 C1288 1.392 . S
C1289 H1301 0.929 . S
C1290 C1286 1.531 . S
C1290 H1302 0.960 . S
C1290 H1303 0.962 . S
C1290 H1304 0.960 . S
C1291 C1288 1.511 . S
C1291 H1305 0.961 . S
C1291 H1306 0.961 . S
C1291 H1307 0.961 . S
C1292 C1293 1.370 . S
C1292 C1294 1.363 . S
C1292 H1308 0.931 . S
C1293 C1292 1.370 . S
C1293 C1297 1.408 . S
C1294 C1292 1.363 . S
C1294 C1295 1.370 . S
C1294 C1298 1.524 . S
C1295 C1287 1.503 . S
C1295 C1294 1.370 . S
C1295 C1296 1.403 . S
C1296 C1295 1.403 . S
C1296 C1297 1.404 . S
C1296 C1299 1.539 . S
C1297 C1293 1.408 . S
C1297 C1296 1.404 . S
C1297 H1309 0.930 . S
C1298 C1294 1.524 . S
C1298 H1310 0.956 . S
C1298 H1311 0.961 . S
C1298 H1312 0.961 . S
C1299 C1296 1.539 . S
C1299 H1313 0.958 . S
C1299 H1314 0.961 . S
C1299 H1315 0.960 . S
H1300 C1284 0.931 . S
H1301 C1289 0.929 . S
H1302 C1290 0.960 . S
H1303 C1290 0.962 . S
H1304 C1290 0.960 . S
H1305 C1291 0.961 . S
H1306 C1291 0.961 . S
H1307 C1291 0.961 . S
H1308 C1292 0.931 . S
H1309 C1297 0.930 . S
H1310 C1298 0.956 . S
H1311 C1298 0.961 . S
H1312 C1298 0.961 . S
H1313 C1299 0.958 . S
H1314 C1299 0.961 . S
H1315 C1299 0.960 . S
C1316 C1317 1.391 . S
C1316 C1318 1.394 . S
C1316 H1332 0.931 . S
C1317 C1316 1.391 . S
C1317 C1321 1.376 . S
C1318 C1316 1.394 . S
C1318 C1319 1.369 . S
C1318 C1322 1.531 . S
C1319 C1318 1.369 . S
C1319 C1320 1.410 . S
C1319 C1327 1.503 . S
C1320 C1319 1.410 . S
C1320 C1321 1.392 . S
C1320 C1323 1.511 . S
C1321 C1317 1.376 . S
C1321 C1320 1.392 . S
C1321 H1333 0.929 . S
C1322 C1318 1.531 . S
C1322 H1334 0.960 . S
C1322 H1335 0.962 . S
C1322 H1336 0.960 . S
C1323 C1320 1.511 . S
C1323 H1337 0.955 1_556 S
C1323 H1338 0.961 . S
C1323 H1339 0.961 . S
C1324 C1325 1.370 . S
C1324 C1326 1.363 . S
C1324 H1340 0.931 . S
C1325 C1324 1.370 . S
C1325 C1329 1.408 . S
C1326 C1324 1.363 . S
C1326 C1327 1.370 . S
C1326 C1330 1.524 1_556 S
C1327 C1319 1.503 . S
C1327 C1326 1.370 . S
C1327 C1328 1.403 . S
C1328 C1327 1.403 . S
C1328 C1329 1.404 . S
C1328 C1331 1.539 . S
C1329 C1325 1.408 . S
C1329 C1328 1.404 . S
C1329 H1341 0.930 . S
C1330 C1326 1.524 1_554 S
C1330 H1342 0.956 . S
C1330 H1343 0.961 . S
C1330 H1344 0.961 . S
C1331 C1328 1.539 . S
C1331 H1345 0.958 . S
C1331 H1346 0.961 . S
C1331 H1347 0.960 . S
H1332 C1316 0.931 . S
H1333 C1321 0.929 . S
H1334 C1322 0.960 . S
H1335 C1322 0.962 . S
H1336 C1322 0.960 . S
H1337 C1323 0.955 1_554 S
H1338 C1323 0.961 . S
H1339 C1323 0.961 . S
H1340 C1324 0.931 . S
H1341 C1329 0.930 . S
H1342 C1330 0.956 . S
H1343 C1330 0.961 . S
H1344 C1330 0.961 . S
H1345 C1331 0.958 . S
H1346 C1331 0.961 . S
H1347 C1331 0.960 . S
C1348 C1349 1.391 . S
C1348 C1350 1.394 . S
C1348 H1364 0.931 . S
C1349 C1348 1.391 . S
C1349 C1353 1.376 . S
C1350 C1348 1.394 . S
C1350 C1351 1.369 . S
C1350 C1354 1.531 . S
C1351 C1350 1.369 . S
C1351 C1352 1.410 . S
C1351 C1359 1.503 . S
C1352 C1351 1.410 . S
C1352 C1353 1.392 . S
C1352 C1355 1.511 . S
C1353 C1349 1.376 . S
C1353 C1352 1.392 . S
C1353 H1365 0.929 . S
C1354 C1350 1.531 . S
C1354 H1366 0.960 . S
C1354 H1367 0.962 . S
C1354 H1368 0.960 . S
C1355 C1352 1.511 . S
C1355 H1369 0.961 . S
C1355 H1370 0.961 . S
C1355 H1371 0.961 . S
C1356 C1357 1.370 . S
C1356 C1358 1.363 . S
C1356 H1372 0.931 . S
C1357 C1356 1.370 . S
C1357 C1361 1.408 . S
C1358 C1356 1.363 . S
C1358 C1359 1.370 . S
C1358 C1362 1.524 . S
C1359 C1351 1.503 . S
C1359 C1358 1.370 . S
C1359 C1360 1.403 . S
C1360 C1359 1.403 . S
C1360 C1361 1.404 . S
C1360 C1363 1.539 . S
C1361 C1357 1.408 . S
C1361 C1360 1.404 . S
C1361 H1373 0.930 . S
C1362 C1358 1.524 . S
C1362 H1374 0.956 . S
C1362 H1375 0.961 . S
C1362 H1376 0.961 . S
C1363 C1360 1.539 . S
C1363 H1377 0.958 . S
C1363 H1378 0.961 . S
C1363 H1379 0.960 . S
H1364 C1348 0.931 . S
H1365 C1353 0.929 . S
H1366 C1354 0.960 . S
H1367 C1354 0.962 . S
H1368 C1354 0.960 . S
H1369 C1355 0.961 . S
H1370 C1355 0.961 . S
H1371 C1355 0.961 . S
H1372 C1356 0.931 . S
H1373 C1361 0.930 . S
H1374 C1362 0.956 . S
H1375 C1362 0.961 . S
H1376 C1362 0.961 . S
H1377 C1363 0.958 . S
H1378 C1363 0.961 . S
H1379 C1363 0.960 . S
C1380 C1381 1.391 . S
C1380 C1382 1.394 . S
C1380 H1396 0.931 . S
C1381 C1380 1.391 . S
C1381 C1385 1.376 1_556 S
C1382 C1380 1.394 . S
C1382 C1383 1.369 . S
C1382 C1386 1.531 . S
C1383 C1382 1.369 . S
C1383 C1384 1.410 . S
C1383 C1391 1.503 . S
C1384 C1383 1.410 . S
C1384 C1385 1.392 1_556 S
C1384 C1387 1.511 1_556 S
C1385 C1381 1.376 1_554 S
C1385 C1384 1.392 1_554 S
C1385 H1397 0.929 . S
C1386 C1382 1.531 . S
C1386 H1398 0.960 . S
C1386 H1399 0.962 . S
C1386 H1400 0.960 . S
C1387 C1384 1.511 1_554 S
C1387 H1401 0.961 . S
C1387 H1402 0.961 . S
C1387 H1403 0.961 . S
C1388 C1389 1.370 . S
C1388 C1390 1.363 . S
C1388 H1404 0.931 . S
C1389 C1388 1.370 . S
C1389 C1393 1.408 . S
C1390 C1388 1.363 . S
C1390 C1391 1.370 . S
C1390 C1394 1.524 . S
C1391 C1383 1.503 . S
C1391 C1390 1.370 . S
C1391 C1392 1.403 . S
C1392 C1391 1.403 . S
C1392 C1393 1.404 . S
C1392 C1395 1.539 . S
C1393 C1389 1.408 . S
C1393 C1392 1.404 . S
C1393 H1405 0.930 . S
C1394 C1390 1.524 . S
C1394 H1406 0.956 . S
C1394 H1407 0.961 . S
C1394 H1408 0.961 . S
C1395 C1392 1.539 . S
C1395 H1409 0.958 . S
C1395 H1410 0.961 . S
C1395 H1411 0.960 . S
H1396 C1380 0.931 . S
H1397 C1385 0.929 . S
H1398 C1386 0.960 . S
H1399 C1386 0.962 . S
H1400 C1386 0.960 . S
H1401 C1387 0.961 . S
H1402 C1387 0.961 . S
H1403 C1387 0.961 . S
H1404 C1388 0.931 . S
H1405 C1393 0.930 . S
H1406 C1394 0.956 . S
H1407 C1394 0.961 . S
H1408 C1394 0.961 . S
H1409 C1395 0.958 . S
H1410 C1395 0.961 . S
H1411 C1395 0.960 . S
C1412 C1413 1.391 . S
C1412 C1414 1.394 . S
C1412 H1428 0.931 . S
C1413 C1412 1.391 . S
C1413 C1417 1.376 . S
C1414 C1412 1.394 . S
C1414 C1415 1.369 . S
C1414 C1418 1.531 . S
C1415 C1414 1.369 . S
C1415 C1416 1.410 . S
C1415 C1423 1.503 . S
C1416 C1415 1.410 . S
C1416 C1417 1.392 . S
C1416 C1419 1.511 . S
C1417 C1413 1.376 . S
C1417 C1416 1.392 . S
C1417 H1429 0.929 . S
C1418 C1414 1.531 . S
C1418 H1430 0.960 . S
C1418 H1431 0.962 . S
C1418 H1432 0.960 . S
C1419 C1416 1.511 . S
C1419 H1433 0.961 . S
C1419 H1434 0.961 . S
C1419 H1435 0.961 . S
C1420 C1421 1.370 . S
C1420 C1422 1.363 . S
C1420 H1436 0.931 . S
C1421 C1420 1.370 . S
C1421 C1425 1.408 . S
C1422 C1420 1.363 . S
C1422 C1423 1.370 . S
C1422 C1426 1.524 . S
C1423 C1415 1.503 . S
C1423 C1422 1.370 . S
C1423 C1424 1.403 . S
C1424 C1423 1.403 . S
C1424 C1425 1.404 . S
C1424 C1427 1.539 . S
C1425 C1421 1.408 . S
C1425 C1424 1.404 . S
C1425 H1437 0.930 . S
C1426 C1422 1.524 . S
C1426 H1438 0.956 . S
C1426 H1439 0.961 . S
C1426 H1440 0.961 . S
C1427 C1424 1.539 . S
C1427 H1441 0.958 . S
C1427 H1442 0.961 . S
C1427 H1443 0.960 . S
H1428 C1412 0.931 . S
H1429 C1417 0.929 . S
H1430 C1418 0.960 . S
H1431 C1418 0.962 . S
H1432 C1418 0.960 . S
H1433 C1419 0.961 . S
H1434 C1419 0.961 . S
H1435 C1419 0.961 . S
H1436 C1420 0.931 . S
H1437 C1425 0.930 . S
H1438 C1426 0.956 . S
H1439 C1426 0.961 . S
H1440 C1426 0.961 . S
H1441 C1427 0.958 . S
H1442 C1427 0.961 . S
H1443 C1427 0.960 . S
C1444 C1445 1.391 . S
C1444 C1446 1.394 . S
C1444 H1460 0.931 1_556 S
C1445 C1444 1.391 . S
C1445 C1449 1.376 . S
C1446 C1444 1.394 . S
C1446 C1447 1.369 . S
C1446 C1450 1.531 1_556 S
C1447 C1446 1.369 . S
C1447 C1448 1.410 . S
C1447 C1455 1.503 . S
C1448 C1447 1.410 . S
C1448 C1449 1.392 . S
C1448 C1451 1.511 . S
C1449 C1445 1.376 . S
C1449 C1448 1.392 . S
C1449 H1461 0.929 . S
C1450 C1446 1.531 1_554 S
C1450 H1462 0.960 . S
C1450 H1463 0.962 . S
C1450 H1464 0.960 . S
C1451 C1448 1.511 . S
C1451 H1465 0.961 . S
C1451 H1466 0.961 . S
C1451 H1467 0.961 . S
C1452 C1453 1.370 . S
C1452 C1454 1.363 . S
C1452 H1468 0.931 . S
C1453 C1452 1.370 . S
C1453 C1457 1.408 . S
C1454 C1452 1.363 . S
C1454 C1455 1.370 . S
C1454 C1458 1.524 . S
C1455 C1447 1.503 . S
C1455 C1454 1.370 . S
C1455 C1456 1.403 . S
C1456 C1455 1.403 . S
C1456 C1457 1.404 . S
C1456 C1459 1.539 . S
C1457 C1453 1.408 . S
C1457 C1456 1.404 . S
C1457 H1469 0.930 . S
C1458 C1454 1.524 . S
C1458 H1470 0.956 . S
C1458 H1471 0.961 . S
C1458 H1472 0.961 . S
C1459 C1456 1.539 . S
C1459 H1473 0.958 . S
C1459 H1474 0.961 . S
C1459 H1475 0.960 . S
H1460 C1444 0.931 1_554 S
H1461 C1449 0.929 . S
H1462 C1450 0.960 . S
H1463 C1450 0.962 . S
H1464 C1450 0.960 . S
H1465 C1451 0.961 . S
H1466 C1451 0.961 . S
H1467 C1451 0.961 . S
H1468 C1452 0.931 . S
H1469 C1457 0.930 . S
H1470 C1458 0.956 . S
H1471 C1458 0.961 . S
H1472 C1458 0.961 . S
H1473 C1459 0.958 . S
H1474 C1459 0.961 . S
H1475 C1459 0.960 . S
C709 C593 1.651 . S
C717 C3 1.660 . S
C741 C62 1.693 . S
C749 C654 1.686 . S
C773 C123 1.692 . S
C781 C357 1.694 . S
C805 C416 1.682 . S
C813 C180 1.658 . S
C837 C477 1.650 . S
C845 C239 1.678 . S
C869 C300 1.713 . S
C877 C534 1.682 . S
C901 C5 1.246 . S
C909 C418 1.250 . S
C933 C64 1.256 . S
C941 C475 1.268 . S
C965 C536 1.038 . S
C973 C121 1.037 . S
C997 C595 1.205 . S
C1005 C182 1.281 . S
C1029 C652 1.293 . S
C1037 C241 1.217 . S
C1061 C359 1.032 . S
C1069 C298 1.038 . S
C1093 C33 1.388 . S
C1101 C288 1.457 . S
C1125 C92 1.171 . S
C1133 C328 1.357 . S
C1157 C170 0.865 . S
C1165 C52 0.964 . S
C1189 C210 1.341 . S
C1197 C111 1.464 . S
C1221 C269 1.190 . S
C1229 C151 1.350 . S
C1253 C347 0.993 . S
C1261 C229 0.975 . S
C1285 C387 0.888 . S
C1293 C505 0.950 . S
C1317 C446 1.114 . S
C1325 C583 1.354 . S
C1349 C642 1.442 . S
C1357 C524 1.399 . S
C1381 C564 0.900 . S
C1389 C682 0.950 . S
C1413 C623 1.232 . S
C1421 C406 1.348 . S
C1445 C701 1.409 . S
C1453 C465 1.452 . S
